# Generated by pormake.
# Topology wjr, (5)-cn, num edge types: 1
# Building blocks:
#     Node 0, Type 0, BuildingBlock: XOMCOT_clean_sbu_0, # of connection points: 5
#     Node 1, Type 0, BuildingBlock: XOMCOT_clean_sbu_0, # of connection points: 5
#     Node 2, Type 0, BuildingBlock: XOMCOT_clean_sbu_0, # of connection points: 5
#     Node 3, Type 0, BuildingBlock: XOMCOT_clean_sbu_0, # of connection points: 5
#     Node 4, Type 0, BuildingBlock: XOMCOT_clean_sbu_0, # of connection points: 5
#     Node 5, Type 0, BuildingBlock: XOMCOT_clean_sbu_0, # of connection points: 5
#     Node 6, Type 0, BuildingBlock: XOMCOT_clean_sbu_0, # of connection points: 5
#     Node 7, Type 0, BuildingBlock: XOMCOT_clean_sbu_0, # of connection points: 5
#     Node 8, Type 0, BuildingBlock: XOMCOT_clean_sbu_0, # of connection points: 5
#     Node 9, Type 0, BuildingBlock: XOMCOT_clean_sbu_0, # of connection points: 5
#     Node 10, Type 0, BuildingBlock: XOMCOT_clean_sbu_0, # of connection points: 5
#     Node 11, Type 0, BuildingBlock: XOMCOT_clean_sbu_0, # of connection points: 5
#     Node 12, Type 0, BuildingBlock: XOMCOT_clean_sbu_0, # of connection points: 5
#     Node 13, Type 0, BuildingBlock: XOMCOT_clean_sbu_0, # of connection points: 5
#     Node 14, Type 0, BuildingBlock: XOMCOT_clean_sbu_0, # of connection points: 5
#     Node 15, Type 0, BuildingBlock: XOMCOT_clean_sbu_0, # of connection points: 5
#     Node 16, Type 0, BuildingBlock: XOMCOT_clean_sbu_0, # of connection points: 5
#     Node 17, Type 0, BuildingBlock: XOMCOT_clean_sbu_0, # of connection points: 5
#     Node 18, Type 0, BuildingBlock: XOMCOT_clean_sbu_0, # of connection points: 5
#     Node 19, Type 0, BuildingBlock: XOMCOT_clean_sbu_0, # of connection points: 5
#     Node 20, Type 0, BuildingBlock: XOMCOT_clean_sbu_0, # of connection points: 5
#     Node 21, Type 0, BuildingBlock: XOMCOT_clean_sbu_0, # of connection points: 5
#     Node 22, Type 0, BuildingBlock: XOMCOT_clean_sbu_0, # of connection points: 5
#     Node 23, Type 0, BuildingBlock: XOMCOT_clean_sbu_0, # of connection points: 5
#     Edge 24, Type (0, 0), BuildingBlock: OJICUG_clean_linker_0, # of connection points: 2
#     Edge 25, Type (0, 0), BuildingBlock: OJICUG_clean_linker_0, # of connection points: 2
#     Edge 26, Type (0, 0), BuildingBlock: OJICUG_clean_linker_0, # of connection points: 2
#     Edge 27, Type (0, 0), BuildingBlock: OJICUG_clean_linker_0, # of connection points: 2
#     Edge 28, Type (0, 0), BuildingBlock: OJICUG_clean_linker_0, # of connection points: 2
#     Edge 29, Type (0, 0), BuildingBlock: OJICUG_clean_linker_0, # of connection points: 2
#     Edge 30, Type (0, 0), BuildingBlock: OJICUG_clean_linker_0, # of connection points: 2
#     Edge 31, Type (0, 0), BuildingBlock: OJICUG_clean_linker_0, # of connection points: 2
#     Edge 32, Type (0, 0), BuildingBlock: OJICUG_clean_linker_0, # of connection points: 2
#     Edge 33, Type (0, 0), BuildingBlock: OJICUG_clean_linker_0, # of connection points: 2
#     Edge 34, Type (0, 0), BuildingBlock: OJICUG_clean_linker_0, # of connection points: 2
#     Edge 35, Type (0, 0), BuildingBlock: OJICUG_clean_linker_0, # of connection points: 2
#     Edge 36, Type (0, 0), BuildingBlock: OJICUG_clean_linker_0, # of connection points: 2
#     Edge 37, Type (0, 0), BuildingBlock: OJICUG_clean_linker_0, # of connection points: 2
#     Edge 38, Type (0, 0), BuildingBlock: OJICUG_clean_linker_0, # of connection points: 2
#     Edge 39, Type (0, 0), BuildingBlock: OJICUG_clean_linker_0, # of connection points: 2
#     Edge 40, Type (0, 0), BuildingBlock: OJICUG_clean_linker_0, # of connection points: 2
#     Edge 41, Type (0, 0), BuildingBlock: OJICUG_clean_linker_0, # of connection points: 2
#     Edge 42, Type (0, 0), BuildingBlock: OJICUG_clean_linker_0, # of connection points: 2
#     Edge 43, Type (0, 0), BuildingBlock: OJICUG_clean_linker_0, # of connection points: 2
#     Edge 44, Type (0, 0), BuildingBlock: OJICUG_clean_linker_0, # of connection points: 2
#     Edge 45, Type (0, 0), BuildingBlock: OJICUG_clean_linker_0, # of connection points: 2
#     Edge 46, Type (0, 0), BuildingBlock: OJICUG_clean_linker_0, # of connection points: 2
#     Edge 47, Type (0, 0), BuildingBlock: OJICUG_clean_linker_0, # of connection points: 2
#     Edge 48, Type (0, 0), BuildingBlock: OJICUG_clean_linker_0, # of connection points: 2
#     Edge 49, Type (0, 0), BuildingBlock: OJICUG_clean_linker_0, # of connection points: 2
#     Edge 50, Type (0, 0), BuildingBlock: OJICUG_clean_linker_0, # of connection points: 2
#     Edge 51, Type (0, 0), BuildingBlock: OJICUG_clean_linker_0, # of connection points: 2
#     Edge 52, Type (0, 0), BuildingBlock: OJICUG_clean_linker_0, # of connection points: 2
#     Edge 53, Type (0, 0), BuildingBlock: OJICUG_clean_linker_0, # of connection points: 2
#     Edge 54, Type (0, 0), BuildingBlock: OJICUG_clean_linker_0, # of connection points: 2
#     Edge 55, Type (0, 0), BuildingBlock: OJICUG_clean_linker_0, # of connection points: 2
#     Edge 56, Type (0, 0), BuildingBlock: OJICUG_clean_linker_0, # of connection points: 2
#     Edge 57, Type (0, 0), BuildingBlock: OJICUG_clean_linker_0, # of connection points: 2
#     Edge 58, Type (0, 0), BuildingBlock: OJICUG_clean_linker_0, # of connection points: 2
#     Edge 59, Type (0, 0), BuildingBlock: OJICUG_clean_linker_0, # of connection points: 2
#     Edge 60, Type (0, 0), BuildingBlock: OJICUG_clean_linker_0, # of connection points: 2
#     Edge 61, Type (0, 0), BuildingBlock: OJICUG_clean_linker_0, # of connection points: 2
#     Edge 62, Type (0, 0), BuildingBlock: OJICUG_clean_linker_0, # of connection points: 2
#     Edge 63, Type (0, 0), BuildingBlock: OJICUG_clean_linker_0, # of connection points: 2
#     Edge 64, Type (0, 0), BuildingBlock: OJICUG_clean_linker_0, # of connection points: 2
#     Edge 65, Type (0, 0), BuildingBlock: OJICUG_clean_linker_0, # of connection points: 2
#     Edge 66, Type (0, 0), BuildingBlock: OJICUG_clean_linker_0, # of connection points: 2
#     Edge 67, Type (0, 0), BuildingBlock: OJICUG_clean_linker_0, # of connection points: 2
#     Edge 68, Type (0, 0), BuildingBlock: OJICUG_clean_linker_0, # of connection points: 2
#     Edge 69, Type (0, 0), BuildingBlock: OJICUG_clean_linker_0, # of connection points: 2
#     Edge 70, Type (0, 0), BuildingBlock: OJICUG_clean_linker_0, # of connection points: 2
#     Edge 71, Type (0, 0), BuildingBlock: OJICUG_clean_linker_0, # of connection points: 2
#     Edge 72, Type (0, 0), BuildingBlock: OJICUG_clean_linker_0, # of connection points: 2
#     Edge 73, Type (0, 0), BuildingBlock: OJICUG_clean_linker_0, # of connection points: 2
#     Edge 74, Type (0, 0), BuildingBlock: OJICUG_clean_linker_0, # of connection points: 2
#     Edge 75, Type (0, 0), BuildingBlock: OJICUG_clean_linker_0, # of connection points: 2
#     Edge 76, Type (0, 0), BuildingBlock: OJICUG_clean_linker_0, # of connection points: 2
#     Edge 77, Type (0, 0), BuildingBlock: OJICUG_clean_linker_0, # of connection points: 2
#     Edge 78, Type (0, 0), BuildingBlock: OJICUG_clean_linker_0, # of connection points: 2
#     Edge 79, Type (0, 0), BuildingBlock: OJICUG_clean_linker_0, # of connection points: 2
#     Edge 80, Type (0, 0), BuildingBlock: OJICUG_clean_linker_0, # of connection points: 2
#     Edge 81, Type (0, 0), BuildingBlock: OJICUG_clean_linker_0, # of connection points: 2
#     Edge 82, Type (0, 0), BuildingBlock: OJICUG_clean_linker_0, # of connection points: 2
#     Edge 83, Type (0, 0), BuildingBlock: OJICUG_clean_linker_0, # of connection points: 2
# Relax obj value: 0.380
# Max RMSD: 0.207
# Mean RMSD: 0.207
data_MOF--net-wjr--node1-XOMCOT_clean_sbu_0--edge1-OJICUG_clean_linker_0
_symmetry_space_group_name_H-M    P1
_symmetry_Int_Tables_number       1
_symmetry_cell_setting            triclinic
loop_
_symmetry_equiv_pos_as_xyz
'x, y, z'
_cell_length_a     51.146312
_cell_length_b     51.096226
_cell_length_c     36.981934
_cell_angle_alpha  90.000687
_cell_angle_beta   90.002506
_cell_angle_gamma 120.01934
loop_
_atom_site_label
_atom_site_type_symbol
_atom_site_fract_x
_atom_site_fract_y
_atom_site_fract_z
_atom_type_partial_charge
Co0 Co 0.46303 0.10553 0.23526 0.0
C1 C 0.44776 0.15287 0.25403 0.0
C2 C 0.43356 0.11849 0.29461 0.0
C3 C 0.42699 0.14004 0.30644 0.0
N4 N 0.4461 0.12626 0.26148 0.0
N5 N 0.43601 0.16173 0.28092 0.0
H6 H 0.45882 0.16639 0.23055 0.0
H7 H 0.43023 0.09891 0.30966 0.0
C8 C 0.39973 0.05398 0.25545 0.0
O9 O 0.38617 0.06928 0.24725 0.0
N10 N 0.48 0.08481 0.20988 0.0
C11 C 0.49619 0.09341 0.17904 0.0
C12 C 0.5022 0.07102 0.1689 0.0
C13 C 0.47672 0.05781 0.21844 0.0
N14 N 0.48987 0.04874 0.19376 0.0
C15 C 0.45802 0.13358 0.17037 0.0
C16 C 0.41654 0.08082 0.13638 0.0
C17 C 0.43128 0.10741 0.11581 0.0
C18 C 0.45155 0.13424 0.13368 0.0
C19 C 0.42377 0.08109 0.1729 0.0
N20 N 0.44453 0.10719 0.18961 0.0
H21 H 0.47598 0.15392 0.18226 0.0
H22 H 0.41448 0.05962 0.18644 0.0
H23 H 0.50274 0.11422 0.16468 0.0
H24 H 0.46421 0.04468 0.24168 0.0
O25 O 0.50212 0.14251 0.23166 0.0
O26 O 0.48754 0.1096 0.27667 0.0
O27 O 0.42799 0.0652 0.25 0.0
C28 C 0.50879 0.13403 0.26188 0.0
H29 H 0.41682 0.1399 0.33214 0.0
H30 H 0.51458 0.07109 0.14514 0.0
H31 H 0.40067 0.0595 0.12393 0.0
H32 H 0.46412 0.15524 0.11892 0.0
Co33 Co 0.35091 0.46517 0.23661 0.0
C34 C 0.28959 0.45238 0.25761 0.0
C35 C 0.30405 0.42691 0.28943 0.0
C36 C 0.27567 0.4199 0.30078 0.0
N37 N 0.31237 0.44644 0.26142 0.0
N38 N 0.26683 0.43604 0.28077 0.0
H39 H 0.28975 0.46883 0.23921 0.0
H40 H 0.31796 0.41907 0.30193 0.0
C41 C 0.3425 0.40184 0.25062 0.0
O42 O 0.31522 0.38712 0.23672 0.0
N43 N 0.3893 0.48404 0.21265 0.0
C44 C 0.39696 0.50077 0.18222 0.0
C45 C 0.42583 0.50799 0.17273 0.0
C46 C 0.41344 0.4817 0.22169 0.0
N47 N 0.43598 0.49591 0.19763 0.0
C48 C 0.31575 0.45791 0.17295 0.0
C49 C 0.33506 0.42448 0.13418 0.0
C50 C 0.31912 0.43621 0.11591 0.0
C51 C 0.30857 0.45226 0.13623 0.0
C52 C 0.34159 0.43049 0.17108 0.0
N53 N 0.33224 0.44731 0.1901 0.0
H54 H 0.31019 0.47308 0.18657 0.0
H55 H 0.35661 0.42393 0.18326 0.0
H56 H 0.3823 0.50662 0.16754 0.0
H57 H 0.41411 0.46893 0.24465 0.0
O58 O 0.35174 0.50365 0.23359 0.0
O59 O 0.36968 0.48902 0.27899 0.0
O60 O 0.35743 0.43069 0.25058 0.0
C61 C 0.3663 0.51019 0.26425 0.0
H62 H 0.26299 0.40504 0.32287 0.0
H63 H 0.43824 0.52083 0.14924 0.0
H64 H 0.34442 0.41266 0.11963 0.0
H65 H 0.29616 0.4618 0.12349 0.0
Co66 Co 0.87753 0.35603 0.23389 0.0
C67 C 0.83105 0.29347 0.25459 0.0
C68 C 0.86302 0.31685 0.29688 0.0
C69 C 0.84169 0.28898 0.30966 0.0
N70 N 0.85664 0.31947 0.26218 0.0
N71 N 0.82149 0.27431 0.28308 0.0
H72 H 0.81877 0.28917 0.22957 0.0
H73 H 0.88166 0.33431 0.31208 0.0
C74 C 0.92759 0.34319 0.25723 0.0
O75 O 0.90991 0.31373 0.25557 0.0
N76 N 0.89836 0.39278 0.20663 0.0
C77 C 0.89032 0.39943 0.17474 0.0
C78 C 0.91257 0.42783 0.16432 0.0
C79 C 0.92476 0.41709 0.21558 0.0
N80 N 0.93415 0.43875 0.19009 0.0
C81 C 0.84805 0.32191 0.17014 0.0
C82 C 0.89963 0.32967 0.13642 0.0
C83 C 0.87322 0.31914 0.11577 0.0
C84 C 0.8469 0.3142 0.13358 0.0
C85 C 0.89987 0.33725 0.17283 0.0
N86 N 0.87443 0.33396 0.18929 0.0
H87 H 0.82818 0.32063 0.18203 0.0
H88 H 0.92136 0.34823 0.18639 0.0
H89 H 0.86992 0.38465 0.15998 0.0
H90 H 0.93708 0.41859 0.23996 0.0
O91 O 0.84097 0.35885 0.23029 0.0
O92 O 0.87482 0.3784 0.2742 0.0
O93 O 0.91794 0.36093 0.24787 0.0
C94 C 0.85019 0.37497 0.25974 0.0
H95 H 0.841 0.28047 0.33663 0.0
H96 H 0.91282 0.4395 0.1398 0.0
H97 H 0.92051 0.33367 0.12408 0.0
H98 H 0.82605 0.30666 0.11883 0.0
Co99 Co 0.51678 0.88201 0.23518 0.0
C100 C 0.53347 0.83605 0.25554 0.0
C101 C 0.54579 0.87007 0.29619 0.0
C102 C 0.55261 0.84883 0.30873 0.0
N103 N 0.53427 0.86231 0.26256 0.0
N104 N 0.54479 0.8274 0.2831 0.0
H105 H 0.52325 0.82249 0.23189 0.0
H106 H 0.54831 0.88947 0.31097 0.0
C107 C 0.58027 0.93393 0.25362 0.0
O108 O 0.59288 0.91709 0.25041 0.0
N109 N 0.49909 0.90159 0.20881 0.0
C110 C 0.48397 0.89312 0.17721 0.0
C111 C 0.47679 0.91474 0.16725 0.0
C112 C 0.50033 0.92754 0.21811 0.0
N113 N 0.48717 0.93629 0.19307 0.0
C114 C 0.51994 0.85107 0.17223 0.0
C115 C 0.56046 0.90198 0.13431 0.0
C116 C 0.54491 0.87437 0.11577 0.0
C117 C 0.52537 0.84853 0.13573 0.0
C118 C 0.55463 0.90351 0.17107 0.0
N119 N 0.53415 0.87832 0.1896 0.0
H120 H 0.50222 0.83139 0.18547 0.0
H121 H 0.5646 0.92557 0.18328 0.0
H122 H 0.47891 0.87296 0.16224 0.0
H123 H 0.51129 0.9401 0.24232 0.0
O124 O 0.47773 0.84494 0.23386 0.0
O125 O 0.49317 0.87966 0.27689 0.0
O126 O 0.55223 0.9231 0.24683 0.0
C127 C 0.47167 0.85461 0.26353 0.0
H128 H 0.56207 0.84896 0.33494 0.0
H129 H 0.46499 0.91469 0.14293 0.0
H130 H 0.57526 0.9227 0.12001 0.0
H131 H 0.51291 0.82664 0.1228 0.0
Co132 Co 0.63055 0.52386 0.23602 0.0
C133 C 0.6915 0.536 0.25775 0.0
C134 C 0.67754 0.56231 0.28871 0.0
C135 C 0.70581 0.5691 0.30024 0.0
N136 N 0.66899 0.54238 0.26109 0.0
N137 N 0.71435 0.55244 0.28077 0.0
H138 H 0.6911 0.51919 0.23975 0.0
H139 H 0.66388 0.57058 0.30085 0.0
C140 C 0.63878 0.58711 0.24987 0.0
O141 O 0.66592 0.60186 0.23561 0.0
N142 N 0.59225 0.50518 0.21186 0.0
C143 C 0.58468 0.48878 0.18117 0.0
C144 C 0.55577 0.48149 0.17181 0.0
C145 C 0.56801 0.50726 0.22118 0.0
N146 N 0.5455 0.4932 0.19705 0.0
C147 C 0.66649 0.532 0.17286 0.0
C148 C 0.64666 0.56489 0.13388 0.0
C149 C 0.66313 0.55367 0.11582 0.0
C150 C 0.67395 0.53792 0.13625 0.0
C151 C 0.63985 0.55864 0.17066 0.0
N152 N 0.64945 0.54207 0.18978 0.0
H153 H 0.67229 0.51706 0.18655 0.0
H154 H 0.62445 0.56477 0.18267 0.0
H155 H 0.59942 0.48318 0.16626 0.0
H156 H 0.56726 0.51972 0.24441 0.0
O157 O 0.6297 0.48541 0.23252 0.0
O158 O 0.61158 0.49968 0.27811 0.0
O159 O 0.62401 0.55826 0.25024 0.0
C160 C 0.61498 0.47863 0.26307 0.0
H161 H 0.71864 0.58422 0.32207 0.0
H162 H 0.54339 0.46887 0.14819 0.0
H163 H 0.63708 0.57645 0.1192 0.0
H164 H 0.68677 0.52877 0.12365 0.0
Co165 Co 0.103 0.63153 0.23401 0.0
C166 C 0.14927 0.69423 0.2545 0.0
C167 C 0.11734 0.67088 0.29682 0.0
C168 C 0.13845 0.6989 0.30941 0.0
N169 N 0.12382 0.66814 0.2622 0.0
N170 N 0.15864 0.71357 0.28282 0.0
H171 H 0.16156 0.69849 0.22951 0.0
H172 H 0.09874 0.65341 0.31207 0.0
C173 C 0.05287 0.64433 0.25714 0.0
O174 O 0.07048 0.67378 0.25526 0.0
N175 N 0.08224 0.59475 0.2068 0.0
C176 C 0.09033 0.58809 0.17495 0.0
C177 C 0.0681 0.5597 0.16451 0.0
C178 C 0.05582 0.57044 0.2157 0.0
N179 N 0.04648 0.54877 0.19022 0.0
C180 C 0.13243 0.66561 0.17022 0.0
C181 C 0.08083 0.65778 0.1365 0.0
C182 C 0.10724 0.66836 0.11586 0.0
C183 C 0.13357 0.67333 0.13366 0.0
C184 C 0.08059 0.65019 0.1729 0.0
N185 N 0.10605 0.65353 0.18936 0.0
H186 H 0.15232 0.66692 0.18211 0.0
H187 H 0.0591 0.63916 0.18644 0.0
H188 H 0.11074 0.60288 0.16023 0.0
H189 H 0.04346 0.56895 0.24004 0.0
O190 O 0.1396 0.62879 0.23047 0.0
O191 O 0.10577 0.60925 0.27438 0.0
O192 O 0.06257 0.62658 0.24794 0.0
C193 C 0.1304 0.61269 0.25994 0.0
H194 H 0.13896 0.70751 0.33628 0.0
H195 H 0.06789 0.54802 0.14 0.0
H196 H 0.05993 0.65376 0.12416 0.0
H197 H 0.15443 0.6809 0.11891 0.0
Co198 Co 0.87933 0.52236 0.33749 0.0
C199 C 0.83086 0.53529 0.31657 0.0
C200 C 0.87089 0.56093 0.28499 0.0
C201 C 0.84959 0.56807 0.27373 0.0
N202 N 0.85957 0.54121 0.3128 0.0
N203 N 0.82454 0.55182 0.29359 0.0
H204 H 0.81451 0.51873 0.33482 0.0
H205 H 0.89268 0.56884 0.27258 0.0
C206 C 0.93427 0.58575 0.32406 0.0
O207 O 0.92169 0.60039 0.33811 0.0
N208 N 0.89884 0.5034 0.36128 0.0
C209 C 0.88994 0.48673 0.39176 0.0
C210 C 0.91168 0.47958 0.40111 0.0
C211 C 0.9253 0.50576 0.35206 0.0
N212 N 0.93379 0.49164 0.37606 0.0
C213 C 0.85134 0.52952 0.40112 0.0
C214 C 0.904 0.5628 0.44006 0.0
C215 C 0.87629 0.55117 0.45821 0.0
C216 C 0.84975 0.53519 0.43782 0.0
C217 C 0.90459 0.55677 0.40319 0.0
N218 N 0.87845 0.54006 0.38408 0.0
H219 H 0.83064 0.51441 0.38744 0.0
H220 H 0.92618 0.56325 0.3911 0.0
H221 H 0.86952 0.48092 0.40661 0.0
H222 H 0.93862 0.51852 0.32903 0.0
O223 O 0.84169 0.4839 0.34035 0.0
O224 O 0.8743 0.49867 0.29498 0.0
O225 O 0.92033 0.5569 0.32375 0.0
C226 C 0.84975 0.47746 0.30965 0.0
H227 H 0.85187 0.58311 0.25181 0.0
H228 H 0.91144 0.46686 0.42463 0.0
H229 H 0.92514 0.57455 0.45469 0.0
H230 H 0.82777 0.5257 0.45049 0.0
Co231 Co 0.35085 0.88235 0.34009 0.0
C232 C 0.28856 0.83583 0.31969 0.0
C233 C 0.31054 0.86908 0.27825 0.0
C234 C 0.28266 0.84755 0.2657 0.0
N235 N 0.314 0.862 0.31234 0.0
N236 N 0.26886 0.82656 0.29178 0.0
H237 H 0.28514 0.82287 0.34396 0.0
H238 H 0.32751 0.88821 0.26319 0.0
C239 C 0.33935 0.93377 0.31845 0.0
O240 O 0.30988 0.91695 0.32129 0.0
N241 N 0.38783 0.90253 0.36695 0.0
C242 C 0.39423 0.89452 0.39903 0.0
C243 C 0.42298 0.9162 0.409 0.0
C244 C 0.41266 0.92828 0.35741 0.0
N245 N 0.43439 0.93733 0.38273 0.0
C246 C 0.31681 0.85313 0.404 0.0
C247 C 0.32549 0.90503 0.43789 0.0
C248 C 0.31441 0.87847 0.45838 0.0
C249 C 0.30904 0.85201 0.44051 0.0
C250 C 0.33316 0.90526 0.40157 0.0
N251 N 0.32931 0.87963 0.38498 0.0
H252 H 0.31528 0.83314 0.39213 0.0
H253 H 0.34467 0.92683 0.38823 0.0
H254 H 0.37904 0.87455 0.41424 0.0
H255 H 0.41451 0.94042 0.33274 0.0
O256 O 0.35296 0.84537 0.34331 0.0
O257 O 0.37253 0.87922 0.29936 0.0
O258 O 0.35653 0.92314 0.32647 0.0
C259 C 0.36893 0.85448 0.31374 0.0
H260 H 0.27359 0.8472 0.23916 0.0
H261 H 0.43456 0.9164 0.43359 0.0
H262 H 0.32988 0.92604 0.45033 0.0
H263 H 0.30113 0.83105 0.4552 0.0
Co264 Co 0.46601 0.3568 0.33944 0.0
C265 C 0.44915 0.29398 0.31834 0.0
C266 C 0.44033 0.31756 0.27656 0.0
C267 C 0.43336 0.28959 0.26361 0.0
N268 N 0.44981 0.32016 0.31107 0.0
N269 N 0.439 0.2748 0.28992 0.0
H270 H 0.45728 0.28944 0.34303 0.0
H271 H 0.43909 0.3351 0.2616 0.0
C272 C 0.4026 0.34367 0.31847 0.0
O273 O 0.39099 0.31423 0.32015 0.0
N274 N 0.4824 0.39362 0.36664 0.0
C275 C 0.49751 0.40038 0.39824 0.0
C276 C 0.50379 0.42882 0.40869 0.0
C277 C 0.48019 0.4179 0.35789 0.0
N278 N 0.49281 0.43966 0.38321 0.0
C279 C 0.46261 0.32218 0.4019 0.0
C280 C 0.42124 0.33146 0.43945 0.0
C281 C 0.43723 0.32002 0.45821 0.0
C282 C 0.45715 0.31418 0.43839 0.0
C283 C 0.42711 0.33885 0.40267 0.0
N284 N 0.44811 0.33482 0.38438 0.0
H285 H 0.48052 0.32051 0.38871 0.0
H286 H 0.41672 0.35046 0.39024 0.0
H287 H 0.50326 0.38561 0.41282 0.0
H288 H 0.46899 0.41929 0.33379 0.0
O289 O 0.50543 0.35968 0.34169 0.0
O290 O 0.49031 0.37917 0.29858 0.0
O291 O 0.43015 0.36152 0.32706 0.0
C292 C 0.51181 0.37583 0.31232 0.0
H293 H 0.42515 0.28105 0.23674 0.0
H294 H 0.5155 0.44058 0.43305 0.0
H295 H 0.40605 0.33692 0.45359 0.0
H296 H 0.46988 0.30512 0.45144 0.0
Co297 Co 0.10126 0.46519 0.33744 0.0
C298 C 0.1499 0.45255 0.31642 0.0
C299 C 0.10975 0.42646 0.28519 0.0
C300 C 0.13114 0.41944 0.27393 0.0
N301 N 0.1211 0.4464 0.3128 0.0
N302 N 0.15626 0.43597 0.29356 0.0
H303 H 0.16628 0.4693 0.33449 0.0
H304 H 0.08789 0.41832 0.27289 0.0
C305 C 0.04625 0.4018 0.32408 0.0
O306 O 0.05874 0.38714 0.33834 0.0
N307 N 0.0817 0.48412 0.3612 0.0
C308 C 0.0906 0.50081 0.39166 0.0
C309 C 0.06883 0.50791 0.40102 0.0
C310 C 0.05521 0.4817 0.35199 0.0
N311 N 0.0467 0.4958 0.376 0.0
C312 C 0.1292 0.45789 0.40105 0.0
C313 C 0.07652 0.42483 0.44003 0.0
C314 C 0.10422 0.43637 0.45817 0.0
C315 C 0.13077 0.45224 0.43776 0.0
C316 C 0.07594 0.43085 0.40316 0.0
N317 N 0.10209 0.44747 0.38402 0.0
H318 H 0.14991 0.4729 0.38733 0.0
H319 H 0.05437 0.42445 0.39107 0.0
H320 H 0.11103 0.50665 0.4065 0.0
H321 H 0.04188 0.46891 0.32899 0.0
O322 O 0.13888 0.50368 0.3404 0.0
O323 O 0.10635 0.48893 0.29494 0.0
O324 O 0.06028 0.43065 0.3236 0.0
C325 C 0.13086 0.51014 0.30968 0.0
H326 H 0.12886 0.40428 0.25215 0.0
H327 H 0.06907 0.52063 0.42454 0.0
H328 H 0.05538 0.41318 0.45467 0.0
H329 H 0.15274 0.46164 0.45042 0.0
Co330 Co 0.62846 0.10519 0.3387 0.0
C331 C 0.69089 0.15243 0.31943 0.0
C332 C 0.67045 0.1181 0.27884 0.0
C333 C 0.69843 0.13974 0.26672 0.0
N334 N 0.66594 0.12579 0.31215 0.0
N335 N 0.71125 0.1614 0.29225 0.0
H336 H 0.69348 0.1659 0.34301 0.0
H337 H 0.65408 0.09854 0.26385 0.0
C338 C 0.64006 0.05364 0.31799 0.0
O339 O 0.66897 0.069 0.32586 0.0
N340 N 0.59093 0.08465 0.36443 0.0
C341 C 0.58352 0.09362 0.3951 0.0
C342 C 0.55511 0.07146 0.40547 0.0
C343 C 0.56711 0.05763 0.3562 0.0
N344 N 0.54497 0.04893 0.38092 0.0
C345 C 0.66172 0.1333 0.40347 0.0
C346 C 0.65051 0.08058 0.4375 0.0
C347 C 0.66229 0.10717 0.45809 0.0
C348 C 0.66883 0.13398 0.44018 0.0
C349 C 0.64358 0.08083 0.40094 0.0
N350 N 0.64885 0.10692 0.38422 0.0
H351 H 0.66409 0.15364 0.39157 0.0
H352 H 0.63151 0.05937 0.38737 0.0
H353 H 0.59788 0.11458 0.40914 0.0
H354 H 0.56632 0.04427 0.33311 0.0
O355 O 0.62645 0.14224 0.34232 0.0
O356 O 0.6078 0.1092 0.29747 0.0
O357 O 0.62299 0.06477 0.32392 0.0
C358 C 0.61115 0.13372 0.31221 0.0
H359 H 0.70823 0.13969 0.24082 0.0
H360 H 0.54288 0.07189 0.42913 0.0
H361 H 0.64511 0.05927 0.44995 0.0
H362 H 0.67721 0.15498 0.45492 0.0
Co363 Co 0.51531 0.63203 0.34008 0.0
C364 C 0.5318 0.69489 0.31997 0.0
C365 C 0.54014 0.67152 0.27741 0.0
C366 C 0.54723 0.69965 0.26501 0.0
N367 N 0.53095 0.66872 0.31204 0.0
N368 N 0.54186 0.71433 0.29175 0.0
H369 H 0.52393 0.69918 0.34506 0.0
H370 H 0.5412 0.65407 0.26204 0.0
C371 C 0.57837 0.64523 0.31697 0.0
O372 O 0.59005 0.67467 0.31884 0.0
N373 N 0.49947 0.59518 0.36714 0.0
C374 C 0.48483 0.5884 0.39906 0.0
C375 C 0.47896 0.56007 0.40944 0.0
C376 C 0.5018 0.571 0.35812 0.0
N377 N 0.48973 0.54932 0.3836 0.0
C378 C 0.51967 0.6659 0.40394 0.0
C379 C 0.56367 0.65841 0.43761 0.0
C380 C 0.54771 0.66884 0.45826 0.0
C381 C 0.52622 0.67364 0.44049 0.0
C382 C 0.55633 0.65079 0.40122 0.0
N383 N 0.53411 0.65397 0.38479 0.0
H384 H 0.50103 0.6671 0.39205 0.0
H385 H 0.56691 0.63988 0.38766 0.0
H386 H 0.47911 0.60306 0.41391 0.0
H387 H 0.51267 0.56964 0.33372 0.0
O388 O 0.47585 0.62902 0.34361 0.0
O389 O 0.49039 0.60975 0.29962 0.0
O390 O 0.55095 0.62737 0.32614 0.0
C391 C 0.46907 0.61299 0.31408 0.0
H392 H 0.55537 0.70833 0.23819 0.0
H393 H 0.46766 0.54834 0.43399 0.0
H394 H 0.58064 0.65452 0.44994 0.0
H395 H 0.51285 0.6811 0.45525 0.0
Co396 Co 0.51688 0.88195 0.83873 0.0
C397 C 0.5336 0.83601 0.8184 0.0
C398 C 0.54594 0.87004 0.77776 0.0
C399 C 0.55277 0.8488 0.76523 0.0
N400 N 0.53439 0.86227 0.81137 0.0
N401 N 0.54493 0.82737 0.79086 0.0
H402 H 0.52334 0.82244 0.84203 0.0
H403 H 0.54847 0.88943 0.76296 0.0
C404 C 0.58034 0.93392 0.8203 0.0
O405 O 0.59299 0.91712 0.82354 0.0
N406 N 0.49915 0.9015 0.86508 0.0
C407 C 0.48402 0.89302 0.89667 0.0
C408 C 0.47681 0.91462 0.90663 0.0
C409 C 0.50035 0.92743 0.85578 0.0
N410 N 0.48717 0.93616 0.88081 0.0
C411 C 0.52005 0.85104 0.90169 0.0
C412 C 0.56052 0.90196 0.93962 0.0
C413 C 0.54498 0.87436 0.95817 0.0
C414 C 0.52546 0.84851 0.9382 0.0
C415 C 0.5547 0.90349 0.90286 0.0
N416 N 0.53425 0.87828 0.88431 0.0
H417 H 0.50235 0.83134 0.88845 0.0
H418 H 0.56467 0.92554 0.89064 0.0
H419 H 0.47898 0.87287 0.91165 0.0
H420 H 0.51129 0.93999 0.83156 0.0
O421 O 0.47784 0.84485 0.84004 0.0
O422 O 0.49326 0.87957 0.79701 0.0
O423 O 0.55229 0.92305 0.82707 0.0
C424 C 0.47177 0.85451 0.81036 0.0
H425 H 0.56225 0.84893 0.73903 0.0
H426 H 0.46501 0.91456 0.93095 0.0
H427 H 0.57531 0.9227 0.95393 0.0
H428 H 0.51301 0.82662 0.95113 0.0
Co429 Co 0.63048 0.52375 0.8381 0.0
C430 C 0.69142 0.53588 0.81637 0.0
C431 C 0.67746 0.56218 0.78541 0.0
C432 C 0.70572 0.56897 0.77387 0.0
N433 N 0.66891 0.54226 0.81303 0.0
N434 N 0.71426 0.55232 0.79334 0.0
H435 H 0.69103 0.51907 0.83437 0.0
H436 H 0.66379 0.57046 0.77326 0.0
C437 C 0.63869 0.58699 0.82423 0.0
O438 O 0.66583 0.60174 0.83849 0.0
N439 N 0.59218 0.50508 0.86228 0.0
C440 C 0.58463 0.48869 0.89297 0.0
C441 C 0.55571 0.48139 0.90232 0.0
C442 C 0.56794 0.50713 0.85294 0.0
N443 N 0.54542 0.49307 0.87707 0.0
C444 C 0.66644 0.53194 0.90126 0.0
C445 C 0.64661 0.56483 0.94023 0.0
C446 C 0.6631 0.55362 0.95829 0.0
C447 C 0.67391 0.53787 0.93787 0.0
C448 C 0.63979 0.55855 0.90345 0.0
N449 N 0.64939 0.54198 0.88434 0.0
H450 H 0.67225 0.51699 0.88758 0.0
H451 H 0.62438 0.56467 0.89144 0.0
H452 H 0.59937 0.48311 0.9079 0.0
H453 H 0.56717 0.51957 0.82969 0.0
O454 O 0.62964 0.4853 0.84163 0.0
O455 O 0.61151 0.49955 0.79603 0.0
O456 O 0.62393 0.55814 0.82387 0.0
C457 C 0.61491 0.4785 0.81109 0.0
H458 H 0.71856 0.58409 0.75203 0.0
H459 H 0.54334 0.46878 0.92595 0.0
H460 H 0.63703 0.57639 0.95489 0.0
H461 H 0.68675 0.52874 0.95047 0.0
Co462 Co 0.10292 0.63151 0.8401 0.0
C463 C 0.14921 0.69421 0.81965 0.0
C464 C 0.11722 0.67092 0.77735 0.0
C465 C 0.13834 0.69894 0.76478 0.0
N466 N 0.12372 0.66814 0.81194 0.0
N467 N 0.15857 0.71357 0.79136 0.0
H468 H 0.16152 0.69842 0.84462 0.0
H469 H 0.09859 0.65348 0.7621 0.0
C470 C 0.05275 0.64429 0.81704 0.0
O471 O 0.07035 0.67374 0.81895 0.0
N472 N 0.08217 0.5947 0.86726 0.0
C473 C 0.09025 0.58803 0.8991 0.0
C474 C 0.06802 0.55963 0.90952 0.0
C475 C 0.05576 0.57039 0.85833 0.0
N476 N 0.04641 0.54871 0.88379 0.0
C477 C 0.13236 0.66556 0.90391 0.0
C478 C 0.08076 0.65772 0.93765 0.0
C479 C 0.10719 0.66831 0.95827 0.0
C480 C 0.13351 0.67328 0.94046 0.0
C481 C 0.08051 0.65012 0.90125 0.0
N482 N 0.10596 0.65348 0.88478 0.0
H483 H 0.15224 0.66687 0.89201 0.0
H484 H 0.05901 0.63909 0.88772 0.0
H485 H 0.11066 0.60282 0.91385 0.0
H486 H 0.0434 0.56891 0.83399 0.0
O487 O 0.13952 0.62878 0.84361 0.0
O488 O 0.10568 0.60927 0.79968 0.0
O489 O 0.06248 0.62655 0.82619 0.0
C490 C 0.13032 0.6127 0.81412 0.0
H491 H 0.13885 0.70758 0.73793 0.0
H492 H 0.06781 0.54794 0.93402 0.0
H493 H 0.05987 0.6537 0.95 0.0
H494 H 0.15437 0.68086 0.9552 0.0
Co495 Co 0.463 0.10541 0.83878 0.0
C496 C 0.44772 0.15276 0.82008 0.0
C497 C 0.43339 0.11832 0.77954 0.0
C498 C 0.42679 0.13987 0.76775 0.0
N499 N 0.44602 0.12612 0.81262 0.0
N500 N 0.4359 0.16159 0.79323 0.0
H501 H 0.45885 0.1663 0.84351 0.0
H502 H 0.43001 0.09871 0.7645 0.0
C503 C 0.39967 0.05383 0.81873 0.0
O504 O 0.3861 0.06909 0.82706 0.0
N505 N 0.48001 0.08469 0.8641 0.0
C506 C 0.49624 0.0933 0.8949 0.0
C507 C 0.50225 0.0709 0.90501 0.0
C508 C 0.47671 0.05769 0.85552 0.0
N509 N 0.48988 0.04862 0.88016 0.0
C510 C 0.45804 0.13347 0.90369 0.0
C511 C 0.4166 0.08072 0.93773 0.0
C512 C 0.43132 0.10734 0.95827 0.0
C513 C 0.45157 0.13416 0.94037 0.0
C514 C 0.42383 0.08097 0.90121 0.0
N515 N 0.44455 0.10707 0.88447 0.0
H516 H 0.47598 0.15381 0.89179 0.0
H517 H 0.41455 0.05949 0.8877 0.0
H518 H 0.5028 0.11411 0.90927 0.0
H519 H 0.46416 0.04455 0.8323 0.0
O520 O 0.50209 0.14239 0.84234 0.0
O521 O 0.48746 0.10948 0.79732 0.0
O522 O 0.42795 0.06508 0.82407 0.0
C523 C 0.50873 0.13391 0.81209 0.0
H524 H 0.41656 0.1397 0.74209 0.0
H525 H 0.51466 0.07097 0.92875 0.0
H526 H 0.40075 0.05941 0.9502 0.0
H527 H 0.46413 0.15517 0.95511 0.0
Co528 Co 0.35083 0.46507 0.83747 0.0
C529 C 0.28953 0.45233 0.81646 0.0
C530 C 0.3039 0.42673 0.78475 0.0
C531 C 0.27553 0.41975 0.7734 0.0
N532 N 0.31228 0.44634 0.81269 0.0
N533 N 0.26674 0.43597 0.79334 0.0
H534 H 0.28974 0.46885 0.8348 0.0
H535 H 0.31777 0.41883 0.77228 0.0
C536 C 0.34242 0.40172 0.82354 0.0
O537 O 0.31517 0.38701 0.83751 0.0
N538 N 0.38923 0.48394 0.86141 0.0
C539 C 0.39691 0.50069 0.89182 0.0
C540 C 0.42577 0.5079 0.90131 0.0
C541 C 0.41336 0.48157 0.85238 0.0
N542 N 0.43591 0.49579 0.87644 0.0
C543 C 0.31567 0.45781 0.90113 0.0
C544 C 0.33504 0.42444 0.93993 0.0
C545 C 0.31908 0.43617 0.95819 0.0
C546 C 0.30851 0.45217 0.93786 0.0
C547 C 0.34156 0.43044 0.90303 0.0
N548 N 0.33218 0.44723 0.88399 0.0
H549 H 0.31008 0.47294 0.88749 0.0
H550 H 0.35659 0.42389 0.89086 0.0
H551 H 0.38227 0.50656 0.90649 0.0
H552 H 0.41402 0.46878 0.82943 0.0
O553 O 0.35168 0.50355 0.84049 0.0
O554 O 0.36958 0.4889 0.79508 0.0
O555 O 0.35733 0.43057 0.82351 0.0
C556 C 0.36622 0.51008 0.80982 0.0
H557 H 0.26281 0.40484 0.75136 0.0
H558 H 0.4382 0.52075 0.92479 0.0
H559 H 0.34442 0.41266 0.95449 0.0
H560 H 0.29608 0.46171 0.95059 0.0
Co561 Co 0.8775 0.35596 0.84 0.0
C562 C 0.83103 0.2934 0.81931 0.0
C563 C 0.86303 0.31675 0.77704 0.0
C564 C 0.8417 0.28889 0.76426 0.0
N565 N 0.85663 0.3194 0.81173 0.0
N566 N 0.82148 0.27423 0.79082 0.0
H567 H 0.81874 0.28911 0.84431 0.0
H568 H 0.88167 0.33421 0.76184 0.0
C569 C 0.92761 0.34316 0.8167 0.0
O570 O 0.90995 0.3137 0.81838 0.0
N571 N 0.89831 0.39271 0.86726 0.0
C572 C 0.89026 0.39936 0.89915 0.0
C573 C 0.9125 0.42776 0.90958 0.0
C574 C 0.92471 0.41703 0.85833 0.0
N575 N 0.93408 0.43869 0.88382 0.0
C576 C 0.84804 0.32184 0.90376 0.0
C577 C 0.89963 0.32965 0.93749 0.0
C578 C 0.87322 0.31911 0.95814 0.0
C579 C 0.84689 0.31415 0.94032 0.0
C580 C 0.89987 0.33721 0.90108 0.0
N581 N 0.87442 0.3339 0.88461 0.0
H582 H 0.82816 0.32055 0.89187 0.0
H583 H 0.92135 0.3482 0.88752 0.0
H584 H 0.86986 0.38457 0.9139 0.0
H585 H 0.93704 0.41854 0.83395 0.0
O586 O 0.84093 0.35875 0.84359 0.0
O587 O 0.87478 0.37831 0.79968 0.0
O588 O 0.91792 0.36089 0.82604 0.0
C589 C 0.85015 0.37487 0.81414 0.0
H590 H 0.84102 0.28037 0.73729 0.0
H591 H 0.91274 0.43943 0.93411 0.0
H592 H 0.92051 0.33366 0.94984 0.0
H593 H 0.82604 0.3066 0.95507 0.0
Co594 Co 0.10126 0.46525 0.73652 0.0
C595 C 0.14988 0.45257 0.75755 0.0
C596 C 0.10977 0.4266 0.78888 0.0
C597 C 0.13114 0.41958 0.80017 0.0
N598 N 0.1211 0.44647 0.7612 0.0
N599 N 0.15624 0.43603 0.78047 0.0
H600 H 0.16625 0.46926 0.73942 0.0
H601 H 0.08792 0.41853 0.8012 0.0
C602 C 0.04629 0.40184 0.74992 0.0
O603 O 0.05882 0.3872 0.73573 0.0
N604 N 0.08169 0.48415 0.71273 0.0
C605 C 0.09059 0.50083 0.68225 0.0
C606 C 0.06882 0.50792 0.67289 0.0
C607 C 0.0552 0.48174 0.72193 0.0
N608 N 0.04669 0.49583 0.69791 0.0
C609 C 0.12922 0.45798 0.67291 0.0
C610 C 0.07654 0.42484 0.63395 0.0
C611 C 0.10424 0.4364 0.6158 0.0
C612 C 0.13079 0.45231 0.63621 0.0
C613 C 0.07596 0.43086 0.67082 0.0
N614 N 0.10211 0.44752 0.68995 0.0
H615 H 0.14993 0.47302 0.68662 0.0
H616 H 0.05439 0.42444 0.68291 0.0
H617 H 0.11102 0.50667 0.66743 0.0
H618 H 0.04188 0.46896 0.74494 0.0
O619 O 0.13887 0.50374 0.73358 0.0
O620 O 0.10632 0.48898 0.77901 0.0
O621 O 0.06028 0.43069 0.75034 0.0
C622 C 0.13083 0.5102 0.76428 0.0
H623 H 0.12887 0.40447 0.82201 0.0
H624 H 0.06905 0.52064 0.64936 0.0
H625 H 0.0554 0.41315 0.61932 0.0
H626 H 0.15276 0.46174 0.62355 0.0
Co627 Co 0.62842 0.10514 0.73514 0.0
C628 C 0.69086 0.15238 0.75443 0.0
C629 C 0.67037 0.11808 0.79505 0.0
C630 C 0.69836 0.13971 0.80717 0.0
N631 N 0.66589 0.12575 0.76172 0.0
N632 N 0.7112 0.16135 0.78163 0.0
H633 H 0.69347 0.16584 0.73084 0.0
H634 H 0.654 0.09853 0.81004 0.0
C635 C 0.64004 0.05362 0.75588 0.0
O636 O 0.66896 0.06901 0.74807 0.0
N637 N 0.5909 0.0846 0.7094 0.0
C638 C 0.58349 0.09355 0.67871 0.0
C639 C 0.55507 0.0714 0.66836 0.0
C640 C 0.56706 0.0576 0.71766 0.0
N641 N 0.54492 0.0489 0.69293 0.0
C642 C 0.66168 0.13328 0.67039 0.0
C643 C 0.65052 0.08057 0.63636 0.0
C644 C 0.66228 0.10716 0.61577 0.0
C645 C 0.6688 0.13397 0.63368 0.0
C646 C 0.64358 0.08082 0.67291 0.0
N647 N 0.64883 0.1069 0.68963 0.0
H648 H 0.66404 0.15361 0.68229 0.0
H649 H 0.63153 0.05936 0.68648 0.0
H650 H 0.59786 0.1145 0.66465 0.0
H651 H 0.56626 0.04426 0.74077 0.0
O652 O 0.62639 0.14219 0.73153 0.0
O653 O 0.60774 0.10913 0.77636 0.0
O654 O 0.62296 0.06473 0.74991 0.0
C655 C 0.61109 0.13365 0.76163 0.0
H656 H 0.70815 0.13967 0.83309 0.0
H657 H 0.54284 0.07182 0.64469 0.0
H658 H 0.64514 0.05927 0.6239 0.0
H659 H 0.67718 0.15497 0.61894 0.0
Co660 Co 0.51523 0.6319 0.73395 0.0
C661 C 0.53178 0.69477 0.75405 0.0
C662 C 0.54006 0.67139 0.79663 0.0
C663 C 0.54719 0.69952 0.80901 0.0
N664 N 0.53089 0.66858 0.76199 0.0
N665 N 0.54186 0.71422 0.78226 0.0
H666 H 0.52393 0.69908 0.72894 0.0
H667 H 0.5411 0.65392 0.812 0.0
C668 C 0.57829 0.64509 0.75707 0.0
O669 O 0.58997 0.67452 0.75519 0.0
N670 N 0.49939 0.59504 0.70689 0.0
C671 C 0.48475 0.58825 0.67496 0.0
C672 C 0.47887 0.55992 0.66461 0.0
C673 C 0.50169 0.57086 0.71593 0.0
N674 N 0.48961 0.54916 0.69046 0.0
C675 C 0.51959 0.66577 0.6701 0.0
C676 C 0.5636 0.6583 0.63643 0.0
C677 C 0.54765 0.66875 0.61579 0.0
C678 C 0.52616 0.67353 0.63356 0.0
C679 C 0.55625 0.65065 0.67281 0.0
N680 N 0.53403 0.65383 0.68924 0.0
H681 H 0.50095 0.66697 0.68199 0.0
H682 H 0.56682 0.63973 0.68636 0.0
H683 H 0.47905 0.60293 0.66009 0.0
H684 H 0.51256 0.56949 0.74035 0.0
O685 O 0.47577 0.62889 0.73043 0.0
O686 O 0.49031 0.60962 0.77441 0.0
O687 O 0.55087 0.62723 0.74789 0.0
C688 C 0.469 0.61286 0.75995 0.0
H689 H 0.55534 0.70821 0.83583 0.0
H690 H 0.46756 0.54818 0.64006 0.0
H691 H 0.58057 0.65442 0.6241 0.0
H692 H 0.51279 0.681 0.6188 0.0
Co693 Co 0.87927 0.5223 0.73651 0.0
C694 C 0.83079 0.5352 0.75745 0.0
C695 C 0.87079 0.56078 0.78911 0.0
C696 C 0.84949 0.56789 0.80039 0.0
N697 N 0.85949 0.54111 0.76124 0.0
N698 N 0.82445 0.55169 0.78049 0.0
H699 H 0.81445 0.51868 0.73916 0.0
H700 H 0.89257 0.56866 0.80154 0.0
C701 C 0.93418 0.58568 0.75004 0.0
O702 O 0.92157 0.60032 0.73604 0.0
N703 N 0.8988 0.50337 0.71269 0.0
C704 C 0.88991 0.48672 0.68219 0.0
C705 C 0.91166 0.4796 0.67282 0.0
C706 C 0.92527 0.50575 0.7219 0.0
N707 N 0.93377 0.49165 0.69788 0.0
C708 C 0.85128 0.52948 0.67289 0.0
C709 C 0.90396 0.56281 0.634 0.0
C710 C 0.87626 0.55117 0.61582 0.0
C711 C 0.84971 0.53516 0.63619 0.0
C712 C 0.90454 0.55677 0.67086 0.0
N713 N 0.87839 0.54003 0.68995 0.0
H714 H 0.83058 0.51435 0.68655 0.0
H715 H 0.92612 0.56326 0.68296 0.0
H716 H 0.86949 0.48091 0.66735 0.0
H717 H 0.93859 0.51849 0.74493 0.0
O718 O 0.84164 0.48383 0.73361 0.0
O719 O 0.87424 0.49857 0.77899 0.0
O720 O 0.92025 0.55683 0.7503 0.0
C721 C 0.84969 0.47737 0.7643 0.0
H722 H 0.85174 0.58289 0.82236 0.0
H723 H 0.91143 0.4669 0.64928 0.0
H724 H 0.9251 0.57457 0.61939 0.0
H725 H 0.82774 0.52567 0.62351 0.0
Co726 Co 0.35086 0.88224 0.73405 0.0
C727 C 0.28856 0.83574 0.75448 0.0
C728 C 0.31065 0.86891 0.79598 0.0
C729 C 0.28276 0.84739 0.80855 0.0
N730 N 0.31404 0.86187 0.76185 0.0
N731 N 0.26891 0.82645 0.78243 0.0
H732 H 0.28509 0.82282 0.73016 0.0
H733 H 0.32765 0.88801 0.81105 0.0
C734 C 0.3393 0.93361 0.7558 0.0
O735 O 0.30983 0.91674 0.75305 0.0
N736 N 0.38781 0.90246 0.70713 0.0
C737 C 0.39419 0.89444 0.67505 0.0
C738 C 0.42292 0.91614 0.66503 0.0
C739 C 0.41262 0.92824 0.71663 0.0
N740 N 0.43433 0.9373 0.69128 0.0
C741 C 0.31678 0.85304 0.67015 0.0
C742 C 0.32542 0.90494 0.63632 0.0
C743 C 0.31437 0.8784 0.6158 0.0
C744 C 0.30901 0.85194 0.63364 0.0
C745 C 0.33309 0.90515 0.67264 0.0
N746 N 0.32926 0.87952 0.6892 0.0
H747 H 0.31526 0.83304 0.682 0.0
H748 H 0.34459 0.92672 0.68599 0.0
H749 H 0.37901 0.87445 0.65987 0.0
H750 H 0.41448 0.94039 0.7413 0.0
O751 O 0.35299 0.84528 0.73077 0.0
O752 O 0.3726 0.87913 0.77472 0.0
O753 O 0.35651 0.92302 0.74771 0.0
C754 C 0.36899 0.85439 0.76032 0.0
H755 H 0.27374 0.84702 0.83511 0.0
H756 H 0.43448 0.91634 0.64044 0.0
H757 H 0.3298 0.92596 0.62391 0.0
H758 H 0.30112 0.83099 0.61892 0.0
Co759 Co 0.46592 0.35666 0.73478 0.0
C760 C 0.44903 0.29383 0.75586 0.0
C761 C 0.44028 0.31744 0.79768 0.0
C762 C 0.43331 0.28947 0.81063 0.0
N763 N 0.44972 0.32002 0.76316 0.0
N764 N 0.43891 0.27466 0.7843 0.0
H765 H 0.45711 0.28927 0.73115 0.0
H766 H 0.43908 0.335 0.81265 0.0
C767 C 0.40251 0.34352 0.75577 0.0
O768 O 0.39091 0.31408 0.75413 0.0
N769 N 0.4823 0.39347 0.70757 0.0
C770 C 0.49742 0.40023 0.67598 0.0
C771 C 0.50368 0.42866 0.6655 0.0
C772 C 0.48006 0.41775 0.71629 0.0
N773 N 0.49268 0.4395 0.69096 0.0
C774 C 0.46251 0.32204 0.67232 0.0
C775 C 0.42116 0.33134 0.63476 0.0
C776 C 0.43717 0.31992 0.61599 0.0
C777 C 0.45707 0.31407 0.63582 0.0
C778 C 0.42701 0.33871 0.67155 0.0
N779 N 0.44801 0.33467 0.68984 0.0
H780 H 0.48042 0.32037 0.68551 0.0
H781 H 0.41662 0.35031 0.68398 0.0
H782 H 0.50319 0.38546 0.66142 0.0
H783 H 0.46885 0.41914 0.74038 0.0
O784 O 0.50533 0.35954 0.73253 0.0
O785 O 0.49022 0.37904 0.77563 0.0
O786 O 0.43005 0.36138 0.74716 0.0
C787 C 0.51172 0.37569 0.76189 0.0
H788 H 0.42514 0.28094 0.83751 0.0
H789 H 0.5154 0.44042 0.64115 0.0
H790 H 0.40597 0.33682 0.62062 0.0
H791 H 0.46981 0.30502 0.62276 0.0
C792 C 0.4878 0.00567 0.22607 0.0
C793 C 0.48925 0.02037 0.19343 0.0
H794 H 0.4854 0.96701 0.25146 0.0
C795 C 0.48925 0.00661 0.16056 0.0
H796 H 0.48799 0.01584 0.25181 0.0
C797 C 0.48787 0.97865 0.16037 0.0
C798 C 0.48669 0.96411 0.19304 0.0
H799 H 0.48996 0.01728 0.13502 0.0
H800 H 0.48837 0.96872 0.13471 0.0
C801 C 0.48655 0.97783 0.22588 0.0
C802 C 0.50398 0.49367 0.22991 0.0
C803 C 0.51747 0.49316 0.19707 0.0
H804 H 0.46749 0.49536 0.25575 0.0
C805 C 0.50395 0.49392 0.16436 0.0
H806 H 0.51388 0.49293 0.25549 0.0
C807 C 0.47745 0.49537 0.16451 0.0
C808 C 0.46393 0.49579 0.19736 0.0
H809 H 0.51414 0.49394 0.13871 0.0
H810 H 0.46727 0.49565 0.13896 0.0
C811 C 0.4774 0.49489 0.23006 0.0
C812 C 0.00428 0.50711 0.15723 0.0
C813 C 0.01839 0.5207 0.19002 0.0
H814 H 0.96619 0.47024 0.13156 0.0
C815 C 0.00417 0.50707 0.22275 0.0
H816 H 0.01454 0.51731 0.13161 0.0
C817 C 0.97638 0.48046 0.22271 0.0
C818 C 0.96223 0.46684 0.18995 0.0
H819 H 0.0146 0.51685 0.24845 0.0
H820 H 0.9659 0.47068 0.24839 0.0
C821 C 0.9764 0.48044 0.15719 0.0
C822 C 0.00421 0.49449 0.34339 0.0
C823 C 0.0185 0.49542 0.37615 0.0
H824 H 0.96564 0.49212 0.31778 0.0
C825 C 0.00432 0.49464 0.40894 0.0
H826 H 0.01477 0.49522 0.31775 0.0
C827 C 0.97618 0.49278 0.40896 0.0
C828 C 0.96196 0.49198 0.37618 0.0
H829 H 0.01473 0.49493 0.43454 0.0
H830 H 0.9658 0.49252 0.43456 0.0
C831 C 0.97623 0.49287 0.34341 0.0
C832 C 0.47688 0.97817 0.34951 0.0
C833 C 0.46286 0.96497 0.38247 0.0
H834 H 0.5138 0.01557 0.32319 0.0
C835 C 0.4763 0.97979 0.41498 0.0
H836 H 0.46717 0.96712 0.32404 0.0
C837 C 0.50312 0.00751 0.41451 0.0
C838 C 0.51703 0.02076 0.38152 0.0
H839 H 0.46577 0.97027 0.44073 0.0
H840 H 0.51313 0.01839 0.43994 0.0
C841 C 0.5037 0.00578 0.34903 0.0
C842 C 0.49191 0.48127 0.3508 0.0
C843 C 0.49274 0.46772 0.3835 0.0
H844 H 0.48964 0.51749 0.32525 0.0
C845 C 0.49232 0.48132 0.41632 0.0
H846 H 0.4925 0.47148 0.32507 0.0
C847 C 0.4909 0.50789 0.41642 0.0
C848 C 0.49003 0.52138 0.38369 0.0
H849 H 0.49257 0.47117 0.44191 0.0
H850 H 0.49092 0.51808 0.44207 0.0
C851 C 0.49054 0.50778 0.3509 0.0
C852 C 0.48927 0.00649 0.91334 0.0
C853 C 0.48925 0.02024 0.88048 0.0
H854 H 0.48841 0.96861 0.93918 0.0
C855 C 0.48776 0.00553 0.84783 0.0
H856 H 0.49001 0.01717 0.93889 0.0
C857 C 0.48651 0.97769 0.84801 0.0
C858 C 0.48668 0.96398 0.88084 0.0
H859 H 0.48792 0.0157 0.8221 0.0
H860 H 0.48534 0.96686 0.82243 0.0
C861 C 0.48789 0.97852 0.91353 0.0
C862 C 0.47737 0.49525 0.90957 0.0
C863 C 0.46385 0.49565 0.87671 0.0
H864 H 0.51407 0.49384 0.93539 0.0
C865 C 0.47731 0.49472 0.84402 0.0
H866 H 0.4672 0.49556 0.93512 0.0
C867 C 0.50389 0.4935 0.84419 0.0
C868 C 0.51739 0.49302 0.87704 0.0
H869 H 0.46739 0.49517 0.81833 0.0
H870 H 0.51379 0.49274 0.81861 0.0
C871 C 0.50387 0.4938 0.90974 0.0
C872 C 0.97633 0.48036 0.91675 0.0
C873 C 0.96216 0.46677 0.88399 0.0
H874 H 0.01446 0.51722 0.94237 0.0
C875 C 0.97633 0.48041 0.85124 0.0
H876 H 0.96611 0.47015 0.94238 0.0
C877 C 0.00412 0.50702 0.85123 0.0
C878 C 0.01833 0.52064 0.88397 0.0
H879 H 0.96586 0.47064 0.82554 0.0
H880 H 0.01456 0.51681 0.82553 0.0
C881 C 0.00421 0.50703 0.91675 0.0
C882 C 0.97622 0.4929 0.73052 0.0
C883 C 0.96195 0.49201 0.69774 0.0
H884 H 0.01477 0.49525 0.75617 0.0
C885 C 0.97616 0.49281 0.66496 0.0
H886 H 0.96563 0.49214 0.75615 0.0
C887 C 0.0043 0.49467 0.66498 0.0
C888 C 0.01849 0.49545 0.69776 0.0
H889 H 0.96578 0.49255 0.63936 0.0
H890 H 0.01471 0.49496 0.63938 0.0
C891 C 0.0042 0.49452 0.73053 0.0
C892 C 0.50365 0.0058 0.72488 0.0
C893 C 0.51696 0.02074 0.69238 0.0
H894 H 0.46712 0.96717 0.74993 0.0
C895 C 0.50303 0.00746 0.65941 0.0
H896 H 0.51376 0.01562 0.75071 0.0
C897 C 0.4762 0.97974 0.65897 0.0
C898 C 0.46278 0.96495 0.69151 0.0
H899 H 0.51303 0.01831 0.63396 0.0
H900 H 0.46566 0.9702 0.63323 0.0
C901 C 0.47682 0.97819 0.72445 0.0
C902 C 0.49219 0.48114 0.65781 0.0
C903 C 0.4926 0.46755 0.69065 0.0
H904 H 0.49081 0.5179 0.63202 0.0
C905 C 0.49175 0.4811 0.72333 0.0
H906 H 0.49246 0.47099 0.63224 0.0
C907 C 0.49038 0.50762 0.72321 0.0
C908 C 0.4899 0.52121 0.6904 0.0
H909 H 0.49232 0.47132 0.74907 0.0
H910 H 0.48947 0.51734 0.74885 0.0
C911 C 0.49077 0.50771 0.65769 0.0
C912 C 0.43455 0.22914 0.31894 0.0
C913 C 0.43689 0.24562 0.28749 0.0
H914 H 0.4329 0.18999 0.34168 0.0
C915 C 0.43787 0.23346 0.25375 0.0
H916 H 0.43323 0.2375 0.34535 0.0
C917 C 0.4371 0.20579 0.25158 0.0
C918 C 0.43548 0.18965 0.28309 0.0
H919 H 0.43987 0.24552 0.22894 0.0
H920 H 0.43783 0.19712 0.22513 0.0
C921 C 0.43395 0.20157 0.31678 0.0
C922 C 0.21159 0.40879 0.28614 0.0
C923 C 0.23899 0.43618 0.28403 0.0
H924 H 0.16336 0.38744 0.2901 0.0
C925 C 0.23889 0.46358 0.28508 0.0
H926 H 0.21131 0.38747 0.2852 0.0
C927 C 0.21169 0.46357 0.28875 0.0
C928 C 0.18425 0.43614 0.29032 0.0
H929 H 0.25989 0.4849 0.28363 0.0
H930 H 0.21195 0.48488 0.28978 0.0
C931 C 0.18435 0.40877 0.28874 0.0
C932 C 0.78116 0.23307 0.3192 0.0
C933 C 0.79423 0.24529 0.28543 0.0
H934 H 0.74504 0.19672 0.3479 0.0
C935 C 0.77991 0.22891 0.25399 0.0
H936 H 0.7913 0.24503 0.34404 0.0
C937 C 0.75293 0.20136 0.2562 0.0
C938 C 0.73965 0.18936 0.28995 0.0
H939 H 0.78949 0.23732 0.22755 0.0
H940 H 0.74227 0.18982 0.23132 0.0
C941 C 0.75429 0.20543 0.32142 0.0
C942 C 0.54529 0.78417 0.25388 0.0
C943 C 0.54576 0.79972 0.28544 0.0
H944 H 0.54313 0.74491 0.23098 0.0
C945 C 0.54622 0.78726 0.31917 0.0
H946 H 0.54551 0.79328 0.22742 0.0
C947 C 0.54551 0.7596 0.32126 0.0
C948 C 0.54413 0.74362 0.28967 0.0
H949 H 0.54645 0.79846 0.34408 0.0
H950 H 0.54591 0.75076 0.3477 0.0
C951 C 0.54435 0.75646 0.25596 0.0
C952 C 0.74198 0.52463 0.28556 0.0
C953 C 0.74208 0.55213 0.28416 0.0
H954 H 0.76868 0.50311 0.29048 0.0
C955 C 0.76959 0.57943 0.28593 0.0
H956 H 0.72089 0.50338 0.28437 0.0
C957 C 0.79673 0.57927 0.28851 0.0
C958 C 0.79664 0.55182 0.29041 0.0
H959 H 0.77003 0.60082 0.28469 0.0
H960 H 0.81781 0.60055 0.28959 0.0
C961 C 0.76909 0.52448 0.2892 0.0
C962 C 0.22748 0.78627 0.25568 0.0
C963 C 0.2403 0.79877 0.28944 0.0
H964 H 0.19134 0.7499 0.22704 0.0
C965 C 0.22511 0.78324 0.32096 0.0
H966 H 0.2385 0.79738 0.23076 0.0
C967 C 0.19829 0.75556 0.31881 0.0
C968 C 0.18574 0.74276 0.28505 0.0
H969 H 0.23392 0.79234 0.34746 0.0
H970 H 0.18783 0.74403 0.34374 0.0
C971 C 0.2005 0.75869 0.25352 0.0
C972 C 0.5454 0.78412 0.82009 0.0
C973 C 0.54589 0.79967 0.78853 0.0
H974 H 0.54318 0.74484 0.84301 0.0
C975 C 0.54634 0.7872 0.7548 0.0
H976 H 0.54562 0.79325 0.84655 0.0
C977 C 0.54558 0.75952 0.75273 0.0
C978 C 0.54418 0.74353 0.78433 0.0
H979 H 0.54658 0.79841 0.72989 0.0
H980 H 0.54598 0.75067 0.7263 0.0
C981 C 0.54441 0.75639 0.81803 0.0
C982 C 0.79665 0.57915 0.78563 0.0
C983 C 0.79655 0.55169 0.78367 0.0
H984 H 0.76995 0.60069 0.7895 0.0
C985 C 0.769 0.52436 0.78483 0.0
H986 H 0.81773 0.60042 0.78459 0.0
C987 C 0.74189 0.52451 0.78849 0.0
C988 C 0.74199 0.552 0.78994 0.0
H989 H 0.76859 0.50298 0.78351 0.0
H990 H 0.7208 0.50325 0.78965 0.0
C991 C 0.76951 0.5793 0.78822 0.0
C992 C 0.22752 0.78616 0.81853 0.0
C993 C 0.24032 0.79869 0.78476 0.0
H994 H 0.19137 0.7498 0.84715 0.0
C995 C 0.22507 0.78321 0.75324 0.0
H996 H 0.23858 0.79723 0.84344 0.0
C997 C 0.19823 0.75556 0.75538 0.0
C998 C 0.1857 0.74274 0.78914 0.0
H999 H 0.23387 0.79234 0.72674 0.0
H1000 H 0.18772 0.74407 0.73044 0.0
C1001 C 0.20051 0.75862 0.82068 0.0
C1002 C 0.43707 0.20568 0.82261 0.0
C1003 C 0.43537 0.18951 0.79109 0.0
H1004 H 0.4399 0.24543 0.84526 0.0
C1005 C 0.43376 0.2014 0.75741 0.0
H1006 H 0.43785 0.19703 0.84904 0.0
C1007 C 0.43436 0.22896 0.75527 0.0
C1008 C 0.43678 0.24548 0.78672 0.0
H1009 H 0.43264 0.18979 0.73251 0.0
H1010 H 0.43298 0.23731 0.72887 0.0
C1011 C 0.43784 0.23334 0.82045 0.0
C1012 C 0.18428 0.40879 0.78544 0.0
C1013 C 0.18422 0.43617 0.78373 0.0
H1014 H 0.21118 0.38744 0.7891 0.0
C1015 C 0.21168 0.46358 0.7852 0.0
H1016 H 0.16327 0.38746 0.78416 0.0
C1017 C 0.23887 0.46356 0.78889 0.0
C1018 C 0.23892 0.43614 0.79006 0.0
H1019 H 0.21197 0.4849 0.78407 0.0
H1020 H 0.25988 0.48487 0.79025 0.0
C1021 C 0.21149 0.40877 0.78805 0.0
C1022 C 0.75428 0.20536 0.75246 0.0
C1023 C 0.73961 0.1893 0.78394 0.0
H1024 H 0.79131 0.24493 0.72985 0.0
C1025 C 0.75287 0.20131 0.81769 0.0
H1026 H 0.74504 0.19664 0.72598 0.0
C1027 C 0.77987 0.22886 0.81991 0.0
C1028 C 0.79422 0.24521 0.78846 0.0
H1029 H 0.7422 0.18979 0.84257 0.0
H1030 H 0.78943 0.23727 0.84635 0.0
C1031 C 0.78116 0.23298 0.75469 0.0
C1032 C 0.39973 0.01191 0.28941 0.0
C1033 C 0.38312 0.02368 0.27272 0.0
H1034 H 0.39916 0.97531 0.31732 0.0
C1035 C 0.35138 0.00624 0.27302 0.0
H1036 H 0.42415 0.0248 0.29049 0.0
C1037 C 0.33675 0.97719 0.28865 0.0
C1038 C 0.35366 0.96526 0.30441 0.0
H1039 H 0.33793 0.01474 0.2606 0.0
H1040 H 0.31235 0.9639 0.28771 0.0
C1041 C 0.38527 0.98332 0.30504 0.0
C1042 C 0.38243 0.40245 0.29 0.0
C1043 C 0.35618 0.3857 0.26916 0.0
H1044 H 0.41676 0.40237 0.32243 0.0
C1045 C 0.34381 0.35418 0.26674 0.0
H1046 H 0.39243 0.42666 0.29319 0.0
C1047 C 0.35811 0.34003 0.28378 0.0
C1048 C 0.38494 0.35716 0.30363 0.0
H1049 H 0.3235 0.34058 0.25113 0.0
H1050 H 0.34865 0.31589 0.28058 0.0
C1051 C 0.39647 0.38843 0.30699 0.0
C1052 C -0.00288 0.35408 0.30876 0.0
C1053 C 0.01629 0.38556 0.30591 0.0
H1054 H 0.95389 0.31571 0.29548 0.0
C1055 C 0.00665 0.40218 0.28504 0.0
H1056 H 0.00392 0.34058 0.32442 0.0
C1057 C 0.97845 0.38806 0.26838 0.0
C1058 C 0.95874 0.35683 0.2721 0.0
H1059 H 0.02086 0.42636 0.28153 0.0
H1060 H 0.97204 0.40191 0.25285 0.0
C1061 C 0.96854 0.33983 0.29203 0.0
C1062 C 0.62639 0.97724 0.28338 0.0
C1063 C 0.59757 0.96543 0.26764 0.0
H1064 H 0.6627 0.01452 0.31186 0.0
C1065 C 0.58399 0.98349 0.2674 0.0
H1066 H 0.63752 0.96394 0.28405 0.0
C1067 C 0.59806 0.01191 0.28351 0.0
C1068 C 0.6264 0.02352 0.30025 0.0
H1069 H 0.56212 0.97558 0.25512 0.0
H1070 H 0.5865 0.02478 0.2828 0.0
C1071 C 0.64076 0.00613 0.29944 0.0
C1072 C 0.58464 0.60053 0.30581 0.0
C1073 C 0.59601 0.63174 0.3021 0.0
H1074 H 0.58894 0.56236 0.29257 0.0
C1075 C 0.62277 0.64885 0.28214 0.0
H1076 H 0.56443 0.58662 0.32138 0.0
C1077 C 0.63719 0.63471 0.26535 0.0
C1078 C 0.625 0.60324 0.26817 0.0
H1079 H 0.63211 0.67295 0.2787 0.0
H1080 H 0.65744 0.64828 0.24965 0.0
C1081 C 0.59881 0.58653 0.28909 0.0
C1082 C 0.98334 0.63348 0.30861 0.0
C1083 C 0.96422 0.60198 0.30589 0.0
H1084 H 0.02653 0.67185 0.29521 0.0
C1085 C 0.97389 0.58534 0.28511 0.0
H1086 H 0.97651 0.647 0.32419 0.0
C1087 C 0.00207 0.59944 0.26843 0.0
C1088 C 0.02174 0.63069 0.27202 0.0
H1089 H 0.95971 0.56114 0.28169 0.0
H1090 H 0.0085 0.58558 0.25297 0.0
C1091 C 0.01191 0.64772 0.29185 0.0
C1092 C 0.62647 0.97728 0.79061 0.0
C1093 C 0.5976 0.96541 0.80624 0.0
H1094 H 0.6628 0.0146 0.76222 0.0
C1095 C 0.58395 0.9834 0.80635 0.0
H1096 H 0.63765 0.96404 0.79005 0.0
C1097 C 0.598 0.01182 0.79022 0.0
C1098 C 0.62639 0.02349 0.77361 0.0
H1099 H 0.56204 0.97545 0.81852 0.0
H1100 H 0.58638 0.02464 0.79084 0.0
C1101 C 0.64082 0.00616 0.77454 0.0
C1102 C 0.63711 0.63459 0.8087 0.0
C1103 C 0.62491 0.60311 0.80591 0.0
H1104 H 0.63205 0.67282 0.79531 0.0
C1105 C 0.59871 0.58639 0.78501 0.0
H1106 H 0.65737 0.64816 0.82439 0.0
C1107 C 0.58454 0.60039 0.76827 0.0
C1108 C 0.59592 0.6316 0.77195 0.0
H1109 H 0.58883 0.56221 0.78156 0.0
H1110 H 0.56433 0.58646 0.75272 0.0
C1111 C 0.62269 0.64872 0.79189 0.0
C1112 C 0.01177 0.64768 0.78235 0.0
C1113 C 0.02162 0.63064 0.80214 0.0
H1114 H 0.97637 0.64695 0.75003 0.0
C1115 C 0.00198 0.59938 0.80567 0.0
H1116 H 0.02638 0.67182 0.77904 0.0
C1117 C 0.97381 0.58527 0.78897 0.0
C1118 C 0.96412 0.60192 0.76824 0.0
H1119 H 0.00842 0.58552 0.8211 0.0
H1120 H 0.95965 0.56107 0.79234 0.0
C1121 C 0.98321 0.63343 0.76558 0.0
C1122 C 0.35132 0.006 0.8014 0.0
C1123 C 0.38305 0.02354 0.80145 0.0
H1124 H 0.3123 0.96357 0.78695 0.0
C1125 C 0.39965 0.01186 0.78451 0.0
H1126 H 0.33788 0.01443 0.81403 0.0
C1127 C 0.38519 0.98326 0.7689 0.0
C1128 C 0.35359 0.96511 0.7698 0.0
H1129 H 0.42407 0.02483 0.78324 0.0
H1130 H 0.39907 0.97533 0.75642 0.0
C1131 C 0.33669 0.97694 0.7858 0.0
C1132 C 0.3823 0.4023 0.7841 0.0
C1133 C 0.35609 0.38557 0.80501 0.0
H1134 H 0.41659 0.40219 0.75163 0.0
C1135 C 0.34375 0.35406 0.80752 0.0
H1136 H 0.39227 0.4265 0.78083 0.0
C1137 C 0.35805 0.3399 0.7905 0.0
C1138 C 0.38485 0.35701 0.77058 0.0
H1139 H 0.32348 0.34048 0.82318 0.0
H1140 H 0.34862 0.31577 0.79377 0.0
C1141 C 0.39634 0.38826 0.76713 0.0
C1142 C 0.00664 0.4022 0.78888 0.0
C1143 C 0.01632 0.38559 0.76806 0.0
H1144 H 0.972 0.40191 0.82101 0.0
C1145 C -0.00281 0.3541 0.76526 0.0
H1146 H 0.02082 0.42639 0.79236 0.0
C1147 C 0.9686 0.33983 0.78197 0.0
C1148 C 0.95876 0.35683 0.80184 0.0
H1149 H 0.00402 0.3406 0.74964 0.0
H1150 H 0.95398 0.31571 0.77855 0.0
C1151 C 0.97844 0.38807 0.80552 0.0
C1152 C 0.56194 0.14805 0.24991 0.0
C1153 C 0.54013 0.14616 0.27447 0.0
H1154 H 0.60224 0.14544 0.24298 0.0
C1155 C 0.54611 0.1475 0.31171 0.0
H1156 H 0.55757 0.14641 0.22108 0.0
C1157 C 0.57219 0.14797 0.32423 0.0
C1158 C 0.59206 0.14599 0.29966 0.0
H1159 H 0.52939 0.14558 0.33115 0.0
H1160 H 0.57488 0.14626 0.35305 0.0
C1161 C 0.58747 0.14742 0.26242 0.0
C1162 C 0.41606 0.57359 0.32648 0.0
C1163 C 0.43772 0.59352 0.30175 0.0
H1164 H 0.37568 0.53072 0.33363 0.0
C1165 C 0.43146 0.58896 0.26458 0.0
H1166 H 0.42067 0.57629 0.35525 0.0
C1167 C 0.40518 0.56344 0.25223 0.0
C1168 C 0.38542 0.54156 0.27689 0.0
H1169 H 0.44806 0.60379 0.24503 0.0
H1170 H 0.40227 0.55912 0.22341 0.0
C1171 C 0.39034 0.5475 0.31412 0.0
C1172 C 0.83539 0.4242 0.32155 0.0
C1173 C 0.83755 0.44613 0.29692 0.0
H1174 H 0.83801 0.3839 0.32872 0.0
C1175 C 0.83668 0.44028 0.25968 0.0
H1176 H 0.83667 0.42845 0.35038 0.0
C1177 C 0.83643 0.41425 0.24729 0.0
C1178 C 0.83813 0.3943 0.27201 0.0
H1179 H 0.83883 0.45709 0.2402 0.0
H1180 H 0.83846 0.41163 0.21853 0.0
C1181 C 0.83627 0.39875 0.30918 0.0
C1182 C 0.39262 0.84027 0.26455 0.0
C1183 C 0.38842 0.84258 0.30168 0.0
H1184 H 0.42224 0.84063 0.22328 0.0
C1185 C 0.40891 0.84189 0.32638 0.0
H1186 H 0.37739 0.84133 0.24502 0.0
C1187 C 0.43511 0.84258 0.31393 0.0
C1188 C 0.44057 0.84284 0.27668 0.0
H1189 H 0.40651 0.84436 0.3551 0.0
H1190 H 0.45223 0.8454 0.33331 0.0
C1191 C 0.41826 0.83981 0.25215 0.0
C1192 C 0.57536 0.42587 0.25026 0.0
C1193 C 0.59561 0.44715 0.27512 0.0
H1194 H 0.53206 0.38609 0.24288 0.0
C1195 C 0.59095 0.44067 0.31225 0.0
H1196 H 0.57809 0.43065 0.22153 0.0
C1197 C 0.56509 0.41463 0.32442 0.0
C1198 C 0.54304 0.39534 0.29963 0.0
H1199 H 0.60597 0.45701 0.33192 0.0
H1200 H 0.56077 0.4115 0.35323 0.0
C1201 C 0.54895 0.40044 0.26245 0.0
C1202 C 0.14419 0.57344 0.24745 0.0
C1203 C 0.14245 0.59335 0.27219 0.0
H1204 H 0.14183 0.53062 0.24027 0.0
C1205 C 0.14427 0.58884 0.30936 0.0
H1206 H 0.1422 0.5761 0.21868 0.0
C1207 C 0.14514 0.56337 0.32168 0.0
C1208 C 0.14303 0.54149 0.29701 0.0
H1209 H 0.14249 0.60366 0.32892 0.0
H1210 H 0.14383 0.55909 0.35051 0.0
C1211 C 0.14395 0.54739 0.25979 0.0
C1212 C 0.41837 0.8397 0.82181 0.0
C1213 C 0.44066 0.84274 0.79724 0.0
H1214 H 0.37751 0.84122 0.82901 0.0
C1215 C 0.43518 0.84251 0.76 0.0
H1216 H 0.42237 0.8405 0.85067 0.0
C1217 C 0.40897 0.84182 0.74759 0.0
C1218 C 0.38849 0.8425 0.77233 0.0
H1219 H 0.45228 0.84533 0.7406 0.0
H1220 H 0.40655 0.84431 0.71888 0.0
C1221 C 0.39272 0.84016 0.80945 0.0
C1222 C 0.54887 0.40032 0.81175 0.0
C1223 C 0.54295 0.39521 0.77457 0.0
H1224 H 0.578 0.43054 0.85266 0.0
C1225 C 0.56501 0.41448 0.74978 0.0
H1226 H 0.53197 0.38598 0.83132 0.0
C1227 C 0.59087 0.44053 0.76193 0.0
C1228 C 0.59553 0.44702 0.79906 0.0
H1229 H 0.56068 0.41133 0.72096 0.0
H1230 H 0.60589 0.45685 0.74226 0.0
C1231 C 0.57529 0.42576 0.82393 0.0
C1232 C 0.14506 0.56341 0.75231 0.0
C1233 C 0.14299 0.54154 0.77696 0.0
H1234 H 0.14236 0.60368 0.7451 0.0
C1235 C 0.14394 0.54744 0.81419 0.0
H1236 H 0.14372 0.55912 0.72348 0.0
C1237 C 0.14417 0.57348 0.82655 0.0
C1238 C 0.14239 0.59337 0.80182 0.0
H1239 H 0.14185 0.53068 0.83368 0.0
H1240 H 0.1422 0.57613 0.85532 0.0
C1241 C 0.14417 0.58887 0.76465 0.0
C1242 C 0.54598 0.14734 0.7622 0.0
C1243 C 0.54005 0.14604 0.79945 0.0
H1244 H 0.57471 0.14608 0.72083 0.0
C1245 C 0.56191 0.148 0.82398 0.0
H1246 H 0.52923 0.14538 0.74279 0.0
C1247 C 0.58744 0.14738 0.81144 0.0
C1248 C 0.59198 0.14591 0.77419 0.0
H1249 H 0.55758 0.14639 0.85282 0.0
H1250 H 0.60225 0.14545 0.83086 0.0
C1251 C 0.57207 0.14783 0.74965 0.0
C1252 C 0.39026 0.54736 0.75994 0.0
C1253 C 0.38535 0.54144 0.79717 0.0
H1254 H 0.42057 0.57614 0.71879 0.0
C1255 C 0.40512 0.56333 0.82182 0.0
H1256 H 0.37559 0.53058 0.74045 0.0
C1257 C 0.43139 0.58885 0.80946 0.0
C1258 C 0.43764 0.59339 0.77228 0.0
H1259 H 0.40221 0.55903 0.85064 0.0
H1260 H 0.448 0.60369 0.829 0.0
C1261 C 0.41598 0.57346 0.74757 0.0
C1262 C 0.8366 0.44016 0.81423 0.0
C1263 C 0.8375 0.44603 0.77699 0.0
H1264 H 0.83837 0.4115 0.85537 0.0
C1265 C 0.83536 0.42412 0.75235 0.0
H1266 H 0.83873 0.45696 0.83371 0.0
C1267 C 0.83624 0.39867 0.76471 0.0
C1268 C 0.83808 0.3942 0.80188 0.0
H1269 H 0.83666 0.42838 0.72352 0.0
H1270 H 0.838 0.38382 0.74516 0.0
C1271 C 0.83635 0.41413 0.8266 0.0
C1272 C 0.4271 0.08222 0.05596 0.0
C1273 C 0.4284 0.10648 0.0755 0.0
H1274 H 0.42737 0.06365 1.00436 0.0
C1275 C 0.42906 0.13048 0.056 0.0
H1276 H 0.42735 0.06368 0.06981 0.0
C1277 C 0.42907 0.13046 1.01802 0.0
C1278 C 0.42842 0.10644 0.99858 0.0
H1279 H 0.42983 0.14943 0.07008 0.0
H1280 H 0.42984 0.1494 1.0039 0.0
C1281 C 0.42711 0.0822 1.01817 0.0
C1282 C 0.31212 0.40923 0.05605 0.0
C1283 C 0.3166 0.43484 0.07553 0.0
H1284 H 0.30875 0.38919 1.00397 0.0
C1285 C 0.32058 0.46019 0.05594 0.0
H1286 H 0.30876 0.38921 0.07016 0.0
C1287 C 0.32057 0.46018 1.01814 0.0
C1288 C 0.31658 0.43482 0.99857 0.0
H1289 H 0.32489 0.48066 0.06976 0.0
H1290 H 0.32487 0.48063 1.0043 0.0
C1291 C 0.31211 0.40922 1.01807 0.0
C1292 C 0.89898 0.3389 0.05586 0.0
C1293 C 0.87402 0.31693 0.07545 0.0
H1294 H 0.91815 0.35703 1.00423 0.0
C1295 C 0.84929 0.29446 0.05595 0.0
H1296 H 0.91815 0.35704 0.06968 0.0
C1297 C 0.84929 0.29445 1.01797 0.0
C1298 C 0.87402 0.31691 0.99847 0.0
H1299 H 0.82977 0.27702 0.07005 0.0
H1300 H 0.82977 0.277 1.00387 0.0
C1301 C 0.89898 0.33889 1.01805 0.0
C1302 C 0.57288 0.89104 0.05598 0.0
C1303 C 0.54602 0.87308 0.07542 0.0
H1304 H 0.5939 0.90519 1.00386 0.0
C1305 C 0.51935 0.85495 0.05583 0.0
H1306 H 0.59387 0.90519 0.07013 0.0
C1307 C 0.51937 0.85495 1.01808 0.0
C1308 C 0.54606 0.87308 0.99852 0.0
H1309 H 0.49803 0.84148 0.06962 0.0
H1310 H 0.49806 0.84148 1.00426 0.0
C1311 C 0.57289 0.89104 1.01798 0.0
C1312 C 0.67001 0.58062 0.05603 0.0
C1313 C 0.66585 0.55513 0.0755 0.0
H1314 H 0.67306 0.60052 1.00394 0.0
C1315 C 0.66225 0.5299 0.05595 0.0
H1316 H 0.67308 0.60054 0.07014 0.0
C1317 C 0.66224 0.52989 1.01817 0.0
C1318 C 0.66583 0.5551 0.99861 0.0
H1319 H 0.65819 0.50953 0.0698 0.0
H1320 H 0.65818 0.50952 1.00434 0.0
C1321 C 0.67 0.58061 1.01806 0.0
C1322 C 0.13111 0.69304 1.01806 0.0
C1323 C 0.1064 0.67054 0.99859 0.0
H1324 H 0.15062 0.71053 0.07014 0.0
C1325 C 0.08147 0.64853 1.01818 0.0
H1326 H 0.1506 0.71051 1.00396 0.0
C1327 C 0.08148 0.64854 0.05598 0.0
C1328 C 0.10642 0.67056 0.07555 0.0
H1329 H 0.06232 0.63035 1.00437 0.0
H1330 H 0.06234 0.63037 0.06981 0.0
C1331 C 0.13112 0.69305 0.05605 0.0
C1332 C 0.85368 0.5272 0.51811 0.0
C1333 C 0.87507 0.55256 0.49855 0.0
H1334 H 0.83754 0.50674 0.56974 0.0
C1335 C 0.89618 0.57817 0.51803 0.0
H1336 H 0.83755 0.50675 0.50427 0.0
C1337 C 0.89617 0.57817 0.55601 0.0
C1338 C 0.87505 0.55255 0.57548 0.0
H1339 H 0.91285 0.59819 0.50393 0.0
H1340 H 0.91283 0.59819 0.57012 0.0
C1341 C 0.85368 0.5272 0.5559 0.0
C1342 C 0.33461 0.90393 0.51823 0.0
C1343 C 0.31224 0.87926 0.49865 0.0
H1344 H 0.35302 0.92283 0.56983 0.0
C1345 C 0.28941 0.85477 0.51809 0.0
H1346 H 0.35304 0.92286 0.50442 0.0
C1347 C 0.2894 0.85475 0.55606 0.0
C1348 C 0.31221 0.87922 0.57553 0.0
H1349 H 0.27169 0.83547 0.50396 0.0
H1350 H 0.27167 0.83544 0.57016 0.0
C1351 C 0.3346 0.90392 0.556 0.0
C1352 C 0.40922 0.30845 0.51807 0.0
C1353 C 0.43614 0.31776 0.49861 0.0
H1354 H 0.38813 0.3012 0.57022 0.0
C1355 C 0.46289 0.32677 0.51823 0.0
H1356 H 0.38816 0.30124 0.50393 0.0
C1357 C 0.46288 0.32675 0.55599 0.0
C1358 C 0.43611 0.31771 0.57558 0.0
H1359 H 0.48427 0.33498 0.50445 0.0
H1360 H 0.48424 0.33493 0.5698 0.0
C1361 C 0.4092 0.30843 0.5561 0.0
C1362 C 0.08426 0.40942 0.518 0.0
C1363 C 0.10544 0.43498 0.49852 0.0
H1364 H 0.06755 0.38944 0.57009 0.0
C1365 C 0.12691 0.46029 0.51808 0.0
H1366 H 0.06753 0.38943 0.5039 0.0
C1367 C 0.12692 0.4603 0.55588 0.0
C1368 C 0.10546 0.435 0.57545 0.0
H1369 H 0.14311 0.48071 0.50424 0.0
H1370 H 0.14312 0.48073 0.56971 0.0
C1371 C 0.08426 0.40942 0.55598 0.0
C1372 C 0.64143 0.08193 0.51802 0.0
C1373 C 0.66425 0.10626 0.49844 0.0
H1374 H 0.6227 0.0633 0.56966 0.0
C1375 C 0.68749 0.13035 0.51794 0.0
H1376 H 0.62271 0.0633 0.50419 0.0
C1377 C 0.68749 0.13035 0.55593 0.0
C1378 C 0.66425 0.10626 0.57542 0.0
H1379 H 0.7056 0.14937 0.50385 0.0
H1380 H 0.70559 0.14937 0.57002 0.0
C1381 C 0.64143 0.08192 0.55583 0.0
C1382 C 0.54838 0.69346 0.55603 0.0
C1383 C 0.55071 0.67101 0.57549 0.0
H1384 H 0.54627 0.71091 0.50397 0.0
C1385 C 0.55377 0.64908 0.55591 0.0
H1386 H 0.54625 0.71087 0.57015 0.0
C1387 C 0.55378 0.64911 0.51811 0.0
C1388 C 0.55074 0.67106 0.49856 0.0
H1389 H 0.55485 0.63096 0.56972 0.0
H1390 H 0.55487 0.631 0.50427 0.0
C1391 C 0.5484 0.69348 0.51805 0.0
loop_
_geom_bond_atom_site_label_1
_geom_bond_atom_site_label_2
_geom_bond_distance
_geom_bond_site_symmetry_2
_ccdc_geom_bond_type
Co0 N4 2.148 . S
Co0 N10 2.128 . S
Co0 N20 2.194 . S
Co0 O25 2.351 . S
Co0 O26 2.155 . S
Co0 O27 2.096 . S
C1 N4 1.301 . S
C1 N5 1.328 . S
C1 H6 0.930 . S
C2 C3 1.333 . S
C2 N4 1.317 . S
C2 H7 0.930 . S
C3 C2 1.333 . S
C3 N5 1.350 . S
C3 H29 0.931 . S
N4 Co0 2.148 . S
N4 C1 1.301 . S
N4 C2 1.317 . S
N5 C1 1.328 . S
N5 C3 1.350 . S
H6 C1 0.930 . S
H7 C2 0.930 . S
C8 O9 1.224 . S
C8 O27 1.247 . S
O9 C8 1.224 . S
N10 Co0 2.128 . S
N10 C11 1.355 . S
N10 C13 1.311 . S
C11 N10 1.355 . S
C11 C12 1.363 . S
C11 H23 0.929 . S
C12 C11 1.363 . S
C12 N14 1.375 . S
C12 H30 0.931 . S
C13 N10 1.311 . S
C13 N14 1.347 . S
C13 H24 0.929 . S
N14 C12 1.375 . S
N14 C13 1.347 . S
C15 C18 1.365 . S
C15 N20 1.328 . S
C15 H21 0.929 . S
C16 C17 1.362 . S
C16 C19 1.378 . S
C16 H31 0.929 . S
C17 C16 1.362 . S
C17 C18 1.366 . S
C18 C15 1.365 . S
C18 C17 1.366 . S
C18 H32 0.930 . S
C19 C16 1.378 . S
C19 N20 1.315 . S
C19 H22 0.930 . S
N20 Co0 2.194 . S
N20 C15 1.328 . S
N20 C19 1.315 . S
H21 C15 0.929 . S
H22 C19 0.930 . S
H23 C11 0.929 . S
H24 C13 0.929 . S
O25 Co0 2.351 . S
O25 C28 1.244 . S
O26 Co0 2.155 . S
O26 C28 1.240 . S
O27 Co0 2.096 . S
O27 C8 1.247 . S
C28 O25 1.244 . S
C28 O26 1.240 . S
H29 C3 0.931 . S
H30 C12 0.931 . S
H31 C16 0.929 . S
H32 C18 0.930 . S
Co33 N37 2.148 . S
Co33 N43 2.128 . S
Co33 N53 2.194 . S
Co33 O58 2.351 . S
Co33 O59 2.155 . S
Co33 O60 2.096 . S
C34 N37 1.301 . S
C34 N38 1.328 . S
C34 H39 0.930 . S
C35 C36 1.333 . S
C35 N37 1.317 . S
C35 H40 0.930 . S
C36 C35 1.333 . S
C36 N38 1.350 . S
C36 H62 0.931 . S
N37 Co33 2.148 . S
N37 C34 1.301 . S
N37 C35 1.317 . S
N38 C34 1.328 . S
N38 C36 1.350 . S
H39 C34 0.930 . S
H40 C35 0.930 . S
C41 O42 1.224 . S
C41 O60 1.247 . S
O42 C41 1.224 . S
N43 Co33 2.128 . S
N43 C44 1.355 . S
N43 C46 1.311 . S
C44 N43 1.355 . S
C44 C45 1.363 . S
C44 H56 0.929 . S
C45 C44 1.363 . S
C45 N47 1.375 . S
C45 H63 0.931 . S
C46 N43 1.311 . S
C46 N47 1.347 . S
C46 H57 0.929 . S
N47 C45 1.375 . S
N47 C46 1.347 . S
C48 C51 1.365 . S
C48 N53 1.328 . S
C48 H54 0.929 . S
C49 C50 1.362 . S
C49 C52 1.378 . S
C49 H64 0.929 . S
C50 C49 1.362 . S
C50 C51 1.366 . S
C51 C48 1.365 . S
C51 C50 1.366 . S
C51 H65 0.930 . S
C52 C49 1.378 . S
C52 N53 1.315 . S
C52 H55 0.930 . S
N53 Co33 2.194 . S
N53 C48 1.328 . S
N53 C52 1.315 . S
H54 C48 0.929 . S
H55 C52 0.930 . S
H56 C44 0.929 . S
H57 C46 0.929 . S
O58 Co33 2.351 . S
O58 C61 1.244 . S
O59 Co33 2.155 . S
O59 C61 1.240 . S
O60 Co33 2.096 . S
O60 C41 1.247 . S
C61 O58 1.244 . S
C61 O59 1.240 . S
H62 C36 0.931 . S
H63 C45 0.931 . S
H64 C49 0.929 . S
H65 C51 0.930 . S
Co66 N70 2.148 . S
Co66 N76 2.128 . S
Co66 N86 2.194 . S
Co66 O91 2.351 . S
Co66 O92 2.155 . S
Co66 O93 2.096 . S
C67 N70 1.301 . S
C67 N71 1.328 . S
C67 H72 0.930 . S
C68 C69 1.333 . S
C68 N70 1.317 . S
C68 H73 0.930 . S
C69 C68 1.333 . S
C69 N71 1.350 . S
C69 H95 0.931 . S
N70 Co66 2.148 . S
N70 C67 1.301 . S
N70 C68 1.317 . S
N71 C67 1.328 . S
N71 C69 1.350 . S
H72 C67 0.930 . S
H73 C68 0.930 . S
C74 O75 1.224 . S
C74 O93 1.247 . S
O75 C74 1.224 . S
N76 Co66 2.128 . S
N76 C77 1.355 . S
N76 C79 1.311 . S
C77 N76 1.355 . S
C77 C78 1.363 . S
C77 H89 0.929 . S
C78 C77 1.363 . S
C78 N80 1.375 . S
C78 H96 0.931 . S
C79 N76 1.311 . S
C79 N80 1.347 . S
C79 H90 0.929 . S
N80 C78 1.375 . S
N80 C79 1.347 . S
C81 C84 1.365 . S
C81 N86 1.328 . S
C81 H87 0.929 . S
C82 C83 1.362 . S
C82 C85 1.378 . S
C82 H97 0.929 . S
C83 C82 1.362 . S
C83 C84 1.366 . S
C84 C81 1.365 . S
C84 C83 1.366 . S
C84 H98 0.930 . S
C85 C82 1.378 . S
C85 N86 1.315 . S
C85 H88 0.930 . S
N86 Co66 2.194 . S
N86 C81 1.328 . S
N86 C85 1.315 . S
H87 C81 0.929 . S
H88 C85 0.930 . S
H89 C77 0.929 . S
H90 C79 0.929 . S
O91 Co66 2.351 . S
O91 C94 1.244 . S
O92 Co66 2.155 . S
O92 C94 1.240 . S
O93 Co66 2.096 . S
O93 C74 1.247 . S
C94 O91 1.244 . S
C94 O92 1.240 . S
H95 C69 0.931 . S
H96 C78 0.931 . S
H97 C82 0.929 . S
H98 C84 0.930 . S
Co99 N103 2.148 . S
Co99 N109 2.128 . S
Co99 N119 2.194 . S
Co99 O124 2.351 . S
Co99 O125 2.155 . S
Co99 O126 2.096 . S
C100 N103 1.301 . S
C100 N104 1.328 . S
C100 H105 0.930 . S
C101 C102 1.333 . S
C101 N103 1.317 . S
C101 H106 0.930 . S
C102 C101 1.333 . S
C102 N104 1.350 . S
C102 H128 0.931 . S
N103 Co99 2.148 . S
N103 C100 1.301 . S
N103 C101 1.317 . S
N104 C100 1.328 . S
N104 C102 1.350 . S
H105 C100 0.930 . S
H106 C101 0.930 . S
C107 O108 1.224 . S
C107 O126 1.247 . S
O108 C107 1.224 . S
N109 Co99 2.128 . S
N109 C110 1.355 . S
N109 C112 1.311 . S
C110 N109 1.355 . S
C110 C111 1.363 . S
C110 H122 0.929 . S
C111 C110 1.363 . S
C111 N113 1.375 . S
C111 H129 0.931 . S
C112 N109 1.311 . S
C112 N113 1.347 . S
C112 H123 0.929 . S
N113 C111 1.375 . S
N113 C112 1.347 . S
C114 C117 1.365 . S
C114 N119 1.328 . S
C114 H120 0.929 . S
C115 C116 1.362 . S
C115 C118 1.378 . S
C115 H130 0.929 . S
C116 C115 1.362 . S
C116 C117 1.366 . S
C117 C114 1.365 . S
C117 C116 1.366 . S
C117 H131 0.930 . S
C118 C115 1.378 . S
C118 N119 1.315 . S
C118 H121 0.930 . S
N119 Co99 2.194 . S
N119 C114 1.328 . S
N119 C118 1.315 . S
H120 C114 0.929 . S
H121 C118 0.930 . S
H122 C110 0.929 . S
H123 C112 0.929 . S
O124 Co99 2.351 . S
O124 C127 1.244 . S
O125 Co99 2.155 . S
O125 C127 1.240 . S
O126 Co99 2.096 . S
O126 C107 1.247 . S
C127 O124 1.244 . S
C127 O125 1.240 . S
H128 C102 0.931 . S
H129 C111 0.931 . S
H130 C115 0.929 . S
H131 C117 0.930 . S
Co132 N136 2.148 . S
Co132 N142 2.128 . S
Co132 N152 2.194 . S
Co132 O157 2.351 . S
Co132 O158 2.155 . S
Co132 O159 2.096 . S
C133 N136 1.301 . S
C133 N137 1.328 . S
C133 H138 0.930 . S
C134 C135 1.333 . S
C134 N136 1.317 . S
C134 H139 0.930 . S
C135 C134 1.333 . S
C135 N137 1.350 . S
C135 H161 0.931 . S
N136 Co132 2.148 . S
N136 C133 1.301 . S
N136 C134 1.317 . S
N137 C133 1.328 . S
N137 C135 1.350 . S
H138 C133 0.930 . S
H139 C134 0.930 . S
C140 O141 1.224 . S
C140 O159 1.247 . S
O141 C140 1.224 . S
N142 Co132 2.128 . S
N142 C143 1.355 . S
N142 C145 1.311 . S
C143 N142 1.355 . S
C143 C144 1.363 . S
C143 H155 0.929 . S
C144 C143 1.363 . S
C144 N146 1.375 . S
C144 H162 0.931 . S
C145 N142 1.311 . S
C145 N146 1.347 . S
C145 H156 0.929 . S
N146 C144 1.375 . S
N146 C145 1.347 . S
C147 C150 1.365 . S
C147 N152 1.328 . S
C147 H153 0.929 . S
C148 C149 1.362 . S
C148 C151 1.378 . S
C148 H163 0.929 . S
C149 C148 1.362 . S
C149 C150 1.366 . S
C150 C147 1.365 . S
C150 C149 1.366 . S
C150 H164 0.930 . S
C151 C148 1.378 . S
C151 N152 1.315 . S
C151 H154 0.930 . S
N152 Co132 2.194 . S
N152 C147 1.328 . S
N152 C151 1.315 . S
H153 C147 0.929 . S
H154 C151 0.930 . S
H155 C143 0.929 . S
H156 C145 0.929 . S
O157 Co132 2.351 . S
O157 C160 1.244 . S
O158 Co132 2.155 . S
O158 C160 1.240 . S
O159 Co132 2.096 . S
O159 C140 1.247 . S
C160 O157 1.244 . S
C160 O158 1.240 . S
H161 C135 0.931 . S
H162 C144 0.931 . S
H163 C148 0.929 . S
H164 C150 0.930 . S
Co165 N169 2.148 . S
Co165 N175 2.128 . S
Co165 N185 2.194 . S
Co165 O190 2.351 . S
Co165 O191 2.155 . S
Co165 O192 2.096 . S
C166 N169 1.301 . S
C166 N170 1.328 . S
C166 H171 0.930 . S
C167 C168 1.333 . S
C167 N169 1.317 . S
C167 H172 0.930 . S
C168 C167 1.333 . S
C168 N170 1.350 . S
C168 H194 0.931 . S
N169 Co165 2.148 . S
N169 C166 1.301 . S
N169 C167 1.317 . S
N170 C166 1.328 . S
N170 C168 1.350 . S
H171 C166 0.930 . S
H172 C167 0.930 . S
C173 O174 1.224 . S
C173 O192 1.247 . S
O174 C173 1.224 . S
N175 Co165 2.128 . S
N175 C176 1.355 . S
N175 C178 1.311 . S
C176 N175 1.355 . S
C176 C177 1.363 . S
C176 H188 0.929 . S
C177 C176 1.363 . S
C177 N179 1.375 . S
C177 H195 0.931 . S
C178 N175 1.311 . S
C178 N179 1.347 . S
C178 H189 0.929 . S
N179 C177 1.375 . S
N179 C178 1.347 . S
C180 C183 1.365 . S
C180 N185 1.328 . S
C180 H186 0.929 . S
C181 C182 1.362 . S
C181 C184 1.378 . S
C181 H196 0.929 . S
C182 C181 1.362 . S
C182 C183 1.366 . S
C183 C180 1.365 . S
C183 C182 1.366 . S
C183 H197 0.930 . S
C184 C181 1.378 . S
C184 N185 1.315 . S
C184 H187 0.930 . S
N185 Co165 2.194 . S
N185 C180 1.328 . S
N185 C184 1.315 . S
H186 C180 0.929 . S
H187 C184 0.930 . S
H188 C176 0.929 . S
H189 C178 0.929 . S
O190 Co165 2.351 . S
O190 C193 1.244 . S
O191 Co165 2.155 . S
O191 C193 1.240 . S
O192 Co165 2.096 . S
O192 C173 1.247 . S
C193 O190 1.244 . S
C193 O191 1.240 . S
H194 C168 0.931 . S
H195 C177 0.931 . S
H196 C181 0.929 . S
H197 C183 0.930 . S
Co198 N202 2.148 . S
Co198 N208 2.128 . S
Co198 N218 2.194 . S
Co198 O223 2.351 . S
Co198 O224 2.155 . S
Co198 O225 2.096 . S
C199 N202 1.301 . S
C199 N203 1.328 . S
C199 H204 0.930 . S
C200 C201 1.333 . S
C200 N202 1.317 . S
C200 H205 0.930 . S
C201 C200 1.333 . S
C201 N203 1.350 . S
C201 H227 0.931 . S
N202 Co198 2.148 . S
N202 C199 1.301 . S
N202 C200 1.317 . S
N203 C199 1.328 . S
N203 C201 1.350 . S
H204 C199 0.930 . S
H205 C200 0.930 . S
C206 O207 1.224 . S
C206 O225 1.247 . S
O207 C206 1.224 . S
N208 Co198 2.128 . S
N208 C209 1.355 . S
N208 C211 1.311 . S
C209 N208 1.355 . S
C209 C210 1.363 . S
C209 H221 0.929 . S
C210 C209 1.363 . S
C210 N212 1.375 . S
C210 H228 0.931 . S
C211 N208 1.311 . S
C211 N212 1.347 . S
C211 H222 0.929 . S
N212 C210 1.375 . S
N212 C211 1.347 . S
C213 C216 1.365 . S
C213 N218 1.328 . S
C213 H219 0.929 . S
C214 C215 1.362 . S
C214 C217 1.378 . S
C214 H229 0.929 . S
C215 C214 1.362 . S
C215 C216 1.366 . S
C216 C213 1.365 . S
C216 C215 1.366 . S
C216 H230 0.930 . S
C217 C214 1.378 . S
C217 N218 1.315 . S
C217 H220 0.930 . S
N218 Co198 2.194 . S
N218 C213 1.328 . S
N218 C217 1.315 . S
H219 C213 0.929 . S
H220 C217 0.930 . S
H221 C209 0.929 . S
H222 C211 0.929 . S
O223 Co198 2.351 . S
O223 C226 1.244 . S
O224 Co198 2.155 . S
O224 C226 1.240 . S
O225 Co198 2.096 . S
O225 C206 1.247 . S
C226 O223 1.244 . S
C226 O224 1.240 . S
H227 C201 0.931 . S
H228 C210 0.931 . S
H229 C214 0.929 . S
H230 C216 0.930 . S
Co231 N235 2.148 . S
Co231 N241 2.128 . S
Co231 N251 2.194 . S
Co231 O256 2.351 . S
Co231 O257 2.155 . S
Co231 O258 2.096 . S
C232 N235 1.301 . S
C232 N236 1.328 . S
C232 H237 0.930 . S
C233 C234 1.333 . S
C233 N235 1.317 . S
C233 H238 0.930 . S
C234 C233 1.333 . S
C234 N236 1.350 . S
C234 H260 0.931 . S
N235 Co231 2.148 . S
N235 C232 1.301 . S
N235 C233 1.317 . S
N236 C232 1.328 . S
N236 C234 1.350 . S
H237 C232 0.930 . S
H238 C233 0.930 . S
C239 O240 1.224 . S
C239 O258 1.247 . S
O240 C239 1.224 . S
N241 Co231 2.128 . S
N241 C242 1.355 . S
N241 C244 1.311 . S
C242 N241 1.355 . S
C242 C243 1.363 . S
C242 H254 0.929 . S
C243 C242 1.363 . S
C243 N245 1.375 . S
C243 H261 0.931 . S
C244 N241 1.311 . S
C244 N245 1.347 . S
C244 H255 0.929 . S
N245 C243 1.375 . S
N245 C244 1.347 . S
C246 C249 1.365 . S
C246 N251 1.328 . S
C246 H252 0.929 . S
C247 C248 1.362 . S
C247 C250 1.378 . S
C247 H262 0.929 . S
C248 C247 1.362 . S
C248 C249 1.366 . S
C249 C246 1.365 . S
C249 C248 1.366 . S
C249 H263 0.930 . S
C250 C247 1.378 . S
C250 N251 1.315 . S
C250 H253 0.930 . S
N251 Co231 2.194 . S
N251 C246 1.328 . S
N251 C250 1.315 . S
H252 C246 0.929 . S
H253 C250 0.930 . S
H254 C242 0.929 . S
H255 C244 0.929 . S
O256 Co231 2.351 . S
O256 C259 1.244 . S
O257 Co231 2.155 . S
O257 C259 1.240 . S
O258 Co231 2.096 . S
O258 C239 1.247 . S
C259 O256 1.244 . S
C259 O257 1.240 . S
H260 C234 0.931 . S
H261 C243 0.931 . S
H262 C247 0.929 . S
H263 C249 0.930 . S
Co264 N268 2.148 . S
Co264 N274 2.128 . S
Co264 N284 2.194 . S
Co264 O289 2.351 . S
Co264 O290 2.155 . S
Co264 O291 2.096 . S
C265 N268 1.301 . S
C265 N269 1.328 . S
C265 H270 0.930 . S
C266 C267 1.333 . S
C266 N268 1.317 . S
C266 H271 0.930 . S
C267 C266 1.333 . S
C267 N269 1.350 . S
C267 H293 0.931 . S
N268 Co264 2.148 . S
N268 C265 1.301 . S
N268 C266 1.317 . S
N269 C265 1.328 . S
N269 C267 1.350 . S
H270 C265 0.930 . S
H271 C266 0.930 . S
C272 O273 1.224 . S
C272 O291 1.247 . S
O273 C272 1.224 . S
N274 Co264 2.128 . S
N274 C275 1.355 . S
N274 C277 1.311 . S
C275 N274 1.355 . S
C275 C276 1.363 . S
C275 H287 0.929 . S
C276 C275 1.363 . S
C276 N278 1.375 . S
C276 H294 0.931 . S
C277 N274 1.311 . S
C277 N278 1.347 . S
C277 H288 0.929 . S
N278 C276 1.375 . S
N278 C277 1.347 . S
C279 C282 1.365 . S
C279 N284 1.328 . S
C279 H285 0.929 . S
C280 C281 1.362 . S
C280 C283 1.378 . S
C280 H295 0.929 . S
C281 C280 1.362 . S
C281 C282 1.366 . S
C282 C279 1.365 . S
C282 C281 1.366 . S
C282 H296 0.930 . S
C283 C280 1.378 . S
C283 N284 1.315 . S
C283 H286 0.930 . S
N284 Co264 2.194 . S
N284 C279 1.328 . S
N284 C283 1.315 . S
H285 C279 0.929 . S
H286 C283 0.930 . S
H287 C275 0.929 . S
H288 C277 0.929 . S
O289 Co264 2.351 . S
O289 C292 1.244 . S
O290 Co264 2.155 . S
O290 C292 1.240 . S
O291 Co264 2.096 . S
O291 C272 1.247 . S
C292 O289 1.244 . S
C292 O290 1.240 . S
H293 C267 0.931 . S
H294 C276 0.931 . S
H295 C280 0.929 . S
H296 C282 0.930 . S
Co297 N301 2.148 . S
Co297 N307 2.128 . S
Co297 N317 2.194 . S
Co297 O322 2.351 . S
Co297 O323 2.155 . S
Co297 O324 2.096 . S
C298 N301 1.301 . S
C298 N302 1.328 . S
C298 H303 0.930 . S
C299 C300 1.333 . S
C299 N301 1.317 . S
C299 H304 0.930 . S
C300 C299 1.333 . S
C300 N302 1.350 . S
C300 H326 0.931 . S
N301 Co297 2.148 . S
N301 C298 1.301 . S
N301 C299 1.317 . S
N302 C298 1.328 . S
N302 C300 1.350 . S
H303 C298 0.930 . S
H304 C299 0.930 . S
C305 O306 1.224 . S
C305 O324 1.247 . S
O306 C305 1.224 . S
N307 Co297 2.128 . S
N307 C308 1.355 . S
N307 C310 1.311 . S
C308 N307 1.355 . S
C308 C309 1.363 . S
C308 H320 0.929 . S
C309 C308 1.363 . S
C309 N311 1.375 . S
C309 H327 0.931 . S
C310 N307 1.311 . S
C310 N311 1.347 . S
C310 H321 0.929 . S
N311 C309 1.375 . S
N311 C310 1.347 . S
C312 C315 1.365 . S
C312 N317 1.328 . S
C312 H318 0.929 . S
C313 C314 1.362 . S
C313 C316 1.378 . S
C313 H328 0.929 . S
C314 C313 1.362 . S
C314 C315 1.366 . S
C315 C312 1.365 . S
C315 C314 1.366 . S
C315 H329 0.930 . S
C316 C313 1.378 . S
C316 N317 1.315 . S
C316 H319 0.930 . S
N317 Co297 2.194 . S
N317 C312 1.328 . S
N317 C316 1.315 . S
H318 C312 0.929 . S
H319 C316 0.930 . S
H320 C308 0.929 . S
H321 C310 0.929 . S
O322 Co297 2.351 . S
O322 C325 1.244 . S
O323 Co297 2.155 . S
O323 C325 1.240 . S
O324 Co297 2.096 . S
O324 C305 1.247 . S
C325 O322 1.244 . S
C325 O323 1.240 . S
H326 C300 0.931 . S
H327 C309 0.931 . S
H328 C313 0.929 . S
H329 C315 0.930 . S
Co330 N334 2.148 . S
Co330 N340 2.128 . S
Co330 N350 2.194 . S
Co330 O355 2.351 . S
Co330 O356 2.155 . S
Co330 O357 2.096 . S
C331 N334 1.301 . S
C331 N335 1.328 . S
C331 H336 0.930 . S
C332 C333 1.333 . S
C332 N334 1.317 . S
C332 H337 0.930 . S
C333 C332 1.333 . S
C333 N335 1.350 . S
C333 H359 0.931 . S
N334 Co330 2.148 . S
N334 C331 1.301 . S
N334 C332 1.317 . S
N335 C331 1.328 . S
N335 C333 1.350 . S
H336 C331 0.930 . S
H337 C332 0.930 . S
C338 O339 1.224 . S
C338 O357 1.247 . S
O339 C338 1.224 . S
N340 Co330 2.128 . S
N340 C341 1.355 . S
N340 C343 1.311 . S
C341 N340 1.355 . S
C341 C342 1.363 . S
C341 H353 0.929 . S
C342 C341 1.363 . S
C342 N344 1.375 . S
C342 H360 0.931 . S
C343 N340 1.311 . S
C343 N344 1.347 . S
C343 H354 0.929 . S
N344 C342 1.375 . S
N344 C343 1.347 . S
C345 C348 1.365 . S
C345 N350 1.328 . S
C345 H351 0.929 . S
C346 C347 1.362 . S
C346 C349 1.378 . S
C346 H361 0.929 . S
C347 C346 1.362 . S
C347 C348 1.366 . S
C348 C345 1.365 . S
C348 C347 1.366 . S
C348 H362 0.930 . S
C349 C346 1.378 . S
C349 N350 1.315 . S
C349 H352 0.930 . S
N350 Co330 2.194 . S
N350 C345 1.328 . S
N350 C349 1.315 . S
H351 C345 0.929 . S
H352 C349 0.930 . S
H353 C341 0.929 . S
H354 C343 0.929 . S
O355 Co330 2.351 . S
O355 C358 1.244 . S
O356 Co330 2.155 . S
O356 C358 1.240 . S
O357 Co330 2.096 . S
O357 C338 1.247 . S
C358 O355 1.244 . S
C358 O356 1.240 . S
H359 C333 0.931 . S
H360 C342 0.931 . S
H361 C346 0.929 . S
H362 C348 0.930 . S
Co363 N367 2.148 . S
Co363 N373 2.128 . S
Co363 N383 2.194 . S
Co363 O388 2.351 . S
Co363 O389 2.155 . S
Co363 O390 2.096 . S
C364 N367 1.301 . S
C364 N368 1.328 . S
C364 H369 0.930 . S
C365 C366 1.333 . S
C365 N367 1.317 . S
C365 H370 0.930 . S
C366 C365 1.333 . S
C366 N368 1.350 . S
C366 H392 0.931 . S
N367 Co363 2.148 . S
N367 C364 1.301 . S
N367 C365 1.317 . S
N368 C364 1.328 . S
N368 C366 1.350 . S
H369 C364 0.930 . S
H370 C365 0.930 . S
C371 O372 1.224 . S
C371 O390 1.247 . S
O372 C371 1.224 . S
N373 Co363 2.128 . S
N373 C374 1.355 . S
N373 C376 1.311 . S
C374 N373 1.355 . S
C374 C375 1.363 . S
C374 H386 0.929 . S
C375 C374 1.363 . S
C375 N377 1.375 . S
C375 H393 0.931 . S
C376 N373 1.311 . S
C376 N377 1.347 . S
C376 H387 0.929 . S
N377 C375 1.375 . S
N377 C376 1.347 . S
C378 C381 1.365 . S
C378 N383 1.328 . S
C378 H384 0.929 . S
C379 C380 1.362 . S
C379 C382 1.378 . S
C379 H394 0.929 . S
C380 C379 1.362 . S
C380 C381 1.366 . S
C381 C378 1.365 . S
C381 C380 1.366 . S
C381 H395 0.930 . S
C382 C379 1.378 . S
C382 N383 1.315 . S
C382 H385 0.930 . S
N383 Co363 2.194 . S
N383 C378 1.328 . S
N383 C382 1.315 . S
H384 C378 0.929 . S
H385 C382 0.930 . S
H386 C374 0.929 . S
H387 C376 0.929 . S
O388 Co363 2.351 . S
O388 C391 1.244 . S
O389 Co363 2.155 . S
O389 C391 1.240 . S
O390 Co363 2.096 . S
O390 C371 1.247 . S
C391 O388 1.244 . S
C391 O389 1.240 . S
H392 C366 0.931 . S
H393 C375 0.931 . S
H394 C379 0.929 . S
H395 C381 0.930 . S
Co396 N400 2.148 . S
Co396 N406 2.128 . S
Co396 N416 2.194 . S
Co396 O421 2.351 . S
Co396 O422 2.155 . S
Co396 O423 2.096 . S
C397 N400 1.301 . S
C397 N401 1.328 . S
C397 H402 0.930 . S
C398 C399 1.333 . S
C398 N400 1.317 . S
C398 H403 0.930 . S
C399 C398 1.333 . S
C399 N401 1.350 . S
C399 H425 0.931 . S
N400 Co396 2.148 . S
N400 C397 1.301 . S
N400 C398 1.317 . S
N401 C397 1.328 . S
N401 C399 1.350 . S
H402 C397 0.930 . S
H403 C398 0.930 . S
C404 O405 1.224 . S
C404 O423 1.247 . S
O405 C404 1.224 . S
N406 Co396 2.128 . S
N406 C407 1.355 . S
N406 C409 1.311 . S
C407 N406 1.355 . S
C407 C408 1.363 . S
C407 H419 0.929 . S
C408 C407 1.363 . S
C408 N410 1.375 . S
C408 H426 0.931 . S
C409 N406 1.311 . S
C409 N410 1.347 . S
C409 H420 0.929 . S
N410 C408 1.375 . S
N410 C409 1.347 . S
C411 C414 1.365 . S
C411 N416 1.328 . S
C411 H417 0.929 . S
C412 C413 1.362 . S
C412 C415 1.378 . S
C412 H427 0.929 . S
C413 C412 1.362 . S
C413 C414 1.366 . S
C414 C411 1.365 . S
C414 C413 1.366 . S
C414 H428 0.930 . S
C415 C412 1.378 . S
C415 N416 1.315 . S
C415 H418 0.930 . S
N416 Co396 2.194 . S
N416 C411 1.328 . S
N416 C415 1.315 . S
H417 C411 0.929 . S
H418 C415 0.930 . S
H419 C407 0.929 . S
H420 C409 0.929 . S
O421 Co396 2.351 . S
O421 C424 1.244 . S
O422 Co396 2.155 . S
O422 C424 1.240 . S
O423 Co396 2.096 . S
O423 C404 1.247 . S
C424 O421 1.244 . S
C424 O422 1.240 . S
H425 C399 0.931 . S
H426 C408 0.931 . S
H427 C412 0.929 . S
H428 C414 0.930 . S
Co429 N433 2.148 . S
Co429 N439 2.128 . S
Co429 N449 2.194 . S
Co429 O454 2.351 . S
Co429 O455 2.155 . S
Co429 O456 2.096 . S
C430 N433 1.301 . S
C430 N434 1.328 . S
C430 H435 0.930 . S
C431 C432 1.333 . S
C431 N433 1.317 . S
C431 H436 0.930 . S
C432 C431 1.333 . S
C432 N434 1.350 . S
C432 H458 0.931 . S
N433 Co429 2.148 . S
N433 C430 1.301 . S
N433 C431 1.317 . S
N434 C430 1.328 . S
N434 C432 1.350 . S
H435 C430 0.930 . S
H436 C431 0.930 . S
C437 O438 1.224 . S
C437 O456 1.247 . S
O438 C437 1.224 . S
N439 Co429 2.128 . S
N439 C440 1.355 . S
N439 C442 1.311 . S
C440 N439 1.355 . S
C440 C441 1.363 . S
C440 H452 0.929 . S
C441 C440 1.363 . S
C441 N443 1.375 . S
C441 H459 0.931 . S
C442 N439 1.311 . S
C442 N443 1.347 . S
C442 H453 0.929 . S
N443 C441 1.375 . S
N443 C442 1.347 . S
C444 C447 1.365 . S
C444 N449 1.328 . S
C444 H450 0.929 . S
C445 C446 1.362 . S
C445 C448 1.378 . S
C445 H460 0.929 . S
C446 C445 1.362 . S
C446 C447 1.366 . S
C447 C444 1.365 . S
C447 C446 1.366 . S
C447 H461 0.930 . S
C448 C445 1.378 . S
C448 N449 1.315 . S
C448 H451 0.930 . S
N449 Co429 2.194 . S
N449 C444 1.328 . S
N449 C448 1.315 . S
H450 C444 0.929 . S
H451 C448 0.930 . S
H452 C440 0.929 . S
H453 C442 0.929 . S
O454 Co429 2.351 . S
O454 C457 1.244 . S
O455 Co429 2.155 . S
O455 C457 1.240 . S
O456 Co429 2.096 . S
O456 C437 1.247 . S
C457 O454 1.244 . S
C457 O455 1.240 . S
H458 C432 0.931 . S
H459 C441 0.931 . S
H460 C445 0.929 . S
H461 C447 0.930 . S
Co462 N466 2.148 . S
Co462 N472 2.128 . S
Co462 N482 2.194 . S
Co462 O487 2.351 . S
Co462 O488 2.155 . S
Co462 O489 2.096 . S
C463 N466 1.301 . S
C463 N467 1.328 . S
C463 H468 0.930 . S
C464 C465 1.333 . S
C464 N466 1.317 . S
C464 H469 0.930 . S
C465 C464 1.333 . S
C465 N467 1.350 . S
C465 H491 0.931 . S
N466 Co462 2.148 . S
N466 C463 1.301 . S
N466 C464 1.317 . S
N467 C463 1.328 . S
N467 C465 1.350 . S
H468 C463 0.930 . S
H469 C464 0.930 . S
C470 O471 1.224 . S
C470 O489 1.247 . S
O471 C470 1.224 . S
N472 Co462 2.128 . S
N472 C473 1.355 . S
N472 C475 1.311 . S
C473 N472 1.355 . S
C473 C474 1.363 . S
C473 H485 0.929 . S
C474 C473 1.363 . S
C474 N476 1.375 . S
C474 H492 0.931 . S
C475 N472 1.311 . S
C475 N476 1.347 . S
C475 H486 0.929 . S
N476 C474 1.375 . S
N476 C475 1.347 . S
C477 C480 1.365 . S
C477 N482 1.328 . S
C477 H483 0.929 . S
C478 C479 1.362 . S
C478 C481 1.378 . S
C478 H493 0.929 . S
C479 C478 1.362 . S
C479 C480 1.366 . S
C480 C477 1.365 . S
C480 C479 1.366 . S
C480 H494 0.930 . S
C481 C478 1.378 . S
C481 N482 1.315 . S
C481 H484 0.930 . S
N482 Co462 2.194 . S
N482 C477 1.328 . S
N482 C481 1.315 . S
H483 C477 0.929 . S
H484 C481 0.930 . S
H485 C473 0.929 . S
H486 C475 0.929 . S
O487 Co462 2.351 . S
O487 C490 1.244 . S
O488 Co462 2.155 . S
O488 C490 1.240 . S
O489 Co462 2.096 . S
O489 C470 1.247 . S
C490 O487 1.244 . S
C490 O488 1.240 . S
H491 C465 0.931 . S
H492 C474 0.931 . S
H493 C478 0.929 . S
H494 C480 0.930 . S
Co495 N499 2.148 . S
Co495 N505 2.128 . S
Co495 N515 2.194 . S
Co495 O520 2.351 . S
Co495 O521 2.155 . S
Co495 O522 2.096 . S
C496 N499 1.301 . S
C496 N500 1.328 . S
C496 H501 0.930 . S
C497 C498 1.333 . S
C497 N499 1.317 . S
C497 H502 0.930 . S
C498 C497 1.333 . S
C498 N500 1.350 . S
C498 H524 0.931 . S
N499 Co495 2.148 . S
N499 C496 1.301 . S
N499 C497 1.317 . S
N500 C496 1.328 . S
N500 C498 1.350 . S
H501 C496 0.930 . S
H502 C497 0.930 . S
C503 O504 1.224 . S
C503 O522 1.247 . S
O504 C503 1.224 . S
N505 Co495 2.128 . S
N505 C506 1.355 . S
N505 C508 1.311 . S
C506 N505 1.355 . S
C506 C507 1.363 . S
C506 H518 0.929 . S
C507 C506 1.363 . S
C507 N509 1.375 . S
C507 H525 0.931 . S
C508 N505 1.311 . S
C508 N509 1.347 . S
C508 H519 0.929 . S
N509 C507 1.375 . S
N509 C508 1.347 . S
C510 C513 1.365 . S
C510 N515 1.328 . S
C510 H516 0.929 . S
C511 C512 1.362 . S
C511 C514 1.378 . S
C511 H526 0.929 . S
C512 C511 1.362 . S
C512 C513 1.366 . S
C513 C510 1.365 . S
C513 C512 1.366 . S
C513 H527 0.930 . S
C514 C511 1.378 . S
C514 N515 1.315 . S
C514 H517 0.930 . S
N515 Co495 2.194 . S
N515 C510 1.328 . S
N515 C514 1.315 . S
H516 C510 0.929 . S
H517 C514 0.930 . S
H518 C506 0.929 . S
H519 C508 0.929 . S
O520 Co495 2.351 . S
O520 C523 1.244 . S
O521 Co495 2.155 . S
O521 C523 1.240 . S
O522 Co495 2.096 . S
O522 C503 1.247 . S
C523 O520 1.244 . S
C523 O521 1.240 . S
H524 C498 0.931 . S
H525 C507 0.931 . S
H526 C511 0.929 . S
H527 C513 0.930 . S
Co528 N532 2.148 . S
Co528 N538 2.128 . S
Co528 N548 2.194 . S
Co528 O553 2.351 . S
Co528 O554 2.155 . S
Co528 O555 2.096 . S
C529 N532 1.301 . S
C529 N533 1.328 . S
C529 H534 0.930 . S
C530 C531 1.333 . S
C530 N532 1.317 . S
C530 H535 0.930 . S
C531 C530 1.333 . S
C531 N533 1.350 . S
C531 H557 0.931 . S
N532 Co528 2.148 . S
N532 C529 1.301 . S
N532 C530 1.317 . S
N533 C529 1.328 . S
N533 C531 1.350 . S
H534 C529 0.930 . S
H535 C530 0.930 . S
C536 O537 1.224 . S
C536 O555 1.247 . S
O537 C536 1.224 . S
N538 Co528 2.128 . S
N538 C539 1.355 . S
N538 C541 1.311 . S
C539 N538 1.355 . S
C539 C540 1.363 . S
C539 H551 0.929 . S
C540 C539 1.363 . S
C540 N542 1.375 . S
C540 H558 0.931 . S
C541 N538 1.311 . S
C541 N542 1.347 . S
C541 H552 0.929 . S
N542 C540 1.375 . S
N542 C541 1.347 . S
C543 C546 1.365 . S
C543 N548 1.328 . S
C543 H549 0.929 . S
C544 C545 1.362 . S
C544 C547 1.378 . S
C544 H559 0.929 . S
C545 C544 1.362 . S
C545 C546 1.366 . S
C546 C543 1.365 . S
C546 C545 1.366 . S
C546 H560 0.930 . S
C547 C544 1.378 . S
C547 N548 1.315 . S
C547 H550 0.930 . S
N548 Co528 2.194 . S
N548 C543 1.328 . S
N548 C547 1.315 . S
H549 C543 0.929 . S
H550 C547 0.930 . S
H551 C539 0.929 . S
H552 C541 0.929 . S
O553 Co528 2.351 . S
O553 C556 1.244 . S
O554 Co528 2.155 . S
O554 C556 1.240 . S
O555 Co528 2.096 . S
O555 C536 1.247 . S
C556 O553 1.244 . S
C556 O554 1.240 . S
H557 C531 0.931 . S
H558 C540 0.931 . S
H559 C544 0.929 . S
H560 C546 0.930 . S
Co561 N565 2.148 . S
Co561 N571 2.128 . S
Co561 N581 2.194 . S
Co561 O586 2.351 . S
Co561 O587 2.155 . S
Co561 O588 2.096 . S
C562 N565 1.301 . S
C562 N566 1.328 . S
C562 H567 0.930 . S
C563 C564 1.333 . S
C563 N565 1.317 . S
C563 H568 0.930 . S
C564 C563 1.333 . S
C564 N566 1.350 . S
C564 H590 0.931 . S
N565 Co561 2.148 . S
N565 C562 1.301 . S
N565 C563 1.317 . S
N566 C562 1.328 . S
N566 C564 1.350 . S
H567 C562 0.930 . S
H568 C563 0.930 . S
C569 O570 1.224 . S
C569 O588 1.247 . S
O570 C569 1.224 . S
N571 Co561 2.128 . S
N571 C572 1.355 . S
N571 C574 1.311 . S
C572 N571 1.355 . S
C572 C573 1.363 . S
C572 H584 0.929 . S
C573 C572 1.363 . S
C573 N575 1.375 . S
C573 H591 0.931 . S
C574 N571 1.311 . S
C574 N575 1.347 . S
C574 H585 0.929 . S
N575 C573 1.375 . S
N575 C574 1.347 . S
C576 C579 1.365 . S
C576 N581 1.328 . S
C576 H582 0.929 . S
C577 C578 1.362 . S
C577 C580 1.378 . S
C577 H592 0.929 . S
C578 C577 1.362 . S
C578 C579 1.366 . S
C579 C576 1.365 . S
C579 C578 1.366 . S
C579 H593 0.930 . S
C580 C577 1.378 . S
C580 N581 1.315 . S
C580 H583 0.930 . S
N581 Co561 2.194 . S
N581 C576 1.328 . S
N581 C580 1.315 . S
H582 C576 0.929 . S
H583 C580 0.930 . S
H584 C572 0.929 . S
H585 C574 0.929 . S
O586 Co561 2.351 . S
O586 C589 1.244 . S
O587 Co561 2.155 . S
O587 C589 1.240 . S
O588 Co561 2.096 . S
O588 C569 1.247 . S
C589 O586 1.244 . S
C589 O587 1.240 . S
H590 C564 0.931 . S
H591 C573 0.931 . S
H592 C577 0.929 . S
H593 C579 0.930 . S
Co594 N598 2.148 . S
Co594 N604 2.128 . S
Co594 N614 2.194 . S
Co594 O619 2.351 . S
Co594 O620 2.155 . S
Co594 O621 2.096 . S
C595 N598 1.301 . S
C595 N599 1.328 . S
C595 H600 0.930 . S
C596 C597 1.333 . S
C596 N598 1.317 . S
C596 H601 0.930 . S
C597 C596 1.333 . S
C597 N599 1.350 . S
C597 H623 0.931 . S
N598 Co594 2.148 . S
N598 C595 1.301 . S
N598 C596 1.317 . S
N599 C595 1.328 . S
N599 C597 1.350 . S
H600 C595 0.930 . S
H601 C596 0.930 . S
C602 O603 1.224 . S
C602 O621 1.247 . S
O603 C602 1.224 . S
N604 Co594 2.128 . S
N604 C605 1.355 . S
N604 C607 1.311 . S
C605 N604 1.355 . S
C605 C606 1.363 . S
C605 H617 0.929 . S
C606 C605 1.363 . S
C606 N608 1.375 . S
C606 H624 0.931 . S
C607 N604 1.311 . S
C607 N608 1.347 . S
C607 H618 0.929 . S
N608 C606 1.375 . S
N608 C607 1.347 . S
C609 C612 1.365 . S
C609 N614 1.328 . S
C609 H615 0.929 . S
C610 C611 1.362 . S
C610 C613 1.378 . S
C610 H625 0.929 . S
C611 C610 1.362 . S
C611 C612 1.366 . S
C612 C609 1.365 . S
C612 C611 1.366 . S
C612 H626 0.930 . S
C613 C610 1.378 . S
C613 N614 1.315 . S
C613 H616 0.930 . S
N614 Co594 2.194 . S
N614 C609 1.328 . S
N614 C613 1.315 . S
H615 C609 0.929 . S
H616 C613 0.930 . S
H617 C605 0.929 . S
H618 C607 0.929 . S
O619 Co594 2.351 . S
O619 C622 1.244 . S
O620 Co594 2.155 . S
O620 C622 1.240 . S
O621 Co594 2.096 . S
O621 C602 1.247 . S
C622 O619 1.244 . S
C622 O620 1.240 . S
H623 C597 0.931 . S
H624 C606 0.931 . S
H625 C610 0.929 . S
H626 C612 0.930 . S
Co627 N631 2.148 . S
Co627 N637 2.128 . S
Co627 N647 2.194 . S
Co627 O652 2.351 . S
Co627 O653 2.155 . S
Co627 O654 2.096 . S
C628 N631 1.301 . S
C628 N632 1.328 . S
C628 H633 0.930 . S
C629 C630 1.333 . S
C629 N631 1.317 . S
C629 H634 0.930 . S
C630 C629 1.333 . S
C630 N632 1.350 . S
C630 H656 0.931 . S
N631 Co627 2.148 . S
N631 C628 1.301 . S
N631 C629 1.317 . S
N632 C628 1.328 . S
N632 C630 1.350 . S
H633 C628 0.930 . S
H634 C629 0.930 . S
C635 O636 1.224 . S
C635 O654 1.247 . S
O636 C635 1.224 . S
N637 Co627 2.128 . S
N637 C638 1.355 . S
N637 C640 1.311 . S
C638 N637 1.355 . S
C638 C639 1.363 . S
C638 H650 0.929 . S
C639 C638 1.363 . S
C639 N641 1.375 . S
C639 H657 0.931 . S
C640 N637 1.311 . S
C640 N641 1.347 . S
C640 H651 0.929 . S
N641 C639 1.375 . S
N641 C640 1.347 . S
C642 C645 1.365 . S
C642 N647 1.328 . S
C642 H648 0.929 . S
C643 C644 1.362 . S
C643 C646 1.378 . S
C643 H658 0.929 . S
C644 C643 1.362 . S
C644 C645 1.366 . S
C645 C642 1.365 . S
C645 C644 1.366 . S
C645 H659 0.930 . S
C646 C643 1.378 . S
C646 N647 1.315 . S
C646 H649 0.930 . S
N647 Co627 2.194 . S
N647 C642 1.328 . S
N647 C646 1.315 . S
H648 C642 0.929 . S
H649 C646 0.930 . S
H650 C638 0.929 . S
H651 C640 0.929 . S
O652 Co627 2.351 . S
O652 C655 1.244 . S
O653 Co627 2.155 . S
O653 C655 1.240 . S
O654 Co627 2.096 . S
O654 C635 1.247 . S
C655 O652 1.244 . S
C655 O653 1.240 . S
H656 C630 0.931 . S
H657 C639 0.931 . S
H658 C643 0.929 . S
H659 C645 0.930 . S
Co660 N664 2.148 . S
Co660 N670 2.128 . S
Co660 N680 2.194 . S
Co660 O685 2.351 . S
Co660 O686 2.155 . S
Co660 O687 2.096 . S
C661 N664 1.301 . S
C661 N665 1.328 . S
C661 H666 0.930 . S
C662 C663 1.333 . S
C662 N664 1.317 . S
C662 H667 0.930 . S
C663 C662 1.333 . S
C663 N665 1.350 . S
C663 H689 0.931 . S
N664 Co660 2.148 . S
N664 C661 1.301 . S
N664 C662 1.317 . S
N665 C661 1.328 . S
N665 C663 1.350 . S
H666 C661 0.930 . S
H667 C662 0.930 . S
C668 O669 1.224 . S
C668 O687 1.247 . S
O669 C668 1.224 . S
N670 Co660 2.128 . S
N670 C671 1.355 . S
N670 C673 1.311 . S
C671 N670 1.355 . S
C671 C672 1.363 . S
C671 H683 0.929 . S
C672 C671 1.363 . S
C672 N674 1.375 . S
C672 H690 0.931 . S
C673 N670 1.311 . S
C673 N674 1.347 . S
C673 H684 0.929 . S
N674 C672 1.375 . S
N674 C673 1.347 . S
C675 C678 1.365 . S
C675 N680 1.328 . S
C675 H681 0.929 . S
C676 C677 1.362 . S
C676 C679 1.378 . S
C676 H691 0.929 . S
C677 C676 1.362 . S
C677 C678 1.366 . S
C678 C675 1.365 . S
C678 C677 1.366 . S
C678 H692 0.930 . S
C679 C676 1.378 . S
C679 N680 1.315 . S
C679 H682 0.930 . S
N680 Co660 2.194 . S
N680 C675 1.328 . S
N680 C679 1.315 . S
H681 C675 0.929 . S
H682 C679 0.930 . S
H683 C671 0.929 . S
H684 C673 0.929 . S
O685 Co660 2.351 . S
O685 C688 1.244 . S
O686 Co660 2.155 . S
O686 C688 1.240 . S
O687 Co660 2.096 . S
O687 C668 1.247 . S
C688 O685 1.244 . S
C688 O686 1.240 . S
H689 C663 0.931 . S
H690 C672 0.931 . S
H691 C676 0.929 . S
H692 C678 0.930 . S
Co693 N697 2.148 . S
Co693 N703 2.128 . S
Co693 N713 2.194 . S
Co693 O718 2.351 . S
Co693 O719 2.155 . S
Co693 O720 2.096 . S
C694 N697 1.301 . S
C694 N698 1.328 . S
C694 H699 0.930 . S
C695 C696 1.333 . S
C695 N697 1.317 . S
C695 H700 0.930 . S
C696 C695 1.333 . S
C696 N698 1.350 . S
C696 H722 0.931 . S
N697 Co693 2.148 . S
N697 C694 1.301 . S
N697 C695 1.317 . S
N698 C694 1.328 . S
N698 C696 1.350 . S
H699 C694 0.930 . S
H700 C695 0.930 . S
C701 O702 1.224 . S
C701 O720 1.247 . S
O702 C701 1.224 . S
N703 Co693 2.128 . S
N703 C704 1.355 . S
N703 C706 1.311 . S
C704 N703 1.355 . S
C704 C705 1.363 . S
C704 H716 0.929 . S
C705 C704 1.363 . S
C705 N707 1.375 . S
C705 H723 0.931 . S
C706 N703 1.311 . S
C706 N707 1.347 . S
C706 H717 0.929 . S
N707 C705 1.375 . S
N707 C706 1.347 . S
C708 C711 1.365 . S
C708 N713 1.328 . S
C708 H714 0.929 . S
C709 C710 1.362 . S
C709 C712 1.378 . S
C709 H724 0.929 . S
C710 C709 1.362 . S
C710 C711 1.366 . S
C711 C708 1.365 . S
C711 C710 1.366 . S
C711 H725 0.930 . S
C712 C709 1.378 . S
C712 N713 1.315 . S
C712 H715 0.930 . S
N713 Co693 2.194 . S
N713 C708 1.328 . S
N713 C712 1.315 . S
H714 C708 0.929 . S
H715 C712 0.930 . S
H716 C704 0.929 . S
H717 C706 0.929 . S
O718 Co693 2.351 . S
O718 C721 1.244 . S
O719 Co693 2.155 . S
O719 C721 1.240 . S
O720 Co693 2.096 . S
O720 C701 1.247 . S
C721 O718 1.244 . S
C721 O719 1.240 . S
H722 C696 0.931 . S
H723 C705 0.931 . S
H724 C709 0.929 . S
H725 C711 0.930 . S
Co726 N730 2.148 . S
Co726 N736 2.128 . S
Co726 N746 2.194 . S
Co726 O751 2.351 . S
Co726 O752 2.155 . S
Co726 O753 2.096 . S
C727 N730 1.301 . S
C727 N731 1.328 . S
C727 H732 0.930 . S
C728 C729 1.333 . S
C728 N730 1.317 . S
C728 H733 0.930 . S
C729 C728 1.333 . S
C729 N731 1.350 . S
C729 H755 0.931 . S
N730 Co726 2.148 . S
N730 C727 1.301 . S
N730 C728 1.317 . S
N731 C727 1.328 . S
N731 C729 1.350 . S
H732 C727 0.930 . S
H733 C728 0.930 . S
C734 O735 1.224 . S
C734 O753 1.247 . S
O735 C734 1.224 . S
N736 Co726 2.128 . S
N736 C737 1.355 . S
N736 C739 1.311 . S
C737 N736 1.355 . S
C737 C738 1.363 . S
C737 H749 0.929 . S
C738 C737 1.363 . S
C738 N740 1.375 . S
C738 H756 0.931 . S
C739 N736 1.311 . S
C739 N740 1.347 . S
C739 H750 0.929 . S
N740 C738 1.375 . S
N740 C739 1.347 . S
C741 C744 1.365 . S
C741 N746 1.328 . S
C741 H747 0.929 . S
C742 C743 1.362 . S
C742 C745 1.378 . S
C742 H757 0.929 . S
C743 C742 1.362 . S
C743 C744 1.366 . S
C744 C741 1.365 . S
C744 C743 1.366 . S
C744 H758 0.930 . S
C745 C742 1.378 . S
C745 N746 1.315 . S
C745 H748 0.930 . S
N746 Co726 2.194 . S
N746 C741 1.328 . S
N746 C745 1.315 . S
H747 C741 0.929 . S
H748 C745 0.930 . S
H749 C737 0.929 . S
H750 C739 0.929 . S
O751 Co726 2.351 . S
O751 C754 1.244 . S
O752 Co726 2.155 . S
O752 C754 1.240 . S
O753 Co726 2.096 . S
O753 C734 1.247 . S
C754 O751 1.244 . S
C754 O752 1.240 . S
H755 C729 0.931 . S
H756 C738 0.931 . S
H757 C742 0.929 . S
H758 C744 0.930 . S
Co759 N763 2.148 . S
Co759 N769 2.128 . S
Co759 N779 2.194 . S
Co759 O784 2.351 . S
Co759 O785 2.155 . S
Co759 O786 2.096 . S
C760 N763 1.301 . S
C760 N764 1.328 . S
C760 H765 0.930 . S
C761 C762 1.333 . S
C761 N763 1.317 . S
C761 H766 0.930 . S
C762 C761 1.333 . S
C762 N764 1.350 . S
C762 H788 0.931 . S
N763 Co759 2.148 . S
N763 C760 1.301 . S
N763 C761 1.317 . S
N764 C760 1.328 . S
N764 C762 1.350 . S
H765 C760 0.930 . S
H766 C761 0.930 . S
C767 O768 1.224 . S
C767 O786 1.247 . S
O768 C767 1.224 . S
N769 Co759 2.128 . S
N769 C770 1.355 . S
N769 C772 1.311 . S
C770 N769 1.355 . S
C770 C771 1.363 . S
C770 H782 0.929 . S
C771 C770 1.363 . S
C771 N773 1.375 . S
C771 H789 0.931 . S
C772 N769 1.311 . S
C772 N773 1.347 . S
C772 H783 0.929 . S
N773 C771 1.375 . S
N773 C772 1.347 . S
C774 C777 1.365 . S
C774 N779 1.328 . S
C774 H780 0.929 . S
C775 C776 1.362 . S
C775 C778 1.378 . S
C775 H790 0.929 . S
C776 C775 1.362 . S
C776 C777 1.366 . S
C777 C774 1.365 . S
C777 C776 1.366 . S
C777 H791 0.930 . S
C778 C775 1.378 . S
C778 N779 1.315 . S
C778 H781 0.930 . S
N779 Co759 2.194 . S
N779 C774 1.328 . S
N779 C778 1.315 . S
H780 C774 0.929 . S
H781 C778 0.930 . S
H782 C770 0.929 . S
H783 C772 0.929 . S
O784 Co759 2.351 . S
O784 C787 1.244 . S
O785 Co759 2.155 . S
O785 C787 1.240 . S
O786 Co759 2.096 . S
O786 C767 1.247 . S
C787 O784 1.244 . S
C787 O785 1.240 . S
H788 C762 0.931 . S
H789 C771 0.931 . S
H790 C775 0.929 . S
H791 C777 0.930 . S
C792 C793 1.387 . S
C792 H796 0.950 . S
C792 C801 1.390 1_545 S
C793 C792 1.387 . S
C793 C795 1.387 . S
H794 C801 0.950 . S
C795 C793 1.387 . S
C795 C797 1.390 1_545 S
C795 H799 0.950 . S
H796 C792 0.950 . S
C797 C795 1.390 1_565 S
C797 C798 1.387 . S
C797 H800 0.950 . S
C798 C797 1.387 . S
C798 C801 1.387 . S
H799 C795 0.950 . S
H800 C797 0.950 . S
C801 C792 1.390 1_565 S
C801 H794 0.950 . S
C801 C798 1.387 . S
C802 C803 1.387 . S
C802 H806 0.950 . S
C802 C811 1.390 . S
C803 C802 1.387 . S
C803 C805 1.387 . S
H804 C811 0.950 . S
C805 C803 1.387 . S
C805 C807 1.390 . S
C805 H809 0.950 . S
H806 C802 0.950 . S
C807 C805 1.390 . S
C807 C808 1.387 . S
C807 H810 0.950 . S
C808 C807 1.387 . S
C808 C811 1.387 . S
H809 C805 0.950 . S
H810 C807 0.950 . S
C811 C802 1.390 . S
C811 H804 0.950 . S
C811 C808 1.387 . S
C812 C813 1.387 . S
C812 H816 0.950 . S
C812 C821 1.390 1_455 S
C813 C812 1.387 . S
C813 C815 1.387 . S
H814 C821 0.950 . S
C815 C813 1.387 . S
C815 C817 1.390 1_455 S
C815 H819 0.950 . S
H816 C812 0.950 . S
C817 C815 1.390 1_655 S
C817 C818 1.387 . S
C817 H820 0.950 . S
C818 C817 1.387 . S
C818 C821 1.387 . S
H819 C815 0.950 . S
H820 C817 0.950 . S
C821 C812 1.390 1_655 S
C821 H814 0.950 . S
C821 C818 1.387 . S
C822 C823 1.387 . S
C822 H826 0.950 . S
C822 C831 1.390 1_455 S
C823 C822 1.387 . S
C823 C825 1.387 . S
H824 C831 0.950 . S
C825 C823 1.387 . S
C825 C827 1.390 1_455 S
C825 H829 0.950 . S
H826 C822 0.950 . S
C827 C825 1.390 1_655 S
C827 C828 1.387 . S
C827 H830 0.950 . S
C828 C827 1.387 . S
C828 C831 1.387 . S
H829 C825 0.950 . S
H830 C827 0.950 . S
C831 C822 1.390 1_655 S
C831 H824 0.950 . S
C831 C828 1.387 . S
C832 C833 1.387 . S
C832 H836 0.950 . S
C832 C841 1.390 1_565 S
C833 C832 1.387 . S
C833 C835 1.387 . S
H834 C841 0.950 . S
C835 C833 1.387 . S
C835 C837 1.390 1_565 S
C835 H839 0.950 . S
H836 C832 0.950 . S
C837 C835 1.390 1_545 S
C837 C838 1.387 . S
C837 H840 0.950 . S
C838 C837 1.387 . S
C838 C841 1.387 . S
H839 C835 0.950 . S
H840 C837 0.950 . S
C841 C832 1.390 1_545 S
C841 H834 0.950 . S
C841 C838 1.387 . S
C842 C843 1.387 . S
C842 H846 0.950 . S
C842 C851 1.390 . S
C843 C842 1.387 . S
C843 C845 1.387 . S
H844 C851 0.950 . S
C845 C843 1.387 . S
C845 C847 1.390 . S
C845 H849 0.950 . S
H846 C842 0.950 . S
C847 C845 1.390 . S
C847 C848 1.387 . S
C847 H850 0.950 . S
C848 C847 1.387 . S
C848 C851 1.387 . S
H849 C845 0.950 . S
H850 C847 0.950 . S
C851 C842 1.390 . S
C851 H844 0.950 . S
C851 C848 1.387 . S
C852 C853 1.387 . S
C852 H856 0.950 . S
C852 C861 1.390 1_545 S
C853 C852 1.387 . S
C853 C855 1.387 . S
H854 C861 0.950 . S
C855 C853 1.387 . S
C855 C857 1.390 1_545 S
C855 H859 0.950 . S
H856 C852 0.950 . S
C857 C855 1.390 1_565 S
C857 C858 1.387 . S
C857 H860 0.950 . S
C858 C857 1.387 . S
C858 C861 1.387 . S
H859 C855 0.950 . S
H860 C857 0.950 . S
C861 C852 1.390 1_565 S
C861 H854 0.950 . S
C861 C858 1.387 . S
C862 C863 1.387 . S
C862 H866 0.950 . S
C862 C871 1.390 . S
C863 C862 1.387 . S
C863 C865 1.387 . S
H864 C871 0.950 . S
C865 C863 1.387 . S
C865 C867 1.390 . S
C865 H869 0.950 . S
H866 C862 0.950 . S
C867 C865 1.390 . S
C867 C868 1.387 . S
C867 H870 0.950 . S
C868 C867 1.387 . S
C868 C871 1.387 . S
H869 C865 0.950 . S
H870 C867 0.950 . S
C871 C862 1.390 . S
C871 H864 0.950 . S
C871 C868 1.387 . S
C872 C873 1.387 . S
C872 H876 0.950 . S
C872 C881 1.390 1_655 S
C873 C872 1.387 . S
C873 C875 1.387 . S
H874 C881 0.950 . S
C875 C873 1.387 . S
C875 C877 1.390 1_655 S
C875 H879 0.950 . S
H876 C872 0.950 . S
C877 C875 1.390 1_455 S
C877 C878 1.387 . S
C877 H880 0.950 . S
C878 C877 1.387 . S
C878 C881 1.387 . S
H879 C875 0.950 . S
H880 C877 0.950 . S
C881 C872 1.390 1_455 S
C881 H874 0.950 . S
C881 C878 1.387 . S
C882 C883 1.387 . S
C882 H886 0.950 . S
C882 C891 1.390 1_655 S
C883 C882 1.387 . S
C883 C885 1.387 . S
H884 C891 0.950 . S
C885 C883 1.387 . S
C885 C887 1.390 1_655 S
C885 H889 0.950 . S
H886 C882 0.950 . S
C887 C885 1.390 1_455 S
C887 C888 1.387 . S
C887 H890 0.950 . S
C888 C887 1.387 . S
C888 C891 1.387 . S
H889 C885 0.950 . S
H890 C887 0.950 . S
C891 C882 1.390 1_455 S
C891 H884 0.950 . S
C891 C888 1.387 . S
C892 C893 1.387 . S
C892 H896 0.950 . S
C892 C901 1.390 1_545 S
C893 C892 1.387 . S
C893 C895 1.387 . S
H894 C901 0.950 . S
C895 C893 1.387 . S
C895 C897 1.390 1_545 S
C895 H899 0.950 . S
H896 C892 0.950 . S
C897 C895 1.390 1_565 S
C897 C898 1.387 . S
C897 H900 0.950 . S
C898 C897 1.387 . S
C898 C901 1.387 . S
H899 C895 0.950 . S
H900 C897 0.950 . S
C901 C892 1.390 1_565 S
C901 H894 0.950 . S
C901 C898 1.387 . S
C902 C903 1.387 . S
C902 H906 0.950 . S
C902 C911 1.390 . S
C903 C902 1.387 . S
C903 C905 1.387 . S
H904 C911 0.950 . S
C905 C903 1.387 . S
C905 C907 1.390 . S
C905 H909 0.950 . S
H906 C902 0.950 . S
C907 C905 1.390 . S
C907 C908 1.387 . S
C907 H910 0.950 . S
C908 C907 1.387 . S
C908 C911 1.387 . S
H909 C905 0.950 . S
H910 C907 0.950 . S
C911 C902 1.390 . S
C911 H904 0.950 . S
C911 C908 1.387 . S
C912 C913 1.387 . S
C912 H916 0.950 . S
C912 C921 1.390 . S
C913 C912 1.387 . S
C913 C915 1.387 . S
H914 C921 0.950 . S
C915 C913 1.387 . S
C915 C917 1.390 . S
C915 H919 0.950 . S
H916 C912 0.950 . S
C917 C915 1.390 . S
C917 C918 1.387 . S
C917 H920 0.950 . S
C918 C917 1.387 . S
C918 C921 1.387 . S
H919 C915 0.950 . S
H920 C917 0.950 . S
C921 C912 1.390 . S
C921 H914 0.950 . S
C921 C918 1.387 . S
C922 C923 1.387 . S
C922 H926 0.950 . S
C922 C931 1.390 . S
C923 C922 1.387 . S
C923 C925 1.387 . S
H924 C931 0.950 . S
C925 C923 1.387 . S
C925 C927 1.390 . S
C925 H929 0.950 . S
H926 C922 0.950 . S
C927 C925 1.390 . S
C927 C928 1.387 . S
C927 H930 0.950 . S
C928 C927 1.387 . S
C928 C931 1.387 . S
H929 C925 0.950 . S
H930 C927 0.950 . S
C931 C922 1.390 . S
C931 H924 0.950 . S
C931 C928 1.387 . S
C932 C933 1.387 . S
C932 H936 0.950 . S
C932 C941 1.390 . S
C933 C932 1.387 . S
C933 C935 1.387 . S
H934 C941 0.950 . S
C935 C933 1.387 . S
C935 C937 1.390 . S
C935 H939 0.950 . S
H936 C932 0.950 . S
C937 C935 1.390 . S
C937 C938 1.387 . S
C937 H940 0.950 . S
C938 C937 1.387 . S
C938 C941 1.387 . S
H939 C935 0.950 . S
H940 C937 0.950 . S
C941 C932 1.390 . S
C941 H934 0.950 . S
C941 C938 1.387 . S
C942 C943 1.387 . S
C942 H946 0.950 . S
C942 C951 1.390 . S
C943 C942 1.387 . S
C943 C945 1.387 . S
H944 C951 0.950 . S
C945 C943 1.387 . S
C945 C947 1.390 . S
C945 H949 0.950 . S
H946 C942 0.950 . S
C947 C945 1.390 . S
C947 C948 1.387 . S
C947 H950 0.950 . S
C948 C947 1.387 . S
C948 C951 1.387 . S
H949 C945 0.950 . S
H950 C947 0.950 . S
C951 C942 1.390 . S
C951 H944 0.950 . S
C951 C948 1.387 . S
C952 C953 1.387 . S
C952 H956 0.950 . S
C952 C961 1.390 . S
C953 C952 1.387 . S
C953 C955 1.387 . S
H954 C961 0.950 . S
C955 C953 1.387 . S
C955 C957 1.390 . S
C955 H959 0.950 . S
H956 C952 0.950 . S
C957 C955 1.390 . S
C957 C958 1.387 . S
C957 H960 0.950 . S
C958 C957 1.387 . S
C958 C961 1.387 . S
H959 C955 0.950 . S
H960 C957 0.950 . S
C961 C952 1.390 . S
C961 H954 0.950 . S
C961 C958 1.387 . S
C962 C963 1.387 . S
C962 H966 0.950 . S
C962 C971 1.390 . S
C963 C962 1.387 . S
C963 C965 1.387 . S
H964 C971 0.950 . S
C965 C963 1.387 . S
C965 C967 1.390 . S
C965 H969 0.950 . S
H966 C962 0.950 . S
C967 C965 1.390 . S
C967 C968 1.387 . S
C967 H970 0.950 . S
C968 C967 1.387 . S
C968 C971 1.387 . S
H969 C965 0.950 . S
H970 C967 0.950 . S
C971 C962 1.390 . S
C971 H964 0.950 . S
C971 C968 1.387 . S
C972 C973 1.387 . S
C972 H976 0.950 . S
C972 C981 1.390 . S
C973 C972 1.387 . S
C973 C975 1.387 . S
H974 C981 0.950 . S
C975 C973 1.387 . S
C975 C977 1.390 . S
C975 H979 0.950 . S
H976 C972 0.950 . S
C977 C975 1.390 . S
C977 C978 1.387 . S
C977 H980 0.950 . S
C978 C977 1.387 . S
C978 C981 1.387 . S
H979 C975 0.950 . S
H980 C977 0.950 . S
C981 C972 1.390 . S
C981 H974 0.950 . S
C981 C978 1.387 . S
C982 C983 1.387 . S
C982 H986 0.950 . S
C982 C991 1.390 . S
C983 C982 1.387 . S
C983 C985 1.387 . S
H984 C991 0.950 . S
C985 C983 1.387 . S
C985 C987 1.390 . S
C985 H989 0.950 . S
H986 C982 0.950 . S
C987 C985 1.390 . S
C987 C988 1.387 . S
C987 H990 0.950 . S
C988 C987 1.387 . S
C988 C991 1.387 . S
H989 C985 0.950 . S
H990 C987 0.950 . S
C991 C982 1.390 . S
C991 H984 0.950 . S
C991 C988 1.387 . S
C992 C993 1.387 . S
C992 H996 0.950 . S
C992 C1001 1.390 . S
C993 C992 1.387 . S
C993 C995 1.387 . S
H994 C1001 0.950 . S
C995 C993 1.387 . S
C995 C997 1.390 . S
C995 H999 0.950 . S
H996 C992 0.950 . S
C997 C995 1.390 . S
C997 C998 1.387 . S
C997 H1000 0.950 . S
C998 C997 1.387 . S
C998 C1001 1.387 . S
H999 C995 0.950 . S
H1000 C997 0.950 . S
C1001 C992 1.390 . S
C1001 H994 0.950 . S
C1001 C998 1.387 . S
C1002 C1003 1.387 . S
C1002 H1006 0.950 . S
C1002 C1011 1.390 . S
C1003 C1002 1.387 . S
C1003 C1005 1.387 . S
H1004 C1011 0.950 . S
C1005 C1003 1.387 . S
C1005 C1007 1.390 . S
C1005 H1009 0.950 . S
H1006 C1002 0.950 . S
C1007 C1005 1.390 . S
C1007 C1008 1.387 . S
C1007 H1010 0.950 . S
C1008 C1007 1.387 . S
C1008 C1011 1.387 . S
H1009 C1005 0.950 . S
H1010 C1007 0.950 . S
C1011 C1002 1.390 . S
C1011 H1004 0.950 . S
C1011 C1008 1.387 . S
C1012 C1013 1.387 . S
C1012 H1016 0.950 . S
C1012 C1021 1.390 . S
C1013 C1012 1.387 . S
C1013 C1015 1.387 . S
H1014 C1021 0.950 . S
C1015 C1013 1.387 . S
C1015 C1017 1.390 . S
C1015 H1019 0.950 . S
H1016 C1012 0.950 . S
C1017 C1015 1.390 . S
C1017 C1018 1.387 . S
C1017 H1020 0.950 . S
C1018 C1017 1.387 . S
C1018 C1021 1.387 . S
H1019 C1015 0.950 . S
H1020 C1017 0.950 . S
C1021 C1012 1.390 . S
C1021 H1014 0.950 . S
C1021 C1018 1.387 . S
C1022 C1023 1.387 . S
C1022 H1026 0.950 . S
C1022 C1031 1.390 . S
C1023 C1022 1.387 . S
C1023 C1025 1.387 . S
H1024 C1031 0.950 . S
C1025 C1023 1.387 . S
C1025 C1027 1.390 . S
C1025 H1029 0.950 . S
H1026 C1022 0.950 . S
C1027 C1025 1.390 . S
C1027 C1028 1.387 . S
C1027 H1030 0.950 . S
C1028 C1027 1.387 . S
C1028 C1031 1.387 . S
H1029 C1025 0.950 . S
H1030 C1027 0.950 . S
C1031 C1022 1.390 . S
C1031 H1024 0.950 . S
C1031 C1028 1.387 . S
C1032 C1033 1.387 . S
C1032 H1036 0.950 . S
C1032 C1041 1.390 1_545 S
C1033 C1032 1.387 . S
C1033 C1035 1.387 . S
H1034 C1041 0.950 . S
C1035 C1033 1.387 . S
C1035 C1037 1.390 1_545 S
C1035 H1039 0.950 . S
H1036 C1032 0.950 . S
C1037 C1035 1.390 1_565 S
C1037 C1038 1.387 . S
C1037 H1040 0.950 . S
C1038 C1037 1.387 . S
C1038 C1041 1.387 . S
H1039 C1035 0.950 . S
H1040 C1037 0.950 . S
C1041 C1032 1.390 1_565 S
C1041 H1034 0.950 . S
C1041 C1038 1.387 . S
C1042 C1043 1.387 . S
C1042 H1046 0.950 . S
C1042 C1051 1.390 . S
C1043 C1042 1.387 . S
C1043 C1045 1.387 . S
H1044 C1051 0.950 . S
C1045 C1043 1.387 . S
C1045 C1047 1.390 . S
C1045 H1049 0.950 . S
H1046 C1042 0.950 . S
C1047 C1045 1.390 . S
C1047 C1048 1.387 . S
C1047 H1050 0.950 . S
C1048 C1047 1.387 . S
C1048 C1051 1.387 . S
H1049 C1045 0.950 . S
H1050 C1047 0.950 . S
C1051 C1042 1.390 . S
C1051 H1044 0.950 . S
C1051 C1048 1.387 . S
C1052 C1053 1.410 . S
C1052 H1056 0.958 . S
C1052 C1061 1.360 1_455 S
C1053 C1052 1.410 . S
C1053 C1055 1.387 . S
H1054 C1061 0.950 . S
C1055 C1053 1.387 . S
C1055 C1057 1.360 1_455 S
C1055 H1059 0.950 . S
H1056 C1052 0.958 . S
C1057 C1055 1.360 1_655 S
C1057 C1058 1.410 . S
C1057 H1060 0.958 . S
C1058 C1057 1.410 . S
C1058 C1061 1.387 . S
H1059 C1055 0.950 . S
H1060 C1057 0.958 . S
C1061 C1052 1.360 1_655 S
C1061 H1054 0.950 . S
C1061 C1058 1.387 . S
C1062 C1063 1.387 . S
C1062 H1066 0.950 . S
C1062 C1071 1.390 1_565 S
C1063 C1062 1.387 . S
C1063 C1065 1.387 . S
H1064 C1071 0.950 . S
C1065 C1063 1.387 . S
C1065 C1067 1.390 1_565 S
C1065 H1069 0.950 . S
H1066 C1062 0.950 . S
C1067 C1065 1.390 1_545 S
C1067 C1068 1.387 . S
C1067 H1070 0.950 . S
C1068 C1067 1.387 . S
C1068 C1071 1.387 . S
H1069 C1065 0.950 . S
H1070 C1067 0.950 . S
C1071 C1062 1.390 1_545 S
C1071 H1064 0.950 . S
C1071 C1068 1.387 . S
C1072 C1073 1.387 . S
C1072 H1076 0.950 . S
C1072 C1081 1.390 . S
C1073 C1072 1.387 . S
C1073 C1075 1.387 . S
H1074 C1081 0.950 . S
C1075 C1073 1.387 . S
C1075 C1077 1.390 . S
C1075 H1079 0.950 . S
H1076 C1072 0.950 . S
C1077 C1075 1.390 . S
C1077 C1078 1.387 . S
C1077 H1080 0.950 . S
C1078 C1077 1.387 . S
C1078 C1081 1.387 . S
H1079 C1075 0.950 . S
H1080 C1077 0.950 . S
C1081 C1072 1.390 . S
C1081 H1074 0.950 . S
C1081 C1078 1.387 . S
C1082 C1083 1.387 1_455 S
C1082 H1086 0.950 . S
C1082 C1091 1.391 . S
C1083 C1082 1.387 1_655 S
C1083 C1085 1.387 . S
H1084 C1091 0.950 . S
C1085 C1083 1.387 . S
C1085 C1087 1.391 . S
C1085 H1089 0.950 . S
H1086 C1082 0.950 . S
C1087 C1085 1.391 . S
C1087 C1088 1.387 1_655 S
C1087 H1090 0.950 . S
C1088 C1087 1.387 1_455 S
C1088 C1091 1.387 . S
H1089 C1085 0.950 . S
H1090 C1087 0.950 . S
C1091 C1082 1.391 . S
C1091 H1084 0.950 . S
C1091 C1088 1.387 . S
C1092 C1093 1.387 . S
C1092 H1096 0.950 . S
C1092 C1101 1.390 1_565 S
C1093 C1092 1.387 . S
C1093 C1095 1.387 . S
H1094 C1101 0.950 . S
C1095 C1093 1.387 . S
C1095 C1097 1.390 1_565 S
C1095 H1099 0.950 . S
H1096 C1092 0.950 . S
C1097 C1095 1.390 1_545 S
C1097 C1098 1.387 . S
C1097 H1100 0.950 . S
C1098 C1097 1.387 . S
C1098 C1101 1.387 . S
H1099 C1095 0.950 . S
H1100 C1097 0.950 . S
C1101 C1092 1.390 1_545 S
C1101 H1094 0.950 . S
C1101 C1098 1.387 . S
C1102 C1103 1.387 . S
C1102 H1106 0.950 . S
C1102 C1111 1.390 . S
C1103 C1102 1.387 . S
C1103 C1105 1.387 . S
H1104 C1111 0.950 . S
C1105 C1103 1.387 . S
C1105 C1107 1.390 . S
C1105 H1109 0.950 . S
H1106 C1102 0.950 . S
C1107 C1105 1.390 . S
C1107 C1108 1.387 . S
C1107 H1110 0.950 . S
C1108 C1107 1.387 . S
C1108 C1111 1.387 . S
H1109 C1105 0.950 . S
H1110 C1107 0.950 . S
C1111 C1102 1.390 . S
C1111 H1104 0.950 . S
C1111 C1108 1.387 . S
C1112 C1113 1.387 . S
C1112 H1116 0.950 . S
C1112 C1121 1.390 1_455 S
C1113 C1112 1.387 . S
C1113 C1115 1.387 . S
H1114 C1121 0.950 . S
C1115 C1113 1.387 . S
C1115 C1117 1.390 1_455 S
C1115 H1119 0.950 . S
H1116 C1112 0.950 . S
C1117 C1115 1.390 1_655 S
C1117 C1118 1.387 . S
C1117 H1120 0.950 . S
C1118 C1117 1.387 . S
C1118 C1121 1.387 . S
H1119 C1115 0.950 . S
H1120 C1117 0.950 . S
C1121 C1112 1.390 1_655 S
C1121 H1114 0.950 . S
C1121 C1118 1.387 . S
C1122 C1123 1.387 . S
C1122 H1126 0.950 . S
C1122 C1131 1.390 1_545 S
C1123 C1122 1.387 . S
C1123 C1125 1.387 . S
H1124 C1131 0.950 . S
C1125 C1123 1.387 . S
C1125 C1127 1.390 1_545 S
C1125 H1129 0.950 . S
H1126 C1122 0.950 . S
C1127 C1125 1.390 1_565 S
C1127 C1128 1.387 . S
C1127 H1130 0.950 . S
C1128 C1127 1.387 . S
C1128 C1131 1.387 . S
H1129 C1125 0.950 . S
H1130 C1127 0.950 . S
C1131 C1122 1.390 1_565 S
C1131 H1124 0.950 . S
C1131 C1128 1.387 . S
C1132 C1133 1.387 . S
C1132 H1136 0.950 . S
C1132 C1141 1.390 . S
C1133 C1132 1.387 . S
C1133 C1135 1.387 . S
H1134 C1141 0.950 . S
C1135 C1133 1.387 . S
C1135 C1137 1.390 . S
C1135 H1139 0.950 . S
H1136 C1132 0.950 . S
C1137 C1135 1.390 . S
C1137 C1138 1.387 . S
C1137 H1140 0.950 . S
C1138 C1137 1.387 . S
C1138 C1141 1.387 . S
H1139 C1135 0.950 . S
H1140 C1137 0.950 . S
C1141 C1132 1.390 . S
C1141 H1134 0.950 . S
C1141 C1138 1.387 . S
C1142 C1143 1.387 . S
C1142 H1146 0.950 . S
C1142 C1151 1.390 1_455 S
C1143 C1142 1.387 . S
C1143 C1145 1.387 . S
H1144 C1151 0.950 . S
C1145 C1143 1.387 . S
C1145 C1147 1.390 1_455 S
C1145 H1149 0.950 . S
H1146 C1142 0.950 . S
C1147 C1145 1.390 1_655 S
C1147 C1148 1.387 . S
C1147 H1150 0.950 . S
C1148 C1147 1.387 . S
C1148 C1151 1.387 . S
H1149 C1145 0.950 . S
H1150 C1147 0.950 . S
C1151 C1142 1.390 1_655 S
C1151 H1144 0.950 . S
C1151 C1148 1.387 . S
C1152 C1153 1.387 . S
C1152 H1156 0.950 . S
C1152 C1161 1.390 . S
C1153 C1152 1.387 . S
C1153 C1155 1.387 . S
H1154 C1161 0.950 . S
C1155 C1153 1.387 . S
C1155 C1157 1.390 . S
C1155 H1159 0.950 . S
H1156 C1152 0.950 . S
C1157 C1155 1.390 . S
C1157 C1158 1.387 . S
C1157 H1160 0.950 . S
C1158 C1157 1.387 . S
C1158 C1161 1.387 . S
H1159 C1155 0.950 . S
H1160 C1157 0.950 . S
C1161 C1152 1.390 . S
C1161 H1154 0.950 . S
C1161 C1158 1.387 . S
C1162 C1163 1.387 . S
C1162 H1166 0.950 . S
C1162 C1171 1.390 . S
C1163 C1162 1.387 . S
C1163 C1165 1.387 . S
H1164 C1171 0.950 . S
C1165 C1163 1.387 . S
C1165 C1167 1.390 . S
C1165 H1169 0.950 . S
H1166 C1162 0.950 . S
C1167 C1165 1.390 . S
C1167 C1168 1.387 . S
C1167 H1170 0.950 . S
C1168 C1167 1.387 . S
C1168 C1171 1.387 . S
H1169 C1165 0.950 . S
H1170 C1167 0.950 . S
C1171 C1162 1.390 . S
C1171 H1164 0.950 . S
C1171 C1168 1.387 . S
C1172 C1173 1.387 . S
C1172 H1176 0.950 . S
C1172 C1181 1.390 . S
C1173 C1172 1.387 . S
C1173 C1175 1.387 . S
H1174 C1181 0.950 . S
C1175 C1173 1.387 . S
C1175 C1177 1.390 . S
C1175 H1179 0.950 . S
H1176 C1172 0.950 . S
C1177 C1175 1.390 . S
C1177 C1178 1.387 . S
C1177 H1180 0.950 . S
C1178 C1177 1.387 . S
C1178 C1181 1.387 . S
H1179 C1175 0.950 . S
H1180 C1177 0.950 . S
C1181 C1172 1.390 . S
C1181 H1174 0.950 . S
C1181 C1178 1.387 . S
C1182 C1183 1.387 . S
C1182 H1186 0.950 . S
C1182 C1191 1.390 . S
C1183 C1182 1.387 . S
C1183 C1185 1.387 . S
H1184 C1191 0.950 . S
C1185 C1183 1.387 . S
C1185 C1187 1.390 . S
C1185 H1189 0.950 . S
H1186 C1182 0.950 . S
C1187 C1185 1.390 . S
C1187 C1188 1.387 . S
C1187 H1190 0.950 . S
C1188 C1187 1.387 . S
C1188 C1191 1.387 . S
H1189 C1185 0.950 . S
H1190 C1187 0.950 . S
C1191 C1182 1.390 . S
C1191 H1184 0.950 . S
C1191 C1188 1.387 . S
C1192 C1193 1.387 . S
C1192 H1196 0.950 . S
C1192 C1201 1.390 . S
C1193 C1192 1.387 . S
C1193 C1195 1.387 . S
H1194 C1201 0.950 . S
C1195 C1193 1.387 . S
C1195 C1197 1.390 . S
C1195 H1199 0.950 . S
H1196 C1192 0.950 . S
C1197 C1195 1.390 . S
C1197 C1198 1.387 . S
C1197 H1200 0.950 . S
C1198 C1197 1.387 . S
C1198 C1201 1.387 . S
H1199 C1195 0.950 . S
H1200 C1197 0.950 . S
C1201 C1192 1.390 . S
C1201 H1194 0.950 . S
C1201 C1198 1.387 . S
C1202 C1203 1.387 . S
C1202 H1206 0.950 . S
C1202 C1211 1.390 . S
C1203 C1202 1.387 . S
C1203 C1205 1.387 . S
H1204 C1211 0.950 . S
C1205 C1203 1.387 . S
C1205 C1207 1.390 . S
C1205 H1209 0.950 . S
H1206 C1202 0.950 . S
C1207 C1205 1.390 . S
C1207 C1208 1.387 . S
C1207 H1210 0.950 . S
C1208 C1207 1.387 . S
C1208 C1211 1.387 . S
H1209 C1205 0.950 . S
H1210 C1207 0.950 . S
C1211 C1202 1.390 . S
C1211 H1204 0.950 . S
C1211 C1208 1.387 . S
C1212 C1213 1.387 . S
C1212 H1216 0.950 . S
C1212 C1221 1.390 . S
C1213 C1212 1.387 . S
C1213 C1215 1.387 . S
H1214 C1221 0.950 . S
C1215 C1213 1.387 . S
C1215 C1217 1.390 . S
C1215 H1219 0.950 . S
H1216 C1212 0.950 . S
C1217 C1215 1.390 . S
C1217 C1218 1.387 . S
C1217 H1220 0.950 . S
C1218 C1217 1.387 . S
C1218 C1221 1.387 . S
H1219 C1215 0.950 . S
H1220 C1217 0.950 . S
C1221 C1212 1.390 . S
C1221 H1214 0.950 . S
C1221 C1218 1.387 . S
C1222 C1223 1.387 . S
C1222 H1226 0.950 . S
C1222 C1231 1.390 . S
C1223 C1222 1.387 . S
C1223 C1225 1.387 . S
H1224 C1231 0.950 . S
C1225 C1223 1.387 . S
C1225 C1227 1.390 . S
C1225 H1229 0.950 . S
H1226 C1222 0.950 . S
C1227 C1225 1.390 . S
C1227 C1228 1.387 . S
C1227 H1230 0.950 . S
C1228 C1227 1.387 . S
C1228 C1231 1.387 . S
H1229 C1225 0.950 . S
H1230 C1227 0.950 . S
C1231 C1222 1.390 . S
C1231 H1224 0.950 . S
C1231 C1228 1.387 . S
C1232 C1233 1.387 . S
C1232 H1236 0.950 . S
C1232 C1241 1.390 . S
C1233 C1232 1.387 . S
C1233 C1235 1.387 . S
H1234 C1241 0.950 . S
C1235 C1233 1.387 . S
C1235 C1237 1.390 . S
C1235 H1239 0.950 . S
H1236 C1232 0.950 . S
C1237 C1235 1.390 . S
C1237 C1238 1.387 . S
C1237 H1240 0.950 . S
C1238 C1237 1.387 . S
C1238 C1241 1.387 . S
H1239 C1235 0.950 . S
H1240 C1237 0.950 . S
C1241 C1232 1.390 . S
C1241 H1234 0.950 . S
C1241 C1238 1.387 . S
C1242 C1243 1.387 . S
C1242 H1246 0.950 . S
C1242 C1251 1.390 . S
C1243 C1242 1.387 . S
C1243 C1245 1.387 . S
H1244 C1251 0.950 . S
C1245 C1243 1.387 . S
C1245 C1247 1.390 . S
C1245 H1249 0.950 . S
H1246 C1242 0.950 . S
C1247 C1245 1.390 . S
C1247 C1248 1.387 . S
C1247 H1250 0.950 . S
C1248 C1247 1.387 . S
C1248 C1251 1.387 . S
H1249 C1245 0.950 . S
H1250 C1247 0.950 . S
C1251 C1242 1.390 . S
C1251 H1244 0.950 . S
C1251 C1248 1.387 . S
C1252 C1253 1.387 . S
C1252 H1256 0.950 . S
C1252 C1261 1.390 . S
C1253 C1252 1.387 . S
C1253 C1255 1.387 . S
H1254 C1261 0.950 . S
C1255 C1253 1.387 . S
C1255 C1257 1.390 . S
C1255 H1259 0.950 . S
H1256 C1252 0.950 . S
C1257 C1255 1.390 . S
C1257 C1258 1.387 . S
C1257 H1260 0.950 . S
C1258 C1257 1.387 . S
C1258 C1261 1.387 . S
H1259 C1255 0.950 . S
H1260 C1257 0.950 . S
C1261 C1252 1.390 . S
C1261 H1254 0.950 . S
C1261 C1258 1.387 . S
C1262 C1263 1.387 . S
C1262 H1266 0.950 . S
C1262 C1271 1.390 . S
C1263 C1262 1.387 . S
C1263 C1265 1.387 . S
H1264 C1271 0.950 . S
C1265 C1263 1.387 . S
C1265 C1267 1.390 . S
C1265 H1269 0.950 . S
H1266 C1262 0.950 . S
C1267 C1265 1.390 . S
C1267 C1268 1.387 . S
C1267 H1270 0.950 . S
C1268 C1267 1.387 . S
C1268 C1271 1.387 . S
H1269 C1265 0.950 . S
H1270 C1267 0.950 . S
C1271 C1262 1.390 . S
C1271 H1264 0.950 . S
C1271 C1268 1.387 . S
C1272 C1273 1.387 . S
C1272 H1276 0.950 . S
C1272 C1281 1.390 1_554 S
C1273 C1272 1.387 . S
C1273 C1275 1.387 . S
H1274 C1281 0.950 . S
C1275 C1273 1.387 . S
C1275 C1277 1.390 1_554 S
C1275 H1279 0.950 . S
H1276 C1272 0.950 . S
C1277 C1275 1.390 1_556 S
C1277 C1278 1.387 . S
C1277 H1280 0.950 . S
C1278 C1277 1.387 . S
C1278 C1281 1.387 . S
H1279 C1275 0.950 . S
H1280 C1277 0.950 . S
C1281 C1272 1.390 1_556 S
C1281 H1274 0.950 . S
C1281 C1278 1.387 . S
C1282 C1283 1.387 . S
C1282 H1286 0.950 . S
C1282 C1291 1.390 1_554 S
C1283 C1282 1.387 . S
C1283 C1285 1.387 . S
H1284 C1291 0.950 . S
C1285 C1283 1.387 . S
C1285 C1287 1.390 1_554 S
C1285 H1289 0.950 . S
H1286 C1282 0.950 . S
C1287 C1285 1.390 1_556 S
C1287 C1288 1.387 . S
C1287 H1290 0.950 . S
C1288 C1287 1.387 . S
C1288 C1291 1.387 . S
H1289 C1285 0.950 . S
H1290 C1287 0.950 . S
C1291 C1282 1.390 1_556 S
C1291 H1284 0.950 . S
C1291 C1288 1.387 . S
C1292 C1293 1.387 . S
C1292 H1296 0.950 . S
C1292 C1301 1.390 1_554 S
C1293 C1292 1.387 . S
C1293 C1295 1.387 . S
H1294 C1301 0.950 . S
C1295 C1293 1.387 . S
C1295 C1297 1.390 1_554 S
C1295 H1299 0.950 . S
H1296 C1292 0.950 . S
C1297 C1295 1.390 1_556 S
C1297 C1298 1.387 . S
C1297 H1300 0.950 . S
C1298 C1297 1.387 . S
C1298 C1301 1.387 . S
H1299 C1295 0.950 . S
H1300 C1297 0.950 . S
C1301 C1292 1.390 1_556 S
C1301 H1294 0.950 . S
C1301 C1298 1.387 . S
C1302 C1303 1.387 . S
C1302 H1306 0.950 . S
C1302 C1311 1.390 1_554 S
C1303 C1302 1.387 . S
C1303 C1305 1.387 . S
H1304 C1311 0.950 . S
C1305 C1303 1.387 . S
C1305 C1307 1.390 1_554 S
C1305 H1309 0.950 . S
H1306 C1302 0.950 . S
C1307 C1305 1.390 1_556 S
C1307 C1308 1.387 . S
C1307 H1310 0.950 . S
C1308 C1307 1.387 . S
C1308 C1311 1.387 . S
H1309 C1305 0.950 . S
H1310 C1307 0.950 . S
C1311 C1302 1.390 1_556 S
C1311 H1304 0.950 . S
C1311 C1308 1.387 . S
C1312 C1313 1.387 . S
C1312 H1316 0.950 . S
C1312 C1321 1.390 1_554 S
C1313 C1312 1.387 . S
C1313 C1315 1.387 . S
H1314 C1321 0.950 . S
C1315 C1313 1.387 . S
C1315 C1317 1.390 1_554 S
C1315 H1319 0.950 . S
H1316 C1312 0.950 . S
C1317 C1315 1.390 1_556 S
C1317 C1318 1.387 . S
C1317 H1320 0.950 . S
C1318 C1317 1.387 . S
C1318 C1321 1.387 . S
H1319 C1315 0.950 . S
H1320 C1317 0.950 . S
C1321 C1312 1.390 1_556 S
C1321 H1314 0.950 . S
C1321 C1318 1.387 . S
C1322 C1323 1.387 . S
C1322 H1326 0.950 . S
C1322 C1331 1.390 1_556 S
C1323 C1322 1.387 . S
C1323 C1325 1.387 . S
H1324 C1331 0.950 . S
C1325 C1323 1.387 . S
C1325 C1327 1.390 1_556 S
C1325 H1329 0.950 . S
H1326 C1322 0.950 . S
C1327 C1325 1.390 1_554 S
C1327 C1328 1.387 . S
C1327 H1330 0.950 . S
C1328 C1327 1.387 . S
C1328 C1331 1.387 . S
H1329 C1325 0.950 . S
H1330 C1327 0.950 . S
C1331 C1322 1.390 1_554 S
C1331 H1324 0.950 . S
C1331 C1328 1.387 . S
C1332 C1333 1.387 . S
C1332 H1336 0.950 . S
C1332 C1341 1.390 . S
C1333 C1332 1.387 . S
C1333 C1335 1.387 . S
H1334 C1341 0.950 . S
C1335 C1333 1.387 . S
C1335 C1337 1.390 . S
C1335 H1339 0.950 . S
H1336 C1332 0.950 . S
C1337 C1335 1.390 . S
C1337 C1338 1.387 . S
C1337 H1340 0.950 . S
C1338 C1337 1.387 . S
C1338 C1341 1.387 . S
H1339 C1335 0.950 . S
H1340 C1337 0.950 . S
C1341 C1332 1.390 . S
C1341 H1334 0.950 . S
C1341 C1338 1.387 . S
C1342 C1343 1.387 . S
C1342 H1346 0.950 . S
C1342 C1351 1.390 . S
C1343 C1342 1.387 . S
C1343 C1345 1.387 . S
H1344 C1351 0.950 . S
C1345 C1343 1.387 . S
C1345 C1347 1.390 . S
C1345 H1349 0.950 . S
H1346 C1342 0.950 . S
C1347 C1345 1.390 . S
C1347 C1348 1.387 . S
C1347 H1350 0.950 . S
C1348 C1347 1.387 . S
C1348 C1351 1.387 . S
H1349 C1345 0.950 . S
H1350 C1347 0.950 . S
C1351 C1342 1.390 . S
C1351 H1344 0.950 . S
C1351 C1348 1.387 . S
C1352 C1353 1.387 . S
C1352 H1356 0.950 . S
C1352 C1361 1.390 . S
C1353 C1352 1.387 . S
C1353 C1355 1.387 . S
H1354 C1361 0.950 . S
C1355 C1353 1.387 . S
C1355 C1357 1.390 . S
C1355 H1359 0.950 . S
H1356 C1352 0.950 . S
C1357 C1355 1.390 . S
C1357 C1358 1.387 . S
C1357 H1360 0.950 . S
C1358 C1357 1.387 . S
C1358 C1361 1.387 . S
H1359 C1355 0.950 . S
H1360 C1357 0.950 . S
C1361 C1352 1.390 . S
C1361 H1354 0.950 . S
C1361 C1358 1.387 . S
C1362 C1363 1.387 . S
C1362 H1366 0.950 . S
C1362 C1371 1.390 . S
C1363 C1362 1.387 . S
C1363 C1365 1.387 . S
H1364 C1371 0.950 . S
C1365 C1363 1.387 . S
C1365 C1367 1.390 . S
C1365 H1369 0.950 . S
H1366 C1362 0.950 . S
C1367 C1365 1.390 . S
C1367 C1368 1.387 . S
C1367 H1370 0.950 . S
C1368 C1367 1.387 . S
C1368 C1371 1.387 . S
H1369 C1365 0.950 . S
H1370 C1367 0.950 . S
C1371 C1362 1.390 . S
C1371 H1364 0.950 . S
C1371 C1368 1.387 . S
C1372 C1373 1.387 . S
C1372 H1376 0.950 . S
C1372 C1381 1.390 . S
C1373 C1372 1.387 . S
C1373 C1375 1.387 . S
H1374 C1381 0.950 . S
C1375 C1373 1.387 . S
C1375 C1377 1.390 . S
C1375 H1379 0.950 . S
H1376 C1372 0.950 . S
C1377 C1375 1.390 . S
C1377 C1378 1.387 . S
C1377 H1380 0.950 . S
C1378 C1377 1.387 . S
C1378 C1381 1.387 . S
H1379 C1375 0.950 . S
H1380 C1377 0.950 . S
C1381 C1372 1.390 . S
C1381 H1374 0.950 . S
C1381 C1378 1.387 . S
C1382 C1383 1.387 . S
C1382 H1386 0.950 . S
C1382 C1391 1.390 . S
C1383 C1382 1.387 . S
C1383 C1385 1.387 . S
H1384 C1391 0.950 . S
C1385 C1383 1.387 . S
C1385 C1387 1.390 . S
C1385 H1389 0.950 . S
H1386 C1382 0.950 . S
C1387 C1385 1.390 . S
C1387 C1388 1.387 . S
C1387 H1390 0.950 . S
C1388 C1387 1.387 . S
C1388 C1391 1.387 . S
H1389 C1385 0.950 . S
H1390 C1387 0.950 . S
C1391 C1382 1.390 . S
C1391 H1384 0.950 . S
C1391 C1388 1.387 . S
C793 N14 0.760 . S
C798 N113 0.760 . S
C803 N146 0.760 . S
C808 N47 0.760 . S
C813 N179 0.768 . S
C818 N80 0.768 . S
C823 N311 0.760 . S
C828 N212 0.760 . S
C833 N245 0.760 . S
C838 N344 0.760 . S
C843 N278 0.760 . S
C848 N377 0.760 . S
C853 N509 0.760 . S
C858 N410 0.760 . S
C863 N542 0.760 . S
C868 N443 0.760 . S
C873 N575 0.760 . S
C878 N476 0.760 . S
C883 N707 0.768 . S
C888 N608 0.768 . S
C893 N641 0.768 . S
C898 N740 0.768 . S
C903 N773 0.760 . S
C908 N674 0.760 . S
C913 N269 1.404 . S
C918 N5 1.403 . S
C923 N38 1.404 . S
C928 N302 1.404 . S
C933 N71 1.404 . S
C938 N335 1.404 . S
C943 N104 1.401 . S
C948 N368 1.401 . S
C953 N137 1.401 . S
C958 N203 1.401 . S
C963 N236 1.404 . S
C968 N170 1.404 . S
C973 N401 1.403 . S
C978 N665 1.404 . S
C983 N698 1.401 . S
C988 N434 1.401 . S
C993 N731 1.404 . S
C998 N467 1.404 . S
C1003 N500 1.402 . S
C1008 N764 1.404 . S
C1013 N599 1.401 . S
C1018 N533 1.401 . S
C1023 N632 1.402 . S
C1028 N566 1.403 . S
C1033 C8 1.699 . S
C1038 C239 1.699 . S
C1043 C41 1.698 . S
C1048 C272 1.700 . S
C1053 C305 1.700 . S
C1058 C74 1.698 . S
C1063 C107 1.699 . S
C1068 C338 1.699 . S
C1073 C371 1.700 . S
C1078 C140 1.698 . S
C1083 C206 1.700 . S
C1088 C173 1.698 . S
C1093 C404 1.699 . S
C1098 C635 1.699 . S
C1103 C437 1.698 . S
C1108 C668 1.700 . S
C1113 C470 1.699 . S
C1118 C701 1.699 . S
C1123 C503 1.699 . S
C1128 C734 1.699 . S
C1133 C536 1.700 . S
C1138 C767 1.698 . S
C1143 C602 1.700 . S
C1148 C569 1.698 . S
C1153 C28 1.018 . S
C1158 C358 1.018 . S
C1163 C391 1.015 . S
C1168 C61 1.020 . S
C1173 C226 1.017 . S
C1178 C94 1.018 . S
C1183 C259 1.018 . S
C1188 C127 1.018 . S
C1193 C160 1.015 . S
C1198 C292 1.020 . S
C1203 C193 1.015 . S
C1208 C325 1.020 . S
C1213 C424 1.018 . S
C1218 C754 1.018 . S
C1223 C787 1.015 . S
C1228 C457 1.020 . S
C1233 C622 1.019 . S
C1238 C490 1.016 . S
C1243 C523 1.017 . S
C1248 C655 1.017 . S
C1253 C556 1.016 . S
C1258 C688 1.019 . S
C1263 C721 1.015 . S
C1268 C589 1.020 . S
C1273 C17 1.512 . S
C1278 C512 1.513 . S
C1283 C50 1.512 . S
C1288 C545 1.513 . S
C1293 C83 1.512 . S
C1298 C578 1.512 . S
C1303 C116 1.512 . S
C1308 C413 1.513 . S
C1313 C149 1.512 . S
C1318 C446 1.513 . S
C1323 C479 1.512 . S
C1328 C182 1.512 . S
C1333 C215 1.513 . S
C1338 C710 1.512 . S
C1343 C248 1.512 . S
C1348 C743 1.513 . S
C1353 C281 1.512 . S
C1358 C776 1.512 . S
C1363 C314 1.512 . S
C1368 C611 1.513 . S
C1373 C347 1.512 . S
C1378 C644 1.512 . S
C1383 C677 1.512 . S
C1388 C380 1.512 . S
