# Generated by pormake.
# Topology snz, (6)-cn, num edge types: 1
# Building blocks:
#     Node 0, Type 0, BuildingBlock: FUNLAD_clean_sbu_0, # of connection points: 6
#     Node 1, Type 0, BuildingBlock: FUNLAD_clean_sbu_0, # of connection points: 6
#     Node 2, Type 0, BuildingBlock: FUNLAD_clean_sbu_0, # of connection points: 6
#     Node 3, Type 0, BuildingBlock: FUNLAD_clean_sbu_0, # of connection points: 6
#     Node 4, Type 0, BuildingBlock: FUNLAD_clean_sbu_0, # of connection points: 6
#     Node 5, Type 0, BuildingBlock: FUNLAD_clean_sbu_0, # of connection points: 6
#     Node 6, Type 0, BuildingBlock: FUNLAD_clean_sbu_0, # of connection points: 6
#     Node 7, Type 0, BuildingBlock: FUNLAD_clean_sbu_0, # of connection points: 6
#     Node 8, Type 0, BuildingBlock: FUNLAD_clean_sbu_0, # of connection points: 6
#     Edge 9, Type (0, 0), None
#     Edge 10, Type (0, 0), None
#     Edge 11, Type (0, 0), None
#     Edge 12, Type (0, 0), None
#     Edge 13, Type (0, 0), None
#     Edge 14, Type (0, 0), None
#     Edge 15, Type (0, 0), None
#     Edge 16, Type (0, 0), None
#     Edge 17, Type (0, 0), None
#     Edge 18, Type (0, 0), None
#     Edge 19, Type (0, 0), None
#     Edge 20, Type (0, 0), None
#     Edge 21, Type (0, 0), None
#     Edge 22, Type (0, 0), None
#     Edge 23, Type (0, 0), None
#     Edge 24, Type (0, 0), None
#     Edge 25, Type (0, 0), None
#     Edge 26, Type (0, 0), None
#     Edge 27, Type (0, 0), None
#     Edge 28, Type (0, 0), None
#     Edge 29, Type (0, 0), None
#     Edge 30, Type (0, 0), None
#     Edge 31, Type (0, 0), None
#     Edge 32, Type (0, 0), None
#     Edge 33, Type (0, 0), None
#     Edge 34, Type (0, 0), None
#     Edge 35, Type (0, 0), None
# Relax obj value: 1.479
# Max RMSD: 0.343
# Mean RMSD: 0.311
data_MOF--net-snz--node1-FUNLAD_clean_sbu_0--edge1-none
_symmetry_space_group_name_H-M    P1
_symmetry_Int_Tables_number       1
_symmetry_cell_setting            triclinic
loop_
_symmetry_equiv_pos_as_xyz
'x, y, z'
_cell_length_a     22.407053
_cell_length_b     25.070405
_cell_length_c     11.712515
_cell_angle_alpha  85.788234
_cell_angle_beta   84.621123
_cell_angle_gamma 121.09642
loop_
_atom_site_label
_atom_site_type_symbol
_atom_site_fract_x
_atom_site_fract_y
_atom_site_fract_z
_atom_type_partial_charge
C0 C 0.92606 0.54511 0.07327 0.0
N1 N 0.09546 0.54641 0.90908 0.0
C2 C 0.09382 0.59229 0.84277 0.0
C3 C 0.06231 0.57906 0.74266 0.0
C4 C 0.03049 0.51783 0.71188 0.0
C5 C 0.0441 0.47557 0.77303 0.0
C6 C 0.08137 0.49292 0.86647 0.0
Zn7 Zn 0.05395 0.53019 0.08121 0.0
C8 C 0.09627 0.63872 0.19479 0.0
N9 N 0.9304 0.47875 0.41012 0.0
C10 C 0.93805 0.52835 0.46123 0.0
C11 C 0.93316 0.43188 0.47046 0.0
C12 C 0.96217 0.44174 0.57294 0.0
C13 C -0.0152 0.49906 0.61729 0.0
C14 C 0.96533 0.53947 0.56527 0.0
Zn15 Zn 0.97425 0.49885 0.2394 0.0
O16 O 0.98047 0.54779 0.02472 0.0
C17 C 0.92915 0.39282 0.1179 0.0
O18 O 0.90595 0.5267 0.18159 0.0
H19 H 0.92543 0.39194 0.42938 0.0
H20 H 0.1065 0.6355 0.876 0.0
H21 H 0.93367 0.56446 0.41339 0.0
O22 O -0.01136 0.43525 0.06381 0.0
O23 O 0.90224 0.40443 0.20572 0.0
H24 H 0.08615 0.45822 0.9182 0.0
O25 O 0.04476 0.47103 0.2934 0.0
O26 O 0.12577 0.50872 0.13875 0.0
O27 O 0.04465 0.59443 0.26531 0.0
O28 O 0.11677 0.62677 0.10055 0.0
C29 C 0.10157 0.47904 0.2411 0.0
H30 H 0.05906 0.61558 0.69571 0.0
H31 H 0.02305 0.428 0.75568 0.0
H32 H 0.9715 0.40641 0.60919 0.0
H33 H 0.97528 0.58196 0.59796 0.0
C34 C 0.37039 0.50667 0.17804 0.0
N35 N 0.56428 0.56561 0.26349 0.0
C36 C 0.52113 0.5114 0.33741 0.0
C37 C 0.49958 0.51396 0.45143 0.0
C38 C 0.5254 0.57284 0.4912 0.0
C39 C 0.58314 0.62582 0.41919 0.0
C40 C 0.60171 0.62105 0.30488 0.0
Zn41 Zn 0.52538 0.56982 0.11417 0.0
C42 C 0.48733 0.46905 -0.0214 0.0
N43 N 0.43992 0.59055 0.81935 0.0
C44 C 0.40683 0.53383 0.78136 0.0
C45 C 0.48432 0.64359 0.74336 0.0
C46 C 0.51049 0.63898 0.63373 0.0
C47 C 0.49016 0.57941 0.60137 0.0
C48 C 0.43425 0.52656 0.6757 0.0
Zn49 Zn 0.47661 0.58677 -0.02809 0.0
O50 O 0.42714 0.52411 0.217 0.0
C51 C 0.51229 0.68911 0.09599 0.0
O52 O 0.37212 0.52425 0.07188 0.0
H53 H 0.50902 0.68884 0.77398 0.0
H54 H 0.49275 0.46729 0.30356 0.0
H55 H 0.37029 0.4923 0.84263 0.0
O56 O 0.53898 0.66068 0.14435 0.0
O57 O 0.47741 0.66679 0.01439 0.0
H58 H 0.63798 0.66348 0.24542 0.0
O59 O 0.58105 0.64479 0.87764 0.0
O60 O 0.62589 0.61579 0.00971 0.0
O61 O 0.47724 0.50872 0.92654 0.0
O62 O 0.50738 0.47793 0.07742 0.0
C63 C 0.63333 0.64479 0.91059 0.0
H64 H 0.45871 0.47011 0.50192 0.0
H65 H 0.61097 0.6719 0.44549 0.0
H66 H 0.5496 0.682 0.57951 0.0
H67 H 0.41419 0.47909 0.65886 0.0
C68 C 0.59267 0.10773 0.8091 0.0
N69 N 0.41822 0.95167 0.71366 0.0
C70 C 0.47628 0.96373 0.64274 0.0
C71 C 0.49245 0.99641 0.53175 0.0
C72 C 0.44647 1.01379 0.49135 0.0
C73 C 0.38052 0.98917 0.56131 0.0
C74 C 0.36622 0.9552 0.6705 0.0
Zn75 Zn 0.44079 0.99281 0.85891 0.0
C76 C 0.50179 0.94801 0.01744 0.0
N77 N 0.48959 0.09514 0.14222 0.0
C78 C 0.54419 0.10061 0.19241 0.0
C79 C 0.43071 0.08575 0.20755 0.0
C80 C 0.41665 0.06326 0.32532 0.0
C81 C 0.46628 0.05481 0.37675 0.0
C82 C 0.53406 0.08216 0.31127 0.0
Zn83 Zn 0.47114 0.05343 -0.00321 0.0
O84 O 0.54569 0.06106 0.76851 0.0
C85 C 0.4027 0.09565 0.83851 0.0
O86 O 0.57638 0.11992 0.90683 0.0
H87 H 0.3887 0.08384 0.16576 0.0
H88 H 0.51641 0.95945 0.67919 0.0
H89 H 0.5917 0.11032 0.13897 0.0
O90 O 0.40051 0.04982 0.79625 0.0
O91 O 0.43192 0.11178 0.92855 0.0
H92 H 0.32023 0.94468 0.7294 0.0
O93 O 0.3703 0.98314 0.08985 0.0
O94 O 0.33986 0.92372 0.95237 0.0
O95 O 0.50638 0.99419 0.06317 0.0
O96 O 0.47898 0.93675 0.9214 0.0
C97 C 0.32803 0.93181 0.05594 0.0
H98 H 0.54283 1.01093 0.48317 0.0
H99 H 0.34143 0.99899 0.53796 0.0
H100 H 0.36493 0.04789 0.37009 0.0
H101 H 0.57756 0.08479 0.34775 0.0
C102 C 0.53113 0.91353 0.06901 0.0
N103 N 0.70233 0.9138 0.89997 0.0
C104 C 0.69947 0.96066 0.83977 0.0
C105 C 0.67042 0.9508 0.73732 0.0
C106 C 0.64789 0.89353 0.69283 0.0
C107 C 0.66745 0.85316 0.74472 0.0
C108 C 0.69474 0.86426 0.84874 0.0
Zn109 Zn 0.65847 0.89375 0.07069 0.0
C110 C 0.70361 0.9998 0.19216 0.0
N111 N 0.53723 0.84615 0.40105 0.0
C112 C 0.55139 0.89969 0.44356 0.0
C113 C 0.53881 0.80026 0.46747 0.0
C114 C 0.57031 0.81352 0.56758 0.0
C115 C 0.60219 0.87477 0.59827 0.0
C116 C 0.58865 0.91704 0.53703 0.0
Zn117 Zn 0.57878 0.86244 0.22891 0.0
O118 O 0.58793 0.92152 0.01668 0.0
C119 C 0.53647 0.75389 0.1153 0.0
O120 O 0.50697 0.88391 0.1714 0.0
H121 H 0.52609 0.75704 0.43431 0.0
H122 H 0.70716 1.00056 0.88093 0.0
H123 H 0.54663 0.93439 0.3918 0.0
O124 O 0.5881 0.79817 0.04479 0.0
O125 O 0.51596 0.76585 0.20953 0.0
H126 H 0.69917 0.82815 0.89649 0.0
O127 O 0.65225 0.84482 0.28541 0.0
O128 O 0.72677 0.86591 0.12853 0.0
O129 O 0.64412 0.95738 0.24631 0.0
O130 O 0.73047 0.98818 0.10432 0.0
C131 C 0.70666 0.8475 0.23685 0.0
H132 H 0.66098 0.98609 0.7012 0.0
H133 H 0.65756 0.81072 0.71189 0.0
H134 H 0.57352 0.77698 0.61461 0.0
H135 H 0.60975 0.96463 0.55431 0.0
C136 C -0.00066 0.74778 0.39947 0.0
N137 N 0.19276 0.80206 0.49076 0.0
C138 C 0.14823 0.749 0.56659 0.0
C139 C 0.12196 0.75356 0.67617 0.0
C140 C 0.14237 0.81312 0.7087 0.0
C141 C 0.1984 0.86598 0.63454 0.0
C142 C 0.22588 0.85874 0.52889 0.0
Zn143 Zn 0.15607 0.8058 0.33819 0.0
C144 C 0.12044 0.7035 0.21413 0.0
N145 N 0.06842 0.82701 0.04662 0.0
C146 C 0.03104 0.77151 0.00542 0.0
C147 C 0.11141 0.88119 -0.02742 0.0
C148 C 0.13284 0.87859 0.8585 0.0
C149 C 0.10714 0.81968 0.81891 0.0
C150 C 0.04954 0.76668 0.89111 0.0
Zn151 Zn 0.10731 0.82278 0.19594 0.0
O152 O 0.05162 0.74779 0.43243 0.0
C153 C 0.14536 0.92353 0.3315 0.0
O154 O 0.00678 0.77678 0.30035 0.0
H155 H 0.13975 0.92534 0.00631 0.0
H156 H 0.12352 0.70378 0.53587 0.0
H157 H -0.00514 0.72909 0.06498 0.0
O158 O 0.15547 0.88386 0.38352 0.0
O159 O 0.12527 0.91464 0.23272 0.0
H160 H 0.26247 0.90028 0.4677 0.0
O161 O 0.20556 0.86854 0.09311 0.0
O162 O 0.26057 0.86831 0.2382 0.0
O163 O 0.09377 0.73193 0.16574 0.0
O164 O 0.15528 0.72578 0.29578 0.0
C165 C 0.26231 0.88594 0.13207 0.0
H166 H 0.0827 0.71053 0.73018 0.0
H167 H 0.21854 0.91343 0.65151 0.0
H168 H 0.17352 0.92246 0.80784 0.0
H169 H 0.0218 0.72055 0.86502 0.0
C170 C 0.30468 0.46081 0.25419 0.0
N171 N 0.14312 0.29742 0.16787 0.0
C172 C 0.20211 0.30696 0.10265 0.0
C173 C 0.21623 0.3295 -0.01511 0.0
C174 C 0.16653 0.33776 0.93331 0.0
C175 C 0.09868 0.31024 -0.00134 0.0
C176 C 0.08851 0.29181 0.11753 0.0
Zn177 Zn 0.16157 0.33915 0.31331 0.0
C178 C 0.23004 0.29694 0.47158 0.0
N179 N 0.21447 0.44091 0.59648 0.0
C180 C 0.26648 0.43735 0.63951 0.0
C181 C 0.15646 0.42888 0.6675 0.0
C182 C 0.14034 0.3962 0.77847 0.0
C183 C 0.18631 0.37879 0.81875 0.0
C184 C 0.25222 0.40338 0.7487 0.0
Zn185 Zn 0.19197 0.39978 0.4512 0.0
O186 O 0.26239 0.40949 0.22025 0.0
C187 C 0.13091 0.44456 0.29265 0.0
O188 O 0.2929 0.46887 0.35779 0.0
H189 H 0.1163 0.43316 0.63113 0.0
H190 H 0.24413 0.30896 0.14453 0.0
H191 H 0.31245 0.44787 0.58057 0.0
O192 O 0.12627 0.39835 0.24694 0.0
O193 O 0.15378 0.45584 0.38864 0.0
H194 H 0.04091 0.282 0.17088 0.0
O195 O 0.08705 0.33154 0.54155 0.0
O196 O 0.05636 0.27264 0.40328 0.0
O197 O 0.23222 0.34276 0.51387 0.0
O198 O 0.20084 0.28083 0.38152 0.0
C199 C 0.04007 0.28485 0.501 0.0
H200 H 0.26804 0.34505 0.94024 0.0
H201 H 0.05515 0.30747 0.96201 0.0
H202 H 0.08998 0.3817 0.82717 0.0
H203 H 0.29129 0.3935 0.77194 0.0
C204 C 0.27928 0.17917 0.70827 0.0
N205 N 0.39763 0.30997 0.80184 0.0
C206 C 0.38951 0.30038 0.92021 0.0
C207 C 0.42403 0.35128 -0.01737 0.0
C208 C 0.46815 0.41234 0.92232 0.0
C209 C 0.47882 0.42 0.80046 0.0
C210 C 0.44246 0.36853 0.74203 0.0
Zn211 Zn 0.34418 0.23541 0.7068 0.0
C212 C 0.37233 0.12917 0.78027 0.0
N213 N 0.2351 0.08262 0.50826 0.0
C214 C 0.19029 1.02405 0.56807 0.0
C215 C 0.2432 0.0922 0.38989 0.0
C216 C 0.20866 0.04129 0.32748 0.0
C217 C 0.16456 0.98024 0.3878 0.0
C218 C 0.15392 0.97258 0.50966 0.0
Zn219 Zn 0.28856 0.15718 0.60329 0.0
O220 O 0.27338 0.20155 0.80419 0.0
C221 C 0.26041 0.26341 0.52981 0.0
O222 O 0.21934 0.12655 0.70622 0.0
H223 H 0.27831 0.13911 0.34328 0.0
H224 H 0.35438 0.25347 -0.03319 0.0
H225 H 0.18389 1.01674 0.66164 0.0
O226 O 0.29961 0.28752 0.60786 0.0
O227 O 0.24603 0.20941 0.50617 0.0
H228 H 0.44889 0.37585 0.64846 0.0
O229 O 0.35935 0.19103 0.5059 0.0
O230 O 0.4134 0.26604 0.60386 0.0
O231 O 0.33313 0.10507 0.70222 0.0
O232 O 0.38671 0.18317 0.80391 0.0
C233 C 0.35346 0.21341 0.60181 0.0
H234 H 0.41278 0.34345 0.07637 0.0
H235 H 0.51196 0.4664 0.75035 0.0
H236 H 0.21988 0.04912 0.23373 0.0
H237 H 0.1208 0.92618 0.55977 0.0
C238 C 0.81682 0.22782 0.61734 0.0
N239 N 0.77694 0.1237 0.43559 0.0
C240 C 0.72729 0.12199 0.37473 0.0
C241 C 0.70942 0.08814 0.28083 0.0
C242 C 0.74254 0.05572 0.24926 0.0
C243 C 0.79665 0.06154 0.30831 0.0
C244 C 0.81315 0.09597 0.40158 0.0
Zn245 Zn 0.8014 0.17062 0.57958 0.0
C246 C 0.96562 0.25167 0.55885 0.0
N247 N 0.85581 0.26889 0.8745 0.0
C248 C 0.8195 0.29651 0.9087 0.0
C249 C 0.90559 0.27073 0.93514 0.0
C250 C 0.92351 0.3046 0.029 0.0
C251 C 0.89027 0.33689 0.06079 0.0
C252 C 0.83602 0.33094 0.00197 0.0
Zn253 Zn 0.83133 0.22197 0.73052 0.0
O254 O 0.8029 0.23101 0.51126 0.0
C255 C 0.66712 0.14092 0.75124 0.0
O256 O 0.83172 0.28052 0.65656 0.0
H257 H 0.93318 0.24781 0.90812 0.0
H258 H 0.69979 0.14501 0.40158 0.0
H259 H 0.77962 0.29425 0.8604 0.0
O260 O 0.68394 0.12674 0.65514 0.0
O261 O 0.7161 0.17901 0.80384 0.0
H262 H 0.85293 0.09814 0.45003 0.0
O263 O 0.82985 0.16159 0.79884 0.0
O264 O 0.801 0.11206 0.65356 0.0
O265 O 0.9488 0.26586 0.65493 0.0
O266 O 0.91664 0.21356 0.50628 0.0
C267 C 0.81592 0.16477 0.69277 0.0
H268 H 0.66666 0.08338 0.23788 0.0
H269 H 0.82151 0.03518 0.28948 0.0
H270 H 0.96639 0.30949 0.07174 0.0
H271 H 0.81106 0.3572 0.02095 0.0
C272 C 0.84269 0.73205 0.67995 0.0
N273 N 0.85854 0.62976 0.83801 0.0
C274 C 0.85368 0.63854 0.95135 0.0
C275 C 0.86979 0.60693 0.03441 0.0
C276 C 0.89142 0.56668 -0.00081 0.0
C277 C 0.89325 0.55668 0.88281 0.0
C278 C 0.87668 0.58891 0.8033 0.0
Zn279 Zn 0.8324 0.67378 0.71762 0.0
C280 C 0.6977 0.66827 0.82732 0.0
N281 N 0.77415 0.76282 0.47208 0.0
C282 C 0.75602 0.80367 0.50681 0.0
C283 C 0.77901 0.75405 0.35873 0.0
C284 C 0.76291 0.78567 0.27569 0.0
C285 C 0.74129 0.82592 0.31092 0.0
C286 C 0.73946 0.83591 0.42731 0.0
Zn287 Zn 0.80028 0.71879 0.59246 0.0
O288 O 0.88149 0.7414 0.76272 0.0
C289 C 0.93498 0.72429 0.48275 0.0
O290 O 0.85077 0.78615 0.64086 0.0
H291 H 0.79397 0.72149 0.33298 0.0
H292 H 0.83872 0.67109 -0.02291 0.0
H293 H 0.75395 0.8108 0.5966 0.0
O294 O 0.92644 0.69563 0.58372 0.0
O295 O 0.89149 0.74021 0.45949 0.0
H296 H 0.87876 0.58178 0.7135 0.0
O297 O 0.75119 0.65117 0.54736 0.0
O298 O 0.78192 0.60641 0.66922 0.0
O299 O 0.70624 0.69694 0.72635 0.0
O300 O 0.74118 0.65236 0.85059 0.0
C301 C 0.78998 0.66052 0.63014 0.0
H302 H 0.86941 0.61667 0.12298 0.0
H303 H 0.9099 0.52583 0.85276 0.0
H304 H 0.7633 0.77595 0.1871 0.0
H305 H 0.72281 0.86676 0.45738 0.0
loop_
_geom_bond_atom_site_label_1
_geom_bond_atom_site_label_2
_geom_bond_distance
_geom_bond_site_symmetry_2
_ccdc_geom_bond_type
C0 O16 1.251 1_554 S
C0 O18 1.254 . S
N1 C2 1.333 . S
N1 C6 1.307 . S
N1 Zn7 2.020 . S
C2 N1 1.333 . S
C2 C3 1.379 . S
C2 H20 0.952 . S
C3 C2 1.379 . S
C3 C4 1.390 . S
C3 H30 0.949 . S
C4 C3 1.390 . S
C4 C5 1.357 . S
C5 C4 1.357 . S
C5 C6 1.370 . S
C5 H31 0.950 . S
C6 N1 1.307 . S
C6 C5 1.370 . S
C6 H24 0.948 . S
Zn7 N1 2.020 . S
Zn7 O16 2.039 . S
Zn7 O22 2.034 . S
Zn7 O26 2.025 1_556 S
Zn7 O28 2.024 1_556 S
C8 O27 1.246 . S
C8 O28 1.249 . S
N9 C10 1.307 1_455 S
N9 C11 1.333 . S
N9 Zn15 2.020 . S
C10 N9 1.307 1_655 S
C10 C14 1.370 . S
C10 H21 0.948 . S
C11 N9 1.333 . S
C11 C12 1.379 . S
C11 H19 0.952 . S
C12 C11 1.379 . S
C12 C13 1.390 1_455 S
C12 H32 0.949 . S
C13 C12 1.390 1_655 S
C13 C14 1.357 . S
C14 C10 1.370 . S
C14 C13 1.357 . S
C14 H33 0.950 . S
Zn15 N9 2.020 . S
Zn15 O18 2.025 . S
Zn15 O23 2.024 . S
Zn15 O25 2.039 . S
Zn15 O27 2.034 . S
O16 C0 1.251 1_556 S
O16 Zn7 2.039 . S
C17 O22 1.246 1_554 S
C17 O23 1.249 . S
O18 C0 1.254 . S
O18 Zn15 2.025 . S
H19 C11 0.952 . S
H20 C2 0.952 . S
H21 C10 0.948 . S
O22 Zn7 2.034 . S
O22 C17 1.246 1_556 S
O23 Zn15 2.024 . S
O23 C17 1.249 . S
H24 C6 0.948 . S
O25 Zn15 2.039 . S
O25 C29 1.251 . S
O26 Zn7 2.025 1_554 S
O26 C29 1.254 . S
O27 C8 1.246 . S
O27 Zn15 2.034 . S
O28 Zn7 2.024 1_554 S
O28 C8 1.249 . S
C29 O25 1.251 . S
C29 O26 1.254 . S
H30 C3 0.949 . S
H31 C5 0.950 . S
H32 C12 0.949 . S
H33 C14 0.950 . S
C34 O50 1.251 . S
C34 O52 1.254 . S
N35 C36 1.333 . S
N35 C40 1.307 . S
N35 Zn41 2.020 . S
C36 N35 1.333 . S
C36 C37 1.379 . S
C36 H54 0.952 . S
C37 C36 1.379 . S
C37 C38 1.390 . S
C37 H64 0.949 . S
C38 C37 1.390 . S
C38 C39 1.357 . S
C39 C38 1.357 . S
C39 C40 1.370 . S
C39 H65 0.950 . S
C40 N35 1.307 . S
C40 C39 1.370 . S
C40 H58 0.948 . S
Zn41 N35 2.020 . S
Zn41 O50 2.039 . S
Zn41 O56 2.034 . S
Zn41 O60 2.025 . S
Zn41 O62 2.024 . S
C42 O61 1.246 . S
C42 O62 1.249 1_556 S
N43 C44 1.307 . S
N43 C45 1.333 . S
N43 Zn49 2.020 . S
C44 N43 1.307 . S
C44 C48 1.370 . S
C44 H55 0.948 . S
C45 N43 1.333 . S
C45 C46 1.379 . S
C45 H53 0.952 . S
C46 C45 1.379 . S
C46 C47 1.390 . S
C46 H66 0.949 . S
C47 C46 1.390 . S
C47 C48 1.357 . S
C48 C44 1.370 . S
C48 C47 1.357 . S
C48 H67 0.950 . S
Zn49 N43 2.020 . S
Zn49 O52 2.025 1_556 S
Zn49 O57 2.024 . S
Zn49 O59 2.039 . S
Zn49 O61 2.034 . S
O50 C34 1.251 . S
O50 Zn41 2.039 . S
C51 O56 1.246 . S
C51 O57 1.249 1_554 S
O52 C34 1.254 . S
O52 Zn49 2.025 1_554 S
H53 C45 0.952 . S
H54 C36 0.952 . S
H55 C44 0.948 . S
O56 Zn41 2.034 . S
O56 C51 1.246 . S
O57 Zn49 2.024 . S
O57 C51 1.249 1_556 S
H58 C40 0.948 . S
O59 Zn49 2.039 . S
O59 C63 1.251 . S
O60 Zn41 2.025 . S
O60 C63 1.254 1_554 S
O61 C42 1.246 . S
O61 Zn49 2.034 . S
O62 Zn41 2.024 . S
O62 C42 1.249 1_554 S
C63 O59 1.251 . S
C63 O60 1.254 1_556 S
H64 C37 0.949 . S
H65 C39 0.950 . S
H66 C46 0.949 . S
H67 C48 0.950 . S
C68 O84 1.251 . S
C68 O86 1.254 1_556 S
N69 C70 1.332 1_565 S
N69 C74 1.307 . S
N69 Zn75 2.020 . S
C70 N69 1.332 1_545 S
C70 C71 1.379 1_545 S
C70 H88 0.953 . S
C71 C70 1.379 1_565 S
C71 C72 1.390 . S
C71 H98 0.949 1_565 S
C72 C71 1.390 . S
C72 C73 1.357 . S
C73 C72 1.357 . S
C73 C74 1.370 . S
C73 H99 0.950 . S
C74 N69 1.307 . S
C74 C73 1.370 . S
C74 H92 0.948 . S
Zn75 N69 2.020 . S
Zn75 O84 2.039 1_565 S
Zn75 O90 2.034 1_565 S
Zn75 O94 2.025 . S
Zn75 O96 2.024 . S
C76 O95 1.246 . S
C76 O96 1.249 1_554 S
N77 C78 1.307 . S
N77 C79 1.333 . S
N77 Zn83 2.020 . S
C78 N77 1.307 . S
C78 C82 1.370 . S
C78 H89 0.948 . S
C79 N77 1.333 . S
C79 C80 1.379 . S
C79 H87 0.952 1_545 S
C80 C79 1.379 . S
C80 C81 1.390 . S
C80 H100 0.949 . S
C81 C80 1.390 . S
C81 C82 1.357 . S
C82 C78 1.370 . S
C82 C81 1.357 . S
C82 H101 0.950 . S
Zn83 N77 2.020 . S
Zn83 O86 2.025 . S
Zn83 O91 2.024 . S
Zn83 O93 2.039 1_545 S
Zn83 O95 2.034 1_545 S
O84 C68 1.251 . S
O84 Zn75 2.039 1_545 S
C85 O90 1.246 . S
C85 O91 1.249 1_556 S
O86 C68 1.254 1_554 S
O86 Zn83 2.025 . S
H87 C79 0.952 1_565 S
H88 C70 0.953 . S
H89 C78 0.948 . S
O90 Zn75 2.034 1_545 S
O90 C85 1.246 . S
O91 Zn83 2.024 . S
O91 C85 1.249 1_554 S
H92 C74 0.948 . S
O93 Zn83 2.039 1_565 S
O93 C97 1.251 . S
O94 Zn75 2.025 . S
O94 C97 1.254 1_556 S
O95 C76 1.246 . S
O95 Zn83 2.034 1_565 S
O96 Zn75 2.024 . S
O96 C76 1.249 1_556 S
C97 O93 1.251 . S
C97 O94 1.254 1_554 S
H98 C71 0.949 1_545 S
H99 C73 0.950 . S
H100 C80 0.949 . S
H101 C82 0.950 . S
C102 O118 1.251 . S
C102 O120 1.254 . S
N103 C104 1.333 1_554 S
N103 C108 1.307 1_554 S
N103 Zn109 2.020 . S
C104 N103 1.333 1_556 S
C104 C105 1.379 . S
C104 H122 0.952 . S
C105 C104 1.379 . S
C105 C106 1.390 . S
C105 H132 0.949 . S
C106 C105 1.390 . S
C106 C107 1.357 . S
C107 C106 1.357 . S
C107 C108 1.370 . S
C107 H133 0.950 . S
C108 N103 1.307 1_556 S
C108 C107 1.370 . S
C108 H126 0.948 1_556 S
Zn109 N103 2.020 . S
Zn109 O118 2.039 . S
Zn109 O124 2.034 . S
Zn109 O128 2.025 . S
Zn109 O130 2.024 . S
C110 O129 1.246 . S
C110 O130 1.249 . S
N111 C112 1.307 . S
N111 C113 1.333 . S
N111 Zn117 2.020 . S
C112 N111 1.307 . S
C112 C116 1.370 . S
C112 H123 0.948 . S
C113 N111 1.333 . S
C113 C114 1.379 . S
C113 H121 0.952 . S
C114 C113 1.379 . S
C114 C115 1.390 . S
C114 H134 0.949 . S
C115 C114 1.390 . S
C115 C116 1.357 . S
C116 C112 1.370 . S
C116 C115 1.357 . S
C116 H135 0.950 . S
Zn117 N111 2.020 . S
Zn117 O120 2.025 . S
Zn117 O125 2.024 . S
Zn117 O127 2.039 . S
Zn117 O129 2.034 . S
O118 C102 1.251 . S
O118 Zn109 2.039 . S
C119 O124 1.246 . S
C119 O125 1.249 . S
O120 C102 1.254 . S
O120 Zn117 2.025 . S
H121 C113 0.952 . S
H122 C104 0.952 . S
H123 C112 0.948 . S
O124 Zn109 2.034 . S
O124 C119 1.246 . S
O125 Zn117 2.024 . S
O125 C119 1.249 . S
H126 C108 0.948 1_554 S
O127 Zn117 2.039 . S
O127 C131 1.251 . S
O128 Zn109 2.025 . S
O128 C131 1.254 . S
O129 C110 1.246 . S
O129 Zn117 2.034 . S
O130 Zn109 2.024 . S
O130 C110 1.249 . S
C131 O127 1.251 . S
C131 O128 1.254 . S
H132 C105 0.949 . S
H133 C107 0.950 . S
H134 C114 0.949 . S
H135 C116 0.950 . S
C136 O152 1.251 . S
C136 O154 1.254 . S
N137 C138 1.333 . S
N137 C142 1.307 . S
N137 Zn143 2.020 . S
C138 N137 1.333 . S
C138 C139 1.379 . S
C138 H156 0.952 . S
C139 C138 1.379 . S
C139 C140 1.390 . S
C139 H166 0.949 . S
C140 C139 1.390 . S
C140 C141 1.357 . S
C141 C140 1.357 . S
C141 C142 1.370 . S
C141 H167 0.950 . S
C142 N137 1.307 . S
C142 C141 1.370 . S
C142 H160 0.948 . S
Zn143 N137 2.020 . S
Zn143 O152 2.039 . S
Zn143 O158 2.034 . S
Zn143 O162 2.025 . S
Zn143 O164 2.024 . S
C144 O163 1.246 . S
C144 O164 1.249 . S
N145 C146 1.307 . S
N145 C147 1.333 1_554 S
N145 Zn151 2.020 . S
C146 N145 1.307 . S
C146 C150 1.370 1_554 S
C146 H157 0.948 . S
C147 N145 1.333 1_556 S
C147 C148 1.379 . S
C147 H155 0.952 . S
C148 C147 1.379 . S
C148 C149 1.390 . S
C148 H168 0.949 . S
C149 C148 1.390 . S
C149 C150 1.357 . S
C150 C146 1.370 1_556 S
C150 C149 1.357 . S
C150 H169 0.950 1_455 S
Zn151 N145 2.020 . S
Zn151 O154 2.025 . S
Zn151 O159 2.024 . S
Zn151 O161 2.039 . S
Zn151 O163 2.034 . S
O152 C136 1.251 . S
O152 Zn143 2.039 . S
C153 O158 1.246 . S
C153 O159 1.249 . S
O154 C136 1.254 . S
O154 Zn151 2.025 . S
H155 C147 0.952 . S
H156 C138 0.952 . S
H157 C146 0.948 . S
O158 Zn143 2.034 . S
O158 C153 1.246 . S
O159 Zn151 2.024 . S
O159 C153 1.249 . S
H160 C142 0.948 . S
O161 Zn151 2.039 . S
O161 C165 1.251 . S
O162 Zn143 2.025 . S
O162 C165 1.254 . S
O163 C144 1.246 . S
O163 Zn151 2.034 . S
O164 Zn143 2.024 . S
O164 C144 1.249 . S
C165 O161 1.251 . S
C165 O162 1.254 . S
H166 C139 0.949 . S
H167 C141 0.950 . S
H168 C148 0.949 . S
H169 C150 0.950 1_655 S
C170 O186 1.251 . S
C170 O188 1.254 . S
N171 C172 1.333 1_554 S
N171 C176 1.307 . S
N171 Zn177 2.020 . S
C172 N171 1.333 1_556 S
C172 C173 1.379 . S
C172 H190 0.952 1_556 S
C173 C172 1.379 . S
C173 C174 1.390 . S
C173 H200 0.949 . S
C174 C173 1.390 . S
C174 C175 1.357 . S
C175 C174 1.357 . S
C175 C176 1.370 1_556 S
C175 H201 0.950 . S
C176 N171 1.307 . S
C176 C175 1.370 1_554 S
C176 H194 0.948 . S
Zn177 N171 2.020 . S
Zn177 O186 2.039 . S
Zn177 O192 2.034 . S
Zn177 O196 2.025 . S
Zn177 O198 2.024 . S
C178 O197 1.246 . S
C178 O198 1.249 . S
N179 C180 1.307 . S
N179 C181 1.333 . S
N179 Zn185 2.020 . S
C180 N179 1.307 . S
C180 C184 1.370 . S
C180 H191 0.948 . S
C181 N179 1.333 . S
C181 C182 1.379 . S
C181 H189 0.952 . S
C182 C181 1.379 . S
C182 C183 1.390 . S
C182 H202 0.949 . S
C183 C182 1.390 . S
C183 C184 1.357 . S
C184 C180 1.370 . S
C184 C183 1.357 . S
C184 H203 0.950 . S
Zn185 N179 2.020 . S
Zn185 O188 2.025 . S
Zn185 O193 2.024 . S
Zn185 O195 2.039 . S
Zn185 O197 2.034 . S
O186 C170 1.251 . S
O186 Zn177 2.039 . S
C187 O192 1.246 . S
C187 O193 1.249 . S
O188 C170 1.254 . S
O188 Zn185 2.025 . S
H189 C181 0.952 . S
H190 C172 0.952 1_554 S
H191 C180 0.948 . S
O192 Zn177 2.034 . S
O192 C187 1.246 . S
O193 Zn185 2.024 . S
O193 C187 1.249 . S
H194 C176 0.948 . S
O195 Zn185 2.039 . S
O195 C199 1.251 . S
O196 Zn177 2.025 . S
O196 C199 1.254 . S
O197 C178 1.246 . S
O197 Zn185 2.034 . S
O198 Zn177 2.024 . S
O198 C178 1.249 . S
C199 O195 1.251 . S
C199 O196 1.254 . S
H200 C173 0.949 . S
H201 C175 0.950 . S
H202 C182 0.949 . S
H203 C184 0.950 . S
C204 O220 1.251 . S
C204 O222 1.254 . S
N205 C206 1.333 . S
N205 C210 1.307 . S
N205 Zn211 2.020 . S
C206 N205 1.333 . S
C206 C207 1.379 . S
C206 H224 0.952 . S
C207 C206 1.379 . S
C207 C208 1.390 . S
C207 H234 0.949 . S
C208 C207 1.390 . S
C208 C209 1.357 . S
C209 C208 1.357 . S
C209 C210 1.370 . S
C209 H235 0.950 . S
C210 N205 1.307 . S
C210 C209 1.370 . S
C210 H228 0.948 . S
Zn211 N205 2.020 . S
Zn211 O220 2.039 . S
Zn211 O226 2.034 . S
Zn211 O230 2.025 . S
Zn211 O232 2.024 . S
C212 O231 1.246 . S
C212 O232 1.249 . S
N213 C214 1.307 1_545 S
N213 C215 1.327 1_545 S
N213 Zn219 2.020 . S
C214 N213 1.307 1_565 S
C214 C218 1.370 . S
C214 H225 0.950 . S
C215 N213 1.327 1_565 S
C215 C216 1.387 . S
C215 H223 0.949 1_565 S
C216 C215 1.387 . S
C216 C217 1.390 . S
C216 H236 0.949 . S
C217 C216 1.390 . S
C217 C218 1.357 . S
C218 C214 1.370 . S
C218 C217 1.357 . S
C218 H237 0.950 . S
Zn219 N213 2.020 . S
Zn219 O222 2.025 . S
Zn219 O227 2.024 . S
Zn219 O229 2.039 . S
Zn219 O231 2.034 . S
O220 C204 1.251 . S
O220 Zn211 2.039 . S
C221 O226 1.246 . S
C221 O227 1.249 . S
O222 C204 1.254 . S
O222 Zn219 2.025 . S
H223 C215 0.949 1_545 S
H224 C206 0.952 . S
H225 C214 0.950 . S
O226 Zn211 2.034 . S
O226 C221 1.246 . S
O227 Zn219 2.024 . S
O227 C221 1.249 . S
H228 C210 0.948 . S
O229 Zn219 2.039 . S
O229 C233 1.251 . S
O230 Zn211 2.025 . S
O230 C233 1.254 . S
O231 C212 1.246 . S
O231 Zn219 2.034 . S
O232 Zn211 2.024 . S
O232 C212 1.249 . S
C233 O229 1.251 . S
C233 O230 1.254 . S
H234 C207 0.949 . S
H235 C209 0.950 . S
H236 C216 0.949 . S
H237 C218 0.950 . S
C238 O254 1.251 . S
C238 O256 1.254 . S
N239 C240 1.333 . S
N239 C244 1.307 1_545 S
N239 Zn245 2.020 . S
C240 N239 1.333 . S
C240 C241 1.379 1_545 S
C240 H258 0.952 . S
C241 C240 1.379 1_565 S
C241 C242 1.390 . S
C241 H268 0.949 . S
C242 C241 1.390 . S
C242 C243 1.357 . S
C243 C242 1.357 . S
C243 C244 1.370 . S
C243 H269 0.950 . S
C244 N239 1.307 1_565 S
C244 C243 1.370 . S
C244 H262 0.948 1_565 S
Zn245 N239 2.020 . S
Zn245 O254 2.039 . S
Zn245 O260 2.034 . S
Zn245 O264 2.025 . S
Zn245 O266 2.024 . S
C246 O265 1.246 . S
C246 O266 1.249 . S
N247 C248 1.307 . S
N247 C249 1.333 . S
N247 Zn253 2.020 . S
C248 N247 1.307 . S
C248 C252 1.370 . S
C248 H259 0.948 . S
C249 N247 1.333 . S
C249 C250 1.379 . S
C249 H257 0.952 . S
C250 C249 1.379 . S
C250 C251 1.390 . S
C250 H270 0.949 1_655 S
C251 C250 1.390 . S
C251 C252 1.357 . S
C252 C248 1.370 . S
C252 C251 1.357 . S
C252 H271 0.950 . S
Zn253 N247 2.020 . S
Zn253 O256 2.025 . S
Zn253 O261 2.024 . S
Zn253 O263 2.039 . S
Zn253 O265 2.034 . S
O254 C238 1.251 . S
O254 Zn245 2.039 . S
C255 O260 1.246 . S
C255 O261 1.249 . S
O256 C238 1.254 . S
O256 Zn253 2.025 . S
H257 C249 0.952 . S
H258 C240 0.952 . S
H259 C248 0.948 . S
O260 Zn245 2.034 . S
O260 C255 1.246 . S
O261 Zn253 2.024 . S
O261 C255 1.249 . S
H262 C244 0.948 1_545 S
O263 Zn253 2.039 . S
O263 C267 1.251 . S
O264 Zn245 2.025 . S
O264 C267 1.254 . S
O265 C246 1.246 . S
O265 Zn253 2.034 . S
O266 Zn245 2.024 . S
O266 C246 1.249 . S
C267 O263 1.251 . S
C267 O264 1.254 . S
H268 C241 0.949 . S
H269 C243 0.950 . S
H270 C250 0.949 1_455 S
H271 C252 0.950 . S
C272 O288 1.251 . S
C272 O290 1.254 . S
N273 C274 1.333 . S
N273 C278 1.307 . S
N273 Zn279 2.020 . S
C274 N273 1.333 . S
C274 C275 1.379 . S
C274 H292 0.952 . S
C275 C274 1.379 . S
C275 C276 1.390 . S
C275 H302 0.949 1_655 S
C276 C275 1.390 . S
C276 C277 1.357 . S
C277 C276 1.357 . S
C277 C278 1.370 . S
C277 H303 0.950 . S
C278 N273 1.307 . S
C278 C277 1.370 . S
C278 H296 0.948 . S
Zn279 N273 2.020 . S
Zn279 O288 2.039 . S
Zn279 O294 2.034 . S
Zn279 O298 2.025 . S
Zn279 O300 2.024 . S
C280 O299 1.246 . S
C280 O300 1.249 . S
N281 C282 1.307 . S
N281 C283 1.333 . S
N281 Zn287 2.020 . S
C282 N281 1.307 . S
C282 C286 1.370 . S
C282 H293 0.948 . S
C283 N281 1.333 . S
C283 C284 1.379 . S
C283 H291 0.952 . S
C284 C283 1.379 . S
C284 C285 1.390 . S
C284 H304 0.949 . S
C285 C284 1.390 . S
C285 C286 1.357 . S
C286 C282 1.370 . S
C286 C285 1.357 . S
C286 H305 0.950 . S
Zn287 N281 2.020 . S
Zn287 O290 2.025 . S
Zn287 O295 2.024 . S
Zn287 O297 2.039 . S
Zn287 O299 2.034 . S
O288 C272 1.251 . S
O288 Zn279 2.039 . S
C289 O294 1.246 . S
C289 O295 1.249 . S
O290 C272 1.254 . S
O290 Zn287 2.025 . S
H291 C283 0.952 . S
H292 C274 0.952 . S
H293 C282 0.948 . S
O294 Zn279 2.034 . S
O294 C289 1.246 . S
O295 Zn287 2.024 . S
O295 C289 1.249 . S
H296 C278 0.948 . S
O297 Zn287 2.039 . S
O297 C301 1.251 . S
O298 Zn279 2.025 . S
O298 C301 1.254 . S
O299 C280 1.246 . S
O299 Zn287 2.034 . S
O300 Zn279 2.024 . S
O300 C280 1.249 . S
C301 O297 1.251 . S
C301 O298 1.254 . S
H302 C275 0.949 1_455 S
H303 C277 0.950 . S
H304 C284 0.949 . S
H305 C286 0.950 . S
C4 C13 4.717 1_455 S
C47 C38 4.318 . S
C72 C81 3.936 1_565 S
C115 C106 4.718 . S
C140 C149 4.318 . S
C183 C174 3.936 . S
C233 C204 5.152 . S
C238 C267 5.152 . S
C301 C272 5.152 . S
C187 C29 2.950 . S
C51 C119 2.999 . S
C97 C165 2.771 . S
C85 C212 2.587 . S
C251 C17 2.478 1_656 S
C280 C63 2.314 . S
C276 C0 2.183 1_656 S
C42 C208 2.113 . S
C255 C68 2.302 . S
C76 C102 2.950 . S
C144 C8 2.999 . S
C34 C170 2.771 . S
C285 C131 2.183 . S
C217 C153 2.113 . S
C246 C199 2.302 1_655 S
C221 C178 2.587 . S
C110 C242 2.479 . S
C289 C136 2.314 1_655 S
