# Generated by pormake.
# Topology afi, (4)-cn, num edge types: 1
# Building blocks:
#     Node 0, Type 0, BuildingBlock: TATPOV_clean_sbu_0, # of connection points: 4
#     Node 1, Type 0, BuildingBlock: TATPOV_clean_sbu_0, # of connection points: 4
#     Node 2, Type 0, BuildingBlock: TATPOV_clean_sbu_0, # of connection points: 4
#     Node 3, Type 0, BuildingBlock: TATPOV_clean_sbu_0, # of connection points: 4
#     Node 4, Type 0, BuildingBlock: TATPOV_clean_sbu_0, # of connection points: 4
#     Node 5, Type 0, BuildingBlock: TATPOV_clean_sbu_0, # of connection points: 4
#     Node 6, Type 0, BuildingBlock: TATPOV_clean_sbu_0, # of connection points: 4
#     Node 7, Type 0, BuildingBlock: TATPOV_clean_sbu_0, # of connection points: 4
#     Node 8, Type 0, BuildingBlock: TATPOV_clean_sbu_0, # of connection points: 4
#     Node 9, Type 0, BuildingBlock: TATPOV_clean_sbu_0, # of connection points: 4
#     Node 10, Type 0, BuildingBlock: TATPOV_clean_sbu_0, # of connection points: 4
#     Node 11, Type 0, BuildingBlock: TATPOV_clean_sbu_0, # of connection points: 4
#     Node 12, Type 0, BuildingBlock: TATPOV_clean_sbu_0, # of connection points: 4
#     Node 13, Type 0, BuildingBlock: TATPOV_clean_sbu_0, # of connection points: 4
#     Node 14, Type 0, BuildingBlock: TATPOV_clean_sbu_0, # of connection points: 4
#     Node 15, Type 0, BuildingBlock: TATPOV_clean_sbu_0, # of connection points: 4
#     Node 16, Type 0, BuildingBlock: TATPOV_clean_sbu_0, # of connection points: 4
#     Node 17, Type 0, BuildingBlock: TATPOV_clean_sbu_0, # of connection points: 4
#     Node 18, Type 0, BuildingBlock: TATPOV_clean_sbu_0, # of connection points: 4
#     Node 19, Type 0, BuildingBlock: TATPOV_clean_sbu_0, # of connection points: 4
#     Node 20, Type 0, BuildingBlock: TATPOV_clean_sbu_0, # of connection points: 4
#     Node 21, Type 0, BuildingBlock: TATPOV_clean_sbu_0, # of connection points: 4
#     Node 22, Type 0, BuildingBlock: TATPOV_clean_sbu_0, # of connection points: 4
#     Node 23, Type 0, BuildingBlock: TATPOV_clean_sbu_0, # of connection points: 4
#     Edge 24, Type (0, 0), BuildingBlock: XUDNAN_clean_linker_2, # of connection points: 2
#     Edge 25, Type (0, 0), BuildingBlock: XUDNAN_clean_linker_2, # of connection points: 2
#     Edge 26, Type (0, 0), BuildingBlock: XUDNAN_clean_linker_2, # of connection points: 2
#     Edge 27, Type (0, 0), BuildingBlock: XUDNAN_clean_linker_2, # of connection points: 2
#     Edge 28, Type (0, 0), BuildingBlock: XUDNAN_clean_linker_2, # of connection points: 2
#     Edge 29, Type (0, 0), BuildingBlock: XUDNAN_clean_linker_2, # of connection points: 2
#     Edge 30, Type (0, 0), BuildingBlock: XUDNAN_clean_linker_2, # of connection points: 2
#     Edge 31, Type (0, 0), BuildingBlock: XUDNAN_clean_linker_2, # of connection points: 2
#     Edge 32, Type (0, 0), BuildingBlock: XUDNAN_clean_linker_2, # of connection points: 2
#     Edge 33, Type (0, 0), BuildingBlock: XUDNAN_clean_linker_2, # of connection points: 2
#     Edge 34, Type (0, 0), BuildingBlock: XUDNAN_clean_linker_2, # of connection points: 2
#     Edge 35, Type (0, 0), BuildingBlock: XUDNAN_clean_linker_2, # of connection points: 2
#     Edge 36, Type (0, 0), BuildingBlock: XUDNAN_clean_linker_2, # of connection points: 2
#     Edge 37, Type (0, 0), BuildingBlock: XUDNAN_clean_linker_2, # of connection points: 2
#     Edge 38, Type (0, 0), BuildingBlock: XUDNAN_clean_linker_2, # of connection points: 2
#     Edge 39, Type (0, 0), BuildingBlock: XUDNAN_clean_linker_2, # of connection points: 2
#     Edge 40, Type (0, 0), BuildingBlock: XUDNAN_clean_linker_2, # of connection points: 2
#     Edge 41, Type (0, 0), BuildingBlock: XUDNAN_clean_linker_2, # of connection points: 2
#     Edge 42, Type (0, 0), BuildingBlock: XUDNAN_clean_linker_2, # of connection points: 2
#     Edge 43, Type (0, 0), BuildingBlock: XUDNAN_clean_linker_2, # of connection points: 2
#     Edge 44, Type (0, 0), BuildingBlock: XUDNAN_clean_linker_2, # of connection points: 2
#     Edge 45, Type (0, 0), BuildingBlock: XUDNAN_clean_linker_2, # of connection points: 2
#     Edge 46, Type (0, 0), BuildingBlock: XUDNAN_clean_linker_2, # of connection points: 2
#     Edge 47, Type (0, 0), BuildingBlock: XUDNAN_clean_linker_2, # of connection points: 2
#     Edge 48, Type (0, 0), BuildingBlock: XUDNAN_clean_linker_2, # of connection points: 2
#     Edge 49, Type (0, 0), BuildingBlock: XUDNAN_clean_linker_2, # of connection points: 2
#     Edge 50, Type (0, 0), BuildingBlock: XUDNAN_clean_linker_2, # of connection points: 2
#     Edge 51, Type (0, 0), BuildingBlock: XUDNAN_clean_linker_2, # of connection points: 2
#     Edge 52, Type (0, 0), BuildingBlock: XUDNAN_clean_linker_2, # of connection points: 2
#     Edge 53, Type (0, 0), BuildingBlock: XUDNAN_clean_linker_2, # of connection points: 2
#     Edge 54, Type (0, 0), BuildingBlock: XUDNAN_clean_linker_2, # of connection points: 2
#     Edge 55, Type (0, 0), BuildingBlock: XUDNAN_clean_linker_2, # of connection points: 2
#     Edge 56, Type (0, 0), BuildingBlock: XUDNAN_clean_linker_2, # of connection points: 2
#     Edge 57, Type (0, 0), BuildingBlock: XUDNAN_clean_linker_2, # of connection points: 2
#     Edge 58, Type (0, 0), BuildingBlock: XUDNAN_clean_linker_2, # of connection points: 2
#     Edge 59, Type (0, 0), BuildingBlock: XUDNAN_clean_linker_2, # of connection points: 2
#     Edge 60, Type (0, 0), BuildingBlock: XUDNAN_clean_linker_2, # of connection points: 2
#     Edge 61, Type (0, 0), BuildingBlock: XUDNAN_clean_linker_2, # of connection points: 2
#     Edge 62, Type (0, 0), BuildingBlock: XUDNAN_clean_linker_2, # of connection points: 2
#     Edge 63, Type (0, 0), BuildingBlock: XUDNAN_clean_linker_2, # of connection points: 2
#     Edge 64, Type (0, 0), BuildingBlock: XUDNAN_clean_linker_2, # of connection points: 2
#     Edge 65, Type (0, 0), BuildingBlock: XUDNAN_clean_linker_2, # of connection points: 2
#     Edge 66, Type (0, 0), BuildingBlock: XUDNAN_clean_linker_2, # of connection points: 2
#     Edge 67, Type (0, 0), BuildingBlock: XUDNAN_clean_linker_2, # of connection points: 2
#     Edge 68, Type (0, 0), BuildingBlock: XUDNAN_clean_linker_2, # of connection points: 2
#     Edge 69, Type (0, 0), BuildingBlock: XUDNAN_clean_linker_2, # of connection points: 2
#     Edge 70, Type (0, 0), BuildingBlock: XUDNAN_clean_linker_2, # of connection points: 2
#     Edge 71, Type (0, 0), BuildingBlock: XUDNAN_clean_linker_2, # of connection points: 2
# Relax obj value: 0.050
# Max RMSD: 0.066
# Mean RMSD: 0.066
data_MOF--net-afi--node1-TATPOV_clean_sbu_0--edge1-XUDNAN_clean_linker_2
_symmetry_space_group_name_H-M    P1
_symmetry_Int_Tables_number       1
_symmetry_cell_setting            triclinic
loop_
_symmetry_equiv_pos_as_xyz
'x, y, z'
_cell_length_a     65.760347
_cell_length_b     65.726964
_cell_length_c     40.611424
_cell_angle_alpha  90.030702
_cell_angle_beta   89.879755
_cell_angle_gamma 119.89973
loop_
_atom_site_label
_atom_site_type_symbol
_atom_site_fract_x
_atom_site_fract_y
_atom_site_fract_z
_atom_type_partial_charge
Zn0 Zn 0.38691 0.06727 0.2978 0.0
Zn1 Zn 0.38108 0.06867 0.23378 0.0
O2 O 0.35698 0.03388 0.2462 0.0
O3 O 0.36346 0.03353 0.29934 0.0
O4 O 0.37778 0.07124 0.18369 0.0
O5 O 0.37683 0.09029 0.30743 0.0
O6 O 0.37362 0.0936 0.25398 0.0
C7 C 0.35254 0.02289 0.27363 0.0
C8 C 0.42897 0.08003 0.26422 0.0
O9 O 0.41582 0.07687 0.23938 0.0
O10 O 0.4208 0.07757 0.29306 0.0
C11 C 0.38597 0.0629 0.1624 0.0
O12 O 0.39651 0.05157 0.17271 0.0
C13 C 0.37229 0.09963 0.28352 0.0
Zn14 Zn 0.33592 0.48055 0.28054 0.0
Zn15 Zn 0.33085 0.4692 0.22138 0.0
O16 O 0.34366 0.44804 0.23997 0.0
O17 O 0.3516 0.46226 0.29029 0.0
O18 O 0.32779 0.4643 0.17081 0.0
O19 O 0.30272 0.46577 0.29157 0.0
O20 O 0.29623 0.45643 0.23911 0.0
C21 C 0.35169 0.44842 0.26877 0.0
C22 C 0.36325 0.52067 0.24858 0.0
O23 O 0.35596 0.50531 0.22557 0.0
O24 O 0.35503 0.51466 0.27726 0.0
C25 C 0.34225 0.46062 0.15452 0.0
O26 O 0.35876 0.45913 0.17064 0.0
C27 C 0.28849 0.45582 0.2683 0.0
Zn28 Zn 0.86183 0.35728 0.27011 0.0
Zn29 Zn 0.85851 0.35261 0.20465 0.0
O30 O 0.88308 0.34261 0.21797 0.0
O31 O 0.88593 0.3477 0.27173 0.0
O32 O 0.85512 0.34797 0.15435 0.0
O33 O 0.82839 0.33309 0.27644 0.0
O34 O 0.82471 0.33063 0.22236 0.0
C35 C 0.892 0.34174 0.24554 0.0
C36 C 0.87302 0.4002 0.23809 0.0
O37 O 0.86915 0.38783 0.21211 0.0
O38 O 0.87102 0.39105 0.26617 0.0
C39 C 0.86889 0.36303 0.13339 0.0
O40 O 0.88656 0.38283 0.14407 0.0
C41 C 0.81579 0.32456 0.25114 0.0
Zn42 Zn 0.58102 0.91595 0.28293 0.0
Zn43 Zn 0.58384 0.91404 0.21971 0.0
O44 O 0.60896 0.94881 0.2316 0.0
O45 O 0.60388 0.94961 0.28506 0.0
O46 O 0.58444 0.91291 0.16854 0.0
O47 O 0.59193 0.89373 0.29129 0.0
O48 O 0.59151 0.88838 0.23766 0.0
C49 C 0.61416 0.96003 0.25888 0.0
C50 C 0.53765 0.90334 0.25624 0.0
O51 O 0.5496 0.90674 0.22986 0.0
O52 O 0.54707 0.90518 0.28396 0.0
C53 C 0.57903 0.92671 0.15389 0.0
O54 O 0.57409 0.9402 0.17218 0.0
C55 C 0.59466 0.88333 0.26702 0.0
Zn56 Zn 0.63416 0.50755 0.27284 0.0
Zn57 Zn 0.64433 0.51229 0.2107 0.0
O58 O 0.63595 0.53842 0.22129 0.0
O59 O 0.62449 0.53164 0.2731 0.0
O60 O 0.65113 0.51554 0.16052 0.0
O61 O 0.66643 0.51648 0.28585 0.0
O62 O 0.67624 0.52057 0.23334 0.0
C63 C 0.62816 0.54348 0.24706 0.0
C64 C 0.60595 0.46498 0.24226 0.0
O65 O 0.61698 0.47722 0.21701 0.0
O66 O 0.61056 0.47429 0.27044 0.0
C67 C 0.63505 0.5057 0.13885 0.0
O68 O 0.6132 0.49283 0.14872 0.0
C69 C 0.68176 0.5215 0.26375 0.0
Zn70 Zn 0.1121 0.63302 0.27682 0.0
Zn71 Zn 0.11244 0.62893 0.21481 0.0
O72 O 0.08871 0.64118 0.22472 0.0
O73 O 0.09112 0.64596 0.27848 0.0
O74 O 0.11201 0.62617 0.164 0.0
O75 O 0.14592 0.65421 0.28097 0.0
O76 O 0.14766 0.6524 0.22697 0.0
C77 C 0.08252 0.64714 0.25131 0.0
C78 C 0.096 0.58612 0.26132 0.0
O79 O 0.10096 0.59462 0.23216 0.0
O80 O 0.09884 0.59938 0.28546 0.0
C81 C 0.09276 0.61124 0.15063 0.0
O82 O 0.07469 0.59863 0.16991 0.0
C83 C 0.15778 0.66032 0.2547 0.0
Zn84 Zn 0.89032 0.59932 0.26756 0.0
Zn85 Zn 0.89419 0.58979 0.32812 0.0
O86 O 0.9259 0.6191 0.31349 0.0
O87 O 0.91998 0.62954 0.26465 0.0
O88 O 0.89748 0.58665 0.37819 0.0
O89 O 0.85988 0.59807 0.27202 0.0
O90 O 0.86172 0.58819 0.32316 0.0
C91 C 0.93356 0.63276 0.28848 0.0
C92 C 0.89131 0.55588 0.27568 0.0
O93 O 0.89236 0.56052 0.3064 0.0
O94 O 0.89058 0.56979 0.25476 0.0
C95 C 0.89237 0.59791 0.39914 0.0
O96 O 0.885 0.61195 0.38831 0.0
C97 C 0.85052 0.59151 0.30004 0.0
Zn98 Zn 0.32793 0.84086 0.281 0.0
Zn99 Zn 0.33201 0.8409 0.34011 0.0
O100 O 0.31794 0.86267 0.32944 0.0
O101 O 0.30513 0.85216 0.27901 0.0
O102 O 0.33357 0.84079 0.39109 0.0
O103 O 0.31714 0.80751 0.2735 0.0
O104 O 0.31015 0.80547 0.32664 0.0
C105 C 0.30676 0.86389 0.30447 0.0
C106 C 0.37509 0.86484 0.29481 0.0
O107 O 0.36682 0.85543 0.32288 0.0
O108 O 0.3612 0.86336 0.27231 0.0
C109 C 0.33919 0.85951 0.40726 0.0
O110 O 0.34455 0.87874 0.39077 0.0
C111 C 0.30788 0.7953 0.29889 0.0
Zn112 Zn 0.40735 0.29768 0.27076 0.0
Zn113 Zn 0.42083 0.30436 0.33473 0.0
O114 O 0.40271 0.32224 0.32867 0.0
O115 O 0.3905 0.31569 0.27723 0.0
O116 O 0.42893 0.30767 0.38416 0.0
O117 O 0.39113 0.26301 0.27545 0.0
O118 O 0.40216 0.26831 0.32745 0.0
C119 C 0.39189 0.32527 0.3048 0.0
C120 C 0.45749 0.32407 0.27872 0.0
O121 O 0.45258 0.32144 0.30948 0.0
O122 O 0.44123 0.31518 0.25758 0.0
C123 C 0.41295 0.30192 0.40594 0.0
O124 O 0.39126 0.29409 0.3962 0.0
C125 C 0.39174 0.25466 0.30322 0.0
Zn126 Zn 0.08245 0.39266 0.26843 0.0
Zn127 Zn 0.07817 0.38995 0.33407 0.0
O128 O 0.0463 0.36281 0.31678 0.0
O129 O 0.05168 0.3634 0.26314 0.0
O130 O 0.07685 0.38779 0.38489 0.0
O131 O 0.11206 0.39188 0.26797 0.0
O132 O 0.10913 0.39006 0.32204 0.0
C133 C 0.03865 0.35453 0.28808 0.0
C134 C 0.08193 0.43237 0.29691 0.0
O135 O 0.07986 0.42145 0.32381 0.0
O136 O 0.08361 0.42385 0.26975 0.0
C137 C 0.09295 0.4049 0.40095 0.0
O138 O 0.10924 0.42276 0.38429 0.0
C139 C 0.12031 0.39111 0.29569 0.0
Zn140 Zn 0.64237 0.14652 0.27047 0.0
Zn141 Zn 0.63697 0.1429 0.33068 0.0
O142 O 0.65003 0.12059 0.31806 0.0
O143 O 0.66217 0.13176 0.26738 0.0
O144 O 0.63158 0.13929 0.38096 0.0
O145 O 0.65683 0.1808 0.26928 0.0
O146 O 0.66082 0.17881 0.32273 0.0
C147 C 0.66041 0.11933 0.29209 0.0
C148 C 0.59508 0.12492 0.28223 0.0
O149 O 0.60313 0.1311 0.31143 0.0
O150 O 0.60897 0.12786 0.25887 0.0
C151 C 0.64761 0.1445 0.40239 0.0
O152 O 0.66935 0.15285 0.39236 0.0
C153 C 0.6651 0.19094 0.29636 0.0
Zn154 Zn 0.56746 0.68706 0.26877 0.0
Zn155 Zn 0.55799 0.67899 0.32949 0.0
O156 O 0.58065 0.66575 0.31893 0.0
O157 O 0.59223 0.67868 0.26851 0.0
O158 O 0.55136 0.67418 0.37978 0.0
O159 O 0.57614 0.71999 0.26897 0.0
O160 O 0.57156 0.71542 0.32268 0.0
C161 C 0.5933 0.668 0.29367 0.0
C162 C 0.51977 0.65404 0.27629 0.0
O163 O 0.5252 0.65835 0.30677 0.0
O164 O 0.53546 0.66381 0.25451 0.0
C165 C 0.56749 0.68194 0.40159 0.0
O166 O 0.58948 0.6932 0.39187 0.0
C167 C 0.57705 0.72853 0.29709 0.0
Zn168 Zn 0.58988 0.90373 0.78675 0.0
Zn169 Zn 0.58276 0.90241 0.84582 0.0
O170 O 0.60782 0.93709 0.83243 0.0
O171 O 0.62011 0.9332 0.78385 0.0
O172 O 0.58067 0.90371 0.89679 0.0
O173 O 0.58901 0.87385 0.78188 0.0
O174 O 0.59048 0.87518 0.83601 0.0
C175 C 0.62159 0.94615 0.80774 0.0
C176 C 0.5453 0.89818 0.79792 0.0
O177 O 0.54981 0.89468 0.82735 0.0
O178 O 0.56092 0.90442 0.77595 0.0
C179 C 0.5767 0.91925 0.90908 0.0
O180 O 0.57371 0.93308 0.88873 0.0
C181 C 0.59073 0.86537 0.80884 0.0
Zn182 Zn 0.64254 0.49726 0.7645 0.0
Zn183 Zn 0.64852 0.50779 0.82345 0.0
O184 O 0.63078 0.52485 0.80704 0.0
O185 O 0.61978 0.50846 0.75824 0.0
O186 O 0.65354 0.514 0.87362 0.0
O187 O 0.6748 0.51829 0.75032 0.0
O188 O 0.68282 0.52461 0.80309 0.0
C189 C 0.61961 0.52206 0.78012 0.0
C190 C 0.62385 0.45611 0.79682 0.0
O191 O 0.62769 0.47078 0.82004 0.0
O192 O 0.6315 0.46357 0.76827 0.0
C193 C 0.63728 0.50333 0.89492 0.0
O194 O 0.61614 0.48806 0.88461 0.0
C195 C 0.68965 0.52798 0.77299 0.0
Zn196 Zn 0.10815 0.6118 0.77992 0.0
Zn197 Zn 0.11434 0.61999 0.84157 0.0
O198 O 0.0884 0.62835 0.82803 0.0
O199 O 0.08375 0.62049 0.77503 0.0
O200 O 0.11506 0.62244 0.89249 0.0
O201 O 0.14099 0.63554 0.77034 0.0
O202 O 0.14738 0.64489 0.82289 0.0
C203 C 0.07846 0.6277 0.80068 0.0
C204 C 0.10129 0.5714 0.80922 0.0
O205 O 0.10683 0.58506 0.83416 0.0
O206 O 0.09961 0.5787 0.7812 0.0
C207 C 0.09588 0.60741 0.90607 0.0
O208 O 0.07861 0.59304 0.88679 0.0
C209 C 0.15463 0.64806 0.79301 0.0
Zn210 Zn 0.39033 0.07613 0.78184 0.0
Zn211 Zn 0.38886 0.07829 0.84766 0.0
O212 O 0.36726 0.04297 0.83627 0.0
O213 O 0.36688 0.04206 0.78204 0.0
O214 O 0.38618 0.07999 0.89804 0.0
O215 O 0.38085 0.10029 0.77604 0.0
O216 O 0.37835 0.1014 0.83007 0.0
C217 C 0.36021 0.03149 0.80933 0.0
C218 C 0.43512 0.09163 0.81132 0.0
O219 O 0.42406 0.08995 0.83804 0.0
O220 O 0.42439 0.08621 0.78409 0.0
C221 C 0.39246 0.06968 0.91888 0.0
O222 O 0.40156 0.0571 0.90807 0.0
C223 C 0.37655 0.10854 0.80153 0.0
Zn224 Zn 0.33013 0.47792 0.77741 0.0
Zn225 Zn 0.33343 0.46882 0.83954 0.0
O226 O 0.34544 0.44905 0.81501 0.0
O227 O 0.34201 0.45661 0.7631 0.0
O228 O 0.33641 0.46328 0.88898 0.0
O229 O 0.29592 0.46539 0.78005 0.0
O230 O 0.29749 0.45462 0.83091 0.0
C231 C 0.34751 0.44611 0.78431 0.0
C232 C 0.36206 0.51921 0.8087 0.0
O233 O 0.35626 0.50503 0.83308 0.0
O234 O 0.35246 0.51183 0.78103 0.0
C235 C 0.32716 0.46864 0.9127 0.0
O236 O 0.31427 0.47823 0.90594 0.0
C237 C 0.28559 0.45487 0.80619 0.0
Zn238 Zn 0.86755 0.36643 0.7546 0.0
Zn239 Zn 0.86134 0.35649 0.81847 0.0
O240 O 0.88768 0.34922 0.80483 0.0
O241 O 0.89283 0.35838 0.75207 0.0
O242 O 0.85674 0.34982 0.8683 0.0
O243 O 0.8347 0.34193 0.74484 0.0
O244 O 0.82946 0.3325 0.79749 0.0
C245 C 0.89803 0.35084 0.77746 0.0
C246 C 0.87418 0.40568 0.79042 0.0
O247 O 0.86911 0.39139 0.81446 0.0
O248 O 0.87517 0.39917 0.76148 0.0
C249 C 0.87019 0.36456 0.88977 0.0
O250 O 0.88783 0.38463 0.8797 0.0
C251 C 0.82173 0.32916 0.76797 0.0
Zn252 Zn 0.07848 0.3696 0.7754 0.0
Zn253 Zn 0.0853 0.38535 0.71584 0.0
O254 O 0.0502 0.35883 0.72008 0.0
O255 O 0.04635 0.34322 0.76914 0.0
O256 O 0.09048 0.39389 0.66637 0.0
O257 O 0.10495 0.36374 0.77797 0.0
O258 O 0.11392 0.38127 0.7297 0.0
C259 C 0.03741 0.34389 0.74198 0.0
C260 C 0.08708 0.41742 0.77035 0.0
O261 O 0.08843 0.41441 0.73952 0.0
O262 O 0.0832 0.40112 0.79046 0.0
C263 C 0.07884 0.38025 0.64268 0.0
O264 O 0.06199 0.35886 0.64943 0.0
C265 C 0.11915 0.37255 0.75426 0.0
Zn266 Zn 0.64272 0.13926 0.77941 0.0
Zn267 Zn 0.63355 0.13425 0.71725 0.0
O268 O 0.63886 0.10615 0.72948 0.0
O269 O 0.64276 0.1094 0.78344 0.0
O270 O 0.62727 0.13123 0.66713 0.0
O271 O 0.67242 0.16903 0.77436 0.0
O272 O 0.66341 0.16734 0.72192 0.0
C273 C 0.6415 0.09852 0.75721 0.0
C274 C 0.59899 0.1355 0.76855 0.0
O275 O 0.60324 0.13193 0.73896 0.0
O276 O 0.61408 0.14011 0.79077 0.0
C277 C 0.64378 0.13745 0.64606 0.0
O278 O 0.66531 0.1456 0.65674 0.0
C279 C 0.67694 0.17821 0.74606 0.0
Zn280 Zn 0.56598 0.67279 0.77739 0.0
Zn281 Zn 0.55452 0.67167 0.71729 0.0
O282 O 0.57035 0.65069 0.72096 0.0
O283 O 0.58008 0.65279 0.77315 0.0
O284 O 0.54842 0.67169 0.66712 0.0
O285 O 0.58652 0.70667 0.7811 0.0
O286 O 0.57341 0.70752 0.73159 0.0
C287 C 0.57923 0.64484 0.74461 0.0
C288 C 0.51637 0.65129 0.77043 0.0
O289 O 0.52154 0.65451 0.73977 0.0
O290 O 0.53255 0.65837 0.79163 0.0
C291 C 0.56483 0.67832 0.64576 0.0
O292 O 0.58636 0.68596 0.6561 0.0
C293 C 0.58531 0.71826 0.75722 0.0
Zn294 Zn 0.89618 0.60782 0.777 0.0
Zn295 Zn 0.89765 0.5976 0.71476 0.0
O296 O 0.93128 0.62357 0.72838 0.0
O297 O 0.92844 0.63531 0.77801 0.0
O298 O 0.89955 0.59292 0.66473 0.0
O299 O 0.86807 0.61115 0.77289 0.0
O300 O 0.86814 0.60139 0.72105 0.0
C301 C 0.94088 0.63668 0.75344 0.0
C302 C 0.89018 0.56145 0.7668 0.0
O303 O 0.89177 0.56685 0.73634 0.0
O304 O 0.89166 0.57592 0.7886 0.0
C305 C 0.89415 0.60332 0.64281 0.0
O306 O 0.88707 0.61791 0.65228 0.0
C307 C 0.85851 0.60622 0.74488 0.0
Zn308 Zn 0.33606 0.8364 0.78738 0.0
Zn309 Zn 0.33506 0.84354 0.72276 0.0
O310 O 0.32823 0.86829 0.74468 0.0
O311 O 0.32851 0.86145 0.79775 0.0
O312 O 0.3353 0.84996 0.67286 0.0
O313 O 0.31001 0.8038 0.78377 0.0
O314 O 0.30838 0.80882 0.73033 0.0
C315 C 0.32604 0.87292 0.77465 0.0
C316 C 0.37988 0.84984 0.75814 0.0
O317 O 0.36903 0.85043 0.73238 0.0
O318 O 0.36931 0.8438 0.78551 0.0
C319 C 0.33264 0.836 0.64924 0.0
O320 O 0.32894 0.81489 0.65613 0.0
C321 C 0.30065 0.79594 0.75608 0.0
Zn322 Zn 0.42157 0.30943 0.78503 0.0
Zn323 Zn 0.42651 0.30708 0.72073 0.0
O324 O 0.41054 0.32763 0.72648 0.0
O325 O 0.40666 0.32885 0.78019 0.0
O326 O 0.43095 0.30652 0.67052 0.0
O327 O 0.40163 0.27491 0.78831 0.0
O328 O 0.40637 0.27186 0.73513 0.0
C329 C 0.40397 0.33466 0.7516 0.0
C330 C 0.46937 0.32928 0.76793 0.0
O331 O 0.46068 0.32321 0.73906 0.0
O332 O 0.45607 0.32525 0.79253 0.0
C333 C 0.41483 0.30216 0.6496 0.0
O334 O 0.394 0.29719 0.66035 0.0
C335 C 0.3978 0.26232 0.763 0.0
H336 H 0.34609 -0.00498 0.32641 0.0
H337 H 0.32248 -0.00712 0.22612 0.0
H338 H 0.29884 0.94955 0.22969 0.0
H339 H 0.35767 0.95143 0.31786 0.0
H340 H 0.34903 0.93944 0.35874 0.0
H341 H 0.35846 0.96976 0.35146 0.0
H342 H 0.31932 0.96373 0.37574 0.0
H343 H 0.30969 0.93317 0.38292 0.0
H344 H 0.29185 0.94135 0.35891 0.0
H345 H 0.28354 0.90703 0.24085 0.0
H346 H 0.28245 0.87011 0.25472 0.0
H347 H 0.31793 0.90033 0.3469 0.0
C348 C 0.33535 0.98559 0.30547 0.0
C349 C 0.33598 -0.00264 0.27603 0.0
C350 C 0.32213 0.98424 0.24898 0.0
C351 C 0.3085 0.95965 0.25094 0.0
C352 C 0.30889 0.94857 0.28013 0.0
C353 C 0.32205 0.9612 0.30689 0.0
C354 C 0.32302 0.94538 0.33317 0.0
C355 C 0.34854 0.95188 0.3407 0.0
C356 C 0.3102 0.94594 0.36454 0.0
C357 C 0.3097 0.9219 0.31612 0.0
C358 C 0.30084 0.92396 0.28616 0.0
C359 C 0.29004 0.90516 0.26445 0.0
C360 C 0.28954 0.88421 0.2726 0.0
C361 C 0.30031 0.88242 0.30185 0.0
C362 C 0.30929 0.90107 0.32464 0.0
H363 H 0.36984 0.33705 0.25754 0.0
H364 H 0.39616 0.35294 0.3578 0.0
H365 H 0.38831 0.38592 0.35898 0.0
H366 H 0.39469 0.39495 0.23018 0.0
H367 H 0.37034 0.3904 0.20476 0.0
H368 H 0.3757 0.3665 0.21242 0.0
H369 H 0.33351 0.34113 0.23519 0.0
H370 H 0.32784 0.36478 0.22701 0.0
H371 H 0.32339 0.35251 0.26783 0.0
H372 H 0.38142 0.41901 0.34765 0.0
H373 H 0.37172 0.44821 0.32716 0.0
H374 H 0.34925 0.41095 0.23398 0.0
C375 C 0.37351 0.34713 0.28003 0.0
C376 C 0.38364 0.3424 0.30762 0.0
C377 C 0.38832 0.35615 0.33644 0.0
C378 C 0.38401 0.37498 0.33729 0.0
C379 C 0.37488 0.37967 0.30923 0.0
C380 C 0.3693 0.36595 0.28132 0.0
C381 C 0.36031 0.37526 0.25419 0.0
C382 C 0.37621 0.38219 0.22359 0.0
C383 C 0.33474 0.35735 0.24556 0.0
C384 C 0.36211 0.39665 0.27106 0.0
C385 C 0.3706 0.39879 0.30276 0.0
C386 C 0.37447 0.41737 0.32305 0.0
C387 C 0.36897 0.43393 0.31101 0.0
C388 C 0.35956 0.43184 0.27893 0.0
C389 C 0.35639 0.41305 0.25856 0.0
H390 H 0.91674 0.34332 0.29997 0.0
H391 H 0.90863 0.3247 0.19638 0.0
H392 H 0.9411 0.316 0.20089 0.0
H393 H 0.97575 0.37492 0.29934 0.0
H394 H 0.97993 0.36668 0.34002 0.0
H395 H 0.95307 0.36604 0.33011 0.0
H396 H 0.92968 0.32231 0.3478 0.0
H397 H 0.9567 0.32281 0.35733 0.0
H398 H 0.93614 0.30133 0.32896 0.0
H399 H 0.97791 0.31544 0.21459 0.0
H400 H 0.01805 0.32807 0.23336 0.0
H401 H 0.00233 0.34771 0.3279 0.0
C402 C 0.92128 0.33678 0.27833 0.0
C403 C 0.91001 0.33454 0.24782 0.0
C404 C 0.91692 0.32644 0.22004 0.0
C405 C 0.93519 0.32125 0.22248 0.0
C406 C 0.9462 0.32409 0.25291 0.0
C407 C 0.93948 0.33175 0.28032 0.0
C408 C 0.95618 0.33695 0.30879 0.0
C409 C 0.96687 0.36266 0.32018 0.0
C410 C 0.94394 0.31982 0.33741 0.0
C411 C 0.97428 0.33243 0.29261 0.0
C412 C 0.96779 0.32423 0.26074 0.0
C413 C 0.98293 0.32141 0.23966 0.0
C414 C 0.00572 0.32859 0.25061 0.0
C415 C 0.0133 0.33887 0.28215 0.0
C416 C -0.0031 0.33942 0.30401 0.0
H417 H 0.62257 0.98803 0.31211 0.0
H418 H 0.64224 0.98999 0.20961 0.0
H419 H 0.66555 0.03337 0.21253 0.0
H420 H 0.60983 0.03093 0.30652 0.0
H421 H 0.61995 0.04325 0.34688 0.0
H422 H 0.61069 0.01298 0.33946 0.0
H423 H 0.65094 0.01975 0.35983 0.0
H424 H 0.66039 0.05025 0.36725 0.0
H425 H 0.67755 0.04233 0.34111 0.0
H426 H 0.68091 0.07589 0.22396 0.0
H427 H 0.68243 0.11276 0.23943 0.0
H428 H 0.65035 0.08259 0.33363 0.0
C429 C 0.63239 -0.00256 0.29047 0.0
C430 C 0.63074 0.98559 0.26065 0.0
C431 C 0.64341 -0.00132 0.23277 0.0
C432 C 0.65683 0.0233 0.23433 0.0
C433 C 0.65741 0.03444 0.26395 0.0
C434 C 0.64543 0.02184 0.29151 0.0
C435 C 0.64522 0.03765 0.31848 0.0
C436 C 0.61993 0.0308 0.32836 0.0
C437 C 0.65937 0.03748 0.34844 0.0
C438 C 0.65755 0.06106 0.30105 0.0
C439 C 0.66533 0.059 0.27016 0.0
C440 C 0.67522 0.07775 0.24824 0.0
C441 C 0.67596 0.09867 0.25731 0.0
C442 C 0.66628 0.10048 0.28771 0.0
C443 C 0.65812 0.08183 0.31046 0.0
H444 H 0.58361 0.62632 0.32254 0.0
H445 H 0.63144 0.68032 0.25518 0.0
H446 H 0.64608 0.65436 0.23625 0.0
H447 H 0.62358 0.60202 0.34193 0.0
H448 H 0.59914 0.57245 0.34364 0.0
H449 H 0.59521 0.5967 0.35545 0.0
H450 H 0.56135 0.58281 0.31328 0.0
H451 H 0.56566 0.559 0.30054 0.0
H452 H 0.5669 0.5798 0.27055 0.0
H453 H 0.65081 0.62059 0.21801 0.0
H454 H 0.65066 0.58324 0.20924 0.0
H455 H 0.60057 0.55154 0.28913 0.0
C456 C 0.5979 0.63303 0.30494 0.0
C457 C 0.60646 0.65533 0.29042 0.0
C458 C 0.6247 0.66328 0.26669 0.0
C459 C 0.63305 0.64863 0.25563 0.0
C460 C 0.62319 0.62617 0.26882 0.0
C461 C 0.6065 0.61858 0.29361 0.0
C462 C 0.59793 0.59316 0.30224 0.0
C463 C 0.60436 0.59096 0.33793 0.0
C464 C 0.57139 0.5778 0.29628 0.0
C465 C 0.61189 0.58756 0.27782 0.0
C466 C 0.62628 0.60679 0.25866 0.0
C467 C 0.63993 0.6055 0.23327 0.0
C468 C 0.63952 0.58417 0.22816 0.0
C469 C 0.62568 0.56458 0.24854 0.0
C470 C 0.61146 0.5663 0.27329 0.0
H471 H 0.05644 0.64492 0.30414 0.0
H472 H 0.06558 0.66237 0.20017 0.0
H473 H 0.03229 0.67008 0.20294 0.0
H474 H -0.00278 0.61175 0.30133 0.0
H475 H -0.00798 0.61968 0.3417 0.0
H476 H 0.01935 0.62095 0.33284 0.0
H477 H 0.0417 0.66465 0.35075 0.0
H478 H 0.01424 0.66353 0.35925 0.0
H479 H 0.03506 0.68531 0.33134 0.0
H480 H -0.00446 0.67151 0.21605 0.0
H481 H 0.95542 0.6595 0.23412 0.0
H482 H 0.96941 0.63853 0.32884 0.0
C483 C 0.05198 0.65108 0.28207 0.0
C484 C 0.06386 0.65346 0.25201 0.0
C485 C 0.05686 0.66068 0.22349 0.0
C486 C 0.03814 0.6653 0.22498 0.0
C487 C 0.02667 0.66251 0.25511 0.0
C488 C 0.03324 0.65529 0.28303 0.0
C489 C 0.01597 0.64969 0.31096 0.0
C490 C 0.00552 0.62401 0.32233 0.0
C491 C 0.02743 0.66683 0.33978 0.0
C492 C -0.00211 0.65379 0.29403 0.0
C493 C 0.00481 0.66205 0.26225 0.0
C494 C -0.0099 0.66527 0.24095 0.0
C495 C 0.96729 0.65843 0.25157 0.0
C496 C 0.95913 0.6478 0.28288 0.0
C497 C 0.97514 0.64678 0.30496 0.0
H498 H 0.61745 0.97996 0.84178 0.0
H499 H 0.65416 0.97004 0.75995 0.0
H500 H 0.66559 0.00953 0.73936 0.0
H501 H 0.59277 0.00576 0.79938 0.0
H502 H 0.59585 0.02708 0.82983 0.0
H503 H 0.59447 0.00022 0.84248 0.0
H504 H 0.63422 0.02335 0.87277 0.0
H505 H 0.63543 0.0504 0.86117 0.0
H506 H 0.65942 0.04563 0.85097 0.0
H507 H 0.66546 0.04609 0.7211 0.0
H508 H 0.66058 0.08087 0.71302 0.0
H509 H 0.62574 0.06761 0.80782 0.0
C510 C 0.62885 0.98651 0.82046 0.0
C511 C 0.6348 0.97184 0.80245 0.0
C512 C 0.64934 0.98094 0.7742 0.0
C513 C 0.65587 0.00335 0.76217 0.0
C514 C 0.64817 0.01667 0.77907 0.0
C515 C 0.63566 0.00894 0.80823 0.0
C516 C 0.62811 0.02593 0.82036 0.0
C517 C 0.60121 0.01403 0.82316 0.0
C518 C 0.64001 0.03699 0.85327 0.0
C519 C 0.63739 0.04378 0.79276 0.0
C520 C 0.64888 0.03818 0.7691 0.0
C521 C 0.65707 0.05104 0.7399 0.0
C522 C 0.65399 0.07054 0.7353 0.0
C523 C 0.64303 0.07697 0.75992 0.0
C524 C 0.63457 0.0633 0.78883 0.0
H525 H 0.62565 0.56185 0.81154 0.0
H526 H 0.59043 0.51583 0.72873 0.0
H527 H 0.57824 0.54344 0.70855 0.0
H528 H 0.58234 0.5806 0.82408 0.0
H529 H 0.60434 0.61009 0.83488 0.0
H530 H 0.60926 0.586 0.84335 0.0
H531 H 0.64818 0.60713 0.81032 0.0
H532 H 0.64307 0.63101 0.80106 0.0
H533 H 0.64773 0.61539 0.76811 0.0
H534 H 0.57162 0.57715 0.69551 0.0
H535 H 0.56654 0.61206 0.69523 0.0
H536 H 0.60614 0.63577 0.7862 0.0
C537 C 0.61497 0.55734 0.78956 0.0
C538 C 0.60905 0.53669 0.77174 0.0
C539 C 0.59525 0.53158 0.74283 0.0
C540 C 0.58832 0.5472 0.73101 0.0
C541 C 0.59523 0.56785 0.74841 0.0
C542 C 0.60789 0.57276 0.77736 0.0
C543 C 0.61302 0.59617 0.79135 0.0
C544 C 0.60155 0.59302 0.82542 0.0
C545 C 0.63958 0.61344 0.79278 0.0
C546 C 0.6013 0.60359 0.76574 0.0
C547 C 0.5913 0.58715 0.74099 0.0
C548 C 0.57932 0.59016 0.71481 0.0
C549 C 0.57671 0.61012 0.71465 0.0
C550 C 0.58592 0.6266 0.74065 0.0
C551 C 0.59889 0.62349 0.76594 0.0
H552 H 0.97233 0.63104 0.71617 0.0
H553 H 0.96697 0.66626 0.80334 0.0
H554 H 0.00499 0.67213 0.82274 0.0
H555 H -0.00994 0.59834 0.75382 0.0
H556 H 0.01049 0.5994 0.72326 0.0
H557 H 0.98663 0.60366 0.71118 0.0
H558 H 0.01545 0.64393 0.68519 0.0
H559 H 0.03953 0.63952 0.69613 0.0
H560 H 0.03946 0.66568 0.7093 0.0
H561 H 0.03823 0.66535 0.839 0.0
H562 H 0.06715 0.6519 0.84609 0.0
H563 H 0.05028 0.62133 0.74827 0.0
C564 C 0.97972 0.64113 0.73842 0.0
C565 C 0.96659 0.64809 0.75823 0.0
C566 C 0.9767 0.66077 0.78764 0.0
C567 C -0.00171 0.66412 0.79899 0.0
C568 C 0.00978 0.65512 0.78031 0.0
C569 C 0.00118 0.64451 0.75011 0.0
C570 C 0.01524 0.63387 0.73661 0.0
C571 C -0.00033 0.60726 0.73091 0.0
C572 C 0.0282 0.64651 0.70493 0.0
C573 C 0.03218 0.63897 0.76467 0.0
C574 C 0.02903 0.65144 0.78957 0.0
C575 C 0.04131 0.65615 0.81924 0.0
C576 C 0.0575 0.64825 0.82323 0.0
C577 C 0.06111 0.63571 0.7977 0.0
C578 C 0.04824 0.63117 0.76814 0.0
H579 H 0.35115 0.00265 0.75655 0.0
H580 H 0.33981 0.0017 0.86201 0.0
H581 H 0.32284 0.95861 0.86211 0.0
H582 H 0.29926 0.94354 0.73677 0.0
H583 H 0.31609 0.9378 0.70689 0.0
H584 H 0.32225 0.96744 0.71383 0.0
H585 H 0.36568 0.98025 0.72591 0.0
H586 H 0.35967 0.95075 0.71928 0.0
H587 H 0.3724 0.96533 0.75763 0.0
H588 H 0.3131 0.9173 0.8523 0.0
H589 H 0.31276 0.8814 0.83436 0.0
H590 H 0.33188 0.90956 0.73535 0.0
C591 C 0.34436 -0.00665 0.77955 0.0
C592 C 0.3466 0.00553 0.80927 0.0
C593 C 0.33808 -0.00728 0.83893 0.0
C594 C 0.32834 0.96823 0.83916 0.0
C595 C 0.3272 0.95691 0.80955 0.0
C596 C 0.33492 0.96906 0.78025 0.0
C597 C 0.33487 0.95347 0.75271 0.0
C598 C 0.31705 0.95038 0.72597 0.0
C599 C 0.35962 0.96302 0.73806 0.0
C600 C 0.32701 0.93086 0.77141 0.0
C601 C 0.32212 0.93307 0.80396 0.0
C602 C 0.31648 0.91525 0.82677 0.0
C603 C 0.31645 0.89494 0.81631 0.0
C604 C 0.32231 0.89267 0.78339 0.0
C605 C 0.32697 0.91062 0.76049 0.0
H606 H 0.35749 0.41716 0.82144 0.0
H607 H 0.35643 0.43898 0.72082 0.0
H608 H 0.36956 0.412 0.70088 0.0
H609 H 0.40904 0.41207 0.81301 0.0
H610 H 0.39809 0.38659 0.83918 0.0
H611 H 0.3884 0.40755 0.84538 0.0
H612 H 0.34515 0.37429 0.8396 0.0
H613 H 0.35473 0.35326 0.83319 0.0
H614 H 0.33622 0.35622 0.80318 0.0
H615 H 0.38336 0.38271 0.69179 0.0
H616 H 0.39745 0.3541 0.69509 0.0
H617 H 0.38872 0.35154 0.80135 0.0
C618 C 0.36005 0.41631 0.79524 0.0
C619 C 0.35591 0.43021 0.77278 0.0
C620 C 0.35944 0.42849 0.73861 0.0
C621 C 0.36688 0.41319 0.72696 0.0
C622 C 0.37067 0.39964 0.74972 0.0
C623 C 0.3674 0.40107 0.78314 0.0
C624 C 0.37284 0.38474 0.80247 0.0
C625 C 0.39331 0.39857 0.82641 0.0
C626 C 0.35093 0.36602 0.82067 0.0
C627 C 0.37982 0.37406 0.77475 0.0
C628 C 0.37842 0.38277 0.74447 0.0
C629 C 0.38446 0.37569 0.71539 0.0
C630 C 0.39239 0.35942 0.71746 0.0
C631 C 0.39419 0.35054 0.7484 0.0
C632 C 0.38754 0.35788 0.77722 0.0
H633 H 0.01132 0.35593 0.70306 0.0
H634 H 0.00559 0.30745 0.77972 0.0
H635 H 0.96603 0.30014 0.79346 0.0
H636 H -0.0095 0.38361 0.74572 0.0
H637 H 0.97382 0.38794 0.71411 0.0
H638 H -0.00173 0.38434 0.70294 0.0
H639 H 0.97195 0.3491 0.66537 0.0
H640 H 0.94742 0.35309 0.67529 0.0
H641 H 0.94531 0.32496 0.68167 0.0
H642 H 0.93273 0.30657 0.80882 0.0
H643 H 0.90425 0.32042 0.81715 0.0
H644 H 0.93151 0.36413 0.73007 0.0
C645 C 0.0012 0.34269 0.72134 0.0
C646 C 0.01156 0.33233 0.74036 0.0
C647 C -0.00204 0.31557 0.76477 0.0
C648 C 0.97548 0.31138 0.77288 0.0
C649 C 0.96667 0.32369 0.75586 0.0
C650 C 0.97875 0.33839 0.72978 0.0
C651 C 0.96683 0.35171 0.71814 0.0
C652 C 0.98334 0.37847 0.72039 0.0
C653 C 0.9573 0.34426 0.68304 0.0
C654 C 0.94711 0.34333 0.74299 0.0
C655 C 0.94712 0.32703 0.76441 0.0
C656 C 0.93205 0.31875 0.79155 0.0
C657 C 0.91617 0.32693 0.79637 0.0
C658 C 0.91557 0.34317 0.77413 0.0
C659 C 0.93128 0.35139 0.74719 0.0
H660 H 0.37329 0.13277 0.241 0.0
H661 H 0.36062 0.10998 0.34302 0.0
H662 H 0.35897 0.14531 0.35815 0.0
H663 H 0.41141 0.19038 0.25617 0.0
H664 H 0.40157 0.2024 0.22414 0.0
H665 H 0.39745 0.17338 0.21982 0.0
H666 H 0.35279 0.15645 0.21172 0.0
H667 H 0.3568 0.18555 0.21572 0.0
H668 H 0.33629 0.16224 0.2421 0.0
H669 H 0.36613 0.18593 0.36427 0.0
H670 H 0.37851 0.22807 0.35959 0.0
H671 H 0.3846 0.22397 0.25368 0.0
C672 C 0.36935 0.13483 0.26627 0.0
C673 C 0.36714 0.11864 0.29077 0.0
C674 C 0.36247 0.12219 0.32377 0.0
C675 C 0.36138 0.14217 0.33266 0.0
C676 C 0.36465 0.15832 0.30824 0.0
C677 C 0.36812 0.15472 0.2756 0.0
C678 C 0.37326 0.17585 0.25478 0.0
C679 C 0.39735 0.1861 0.23775 0.0
C680 C 0.35361 0.16964 0.22959 0.0
C681 C 0.37329 0.19221 0.28108 0.0
C682 C 0.36808 0.18171 0.31172 0.0
C683 C 0.36959 0.19419 0.3403 0.0
C684 C 0.37675 0.21811 0.33747 0.0
C685 C 0.38216 0.22914 0.30628 0.0
C686 C 0.37998 0.21585 0.27778 0.0
H687 H 0.15076 0.40084 0.24435 0.0
H688 H 0.14429 0.38989 0.35022 0.0
H689 H 0.18619 0.40143 0.35299 0.0
H690 H 0.19527 0.38217 0.22997 0.0
H691 H 0.2103 0.40463 0.19931 0.0
H692 H 0.17906 0.39173 0.2048 0.0
H693 H 0.18439 0.43313 0.2137 0.0
H694 H 0.21561 0.44616 0.20871 0.0
H695 H 0.20385 0.45171 0.24558 0.0
H696 H 0.22892 0.41891 0.3456 0.0
H697 H 0.27021 0.44018 0.32893 0.0
H698 H 0.24978 0.44057 0.22734 0.0
C699 C 0.15793 0.40018 0.26805 0.0
C700 C 0.14419 0.39431 0.29712 0.0
C701 C 0.15441 0.39416 0.32765 0.0
C702 C 0.17818 0.40066 0.32943 0.0
C703 C 0.19137 0.40714 0.30045 0.0
C704 C 0.18161 0.40675 0.27027 0.0
C705 C 0.2001 0.41664 0.24334 0.0
C706 C 0.19593 0.39766 0.21785 0.0
C707 C 0.20103 0.43819 0.22688 0.0
C708 C 0.22198 0.42347 0.26334 0.0
C709 C 0.21638 0.41753 0.29613 0.0
C710 C 0.23349 0.42334 0.31996 0.0
C711 C 0.25695 0.43564 0.31016 0.0
C712 C 0.26328 0.44214 0.27675 0.0
C713 C 0.24549 0.43566 0.25294 0.0
H714 H 0.70574 0.21529 0.33162 0.0
H715 H 0.66364 0.2227 0.25573 0.0
H716 H 0.69732 0.26058 0.23918 0.0
H717 H 0.74394 0.28143 0.34978 0.0
H718 H 0.76929 0.27815 0.35595 0.0
H719 H 0.74052 0.2546 0.36694 0.0
H720 H 0.74733 0.22644 0.32998 0.0
H721 H 0.77573 0.24991 0.31801 0.0
H722 H 0.75418 0.23336 0.28698 0.0
H723 H 0.737 0.2916 0.22191 0.0
H724 H 0.77937 0.31863 0.21209 0.0
H725 H 0.79573 0.2927 0.30051 0.0
C726 C 0.70331 0.22558 0.31286 0.0
C727 C 0.68215 0.21624 0.29507 0.0
C728 C 0.67975 0.22971 0.26975 0.0
C729 C 0.69879 0.25121 0.2601 0.0
C730 C 0.72 0.25917 0.27639 0.0
C731 C 0.72224 0.24721 0.30294 0.0
C732 C 0.74757 0.25845 0.31394 0.0
C733 C 0.7505 0.26878 0.34872 0.0
C734 C 0.75672 0.24099 0.3121 0.0
C735 C 0.75922 0.27764 0.28833 0.0
C736 C 0.74302 0.27781 0.26694 0.0
C737 C 0.74984 0.2922 0.23911 0.0
C738 C 0.77387 0.30725 0.23347 0.0
C739 C 0.79064 0.30784 0.25573 0.0
C740 C 0.78317 0.29288 0.28347 0.0
H741 H 0.58741 0.84619 0.22737 0.0
H742 H 0.61199 0.87668 0.3241 0.0
H743 H 0.61256 0.84123 0.34174 0.0
H744 H 0.54898 0.7902 0.2535 0.0
H745 H 0.55466 0.775 0.22099 0.0
H746 H 0.55933 0.80403 0.21394 0.0
H747 H 0.60243 0.81855 0.19688 0.0
H748 H 0.59778 0.78941 0.20335 0.0
H749 H 0.62134 0.81404 0.22431 0.0
H750 H 0.60459 0.80028 0.35187 0.0
H751 H 0.59318 0.75814 0.35081 0.0
H752 H 0.57544 0.75518 0.24734 0.0
C753 C 0.59367 0.8457 0.25183 0.0
C754 C 0.59954 0.86415 0.27432 0.0
C755 C 0.60726 0.86269 0.30642 0.0
C756 C 0.60769 0.84262 0.31675 0.0
C757 C 0.6007 0.82425 0.29459 0.0
C758 C 0.59433 0.82577 0.26257 0.0
C759 C 0.58634 0.80298 0.24433 0.0
C760 C 0.56082 0.79244 0.23252 0.0
C761 C 0.60297 0.80646 0.21552 0.0
C762 C 0.58841 0.78831 0.27142 0.0
C763 C 0.59677 0.80084 0.30024 0.0
C764 C 0.59852 0.79036 0.32923 0.0
C765 C 0.59185 0.76645 0.32853 0.0
C766 C 0.58372 0.75351 0.29898 0.0
C767 C 0.58202 0.7647 0.27022 0.0
H768 H 0.72281 0.54759 0.22868 0.0
H769 H 0.69574 0.51452 0.32355 0.0
H770 H 0.73598 0.53161 0.3447 0.0
H771 H 0.77344 0.53967 0.22797 0.0
H772 H 0.7922 0.5676 0.20862 0.0
H773 H 0.76111 0.55249 0.20101 0.0
H774 H 0.75964 0.58939 0.22013 0.0
H775 H 0.79067 0.60442 0.22844 0.0
H776 H 0.77032 0.60135 0.26049 0.0
H777 H 0.77907 0.5522 0.35594 0.0
H778 H 0.82237 0.572 0.35439 0.0
H779 H 0.82138 0.59251 0.25297 0.0
C780 C 0.72539 0.54372 0.25373 0.0
C781 C 0.70612 0.52974 0.27442 0.0
C782 C 0.71023 0.52527 0.30722 0.0
C783 C 0.73302 0.53497 0.31958 0.0
C784 C 0.75161 0.54921 0.29892 0.0
C785 C 0.74811 0.55342 0.26662 0.0
C786 C 0.77124 0.56912 0.24957 0.0
C787 C 0.7747 0.55646 0.22006 0.0
C788 C 0.77306 0.59245 0.23905 0.0
C789 C 0.78817 0.57278 0.27721 0.0
C790 C 0.77651 0.5613 0.30556 0.0
C791 C 0.78846 0.56137 0.33393 0.0
C792 C 0.81305 0.57278 0.3329 0.0
C793 C 0.82532 0.58387 0.30365 0.0
C794 C 0.81262 0.5844 0.27587 0.0
H795 H 0.18011 0.68907 0.30616 0.0
H796 H 0.19266 0.6697 0.20921 0.0
H797 H 0.23518 0.69797 0.21554 0.0
H798 H 0.21777 0.74865 0.29755 0.0
H799 H 0.22705 0.75347 0.33996 0.0
H800 H 0.19869 0.72945 0.32934 0.0
H801 H 0.20913 0.70062 0.35811 0.0
H802 H 0.23778 0.72464 0.36834 0.0
H803 H 0.23506 0.69983 0.34563 0.0
H804 H 0.27534 0.73033 0.23085 0.0
H805 H 0.3086 0.76789 0.24932 0.0
H806 H 0.26917 0.76653 0.33581 0.0
C807 C 0.19181 0.69039 0.28642 0.0
C808 C 0.18317 0.67701 0.25729 0.0
C809 C 0.19897 0.67974 0.23174 0.0
C810 C 0.22311 0.69554 0.23532 0.0
C811 C 0.231 0.70837 0.26455 0.0
C812 C 0.21572 0.70611 0.28947 0.0
C813 C 0.22797 0.72378 0.3167 0.0
C814 C 0.21724 0.73978 0.32111 0.0
C815 C 0.22745 0.71147 0.34911 0.0
C816 C 0.25252 0.73705 0.30273 0.0
C817 C 0.25404 0.72746 0.27306 0.0
C818 C 0.27441 0.73779 0.25419 0.0
C819 C 0.29323 0.75911 0.26495 0.0
C820 C 0.29142 0.77005 0.29406 0.0
C821 C 0.27123 0.75831 0.31392 0.0
H822 H 0.57081 0.74667 0.72823 0.0
H823 H 0.61928 0.7465 0.80041 0.0
H824 H 0.62652 0.78464 0.82161 0.0
H825 H 0.60355 0.81196 0.71402 0.0
H826 H 0.57657 0.81252 0.70958 0.0
H827 H 0.57795 0.78689 0.69725 0.0
H828 H 0.54257 0.76149 0.7354 0.0
H829 H 0.54153 0.78707 0.74864 0.0
H830 H 0.54445 0.76848 0.77862 0.0
H831 H 0.62361 0.81963 0.84089 0.0
H832 H 0.61616 0.85281 0.84958 0.0
H833 H 0.5708 0.83053 0.76399 0.0
C834 C 0.58369 0.75513 0.74752 0.0
C835 C 0.59446 0.74361 0.76263 0.0
C836 C 0.6108 0.75502 0.78844 0.0
C837 C 0.61497 0.77665 0.8008 0.0
C838 C 0.60293 0.78686 0.78681 0.0
C839 C 0.58814 0.77684 0.76013 0.0
C840 C 0.57657 0.79091 0.75061 0.0
C841 C 0.58412 0.80119 0.71581 0.0
C842 C 0.54969 0.7761 0.75351 0.0
C843 C 0.58667 0.80993 0.7766 0.0
C844 C 0.60175 0.80729 0.79742 0.0
C845 C 0.61217 0.82216 0.82436 0.0
C846 C 0.60766 0.84074 0.8294 0.0
C847 C 0.59307 0.84423 0.80737 0.0
C848 C 0.58225 0.82839 0.78103 0.0
H849 H 0.729 0.55078 0.81287 0.0
H850 H 0.70661 0.53988 0.71063 0.0
H851 H 0.7474 0.56387 0.69264 0.0
H852 H 0.77843 0.612 0.80181 0.0
H853 H 0.79703 0.60776 0.83019 0.0
H854 H 0.76565 0.59186 0.83579 0.0
H855 H 0.76581 0.55249 0.83513 0.0
H856 H 0.79713 0.56829 0.82988 0.0
H857 H 0.77892 0.54586 0.80076 0.0
H858 H 0.79045 0.58471 0.68476 0.0
H859 H 0.83325 0.60047 0.68843 0.0
H860 H 0.8283 0.59977 0.7951 0.0
C861 C 0.73268 0.55376 0.78677 0.0
C862 C 0.7145 0.54336 0.76331 0.0
C863 C 0.72013 0.54753 0.72927 0.0
C864 C 0.7433 0.56132 0.71866 0.0
C865 C 0.76081 0.57111 0.74227 0.0
C866 C 0.75587 0.56763 0.77562 0.0
C867 C 0.77825 0.57876 0.79562 0.0
C868 C 0.77993 0.59879 0.81712 0.0
C869 C 0.78013 0.56024 0.81656 0.0
C870 C 0.79638 0.58813 0.76822 0.0
C871 C 0.78595 0.58379 0.73763 0.0
C872 C 0.79895 0.58871 0.70857 0.0
C873 C 0.82323 0.59767 0.71084 0.0
C874 C 0.83418 0.60165 0.74196 0.0
C875 C 0.82059 0.59749 0.77089 0.0
H876 H 0.27248 0.7713 0.80737 0.0
H877 H 0.28194 0.76693 0.70228 0.0
H878 H 0.24721 0.7269 0.70177 0.0
H879 H 0.25231 0.71043 0.82788 0.0
H880 H 0.23121 0.70892 0.85763 0.0
H881 H 0.25767 0.7364 0.8501 0.0
H882 H 0.23296 0.75611 0.83672 0.0
H883 H 0.20647 0.72877 0.84437 0.0
H884 H 0.21062 0.74354 0.80546 0.0
H885 H 0.21145 0.68806 0.71283 0.0
H886 H 0.17485 0.65443 0.73257 0.0
H887 H 0.18772 0.6849 0.83058 0.0
C888 C 0.26747 0.76185 0.78424 0.0
C889 C 0.28005 0.77208 0.75485 0.0
C890 C 0.27259 0.75936 0.72503 0.0
C891 C 0.253 0.73662 0.7246 0.0
C892 C 0.2411 0.72708 0.75413 0.0
C893 C 0.24791 0.73939 0.78332 0.0
C894 C 0.23126 0.72588 0.81123 0.0
C895 C 0.24387 0.72006 0.8383 0.0
C896 C 0.21964 0.73938 0.82525 0.0
C897 C 0.21374 0.70401 0.79312 0.0
C898 C 0.21999 0.70497 0.76034 0.0
C899 C 0.2064 0.68713 0.7384 0.0
C900 C 0.18558 0.66807 0.74999 0.0
C901 C 0.17828 0.66703 0.78321 0.0
C902 C 0.19285 0.68508 0.80518 0.0
H903 H 0.40049 0.22898 0.72518 0.0
H904 H 0.3675 0.23785 0.8124 0.0
H905 H 0.35338 0.19681 0.82803 0.0
H906 H 0.35503 0.16458 0.71077 0.0
H907 H 0.3775 0.15821 0.69779 0.0
H908 H 0.38079 0.18668 0.68974 0.0
H909 H 0.42092 0.20626 0.71956 0.0
H910 H 0.41764 0.17797 0.72809 0.0
H911 H 0.42248 0.198 0.76141 0.0
H912 H 0.35017 0.15832 0.84047 0.0
H913 H 0.3549 0.12337 0.8456 0.0
H914 H 0.38824 0.1384 0.7495 0.0
C915 C 0.38944 0.22195 0.74675 0.0
C916 C 0.38508 0.23658 0.76752 0.0
C917 C 0.37109 0.22695 0.79612 0.0
C918 C 0.3629 0.20361 0.80519 0.0
C919 C 0.36854 0.18996 0.7852 0.0
C920 C 0.38108 0.19857 0.7562 0.0
C921 C 0.38685 0.181 0.74104 0.0
C922 C 0.37428 0.17209 0.70787 0.0
C923 C 0.41355 0.19144 0.73734 0.0
C924 C 0.37674 0.16184 0.76692 0.0
C925 C 0.36604 0.16721 0.79205 0.0
C926 C 0.35785 0.1535 0.82049 0.0
C927 C 0.36073 0.1338 0.82332 0.0
C928 C 0.37158 0.12799 0.79778 0.0
C929 C 0.37929 0.14203 0.76907 0.0
H930 H 0.15959 0.40736 0.72651 0.0
H931 H 0.13329 0.34945 0.79581 0.0
H932 H 0.17331 0.36437 0.81721 0.0
H933 H 0.2179 0.41142 0.71171 0.0
H934 H 0.23243 0.44298 0.70909 0.0
H935 H 0.20236 0.42552 0.69612 0.0
H936 H 0.19098 0.44901 0.73602 0.0
H937 H 0.22081 0.46596 0.75002 0.0
H938 H 0.19755 0.44986 0.77926 0.0
H939 H 0.21509 0.38875 0.83658 0.0
H940 H 0.25718 0.4172 0.84556 0.0
H941 H 0.25578 0.45897 0.76376 0.0
C942 C 0.16239 0.39724 0.74515 0.0
C943 C 0.14334 0.3772 0.75938 0.0
C944 C 0.14767 0.36481 0.78443 0.0
C945 C 0.17032 0.37323 0.79693 0.0
C946 C 0.18848 0.39393 0.78391 0.0
C947 C 0.1849 0.40545 0.75799 0.0
C948 C 0.20715 0.42799 0.74961 0.0
C949 C 0.21546 0.4269 0.71456 0.0
C950 C 0.20391 0.44946 0.754 0.0
C951 C 0.22357 0.42759 0.77532 0.0
C952 C 0.21251 0.40787 0.79497 0.0
C953 C 0.22405 0.40412 0.82105 0.0
C954 C 0.24785 0.42051 0.82627 0.0
C955 C 0.25975 0.44026 0.80537 0.0
C956 C 0.2472 0.444 0.78011 0.0
H957 H 0.79213 0.29213 0.80734 0.0
H958 H 0.79868 0.32119 0.70932 0.0
H959 H 0.7618 0.28612 0.69296 0.0
H960 H 0.77135 0.23399 0.78224 0.0
H961 H 0.75122 0.22082 0.81614 0.0
H962 H 0.77711 0.24908 0.82116 0.0
H963 H 0.75155 0.26703 0.83921 0.0
H964 H 0.72558 0.23873 0.83465 0.0
H965 H 0.72804 0.26379 0.81297 0.0
H966 H 0.72543 0.2465 0.68608 0.0
H967 H 0.69133 0.20626 0.69066 0.0
H968 H 0.70928 0.20372 0.79289 0.0
C969 C 0.78559 0.29134 0.78265 0.0
C970 C 0.79829 0.30941 0.75968 0.0
C971 C 0.78927 0.30754 0.72741 0.0
C972 C 0.76832 0.28769 0.71782 0.0
C973 C 0.75656 0.26989 0.74079 0.0
C974 C 0.76475 0.27163 0.77262 0.0
C975 C 0.74931 0.24968 0.79218 0.0
C976 C 0.76307 0.23769 0.80359 0.0
C977 C 0.73794 0.25514 0.82148 0.0
C978 C 0.73136 0.23529 0.76629 0.0
C979 C 0.73574 0.24718 0.7368 0.0
C980 C 0.72169 0.23705 0.70914 0.0
C981 C 0.70245 0.21419 0.7119 0.0
C982 C 0.69759 0.20187 0.7421 0.0
C983 C 0.71239 0.21265 0.76944 0.0
H984 H 0.40092 0.04634 0.11087 0.0
H985 H 0.36735 0.08742 0.13209 0.0
H986 H 0.36537 0.09373 0.07241 0.0
H987 H 0.43618 0.08123 0.04312 0.0
H988 H 0.43288 0.05644 1.01975 0.0
H989 H 0.43145 0.05503 0.06404 0.0
H990 H 0.39064 0.01744 0.06103 0.0
H991 H 0.39197 0.0187 1.01673 0.0
H992 H 0.36748 0.0179 0.03797 0.0
H993 H 0.36749 0.09588 1.00971 0.0
H994 H 0.37294 0.09312 0.94993 0.0
H995 H 0.40491 0.05044 0.96988 0.0
C996 C 0.39309 0.05664 0.10306 0.0
C997 C 0.38428 0.06637 0.12639 0.0
C998 C 0.3742 0.07973 0.11487 0.0
C999 C 0.37301 0.08344 0.08095 0.0
C1000 C 0.38194 0.07365 0.05869 0.0
C1001 C 0.39173 0.06047 0.06932 0.0
C1002 C 0.40006 0.05185 0.04042 0.0
C1003 C 0.42672 0.06173 0.04193 0.0
C1004 C 0.38674 0.02487 0.03896 0.0
C1005 C 0.39348 0.06225 1.01181 0.0
C1006 C 0.38307 0.0748 1.02283 0.0
C1007 C 0.3756 0.08605 1.00088 0.0
C1008 C 0.37879 0.0844 0.9669 0.0
C1009 C 0.38934 0.07155 0.95498 0.0
C1010 C 0.39676 0.06039 0.97799 0.0
H1011 H 0.30937 0.47745 0.96934 0.0
H1012 H 0.35442 0.45085 0.93563 0.0
H1013 H 0.36205 0.44499 0.99337 0.0
H1014 H 0.34388 0.50888 0.03937 0.0
H1015 H 0.31902 0.50189 0.06544 0.0
H1016 H 0.31656 0.50348 1.02148 0.0
H1017 H 0.28103 0.46123 1.0212 0.0
H1018 H 0.28338 0.45949 0.06519 0.0
H1019 H 0.28401 0.4377 0.03891 0.0
H1020 H 0.36589 0.44317 0.05479 0.0
H1021 H 0.36542 0.44503 0.11535 0.0
H1022 H 0.31734 0.47217 0.11024 0.0
C1023 C 0.32077 0.4703 0.97403 0.0
C1024 C 0.33129 0.46462 0.94768 0.0
C1025 C 0.34611 0.45533 0.95516 0.0
C1026 C 0.35056 0.45193 0.98797 0.0
C1027 C 0.34001 0.45779 1.01325 0.0
C1028 C 0.32536 0.46671 1.00672 0.0
C1029 C 0.31646 0.4718 0.03855 0.0
C1030 C 0.32446 0.49807 0.04137 0.0
C1031 C 0.28962 0.45665 0.0411 0.0
C1032 C 0.32852 0.46451 0.06401 0.0
C1033 C 0.34202 0.45649 0.04879 0.0
C1034 C 0.35529 0.44931 0.06693 0.0
C1035 C 0.35491 0.45047 0.10144 0.0
C1036 C 0.34128 0.45866 0.11781 0.0
C1037 C 0.32777 0.46561 0.09863 0.0
H1038 H 0.89551 0.39296 0.94144 0.0
H1039 H 0.8354 0.32475 0.91983 0.0
H1040 H 0.82849 0.31673 0.97955 0.0
H1041 H 0.91603 0.37499 1.01171 0.0
H1042 H 0.92496 0.40181 0.03411 0.0
H1043 H 0.92511 0.40202 0.98976 0.0
H1044 H 0.89818 0.42034 0.98982 0.0
H1045 H 0.89793 0.42018 0.03416 0.0
H1046 H 0.87068 0.40583 1.01178 0.0
H1047 H 0.82812 0.31638 0.04244 0.0
H1048 H 0.83438 0.32369 0.10232 0.0
H1049 H 0.89475 0.39214 0.0824 0.0
C1050 C 0.88089 0.37629 0.94916 0.0
C1051 C 0.86601 0.35948 0.92574 0.0
C1052 C 0.84708 0.33793 0.93715 0.0
C1053 C 0.84301 0.33321 0.97108 0.0
C1054 C 0.858 0.3502 0.99345 0.0
C1055 C 0.87658 0.37131 0.9829 0.0
C1056 C 0.89009 0.38669 1.01186 0.0
C1057 C 0.91555 0.39166 1.01185 0.0
C1058 C 0.88915 0.40961 1.0119 0.0
C1059 C 0.87625 0.37098 0.04043 0.0
C1060 C 0.8578 0.35 0.02935 0.0
C1061 C 0.84255 0.33276 0.0513 0.0
C1062 C 0.84624 0.33708 0.08534 0.0
C1063 C 0.86507 0.35848 0.09728 0.0
C1064 C 0.8802 0.37557 0.07428 0.0
H1065 H 0.58651 0.90078 0.10504 0.0
H1066 H 0.56884 0.95572 0.11904 0.0
H1067 H 0.56618 0.9589 0.05929 0.0
H1068 H 0.62212 0.9259 0.03149 0.0
H1069 H 0.61214 0.89812 1.01122 0.0
H1070 H 0.61272 0.89964 0.05554 0.0
H1071 H 0.56864 0.86833 0.05757 0.0
H1072 H 0.56793 0.86674 1.01324 0.0
H1073 H 0.54786 0.87317 0.03496 0.0
H1074 H 0.56528 0.95686 0.99877 0.0
H1075 H 0.56652 0.94987 0.93968 0.0
H1076 H 0.58469 0.89614 0.96134 0.0
C1077 C 0.58211 0.91347 0.09549 0.0
C1078 C 0.5779 0.928 0.11715 0.0
C1079 C 0.57216 0.94434 0.10339 0.0
C1080 C 0.57058 0.94632 0.06929 0.0
C1081 C 0.57475 0.93185 0.04873 0.0
C1082 C 0.58042 0.91573 0.06108 0.0
C1083 C 0.58403 0.90247 0.03287 0.0
C1084 C 0.60926 0.9068 0.03278 0.0
C1085 C 0.56604 0.87611 0.03478 0.0
C1086 C 0.57955 0.91377 1.00299 0.0
C1087 C 0.57421 0.93065 1.01304 0.0
C1088 C 0.56944 0.94369 0.99056 0.0
C1089 C 0.5702 0.93954 0.95687 0.0
C1090 C 0.5757 0.92244 0.94547 0.0
C1091 C 0.58038 0.90931 0.96907 0.0
H1092 H 0.60467 0.48484 0.08706 0.0
H1093 H 0.67788 0.53334 0.1087 0.0
H1094 H 0.68659 0.53842 0.04894 0.0
H1095 H 0.61473 0.45677 1.01778 0.0
H1096 H 0.58979 0.45359 0.99505 0.0
H1097 H 0.58949 0.45401 0.03939 0.0
H1098 H 0.58096 0.48845 0.03814 0.0
H1099 H 0.58127 0.48817 0.9938 0.0
H1100 H 0.60039 0.51481 1.01575 0.0
H1101 H 0.68705 0.53825 0.98572 0.0
H1102 H 0.67937 0.53225 0.92584 0.0
H1103 H 0.6059 0.48361 0.94615 0.0
C1104 C 0.62257 0.49656 0.07935 0.0
C1105 C 0.64058 0.50872 0.10282 0.0
C1106 C 0.66375 0.52381 0.09138 0.0
C1107 C 0.66886 0.52683 0.0574 0.0
C1108 C 0.65066 0.5146 0.03499 0.0
C1109 C 0.62798 0.49971 0.04559 0.0
C1110 C 0.61155 0.48844 1.01664 0.0
C1111 C 0.60076 0.46161 1.01726 0.0
C1112 C 0.59242 0.49539 1.01606 0.0
C1113 C 0.62846 0.49931 0.98801 0.0
C1114 C 0.65095 0.51439 0.99902 0.0
C1115 C 0.66949 0.52645 0.97694 0.0
C1116 C 0.66495 0.52295 0.94289 0.0
C1117 C 0.64203 0.50746 0.93103 0.0
C1118 C 0.62364 0.49559 0.95417 0.0
H1119 H 0.12685 0.63401 0.95671 0.0
H1120 H 0.05664 0.57583 0.93859 0.0
H1121 H 0.04919 0.57092 0.99796 0.0
H1122 H 0.13786 0.60926 0.03025 0.0
H1123 H 0.1533 0.63684 0.05177 0.0
H1124 H 0.15377 0.63626 1.00742 0.0
H1125 H 0.13781 0.66513 1.00523 0.0
H1126 H 0.13731 0.66581 0.04958 0.0
H1127 H 0.11097 0.65791 0.0266 0.0
H1128 H 0.04841 0.57171 0.05844 0.0
H1129 H 0.05437 0.57835 0.11793 0.0
H1130 H 0.12501 0.636 0.10034 0.0
C1131 C 0.10994 0.62026 0.96529 0.0
C1132 C 0.09236 0.60532 0.9426 0.0
C1133 C 0.07047 0.58756 0.95507 0.0
C1134 C 0.066 0.58457 0.98894 0.0
C1135 C 0.08353 0.59944 1.01052 0.0
C1136 C 0.10508 0.61697 0.99943 0.0
C1137 C 0.12062 0.63046 0.02856 0.0
C1138 C 0.1427 0.62806 0.02955 0.0
C1139 C 0.12706 0.65637 0.02742 0.0
C1140 C 0.10435 0.61771 0.05748 0.0
C1141 C 0.08308 0.59989 0.0462 0.0
C1142 C 0.065 0.58561 0.06763 0.0
C1143 C 0.0686 0.58957 0.10154 0.0
C1144 C 0.09016 0.60771 0.11416 0.0
C1145 C 0.10833 0.62195 0.09163 0.0
H1146 H 0.88285 0.62227 0.59033 0.0
H1147 H 0.90887 0.57493 0.61375 0.0
H1148 H 0.91134 0.56823 0.55424 0.0
H1149 H 0.84725 0.5897 0.5213 0.0
H1150 H 0.85369 0.61556 0.49795 0.0
H1151 H 0.85409 0.61655 0.54227 0.0
H1152 H 0.89667 0.65154 0.5409 0.0
H1153 H 0.89641 0.65065 0.49657 0.0
H1154 H 0.91896 0.64862 0.519 0.0
H1155 H 0.91091 0.56684 0.49111 0.0
H1156 H 0.9076 0.57089 0.43103 0.0
H1157 H 0.88186 0.61914 0.44955 0.0
C1158 C 0.88909 0.61048 0.58306 0.0
C1159 C 0.89569 0.59915 0.60695 0.0
C1160 C 0.90371 0.58384 0.59609 0.0
C1161 C 0.90517 0.57993 0.56227 0.0
C1162 C 0.89853 0.59141 0.53943 0.0
C1163 C 0.89064 0.60637 0.54946 0.0
C1164 C 0.88452 0.61657 0.52012 0.0
C1165 C 0.85833 0.60914 0.52044 0.0
C1166 C 0.90007 0.64344 0.5191 0.0
C1167 C 0.89024 0.60509 0.49194 0.0
C1168 C 0.89829 0.59061 0.5035 0.0
C1169 C 0.90462 0.57815 0.48189 0.0
C1170 C 0.90268 0.58056 0.44774 0.0
C1171 C 0.89448 0.59533 0.43534 0.0
C1172 C 0.88822 0.6077 0.458 0.0
H1173 H 0.32661 0.81019 0.5925 0.0
H1174 H 0.34232 0.8792 0.62632 0.0
H1175 H 0.34564 0.89229 0.56863 0.0
H1176 H 0.36611 0.82985 0.5231 0.0
H1177 H 0.34667 0.80602 0.49664 0.0
H1178 H 0.34531 0.80184 0.54059 0.0
H1179 H 0.30107 0.78867 0.54008 0.0
H1180 H 0.30228 0.79277 0.49611 0.0
H1181 H 0.29158 0.80763 0.52216 0.0
H1182 H 0.34782 0.89823 0.50736 0.0
H1183 H 0.34796 0.89657 0.44685 0.0
H1184 H 0.33045 0.82359 0.45148 0.0
C1185 C 0.33071 0.82806 0.58782 0.0
C1186 C 0.33421 0.84365 0.61421 0.0
C1187 C 0.33953 0.86687 0.60677 0.0
C1188 C 0.34148 0.87449 0.57398 0.0
C1189 C 0.33802 0.85873 0.54867 0.0
C1190 C 0.33267 0.83597 0.55513 0.0
C1191 C 0.32975 0.8226 0.52324 0.0
C1192 C 0.34805 0.81461 0.52076 0.0
C1193 C 0.30468 0.80168 0.52023 0.0
C1194 C 0.33436 0.84142 0.49784 0.0
C1195 C 0.33912 0.86212 0.51316 0.0
C1196 C 0.34408 0.8821 0.49514 0.0
C1197 C 0.34414 0.88095 0.46062 0.0
C1198 C 0.33922 0.85995 0.44409 0.0
C1199 C 0.33427 0.83992 0.46319 0.0
H1200 H 0.38364 0.29245 0.59881 0.0
H1201 H 0.45659 0.31438 0.61824 0.0
H1202 H 0.4643 0.31687 0.55829 0.0
H1203 H 0.37707 0.25655 0.52798 0.0
H1204 H 0.35821 0.26466 0.50646 0.0
H1205 H 0.35859 0.2646 0.5508 0.0
H1206 H 0.36846 0.308 0.55128 0.0
H1207 H 0.36815 0.3082 0.50695 0.0
H1208 H 0.39372 0.32964 0.52888 0.0
H1209 H 0.46398 0.31742 0.49527 0.0
H1210 H 0.45546 0.31515 0.4356 0.0
H1211 H 0.38267 0.29256 0.45793 0.0
C1212 C 0.40126 0.29774 0.59056 0.0
C1213 C 0.41951 0.30322 0.61345 0.0
C1214 C 0.44228 0.31006 0.60135 0.0
C1215 C 0.44684 0.31155 0.56727 0.0
C1216 C 0.42846 0.30611 0.54543 0.0
C1217 C 0.4061 0.29927 0.55667 0.0
C1218 C 0.38936 0.29431 0.5282 0.0
C1219 C 0.36965 0.2685 0.52838 0.0
C1220 C 0.37934 0.31104 0.52888 0.0
C1221 C 0.40575 0.29946 0.49914 0.0
C1222 C 0.42825 0.30628 0.50951 0.0
C1223 C 0.44639 0.31205 0.48696 0.0
C1224 C 0.44139 0.31073 0.45305 0.0
C1225 C 0.41839 0.30365 0.44186 0.0
C1226 C 0.40044 0.298 0.46547 0.0
H1227 H 0.0565 0.35582 0.58623 0.0
H1228 H 0.11352 0.42284 0.61965 0.0
H1229 H 0.12283 0.4361 0.56191 0.0
H1230 H 0.08566 0.35078 0.51405 0.0
H1231 H 0.05962 0.3378 0.48894 0.0
H1232 H 0.05721 0.33351 0.53289 0.0
H1233 H 0.02888 0.35011 0.53576 0.0
H1234 H 0.03119 0.35446 0.49182 0.0
H1235 H 0.03792 0.37875 0.51888 0.0
H1236 H 0.12635 0.44207 0.50065 0.0
H1237 H 0.1238 0.44068 0.4402 0.0
H1238 H 0.06424 0.36989 0.44537 0.0
C1239 C 0.07095 0.37331 0.58146 0.0
C1240 C 0.08429 0.38827 0.60772 0.0
C1241 C 0.10302 0.41102 0.60018 0.0
C1242 C 0.10845 0.41872 0.56738 0.0
C1243 C 0.095 0.40354 0.54219 0.0
C1244 C 0.0766 0.38132 0.54879 0.0
C1245 C 0.06495 0.36852 0.51705 0.0
C1246 C 0.06699 0.34634 0.513 0.0
C1247 C 0.03921 0.36262 0.51582 0.0
C1248 C 0.07971 0.387 0.49156 0.0
C1249 C 0.09694 0.40704 0.50671 0.0
C1250 C 0.1129 0.42648 0.48856 0.0
C1251 C 0.11128 0.42548 0.45409 0.0
C1252 C 0.0938 0.40519 0.43774 0.0
C1253 C 0.07777 0.3857 0.45695 0.0
H1254 H 0.67804 0.15459 0.45442 0.0
H1255 H 0.60438 0.12707 0.43209 0.0
H1256 H 0.59516 0.12187 0.49163 0.0
H1257 H 0.66949 0.11597 0.5226 0.0
H1258 H 0.69358 0.13815 0.5461 0.0
H1259 H 0.69427 0.13956 0.50179 0.0
H1260 H 0.70031 0.18161 0.5043 0.0
H1261 H 0.69966 0.18033 0.54861 0.0
H1262 H 0.67967 0.18678 0.52683 0.0
H1263 H 0.59411 0.11991 0.55454 0.0
H1264 H 0.6014 0.12156 0.61453 0.0
H1265 H 0.67572 0.15034 0.59535 0.0
C1266 C 0.65993 0.14744 0.46195 0.0
C1267 C 0.64194 0.14125 0.43834 0.0
C1268 C 0.61852 0.13197 0.44952 0.0
C1269 C 0.61309 0.12893 0.48337 0.0
C1270 C 0.63126 0.13524 0.50593 0.0
C1271 C 0.65421 0.1443 0.49563 0.0
C1272 C 0.67055 0.14983 0.52479 0.0
C1273 C 0.68268 0.13499 0.52375 0.0
C1274 C 0.68861 0.1762 0.52621 0.0
C1275 C 0.65325 0.14252 0.55315 0.0
C1276 C 0.63065 0.13412 0.54183 0.0
C1277 C 0.61175 0.12645 0.5636 0.0
C1278 C 0.61607 0.12745 0.5977 0.0
C1279 C 0.63912 0.13606 0.60989 0.0
C1280 C 0.65786 0.14362 0.58705 0.0
H1281 H 0.5982 0.69488 0.45373 0.0
H1282 H 0.52397 0.66207 0.43143 0.0
H1283 H 0.51496 0.65776 0.49112 0.0
H1284 H 0.59248 0.65858 0.52356 0.0
H1285 H 0.61587 0.68218 0.54626 0.0
H1286 H 0.61626 0.68265 0.50192 0.0
H1287 H 0.61939 0.72353 0.50256 0.0
H1288 H 0.61896 0.72316 0.5469 0.0
H1289 H 0.59771 0.7274 0.52454 0.0
H1290 H 0.51431 0.65751 0.55449 0.0
H1291 H 0.52203 0.66043 0.61448 0.0
H1292 H 0.59667 0.69306 0.59469 0.0
C1293 C 0.58001 0.68676 0.46127 0.0
C1294 C 0.5618 0.67884 0.43761 0.0
C1295 C 0.53827 0.66828 0.44887 0.0
C1296 C 0.53298 0.66578 0.48282 0.0
C1297 C 0.55138 0.67386 0.50543 0.0
C1298 C 0.57443 0.68407 0.49501 0.0
C1299 C 0.59104 0.69121 0.52413 0.0
C1300 C 0.60472 0.67785 0.52395 0.0
C1301 C 0.60776 0.71791 0.52455 0.0
C1302 C 0.5738 0.68348 0.55263 0.0
C1303 C 0.55099 0.67356 0.54143 0.0
C1304 C 0.53213 0.66523 0.5634 0.0
C1305 C 0.53669 0.667 0.59752 0.0
C1306 C 0.55995 0.67696 0.60958 0.0
C1307 C 0.57865 0.68531 0.58654 0.0
H1308 H 0.46273 0.09449 0.31178 0.0
H1309 H 0.45103 0.07893 0.20729 0.0
H1310 H 0.49194 0.08731 0.20138 0.0
H1311 H 0.52165 0.14254 0.30438 0.0
H1312 H 0.53155 0.13536 0.34165 0.0
H1313 H 0.50132 0.12779 0.33761 0.0
H1314 H 0.48825 0.08433 0.35034 0.0
H1315 H 0.51846 0.09173 0.35418 0.0
H1316 H 0.49946 0.0693 0.3256 0.0
H1317 H 0.53354 0.09675 0.20708 0.0
H1318 H 0.57418 0.10933 0.22256 0.0
H1319 H 0.55921 0.1196 0.32357 0.0
C1320 C 0.46872 0.09282 0.2876 0.0
C1321 C 0.45366 0.08597 0.25996 0.0
C1322 C 0.46227 0.08419 0.22876 0.0
C1323 C 0.48541 0.0888 0.22522 0.0
C1324 C 0.49967 0.09527 0.25308 0.0
C1325 C 0.49174 0.09748 0.28361 0.0
C1326 C 0.51078 0.10525 0.30946 0.0
C1327 C 0.51667 0.12916 0.32413 0.0
C1328 C 0.50381 0.08653 0.33649 0.0
C1329 C 0.53077 0.10715 0.28867 0.0
C1330 C 0.52387 0.10113 0.25629 0.0
C1331 C 0.53916 0.10157 0.23231 0.0
C1332 C 0.56225 0.10875 0.24147 0.0
C1333 C 0.56999 0.11556 0.27435 0.0
C1334 C 0.55387 0.11446 0.29831 0.0
H1335 H 0.4799 0.62901 0.31432 0.0
H1336 H 0.50486 0.64108 0.21318 0.0
H1337 H 0.46564 0.61178 0.19405 0.0
H1338 H 0.44476 0.56852 0.30821 0.0
H1339 H 0.42144 0.56625 0.33413 0.0
H1340 H 0.45082 0.59021 0.33961 0.0
H1341 H 0.43599 0.6198 0.33188 0.0
H1342 H 0.40651 0.59584 0.32615 0.0
H1343 H 0.41992 0.61841 0.29523 0.0
H1344 H 0.42529 0.57766 0.18616 0.0
H1345 H 0.38674 0.54135 0.19097 0.0
H1346 H 0.38727 0.55289 0.29635 0.0
C1347 C 0.477 0.62578 0.28814 0.0
C1348 C 0.49554 0.6374 0.26538 0.0
C1349 C 0.49101 0.63248 0.23126 0.0
C1350 C 0.46871 0.61591 0.22001 0.0
C1351 C 0.4509 0.60453 0.24304 0.0
C1352 C 0.4547 0.60936 0.27637 0.0
C1353 C 0.43292 0.59349 0.29609 0.0
C1354 C 0.43778 0.57875 0.32096 0.0
C1355 C 0.42327 0.60774 0.31335 0.0
C1356 C 0.41673 0.57844 0.26878 0.0
C1357 C 0.4273 0.58521 0.2383 0.0
C1358 C 0.41657 0.57246 0.20981 0.0
C1359 C 0.39468 0.55188 0.21273 0.0
C1360 C 0.38384 0.54435 0.24391 0.0
C1361 C 0.3948 0.55832 0.272 0.0
H1362 H 0.88975 0.51977 0.31228 0.0
H1363 H 0.89139 0.54304 0.21171 0.0
H1364 H 0.88918 0.50682 0.19097 0.0
H1365 H 0.92462 0.49144 0.29734 0.0
H1366 H 0.9075 0.46758 0.32527 0.0
H1367 H 0.91049 0.49601 0.33237 0.0
H1368 H 0.86522 0.47725 0.33301 0.0
H1369 H 0.86211 0.4488 0.32596 0.0
H1370 H 0.84843 0.45985 0.29838 0.0
H1371 H 0.8848 0.46708 0.18085 0.0
H1372 H 0.87826 0.4266 0.18272 0.0
H1373 H 0.87989 0.42968 0.2896 0.0
C1374 C 0.88986 0.51736 0.28592 0.0
C1375 C 0.89076 0.53431 0.26371 0.0
C1376 C 0.89071 0.53035 0.22933 0.0
C1377 C 0.88952 0.50983 0.21721 0.0
C1378 C 0.88848 0.49341 0.23973 0.0
C1379 C 0.88868 0.49695 0.27335 0.0
C1380 C 0.88656 0.47614 0.29223 0.0
C1381 C 0.90861 0.48322 0.31302 0.0
C1382 C 0.86425 0.46484 0.31364 0.0
C1383 C 0.88476 0.46028 0.26398 0.0
C1384 C 0.88604 0.47058 0.23388 0.0
C1385 C 0.88397 0.45888 0.20429 0.0
C1386 C 0.88026 0.43591 0.20558 0.0
C1387 C 0.87862 0.42495 0.23624 0.0
C1388 C 0.88119 0.43754 0.26569 0.0
H1389 H 0.50473 0.88406 0.30495 0.0
H1390 H 0.51561 0.91237 0.20581 0.0
H1391 H 0.47598 0.90798 0.20697 0.0
H1392 H 0.44381 0.84062 0.29451 0.0
H1393 H 0.43584 0.84384 0.33589 0.0
H1394 H 0.46509 0.84956 0.32718 0.0
H1395 H 0.48201 0.89112 0.35239 0.0
H1396 H 0.45278 0.88565 0.36072 0.0
H1397 H 0.47269 0.91076 0.33648 0.0
H1398 H 0.43623 0.90192 0.21971 0.0
H1399 H 0.39647 0.88961 0.23946 0.0
H1400 H 0.41053 0.8636 0.32997 0.0
C1401 C 0.49876 0.88926 0.2834 0.0
C1402 C 0.51325 0.89866 0.25528 0.0
C1403 C 0.50474 0.90505 0.2275 0.0
C1404 C 0.48237 0.9028 0.22807 0.0
C1405 C 0.46877 0.89395 0.25648 0.0
C1406 C 0.47645 0.88691 0.28343 0.0
C1407 C 0.45803 0.87713 0.31042 0.0
C1408 C 0.45023 0.85125 0.3174 0.0
C1409 C 0.46692 0.89206 0.34186 0.0
C1410 C 0.43866 0.87967 0.29438 0.0
C1411 C 0.44543 0.88974 0.26349 0.0
C1412 C 0.43067 0.89389 0.24374 0.0
C1413 C 0.40809 0.88683 0.25531 0.0
C1414 C 0.40025 0.87544 0.28625 0.0
C1415 C 0.416 0.87233 0.30634 0.0
H1416 H 0.58312 0.43533 0.29298 0.0
H1417 H 0.58506 0.43893 0.1862 0.0
H1418 H 0.54984 0.39923 0.18412 0.0
H1419 H 0.55984 0.37103 0.30128 0.0
H1420 H 0.542 0.36928 0.3361 0.0
H1421 H 0.56959 0.39568 0.32877 0.0
H1422 H 0.54834 0.41996 0.32883 0.0
H1423 H 0.52078 0.39374 0.33603 0.0
H1424 H 0.52419 0.41202 0.30101 0.0
H1425 H 0.51163 0.36177 0.19434 0.0
H1426 H 0.47333 0.33098 0.21509 0.0
H1427 H 0.49638 0.35304 0.31546 0.0
C1428 C 0.57657 0.42765 0.269 0.0
C1429 C 0.5869 0.44025 0.23968 0.0
C1430 C 0.57754 0.42955 0.20895 0.0
C1431 C 0.55759 0.407 0.20758 0.0
C1432 C 0.54746 0.39543 0.23714 0.0
C1433 C 0.55677 0.40543 0.26727 0.0
C1434 C 0.54135 0.39085 0.29553 0.0
C1435 C 0.55395 0.38113 0.31666 0.0
C1436 C 0.53318 0.40499 0.31655 0.0
C1437 C 0.52125 0.37149 0.27667 0.0
C1438 C 0.52532 0.37413 0.24306 0.0
C1439 C 0.50845 0.35936 0.22059 0.0
C1440 C 0.48669 0.34193 0.23269 0.0
C1441 C 0.48181 0.33956 0.267 0.0
C1442 C 0.49964 0.35415 0.28919 0.0
H1443 H 0.1023 0.55426 0.22429 0.0
H1444 H 0.07218 0.56197 0.31549 0.0
H1445 H 0.06422 0.52303 0.33348 0.0
H1446 H 0.0613 0.4898 0.21551 0.0
H1447 H 0.08397 0.48474 0.19945 0.0
H1448 H 0.08517 0.51235 0.19196 0.0
H1449 H 0.12683 0.53426 0.21727 0.0
H1450 H 0.12562 0.50675 0.22531 0.0
H1451 H 0.13132 0.52712 0.25849 0.0
H1452 H 0.0637 0.48583 0.34494 0.0
H1453 H 0.0666 0.4498 0.34622 0.0
H1454 H 0.09583 0.46496 0.24736 0.0
C1455 C 0.09345 0.54744 0.24758 0.0
C1456 C 0.08794 0.56119 0.2685 0.0
C1457 C 0.07671 0.55182 0.2991 0.0
C1458 C 0.07207 0.52969 0.3096 0.0
C1459 C 0.07856 0.51695 0.28913 0.0
C1460 C 0.08861 0.5252 0.25853 0.0
C1461 C 0.09468 0.50817 0.24214 0.0
C1462 C 0.08042 0.49817 0.21039 0.0
C1463 C 0.12119 0.51977 0.23542 0.0
C1464 C 0.08698 0.48951 0.26867 0.0
C1465 C 0.07775 0.49497 0.29556 0.0
C1466 C 0.07054 0.4811 0.32384 0.0
C1467 C 0.07242 0.46078 0.32445 0.0
C1468 C 0.0813 0.45451 0.29687 0.0
C1469 C 0.08873 0.46917 0.26871 0.0
H1470 H 0.50332 0.8765 0.83275 0.0
H1471 H 0.53433 0.91053 0.73963 0.0
H1472 H 0.49556 0.90115 0.71919 0.0
H1473 H 0.45083 0.82939 0.799 0.0
H1474 H 0.43191 0.82899 0.83146 0.0
H1475 H 0.46233 0.83895 0.83986 0.0
H1476 H 0.46789 0.87843 0.86182 0.0
H1477 H 0.43742 0.86847 0.85384 0.0
H1478 H 0.45981 0.89566 0.83619 0.0
H1479 H 0.4535 0.8868 0.70728 0.0
H1480 H 0.41062 0.87094 0.70687 0.0
H1481 H 0.40656 0.84667 0.80745 0.0
C1482 C 0.50196 0.88221 0.80825 0.0
C1483 C 0.52193 0.89415 0.78783 0.0
C1484 C 0.51934 0.90122 0.75579 0.0
C1485 C 0.49736 0.89597 0.74382 0.0
C1486 C 0.47799 0.88371 0.76415 0.0
C1487 C 0.48001 0.87713 0.7958 0.0
C1488 C 0.45621 0.86407 0.81235 0.0
C1489 C 0.44996 0.83885 0.82118 0.0
C1490 C 0.45529 0.87746 0.84285 0.0
C1491 C 0.44066 0.86433 0.78498 0.0
C1492 C 0.45358 0.87565 0.75735 0.0
C1493 C 0.44313 0.87796 0.72883 0.0
C1494 C 0.41877 0.86881 0.72875 0.0
C1495 C 0.40521 0.85761 0.75708 0.0
C1496 C 0.4164 0.85518 0.78537 0.0
H1497 H 0.58539 0.43551 0.83706 0.0
H1498 H 0.62267 0.42045 0.76159 0.0
H1499 H 0.58759 0.38204 0.75165 0.0
H1500 H 0.54535 0.37078 0.86484 0.0
H1501 H 0.52132 0.37625 0.87088 0.0
H1502 H 0.55101 0.39921 0.87866 0.0
H1503 H 0.54493 0.42633 0.83862 0.0
H1504 H 0.5156 0.40342 0.82992 0.0
H1505 H 0.53628 0.41698 0.7967 0.0
H1506 H 0.54658 0.35169 0.73876 0.0
H1507 H 0.50359 0.32786 0.73075 0.0
H1508 H 0.49287 0.36107 0.81612 0.0
C1509 C 0.58656 0.42349 0.81995 0.0
C1510 C 0.60672 0.43085 0.80022 0.0
C1511 C 0.6074 0.41504 0.77711 0.0
C1512 C 0.58752 0.39319 0.77123 0.0
C1513 C 0.56722 0.38719 0.78911 0.0
C1514 C 0.56677 0.40152 0.8138 0.0
C1515 C 0.54202 0.39239 0.82643 0.0
C1516 C 0.5398 0.38416 0.86234 0.0
C1517 C 0.53428 0.41088 0.82266 0.0
C1518 C 0.52855 0.37182 0.80343 0.0
C1519 C 0.54339 0.36892 0.78227 0.0
C1520 C 0.53479 0.35316 0.75596 0.0
C1521 C 0.5104 0.33988 0.75136 0.0
C1522 C 0.49499 0.34238 0.77311 0.0
C1523 C 0.50426 0.35833 0.79966 0.0
H1524 H 0.09405 0.54142 0.7586 0.0
H1525 H 0.10204 0.54751 0.86488 0.0
H1526 H 0.09887 0.50829 0.86678 0.0
H1527 H 0.05247 0.47953 0.75519 0.0
H1528 H 0.06513 0.47527 0.71826 0.0
H1529 H 0.06699 0.50314 0.72594 0.0
H1530 H 0.11223 0.52398 0.71991 0.0
H1531 H 0.11054 0.49618 0.71243 0.0
H1532 H 0.12866 0.51479 0.7453 0.0
H1533 H 0.09538 0.46846 0.85619 0.0
H1534 H 0.09204 0.4318 0.83461 0.0
H1535 H 0.0876 0.45329 0.73505 0.0
C1536 C 0.09494 0.53455 0.78245 0.0
C1537 C 0.09819 0.54754 0.81168 0.0
C1538 C 0.09946 0.53784 0.84221 0.0
C1539 C 0.09771 0.51562 0.84348 0.0
C1540 C 0.09478 0.50348 0.81402 0.0
C1541 C 0.09341 0.51267 0.78411 0.0
C1542 C 0.09088 0.49661 0.75579 0.0
C1543 C 0.06747 0.48814 0.73775 0.0
C1544 C 0.11183 0.50861 0.73197 0.0
C1545 C 0.09111 0.47682 0.77433 0.0
C1546 C 0.09325 0.48101 0.80789 0.0
C1547 C 0.09369 0.46505 0.82998 0.0
C1548 C 0.09179 0.44427 0.81743 0.0
C1549 C 0.08962 0.43968 0.78308 0.0
C1550 C 0.08938 0.4563 0.76137 0.0
H1551 H 0.55709 0.11576 0.73404 0.0
H1552 H 0.58951 0.15012 0.8262 0.0
H1553 H 0.55144 0.1431 0.8468 0.0
H1554 H 0.51522 0.13754 0.73029 0.0
H1555 H 0.49214 0.11048 0.71341 0.0
H1556 H 0.52236 0.11946 0.70488 0.0
H1557 H 0.51571 0.07975 0.72758 0.0
H1558 H 0.48556 0.07076 0.73652 0.0
H1559 H 0.50443 0.07089 0.76875 0.0
H1560 H 0.50956 0.12988 0.85957 0.0
H1561 H 0.46663 0.11395 0.86133 0.0
H1562 H 0.46135 0.08896 0.76094 0.0
C1563 C 0.55623 0.12216 0.75828 0.0
C1564 C 0.57632 0.1334 0.77846 0.0
C1565 C 0.57438 0.14132 0.81024 0.0
C1566 C 0.55281 0.13744 0.82227 0.0
C1567 C 0.53324 0.12575 0.80223 0.0
C1568 C 0.53472 0.11846 0.77077 0.0
C1569 C 0.51078 0.10582 0.75473 0.0
C1570 C 0.51009 0.11913 0.72401 0.0
C1571 C 0.50371 0.08029 0.74642 0.0
C1572 C 0.49574 0.10693 0.78225 0.0
C1573 C 0.50902 0.11845 0.80946 0.0
C1574 C 0.49893 0.12102 0.83829 0.0
C1575 C 0.47456 0.11182 0.83915 0.0
C1576 C 0.46065 0.10034 0.81128 0.0
C1577 C 0.47149 0.09783 0.7826 0.0
H1578 H 0.38539 0.54818 0.75742 0.0
H1579 H 0.38509 0.54442 0.86413 0.0
H1580 H 0.42225 0.58244 0.86555 0.0
H1581 H 0.44312 0.56608 0.74806 0.0
H1582 H 0.44826 0.58499 0.71315 0.0
H1583 H 0.4194 0.56065 0.72065 0.0
H1584 H 0.40243 0.58876 0.72147 0.0
H1585 H 0.43132 0.61328 0.71373 0.0
H1586 H 0.41475 0.6136 0.74894 0.0
H1587 H 0.46157 0.61765 0.85493 0.0
H1588 H 0.50085 0.64563 0.83393 0.0
H1589 H 0.47638 0.62506 0.73366 0.0
C1590 C 0.39264 0.55568 0.78124 0.0
C1591 C 0.38214 0.54345 0.81076 0.0
C1592 C 0.39267 0.55358 0.84127 0.0
C1593 C 0.41372 0.5752 0.84226 0.0
C1594 C 0.42396 0.58637 0.81255 0.0
C1595 C 0.41373 0.57692 0.78259 0.0
C1596 C 0.4297 0.59047 0.7541 0.0
C1597 C 0.43546 0.5746 0.73277 0.0
C1598 C 0.4189 0.60223 0.73334 0.0
C1599 C 0.45102 0.60851 0.77267 0.0
C1600 C 0.4471 0.60621 0.80632 0.0
C1601 C 0.4647 0.61979 0.82865 0.0
C1602 C 0.48702 0.63561 0.81639 0.0
C1603 C 0.49175 0.63754 0.78205 0.0
C1604 C 0.47327 0.62424 0.75995 0.0
H1605 H 0.88446 0.43873 0.74308 0.0
H1606 H 0.87138 0.42648 0.84807 0.0
H1607 H 0.87461 0.46555 0.85379 0.0
H1608 H 0.92633 0.50082 0.74754 0.0
H1609 H 0.91553 0.50728 0.71053 0.0
H1610 H 0.91342 0.47906 0.71551 0.0
H1611 H 0.86859 0.45864 0.70531 0.0
H1612 H 0.87051 0.48678 0.70059 0.0
H1613 H 0.85081 0.46622 0.73069 0.0
H1614 H 0.878 0.50552 0.84708 0.0
H1615 H 0.8819 0.54316 0.82918 0.0
H1616 H 0.89193 0.52804 0.72825 0.0
C1617 C 0.88247 0.44423 0.76744 0.0
C1618 C 0.87769 0.42953 0.79519 0.0
C1619 C 0.87513 0.43748 0.82651 0.0
C1620 C 0.8769 0.4596 0.82995 0.0
C1621 C 0.88124 0.47342 0.80185 0.0
C1622 C 0.88408 0.46603 0.77125 0.0
C1623 C 0.88796 0.48373 0.74468 0.0
C1624 C 0.91225 0.49329 0.72863 0.0
C1625 C 0.86829 0.47321 0.7188 0.0
C1626 C 0.8867 0.5023 0.765 0.0
C1627 C 0.88291 0.49611 0.79793 0.0
C1628 C 0.88103 0.51054 0.82138 0.0
C1629 C 0.88325 0.53188 0.81092 0.0
C1630 C 0.88719 0.53856 0.77725 0.0
C1631 C 0.88884 0.52344 0.7541 0.0
loop_
_geom_bond_atom_site_label_1
_geom_bond_atom_site_label_2
_geom_bond_distance
_geom_bond_site_symmetry_2
_ccdc_geom_bond_type
Zn0 O3 2.031 . S
Zn0 O5 2.049 . S
Zn0 O10 2.067 . S
Zn1 O2 1.962 . S
Zn1 O4 1.986 . S
Zn1 O6 1.996 . S
Zn1 O9 1.943 . S
O2 Zn1 1.962 . S
O2 C7 1.254 . S
O3 Zn0 2.031 . S
O3 C7 1.269 . S
O4 Zn1 1.986 . S
O4 C11 1.262 . S
O5 Zn0 2.049 . S
O5 C13 1.260 . S
O6 Zn1 1.996 . S
O6 C13 1.257 . S
C7 O2 1.254 . S
C7 O3 1.269 . S
C8 O9 1.249 . S
C8 O10 1.270 . S
O9 Zn1 1.943 . S
O9 C8 1.249 . S
O10 Zn0 2.067 . S
O10 C8 1.270 . S
C11 O4 1.262 . S
C11 O12 1.232 . S
O12 C11 1.232 . S
C13 O5 1.260 . S
C13 O6 1.257 . S
Zn14 O17 2.031 . S
Zn14 O19 2.049 . S
Zn14 O24 2.067 . S
Zn15 O16 1.962 . S
Zn15 O18 1.986 . S
Zn15 O20 1.996 . S
Zn15 O23 1.943 . S
O16 Zn15 1.962 . S
O16 C21 1.254 . S
O17 Zn14 2.031 . S
O17 C21 1.269 . S
O18 Zn15 1.986 . S
O18 C25 1.262 . S
O19 Zn14 2.049 . S
O19 C27 1.260 . S
O20 Zn15 1.996 . S
O20 C27 1.257 . S
C21 O16 1.254 . S
C21 O17 1.269 . S
C22 O23 1.249 . S
C22 O24 1.270 . S
O23 Zn15 1.943 . S
O23 C22 1.249 . S
O24 Zn14 2.067 . S
O24 C22 1.270 . S
C25 O18 1.262 . S
C25 O26 1.232 . S
O26 C25 1.232 . S
C27 O19 1.260 . S
C27 O20 1.257 . S
Zn28 O31 2.031 . S
Zn28 O33 2.049 . S
Zn28 O38 2.067 . S
Zn29 O30 1.962 . S
Zn29 O32 1.986 . S
Zn29 O34 1.996 . S
Zn29 O37 1.943 . S
O30 Zn29 1.962 . S
O30 C35 1.254 . S
O31 Zn28 2.031 . S
O31 C35 1.269 . S
O32 Zn29 1.986 . S
O32 C39 1.262 . S
O33 Zn28 2.049 . S
O33 C41 1.260 . S
O34 Zn29 1.996 . S
O34 C41 1.257 . S
C35 O30 1.254 . S
C35 O31 1.269 . S
C36 O37 1.249 . S
C36 O38 1.270 . S
O37 Zn29 1.943 . S
O37 C36 1.249 . S
O38 Zn28 2.067 . S
O38 C36 1.270 . S
C39 O32 1.262 . S
C39 O40 1.232 . S
O40 C39 1.232 . S
C41 O33 1.260 . S
C41 O34 1.257 . S
Zn42 O45 2.031 . S
Zn42 O47 2.049 . S
Zn42 O52 2.067 . S
Zn43 O44 1.962 . S
Zn43 O46 1.986 . S
Zn43 O48 1.996 . S
Zn43 O51 1.943 . S
O44 Zn43 1.962 . S
O44 C49 1.254 . S
O45 Zn42 2.031 . S
O45 C49 1.269 . S
O46 Zn43 1.986 . S
O46 C53 1.262 . S
O47 Zn42 2.049 . S
O47 C55 1.260 . S
O48 Zn43 1.996 . S
O48 C55 1.257 . S
C49 O44 1.254 . S
C49 O45 1.269 . S
C50 O51 1.249 . S
C50 O52 1.270 . S
O51 Zn43 1.943 . S
O51 C50 1.249 . S
O52 Zn42 2.067 . S
O52 C50 1.270 . S
C53 O46 1.262 . S
C53 O54 1.232 . S
O54 C53 1.232 . S
C55 O47 1.260 . S
C55 O48 1.257 . S
Zn56 O59 2.031 . S
Zn56 O61 2.049 . S
Zn56 O66 2.067 . S
Zn57 O58 1.962 . S
Zn57 O60 1.986 . S
Zn57 O62 1.996 . S
Zn57 O65 1.943 . S
O58 Zn57 1.962 . S
O58 C63 1.254 . S
O59 Zn56 2.031 . S
O59 C63 1.269 . S
O60 Zn57 1.986 . S
O60 C67 1.262 . S
O61 Zn56 2.049 . S
O61 C69 1.260 . S
O62 Zn57 1.996 . S
O62 C69 1.257 . S
C63 O58 1.254 . S
C63 O59 1.269 . S
C64 O65 1.249 . S
C64 O66 1.270 . S
O65 Zn57 1.943 . S
O65 C64 1.249 . S
O66 Zn56 2.067 . S
O66 C64 1.270 . S
C67 O60 1.262 . S
C67 O68 1.232 . S
O68 C67 1.232 . S
C69 O61 1.260 . S
C69 O62 1.257 . S
Zn70 O73 2.031 . S
Zn70 O75 2.049 . S
Zn70 O80 2.067 . S
Zn71 O72 1.962 . S
Zn71 O74 1.986 . S
Zn71 O76 1.996 . S
Zn71 O79 1.943 . S
O72 Zn71 1.962 . S
O72 C77 1.254 . S
O73 Zn70 2.031 . S
O73 C77 1.269 . S
O74 Zn71 1.986 . S
O74 C81 1.262 . S
O75 Zn70 2.049 . S
O75 C83 1.260 . S
O76 Zn71 1.996 . S
O76 C83 1.257 . S
C77 O72 1.254 . S
C77 O73 1.269 . S
C78 O79 1.249 . S
C78 O80 1.270 . S
O79 Zn71 1.943 . S
O79 C78 1.249 . S
O80 Zn70 2.067 . S
O80 C78 1.270 . S
C81 O74 1.262 . S
C81 O82 1.232 . S
O82 C81 1.232 . S
C83 O75 1.260 . S
C83 O76 1.257 . S
Zn84 O87 2.031 . S
Zn84 O89 2.049 . S
Zn84 O94 2.067 . S
Zn85 O86 1.962 . S
Zn85 O88 1.986 . S
Zn85 O90 1.996 . S
Zn85 O93 1.943 . S
O86 Zn85 1.962 . S
O86 C91 1.254 . S
O87 Zn84 2.031 . S
O87 C91 1.269 . S
O88 Zn85 1.986 . S
O88 C95 1.262 . S
O89 Zn84 2.049 . S
O89 C97 1.260 . S
O90 Zn85 1.996 . S
O90 C97 1.257 . S
C91 O86 1.254 . S
C91 O87 1.269 . S
C92 O93 1.249 . S
C92 O94 1.270 . S
O93 Zn85 1.943 . S
O93 C92 1.249 . S
O94 Zn84 2.067 . S
O94 C92 1.270 . S
C95 O88 1.262 . S
C95 O96 1.232 . S
O96 C95 1.232 . S
C97 O89 1.260 . S
C97 O90 1.257 . S
Zn98 O101 2.031 . S
Zn98 O103 2.049 . S
Zn98 O108 2.067 . S
Zn99 O100 1.962 . S
Zn99 O102 1.986 . S
Zn99 O104 1.996 . S
Zn99 O107 1.943 . S
O100 Zn99 1.962 . S
O100 C105 1.254 . S
O101 Zn98 2.031 . S
O101 C105 1.269 . S
O102 Zn99 1.986 . S
O102 C109 1.262 . S
O103 Zn98 2.049 . S
O103 C111 1.260 . S
O104 Zn99 1.996 . S
O104 C111 1.257 . S
C105 O100 1.254 . S
C105 O101 1.269 . S
C106 O107 1.249 . S
C106 O108 1.270 . S
O107 Zn99 1.943 . S
O107 C106 1.249 . S
O108 Zn98 2.067 . S
O108 C106 1.270 . S
C109 O102 1.262 . S
C109 O110 1.232 . S
O110 C109 1.232 . S
C111 O103 1.260 . S
C111 O104 1.257 . S
Zn112 O115 2.031 . S
Zn112 O117 2.049 . S
Zn112 O122 2.067 . S
Zn113 O114 1.962 . S
Zn113 O116 1.986 . S
Zn113 O118 1.996 . S
Zn113 O121 1.943 . S
O114 Zn113 1.962 . S
O114 C119 1.254 . S
O115 Zn112 2.031 . S
O115 C119 1.269 . S
O116 Zn113 1.986 . S
O116 C123 1.262 . S
O117 Zn112 2.049 . S
O117 C125 1.260 . S
O118 Zn113 1.996 . S
O118 C125 1.257 . S
C119 O114 1.254 . S
C119 O115 1.269 . S
C120 O121 1.249 . S
C120 O122 1.270 . S
O121 Zn113 1.943 . S
O121 C120 1.249 . S
O122 Zn112 2.067 . S
O122 C120 1.270 . S
C123 O116 1.262 . S
C123 O124 1.232 . S
O124 C123 1.232 . S
C125 O117 1.260 . S
C125 O118 1.257 . S
Zn126 O129 2.031 . S
Zn126 O131 2.049 . S
Zn126 O136 2.067 . S
Zn127 O128 1.962 . S
Zn127 O130 1.986 . S
Zn127 O132 1.996 . S
Zn127 O135 1.943 . S
O128 Zn127 1.962 . S
O128 C133 1.254 . S
O129 Zn126 2.031 . S
O129 C133 1.269 . S
O130 Zn127 1.986 . S
O130 C137 1.262 . S
O131 Zn126 2.049 . S
O131 C139 1.260 . S
O132 Zn127 1.996 . S
O132 C139 1.257 . S
C133 O128 1.254 . S
C133 O129 1.269 . S
C134 O135 1.249 . S
C134 O136 1.270 . S
O135 Zn127 1.943 . S
O135 C134 1.249 . S
O136 Zn126 2.067 . S
O136 C134 1.270 . S
C137 O130 1.262 . S
C137 O138 1.232 . S
O138 C137 1.232 . S
C139 O131 1.260 . S
C139 O132 1.257 . S
Zn140 O143 2.031 . S
Zn140 O145 2.049 . S
Zn140 O150 2.067 . S
Zn141 O142 1.962 . S
Zn141 O144 1.986 . S
Zn141 O146 1.996 . S
Zn141 O149 1.943 . S
O142 Zn141 1.962 . S
O142 C147 1.254 . S
O143 Zn140 2.031 . S
O143 C147 1.269 . S
O144 Zn141 1.986 . S
O144 C151 1.262 . S
O145 Zn140 2.049 . S
O145 C153 1.260 . S
O146 Zn141 1.996 . S
O146 C153 1.257 . S
C147 O142 1.254 . S
C147 O143 1.269 . S
C148 O149 1.249 . S
C148 O150 1.270 . S
O149 Zn141 1.943 . S
O149 C148 1.249 . S
O150 Zn140 2.067 . S
O150 C148 1.270 . S
C151 O144 1.262 . S
C151 O152 1.232 . S
O152 C151 1.232 . S
C153 O145 1.260 . S
C153 O146 1.257 . S
Zn154 O157 2.031 . S
Zn154 O159 2.049 . S
Zn154 O164 2.067 . S
Zn155 O156 1.962 . S
Zn155 O158 1.986 . S
Zn155 O160 1.996 . S
Zn155 O163 1.943 . S
O156 Zn155 1.962 . S
O156 C161 1.254 . S
O157 Zn154 2.031 . S
O157 C161 1.269 . S
O158 Zn155 1.986 . S
O158 C165 1.262 . S
O159 Zn154 2.049 . S
O159 C167 1.260 . S
O160 Zn155 1.996 . S
O160 C167 1.257 . S
C161 O156 1.254 . S
C161 O157 1.269 . S
C162 O163 1.249 . S
C162 O164 1.270 . S
O163 Zn155 1.943 . S
O163 C162 1.249 . S
O164 Zn154 2.067 . S
O164 C162 1.270 . S
C165 O158 1.262 . S
C165 O166 1.232 . S
O166 C165 1.232 . S
C167 O159 1.260 . S
C167 O160 1.257 . S
Zn168 O171 2.031 . S
Zn168 O173 2.049 . S
Zn168 O178 2.067 . S
Zn169 O170 1.962 . S
Zn169 O172 1.986 . S
Zn169 O174 1.996 . S
Zn169 O177 1.943 . S
O170 Zn169 1.962 . S
O170 C175 1.254 . S
O171 Zn168 2.031 . S
O171 C175 1.269 . S
O172 Zn169 1.986 . S
O172 C179 1.262 . S
O173 Zn168 2.049 . S
O173 C181 1.260 . S
O174 Zn169 1.996 . S
O174 C181 1.257 . S
C175 O170 1.254 . S
C175 O171 1.269 . S
C176 O177 1.249 . S
C176 O178 1.270 . S
O177 Zn169 1.943 . S
O177 C176 1.249 . S
O178 Zn168 2.067 . S
O178 C176 1.270 . S
C179 O172 1.262 . S
C179 O180 1.232 . S
O180 C179 1.232 . S
C181 O173 1.260 . S
C181 O174 1.257 . S
Zn182 O185 2.031 . S
Zn182 O187 2.049 . S
Zn182 O192 2.067 . S
Zn183 O184 1.962 . S
Zn183 O186 1.986 . S
Zn183 O188 1.996 . S
Zn183 O191 1.943 . S
O184 Zn183 1.962 . S
O184 C189 1.254 . S
O185 Zn182 2.031 . S
O185 C189 1.269 . S
O186 Zn183 1.986 . S
O186 C193 1.262 . S
O187 Zn182 2.049 . S
O187 C195 1.260 . S
O188 Zn183 1.996 . S
O188 C195 1.257 . S
C189 O184 1.254 . S
C189 O185 1.269 . S
C190 O191 1.249 . S
C190 O192 1.270 . S
O191 Zn183 1.943 . S
O191 C190 1.249 . S
O192 Zn182 2.067 . S
O192 C190 1.270 . S
C193 O186 1.262 . S
C193 O194 1.232 . S
O194 C193 1.232 . S
C195 O187 1.260 . S
C195 O188 1.257 . S
Zn196 O199 2.031 . S
Zn196 O201 2.049 . S
Zn196 O206 2.067 . S
Zn197 O198 1.962 . S
Zn197 O200 1.986 . S
Zn197 O202 1.996 . S
Zn197 O205 1.943 . S
O198 Zn197 1.962 . S
O198 C203 1.254 . S
O199 Zn196 2.031 . S
O199 C203 1.269 . S
O200 Zn197 1.986 . S
O200 C207 1.262 . S
O201 Zn196 2.049 . S
O201 C209 1.260 . S
O202 Zn197 1.996 . S
O202 C209 1.257 . S
C203 O198 1.254 . S
C203 O199 1.269 . S
C204 O205 1.249 . S
C204 O206 1.270 . S
O205 Zn197 1.943 . S
O205 C204 1.249 . S
O206 Zn196 2.067 . S
O206 C204 1.270 . S
C207 O200 1.262 . S
C207 O208 1.232 . S
O208 C207 1.232 . S
C209 O201 1.260 . S
C209 O202 1.257 . S
Zn210 O213 2.031 . S
Zn210 O215 2.049 . S
Zn210 O220 2.067 . S
Zn211 O212 1.962 . S
Zn211 O214 1.986 . S
Zn211 O216 1.996 . S
Zn211 O219 1.943 . S
O212 Zn211 1.962 . S
O212 C217 1.254 . S
O213 Zn210 2.031 . S
O213 C217 1.269 . S
O214 Zn211 1.986 . S
O214 C221 1.262 . S
O215 Zn210 2.049 . S
O215 C223 1.260 . S
O216 Zn211 1.996 . S
O216 C223 1.257 . S
C217 O212 1.254 . S
C217 O213 1.269 . S
C218 O219 1.249 . S
C218 O220 1.270 . S
O219 Zn211 1.943 . S
O219 C218 1.249 . S
O220 Zn210 2.067 . S
O220 C218 1.270 . S
C221 O214 1.262 . S
C221 O222 1.232 . S
O222 C221 1.232 . S
C223 O215 1.260 . S
C223 O216 1.257 . S
Zn224 O227 2.031 . S
Zn224 O229 2.049 . S
Zn224 O234 2.067 . S
Zn225 O226 1.962 . S
Zn225 O228 1.986 . S
Zn225 O230 1.996 . S
Zn225 O233 1.943 . S
O226 Zn225 1.962 . S
O226 C231 1.254 . S
O227 Zn224 2.031 . S
O227 C231 1.269 . S
O228 Zn225 1.986 . S
O228 C235 1.262 . S
O229 Zn224 2.049 . S
O229 C237 1.260 . S
O230 Zn225 1.996 . S
O230 C237 1.257 . S
C231 O226 1.254 . S
C231 O227 1.269 . S
C232 O233 1.249 . S
C232 O234 1.270 . S
O233 Zn225 1.943 . S
O233 C232 1.249 . S
O234 Zn224 2.067 . S
O234 C232 1.270 . S
C235 O228 1.262 . S
C235 O236 1.232 . S
O236 C235 1.232 . S
C237 O229 1.260 . S
C237 O230 1.257 . S
Zn238 O241 2.031 . S
Zn238 O243 2.049 . S
Zn238 O248 2.067 . S
Zn239 O240 1.962 . S
Zn239 O242 1.986 . S
Zn239 O244 1.996 . S
Zn239 O247 1.943 . S
O240 Zn239 1.962 . S
O240 C245 1.254 . S
O241 Zn238 2.031 . S
O241 C245 1.269 . S
O242 Zn239 1.986 . S
O242 C249 1.262 . S
O243 Zn238 2.049 . S
O243 C251 1.260 . S
O244 Zn239 1.996 . S
O244 C251 1.257 . S
C245 O240 1.254 . S
C245 O241 1.269 . S
C246 O247 1.249 . S
C246 O248 1.270 . S
O247 Zn239 1.943 . S
O247 C246 1.249 . S
O248 Zn238 2.067 . S
O248 C246 1.270 . S
C249 O242 1.262 . S
C249 O250 1.232 . S
O250 C249 1.232 . S
C251 O243 1.260 . S
C251 O244 1.257 . S
Zn252 O255 2.031 . S
Zn252 O257 2.049 . S
Zn252 O262 2.067 . S
Zn253 O254 1.962 . S
Zn253 O256 1.986 . S
Zn253 O258 1.996 . S
Zn253 O261 1.943 . S
O254 Zn253 1.962 . S
O254 C259 1.254 . S
O255 Zn252 2.031 . S
O255 C259 1.269 . S
O256 Zn253 1.986 . S
O256 C263 1.262 . S
O257 Zn252 2.049 . S
O257 C265 1.260 . S
O258 Zn253 1.996 . S
O258 C265 1.257 . S
C259 O254 1.254 . S
C259 O255 1.269 . S
C260 O261 1.249 . S
C260 O262 1.270 . S
O261 Zn253 1.943 . S
O261 C260 1.249 . S
O262 Zn252 2.067 . S
O262 C260 1.270 . S
C263 O256 1.262 . S
C263 O264 1.232 . S
O264 C263 1.232 . S
C265 O257 1.260 . S
C265 O258 1.257 . S
Zn266 O269 2.031 . S
Zn266 O271 2.049 . S
Zn266 O276 2.067 . S
Zn267 O268 1.962 . S
Zn267 O270 1.986 . S
Zn267 O272 1.996 . S
Zn267 O275 1.943 . S
O268 Zn267 1.962 . S
O268 C273 1.254 . S
O269 Zn266 2.031 . S
O269 C273 1.269 . S
O270 Zn267 1.986 . S
O270 C277 1.262 . S
O271 Zn266 2.049 . S
O271 C279 1.260 . S
O272 Zn267 1.996 . S
O272 C279 1.257 . S
C273 O268 1.254 . S
C273 O269 1.269 . S
C274 O275 1.249 . S
C274 O276 1.270 . S
O275 Zn267 1.943 . S
O275 C274 1.249 . S
O276 Zn266 2.067 . S
O276 C274 1.270 . S
C277 O270 1.262 . S
C277 O278 1.232 . S
O278 C277 1.232 . S
C279 O271 1.260 . S
C279 O272 1.257 . S
Zn280 O283 2.031 . S
Zn280 O285 2.049 . S
Zn280 O290 2.067 . S
Zn281 O282 1.962 . S
Zn281 O284 1.986 . S
Zn281 O286 1.996 . S
Zn281 O289 1.943 . S
O282 Zn281 1.962 . S
O282 C287 1.254 . S
O283 Zn280 2.031 . S
O283 C287 1.269 . S
O284 Zn281 1.986 . S
O284 C291 1.262 . S
O285 Zn280 2.049 . S
O285 C293 1.260 . S
O286 Zn281 1.996 . S
O286 C293 1.257 . S
C287 O282 1.254 . S
C287 O283 1.269 . S
C288 O289 1.249 . S
C288 O290 1.270 . S
O289 Zn281 1.943 . S
O289 C288 1.249 . S
O290 Zn280 2.067 . S
O290 C288 1.270 . S
C291 O284 1.262 . S
C291 O292 1.232 . S
O292 C291 1.232 . S
C293 O285 1.260 . S
C293 O286 1.257 . S
Zn294 O297 2.031 . S
Zn294 O299 2.049 . S
Zn294 O304 2.067 . S
Zn295 O296 1.962 . S
Zn295 O298 1.986 . S
Zn295 O300 1.996 . S
Zn295 O303 1.943 . S
O296 Zn295 1.962 . S
O296 C301 1.254 . S
O297 Zn294 2.031 . S
O297 C301 1.269 . S
O298 Zn295 1.986 . S
O298 C305 1.262 . S
O299 Zn294 2.049 . S
O299 C307 1.260 . S
O300 Zn295 1.996 . S
O300 C307 1.257 . S
C301 O296 1.254 . S
C301 O297 1.269 . S
C302 O303 1.249 . S
C302 O304 1.270 . S
O303 Zn295 1.943 . S
O303 C302 1.249 . S
O304 Zn294 2.067 . S
O304 C302 1.270 . S
C305 O298 1.262 . S
C305 O306 1.232 . S
O306 C305 1.232 . S
C307 O299 1.260 . S
C307 O300 1.257 . S
Zn308 O311 2.031 . S
Zn308 O313 2.049 . S
Zn308 O318 2.067 . S
Zn309 O310 1.962 . S
Zn309 O312 1.986 . S
Zn309 O314 1.996 . S
Zn309 O317 1.943 . S
O310 Zn309 1.962 . S
O310 C315 1.254 . S
O311 Zn308 2.031 . S
O311 C315 1.269 . S
O312 Zn309 1.986 . S
O312 C319 1.262 . S
O313 Zn308 2.049 . S
O313 C321 1.260 . S
O314 Zn309 1.996 . S
O314 C321 1.257 . S
C315 O310 1.254 . S
C315 O311 1.269 . S
C316 O317 1.249 . S
C316 O318 1.270 . S
O317 Zn309 1.943 . S
O317 C316 1.249 . S
O318 Zn308 2.067 . S
O318 C316 1.270 . S
C319 O312 1.262 . S
C319 O320 1.232 . S
O320 C319 1.232 . S
C321 O313 1.260 . S
C321 O314 1.257 . S
Zn322 O325 2.031 . S
Zn322 O327 2.049 . S
Zn322 O332 2.067 . S
Zn323 O324 1.962 . S
Zn323 O326 1.986 . S
Zn323 O328 1.996 . S
Zn323 O331 1.943 . S
O324 Zn323 1.962 . S
O324 C329 1.254 . S
O325 Zn322 2.031 . S
O325 C329 1.269 . S
O326 Zn323 1.986 . S
O326 C333 1.262 . S
O327 Zn322 2.049 . S
O327 C335 1.260 . S
O328 Zn323 1.996 . S
O328 C335 1.257 . S
C329 O324 1.254 . S
C329 O325 1.269 . S
C330 O331 1.249 . S
C330 O332 1.270 . S
O331 Zn323 1.943 . S
O331 C330 1.249 . S
O332 Zn322 2.067 . S
O332 C330 1.270 . S
C333 O326 1.262 . S
C333 O334 1.232 . S
O334 C333 1.232 . S
C335 O327 1.260 . S
C335 O328 1.257 . S
H336 C348 0.930 . S
H337 C350 0.930 . S
H338 C351 0.930 . S
H339 C355 0.959 . S
H340 C355 0.959 . S
H341 C355 0.961 . S
H342 C356 0.960 . S
H343 C356 0.961 . S
H344 C356 0.959 . S
H345 C359 0.929 . S
H346 C360 0.931 . S
H347 C362 0.930 . S
C348 H336 0.930 . S
C348 C349 1.399 . S
C348 C353 1.399 . S
C349 C348 1.399 . S
C349 C350 1.376 . S
C350 H337 0.930 . S
C350 C349 1.376 . S
C350 C351 1.388 . S
C351 H338 0.930 . S
C351 C350 1.388 . S
C351 C352 1.390 . S
C352 C351 1.390 . S
C352 C353 1.394 . S
C352 C358 1.465 1_545 S
C353 C348 1.399 . S
C353 C352 1.394 . S
C353 C354 1.516 . S
C354 C353 1.516 . S
C354 C355 1.502 . S
C354 C356 1.561 . S
C354 C357 1.526 1_545 S
C355 H339 0.959 . S
C355 H340 0.959 . S
C355 H341 0.961 . S
C355 C354 1.502 . S
C356 H342 0.960 . S
C356 H343 0.961 . S
C356 H344 0.959 . S
C356 C354 1.561 . S
C357 C354 1.526 1_565 S
C357 C358 1.396 . S
C357 C362 1.390 . S
C358 C352 1.465 1_565 S
C358 C357 1.396 . S
C358 C359 1.399 . S
C359 H345 0.929 . S
C359 C358 1.399 . S
C359 C360 1.385 . S
C360 H346 0.931 . S
C360 C359 1.385 . S
C360 C361 1.389 . S
C361 C360 1.389 . S
C361 C362 1.387 . S
C362 H347 0.930 . S
C362 C357 1.390 . S
C362 C361 1.387 . S
H363 C375 0.930 . S
H364 C377 0.930 . S
H365 C378 0.930 . S
H366 C382 0.959 . S
H367 C382 0.959 . S
H368 C382 0.961 . S
H369 C383 0.960 . S
H370 C383 0.961 . S
H371 C383 0.959 . S
H372 C386 0.929 . S
H373 C387 0.931 . S
H374 C389 0.930 . S
C375 H363 0.930 . S
C375 C376 1.399 . S
C375 C380 1.399 . S
C376 C375 1.399 . S
C376 C377 1.376 . S
C377 H364 0.930 . S
C377 C376 1.376 . S
C377 C378 1.388 . S
C378 H365 0.930 . S
C378 C377 1.388 . S
C378 C379 1.390 . S
C379 C378 1.390 . S
C379 C380 1.394 . S
C379 C385 1.465 . S
C380 C375 1.399 . S
C380 C379 1.394 . S
C380 C381 1.516 . S
C381 C380 1.516 . S
C381 C382 1.502 . S
C381 C383 1.561 . S
C381 C384 1.526 . S
C382 H366 0.959 . S
C382 H367 0.959 . S
C382 H368 0.961 . S
C382 C381 1.502 . S
C383 H369 0.960 . S
C383 H370 0.961 . S
C383 H371 0.959 . S
C383 C381 1.561 . S
C384 C381 1.526 . S
C384 C385 1.396 . S
C384 C389 1.390 . S
C385 C379 1.465 . S
C385 C384 1.396 . S
C385 C386 1.399 . S
C386 H372 0.929 . S
C386 C385 1.399 . S
C386 C387 1.385 . S
C387 H373 0.931 . S
C387 C386 1.385 . S
C387 C388 1.389 . S
C388 C387 1.389 . S
C388 C389 1.387 . S
C389 H374 0.930 . S
C389 C384 1.390 . S
C389 C388 1.387 . S
H390 C402 0.930 . S
H391 C404 0.930 . S
H392 C405 0.930 . S
H393 C409 0.959 1_455 S
H394 C409 0.959 1_455 S
H395 C409 0.961 . S
H396 C410 0.960 . S
H397 C410 0.961 . S
H398 C410 0.959 . S
H399 C413 0.929 . S
H400 C414 0.931 . S
H401 C416 0.930 . S
C402 H390 0.930 . S
C402 C403 1.399 . S
C402 C407 1.399 . S
C403 C402 1.399 . S
C403 C404 1.376 . S
C404 H391 0.930 . S
C404 C403 1.376 . S
C404 C405 1.388 . S
C405 H392 0.930 . S
C405 C404 1.388 . S
C405 C406 1.390 . S
C406 C405 1.390 . S
C406 C407 1.394 . S
C406 C412 1.465 1_655 S
C407 C402 1.399 . S
C407 C406 1.394 . S
C407 C408 1.516 . S
C408 C407 1.516 . S
C408 C409 1.502 . S
C408 C410 1.561 . S
C408 C411 1.526 1_655 S
C409 H393 0.959 1_655 S
C409 H394 0.959 1_655 S
C409 H395 0.961 . S
C409 C408 1.502 . S
C410 H396 0.960 . S
C410 H397 0.961 . S
C410 H398 0.959 . S
C410 C408 1.561 . S
C411 C408 1.526 1_455 S
C411 C412 1.396 . S
C411 C416 1.390 . S
C412 C406 1.465 1_455 S
C412 C411 1.396 . S
C412 C413 1.399 . S
C413 H399 0.929 . S
C413 C412 1.399 . S
C413 C414 1.385 . S
C414 H400 0.931 . S
C414 C413 1.385 . S
C414 C415 1.389 . S
C415 C414 1.389 . S
C415 C416 1.387 . S
C416 H401 0.930 . S
C416 C411 1.390 . S
C416 C415 1.387 . S
H417 C429 0.930 . S
H418 C431 0.930 . S
H419 C432 0.930 . S
H420 C436 0.959 . S
H421 C436 0.959 . S
H422 C436 0.961 . S
H423 C437 0.960 . S
H424 C437 0.961 . S
H425 C437 0.959 . S
H426 C440 0.929 . S
H427 C441 0.931 . S
H428 C443 0.930 . S
C429 H417 0.930 . S
C429 C430 1.399 . S
C429 C434 1.399 . S
C430 C429 1.399 . S
C430 C431 1.376 . S
C431 H418 0.930 . S
C431 C430 1.376 . S
C431 C432 1.388 . S
C432 H419 0.930 . S
C432 C431 1.388 . S
C432 C433 1.390 . S
C433 C432 1.390 . S
C433 C434 1.394 . S
C433 C439 1.465 1_565 S
C434 C429 1.399 . S
C434 C433 1.394 . S
C434 C435 1.516 . S
C435 C434 1.516 . S
C435 C436 1.502 . S
C435 C437 1.561 . S
C435 C438 1.526 1_565 S
C436 H420 0.959 . S
C436 H421 0.959 . S
C436 H422 0.961 . S
C436 C435 1.502 . S
C437 H423 0.960 . S
C437 H424 0.961 . S
C437 H425 0.959 . S
C437 C435 1.561 . S
C438 C435 1.526 1_545 S
C438 C439 1.396 . S
C438 C443 1.390 . S
C439 C433 1.465 1_545 S
C439 C438 1.396 . S
C439 C440 1.399 . S
C440 H426 0.929 . S
C440 C439 1.399 . S
C440 C441 1.385 . S
C441 H427 0.931 . S
C441 C440 1.385 . S
C441 C442 1.389 . S
C442 C441 1.389 . S
C442 C443 1.387 . S
C443 H428 0.930 . S
C443 C438 1.390 . S
C443 C442 1.387 . S
H444 C456 0.930 . S
H445 C458 0.930 . S
H446 C459 0.930 . S
H447 C463 0.959 . S
H448 C463 0.959 . S
H449 C463 0.961 . S
H450 C464 0.960 . S
H451 C464 0.961 . S
H452 C464 0.959 . S
H453 C467 0.929 . S
H454 C468 0.931 . S
H455 C470 0.930 . S
C456 H444 0.930 . S
C456 C457 1.399 . S
C456 C461 1.399 . S
C457 C456 1.399 . S
C457 C458 1.376 . S
C458 H445 0.930 . S
C458 C457 1.376 . S
C458 C459 1.388 . S
C459 H446 0.930 . S
C459 C458 1.388 . S
C459 C460 1.390 . S
C460 C459 1.390 . S
C460 C461 1.394 . S
C460 C466 1.465 . S
C461 C456 1.399 . S
C461 C460 1.394 . S
C461 C462 1.516 . S
C462 C461 1.516 . S
C462 C463 1.502 . S
C462 C464 1.561 . S
C462 C465 1.526 . S
C463 H447 0.959 . S
C463 H448 0.959 . S
C463 H449 0.961 . S
C463 C462 1.502 . S
C464 H450 0.960 . S
C464 H451 0.961 . S
C464 H452 0.959 . S
C464 C462 1.561 . S
C465 C462 1.526 . S
C465 C466 1.396 . S
C465 C470 1.390 . S
C466 C460 1.465 . S
C466 C465 1.396 . S
C466 C467 1.399 . S
C467 H453 0.929 . S
C467 C466 1.399 . S
C467 C468 1.385 . S
C468 H454 0.931 . S
C468 C467 1.385 . S
C468 C469 1.389 . S
C469 C468 1.389 . S
C469 C470 1.387 . S
C470 H455 0.930 . S
C470 C465 1.390 . S
C470 C469 1.387 . S
H471 C483 0.930 . S
H472 C485 0.930 . S
H473 C486 0.930 . S
H474 C490 0.959 . S
H475 C490 0.959 . S
H476 C490 0.961 . S
H477 C491 0.960 1_455 S
H478 C491 0.961 . S
H479 C491 0.959 . S
H480 C494 0.929 . S
H481 C495 0.931 . S
H482 C497 0.930 . S
C483 H471 0.930 . S
C483 C484 1.399 . S
C483 C488 1.399 . S
C484 C483 1.399 . S
C484 C485 1.376 . S
C485 H472 0.930 . S
C485 C484 1.376 . S
C485 C486 1.388 . S
C486 H473 0.930 . S
C486 C485 1.388 . S
C486 C487 1.390 . S
C487 C486 1.390 . S
C487 C488 1.394 . S
C487 C493 1.465 1_455 S
C488 C483 1.399 . S
C488 C487 1.394 . S
C488 C489 1.516 . S
C489 C488 1.516 . S
C489 C490 1.502 . S
C489 C491 1.561 1_455 S
C489 C492 1.526 1_455 S
C490 H474 0.959 . S
C490 H475 0.959 . S
C490 H476 0.961 . S
C490 C489 1.502 . S
C491 H477 0.960 1_655 S
C491 H478 0.961 . S
C491 H479 0.959 . S
C491 C489 1.561 1_655 S
C492 C489 1.526 1_655 S
C492 C493 1.396 . S
C492 C497 1.390 . S
C493 C487 1.465 1_655 S
C493 C492 1.396 . S
C493 C494 1.399 . S
C494 H480 0.929 . S
C494 C493 1.399 . S
C494 C495 1.385 . S
C495 H481 0.931 . S
C495 C494 1.385 . S
C495 C496 1.389 . S
C496 C495 1.389 . S
C496 C497 1.387 . S
C497 H482 0.930 . S
C497 C492 1.390 . S
C497 C496 1.387 . S
H498 C510 0.930 . S
H499 C512 0.930 . S
H500 C513 0.930 . S
H501 C517 0.959 . S
H502 C517 0.959 . S
H503 C517 0.961 . S
H504 C518 0.960 . S
H505 C518 0.961 . S
H506 C518 0.959 . S
H507 C521 0.929 . S
H508 C522 0.931 . S
H509 C524 0.930 . S
C510 H498 0.930 . S
C510 C511 1.399 . S
C510 C515 1.399 . S
C511 C510 1.399 . S
C511 C512 1.376 . S
C512 H499 0.930 . S
C512 C511 1.376 . S
C512 C513 1.388 . S
C513 H500 0.930 . S
C513 C512 1.388 . S
C513 C514 1.390 . S
C514 C513 1.390 . S
C514 C515 1.394 . S
C514 C520 1.465 1_565 S
C515 C510 1.399 . S
C515 C514 1.394 . S
C515 C516 1.516 1_565 S
C516 C515 1.516 1_545 S
C516 C517 1.502 . S
C516 C518 1.561 . S
C516 C519 1.526 . S
C517 H501 0.959 . S
C517 H502 0.959 . S
C517 H503 0.961 . S
C517 C516 1.502 . S
C518 H504 0.960 . S
C518 H505 0.961 . S
C518 H506 0.959 . S
C518 C516 1.561 . S
C519 C516 1.526 . S
C519 C520 1.396 . S
C519 C524 1.390 . S
C520 C514 1.465 1_545 S
C520 C519 1.396 . S
C520 C521 1.399 . S
C521 H507 0.929 . S
C521 C520 1.399 . S
C521 C522 1.385 . S
C522 H508 0.931 . S
C522 C521 1.385 . S
C522 C523 1.389 . S
C523 C522 1.389 . S
C523 C524 1.387 . S
C524 H509 0.930 . S
C524 C519 1.390 . S
C524 C523 1.387 . S
H525 C537 0.930 . S
H526 C539 0.930 . S
H527 C540 0.930 . S
H528 C544 0.959 . S
H529 C544 0.959 . S
H530 C544 0.961 . S
H531 C545 0.960 . S
H532 C545 0.961 . S
H533 C545 0.959 . S
H534 C548 0.929 . S
H535 C549 0.931 . S
H536 C551 0.930 . S
C537 H525 0.930 . S
C537 C538 1.399 . S
C537 C542 1.399 . S
C538 C537 1.399 . S
C538 C539 1.376 . S
C539 H526 0.930 . S
C539 C538 1.376 . S
C539 C540 1.388 . S
C540 H527 0.930 . S
C540 C539 1.388 . S
C540 C541 1.390 . S
C541 C540 1.390 . S
C541 C542 1.394 . S
C541 C547 1.465 . S
C542 C537 1.399 . S
C542 C541 1.394 . S
C542 C543 1.516 . S
C543 C542 1.516 . S
C543 C544 1.502 . S
C543 C545 1.561 . S
C543 C546 1.526 . S
C544 H528 0.959 . S
C544 H529 0.959 . S
C544 H530 0.961 . S
C544 C543 1.502 . S
C545 H531 0.960 . S
C545 H532 0.961 . S
C545 H533 0.959 . S
C545 C543 1.561 . S
C546 C543 1.526 . S
C546 C547 1.396 . S
C546 C551 1.390 . S
C547 C541 1.465 . S
C547 C546 1.396 . S
C547 C548 1.399 . S
C548 H534 0.929 . S
C548 C547 1.399 . S
C548 C549 1.385 . S
C549 H535 0.931 . S
C549 C548 1.385 . S
C549 C550 1.389 . S
C550 C549 1.389 . S
C550 C551 1.387 . S
C551 H536 0.930 . S
C551 C546 1.390 . S
C551 C550 1.387 . S
H552 C564 0.930 . S
H553 C566 0.930 . S
H554 C567 0.930 . S
H555 C571 0.959 1_655 S
H556 C571 0.959 . S
H557 C571 0.961 1_655 S
H558 C572 0.960 . S
H559 C572 0.961 . S
H560 C572 0.959 . S
H561 C575 0.929 . S
H562 C576 0.931 . S
H563 C578 0.930 . S
C564 H552 0.930 . S
C564 C565 1.399 . S
C564 C569 1.399 . S
C565 C564 1.399 . S
C565 C566 1.376 . S
C566 H553 0.930 . S
C566 C565 1.376 . S
C566 C567 1.388 . S
C567 H554 0.930 . S
C567 C566 1.388 . S
C567 C568 1.390 . S
C568 C567 1.390 . S
C568 C569 1.394 . S
C568 C574 1.465 1_655 S
C569 C564 1.399 . S
C569 C568 1.394 . S
C569 C570 1.516 1_655 S
C570 C569 1.516 1_455 S
C570 C571 1.502 . S
C570 C572 1.561 . S
C570 C573 1.526 . S
C571 H555 0.959 1_455 S
C571 H556 0.959 . S
C571 H557 0.961 1_455 S
C571 C570 1.502 . S
C572 H558 0.960 . S
C572 H559 0.961 . S
C572 H560 0.959 . S
C572 C570 1.561 . S
C573 C570 1.526 . S
C573 C574 1.396 . S
C573 C578 1.390 . S
C574 C568 1.465 1_455 S
C574 C573 1.396 . S
C574 C575 1.399 . S
C575 H561 0.929 . S
C575 C574 1.399 . S
C575 C576 1.385 . S
C576 H562 0.931 . S
C576 C575 1.385 . S
C576 C577 1.389 . S
C577 C576 1.389 . S
C577 C578 1.387 . S
C578 H563 0.930 . S
C578 C573 1.390 . S
C578 C577 1.387 . S
H579 C591 0.930 . S
H580 C593 0.930 . S
H581 C594 0.930 . S
H582 C598 0.959 1_565 S
H583 C598 0.959 1_565 S
H584 C598 0.961 . S
H585 C599 0.960 . S
H586 C599 0.961 . S
H587 C599 0.959 . S
H588 C602 0.929 . S
H589 C603 0.931 . S
H590 C605 0.930 . S
C591 H579 0.930 . S
C591 C592 1.399 . S
C591 C596 1.399 . S
C592 C591 1.399 . S
C592 C593 1.376 . S
C593 H580 0.930 . S
C593 C592 1.376 . S
C593 C594 1.388 . S
C594 H581 0.930 . S
C594 C593 1.388 . S
C594 C595 1.390 . S
C595 C594 1.390 . S
C595 C596 1.394 . S
C595 C601 1.465 1_545 S
C596 C591 1.399 . S
C596 C595 1.394 . S
C596 C597 1.516 . S
C597 C596 1.516 . S
C597 C598 1.502 . S
C597 C599 1.561 . S
C597 C600 1.526 1_545 S
C598 H582 0.959 1_545 S
C598 H583 0.959 1_545 S
C598 H584 0.961 . S
C598 C597 1.502 . S
C599 H585 0.960 . S
C599 H586 0.961 . S
C599 H587 0.959 . S
C599 C597 1.561 . S
C600 C597 1.526 1_565 S
C600 C601 1.396 . S
C600 C605 1.390 . S
C601 C595 1.465 1_565 S
C601 C600 1.396 . S
C601 C602 1.399 . S
C602 H588 0.929 . S
C602 C601 1.399 . S
C602 C603 1.385 . S
C603 H589 0.931 . S
C603 C602 1.385 . S
C603 C604 1.389 . S
C604 C603 1.389 . S
C604 C605 1.387 . S
C605 H590 0.930 . S
C605 C600 1.390 . S
C605 C604 1.387 . S
H606 C618 0.930 . S
H607 C620 0.930 . S
H608 C621 0.930 . S
H609 C625 0.959 . S
H610 C625 0.959 . S
H611 C625 0.961 . S
H612 C626 0.960 . S
H613 C626 0.961 . S
H614 C626 0.959 . S
H615 C629 0.929 . S
H616 C630 0.931 . S
H617 C632 0.930 . S
C618 H606 0.930 . S
C618 C619 1.399 . S
C618 C623 1.399 . S
C619 C618 1.399 . S
C619 C620 1.376 . S
C620 H607 0.930 . S
C620 C619 1.376 . S
C620 C621 1.388 . S
C621 H608 0.930 . S
C621 C620 1.388 . S
C621 C622 1.390 . S
C622 C621 1.390 . S
C622 C623 1.394 . S
C622 C628 1.465 . S
C623 C618 1.399 . S
C623 C622 1.394 . S
C623 C624 1.516 . S
C624 C623 1.516 . S
C624 C625 1.502 . S
C624 C626 1.561 . S
C624 C627 1.526 . S
C625 H609 0.959 . S
C625 H610 0.959 . S
C625 H611 0.961 . S
C625 C624 1.502 . S
C626 H612 0.960 . S
C626 H613 0.961 . S
C626 H614 0.959 . S
C626 C624 1.561 . S
C627 C624 1.526 . S
C627 C628 1.396 . S
C627 C632 1.390 . S
C628 C622 1.465 . S
C628 C627 1.396 . S
C628 C629 1.399 . S
C629 H615 0.929 . S
C629 C628 1.399 . S
C629 C630 1.385 . S
C630 H616 0.931 . S
C630 C629 1.385 . S
C630 C631 1.389 . S
C631 C630 1.389 . S
C631 C632 1.387 . S
C632 H617 0.930 . S
C632 C627 1.390 . S
C632 C631 1.387 . S
H633 C645 0.930 . S
H634 C647 0.930 . S
H635 C648 0.930 . S
H636 C652 0.959 1_455 S
H637 C652 0.959 . S
H638 C652 0.961 1_455 S
H639 C653 0.960 . S
H640 C653 0.961 . S
H641 C653 0.959 . S
H642 C656 0.929 . S
H643 C657 0.931 . S
H644 C659 0.930 . S
C645 H633 0.930 . S
C645 C646 1.399 . S
C645 C650 1.399 . S
C646 C645 1.399 . S
C646 C647 1.376 . S
C647 H634 0.930 . S
C647 C646 1.376 . S
C647 C648 1.388 . S
C648 H635 0.930 . S
C648 C647 1.388 . S
C648 C649 1.390 . S
C649 C648 1.390 . S
C649 C650 1.394 . S
C649 C655 1.465 1_455 S
C650 C645 1.399 . S
C650 C649 1.394 . S
C650 C651 1.516 1_455 S
C651 C650 1.516 1_655 S
C651 C652 1.502 . S
C651 C653 1.561 . S
C651 C654 1.526 . S
C652 H636 0.959 1_655 S
C652 H637 0.959 . S
C652 H638 0.961 1_655 S
C652 C651 1.502 . S
C653 H639 0.960 . S
C653 H640 0.961 . S
C653 H641 0.959 . S
C653 C651 1.561 . S
C654 C651 1.526 . S
C654 C655 1.396 . S
C654 C659 1.390 . S
C655 C649 1.465 1_655 S
C655 C654 1.396 . S
C655 C656 1.399 . S
C656 H642 0.929 . S
C656 C655 1.399 . S
C656 C657 1.385 . S
C657 H643 0.931 . S
C657 C656 1.385 . S
C657 C658 1.389 . S
C658 C657 1.389 . S
C658 C659 1.387 . S
C659 H644 0.930 . S
C659 C654 1.390 . S
C659 C658 1.387 . S
H660 C672 0.930 . S
H661 C674 0.930 . S
H662 C675 0.930 . S
H663 C679 0.959 . S
H664 C679 0.959 . S
H665 C679 0.961 . S
H666 C680 0.960 . S
H667 C680 0.961 . S
H668 C680 0.959 . S
H669 C683 0.929 . S
H670 C684 0.931 . S
H671 C686 0.930 . S
C672 H660 0.930 . S
C672 C673 1.399 . S
C672 C677 1.399 . S
C673 C672 1.399 . S
C673 C674 1.376 . S
C674 H661 0.930 . S
C674 C673 1.376 . S
C674 C675 1.388 . S
C675 H662 0.930 . S
C675 C674 1.388 . S
C675 C676 1.390 . S
C676 C675 1.390 . S
C676 C677 1.394 . S
C676 C682 1.465 . S
C677 C672 1.399 . S
C677 C676 1.394 . S
C677 C678 1.516 . S
C678 C677 1.516 . S
C678 C679 1.502 . S
C678 C680 1.561 . S
C678 C681 1.526 . S
C679 H663 0.959 . S
C679 H664 0.959 . S
C679 H665 0.961 . S
C679 C678 1.502 . S
C680 H666 0.960 . S
C680 H667 0.961 . S
C680 H668 0.959 . S
C680 C678 1.561 . S
C681 C678 1.526 . S
C681 C682 1.396 . S
C681 C686 1.390 . S
C682 C676 1.465 . S
C682 C681 1.396 . S
C682 C683 1.399 . S
C683 H669 0.929 . S
C683 C682 1.399 . S
C683 C684 1.385 . S
C684 H670 0.931 . S
C684 C683 1.385 . S
C684 C685 1.389 . S
C685 C684 1.389 . S
C685 C686 1.387 . S
C686 H671 0.930 . S
C686 C681 1.390 . S
C686 C685 1.387 . S
H687 C699 0.930 . S
H688 C701 0.930 . S
H689 C702 0.930 . S
H690 C706 0.959 . S
H691 C706 0.959 . S
H692 C706 0.961 . S
H693 C707 0.960 . S
H694 C707 0.961 . S
H695 C707 0.959 . S
H696 C710 0.929 . S
H697 C711 0.931 . S
H698 C713 0.930 . S
C699 H687 0.930 . S
C699 C700 1.399 . S
C699 C704 1.399 . S
C700 C699 1.399 . S
C700 C701 1.376 . S
C701 H688 0.930 . S
C701 C700 1.376 . S
C701 C702 1.388 . S
C702 H689 0.930 . S
C702 C701 1.388 . S
C702 C703 1.390 . S
C703 C702 1.390 . S
C703 C704 1.394 . S
C703 C709 1.465 . S
C704 C699 1.399 . S
C704 C703 1.394 . S
C704 C705 1.516 . S
C705 C704 1.516 . S
C705 C706 1.502 . S
C705 C707 1.561 . S
C705 C708 1.526 . S
C706 H690 0.959 . S
C706 H691 0.959 . S
C706 H692 0.961 . S
C706 C705 1.502 . S
C707 H693 0.960 . S
C707 H694 0.961 . S
C707 H695 0.959 . S
C707 C705 1.561 . S
C708 C705 1.526 . S
C708 C709 1.396 . S
C708 C713 1.390 . S
C709 C703 1.465 . S
C709 C708 1.396 . S
C709 C710 1.399 . S
C710 H696 0.929 . S
C710 C709 1.399 . S
C710 C711 1.385 . S
C711 H697 0.931 . S
C711 C710 1.385 . S
C711 C712 1.389 . S
C712 C711 1.389 . S
C712 C713 1.387 . S
C713 H698 0.930 . S
C713 C708 1.390 . S
C713 C712 1.387 . S
H714 C726 0.930 . S
H715 C728 0.930 . S
H716 C729 0.930 . S
H717 C733 0.959 . S
H718 C733 0.959 . S
H719 C733 0.961 . S
H720 C734 0.960 . S
H721 C734 0.961 . S
H722 C734 0.959 . S
H723 C737 0.929 . S
H724 C738 0.931 . S
H725 C740 0.930 . S
C726 H714 0.930 . S
C726 C727 1.399 . S
C726 C731 1.399 . S
C727 C726 1.399 . S
C727 C728 1.376 . S
C728 H715 0.930 . S
C728 C727 1.376 . S
C728 C729 1.388 . S
C729 H716 0.930 . S
C729 C728 1.388 . S
C729 C730 1.390 . S
C730 C729 1.390 . S
C730 C731 1.394 . S
C730 C736 1.465 . S
C731 C726 1.399 . S
C731 C730 1.394 . S
C731 C732 1.516 . S
C732 C731 1.516 . S
C732 C733 1.502 . S
C732 C734 1.561 . S
C732 C735 1.526 . S
C733 H717 0.959 . S
C733 H718 0.959 . S
C733 H719 0.961 . S
C733 C732 1.502 . S
C734 H720 0.960 . S
C734 H721 0.961 . S
C734 H722 0.959 . S
C734 C732 1.561 . S
C735 C732 1.526 . S
C735 C736 1.396 . S
C735 C740 1.390 . S
C736 C730 1.465 . S
C736 C735 1.396 . S
C736 C737 1.399 . S
C737 H723 0.929 . S
C737 C736 1.399 . S
C737 C738 1.385 . S
C738 H724 0.931 . S
C738 C737 1.385 . S
C738 C739 1.389 . S
C739 C738 1.389 . S
C739 C740 1.387 . S
C740 H725 0.930 . S
C740 C735 1.390 . S
C740 C739 1.387 . S
H741 C753 0.930 . S
H742 C755 0.930 . S
H743 C756 0.930 . S
H744 C760 0.959 . S
H745 C760 0.959 . S
H746 C760 0.961 . S
H747 C761 0.960 . S
H748 C761 0.961 . S
H749 C761 0.959 . S
H750 C764 0.929 . S
H751 C765 0.931 . S
H752 C767 0.930 . S
C753 H741 0.930 . S
C753 C754 1.399 . S
C753 C758 1.399 . S
C754 C753 1.399 . S
C754 C755 1.376 . S
C755 H742 0.930 . S
C755 C754 1.376 . S
C755 C756 1.388 . S
C756 H743 0.930 . S
C756 C755 1.388 . S
C756 C757 1.390 . S
C757 C756 1.390 . S
C757 C758 1.394 . S
C757 C763 1.465 . S
C758 C753 1.399 . S
C758 C757 1.394 . S
C758 C759 1.516 . S
C759 C758 1.516 . S
C759 C760 1.502 . S
C759 C761 1.561 . S
C759 C762 1.526 . S
C760 H744 0.959 . S
C760 H745 0.959 . S
C760 H746 0.961 . S
C760 C759 1.502 . S
C761 H747 0.960 . S
C761 H748 0.961 . S
C761 H749 0.959 . S
C761 C759 1.561 . S
C762 C759 1.526 . S
C762 C763 1.396 . S
C762 C767 1.390 . S
C763 C757 1.465 . S
C763 C762 1.396 . S
C763 C764 1.399 . S
C764 H750 0.929 . S
C764 C763 1.399 . S
C764 C765 1.385 . S
C765 H751 0.931 . S
C765 C764 1.385 . S
C765 C766 1.389 . S
C766 C765 1.389 . S
C766 C767 1.387 . S
C767 H752 0.930 . S
C767 C762 1.390 . S
C767 C766 1.387 . S
H768 C780 0.930 . S
H769 C782 0.930 . S
H770 C783 0.930 . S
H771 C787 0.959 . S
H772 C787 0.959 . S
H773 C787 0.961 . S
H774 C788 0.960 . S
H775 C788 0.961 . S
H776 C788 0.959 . S
H777 C791 0.929 . S
H778 C792 0.931 . S
H779 C794 0.930 . S
C780 H768 0.930 . S
C780 C781 1.399 . S
C780 C785 1.399 . S
C781 C780 1.399 . S
C781 C782 1.376 . S
C782 H769 0.930 . S
C782 C781 1.376 . S
C782 C783 1.388 . S
C783 H770 0.930 . S
C783 C782 1.388 . S
C783 C784 1.390 . S
C784 C783 1.390 . S
C784 C785 1.394 . S
C784 C790 1.465 . S
C785 C780 1.399 . S
C785 C784 1.394 . S
C785 C786 1.516 . S
C786 C785 1.516 . S
C786 C787 1.502 . S
C786 C788 1.561 . S
C786 C789 1.526 . S
C787 H771 0.959 . S
C787 H772 0.959 . S
C787 H773 0.961 . S
C787 C786 1.502 . S
C788 H774 0.960 . S
C788 H775 0.961 . S
C788 H776 0.959 . S
C788 C786 1.561 . S
C789 C786 1.526 . S
C789 C790 1.396 . S
C789 C794 1.390 . S
C790 C784 1.465 . S
C790 C789 1.396 . S
C790 C791 1.399 . S
C791 H777 0.929 . S
C791 C790 1.399 . S
C791 C792 1.385 . S
C792 H778 0.931 . S
C792 C791 1.385 . S
C792 C793 1.389 . S
C793 C792 1.389 . S
C793 C794 1.387 . S
C794 H779 0.930 . S
C794 C789 1.390 . S
C794 C793 1.387 . S
H795 C807 0.930 . S
H796 C809 0.930 . S
H797 C810 0.930 . S
H798 C814 0.959 . S
H799 C814 0.959 . S
H800 C814 0.961 . S
H801 C815 0.960 . S
H802 C815 0.961 . S
H803 C815 0.959 . S
H804 C818 0.929 . S
H805 C819 0.931 . S
H806 C821 0.930 . S
C807 H795 0.930 . S
C807 C808 1.399 . S
C807 C812 1.399 . S
C808 C807 1.399 . S
C808 C809 1.376 . S
C809 H796 0.930 . S
C809 C808 1.376 . S
C809 C810 1.388 . S
C810 H797 0.930 . S
C810 C809 1.388 . S
C810 C811 1.390 . S
C811 C810 1.390 . S
C811 C812 1.394 . S
C811 C817 1.465 . S
C812 C807 1.399 . S
C812 C811 1.394 . S
C812 C813 1.516 . S
C813 C812 1.516 . S
C813 C814 1.502 . S
C813 C815 1.561 . S
C813 C816 1.526 . S
C814 H798 0.959 . S
C814 H799 0.959 . S
C814 H800 0.961 . S
C814 C813 1.502 . S
C815 H801 0.960 . S
C815 H802 0.961 . S
C815 H803 0.959 . S
C815 C813 1.561 . S
C816 C813 1.526 . S
C816 C817 1.396 . S
C816 C821 1.390 . S
C817 C811 1.465 . S
C817 C816 1.396 . S
C817 C818 1.399 . S
C818 H804 0.929 . S
C818 C817 1.399 . S
C818 C819 1.385 . S
C819 H805 0.931 . S
C819 C818 1.385 . S
C819 C820 1.389 . S
C820 C819 1.389 . S
C820 C821 1.387 . S
C821 H806 0.930 . S
C821 C816 1.390 . S
C821 C820 1.387 . S
H822 C834 0.930 . S
H823 C836 0.930 . S
H824 C837 0.930 . S
H825 C841 0.959 . S
H826 C841 0.959 . S
H827 C841 0.961 . S
H828 C842 0.960 . S
H829 C842 0.961 . S
H830 C842 0.959 . S
H831 C845 0.929 . S
H832 C846 0.931 . S
H833 C848 0.930 . S
C834 H822 0.930 . S
C834 C835 1.399 . S
C834 C839 1.399 . S
C835 C834 1.399 . S
C835 C836 1.376 . S
C836 H823 0.930 . S
C836 C835 1.376 . S
C836 C837 1.388 . S
C837 H824 0.930 . S
C837 C836 1.388 . S
C837 C838 1.390 . S
C838 C837 1.390 . S
C838 C839 1.394 . S
C838 C844 1.465 . S
C839 C834 1.399 . S
C839 C838 1.394 . S
C839 C840 1.516 . S
C840 C839 1.516 . S
C840 C841 1.502 . S
C840 C842 1.561 . S
C840 C843 1.526 . S
C841 H825 0.959 . S
C841 H826 0.959 . S
C841 H827 0.961 . S
C841 C840 1.502 . S
C842 H828 0.960 . S
C842 H829 0.961 . S
C842 H830 0.959 . S
C842 C840 1.561 . S
C843 C840 1.526 . S
C843 C844 1.396 . S
C843 C848 1.390 . S
C844 C838 1.465 . S
C844 C843 1.396 . S
C844 C845 1.399 . S
C845 H831 0.929 . S
C845 C844 1.399 . S
C845 C846 1.385 . S
C846 H832 0.931 . S
C846 C845 1.385 . S
C846 C847 1.389 . S
C847 C846 1.389 . S
C847 C848 1.387 . S
C848 H833 0.930 . S
C848 C843 1.390 . S
C848 C847 1.387 . S
H849 C861 0.930 . S
H850 C863 0.930 . S
H851 C864 0.930 . S
H852 C868 0.959 . S
H853 C868 0.959 . S
H854 C868 0.961 . S
H855 C869 0.960 . S
H856 C869 0.961 . S
H857 C869 0.959 . S
H858 C872 0.929 . S
H859 C873 0.931 . S
H860 C875 0.930 . S
C861 H849 0.930 . S
C861 C862 1.399 . S
C861 C866 1.399 . S
C862 C861 1.399 . S
C862 C863 1.376 . S
C863 H850 0.930 . S
C863 C862 1.376 . S
C863 C864 1.388 . S
C864 H851 0.930 . S
C864 C863 1.388 . S
C864 C865 1.390 . S
C865 C864 1.390 . S
C865 C866 1.394 . S
C865 C871 1.465 . S
C866 C861 1.399 . S
C866 C865 1.394 . S
C866 C867 1.516 . S
C867 C866 1.516 . S
C867 C868 1.502 . S
C867 C869 1.561 . S
C867 C870 1.526 . S
C868 H852 0.959 . S
C868 H853 0.959 . S
C868 H854 0.961 . S
C868 C867 1.502 . S
C869 H855 0.960 . S
C869 H856 0.961 . S
C869 H857 0.959 . S
C869 C867 1.561 . S
C870 C867 1.526 . S
C870 C871 1.396 . S
C870 C875 1.390 . S
C871 C865 1.465 . S
C871 C870 1.396 . S
C871 C872 1.399 . S
C872 H858 0.929 . S
C872 C871 1.399 . S
C872 C873 1.385 . S
C873 H859 0.931 . S
C873 C872 1.385 . S
C873 C874 1.389 . S
C874 C873 1.389 . S
C874 C875 1.387 . S
C875 H860 0.930 . S
C875 C870 1.390 . S
C875 C874 1.387 . S
H876 C888 0.930 . S
H877 C890 0.930 . S
H878 C891 0.930 . S
H879 C895 0.959 . S
H880 C895 0.959 . S
H881 C895 0.961 . S
H882 C896 0.960 . S
H883 C896 0.961 . S
H884 C896 0.959 . S
H885 C899 0.929 . S
H886 C900 0.931 . S
H887 C902 0.930 . S
C888 H876 0.930 . S
C888 C889 1.399 . S
C888 C893 1.399 . S
C889 C888 1.399 . S
C889 C890 1.376 . S
C890 H877 0.930 . S
C890 C889 1.376 . S
C890 C891 1.388 . S
C891 H878 0.930 . S
C891 C890 1.388 . S
C891 C892 1.390 . S
C892 C891 1.390 . S
C892 C893 1.394 . S
C892 C898 1.465 . S
C893 C888 1.399 . S
C893 C892 1.394 . S
C893 C894 1.516 . S
C894 C893 1.516 . S
C894 C895 1.502 . S
C894 C896 1.561 . S
C894 C897 1.526 . S
C895 H879 0.959 . S
C895 H880 0.959 . S
C895 H881 0.961 . S
C895 C894 1.502 . S
C896 H882 0.960 . S
C896 H883 0.961 . S
C896 H884 0.959 . S
C896 C894 1.561 . S
C897 C894 1.526 . S
C897 C898 1.396 . S
C897 C902 1.390 . S
C898 C892 1.465 . S
C898 C897 1.396 . S
C898 C899 1.399 . S
C899 H885 0.929 . S
C899 C898 1.399 . S
C899 C900 1.385 . S
C900 H886 0.931 . S
C900 C899 1.385 . S
C900 C901 1.389 . S
C901 C900 1.389 . S
C901 C902 1.387 . S
C902 H887 0.930 . S
C902 C897 1.390 . S
C902 C901 1.387 . S
H903 C915 0.930 . S
H904 C917 0.930 . S
H905 C918 0.930 . S
H906 C922 0.959 . S
H907 C922 0.959 . S
H908 C922 0.961 . S
H909 C923 0.960 . S
H910 C923 0.961 . S
H911 C923 0.959 . S
H912 C926 0.929 . S
H913 C927 0.931 . S
H914 C929 0.930 . S
C915 H903 0.930 . S
C915 C916 1.399 . S
C915 C920 1.399 . S
C916 C915 1.399 . S
C916 C917 1.376 . S
C917 H904 0.930 . S
C917 C916 1.376 . S
C917 C918 1.388 . S
C918 H905 0.930 . S
C918 C917 1.388 . S
C918 C919 1.390 . S
C919 C918 1.390 . S
C919 C920 1.394 . S
C919 C925 1.465 . S
C920 C915 1.399 . S
C920 C919 1.394 . S
C920 C921 1.516 . S
C921 C920 1.516 . S
C921 C922 1.502 . S
C921 C923 1.561 . S
C921 C924 1.526 . S
C922 H906 0.959 . S
C922 H907 0.959 . S
C922 H908 0.961 . S
C922 C921 1.502 . S
C923 H909 0.960 . S
C923 H910 0.961 . S
C923 H911 0.959 . S
C923 C921 1.561 . S
C924 C921 1.526 . S
C924 C925 1.396 . S
C924 C929 1.390 . S
C925 C919 1.465 . S
C925 C924 1.396 . S
C925 C926 1.399 . S
C926 H912 0.929 . S
C926 C925 1.399 . S
C926 C927 1.385 . S
C927 H913 0.931 . S
C927 C926 1.385 . S
C927 C928 1.389 . S
C928 C927 1.389 . S
C928 C929 1.387 . S
C929 H914 0.930 . S
C929 C924 1.390 . S
C929 C928 1.387 . S
H930 C942 0.930 . S
H931 C944 0.930 . S
H932 C945 0.930 . S
H933 C949 0.959 . S
H934 C949 0.959 . S
H935 C949 0.961 . S
H936 C950 0.960 . S
H937 C950 0.961 . S
H938 C950 0.959 . S
H939 C953 0.929 . S
H940 C954 0.931 . S
H941 C956 0.930 . S
C942 H930 0.930 . S
C942 C943 1.399 . S
C942 C947 1.399 . S
C943 C942 1.399 . S
C943 C944 1.376 . S
C944 H931 0.930 . S
C944 C943 1.376 . S
C944 C945 1.388 . S
C945 H932 0.930 . S
C945 C944 1.388 . S
C945 C946 1.390 . S
C946 C945 1.390 . S
C946 C947 1.394 . S
C946 C952 1.465 . S
C947 C942 1.399 . S
C947 C946 1.394 . S
C947 C948 1.516 . S
C948 C947 1.516 . S
C948 C949 1.502 . S
C948 C950 1.561 . S
C948 C951 1.526 . S
C949 H933 0.959 . S
C949 H934 0.959 . S
C949 H935 0.961 . S
C949 C948 1.502 . S
C950 H936 0.960 . S
C950 H937 0.961 . S
C950 H938 0.959 . S
C950 C948 1.561 . S
C951 C948 1.526 . S
C951 C952 1.396 . S
C951 C956 1.390 . S
C952 C946 1.465 . S
C952 C951 1.396 . S
C952 C953 1.399 . S
C953 H939 0.929 . S
C953 C952 1.399 . S
C953 C954 1.385 . S
C954 H940 0.931 . S
C954 C953 1.385 . S
C954 C955 1.389 . S
C955 C954 1.389 . S
C955 C956 1.387 . S
C956 H941 0.930 . S
C956 C951 1.390 . S
C956 C955 1.387 . S
H957 C969 0.930 . S
H958 C971 0.930 . S
H959 C972 0.930 . S
H960 C976 0.959 . S
H961 C976 0.959 . S
H962 C976 0.961 . S
H963 C977 0.960 . S
H964 C977 0.961 . S
H965 C977 0.959 . S
H966 C980 0.929 . S
H967 C981 0.931 . S
H968 C983 0.930 . S
C969 H957 0.930 . S
C969 C970 1.399 . S
C969 C974 1.399 . S
C970 C969 1.399 . S
C970 C971 1.376 . S
C971 H958 0.930 . S
C971 C970 1.376 . S
C971 C972 1.388 . S
C972 H959 0.930 . S
C972 C971 1.388 . S
C972 C973 1.390 . S
C973 C972 1.390 . S
C973 C974 1.394 . S
C973 C979 1.465 . S
C974 C969 1.399 . S
C974 C973 1.394 . S
C974 C975 1.516 . S
C975 C974 1.516 . S
C975 C976 1.502 . S
C975 C977 1.561 . S
C975 C978 1.526 . S
C976 H960 0.959 . S
C976 H961 0.959 . S
C976 H962 0.961 . S
C976 C975 1.502 . S
C977 H963 0.960 . S
C977 H964 0.961 . S
C977 H965 0.959 . S
C977 C975 1.561 . S
C978 C975 1.526 . S
C978 C979 1.396 . S
C978 C983 1.390 . S
C979 C973 1.465 . S
C979 C978 1.396 . S
C979 C980 1.399 . S
C980 H966 0.929 . S
C980 C979 1.399 . S
C980 C981 1.385 . S
C981 H967 0.931 . S
C981 C980 1.385 . S
C981 C982 1.389 . S
C982 C981 1.389 . S
C982 C983 1.387 . S
C983 H968 0.930 . S
C983 C978 1.390 . S
C983 C982 1.387 . S
H984 C996 0.930 . S
H985 C998 0.930 . S
H986 C999 0.930 . S
H987 C1003 0.962 . S
H988 C1003 0.980 . S
H989 C1003 0.938 1_554 S
H990 C1004 0.956 1_554 S
H991 C1004 0.964 . S
H992 C1004 0.959 . S
H993 C1007 0.929 . S
H994 C1008 0.931 . S
H995 C1010 0.930 . S
C996 H984 0.930 . S
C996 C997 1.399 . S
C996 C1001 1.399 . S
C997 C996 1.399 . S
C997 C998 1.376 . S
C998 H985 0.930 . S
C998 C997 1.376 . S
C998 C999 1.388 . S
C999 H986 0.930 . S
C999 C998 1.388 . S
C999 C1000 1.390 . S
C1000 C999 1.390 . S
C1000 C1001 1.394 . S
C1000 C1006 1.465 1_554 S
C1001 C996 1.399 . S
C1001 C1000 1.394 . S
C1001 C1002 1.516 1_554 S
C1002 C1001 1.516 1_556 S
C1002 C1003 1.502 . S
C1002 C1004 1.561 . S
C1002 C1005 1.526 . S
C1003 H987 0.962 . S
C1003 H988 0.980 . S
C1003 H989 0.938 1_556 S
C1003 C1002 1.502 . S
C1004 H990 0.956 1_556 S
C1004 H991 0.964 . S
C1004 H992 0.959 . S
C1004 C1002 1.561 . S
C1005 C1002 1.526 . S
C1005 C1006 1.396 . S
C1005 C1010 1.390 . S
C1006 C1000 1.465 1_556 S
C1006 C1005 1.396 . S
C1006 C1007 1.399 . S
C1007 H993 0.929 . S
C1007 C1006 1.399 . S
C1007 C1008 1.385 . S
C1008 H994 0.931 . S
C1008 C1007 1.385 . S
C1008 C1009 1.389 . S
C1009 C1008 1.389 . S
C1009 C1010 1.387 . S
C1010 H995 0.930 . S
C1010 C1005 1.390 . S
C1010 C1009 1.387 . S
H1011 C1023 0.930 . S
H1012 C1025 0.930 . S
H1013 C1026 0.930 . S
H1014 C1030 0.962 . S
H1015 C1030 0.980 . S
H1016 C1030 0.938 1_556 S
H1017 C1031 0.956 1_556 S
H1018 C1031 0.964 . S
H1019 C1031 0.959 . S
H1020 C1034 0.929 . S
H1021 C1035 0.931 . S
H1022 C1037 0.930 . S
C1023 H1011 0.930 . S
C1023 C1024 1.399 . S
C1023 C1028 1.399 . S
C1024 C1023 1.399 . S
C1024 C1025 1.376 . S
C1025 H1012 0.930 . S
C1025 C1024 1.376 . S
C1025 C1026 1.388 . S
C1026 H1013 0.930 . S
C1026 C1025 1.388 . S
C1026 C1027 1.390 . S
C1027 C1026 1.390 . S
C1027 C1028 1.394 . S
C1027 C1033 1.465 1_556 S
C1028 C1023 1.399 . S
C1028 C1027 1.394 . S
C1028 C1029 1.516 1_556 S
C1029 C1028 1.516 1_554 S
C1029 C1030 1.502 . S
C1029 C1031 1.561 . S
C1029 C1032 1.526 . S
C1030 H1014 0.962 . S
C1030 H1015 0.980 . S
C1030 H1016 0.938 1_554 S
C1030 C1029 1.502 . S
C1031 H1017 0.956 1_554 S
C1031 H1018 0.964 . S
C1031 H1019 0.959 . S
C1031 C1029 1.561 . S
C1032 C1029 1.526 . S
C1032 C1033 1.396 . S
C1032 C1037 1.390 . S
C1033 C1027 1.465 1_554 S
C1033 C1032 1.396 . S
C1033 C1034 1.399 . S
C1034 H1020 0.929 . S
C1034 C1033 1.399 . S
C1034 C1035 1.385 . S
C1035 H1021 0.931 . S
C1035 C1034 1.385 . S
C1035 C1036 1.389 . S
C1036 C1035 1.389 . S
C1036 C1037 1.387 . S
C1037 H1022 0.930 . S
C1037 C1032 1.390 . S
C1037 C1036 1.387 . S
H1038 C1050 0.930 . S
H1039 C1052 0.930 . S
H1040 C1053 0.930 . S
H1041 C1057 0.962 . S
H1042 C1057 0.980 . S
H1043 C1057 0.938 1_556 S
H1044 C1058 0.956 1_556 S
H1045 C1058 0.964 . S
H1046 C1058 0.959 . S
H1047 C1061 0.929 . S
H1048 C1062 0.931 . S
H1049 C1064 0.930 . S
C1050 H1038 0.930 . S
C1050 C1051 1.399 . S
C1050 C1055 1.399 . S
C1051 C1050 1.399 . S
C1051 C1052 1.376 . S
C1052 H1039 0.930 . S
C1052 C1051 1.376 . S
C1052 C1053 1.388 . S
C1053 H1040 0.930 . S
C1053 C1052 1.388 . S
C1053 C1054 1.390 . S
C1054 C1053 1.390 . S
C1054 C1055 1.394 . S
C1054 C1060 1.465 1_556 S
C1055 C1050 1.399 . S
C1055 C1054 1.394 . S
C1055 C1056 1.516 1_556 S
C1056 C1055 1.516 1_554 S
C1056 C1057 1.502 . S
C1056 C1058 1.561 . S
C1056 C1059 1.526 . S
C1057 H1041 0.962 . S
C1057 H1042 0.980 . S
C1057 H1043 0.938 1_554 S
C1057 C1056 1.502 . S
C1058 H1044 0.956 1_554 S
C1058 H1045 0.964 . S
C1058 H1046 0.959 . S
C1058 C1056 1.561 . S
C1059 C1056 1.526 . S
C1059 C1060 1.396 . S
C1059 C1064 1.390 . S
C1060 C1054 1.465 1_554 S
C1060 C1059 1.396 . S
C1060 C1061 1.399 . S
C1061 H1047 0.929 . S
C1061 C1060 1.399 . S
C1061 C1062 1.385 . S
C1062 H1048 0.931 . S
C1062 C1061 1.385 . S
C1062 C1063 1.389 . S
C1063 C1062 1.389 . S
C1063 C1064 1.387 . S
C1064 H1049 0.930 . S
C1064 C1059 1.390 . S
C1064 C1063 1.387 . S
H1065 C1077 0.930 . S
H1066 C1079 0.930 . S
H1067 C1080 0.930 . S
H1068 C1084 0.962 . S
H1069 C1084 0.980 . S
H1070 C1084 0.938 1_554 S
H1071 C1085 0.956 1_554 S
H1072 C1085 0.964 . S
H1073 C1085 0.959 . S
H1074 C1088 0.929 . S
H1075 C1089 0.931 . S
H1076 C1091 0.930 . S
C1077 H1065 0.930 . S
C1077 C1078 1.399 . S
C1077 C1082 1.399 . S
C1078 C1077 1.399 . S
C1078 C1079 1.376 . S
C1079 H1066 0.930 . S
C1079 C1078 1.376 . S
C1079 C1080 1.388 . S
C1080 H1067 0.930 . S
C1080 C1079 1.388 . S
C1080 C1081 1.390 . S
C1081 C1080 1.390 . S
C1081 C1082 1.394 . S
C1081 C1087 1.465 1_554 S
C1082 C1077 1.399 . S
C1082 C1081 1.394 . S
C1082 C1083 1.516 1_554 S
C1083 C1082 1.516 1_556 S
C1083 C1084 1.502 . S
C1083 C1085 1.561 . S
C1083 C1086 1.526 . S
C1084 H1068 0.962 . S
C1084 H1069 0.980 . S
C1084 H1070 0.938 1_556 S
C1084 C1083 1.502 . S
C1085 H1071 0.956 1_556 S
C1085 H1072 0.964 . S
C1085 H1073 0.959 . S
C1085 C1083 1.561 . S
C1086 C1083 1.526 . S
C1086 C1087 1.396 . S
C1086 C1091 1.390 . S
C1087 C1081 1.465 1_556 S
C1087 C1086 1.396 . S
C1087 C1088 1.399 . S
C1088 H1074 0.929 . S
C1088 C1087 1.399 . S
C1088 C1089 1.385 . S
C1089 H1075 0.931 . S
C1089 C1088 1.385 . S
C1089 C1090 1.389 . S
C1090 C1089 1.389 . S
C1090 C1091 1.387 . S
C1091 H1076 0.930 . S
C1091 C1086 1.390 . S
C1091 C1090 1.387 . S
H1092 C1104 0.930 . S
H1093 C1106 0.930 . S
H1094 C1107 0.930 . S
H1095 C1111 0.962 . S
H1096 C1111 0.980 . S
H1097 C1111 0.938 1_554 S
H1098 C1112 0.956 1_554 S
H1099 C1112 0.964 . S
H1100 C1112 0.959 . S
H1101 C1115 0.929 . S
H1102 C1116 0.931 . S
H1103 C1118 0.930 . S
C1104 H1092 0.930 . S
C1104 C1105 1.399 . S
C1104 C1109 1.399 . S
C1105 C1104 1.399 . S
C1105 C1106 1.376 . S
C1106 H1093 0.930 . S
C1106 C1105 1.376 . S
C1106 C1107 1.388 . S
C1107 H1094 0.930 . S
C1107 C1106 1.388 . S
C1107 C1108 1.390 . S
C1108 C1107 1.390 . S
C1108 C1109 1.394 . S
C1108 C1114 1.465 1_554 S
C1109 C1104 1.399 . S
C1109 C1108 1.394 . S
C1109 C1110 1.516 1_554 S
C1110 C1109 1.516 1_556 S
C1110 C1111 1.502 . S
C1110 C1112 1.561 . S
C1110 C1113 1.526 . S
C1111 H1095 0.962 . S
C1111 H1096 0.980 . S
C1111 H1097 0.938 1_556 S
C1111 C1110 1.502 . S
C1112 H1098 0.956 1_556 S
C1112 H1099 0.964 . S
C1112 H1100 0.959 . S
C1112 C1110 1.561 . S
C1113 C1110 1.526 . S
C1113 C1114 1.396 . S
C1113 C1118 1.390 . S
C1114 C1108 1.465 1_556 S
C1114 C1113 1.396 . S
C1114 C1115 1.399 . S
C1115 H1101 0.929 . S
C1115 C1114 1.399 . S
C1115 C1116 1.385 . S
C1116 H1102 0.931 . S
C1116 C1115 1.385 . S
C1116 C1117 1.389 . S
C1117 C1116 1.389 . S
C1117 C1118 1.387 . S
C1118 H1103 0.930 . S
C1118 C1113 1.390 . S
C1118 C1117 1.387 . S
H1119 C1131 0.930 . S
H1120 C1133 0.930 . S
H1121 C1134 0.930 . S
H1122 C1138 0.962 . S
H1123 C1138 0.980 . S
H1124 C1138 0.938 1_556 S
H1125 C1139 0.956 1_556 S
H1126 C1139 0.964 . S
H1127 C1139 0.959 . S
H1128 C1142 0.929 . S
H1129 C1143 0.931 . S
H1130 C1145 0.930 . S
C1131 H1119 0.930 . S
C1131 C1132 1.399 . S
C1131 C1136 1.399 . S
C1132 C1131 1.399 . S
C1132 C1133 1.376 . S
C1133 H1120 0.930 . S
C1133 C1132 1.376 . S
C1133 C1134 1.388 . S
C1134 H1121 0.930 . S
C1134 C1133 1.388 . S
C1134 C1135 1.390 . S
C1135 C1134 1.390 . S
C1135 C1136 1.394 . S
C1135 C1141 1.465 1_556 S
C1136 C1131 1.399 . S
C1136 C1135 1.394 . S
C1136 C1137 1.516 1_556 S
C1137 C1136 1.516 1_554 S
C1137 C1138 1.502 . S
C1137 C1139 1.561 . S
C1137 C1140 1.526 . S
C1138 H1122 0.962 . S
C1138 H1123 0.980 . S
C1138 H1124 0.938 1_554 S
C1138 C1137 1.502 . S
C1139 H1125 0.956 1_554 S
C1139 H1126 0.964 . S
C1139 H1127 0.959 . S
C1139 C1137 1.561 . S
C1140 C1137 1.526 . S
C1140 C1141 1.396 . S
C1140 C1145 1.390 . S
C1141 C1135 1.465 1_554 S
C1141 C1140 1.396 . S
C1141 C1142 1.399 . S
C1142 H1128 0.929 . S
C1142 C1141 1.399 . S
C1142 C1143 1.385 . S
C1143 H1129 0.931 . S
C1143 C1142 1.385 . S
C1143 C1144 1.389 . S
C1144 C1143 1.389 . S
C1144 C1145 1.387 . S
C1145 H1130 0.930 . S
C1145 C1140 1.390 . S
C1145 C1144 1.387 . S
H1146 C1158 0.930 . S
H1147 C1160 0.930 . S
H1148 C1161 0.930 . S
H1149 C1165 0.959 . S
H1150 C1165 0.959 . S
H1151 C1165 0.961 . S
H1152 C1166 0.960 . S
H1153 C1166 0.961 . S
H1154 C1166 0.959 . S
H1155 C1169 0.929 . S
H1156 C1170 0.931 . S
H1157 C1172 0.930 . S
C1158 H1146 0.930 . S
C1158 C1159 1.399 . S
C1158 C1163 1.399 . S
C1159 C1158 1.399 . S
C1159 C1160 1.376 . S
C1160 H1147 0.930 . S
C1160 C1159 1.376 . S
C1160 C1161 1.388 . S
C1161 H1148 0.930 . S
C1161 C1160 1.388 . S
C1161 C1162 1.390 . S
C1162 C1161 1.390 . S
C1162 C1163 1.394 . S
C1162 C1168 1.465 . S
C1163 C1158 1.399 . S
C1163 C1162 1.394 . S
C1163 C1164 1.516 . S
C1164 C1163 1.516 . S
C1164 C1165 1.502 . S
C1164 C1166 1.561 . S
C1164 C1167 1.526 . S
C1165 H1149 0.959 . S
C1165 H1150 0.959 . S
C1165 H1151 0.961 . S
C1165 C1164 1.502 . S
C1166 H1152 0.960 . S
C1166 H1153 0.961 . S
C1166 H1154 0.959 . S
C1166 C1164 1.561 . S
C1167 C1164 1.526 . S
C1167 C1168 1.396 . S
C1167 C1172 1.390 . S
C1168 C1162 1.465 . S
C1168 C1167 1.396 . S
C1168 C1169 1.399 . S
C1169 H1155 0.929 . S
C1169 C1168 1.399 . S
C1169 C1170 1.385 . S
C1170 H1156 0.931 . S
C1170 C1169 1.385 . S
C1170 C1171 1.389 . S
C1171 C1170 1.389 . S
C1171 C1172 1.387 . S
C1172 H1157 0.930 . S
C1172 C1167 1.390 . S
C1172 C1171 1.387 . S
H1173 C1185 0.930 . S
H1174 C1187 0.930 . S
H1175 C1188 0.930 . S
H1176 C1192 0.959 . S
H1177 C1192 0.959 . S
H1178 C1192 0.961 . S
H1179 C1193 0.960 . S
H1180 C1193 0.961 . S
H1181 C1193 0.959 . S
H1182 C1196 0.929 . S
H1183 C1197 0.931 . S
H1184 C1199 0.930 . S
C1185 H1173 0.930 . S
C1185 C1186 1.399 . S
C1185 C1190 1.399 . S
C1186 C1185 1.399 . S
C1186 C1187 1.376 . S
C1187 H1174 0.930 . S
C1187 C1186 1.376 . S
C1187 C1188 1.388 . S
C1188 H1175 0.930 . S
C1188 C1187 1.388 . S
C1188 C1189 1.390 . S
C1189 C1188 1.390 . S
C1189 C1190 1.394 . S
C1189 C1195 1.465 . S
C1190 C1185 1.399 . S
C1190 C1189 1.394 . S
C1190 C1191 1.516 . S
C1191 C1190 1.516 . S
C1191 C1192 1.502 . S
C1191 C1193 1.561 . S
C1191 C1194 1.526 . S
C1192 H1176 0.959 . S
C1192 H1177 0.959 . S
C1192 H1178 0.961 . S
C1192 C1191 1.502 . S
C1193 H1179 0.960 . S
C1193 H1180 0.961 . S
C1193 H1181 0.959 . S
C1193 C1191 1.561 . S
C1194 C1191 1.526 . S
C1194 C1195 1.396 . S
C1194 C1199 1.390 . S
C1195 C1189 1.465 . S
C1195 C1194 1.396 . S
C1195 C1196 1.399 . S
C1196 H1182 0.929 . S
C1196 C1195 1.399 . S
C1196 C1197 1.385 . S
C1197 H1183 0.931 . S
C1197 C1196 1.385 . S
C1197 C1198 1.389 . S
C1198 C1197 1.389 . S
C1198 C1199 1.387 . S
C1199 H1184 0.930 . S
C1199 C1194 1.390 . S
C1199 C1198 1.387 . S
H1200 C1212 0.930 . S
H1201 C1214 0.930 . S
H1202 C1215 0.930 . S
H1203 C1219 0.959 . S
H1204 C1219 0.959 . S
H1205 C1219 0.961 . S
H1206 C1220 0.960 . S
H1207 C1220 0.961 . S
H1208 C1220 0.959 . S
H1209 C1223 0.929 . S
H1210 C1224 0.931 . S
H1211 C1226 0.930 . S
C1212 H1200 0.930 . S
C1212 C1213 1.399 . S
C1212 C1217 1.399 . S
C1213 C1212 1.399 . S
C1213 C1214 1.376 . S
C1214 H1201 0.930 . S
C1214 C1213 1.376 . S
C1214 C1215 1.388 . S
C1215 H1202 0.930 . S
C1215 C1214 1.388 . S
C1215 C1216 1.390 . S
C1216 C1215 1.390 . S
C1216 C1217 1.394 . S
C1216 C1222 1.465 . S
C1217 C1212 1.399 . S
C1217 C1216 1.394 . S
C1217 C1218 1.516 . S
C1218 C1217 1.516 . S
C1218 C1219 1.502 . S
C1218 C1220 1.561 . S
C1218 C1221 1.526 . S
C1219 H1203 0.959 . S
C1219 H1204 0.959 . S
C1219 H1205 0.961 . S
C1219 C1218 1.502 . S
C1220 H1206 0.960 . S
C1220 H1207 0.961 . S
C1220 H1208 0.959 . S
C1220 C1218 1.561 . S
C1221 C1218 1.526 . S
C1221 C1222 1.396 . S
C1221 C1226 1.390 . S
C1222 C1216 1.465 . S
C1222 C1221 1.396 . S
C1222 C1223 1.399 . S
C1223 H1209 0.929 . S
C1223 C1222 1.399 . S
C1223 C1224 1.385 . S
C1224 H1210 0.931 . S
C1224 C1223 1.385 . S
C1224 C1225 1.389 . S
C1225 C1224 1.389 . S
C1225 C1226 1.387 . S
C1226 H1211 0.930 . S
C1226 C1221 1.390 . S
C1226 C1225 1.387 . S
H1227 C1239 0.930 . S
H1228 C1241 0.930 . S
H1229 C1242 0.930 . S
H1230 C1246 0.959 . S
H1231 C1246 0.959 . S
H1232 C1246 0.961 . S
H1233 C1247 0.960 . S
H1234 C1247 0.961 . S
H1235 C1247 0.959 . S
H1236 C1250 0.929 . S
H1237 C1251 0.931 . S
H1238 C1253 0.930 . S
C1239 H1227 0.930 . S
C1239 C1240 1.399 . S
C1239 C1244 1.399 . S
C1240 C1239 1.399 . S
C1240 C1241 1.376 . S
C1241 H1228 0.930 . S
C1241 C1240 1.376 . S
C1241 C1242 1.388 . S
C1242 H1229 0.930 . S
C1242 C1241 1.388 . S
C1242 C1243 1.390 . S
C1243 C1242 1.390 . S
C1243 C1244 1.394 . S
C1243 C1249 1.465 . S
C1244 C1239 1.399 . S
C1244 C1243 1.394 . S
C1244 C1245 1.516 . S
C1245 C1244 1.516 . S
C1245 C1246 1.502 . S
C1245 C1247 1.561 . S
C1245 C1248 1.526 . S
C1246 H1230 0.959 . S
C1246 H1231 0.959 . S
C1246 H1232 0.961 . S
C1246 C1245 1.502 . S
C1247 H1233 0.960 . S
C1247 H1234 0.961 . S
C1247 H1235 0.959 . S
C1247 C1245 1.561 . S
C1248 C1245 1.526 . S
C1248 C1249 1.396 . S
C1248 C1253 1.390 . S
C1249 C1243 1.465 . S
C1249 C1248 1.396 . S
C1249 C1250 1.399 . S
C1250 H1236 0.929 . S
C1250 C1249 1.399 . S
C1250 C1251 1.385 . S
C1251 H1237 0.931 . S
C1251 C1250 1.385 . S
C1251 C1252 1.389 . S
C1252 C1251 1.389 . S
C1252 C1253 1.387 . S
C1253 H1238 0.930 . S
C1253 C1248 1.390 . S
C1253 C1252 1.387 . S
H1254 C1266 0.930 . S
H1255 C1268 0.930 . S
H1256 C1269 0.930 . S
H1257 C1273 0.959 . S
H1258 C1273 0.959 . S
H1259 C1273 0.961 . S
H1260 C1274 0.960 . S
H1261 C1274 0.961 . S
H1262 C1274 0.959 . S
H1263 C1277 0.929 . S
H1264 C1278 0.931 . S
H1265 C1280 0.930 . S
C1266 H1254 0.930 . S
C1266 C1267 1.399 . S
C1266 C1271 1.399 . S
C1267 C1266 1.399 . S
C1267 C1268 1.376 . S
C1268 H1255 0.930 . S
C1268 C1267 1.376 . S
C1268 C1269 1.388 . S
C1269 H1256 0.930 . S
C1269 C1268 1.388 . S
C1269 C1270 1.390 . S
C1270 C1269 1.390 . S
C1270 C1271 1.394 . S
C1270 C1276 1.465 . S
C1271 C1266 1.399 . S
C1271 C1270 1.394 . S
C1271 C1272 1.516 . S
C1272 C1271 1.516 . S
C1272 C1273 1.502 . S
C1272 C1274 1.561 . S
C1272 C1275 1.526 . S
C1273 H1257 0.959 . S
C1273 H1258 0.959 . S
C1273 H1259 0.961 . S
C1273 C1272 1.502 . S
C1274 H1260 0.960 . S
C1274 H1261 0.961 . S
C1274 H1262 0.959 . S
C1274 C1272 1.561 . S
C1275 C1272 1.526 . S
C1275 C1276 1.396 . S
C1275 C1280 1.390 . S
C1276 C1270 1.465 . S
C1276 C1275 1.396 . S
C1276 C1277 1.399 . S
C1277 H1263 0.929 . S
C1277 C1276 1.399 . S
C1277 C1278 1.385 . S
C1278 H1264 0.931 . S
C1278 C1277 1.385 . S
C1278 C1279 1.389 . S
C1279 C1278 1.389 . S
C1279 C1280 1.387 . S
C1280 H1265 0.930 . S
C1280 C1275 1.390 . S
C1280 C1279 1.387 . S
H1281 C1293 0.930 . S
H1282 C1295 0.930 . S
H1283 C1296 0.930 . S
H1284 C1300 0.959 . S
H1285 C1300 0.959 . S
H1286 C1300 0.961 . S
H1287 C1301 0.960 . S
H1288 C1301 0.961 . S
H1289 C1301 0.959 . S
H1290 C1304 0.929 . S
H1291 C1305 0.931 . S
H1292 C1307 0.930 . S
C1293 H1281 0.930 . S
C1293 C1294 1.399 . S
C1293 C1298 1.399 . S
C1294 C1293 1.399 . S
C1294 C1295 1.376 . S
C1295 H1282 0.930 . S
C1295 C1294 1.376 . S
C1295 C1296 1.388 . S
C1296 H1283 0.930 . S
C1296 C1295 1.388 . S
C1296 C1297 1.390 . S
C1297 C1296 1.390 . S
C1297 C1298 1.394 . S
C1297 C1303 1.465 . S
C1298 C1293 1.399 . S
C1298 C1297 1.394 . S
C1298 C1299 1.516 . S
C1299 C1298 1.516 . S
C1299 C1300 1.502 . S
C1299 C1301 1.561 . S
C1299 C1302 1.526 . S
C1300 H1284 0.959 . S
C1300 H1285 0.959 . S
C1300 H1286 0.961 . S
C1300 C1299 1.502 . S
C1301 H1287 0.960 . S
C1301 H1288 0.961 . S
C1301 H1289 0.959 . S
C1301 C1299 1.561 . S
C1302 C1299 1.526 . S
C1302 C1303 1.396 . S
C1302 C1307 1.390 . S
C1303 C1297 1.465 . S
C1303 C1302 1.396 . S
C1303 C1304 1.399 . S
C1304 H1290 0.929 . S
C1304 C1303 1.399 . S
C1304 C1305 1.385 . S
C1305 H1291 0.931 . S
C1305 C1304 1.385 . S
C1305 C1306 1.389 . S
C1306 C1305 1.389 . S
C1306 C1307 1.387 . S
C1307 H1292 0.930 . S
C1307 C1302 1.390 . S
C1307 C1306 1.387 . S
H1308 C1320 0.930 . S
H1309 C1322 0.930 . S
H1310 C1323 0.930 . S
H1311 C1327 0.959 . S
H1312 C1327 0.959 . S
H1313 C1327 0.961 . S
H1314 C1328 0.960 . S
H1315 C1328 0.961 . S
H1316 C1328 0.959 . S
H1317 C1331 0.929 . S
H1318 C1332 0.931 . S
H1319 C1334 0.930 . S
C1320 H1308 0.930 . S
C1320 C1321 1.399 . S
C1320 C1325 1.399 . S
C1321 C1320 1.399 . S
C1321 C1322 1.376 . S
C1322 H1309 0.930 . S
C1322 C1321 1.376 . S
C1322 C1323 1.388 . S
C1323 H1310 0.930 . S
C1323 C1322 1.388 . S
C1323 C1324 1.390 . S
C1324 C1323 1.390 . S
C1324 C1325 1.394 . S
C1324 C1330 1.465 . S
C1325 C1320 1.399 . S
C1325 C1324 1.394 . S
C1325 C1326 1.516 . S
C1326 C1325 1.516 . S
C1326 C1327 1.502 . S
C1326 C1328 1.561 . S
C1326 C1329 1.526 . S
C1327 H1311 0.959 . S
C1327 H1312 0.959 . S
C1327 H1313 0.961 . S
C1327 C1326 1.502 . S
C1328 H1314 0.960 . S
C1328 H1315 0.961 . S
C1328 H1316 0.959 . S
C1328 C1326 1.561 . S
C1329 C1326 1.526 . S
C1329 C1330 1.396 . S
C1329 C1334 1.390 . S
C1330 C1324 1.465 . S
C1330 C1329 1.396 . S
C1330 C1331 1.399 . S
C1331 H1317 0.929 . S
C1331 C1330 1.399 . S
C1331 C1332 1.385 . S
C1332 H1318 0.931 . S
C1332 C1331 1.385 . S
C1332 C1333 1.389 . S
C1333 C1332 1.389 . S
C1333 C1334 1.387 . S
C1334 H1319 0.930 . S
C1334 C1329 1.390 . S
C1334 C1333 1.387 . S
H1335 C1347 0.930 . S
H1336 C1349 0.930 . S
H1337 C1350 0.930 . S
H1338 C1354 0.959 . S
H1339 C1354 0.959 . S
H1340 C1354 0.961 . S
H1341 C1355 0.960 . S
H1342 C1355 0.961 . S
H1343 C1355 0.959 . S
H1344 C1358 0.929 . S
H1345 C1359 0.931 . S
H1346 C1361 0.930 . S
C1347 H1335 0.930 . S
C1347 C1348 1.399 . S
C1347 C1352 1.399 . S
C1348 C1347 1.399 . S
C1348 C1349 1.376 . S
C1349 H1336 0.930 . S
C1349 C1348 1.376 . S
C1349 C1350 1.388 . S
C1350 H1337 0.930 . S
C1350 C1349 1.388 . S
C1350 C1351 1.390 . S
C1351 C1350 1.390 . S
C1351 C1352 1.394 . S
C1351 C1357 1.465 . S
C1352 C1347 1.399 . S
C1352 C1351 1.394 . S
C1352 C1353 1.516 . S
C1353 C1352 1.516 . S
C1353 C1354 1.502 . S
C1353 C1355 1.561 . S
C1353 C1356 1.526 . S
C1354 H1338 0.959 . S
C1354 H1339 0.959 . S
C1354 H1340 0.961 . S
C1354 C1353 1.502 . S
C1355 H1341 0.960 . S
C1355 H1342 0.961 . S
C1355 H1343 0.959 . S
C1355 C1353 1.561 . S
C1356 C1353 1.526 . S
C1356 C1357 1.396 . S
C1356 C1361 1.390 . S
C1357 C1351 1.465 . S
C1357 C1356 1.396 . S
C1357 C1358 1.399 . S
C1358 H1344 0.929 . S
C1358 C1357 1.399 . S
C1358 C1359 1.385 . S
C1359 H1345 0.931 . S
C1359 C1358 1.385 . S
C1359 C1360 1.389 . S
C1360 C1359 1.389 . S
C1360 C1361 1.387 . S
C1361 H1346 0.930 . S
C1361 C1356 1.390 . S
C1361 C1360 1.387 . S
H1362 C1374 0.930 . S
H1363 C1376 0.930 . S
H1364 C1377 0.930 . S
H1365 C1381 0.959 . S
H1366 C1381 0.959 . S
H1367 C1381 0.961 . S
H1368 C1382 0.960 . S
H1369 C1382 0.961 . S
H1370 C1382 0.959 . S
H1371 C1385 0.929 . S
H1372 C1386 0.931 . S
H1373 C1388 0.930 . S
C1374 H1362 0.930 . S
C1374 C1375 1.399 . S
C1374 C1379 1.399 . S
C1375 C1374 1.399 . S
C1375 C1376 1.376 . S
C1376 H1363 0.930 . S
C1376 C1375 1.376 . S
C1376 C1377 1.388 . S
C1377 H1364 0.930 . S
C1377 C1376 1.388 . S
C1377 C1378 1.390 . S
C1378 C1377 1.390 . S
C1378 C1379 1.394 . S
C1378 C1384 1.465 . S
C1379 C1374 1.399 . S
C1379 C1378 1.394 . S
C1379 C1380 1.516 . S
C1380 C1379 1.516 . S
C1380 C1381 1.502 . S
C1380 C1382 1.561 . S
C1380 C1383 1.526 . S
C1381 H1365 0.959 . S
C1381 H1366 0.959 . S
C1381 H1367 0.961 . S
C1381 C1380 1.502 . S
C1382 H1368 0.960 . S
C1382 H1369 0.961 . S
C1382 H1370 0.959 . S
C1382 C1380 1.561 . S
C1383 C1380 1.526 . S
C1383 C1384 1.396 . S
C1383 C1388 1.390 . S
C1384 C1378 1.465 . S
C1384 C1383 1.396 . S
C1384 C1385 1.399 . S
C1385 H1371 0.929 . S
C1385 C1384 1.399 . S
C1385 C1386 1.385 . S
C1386 H1372 0.931 . S
C1386 C1385 1.385 . S
C1386 C1387 1.389 . S
C1387 C1386 1.389 . S
C1387 C1388 1.387 . S
C1388 H1373 0.930 . S
C1388 C1383 1.390 . S
C1388 C1387 1.387 . S
H1389 C1401 0.930 . S
H1390 C1403 0.930 . S
H1391 C1404 0.930 . S
H1392 C1408 0.959 . S
H1393 C1408 0.959 . S
H1394 C1408 0.961 . S
H1395 C1409 0.960 . S
H1396 C1409 0.961 . S
H1397 C1409 0.959 . S
H1398 C1412 0.929 . S
H1399 C1413 0.931 . S
H1400 C1415 0.930 . S
C1401 H1389 0.930 . S
C1401 C1402 1.399 . S
C1401 C1406 1.399 . S
C1402 C1401 1.399 . S
C1402 C1403 1.376 . S
C1403 H1390 0.930 . S
C1403 C1402 1.376 . S
C1403 C1404 1.388 . S
C1404 H1391 0.930 . S
C1404 C1403 1.388 . S
C1404 C1405 1.390 . S
C1405 C1404 1.390 . S
C1405 C1406 1.394 . S
C1405 C1411 1.465 . S
C1406 C1401 1.399 . S
C1406 C1405 1.394 . S
C1406 C1407 1.516 . S
C1407 C1406 1.516 . S
C1407 C1408 1.502 . S
C1407 C1409 1.561 . S
C1407 C1410 1.526 . S
C1408 H1392 0.959 . S
C1408 H1393 0.959 . S
C1408 H1394 0.961 . S
C1408 C1407 1.502 . S
C1409 H1395 0.960 . S
C1409 H1396 0.961 . S
C1409 H1397 0.959 . S
C1409 C1407 1.561 . S
C1410 C1407 1.526 . S
C1410 C1411 1.396 . S
C1410 C1415 1.390 . S
C1411 C1405 1.465 . S
C1411 C1410 1.396 . S
C1411 C1412 1.399 . S
C1412 H1398 0.929 . S
C1412 C1411 1.399 . S
C1412 C1413 1.385 . S
C1413 H1399 0.931 . S
C1413 C1412 1.385 . S
C1413 C1414 1.389 . S
C1414 C1413 1.389 . S
C1414 C1415 1.387 . S
C1415 H1400 0.930 . S
C1415 C1410 1.390 . S
C1415 C1414 1.387 . S
H1416 C1428 0.930 . S
H1417 C1430 0.930 . S
H1418 C1431 0.930 . S
H1419 C1435 0.959 . S
H1420 C1435 0.959 . S
H1421 C1435 0.961 . S
H1422 C1436 0.960 . S
H1423 C1436 0.961 . S
H1424 C1436 0.959 . S
H1425 C1439 0.929 . S
H1426 C1440 0.931 . S
H1427 C1442 0.930 . S
C1428 H1416 0.930 . S
C1428 C1429 1.399 . S
C1428 C1433 1.399 . S
C1429 C1428 1.399 . S
C1429 C1430 1.376 . S
C1430 H1417 0.930 . S
C1430 C1429 1.376 . S
C1430 C1431 1.388 . S
C1431 H1418 0.930 . S
C1431 C1430 1.388 . S
C1431 C1432 1.390 . S
C1432 C1431 1.390 . S
C1432 C1433 1.394 . S
C1432 C1438 1.465 . S
C1433 C1428 1.399 . S
C1433 C1432 1.394 . S
C1433 C1434 1.516 . S
C1434 C1433 1.516 . S
C1434 C1435 1.502 . S
C1434 C1436 1.561 . S
C1434 C1437 1.526 . S
C1435 H1419 0.959 . S
C1435 H1420 0.959 . S
C1435 H1421 0.961 . S
C1435 C1434 1.502 . S
C1436 H1422 0.960 . S
C1436 H1423 0.961 . S
C1436 H1424 0.959 . S
C1436 C1434 1.561 . S
C1437 C1434 1.526 . S
C1437 C1438 1.396 . S
C1437 C1442 1.390 . S
C1438 C1432 1.465 . S
C1438 C1437 1.396 . S
C1438 C1439 1.399 . S
C1439 H1425 0.929 . S
C1439 C1438 1.399 . S
C1439 C1440 1.385 . S
C1440 H1426 0.931 . S
C1440 C1439 1.385 . S
C1440 C1441 1.389 . S
C1441 C1440 1.389 . S
C1441 C1442 1.387 . S
C1442 H1427 0.930 . S
C1442 C1437 1.390 . S
C1442 C1441 1.387 . S
H1443 C1455 0.930 . S
H1444 C1457 0.930 . S
H1445 C1458 0.930 . S
H1446 C1462 0.959 . S
H1447 C1462 0.959 . S
H1448 C1462 0.961 . S
H1449 C1463 0.960 . S
H1450 C1463 0.961 . S
H1451 C1463 0.959 . S
H1452 C1466 0.929 . S
H1453 C1467 0.931 . S
H1454 C1469 0.930 . S
C1455 H1443 0.930 . S
C1455 C1456 1.399 . S
C1455 C1460 1.399 . S
C1456 C1455 1.399 . S
C1456 C1457 1.376 . S
C1457 H1444 0.930 . S
C1457 C1456 1.376 . S
C1457 C1458 1.388 . S
C1458 H1445 0.930 . S
C1458 C1457 1.388 . S
C1458 C1459 1.390 . S
C1459 C1458 1.390 . S
C1459 C1460 1.394 . S
C1459 C1465 1.465 . S
C1460 C1455 1.399 . S
C1460 C1459 1.394 . S
C1460 C1461 1.516 . S
C1461 C1460 1.516 . S
C1461 C1462 1.502 . S
C1461 C1463 1.561 . S
C1461 C1464 1.526 . S
C1462 H1446 0.959 . S
C1462 H1447 0.959 . S
C1462 H1448 0.961 . S
C1462 C1461 1.502 . S
C1463 H1449 0.960 . S
C1463 H1450 0.961 . S
C1463 H1451 0.959 . S
C1463 C1461 1.561 . S
C1464 C1461 1.526 . S
C1464 C1465 1.396 . S
C1464 C1469 1.390 . S
C1465 C1459 1.465 . S
C1465 C1464 1.396 . S
C1465 C1466 1.399 . S
C1466 H1452 0.929 . S
C1466 C1465 1.399 . S
C1466 C1467 1.385 . S
C1467 H1453 0.931 . S
C1467 C1466 1.385 . S
C1467 C1468 1.389 . S
C1468 C1467 1.389 . S
C1468 C1469 1.387 . S
C1469 H1454 0.930 . S
C1469 C1464 1.390 . S
C1469 C1468 1.387 . S
H1470 C1482 0.930 . S
H1471 C1484 0.930 . S
H1472 C1485 0.930 . S
H1473 C1489 0.959 . S
H1474 C1489 0.959 . S
H1475 C1489 0.961 . S
H1476 C1490 0.960 . S
H1477 C1490 0.961 . S
H1478 C1490 0.959 . S
H1479 C1493 0.929 . S
H1480 C1494 0.931 . S
H1481 C1496 0.930 . S
C1482 H1470 0.930 . S
C1482 C1483 1.399 . S
C1482 C1487 1.399 . S
C1483 C1482 1.399 . S
C1483 C1484 1.376 . S
C1484 H1471 0.930 . S
C1484 C1483 1.376 . S
C1484 C1485 1.388 . S
C1485 H1472 0.930 . S
C1485 C1484 1.388 . S
C1485 C1486 1.390 . S
C1486 C1485 1.390 . S
C1486 C1487 1.394 . S
C1486 C1492 1.465 . S
C1487 C1482 1.399 . S
C1487 C1486 1.394 . S
C1487 C1488 1.516 . S
C1488 C1487 1.516 . S
C1488 C1489 1.502 . S
C1488 C1490 1.561 . S
C1488 C1491 1.526 . S
C1489 H1473 0.959 . S
C1489 H1474 0.959 . S
C1489 H1475 0.961 . S
C1489 C1488 1.502 . S
C1490 H1476 0.960 . S
C1490 H1477 0.961 . S
C1490 H1478 0.959 . S
C1490 C1488 1.561 . S
C1491 C1488 1.526 . S
C1491 C1492 1.396 . S
C1491 C1496 1.390 . S
C1492 C1486 1.465 . S
C1492 C1491 1.396 . S
C1492 C1493 1.399 . S
C1493 H1479 0.929 . S
C1493 C1492 1.399 . S
C1493 C1494 1.385 . S
C1494 H1480 0.931 . S
C1494 C1493 1.385 . S
C1494 C1495 1.389 . S
C1495 C1494 1.389 . S
C1495 C1496 1.387 . S
C1496 H1481 0.930 . S
C1496 C1491 1.390 . S
C1496 C1495 1.387 . S
H1497 C1509 0.930 . S
H1498 C1511 0.930 . S
H1499 C1512 0.930 . S
H1500 C1516 0.959 . S
H1501 C1516 0.959 . S
H1502 C1516 0.961 . S
H1503 C1517 0.960 . S
H1504 C1517 0.961 . S
H1505 C1517 0.959 . S
H1506 C1520 0.929 . S
H1507 C1521 0.931 . S
H1508 C1523 0.930 . S
C1509 H1497 0.930 . S
C1509 C1510 1.399 . S
C1509 C1514 1.399 . S
C1510 C1509 1.399 . S
C1510 C1511 1.376 . S
C1511 H1498 0.930 . S
C1511 C1510 1.376 . S
C1511 C1512 1.388 . S
C1512 H1499 0.930 . S
C1512 C1511 1.388 . S
C1512 C1513 1.390 . S
C1513 C1512 1.390 . S
C1513 C1514 1.394 . S
C1513 C1519 1.465 . S
C1514 C1509 1.399 . S
C1514 C1513 1.394 . S
C1514 C1515 1.516 . S
C1515 C1514 1.516 . S
C1515 C1516 1.502 . S
C1515 C1517 1.561 . S
C1515 C1518 1.526 . S
C1516 H1500 0.959 . S
C1516 H1501 0.959 . S
C1516 H1502 0.961 . S
C1516 C1515 1.502 . S
C1517 H1503 0.960 . S
C1517 H1504 0.961 . S
C1517 H1505 0.959 . S
C1517 C1515 1.561 . S
C1518 C1515 1.526 . S
C1518 C1519 1.396 . S
C1518 C1523 1.390 . S
C1519 C1513 1.465 . S
C1519 C1518 1.396 . S
C1519 C1520 1.399 . S
C1520 H1506 0.929 . S
C1520 C1519 1.399 . S
C1520 C1521 1.385 . S
C1521 H1507 0.931 . S
C1521 C1520 1.385 . S
C1521 C1522 1.389 . S
C1522 C1521 1.389 . S
C1522 C1523 1.387 . S
C1523 H1508 0.930 . S
C1523 C1518 1.390 . S
C1523 C1522 1.387 . S
H1524 C1536 0.930 . S
H1525 C1538 0.930 . S
H1526 C1539 0.930 . S
H1527 C1543 0.959 . S
H1528 C1543 0.959 . S
H1529 C1543 0.961 . S
H1530 C1544 0.960 . S
H1531 C1544 0.961 . S
H1532 C1544 0.959 . S
H1533 C1547 0.929 . S
H1534 C1548 0.931 . S
H1535 C1550 0.930 . S
C1536 H1524 0.930 . S
C1536 C1537 1.399 . S
C1536 C1541 1.399 . S
C1537 C1536 1.399 . S
C1537 C1538 1.376 . S
C1538 H1525 0.930 . S
C1538 C1537 1.376 . S
C1538 C1539 1.388 . S
C1539 H1526 0.930 . S
C1539 C1538 1.388 . S
C1539 C1540 1.390 . S
C1540 C1539 1.390 . S
C1540 C1541 1.394 . S
C1540 C1546 1.465 . S
C1541 C1536 1.399 . S
C1541 C1540 1.394 . S
C1541 C1542 1.516 . S
C1542 C1541 1.516 . S
C1542 C1543 1.502 . S
C1542 C1544 1.561 . S
C1542 C1545 1.526 . S
C1543 H1527 0.959 . S
C1543 H1528 0.959 . S
C1543 H1529 0.961 . S
C1543 C1542 1.502 . S
C1544 H1530 0.960 . S
C1544 H1531 0.961 . S
C1544 H1532 0.959 . S
C1544 C1542 1.561 . S
C1545 C1542 1.526 . S
C1545 C1546 1.396 . S
C1545 C1550 1.390 . S
C1546 C1540 1.465 . S
C1546 C1545 1.396 . S
C1546 C1547 1.399 . S
C1547 H1533 0.929 . S
C1547 C1546 1.399 . S
C1547 C1548 1.385 . S
C1548 H1534 0.931 . S
C1548 C1547 1.385 . S
C1548 C1549 1.389 . S
C1549 C1548 1.389 . S
C1549 C1550 1.387 . S
C1550 H1535 0.930 . S
C1550 C1545 1.390 . S
C1550 C1549 1.387 . S
H1551 C1563 0.930 . S
H1552 C1565 0.930 . S
H1553 C1566 0.930 . S
H1554 C1570 0.959 . S
H1555 C1570 0.959 . S
H1556 C1570 0.961 . S
H1557 C1571 0.960 . S
H1558 C1571 0.961 . S
H1559 C1571 0.959 . S
H1560 C1574 0.929 . S
H1561 C1575 0.931 . S
H1562 C1577 0.930 . S
C1563 H1551 0.930 . S
C1563 C1564 1.399 . S
C1563 C1568 1.399 . S
C1564 C1563 1.399 . S
C1564 C1565 1.376 . S
C1565 H1552 0.930 . S
C1565 C1564 1.376 . S
C1565 C1566 1.388 . S
C1566 H1553 0.930 . S
C1566 C1565 1.388 . S
C1566 C1567 1.390 . S
C1567 C1566 1.390 . S
C1567 C1568 1.394 . S
C1567 C1573 1.465 . S
C1568 C1563 1.399 . S
C1568 C1567 1.394 . S
C1568 C1569 1.516 . S
C1569 C1568 1.516 . S
C1569 C1570 1.502 . S
C1569 C1571 1.561 . S
C1569 C1572 1.526 . S
C1570 H1554 0.959 . S
C1570 H1555 0.959 . S
C1570 H1556 0.961 . S
C1570 C1569 1.502 . S
C1571 H1557 0.960 . S
C1571 H1558 0.961 . S
C1571 H1559 0.959 . S
C1571 C1569 1.561 . S
C1572 C1569 1.526 . S
C1572 C1573 1.396 . S
C1572 C1577 1.390 . S
C1573 C1567 1.465 . S
C1573 C1572 1.396 . S
C1573 C1574 1.399 . S
C1574 H1560 0.929 . S
C1574 C1573 1.399 . S
C1574 C1575 1.385 . S
C1575 H1561 0.931 . S
C1575 C1574 1.385 . S
C1575 C1576 1.389 . S
C1576 C1575 1.389 . S
C1576 C1577 1.387 . S
C1577 H1562 0.930 . S
C1577 C1572 1.390 . S
C1577 C1576 1.387 . S
H1578 C1590 0.930 . S
H1579 C1592 0.930 . S
H1580 C1593 0.930 . S
H1581 C1597 0.959 . S
H1582 C1597 0.959 . S
H1583 C1597 0.961 . S
H1584 C1598 0.960 . S
H1585 C1598 0.961 . S
H1586 C1598 0.959 . S
H1587 C1601 0.929 . S
H1588 C1602 0.931 . S
H1589 C1604 0.930 . S
C1590 H1578 0.930 . S
C1590 C1591 1.399 . S
C1590 C1595 1.399 . S
C1591 C1590 1.399 . S
C1591 C1592 1.376 . S
C1592 H1579 0.930 . S
C1592 C1591 1.376 . S
C1592 C1593 1.388 . S
C1593 H1580 0.930 . S
C1593 C1592 1.388 . S
C1593 C1594 1.390 . S
C1594 C1593 1.390 . S
C1594 C1595 1.394 . S
C1594 C1600 1.465 . S
C1595 C1590 1.399 . S
C1595 C1594 1.394 . S
C1595 C1596 1.516 . S
C1596 C1595 1.516 . S
C1596 C1597 1.502 . S
C1596 C1598 1.561 . S
C1596 C1599 1.526 . S
C1597 H1581 0.959 . S
C1597 H1582 0.959 . S
C1597 H1583 0.961 . S
C1597 C1596 1.502 . S
C1598 H1584 0.960 . S
C1598 H1585 0.961 . S
C1598 H1586 0.959 . S
C1598 C1596 1.561 . S
C1599 C1596 1.526 . S
C1599 C1600 1.396 . S
C1599 C1604 1.390 . S
C1600 C1594 1.465 . S
C1600 C1599 1.396 . S
C1600 C1601 1.399 . S
C1601 H1587 0.929 . S
C1601 C1600 1.399 . S
C1601 C1602 1.385 . S
C1602 H1588 0.931 . S
C1602 C1601 1.385 . S
C1602 C1603 1.389 . S
C1603 C1602 1.389 . S
C1603 C1604 1.387 . S
C1604 H1589 0.930 . S
C1604 C1599 1.390 . S
C1604 C1603 1.387 . S
H1605 C1617 0.930 . S
H1606 C1619 0.930 . S
H1607 C1620 0.930 . S
H1608 C1624 0.959 . S
H1609 C1624 0.959 . S
H1610 C1624 0.961 . S
H1611 C1625 0.960 . S
H1612 C1625 0.961 . S
H1613 C1625 0.959 . S
H1614 C1628 0.929 . S
H1615 C1629 0.931 . S
H1616 C1631 0.930 . S
C1617 H1605 0.930 . S
C1617 C1618 1.399 . S
C1617 C1622 1.399 . S
C1618 C1617 1.399 . S
C1618 C1619 1.376 . S
C1619 H1606 0.930 . S
C1619 C1618 1.376 . S
C1619 C1620 1.388 . S
C1620 H1607 0.930 . S
C1620 C1619 1.388 . S
C1620 C1621 1.390 . S
C1621 C1620 1.390 . S
C1621 C1622 1.394 . S
C1621 C1627 1.465 . S
C1622 C1617 1.399 . S
C1622 C1621 1.394 . S
C1622 C1623 1.516 . S
C1623 C1622 1.516 . S
C1623 C1624 1.502 . S
C1623 C1625 1.561 . S
C1623 C1626 1.526 . S
C1624 H1608 0.959 . S
C1624 H1609 0.959 . S
C1624 H1610 0.961 . S
C1624 C1623 1.502 . S
C1625 H1611 0.960 . S
C1625 H1612 0.961 . S
C1625 H1613 0.959 . S
C1625 C1623 1.561 . S
C1626 C1623 1.526 . S
C1626 C1627 1.396 . S
C1626 C1631 1.390 . S
C1627 C1621 1.465 . S
C1627 C1626 1.396 . S
C1627 C1628 1.399 . S
C1628 H1614 0.929 . S
C1628 C1627 1.399 . S
C1628 C1629 1.385 . S
C1629 H1615 0.931 . S
C1629 C1628 1.385 . S
C1629 C1630 1.389 . S
C1630 C1629 1.389 . S
C1630 C1631 1.387 . S
C1631 H1616 0.930 . S
C1631 C1626 1.390 . S
C1631 C1630 1.387 . S
C349 C7 1.345 . S
C361 C105 1.322 . S
C376 C119 1.346 . S
C388 C21 1.309 . S
C403 C35 1.342 . S
C415 C133 1.327 . S
C430 C49 1.347 . S
C442 C147 1.317 . S
C457 C161 1.307 . S
C469 C63 1.331 . S
C484 C77 1.334 . S
C496 C91 1.307 . S
C511 C175 1.326 . S
C523 C273 1.347 . S
C538 C189 1.309 . S
C550 C287 1.339 . S
C565 C301 1.338 . S
C577 C203 1.343 . S
C592 C217 1.320 . S
C604 C315 1.307 . S
C619 C231 1.347 . S
C631 C329 1.331 . S
C646 C259 1.340 . S
C658 C245 1.342 . S
C673 C13 1.155 . S
C685 C125 1.270 . S
C700 C139 1.264 . S
C712 C27 1.159 . S
C727 C153 1.166 . S
C739 C41 1.252 . S
C754 C55 1.193 . S
C766 C167 1.223 . S
C781 C69 1.170 . S
C793 C97 1.248 . S
C808 C83 1.268 . S
C820 C111 1.158 . S
C835 C293 1.170 . S
C847 C181 1.269 . S
C862 C195 1.156 . S
C874 C307 1.264 . S
C889 C321 1.230 . S
C901 C209 1.183 . S
C916 C335 1.207 . S
C928 C223 1.243 . S
C943 C265 1.176 . S
C955 C237 1.236 . S
C970 C251 1.197 . S
C982 C279 1.252 . S
C997 C11 1.518 . S
C1009 C221 1.520 . S
C1024 C235 1.501 . S
C1036 C25 1.505 . S
C1051 C249 1.519 . S
C1063 C39 1.517 . S
C1078 C53 1.499 . S
C1090 C179 1.495 . S
C1105 C67 1.494 . S
C1117 C193 1.498 . S
C1132 C207 1.491 . S
C1144 C81 1.492 . S
C1159 C305 1.512 . S
C1171 C95 1.508 . S
C1186 C319 1.493 . S
C1198 C109 1.492 . S
C1213 C333 1.520 . S
C1225 C123 1.518 . S
C1240 C263 1.498 . S
C1252 C137 1.503 . S
C1267 C151 1.498 . S
C1279 C277 1.503 . S
C1294 C165 1.503 . S
C1306 C291 1.507 . S
C1321 C8 1.496 . S
C1333 C148 1.475 . S
C1348 C162 1.461 . S
C1360 C22 1.486 . S
C1375 C92 1.450 . S
C1387 C36 1.503 . S
C1402 C50 1.473 . S
C1414 C106 1.496 . S
C1429 C64 1.506 . S
C1441 C120 1.460 . S
C1456 C78 1.460 . S
C1468 C134 1.488 . S
C1483 C176 1.507 . S
C1495 C316 1.473 . S
C1510 C190 1.476 . S
C1522 C330 1.456 . S
C1537 C204 1.498 . S
C1549 C260 1.451 . S
C1564 C274 1.451 . S
C1576 C218 1.487 . S
C1591 C232 1.483 . S
C1603 C288 1.453 . S
C1618 C246 1.487 . S
C1630 C302 1.499 . S
