# Generated by pormake.
# Topology umz, (4)-cn, num edge types: 1
# Building blocks:
#     Node 0, Type 0, BuildingBlock: CEKHIL_clean_sbu_0, # of connection points: 4
#     Node 1, Type 0, BuildingBlock: CEKHIL_clean_sbu_0, # of connection points: 4
#     Node 2, Type 0, BuildingBlock: CEKHIL_clean_sbu_0, # of connection points: 4
#     Node 3, Type 0, BuildingBlock: CEKHIL_clean_sbu_0, # of connection points: 4
#     Node 4, Type 0, BuildingBlock: CEKHIL_clean_sbu_0, # of connection points: 4
#     Node 5, Type 0, BuildingBlock: CEKHIL_clean_sbu_0, # of connection points: 4
#     Node 6, Type 0, BuildingBlock: CEKHIL_clean_sbu_0, # of connection points: 4
#     Node 7, Type 0, BuildingBlock: CEKHIL_clean_sbu_0, # of connection points: 4
#     Node 8, Type 0, BuildingBlock: CEKHIL_clean_sbu_0, # of connection points: 4
#     Node 9, Type 0, BuildingBlock: CEKHIL_clean_sbu_0, # of connection points: 4
#     Node 10, Type 0, BuildingBlock: CEKHIL_clean_sbu_0, # of connection points: 4
#     Node 11, Type 0, BuildingBlock: CEKHIL_clean_sbu_0, # of connection points: 4
#     Node 12, Type 0, BuildingBlock: CEKHIL_clean_sbu_0, # of connection points: 4
#     Node 13, Type 0, BuildingBlock: CEKHIL_clean_sbu_0, # of connection points: 4
#     Node 14, Type 0, BuildingBlock: CEKHIL_clean_sbu_0, # of connection points: 4
#     Node 15, Type 0, BuildingBlock: CEKHIL_clean_sbu_0, # of connection points: 4
#     Edge 16, Type (0, 0), BuildingBlock: AJUNOK_clean_linker_0, # of connection points: 2
#     Edge 17, Type (0, 0), BuildingBlock: AJUNOK_clean_linker_0, # of connection points: 2
#     Edge 18, Type (0, 0), BuildingBlock: AJUNOK_clean_linker_0, # of connection points: 2
#     Edge 19, Type (0, 0), BuildingBlock: AJUNOK_clean_linker_0, # of connection points: 2
#     Edge 20, Type (0, 0), BuildingBlock: AJUNOK_clean_linker_0, # of connection points: 2
#     Edge 21, Type (0, 0), BuildingBlock: AJUNOK_clean_linker_0, # of connection points: 2
#     Edge 22, Type (0, 0), BuildingBlock: AJUNOK_clean_linker_0, # of connection points: 2
#     Edge 23, Type (0, 0), BuildingBlock: AJUNOK_clean_linker_0, # of connection points: 2
#     Edge 24, Type (0, 0), BuildingBlock: AJUNOK_clean_linker_0, # of connection points: 2
#     Edge 25, Type (0, 0), BuildingBlock: AJUNOK_clean_linker_0, # of connection points: 2
#     Edge 26, Type (0, 0), BuildingBlock: AJUNOK_clean_linker_0, # of connection points: 2
#     Edge 27, Type (0, 0), BuildingBlock: AJUNOK_clean_linker_0, # of connection points: 2
#     Edge 28, Type (0, 0), BuildingBlock: AJUNOK_clean_linker_0, # of connection points: 2
#     Edge 29, Type (0, 0), BuildingBlock: AJUNOK_clean_linker_0, # of connection points: 2
#     Edge 30, Type (0, 0), BuildingBlock: AJUNOK_clean_linker_0, # of connection points: 2
#     Edge 31, Type (0, 0), BuildingBlock: AJUNOK_clean_linker_0, # of connection points: 2
#     Edge 32, Type (0, 0), BuildingBlock: AJUNOK_clean_linker_0, # of connection points: 2
#     Edge 33, Type (0, 0), BuildingBlock: AJUNOK_clean_linker_0, # of connection points: 2
#     Edge 34, Type (0, 0), BuildingBlock: AJUNOK_clean_linker_0, # of connection points: 2
#     Edge 35, Type (0, 0), BuildingBlock: AJUNOK_clean_linker_0, # of connection points: 2
#     Edge 36, Type (0, 0), BuildingBlock: AJUNOK_clean_linker_0, # of connection points: 2
#     Edge 37, Type (0, 0), BuildingBlock: AJUNOK_clean_linker_0, # of connection points: 2
#     Edge 38, Type (0, 0), BuildingBlock: AJUNOK_clean_linker_0, # of connection points: 2
#     Edge 39, Type (0, 0), BuildingBlock: AJUNOK_clean_linker_0, # of connection points: 2
#     Edge 40, Type (0, 0), BuildingBlock: AJUNOK_clean_linker_0, # of connection points: 2
#     Edge 41, Type (0, 0), BuildingBlock: AJUNOK_clean_linker_0, # of connection points: 2
#     Edge 42, Type (0, 0), BuildingBlock: AJUNOK_clean_linker_0, # of connection points: 2
#     Edge 43, Type (0, 0), BuildingBlock: AJUNOK_clean_linker_0, # of connection points: 2
#     Edge 44, Type (0, 0), BuildingBlock: AJUNOK_clean_linker_0, # of connection points: 2
#     Edge 45, Type (0, 0), BuildingBlock: AJUNOK_clean_linker_0, # of connection points: 2
#     Edge 46, Type (0, 0), BuildingBlock: AJUNOK_clean_linker_0, # of connection points: 2
#     Edge 47, Type (0, 0), BuildingBlock: AJUNOK_clean_linker_0, # of connection points: 2
# Relax obj value: 0.257
# Max RMSD: 0.167
# Mean RMSD: 0.167
data_MOF--net-umz--node1-CEKHIL_clean_sbu_0--edge1-AJUNOK_clean_linker_0
_symmetry_space_group_name_H-M    P1
_symmetry_Int_Tables_number       1
_symmetry_cell_setting            triclinic
loop_
_symmetry_equiv_pos_as_xyz
'x, y, z'
_cell_length_a     42.358894
_cell_length_b     42.355875
_cell_length_c     16.594278
_cell_angle_alpha  90.052476
_cell_angle_beta   90.1004
_cell_angle_gamma 89.971777
loop_
_atom_site_label
_atom_site_type_symbol
_atom_site_fract_x
_atom_site_fract_y
_atom_site_fract_z
_atom_type_partial_charge
Co0 Co 1.00346 0.63644 0.06713 0.0
O1 O 0.9873 0.66899 0.99633 0.0
O2 O 0.03261 0.67189 0.06167 0.0
C3 C 0.95751 0.62861 0.13566 0.0
O4 O 0.02737 0.60942 0.14922 0.0
Co5 Co 0.97455 0.56831 0.0741 0.0
O6 O 0.99861 0.56597 0.17642 0.0
C7 C 0.02188 0.5848 0.9482 0.0
C8 C 0.01195 0.68562 0.01543 0.0
C9 C 0.02173 0.58439 0.19069 0.0
O10 O 0.02547 0.61329 0.97504 0.0
O11 O 1.00167 0.56528 0.97651 0.0
O12 O 0.97599 0.652 0.15419 0.0
O13 O 0.96595 0.61283 0.07305 0.0
Co14 Co 0.8763 0.01064 0.55933 0.0
O15 O 0.84052 0.99 0.50961 0.0
O16 O 0.83969 0.03843 0.5587 0.0
C17 C 0.89131 0.96953 0.6388 0.0
O18 O 0.90739 0.03922 0.6193 0.0
Co19 Co 0.94459 0.98395 0.53691 0.0
O20 O 0.95569 0.01695 0.61696 0.0
C21 C 0.91398 0.01875 0.40455 0.0
C22 C 0.82434 0.01533 0.52491 0.0
C23 C 0.9368 0.0387 0.63941 0.0
O24 O 0.89129 0.02768 0.45125 0.0
O25 O 0.93488 0.99848 0.42518 0.0
O26 O 0.86837 0.98802 0.66081 0.0
O27 O 0.90179 0.97453 0.56721 0.0
Co28 Co 0.50336 0.87746 0.0577 0.0
O29 O 0.52474 0.84228 0.00816 0.0
O30 O 0.47639 0.84011 0.05703 0.0
C31 C 0.54398 0.89295 0.13814 0.0
O32 O 0.47456 0.90832 0.11767 0.0
Co33 Co 0.52947 0.94585 0.03336 0.0
O34 O 0.49732 0.95642 0.11577 0.0
C35 C 0.49458 0.91467 0.9021 0.0
C36 C 0.50006 0.82533 0.02416 0.0
C37 C 0.47567 0.93759 0.13907 0.0
O38 O 0.48597 0.89212 0.94952 0.0
O39 O 0.51457 0.93594 0.92193 0.0
O40 O 0.52585 0.86967 0.15931 0.0
O41 O 0.53918 0.90337 0.06625 0.0
Co42 Co 0.63717 0.50284 0.56376 0.0
O43 O 0.67352 0.52332 0.51705 0.0
O44 O 0.67387 0.47503 0.56693 0.0
C45 C 0.6213 0.54441 0.64061 0.0
O46 O 0.60512 0.47471 0.62154 0.0
Co47 Co 0.56932 0.52984 0.5341 0.0
O48 O 0.55725 0.49783 0.61548 0.0
C49 C 0.6018 0.49484 0.40525 0.0
C50 C 0.68956 0.4981 0.53427 0.0
C51 C 0.57557 0.47592 0.63998 0.0
O52 O 0.62351 0.48548 0.45457 0.0
O53 O 0.5808 0.51533 0.42356 0.0
O54 O 0.6438 0.52592 0.66553 0.0
O55 O 0.61176 0.53898 0.56832 0.0
Co56 Co 0.00895 0.87434 0.92701 0.0
O57 O 0.98863 0.83804 0.97484 0.0
O58 O 0.03647 0.83746 0.92248 0.0
C59 C 0.96692 0.89057 0.85207 0.0
O60 O 0.03689 0.90609 0.8676 0.0
Co61 Co 0.98288 0.94255 0.95673 0.0
O62 O 0.01406 0.95409 0.87286 0.0
C63 C 0.0187 0.91006 0.08443 0.0
C64 C 0.01361 0.82185 0.9563 0.0
C65 C 0.03558 0.93548 0.84758 0.0
O66 O 0.0273 0.88797 0.03534 0.0
O67 O 0.99842 0.93132 0.06653 0.0
O68 O 0.98502 0.86789 0.82639 0.0
O69 O 0.97298 0.90009 0.92404 0.0
Co70 Co 0.63577 0.00963 0.43608 0.0
O71 O 0.6719 0.98937 0.48508 0.0
O72 O 0.6722 0.0376 0.43484 0.0
C73 C 0.62052 0.9681 0.35832 0.0
O74 O 0.60417 0.03769 0.37648 0.0
Co75 Co 0.56771 0.98265 0.4612 0.0
O76 O 0.55627 0.01465 0.37902 0.0
C77 C 0.59893 0.01785 0.59197 0.0
C78 C 0.68784 0.01474 0.46876 0.0
C79 C 0.57488 0.03645 0.35551 0.0
O80 O 0.62121 0.02699 0.54431 0.0
O81 O 0.57816 0.99732 0.57229 0.0
O82 O 0.64321 0.98656 0.33468 0.0
O83 O 0.61047 0.97349 0.43009 0.0
Co84 Co 0.5043 0.63641 0.93745 0.0
O85 O 0.52568 0.67145 0.98787 0.0
O86 O 0.47731 0.6737 0.9388 0.0
C87 C 0.54494 0.62097 0.85733 0.0
O88 O 0.47526 0.60596 0.87684 0.0
Co89 Co 0.53001 0.56763 0.95889 0.0
O90 O 0.49712 0.55744 0.8778 0.0
C91 C 0.49602 0.5986 0.09182 0.0
C92 C 0.50089 0.68841 0.97237 0.0
C93 C 0.47571 0.57672 0.85521 0.0
O94 O 0.48715 0.62138 0.04528 0.0
O95 O 0.51602 0.57752 0.07088 0.0
O96 O 0.52687 0.64434 0.83606 0.0
O97 O 0.53996 0.61034 0.92881 0.0
Co98 Co 0.8748 0.51081 0.42586 0.0
O99 O 0.84172 0.52591 0.49608 0.0
O100 O 0.84006 0.48071 0.43006 0.0
C101 C 0.88138 0.55713 0.35809 0.0
O102 O 0.90293 0.48802 0.34419 0.0
Co103 Co 0.94173 0.54226 0.4224 0.0
O104 O 0.94477 0.51925 0.31876 0.0
C105 C 0.92647 0.49374 0.54612 0.0
C106 C 0.82571 0.50095 0.47628 0.0
C107 C 0.92762 0.4953 0.30301 0.0
O108 O 0.89826 0.48924 0.51823 0.0
O109 O 0.94531 0.51487 0.5193 0.0
O110 O 0.85879 0.53787 0.33836 0.0
O111 O 0.89703 0.54918 0.42132 0.0
Co112 Co 0.00782 0.37748 0.92529 0.0
O113 O 0.02296 0.34419 0.99494 0.0
O114 O 0.978 0.34241 0.92786 0.0
C115 C 0.05429 0.38476 0.8588 0.0
O116 O 0.98522 0.40594 0.84389 0.0
Co117 Co 0.03916 0.4447 0.92531 0.0
O118 O 0.01651 0.44802 0.82114 0.0
C119 C 0.99001 0.42853 0.04661 0.0
C120 C 0.99825 0.32802 0.97409 0.0
C121 C 0.99267 0.4309 0.8039 0.0
O122 O 0.98576 0.40042 0.01779 0.0
O123 O 0.0112 0.4476 0.02117 0.0
O124 O 0.03533 0.36206 0.83798 0.0
O125 O 0.04596 0.39999 0.9223 0.0
Co126 Co 0.13508 1.00362 0.42807 0.0
O127 O 0.16983 0.02527 0.47918 0.0
O128 O 0.17278 0.97709 0.42938 0.0
C129 C 0.11931 0.04458 0.3489 0.0
O130 O 0.10492 0.97432 0.3669 0.0
Co131 Co 0.06607 0.0287 0.44981 0.0
O132 O 0.0561 0.99553 0.36937 0.0
C133 C 0.09728 0.99442 0.5821 0.0
C134 C 0.18713 1.00074 0.46363 0.0
C135 C 0.07549 0.97425 0.34672 0.0
O136 O 0.12017 0.98594 0.53552 0.0
O137 O 0.07603 0.01433 0.56152 0.0
O138 O 0.14279 0.02674 0.32716 0.0
O139 O 0.10868 0.03906 0.42007 0.0
Co140 Co 0.50843 0.13687 0.93596 0.0
O141 O 0.48836 0.17298 0.98545 0.0
O142 O 0.53658 0.17316 0.9352 0.0
C143 C 0.46676 0.12202 0.85813 0.0
O144 O 0.53638 0.10533 0.87601 0.0
Co145 Co 0.48131 0.06885 0.96005 0.0
O146 O 0.51343 0.05739 0.87826 0.0
C147 C 0.51654 0.09968 0.0914 0.0
C148 C 0.51381 0.18882 0.96939 0.0
C149 C 0.53521 0.07606 0.85494 0.0
O150 O 0.52575 0.12202 0.044 0.0
O151 O 0.49593 0.07901 0.07144 0.0
O152 O 0.48536 0.14464 0.83468 0.0
O153 O 0.47216 0.11174 0.92972 0.0
Co154 Co 0.37638 0.50938 0.43501 0.0
O155 O 0.3401 0.48909 0.48265 0.0
O156 O 0.33972 0.53713 0.43114 0.0
C157 C 0.39239 0.46756 0.35925 0.0
O158 O 0.40818 0.53734 0.37621 0.0
Co159 Co 0.44445 0.48294 0.46447 0.0
O160 O 0.45617 0.51451 0.3816 0.0
C161 C 0.41225 0.51882 0.59227 0.0
C162 C 0.32407 0.51425 0.46474 0.0
C163 C 0.43759 0.53612 0.35656 0.0
O164 O 0.39011 0.52742 0.54334 0.0
O165 O 0.43336 0.4984 0.57439 0.0
O166 O 0.36973 0.4858 0.33403 0.0
O167 O 0.40198 0.47333 0.43135 0.0
Co168 Co 1.00182 0.13912 0.05936 0.0
O169 O 0.02191 0.1756 0.01189 0.0
O170 O 0.97383 0.1757 0.06285 0.0
C171 C 0.04374 0.12346 0.13542 0.0
O172 O 0.97403 0.10709 0.11824 0.0
Co173 Co 0.02886 0.07121 0.0308 0.0
O174 O 0.99758 0.05942 0.11422 0.0
C175 C 0.99349 0.1033 0.9017 0.0
C176 C 0.99667 0.19153 0.0296 0.0
C177 C 0.9757 0.07777 0.13878 0.0
O178 O 0.98417 0.12518 0.95057 0.0
O179 O 0.01402 0.08239 0.92034 0.0
O180 O 0.02526 0.14592 0.16064 0.0
O181 O 0.03806 0.11383 0.06337 0.0
Co182 Co 0.37573 1.00506 0.55844 0.0
O183 O 0.34056 0.02627 0.50813 0.0
O184 O 0.33846 0.97793 0.55698 0.0
C185 C 0.39097 0.04587 0.63875 0.0
O186 O 0.40668 0.97631 0.61868 0.0
Co187 Co 0.44408 0.03166 0.53502 0.0
O188 O 0.45493 0.99878 0.61539 0.0
C189 C 0.41339 0.99641 0.40363 0.0
C190 C 0.32368 1.00147 0.5234 0.0
C191 C 0.43616 0.97703 0.63839 0.0
O192 O 0.39072 0.98775 0.45061 0.0
O193 O 0.43435 0.01672 0.42359 0.0
O194 O 0.36773 0.02766 0.65992 0.0
O195 O 0.40147 0.04096 0.56709 0.0
Co196 Co 0.51075 0.37709 0.06208 0.0
O197 O 0.48982 0.34137 0.01312 0.0
O198 O 0.53849 0.34044 0.06079 0.0
C199 C 0.47015 0.39219 0.14286 0.0
O200 O 0.53951 0.40829 0.12112 0.0
Co201 Co 0.48386 0.44526 0.03885 0.0
O202 O 0.5169 0.45646 0.11875 0.0
C203 C 0.51787 0.41424 0.90609 0.0
C204 C 0.5152 0.32514 0.02768 0.0
C205 C 0.53879 0.4377 0.14118 0.0
O206 O 0.52729 0.39193 0.95336 0.0
O207 O 0.49771 0.43523 0.92674 0.0
O208 O 0.48871 0.36921 0.16428 0.0
O209 O 0.47467 0.40257 0.07093 0.0
Co210 Co 0.13815 0.50395 0.56901 0.0
O211 O 0.17151 0.48812 0.50075 0.0
O212 O 0.17357 0.53324 0.56716 0.0
C213 C 0.1295 0.45814 0.63711 0.0
O214 O 0.10968 0.5272 0.64906 0.0
Co215 Co 0.07027 0.47437 0.56489 0.0
O216 O 0.06664 0.49694 0.66912 0.0
C217 C 0.08841 0.52323 0.44534 0.0
C218 C 0.18785 0.51275 0.5215 0.0
C219 C 0.08421 0.52029 0.68755 0.0
O220 O 0.11639 0.52635 0.47556 0.0
O221 O 0.06823 0.5029 0.46961 0.0
O222 O 0.15273 0.47658 0.65701 0.0
O223 O 0.11479 0.46617 0.57232 0.0
C224 C 0.98581 0.73704 0.98283 0.0
C225 C 0.01389 0.71985 0.99482 0.0
C226 C 0.98616 0.76987 0.97109 0.0
C227 C 0.01463 0.78698 0.96886 0.0
H228 H 0.96317 0.7252 0.98491 0.0
H229 H 0.96379 0.78191 0.96332 0.0
S230 S 0.0949 0.75314 0.99317 0.0
N231 N 0.07113 0.72243 0.00232 0.0
N232 N 0.07184 0.784 0.9772 0.0
C233 C 0.043 0.77003 0.97847 0.0
C234 C 0.0426 0.73657 0.99234 0.0
C235 C 0.73982 0.98797 0.49075 0.0
C236 C 0.72253 0.01624 0.48368 0.0
C237 C 0.77264 0.98812 0.50253 0.0
C238 C 0.78967 0.01653 0.50941 0.0
H239 H 0.72798 0.96538 0.4861 0.0
H240 H 0.78467 0.96563 0.50745 0.0
S241 S 0.75573 0.09718 0.49618 0.0
N242 N 0.72504 0.07358 0.48405 0.0
N243 N 0.78664 0.07385 0.50849 0.0
C244 C 0.77271 0.04504 0.50315 0.0
C245 C 0.73923 0.04489 0.4896 0.0
C246 C 0.47191 0.77331 0.00249 0.0
C247 C 0.50022 0.79048 0.01082 0.0
C248 C 0.47214 0.74034 0.98998 0.0
C249 C 0.50066 0.72318 0.98733 0.0
H250 H 0.44942 0.78547 0.00463 0.0
H251 H 0.44981 0.7282 0.98286 0.0
S252 S 0.58125 0.75685 0.00855 0.0
N253 N 0.55752 0.78758 0.01661 0.0
N254 N 0.55794 0.72611 0.99494 0.0
C255 C 0.52905 0.7401 0.99677 0.0
C256 C 0.52883 0.77357 0.008 0.0
C257 C 0.74155 0.52559 0.52445 0.0
C258 C 0.72439 0.49717 0.52203 0.0
C259 C 0.77434 0.52616 0.51281 0.0
C260 C 0.79149 0.49841 0.4963 0.0
H261 H 0.72956 0.54775 0.53582 0.0
H262 H 0.78617 0.54882 0.51449 0.0
S263 S 0.75795 0.4176 0.48435 0.0
N264 N 0.72717 0.44029 0.50419 0.0
N265 N 0.78874 0.44146 0.47928 0.0
C266 C 0.77471 0.46971 0.49408 0.0
C267 C 0.74124 0.46905 0.50784 0.0
C268 C 0.02408 0.27656 0.00728 0.0
C269 C 0.99609 0.29363 0.99287 0.0
C270 C 0.02381 0.24372 0.01829 0.0
C271 C 0.99547 0.2264 0.01738 0.0
H272 H 0.04667 0.28854 0.00789 0.0
H273 H 0.04613 0.23182 0.02815 0.0
S274 S 0.91539 0.25969 0.9852 0.0
N275 N 0.93903 0.29063 0.9792 0.0
N276 N 0.93841 0.22896 0.00304 0.0
C277 C 0.96714 0.24316 0.0051 0.0
C278 C 0.96748 0.27669 0.99193 0.0
C279 C 0.27202 0.97271 0.50049 0.0
C280 C 0.28894 1.00123 0.50771 0.0
C281 C 0.23916 0.97254 0.4858 0.0
C282 C 0.22184 1.00089 0.47976 0.0
H283 H 0.28428 0.95034 0.50533 0.0
H284 H 0.22722 0.95005 0.47992 0.0
S285 S 0.25482 0.08195 0.49559 0.0
N286 N 0.2856 0.05856 0.50793 0.0
N287 N 0.22437 0.05825 0.48219 0.0
C288 C 0.23851 0.0295 0.48768 0.0
C289 C 0.27187 0.02967 0.50113 0.0
C290 C 0.48738 0.24084 0.99287 0.0
C291 C 0.51553 0.22345 0.985 0.0
C292 C 0.48771 0.27361 0.00524 0.0
C293 C 0.51622 0.2905 0.01191 0.0
H294 H 0.46471 0.22912 0.98838 0.0
H295 H 0.46529 0.28573 0.01072 0.0
S296 S 0.59666 0.25623 0.99676 0.0
N297 N 0.57288 0.22569 0.98449 0.0
N298 N 0.57352 0.28721 0.01 0.0
C299 C 0.54463 0.27343 0.00491 0.0
C300 C 0.54429 0.23999 0.99077 0.0
C301 C 0.27197 0.48705 0.47666 0.0
C302 C 0.28928 0.5154 0.47738 0.0
C303 C 0.23917 0.4868 0.48803 0.0
C304 C 0.22218 0.51481 0.50259 0.0
H305 H 0.28385 0.46473 0.46665 0.0
H306 H 0.22716 0.46422 0.48754 0.0
S307 S 0.25616 0.5955 0.51008 0.0
N308 N 0.28683 0.57245 0.49189 0.0
N309 N 0.22523 0.57187 0.51631 0.0
C310 C 0.23912 0.54341 0.50339 0.0
C311 C 0.27259 0.54374 0.48989 0.0
C312 C 0.05047 0.53908 0.89069 0.0
C313 C 0.04311 0.5715 0.88575 0.0
C314 C 0.06556 0.52331 0.82784 0.0
C315 C 0.07442 0.53931 0.75761 0.0
H316 H 0.04336 0.52529 0.94259 0.0
H317 H 0.06929 0.49806 0.83304 0.0
S318 S 0.06355 0.62464 0.71649 0.0
N319 N 0.04797 0.61957 0.80687 0.0
N320 N 0.07698 0.58971 0.68801 0.0
C321 C 0.06932 0.57211 0.75346 0.0
C322 C 0.05357 0.58831 0.81787 0.0
C323 C 0.94822 0.03143 0.19915 0.0
C324 C 0.95252 0.06439 0.19664 0.0
C325 C 0.93228 0.01699 0.26296 0.0
C326 C 0.91983 0.03483 0.32691 0.0
H327 H 0.95884 0.0164 0.15381 0.0
H328 H 0.93167 0.99142 0.26513 0.0
S329 S 0.92077 0.12208 0.34429 0.0
N330 N 0.93983 0.11475 0.25952 0.0
N331 N 0.90984 0.08736 0.3799 0.0
C332 C 0.92127 0.06793 0.32165 0.0
C333 C 0.93765 0.08278 0.25639 0.0
C334 C 0.44544 0.92537 0.82368 0.0
C335 C 0.47822 0.9199 0.82462 0.0
C336 C 0.43109 0.94166 0.75931 0.0
C337 C 0.44919 0.95298 0.69434 0.0
H338 H 0.43134 0.9197 0.87612 0.0
H339 H 0.40629 0.94766 0.76381 0.0
S340 S 0.5346 0.93847 0.66104 0.0
N341 N 0.52731 0.92263 0.74997 0.0
N342 N 0.50054 0.95268 0.62885 0.0
C343 C 0.48132 0.9446 0.69105 0.0
C344 C 0.4958 0.92819 0.75628 0.0
C345 C 0.57469 0.43203 0.26112 0.0
C346 C 0.56303 0.45048 0.19701 0.0
C347 C 0.59132 0.44601 0.32549 0.0
C348 C 0.59684 0.47877 0.32725 0.0
H349 H 0.56867 0.40723 0.26505 0.0
H350 H 0.59712 0.43166 0.37746 0.0
S351 S 0.57749 0.536 0.16578 0.0
N352 N 0.56302 0.50214 0.13306 0.0
N353 N 0.5939 0.5282 0.25388 0.0
C354 C 0.58833 0.49667 0.25946 0.0
C355 C 0.57146 0.48259 0.19437 0.0
C356 C 0.08163 0.93846 0.22652 0.0
C357 C 0.06321 0.94959 0.29125 0.0
C358 C 0.06775 0.92145 0.16259 0.0
C359 C 0.03515 0.91497 0.16197 0.0
H360 H 0.10622 0.94521 0.22175 0.0
H361 H 0.08194 0.91613 0.11005 0.0
S362 S 0.97824 0.93295 0.32499 0.0
N363 N 0.01189 0.94821 0.35674 0.0
N364 N 0.98605 0.91667 0.2368 0.0
C365 C 0.01741 0.92297 0.23036 0.0
C366 C 0.03138 0.94022 0.29495 0.0
C367 C 0.56451 0.03036 0.79683 0.0
C368 C 0.55903 0.06314 0.79812 0.0
C369 C 0.58121 0.01615 0.73388 0.0
C370 C 0.59311 0.03408 0.66945 0.0
H371 H 0.55424 0.01523 0.84241 0.0
H372 H 0.58272 0.99062 0.73247 0.0
S373 S 0.58918 0.12112 0.64943 0.0
N374 N 0.57017 0.11359 0.7341 0.0
N375 N 0.60141 0.08661 0.61503 0.0
C376 C 0.59053 0.06712 0.67371 0.0
C377 C 0.57347 0.08173 0.73822 0.0
C378 C 0.48367 0.56428 0.29702 0.0
C379 C 0.45078 0.55954 0.2991 0.0
C380 C 0.49797 0.58053 0.23353 0.0
C381 C 0.48002 0.5928 0.16947 0.0
H382 H 0.49879 0.55377 0.34242 0.0
H383 H 0.52352 0.58151 0.23158 0.0
S384 S 0.39283 0.59087 0.15133 0.0
N385 N 0.40031 0.57175 0.23599 0.0
N386 N 0.42745 0.60226 0.1161 0.0
C387 C 0.44695 0.59097 0.17443 0.0
C388 C 0.43226 0.5743 0.23939 0.0
C389 C 0.98932 0.4515 0.66531 0.0
C390 C 0.97346 0.44092 0.73418 0.0
C391 C 0.97318 0.4667 0.60327 0.0
C392 C 0.94043 0.47246 0.60758 0.0
H393 H 0.01473 0.44898 0.66054 0.0
H394 H 0.98688 0.47511 0.55252 0.0
S395 S 0.88742 0.44684 0.77236 0.0
N396 N 0.92283 0.4348 0.8012 0.0
N397 N 0.89223 0.46403 0.68378 0.0
C398 C 0.9238 0.46021 0.67375 0.0
C399 C 0.94041 0.44433 0.73737 0.0
C400 C 0.96151 0.47477 0.10103 0.0
C401 C 0.9683 0.44226 0.10727 0.0
C402 C 0.94655 0.49114 0.16305 0.0
C403 C 0.93721 0.47569 0.23369 0.0
H404 H 0.96911 0.48815 0.0489 0.0
H405 H 0.94337 0.51643 0.15691 0.0
S406 S 0.94601 0.39028 0.27724 0.0
N407 N 0.9621 0.39465 0.18721 0.0
N408 N 0.93322 0.42561 0.30446 0.0
C409 C 0.94154 0.44278 0.2388 0.0
C410 C 0.95721 0.42597 0.17526 0.0
C411 C 0.06374 0.98156 0.78796 0.0
C412 C 0.05882 0.94868 0.78961 0.0
C413 C 0.07975 0.99597 0.72423 0.0
C414 C 0.09164 0.97817 0.65954 0.0
H415 H 0.05355 0.99659 0.83395 0.0
H416 H 0.08085 0.02153 0.7227 0.0
S417 S 0.08889 0.89106 0.63953 0.0
N418 N 0.07028 0.89836 0.72498 0.0
N419 N 0.10039 0.92572 0.60472 0.0
C420 C 0.08957 0.94509 0.66385 0.0
C421 C 0.07312 0.93027 0.72902 0.0
C422 C 0.52901 0.06522 0.29649 0.0
C423 C 0.56185 0.06014 0.2984 0.0
C424 C 0.51475 0.08166 0.23312 0.0
C425 C 0.53268 0.09378 0.169 0.0
H426 H 0.5139 0.05481 0.34188 0.0
H427 H 0.48919 0.0828 0.2312 0.0
S428 S 0.61982 0.09092 0.15058 0.0
N429 N 0.61231 0.07184 0.2352 0.0
N430 N 0.58525 0.10272 0.11551 0.0
C431 C 0.56574 0.09161 0.17387 0.0
C432 C 0.5804 0.07475 0.23873 0.0
C433 C 0.42764 0.51792 0.736 0.0
C434 C 0.41749 0.53562 0.66918 0.0
C435 C 0.4443 0.53205 0.79929 0.0
C436 C 0.45152 0.56449 0.79836 0.0
H437 H 0.4249 0.49248 0.73627 0.0
H438 H 0.45332 0.51701 0.84686 0.0
S439 S 0.42668 0.62195 0.64202 0.0
N440 N 0.41286 0.58774 0.60955 0.0
N441 N 0.44412 0.61455 0.72912 0.0
C442 C 0.43886 0.58302 0.73575 0.0
C443 C 0.4218 0.56851 0.67096 0.0
C444 C 0.93088 0.07512 0.75832 0.0
C445 C 0.94945 0.06318 0.6948 0.0
C446 C 0.94472 0.09224 0.82208 0.0
C447 C 0.97743 0.09803 0.82376 0.0
H448 H 0.90611 0.06899 0.76232 0.0
H449 H 0.9303 0.09823 0.87376 0.0
S450 S 0.03489 0.07798 0.66351 0.0
N451 N 1.00114 0.0631 0.63121 0.0
N452 N 0.02691 0.09494 0.75077 0.0
C453 C 0.99541 0.08922 0.75638 0.0
C454 C 0.98149 0.07182 0.69198 0.0
C455 C 0.43024 0.9976 0.26095 0.0
C456 C 0.41913 0.97988 0.32658 0.0
C457 C 0.44628 0.98319 0.19716 0.0
C458 C 0.45208 0.95044 0.19655 0.0
H459 H 0.42856 0.02314 0.26177 0.0
H460 H 0.45591 0.99817 0.15036 0.0
S461 S 0.42465 0.89304 0.34993 0.0
N462 N 0.41223 0.92758 0.38372 0.0
N463 N 0.44254 0.90028 0.26351 0.0
C464 C 0.43864 0.93205 0.25825 0.0
C465 C 0.42211 0.94684 0.32341 0.0
C466 C 0.56643 0.4239 0.82476 0.0
C467 C 0.5335 0.41965 0.82782 0.0
C468 C 0.58057 0.44001 0.75998 0.0
C469 C 0.56214 0.45237 0.69662 0.0
H470 H 0.58095 0.41738 0.87592 0.0
H471 H 0.60563 0.44497 0.7629 0.0
S472 S 0.4759 0.44109 0.66874 0.0
N473 N 0.48369 0.42451 0.75657 0.0
N474 N 0.51004 0.45428 0.63473 0.0
C475 C 0.52969 0.44522 0.69533 0.0
C476 C 0.51543 0.42896 0.76099 0.0
C477 C 0.08949 0.54833 0.30798 0.0
C478 C 0.0763 0.54594 0.38542 0.0
C479 C 0.07272 0.5633 0.2452 0.0
C480 C 0.04246 0.57606 0.25864 0.0
H481 H 0.11163 0.53668 0.29452 0.0
H482 H 0.08247 0.56297 0.18489 0.0
S483 S 0.99987 0.57948 0.4529 0.0
N484 N 0.03303 0.56068 0.47384 0.0
N485 N 1.00155 0.58798 0.3559 0.0
C486 C 0.03022 0.57567 0.33686 0.0
C487 C 0.04721 0.56085 0.40036 0.0
C488 C 0.89431 0.57402 0.21767 0.0
C489 C 0.89509 0.58015 0.30082 0.0
C490 C 0.91331 0.59121 0.16418 0.0
C491 C 0.93353 0.61543 0.1916 0.0
H492 H 0.88062 0.55444 0.1943 0.0
H493 H 0.91319 0.58445 0.1012 0.0
S494 S 0.94045 0.64368 0.40253 0.0
N495 N 0.91514 0.61409 0.40732 0.0
N496 N 0.95034 0.64683 0.30664 0.0
C497 C 0.93262 0.62337 0.27381 0.0
C498 C 0.91357 0.60557 0.32844 0.0
C499 C 0.92972 0.92562 0.66353 0.0
C500 C 0.90782 0.94755 0.69455 0.0
C501 C 0.94782 0.90628 0.71457 0.0
C502 C 0.94501 0.90837 0.79879 0.0
H503 H 0.93338 0.9237 0.59911 0.0
H504 H 0.96489 0.8904 0.68779 0.0
S505 S 0.89002 0.96078 0.91078 0.0
N506 N 0.88345 0.96916 0.81507 0.0
N507 N 0.91751 0.93314 0.91096 0.0
C508 C 0.92256 0.92956 0.8306 0.0
C509 C 0.90394 0.94904 0.77856 0.0
C510 C 0.58733 0.9317 0.16634 0.0
C511 C 0.56521 0.90965 0.19541 0.0
C512 C 0.60613 0.94963 0.21915 0.0
C513 C 0.60324 0.94648 0.30317 0.0
H514 H 0.58986 0.93553 0.10214 0.0
H515 H 0.62226 0.9668 0.1939 0.0
S516 S 0.5496 0.89133 0.41035 0.0
N517 N 0.54227 0.88503 0.31394 0.0
N518 N 0.57729 0.91872 0.413 0.0
C519 C 0.58174 0.92397 0.333 0.0
C520 C 0.56282 0.90555 0.27924 0.0
C521 C 0.60682 0.56367 0.77873 0.0
C522 C 0.60399 0.5664 0.69461 0.0
C523 C 0.58816 0.58203 0.83067 0.0
C524 C 0.56621 0.60412 0.80064 0.0
H525 H 0.62282 0.54651 0.8048 0.0
H526 H 0.59063 0.57846 0.89501 0.0
S527 S 0.55098 0.62164 0.58504 0.0
N528 N 0.5784 0.59393 0.58356 0.0
N529 N 0.54361 0.62845 0.68115 0.0
C530 C 0.56393 0.60787 0.7167 0.0
C531 C 0.58272 0.58899 0.66376 0.0
C532 C 0.0926 0.41343 0.66593 0.0
C533 C 0.1151 0.43533 0.69421 0.0
C534 C 0.07451 0.3952 0.7194 0.0
C535 C 0.07795 0.39855 0.80323 0.0
H536 H 0.088 0.41124 0.60193 0.0
H537 H 0.05642 0.37987 0.69488 0.0
S538 S 0.13515 0.45071 0.9084 0.0
N539 N 0.14123 0.45761 0.81178 0.0
N540 N 0.10707 0.42374 0.91204 0.0
C541 C 0.10147 0.41915 0.8322 0.0
C542 C 0.12011 0.43742 0.7778 0.0
C543 C 0.062 0.10716 0.27324 0.0
C544 C 0.06563 0.10584 0.18914 0.0
C545 C 0.08004 0.08778 0.32429 0.0
C546 C 0.1027 0.06659 0.2934 0.0
H547 H 0.04432 0.12242 0.29981 0.0
H548 H 0.07577 0.08906 0.38856 0.0
S549 S 0.1228 0.05568 0.07765 0.0
N550 N 0.09469 0.08269 0.07734 0.0
N551 N 0.12867 0.0466 0.17324 0.0
C552 C 0.10739 0.06593 0.2096 0.0
C553 C 0.08882 0.08544 0.15755 0.0
C554 C 0.43052 0.08853 0.66646 0.0
C555 C 0.40765 0.06726 0.69569 0.0
C556 C 0.44865 0.10722 0.71902 0.0
C557 C 0.44488 0.10511 0.80298 0.0
H558 H 0.43491 0.09038 0.60234 0.0
H559 H 0.4665 0.12258 0.69369 0.0
S560 S 0.38712 0.05445 0.91048 0.0
N561 N 0.38132 0.04636 0.81426 0.0
N562 N 0.41546 0.08117 0.91288 0.0
C563 C 0.42147 0.08463 0.83294 0.0
C564 C 0.40283 0.06582 0.7794 0.0
C565 C 0.42627 0.43042 0.16939 0.0
C566 C 0.44861 0.40874 0.19952 0.0
C567 C 0.40724 0.44845 0.22122 0.0
C568 C 0.41006 0.4458 0.30536 0.0
H569 H 0.42376 0.43392 0.10503 0.0
H570 H 0.39096 0.46532 0.19504 0.0
S571 S 0.46401 0.39159 0.41529 0.0
N572 N 0.47156 0.38487 0.31922 0.0
N573 N 0.43609 0.41879 0.41657 0.0
C574 C 0.43173 0.42362 0.33634 0.0
C575 C 0.45091 0.40507 0.28351 0.0
loop_
_geom_bond_atom_site_label_1
_geom_bond_atom_site_label_2
_geom_bond_distance
_geom_bond_site_symmetry_2
_ccdc_geom_bond_type
Co0 O1 2.216 1_455 S
Co0 O2 2.091 . S
Co0 O4 2.004 . S
Co0 O10 2.021 . S
Co0 O12 2.137 1_455 S
Co0 O13 2.244 1_455 S
O1 Co0 2.216 1_655 S
O1 C8 1.247 1_655 S
O2 Co0 2.091 . S
O2 C8 1.261 . S
C3 O12 1.247 . S
C3 O13 1.272 . S
O4 Co0 2.004 . S
O4 C9 1.259 . S
Co5 O6 2.061 . S
Co5 O11 2.052 . S
Co5 O13 2.135 1_455 S
O6 Co5 2.061 . S
O6 C9 1.235 . S
C7 O10 1.238 . S
C7 O11 1.241 . S
C8 O1 1.247 1_455 S
C8 O2 1.261 . S
C9 O4 1.259 . S
C9 O6 1.235 . S
O10 Co0 2.021 . S
O10 C7 1.238 . S
O11 Co5 2.052 . S
O11 C7 1.241 . S
O12 Co0 2.137 1_655 S
O12 C3 1.247 . S
O13 Co0 2.244 1_655 S
O13 C3 1.272 . S
O13 Co5 2.135 1_655 S
Co14 O15 2.216 1_545 S
Co14 O16 2.091 . S
Co14 O18 2.004 . S
Co14 O24 2.021 . S
Co14 O26 2.137 1_545 S
Co14 O27 2.244 1_545 S
O15 Co14 2.216 1_565 S
O15 C22 1.247 1_565 S
O16 Co14 2.091 . S
O16 C22 1.261 . S
C17 O26 1.247 . S
C17 O27 1.272 . S
O18 Co14 2.004 . S
O18 C23 1.259 . S
Co19 O20 2.061 . S
Co19 O25 2.052 . S
Co19 O27 2.135 1_545 S
O20 Co19 2.061 . S
O20 C23 1.235 . S
C21 O24 1.238 . S
C21 O25 1.241 . S
C22 O15 1.247 1_545 S
C22 O16 1.261 . S
C23 O18 1.259 . S
C23 O20 1.235 . S
O24 Co14 2.021 . S
O24 C21 1.238 . S
O25 Co19 2.052 . S
O25 C21 1.241 . S
O26 Co14 2.137 1_565 S
O26 C17 1.247 . S
O27 Co14 2.244 1_565 S
O27 C17 1.272 . S
O27 Co19 2.135 1_565 S
Co28 O29 2.216 . S
Co28 O30 2.091 . S
Co28 O32 2.004 . S
Co28 O38 2.021 . S
Co28 O40 2.137 . S
Co28 O41 2.244 . S
O29 Co28 2.216 . S
O29 C36 1.247 . S
O30 Co28 2.091 . S
O30 C36 1.261 . S
C31 O40 1.247 . S
C31 O41 1.272 . S
O32 Co28 2.004 . S
O32 C37 1.259 . S
Co33 O34 2.061 . S
Co33 O39 2.052 . S
Co33 O41 2.135 . S
O34 Co33 2.061 . S
O34 C37 1.235 . S
C35 O38 1.238 . S
C35 O39 1.241 . S
C36 O29 1.247 . S
C36 O30 1.261 . S
C37 O32 1.259 . S
C37 O34 1.235 . S
O38 Co28 2.021 . S
O38 C35 1.238 . S
O39 Co33 2.052 . S
O39 C35 1.241 . S
O40 Co28 2.137 . S
O40 C31 1.247 . S
O41 Co28 2.244 . S
O41 C31 1.272 . S
O41 Co33 2.135 . S
Co42 O43 2.216 . S
Co42 O44 2.091 . S
Co42 O46 2.004 . S
Co42 O52 2.021 . S
Co42 O54 2.137 . S
Co42 O55 2.244 . S
O43 Co42 2.216 . S
O43 C50 1.247 . S
O44 Co42 2.091 . S
O44 C50 1.261 . S
C45 O54 1.247 . S
C45 O55 1.272 . S
O46 Co42 2.004 . S
O46 C51 1.259 . S
Co47 O48 2.061 . S
Co47 O53 2.052 . S
Co47 O55 2.135 . S
O48 Co47 2.061 . S
O48 C51 1.235 . S
C49 O52 1.238 . S
C49 O53 1.241 . S
C50 O43 1.247 . S
C50 O44 1.261 . S
C51 O46 1.259 . S
C51 O48 1.235 . S
O52 Co42 2.021 . S
O52 C49 1.238 . S
O53 Co47 2.052 . S
O53 C49 1.241 . S
O54 Co42 2.137 . S
O54 C45 1.247 . S
O55 Co42 2.244 . S
O55 C45 1.272 . S
O55 Co47 2.135 . S
Co56 O57 2.216 1_455 S
Co56 O58 2.091 . S
Co56 O60 2.004 . S
Co56 O66 2.021 . S
Co56 O68 2.137 1_455 S
Co56 O69 2.244 1_455 S
O57 Co56 2.216 1_655 S
O57 C64 1.247 1_655 S
O58 Co56 2.091 . S
O58 C64 1.261 . S
C59 O68 1.247 . S
C59 O69 1.272 . S
O60 Co56 2.004 . S
O60 C65 1.259 . S
Co61 O62 2.061 . S
Co61 O67 2.052 . S
Co61 O69 2.135 1_455 S
O62 Co61 2.061 . S
O62 C65 1.235 . S
C63 O66 1.238 . S
C63 O67 1.241 . S
C64 O57 1.247 1_455 S
C64 O58 1.261 . S
C65 O60 1.259 . S
C65 O62 1.235 . S
O66 Co56 2.021 . S
O66 C63 1.238 . S
O67 Co61 2.052 . S
O67 C63 1.241 . S
O68 Co56 2.137 1_655 S
O68 C59 1.247 . S
O69 Co56 2.244 1_655 S
O69 C59 1.272 . S
O69 Co61 2.135 1_655 S
Co70 O71 2.216 1_545 S
Co70 O72 2.091 . S
Co70 O74 2.004 . S
Co70 O80 2.021 . S
Co70 O82 2.137 1_545 S
Co70 O83 2.244 1_545 S
O71 Co70 2.216 1_565 S
O71 C78 1.247 1_565 S
O72 Co70 2.091 . S
O72 C78 1.261 . S
C73 O82 1.247 . S
C73 O83 1.272 . S
O74 Co70 2.004 . S
O74 C79 1.259 . S
Co75 O76 2.061 . S
Co75 O81 2.052 . S
Co75 O83 2.135 1_545 S
O76 Co75 2.061 . S
O76 C79 1.235 . S
C77 O80 1.238 . S
C77 O81 1.241 . S
C78 O71 1.247 1_545 S
C78 O72 1.261 . S
C79 O74 1.259 . S
C79 O76 1.235 . S
O80 Co70 2.021 . S
O80 C77 1.238 . S
O81 Co75 2.052 . S
O81 C77 1.241 . S
O82 Co70 2.137 1_565 S
O82 C73 1.247 . S
O83 Co70 2.244 1_565 S
O83 C73 1.272 . S
O83 Co75 2.135 1_565 S
Co84 O85 2.216 . S
Co84 O86 2.091 . S
Co84 O88 2.004 . S
Co84 O94 2.021 . S
Co84 O96 2.137 . S
Co84 O97 2.244 . S
O85 Co84 2.216 . S
O85 C92 1.247 . S
O86 Co84 2.091 . S
O86 C92 1.261 . S
C87 O96 1.247 . S
C87 O97 1.272 . S
O88 Co84 2.004 . S
O88 C93 1.259 . S
Co89 O90 2.061 . S
Co89 O95 2.052 . S
Co89 O97 2.135 . S
O90 Co89 2.061 . S
O90 C93 1.235 . S
C91 O94 1.238 . S
C91 O95 1.241 . S
C92 O85 1.247 . S
C92 O86 1.261 . S
C93 O88 1.259 . S
C93 O90 1.235 . S
O94 Co84 2.021 . S
O94 C91 1.238 . S
O95 Co89 2.052 . S
O95 C91 1.241 . S
O96 Co84 2.137 . S
O96 C87 1.247 . S
O97 Co84 2.244 . S
O97 C87 1.272 . S
O97 Co89 2.135 . S
Co98 O99 2.216 . S
Co98 O100 2.091 . S
Co98 O102 2.004 . S
Co98 O108 2.021 . S
Co98 O110 2.137 . S
Co98 O111 2.244 . S
O99 Co98 2.216 . S
O99 C106 1.247 . S
O100 Co98 2.091 . S
O100 C106 1.261 . S
C101 O110 1.247 . S
C101 O111 1.272 . S
O102 Co98 2.004 . S
O102 C107 1.259 . S
Co103 O104 2.061 . S
Co103 O109 2.052 . S
Co103 O111 2.135 . S
O104 Co103 2.061 . S
O104 C107 1.235 . S
C105 O108 1.238 . S
C105 O109 1.241 . S
C106 O99 1.247 . S
C106 O100 1.261 . S
C107 O102 1.259 . S
C107 O104 1.235 . S
O108 Co98 2.021 . S
O108 C105 1.238 . S
O109 Co103 2.052 . S
O109 C105 1.241 . S
O110 Co98 2.137 . S
O110 C101 1.247 . S
O111 Co98 2.244 . S
O111 C101 1.272 . S
O111 Co103 2.135 . S
Co112 O113 2.216 1_655 S
Co112 O114 2.091 . S
Co112 O116 2.004 . S
Co112 O122 2.021 . S
Co112 O124 2.137 1_655 S
Co112 O125 2.244 1_655 S
O113 Co112 2.216 1_455 S
O113 C120 1.247 1_455 S
O114 Co112 2.091 . S
O114 C120 1.261 . S
C115 O124 1.247 . S
C115 O125 1.272 . S
O116 Co112 2.004 . S
O116 C121 1.259 . S
Co117 O118 2.061 . S
Co117 O123 2.052 . S
Co117 O125 2.135 1_655 S
O118 Co117 2.061 . S
O118 C121 1.235 . S
C119 O122 1.238 . S
C119 O123 1.241 . S
C120 O113 1.247 1_655 S
C120 O114 1.261 . S
C121 O116 1.259 . S
C121 O118 1.235 . S
O122 Co112 2.021 . S
O122 C119 1.238 . S
O123 Co117 2.052 . S
O123 C119 1.241 . S
O124 Co112 2.137 1_455 S
O124 C115 1.247 . S
O125 Co112 2.244 1_455 S
O125 C115 1.272 . S
O125 Co117 2.135 1_455 S
Co126 O127 2.216 1_565 S
Co126 O128 2.091 . S
Co126 O130 2.004 . S
Co126 O136 2.021 . S
Co126 O138 2.137 1_565 S
Co126 O139 2.244 1_565 S
O127 Co126 2.216 1_545 S
O127 C134 1.247 1_545 S
O128 Co126 2.091 . S
O128 C134 1.261 . S
C129 O138 1.247 . S
C129 O139 1.272 . S
O130 Co126 2.004 . S
O130 C135 1.259 . S
Co131 O132 2.061 . S
Co131 O137 2.052 . S
Co131 O139 2.135 1_565 S
O132 Co131 2.061 . S
O132 C135 1.235 . S
C133 O136 1.238 . S
C133 O137 1.241 . S
C134 O127 1.247 1_565 S
C134 O128 1.261 . S
C135 O130 1.259 . S
C135 O132 1.235 . S
O136 Co126 2.021 . S
O136 C133 1.238 . S
O137 Co131 2.052 . S
O137 C133 1.241 . S
O138 Co126 2.137 1_545 S
O138 C129 1.247 . S
O139 Co126 2.244 1_545 S
O139 C129 1.272 . S
O139 Co131 2.135 1_545 S
Co140 O141 2.216 . S
Co140 O142 2.091 . S
Co140 O144 2.004 . S
Co140 O150 2.021 . S
Co140 O152 2.137 . S
Co140 O153 2.244 . S
O141 Co140 2.216 . S
O141 C148 1.247 . S
O142 Co140 2.091 . S
O142 C148 1.261 . S
C143 O152 1.247 . S
C143 O153 1.272 . S
O144 Co140 2.004 . S
O144 C149 1.259 . S
Co145 O146 2.061 . S
Co145 O151 2.052 . S
Co145 O153 2.135 . S
O146 Co145 2.061 . S
O146 C149 1.235 . S
C147 O150 1.238 . S
C147 O151 1.241 . S
C148 O141 1.247 . S
C148 O142 1.261 . S
C149 O144 1.259 . S
C149 O146 1.235 . S
O150 Co140 2.021 . S
O150 C147 1.238 . S
O151 Co145 2.052 . S
O151 C147 1.241 . S
O152 Co140 2.137 . S
O152 C143 1.247 . S
O153 Co140 2.244 . S
O153 C143 1.272 . S
O153 Co145 2.135 . S
Co154 O155 2.216 . S
Co154 O156 2.091 . S
Co154 O158 2.004 . S
Co154 O164 2.021 . S
Co154 O166 2.137 . S
Co154 O167 2.244 . S
O155 Co154 2.216 . S
O155 C162 1.247 . S
O156 Co154 2.091 . S
O156 C162 1.261 . S
C157 O166 1.247 . S
C157 O167 1.272 . S
O158 Co154 2.004 . S
O158 C163 1.259 . S
Co159 O160 2.061 . S
Co159 O165 2.052 . S
Co159 O167 2.135 . S
O160 Co159 2.061 . S
O160 C163 1.235 . S
C161 O164 1.238 . S
C161 O165 1.241 . S
C162 O155 1.247 . S
C162 O156 1.261 . S
C163 O158 1.259 . S
C163 O160 1.235 . S
O164 Co154 2.021 . S
O164 C161 1.238 . S
O165 Co159 2.052 . S
O165 C161 1.241 . S
O166 Co154 2.137 . S
O166 C157 1.247 . S
O167 Co154 2.244 . S
O167 C157 1.272 . S
O167 Co159 2.135 . S
Co168 O169 2.216 1_655 S
Co168 O170 2.091 . S
Co168 O172 2.004 . S
Co168 O178 2.021 . S
Co168 O180 2.137 1_655 S
Co168 O181 2.244 1_655 S
O169 Co168 2.216 1_455 S
O169 C176 1.247 1_455 S
O170 Co168 2.091 . S
O170 C176 1.261 . S
C171 O180 1.247 . S
C171 O181 1.272 . S
O172 Co168 2.004 . S
O172 C177 1.259 . S
Co173 O174 2.061 . S
Co173 O179 2.052 . S
Co173 O181 2.135 1_655 S
O174 Co173 2.061 . S
O174 C177 1.235 . S
C175 O178 1.238 . S
C175 O179 1.241 . S
C176 O169 1.247 1_655 S
C176 O170 1.261 . S
C177 O172 1.259 . S
C177 O174 1.235 . S
O178 Co168 2.021 . S
O178 C175 1.238 . S
O179 Co173 2.052 . S
O179 C175 1.241 . S
O180 Co168 2.137 1_455 S
O180 C171 1.247 . S
O181 Co168 2.244 1_455 S
O181 C171 1.272 . S
O181 Co173 2.135 1_455 S
Co182 O183 2.216 1_565 S
Co182 O184 2.091 . S
Co182 O186 2.004 . S
Co182 O192 2.021 . S
Co182 O194 2.137 1_565 S
Co182 O195 2.244 1_565 S
O183 Co182 2.216 1_545 S
O183 C190 1.247 1_545 S
O184 Co182 2.091 . S
O184 C190 1.261 . S
C185 O194 1.247 . S
C185 O195 1.272 . S
O186 Co182 2.004 . S
O186 C191 1.259 . S
Co187 O188 2.061 . S
Co187 O193 2.052 . S
Co187 O195 2.135 1_565 S
O188 Co187 2.061 . S
O188 C191 1.235 . S
C189 O192 1.238 . S
C189 O193 1.241 . S
C190 O183 1.247 1_565 S
C190 O184 1.261 . S
C191 O186 1.259 . S
C191 O188 1.235 . S
O192 Co182 2.021 . S
O192 C189 1.238 . S
O193 Co187 2.052 . S
O193 C189 1.241 . S
O194 Co182 2.137 1_545 S
O194 C185 1.247 . S
O195 Co182 2.244 1_545 S
O195 C185 1.272 . S
O195 Co187 2.135 1_545 S
Co196 O197 2.216 . S
Co196 O198 2.091 . S
Co196 O200 2.004 . S
Co196 O206 2.021 . S
Co196 O208 2.137 . S
Co196 O209 2.244 . S
O197 Co196 2.216 . S
O197 C204 1.247 . S
O198 Co196 2.091 . S
O198 C204 1.261 . S
C199 O208 1.247 . S
C199 O209 1.272 . S
O200 Co196 2.004 . S
O200 C205 1.259 . S
Co201 O202 2.061 . S
Co201 O207 2.052 . S
Co201 O209 2.135 . S
O202 Co201 2.061 . S
O202 C205 1.235 . S
C203 O206 1.238 . S
C203 O207 1.241 . S
C204 O197 1.247 . S
C204 O198 1.261 . S
C205 O200 1.259 . S
C205 O202 1.235 . S
O206 Co196 2.021 . S
O206 C203 1.238 . S
O207 Co201 2.052 . S
O207 C203 1.241 . S
O208 Co196 2.137 . S
O208 C199 1.247 . S
O209 Co196 2.244 . S
O209 C199 1.272 . S
O209 Co201 2.135 . S
Co210 O211 2.216 . S
Co210 O212 2.091 . S
Co210 O214 2.004 . S
Co210 O220 2.021 . S
Co210 O222 2.137 . S
Co210 O223 2.244 . S
O211 Co210 2.216 . S
O211 C218 1.247 . S
O212 Co210 2.091 . S
O212 C218 1.261 . S
C213 O222 1.247 . S
C213 O223 1.272 . S
O214 Co210 2.004 . S
O214 C219 1.259 . S
Co215 O216 2.061 . S
Co215 O221 2.052 . S
Co215 O223 2.135 . S
O216 Co215 2.061 . S
O216 C219 1.235 . S
C217 O220 1.238 . S
C217 O221 1.241 . S
C218 O211 1.247 . S
C218 O212 1.261 . S
C219 O214 1.259 . S
C219 O216 1.235 . S
O220 Co210 2.021 . S
O220 C217 1.238 . S
O221 Co215 2.052 . S
O221 C217 1.241 . S
O222 Co210 2.137 . S
O222 C213 1.247 . S
O223 Co210 2.244 . S
O223 C213 1.272 . S
O223 Co215 2.135 . S
C224 C225 1.369 . S
C224 C226 1.419 . S
C224 H228 0.930 . S
C225 C224 1.369 . S
C225 C234 1.429 1_654 S
C226 C224 1.419 . S
C226 C227 1.363 1_554 S
C226 H229 0.929 . S
C227 C226 1.363 1_556 S
C227 C233 1.428 1_655 S
H228 C224 0.930 . S
H229 C226 0.929 . S
S230 N231 1.613 . S
S230 N232 1.610 . S
N231 S230 1.613 . S
N231 C234 1.350 . S
N232 S230 1.610 . S
N232 C233 1.351 . S
C233 C227 1.428 1_455 S
C233 N232 1.351 . S
C233 C234 1.434 . S
C234 C225 1.429 1_456 S
C234 N231 1.350 . S
C234 C233 1.434 . S
C235 C236 1.369 . S
C235 C237 1.419 . S
C235 H239 0.930 . S
C236 C235 1.369 . S
C236 C245 1.429 1_565 S
C237 C235 1.419 . S
C237 C238 1.363 . S
C237 H240 0.929 . S
C238 C237 1.363 . S
C238 C244 1.428 1_565 S
H239 C235 0.930 . S
H240 C237 0.929 . S
S241 N242 1.613 . S
S241 N243 1.610 . S
N242 S241 1.613 . S
N242 C245 1.350 . S
N243 S241 1.610 . S
N243 C244 1.351 . S
C244 C238 1.428 1_545 S
C244 N243 1.351 . S
C244 C245 1.434 . S
C245 C236 1.429 1_545 S
C245 N242 1.350 . S
C245 C244 1.434 . S
C246 C247 1.369 1_556 S
C246 C248 1.419 . S
C246 H250 0.930 . S
C247 C246 1.369 1_554 S
C247 C256 1.429 . S
C248 C246 1.419 . S
C248 C249 1.363 . S
C248 H251 0.929 . S
C249 C248 1.363 . S
C249 C255 1.428 1_556 S
H250 C246 0.930 . S
H251 C248 0.929 . S
S252 N253 1.613 . S
S252 N254 1.610 . S
N253 S252 1.613 . S
N253 C256 1.350 . S
N254 S252 1.610 . S
N254 C255 1.351 . S
C255 C249 1.428 1_554 S
C255 N254 1.351 . S
C255 C256 1.434 . S
C256 C247 1.429 . S
C256 N253 1.350 . S
C256 C255 1.434 . S
C257 C258 1.369 . S
C257 C259 1.419 . S
C257 H261 0.930 . S
C258 C257 1.369 . S
C258 C267 1.429 . S
C259 C257 1.419 . S
C259 C260 1.363 . S
C259 H262 0.929 . S
C260 C259 1.363 . S
C260 C266 1.428 . S
H261 C257 0.930 . S
H262 C259 0.929 . S
S263 N264 1.613 . S
S263 N265 1.610 . S
N264 S263 1.613 . S
N264 C267 1.350 . S
N265 S263 1.610 . S
N265 C266 1.351 . S
C266 C260 1.428 . S
C266 N265 1.351 . S
C266 C267 1.434 . S
C267 C258 1.429 . S
C267 N264 1.350 . S
C267 C266 1.434 . S
C268 C269 1.369 . S
C268 C270 1.419 1_556 S
C268 H272 0.930 . S
C269 C268 1.369 . S
C269 C278 1.429 1_455 S
C270 C268 1.419 1_554 S
C270 C271 1.363 . S
C270 H273 0.929 . S
C271 C270 1.363 . S
C271 C277 1.428 1_455 S
H272 C268 0.930 . S
H273 C270 0.929 . S
S274 N275 1.613 . S
S274 N276 1.610 1_556 S
N275 S274 1.613 . S
N275 C278 1.350 . S
N276 S274 1.610 1_554 S
N276 C277 1.351 . S
C277 C271 1.428 1_655 S
C277 N276 1.351 . S
C277 C278 1.434 1_554 S
C278 C269 1.429 1_655 S
C278 N275 1.350 . S
C278 C277 1.434 1_556 S
C279 C280 1.369 1_565 S
C279 C281 1.419 . S
C279 H283 0.930 . S
C280 C279 1.369 1_545 S
C280 C289 1.429 . S
C281 C279 1.419 . S
C281 C282 1.363 1_565 S
C281 H284 0.929 . S
C282 C281 1.363 1_545 S
C282 C288 1.428 . S
H283 C279 0.930 . S
H284 C281 0.929 . S
S285 N286 1.613 . S
S285 N287 1.610 . S
N286 S285 1.613 . S
N286 C289 1.350 . S
N287 S285 1.610 . S
N287 C288 1.351 . S
C288 C282 1.428 . S
C288 N287 1.351 . S
C288 C289 1.434 . S
C289 C280 1.429 . S
C289 N286 1.350 . S
C289 C288 1.434 . S
C290 C291 1.369 1_554 S
C290 C292 1.419 . S
C290 H294 0.930 . S
C291 C290 1.369 1_556 S
C291 C300 1.429 . S
C292 C290 1.419 . S
C292 C293 1.363 . S
C292 H295 0.929 . S
C293 C292 1.363 . S
C293 C299 1.428 1_554 S
H294 C290 0.930 . S
H295 C292 0.929 . S
S296 N297 1.613 . S
S296 N298 1.610 . S
N297 S296 1.613 . S
N297 C300 1.350 . S
N298 S296 1.610 . S
N298 C299 1.351 . S
C299 C293 1.428 1_556 S
C299 N298 1.351 . S
C299 C300 1.434 . S
C300 C291 1.429 . S
C300 N297 1.350 . S
C300 C299 1.434 . S
C301 C302 1.369 . S
C301 C303 1.419 . S
C301 H305 0.930 . S
C302 C301 1.369 . S
C302 C311 1.429 . S
C303 C301 1.419 . S
C303 C304 1.363 . S
C303 H306 0.929 . S
C304 C303 1.363 . S
C304 C310 1.428 . S
H305 C301 0.930 . S
H306 C303 0.929 . S
S307 N308 1.613 . S
S307 N309 1.610 . S
N308 S307 1.613 . S
N308 C311 1.350 . S
N309 S307 1.610 . S
N309 C310 1.351 . S
C310 C304 1.428 . S
C310 N309 1.351 . S
C310 C311 1.434 . S
C311 C302 1.429 . S
C311 N308 1.350 . S
C311 C310 1.434 . S
C312 C313 1.369 . S
C312 C314 1.419 . S
C312 H316 0.930 . S
C313 C312 1.369 . S
C313 C322 1.429 . S
C314 C312 1.419 . S
C314 C315 1.363 . S
C314 H317 0.929 . S
C315 C314 1.363 . S
C315 C321 1.428 . S
H316 C312 0.930 . S
H317 C314 0.929 . S
S318 N319 1.613 . S
S318 N320 1.610 . S
N319 S318 1.613 . S
N319 C322 1.350 . S
N320 S318 1.610 . S
N320 C321 1.351 . S
C321 C315 1.428 . S
C321 N320 1.351 . S
C321 C322 1.434 . S
C322 C313 1.429 . S
C322 N319 1.350 . S
C322 C321 1.434 . S
C323 C324 1.369 . S
C323 C325 1.419 . S
C323 H327 0.930 . S
C324 C323 1.369 . S
C324 C333 1.429 . S
C325 C323 1.419 . S
C325 C326 1.363 . S
C325 H328 0.929 . S
C326 C325 1.363 . S
C326 C332 1.428 . S
H327 C323 0.930 . S
H328 C325 0.929 . S
S329 N330 1.613 . S
S329 N331 1.610 . S
N330 S329 1.613 . S
N330 C333 1.350 . S
N331 S329 1.610 . S
N331 C332 1.351 . S
C332 C326 1.428 . S
C332 N331 1.351 . S
C332 C333 1.434 . S
C333 C324 1.429 . S
C333 N330 1.350 . S
C333 C332 1.434 . S
C334 C335 1.369 . S
C334 C336 1.419 . S
C334 H338 0.930 1_556 S
C335 C334 1.369 . S
C335 C344 1.429 . S
C336 C334 1.419 . S
C336 C337 1.363 . S
C336 H339 0.929 . S
C337 C336 1.363 . S
C337 C343 1.428 . S
H338 C334 0.930 1_554 S
H339 C336 0.929 . S
S340 N341 1.613 . S
S340 N342 1.610 . S
N341 S340 1.613 . S
N341 C344 1.350 . S
N342 S340 1.610 . S
N342 C343 1.351 . S
C343 C337 1.428 . S
C343 N342 1.351 . S
C343 C344 1.434 . S
C344 C335 1.429 . S
C344 N341 1.350 . S
C344 C343 1.434 . S
C345 C346 1.369 . S
C345 C347 1.419 . S
C345 H349 0.930 . S
C346 C345 1.369 . S
C346 C355 1.429 . S
C347 C345 1.419 . S
C347 C348 1.363 . S
C347 H350 0.929 . S
C348 C347 1.363 . S
C348 C354 1.428 . S
H349 C345 0.930 . S
H350 C347 0.929 . S
S351 N352 1.613 . S
S351 N353 1.610 . S
N352 S351 1.613 . S
N352 C355 1.350 . S
N353 S351 1.610 . S
N353 C354 1.351 . S
C354 C348 1.428 . S
C354 N353 1.351 . S
C354 C355 1.434 . S
C355 C346 1.429 . S
C355 N352 1.350 . S
C355 C354 1.434 . S
C356 C357 1.369 . S
C356 C358 1.419 . S
C356 H360 0.930 . S
C357 C356 1.369 . S
C357 C366 1.429 . S
C358 C356 1.419 . S
C358 C359 1.363 . S
C358 H361 0.929 1_554 S
C359 C358 1.363 . S
C359 C365 1.428 . S
H360 C356 0.930 . S
H361 C358 0.929 1_556 S
S362 N363 1.613 . S
S362 N364 1.610 . S
N363 S362 1.613 . S
N363 C366 1.350 . S
N364 S362 1.610 . S
N364 C365 1.351 . S
C365 C359 1.428 . S
C365 N364 1.351 . S
C365 C366 1.434 . S
C366 C357 1.429 . S
C366 N363 1.350 . S
C366 C365 1.434 . S
C367 C368 1.369 . S
C367 C369 1.419 . S
C367 H371 0.930 . S
C368 C367 1.369 . S
C368 C377 1.429 . S
C369 C367 1.419 . S
C369 C370 1.363 . S
C369 H372 0.929 . S
C370 C369 1.363 . S
C370 C376 1.428 . S
H371 C367 0.930 . S
H372 C369 0.929 . S
S373 N374 1.613 . S
S373 N375 1.610 . S
N374 S373 1.613 . S
N374 C377 1.350 . S
N375 S373 1.610 . S
N375 C376 1.351 . S
C376 C370 1.428 . S
C376 N375 1.351 . S
C376 C377 1.434 . S
C377 C368 1.429 . S
C377 N374 1.350 . S
C377 C376 1.434 . S
C378 C379 1.369 . S
C378 C380 1.419 . S
C378 H382 0.930 . S
C379 C378 1.369 . S
C379 C388 1.429 . S
C380 C378 1.419 . S
C380 C381 1.363 . S
C380 H383 0.929 . S
C381 C380 1.363 . S
C381 C387 1.428 . S
H382 C378 0.930 . S
H383 C380 0.929 . S
S384 N385 1.613 1_556 S
S384 N386 1.610 . S
N385 S384 1.613 1_554 S
N385 C388 1.350 . S
N386 S384 1.610 . S
N386 C387 1.351 1_556 S
C387 C381 1.428 . S
C387 N386 1.351 1_554 S
C387 C388 1.434 . S
C388 C379 1.429 . S
C388 N385 1.350 . S
C388 C387 1.434 . S
C389 C390 1.369 . S
C389 C391 1.419 . S
C389 H393 0.930 . S
C390 C389 1.369 . S
C390 C399 1.429 . S
C391 C389 1.419 . S
C391 C392 1.363 . S
C391 H394 0.929 . S
C392 C391 1.363 . S
C392 C398 1.428 . S
H393 C389 0.930 . S
H394 C391 0.929 . S
S395 N396 1.613 . S
S395 N397 1.610 . S
N396 S395 1.613 . S
N396 C399 1.350 . S
N397 S395 1.610 . S
N397 C398 1.351 . S
C398 C392 1.428 . S
C398 N397 1.351 . S
C398 C399 1.434 . S
C399 C390 1.429 . S
C399 N396 1.350 . S
C399 C398 1.434 . S
C400 C401 1.369 . S
C400 C402 1.419 . S
C400 H404 0.930 . S
C401 C400 1.369 . S
C401 C410 1.429 . S
C402 C400 1.419 . S
C402 C403 1.363 . S
C402 H405 0.929 . S
C403 C402 1.363 . S
C403 C409 1.428 . S
H404 C400 0.930 . S
H405 C402 0.929 . S
S406 N407 1.613 . S
S406 N408 1.610 . S
N407 S406 1.613 . S
N407 C410 1.350 . S
N408 S406 1.610 . S
N408 C409 1.351 . S
C409 C403 1.428 . S
C409 N408 1.351 . S
C409 C410 1.434 . S
C410 C401 1.429 . S
C410 N407 1.350 . S
C410 C409 1.434 . S
C411 C412 1.369 . S
C411 C413 1.419 . S
C411 H415 0.930 . S
C412 C411 1.369 . S
C412 C421 1.429 . S
C413 C411 1.419 . S
C413 C414 1.363 . S
C413 H416 0.929 . S
C414 C413 1.363 . S
C414 C420 1.428 . S
H415 C411 0.930 . S
H416 C413 0.929 . S
S417 N418 1.613 . S
S417 N419 1.610 . S
N418 S417 1.613 . S
N418 C421 1.350 . S
N419 S417 1.610 . S
N419 C420 1.351 . S
C420 C414 1.428 . S
C420 N419 1.351 . S
C420 C421 1.434 . S
C421 C412 1.429 . S
C421 N418 1.350 . S
C421 C420 1.434 . S
C422 C423 1.369 . S
C422 C424 1.419 . S
C422 H426 0.930 . S
C423 C422 1.369 . S
C423 C432 1.429 . S
C424 C422 1.419 . S
C424 C425 1.363 . S
C424 H427 0.929 . S
C425 C424 1.363 . S
C425 C431 1.428 . S
H426 C422 0.930 . S
H427 C424 0.929 . S
S428 N429 1.613 . S
S428 N430 1.610 . S
N429 S428 1.613 . S
N429 C432 1.350 . S
N430 S428 1.610 . S
N430 C431 1.351 . S
C431 C425 1.428 . S
C431 N430 1.351 . S
C431 C432 1.434 . S
C432 C423 1.429 . S
C432 N429 1.350 . S
C432 C431 1.434 . S
C433 C434 1.369 . S
C433 C435 1.419 . S
C433 H437 0.930 . S
C434 C433 1.369 . S
C434 C443 1.429 . S
C435 C433 1.419 . S
C435 C436 1.363 . S
C435 H438 0.929 . S
C436 C435 1.363 . S
C436 C442 1.428 . S
H437 C433 0.930 . S
H438 C435 0.929 . S
S439 N440 1.613 . S
S439 N441 1.610 . S
N440 S439 1.613 . S
N440 C443 1.350 . S
N441 S439 1.610 . S
N441 C442 1.351 . S
C442 C436 1.428 . S
C442 N441 1.351 . S
C442 C443 1.434 . S
C443 C434 1.429 . S
C443 N440 1.350 . S
C443 C442 1.434 . S
C444 C445 1.369 . S
C444 C446 1.419 . S
C444 H448 0.930 . S
C445 C444 1.369 . S
C445 C454 1.429 . S
C446 C444 1.419 . S
C446 C447 1.363 . S
C446 H449 0.929 . S
C447 C446 1.363 . S
C447 C453 1.428 . S
H448 C444 0.930 . S
H449 C446 0.929 . S
S450 N451 1.613 . S
S450 N452 1.610 . S
N451 S450 1.613 . S
N451 C454 1.350 . S
N452 S450 1.610 . S
N452 C453 1.351 . S
C453 C447 1.428 . S
C453 N452 1.351 . S
C453 C454 1.434 . S
C454 C445 1.429 . S
C454 N451 1.350 . S
C454 C453 1.434 . S
C455 C456 1.369 . S
C455 C457 1.419 . S
C455 H459 0.930 . S
C456 C455 1.369 . S
C456 C465 1.429 . S
C457 C455 1.419 . S
C457 C458 1.363 . S
C457 H460 0.929 . S
C458 C457 1.363 . S
C458 C464 1.428 . S
H459 C455 0.930 . S
H460 C457 0.929 . S
S461 N462 1.613 . S
S461 N463 1.610 . S
N462 S461 1.613 . S
N462 C465 1.350 . S
N463 S461 1.610 . S
N463 C464 1.351 . S
C464 C458 1.428 . S
C464 N463 1.351 . S
C464 C465 1.434 . S
C465 C456 1.429 . S
C465 N462 1.350 . S
C465 C464 1.434 . S
C466 C467 1.369 . S
C466 C468 1.419 . S
C466 H470 0.930 1_556 S
C467 C466 1.369 . S
C467 C476 1.429 . S
C468 C466 1.419 . S
C468 C469 1.363 . S
C468 H471 0.929 . S
C469 C468 1.363 . S
C469 C475 1.428 . S
H470 C466 0.930 1_554 S
H471 C468 0.929 . S
S472 N473 1.613 . S
S472 N474 1.610 . S
N473 S472 1.613 . S
N473 C476 1.350 . S
N474 S472 1.610 . S
N474 C475 1.351 . S
C475 C469 1.428 . S
C475 N474 1.351 . S
C475 C476 1.434 . S
C476 C467 1.429 . S
C476 N473 1.350 . S
C476 C475 1.434 . S
C477 C478 1.369 . S
C477 C479 1.419 . S
C477 H481 0.930 . S
C478 C477 1.369 . S
C478 C487 1.429 . S
C479 C477 1.419 . S
C479 C480 1.363 . S
C479 H482 0.929 . S
C480 C479 1.363 . S
C480 C486 1.428 . S
H481 C477 0.930 . S
H482 C479 0.929 . S
S483 N484 1.613 . S
S483 N485 1.610 . S
N484 S483 1.613 . S
N484 C487 1.350 . S
N485 S483 1.610 . S
N485 C486 1.351 . S
C486 C480 1.428 . S
C486 N485 1.351 . S
C486 C487 1.434 . S
C487 C478 1.429 . S
C487 N484 1.350 . S
C487 C486 1.434 . S
C488 C489 1.369 . S
C488 C490 1.419 . S
C488 H492 0.930 . S
C489 C488 1.369 . S
C489 C498 1.429 . S
C490 C488 1.419 . S
C490 C491 1.363 . S
C490 H493 0.929 . S
C491 C490 1.363 . S
C491 C497 1.428 . S
H492 C488 0.930 . S
H493 C490 0.929 . S
S494 N495 1.613 . S
S494 N496 1.610 . S
N495 S494 1.613 . S
N495 C498 1.350 . S
N496 S494 1.610 . S
N496 C497 1.351 . S
C497 C491 1.428 . S
C497 N496 1.351 . S
C497 C498 1.434 . S
C498 C489 1.429 . S
C498 N495 1.350 . S
C498 C497 1.434 . S
C499 C500 1.369 . S
C499 C501 1.419 . S
C499 H503 0.930 . S
C500 C499 1.369 . S
C500 C509 1.429 . S
C501 C499 1.419 . S
C501 C502 1.363 . S
C501 H504 0.929 . S
C502 C501 1.363 . S
C502 C508 1.428 . S
H503 C499 0.930 . S
H504 C501 0.929 . S
S505 N506 1.613 . S
S505 N507 1.610 . S
N506 S505 1.613 . S
N506 C509 1.350 . S
N507 S505 1.610 . S
N507 C508 1.351 . S
C508 C502 1.428 . S
C508 N507 1.351 . S
C508 C509 1.434 . S
C509 C500 1.429 . S
C509 N506 1.350 . S
C509 C508 1.434 . S
C510 C511 1.369 . S
C510 C512 1.419 . S
C510 H514 0.930 . S
C511 C510 1.369 . S
C511 C520 1.429 . S
C512 C510 1.419 . S
C512 C513 1.363 . S
C512 H515 0.929 . S
C513 C512 1.363 . S
C513 C519 1.428 . S
H514 C510 0.930 . S
H515 C512 0.929 . S
S516 N517 1.613 . S
S516 N518 1.610 . S
N517 S516 1.613 . S
N517 C520 1.350 . S
N518 S516 1.610 . S
N518 C519 1.351 . S
C519 C513 1.428 . S
C519 N518 1.351 . S
C519 C520 1.434 . S
C520 C511 1.429 . S
C520 N517 1.350 . S
C520 C519 1.434 . S
C521 C522 1.369 . S
C521 C523 1.419 . S
C521 H525 0.930 . S
C522 C521 1.369 . S
C522 C531 1.429 . S
C523 C521 1.419 . S
C523 C524 1.363 . S
C523 H526 0.929 . S
C524 C523 1.363 . S
C524 C530 1.428 . S
H525 C521 0.930 . S
H526 C523 0.929 . S
S527 N528 1.613 . S
S527 N529 1.610 . S
N528 S527 1.613 . S
N528 C531 1.350 . S
N529 S527 1.610 . S
N529 C530 1.351 . S
C530 C524 1.428 . S
C530 N529 1.351 . S
C530 C531 1.434 . S
C531 C522 1.429 . S
C531 N528 1.350 . S
C531 C530 1.434 . S
C532 C533 1.369 . S
C532 C534 1.419 . S
C532 H536 0.930 . S
C533 C532 1.369 . S
C533 C542 1.429 . S
C534 C532 1.419 . S
C534 C535 1.363 . S
C534 H537 0.929 . S
C535 C534 1.363 . S
C535 C541 1.428 . S
H536 C532 0.930 . S
H537 C534 0.929 . S
S538 N539 1.613 . S
S538 N540 1.610 . S
N539 S538 1.613 . S
N539 C542 1.350 . S
N540 S538 1.610 . S
N540 C541 1.351 . S
C541 C535 1.428 . S
C541 N540 1.351 . S
C541 C542 1.434 . S
C542 C533 1.429 . S
C542 N539 1.350 . S
C542 C541 1.434 . S
C543 C544 1.369 . S
C543 C545 1.419 . S
C543 H547 0.930 . S
C544 C543 1.369 . S
C544 C553 1.429 . S
C545 C543 1.419 . S
C545 C546 1.363 . S
C545 H548 0.929 . S
C546 C545 1.363 . S
C546 C552 1.428 . S
H547 C543 0.930 . S
H548 C545 0.929 . S
S549 N550 1.613 . S
S549 N551 1.610 . S
N550 S549 1.613 . S
N550 C553 1.350 . S
N551 S549 1.610 . S
N551 C552 1.351 . S
C552 C546 1.428 . S
C552 N551 1.351 . S
C552 C553 1.434 . S
C553 C544 1.429 . S
C553 N550 1.350 . S
C553 C552 1.434 . S
C554 C555 1.369 . S
C554 C556 1.419 . S
C554 H558 0.930 . S
C555 C554 1.369 . S
C555 C564 1.429 . S
C556 C554 1.419 . S
C556 C557 1.363 . S
C556 H559 0.929 . S
C557 C556 1.363 . S
C557 C563 1.428 . S
H558 C554 0.930 . S
H559 C556 0.929 . S
S560 N561 1.613 . S
S560 N562 1.610 . S
N561 S560 1.613 . S
N561 C564 1.350 . S
N562 S560 1.610 . S
N562 C563 1.351 . S
C563 C557 1.428 . S
C563 N562 1.351 . S
C563 C564 1.434 . S
C564 C555 1.429 . S
C564 N561 1.350 . S
C564 C563 1.434 . S
C565 C566 1.369 . S
C565 C567 1.419 . S
C565 H569 0.930 . S
C566 C565 1.369 . S
C566 C575 1.429 . S
C567 C565 1.419 . S
C567 C568 1.363 . S
C567 H570 0.929 . S
C568 C567 1.363 . S
C568 C574 1.428 . S
H569 C565 0.930 . S
H570 C567 0.929 . S
S571 N572 1.613 . S
S571 N573 1.610 . S
N572 S571 1.613 . S
N572 C575 1.350 . S
N573 S571 1.610 . S
N573 C574 1.351 . S
C574 C568 1.428 . S
C574 N573 1.351 . S
C574 C575 1.434 . S
C575 C566 1.429 . S
C575 N572 1.350 . S
C575 C574 1.434 . S
C225 C8 1.237 1_655 S
C227 C64 1.239 1_655 S
C236 C78 1.237 1_565 S
C238 C22 1.239 1_565 S
C247 C36 1.242 . S
C249 C92 1.239 . S
C258 C50 1.237 . S
C260 C106 1.240 . S
C269 C120 1.237 1_455 S
C271 C176 1.238 1_455 S
C280 C190 1.240 1_545 S
C282 C134 1.241 1_545 S
C291 C148 1.238 . S
C293 C204 1.238 . S
C302 C162 1.237 . S
C304 C218 1.239 . S
C313 C7 1.453 1_556 S
C315 C219 1.462 . S
C324 C177 1.466 . S
C326 C21 1.450 . S
C335 C35 1.450 1_556 S
C337 C191 1.460 . S
C346 C205 1.458 . S
C348 C49 1.447 . S
C357 C135 1.462 . S
C359 C63 1.452 1_554 S
C368 C149 1.465 . S
C370 C77 1.448 . S
C379 C163 1.464 . S
C381 C91 1.447 1_554 S
C390 C121 1.466 . S
C392 C105 1.451 . S
C401 C119 1.453 1_554 S
C403 C107 1.464 . S
C412 C65 1.466 . S
C414 C133 1.451 . S
C423 C79 1.459 . S
C425 C147 1.445 1_554 S
C434 C161 1.448 . S
C436 C93 1.464 . S
C445 C23 1.464 . S
C447 C175 1.452 1_556 S
C456 C189 1.447 . S
C458 C37 1.464 . S
C467 C203 1.453 1_556 S
C469 C51 1.462 . S
C478 C217 1.446 . S
C480 C9 1.459 . S
C489 C101 1.273 . S
C491 C3 1.272 . S
C500 C17 1.266 . S
C502 C59 1.267 . S
C511 C31 1.267 . S
C513 C73 1.267 . S
C522 C45 1.267 . S
C524 C87 1.267 . S
C533 C213 1.273 . S
C535 C115 1.273 . S
C544 C171 1.273 . S
C546 C129 1.272 . S
C555 C185 1.273 . S
C557 C143 1.273 . S
C566 C199 1.273 . S
C568 C157 1.272 . S
