# Generated by pormake.
# Topology umo, (4)-cn, num edge types: 1
# Building blocks:
#     Node 0, Type 0, BuildingBlock: KOZSID_clean_sbu_0, # of connection points: 4
#     Node 1, Type 0, BuildingBlock: KOZSID_clean_sbu_0, # of connection points: 4
#     Node 2, Type 0, BuildingBlock: KOZSID_clean_sbu_0, # of connection points: 4
#     Node 3, Type 0, BuildingBlock: KOZSID_clean_sbu_0, # of connection points: 4
#     Node 4, Type 0, BuildingBlock: KOZSID_clean_sbu_0, # of connection points: 4
#     Node 5, Type 0, BuildingBlock: KOZSID_clean_sbu_0, # of connection points: 4
#     Node 6, Type 0, BuildingBlock: KOZSID_clean_sbu_0, # of connection points: 4
#     Node 7, Type 0, BuildingBlock: KOZSID_clean_sbu_0, # of connection points: 4
#     Node 8, Type 0, BuildingBlock: KOZSID_clean_sbu_0, # of connection points: 4
#     Node 9, Type 0, BuildingBlock: KOZSID_clean_sbu_0, # of connection points: 4
#     Node 10, Type 0, BuildingBlock: KOZSID_clean_sbu_0, # of connection points: 4
#     Node 11, Type 0, BuildingBlock: KOZSID_clean_sbu_0, # of connection points: 4
#     Edge 12, Type (0, 0), BuildingBlock: ZUJKAS_clean_linker_0, # of connection points: 2
#     Edge 13, Type (0, 0), BuildingBlock: ZUJKAS_clean_linker_0, # of connection points: 2
#     Edge 14, Type (0, 0), BuildingBlock: ZUJKAS_clean_linker_0, # of connection points: 2
#     Edge 15, Type (0, 0), BuildingBlock: ZUJKAS_clean_linker_0, # of connection points: 2
#     Edge 16, Type (0, 0), BuildingBlock: ZUJKAS_clean_linker_0, # of connection points: 2
#     Edge 17, Type (0, 0), BuildingBlock: ZUJKAS_clean_linker_0, # of connection points: 2
#     Edge 18, Type (0, 0), BuildingBlock: ZUJKAS_clean_linker_0, # of connection points: 2
#     Edge 19, Type (0, 0), BuildingBlock: ZUJKAS_clean_linker_0, # of connection points: 2
#     Edge 20, Type (0, 0), BuildingBlock: ZUJKAS_clean_linker_0, # of connection points: 2
#     Edge 21, Type (0, 0), BuildingBlock: ZUJKAS_clean_linker_0, # of connection points: 2
#     Edge 22, Type (0, 0), BuildingBlock: ZUJKAS_clean_linker_0, # of connection points: 2
#     Edge 23, Type (0, 0), BuildingBlock: ZUJKAS_clean_linker_0, # of connection points: 2
#     Edge 24, Type (0, 0), BuildingBlock: ZUJKAS_clean_linker_0, # of connection points: 2
#     Edge 25, Type (0, 0), BuildingBlock: ZUJKAS_clean_linker_0, # of connection points: 2
#     Edge 26, Type (0, 0), BuildingBlock: ZUJKAS_clean_linker_0, # of connection points: 2
#     Edge 27, Type (0, 0), BuildingBlock: ZUJKAS_clean_linker_0, # of connection points: 2
#     Edge 28, Type (0, 0), BuildingBlock: ZUJKAS_clean_linker_0, # of connection points: 2
#     Edge 29, Type (0, 0), BuildingBlock: ZUJKAS_clean_linker_0, # of connection points: 2
#     Edge 30, Type (0, 0), BuildingBlock: ZUJKAS_clean_linker_0, # of connection points: 2
#     Edge 31, Type (0, 0), BuildingBlock: ZUJKAS_clean_linker_0, # of connection points: 2
#     Edge 32, Type (0, 0), BuildingBlock: ZUJKAS_clean_linker_0, # of connection points: 2
#     Edge 33, Type (0, 0), BuildingBlock: ZUJKAS_clean_linker_0, # of connection points: 2
#     Edge 34, Type (0, 0), BuildingBlock: ZUJKAS_clean_linker_0, # of connection points: 2
#     Edge 35, Type (0, 0), BuildingBlock: ZUJKAS_clean_linker_0, # of connection points: 2
# Relax obj value: 0.201
# Max RMSD: 0.253
# Mean RMSD: 0.253
data_MOF--net-umo--node1-KOZSID_clean_sbu_0--edge1-ZUJKAS_clean_linker_0
_symmetry_space_group_name_H-M    P1
_symmetry_Int_Tables_number       1
_symmetry_cell_setting            triclinic
loop_
_symmetry_equiv_pos_as_xyz
'x, y, z'
_cell_length_a     79.929293
_cell_length_b     79.963989
_cell_length_c     50.123337
_cell_angle_alpha  90.005842
_cell_angle_beta   89.99727
_cell_angle_gamma 120.08945
loop_
_atom_site_label
_atom_site_type_symbol
_atom_site_fract_x
_atom_site_fract_y
_atom_site_fract_z
_atom_type_partial_charge
C0 C 0.19535 0.5266 0.35304 0.0
C1 C 0.19854 0.51107 0.35216 0.0
C2 C 0.1895 0.49987 0.37416 0.0
C3 C 0.18141 0.50919 0.38727 0.0
N4 N 0.18482 0.52548 0.37476 0.0
Co5 Co 0.17678 0.54384 0.38705 0.0
N6 N 0.17396 0.53452 0.42414 0.0
C7 C 0.17161 0.51735 0.43183 0.0
C8 C 0.16978 0.51484 0.459 0.0
C9 C 0.17094 0.53142 0.46885 0.0
C10 C 0.17345 0.54317 0.44704 0.0
N11 N 0.16862 0.56217 0.3993 0.0
C12 C 0.16846 0.56849 0.42432 0.0
C13 C 0.16154 0.58131 0.42412 0.0
C14 C 0.1571 0.58281 0.39801 0.0
C15 C 0.16156 0.57088 0.3837 0.0
N16 N 0.17971 0.55302 0.34986 0.0
C17 C 0.17158 0.56263 0.33908 0.0
C18 C 0.17725 0.56783 0.31301 0.0
C19 C 0.18969 0.56105 0.30734 0.0
C20 C 0.19093 0.55213 0.33034 0.0
N21 N 0.14949 0.52454 0.38004 0.0
C22 C 0.10993 0.49999 0.36814 0.0
C23 C 0.12447 0.50211 0.35031 0.0
C24 C 0.14407 0.51437 0.35663 0.0
C25 C 0.11585 0.51008 0.39241 0.0
C26 C 0.13553 0.5221 0.39798 0.0
N27 N 0.20382 0.56337 0.39382 0.0
C28 C 0.22976 0.59612 0.38827 0.0
C29 C 0.24271 0.59186 0.40115 0.0
C30 C 0.23564 0.57299 0.41076 0.0
C31 C 0.21615 0.55892 0.40678 0.0
C32 C 0.21051 0.58181 0.38491 0.0
H33 H 0.21106 0.54444 0.41398 0.0
H34 H 0.20105 0.58571 0.37488 0.0
H35 H 0.15485 0.51595 0.3423 0.0
H36 H 0.13939 0.52987 0.41662 0.0
C37 C 0.17462 0.50573 0.41366 0.0
C38 C 0.20196 0.54204 0.33302 0.0
C39 C 0.17369 0.56163 0.44843 0.0
C40 C 0.16271 0.57016 0.35568 0.0
H41 H 0.20673 0.50823 0.3375 0.0
H42 H 0.18987 0.48715 0.38064 0.0
H43 H 0.16849 0.50275 0.4704 0.0
H44 H 0.16988 0.53443 0.48964 0.0
H45 H 0.15985 0.58876 0.44102 0.0
H46 H 0.152 0.5921 0.3903 0.0
H47 H 0.17372 0.57649 0.30015 0.0
H48 H 0.1971 0.56262 0.28863 0.0
H49 H 0.12079 0.49441 0.33151 0.0
H50 H 0.10538 0.50926 0.40682 0.0
H51 H 0.23438 0.61056 0.38102 0.0
H52 H 0.24514 0.56904 0.42085 0.0
C53 C 0.67336 0.19344 0.51863 0.0
C54 C 0.69212 0.19681 0.51698 0.0
C55 C 0.69478 0.18799 0.53884 0.0
C56 C 0.67753 0.17973 0.55249 0.0
N57 N 0.66431 0.18283 0.54042 0.0
Co58 Co 0.63792 0.17433 0.55319 0.0
N59 N 0.645 0.17193 0.59012 0.0
C60 C 0.66014 0.16999 0.59747 0.0
C61 C 0.66116 0.16834 0.62463 0.0
C62 C 0.64565 0.16919 0.63482 0.0
C63 C 0.636 0.17133 0.61322 0.0
N64 N 0.61144 0.16572 0.56598 0.0
C65 C 0.60515 0.16552 0.59113 0.0
C66 C 0.58532 0.15818 0.59136 0.0
C67 C 0.57913 0.15354 0.56536 0.0
C68 C 0.59546 0.15829 0.5507 0.0
N69 N 0.63115 0.17685 0.51608 0.0
C70 C 0.61325 0.16838 0.50569 0.0
C71 C 0.61332 0.17394 0.47967 0.0
C72 C 0.63243 0.18666 0.47361 0.0
C73 C 0.64298 0.18812 0.49632 0.0
N74 N 0.63034 0.14715 0.54635 0.0
C75 C 0.61557 0.10765 0.53453 0.0
C76 C 0.62772 0.1222 0.51651 0.0
C77 C 0.63494 0.14177 0.52279 0.0
C78 C 0.61162 0.11354 0.55898 0.0
C79 C 0.61915 0.13319 0.5645 0.0
N80 N 0.64502 0.20126 0.55977 0.0
C81 C 0.63762 0.22672 0.55398 0.0
C82 C 0.65502 0.24007 0.56616 0.0
C83 C 0.6672 0.23343 0.57567 0.0
C84 C 0.66196 0.21396 0.57217 0.0
C85 C 0.6329 0.20753 0.55108 0.0
H86 H 0.67165 0.20921 0.57921 0.0
H87 H 0.61941 0.19778 0.54148 0.0
H88 H 0.64392 0.15257 0.5083 0.0
H89 H 0.61539 0.13702 0.58327 0.0
C90 C 0.67463 0.1731 0.57896 0.0
C91 C 0.66414 0.19975 0.49893 0.0
C92 C 0.61755 0.1711 0.61499 0.0
C93 C 0.59703 0.15934 0.52265 0.0
H94 H 0.70275 0.20494 0.50178 0.0
H95 H 0.70806 0.18855 0.54483 0.0
H96 H 0.67223 0.16735 0.63579 0.0
H97 H 0.64178 0.16815 0.65569 0.0
H98 H 0.5763 0.15635 0.60847 0.0
H99 H 0.56458 0.1481 0.55796 0.0
H100 H 0.60091 0.17021 0.46713 0.0
H101 H 0.63789 0.19417 0.45488 0.0
H102 H 0.63158 0.11856 0.49757 0.0
H103 H 0.60219 0.10304 0.57355 0.0
H104 H 0.62754 0.23103 0.54685 0.0
H105 H 0.6808 0.24325 0.58523 0.0
C106 C 0.4857 0.671 0.68657 0.0
C107 C 0.50113 0.68982 0.68577 0.0
C108 C 0.51238 0.69204 0.70772 0.0
C109 C 0.50319 0.67455 0.72071 0.0
N110 N 0.48694 0.66158 0.70817 0.0
Co111 Co 0.46881 0.63499 0.7202 0.0
N112 N 0.47816 0.64141 0.75729 0.0
C113 C 0.49526 0.65636 0.76506 0.0
C114 C 0.4978 0.65692 0.79222 0.0
C115 C 0.4813 0.64129 0.80197 0.0
C116 C 0.46957 0.63207 0.78012 0.0
N117 N 0.45075 0.60833 0.73222 0.0
C118 C 0.44445 0.60167 0.75718 0.0
C119 C 0.43179 0.58187 0.75682 0.0
C120 C 0.43037 0.57608 0.73063 0.0
C121 C 0.44218 0.5926 0.71646 0.0
N122 N 0.4596 0.62884 0.68301 0.0
C123 C 0.45016 0.61113 0.67204 0.0
C124 C 0.44492 0.61166 0.64601 0.0
C125 C 0.45151 0.63087 0.64056 0.0
C126 C 0.46036 0.641 0.66363 0.0
N127 N 0.48835 0.62742 0.71289 0.0
C128 C 0.51306 0.61275 0.70047 0.0
C129 C 0.51088 0.62526 0.68291 0.0
C130 C 0.49852 0.6324 0.68947 0.0
C131 C 0.50296 0.60834 0.72475 0.0
C132 C 0.4909 0.61586 0.7306 0.0
N133 N 0.44901 0.64203 0.72733 0.0
C134 C 0.41578 0.63396 0.72362 0.0
C135 C 0.4197 0.65087 0.73713 0.0
C136 C 0.43881 0.66348 0.74533 0.0
C137 C 0.45325 0.65874 0.74035 0.0
C138 C 0.43051 0.62985 0.71896 0.0
H139 H 0.4678 0.66851 0.74707 0.0
H140 H 0.42684 0.61671 0.70847 0.0
H141 H 0.49686 0.64165 0.67531 0.0
H142 H 0.48315 0.61178 0.74926 0.0
C143 C 0.50676 0.67115 0.74701 0.0
C144 C 0.47029 0.66212 0.66652 0.0
C145 C 0.45118 0.6137 0.78139 0.0
C146 C 0.44284 0.59463 0.68846 0.0
H147 H 0.50387 0.70087 0.67118 0.0
H148 H 0.52506 0.70519 0.71425 0.0
H149 H 0.50984 0.66776 0.80368 0.0
H150 H 0.47833 0.63709 0.82273 0.0
H151 H 0.42438 0.5726 0.77363 0.0
H152 H 0.42118 0.56168 0.72279 0.0
H153 H 0.43637 0.59948 0.63303 0.0
H154 H 0.44988 0.63675 0.62193 0.0
H155 H 0.51859 0.62949 0.66413 0.0
H156 H 0.5038 0.5986 0.73897 0.0
H157 H 0.40138 0.62397 0.71638 0.0
H158 H 0.44251 0.6767 0.7559 0.0
C159 C 0.82019 0.48442 0.85289 0.0
C160 C 0.81699 0.49995 0.85227 0.0
C161 C 0.82593 0.51096 0.87444 0.0
C162 C 0.83397 0.50154 0.88741 0.0
N163 N 0.83061 0.48536 0.87465 0.0
Co164 Co 0.83854 0.46686 0.88672 0.0
N165 N 0.8412 0.47592 0.92395 0.0
C166 C 0.84355 0.49305 0.93186 0.0
C167 C 0.84527 0.49537 0.95907 0.0
C168 C 0.84403 0.47871 0.96871 0.0
C169 C 0.84159 0.4671 0.94674 0.0
N170 N 0.84656 0.44839 0.89876 0.0
C171 C 0.84663 0.4419 0.9237 0.0
C172 C 0.8535 0.42905 0.92335 0.0
C173 C 0.85803 0.42771 0.89722 0.0
C174 C 0.85365 0.43975 0.88306 0.0
N175 N 0.83578 0.45796 0.8494 0.0
C176 C 0.84395 0.44842 0.83851 0.0
C177 C 0.83844 0.44345 0.81234 0.0
C178 C 0.82607 0.45031 0.80672 0.0
C179 C 0.8247 0.45905 0.82984 0.0
N180 N 0.86588 0.48615 0.88004 0.0
C181 C 0.90551 0.51016 0.86831 0.0
C182 C 0.89115 0.50827 0.85035 0.0
C183 C 0.87149 0.49628 0.8566 0.0
C184 C 0.89942 0.50035 0.89274 0.0
C185 C 0.8797 0.48852 0.89819 0.0
N186 N 0.81145 0.44732 0.89318 0.0
C187 C 0.78535 0.41477 0.88652 0.0
C188 C 0.77257 0.41888 0.90014 0.0
C189 C 0.77972 0.4375 0.91067 0.0
C190 C 0.79921 0.4516 0.90674 0.0
C191 C 0.80465 0.42904 0.88351 0.0
H192 H 0.80437 0.46596 0.91449 0.0
H193 H 0.81406 0.42524 0.87311 0.0
H194 H 0.86081 0.49476 0.84212 0.0
H195 H 0.87569 0.48088 0.91692 0.0
C196 C 0.84064 0.5048 0.91385 0.0
C197 C 0.81369 0.46916 0.83259 0.0
C198 C 0.84134 0.44863 0.9479 0.0
C199 C 0.85268 0.44071 0.85505 0.0
H200 H 0.80885 0.50292 0.8377 0.0
H201 H 0.82553 0.52363 0.88113 0.0
H202 H 0.84654 0.50739 0.97062 0.0
H203 H 0.84501 0.47556 0.98946 0.0
H204 H 0.85512 0.42148 0.94016 0.0
H205 H 0.86315 0.41846 0.88941 0.0
H206 H 0.84202 0.43488 0.79938 0.0
H207 H 0.81879 0.44893 0.78795 0.0
H208 H 0.895 0.51546 0.83118 0.0
H209 H 0.90981 0.50164 0.90764 0.0
H210 H 0.78052 0.40049 0.87847 0.0
H211 H 0.77027 0.44123 0.92138 0.0
C212 C 0.34258 0.81719 0.01956 0.0
C213 C 0.32383 0.81387 0.01803 0.0
C214 C 0.32134 0.82293 0.03974 0.0
C215 C 0.33867 0.83126 0.0532 0.0
N216 N 0.35177 0.82798 0.04116 0.0
Co217 Co 0.37824 0.8366 0.05368 0.0
N218 N 0.37142 0.83942 0.09056 0.0
C219 C 0.35638 0.84152 0.09792 0.0
C220 C 0.35554 0.84347 0.12505 0.0
C221 C 0.37108 0.84264 0.1352 0.0
C222 C 0.38053 0.84018 0.11361 0.0
N223 N 0.4048 0.84534 0.06624 0.0
C224 C 0.41121 0.84568 0.09136 0.0
C225 C 0.43102 0.85286 0.09138 0.0
C226 C 0.43708 0.8573 0.0653 0.0
C227 C 0.42069 0.85256 0.05078 0.0
N228 N 0.38477 0.83365 0.01662 0.0
C229 C 0.4026 0.84199 0.00602 0.0
C230 C 0.40236 0.83619 0.98008 0.0
C231 C 0.3832 0.82346 0.97429 0.0
C232 C 0.3728 0.82222 0.99706 0.0
N233 N 0.38581 0.86371 0.04631 0.0
C234 C 0.40048 0.90312 0.03398 0.0
C235 C 0.3883 0.88844 0.01614 0.0
C236 C 0.38112 0.86891 0.02267 0.0
C237 C 0.40456 0.89742 0.05847 0.0
C238 C 0.39708 0.87782 0.06425 0.0
N239 N 0.3712 0.80976 0.06091 0.0
C240 C 0.37937 0.78466 0.05772 0.0
C241 C 0.36239 0.77165 0.07111 0.0
C242 C 0.34968 0.77809 0.07895 0.0
C243 C 0.35441 0.79724 0.07376 0.0
C244 C 0.38347 0.80349 0.05285 0.0
H245 H 0.34456 0.80197 0.08021 0.0
H246 H 0.39669 0.81301 0.04251 0.0
H247 H 0.37209 0.858 0.00834 0.0
H248 H 0.40094 0.87414 0.08305 0.0
C249 C 0.34176 0.83822 0.07952 0.0
C250 C 0.35165 0.81069 0.99988 0.0
C251 C 0.39892 0.84027 0.11532 0.0
C252 C 0.41893 0.85119 0.02276 0.0
H253 H 0.3131 0.80564 0.00298 0.0
H254 H 0.30813 0.82251 0.04576 0.0
H255 H 0.34459 0.84464 0.13622 0.0
H256 H 0.37509 0.84389 0.15604 0.0
H257 H 0.44013 0.8547 0.10838 0.0
H258 H 0.45155 0.86253 0.05775 0.0
H259 H 0.41469 0.8398 0.96744 0.0
H260 H 0.37763 0.81581 0.95568 0.0
H261 H 0.38436 0.89195 0.99716 0.0
H262 H 0.41404 0.90801 0.07291 0.0
H263 H 0.38944 0.78031 0.05075 0.0
H264 H 0.3364 0.76855 0.08943 0.0
C265 C 0.53031 0.34017 0.18501 0.0
C266 C 0.51484 0.32142 0.18355 0.0
C267 C 0.50337 0.31893 0.20538 0.0
C268 C 0.51247 0.33626 0.21884 0.0
N269 N 0.52883 0.34936 0.20667 0.0
Co270 Co 0.54683 0.37581 0.21916 0.0
N271 N 0.53734 0.36898 0.25613 0.0
C272 C 0.52021 0.35392 0.26361 0.0
C273 C 0.51756 0.35307 0.29076 0.0
C274 C 0.53399 0.36861 0.30082 0.0
C275 C 0.54581 0.3781 0.27914 0.0
N276 N 0.56479 0.40236 0.23167 0.0
C277 C 0.57094 0.40879 0.25677 0.0
C278 C 0.58354 0.4286 0.25677 0.0
C279 C 0.58508 0.43464 0.23069 0.0
C280 C 0.57339 0.41823 0.21621 0.0
N281 N 0.55616 0.38233 0.18203 0.0
C282 C 0.56565 0.40015 0.17142 0.0
C283 C 0.57109 0.3999 0.14543 0.0
C284 C 0.5646 0.38075 0.13961 0.0
C285 C 0.55551 0.37037 0.16243 0.0
N286 N 0.52728 0.38343 0.21208 0.0
C287 C 0.50322 0.3988 0.19981 0.0
C288 C 0.50523 0.38633 0.18201 0.0
C289 C 0.51732 0.37884 0.18849 0.0
C290 C 0.51286 0.40259 0.22436 0.0
C291 C 0.52465 0.39475 0.23013 0.0
N292 N 0.56664 0.36875 0.2261 0.0
C293 C 0.59992 0.37694 0.22257 0.0
C294 C 0.59595 0.3599 0.23573 0.0
C295 C 0.57681 0.34716 0.24365 0.0
C296 C 0.56237 0.35192 0.23877 0.0
C297 C 0.58518 0.38105 0.21797 0.0
H298 H 0.54779 0.34205 0.24528 0.0
H299 H 0.58887 0.3943 0.20775 0.0
H300 H 0.51906 0.36979 0.17407 0.0
H301 H 0.53211 0.39839 0.249 0.0
C302 C 0.50876 0.33933 0.24524 0.0
C303 C 0.54585 0.34923 0.16524 0.0
C304 C 0.56412 0.39653 0.28075 0.0
C305 C 0.57287 0.41648 0.18818 0.0
H306 H 0.51226 0.31069 0.16849 0.0
H307 H 0.4906 0.30571 0.21149 0.0
H308 H 0.50547 0.3421 0.30201 0.0
H309 H 0.53686 0.37261 0.32165 0.0
H310 H 0.59082 0.43772 0.27377 0.0
H311 H 0.59426 0.44912 0.22313 0.0
H312 H 0.57979 0.41222 0.13274 0.0
H313 H 0.56657 0.37516 0.12095 0.0
H314 H 0.49809 0.38293 0.16278 0.0
H315 H 0.51146 0.41174 0.23907 0.0
H316 H 0.61436 0.38704 0.21555 0.0
H317 H 0.57308 0.33383 0.25394 0.0
C318 C 0.48577 0.81736 0.48513 0.0
C319 C 0.50118 0.81399 0.48604 0.0
C320 C 0.51242 0.82291 0.46403 0.0
C321 C 0.50323 0.83113 0.45088 0.0
N322 N 0.48699 0.82789 0.46337 0.0
Co323 Co 0.46885 0.83623 0.45108 0.0
N324 N 0.4782 0.83898 0.41399 0.0
C325 C 0.49527 0.84105 0.4063 0.0
C326 C 0.49778 0.84281 0.37913 0.0
C327 C 0.48131 0.8419 0.36927 0.0
C328 C 0.46963 0.83961 0.39108 0.0
N329 N 0.45081 0.84475 0.43881 0.0
C330 C 0.44459 0.84508 0.41379 0.0
C331 C 0.43206 0.85234 0.41395 0.0
C332 C 0.4306 0.85679 0.44008 0.0
C333 C 0.44228 0.85201 0.45442 0.0
N334 N 0.45961 0.83331 0.48823 0.0
C335 C 0.45015 0.84161 0.49901 0.0
C336 C 0.44489 0.83596 0.52507 0.0
C337 C 0.45147 0.82337 0.53075 0.0
C338 C 0.46035 0.82202 0.50777 0.0
N339 N 0.48837 0.86343 0.45817 0.0
C340 C 0.51237 0.90291 0.47055 0.0
C341 C 0.5104 0.88842 0.4883 0.0
C342 C 0.49835 0.86882 0.48175 0.0
C343 C 0.50273 0.89706 0.44599 0.0
C344 C 0.49096 0.87741 0.44018 0.0
N345 N 0.44906 0.80932 0.44414 0.0
C346 C 0.41576 0.78419 0.44762 0.0
C347 C 0.41968 0.77116 0.43429 0.0
C348 C 0.43882 0.77757 0.42638 0.0
C349 C 0.45329 0.79677 0.43137 0.0
C350 C 0.43053 0.80304 0.45233 0.0
H351 H 0.46787 0.80151 0.42481 0.0
H352 H 0.42687 0.81257 0.46265 0.0
H353 H 0.49664 0.85801 0.49613 0.0
H354 H 0.48348 0.87358 0.42132 0.0
C355 C 0.50676 0.83788 0.42449 0.0
C356 C 0.47035 0.81089 0.50516 0.0
C357 C 0.45133 0.8397 0.38969 0.0
C358 C 0.44289 0.85074 0.48243 0.0
H359 H 0.50393 0.80574 0.50072 0.0
H360 H 0.52508 0.8224 0.45757 0.0
H361 H 0.50979 0.8439 0.36774 0.0
H362 H 0.47833 0.84297 0.34847 0.0
H363 H 0.42479 0.85425 0.39701 0.0
H364 H 0.42148 0.8621 0.44777 0.0
H365 H 0.43634 0.83964 0.53794 0.0
H366 H 0.44984 0.81596 0.54947 0.0
H367 H 0.51753 0.89215 0.50752 0.0
H368 H 0.5041 0.90762 0.43132 0.0
H369 H 0.40132 0.77983 0.45461 0.0
H370 H 0.4425 0.76798 0.41598 0.0
C371 C 0.67332 0.48275 0.65131 0.0
C372 C 0.69208 0.49823 0.65262 0.0
C373 C 0.69451 0.50962 0.63074 0.0
C374 C 0.67717 0.50045 0.61733 0.0
N375 N 0.66411 0.4841 0.62955 0.0
Co376 Co 0.63767 0.46595 0.61699 0.0
N377 N 0.64447 0.47549 0.58004 0.0
C378 C 0.65946 0.49267 0.57259 0.0
C379 C 0.66031 0.49536 0.54545 0.0
C380 C 0.64482 0.47889 0.53536 0.0
C381 C 0.63537 0.46703 0.55701 0.0
N382 N 0.61117 0.44783 0.60443 0.0
C383 C 0.60478 0.44167 0.57932 0.0
C384 C 0.58498 0.42893 0.57929 0.0
C385 C 0.57891 0.42732 0.60536 0.0
C386 C 0.59527 0.4391 0.61987 0.0
N387 N 0.63115 0.45659 0.65408 0.0
C388 C 0.61333 0.44702 0.66468 0.0
C389 C 0.61361 0.44166 0.69072 0.0
C390 C 0.6328 0.44829 0.69655 0.0
C391 C 0.64313 0.4573 0.67368 0.0
N392 N 0.62989 0.48535 0.62411 0.0
C393 C 0.61499 0.5099 0.63635 0.0
C394 C 0.62754 0.50781 0.65397 0.0
C395 C 0.63477 0.49551 0.64753 0.0
C396 C 0.6107 0.4998 0.61207 0.0
C397 C 0.61834 0.48784 0.60629 0.0
N398 N 0.64497 0.44631 0.61013 0.0
C399 C 0.63776 0.41345 0.61542 0.0
C400 C 0.65509 0.41767 0.60286 0.0
C401 C 0.66714 0.43659 0.59352 0.0
C402 C 0.66185 0.45072 0.59744 0.0
C403 C 0.63299 0.42784 0.61877 0.0
H404 H 0.67143 0.46524 0.59045 0.0
H405 H 0.61956 0.42398 0.62861 0.0
H406 H 0.64399 0.49389 0.66177 0.0
H407 H 0.61439 0.48012 0.58761 0.0
C408 C 0.67405 0.50412 0.59095 0.0
C409 C 0.66428 0.46719 0.67107 0.0
C410 C 0.61704 0.44864 0.55534 0.0
C411 C 0.597 0.43965 0.64791 0.0
H412 H 0.70292 0.5009 0.66755 0.0
H413 H 0.70771 0.52238 0.62454 0.0
H414 H 0.67124 0.50749 0.53422 0.0
H415 H 0.64084 0.47604 0.51452 0.0
H416 H 0.5759 0.42161 0.56228 0.0
H417 H 0.56443 0.41804 0.61291 0.0
H418 H 0.60131 0.43297 0.70344 0.0
H419 H 0.63851 0.44655 0.71526 0.0
H420 H 0.63174 0.51553 0.67274 0.0
H421 H 0.60094 0.50056 0.59778 0.0
H422 H 0.62774 0.39899 0.62243 0.0
H423 H 0.68069 0.44052 0.58368 0.0
C424 C 0.19642 0.67111 0.81863 0.0
C425 C 0.19982 0.68988 0.82026 0.0
C426 C 0.19088 0.6925 0.79851 0.0
C427 C 0.18253 0.67522 0.78493 0.0
N428 N 0.18569 0.66203 0.79694 0.0
Co429 Co 0.17703 0.63559 0.78425 0.0
N430 N 0.17438 0.64258 0.74736 0.0
C431 C 0.17244 0.65772 0.74005 0.0
C432 C 0.17063 0.65867 0.71292 0.0
C433 C 0.17138 0.64312 0.7027 0.0
C434 C 0.17364 0.63352 0.72427 0.0
N435 N 0.1682 0.60906 0.77155 0.0
C436 C 0.16781 0.60269 0.7464 0.0
C437 C 0.16044 0.58286 0.74625 0.0
C438 C 0.15595 0.57675 0.77231 0.0
C439 C 0.16083 0.59313 0.78692 0.0
N440 N 0.17984 0.62892 0.82129 0.0
C441 C 0.1714 0.61106 0.83179 0.0
C442 C 0.17709 0.6112 0.85775 0.0
C443 C 0.18988 0.63032 0.86367 0.0
C444 C 0.19124 0.64079 0.84094 0.0
N445 N 0.1499 0.62809 0.7915 0.0
C446 C 0.11042 0.61272 0.80397 0.0
C447 C 0.125 0.6248 0.822 0.0
C448 C 0.14458 0.63236 0.81536 0.0
C449 C 0.11625 0.60937 0.77908 0.0
C450 C 0.13588 0.61712 0.77328 0.0
N451 N 0.20386 0.64255 0.77715 0.0
C452 C 0.22885 0.63424 0.78047 0.0
C453 C 0.24195 0.65118 0.76708 0.0
C454 C 0.23561 0.66395 0.7592 0.0
C455 C 0.21647 0.65933 0.76435 0.0
C456 C 0.21003 0.63021 0.78523 0.0
H457 H 0.21182 0.66923 0.75789 0.0
H458 H 0.20044 0.617 0.79552 0.0
H459 H 0.15543 0.64117 0.8299 0.0
H460 H 0.13966 0.61369 0.75422 0.0
C461 C 0.17572 0.67227 0.75854 0.0
C462 C 0.20282 0.66194 0.83826 0.0
C463 C 0.17334 0.61504 0.72249 0.0
C464 C 0.16214 0.5948 0.81495 0.0
H465 H 0.20804 0.70054 0.83538 0.0
H466 H 0.19141 0.70576 0.79253 0.0
H467 H 0.1696 0.66972 0.70178 0.0
H468 H 0.1702 0.63918 0.68184 0.0
H469 H 0.1585 0.57378 0.72918 0.0
H470 H 0.15056 0.56224 0.77977 0.0
H471 H 0.17338 0.59883 0.87035 0.0
H472 H 0.19747 0.63583 0.88234 0.0
H473 H 0.12136 0.62787 0.8415 0.0
H474 H 0.10569 0.60062 0.76411 0.0
H475 H 0.23313 0.62411 0.7875 0.0
H476 H 0.2452 0.6772 0.74872 0.0
C477 C 0.53036 0.19336 0.98466 0.0
C478 C 0.51469 0.1963 0.98591 0.0
C479 C 0.50334 0.18709 0.96406 0.0
C480 C 0.51269 0.17906 0.95081 0.0
N481 N 0.5291 0.18266 0.96312 0.0
Co482 Co 0.54751 0.1747 0.9509 0.0
N483 N 0.53809 0.17176 0.91385 0.0
C484 C 0.52082 0.16925 0.90624 0.0
C485 C 0.51823 0.1673 0.87909 0.0
C486 C 0.53485 0.16856 0.86917 0.0
C487 C 0.54671 0.17125 0.89093 0.0
N488 N 0.56595 0.1667 0.93865 0.0
C489 C 0.57225 0.16653 0.91361 0.0
C490 C 0.58521 0.15979 0.91382 0.0
C491 C 0.58681 0.15545 0.93995 0.0
C492 C 0.5748 0.1598 0.95426 0.0
N493 N 0.55669 0.17769 0.98813 0.0
C494 C 0.56641 0.16969 0.99891 0.0
C495 C 0.5717 0.17548 0.02492 0.0
C496 C 0.56486 0.18786 0.03056 0.0
C497 C 0.55573 0.18891 0.00764 0.0
N498 N 0.52832 0.14739 0.95797 0.0
C499 C 0.50445 0.10786 0.97022 0.0
C500 C 0.51434 0.11378 0.94584 0.0
C501 C 0.52604 0.13346 0.94009 0.0
C502 C 0.50618 0.1223 0.98788 0.0
C503 C 0.51816 0.14192 0.98141 0.0
N504 N 0.56693 0.20176 0.94404 0.0
C505 C 0.59955 0.22794 0.94981 0.0
C506 C 0.59524 0.2406 0.93623 0.0
C507 C 0.57643 0.23332 0.92626 0.0
C508 C 0.56243 0.21387 0.93057 0.0
C509 C 0.58533 0.20868 0.9533 0.0
H510 H 0.54796 0.20862 0.92315 0.0
H511 H 0.58928 0.19938 0.96367 0.0
H512 H 0.53366 0.13736 0.92133 0.0
H513 H 0.51964 0.15269 0.99571 0.0
C514 C 0.50915 0.17217 0.92446 0.0
C515 C 0.54584 0.20012 0.00455 0.0
C516 C 0.56523 0.1716 0.88948 0.0
C517 C 0.57408 0.16096 0.98228 0.0
H518 H 0.5119 0.20437 1.00084 0.0
H519 H 0.49046 0.18725 0.9578 0.0
H520 H 0.50605 0.16585 0.86774 0.0
H521 H 0.5378 0.16743 0.84838 0.0
H522 H 0.59269 0.15814 0.89692 0.0
H523 H 0.59621 0.15048 0.94766 0.0
H524 H 0.58055 0.17215 0.03771 0.0
H525 H 0.56666 0.19544 0.04916 0.0
H526 H 0.51318 0.10326 0.93125 0.0
H527 H 0.49887 0.11852 0.00698 0.0
H528 H 0.61397 0.23283 0.9574 0.0
H529 H 0.5725 0.24264 0.91562 0.0
C530 C 0.342 0.52788 0.15218 0.0
C531 C 0.32317 0.51251 0.15357 0.0
C532 C 0.32056 0.50106 0.1317 0.0
C533 C 0.33785 0.51008 0.11819 0.0
N534 N 0.35107 0.5264 0.13033 0.0
Co535 Co 0.37752 0.54431 0.11758 0.0
N536 N 0.37052 0.53469 0.08067 0.0
C537 C 0.35536 0.5176 0.07332 0.0
C538 C 0.35437 0.51488 0.04617 0.0
C539 C 0.36994 0.53123 0.03598 0.0
C540 C 0.37957 0.54306 0.05758 0.0
N541 N 0.40406 0.56211 0.10484 0.0
C542 C 0.41041 0.56814 0.07969 0.0
C543 C 0.43025 0.58064 0.07951 0.0
C544 C 0.43639 0.58225 0.10555 0.0
C545 C 0.42001 0.5707 0.12018 0.0
N546 N 0.38423 0.55381 0.15457 0.0
C547 C 0.4021 0.56326 0.16507 0.0
C548 C 0.40197 0.56874 0.19108 0.0
C549 C 0.38285 0.5623 0.19704 0.0
C550 C 0.37238 0.55329 0.17425 0.0
N551 N 0.38504 0.52471 0.12473 0.0
C552 C 0.3997 0.49994 0.13674 0.0
C553 C 0.38769 0.50251 0.15479 0.0
C554 C 0.3805 0.51487 0.14841 0.0
C555 C 0.4036 0.50967 0.11221 0.0
C556 C 0.39613 0.5218 0.10659 0.0
N557 N 0.37054 0.56416 0.11058 0.0
C558 C 0.37893 0.59751 0.11378 0.0
C559 C 0.36177 0.59352 0.10094 0.0
C560 C 0.34888 0.57435 0.09333 0.0
C561 C 0.3536 0.55989 0.09819 0.0
C562 C 0.38299 0.58274 0.11841 0.0
H563 H 0.34363 0.54529 0.09189 0.0
H564 H 0.39631 0.58643 0.12843 0.0
H565 H 0.3716 0.51679 0.16289 0.0
H566 H 0.39988 0.52931 0.08775 0.0
C567 C 0.34081 0.5063 0.09179 0.0
C568 C 0.35122 0.54346 0.1719 0.0
C569 C 0.39805 0.5613 0.0558 0.0
C570 C 0.41837 0.57032 0.14822 0.0
H571 H 0.31238 0.50996 0.16853 0.0
H572 H 0.30727 0.48837 0.12558 0.0
H573 H 0.34329 0.5028 0.03502 0.0
H574 H 0.37384 0.53402 0.01512 0.0
H575 H 0.43932 0.58781 0.06243 0.0
H576 H 0.45092 0.5914 0.113 0.0
H577 H 0.41435 0.57734 0.20373 0.0
H578 H 0.37725 0.56414 0.2158 0.0
H579 H 0.38389 0.49511 0.17382 0.0
H580 H 0.41295 0.50849 0.09762 0.0
H581 H 0.38915 0.61198 0.12052 0.0
H582 H 0.33545 0.57062 0.0833 0.0
C583 C 0.81923 0.33969 0.31796 0.0
C584 C 0.81588 0.32094 0.31954 0.0
C585 C 0.82489 0.31839 0.29781 0.0
C586 C 0.83322 0.33569 0.28429 0.0
N587 N 0.82999 0.34883 0.29632 0.0
Co588 Co 0.83858 0.37527 0.28371 0.0
N589 N 0.84133 0.36837 0.24682 0.0
C590 C 0.84336 0.35329 0.23948 0.0
C591 C 0.84521 0.35238 0.21235 0.0
C592 C 0.84439 0.36791 0.20216 0.0
C593 C 0.84205 0.37743 0.22375 0.0
N594 N 0.8473 0.40179 0.27108 0.0
C595 C 0.84766 0.40816 0.24594 0.0
C596 C 0.85495 0.42798 0.24583 0.0
C597 C 0.85941 0.43407 0.2719 0.0
C598 C 0.8546 0.4177 0.28648 0.0
N599 N 0.8357 0.38187 0.32076 0.0
C600 C 0.84409 0.39971 0.33131 0.0
C601 C 0.83836 0.39951 0.35727 0.0
C602 C 0.82562 0.38037 0.36313 0.0
C603 C 0.82431 0.36994 0.34037 0.0
N604 N 0.86573 0.38287 0.291 0.0
C605 C 0.90518 0.3983 0.30359 0.0
C606 C 0.8906 0.38591 0.32137 0.0
C607 C 0.87102 0.37836 0.31472 0.0
C608 C 0.89941 0.40197 0.27889 0.0
C609 C 0.87978 0.39412 0.27298 0.0
N610 N 0.81172 0.36822 0.27656 0.0
C611 C 0.78666 0.37645 0.2798 0.0
C612 C 0.77364 0.35953 0.2663 0.0
C613 C 0.78004 0.3468 0.25844 0.0
C614 C 0.79918 0.35146 0.26368 0.0
C615 C 0.80548 0.3805 0.28466 0.0
H616 H 0.80389 0.3416 0.25721 0.0
H617 H 0.81503 0.3937 0.29502 0.0
H618 H 0.86015 0.36936 0.32911 0.0
H619 H 0.87603 0.39769 0.25401 0.0
C620 C 0.84009 0.33872 0.25793 0.0
C621 C 0.81276 0.34881 0.33761 0.0
C622 C 0.8422 0.39584 0.22202 0.0
C623 C 0.85329 0.416 0.31451 0.0
H624 H 0.80765 0.31024 0.33462 0.0
H625 H 0.82441 0.30516 0.2918 0.0
H626 H 0.84631 0.34138 0.20119 0.0
H627 H 0.84557 0.37186 0.18131 0.0
H628 H 0.85684 0.43706 0.22878 0.0
H629 H 0.86474 0.44857 0.27939 0.0
H630 H 0.84202 0.41185 0.3699 0.0
H631 H 0.81801 0.37481 0.38178 0.0
H632 H 0.89425 0.3826 0.34071 0.0
H633 H 0.91003 0.41104 0.26418 0.0
H634 H 0.78234 0.38653 0.28681 0.0
H635 H 0.77049 0.33356 0.24789 0.0
H636 H 0.26569 0.60029 0.44568 0.0
H637 H 0.29826 0.6281 0.45239 0.0
H638 H 0.29849 0.64644 0.37144 0.0
H639 H 0.26631 0.61851 0.36439 0.0
H640 H 0.33413 0.65095 0.38694 0.0
H641 H 0.30633 0.68263 0.46142 0.0
H642 H 0.30182 0.65875 0.46894 0.0
H643 H 0.2905 0.66253 0.44043 0.0
C644 C 0.27284 0.61006 0.42918 0.0
C645 C 0.26328 0.60732 0.40462 0.0
C646 C 0.29137 0.62605 0.43311 0.0
C647 C 0.30068 0.63958 0.41257 0.0
C648 C 0.29157 0.63629 0.38764 0.0
H649 H 0.38353 0.76029 0.41591 0.0
H650 H 0.35602 0.72764 0.41099 0.0
C651 C 0.2731 0.62038 0.38371 0.0
C652 C 0.31936 0.65775 0.41719 0.0
H653 H 0.33952 0.7004 0.45154 0.0
C654 C 0.3354 0.6617 0.40124 0.0
C655 C 0.32091 0.67189 0.43561 0.0
C656 C 0.30397 0.6689 0.45246 0.0
C657 C 0.35283 0.67948 0.40298 0.0
C658 C 0.35433 0.69362 0.42133 0.0
C659 C 0.3384 0.68951 0.43758 0.0
C660 C 0.3717 0.71329 0.4228 0.0
C661 C 0.36924 0.68331 0.38444 0.0
C662 C 0.38982 0.71616 0.43078 0.0
C663 C 0.40568 0.73493 0.43363 0.0
C664 C 0.40362 0.75115 0.42881 0.0
C665 C 0.38556 0.74814 0.42018 0.0
C666 C 0.36981 0.72947 0.41729 0.0
H667 H 0.36449 0.67257 0.36799 0.0
H668 H 0.37568 0.69801 0.37566 0.0
H669 H 0.38071 0.68252 0.39588 0.0
H670 H 0.39157 0.70391 0.43552 0.0
H671 H 0.41934 0.73676 0.44056 0.0
H672 H 0.65113 0.26264 0.52863 0.0
H673 H 0.65555 0.29496 0.53427 0.0
H674 H 0.67439 0.29646 0.61529 0.0
H675 H 0.66993 0.26397 0.60977 0.0
H676 H 0.63561 0.30422 0.5707 0.0
H677 H 0.71474 0.34984 0.58688 0.0
H678 H 0.70385 0.32582 0.57288 0.0
H679 H 0.70294 0.32904 0.60823 0.0
C680 C 0.65636 0.26989 0.54762 0.0
C681 C 0.66003 0.26064 0.56884 0.0
C682 C 0.65895 0.28841 0.55077 0.0
C683 C 0.66541 0.29823 0.57514 0.0
C684 C 0.66973 0.28934 0.59614 0.0
H685 H 0.65093 0.39037 0.63925 0.0
H686 H 0.655 0.36236 0.63204 0.0
C687 C 0.66716 0.27075 0.59297 0.0
C688 C 0.66603 0.317 0.57905 0.0
H689 H 0.69572 0.3647 0.59473 0.0
C690 C 0.6488 0.31744 0.5758 0.0
C691 C 0.68324 0.3343 0.58564 0.0
C692 C 0.7023 0.33487 0.5884 0.0
C693 C 0.64824 0.33458 0.57938 0.0
C694 C 0.66533 0.35175 0.5864 0.0
C695 C 0.68264 0.35146 0.58937 0.0
C696 C 0.66507 0.3699 0.59143 0.0
C697 C 0.62935 0.33428 0.57582 0.0
C698 C 0.66975 0.38362 0.57109 0.0
C699 C 0.6673 0.39964 0.57506 0.0
C700 C 0.66005 0.40212 0.59943 0.0
C701 C 0.65621 0.38873 0.62009 0.0
C702 C 0.65865 0.37278 0.6161 0.0
H703 H 0.61769 0.32015 0.56821 0.0
H704 H 0.6247 0.33725 0.59527 0.0
H705 H 0.63127 0.34583 0.56174 0.0
H706 H 0.67464 0.38157 0.55186 0.0
H707 H 0.67027 0.40959 0.5587 0.0
H708 H 0.25281 0.62551 0.75031 0.0
H709 H 0.28542 0.63078 0.74506 0.0
H710 H 0.30921 0.69101 0.76463 0.0
H711 H 0.2764 0.68566 0.77094 0.0
H712 H 0.31495 0.6542 0.71173 0.0
H713 H 0.33689 0.67448 0.81751 0.0
H714 H 0.3121 0.66394 0.80667 0.0
H715 H 0.32901 0.68898 0.80021 0.0
C716 C 0.26495 0.63988 0.75372 0.0
C717 C 0.26195 0.65509 0.76147 0.0
C718 C 0.28362 0.6429 0.7505 0.0
C719 C 0.29983 0.66121 0.75492 0.0
C720 C 0.29695 0.67666 0.76167 0.0
H721 H 0.41999 0.68532 0.73188 0.0
H722 H 0.39237 0.69069 0.73649 0.0
C723 C 0.27818 0.67363 0.76495 0.0
C724 C 0.31956 0.66372 0.75264 0.0
H725 H 0.35964 0.67317 0.78899 0.0
C726 C 0.32481 0.6586 0.72854 0.0
C727 C 0.33242 0.66935 0.77463 0.0
C728 C 0.32735 0.67437 0.80131 0.0
C729 C 0.34227 0.65849 0.72605 0.0
C730 C 0.35484 0.66364 0.74818 0.0
C731 C 0.34998 0.66937 0.77202 0.0
C732 C 0.37202 0.66116 0.74752 0.0
C733 C 0.34695 0.65222 0.70009 0.0
C734 C 0.36974 0.64292 0.75271 0.0
C735 C 0.38539 0.63984 0.75022 0.0
C736 C 0.40371 0.65493 0.74238 0.0
C737 C 0.40613 0.67343 0.7381 0.0
C738 C 0.39037 0.6765 0.74061 0.0
H739 H 0.33673 0.65059 0.68392 0.0
H740 H 0.36189 0.66288 0.69372 0.0
H741 H 0.3463 0.63814 0.70299 0.0
H742 H 0.35571 0.63094 0.75818 0.0
H743 H 0.38308 0.62551 0.75411 0.0
H744 H 0.74789 0.39594 0.86133 0.0
H745 H 0.71539 0.36808 0.86678 0.0
H746 H 0.71876 0.37841 0.95163 0.0
H747 H 0.75113 0.4067 0.94605 0.0
H748 H 0.70613 0.33612 0.89292 0.0
H749 H 0.66512 0.36806 0.93752 0.0
H750 H 0.68868 0.38268 0.9227 0.0
H751 H 0.68644 0.37365 0.9562 0.0
C752 C 0.74154 0.39244 0.88109 0.0
C753 C 0.75201 0.40349 0.90328 0.0
C754 C 0.72297 0.37651 0.88419 0.0
C755 C 0.71444 0.37115 0.90958 0.0
C756 C 0.72473 0.38246 0.93173 0.0
H757 H 0.62024 0.26548 0.97347 0.0
H758 H 0.64808 0.29783 0.96615 0.0
C759 C 0.74327 0.3986 0.92857 0.0
C760 C 0.69557 0.35287 0.91293 0.0
H761 H 0.65017 0.33356 0.93961 0.0
C762 C 0.69385 0.33566 0.90285 0.0
C763 C 0.67948 0.35215 0.92596 0.0
C764 C 0.67992 0.37015 0.93598 0.0
C765 C 0.67673 0.31782 0.90589 0.0
C766 C 0.66082 0.31707 0.91929 0.0
C767 C 0.66241 0.33421 0.92929 0.0
C768 C 0.64276 0.29841 0.92398 0.0
C769 C 0.6759 0.29974 0.89533 0.0
C770 C 0.63026 0.28822 0.90279 0.0
C771 C 0.61425 0.26974 0.90694 0.0
C772 C 0.61062 0.2611 0.9323 0.0
C773 C 0.62279 0.27169 0.95365 0.0
C774 C 0.63864 0.29019 0.94954 0.0
H775 H 0.69029 0.30238 0.88872 0.0
H776 H 0.67022 0.28829 0.91085 0.0
H777 H 0.66588 0.29422 0.87805 0.0
H778 H 0.63317 0.29436 0.88291 0.0
H779 H 0.60521 0.2619 0.8901 0.0
H780 H 0.3878 0.76066 0.08858 0.0
H781 H 0.38237 0.72799 0.09388 0.0
H782 H 0.32241 0.70443 0.07269 0.0
H783 H 0.32791 0.7373 0.06651 0.0
H784 H 0.3578 0.69793 0.12679 0.0
H785 H 0.34042 0.67756 0.01998 0.0
H786 H 0.35096 0.70222 0.03134 0.0
H787 H 0.32571 0.6855 0.03661 0.0
C788 C 0.37345 0.74856 0.08489 0.0
C789 C 0.35836 0.75163 0.07674 0.0
C790 C 0.37034 0.72985 0.08812 0.0
C791 C 0.35207 0.71371 0.08325 0.0
C792 C 0.33673 0.71666 0.07606 0.0
H793 H 0.32776 0.59376 0.10846 0.0
H794 H 0.32254 0.62148 0.10388 0.0
C795 C 0.33984 0.73545 0.07283 0.0
C796 C 0.34949 0.69396 0.08539 0.0
H797 H 0.34111 0.65447 0.04846 0.0
C798 C 0.35388 0.68833 0.10975 0.0
C799 C 0.34451 0.68145 0.06308 0.0
C800 C 0.34026 0.68696 0.03618 0.0
C801 C 0.35386 0.6708 0.11221 0.0
C802 C 0.34933 0.65858 0.0898 0.0
C803 C 0.34441 0.66386 0.06564 0.0
C804 C 0.35166 0.64131 0.09058 0.0
C805 C 0.35938 0.66571 0.13847 0.0
C806 C 0.36962 0.64326 0.08417 0.0
C807 C 0.37262 0.62756 0.08673 0.0
C808 C 0.35772 0.60952 0.09577 0.0
C809 C 0.33948 0.60741 0.1013 0.0
C810 C 0.3365 0.62322 0.0988 0.0
H811 H 0.36142 0.67617 0.15449 0.0
H812 H 0.34805 0.65103 0.14479 0.0
H813 H 0.37306 0.66544 0.13601 0.0
H814 H 0.38146 0.65709 0.07772 0.0
H815 H 0.38675 0.62962 0.08195 0.0
H816 H 0.76283 0.38516 0.24922 0.0
H817 H 0.73022 0.37989 0.24379 0.0
H818 H 0.70638 0.31972 0.26378 0.0
H819 H 0.73918 0.32507 0.27021 0.0
H820 H 0.70058 0.35617 0.21045 0.0
H821 H 0.67888 0.33674 0.31649 0.0
H822 H 0.70365 0.34725 0.30559 0.0
H823 H 0.68679 0.32216 0.29944 0.0
C824 C 0.75067 0.3708 0.25266 0.0
C825 C 0.75366 0.3556 0.26057 0.0
C826 C 0.73201 0.36778 0.24935 0.0
C827 C 0.71579 0.34949 0.25383 0.0
C828 C 0.71865 0.33406 0.26074 0.0
H829 H 0.59578 0.32556 0.22973 0.0
H830 H 0.62339 0.32017 0.2344 0.0
C831 C 0.73741 0.33708 0.2641 0.0
C832 C 0.69607 0.34699 0.25151 0.0
H833 H 0.65612 0.33794 0.28788 0.0
C834 C 0.69077 0.35192 0.2273 0.0
C835 C 0.68327 0.34157 0.27355 0.0
C836 C 0.68841 0.33676 0.30033 0.0
C837 C 0.67331 0.35203 0.22474 0.0
C838 C 0.66081 0.34709 0.24691 0.0
C839 C 0.66573 0.34157 0.27088 0.0
C840 C 0.64362 0.34957 0.24614 0.0
C841 C 0.66857 0.35811 0.19866 0.0
C842 C 0.64583 0.36774 0.25169 0.0
C843 C 0.63019 0.37083 0.24914 0.0
C844 C 0.61194 0.35581 0.24092 0.0
C845 C 0.60959 0.33739 0.23626 0.0
C846 C 0.62534 0.3343 0.23879 0.0
H847 H 0.67889 0.35984 0.18258 0.0
H848 H 0.6537 0.34728 0.19226 0.0
H849 H 0.66898 0.37209 0.20141 0.0
H850 H 0.65982 0.37967 0.25748 0.0
H851 H 0.63245 0.38511 0.25332 0.0
H852 H 0.20471 0.62484 0.69129 0.0
H853 H 0.20501 0.61579 0.64443 0.0
H854 H 0.1429 0.58007 0.64602 0.0
H855 H 0.14263 0.58907 0.69288 0.0
H856 H 0.18789 0.57639 0.61972 0.0
H857 H 0.15606 0.62013 0.58342 0.0
H858 H 0.1675 0.624 0.61569 0.0
H859 H 0.14369 0.60376 0.61051 0.0
C860 C 0.19121 0.61475 0.68169 0.0
C861 C 0.17369 0.60736 0.69563 0.0
C862 C 0.19137 0.60967 0.65498 0.0
C863 C 0.17396 0.5974 0.64169 0.0
C864 C 0.15647 0.58966 0.65584 0.0
H865 H 0.1433 0.55792 0.47779 0.0
H866 H 0.14374 0.56714 0.52466 0.0
C867 C 0.15633 0.59463 0.6826 0.0
C868 C 0.17406 0.59315 0.61284 0.0
H869 H 0.16093 0.60129 0.55144 0.0
C870 C 0.18206 0.58187 0.60475 0.0
C871 C 0.16637 0.60026 0.5934 0.0
C872 C 0.15802 0.61284 0.60101 0.0
C873 C 0.18226 0.57718 0.57773 0.0
C874 C 0.17476 0.58447 0.55816 0.0
C875 C 0.16675 0.59577 0.56635 0.0
C876 C 0.17475 0.58021 0.52919 0.0
C877 C 0.18997 0.56397 0.57055 0.0
C878 C 0.19207 0.58503 0.51583 0.0
C879 C 0.19179 0.57975 0.48912 0.0
C880 C 0.17426 0.56995 0.47515 0.0
C881 C 0.15702 0.5658 0.4881 0.0
C882 C 0.15728 0.57096 0.51487 0.0
H883 H 0.18989 0.55535 0.58799 0.0
H884 H 0.18136 0.55388 0.55428 0.0
H885 H 0.20515 0.5728 0.56364 0.0
H886 H 0.20578 0.59256 0.5262 0.0
H887 H 0.2052 0.58288 0.47954 0.0
H888 H 0.5925 0.14043 0.64537 0.0
H889 H 0.58362 0.14095 0.69225 0.0
H890 H 0.61773 0.20319 0.69231 0.0
H891 H 0.62666 0.20263 0.64548 0.0
H892 H 0.61207 0.15871 0.73548 0.0
H893 H 0.56423 0.19025 0.72517 0.0
H894 H 0.56906 0.17857 0.69779 0.0
H895 H 0.58697 0.20253 0.70779 0.0
C896 C 0.59767 0.1542 0.6553 0.0
C897 C 0.60989 0.17152 0.64185 0.0
C898 C 0.59274 0.15449 0.68205 0.0
C899 C 0.59986 0.17212 0.69569 0.0
C900 C 0.61182 0.18946 0.68205 0.0
H901 H 0.58556 0.2029 0.85765 0.0
H902 H 0.59537 0.20331 0.81107 0.0
C903 C 0.61687 0.18915 0.65537 0.0
C904 C 0.59569 0.17232 0.72457 0.0
H905 H 0.57247 0.18612 0.76896 0.0
C906 C 0.60336 0.16464 0.74285 0.0
C907 C 0.58447 0.18021 0.73411 0.0
C908 C 0.57555 0.18826 0.71527 0.0
C909 C 0.60035 0.16487 0.77047 0.0
C910 C 0.5889 0.17255 0.78007 0.0
C911 C 0.58127 0.18027 0.7617 0.0
C912 C 0.58439 0.17248 0.80897 0.0
C913 C 0.60988 0.15734 0.7891 0.0
C914 C 0.57505 0.15507 0.82343 0.0
C915 C 0.56973 0.15491 0.85009 0.0
C916 C 0.57352 0.17213 0.86273 0.0
C917 C 0.5829 0.18953 0.84842 0.0
C918 C 0.58835 0.18972 0.8218 0.0
H919 H 0.62266 0.15773 0.77967 0.0
H920 H 0.61458 0.16584 0.80788 0.0
H921 H 0.59942 0.14207 0.79419 0.0
H922 H 0.57129 0.14149 0.81385 0.0
H923 H 0.56198 0.14125 0.86056 0.0
H924 H 0.38859 0.58325 0.02497 0.0
H925 H 0.39746 0.59259 0.97815 0.0
H926 H 0.43219 0.56516 0.97884 0.0
H927 H 0.42368 0.55631 0.02587 0.0
H928 H 0.45005 0.59915 0.95191 0.0
H929 H 0.37438 0.55547 0.91658 0.0
H930 H 0.37756 0.57326 0.94095 0.0
H931 H 0.38149 0.55374 0.95016 0.0
C932 C 0.39841 0.5796 0.01516 0.0
C933 C 0.40569 0.56934 0.02893 0.0
C934 C 0.40327 0.58469 0.98836 0.0
C935 C 0.41516 0.57921 0.97472 0.0
C936 C 0.42294 0.56949 0.98884 0.0
H937 H 0.45472 0.5868 0.8104 0.0
H938 H 0.44537 0.57773 0.85723 0.0
C939 C 0.41819 0.56453 0.0157 0.0
C940 C 0.41925 0.58331 0.9457 0.0
H941 H 0.39761 0.57589 0.88451 0.0
C942 C 0.43857 0.59398 0.93719 0.0
C943 C 0.40428 0.57648 0.92638 0.0
C944 C 0.38328 0.56394 0.93389 0.0
C945 C 0.44331 0.5983 0.91008 0.0
C946 C 0.42835 0.59166 0.89088 0.0
C947 C 0.40904 0.581 0.89929 0.0
C948 C 0.43255 0.59581 0.86198 0.0
C949 C 0.46429 0.61024 0.90215 0.0
C950 C 0.42789 0.60849 0.84892 0.0
C951 C 0.43316 0.61359 0.82222 0.0
C952 C 0.44283 0.60582 0.80806 0.0
C953 C 0.44692 0.59264 0.82084 0.0
C954 C 0.44177 0.58764 0.84758 0.0
H955 H 0.47381 0.61736 0.9196 0.0
H956 H 0.46896 0.60072 0.89259 0.0
H957 H 0.46633 0.6215 0.88744 0.0
H958 H 0.42079 0.61495 0.85967 0.0
H959 H 0.43019 0.62404 0.81283 0.0
H960 H 0.81074 0.38595 0.19098 0.0
H961 H 0.81031 0.39484 0.14407 0.0
H962 H 0.87242 0.43063 0.14536 0.0
H963 H 0.87281 0.4218 0.19227 0.0
H964 H 0.82753 0.43432 0.1191 0.0
H965 H 0.85892 0.3901 0.08307 0.0
H966 H 0.8475 0.38636 0.11534 0.0
H967 H 0.87134 0.40652 0.11011 0.0
C968 C 0.82421 0.39604 0.18131 0.0
C969 C 0.84177 0.40349 0.19517 0.0
C970 C 0.82398 0.40102 0.15457 0.0
C971 C 0.84135 0.41326 0.14119 0.0
C972 C 0.85888 0.42107 0.15527 0.0
H973 H 0.87171 0.45213 0.97708 0.0
H974 H 0.87132 0.44294 0.02395 0.0
C975 C 0.85909 0.41619 0.18205 0.0
C976 C 0.84118 0.41738 0.11232 0.0
H977 H 0.85402 0.40883 0.05095 0.0
C978 C 0.83325 0.42871 0.10415 0.0
C979 C 0.84873 0.4101 0.09292 0.0
C980 C 0.857 0.39747 0.10062 0.0
C981 C 0.833 0.43329 0.0771 0.0
C982 C 0.84037 0.42583 0.05757 0.0
C983 C 0.8483 0.41448 0.06583 0.0
C984 C 0.84033 0.42999 0.02858 0.0
C985 C 0.82538 0.44656 0.06983 0.0
C986 C 0.82301 0.4252 0.01528 0.0
C987 C 0.82326 0.43046 0.98857 0.0
C988 C 0.84077 0.44021 0.97454 0.0
C989 C 0.85801 0.44429 0.98743 0.0
C990 C 0.85778 0.43915 0.0142 0.0
H991 H 0.82555 0.45527 0.08721 0.0
H992 H 0.834 0.45657 0.05349 0.0
H993 H 0.81019 0.43777 0.06297 0.0
H994 H 0.80931 0.41774 0.02571 0.0
H995 H 0.80984 0.42739 0.97904 0.0
H996 H 0.42595 0.8705 0.14465 0.0
H997 H 0.43486 0.86995 0.19147 0.0
H998 H 0.39648 0.80823 0.1937 0.0
H999 H 0.38763 0.80882 0.14688 0.0
H1000 H 0.40767 0.85596 0.23508 0.0
H1001 H 0.44766 0.81597 0.22645 0.0
H1002 H 0.44372 0.82768 0.1983 0.0
H1003 H 0.42447 0.80497 0.21028 0.0
C1004 C 0.41986 0.8568 0.15502 0.0
C1005 C 0.40649 0.83963 0.14215 0.0
C1006 C 0.42481 0.8565 0.18175 0.0
C1007 C 0.41651 0.83902 0.19601 0.0
C1008 C 0.40334 0.82182 0.18298 0.0
H1009 H 0.42789 0.80839 0.35941 0.0
H1010 H 0.41802 0.80809 0.31287 0.0
C1011 C 0.39832 0.82214 0.15629 0.0
C1012 C 0.42074 0.83894 0.22489 0.0
H1013 H 0.44076 0.82208 0.27007 0.0
C1014 C 0.41497 0.84862 0.24276 0.0
C1015 C 0.4301 0.82921 0.23488 0.0
C1016 C 0.43701 0.81897 0.21653 0.0
C1017 C 0.41806 0.84861 0.2704 0.0
C1018 C 0.42765 0.83908 0.28042 0.0
C1019 C 0.43337 0.82936 0.26248 0.0
C1020 C 0.43223 0.83925 0.30932 0.0
C1021 C 0.41055 0.85842 0.28858 0.0
C1022 C 0.44337 0.85681 0.32296 0.0
C1023 C 0.4487 0.85694 0.3496 0.0
C1024 C 0.44316 0.83951 0.363 0.0
C1025 C 0.43196 0.82196 0.34954 0.0
C1026 C 0.42648 0.82182 0.32296 0.0
H1027 H 0.39853 0.85946 0.27915 0.0
H1028 H 0.40536 0.85058 0.3078 0.0
H1029 H 0.42238 0.87334 0.29283 0.0
H1030 H 0.44851 0.87046 0.31276 0.0
H1031 H 0.45779 0.87063 0.35946 0.0
H1032 H 0.58569 0.38673 0.31187 0.0
H1033 H 0.59503 0.3957 0.35877 0.0
H1034 H 0.56884 0.43151 0.35724 0.0
H1035 H 0.5596 0.42259 0.31034 0.0
H1036 H 0.61736 0.43524 0.38382 0.0
H1037 H 0.54152 0.39087 0.41941 0.0
H1038 H 0.54931 0.38716 0.38722 0.0
H1039 H 0.54562 0.40728 0.39236 0.0
C1040 C 0.58235 0.39684 0.32148 0.0
C1041 C 0.57227 0.40426 0.30756 0.0
C1042 C 0.58758 0.40187 0.34821 0.0
C1043 C 0.58248 0.41413 0.36153 0.0
C1044 C 0.5728 0.42193 0.34738 0.0
H1045 H 0.59038 0.45237 0.52595 0.0
H1046 H 0.58185 0.4435 0.47893 0.0
C1047 C 0.56771 0.41701 0.3206 0.0
C1048 C 0.5867 0.41823 0.39042 0.0
H1049 H 0.5651 0.40953 0.45167 0.0
C1050 C 0.60597 0.42959 0.39871 0.0
C1051 C 0.57179 0.4109 0.40974 0.0
C1052 C 0.55088 0.39825 0.40191 0.0
C1053 C 0.61072 0.43412 0.42579 0.0
C1054 C 0.59582 0.42659 0.44523 0.0
C1055 C 0.57653 0.41523 0.43686 0.0
C1056 C 0.59993 0.43065 0.47427 0.0
C1057 C 0.63163 0.4474 0.43319 0.0
C1058 C 0.61243 0.42583 0.48759 0.0
C1059 C 0.61728 0.4309 0.51439 0.0
C1060 C 0.6094 0.44049 0.52849 0.0
C1061 C 0.59633 0.44464 0.51555 0.0
C1062 C 0.59157 0.43969 0.4887 0.0
H1063 H 0.64023 0.45618 0.41587 0.0
H1064 H 0.63298 0.45734 0.44959 0.0
H1065 H 0.63802 0.43862 0.44001 0.0
H1066 H 0.61872 0.41846 0.47713 0.0
H1067 H 0.62757 0.42779 0.52395 0.0
H1068 H 0.93354 0.43567 0.29363 0.0
H1069 H 0.96793 0.45141 0.30459 0.0
H1070 H 0.95911 0.39898 0.34167 0.0
H1071 H 0.9246 0.38293 0.33033 0.0
H1072 H 0.98567 0.45737 0.35507 0.0
H1073 H 1.00445 0.41314 0.28957 0.0
H1074 H 0.98225 0.41368 0.28591 0.0
H1075 H 0.98464 0.3997 0.31211 0.0
C1076 C 0.93889 0.42735 0.30384 0.0
C1077 C 0.92621 0.4079 0.31082 0.0
C1078 C 0.95859 0.43645 0.31027 0.0
C1079 C 0.96625 0.42636 0.32365 0.0
C1080 C 0.95365 0.40702 0.33095 0.0
H1081 H 0.07935 0.47773 0.40177 0.0
H1082 H 0.04485 0.45992 0.39122 0.0
C1083 C 0.93386 0.3979 0.32467 0.0
C1084 C 0.98734 0.43629 0.33026 0.0
H1085 H 0.02922 0.43576 0.31785 0.0
C1086 C 0.99516 0.45259 0.34698 0.0
C1087 C 0.99985 0.43026 0.31947 0.0
C1088 C 0.99249 0.41334 0.30058 0.0
C1089 C 0.015 0.46285 0.3534 0.0
C1090 C 0.02745 0.45663 0.34298 0.0
C1091 C 0.01969 0.44046 0.32602 0.0
C1092 C 0.04859 0.46695 0.3492 0.0
C1093 C 0.02259 0.48053 0.37091 0.0
C1094 C 0.06234 0.47652 0.32901 0.0
C1095 C 0.08218 0.48694 0.33501 0.0
C1096 C 0.08881 0.48791 0.36136 0.0
C1097 C 0.07493 0.47777 0.38137 0.0
C1098 C 0.05512 0.46747 0.37536 0.0
H1099 H 0.01213 0.48578 0.37261 0.0
H1100 H 0.02532 0.47692 0.39123 0.0
H1101 H 0.03646 0.49241 0.36299 0.0
H1102 H 0.05769 0.47632 0.30866 0.0
H1103 H 0.09225 0.49467 0.31905 0.0
H1104 H 0.50305 0.93105 0.46115 0.0
H1105 H 0.52172 0.96547 0.47199 0.0
H1106 H 0.56603 0.95709 0.50766 0.0
H1107 H 0.54752 0.92256 0.49649 0.0
H1108 H 0.53422 0.98325 0.52265 0.0
H1109 H 0.59626 1.00241 0.45485 0.0
H1110 H 0.57344 0.98019 0.4516 0.0
H1111 H 0.59023 0.98258 0.47717 0.0
C1112 C 0.51687 0.93651 0.47104 0.0
C1113 C 0.52382 0.92395 0.47769 0.0
C1114 C 0.52748 0.95622 0.47739 0.0
C1115 C 0.54543 0.964 0.49035 0.0
C1116 C 0.55237 0.95153 0.4973 0.0
H1117 H 0.60791 0.07721 0.568 0.0
H1118 H 0.59122 0.04271 0.55752 0.0
C1119 C 0.54167 0.93172 0.49111 0.0
C1120 C 0.55661 0.98509 0.49688 0.0
H1121 H 0.59871 0.02712 0.48343 0.0
C1122 C 0.54834 0.99282 0.51412 0.0
C1123 C 0.57495 0.99769 0.48552 0.0
C1124 C 0.58425 0.99041 0.46607 0.0
C1125 C 0.55795 0.01265 0.52052 0.0
C1126 C 0.57644 0.02519 0.50953 0.0
C1127 C 0.58463 0.01752 0.49203 0.0
C1128 C 0.58729 0.04634 0.51568 0.0
C1129 C 0.54807 0.02013 0.53861 0.0
C1130 C 0.59111 0.06003 0.49555 0.0
C1131 C 0.60054 0.07986 0.50151 0.0
C1132 C 0.60656 0.08655 0.52776 0.0
C1133 C 0.60318 0.07274 0.54769 0.0
C1134 C 0.59366 0.05293 0.54172 0.0
H1135 H 0.53238 0.0096 0.54072 0.0
H1136 H 0.55474 0.02286 0.55872 0.0
H1137 H 0.54989 0.03397 0.53095 0.0
H1138 H 0.58638 0.05533 0.47529 0.0
H1139 H 0.60261 0.08988 0.48562 0.0
H1140 H 0.53484 0.60364 0.73389 0.0
H1141 H 0.55268 0.58713 0.72279 0.0
H1142 H 0.53747 0.58547 0.64003 0.0
H1143 H 0.51891 0.60132 0.65095 0.0
H1144 H 0.5359 0.54879 0.69413 0.0
H1145 H 0.59852 0.60945 0.64245 0.0
H1146 H 0.58369 0.61335 0.66601 0.0
H1147 H 0.57472 0.60457 0.63314 0.0
C1148 C 0.53508 0.59967 0.7133 0.0
C1149 C 0.52522 0.60385 0.6934 0.0
C1150 C 0.54545 0.59032 0.70699 0.0
C1151 C 0.54653 0.58514 0.68056 0.0
C1152 C 0.53704 0.58953 0.66053 0.0
H1153 H 0.6053 0.53122 0.60286 0.0
H1154 H 0.58847 0.54867 0.6139 0.0
C1155 C 0.5265 0.59873 0.66685 0.0
C1156 C 0.55704 0.57459 0.67414 0.0
H1157 H 0.59722 0.57933 0.6428 0.0
C1158 C 0.54935 0.55546 0.68297 0.0
C1159 C 0.57448 0.58323 0.65939 0.0
C1160 C 0.58351 0.60382 0.64975 0.0
C1161 C 0.5584 0.54464 0.6771 0.0
C1162 C 0.5761 0.55337 0.66273 0.0
C1163 C 0.58376 0.57256 0.65389 0.0
C1164 C 0.58669 0.5428 0.65626 0.0
C1165 C 0.54849 0.52373 0.68563 0.0
C1166 C 0.59179 0.53388 0.67634 0.0
C1167 C 0.6011 0.52345 0.67 0.0
C1168 C 0.60595 0.52193 0.6434 0.0
C1169 C 0.60147 0.53154 0.62348 0.0
C1170 C 0.59196 0.54176 0.62982 0.0
H1171 H 0.53272 0.51774 0.68857 0.0
H1172 H 0.55057 0.51467 0.67071 0.0
H1173 H 0.55464 0.52261 0.70494 0.0
H1174 H 0.58849 0.53488 0.69702 0.0
H1175 H 0.6041 0.51625 0.686 0.0
H1176 H 0.09133 0.62736 0.83329 0.0
H1177 H 0.05687 0.61137 0.84457 0.0
H1178 H 0.04716 0.56041 0.80211 0.0
H1179 H 0.08147 0.57609 0.79103 0.0
H1180 H 0.01983 0.57086 0.78982 0.0
H1181 H 0.02778 0.56857 0.89957 0.0
H1182 H 0.04144 0.5922 0.88502 0.0
H1183 H 0.04727 0.57385 0.87672 0.0
C1184 C 0.08194 0.61268 0.82657 0.0
C1185 C 0.08935 0.60312 0.81113 0.0
C1186 C 0.06217 0.60353 0.83305 0.0
C1187 C 0.04934 0.58456 0.82443 0.0
C1188 C 0.05668 0.57504 0.80897 0.0
H1189 H 0.93417 0.5019 0.88028 0.0
H1190 H 0.96855 0.52058 0.86953 0.0
C1191 C 0.07638 0.58413 0.80251 0.0
C1192 C 0.02826 0.5746 0.83114 0.0
H1193 H 0.99625 0.55796 0.88324 0.0
C1194 C 0.01468 0.5681 0.81026 0.0
C1195 C 0.02146 0.57075 0.8578 0.0
C1196 C 0.03519 0.57653 0.88111 0.0
C1197 C 0.99462 0.55796 0.81526 0.0
C1198 C 0.98781 0.55437 0.84192 0.0
C1199 C 1.00139 0.56083 0.8628 0.0
C1200 C 0.96672 0.54324 0.84857 0.0
C1201 C 0.98088 0.55067 0.79188 0.0
C1202 C 0.95407 0.54976 0.84065 0.0
C1203 C 0.93428 0.5391 0.84694 0.0
C1204 C 0.92664 0.52171 0.86148 0.0
C1205 C 0.93944 0.51534 0.86948 0.0
C1206 C 0.95917 0.52598 0.86321 0.0
H1207 H 0.98825 0.55047 0.77319 0.0
H1208 H 0.96867 0.53587 0.79573 0.0
H1209 H 0.97484 0.56034 0.78872 0.0
H1210 H 0.95953 0.56321 0.82981 0.0
H1211 H 0.92503 0.54468 0.84075 0.0
H1212 H 0.46904 0.08814 0.99543 0.0
H1213 H 0.45056 0.05364 0.0068 0.0
H1214 H 0.49521 0.04533 0.97219 0.0
H1215 H 0.51384 0.07971 0.96112 0.0
H1216 H 0.43667 0.02051 0.97171 0.0
H1217 H 0.4877 0.0218 0.04792 0.0
H1218 H 0.4882 0.04347 0.0365 0.0
H1219 H 0.49853 0.03234 0.01636 0.0
C1220 C 0.47501 0.07901 0.99042 0.0
C1221 C 0.49298 0.08681 0.97731 0.0
C1222 C 0.46436 0.05924 0.9968 0.0
C1223 C 0.47154 0.04686 0.99059 0.0
C1224 C 0.48943 0.05458 0.97748 0.0
H1225 H 0.41334 0.92073 0.98495 0.0
H1226 H 0.42937 0.95522 0.97437 0.0
C1227 C 0.5 0.07427 0.97093 0.0
C1228 C 0.46034 0.02585 0.99757 0.0
H1229 H 0.46233 0.99094 0.03465 0.0
C1230 C 0.44225 0.01405 0.98554 0.0
C1231 C 0.4675 0.01739 0.01578 0.0
C1232 C 0.48647 0.02939 0.03011 0.0
C1233 C 0.43138 0.99404 0.99079 0.0
C1234 C 0.43878 0.98551 0.00849 0.0
C1235 C 0.45668 0.99739 0.02093 0.0
C1236 C 0.42813 0.96434 0.01459 0.0
C1237 C 0.41192 0.98221 0.97762 0.0
C1238 C 0.42211 0.95784 0.04076 0.0
C1239 C 0.41275 0.93806 0.04687 0.0
C1240 C 0.40936 0.92419 0.02703 0.0
C1241 C 0.41531 0.9308 1.00074 0.0
C1242 C 0.42458 0.9506 0.99463 0.0
H1243 H 0.40635 0.99144 0.96961 0.0
H1244 H 0.41329 0.97397 0.96076 0.0
H1245 H 0.40119 0.97168 0.9919 0.0
H1246 H 0.42464 0.96811 0.05653 0.0
H1247 H 0.40816 0.93367 0.06725 0.0
H1248 H 0.41294 0.49539 0.18557 0.0
H1249 H 0.42921 0.47712 0.19583 0.0
H1250 H 0.42363 0.45906 0.11378 0.0
H1251 H 0.40693 0.47682 0.10339 0.0
H1252 H 0.41689 0.43655 0.18823 0.0
H1253 H 0.48257 0.48497 0.1294 0.0
H1254 H 0.46514 0.49186 0.13932 0.0
H1255 H 0.46004 0.47562 0.11178 0.0
C1256 C 0.41485 0.48731 0.16972 0.0
C1257 C 0.40865 0.48782 0.14354 0.0
C1258 C 0.4243 0.47694 0.17562 0.0
C1259 C 0.42795 0.46693 0.15551 0.0
C1260 C 0.42135 0.46696 0.12956 0.0
H1261 H 0.46795 0.38314 0.17418 0.0
H1262 H 0.44934 0.39906 0.16325 0.0
C1263 C 0.41182 0.47722 0.12365 0.0
C1264 C 0.43886 0.4567 0.16156 0.0
H1265 H 0.48089 0.45689 0.14763 0.0
C1266 C 0.43087 0.44098 0.17932 0.0
C1267 C 0.45721 0.46256 0.15017 0.0
C1268 C 0.46689 0.47977 0.13177 0.0
C1269 C 0.44059 0.43086 0.1857 0.0
C1270 C 0.45879 0.43653 0.17396 0.0
C1271 C 0.46687 0.45239 0.15645 0.0
C1272 C 0.47003 0.42668 0.18034 0.0
C1273 C 0.43151 0.41443 0.20542 0.0
C1274 C 0.48804 0.43692 0.19311 0.0
C1275 C 0.4987 0.42787 0.19935 0.0
C1276 C 0.49173 0.40834 0.19275 0.0
C1277 C 0.47381 0.39818 0.17951 0.0
C1278 C 0.46306 0.40723 0.17346 0.0
H1279 H 0.41957 0.41442 0.21676 0.0
H1280 H 0.42551 0.40051 0.19453 0.0
H1281 H 0.44247 0.41522 0.21976 0.0
H1282 H 0.49383 0.45196 0.19845 0.0
H1283 H 0.51257 0.43629 0.20911 0.0
H1284 H 0.23896 0.57208 0.33337 0.0
H1285 H 0.26609 0.57637 0.30531 0.0
H1286 H 0.22778 0.52357 0.26352 0.0
H1287 H 0.20067 0.51972 0.29097 0.0
H1288 H 0.28175 0.55383 0.30185 0.0
H1289 H 0.25537 0.55833 0.20171 0.0
H1290 H 0.24413 0.56025 0.23189 0.0
H1291 H 0.23823 0.53689 0.219 0.0
C1292 C 0.23636 0.56167 0.31777 0.0
C1293 C 0.21781 0.54561 0.31419 0.0
C1294 C 0.25184 0.56403 0.30186 0.0
C1295 C 0.24904 0.55043 0.28198 0.0
C1296 C 0.23034 0.53454 0.27818 0.0
H1297 H 0.33263 0.52285 0.21638 0.0
H1298 H 0.30914 0.52626 0.24393 0.0
C1299 C 0.21486 0.53226 0.29397 0.0
C1300 C 0.26578 0.55215 0.26636 0.0
H1301 H 0.28119 0.55126 0.203 0.0
C1302 C 0.28169 0.55347 0.28022 0.0
C1303 C 0.26598 0.552 0.23809 0.0
C1304 C 0.2501 0.552 0.22181 0.0
C1305 C 0.29739 0.55397 0.26671 0.0
C1306 C 0.29704 0.55266 0.2385 0.0
C1307 C 0.28145 0.55202 0.22461 0.0
C1308 C 0.31238 0.55143 0.22299 0.0
C1309 C 0.31426 0.55608 0.28287 0.0
C1310 C 0.32195 0.56423 0.20175 0.0
C1311 C 0.33523 0.56213 0.18587 0.0
C1312 C 0.33916 0.54718 0.19089 0.0
C1313 C 0.32998 0.53464 0.21242 0.0
C1314 C 0.31663 0.53666 0.2282 0.0
H1315 H 0.31536 0.56322 0.30233 0.0
H1316 H 0.31216 0.54152 0.28709 0.0
H1317 H 0.32812 0.56459 0.27196 0.0
H1318 H 0.31889 0.57567 0.19718 0.0
H1319 H 0.34201 0.57182 0.16916 0.0
H1320 H 0.81451 0.34023 0.39005 0.0
H1321 H 0.78788 0.3161 0.4177 0.0
H1322 H 0.74802 0.30447 0.3529 0.0
H1323 H 0.77464 0.3286 0.32531 0.0
H1324 H 0.73394 0.30727 0.40589 0.0
H1325 H 0.76282 0.25692 0.40201 0.0
H1326 H 0.77958 0.2811 0.41292 0.0
H1327 H 0.77065 0.27701 0.37929 0.0
C1328 C 0.79997 0.3328 0.38202 0.0
C1329 C 0.79648 0.33641 0.35578 0.0
C1330 C 0.78482 0.31891 0.39768 0.0
C1331 C 0.76596 0.30835 0.3873 0.0
C1332 C 0.76241 0.31244 0.36135 0.0
H1333 H 0.67202 0.19823 0.4461 0.0
H1334 H 0.69571 0.22495 0.41818 0.0
C1335 C 0.77757 0.32623 0.34565 0.0
C1336 C 0.75013 0.29247 0.403 0.0
H1337 H 0.73544 0.24775 0.4293 0.0
C1338 C 0.73426 0.29426 0.41104 0.0
C1339 C 0.7504 0.27536 0.40936 0.0
C1340 C 0.76667 0.2723 0.40031 0.0
C1341 C 0.71885 0.27956 0.4257 0.0
C1342 C 0.71935 0.26263 0.43259 0.0
C1343 C 0.73508 0.26074 0.42413 0.0
C1344 C 0.70385 0.24678 0.44879 0.0
C1345 C 0.70203 0.28212 0.43336 0.0
C1346 C 0.70047 0.25014 0.47524 0.0
C1347 C 0.68693 0.23491 0.49109 0.0
C1348 C 0.67643 0.21608 0.48077 0.0
C1349 C 0.6796 0.21272 0.45425 0.0
C1350 C 0.69322 0.22794 0.43842 0.0
H1351 H 0.70147 0.2934 0.42109 0.0
H1352 H 0.68812 0.26835 0.43115 0.0
H1353 H 0.70355 0.28663 0.45458 0.0
H1354 H 0.70874 0.26441 0.48391 0.0
H1355 H 0.68499 0.23773 0.51168 0.0
H1356 H 0.49205 0.68219 0.62352 0.0
H1357 H 0.48881 0.70602 0.59649 0.0
H1358 H 0.43728 0.69346 0.64019 0.0
H1359 H 0.44094 0.67003 0.66774 0.0
H1360 H 0.46159 0.70465 0.56351 0.0
H1361 H 0.46956 0.75117 0.65024 0.0
H1362 H 0.47405 0.73125 0.6525 0.0
H1363 H 0.44968 0.7269 0.6532 0.0
C1364 C 0.47996 0.68445 0.6271 0.0
C1365 C 0.46682 0.67446 0.64774 0.0
C1366 C 0.47811 0.69806 0.61171 0.0
C1367 C 0.46305 0.70193 0.61664 0.0
C1368 C 0.44932 0.69116 0.63642 0.0
H1369 H 0.44049 0.77378 0.50502 0.0
H1370 H 0.43678 0.74677 0.5328 0.0
C1371 C 0.45126 0.67762 0.65194 0.0
C1372 C 0.46209 0.71751 0.60142 0.0
H1373 H 0.46265 0.76036 0.60867 0.0
C1374 C 0.46175 0.71679 0.5734 0.0
C1375 C 0.46261 0.73357 0.61425 0.0
C1376 C 0.46419 0.73594 0.64418 0.0
C1377 C 0.46197 0.7316 0.55792 0.0
C1378 C 0.46205 0.74745 0.57075 0.0
C1379 C 0.46234 0.74814 0.59878 0.0
C1380 C 0.46303 0.76399 0.5555 0.0
C1381 C 0.46286 0.73044 0.52794 0.0
C1382 C 0.47837 0.78289 0.55992 0.0
C1383 C 0.48025 0.79833 0.54444 0.0
C1384 C 0.46687 0.79516 0.52416 0.0
C1385 C 0.45102 0.7765 0.52051 0.0
C1386 C 0.44905 0.76106 0.53615 0.0
H1387 H 0.46787 0.72034 0.52167 0.0
H1388 H 0.44819 0.72504 0.51953 0.0
H1389 H 0.4727 0.74487 0.51918 0.0
H1390 H 0.48928 0.78562 0.57482 0.0
H1391 H 0.49254 0.81264 0.54764 0.0
H1392 H 0.77704 0.4385 0.83132 0.0
H1393 H 0.75005 0.43421 0.80293 0.0
H1394 H 0.78792 0.48847 0.764 0.0
H1395 H 0.81492 0.4923 0.79167 0.0
H1396 H 0.73339 0.45575 0.80047 0.0
H1397 H 0.7621 0.45541 0.70032 0.0
H1398 H 0.77316 0.45311 0.73042 0.0
H1399 H 0.77845 0.47658 0.71879 0.0
C1400 C 0.77958 0.44926 0.81627 0.0
C1401 C 0.79795 0.46573 0.81361 0.0
C1402 C 0.76418 0.44688 0.80017 0.0
C1403 C 0.7669 0.4609 0.781 0.0
C1404 C 0.78544 0.4772 0.7781 0.0
H1405 H 0.68193 0.48697 0.71649 0.0
H1406 H 0.70558 0.48371 0.74391 0.0
C1407 C 0.80085 0.47948 0.79404 0.0
C1408 C 0.7502 0.45911 0.7652 0.0
H1409 H 0.73558 0.46147 0.70187 0.0
C1410 C 0.73381 0.4568 0.77888 0.0
C1411 C 0.75048 0.46016 0.73697 0.0
C1412 C 0.76691 0.46124 0.72076 0.0
C1413 C 0.7181 0.45618 0.76527 0.0
C1414 C 0.7189 0.45838 0.73717 0.0
C1415 C 0.73498 0.46002 0.72342 0.0
C1416 C 0.7035 0.4595 0.72168 0.0
C1417 C 0.70071 0.45297 0.78119 0.0
C1418 C 0.69453 0.44718 0.69977 0.0
C1419 C 0.68114 0.44918 0.684 0.0
C1420 C 0.6765 0.46354 0.68982 0.0
C1421 C 0.68511 0.47561 0.71194 0.0
C1422 C 0.69856 0.47369 0.72763 0.0
H1423 H 0.69955 0.44536 0.80025 0.0
H1424 H 0.70219 0.46717 0.78617 0.0
H1425 H 0.68712 0.44441 0.76974 0.0
H1426 H 0.69813 0.4362 0.69461 0.0
H1427 H 0.67481 0.43987 0.66681 0.0
H1428 H 0.33065 0.77272 0.01264 0.0
H1429 H 0.30677 0.74608 0.98491 0.0
H1430 H 0.31977 0.7856 0.91926 0.0
H1431 H 0.3436 0.81227 0.94714 0.0
H1432 H 0.27993 0.76271 0.9307 0.0
H1433 H 0.3141 0.71726 0.92169 0.0
H1434 H 0.31216 0.72407 0.95522 0.0
H1435 H 0.32744 0.74233 0.93169 0.0
C1436 C 0.32867 0.77556 0.99208 0.0
C1437 C 0.33921 0.79438 0.98176 0.0
C1438 C 0.31506 0.76036 0.97625 0.0
C1439 C 0.31164 0.76374 0.94983 0.0
C1440 C 0.32229 0.78259 0.93947 0.0
H1441 H 0.24095 0.68226 0.82604 0.0
H1442 H 0.26752 0.70634 0.85375 0.0
C1443 C 0.33599 0.79777 0.95528 0.0
C1444 C 0.29612 0.74791 0.93363 0.0
H1445 H 0.28164 0.70342 0.9065 0.0
C1446 C 0.28034 0.74977 0.92537 0.0
C1447 C 0.29668 0.73106 0.92652 0.0
C1448 C 0.31356 0.72854 0.934 0.0
C1449 C 0.26502 0.73517 0.91055 0.0
C1450 C 0.26535 0.71812 0.90396 0.0
C1451 C 0.28128 0.71638 0.91183 0.0
C1452 C 0.24954 0.70229 0.88817 0.0
C1453 C 0.24868 0.7382 0.90171 0.0
C1454 C 0.23069 0.69165 0.89852 0.0
C1455 C 0.21556 0.67778 0.88279 0.0
C1456 C 0.21908 0.67428 0.85651 0.0
C1457 C 0.23799 0.68455 0.8464 0.0
C1458 C 0.25313 0.69831 0.86217 0.0
H1459 H 0.25248 0.75355 0.90356 0.0
H1460 H 0.24466 0.73356 0.88067 0.0
H1461 H 0.23581 0.72932 0.91435 0.0
H1462 H 0.2276 0.69437 0.91858 0.0
H1463 H 0.20102 0.6703 0.89079 0.0
H1464 H 0.53571 0.34082 0.11269 0.0
H1465 H 0.53811 0.31668 0.085 0.0
H1466 H 0.56573 0.30456 0.15007 0.0
H1467 H 0.56336 0.32871 0.17767 0.0
H1468 H 0.58293 0.30738 0.09765 0.0
H1469 H 0.50341 0.25756 0.09961 0.0
H1470 H 0.51121 0.28182 0.08877 0.0
H1471 H 0.51557 0.27754 0.12255 0.0
C1472 C 0.54267 0.33328 0.12077 0.0
C1473 C 0.54963 0.33677 0.14709 0.0
C1474 C 0.54386 0.31938 0.1051 0.0
C1475 C 0.55195 0.30867 0.11553 0.0
C1476 C 0.55945 0.31263 0.14158 0.0
H1477 H 0.53569 0.19858 0.05705 0.0
H1478 H 0.53842 0.22529 0.08468 0.0
C1479 C 0.55815 0.32643 0.15728 0.0
C1480 C 0.55188 0.29282 0.09978 0.0
H1481 H 0.52174 0.24834 0.07273 0.0
C1482 C 0.56957 0.29447 0.09216 0.0
C1483 C 0.53444 0.27584 0.09297 0.0
C1484 C 0.51504 0.2729 0.10153 0.0
C1485 C 0.57025 0.27977 0.07753 0.0
C1486 C 0.55279 0.26299 0.07022 0.0
C1487 C 0.53513 0.26122 0.07822 0.0
C1488 C 0.55245 0.24712 0.05413 0.0
C1489 C 0.58966 0.28218 0.07035 0.0
C1490 C 0.55945 0.25047 0.02781 0.0
C1491 C 0.55791 0.23525 0.01211 0.0
C1492 C 0.54948 0.21643 0.02248 0.0
C1493 C 0.54266 0.21307 0.04886 0.0
C1494 C 0.54409 0.22827 0.06453 0.0
H1495 H 0.60146 0.29343 0.08276 0.0
H1496 H 0.58961 0.26835 0.07279 0.0
H1497 H 0.59289 0.28663 0.04914 0.0
H1498 H 0.56559 0.26475 0.01912 0.0
H1499 H 0.56292 0.23807 0.99163 0.0
loop_
_geom_bond_atom_site_label_1
_geom_bond_atom_site_label_2
_geom_bond_distance
_geom_bond_site_symmetry_2
_ccdc_geom_bond_type
C0 C1 1.443 . S
C0 N4 1.376 . S
C0 C38 1.389 . S
C1 C0 1.443 . S
C1 C2 1.340 . S
C1 H41 0.951 . S
C2 C1 1.340 . S
C2 C3 1.439 . S
C2 H42 0.950 . S
C3 C2 1.439 . S
C3 N4 1.374 . S
C3 C37 1.395 . S
N4 C0 1.376 . S
N4 C3 1.374 . S
N4 Co5 2.008 . S
Co5 N4 2.008 . S
Co5 N6 1.995 . S
Co5 N11 2.008 . S
Co5 N16 1.995 . S
Co5 N21 2.282 . S
Co5 N27 2.282 . S
N6 Co5 1.995 . S
N6 C7 1.376 . S
N6 C10 1.383 . S
C7 N6 1.376 . S
C7 C8 1.446 . S
C7 C37 1.391 . S
C8 C7 1.446 . S
C8 C9 1.339 . S
C8 H43 0.949 . S
C9 C8 1.339 . S
C9 C10 1.439 . S
C9 H44 0.950 . S
C10 N6 1.383 . S
C10 C9 1.439 . S
C10 C39 1.392 . S
N11 Co5 2.008 . S
N11 C12 1.376 . S
N11 C15 1.374 . S
C12 N11 1.376 . S
C12 C13 1.443 . S
C12 C39 1.389 . S
C13 C12 1.443 . S
C13 C14 1.340 . S
C13 H45 0.951 . S
C14 C13 1.340 . S
C14 C15 1.439 . S
C14 H46 0.950 . S
C15 N11 1.374 . S
C15 C14 1.439 . S
C15 C40 1.395 . S
N16 Co5 1.995 . S
N16 C17 1.376 . S
N16 C20 1.383 . S
C17 N16 1.376 . S
C17 C18 1.446 . S
C17 C40 1.391 . S
C18 C17 1.446 . S
C18 C19 1.339 . S
C18 H47 0.949 . S
C19 C18 1.339 . S
C19 C20 1.439 . S
C19 H48 0.950 . S
C20 N16 1.383 . S
C20 C19 1.439 . S
C20 C38 1.392 . S
N21 Co5 2.282 . S
N21 C24 1.332 . S
N21 C26 1.332 . S
C22 C23 1.386 . S
C22 C25 1.388 . S
C23 C22 1.386 . S
C23 C24 1.382 . S
C23 H49 0.950 . S
C24 N21 1.332 . S
C24 C23 1.382 . S
C24 H35 0.952 . S
C25 C22 1.388 . S
C25 C26 1.382 . S
C25 H50 0.950 . S
C26 N21 1.332 . S
C26 C25 1.382 . S
C26 H36 0.948 . S
N27 Co5 2.282 . S
N27 C31 1.332 . S
N27 C32 1.332 . S
C28 C29 1.388 . S
C28 C32 1.382 . S
C28 H51 0.950 . S
C29 C28 1.388 . S
C29 C30 1.386 . S
C30 C29 1.386 . S
C30 C31 1.382 . S
C30 H52 0.950 . S
C31 N27 1.332 . S
C31 C30 1.382 . S
C31 H33 0.952 . S
C32 N27 1.332 . S
C32 C28 1.382 . S
C32 H34 0.948 . S
H33 C31 0.952 . S
H34 C32 0.948 . S
H35 C24 0.952 . S
H36 C26 0.948 . S
C37 C3 1.395 . S
C37 C7 1.391 . S
C38 C0 1.389 . S
C38 C20 1.392 . S
C39 C10 1.392 . S
C39 C12 1.389 . S
C40 C15 1.395 . S
C40 C17 1.391 . S
H41 C1 0.951 . S
H42 C2 0.950 . S
H43 C8 0.949 . S
H44 C9 0.950 . S
H45 C13 0.951 . S
H46 C14 0.950 . S
H47 C18 0.949 . S
H48 C19 0.950 . S
H49 C23 0.950 . S
H50 C25 0.950 . S
H51 C28 0.950 . S
H52 C30 0.950 . S
C53 C54 1.443 . S
C53 N57 1.376 . S
C53 C91 1.389 . S
C54 C53 1.443 . S
C54 C55 1.340 . S
C54 H94 0.951 . S
C55 C54 1.340 . S
C55 C56 1.439 . S
C55 H95 0.950 . S
C56 C55 1.439 . S
C56 N57 1.374 . S
C56 C90 1.395 . S
N57 C53 1.376 . S
N57 C56 1.374 . S
N57 Co58 2.008 . S
Co58 N57 2.008 . S
Co58 N59 1.995 . S
Co58 N64 2.008 . S
Co58 N69 1.995 . S
Co58 N74 2.282 . S
Co58 N80 2.282 . S
N59 Co58 1.995 . S
N59 C60 1.376 . S
N59 C63 1.383 . S
C60 N59 1.376 . S
C60 C61 1.446 . S
C60 C90 1.391 . S
C61 C60 1.446 . S
C61 C62 1.339 . S
C61 H96 0.949 . S
C62 C61 1.339 . S
C62 C63 1.439 . S
C62 H97 0.950 . S
C63 N59 1.383 . S
C63 C62 1.439 . S
C63 C92 1.392 . S
N64 Co58 2.008 . S
N64 C65 1.376 . S
N64 C68 1.374 . S
C65 N64 1.376 . S
C65 C66 1.443 . S
C65 C92 1.389 . S
C66 C65 1.443 . S
C66 C67 1.340 . S
C66 H98 0.951 . S
C67 C66 1.340 . S
C67 C68 1.439 . S
C67 H99 0.950 . S
C68 N64 1.374 . S
C68 C67 1.439 . S
C68 C93 1.395 . S
N69 Co58 1.995 . S
N69 C70 1.376 . S
N69 C73 1.383 . S
C70 N69 1.376 . S
C70 C71 1.446 . S
C70 C93 1.391 . S
C71 C70 1.446 . S
C71 C72 1.339 . S
C71 H100 0.949 . S
C72 C71 1.339 . S
C72 C73 1.439 . S
C72 H101 0.950 . S
C73 N69 1.383 . S
C73 C72 1.439 . S
C73 C91 1.392 . S
N74 Co58 2.282 . S
N74 C77 1.332 . S
N74 C79 1.332 . S
C75 C76 1.386 . S
C75 C78 1.388 . S
C76 C75 1.386 . S
C76 C77 1.382 . S
C76 H102 0.950 . S
C77 N74 1.332 . S
C77 C76 1.382 . S
C77 H88 0.952 . S
C78 C75 1.388 . S
C78 C79 1.382 . S
C78 H103 0.950 . S
C79 N74 1.332 . S
C79 C78 1.382 . S
C79 H89 0.948 . S
N80 Co58 2.282 . S
N80 C84 1.332 . S
N80 C85 1.332 . S
C81 C82 1.388 . S
C81 C85 1.382 . S
C81 H104 0.950 . S
C82 C81 1.388 . S
C82 C83 1.386 . S
C83 C82 1.386 . S
C83 C84 1.382 . S
C83 H105 0.950 . S
C84 N80 1.332 . S
C84 C83 1.382 . S
C84 H86 0.952 . S
C85 N80 1.332 . S
C85 C81 1.382 . S
C85 H87 0.948 . S
H86 C84 0.952 . S
H87 C85 0.948 . S
H88 C77 0.952 . S
H89 C79 0.948 . S
C90 C56 1.395 . S
C90 C60 1.391 . S
C91 C53 1.389 . S
C91 C73 1.392 . S
C92 C63 1.392 . S
C92 C65 1.389 . S
C93 C68 1.395 . S
C93 C70 1.391 . S
H94 C54 0.951 . S
H95 C55 0.950 . S
H96 C61 0.949 . S
H97 C62 0.950 . S
H98 C66 0.951 . S
H99 C67 0.950 . S
H100 C71 0.949 . S
H101 C72 0.950 . S
H102 C76 0.950 . S
H103 C78 0.950 . S
H104 C81 0.950 . S
H105 C83 0.950 . S
C106 C107 1.443 . S
C106 N110 1.376 . S
C106 C144 1.389 . S
C107 C106 1.443 . S
C107 C108 1.340 . S
C107 H147 0.951 . S
C108 C107 1.340 . S
C108 C109 1.439 . S
C108 H148 0.950 . S
C109 C108 1.439 . S
C109 N110 1.374 . S
C109 C143 1.395 . S
N110 C106 1.376 . S
N110 C109 1.374 . S
N110 Co111 2.008 . S
Co111 N110 2.008 . S
Co111 N112 1.995 . S
Co111 N117 2.008 . S
Co111 N122 1.995 . S
Co111 N127 2.282 . S
Co111 N133 2.282 . S
N112 Co111 1.995 . S
N112 C113 1.376 . S
N112 C116 1.383 . S
C113 N112 1.376 . S
C113 C114 1.446 . S
C113 C143 1.391 . S
C114 C113 1.446 . S
C114 C115 1.339 . S
C114 H149 0.949 . S
C115 C114 1.339 . S
C115 C116 1.439 . S
C115 H150 0.950 . S
C116 N112 1.383 . S
C116 C115 1.439 . S
C116 C145 1.392 . S
N117 Co111 2.008 . S
N117 C118 1.376 . S
N117 C121 1.374 . S
C118 N117 1.376 . S
C118 C119 1.443 . S
C118 C145 1.389 . S
C119 C118 1.443 . S
C119 C120 1.340 . S
C119 H151 0.951 . S
C120 C119 1.340 . S
C120 C121 1.439 . S
C120 H152 0.950 . S
C121 N117 1.374 . S
C121 C120 1.439 . S
C121 C146 1.395 . S
N122 Co111 1.995 . S
N122 C123 1.376 . S
N122 C126 1.383 . S
C123 N122 1.376 . S
C123 C124 1.446 . S
C123 C146 1.391 . S
C124 C123 1.446 . S
C124 C125 1.339 . S
C124 H153 0.949 . S
C125 C124 1.339 . S
C125 C126 1.439 . S
C125 H154 0.950 . S
C126 N122 1.383 . S
C126 C125 1.439 . S
C126 C144 1.392 . S
N127 Co111 2.282 . S
N127 C130 1.332 . S
N127 C132 1.332 . S
C128 C129 1.386 . S
C128 C131 1.388 . S
C129 C128 1.386 . S
C129 C130 1.382 . S
C129 H155 0.950 . S
C130 N127 1.332 . S
C130 C129 1.382 . S
C130 H141 0.952 . S
C131 C128 1.388 . S
C131 C132 1.382 . S
C131 H156 0.950 . S
C132 N127 1.332 . S
C132 C131 1.382 . S
C132 H142 0.948 . S
N133 Co111 2.282 . S
N133 C137 1.332 . S
N133 C138 1.332 . S
C134 C135 1.388 . S
C134 C138 1.382 . S
C134 H157 0.950 . S
C135 C134 1.388 . S
C135 C136 1.386 . S
C136 C135 1.386 . S
C136 C137 1.382 . S
C136 H158 0.950 . S
C137 N133 1.332 . S
C137 C136 1.382 . S
C137 H139 0.952 . S
C138 N133 1.332 . S
C138 C134 1.382 . S
C138 H140 0.948 . S
H139 C137 0.952 . S
H140 C138 0.948 . S
H141 C130 0.952 . S
H142 C132 0.948 . S
C143 C109 1.395 . S
C143 C113 1.391 . S
C144 C106 1.389 . S
C144 C126 1.392 . S
C145 C116 1.392 . S
C145 C118 1.389 . S
C146 C121 1.395 . S
C146 C123 1.391 . S
H147 C107 0.951 . S
H148 C108 0.950 . S
H149 C114 0.949 . S
H150 C115 0.950 . S
H151 C119 0.951 . S
H152 C120 0.950 . S
H153 C124 0.949 . S
H154 C125 0.950 . S
H155 C129 0.950 . S
H156 C131 0.950 . S
H157 C134 0.950 . S
H158 C136 0.950 . S
C159 C160 1.443 . S
C159 N163 1.376 . S
C159 C197 1.389 . S
C160 C159 1.443 . S
C160 C161 1.340 . S
C160 H200 0.951 . S
C161 C160 1.340 . S
C161 C162 1.439 . S
C161 H201 0.950 . S
C162 C161 1.439 . S
C162 N163 1.374 . S
C162 C196 1.395 . S
N163 C159 1.376 . S
N163 C162 1.374 . S
N163 Co164 2.008 . S
Co164 N163 2.008 . S
Co164 N165 1.995 . S
Co164 N170 2.008 . S
Co164 N175 1.995 . S
Co164 N180 2.282 . S
Co164 N186 2.282 . S
N165 Co164 1.995 . S
N165 C166 1.376 . S
N165 C169 1.383 . S
C166 N165 1.376 . S
C166 C167 1.446 . S
C166 C196 1.391 . S
C167 C166 1.446 . S
C167 C168 1.339 . S
C167 H202 0.949 . S
C168 C167 1.339 . S
C168 C169 1.439 . S
C168 H203 0.950 1_556 S
C169 N165 1.383 . S
C169 C168 1.439 . S
C169 C198 1.392 . S
N170 Co164 2.008 . S
N170 C171 1.376 . S
N170 C174 1.374 . S
C171 N170 1.376 . S
C171 C172 1.443 . S
C171 C198 1.389 . S
C172 C171 1.443 . S
C172 C173 1.340 . S
C172 H204 0.951 . S
C173 C172 1.340 . S
C173 C174 1.439 . S
C173 H205 0.950 . S
C174 N170 1.374 . S
C174 C173 1.439 . S
C174 C199 1.395 . S
N175 Co164 1.995 . S
N175 C176 1.376 . S
N175 C179 1.383 . S
C176 N175 1.376 . S
C176 C177 1.446 . S
C176 C199 1.391 . S
C177 C176 1.446 . S
C177 C178 1.339 . S
C177 H206 0.949 . S
C178 C177 1.339 . S
C178 C179 1.439 . S
C178 H207 0.950 . S
C179 N175 1.383 . S
C179 C178 1.439 . S
C179 C197 1.392 . S
N180 Co164 2.282 . S
N180 C183 1.332 . S
N180 C185 1.332 . S
C181 C182 1.386 . S
C181 C184 1.388 . S
C182 C181 1.386 . S
C182 C183 1.382 . S
C182 H208 0.950 . S
C183 N180 1.332 . S
C183 C182 1.382 . S
C183 H194 0.952 . S
C184 C181 1.388 . S
C184 C185 1.382 . S
C184 H209 0.950 . S
C185 N180 1.332 . S
C185 C184 1.382 . S
C185 H195 0.948 . S
N186 Co164 2.282 . S
N186 C190 1.332 . S
N186 C191 1.332 . S
C187 C188 1.388 . S
C187 C191 1.382 . S
C187 H210 0.950 . S
C188 C187 1.388 . S
C188 C189 1.386 . S
C189 C188 1.386 . S
C189 C190 1.382 . S
C189 H211 0.950 . S
C190 N186 1.332 . S
C190 C189 1.382 . S
C190 H192 0.952 . S
C191 N186 1.332 . S
C191 C187 1.382 . S
C191 H193 0.948 . S
H192 C190 0.952 . S
H193 C191 0.948 . S
H194 C183 0.952 . S
H195 C185 0.948 . S
C196 C162 1.395 . S
C196 C166 1.391 . S
C197 C159 1.389 . S
C197 C179 1.392 . S
C198 C169 1.392 . S
C198 C171 1.389 . S
C199 C174 1.395 . S
C199 C176 1.391 . S
H200 C160 0.951 . S
H201 C161 0.950 . S
H202 C167 0.949 . S
H203 C168 0.950 1_554 S
H204 C172 0.951 . S
H205 C173 0.950 . S
H206 C177 0.949 . S
H207 C178 0.950 . S
H208 C182 0.950 . S
H209 C184 0.950 . S
H210 C187 0.950 . S
H211 C189 0.950 . S
C212 C213 1.443 . S
C212 N216 1.376 . S
C212 C250 1.389 . S
C213 C212 1.443 . S
C213 C214 1.340 . S
C213 H253 0.951 . S
C214 C213 1.340 . S
C214 C215 1.439 . S
C214 H254 0.950 . S
C215 C214 1.439 . S
C215 N216 1.374 . S
C215 C249 1.395 . S
N216 C212 1.376 . S
N216 C215 1.374 . S
N216 Co217 2.008 . S
Co217 N216 2.008 . S
Co217 N218 1.995 . S
Co217 N223 2.008 . S
Co217 N228 1.995 . S
Co217 N233 2.282 . S
Co217 N239 2.282 . S
N218 Co217 1.995 . S
N218 C219 1.376 . S
N218 C222 1.383 . S
C219 N218 1.376 . S
C219 C220 1.446 . S
C219 C249 1.391 . S
C220 C219 1.446 . S
C220 C221 1.339 . S
C220 H255 0.949 . S
C221 C220 1.339 . S
C221 C222 1.439 . S
C221 H256 0.950 . S
C222 N218 1.383 . S
C222 C221 1.439 . S
C222 C251 1.392 . S
N223 Co217 2.008 . S
N223 C224 1.376 . S
N223 C227 1.374 . S
C224 N223 1.376 . S
C224 C225 1.443 . S
C224 C251 1.389 . S
C225 C224 1.443 . S
C225 C226 1.340 . S
C225 H257 0.951 . S
C226 C225 1.340 . S
C226 C227 1.439 . S
C226 H258 0.950 . S
C227 N223 1.374 . S
C227 C226 1.439 . S
C227 C252 1.395 . S
N228 Co217 1.995 . S
N228 C229 1.376 . S
N228 C232 1.383 . S
C229 N228 1.376 . S
C229 C230 1.446 1_554 S
C229 C252 1.391 . S
C230 C229 1.446 1_556 S
C230 C231 1.339 . S
C230 H259 0.949 . S
C231 C230 1.339 . S
C231 C232 1.439 1_556 S
C231 H260 0.950 . S
C232 N228 1.383 . S
C232 C231 1.439 1_554 S
C232 C250 1.392 . S
N233 Co217 2.282 . S
N233 C236 1.332 . S
N233 C238 1.332 . S
C234 C235 1.386 . S
C234 C237 1.388 . S
C235 C234 1.386 . S
C235 C236 1.382 . S
C235 H261 0.950 . S
C236 N233 1.332 . S
C236 C235 1.382 . S
C236 H247 0.952 . S
C237 C234 1.388 . S
C237 C238 1.382 . S
C237 H262 0.950 . S
C238 N233 1.332 . S
C238 C237 1.382 . S
C238 H248 0.948 . S
N239 Co217 2.282 . S
N239 C243 1.332 . S
N239 C244 1.332 . S
C240 C241 1.388 . S
C240 C244 1.382 . S
C240 H263 0.950 . S
C241 C240 1.388 . S
C241 C242 1.386 . S
C242 C241 1.386 . S
C242 C243 1.382 . S
C242 H264 0.950 . S
C243 N239 1.332 . S
C243 C242 1.382 . S
C243 H245 0.952 . S
C244 N239 1.332 . S
C244 C240 1.382 . S
C244 H246 0.948 . S
H245 C243 0.952 . S
H246 C244 0.948 . S
H247 C236 0.952 . S
H248 C238 0.948 . S
C249 C215 1.395 . S
C249 C219 1.391 . S
C250 C212 1.389 . S
C250 C232 1.392 . S
C251 C222 1.392 . S
C251 C224 1.389 . S
C252 C227 1.395 . S
C252 C229 1.391 . S
H253 C213 0.951 . S
H254 C214 0.950 . S
H255 C220 0.949 . S
H256 C221 0.950 . S
H257 C225 0.951 . S
H258 C226 0.950 . S
H259 C230 0.949 . S
H260 C231 0.950 . S
H261 C235 0.950 . S
H262 C237 0.950 . S
H263 C240 0.950 . S
H264 C242 0.950 . S
C265 C266 1.443 . S
C265 N269 1.376 . S
C265 C303 1.389 . S
C266 C265 1.443 . S
C266 C267 1.340 . S
C266 H306 0.951 . S
C267 C266 1.340 . S
C267 C268 1.439 . S
C267 H307 0.950 . S
C268 C267 1.439 . S
C268 N269 1.374 . S
C268 C302 1.395 . S
N269 C265 1.376 . S
N269 C268 1.374 . S
N269 Co270 2.008 . S
Co270 N269 2.008 . S
Co270 N271 1.995 . S
Co270 N276 2.008 . S
Co270 N281 1.995 . S
Co270 N286 2.282 . S
Co270 N292 2.282 . S
N271 Co270 1.995 . S
N271 C272 1.376 . S
N271 C275 1.383 . S
C272 N271 1.376 . S
C272 C273 1.446 . S
C272 C302 1.391 . S
C273 C272 1.446 . S
C273 C274 1.339 . S
C273 H308 0.949 . S
C274 C273 1.339 . S
C274 C275 1.439 . S
C274 H309 0.950 . S
C275 N271 1.383 . S
C275 C274 1.439 . S
C275 C304 1.392 . S
N276 Co270 2.008 . S
N276 C277 1.376 . S
N276 C280 1.374 . S
C277 N276 1.376 . S
C277 C278 1.443 . S
C277 C304 1.389 . S
C278 C277 1.443 . S
C278 C279 1.340 . S
C278 H310 0.951 . S
C279 C278 1.340 . S
C279 C280 1.439 . S
C279 H311 0.950 . S
C280 N276 1.374 . S
C280 C279 1.439 . S
C280 C305 1.395 . S
N281 Co270 1.995 . S
N281 C282 1.376 . S
N281 C285 1.383 . S
C282 N281 1.376 . S
C282 C283 1.446 . S
C282 C305 1.391 . S
C283 C282 1.446 . S
C283 C284 1.339 . S
C283 H312 0.949 . S
C284 C283 1.339 . S
C284 C285 1.439 . S
C284 H313 0.950 . S
C285 N281 1.383 . S
C285 C284 1.439 . S
C285 C303 1.392 . S
N286 Co270 2.282 . S
N286 C289 1.332 . S
N286 C291 1.332 . S
C287 C288 1.386 . S
C287 C290 1.388 . S
C288 C287 1.386 . S
C288 C289 1.382 . S
C288 H314 0.950 . S
C289 N286 1.332 . S
C289 C288 1.382 . S
C289 H300 0.952 . S
C290 C287 1.388 . S
C290 C291 1.382 . S
C290 H315 0.950 . S
C291 N286 1.332 . S
C291 C290 1.382 . S
C291 H301 0.948 . S
N292 Co270 2.282 . S
N292 C296 1.332 . S
N292 C297 1.332 . S
C293 C294 1.388 . S
C293 C297 1.382 . S
C293 H316 0.950 . S
C294 C293 1.388 . S
C294 C295 1.386 . S
C295 C294 1.386 . S
C295 C296 1.382 . S
C295 H317 0.950 . S
C296 N292 1.332 . S
C296 C295 1.382 . S
C296 H298 0.952 . S
C297 N292 1.332 . S
C297 C293 1.382 . S
C297 H299 0.948 . S
H298 C296 0.952 . S
H299 C297 0.948 . S
H300 C289 0.952 . S
H301 C291 0.948 . S
C302 C268 1.395 . S
C302 C272 1.391 . S
C303 C265 1.389 . S
C303 C285 1.392 . S
C304 C275 1.392 . S
C304 C277 1.389 . S
C305 C280 1.395 . S
C305 C282 1.391 . S
H306 C266 0.951 . S
H307 C267 0.950 . S
H308 C273 0.949 . S
H309 C274 0.950 . S
H310 C278 0.951 . S
H311 C279 0.950 . S
H312 C283 0.949 . S
H313 C284 0.950 . S
H314 C288 0.950 . S
H315 C290 0.950 . S
H316 C293 0.950 . S
H317 C295 0.950 . S
C318 C319 1.443 . S
C318 N322 1.376 . S
C318 C356 1.389 . S
C319 C318 1.443 . S
C319 C320 1.340 . S
C319 H359 0.951 . S
C320 C319 1.340 . S
C320 C321 1.439 . S
C320 H360 0.950 . S
C321 C320 1.439 . S
C321 N322 1.374 . S
C321 C355 1.395 . S
N322 C318 1.376 . S
N322 C321 1.374 . S
N322 Co323 2.008 . S
Co323 N322 2.008 . S
Co323 N324 1.995 . S
Co323 N329 2.008 . S
Co323 N334 1.995 . S
Co323 N339 2.282 . S
Co323 N345 2.282 . S
N324 Co323 1.995 . S
N324 C325 1.376 . S
N324 C328 1.383 . S
C325 N324 1.376 . S
C325 C326 1.446 . S
C325 C355 1.391 . S
C326 C325 1.446 . S
C326 C327 1.339 . S
C326 H361 0.949 . S
C327 C326 1.339 . S
C327 C328 1.439 . S
C327 H362 0.950 . S
C328 N324 1.383 . S
C328 C327 1.439 . S
C328 C357 1.392 . S
N329 Co323 2.008 . S
N329 C330 1.376 . S
N329 C333 1.374 . S
C330 N329 1.376 . S
C330 C331 1.443 . S
C330 C357 1.389 . S
C331 C330 1.443 . S
C331 C332 1.340 . S
C331 H363 0.951 . S
C332 C331 1.340 . S
C332 C333 1.439 . S
C332 H364 0.950 . S
C333 N329 1.374 . S
C333 C332 1.439 . S
C333 C358 1.395 . S
N334 Co323 1.995 . S
N334 C335 1.376 . S
N334 C338 1.383 . S
C335 N334 1.376 . S
C335 C336 1.446 . S
C335 C358 1.391 . S
C336 C335 1.446 . S
C336 C337 1.339 . S
C336 H365 0.949 . S
C337 C336 1.339 . S
C337 C338 1.439 . S
C337 H366 0.950 . S
C338 N334 1.383 . S
C338 C337 1.439 . S
C338 C356 1.392 . S
N339 Co323 2.282 . S
N339 C342 1.332 . S
N339 C344 1.332 . S
C340 C341 1.386 . S
C340 C343 1.388 . S
C341 C340 1.386 . S
C341 C342 1.382 . S
C341 H367 0.950 . S
C342 N339 1.332 . S
C342 C341 1.382 . S
C342 H353 0.952 . S
C343 C340 1.388 . S
C343 C344 1.382 . S
C343 H368 0.950 . S
C344 N339 1.332 . S
C344 C343 1.382 . S
C344 H354 0.948 . S
N345 Co323 2.282 . S
N345 C349 1.332 . S
N345 C350 1.332 . S
C346 C347 1.388 . S
C346 C350 1.382 . S
C346 H369 0.950 . S
C347 C346 1.388 . S
C347 C348 1.386 . S
C348 C347 1.386 . S
C348 C349 1.382 . S
C348 H370 0.950 . S
C349 N345 1.332 . S
C349 C348 1.382 . S
C349 H351 0.952 . S
C350 N345 1.332 . S
C350 C346 1.382 . S
C350 H352 0.948 . S
H351 C349 0.952 . S
H352 C350 0.948 . S
H353 C342 0.952 . S
H354 C344 0.948 . S
C355 C321 1.395 . S
C355 C325 1.391 . S
C356 C318 1.389 . S
C356 C338 1.392 . S
C357 C328 1.392 . S
C357 C330 1.389 . S
C358 C333 1.395 . S
C358 C335 1.391 . S
H359 C319 0.951 . S
H360 C320 0.950 . S
H361 C326 0.949 . S
H362 C327 0.950 . S
H363 C331 0.951 . S
H364 C332 0.950 . S
H365 C336 0.949 . S
H366 C337 0.950 . S
H367 C341 0.950 . S
H368 C343 0.950 . S
H369 C346 0.950 . S
H370 C348 0.950 . S
C371 C372 1.443 . S
C371 N375 1.376 . S
C371 C409 1.389 . S
C372 C371 1.443 . S
C372 C373 1.340 . S
C372 H412 0.951 . S
C373 C372 1.340 . S
C373 C374 1.439 . S
C373 H413 0.950 . S
C374 C373 1.439 . S
C374 N375 1.374 . S
C374 C408 1.395 . S
N375 C371 1.376 . S
N375 C374 1.374 . S
N375 Co376 2.008 . S
Co376 N375 2.008 . S
Co376 N377 1.995 . S
Co376 N382 2.008 . S
Co376 N387 1.995 . S
Co376 N392 2.282 . S
Co376 N398 2.282 . S
N377 Co376 1.995 . S
N377 C378 1.376 . S
N377 C381 1.383 . S
C378 N377 1.376 . S
C378 C379 1.446 . S
C378 C408 1.391 . S
C379 C378 1.446 . S
C379 C380 1.339 . S
C379 H414 0.949 . S
C380 C379 1.339 . S
C380 C381 1.439 . S
C380 H415 0.950 . S
C381 N377 1.383 . S
C381 C380 1.439 . S
C381 C410 1.392 . S
N382 Co376 2.008 . S
N382 C383 1.376 . S
N382 C386 1.374 . S
C383 N382 1.376 . S
C383 C384 1.443 . S
C383 C410 1.389 . S
C384 C383 1.443 . S
C384 C385 1.340 . S
C384 H416 0.951 . S
C385 C384 1.340 . S
C385 C386 1.439 . S
C385 H417 0.950 . S
C386 N382 1.374 . S
C386 C385 1.439 . S
C386 C411 1.395 . S
N387 Co376 1.995 . S
N387 C388 1.376 . S
N387 C391 1.383 . S
C388 N387 1.376 . S
C388 C389 1.446 . S
C388 C411 1.391 . S
C389 C388 1.446 . S
C389 C390 1.339 . S
C389 H418 0.949 . S
C390 C389 1.339 . S
C390 C391 1.439 . S
C390 H419 0.950 . S
C391 N387 1.383 . S
C391 C390 1.439 . S
C391 C409 1.392 . S
N392 Co376 2.282 . S
N392 C395 1.332 . S
N392 C397 1.332 . S
C393 C394 1.386 . S
C393 C396 1.388 . S
C394 C393 1.386 . S
C394 C395 1.382 . S
C394 H420 0.950 . S
C395 N392 1.332 . S
C395 C394 1.382 . S
C395 H406 0.952 . S
C396 C393 1.388 . S
C396 C397 1.382 . S
C396 H421 0.950 . S
C397 N392 1.332 . S
C397 C396 1.382 . S
C397 H407 0.948 . S
N398 Co376 2.282 . S
N398 C402 1.332 . S
N398 C403 1.332 . S
C399 C400 1.388 . S
C399 C403 1.382 . S
C399 H422 0.950 . S
C400 C399 1.388 . S
C400 C401 1.386 . S
C401 C400 1.386 . S
C401 C402 1.382 . S
C401 H423 0.950 . S
C402 N398 1.332 . S
C402 C401 1.382 . S
C402 H404 0.952 . S
C403 N398 1.332 . S
C403 C399 1.382 . S
C403 H405 0.948 . S
H404 C402 0.952 . S
H405 C403 0.948 . S
H406 C395 0.952 . S
H407 C397 0.948 . S
C408 C374 1.395 . S
C408 C378 1.391 . S
C409 C371 1.389 . S
C409 C391 1.392 . S
C410 C381 1.392 . S
C410 C383 1.389 . S
C411 C386 1.395 . S
C411 C388 1.391 . S
H412 C372 0.951 . S
H413 C373 0.950 . S
H414 C379 0.949 . S
H415 C380 0.950 . S
H416 C384 0.951 . S
H417 C385 0.950 . S
H418 C389 0.949 . S
H419 C390 0.950 . S
H420 C394 0.950 . S
H421 C396 0.950 . S
H422 C399 0.950 . S
H423 C401 0.950 . S
C424 C425 1.443 . S
C424 N428 1.376 . S
C424 C462 1.389 . S
C425 C424 1.443 . S
C425 C426 1.340 . S
C425 H465 0.951 . S
C426 C425 1.340 . S
C426 C427 1.439 . S
C426 H466 0.950 . S
C427 C426 1.439 . S
C427 N428 1.374 . S
C427 C461 1.395 . S
N428 C424 1.376 . S
N428 C427 1.374 . S
N428 Co429 2.008 . S
Co429 N428 2.008 . S
Co429 N430 1.995 . S
Co429 N435 2.008 . S
Co429 N440 1.995 . S
Co429 N445 2.282 . S
Co429 N451 2.282 . S
N430 Co429 1.995 . S
N430 C431 1.376 . S
N430 C434 1.383 . S
C431 N430 1.376 . S
C431 C432 1.446 . S
C431 C461 1.391 . S
C432 C431 1.446 . S
C432 C433 1.339 . S
C432 H467 0.949 . S
C433 C432 1.339 . S
C433 C434 1.439 . S
C433 H468 0.950 . S
C434 N430 1.383 . S
C434 C433 1.439 . S
C434 C463 1.392 . S
N435 Co429 2.008 . S
N435 C436 1.376 . S
N435 C439 1.374 . S
C436 N435 1.376 . S
C436 C437 1.443 . S
C436 C463 1.389 . S
C437 C436 1.443 . S
C437 C438 1.340 . S
C437 H469 0.951 . S
C438 C437 1.340 . S
C438 C439 1.439 . S
C438 H470 0.950 . S
C439 N435 1.374 . S
C439 C438 1.439 . S
C439 C464 1.395 . S
N440 Co429 1.995 . S
N440 C441 1.376 . S
N440 C444 1.383 . S
C441 N440 1.376 . S
C441 C442 1.446 . S
C441 C464 1.391 . S
C442 C441 1.446 . S
C442 C443 1.339 . S
C442 H471 0.949 . S
C443 C442 1.339 . S
C443 C444 1.439 . S
C443 H472 0.950 . S
C444 N440 1.383 . S
C444 C443 1.439 . S
C444 C462 1.392 . S
N445 Co429 2.282 . S
N445 C448 1.332 . S
N445 C450 1.332 . S
C446 C447 1.386 . S
C446 C449 1.388 . S
C447 C446 1.386 . S
C447 C448 1.382 . S
C447 H473 0.950 . S
C448 N445 1.332 . S
C448 C447 1.382 . S
C448 H459 0.952 . S
C449 C446 1.388 . S
C449 C450 1.382 . S
C449 H474 0.950 . S
C450 N445 1.332 . S
C450 C449 1.382 . S
C450 H460 0.948 . S
N451 Co429 2.282 . S
N451 C455 1.332 . S
N451 C456 1.332 . S
C452 C453 1.388 . S
C452 C456 1.382 . S
C452 H475 0.950 . S
C453 C452 1.388 . S
C453 C454 1.386 . S
C454 C453 1.386 . S
C454 C455 1.382 . S
C454 H476 0.950 . S
C455 N451 1.332 . S
C455 C454 1.382 . S
C455 H457 0.952 . S
C456 N451 1.332 . S
C456 C452 1.382 . S
C456 H458 0.948 . S
H457 C455 0.952 . S
H458 C456 0.948 . S
H459 C448 0.952 . S
H460 C450 0.948 . S
C461 C427 1.395 . S
C461 C431 1.391 . S
C462 C424 1.389 . S
C462 C444 1.392 . S
C463 C434 1.392 . S
C463 C436 1.389 . S
C464 C439 1.395 . S
C464 C441 1.391 . S
H465 C425 0.951 . S
H466 C426 0.950 . S
H467 C432 0.949 . S
H468 C433 0.950 . S
H469 C437 0.951 . S
H470 C438 0.950 . S
H471 C442 0.949 . S
H472 C443 0.950 . S
H473 C447 0.950 . S
H474 C449 0.950 . S
H475 C452 0.950 . S
H476 C454 0.950 . S
C477 C478 1.443 . S
C477 N481 1.376 . S
C477 C515 1.389 . S
C478 C477 1.443 . S
C478 C479 1.340 . S
C478 H518 0.951 . S
C479 C478 1.340 . S
C479 C480 1.439 . S
C479 H519 0.950 . S
C480 C479 1.439 . S
C480 N481 1.374 . S
C480 C514 1.395 . S
N481 C477 1.376 . S
N481 C480 1.374 . S
N481 Co482 2.008 . S
Co482 N481 2.008 . S
Co482 N483 1.995 . S
Co482 N488 2.008 . S
Co482 N493 1.995 . S
Co482 N498 2.282 . S
Co482 N504 2.282 . S
N483 Co482 1.995 . S
N483 C484 1.376 . S
N483 C487 1.383 . S
C484 N483 1.376 . S
C484 C485 1.446 . S
C484 C514 1.391 . S
C485 C484 1.446 . S
C485 C486 1.339 . S
C485 H520 0.949 . S
C486 C485 1.339 . S
C486 C487 1.439 . S
C486 H521 0.950 . S
C487 N483 1.383 . S
C487 C486 1.439 . S
C487 C516 1.392 . S
N488 Co482 2.008 . S
N488 C489 1.376 . S
N488 C492 1.374 . S
C489 N488 1.376 . S
C489 C490 1.443 . S
C489 C516 1.389 . S
C490 C489 1.443 . S
C490 C491 1.340 . S
C490 H522 0.951 . S
C491 C490 1.340 . S
C491 C492 1.439 . S
C491 H523 0.950 . S
C492 N488 1.374 . S
C492 C491 1.439 . S
C492 C517 1.395 . S
N493 Co482 1.995 . S
N493 C494 1.376 . S
N493 C497 1.383 . S
C494 N493 1.376 . S
C494 C495 1.446 1_556 S
C494 C517 1.391 . S
C495 C494 1.446 1_554 S
C495 C496 1.339 . S
C495 H524 0.949 . S
C496 C495 1.339 . S
C496 C497 1.439 1_554 S
C496 H525 0.950 . S
C497 N493 1.383 . S
C497 C496 1.439 1_556 S
C497 C515 1.392 . S
N498 Co482 2.282 . S
N498 C501 1.332 . S
N498 C503 1.332 . S
C499 C500 1.386 . S
C499 C502 1.388 . S
C500 C499 1.386 . S
C500 C501 1.382 . S
C500 H526 0.950 . S
C501 N498 1.332 . S
C501 C500 1.382 . S
C501 H512 0.952 . S
C502 C499 1.388 . S
C502 C503 1.382 . S
C502 H527 0.950 . S
C503 N498 1.332 . S
C503 C502 1.382 . S
C503 H513 0.948 . S
N504 Co482 2.282 . S
N504 C508 1.332 . S
N504 C509 1.332 . S
C505 C506 1.388 . S
C505 C509 1.382 . S
C505 H528 0.950 . S
C506 C505 1.388 . S
C506 C507 1.386 . S
C507 C506 1.386 . S
C507 C508 1.382 . S
C507 H529 0.950 . S
C508 N504 1.332 . S
C508 C507 1.382 . S
C508 H510 0.952 . S
C509 N504 1.332 . S
C509 C505 1.382 . S
C509 H511 0.948 . S
H510 C508 0.952 . S
H511 C509 0.948 . S
H512 C501 0.952 . S
H513 C503 0.948 . S
C514 C480 1.395 . S
C514 C484 1.391 . S
C515 C477 1.389 . S
C515 C497 1.392 . S
C516 C487 1.392 . S
C516 C489 1.389 . S
C517 C492 1.395 . S
C517 C494 1.391 . S
H518 C478 0.951 . S
H519 C479 0.950 . S
H520 C485 0.949 . S
H521 C486 0.950 . S
H522 C490 0.951 . S
H523 C491 0.950 . S
H524 C495 0.949 . S
H525 C496 0.950 . S
H526 C500 0.950 . S
H527 C502 0.950 . S
H528 C505 0.950 . S
H529 C507 0.950 . S
C530 C531 1.443 . S
C530 N534 1.376 . S
C530 C568 1.389 . S
C531 C530 1.443 . S
C531 C532 1.340 . S
C531 H571 0.951 . S
C532 C531 1.340 . S
C532 C533 1.439 . S
C532 H572 0.950 . S
C533 C532 1.439 . S
C533 N534 1.374 . S
C533 C567 1.395 . S
N534 C530 1.376 . S
N534 C533 1.374 . S
N534 Co535 2.008 . S
Co535 N534 2.008 . S
Co535 N536 1.995 . S
Co535 N541 2.008 . S
Co535 N546 1.995 . S
Co535 N551 2.282 . S
Co535 N557 2.282 . S
N536 Co535 1.995 . S
N536 C537 1.376 . S
N536 C540 1.383 . S
C537 N536 1.376 . S
C537 C538 1.446 . S
C537 C567 1.391 . S
C538 C537 1.446 . S
C538 C539 1.339 . S
C538 H573 0.949 . S
C539 C538 1.339 . S
C539 C540 1.439 . S
C539 H574 0.950 1_554 S
C540 N536 1.383 . S
C540 C539 1.439 . S
C540 C569 1.392 . S
N541 Co535 2.008 . S
N541 C542 1.376 . S
N541 C545 1.374 . S
C542 N541 1.376 . S
C542 C543 1.443 . S
C542 C569 1.389 . S
C543 C542 1.443 . S
C543 C544 1.340 . S
C543 H575 0.951 . S
C544 C543 1.340 . S
C544 C545 1.439 . S
C544 H576 0.950 . S
C545 N541 1.374 . S
C545 C544 1.439 . S
C545 C570 1.395 . S
N546 Co535 1.995 . S
N546 C547 1.376 . S
N546 C550 1.383 . S
C547 N546 1.376 . S
C547 C548 1.446 . S
C547 C570 1.391 . S
C548 C547 1.446 . S
C548 C549 1.339 . S
C548 H577 0.949 . S
C549 C548 1.339 . S
C549 C550 1.439 . S
C549 H578 0.950 . S
C550 N546 1.383 . S
C550 C549 1.439 . S
C550 C568 1.392 . S
N551 Co535 2.282 . S
N551 C554 1.332 . S
N551 C556 1.332 . S
C552 C553 1.386 . S
C552 C555 1.388 . S
C553 C552 1.386 . S
C553 C554 1.382 . S
C553 H579 0.950 . S
C554 N551 1.332 . S
C554 C553 1.382 . S
C554 H565 0.952 . S
C555 C552 1.388 . S
C555 C556 1.382 . S
C555 H580 0.950 . S
C556 N551 1.332 . S
C556 C555 1.382 . S
C556 H566 0.948 . S
N557 Co535 2.282 . S
N557 C561 1.332 . S
N557 C562 1.332 . S
C558 C559 1.388 . S
C558 C562 1.382 . S
C558 H581 0.950 . S
C559 C558 1.388 . S
C559 C560 1.386 . S
C560 C559 1.386 . S
C560 C561 1.382 . S
C560 H582 0.950 . S
C561 N557 1.332 . S
C561 C560 1.382 . S
C561 H563 0.952 . S
C562 N557 1.332 . S
C562 C558 1.382 . S
C562 H564 0.948 . S
H563 C561 0.952 . S
H564 C562 0.948 . S
H565 C554 0.952 . S
H566 C556 0.948 . S
C567 C533 1.395 . S
C567 C537 1.391 . S
C568 C530 1.389 . S
C568 C550 1.392 . S
C569 C540 1.392 . S
C569 C542 1.389 . S
C570 C545 1.395 . S
C570 C547 1.391 . S
H571 C531 0.951 . S
H572 C532 0.950 . S
H573 C538 0.949 . S
H574 C539 0.950 1_556 S
H575 C543 0.951 . S
H576 C544 0.950 . S
H577 C548 0.949 . S
H578 C549 0.950 . S
H579 C553 0.950 . S
H580 C555 0.950 . S
H581 C558 0.950 . S
H582 C560 0.950 . S
C583 C584 1.443 . S
C583 N587 1.376 . S
C583 C621 1.389 . S
C584 C583 1.443 . S
C584 C585 1.340 . S
C584 H624 0.951 . S
C585 C584 1.340 . S
C585 C586 1.439 . S
C585 H625 0.950 . S
C586 C585 1.439 . S
C586 N587 1.374 . S
C586 C620 1.395 . S
N587 C583 1.376 . S
N587 C586 1.374 . S
N587 Co588 2.008 . S
Co588 N587 2.008 . S
Co588 N589 1.995 . S
Co588 N594 2.008 . S
Co588 N599 1.995 . S
Co588 N604 2.282 . S
Co588 N610 2.282 . S
N589 Co588 1.995 . S
N589 C590 1.376 . S
N589 C593 1.383 . S
C590 N589 1.376 . S
C590 C591 1.446 . S
C590 C620 1.391 . S
C591 C590 1.446 . S
C591 C592 1.339 . S
C591 H626 0.949 . S
C592 C591 1.339 . S
C592 C593 1.439 . S
C592 H627 0.950 . S
C593 N589 1.383 . S
C593 C592 1.439 . S
C593 C622 1.392 . S
N594 Co588 2.008 . S
N594 C595 1.376 . S
N594 C598 1.374 . S
C595 N594 1.376 . S
C595 C596 1.443 . S
C595 C622 1.389 . S
C596 C595 1.443 . S
C596 C597 1.340 . S
C596 H628 0.951 . S
C597 C596 1.340 . S
C597 C598 1.439 . S
C597 H629 0.950 . S
C598 N594 1.374 . S
C598 C597 1.439 . S
C598 C623 1.395 . S
N599 Co588 1.995 . S
N599 C600 1.376 . S
N599 C603 1.383 . S
C600 N599 1.376 . S
C600 C601 1.446 . S
C600 C623 1.391 . S
C601 C600 1.446 . S
C601 C602 1.339 . S
C601 H630 0.949 . S
C602 C601 1.339 . S
C602 C603 1.439 . S
C602 H631 0.950 . S
C603 N599 1.383 . S
C603 C602 1.439 . S
C603 C621 1.392 . S
N604 Co588 2.282 . S
N604 C607 1.332 . S
N604 C609 1.332 . S
C605 C606 1.386 . S
C605 C608 1.388 . S
C606 C605 1.386 . S
C606 C607 1.382 . S
C606 H632 0.950 . S
C607 N604 1.332 . S
C607 C606 1.382 . S
C607 H618 0.952 . S
C608 C605 1.388 . S
C608 C609 1.382 . S
C608 H633 0.950 . S
C609 N604 1.332 . S
C609 C608 1.382 . S
C609 H619 0.948 . S
N610 Co588 2.282 . S
N610 C614 1.332 . S
N610 C615 1.332 . S
C611 C612 1.388 . S
C611 C615 1.382 . S
C611 H634 0.950 . S
C612 C611 1.388 . S
C612 C613 1.386 . S
C613 C612 1.386 . S
C613 C614 1.382 . S
C613 H635 0.950 . S
C614 N610 1.332 . S
C614 C613 1.382 . S
C614 H616 0.952 . S
C615 N610 1.332 . S
C615 C611 1.382 . S
C615 H617 0.948 . S
H616 C614 0.952 . S
H617 C615 0.948 . S
H618 C607 0.952 . S
H619 C609 0.948 . S
C620 C586 1.395 . S
C620 C590 1.391 . S
C621 C583 1.389 . S
C621 C603 1.392 . S
C622 C593 1.392 . S
C622 C595 1.389 . S
C623 C598 1.395 . S
C623 C600 1.391 . S
H624 C584 0.951 . S
H625 C585 0.950 . S
H626 C591 0.949 . S
H627 C592 0.950 . S
H628 C596 0.951 . S
H629 C597 0.950 . S
H630 C601 0.949 . S
H631 C602 0.950 . S
H632 C606 0.950 . S
H633 C608 0.950 . S
H634 C611 0.950 . S
H635 C613 0.950 . S
H636 C644 0.929 . S
H637 C646 0.930 . S
H638 C648 0.930 . S
H639 C651 0.929 . S
H640 C654 0.930 . S
H641 C656 0.960 . S
H642 C656 0.960 . S
H643 C656 0.960 . S
C644 H636 0.929 . S
C644 C645 1.377 . S
C644 C646 1.384 . S
C645 C644 1.377 . S
C645 C651 1.390 . S
C646 H637 0.930 . S
C646 C644 1.384 . S
C646 C647 1.372 . S
C647 C646 1.372 . S
C647 C648 1.400 . S
C647 C652 1.490 . S
C648 H638 0.930 . S
C648 C647 1.400 . S
C648 C651 1.386 . S
H649 C665 0.930 . S
H650 C666 0.931 . S
C651 H639 0.929 . S
C651 C645 1.390 . S
C651 C648 1.386 . S
C652 C647 1.490 . S
C652 C654 1.395 . S
C652 C655 1.403 . S
H653 C659 0.930 . S
C654 H640 0.930 . S
C654 C652 1.395 . S
C654 C657 1.403 . S
C655 C652 1.403 . S
C655 C656 1.524 . S
C655 C659 1.400 . S
C656 H641 0.960 . S
C656 H642 0.960 . S
C656 H643 0.960 . S
C656 C655 1.524 . S
C657 C654 1.403 . S
C657 C658 1.392 . S
C657 C661 1.495 . S
C658 C657 1.392 . S
C658 C659 1.385 . S
C658 C660 1.478 . S
C659 H653 0.930 . S
C659 C655 1.400 . S
C659 C658 1.385 . S
C660 C658 1.478 . S
C660 C662 1.381 . S
C660 C666 1.383 . S
C661 C657 1.495 . S
C661 H667 0.959 . S
C661 H668 0.961 . S
C661 H669 0.960 . S
C662 C660 1.381 . S
C662 C663 1.394 . S
C662 H670 0.930 . S
C663 C662 1.394 . S
C663 C664 1.383 . S
C663 H671 0.929 . S
C664 C663 1.383 . S
C664 C665 1.377 . S
C665 H649 0.930 . S
C665 C664 1.377 . S
C665 C666 1.379 . S
C666 H650 0.931 . S
C666 C660 1.383 . S
C666 C665 1.379 . S
H667 C661 0.959 . S
H668 C661 0.961 . S
H669 C661 0.960 . S
H670 C662 0.930 . S
H671 C663 0.929 . S
H672 C680 0.929 . S
H673 C682 0.930 . S
H674 C684 0.930 . S
H675 C687 0.929 . S
H676 C690 0.930 . S
H677 C692 0.960 . S
H678 C692 0.960 . S
H679 C692 0.960 . S
C680 H672 0.929 . S
C680 C681 1.377 . S
C680 C682 1.384 . S
C681 C680 1.377 . S
C681 C687 1.390 . S
C682 H673 0.930 . S
C682 C680 1.384 . S
C682 C683 1.372 . S
C683 C682 1.372 . S
C683 C684 1.400 . S
C683 C688 1.490 . S
C684 H674 0.930 . S
C684 C683 1.400 . S
C684 C687 1.386 . S
H685 C701 0.930 . S
H686 C702 0.931 . S
C687 H675 0.929 . S
C687 C681 1.390 . S
C687 C684 1.386 . S
C688 C683 1.490 . S
C688 C690 1.395 . S
C688 C691 1.403 . S
H689 C695 0.930 . S
C690 H676 0.930 . S
C690 C688 1.395 . S
C690 C693 1.403 . S
C691 C688 1.403 . S
C691 C692 1.524 . S
C691 C695 1.400 . S
C692 H677 0.960 . S
C692 H678 0.960 . S
C692 H679 0.960 . S
C692 C691 1.524 . S
C693 C690 1.403 . S
C693 C694 1.392 . S
C693 C697 1.495 . S
C694 C693 1.392 . S
C694 C695 1.385 . S
C694 C696 1.478 . S
C695 H689 0.930 . S
C695 C691 1.400 . S
C695 C694 1.385 . S
C696 C694 1.478 . S
C696 C698 1.381 . S
C696 C702 1.383 . S
C697 C693 1.495 . S
C697 H703 0.959 . S
C697 H704 0.961 . S
C697 H705 0.960 . S
C698 C696 1.381 . S
C698 C699 1.394 . S
C698 H706 0.930 . S
C699 C698 1.394 . S
C699 C700 1.383 . S
C699 H707 0.929 . S
C700 C699 1.383 . S
C700 C701 1.377 . S
C701 H685 0.930 . S
C701 C700 1.377 . S
C701 C702 1.379 . S
C702 H686 0.931 . S
C702 C696 1.383 . S
C702 C701 1.379 . S
H703 C697 0.959 . S
H704 C697 0.961 . S
H705 C697 0.960 . S
H706 C698 0.930 . S
H707 C699 0.929 . S
H708 C716 0.929 . S
H709 C718 0.930 . S
H710 C720 0.930 . S
H711 C723 0.929 . S
H712 C726 0.930 . S
H713 C728 0.960 . S
H714 C728 0.960 . S
H715 C728 0.960 . S
C716 H708 0.929 . S
C716 C717 1.377 . S
C716 C718 1.384 . S
C717 C716 1.377 . S
C717 C723 1.390 . S
C718 H709 0.930 . S
C718 C716 1.384 . S
C718 C719 1.372 . S
C719 C718 1.372 . S
C719 C720 1.400 . S
C719 C724 1.490 . S
C720 H710 0.930 . S
C720 C719 1.400 . S
C720 C723 1.386 . S
H721 C737 0.930 . S
H722 C738 0.931 . S
C723 H711 0.929 . S
C723 C717 1.390 . S
C723 C720 1.386 . S
C724 C719 1.490 . S
C724 C726 1.395 . S
C724 C727 1.403 . S
H725 C731 0.930 . S
C726 H712 0.930 . S
C726 C724 1.395 . S
C726 C729 1.403 . S
C727 C724 1.403 . S
C727 C728 1.524 . S
C727 C731 1.400 . S
C728 H713 0.960 . S
C728 H714 0.960 . S
C728 H715 0.960 . S
C728 C727 1.524 . S
C729 C726 1.403 . S
C729 C730 1.392 . S
C729 C733 1.495 . S
C730 C729 1.392 . S
C730 C731 1.385 . S
C730 C732 1.478 . S
C731 H725 0.930 . S
C731 C727 1.400 . S
C731 C730 1.385 . S
C732 C730 1.478 . S
C732 C734 1.381 . S
C732 C738 1.383 . S
C733 C729 1.495 . S
C733 H739 0.959 . S
C733 H740 0.961 . S
C733 H741 0.960 . S
C734 C732 1.381 . S
C734 C735 1.394 . S
C734 H742 0.930 . S
C735 C734 1.394 . S
C735 C736 1.383 . S
C735 H743 0.929 . S
C736 C735 1.383 . S
C736 C737 1.377 . S
C737 H721 0.930 . S
C737 C736 1.377 . S
C737 C738 1.379 . S
C738 H722 0.931 . S
C738 C732 1.383 . S
C738 C737 1.379 . S
H739 C733 0.959 . S
H740 C733 0.961 . S
H741 C733 0.960 . S
H742 C734 0.930 . S
H743 C735 0.929 . S
H744 C752 0.929 . S
H745 C754 0.930 . S
H746 C756 0.930 . S
H747 C759 0.929 . S
H748 C762 0.930 . S
H749 C764 0.960 . S
H750 C764 0.960 . S
H751 C764 0.960 . S
C752 H744 0.929 . S
C752 C753 1.377 . S
C752 C754 1.384 . S
C753 C752 1.377 . S
C753 C759 1.390 . S
C754 H745 0.930 . S
C754 C752 1.384 . S
C754 C755 1.372 . S
C755 C754 1.372 . S
C755 C756 1.400 . S
C755 C760 1.490 . S
C756 H746 0.930 . S
C756 C755 1.400 . S
C756 C759 1.386 . S
H757 C773 0.930 . S
H758 C774 0.931 . S
C759 H747 0.929 . S
C759 C753 1.390 . S
C759 C756 1.386 . S
C760 C755 1.490 . S
C760 C762 1.395 . S
C760 C763 1.403 . S
H761 C767 0.930 . S
C762 H748 0.930 . S
C762 C760 1.395 . S
C762 C765 1.403 . S
C763 C760 1.403 . S
C763 C764 1.524 . S
C763 C767 1.400 . S
C764 H749 0.960 . S
C764 H750 0.960 . S
C764 H751 0.960 . S
C764 C763 1.524 . S
C765 C762 1.403 . S
C765 C766 1.392 . S
C765 C769 1.495 . S
C766 C765 1.392 . S
C766 C767 1.385 . S
C766 C768 1.478 . S
C767 H761 0.930 . S
C767 C763 1.400 . S
C767 C766 1.385 . S
C768 C766 1.478 . S
C768 C770 1.381 . S
C768 C774 1.383 . S
C769 C765 1.495 . S
C769 H775 0.959 . S
C769 H776 0.961 . S
C769 H777 0.960 . S
C770 C768 1.381 . S
C770 C771 1.394 . S
C770 H778 0.930 . S
C771 C770 1.394 . S
C771 C772 1.383 . S
C771 H779 0.929 . S
C772 C771 1.383 . S
C772 C773 1.377 . S
C773 H757 0.930 . S
C773 C772 1.377 . S
C773 C774 1.379 . S
C774 H758 0.931 . S
C774 C768 1.383 . S
C774 C773 1.379 . S
H775 C769 0.959 . S
H776 C769 0.961 . S
H777 C769 0.960 . S
H778 C770 0.930 . S
H779 C771 0.929 . S
H780 C788 0.929 . S
H781 C790 0.930 . S
H782 C792 0.930 . S
H783 C795 0.929 . S
H784 C798 0.930 . S
H785 C800 0.960 . S
H786 C800 0.960 . S
H787 C800 0.960 . S
C788 H780 0.929 . S
C788 C789 1.377 . S
C788 C790 1.384 . S
C789 C788 1.377 . S
C789 C795 1.390 . S
C790 H781 0.930 . S
C790 C788 1.384 . S
C790 C791 1.372 . S
C791 C790 1.372 . S
C791 C792 1.400 . S
C791 C796 1.490 . S
C792 H782 0.930 . S
C792 C791 1.400 . S
C792 C795 1.386 . S
H793 C809 0.930 . S
H794 C810 0.931 . S
C795 H783 0.929 . S
C795 C789 1.390 . S
C795 C792 1.386 . S
C796 C791 1.490 . S
C796 C798 1.395 . S
C796 C799 1.403 . S
H797 C803 0.930 . S
C798 H784 0.930 . S
C798 C796 1.395 . S
C798 C801 1.403 . S
C799 C796 1.403 . S
C799 C800 1.524 . S
C799 C803 1.400 . S
C800 H785 0.960 . S
C800 H786 0.960 . S
C800 H787 0.960 . S
C800 C799 1.524 . S
C801 C798 1.403 . S
C801 C802 1.392 . S
C801 C805 1.495 . S
C802 C801 1.392 . S
C802 C803 1.385 . S
C802 C804 1.478 . S
C803 H797 0.930 . S
C803 C799 1.400 . S
C803 C802 1.385 . S
C804 C802 1.478 . S
C804 C806 1.381 . S
C804 C810 1.383 . S
C805 C801 1.495 . S
C805 H811 0.959 . S
C805 H812 0.961 . S
C805 H813 0.960 . S
C806 C804 1.381 . S
C806 C807 1.394 . S
C806 H814 0.930 . S
C807 C806 1.394 . S
C807 C808 1.383 . S
C807 H815 0.929 . S
C808 C807 1.383 . S
C808 C809 1.377 . S
C809 H793 0.930 . S
C809 C808 1.377 . S
C809 C810 1.379 . S
C810 H794 0.931 . S
C810 C804 1.383 . S
C810 C809 1.379 . S
H811 C805 0.959 . S
H812 C805 0.961 . S
H813 C805 0.960 . S
H814 C806 0.930 . S
H815 C807 0.929 . S
H816 C824 0.929 . S
H817 C826 0.930 . S
H818 C828 0.930 . S
H819 C831 0.929 . S
H820 C834 0.930 . S
H821 C836 0.960 . S
H822 C836 0.960 . S
H823 C836 0.960 . S
C824 H816 0.929 . S
C824 C825 1.377 . S
C824 C826 1.384 . S
C825 C824 1.377 . S
C825 C831 1.390 . S
C826 H817 0.930 . S
C826 C824 1.384 . S
C826 C827 1.372 . S
C827 C826 1.372 . S
C827 C828 1.400 . S
C827 C832 1.490 . S
C828 H818 0.930 . S
C828 C827 1.400 . S
C828 C831 1.386 . S
H829 C845 0.930 . S
H830 C846 0.931 . S
C831 H819 0.929 . S
C831 C825 1.390 . S
C831 C828 1.386 . S
C832 C827 1.490 . S
C832 C834 1.395 . S
C832 C835 1.403 . S
H833 C839 0.930 . S
C834 H820 0.930 . S
C834 C832 1.395 . S
C834 C837 1.403 . S
C835 C832 1.403 . S
C835 C836 1.524 . S
C835 C839 1.400 . S
C836 H821 0.960 . S
C836 H822 0.960 . S
C836 H823 0.960 . S
C836 C835 1.524 . S
C837 C834 1.403 . S
C837 C838 1.392 . S
C837 C841 1.495 . S
C838 C837 1.392 . S
C838 C839 1.385 . S
C838 C840 1.478 . S
C839 H833 0.930 . S
C839 C835 1.400 . S
C839 C838 1.385 . S
C840 C838 1.478 . S
C840 C842 1.381 . S
C840 C846 1.383 . S
C841 C837 1.495 . S
C841 H847 0.959 . S
C841 H848 0.961 . S
C841 H849 0.960 . S
C842 C840 1.381 . S
C842 C843 1.394 . S
C842 H850 0.930 . S
C843 C842 1.394 . S
C843 C844 1.383 . S
C843 H851 0.929 . S
C844 C843 1.383 . S
C844 C845 1.377 . S
C845 H829 0.930 . S
C845 C844 1.377 . S
C845 C846 1.379 . S
C846 H830 0.931 . S
C846 C840 1.383 . S
C846 C845 1.379 . S
H847 C841 0.959 . S
H848 C841 0.961 . S
H849 C841 0.960 . S
H850 C842 0.930 . S
H851 C843 0.929 . S
H852 C860 0.929 . S
H853 C862 0.930 . S
H854 C864 0.930 . S
H855 C867 0.929 . S
H856 C870 0.930 . S
H857 C872 0.960 . S
H858 C872 0.960 . S
H859 C872 0.960 . S
C860 H852 0.929 . S
C860 C861 1.377 . S
C860 C862 1.384 . S
C861 C860 1.377 . S
C861 C867 1.390 . S
C862 H853 0.930 . S
C862 C860 1.384 . S
C862 C863 1.372 . S
C863 C862 1.372 . S
C863 C864 1.400 . S
C863 C868 1.490 . S
C864 H854 0.930 . S
C864 C863 1.400 . S
C864 C867 1.386 . S
H865 C881 0.930 . S
H866 C882 0.931 . S
C867 H855 0.929 . S
C867 C861 1.390 . S
C867 C864 1.386 . S
C868 C863 1.490 . S
C868 C870 1.395 . S
C868 C871 1.403 . S
H869 C875 0.930 . S
C870 H856 0.930 . S
C870 C868 1.395 . S
C870 C873 1.403 . S
C871 C868 1.403 . S
C871 C872 1.524 . S
C871 C875 1.400 . S
C872 H857 0.960 . S
C872 H858 0.960 . S
C872 H859 0.960 . S
C872 C871 1.524 . S
C873 C870 1.403 . S
C873 C874 1.392 . S
C873 C877 1.495 . S
C874 C873 1.392 . S
C874 C875 1.385 . S
C874 C876 1.478 . S
C875 H869 0.930 . S
C875 C871 1.400 . S
C875 C874 1.385 . S
C876 C874 1.478 . S
C876 C878 1.381 . S
C876 C882 1.383 . S
C877 C873 1.495 . S
C877 H883 0.959 . S
C877 H884 0.961 . S
C877 H885 0.960 . S
C878 C876 1.381 . S
C878 C879 1.394 . S
C878 H886 0.930 . S
C879 C878 1.394 . S
C879 C880 1.383 . S
C879 H887 0.929 . S
C880 C879 1.383 . S
C880 C881 1.377 . S
C881 H865 0.930 . S
C881 C880 1.377 . S
C881 C882 1.379 . S
C882 H866 0.931 . S
C882 C876 1.383 . S
C882 C881 1.379 . S
H883 C877 0.959 . S
H884 C877 0.961 . S
H885 C877 0.960 . S
H886 C878 0.930 . S
H887 C879 0.929 . S
H888 C896 0.929 . S
H889 C898 0.930 . S
H890 C900 0.930 . S
H891 C903 0.929 . S
H892 C906 0.930 . S
H893 C908 0.960 . S
H894 C908 0.960 . S
H895 C908 0.960 . S
C896 H888 0.929 . S
C896 C897 1.377 . S
C896 C898 1.384 . S
C897 C896 1.377 . S
C897 C903 1.390 . S
C898 H889 0.930 . S
C898 C896 1.384 . S
C898 C899 1.372 . S
C899 C898 1.372 . S
C899 C900 1.400 . S
C899 C904 1.490 . S
C900 H890 0.930 . S
C900 C899 1.400 . S
C900 C903 1.386 . S
H901 C917 0.930 . S
H902 C918 0.931 . S
C903 H891 0.929 . S
C903 C897 1.390 . S
C903 C900 1.386 . S
C904 C899 1.490 . S
C904 C906 1.395 . S
C904 C907 1.403 . S
H905 C911 0.930 . S
C906 H892 0.930 . S
C906 C904 1.395 . S
C906 C909 1.403 . S
C907 C904 1.403 . S
C907 C908 1.524 . S
C907 C911 1.400 . S
C908 H893 0.960 . S
C908 H894 0.960 . S
C908 H895 0.960 . S
C908 C907 1.524 . S
C909 C906 1.403 . S
C909 C910 1.392 . S
C909 C913 1.495 . S
C910 C909 1.392 . S
C910 C911 1.385 . S
C910 C912 1.478 . S
C911 H905 0.930 . S
C911 C907 1.400 . S
C911 C910 1.385 . S
C912 C910 1.478 . S
C912 C914 1.381 . S
C912 C918 1.383 . S
C913 C909 1.495 . S
C913 H919 0.959 . S
C913 H920 0.961 . S
C913 H921 0.960 . S
C914 C912 1.381 . S
C914 C915 1.394 . S
C914 H922 0.930 . S
C915 C914 1.394 . S
C915 C916 1.383 . S
C915 H923 0.929 . S
C916 C915 1.383 . S
C916 C917 1.377 . S
C917 H901 0.930 . S
C917 C916 1.377 . S
C917 C918 1.379 . S
C918 H902 0.931 . S
C918 C912 1.383 . S
C918 C917 1.379 . S
H919 C913 0.959 . S
H920 C913 0.961 . S
H921 C913 0.960 . S
H922 C914 0.930 . S
H923 C915 0.929 . S
H924 C932 0.929 . S
H925 C934 0.930 . S
H926 C936 0.930 . S
H927 C939 0.929 . S
H928 C942 0.930 . S
H929 C944 0.960 . S
H930 C944 0.960 . S
H931 C944 0.960 . S
C932 H924 0.929 . S
C932 C933 1.377 . S
C932 C934 1.384 1_554 S
C933 C932 1.377 . S
C933 C939 1.390 1_554 S
C934 H925 0.930 . S
C934 C932 1.384 1_556 S
C934 C935 1.372 . S
C935 C934 1.372 . S
C935 C936 1.400 . S
C935 C940 1.490 . S
C936 H926 0.930 . S
C936 C935 1.400 . S
C936 C939 1.386 . S
H937 C953 0.930 . S
H938 C954 0.931 . S
C939 H927 0.929 . S
C939 C933 1.390 1_556 S
C939 C936 1.386 . S
C940 C935 1.490 . S
C940 C942 1.395 . S
C940 C943 1.403 . S
H941 C947 0.930 . S
C942 H928 0.930 . S
C942 C940 1.395 . S
C942 C945 1.403 . S
C943 C940 1.403 . S
C943 C944 1.524 . S
C943 C947 1.400 . S
C944 H929 0.960 . S
C944 H930 0.960 . S
C944 H931 0.960 . S
C944 C943 1.524 . S
C945 C942 1.403 . S
C945 C946 1.392 . S
C945 C949 1.495 . S
C946 C945 1.392 . S
C946 C947 1.385 . S
C946 C948 1.478 . S
C947 H941 0.930 . S
C947 C943 1.400 . S
C947 C946 1.385 . S
C948 C946 1.478 . S
C948 C950 1.381 . S
C948 C954 1.383 . S
C949 C945 1.495 . S
C949 H955 0.959 . S
C949 H956 0.961 . S
C949 H957 0.960 . S
C950 C948 1.381 . S
C950 C951 1.394 . S
C950 H958 0.930 . S
C951 C950 1.394 . S
C951 C952 1.383 . S
C951 H959 0.929 . S
C952 C951 1.383 . S
C952 C953 1.377 . S
C953 H937 0.930 . S
C953 C952 1.377 . S
C953 C954 1.379 . S
C954 H938 0.931 . S
C954 C948 1.383 . S
C954 C953 1.379 . S
H955 C949 0.959 . S
H956 C949 0.961 . S
H957 C949 0.960 . S
H958 C950 0.930 . S
H959 C951 0.929 . S
H960 C968 0.929 . S
H961 C970 0.930 . S
H962 C972 0.930 . S
H963 C975 0.929 . S
H964 C978 0.930 . S
H965 C980 0.960 . S
H966 C980 0.960 . S
H967 C980 0.960 . S
C968 H960 0.929 . S
C968 C969 1.377 . S
C968 C970 1.384 . S
C969 C968 1.377 . S
C969 C975 1.390 . S
C970 H961 0.930 . S
C970 C968 1.384 . S
C970 C971 1.372 . S
C971 C970 1.372 . S
C971 C972 1.400 . S
C971 C976 1.490 . S
C972 H962 0.930 . S
C972 C971 1.400 . S
C972 C975 1.386 . S
H973 C989 0.930 . S
H974 C990 0.931 . S
C975 H963 0.929 . S
C975 C969 1.390 . S
C975 C972 1.386 . S
C976 C971 1.490 . S
C976 C978 1.395 . S
C976 C979 1.403 . S
H977 C983 0.930 . S
C978 H964 0.930 . S
C978 C976 1.395 . S
C978 C981 1.403 . S
C979 C976 1.403 . S
C979 C980 1.524 . S
C979 C983 1.400 . S
C980 H965 0.960 . S
C980 H966 0.960 . S
C980 H967 0.960 . S
C980 C979 1.524 . S
C981 C978 1.403 . S
C981 C982 1.392 . S
C981 C985 1.495 . S
C982 C981 1.392 . S
C982 C983 1.385 . S
C982 C984 1.478 . S
C983 H977 0.930 . S
C983 C979 1.400 . S
C983 C982 1.385 . S
C984 C982 1.478 . S
C984 C986 1.381 . S
C984 C990 1.383 . S
C985 C981 1.495 . S
C985 H991 0.959 . S
C985 H992 0.961 . S
C985 H993 0.960 . S
C986 C984 1.381 . S
C986 C987 1.394 1_554 S
C986 H994 0.930 . S
C987 C986 1.394 1_556 S
C987 C988 1.383 . S
C987 H995 0.929 . S
C988 C987 1.383 . S
C988 C989 1.377 . S
C989 H973 0.930 . S
C989 C988 1.377 . S
C989 C990 1.379 1_556 S
C990 H974 0.931 . S
C990 C984 1.383 . S
C990 C989 1.379 1_554 S
H991 C985 0.959 . S
H992 C985 0.961 . S
H993 C985 0.960 . S
H994 C986 0.930 . S
H995 C987 0.929 . S
H996 C1004 0.929 . S
H997 C1006 0.930 . S
H998 C1008 0.930 . S
H999 C1011 0.929 . S
H1000 C1014 0.930 . S
H1001 C1016 0.960 . S
H1002 C1016 0.960 . S
H1003 C1016 0.960 . S
C1004 H996 0.929 . S
C1004 C1005 1.377 . S
C1004 C1006 1.384 . S
C1005 C1004 1.377 . S
C1005 C1011 1.390 . S
C1006 H997 0.930 . S
C1006 C1004 1.384 . S
C1006 C1007 1.372 . S
C1007 C1006 1.372 . S
C1007 C1008 1.400 . S
C1007 C1012 1.490 . S
C1008 H998 0.930 . S
C1008 C1007 1.400 . S
C1008 C1011 1.386 . S
H1009 C1025 0.930 . S
H1010 C1026 0.931 . S
C1011 H999 0.929 . S
C1011 C1005 1.390 . S
C1011 C1008 1.386 . S
C1012 C1007 1.490 . S
C1012 C1014 1.395 . S
C1012 C1015 1.403 . S
H1013 C1019 0.930 . S
C1014 H1000 0.930 . S
C1014 C1012 1.395 . S
C1014 C1017 1.403 . S
C1015 C1012 1.403 . S
C1015 C1016 1.524 . S
C1015 C1019 1.400 . S
C1016 H1001 0.960 . S
C1016 H1002 0.960 . S
C1016 H1003 0.960 . S
C1016 C1015 1.524 . S
C1017 C1014 1.403 . S
C1017 C1018 1.392 . S
C1017 C1021 1.495 . S
C1018 C1017 1.392 . S
C1018 C1019 1.385 . S
C1018 C1020 1.478 . S
C1019 H1013 0.930 . S
C1019 C1015 1.400 . S
C1019 C1018 1.385 . S
C1020 C1018 1.478 . S
C1020 C1022 1.381 . S
C1020 C1026 1.383 . S
C1021 C1017 1.495 . S
C1021 H1027 0.959 . S
C1021 H1028 0.961 . S
C1021 H1029 0.960 . S
C1022 C1020 1.381 . S
C1022 C1023 1.394 . S
C1022 H1030 0.930 . S
C1023 C1022 1.394 . S
C1023 C1024 1.383 . S
C1023 H1031 0.929 . S
C1024 C1023 1.383 . S
C1024 C1025 1.377 . S
C1025 H1009 0.930 . S
C1025 C1024 1.377 . S
C1025 C1026 1.379 . S
C1026 H1010 0.931 . S
C1026 C1020 1.383 . S
C1026 C1025 1.379 . S
H1027 C1021 0.959 . S
H1028 C1021 0.961 . S
H1029 C1021 0.960 . S
H1030 C1022 0.930 . S
H1031 C1023 0.929 . S
H1032 C1040 0.929 . S
H1033 C1042 0.930 . S
H1034 C1044 0.930 . S
H1035 C1047 0.929 . S
H1036 C1050 0.930 . S
H1037 C1052 0.960 . S
H1038 C1052 0.960 . S
H1039 C1052 0.960 . S
C1040 H1032 0.929 . S
C1040 C1041 1.377 . S
C1040 C1042 1.384 . S
C1041 C1040 1.377 . S
C1041 C1047 1.390 . S
C1042 H1033 0.930 . S
C1042 C1040 1.384 . S
C1042 C1043 1.372 . S
C1043 C1042 1.372 . S
C1043 C1044 1.400 . S
C1043 C1048 1.490 . S
C1044 H1034 0.930 . S
C1044 C1043 1.400 . S
C1044 C1047 1.386 . S
H1045 C1061 0.930 . S
H1046 C1062 0.931 . S
C1047 H1035 0.929 . S
C1047 C1041 1.390 . S
C1047 C1044 1.386 . S
C1048 C1043 1.490 . S
C1048 C1050 1.395 . S
C1048 C1051 1.403 . S
H1049 C1055 0.930 . S
C1050 H1036 0.930 . S
C1050 C1048 1.395 . S
C1050 C1053 1.403 . S
C1051 C1048 1.403 . S
C1051 C1052 1.524 . S
C1051 C1055 1.400 . S
C1052 H1037 0.960 . S
C1052 H1038 0.960 . S
C1052 H1039 0.960 . S
C1052 C1051 1.524 . S
C1053 C1050 1.403 . S
C1053 C1054 1.392 . S
C1053 C1057 1.495 . S
C1054 C1053 1.392 . S
C1054 C1055 1.385 . S
C1054 C1056 1.478 . S
C1055 H1049 0.930 . S
C1055 C1051 1.400 . S
C1055 C1054 1.385 . S
C1056 C1054 1.478 . S
C1056 C1058 1.381 . S
C1056 C1062 1.383 . S
C1057 C1053 1.495 . S
C1057 H1063 0.959 . S
C1057 H1064 0.961 . S
C1057 H1065 0.960 . S
C1058 C1056 1.381 . S
C1058 C1059 1.394 . S
C1058 H1066 0.930 . S
C1059 C1058 1.394 . S
C1059 C1060 1.383 . S
C1059 H1067 0.929 . S
C1060 C1059 1.383 . S
C1060 C1061 1.377 . S
C1061 H1045 0.930 . S
C1061 C1060 1.377 . S
C1061 C1062 1.379 . S
C1062 H1046 0.931 . S
C1062 C1056 1.383 . S
C1062 C1061 1.379 . S
H1063 C1057 0.959 . S
H1064 C1057 0.961 . S
H1065 C1057 0.960 . S
H1066 C1058 0.930 . S
H1067 C1059 0.929 . S
H1068 C1076 0.929 . S
H1069 C1078 0.930 . S
H1070 C1080 0.930 . S
H1071 C1083 0.929 . S
H1072 C1086 0.930 . S
H1073 C1088 0.960 . S
H1074 C1088 0.960 . S
H1075 C1088 0.960 . S
C1076 H1068 0.929 . S
C1076 C1077 1.377 . S
C1076 C1078 1.384 . S
C1077 C1076 1.377 . S
C1077 C1083 1.390 . S
C1078 H1069 0.930 . S
C1078 C1076 1.384 . S
C1078 C1079 1.372 . S
C1079 C1078 1.372 . S
C1079 C1080 1.400 . S
C1079 C1084 1.490 . S
C1080 H1070 0.930 . S
C1080 C1079 1.400 . S
C1080 C1083 1.386 . S
H1081 C1097 0.930 . S
H1082 C1098 0.931 . S
C1083 H1071 0.929 . S
C1083 C1077 1.390 . S
C1083 C1080 1.386 . S
C1084 C1079 1.490 . S
C1084 C1086 1.395 . S
C1084 C1087 1.403 . S
H1085 C1091 0.930 . S
C1086 H1072 0.930 . S
C1086 C1084 1.395 . S
C1086 C1089 1.403 1_655 S
C1087 C1084 1.403 . S
C1087 C1088 1.524 . S
C1087 C1091 1.400 1_655 S
C1088 H1073 0.960 . S
C1088 H1074 0.960 . S
C1088 H1075 0.960 . S
C1088 C1087 1.524 . S
C1089 C1086 1.403 1_455 S
C1089 C1090 1.392 . S
C1089 C1093 1.495 . S
C1090 C1089 1.392 . S
C1090 C1091 1.385 . S
C1090 C1092 1.478 . S
C1091 H1085 0.930 . S
C1091 C1087 1.400 1_455 S
C1091 C1090 1.385 . S
C1092 C1090 1.478 . S
C1092 C1094 1.381 . S
C1092 C1098 1.383 . S
C1093 C1089 1.495 . S
C1093 H1099 0.959 . S
C1093 H1100 0.961 . S
C1093 H1101 0.960 . S
C1094 C1092 1.381 . S
C1094 C1095 1.394 . S
C1094 H1102 0.930 . S
C1095 C1094 1.394 . S
C1095 C1096 1.383 . S
C1095 H1103 0.929 . S
C1096 C1095 1.383 . S
C1096 C1097 1.377 . S
C1097 H1081 0.930 . S
C1097 C1096 1.377 . S
C1097 C1098 1.379 . S
C1098 H1082 0.931 . S
C1098 C1092 1.383 . S
C1098 C1097 1.379 . S
H1099 C1093 0.959 . S
H1100 C1093 0.961 . S
H1101 C1093 0.960 . S
H1102 C1094 0.930 . S
H1103 C1095 0.929 . S
H1104 C1112 0.929 . S
H1105 C1114 0.930 . S
H1106 C1116 0.930 . S
H1107 C1119 0.929 . S
H1108 C1122 0.930 . S
H1109 C1124 0.960 1_545 S
H1110 C1124 0.960 . S
H1111 C1124 0.960 . S
C1112 H1104 0.929 . S
C1112 C1113 1.377 . S
C1112 C1114 1.384 . S
C1113 C1112 1.377 . S
C1113 C1119 1.390 . S
C1114 H1105 0.930 . S
C1114 C1112 1.384 . S
C1114 C1115 1.372 . S
C1115 C1114 1.372 . S
C1115 C1116 1.400 . S
C1115 C1120 1.490 . S
C1116 H1106 0.930 . S
C1116 C1115 1.400 . S
C1116 C1119 1.386 . S
H1117 C1133 0.930 . S
H1118 C1134 0.931 . S
C1119 H1107 0.929 . S
C1119 C1113 1.390 . S
C1119 C1116 1.386 . S
C1120 C1115 1.490 . S
C1120 C1122 1.395 . S
C1120 C1123 1.403 . S
H1121 C1127 0.930 . S
C1122 H1108 0.930 . S
C1122 C1120 1.395 . S
C1122 C1125 1.403 1_565 S
C1123 C1120 1.403 . S
C1123 C1124 1.524 . S
C1123 C1127 1.400 1_565 S
C1124 H1109 0.960 1_565 S
C1124 H1110 0.960 . S
C1124 H1111 0.960 . S
C1124 C1123 1.524 . S
C1125 C1122 1.403 1_545 S
C1125 C1126 1.392 . S
C1125 C1129 1.495 . S
C1126 C1125 1.392 . S
C1126 C1127 1.385 . S
C1126 C1128 1.478 . S
C1127 H1121 0.930 . S
C1127 C1123 1.400 1_545 S
C1127 C1126 1.385 . S
C1128 C1126 1.478 . S
C1128 C1130 1.381 . S
C1128 C1134 1.383 . S
C1129 C1125 1.495 . S
C1129 H1135 0.959 1_545 S
C1129 H1136 0.961 . S
C1129 H1137 0.960 . S
C1130 C1128 1.381 . S
C1130 C1131 1.394 . S
C1130 H1138 0.930 . S
C1131 C1130 1.394 . S
C1131 C1132 1.383 . S
C1131 H1139 0.929 . S
C1132 C1131 1.383 . S
C1132 C1133 1.377 . S
C1133 H1117 0.930 . S
C1133 C1132 1.377 . S
C1133 C1134 1.379 . S
C1134 H1118 0.931 . S
C1134 C1128 1.383 . S
C1134 C1133 1.379 . S
H1135 C1129 0.959 1_565 S
H1136 C1129 0.961 . S
H1137 C1129 0.960 . S
H1138 C1130 0.930 . S
H1139 C1131 0.929 . S
H1140 C1148 0.929 . S
H1141 C1150 0.930 . S
H1142 C1152 0.930 . S
H1143 C1155 0.929 . S
H1144 C1158 0.930 . S
H1145 C1160 0.960 . S
H1146 C1160 0.960 . S
H1147 C1160 0.960 . S
C1148 H1140 0.929 . S
C1148 C1149 1.377 . S
C1148 C1150 1.384 . S
C1149 C1148 1.377 . S
C1149 C1155 1.390 . S
C1150 H1141 0.930 . S
C1150 C1148 1.384 . S
C1150 C1151 1.372 . S
C1151 C1150 1.372 . S
C1151 C1152 1.400 . S
C1151 C1156 1.490 . S
C1152 H1142 0.930 . S
C1152 C1151 1.400 . S
C1152 C1155 1.386 . S
H1153 C1169 0.930 . S
H1154 C1170 0.931 . S
C1155 H1143 0.929 . S
C1155 C1149 1.390 . S
C1155 C1152 1.386 . S
C1156 C1151 1.490 . S
C1156 C1158 1.395 . S
C1156 C1159 1.403 . S
H1157 C1163 0.930 . S
C1158 H1144 0.930 . S
C1158 C1156 1.395 . S
C1158 C1161 1.403 . S
C1159 C1156 1.403 . S
C1159 C1160 1.524 . S
C1159 C1163 1.400 . S
C1160 H1145 0.960 . S
C1160 H1146 0.960 . S
C1160 H1147 0.960 . S
C1160 C1159 1.524 . S
C1161 C1158 1.403 . S
C1161 C1162 1.392 . S
C1161 C1165 1.495 . S
C1162 C1161 1.392 . S
C1162 C1163 1.385 . S
C1162 C1164 1.478 . S
C1163 H1157 0.930 . S
C1163 C1159 1.400 . S
C1163 C1162 1.385 . S
C1164 C1162 1.478 . S
C1164 C1166 1.381 . S
C1164 C1170 1.383 . S
C1165 C1161 1.495 . S
C1165 H1171 0.959 . S
C1165 H1172 0.961 . S
C1165 H1173 0.960 . S
C1166 C1164 1.381 . S
C1166 C1167 1.394 . S
C1166 H1174 0.930 . S
C1167 C1166 1.394 . S
C1167 C1168 1.383 . S
C1167 H1175 0.929 . S
C1168 C1167 1.383 . S
C1168 C1169 1.377 . S
C1169 H1153 0.930 . S
C1169 C1168 1.377 . S
C1169 C1170 1.379 . S
C1170 H1154 0.931 . S
C1170 C1164 1.383 . S
C1170 C1169 1.379 . S
H1171 C1165 0.959 . S
H1172 C1165 0.961 . S
H1173 C1165 0.960 . S
H1174 C1166 0.930 . S
H1175 C1167 0.929 . S
H1176 C1184 0.929 . S
H1177 C1186 0.930 . S
H1178 C1188 0.930 . S
H1179 C1191 0.929 . S
H1180 C1194 0.930 . S
H1181 C1196 0.960 . S
H1182 C1196 0.960 . S
H1183 C1196 0.960 . S
C1184 H1176 0.929 . S
C1184 C1185 1.377 . S
C1184 C1186 1.384 . S
C1185 C1184 1.377 . S
C1185 C1191 1.390 . S
C1186 H1177 0.930 . S
C1186 C1184 1.384 . S
C1186 C1187 1.372 . S
C1187 C1186 1.372 . S
C1187 C1188 1.400 . S
C1187 C1192 1.490 . S
C1188 H1178 0.930 . S
C1188 C1187 1.400 . S
C1188 C1191 1.386 . S
H1189 C1205 0.930 . S
H1190 C1206 0.931 . S
C1191 H1179 0.929 . S
C1191 C1185 1.390 . S
C1191 C1188 1.386 . S
C1192 C1187 1.490 . S
C1192 C1194 1.395 . S
C1192 C1195 1.403 . S
H1193 C1199 0.930 . S
C1194 H1180 0.930 . S
C1194 C1192 1.395 . S
C1194 C1197 1.403 1_455 S
C1195 C1192 1.403 . S
C1195 C1196 1.524 . S
C1195 C1199 1.400 1_455 S
C1196 H1181 0.960 . S
C1196 H1182 0.960 . S
C1196 H1183 0.960 . S
C1196 C1195 1.524 . S
C1197 C1194 1.403 1_655 S
C1197 C1198 1.392 . S
C1197 C1201 1.495 . S
C1198 C1197 1.392 . S
C1198 C1199 1.385 . S
C1198 C1200 1.478 . S
C1199 H1193 0.930 . S
C1199 C1195 1.400 1_655 S
C1199 C1198 1.385 . S
C1200 C1198 1.478 . S
C1200 C1202 1.381 . S
C1200 C1206 1.383 . S
C1201 C1197 1.495 . S
C1201 H1207 0.959 . S
C1201 H1208 0.961 . S
C1201 H1209 0.960 . S
C1202 C1200 1.381 . S
C1202 C1203 1.394 . S
C1202 H1210 0.930 . S
C1203 C1202 1.394 . S
C1203 C1204 1.383 . S
C1203 H1211 0.929 . S
C1204 C1203 1.383 . S
C1204 C1205 1.377 . S
C1205 H1189 0.930 . S
C1205 C1204 1.377 . S
C1205 C1206 1.379 . S
C1206 H1190 0.931 . S
C1206 C1200 1.383 . S
C1206 C1205 1.379 . S
H1207 C1201 0.959 . S
H1208 C1201 0.961 . S
H1209 C1201 0.960 . S
H1210 C1202 0.930 . S
H1211 C1203 0.929 . S
H1212 C1220 0.929 . S
H1213 C1222 0.930 . S
H1214 C1224 0.930 . S
H1215 C1227 0.929 . S
H1216 C1230 0.930 . S
H1217 C1232 0.960 . S
H1218 C1232 0.960 . S
H1219 C1232 0.960 1_556 S
C1220 H1212 0.929 . S
C1220 C1221 1.377 . S
C1220 C1222 1.384 . S
C1221 C1220 1.377 . S
C1221 C1227 1.390 . S
C1222 H1213 0.930 . S
C1222 C1220 1.384 . S
C1222 C1223 1.372 . S
C1223 C1222 1.372 . S
C1223 C1224 1.400 . S
C1223 C1228 1.490 . S
C1224 H1214 0.930 . S
C1224 C1223 1.400 . S
C1224 C1227 1.386 . S
H1225 C1241 0.930 . S
H1226 C1242 0.934 1_556 S
C1227 H1215 0.929 . S
C1227 C1221 1.390 . S
C1227 C1224 1.386 . S
C1228 C1223 1.490 . S
C1228 C1230 1.395 . S
C1228 C1231 1.403 1_556 S
H1229 C1235 0.930 . S
C1230 H1216 0.930 . S
C1230 C1228 1.395 . S
C1230 C1233 1.403 1_545 S
C1231 C1228 1.403 1_554 S
C1231 C1232 1.524 . S
C1231 C1235 1.400 1_545 S
C1232 H1217 0.960 . S
C1232 H1218 0.960 . S
C1232 H1219 0.960 1_554 S
C1232 C1231 1.524 . S
C1233 C1230 1.403 1_565 S
C1233 C1234 1.392 1_556 S
C1233 C1237 1.495 . S
C1234 C1233 1.392 1_554 S
C1234 C1235 1.385 . S
C1234 C1236 1.478 . S
C1235 H1229 0.930 . S
C1235 C1231 1.400 1_565 S
C1235 C1234 1.385 . S
C1236 C1234 1.478 . S
C1236 C1238 1.381 . S
C1236 C1242 1.383 . S
C1237 C1233 1.495 . S
C1237 H1243 0.959 . S
C1237 H1244 0.961 . S
C1237 H1245 0.960 1_556 S
C1238 C1236 1.381 . S
C1238 C1239 1.394 . S
C1238 H1246 0.930 . S
C1239 C1238 1.394 . S
C1239 C1240 1.383 . S
C1239 H1247 0.929 . S
C1240 C1239 1.383 . S
C1240 C1241 1.377 . S
C1241 H1225 0.930 . S
C1241 C1240 1.377 . S
C1241 C1242 1.379 . S
C1242 H1226 0.934 1_554 S
C1242 C1236 1.383 . S
C1242 C1241 1.379 . S
H1243 C1237 0.959 . S
H1244 C1237 0.961 . S
H1245 C1237 0.960 1_554 S
H1246 C1238 0.930 . S
H1247 C1239 0.929 . S
H1248 C1256 0.929 . S
H1249 C1258 0.930 . S
H1250 C1260 0.930 . S
H1251 C1263 0.929 . S
H1252 C1266 0.930 . S
H1253 C1268 0.960 . S
H1254 C1268 0.960 . S
H1255 C1268 0.960 . S
C1256 H1248 0.929 . S
C1256 C1257 1.377 . S
C1256 C1258 1.384 . S
C1257 C1256 1.377 . S
C1257 C1263 1.390 . S
C1258 H1249 0.930 . S
C1258 C1256 1.384 . S
C1258 C1259 1.372 . S
C1259 C1258 1.372 . S
C1259 C1260 1.400 . S
C1259 C1264 1.490 . S
C1260 H1250 0.930 . S
C1260 C1259 1.400 . S
C1260 C1263 1.386 . S
H1261 C1277 0.930 . S
H1262 C1278 0.931 . S
C1263 H1251 0.929 . S
C1263 C1257 1.390 . S
C1263 C1260 1.386 . S
C1264 C1259 1.490 . S
C1264 C1266 1.395 . S
C1264 C1267 1.403 . S
H1265 C1271 0.930 . S
C1266 H1252 0.930 . S
C1266 C1264 1.395 . S
C1266 C1269 1.403 . S
C1267 C1264 1.403 . S
C1267 C1268 1.524 . S
C1267 C1271 1.400 . S
C1268 H1253 0.960 . S
C1268 H1254 0.960 . S
C1268 H1255 0.960 . S
C1268 C1267 1.524 . S
C1269 C1266 1.403 . S
C1269 C1270 1.392 . S
C1269 C1273 1.495 . S
C1270 C1269 1.392 . S
C1270 C1271 1.385 . S
C1270 C1272 1.478 . S
C1271 H1265 0.930 . S
C1271 C1267 1.400 . S
C1271 C1270 1.385 . S
C1272 C1270 1.478 . S
C1272 C1274 1.381 . S
C1272 C1278 1.383 . S
C1273 C1269 1.495 . S
C1273 H1279 0.959 . S
C1273 H1280 0.961 . S
C1273 H1281 0.960 . S
C1274 C1272 1.381 . S
C1274 C1275 1.394 . S
C1274 H1282 0.930 . S
C1275 C1274 1.394 . S
C1275 C1276 1.383 . S
C1275 H1283 0.929 . S
C1276 C1275 1.383 . S
C1276 C1277 1.377 . S
C1277 H1261 0.930 . S
C1277 C1276 1.377 . S
C1277 C1278 1.379 . S
C1278 H1262 0.931 . S
C1278 C1272 1.383 . S
C1278 C1277 1.379 . S
H1279 C1273 0.959 . S
H1280 C1273 0.961 . S
H1281 C1273 0.960 . S
H1282 C1274 0.930 . S
H1283 C1275 0.929 . S
H1284 C1292 0.929 . S
H1285 C1294 0.930 . S
H1286 C1296 0.930 . S
H1287 C1299 0.929 . S
H1288 C1302 0.930 . S
H1289 C1304 0.960 . S
H1290 C1304 0.960 . S
H1291 C1304 0.960 . S
C1292 H1284 0.929 . S
C1292 C1293 1.377 . S
C1292 C1294 1.384 . S
C1293 C1292 1.377 . S
C1293 C1299 1.390 . S
C1294 H1285 0.930 . S
C1294 C1292 1.384 . S
C1294 C1295 1.372 . S
C1295 C1294 1.372 . S
C1295 C1296 1.400 . S
C1295 C1300 1.490 . S
C1296 H1286 0.930 . S
C1296 C1295 1.400 . S
C1296 C1299 1.386 . S
H1297 C1313 0.930 . S
H1298 C1314 0.931 . S
C1299 H1287 0.929 . S
C1299 C1293 1.390 . S
C1299 C1296 1.386 . S
C1300 C1295 1.490 . S
C1300 C1302 1.395 . S
C1300 C1303 1.403 . S
H1301 C1307 0.930 . S
C1302 H1288 0.930 . S
C1302 C1300 1.395 . S
C1302 C1305 1.403 . S
C1303 C1300 1.403 . S
C1303 C1304 1.524 . S
C1303 C1307 1.400 . S
C1304 H1289 0.960 . S
C1304 H1290 0.960 . S
C1304 H1291 0.960 . S
C1304 C1303 1.524 . S
C1305 C1302 1.403 . S
C1305 C1306 1.392 . S
C1305 C1309 1.495 . S
C1306 C1305 1.392 . S
C1306 C1307 1.385 . S
C1306 C1308 1.478 . S
C1307 H1301 0.930 . S
C1307 C1303 1.400 . S
C1307 C1306 1.385 . S
C1308 C1306 1.478 . S
C1308 C1310 1.381 . S
C1308 C1314 1.383 . S
C1309 C1305 1.495 . S
C1309 H1315 0.959 . S
C1309 H1316 0.961 . S
C1309 H1317 0.960 . S
C1310 C1308 1.381 . S
C1310 C1311 1.394 . S
C1310 H1318 0.930 . S
C1311 C1310 1.394 . S
C1311 C1312 1.383 . S
C1311 H1319 0.929 . S
C1312 C1311 1.383 . S
C1312 C1313 1.377 . S
C1313 H1297 0.930 . S
C1313 C1312 1.377 . S
C1313 C1314 1.379 . S
C1314 H1298 0.931 . S
C1314 C1308 1.383 . S
C1314 C1313 1.379 . S
H1315 C1309 0.959 . S
H1316 C1309 0.961 . S
H1317 C1309 0.960 . S
H1318 C1310 0.930 . S
H1319 C1311 0.929 . S
H1320 C1328 0.929 . S
H1321 C1330 0.930 . S
H1322 C1332 0.930 . S
H1323 C1335 0.929 . S
H1324 C1338 0.930 . S
H1325 C1340 0.960 . S
H1326 C1340 0.960 . S
H1327 C1340 0.960 . S
C1328 H1320 0.929 . S
C1328 C1329 1.377 . S
C1328 C1330 1.384 . S
C1329 C1328 1.377 . S
C1329 C1335 1.390 . S
C1330 H1321 0.930 . S
C1330 C1328 1.384 . S
C1330 C1331 1.372 . S
C1331 C1330 1.372 . S
C1331 C1332 1.400 . S
C1331 C1336 1.490 . S
C1332 H1322 0.930 . S
C1332 C1331 1.400 . S
C1332 C1335 1.386 . S
H1333 C1349 0.930 . S
H1334 C1350 0.931 . S
C1335 H1323 0.929 . S
C1335 C1329 1.390 . S
C1335 C1332 1.386 . S
C1336 C1331 1.490 . S
C1336 C1338 1.395 . S
C1336 C1339 1.403 . S
H1337 C1343 0.930 . S
C1338 H1324 0.930 . S
C1338 C1336 1.395 . S
C1338 C1341 1.403 . S
C1339 C1336 1.403 . S
C1339 C1340 1.524 . S
C1339 C1343 1.400 . S
C1340 H1325 0.960 . S
C1340 H1326 0.960 . S
C1340 H1327 0.960 . S
C1340 C1339 1.524 . S
C1341 C1338 1.403 . S
C1341 C1342 1.392 . S
C1341 C1345 1.495 . S
C1342 C1341 1.392 . S
C1342 C1343 1.385 . S
C1342 C1344 1.478 . S
C1343 H1337 0.930 . S
C1343 C1339 1.400 . S
C1343 C1342 1.385 . S
C1344 C1342 1.478 . S
C1344 C1346 1.381 . S
C1344 C1350 1.383 . S
C1345 C1341 1.495 . S
C1345 H1351 0.959 . S
C1345 H1352 0.961 . S
C1345 H1353 0.960 . S
C1346 C1344 1.381 . S
C1346 C1347 1.394 . S
C1346 H1354 0.930 . S
C1347 C1346 1.394 . S
C1347 C1348 1.383 . S
C1347 H1355 0.929 . S
C1348 C1347 1.383 . S
C1348 C1349 1.377 . S
C1349 H1333 0.930 . S
C1349 C1348 1.377 . S
C1349 C1350 1.379 . S
C1350 H1334 0.931 . S
C1350 C1344 1.383 . S
C1350 C1349 1.379 . S
H1351 C1345 0.959 . S
H1352 C1345 0.961 . S
H1353 C1345 0.960 . S
H1354 C1346 0.930 . S
H1355 C1347 0.929 . S
H1356 C1364 0.929 . S
H1357 C1366 0.930 . S
H1358 C1368 0.930 . S
H1359 C1371 0.929 . S
H1360 C1374 0.930 . S
H1361 C1376 0.960 . S
H1362 C1376 0.960 . S
H1363 C1376 0.960 . S
C1364 H1356 0.929 . S
C1364 C1365 1.377 . S
C1364 C1366 1.384 . S
C1365 C1364 1.377 . S
C1365 C1371 1.390 . S
C1366 H1357 0.930 . S
C1366 C1364 1.384 . S
C1366 C1367 1.372 . S
C1367 C1366 1.372 . S
C1367 C1368 1.400 . S
C1367 C1372 1.490 . S
C1368 H1358 0.930 . S
C1368 C1367 1.400 . S
C1368 C1371 1.386 . S
H1369 C1385 0.930 . S
H1370 C1386 0.931 . S
C1371 H1359 0.929 . S
C1371 C1365 1.390 . S
C1371 C1368 1.386 . S
C1372 C1367 1.490 . S
C1372 C1374 1.395 . S
C1372 C1375 1.403 . S
H1373 C1379 0.930 . S
C1374 H1360 0.930 . S
C1374 C1372 1.395 . S
C1374 C1377 1.403 . S
C1375 C1372 1.403 . S
C1375 C1376 1.524 . S
C1375 C1379 1.400 . S
C1376 H1361 0.960 . S
C1376 H1362 0.960 . S
C1376 H1363 0.960 . S
C1376 C1375 1.524 . S
C1377 C1374 1.403 . S
C1377 C1378 1.392 . S
C1377 C1381 1.495 . S
C1378 C1377 1.392 . S
C1378 C1379 1.385 . S
C1378 C1380 1.478 . S
C1379 H1373 0.930 . S
C1379 C1375 1.400 . S
C1379 C1378 1.385 . S
C1380 C1378 1.478 . S
C1380 C1382 1.381 . S
C1380 C1386 1.383 . S
C1381 C1377 1.495 . S
C1381 H1387 0.959 . S
C1381 H1388 0.961 . S
C1381 H1389 0.960 . S
C1382 C1380 1.381 . S
C1382 C1383 1.394 . S
C1382 H1390 0.930 . S
C1383 C1382 1.394 . S
C1383 C1384 1.383 . S
C1383 H1391 0.929 . S
C1384 C1383 1.383 . S
C1384 C1385 1.377 . S
C1385 H1369 0.930 . S
C1385 C1384 1.377 . S
C1385 C1386 1.379 . S
C1386 H1370 0.931 . S
C1386 C1380 1.383 . S
C1386 C1385 1.379 . S
H1387 C1381 0.959 . S
H1388 C1381 0.961 . S
H1389 C1381 0.960 . S
H1390 C1382 0.930 . S
H1391 C1383 0.929 . S
H1392 C1400 0.929 . S
H1393 C1402 0.930 . S
H1394 C1404 0.930 . S
H1395 C1407 0.929 . S
H1396 C1410 0.930 . S
H1397 C1412 0.960 . S
H1398 C1412 0.960 . S
H1399 C1412 0.960 . S
C1400 H1392 0.929 . S
C1400 C1401 1.377 . S
C1400 C1402 1.384 . S
C1401 C1400 1.377 . S
C1401 C1407 1.390 . S
C1402 H1393 0.930 . S
C1402 C1400 1.384 . S
C1402 C1403 1.372 . S
C1403 C1402 1.372 . S
C1403 C1404 1.400 . S
C1403 C1408 1.490 . S
C1404 H1394 0.930 . S
C1404 C1403 1.400 . S
C1404 C1407 1.386 . S
H1405 C1421 0.930 . S
H1406 C1422 0.931 . S
C1407 H1395 0.929 . S
C1407 C1401 1.390 . S
C1407 C1404 1.386 . S
C1408 C1403 1.490 . S
C1408 C1410 1.395 . S
C1408 C1411 1.403 . S
H1409 C1415 0.930 . S
C1410 H1396 0.930 . S
C1410 C1408 1.395 . S
C1410 C1413 1.403 . S
C1411 C1408 1.403 . S
C1411 C1412 1.524 . S
C1411 C1415 1.400 . S
C1412 H1397 0.960 . S
C1412 H1398 0.960 . S
C1412 H1399 0.960 . S
C1412 C1411 1.524 . S
C1413 C1410 1.403 . S
C1413 C1414 1.392 . S
C1413 C1417 1.495 . S
C1414 C1413 1.392 . S
C1414 C1415 1.385 . S
C1414 C1416 1.478 . S
C1415 H1409 0.930 . S
C1415 C1411 1.400 . S
C1415 C1414 1.385 . S
C1416 C1414 1.478 . S
C1416 C1418 1.381 . S
C1416 C1422 1.383 . S
C1417 C1413 1.495 . S
C1417 H1423 0.959 . S
C1417 H1424 0.961 . S
C1417 H1425 0.960 . S
C1418 C1416 1.381 . S
C1418 C1419 1.394 . S
C1418 H1426 0.930 . S
C1419 C1418 1.394 . S
C1419 C1420 1.383 . S
C1419 H1427 0.929 . S
C1420 C1419 1.383 . S
C1420 C1421 1.377 . S
C1421 H1405 0.930 . S
C1421 C1420 1.377 . S
C1421 C1422 1.379 . S
C1422 H1406 0.931 . S
C1422 C1416 1.383 . S
C1422 C1421 1.379 . S
H1423 C1417 0.959 . S
H1424 C1417 0.961 . S
H1425 C1417 0.960 . S
H1426 C1418 0.930 . S
H1427 C1419 0.929 . S
H1428 C1436 0.929 1_554 S
H1429 C1438 0.930 . S
H1430 C1440 0.930 . S
H1431 C1443 0.929 . S
H1432 C1446 0.930 . S
H1433 C1448 0.960 . S
H1434 C1448 0.960 . S
H1435 C1448 0.960 . S
C1436 H1428 0.929 1_556 S
C1436 C1437 1.377 . S
C1436 C1438 1.384 . S
C1437 C1436 1.377 . S
C1437 C1443 1.390 . S
C1438 H1429 0.930 . S
C1438 C1436 1.384 . S
C1438 C1439 1.372 . S
C1439 C1438 1.372 . S
C1439 C1440 1.400 . S
C1439 C1444 1.490 . S
C1440 H1430 0.930 . S
C1440 C1439 1.400 . S
C1440 C1443 1.386 . S
H1441 C1457 0.930 . S
H1442 C1458 0.931 . S
C1443 H1431 0.929 . S
C1443 C1437 1.390 . S
C1443 C1440 1.386 . S
C1444 C1439 1.490 . S
C1444 C1446 1.395 . S
C1444 C1447 1.403 . S
H1445 C1451 0.930 . S
C1446 H1432 0.930 . S
C1446 C1444 1.395 . S
C1446 C1449 1.403 . S
C1447 C1444 1.403 . S
C1447 C1448 1.524 . S
C1447 C1451 1.400 . S
C1448 H1433 0.960 . S
C1448 H1434 0.960 . S
C1448 H1435 0.960 . S
C1448 C1447 1.524 . S
C1449 C1446 1.403 . S
C1449 C1450 1.392 . S
C1449 C1453 1.495 . S
C1450 C1449 1.392 . S
C1450 C1451 1.385 . S
C1450 C1452 1.478 . S
C1451 H1445 0.930 . S
C1451 C1447 1.400 . S
C1451 C1450 1.385 . S
C1452 C1450 1.478 . S
C1452 C1454 1.381 . S
C1452 C1458 1.383 . S
C1453 C1449 1.495 . S
C1453 H1459 0.959 . S
C1453 H1460 0.961 . S
C1453 H1461 0.960 . S
C1454 C1452 1.381 . S
C1454 C1455 1.394 . S
C1454 H1462 0.930 . S
C1455 C1454 1.394 . S
C1455 C1456 1.383 . S
C1455 H1463 0.929 . S
C1456 C1455 1.383 . S
C1456 C1457 1.377 . S
C1457 H1441 0.930 . S
C1457 C1456 1.377 . S
C1457 C1458 1.379 . S
C1458 H1442 0.931 . S
C1458 C1452 1.383 . S
C1458 C1457 1.379 . S
H1459 C1453 0.959 . S
H1460 C1453 0.961 . S
H1461 C1453 0.960 . S
H1462 C1454 0.930 . S
H1463 C1455 0.929 . S
H1464 C1472 0.929 . S
H1465 C1474 0.930 . S
H1466 C1476 0.930 . S
H1467 C1479 0.929 . S
H1468 C1482 0.930 . S
H1469 C1484 0.960 . S
H1470 C1484 0.960 . S
H1471 C1484 0.960 . S
C1472 H1464 0.929 . S
C1472 C1473 1.377 . S
C1472 C1474 1.384 . S
C1473 C1472 1.377 . S
C1473 C1479 1.390 . S
C1474 H1465 0.930 . S
C1474 C1472 1.384 . S
C1474 C1475 1.372 . S
C1475 C1474 1.372 . S
C1475 C1476 1.400 . S
C1475 C1480 1.490 . S
C1476 H1466 0.930 . S
C1476 C1475 1.400 . S
C1476 C1479 1.386 . S
H1477 C1493 0.930 . S
H1478 C1494 0.931 . S
C1479 H1467 0.929 . S
C1479 C1473 1.390 . S
C1479 C1476 1.386 . S
C1480 C1475 1.490 . S
C1480 C1482 1.395 . S
C1480 C1483 1.403 . S
H1481 C1487 0.930 . S
C1482 H1468 0.930 . S
C1482 C1480 1.395 . S
C1482 C1485 1.403 . S
C1483 C1480 1.403 . S
C1483 C1484 1.524 . S
C1483 C1487 1.400 . S
C1484 H1469 0.960 . S
C1484 H1470 0.960 . S
C1484 H1471 0.960 . S
C1484 C1483 1.524 . S
C1485 C1482 1.403 . S
C1485 C1486 1.392 . S
C1485 C1489 1.495 . S
C1486 C1485 1.392 . S
C1486 C1487 1.385 . S
C1486 C1488 1.478 . S
C1487 H1481 0.930 . S
C1487 C1483 1.400 . S
C1487 C1486 1.385 . S
C1488 C1486 1.478 . S
C1488 C1490 1.381 . S
C1488 C1494 1.383 . S
C1489 C1485 1.495 . S
C1489 H1495 0.959 . S
C1489 H1496 0.961 . S
C1489 H1497 0.960 . S
C1490 C1488 1.381 . S
C1490 C1491 1.394 . S
C1490 H1498 0.930 . S
C1491 C1490 1.394 . S
C1491 C1492 1.383 . S
C1491 H1499 0.929 1_554 S
C1492 C1491 1.383 . S
C1492 C1493 1.377 . S
C1493 H1477 0.930 . S
C1493 C1492 1.377 . S
C1493 C1494 1.379 . S
C1494 H1478 0.931 . S
C1494 C1488 1.383 . S
C1494 C1493 1.379 . S
H1495 C1489 0.959 . S
H1496 C1489 0.961 . S
H1497 C1489 0.960 . S
H1498 C1490 0.930 . S
H1499 C1491 0.929 1_556 S
C645 C29 1.496 . S
C664 C347 1.507 . S
C681 C82 1.498 . S
C700 C400 1.476 . S
C717 C453 1.495 . S
C736 C135 1.481 . S
C753 C188 1.498 . S
C772 C506 1.476 . S
C789 C241 1.493 . S
C808 C559 1.494 . S
C825 C612 1.493 . S
C844 C294 1.490 . S
C861 C463 1.298 . S
C880 C39 1.294 . S
C897 C92 1.306 . S
C916 C516 1.295 . S
C933 C569 1.295 . S
C952 C145 1.321 . S
C969 C622 1.297 . S
C988 C198 1.299 . S
C1005 C251 1.297 . S
C1024 C357 1.327 . S
C1041 C304 1.297 . S
C1060 C410 1.298 . S
C1077 C605 2.111 . S
C1096 C22 2.101 . S
C1113 C340 2.111 . S
C1132 C75 2.108 . S
C1149 C128 2.111 . S
C1168 C393 2.091 . S
C1185 C446 2.106 . S
C1204 C181 2.095 . S
C1221 C499 2.105 . S
C1240 C234 2.104 . S
C1257 C552 2.107 . S
C1276 C287 2.119 . S
C1293 C38 1.950 . S
C1312 C568 1.954 . S
C1329 C621 1.951 . S
C1348 C91 1.940 . S
C1365 C144 1.949 . S
C1384 C356 1.935 . S
C1401 C197 1.951 . S
C1420 C409 1.947 . S
C1437 C250 1.947 1_556 S
C1456 C462 1.946 . S
C1473 C303 1.951 . S
C1492 C515 1.945 1_554 S
