# Generated by pormake.
# Topology umb, (4)-cn, num edge types: 1
# Building blocks:
#     Node 0, Type 0, BuildingBlock: KUFVIS_clean_sbu_0, # of connection points: 4
#     Node 1, Type 0, BuildingBlock: KUFVIS_clean_sbu_0, # of connection points: 4
#     Node 2, Type 0, BuildingBlock: KUFVIS_clean_sbu_0, # of connection points: 4
#     Node 3, Type 0, BuildingBlock: KUFVIS_clean_sbu_0, # of connection points: 4
#     Node 4, Type 0, BuildingBlock: KUFVIS_clean_sbu_0, # of connection points: 4
#     Node 5, Type 0, BuildingBlock: KUFVIS_clean_sbu_0, # of connection points: 4
#     Node 6, Type 0, BuildingBlock: KUFVIS_clean_sbu_0, # of connection points: 4
#     Node 7, Type 0, BuildingBlock: KUFVIS_clean_sbu_0, # of connection points: 4
#     Node 8, Type 0, BuildingBlock: KUFVIS_clean_sbu_0, # of connection points: 4
#     Node 9, Type 0, BuildingBlock: KUFVIS_clean_sbu_0, # of connection points: 4
#     Node 10, Type 0, BuildingBlock: KUFVIS_clean_sbu_0, # of connection points: 4
#     Node 11, Type 0, BuildingBlock: KUFVIS_clean_sbu_0, # of connection points: 4
#     Edge 12, Type (0, 0), BuildingBlock: EZIPEK_clean_linker_0, # of connection points: 2
#     Edge 13, Type (0, 0), BuildingBlock: EZIPEK_clean_linker_0, # of connection points: 2
#     Edge 14, Type (0, 0), BuildingBlock: EZIPEK_clean_linker_0, # of connection points: 2
#     Edge 15, Type (0, 0), BuildingBlock: EZIPEK_clean_linker_0, # of connection points: 2
#     Edge 16, Type (0, 0), BuildingBlock: EZIPEK_clean_linker_0, # of connection points: 2
#     Edge 17, Type (0, 0), BuildingBlock: EZIPEK_clean_linker_0, # of connection points: 2
#     Edge 18, Type (0, 0), BuildingBlock: EZIPEK_clean_linker_0, # of connection points: 2
#     Edge 19, Type (0, 0), BuildingBlock: EZIPEK_clean_linker_0, # of connection points: 2
#     Edge 20, Type (0, 0), BuildingBlock: EZIPEK_clean_linker_0, # of connection points: 2
#     Edge 21, Type (0, 0), BuildingBlock: EZIPEK_clean_linker_0, # of connection points: 2
#     Edge 22, Type (0, 0), BuildingBlock: EZIPEK_clean_linker_0, # of connection points: 2
#     Edge 23, Type (0, 0), BuildingBlock: EZIPEK_clean_linker_0, # of connection points: 2
#     Edge 24, Type (0, 0), BuildingBlock: EZIPEK_clean_linker_0, # of connection points: 2
#     Edge 25, Type (0, 0), BuildingBlock: EZIPEK_clean_linker_0, # of connection points: 2
#     Edge 26, Type (0, 0), BuildingBlock: EZIPEK_clean_linker_0, # of connection points: 2
#     Edge 27, Type (0, 0), BuildingBlock: EZIPEK_clean_linker_0, # of connection points: 2
#     Edge 28, Type (0, 0), BuildingBlock: EZIPEK_clean_linker_0, # of connection points: 2
#     Edge 29, Type (0, 0), BuildingBlock: EZIPEK_clean_linker_0, # of connection points: 2
#     Edge 30, Type (0, 0), BuildingBlock: EZIPEK_clean_linker_0, # of connection points: 2
#     Edge 31, Type (0, 0), BuildingBlock: EZIPEK_clean_linker_0, # of connection points: 2
#     Edge 32, Type (0, 0), BuildingBlock: EZIPEK_clean_linker_0, # of connection points: 2
#     Edge 33, Type (0, 0), BuildingBlock: EZIPEK_clean_linker_0, # of connection points: 2
#     Edge 34, Type (0, 0), BuildingBlock: EZIPEK_clean_linker_0, # of connection points: 2
#     Edge 35, Type (0, 0), BuildingBlock: EZIPEK_clean_linker_0, # of connection points: 2
# Relax obj value: 0.247
# Max RMSD: 0.279
# Mean RMSD: 0.279
data_MOF--net-umb--node1-KUFVIS_clean_sbu_0--edge1-EZIPEK_clean_linker_0
_symmetry_space_group_name_H-M    P1
_symmetry_Int_Tables_number       1
_symmetry_cell_setting            triclinic
loop_
_symmetry_equiv_pos_as_xyz
'x, y, z'
_cell_length_a     34.192792
_cell_length_b     33.969019
_cell_length_c     28.601606
_cell_angle_alpha  89.713548
_cell_angle_beta   90.942264
_cell_angle_gamma 119.98255
loop_
_atom_site_label
_atom_site_type_symbol
_atom_site_fract_x
_atom_site_fract_y
_atom_site_fract_z
_atom_type_partial_charge
Mn0 Mn 0.49955 0.14935 0.33739 0.0
Mn1 Mn 0.58804 0.13395 0.36451 0.0
C2 C 0.56937 0.21069 0.35721 0.0
C3 C 0.46421 0.16736 0.27236 0.0
C4 C 0.5169 0.11936 0.43592 0.0
O5 O 0.475 0.08321 0.31768 0.0
O6 O 0.53757 0.08015 0.33558 0.0
C7 C 0.61085 0.12496 0.26744 0.0
N8 N 0.62363 0.14565 0.31007 0.0
C9 C 0.70209 0.17705 0.29276 0.0
C10 C 0.68994 0.15618 0.24862 0.0
C11 C 0.64409 0.13078 0.23553 0.0
C12 C 0.66758 0.17267 0.32172 0.0
H13 H 0.5756 0.10338 0.25833 0.0
C14 C 0.49703 0.06205 0.32037 0.0
O15 O 0.44357 0.15161 0.31176 0.0
O16 O 0.50255 0.16935 0.27015 0.0
N17 N 0.64134 0.18291 0.39259 0.0
C18 C 0.64782 0.19753 0.43774 0.0
C19 C 0.69173 0.2258 0.45534 0.0
C20 C 0.72891 0.2364 0.42723 0.0
C21 C 0.72167 0.21845 0.38189 0.0
C22 C 0.67702 0.19277 0.3653 0.0
H23 H 0.61977 0.18679 0.46039 0.0
O24 O 0.53349 0.2142 0.35692 0.0
O25 O 0.56419 0.17223 0.34279 0.0
O26 O 0.49157 0.12889 0.40915 0.0
O27 O 0.55329 0.12141 0.42215 0.0
C28 C 0.75685 0.2222 0.35389 0.0
C29 C 0.74692 0.20063 0.30984 0.0
H30 H 0.7155 0.1592 0.22465 0.0
H31 H 0.63439 0.11443 0.2016 0.0
H32 H 0.69692 0.23803 0.49104 0.0
H33 H 0.76281 0.2568 0.44145 0.0
H34 H 0.79156 0.24068 0.36636 0.0
H35 H 0.7741 0.20254 0.28924 0.0
Mn36 Mn 0.34646 0.53469 0.66193 0.0
Mn37 Mn 0.45628 0.60462 0.69321 0.0
C38 C 0.37563 0.61281 0.66917 0.0
C39 C 0.29207 0.50366 0.59872 0.0
C40 C 0.38442 0.54971 0.76521 0.0
O41 O 0.37329 0.49216 0.65419 0.0
O42 O 0.44439 0.54568 0.67168 0.0
C43 C 0.48985 0.61312 0.59695 0.0
N44 N 0.48798 0.6328 0.6376 0.0
C45 C 0.54499 0.70643 0.61204 0.0
C46 C 0.54773 0.68716 0.56984 0.0
C47 C 0.51952 0.64034 0.56199 0.0
C48 C 0.51297 0.67802 0.64442 0.0
H49 H 0.46912 0.57691 0.59146 0.0
C50 C 0.4154 0.50548 0.65945 0.0
O51 O 0.28269 0.4867 0.64068 0.0
O52 O 0.33364 0.53435 0.59279 0.0
N53 N 0.47566 0.66451 0.71529 0.0
C54 C 0.47187 0.67684 0.75954 0.0
C55 C 0.49907 0.72203 0.77408 0.0
C56 C 0.53179 0.75351 0.74399 0.0
C57 C 0.53645 0.73984 0.69925 0.0
C58 C 0.50725 0.69471 0.68606 0.0
H59 H 0.4487 0.65223 0.78388 0.0
O60 O 0.33258 0.58506 0.6679 0.0
O61 O 0.40061 0.59464 0.66401 0.0
O62 O 0.35025 0.52964 0.73632 0.0
O63 O 0.42468 0.57715 0.75197 0.0
C64 C 0.57097 0.76825 0.66853 0.0
C65 C 0.57422 0.75215 0.62428 0.0
H66 H 0.57173 0.70786 0.5435 0.0
H67 H 0.52143 0.62512 0.52958 0.0
H68 H 0.49597 0.73216 0.80901 0.0
H69 H 0.55418 0.78753 0.75646 0.0
H70 H 0.5962 0.80208 0.67908 0.0
H71 H 0.60055 0.7747 0.6008 0.0
Mn72 Mn 0.78453 0.33025 1.00743 0.0
Mn73 Mn 0.81385 0.4381 0.03431 0.0
C74 C 0.72749 0.34206 0.0348 0.0
C75 C 0.75845 0.27921 0.94052 0.0
C76 C 0.8325 0.3804 0.09923 0.0
O77 O 0.84962 0.36974 0.98632 0.0
O78 O 0.84248 0.43083 0.97741 0.0
C79 C 0.89295 0.52625 1.00876 0.0
N80 N 0.85876 0.50139 0.0389 0.0
C81 C 0.87448 0.56926 0.08066 0.0
C82 C 0.91121 0.59491 0.0516 0.0
C83 C 0.92033 0.57329 1.0153 0.0
C84 C 0.84876 0.5222 0.07287 0.0
H85 H 0.89882 0.51077 0.97902 0.0
C86 C 0.8655 0.41086 0.97379 0.0
O87 O 0.77734 0.27198 0.9769 0.0
O88 O 0.75947 0.3175 0.94113 0.0
N89 N 0.78935 0.45004 0.08985 0.0
C90 C 0.75831 0.42094 0.12059 0.0
C91 C 0.74288 0.43754 0.15643 0.0
C92 C 0.76337 0.48436 0.16413 0.0
C93 C 0.7996 0.51388 0.13636 0.0
C94 C 0.81178 0.49518 0.09949 0.0
H95 H 0.74536 0.38527 0.11789 0.0
O96 O 0.72072 0.30182 0.02697 0.0
O97 O 0.76798 0.37433 0.02615 0.0
O98 O 0.80934 0.3414 0.0776 0.0
O99 O 0.84723 0.41863 0.07772 0.0
C100 C 0.82463 0.56106 0.1445 0.0
C101 C 0.86209 0.58875 0.11668 0.0
H102 H 0.93209 0.63133 0.05628 0.0
H103 H 0.94787 0.59293 0.9918 0.0
H104 H 0.71583 0.41422 0.17867 0.0
H105 H 0.75216 0.49712 0.19251 0.0
H106 H 0.81568 0.57633 0.17248 0.0
H107 H 0.88122 0.625 0.12333 0.0
Mn108 Mn 0.40574 0.77989 0.3388 0.0
Mn109 Mn 0.33527 0.81963 0.36449 0.0
C110 C 0.33647 0.76043 0.29793 0.0
C111 C 0.44381 0.76031 0.2777 0.0
C112 C 0.40542 0.82488 0.42992 0.0
O113 O 0.43248 0.84619 0.31658 0.0
O114 O 0.37477 0.86066 0.31596 0.0
C115 C 0.33718 0.9073 0.373 0.0
N116 N 0.32212 0.86411 0.38827 0.0
C117 C 0.27997 0.87312 0.44968 0.0
C118 C 0.29488 0.91767 0.43452 0.0
C119 C 0.32364 0.93483 0.39603 0.0
C120 C 0.29443 0.84724 0.42522 0.0
H121 H 0.35941 0.92066 0.34354 0.0
C122 C 0.41542 0.87143 0.30664 0.0
O123 O 0.46205 0.77595 0.3183 0.0
O124 O 0.40547 0.75838 0.27139 0.0
N125 N 0.29814 0.78147 0.4136 0.0
C126 C 0.29002 0.73935 0.42617 0.0
C127 C 0.26202 0.71733 0.46423 0.0
C128 C 0.24372 0.73939 0.4897 0.0
C129 C 0.25413 0.78353 0.47727 0.0
C130 C 0.28171 0.80347 0.43861 0.0
H131 H 0.30452 0.72255 0.40699 0.0
O132 O 0.36856 0.75781 0.27741 0.0
O133 O 0.34564 0.77341 0.3404 0.0
O134 O 0.41903 0.80033 0.40917 0.0
O135 O 0.38753 0.8444 0.40743 0.0
C136 C 0.2388 0.80877 0.50216 0.0
C137 C 0.25168 0.85354 0.48835 0.0
H138 H 0.28463 0.93907 0.45229 0.0
H139 H 0.33543 0.96923 0.38423 0.0
H140 H 0.25482 0.68358 0.47408 0.0
H141 H 0.22245 0.72246 0.51929 0.0
H142 H 0.2174 0.79424 0.53221 0.0
H143 H 0.23992 0.87272 0.50795 0.0
Mn144 Mn 0.62293 0.4366 0.6772 0.0
Mn145 Mn 0.51553 0.34406 0.72244 0.0
C146 C 0.57883 0.35957 0.64599 0.0
C147 C 0.67075 0.47372 0.60723 0.0
C148 C 0.59106 0.4199 0.76094 0.0
O149 O 0.56966 0.44661 0.657 0.0
O150 O 0.50397 0.38597 0.68363 0.0
C151 C 0.41774 0.31191 0.72437 0.0
N152 N 0.45393 0.30904 0.74043 0.0
C153 C 0.40719 0.24688 0.79103 0.0
C154 C 0.36937 0.24922 0.77519 0.0
C155 C 0.37467 0.28183 0.74164 0.0
C156 C 0.44923 0.27763 0.77244 0.0
H157 H 0.42174 0.33674 0.69832 0.0
C158 C 0.52628 0.42403 0.66188 0.0
O159 O 0.67393 0.49552 0.64535 0.0
O160 O 0.63848 0.43199 0.6081 0.0
N161 N 0.52604 0.30486 0.76262 0.0
C162 C 0.56503 0.30407 0.77092 0.0
C163 C 0.5655 0.2734 0.80373 0.0
C164 C 0.52572 0.24335 0.82711 0.0
C165 C 0.48572 0.24394 0.81708 0.0
C166 C 0.4875 0.27586 0.7847 0.0
H167 H 0.59546 0.32657 0.75238 0.0
O168 O 0.60795 0.39352 0.62179 0.0
O169 O 0.57539 0.3697 0.68898 0.0
O170 O 0.6221 0.458 0.7466 0.0
O171 O 0.57726 0.38953 0.72909 0.0
C172 C 0.44395 0.21339 0.83709 0.0
C173 C 0.40469 0.21473 0.82394 0.0
H174 H 0.33606 0.22592 0.78826 0.0
H175 H 0.34561 0.28365 0.72901 0.0
H176 H 0.59632 0.27264 0.81067 0.0
H177 H 0.52608 0.21936 0.85196 0.0
H178 H 0.44148 0.18817 0.86204 0.0
H179 H 0.37263 0.19052 0.83895 0.0
Mn180 Mn 0.14344 0.61317 0.99186 0.0
Mn181 Mn 0.10728 0.50473 1.01902 0.0
C182 C 0.19553 0.58956 0.99098 0.0
C183 C 0.16124 0.66416 0.92746 0.0
C184 C 0.11284 0.57281 0.08916 0.0
O185 O 0.07487 0.57932 0.98204 0.0
O186 O 0.06538 0.50911 0.97328 0.0
C187 C 0.01851 0.42065 1.02229 0.0
N188 N 0.06159 0.44591 0.03917 0.0
C189 C 0.05109 0.38615 0.09189 0.0
C190 C 0.00623 0.36016 0.07607 0.0
C191 C -0.01006 0.37744 0.04092 0.0
C192 C 0.07794 0.42916 0.0721 0.0
H193 H 0.00609 0.43309 0.99439 0.0
C194 C 0.0513 0.53759 0.96944 0.0
O195 O 0.15361 0.67464 0.96879 0.0
O196 O 0.15268 0.62299 0.92286 0.0
N197 N 0.14529 0.49798 0.06563 0.0
C198 C 0.18703 0.52897 0.08249 0.0
C199 C 0.20864 0.51616 0.11636 0.0
C200 C 0.1861 0.47233 0.13516 0.0
C201 C 0.14162 0.44223 0.1209 0.0
C202 C 0.12228 0.45649 0.08587 0.0
H203 H 0.20411 0.56345 0.07049 0.0
O204 O 0.2087 0.6323 0.99626 0.0
O205 O 0.15282 0.56274 0.9953 0.0
O206 O 0.13678 0.60929 0.06516 0.0
O207 O 0.09042 0.53349 0.06975 0.0
C208 C 0.11542 0.39899 0.14098 0.0
C209 C 0.07015 0.37097 0.12651 0.0
H210 H -0.01587 0.32677 0.09036 0.0
H211 H 0.95555 0.35739 0.02797 0.0
H212 H 0.24237 0.54043 0.1286 0.0
H213 H 0.20263 0.46282 0.16188 0.0
H214 H 0.1296 0.38718 0.16804 0.0
H215 H 0.05022 0.33789 0.14241 0.0
Mn216 Mn 0.79568 0.44985 0.3805 0.0
Mn217 Mn 0.82597 0.37087 0.36586 0.0
C218 C 0.73612 0.37833 0.36203 0.0
C219 C 0.77621 0.4819 0.44639 0.0
C220 C 0.83683 0.43725 0.29189 0.0
O221 O 0.86232 0.47862 0.39974 0.0
O222 O 0.85527 0.4127 0.41994 0.0
C223 C 0.90946 0.37068 0.39488 0.0
N224 N 0.8754 0.35932 0.36293 0.0
C225 C 0.90695 0.32677 0.31182 0.0
C226 C 0.94354 0.34038 0.343 0.0
C227 C 0.94442 0.36182 0.3851 0.0
C228 C 0.87318 0.3368 0.32345 0.0
H229 H 0.90999 0.38632 0.42778 0.0
C230 C 0.87908 0.45584 0.41742 0.0
O231 O 0.79059 0.50381 0.40724 0.0
O232 O 0.77658 0.44444 0.44807 0.0
N233 N 0.80231 0.32967 0.31287 0.0
C234 C 0.76089 0.30915 0.29206 0.0
C235 C 0.752 0.28206 0.25213 0.0
C236 C 0.78625 0.27616 0.23324 0.0
C237 C 0.82805 0.29502 0.25645 0.0
C238 C 0.83456 0.32128 0.29668 0.0
H239 H 0.73511 0.31367 0.30512 0.0
O240 O 0.73109 0.41344 0.3633 0.0
O241 O 0.77712 0.38603 0.36974 0.0
O242 O 0.81446 0.45538 0.30932 0.0
O243 O 0.85543 0.42047 0.31866 0.0
C244 C 0.86253 0.28656 0.24267 0.0
C245 C 0.90197 0.30236 0.27043 0.0
H246 H -0.02953 0.33342 0.33558 0.0
H247 H -0.02804 0.3715 0.40997 0.0
H248 H 0.7188 0.26605 0.23575 0.0
H249 H 0.77932 0.25527 0.20231 0.0
H250 H 0.85837 0.26657 0.21165 0.0
H251 H 0.92768 0.29444 0.26033 0.0
Mn252 Mn 0.33953 0.80377 0.71992 0.0
Mn253 Mn 0.45218 0.87374 0.70385 0.0
C254 C 0.38468 0.77392 0.69931 0.0
C255 C 0.28031 0.76525 0.77495 0.0
C256 C 0.38243 0.84962 0.62577 0.0
O257 O 0.3492 0.86345 0.74551 0.0
O258 O 0.4236 0.90414 0.73476 0.0
C259 C 0.47222 0.87957 0.80533 0.0
N260 N 0.48209 0.87415 0.76079 0.0
C261 C 0.55089 0.87748 0.78593 0.0
C262 C 0.54231 0.8845 0.83204 0.0
C263 C 0.50222 0.88455 0.84193 0.0
C264 C 0.51822 0.86982 0.75151 0.0
H265 H 0.44161 0.87983 0.81261 0.0
C266 C 0.38693 0.89946 0.75031 0.0
O267 O 0.27253 0.77554 0.73324 0.0
O268 O 0.32179 0.77635 0.78395 0.0
N269 N 0.48973 0.85399 0.67494 0.0
C270 C 0.4967 0.85398 0.62803 0.0
C271 C 0.5356 0.85497 0.61181 0.0
C272 C 0.56946 0.86042 0.64362 0.0
C273 C 0.5637 0.86396 0.69148 0.0
C274 C 0.523 0.86037 0.70584 0.0
H275 H 0.47404 0.8558 0.60261 0.0
O276 O 0.34095 0.74998 0.69657 0.0
O277 O 0.40143 0.81357 0.71902 0.0
O278 O 0.34701 0.82654 0.65069 0.0
O279 O 0.42239 0.87143 0.64348 0.0
C280 C 0.59814 0.87402 0.72509 0.0
C281 C 0.59125 0.87956 0.77248 0.0
H282 H 0.56625 0.88998 0.86002 0.0
H283 H 0.49493 0.88932 0.87746 0.0
H284 H 0.54066 0.85428 0.57464 0.0
H285 H 0.60053 0.86365 0.6307 0.0
H286 H 0.63009 0.87754 0.71487 0.0
H287 H 0.61765 0.8865 0.79807 0.0
Mn288 Mn 0.49865 0.32288 0.04796 0.0
Mn289 Mn 0.57835 0.4306 0.027 0.0
C290 C 0.57239 0.34118 0.05618 0.0
C291 C 0.45976 0.27098 0.11167 0.0
C292 C 0.51957 0.36883 0.95131 0.0
O293 O 0.46839 0.36153 0.05434 0.0
O294 O 0.53215 0.42823 0.06937 0.0
C295 C 0.58418 0.52026 0.0277 0.0
N296 N 0.59735 0.49188 1.00926 0.0
C297 C 0.65065 0.55133 0.95976 0.0
C298 C 0.63629 0.58054 0.97687 0.0
C299 C 0.60319 0.56503 1.01136 0.0
C300 C 0.63046 0.50701 0.97752 0.0
H301 H 0.55993 0.50912 0.05535 0.0
C302 C 0.48914 0.40258 0.06966 0.0
O303 O 0.44393 0.26232 0.06892 0.0
O304 O 0.49377 0.31098 0.11768 0.0
N305 N 0.62288 0.43507 0.98308 0.0
C306 C 0.63092 0.40219 0.96682 0.0
C307 C 0.66474 0.41302 0.9339 0.0
C308 C 0.68817 0.45689 0.91529 0.0
C309 C 0.67723 0.48946 0.92959 0.0
C310 C 0.64397 0.47701 0.9636 0.0
H311 H 0.61203 0.36781 0.97895 0.0
O312 O 0.54157 0.29922 0.04889 0.0
O313 O 0.55954 0.37012 0.04839 0.0
O314 O 0.50179 0.33067 0.97407 0.0
O315 O 0.53511 0.40699 0.97285 0.0
C316 C 0.69773 0.53368 0.91094 0.0
C317 C 0.68455 0.56466 0.92614 0.0
H318 H 0.65097 0.61514 0.96434 0.0
H319 H 0.59261 0.58763 1.0256 0.0
H320 H 0.6727 0.38741 0.92299 0.0
H321 H 0.7139 0.46492 0.88946 0.0
H322 H 0.72359 0.54417 0.88476 0.0
H323 H 0.70069 0.59865 0.91172 0.0
Mn324 Mn 0.15579 0.53943 0.37938 0.0
Mn325 Mn 0.10869 0.60375 0.35569 0.0
C326 C 0.20323 0.61315 0.35168 0.0
C327 C 0.18373 0.5127 0.44288 0.0
C328 C 0.10247 0.53391 0.28951 0.0
O329 O 0.09038 0.50387 0.40117 0.0
O330 O 0.08484 0.56555 0.41279 0.0
C331 C 0.02235 0.59715 0.3821 0.0
N332 N 0.05725 0.61216 0.3517 0.0
C333 C 0.03203 0.65818 0.31161 0.0
C334 C -0.00503 0.64163 0.34131 0.0
C335 C -0.00978 0.61107 0.37685 0.0
C336 C 0.06307 0.64302 0.31862 0.0
H337 H 0.01944 0.57557 0.41102 0.0
C338 C 0.06853 0.52258 0.41568 0.0
O339 O 0.1688 0.49028 0.40381 0.0
O340 O 0.18035 0.5488 0.44573 0.0
N341 N 0.12738 0.64018 0.2992 0.0
C342 C 0.15405 0.64069 0.26408 0.0
C343 C 0.16239 0.66894 0.22518 0.0
C344 C 0.13916 0.69288 0.21989 0.0
C345 C 0.10582 0.68572 0.25199 0.0
C346 C 0.10022 0.65796 0.29082 0.0
H347 H 0.16769 0.61843 0.26493 0.0
O348 O 0.21827 0.58533 0.35867 0.0
O349 O 0.16198 0.59754 0.36421 0.0
O350 O 0.13174 0.52542 0.30971 0.0
O351 O 0.08183 0.5499 0.3134 0.0
C352 C 0.07589 0.70243 0.2451 0.0
C353 C 0.03916 0.68891 0.27514 0.0
H354 H -0.02983 0.65243 0.33737 0.0
H355 H 0.96222 0.59876 0.40061 0.0
H356 H 0.18536 0.67085 0.19851 0.0
H357 H 0.14471 0.71382 0.18927 0.0
H358 H 0.07992 0.72447 0.21585 0.0
H359 H 0.01589 0.70137 0.2691 0.0
Mn360 Mn 0.58509 0.14532 0.72004 0.0
Mn361 Mn 0.47895 0.13545 0.69467 0.0
C362 C 0.57985 0.20545 0.68315 0.0
C363 C 0.63324 0.16876 0.78923 0.0
C364 C 0.54348 0.10805 0.63412 0.0
O365 O 0.53529 0.08316 0.74518 0.0
O366 O 0.48904 0.1106 0.7528 0.0
C367 C 0.4036 0.11254 0.75871 0.0
N368 N 0.42326 0.12841 0.71652 0.0
C369 C 0.36356 0.14204 0.69184 0.0
C370 C 0.34258 0.12566 0.73492 0.0
C371 C 0.36265 0.11071 0.76844 0.0
C372 C 0.40411 0.14251 0.68386 0.0
H373 H 0.41911 0.10146 0.78485 0.0
C374 C 0.49587 0.07717 0.75335 0.0
O375 O 0.63704 0.14494 0.7561 0.0
O376 O 0.5993 0.17547 0.78427 0.0
N377 N 0.46659 0.1592 0.63845 0.0
C378 C 0.49196 0.17665 0.59958 0.0
C379 C 0.47715 0.19456 0.56358 0.0
C380 C 0.43596 0.19369 0.56734 0.0
C381 C 0.41025 0.17568 0.60751 0.0
C382 C 0.42689 0.15866 0.64256 0.0
H383 H 0.52448 0.17943 0.59759 0.0
O384 O 0.6186 0.20903 0.69342 0.0
O385 O 0.54559 0.16572 0.69054 0.0
O386 O 0.57954 0.11461 0.65517 0.0
O387 O 0.51855 0.11873 0.65786 0.0
C388 C 0.36938 0.17523 0.61466 0.0
C389 C 0.34602 0.15837 0.65677 0.0
H390 H 0.31121 0.12468 0.74273 0.0
H391 H 0.3468 0.09821 0.80186 0.0
H392 H 0.4978 0.21015 0.53345 0.0
H393 H 0.42489 0.20787 0.5396 0.0
H394 H 0.35586 0.18825 0.58815 0.0
H395 H 0.31478 0.15852 0.66201 0.0
Mn396 Mn 0.4184 0.60552 0.05582 0.0
Mn397 Mn 0.34751 0.4973 1.02313 0.0
C398 C 0.34737 0.58817 0.02789 0.0
C399 C 0.44706 0.65559 0.12201 0.0
C400 C 0.42172 0.56162 0.96344 0.0
O401 O 0.44758 0.56862 0.07585 0.0
O402 O 0.3829 0.50297 0.08093 0.0
C403 C 0.34721 0.41103 0.03946 0.0
N404 N 0.33458 0.43616 1.01256 0.0
C405 C 0.28812 0.37131 0.96363 0.0
C406 C 0.30193 0.34539 0.98995 0.0
C407 C 0.3316 0.36538 0.02812 0.0
C408 C 0.30508 0.41687 0.97653 0.0
H409 H 0.36817 0.42521 0.07006 0.0
C410 C 0.42586 0.52645 0.08546 0.0
O411 O 0.47006 0.66386 0.08386 0.0
O412 O 0.40948 0.61747 0.12263 0.0
N413 N 0.31349 0.48854 0.96536 0.0
C414 C 0.31425 0.51968 0.93467 0.0
C415 C 0.28502 0.50538 0.89558 0.0
C416 C 0.26002 0.45915 0.88436 0.0
C417 C 0.26595 0.42813 0.9115 0.0
C418 C 0.2935 0.44442 0.95182 0.0
H419 H 0.33781 0.55516 0.93925 0.0
O420 O 0.37825 0.62979 0.0366 0.0
O421 O 0.35895 0.55823 0.0377 0.0
O422 O 0.43234 0.59891 0.98574 0.0
O423 O 0.40242 0.52322 0.98461 0.0
C424 C 0.24739 0.38216 0.89873 0.0
C425 C 0.25845 0.35373 0.92484 0.0
H426 H 0.28979 0.31009 0.98132 0.0
H427 H 0.34194 0.3455 0.04918 0.0
H428 H 0.28269 0.52997 0.87343 0.0
H429 H 0.23863 0.44824 0.85329 0.0
H430 H 0.22566 0.36868 0.86806 0.0
H431 H 0.24464 0.31862 0.91424 0.0
C432 C 0.54636 0.15112 0.51403 0.0
C433 C 0.51206 0.11479 0.48834 0.0
C434 C 0.49633 0.06929 0.56042 0.0
C435 C 0.53709 0.10415 0.5818 0.0
N436 N 0.60738 0.174 0.56943 0.0
N437 N 0.45476 0.03601 0.48732 0.0
C438 C 0.56471 0.14313 0.55506 0.0
C439 C 0.487 0.07258 0.51158 0.0
N440 N 0.5592 0.19403 0.50053 0.0
N441 N 0.46652 0.03357 0.58664 0.0
H442 H 0.44659 0.03871 0.45256 0.0
H443 H 0.43766 0.00338 0.50127 0.0
H444 H 0.47393 0.02876 0.62103 0.0
H445 H 0.434 0.01045 0.57477 0.0
H446 H 0.58226 0.22273 0.51951 0.0
H447 H 0.54002 0.19843 0.47472 0.0
H448 H 0.62862 0.20185 0.5489 0.0
H449 H 0.62301 0.16916 0.59865 0.0
C450 C 0.3898 0.51054 0.83871 0.0
C451 C 0.38042 0.5428 0.81763 0.0
C452 C 0.41635 0.59346 0.8848 0.0
C453 C 0.42053 0.5598 0.90996 0.0
N454 N 0.41674 0.4869 0.90656 0.0
N455 N 0.36109 0.59889 0.83772 0.0
C456 C 0.40862 0.51822 0.88552 0.0
C457 C 0.38759 0.58029 0.84502 0.0
N458 N 0.38019 0.47249 0.81384 0.0
N459 N 0.43886 0.63782 0.8985 0.0
H460 H 0.33099 0.58051 0.81881 0.0
H461 H 0.36394 0.62582 0.85771 0.0
H462 H 0.4643 0.64998 0.9241 0.0
H463 H 0.4364 0.66288 0.87954 0.0
H464 H 0.3891 0.44862 0.82427 0.0
H465 H 0.36314 0.46529 0.78162 0.0
H466 H 0.40465 0.45395 0.89442 0.0
H467 H 0.43716 0.49502 0.93629 0.0
C468 C 0.79509 0.39201 0.219 0.0
C469 C 0.83553 0.42687 0.23972 0.0
C470 C 0.87658 0.41699 0.17427 0.0
C471 C 0.83573 0.38412 0.15247 0.0
N472 N 0.75744 0.33007 0.16555 0.0
N473 N 0.91337 0.48075 0.22784 0.0
C474 C 0.79581 0.36854 0.17827 0.0
C475 C 0.87607 0.44123 0.21501 0.0
N476 N 0.75482 0.38101 0.23779 0.0
N477 N 0.91596 0.42169 0.15849 0.0
H478 H 0.91179 0.50169 0.25338 0.0
H479 H 0.94256 0.49548 0.20814 0.0
H480 H 0.91546 0.399 0.13369 0.0
H481 H 0.94722 0.44246 0.17462 0.0
H482 H 0.72427 0.35571 0.22351 0.0
H483 H 0.7527 0.39988 0.26495 0.0
H484 H 0.75656 0.30766 0.14031 0.0
H485 H 0.75656 0.30766 0.14031 0.0
C486 C 0.42418 0.87585 0.50023 0.0
C487 C 0.40701 0.83115 0.48213 0.0
C488 C 0.35997 0.80068 0.55219 0.0
C489 C 0.38069 0.84486 0.57289 0.0
N490 N 0.43163 0.92514 0.56518 0.0
N491 N 0.36666 0.75066 0.49651 0.0
C492 C 0.41236 0.88259 0.54612 0.0
C493 C 0.37762 0.79353 0.51004 0.0
N494 N 0.45152 0.91204 0.47282 0.0
N495 N 0.32301 0.76533 0.57219 0.0
H496 H 0.37924 0.74409 0.46647 0.0
H497 H 0.34906 0.72209 0.51742 0.0
H498 H 0.30564 0.76941 0.59944 0.0
H499 H 0.30552 0.73281 0.55784 0.0
H500 H 0.46077 0.94553 0.48039 0.0
H501 H 0.46419 0.90806 0.44133 0.0
H502 H 0.45994 0.95325 0.55172 0.0
H503 H 0.41966 0.93183 0.59575 0.0
C504 C 0.56055 0.36125 0.88094 0.0
C505 C 0.52828 0.3719 0.89865 0.0
C506 C 0.53373 0.41166 0.82356 0.0
C507 C 0.57197 0.40836 0.81027 0.0
N508 N 0.62486 0.38375 0.83003 0.0
N509 N 0.48133 0.40469 0.88401 0.0
C510 C 0.58631 0.38441 0.84041 0.0
C511 C 0.51429 0.3966 0.86901 0.0
N512 N 0.56616 0.32841 0.9024 0.0
N513 N 0.5147 0.42744 0.79196 0.0
H514 H 0.46189 0.38795 0.91292 0.0
H515 H 0.47349 0.42758 0.86808 0.0
H516 H 0.52846 0.43857 0.75921 0.0
H517 H 0.48408 0.42639 0.79672 0.0
H518 H 0.58785 0.31755 0.89072 0.0
H519 H 0.54634 0.30926 0.93013 0.0
H520 H 0.63782 0.36705 0.84984 0.0
H521 H 0.64531 0.40179 0.80208 0.0
C522 C 0.06703 0.54538 0.2136 0.0
C523 C 0.09972 0.5363 0.23575 0.0
C524 C 0.14743 0.57015 0.16671 0.0
C525 C 0.11283 0.57315 0.14221 0.0
N526 N 0.04109 0.56877 0.14464 0.0
N527 N 0.16343 0.5258 0.22177 0.0
C528 C 0.07302 0.56221 0.16655 0.0
C529 C 0.13751 0.54414 0.20866 0.0
N530 N 0.03003 0.53815 0.23755 0.0
N531 N 0.19055 0.59434 0.15131 0.0
H532 H 0.15272 0.49967 0.24615 0.0
H533 H 0.19243 0.53225 0.20425 0.0
H534 H 0.1988 0.61572 0.12235 0.0
H535 H 0.218 0.59666 0.1701 0.0
H536 H 0.01189 0.55455 0.22973 0.0
H537 H 0.01807 0.51566 0.26538 0.0
H538 H 0.00854 0.55651 0.15695 0.0
H539 H 0.04836 0.58769 0.11398 0.0
C540 C 0.66731 0.31951 0.31951 0.0
C541 C 0.69513 0.33392 0.36047 0.0
C542 C 0.63155 0.27622 0.40138 0.0
C543 C 0.61326 0.25221 0.35892 0.0
N544 N 0.61782 0.25325 0.27426 0.0
N545 N 0.69896 0.32595 0.44448 0.0
C546 C 0.63319 0.2739 0.31667 0.0
C547 C 0.67674 0.31087 0.40267 0.0
N548 N 0.66912 0.34934 0.28651 0.0
N549 N 0.60525 0.27422 0.43715 0.0
H550 H 0.73227 0.35249 0.44722 0.0
H551 H 0.684 0.30995 0.47581 0.0
H552 H 0.57032 0.25922 0.4335 0.0
H553 H 0.57032 0.25922 0.4335 0.0
H554 H 0.64693 0.33896 0.25777 0.0
H555 H 0.68788 0.38438 0.2913 0.0
H556 H 0.63384 0.26913 0.2433 0.0
H557 H 0.59195 0.21966 0.27054 0.0
C558 C 0.40346 0.72104 0.73239 0.0
C559 C 0.40954 0.74949 0.69429 0.0
C560 C 0.41251 0.69356 0.64287 0.0
C561 C 0.39325 0.66119 0.67892 0.0
N562 N 0.35989 0.64481 0.75573 0.0
N563 N 0.41504 0.7604 0.61101 0.0
C564 C 0.3862 0.67494 0.7231 0.0
C565 C 0.41459 0.73596 0.64889 0.0
N566 N 0.40598 0.73604 0.77707 0.0
N567 N 0.42489 0.68273 0.60193 0.0
H568 H 0.4122 0.78918 0.61478 0.0
H569 H 0.41468 0.75022 0.57666 0.0
H570 H 0.42089 0.65071 0.59554 0.0
H571 H 0.44245 0.70677 0.57622 0.0
H572 H 0.39927 0.71467 0.80586 0.0
H573 H 0.41763 0.77024 0.78454 0.0
H574 H 0.34168 0.60994 0.74969 0.0
H575 H 0.34168 0.60994 0.74969 0.0
C576 C 0.65465 0.39244 0.06606 0.0
C577 C 0.61583 0.35231 0.07794 0.0
C578 C 0.6587 0.3138 0.08447 0.0
C579 C 0.69097 0.34784 0.0537 0.0
N580 N 0.72048 0.42358 1.0194 0.0
N581 N 0.58525 0.28298 0.12074 0.0
C582 C 0.68955 0.38862 0.04582 0.0
C583 C 0.61985 0.31598 0.09559 0.0
N584 N 0.65791 0.43363 0.07156 0.0
N585 N 0.66529 0.28068 0.10399 0.0
H586 H 0.55881 0.28737 0.1322 0.0
H587 H 0.58205 0.25175 0.12948 0.0
H588 H 0.69256 0.27631 0.09765 0.0
H589 H 0.64518 0.25878 0.13003 0.0
H590 H 0.63281 0.43752 0.08761 0.0
H591 H 0.63281 0.43752 0.08761 0.0
H592 H 0.72068 0.45436 1.01664 0.0
H593 H 0.74304 0.42099 0.99748 0.0
C594 C 0.25742 0.7356 0.30999 0.0
C595 C 0.28966 0.73545 0.28055 0.0
C596 C 0.2529 0.65392 0.28354 0.0
C597 C 0.22968 0.65527 0.3245 0.0
N598 N 0.20328 0.69935 0.36874 0.0
N599 N 0.29711 0.69613 0.2161 0.0
C600 C 0.22898 0.69606 0.33484 0.0
C601 C 0.27931 0.69473 0.25877 0.0
N602 N 0.25663 0.7745 0.31811 0.0
N603 N 0.24905 0.61426 0.26769 0.0
H604 H 0.31726 0.72721 0.1995 0.0
H605 H 0.28929 0.66743 0.19627 0.0
H606 H 0.22511 0.58238 0.27957 0.0
H607 H 0.26983 0.61302 0.24224 0.0
H608 H 0.27803 0.8048 0.30088 0.0
H609 H 0.27803 0.8048 0.30088 0.0
H610 H 0.18261 0.67303 0.3911 0.0
H611 H 0.18261 0.67303 0.3911 0.0
C612 C 0.5934 0.30425 0.60811 0.0
C613 C 0.56197 0.31276 0.63009 0.0
C614 C 0.53646 0.24666 0.67792 0.0
C615 C 0.57457 0.24304 0.66435 0.0
N616 N 0.63988 0.26963 0.61373 0.0
N617 N 0.48848 0.27828 0.66174 0.0
C618 C 0.60307 0.27175 0.62809 0.0
C619 C 0.52801 0.27862 0.65609 0.0
N620 N 0.61289 0.32675 0.56787 0.0
N621 N 0.50888 0.2223 0.71341 0.0
H622 H 0.48256 0.30239 0.64527 0.0
H623 H 0.46155 0.2524 0.6798 0.0
H624 H 0.5148 0.20193 0.73643 0.0
H625 H 0.5148 0.20193 0.73643 0.0
H626 H 0.63357 0.31968 0.54742 0.0
H627 H 0.60356 0.34882 0.55236 0.0
H628 H 0.66399 0.29349 0.59153 0.0
H629 H 0.64845 0.24599 0.62553 0.0
C630 C 0.22495 0.53553 0.988 0.0
C631 C 0.22739 0.57603 0.97344 0.0
C632 C 0.30848 0.6117 0.96965 0.0
C633 C 0.30561 0.57909 1.00325 0.0
N634 N 0.25949 0.50297 0.03572 0.0
N635 N 0.26804 0.64293 0.92712 0.0
C636 C 0.26354 0.53839 1.00946 0.0
C637 C 0.26833 0.61079 0.95577 0.0
N638 N 0.18642 0.49488 0.98303 0.0
N639 N 0.34881 0.64156 0.94993 0.0
H640 H 0.23777 0.63935 0.91392 0.0
H641 H 0.29676 0.67244 0.91663 0.0
H642 H 0.3779 0.63943 0.95512 0.0
H643 H 0.35281 0.66544 0.92477 0.0
H644 H 0.15764 0.49156 0.96605 0.0
H645 H 0.15764 0.49156 0.96605 0.0
H646 H 0.22864 0.47284 0.03881 0.0
H647 H 0.28565 0.50408 0.05576 0.0
C648 C 0.44927 -0.00902 0.27099 0.0
C649 C 0.47499 0.0124 0.31207 0.0
C650 C 0.48024 0.94496 0.32919 0.0
C651 C 0.44591 0.91995 0.29584 0.0
N652 N 0.39803 0.91911 0.23278 0.0
N653 N 0.50249 0.00286 0.38762 0.0
C654 C 0.43064 0.94311 0.26573 0.0
C655 C 0.48671 -0.01275 0.34344 0.0
N656 N 0.44389 0.01604 0.23672 0.0
N657 N 0.50625 0.92856 0.34782 0.0
H658 H 0.5028 0.03126 0.40166 0.0
H659 H 0.51006 -0.01543 0.41188 0.0
H660 H 0.50592 0.89988 0.33463 0.0
H661 H 0.53296 0.94744 0.37112 0.0
H662 H 0.42859 0.00246 0.20446 0.0
H663 H 0.45821 0.05118 0.239 0.0
H664 H 0.38174 0.93288 0.21336 0.0
H665 H 0.38642 0.88472 0.22642 0.0
C666 C 0.46754 0.4844 0.69603 0.0
C667 C 0.43454 0.47451 0.66036 0.0
C668 C 0.46255 0.42939 0.62128 0.0
C669 C 0.50036 0.44755 0.65278 0.0
N670 N 0.54499 0.50614 0.70981 0.0
N671 N 0.40317 0.43983 0.58549 0.0
C672 C 0.50501 0.47966 0.6866 0.0
C673 C 0.4324 0.4473 0.62181 0.0
N674 N 0.46378 0.49989 0.73868 0.0
N675 N 0.45569 0.39551 0.59109 0.0
H676 H 0.38035 0.45173 0.58567 0.0
H677 H 0.40333 0.42393 0.5545 0.0
H678 H 0.47852 0.3837 0.58858 0.0
H679 H 0.42655 0.37803 0.57048 0.0
H680 H 0.48557 0.50451 0.76675 0.0
H681 H 0.43626 0.50364 0.74671 0.0
H682 H 0.54979 0.53226 0.73242 0.0
H683 H 0.57437 0.50523 0.7033 0.0
C684 C 0.93347 0.45855 0.92331 0.0
C685 C 0.91461 0.44016 0.96742 0.0
C686 C -0.02134 0.50286 1.00593 0.0
C687 C 0.00203 0.51652 0.96383 0.0
N688 N 0.00301 0.50541 0.88098 0.0
N689 N 0.93175 0.43548 0.04836 0.0
C690 C -0.02024 0.49384 0.9217 0.0
C691 C 0.94063 0.45957 1.00819 0.0
N692 N 0.90771 0.4421 0.88363 0.0
N693 N -0.00634 0.53014 0.04437 0.0
H694 H 0.90775 0.40101 0.04949 0.0
H695 H 0.95387 0.44825 0.077 0.0
H696 H 0.02021 0.56351 0.04241 0.0
H697 H -0.02448 0.52125 0.07537 0.0
H698 H 0.91865 0.45672 0.85087 0.0
H699 H 0.87462 0.41489 0.8843 0.0
H700 H -0.01005 0.48727 0.84992 0.0
H701 H 0.03618 0.53241 0.87934 0.0
C702 C -0.00747 0.48084 0.38111 0.0
C703 C 0.01911 0.49457 0.42221 0.0
C704 C 0.95145 0.48057 0.46494 0.0
C705 C 0.92894 0.47668 0.4215 0.0
N706 N 0.93992 0.49488 0.33952 0.0
N707 N 0.02436 0.50951 0.50487 0.0
C708 C 0.95271 0.48299 0.37985 0.0
C709 C -0.00131 0.49498 0.46495 0.0
N710 N 0.00484 0.46588 0.34309 0.0
N711 N 0.92816 0.4712 0.50555 0.0
H712 H 0.05825 0.51804 0.50556 0.0
H713 H 0.01245 0.51458 0.53627 0.0
H714 H 0.89433 0.46277 0.50616 0.0
H715 H 0.94186 0.46973 0.53788 0.0
H716 H -0.01653 0.45248 0.31386 0.0
H717 H 0.03267 0.46112 0.34361 0.0
H718 H 0.95967 0.50318 0.30987 0.0
H719 H 0.91477 0.5036 0.33823 0.0
C720 C 0.45654 0.00703 0.80295 0.0
C721 C 0.45686 0.03137 0.76228 0.0
C722 C 0.38316 0.9675 0.73834 0.0
C723 C 0.39006 0.9405 0.77046 0.0
N724 N 0.41774 0.93529 0.8456 0.0
N725 N 0.41848 0.03445 0.69106 0.0
C726 C 0.42159 0.961 0.80737 0.0
C727 C 0.41882 0.01218 0.73067 0.0
N728 N 0.48999 0.02751 0.83611 0.0
N729 N 0.3436 0.94887 0.71331 0.0
H730 H 0.44482 0.0659 0.68215 0.0
H731 H 0.39392 0.02011 0.66473 0.0
H732 H 0.31814 0.91536 0.7189 0.0
H733 H 0.33438 0.96746 0.69124 0.0
H734 H 0.49339 0.011 0.86528 0.0
H735 H 0.51485 0.06169 0.83432 0.0
H736 H 0.43869 0.94703 0.87508 0.0
H737 H 0.39112 0.90179 0.8479 0.0
C738 C 0.44257 0.47072 0.12583 0.0
C739 C 0.45027 0.501 0.08811 0.0
C740 C 0.46722 0.4548 0.03748 0.0
C741 C 0.46456 0.42727 0.07557 0.0
N742 N 0.45547 0.41161 0.15796 0.0
N743 N 0.4885 0.53101 1.01492 0.0
C744 C 0.45397 0.43597 0.1206 0.0
C745 C 0.46863 0.49614 0.04604 0.0
N746 N 0.4239 0.47495 0.16594 0.0
N747 N 0.46969 0.44163 0.99325 0.0
H748 H 0.494 0.56347 1.02159 0.0
H749 H 0.50504 0.52939 0.98534 0.0
H750 H 0.46368 0.40896 0.98663 0.0
H751 H 0.47275 0.46059 0.96351 0.0
H752 H 0.41316 0.45117 0.19281 0.0
H753 H 0.41779 0.50179 0.17125 0.0
H754 H 0.45236 0.41929 0.19243 0.0
H755 H 0.46184 0.38478 0.15416 0.0
C756 C 0.44473 0.22553 0.23727 0.0
C757 C 0.44858 0.1859 0.23198 0.0
C758 C 0.45076 0.19673 0.14589 0.0
C759 C 0.44671 0.23632 0.15101 0.0
N760 N 0.42847 0.28113 0.20126 0.0
N761 N 0.44226 0.12732 0.18057 0.0
C762 C 0.43989 0.24814 0.19671 0.0
C763 C 0.44723 0.1695 0.18597 0.0
N764 N 0.44859 0.24346 0.28087 0.0
N765 N 0.46141 0.18664 0.10347 0.0
H766 H 0.43881 0.10658 0.20906 0.0
H767 H 0.43666 0.11113 0.1483 0.0
H768 H 0.46423 0.20486 0.07315 0.0
H769 H 0.47082 0.16211 0.09895 0.0
H770 H 0.45199 0.27525 0.28681 0.0
H771 H 0.45126 0.22779 0.3112 0.0
H772 H 0.41896 0.28889 0.23275 0.0
H773 H 0.42408 0.29754 0.1724 0.0
C774 C 0.19147 0.49896 0.52912 0.0
C775 C 0.20553 0.4999 0.48238 0.0
C776 C 0.26619 0.48691 0.51371 0.0
C777 C 0.25725 0.49445 0.56026 0.0
N778 N 0.21275 0.51285 0.61117 0.0
N779 N 0.26 0.49854 0.4307 0.0
C780 C 0.2198 0.50116 0.56778 0.0
C781 C 0.2435 0.49416 0.47476 0.0
N782 N 0.15037 0.49518 0.5367 0.0
N783 N 0.29625 0.47221 0.50674 0.0
H784 H 0.24522 0.50435 0.40133 0.0
H785 H 0.29057 0.50016 0.42373 0.0
H786 H 0.31265 0.46588 0.53438 0.0
H787 H 0.30123 0.46177 0.47429 0.0
H788 H 0.136 0.48969 0.56963 0.0
H789 H 0.12851 0.49254 0.50944 0.0
H790 H 0.18969 0.5237 0.61737 0.0
H791 H 0.23231 0.51546 0.64051 0.0
C792 C 0.68943 0.20496 0.91274 0.0
C793 C 0.73141 0.24455 0.9023 0.0
C794 C 0.71269 0.2282 0.8176 0.0
C795 C 0.66855 0.19192 0.82815 0.0
N796 N 0.61462 0.14604 0.88602 0.0
N797 N 0.78301 0.29405 0.84457 0.0
C798 C 0.6571 0.18026 0.87587 0.0
C799 C 0.74307 0.2558 0.85456 0.0
N800 N 0.68022 0.19097 0.95813 0.0
N801 N 0.72563 0.23666 0.77197 0.0
H802 H 0.80728 0.3128 0.87023 0.0
H803 H 0.79163 0.30838 0.81146 0.0
H804 H 0.704 0.21954 0.74391 0.0
H805 H 0.75857 0.25869 0.76164 0.0
H806 H 0.6528 0.16019 0.96823 0.0
H807 H 0.7019 0.20857 0.98597 0.0
H808 H 0.60138 0.13889 0.91948 0.0
H809 H 0.5914 0.12571 0.86027 0.0
C810 C 0.46183 0.73157 0.15512 0.0
C811 C 0.45979 0.68901 0.16195 0.0
C812 C 0.46008 0.69957 0.24759 0.0
C813 C 0.46085 0.74144 0.24062 0.0
N814 N 0.47511 0.80295 0.18906 0.0
N815 N 0.46902 0.63864 0.2144 0.0
C816 C 0.46612 0.75925 0.19468 0.0
C817 C 0.46293 0.67515 0.20822 0.0
N818 N 0.45636 0.74424 0.11116 0.0
N819 N 0.45377 0.68161 0.2915 0.0
H820 H 0.47159 0.62056 0.18635 0.0
H821 H 0.47577 0.62897 0.24677 0.0
H822 H 0.45315 0.69903 0.32112 0.0
H823 H 0.44692 0.64866 0.29838 0.0
H824 H 0.45176 0.77182 0.10447 0.0
H825 H 0.45323 0.72544 0.08128 0.0
H826 H 0.48354 0.81992 0.15718 0.0
H827 H 0.47858 0.82372 0.21746 0.0
C828 C 0.68778 0.49157 0.52096 0.0
C829 C 0.70378 0.49049 0.56693 0.0
C830 C 0.77425 0.50026 0.53215 0.0
C831 C 0.75531 0.49436 0.48625 0.0
N832 N 0.69249 0.48265 0.43713 0.0
N833 N 0.76244 0.49241 0.61624 0.0
C834 C 0.71197 0.49043 0.4807 0.0
C835 C 0.7475 0.49534 0.57248 0.0
N836 N 0.6492 0.49392 0.51591 0.0
N837 N 0.81826 0.51084 0.53705 0.0
H838 H 0.7448 0.4903 0.64641 0.0
H839 H 0.791 0.48962 0.62267 0.0
H840 H 0.83838 0.51475 0.50836 0.0
H841 H 0.83602 0.51981 0.56875 0.0
H842 H 0.63739 0.49912 0.48403 0.0
H843 H 0.63119 0.49492 0.54458 0.0
H844 H 0.65894 0.47356 0.43095 0.0
H845 H 0.70928 0.48282 0.40698 0.0
C846 C 0.22886 0.7372 0.89694 0.0
C847 C 0.18601 0.69757 0.88874 0.0
C848 C 0.20269 0.70405 0.80414 0.0
C849 C 0.24488 0.74427 0.81236 0.0
N850 N 0.28989 0.80666 0.86489 0.0
N851 N 0.12763 0.65161 0.83282 0.0
C852 C 0.25524 0.76318 0.85823 0.0
C853 C 0.17152 0.68394 0.84166 0.0
N854 N 0.24639 0.7487 0.94128 0.0
N855 N 0.19328 0.68316 0.76145 0.0
H856 H 0.10402 0.63707 0.85937 0.0
H857 H 0.11367 0.64292 0.79922 0.0
H858 H 0.21522 0.69587 0.73342 0.0
H859 H 0.16543 0.65114 0.75501 0.0
H860 H 0.27975 0.77362 0.94824 0.0
H861 H 0.22935 0.7313 0.97103 0.0
H862 H 0.29632 0.82379 0.89671 0.0
H863 H 0.30878 0.82737 0.83737 0.0
loop_
_geom_bond_atom_site_label_1
_geom_bond_atom_site_label_2
_geom_bond_distance
_geom_bond_site_symmetry_2
_ccdc_geom_bond_type
Mn0 O5 2.095 . S
Mn0 O15 2.162 . S
Mn0 O16 2.297 . S
Mn0 O24 2.385 . S
Mn0 O25 2.209 . S
Mn0 O26 2.094 . S
Mn1 O6 2.121 . S
Mn1 N8 2.257 . S
Mn1 N17 2.282 . S
Mn1 O25 2.215 . S
Mn1 O27 2.117 . S
C2 O24 1.234 . S
C2 O25 1.283 . S
C3 O15 1.281 . S
C3 O16 1.236 . S
C4 O26 1.240 . S
C4 O27 1.264 . S
O5 Mn0 2.095 . S
O5 C14 1.250 . S
O6 Mn1 2.121 . S
O6 C14 1.258 . S
C7 N8 1.326 . S
C7 C11 1.460 . S
C7 H13 0.929 . S
N8 Mn1 2.257 . S
N8 C7 1.326 . S
N8 C12 1.362 . S
C9 C10 1.258 . S
C9 C12 1.431 . S
C9 C29 1.449 . S
C10 C9 1.258 . S
C10 C11 1.477 . S
C10 H30 0.931 . S
C11 C7 1.460 . S
C11 C10 1.477 . S
C11 H31 0.930 . S
C12 N8 1.362 . S
C12 C9 1.431 . S
C12 C22 1.476 . S
H13 C7 0.929 . S
C14 O5 1.250 . S
C14 O6 1.258 . S
O15 Mn0 2.162 . S
O15 C3 1.281 . S
O16 Mn0 2.297 . S
O16 C3 1.236 . S
N17 Mn1 2.282 . S
N17 C18 1.328 . S
N17 C22 1.318 . S
C18 N17 1.328 . S
C18 C19 1.457 . S
C18 H23 0.929 . S
C19 C18 1.457 . S
C19 C20 1.291 . S
C19 H32 0.931 . S
C20 C19 1.291 . S
C20 C21 1.373 . S
C20 H33 0.929 . S
C21 C20 1.373 . S
C21 C22 1.396 . S
C21 C28 1.403 . S
C22 C12 1.476 . S
C22 N17 1.318 . S
C22 C21 1.396 . S
H23 C18 0.929 . S
O24 Mn0 2.385 . S
O24 C2 1.234 . S
O25 Mn0 2.209 . S
O25 Mn1 2.215 . S
O25 C2 1.283 . S
O26 Mn0 2.094 . S
O26 C4 1.240 . S
O27 Mn1 2.117 . S
O27 C4 1.264 . S
C28 C21 1.403 . S
C28 C29 1.399 . S
C28 H34 0.929 . S
C29 C9 1.449 . S
C29 C28 1.399 . S
C29 H35 0.930 . S
H30 C10 0.931 . S
H31 C11 0.930 . S
H32 C19 0.931 . S
H33 C20 0.929 . S
H34 C28 0.929 . S
H35 C29 0.930 . S
Mn36 O41 2.095 . S
Mn36 O51 2.162 . S
Mn36 O52 2.297 . S
Mn36 O60 2.385 . S
Mn36 O61 2.209 . S
Mn36 O62 2.094 . S
Mn37 O42 2.121 . S
Mn37 N44 2.257 . S
Mn37 N53 2.282 . S
Mn37 O61 2.215 . S
Mn37 O63 2.117 . S
C38 O60 1.234 . S
C38 O61 1.283 . S
C39 O51 1.281 . S
C39 O52 1.236 . S
C40 O62 1.240 . S
C40 O63 1.264 . S
O41 Mn36 2.095 . S
O41 C50 1.250 . S
O42 Mn37 2.121 . S
O42 C50 1.258 . S
C43 N44 1.326 . S
C43 C47 1.460 . S
C43 H49 0.929 . S
N44 Mn37 2.257 . S
N44 C43 1.326 . S
N44 C48 1.362 . S
C45 C46 1.258 . S
C45 C48 1.431 . S
C45 C65 1.449 . S
C46 C45 1.258 . S
C46 C47 1.477 . S
C46 H66 0.931 . S
C47 C43 1.460 . S
C47 C46 1.477 . S
C47 H67 0.930 . S
C48 N44 1.362 . S
C48 C45 1.431 . S
C48 C58 1.476 . S
H49 C43 0.929 . S
C50 O41 1.250 . S
C50 O42 1.258 . S
O51 Mn36 2.162 . S
O51 C39 1.281 . S
O52 Mn36 2.297 . S
O52 C39 1.236 . S
N53 Mn37 2.282 . S
N53 C54 1.328 . S
N53 C58 1.318 . S
C54 N53 1.328 . S
C54 C55 1.457 . S
C54 H59 0.929 . S
C55 C54 1.457 . S
C55 C56 1.291 . S
C55 H68 0.931 . S
C56 C55 1.291 . S
C56 C57 1.373 . S
C56 H69 0.929 . S
C57 C56 1.373 . S
C57 C58 1.396 . S
C57 C64 1.403 . S
C58 C48 1.476 . S
C58 N53 1.318 . S
C58 C57 1.396 . S
H59 C54 0.929 . S
O60 Mn36 2.385 . S
O60 C38 1.234 . S
O61 Mn36 2.209 . S
O61 Mn37 2.215 . S
O61 C38 1.283 . S
O62 Mn36 2.094 . S
O62 C40 1.240 . S
O63 Mn37 2.117 . S
O63 C40 1.264 . S
C64 C57 1.403 . S
C64 C65 1.399 . S
C64 H70 0.929 . S
C65 C45 1.449 . S
C65 C64 1.399 . S
C65 H71 0.930 . S
H66 C46 0.931 . S
H67 C47 0.930 . S
H68 C55 0.931 . S
H69 C56 0.929 . S
H70 C64 0.929 . S
H71 C65 0.930 . S
Mn72 O77 2.095 . S
Mn72 O87 2.162 . S
Mn72 O88 2.297 . S
Mn72 O96 2.385 . S
Mn72 O97 2.209 . S
Mn72 O98 2.094 1_556 S
Mn73 O78 2.121 1_554 S
Mn73 N80 2.257 . S
Mn73 N89 2.282 . S
Mn73 O97 2.215 1_554 S
Mn73 O99 2.117 . S
C74 O96 1.234 . S
C74 O97 1.283 . S
C75 O87 1.281 . S
C75 O88 1.236 . S
C76 O98 1.240 . S
C76 O99 1.264 . S
O77 Mn72 2.095 . S
O77 C86 1.250 . S
O78 Mn73 2.121 1_556 S
O78 C86 1.258 . S
C79 N80 1.326 1_556 S
C79 C83 1.460 . S
C79 H85 0.929 . S
N80 Mn73 2.257 . S
N80 C79 1.326 1_554 S
N80 C84 1.362 . S
C81 C82 1.258 1_554 S
C81 C84 1.431 . S
C81 C101 1.449 . S
C82 C81 1.258 1_556 S
C82 C83 1.477 . S
C82 H102 0.931 . S
C83 C79 1.460 . S
C83 C82 1.477 . S
C83 H103 0.930 . S
C84 N80 1.362 . S
C84 C81 1.431 . S
C84 C94 1.476 . S
H85 C79 0.929 . S
C86 O77 1.250 . S
C86 O78 1.258 . S
O87 Mn72 2.162 . S
O87 C75 1.281 . S
O88 Mn72 2.297 . S
O88 C75 1.236 . S
N89 Mn73 2.282 . S
N89 C90 1.328 . S
N89 C94 1.318 . S
C90 N89 1.328 . S
C90 C91 1.457 . S
C90 H95 0.929 . S
C91 C90 1.457 . S
C91 C92 1.291 . S
C91 H104 0.931 . S
C92 C91 1.291 . S
C92 C93 1.373 . S
C92 H105 0.929 . S
C93 C92 1.373 . S
C93 C94 1.396 . S
C93 C100 1.403 . S
C94 C84 1.476 . S
C94 N89 1.318 . S
C94 C93 1.396 . S
H95 C90 0.929 . S
O96 Mn72 2.385 . S
O96 C74 1.234 . S
O97 Mn72 2.209 . S
O97 Mn73 2.215 1_556 S
O97 C74 1.283 . S
O98 Mn72 2.094 1_554 S
O98 C76 1.240 . S
O99 Mn73 2.117 . S
O99 C76 1.264 . S
C100 C93 1.403 . S
C100 C101 1.399 . S
C100 H106 0.929 . S
C101 C81 1.449 . S
C101 C100 1.399 . S
C101 H107 0.930 . S
H102 C82 0.931 . S
H103 C83 0.930 . S
H104 C91 0.931 . S
H105 C92 0.929 . S
H106 C100 0.929 . S
H107 C101 0.930 . S
Mn108 O113 2.095 . S
Mn108 O123 2.162 . S
Mn108 O124 2.297 . S
Mn108 O132 2.385 . S
Mn108 O133 2.209 . S
Mn108 O134 2.094 . S
Mn109 O114 2.121 . S
Mn109 N116 2.257 . S
Mn109 N125 2.282 . S
Mn109 O133 2.215 . S
Mn109 O135 2.117 . S
C110 O132 1.234 . S
C110 O133 1.283 . S
C111 O123 1.281 . S
C111 O124 1.236 . S
C112 O134 1.240 . S
C112 O135 1.264 . S
O113 Mn108 2.095 . S
O113 C122 1.250 . S
O114 Mn109 2.121 . S
O114 C122 1.258 . S
C115 N116 1.326 . S
C115 C119 1.460 . S
C115 H121 0.929 . S
N116 Mn109 2.257 . S
N116 C115 1.326 . S
N116 C120 1.362 . S
C117 C118 1.258 . S
C117 C120 1.431 . S
C117 C137 1.449 . S
C118 C117 1.258 . S
C118 C119 1.477 . S
C118 H138 0.931 . S
C119 C115 1.460 . S
C119 C118 1.477 . S
C119 H139 0.930 . S
C120 N116 1.362 . S
C120 C117 1.431 . S
C120 C130 1.476 . S
H121 C115 0.929 . S
C122 O113 1.250 . S
C122 O114 1.258 . S
O123 Mn108 2.162 . S
O123 C111 1.281 . S
O124 Mn108 2.297 . S
O124 C111 1.236 . S
N125 Mn109 2.282 . S
N125 C126 1.328 . S
N125 C130 1.318 . S
C126 N125 1.328 . S
C126 C127 1.457 . S
C126 H131 0.929 . S
C127 C126 1.457 . S
C127 C128 1.291 . S
C127 H140 0.931 . S
C128 C127 1.291 . S
C128 C129 1.373 . S
C128 H141 0.929 . S
C129 C128 1.373 . S
C129 C130 1.396 . S
C129 C136 1.403 . S
C130 C120 1.476 . S
C130 N125 1.318 . S
C130 C129 1.396 . S
H131 C126 0.929 . S
O132 Mn108 2.385 . S
O132 C110 1.234 . S
O133 Mn108 2.209 . S
O133 Mn109 2.215 . S
O133 C110 1.283 . S
O134 Mn108 2.094 . S
O134 C112 1.240 . S
O135 Mn109 2.117 . S
O135 C112 1.264 . S
C136 C129 1.403 . S
C136 C137 1.399 . S
C136 H142 0.929 . S
C137 C117 1.449 . S
C137 C136 1.399 . S
C137 H143 0.930 . S
H138 C118 0.931 . S
H139 C119 0.930 . S
H140 C127 0.931 . S
H141 C128 0.929 . S
H142 C136 0.929 . S
H143 C137 0.930 . S
Mn144 O149 2.095 . S
Mn144 O159 2.162 . S
Mn144 O160 2.297 . S
Mn144 O168 2.385 . S
Mn144 O169 2.209 . S
Mn144 O170 2.094 . S
Mn145 O150 2.121 . S
Mn145 N152 2.257 . S
Mn145 N161 2.282 . S
Mn145 O169 2.215 . S
Mn145 O171 2.117 . S
C146 O168 1.234 . S
C146 O169 1.283 . S
C147 O159 1.281 . S
C147 O160 1.236 . S
C148 O170 1.240 . S
C148 O171 1.264 . S
O149 Mn144 2.095 . S
O149 C158 1.250 . S
O150 Mn145 2.121 . S
O150 C158 1.258 . S
C151 N152 1.326 . S
C151 C155 1.460 . S
C151 H157 0.929 . S
N152 Mn145 2.257 . S
N152 C151 1.326 . S
N152 C156 1.362 . S
C153 C154 1.258 . S
C153 C156 1.431 . S
C153 C173 1.449 . S
C154 C153 1.258 . S
C154 C155 1.477 . S
C154 H174 0.931 . S
C155 C151 1.460 . S
C155 C154 1.477 . S
C155 H175 0.930 . S
C156 N152 1.362 . S
C156 C153 1.431 . S
C156 C166 1.476 . S
H157 C151 0.929 . S
C158 O149 1.250 . S
C158 O150 1.258 . S
O159 Mn144 2.162 . S
O159 C147 1.281 . S
O160 Mn144 2.297 . S
O160 C147 1.236 . S
N161 Mn145 2.282 . S
N161 C162 1.328 . S
N161 C166 1.318 . S
C162 N161 1.328 . S
C162 C163 1.457 . S
C162 H167 0.929 . S
C163 C162 1.457 . S
C163 C164 1.291 . S
C163 H176 0.931 . S
C164 C163 1.291 . S
C164 C165 1.373 . S
C164 H177 0.929 . S
C165 C164 1.373 . S
C165 C166 1.396 . S
C165 C172 1.403 . S
C166 C156 1.476 . S
C166 N161 1.318 . S
C166 C165 1.396 . S
H167 C162 0.929 . S
O168 Mn144 2.385 . S
O168 C146 1.234 . S
O169 Mn144 2.209 . S
O169 Mn145 2.215 . S
O169 C146 1.283 . S
O170 Mn144 2.094 . S
O170 C148 1.240 . S
O171 Mn145 2.117 . S
O171 C148 1.264 . S
C172 C165 1.403 . S
C172 C173 1.399 . S
C172 H178 0.929 . S
C173 C153 1.449 . S
C173 C172 1.399 . S
C173 H179 0.930 . S
H174 C154 0.931 . S
H175 C155 0.930 . S
H176 C163 0.931 . S
H177 C164 0.929 . S
H178 C172 0.929 . S
H179 C173 0.930 . S
Mn180 O185 2.095 . S
Mn180 O195 2.162 . S
Mn180 O196 2.297 . S
Mn180 O204 2.385 . S
Mn180 O205 2.209 . S
Mn180 O206 2.094 1_556 S
Mn181 O186 2.121 1_554 S
Mn181 N188 2.257 . S
Mn181 N197 2.282 . S
Mn181 O205 2.215 1_554 S
Mn181 O207 2.117 . S
C182 O204 1.234 . S
C182 O205 1.283 . S
C183 O195 1.281 . S
C183 O196 1.236 . S
C184 O206 1.240 . S
C184 O207 1.264 . S
O185 Mn180 2.095 . S
O185 C194 1.250 . S
O186 Mn181 2.121 1_556 S
O186 C194 1.258 . S
C187 N188 1.326 1_556 S
C187 C191 1.460 . S
C187 H193 0.929 . S
N188 Mn181 2.257 . S
N188 C187 1.326 1_554 S
N188 C192 1.362 . S
C189 C190 1.258 1_554 S
C189 C192 1.431 . S
C189 C209 1.449 . S
C190 C189 1.258 1_556 S
C190 C191 1.477 . S
C190 H210 0.931 . S
C191 C187 1.460 . S
C191 C190 1.477 . S
C191 H211 0.930 . S
C192 N188 1.362 . S
C192 C189 1.431 . S
C192 C202 1.476 . S
H193 C187 0.929 . S
C194 O185 1.250 . S
C194 O186 1.258 . S
O195 Mn180 2.162 . S
O195 C183 1.281 . S
O196 Mn180 2.297 . S
O196 C183 1.236 . S
N197 Mn181 2.282 . S
N197 C198 1.328 . S
N197 C202 1.318 . S
C198 N197 1.328 . S
C198 C199 1.457 . S
C198 H203 0.929 . S
C199 C198 1.457 . S
C199 C200 1.291 . S
C199 H212 0.931 . S
C200 C199 1.291 . S
C200 C201 1.373 . S
C200 H213 0.929 . S
C201 C200 1.373 . S
C201 C202 1.396 . S
C201 C208 1.403 . S
C202 C192 1.476 . S
C202 N197 1.318 . S
C202 C201 1.396 . S
H203 C198 0.929 . S
O204 Mn180 2.385 . S
O204 C182 1.234 . S
O205 Mn180 2.209 . S
O205 Mn181 2.215 1_556 S
O205 C182 1.283 . S
O206 Mn180 2.094 1_554 S
O206 C184 1.240 . S
O207 Mn181 2.117 . S
O207 C184 1.264 . S
C208 C201 1.403 . S
C208 C209 1.399 . S
C208 H214 0.929 . S
C209 C189 1.449 . S
C209 C208 1.399 . S
C209 H215 0.930 . S
H210 C190 0.931 . S
H211 C191 0.930 . S
H212 C199 0.931 . S
H213 C200 0.929 . S
H214 C208 0.929 . S
H215 C209 0.930 . S
Mn216 O221 2.095 . S
Mn216 O231 2.162 . S
Mn216 O232 2.297 . S
Mn216 O240 2.385 . S
Mn216 O241 2.209 . S
Mn216 O242 2.094 . S
Mn217 O222 2.121 . S
Mn217 N224 2.257 . S
Mn217 N233 2.282 . S
Mn217 O241 2.215 . S
Mn217 O243 2.117 . S
C218 O240 1.234 . S
C218 O241 1.283 . S
C219 O231 1.281 . S
C219 O232 1.236 . S
C220 O242 1.240 . S
C220 O243 1.264 . S
O221 Mn216 2.095 . S
O221 C230 1.250 . S
O222 Mn217 2.121 . S
O222 C230 1.258 . S
C223 N224 1.326 . S
C223 C227 1.460 . S
C223 H229 0.929 . S
N224 Mn217 2.257 . S
N224 C223 1.326 . S
N224 C228 1.362 . S
C225 C226 1.258 . S
C225 C228 1.431 . S
C225 C245 1.449 . S
C226 C225 1.258 . S
C226 C227 1.477 . S
C226 H246 0.931 . S
C227 C223 1.460 . S
C227 C226 1.477 . S
C227 H247 0.930 . S
C228 N224 1.362 . S
C228 C225 1.431 . S
C228 C238 1.476 . S
H229 C223 0.929 . S
C230 O221 1.250 . S
C230 O222 1.258 . S
O231 Mn216 2.162 . S
O231 C219 1.281 . S
O232 Mn216 2.297 . S
O232 C219 1.236 . S
N233 Mn217 2.282 . S
N233 C234 1.328 . S
N233 C238 1.318 . S
C234 N233 1.328 . S
C234 C235 1.457 . S
C234 H239 0.929 . S
C235 C234 1.457 . S
C235 C236 1.291 . S
C235 H248 0.931 . S
C236 C235 1.291 . S
C236 C237 1.373 . S
C236 H249 0.929 . S
C237 C236 1.373 . S
C237 C238 1.396 . S
C237 C244 1.403 . S
C238 C228 1.476 . S
C238 N233 1.318 . S
C238 C237 1.396 . S
H239 C234 0.929 . S
O240 Mn216 2.385 . S
O240 C218 1.234 . S
O241 Mn216 2.209 . S
O241 Mn217 2.215 . S
O241 C218 1.283 . S
O242 Mn216 2.094 . S
O242 C220 1.240 . S
O243 Mn217 2.117 . S
O243 C220 1.264 . S
C244 C237 1.403 . S
C244 C245 1.399 . S
C244 H250 0.929 . S
C245 C225 1.449 . S
C245 C244 1.399 . S
C245 H251 0.930 . S
H246 C226 0.931 . S
H247 C227 0.930 . S
H248 C235 0.931 . S
H249 C236 0.929 . S
H250 C244 0.929 . S
H251 C245 0.930 . S
Mn252 O257 2.095 . S
Mn252 O267 2.162 . S
Mn252 O268 2.297 . S
Mn252 O276 2.385 . S
Mn252 O277 2.209 . S
Mn252 O278 2.094 . S
Mn253 O258 2.121 . S
Mn253 N260 2.257 . S
Mn253 N269 2.282 . S
Mn253 O277 2.215 . S
Mn253 O279 2.117 . S
C254 O276 1.234 . S
C254 O277 1.283 . S
C255 O267 1.281 . S
C255 O268 1.236 . S
C256 O278 1.240 . S
C256 O279 1.264 . S
O257 Mn252 2.095 . S
O257 C266 1.250 . S
O258 Mn253 2.121 . S
O258 C266 1.258 . S
C259 N260 1.326 . S
C259 C263 1.460 . S
C259 H265 0.929 . S
N260 Mn253 2.257 . S
N260 C259 1.326 . S
N260 C264 1.362 . S
C261 C262 1.258 . S
C261 C264 1.431 . S
C261 C281 1.449 . S
C262 C261 1.258 . S
C262 C263 1.477 . S
C262 H282 0.931 . S
C263 C259 1.460 . S
C263 C262 1.477 . S
C263 H283 0.930 . S
C264 N260 1.362 . S
C264 C261 1.431 . S
C264 C274 1.476 . S
H265 C259 0.929 . S
C266 O257 1.250 . S
C266 O258 1.258 . S
O267 Mn252 2.162 . S
O267 C255 1.281 . S
O268 Mn252 2.297 . S
O268 C255 1.236 . S
N269 Mn253 2.282 . S
N269 C270 1.328 . S
N269 C274 1.318 . S
C270 N269 1.328 . S
C270 C271 1.457 . S
C270 H275 0.929 . S
C271 C270 1.457 . S
C271 C272 1.291 . S
C271 H284 0.931 . S
C272 C271 1.291 . S
C272 C273 1.373 . S
C272 H285 0.929 . S
C273 C272 1.373 . S
C273 C274 1.396 . S
C273 C280 1.403 . S
C274 C264 1.476 . S
C274 N269 1.318 . S
C274 C273 1.396 . S
H275 C270 0.929 . S
O276 Mn252 2.385 . S
O276 C254 1.234 . S
O277 Mn252 2.209 . S
O277 Mn253 2.215 . S
O277 C254 1.283 . S
O278 Mn252 2.094 . S
O278 C256 1.240 . S
O279 Mn253 2.117 . S
O279 C256 1.264 . S
C280 C273 1.403 . S
C280 C281 1.399 . S
C280 H286 0.929 . S
C281 C261 1.449 . S
C281 C280 1.399 . S
C281 H287 0.930 . S
H282 C262 0.931 . S
H283 C263 0.930 . S
H284 C271 0.931 . S
H285 C272 0.929 . S
H286 C280 0.929 . S
H287 C281 0.930 . S
Mn288 O293 2.095 . S
Mn288 O303 2.162 . S
Mn288 O304 2.297 . S
Mn288 O312 2.385 . S
Mn288 O313 2.209 . S
Mn288 O314 2.094 1_554 S
Mn289 O294 2.121 1_556 S
Mn289 N296 2.257 . S
Mn289 N305 2.282 . S
Mn289 O313 2.215 1_556 S
Mn289 O315 2.117 . S
C290 O312 1.234 . S
C290 O313 1.283 . S
C291 O303 1.281 . S
C291 O304 1.236 . S
C292 O314 1.240 . S
C292 O315 1.264 . S
O293 Mn288 2.095 . S
O293 C302 1.250 . S
O294 Mn289 2.121 1_554 S
O294 C302 1.258 . S
C295 N296 1.326 1_554 S
C295 C299 1.460 . S
C295 H301 0.929 . S
N296 Mn289 2.257 . S
N296 C295 1.326 1_556 S
N296 C300 1.362 . S
C297 C298 1.258 1_556 S
C297 C300 1.431 . S
C297 C317 1.449 . S
C298 C297 1.258 1_554 S
C298 C299 1.477 . S
C298 H318 0.931 . S
C299 C295 1.460 . S
C299 C298 1.477 . S
C299 H319 0.930 . S
C300 N296 1.362 . S
C300 C297 1.431 . S
C300 C310 1.476 . S
H301 C295 0.929 . S
C302 O293 1.250 . S
C302 O294 1.258 . S
O303 Mn288 2.162 . S
O303 C291 1.281 . S
O304 Mn288 2.297 . S
O304 C291 1.236 . S
N305 Mn289 2.282 . S
N305 C306 1.328 . S
N305 C310 1.318 . S
C306 N305 1.328 . S
C306 C307 1.457 . S
C306 H311 0.929 . S
C307 C306 1.457 . S
C307 C308 1.291 . S
C307 H320 0.931 . S
C308 C307 1.291 . S
C308 C309 1.373 . S
C308 H321 0.929 . S
C309 C308 1.373 . S
C309 C310 1.396 . S
C309 C316 1.403 . S
C310 C300 1.476 . S
C310 N305 1.318 . S
C310 C309 1.396 . S
H311 C306 0.929 . S
O312 Mn288 2.385 . S
O312 C290 1.234 . S
O313 Mn288 2.209 . S
O313 Mn289 2.215 1_554 S
O313 C290 1.283 . S
O314 Mn288 2.094 1_556 S
O314 C292 1.240 . S
O315 Mn289 2.117 . S
O315 C292 1.264 . S
C316 C309 1.403 . S
C316 C317 1.399 . S
C316 H322 0.929 . S
C317 C297 1.449 . S
C317 C316 1.399 . S
C317 H323 0.930 . S
H318 C298 0.931 . S
H319 C299 0.930 . S
H320 C307 0.931 . S
H321 C308 0.929 . S
H322 C316 0.929 . S
H323 C317 0.930 . S
Mn324 O329 2.095 . S
Mn324 O339 2.162 . S
Mn324 O340 2.297 . S
Mn324 O348 2.385 . S
Mn324 O349 2.209 . S
Mn324 O350 2.094 . S
Mn325 O330 2.121 . S
Mn325 N332 2.257 . S
Mn325 N341 2.282 . S
Mn325 O349 2.215 . S
Mn325 O351 2.117 . S
C326 O348 1.234 . S
C326 O349 1.283 . S
C327 O339 1.281 . S
C327 O340 1.236 . S
C328 O350 1.240 . S
C328 O351 1.264 . S
O329 Mn324 2.095 . S
O329 C338 1.250 . S
O330 Mn325 2.121 . S
O330 C338 1.258 . S
C331 N332 1.326 . S
C331 C335 1.460 . S
C331 H337 0.929 . S
N332 Mn325 2.257 . S
N332 C331 1.326 . S
N332 C336 1.362 . S
C333 C334 1.258 . S
C333 C336 1.431 . S
C333 C353 1.449 . S
C334 C333 1.258 . S
C334 C335 1.477 . S
C334 H354 0.931 . S
C335 C331 1.460 . S
C335 C334 1.477 . S
C335 H355 0.930 . S
C336 N332 1.362 . S
C336 C333 1.431 . S
C336 C346 1.476 . S
H337 C331 0.929 . S
C338 O329 1.250 . S
C338 O330 1.258 . S
O339 Mn324 2.162 . S
O339 C327 1.281 . S
O340 Mn324 2.297 . S
O340 C327 1.236 . S
N341 Mn325 2.282 . S
N341 C342 1.328 . S
N341 C346 1.318 . S
C342 N341 1.328 . S
C342 C343 1.457 . S
C342 H347 0.929 . S
C343 C342 1.457 . S
C343 C344 1.291 . S
C343 H356 0.931 . S
C344 C343 1.291 . S
C344 C345 1.373 . S
C344 H357 0.929 . S
C345 C344 1.373 . S
C345 C346 1.396 . S
C345 C352 1.403 . S
C346 C336 1.476 . S
C346 N341 1.318 . S
C346 C345 1.396 . S
H347 C342 0.929 . S
O348 Mn324 2.385 . S
O348 C326 1.234 . S
O349 Mn324 2.209 . S
O349 Mn325 2.215 . S
O349 C326 1.283 . S
O350 Mn324 2.094 . S
O350 C328 1.240 . S
O351 Mn325 2.117 . S
O351 C328 1.264 . S
C352 C345 1.403 . S
C352 C353 1.399 . S
C352 H358 0.929 . S
C353 C333 1.449 . S
C353 C352 1.399 . S
C353 H359 0.930 . S
H354 C334 0.931 . S
H355 C335 0.930 . S
H356 C343 0.931 . S
H357 C344 0.929 . S
H358 C352 0.929 . S
H359 C353 0.930 . S
Mn360 O365 2.095 . S
Mn360 O375 2.162 . S
Mn360 O376 2.297 . S
Mn360 O384 2.385 . S
Mn360 O385 2.209 . S
Mn360 O386 2.094 . S
Mn361 O366 2.121 . S
Mn361 N368 2.257 . S
Mn361 N377 2.282 . S
Mn361 O385 2.215 . S
Mn361 O387 2.117 . S
C362 O384 1.234 . S
C362 O385 1.283 . S
C363 O375 1.281 . S
C363 O376 1.236 . S
C364 O386 1.240 . S
C364 O387 1.264 . S
O365 Mn360 2.095 . S
O365 C374 1.250 . S
O366 Mn361 2.121 . S
O366 C374 1.258 . S
C367 N368 1.326 . S
C367 C371 1.460 . S
C367 H373 0.929 . S
N368 Mn361 2.257 . S
N368 C367 1.326 . S
N368 C372 1.362 . S
C369 C370 1.258 . S
C369 C372 1.431 . S
C369 C389 1.449 . S
C370 C369 1.258 . S
C370 C371 1.477 . S
C370 H390 0.931 . S
C371 C367 1.460 . S
C371 C370 1.477 . S
C371 H391 0.930 . S
C372 N368 1.362 . S
C372 C369 1.431 . S
C372 C382 1.476 . S
H373 C367 0.929 . S
C374 O365 1.250 . S
C374 O366 1.258 . S
O375 Mn360 2.162 . S
O375 C363 1.281 . S
O376 Mn360 2.297 . S
O376 C363 1.236 . S
N377 Mn361 2.282 . S
N377 C378 1.328 . S
N377 C382 1.318 . S
C378 N377 1.328 . S
C378 C379 1.457 . S
C378 H383 0.929 . S
C379 C378 1.457 . S
C379 C380 1.291 . S
C379 H392 0.931 . S
C380 C379 1.291 . S
C380 C381 1.373 . S
C380 H393 0.929 . S
C381 C380 1.373 . S
C381 C382 1.396 . S
C381 C388 1.403 . S
C382 C372 1.476 . S
C382 N377 1.318 . S
C382 C381 1.396 . S
H383 C378 0.929 . S
O384 Mn360 2.385 . S
O384 C362 1.234 . S
O385 Mn360 2.209 . S
O385 Mn361 2.215 . S
O385 C362 1.283 . S
O386 Mn360 2.094 . S
O386 C364 1.240 . S
O387 Mn361 2.117 . S
O387 C364 1.264 . S
C388 C381 1.403 . S
C388 C389 1.399 . S
C388 H394 0.929 . S
C389 C369 1.449 . S
C389 C388 1.399 . S
C389 H395 0.930 . S
H390 C370 0.931 . S
H391 C371 0.930 . S
H392 C379 0.931 . S
H393 C380 0.929 . S
H394 C388 0.929 . S
H395 C389 0.930 . S
Mn396 O401 2.095 . S
Mn396 O411 2.162 . S
Mn396 O412 2.297 . S
Mn396 O420 2.385 . S
Mn396 O421 2.209 . S
Mn396 O422 2.094 1_554 S
Mn397 O402 2.121 1_556 S
Mn397 N404 2.257 . S
Mn397 N413 2.282 . S
Mn397 O421 2.215 1_556 S
Mn397 O423 2.117 . S
C398 O420 1.234 . S
C398 O421 1.283 . S
C399 O411 1.281 . S
C399 O412 1.236 . S
C400 O422 1.240 . S
C400 O423 1.264 . S
O401 Mn396 2.095 . S
O401 C410 1.250 . S
O402 Mn397 2.121 1_554 S
O402 C410 1.258 . S
C403 N404 1.326 1_554 S
C403 C407 1.460 . S
C403 H409 0.929 . S
N404 Mn397 2.257 . S
N404 C403 1.326 1_556 S
N404 C408 1.362 . S
C405 C406 1.258 1_556 S
C405 C408 1.431 . S
C405 C425 1.449 . S
C406 C405 1.258 1_554 S
C406 C407 1.477 . S
C406 H426 0.931 . S
C407 C403 1.460 . S
C407 C406 1.477 . S
C407 H427 0.930 . S
C408 N404 1.362 . S
C408 C405 1.431 . S
C408 C418 1.476 . S
H409 C403 0.929 . S
C410 O401 1.250 . S
C410 O402 1.258 . S
O411 Mn396 2.162 . S
O411 C399 1.281 . S
O412 Mn396 2.297 . S
O412 C399 1.236 . S
N413 Mn397 2.282 . S
N413 C414 1.328 . S
N413 C418 1.318 . S
C414 N413 1.328 . S
C414 C415 1.457 . S
C414 H419 0.929 . S
C415 C414 1.457 . S
C415 C416 1.291 . S
C415 H428 0.931 . S
C416 C415 1.291 . S
C416 C417 1.373 . S
C416 H429 0.929 . S
C417 C416 1.373 . S
C417 C418 1.396 . S
C417 C424 1.403 . S
C418 C408 1.476 . S
C418 N413 1.318 . S
C418 C417 1.396 . S
H419 C414 0.929 . S
O420 Mn396 2.385 . S
O420 C398 1.234 . S
O421 Mn396 2.209 . S
O421 Mn397 2.215 1_554 S
O421 C398 1.283 . S
O422 Mn396 2.094 1_556 S
O422 C400 1.240 . S
O423 Mn397 2.117 . S
O423 C400 1.264 . S
C424 C417 1.403 . S
C424 C425 1.399 . S
C424 H430 0.929 . S
C425 C405 1.449 . S
C425 C424 1.399 . S
C425 H431 0.930 . S
H426 C406 0.931 . S
H427 C407 0.930 . S
H428 C415 0.931 . S
H429 C416 0.929 . S
H430 C424 0.929 . S
H431 C425 0.930 . S
C432 C433 1.363 . S
C432 C438 1.379 . S
C432 N440 1.356 . S
C433 C432 1.363 . S
C433 C439 1.363 . S
C434 C435 1.363 . S
C434 C439 1.379 . S
C434 N441 1.356 . S
C435 C434 1.363 . S
C435 C438 1.363 . S
N436 C438 1.356 . S
N436 H448 0.984 . S
N436 H449 0.985 . S
N437 C439 1.356 . S
N437 H442 0.984 . S
N437 H443 0.985 . S
C438 C432 1.379 . S
C438 C435 1.363 . S
C438 N436 1.356 . S
C439 C433 1.363 . S
C439 C434 1.379 . S
C439 N437 1.356 . S
N440 C432 1.356 . S
N440 H446 0.984 . S
N440 H447 0.984 . S
N441 C434 1.356 . S
N441 H444 0.984 . S
N441 H445 0.985 . S
H442 N437 0.984 . S
H443 N437 0.985 . S
H444 N441 0.984 . S
H445 N441 0.985 . S
H446 N440 0.984 . S
H447 N440 0.984 . S
H448 N436 0.984 . S
H449 N436 0.985 . S
C450 C451 1.363 . S
C450 C456 1.379 . S
C450 N458 1.356 . S
C451 C450 1.363 . S
C451 C457 1.363 . S
C452 C453 1.363 . S
C452 C457 1.379 . S
C452 N459 1.356 . S
C453 C452 1.363 . S
C453 C456 1.363 . S
N454 C456 1.356 . S
N454 H466 0.984 . S
N454 H467 0.985 . S
N455 C457 1.356 . S
N455 H460 0.984 . S
N455 H461 0.985 . S
C456 C450 1.379 . S
C456 C453 1.363 . S
C456 N454 1.356 . S
C457 C451 1.363 . S
C457 C452 1.379 . S
C457 N455 1.356 . S
N458 C450 1.356 . S
N458 H464 0.984 . S
N458 H465 0.984 . S
N459 C452 1.356 . S
N459 H462 0.984 . S
N459 H463 0.985 . S
H460 N455 0.984 . S
H461 N455 0.985 . S
H462 N459 0.984 . S
H463 N459 0.985 . S
H464 N458 0.984 . S
H465 N458 0.984 . S
H466 N454 0.984 . S
H467 N454 0.985 . S
C468 C469 1.363 . S
C468 C474 1.379 . S
C468 N476 1.356 . S
C469 C468 1.363 . S
C469 C475 1.363 . S
C470 C471 1.363 . S
C470 C475 1.379 . S
C470 N477 1.356 . S
C471 C470 1.363 . S
C471 C474 1.363 . S
N472 C474 1.356 . S
N472 H484 0.984 . S
N472 H485 0.985 . S
N473 C475 1.356 . S
N473 H478 0.984 . S
N473 H479 0.985 . S
C474 C468 1.379 . S
C474 C471 1.363 . S
C474 N472 1.356 . S
C475 C469 1.363 . S
C475 C470 1.379 . S
C475 N473 1.356 . S
N476 C468 1.356 . S
N476 H482 0.984 . S
N476 H483 0.984 . S
N477 C470 1.356 . S
N477 H480 0.984 . S
N477 H481 0.985 . S
H478 N473 0.984 . S
H479 N473 0.985 . S
H480 N477 0.984 . S
H481 N477 0.985 . S
H482 N476 0.984 . S
H483 N476 0.984 . S
H484 N472 0.984 . S
H485 N472 0.985 . S
C486 C487 1.363 . S
C486 C492 1.379 . S
C486 N494 1.356 . S
C487 C486 1.363 . S
C487 C493 1.363 . S
C488 C489 1.363 . S
C488 C493 1.379 . S
C488 N495 1.356 . S
C489 C488 1.363 . S
C489 C492 1.363 . S
N490 C492 1.356 . S
N490 H502 0.984 . S
N490 H503 0.985 . S
N491 C493 1.356 . S
N491 H496 0.984 . S
N491 H497 0.985 . S
C492 C486 1.379 . S
C492 C489 1.363 . S
C492 N490 1.356 . S
C493 C487 1.363 . S
C493 C488 1.379 . S
C493 N491 1.356 . S
N494 C486 1.356 . S
N494 H500 0.984 . S
N494 H501 0.984 . S
N495 C488 1.356 . S
N495 H498 0.984 . S
N495 H499 0.985 . S
H496 N491 0.984 . S
H497 N491 0.985 . S
H498 N495 0.984 . S
H499 N495 0.985 . S
H500 N494 0.984 . S
H501 N494 0.984 . S
H502 N490 0.984 . S
H503 N490 0.985 . S
C504 C505 1.363 . S
C504 C510 1.379 . S
C504 N512 1.356 . S
C505 C504 1.363 . S
C505 C511 1.363 . S
C506 C507 1.363 . S
C506 C511 1.379 . S
C506 N513 1.356 . S
C507 C506 1.363 . S
C507 C510 1.363 . S
N508 C510 1.356 . S
N508 H520 0.984 . S
N508 H521 0.985 . S
N509 C511 1.356 . S
N509 H514 0.984 . S
N509 H515 0.985 . S
C510 C504 1.379 . S
C510 C507 1.363 . S
C510 N508 1.356 . S
C511 C505 1.363 . S
C511 C506 1.379 . S
C511 N509 1.356 . S
N512 C504 1.356 . S
N512 H518 0.984 . S
N512 H519 0.984 . S
N513 C506 1.356 . S
N513 H516 0.984 . S
N513 H517 0.985 . S
H514 N509 0.984 . S
H515 N509 0.985 . S
H516 N513 0.984 . S
H517 N513 0.985 . S
H518 N512 0.984 . S
H519 N512 0.984 . S
H520 N508 0.984 . S
H521 N508 0.985 . S
C522 C523 1.363 . S
C522 C528 1.379 . S
C522 N530 1.356 . S
C523 C522 1.363 . S
C523 C529 1.363 . S
C524 C525 1.363 . S
C524 C529 1.379 . S
C524 N531 1.356 . S
C525 C524 1.363 . S
C525 C528 1.363 . S
N526 C528 1.356 . S
N526 H538 0.984 . S
N526 H539 0.985 . S
N527 C529 1.356 . S
N527 H532 0.984 . S
N527 H533 0.985 . S
C528 C522 1.379 . S
C528 C525 1.363 . S
C528 N526 1.356 . S
C529 C523 1.363 . S
C529 C524 1.379 . S
C529 N527 1.356 . S
N530 C522 1.356 . S
N530 H536 0.984 . S
N530 H537 0.984 . S
N531 C524 1.356 . S
N531 H534 0.984 . S
N531 H535 0.985 . S
H532 N527 0.984 . S
H533 N527 0.985 . S
H534 N531 0.984 . S
H535 N531 0.985 . S
H536 N530 0.984 . S
H537 N530 0.984 . S
H538 N526 0.984 . S
H539 N526 0.985 . S
C540 C541 1.363 . S
C540 C546 1.379 . S
C540 N548 1.356 . S
C541 C540 1.363 . S
C541 C547 1.363 . S
C542 C543 1.363 . S
C542 C547 1.379 . S
C542 N549 1.356 . S
C543 C542 1.363 . S
C543 C546 1.363 . S
N544 C546 1.356 . S
N544 H556 0.984 . S
N544 H557 0.985 . S
N545 C547 1.356 . S
N545 H550 0.984 . S
N545 H551 0.985 . S
C546 C540 1.379 . S
C546 C543 1.363 . S
C546 N544 1.356 . S
C547 C541 1.363 . S
C547 C542 1.379 . S
C547 N545 1.356 . S
N548 C540 1.356 . S
N548 H554 0.984 . S
N548 H555 0.984 . S
N549 C542 1.356 . S
N549 H552 0.984 . S
N549 H553 0.985 . S
H550 N545 0.984 . S
H551 N545 0.985 . S
H552 N549 0.984 . S
H553 N549 0.985 . S
H554 N548 0.984 . S
H555 N548 0.984 . S
H556 N544 0.984 . S
H557 N544 0.985 . S
C558 C559 1.363 . S
C558 C564 1.379 . S
C558 N566 1.356 . S
C559 C558 1.363 . S
C559 C565 1.363 . S
C560 C561 1.363 . S
C560 C565 1.379 . S
C560 N567 1.356 . S
C561 C560 1.363 . S
C561 C564 1.363 . S
N562 C564 1.356 . S
N562 H574 0.984 . S
N562 H575 0.985 . S
N563 C565 1.356 . S
N563 H568 0.984 . S
N563 H569 0.985 . S
C564 C558 1.379 . S
C564 C561 1.363 . S
C564 N562 1.356 . S
C565 C559 1.363 . S
C565 C560 1.379 . S
C565 N563 1.356 . S
N566 C558 1.356 . S
N566 H572 0.984 . S
N566 H573 0.984 . S
N567 C560 1.356 . S
N567 H570 0.984 . S
N567 H571 0.985 . S
H568 N563 0.984 . S
H569 N563 0.985 . S
H570 N567 0.984 . S
H571 N567 0.985 . S
H572 N566 0.984 . S
H573 N566 0.984 . S
H574 N562 0.984 . S
H575 N562 0.985 . S
C576 C577 1.363 1_556 S
C576 C582 1.379 . S
C576 N584 1.356 . S
C577 C576 1.363 1_554 S
C577 C583 1.363 . S
C578 C579 1.363 1_554 S
C578 C583 1.379 . S
C578 N585 1.356 . S
C579 C578 1.363 1_556 S
C579 C582 1.363 . S
N580 C582 1.356 . S
N580 H592 0.984 . S
N580 H593 0.985 . S
N581 C583 1.356 . S
N581 H586 0.984 . S
N581 H587 0.985 . S
C582 C576 1.379 . S
C582 C579 1.363 . S
C582 N580 1.356 . S
C583 C577 1.363 . S
C583 C578 1.379 . S
C583 N581 1.356 . S
N584 C576 1.356 . S
N584 H590 0.984 . S
N584 H591 0.984 1_556 S
N585 C578 1.356 . S
N585 H588 0.984 1_554 S
N585 H589 0.985 . S
H586 N581 0.984 . S
H587 N581 0.985 . S
H588 N585 0.984 1_556 S
H589 N585 0.985 . S
H590 N584 0.984 . S
H591 N584 0.984 1_554 S
H592 N580 0.984 . S
H593 N580 0.985 . S
C594 C595 1.363 . S
C594 C600 1.379 . S
C594 N602 1.356 . S
C595 C594 1.363 . S
C595 C601 1.363 . S
C596 C597 1.363 . S
C596 C601 1.379 . S
C596 N603 1.356 . S
C597 C596 1.363 . S
C597 C600 1.363 . S
N598 C600 1.356 . S
N598 H610 0.984 . S
N598 H611 0.985 . S
N599 C601 1.356 . S
N599 H604 0.984 . S
N599 H605 0.985 . S
C600 C594 1.379 . S
C600 C597 1.363 . S
C600 N598 1.356 . S
C601 C595 1.363 . S
C601 C596 1.379 . S
C601 N599 1.356 . S
N602 C594 1.356 . S
N602 H608 0.984 . S
N602 H609 0.984 . S
N603 C596 1.356 . S
N603 H606 0.984 . S
N603 H607 0.985 . S
H604 N599 0.984 . S
H605 N599 0.985 . S
H606 N603 0.984 . S
H607 N603 0.985 . S
H608 N602 0.984 . S
H609 N602 0.984 . S
H610 N598 0.984 . S
H611 N598 0.985 . S
C612 C613 1.363 . S
C612 C618 1.379 . S
C612 N620 1.356 . S
C613 C612 1.363 . S
C613 C619 1.363 . S
C614 C615 1.363 . S
C614 C619 1.379 . S
C614 N621 1.356 . S
C615 C614 1.363 . S
C615 C618 1.363 . S
N616 C618 1.356 . S
N616 H628 0.984 . S
N616 H629 0.985 . S
N617 C619 1.356 . S
N617 H622 0.984 . S
N617 H623 0.985 . S
C618 C612 1.379 . S
C618 C615 1.363 . S
C618 N616 1.356 . S
C619 C613 1.363 . S
C619 C614 1.379 . S
C619 N617 1.356 . S
N620 C612 1.356 . S
N620 H626 0.984 . S
N620 H627 0.984 . S
N621 C614 1.356 . S
N621 H624 0.984 . S
N621 H625 0.985 . S
H622 N617 0.984 . S
H623 N617 0.985 . S
H624 N621 0.984 . S
H625 N621 0.985 . S
H626 N620 0.984 . S
H627 N620 0.984 . S
H628 N616 0.984 . S
H629 N616 0.985 . S
C630 C631 1.363 1_554 S
C630 C636 1.379 . S
C630 N638 1.356 . S
C631 C630 1.363 1_556 S
C631 C637 1.363 . S
C632 C633 1.363 1_556 S
C632 C637 1.379 . S
C632 N639 1.356 . S
C633 C632 1.363 1_554 S
C633 C636 1.363 . S
N634 C636 1.356 . S
N634 H646 0.984 . S
N634 H647 0.985 . S
N635 C637 1.356 . S
N635 H640 0.984 . S
N635 H641 0.985 . S
C636 C630 1.379 . S
C636 C633 1.363 . S
C636 N634 1.356 . S
C637 C631 1.363 . S
C637 C632 1.379 . S
C637 N635 1.356 . S
N638 C630 1.356 . S
N638 H644 0.984 . S
N638 H645 0.984 1_554 S
N639 C632 1.356 . S
N639 H642 0.984 1_556 S
N639 H643 0.985 . S
H640 N635 0.984 . S
H641 N635 0.985 . S
H642 N639 0.984 1_554 S
H643 N639 0.985 . S
H644 N638 0.984 . S
H645 N638 0.984 1_556 S
H646 N634 0.984 . S
H647 N634 0.985 . S
C648 C649 1.363 . S
C648 C654 1.379 1_545 S
C648 N656 1.356 . S
C649 C648 1.363 . S
C649 C655 1.363 . S
C650 C651 1.363 . S
C650 C655 1.379 1_565 S
C650 N657 1.356 . S
C651 C650 1.363 . S
C651 C654 1.363 . S
N652 C654 1.356 . S
N652 H664 0.984 . S
N652 H665 0.985 . S
N653 C655 1.356 . S
N653 H658 0.984 . S
N653 H659 0.985 . S
C654 C648 1.379 1_565 S
C654 C651 1.363 . S
C654 N652 1.356 . S
C655 C649 1.363 . S
C655 C650 1.379 1_545 S
C655 N653 1.356 . S
N656 C648 1.356 . S
N656 H662 0.984 . S
N656 H663 0.984 . S
N657 C650 1.356 . S
N657 H660 0.984 . S
N657 H661 0.985 . S
H658 N653 0.984 . S
H659 N653 0.985 . S
H660 N657 0.984 . S
H661 N657 0.985 . S
H662 N656 0.984 . S
H663 N656 0.984 . S
H664 N652 0.984 . S
H665 N652 0.985 . S
C666 C667 1.363 . S
C666 C672 1.379 . S
C666 N674 1.356 . S
C667 C666 1.363 . S
C667 C673 1.363 . S
C668 C669 1.363 . S
C668 C673 1.379 . S
C668 N675 1.356 . S
C669 C668 1.363 . S
C669 C672 1.363 . S
N670 C672 1.356 . S
N670 H682 0.984 . S
N670 H683 0.985 . S
N671 C673 1.356 . S
N671 H676 0.984 . S
N671 H677 0.985 . S
C672 C666 1.379 . S
C672 C669 1.363 . S
C672 N670 1.356 . S
C673 C667 1.363 . S
C673 C668 1.379 . S
C673 N671 1.356 . S
N674 C666 1.356 . S
N674 H680 0.984 . S
N674 H681 0.984 . S
N675 C668 1.356 . S
N675 H678 0.984 . S
N675 H679 0.985 . S
H676 N671 0.984 . S
H677 N671 0.985 . S
H678 N675 0.984 . S
H679 N675 0.985 . S
H680 N674 0.984 . S
H681 N674 0.984 . S
H682 N670 0.984 . S
H683 N670 0.985 . S
C684 C685 1.363 . S
C684 C690 1.379 1_655 S
C684 N692 1.356 . S
C685 C684 1.363 . S
C685 C691 1.363 . S
C686 C687 1.363 . S
C686 C691 1.379 1_455 S
C686 N693 1.356 1_556 S
C687 C686 1.363 . S
C687 C690 1.363 . S
N688 C690 1.356 . S
N688 H700 0.984 . S
N688 H701 0.985 . S
N689 C691 1.356 1_554 S
N689 H694 0.984 . S
N689 H695 0.985 . S
C690 C684 1.379 1_455 S
C690 C687 1.363 . S
C690 N688 1.356 . S
C691 C685 1.363 . S
C691 C686 1.379 1_655 S
C691 N689 1.356 1_556 S
N692 C684 1.356 . S
N692 H698 0.984 . S
N692 H699 0.984 . S
N693 C686 1.356 1_554 S
N693 H696 0.984 . S
N693 H697 0.985 . S
H694 N689 0.984 . S
H695 N689 0.985 . S
H696 N693 0.984 . S
H697 N693 0.985 . S
H698 N692 0.984 . S
H699 N692 0.984 . S
H700 N688 0.984 . S
H701 N688 0.985 . S
C702 C703 1.363 . S
C702 C708 1.379 1_455 S
C702 N710 1.356 . S
C703 C702 1.363 . S
C703 C709 1.363 . S
C704 C705 1.363 . S
C704 C709 1.379 1_655 S
C704 N711 1.356 . S
C705 C704 1.363 . S
C705 C708 1.363 . S
N706 C708 1.356 . S
N706 H718 0.984 . S
N706 H719 0.985 . S
N707 C709 1.356 . S
N707 H712 0.984 . S
N707 H713 0.985 . S
C708 C702 1.379 1_655 S
C708 C705 1.363 . S
C708 N706 1.356 . S
C709 C703 1.363 . S
C709 C704 1.379 1_455 S
C709 N707 1.356 . S
N710 C702 1.356 . S
N710 H716 0.984 . S
N710 H717 0.984 . S
N711 C704 1.356 . S
N711 H714 0.984 . S
N711 H715 0.985 . S
H712 N707 0.984 . S
H713 N707 0.985 . S
H714 N711 0.984 . S
H715 N711 0.985 . S
H716 N710 0.984 . S
H717 N710 0.984 . S
H718 N706 0.984 . S
H719 N706 0.985 . S
C720 C721 1.363 . S
C720 C726 1.379 1_545 S
C720 N728 1.356 . S
C721 C720 1.363 . S
C721 C727 1.363 . S
C722 C723 1.363 . S
C722 C727 1.379 1_565 S
C722 N729 1.356 . S
C723 C722 1.363 . S
C723 C726 1.363 . S
N724 C726 1.356 . S
N724 H736 0.984 . S
N724 H737 0.985 . S
N725 C727 1.356 . S
N725 H730 0.984 . S
N725 H731 0.985 . S
C726 C720 1.379 1_565 S
C726 C723 1.363 . S
C726 N724 1.356 . S
C727 C721 1.363 . S
C727 C722 1.379 1_545 S
C727 N725 1.356 . S
N728 C720 1.356 . S
N728 H734 0.984 . S
N728 H735 0.984 . S
N729 C722 1.356 . S
N729 H732 0.984 . S
N729 H733 0.985 . S
H730 N725 0.984 . S
H731 N725 0.985 . S
H732 N729 0.984 . S
H733 N729 0.985 . S
H734 N728 0.984 . S
H735 N728 0.984 . S
H736 N724 0.984 . S
H737 N724 0.985 . S
C738 C739 1.363 . S
C738 C744 1.379 . S
C738 N746 1.356 . S
C739 C738 1.363 . S
C739 C745 1.363 . S
C740 C741 1.363 . S
C740 C745 1.379 . S
C740 N747 1.356 1_554 S
C741 C740 1.363 . S
C741 C744 1.363 . S
N742 C744 1.356 . S
N742 H754 0.984 . S
N742 H755 0.985 . S
N743 C745 1.356 1_556 S
N743 H748 0.984 . S
N743 H749 0.985 . S
C744 C738 1.379 . S
C744 C741 1.363 . S
C744 N742 1.356 . S
C745 C739 1.363 . S
C745 C740 1.379 . S
C745 N743 1.356 1_554 S
N746 C738 1.356 . S
N746 H752 0.984 . S
N746 H753 0.984 . S
N747 C740 1.356 1_556 S
N747 H750 0.984 . S
N747 H751 0.985 . S
H748 N743 0.984 . S
H749 N743 0.985 . S
H750 N747 0.984 . S
H751 N747 0.985 . S
H752 N746 0.984 . S
H753 N746 0.984 . S
H754 N742 0.984 . S
H755 N742 0.985 . S
C756 C757 1.363 . S
C756 C762 1.379 . S
C756 N764 1.356 . S
C757 C756 1.363 . S
C757 C763 1.363 . S
C758 C759 1.363 . S
C758 C763 1.379 . S
C758 N765 1.356 . S
C759 C758 1.363 . S
C759 C762 1.363 . S
N760 C762 1.356 . S
N760 H772 0.984 . S
N760 H773 0.985 . S
N761 C763 1.356 . S
N761 H766 0.984 . S
N761 H767 0.985 . S
C762 C756 1.379 . S
C762 C759 1.363 . S
C762 N760 1.356 . S
C763 C757 1.363 . S
C763 C758 1.379 . S
C763 N761 1.356 . S
N764 C756 1.356 . S
N764 H770 0.984 . S
N764 H771 0.984 . S
N765 C758 1.356 . S
N765 H768 0.984 . S
N765 H769 0.985 . S
H766 N761 0.984 . S
H767 N761 0.985 . S
H768 N765 0.984 . S
H769 N765 0.985 . S
H770 N764 0.984 . S
H771 N764 0.984 . S
H772 N760 0.984 . S
H773 N760 0.985 . S
C774 C775 1.363 . S
C774 C780 1.379 . S
C774 N782 1.356 . S
C775 C774 1.363 . S
C775 C781 1.363 . S
C776 C777 1.363 . S
C776 C781 1.379 . S
C776 N783 1.356 . S
C777 C776 1.363 . S
C777 C780 1.363 . S
N778 C780 1.356 . S
N778 H790 0.984 . S
N778 H791 0.985 . S
N779 C781 1.356 . S
N779 H784 0.984 . S
N779 H785 0.985 . S
C780 C774 1.379 . S
C780 C777 1.363 . S
C780 N778 1.356 . S
C781 C775 1.363 . S
C781 C776 1.379 . S
C781 N779 1.356 . S
N782 C774 1.356 . S
N782 H788 0.984 . S
N782 H789 0.984 . S
N783 C776 1.356 . S
N783 H786 0.984 . S
N783 H787 0.985 . S
H784 N779 0.984 . S
H785 N779 0.985 . S
H786 N783 0.984 . S
H787 N783 0.985 . S
H788 N782 0.984 . S
H789 N782 0.984 . S
H790 N778 0.984 . S
H791 N778 0.985 . S
C792 C793 1.363 . S
C792 C798 1.379 . S
C792 N800 1.356 . S
C793 C792 1.363 . S
C793 C799 1.363 . S
C794 C795 1.363 . S
C794 C799 1.379 . S
C794 N801 1.356 . S
C795 C794 1.363 . S
C795 C798 1.363 . S
N796 C798 1.356 . S
N796 H808 0.984 . S
N796 H809 0.985 . S
N797 C799 1.356 . S
N797 H802 0.984 . S
N797 H803 0.985 . S
C798 C792 1.379 . S
C798 C795 1.363 . S
C798 N796 1.356 . S
C799 C793 1.363 . S
C799 C794 1.379 . S
C799 N797 1.356 . S
N800 C792 1.356 . S
N800 H806 0.984 . S
N800 H807 0.984 . S
N801 C794 1.356 . S
N801 H804 0.984 . S
N801 H805 0.985 . S
H802 N797 0.984 . S
H803 N797 0.985 . S
H804 N801 0.984 . S
H805 N801 0.985 . S
H806 N800 0.984 . S
H807 N800 0.984 . S
H808 N796 0.984 . S
H809 N796 0.985 . S
C810 C811 1.363 . S
C810 C816 1.379 . S
C810 N818 1.356 . S
C811 C810 1.363 . S
C811 C817 1.363 . S
C812 C813 1.363 . S
C812 C817 1.379 . S
C812 N819 1.356 . S
C813 C812 1.363 . S
C813 C816 1.363 . S
N814 C816 1.356 . S
N814 H826 0.984 . S
N814 H827 0.985 . S
N815 C817 1.356 . S
N815 H820 0.984 . S
N815 H821 0.985 . S
C816 C810 1.379 . S
C816 C813 1.363 . S
C816 N814 1.356 . S
C817 C811 1.363 . S
C817 C812 1.379 . S
C817 N815 1.356 . S
N818 C810 1.356 . S
N818 H824 0.984 . S
N818 H825 0.984 . S
N819 C812 1.356 . S
N819 H822 0.984 . S
N819 H823 0.985 . S
H820 N815 0.984 . S
H821 N815 0.985 . S
H822 N819 0.984 . S
H823 N819 0.985 . S
H824 N818 0.984 . S
H825 N818 0.984 . S
H826 N814 0.984 . S
H827 N814 0.985 . S
C828 C829 1.363 . S
C828 C834 1.379 . S
C828 N836 1.356 . S
C829 C828 1.363 . S
C829 C835 1.363 . S
C830 C831 1.363 . S
C830 C835 1.379 . S
C830 N837 1.356 . S
C831 C830 1.363 . S
C831 C834 1.363 . S
N832 C834 1.356 . S
N832 H844 0.984 . S
N832 H845 0.985 . S
N833 C835 1.356 . S
N833 H838 0.984 . S
N833 H839 0.985 . S
C834 C828 1.379 . S
C834 C831 1.363 . S
C834 N832 1.356 . S
C835 C829 1.363 . S
C835 C830 1.379 . S
C835 N833 1.356 . S
N836 C828 1.356 . S
N836 H842 0.984 . S
N836 H843 0.984 . S
N837 C830 1.356 . S
N837 H840 0.984 . S
N837 H841 0.985 . S
H838 N833 0.984 . S
H839 N833 0.985 . S
H840 N837 0.984 . S
H841 N837 0.985 . S
H842 N836 0.984 . S
H843 N836 0.984 . S
H844 N832 0.984 . S
H845 N832 0.985 . S
C846 C847 1.363 . S
C846 C852 1.379 . S
C846 N854 1.356 . S
C847 C846 1.363 . S
C847 C853 1.363 . S
C848 C849 1.363 . S
C848 C853 1.379 . S
C848 N855 1.356 . S
C849 C848 1.363 . S
C849 C852 1.363 . S
N850 C852 1.356 . S
N850 H862 0.984 . S
N850 H863 0.985 . S
N851 C853 1.356 . S
N851 H856 0.984 . S
N851 H857 0.985 . S
C852 C846 1.379 . S
C852 C849 1.363 . S
C852 N850 1.356 . S
C853 C847 1.363 . S
C853 C848 1.379 . S
C853 N851 1.356 . S
N854 C846 1.356 . S
N854 H860 0.984 . S
N854 H861 0.984 . S
N855 C848 1.356 . S
N855 H858 0.984 . S
N855 H859 0.985 . S
H856 N851 0.984 . S
H857 N851 0.985 . S
H858 N855 0.984 . S
H859 N855 0.985 . S
H860 N854 0.984 . S
H861 N854 0.984 . S
H862 N850 0.984 . S
H863 N850 0.985 . S
C433 C4 1.664 . S
C435 C364 1.664 . S
C451 C40 1.664 . S
C453 C400 1.664 . S
C469 C220 1.664 . S
C471 C76 1.664 . S
C487 C112 1.664 . S
C489 C256 1.664 . S
C505 C292 1.664 . S
C507 C148 1.664 . S
C523 C328 1.664 . S
C525 C184 1.664 . S
C541 C218 0.744 . S
C543 C2 0.744 . S
C559 C254 0.744 . S
C561 C38 0.744 . S
C577 C290 0.744 . S
C579 C74 0.744 . S
C595 C110 0.744 . S
C597 C326 0.744 . S
C613 C146 0.744 . S
C615 C362 0.744 . S
C631 C182 0.744 . S
C633 C398 0.744 . S
C649 C14 1.289 . S
C651 C122 1.289 . S
C667 C50 1.289 . S
C669 C158 1.289 . S
C685 C86 1.289 . S
C687 C194 1.289 . S
C703 C338 1.289 . S
C705 C230 1.289 . S
C721 C374 1.289 . S
C723 C266 1.289 . S
C739 C410 1.289 . S
C741 C302 1.289 . S
C757 C3 1.598 . S
C759 C291 1.598 . S
C775 C327 1.598 . S
C777 C39 1.598 . S
C793 C75 1.598 . S
C795 C363 1.598 . S
C811 C399 1.598 . S
C813 C111 1.598 . S
C829 C147 1.598 . S
C831 C219 1.598 . S
C847 C183 1.598 . S
C849 C255 1.598 . S
