# Generated by pormake.
# Topology snk, (6)-cn, num edge types: 1
# Building blocks:
#     Node 0, Type 0, BuildingBlock: GEDQOX_clean_sbu_0, # of connection points: 6
#     Node 1, Type 0, BuildingBlock: GEDQOX_clean_sbu_0, # of connection points: 6
#     Node 2, Type 0, BuildingBlock: GEDQOX_clean_sbu_0, # of connection points: 6
#     Node 3, Type 0, BuildingBlock: GEDQOX_clean_sbu_0, # of connection points: 6
#     Node 4, Type 0, BuildingBlock: GEDQOX_clean_sbu_0, # of connection points: 6
#     Node 5, Type 0, BuildingBlock: GEDQOX_clean_sbu_0, # of connection points: 6
#     Node 6, Type 0, BuildingBlock: GEDQOX_clean_sbu_0, # of connection points: 6
#     Node 7, Type 0, BuildingBlock: GEDQOX_clean_sbu_0, # of connection points: 6
#     Edge 8, Type (0, 0), BuildingBlock: KIFKEQ_clean_linker_1, # of connection points: 2
#     Edge 9, Type (0, 0), BuildingBlock: KIFKEQ_clean_linker_1, # of connection points: 2
#     Edge 10, Type (0, 0), BuildingBlock: KIFKEQ_clean_linker_1, # of connection points: 2
#     Edge 11, Type (0, 0), BuildingBlock: KIFKEQ_clean_linker_1, # of connection points: 2
#     Edge 12, Type (0, 0), BuildingBlock: KIFKEQ_clean_linker_1, # of connection points: 2
#     Edge 13, Type (0, 0), BuildingBlock: KIFKEQ_clean_linker_1, # of connection points: 2
#     Edge 14, Type (0, 0), BuildingBlock: KIFKEQ_clean_linker_1, # of connection points: 2
#     Edge 15, Type (0, 0), BuildingBlock: KIFKEQ_clean_linker_1, # of connection points: 2
#     Edge 16, Type (0, 0), BuildingBlock: KIFKEQ_clean_linker_1, # of connection points: 2
#     Edge 17, Type (0, 0), BuildingBlock: KIFKEQ_clean_linker_1, # of connection points: 2
#     Edge 18, Type (0, 0), BuildingBlock: KIFKEQ_clean_linker_1, # of connection points: 2
#     Edge 19, Type (0, 0), BuildingBlock: KIFKEQ_clean_linker_1, # of connection points: 2
#     Edge 20, Type (0, 0), BuildingBlock: KIFKEQ_clean_linker_1, # of connection points: 2
#     Edge 21, Type (0, 0), BuildingBlock: KIFKEQ_clean_linker_1, # of connection points: 2
#     Edge 22, Type (0, 0), BuildingBlock: KIFKEQ_clean_linker_1, # of connection points: 2
#     Edge 23, Type (0, 0), BuildingBlock: KIFKEQ_clean_linker_1, # of connection points: 2
#     Edge 24, Type (0, 0), BuildingBlock: KIFKEQ_clean_linker_1, # of connection points: 2
#     Edge 25, Type (0, 0), BuildingBlock: KIFKEQ_clean_linker_1, # of connection points: 2
#     Edge 26, Type (0, 0), BuildingBlock: KIFKEQ_clean_linker_1, # of connection points: 2
#     Edge 27, Type (0, 0), BuildingBlock: KIFKEQ_clean_linker_1, # of connection points: 2
#     Edge 28, Type (0, 0), BuildingBlock: KIFKEQ_clean_linker_1, # of connection points: 2
#     Edge 29, Type (0, 0), BuildingBlock: KIFKEQ_clean_linker_1, # of connection points: 2
#     Edge 30, Type (0, 0), BuildingBlock: KIFKEQ_clean_linker_1, # of connection points: 2
#     Edge 31, Type (0, 0), BuildingBlock: KIFKEQ_clean_linker_1, # of connection points: 2
# Relax obj value: 0.117
# Max RMSD: 0.184
# Mean RMSD: 0.184
data_MOF--net-snk--node1-GEDQOX_clean_sbu_0--edge1-KIFKEQ_clean_linker_1
_symmetry_space_group_name_H-M    P1
_symmetry_Int_Tables_number       1
_symmetry_cell_setting            triclinic
loop_
_symmetry_equiv_pos_as_xyz
'x, y, z'
_cell_length_a     56.892813
_cell_length_b     56.840353
_cell_length_c     15.762283
_cell_angle_alpha  89.869449
_cell_angle_beta   89.995981
_cell_angle_gamma 90.005531
loop_
_atom_site_label
_atom_site_type_symbol
_atom_site_fract_x
_atom_site_fract_y
_atom_site_fract_z
_atom_type_partial_charge
Nd0 Nd 0.03501 0.04641 0.52923 0.0
Nd1 Nd 1.0026 0.99671 0.52975 0.0
C2 C 0.0494 0.0906 0.51896 0.0
C3 C 0.06956 0.10451 0.48723 0.0
C4 C 0.06565 0.12692 0.45258 0.0
C5 C 0.08451 0.14075 0.42449 0.0
C6 C 0.10779 0.13248 0.43066 0.0
C7 C 0.11157 0.10983 0.46479 0.0
C8 C 0.09267 0.09598 0.49247 0.0
C9 C 0.06204 1.00553 0.53155 0.0
C10 C 0.02163 0.01961 0.35014 0.0
C11 C 0.98729 0.95277 0.5399 0.0
C12 C 0.96635 0.9389 0.56683 0.0
C13 C 0.96413 0.93066 0.65073 0.0
C14 C 0.94496 0.91666 0.67486 0.0
C15 C 0.92752 0.91043 0.61565 0.0
C16 C 0.92982 0.91862 0.53168 0.0
C17 C 0.94899 0.93258 0.50757 0.0
C18 C 0.97563 0.03771 0.52907 0.0
C19 C 1.01751 0.02263 0.70821 0.0
O20 O 0.03583 0.08079 0.46182 0.0
O21 O 0.05312 0.0771 0.5853 0.0
O22 O 0.07107 0.02657 0.53344 0.0
O23 O 0.04017 1.00772 0.52572 0.0
O24 O 0.02757 0.03948 0.38858 0.0
O25 O 1.01495 1.00029 0.39123 0.0
O26 O 0.99989 0.96285 0.59931 0.0
O27 O 0.98539 0.96573 0.47118 0.0
O28 O 0.96654 1.01671 0.52763 0.0
O29 O 0.99749 0.03539 0.53337 0.0
O30 O 1.01257 1.00265 0.66887 0.0
O31 O 0.02244 0.04254 0.66755 0.0
H32 H 0.04794 0.13382 0.44761 0.0
H33 H 0.0808 0.15788 0.39745 0.0
H34 H 0.12919 0.10292 0.47183 0.0
H35 H 0.09617 0.07871 0.51881 0.0
H36 H 0.9773 0.9349 0.69792 0.0
H37 H 0.9437 0.9109 0.74023 0.0
H38 H 0.917 0.91388 0.4839 0.0
H39 H 0.95031 0.93822 0.44205 0.0
Nd40 Nd 0.24414 0.78715 0.79495 0.0
Nd41 Nd 0.29162 0.75583 0.7921 0.0
C42 C 0.20109 0.80476 0.77968 0.0
C43 C 0.18742 0.82414 0.74106 0.0
C44 C 0.16338 0.82088 0.72543 0.0
C45 C 0.14952 0.83942 0.69496 0.0
C46 C 0.15941 0.86173 0.67941 0.0
C47 C 0.18371 0.86476 0.69333 0.0
C48 C 0.19757 0.84616 0.72389 0.0
C49 C 0.28556 0.81156 0.81721 0.0
C50 C 0.26914 0.77415 0.61143 0.0
C51 C 0.33541 0.7401 0.80063 0.0
C52 C 0.34894 0.71926 0.83086 0.0
C53 C 0.35582 0.71694 0.91627 0.0
C54 C 0.36929 0.69761 0.94298 0.0
C55 C 0.37624 0.68012 0.88501 0.0
C56 C 0.36942 0.68257 0.79961 0.0
C57 C 0.35606 0.70189 0.77291 0.0
C58 C 0.25176 0.7273 0.7979 0.0
C59 C 0.26563 0.76828 0.97044 0.0
O60 O 0.20949 0.78857 0.72915 0.0
O61 O 0.21557 0.81027 0.84096 0.0
O62 O 0.26547 0.81813 0.8481 0.0
O63 O 0.28285 0.79415 0.76849 0.0
O64 O 0.2508 0.78308 0.65193 0.0
O65 O 0.2875 0.76492 0.65106 0.0
O66 O 0.32617 0.75414 0.85758 0.0
O67 O 0.32178 0.7371 0.73446 0.0
O68 O 0.27304 0.7191 0.79622 0.0
O69 O 0.25307 0.74929 0.79893 0.0
O70 O 0.28602 0.76629 0.93086 0.0
O71 O 0.24565 0.77101 0.92845 0.0
H72 H 0.1552 0.80402 0.73815 0.0
H73 H 0.13101 0.83626 0.68374 0.0
H74 H 0.19193 0.88171 0.68293 0.0
H75 H 0.2161 0.84911 0.73564 0.0
H76 H 0.35088 0.73008 0.9626 0.0
H77 H 0.37404 0.69624 1.00934 0.0
H78 H 0.37478 0.66972 0.75279 0.0
H79 H 0.35145 0.70331 0.7064 0.0
Nd80 Nd 0.50489 0.99455 1.02512 0.0
Nd81 Nd 0.53557 0.04267 1.02124 0.0
C82 C 0.49077 0.95014 1.01794 0.0
C83 C 0.47093 0.9358 0.98677 0.0
C84 C 0.46807 0.9128 1.01735 0.0
C85 C 0.44898 0.89905 0.99119 0.0
C86 C 0.43226 0.908 0.93366 0.0
C87 C 0.43538 0.93108 0.90245 0.0
C88 C 0.4545 0.94485 0.92886 0.0
C89 C 0.47603 0.03422 1.02061 0.0
C90 C 0.51628 0.02117 0.84639 0.0
C91 C 0.55356 0.08556 0.03721 0.0
C92 C 0.57443 0.09839 0.07043 0.0
C93 C 0.57565 0.10569 0.15561 0.0
C94 C 0.59472 0.11912 0.18461 0.0
C95 C 0.61301 0.12565 0.12916 0.0
C96 C 0.61174 0.11829 0.04408 0.0
C97 C 0.5927 0.10493 1.01511 0.0
C98 C 0.56044 1.00152 0.99833 0.0
C99 C 0.52238 1.01769 0.20512 0.0
O100 O 0.50449 0.95985 0.96086 0.0
O101 O 0.48634 0.96405 0.08213 0.0
O102 O 0.46795 1.01285 1.02292 0.0
O103 O 0.49798 0.033 1.01806 0.0
O104 O 0.51456 1.00066 0.88574 0.0
O105 O 0.51895 0.04114 0.88852 0.0
O106 O 0.53879 0.07637 0.09174 0.0
O107 O 0.55658 0.07234 0.9702 0.0
O108 O 0.56684 0.02177 0.96806 0.0
O109 O 0.54306 1.00403 0.04733 0.0
O110 O 0.5306 0.03634 0.16422 0.0
O111 O 0.51404 0.99887 0.16586 0.0
H112 H 0.48049 0.90553 0.06246 0.0
H113 H 0.44704 0.88158 1.01783 0.0
H114 H 0.42308 0.93853 0.85737 0.0
H115 H 0.45638 0.96259 0.90453 0.0
H116 H 0.56178 0.10122 0.19985 0.0
H117 H 0.59517 0.12428 0.25067 0.0
H118 H 0.62524 0.1233 0.99909 0.0
H119 H 0.59215 0.10004 0.94877 0.0
Nd120 Nd 0.29401 0.25411 0.27885 0.0
Nd121 Nd 0.24608 0.28537 0.27592 0.0
C122 C 0.33684 0.23605 0.26277 0.0
C123 C 0.34959 0.21489 0.23157 0.0
C124 C 0.35631 0.21274 0.14598 0.0
C125 C 0.36966 0.19343 0.11866 0.0
C126 C 0.37669 0.17581 0.17625 0.0
C127 C 0.36991 0.17799 0.26174 0.0
C128 C 0.35664 0.19729 0.28902 0.0
C129 C 0.25276 0.22935 0.29947 0.0
C130 C 0.2693 0.26822 0.09557 0.0
C131 C 0.20178 0.29967 0.28358 0.0
C132 C 0.18717 0.31915 0.31609 0.0
C133 C 0.16439 0.32222 0.28406 0.0
C134 C 0.15029 0.34084 0.3121 0.0
C135 C 0.15867 0.35687 0.37303 0.0
C136 C 0.18154 0.35356 0.40557 0.0
C137 C 0.19566 0.3349 0.37729 0.0
C138 C 0.28616 0.31364 0.2813 0.0
C139 C 0.27247 0.27325 0.45424 0.0
O140 O 0.3274 0.25028 0.20685 0.0
O141 O 0.32391 0.23363 0.33093 0.0
O142 O 0.27297 0.22243 0.32834 0.0
O143 O 0.25534 0.24716 0.25235 0.0
O144 O 0.28796 0.26 0.13623 0.0
O145 O 0.25042 0.27637 0.13503 0.0
O146 O 0.21132 0.28552 0.33969 0.0
O147 O 0.21586 0.30464 0.22026 0.0
O148 O 0.26496 0.32212 0.27902 0.0
O149 O 0.28451 0.2917 0.28318 0.0
O150 O 0.25202 0.27531 0.41505 0.0
O151 O 0.29241 0.27037 0.41205 0.0
H152 H 0.35144 0.22608 0.10006 0.0
H153 H 0.37437 0.19226 0.05224 0.0
H154 H 0.37531 0.16503 0.30827 0.0
H155 H 0.35219 0.19857 0.35568 0.0
H156 H 0.15755 0.31031 0.23649 0.0
H157 H 0.13301 0.34297 0.2844 0.0
H158 H 0.18854 0.36534 0.45318 0.0
H159 H 0.21322 0.33284 0.40287 0.0
Nd160 Nd 0.74472 0.28559 0.28686 0.0
Nd161 Nd 0.79288 0.25492 0.28447 0.0
C162 C 0.70148 0.30258 0.27009 0.0
C163 C 0.68803 0.32277 0.2354 0.0
C164 C 0.66715 0.31859 0.19044 0.0
C165 C 0.65313 0.33734 0.1625 0.0
C166 C 0.65962 0.3608 0.17912 0.0
C167 C 0.68083 0.3649 0.22293 0.0
C168 C 0.69488 0.34614 0.2506 0.0
C169 C 0.78572 0.31079 0.30777 0.0
C170 C 0.76982 0.27225 0.10372 0.0
C171 C 0.83707 0.24039 0.29243 0.0
C172 C 0.85146 0.22055 0.3247 0.0
C173 C 0.84924 0.21205 0.40816 0.0
C174 C 0.86336 0.19341 0.43682 0.0
C175 C 0.87997 0.18279 0.38266 0.0
C176 C 0.88202 0.19138 0.29911 0.0
C177 C 0.86799 0.21003 0.27068 0.0
C178 C 0.75327 0.22602 0.29037 0.0
C179 C 0.76652 0.26685 0.46262 0.0
O180 O 0.71087 0.28788 0.21603 0.0
O181 O 0.71486 0.30644 0.33616 0.0
O182 O 0.76544 0.31739 0.33693 0.0
O183 O 0.78332 0.29305 0.26045 0.0
O184 O 0.75118 0.28055 0.14415 0.0
O185 O 0.78858 0.26387 0.1434 0.0
O186 O 0.82766 0.25474 0.34804 0.0
O187 O 0.82317 0.23592 0.22817 0.0
O188 O 0.77461 0.21796 0.28872 0.0
O189 O 0.75447 0.248 0.29151 0.0
O190 O 0.78697 0.26504 0.42333 0.0
O191 O 0.74653 0.26947 0.42049 0.0
H192 H 0.66148 0.30073 0.17798 0.0
H193 H 0.63716 0.33343 0.1279 0.0
H194 H 0.68633 0.38264 0.23803 0.0
H195 H 0.71087 0.34993 0.28528 0.0
H196 H 0.83665 0.21982 0.45137 0.0
H197 H 0.86142 0.18751 0.50179 0.0
H198 H 0.89424 0.18346 0.25493 0.0
H199 H 0.87001 0.21622 0.20602 0.0
Nd200 Nd 0.79436 0.75259 0.77017 0.0
Nd201 Nd 0.74435 0.78446 0.77088 0.0
C202 C 0.83856 0.73815 0.76065 0.0
C203 C 0.85233 0.71764 0.73181 0.0
C204 C 0.87661 0.71999 0.71916 0.0
C205 C 0.89011 0.70078 0.69249 0.0
C206 C 0.87961 0.67871 0.67781 0.0
C207 C 0.85515 0.67651 0.6901 0.0
C208 C 0.84165 0.69579 0.71676 0.0
C209 C 0.75384 0.72502 0.77001 0.0
C210 C 0.76821 0.76725 0.59176 0.0
C211 C 0.7 0.79847 0.77911 0.0
C212 C 0.68572 0.8184 0.80994 0.0
C213 C 0.66308 0.82185 0.7771 0.0
C214 C 0.64919 0.84067 0.80485 0.0
C215 C 0.65765 0.85651 0.86628 0.0
C216 C 0.68041 0.85288 0.89936 0.0
C217 C 0.69431 0.83403 0.8714 0.0
C218 C 0.78487 0.812 0.76927 0.0
C219 C 0.77114 0.77106 0.9499 0.0
O220 O 0.82838 0.7508 0.70152 0.0
O221 O 0.82532 0.73515 0.82795 0.0
O222 O 0.77497 0.71626 0.77061 0.0
O223 O 0.75574 0.74697 0.76657 0.0
O224 O 0.78824 0.76243 0.63103 0.0
O225 O 0.74832 0.77206 0.63244 0.0
O226 O 0.70997 0.78513 0.83682 0.0
O227 O 0.71361 0.80255 0.71352 0.0
O228 O 0.76374 0.82079 0.76823 0.0
O229 O 0.78296 0.79006 0.77375 0.0
O230 O 0.75122 0.77679 0.91136 0.0
O231 O 0.79053 0.76467 0.90892 0.0
H232 H 0.88517 0.73675 0.72996 0.0
H233 H 0.90877 0.70331 0.68248 0.0
H234 H 0.84646 0.65978 0.68045 0.0
H235 H 0.82291 0.6936 0.72606 0.0
H236 H 0.65615 0.81002 0.72942 0.0
H237 H 0.63199 0.84305 0.77678 0.0
H238 H 0.68746 0.8645 0.94736 0.0
H239 H 0.71175 0.83168 0.89769 0.0
Nd240 Nd 0.53341 0.54502 0.03773 0.0
Nd241 Nd 0.50247 0.49717 0.03514 0.0
C242 C 0.55136 0.58791 1.02081 0.0
C243 C 0.57244 0.60063 0.9887 0.0
C244 C 0.57418 0.60771 0.90329 0.0
C245 C 0.59346 0.62099 0.8751 0.0
C246 C 0.61145 0.62757 0.93162 0.0
C247 C 0.60965 0.62046 1.01695 0.0
C248 C 0.59039 0.60725 0.04511 0.0
C249 C 0.55835 0.50388 0.05982 0.0
C250 C 0.51975 0.52016 0.85452 0.0
C251 C 0.4879 0.45296 0.04472 0.0
C252 C 0.4681 0.43903 0.0788 0.0
C253 C 0.47076 0.41471 0.09026 0.0
C254 C 0.45191 0.40094 0.11878 0.0
C255 C 0.42992 0.41121 0.13646 0.0
C256 C 0.42748 0.43574 0.12612 0.0
C257 C 0.44637 0.4495 0.09762 0.0
C258 C 0.4739 0.53707 0.0398 0.0
C259 C 0.51423 0.52363 0.21327 0.0
O260 O 0.53703 0.57847 0.96548 0.0
O261 O 0.55393 0.57495 0.08892 0.0
O262 O 0.56487 0.52415 0.08923 0.0
O263 O 0.54075 0.50631 1.01171 0.0
O264 O 0.52795 0.53883 0.89504 0.0
O265 O 0.51151 0.50131 0.89418 0.0
O266 O 0.50232 0.46237 0.09996 0.0
O267 O 0.48318 0.46695 0.98075 0.0
O268 O 0.46565 0.51578 0.03782 0.0
O269 O 0.49583 0.53562 0.04171 0.0
O270 O 0.51236 0.50315 0.17423 0.0
O271 O 0.517 0.54358 0.17081 0.0
H272 H 0.56055 0.60319 0.85821 0.0
H273 H 0.59434 0.62596 0.80882 0.0
H274 H 0.6229 0.62552 0.06272 0.0
H275 H 0.58943 0.60252 0.11163 0.0
H276 H 0.48741 0.4063 0.07636 0.0
H277 H 0.45463 0.38223 0.12724 0.0
H278 H 0.41079 0.44427 0.13812 0.0
H279 H 0.44393 0.46826 0.08916 0.0
Nd280 Nd 1.00447 0.49489 0.52589 0.0
Nd281 Nd 0.03557 0.54281 0.52208 0.0
C282 C 0.9895 0.45085 0.51534 0.0
C283 C 0.9691 0.43717 0.48393 0.0
C284 C 0.97286 0.41574 0.442 0.0
C285 C 0.95383 0.40191 0.41544 0.0
C286 C 0.93052 0.40917 0.43045 0.0
C287 C 0.92687 0.43086 0.47166 0.0
C288 C 0.94591 0.44471 0.49783 0.0
C289 C 0.97611 0.53499 0.52284 0.0
C290 C 1.01626 0.5215 0.34719 0.0
C291 C 0.05359 0.58568 0.53852 0.0
C292 C 0.07426 0.59865 0.57261 0.0
C293 C 0.07506 0.60615 0.65763 0.0
C294 C 0.0939 0.61978 0.68731 0.0
C295 C 0.11239 0.6263 0.63271 0.0
C296 C 0.11154 0.61874 0.5478 0.0
C297 C 0.09273 0.6052 0.51815 0.0
C298 C 0.06015 0.50149 0.49879 0.0
C299 C 0.02243 0.51761 0.70585 0.0
O300 O 1.00326 0.46053 0.45841 0.0
O301 O 0.98604 0.46429 0.5817 0.0
O302 O 0.96772 0.51375 0.52609 0.0
O303 O 0.998 0.53332 0.51858 0.0
O304 O 1.01438 0.50103 0.38667 0.0
O305 O 1.01904 0.54146 0.38924 0.0
O306 O 0.03859 0.57656 0.59238 0.0
O307 O 0.05695 0.57235 0.472 0.0
O308 O 0.06669 0.52174 0.4688 0.0
O309 O 0.04279 0.50407 0.54785 0.0
O310 O 0.03068 0.53627 0.66502 0.0
O311 O 1.01396 0.49885 0.66652 0.0
H312 H 0.99059 0.40956 0.4304 0.0
H313 H 0.95742 0.38556 0.38282 0.0
H314 H 0.90926 0.43696 0.48556 0.0
H315 H 0.94245 0.46117 0.53 0.0
H316 H 0.06101 0.6017 0.70119 0.0
H317 H 0.09403 0.6251 0.75323 0.0
H318 H 0.1252 0.62374 0.50342 0.0
H319 H 0.09249 0.60015 0.45192 0.0
H320 H 0.14853 0.1186 0.3515 0.0
H321 H 0.11318 0.18047 0.44652 0.0
H322 H 0.18256 0.14253 0.31453 0.0
H323 H 0.14713 0.20446 0.40726 0.0
H324 H 0.20752 0.24153 0.25425 0.0
H325 H 0.17144 0.21872 0.28018 0.0
H326 H 0.21262 0.16415 0.39975 0.0
H327 H 0.24823 0.18682 0.37499 0.0
C328 C 0.14796 0.13727 0.36475 0.0
C329 C 0.12806 0.14745 0.40299 0.0
C330 C 0.16747 0.15102 0.34309 0.0
C331 C 0.16761 0.17539 0.35833 0.0
C332 C 0.14749 0.18578 0.39392 0.0
C333 C 0.128 0.17197 0.41632 0.0
C334 C 0.20875 0.22467 0.28605 0.0
C335 C 0.23069 0.21597 0.31257 0.0
C336 C 0.18815 0.21165 0.30107 0.0
C337 C 0.1892 0.18954 0.34154 0.0
C338 C 0.2112 0.18092 0.36739 0.0
C339 C 0.23162 0.194 0.35354 0.0
H340 H 0.10916 1.00133 0.55037 0.0
H341 H 0.0455 0.96016 0.54453 0.0
H342 H 0.13192 0.9661 0.58108 0.0
H343 H 0.06838 0.9245 0.57443 0.0
H344 H 0.11474 0.87295 0.73192 0.0
H345 H 0.09067 0.90647 0.68981 0.0
H346 H 0.14572 0.92979 0.52073 0.0
H347 H 0.16979 0.89625 0.56278 0.0
C348 C 0.10004 0.98464 0.55494 0.0
C349 C 0.07551 0.98352 0.54536 0.0
C350 C 0.11313 0.96437 0.57208 0.0
C351 C 0.10208 0.94234 0.58021 0.0
C352 C 0.07748 0.94118 0.56955 0.0
C353 C 0.06435 0.96155 0.55205 0.0
C354 C 0.12162 0.88502 0.68484 0.0
C355 C 0.14432 0.88185 0.65108 0.0
C356 C 0.10776 0.90429 0.66059 0.0
C357 C 0.11621 0.92097 0.60201 0.0
C358 C 0.13875 0.91756 0.56711 0.0
C359 C 0.1526 0.8983 0.59133 0.0
H360 H 0.29202 0.84896 0.92054 0.0
H361 H 0.32924 0.8038 0.74662 0.0
H362 H 0.32759 0.87162 0.94433 0.0
H363 H 0.36512 0.827 0.76885 0.0
H364 H 0.42997 0.86035 0.90253 0.0
H365 H 0.39522 0.83661 0.87245 0.0
H366 H 0.35242 0.89937 0.87494 0.0
H367 H 0.38685 0.92287 0.90895 0.0
C368 C 0.30784 0.84395 0.88691 0.0
C369 C 0.30777 0.82468 0.83126 0.0
C370 C 0.32827 0.85709 0.90008 0.0
C371 C 0.34928 0.85142 0.85777 0.0
C372 C 0.34932 0.83185 0.80287 0.0
C373 C 0.32876 0.81861 0.78975 0.0
C374 C 0.41312 0.86909 0.89721 0.0
C375 C 0.41131 0.8936 0.90894 0.0
C376 C 0.39319 0.85547 0.87887 0.0
C377 C 0.37088 0.86596 0.87182 0.0
C378 C 0.3692 0.89054 0.8813 0.0
C379 C 0.38908 0.90413 0.89973 0.0
H380 H 0.42854 0.03699 0.03217 0.0
H381 H 0.4911 0.07983 0.03878 0.0
H382 H 0.40457 0.07137 0.06392 0.0
H383 H 0.46713 0.1144 0.07264 0.0
H384 H 0.41371 0.17541 0.06375 0.0
H385 H 0.43756 0.14184 1.01945 0.0
H386 H 0.39686 0.0964 0.18313 0.0
H387 H 0.37259 0.12966 0.22481 0.0
C388 C 0.43717 0.05383 0.04016 0.0
C389 C 0.46171 0.0557 0.03338 0.0
C390 C 0.42343 0.07355 0.05904 0.0
C391 C 0.43387 0.0957 0.07192 0.0
C392 C 0.45844 0.09769 0.06264 0.0
C393 C 0.47221 0.07788 0.04359 0.0
C394 C 0.40967 0.1582 0.08948 0.0
C395 C 0.39116 0.15531 0.14792 0.0
C396 C 0.42354 0.13897 0.06479 0.0
C397 C 0.41918 0.11633 0.0975 0.0
C398 C 0.4006 0.11347 0.15562 0.0
C399 C 0.38681 0.13265 0.1804 0.0
H400 H 0.92688 0.87207 0.7228 0.0
H401 H 0.88153 0.91492 0.56622 0.0
H402 H 0.89315 0.84817 0.76514 0.0
H403 H 0.84814 0.89053 0.60554 0.0
H404 H 0.78859 0.85936 0.75708 0.0
H405 H 0.82326 0.88271 0.7242 0.0
H406 H 0.86506 0.81932 0.71329 0.0
H407 H 0.83016 0.79597 0.74894 0.0
C408 C 0.90974 0.87645 0.69746 0.0
C409 C 0.907 0.89553 0.64114 0.0
C410 C 0.89042 0.86254 0.721 0.0
C411 C 0.86782 0.8674 0.68911 0.0
C412 C 0.86516 0.88641 0.6325 0.0
C413 C 0.88443 0.90027 0.60899 0.0
C414 C 0.80522 0.8504 0.74823 0.0
C415 C 0.80663 0.8258 0.75494 0.0
C416 C 0.8251 0.86379 0.72864 0.0
C417 C 0.847 0.85295 0.71477 0.0
C418 C 0.84855 0.82831 0.72387 0.0
C419 C 0.82855 0.81488 0.74385 0.0
H420 H 0.99208 0.08321 0.52789 0.0
H421 H 0.92888 0.04204 0.50062 0.0
H422 H 0.9696 0.11918 0.49941 0.0
H423 H 0.90652 0.07756 0.47077 0.0
H424 H 0.86743 0.14614 0.48751 0.0
H425 H 0.89111 0.1126 0.53137 0.0
H426 H 0.94963 0.13933 0.38556 0.0
H427 H 0.92632 0.17352 0.34515 0.0
C428 C 0.97342 0.08187 0.5157 0.0
C429 C 0.96228 0.05982 0.51608 0.0
C430 C 0.96051 0.10244 0.49907 0.0
C431 C 0.93615 0.10139 0.48267 0.0
C432 C 0.9251 0.07924 0.4844 0.0
C433 C 0.93797 0.05879 0.50103 0.0
C434 C 0.88547 0.14514 0.46588 0.0
C435 C 0.89482 0.16261 0.41225 0.0
C436 C 0.89901 0.12567 0.49024 0.0
C437 C 0.9223 0.12303 0.46153 0.0
C438 C 0.93185 0.14077 0.40955 0.0
C439 C 0.91833 0.16028 0.38534 0.0
H440 H 0.70777 0.24093 0.26756 0.0
H441 H 0.75053 0.17844 0.28445 0.0
H442 H 0.67347 0.21667 0.23297 0.0
H443 H 0.7164 0.15418 0.25226 0.0
H444 H 0.65958 0.12102 0.08787 0.0
H445 H 0.69243 0.14553 0.13161 0.0
H446 H 0.64558 0.1875 0.28484 0.0
H447 H 0.61242 0.16343 0.23823 0.0
C448 C 0.70974 0.222 0.26496 0.0
C449 C 0.73185 0.21159 0.27805 0.0
C450 C 0.69009 0.20806 0.24549 0.0
C451 C 0.69215 0.18341 0.23881 0.0
C452 C 0.71419 0.17308 0.25496 0.0
C453 C 0.73375 0.18699 0.27413 0.0
C454 C 0.65619 0.13557 0.1304 0.0
C455 C 0.63325 0.14022 0.15918 0.0
C456 C 0.67513 0.1495 0.15643 0.0
C457 C 0.67177 0.16851 0.2122 0.0
C458 C 0.64885 0.17315 0.24136 0.0
C459 C 0.62985 0.15915 0.21537 0.0
H460 H 0.67227 0.90153 0.9002 0.0
H461 H 0.60985 0.85827 0.89412 0.0
H462 H 0.6485 0.93542 0.93863 0.0
H463 H 0.58589 0.89256 0.92902 0.0
H464 H 0.55255 0.95715 0.06415 0.0
H465 H 0.57587 0.92146 0.03834 0.0
H466 H 0.62099 0.96082 0.86922 0.0
H467 H 0.59819 0.9961 0.89617 0.0
C468 C 0.65349 0.89915 0.90763 0.0
C469 C 0.64306 0.87707 0.89355 0.0
C470 C 0.63977 0.91872 0.92869 0.0
C471 C 0.61517 0.91687 0.93608 0.0
C472 C 0.60476 0.89467 0.92428 0.0
C473 C 0.61851 0.87504 0.9032 0.0
C474 C 0.56749 0.95806 1.02168 0.0
C475 C 0.57365 0.97946 0.98277 0.0
C476 C 0.5808 0.93763 1.00653 0.0
C477 C 0.60054 0.93827 0.95237 0.0
C478 C 0.60631 0.95969 0.9128 0.0
C479 C 0.59309 0.97995 0.92783 0.0
H480 H 0.61182 0.66498 0.82027 0.0
H481 H 0.65768 0.62269 0.97687 0.0
H482 H 0.64549 0.68847 0.77424 0.0
H483 H 0.69101 0.64666 0.93385 0.0
H484 H 0.75022 0.67764 0.78153 0.0
H485 H 0.71558 0.6542 0.81422 0.0
H486 H 0.67363 0.71751 0.82442 0.0
H487 H 0.70847 0.7409 0.78871 0.0
C488 C 0.62907 0.66062 0.84468 0.0
C489 C 0.63197 0.64188 0.90235 0.0
C490 C 0.64836 0.67429 0.81903 0.0
C491 C 0.67106 0.6695 0.85008 0.0
C492 C 0.6739 0.65072 0.90754 0.0
C493 C 0.65468 0.63711 0.93315 0.0
C494 C 0.73357 0.68655 0.79008 0.0
C495 C 0.7321 0.71115 0.78343 0.0
C496 C 0.7137 0.67312 0.80954 0.0
C497 C 0.69178 0.68392 0.82335 0.0
C498 C 0.69016 0.70854 0.81393 0.0
C499 C 0.71013 0.72201 0.79402 0.0
H500 H 0.61122 0.3631 0.18045 0.0
H501 H 0.67278 0.40416 0.11803 0.0
H502 H 0.58622 0.39666 0.1452 0.0
H503 H 0.64781 0.43768 0.08423 0.0
H504 H 0.59949 0.49965 0.14438 0.0
H505 H 0.62319 0.46465 0.16681 0.0
H506 H 0.57262 0.42333 1.02736 0.0
H507 H 0.5486 0.45881 1.00483 0.0
C508 C 0.61946 0.37913 0.15815 0.0
C509 C 0.64414 0.38086 0.15293 0.0
C510 C 0.60507 0.3984 0.13798 0.0
C511 C 0.61498 0.41995 0.11259 0.0
C512 C 0.63958 0.42149 0.10511 0.0
C513 C 0.65394 0.40224 0.12481 0.0
C514 C 0.59338 0.48314 0.11815 0.0
C515 C 0.57221 0.48203 0.07242 0.0
C516 C 0.60709 0.46306 0.13062 0.0
C517 C 0.59999 0.44118 0.09822 0.0
C518 C 0.57858 0.43991 0.05333 0.0
C519 C 0.56487 0.4602 0.04014 0.0
H520 H 0.92684 0.3608 0.43512 0.0
H521 H 0.88775 0.42322 0.36702 0.0
H522 H 0.89281 0.33654 0.39959 0.0
H523 H 0.85373 0.39899 0.33325 0.0
H524 H 0.79029 0.3521 0.39125 0.0
H525 H 0.82566 0.37514 0.41527 0.0
H526 H 0.86658 0.32341 0.27989 0.0
H527 H 0.83077 0.30013 0.25563 0.0
C528 C 0.91115 0.36938 0.41161 0.0
C529 C 0.91011 0.3941 0.40477 0.0
C530 C 0.8916 0.35542 0.39131 0.0
C531 C 0.87045 0.3658 0.36422 0.0
C532 C 0.8696 0.39042 0.35541 0.0
C533 C 0.88913 0.40435 0.37514 0.0
C534 C 0.80679 0.34561 0.36627 0.0
C535 C 0.8077 0.32432 0.32122 0.0
C536 C 0.82709 0.35892 0.37967 0.0
C537 C 0.84898 0.35127 0.34895 0.0
C538 C 0.85001 0.32977 0.30465 0.0
C539 C 0.82953 0.31649 0.29047 0.0
H540 H 0.92394 0.66631 0.73106 0.0
H541 H 0.86835 0.64434 0.5622 0.0
H542 H 0.94745 0.63258 0.68768 0.0
H543 H 0.89185 0.61054 0.51913 0.0
H544 H 0.92884 0.53866 0.54244 0.0
H545 H 0.90592 0.57365 0.5762 0.0
H546 H 0.96923 0.61561 0.56953 0.0
H547 H 0.9922 0.58032 0.53666 0.0
C548 C 0.91679 0.65446 0.68395 0.0
C549 C 0.89414 0.65813 0.65039 0.0
C550 C 0.93033 0.63507 0.65897 0.0
C551 C 0.92161 0.61875 0.59984 0.0
C552 C 0.89904 0.62251 0.56576 0.0
C553 C 0.88551 0.64192 0.59064 0.0
C554 C 0.93784 0.5554 0.54756 0.0
C555 C 0.96233 0.55674 0.53718 0.0
C556 C 0.92468 0.57551 0.56655 0.0
C557 C 0.93567 0.59754 0.57584 0.0
C558 C 0.96019 0.59892 0.56399 0.0
C559 C 0.97336 0.57875 0.54465 0.0
H560 H 0.33135 0.29747 0.26598 0.0
H561 H 0.29012 0.36115 0.26885 0.0
H562 H 0.36679 0.32059 0.23672 0.0
H563 H 0.32527 0.38424 0.23857 0.0
H564 H 0.39603 0.42135 0.25537 0.0
H565 H 0.36226 0.39751 0.29685 0.0
H566 H 0.38381 0.34345 0.12124 0.0
H567 H 0.41748 0.36728 0.07951 0.0
C568 C 0.32991 0.31641 0.26078 0.0
C569 C 0.30799 0.3275 0.26955 0.0
C570 C 0.35017 0.32967 0.24347 0.0
C571 C 0.34895 0.35434 0.23495 0.0
C572 C 0.327 0.36536 0.24568 0.0
C573 C 0.3068 0.35211 0.26267 0.0
C574 C 0.39352 0.40444 0.22518 0.0
C575 C 0.40956 0.39634 0.16384 0.0
C576 C 0.37413 0.39073 0.24911 0.0
C577 C 0.37022 0.3685 0.21244 0.0
C578 C 0.38642 0.36027 0.15192 0.0
C579 C 0.40578 0.374 0.12791 0.0
H580 H 0.48948 0.58251 1.02167 0.0
H581 H 0.42643 0.5404 1.02823 0.0
H582 H 0.46594 0.61741 0.98795 0.0
H583 H 0.40286 0.57513 0.99655 0.0
H584 H 0.37163 0.63413 0.8359 0.0
H585 H 0.39546 0.60049 0.87743 0.0
H586 H 0.43671 0.64511 0.04143 0.0
H587 H 0.41329 0.67906 0.99736 0.0
C588 C 0.47057 0.58079 1.01688 0.0
C589 C 0.4598 0.55872 1.02706 0.0
C590 C 0.45704 0.60079 0.9979 0.0
C591 C 0.43245 0.59911 0.98865 0.0
C592 C 0.42175 0.57706 1.00144 0.0
C593 C 0.43524 0.55715 1.02029 0.0
C594 C 0.38588 0.63686 0.88032 0.0
C595 C 0.39052 0.65941 0.91297 0.0
C596 C 0.39941 0.61746 0.90502 0.0
C597 C 0.41802 0.61997 0.96319 0.0
C598 C 0.42267 0.64251 0.99604 0.0
C599 C 0.40905 0.66195 0.97146 0.0
H600 H 0.24897 0.67975 0.79402 0.0
H601 H 0.20628 0.74219 0.77323 0.0
H602 H 0.21498 0.65541 0.76109 0.0
H603 H 0.1721 0.71784 0.73776 0.0
H604 H 0.11113 0.66433 0.74063 0.0
H605 H 0.14398 0.68866 0.7885 0.0
H606 H 0.19167 0.64656 0.6391 0.0
H607 H 0.15913 0.62183 0.59418 0.0
C608 C 0.23223 0.68828 0.78269 0.0
C609 C 0.23032 0.71289 0.78563 0.0
C610 C 0.21275 0.67432 0.76309 0.0
C611 C 0.19078 0.6846 0.74543 0.0
C612 C 0.18868 0.70927 0.75135 0.0
C613 C 0.20826 0.72326 0.77132 0.0
C614 C 0.12867 0.66009 0.7189 0.0
C615 C 0.13241 0.64105 0.66345 0.0
C616 C 0.14749 0.67423 0.7456 0.0
C617 C 0.17056 0.66962 0.71793 0.0
C618 C 0.17425 0.65051 0.66282 0.0
C619 C 0.15549 0.63645 0.6361 0.0
H620 H 0.11086 0.35824 0.4012 0.0
H621 H 0.17285 0.40211 0.4057 0.0
H622 H 0.08655 0.39241 0.43447 0.0
H623 H 0.14875 0.4359 0.44258 0.0
H624 H 0.09799 0.49599 0.39709 0.0
H625 H 0.12109 0.46082 0.37191 0.0
H626 H 0.07608 0.42163 0.54191 0.0
H627 H 0.05244 0.45721 0.5659 0.0
C628 C 0.11935 0.37512 0.40964 0.0
C629 C 0.14389 0.37734 0.39995 0.0
C630 C 0.1054 0.39469 0.42978 0.0
C631 C 0.11559 0.41703 0.44061 0.0
C632 C 0.14018 0.41909 0.43334 0.0
C633 C 0.1541 0.39957 0.4132 0.0
C634 C 0.09297 0.4799 0.42931 0.0
C635 C 0.07348 0.47944 0.48401 0.0
C636 C 0.10637 0.4597 0.41531 0.0
C637 C 0.10074 0.43836 0.4557 0.0
C638 C 0.08092 0.43774 0.50952 0.0
C639 C 0.06743 0.45811 0.52361 0.0
H640 H 1.01738 0.06022 0.81729 0.0
H641 H 1.01897 0.98423 0.81219 0.0
H642 H 1.01828 0.05925 0.97195 0.0
H643 H 0.02083 0.98325 0.96593 0.0
H644 H 1.00009 0.98828 0.24383 0.0
H645 H 0.99857 0.9894 0.08956 0.0
H646 H 0.04289 0.0512 0.08923 0.0
H647 H 0.04359 0.05059 0.24349 0.0
C648 C 1.01806 0.04332 0.84909 0.0
C649 C 1.01799 0.02233 0.80225 0.0
C650 C 1.01874 0.04274 0.93788 0.0
C651 C 0.01964 0.02116 0.98188 0.0
C652 C 0.01969 1.0002 0.93468 0.0
C653 C 1.01874 1.00077 0.84617 0.0
C654 C 1.00961 1.00203 0.21081 0.0
C655 C 0.02193 1.01935 0.25611 0.0
C656 C 1.00882 1.00265 0.12213 0.0
C657 C 0.02057 0.02044 0.07646 0.0
C658 C 0.03322 0.03752 0.12199 0.0
C659 C 0.03379 0.03705 0.21064 0.0
H660 H 0.29917 0.75108 0.50495 0.0
H661 H 0.2382 0.79646 0.50484 0.0
H662 H 0.29754 0.74893 0.35119 0.0
H663 H 0.23705 0.79492 0.35039 0.0
H664 H 0.22777 0.76776 0.07885 0.0
H665 H 0.22848 0.76913 0.23375 0.0
H666 H 0.30439 0.77203 0.22845 0.0
H667 H 0.30372 0.76988 0.07498 0.0
C668 C 0.28558 0.76086 0.47213 0.0
C669 C 0.26887 0.77401 0.51741 0.0
C670 C 0.28468 0.75968 0.38371 0.0
C671 C 0.26718 0.77178 0.33813 0.0
C672 C 0.25055 0.78508 0.3834 0.0
C673 C 0.25134 0.78613 0.47202 0.0
C674 C 0.24459 0.76857 0.11091 0.0
C675 C 0.26567 0.76859 0.06442 0.0
C676 C 0.24501 0.76952 0.19969 0.0
C677 C 0.26651 0.77066 0.24378 0.0
C678 C 0.28752 0.77073 0.19695 0.0
C679 C 0.28712 0.7696 0.1086 0.0
H680 H 0.5149 0.05917 0.73804 0.0
H681 H 0.51839 0.98321 0.74161 0.0
H682 H 0.51611 0.0586 0.58304 0.0
H683 H 0.52042 0.98269 0.58819 0.0
H684 H 0.49983 0.98726 0.31203 0.0
H685 H 0.49739 0.989 0.4657 0.0
H686 H 0.54178 0.05072 0.46569 0.0
H687 H 0.54356 0.04946 0.31126 0.0
C688 C 0.51596 0.04238 0.7059 0.0
C689 C 0.51641 0.02125 0.75236 0.0
C690 C 0.51683 0.04205 0.61706 0.0
C691 C 0.51832 0.02059 0.57286 0.0
C692 C 0.51881 0.99953 0.61969 0.0
C693 C 0.51776 0.99985 0.70807 0.0
C694 C 0.50919 1.00115 0.34466 0.0
C695 C 0.52198 1.01815 0.29914 0.0
C696 C 0.50784 1.00212 0.43305 0.0
C697 C 0.51944 0.01997 0.47844 0.0
C698 C 0.53234 0.03693 0.43289 0.0
C699 C 0.53352 0.03607 0.34427 0.0
H700 H 0.23885 0.29072 0.98864 0.0
H701 H 0.30103 0.24703 0.98951 0.0
H702 H 0.24046 0.29289 0.83478 0.0
H703 H 0.30217 0.24853 0.83508 0.0
H704 H 0.31045 0.27483 0.56199 0.0
H705 H 0.30995 0.274 0.71697 0.0
H706 H 0.2341 0.26955 0.71307 0.0
H707 H 0.23456 0.27121 0.55951 0.0
C708 C 0.25272 0.28134 0.95601 0.0
C709 C 0.26975 0.26863 1.00157 0.0
C710 C 0.25361 0.28252 0.86754 0.0
C711 C 0.27142 0.27084 0.82221 0.0
C712 C 0.28841 0.25805 0.86783 0.0
C713 C 0.28764 0.25703 0.95646 0.0
C714 C 0.29369 0.2738 0.59438 0.0
C715 C 0.27257 0.27321 0.54824 0.0
C716 C 0.29339 0.27316 0.68323 0.0
C717 C 0.27197 0.27175 0.72776 0.0
C718 C 0.25091 0.27111 0.68126 0.0
C719 C 0.25119 0.27194 0.59283 0.0
H720 H 0.73833 0.29374 0.99718 0.0
H721 H 0.80021 0.24962 0.9973 0.0
H722 H 0.73719 0.29217 0.84278 0.0
H723 H 0.79859 0.24739 0.8435 0.0
H724 H 0.8045 0.26879 0.56756 0.0
H725 H 0.80504 0.27062 0.72106 0.0
H726 H 0.72919 0.26652 0.72564 0.0
H727 H 0.7286 0.26551 0.57069 0.0
C728 C 0.75166 0.28365 0.96436 0.0
C729 C 0.76946 0.27193 1.00973 0.0
C730 C 0.75088 0.28259 0.87575 0.0
C731 C 0.76778 0.26964 0.83045 0.0
C732 C 0.78552 0.25787 0.87603 0.0
C733 C 0.78641 0.2591 0.96446 0.0
C734 C 0.78788 0.26818 0.60101 0.0
C735 C 0.76648 0.26696 0.55661 0.0
C736 C 0.78822 0.26911 0.6894 0.0
C737 C 0.76718 0.26862 0.73606 0.0
C738 C 0.74573 0.26725 0.69174 0.0
C739 C 0.74538 0.2665 0.60292 0.0
H740 H 0.80651 0.76911 0.48791 0.0
H741 H 0.7306 0.76667 0.48259 0.0
H742 H 0.80742 0.77081 0.33416 0.0
H743 H 0.73152 0.76742 0.32788 0.0
H744 H 0.73997 0.79276 0.05595 0.0
H745 H 0.73933 0.79209 0.21019 0.0
H746 H 0.80146 0.74828 0.21105 0.0
H747 H 0.80259 0.74975 0.05673 0.0
C748 C 0.78997 0.76866 0.45388 0.0
C749 C 0.76846 0.76771 0.49773 0.0
C750 C 0.79051 0.76951 0.36538 0.0
C751 C 0.76956 0.76918 0.3181 0.0
C752 C 0.74801 0.7681 0.36203 0.0
C753 C 0.74747 0.76751 0.45082 0.0
C754 C 0.75357 0.78306 0.08905 0.0
C755 C 0.77137 0.77134 0.04391 0.0
C756 C 0.75309 0.78252 0.17768 0.0
C757 C 0.77026 0.77002 0.22353 0.0
C758 C 0.78814 0.75839 0.1782 0.0
C759 C 0.78877 0.75917 0.08951 0.0
H760 H 0.49717 0.48975 0.74802 0.0
H761 H 0.54098 0.5519 0.74803 0.0
H762 H 0.49487 0.49147 0.59423 0.0
H763 H 0.53933 0.55314 0.5936 0.0
H764 H 0.51278 0.56162 0.32093 0.0
H765 H 0.51377 0.56105 0.47595 0.0
H766 H 0.51806 0.48513 0.47211 0.0
H767 H 0.51625 0.48565 0.31864 0.0
C768 C 0.50656 0.50363 0.7152 0.0
C769 C 0.51934 0.52062 0.76051 0.0
C770 C 0.5053 0.50459 0.62677 0.0
C771 C 0.51696 0.52242 0.5812 0.0
C772 C 0.52983 0.53937 0.62655 0.0
C773 C 0.53094 0.53853 0.71517 0.0
C774 C 0.5138 0.54483 0.35336 0.0
C775 C 0.5143 0.5237 0.30727 0.0
C776 C 0.51453 0.54449 0.44221 0.0
C777 C 0.51595 0.52303 0.48677 0.0
C778 C 0.5165 0.50197 0.44031 0.0
C779 C 0.51558 0.50229 0.35191 0.0
H780 H 0.99994 0.48718 0.81304 0.0
H781 H 0.04374 0.54932 0.81179 0.0
H782 H 0.99753 0.489 0.96673 0.0
H783 H 0.042 0.55067 0.96619 0.0
H784 H 1.01505 0.55941 0.23837 0.0
H785 H 1.01633 0.5587 0.08338 0.0
H786 H 0.0205 0.48279 0.08944 0.0
H787 H 1.0184 0.48345 0.24283 0.0
C788 C 1.00933 0.50107 0.84556 0.0
C789 C 0.02212 0.51804 0.7999 0.0
C790 C 1.008 0.50209 0.93397 0.0
C791 C 0.01961 0.51996 0.97921 0.0
C792 C 0.03253 0.53687 0.93352 0.0
C793 C 0.03371 0.53596 0.84491 0.0
C794 C 1.0161 0.54259 0.20643 0.0
C795 C 1.01648 0.52151 0.25314 0.0
C796 C 1.01701 0.54218 0.11758 0.0
C797 C 1.01848 0.52067 0.07364 0.0
C798 C 1.01891 0.49965 0.12073 0.0
C799 C 1.01781 0.50006 0.2091 0.0
loop_
_geom_bond_atom_site_label_1
_geom_bond_atom_site_label_2
_geom_bond_distance
_geom_bond_site_symmetry_2
_ccdc_geom_bond_type
Nd0 C2 2.836 . S
Nd0 O20 2.500 . S
Nd0 O21 2.492 . S
Nd0 O22 2.487 1_545 S
Nd0 O23 2.682 1_545 S
Nd0 O24 2.410 . S
Nd0 O29 2.414 1_455 S
Nd0 O31 2.424 . S
Nd1 C11 2.836 . S
Nd1 O23 2.414 1_655 S
Nd1 O25 2.424 . S
Nd1 O26 2.500 . S
Nd1 O27 2.492 . S
Nd1 O28 2.487 1_565 S
Nd1 O29 2.682 1_565 S
Nd1 O30 2.410 . S
C2 Nd0 2.836 . S
C2 C3 1.498 . S
C2 O20 1.258 . S
C2 O21 1.239 . S
C3 C2 1.498 . S
C3 C4 1.366 . S
C3 C8 1.407 . S
C4 C3 1.366 . S
C4 C5 1.392 . S
C4 H32 0.930 . S
C5 C4 1.392 . S
C5 C6 1.398 . S
C5 H33 0.929 . S
C6 C5 1.398 . S
C6 C7 1.352 . S
C7 C6 1.352 . S
C7 C8 1.384 . S
C7 H34 0.930 . S
C8 C3 1.407 . S
C8 C7 1.384 . S
C8 H35 0.929 . S
C9 O22 1.241 . S
C9 O23 1.273 . S
C10 O24 1.251 . S
C10 O25 1.268 1_445 S
C11 Nd1 2.836 . S
C11 C12 1.498 . S
C11 O26 1.258 . S
C11 O27 1.239 . S
C12 C11 1.498 . S
C12 C13 1.366 . S
C12 C17 1.407 . S
C13 C12 1.366 . S
C13 C14 1.392 . S
C13 H36 0.930 . S
C14 C13 1.392 . S
C14 C15 1.398 . S
C14 H37 0.929 . S
C15 C14 1.398 . S
C15 C16 1.352 . S
C16 C15 1.352 . S
C16 C17 1.384 . S
C16 H38 0.930 . S
C17 C12 1.407 . S
C17 C16 1.384 . S
C17 H39 0.929 . S
C18 O28 1.241 . S
C18 O29 1.273 . S
C19 O30 1.251 . S
C19 O31 1.268 1_665 S
O20 Nd0 2.500 . S
O20 C2 1.258 . S
O21 Nd0 2.492 . S
O21 C2 1.239 . S
O22 Nd0 2.487 1_565 S
O22 C9 1.241 . S
O23 Nd0 2.682 1_565 S
O23 Nd1 2.414 1_455 S
O23 C9 1.273 . S
O24 Nd0 2.410 . S
O24 C10 1.251 . S
O25 Nd1 2.424 . S
O25 C10 1.268 1_665 S
O26 Nd1 2.500 . S
O26 C11 1.258 . S
O27 Nd1 2.492 . S
O27 C11 1.239 . S
O28 Nd1 2.487 1_545 S
O28 C18 1.241 . S
O29 Nd0 2.414 1_655 S
O29 Nd1 2.682 1_545 S
O29 C18 1.273 . S
O30 Nd1 2.410 . S
O30 C19 1.251 . S
O31 Nd0 2.424 . S
O31 C19 1.268 1_445 S
H32 C4 0.930 . S
H33 C5 0.929 . S
H34 C7 0.930 . S
H35 C8 0.929 . S
H36 C13 0.930 . S
H37 C14 0.929 . S
H38 C16 0.930 . S
H39 C17 0.929 . S
Nd40 C42 2.836 . S
Nd40 O60 2.500 . S
Nd40 O61 2.492 . S
Nd40 O62 2.487 . S
Nd40 O63 2.682 . S
Nd40 O64 2.410 . S
Nd40 O69 2.414 . S
Nd40 O71 2.424 . S
Nd41 C51 2.836 . S
Nd41 O63 2.414 . S
Nd41 O65 2.424 . S
Nd41 O66 2.500 . S
Nd41 O67 2.492 . S
Nd41 O68 2.487 . S
Nd41 O69 2.682 . S
Nd41 O70 2.410 . S
C42 Nd40 2.836 . S
C42 C43 1.498 . S
C42 O60 1.258 . S
C42 O61 1.239 . S
C43 C42 1.498 . S
C43 C44 1.366 . S
C43 C48 1.407 . S
C44 C43 1.366 . S
C44 C45 1.392 . S
C44 H72 0.930 . S
C45 C44 1.392 . S
C45 C46 1.398 . S
C45 H73 0.929 . S
C46 C45 1.398 . S
C46 C47 1.352 . S
C47 C46 1.352 . S
C47 C48 1.384 . S
C47 H74 0.930 . S
C48 C43 1.407 . S
C48 C47 1.384 . S
C48 H75 0.929 . S
C49 O62 1.241 . S
C49 O63 1.273 . S
C50 O64 1.251 . S
C50 O65 1.268 . S
C51 Nd41 2.836 . S
C51 C52 1.498 . S
C51 O66 1.258 . S
C51 O67 1.239 . S
C52 C51 1.498 . S
C52 C53 1.366 . S
C52 C57 1.407 . S
C53 C52 1.366 . S
C53 C54 1.392 . S
C53 H76 0.930 . S
C54 C53 1.392 . S
C54 C55 1.398 . S
C54 H77 0.939 . S
C55 C54 1.398 . S
C55 C56 1.352 . S
C56 C55 1.352 . S
C56 C57 1.384 . S
C56 H78 0.930 . S
C57 C52 1.407 . S
C57 C56 1.384 . S
C57 H79 0.929 . S
C58 O68 1.241 . S
C58 O69 1.273 . S
C59 O70 1.251 . S
C59 O71 1.268 . S
O60 Nd40 2.500 . S
O60 C42 1.258 . S
O61 Nd40 2.492 . S
O61 C42 1.239 . S
O62 Nd40 2.487 . S
O62 C49 1.241 . S
O63 Nd40 2.682 . S
O63 Nd41 2.414 . S
O63 C49 1.273 . S
O64 Nd40 2.410 . S
O64 C50 1.251 . S
O65 Nd41 2.424 . S
O65 C50 1.268 . S
O66 Nd41 2.500 . S
O66 C51 1.258 . S
O67 Nd41 2.492 . S
O67 C51 1.239 . S
O68 Nd41 2.487 . S
O68 C58 1.241 . S
O69 Nd40 2.414 . S
O69 Nd41 2.682 . S
O69 C58 1.273 . S
O70 Nd41 2.410 . S
O70 C59 1.251 . S
O71 Nd40 2.424 . S
O71 C59 1.268 . S
H72 C44 0.930 . S
H73 C45 0.929 . S
H74 C47 0.930 . S
H75 C48 0.929 . S
H76 C53 0.930 . S
H77 C54 0.939 . S
H78 C56 0.930 . S
H79 C57 0.929 . S
Nd80 C82 2.836 1_554 S
Nd80 O100 2.500 1_554 S
Nd80 O101 2.492 1_554 S
Nd80 O102 2.487 1_565 S
Nd80 O103 2.682 1_565 S
Nd80 O104 2.410 1_554 S
Nd80 O109 2.414 1_554 S
Nd80 O111 2.424 . S
Nd81 C91 2.836 1_556 S
Nd81 O103 2.414 1_556 S
Nd81 O105 2.424 . S
Nd81 O106 2.500 1_556 S
Nd81 O107 2.492 1_556 S
Nd81 O108 2.487 1_545 S
Nd81 O109 2.682 1_545 S
Nd81 O110 2.410 1_556 S
C82 Nd80 2.836 1_556 S
C82 C83 1.498 . S
C82 O100 1.258 . S
C82 O101 1.239 . S
C83 C82 1.498 . S
C83 C84 1.366 . S
C83 C88 1.407 . S
C84 C83 1.366 . S
C84 C85 1.392 . S
C84 H112 0.930 . S
C85 C84 1.392 . S
C85 C86 1.398 . S
C85 H113 0.929 . S
C86 C85 1.398 . S
C86 C87 1.352 . S
C87 C86 1.352 . S
C87 C88 1.384 . S
C87 H114 0.930 . S
C88 C83 1.407 . S
C88 C87 1.384 . S
C88 H115 0.929 . S
C89 O102 1.241 . S
C89 O103 1.273 . S
C90 O104 1.251 . S
C90 O105 1.268 1_565 S
C91 Nd81 2.836 1_554 S
C91 C92 1.498 . S
C91 O106 1.258 . S
C91 O107 1.239 . S
C92 C91 1.498 . S
C92 C93 1.366 . S
C92 C97 1.407 . S
C93 C92 1.366 . S
C93 C94 1.392 . S
C93 H116 0.930 . S
C94 C93 1.392 . S
C94 C95 1.398 . S
C94 H117 0.929 . S
C95 C94 1.398 . S
C95 C96 1.352 . S
C96 C95 1.352 . S
C96 C97 1.384 . S
C96 H118 0.930 . S
C97 C92 1.407 . S
C97 C96 1.384 . S
C97 H119 0.929 . S
C98 O108 1.241 . S
C98 O109 1.273 . S
C99 O110 1.251 . S
C99 O111 1.268 1_545 S
O100 Nd80 2.500 1_556 S
O100 C82 1.258 . S
O101 Nd80 2.492 1_556 S
O101 C82 1.239 . S
O102 Nd80 2.487 1_545 S
O102 C89 1.241 . S
O103 Nd80 2.682 1_545 S
O103 Nd81 2.414 1_554 S
O103 C89 1.273 . S
O104 Nd80 2.410 1_556 S
O104 C90 1.251 . S
O105 Nd81 2.424 . S
O105 C90 1.268 1_545 S
O106 Nd81 2.500 1_554 S
O106 C91 1.258 . S
O107 Nd81 2.492 1_554 S
O107 C91 1.239 . S
O108 Nd81 2.487 1_565 S
O108 C98 1.241 . S
O109 Nd80 2.414 1_556 S
O109 Nd81 2.682 1_565 S
O109 C98 1.273 . S
O110 Nd81 2.410 1_554 S
O110 C99 1.251 . S
O111 Nd80 2.424 . S
O111 C99 1.268 1_565 S
H112 C84 0.930 . S
H113 C85 0.929 . S
H114 C87 0.930 . S
H115 C88 0.929 . S
H116 C93 0.930 . S
H117 C94 0.929 . S
H118 C96 0.930 . S
H119 C97 0.929 . S
Nd120 C122 2.836 . S
Nd120 O140 2.500 . S
Nd120 O141 2.492 . S
Nd120 O142 2.487 . S
Nd120 O143 2.682 . S
Nd120 O144 2.410 . S
Nd120 O149 2.414 . S
Nd120 O151 2.424 . S
Nd121 C131 2.836 . S
Nd121 O143 2.414 . S
Nd121 O145 2.424 . S
Nd121 O146 2.500 . S
Nd121 O147 2.492 . S
Nd121 O148 2.487 . S
Nd121 O149 2.682 . S
Nd121 O150 2.410 . S
C122 Nd120 2.836 . S
C122 C123 1.498 . S
C122 O140 1.258 . S
C122 O141 1.239 . S
C123 C122 1.498 . S
C123 C124 1.366 . S
C123 C128 1.407 . S
C124 C123 1.366 . S
C124 C125 1.392 . S
C124 H152 0.930 . S
C125 C124 1.392 . S
C125 C126 1.398 . S
C125 H153 0.939 . S
C126 C125 1.398 . S
C126 C127 1.352 . S
C127 C126 1.352 . S
C127 C128 1.384 . S
C127 H154 0.930 . S
C128 C123 1.407 . S
C128 C127 1.384 . S
C128 H155 0.929 . S
C129 O142 1.241 . S
C129 O143 1.273 . S
C130 O144 1.251 . S
C130 O145 1.268 . S
C131 Nd121 2.836 . S
C131 C132 1.498 . S
C131 O146 1.258 . S
C131 O147 1.239 . S
C132 C131 1.498 . S
C132 C133 1.366 . S
C132 C137 1.407 . S
C133 C132 1.366 . S
C133 C134 1.392 . S
C133 H156 0.930 . S
C134 C133 1.392 . S
C134 C135 1.398 . S
C134 H157 0.929 . S
C135 C134 1.398 . S
C135 C136 1.352 . S
C136 C135 1.352 . S
C136 C137 1.384 . S
C136 H158 0.930 . S
C137 C132 1.407 . S
C137 C136 1.384 . S
C137 H159 0.929 . S
C138 O148 1.241 . S
C138 O149 1.273 . S
C139 O150 1.251 . S
C139 O151 1.268 . S
O140 Nd120 2.500 . S
O140 C122 1.258 . S
O141 Nd120 2.492 . S
O141 C122 1.239 . S
O142 Nd120 2.487 . S
O142 C129 1.241 . S
O143 Nd120 2.682 . S
O143 Nd121 2.414 . S
O143 C129 1.273 . S
O144 Nd120 2.410 . S
O144 C130 1.251 . S
O145 Nd121 2.424 . S
O145 C130 1.268 . S
O146 Nd121 2.500 . S
O146 C131 1.258 . S
O147 Nd121 2.492 . S
O147 C131 1.239 . S
O148 Nd121 2.487 . S
O148 C138 1.241 . S
O149 Nd120 2.414 . S
O149 Nd121 2.682 . S
O149 C138 1.273 . S
O150 Nd121 2.410 . S
O150 C139 1.251 . S
O151 Nd120 2.424 . S
O151 C139 1.268 . S
H152 C124 0.930 . S
H153 C125 0.939 . S
H154 C127 0.930 . S
H155 C128 0.929 . S
H156 C133 0.930 . S
H157 C134 0.929 . S
H158 C136 0.930 . S
H159 C137 0.929 . S
Nd160 C162 2.836 . S
Nd160 O180 2.500 . S
Nd160 O181 2.492 . S
Nd160 O182 2.487 . S
Nd160 O183 2.682 . S
Nd160 O184 2.410 . S
Nd160 O189 2.414 . S
Nd160 O191 2.424 . S
Nd161 C171 2.836 . S
Nd161 O183 2.414 . S
Nd161 O185 2.424 . S
Nd161 O186 2.500 . S
Nd161 O187 2.492 . S
Nd161 O188 2.487 . S
Nd161 O189 2.682 . S
Nd161 O190 2.410 . S
C162 Nd160 2.836 . S
C162 C163 1.498 . S
C162 O180 1.258 . S
C162 O181 1.239 . S
C163 C162 1.498 . S
C163 C164 1.366 . S
C163 C168 1.407 . S
C164 C163 1.366 . S
C164 C165 1.392 . S
C164 H192 0.930 . S
C165 C164 1.392 . S
C165 C166 1.398 . S
C165 H193 0.939 . S
C166 C165 1.398 . S
C166 C167 1.352 . S
C167 C166 1.352 . S
C167 C168 1.384 . S
C167 H194 0.930 . S
C168 C163 1.407 . S
C168 C167 1.384 . S
C168 H195 0.929 . S
C169 O182 1.241 . S
C169 O183 1.273 . S
C170 O184 1.251 . S
C170 O185 1.268 . S
C171 Nd161 2.836 . S
C171 C172 1.498 . S
C171 O186 1.258 . S
C171 O187 1.239 . S
C172 C171 1.498 . S
C172 C173 1.366 . S
C172 C177 1.407 . S
C173 C172 1.366 . S
C173 C174 1.392 . S
C173 H196 0.930 . S
C174 C173 1.392 . S
C174 C175 1.398 . S
C174 H197 0.929 . S
C175 C174 1.398 . S
C175 C176 1.352 . S
C176 C175 1.352 . S
C176 C177 1.384 . S
C176 H198 0.930 . S
C177 C172 1.407 . S
C177 C176 1.384 . S
C177 H199 0.929 . S
C178 O188 1.241 . S
C178 O189 1.273 . S
C179 O190 1.251 . S
C179 O191 1.268 . S
O180 Nd160 2.500 . S
O180 C162 1.258 . S
O181 Nd160 2.492 . S
O181 C162 1.239 . S
O182 Nd160 2.487 . S
O182 C169 1.241 . S
O183 Nd160 2.682 . S
O183 Nd161 2.414 . S
O183 C169 1.273 . S
O184 Nd160 2.410 . S
O184 C170 1.251 . S
O185 Nd161 2.424 . S
O185 C170 1.268 . S
O186 Nd161 2.500 . S
O186 C171 1.258 . S
O187 Nd161 2.492 . S
O187 C171 1.239 . S
O188 Nd161 2.487 . S
O188 C178 1.241 . S
O189 Nd160 2.414 . S
O189 Nd161 2.682 . S
O189 C178 1.273 . S
O190 Nd161 2.410 . S
O190 C179 1.251 . S
O191 Nd160 2.424 . S
O191 C179 1.268 . S
H192 C164 0.930 . S
H193 C165 0.939 . S
H194 C167 0.930 . S
H195 C168 0.929 . S
H196 C173 0.930 . S
H197 C174 0.929 . S
H198 C176 0.930 . S
H199 C177 0.929 . S
Nd200 C202 2.836 . S
Nd200 O220 2.500 . S
Nd200 O221 2.492 . S
Nd200 O222 2.487 . S
Nd200 O223 2.682 . S
Nd200 O224 2.410 . S
Nd200 O229 2.414 . S
Nd200 O231 2.424 . S
Nd201 C211 2.836 . S
Nd201 O223 2.414 . S
Nd201 O225 2.424 . S
Nd201 O226 2.500 . S
Nd201 O227 2.492 . S
Nd201 O228 2.487 . S
Nd201 O229 2.682 . S
Nd201 O230 2.410 . S
C202 Nd200 2.836 . S
C202 C203 1.498 . S
C202 O220 1.258 . S
C202 O221 1.239 . S
C203 C202 1.498 . S
C203 C204 1.366 . S
C203 C208 1.407 . S
C204 C203 1.366 . S
C204 C205 1.392 . S
C204 H232 0.930 . S
C205 C204 1.392 . S
C205 C206 1.398 . S
C205 H233 0.929 . S
C206 C205 1.398 . S
C206 C207 1.352 . S
C207 C206 1.352 . S
C207 C208 1.384 . S
C207 H234 0.930 . S
C208 C203 1.407 . S
C208 C207 1.384 . S
C208 H235 0.929 . S
C209 O222 1.241 . S
C209 O223 1.273 . S
C210 O224 1.251 . S
C210 O225 1.268 . S
C211 Nd201 2.836 . S
C211 C212 1.498 . S
C211 O226 1.258 . S
C211 O227 1.239 . S
C212 C211 1.498 . S
C212 C213 1.366 . S
C212 C217 1.407 . S
C213 C212 1.366 . S
C213 C214 1.392 . S
C213 H236 0.930 . S
C214 C213 1.392 . S
C214 C215 1.398 . S
C214 H237 0.939 . S
C215 C214 1.398 . S
C215 C216 1.352 . S
C216 C215 1.352 . S
C216 C217 1.384 . S
C216 H238 0.930 . S
C217 C212 1.407 . S
C217 C216 1.384 . S
C217 H239 0.929 . S
C218 O228 1.241 . S
C218 O229 1.273 . S
C219 O230 1.251 . S
C219 O231 1.268 . S
O220 Nd200 2.500 . S
O220 C202 1.258 . S
O221 Nd200 2.492 . S
O221 C202 1.239 . S
O222 Nd200 2.487 . S
O222 C209 1.241 . S
O223 Nd200 2.682 . S
O223 Nd201 2.414 . S
O223 C209 1.273 . S
O224 Nd200 2.410 . S
O224 C210 1.251 . S
O225 Nd201 2.424 . S
O225 C210 1.268 . S
O226 Nd201 2.500 . S
O226 C211 1.258 . S
O227 Nd201 2.492 . S
O227 C211 1.239 . S
O228 Nd201 2.487 . S
O228 C218 1.241 . S
O229 Nd200 2.414 . S
O229 Nd201 2.682 . S
O229 C218 1.273 . S
O230 Nd201 2.410 . S
O230 C219 1.251 . S
O231 Nd200 2.424 . S
O231 C219 1.268 . S
H232 C204 0.930 . S
H233 C205 0.929 . S
H234 C207 0.930 . S
H235 C208 0.929 . S
H236 C213 0.930 . S
H237 C214 0.939 . S
H238 C216 0.930 . S
H239 C217 0.929 . S
Nd240 C242 2.836 1_554 S
Nd240 O260 2.500 1_554 S
Nd240 O261 2.492 1_554 S
Nd240 O262 2.487 . S
Nd240 O263 2.682 . S
Nd240 O264 2.410 1_554 S
Nd240 O269 2.414 1_554 S
Nd240 O271 2.424 . S
Nd241 C251 2.836 1_556 S
Nd241 O263 2.414 1_556 S
Nd241 O265 2.424 . S
Nd241 O266 2.500 1_556 S
Nd241 O267 2.492 1_556 S
Nd241 O268 2.487 . S
Nd241 O269 2.682 . S
Nd241 O270 2.410 1_556 S
C242 Nd240 2.836 1_556 S
C242 C243 1.498 . S
C242 O260 1.258 . S
C242 O261 1.239 . S
C243 C242 1.498 . S
C243 C244 1.366 . S
C243 C248 1.407 . S
C244 C243 1.366 . S
C244 C245 1.392 . S
C244 H272 0.930 . S
C245 C244 1.392 . S
C245 C246 1.398 . S
C245 H273 0.929 . S
C246 C245 1.398 . S
C246 C247 1.352 . S
C247 C246 1.352 . S
C247 C248 1.384 . S
C247 H274 0.930 . S
C248 C243 1.407 . S
C248 C247 1.384 . S
C248 H275 0.929 . S
C249 O262 1.241 . S
C249 O263 1.273 . S
C250 O264 1.251 . S
C250 O265 1.268 . S
C251 Nd241 2.836 1_554 S
C251 C252 1.498 . S
C251 O266 1.258 . S
C251 O267 1.239 . S
C252 C251 1.498 . S
C252 C253 1.366 . S
C252 C257 1.407 . S
C253 C252 1.366 . S
C253 C254 1.392 . S
C253 H276 0.930 . S
C254 C253 1.392 . S
C254 C255 1.398 . S
C254 H277 0.929 . S
C255 C254 1.398 . S
C255 C256 1.352 . S
C256 C255 1.352 . S
C256 C257 1.384 . S
C256 H278 0.930 . S
C257 C252 1.407 . S
C257 C256 1.384 . S
C257 H279 0.929 . S
C258 O268 1.241 . S
C258 O269 1.273 . S
C259 O270 1.251 . S
C259 O271 1.268 . S
O260 Nd240 2.500 1_556 S
O260 C242 1.258 . S
O261 Nd240 2.492 1_556 S
O261 C242 1.239 . S
O262 Nd240 2.487 . S
O262 C249 1.241 . S
O263 Nd240 2.682 . S
O263 Nd241 2.414 1_554 S
O263 C249 1.273 . S
O264 Nd240 2.410 1_556 S
O264 C250 1.251 . S
O265 Nd241 2.424 . S
O265 C250 1.268 . S
O266 Nd241 2.500 1_554 S
O266 C251 1.258 . S
O267 Nd241 2.492 1_554 S
O267 C251 1.239 . S
O268 Nd241 2.487 . S
O268 C258 1.241 . S
O269 Nd240 2.414 1_556 S
O269 Nd241 2.682 . S
O269 C258 1.273 . S
O270 Nd241 2.410 1_554 S
O270 C259 1.251 . S
O271 Nd240 2.424 . S
O271 C259 1.268 . S
H272 C244 0.930 . S
H273 C245 0.929 . S
H274 C247 0.930 . S
H275 C248 0.929 . S
H276 C253 0.930 . S
H277 C254 0.929 . S
H278 C256 0.930 . S
H279 C257 0.929 . S
Nd280 C282 2.836 . S
Nd280 O300 2.500 . S
Nd280 O301 2.492 . S
Nd280 O302 2.487 . S
Nd280 O303 2.682 . S
Nd280 O304 2.410 . S
Nd280 O309 2.414 1_655 S
Nd280 O311 2.424 . S
Nd281 C291 2.836 . S
Nd281 O303 2.414 1_455 S
Nd281 O305 2.424 . S
Nd281 O306 2.500 . S
Nd281 O307 2.492 . S
Nd281 O308 2.487 . S
Nd281 O309 2.682 . S
Nd281 O310 2.410 . S
C282 Nd280 2.836 . S
C282 C283 1.498 . S
C282 O300 1.258 . S
C282 O301 1.239 . S
C283 C282 1.498 . S
C283 C284 1.366 . S
C283 C288 1.407 . S
C284 C283 1.366 . S
C284 C285 1.392 . S
C284 H312 0.930 . S
C285 C284 1.392 . S
C285 C286 1.398 . S
C285 H313 0.929 . S
C286 C285 1.398 . S
C286 C287 1.352 . S
C287 C286 1.352 . S
C287 C288 1.384 . S
C287 H314 0.930 . S
C288 C283 1.407 . S
C288 C287 1.384 . S
C288 H315 0.929 . S
C289 O302 1.241 . S
C289 O303 1.273 . S
C290 O304 1.251 . S
C290 O305 1.268 1_655 S
C291 Nd281 2.836 . S
C291 C292 1.498 . S
C291 O306 1.258 . S
C291 O307 1.239 . S
C292 C291 1.498 . S
C292 C293 1.366 . S
C292 C297 1.407 . S
C293 C292 1.366 . S
C293 C294 1.392 . S
C293 H316 0.930 . S
C294 C293 1.392 . S
C294 C295 1.398 . S
C294 H317 0.929 . S
C295 C294 1.398 . S
C295 C296 1.352 . S
C296 C295 1.352 . S
C296 C297 1.384 . S
C296 H318 0.930 . S
C297 C292 1.407 . S
C297 C296 1.384 . S
C297 H319 0.929 . S
C298 O308 1.241 . S
C298 O309 1.273 . S
C299 O310 1.251 . S
C299 O311 1.268 1_455 S
O300 Nd280 2.500 . S
O300 C282 1.258 . S
O301 Nd280 2.492 . S
O301 C282 1.239 . S
O302 Nd280 2.487 . S
O302 C289 1.241 . S
O303 Nd280 2.682 . S
O303 Nd281 2.414 1_655 S
O303 C289 1.273 . S
O304 Nd280 2.410 . S
O304 C290 1.251 . S
O305 Nd281 2.424 . S
O305 C290 1.268 1_455 S
O306 Nd281 2.500 . S
O306 C291 1.258 . S
O307 Nd281 2.492 . S
O307 C291 1.239 . S
O308 Nd281 2.487 . S
O308 C298 1.241 . S
O309 Nd280 2.414 1_455 S
O309 Nd281 2.682 . S
O309 C298 1.273 . S
O310 Nd281 2.410 . S
O310 C299 1.251 . S
O311 Nd280 2.424 . S
O311 C299 1.268 1_655 S
H312 C284 0.930 . S
H313 C285 0.929 . S
H314 C287 0.930 . S
H315 C288 0.929 . S
H316 C293 0.930 . S
H317 C294 0.929 . S
H318 C296 0.930 . S
H319 C297 0.929 . S
H320 C328 0.950 . S
H321 C333 0.950 . S
H322 C330 0.950 . S
H323 C332 0.950 . S
H324 C334 0.950 . S
H325 C336 0.950 . S
H326 C338 0.950 . S
H327 C339 0.950 . S
C328 H320 0.950 . S
C328 C329 1.386 . S
C328 C330 1.391 . S
C329 C328 1.386 . S
C329 C333 1.393 . S
C330 H322 0.950 . S
C330 C328 1.391 . S
C330 C331 1.400 . S
C331 C330 1.400 . S
C331 C332 1.398 . S
C331 C337 1.491 . S
C332 H323 0.950 . S
C332 C331 1.398 . S
C332 C333 1.391 . S
C333 H321 0.950 . S
C333 C329 1.393 . S
C333 C332 1.391 . S
C334 H324 0.950 . S
C334 C335 1.386 . S
C334 C336 1.391 . S
C335 C334 1.386 . S
C335 C339 1.393 . S
C336 H325 0.950 . S
C336 C334 1.391 . S
C336 C337 1.400 . S
C337 C331 1.491 . S
C337 C336 1.400 . S
C337 C338 1.398 . S
C338 H326 0.950 . S
C338 C337 1.398 . S
C338 C339 1.391 . S
C339 H327 0.950 . S
C339 C335 1.393 . S
C339 C338 1.391 . S
H340 C348 0.950 . S
H341 C353 0.950 . S
H342 C350 0.950 . S
H343 C352 0.950 . S
H344 C354 0.950 . S
H345 C356 0.950 . S
H346 C358 0.950 . S
H347 C359 0.950 . S
C348 H340 0.950 . S
C348 C349 1.386 . S
C348 C350 1.391 . S
C349 C348 1.386 . S
C349 C353 1.393 . S
C350 H342 0.950 . S
C350 C348 1.391 . S
C350 C351 1.400 . S
C351 C350 1.400 . S
C351 C352 1.398 . S
C351 C357 1.491 . S
C352 H343 0.950 . S
C352 C351 1.398 . S
C352 C353 1.391 . S
C353 H341 0.950 . S
C353 C349 1.393 . S
C353 C352 1.391 . S
C354 H344 0.950 . S
C354 C355 1.386 . S
C354 C356 1.391 . S
C355 C354 1.386 . S
C355 C359 1.393 . S
C356 H345 0.950 . S
C356 C354 1.391 . S
C356 C357 1.400 . S
C357 C351 1.491 . S
C357 C356 1.400 . S
C357 C358 1.398 . S
C358 H346 0.950 . S
C358 C357 1.398 . S
C358 C359 1.391 . S
C359 H347 0.950 . S
C359 C355 1.393 . S
C359 C358 1.391 . S
H360 C368 0.950 . S
H361 C373 0.950 . S
H362 C370 0.950 . S
H363 C372 0.950 . S
H364 C374 0.950 . S
H365 C376 0.950 . S
H366 C378 0.950 . S
H367 C379 0.950 . S
C368 H360 0.950 . S
C368 C369 1.386 . S
C368 C370 1.391 . S
C369 C368 1.386 . S
C369 C373 1.393 . S
C370 H362 0.950 . S
C370 C368 1.391 . S
C370 C371 1.400 . S
C371 C370 1.400 . S
C371 C372 1.398 . S
C371 C377 1.491 . S
C372 H363 0.950 . S
C372 C371 1.398 . S
C372 C373 1.391 . S
C373 H361 0.950 . S
C373 C369 1.393 . S
C373 C372 1.391 . S
C374 H364 0.950 . S
C374 C375 1.386 . S
C374 C376 1.391 . S
C375 C374 1.386 . S
C375 C379 1.393 . S
C376 H365 0.950 . S
C376 C374 1.391 . S
C376 C377 1.400 . S
C377 C371 1.491 . S
C377 C376 1.400 . S
C377 C378 1.398 . S
C378 H366 0.950 . S
C378 C377 1.398 . S
C378 C379 1.391 . S
C379 H367 0.950 . S
C379 C375 1.393 . S
C379 C378 1.391 . S
H380 C388 0.950 . S
H381 C393 0.950 . S
H382 C390 0.950 . S
H383 C392 0.950 . S
H384 C394 0.950 . S
H385 C396 0.950 . S
H386 C398 0.950 . S
H387 C399 0.950 . S
C388 H380 0.950 . S
C388 C389 1.386 1_556 S
C388 C390 1.391 . S
C389 C388 1.386 1_554 S
C389 C393 1.393 . S
C390 H382 0.950 . S
C390 C388 1.391 . S
C390 C391 1.400 1_556 S
C391 C390 1.400 1_554 S
C391 C392 1.398 . S
C391 C397 1.491 . S
C392 H383 0.950 . S
C392 C391 1.398 . S
C392 C393 1.391 . S
C393 H381 0.950 . S
C393 C389 1.393 . S
C393 C392 1.391 . S
C394 H384 0.950 . S
C394 C395 1.386 . S
C394 C396 1.391 . S
C395 C394 1.386 . S
C395 C399 1.393 1_554 S
C396 H385 0.950 . S
C396 C394 1.391 . S
C396 C397 1.400 . S
C397 C391 1.491 . S
C397 C396 1.400 . S
C397 C398 1.398 1_554 S
C398 H386 0.950 . S
C398 C397 1.398 1_556 S
C398 C399 1.391 . S
C399 H387 0.950 . S
C399 C395 1.393 1_556 S
C399 C398 1.391 . S
H400 C408 0.950 . S
H401 C413 0.950 . S
H402 C410 0.950 . S
H403 C412 0.950 . S
H404 C414 0.950 . S
H405 C416 0.950 . S
H406 C418 0.950 . S
H407 C419 0.950 . S
C408 H400 0.950 . S
C408 C409 1.386 . S
C408 C410 1.391 . S
C409 C408 1.386 . S
C409 C413 1.393 . S
C410 H402 0.950 . S
C410 C408 1.391 . S
C410 C411 1.400 . S
C411 C410 1.400 . S
C411 C412 1.398 . S
C411 C417 1.491 . S
C412 H403 0.950 . S
C412 C411 1.398 . S
C412 C413 1.391 . S
C413 H401 0.950 . S
C413 C409 1.393 . S
C413 C412 1.391 . S
C414 H404 0.950 . S
C414 C415 1.386 . S
C414 C416 1.391 . S
C415 C414 1.386 . S
C415 C419 1.393 . S
C416 H405 0.950 . S
C416 C414 1.391 . S
C416 C417 1.400 . S
C417 C411 1.491 . S
C417 C416 1.400 . S
C417 C418 1.398 . S
C418 H406 0.950 . S
C418 C417 1.398 . S
C418 C419 1.391 . S
C419 H407 0.950 . S
C419 C415 1.393 . S
C419 C418 1.391 . S
H420 C428 0.950 . S
H421 C433 0.950 . S
H422 C430 0.950 . S
H423 C432 0.950 . S
H424 C434 0.950 . S
H425 C436 0.950 . S
H426 C438 0.950 . S
H427 C439 0.950 . S
C428 H420 0.950 . S
C428 C429 1.386 . S
C428 C430 1.391 . S
C429 C428 1.386 . S
C429 C433 1.393 . S
C430 H422 0.950 . S
C430 C428 1.391 . S
C430 C431 1.400 . S
C431 C430 1.400 . S
C431 C432 1.398 . S
C431 C437 1.491 . S
C432 H423 0.950 . S
C432 C431 1.398 . S
C432 C433 1.391 . S
C433 H421 0.950 . S
C433 C429 1.393 . S
C433 C432 1.391 . S
C434 H424 0.950 . S
C434 C435 1.386 . S
C434 C436 1.391 . S
C435 C434 1.386 . S
C435 C439 1.393 . S
C436 H425 0.950 . S
C436 C434 1.391 . S
C436 C437 1.400 . S
C437 C431 1.491 . S
C437 C436 1.400 . S
C437 C438 1.398 . S
C438 H426 0.950 . S
C438 C437 1.398 . S
C438 C439 1.391 . S
C439 H427 0.950 . S
C439 C435 1.393 . S
C439 C438 1.391 . S
H440 C448 0.950 . S
H441 C453 0.950 . S
H442 C450 0.950 . S
H443 C452 0.950 . S
H444 C454 0.950 . S
H445 C456 0.950 . S
H446 C458 0.950 . S
H447 C459 0.950 . S
C448 H440 0.950 . S
C448 C449 1.386 . S
C448 C450 1.391 . S
C449 C448 1.386 . S
C449 C453 1.393 . S
C450 H442 0.950 . S
C450 C448 1.391 . S
C450 C451 1.400 . S
C451 C450 1.400 . S
C451 C452 1.398 . S
C451 C457 1.491 . S
C452 H443 0.950 . S
C452 C451 1.398 . S
C452 C453 1.391 . S
C453 H441 0.950 . S
C453 C449 1.393 . S
C453 C452 1.391 . S
C454 H444 0.950 . S
C454 C455 1.386 . S
C454 C456 1.391 . S
C455 C454 1.386 . S
C455 C459 1.393 . S
C456 H445 0.950 . S
C456 C454 1.391 . S
C456 C457 1.400 . S
C457 C451 1.491 . S
C457 C456 1.400 . S
C457 C458 1.398 . S
C458 H446 0.950 . S
C458 C457 1.398 . S
C458 C459 1.391 . S
C459 H447 0.950 . S
C459 C455 1.393 . S
C459 C458 1.391 . S
H460 C468 0.950 . S
H461 C473 0.950 . S
H462 C470 0.950 . S
H463 C472 0.950 . S
H464 C474 0.950 . S
H465 C476 0.950 . S
H466 C478 0.950 . S
H467 C479 0.950 . S
C468 H460 0.950 . S
C468 C469 1.386 . S
C468 C470 1.391 . S
C469 C468 1.386 . S
C469 C473 1.393 1_556 S
C470 H462 0.950 . S
C470 C468 1.391 . S
C470 C471 1.400 . S
C471 C470 1.400 . S
C471 C472 1.398 1_556 S
C471 C477 1.491 . S
C472 H463 0.950 . S
C472 C471 1.398 1_554 S
C472 C473 1.391 . S
C473 H461 0.950 . S
C473 C469 1.393 1_554 S
C473 C472 1.391 . S
C474 H464 0.950 . S
C474 C475 1.386 1_554 S
C474 C476 1.391 . S
C475 C474 1.386 1_556 S
C475 C479 1.393 . S
C476 H465 0.950 . S
C476 C474 1.391 . S
C476 C477 1.400 1_554 S
C477 C471 1.491 . S
C477 C476 1.400 1_556 S
C477 C478 1.398 . S
C478 H466 0.950 . S
C478 C477 1.398 . S
C478 C479 1.391 . S
C479 H467 0.950 . S
C479 C475 1.393 . S
C479 C478 1.391 . S
H480 C488 0.950 . S
H481 C493 0.950 . S
H482 C490 0.950 . S
H483 C492 0.950 . S
H484 C494 0.950 . S
H485 C496 0.950 . S
H486 C498 0.950 . S
H487 C499 0.950 . S
C488 H480 0.950 . S
C488 C489 1.386 . S
C488 C490 1.391 . S
C489 C488 1.386 . S
C489 C493 1.393 . S
C490 H482 0.950 . S
C490 C488 1.391 . S
C490 C491 1.400 . S
C491 C490 1.400 . S
C491 C492 1.398 . S
C491 C497 1.491 . S
C492 H483 0.950 . S
C492 C491 1.398 . S
C492 C493 1.391 . S
C493 H481 0.950 . S
C493 C489 1.393 . S
C493 C492 1.391 . S
C494 H484 0.950 . S
C494 C495 1.386 . S
C494 C496 1.391 . S
C495 C494 1.386 . S
C495 C499 1.393 . S
C496 H485 0.950 . S
C496 C494 1.391 . S
C496 C497 1.400 . S
C497 C491 1.491 . S
C497 C496 1.400 . S
C497 C498 1.398 . S
C498 H486 0.950 . S
C498 C497 1.398 . S
C498 C499 1.391 . S
C499 H487 0.950 . S
C499 C495 1.393 . S
C499 C498 1.391 . S
H500 C508 0.950 . S
H501 C513 0.950 . S
H502 C510 0.950 . S
H503 C512 0.950 . S
H504 C514 0.950 . S
H505 C516 0.950 . S
H506 C518 0.950 . S
H507 C519 0.950 . S
C508 H500 0.950 . S
C508 C509 1.386 1_556 S
C508 C510 1.391 . S
C509 C508 1.386 1_554 S
C509 C513 1.393 . S
C510 H502 0.950 . S
C510 C508 1.391 . S
C510 C511 1.400 1_556 S
C511 C510 1.400 1_554 S
C511 C512 1.398 . S
C511 C517 1.491 . S
C512 H503 0.950 . S
C512 C511 1.398 . S
C512 C513 1.391 . S
C513 H501 0.950 . S
C513 C509 1.393 . S
C513 C512 1.391 . S
C514 H504 0.950 . S
C514 C515 1.386 . S
C514 C516 1.391 . S
C515 C514 1.386 . S
C515 C519 1.393 1_554 S
C516 H505 0.950 . S
C516 C514 1.391 . S
C516 C517 1.400 . S
C517 C511 1.491 . S
C517 C516 1.400 . S
C517 C518 1.398 1_554 S
C518 H506 0.950 . S
C518 C517 1.398 1_556 S
C518 C519 1.391 . S
C519 H507 0.950 . S
C519 C515 1.393 1_556 S
C519 C518 1.391 . S
H520 C528 0.950 . S
H521 C533 0.950 . S
H522 C530 0.950 . S
H523 C532 0.950 . S
H524 C534 0.950 . S
H525 C536 0.950 . S
H526 C538 0.950 . S
H527 C539 0.950 . S
C528 H520 0.950 . S
C528 C529 1.386 . S
C528 C530 1.391 . S
C529 C528 1.386 . S
C529 C533 1.393 . S
C530 H522 0.950 . S
C530 C528 1.391 . S
C530 C531 1.400 . S
C531 C530 1.400 . S
C531 C532 1.398 . S
C531 C537 1.491 . S
C532 H523 0.950 . S
C532 C531 1.398 . S
C532 C533 1.391 . S
C533 H521 0.950 . S
C533 C529 1.393 . S
C533 C532 1.391 . S
C534 H524 0.950 . S
C534 C535 1.386 . S
C534 C536 1.391 . S
C535 C534 1.386 . S
C535 C539 1.393 . S
C536 H525 0.950 . S
C536 C534 1.391 . S
C536 C537 1.400 . S
C537 C531 1.491 . S
C537 C536 1.400 . S
C537 C538 1.398 . S
C538 H526 0.950 . S
C538 C537 1.398 . S
C538 C539 1.391 . S
C539 H527 0.950 . S
C539 C535 1.393 . S
C539 C538 1.391 . S
H540 C548 0.950 . S
H541 C553 0.950 . S
H542 C550 0.950 . S
H543 C552 0.950 . S
H544 C554 0.950 . S
H545 C556 0.950 . S
H546 C558 0.950 . S
H547 C559 0.950 . S
C548 H540 0.950 . S
C548 C549 1.386 . S
C548 C550 1.391 . S
C549 C548 1.386 . S
C549 C553 1.393 . S
C550 H542 0.950 . S
C550 C548 1.391 . S
C550 C551 1.400 . S
C551 C550 1.400 . S
C551 C552 1.398 . S
C551 C557 1.491 . S
C552 H543 0.950 . S
C552 C551 1.398 . S
C552 C553 1.391 . S
C553 H541 0.950 . S
C553 C549 1.393 . S
C553 C552 1.391 . S
C554 H544 0.950 . S
C554 C555 1.386 . S
C554 C556 1.391 . S
C555 C554 1.386 . S
C555 C559 1.393 . S
C556 H545 0.950 . S
C556 C554 1.391 . S
C556 C557 1.400 . S
C557 C551 1.491 . S
C557 C556 1.400 . S
C557 C558 1.398 . S
C558 H546 0.950 . S
C558 C557 1.398 . S
C558 C559 1.391 . S
C559 H547 0.950 . S
C559 C555 1.393 . S
C559 C558 1.391 . S
H560 C568 0.950 . S
H561 C573 0.950 . S
H562 C570 0.950 . S
H563 C572 0.950 . S
H564 C574 0.950 . S
H565 C576 0.950 . S
H566 C578 0.950 . S
H567 C579 0.950 . S
C568 H560 0.950 . S
C568 C569 1.386 . S
C568 C570 1.391 . S
C569 C568 1.386 . S
C569 C573 1.393 . S
C570 H562 0.950 . S
C570 C568 1.391 . S
C570 C571 1.400 . S
C571 C570 1.400 . S
C571 C572 1.398 . S
C571 C577 1.491 . S
C572 H563 0.950 . S
C572 C571 1.398 . S
C572 C573 1.391 . S
C573 H561 0.950 . S
C573 C569 1.393 . S
C573 C572 1.391 . S
C574 H564 0.950 . S
C574 C575 1.386 . S
C574 C576 1.391 . S
C575 C574 1.386 . S
C575 C579 1.393 . S
C576 H565 0.950 . S
C576 C574 1.391 . S
C576 C577 1.400 . S
C577 C571 1.491 . S
C577 C576 1.400 . S
C577 C578 1.398 . S
C578 H566 0.950 . S
C578 C577 1.398 . S
C578 C579 1.391 . S
C579 H567 0.950 . S
C579 C575 1.393 . S
C579 C578 1.391 . S
H580 C588 0.950 . S
H581 C593 0.944 1_554 S
H582 C590 0.950 . S
H583 C592 0.950 1_554 S
H584 C594 0.950 . S
H585 C596 0.950 . S
H586 C598 0.950 . S
H587 C599 0.950 . S
C588 H580 0.950 . S
C588 C589 1.386 . S
C588 C590 1.391 . S
C589 C588 1.386 . S
C589 C593 1.398 . S
C590 H582 0.950 . S
C590 C588 1.391 . S
C590 C591 1.400 . S
C591 C590 1.400 . S
C591 C592 1.398 . S
C591 C597 1.491 . S
C592 H583 0.950 1_556 S
C592 C591 1.398 . S
C592 C593 1.391 . S
C593 H581 0.944 1_556 S
C593 C589 1.398 . S
C593 C592 1.391 . S
C594 H584 0.950 . S
C594 C595 1.386 1_554 S
C594 C596 1.391 . S
C595 C594 1.386 1_556 S
C595 C599 1.393 . S
C596 H585 0.950 . S
C596 C594 1.391 . S
C596 C597 1.400 1_554 S
C597 C591 1.491 . S
C597 C596 1.400 1_556 S
C597 C598 1.398 . S
C598 H586 0.950 . S
C598 C597 1.398 . S
C598 C599 1.391 . S
C599 H587 0.950 . S
C599 C595 1.393 . S
C599 C598 1.391 . S
H600 C608 0.950 . S
H601 C613 0.950 . S
H602 C610 0.950 . S
H603 C612 0.950 . S
H604 C614 0.950 . S
H605 C616 0.950 . S
H606 C618 0.950 . S
H607 C619 0.950 . S
C608 H600 0.950 . S
C608 C609 1.386 . S
C608 C610 1.391 . S
C609 C608 1.386 . S
C609 C613 1.393 . S
C610 H602 0.950 . S
C610 C608 1.391 . S
C610 C611 1.400 . S
C611 C610 1.400 . S
C611 C612 1.398 . S
C611 C617 1.491 . S
C612 H603 0.950 . S
C612 C611 1.398 . S
C612 C613 1.391 . S
C613 H601 0.950 . S
C613 C609 1.393 . S
C613 C612 1.391 . S
C614 H604 0.950 . S
C614 C615 1.386 . S
C614 C616 1.391 . S
C615 C614 1.386 . S
C615 C619 1.393 . S
C616 H605 0.950 . S
C616 C614 1.391 . S
C616 C617 1.400 . S
C617 C611 1.491 . S
C617 C616 1.400 . S
C617 C618 1.398 . S
C618 H606 0.950 . S
C618 C617 1.398 . S
C618 C619 1.391 . S
C619 H607 0.950 . S
C619 C615 1.393 . S
C619 C618 1.391 . S
H620 C628 0.950 . S
H621 C633 0.950 . S
H622 C630 0.950 . S
H623 C632 0.950 . S
H624 C634 0.950 . S
H625 C636 0.950 . S
H626 C638 0.950 . S
H627 C639 0.950 . S
C628 H620 0.950 . S
C628 C629 1.386 . S
C628 C630 1.391 . S
C629 C628 1.386 . S
C629 C633 1.393 . S
C630 H622 0.950 . S
C630 C628 1.391 . S
C630 C631 1.400 . S
C631 C630 1.400 . S
C631 C632 1.398 . S
C631 C637 1.491 . S
C632 H623 0.950 . S
C632 C631 1.398 . S
C632 C633 1.391 . S
C633 H621 0.950 . S
C633 C629 1.393 . S
C633 C632 1.391 . S
C634 H624 0.950 . S
C634 C635 1.386 . S
C634 C636 1.391 . S
C635 C634 1.386 . S
C635 C639 1.393 . S
C636 H625 0.950 . S
C636 C634 1.391 . S
C636 C637 1.400 . S
C637 C631 1.491 . S
C637 C636 1.400 . S
C637 C638 1.398 . S
C638 H626 0.950 . S
C638 C637 1.398 . S
C638 C639 1.391 . S
C639 H627 0.950 . S
C639 C635 1.393 . S
C639 C638 1.391 . S
H640 C648 0.950 . S
H641 C653 0.950 . S
H642 C650 0.950 . S
H643 C652 0.950 . S
H644 C654 0.950 . S
H645 C656 0.950 . S
H646 C658 0.950 . S
H647 C659 0.950 . S
C648 H640 0.950 . S
C648 C649 1.386 1_545 S
C648 C650 1.391 . S
C649 C648 1.386 1_565 S
C649 C653 1.393 . S
C650 H642 0.950 . S
C650 C648 1.391 . S
C650 C651 1.400 1_545 S
C651 C650 1.400 1_565 S
C651 C652 1.398 . S
C651 C657 1.491 1_666 S
C652 H643 0.950 . S
C652 C651 1.398 . S
C652 C653 1.391 . S
C653 H641 0.950 . S
C653 C649 1.393 . S
C653 C652 1.391 . S
C654 H644 0.950 . S
C654 C655 1.386 1_565 S
C654 C656 1.391 . S
C655 C654 1.386 1_545 S
C655 C659 1.393 . S
C656 H645 0.950 . S
C656 C654 1.391 . S
C656 C657 1.400 1_565 S
C657 C651 1.491 1_444 S
C657 C656 1.400 1_545 S
C657 C658 1.398 . S
C658 H646 0.950 . S
C658 C657 1.398 . S
C658 C659 1.391 . S
C659 H647 0.950 . S
C659 C655 1.393 . S
C659 C658 1.391 . S
H660 C668 0.950 . S
H661 C673 0.950 . S
H662 C670 0.950 . S
H663 C672 0.950 . S
H664 C674 0.950 . S
H665 C676 0.950 . S
H666 C678 0.950 . S
H667 C679 0.950 . S
C668 H660 0.950 . S
C668 C669 1.386 . S
C668 C670 1.391 . S
C669 C668 1.386 . S
C669 C673 1.393 . S
C670 H662 0.950 . S
C670 C668 1.391 . S
C670 C671 1.400 . S
C671 C670 1.400 . S
C671 C672 1.398 . S
C671 C677 1.491 . S
C672 H663 0.950 . S
C672 C671 1.398 . S
C672 C673 1.391 . S
C673 H661 0.950 . S
C673 C669 1.393 . S
C673 C672 1.391 . S
C674 H664 0.950 . S
C674 C675 1.386 . S
C674 C676 1.391 . S
C675 C674 1.386 . S
C675 C679 1.393 . S
C676 H665 0.950 . S
C676 C674 1.391 . S
C676 C677 1.400 . S
C677 C671 1.491 . S
C677 C676 1.400 . S
C677 C678 1.398 . S
C678 H666 0.950 . S
C678 C677 1.398 . S
C678 C679 1.391 . S
C679 H667 0.950 . S
C679 C675 1.393 . S
C679 C678 1.391 . S
H680 C688 0.950 . S
H681 C693 0.950 . S
H682 C690 0.950 . S
H683 C692 0.950 . S
H684 C694 0.950 . S
H685 C696 0.950 . S
H686 C698 0.950 . S
H687 C699 0.950 . S
C688 H680 0.950 . S
C688 C689 1.386 . S
C688 C690 1.391 . S
C689 C688 1.386 . S
C689 C693 1.393 1_565 S
C690 H682 0.950 . S
C690 C688 1.391 . S
C690 C691 1.400 . S
C691 C690 1.400 . S
C691 C692 1.398 1_565 S
C691 C697 1.491 1_565 S
C692 H683 0.950 . S
C692 C691 1.398 1_545 S
C692 C693 1.391 . S
C693 H681 0.950 . S
C693 C689 1.393 1_545 S
C693 C692 1.391 . S
C694 H684 0.950 . S
C694 C695 1.386 . S
C694 C696 1.391 . S
C695 C694 1.386 . S
C695 C699 1.393 1_545 S
C696 H685 0.950 . S
C696 C694 1.391 . S
C696 C697 1.400 . S
C697 C691 1.491 1_545 S
C697 C696 1.400 . S
C697 C698 1.398 1_545 S
C698 H686 0.950 . S
C698 C697 1.398 1_565 S
C698 C699 1.391 . S
C699 H687 0.950 . S
C699 C695 1.393 1_565 S
C699 C698 1.391 . S
H700 C708 0.950 . S
H701 C713 0.950 . S
H702 C710 0.950 . S
H703 C712 0.950 . S
H704 C714 0.950 . S
H705 C716 0.950 . S
H706 C718 0.950 . S
H707 C719 0.950 . S
C708 H700 0.950 . S
C708 C709 1.386 . S
C708 C710 1.391 . S
C709 C708 1.386 . S
C709 C713 1.393 . S
C710 H702 0.950 . S
C710 C708 1.391 . S
C710 C711 1.400 . S
C711 C710 1.400 . S
C711 C712 1.398 . S
C711 C717 1.491 . S
C712 H703 0.950 . S
C712 C711 1.398 . S
C712 C713 1.391 . S
C713 H701 0.950 . S
C713 C709 1.393 . S
C713 C712 1.391 . S
C714 H704 0.950 . S
C714 C715 1.386 . S
C714 C716 1.391 . S
C715 C714 1.386 . S
C715 C719 1.393 . S
C716 H705 0.950 . S
C716 C714 1.391 . S
C716 C717 1.400 . S
C717 C711 1.491 . S
C717 C716 1.400 . S
C717 C718 1.398 . S
C718 H706 0.950 . S
C718 C717 1.398 . S
C718 C719 1.391 . S
C719 H707 0.950 . S
C719 C715 1.393 . S
C719 C718 1.391 . S
H720 C728 0.950 . S
H721 C733 0.950 . S
H722 C730 0.950 . S
H723 C732 0.950 . S
H724 C734 0.950 . S
H725 C736 0.950 . S
H726 C738 0.950 . S
H727 C739 0.950 . S
C728 H720 0.950 . S
C728 C729 1.386 . S
C728 C730 1.391 . S
C729 C728 1.386 . S
C729 C733 1.393 . S
C730 H722 0.950 . S
C730 C728 1.391 . S
C730 C731 1.400 . S
C731 C730 1.400 . S
C731 C732 1.398 . S
C731 C737 1.491 . S
C732 H723 0.950 . S
C732 C731 1.398 . S
C732 C733 1.391 . S
C733 H721 0.950 . S
C733 C729 1.393 . S
C733 C732 1.391 . S
C734 H724 0.950 . S
C734 C735 1.386 . S
C734 C736 1.391 . S
C735 C734 1.386 . S
C735 C739 1.393 . S
C736 H725 0.950 . S
C736 C734 1.391 . S
C736 C737 1.400 . S
C737 C731 1.491 . S
C737 C736 1.400 . S
C737 C738 1.398 . S
C738 H726 0.950 . S
C738 C737 1.398 . S
C738 C739 1.391 . S
C739 H727 0.950 . S
C739 C735 1.393 . S
C739 C738 1.391 . S
H740 C748 0.950 . S
H741 C753 0.950 . S
H742 C750 0.950 . S
H743 C752 0.950 . S
H744 C754 0.950 . S
H745 C756 0.950 . S
H746 C758 0.950 . S
H747 C759 0.950 . S
C748 H740 0.950 . S
C748 C749 1.386 . S
C748 C750 1.391 . S
C749 C748 1.386 . S
C749 C753 1.393 . S
C750 H742 0.950 . S
C750 C748 1.391 . S
C750 C751 1.400 . S
C751 C750 1.400 . S
C751 C752 1.398 . S
C751 C757 1.491 . S
C752 H743 0.950 . S
C752 C751 1.398 . S
C752 C753 1.391 . S
C753 H741 0.950 . S
C753 C749 1.393 . S
C753 C752 1.391 . S
C754 H744 0.950 . S
C754 C755 1.386 . S
C754 C756 1.391 . S
C755 C754 1.386 . S
C755 C759 1.393 . S
C756 H745 0.950 . S
C756 C754 1.391 . S
C756 C757 1.400 . S
C757 C751 1.491 . S
C757 C756 1.400 . S
C757 C758 1.398 . S
C758 H746 0.950 . S
C758 C757 1.398 . S
C758 C759 1.391 . S
C759 H747 0.950 . S
C759 C755 1.393 . S
C759 C758 1.391 . S
H760 C768 0.950 . S
H761 C773 0.950 . S
H762 C770 0.950 . S
H763 C772 0.950 . S
H764 C774 0.950 . S
H765 C776 0.950 . S
H766 C778 0.950 . S
H767 C779 0.950 . S
C768 H760 0.950 . S
C768 C769 1.386 . S
C768 C770 1.391 . S
C769 C768 1.386 . S
C769 C773 1.393 . S
C770 H762 0.950 . S
C770 C768 1.391 . S
C770 C771 1.400 . S
C771 C770 1.400 . S
C771 C772 1.398 . S
C771 C777 1.491 . S
C772 H763 0.950 . S
C772 C771 1.398 . S
C772 C773 1.391 . S
C773 H761 0.950 . S
C773 C769 1.393 . S
C773 C772 1.391 . S
C774 H764 0.950 . S
C774 C775 1.386 . S
C774 C776 1.391 . S
C775 C774 1.386 . S
C775 C779 1.393 . S
C776 H765 0.950 . S
C776 C774 1.391 . S
C776 C777 1.400 . S
C777 C771 1.491 . S
C777 C776 1.400 . S
C777 C778 1.398 . S
C778 H766 0.950 . S
C778 C777 1.398 . S
C778 C779 1.391 . S
C779 H767 0.950 . S
C779 C775 1.393 . S
C779 C778 1.391 . S
H780 C788 0.950 . S
H781 C793 0.950 1_655 S
H782 C790 0.950 . S
H783 C792 0.950 . S
H784 C794 0.950 . S
H785 C796 0.950 . S
H786 C798 0.950 . S
H787 C799 0.950 1_455 S
C788 H780 0.950 . S
C788 C789 1.386 . S
C788 C790 1.391 . S
C789 C788 1.386 . S
C789 C793 1.393 . S
C790 H782 0.950 . S
C790 C788 1.391 . S
C790 C791 1.400 . S
C791 C790 1.400 . S
C791 C792 1.398 1_455 S
C791 C797 1.491 1_456 S
C792 H783 0.950 . S
C792 C791 1.398 1_655 S
C792 C793 1.391 1_655 S
C793 H781 0.950 1_455 S
C793 C789 1.393 . S
C793 C792 1.391 1_455 S
C794 H784 0.950 . S
C794 C795 1.386 . S
C794 C796 1.391 . S
C795 C794 1.386 . S
C795 C799 1.393 . S
C796 H785 0.950 . S
C796 C794 1.391 . S
C796 C797 1.400 . S
C797 C791 1.491 1_654 S
C797 C796 1.400 . S
C797 C798 1.398 1_655 S
C798 H786 0.950 . S
C798 C797 1.398 1_455 S
C798 C799 1.391 1_455 S
C799 H787 0.950 1_655 S
C799 C795 1.393 . S
C799 C798 1.391 1_655 S
C329 C6 1.676 . S
C335 C129 1.668 . S
C349 C9 1.676 . S
C355 C46 1.674 . S
C369 C49 1.679 . S
C375 C86 1.667 . S
C389 C89 1.666 . S
C395 C126 1.673 . S
C409 C15 1.675 . S
C415 C218 1.670 . S
C429 C18 1.658 . S
C435 C175 1.666 . S
C449 C178 1.665 . S
C455 C95 1.672 . S
C469 C215 1.657 . S
C475 C98 1.661 . S
C489 C246 1.654 . S
C495 C209 1.671 . S
C509 C166 1.654 . S
C515 C249 1.663 . S
C529 C286 1.654 . S
C535 C169 1.663 . S
C549 C206 1.653 . S
C555 C289 1.669 . S
C569 C138 1.670 . S
C575 C255 1.675 . S
C589 C258 1.664 . S
C595 C55 1.675 . S
C609 C58 1.671 . S
C615 C295 1.652 . S
C629 C135 1.671 . S
C635 C298 1.677 . S
C649 C19 2.141 . S
C655 C10 2.141 . S
C669 C50 2.136 . S
C675 C59 2.136 1_554 S
C689 C90 2.145 . S
C695 C99 2.145 . S
C709 C130 2.130 1_556 S
C715 C139 2.130 . S
C729 C170 2.137 1_556 S
C735 C179 2.137 . S
C749 C210 2.137 . S
C755 C219 2.137 1_554 S
C769 C250 2.132 . S
C775 C259 2.132 . S
C789 C299 2.143 . S
C795 C290 2.143 . S
