# Generated by pormake.
# Topology unm, (4)-cn, num edge types: 1
# Building blocks:
#     Node 0, Type 0, BuildingBlock: QUQFOY_clean_sbu_3, # of connection points: 4
#     Node 1, Type 0, BuildingBlock: QUQFOY_clean_sbu_3, # of connection points: 4
#     Node 2, Type 0, BuildingBlock: QUQFOY_clean_sbu_3, # of connection points: 4
#     Node 3, Type 0, BuildingBlock: QUQFOY_clean_sbu_3, # of connection points: 4
#     Node 4, Type 0, BuildingBlock: QUQFOY_clean_sbu_3, # of connection points: 4
#     Node 5, Type 0, BuildingBlock: QUQFOY_clean_sbu_3, # of connection points: 4
#     Node 6, Type 0, BuildingBlock: QUQFOY_clean_sbu_3, # of connection points: 4
#     Node 7, Type 0, BuildingBlock: QUQFOY_clean_sbu_3, # of connection points: 4
#     Edge 8, Type (0, 0), BuildingBlock: CIFDUS_clean_linker_0, # of connection points: 2
#     Edge 9, Type (0, 0), BuildingBlock: CIFDUS_clean_linker_0, # of connection points: 2
#     Edge 10, Type (0, 0), BuildingBlock: CIFDUS_clean_linker_0, # of connection points: 2
#     Edge 11, Type (0, 0), BuildingBlock: CIFDUS_clean_linker_0, # of connection points: 2
#     Edge 12, Type (0, 0), BuildingBlock: CIFDUS_clean_linker_0, # of connection points: 2
#     Edge 13, Type (0, 0), BuildingBlock: CIFDUS_clean_linker_0, # of connection points: 2
#     Edge 14, Type (0, 0), BuildingBlock: CIFDUS_clean_linker_0, # of connection points: 2
#     Edge 15, Type (0, 0), BuildingBlock: CIFDUS_clean_linker_0, # of connection points: 2
#     Edge 16, Type (0, 0), BuildingBlock: CIFDUS_clean_linker_0, # of connection points: 2
#     Edge 17, Type (0, 0), BuildingBlock: CIFDUS_clean_linker_0, # of connection points: 2
#     Edge 18, Type (0, 0), BuildingBlock: CIFDUS_clean_linker_0, # of connection points: 2
#     Edge 19, Type (0, 0), BuildingBlock: CIFDUS_clean_linker_0, # of connection points: 2
#     Edge 20, Type (0, 0), BuildingBlock: CIFDUS_clean_linker_0, # of connection points: 2
#     Edge 21, Type (0, 0), BuildingBlock: CIFDUS_clean_linker_0, # of connection points: 2
#     Edge 22, Type (0, 0), BuildingBlock: CIFDUS_clean_linker_0, # of connection points: 2
#     Edge 23, Type (0, 0), BuildingBlock: CIFDUS_clean_linker_0, # of connection points: 2
# Relax obj value: 0.175
# Max RMSD: 0.148
# Mean RMSD: 0.148
data_MOF--net-unm--node1-QUQFOY_clean_sbu_3--edge1-CIFDUS_clean_linker_0
_symmetry_space_group_name_H-M    P1
_symmetry_Int_Tables_number       1
_symmetry_cell_setting            triclinic
loop_
_symmetry_equiv_pos_as_xyz
'x, y, z'
_cell_length_a     23.990746
_cell_length_b     24.088932
_cell_length_c     40.968671
_cell_angle_alpha  89.940671
_cell_angle_beta   89.585639
_cell_angle_gamma 89.839108
loop_
_atom_site_label
_atom_site_type_symbol
_atom_site_fract_x
_atom_site_fract_y
_atom_site_fract_z
_atom_type_partial_charge
C0 C 0.01352 0.1726 0.16485 0.0
O1 O 0.00345 0.15564 0.13617 0.0
Cd2 Cd 0.04997 0.18959 0.08819 0.0
O3 O 0.05678 0.20177 0.17069 0.0
Cd4 Cd 0.1423 0.23615 0.14009 0.0
C5 C 0.05229 0.32888 0.10781 0.0
O6 O 0.14769 0.17587 0.09181 0.0
O7 O 0.19015 0.2545 0.08859 0.0
O8 O 0.22299 0.20316 0.17226 0.0
C9 C 0.17714 0.20918 0.07496 0.0
O10 O 0.03137 0.28926 0.09139 0.0
C11 C 0.2351 0.25088 0.18341 0.0
O12 O 0.09238 0.32088 0.12748 0.0
O13 O 0.20332 0.29075 0.17533 0.0
C14 C 0.27327 0.48307 0.66638 0.0
O15 O 0.28169 0.47004 0.63671 0.0
Cd16 Cd 0.26694 0.52372 0.58838 0.0
O17 O 0.25805 0.53227 0.67426 0.0
Cd18 Cd 0.23333 0.62072 0.64347 0.0
C19 C 0.12947 0.5456 0.60858 0.0
O20 O 0.29446 0.61725 0.59526 0.0
O21 O 0.22239 0.67013 0.59192 0.0
O22 O 0.27691 0.69368 0.67706 0.0
C23 C 0.26573 0.65068 0.57822 0.0
O24 O 0.16604 0.52276 0.59027 0.0
C25 C 0.23119 0.71634 0.68582 0.0
O26 O 0.14266 0.58064 0.63052 0.0
O27 O 0.18679 0.69315 0.67612 0.0
C28 C 0.91142 0.76087 0.16598 0.0
O29 O 0.92225 0.77882 0.13749 0.0
Cd30 Cd 0.87698 0.7461 0.08922 0.0
O31 O 0.86799 0.73151 0.17144 0.0
Cd32 Cd 0.78326 0.69836 0.14021 0.0
C33 C 0.8742 0.60635 0.1076 0.0
O34 O 0.77907 0.76016 0.09254 0.0
O35 O 0.73695 0.68156 0.08836 0.0
O36 O 0.70181 0.73064 0.1726 0.0
C37 C 0.75009 0.72746 0.07529 0.0
O38 O 0.89576 0.64637 0.09159 0.0
C39 C 0.68907 0.68258 0.18311 0.0
O40 O 0.83337 0.61388 0.12713 0.0
O41 O 0.72086 0.64283 0.17461 0.0
C42 C 0.70055 0.44953 0.66586 0.0
O43 O 0.67831 0.46267 0.63888 0.0
Cd44 Cd 0.69702 0.4127 0.58947 0.0
O45 O 0.7244 0.40236 0.6693 0.0
Cd46 Cd 0.73924 0.31303 0.63795 0.0
C47 C 0.83791 0.39313 0.60377 0.0
O48 O 0.66903 0.31836 0.5945 0.0
O49 O 0.73936 0.2642 0.58625 0.0
O50 O 0.70134 0.25655 0.68279 0.0
C51 C 0.69424 0.28458 0.57564 0.0
O52 O 0.79883 0.41868 0.58908 0.0
C53 C 0.74208 0.22266 0.68369 0.0
O54 O 0.82808 0.35315 0.62331 0.0
O55 O 0.78158 0.23075 0.66345 0.0
C56 C 0.51355 0.25359 0.28914 0.0
O57 O 0.5001 0.27276 0.31698 0.0
Cd58 Cd 0.54419 0.24001 0.36575 0.0
O59 O 0.55918 0.22675 0.2854 0.0
Cd60 Cd 0.64392 0.19959 0.31802 0.0
C61 C 0.55278 0.10213 0.34215 0.0
O62 O 0.64171 0.25761 0.36775 0.0
O63 O 0.68374 0.17822 0.37046 0.0
O64 O 0.71803 0.24699 0.28696 0.0
C65 C 0.67011 0.22323 0.38445 0.0
O66 O 0.52963 0.14057 0.35879 0.0
C67 C 0.74352 0.20297 0.27827 0.0
O68 O 0.59573 0.11141 0.32449 0.0
O69 O 0.72154 0.15725 0.28692 0.0
C70 C 0.17659 -0.01724 0.79795 0.0
O71 O 0.15674 -0.02594 0.82632 0.0
Cd72 Cd 0.17753 0.02878 0.87377 0.0
O73 O 0.20242 0.02778 0.79133 0.0
Cd74 Cd 0.2245 0.11822 0.81986 0.0
C75 C 0.31817 0.03621 0.85768 0.0
O76 O 0.15581 0.12319 0.86454 0.0
O77 O 0.23147 0.16934 0.87102 0.0
O78 O 0.1908 0.17638 0.77451 0.0
C79 C 0.18459 0.15481 0.88255 0.0
O80 O 0.27909 0.02023 0.8767 0.0
C81 C 0.23338 0.20777 0.77347 0.0
O82 O 0.30903 0.06859 0.83367 0.0
O83 O 0.2723 0.19688 0.79335 0.0
C84 C 0.40868 0.67818 0.28917 0.0
O85 O 0.4224 0.659 0.31688 0.0
Cd86 Cd 0.37912 0.69033 0.36641 0.0
O87 O 0.36282 0.70473 0.2858 0.0
Cd88 Cd 0.27748 0.73127 0.31903 0.0
C89 C 0.36861 0.82861 0.34302 0.0
O90 O 0.28212 0.67216 0.36798 0.0
O91 O 0.23689 0.74948 0.37235 0.0
O92 O 0.20388 0.68431 0.28789 0.0
C93 C 0.25346 0.70497 0.38574 0.0
O94 O 0.39217 0.79001 0.3592 0.0
C95 C 0.17826 0.72844 0.27969 0.0
O96 O 0.32552 0.81945 0.32581 0.0
O97 O 0.1998 0.77402 0.28874 0.0
C98 C 0.77145 0.95206 0.79544 0.0
O99 O 0.77117 0.96568 0.8254 0.0
Cd100 Cd 0.7507 0.91215 0.8733 0.0
O101 O 0.76051 0.90234 0.78673 0.0
Cd102 Cd 0.72572 0.81812 0.81735 0.0
C103 C 0.61872 0.89832 0.84742 0.0
O104 O 0.78307 0.81963 0.86633 0.0
O105 O 0.70933 0.76959 0.86959 0.0
O106 O 0.76056 0.73876 0.78407 0.0
C107 C 0.75328 0.78687 0.8832 0.0
O108 O 0.64944 0.91517 0.87061 0.0
C109 C 0.71229 0.72528 0.7741 0.0
O110 O 0.63803 0.86714 0.82494 0.0
O111 O 0.67179 0.75527 0.78365 0.0
H112 H 0.1172 0.14626 0.03227 0.0
H113 H 0.25776 0.25708 0.03804 0.0
H114 H 0.27081 0.25183 0.97901 0.0
H115 H 0.24226 0.21664 0.92582 0.0
H116 H 0.1007 0.10733 0.91889 0.0
H117 H 0.08739 0.11194 0.97816 0.0
C118 C 0.15102 0.1687 0.02058 0.0
C119 C 0.1868 0.20164 0.03952 0.0
C120 C 0.15758 0.16646 -0.0136 0.0
C121 C 0.22982 0.23131 0.02401 0.0
C122 C 0.23718 0.22851 -0.00976 0.0
C123 C 0.20823 0.19403 0.93719 0.0
C124 C 0.17255 0.16169 0.91789 0.0
C125 C 0.20114 0.19654 0.97119 0.0
C126 C 0.12862 0.13279 0.93311 0.0
C127 C 0.12123 0.13511 0.96705 0.0
H128 H 0.20494 0.71388 0.53695 0.0
H129 H 0.34301 0.59881 0.53879 0.0
H130 H 0.35002 0.60311 0.47913 0.0
H131 H 0.31603 0.63946 0.4262 0.0
H132 H 0.17847 0.75531 0.42567 0.0
H133 H 0.17166 0.75007 0.48498 0.0
C134 C 0.23681 0.68985 0.52439 0.0
C135 C 0.27343 0.65612 0.54238 0.0
C136 C 0.24026 0.69219 0.49021 0.0
C137 C 0.31444 0.62535 0.52559 0.0
C138 C 0.31825 0.62755 0.49145 0.0
C139 C 0.28425 0.66305 0.43909 0.0
C140 C 0.2476 0.69752 0.4215 0.0
C141 C 0.28111 0.66058 0.47345 0.0
C142 C 0.20714 0.72845 0.43859 0.0
C143 C 0.2033 0.72562 0.47254 0.0
H144 H 0.81033 0.79314 0.03383 0.0
H145 H 0.6714 0.67994 0.03729 0.0
H146 H 0.66075 0.68744 0.97821 0.0
H147 H 0.6918 0.72464 0.92543 0.0
H148 H 0.83256 0.83559 0.92129 0.0
H149 H 0.84205 0.82991 -0.01943 0.0
C150 C 0.77734 0.77068 0.02165 0.0
C151 C 0.74142 0.73636 0.03993 0.0
C152 C 0.77225 0.77418 -0.01251 0.0
C153 C 0.69947 0.70675 0.02376 0.0
C154 C 0.69347 0.71085 -0.01003 0.0
C155 C 0.72472 0.74743 0.93745 0.0
C156 C 0.76141 0.78045 0.91888 0.0
C157 C 0.7299 0.74404 0.97154 0.0
C158 C 0.80385 0.80966 0.93493 0.0
C159 C 0.80915 0.80666 0.96888 0.0
H160 H 0.61742 0.29287 0.42786 0.0
H161 H 0.74792 0.16973 0.42015 0.0
H162 H 0.76498 0.17642 0.47851 0.0
H163 H 0.74325 0.21637 0.53165 0.0
H164 H 0.61267 0.3389 0.54103 0.0
H165 H 0.59464 0.33268 0.4823 0.0
C166 C 0.64985 0.26794 0.43898 0.0
C167 C 0.68154 0.23104 0.41962 0.0
C168 C 0.65901 0.27134 0.4729 0.0
C169 C 0.72294 0.19844 0.43445 0.0
C170 C 0.73268 0.20211 0.46786 0.0
C171 C 0.71059 0.24162 0.52096 0.0
C172 C 0.67938 0.27804 0.54076 0.0
C173 C 0.70085 0.23815 0.48732 0.0
C174 C 0.63717 0.3103 0.5264 0.0
C175 C 0.62708 0.30699 0.49278 0.0
H176 H 0.334 0.19491 0.18274 0.0
H177 H 0.24685 0.3292 0.23054 0.0
H178 H 0.32709 0.34524 0.26575 0.0
H179 H 0.42032 0.3182 0.28474 0.0
H180 H 0.50969 0.187 0.23515 0.0
H181 H 0.43114 0.17372 0.19841 0.0
C182 C 0.33266 0.22757 0.20093 0.0
C183 C 0.28424 0.26023 0.20442 0.0
C184 C 0.37963 0.23757 0.22053 0.0
C185 C 0.28349 0.30325 0.22756 0.0
C186 C 0.32941 0.31252 0.24765 0.0
C187 C 0.42305 0.28729 0.26556 0.0
C188 C 0.47093 0.25352 0.26291 0.0
C189 C 0.37756 0.27968 0.24453 0.0
C190 C 0.47366 0.21388 0.23773 0.0
C191 C 0.42842 0.20582 0.21687 0.0
H192 H 0.14166 0.76333 0.71667 0.0
H193 H 0.31713 0.78746 0.69797 0.0
H194 H 0.31421 0.87525 0.72784 0.0
H195 H 0.26241 0.94412 0.76093 0.0
H196 H 0.08913 0.9158 0.78351 0.0
H197 H 0.09017 0.83154 0.75008 0.0
C198 C 0.17928 0.78778 0.71912 0.0
C199 C 0.22958 0.76864 0.7051 0.0
C200 C 0.17748 0.83794 0.73677 0.0
C201 C 0.27794 0.80088 0.70867 0.0
C202 C 0.27625 0.85131 0.72562 0.0
C203 C 0.22466 0.92002 0.75791 0.0
C204 C 0.17543 0.93663 0.77409 0.0
C205 C 0.22629 0.87026 0.73984 0.0
C206 C 0.12726 0.90415 0.77091 0.0
C207 C 0.12798 0.8558 0.752 0.0
H208 H 0.50098 0.61261 0.28355 0.0
H209 H 0.41378 0.74661 0.23587 0.0
H210 H 0.49316 0.76059 0.1991 0.0
H211 H 0.59055 0.73928 0.1831 0.0
H212 H 0.67551 0.60239 0.22913 0.0
H213 H 0.5943 0.5855 0.26411 0.0
C214 C 0.49889 0.64428 0.26476 0.0
C215 C 0.45141 0.67863 0.26267 0.0
C216 C 0.54486 0.65232 0.24377 0.0
C217 C 0.44948 0.71926 0.23799 0.0
C218 C 0.4952 0.72772 0.21714 0.0
C219 C 0.59118 0.70586 0.20086 0.0
C220 C 0.63929 0.67271 0.20394 0.0
C221 C 0.54366 0.69541 0.22033 0.0
C222 C 0.63914 0.62872 0.22649 0.0
C223 C 0.59266 0.61897 0.24644 0.0
H224 H 0.79329 0.12166 0.67744 0.0
H225 H 0.6948 0.22094 0.74395 0.0
H226 H 0.69876 0.14717 0.78479 0.0
H227 H 0.72881 0.05459 0.80144 0.0
H228 H 0.81884 0.94989 0.73392 0.0
H229 H 0.81982 0.02556 0.69352 0.0
C230 C 0.77285 0.12701 0.70093 0.0
C231 C 0.74405 0.17683 0.70779 0.0
C232 C 0.77393 0.08357 0.72403 0.0
C233 C 0.71705 0.183 0.73808 0.0
C234 C 0.71946 0.14091 0.76147 0.0
C235 C 0.74925 0.04845 0.778 0.0
C236 C 0.77471 -0.00287 0.77085 0.0
C237 C 0.74771 0.09113 0.75471 0.0
C238 C 0.79948 -0.01077 0.74005 0.0
C239 C 0.79991 0.03244 0.717 0.0
H240 H 0.79724 0.11801 0.24692 0.0
H241 H 0.81094 0.29263 0.26868 0.0
H242 H 0.89979 0.29666 0.23928 0.0
H243 H -0.02851 0.25184 0.20483 0.0
H244 H 0.95358 0.07965 0.17878 0.0
H245 H 0.86948 0.07294 0.21286 0.0
C246 C 0.81974 0.1569 0.2453 0.0
C247 C 0.79722 0.20499 0.25993 0.0
C248 C 0.87052 0.15917 0.22783 0.0
C249 C 0.82695 0.25507 0.25746 0.0
C250 C 0.87799 0.25737 0.24078 0.0
C251 C 0.94987 0.21255 0.20733 0.0
C252 C 0.96925 0.16597 0.1899 0.0
C253 C 0.90004 0.20981 0.22567 0.0
C254 C 0.93984 0.11578 0.1924 0.0
C255 C 0.89152 0.11211 0.21164 0.0
H256 H 0.23071 0.38129 0.65799 0.0
H257 H 0.31165 0.48334 0.72968 0.0
H258 H 0.30888 0.40593 0.76892 0.0
H259 H 0.2826 0.30865 0.78258 0.0
H260 H 0.19259 0.21188 0.71196 0.0
H261 H 0.1997 0.28769 0.67245 0.0
C262 C 0.24813 0.38649 0.68216 0.0
C263 C 0.27229 0.43757 0.6908 0.0
C264 C 0.24456 0.34271 0.70472 0.0
C265 C 0.29326 0.44427 0.72244 0.0
C266 C 0.29165 0.40002 0.74481 0.0
C267 C 0.26475 0.30429 0.75848 0.0
C268 C 0.23756 0.25452 0.75002 0.0
C269 C 0.26737 0.34896 0.7362 0.0
C270 C 0.2137 0.24968 0.71899 0.0
C271 C 0.21785 0.29298 0.69639 0.0
H272 H 0.12487 0.81405 0.24909 0.0
H273 H 0.11148 0.63875 0.26924 0.0
H274 H 0.02358 0.63511 0.23959 0.0
H275 H 0.9527 0.68056 0.20532 0.0
H276 H -0.0295 0.85362 0.18092 0.0
H277 H 0.05346 0.85973 0.21526 0.0
C278 C 0.10263 0.77509 0.24708 0.0
C279 C 0.12499 0.72671 0.26132 0.0
C280 C 0.05242 0.77307 0.22945 0.0
C281 C 0.0956 0.67655 0.25834 0.0
C282 C 0.0451 0.67446 0.2415 0.0
C283 C -0.02598 0.71988 0.20824 0.0
C284 C 0.95493 0.76689 0.19119 0.0
C285 C 0.02326 0.72234 0.22675 0.0
C286 C -0.016 0.81714 0.19423 0.0
C287 C 0.03168 0.82049 0.21363 0.0
H288 H 0.63773 0.54292 0.67299 0.0
H289 H 0.77529 0.4541 0.716 0.0
H290 H 0.79251 0.5321 0.75273 0.0
H291 H 0.77126 0.62811 0.77082 0.0
H292 H 0.63048 0.71394 0.7294 0.0
H293 H 0.61224 0.63507 0.69369 0.0
C294 C 0.67109 0.54029 0.69066 0.0
C295 C 0.70523 0.49269 0.6916 0.0
C296 C 0.68076 0.58526 0.7117 0.0
C297 C 0.74805 0.48998 0.71484 0.0
C298 C 0.75829 0.53485 0.73568 0.0
C299 C 0.73679 0.62947 0.75386 0.0
C300 C 0.70273 0.67709 0.75242 0.0
C301 C 0.72553 0.58316 0.73394 0.0
C302 C 0.65747 0.6779 0.73084 0.0
C303 C 0.64692 0.63276 0.71045 0.0
H304 H -0.01664 0.58086 0.10398 0.0
H305 H 0.8195 0.50789 0.10575 0.0
H306 H 0.86064 0.4148 0.10325 0.0
H307 H 0.9434 0.35452 0.10293 0.0
H308 H 0.10706 0.42741 0.10757 0.0
H309 H 0.06608 0.52055 0.10512 0.0
C310 C 0.95684 0.54446 0.10347 0.0
C311 C 0.89872 0.55072 0.10473 0.0
C312 C -0.01922 0.49137 0.10333 0.0
C313 C 0.86445 0.50363 0.10476 0.0
C314 C 0.88791 0.45061 0.10333 0.0
C315 C -0.03006 0.39092 0.10307 0.0
C316 C 0.02795 0.38461 0.10513 0.0
C317 C 0.94601 0.44402 0.10292 0.0
C318 C 0.06219 0.4317 0.10598 0.0
C319 C 0.03883 0.48476 0.10456 0.0
H320 H 0.87146 0.49924 0.60682 0.0
H321 H 0.93166 0.33176 0.59447 0.0
H322 H 0.0279 0.36546 0.59226 0.0
H323 H 0.09446 0.44198 0.59655 0.0
H324 H 0.03516 0.60806 0.61552 0.0
H325 H 0.93848 0.57576 0.61252 0.0
C326 C 0.9058 0.47042 0.60322 0.0
C327 C 0.89512 0.4134 0.60036 0.0
C328 C 0.96077 0.48984 0.60343 0.0
C329 C 0.93945 0.3759 0.59654 0.0
C330 C -0.00578 0.39512 0.59533 0.0
C331 C 0.06025 0.47112 0.59969 0.0
C332 C 0.0714 0.52727 0.60591 0.0
C333 C 0.00531 0.4519 0.59912 0.0
C334 C 0.02714 0.56462 0.61067 0.0
C335 C -0.02791 0.54619 0.60892 0.0
H336 H 0.44311 0.07897 0.34386 0.0
H337 H 0.60546 0.00189 0.3399 0.0
H338 H 0.56224 0.90983 0.34098 0.0
H339 H 0.47821 0.85184 0.34315 0.0
H340 H 0.31579 0.92889 0.34197 0.0
H341 H 0.35902 0.02097 0.34274 0.0
C342 C 0.46891 0.0419 0.34337 0.0
C343 C 0.52724 0.04677 0.34222 0.0
C344 C 0.44377 -0.0105 0.34304 0.0
C345 C 0.56044 -0.0012 0.34086 0.0
C346 C 0.53577 0.94636 0.34154 0.0
C347 C 0.45239 0.8889 0.34321 0.0
C348 C 0.39406 0.88402 0.34294 0.0
C349 C 0.47752 0.9413 0.34269 0.0
C350 C 0.36082 0.93199 0.34227 0.0
C351 C 0.38549 -0.01556 0.34276 0.0
H352 H 0.38555 -0.00145 0.81018 0.0
H353 H 0.37417 0.01946 0.91446 0.0
H354 H 0.46695 -0.02214 0.92084 0.0
H355 H 0.55134 0.93614 0.89626 0.0
H356 H 0.55803 0.90885 0.79216 0.0
H357 H 0.46654 0.95168 0.78616 0.0
C358 C 0.40375 -0.00568 0.83424 0.0
C359 C 0.37408 0.01267 0.86178 0.0
C360 C 0.45579 -0.03123 0.83772 0.0
C361 C 0.39691 0.00582 0.89296 0.0
C362 C 0.4497 -0.01797 0.89658 0.0
C363 C 0.53253 0.93937 0.87234 0.0
C364 C 0.56136 0.91962 0.84471 0.0
C365 C 0.4795 0.96333 0.86909 0.0
C366 C 0.53645 0.92347 0.81384 0.0
C367 C 0.48433 0.94827 0.81033 0.0
loop_
_geom_bond_atom_site_label_1
_geom_bond_atom_site_label_2
_geom_bond_distance
_geom_bond_site_symmetry_2
_ccdc_geom_bond_type
C0 O1 1.306 . S
C0 O3 1.160 . S
O1 C0 1.306 . S
O1 Cd2 2.228 . S
Cd2 O1 2.228 . S
Cd2 O6 2.273 . S
Cd2 O10 2.277 . S
O3 C0 1.160 . S
O3 Cd4 2.203 . S
Cd4 O3 2.203 . S
Cd4 O6 2.411 . S
Cd4 O7 2.333 . S
Cd4 O8 2.352 . S
Cd4 O12 2.277 . S
Cd4 O13 2.356 . S
C5 O10 1.209 . S
C5 O12 1.226 . S
O6 Cd2 2.273 . S
O6 Cd4 2.411 . S
O6 C9 1.320 . S
O7 Cd4 2.333 . S
O7 C9 1.214 . S
O8 Cd4 2.352 . S
O8 C11 1.258 . S
C9 O6 1.320 . S
C9 O7 1.214 . S
O10 Cd2 2.277 . S
O10 C5 1.209 . S
C11 O8 1.258 . S
C11 O13 1.282 . S
O12 Cd4 2.277 . S
O12 C5 1.226 . S
O13 Cd4 2.356 . S
O13 C11 1.282 . S
C14 O15 1.306 . S
C14 O17 1.160 . S
O15 C14 1.306 . S
O15 Cd16 2.228 . S
Cd16 O15 2.228 . S
Cd16 O20 2.273 . S
Cd16 O24 2.277 . S
O17 C14 1.160 . S
O17 Cd18 2.203 . S
Cd18 O17 2.203 . S
Cd18 O20 2.411 . S
Cd18 O21 2.333 . S
Cd18 O22 2.352 . S
Cd18 O26 2.277 . S
Cd18 O27 2.356 . S
C19 O24 1.209 . S
C19 O26 1.226 . S
O20 Cd16 2.273 . S
O20 Cd18 2.411 . S
O20 C23 1.320 . S
O21 Cd18 2.333 . S
O21 C23 1.214 . S
O22 Cd18 2.352 . S
O22 C25 1.258 . S
C23 O20 1.320 . S
C23 O21 1.214 . S
O24 Cd16 2.277 . S
O24 C19 1.209 . S
C25 O22 1.258 . S
C25 O27 1.282 . S
O26 Cd18 2.277 . S
O26 C19 1.226 . S
O27 Cd18 2.356 . S
O27 C25 1.282 . S
C28 O29 1.306 . S
C28 O31 1.160 . S
O29 C28 1.306 . S
O29 Cd30 2.228 . S
Cd30 O29 2.228 . S
Cd30 O34 2.273 . S
Cd30 O38 2.277 . S
O31 C28 1.160 . S
O31 Cd32 2.203 . S
Cd32 O31 2.203 . S
Cd32 O34 2.411 . S
Cd32 O35 2.333 . S
Cd32 O36 2.352 . S
Cd32 O40 2.277 . S
Cd32 O41 2.356 . S
C33 O38 1.209 . S
C33 O40 1.226 . S
O34 Cd30 2.273 . S
O34 Cd32 2.411 . S
O34 C37 1.320 . S
O35 Cd32 2.333 . S
O35 C37 1.214 . S
O36 Cd32 2.352 . S
O36 C39 1.258 . S
C37 O34 1.320 . S
C37 O35 1.214 . S
O38 Cd30 2.277 . S
O38 C33 1.209 . S
C39 O36 1.258 . S
C39 O41 1.282 . S
O40 Cd32 2.277 . S
O40 C33 1.226 . S
O41 Cd32 2.356 . S
O41 C39 1.282 . S
C42 O43 1.306 . S
C42 O45 1.160 . S
O43 C42 1.306 . S
O43 Cd44 2.228 . S
Cd44 O43 2.228 . S
Cd44 O48 2.273 . S
Cd44 O52 2.277 . S
O45 C42 1.160 . S
O45 Cd46 2.203 . S
Cd46 O45 2.203 . S
Cd46 O48 2.411 . S
Cd46 O49 2.333 . S
Cd46 O50 2.352 . S
Cd46 O54 2.277 . S
Cd46 O55 2.356 . S
C47 O52 1.209 . S
C47 O54 1.226 . S
O48 Cd44 2.273 . S
O48 Cd46 2.411 . S
O48 C51 1.320 . S
O49 Cd46 2.333 . S
O49 C51 1.214 . S
O50 Cd46 2.352 . S
O50 C53 1.258 . S
C51 O48 1.320 . S
C51 O49 1.214 . S
O52 Cd44 2.277 . S
O52 C47 1.209 . S
C53 O50 1.258 . S
C53 O55 1.282 . S
O54 Cd46 2.277 . S
O54 C47 1.226 . S
O55 Cd46 2.356 . S
O55 C53 1.282 . S
C56 O57 1.306 . S
C56 O59 1.160 . S
O57 C56 1.306 . S
O57 Cd58 2.228 . S
Cd58 O57 2.228 . S
Cd58 O62 2.273 . S
Cd58 O66 2.277 . S
O59 C56 1.160 . S
O59 Cd60 2.203 . S
Cd60 O59 2.203 . S
Cd60 O62 2.411 . S
Cd60 O63 2.333 . S
Cd60 O64 2.352 . S
Cd60 O68 2.277 . S
Cd60 O69 2.356 . S
C61 O66 1.209 . S
C61 O68 1.226 . S
O62 Cd58 2.273 . S
O62 Cd60 2.411 . S
O62 C65 1.320 . S
O63 Cd60 2.333 . S
O63 C65 1.214 . S
O64 Cd60 2.352 . S
O64 C67 1.258 . S
C65 O62 1.320 . S
C65 O63 1.214 . S
O66 Cd58 2.277 . S
O66 C61 1.209 . S
C67 O64 1.258 . S
C67 O69 1.282 . S
O68 Cd60 2.277 . S
O68 C61 1.226 . S
O69 Cd60 2.356 . S
O69 C67 1.282 . S
C70 O71 1.306 . S
C70 O73 1.160 . S
O71 C70 1.306 . S
O71 Cd72 2.228 . S
Cd72 O71 2.228 . S
Cd72 O76 2.273 . S
Cd72 O80 2.277 . S
O73 C70 1.160 . S
O73 Cd74 2.203 . S
Cd74 O73 2.203 . S
Cd74 O76 2.411 . S
Cd74 O77 2.333 . S
Cd74 O78 2.352 . S
Cd74 O82 2.277 . S
Cd74 O83 2.356 . S
C75 O80 1.209 . S
C75 O82 1.226 . S
O76 Cd72 2.273 . S
O76 Cd74 2.411 . S
O76 C79 1.320 . S
O77 Cd74 2.333 . S
O77 C79 1.214 . S
O78 Cd74 2.352 . S
O78 C81 1.258 . S
C79 O76 1.320 . S
C79 O77 1.214 . S
O80 Cd72 2.277 . S
O80 C75 1.209 . S
C81 O78 1.258 . S
C81 O83 1.282 . S
O82 Cd74 2.277 . S
O82 C75 1.226 . S
O83 Cd74 2.356 . S
O83 C81 1.282 . S
C84 O85 1.306 . S
C84 O87 1.160 . S
O85 C84 1.306 . S
O85 Cd86 2.228 . S
Cd86 O85 2.228 . S
Cd86 O90 2.273 . S
Cd86 O94 2.277 . S
O87 C84 1.160 . S
O87 Cd88 2.203 . S
Cd88 O87 2.203 . S
Cd88 O90 2.411 . S
Cd88 O91 2.333 . S
Cd88 O92 2.352 . S
Cd88 O96 2.277 . S
Cd88 O97 2.356 . S
C89 O94 1.209 . S
C89 O96 1.226 . S
O90 Cd86 2.273 . S
O90 Cd88 2.411 . S
O90 C93 1.320 . S
O91 Cd88 2.333 . S
O91 C93 1.214 . S
O92 Cd88 2.352 . S
O92 C95 1.258 . S
C93 O90 1.320 . S
C93 O91 1.214 . S
O94 Cd86 2.277 . S
O94 C89 1.209 . S
C95 O92 1.258 . S
C95 O97 1.282 . S
O96 Cd88 2.277 . S
O96 C89 1.226 . S
O97 Cd88 2.356 . S
O97 C95 1.282 . S
C98 O99 1.306 . S
C98 O101 1.160 . S
O99 C98 1.306 . S
O99 Cd100 2.228 . S
Cd100 O99 2.228 . S
Cd100 O104 2.273 . S
Cd100 O108 2.277 . S
O101 C98 1.160 . S
O101 Cd102 2.203 . S
Cd102 O101 2.203 . S
Cd102 O104 2.411 . S
Cd102 O105 2.333 . S
Cd102 O106 2.352 . S
Cd102 O110 2.277 . S
Cd102 O111 2.356 . S
C103 O108 1.209 . S
C103 O110 1.226 . S
O104 Cd100 2.273 . S
O104 Cd102 2.411 . S
O104 C107 1.320 . S
O105 Cd102 2.333 . S
O105 C107 1.214 . S
O106 Cd102 2.352 . S
O106 C109 1.258 . S
C107 O104 1.320 . S
C107 O105 1.214 . S
O108 Cd100 2.277 . S
O108 C103 1.209 . S
C109 O106 1.258 . S
C109 O111 1.282 . S
O110 Cd102 2.277 . S
O110 C103 1.226 . S
O111 Cd102 2.356 . S
O111 C109 1.282 . S
H112 C118 0.930 . S
H113 C121 0.930 . S
H114 C122 0.930 . S
H115 C123 0.930 . S
H116 C126 0.930 . S
H117 C127 0.930 . S
C118 H112 0.930 . S
C118 C119 1.355 . S
C118 C120 1.415 . S
C119 C118 1.355 . S
C119 C121 1.419 . S
C120 C118 1.415 . S
C120 C125 1.425 1_554 S
C120 C127 1.409 1_554 S
C121 H113 0.930 . S
C121 C119 1.419 . S
C121 C122 1.362 . S
C122 H114 0.930 . S
C122 C121 1.362 . S
C122 C125 1.409 1_554 S
C123 H115 0.930 . S
C123 C124 1.355 . S
C123 C125 1.415 . S
C124 C123 1.355 . S
C124 C126 1.419 . S
C125 C120 1.425 1_556 S
C125 C122 1.409 1_556 S
C125 C123 1.415 . S
C126 H116 0.930 . S
C126 C124 1.419 . S
C126 C127 1.362 . S
C127 H117 0.930 . S
C127 C120 1.409 1_556 S
C127 C126 1.362 . S
H128 C134 0.930 . S
H129 C137 0.930 . S
H130 C138 0.930 . S
H131 C139 0.930 . S
H132 C142 0.930 . S
H133 C143 0.930 . S
C134 H128 0.930 . S
C134 C135 1.355 . S
C134 C136 1.415 . S
C135 C134 1.355 . S
C135 C137 1.419 . S
C136 C134 1.415 . S
C136 C141 1.425 . S
C136 C143 1.409 . S
C137 H129 0.930 . S
C137 C135 1.419 . S
C137 C138 1.362 . S
C138 H130 0.930 . S
C138 C137 1.362 . S
C138 C141 1.409 . S
C139 H131 0.930 . S
C139 C140 1.355 . S
C139 C141 1.415 . S
C140 C139 1.355 . S
C140 C142 1.419 . S
C141 C136 1.425 . S
C141 C138 1.409 . S
C141 C139 1.415 . S
C142 H132 0.930 . S
C142 C140 1.419 . S
C142 C143 1.362 . S
C143 H133 0.930 . S
C143 C136 1.409 . S
C143 C142 1.362 . S
H144 C150 0.930 . S
H145 C153 0.930 . S
H146 C154 0.930 . S
H147 C155 0.930 . S
H148 C158 0.930 . S
H149 C159 0.930 . S
C150 H144 0.930 . S
C150 C151 1.355 . S
C150 C152 1.415 . S
C151 C150 1.355 . S
C151 C153 1.419 . S
C152 C150 1.415 . S
C152 C157 1.425 1_554 S
C152 C159 1.409 1_554 S
C153 H145 0.930 . S
C153 C151 1.419 . S
C153 C154 1.362 . S
C154 H146 0.930 . S
C154 C153 1.362 . S
C154 C157 1.409 1_554 S
C155 H147 0.930 . S
C155 C156 1.355 . S
C155 C157 1.415 . S
C156 C155 1.355 . S
C156 C158 1.419 . S
C157 C152 1.425 1_556 S
C157 C154 1.409 1_556 S
C157 C155 1.415 . S
C158 H148 0.930 . S
C158 C156 1.419 . S
C158 C159 1.362 . S
C159 H149 0.930 . S
C159 C152 1.409 1_556 S
C159 C158 1.362 . S
H160 C166 0.930 . S
H161 C169 0.930 . S
H162 C170 0.930 . S
H163 C171 0.930 . S
H164 C174 0.930 . S
H165 C175 0.930 . S
C166 H160 0.930 . S
C166 C167 1.355 . S
C166 C168 1.415 . S
C167 C166 1.355 . S
C167 C169 1.419 . S
C168 C166 1.415 . S
C168 C173 1.425 . S
C168 C175 1.409 . S
C169 H161 0.930 . S
C169 C167 1.419 . S
C169 C170 1.362 . S
C170 H162 0.930 . S
C170 C169 1.362 . S
C170 C173 1.409 . S
C171 H163 0.930 . S
C171 C172 1.355 . S
C171 C173 1.415 . S
C172 C171 1.355 . S
C172 C174 1.419 . S
C173 C168 1.425 . S
C173 C170 1.409 . S
C173 C171 1.415 . S
C174 H164 0.930 . S
C174 C172 1.419 . S
C174 C175 1.362 . S
C175 H165 0.930 . S
C175 C168 1.409 . S
C175 C174 1.362 . S
H176 C182 0.930 . S
H177 C185 0.930 . S
H178 C186 0.930 . S
H179 C187 0.930 . S
H180 C190 0.930 . S
H181 C191 0.930 . S
C182 H176 0.930 . S
C182 C183 1.355 . S
C182 C184 1.415 . S
C183 C182 1.355 . S
C183 C185 1.419 . S
C184 C182 1.415 . S
C184 C189 1.425 . S
C184 C191 1.409 . S
C185 H177 0.930 . S
C185 C183 1.419 . S
C185 C186 1.362 . S
C186 H178 0.930 . S
C186 C185 1.362 . S
C186 C189 1.409 . S
C187 H179 0.930 . S
C187 C188 1.355 . S
C187 C189 1.415 . S
C188 C187 1.355 . S
C188 C190 1.419 . S
C189 C184 1.425 . S
C189 C186 1.409 . S
C189 C187 1.415 . S
C190 H180 0.930 . S
C190 C188 1.419 . S
C190 C191 1.362 . S
C191 H181 0.930 . S
C191 C184 1.409 . S
C191 C190 1.362 . S
H192 C198 0.930 . S
H193 C201 0.930 . S
H194 C202 0.930 . S
H195 C203 0.930 . S
H196 C206 0.930 . S
H197 C207 0.930 . S
C198 H192 0.930 . S
C198 C199 1.355 . S
C198 C200 1.415 . S
C199 C198 1.355 . S
C199 C201 1.419 . S
C200 C198 1.415 . S
C200 C205 1.425 . S
C200 C207 1.409 . S
C201 H193 0.930 . S
C201 C199 1.419 . S
C201 C202 1.362 . S
C202 H194 0.930 . S
C202 C201 1.362 . S
C202 C205 1.409 . S
C203 H195 0.930 . S
C203 C204 1.355 1_565 S
C203 C205 1.415 . S
C204 C203 1.355 1_545 S
C204 C206 1.419 . S
C205 C200 1.425 . S
C205 C202 1.409 . S
C205 C203 1.415 . S
C206 H196 0.930 . S
C206 C204 1.419 . S
C206 C207 1.362 1_545 S
C207 H197 0.930 . S
C207 C200 1.409 . S
C207 C206 1.362 1_565 S
H208 C214 0.930 . S
H209 C217 0.930 . S
H210 C218 0.930 . S
H211 C219 0.930 . S
H212 C222 0.930 . S
H213 C223 0.930 . S
C214 H208 0.930 . S
C214 C215 1.355 . S
C214 C216 1.415 . S
C215 C214 1.355 . S
C215 C217 1.419 . S
C216 C214 1.415 . S
C216 C221 1.425 . S
C216 C223 1.409 . S
C217 H209 0.930 . S
C217 C215 1.419 . S
C217 C218 1.362 . S
C218 H210 0.930 . S
C218 C217 1.362 . S
C218 C221 1.409 . S
C219 H211 0.930 . S
C219 C220 1.355 . S
C219 C221 1.415 . S
C220 C219 1.355 . S
C220 C222 1.419 . S
C221 C216 1.425 . S
C221 C218 1.409 . S
C221 C219 1.415 . S
C222 H212 0.930 . S
C222 C220 1.419 . S
C222 C223 1.362 . S
C223 H213 0.930 . S
C223 C216 1.409 . S
C223 C222 1.362 . S
H224 C230 0.930 . S
H225 C233 0.930 . S
H226 C234 0.930 . S
H227 C235 0.930 . S
H228 C238 0.930 . S
H229 C239 0.930 . S
C230 H224 0.930 . S
C230 C231 1.355 . S
C230 C232 1.415 . S
C231 C230 1.355 . S
C231 C233 1.419 . S
C232 C230 1.415 . S
C232 C237 1.425 . S
C232 C239 1.409 . S
C233 H225 0.930 . S
C233 C231 1.419 . S
C233 C234 1.362 . S
C234 H226 0.930 . S
C234 C233 1.362 . S
C234 C237 1.409 . S
C235 H227 0.930 . S
C235 C236 1.355 1_545 S
C235 C237 1.415 . S
C236 C235 1.355 1_565 S
C236 C238 1.419 . S
C237 C232 1.425 . S
C237 C234 1.409 . S
C237 C235 1.415 . S
C238 H228 0.930 . S
C238 C236 1.419 . S
C238 C239 1.362 1_565 S
C239 H229 0.930 . S
C239 C232 1.409 . S
C239 C238 1.362 1_545 S
H240 C246 0.930 . S
H241 C249 0.930 . S
H242 C250 0.930 . S
H243 C251 0.930 . S
H244 C254 0.930 . S
H245 C255 0.930 . S
C246 H240 0.930 . S
C246 C247 1.355 . S
C246 C248 1.415 . S
C247 C246 1.355 . S
C247 C249 1.419 . S
C248 C246 1.415 . S
C248 C253 1.425 . S
C248 C255 1.409 . S
C249 H241 0.930 . S
C249 C247 1.419 . S
C249 C250 1.362 . S
C250 H242 0.930 . S
C250 C249 1.362 . S
C250 C253 1.409 . S
C251 H243 0.930 . S
C251 C252 1.355 . S
C251 C253 1.415 1_455 S
C252 C251 1.355 . S
C252 C254 1.419 1_455 S
C253 C248 1.425 . S
C253 C250 1.409 . S
C253 C251 1.415 1_655 S
C254 H244 0.930 . S
C254 C252 1.419 1_655 S
C254 C255 1.362 . S
C255 H245 0.930 . S
C255 C248 1.409 . S
C255 C254 1.362 . S
H256 C262 0.930 . S
H257 C265 0.930 . S
H258 C266 0.930 . S
H259 C267 0.930 . S
H260 C270 0.930 . S
H261 C271 0.930 . S
C262 H256 0.930 . S
C262 C263 1.355 . S
C262 C264 1.415 . S
C263 C262 1.355 . S
C263 C265 1.419 . S
C264 C262 1.415 . S
C264 C269 1.425 . S
C264 C271 1.409 . S
C265 H257 0.930 . S
C265 C263 1.419 . S
C265 C266 1.362 . S
C266 H258 0.930 . S
C266 C265 1.362 . S
C266 C269 1.409 . S
C267 H259 0.930 . S
C267 C268 1.355 . S
C267 C269 1.415 . S
C268 C267 1.355 . S
C268 C270 1.419 . S
C269 C264 1.425 . S
C269 C266 1.409 . S
C269 C267 1.415 . S
C270 H260 0.930 . S
C270 C268 1.419 . S
C270 C271 1.362 . S
C271 H261 0.930 . S
C271 C264 1.409 . S
C271 C270 1.362 . S
H272 C278 0.930 . S
H273 C281 0.930 . S
H274 C282 0.930 . S
H275 C283 0.930 . S
H276 C286 0.930 . S
H277 C287 0.930 . S
C278 H272 0.930 . S
C278 C279 1.355 . S
C278 C280 1.415 . S
C279 C278 1.355 . S
C279 C281 1.419 . S
C280 C278 1.415 . S
C280 C285 1.425 . S
C280 C287 1.409 . S
C281 H273 0.930 . S
C281 C279 1.419 . S
C281 C282 1.362 . S
C282 H274 0.930 . S
C282 C281 1.362 . S
C282 C285 1.409 . S
C283 H275 0.930 . S
C283 C284 1.355 . S
C283 C285 1.415 1_655 S
C284 C283 1.355 . S
C284 C286 1.419 1_655 S
C285 C280 1.425 . S
C285 C282 1.409 . S
C285 C283 1.415 1_455 S
C286 H276 0.930 . S
C286 C284 1.419 1_455 S
C286 C287 1.362 . S
C287 H277 0.930 . S
C287 C280 1.409 . S
C287 C286 1.362 . S
H288 C294 0.930 . S
H289 C297 0.930 . S
H290 C298 0.930 . S
H291 C299 0.930 . S
H292 C302 0.930 . S
H293 C303 0.930 . S
C294 H288 0.930 . S
C294 C295 1.355 . S
C294 C296 1.415 . S
C295 C294 1.355 . S
C295 C297 1.419 . S
C296 C294 1.415 . S
C296 C301 1.425 . S
C296 C303 1.409 . S
C297 H289 0.930 . S
C297 C295 1.419 . S
C297 C298 1.362 . S
C298 H290 0.930 . S
C298 C297 1.362 . S
C298 C301 1.409 . S
C299 H291 0.930 . S
C299 C300 1.355 . S
C299 C301 1.415 . S
C300 C299 1.355 . S
C300 C302 1.419 . S
C301 C296 1.425 . S
C301 C298 1.409 . S
C301 C299 1.415 . S
C302 H292 0.930 . S
C302 C300 1.419 . S
C302 C303 1.362 . S
C303 H293 0.930 . S
C303 C296 1.409 . S
C303 C302 1.362 . S
H304 C310 0.930 . S
H305 C313 0.930 . S
H306 C314 0.930 . S
H307 C315 0.930 . S
H308 C318 0.930 . S
H309 C319 0.930 . S
C310 H304 0.930 . S
C310 C311 1.355 . S
C310 C312 1.415 1_655 S
C311 C310 1.355 . S
C311 C313 1.419 . S
C312 C310 1.415 1_455 S
C312 C317 1.425 1_455 S
C312 C319 1.409 . S
C313 H305 0.930 . S
C313 C311 1.419 . S
C313 C314 1.362 . S
C314 H306 0.930 . S
C314 C313 1.362 . S
C314 C317 1.409 . S
C315 H307 0.930 . S
C315 C316 1.355 . S
C315 C317 1.415 1_455 S
C316 C315 1.355 . S
C316 C318 1.419 . S
C317 C312 1.425 1_655 S
C317 C314 1.409 . S
C317 C315 1.415 1_655 S
C318 H308 0.930 . S
C318 C316 1.419 . S
C318 C319 1.362 . S
C319 H309 0.930 . S
C319 C312 1.409 . S
C319 C318 1.362 . S
H320 C326 0.930 . S
H321 C329 0.930 1_455 S
H322 C330 0.930 . S
H323 C331 0.930 . S
H324 C334 0.930 1_655 S
H325 C335 0.930 . S
C326 H320 0.930 . S
C326 C327 1.355 . S
C326 C328 1.415 . S
C327 C326 1.355 . S
C327 C329 1.419 . S
C328 C326 1.415 . S
C328 C333 1.425 1_655 S
C328 C335 1.409 . S
C329 H321 0.930 1_655 S
C329 C327 1.419 . S
C329 C330 1.362 1_655 S
C330 H322 0.930 . S
C330 C329 1.362 1_455 S
C330 C333 1.409 . S
C331 H323 0.930 . S
C331 C332 1.355 . S
C331 C333 1.415 . S
C332 C331 1.355 . S
C332 C334 1.419 . S
C333 C328 1.425 1_455 S
C333 C330 1.409 . S
C333 C331 1.415 . S
C334 H324 0.930 1_455 S
C334 C332 1.419 . S
C334 C335 1.362 1_455 S
C335 H325 0.930 . S
C335 C328 1.409 . S
C335 C334 1.362 1_655 S
H336 C342 0.930 . S
H337 C345 0.930 . S
H338 C346 0.930 . S
H339 C347 0.930 . S
H340 C350 0.930 . S
H341 C351 0.930 . S
C342 H336 0.930 . S
C342 C343 1.355 . S
C342 C344 1.415 . S
C343 C342 1.355 . S
C343 C345 1.419 . S
C344 C342 1.415 . S
C344 C349 1.425 1_545 S
C344 C351 1.409 . S
C345 H337 0.930 . S
C345 C343 1.419 . S
C345 C346 1.362 1_545 S
C346 H338 0.930 . S
C346 C345 1.362 1_565 S
C346 C349 1.409 . S
C347 H339 0.930 . S
C347 C348 1.355 . S
C347 C349 1.415 . S
C348 C347 1.355 . S
C348 C350 1.419 . S
C349 C344 1.425 1_565 S
C349 C346 1.409 . S
C349 C347 1.415 . S
C350 H340 0.930 . S
C350 C348 1.419 . S
C350 C351 1.362 1_565 S
C351 H341 0.930 . S
C351 C344 1.409 . S
C351 C350 1.362 1_545 S
H352 C358 0.930 . S
H353 C361 0.930 . S
H354 C362 0.930 1_565 S
H355 C363 0.930 . S
H356 C366 0.930 . S
H357 C367 0.930 1_545 S
C358 H352 0.930 . S
C358 C359 1.355 . S
C358 C360 1.415 . S
C359 C358 1.355 . S
C359 C361 1.419 . S
C360 C358 1.415 . S
C360 C365 1.425 1_545 S
C360 C367 1.409 1_545 S
C361 H353 0.930 . S
C361 C359 1.419 . S
C361 C362 1.362 . S
C362 H354 0.930 1_545 S
C362 C361 1.362 . S
C362 C365 1.409 1_545 S
C363 H355 0.930 . S
C363 C364 1.355 . S
C363 C365 1.415 . S
C364 C363 1.355 . S
C364 C366 1.419 . S
C365 C360 1.425 1_565 S
C365 C362 1.409 1_565 S
C365 C363 1.415 . S
C366 H356 0.930 . S
C366 C364 1.419 . S
C366 C367 1.362 . S
C367 H357 0.930 1_565 S
C367 C360 1.409 1_565 S
C367 C366 1.362 . S
C119 C9 1.348 . S
C124 C79 1.359 . S
C135 C23 1.365 . S
C140 C93 1.347 . S
C151 C37 1.351 . S
C156 C107 1.356 . S
C167 C65 1.352 . S
C172 C51 1.354 . S
C183 C11 1.599 . S
C188 C56 1.579 . S
C199 C25 1.621 . S
C204 C70 1.590 . S
C215 C84 1.541 . S
C220 C39 1.594 . S
C231 C53 1.618 . S
C236 C98 1.600 . S
C247 C67 1.607 . S
C252 C0 1.559 . S
C263 C14 1.597 . S
C268 C81 1.613 . S
C279 C95 1.599 . S
C284 C28 1.548 . S
C295 C42 1.570 . S
C300 C109 1.594 . S
C311 C33 0.803 . S
C316 C5 0.794 . S
C327 C47 0.803 . S
C332 C19 0.794 . S
C343 C61 0.792 . S
C348 C89 0.753 . S
C359 C75 0.718 . S
C364 C103 0.678 . S
