# Generated by pormake.
# Topology kfi, (4)-cn, num edge types: 1
# Building blocks:
#     Node 0, Type 0, BuildingBlock: QUQFOY_clean_sbu_3, # of connection points: 4
#     Node 1, Type 0, BuildingBlock: QUQFOY_clean_sbu_3, # of connection points: 4
#     Node 2, Type 0, BuildingBlock: QUQFOY_clean_sbu_3, # of connection points: 4
#     Node 3, Type 0, BuildingBlock: QUQFOY_clean_sbu_3, # of connection points: 4
#     Node 4, Type 0, BuildingBlock: QUQFOY_clean_sbu_3, # of connection points: 4
#     Node 5, Type 0, BuildingBlock: QUQFOY_clean_sbu_3, # of connection points: 4
#     Node 6, Type 0, BuildingBlock: QUQFOY_clean_sbu_3, # of connection points: 4
#     Node 7, Type 0, BuildingBlock: QUQFOY_clean_sbu_3, # of connection points: 4
#     Node 8, Type 0, BuildingBlock: QUQFOY_clean_sbu_3, # of connection points: 4
#     Node 9, Type 0, BuildingBlock: QUQFOY_clean_sbu_3, # of connection points: 4
#     Node 10, Type 0, BuildingBlock: QUQFOY_clean_sbu_3, # of connection points: 4
#     Node 11, Type 0, BuildingBlock: QUQFOY_clean_sbu_3, # of connection points: 4
#     Node 12, Type 0, BuildingBlock: QUQFOY_clean_sbu_3, # of connection points: 4
#     Node 13, Type 0, BuildingBlock: QUQFOY_clean_sbu_3, # of connection points: 4
#     Node 14, Type 0, BuildingBlock: QUQFOY_clean_sbu_3, # of connection points: 4
#     Node 15, Type 0, BuildingBlock: QUQFOY_clean_sbu_3, # of connection points: 4
#     Node 16, Type 0, BuildingBlock: QUQFOY_clean_sbu_3, # of connection points: 4
#     Node 17, Type 0, BuildingBlock: QUQFOY_clean_sbu_3, # of connection points: 4
#     Node 18, Type 0, BuildingBlock: QUQFOY_clean_sbu_3, # of connection points: 4
#     Node 19, Type 0, BuildingBlock: QUQFOY_clean_sbu_3, # of connection points: 4
#     Node 20, Type 0, BuildingBlock: QUQFOY_clean_sbu_3, # of connection points: 4
#     Node 21, Type 0, BuildingBlock: QUQFOY_clean_sbu_3, # of connection points: 4
#     Node 22, Type 0, BuildingBlock: QUQFOY_clean_sbu_3, # of connection points: 4
#     Node 23, Type 0, BuildingBlock: QUQFOY_clean_sbu_3, # of connection points: 4
#     Node 24, Type 0, BuildingBlock: QUQFOY_clean_sbu_3, # of connection points: 4
#     Node 25, Type 0, BuildingBlock: QUQFOY_clean_sbu_3, # of connection points: 4
#     Node 26, Type 0, BuildingBlock: QUQFOY_clean_sbu_3, # of connection points: 4
#     Node 27, Type 0, BuildingBlock: QUQFOY_clean_sbu_3, # of connection points: 4
#     Node 28, Type 0, BuildingBlock: QUQFOY_clean_sbu_3, # of connection points: 4
#     Node 29, Type 0, BuildingBlock: QUQFOY_clean_sbu_3, # of connection points: 4
#     Node 30, Type 0, BuildingBlock: QUQFOY_clean_sbu_3, # of connection points: 4
#     Node 31, Type 0, BuildingBlock: QUQFOY_clean_sbu_3, # of connection points: 4
#     Node 32, Type 0, BuildingBlock: QUQFOY_clean_sbu_3, # of connection points: 4
#     Node 33, Type 0, BuildingBlock: QUQFOY_clean_sbu_3, # of connection points: 4
#     Node 34, Type 0, BuildingBlock: QUQFOY_clean_sbu_3, # of connection points: 4
#     Node 35, Type 0, BuildingBlock: QUQFOY_clean_sbu_3, # of connection points: 4
#     Node 36, Type 0, BuildingBlock: QUQFOY_clean_sbu_3, # of connection points: 4
#     Node 37, Type 0, BuildingBlock: QUQFOY_clean_sbu_3, # of connection points: 4
#     Node 38, Type 0, BuildingBlock: QUQFOY_clean_sbu_3, # of connection points: 4
#     Node 39, Type 0, BuildingBlock: QUQFOY_clean_sbu_3, # of connection points: 4
#     Node 40, Type 0, BuildingBlock: QUQFOY_clean_sbu_3, # of connection points: 4
#     Node 41, Type 0, BuildingBlock: QUQFOY_clean_sbu_3, # of connection points: 4
#     Node 42, Type 0, BuildingBlock: QUQFOY_clean_sbu_3, # of connection points: 4
#     Node 43, Type 0, BuildingBlock: QUQFOY_clean_sbu_3, # of connection points: 4
#     Node 44, Type 0, BuildingBlock: QUQFOY_clean_sbu_3, # of connection points: 4
#     Node 45, Type 0, BuildingBlock: QUQFOY_clean_sbu_3, # of connection points: 4
#     Node 46, Type 0, BuildingBlock: QUQFOY_clean_sbu_3, # of connection points: 4
#     Node 47, Type 0, BuildingBlock: QUQFOY_clean_sbu_3, # of connection points: 4
#     Node 48, Type 0, BuildingBlock: QUQFOY_clean_sbu_3, # of connection points: 4
#     Node 49, Type 0, BuildingBlock: QUQFOY_clean_sbu_3, # of connection points: 4
#     Node 50, Type 0, BuildingBlock: QUQFOY_clean_sbu_3, # of connection points: 4
#     Node 51, Type 0, BuildingBlock: QUQFOY_clean_sbu_3, # of connection points: 4
#     Node 52, Type 0, BuildingBlock: QUQFOY_clean_sbu_3, # of connection points: 4
#     Node 53, Type 0, BuildingBlock: QUQFOY_clean_sbu_3, # of connection points: 4
#     Node 54, Type 0, BuildingBlock: QUQFOY_clean_sbu_3, # of connection points: 4
#     Node 55, Type 0, BuildingBlock: QUQFOY_clean_sbu_3, # of connection points: 4
#     Node 56, Type 0, BuildingBlock: QUQFOY_clean_sbu_3, # of connection points: 4
#     Node 57, Type 0, BuildingBlock: QUQFOY_clean_sbu_3, # of connection points: 4
#     Node 58, Type 0, BuildingBlock: QUQFOY_clean_sbu_3, # of connection points: 4
#     Node 59, Type 0, BuildingBlock: QUQFOY_clean_sbu_3, # of connection points: 4
#     Node 60, Type 0, BuildingBlock: QUQFOY_clean_sbu_3, # of connection points: 4
#     Node 61, Type 0, BuildingBlock: QUQFOY_clean_sbu_3, # of connection points: 4
#     Node 62, Type 0, BuildingBlock: QUQFOY_clean_sbu_3, # of connection points: 4
#     Node 63, Type 0, BuildingBlock: QUQFOY_clean_sbu_3, # of connection points: 4
#     Node 64, Type 0, BuildingBlock: QUQFOY_clean_sbu_3, # of connection points: 4
#     Node 65, Type 0, BuildingBlock: QUQFOY_clean_sbu_3, # of connection points: 4
#     Node 66, Type 0, BuildingBlock: QUQFOY_clean_sbu_3, # of connection points: 4
#     Node 67, Type 0, BuildingBlock: QUQFOY_clean_sbu_3, # of connection points: 4
#     Node 68, Type 0, BuildingBlock: QUQFOY_clean_sbu_3, # of connection points: 4
#     Node 69, Type 0, BuildingBlock: QUQFOY_clean_sbu_3, # of connection points: 4
#     Node 70, Type 0, BuildingBlock: QUQFOY_clean_sbu_3, # of connection points: 4
#     Node 71, Type 0, BuildingBlock: QUQFOY_clean_sbu_3, # of connection points: 4
#     Node 72, Type 0, BuildingBlock: QUQFOY_clean_sbu_3, # of connection points: 4
#     Node 73, Type 0, BuildingBlock: QUQFOY_clean_sbu_3, # of connection points: 4
#     Node 74, Type 0, BuildingBlock: QUQFOY_clean_sbu_3, # of connection points: 4
#     Node 75, Type 0, BuildingBlock: QUQFOY_clean_sbu_3, # of connection points: 4
#     Node 76, Type 0, BuildingBlock: QUQFOY_clean_sbu_3, # of connection points: 4
#     Node 77, Type 0, BuildingBlock: QUQFOY_clean_sbu_3, # of connection points: 4
#     Node 78, Type 0, BuildingBlock: QUQFOY_clean_sbu_3, # of connection points: 4
#     Node 79, Type 0, BuildingBlock: QUQFOY_clean_sbu_3, # of connection points: 4
#     Node 80, Type 0, BuildingBlock: QUQFOY_clean_sbu_3, # of connection points: 4
#     Node 81, Type 0, BuildingBlock: QUQFOY_clean_sbu_3, # of connection points: 4
#     Node 82, Type 0, BuildingBlock: QUQFOY_clean_sbu_3, # of connection points: 4
#     Node 83, Type 0, BuildingBlock: QUQFOY_clean_sbu_3, # of connection points: 4
#     Node 84, Type 0, BuildingBlock: QUQFOY_clean_sbu_3, # of connection points: 4
#     Node 85, Type 0, BuildingBlock: QUQFOY_clean_sbu_3, # of connection points: 4
#     Node 86, Type 0, BuildingBlock: QUQFOY_clean_sbu_3, # of connection points: 4
#     Node 87, Type 0, BuildingBlock: QUQFOY_clean_sbu_3, # of connection points: 4
#     Node 88, Type 0, BuildingBlock: QUQFOY_clean_sbu_3, # of connection points: 4
#     Node 89, Type 0, BuildingBlock: QUQFOY_clean_sbu_3, # of connection points: 4
#     Node 90, Type 0, BuildingBlock: QUQFOY_clean_sbu_3, # of connection points: 4
#     Node 91, Type 0, BuildingBlock: QUQFOY_clean_sbu_3, # of connection points: 4
#     Node 92, Type 0, BuildingBlock: QUQFOY_clean_sbu_3, # of connection points: 4
#     Node 93, Type 0, BuildingBlock: QUQFOY_clean_sbu_3, # of connection points: 4
#     Node 94, Type 0, BuildingBlock: QUQFOY_clean_sbu_3, # of connection points: 4
#     Node 95, Type 0, BuildingBlock: QUQFOY_clean_sbu_3, # of connection points: 4
#     Edge 96, Type (0, 0), BuildingBlock: ZUJKAS_clean_linker_0, # of connection points: 2
#     Edge 97, Type (0, 0), BuildingBlock: ZUJKAS_clean_linker_0, # of connection points: 2
#     Edge 98, Type (0, 0), BuildingBlock: ZUJKAS_clean_linker_0, # of connection points: 2
#     Edge 99, Type (0, 0), BuildingBlock: ZUJKAS_clean_linker_0, # of connection points: 2
#     Edge 100, Type (0, 0), BuildingBlock: ZUJKAS_clean_linker_0, # of connection points: 2
#     Edge 101, Type (0, 0), BuildingBlock: ZUJKAS_clean_linker_0, # of connection points: 2
#     Edge 102, Type (0, 0), BuildingBlock: ZUJKAS_clean_linker_0, # of connection points: 2
#     Edge 103, Type (0, 0), BuildingBlock: ZUJKAS_clean_linker_0, # of connection points: 2
#     Edge 104, Type (0, 0), BuildingBlock: ZUJKAS_clean_linker_0, # of connection points: 2
#     Edge 105, Type (0, 0), BuildingBlock: ZUJKAS_clean_linker_0, # of connection points: 2
#     Edge 106, Type (0, 0), BuildingBlock: ZUJKAS_clean_linker_0, # of connection points: 2
#     Edge 107, Type (0, 0), BuildingBlock: ZUJKAS_clean_linker_0, # of connection points: 2
#     Edge 108, Type (0, 0), BuildingBlock: ZUJKAS_clean_linker_0, # of connection points: 2
#     Edge 109, Type (0, 0), BuildingBlock: ZUJKAS_clean_linker_0, # of connection points: 2
#     Edge 110, Type (0, 0), BuildingBlock: ZUJKAS_clean_linker_0, # of connection points: 2
#     Edge 111, Type (0, 0), BuildingBlock: ZUJKAS_clean_linker_0, # of connection points: 2
#     Edge 112, Type (0, 0), BuildingBlock: ZUJKAS_clean_linker_0, # of connection points: 2
#     Edge 113, Type (0, 0), BuildingBlock: ZUJKAS_clean_linker_0, # of connection points: 2
#     Edge 114, Type (0, 0), BuildingBlock: ZUJKAS_clean_linker_0, # of connection points: 2
#     Edge 115, Type (0, 0), BuildingBlock: ZUJKAS_clean_linker_0, # of connection points: 2
#     Edge 116, Type (0, 0), BuildingBlock: ZUJKAS_clean_linker_0, # of connection points: 2
#     Edge 117, Type (0, 0), BuildingBlock: ZUJKAS_clean_linker_0, # of connection points: 2
#     Edge 118, Type (0, 0), BuildingBlock: ZUJKAS_clean_linker_0, # of connection points: 2
#     Edge 119, Type (0, 0), BuildingBlock: ZUJKAS_clean_linker_0, # of connection points: 2
#     Edge 120, Type (0, 0), BuildingBlock: ZUJKAS_clean_linker_0, # of connection points: 2
#     Edge 121, Type (0, 0), BuildingBlock: ZUJKAS_clean_linker_0, # of connection points: 2
#     Edge 122, Type (0, 0), BuildingBlock: ZUJKAS_clean_linker_0, # of connection points: 2
#     Edge 123, Type (0, 0), BuildingBlock: ZUJKAS_clean_linker_0, # of connection points: 2
#     Edge 124, Type (0, 0), BuildingBlock: ZUJKAS_clean_linker_0, # of connection points: 2
#     Edge 125, Type (0, 0), BuildingBlock: ZUJKAS_clean_linker_0, # of connection points: 2
#     Edge 126, Type (0, 0), BuildingBlock: ZUJKAS_clean_linker_0, # of connection points: 2
#     Edge 127, Type (0, 0), BuildingBlock: ZUJKAS_clean_linker_0, # of connection points: 2
#     Edge 128, Type (0, 0), BuildingBlock: ZUJKAS_clean_linker_0, # of connection points: 2
#     Edge 129, Type (0, 0), BuildingBlock: ZUJKAS_clean_linker_0, # of connection points: 2
#     Edge 130, Type (0, 0), BuildingBlock: ZUJKAS_clean_linker_0, # of connection points: 2
#     Edge 131, Type (0, 0), BuildingBlock: ZUJKAS_clean_linker_0, # of connection points: 2
#     Edge 132, Type (0, 0), BuildingBlock: ZUJKAS_clean_linker_0, # of connection points: 2
#     Edge 133, Type (0, 0), BuildingBlock: ZUJKAS_clean_linker_0, # of connection points: 2
#     Edge 134, Type (0, 0), BuildingBlock: ZUJKAS_clean_linker_0, # of connection points: 2
#     Edge 135, Type (0, 0), BuildingBlock: ZUJKAS_clean_linker_0, # of connection points: 2
#     Edge 136, Type (0, 0), BuildingBlock: ZUJKAS_clean_linker_0, # of connection points: 2
#     Edge 137, Type (0, 0), BuildingBlock: ZUJKAS_clean_linker_0, # of connection points: 2
#     Edge 138, Type (0, 0), BuildingBlock: ZUJKAS_clean_linker_0, # of connection points: 2
#     Edge 139, Type (0, 0), BuildingBlock: ZUJKAS_clean_linker_0, # of connection points: 2
#     Edge 140, Type (0, 0), BuildingBlock: ZUJKAS_clean_linker_0, # of connection points: 2
#     Edge 141, Type (0, 0), BuildingBlock: ZUJKAS_clean_linker_0, # of connection points: 2
#     Edge 142, Type (0, 0), BuildingBlock: ZUJKAS_clean_linker_0, # of connection points: 2
#     Edge 143, Type (0, 0), BuildingBlock: ZUJKAS_clean_linker_0, # of connection points: 2
#     Edge 144, Type (0, 0), BuildingBlock: ZUJKAS_clean_linker_0, # of connection points: 2
#     Edge 145, Type (0, 0), BuildingBlock: ZUJKAS_clean_linker_0, # of connection points: 2
#     Edge 146, Type (0, 0), BuildingBlock: ZUJKAS_clean_linker_0, # of connection points: 2
#     Edge 147, Type (0, 0), BuildingBlock: ZUJKAS_clean_linker_0, # of connection points: 2
#     Edge 148, Type (0, 0), BuildingBlock: ZUJKAS_clean_linker_0, # of connection points: 2
#     Edge 149, Type (0, 0), BuildingBlock: ZUJKAS_clean_linker_0, # of connection points: 2
#     Edge 150, Type (0, 0), BuildingBlock: ZUJKAS_clean_linker_0, # of connection points: 2
#     Edge 151, Type (0, 0), BuildingBlock: ZUJKAS_clean_linker_0, # of connection points: 2
#     Edge 152, Type (0, 0), BuildingBlock: ZUJKAS_clean_linker_0, # of connection points: 2
#     Edge 153, Type (0, 0), BuildingBlock: ZUJKAS_clean_linker_0, # of connection points: 2
#     Edge 154, Type (0, 0), BuildingBlock: ZUJKAS_clean_linker_0, # of connection points: 2
#     Edge 155, Type (0, 0), BuildingBlock: ZUJKAS_clean_linker_0, # of connection points: 2
#     Edge 156, Type (0, 0), BuildingBlock: ZUJKAS_clean_linker_0, # of connection points: 2
#     Edge 157, Type (0, 0), BuildingBlock: ZUJKAS_clean_linker_0, # of connection points: 2
#     Edge 158, Type (0, 0), BuildingBlock: ZUJKAS_clean_linker_0, # of connection points: 2
#     Edge 159, Type (0, 0), BuildingBlock: ZUJKAS_clean_linker_0, # of connection points: 2
#     Edge 160, Type (0, 0), BuildingBlock: ZUJKAS_clean_linker_0, # of connection points: 2
#     Edge 161, Type (0, 0), BuildingBlock: ZUJKAS_clean_linker_0, # of connection points: 2
#     Edge 162, Type (0, 0), BuildingBlock: ZUJKAS_clean_linker_0, # of connection points: 2
#     Edge 163, Type (0, 0), BuildingBlock: ZUJKAS_clean_linker_0, # of connection points: 2
#     Edge 164, Type (0, 0), BuildingBlock: ZUJKAS_clean_linker_0, # of connection points: 2
#     Edge 165, Type (0, 0), BuildingBlock: ZUJKAS_clean_linker_0, # of connection points: 2
#     Edge 166, Type (0, 0), BuildingBlock: ZUJKAS_clean_linker_0, # of connection points: 2
#     Edge 167, Type (0, 0), BuildingBlock: ZUJKAS_clean_linker_0, # of connection points: 2
#     Edge 168, Type (0, 0), BuildingBlock: ZUJKAS_clean_linker_0, # of connection points: 2
#     Edge 169, Type (0, 0), BuildingBlock: ZUJKAS_clean_linker_0, # of connection points: 2
#     Edge 170, Type (0, 0), BuildingBlock: ZUJKAS_clean_linker_0, # of connection points: 2
#     Edge 171, Type (0, 0), BuildingBlock: ZUJKAS_clean_linker_0, # of connection points: 2
#     Edge 172, Type (0, 0), BuildingBlock: ZUJKAS_clean_linker_0, # of connection points: 2
#     Edge 173, Type (0, 0), BuildingBlock: ZUJKAS_clean_linker_0, # of connection points: 2
#     Edge 174, Type (0, 0), BuildingBlock: ZUJKAS_clean_linker_0, # of connection points: 2
#     Edge 175, Type (0, 0), BuildingBlock: ZUJKAS_clean_linker_0, # of connection points: 2
#     Edge 176, Type (0, 0), BuildingBlock: ZUJKAS_clean_linker_0, # of connection points: 2
#     Edge 177, Type (0, 0), BuildingBlock: ZUJKAS_clean_linker_0, # of connection points: 2
#     Edge 178, Type (0, 0), BuildingBlock: ZUJKAS_clean_linker_0, # of connection points: 2
#     Edge 179, Type (0, 0), BuildingBlock: ZUJKAS_clean_linker_0, # of connection points: 2
#     Edge 180, Type (0, 0), BuildingBlock: ZUJKAS_clean_linker_0, # of connection points: 2
#     Edge 181, Type (0, 0), BuildingBlock: ZUJKAS_clean_linker_0, # of connection points: 2
#     Edge 182, Type (0, 0), BuildingBlock: ZUJKAS_clean_linker_0, # of connection points: 2
#     Edge 183, Type (0, 0), BuildingBlock: ZUJKAS_clean_linker_0, # of connection points: 2
#     Edge 184, Type (0, 0), BuildingBlock: ZUJKAS_clean_linker_0, # of connection points: 2
#     Edge 185, Type (0, 0), BuildingBlock: ZUJKAS_clean_linker_0, # of connection points: 2
#     Edge 186, Type (0, 0), BuildingBlock: ZUJKAS_clean_linker_0, # of connection points: 2
#     Edge 187, Type (0, 0), BuildingBlock: ZUJKAS_clean_linker_0, # of connection points: 2
#     Edge 188, Type (0, 0), BuildingBlock: ZUJKAS_clean_linker_0, # of connection points: 2
#     Edge 189, Type (0, 0), BuildingBlock: ZUJKAS_clean_linker_0, # of connection points: 2
#     Edge 190, Type (0, 0), BuildingBlock: ZUJKAS_clean_linker_0, # of connection points: 2
#     Edge 191, Type (0, 0), BuildingBlock: ZUJKAS_clean_linker_0, # of connection points: 2
#     Edge 192, Type (0, 0), BuildingBlock: ZUJKAS_clean_linker_0, # of connection points: 2
#     Edge 193, Type (0, 0), BuildingBlock: ZUJKAS_clean_linker_0, # of connection points: 2
#     Edge 194, Type (0, 0), BuildingBlock: ZUJKAS_clean_linker_0, # of connection points: 2
#     Edge 195, Type (0, 0), BuildingBlock: ZUJKAS_clean_linker_0, # of connection points: 2
#     Edge 196, Type (0, 0), BuildingBlock: ZUJKAS_clean_linker_0, # of connection points: 2
#     Edge 197, Type (0, 0), BuildingBlock: ZUJKAS_clean_linker_0, # of connection points: 2
#     Edge 198, Type (0, 0), BuildingBlock: ZUJKAS_clean_linker_0, # of connection points: 2
#     Edge 199, Type (0, 0), BuildingBlock: ZUJKAS_clean_linker_0, # of connection points: 2
#     Edge 200, Type (0, 0), BuildingBlock: ZUJKAS_clean_linker_0, # of connection points: 2
#     Edge 201, Type (0, 0), BuildingBlock: ZUJKAS_clean_linker_0, # of connection points: 2
#     Edge 202, Type (0, 0), BuildingBlock: ZUJKAS_clean_linker_0, # of connection points: 2
#     Edge 203, Type (0, 0), BuildingBlock: ZUJKAS_clean_linker_0, # of connection points: 2
#     Edge 204, Type (0, 0), BuildingBlock: ZUJKAS_clean_linker_0, # of connection points: 2
#     Edge 205, Type (0, 0), BuildingBlock: ZUJKAS_clean_linker_0, # of connection points: 2
#     Edge 206, Type (0, 0), BuildingBlock: ZUJKAS_clean_linker_0, # of connection points: 2
#     Edge 207, Type (0, 0), BuildingBlock: ZUJKAS_clean_linker_0, # of connection points: 2
#     Edge 208, Type (0, 0), BuildingBlock: ZUJKAS_clean_linker_0, # of connection points: 2
#     Edge 209, Type (0, 0), BuildingBlock: ZUJKAS_clean_linker_0, # of connection points: 2
#     Edge 210, Type (0, 0), BuildingBlock: ZUJKAS_clean_linker_0, # of connection points: 2
#     Edge 211, Type (0, 0), BuildingBlock: ZUJKAS_clean_linker_0, # of connection points: 2
#     Edge 212, Type (0, 0), BuildingBlock: ZUJKAS_clean_linker_0, # of connection points: 2
#     Edge 213, Type (0, 0), BuildingBlock: ZUJKAS_clean_linker_0, # of connection points: 2
#     Edge 214, Type (0, 0), BuildingBlock: ZUJKAS_clean_linker_0, # of connection points: 2
#     Edge 215, Type (0, 0), BuildingBlock: ZUJKAS_clean_linker_0, # of connection points: 2
#     Edge 216, Type (0, 0), BuildingBlock: ZUJKAS_clean_linker_0, # of connection points: 2
#     Edge 217, Type (0, 0), BuildingBlock: ZUJKAS_clean_linker_0, # of connection points: 2
#     Edge 218, Type (0, 0), BuildingBlock: ZUJKAS_clean_linker_0, # of connection points: 2
#     Edge 219, Type (0, 0), BuildingBlock: ZUJKAS_clean_linker_0, # of connection points: 2
#     Edge 220, Type (0, 0), BuildingBlock: ZUJKAS_clean_linker_0, # of connection points: 2
#     Edge 221, Type (0, 0), BuildingBlock: ZUJKAS_clean_linker_0, # of connection points: 2
#     Edge 222, Type (0, 0), BuildingBlock: ZUJKAS_clean_linker_0, # of connection points: 2
#     Edge 223, Type (0, 0), BuildingBlock: ZUJKAS_clean_linker_0, # of connection points: 2
#     Edge 224, Type (0, 0), BuildingBlock: ZUJKAS_clean_linker_0, # of connection points: 2
#     Edge 225, Type (0, 0), BuildingBlock: ZUJKAS_clean_linker_0, # of connection points: 2
#     Edge 226, Type (0, 0), BuildingBlock: ZUJKAS_clean_linker_0, # of connection points: 2
#     Edge 227, Type (0, 0), BuildingBlock: ZUJKAS_clean_linker_0, # of connection points: 2
#     Edge 228, Type (0, 0), BuildingBlock: ZUJKAS_clean_linker_0, # of connection points: 2
#     Edge 229, Type (0, 0), BuildingBlock: ZUJKAS_clean_linker_0, # of connection points: 2
#     Edge 230, Type (0, 0), BuildingBlock: ZUJKAS_clean_linker_0, # of connection points: 2
#     Edge 231, Type (0, 0), BuildingBlock: ZUJKAS_clean_linker_0, # of connection points: 2
#     Edge 232, Type (0, 0), BuildingBlock: ZUJKAS_clean_linker_0, # of connection points: 2
#     Edge 233, Type (0, 0), BuildingBlock: ZUJKAS_clean_linker_0, # of connection points: 2
#     Edge 234, Type (0, 0), BuildingBlock: ZUJKAS_clean_linker_0, # of connection points: 2
#     Edge 235, Type (0, 0), BuildingBlock: ZUJKAS_clean_linker_0, # of connection points: 2
#     Edge 236, Type (0, 0), BuildingBlock: ZUJKAS_clean_linker_0, # of connection points: 2
#     Edge 237, Type (0, 0), BuildingBlock: ZUJKAS_clean_linker_0, # of connection points: 2
#     Edge 238, Type (0, 0), BuildingBlock: ZUJKAS_clean_linker_0, # of connection points: 2
#     Edge 239, Type (0, 0), BuildingBlock: ZUJKAS_clean_linker_0, # of connection points: 2
#     Edge 240, Type (0, 0), BuildingBlock: ZUJKAS_clean_linker_0, # of connection points: 2
#     Edge 241, Type (0, 0), BuildingBlock: ZUJKAS_clean_linker_0, # of connection points: 2
#     Edge 242, Type (0, 0), BuildingBlock: ZUJKAS_clean_linker_0, # of connection points: 2
#     Edge 243, Type (0, 0), BuildingBlock: ZUJKAS_clean_linker_0, # of connection points: 2
#     Edge 244, Type (0, 0), BuildingBlock: ZUJKAS_clean_linker_0, # of connection points: 2
#     Edge 245, Type (0, 0), BuildingBlock: ZUJKAS_clean_linker_0, # of connection points: 2
#     Edge 246, Type (0, 0), BuildingBlock: ZUJKAS_clean_linker_0, # of connection points: 2
#     Edge 247, Type (0, 0), BuildingBlock: ZUJKAS_clean_linker_0, # of connection points: 2
#     Edge 248, Type (0, 0), BuildingBlock: ZUJKAS_clean_linker_0, # of connection points: 2
#     Edge 249, Type (0, 0), BuildingBlock: ZUJKAS_clean_linker_0, # of connection points: 2
#     Edge 250, Type (0, 0), BuildingBlock: ZUJKAS_clean_linker_0, # of connection points: 2
#     Edge 251, Type (0, 0), BuildingBlock: ZUJKAS_clean_linker_0, # of connection points: 2
#     Edge 252, Type (0, 0), BuildingBlock: ZUJKAS_clean_linker_0, # of connection points: 2
#     Edge 253, Type (0, 0), BuildingBlock: ZUJKAS_clean_linker_0, # of connection points: 2
#     Edge 254, Type (0, 0), BuildingBlock: ZUJKAS_clean_linker_0, # of connection points: 2
#     Edge 255, Type (0, 0), BuildingBlock: ZUJKAS_clean_linker_0, # of connection points: 2
#     Edge 256, Type (0, 0), BuildingBlock: ZUJKAS_clean_linker_0, # of connection points: 2
#     Edge 257, Type (0, 0), BuildingBlock: ZUJKAS_clean_linker_0, # of connection points: 2
#     Edge 258, Type (0, 0), BuildingBlock: ZUJKAS_clean_linker_0, # of connection points: 2
#     Edge 259, Type (0, 0), BuildingBlock: ZUJKAS_clean_linker_0, # of connection points: 2
#     Edge 260, Type (0, 0), BuildingBlock: ZUJKAS_clean_linker_0, # of connection points: 2
#     Edge 261, Type (0, 0), BuildingBlock: ZUJKAS_clean_linker_0, # of connection points: 2
#     Edge 262, Type (0, 0), BuildingBlock: ZUJKAS_clean_linker_0, # of connection points: 2
#     Edge 263, Type (0, 0), BuildingBlock: ZUJKAS_clean_linker_0, # of connection points: 2
#     Edge 264, Type (0, 0), BuildingBlock: ZUJKAS_clean_linker_0, # of connection points: 2
#     Edge 265, Type (0, 0), BuildingBlock: ZUJKAS_clean_linker_0, # of connection points: 2
#     Edge 266, Type (0, 0), BuildingBlock: ZUJKAS_clean_linker_0, # of connection points: 2
#     Edge 267, Type (0, 0), BuildingBlock: ZUJKAS_clean_linker_0, # of connection points: 2
#     Edge 268, Type (0, 0), BuildingBlock: ZUJKAS_clean_linker_0, # of connection points: 2
#     Edge 269, Type (0, 0), BuildingBlock: ZUJKAS_clean_linker_0, # of connection points: 2
#     Edge 270, Type (0, 0), BuildingBlock: ZUJKAS_clean_linker_0, # of connection points: 2
#     Edge 271, Type (0, 0), BuildingBlock: ZUJKAS_clean_linker_0, # of connection points: 2
#     Edge 272, Type (0, 0), BuildingBlock: ZUJKAS_clean_linker_0, # of connection points: 2
#     Edge 273, Type (0, 0), BuildingBlock: ZUJKAS_clean_linker_0, # of connection points: 2
#     Edge 274, Type (0, 0), BuildingBlock: ZUJKAS_clean_linker_0, # of connection points: 2
#     Edge 275, Type (0, 0), BuildingBlock: ZUJKAS_clean_linker_0, # of connection points: 2
#     Edge 276, Type (0, 0), BuildingBlock: ZUJKAS_clean_linker_0, # of connection points: 2
#     Edge 277, Type (0, 0), BuildingBlock: ZUJKAS_clean_linker_0, # of connection points: 2
#     Edge 278, Type (0, 0), BuildingBlock: ZUJKAS_clean_linker_0, # of connection points: 2
#     Edge 279, Type (0, 0), BuildingBlock: ZUJKAS_clean_linker_0, # of connection points: 2
#     Edge 280, Type (0, 0), BuildingBlock: ZUJKAS_clean_linker_0, # of connection points: 2
#     Edge 281, Type (0, 0), BuildingBlock: ZUJKAS_clean_linker_0, # of connection points: 2
#     Edge 282, Type (0, 0), BuildingBlock: ZUJKAS_clean_linker_0, # of connection points: 2
#     Edge 283, Type (0, 0), BuildingBlock: ZUJKAS_clean_linker_0, # of connection points: 2
#     Edge 284, Type (0, 0), BuildingBlock: ZUJKAS_clean_linker_0, # of connection points: 2
#     Edge 285, Type (0, 0), BuildingBlock: ZUJKAS_clean_linker_0, # of connection points: 2
#     Edge 286, Type (0, 0), BuildingBlock: ZUJKAS_clean_linker_0, # of connection points: 2
#     Edge 287, Type (0, 0), BuildingBlock: ZUJKAS_clean_linker_0, # of connection points: 2
# Relax obj value: 0.151
# Max RMSD: 0.094
# Mean RMSD: 0.094
data_MOF--net-kfi--node1-QUQFOY_clean_sbu_3--edge1-ZUJKAS_clean_linker_0
_symmetry_space_group_name_H-M    P1
_symmetry_Int_Tables_number       1
_symmetry_cell_setting            triclinic
loop_
_symmetry_equiv_pos_as_xyz
'x, y, z'
_cell_length_a     118.28462
_cell_length_b     118.32208
_cell_length_c     118.37613
_cell_angle_alpha  90.025427
_cell_angle_beta   90.009841
_cell_angle_gamma 90.002075
loop_
_atom_site_label
_atom_site_type_symbol
_atom_site_fract_x
_atom_site_fract_y
_atom_site_fract_z
_atom_type_partial_charge
C0 C 0.08911 0.17403 0.30195 0.0
O1 O 0.0933 0.18153 0.29552 0.0
Cd2 Cd 0.08543 0.19981 0.29192 0.0
O3 O 0.07985 0.17581 0.30716 0.0
Cd4 Cd 0.06593 0.19148 0.3088 0.0
C5 C 0.08557 0.20962 0.31919 0.0
O6 O 0.06571 0.19694 0.28889 0.0
O7 O 0.05704 0.20816 0.30027 0.0
O8 O 0.05114 0.17715 0.30988 0.0
C9 C 0.05967 0.20568 0.2902 0.0
O10 O 0.08914 0.21057 0.30909 0.0
C11 C 0.04624 0.18143 0.31842 0.0
O12 O 0.07771 0.20266 0.32163 0.0
O13 O 0.05072 0.1902 0.32269 0.0
C14 C 0.807 0.08898 0.29909 0.0
O15 O 0.79977 0.09291 0.2922 0.0
Cd16 Cd 0.78079 0.08629 0.29011 0.0
O17 O 0.80458 0.08056 0.30536 0.0
Cd18 Cd 0.78835 0.06751 0.30822 0.0
C19 C 0.77179 0.08881 0.31771 0.0
O20 O 0.78241 0.06632 0.2885 0.0
O21 O 0.77098 0.05902 0.30061 0.0
O22 O 0.80235 0.05251 0.30953 0.0
C23 C 0.77337 0.06089 0.29034 0.0
O24 O 0.77096 0.09182 0.30741 0.0
C25 C 0.79812 0.04789 0.31824 0.0
O26 O 0.77819 0.08063 0.32056 0.0
O27 O 0.7895 0.05263 0.32255 0.0
C28 C 0.89051 0.8067 0.29938 0.0
O29 O 0.88657 0.79934 0.29262 0.0
Cd30 Cd 0.89336 0.78049 0.29021 0.0
O31 O 0.89907 0.80447 0.30555 0.0
Cd32 Cd 0.91204 0.78806 0.30832 0.0
C33 C 0.89081 0.77116 0.31758 0.0
O34 O 0.91334 0.78226 0.28861 0.0
O35 O 0.92019 0.7705 0.30064 0.0
O36 O 0.9282 0.80078 0.30979 0.0
C37 C 0.91859 0.77311 0.29039 0.0
O38 O 0.88779 0.77031 0.30729 0.0
C39 C 0.93177 0.79682 0.3191 0.0
O40 O 0.89892 0.77765 0.32042 0.0
O41 O 0.92591 0.78903 0.3236 0.0
C42 C 0.17068 0.88983 0.29979 0.0
O43 O 0.17786 0.88567 0.29298 0.0
Cd44 Cd 0.19699 0.89176 0.29094 0.0
O45 O 0.17328 0.89822 0.30604 0.0
Cd46 Cd 0.19001 0.91078 0.30878 0.0
C47 C 0.20597 0.88918 0.31852 0.0
O48 O 0.19588 0.91174 0.28903 0.0
O49 O 0.20773 0.91849 0.30105 0.0
O50 O 0.17667 0.9264 0.31002 0.0
C51 C 0.20512 0.91684 0.2908 0.0
O52 O 0.20675 0.88608 0.30824 0.0
C53 C 0.18115 0.93092 0.31866 0.0
O54 O 0.19977 0.89753 0.3213 0.0
O55 O 0.18954 0.92582 0.32299 0.0
C56 C 0.08872 0.80783 0.67807 0.0
O57 O 0.09305 0.80082 0.68495 0.0
Cd58 Cd 0.08761 0.78154 0.6871 0.0
O59 O 0.08041 0.80495 0.67183 0.0
Cd60 Cd 0.0683 0.78783 0.6692 0.0
C61 C 0.09051 0.77251 0.65956 0.0
O62 O 0.06756 0.78185 0.68891 0.0
O63 O 0.06108 0.76988 0.67683 0.0
O64 O 0.05158 0.79981 0.66844 0.0
C65 C 0.0627 0.77249 0.68709 0.0
O66 O 0.09386 0.7722 0.66978 0.0
C67 C 0.04791 0.79593 0.65914 0.0
O68 O 0.08168 0.77805 0.65683 0.0
O69 O 0.05396 0.78851 0.65428 0.0
C70 C 0.17085 0.08717 0.67813 0.0
O71 O 0.1779 0.09112 0.6852 0.0
Cd72 Cd 0.19709 0.08515 0.68721 0.0
O73 O 0.17358 0.07901 0.67164 0.0
Cd74 Cd 0.1904 0.06663 0.66865 0.0
C75 C 0.20622 0.08881 0.65982 0.0
O76 O 0.19652 0.06504 0.68831 0.0
O77 O 0.20821 0.05879 0.67585 0.0
O78 O 0.17799 0.05027 0.66713 0.0
C79 C 0.20578 0.0601 0.68619 0.0
O80 O 0.20665 0.09179 0.67015 0.0
C81 C 0.18192 0.04684 0.65776 0.0
O82 O 0.20043 0.08025 0.65679 0.0
O83 O 0.18956 0.05287 0.65323 0.0
C84 C 0.89027 0.17128 0.67832 0.0
O85 O 0.88636 0.17828 0.68546 0.0
Cd86 Cd 0.89253 0.19731 0.688 0.0
O87 O 0.89853 0.17399 0.67194 0.0
Cd88 Cd 0.91114 0.19075 0.66935 0.0
C89 C 0.88918 0.20706 0.66077 0.0
O90 O 0.91259 0.19628 0.68914 0.0
O91 O 0.919 0.20835 0.67716 0.0
O92 O 0.9274 0.17822 0.6677 0.0
C93 C 0.91758 0.20558 0.6874 0.0
O94 O 0.88619 0.20734 0.6711 0.0
C95 C 0.93098 0.18235 0.65846 0.0
O96 O 0.89764 0.20117 0.65764 0.0
O97 O 0.92508 0.19016 0.65406 0.0
C98 C 0.80736 0.89013 0.67792 0.0
O99 O 0.80038 0.88598 0.68493 0.0
Cd100 Cd 0.78132 0.89197 0.68765 0.0
O101 O 0.80459 0.89853 0.67175 0.0
Cd102 Cd 0.78769 0.911 0.66945 0.0
C103 C 0.7713 0.88926 0.66045 0.0
O104 O 0.78225 0.912 0.6893 0.0
O105 O 0.77011 0.91867 0.67751 0.0
O106 O 0.79992 0.92752 0.66824 0.0
C107 C 0.77293 0.91703 0.68771 0.0
O108 O 0.77113 0.88601 0.67071 0.0
C109 C 0.79592 0.9311 0.65895 0.0
O110 O 0.77715 0.8978 0.65748 0.0
O111 O 0.78833 0.9251 0.65431 0.0
C112 C 0.30052 0.09007 0.17287 0.0
O113 O 0.29406 0.09423 0.18038 0.0
Cd114 Cd 0.29026 0.08705 0.19891 0.0
O115 O 0.30595 0.08092 0.1747 0.0
Cd116 Cd 0.30777 0.0671 0.19051 0.0
C117 C 0.31737 0.08697 0.20928 0.0
O118 O 0.28795 0.06743 0.19572 0.0
O119 O 0.29841 0.05694 0.20624 0.0
O120 O 0.30916 0.05143 0.17715 0.0
C121 C 0.28865 0.06074 0.20401 0.0
O122 O 0.30732 0.09079 0.20979 0.0
C123 C 0.31832 0.04753 0.18118 0.0
O124 O 0.31988 0.07892 0.20257 0.0
O125 O 0.32281 0.05305 0.18922 0.0
C126 C 0.89117 0.2983 0.16941 0.0
O127 O 0.88713 0.29136 0.17654 0.0
Cd128 Cd 0.89322 0.28915 0.19568 0.0
O129 O 0.89948 0.30464 0.17203 0.0
Cd130 Cd 0.91195 0.30744 0.18877 0.0
C131 C 0.89021 0.3165 0.20513 0.0
O132 O 0.91328 0.28776 0.1949 0.0
O133 O 0.91979 0.30016 0.20652 0.0
O134 O 0.9285 0.30864 0.17659 0.0
C135 C 0.9183 0.28983 0.20413 0.0
O136 O 0.88716 0.30619 0.20568 0.0
C137 C 0.93187 0.31812 0.18035 0.0
O138 O 0.89856 0.31944 0.199 0.0
O139 O 0.92573 0.32285 0.18777 0.0
C140 C 0.67865 0.88846 0.17249 0.0
O141 O 0.6859 0.88463 0.17942 0.0
Cd142 Cd 0.68853 0.8911 0.19831 0.0
O143 O 0.6723 0.89674 0.17521 0.0
Cd144 Cd 0.66985 0.90968 0.1917 0.0
C145 C 0.66124 0.888 0.20825 0.0
O146 O 0.68976 0.91112 0.19683 0.0
O147 O 0.67805 0.91805 0.20888 0.0
O148 O 0.66814 0.92484 0.17795 0.0
C149 C 0.68823 0.91642 0.20599 0.0
O150 O 0.67158 0.885 0.2084 0.0
C151 C 0.65948 0.92937 0.18237 0.0
O152 O 0.65804 0.89644 0.20237 0.0
O153 O 0.65533 0.9245 0.19099 0.0
C154 C 0.08706 0.67956 0.16932 0.0
O155 O 0.09088 0.68668 0.17638 0.0
Cd156 Cd 0.08495 0.68865 0.19555 0.0
O157 O 0.07897 0.67295 0.172 0.0
Cd158 Cd 0.0665 0.66986 0.18875 0.0
C159 C 0.08876 0.66121 0.2046 0.0
O160 O 0.06486 0.68951 0.19482 0.0
O161 O 0.05858 0.67709 0.20652 0.0
O162 O 0.05012 0.66811 0.17637 0.0
C163 C 0.05993 0.68743 0.20409 0.0
O164 O 0.09169 0.67156 0.20503 0.0
C165 C 0.04684 0.65869 0.18033 0.0
O166 O 0.08021 0.65814 0.19882 0.0
O167 O 0.05295 0.65426 0.18796 0.0
C168 C 0.30072 0.89033 0.80731 0.0
O169 O 0.29365 0.88637 0.80026 0.0
Cd170 Cd 0.29089 0.89278 0.78133 0.0
O171 O 0.30696 0.89873 0.80469 0.0
Cd172 Cd 0.30941 0.91149 0.78809 0.0
C173 C 0.31804 0.88999 0.77118 0.0
O174 O 0.28957 0.9128 0.78261 0.0
O175 O 0.30148 0.91963 0.77069 0.0
O176 O 0.31092 0.92761 0.80079 0.0
C177 C 0.29125 0.91797 0.7734 0.0
O178 O 0.30771 0.88693 0.77088 0.0
C179 C 0.32021 0.93123 0.79681 0.0
O180 O 0.32114 0.89827 0.77733 0.0
O181 O 0.32469 0.92542 0.78897 0.0
C182 C 0.08876 0.3 0.80734 0.0
O183 O 0.09294 0.29303 0.80033 0.0
Cd184 Cd 0.08719 0.29064 0.78117 0.0
O185 O 0.08042 0.30625 0.80456 0.0
Cd186 Cd 0.06806 0.30875 0.7876 0.0
C187 C 0.09008 0.31808 0.77182 0.0
O188 O 0.06714 0.28899 0.78185 0.0
O189 O 0.06065 0.30096 0.76979 0.0
O190 O 0.05143 0.30983 0.79969 0.0
C191 C 0.06224 0.29072 0.77249 0.0
O192 O 0.09337 0.30783 0.77152 0.0
C193 C 0.04787 0.31915 0.79576 0.0
O194 O 0.08139 0.32091 0.77751 0.0
O195 O 0.05393 0.32386 0.78826 0.0
C196 C 0.67922 0.0885 0.80601 0.0
O197 O 0.6861 0.09247 0.79879 0.0
Cd198 Cd 0.68801 0.08593 0.77981 0.0
O199 O 0.67298 0.08006 0.80357 0.0
Cd200 Cd 0.67016 0.06694 0.78732 0.0
C201 C 0.66022 0.08832 0.77115 0.0
O202 O 0.68986 0.06593 0.78121 0.0
O203 O 0.67768 0.0586 0.76986 0.0
O204 O 0.66917 0.05188 0.80128 0.0
C205 C 0.68796 0.06051 0.77218 0.0
O206 O 0.67046 0.09159 0.77049 0.0
C207 C 0.66044 0.0472 0.79716 0.0
O208 O 0.65754 0.07982 0.7772 0.0
O209 O 0.65597 0.05192 0.78862 0.0
C210 C 0.88998 0.67957 0.80756 0.0
O211 O 0.88599 0.68655 0.80045 0.0
Cd212 Cd 0.89223 0.68882 0.78139 0.0
O213 O 0.89834 0.67327 0.80497 0.0
Cd214 Cd 0.91106 0.67052 0.78841 0.0
C215 C 0.88944 0.66137 0.77198 0.0
O216 O 0.91229 0.69019 0.78232 0.0
O217 O 0.91905 0.67789 0.77075 0.0
O218 O 0.92738 0.66962 0.8009 0.0
C219 C 0.91739 0.6882 0.77313 0.0
O220 O 0.88627 0.67166 0.77159 0.0
C221 C 0.93091 0.66013 0.79734 0.0
O222 O 0.8979 0.65844 0.77796 0.0
O223 O 0.92497 0.65525 0.78984 0.0
C224 C 0.17223 0.2997 0.08812 0.0
O225 O 0.17937 0.29273 0.09209 0.0
Cd226 Cd 0.19825 0.29009 0.08533 0.0
O227 O 0.1747 0.30582 0.07961 0.0
Cd228 Cd 0.19102 0.30824 0.06654 0.0
C229 C 0.20804 0.31741 0.08767 0.0
O230 O 0.19664 0.28838 0.06536 0.0
O231 O 0.20817 0.30034 0.05796 0.0
O232 O 0.1773 0.30975 0.05128 0.0
C233 C 0.20566 0.29011 0.05986 0.0
O234 O 0.2086 0.30711 0.09077 0.0
C235 C 0.18158 0.31856 0.0469 0.0
O236 O 0.20168 0.32035 0.0795 0.0
O237 O 0.19007 0.32283 0.05189 0.0
C238 C 0.172 0.67891 0.88987 0.0
O239 O 0.1792 0.68589 0.88601 0.0
Cd240 Cd 0.19808 0.68836 0.89278 0.0
O241 O 0.1744 0.67267 0.89832 0.0
Cd242 Cd 0.19065 0.6701 0.9115 0.0
C243 C 0.20769 0.66094 0.8904 0.0
O244 O 0.19633 0.68993 0.91273 0.0
O245 O 0.20786 0.67794 0.92007 0.0
O246 O 0.17684 0.66852 0.92668 0.0
C247 C 0.20538 0.68818 0.91819 0.0
O248 O 0.20831 0.67125 0.88736 0.0
C249 C 0.18122 0.65982 0.93116 0.0
O250 O 0.20127 0.65797 0.89853 0.0
O251 O 0.18979 0.65562 0.92624 0.0
C252 C 0.29852 0.17047 0.89034 0.0
O253 O 0.29116 0.17747 0.88688 0.0
Cd254 Cd 0.2891 0.19634 0.89363 0.0
O255 O 0.30513 0.17301 0.89847 0.0
Cd256 Cd 0.30781 0.18914 0.91184 0.0
C257 C 0.31657 0.20574 0.89035 0.0
O258 O 0.28804 0.19464 0.91365 0.0
O259 O 0.30001 0.20655 0.92034 0.0
O260 O 0.30959 0.17528 0.92693 0.0
C261 C 0.28976 0.20381 0.91888 0.0
O262 O 0.30622 0.20614 0.88741 0.0
C263 C 0.31842 0.17956 0.93128 0.0
O264 O 0.3197 0.19973 0.89871 0.0
O265 O 0.32257 0.18814 0.92635 0.0
C266 C 0.80751 0.3001 0.88947 0.0
O267 O 0.80056 0.29295 0.88549 0.0
Cd268 Cd 0.78151 0.29055 0.89162 0.0
O269 O 0.80474 0.30642 0.89775 0.0
Cd270 Cd 0.7881 0.30893 0.9105 0.0
C271 C 0.77199 0.318 0.88869 0.0
O272 O 0.78259 0.2891 0.91165 0.0
O273 O 0.77064 0.30097 0.9185 0.0
O274 O 0.80155 0.31026 0.92599 0.0
C275 C 0.77336 0.29076 0.91681 0.0
O276 O 0.77176 0.3077 0.88555 0.0
C277 C 0.7972 0.31899 0.93045 0.0
O278 O 0.77776 0.32102 0.89727 0.0
O279 O 0.78879 0.32335 0.92539 0.0
C280 C 0.68002 0.80635 0.8902 0.0
O281 O 0.6871 0.79921 0.88645 0.0
Cd282 Cd 0.68888 0.78018 0.8929 0.0
O283 O 0.67349 0.80381 0.89839 0.0
Cd284 Cd 0.67039 0.7875 0.91138 0.0
C285 C 0.66121 0.77137 0.88964 0.0
O286 O 0.69009 0.78154 0.91293 0.0
O287 O 0.67779 0.7701 0.9199 0.0
O288 O 0.6689 0.80149 0.92637 0.0
C289 C 0.68811 0.77248 0.91828 0.0
O290 O 0.67154 0.77082 0.88665 0.0
C291 C 0.66013 0.79726 0.93089 0.0
O292 O 0.65823 0.77732 0.8981 0.0
O293 O 0.65586 0.78865 0.92609 0.0
C294 C 0.80654 0.67717 0.08909 0.0
O295 O 0.79914 0.68372 0.09329 0.0
Cd296 Cd 0.78028 0.68611 0.0864 0.0
O297 O 0.80435 0.67134 0.08029 0.0
Cd298 Cd 0.78816 0.66895 0.06703 0.0
C299 C 0.77121 0.65851 0.0876 0.0
O300 O 0.78225 0.68874 0.06655 0.0
O301 O 0.77094 0.67694 0.05858 0.0
O302 O 0.80205 0.66789 0.05186 0.0
C303 C 0.77332 0.68713 0.06087 0.0
O304 O 0.77027 0.66865 0.09107 0.0
C305 C 0.79777 0.65924 0.04717 0.0
O306 O 0.77778 0.65608 0.07942 0.0
O307 O 0.7892 0.65488 0.05194 0.0
C308 C 0.29986 0.80723 0.08775 0.0
O309 O 0.29305 0.79993 0.0917 0.0
Cd310 Cd 0.29023 0.78115 0.08473 0.0
O311 O 0.30596 0.80496 0.07916 0.0
Cd312 Cd 0.30854 0.78847 0.06632 0.0
C313 C 0.31735 0.77123 0.08737 0.0
O314 O 0.28874 0.78293 0.06479 0.0
O315 O 0.30072 0.77093 0.05826 0.0
O316 O 0.31011 0.80102 0.05007 0.0
C317 C 0.29047 0.77371 0.05965 0.0
O318 O 0.30696 0.77026 0.09005 0.0
C319 C 0.31942 0.79699 0.04656 0.0
O320 O 0.32046 0.77807 0.07966 0.0
O321 O 0.32391 0.78927 0.0525 0.0
C322 C 0.67797 0.17134 0.0889 0.0
O323 O 0.68474 0.1786 0.09299 0.0
Cd324 Cd 0.68719 0.19749 0.08623 0.0
O325 O 0.67195 0.1737 0.08028 0.0
Cd326 Cd 0.66951 0.18997 0.06715 0.0
C327 C 0.65966 0.20683 0.08805 0.0
O328 O 0.68931 0.19587 0.06631 0.0
O329 O 0.6773 0.20731 0.05886 0.0
O330 O 0.66847 0.17615 0.05194 0.0
C331 C 0.68754 0.2049 0.06085 0.0
O332 O 0.6699 0.20759 0.09128 0.0
C333 C 0.6598 0.1804 0.04726 0.0
O334 O 0.65693 0.20036 0.07988 0.0
O335 O 0.65537 0.18891 0.05208 0.0
C336 C 0.89059 0.80829 0.67834 0.0
O337 O 0.88634 0.80129 0.68527 0.0
Cd338 Cd 0.89182 0.78197 0.68736 0.0
O339 O 0.89884 0.80544 0.67202 0.0
Cd340 Cd 0.91101 0.7884 0.66933 0.0
C341 C 0.88885 0.77289 0.65984 0.0
O342 O 0.91188 0.78225 0.68902 0.0
O343 O 0.91836 0.77047 0.67677 0.0
O344 O 0.92765 0.8005 0.66833 0.0
C345 C 0.91673 0.77291 0.68706 0.0
O346 O 0.88559 0.77249 0.67009 0.0
C347 C 0.93125 0.79653 0.65904 0.0
O348 O 0.89755 0.77859 0.65706 0.0
O349 O 0.92521 0.78902 0.65431 0.0
C350 C 0.17027 0.89089 0.67923 0.0
O351 O 0.17714 0.88667 0.68631 0.0
Cd352 Cd 0.19649 0.89198 0.68851 0.0
O353 O 0.17331 0.89901 0.67282 0.0
Cd354 Cd 0.19051 0.91094 0.67012 0.0
C355 C 0.20586 0.88846 0.66115 0.0
O356 O 0.19634 0.91206 0.68986 0.0
O357 O 0.20846 0.91817 0.67776 0.0
O358 O 0.17866 0.9277 0.66881 0.0
C359 C 0.20578 0.91677 0.68802 0.0
O360 O 0.20607 0.88531 0.67144 0.0
C361 C 0.18259 0.93104 0.65941 0.0
O362 O 0.20034 0.89721 0.6582 0.0
O363 O 0.19002 0.92482 0.65478 0.0
C364 C 0.08765 0.16953 0.6789 0.0
O365 O 0.09173 0.17647 0.686 0.0
Cd366 Cd 0.08617 0.19572 0.68825 0.0
O367 O 0.07951 0.17242 0.67245 0.0
Cd368 Cd 0.06729 0.18947 0.66976 0.0
C369 C 0.08957 0.20516 0.66089 0.0
O370 O 0.0661 0.19528 0.6895 0.0
O371 O 0.05986 0.20733 0.6774 0.0
O372 O 0.05059 0.1775 0.66847 0.0
C373 C 0.0613 0.20467 0.68766 0.0
O374 O 0.0927 0.20537 0.67119 0.0
C375 C 0.04717 0.18146 0.65911 0.0
O376 O 0.08089 0.19955 0.65788 0.0
O377 O 0.05336 0.1889 0.65446 0.0
C378 C 0.8078 0.08784 0.67839 0.0
O379 O 0.8007 0.09179 0.6854 0.0
Cd380 Cd 0.78156 0.08566 0.68766 0.0
O381 O 0.80517 0.07959 0.67197 0.0
Cd382 Cd 0.78843 0.06711 0.66908 0.0
C383 C 0.77212 0.08899 0.66034 0.0
O384 O 0.78243 0.06561 0.68878 0.0
O385 O 0.77072 0.05916 0.67644 0.0
O386 O 0.8009 0.05078 0.66757 0.0
C387 C 0.77318 0.0606 0.68676 0.0
O388 O 0.77151 0.09183 0.6707 0.0
C389 C 0.79691 0.04728 0.65824 0.0
O390 O 0.77831 0.08073 0.65725 0.0
O391 O 0.78922 0.05327 0.65373 0.0
C392 C 0.88928 0.17258 0.29954 0.0
O393 O 0.88544 0.17977 0.29256 0.0
Cd394 Cd 0.89233 0.19862 0.29035 0.0
O395 O 0.89771 0.17498 0.3058 0.0
Cd396 Cd 0.91092 0.19108 0.30861 0.0
C397 C 0.88968 0.20789 0.31784 0.0
O398 O 0.91232 0.19683 0.28888 0.0
O399 O 0.91972 0.2083 0.3009 0.0
O400 O 0.92575 0.17693 0.30994 0.0
C401 C 0.91784 0.20583 0.29066 0.0
O402 O 0.88669 0.20857 0.30752 0.0
C403 C 0.93034 0.18098 0.31875 0.0
O404 O 0.89788 0.20156 0.3208 0.0
O405 O 0.92567 0.18962 0.3231 0.0
C406 C 0.80719 0.8901 0.2993 0.0
O407 O 0.79976 0.88631 0.29254 0.0
Cd408 Cd 0.78116 0.89385 0.28998 0.0
O409 O 0.80516 0.89877 0.30538 0.0
Cd410 Cd 0.78928 0.91232 0.30802 0.0
C411 C 0.77151 0.89199 0.31732 0.0
O412 O 0.78378 0.91367 0.28821 0.0
O413 O 0.7722 0.92118 0.30002 0.0
O414 O 0.80343 0.92718 0.3095 0.0
C415 C 0.77484 0.91932 0.28982 0.0
O416 O 0.77042 0.88916 0.30699 0.0
C417 C 0.79925 0.93175 0.31826 0.0
O418 O 0.77857 0.89956 0.32029 0.0
O419 O 0.7906 0.92702 0.32252 0.0
C420 C 0.0882 0.80703 0.29868 0.0
O421 O 0.09223 0.80004 0.29159 0.0
Cd422 Cd 0.08626 0.7809 0.28917 0.0
O423 O 0.07996 0.80425 0.30503 0.0
Cd424 Cd 0.06756 0.78743 0.30775 0.0
C425 C 0.08954 0.77121 0.31644 0.0
O426 O 0.06617 0.78148 0.28803 0.0
O427 O 0.05969 0.76974 0.30033 0.0
O428 O 0.05111 0.79972 0.30897 0.0
C429 C 0.0612 0.77221 0.29002 0.0
O430 O 0.09256 0.77095 0.30611 0.0
C431 C 0.04767 0.79597 0.31841 0.0
O432 O 0.08105 0.77706 0.31955 0.0
O433 O 0.05373 0.78846 0.32313 0.0
C434 C 0.16994 0.08893 0.29953 0.0
O435 O 0.17659 0.09256 0.29193 0.0
Cd436 Cd 0.19566 0.08629 0.28996 0.0
O437 O 0.17302 0.081 0.30612 0.0
Cd438 Cd 0.18975 0.06836 0.30815 0.0
C439 C 0.20555 0.09007 0.31714 0.0
O440 O 0.1954 0.06616 0.28836 0.0
O441 O 0.20811 0.06221 0.30078 0.0
O442 O 0.17677 0.0525 0.30936 0.0
C443 C 0.20507 0.06211 0.29052 0.0
O444 O 0.2059 0.09288 0.30676 0.0
C445 C 0.18116 0.04813 0.31811 0.0
O446 O 0.19956 0.08173 0.32035 0.0
O447 O 0.18943 0.05338 0.32251 0.0
C448 C 0.67915 0.88923 0.80688 0.0
O449 O 0.68595 0.88535 0.79953 0.0
Cd450 Cd 0.68831 0.89247 0.78081 0.0
O451 O 0.67306 0.89785 0.80471 0.0
Cd452 Cd 0.67044 0.9113 0.7887 0.0
C453 C 0.66073 0.89054 0.77158 0.0
O454 O 0.69021 0.91237 0.78298 0.0
O455 O 0.67833 0.91991 0.77148 0.0
O456 O 0.6693 0.92634 0.80269 0.0
C457 C 0.68855 0.91795 0.77401 0.0
O458 O 0.67099 0.88738 0.77076 0.0
C459 C 0.6605 0.93091 0.79861 0.0
O460 O 0.65796 0.89863 0.77813 0.0
O461 O 0.65606 0.92612 0.79009 0.0
C462 C 0.08848 0.6785 0.80694 0.0
O463 O 0.09249 0.68517 0.79956 0.0
Cd464 Cd 0.08558 0.68771 0.78076 0.0
O465 O 0.07976 0.67253 0.80479 0.0
Cd466 Cd 0.06654 0.67004 0.78855 0.0
C467 C 0.0873 0.66024 0.77141 0.0
O468 O 0.06566 0.68974 0.78259 0.0
O469 O 0.05838 0.67777 0.77102 0.0
O470 O 0.05042 0.66903 0.80138 0.0
C471 C 0.06032 0.68801 0.77349 0.0
O472 O 0.09058 0.67046 0.77054 0.0
C473 C 0.04673 0.65968 0.79762 0.0
O474 O 0.0792 0.6576 0.77799 0.0
O475 O 0.05248 0.65498 0.78987 0.0
C476 C 0.29891 0.08815 0.80551 0.0
O477 O 0.29208 0.09194 0.79814 0.0
Cd478 Cd 0.28993 0.08492 0.77929 0.0
O479 O 0.30514 0.07962 0.80335 0.0
Cd480 Cd 0.30807 0.06638 0.78725 0.0
C481 C 0.31745 0.08748 0.77029 0.0
O482 O 0.28848 0.06492 0.78091 0.0
O483 O 0.30096 0.05794 0.76967 0.0
O484 O 0.30922 0.05025 0.80002 0.0
C485 C 0.29061 0.05958 0.77188 0.0
O486 O 0.30715 0.09048 0.76932 0.0
C487 C 0.31876 0.04684 0.79648 0.0
O488 O 0.32024 0.07942 0.77685 0.0
O489 O 0.32352 0.05277 0.78892 0.0
C490 C 0.89138 0.29926 0.80808 0.0
O491 O 0.88738 0.29208 0.80118 0.0
Cd492 Cd 0.89304 0.28986 0.78195 0.0
O493 O 0.89947 0.30577 0.80518 0.0
Cd494 Cd 0.91171 0.30853 0.7882 0.0
C495 C 0.88935 0.31719 0.77252 0.0
O496 O 0.91313 0.28877 0.78248 0.0
O497 O 0.91933 0.30089 0.77043 0.0
O498 O 0.92815 0.31013 0.80048 0.0
C499 C 0.91797 0.29061 0.77312 0.0
O500 O 0.88635 0.30685 0.77228 0.0
C501 C 0.93164 0.3194 0.79637 0.0
O502 O 0.89798 0.32029 0.77817 0.0
O503 O 0.92562 0.32385 0.78868 0.0
C504 C 0.67957 0.087 0.1701 0.0
O505 O 0.68668 0.09096 0.1771 0.0
Cd506 Cd 0.68872 0.0851 0.19626 0.0
O507 O 0.67311 0.07881 0.17287 0.0
Cd508 Cd 0.67038 0.06621 0.18958 0.0
C509 C 0.66109 0.08829 0.2052 0.0
O510 O 0.69015 0.06505 0.19548 0.0
O511 O 0.67798 0.0584 0.20723 0.0
O512 O 0.66889 0.05055 0.17631 0.0
C513 C 0.68826 0.06001 0.20472 0.0
O514 O 0.67139 0.09142 0.2056 0.0
C515 C 0.66016 0.04621 0.18079 0.0
O516 O 0.65818 0.07963 0.1995 0.0
O517 O 0.6559 0.05142 0.18915 0.0
C518 C 0.89103 0.67937 0.17032 0.0
O519 O 0.88719 0.68662 0.17724 0.0
Cd520 Cd 0.89309 0.6889 0.19638 0.0
O521 O 0.89908 0.67279 0.17316 0.0
Cd522 Cd 0.91149 0.66995 0.19 0.0
C523 C 0.8892 0.66164 0.20597 0.0
O524 O 0.91319 0.68968 0.19568 0.0
O525 O 0.91938 0.6775 0.20768 0.0
O526 O 0.92786 0.66832 0.17766 0.0
C527 C 0.91809 0.68779 0.205 0.0
O528 O 0.88632 0.67202 0.20618 0.0
C529 C 0.93123 0.65892 0.18157 0.0
O530 O 0.89774 0.65841 0.20026 0.0
O531 O 0.92517 0.6544 0.18919 0.0
C532 C 0.29927 0.89028 0.17079 0.0
O533 O 0.29228 0.88629 0.17789 0.0
Cd534 Cd 0.28991 0.89248 0.19695 0.0
O535 O 0.3056 0.89861 0.1734 0.0
Cd536 Cd 0.3083 0.91122 0.19011 0.0
C537 C 0.3173 0.8895 0.20646 0.0
O538 O 0.28855 0.9125 0.19589 0.0
O539 O 0.30064 0.91896 0.20784 0.0
O540 O 0.30954 0.92745 0.17751 0.0
C541 C 0.29036 0.91746 0.20519 0.0
O542 O 0.30696 0.88653 0.20701 0.0
C543 C 0.31877 0.93119 0.1815 0.0
O544 O 0.32032 0.89779 0.2003 0.0
O545 O 0.32337 0.9254 0.18928 0.0
C546 C 0.08853 0.29947 0.17007 0.0
O547 O 0.09252 0.2924 0.1771 0.0
Cd548 Cd 0.08654 0.29006 0.19622 0.0
O549 O 0.08029 0.30587 0.17278 0.0
Cd550 Cd 0.06773 0.30858 0.18951 0.0
C551 C 0.0896 0.31743 0.20581 0.0
O552 O 0.06649 0.28881 0.19532 0.0
O553 O 0.05961 0.30093 0.20701 0.0
O554 O 0.05148 0.31001 0.17694 0.0
C555 C 0.06134 0.29066 0.20451 0.0
O556 O 0.09272 0.30713 0.20608 0.0
C557 C 0.0479 0.31931 0.18091 0.0
O558 O 0.08108 0.32045 0.19995 0.0
O559 O 0.05378 0.32385 0.18866 0.0
C560 C 0.80722 0.67913 0.89054 0.0
O561 O 0.80017 0.68632 0.88682 0.0
Cd562 Cd 0.78108 0.68818 0.89313 0.0
O563 O 0.80456 0.67253 0.89863 0.0
Cd564 Cd 0.78818 0.6694 0.91151 0.0
C565 C 0.77201 0.66061 0.88963 0.0
O566 O 0.78227 0.68909 0.91318 0.0
O567 O 0.7708 0.67681 0.92011 0.0
O568 O 0.80207 0.66794 0.92655 0.0
C569 C 0.77318 0.68713 0.91847 0.0
O570 O 0.77161 0.67097 0.88673 0.0
C571 C 0.79799 0.65904 0.93094 0.0
O572 O 0.77789 0.65748 0.89809 0.0
O573 O 0.78948 0.65468 0.92605 0.0
C574 C 0.80626 0.30044 0.0889 0.0
O575 O 0.79898 0.29378 0.09314 0.0
Cd576 Cd 0.77994 0.29149 0.08678 0.0
O577 O 0.80381 0.30646 0.08031 0.0
Cd578 Cd 0.78725 0.3091 0.06755 0.0
C579 C 0.77088 0.31908 0.0888 0.0
O580 O 0.7813 0.28932 0.06684 0.0
O581 O 0.76974 0.30129 0.05952 0.0
O582 O 0.80077 0.31017 0.05207 0.0
C583 C 0.77219 0.29106 0.0615 0.0
O584 O 0.77005 0.30884 0.09203 0.0
C585 C 0.79639 0.31882 0.04747 0.0
O586 O 0.77724 0.32175 0.08054 0.0
O587 O 0.78796 0.32323 0.05245 0.0
C588 C 0.67973 0.80708 0.08821 0.0
O589 O 0.68671 0.79993 0.09215 0.0
Cd590 Cd 0.68905 0.78099 0.08549 0.0
O591 O 0.67352 0.80461 0.07976 0.0
Cd592 Cd 0.67099 0.78837 0.06661 0.0
C593 C 0.66156 0.77156 0.08776 0.0
O594 O 0.69078 0.78254 0.06551 0.0
O595 O 0.67873 0.77111 0.05809 0.0
O596 O 0.66969 0.80217 0.05144 0.0
C597 C 0.68898 0.77351 0.06004 0.0
O598 O 0.67183 0.77093 0.09093 0.0
C599 C 0.66083 0.79805 0.04701 0.0
O600 O 0.65872 0.77787 0.07951 0.0
O601 O 0.65645 0.78957 0.05193 0.0
C602 C 0.17254 0.6782 0.08893 0.0
O603 O 0.1797 0.68517 0.09286 0.0
Cd604 Cd 0.19849 0.68782 0.08594 0.0
O605 O 0.17497 0.67208 0.0804 0.0
Cd606 Cd 0.19124 0.66963 0.06723 0.0
C607 C 0.20837 0.66053 0.08827 0.0
O608 O 0.19658 0.68952 0.06599 0.0
O609 O 0.20836 0.67776 0.05868 0.0
O610 O 0.17733 0.66811 0.05216 0.0
C611 C 0.20563 0.68795 0.06049 0.0
O612 O 0.20895 0.67084 0.09131 0.0
C613 C 0.18163 0.65941 0.0476 0.0
O614 O 0.20194 0.65753 0.08016 0.0
O615 O 0.19025 0.65518 0.05241 0.0
C616 C 0.30012 0.17267 0.08859 0.0
O617 O 0.29306 0.17996 0.09211 0.0
Cd618 Cd 0.29023 0.19844 0.08436 0.0
O619 O 0.30637 0.17476 0.08007 0.0
Cd620 Cd 0.30897 0.19055 0.06644 0.0
C621 C 0.31734 0.20862 0.08693 0.0
O622 O 0.28907 0.19581 0.06452 0.0
O623 O 0.30103 0.20742 0.05728 0.0
O624 O 0.31107 0.17619 0.05185 0.0
C625 C 0.29078 0.20474 0.05888 0.0
O626 O 0.3069 0.20956 0.08939 0.0
C627 C 0.31969 0.18063 0.04726 0.0
O628 O 0.32069 0.20154 0.07954 0.0
O629 O 0.32363 0.18948 0.05187 0.0
C630 C 0.17146 0.2995 0.88979 0.0
O631 O 0.17831 0.29223 0.88588 0.0
Cd632 Cd 0.19735 0.2897 0.89209 0.0
O633 O 0.17433 0.30589 0.89799 0.0
Cd634 Cd 0.191 0.3083 0.9107 0.0
C635 C 0.20743 0.31692 0.88896 0.0
O636 O 0.19618 0.28836 0.91214 0.0
O637 O 0.20826 0.30015 0.91892 0.0
O638 O 0.17735 0.31021 0.92594 0.0
C639 C 0.20539 0.28995 0.91736 0.0
O640 O 0.20756 0.30658 0.88594 0.0
C641 C 0.18196 0.3188 0.93043 0.0
O642 O 0.20156 0.3201 0.89741 0.0
O643 O 0.19062 0.32279 0.9255 0.0
C644 C 0.67973 0.17074 0.8896 0.0
O645 O 0.68671 0.17787 0.88565 0.0
Cd646 Cd 0.68855 0.19693 0.8919 0.0
O647 O 0.67335 0.17332 0.89789 0.0
Cd648 Cd 0.67055 0.18977 0.91079 0.0
C649 C 0.66084 0.20573 0.8892 0.0
O650 O 0.69025 0.19566 0.91192 0.0
O651 O 0.67825 0.20741 0.91887 0.0
O652 O 0.66951 0.17614 0.92615 0.0
C653 C 0.6885 0.20485 0.91711 0.0
O654 O 0.6711 0.20625 0.88596 0.0
C655 C 0.66069 0.18026 0.93066 0.0
O656 O 0.65807 0.19985 0.89777 0.0
O657 O 0.6562 0.18866 0.92572 0.0
C658 C 0.2998 0.80802 0.89038 0.0
O659 O 0.29256 0.80114 0.88643 0.0
Cd660 Cd 0.29013 0.78198 0.8923 0.0
O661 O 0.30627 0.80513 0.8985 0.0
Cd662 Cd 0.30888 0.78826 0.91088 0.0
C663 C 0.31734 0.77209 0.88879 0.0
O664 O 0.28906 0.78262 0.91238 0.0
O665 O 0.30121 0.7707 0.91881 0.0
O666 O 0.31056 0.80072 0.92717 0.0
C667 C 0.29093 0.77333 0.91736 0.0
O668 O 0.30699 0.77196 0.88579 0.0
C669 C 0.31985 0.79664 0.93067 0.0
O670 O 0.32053 0.77784 0.89732 0.0
O671 O 0.32427 0.78887 0.92471 0.0
C672 C 0.58821 0.66987 0.80016 0.0
O673 O 0.59247 0.67671 0.79308 0.0
Cd674 Cd 0.58681 0.69585 0.79023 0.0
O675 O 0.57986 0.67284 0.80632 0.0
Cd676 Cd 0.56763 0.6899 0.80847 0.0
C677 C 0.58965 0.70595 0.81739 0.0
O678 O 0.56676 0.69522 0.78858 0.0
O679 O 0.56012 0.70746 0.80027 0.0
O680 O 0.5511 0.67771 0.80994 0.0
C681 C 0.56181 0.70459 0.7901 0.0
O682 O 0.59293 0.706 0.80714 0.0
C683 C 0.54749 0.68194 0.81911 0.0
O684 O 0.581 0.70029 0.82037 0.0
O685 O 0.55346 0.68968 0.82355 0.0
C686 C 0.30781 0.58918 0.79939 0.0
O687 O 0.30051 0.59334 0.7927 0.0
Cd688 Cd 0.28148 0.58696 0.79029 0.0
O689 O 0.3054 0.58064 0.8055 0.0
Cd690 Cd 0.28871 0.56807 0.80827 0.0
C691 C 0.27203 0.58947 0.81762 0.0
O692 O 0.28278 0.56696 0.78852 0.0
O693 O 0.27115 0.55999 0.80063 0.0
O694 O 0.30118 0.5517 0.80969 0.0
C695 C 0.27364 0.5617 0.79036 0.0
O696 O 0.27128 0.59258 0.80734 0.0
C697 C 0.29716 0.54818 0.819 0.0
O698 O 0.27842 0.58127 0.82043 0.0
O699 O 0.28948 0.55416 0.82352 0.0
C700 C 0.38827 0.30739 0.80058 0.0
O701 O 0.38398 0.30057 0.79348 0.0
Cd702 Cd 0.38986 0.28152 0.79054 0.0
O703 O 0.3967 0.30444 0.80661 0.0
Cd704 Cd 0.40922 0.28755 0.80847 0.0
C705 C 0.38752 0.27142 0.81778 0.0
O706 O 0.40986 0.28251 0.78847 0.0
O707 O 0.41687 0.27024 0.7999 0.0
O708 O 0.42489 0.30078 0.80996 0.0
C709 C 0.41502 0.27323 0.7898 0.0
O710 O 0.38413 0.27137 0.80757 0.0
C711 C 0.4295 0.29604 0.81839 0.0
O712 O 0.39618 0.27712 0.82068 0.0
O713 O 0.42444 0.28752 0.82252 0.0
C714 C 0.66871 0.39064 0.79967 0.0
O715 O 0.67555 0.38647 0.79253 0.0
Cd716 Cd 0.69485 0.39189 0.79005 0.0
O717 O 0.67171 0.3988 0.80605 0.0
Cd718 Cd 0.68883 0.41087 0.80856 0.0
C719 C 0.70462 0.38861 0.81731 0.0
O720 O 0.6946 0.41195 0.78877 0.0
O721 O 0.70657 0.41837 0.80087 0.0
O722 O 0.67681 0.42752 0.81011 0.0
C723 C 0.70398 0.41677 0.79061 0.0
O724 O 0.70473 0.38546 0.80701 0.0
C725 C 0.68095 0.43093 0.8194 0.0
O726 O 0.69899 0.39727 0.82036 0.0
O727 O 0.68853 0.42477 0.82387 0.0
C728 C 0.58854 0.30702 0.17782 0.0
O729 O 0.59265 0.29977 0.1846 0.0
Cd730 Cd 0.58594 0.28096 0.18753 0.0
O731 O 0.57985 0.30467 0.17188 0.0
Cd732 Cd 0.56688 0.28819 0.16966 0.0
C733 C 0.58784 0.27097 0.16032 0.0
O734 O 0.56601 0.28281 0.18952 0.0
O735 O 0.55874 0.27087 0.1779 0.0
O736 O 0.55068 0.30088 0.16822 0.0
C737 C 0.56066 0.27366 0.18806 0.0
O738 O 0.59111 0.27036 0.17056 0.0
C739 C 0.547 0.29677 0.15901 0.0
O740 O 0.57969 0.27742 0.15753 0.0
O741 O 0.5528 0.2889 0.15457 0.0
C742 C 0.67296 0.59062 0.17754 0.0
O743 O 0.68052 0.59475 0.18396 0.0
Cd744 Cd 0.69896 0.58718 0.18757 0.0
O745 O 0.67468 0.5814 0.17221 0.0
Cd746 Cd 0.69007 0.56715 0.17043 0.0
C747 C 0.70891 0.58655 0.16027 0.0
O748 O 0.69535 0.56766 0.19022 0.0
O749 O 0.70546 0.55661 0.17994 0.0
O750 O 0.67533 0.5528 0.16907 0.0
C751 C 0.70343 0.5607 0.18962 0.0
O752 O 0.70961 0.59046 0.17027 0.0
C753 C 0.67954 0.54788 0.1605 0.0
O754 O 0.70206 0.57858 0.15792 0.0
O755 O 0.68843 0.55221 0.15631 0.0
C756 C 0.38945 0.67327 0.17753 0.0
O757 O 0.38569 0.68063 0.18439 0.0
Cd758 Cd 0.39347 0.69911 0.18738 0.0
O759 O 0.39821 0.67528 0.1716 0.0
Cd760 Cd 0.41191 0.69103 0.16918 0.0
C761 C 0.39151 0.70896 0.16016 0.0
O762 O 0.41332 0.69651 0.18904 0.0
O763 O 0.42099 0.70793 0.17716 0.0
O764 O 0.42669 0.67679 0.16759 0.0
C765 C 0.41906 0.70539 0.18738 0.0
O766 O 0.38878 0.71002 0.17052 0.0
C767 C 0.43124 0.68099 0.15883 0.0
O768 O 0.39904 0.70189 0.1571 0.0
O769 O 0.42654 0.68967 0.15462 0.0
C770 C 0.30714 0.38962 0.17907 0.0
O771 O 0.29979 0.38559 0.18577 0.0
Cd772 Cd 0.28079 0.3921 0.188 0.0
O773 O 0.30483 0.39814 0.17287 0.0
Cd774 Cd 0.2883 0.41089 0.16995 0.0
C775 C 0.27167 0.38949 0.16054 0.0
O776 O 0.28214 0.41209 0.18961 0.0
O777 O 0.27065 0.41901 0.17734 0.0
O778 O 0.30094 0.42714 0.16872 0.0
C779 C 0.27301 0.41732 0.18764 0.0
O780 O 0.27081 0.38646 0.17083 0.0
C781 C 0.29705 0.43074 0.15939 0.0
O782 O 0.27809 0.39767 0.15774 0.0
O783 O 0.28936 0.42486 0.15476 0.0
C784 C 0.80083 0.58746 0.6704 0.0
O785 O 0.79377 0.59159 0.67735 0.0
Cd786 Cd 0.79128 0.58591 0.6965 0.0
O787 O 0.80714 0.57918 0.67325 0.0
Cd788 Cd 0.80959 0.56686 0.69024 0.0
C789 C 0.81868 0.58903 0.70594 0.0
O790 O 0.78978 0.56587 0.69584 0.0
O791 O 0.80167 0.55943 0.70799 0.0
O792 O 0.81097 0.55033 0.67802 0.0
C793 C 0.79145 0.56101 0.70522 0.0
O794 O 0.8084 0.59224 0.70617 0.0
C795 C 0.82015 0.54669 0.68222 0.0
O796 O 0.82162 0.58033 0.70032 0.0
O797 O 0.82465 0.55267 0.68993 0.0
C798 C 0.39065 0.8002 0.67032 0.0
O799 O 0.38677 0.79319 0.67747 0.0
Cd800 Cd 0.39321 0.79125 0.69652 0.0
O801 O 0.39892 0.80662 0.67287 0.0
Cd802 Cd 0.41179 0.80959 0.68925 0.0
C803 C 0.3902 0.81883 0.70555 0.0
O804 O 0.41324 0.7899 0.69531 0.0
O805 O 0.42005 0.80223 0.70681 0.0
O806 O 0.42705 0.81085 0.67556 0.0
C807 C 0.41845 0.79191 0.70444 0.0
O808 O 0.3873 0.80848 0.70628 0.0
C809 C 0.43147 0.81972 0.67968 0.0
O810 O 0.39845 0.8218 0.69929 0.0
O811 O 0.42649 0.82415 0.6881 0.0
C812 C 0.17912 0.39077 0.66994 0.0
O813 O 0.1863 0.38683 0.67688 0.0
Cd814 Cd 0.18848 0.39289 0.696 0.0
O815 O 0.1727 0.39896 0.67274 0.0
Cd816 Cd 0.17001 0.41171 0.68928 0.0
C817 C 0.16096 0.38994 0.70543 0.0
O818 O 0.18979 0.41294 0.69508 0.0
O819 O 0.17767 0.41988 0.70673 0.0
O820 O 0.16878 0.42702 0.67567 0.0
C821 C 0.18794 0.41812 0.70426 0.0
O822 O 0.17127 0.38684 0.70569 0.0
C823 C 0.15993 0.43145 0.67981 0.0
O824 O 0.15791 0.39846 0.69959 0.0
O825 O 0.1555 0.42648 0.68823 0.0
C826 C 0.58861 0.17769 0.67036 0.0
O827 O 0.59263 0.18471 0.67742 0.0
Cd828 Cd 0.58612 0.18736 0.69631 0.0
O829 O 0.58012 0.17157 0.67293 0.0
Cd830 Cd 0.56706 0.16929 0.68934 0.0
C831 C 0.58829 0.15996 0.70608 0.0
O832 O 0.56615 0.18919 0.69469 0.0
O833 O 0.55873 0.17754 0.70652 0.0
O834 O 0.55178 0.16792 0.67564 0.0
C835 C 0.56073 0.1877 0.70379 0.0
O836 O 0.59159 0.1702 0.7064 0.0
C837 C 0.54724 0.15921 0.67997 0.0
O838 O 0.57987 0.15706 0.70003 0.0
O839 O 0.55215 0.15494 0.68851 0.0
C840 C 0.80153 0.38926 0.3058 0.0
O841 O 0.7946 0.38515 0.29871 0.0
Cd842 Cd 0.79177 0.39168 0.2798 0.0
O843 O 0.80758 0.3978 0.30325 0.0
Cd844 Cd 0.80985 0.41066 0.28673 0.0
C845 C 0.81905 0.38941 0.26989 0.0
O846 O 0.78992 0.41163 0.28131 0.0
O847 O 0.8017 0.41888 0.26951 0.0
O848 O 0.81129 0.42615 0.30018 0.0
C849 C 0.79151 0.41701 0.2722 0.0
O850 O 0.80874 0.38632 0.26934 0.0
C851 C 0.81997 0.43063 0.29573 0.0
O852 O 0.82202 0.39759 0.27624 0.0
O853 O 0.82424 0.42555 0.2873 0.0
C854 C 0.58546 0.79876 0.30894 0.0
O855 O 0.58895 0.79088 0.30256 0.0
Cd856 Cd 0.58403 0.78914 0.28308 0.0
O857 O 0.57806 0.80583 0.30555 0.0
Cd858 Cd 0.56569 0.80825 0.28861 0.0
C859 C 0.58851 0.81651 0.27364 0.0
O860 O 0.56395 0.78854 0.28284 0.0
O861 O 0.55858 0.80082 0.27055 0.0
O862 O 0.5491 0.80979 0.30065 0.0
C863 C 0.55955 0.79051 0.27328 0.0
O864 O 0.59144 0.80614 0.27373 0.0
C865 C 0.54575 0.81916 0.29665 0.0
O866 O 0.57964 0.81976 0.2788 0.0
O867 O 0.5519 0.82369 0.28912 0.0
C868 C 0.17762 0.58901 0.30668 0.0
O869 O 0.18485 0.59301 0.29983 0.0
Cd870 Cd 0.18761 0.58677 0.28086 0.0
O871 O 0.17137 0.5807 0.30384 0.0
Cd872 Cd 0.16911 0.56793 0.2872 0.0
C873 C 0.16035 0.58964 0.27079 0.0
O874 O 0.18907 0.56674 0.28209 0.0
O875 O 0.17742 0.55976 0.27 0.0
O876 O 0.16731 0.55266 0.30083 0.0
C877 C 0.18758 0.5615 0.27288 0.0
O878 O 0.17066 0.59276 0.27071 0.0
C879 C 0.15877 0.54809 0.29621 0.0
O880 O 0.15722 0.58113 0.2766 0.0
O881 O 0.15475 0.55299 0.28755 0.0
C882 C 0.39033 0.17769 0.30673 0.0
O883 O 0.38629 0.18436 0.29936 0.0
Cd884 Cd 0.39293 0.18627 0.28041 0.0
O885 O 0.39888 0.17152 0.30446 0.0
Cd886 Cd 0.41194 0.16869 0.28816 0.0
C887 C 0.39086 0.15855 0.27172 0.0
O888 O 0.41286 0.18838 0.28216 0.0
O889 O 0.42012 0.17636 0.27062 0.0
O890 O 0.42729 0.1677 0.30184 0.0
C891 C 0.41826 0.18661 0.27309 0.0
O892 O 0.38764 0.16878 0.27074 0.0
C893 C 0.43181 0.15889 0.29769 0.0
O894 O 0.39909 0.15597 0.27816 0.0
O895 O 0.42686 0.1544 0.2893 0.0
C896 C 0.67072 0.7991 0.5877 0.0
O897 O 0.67772 0.79204 0.59176 0.0
Cd898 Cd 0.69689 0.78994 0.58587 0.0
O899 O 0.67348 0.80541 0.57941 0.0
Cd900 Cd 0.69008 0.80794 0.56663 0.0
C901 C 0.70577 0.81768 0.58849 0.0
O902 O 0.69599 0.78818 0.56588 0.0
O903 O 0.70766 0.80017 0.55876 0.0
O904 O 0.67652 0.80893 0.5512 0.0
C905 C 0.70519 0.78994 0.5607 0.0
O906 O 0.70614 0.80744 0.5918 0.0
C907 C 0.68083 0.81758 0.54656 0.0
O908 O 0.70008 0.82044 0.57977 0.0
O909 O 0.68927 0.82203 0.55148 0.0
C910 C 0.67124 0.17809 0.39022 0.0
O911 O 0.67826 0.18513 0.38618 0.0
Cd912 Cd 0.69723 0.18811 0.39252 0.0
O913 O 0.67387 0.17195 0.39868 0.0
Cd914 Cd 0.69052 0.16968 0.41138 0.0
C915 C 0.70744 0.161 0.38989 0.0
O916 O 0.69602 0.18954 0.41253 0.0
O917 O 0.70787 0.17764 0.41951 0.0
O918 O 0.67798 0.16803 0.42764 0.0
C919 C 0.70524 0.18786 0.41772 0.0
O920 O 0.70778 0.1713 0.38679 0.0
C921 C 0.68208 0.15876 0.43115 0.0
O922 O 0.70126 0.15795 0.39816 0.0
O923 O 0.68988 0.15436 0.42523 0.0
C924 C 0.80106 0.67198 0.38949 0.0
O925 O 0.79409 0.67913 0.38554 0.0
Cd926 Cd 0.79132 0.69794 0.39245 0.0
O927 O 0.80712 0.67439 0.39807 0.0
Cd928 Cd 0.8094 0.69056 0.41134 0.0
C929 C 0.81867 0.70777 0.39043 0.0
O930 O 0.78951 0.69609 0.41238 0.0
O931 O 0.80135 0.70757 0.42005 0.0
O932 O 0.81093 0.6766 0.42637 0.0
C933 C 0.79115 0.70506 0.418 0.0
O934 O 0.80839 0.70834 0.38727 0.0
C935 C 0.81957 0.681 0.43098 0.0
O936 O 0.82158 0.70133 0.39855 0.0
O937 O 0.82375 0.68965 0.42621 0.0
C938 C 0.30651 0.79953 0.39001 0.0
O939 O 0.29928 0.79262 0.38611 0.0
Cd940 Cd 0.28046 0.78981 0.39287 0.0
O941 O 0.30416 0.80569 0.39855 0.0
Cd942 Cd 0.28769 0.80811 0.41155 0.0
C943 C 0.27035 0.81697 0.39049 0.0
O944 O 0.28216 0.78829 0.41283 0.0
O945 O 0.2703 0.8002 0.41977 0.0
O946 O 0.30024 0.80945 0.42784 0.0
C947 C 0.273 0.78998 0.4181 0.0
O948 O 0.26987 0.80667 0.3874 0.0
C949 C 0.29633 0.8188 0.43139 0.0
O950 O 0.27675 0.81998 0.39861 0.0
O951 O 0.28868 0.82341 0.42544 0.0
C952 C 0.17704 0.30678 0.38927 0.0
O953 O 0.18348 0.29932 0.385 0.0
Cd954 Cd 0.18636 0.28056 0.39196 0.0
O955 O 0.17146 0.30471 0.39825 0.0
Cd956 Cd 0.16937 0.28848 0.41149 0.0
C957 C 0.15894 0.27117 0.3911 0.0
O958 O 0.18915 0.28251 0.4118 0.0
O959 O 0.17735 0.27117 0.41973 0.0
O960 O 0.16855 0.30124 0.42769 0.0
C961 C 0.18753 0.27355 0.41743 0.0
O962 O 0.16905 0.27022 0.3875 0.0
C963 C 0.15926 0.2974 0.43148 0.0
O964 O 0.1566 0.27782 0.39923 0.0
O965 O 0.15452 0.28967 0.42574 0.0
C966 C 0.3077 0.17833 0.58743 0.0
O967 O 0.3008 0.18558 0.59131 0.0
Cd968 Cd 0.28172 0.18798 0.5852 0.0
O969 O 0.3049 0.17192 0.57923 0.0
Cd970 Cd 0.28836 0.16941 0.56639 0.0
C971 C 0.27215 0.16051 0.58819 0.0
O972 O 0.28273 0.18923 0.56518 0.0
O973 O 0.27097 0.17722 0.55823 0.0
O974 O 0.302 0.16784 0.5511 0.0
C975 C 0.27352 0.18746 0.56001 0.0
O976 O 0.27193 0.17083 0.59127 0.0
C977 C 0.29757 0.15917 0.5466 0.0
O978 O 0.27797 0.15742 0.57966 0.0
O979 O 0.28901 0.15498 0.55156 0.0
C980 C 0.79956 0.30872 0.58694 0.0
O981 O 0.79232 0.30187 0.59094 0.0
Cd982 Cd 0.78999 0.2826 0.58538 0.0
O983 O 0.80609 0.30572 0.57891 0.0
Cd984 Cd 0.80882 0.28867 0.5668 0.0
C985 C 0.81722 0.27287 0.58915 0.0
O986 O 0.78904 0.28288 0.5653 0.0
O987 O 0.8013 0.27091 0.55917 0.0
O988 O 0.8105 0.30088 0.55034 0.0
C989 C 0.79099 0.2735 0.56051 0.0
O990 O 0.80685 0.27272 0.59208 0.0
C991 C 0.81981 0.29678 0.54693 0.0
O992 O 0.82044 0.27854 0.58059 0.0
O993 O 0.82424 0.28911 0.55299 0.0
C994 C 0.17898 0.67046 0.58713 0.0
O995 O 0.18619 0.67748 0.59087 0.0
Cd996 Cd 0.18877 0.69638 0.58438 0.0
O997 O 0.17254 0.67306 0.57889 0.0
Cd998 Cd 0.17001 0.68959 0.56604 0.0
C999 C 0.16166 0.70651 0.58759 0.0
O1000 O 0.18984 0.69493 0.56433 0.0
O1001 O 0.17797 0.70696 0.55767 0.0
O1002 O 0.16804 0.67689 0.54993 0.0
C1003 C 0.1882 0.70415 0.55918 0.0
O1004 O 0.17201 0.70673 0.59057 0.0
C1005 C 0.15873 0.68099 0.54651 0.0
O1006 O 0.15846 0.70047 0.57927 0.0
O1007 O 0.15446 0.68887 0.55241 0.0
C1008 C 0.39044 0.30678 0.17992 0.0
O1009 O 0.38646 0.29953 0.18677 0.0
Cd1010 Cd 0.39288 0.28047 0.18894 0.0
O1011 O 0.39877 0.3043 0.17354 0.0
Cd1012 Cd 0.41124 0.28762 0.17045 0.0
C1013 C 0.38948 0.27128 0.16161 0.0
O1014 O 0.4129 0.28163 0.19009 0.0
O1015 O 0.41902 0.26974 0.17777 0.0
O1016 O 0.42755 0.30008 0.16909 0.0
C1017 C 0.41781 0.27234 0.18809 0.0
O1018 O 0.38687 0.27025 0.172 0.0
C1019 C 0.43103 0.29624 0.1597 0.0
O1020 O 0.39745 0.27782 0.15852 0.0
O1021 O 0.42505 0.28861 0.15507 0.0
C1022 C 0.67121 0.39031 0.17891 0.0
O1023 O 0.67835 0.38639 0.18589 0.0
Cd1024 Cd 0.69722 0.39321 0.18844 0.0
O1025 O 0.67364 0.39884 0.17279 0.0
Cd1026 Cd 0.68978 0.41216 0.17047 0.0
C1027 C 0.70695 0.3913 0.16102 0.0
O1028 O 0.69547 0.41316 0.19031 0.0
O1029 O 0.70689 0.42078 0.17839 0.0
O1030 O 0.6757 0.42711 0.16927 0.0
C1031 C 0.70446 0.41871 0.18861 0.0
O1032 O 0.70749 0.38807 0.17128 0.0
C1033 C 0.67991 0.43183 0.16061 0.0
O1034 O 0.70055 0.39948 0.15816 0.0
O1035 O 0.68856 0.42717 0.15627 0.0
C1036 C 0.58885 0.67317 0.1777 0.0
O1037 O 0.59262 0.68044 0.18465 0.0
Cd1038 Cd 0.58553 0.69918 0.18701 0.0
O1039 O 0.58035 0.67543 0.17146 0.0
Cd1040 Cd 0.56695 0.6915 0.16885 0.0
C1041 C 0.58792 0.70855 0.15954 0.0
O1042 O 0.56561 0.697 0.18867 0.0
O1043 O 0.55835 0.70871 0.17682 0.0
O1044 O 0.55207 0.67736 0.16728 0.0
C1045 C 0.56011 0.70603 0.18703 0.0
O1046 O 0.5909 0.70936 0.16985 0.0
C1047 C 0.54738 0.68172 0.15867 0.0
O1048 O 0.57987 0.70202 0.15662 0.0
O1049 O 0.55205 0.69046 0.15453 0.0
C1050 C 0.30789 0.5883 0.17902 0.0
O1051 O 0.30079 0.59225 0.18604 0.0
Cd1052 Cd 0.28179 0.58594 0.18856 0.0
O1053 O 0.30534 0.5799 0.17276 0.0
Cd1054 Cd 0.28873 0.56708 0.17039 0.0
C1055 C 0.27216 0.58858 0.16123 0.0
O1056 O 0.28306 0.56595 0.19015 0.0
O1057 O 0.27104 0.55937 0.1782 0.0
O1058 O 0.3011 0.55065 0.16922 0.0
C1059 C 0.27377 0.56092 0.18843 0.0
O1060 O 0.2716 0.5917 0.17152 0.0
C1061 C 0.29715 0.54702 0.15993 0.0
O1062 O 0.27836 0.58027 0.15832 0.0
O1063 O 0.28954 0.55299 0.15526 0.0
C1064 C 0.39111 0.67127 0.79777 0.0
O1065 O 0.38698 0.6783 0.79079 0.0
Cd1066 Cd 0.39242 0.69765 0.78902 0.0
O1067 O 0.39922 0.67413 0.80428 0.0
Cd1068 Cd 0.41129 0.69116 0.8074 0.0
C1069 C 0.38882 0.70641 0.81658 0.0
O1070 O 0.41251 0.6975 0.78781 0.0
O1071 O 0.41879 0.70916 0.8003 0.0
O1072 O 0.42795 0.67913 0.80848 0.0
C1073 C 0.41734 0.70682 0.78995 0.0
O1074 O 0.38571 0.70681 0.80629 0.0
C1075 C 0.43133 0.68286 0.81795 0.0
O1076 O 0.39757 0.70084 0.81948 0.0
O1077 O 0.42516 0.69022 0.82273 0.0
C1078 C 0.30817 0.39157 0.79941 0.0
O1079 O 0.30136 0.38736 0.79225 0.0
Cd1080 Cd 0.28201 0.39262 0.78992 0.0
O1081 O 0.30509 0.3997 0.80578 0.0
Cd1082 Cd 0.28796 0.41174 0.80828 0.0
C1083 C 0.27261 0.3893 0.81731 0.0
O1084 O 0.28206 0.41269 0.78853 0.0
O1085 O 0.27008 0.41902 0.80068 0.0
O1086 O 0.29995 0.42841 0.80933 0.0
C1087 C 0.27265 0.41745 0.79041 0.0
O1088 O 0.27246 0.38609 0.80704 0.0
C1089 C 0.29602 0.43197 0.81867 0.0
O1090 O 0.27808 0.39809 0.82027 0.0
O1091 O 0.28855 0.42588 0.8234 0.0
C1092 C 0.58805 0.3068 0.80017 0.0
O1093 O 0.59231 0.29996 0.79308 0.0
Cd1094 Cd 0.5864 0.28089 0.79025 0.0
O1095 O 0.57964 0.30388 0.80624 0.0
Cd1096 Cd 0.56705 0.28705 0.80822 0.0
C1097 C 0.58874 0.27092 0.81757 0.0
O1098 O 0.56639 0.28181 0.78828 0.0
O1099 O 0.55939 0.26965 0.79983 0.0
O1100 O 0.55136 0.30027 0.80946 0.0
C1101 C 0.56127 0.27252 0.7897 0.0
O1102 O 0.59211 0.27083 0.80735 0.0
C1103 C 0.54684 0.29578 0.81808 0.0
O1104 O 0.58009 0.27665 0.82047 0.0
O1105 O 0.55194 0.28738 0.8224 0.0
C1106 C 0.66989 0.58733 0.79956 0.0
O1107 O 0.67664 0.59164 0.79242 0.0
Cd1108 Cd 0.69601 0.5865 0.79 0.0
O1109 O 0.67306 0.57921 0.8059 0.0
Cd1110 Cd 0.69035 0.56736 0.80828 0.0
C1111 C 0.70571 0.58978 0.81729 0.0
O1112 O 0.69607 0.56644 0.78849 0.0
O1113 O 0.70829 0.56034 0.80051 0.0
O1114 O 0.67858 0.55054 0.80943 0.0
C1115 C 0.70557 0.56181 0.79026 0.0
O1116 O 0.70576 0.59301 0.80702 0.0
C1117 C 0.68259 0.54707 0.81875 0.0
O1118 O 0.70026 0.58098 0.82026 0.0
O1119 O 0.69002 0.55325 0.82343 0.0
C1120 C 0.17864 0.39063 0.30741 0.0
O1121 O 0.18589 0.38673 0.30052 0.0
Cd1122 Cd 0.18804 0.39269 0.28138 0.0
O1123 O 0.17219 0.39878 0.30457 0.0
Cd1124 Cd 0.16961 0.41151 0.28796 0.0
C1125 C 0.16049 0.38951 0.27215 0.0
O1126 O 0.1894 0.41275 0.28213 0.0
O1127 O 0.17723 0.41944 0.27038 0.0
O1128 O 0.16826 0.42707 0.30133 0.0
C1129 C 0.18751 0.41782 0.27289 0.0
O1130 O 0.1708 0.38639 0.27187 0.0
C1131 C 0.15941 0.43139 0.29706 0.0
O1132 O 0.1575 0.39815 0.27784 0.0
O1133 O 0.15505 0.42623 0.28871 0.0
C1134 C 0.58944 0.17795 0.30684 0.0
O1135 O 0.59349 0.18514 0.29998 0.0
Cd1136 Cd 0.58733 0.18778 0.28097 0.0
O1137 O 0.58111 0.17172 0.30399 0.0
Cd1138 Cd 0.56829 0.16956 0.28738 0.0
C1139 C 0.58985 0.16047 0.27095 0.0
O1140 O 0.56732 0.18952 0.28221 0.0
O1141 O 0.5601 0.17791 0.27021 0.0
O1142 O 0.55306 0.16796 0.30108 0.0
C1143 C 0.56199 0.18806 0.27305 0.0
O1144 O 0.59313 0.17072 0.27085 0.0
C1145 C 0.54843 0.15942 0.29654 0.0
O1146 O 0.5813 0.15748 0.27678 0.0
O1147 O 0.55325 0.15532 0.28787 0.0
C1148 C 0.79959 0.58828 0.30759 0.0
O1149 O 0.792 0.59191 0.30095 0.0
Cd1150 Cd 0.78998 0.58586 0.28187 0.0
O1151 O 0.80629 0.58044 0.30446 0.0
Cd1152 Cd 0.80851 0.56808 0.28749 0.0
C1153 C 0.8171 0.59015 0.27198 0.0
O1154 O 0.78866 0.56571 0.28204 0.0
O1155 O 0.80096 0.56195 0.26917 0.0
O1156 O 0.81021 0.55216 0.30037 0.0
C1157 C 0.79073 0.56173 0.27233 0.0
O1158 O 0.80667 0.59285 0.27178 0.0
C1159 C 0.81883 0.54784 0.29567 0.0
O1160 O 0.82047 0.58171 0.27773 0.0
O1161 O 0.82295 0.55315 0.2873 0.0
C1162 C 0.38955 0.79902 0.30678 0.0
O1163 O 0.38565 0.79205 0.2996 0.0
Cd1164 Cd 0.39226 0.78964 0.28063 0.0
O1165 O 0.39791 0.80535 0.3043 0.0
Cd1166 Cd 0.41065 0.80814 0.28777 0.0
C1167 C 0.38919 0.8168 0.27082 0.0
O1168 O 0.41231 0.78834 0.28202 0.0
O1169 O 0.41913 0.80056 0.27041 0.0
O1170 O 0.42676 0.81001 0.30048 0.0
C1171 C 0.41762 0.79026 0.27293 0.0
O1172 O 0.38628 0.80645 0.27021 0.0
C1173 C 0.43015 0.81938 0.29648 0.0
O1174 O 0.39732 0.81987 0.27718 0.0
O1175 O 0.42422 0.82371 0.28865 0.0
C1176 C 0.17753 0.58988 0.67247 0.0
O1177 O 0.18424 0.594 0.67977 0.0
Cd1178 Cd 0.18698 0.58697 0.69852 0.0
O1179 O 0.17173 0.58108 0.6747 0.0
Cd1180 Cd 0.16959 0.56766 0.69075 0.0
C1181 C 0.1595 0.5881 0.70806 0.0
O1182 O 0.18944 0.5671 0.69649 0.0
O1183 O 0.17769 0.55909 0.70781 0.0
O1184 O 0.16852 0.5526 0.67675 0.0
C1185 C 0.18786 0.5614 0.70541 0.0
O1186 O 0.16969 0.59153 0.70884 0.0
C1187 C 0.15988 0.54786 0.681 0.0
O1188 O 0.15691 0.58 0.70146 0.0
O1189 O 0.15552 0.55256 0.68962 0.0
C1190 C 0.38894 0.17726 0.67154 0.0
O1191 O 0.38483 0.18419 0.67863 0.0
Cd1192 Cd 0.39171 0.18739 0.69733 0.0
O1193 O 0.39766 0.17141 0.67399 0.0
Cd1194 Cd 0.41093 0.16956 0.69024 0.0
C1195 C 0.39016 0.16019 0.70757 0.0
O1196 O 0.4116 0.18957 0.69518 0.0
O1197 O 0.41942 0.1783 0.7071 0.0
O1198 O 0.42599 0.16789 0.67632 0.0
C1199 C 0.41722 0.18837 0.7042 0.0
O1200 O 0.38681 0.17041 0.70802 0.0
C1201 C 0.43073 0.15944 0.68092 0.0
O1202 O 0.39834 0.15735 0.70118 0.0
O1203 O 0.42603 0.15544 0.6897 0.0
C1204 C 0.79949 0.38975 0.67059 0.0
O1205 O 0.79236 0.38553 0.67742 0.0
Cd1206 Cd 0.78957 0.39117 0.69659 0.0
O1207 O 0.80573 0.39802 0.67358 0.0
Cd1208 Cd 0.80801 0.41016 0.69067 0.0
C1209 C 0.8167 0.38808 0.70675 0.0
O1210 O 0.78813 0.41124 0.69623 0.0
O1211 O 0.80014 0.41764 0.70832 0.0
O1212 O 0.80935 0.42685 0.67873 0.0
C1213 C 0.78989 0.41611 0.70561 0.0
O1214 O 0.8064 0.38492 0.70678 0.0
C1215 C 0.81867 0.43031 0.68277 0.0
O1216 O 0.8198 0.39667 0.70106 0.0
O1217 O 0.82328 0.42416 0.69026 0.0
C1218 C 0.5895 0.80051 0.67182 0.0
O1219 O 0.59362 0.79364 0.67897 0.0
Cd1220 Cd 0.58683 0.79079 0.69776 0.0
O1221 O 0.58083 0.80643 0.67427 0.0
Cd1222 Cd 0.56764 0.80854 0.69056 0.0
C1223 C 0.58852 0.81814 0.70762 0.0
O1224 O 0.56692 0.78861 0.69579 0.0
O1225 O 0.55921 0.80009 0.70759 0.0
O1226 O 0.55255 0.81007 0.67664 0.0
C1227 C 0.56135 0.78997 0.70482 0.0
O1228 O 0.59186 0.80792 0.70815 0.0
C1229 C 0.54785 0.81861 0.68114 0.0
O1230 O 0.58029 0.82092 0.70126 0.0
O1231 O 0.55257 0.8227 0.68986 0.0
C1232 C 0.30683 0.1793 0.38916 0.0
O1233 O 0.29972 0.18633 0.38525 0.0
Cd1234 Cd 0.28084 0.18894 0.39199 0.0
O1235 O 0.30433 0.17309 0.39759 0.0
Cd1236 Cd 0.28801 0.1705 0.41061 0.0
C1237 C 0.27115 0.16161 0.38925 0.0
O1238 O 0.28242 0.19034 0.41198 0.0
O1239 O 0.27078 0.17834 0.41914 0.0
O1240 O 0.30177 0.16889 0.4258 0.0
C1241 C 0.27333 0.18858 0.41737 0.0
O1242 O 0.27054 0.17196 0.38635 0.0
C1243 C 0.29749 0.16008 0.43017 0.0
O1244 O 0.27751 0.15853 0.39737 0.0
O1245 O 0.28896 0.15585 0.42521 0.0
C1246 C 0.30725 0.79939 0.58809 0.0
O1247 O 0.30034 0.79217 0.59201 0.0
Cd1248 Cd 0.28135 0.78936 0.58583 0.0
O1249 O 0.30445 0.80573 0.57983 0.0
Cd1250 Cd 0.28767 0.80813 0.56726 0.0
C1251 C 0.27111 0.81645 0.58912 0.0
O1252 O 0.28239 0.78825 0.56578 0.0
O1253 O 0.27021 0.8001 0.55931 0.0
O1254 O 0.30023 0.80985 0.55104 0.0
C1255 C 0.27308 0.78989 0.56076 0.0
O1256 O 0.27101 0.8061 0.59209 0.0
C1257 C 0.29605 0.81906 0.54745 0.0
O1258 O 0.27699 0.81969 0.58071 0.0
O1259 O 0.28819 0.82342 0.55332 0.0
C1260 C 0.17899 0.30756 0.58827 0.0
O1261 O 0.18607 0.30063 0.59239 0.0
Cd1262 Cd 0.18845 0.28144 0.5866 0.0
O1263 O 0.17267 0.30469 0.58002 0.0
Cd1264 Cd 0.17006 0.28781 0.5677 0.0
C1265 C 0.16109 0.27184 0.58972 0.0
O1266 O 0.18982 0.28195 0.56654 0.0
O1267 O 0.17764 0.27011 0.56001 0.0
O1268 O 0.16913 0.30013 0.5513 0.0
C1269 C 0.18793 0.27266 0.56157 0.0
O1270 O 0.17139 0.27166 0.59286 0.0
C1271 C 0.15975 0.29638 0.54767 0.0
O1272 O 0.15806 0.27755 0.58111 0.0
O1273 O 0.15493 0.28884 0.55359 0.0
C1274 C 0.67074 0.17899 0.58736 0.0
O1275 O 0.67767 0.18609 0.59147 0.0
Cd1276 Cd 0.69689 0.18856 0.58574 0.0
O1277 O 0.67362 0.17263 0.57915 0.0
Cd1278 Cd 0.69057 0.17001 0.56693 0.0
C1279 C 0.70672 0.16133 0.58897 0.0
O1280 O 0.69644 0.18977 0.56568 0.0
O1281 O 0.7083 0.17755 0.55927 0.0
O1282 O 0.67846 0.1687 0.55036 0.0
C1283 C 0.70577 0.18784 0.5608 0.0
O1284 O 0.70699 0.17166 0.592 0.0
C1285 C 0.68232 0.15929 0.54696 0.0
O1286 O 0.70083 0.15823 0.5805 0.0
O1287 O 0.6898 0.15462 0.55309 0.0
C1288 C 0.80019 0.67044 0.5883 0.0
O1289 O 0.79297 0.67733 0.59227 0.0
Cd1290 Cd 0.79031 0.69634 0.58597 0.0
O1291 O 0.80645 0.67325 0.57999 0.0
Cd1292 Cd 0.80871 0.68975 0.56713 0.0
C1293 C 0.81757 0.7065 0.58856 0.0
O1294 O 0.7888 0.69523 0.56595 0.0
O1295 O 0.80072 0.70698 0.55883 0.0
O1296 O 0.81015 0.67615 0.5518 0.0
C1297 C 0.7905 0.70438 0.56067 0.0
O1298 O 0.80727 0.70665 0.5917 0.0
C1299 C 0.81894 0.68042 0.54739 0.0
O1300 O 0.82067 0.70049 0.58017 0.0
O1301 O 0.82325 0.6889 0.55238 0.0
C1302 C 0.67458 0.80036 0.38727 0.0
O1303 O 0.68259 0.7945 0.38317 0.0
Cd1304 Cd 0.70067 0.7913 0.39172 0.0
O1305 O 0.67578 0.80557 0.39662 0.0
Cd1306 Cd 0.69143 0.80836 0.41039 0.0
C1307 C 0.70992 0.81858 0.39099 0.0
O1308 O 0.69725 0.78857 0.41134 0.0
O1309 O 0.70824 0.8004 0.41968 0.0
O1310 O 0.6771 0.80938 0.42516 0.0
C1311 C 0.70587 0.7902 0.41746 0.0
O1312 O 0.71158 0.80833 0.38814 0.0
C1313 C 0.68112 0.81814 0.4299 0.0
O1314 O 0.70228 0.82118 0.39812 0.0
O1315 O 0.6897 0.82263 0.42527 0.0
C1316 C 0.1785 0.6699 0.39071 0.0
O1317 O 0.18569 0.67677 0.38667 0.0
Cd1318 Cd 0.18804 0.69599 0.39235 0.0
O1319 O 0.17206 0.67284 0.39884 0.0
Cd1320 Cd 0.16943 0.68979 0.41111 0.0
C1321 C 0.16072 0.7056 0.38888 0.0
O1322 O 0.1892 0.69542 0.41242 0.0
O1323 O 0.17717 0.70753 0.41871 0.0
O1324 O 0.16805 0.67758 0.42758 0.0
C1325 C 0.18743 0.7048 0.41727 0.0
O1326 O 0.17104 0.70578 0.38581 0.0
C1327 C 0.15866 0.6815 0.43102 0.0
O1328 O 0.15765 0.69995 0.39751 0.0
O1329 O 0.15407 0.68908 0.42497 0.0
C1330 C 0.79939 0.30868 0.3904 0.0
O1331 O 0.79227 0.30176 0.38633 0.0
Cd1332 Cd 0.78968 0.2826 0.39216 0.0
O1333 O 0.80571 0.30584 0.39866 0.0
Cd1334 Cd 0.8081 0.28894 0.41101 0.0
C1335 C 0.81688 0.27268 0.38911 0.0
O1336 O 0.78828 0.28318 0.41221 0.0
O1337 O 0.80043 0.27125 0.41863 0.0
O1338 O 0.80952 0.30096 0.42766 0.0
C1339 C 0.79015 0.27385 0.41713 0.0
O1340 O 0.80657 0.27243 0.38598 0.0
C1341 C 0.81891 0.29698 0.43102 0.0
O1342 O 0.81991 0.27857 0.39759 0.0
O1343 O 0.82349 0.28951 0.42482 0.0
H1344 H 0.0822 0.20828 0.34211 0.0
H1345 H 0.09184 0.21914 0.35689 0.0
H1346 H 0.11065 0.23718 0.33144 0.0
H1347 H 0.10108 0.2265 0.31667 0.0
H1348 H 0.11526 0.21962 0.36065 0.0
H1349 H 0.09888 0.26255 0.35194 0.0
H1350 H 0.0921 0.24993 0.34666 0.0
H1351 H 0.1042 0.25571 0.33949 0.0
C1352 C 0.08829 0.21465 0.33965 0.0
C1353 C 0.09087 0.21651 0.3282 0.0
C1354 C 0.09378 0.22084 0.34811 0.0
C1355 C 0.10182 0.22907 0.34523 0.0
C1356 C 0.1043 0.23103 0.33382 0.0
H1357 H 0.16113 0.25508 0.3747 0.0
H1358 H 0.14614 0.24451 0.3653 0.0
C1359 C 0.09887 0.22484 0.32539 0.0
C1360 C 0.10829 0.23509 0.35408 0.0
H1361 H 0.11635 0.26151 0.36238 0.0
C1362 C 0.11536 0.22877 0.36119 0.0
C1363 C 0.10827 0.24702 0.35487 0.0
C1364 C 0.10036 0.2542 0.34791 0.0
C1365 C 0.12295 0.2341 0.36857 0.0
C1366 C 0.12355 0.24603 0.36872 0.0
C1367 C 0.11597 0.25235 0.36215 0.0
C1368 C 0.13256 0.2521 0.37491 0.0
C1369 C 0.13043 0.22691 0.37598 0.0
C1370 C 0.12987 0.26003 0.3833 0.0
C1371 C 0.13844 0.26614 0.38869 0.0
C1372 C 0.14983 0.26451 0.38567 0.0
C1373 C 0.15246 0.25654 0.37725 0.0
C1374 C 0.14391 0.25042 0.37192 0.0
H1375 H 0.12666 0.21844 0.37746 0.0
H1376 H 0.1387 0.22568 0.37174 0.0
H1377 H 0.13196 0.23104 0.38427 0.0
H1378 H 0.12114 0.26151 0.38564 0.0
H1379 H 0.13612 0.27223 0.39511 0.0
H1380 H 0.70865 0.13813 0.39363 0.0
H1381 H 0.72017 0.12428 0.38342 0.0
H1382 H 0.73329 0.15079 0.36216 0.0
H1383 H 0.72193 0.16468 0.3723 0.0
H1384 H 0.71951 0.11933 0.36017 0.0
H1385 H 0.76193 0.13445 0.37311 0.0
H1386 H 0.74916 0.13846 0.38046 0.0
H1387 H 0.75307 0.14544 0.36755 0.0
C1388 C 0.71403 0.14103 0.38682 0.0
C1389 C 0.71439 0.15253 0.38381 0.0
C1390 C 0.72061 0.1331 0.38101 0.0
C1391 C 0.72772 0.13655 0.37218 0.0
C1392 C 0.72804 0.148 0.36912 0.0
H1393 H 0.75527 0.10455 0.31432 0.0
H1394 H 0.74454 0.11491 0.32855 0.0
C1395 C 0.72147 0.15591 0.37489 0.0
C1396 C 0.73441 0.12818 0.36574 0.0
H1397 H 0.76126 0.12212 0.35704 0.0
C1398 C 0.72865 0.11983 0.3596 0.0
C1399 C 0.74634 0.12877 0.36513 0.0
C1400 C 0.75301 0.13719 0.372 0.0
C1401 C 0.73446 0.11241 0.35241 0.0
C1402 C 0.74631 0.11346 0.35129 0.0
C1403 C 0.75215 0.12142 0.35786 0.0
C1404 C 0.75269 0.10688 0.3428 0.0
C1405 C 0.72788 0.10362 0.34593 0.0
C1406 C 0.76095 0.09906 0.34613 0.0
C1407 C 0.76712 0.09307 0.338 0.0
C1408 C 0.76521 0.09496 0.32641 0.0
C1409 C 0.75696 0.10288 0.32315 0.0
C1410 C 0.75077 0.10877 0.33127 0.0
H1411 H 0.7195 0.10198 0.34983 0.0
H1412 H 0.72646 0.10668 0.33718 0.0
H1413 H 0.73265 0.09555 0.34545 0.0
H1414 H 0.7626 0.09756 0.35501 0.0
H1415 H 0.77344 0.08707 0.34079 0.0
H1416 H 0.84169 0.70765 0.39344 0.0
H1417 H 0.85579 0.71884 0.38319 0.0
H1418 H 0.82927 0.73443 0.36367 0.0
H1419 H 0.81515 0.7234 0.37384 0.0
H1420 H 0.85956 0.71884 0.35959 0.0
H1421 H 0.84797 0.76149 0.37509 0.0
H1422 H 0.84357 0.74869 0.38213 0.0
H1423 H 0.83613 0.7536 0.36983 0.0
C1424 C 0.83885 0.71352 0.38702 0.0
C1425 C 0.82728 0.71464 0.38448 0.0
C1426 C 0.84692 0.7199 0.38119 0.0
C1427 C 0.84354 0.72758 0.37281 0.0
C1428 C 0.83202 0.72872 0.37027 0.0
H1429 H 0.87448 0.75515 0.31433 0.0
H1430 H 0.8643 0.74439 0.32867 0.0
C1431 C 0.82397 0.72234 0.37605 0.0
C1432 C 0.85202 0.73401 0.36625 0.0
H1433 H 0.85927 0.76076 0.35827 0.0
C1434 C 0.85962 0.72801 0.35941 0.0
C1435 C 0.85217 0.74596 0.36616 0.0
C1436 C 0.8446 0.75283 0.37378 0.0
C1437 C 0.86698 0.73366 0.35203 0.0
C1438 C 0.86661 0.74558 0.35141 0.0
C1439 C 0.85943 0.7516 0.35868 0.0
C1440 C 0.8731 0.75192 0.34282 0.0
C1441 C 0.87497 0.72681 0.34482 0.0
C1442 C 0.88126 0.75988 0.34605 0.0
C1443 C 0.88711 0.76609 0.33787 0.0
C1444 C 0.88477 0.76452 0.32631 0.0
C1445 C 0.87652 0.75657 0.32314 0.0
C1446 C 0.87074 0.75035 0.33132 0.0
H1447 H 0.87648 0.71829 0.34847 0.0
H1448 H 0.87122 0.72568 0.3363 0.0
H1449 H 0.88321 0.73119 0.34384 0.0
H1450 H 0.88312 0.76128 0.35491 0.0
H1451 H 0.89338 0.77217 0.3406 0.0
H1452 H 0.20446 0.89125 0.34158 0.0
H1453 H 0.21521 0.88078 0.35588 0.0
H1454 H 0.23275 0.86269 0.32958 0.0
H1455 H 0.2221 0.87301 0.31526 0.0
H1456 H 0.21629 0.85609 0.35824 0.0
H1457 H 0.25812 0.87586 0.3505 0.0
H1458 H 0.24498 0.88237 0.34622 0.0
H1459 H 0.25098 0.87112 0.33796 0.0
C1460 C 0.21064 0.88507 0.33884 0.0
C1461 C 0.21244 0.88298 0.32727 0.0
C1462 C 0.21676 0.87911 0.34702 0.0
C1463 C 0.22486 0.87109 0.34375 0.0
C1464 C 0.22665 0.86898 0.33224 0.0
H1465 H 0.25543 0.81335 0.37324 0.0
H1466 H 0.24399 0.82729 0.36329 0.0
C1467 C 0.2205 0.87485 0.32408 0.0
C1468 C 0.23124 0.86459 0.3523 0.0
H1469 H 0.25808 0.85863 0.36102 0.0
C1470 C 0.22541 0.85674 0.35898 0.0
C1471 C 0.2431 0.86558 0.35333 0.0
C1472 C 0.24968 0.87426 0.34671 0.0
C1473 C 0.23122 0.84942 0.36628 0.0
C1474 C 0.24316 0.84993 0.36678 0.0
C1475 C 0.24893 0.85819 0.36053 0.0
C1476 C 0.24987 0.84152 0.37316 0.0
C1477 C 0.22455 0.84111 0.37327 0.0
C1478 C 0.25718 0.84494 0.38185 0.0
C1479 C 0.26381 0.83698 0.38755 0.0
C1480 C 0.26331 0.82547 0.38457 0.0
C1481 C 0.25601 0.82212 0.3758 0.0
C1482 C 0.24939 0.83007 0.37014 0.0
H1483 H 0.21569 0.84396 0.37448 0.0
H1484 H 0.22433 0.83284 0.36884 0.0
H1485 H 0.22851 0.83983 0.38168 0.0
H1486 H 0.25774 0.85377 0.38422 0.0
H1487 H 0.26935 0.83985 0.39424 0.0
H1488 H 0.16506 0.71825 0.60715 0.0
H1489 H 0.15147 0.72978 0.6175 0.0
H1490 H 0.12593 0.72232 0.59258 0.0
H1491 H 0.13944 0.71052 0.58224 0.0
H1492 H 0.14014 0.74871 0.61047 0.0
H1493 H 0.10982 0.71465 0.62194 0.0
H1494 H 0.12375 0.71169 0.61649 0.0
H1495 H 0.11265 0.71607 0.6071 0.0
C1496 C 0.15654 0.719 0.60387 0.0
C1497 C 0.15333 0.71342 0.59388 0.0
C1498 C 0.14879 0.72561 0.6098 0.0
C1499 C 0.13766 0.7268 0.60589 0.0
C1500 C 0.13441 0.72133 0.59587 0.0
H1501 H 0.08418 0.76772 0.63776 0.0
H1502 H 0.09499 0.75712 0.62356 0.0
C1503 C 0.14216 0.71463 0.58995 0.0
C1504 C 0.12961 0.73396 0.61228 0.0
H1505 H 0.10526 0.73316 0.6278 0.0
C1506 C 0.13248 0.74532 0.61419 0.0
C1507 C 0.11959 0.72953 0.6171 0.0
C1508 C 0.11627 0.7173 0.61566 0.0
C1509 C 0.12574 0.75229 0.621 0.0
C1510 C 0.11593 0.74778 0.62606 0.0
C1511 C 0.1128 0.73656 0.62384 0.0
C1512 C 0.10939 0.75429 0.63445 0.0
C1513 C 0.12925 0.76439 0.62297 0.0
C1514 C 0.11392 0.75608 0.64524 0.0
C1515 C 0.10778 0.76202 0.65336 0.0
C1516 C 0.09699 0.76633 0.65082 0.0
C1517 C 0.09249 0.76455 0.63996 0.0
C1518 C 0.09862 0.75849 0.63185 0.0
H1519 H 0.13572 0.76722 0.61677 0.0
H1520 H 0.12182 0.7701 0.62243 0.0
H1521 H 0.13288 0.7652 0.63158 0.0
H1522 H 0.12221 0.75281 0.64739 0.0
H1523 H 0.11152 0.76325 0.66162 0.0
H1524 H 0.26141 0.16359 0.60833 0.0
H1525 H 0.25007 0.14998 0.61883 0.0
H1526 H 0.25602 0.12491 0.59305 0.0
H1527 H 0.26765 0.13844 0.58255 0.0
H1528 H 0.23067 0.1394 0.61221 0.0
H1529 H 0.26416 0.1078 0.62169 0.0
H1530 H 0.26735 0.12177 0.61647 0.0
H1531 H 0.26232 0.11103 0.60698 0.0
C1532 C 0.26038 0.15517 0.60489 0.0
C1533 C 0.26547 0.1521 0.59461 0.0
C1534 C 0.25388 0.1474 0.61091 0.0
C1535 C 0.2523 0.1364 0.60679 0.0
C1536 C 0.25732 0.13328 0.5965 0.0
H1537 H 0.21047 0.08325 0.63771 0.0
H1538 H 0.22124 0.09424 0.62381 0.0
C1539 C 0.26392 0.14105 0.59049 0.0
C1540 C 0.24514 0.12839 0.61322 0.0
H1541 H 0.24568 0.10355 0.62793 0.0
C1542 C 0.23394 0.13154 0.61559 0.0
C1543 C 0.24942 0.11811 0.61759 0.0
C1544 C 0.26149 0.11448 0.61566 0.0
C1545 C 0.22698 0.12481 0.62241 0.0
C1546 C 0.23135 0.1147 0.62699 0.0
C1547 C 0.24239 0.11132 0.62434 0.0
C1548 C 0.22484 0.10802 0.63526 0.0
C1549 C 0.21506 0.12861 0.62487 0.0
C1550 C 0.22341 0.11214 0.64627 0.0
C1551 C 0.21736 0.10589 0.65422 0.0
C1552 C 0.21257 0.09541 0.65129 0.0
C1553 C 0.21401 0.09131 0.64022 0.0
C1554 C 0.22017 0.09754 0.63228 0.0
H1555 H 0.21227 0.13542 0.61904 0.0
H1556 H 0.20909 0.12139 0.62419 0.0
H1557 H 0.21461 0.13188 0.63365 0.0
H1558 H 0.22703 0.12019 0.64871 0.0
H1559 H 0.21641 0.10931 0.66266 0.0
H1560 H 0.83953 0.26882 0.58416 0.0
H1561 H 0.85288 0.25706 0.59475 0.0
H1562 H 0.82714 0.25024 0.61963 0.0
H1563 H 0.81372 0.26175 0.60905 0.0
H1564 H 0.86074 0.259 0.61659 0.0
H1565 H 0.83761 0.21867 0.61129 0.0
H1566 H 0.83441 0.23109 0.60303 0.0
H1567 H 0.82886 0.2296 0.61711 0.0
C1568 C 0.8367 0.26481 0.59188 0.0
C1569 C 0.82552 0.26615 0.5957 0.0
C1570 C 0.84434 0.25809 0.59791 0.0
C1571 C 0.84092 0.25258 0.60783 0.0
C1572 C 0.82986 0.25416 0.61182 0.0
H1573 H 0.86934 0.21839 0.66406 0.0
H1574 H 0.85853 0.22927 0.65024 0.0
C1575 C 0.82222 0.26081 0.60579 0.0
C1576 C 0.84891 0.24536 0.61422 0.0
H1577 H 0.85173 0.2191 0.62586 0.0
C1578 C 0.85887 0.25023 0.61848 0.0
C1579 C 0.84649 0.23389 0.61659 0.0
C1580 C 0.83632 0.22797 0.61167 0.0
C1581 C 0.86618 0.24406 0.6255 0.0
C1582 C 0.86344 0.2328 0.62828 0.0
C1583 C 0.85372 0.2278 0.62373 0.0
C1584 C 0.87019 0.22629 0.6365 0.0
C1585 C 0.87659 0.24969 0.63025 0.0
C1586 C 0.88027 0.22099 0.63326 0.0
C1587 C 0.88647 0.21469 0.64113 0.0
C1588 C 0.88267 0.21366 0.65235 0.0
C1589 C 0.87254 0.21903 0.65551 0.0
C1590 C 0.86634 0.22524 0.64764 0.0
H1591 H 0.87736 0.25864 0.62754 0.0
H1592 H 0.87636 0.24937 0.63963 0.0
H1593 H 0.88424 0.24502 0.62746 0.0
H1594 H 0.88332 0.2217 0.62466 0.0
H1595 H 0.89424 0.21068 0.63842 0.0
H1596 H 0.75994 0.8694 0.66336 0.0
H1597 H 0.74854 0.85919 0.64957 0.0
H1598 H 0.75548 0.88484 0.62465 0.0
H1599 H 0.76716 0.89505 0.63836 0.0
H1600 H 0.72942 0.86629 0.63855 0.0
H1601 H 0.76344 0.85592 0.60778 0.0
H1602 H 0.76642 0.86105 0.62183 0.0
H1603 H 0.76185 0.87067 0.61101 0.0
C1604 C 0.75911 0.87288 0.65494 0.0
C1605 C 0.76451 0.88304 0.65196 0.0
C1606 C 0.75257 0.86702 0.64707 0.0
C1607 C 0.75126 0.87119 0.63605 0.0
C1608 C 0.75656 0.88136 0.63304 0.0
H1609 H 0.71028 0.83962 0.58236 0.0
H1610 H 0.72084 0.85381 0.59323 0.0
C1611 C 0.76319 0.88721 0.6409 0.0
C1612 C 0.74413 0.86488 0.6279 0.0
H1613 H 0.74499 0.84984 0.60326 0.0
C1614 C 0.73281 0.86277 0.63079 0.0
C1615 C 0.74856 0.86033 0.61776 0.0
C1616 C 0.76075 0.862 0.61441 0.0
C1617 C 0.72589 0.85599 0.62397 0.0
C1618 C 0.73042 0.85118 0.61404 0.0
C1619 C 0.74158 0.85361 0.61089 0.0
C1620 C 0.72399 0.84277 0.60743 0.0
C1621 C 0.71384 0.85379 0.62752 0.0
C1622 C 0.72239 0.8319 0.61182 0.0
C1623 C 0.71648 0.82378 0.60565 0.0
C1624 C 0.71199 0.8264 0.59496 0.0
C1625 C 0.71359 0.83735 0.59058 0.0
C1626 C 0.71963 0.84545 0.59675 0.0
H1627 H 0.71096 0.85986 0.63409 0.0
H1628 H 0.70807 0.85433 0.62014 0.0
H1629 H 0.7132 0.84512 0.63103 0.0
H1630 H 0.72578 0.82968 0.62003 0.0
H1631 H 0.71539 0.81546 0.6093 0.0
H1632 H 0.34022 0.08279 0.20911 0.0
H1633 H 0.35481 0.0922 0.22042 0.0
H1634 H 0.32922 0.11242 0.23669 0.0
H1635 H 0.31463 0.10308 0.22556 0.0
H1636 H 0.35945 0.11543 0.22048 0.0
H1637 H 0.34799 0.10066 0.26335 0.0
H1638 H 0.34304 0.09374 0.25066 0.0
H1639 H 0.33615 0.10632 0.25574 0.0
C1640 C 0.33768 0.08915 0.21519 0.0
C1641 C 0.32624 0.09218 0.21642 0.0
C1642 C 0.34603 0.09451 0.22163 0.0
C1643 C 0.34307 0.10287 0.22951 0.0
C1644 C 0.33167 0.10581 0.23084 0.0
H1645 H 0.37452 0.16129 0.25566 0.0
H1646 H 0.36441 0.14663 0.24528 0.0
C1647 C 0.32334 0.10051 0.22439 0.0
C1648 C 0.35187 0.10916 0.23579 0.0
H1649 H 0.35943 0.11747 0.26235 0.0
C1650 C 0.35959 0.11574 0.22964 0.0
C1651 C 0.35212 0.10943 0.24773 0.0
C1652 C 0.34445 0.10207 0.25477 0.0
C1653 C 0.36711 0.12308 0.23512 0.0
C1654 C 0.36679 0.12394 0.24703 0.0
C1655 C 0.35955 0.11688 0.25321 0.0
C1656 C 0.37327 0.13271 0.25315 0.0
C1657 C 0.37517 0.13004 0.22812 0.0
C1658 C 0.38147 0.12972 0.26117 0.0
C1659 C 0.38729 0.1381 0.26716 0.0
C1660 C 0.38489 0.1496 0.26531 0.0
C1661 C 0.37661 0.15252 0.25729 0.0
C1662 C 0.37086 0.14416 0.25129 0.0
H1663 H 0.37666 0.12615 0.2197 0.0
H1664 H 0.3715 0.13856 0.22676 0.0
H1665 H 0.38342 0.13107 0.23248 0.0
H1666 H 0.38336 0.12091 0.26278 0.0
H1667 H 0.39358 0.13555 0.2733 0.0
H1668 H 0.89399 0.33938 0.20602 0.0
H1669 H 0.88381 0.35341 0.21735 0.0
H1670 H 0.86228 0.32717 0.23058 0.0
H1671 H 0.87239 0.31311 0.21941 0.0
H1672 H 0.86048 0.35859 0.2168 0.0
H1673 H 0.87374 0.34348 0.2591 0.0
H1674 H 0.88095 0.3394 0.24628 0.0
H1675 H 0.868 0.33253 0.2503 0.0
C1676 C 0.88711 0.33658 0.21137 0.0
C1677 C 0.88404 0.3251 0.21183 0.0
C1678 C 0.88132 0.34461 0.21783 0.0
C1679 C 0.87244 0.34128 0.22494 0.0
C1680 C 0.86927 0.32987 0.22533 0.0
H1681 H 0.81525 0.37395 0.25321 0.0
H1682 H 0.82922 0.36356 0.24216 0.0
C1683 C 0.87503 0.32185 0.21887 0.0
C1684 C 0.86614 0.34974 0.23166 0.0
H1685 H 0.85786 0.35603 0.25857 0.0
C1686 C 0.86002 0.35814 0.22594 0.0
C1687 C 0.86567 0.34922 0.24359 0.0
C1688 C 0.87253 0.34074 0.2502 0.0
C1689 C 0.85299 0.36567 0.23182 0.0
C1690 C 0.85202 0.3647 0.24368 0.0
C1691 C 0.85856 0.35668 0.24945 0.0
C1692 C 0.84368 0.37139 0.25015 0.0
C1693 C 0.84653 0.37451 0.2253 0.0
C1694 C 0.84721 0.37912 0.25842 0.0
C1695 C 0.83923 0.38512 0.26477 0.0
C1696 C 0.82759 0.38333 0.26305 0.0
C1697 C 0.82413 0.37553 0.25476 0.0
C1698 C 0.8321 0.36964 0.24838 0.0
H1699 H 0.85036 0.37608 0.21687 0.0
H1700 H 0.83773 0.37153 0.22397 0.0
H1701 H 0.84618 0.3826 0.23004 0.0
H1702 H 0.85614 0.38051 0.25995 0.0
H1703 H 0.84217 0.39103 0.27111 0.0
H1704 H 0.6646 0.86794 0.21909 0.0
H1705 H 0.65109 0.85721 0.23033 0.0
H1706 H 0.62568 0.88266 0.22434 0.0
H1707 H 0.63911 0.89337 0.21279 0.0
H1708 H 0.64028 0.86338 0.24964 0.0
H1709 H 0.609 0.85392 0.21587 0.0
H1710 H 0.6229 0.8594 0.21284 0.0
H1711 H 0.61196 0.86867 0.21786 0.0
C1712 C 0.65612 0.87126 0.22009 0.0
C1713 C 0.65293 0.88151 0.21499 0.0
C1714 C 0.64841 0.86511 0.22654 0.0
C1715 C 0.63734 0.86906 0.22806 0.0
C1716 C 0.63411 0.87933 0.22307 0.0
H1717 H 0.58321 0.83845 0.26844 0.0
H1718 H 0.5947 0.85201 0.25779 0.0
C1719 C 0.64181 0.88547 0.21653 0.0
C1720 C 0.62935 0.86245 0.2351 0.0
H1721 H 0.60451 0.84773 0.23432 0.0
C1722 C 0.63244 0.86 0.24629 0.0
C1723 C 0.61911 0.85806 0.23072 0.0
C1724 C 0.61555 0.86004 0.21864 0.0
C1725 C 0.62566 0.85314 0.25317 0.0
C1726 C 0.61556 0.84859 0.24872 0.0
C1727 C 0.61227 0.85128 0.23766 0.0
C1728 C 0.60865 0.84049 0.25524 0.0
C1729 C 0.62936 0.8507 0.26512 0.0
C1730 C 0.61271 0.82954 0.25722 0.0
C1731 C 0.60617 0.82176 0.26321 0.0
C1732 C 0.59546 0.82482 0.26738 0.0
C1733 C 0.59144 0.83584 0.26539 0.0
C1734 C 0.59796 0.84359 0.25929 0.0
H1735 H 0.63608 0.8566 0.26799 0.0
H1736 H 0.62207 0.85128 0.27101 0.0
H1737 H 0.63273 0.84195 0.26558 0.0
H1738 H 0.62091 0.82699 0.25405 0.0
H1739 H 0.60953 0.81336 0.26459 0.0
H1740 H 0.10929 0.6641 0.21473 0.0
H1741 H 0.12022 0.65017 0.22534 0.0
H1742 H 0.0943 0.62522 0.21962 0.0
H1743 H 0.08325 0.63909 0.20887 0.0
H1744 H 0.10354 0.62934 0.24397 0.0
H1745 H 0.13557 0.62053 0.21072 0.0
H1746 H 0.13201 0.63514 0.21307 0.0
H1747 H 0.12155 0.62568 0.20749 0.0
C1748 C 0.10589 0.65565 0.21569 0.0
C1749 C 0.0954 0.6527 0.21093 0.0
C1750 C 0.11217 0.64771 0.22173 0.0
C1751 C 0.10807 0.6367 0.22318 0.0
C1752 C 0.09759 0.63369 0.21853 0.0
H1753 H 0.13833 0.58396 0.26608 0.0
H1754 H 0.12487 0.59444 0.25434 0.0
C1755 C 0.09132 0.64162 0.21238 0.0
C1756 C 0.11476 0.62844 0.2297 0.0
H1757 H 0.13949 0.61367 0.2291 0.0
C1758 C 0.11133 0.62576 0.24072 0.0
C1759 C 0.12489 0.62388 0.22538 0.0
C1760 C 0.12874 0.62635 0.21348 0.0
C1761 C 0.1181 0.619 0.24775 0.0
C1762 C 0.12841 0.61464 0.24351 0.0
C1763 C 0.1316 0.61704 0.23234 0.0
C1764 C 0.13638 0.60819 0.25069 0.0
C1765 C 0.11442 0.61704 0.2598 0.0
C1766 C 0.14738 0.61231 0.25233 0.0
C1767 C 0.15511 0.6063 0.25889 0.0
C1768 C 0.152 0.59602 0.26399 0.0
C1769 C 0.14096 0.59189 0.26235 0.0
C1770 C 0.13324 0.5979 0.25569 0.0
H1771 H 0.10773 0.62308 0.26245 0.0
H1772 H 0.11096 0.60836 0.26059 0.0
H1773 H 0.12168 0.61784 0.26569 0.0
H1774 H 0.14999 0.62023 0.24854 0.0
H1775 H 0.16352 0.60974 0.25998 0.0
H1776 H 0.34076 0.89428 0.76907 0.0
H1777 H 0.35444 0.88416 0.75727 0.0
H1778 H 0.32808 0.86173 0.74584 0.0
H1779 H 0.31435 0.87179 0.75746 0.0
H1780 H 0.36026 0.86111 0.75812 0.0
H1781 H 0.34258 0.87256 0.71628 0.0
H1782 H 0.33889 0.88002 0.72908 0.0
H1783 H 0.33227 0.86674 0.72575 0.0
C1784 C 0.33786 0.88722 0.76402 0.0
C1785 C 0.32644 0.88388 0.76418 0.0
C1786 C 0.34569 0.88146 0.75728 0.0
C1787 C 0.34222 0.87234 0.75054 0.0
C1788 C 0.33088 0.86891 0.75078 0.0
H1789 H 0.37378 0.81515 0.72133 0.0
H1790 H 0.36329 0.82921 0.73218 0.0
C1791 C 0.32305 0.87464 0.7575 0.0
C1792 C 0.35049 0.86605 0.74357 0.0
H1793 H 0.35558 0.857 0.71664 0.0
C1794 C 0.35934 0.86034 0.74903 0.0
C1795 C 0.34933 0.86515 0.7317 0.0
C1796 C 0.34032 0.87153 0.72533 0.0
C1797 C 0.36672 0.8533 0.74299 0.0
C1798 C 0.36517 0.85193 0.73124 0.0
C1799 C 0.35667 0.85804 0.72569 0.0
C1800 C 0.37176 0.84357 0.72473 0.0
C1801 C 0.37601 0.84717 0.7492 0.0
C1802 C 0.37991 0.84706 0.71687 0.0
C1803 C 0.38599 0.83903 0.71065 0.0
C1804 C 0.38389 0.82741 0.71212 0.0
C1805 C 0.37563 0.82401 0.71997 0.0
C1806 C 0.36964 0.83202 0.72622 0.0
H1807 H 0.37747 0.85076 0.75775 0.0
H1808 H 0.37364 0.83814 0.75016 0.0
H1809 H 0.38403 0.84753 0.74434 0.0
H1810 H 0.38159 0.85596 0.71559 0.0
H1811 H 0.39227 0.84194 0.70466 0.0
H1812 H 0.16404 0.36993 0.71643 0.0
H1813 H 0.15042 0.35956 0.72787 0.0
H1814 H 0.12527 0.38516 0.72144 0.0
H1815 H 0.13883 0.39554 0.70972 0.0
H1816 H 0.13973 0.3666 0.74716 0.0
H1817 H 0.10834 0.3562 0.71372 0.0
H1818 H 0.12232 0.36138 0.71049 0.0
H1819 H 0.11155 0.37096 0.7153 0.0
C1820 C 0.1556 0.37336 0.71737 0.0
C1821 C 0.15252 0.38357 0.71213 0.0
C1822 C 0.14782 0.36741 0.72393 0.0
C1823 C 0.1368 0.37153 0.72542 0.0
C1824 C 0.13367 0.38172 0.72023 0.0
H1825 H 0.08388 0.33996 0.76722 0.0
H1826 H 0.09458 0.35406 0.7564 0.0
C1827 C 0.14144 0.38767 0.71358 0.0
C1828 C 0.12881 0.36517 0.73266 0.0
H1829 H 0.1042 0.35004 0.73222 0.0
C1830 C 0.13192 0.36305 0.74391 0.0
C1831 C 0.1186 0.36059 0.72841 0.0
C1832 C 0.115 0.36229 0.7163 0.0
C1833 C 0.12526 0.35622 0.75093 0.0
C1834 C 0.11527 0.35138 0.74658 0.0
C1835 C 0.11189 0.35382 0.73549 0.0
C1836 C 0.10875 0.343 0.75313 0.0
C1837 C 0.12904 0.35403 0.7629 0.0
C1838 C 0.11319 0.33214 0.75475 0.0
C1839 C 0.10711 0.32407 0.76082 0.0
C1840 C 0.09648 0.32673 0.76544 0.0
C1841 C 0.09206 0.33766 0.76381 0.0
C1842 C 0.09813 0.34571 0.75763 0.0
H1843 H 0.13564 0.36011 0.76567 0.0
H1844 H 0.12176 0.35454 0.7688 0.0
H1845 H 0.1326 0.34537 0.76347 0.0
H1846 H 0.12136 0.3299 0.75126 0.0
H1847 H 0.11078 0.31576 0.76192 0.0
H1848 H 0.60793 0.16275 0.71783 0.0
H1849 H 0.618 0.14882 0.72915 0.0
H1850 H 0.5925 0.12392 0.72145 0.0
H1851 H 0.58242 0.1378 0.70984 0.0
H1852 H 0.61064 0.13738 0.74798 0.0
H1853 H 0.62168 0.1074 0.71344 0.0
H1854 H 0.61654 0.12149 0.7107 0.0
H1855 H 0.6069 0.11056 0.71495 0.0
C1856 C 0.60445 0.15431 0.71848 0.0
C1857 C 0.59438 0.15139 0.71288 0.0
C1858 C 0.61022 0.14636 0.72498 0.0
C1859 C 0.60607 0.13531 0.72605 0.0
C1860 C 0.59597 0.13235 0.72056 0.0
H1861 H 0.63801 0.08238 0.76782 0.0
H1862 H 0.62359 0.09295 0.75728 0.0
C1863 C 0.5902 0.1403 0.71397 0.0
C1864 C 0.61234 0.12706 0.73307 0.0
H1865 H 0.62787 0.10274 0.73179 0.0
C1866 C 0.61431 0.12975 0.74446 0.0
C1867 C 0.6171 0.1171 0.72846 0.0
C1868 C 0.61555 0.11396 0.7162 0.0
C1869 C 0.6212 0.12293 0.75126 0.0
C1870 C 0.62623 0.1132 0.74656 0.0
C1871 C 0.62392 0.11022 0.73533 0.0
C1872 C 0.63479 0.10669 0.75286 0.0
C1873 C 0.62337 0.1263 0.76336 0.0
C1874 C 0.6458 0.11094 0.75375 0.0
C1875 C 0.65404 0.10494 0.75967 0.0
C1876 C 0.6514 0.09458 0.76487 0.0
C1877 C 0.64031 0.09034 0.76395 0.0
C1878 C 0.63207 0.09634 0.75793 0.0
H1879 H 0.61749 0.13303 0.76625 0.0
H1880 H 0.62251 0.11887 0.76902 0.0
H1881 H 0.63216 0.1295 0.76416 0.0
H1882 H 0.64802 0.11892 0.74985 0.0
H1883 H 0.66247 0.10848 0.76022 0.0
H1884 H 0.8696 0.6642 0.76057 0.0
H1885 H 0.85946 0.65035 0.74918 0.0
H1886 H 0.88509 0.62545 0.7564 0.0
H1887 H 0.89523 0.63923 0.76807 0.0
H1888 H 0.86677 0.63932 0.73018 0.0
H1889 H 0.85611 0.60855 0.76409 0.0
H1890 H 0.8612 0.62261 0.76711 0.0
H1891 H 0.87087 0.61179 0.76263 0.0
C1892 C 0.87308 0.65577 0.75981 0.0
C1893 C 0.88322 0.65282 0.76527 0.0
C1894 C 0.86727 0.64786 0.75328 0.0
C1895 C 0.87145 0.63684 0.75204 0.0
C1896 C 0.88159 0.63385 0.75743 0.0
H1897 H 0.84061 0.58308 0.7107 0.0
H1898 H 0.85459 0.59403 0.72146 0.0
C1899 C 0.8874 0.64175 0.76405 0.0
C1900 C 0.86523 0.62868 0.74487 0.0
H1901 H 0.85021 0.60402 0.74559 0.0
C1902 C 0.86323 0.63156 0.73353 0.0
C1903 C 0.86064 0.61854 0.74926 0.0
C1904 C 0.86221 0.61519 0.76146 0.0
C1905 C 0.85652 0.62473 0.72656 0.0
C1906 C 0.85167 0.61479 0.73104 0.0
C1907 C 0.854 0.61165 0.74222 0.0
C1908 C 0.84338 0.60813 0.72452 0.0
C1909 C 0.85443 0.62826 0.71449 0.0
C1910 C 0.83249 0.61245 0.72281 0.0
C1911 C 0.82449 0.60623 0.71678 0.0
C1912 C 0.82726 0.59557 0.71229 0.0
C1913 C 0.83823 0.59127 0.71401 0.0
C1914 C 0.84621 0.59749 0.72016 0.0
H1915 H 0.86048 0.63487 0.71169 0.0
H1916 H 0.8551 0.62088 0.70874 0.0
H1917 H 0.84574 0.6317 0.71374 0.0
H1918 H 0.83016 0.62064 0.72619 0.0
H1919 H 0.81615 0.60981 0.7156 0.0
H1920 H 0.20818 0.34041 0.08457 0.0
H1921 H 0.21943 0.35445 0.09486 0.0
H1922 H 0.23447 0.32789 0.11474 0.0
H1923 H 0.22339 0.31383 0.10453 0.0
H1924 H 0.21931 0.35846 0.11843 0.0
H1925 H 0.26191 0.34605 0.10339 0.0
H1926 H 0.24909 0.34176 0.09629 0.0
H1927 H 0.25379 0.3344 0.10872 0.0
C1928 C 0.21394 0.33755 0.09108 0.0
C1929 C 0.21489 0.32599 0.0937 0.0
C1930 C 0.22035 0.34558 0.09694 0.0
C1931 C 0.2279 0.34217 0.10542 0.0
C1932 C 0.22886 0.33066 0.10806 0.0
H1933 H 0.25558 0.37326 0.16378 0.0
H1934 H 0.24482 0.36306 0.14946 0.0
C1935 C 0.22245 0.32265 0.10226 0.0
C1936 C 0.23441 0.35062 0.11196 0.0
H1937 H 0.26122 0.35757 0.12006 0.0
C1938 C 0.22848 0.35838 0.11867 0.0
C1939 C 0.24637 0.35059 0.11214 0.0
C1940 C 0.25318 0.34283 0.10467 0.0
C1941 C 0.23418 0.36574 0.12601 0.0
C1942 C 0.24611 0.36521 0.12671 0.0
C1943 C 0.25207 0.35787 0.11958 0.0
C1944 C 0.25248 0.3717 0.1353 0.0
C1945 C 0.22741 0.37391 0.13309 0.0
C1946 C 0.26051 0.37979 0.13205 0.0
C1947 C 0.26672 0.38566 0.14024 0.0
C1948 C 0.26507 0.38341 0.1518 0.0
C1949 C 0.25706 0.37522 0.15497 0.0
C1950 C 0.25083 0.36943 0.1468 0.0
H1951 H 0.21892 0.37546 0.12939 0.0
H1952 H 0.22622 0.3703 0.14165 0.0
H1953 H 0.23189 0.38211 0.13397 0.0
H1954 H 0.26195 0.38158 0.12319 0.0
H1955 H 0.27285 0.39188 0.1375 0.0
H1956 H 0.20761 0.6379 0.89325 0.0
H1957 H 0.21891 0.6239 0.88298 0.0
H1958 H 0.23443 0.65056 0.86361 0.0
H1959 H 0.22329 0.66458 0.87379 0.0
H1960 H 0.21915 0.62017 0.85931 0.0
H1961 H 0.26156 0.63206 0.87528 0.0
H1962 H 0.24864 0.63632 0.88222 0.0
H1963 H 0.2536 0.64385 0.87 0.0
C1964 C 0.21348 0.64079 0.88686 0.0
C1965 C 0.21455 0.65237 0.88437 0.0
C1966 C 0.21992 0.63278 0.88101 0.0
C1967 C 0.22762 0.63622 0.87268 0.0
C1968 C 0.2287 0.64775 0.87017 0.0
H1969 H 0.25606 0.60582 0.81435 0.0
H1970 H 0.24511 0.61585 0.82865 0.0
C1971 C 0.22225 0.65575 0.87596 0.0
C1972 C 0.23419 0.62781 0.86615 0.0
H1973 H 0.26109 0.62081 0.85843 0.0
C1974 C 0.22832 0.62018 0.85923 0.0
C1975 C 0.24614 0.62776 0.86619 0.0
C1976 C 0.25287 0.63536 0.8739 0.0
C1977 C 0.23411 0.6129 0.85187 0.0
C1978 C 0.24604 0.61337 0.85138 0.0
C1979 C 0.25193 0.62056 0.85874 0.0
C1980 C 0.25252 0.60699 0.84281 0.0
C1981 C 0.22741 0.60489 0.84456 0.0
C1982 C 0.26049 0.59883 0.84606 0.0
C1983 C 0.2668 0.59306 0.83789 0.0
C1984 C 0.26534 0.59547 0.82634 0.0
C1985 C 0.2574 0.60373 0.82316 0.0
C1986 C 0.25107 0.60942 0.83131 0.0
H1987 H 0.21885 0.60331 0.8481 0.0
H1988 H 0.22636 0.60865 0.83604 0.0
H1989 H 0.23186 0.59668 0.84361 0.0
H1990 H 0.26179 0.59691 0.85491 0.0
H1991 H 0.27287 0.58679 0.84064 0.0
H1992 H 0.36722 0.26081 0.81514 0.0
H1993 H 0.35693 0.24954 0.82896 0.0
H1994 H 0.38339 0.25515 0.8534 0.0
H1995 H 0.39369 0.26671 0.83965 0.0
H1996 H 0.36357 0.23005 0.83936 0.0
H1997 H 0.35524 0.26364 0.87118 0.0
H1998 H 0.36016 0.26677 0.8571 0.0
H1999 H 0.36985 0.26161 0.86759 0.0
C2000 C 0.37086 0.25971 0.82346 0.0
C2001 C 0.38127 0.2647 0.8263 0.0
C2002 C 0.36496 0.25325 0.83135 0.0
C2003 C 0.36933 0.25161 0.84224 0.0
C2004 C 0.37975 0.2565 0.84512 0.0
H2005 H 0.33887 0.20959 0.89557 0.0
H2006 H 0.35272 0.22038 0.88453 0.0
C2007 C 0.38565 0.26306 0.83723 0.0
C2008 C 0.36299 0.24452 0.8504 0.0
H2009 H 0.34876 0.24527 0.87551 0.0
C2010 C 0.3604 0.23336 0.8473 0.0
C2011 C 0.35889 0.24886 0.86076 0.0
C2012 C 0.36107 0.2609 0.86436 0.0
C2013 C 0.3536 0.22651 0.85416 0.0
C2014 C 0.34928 0.23094 0.86435 0.0
C2015 C 0.35216 0.24194 0.86768 0.0
C2016 C 0.341 0.22455 0.87115 0.0
C2017 C 0.35088 0.21463 0.85039 0.0
C2018 C 0.32986 0.22347 0.86728 0.0
C2019 C 0.32194 0.21741 0.87356 0.0
C2020 C 0.32503 0.21227 0.88382 0.0
C2021 C 0.33623 0.21341 0.88769 0.0
C2022 C 0.34414 0.21958 0.88142 0.0
H2023 H 0.35647 0.21178 0.84341 0.0
H2024 H 0.35168 0.20865 0.85757 0.0
H2025 H 0.34199 0.21431 0.84738 0.0
H2026 H 0.32731 0.22733 0.85938 0.0
H2027 H 0.31341 0.2167 0.87031 0.0
H2028 H 0.71529 0.36838 0.81434 0.0
H2029 H 0.72682 0.35805 0.82793 0.0
H2030 H 0.72106 0.38408 0.85279 0.0
H2031 H 0.70926 0.3944 0.83928 0.0
H2032 H 0.74636 0.36504 0.83817 0.0
H2033 H 0.71343 0.35553 0.87033 0.0
H2034 H 0.70998 0.36052 0.85634 0.0
H2035 H 0.71503 0.37022 0.86688 0.0
C2036 C 0.71639 0.3719 0.82271 0.0
C2037 C 0.71132 0.38221 0.82573 0.0
C2038 C 0.723 0.36598 0.83047 0.0
C2039 C 0.7247 0.37023 0.8414 0.0
C2040 C 0.71967 0.38053 0.84447 0.0
H2041 H 0.76731 0.34001 0.89445 0.0
H2042 H 0.75627 0.3538 0.88356 0.0
C2043 C 0.71297 0.38644 0.83672 0.0
C2044 C 0.73205 0.36396 0.84938 0.0
H2045 H 0.73205 0.34956 0.87439 0.0
C2046 C 0.74324 0.36172 0.84612 0.0
C2047 C 0.72798 0.35968 0.85977 0.0
C2048 C 0.71593 0.36151 0.86354 0.0
C2049 C 0.75039 0.35508 0.85284 0.0
C2050 C 0.74622 0.35056 0.86305 0.0
C2051 C 0.73519 0.35311 0.86655 0.0
C2052 C 0.7529 0.34238 0.86969 0.0
C2053 C 0.7623 0.35277 0.84891 0.0
C2054 C 0.75454 0.33143 0.8655 0.0
C2055 C 0.76074 0.32355 0.87169 0.0
C2056 C 0.76547 0.32648 0.88219 0.0
C2057 C 0.76382 0.3375 0.88637 0.0
C2058 C 0.7575 0.34537 0.88019 0.0
H2059 H 0.76496 0.3587 0.84213 0.0
H2060 H 0.76833 0.35344 0.85607 0.0
H2061 H 0.76279 0.34403 0.84554 0.0
H2062 H 0.75096 0.32897 0.85744 0.0
H2063 H 0.76185 0.31516 0.8682 0.0
H2064 H 0.60988 0.71668 0.81455 0.0
H2065 H 0.62025 0.72798 0.82831 0.0
H2066 H 0.59411 0.72213 0.85301 0.0
H2067 H 0.58374 0.71054 0.83935 0.0
H2068 H 0.61357 0.74742 0.83889 0.0
H2069 H 0.62253 0.71376 0.87044 0.0
H2070 H 0.61748 0.71065 0.85639 0.0
H2071 H 0.60786 0.71567 0.86701 0.0
C2072 C 0.60634 0.71772 0.82293 0.0
C2073 C 0.59599 0.71266 0.82586 0.0
C2074 C 0.61228 0.72421 0.83078 0.0
C2075 C 0.60802 0.7258 0.84172 0.0
C2076 C 0.59767 0.72082 0.84469 0.0
H2077 H 0.63897 0.7675 0.89511 0.0
H2078 H 0.62496 0.75686 0.88409 0.0
C2079 C 0.59173 0.71425 0.83684 0.0
C2080 C 0.6144 0.7329 0.84983 0.0
H2081 H 0.62889 0.73216 0.8748 0.0
C2082 C 0.61685 0.7441 0.84677 0.0
C2083 C 0.61864 0.72855 0.86014 0.0
C2084 C 0.6166 0.71648 0.86369 0.0
C2085 C 0.62366 0.75098 0.8536 0.0
C2086 C 0.62813 0.74654 0.86373 0.0
C2087 C 0.62538 0.7355 0.86702 0.0
C2088 C 0.63646 0.75294 0.87046 0.0
C2089 C 0.62624 0.7629 0.84988 0.0
C2090 C 0.64753 0.75413 0.86642 0.0
C2091 C 0.65554 0.7601 0.87268 0.0
C2092 C 0.65262 0.76505 0.88308 0.0
C2093 C 0.64148 0.76383 0.88711 0.0
C2094 C 0.63348 0.75775 0.88086 0.0
H2095 H 0.6205 0.76575 0.84302 0.0
H2096 H 0.62552 0.76883 0.85711 0.0
H2097 H 0.63506 0.7633 0.84672 0.0
H2098 H 0.64997 0.7504 0.85842 0.0
H2099 H 0.66402 0.76087 0.86931 0.0
H2100 H 0.77238 0.6356 0.08403 0.0
H2101 H 0.76166 0.62078 0.09375 0.0
H2102 H 0.7446 0.64612 0.11363 0.0
H2103 H 0.75517 0.66094 0.10399 0.0
H2104 H 0.76148 0.61643 0.11724 0.0
H2105 H 0.71858 0.62646 0.10143 0.0
H2106 H 0.73127 0.63156 0.09464 0.0
H2107 H 0.72582 0.6386 0.10697 0.0
C2108 C 0.76628 0.63803 0.09041 0.0
C2109 C 0.76462 0.64947 0.09322 0.0
C2110 C 0.76017 0.62955 0.09595 0.0
C2111 C 0.75222 0.63238 0.10427 0.0
C2112 C 0.75053 0.64377 0.10706 0.0
H2113 H 0.72578 0.60209 0.16274 0.0
H2114 H 0.7367 0.61133 0.14796 0.0
C2115 C 0.75665 0.65223 0.10159 0.0
C2116 C 0.74609 0.62349 0.11056 0.0
H2117 H 0.71956 0.61535 0.11841 0.0
C2118 C 0.75232 0.61605 0.11736 0.0
C2119 C 0.73415 0.62288 0.11055 0.0
C2120 C 0.72706 0.63023 0.10292 0.0
C2121 C 0.74689 0.6085 0.12471 0.0
C2122 C 0.73495 0.60851 0.12534 0.0
C2123 C 0.72872 0.61544 0.118 0.0
C2124 C 0.72881 0.60221 0.13421 0.0
C2125 C 0.75399 0.60075 0.13193 0.0
C2126 C 0.72062 0.59411 0.13137 0.0
C2127 C 0.7143 0.5888 0.13984 0.0
C2128 C 0.71597 0.59163 0.15127 0.0
C2129 C 0.72426 0.59969 0.15404 0.0
C2130 C 0.73059 0.60493 0.1456 0.0
H2131 H 0.7624 0.59921 0.12807 0.0
H2132 H 0.75536 0.60475 0.1403 0.0
H2133 H 0.74971 0.5925 0.13328 0.0
H2134 H 0.71906 0.59198 0.12261 0.0
H2135 H 0.70796 0.58265 0.13741 0.0
H2136 H 0.33961 0.77624 0.09105 0.0
H2137 H 0.35321 0.76544 0.10229 0.0
H2138 H 0.32793 0.73979 0.10817 0.0
H2139 H 0.31418 0.75085 0.09748 0.0
H2140 H 0.33746 0.74472 0.12688 0.0
H2141 H 0.37157 0.73821 0.0956 0.0
H2142 H 0.36854 0.75292 0.09757 0.0
H2143 H 0.3579 0.74372 0.09171 0.0
C2144 C 0.33701 0.76824 0.09466 0.0
C2145 C 0.32584 0.76439 0.09342 0.0
C2146 C 0.34482 0.76202 0.101 0.0
C2147 C 0.34168 0.75168 0.10593 0.0
C2148 C 0.33058 0.74773 0.10445 0.0
H2149 H 0.38757 0.70371 0.138 0.0
H2150 H 0.37573 0.71417 0.1246 0.0
C2151 C 0.32272 0.75405 0.09835 0.0
C2152 C 0.34962 0.74536 0.11333 0.0
H2153 H 0.37627 0.73433 0.1149 0.0
C2154 C 0.34591 0.74237 0.1242 0.0
C2155 C 0.36061 0.74215 0.10982 0.0
C2156 C 0.36484 0.74431 0.098 0.0
C2157 C 0.35287 0.73637 0.13167 0.0
C2158 C 0.36407 0.73371 0.1284 0.0
C2159 C 0.36775 0.73654 0.11748 0.0
C2160 C 0.37198 0.72785 0.13617 0.0
C2161 C 0.34798 0.73272 0.14287 0.0
C2162 C 0.37412 0.73224 0.14697 0.0
C2163 C 0.38065 0.72618 0.15469 0.0
C2164 C 0.38547 0.71577 0.15164 0.0
C2165 C 0.38394 0.71171 0.14059 0.0
C2166 C 0.37718 0.71767 0.13293 0.0
H2167 H 0.33861 0.73215 0.14252 0.0
H2168 H 0.35135 0.72437 0.14552 0.0
H2169 H 0.35019 0.73905 0.14942 0.0
H2170 H 0.37054 0.74027 0.14953 0.0
H2171 H 0.38186 0.72961 0.1631 0.0
H2172 H 0.63662 0.20599 0.08521 0.0
H2173 H 0.62228 0.21707 0.09528 0.0
H2174 H 0.64851 0.23385 0.11423 0.0
H2175 H 0.66284 0.22292 0.10426 0.0
H2176 H 0.61877 0.21771 0.11913 0.0
H2177 H 0.62896 0.26005 0.10191 0.0
H2178 H 0.63351 0.2471 0.09521 0.0
H2179 H 0.6411 0.25261 0.10717 0.0
C2180 C 0.63934 0.21209 0.09147 0.0
C2181 C 0.65089 0.21358 0.09391 0.0
C2182 C 0.63114 0.21841 0.0972 0.0
C2183 C 0.63436 0.22639 0.10535 0.0
C2184 C 0.64586 0.22788 0.1078 0.0
H2185 H 0.60434 0.25513 0.16355 0.0
H2186 H 0.61416 0.24401 0.14925 0.0
C2187 C 0.65404 0.22156 0.10214 0.0
C2188 C 0.62578 0.23281 0.11178 0.0
H2189 H 0.61805 0.25965 0.11899 0.0
C2190 C 0.61847 0.22687 0.11898 0.0
C2191 C 0.62532 0.24475 0.11145 0.0
C2192 C 0.63256 0.25151 0.10344 0.0
C2193 C 0.61114 0.23261 0.12634 0.0
C2194 C 0.61125 0.24456 0.12655 0.0
C2195 C 0.61809 0.25048 0.11889 0.0
C2196 C 0.6049 0.25105 0.13515 0.0
C2197 C 0.60349 0.22583 0.13395 0.0
C2198 C 0.59659 0.25886 0.13193 0.0
C2199 C 0.59095 0.26529 0.1401 0.0
C2200 C 0.59364 0.26409 0.15162 0.0
C2201 C 0.60202 0.25627 0.15477 0.0
C2202 C 0.6076 0.24983 0.14662 0.0
H2203 H 0.60202 0.2172 0.13056 0.0
H2204 H 0.60753 0.22497 0.14238 0.0
H2205 H 0.59521 0.2301 0.13509 0.0
H2206 H 0.59447 0.25998 0.12309 0.0
H2207 H 0.58456 0.27125 0.13737 0.0
H2208 H 0.86883 0.76169 0.66244 0.0
H2209 H 0.85836 0.751 0.64822 0.0
H2210 H 0.88377 0.75887 0.62336 0.0
H2211 H 0.89438 0.76969 0.63753 0.0
H2212 H 0.85281 0.76156 0.62282 0.0
H2213 H 0.87718 0.72143 0.62705 0.0
H2214 H 0.87542 0.73074 0.63903 0.0
H2215 H 0.88423 0.73497 0.62748 0.0
C2216 C 0.87223 0.76118 0.65396 0.0
C2217 C 0.88246 0.76655 0.65113 0.0
C2218 C 0.86622 0.75507 0.64585 0.0
C2219 C 0.87035 0.75415 0.63481 0.0
C2220 C 0.88051 0.7595 0.63188 0.0
H2221 H 0.84001 0.70984 0.58352 0.0
H2222 H 0.85349 0.72198 0.59354 0.0
C2223 C 0.88652 0.76567 0.63998 0.0
C2224 C 0.86389 0.7476 0.6264 0.0
H2225 H 0.86077 0.72098 0.61579 0.0
C2226 C 0.8546 0.75273 0.62115 0.0
C2227 C 0.86637 0.73614 0.62422 0.0
C2228 C 0.87634 0.7304 0.6297 0.0
C2229 C 0.84747 0.74655 0.61398 0.0
C2230 C 0.84955 0.73489 0.61227 0.0
C2231 C 0.85915 0.7299 0.61716 0.0
C2232 C 0.84146 0.72759 0.60611 0.0
C2233 C 0.83771 0.75254 0.60837 0.0
C2234 C 0.83031 0.72655 0.61 0.0
C2235 C 0.82261 0.71967 0.60432 0.0
C2236 C 0.82592 0.71357 0.59467 0.0
C2237 C 0.83717 0.71444 0.59091 0.0
C2238 C 0.84488 0.72138 0.5966 0.0
H2239 H 0.83937 0.76175 0.60755 0.0
H2240 H 0.83598 0.74901 0.59985 0.0
H2241 H 0.83001 0.75149 0.61362 0.0
H2242 H 0.82757 0.73104 0.6175 0.0
H2243 H 0.81405 0.71914 0.60752 0.0
H2244 H 0.21608 0.86794 0.66392 0.0
H2245 H 0.22665 0.85708 0.64991 0.0
H2246 H 0.22064 0.88299 0.62505 0.0
H2247 H 0.20994 0.89397 0.63901 0.0
H2248 H 0.21708 0.85102 0.62566 0.0
H2249 H 0.25695 0.87609 0.6278 0.0
H2250 H 0.24738 0.87534 0.63967 0.0
H2251 H 0.2435 0.88327 0.62738 0.0
C2252 C 0.21699 0.87137 0.65549 0.0
C2253 C 0.21217 0.88185 0.65259 0.0
C2254 C 0.22302 0.86513 0.6475 0.0
C2255 C 0.22444 0.86929 0.63652 0.0
C2256 C 0.21965 0.8797 0.63353 0.0
H2257 H 0.26713 0.83876 0.58411 0.0
H2258 H 0.25524 0.8521 0.5946 0.0
C2259 C 0.21353 0.88593 0.64151 0.0
C2260 C 0.23088 0.86258 0.6282 0.0
H2261 H 0.25706 0.85978 0.61644 0.0
C2262 C 0.22579 0.85296 0.62354 0.0
C2263 C 0.24217 0.86525 0.62542 0.0
C2264 C 0.24792 0.87553 0.63031 0.0
C2265 C 0.23181 0.84576 0.6163 0.0
C2266 C 0.24331 0.8481 0.61395 0.0
C2267 C 0.24827 0.85797 0.6183 0.0
C2268 C 0.25048 0.84008 0.60753 0.0
C2269 C 0.22579 0.83571 0.61126 0.0
C2270 C 0.25192 0.82899 0.61145 0.0
C2271 C 0.25864 0.82136 0.60548 0.0
C2272 C 0.26419 0.8247 0.59552 0.0
C2273 C 0.26295 0.8359 0.59174 0.0
C2274 C 0.25616 0.84354 0.59771 0.0
H2275 H 0.21651 0.83713 0.61084 0.0
H2276 H 0.22894 0.83382 0.60263 0.0
H2277 H 0.22728 0.82819 0.61666 0.0
H2278 H 0.24788 0.82624 0.61919 0.0
H2279 H 0.25949 0.81284 0.60871 0.0
H2280 H 0.0838 0.20988 0.63893 0.0
H2281 H 0.09473 0.22081 0.62511 0.0
H2282 H 0.12102 0.22589 0.64981 0.0
H2283 H 0.11021 0.2151 0.66367 0.0
H2284 H 0.10402 0.24487 0.62917 0.0
H2285 H 0.13617 0.21182 0.62012 0.0
H2286 H 0.12225 0.20853 0.62549 0.0
H2287 H 0.13287 0.21412 0.63478 0.0
C2288 C 0.09192 0.21329 0.64141 0.0
C2289 C 0.09614 0.21159 0.6524 0.0
C2290 C 0.09813 0.21955 0.63352 0.0
C2291 C 0.10868 0.22406 0.63646 0.0
C2292 C 0.11291 0.22238 0.64739 0.0
H2293 H 0.16406 0.26126 0.60996 0.0
H2294 H 0.15045 0.24986 0.62039 0.0
C2295 C 0.1067 0.21623 0.65529 0.0
C2296 C 0.11534 0.23068 0.62824 0.0
H2297 H 0.14014 0.23034 0.61359 0.0
C2298 C 0.11185 0.24169 0.62561 0.0
C2299 C 0.12552 0.22644 0.62368 0.0
C2300 C 0.12944 0.21455 0.62606 0.0
C2301 C 0.1186 0.24882 0.61893 0.0
C2302 C 0.12896 0.24468 0.6146 0.0
C2303 C 0.13222 0.23351 0.61694 0.0
C2304 C 0.13694 0.25196 0.60825 0.0
C2305 C 0.11484 0.26085 0.61701 0.0
C2306 C 0.13386 0.25694 0.59794 0.0
C2307 C 0.14162 0.26357 0.59196 0.0
C2308 C 0.15265 0.2652 0.59614 0.0
C2309 C 0.15567 0.26017 0.60647 0.0
C2310 C 0.1479 0.25363 0.61245 0.0
H2311 H 0.10807 0.26342 0.62299 0.0
H2312 H 0.12206 0.26679 0.61791 0.0
H2313 H 0.11147 0.26168 0.6083 0.0
H2314 H 0.12552 0.25557 0.59443 0.0
H2315 H 0.13905 0.26725 0.58399 0.0
H2316 H 0.75616 0.10519 0.66425 0.0
H2317 H 0.74518 0.11576 0.65035 0.0
H2318 H 0.76198 0.09801 0.62335 0.0
H2319 H 0.77303 0.08726 0.63722 0.0
H2320 H 0.76081 0.12371 0.62242 0.0
H2321 H 0.71961 0.10203 0.62884 0.0
H2322 H 0.72716 0.10593 0.64146 0.0
H2323 H 0.73301 0.09547 0.63216 0.0
C2324 C 0.75753 0.10349 0.65537 0.0
C2325 C 0.76548 0.09536 0.65185 0.0
C2326 C 0.75121 0.10951 0.64745 0.0
C2327 C 0.75272 0.10757 0.63587 0.0
C2328 C 0.76068 0.09955 0.63228 0.0
H2329 H 0.70872 0.13856 0.5849 0.0
H2330 H 0.72031 0.12489 0.59527 0.0
C2331 C 0.76696 0.09343 0.64021 0.0
C2332 C 0.74618 0.11423 0.62759 0.0
H2333 H 0.71927 0.11925 0.6185 0.0
C2334 C 0.75175 0.12267 0.62143 0.0
C2335 C 0.7344 0.11274 0.62629 0.0
C2336 C 0.72815 0.1035 0.63245 0.0
C2337 C 0.74574 0.13001 0.61433 0.0
C2338 C 0.73385 0.12891 0.61348 0.0
C2339 C 0.72836 0.12012 0.61925 0.0
C2340 C 0.72692 0.13714 0.60712 0.0
C2341 C 0.75213 0.13896 0.60788 0.0
C2342 C 0.72666 0.1485 0.61048 0.0
C2343 C 0.72006 0.15632 0.60462 0.0
C2344 C 0.71351 0.15292 0.59529 0.0
C2345 C 0.71367 0.14147 0.59203 0.0
C2346 C 0.72029 0.13365 0.59793 0.0
H2347 H 0.7612 0.13671 0.60692 0.0
H2348 H 0.74841 0.14029 0.59937 0.0
H2349 H 0.75166 0.14707 0.61258 0.0
H2350 H 0.73152 0.15132 0.61771 0.0
H2351 H 0.7201 0.16503 0.60742 0.0
H2352 H 0.87255 0.22293 0.31425 0.0
H2353 H 0.86196 0.23366 0.32833 0.0
H2354 H 0.88177 0.21864 0.35493 0.0
H2355 H 0.89255 0.20783 0.34088 0.0
H2356 H 0.85407 0.21883 0.35481 0.0
H2357 H 0.87725 0.25963 0.35101 0.0
H2358 H 0.8745 0.25172 0.33827 0.0
H2359 H 0.88401 0.24612 0.34864 0.0
C2360 C 0.87472 0.2219 0.32308 0.0
C2361 C 0.88341 0.2145 0.32643 0.0
C2362 C 0.86866 0.22806 0.3311 0.0
C2363 C 0.87115 0.22694 0.34261 0.0
C2364 C 0.87979 0.2196 0.34605 0.0
H2365 H 0.8394 0.2699 0.39397 0.0
H2366 H 0.85316 0.25827 0.38376 0.0
C2367 C 0.88592 0.21346 0.33801 0.0
C2368 C 0.86442 0.23328 0.35096 0.0
H2369 H 0.86004 0.25986 0.36121 0.0
C2370 C 0.85543 0.22777 0.35635 0.0
C2371 C 0.86633 0.24488 0.35296 0.0
C2372 C 0.87607 0.251 0.34749 0.0
C2373 C 0.84798 0.23371 0.3634 0.0
C2374 C 0.84952 0.24548 0.36494 0.0
C2375 C 0.85883 0.25086 0.35994 0.0
C2376 C 0.84122 0.25244 0.37121 0.0
C2377 C 0.83846 0.22737 0.36904 0.0
C2378 C 0.83002 0.25316 0.36739 0.0
C2379 C 0.82215 0.25976 0.37318 0.0
C2380 C 0.82535 0.26587 0.38287 0.0
C2381 C 0.83664 0.26528 0.38656 0.0
C2382 C 0.84452 0.25864 0.38075 0.0
H2383 H 0.8404 0.21821 0.36977 0.0
H2384 H 0.83672 0.23079 0.3776 0.0
H2385 H 0.83068 0.22826 0.36388 0.0
H2386 H 0.82737 0.24865 0.35988 0.0
H2387 H 0.81355 0.26008 0.37004 0.0
H2388 H 0.75102 0.88201 0.31432 0.0
H2389 H 0.73992 0.87152 0.32818 0.0
H2390 H 0.76553 0.87776 0.35341 0.0
H2391 H 0.77639 0.88877 0.33969 0.0
H2392 H 0.7452 0.85286 0.3378 0.0
H2393 H 0.73807 0.88428 0.37167 0.0
H2394 H 0.74353 0.88816 0.35799 0.0
H2395 H 0.75281 0.88252 0.36865 0.0
C2396 C 0.7542 0.88128 0.32287 0.0
C2397 C 0.76457 0.8862 0.32593 0.0
C2398 C 0.74785 0.87529 0.33079 0.0
C2399 C 0.7518 0.87394 0.3419 0.0
C2400 C 0.76212 0.87894 0.34501 0.0
H2401 H 0.73107 0.81663 0.38224 0.0
H2402 H 0.74148 0.83061 0.37122 0.0
C2403 C 0.76838 0.88515 0.33713 0.0
C2404 C 0.74554 0.86651 0.34986 0.0
H2405 H 0.73442 0.86493 0.37645 0.0
C2406 C 0.74277 0.85556 0.34622 0.0
C2407 C 0.74223 0.87004 0.3608 0.0
C2408 C 0.74421 0.88193 0.36496 0.0
C2409 C 0.73691 0.84802 0.3532 0.0
C2410 C 0.73414 0.85133 0.36436 0.0
C2411 C 0.73672 0.86234 0.36797 0.0
C2412 C 0.72848 0.84345 0.37229 0.0
C2413 C 0.73353 0.83668 0.34841 0.0
C2414 C 0.71804 0.84628 0.37721 0.0
C2415 C 0.71219 0.83838 0.38377 0.0
C2416 C 0.71664 0.82749 0.3854 0.0
C2417 C 0.72734 0.82489 0.38095 0.0
C2418 C 0.73327 0.83285 0.3746 0.0
H2419 H 0.73306 0.83689 0.33904 0.0
H2420 H 0.73997 0.83028 0.35078 0.0
H2421 H 0.72521 0.8339 0.35173 0.0
H2422 H 0.71423 0.85446 0.37562 0.0
H2423 H 0.70397 0.8406 0.38713 0.0
H2424 H 0.16379 0.71625 0.36865 0.0
H2425 H 0.14991 0.72701 0.35779 0.0
H2426 H 0.12467 0.7205 0.38321 0.0
H2427 H 0.13848 0.70961 0.39419 0.0
H2428 H 0.12545 0.71724 0.3515 0.0
H2429 H 0.12777 0.7571 0.37656 0.0
H2430 H 0.1397 0.7476 0.37568 0.0
H2431 H 0.12748 0.74361 0.38366 0.0
C2432 C 0.1553 0.71709 0.37197 0.0
C2433 C 0.15225 0.71207 0.3823 0.0
C2434 C 0.14739 0.72323 0.36574 0.0
C2435 C 0.13634 0.72455 0.36976 0.0
C2436 C 0.13321 0.71958 0.38003 0.0
H2437 H 0.08438 0.76747 0.33875 0.0
H2438 H 0.09474 0.75565 0.35224 0.0
C2439 C 0.1411 0.71335 0.38626 0.0
C2440 C 0.1281 0.73105 0.36302 0.0
H2441 H 0.11664 0.75734 0.36008 0.0
C2442 C 0.12342 0.72597 0.35341 0.0
C2443 C 0.12543 0.74238 0.36565 0.0
C2444 C 0.13033 0.74809 0.37593 0.0
C2445 C 0.11628 0.73205 0.34615 0.0
C2446 C 0.11405 0.74358 0.34844 0.0
C2447 C 0.11842 0.74853 0.35831 0.0
C2448 C 0.10777 0.75079 0.34037 0.0
C2449 C 0.11123 0.72606 0.33609 0.0
C2450 C 0.1118 0.75216 0.32931 0.0
C2451 C 0.10591 0.75884 0.3216 0.0
C2452 C 0.09591 0.76442 0.32481 0.0
C2453 C 0.09203 0.76327 0.33599 0.0
C2454 C 0.09793 0.75651 0.34371 0.0
H2455 H 0.11071 0.71679 0.33752 0.0
H2456 H 0.10262 0.72928 0.33417 0.0
H2457 H 0.11668 0.72749 0.3286 0.0
H2458 H 0.11955 0.74808 0.32665 0.0
H2459 H 0.10922 0.75963 0.3131 0.0
H2460 H 0.21909 0.10839 0.31326 0.0
H2461 H 0.23052 0.11879 0.32692 0.0
H2462 H 0.21897 0.09678 0.35355 0.0
H2463 H 0.20738 0.08633 0.33994 0.0
H2464 H 0.21804 0.11995 0.35897 0.0
H2465 H 0.26003 0.1081 0.34182 0.0
H2466 H 0.25059 0.11378 0.33139 0.0
H2467 H 0.24723 0.1006 0.33818 0.0
C2468 C 0.21898 0.10571 0.32201 0.0
C2469 C 0.21234 0.09648 0.32549 0.0
C2470 C 0.22558 0.11164 0.32979 0.0
C2471 C 0.22574 0.10842 0.34119 0.0
C2472 C 0.21902 0.09933 0.34475 0.0
H2473 H 0.27225 0.13847 0.39073 0.0
H2474 H 0.26111 0.12462 0.38003 0.0
C2475 C 0.21241 0.09338 0.33697 0.0
C2476 C 0.23266 0.11483 0.34941 0.0
H2477 H 0.25962 0.12363 0.35479 0.0
C2478 C 0.22714 0.12065 0.35815 0.0
C2479 C 0.24455 0.11562 0.34839 0.0
C2480 C 0.25098 0.10911 0.33951 0.0
C2481 C 0.23316 0.12766 0.36558 0.0
C2482 C 0.24496 0.12891 0.36417 0.0
C2483 C 0.25055 0.1227 0.35577 0.0
C2484 C 0.2515 0.13717 0.37086 0.0
C2485 C 0.22687 0.13384 0.37478 0.0
C2486 C 0.24982 0.14876 0.36913 0.0
C2487 C 0.25619 0.15667 0.37513 0.0
C2488 C 0.26436 0.15313 0.38301 0.0
C2489 C 0.266 0.14148 0.38476 0.0
C2490 C 0.25967 0.13356 0.37866 0.0
H2491 H 0.2184 0.1301 0.37633 0.0
H2492 H 0.23177 0.13372 0.38279 0.0
H2493 H 0.22571 0.1428 0.37226 0.0
H2494 H 0.24365 0.15169 0.36304 0.0
H2495 H 0.25469 0.16556 0.37357 0.0
H2496 H 0.63771 0.89365 0.77209 0.0
H2497 H 0.62336 0.88334 0.76125 0.0
H2498 H 0.64954 0.86371 0.7452 0.0
H2499 H 0.6639 0.87394 0.75588 0.0
H2500 H 0.63252 0.8726 0.7302 0.0
H2501 H 0.61466 0.84969 0.76724 0.0
H2502 H 0.61562 0.86484 0.76825 0.0
H2503 H 0.6283 0.85654 0.76769 0.0
C2504 C 0.64042 0.88716 0.76624 0.0
C2505 C 0.65196 0.88458 0.76491 0.0
C2506 C 0.6322 0.88126 0.76008 0.0
C2507 C 0.63541 0.87272 0.75252 0.0
C2508 C 0.64691 0.87028 0.75102 0.0
H2509 H 0.60573 0.81497 0.72266 0.0
H2510 H 0.61585 0.82928 0.73351 0.0
C2511 C 0.6551 0.87612 0.75717 0.0
C2512 C 0.62688 0.8661 0.74621 0.0
H2513 H 0.60707 0.84537 0.7494 0.0
C2514 C 0.62683 0.86675 0.73438 0.0
C2515 C 0.61957 0.85843 0.75173 0.0
C2516 C 0.61952 0.85722 0.76442 0.0
C2517 C 0.61987 0.85969 0.72787 0.0
C2518 C 0.61271 0.85187 0.73338 0.0
C2519 C 0.61253 0.85144 0.74523 0.0
C2520 C 0.60616 0.84334 0.727 0.0
C2521 C 0.62058 0.86027 0.71516 0.0
C2522 C 0.59727 0.84652 0.71983 0.0
C2523 C 0.59145 0.83834 0.71357 0.0
C2524 C 0.59443 0.82686 0.7144 0.0
C2525 C 0.60323 0.82373 0.72176 0.0
C2526 C 0.60901 0.83189 0.72801 0.0
H2527 H 0.62785 0.86547 0.71226 0.0
H2528 H 0.62139 0.85166 0.71151 0.0
H2529 H 0.61271 0.8641 0.71178 0.0
H2530 H 0.59487 0.85532 0.71906 0.0
H2531 H 0.58468 0.84104 0.70803 0.0
H2532 H 0.16238 0.60424 0.72429 0.0
H2533 H 0.14784 0.61388 0.73524 0.0
H2534 H 0.12201 0.59444 0.7184 0.0
H2535 H 0.13655 0.58471 0.70729 0.0
H2536 H 0.11795 0.61799 0.71889 0.0
H2537 H 0.12848 0.60163 0.76144 0.0
H2538 H 0.14055 0.6071 0.75406 0.0
H2539 H 0.13329 0.5949 0.7486 0.0
C2540 C 0.15362 0.60193 0.72293 0.0
C2541 C 0.15064 0.59369 0.7149 0.0
C2542 C 0.14532 0.6074 0.72927 0.0
C2543 C 0.13388 0.60473 0.72776 0.0
C2544 C 0.13082 0.59653 0.71976 0.0
H2545 H 0.08406 0.63728 0.77231 0.0
H2546 H 0.09387 0.62273 0.76129 0.0
C2547 C 0.13914 0.59099 0.71342 0.0
C2548 C 0.12516 0.61106 0.73409 0.0
H2549 H 0.11745 0.61869 0.76081 0.0
C2550 C 0.1177 0.61801 0.72805 0.0
C2551 C 0.12474 0.61094 0.74603 0.0
C2552 C 0.13212 0.60315 0.75292 0.0
C2553 C 0.11029 0.62537 0.73367 0.0
C2554 C 0.11047 0.62585 0.7456 0.0
C2555 C 0.11743 0.6184 0.75165 0.0
C2556 C 0.10415 0.63459 0.75193 0.0
C2557 C 0.10249 0.63274 0.72678 0.0
C2558 C 0.1068 0.64603 0.75038 0.0
C2559 C 0.10128 0.65434 0.75667 0.0
C2560 C 0.09301 0.65137 0.76467 0.0
C2561 C 0.09036 0.63987 0.76619 0.0
C2562 C 0.09594 0.63154 0.75992 0.0
H2563 H 0.10095 0.62909 0.71827 0.0
H2564 H 0.09425 0.63392 0.73111 0.0
H2565 H 0.10644 0.64117 0.72564 0.0
H2566 H 0.11328 0.64853 0.74442 0.0
H2567 H 0.10356 0.6631 0.75529 0.0
H2568 H 0.31432 0.1035 0.75398 0.0
H2569 H 0.32876 0.11374 0.74341 0.0
H2570 H 0.3549 0.09554 0.76111 0.0
H2571 H 0.34049 0.08521 0.77181 0.0
H2572 H 0.35783 0.11949 0.76043 0.0
H2573 H 0.34946 0.10159 0.71796 0.0
H2574 H 0.33699 0.10665 0.72499 0.0
H2575 H 0.34466 0.0949 0.73081 0.0
C2576 C 0.32313 0.10161 0.75561 0.0
C2577 C 0.32624 0.09352 0.76374 0.0
C2578 C 0.33137 0.10742 0.7495 0.0
C2579 C 0.34287 0.10527 0.75137 0.0
C2580 C 0.34605 0.09725 0.75949 0.0
H2581 H 0.39372 0.13726 0.7078 0.0
H2582 H 0.38361 0.12306 0.71899 0.0
C2583 C 0.3378 0.09136 0.76558 0.0
C2584 C 0.35151 0.11183 0.74518 0.0
H2585 H 0.36019 0.11875 0.71858 0.0
C2586 C 0.35848 0.11923 0.75129 0.0
C2587 C 0.35243 0.11133 0.73328 0.0
C2588 C 0.34557 0.10311 0.72636 0.0
C2589 C 0.36594 0.12659 0.74575 0.0
C2590 C 0.36632 0.12661 0.73381 0.0
C2591 C 0.35979 0.11879 0.72773 0.0
C2592 C 0.37283 0.13517 0.72744 0.0
C2593 C 0.37322 0.1344 0.75271 0.0
C2594 C 0.37003 0.14664 0.72843 0.0
C2595 C 0.37573 0.15475 0.72205 0.0
C2596 C 0.38433 0.15154 0.7145 0.0
C2597 C 0.38716 0.14002 0.71355 0.0
C2598 C 0.3814 0.1319 0.71993 0.0
H2599 H 0.37443 0.13112 0.76142 0.0
H2600 H 0.38164 0.13562 0.74874 0.0
H2601 H 0.36904 0.14277 0.75334 0.0
H2602 H 0.36327 0.14931 0.73401 0.0
H2603 H 0.3733 0.16352 0.72298 0.0
H2604 H 0.869 0.31408 0.76207 0.0
H2605 H 0.85803 0.32791 0.75139 0.0
H2606 H 0.88347 0.35321 0.75767 0.0
H2607 H 0.89457 0.33943 0.76848 0.0
H2608 H 0.85133 0.35186 0.76081 0.0
H2609 H 0.87714 0.35061 0.72141 0.0
H2610 H 0.8766 0.3387 0.73095 0.0
H2611 H 0.8841 0.35122 0.73495 0.0
C2612 C 0.87231 0.32257 0.7612 0.0
C2613 C 0.88269 0.32564 0.76613 0.0
C2614 C 0.86601 0.33046 0.7551 0.0
C2615 C 0.87 0.34151 0.75372 0.0
C2616 C 0.88032 0.34467 0.75862 0.0
H2617 H 0.83885 0.39355 0.71104 0.0
H2618 H 0.85229 0.38324 0.72297 0.0
C2619 C 0.88661 0.3368 0.76481 0.0
C2620 C 0.86321 0.34972 0.74722 0.0
H2621 H 0.86058 0.3616 0.7211 0.0
C2622 C 0.85338 0.35409 0.75216 0.0
C2623 C 0.86601 0.35265 0.73601 0.0
C2624 C 0.87652 0.34807 0.73042 0.0
C2625 C 0.8461 0.36118 0.74607 0.0
C2626 C 0.84859 0.36368 0.73464 0.0
C2627 C 0.85866 0.35962 0.72984 0.0
C2628 C 0.84053 0.36994 0.72737 0.0
C2629 C 0.83581 0.36592 0.75193 0.0
C2630 C 0.82957 0.36575 0.7257 0.0
C2631 C 0.82188 0.37161 0.71896 0.0
C2632 C 0.82504 0.38174 0.71361 0.0
C2633 C 0.83614 0.38579 0.71506 0.0
C2634 C 0.84382 0.37992 0.72188 0.0
H2635 H 0.83704 0.3663 0.76123 0.0
H2636 H 0.83376 0.37453 0.74882 0.0
H2637 H 0.82846 0.36033 0.75026 0.0
H2638 H 0.82695 0.35789 0.7296 0.0
H2639 H 0.81346 0.36817 0.71794 0.0
H2640 H 0.63904 0.08252 0.20959 0.0
H2641 H 0.62501 0.09354 0.22019 0.0
H2642 H 0.6496 0.1199 0.22544 0.0
H2643 H 0.66367 0.109 0.215 0.0
H2644 H 0.62889 0.10315 0.24431 0.0
H2645 H 0.6199 0.13476 0.21075 0.0
H2646 H 0.62527 0.12078 0.20769 0.0
H2647 H 0.63456 0.13146 0.21315 0.0
C2648 C 0.64145 0.09068 0.21297 0.0
C2649 C 0.65248 0.09488 0.21144 0.0
C2650 C 0.63344 0.09693 0.21903 0.0
C2651 C 0.63629 0.10753 0.22349 0.0
C2652 C 0.64725 0.11176 0.22197 0.0
H2653 H 0.60992 0.16333 0.25996 0.0
H2654 H 0.62015 0.1496 0.24852 0.0
C2655 C 0.65528 0.10549 0.21603 0.0
C2656 C 0.62796 0.11422 0.22994 0.0
H2657 H 0.61327 0.139 0.22918 0.0
C2658 C 0.62531 0.11091 0.24099 0.0
C2659 C 0.6234 0.12432 0.22553 0.0
C2660 C 0.62583 0.12805 0.2136 0.0
C2661 C 0.6186 0.11776 0.248 0.0
C2662 C 0.61428 0.12805 0.24369 0.0
C2663 C 0.61662 0.13112 0.23247 0.0
C2664 C 0.60797 0.13616 0.25085 0.0
C2665 C 0.61669 0.11421 0.26009 0.0
C2666 C 0.59768 0.13318 0.25595 0.0
C2667 C 0.59181 0.14101 0.2626 0.0
C2668 C 0.59609 0.15201 0.26414 0.0
C2669 C 0.60636 0.15495 0.25895 0.0
C2670 C 0.61223 0.14712 0.25239 0.0
H2671 H 0.62266 0.10747 0.26275 0.0
H2672 H 0.61762 0.12151 0.26591 0.0
H2673 H 0.60797 0.11087 0.26097 0.0
H2674 H 0.59411 0.12484 0.25469 0.0
H2675 H 0.58388 0.1385 0.26641 0.0
H2676 H 0.86896 0.66504 0.21654 0.0
H2677 H 0.85791 0.6514 0.22739 0.0
H2678 H 0.88305 0.6258 0.22113 0.0
H2679 H 0.89422 0.63938 0.21014 0.0
H2680 H 0.851 0.62734 0.21811 0.0
H2681 H 0.87687 0.62889 0.25748 0.0
H2682 H 0.87631 0.64071 0.24783 0.0
H2683 H 0.88382 0.62816 0.24393 0.0
C2684 C 0.87218 0.65652 0.21745 0.0
C2685 C 0.8825 0.65331 0.21247 0.0
C2686 C 0.86584 0.64875 0.22365 0.0
C2687 C 0.86973 0.63767 0.22508 0.0
C2688 C 0.87998 0.63437 0.22014 0.0
H2689 H 0.8394 0.58535 0.26774 0.0
H2690 H 0.85256 0.59608 0.2559 0.0
C2691 C 0.88631 0.64213 0.21385 0.0
C2692 C 0.8629 0.62957 0.23167 0.0
H2693 H 0.86039 0.61777 0.25783 0.0
C2694 C 0.85307 0.62516 0.22677 0.0
C2695 C 0.86573 0.62671 0.24289 0.0
C2696 C 0.87624 0.63135 0.24844 0.0
C2697 C 0.84584 0.61804 0.2329 0.0
C2698 C 0.84838 0.61557 0.24432 0.0
C2699 C 0.85842 0.61972 0.2491 0.0
C2700 C 0.84048 0.6091 0.25157 0.0
C2701 C 0.83558 0.61322 0.22705 0.0
C2702 C 0.82941 0.61301 0.25326 0.0
C2703 C 0.82186 0.60689 0.25995 0.0
C2704 C 0.82528 0.5968 0.26522 0.0
C2705 C 0.83648 0.59307 0.26378 0.0
C2706 C 0.84402 0.59918 0.25701 0.0
H2707 H 0.83677 0.61289 0.21775 0.0
H2708 H 0.83364 0.60457 0.23013 0.0
H2709 H 0.82817 0.61871 0.22879 0.0
H2710 H 0.82659 0.62082 0.24941 0.0
H2711 H 0.81334 0.61008 0.26097 0.0
H2712 H 0.31353 0.87272 0.22183 0.0
H2713 H 0.32749 0.86222 0.23278 0.0
H2714 H 0.35433 0.88133 0.21723 0.0
H2715 H 0.34039 0.89193 0.20615 0.0
H2716 H 0.35758 0.85729 0.21745 0.0
H2717 H 0.34642 0.87407 0.25976 0.0
H2718 H 0.3345 0.86899 0.25183 0.0
H2719 H 0.34232 0.88101 0.2468 0.0
C2720 C 0.32239 0.87475 0.22074 0.0
C2721 C 0.32583 0.8832 0.21312 0.0
C2722 C 0.33035 0.86878 0.22707 0.0
C2723 C 0.34191 0.87113 0.22593 0.0
C2724 C 0.34542 0.87947 0.21828 0.0
H2725 H 0.39175 0.83985 0.27106 0.0
H2726 H 0.38141 0.8538 0.25978 0.0
C2727 C 0.33745 0.88551 0.21197 0.0
C2728 C 0.35027 0.86452 0.23247 0.0
H2729 H 0.35764 0.85725 0.25938 0.0
C2730 C 0.35771 0.85738 0.22662 0.0
C2731 C 0.35051 0.86477 0.24441 0.0
C2732 C 0.34309 0.8727 0.25109 0.0
C2733 C 0.36501 0.85005 0.23243 0.0
C2734 C 0.36476 0.84983 0.24437 0.0
C2735 C 0.35772 0.85737 0.25022 0.0
C2736 C 0.37128 0.84142 0.25093 0.0
C2737 C 0.37284 0.84253 0.22574 0.0
C2738 C 0.36889 0.82987 0.24978 0.0
C2739 C 0.37472 0.8219 0.25622 0.0
C2740 C 0.38305 0.82532 0.26399 0.0
C2741 C 0.38541 0.83692 0.26514 0.0
C2742 C 0.37952 0.84491 0.25871 0.0
H2743 H 0.37428 0.84587 0.21709 0.0
H2744 H 0.38113 0.84162 0.23005 0.0
H2745 H 0.369 0.83401 0.22496 0.0
H2746 H 0.3624 0.82703 0.24398 0.0
H2747 H 0.37266 0.81304 0.25512 0.0
H2748 H 0.1385 0.3953 0.26747 0.0
H2749 H 0.12462 0.3843 0.25665 0.0
H2750 H 0.14928 0.35794 0.25169 0.0
H2751 H 0.1632 0.36882 0.26235 0.0
H2752 H 0.12893 0.37463 0.2325 0.0
H2753 H 0.11926 0.34319 0.26604 0.0
H2754 H 0.12456 0.35718 0.26914 0.0
H2755 H 0.13396 0.3465 0.2639 0.0
C2756 C 0.14096 0.38714 0.2641 0.0
C2757 C 0.15196 0.38293 0.26578 0.0
C2758 C 0.13303 0.3809 0.25792 0.0
C2759 C 0.13595 0.37032 0.25347 0.0
C2760 C 0.14688 0.36608 0.25514 0.0
H2761 H 0.1096 0.31447 0.21691 0.0
H2762 H 0.1199 0.32819 0.22832 0.0
C2763 C 0.15482 0.37233 0.26121 0.0
C2764 C 0.1277 0.36363 0.24691 0.0
H2765 H 0.11286 0.33894 0.24754 0.0
C2766 C 0.12526 0.3669 0.23579 0.0
C2767 C 0.12302 0.35357 0.25128 0.0
C2768 C 0.12523 0.34989 0.26327 0.0
C2769 C 0.11862 0.36005 0.22871 0.0
C2770 C 0.11417 0.34981 0.23299 0.0
C2771 C 0.11631 0.34678 0.24426 0.0
C2772 C 0.10787 0.34173 0.22578 0.0
C2773 C 0.11691 0.36357 0.21658 0.0
C2774 C 0.09766 0.34479 0.22056 0.0
C2775 C 0.09177 0.33696 0.21393 0.0
C2776 C 0.09592 0.3259 0.21253 0.0
C2777 C 0.10614 0.32289 0.21781 0.0
C2778 C 0.11204 0.33072 0.22436 0.0
H2779 H 0.12299 0.37024 0.21397 0.0
H2780 H 0.11786 0.35623 0.21081 0.0
H2781 H 0.10824 0.36698 0.21554 0.0
H2782 H 0.09417 0.35317 0.22174 0.0
H2783 H 0.08388 0.33952 0.21004 0.0
H2784 H 0.76776 0.63839 0.89488 0.0
H2785 H 0.75685 0.62468 0.88376 0.0
H2786 H 0.75083 0.65003 0.85832 0.0
H2787 H 0.76158 0.66377 0.86932 0.0
H2788 H 0.73242 0.62874 0.87483 0.0
H2789 H 0.76536 0.62088 0.84225 0.0
H2790 H 0.7687 0.62584 0.8563 0.0
H2791 H 0.76294 0.63541 0.84605 0.0
C2792 C 0.76414 0.64104 0.88691 0.0
C2793 C 0.76556 0.65218 0.88299 0.0
C2794 C 0.7579 0.63321 0.8806 0.0
C2795 C 0.75313 0.63637 0.87022 0.0
C2796 C 0.75453 0.64744 0.86629 0.0
H2797 H 0.7159 0.61028 0.81451 0.0
H2798 H 0.7272 0.62076 0.8282 0.0
C2799 C 0.76066 0.65528 0.87261 0.0
C2800 C 0.74656 0.62821 0.86343 0.0
H2801 H 0.7469 0.61415 0.8383 0.0
C2802 C 0.73559 0.6254 0.86691 0.0
C2803 C 0.75078 0.62396 0.85312 0.0
C2804 C 0.76262 0.62658 0.84919 0.0
C2805 C 0.72849 0.61879 0.86005 0.0
C2806 C 0.73262 0.61475 0.84958 0.0
C2807 C 0.74375 0.61728 0.84631 0.0
C2808 C 0.72539 0.6084 0.84155 0.0
C2809 C 0.7165 0.61666 0.86383 0.0
C2810 C 0.7206 0.59796 0.84451 0.0
C2811 C 0.71404 0.59196 0.83671 0.0
C2812 C 0.71227 0.59625 0.82576 0.0
C2813 C 0.7171 0.60672 0.82285 0.0
C2814 C 0.72358 0.61272 0.83067 0.0
H2815 H 0.71389 0.62252 0.87069 0.0
H2816 H 0.71051 0.61758 0.85666 0.0
H2817 H 0.7158 0.60789 0.86708 0.0
H2818 H 0.72209 0.59436 0.85279 0.0
H2819 H 0.71052 0.58389 0.83919 0.0
H2820 H 0.75444 0.31601 0.10468 0.0
H2821 H 0.74377 0.33045 0.11481 0.0
H2822 H 0.76172 0.35657 0.09685 0.0
H2823 H 0.77251 0.34213 0.08659 0.0
H2824 H 0.76057 0.3592 0.12122 0.0
H2825 H 0.71859 0.35139 0.10186 0.0
H2826 H 0.72556 0.33883 0.10678 0.0
H2827 H 0.73165 0.34682 0.09539 0.0
C2828 C 0.75612 0.32482 0.10282 0.0
C2829 C 0.76433 0.32791 0.0948 0.0
C2830 C 0.74996 0.33305 0.10858 0.0
C2831 C 0.75186 0.34455 0.10645 0.0
C2832 C 0.76008 0.34772 0.09853 0.0
H2833 H 0.70761 0.39511 0.13814 0.0
H2834 H 0.71907 0.38514 0.12405 0.0
C2835 C 0.76622 0.33946 0.09268 0.0
C2836 C 0.74553 0.35316 0.11293 0.0
H2837 H 0.71875 0.36188 0.11915 0.0
C2838 C 0.75145 0.35992 0.12066 0.0
C2839 C 0.73366 0.35418 0.11207 0.0
C2840 C 0.72698 0.3475 0.1035 0.0
C2841 C 0.7457 0.36726 0.12801 0.0
C2842 C 0.73376 0.36772 0.12765 0.0
C2843 C 0.7279 0.36142 0.11948 0.0
C2844 C 0.72714 0.37408 0.13615 0.0
C2845 C 0.75246 0.37431 0.13621 0.0
C2846 C 0.7278 0.37105 0.14758 0.0
C2847 C 0.72127 0.37668 0.15563 0.0
C2848 C 0.71389 0.38543 0.1524 0.0
C2849 C 0.71322 0.38843 0.14092 0.0
C2850 C 0.71976 0.38276 0.13285 0.0
H2851 H 0.76128 0.37556 0.13322 0.0
H2852 H 0.74848 0.38271 0.13752 0.0
H2853 H 0.75282 0.36991 0.14448 0.0
H2854 H 0.73325 0.36421 0.15027 0.0
H2855 H 0.72198 0.3741 0.16438 0.0
H2856 H 0.66477 0.75672 0.10514 0.0
H2857 H 0.65051 0.74578 0.11521 0.0
H2858 H 0.62441 0.7601 0.0942 0.0
H2859 H 0.63864 0.7712 0.08406 0.0
H2860 H 0.61959 0.76069 0.11751 0.0
H2861 H 0.63305 0.71791 0.10397 0.0
H2862 H 0.6444 0.72628 0.10957 0.0
H2863 H 0.63749 0.73061 0.09675 0.0
C2864 C 0.65601 0.75753 0.10259 0.0
C2865 C 0.65286 0.76483 0.09376 0.0
C2866 C 0.64788 0.7512 0.10832 0.0
C2867 C 0.63644 0.75199 0.10532 0.0
C2868 C 0.63322 0.75931 0.09657 0.0
H2869 H 0.58614 0.70709 0.13646 0.0
H2870 H 0.59672 0.71793 0.12232 0.0
C2871 C 0.64137 0.76564 0.0908 0.0
C2872 C 0.62785 0.74554 0.11172 0.0
H2873 H 0.62087 0.71885 0.12014 0.0
C2874 C 0.61976 0.75153 0.11797 0.0
C2875 C 0.628 0.73359 0.11218 0.0
C2876 C 0.63613 0.7267 0.10517 0.0
C2877 C 0.61217 0.74591 0.12514 0.0
C2878 C 0.6128 0.73402 0.12613 0.0
C2879 C 0.6205 0.72798 0.11944 0.0
C2880 C 0.60605 0.72776 0.13459 0.0
C2881 C 0.60365 0.75273 0.13173 0.0
C2882 C 0.6079 0.72965 0.14613 0.0
C2883 C 0.60195 0.72346 0.1542 0.0
C2884 C 0.59402 0.71524 0.15089 0.0
C2885 C 0.59215 0.71339 0.1393 0.0
C2886 C 0.59818 0.71956 0.13121 0.0
H2887 H 0.60217 0.76113 0.1278 0.0
H2888 H 0.59546 0.74819 0.13236 0.0
H2889 H 0.60689 0.75414 0.14041 0.0
H2890 H 0.61409 0.73581 0.1489 0.0
H2891 H 0.60362 0.7251 0.16305 0.0
H2892 H 0.25689 0.60556 0.16467 0.0
H2893 H 0.24601 0.61584 0.1505 0.0
H2894 H 0.26136 0.59598 0.12409 0.0
H2895 H 0.27237 0.58561 0.13823 0.0
H2896 H 0.26142 0.61979 0.12023 0.0
H2897 H 0.21885 0.60403 0.13191 0.0
H2898 H 0.22684 0.60936 0.14366 0.0
H2899 H 0.23171 0.59703 0.13623 0.0
C2900 C 0.25794 0.60332 0.15586 0.0
C2901 C 0.26549 0.59473 0.15259 0.0
C2902 C 0.25165 0.60917 0.14778 0.0
C2903 C 0.25276 0.60654 0.13628 0.0
C2904 C 0.26033 0.59805 0.13295 0.0
H2905 H 0.20788 0.63744 0.08589 0.0
H2906 H 0.21905 0.62347 0.09634 0.0
C2907 C 0.26661 0.59215 0.14104 0.0
C2908 C 0.24629 0.61303 0.12777 0.0
H2909 H 0.21947 0.62053 0.12024 0.0
C2910 C 0.25225 0.61985 0.12012 0.0
C2911 C 0.23434 0.61297 0.12755 0.0
C2912 C 0.22754 0.60537 0.1352 0.0
C2913 C 0.24654 0.62704 0.11262 0.0
C2914 C 0.2346 0.62748 0.11288 0.0
C2915 C 0.22864 0.62025 0.12014 0.0
C2916 C 0.22816 0.63587 0.10621 0.0
C2917 C 0.25333 0.63423 0.10458 0.0
C2918 C 0.22953 0.64743 0.1084 0.0
C2919 C 0.22315 0.65541 0.10252 0.0
C2920 C 0.21524 0.65198 0.09432 0.0
C2921 C 0.21391 0.64037 0.09212 0.0
C2922 C 0.22028 0.63237 0.09807 0.0
H2923 H 0.26193 0.6307 0.1032 0.0
H2924 H 0.24901 0.63502 0.09629 0.0
H2925 H 0.2543 0.64283 0.1082 0.0
H2926 H 0.23542 0.65028 0.11481 0.0
H2927 H 0.22439 0.66427 0.10446 0.0
H2928 H 0.31387 0.22958 0.09565 0.0
H2929 H 0.32707 0.24105 0.1066 0.0
H2930 H 0.35236 0.21492 0.10352 0.0
H2931 H 0.33934 0.2037 0.09199 0.0
H2932 H 0.33523 0.23699 0.12606 0.0
H2933 H 0.37155 0.24155 0.09704 0.0
H2934 H 0.35811 0.236 0.09244 0.0
H2935 H 0.36821 0.22697 0.09942 0.0
C2936 C 0.32231 0.22636 0.09717 0.0
C2937 C 0.3256 0.21576 0.09296 0.0
C2938 C 0.32985 0.23292 0.10343 0.0
C2939 C 0.34079 0.22894 0.1058 0.0
C2940 C 0.34411 0.21836 0.10154 0.0
H2941 H 0.37787 0.25165 0.16468 0.0
H2942 H 0.36655 0.24137 0.15084 0.0
C2943 C 0.33664 0.2119 0.09503 0.0
C2944 C 0.3483 0.2355 0.11346 0.0
H2945 H 0.37504 0.24596 0.11652 0.0
C2946 C 0.3439 0.23904 0.1239 0.0
C2947 C 0.35958 0.23834 0.11062 0.0
C2948 C 0.36459 0.23562 0.09922 0.0
C2949 C 0.35046 0.24517 0.13162 0.0
C2950 C 0.36194 0.24741 0.12908 0.0
C2951 C 0.3663 0.24408 0.11855 0.0
C2952 C 0.3695 0.25323 0.13723 0.0
C2953 C 0.34489 0.24939 0.14229 0.0
C2954 C 0.37546 0.26299 0.13403 0.0
C2955 C 0.3822 0.26873 0.14187 0.0
C2956 C 0.38298 0.26488 0.15307 0.0
C2957 C 0.37727 0.25494 0.15616 0.0
C2958 C 0.37073 0.24909 0.14827 0.0
H2959 H 0.3356 0.25031 0.14119 0.0
H2960 H 0.34632 0.24319 0.14918 0.0
H2961 H 0.34839 0.25768 0.14495 0.0
H2962 H 0.37472 0.2663 0.12553 0.0
H2963 H 0.38654 0.27636 0.13925 0.0
H2964 H 0.2626 0.36868 0.81455 0.0
H2965 H 0.25203 0.35778 0.82852 0.0
H2966 H 0.25759 0.38386 0.85333 0.0
H2967 H 0.2683 0.39489 0.83941 0.0
H2968 H 0.26142 0.35184 0.85276 0.0
H2969 H 0.22141 0.37668 0.85042 0.0
H2970 H 0.23108 0.37602 0.83862 0.0
H2971 H 0.23481 0.38395 0.85097 0.0
C2972 C 0.2616 0.37214 0.82297 0.0
C2973 C 0.26629 0.38268 0.82586 0.0
C2974 C 0.25556 0.36588 0.83093 0.0
C2975 C 0.25401 0.37007 0.84189 0.0
C2976 C 0.25868 0.38055 0.84487 0.0
H2977 H 0.21128 0.33924 0.89404 0.0
H2978 H 0.22313 0.35266 0.88363 0.0
C2979 C 0.26481 0.3868 0.83692 0.0
C2980 C 0.24757 0.36333 0.85017 0.0
H2981 H 0.22134 0.36037 0.86177 0.0
C2982 C 0.25269 0.35373 0.85483 0.0
C2983 C 0.23625 0.36594 0.85289 0.0
C2984 C 0.23047 0.37618 0.84798 0.0
C2985 C 0.24667 0.34649 0.86202 0.0
C2986 C 0.23514 0.34876 0.86431 0.0
C2987 C 0.23015 0.35861 0.85995 0.0
C2988 C 0.22798 0.3407 0.87068 0.0
C2989 C 0.25271 0.33645 0.86706 0.0
C2990 C 0.2266 0.32961 0.86672 0.0
C2991 C 0.21991 0.32193 0.87264 0.0
C2992 C 0.21431 0.32522 0.8826 0.0
C2993 C 0.21549 0.33642 0.88642 0.0
C2994 C 0.22226 0.3441 0.88049 0.0
H2995 H 0.26198 0.33791 0.86752 0.0
H2996 H 0.24953 0.33454 0.87568 0.0
H2997 H 0.25127 0.32894 0.86164 0.0
H2998 H 0.23068 0.32689 0.85899 0.0
H2999 H 0.2191 0.31342 0.86938 0.0
H3000 H 0.63874 0.20965 0.89517 0.0
H3001 H 0.62446 0.2202 0.88442 0.0
H3002 H 0.64885 0.22643 0.8581 0.0
H3003 H 0.66316 0.21605 0.86873 0.0
H3004 H 0.62803 0.24474 0.87492 0.0
H3005 H 0.61915 0.21102 0.84342 0.0
H3006 H 0.62454 0.20802 0.85739 0.0
H3007 H 0.63379 0.21354 0.84672 0.0
C3008 C 0.64106 0.21325 0.88709 0.0
C3009 C 0.65209 0.212 0.8828 0.0
C3010 C 0.6329 0.21928 0.88099 0.0
C3011 C 0.63563 0.22399 0.87047 0.0
C3012 C 0.6466 0.22277 0.86618 0.0
H3013 H 0.6089 0.26008 0.81484 0.0
H3014 H 0.61917 0.24877 0.82863 0.0
C3015 C 0.65476 0.21686 0.87229 0.0
C3016 C 0.62714 0.23033 0.86389 0.0
H3017 H 0.61227 0.22937 0.83924 0.0
C3018 C 0.62441 0.24137 0.8672 0.0
C3019 C 0.62252 0.22585 0.85385 0.0
C3020 C 0.62505 0.21392 0.85012 0.0
C3021 C 0.61759 0.2483 0.86039 0.0
C3022 C 0.61324 0.24393 0.85013 0.0
C3023 C 0.61564 0.23271 0.84708 0.0
C3024 C 0.6069 0.25104 0.842 0.0
C3025 C 0.61558 0.26039 0.86392 0.0
C3026 C 0.59657 0.25608 0.84494 0.0
C3027 C 0.59068 0.26267 0.83706 0.0
C3028 C 0.59499 0.2642 0.82608 0.0
C3029 C 0.60532 0.25908 0.8232 0.0
C3030 C 0.61121 0.25258 0.83107 0.0
H3031 H 0.6215 0.2631 0.87069 0.0
H3032 H 0.61652 0.2662 0.85662 0.0
H3033 H 0.60684 0.26124 0.8672 0.0
H3034 H 0.59299 0.25482 0.85326 0.0
H3035 H 0.58271 0.26643 0.83953 0.0
H3036 H 0.33943 0.7675 0.89423 0.0
H3037 H 0.35284 0.75581 0.88365 0.0
H3038 H 0.32754 0.74989 0.85808 0.0
H3039 H 0.31404 0.7613 0.86868 0.0
H3040 H 0.33816 0.73047 0.86457 0.0
H3041 H 0.36975 0.76392 0.85492 0.0
H3042 H 0.36664 0.76209 0.86965 0.0
H3043 H 0.35582 0.76712 0.86025 0.0
C3044 C 0.33674 0.76376 0.88632 0.0
C3045 C 0.32566 0.76536 0.88229 0.0
C3046 C 0.34444 0.75713 0.88026 0.0
C3047 C 0.34123 0.7521 0.87 0.0
C3048 C 0.33019 0.75371 0.86597 0.0
H3049 H 0.36794 0.71588 0.81409 0.0
H3050 H 0.35701 0.72631 0.82815 0.0
C3051 C 0.32249 0.76025 0.87204 0.0
C3052 C 0.34919 0.74493 0.86351 0.0
H3053 H 0.37399 0.74543 0.84871 0.0
C3054 C 0.34602 0.73373 0.86116 0.0
C3055 C 0.35946 0.74919 0.85909 0.0
C3056 C 0.36312 0.76126 0.861 0.0
C3057 C 0.35273 0.72676 0.85432 0.0
C3058 C 0.36283 0.73111 0.84969 0.0
C3059 C 0.36622 0.74215 0.85233 0.0
C3060 C 0.36949 0.7246 0.84139 0.0
C3061 C 0.34892 0.71483 0.85192 0.0
C3062 C 0.38015 0.72026 0.8442 0.0
C3063 C 0.38642 0.7142 0.8362 0.0
C3064 C 0.38216 0.71256 0.82521 0.0
C3065 C 0.37148 0.71699 0.82245 0.0
C3066 C 0.3652 0.72293 0.83048 0.0
H3067 H 0.34225 0.71201 0.85791 0.0
H3068 H 0.34543 0.71439 0.84323 0.0
H3069 H 0.35617 0.70888 0.85242 0.0
H3070 H 0.38359 0.72152 0.85259 0.0
H3071 H 0.39463 0.71094 0.83858 0.0
H3072 H 0.04866 0.22595 0.29104 0.0
H3073 H 0.04672 0.23984 0.27586 0.0
H3074 H 0.06412 0.2174 0.25301 0.0
H3075 H 0.06602 0.20342 0.26811 0.0
H3076 H 0.06525 0.2496 0.26467 0.0
H3077 H 0.03665 0.22793 0.23442 0.0
H3078 H 0.03796 0.22364 0.24901 0.0
H3079 H 0.04858 0.21967 0.23891 0.0
C3080 C 0.05192 0.2239 0.28274 0.0
C3081 C 0.05753 0.2136 0.28078 0.0
C3082 C 0.05081 0.23184 0.27408 0.0
C3083 C 0.05517 0.2296 0.26329 0.0
C3084 C 0.0605 0.21921 0.26122 0.0
H3085 H 0.06713 0.26838 0.2027 0.0
H3086 H 0.06491 0.25361 0.21699 0.0
C3087 C 0.06164 0.21126 0.26988 0.0
C3088 C 0.05502 0.2385 0.25451 0.0
H3089 H 0.04584 0.24457 0.22785 0.0
C3090 C 0.06092 0.24856 0.25666 0.0
C3091 C 0.04944 0.23704 0.24405 0.0
C3092 C 0.04271 0.22653 0.24146 0.0
C3093 C 0.06161 0.25713 0.24851 0.0
C3094 C 0.05603 0.2557 0.23804 0.0
C3095 C 0.05008 0.24565 0.2359 0.0
C3096 C 0.05655 0.26444 0.22911 0.0
C3097 C 0.06862 0.26749 0.25107 0.0
C3098 C 0.0523 0.27534 0.23109 0.0
C3099 C 0.05361 0.28381 0.22297 0.0
C3100 C 0.0591 0.2815 0.2127 0.0
C3101 C 0.06291 0.27044 0.21055 0.0
C3102 C 0.06163 0.26199 0.21869 0.0
H3103 H 0.07457 0.26601 0.25818 0.0
H3104 H 0.07354 0.27016 0.24355 0.0
H3105 H 0.06293 0.27454 0.25349 0.0
H3106 H 0.04814 0.27734 0.23898 0.0
H3107 H 0.05049 0.29222 0.22483 0.0
H3108 H 0.7753 0.06623 0.26798 0.0
H3109 H 0.76097 0.06399 0.25324 0.0
H3110 H 0.73863 0.04808 0.27722 0.0
H3111 H 0.75286 0.05039 0.29206 0.0
H3112 H 0.74949 0.04459 0.24474 0.0
H3113 H 0.72027 0.07513 0.26527 0.0
H3114 H 0.73494 0.07385 0.26928 0.0
H3115 H 0.72478 0.06364 0.2741 0.0
C3116 C 0.76737 0.06218 0.2701 0.0
C3117 C 0.76516 0.0586 0.28121 0.0
C3118 C 0.75921 0.06089 0.26167 0.0
C3119 C 0.74869 0.05604 0.2642 0.0
C3120 C 0.74663 0.05203 0.27516 0.0
H3121 H 0.68645 0.05033 0.22559 0.0
H3122 H 0.70135 0.04811 0.23975 0.0
C3123 C 0.75478 0.05332 0.28361 0.0
C3124 C 0.73974 0.05558 0.25547 0.0
H3125 H 0.71357 0.06583 0.24896 0.0
C3126 C 0.74162 0.04921 0.24565 0.0
C3127 C 0.72951 0.06166 0.25669 0.0
C3128 C 0.72724 0.06904 0.26685 0.0
C3129 C 0.73347 0.04866 0.23704 0.0
C3130 C 0.72328 0.05479 0.23824 0.0
C3131 C 0.72138 0.06109 0.2481 0.0
C3132 C 0.71457 0.05513 0.22925 0.0
C3133 C 0.73578 0.04143 0.2268 0.0
C3134 C 0.71709 0.05976 0.21864 0.0
C3135 C 0.7086 0.06103 0.21052 0.0
C3136 C 0.69742 0.05778 0.21292 0.0
C3137 C 0.69498 0.05292 0.22348 0.0
C3138 C 0.70347 0.05165 0.23158 0.0
H3139 H 0.74234 0.03494 0.22854 0.0
H3140 H 0.72797 0.03712 0.22387 0.0
H3141 H 0.7389 0.04687 0.21983 0.0
H3142 H 0.72554 0.06272 0.21675 0.0
H3143 H 0.71074 0.06484 0.20248 0.0
H3144 H 0.91449 0.71037 0.202 0.0
H3145 H 0.91682 0.72545 0.21593 0.0
H3146 H 0.92903 0.70122 0.24024 0.0
H3147 H 0.92685 0.68608 0.22632 0.0
H3148 H 0.90547 0.72598 0.23659 0.0
H3149 H 0.95197 0.72716 0.24295 0.0
H3150 H 0.94548 0.72048 0.23085 0.0
H3151 H 0.94575 0.71337 0.24425 0.0
C3152 C 0.91783 0.70827 0.21025 0.0
C3153 C 0.92046 0.69703 0.21307 0.0
C3154 C 0.91916 0.7169 0.2182 0.0
C3155 C 0.92321 0.71447 0.22907 0.0
C3156 C 0.9261 0.7033 0.23183 0.0
H3157 H 0.92688 0.75157 0.292 0.0
H3158 H 0.92859 0.73762 0.27681 0.0
C3159 C 0.92478 0.69466 0.22388 0.0
C3160 C 0.92346 0.72344 0.23778 0.0
H3161 H 0.94079 0.73763 0.256 0.0
C3162 C 0.91321 0.7286 0.24077 0.0
C3163 C 0.93355 0.72675 0.24327 0.0
C3164 C 0.94484 0.72173 0.24012 0.0
C3165 C 0.91272 0.73685 0.24925 0.0
C3166 C 0.92281 0.7402 0.25473 0.0
C3167 C 0.93308 0.73506 0.25175 0.0
C3168 C 0.92277 0.74893 0.26368 0.0
C3169 C 0.90137 0.74171 0.25247 0.0
C3170 C 0.91925 0.75999 0.26126 0.0
C3171 C 0.91822 0.76795 0.2699 0.0
C3172 C 0.92077 0.76501 0.28113 0.0
C3173 C 0.9248 0.75408 0.28345 0.0
C3174 C 0.9258 0.7461 0.27479 0.0
H3175 H 0.89428 0.73632 0.24949 0.0
H3176 H 0.90067 0.74271 0.26177 0.0
H3177 H 0.90041 0.75017 0.24855 0.0
H3178 H 0.91709 0.76239 0.2527 0.0
H3179 H 0.9152 0.77634 0.26782 0.0
H3180 H 0.22637 0.92584 0.29237 0.0
H3181 H 0.24029 0.92787 0.27722 0.0
H3182 H 0.21615 0.91485 0.25321 0.0
H3183 H 0.20222 0.91266 0.26831 0.0
H3184 H 0.23693 0.90388 0.25272 0.0
H3185 H 0.24265 0.95042 0.25103 0.0
H3186 H 0.24416 0.9444 0.26488 0.0
H3187 H 0.23069 0.94385 0.25787 0.0
C3188 C 0.22397 0.92355 0.28384 0.0
C3189 C 0.21321 0.91906 0.28154 0.0
C3190 C 0.23192 0.92478 0.27518 0.0
C3191 C 0.2292 0.92163 0.26407 0.0
C3192 C 0.21838 0.91738 0.26172 0.0
H3193 H 0.2678 0.91379 0.2021 0.0
H3194 H 0.25272 0.9155 0.21613 0.0
C3195 C 0.21044 0.91614 0.27036 0.0
C3196 C 0.23791 0.92189 0.25509 0.0
H3197 H 0.25587 0.9393 0.24069 0.0
C3198 C 0.24101 0.91163 0.25002 0.0
C3199 C 0.24325 0.93202 0.25166 0.0
C3200 C 0.23997 0.94332 0.25656 0.0
C3201 C 0.24946 0.91118 0.24173 0.0
C3202 C 0.25481 0.9213 0.23829 0.0
C3203 C 0.25172 0.93157 0.24334 0.0
C3204 C 0.26374 0.92129 0.22953 0.0
C3205 C 0.2528 0.89983 0.23695 0.0
C3206 C 0.27483 0.92441 0.2323 0.0
C3207 C 0.28347 0.92351 0.22429 0.0
C3208 C 0.28112 0.91949 0.21335 0.0
C3209 C 0.2699 0.91683 0.21047 0.0
C3210 C 0.26128 0.91775 0.21849 0.0
H3211 H 0.24988 0.89275 0.24238 0.0
H3212 H 0.24891 0.89878 0.22849 0.0
H3213 H 0.26212 0.89922 0.23597 0.0
H3214 H 0.27687 0.92722 0.24078 0.0
H3215 H 0.29202 0.92568 0.22675 0.0
H3216 H 0.05174 0.68633 0.75207 0.0
H3217 H 0.05059 0.7013 0.73783 0.0
H3218 H 0.06342 0.72539 0.76199 0.0
H3219 H 0.06474 0.71048 0.77622 0.0
H3220 H 0.03932 0.7226 0.73753 0.0
H3221 H 0.08604 0.7271 0.73563 0.0
H3222 H 0.07921 0.71523 0.74233 0.0
H3223 H 0.08013 0.72857 0.74953 0.0
C3224 C 0.05423 0.69483 0.75438 0.0
C3225 C 0.05846 0.6972 0.76523 0.0
C3226 C 0.05355 0.70337 0.74624 0.0
C3227 C 0.05712 0.71438 0.74881 0.0
C3228 C 0.06084 0.71688 0.75978 0.0
H3229 H 0.06701 0.77534 0.70956 0.0
H3230 H 0.06464 0.76148 0.72469 0.0
C3231 C 0.06154 0.70836 0.76792 0.0
C3232 C 0.05736 0.72316 0.73991 0.0
H3233 H 0.07528 0.74033 0.72522 0.0
C3234 C 0.04717 0.72648 0.73481 0.0
C3235 C 0.06763 0.72815 0.73636 0.0
C3236 C 0.0789 0.72453 0.74116 0.0
C3237 C 0.04697 0.73484 0.72638 0.0
C3238 C 0.05724 0.73985 0.72289 0.0
C3239 C 0.06742 0.73651 0.72798 0.0
C3240 C 0.05773 0.74848 0.71385 0.0
C3241 C 0.03577 0.73838 0.72143 0.0
C3242 C 0.05459 0.74576 0.70274 0.0
C3243 C 0.05594 0.75366 0.69407 0.0
C3244 C 0.06052 0.76439 0.69635 0.0
C3245 C 0.06346 0.76715 0.70753 0.0
C3246 C 0.06212 0.75925 0.71618 0.0
H3247 H 0.02857 0.73586 0.72692 0.0
H3248 H 0.03547 0.74767 0.72014 0.0
H3249 H 0.03464 0.73424 0.7131 0.0
H3250 H 0.05139 0.73742 0.70073 0.0
H3251 H 0.05362 0.75128 0.68554 0.0
H3252 H 0.29295 0.04933 0.75131 0.0
H3253 H 0.27844 0.04688 0.73677 0.0
H3254 H 0.25366 0.06202 0.7588 0.0
H3255 H 0.26807 0.06437 0.77345 0.0
H3256 H 0.24579 0.04261 0.74681 0.0
H3257 H 0.2664 0.07407 0.71863 0.0
H3258 H 0.27528 0.06261 0.72314 0.0
H3259 H 0.27011 0.0726 0.73334 0.0
C3260 C 0.28439 0.05205 0.7531 0.0
C3261 C 0.28168 0.05715 0.76348 0.0
C3262 C 0.27613 0.05068 0.74477 0.0
C3263 C 0.26504 0.05445 0.74665 0.0
C3264 C 0.26219 0.0591 0.75717 0.0
H3265 H 0.20359 0.06396 0.70884 0.0
H3266 H 0.2179 0.06126 0.72349 0.0
C3267 C 0.27044 0.06046 0.76552 0.0
C3268 C 0.2565 0.054 0.73752 0.0
H3269 H 0.25016 0.06493 0.71161 0.0
C3270 C 0.24674 0.04745 0.73909 0.0
C3271 C 0.25779 0.06035 0.72748 0.0
C3272 C 0.2679 0.06789 0.72553 0.0
C3273 C 0.23821 0.04705 0.73084 0.0
C3274 C 0.23943 0.05353 0.72087 0.0
C3275 C 0.24927 0.05994 0.71924 0.0
C3276 C 0.23043 0.0542 0.71219 0.0
C3277 C 0.22803 0.03964 0.73282 0.0
C3278 C 0.23276 0.05122 0.70095 0.0
C3279 C 0.22463 0.05284 0.69254 0.0
C3280 C 0.21405 0.05754 0.69521 0.0
C3281 C 0.21165 0.06029 0.70652 0.0
C3282 C 0.21979 0.05867 0.71492 0.0
H3283 H 0.22984 0.03289 0.73908 0.0
H3284 H 0.22101 0.04488 0.73619 0.0
H3285 H 0.22513 0.03566 0.72483 0.0
H3286 H 0.24095 0.04782 0.69866 0.0
H3287 H 0.22673 0.05063 0.68391 0.0
H3288 H 0.91428 0.26805 0.77617 0.0
H3289 H 0.91642 0.25294 0.76224 0.0
H3290 H 0.9285 0.2771 0.73779 0.0
H3291 H 0.92651 0.29226 0.75171 0.0
H3292 H 0.90493 0.25231 0.74174 0.0
H3293 H 0.95134 0.25117 0.73487 0.0
H3294 H 0.94498 0.25793 0.747 0.0
H3295 H 0.94513 0.26496 0.73355 0.0
C3296 C 0.91755 0.27013 0.76788 0.0
C3297 C 0.9202 0.28136 0.76503 0.0
C3298 C 0.91877 0.26148 0.75994 0.0
C3299 C 0.92273 0.26388 0.74903 0.0
C3300 C 0.92564 0.27503 0.74623 0.0
H3301 H 0.92571 0.22718 0.68592 0.0
H3302 H 0.92753 0.24099 0.70123 0.0
C3303 C 0.92442 0.28369 0.75417 0.0
C3304 C 0.92289 0.25489 0.74033 0.0
H3305 H 0.94001 0.24078 0.72186 0.0
C3306 C 0.91261 0.24971 0.73746 0.0
C3307 C 0.93292 0.2516 0.73472 0.0
C3308 C 0.94424 0.25662 0.73774 0.0
C3309 C 0.91204 0.24148 0.72896 0.0
C3310 C 0.92206 0.23818 0.72334 0.0
C3311 C 0.93236 0.24332 0.72622 0.0
C3312 C 0.92191 0.22953 0.7143 0.0
C3313 C 0.90065 0.23661 0.72587 0.0
C3314 C 0.91845 0.21844 0.71666 0.0
C3315 C 0.91735 0.21055 0.70794 0.0
C3316 C 0.91977 0.21361 0.69672 0.0
C3317 C 0.92373 0.22459 0.69447 0.0
C3318 C 0.92479 0.23248 0.7032 0.0
H3319 H 0.89359 0.24195 0.729 0.0
H3320 H 0.89981 0.23568 0.71657 0.0
H3321 H 0.89978 0.22811 0.72972 0.0
H3322 H 0.91639 0.21595 0.72522 0.0
H3323 H 0.91439 0.20214 0.70997 0.0
H3324 H 0.71097 0.91329 0.77677 0.0
H3325 H 0.72607 0.91533 0.76282 0.0
H3326 H 0.70227 0.92938 0.73906 0.0
H3327 H 0.68714 0.92751 0.75302 0.0
H3328 H 0.72609 0.90457 0.74205 0.0
H3329 H 0.72912 0.95105 0.73653 0.0
H3330 H 0.72213 0.94463 0.74848 0.0
H3331 H 0.71506 0.94551 0.73507 0.0
C3332 C 0.70898 0.91698 0.76864 0.0
C3333 C 0.69785 0.92021 0.76598 0.0
C3334 C 0.71762 0.91814 0.76068 0.0
C3335 C 0.71532 0.92261 0.74995 0.0
C3336 C 0.70428 0.92612 0.74737 0.0
H3337 H 0.75153 0.92572 0.68656 0.0
H3338 H 0.73789 0.92761 0.70202 0.0
C3339 C 0.69563 0.92497 0.75533 0.0
C3340 C 0.72423 0.92265 0.74117 0.0
H3341 H 0.73885 0.93969 0.72303 0.0
C3342 C 0.72896 0.91226 0.73796 0.0
C3343 C 0.72788 0.93269 0.7358 0.0
C3344 C 0.72337 0.94412 0.7392 0.0
C3345 C 0.73709 0.91159 0.72937 0.0
C3346 C 0.74073 0.92162 0.72399 0.0
C3347 C 0.73604 0.93203 0.7272 0.0
C3348 C 0.74929 0.92137 0.71487 0.0
C3349 C 0.74149 0.90012 0.72593 0.0
C3350 C 0.76029 0.91752 0.71706 0.0
C3351 C 0.76808 0.9164 0.70827 0.0
C3352 C 0.76501 0.91916 0.69713 0.0
C3353 C 0.75413 0.92346 0.69504 0.0
C3354 C 0.74633 0.92457 0.70385 0.0
H3355 H 0.73594 0.89318 0.72897 0.0
H3356 H 0.74224 0.89948 0.7166 0.0
H3357 H 0.75001 0.89884 0.72963 0.0
H3358 H 0.76278 0.91519 0.72556 0.0
H3359 H 0.77642 0.91315 0.71017 0.0
H3360 H 0.20061 0.05272 0.26999 0.0
H3361 H 0.21406 0.04907 0.25466 0.0
H3362 H 0.24086 0.06338 0.27491 0.0
H3363 H 0.22764 0.06614 0.29048 0.0
H3364 H 0.22502 0.06187 0.24218 0.0
H3365 H 0.25723 0.03681 0.26437 0.0
H3366 H 0.2438 0.04002 0.27078 0.0
H3367 H 0.25544 0.04987 0.27176 0.0
C3368 C 0.20944 0.05485 0.27119 0.0
C3369 C 0.21316 0.05956 0.28142 0.0
C3370 C 0.21711 0.05281 0.26244 0.0
C3371 C 0.22859 0.05569 0.26367 0.0
C3372 C 0.23221 0.0606 0.27387 0.0
H3373 H 0.27249 0.0759 0.20981 0.0
H3374 H 0.25744 0.07354 0.22368 0.0
C3375 C 0.22462 0.06229 0.28274 0.0
C3376 C 0.23661 0.05434 0.25407 0.0
H3377 H 0.26379 0.047 0.24782 0.0
C3378 C 0.23343 0.0584 0.24339 0.0
C3379 C 0.2475 0.04953 0.25544 0.0
C3380 C 0.25111 0.04369 0.26619 0.0
C3381 C 0.24096 0.05831 0.23423 0.0
C3382 C 0.25224 0.05465 0.23595 0.0
C3383 C 0.25524 0.05006 0.24648 0.0
C3384 C 0.26118 0.05594 0.22719 0.0
C3385 C 0.23663 0.06201 0.22283 0.0
C3386 C 0.26871 0.04703 0.22485 0.0
C3387 C 0.27766 0.04856 0.21728 0.0
C3388 C 0.27905 0.05893 0.2117 0.0
C3389 C 0.27145 0.06776 0.21386 0.0
C3390 C 0.26276 0.06636 0.22171 0.0
H3391 H 0.2275 0.06 0.22189 0.0
H3392 H 0.23752 0.07132 0.22205 0.0
H3393 H 0.24131 0.0579 0.21581 0.0
H3394 H 0.26775 0.03892 0.22898 0.0
H3395 H 0.28345 0.04164 0.21575 0.0
H3396 H 0.92803 0.29202 0.22494 0.0
H3397 H 0.93045 0.27734 0.2393 0.0
H3398 H 0.91601 0.2527 0.21665 0.0
H3399 H 0.91369 0.26728 0.2022 0.0
H3400 H 0.91293 0.26512 0.24873 0.0
H3401 H 0.94394 0.2363 0.22859 0.0
H3402 H 0.94161 0.25058 0.22371 0.0
H3403 H 0.93195 0.2395 0.21986 0.0
C3404 C 0.92552 0.28344 0.22296 0.0
C3405 C 0.92066 0.28081 0.21244 0.0
C3406 C 0.92691 0.27507 0.23116 0.0
C3407 C 0.92353 0.26392 0.22899 0.0
C3408 C 0.91889 0.26121 0.21842 0.0
H3409 H 0.91257 0.20368 0.26829 0.0
H3410 H 0.91489 0.21787 0.25343 0.0
C3411 C 0.91751 0.26957 0.21019 0.0
C3412 C 0.92398 0.25534 0.23809 0.0
H3413 H 0.93433 0.22926 0.24486 0.0
C3414 C 0.91771 0.25733 0.24795 0.0
C3415 C 0.93017 0.24517 0.23699 0.0
C3416 C 0.93739 0.24277 0.22676 0.0
C3417 C 0.9172 0.2493 0.25663 0.0
C3418 C 0.92332 0.23909 0.25551 0.0
C3419 C 0.92968 0.23712 0.2457 0.0
C3420 C 0.92286 0.23021 0.2643 0.0
C3421 C 0.90983 0.25165 0.26678 0.0
C3422 C 0.92687 0.23236 0.27525 0.0
C3423 C 0.92553 0.2243 0.28376 0.0
C3424 C 0.92021 0.21393 0.28145 0.0
C3425 C 0.91665 0.21162 0.27035 0.0
C3426 C 0.91798 0.21969 0.26184 0.0
H3427 H 0.90374 0.25861 0.26516 0.0
H3428 H 0.90503 0.24398 0.26927 0.0
H3429 H 0.91525 0.25417 0.27401 0.0
H3430 H 0.93085 0.24037 0.27725 0.0
H3431 H 0.92845 0.22629 0.2922 0.0
H3432 H 0.77779 0.91475 0.26742 0.0
H3433 H 0.76387 0.91662 0.25227 0.0
H3434 H 0.73986 0.93053 0.27591 0.0
H3435 H 0.75378 0.92882 0.2911 0.0
H3436 H 0.74324 0.90556 0.25236 0.0
H3437 H 0.73703 0.95191 0.24886 0.0
H3438 H 0.74909 0.94574 0.25589 0.0
H3439 H 0.73567 0.9465 0.26296 0.0
C3440 C 0.76961 0.91838 0.26937 0.0
C3441 C 0.76687 0.9216 0.28047 0.0
C3442 C 0.76168 0.91945 0.2607 0.0
C3443 C 0.75088 0.92381 0.26294 0.0
C3444 C 0.74822 0.92734 0.27394 0.0
H3445 H 0.68723 0.92557 0.2272 0.0
H3446 H 0.70283 0.92795 0.24059 0.0
C3447 C 0.75616 0.92629 0.28263 0.0
C3448 C 0.74209 0.92364 0.25403 0.0
H3449 H 0.72363 0.94025 0.23931 0.0
C3450 C 0.73903 0.91315 0.24942 0.0
C3451 C 0.73657 0.93356 0.25029 0.0
C3452 C 0.73981 0.94508 0.25467 0.0
C3453 C 0.73041 0.91226 0.24134 0.0
C3454 C 0.72485 0.92217 0.23762 0.0
C3455 C 0.72794 0.93268 0.24218 0.0
C3456 C 0.71565 0.92168 0.22917 0.0
C3457 C 0.7271 0.90069 0.23711 0.0
C3458 C 0.71776 0.91766 0.21822 0.0
C3459 C 0.70888 0.91624 0.21057 0.0
C3460 C 0.69773 0.91889 0.21373 0.0
C3461 C 0.69571 0.92339 0.22454 0.0
C3462 C 0.70461 0.92478 0.23219 0.0
H3463 H 0.73028 0.89386 0.24272 0.0
H3464 H 0.71777 0.89991 0.23642 0.0
H3465 H 0.73077 0.89936 0.22858 0.0
H3466 H 0.72626 0.91541 0.21567 0.0
H3467 H 0.71073 0.91285 0.20228 0.0
H3468 H 0.05082 0.68523 0.22519 0.0
H3469 H 0.04859 0.69997 0.23952 0.0
H3470 H 0.06194 0.72467 0.21631 0.0
H3471 H 0.06406 0.71004 0.20189 0.0
H3472 H 0.06628 0.71258 0.24831 0.0
H3473 H 0.03408 0.74067 0.22904 0.0
H3474 H 0.03647 0.72639 0.22421 0.0
H3475 H 0.04581 0.73758 0.21992 0.0
C3476 C 0.05312 0.69383 0.22307 0.0
C3477 C 0.05763 0.69647 0.21241 0.0
C3478 C 0.05185 0.70223 0.23127 0.0
C3479 C 0.05498 0.71343 0.22893 0.0
C3480 C 0.05925 0.71614 0.21821 0.0
H3481 H 0.06585 0.77429 0.2675 0.0
H3482 H 0.06352 0.75992 0.2528 0.0
C3483 C 0.06052 0.70774 0.21001 0.0
C3484 C 0.05469 0.72207 0.23799 0.0
H3485 H 0.04412 0.74802 0.24492 0.0
C3486 C 0.06134 0.72028 0.24764 0.0
C3487 C 0.04829 0.73212 0.23703 0.0
C3488 C 0.04067 0.73429 0.22704 0.0
C3489 C 0.06201 0.7284 0.25624 0.0
C3490 C 0.05568 0.7385 0.25525 0.0
C3491 C 0.04894 0.74026 0.24565 0.0
C3492 C 0.05623 0.74743 0.26398 0.0
C3493 C 0.06978 0.72627 0.26613 0.0
C3494 C 0.05262 0.74525 0.27506 0.0
C3495 C 0.05397 0.75342 0.28348 0.0
C3496 C 0.05889 0.76394 0.28094 0.0
C3497 C 0.06207 0.76625 0.26973 0.0
C3498 C 0.06074 0.75807 0.26132 0.0
H3499 H 0.07597 0.71944 0.26433 0.0
H3500 H 0.07449 0.73406 0.26843 0.0
H3501 H 0.06467 0.72366 0.27355 0.0
H3502 H 0.04893 0.73716 0.27723 0.0
H3503 H 0.05135 0.75142 0.29201 0.0
H3504 H 0.2274 0.92482 0.68638 0.0
H3505 H 0.24132 0.92669 0.70159 0.0
H3506 H 0.21647 0.91542 0.72575 0.0
H3507 H 0.20255 0.9134 0.71061 0.0
H3508 H 0.24095 0.93928 0.72227 0.0
H3509 H 0.24282 0.8929 0.72943 0.0
H3510 H 0.23649 0.89902 0.71698 0.0
H3511 H 0.22889 0.8989 0.73013 0.0
C3512 C 0.22488 0.92281 0.69494 0.0
C3513 C 0.21392 0.91885 0.69728 0.0
C3514 C 0.23283 0.9239 0.70362 0.0
C3515 C 0.22996 0.92102 0.71474 0.0
C3516 C 0.2189 0.9175 0.71717 0.0
H3517 H 0.26876 0.91381 0.77648 0.0
H3518 H 0.25358 0.91573 0.76259 0.0
C3519 C 0.21095 0.91639 0.70852 0.0
C3520 C 0.23864 0.9213 0.72375 0.0
H3521 H 0.25307 0.9044 0.74212 0.0
C3522 C 0.24363 0.93167 0.72662 0.0
C3523 C 0.2421 0.91133 0.72936 0.0
C3524 C 0.23739 0.89988 0.72628 0.0
C3525 C 0.25189 0.93237 0.73511 0.0
C3526 C 0.25536 0.9224 0.74072 0.0
C3527 C 0.25035 0.91204 0.73785 0.0
C3528 C 0.26436 0.92238 0.74941 0.0
C3529 C 0.25672 0.94378 0.73814 0.0
C3530 C 0.27544 0.92557 0.74663 0.0
C3531 C 0.28414 0.9245 0.75455 0.0
C3532 C 0.28192 0.92013 0.76537 0.0
C3533 C 0.27076 0.9172 0.76822 0.0
C3534 C 0.26207 0.91829 0.7603 0.0
H3535 H 0.2511 0.95077 0.73535 0.0
H3536 H 0.25807 0.94451 0.7474 0.0
H3537 H 0.26501 0.94484 0.73389 0.0
H3538 H 0.27744 0.92853 0.7382 0.0
H3539 H 0.29266 0.92679 0.75209 0.0
H3540 H 0.06535 0.20176 0.71017 0.0
H3541 H 0.06345 0.21579 0.72523 0.0
H3542 H 0.051 0.24011 0.70111 0.0
H3543 H 0.05276 0.22609 0.68602 0.0
H3544 H 0.07492 0.23637 0.72557 0.0
H3545 H 0.0285 0.24306 0.72734 0.0
H3546 H 0.0348 0.23091 0.72059 0.0
H3547 H 0.03451 0.24431 0.71346 0.0
C3548 C 0.06205 0.21004 0.7081 0.0
C3549 C 0.05923 0.21283 0.6969 0.0
C3550 C 0.06097 0.21804 0.71671 0.0
C3551 C 0.05697 0.22894 0.7143 0.0
C3552 C 0.0539 0.23168 0.70319 0.0
H3553 H 0.05406 0.29217 0.75092 0.0
H3554 H 0.05229 0.27686 0.7371 0.0
C3555 C 0.05497 0.22367 0.69456 0.0
C3556 C 0.05691 0.2377 0.72324 0.0
H3557 H 0.03992 0.25616 0.73751 0.0
C3558 C 0.06725 0.24063 0.72826 0.0
C3559 C 0.04691 0.24328 0.72666 0.0
C3560 C 0.03553 0.24019 0.72182 0.0
C3561 C 0.06791 0.24917 0.73644 0.0
C3562 C 0.05792 0.25477 0.73986 0.0
C3563 C 0.04756 0.25182 0.73488 0.0
C3564 C 0.05814 0.26382 0.74849 0.0
C3565 C 0.07935 0.25233 0.74115 0.0
C3566 C 0.06172 0.26148 0.75954 0.0
C3567 C 0.06278 0.2702 0.76743 0.0
C3568 C 0.0602 0.2814 0.76442 0.0
C3569 C 0.05616 0.28364 0.75348 0.0
C3570 C 0.05513 0.27491 0.74558 0.0
H3571 H 0.08635 0.24921 0.73572 0.0
H3572 H 0.08016 0.26164 0.74203 0.0
H3573 H 0.08036 0.24849 0.74964 0.0
H3574 H 0.06388 0.25293 0.76201 0.0
H3575 H 0.06582 0.26818 0.77583 0.0
H3576 H 0.68603 0.05043 0.7515 0.0
H3577 H 0.70086 0.04794 0.73729 0.0
H3578 H 0.72518 0.06294 0.75993 0.0
H3579 H 0.71045 0.06536 0.77422 0.0
H3580 H 0.71312 0.06564 0.72781 0.0
H3581 H 0.74181 0.03481 0.74843 0.0
H3582 H 0.72743 0.03705 0.75306 0.0
H3583 H 0.73836 0.04682 0.75706 0.0
C3584 C 0.69457 0.05305 0.75351 0.0
C3585 C 0.69707 0.05811 0.76397 0.0
C3586 C 0.70302 0.05162 0.74539 0.0
C3587 C 0.71413 0.05513 0.74761 0.0
C3588 C 0.71671 0.05996 0.75813 0.0
H3589 H 0.77505 0.06564 0.70921 0.0
H3590 H 0.7606 0.06342 0.72383 0.0
C3591 C 0.70826 0.0614 0.76626 0.0
C3592 C 0.7228 0.05464 0.73859 0.0
H3593 H 0.74898 0.04433 0.73217 0.0
C3594 C 0.72091 0.06088 0.72869 0.0
C3595 C 0.73297 0.04849 0.73983 0.0
C3596 C 0.73525 0.04133 0.75012 0.0
C3597 C 0.72906 0.06139 0.72011 0.0
C3598 C 0.73928 0.0553 0.72137 0.0
C3599 C 0.74113 0.04896 0.73123 0.0
C3600 C 0.74828 0.05575 0.7127 0.0
C3601 C 0.72683 0.06876 0.70994 0.0
C3602 C 0.74624 0.05189 0.70167 0.0
C3603 C 0.75446 0.05319 0.69329 0.0
C3604 C 0.76489 0.05831 0.69581 0.0
C3605 C 0.76708 0.06172 0.70698 0.0
C3606 C 0.75885 0.06044 0.71535 0.0
H3607 H 0.7199 0.0749 0.71152 0.0
H3608 H 0.73454 0.0735 0.70748 0.0
H3609 H 0.72429 0.06335 0.70271 0.0
H3610 H 0.73822 0.04804 0.69951 0.0
H3611 H 0.75255 0.05039 0.68479 0.0
H3612 H 0.9268 0.6861 0.75215 0.0
H3613 H 0.92896 0.70083 0.73781 0.0
H3614 H 0.91488 0.72537 0.7608 0.0
H3615 H 0.91281 0.71073 0.77522 0.0
H3616 H 0.91111 0.71323 0.72879 0.0
H3617 H 0.94281 0.74167 0.74845 0.0
H3618 H 0.94055 0.72734 0.75319 0.0
H3619 H 0.93101 0.73839 0.75741 0.0
C3620 C 0.92431 0.69466 0.75421 0.0
C3621 C 0.91962 0.69725 0.76481 0.0
C3622 C 0.92555 0.70306 0.74601 0.0
C3623 C 0.9222 0.71421 0.74829 0.0
C3624 C 0.91773 0.71687 0.75894 0.0
H3625 H 0.91177 0.77501 0.70951 0.0
H3626 H 0.91383 0.76064 0.72423 0.0
C3627 C 0.91649 0.70848 0.76715 0.0
C3628 C 0.92251 0.72283 0.73923 0.0
H3629 H 0.933 0.74882 0.73237 0.0
C3630 C 0.91598 0.72096 0.72951 0.0
C3631 C 0.92882 0.73293 0.74025 0.0
C3632 C 0.93628 0.73519 0.75034 0.0
C3633 C 0.91537 0.72906 0.72088 0.0
C3634 C 0.92163 0.73919 0.72192 0.0
C3635 C 0.92823 0.74103 0.7316 0.0
C3636 C 0.92116 0.74809 0.71314 0.0
C3637 C 0.90774 0.72684 0.7109 0.0
C3638 C 0.92487 0.74587 0.7021 0.0
C3639 C 0.92367 0.75404 0.69367 0.0
C3640 C 0.91881 0.7646 0.69615 0.0
C3641 C 0.9155 0.76694 0.70732 0.0
C3642 C 0.91669 0.75876 0.71574 0.0
H3643 H 0.90153 0.72002 0.71268 0.0
H3644 H 0.90305 0.7346 0.70848 0.0
H3645 H 0.91294 0.72417 0.70357 0.0
H3646 H 0.92855 0.73776 0.69998 0.0
H3647 H 0.92639 0.75201 0.68516 0.0
H3648 H 0.20371 0.26779 0.0655 0.0
H3649 H 0.21791 0.25293 0.06305 0.0
H3650 H 0.23991 0.2766 0.04622 0.0
H3651 H 0.22585 0.29155 0.04875 0.0
H3652 H 0.22893 0.24406 0.04352 0.0
H3653 H 0.25887 0.26507 0.07301 0.0
H3654 H 0.24419 0.26907 0.072 0.0
H3655 H 0.25412 0.27374 0.0615 0.0
C3656 C 0.21154 0.26981 0.0612 0.0
C3657 C 0.21372 0.28087 0.05743 0.0
C3658 C 0.21962 0.26131 0.05979 0.0
C3659 C 0.23001 0.26373 0.05463 0.0
C3660 C 0.23201 0.27463 0.05042 0.0
H3661 H 0.29224 0.22523 0.04834 0.0
H3662 H 0.27719 0.2392 0.0459 0.0
C3663 C 0.22395 0.28314 0.05184 0.0
C3664 C 0.23894 0.25498 0.05409 0.0
H3665 H 0.26538 0.24867 0.06374 0.0
C3666 C 0.23691 0.24505 0.04792 0.0
C3667 C 0.24932 0.2563 0.05988 0.0
C3668 C 0.25176 0.26657 0.06706 0.0
C3669 C 0.24507 0.23644 0.04728 0.0
C3670 C 0.25542 0.23776 0.05311 0.0
C3671 C 0.25746 0.24772 0.05922 0.0
C3672 C 0.26416 0.22879 0.0534 0.0
C3673 C 0.24259 0.22608 0.04028 0.0
C3674 C 0.26179 0.21827 0.05832 0.0
C3675 C 0.27036 0.21027 0.05972 0.0
C3676 C 0.28149 0.21269 0.0563 0.0
C3677 C 0.28376 0.22311 0.05107 0.0
C3678 C 0.27518 0.2311 0.04967 0.0
H3679 H 0.23587 0.22771 0.03394 0.0
H3680 H 0.2503 0.2231 0.03583 0.0
H3681 H 0.23963 0.21919 0.04591 0.0
H3682 H 0.25339 0.2164 0.06147 0.0
H3683 H 0.26835 0.20233 0.06381 0.0
H3684 H 0.20338 0.71051 0.91264 0.0
H3685 H 0.21773 0.72529 0.91464 0.0
H3686 H 0.2401 0.70149 0.93081 0.0
H3687 H 0.22586 0.68663 0.92874 0.0
H3688 H 0.22949 0.73404 0.9339 0.0
H3689 H 0.25819 0.71291 0.90328 0.0
H3690 H 0.2435 0.70904 0.90477 0.0
H3691 H 0.25373 0.70426 0.91493 0.0
C3692 C 0.21132 0.70844 0.91671 0.0
C3693 C 0.21354 0.69737 0.92042 0.0
C3694 C 0.21949 0.7169 0.91786 0.0
C3695 C 0.23003 0.71442 0.9227 0.0
C3696 C 0.23209 0.70351 0.92687 0.0
H3697 H 0.29265 0.75251 0.92716 0.0
H3698 H 0.27763 0.73852 0.92971 0.0
C3699 C 0.22393 0.69505 0.92571 0.0
C3700 C 0.23902 0.7231 0.92293 0.0
H3701 H 0.26511 0.72929 0.9123 0.0
C3702 C 0.23729 0.73302 0.9292 0.0
C3703 C 0.24916 0.72173 0.91674 0.0
C3704 C 0.25127 0.71147 0.90946 0.0
C3705 C 0.24552 0.74158 0.92955 0.0
C3706 C 0.25563 0.74022 0.92332 0.0
C3707 C 0.25737 0.73027 0.91711 0.0
C3708 C 0.26443 0.74912 0.9228 0.0
C3709 C 0.24338 0.75192 0.9367 0.0
C3710 C 0.26196 0.75973 0.91813 0.0
C3711 C 0.27052 0.76775 0.91667 0.0
C3712 C 0.28171 0.76524 0.91978 0.0
C3713 C 0.28411 0.75469 0.92468 0.0
C3714 C 0.27555 0.74669 0.92614 0.0
H3715 H 0.23689 0.75029 0.94329 0.0
H3716 H 0.25127 0.75482 0.94088 0.0
H3717 H 0.24025 0.75885 0.93123 0.0
H3718 H 0.25349 0.76169 0.91527 0.0
H3719 H 0.26841 0.77578 0.91283 0.0
H3720 H 0.20194 0.26746 0.91354 0.0
H3721 H 0.21544 0.25203 0.91619 0.0
H3722 H 0.24 0.27564 0.92917 0.0
H3723 H 0.2265 0.2911 0.9267 0.0
H3724 H 0.2362 0.25089 0.90545 0.0
H3725 H 0.24177 0.24973 0.95198 0.0
H3726 H 0.23001 0.2568 0.94528 0.0
H3727 H 0.24365 0.26348 0.94585 0.0
C3728 C 0.21015 0.26935 0.91712 0.0
C3729 C 0.21317 0.2805 0.91988 0.0
C3730 C 0.21785 0.26052 0.91863 0.0
C3731 C 0.22867 0.26267 0.92299 0.0
C3732 C 0.23161 0.27376 0.92602 0.0
H3733 H 0.29129 0.22532 0.92723 0.0
H3734 H 0.27602 0.23921 0.92893 0.0
C3735 C 0.22391 0.2826 0.92452 0.0
C3736 C 0.23719 0.25351 0.92342 0.0
H3737 H 0.25504 0.2392 0.94103 0.0
C3738 C 0.24024 0.24825 0.91325 0.0
C3739 C 0.2425 0.25016 0.93359 0.0
C3740 C 0.23926 0.25526 0.94482 0.0
C3741 C 0.24863 0.23989 0.91291 0.0
C3742 C 0.25397 0.23656 0.92307 0.0
C3743 C 0.2509 0.24177 0.93327 0.0
C3744 C 0.26293 0.22783 0.92314 0.0
C3745 C 0.25194 0.23494 0.90163 0.0
C3746 C 0.26053 0.21675 0.91967 0.0
C3747 C 0.26922 0.20882 0.91864 0.0
C3748 C 0.28044 0.21182 0.92114 0.0
C3749 C 0.28272 0.22277 0.92517 0.0
C3750 C 0.27403 0.23071 0.92617 0.0
H3751 H 0.24901 0.24027 0.89447 0.0
H3752 H 0.26126 0.23395 0.90101 0.0
H3753 H 0.24804 0.22646 0.90071 0.0
H3754 H 0.25198 0.21431 0.9175 0.0
H3755 H 0.26717 0.20043 0.91562 0.0
H3756 H 0.6869 0.22628 0.92566 0.0
H3757 H 0.70206 0.24027 0.92735 0.0
H3758 H 0.72614 0.21577 0.91516 0.0
H3759 H 0.71104 0.20178 0.91329 0.0
H3760 H 0.72311 0.24009 0.93928 0.0
H3761 H 0.72887 0.24226 0.89274 0.0
H3762 H 0.71668 0.23574 0.8992 0.0
H3763 H 0.72992 0.22831 0.89861 0.0
C3764 C 0.69544 0.22384 0.92342 0.0
C3765 C 0.69776 0.21297 0.91921 0.0
C3766 C 0.70408 0.23184 0.92441 0.0
C3767 C 0.71516 0.2291 0.92119 0.0
C3768 C 0.71759 0.2181 0.91748 0.0
H3769 H 0.77646 0.2683 0.91254 0.0
H3770 H 0.76269 0.25304 0.91478 0.0
C3771 C 0.70897 0.21011 0.91646 0.0
C3772 C 0.72409 0.23786 0.92126 0.0
H3773 H 0.74185 0.25251 0.90391 0.0
C3774 C 0.72722 0.24283 0.93157 0.0
C3775 C 0.72938 0.24142 0.91116 0.0
C3776 C 0.726 0.23675 0.89978 0.0
C3777 C 0.73566 0.25116 0.93205 0.0
C3778 C 0.74095 0.25471 0.92194 0.0
C3779 C 0.73782 0.24972 0.91165 0.0
C3780 C 0.74959 0.26376 0.92171 0.0
C3781 C 0.73898 0.25598 0.94338 0.0
C3782 C 0.74681 0.27482 0.92495 0.0
C3783 C 0.75466 0.28357 0.92368 0.0
C3784 C 0.7654 0.28139 0.91908 0.0
C3785 C 0.76825 0.27025 0.9161 0.0
C3786 C 0.7604 0.26152 0.91737 0.0
H3787 H 0.73637 0.25036 0.95043 0.0
H3788 H 0.74825 0.25735 0.94387 0.0
H3789 H 0.73474 0.26427 0.94456 0.0
H3790 H 0.73844 0.27677 0.9281 0.0
H3791 H 0.7522 0.29207 0.92603 0.0
H3792 H 0.68607 0.75188 0.92849 0.0
H3793 H 0.70088 0.73771 0.93126 0.0
H3794 H 0.72537 0.76028 0.91646 0.0
H3795 H 0.71066 0.77454 0.91378 0.0
H3796 H 0.71322 0.7281 0.91384 0.0
H3797 H 0.74184 0.74888 0.94461 0.0
H3798 H 0.7275 0.75358 0.94223 0.0
H3799 H 0.73855 0.75746 0.93254 0.0
C3800 C 0.69465 0.75389 0.92598 0.0
C3801 C 0.6972 0.76432 0.92089 0.0
C3802 C 0.70309 0.74579 0.92758 0.0
C3803 C 0.71424 0.748 0.92419 0.0
C3804 C 0.71687 0.7585 0.91935 0.0
H3805 H 0.77499 0.70956 0.91336 0.0
H3806 H 0.76058 0.72419 0.91578 0.0
C3807 C 0.70843 0.76661 0.91776 0.0
C3808 C 0.72289 0.73897 0.92477 0.0
H3809 H 0.74909 0.73261 0.93509 0.0
C3810 C 0.721 0.72902 0.9186 0.0
C3811 C 0.73306 0.74024 0.93093 0.0
C3812 C 0.73535 0.75057 0.93804 0.0
C3813 C 0.72916 0.72044 0.91813 0.0
C3814 C 0.73938 0.72175 0.92419 0.0
C3815 C 0.74123 0.73163 0.93048 0.0
C3816 C 0.74841 0.71309 0.92371 0.0
C3817 C 0.72692 0.71021 0.91082 0.0
C3818 C 0.74644 0.70209 0.92767 0.0
C3819 C 0.75463 0.6937 0.92626 0.0
C3820 C 0.76496 0.6962 0.92093 0.0
C3821 C 0.7671 0.70735 0.91745 0.0
C3822 C 0.75889 0.71573 0.91883 0.0
H3823 H 0.71993 0.71171 0.90474 0.0
H3824 H 0.73461 0.70779 0.90602 0.0
H3825 H 0.7245 0.70299 0.91628 0.0
H3826 H 0.73848 0.69995 0.93165 0.0
H3827 H 0.75278 0.68521 0.92913 0.0
H3828 H 0.77526 0.70933 0.06695 0.0
H3829 H 0.76112 0.72426 0.06469 0.0
H3830 H 0.7391 0.70092 0.04741 0.0
H3831 H 0.75311 0.68589 0.04974 0.0
H3832 H 0.75036 0.7334 0.0452 0.0
H3833 H 0.71997 0.71232 0.07416 0.0
H3834 H 0.73463 0.7082 0.07323 0.0
H3835 H 0.72476 0.70376 0.06257 0.0
C3836 C 0.76744 0.70739 0.0626 0.0
C3837 C 0.76524 0.6964 0.05863 0.0
C3838 C 0.75939 0.71593 0.0613 0.0
C3839 C 0.74901 0.71363 0.05605 0.0
C3840 C 0.74698 0.7028 0.05167 0.0
H3841 H 0.68731 0.753 0.04957 0.0
H3842 H 0.70215 0.73878 0.04732 0.0
C3843 C 0.75501 0.69424 0.05297 0.0
C3844 C 0.74015 0.72246 0.05555 0.0
H3845 H 0.71372 0.72894 0.06511 0.0
C3846 C 0.74233 0.73245 0.04953 0.0
C3847 C 0.72972 0.72117 0.06125 0.0
C3848 C 0.72712 0.71084 0.06825 0.0
C3849 C 0.73428 0.74115 0.04896 0.0
C3850 C 0.72388 0.73988 0.05472 0.0
C3851 C 0.72168 0.72986 0.06066 0.0
C3852 C 0.71525 0.74895 0.05505 0.0
C3853 C 0.73691 0.75157 0.04211 0.0
C3854 C 0.71772 0.7594 0.06008 0.0
C3855 C 0.70926 0.76755 0.06137 0.0
C3856 C 0.69815 0.76534 0.05774 0.0
C3857 C 0.69577 0.75496 0.05246 0.0
C3858 C 0.70424 0.74682 0.05117 0.0
H3859 H 0.74366 0.74994 0.03579 0.0
H3860 H 0.72927 0.75469 0.03765 0.0
H3861 H 0.73992 0.75835 0.04785 0.0
H3862 H 0.72609 0.76112 0.06334 0.0
H3863 H 0.71135 0.77544 0.06551 0.0
H3864 H 0.2024 0.7104 0.06473 0.0
H3865 H 0.216 0.72576 0.06225 0.0
H3866 H 0.24022 0.7022 0.04857 0.0
H3867 H 0.22662 0.68681 0.05087 0.0
H3868 H 0.2368 0.72655 0.07283 0.0
H3869 H 0.24206 0.72854 0.02629 0.0
H3870 H 0.23031 0.72141 0.03294 0.0
H3871 H 0.24391 0.71465 0.03214 0.0
C3872 C 0.21056 0.70851 0.06103 0.0
C3873 C 0.21345 0.69738 0.05803 0.0
C3874 C 0.21831 0.7173 0.05962 0.0
C3875 C 0.22907 0.71514 0.05512 0.0
C3876 C 0.23189 0.70409 0.05185 0.0
H3877 H 0.29191 0.75221 0.05123 0.0
H3878 H 0.2766 0.73838 0.04948 0.0
C3879 C 0.22413 0.69529 0.05324 0.0
C3880 C 0.23766 0.72425 0.0548 0.0
H3881 H 0.2555 0.73874 0.03735 0.0
C3882 C 0.24081 0.7293 0.06506 0.0
C3883 C 0.24293 0.72774 0.04466 0.0
C3884 C 0.23957 0.72288 0.03336 0.0
C3885 C 0.24926 0.7376 0.06549 0.0
C3886 C 0.25456 0.74107 0.05536 0.0
C3887 C 0.25139 0.73606 0.04509 0.0
C3888 C 0.26356 0.74976 0.05538 0.0
C3889 C 0.25266 0.74235 0.07683 0.0
C3890 C 0.26121 0.76081 0.05895 0.0
C3891 C 0.26992 0.76871 0.05999 0.0
C3892 C 0.28113 0.7657 0.05742 0.0
C3893 C 0.28337 0.75477 0.05333 0.0
C3894 C 0.27464 0.74686 0.05231 0.0
H3895 H 0.2497 0.73695 0.08392 0.0
H3896 H 0.26199 0.74324 0.07743 0.0
H3897 H 0.24886 0.75086 0.07788 0.0
H3898 H 0.25267 0.76325 0.06117 0.0
H3899 H 0.26791 0.7771 0.06307 0.0
H3900 H 0.68588 0.22549 0.05055 0.0
H3901 H 0.70075 0.23969 0.04836 0.0
H3902 H 0.72469 0.2172 0.06414 0.0
H3903 H 0.70992 0.2029 0.06626 0.0
H3904 H 0.71249 0.24935 0.06628 0.0
H3905 H 0.74207 0.22852 0.03645 0.0
H3906 H 0.72766 0.22385 0.03834 0.0
H3907 H 0.73833 0.22002 0.04844 0.0
C3908 C 0.69435 0.2235 0.05341 0.0
C3909 C 0.69672 0.21308 0.0586 0.0
C3910 C 0.70283 0.23162 0.05215 0.0
C3911 C 0.71384 0.22945 0.05597 0.0
C3912 C 0.7163 0.21896 0.06092 0.0
H3913 H 0.7742 0.26878 0.06723 0.0
H3914 H 0.75997 0.25392 0.06511 0.0
C3915 C 0.70783 0.21083 0.06219 0.0
C3916 C 0.72249 0.23849 0.05565 0.0
H3917 H 0.74886 0.245 0.04586 0.0
C3918 C 0.72039 0.24846 0.06172 0.0
C3919 C 0.73282 0.23725 0.04976 0.0
C3920 C 0.73535 0.22688 0.04279 0.0
C3921 C 0.72846 0.25713 0.0623 0.0
C3922 C 0.73881 0.25587 0.05645 0.0
C3923 C 0.74089 0.24594 0.05031 0.0
C3924 C 0.74769 0.26468 0.0569 0.0
C3925 C 0.72597 0.26739 0.06945 0.0
C3926 C 0.74559 0.27558 0.05272 0.0
C3927 C 0.75367 0.2841 0.05396 0.0
C3928 C 0.76403 0.28185 0.05934 0.0
C3929 C 0.76628 0.2708 0.0631 0.0
C3930 C 0.75818 0.26229 0.06188 0.0
H3931 H 0.71893 0.26584 0.07548 0.0
H3932 H 0.73356 0.27001 0.07431 0.0
H3933 H 0.72348 0.27451 0.06389 0.0
H3934 H 0.73762 0.27753 0.04866 0.0
H3935 H 0.75172 0.2925 0.05088 0.0
H3936 H 0.56651 0.7677 0.70163 0.0
H3937 H 0.56451 0.75225 0.7152 0.0
H3938 H 0.54969 0.77525 0.73928 0.0
H3939 H 0.55152 0.79073 0.72572 0.0
H3940 H 0.57485 0.75177 0.73614 0.0
H3941 H 0.52832 0.74814 0.74075 0.0
H3942 H 0.53488 0.75552 0.72912 0.0
H3943 H 0.53362 0.76223 0.74269 0.0
C3944 C 0.56267 0.76944 0.70975 0.0
C3945 C 0.5592 0.78044 0.71262 0.0
C3946 C 0.56153 0.76061 0.71749 0.0
C3947 C 0.55684 0.76258 0.7282 0.0
C3948 C 0.55312 0.77349 0.73098 0.0
H3949 H 0.55303 0.72595 0.7911 0.0
H3950 H 0.55133 0.73957 0.77562 0.0
C3951 C 0.55424 0.78234 0.72325 0.0
C3952 C 0.55674 0.75346 0.73676 0.0
H3953 H 0.53954 0.73846 0.75444 0.0
C3954 C 0.56712 0.74877 0.74006 0.0
C3955 C 0.54664 0.74963 0.7419 0.0
C3956 C 0.53522 0.75406 0.73838 0.0
C3957 C 0.56773 0.74054 0.74855 0.0
C3958 C 0.55765 0.73676 0.75375 0.0
C3959 C 0.54725 0.74138 0.75041 0.0
C3960 C 0.55784 0.72821 0.76286 0.0
C3961 C 0.57919 0.73619 0.75212 0.0
C3962 C 0.56178 0.71723 0.76073 0.0
C3963 C 0.56279 0.70945 0.76954 0.0
C3964 C 0.55982 0.7125 0.78064 0.0
C3965 C 0.55544 0.72336 0.78266 0.0
C3966 C 0.55444 0.73114 0.77383 0.0
H3967 H 0.58614 0.74178 0.74917 0.0
H3968 H 0.57971 0.73544 0.76146 0.0
H3969 H 0.58055 0.72768 0.74844 0.0
H3970 H 0.56426 0.71475 0.75228 0.0
H3971 H 0.56612 0.70112 0.7677 0.0
H3972 H 0.18665 0.55025 0.72558 0.0
H3973 H 0.20162 0.54815 0.73969 0.0
H3974 H 0.22491 0.56563 0.71779 0.0
H3975 H 0.21003 0.56767 0.70356 0.0
H3976 H 0.23415 0.54616 0.72882 0.0
H3977 H 0.21253 0.57531 0.75866 0.0
H3978 H 0.20411 0.56363 0.75384 0.0
H3979 H 0.20861 0.57424 0.74396 0.0
C3980 C 0.19498 0.55357 0.72372 0.0
C3981 C 0.19713 0.55923 0.7135 0.0
C3982 C 0.2035 0.55239 0.73181 0.0
C3983 C 0.21429 0.5569 0.72985 0.0
C3984 C 0.21661 0.56214 0.71948 0.0
H3985 H 0.27576 0.56688 0.76797 0.0
H3986 H 0.26156 0.56456 0.75315 0.0
C3987 C 0.20809 0.56331 0.71137 0.0
C3988 C 0.22304 0.55657 0.73878 0.0
H3989 H 0.22916 0.56646 0.76516 0.0
C3990 C 0.23308 0.55058 0.73678 0.0
C3991 C 0.2216 0.56237 0.74913 0.0
C3992 C 0.21118 0.56934 0.75154 0.0
C3993 C 0.2417 0.55014 0.74494 0.0
C3994 C 0.24028 0.556 0.75526 0.0
C3995 C 0.2302 0.56192 0.75727 0.0
C3996 C 0.24925 0.55648 0.76398 0.0
C3997 C 0.25218 0.54329 0.7425 0.0
C3998 C 0.247 0.55279 0.77502 0.0
C3999 C 0.25506 0.55419 0.78354 0.0
C4000 C 0.26549 0.55936 0.78118 0.0
C4001 C 0.26782 0.56282 0.77006 0.0
C4002 C 0.25974 0.56143 0.76155 0.0
H4003 H 0.25062 0.53683 0.73585 0.0
H4004 H 0.25895 0.549 0.73943 0.0
H4005 H 0.25527 0.53897 0.75023 0.0
H4006 H 0.23892 0.549 0.77708 0.0
H4007 H 0.25301 0.55143 0.79202 0.0
H4008 H 0.4118 0.21053 0.70079 0.0
H4009 H 0.41357 0.22614 0.71422 0.0
H4010 H 0.42876 0.20359 0.73849 0.0
H4011 H 0.42715 0.18796 0.72506 0.0
H4012 H 0.40316 0.22654 0.73512 0.0
H4013 H 0.44958 0.23113 0.73988 0.0
H4014 H 0.44321 0.22356 0.72825 0.0
H4015 H 0.44459 0.21693 0.74184 0.0
C4016 C 0.41568 0.20893 0.70891 0.0
C4017 C 0.4193 0.198 0.71188 0.0
C4018 C 0.41669 0.21785 0.71658 0.0
C4019 C 0.42141 0.21605 0.7273 0.0
C4020 C 0.4253 0.20522 0.73017 0.0
H4021 H 0.42431 0.25209 0.79041 0.0
H4022 H 0.42636 0.23879 0.7747 0.0
C4023 C 0.42431 0.19628 0.72251 0.0
C4024 C 0.4213 0.22521 0.73582 0.0
H4025 H 0.43812 0.24048 0.75363 0.0
C4026 C 0.41081 0.22969 0.73908 0.0
C4027 C 0.4313 0.22924 0.741 0.0
C4028 C 0.44282 0.22505 0.73751 0.0
C4029 C 0.41 0.23786 0.74761 0.0
C4030 C 0.41998 0.2418 0.75289 0.0
C4031 C 0.43049 0.23743 0.74955 0.0
C4032 C 0.41958 0.25021 0.76214 0.0
C4033 C 0.39844 0.24194 0.75117 0.0
C4034 C 0.41536 0.26111 0.7602 0.0
C4035 C 0.41414 0.26871 0.76915 0.0
C4036 C 0.41718 0.26554 0.78019 0.0
C4037 C 0.42183 0.25476 0.78202 0.0
C4038 C 0.42304 0.24716 0.77305 0.0
H4039 H 0.39162 0.23625 0.74811 0.0
H4040 H 0.39786 0.24258 0.76051 0.0
H4041 H 0.39693 0.25047 0.74758 0.0
H4042 H 0.41283 0.26368 0.75179 0.0
H4043 H 0.41061 0.27699 0.76746 0.0
H4044 H 0.70172 0.41159 0.76821 0.0
H4045 H 0.7161 0.41323 0.75343 0.0
H4046 H 0.73921 0.42803 0.77742 0.0
H4047 H 0.72495 0.4263 0.79228 0.0
H4048 H 0.72838 0.43211 0.74497 0.0
H4049 H 0.75636 0.40032 0.76527 0.0
H4050 H 0.74178 0.40221 0.76933 0.0
H4051 H 0.7524 0.41191 0.77423 0.0
C4052 C 0.70983 0.41527 0.77032 0.0
C4053 C 0.71225 0.41871 0.78144 0.0
C4054 C 0.71803 0.41621 0.76187 0.0
C4055 C 0.72876 0.42057 0.76439 0.0
C4056 C 0.73104 0.42444 0.77536 0.0
H4057 H 0.79143 0.42538 0.72668 0.0
H4058 H 0.7763 0.42754 0.74061 0.0
C4059 C 0.72287 0.42349 0.78383 0.0
C4060 C 0.7377 0.4207 0.75565 0.0
H4061 H 0.7636 0.40972 0.74923 0.0
C4062 C 0.73609 0.42722 0.74588 0.0
C4063 C 0.74771 0.41427 0.75686 0.0
C4064 C 0.74967 0.40669 0.76693 0.0
C4065 C 0.74433 0.42761 0.73734 0.0
C4066 C 0.75433 0.42119 0.73857 0.0
C4067 C 0.75594 0.41469 0.74835 0.0
C4068 C 0.7632 0.42084 0.72974 0.0
C4069 C 0.74234 0.43503 0.72717 0.0
C4070 C 0.76082 0.41642 0.71901 0.0
C4071 C 0.76944 0.41518 0.71103 0.0
C4072 C 0.78061 0.41827 0.71369 0.0
C4073 C 0.78291 0.42292 0.72437 0.0
C4074 C 0.77429 0.42415 0.73234 0.0
H4075 H 0.73583 0.44159 0.72887 0.0
H4076 H 0.75027 0.43926 0.72449 0.0
H4077 H 0.73931 0.42973 0.72004 0.0
H4078 H 0.75236 0.4136 0.71691 0.0
H4079 H 0.7674 0.41153 0.70288 0.0
H4080 H 0.56684 0.2104 0.27626 0.0
H4081 H 0.56448 0.22586 0.26275 0.0
H4082 H 0.54992 0.20268 0.23868 0.0
H4083 H 0.55212 0.18719 0.25218 0.0
H4084 H 0.57466 0.2265 0.24162 0.0
H4085 H 0.52802 0.22947 0.23762 0.0
H4086 H 0.53484 0.22223 0.24919 0.0
H4087 H 0.53353 0.21547 0.23565 0.0
C4088 C 0.56298 0.20862 0.26816 0.0
C4089 C 0.55968 0.19757 0.26527 0.0
C4090 C 0.56164 0.21746 0.26045 0.0
C4091 C 0.55691 0.21544 0.24977 0.0
C4092 C 0.55338 0.20447 0.24696 0.0
H4093 H 0.55174 0.25234 0.18709 0.0
H4094 H 0.55028 0.23865 0.20254 0.0
C4095 C 0.55471 0.19561 0.25466 0.0
C4096 C 0.55656 0.22458 0.24124 0.0
H4097 H 0.53892 0.23942 0.22388 0.0
C4098 C 0.56684 0.22941 0.23782 0.0
C4099 C 0.54635 0.22829 0.23626 0.0
C4100 C 0.53504 0.22368 0.23992 0.0
C4101 C 0.56721 0.23768 0.22935 0.0
C4102 C 0.55701 0.24135 0.22431 0.0
C4103 C 0.54671 0.23658 0.22778 0.0
C4104 C 0.55695 0.24997 0.21525 0.0
C4105 C 0.57857 0.24217 0.22562 0.0
C4106 C 0.56088 0.26095 0.21738 0.0
C4107 C 0.56176 0.26877 0.20859 0.0
C4108 C 0.55866 0.26575 0.19752 0.0
C4109 C 0.55425 0.2549 0.19552 0.0
C4110 C 0.55339 0.24708 0.20432 0.0
H4111 H 0.58562 0.23662 0.2284 0.0
H4112 H 0.57892 0.24302 0.21629 0.0
H4113 H 0.57992 0.25066 0.22937 0.0
H4114 H 0.56347 0.2634 0.22581 0.0
H4115 H 0.5651 0.27709 0.21043 0.0
H4116 H 0.77021 0.55244 0.27704 0.0
H4117 H 0.7547 0.5488 0.26379 0.0
H4118 H 0.77475 0.56279 0.23671 0.0
H4119 H 0.79048 0.56556 0.24973 0.0
H4120 H 0.74218 0.56167 0.25291 0.0
H4121 H 0.76378 0.53619 0.22063 0.0
H4122 H 0.77037 0.53943 0.23396 0.0
H4123 H 0.77132 0.54919 0.22226 0.0
C4124 C 0.77133 0.55451 0.2682 0.0
C4125 C 0.78154 0.55914 0.26435 0.0
C4126 C 0.76247 0.55246 0.26063 0.0
C4127 C 0.76359 0.55526 0.24914 0.0
C4128 C 0.77378 0.56008 0.24538 0.0
H4129 H 0.70953 0.57586 0.20568 0.0
H4130 H 0.72349 0.57339 0.22063 0.0
C4131 C 0.78275 0.56177 0.25286 0.0
C4132 C 0.75388 0.55395 0.24124 0.0
H4133 H 0.74723 0.54652 0.2142 0.0
C4134 C 0.74326 0.55814 0.24452 0.0
C4135 C 0.75507 0.54906 0.23038 0.0
C4136 C 0.76573 0.54309 0.22669 0.0
C4137 C 0.73401 0.55811 0.23709 0.0
C4138 C 0.73557 0.55437 0.22582 0.0
C4139 C 0.74602 0.54964 0.22273 0.0
C4140 C 0.72672 0.55572 0.21697 0.0
C4141 C 0.72269 0.56197 0.24151 0.0
C4142 C 0.72419 0.54679 0.20952 0.0
C4143 C 0.71657 0.54838 0.20063 0.0
C4144 C 0.71113 0.55882 0.1992 0.0
C4145 C 0.71347 0.56767 0.20674 0.0
C4146 C 0.72137 0.56621 0.21538 0.0
H4147 H 0.72183 0.56003 0.25066 0.0
H4148 H 0.72201 0.57128 0.24058 0.0
H4149 H 0.71558 0.55791 0.23693 0.0
H4150 H 0.72822 0.53863 0.2105 0.0
H4151 H 0.71489 0.54144 0.19489 0.0
H4152 H 0.41326 0.70341 0.20963 0.0
H4153 H 0.41545 0.71764 0.22449 0.0
H4154 H 0.43256 0.73964 0.20104 0.0
H4155 H 0.43029 0.72554 0.18608 0.0
H4156 H 0.43475 0.72892 0.23366 0.0
H4157 H 0.40527 0.75835 0.21193 0.0
H4158 H 0.40652 0.74366 0.20805 0.0
H4159 H 0.41702 0.75366 0.20355 0.0
C4160 C 0.41758 0.71124 0.20766 0.0
C4161 C 0.42148 0.71342 0.19665 0.0
C4162 C 0.41884 0.71934 0.21616 0.0
C4163 C 0.42399 0.72975 0.2138 0.0
C4164 C 0.42837 0.73173 0.20297 0.0
H4165 H 0.42818 0.79209 0.25249 0.0
H4166 H 0.43112 0.77717 0.23848 0.0
C4167 C 0.4271 0.72365 0.19445 0.0
C4168 C 0.42425 0.73873 0.22251 0.0
H4169 H 0.41394 0.76497 0.22859 0.0
C4170 C 0.43023 0.73682 0.23257 0.0
C4171 C 0.41831 0.749 0.22104 0.0
C4172 C 0.41133 0.7513 0.21061 0.0
C4173 C 0.43051 0.74498 0.24119 0.0
C4174 C 0.42449 0.75521 0.23975 0.0
C4175 C 0.4186 0.75714 0.22964 0.0
C4176 C 0.4238 0.76392 0.24872 0.0
C4177 C 0.43733 0.74264 0.2517 0.0
C4178 C 0.41877 0.76139 0.25916 0.0
C4179 C 0.41709 0.76989 0.26719 0.0
C4180 C 0.42032 0.7811 0.26487 0.0
C4181 C 0.42559 0.78355 0.25452 0.0
C4182 C 0.42728 0.77504 0.24651 0.0
H4183 H 0.4439 0.7361 0.25017 0.0
H4184 H 0.44151 0.75044 0.25483 0.0
H4185 H 0.43162 0.73947 0.25842 0.0
H4186 H 0.4158 0.75293 0.26095 0.0
H4187 H 0.41297 0.76774 0.27507 0.0
H4188 H 0.27488 0.41224 0.21007 0.0
H4189 H 0.26042 0.4144 0.2247 0.0
H4190 H 0.23799 0.42971 0.20041 0.0
H4191 H 0.25233 0.42745 0.18569 0.0
H4192 H 0.24869 0.43364 0.23296 0.0
H4193 H 0.21987 0.40264 0.21254 0.0
H4194 H 0.23453 0.40408 0.20855 0.0
H4195 H 0.22425 0.41412 0.20364 0.0
C4196 C 0.2669 0.41614 0.20786 0.0
C4197 C 0.26469 0.41956 0.1967 0.0
C4198 C 0.25866 0.41738 0.21623 0.0
C4199 C 0.24809 0.42204 0.21358 0.0
C4200 C 0.24603 0.4259 0.20257 0.0
H4201 H 0.18568 0.42742 0.25199 0.0
H4202 H 0.20058 0.4297 0.23785 0.0
C4203 C 0.25425 0.42464 0.19418 0.0
C4204 C 0.23909 0.42247 0.22226 0.0
H4205 H 0.21301 0.41199 0.22875 0.0
C4206 C 0.24087 0.42893 0.23205 0.0
C4207 C 0.22893 0.41628 0.22104 0.0
C4208 C 0.22677 0.4088 0.21094 0.0
C4209 C 0.23269 0.42944 0.24064 0.0
C4210 C 0.22256 0.4232 0.23944 0.0
C4211 C 0.22076 0.41682 0.22961 0.0
C4212 C 0.21383 0.42281 0.2484 0.0
C4213 C 0.23489 0.43676 0.25084 0.0
C4214 C 0.21637 0.41824 0.25904 0.0
C4215 C 0.20787 0.41693 0.26714 0.0
C4216 C 0.19667 0.42009 0.2647 0.0
C4217 C 0.19422 0.42489 0.25412 0.0
C4218 C 0.20272 0.4262 0.24603 0.0
H4219 H 0.2414 0.44329 0.24909 0.0
H4220 H 0.22702 0.44101 0.2537 0.0
H4221 H 0.23801 0.43138 0.25786 0.0
H4222 H 0.22484 0.41535 0.26096 0.0
H4223 H 0.21002 0.41316 0.2752 0.0
H4224 H 0.72722 0.55385 0.79183 0.0
H4225 H 0.74115 0.55221 0.77662 0.0
H4226 H 0.71628 0.56364 0.75256 0.0
H4227 H 0.70234 0.56544 0.76771 0.0
H4228 H 0.74087 0.53979 0.75598 0.0
H4229 H 0.74253 0.5862 0.7489 0.0
H4230 H 0.73617 0.58003 0.7613 0.0
H4231 H 0.72864 0.58012 0.74812 0.0
C4232 C 0.72469 0.55596 0.78329 0.0
C4233 C 0.71371 0.55989 0.78098 0.0
C4234 C 0.73265 0.555 0.77462 0.0
C4235 C 0.72978 0.55799 0.76352 0.0
C4236 C 0.71871 0.56149 0.76111 0.0
H4237 H 0.76898 0.56517 0.70197 0.0
H4238 H 0.75371 0.56334 0.71577 0.0
C4239 C 0.71075 0.56247 0.76977 0.0
C4240 C 0.73847 0.55777 0.75452 0.0
H4241 H 0.75295 0.57477 0.73628 0.0
C4242 C 0.74353 0.54743 0.75166 0.0
C4243 C 0.74192 0.56776 0.74894 0.0
C4244 C 0.73712 0.57918 0.75201 0.0
C4245 C 0.75187 0.54679 0.74324 0.0
C4246 C 0.75533 0.55679 0.73769 0.0
C4247 C 0.75023 0.56711 0.74052 0.0
C4248 C 0.76442 0.55686 0.72909 0.0
C4249 C 0.75677 0.53541 0.74023 0.0
C4250 C 0.77549 0.55375 0.732 0.0
C4251 C 0.78425 0.55478 0.72413 0.0
C4252 C 0.78208 0.55901 0.71324 0.0
C4253 C 0.77093 0.56188 0.71029 0.0
C4254 C 0.76219 0.56085 0.71815 0.0
H4255 H 0.75119 0.52839 0.74299 0.0
H4256 H 0.75818 0.53469 0.73098 0.0
H4257 H 0.76505 0.5344 0.74452 0.0
H4258 H 0.77743 0.55086 0.74046 0.0
H4259 H 0.79275 0.55253 0.72667 0.0
H4260 H 0.42803 0.79405 0.72534 0.0
H4261 H 0.43036 0.77931 0.73965 0.0
H4262 H 0.41629 0.75471 0.71673 0.0
H4263 H 0.41404 0.76935 0.70233 0.0
H4264 H 0.41261 0.76689 0.74874 0.0
H4265 H 0.44424 0.73845 0.72903 0.0
H4266 H 0.44195 0.75277 0.72426 0.0
H4267 H 0.43243 0.74169 0.72007 0.0
C4268 C 0.42559 0.78547 0.72328 0.0
C4269 C 0.42083 0.78286 0.71271 0.0
C4270 C 0.42693 0.77706 0.73147 0.0
C4271 C 0.42362 0.7659 0.72921 0.0
C4272 C 0.41911 0.76322 0.71857 0.0
H4273 H 0.41265 0.705 0.76742 0.0
H4274 H 0.41503 0.71949 0.75287 0.0
C4275 C 0.41777 0.77162 0.71038 0.0
C4276 C 0.42396 0.75728 0.73827 0.0
H4277 H 0.43432 0.73121 0.74503 0.0
C4278 C 0.41746 0.75915 0.748 0.0
C4279 C 0.43024 0.74716 0.73722 0.0
C4280 C 0.4377 0.74491 0.72713 0.0
C4281 C 0.41679 0.75102 0.75659 0.0
C4282 C 0.42298 0.74084 0.7555 0.0
C4283 C 0.4296 0.73903 0.74583 0.0
C4284 C 0.42236 0.73185 0.76418 0.0
C4285 C 0.40914 0.75322 0.76656 0.0
C4286 C 0.42596 0.73392 0.77529 0.0
C4287 C 0.42456 0.72568 0.78363 0.0
C4288 C 0.41962 0.71521 0.78098 0.0
C4289 C 0.41644 0.713 0.76974 0.0
C4290 C 0.41781 0.72126 0.76142 0.0
H4291 H 0.403 0.76011 0.76482 0.0
H4292 H 0.40437 0.74548 0.7689 0.0
H4293 H 0.41434 0.75578 0.77393 0.0
H4294 H 0.42969 0.74197 0.77754 0.0
H4295 H 0.42719 0.7276 0.79218 0.0
H4296 H 0.25173 0.42708 0.79207 0.0
H4297 H 0.2376 0.42915 0.77712 0.0
H4298 H 0.26072 0.41439 0.75313 0.0
H4299 H 0.27497 0.41243 0.76799 0.0
H4300 H 0.24891 0.43342 0.74477 0.0
H4301 H 0.22004 0.40203 0.76444 0.0
H4302 H 0.22407 0.4135 0.77354 0.0
H4303 H 0.23459 0.40364 0.76875 0.0
C4304 C 0.25384 0.42434 0.7836 0.0
C4305 C 0.26442 0.41949 0.78123 0.0
C4306 C 0.24574 0.42549 0.77508 0.0
C4307 C 0.24806 0.42174 0.76408 0.0
C4308 C 0.25876 0.41728 0.76159 0.0
H4309 H 0.21042 0.41329 0.70201 0.0
H4310 H 0.2252 0.41527 0.71633 0.0
C4311 C 0.26688 0.41615 0.7701 0.0
C4312 C 0.23921 0.42213 0.75524 0.0
H4313 H 0.21323 0.41166 0.74834 0.0
C4314 C 0.2411 0.42867 0.74553 0.0
C4315 C 0.22907 0.41588 0.75626 0.0
C4316 C 0.22682 0.40828 0.76625 0.0
C4317 C 0.23301 0.42925 0.73686 0.0
C4318 C 0.22288 0.423 0.73789 0.0
C4319 C 0.22099 0.4165 0.74762 0.0
C4320 C 0.2142 0.42277 0.72888 0.0
C4321 C 0.2353 0.43666 0.72675 0.0
C4322 C 0.20312 0.42628 0.73121 0.0
C4323 C 0.19464 0.4251 0.72307 0.0
C4324 C 0.19709 0.42031 0.71248 0.0
C4325 C 0.20827 0.41705 0.71008 0.0
C4326 C 0.21674 0.41823 0.71822 0.0
H4327 H 0.24189 0.4431 0.72858 0.0
H4328 H 0.23837 0.43133 0.71967 0.0
H4329 H 0.22749 0.44103 0.72394 0.0
H4330 H 0.20098 0.42974 0.73941 0.0
H4331 H 0.18612 0.42769 0.72518 0.0
H4332 H 0.55235 0.25122 0.79054 0.0
H4333 H 0.55063 0.23768 0.77498 0.0
H4334 H 0.5638 0.26254 0.75183 0.0
H4335 H 0.56568 0.27608 0.76734 0.0
H4336 H 0.53896 0.23881 0.75389 0.0
H4337 H 0.58554 0.23554 0.74852 0.0
H4338 H 0.57913 0.24189 0.76081 0.0
H4339 H 0.57998 0.24964 0.74779 0.0
C4340 C 0.55481 0.25383 0.78212 0.0
C4341 C 0.55927 0.26467 0.78018 0.0
C4342 C 0.55381 0.24609 0.77325 0.0
C4343 C 0.55726 0.24906 0.76232 0.0
C4344 C 0.56128 0.26003 0.76026 0.0
H4345 H 0.5657 0.21003 0.70074 0.0
H4346 H 0.5637 0.22536 0.71446 0.0
C4347 C 0.56231 0.26776 0.76912 0.0
C4348 C 0.55707 0.24055 0.75315 0.0
H4349 H 0.57423 0.22567 0.73539 0.0
C4350 C 0.54666 0.23592 0.74983 0.0
C4351 C 0.56714 0.23681 0.7479 0.0
C4352 C 0.5786 0.24113 0.75148 0.0
C4353 C 0.54604 0.22771 0.74127 0.0
C4354 C 0.55613 0.22394 0.73607 0.0
C4355 C 0.56651 0.22863 0.73936 0.0
C4356 C 0.55621 0.21488 0.72743 0.0
C4357 C 0.53462 0.22326 0.73777 0.0
C4358 C 0.55259 0.20393 0.73016 0.0
C4359 C 0.55371 0.19514 0.72234 0.0
C4360 C 0.55856 0.19715 0.71168 0.0
C4361 C 0.56193 0.2082 0.70888 0.0
C4362 C 0.5608 0.21697 0.7167 0.0
H4363 H 0.52771 0.22911 0.74026 0.0
H4364 H 0.53423 0.2219 0.72849 0.0
H4365 H 0.5331 0.21503 0.74199 0.0
H4366 H 0.54924 0.20209 0.73847 0.0
H4367 H 0.55107 0.18672 0.72476 0.0
H4368 H 0.76924 0.4113 0.27458 0.0
H4369 H 0.75411 0.41362 0.26067 0.0
H4370 H 0.77733 0.43035 0.23812 0.0
H4371 H 0.79256 0.42793 0.2519 0.0
H4372 H 0.74496 0.43296 0.2499 0.0
H4373 H 0.76539 0.40368 0.21939 0.0
H4374 H 0.76979 0.40472 0.23395 0.0
H4375 H 0.77414 0.41523 0.22389 0.0
C4376 C 0.77111 0.41555 0.26669 0.0
C4377 C 0.78213 0.41932 0.26427 0.0
C4378 C 0.76245 0.41688 0.25877 0.0
C4379 C 0.76466 0.42198 0.24831 0.0
C4380 C 0.77552 0.42619 0.24607 0.0
H4381 H 0.72496 0.42922 0.18707 0.0
H4382 H 0.7392 0.43125 0.20191 0.0
C4383 C 0.78419 0.42484 0.25396 0.0
C4384 C 0.75571 0.42251 0.23958 0.0
H4385 H 0.74887 0.41303 0.21322 0.0
C4386 C 0.74579 0.42862 0.24187 0.0
C4387 C 0.75683 0.41678 0.22915 0.0
C4388 C 0.76705 0.40964 0.22645 0.0
C4389 C 0.73701 0.42927 0.23391 0.0
C4390 C 0.73814 0.42354 0.22349 0.0
C4391 C 0.74807 0.41748 0.2212 0.0
C4392 C 0.72904 0.42339 0.2149 0.0
C4393 C 0.72666 0.43621 0.23665 0.0
C4394 C 0.71856 0.41837 0.21733 0.0
C4395 C 0.7104 0.41719 0.20886 0.0
C4396 C 0.71262 0.42094 0.19781 0.0
C4397 C 0.723 0.42624 0.19549 0.0
C4398 C 0.73115 0.42741 0.20396 0.0
H4399 H 0.72836 0.44241 0.24349 0.0
H4400 H 0.7236 0.44082 0.22907 0.0
H4401 H 0.71981 0.4305 0.23955 0.0
H4402 H 0.71685 0.41501 0.22566 0.0
H4403 H 0.7025 0.41304 0.21091 0.0
H4404 H 0.56248 0.76784 0.27646 0.0
H4405 H 0.56064 0.75281 0.26238 0.0
H4406 H 0.55025 0.77728 0.23748 0.0
H4407 H 0.55195 0.79238 0.25153 0.0
H4408 H 0.53746 0.75649 0.23747 0.0
H4409 H 0.58392 0.74946 0.2365 0.0
H4410 H 0.57758 0.74873 0.25027 0.0
H4411 H 0.57763 0.76189 0.24271 0.0
C4412 C 0.55971 0.77003 0.26801 0.0
C4413 C 0.55747 0.78132 0.26507 0.0
C4414 C 0.55871 0.76143 0.25998 0.0
C4415 C 0.55549 0.76398 0.24887 0.0
C4416 C 0.55279 0.77517 0.24601 0.0
H4417 H 0.55098 0.72723 0.18572 0.0
H4418 H 0.54883 0.74094 0.20105 0.0
C4419 C 0.5538 0.78378 0.25404 0.0
C4420 C 0.55541 0.75506 0.2401 0.0
H4421 H 0.57268 0.73694 0.22579 0.0
C4422 C 0.54514 0.7522 0.23489 0.0
C4423 C 0.56546 0.74952 0.23677 0.0
C4424 C 0.5768 0.75259 0.24176 0.0
C4425 C 0.54464 0.74379 0.22652 0.0
C4426 C 0.55471 0.73827 0.22318 0.0
C4427 C 0.56496 0.74114 0.22842 0.0
C4428 C 0.55495 0.72967 0.21409 0.0
C4429 C 0.53333 0.74075 0.22147 0.0
C4430 C 0.55917 0.71881 0.21631 0.0
C4431 C 0.5605 0.711 0.20757 0.0
C4432 C 0.55769 0.71393 0.1964 0.0
C4433 C 0.55318 0.72471 0.19423 0.0
C4434 C 0.55188 0.73253 0.203 0.0
H4435 H 0.52623 0.7434 0.22701 0.0
H4436 H 0.53236 0.74514 0.21325 0.0
H4437 H 0.53269 0.73151 0.21995 0.0
H4438 H 0.56164 0.71646 0.22481 0.0
H4439 H 0.56398 0.70277 0.20952 0.0
H4440 H 0.25224 0.55259 0.18698 0.0
H4441 H 0.23836 0.55095 0.20225 0.0
H4442 H 0.26318 0.5628 0.22616 0.0
H4443 H 0.27707 0.5646 0.21096 0.0
H4444 H 0.23873 0.53886 0.22324 0.0
H4445 H 0.23683 0.58542 0.22922 0.0
H4446 H 0.24318 0.57899 0.21694 0.0
H4447 H 0.25075 0.57941 0.2301 0.0
C4448 C 0.25477 0.55476 0.1955 0.0
C4449 C 0.26571 0.55885 0.19775 0.0
C4450 C 0.24684 0.5538 0.20421 0.0
C4451 C 0.24971 0.55694 0.21527 0.0
C4452 C 0.26076 0.56054 0.21762 0.0
H4453 H 0.20999 0.56583 0.27631 0.0
H4454 H 0.22547 0.56354 0.2628 0.0
C4455 C 0.26868 0.56152 0.20894 0.0
C4456 C 0.24102 0.55688 0.22426 0.0
H4457 H 0.22641 0.57426 0.24204 0.0
C4458 C 0.23602 0.54658 0.22737 0.0
C4459 C 0.23751 0.56699 0.22959 0.0
C4460 C 0.24225 0.57835 0.22626 0.0
C4461 C 0.22767 0.54611 0.23579 0.0
C4462 C 0.22413 0.55624 0.24108 0.0
C4463 C 0.22919 0.56651 0.23801 0.0
C4464 C 0.21496 0.5565 0.24959 0.0
C4465 C 0.22282 0.53479 0.23907 0.0
C4466 C 0.20394 0.55323 0.24666 0.0
C4467 C 0.19508 0.55452 0.25436 0.0
C4468 C 0.19708 0.55919 0.2651 0.0
C4469 C 0.20818 0.56221 0.2681 0.0
C4470 C 0.21703 0.56091 0.2604 0.0
H4471 H 0.2285 0.52774 0.23658 0.0
H4472 H 0.22129 0.53433 0.24831 0.0
H4473 H 0.21461 0.53357 0.23469 0.0
H4474 H 0.20212 0.55002 0.23828 0.0
H4475 H 0.18662 0.55214 0.25179 0.0
H4476 H 0.42734 0.185 0.25189 0.0
H4477 H 0.4293 0.20011 0.23791 0.0
H4478 H 0.41621 0.22417 0.26196 0.0
H4479 H 0.41407 0.20911 0.27592 0.0
H4480 H 0.40516 0.22455 0.24137 0.0
H4481 H 0.45164 0.22638 0.23517 0.0
H4482 H 0.44566 0.21251 0.23371 0.0
H4483 H 0.44521 0.2195 0.24718 0.0
C4484 C 0.42503 0.19353 0.25425 0.0
C4485 C 0.42051 0.19585 0.26499 0.0
C4486 C 0.42622 0.20217 0.24628 0.0
C4487 C 0.42302 0.21328 0.24895 0.0
C4488 C 0.41878 0.21566 0.25976 0.0
H4489 H 0.41472 0.27533 0.21073 0.0
H4490 H 0.41673 0.26121 0.22567 0.0
C4491 C 0.41756 0.20704 0.26772 0.0
C4492 C 0.42317 0.22223 0.24021 0.0
H4493 H 0.44036 0.23668 0.22207 0.0
C4494 C 0.41286 0.22727 0.23721 0.0
C4495 C 0.43323 0.22568 0.23475 0.0
C4496 C 0.44459 0.22082 0.23791 0.0
C4497 C 0.4123 0.23556 0.22878 0.0
C4498 C 0.42236 0.23904 0.22333 0.0
C4499 C 0.43268 0.234 0.22629 0.0
C4500 C 0.42222 0.24785 0.21446 0.0
C4501 C 0.40091 0.24034 0.22558 0.0
C4502 C 0.42508 0.24511 0.20329 0.0
C4503 C 0.42399 0.25318 0.19472 0.0
C4504 C 0.42005 0.26412 0.19722 0.0
C4505 C 0.41768 0.26695 0.20851 0.0
C4506 C 0.41878 0.25889 0.21706 0.0
H4507 H 0.39386 0.23492 0.2286 0.0
H4508 H 0.39992 0.24882 0.22948 0.0
H4509 H 0.40018 0.24132 0.21628 0.0
H4510 H 0.4278 0.23664 0.20114 0.0
H4511 H 0.42594 0.25076 0.18612 0.0
H4512 H 0.7681 0.70203 0.56587 0.0
H4513 H 0.75316 0.71616 0.56376 0.0
H4514 H 0.77693 0.73909 0.54835 0.0
H4515 H 0.79196 0.72506 0.55055 0.0
H4516 H 0.76495 0.74843 0.56629 0.0
H4517 H 0.73585 0.72752 0.536 0.0
H4518 H 0.7396 0.71898 0.54797 0.0
H4519 H 0.7503 0.72301 0.53797 0.0
C4520 C 0.77011 0.71002 0.56188 0.0
C4521 C 0.78122 0.71245 0.55841 0.0
C4522 C 0.76155 0.71805 0.56062 0.0
C4523 C 0.76391 0.72862 0.55578 0.0
C4524 C 0.77493 0.73096 0.55206 0.0
H4525 H 0.72581 0.79142 0.55039 0.0
H4526 H 0.73997 0.77648 0.54838 0.0
C4527 C 0.7835 0.72294 0.55332 0.0
C4528 C 0.75516 0.73756 0.55546 0.0
H4529 H 0.72887 0.74393 0.54537 0.0
C4530 C 0.7571 0.7475 0.56163 0.0
C4531 C 0.74491 0.73626 0.54945 0.0
C4532 C 0.74254 0.72591 0.54239 0.0
C4533 C 0.74897 0.75611 0.56214 0.0
C4534 C 0.73871 0.75482 0.55614 0.0
C4535 C 0.73677 0.7449 0.54993 0.0
C4536 C 0.7298 0.76361 0.55646 0.0
C4537 C 0.7513 0.76636 0.56938 0.0
C4538 C 0.71924 0.76119 0.56127 0.0
C4539 C 0.71111 0.76969 0.56238 0.0
C4540 C 0.7134 0.78074 0.55865 0.0
C4541 C 0.72383 0.78301 0.55344 0.0
C4542 C 0.73194 0.77451 0.55232 0.0
H4543 H 0.75824 0.76481 0.57551 0.0
H4544 H 0.75385 0.77351 0.56388 0.0
H4545 H 0.74362 0.76892 0.57412 0.0
H4546 H 0.71742 0.75281 0.56447 0.0
H4547 H 0.70313 0.76765 0.56639 0.0
H4548 H 0.76763 0.27627 0.4125 0.0
H4549 H 0.75277 0.26206 0.41462 0.0
H4550 H 0.77696 0.23876 0.42876 0.0
H4551 H 0.79192 0.25286 0.42655 0.0
H4552 H 0.76444 0.22981 0.41105 0.0
H4553 H 0.73627 0.25013 0.44257 0.0
H4554 H 0.73964 0.2589 0.43065 0.0
H4555 H 0.75065 0.2547 0.44025 0.0
C4556 C 0.76976 0.26817 0.41621 0.0
C4557 C 0.78096 0.26567 0.41934 0.0
C4558 C 0.76124 0.26009 0.41748 0.0
C4559 C 0.76374 0.24941 0.42198 0.0
C4560 C 0.77486 0.24698 0.42533 0.0
H4561 H 0.72603 0.1865 0.42767 0.0
H4562 H 0.74012 0.20153 0.42949 0.0
C4563 C 0.78338 0.25505 0.42406 0.0
C4564 C 0.75498 0.24047 0.42236 0.0
H4565 H 0.72902 0.23388 0.43313 0.0
C4566 C 0.75674 0.23065 0.41596 0.0
C4567 C 0.74492 0.24165 0.4287 0.0
C4568 C 0.74276 0.25187 0.43602 0.0
C4569 C 0.74861 0.22204 0.41555 0.0
C4570 C 0.73854 0.2232 0.42189 0.0
C4571 C 0.73677 0.23302 0.42831 0.0
C4572 C 0.72968 0.21438 0.42173 0.0
C4573 C 0.75073 0.2119 0.40809 0.0
C4574 C 0.71899 0.21675 0.41718 0.0
C4575 C 0.7109 0.2082 0.41618 0.0
C4576 C 0.71336 0.19714 0.41976 0.0
C4577 C 0.72391 0.19491 0.42475 0.0
C4578 C 0.73199 0.20347 0.42575 0.0
H4579 H 0.7575 0.21355 0.40179 0.0
H4580 H 0.75342 0.20466 0.4134 0.0
H4581 H 0.74291 0.20942 0.40352 0.0
H4582 H 0.71704 0.22514 0.41408 0.0
H4583 H 0.70283 0.2102 0.41234 0.0
H4584 H 0.76898 0.70329 0.41172 0.0
H4585 H 0.75411 0.71751 0.414 0.0
H4586 H 0.77739 0.73907 0.43194 0.0
H4587 H 0.79235 0.72499 0.42957 0.0
H4588 H 0.74465 0.7282 0.4333 0.0
H4589 H 0.76687 0.75861 0.40523 0.0
H4590 H 0.77081 0.7439 0.40613 0.0
H4591 H 0.77509 0.75363 0.41698 0.0
C4592 C 0.77091 0.71102 0.41623 0.0
C4593 C 0.78187 0.71309 0.42035 0.0
C4594 C 0.7624 0.71912 0.41754 0.0
C4595 C 0.76472 0.72941 0.42296 0.0
C4596 C 0.7755 0.73127 0.42753 0.0
H4597 H 0.72591 0.79154 0.42889 0.0
H4598 H 0.73984 0.7765 0.43164 0.0
C4599 C 0.78402 0.7232 0.42621 0.0
C4600 C 0.756 0.73837 0.42337 0.0
H4601 H 0.75014 0.765 0.41397 0.0
C4602 C 0.74584 0.73626 0.4291 0.0
C4603 C 0.75759 0.74885 0.41784 0.0
C4604 C 0.76813 0.75139 0.41111 0.0
C4605 C 0.73722 0.74443 0.42954 0.0
C4606 C 0.73879 0.75487 0.42395 0.0
C4607 C 0.749 0.757 0.41831 0.0
C4608 C 0.72983 0.76359 0.42341 0.0
C4609 C 0.72657 0.74185 0.43605 0.0
C4610 C 0.71956 0.76129 0.41794 0.0
C4611 C 0.71159 0.76986 0.41635 0.0
C4612 C 0.7138 0.78091 0.42013 0.0
C4613 C 0.72396 0.78312 0.42587 0.0
C4614 C 0.73193 0.77454 0.42746 0.0
H4615 H 0.72793 0.73501 0.44234 0.0
H4616 H 0.72342 0.74948 0.44051 0.0
H4617 H 0.71992 0.739 0.43009 0.0
H4618 H 0.71787 0.75295 0.41455 0.0
H4619 H 0.70386 0.76789 0.41187 0.0
H4620 H 0.18593 0.72634 0.42555 0.0
H4621 H 0.20123 0.74017 0.42742 0.0
H4622 H 0.22522 0.71529 0.41586 0.0
H4623 H 0.20999 0.70146 0.41383 0.0
H4624 H 0.22207 0.73965 0.43984 0.0
H4625 H 0.22872 0.74174 0.39341 0.0
H4626 H 0.2163 0.73544 0.39963 0.0
H4627 H 0.22942 0.72778 0.39933 0.0
C4628 C 0.19447 0.72379 0.42348 0.0
C4629 C 0.19674 0.71285 0.41942 0.0
C4630 C 0.2032 0.73169 0.42458 0.0
C4631 C 0.2143 0.72879 0.4216 0.0
C4632 C 0.21666 0.71774 0.418 0.0
H4633 H 0.27605 0.7675 0.41389 0.0
H4634 H 0.26218 0.75232 0.41594 0.0
C4635 C 0.20796 0.70985 0.41689 0.0
C4636 C 0.22334 0.73743 0.42183 0.0
H4637 H 0.24155 0.75191 0.40481 0.0
C4638 C 0.22634 0.74235 0.4322 0.0
C4639 C 0.22885 0.74094 0.41183 0.0
C4640 C 0.22562 0.73629 0.40039 0.0
C4641 C 0.23486 0.75059 0.43284 0.0
C4642 C 0.24036 0.7541 0.42283 0.0
C4643 C 0.23736 0.74915 0.41248 0.0
C4644 C 0.24907 0.76309 0.42276 0.0
C4645 C 0.23804 0.75535 0.44424 0.0
C4646 C 0.24631 0.77416 0.42601 0.0
C4647 C 0.25423 0.78286 0.42486 0.0
C4648 C 0.265 0.78064 0.42035 0.0
C4649 C 0.26782 0.76949 0.41738 0.0
C4650 C 0.25991 0.76081 0.41854 0.0
H4651 H 0.2353 0.74972 0.45123 0.0
H4652 H 0.24731 0.75667 0.44487 0.0
H4653 H 0.23382 0.76365 0.44539 0.0
H4654 H 0.23792 0.77615 0.42907 0.0
H4655 H 0.25179 0.79137 0.42719 0.0
H4656 H 0.27549 0.21095 0.41205 0.0
H4657 H 0.26132 0.22583 0.41432 0.0
H4658 H 0.23875 0.20204 0.43022 0.0
H4659 H 0.25282 0.18706 0.42785 0.0
H4660 H 0.22898 0.21376 0.41256 0.0
H4661 H 0.25038 0.2434 0.44192 0.0
H4662 H 0.2587 0.23966 0.4298 0.0
H4663 H 0.25502 0.22899 0.43997 0.0
C4664 C 0.26758 0.20892 0.41619 0.0
C4665 C 0.26526 0.19782 0.41975 0.0
C4666 C 0.25952 0.21745 0.41754 0.0
C4667 C 0.24904 0.21507 0.42256 0.0
C4668 C 0.24681 0.20406 0.42637 0.0
H4669 H 0.1863 0.2533 0.42846 0.0
H4670 H 0.20129 0.23921 0.43059 0.0
C4671 C 0.25486 0.19552 0.42501 0.0
C4672 C 0.24006 0.22378 0.42295 0.0
H4673 H 0.23385 0.25027 0.43261 0.0
C4674 C 0.22999 0.22169 0.41704 0.0
C4675 C 0.24145 0.23415 0.42874 0.0
C4676 C 0.25193 0.23668 0.43555 0.0
C4677 C 0.22136 0.2298 0.41654 0.0
C4678 C 0.22276 0.24019 0.42228 0.0
C4679 C 0.2328 0.24227 0.42825 0.0
C4680 C 0.21398 0.24909 0.42189 0.0
C4681 C 0.21096 0.22731 0.40957 0.0
C4682 C 0.21628 0.25948 0.41668 0.0
C4683 C 0.20776 0.26758 0.4155 0.0
C4684 C 0.19679 0.26542 0.41955 0.0
C4685 C 0.19464 0.25518 0.42517 0.0
C4686 C 0.20317 0.2471 0.42635 0.0
H4687 H 0.21236 0.22018 0.40362 0.0
H4688 H 0.2039 0.22496 0.41528 0.0
H4689 H 0.20834 0.23486 0.40466 0.0
H4690 H 0.22459 0.2612 0.41323 0.0
H4691 H 0.2097 0.27541 0.41118 0.0
H4692 H 0.21045 0.27511 0.56605 0.0
H4693 H 0.22536 0.261 0.56364 0.0
H4694 H 0.20114 0.23773 0.54946 0.0
H4695 H 0.18614 0.25174 0.55197 0.0
H4696 H 0.21387 0.22864 0.56691 0.0
H4697 H 0.24166 0.24948 0.53542 0.0
H4698 H 0.23836 0.25811 0.54745 0.0
H4699 H 0.22728 0.25395 0.53793 0.0
C4700 C 0.20832 0.26704 0.56228 0.0
C4701 C 0.19711 0.26452 0.55922 0.0
C4702 C 0.21687 0.25901 0.56084 0.0
C4703 C 0.21438 0.24837 0.55623 0.0
C4704 C 0.20324 0.24592 0.55297 0.0
H4705 H 0.25279 0.18589 0.54996 0.0
H4706 H 0.23852 0.20075 0.54817 0.0
C4707 C 0.19469 0.25393 0.55441 0.0
C4708 C 0.22318 0.23949 0.55567 0.0
H4709 H 0.24917 0.23327 0.54474 0.0
C4710 C 0.22154 0.22959 0.56197 0.0
C4711 C 0.2332 0.24082 0.54929 0.0
C4712 C 0.23522 0.25112 0.54205 0.0
C4713 C 0.22976 0.22107 0.56228 0.0
C4714 C 0.2398 0.2224 0.55593 0.0
C4715 C 0.24144 0.23228 0.54957 0.0
C4716 C 0.24879 0.21369 0.55602 0.0
C4717 C 0.22778 0.21085 0.56965 0.0
C4718 C 0.25943 0.21619 0.56062 0.0
C4719 C 0.26762 0.20773 0.5616 0.0
C4720 C 0.2653 0.19665 0.55797 0.0
C4721 C 0.2548 0.19432 0.55292 0.0
C4722 C 0.24662 0.20278 0.55193 0.0
H4723 H 0.22098 0.21236 0.57596 0.0
H4724 H 0.22519 0.20362 0.56428 0.0
H4725 H 0.23563 0.20844 0.57421 0.0
H4726 H 0.26126 0.22458 0.56377 0.0
H4727 H 0.27566 0.20981 0.56548 0.0
H4728 H 0.79294 0.25235 0.55147 0.0
H4729 H 0.77804 0.23817 0.54931 0.0
H4730 H 0.7536 0.26169 0.56266 0.0
H4731 H 0.76841 0.27597 0.56474 0.0
H4732 H 0.7653 0.22955 0.56702 0.0
H4733 H 0.7375 0.24915 0.53475 0.0
H4734 H 0.75184 0.25379 0.53716 0.0
H4735 H 0.7407 0.25819 0.5465 0.0
C4736 C 0.78436 0.25456 0.5538 0.0
C4737 C 0.78185 0.26527 0.55829 0.0
C4738 C 0.77587 0.24645 0.55256 0.0
C4739 C 0.7647 0.24893 0.5557 0.0
C4740 C 0.76212 0.25969 0.55997 0.0
H4741 H 0.70355 0.21032 0.56561 0.0
H4742 H 0.71791 0.22508 0.56365 0.0
C4743 C 0.77061 0.26781 0.56121 0.0
C4744 C 0.75597 0.23996 0.55539 0.0
H4745 H 0.73008 0.23318 0.54454 0.0
C4746 C 0.75765 0.23028 0.56202 0.0
C4747 C 0.74597 0.241 0.54892 0.0
C4748 C 0.7439 0.25104 0.54134 0.0
C4749 C 0.74949 0.22171 0.56256 0.0
C4750 C 0.73947 0.22275 0.55612 0.0
C4751 C 0.73779 0.23241 0.54944 0.0
C4752 C 0.73055 0.21399 0.55645 0.0
C4753 C 0.75151 0.21176 0.57029 0.0
C4754 C 0.73281 0.20295 0.55277 0.0
C4755 C 0.72464 0.1945 0.55391 0.0
C4756 C 0.71405 0.19697 0.55869 0.0
C4757 C 0.71165 0.20814 0.56194 0.0
C4758 C 0.71983 0.21659 0.56081 0.0
H4759 H 0.75824 0.21354 0.57659 0.0
H4760 H 0.74366 0.20942 0.57485 0.0
H4761 H 0.75422 0.20438 0.56517 0.0
H4762 H 0.74096 0.20083 0.54919 0.0
H4763 H 0.72671 0.18599 0.55124 0.0
H4764 H 0.25164 0.79114 0.55221 0.0
H4765 H 0.238 0.7757 0.55017 0.0
H4766 H 0.26302 0.75197 0.56198 0.0
H4767 H 0.27666 0.76736 0.5642 0.0
H4768 H 0.23876 0.755 0.53776 0.0
H4769 H 0.23647 0.74805 0.58414 0.0
H4770 H 0.24276 0.76052 0.57803 0.0
H4771 H 0.25047 0.74744 0.57828 0.0
C4772 C 0.25426 0.78262 0.5543 0.0
C4773 C 0.26518 0.78048 0.55849 0.0
C4774 C 0.24647 0.77382 0.55311 0.0
C4775 C 0.24946 0.76275 0.5561 0.0
C4776 C 0.2605 0.7605 0.55982 0.0
H4777 H 0.21067 0.70092 0.56327 0.0
H4778 H 0.22594 0.71471 0.56129 0.0
C4779 C 0.26828 0.7693 0.56104 0.0
C4780 C 0.2409 0.75363 0.55577 0.0
H4781 H 0.22638 0.73528 0.57261 0.0
C4782 C 0.23604 0.75067 0.54536 0.0
C4783 C 0.23737 0.74804 0.56572 0.0
C4784 C 0.24195 0.75121 0.5772 0.0
C4785 C 0.2278 0.74215 0.54463 0.0
C4786 C 0.22425 0.73659 0.55459 0.0
C4787 C 0.22917 0.73952 0.56498 0.0
C4788 C 0.21522 0.72792 0.55458 0.0
C4789 C 0.22308 0.73905 0.5332 0.0
C4790 C 0.20416 0.73076 0.55137 0.0
C4791 C 0.19542 0.72289 0.55249 0.0
C4792 C 0.19758 0.71209 0.55692 0.0
C4793 C 0.20873 0.70917 0.55984 0.0
C4794 C 0.21746 0.71704 0.55871 0.0
H4795 H 0.22874 0.74183 0.52625 0.0
H4796 H 0.22176 0.72979 0.5325 0.0
H4797 H 0.21479 0.74328 0.53205 0.0
H4798 H 0.20221 0.73919 0.54837 0.0
H4799 H 0.1869 0.7254 0.5502 0.0
H4800 H 0.03577 0.1617 0.31251 0.0
H4801 H 0.01611 0.15648 0.31627 0.0
H4802 H 0.01198 0.18644 0.3366 0.0
H4803 H 0.03169 0.19155 0.33317 0.0
H4804 H -0.00055 0.16777 0.34469 0.0
H4805 H -0.00698 0.17513 0.29867 0.0
H4806 H 0.00309 0.16434 0.30217 0.0
H4807 H 0.00598 0.17882 0.30577 0.0
C4808 C 0.03075 0.16704 0.31799 0.0
C4809 C 0.0352 0.17715 0.32237 0.0
C4810 C 0.01952 0.16405 0.32011 0.0
C4811 C 0.01254 0.17122 0.32648 0.0
C4812 C 0.01722 0.18083 0.33161 0.0
H4813 H 0.94434 0.19048 0.33447 0.0
H4814 H 0.96401 0.18541 0.33815 0.0
C4815 C 0.02848 0.18375 0.32961 0.0
C4816 C 0.00013 0.16961 0.3266 0.0
H4817 H 0.97703 0.17097 0.30942 0.0
C4818 C -0.00548 0.16832 0.33698 0.0
C4819 C -0.00626 0.1704 0.31652 0.0
C4820 C -0.00078 0.17234 0.30515 0.0
C4821 C 0.98266 0.16799 0.33755 0.0
C4822 C 0.9763 0.16912 0.3275 0.0
C4823 C 0.98193 0.17001 0.31711 0.0
C4824 C 0.96385 0.17056 0.32745 0.0
C4825 C 0.97705 0.16656 0.34889 0.0
C4826 C 0.95716 0.1638 0.32037 0.0
C4827 C 0.94596 0.16678 0.31812 0.0
C4828 C 0.94127 0.17659 0.32291 0.0
C4829 C 0.94772 0.18287 0.33066 0.0
C4830 C 0.95895 0.17992 0.33285 0.0
H4831 H 0.98268 0.16209 0.35493 0.0
H4832 H 0.97515 0.17501 0.35248 0.0
H4833 H 0.969 0.16179 0.34814 0.0
H4834 H 0.96079 0.15657 0.31608 0.0
H4835 H 0.94118 0.16173 0.31217 0.0
H4836 H 0.81821 0.94305 0.31157 0.0
H4837 H 0.82295 0.96275 0.31555 0.0
H4838 H 0.79424 0.96518 0.33789 0.0
H4839 H 0.7896 0.94544 0.33415 0.0
H4840 H 0.80808 0.97873 0.30916 0.0
H4841 H 0.81735 0.98419 0.35464 0.0
H4842 H 0.81787 0.97058 0.34773 0.0
H4843 H 0.80456 0.97642 0.3522 0.0
C4844 C 0.8131 0.94768 0.31759 0.0
C4845 C 0.80345 0.94274 0.32244 0.0
C4846 C 0.81584 0.95893 0.31988 0.0
C4847 C 0.80899 0.96543 0.32706 0.0
C4848 C 0.7998 0.96028 0.33252 0.0
H4849 H 0.78776 0.0335 0.333 0.0
H4850 H 0.79265 0.01372 0.33645 0.0
C4851 C 0.79709 0.949 0.33029 0.0
C4852 C 0.81017 0.97789 0.32721 0.0
H4853 H 0.81147 0.00094 0.34455 0.0
C4854 C 0.80907 0.98359 0.31687 0.0
C4855 C 0.81132 0.98419 0.3373 0.0
C4856 C 0.81295 0.97852 0.34858 0.0
C4857 C 0.80856 -0.00461 0.31637 0.0
C4858 C 0.80944 0.00172 0.32648 0.0
C4859 C 0.81086 -0.00394 0.33681 0.0
C4860 C 0.80794 0.01413 0.32643 0.0
C4861 C 0.80646 0.00094 0.30507 0.0
C4862 C 0.81522 0.02104 0.32012 0.0
C4863 C 0.81237 0.03229 0.318 0.0
C4864 C 0.80228 0.03685 0.32231 0.0
C4865 C 0.79555 0.0302 0.32951 0.0
C4866 C 0.79835 0.01891 0.33152 0.0
H4867 H 0.80357 -0.00523 0.29859 0.0
H4868 H 0.79999 0.0077 0.30581 0.0
H4869 H 0.81442 0.00483 0.302 0.0
H4870 H 0.82277 0.01755 0.3163 0.0
H4871 H 0.81779 0.03726 0.31255 0.0
H4872 H 0.94197 0.78906 0.33833 0.0
H4873 H 0.96161 0.79208 0.34407 0.0
H4874 H 0.96633 0.81485 0.31602 0.0
H4875 H 0.94672 0.81204 0.31036 0.0
H4876 H 0.97847 0.78557 0.33031 0.0
H4877 H 0.98423 0.83076 0.34041 0.0
H4878 H 0.97046 0.82414 0.34004 0.0
H4879 H 0.97707 0.82889 0.32718 0.0
C4880 C 0.9471 0.79496 0.33357 0.0
C4881 C 0.94283 0.80023 0.32382 0.0
C4882 C 0.95832 0.79669 0.33688 0.0
C4883 C 0.96542 0.80377 0.33054 0.0
C4884 C 0.96096 0.80956 0.32121 0.0
H4885 H 0.03222 0.8102 0.30894 0.0
H4886 H 0.01262 0.81296 0.31473 0.0
C4887 C 0.94975 0.80786 0.31791 0.0
C4888 C 0.9778 0.80363 0.33243 0.0
H4889 H 0.00101 0.82071 0.33411 0.0
C4890 C 0.9834 0.79322 0.33144 0.0
C4891 C 0.98421 0.81362 0.33385 0.0
C4892 C 0.97866 0.82497 0.33555 0.0
C4893 C -0.00478 0.79259 0.33103 0.0
C4894 C 0.00163 0.80265 0.33188 0.0
C4895 C -0.00393 0.81302 0.33347 0.0
C4896 C 0.01397 0.80264 0.32976 0.0
C4897 C 0.00068 0.78125 0.3289 0.0
C4898 C 0.02135 0.79632 0.33656 0.0
C4899 C 0.03256 0.79463 0.3332 0.0
C4900 C 0.03656 0.79933 0.32305 0.0
C4901 C 0.02938 0.80639 0.31675 0.0
C4902 C 0.01818 0.80802 0.32008 0.0
H4903 H -0.00557 0.77471 0.32638 0.0
H4904 H 0.00718 0.7819 0.32216 0.0
H4905 H 0.00492 0.77833 0.33674 0.0
H4906 H 0.01831 0.79228 0.34418 0.0
H4907 H 0.03793 0.78924 0.3383 0.0
H4908 H 0.16268 0.0361 0.31145 0.0
H4909 H 0.15867 0.01625 0.3154 0.0
H4910 H 0.18765 0.01473 0.33747 0.0
H4911 H 0.1916 0.03466 0.33372 0.0
H4912 H 0.17422 0.00054 0.30903 0.0
H4913 H 0.16468 -0.0045 0.35459 0.0
H4914 H 0.16374 0.00896 0.34743 0.0
H4915 H 0.17725 0.00357 0.35187 0.0
C4916 C 0.16802 0.03163 0.31739 0.0
C4917 C 0.17753 0.0369 0.32219 0.0
C4918 C 0.1657 0.02029 0.31966 0.0
C4919 C 0.17281 0.01403 0.32677 0.0
C4920 C 0.1819 0.01946 0.33214 0.0
H4921 H 0.19216 0.94489 0.33338 0.0
H4922 H 0.18829 0.96494 0.33665 0.0
C4923 C 0.1842 0.03084 0.32992 0.0
C4924 C 0.17188 0.00155 0.32704 0.0
H4925 H 0.16995 0.97866 0.34452 0.0
C4926 C 0.17308 -0.00424 0.31677 0.0
C4927 C 0.17055 -0.00465 0.33717 0.0
C4928 C 0.16888 0.00116 0.34838 0.0
C4929 C 0.17338 0.98394 0.31636 0.0
C4930 C 0.17217 0.97771 0.32649 0.0
C4931 C 0.17079 0.98347 0.33677 0.0
C4932 C 0.17309 0.96524 0.32648 0.0
C4933 C 0.17551 0.97826 0.30512 0.0
C4934 C 0.16551 0.95867 0.32015 0.0
C4935 C 0.16777 0.94726 0.31815 0.0
C4936 C 0.17756 0.94221 0.3226 0.0
C4937 C 0.18458 0.94856 0.32979 0.0
C4938 C 0.18237 0.96001 0.33169 0.0
H4939 H 0.17877 0.98428 0.2987 0.0
H4940 H 0.18168 0.97125 0.30603 0.0
H4941 H 0.16746 0.97468 0.30189 0.0
H4942 H 0.15818 0.96252 0.31624 0.0
H4943 H 0.16214 0.94254 0.31269 0.0
H4944 H 0.03249 0.80996 0.66898 0.0
H4945 H 0.01272 0.81245 0.66366 0.0
H4946 H 0.01791 0.79164 0.63419 0.0
H4947 H 0.03771 0.78888 0.63959 0.0
H4948 H 0.00072 0.82005 0.64442 0.0
H4949 H -0.0056 0.7741 0.65254 0.0
H4950 H 0.0072 0.78136 0.65651 0.0
H4951 H 0.00472 0.77764 0.642 0.0
C4952 C 0.0295 0.80606 0.66126 0.0
C4953 C 0.03661 0.79906 0.65481 0.0
C4954 C 0.01819 0.80752 0.65821 0.0
C4955 C 0.01381 0.80205 0.64866 0.0
C4956 C 0.02109 0.79576 0.64172 0.0
H4957 H 0.94173 0.78846 0.64007 0.0
H4958 H 0.96149 0.79127 0.63462 0.0
C4959 C 0.0324 0.79423 0.6448 0.0
C4960 C 0.00144 0.80201 0.64676 0.0
H4961 H 0.97834 0.78484 0.64858 0.0
C4962 C -0.00418 0.81234 0.64516 0.0
C4963 C -0.00493 0.79193 0.64773 0.0
C4964 C 0.0006 0.78063 0.64987 0.0
C4965 C 0.98396 0.81289 0.64484 0.0
C4966 C 0.9776 0.80288 0.64634 0.0
C4967 C 0.98324 0.7925 0.64738 0.0
C4968 C 0.96521 0.80298 0.64816 0.0
C4969 C 0.97835 0.8242 0.6431 0.0
C4970 C 0.96068 0.80883 0.65744 0.0
C4971 C 0.94941 0.80724 0.66057 0.0
C4972 C 0.94249 0.79969 0.65455 0.0
C4973 C 0.94686 0.79432 0.6449 0.0
C4974 C 0.95814 0.79592 0.64176 0.0
H4975 H 0.9839 0.83003 0.63825 0.0
H4976 H 0.97018 0.82332 0.63856 0.0
H4977 H 0.9767 0.82814 0.65145 0.0
H4978 H 0.96602 0.8141 0.66267 0.0
H4979 H 0.9463 0.8115 0.66806 0.0
H4980 H 0.18998 0.03664 0.63864 0.0
H4981 H 0.18709 0.01699 0.63288 0.0
H4982 H 0.16396 0.01225 0.66065 0.0
H4983 H 0.16664 0.03187 0.66632 0.0
H4984 H 0.19346 0.00016 0.6467 0.0
H4985 H 0.14839 -0.00574 0.63617 0.0
H4986 H 0.15497 0.00804 0.63657 0.0
H4987 H 0.15005 0.00147 0.64939 0.0
C4988 C 0.18403 0.0315 0.64332 0.0
C4989 C 0.17862 0.03577 0.653 0.0
C4990 C 0.18237 0.02028 0.64001 0.0
C4991 C 0.17523 0.01317 0.64627 0.0
C4992 C 0.16931 0.01763 0.65552 0.0
H4993 H 0.16853 0.94678 0.66865 0.0
H4994 H 0.16596 0.96632 0.66256 0.0
C4995 C 0.17093 0.02884 0.65882 0.0
C4996 C 0.17542 0.00078 0.64442 0.0
H4997 H 0.15836 0.97756 0.64287 0.0
C4998 C 0.18583 -0.00479 0.64556 0.0
C4999 C 0.16544 -0.00565 0.64297 0.0
C5000 C 0.1541 -0.00013 0.64109 0.0
C5001 C 0.18645 0.9834 0.64612 0.0
C5002 C 0.1764 0.97697 0.64529 0.0
C5003 C 0.16605 0.98251 0.64351 0.0
C5004 C 0.17638 0.96468 0.64763 0.0
C5005 C 0.19778 0.97796 0.64841 0.0
C5006 C 0.18271 0.95716 0.64098 0.0
C5007 C 0.18429 0.94599 0.64451 0.0
C5008 C 0.17946 0.94217 0.65467 0.0
C5009 C 0.17243 0.94949 0.66082 0.0
C5010 C 0.17091 0.96066 0.65734 0.0
H5011 H 0.20432 0.98426 0.65085 0.0
H5012 H 0.19708 0.9716 0.65526 0.0
H5013 H 0.20074 0.97358 0.64067 0.0
H5014 H 0.18683 0.96007 0.63335 0.0
H5015 H 0.18966 0.94051 0.63952 0.0
H5016 H 0.94142 0.19067 0.63959 0.0
H5017 H 0.96106 0.18761 0.63387 0.0
H5018 H 0.96537 0.16393 0.66123 0.0
H5019 H 0.94576 0.16678 0.66686 0.0
H5020 H 0.97804 0.19342 0.64779 0.0
H5021 H 0.98301 0.14843 0.63646 0.0
H5022 H 0.96937 0.15527 0.63702 0.0
H5023 H 0.9759 0.15004 0.64973 0.0
C5024 C 0.94646 0.18457 0.64419 0.0
C5025 C 0.94207 0.17904 0.65374 0.0
C5026 C 0.95768 0.18283 0.6409 0.0
C5027 C 0.96466 0.17546 0.64705 0.0
C5028 C 0.96009 0.16945 0.65619 0.0
H5029 H 0.03147 0.16738 0.66842 0.0
H5030 H 0.01178 0.16514 0.66268 0.0
C5031 C 0.94888 0.17117 0.65946 0.0
C5032 C 0.97706 0.17544 0.64519 0.0
H5033 H -4e-05 0.158 0.64307 0.0
C5034 C 0.98283 0.18572 0.64646 0.0
C5035 C 0.98329 0.16538 0.64351 0.0
C5036 C 0.97755 0.15418 0.64149 0.0
C5037 C -0.00533 0.18613 0.64689 0.0
C5038 C 0.0009 0.17598 0.64578 0.0
C5039 C -0.00484 0.16576 0.64392 0.0
C5040 C 0.01325 0.17572 0.64786 0.0
C5041 C 0.00034 0.19731 0.6493 0.0
C5042 C 0.02072 0.18203 0.64114 0.0
C5043 C 0.03198 0.18342 0.64446 0.0
C5044 C 0.03595 0.17843 0.65449 0.0
C5045 C 0.02866 0.1714 0.66069 0.0
C5046 C 0.0174 0.17008 0.65741 0.0
H5047 H -0.0058 0.2039 0.65198 0.0
H5048 H 0.00682 0.19637 0.65602 0.0
H5049 H 0.00463 0.20035 0.64154 0.0
H5050 H 0.01771 0.18628 0.63362 0.0
H5051 H 0.03743 0.18879 0.63943 0.0
H5052 H 0.81217 0.03231 0.66686 0.0
H5053 H 0.81479 0.01265 0.66131 0.0
H5054 H 0.79157 0.01727 0.63359 0.0
H5055 H 0.78875 0.03697 0.63922 0.0
H5056 H 0.78525 0.00048 0.64757 0.0
H5057 H 0.83028 -0.00539 0.63677 0.0
H5058 H 0.82863 0.00184 0.64999 0.0
H5059 H 0.82368 0.00838 0.63717 0.0
C5060 C 0.80785 0.02925 0.6594 0.0
C5061 C 0.80017 0.03616 0.65355 0.0
C5062 C 0.80944 0.01801 0.65617 0.0
C5063 C 0.80347 0.01351 0.64696 0.0
C5064 C 0.79632 0.02059 0.64068 0.0
H5065 H 0.7888 0.94103 0.6393 0.0
H5066 H 0.79168 0.96071 0.63355 0.0
C5067 C 0.79471 0.03184 0.64392 0.0
C5068 C 0.80328 0.00111 0.64515 0.0
H5069 H 0.8203 0.97788 0.64325 0.0
C5070 C 0.79288 -0.00446 0.64633 0.0
C5071 C 0.81324 -0.00531 0.64359 0.0
C5072 C 0.82457 0.00021 0.64169 0.0
C5073 C 0.79224 0.98372 0.64678 0.0
C5074 C 0.80228 0.97729 0.64578 0.0
C5075 C 0.81262 0.98284 0.64402 0.0
C5076 C 0.80227 0.96495 0.64784 0.0
C5077 C 0.78092 0.97828 0.6491 0.0
C5078 C 0.80781 0.96067 0.65741 0.0
C5079 C 0.80627 0.94944 0.66065 0.0
C5080 C 0.79913 0.94229 0.6544 0.0
C5081 C 0.79425 0.94637 0.64437 0.0
C5082 C 0.79585 0.95761 0.64108 0.0
H5083 H 0.77445 0.98454 0.65175 0.0
H5084 H 0.77785 0.97407 0.6413 0.0
H5085 H 0.78168 0.97177 0.65581 0.0
H5086 H 0.81283 0.96619 0.66272 0.0
H5087 H 0.81022 0.94654 0.66838 0.0
H5088 H 0.30992 0.94576 0.166 0.0
H5089 H 0.31522 0.96544 0.16298 0.0
H5090 H 0.343 0.96166 0.18629 0.0
H5091 H 0.33761 0.94196 0.18951 0.0
H5092 H 0.32881 0.97845 0.19219 0.0
H5093 H 0.33962 0.98332 0.14706 0.0
H5094 H 0.32645 0.97605 0.14893 0.0
H5095 H 0.33933 0.96972 0.15399 0.0
C5096 C 0.31733 0.94902 0.17027 0.0
C5097 C 0.32328 0.94233 0.17808 0.0
C5098 C 0.32042 0.96026 0.16845 0.0
C5099 C 0.32959 0.965 0.17431 0.0
C5100 C 0.33595 0.95815 0.18162 0.0
H5101 H 0.33803 0.03743 0.18783 0.0
H5102 H 0.34345 0.01768 0.18492 0.0
C5103 C 0.33285 0.9469 0.18346 0.0
C5104 C 0.33128 0.97741 0.17421 0.0
H5105 H 0.33329 0.00027 0.1567 0.0
C5106 C 0.33007 0.98322 0.18447 0.0
C5107 C 0.33284 0.98361 0.16411 0.0
C5108 C 0.33475 0.97783 0.15292 0.0
C5109 C 0.32967 -0.00496 0.18485 0.0
C5110 C 0.33076 0.00126 0.17469 0.0
C5111 C 0.33247 -0.00452 0.16447 0.0
C5112 C 0.32897 0.01364 0.17449 0.0
C5113 C 0.32736 0.00074 0.19604 0.0
C5114 C 0.31944 0.01807 0.169 0.0
C5115 C 0.31638 0.02937 0.17055 0.0
C5116 C 0.3228 0.0364 0.17766 0.0
C5117 C 0.33284 0.03218 0.18242 0.0
C5118 C 0.33594 0.02089 0.18079 0.0
H5119 H 0.32455 -0.00535 0.2026 0.0
H5120 H 0.33521 0.00486 0.1991 0.0
H5121 H 0.32077 0.00736 0.19512 0.0
H5122 H 0.31398 0.01261 0.16407 0.0
H5123 H 0.30863 0.03238 0.16672 0.0
H5124 H 0.94756 0.30864 0.16636 0.0
H5125 H 0.96719 0.31449 0.16392 0.0
H5126 H 0.96112 0.34396 0.18448 0.0
H5127 H 0.94146 0.33804 0.18718 0.0
H5128 H 0.97887 0.33408 0.15638 0.0
H5129 H 0.98475 0.32604 0.20239 0.0
H5130 H 0.97216 0.32177 0.19496 0.0
H5131 H 0.97425 0.33635 0.19867 0.0
C5132 C 0.95032 0.31648 0.1702 0.0
C5133 C 0.94302 0.32278 0.17713 0.0
C5134 C 0.96155 0.31983 0.16876 0.0
C5135 C 0.96565 0.32953 0.17419 0.0
C5136 C 0.95815 0.33633 0.18038 0.0
H5137 H 0.03744 0.33833 0.18891 0.0
H5138 H 0.01779 0.34397 0.18576 0.0
C5139 C 0.94692 0.33295 0.18189 0.0
C5140 C 0.97797 0.33169 0.17439 0.0
H5141 H 0.00088 0.3301 0.19182 0.0
C5142 C 0.98369 0.3334 0.16414 0.0
C5143 C 0.98423 0.33079 0.18454 0.0
C5144 C 0.97859 0.32856 0.19577 0.0
C5145 C -0.00445 0.33386 0.16373 0.0
C5146 C 0.00181 0.33239 0.1738 0.0
C5147 C -0.00394 0.33127 0.18411 0.0
C5148 C 0.01421 0.33057 0.17384 0.0
C5149 C 0.00126 0.33571 0.15249 0.0
C5150 C 0.01879 0.32133 0.16797 0.0
C5151 C 0.03001 0.3181 0.16974 0.0
C5152 C 0.03681 0.32397 0.17751 0.0
C5153 C 0.03241 0.33361 0.18289 0.0
C5154 C 0.02118 0.33686 0.18109 0.0
H5155 H -0.00423 0.34062 0.14668 0.0
H5156 H 0.00943 0.34022 0.1535 0.0
H5157 H 0.00293 0.32739 0.14849 0.0
H5158 H 0.01352 0.31617 0.16255 0.0
H5159 H 0.03314 0.31063 0.16548 0.0
H5160 H 0.64406 0.94321 0.19263 0.0
H5161 H 0.64037 0.96303 0.18817 0.0
H5162 H 0.66182 0.96048 0.15882 0.0
H5163 H 0.66572 0.94073 0.16333 0.0
H5164 H 0.66875 0.97646 0.17381 0.0
H5165 H 0.62305 0.98203 0.16522 0.0
H5166 H 0.62588 0.9742 0.1779 0.0
H5167 H 0.62997 0.96843 0.16445 0.0
C5168 C 0.64773 0.94677 0.18504 0.0
C5169 C 0.6553 0.94046 0.17841 0.0
C5170 C 0.64554 0.9581 0.18245 0.0
C5171 C 0.65076 0.96322 0.17312 0.0
C5172 C 0.65767 0.95668 0.16603 0.0
H5173 H 0.66574 0.03449 0.16172 0.0
H5174 H 0.66184 0.01456 0.15781 0.0
C5175 C 0.65991 0.9454 0.16865 0.0
C5176 C 0.65066 0.97568 0.17191 0.0
H5177 H 0.63345 -0.0012 0.17015 0.0
C5178 C 0.66105 0.98133 0.17279 0.0
C5179 C 0.64059 0.98201 0.17075 0.0
C5180 C 0.62925 0.97636 0.16942 0.0
C5181 C 0.66164 -0.00685 0.17296 0.0
C5182 C 0.65156 -0.00048 0.17194 0.0
C5183 C 0.64116 -0.00611 0.17084 0.0
C5184 C 0.65175 0.012 0.17283 0.0
C5185 C 0.67301 -0.00133 0.17478 0.0
C5186 C 0.64672 0.01731 0.18216 0.0
C5187 C 0.64881 0.02873 0.18434 0.0
C5188 C 0.65601 0.03497 0.17725 0.0
C5189 C 0.66028 0.02985 0.16742 0.0
C5190 C 0.65808 0.01847 0.16518 0.0
H5191 H 0.67942 -0.00742 0.17795 0.0
H5192 H 0.67611 0.00214 0.16665 0.0
H5193 H 0.67235 0.00575 0.18091 0.0
H5194 H 0.64177 0.01246 0.18814 0.0
H5195 H 0.64536 0.03246 0.19195 0.0
H5196 H 0.03698 0.63941 0.18843 0.0
H5197 H 0.01742 0.63331 0.1856 0.0
H5198 H 0.01213 0.66097 0.16247 0.0
H5199 H 0.03165 0.66699 0.1651 0.0
H5200 H 0.00036 0.64691 0.19199 0.0
H5201 H -0.00547 0.63607 0.14701 0.0
H5202 H 0.00832 0.63671 0.15356 0.0
H5203 H 0.00154 0.64941 0.14862 0.0
C5204 C 0.03174 0.64399 0.18249 0.0
C5205 C 0.03583 0.65375 0.17706 0.0
C5206 C 0.02057 0.64048 0.18087 0.0
C5207 C 0.01333 0.64661 0.17374 0.0
C5208 C 0.01761 0.65594 0.1678 0.0
H5209 H 0.94669 0.668 0.16711 0.0
H5210 H 0.96623 0.66201 0.16441 0.0
C5211 C 0.02877 0.65945 0.1694 0.0
C5212 C 0.00098 0.64455 0.17397 0.0
H5213 H 0.97773 0.64249 0.15699 0.0
C5214 C -0.00459 0.64564 0.18438 0.0
C5215 C -0.00545 0.64293 0.16403 0.0
C5216 C 7e-05 0.6411 0.15269 0.0
C5217 C 0.98359 0.64601 0.18504 0.0
C5218 C 0.97715 0.645 0.17501 0.0
C5219 C 0.98269 0.64326 0.16466 0.0
C5220 C 0.96482 0.64719 0.17501 0.0
C5221 C 0.97816 0.64828 0.19636 0.0
C5222 C 0.95741 0.64055 0.18146 0.0
C5223 C 0.94623 0.64402 0.18313 0.0
C5224 C 0.94228 0.65412 0.17826 0.0
C5225 C 0.94949 0.66023 0.17105 0.0
C5226 C 0.96066 0.6568 0.16946 0.0
H5227 H 0.98443 0.65087 0.20285 0.0
H5228 H 0.97167 0.65503 0.19564 0.0
H5229 H 0.97391 0.64049 0.19938 0.0
H5230 H 0.96041 0.63298 0.18564 0.0
H5231 H 0.94084 0.63907 0.18862 0.0
H5232 H 0.33939 0.94159 0.78907 0.0
H5233 H 0.3451 0.9612 0.79235 0.0
H5234 H 0.31707 0.96554 0.81526 0.0
H5235 H 0.31147 0.94597 0.81222 0.0
H5236 H 0.33149 0.97807 0.78609 0.0
H5237 H 0.3412 0.98339 0.83138 0.0
H5238 H 0.34083 0.96968 0.82465 0.0
H5239 H 0.32796 0.97628 0.82943 0.0
C5240 C 0.33464 0.94663 0.79506 0.0
C5241 C 0.32491 0.94227 0.80031 0.0
C5242 C 0.33793 0.95783 0.79694 0.0
C5243 C 0.33159 0.96482 0.80414 0.0
C5244 C 0.32227 0.96026 0.80989 0.0
H5245 H 0.3091 0.03131 0.81051 0.0
H5246 H 0.31509 0.01177 0.81341 0.0
C5247 C 0.319 0.94907 0.80805 0.0
C5248 C 0.33342 0.97722 0.80416 0.0
H5249 H 0.33467 0.00024 0.82152 0.0
C5250 C 0.3325 0.98291 0.79381 0.0
C5251 C 0.33467 0.98352 0.81424 0.0
C5252 C 0.33634 0.97788 0.82553 0.0
C5253 C 0.33198 -0.00527 0.79332 0.0
C5254 C 0.33264 0.00104 0.80346 0.0
C5255 C 0.33416 -0.00462 0.81377 0.0
C5256 C 0.33041 0.01335 0.80354 0.0
C5257 C 0.32996 0.00031 0.78202 0.0
C5258 C 0.33731 0.02084 0.79746 0.0
C5259 C 0.33384 0.03199 0.79569 0.0
C5260 C 0.32348 0.03584 0.80007 0.0
C5261 C 0.31708 0.02858 0.80695 0.0
C5262 C 0.32052 0.01742 0.80865 0.0
H5263 H 0.32763 -0.00589 0.77536 0.0
H5264 H 0.32311 0.0067 0.78265 0.0
H5265 H 0.33778 0.00469 0.77928 0.0
H5266 H 0.34508 0.01789 0.79362 0.0
H5267 H 0.33902 0.03743 0.79046 0.0
H5268 H 0.03239 0.30965 0.80994 0.0
H5269 H 0.01269 0.31527 0.81246 0.0
H5270 H 0.01821 0.34449 0.7914 0.0
H5271 H 0.03792 0.33879 0.78862 0.0
H5272 H 0.00091 0.33483 0.81986 0.0
H5273 H -0.00547 0.3261 0.77404 0.0
H5274 H 0.00727 0.32207 0.78137 0.0
H5275 H 0.00497 0.33656 0.77748 0.0
C5276 C 0.02948 0.31738 0.806 0.0
C5277 C 0.03665 0.32367 0.79892 0.0
C5278 C 0.01823 0.32061 0.80748 0.0
C5279 C 0.01396 0.33017 0.80194 0.0
C5280 C 0.02131 0.33696 0.79558 0.0
H5281 H 0.94192 0.33836 0.78803 0.0
H5282 H 0.9616 0.34411 0.79086 0.0
C5283 C 0.03257 0.33371 0.79403 0.0
C5284 C 0.00161 0.3322 0.80187 0.0
H5285 H 0.97851 0.33022 0.78474 0.0
C5286 C -0.004 0.334 0.81217 0.0
C5287 C -0.00477 0.33112 0.79181 0.0
C5288 C 0.00075 0.32877 0.78054 0.0
C5289 C 0.98414 0.33439 0.81272 0.0
C5290 C 0.97777 0.33274 0.80274 0.0
C5291 C 0.98341 0.33153 0.79238 0.0
C5292 C 0.96539 0.33086 0.80288 0.0
C5293 C 0.97855 0.33635 0.824 0.0
C5294 C 0.96091 0.32168 0.8089 0.0
C5295 C 0.94969 0.31838 0.80731 0.0
C5296 C 0.94276 0.32414 0.79957 0.0
C5297 C 0.94706 0.33374 0.79403 0.0
C5298 C 0.95829 0.33704 0.79565 0.0
H5299 H 0.98409 0.34135 0.8297 0.0
H5300 H 0.97035 0.34081 0.82304 0.0
H5301 H 0.97697 0.32807 0.82812 0.0
H5302 H 0.96628 0.31661 0.81431 0.0
H5303 H 0.94664 0.31095 0.81169 0.0
H5304 H 0.66654 0.03656 0.81668 0.0
H5305 H 0.66293 0.01684 0.82172 0.0
H5306 H 0.64222 0.01295 0.79198 0.0
H5307 H 0.64554 0.03275 0.78704 0.0
H5308 H 0.63447 0.00019 0.81095 0.0
H5309 H 0.6803 -0.00594 0.80222 0.0
H5310 H 0.67709 0.00412 0.81311 0.0
H5311 H 0.67301 0.00697 0.79876 0.0
C5312 C 0.66101 0.03158 0.81136 0.0
C5313 C 0.65649 0.03612 0.80136 0.0
C5314 C 0.65896 0.02032 0.81424 0.0
C5315 C 0.65253 0.01339 0.80707 0.0
C5316 C 0.64725 0.01816 0.79759 0.0
H5317 H 0.64448 0.94457 0.78913 0.0
H5318 H 0.64084 0.96436 0.79371 0.0
C5319 C 0.64919 0.02946 0.79476 0.0
C5320 C 0.6525 0.00098 0.80858 0.0
H5321 H 0.66983 0.97801 0.80696 0.0
C5322 C 0.6422 -0.00468 0.81021 0.0
C5323 C 0.66261 -0.00534 0.80753 0.0
C5324 C 0.67387 0.00022 0.80521 0.0
C5325 C 0.64173 0.98345 0.8107 0.0
C5326 C 0.65181 0.97716 0.80938 0.0
C5327 C 0.66212 0.98286 0.80808 0.0
C5328 C 0.65194 0.96469 0.80826 0.0
C5329 C 0.63047 0.97777 0.81256 0.0
C5330 C 0.65924 0.95823 0.81501 0.0
C5331 C 0.66146 0.94696 0.81231 0.0
C5332 C 0.65643 0.94196 0.80278 0.0
C5333 C 0.64848 0.94819 0.79653 0.0
C5334 C 0.64631 0.95949 0.7992 0.0
H5335 H 0.62448 0.98345 0.81704 0.0
H5336 H 0.6267 0.97562 0.80425 0.0
H5337 H 0.63143 0.96986 0.8175 0.0
H5338 H 0.6637 0.96209 0.82201 0.0
H5339 H 0.66758 0.94236 0.81733 0.0
H5340 H 0.94633 0.6701 0.81127 0.0
H5341 H 0.96594 0.66442 0.81421 0.0
H5342 H 0.96027 0.63423 0.79458 0.0
H5343 H 0.94064 0.64 0.79134 0.0
H5344 H 0.97771 0.6454 0.82254 0.0
H5345 H 0.98394 0.65148 0.77628 0.0
H5346 H 0.97121 0.65588 0.78339 0.0
H5347 H 0.97354 0.64119 0.78031 0.0
C5348 C 0.94918 0.66214 0.80774 0.0
C5349 C 0.94201 0.6556 0.80089 0.0
C5350 C 0.96039 0.65889 0.80947 0.0
C5351 C 0.9646 0.64903 0.80442 0.0
C5352 C 0.95722 0.64199 0.79836 0.0
H5353 H 0.03649 0.64019 0.79059 0.0
H5354 H 0.0169 0.63451 0.79399 0.0
C5355 C 0.94601 0.64528 0.79655 0.0
C5356 C 0.97695 0.64696 0.80443 0.0
H5357 H -2e-05 0.64798 0.78714 0.0
C5358 C 0.9826 0.64578 0.8148 0.0
C5359 C 0.98329 0.64746 0.7943 0.0
C5360 C 0.97774 0.64915 0.78293 0.0
C5361 C -0.00554 0.64547 0.81533 0.0
C5362 C 0.00078 0.64653 0.80525 0.0
C5363 C -0.00489 0.64711 0.79486 0.0
C5364 C 0.01316 0.64845 0.80523 0.0
C5365 C 9e-05 0.64421 0.82669 0.0
C5366 C 0.01765 0.658 0.81064 0.0
C5367 C 0.02883 0.66126 0.80873 0.0
C5368 C 0.03569 0.65509 0.80125 0.0
C5369 C 0.0314 0.64514 0.79636 0.0
C5370 C 0.02022 0.64187 0.79831 0.0
H5371 H -0.00541 0.63955 0.8327 0.0
H5372 H 0.0083 0.63972 0.82597 0.0
H5373 H 0.00168 0.65273 0.83029 0.0
H5374 H 0.01231 0.66337 0.81579 0.0
H5375 H 0.03188 0.66897 0.81262 0.0
H5376 H 0.19169 0.33433 0.03341 0.0
H5377 H 0.18738 0.33824 0.01362 0.0
H5378 H 0.15832 0.3163 0.01554 0.0
H5379 H 0.16273 0.31215 0.03526 0.0
H5380 H 0.17325 0.30981 -0.00035 0.0
H5381 H 0.16469 0.35552 -0.00543 0.0
H5382 H 0.1774 0.35276 0.00238 0.0
H5383 H 0.16397 0.34849 0.0081 0.0
C5384 C 0.1842 0.3306 0.02972 0.0
C5385 C 0.17763 0.32282 0.03584 0.0
C5386 C 0.18168 0.33291 0.01841 0.0
C5387 C 0.17247 0.32762 0.01311 0.0
C5388 C 0.16544 0.3205 0.01948 0.0
H5389 H 0.16236 0.31375 0.94148 0.0
H5390 H 0.15796 0.3176 0.9613 0.0
C5391 C 0.16799 0.31812 0.03074 0.0
C5392 C 0.17141 0.32789 0.00065 0.0
H5393 H 0.17021 0.34541 0.97774 0.0
C5394 C 0.17235 0.31758 -0.00513 0.0
C5395 C 0.17039 0.33805 -0.00557 0.0
C5396 C 0.16895 0.34932 0.0002 0.0
C5397 C 0.17276 0.31715 0.98306 0.0
C5398 C 0.17195 0.32732 0.97682 0.0
C5399 C 0.17076 0.33764 0.98256 0.0
C5400 C 0.17316 0.32729 0.96438 0.0
C5401 C 0.17463 0.30585 0.97741 0.0
C5402 C 0.18279 0.33209 0.9594 0.0
C5403 C 0.18526 0.33001 0.94804 0.0
C5404 C 0.17817 0.32303 0.94155 0.0
C5405 C 0.16806 0.31903 0.94632 0.0
C5406 C 0.16553 0.32121 0.95764 0.0
H5407 H 0.17751 0.2993 0.98348 0.0
H5408 H 0.16657 0.30292 0.97361 0.0
H5409 H 0.181 0.30656 0.97056 0.0
H5410 H 0.18876 0.33684 0.96448 0.0
H5411 H 0.19309 0.33326 0.94458 0.0
H5412 H 0.16179 0.66535 0.94231 0.0
H5413 H 0.15734 0.66149 0.96212 0.0
H5414 H 0.18766 0.64147 0.96509 0.0
H5415 H 0.19201 0.64502 0.94521 0.0
H5416 H 0.16933 0.63321 0.97833 0.0
H5417 H 0.17693 0.67922 0.98447 0.0
H5418 H 0.16584 0.67579 0.9747 0.0
H5419 H 0.18022 0.67209 0.97142 0.0
C5420 C 0.16737 0.6599 0.94711 0.0
C5421 C 0.17735 0.65565 0.94227 0.0
C5422 C 0.16482 0.65772 0.95842 0.0
C5423 C 0.17231 0.65142 0.96511 0.0
C5424 C 0.18179 0.6464 0.96007 0.0
H5425 H 0.19163 0.64382 0.03379 0.0
H5426 H 0.18704 0.64009 0.01402 0.0
C5427 C 0.18428 0.64846 0.94871 0.0
C5428 C 0.17114 0.65131 0.97756 0.0
H5429 H 0.17273 0.66859 0.00056 0.0
C5430 C 0.16996 0.64094 0.98321 0.0
C5431 C 0.17205 0.66141 0.9839 0.0
C5432 C 0.17393 0.67276 0.97836 0.0
C5433 C 0.16973 0.64042 -0.00492 0.0
C5434 C 0.17085 0.65051 0.00139 0.0
C5435 C 0.17175 0.66087 -0.00429 0.0
C5436 C 0.1721 0.65065 0.01384 0.0
C5437 C 0.16834 0.6291 0.00075 0.0
C5438 C 0.16512 0.65767 0.02038 0.0
C5439 C 0.16782 0.65995 0.03164 0.0
C5440 C 0.17756 0.65524 0.03655 0.0
C5441 C 0.18407 0.64756 0.03025 0.0
C5442 C 0.1814 0.64534 0.01895 0.0
H5443 H 0.16403 0.62295 -0.00489 0.0
H5444 H 0.17681 0.62564 0.00283 0.0
H5445 H 0.16343 0.62987 0.00871 0.0
H5446 H 0.15793 0.66189 0.01659 0.0
H5447 H 0.1626 0.66585 0.0363 0.0
H5448 H 0.33417 0.19133 0.03282 0.0
H5449 H 0.33764 0.1865 0.01303 0.0
H5450 H 0.3185 0.15575 0.01708 0.0
H5451 H 0.31472 0.16066 0.0368 0.0
H5452 H 0.34612 0.16796 3e-05 0.0
H5453 H 0.29981 0.17448 -0.0053 0.0
H5454 H 0.30715 0.17824 0.00751 0.0
H5455 H 0.30374 0.16372 0.00464 0.0
C5456 C 0.33092 0.1834 0.02958 0.0
C5457 C 0.32397 0.17648 0.03628 0.0
C5458 C 0.33294 0.18064 0.01828 0.0
C5459 C 0.32811 0.1709 0.01355 0.0
C5460 C 0.32211 0.16342 0.02053 0.0
H5461 H 0.3123 0.1605 0.94272 0.0
H5462 H 0.31671 0.15586 0.96234 0.0
C5463 C 0.31998 0.16623 0.03179 0.0
C5464 C 0.32801 0.16944 0.00113 0.0
H5465 H 0.31025 0.17041 0.97847 0.0
C5466 C 0.33829 0.16836 -0.00471 0.0
C5467 C 0.31776 0.17005 -0.00501 0.0
C5468 C 0.30649 0.17178 0.00073 0.0
C5469 C 0.33858 0.16798 0.98342 0.0
C5470 C 0.32835 0.16887 0.9773 0.0
C5471 C 0.31808 0.16962 0.98318 0.0
C5472 C 0.32795 0.17007 0.96484 0.0
C5473 C 0.34982 0.1667 0.97755 0.0
C5474 C 0.3331 0.17939 0.95961 0.0
C5475 C 0.33064 0.18203 0.94837 0.0
C5476 C 0.32284 0.1755 0.94224 0.0
C5477 C 0.31828 0.16575 0.94725 0.0
C5478 C 0.32081 0.16306 0.95846 0.0
H5479 H 0.35609 0.16243 0.98308 0.0
H5480 H 0.34897 0.16182 0.96959 0.0
H5481 H 0.35318 0.17521 0.97546 0.0
H5482 H 0.33843 0.18507 0.96443 0.0
H5483 H 0.33427 0.18961 0.94475 0.0
H5484 H 0.787 0.33466 0.94403 0.0
H5485 H 0.79104 0.33825 0.96395 0.0
H5486 H 0.81987 0.316 0.96218 0.0
H5487 H 0.81576 0.3122 0.94232 0.0
H5488 H 0.80436 0.30955 0.97782 0.0
H5489 H 0.81398 0.35502 0.98342 0.0
H5490 H 0.80139 0.3525 0.97533 0.0
H5491 H 0.81486 0.34803 0.96987 0.0
C5492 C 0.79439 0.33079 0.94779 0.0
C5493 C 0.80098 0.32304 0.94165 0.0
C5494 C 0.79674 0.33292 0.95917 0.0
C5495 C 0.8058 0.32745 0.96454 0.0
C5496 C 0.81286 0.32034 0.95819 0.0
H5497 H 0.8155 0.31271 0.03608 0.0
H5498 H 0.81979 0.31631 0.01619 0.0
C5499 C 0.81048 0.31816 0.94685 0.0
C5500 C 0.80672 0.32757 0.97702 0.0
H5501 H 0.8084 0.34483 0.0001 0.0
C5502 C 0.80546 0.31724 0.98269 0.0
C5503 C 0.80799 0.33764 0.98334 0.0
C5504 C 0.80974 0.34892 0.97768 0.0
C5505 C 0.80502 0.31671 -0.00551 0.0
C5506 C 0.80614 0.32679 0.00084 0.0
C5507 C 0.80762 0.33713 -0.0048 0.0
C5508 C 0.80501 0.32668 0.01329 0.0
C5509 C 0.80281 0.30542 2e-05 0.0
C5510 C 0.79568 0.33192 0.0184 0.0
C5511 C 0.79328 0.32999 0.0298 0.0
C5512 C 0.80015 0.32273 0.03622 0.0
C5513 C 0.80997 0.31822 0.0313 0.0
C5514 C 0.81243 0.32025 0.01994 0.0
H5515 H 0.79963 0.29905 -0.00611 0.0
H5516 H 0.8108 0.30215 0.00368 0.0
H5517 H 0.79654 0.30626 0.00695 0.0
H5518 H 0.78988 0.33695 0.01341 0.0
H5519 H 0.78568 0.33363 0.03337 0.0
H5520 H 0.66746 0.81693 0.03558 0.0
H5521 H 0.66328 0.82162 0.01592 0.0
H5522 H 0.64093 0.79289 0.01375 0.0
H5523 H 0.64487 0.78829 0.03346 0.0
H5524 H 0.66952 0.8068 -0.00012 0.0
H5525 H 0.62392 0.81595 -0.00505 0.0
H5526 H 0.63098 0.81646 0.00848 0.0
H5527 H 0.62649 0.80315 0.00264 0.0
C5528 C 0.6614 0.8118 0.03101 0.0
C5529 C 0.65659 0.80216 0.03602 0.0
C5530 C 0.65899 0.81452 0.01979 0.0
C5531 C 0.65175 0.80765 0.01337 0.0
C5532 C 0.64636 0.79846 0.01858 0.0
H5533 H 0.6454 0.78676 0.94521 0.0
H5534 H 0.64197 0.79152 0.96503 0.0
C5535 C 0.64869 0.79578 0.02984 0.0
C5536 C 0.65146 0.80884 0.00092 0.0
H5537 H 0.63387 0.81022 0.97807 0.0
C5538 C 0.66175 0.8078 -0.00489 0.0
C5539 C 0.6413 0.80999 -0.00527 0.0
C5540 C 0.63006 0.81156 0.00053 0.0
C5541 C 0.66213 0.80736 0.98331 0.0
C5542 C 0.65195 0.80826 0.97709 0.0
C5543 C 0.64166 0.8096 0.98286 0.0
C5544 C 0.6519 0.80687 0.96467 0.0
C5545 C 0.67339 0.80533 0.97763 0.0
C5546 C 0.65812 0.81424 0.95779 0.0
C5547 C 0.66023 0.81146 0.94652 0.0
C5548 C 0.65598 0.80136 0.94192 0.0
C5549 C 0.64884 0.79456 0.94854 0.0
C5550 C 0.64684 0.79728 0.95986 0.0
H5551 H 0.67994 0.80242 0.9837 0.0
H5552 H 0.6726 0.79892 0.97083 0.0
H5553 H 0.6764 0.81333 0.97378 0.0
H5554 H 0.66191 0.82179 0.96131 0.0
H5555 H 0.66564 0.81695 0.94157 0.0
H5556 H 0.81721 0.66519 0.03623 0.0
H5557 H 0.82197 0.66141 0.01647 0.0
H5558 H 0.79199 0.64095 0.01308 0.0
H5559 H 0.78734 0.6444 0.0329 0.0
H5560 H 0.8105 0.63291 0.00014 0.0
H5561 H 0.80257 0.67884 -0.0062 0.0
H5562 H 0.81358 0.67553 0.0037 0.0
H5563 H 0.7992 0.67172 0.00683 0.0
C5564 C 0.81177 0.65968 0.03134 0.0
C5565 C 0.80179 0.65526 0.03604 0.0
C5566 C 0.81449 0.65754 0.02006 0.0
C5567 C 0.80718 0.65113 0.01327 0.0
C5568 C 0.79771 0.64597 0.01818 0.0
H5569 H 0.7882 0.64326 0.94467 0.0
H5570 H 0.79289 0.63951 0.96441 0.0
C5571 C 0.79505 0.64798 0.0295 0.0
C5572 C 0.80853 0.65099 0.00084 0.0
H5573 H 0.80695 0.66818 0.97778 0.0
C5574 C 0.80985 0.64062 -0.00477 0.0
C5575 C 0.80759 0.66107 -0.00554 0.0
C5576 C 0.80556 0.67242 -4e-05 0.0
C5577 C 0.81016 0.64005 0.98336 0.0
C5578 C 0.80898 0.65011 0.97702 0.0
C5579 C 0.80797 0.66049 0.98267 0.0
C5580 C 0.80776 0.65019 0.96457 0.0
C5581 C 0.81168 0.62872 0.97773 0.0
C5582 C 0.81467 0.65726 0.95803 0.0
C5583 C 0.81191 0.65955 0.9468 0.0
C5584 C 0.80218 0.6548 0.94191 0.0
C5585 C 0.79576 0.64704 0.9482 0.0
C5586 C 0.79849 0.64481 0.95947 0.0
H5587 H 0.81602 0.62264 0.98341 0.0
H5588 H 0.80325 0.62518 0.97564 0.0
H5589 H 0.8166 0.6295 0.96979 0.0
H5590 H 0.82184 0.66153 0.96181 0.0
H5591 H 0.81707 0.66551 0.94214 0.0
H5592 H 0.3102 0.81137 0.03108 0.0
H5593 H 0.31596 0.8138 0.01143 0.0
H5594 H 0.34501 0.79253 0.01717 0.0
H5595 H 0.33916 0.78983 0.03683 0.0
H5596 H 0.33555 0.82091 -0.00043 0.0
H5597 H 0.3265 0.77506 -0.0063 0.0
H5598 H 0.32254 0.78256 0.00635 0.0
H5599 H 0.33701 0.77853 0.00409 0.0
C5600 C 0.31794 0.80737 0.02824 0.0
C5601 C 0.32411 0.80023 0.03545 0.0
C5602 C 0.32124 0.8088 0.01701 0.0
C5603 C 0.33078 0.80316 0.0128 0.0
C5604 C 0.33749 0.79678 0.02021 0.0
H5605 H 0.33881 0.78834 0.94099 0.0
H5606 H 0.34463 0.79139 0.9606 0.0
C5607 C 0.33415 0.79528 0.03144 0.0
C5608 C 0.33281 0.80294 0.00047 0.0
H5609 H 0.33071 0.78555 0.97758 0.0
C5610 C 0.33467 0.81316 -0.00525 0.0
C5611 C 0.33166 0.7928 -0.00579 0.0
C5612 C 0.32923 0.78161 -0.00016 0.0
C5613 C 0.33505 0.81357 0.98289 0.0
C5614 C 0.33334 0.80352 0.97664 0.0
C5615 C 0.33207 0.79323 0.98239 0.0
C5616 C 0.33144 0.80353 0.96427 0.0
C5617 C 0.33706 0.82478 0.97718 0.0
C5618 C 0.32227 0.80954 0.95974 0.0
C5619 C 0.31893 0.80782 0.94856 0.0
C5620 C 0.32464 0.79996 0.94172 0.0
C5621 C 0.33423 0.79443 0.94606 0.0
C5622 C 0.33758 0.79618 0.95725 0.0
H5623 H 0.34211 0.83051 0.98264 0.0
H5624 H 0.34152 0.8237 0.96899 0.0
H5625 H 0.32881 0.82892 0.97555 0.0
H5626 H 0.31724 0.81505 0.96505 0.0
H5627 H 0.31151 0.8122 0.94548 0.0
H5628 H 0.66773 0.16161 0.94223 0.0
H5629 H 0.66377 0.157 0.96194 0.0
H5630 H 0.64098 0.18538 0.96407 0.0
H5631 H 0.64472 0.18991 0.94429 0.0
H5632 H 0.66977 0.17209 0.97798 0.0
H5633 H 0.62436 0.16192 0.98285 0.0
H5634 H 0.63148 0.16148 0.96935 0.0
H5635 H 0.62674 0.17474 0.9751 0.0
C5636 C 0.66163 0.16668 0.9468 0.0
C5637 C 0.65663 0.1762 0.94175 0.0
C5638 C 0.65935 0.16401 0.95805 0.0
C5639 C 0.65203 0.1708 0.96446 0.0
C5640 C 0.64647 0.17988 0.95923 0.0
H5641 H 0.64498 0.19082 0.03296 0.0
H5642 H 0.64183 0.18634 0.01303 0.0
C5643 C 0.64869 0.18251 0.94794 0.0
C5644 C 0.65177 0.16962 0.97692 0.0
H5645 H 0.63422 0.16764 -0.00025 0.0
C5646 C 0.66203 0.17089 0.98274 0.0
C5647 C 0.64164 0.16819 0.98309 0.0
C5648 C 0.63044 0.1664 0.97727 0.0
C5649 C 0.6624 0.17124 -0.00545 0.0
C5650 C 0.65224 0.17003 0.00075 0.0
C5651 C 0.64199 0.16849 -0.00504 0.0
C5652 C 0.65216 0.17125 0.01319 0.0
C5653 C 0.67361 0.17349 0.00025 0.0
C5654 C 0.65855 0.16393 0.01999 0.0
C5655 C 0.66049 0.16655 0.03133 0.0
C5656 C 0.65592 0.17643 0.03608 0.0
C5657 C 0.64866 0.18317 0.02952 0.0
C5658 C 0.64683 0.18061 0.01814 0.0
H5659 H 0.68007 0.17665 -0.00579 0.0
H5660 H 0.67265 0.1798 0.00713 0.0
H5661 H 0.67683 0.16553 0.004 0.0
H5662 H 0.66255 0.15654 0.01636 0.0
H5663 H 0.66599 0.16111 0.03622 0.0
H5664 H 0.44104 0.68977 0.83779 0.0
H5665 H 0.46068 0.68691 0.84369 0.0
H5666 H 0.46653 0.66616 0.81431 0.0
H5667 H 0.44691 0.66875 0.80849 0.0
H5668 H 0.47809 0.65855 0.83398 0.0
H5669 H 0.48455 0.70447 0.82568 0.0
H5670 H 0.47399 0.70091 0.83599 0.0
H5671 H 0.47187 0.69716 0.82143 0.0
C5672 C 0.44645 0.68441 0.83271 0.0
C5673 C 0.44248 0.67963 0.82258 0.0
C5674 C 0.45767 0.68281 0.83608 0.0
C5675 C 0.4651 0.67652 0.82931 0.0
C5676 C 0.46094 0.67108 0.81963 0.0
H5677 H 0.53248 0.6667 0.81051 0.0
H5678 H 0.51281 0.66412 0.81604 0.0
C5679 C 0.44973 0.67261 0.8163 0.0
C5680 C 0.47743 0.67657 0.83147 0.0
H5681 H 0.50055 0.6937 0.82976 0.0
C5682 C 0.48301 0.66625 0.83324 0.0
C5683 C 0.48381 0.68664 0.83051 0.0
C5684 C 0.47831 0.69793 0.82822 0.0
C5685 C 0.49487 0.66569 0.8337 0.0
C5686 C 0.50125 0.67568 0.83215 0.0
C5687 C 0.49563 0.68605 0.83098 0.0
C5688 C 0.51365 0.67554 0.83032 0.0
C5689 C 0.50043 0.65439 0.83562 0.0
C5690 C 0.52072 0.68275 0.83655 0.0
C5691 C 0.53197 0.68435 0.83331 0.0
C5692 C 0.53631 0.67881 0.82374 0.0
C5693 C 0.5294 0.67109 0.81793 0.0
C5694 C 0.51816 0.66952 0.82115 0.0
H5695 H 0.49487 0.64869 0.84059 0.0
H5696 H 0.50203 0.65029 0.82734 0.0
H5697 H 0.50863 0.65531 0.84011 0.0
H5698 H 0.51739 0.68754 0.84361 0.0
H5699 H 0.53709 0.69034 0.83798 0.0
H5700 H 0.28905 0.53796 0.83806 0.0
H5701 H 0.29181 0.51827 0.84374 0.0
H5702 H 0.31489 0.51347 0.81594 0.0
H5703 H 0.31233 0.53312 0.81033 0.0
H5704 H 0.28538 0.50145 0.82976 0.0
H5705 H 0.33041 0.49551 0.84057 0.0
H5706 H 0.32383 0.50929 0.84017 0.0
H5707 H 0.32874 0.50272 0.82735 0.0
C5708 C 0.29496 0.5328 0.83335 0.0
C5709 C 0.30039 0.53706 0.82369 0.0
C5710 C 0.29654 0.52156 0.83662 0.0
C5711 C 0.30364 0.51442 0.83033 0.0
C5712 C 0.30958 0.51886 0.82108 0.0
H5713 H 0.31028 0.44738 0.80918 0.0
H5714 H 0.31289 0.46706 0.81478 0.0
C5715 C 0.30802 0.5301 0.81782 0.0
C5716 C 0.30341 0.50204 0.83219 0.0
H5717 H 0.32037 0.47878 0.83422 0.0
C5718 C 0.29299 0.49649 0.83103 0.0
C5719 C 0.31335 0.4956 0.83378 0.0
C5720 C 0.3247 0.5011 0.83566 0.0
C5721 C 0.29232 0.48467 0.83064 0.0
C5722 C 0.30234 0.47822 0.83168 0.0
C5723 C 0.3127 0.48375 0.83342 0.0
C5724 C 0.30231 0.46587 0.82965 0.0
C5725 C 0.28099 0.47924 0.82834 0.0
C5726 C 0.29588 0.45856 0.83642 0.0
C5727 C 0.29428 0.44731 0.83318 0.0
C5728 C 0.29919 0.44319 0.82317 0.0
C5729 C 0.30632 0.45031 0.81689 0.0
C5730 C 0.30786 0.46156 0.8201 0.0
H5731 H 0.27453 0.48551 0.82567 0.0
H5732 H 0.28174 0.47271 0.82165 0.0
H5733 H 0.27791 0.47507 0.83615 0.0
H5734 H 0.29171 0.46169 0.84394 0.0
H5735 H 0.28883 0.44199 0.83825 0.0
H5736 H 0.53486 0.3143 0.81137 0.0
H5737 H 0.51499 0.31834 0.81525 0.0
H5738 H 0.51332 0.28934 0.83725 0.0
H5739 H 0.53326 0.28536 0.83359 0.0
H5740 H 0.49921 0.30298 0.8088 0.0
H5741 H 0.49412 0.3122 0.85441 0.0
H5742 H 0.50761 0.31306 0.8473 0.0
H5743 H 0.50211 0.29959 0.85167 0.0
C5744 C 0.53035 0.30896 0.81728 0.0
C5745 C 0.53559 0.29944 0.82209 0.0
C5746 C 0.519 0.3113 0.8195 0.0
C5747 C 0.51269 0.30419 0.82658 0.0
C5748 C 0.51808 0.29508 0.83195 0.0
H5749 H 0.44354 0.28471 0.83282 0.0
H5750 H 0.46361 0.28851 0.8361 0.0
C5751 C 0.52946 0.29277 0.82977 0.0
C5752 C 0.5002 0.30516 0.82683 0.0
H5753 H 0.47728 0.30689 0.84431 0.0
C5754 C 0.49442 0.30404 0.81655 0.0
C5755 C 0.49399 0.30639 0.83697 0.0
C5756 C 0.49977 0.30798 0.8482 0.0
C5757 C 0.4826 0.30373 0.81612 0.0
C5758 C 0.47636 0.30482 0.82626 0.0
C5759 C 0.48211 0.30613 0.83656 0.0
C5760 C 0.46389 0.30389 0.82623 0.0
C5761 C 0.47693 0.30173 0.80486 0.0
C5762 C 0.45731 0.31158 0.82006 0.0
C5763 C 0.44589 0.30937 0.81806 0.0
C5764 C 0.44084 0.2995 0.82234 0.0
C5765 C 0.44721 0.29235 0.82936 0.0
C5766 C 0.45867 0.29451 0.83127 0.0
H5767 H 0.48296 0.29859 0.79839 0.0
H5768 H 0.46994 0.29551 0.80569 0.0
H5769 H 0.4733 0.30979 0.80175 0.0
H5770 H 0.46116 0.31897 0.81627 0.0
H5771 H 0.44116 0.31511 0.81273 0.0
H5772 H 0.68951 0.44107 0.83834 0.0
H5773 H 0.68698 0.46077 0.84411 0.0
H5774 H 0.6635 0.4658 0.8167 0.0
H5775 H 0.66582 0.44615 0.811 0.0
H5776 H 0.69329 0.47762 0.83018 0.0
H5777 H 0.64845 0.48376 0.84158 0.0
H5778 H 0.65494 0.46995 0.84102 0.0
H5779 H 0.64985 0.47659 0.82831 0.0
C5780 C 0.68356 0.44629 0.83374 0.0
C5781 C 0.67794 0.44209 0.82415 0.0
C5782 C 0.68212 0.45754 0.83706 0.0
C5783 C 0.67497 0.46473 0.83091 0.0
C5784 C 0.66885 0.46036 0.82174 0.0
H5785 H 0.66831 0.53153 0.80948 0.0
H5786 H 0.66578 0.51191 0.81527 0.0
C5787 C 0.67027 0.44912 0.81842 0.0
C5788 C 0.67528 0.47711 0.83281 0.0
H5789 H 0.65844 0.50044 0.83495 0.0
C5790 C 0.68571 0.48261 0.83152 0.0
C5791 C 0.66539 0.48359 0.83451 0.0
C5792 C 0.65405 0.47815 0.83655 0.0
C5793 C 0.68642 0.49442 0.83107 0.0
C5794 C 0.67643 0.50092 0.83219 0.0
C5795 C 0.66608 0.49544 0.83409 0.0
C5796 C 0.67647 0.51324 0.83004 0.0
C5797 C 0.69774 0.4998 0.82863 0.0
C5798 C 0.68296 0.52061 0.83669 0.0
C5799 C 0.68453 0.53183 0.83334 0.0
C5800 C 0.67952 0.53586 0.82334 0.0
C5801 C 0.67235 0.52867 0.81718 0.0
C5802 C 0.67085 0.51745 0.8205 0.0
H5803 H 0.70417 0.49349 0.82598 0.0
H5804 H 0.69695 0.50626 0.82188 0.0
H5805 H 0.70089 0.50406 0.83637 0.0
H5806 H 0.68721 0.51755 0.8442 0.0
H5807 H 0.69001 0.53721 0.83833 0.0
H5808 H 0.4408 0.28939 0.13987 0.0
H5809 H 0.46044 0.29236 0.13401 0.0
H5810 H 0.46606 0.31327 0.16333 0.0
H5811 H 0.44644 0.31058 0.16909 0.0
H5812 H 0.47781 0.32081 0.14394 0.0
H5813 H 0.48415 0.27485 0.15209 0.0
H5814 H 0.47372 0.27841 0.14165 0.0
H5815 H 0.47141 0.28214 0.15618 0.0
C5816 C 0.44616 0.29482 0.14493 0.0
C5817 C 0.44213 0.29959 0.15505 0.0
C5818 C 0.45737 0.29648 0.14159 0.0
C5819 C 0.46475 0.30283 0.14838 0.0
C5820 C 0.46052 0.3083 0.158 0.0
H5821 H 0.53212 0.31209 0.16772 0.0
H5822 H 0.5125 0.31492 0.16211 0.0
C5823 C 0.4493 0.30671 0.1613 0.0
C5824 C 0.47709 0.30277 0.14632 0.0
H5825 H 0.50017 0.28559 0.14807 0.0
C5826 C 0.48272 0.31309 0.14466 0.0
C5827 C 0.48346 0.29269 0.14727 0.0
C5828 C 0.47793 0.28139 0.14948 0.0
C5829 C 0.49458 0.31364 0.1443 0.0
C5830 C 0.50093 0.30362 0.14581 0.0
C5831 C 0.49528 0.29325 0.14687 0.0
C5832 C 0.51332 0.30371 0.14767 0.0
C5833 C 0.50019 0.32494 0.14252 0.0
C5834 C 0.52037 0.29655 0.14136 0.0
C5835 C 0.53158 0.2948 0.14464 0.0
C5836 C 0.53591 0.30015 0.15433 0.0
C5837 C 0.52904 0.30785 0.16022 0.0
C5838 C 0.51783 0.30956 0.15695 0.0
H5839 H 0.49465 0.33073 0.13763 0.0
H5840 H 0.50181 0.32892 0.15085 0.0
H5841 H 0.50837 0.32403 0.13802 0.0
H5842 H 0.51703 0.29189 0.13422 0.0
H5843 H 0.53667 0.28884 0.13992 0.0
H5844 H 0.69015 0.44633 0.14587 0.0
H5845 H 0.68518 0.46611 0.14253 0.0
H5846 H 0.6552 0.46211 0.16286 0.0
H5847 H 0.66026 0.4424 0.1665 0.0
H5848 H 0.66624 0.47881 0.13458 0.0
H5849 H 0.6744 0.48494 0.1805 0.0
H5850 H 0.678 0.47204 0.17324 0.0
H5851 H 0.66357 0.47486 0.1771 0.0
C5852 C 0.68237 0.44959 0.14943 0.0
C5853 C 0.67571 0.44289 0.15663 0.0
C5854 C 0.67952 0.46088 0.14748 0.0
C5855 C 0.66996 0.46561 0.15265 0.0
C5856 C 0.66274 0.45866 0.15898 0.0
H5857 H 0.6605 0.5369 0.16756 0.0
H5858 H 0.65539 0.51725 0.16374 0.0
C5859 C 0.66564 0.4474 0.16103 0.0
C5860 C 0.66841 0.47803 0.15262 0.0
H5861 H 0.66996 0.501 0.16995 0.0
C5862 C 0.66691 0.48369 0.14231 0.0
C5863 C 0.66936 0.48435 0.16273 0.0
C5864 C 0.67151 0.47878 0.17402 0.0
C5865 C 0.66649 0.49555 0.14183 0.0
C5866 C 0.66776 0.50185 0.15191 0.0
C5867 C 0.66888 0.49615 0.16224 0.0
C5868 C 0.66913 0.5143 0.15202 0.0
C5869 C 0.66479 0.50122 0.13056 0.0
C5870 C 0.67832 0.51928 0.14642 0.0
C5871 C 0.68123 0.53053 0.14856 0.0
C5872 C 0.67509 0.53693 0.15646 0.0
C5873 C 0.66543 0.53216 0.16148 0.0
C5874 C 0.66249 0.52094 0.15928 0.0
H5875 H 0.66019 0.49562 0.12459 0.0
H5876 H 0.66002 0.50926 0.13146 0.0
H5877 H 0.67316 0.50316 0.1268 0.0
H5878 H 0.68372 0.51428 0.14098 0.0
H5879 H 0.68872 0.53395 0.14456 0.0
H5880 H 0.53293 0.69223 0.14406 0.0
H5881 H 0.51314 0.68737 0.1406 0.0
H5882 H 0.51706 0.65701 0.16035 0.0
H5883 H 0.53678 0.66196 0.16412 0.0
H5884 H 0.50033 0.66868 0.1323 0.0
H5885 H 0.49433 0.67594 0.17838 0.0
H5886 H 0.50724 0.67961 0.17118 0.0
H5887 H 0.50436 0.66514 0.17477 0.0
C5888 C 0.52966 0.68439 0.14746 0.0
C5889 C 0.53633 0.67759 0.15456 0.0
C5890 C 0.51835 0.68161 0.14545 0.0
C5891 C 0.5136 0.67196 0.15043 0.0
C5892 C 0.52053 0.66461 0.15662 0.0
H5893 H 0.44245 0.66191 0.16536 0.0
H5894 H 0.46212 0.65708 0.16131 0.0
C5895 C 0.5318 0.66745 0.15875 0.0
C5896 C 0.50117 0.67047 0.15039 0.0
H5897 H 0.47824 0.67168 0.16779 0.0
C5898 C 0.49547 0.6692 0.14005 0.0
C5899 C 0.49488 0.67122 0.16052 0.0
C5900 C 0.50047 0.67315 0.17184 0.0
C5901 C 0.4836 0.66879 0.13959 0.0
C5902 C 0.47733 0.66984 0.14971 0.0
C5903 C 0.48306 0.67077 0.16005 0.0
C5904 C 0.46486 0.6711 0.1499 0.0
C5905 C 0.47789 0.66732 0.1283 0.0
C5906 C 0.45976 0.68036 0.14453 0.0
C5907 C 0.44849 0.68312 0.14679 0.0
C5908 C 0.44221 0.67675 0.1546 0.0
C5909 C 0.4471 0.66703 0.15937 0.0
C5910 C 0.45833 0.66424 0.15704 0.0
H5911 H 0.48351 0.66292 0.12219 0.0
H5912 H 0.4699 0.66247 0.12912 0.0
H5913 H 0.47587 0.67577 0.12476 0.0
H5914 H 0.46468 0.68593 0.13919 0.0
H5915 H 0.44497 0.69067 0.143 0.0
H5916 H 0.28918 0.4412 0.14034 0.0
H5917 H 0.29225 0.46088 0.13481 0.0
H5918 H 0.31521 0.46521 0.16278 0.0
H5919 H 0.31235 0.44556 0.16825 0.0
H5920 H 0.28597 0.47772 0.14883 0.0
H5921 H 0.33115 0.48308 0.13835 0.0
H5922 H 0.32437 0.4694 0.13864 0.0
H5923 H 0.32928 0.47584 0.15152 0.0
C5924 C 0.29513 0.44625 0.14512 0.0
C5925 C 0.30045 0.44186 0.1548 0.0
C5926 C 0.29688 0.45749 0.14194 0.0
C5927 C 0.30404 0.4645 0.14831 0.0
C5928 C 0.30986 0.45992 0.15757 0.0
H5929 H 0.31133 0.53158 0.16951 0.0
H5930 H 0.31383 0.51187 0.16398 0.0
C5931 C 0.30813 0.44869 0.16076 0.0
C5932 C 0.304 0.47689 0.14651 0.0
H5933 H 0.32129 0.49993 0.14465 0.0
C5934 C 0.29365 0.48258 0.14762 0.0
C5935 C 0.31404 0.4832 0.14501 0.0
C5936 C 0.32532 0.47754 0.1432 0.0
C5937 C 0.29314 0.49441 0.14803 0.0
C5938 C 0.30326 0.50073 0.14706 0.0
C5939 C 0.31355 0.49506 0.14539 0.0
C5940 C 0.30336 0.51309 0.14903 0.0
C5941 C 0.28187 0.49998 0.15026 0.0
C5942 C 0.29705 0.52043 0.14219 0.0
C5943 C 0.29551 0.5317 0.14539 0.0
C5944 C 0.30036 0.53582 0.15543 0.0
C5945 C 0.30742 0.52866 0.16177 0.0
C5946 C 0.30889 0.51739 0.1586 0.0
H5947 H 0.27532 0.4938 0.15293 0.0
H5948 H 0.28267 0.50654 0.15693 0.0
H5949 H 0.27887 0.50415 0.14242 0.0
H5950 H 0.2929 0.51731 0.13465 0.0
H5951 H 0.29012 0.53704 0.14027 0.0
H5952 H 0.83885 0.53613 0.6908 0.0
H5953 H 0.84431 0.51636 0.68809 0.0
H5954 H 0.81694 0.51204 0.66439 0.0
H5955 H 0.81157 0.53177 0.66689 0.0
H5956 H 0.83006 0.49964 0.69408 0.0
H5957 H 0.84167 0.49392 0.64925 0.0
H5958 H 0.84126 0.50766 0.65593 0.0
H5959 H 0.82848 0.50124 0.65071 0.0
C5960 C 0.83419 0.53105 0.68477 0.0
C5961 C 0.82472 0.53548 0.67913 0.0
C5962 C 0.83733 0.51976 0.68323 0.0
C5963 C 0.83111 0.51274 0.67596 0.0
C5964 C 0.82204 0.51734 0.66984 0.0
H5965 H 0.80947 0.44588 0.66849 0.0
H5966 H 0.81523 0.46554 0.66611 0.0
C5967 C 0.81891 0.52861 0.67136 0.0
C5968 C 0.83283 0.50034 0.67612 0.0
H5969 H 0.83494 0.47718 0.65902 0.0
C5970 C 0.83142 0.49472 0.68646 0.0
C5971 C 0.83454 0.49396 0.66616 0.0
C5972 C 0.83669 0.49952 0.65491 0.0
C5973 C 0.8309 0.4829 0.68702 0.0
C5974 C 0.83207 0.47652 0.67698 0.0
C5975 C 0.83405 0.4821 0.6667 0.0
C5976 C 0.82996 0.46418 0.67688 0.0
C5977 C 0.82836 0.47741 0.69825 0.0
C5978 C 0.8366 0.45678 0.68333 0.0
C5979 C 0.83327 0.44554 0.6848 0.0
C5980 C 0.8233 0.44151 0.67973 0.0
C5981 C 0.81715 0.44874 0.67257 0.0
C5982 C 0.82045 0.45997 0.67117 0.0
H5983 H 0.82563 0.48365 0.70472 0.0
H5984 H 0.82163 0.47094 0.69734 0.0
H5985 H 0.83608 0.47314 0.70143 0.0
H5986 H 0.84409 0.45983 0.68764 0.0
H5987 H 0.83824 0.44015 0.69027 0.0
H5988 H 0.53354 0.83326 0.69179 0.0
H5989 H 0.51377 0.83693 0.68701 0.0
H5990 H 0.51735 0.81715 0.65662 0.0
H5991 H 0.53706 0.81318 0.66147 0.0
H5992 H 0.50107 0.84544 0.66831 0.0
H5993 H 0.4944 0.79944 0.6756 0.0
H5994 H 0.50741 0.80647 0.67927 0.0
H5995 H 0.50449 0.80288 0.66481 0.0
C5996 C 0.5302 0.82989 0.68396 0.0
C5997 C 0.53678 0.82274 0.67712 0.0
C5998 C 0.5189 0.83202 0.68123 0.0
C5999 C 0.51406 0.82711 0.67159 0.0
C6000 C 0.5209 0.82084 0.66421 0.0
H6001 H 0.44291 0.81312 0.6608 0.0
H6002 H 0.46269 0.81696 0.6563 0.0
C6003 C 0.53215 0.81859 0.66699 0.0
C6004 C 0.50164 0.82733 0.67011 0.0
H6005 H 0.47847 0.81024 0.67121 0.0
C6006 C 0.4961 0.83775 0.66882 0.0
C6007 C 0.4952 0.81728 0.67085 0.0
C6008 C 0.50063 0.80589 0.6728 0.0
C6009 C 0.48424 0.83837 0.66834 0.0
C6010 C 0.47782 0.82833 0.66934 0.0
C6011 C 0.4834 0.81792 0.67033 0.0
C6012 C 0.46534 0.8283 0.67041 0.0
C6013 C 0.47869 0.84974 0.66683 0.0
C6014 C 0.46015 0.83372 0.6796 0.0
C6015 C 0.44881 0.83157 0.68216 0.0
C6016 C 0.44255 0.82385 0.67566 0.0
C6017 C 0.44754 0.81905 0.66601 0.0
C6018 C 0.45884 0.82126 0.66341 0.0
H6019 H 0.48444 0.8558 0.66255 0.0
H6020 H 0.47076 0.84903 0.66186 0.0
H6021 H 0.47657 0.85327 0.67526 0.0
H6022 H 0.46505 0.83899 0.68526 0.0
H6023 H 0.4452 0.83538 0.68966 0.0
H6024 H 0.14506 0.53348 0.6913 0.0
H6025 H 0.14171 0.51366 0.68651 0.0
H6026 H 0.16223 0.51731 0.65663 0.0
H6027 H 0.1659 0.53707 0.66152 0.0
H6028 H 0.13379 0.50078 0.66781 0.0
H6029 H 0.17972 0.49462 0.67604 0.0
H6030 H 0.1725 0.50759 0.67946 0.0
H6031 H 0.17642 0.50459 0.6651 0.0
C6032 C 0.14867 0.53014 0.68358 0.0
C6033 C 0.15593 0.53675 0.6769 0.0
C6034 C 0.14671 0.51882 0.68084 0.0
C6035 C 0.15192 0.51398 0.67136 0.0
C6036 C 0.15832 0.52084 0.66412 0.0
H6037 H 0.16665 0.44292 0.661 0.0
H6038 H 0.16272 0.46266 0.65644 0.0
C6039 C 0.16039 0.53213 0.66691 0.0
C6040 C 0.15186 0.50155 0.66994 0.0
H6041 H 0.16916 0.47856 0.6715 0.0
C6042 C 0.14152 0.4959 0.66849 0.0
C6043 C 0.16197 0.49522 0.67091 0.0
C6044 C 0.17327 0.50077 0.67306 0.0
C6045 C 0.14103 0.48403 0.66809 0.0
C6046 C 0.15111 0.47773 0.66931 0.0
C6047 C 0.16145 0.48342 0.67045 0.0
C6048 C 0.15124 0.46526 0.67043 0.0
C6049 C 0.12974 0.47835 0.66643 0.0
C6050 C 0.14579 0.46007 0.67959 0.0
C6051 C 0.14799 0.44875 0.6822 0.0
C6052 C 0.1558 0.44252 0.67577 0.0
C6053 C 0.16065 0.44753 0.66616 0.0
C6054 C 0.15839 0.4588 0.66352 0.0
H6055 H 0.12366 0.48403 0.66208 0.0
H6056 H 0.13061 0.47044 0.66145 0.0
H6057 H 0.12613 0.47618 0.67481 0.0
H6058 H 0.14044 0.46494 0.68519 0.0
H6059 H 0.14414 0.44513 0.68967 0.0
H6060 H 0.44508 0.14496 0.69174 0.0
H6061 H 0.46492 0.14144 0.68713 0.0
H6062 H 0.46135 0.16096 0.65658 0.0
H6063 H 0.44157 0.16476 0.66127 0.0
H6064 H 0.47785 0.13295 0.66851 0.0
H6065 H 0.48395 0.17904 0.67571 0.0
H6066 H 0.47101 0.17187 0.67933 0.0
H6067 H 0.47396 0.17545 0.66488 0.0
C6068 C 0.44844 0.1483 0.68392 0.0
C6069 C 0.44184 0.15533 0.67698 0.0
C6070 C 0.45977 0.14625 0.68128 0.0
C6071 C 0.46463 0.15114 0.67164 0.0
C6072 C 0.45778 0.15729 0.66417 0.0
H6073 H 0.53573 0.16573 0.66109 0.0
H6074 H 0.51596 0.16176 0.65662 0.0
C6075 C 0.44649 0.15944 0.66685 0.0
C6076 C 0.47706 0.15105 0.67025 0.0
H6077 H 0.50004 0.1684 0.67146 0.0
C6078 C 0.48273 0.14069 0.66903 0.0
C6079 C 0.48338 0.16118 0.67102 0.0
C6080 C 0.47781 0.17252 0.6729 0.0
C6081 C 0.4946 0.1402 0.66863 0.0
C6082 C 0.5009 0.15032 0.66964 0.0
C6083 C 0.49519 0.16067 0.67057 0.0
C6084 C 0.51337 0.15049 0.67077 0.0
C6085 C 0.50028 0.12889 0.66719 0.0
C6086 C 0.51858 0.14516 0.68 0.0
C6087 C 0.5299 0.14738 0.68256 0.0
C6088 C 0.53614 0.15508 0.67601 0.0
C6089 C 0.53112 0.15981 0.66634 0.0
C6090 C 0.51983 0.15753 0.66375 0.0
H6091 H 0.49462 0.12274 0.66291 0.0
H6092 H 0.50822 0.12967 0.66223 0.0
H6093 H 0.50242 0.12543 0.67563 0.0
H6094 H 0.51371 0.13989 0.68567 0.0
H6095 H 0.53353 0.14362 0.69007 0.0
H6096 H 0.83546 0.44419 0.28525 0.0
H6097 H 0.83901 0.46416 0.2891 0.0
H6098 H 0.81717 0.4625 0.31823 0.0
H6099 H 0.81339 0.44259 0.3143 0.0
H6100 H 0.81043 0.47802 0.30282 0.0
H6101 H 0.85607 0.48385 0.31157 0.0
H6102 H 0.85335 0.47573 0.29905 0.0
H6103 H 0.84916 0.47026 0.3126 0.0
C6104 C 0.83167 0.44799 0.29267 0.0
C6105 C 0.82404 0.44186 0.2994 0.0
C6106 C 0.83378 0.4594 0.29491 0.0
C6107 C 0.82841 0.46481 0.304 0.0
C6108 C 0.82143 0.45848 0.31119 0.0
H6109 H 0.8136 0.53608 0.31477 0.0
H6110 H 0.81754 0.51615 0.31856 0.0
C6111 C 0.81926 0.4471 0.30892 0.0
C6112 C 0.82851 0.47731 0.30484 0.0
H6113 H 0.84569 0.50049 0.3062 0.0
C6114 C 0.81812 0.48293 0.30376 0.0
C6115 C 0.83857 0.48368 0.30591 0.0
C6116 C 0.84991 0.47807 0.30745 0.0
C6117 C 0.81753 0.49473 0.30335 0.0
C6118 C 0.82759 0.50113 0.3043 0.0
C6119 C 0.83799 0.49555 0.30555 0.0
C6120 C 0.82736 0.5136 0.30336 0.0
C6121 C 0.80616 0.50023 0.30141 0.0
C6122 C 0.83218 0.5189 0.29392 0.0
C6123 C 0.83006 0.53033 0.29179 0.0
C6124 C 0.82301 0.53657 0.29904 0.0
C6125 C 0.81894 0.53144 0.30895 0.0
C6126 C 0.82116 0.52007 0.31112 0.0
H6127 H 0.79976 0.49408 0.29834 0.0
H6128 H 0.80305 0.50384 0.30949 0.0
H6129 H 0.80683 0.5072 0.29517 0.0
H6130 H 0.83702 0.51404 0.28785 0.0
H6131 H 0.83335 0.53406 0.28411 0.0
H6132 H 0.5301 0.81004 0.31088 0.0
H6133 H 0.51052 0.81602 0.31335 0.0
H6134 H 0.51659 0.84507 0.29222 0.0
H6135 H 0.5362 0.83899 0.28946 0.0
H6136 H 0.49896 0.83557 0.32066 0.0
H6137 H 0.49276 0.82716 0.27473 0.0
H6138 H 0.50543 0.823 0.28209 0.0
H6139 H 0.50325 0.83754 0.27831 0.0
C6140 C 0.52735 0.81781 0.30691 0.0
C6141 C 0.53463 0.82393 0.2998 0.0
C6142 C 0.51616 0.82124 0.30837 0.0
C6143 C 0.51206 0.83086 0.30279 0.0
C6144 C 0.51955 0.8375 0.29642 0.0
H6145 H 0.4401 0.83865 0.28849 0.0
H6146 H 0.45962 0.84476 0.29157 0.0
C6147 C 0.53075 0.83403 0.29488 0.0
C6148 C 0.49974 0.83305 0.30265 0.0
H6149 H 0.47671 0.83114 0.28542 0.0
C6150 C 0.49408 0.8348 0.31293 0.0
C6151 C 0.4934 0.83204 0.29255 0.0
C6152 C 0.49896 0.82975 0.28129 0.0
C6153 C 0.48222 0.83515 0.31344 0.0
C6154 C 0.4759 0.83353 0.30343 0.0
C6155 C 0.48158 0.83242 0.29308 0.0
C6156 C 0.46354 0.83149 0.30352 0.0
C6157 C 0.47658 0.837 0.32471 0.0
C6158 C 0.45918 0.82217 0.30943 0.0
C6159 C 0.44805 0.81867 0.30769 0.0
C6160 C 0.4411 0.82434 0.2999 0.0
C6161 C 0.44525 0.83408 0.29451 0.0
C6162 C 0.4564 0.8376 0.29628 0.0
H6163 H 0.48206 0.84204 0.33044 0.0
H6164 H 0.46834 0.84139 0.32375 0.0
H6165 H 0.47506 0.82869 0.32879 0.0
H6166 H 0.46459 0.81716 0.31484 0.0
H6167 H 0.4451 0.81113 0.31197 0.0
H6168 H 0.16592 0.44325 0.31571 0.0
H6169 H 0.16177 0.46303 0.31993 0.0
H6170 H 0.13973 0.46464 0.29094 0.0
H6171 H 0.14364 0.4448 0.28681 0.0
H6172 H 0.16815 0.47885 0.30488 0.0
H6173 H 0.12243 0.48379 0.31355 0.0
H6174 H 0.12953 0.47029 0.31434 0.0
H6175 H 0.1252 0.4759 0.30089 0.0
C6176 C 0.15993 0.44772 0.31042 0.0
C6177 C 0.1552 0.44251 0.30086 0.0
C6178 C 0.15755 0.45902 0.31287 0.0
C6179 C 0.15039 0.46531 0.3058 0.0
C6180 C 0.14508 0.45991 0.29666 0.0
H6181 H 0.14437 0.53386 0.2851 0.0
H6182 H 0.14092 0.51393 0.28943 0.0
C6183 C 0.1474 0.44858 0.29425 0.0
C6184 C 0.15007 0.47779 0.30679 0.0
H6185 H 0.13246 0.50064 0.308 0.0
C6186 C 0.16036 0.4836 0.30579 0.0
C6187 C 0.13989 0.48397 0.30782 0.0
C6188 C 0.12865 0.47816 0.30932 0.0
C6189 C 0.16073 0.49542 0.30536 0.0
C6190 C 0.15054 0.50162 0.30619 0.0
C6191 C 0.14025 0.49585 0.30743 0.0
C6192 C 0.15052 0.51407 0.30498 0.0
C6193 C 0.17201 0.50111 0.30346 0.0
C6194 C 0.15658 0.52084 0.31259 0.0
C6195 C 0.15869 0.53218 0.31008 0.0
C6196 C 0.15463 0.53694 0.29999 0.0
C6197 C 0.14767 0.53041 0.29291 0.0
C6198 C 0.14566 0.51903 0.29538 0.0
H6199 H 0.17858 0.49506 0.30056 0.0
H6200 H 0.17126 0.50796 0.29709 0.0
H6201 H 0.17495 0.50493 0.3115 0.0
H6202 H 0.16023 0.5172 0.32015 0.0
H6203 H 0.16396 0.53705 0.31577 0.0
H6204 H 0.53413 0.14485 0.28572 0.0
H6205 H 0.51427 0.14132 0.2903 0.0
H6206 H 0.51772 0.16104 0.32075 0.0
H6207 H 0.53751 0.16484 0.31611 0.0
H6208 H 0.50132 0.13295 0.30917 0.0
H6209 H 0.49515 0.17891 0.30122 0.0
H6210 H 0.50808 0.17168 0.29766 0.0
H6211 H 0.50519 0.1755 0.31207 0.0
C6212 C 0.53074 0.14823 0.29352 0.0
C6213 C 0.5373 0.15531 0.30045 0.0
C6214 C 0.5194 0.14618 0.29614 0.0
C6215 C 0.5145 0.15111 0.30574 0.0
C6216 C 0.52131 0.15732 0.31319 0.0
H6217 H 0.44347 0.16588 0.31632 0.0
H6218 H 0.46328 0.16204 0.32074 0.0
C6219 C 0.53261 0.15948 0.31053 0.0
C6220 C 0.50207 0.15102 0.3071 0.0
H6221 H 0.47908 0.16833 0.30571 0.0
C6222 C 0.49643 0.14068 0.30853 0.0
C6223 C 0.49574 0.16112 0.30619 0.0
C6224 C 0.5013 0.17243 0.30411 0.0
C6225 C 0.48456 0.14019 0.30901 0.0
C6226 C 0.47825 0.15028 0.30786 0.0
C6227 C 0.48394 0.16062 0.30671 0.0
C6228 C 0.46576 0.15042 0.30683 0.0
C6229 C 0.4789 0.1289 0.31071 0.0
C6230 C 0.46048 0.14488 0.29777 0.0
C6231 C 0.44914 0.14702 0.29526 0.0
C6232 C 0.44295 0.15487 0.30167 0.0
C6233 C 0.44804 0.15985 0.31118 0.0
C6234 C 0.45935 0.15764 0.31373 0.0
H6235 H 0.48459 0.12285 0.31508 0.0
H6236 H 0.47098 0.12977 0.31567 0.0
H6237 H 0.47673 0.12526 0.30234 0.0
H6238 H 0.46531 0.13948 0.29218 0.0
H6239 H 0.44545 0.14307 0.28787 0.0
H6240 H 0.66242 0.81073 0.4412 0.0
H6241 H 0.65764 0.81435 0.46096 0.0
H6242 H 0.68568 0.83751 0.46355 0.0
H6243 H 0.69036 0.83413 0.44376 0.0
H6244 H 0.67263 0.8083 0.47696 0.0
H6245 H 0.66211 0.85352 0.48258 0.0
H6246 H 0.66184 0.84665 0.46894 0.0
H6247 H 0.675 0.85145 0.47487 0.0
C6248 C 0.66736 0.81685 0.44588 0.0
C6249 C 0.67684 0.82205 0.44096 0.0
C6250 C 0.66461 0.81893 0.45717 0.0
C6251 C 0.67126 0.82625 0.46372 0.0
C6252 C 0.68028 0.83202 0.45861 0.0
H6253 H 0.69133 0.83244 0.53235 0.0
H6254 H 0.68691 0.83573 0.51243 0.0
C6255 C 0.683 0.83 0.4473 0.0
C6256 C 0.67006 0.8263 0.47619 0.0
H6257 H 0.66808 0.84348 0.49931 0.0
C6258 C 0.6714 0.81597 0.48184 0.0
C6259 C 0.6686 0.83633 0.48253 0.0
C6260 C 0.6667 0.8476 0.47691 0.0
C6261 C 0.6718 0.81542 0.49364 0.0
C6262 C 0.67059 0.82547 0.50001 0.0
C6263 C 0.66896 0.83579 0.49439 0.0
C6264 C 0.67184 0.82537 0.51245 0.0
C6265 C 0.67412 0.80414 0.49916 0.0
C6266 C 0.66453 0.8189 0.51917 0.0
C6267 C 0.6671 0.81688 0.53051 0.0
C6268 C 0.67695 0.82146 0.53534 0.0
C6269 C 0.68371 0.82876 0.52885 0.0
C6270 C 0.68119 0.83067 0.51747 0.0
H6271 H 0.67727 0.79778 0.49301 0.0
H6272 H 0.68046 0.80502 0.50603 0.0
H6273 H 0.66619 0.80084 0.50291 0.0
H6274 H 0.65715 0.81491 0.51549 0.0
H6275 H 0.66166 0.81134 0.53534 0.0
H6276 H 0.6902 0.13966 0.44133 0.0
H6277 H 0.68721 0.13379 0.46092 0.0
H6278 H 0.66391 0.16144 0.46565 0.0
H6279 H 0.66668 0.16721 0.44609 0.0
H6280 H 0.69337 0.14754 0.47788 0.0
H6281 H 0.6483 0.13674 0.4833 0.0
H6282 H 0.65499 0.13729 0.46959 0.0
H6283 H 0.64998 0.15003 0.47624 0.0
C6284 C 0.68419 0.14429 0.44645 0.0
C6285 C 0.67876 0.15396 0.4422 0.0
C6286 C 0.68248 0.14091 0.45764 0.0
C6287 C 0.67525 0.1471 0.46473 0.0
C6288 C 0.66931 0.15636 0.46028 0.0
H6289 H 0.66812 0.16862 0.5314 0.0
H6290 H 0.66558 0.16277 0.5118 0.0
C6291 C 0.671 0.15972 0.4491 0.0
C6292 C 0.67534 0.14517 0.47709 0.0
H6293 H 0.65813 0.14322 0.50016 0.0
C6294 C 0.68571 0.14629 0.48276 0.0
C6295 C 0.66533 0.14359 0.48342 0.0
C6296 C 0.65404 0.14173 0.4778 0.0
C6297 C 0.68625 0.14669 0.49457 0.0
C6298 C 0.67615 0.14571 0.50091 0.0
C6299 C 0.66585 0.14397 0.49527 0.0
C6300 C 0.67605 0.14784 0.51323 0.0
C6301 C 0.69753 0.14896 0.50012 0.0
C6302 C 0.68238 0.14111 0.52067 0.0
C6303 C 0.68395 0.1445 0.53188 0.0
C6304 C 0.67911 0.15461 0.53583 0.0
C6305 C 0.67204 0.16083 0.5286 0.0
C6306 C 0.67054 0.15748 0.51739 0.0
H6307 H 0.70408 0.15155 0.49392 0.0
H6308 H 0.69674 0.15571 0.50659 0.0
H6309 H 0.70051 0.14117 0.50439 0.0
H6310 H 0.68653 0.13352 0.51766 0.0
H6311 H 0.68934 0.13946 0.53729 0.0
H6312 H 0.81248 0.66155 0.53583 0.0
H6313 H 0.8166 0.65704 0.51612 0.0
H6314 H 0.83858 0.68605 0.51404 0.0
H6315 H 0.83469 0.69049 0.53381 0.0
H6316 H 0.81015 0.67196 0.50014 0.0
H6317 H 0.85582 0.66313 0.49515 0.0
H6318 H 0.84876 0.66246 0.50867 0.0
H6319 H 0.8531 0.67586 0.50293 0.0
C6320 C 0.81845 0.66679 0.53128 0.0
C6321 C 0.82317 0.67645 0.53633 0.0
C6322 C 0.82082 0.66418 0.52002 0.0
C6323 C 0.82794 0.67117 0.51362 0.0
C6324 C 0.83325 0.6804 0.51886 0.0
H6325 H 0.83423 0.69167 0.44527 0.0
H6326 H 0.83761 0.68713 0.46513 0.0
C6327 C 0.83094 0.68298 0.53016 0.0
C6328 C 0.82822 0.67002 0.50116 0.0
H6329 H 0.84577 0.66861 0.47829 0.0
C6330 C 0.81792 0.67099 0.49537 0.0
C6331 C 0.83837 0.6689 0.49496 0.0
C6332 C 0.84963 0.66742 0.50075 0.0
C6333 C 0.81751 0.67137 0.48356 0.0
C6334 C 0.82768 0.67048 0.47733 0.0
C6335 C 0.83798 0.66922 0.48309 0.0
C6336 C 0.8277 0.67177 0.4649 0.0
C6337 C 0.80622 0.67332 0.4779 0.0
C6338 C 0.82148 0.66432 0.45807 0.0
C6339 C 0.8194 0.66697 0.44677 0.0
C6340 C 0.82366 0.67702 0.44208 0.0
C6341 C 0.83078 0.6839 0.44866 0.0
C6342 C 0.83275 0.68131 0.46001 0.0
H6343 H 0.79968 0.67627 0.48396 0.0
H6344 H 0.80698 0.67968 0.47104 0.0
H6345 H 0.80322 0.66528 0.47411 0.0
H6346 H 0.8177 0.6568 0.46166 0.0
H6347 H 0.81401 0.66143 0.44186 0.0
H6348 H 0.31063 0.80937 0.44682 0.0
H6349 H 0.31311 0.81498 0.46651 0.0
H6350 H 0.29205 0.84421 0.46097 0.0
H6351 H 0.28931 0.83852 0.44126 0.0
H6352 H 0.32037 0.83449 0.4785 0.0
H6353 H 0.27447 0.82564 0.48432 0.0
H6354 H 0.28195 0.8217 0.47165 0.0
H6355 H 0.27798 0.83617 0.47398 0.0
C6356 C 0.3067 0.81711 0.44971 0.0
C6357 C 0.29961 0.82339 0.44254 0.0
C6358 C 0.30815 0.82032 0.46097 0.0
C6359 C 0.30258 0.82988 0.46524 0.0
C6360 C 0.29625 0.83668 0.45787 0.0
H6361 H 0.28775 0.83796 0.53703 0.0
H6362 H 0.29082 0.84368 0.51741 0.0
C6363 C 0.29473 0.83344 0.44661 0.0
C6364 C 0.30238 0.83184 0.47759 0.0
H6365 H 0.28498 0.82979 0.50047 0.0
C6366 C 0.31262 0.83364 0.48332 0.0
C6367 C 0.29224 0.83072 0.48384 0.0
C6368 C 0.28103 0.82837 0.47819 0.0
C6369 C 0.31303 0.834 0.49518 0.0
C6370 C 0.30297 0.83234 0.50142 0.0
C6371 C 0.29268 0.83111 0.49566 0.0
C6372 C 0.30296 0.83048 0.5138 0.0
C6373 C 0.32425 0.83597 0.5009 0.0
C6374 C 0.30897 0.82133 0.51837 0.0
C6375 C 0.30725 0.81806 0.52957 0.0
C6376 C 0.29938 0.82379 0.53638 0.0
C6377 C 0.29385 0.83335 0.53199 0.0
C6378 C 0.2956 0.83665 0.52079 0.0
H6379 H 0.33001 0.84099 0.49544 0.0
H6380 H 0.32319 0.84042 0.50909 0.0
H6381 H 0.32837 0.8277 0.50252 0.0
H6382 H 0.31448 0.81628 0.5131 0.0
H6383 H 0.31163 0.81065 0.53269 0.0
H6384 H 0.13998 0.29011 0.44188 0.0
H6385 H 0.13456 0.2932 0.46158 0.0
H6386 H 0.1633 0.31518 0.46608 0.0
H6387 H 0.16867 0.31229 0.44639 0.0
H6388 H 0.14852 0.28628 0.47827 0.0
H6389 H 0.13931 0.33168 0.48416 0.0
H6390 H 0.13934 0.32503 0.47042 0.0
H6391 H 0.1524 0.32945 0.47686 0.0
C6392 C 0.14497 0.29585 0.44698 0.0
C6393 C 0.15481 0.30087 0.44262 0.0
C6394 C 0.14184 0.29762 0.45822 0.0
C6395 C 0.14846 0.30449 0.46527 0.0
C6396 C 0.15791 0.31005 0.46074 0.0
H6397 H 0.1696 0.31058 0.53244 0.0
H6398 H 0.16415 0.31344 0.51277 0.0
C6399 C 0.16103 0.3083 0.4495 0.0
C6400 C 0.14667 0.30437 0.47766 0.0
H6401 H 0.14515 0.32141 0.50089 0.0
C6402 C 0.1475 0.29393 0.48322 0.0
C6403 C 0.14541 0.31437 0.48408 0.0
C6404 C 0.14395 0.32575 0.47856 0.0
C6405 C 0.14784 0.29326 0.49502 0.0
C6406 C 0.14708 0.30331 0.50147 0.0
C6407 C 0.14571 0.31372 0.49593 0.0
C6408 C 0.14902 0.30322 0.51382 0.0
C6409 C 0.14978 0.28187 0.50045 0.0
C6410 C 0.14204 0.29693 0.52106 0.0
C6411 C 0.1452 0.29517 0.53231 0.0
C6412 C 0.15533 0.29979 0.5365 0.0
C6413 C 0.1618 0.30683 0.52945 0.0
C6414 C 0.15868 0.30851 0.51821 0.0
H6415 H 0.15235 0.27535 0.4942 0.0
H6416 H 0.15642 0.28242 0.50706 0.0
H6417 H 0.14184 0.27899 0.50453 0.0
H6418 H 0.13443 0.29296 0.51788 0.0
H6419 H 0.13998 0.2898 0.53757 0.0
H6420 H 0.31708 0.16454 0.53555 0.0
H6421 H 0.32149 0.16083 0.5157 0.0
H6422 H 0.29093 0.14123 0.51249 0.0
H6423 H 0.2866 0.14464 0.53241 0.0
H6424 H 0.30934 0.13293 0.49914 0.0
H6425 H 0.30192 0.17905 0.49363 0.0
H6426 H 0.31294 0.17543 0.5034 0.0
H6427 H 0.29854 0.17174 0.50655 0.0
C6428 C 0.31144 0.15921 0.53069 0.0
C6429 C 0.30139 0.15504 0.53546 0.0
C6430 C 0.31397 0.15711 0.51936 0.0
C6431 C 0.3064 0.15098 0.51259 0.0
C6432 C 0.29685 0.14602 0.51757 0.0
H6433 H 0.28742 0.14428 0.44368 0.0
H6434 H 0.29188 0.14028 0.46342 0.0
C6435 C 0.29437 0.14801 0.52894 0.0
C6436 C 0.30758 0.15101 0.50015 0.0
H6437 H 0.30613 0.16861 0.4774 0.0
C6438 C 0.30876 0.14072 0.49436 0.0
C6439 C 0.30672 0.1612 0.49395 0.0
C6440 C 0.30486 0.17248 0.49966 0.0
C6441 C 0.30905 0.14036 0.48248 0.0
C6442 C 0.30798 0.15054 0.47632 0.0
C6443 C 0.30707 0.16083 0.48214 0.0
C6444 C 0.30682 0.15086 0.46386 0.0
C6445 C 0.31045 0.12912 0.47666 0.0
C6446 C 0.31382 0.15799 0.45747 0.0
C6447 C 0.31119 0.16042 0.44624 0.0
C6448 C 0.3015 0.15577 0.44118 0.0
C6449 C 0.29496 0.14798 0.44733 0.0
C6450 C 0.29756 0.14561 0.45861 0.0
H6451 H 0.31473 0.12289 0.48223 0.0
H6452 H 0.30199 0.1257 0.4745 0.0
H6453 H 0.31539 0.12999 0.46873 0.0
H6454 H 0.32098 0.16216 0.46138 0.0
H6455 H 0.31644 0.16639 0.4417 0.0
H6456 H 0.83866 0.28963 0.44058 0.0
H6457 H 0.84467 0.29218 0.46022 0.0
H6458 H 0.81569 0.31343 0.46636 0.0
H6459 H 0.80976 0.31114 0.44674 0.0
H6460 H 0.8355 0.32056 0.47793 0.0
H6461 H 0.82643 0.27472 0.48395 0.0
H6462 H 0.83679 0.27821 0.47342 0.0
H6463 H 0.82229 0.28221 0.47135 0.0
C6464 C 0.8337 0.29503 0.44606 0.0
C6465 C 0.82364 0.30004 0.44217 0.0
C6466 C 0.83713 0.29645 0.45728 0.0
C6467 C 0.83049 0.3028 0.46478 0.0
C6468 C 0.82091 0.30846 0.4607 0.0
H6469 H 0.81156 0.31226 0.532 0.0
H6470 H 0.81731 0.31493 0.51242 0.0
C6471 C 0.81751 0.30711 0.44949 0.0
C6472 C 0.83268 0.30259 0.47709 0.0
H6473 H 0.83066 0.28528 0.50003 0.0
C6474 C 0.83463 0.31282 0.48278 0.0
C6475 C 0.83155 0.29248 0.48338 0.0
C6476 C 0.82907 0.28128 0.47777 0.0
C6477 C 0.83509 0.31327 0.49463 0.0
C6478 C 0.83336 0.30325 0.50091 0.0
C6479 C 0.83203 0.29294 0.49519 0.0
C6480 C 0.83144 0.30333 0.51328 0.0
C6481 C 0.83719 0.32449 0.5003 0.0
C6482 C 0.83752 0.29598 0.52034 0.0
C6483 C 0.83416 0.29434 0.53155 0.0
C6484 C 0.82461 0.29996 0.53584 0.0
C6485 C 0.81896 0.30781 0.52895 0.0
C6486 C 0.82231 0.30943 0.51776 0.0
H6487 H 0.84228 0.33015 0.49481 0.0
H6488 H 0.82897 0.32871 0.50191 0.0
H6489 H 0.84164 0.32341 0.50849 0.0
H6490 H 0.84455 0.29113 0.51703 0.0
H6491 H 0.83871 0.28825 0.53665 0.0
H6492 H 0.13941 0.68896 0.53662 0.0
H6493 H 0.13327 0.6859 0.51711 0.0
H6494 H 0.16095 0.66271 0.51204 0.0
H6495 H 0.16699 0.66555 0.53151 0.0
H6496 H 0.14677 0.69217 0.50007 0.0
H6497 H 0.13621 0.64708 0.49451 0.0
H6498 H 0.13687 0.65369 0.50826 0.0
H6499 H 0.14957 0.64877 0.50145 0.0
C6500 C 0.14399 0.68295 0.53144 0.0
C6501 C 0.15375 0.67758 0.53556 0.0
C6502 C 0.14046 0.6812 0.52031 0.0
C6503 C 0.14658 0.674 0.51314 0.0
C6504 C 0.15592 0.6681 0.51747 0.0
H6505 H 0.16797 0.66723 0.44652 0.0
H6506 H 0.16207 0.66455 0.46608 0.0
C6507 C 0.15944 0.66982 0.52859 0.0
C6508 C 0.14453 0.67413 0.50079 0.0
H6509 H 0.14259 0.65699 0.47766 0.0
C6510 C 0.14554 0.68452 0.49517 0.0
C6511 C 0.14298 0.66413 0.49442 0.0
C6512 C 0.14123 0.65281 0.5 0.0
C6513 C 0.1459 0.68511 0.48336 0.0
C6514 C 0.14496 0.67503 0.47698 0.0
C6515 C 0.14331 0.6647 0.48257 0.0
C6516 C 0.14711 0.67498 0.46466 0.0
C6517 C 0.14808 0.69642 0.47786 0.0
C6518 C 0.14038 0.68134 0.45724 0.0
C6519 C 0.14381 0.68299 0.44606 0.0
C6520 C 0.15395 0.67821 0.44211 0.0
C6521 C 0.16017 0.6711 0.44932 0.0
C6522 C 0.15678 0.66952 0.4605 0.0
H6523 H 0.15063 0.70297 0.48409 0.0
H6524 H 0.15483 0.69571 0.47138 0.0
H6525 H 0.14026 0.69936 0.47362 0.0
H6526 H 0.13277 0.68544 0.46025 0.0
H6527 H 0.13878 0.68841 0.44066 0.0
H6528 H 0.15569 0.0877 0.31776 0.0
H6529 H 0.13819 0.09844 0.32073 0.0
H6530 H 0.14161 0.11318 0.2876 0.0
H6531 H 0.15901 0.10259 0.28458 0.0
H6532 H 0.13773 0.12234 0.32025 0.0
H6533 H 0.1079 0.10451 0.28899 0.0
H6534 H 0.12021 0.0969 0.29391 0.0
H6535 H 0.12153 0.10737 0.28296 0.0
C6536 C 0.15259 0.09307 0.31103 0.0
C6537 C 0.15876 0.09435 0.30096 0.0
C6538 C 0.14259 0.09918 0.31275 0.0
C6539 C 0.13854 0.10647 0.30432 0.0
C6540 C 0.14447 0.10742 0.29412 0.0
H6541 H 0.11068 0.16916 0.29556 0.0
H6542 H 0.121 0.15152 0.29824 0.0
C6543 C 0.15448 0.10144 0.29245 0.0
C6544 C 0.12895 0.11417 0.30654 0.0
H6545 H 0.1047 0.12406 0.29445 0.0
C6546 C 0.13033 0.12254 0.31483 0.0
C6547 C 0.11927 0.11436 0.29953 0.0
C6548 C 0.11706 0.10523 0.29092 0.0
C6549 C 0.12278 0.13163 0.31562 0.0
C6550 C 0.11369 0.13235 0.30793 0.0
C6551 C 0.11175 0.12351 0.30028 0.0
C6552 C 0.10723 0.14292 0.3066 0.0
C6553 C 0.12492 0.14079 0.32422 0.0
C6554 C 0.09603 0.14382 0.31037 0.0
C6555 C 0.09009 0.15396 0.30892 0.0
C6556 C 0.09524 0.16324 0.30354 0.0
C6557 C 0.10644 0.16218 0.29971 0.0
C6558 C 0.11237 0.15213 0.30126 0.0
H6559 H 0.13063 0.13786 0.33108 0.0
H6560 H 0.12895 0.14812 0.31998 0.0
H6561 H 0.11684 0.14373 0.328 0.0
H6562 H 0.09194 0.13673 0.31446 0.0
H6563 H 0.08146 0.1545 0.31194 0.0
H6564 H 0.87258 0.16408 0.28615 0.0
H6565 H 0.86264 0.14617 0.28819 0.0
H6566 H 0.88334 0.13773 0.31695 0.0
H6567 H 0.8934 0.15578 0.31504 0.0
H6568 H 0.87177 0.12311 0.28867 0.0
H6569 H 0.8498 0.13605 0.32835 0.0
H6570 H 0.85633 0.14632 0.31914 0.0
H6571 H 0.86497 0.1372 0.32762 0.0
C6572 C 0.87509 0.15843 0.2929 0.0
C6573 C 0.88373 0.16141 0.30049 0.0
C6574 C 0.86942 0.14817 0.29401 0.0
C6575 C 0.87222 0.1407 0.30275 0.0
C6576 C 0.88101 0.14346 0.31021 0.0
H6577 H 0.82322 0.08599 0.31543 0.0
H6578 H 0.84123 0.09614 0.31726 0.0
C6579 C 0.88675 0.15375 0.30908 0.0
C6580 C 0.86546 0.1303 0.30415 0.0
H6581 H 0.84313 0.11987 0.31911 0.0
C6582 C 0.86567 0.12224 0.29546 0.0
C6583 C 0.85761 0.12914 0.31308 0.0
C6584 C 0.85706 0.13762 0.3226 0.0
C6585 C 0.85772 0.11346 0.29507 0.0
C6586 C 0.84925 0.1129 0.30347 0.0
C6587 C 0.84962 0.12039 0.31265 0.0
C6588 C 0.83902 0.10588 0.30196 0.0
C6589 C 0.85815 0.10517 0.2854 0.0
C6590 C 0.83183 0.10806 0.2928 0.0
C6591 C 0.82155 0.1024 0.29178 0.0
C6592 C 0.81823 0.09442 0.29992 0.0
C6593 C 0.82556 0.09206 0.309 0.0
C6594 C 0.83584 0.09783 0.31006 0.0
H6595 H 0.8669 0.10424 0.28211 0.0
H6596 H 0.85497 0.09673 0.28801 0.0
H6597 H 0.85277 0.10832 0.2784 0.0
H6598 H 0.83401 0.11443 0.2866 0.0
H6599 H 0.81614 0.10442 0.28469 0.0
H6600 H 0.89451 0.82385 0.31458 0.0
H6601 H 0.88407 0.84171 0.31637 0.0
H6602 H 0.86326 0.83241 0.28795 0.0
H6603 H 0.87358 0.81473 0.28602 0.0
H6604 H 0.87145 0.85547 0.28784 0.0
H6605 H 0.85092 0.84295 0.32838 0.0
H6606 H 0.8661 0.84235 0.32743 0.0
H6607 H 0.85768 0.8327 0.31933 0.0
C6608 C 0.88776 0.82566 0.30866 0.0
C6609 C 0.88482 0.81782 0.30021 0.0
C6610 C 0.8818 0.83584 0.30973 0.0
C6611 C 0.87285 0.8383 0.30235 0.0
C6612 C 0.87014 0.83065 0.29372 0.0
H6613 H 0.81542 0.87371 0.28539 0.0
H6614 H 0.8332 0.86347 0.28705 0.0
C6615 C 0.87604 0.82052 0.29267 0.0
C6616 C 0.86583 0.84855 0.3037 0.0
H6617 H 0.84376 0.8589 0.31912 0.0
C6618 C 0.86556 0.85638 0.2948 0.0
C6619 C 0.85822 0.84975 0.31284 0.0
C6620 C 0.85813 0.8415 0.32255 0.0
C6621 C 0.8574 0.86497 0.29445 0.0
C6622 C 0.84922 0.8656 0.30313 0.0
C6623 C 0.85003 0.85834 0.31246 0.0
C6624 C 0.8389 0.87254 0.30187 0.0
C6625 C 0.85731 0.873 0.28457 0.0
C6626 C 0.83613 0.88093 0.30978 0.0
C6627 C 0.82591 0.88684 0.30886 0.0
C6628 C 0.81824 0.88429 0.30012 0.0
C6629 C 0.82111 0.8759 0.29222 0.0
C6630 C 0.83132 0.87009 0.2931 0.0
H6631 H 0.86588 0.87388 0.28082 0.0
H6632 H 0.8516 0.86965 0.27793 0.0
H6633 H 0.85422 0.88149 0.28712 0.0
H6634 H 0.84183 0.88283 0.31669 0.0
H6635 H 0.82393 0.89323 0.3151 0.0
H6636 H 0.10437 0.81624 0.28512 0.0
H6637 H 0.1141 0.83421 0.28748 0.0
H6638 H 0.09377 0.84162 0.31678 0.0
H6639 H 0.08394 0.82348 0.31455 0.0
H6640 H 0.1053 0.85709 0.28867 0.0
H6641 H 0.12715 0.84314 0.32807 0.0
H6642 H 0.12041 0.83315 0.31871 0.0
H6643 H 0.11197 0.84224 0.32742 0.0
C6644 C 0.10188 0.82168 0.29205 0.0
C6645 C 0.09344 0.81835 0.29972 0.0
C6646 C 0.10743 0.83198 0.29335 0.0
C6647 C 0.10471 0.83918 0.30235 0.0
C6648 C 0.09605 0.83611 0.30984 0.0
H6649 H 0.1545 0.89297 0.31616 0.0
H6650 H 0.13625 0.8832 0.3178 0.0
C6651 C 0.09044 0.82577 0.30853 0.0
C6652 C 0.11151 0.84954 0.30402 0.0
H6653 H 0.1339 0.85947 0.31923 0.0
C6654 C 0.11138 0.85777 0.2955 0.0
C6655 C 0.11935 0.85046 0.313 0.0
C6656 C 0.11983 0.84179 0.32233 0.0
C6657 C 0.11943 0.86648 0.2953 0.0
C6658 C 0.12789 0.8668 0.30372 0.0
C6659 C 0.12742 0.85915 0.31276 0.0
C6660 C 0.13824 0.87368 0.30233 0.0
C6661 C 0.11911 0.87494 0.28578 0.0
C6662 C 0.14539 0.8715 0.29313 0.0
C6663 C 0.15579 0.87694 0.29222 0.0
C6664 C 0.1593 0.88469 0.30052 0.0
C6665 C 0.15202 0.88707 0.30962 0.0
C6666 C 0.1416 0.88152 0.31057 0.0
H6667 H 0.11037 0.87606 0.28253 0.0
H6668 H 0.12243 0.88329 0.28853 0.0
H6669 H 0.12443 0.87183 0.27872 0.0
H6670 H 0.14308 0.86528 0.28681 0.0
H6671 H 0.16117 0.87492 0.2851 0.0
H6672 H 0.15466 0.89404 0.66231 0.0
H6673 H 0.13639 0.88442 0.66015 0.0
H6674 H 0.14187 0.86702 0.69168 0.0
H6675 H 0.15996 0.87653 0.69392 0.0
H6676 H 0.13398 0.86096 0.65878 0.0
H6677 H 0.10909 0.87746 0.69458 0.0
H6678 H 0.12142 0.88467 0.68914 0.0
H6679 H 0.12293 0.8732 0.69903 0.0
C6680 C 0.15187 0.88831 0.66887 0.0
C6681 C 0.15879 0.88601 0.67827 0.0
C6682 C 0.14143 0.88284 0.66762 0.0
C6683 C 0.13769 0.87516 0.67585 0.0
C6684 C 0.14446 0.87312 0.68536 0.0
H6685 H 0.10444 0.81734 0.69191 0.0
H6686 H 0.11383 0.83551 0.68979 0.0
C6687 C 0.15487 0.87848 0.68657 0.0
C6688 C 0.12742 0.86824 0.6741 0.0
H6689 H 0.10446 0.85832 0.68842 0.0
C6690 C 0.12729 0.86059 0.66504 0.0
C6691 C 0.11868 0.86785 0.68224 0.0
C6692 C 0.11796 0.87633 0.69172 0.0
C6693 C 0.1193 0.85183 0.66454 0.0
C6694 C 0.11121 0.85082 0.67327 0.0
C6695 C 0.11073 0.85907 0.68178 0.0
C6696 C 0.10457 0.84034 0.67479 0.0
C6697 C 0.12016 0.84316 0.65523 0.0
C6698 C 0.0961 0.83712 0.66714 0.0
C6699 C 0.09067 0.82666 0.66833 0.0
C6700 C 0.0937 0.81928 0.67715 0.0
C6701 C 0.10195 0.82275 0.68497 0.0
C6702 C 0.1073 0.83317 0.68381 0.0
H6703 H 0.12754 0.84467 0.64962 0.0
H6704 H 0.12088 0.83454 0.65888 0.0
H6705 H 0.11237 0.8434 0.65001 0.0
H6706 H 0.09382 0.8426 0.66018 0.0
H6707 H 0.08432 0.82424 0.66219 0.0
H6708 H 0.15443 0.08348 0.66208 0.0
H6709 H 0.13633 0.09345 0.66011 0.0
H6710 H 0.14369 0.11276 0.69012 0.0
H6711 H 0.16163 0.10289 0.69221 0.0
H6712 H 0.1207 0.10398 0.68844 0.0
H6713 H 0.13507 0.12733 0.65009 0.0
H6714 H 0.13603 0.11214 0.65018 0.0
H6715 H 0.14496 0.12029 0.65932 0.0
C6716 C 0.15214 0.08978 0.66832 0.0
C6717 C 0.15953 0.09246 0.67725 0.0
C6718 C 0.14182 0.09548 0.66715 0.0
C6719 C 0.13875 0.1039 0.67492 0.0
C6720 C 0.14592 0.10628 0.68404 0.0
H6721 H 0.10202 0.15946 0.69376 0.0
H6722 H 0.11184 0.14153 0.69165 0.0
C6723 C 0.1562 0.10065 0.68519 0.0
C6724 C 0.12842 0.11077 0.67343 0.0
H6725 H 0.11854 0.13364 0.65892 0.0
C6726 C 0.12007 0.1103 0.68184 0.0
C6727 C 0.12758 0.11894 0.66475 0.0
C6728 C 0.13637 0.11981 0.65556 0.0
C6729 C 0.1113 0.11827 0.68221 0.0
C6730 C 0.11102 0.12702 0.67409 0.0
C6731 C 0.11882 0.12694 0.66516 0.0
C6732 C 0.10397 0.13723 0.67571 0.0
C6733 C 0.10269 0.11752 0.69157 0.0
C6734 C 0.09634 0.14085 0.66737 0.0
C6735 C 0.09068 0.15119 0.66855 0.0
C6736 C 0.09274 0.15814 0.67798 0.0
C6737 C 0.10024 0.15435 0.68638 0.0
C6738 C 0.10579 0.14402 0.68524 0.0
H6739 H 0.10157 0.10865 0.69444 0.0
H6740 H 0.10567 0.12255 0.69891 0.0
H6741 H 0.09436 0.12091 0.68885 0.0
H6742 H 0.09493 0.13577 0.65989 0.0
H6743 H 0.08499 0.15389 0.66191 0.0
H6744 H 0.89391 0.15495 0.66216 0.0
H6745 H 0.88383 0.13692 0.66004 0.0
H6746 H 0.86438 0.14428 0.68995 0.0
H6747 H 0.87436 0.16213 0.69219 0.0
H6748 H 0.87307 0.12136 0.68837 0.0
H6749 H 0.85004 0.13563 0.64978 0.0
H6750 H 0.86523 0.13654 0.64997 0.0
H6751 H 0.85706 0.14554 0.65902 0.0
C6752 C 0.88755 0.15267 0.66833 0.0
C6753 C 0.88487 0.16003 0.67729 0.0
C6754 C 0.88179 0.14239 0.66708 0.0
C6755 C 0.87331 0.13934 0.67479 0.0
C6756 C 0.8709 0.14649 0.68391 0.0
H6757 H 0.81741 0.10267 0.69314 0.0
H6758 H 0.83527 0.11268 0.69116 0.0
C6759 C 0.87659 0.15673 0.68515 0.0
C6760 C 0.86642 0.12902 0.67327 0.0
H6761 H 0.84361 0.11916 0.65862 0.0
C6762 C 0.86679 0.12072 0.68172 0.0
C6763 C 0.85831 0.12817 0.66453 0.0
C6764 C 0.85753 0.13693 0.6553 0.0
C6765 C 0.85879 0.11199 0.68207 0.0
C6766 C 0.8501 0.11169 0.67388 0.0
C6767 C 0.85027 0.11945 0.66492 0.0
C6768 C 0.83989 0.10463 0.67541 0.0
C6769 C 0.85941 0.10343 0.69149 0.0
C6770 C 0.83649 0.09684 0.66713 0.0
C6771 C 0.82621 0.09106 0.66824 0.0
C6772 C 0.8191 0.09316 0.67754 0.0
C6773 C 0.82265 0.10085 0.68587 0.0
C6774 C 0.83293 0.10652 0.6848 0.0
H6775 H 0.86823 0.10238 0.69454 0.0
H6776 H 0.85421 0.10641 0.6987 0.0
H6777 H 0.85613 0.09507 0.68873 0.0
H6778 H 0.8417 0.09537 0.65975 0.0
H6779 H 0.82369 0.08523 0.66165 0.0
H6780 H 0.89364 0.82404 0.66155 0.0
H6781 H 0.88383 0.84223 0.65949 0.0
H6782 H 0.86633 0.83633 0.69089 0.0
H6783 H 0.87601 0.81831 0.69303 0.0
H6784 H 0.86021 0.84443 0.65814 0.0
H6785 H 0.8767 0.86917 0.69408 0.0
H6786 H 0.88399 0.85696 0.68848 0.0
H6787 H 0.87255 0.85524 0.69838 0.0
C6788 C 0.88784 0.82673 0.66811 0.0
C6789 C 0.88557 0.81972 0.67744 0.0
C6790 C 0.88226 0.8371 0.66691 0.0
C6791 C 0.8745 0.8407 0.67514 0.0
C6792 C 0.87247 0.83384 0.68458 0.0
H6793 H 0.81667 0.87408 0.6915 0.0
H6794 H 0.83472 0.86449 0.68923 0.0
C6795 C 0.87795 0.82348 0.68573 0.0
C6796 C 0.86752 0.85095 0.67347 0.0
H6797 H 0.8576 0.87382 0.68791 0.0
C6798 C 0.85985 0.85109 0.66443 0.0
C6799 C 0.86713 0.85964 0.68165 0.0
C6800 C 0.87563 0.86032 0.69112 0.0
C6801 C 0.85107 0.85907 0.66399 0.0
C6802 C 0.85008 0.86713 0.67275 0.0
C6803 C 0.85834 0.86757 0.68125 0.0
C6804 C 0.83962 0.8738 0.67429 0.0
C6805 C 0.84238 0.85825 0.65469 0.0
C6806 C 0.83647 0.88235 0.66672 0.0
C6807 C 0.82608 0.8879 0.66799 0.0
C6808 C 0.8187 0.88492 0.67683 0.0
C6809 C 0.82209 0.87655 0.68455 0.0
C6810 C 0.83244 0.87108 0.6833 0.0
H6811 H 0.84389 0.8509 0.64904 0.0
H6812 H 0.83377 0.8575 0.65836 0.0
H6813 H 0.8426 0.86606 0.64951 0.0
H6814 H 0.84197 0.88462 0.65976 0.0
H6815 H 0.82373 0.89434 0.66192 0.0
H6816 H 0.31631 0.15621 0.08588 0.0
H6817 H 0.3182 0.13856 0.0966 0.0
H6818 H 0.28825 0.14692 0.11561 0.0
H6819 H 0.28626 0.16443 0.10502 0.0
H6820 H 0.32063 0.13689 0.12042 0.0
H6821 H 0.28259 0.11406 0.1058 0.0
H6822 H 0.28865 0.12575 0.09806 0.0
H6823 H 0.27941 0.12832 0.10987 0.0
C6824 C 0.31006 0.15422 0.09226 0.0
C6825 C 0.30113 0.16174 0.09459 0.0
C6826 C 0.31116 0.14414 0.09836 0.0
C6827 C 0.30325 0.14136 0.10675 0.0
C6828 C 0.2943 0.14879 0.10899 0.0
H6829 H 0.28831 0.1081 0.16545 0.0
H6830 H 0.29046 0.11845 0.14782 0.0
C6831 C 0.29323 0.15886 0.10299 0.0
C6832 C 0.30465 0.13117 0.11385 0.0
H6833 H 0.28958 0.10898 0.1244 0.0
C6834 C 0.31402 0.13057 0.1211 0.0
C6835 C 0.29606 0.1229 0.11463 0.0
C6836 C 0.28617 0.12271 0.10658 0.0
C6837 C 0.3145 0.12252 0.1298 0.0
C6838 C 0.30542 0.11488 0.13116 0.0
C6839 C 0.2965 0.11492 0.12336 0.0
C6840 C 0.30414 0.10808 0.14155 0.0
C6841 C 0.32426 0.12275 0.138 0.0
C6842 C 0.31109 0.09874 0.1438 0.0
C6843 C 0.30988 0.09274 0.15393 0.0
C6844 C 0.30172 0.09605 0.16194 0.0
C6845 C 0.29471 0.10533 0.15952 0.0
C6846 C 0.29589 0.11125 0.14942 0.0
H6847 H 0.33035 0.12965 0.13611 0.0
H6848 H 0.32106 0.12387 0.14675 0.0
H6849 H 0.32884 0.11457 0.13767 0.0
H6850 H 0.31746 0.09615 0.13776 0.0
H6851 H 0.3154 0.08562 0.15553 0.0
H6852 H 0.87598 0.28382 0.15996 0.0
H6853 H 0.86586 0.28599 0.1422 0.0
H6854 H 0.88391 0.31693 0.13547 0.0
H6855 H 0.89415 0.31485 0.1534 0.0
H6856 H 0.86044 0.31892 0.1338 0.0
H6857 H 0.87513 0.28212 0.10919 0.0
H6858 H 0.87115 0.27808 0.12324 0.0
H6859 H 0.88286 0.2876 0.12118 0.0
C6860 C 0.87794 0.29102 0.15466 0.0
C6861 C 0.88585 0.29919 0.15812 0.0
C6862 C 0.87222 0.29219 0.14444 0.0
C6863 C 0.87427 0.30151 0.13743 0.0
C6864 C 0.88231 0.3096 0.14072 0.0
H6865 H 0.82327 0.3156 0.08426 0.0
H6866 H 0.84163 0.31721 0.09383 0.0
C6867 C 0.88814 0.3084 0.15095 0.0
C6868 C 0.86707 0.30324 0.12735 0.0
H6869 H 0.8561 0.28882 0.10493 0.0
C6870 C 0.8597 0.31254 0.12725 0.0
C6871 C 0.86618 0.29495 0.1188 0.0
C6872 C 0.87435 0.28519 0.11803 0.0
C6873 C 0.85076 0.31318 0.11947 0.0
C6874 C 0.84929 0.30434 0.11157 0.0
C6875 C 0.85722 0.29554 0.11107 0.0
C6876 C 0.83867 0.30313 0.10509 0.0
C6877 C 0.84244 0.32281 0.12031 0.0
C6878 C 0.83108 0.29457 0.10815 0.0
C6879 C 0.82064 0.29364 0.10277 0.0
C6880 C 0.81759 0.30123 0.09416 0.0
C6881 C 0.82535 0.30964 0.09088 0.0
C6882 C 0.83582 0.3106 0.09634 0.0
H6883 H 0.84436 0.32856 0.12748 0.0
H6884 H 0.84262 0.3278 0.11238 0.0
H6885 H 0.83373 0.31946 0.12138 0.0
H6886 H 0.83314 0.28874 0.1149 0.0
H6887 H 0.81493 0.28702 0.10547 0.0
H6888 H 0.66267 0.89248 0.15606 0.0
H6889 H 0.66062 0.88266 0.13789 0.0
H6890 H 0.69003 0.86251 0.14545 0.0
H6891 H 0.6922 0.87221 0.16344 0.0
H6892 H 0.68902 0.87185 0.12266 0.0
H6893 H 0.64986 0.84901 0.13571 0.0
H6894 H 0.65032 0.86417 0.13701 0.0
H6895 H 0.65904 0.8556 0.14596 0.0
C6896 C 0.66873 0.886 0.15381 0.0
C6897 C 0.67755 0.88307 0.16125 0.0
C6898 C 0.66752 0.8804 0.14345 0.0
C6899 C 0.67513 0.87182 0.1404 0.0
C6900 C 0.68408 0.86911 0.14766 0.0
H6901 H 0.69401 0.81641 0.10367 0.0
H6902 H 0.69177 0.83418 0.1138 0.0
C6903 C 0.68527 0.87465 0.15798 0.0
C6904 C 0.67371 0.86518 0.12991 0.0
H6905 H 0.65912 0.84262 0.11944 0.0
C6906 C 0.68233 0.86563 0.12178 0.0
C6907 C 0.66492 0.85716 0.12876 0.0
C6908 C 0.65549 0.85635 0.13731 0.0
C6909 C 0.68282 0.85774 0.11296 0.0
C6910 C 0.67459 0.8491 0.1124 0.0
C6911 C 0.66545 0.84924 0.11995 0.0
C6912 C 0.67628 0.83894 0.10532 0.0
C6913 C 0.69243 0.85841 0.10461 0.0
C6914 C 0.66821 0.83565 0.09727 0.0
C6915 C 0.66947 0.82542 0.09143 0.0
C6916 C 0.67869 0.81827 0.09372 0.0
C6917 C 0.6868 0.8217 0.1017 0.0
C6918 C 0.68559 0.83192 0.10743 0.0
H6919 H 0.69555 0.86722 0.10373 0.0
H6920 H 0.69956 0.85314 0.10768 0.0
H6921 H 0.68983 0.85524 0.09617 0.0
H6922 H 0.6609 0.8409 0.09563 0.0
H6923 H 0.66306 0.82299 0.08536 0.0
H6924 H 0.1639 0.69154 0.1056 0.0
H6925 H 0.14582 0.68961 0.11525 0.0
H6926 H 0.13756 0.66082 0.0945 0.0
H6927 H 0.15578 0.66265 0.08471 0.0
H6928 H 0.12278 0.68909 0.10518 0.0
H6929 H 0.13507 0.64993 0.1284 0.0
H6930 H 0.14557 0.65915 0.12225 0.0
H6931 H 0.13693 0.6505 0.11331 0.0
C6932 C 0.15827 0.6848 0.10303 0.0
C6933 C 0.16133 0.6772 0.09442 0.0
C6934 C 0.14791 0.68375 0.10853 0.0
C6935 C 0.14041 0.67505 0.10561 0.0
C6936 C 0.14329 0.66754 0.0969 0.0
H6937 H 0.08472 0.66273 0.15346 0.0
H6938 H 0.09526 0.66071 0.13571 0.0
C6939 C 0.15368 0.66862 0.09132 0.0
C6940 C 0.12982 0.67381 0.1121 0.0
H6941 H 0.1187 0.65932 0.13439 0.0
C6942 C 0.12173 0.68244 0.1114 0.0
C6943 C 0.12844 0.66506 0.12011 0.0
C6944 C 0.13694 0.65561 0.12117 0.0
C6945 C 0.11265 0.68296 0.119 0.0
C6946 C 0.11182 0.67476 0.12765 0.0
C6947 C 0.1194 0.66562 0.12778 0.0
C6948 C 0.10439 0.67644 0.13757 0.0
C6949 C 0.10429 0.69253 0.11799 0.0
C6950 C 0.10605 0.68593 0.14447 0.0
C6951 C 0.10014 0.68708 0.15458 0.0
C6952 C 0.09246 0.67871 0.15806 0.0
C6953 C 0.09055 0.66934 0.151 0.0
C6954 C 0.09655 0.66816 0.14086 0.0
H6955 H 0.10356 0.69543 0.10909 0.0
H6956 H 0.09579 0.69 0.12107 0.0
H6957 H 0.10728 0.69979 0.12312 0.0
H6958 H 0.11226 0.69228 0.14223 0.0
H6959 H 0.10182 0.69441 0.1598 0.0
H6960 H 0.31677 0.89419 0.8237 0.0
H6961 H 0.31888 0.88421 0.84178 0.0
H6962 H 0.28926 0.86434 0.83427 0.0
H6963 H 0.28704 0.87419 0.81635 0.0
H6964 H 0.29069 0.87352 0.85727 0.0
H6965 H 0.32932 0.85033 0.84327 0.0
H6966 H 0.32898 0.8655 0.84209 0.0
H6967 H 0.32001 0.85707 0.83325 0.0
C6968 C 0.31067 0.88775 0.82595 0.0
C6969 C 0.30179 0.88492 0.81854 0.0
C6970 C 0.31191 0.88206 0.83625 0.0
C6971 C 0.30427 0.87351 0.83928 0.0
C6972 C 0.29524 0.87093 0.83207 0.0
H6973 H 0.28515 0.81807 0.87577 0.0
H6974 H 0.28742 0.83599 0.86596 0.0
C6975 C 0.29402 0.87654 0.8218 0.0
C6976 C 0.30576 0.86672 0.84966 0.0
H6977 H 0.32023 0.84386 0.85961 0.0
C6978 C 0.2973 0.86721 0.85795 0.0
C6979 C 0.31446 0.85858 0.85056 0.0
C6980 C 0.32372 0.85773 0.84184 0.0
C6981 C 0.29688 0.85924 0.86671 0.0
C6982 C 0.30499 0.85047 0.86702 0.0
C6983 C 0.31399 0.85057 0.8593 0.0
C6984 C 0.30329 0.84024 0.874 0.0
C6985 C 0.28746 0.85998 0.87525 0.0
C6986 C 0.31155 0.83661 0.88171 0.0
C6987 C 0.31028 0.82628 0.88736 0.0
C6988 C 0.30084 0.81936 0.88521 0.0
C6989 C 0.29253 0.82316 0.87761 0.0
C6990 C 0.29376 0.83347 0.87207 0.0
H6991 H 0.28458 0.86885 0.87637 0.0
H6992 H 0.28013 0.85496 0.87222 0.0
H6993 H 0.29013 0.85658 0.88358 0.0
H6994 H 0.31903 0.84167 0.8832 0.0
H6995 H 0.31685 0.82357 0.89313 0.0
H6996 H 0.15585 0.31646 0.89275 0.0
H6997 H 0.13762 0.31859 0.88303 0.0
H6998 H 0.14339 0.28722 0.8654 0.0
H6999 H 0.16145 0.28502 0.87498 0.0
H7000 H 0.13506 0.31988 0.85937 0.0
H7001 H 0.1107 0.28396 0.87648 0.0
H7002 H 0.123 0.28967 0.88353 0.0
H7003 H 0.12459 0.27971 0.87213 0.0
C7004 C 0.15314 0.30995 0.88691 0.0
C7005 C 0.16012 0.30058 0.88461 0.0
C7006 C 0.14274 0.31117 0.88139 0.0
C7007 C 0.13908 0.30296 0.87366 0.0
C7008 C 0.14593 0.29352 0.87153 0.0
H7009 H 0.1046 0.28619 0.81668 0.0
H7010 H 0.11438 0.28849 0.83462 0.0
C7011 C 0.15632 0.29234 0.87695 0.0
C7012 C 0.1287 0.30458 0.86687 0.0
H7013 H 0.10561 0.29008 0.85752 0.0
C7014 C 0.12839 0.31358 0.85916 0.0
C7015 C 0.12 0.29639 0.86671 0.0
C7016 C 0.11951 0.28696 0.87525 0.0
C7017 C 0.12023 0.31398 0.85056 0.0
C7018 C 0.11214 0.3052 0.84979 0.0
C7019 C 0.11187 0.29675 0.85809 0.0
C7020 C 0.10528 0.30359 0.83947 0.0
C7021 C 0.12088 0.32323 0.84181 0.0
C7022 C 0.09675 0.31122 0.83635 0.0
C7023 C 0.0911 0.30993 0.82602 0.0
C7024 C 0.09395 0.30101 0.81868 0.0
C7025 C 0.10224 0.2932 0.82206 0.0
C7026 C 0.10782 0.29447 0.83235 0.0
H7027 H 0.1283 0.32884 0.8431 0.0
H7028 H 0.12138 0.31951 0.83321 0.0
H7029 H 0.11311 0.32846 0.84222 0.0
H7030 H 0.09461 0.31825 0.84181 0.0
H7031 H 0.08472 0.31607 0.82368 0.0
H7032 H 0.66327 0.1546 0.89252 0.0
H7033 H 0.66146 0.13656 0.88242 0.0
H7034 H 0.69241 0.14354 0.86447 0.0
H7035 H 0.6943 0.16141 0.87445 0.0
H7036 H 0.65977 0.13454 0.85882 0.0
H7037 H 0.6967 0.11072 0.87449 0.0
H7038 H 0.69089 0.12272 0.88195 0.0
H7039 H 0.70053 0.12479 0.87036 0.0
C7040 C 0.66977 0.15219 0.88654 0.0
C7041 C 0.67892 0.15946 0.88426 0.0
C7042 C 0.66872 0.14189 0.8808 0.0
C7043 C 0.6769 0.13863 0.87285 0.0
C7044 C 0.68614 0.14576 0.87076 0.0
H7045 H 0.69272 0.10508 0.81458 0.0
H7046 H 0.69074 0.11498 0.83251 0.0
C7047 C 0.68715 0.15604 0.87641 0.0
C7048 C 0.6754 0.12841 0.86581 0.0
H7049 H 0.69023 0.10591 0.85556 0.0
C7050 C 0.66622 0.12806 0.85831 0.0
C7051 C 0.68381 0.11994 0.86523 0.0
C7052 C 0.69347 0.11948 0.87353 0.0
C7053 C 0.6658 0.12007 0.84954 0.0
C7054 C 0.67474 0.11222 0.84838 0.0
C7055 C 0.68343 0.112 0.85644 0.0
C7056 C 0.67613 0.10545 0.83798 0.0
C7057 C 0.6563 0.12065 0.84105 0.0
C7058 C 0.66865 0.09668 0.8352 0.0
C7059 C 0.66975 0.09096 0.8249 0.0
C7060 C 0.67834 0.09397 0.81723 0.0
C7061 C 0.68597 0.10258 0.82023 0.0
C7062 C 0.68489 0.10822 0.83051 0.0
H7063 H 0.65056 0.12791 0.84262 0.0
H7064 H 0.65977 0.12136 0.83237 0.0
H7065 H 0.65125 0.11275 0.84147 0.0
H7066 H 0.66189 0.09436 0.84093 0.0
H7067 H 0.66376 0.08434 0.82286 0.0
H7068 H 0.89396 0.66375 0.82411 0.0
H7069 H 0.88388 0.66165 0.84212 0.0
H7070 H 0.86373 0.69099 0.8343 0.0
H7071 H 0.87371 0.69321 0.81646 0.0
H7072 H 0.87246 0.68983 0.85734 0.0
H7073 H 0.85027 0.65065 0.84326 0.0
H7074 H 0.86546 0.65118 0.84238 0.0
H7075 H 0.8571 0.65997 0.83331 0.0
C7076 C 0.88745 0.66981 0.82628 0.0
C7077 C 0.88457 0.6786 0.8188 0.0
C7078 C 0.88169 0.66857 0.83655 0.0
C7079 C 0.87302 0.67611 0.83946 0.0
C7080 C 0.87041 0.68508 0.83219 0.0
H7081 H 0.8167 0.6939 0.87567 0.0
H7082 H 0.83465 0.69209 0.86579 0.0
C7083 C 0.8761 0.68631 0.82196 0.0
C7084 C 0.86612 0.67454 0.84975 0.0
H7085 H 0.84354 0.65955 0.85958 0.0
C7086 C 0.8663 0.68307 0.85799 0.0
C7087 C 0.85818 0.66565 0.85062 0.0
C7088 C 0.85763 0.65633 0.84193 0.0
C7089 C 0.85824 0.68334 0.86667 0.0
C7090 C 0.8497 0.67499 0.86696 0.0
C7091 C 0.85008 0.66596 0.85928 0.0
C7092 C 0.83941 0.67641 0.87392 0.0
C7093 C 0.85866 0.69282 0.87518 0.0
C7094 C 0.83604 0.66811 0.88168 0.0
C7095 C 0.82571 0.6691 0.88737 0.0
C7096 C 0.81851 0.67833 0.88521 0.0
C7097 C 0.82202 0.68668 0.87753 0.0
C7098 C 0.83234 0.68572 0.87195 0.0
H7099 H 0.86743 0.69599 0.8763 0.0
H7100 H 0.85341 0.69996 0.8721 0.0
H7101 H 0.85533 0.69008 0.88351 0.0
H7102 H 0.84134 0.66079 0.88321 0.0
H7103 H 0.82323 0.66251 0.89321 0.0
H7104 H 0.15562 0.31543 0.08398 0.0
H7105 H 0.13754 0.31756 0.09396 0.0
H7106 H 0.14555 0.28865 0.11461 0.0
H7107 H 0.16349 0.28641 0.10477 0.0
H7108 H 0.12242 0.28954 0.10512 0.0
H7109 H 0.13583 0.32872 0.12772 0.0
H7110 H 0.13724 0.32804 0.11258 0.0
H7111 H 0.14603 0.31935 0.12133 0.0
C7112 C 0.15349 0.30949 0.0906 0.0
C7113 C 0.16104 0.3008 0.09364 0.0
C7114 C 0.14318 0.31074 0.09629 0.0
C7115 C 0.14028 0.3033 0.10505 0.0
C7116 C 0.14765 0.29447 0.10786 0.0
H7117 H 0.10335 0.28478 0.16039 0.0
H7118 H 0.11332 0.28685 0.14254 0.0
C7119 C 0.15793 0.29324 0.10225 0.0
C7120 C 0.12984 0.30479 0.11174 0.0
H7121 H 0.11952 0.31958 0.13422 0.0
C7122 C 0.12162 0.29625 0.11131 0.0
C7123 C 0.12878 0.31362 0.11971 0.0
C7124 C 0.13742 0.32297 0.12046 0.0
C7125 C 0.11277 0.29591 0.11918 0.0
C7126 C 0.11229 0.30417 0.12779 0.0
C7127 C 0.11995 0.31323 0.12763 0.0
C7128 C 0.10521 0.30259 0.13797 0.0
C7129 C 0.10428 0.28642 0.1185 0.0
C7130 C 0.0974 0.31084 0.14141 0.0
C7131 C 0.09166 0.30969 0.15169 0.0
C7132 C 0.0938 0.30038 0.15877 0.0
C7133 C 0.1015 0.29207 0.15517 0.0
C7134 C 0.10714 0.29318 0.1449 0.0
H7135 H 0.10328 0.2834 0.10966 0.0
H7136 H 0.10732 0.27919 0.12365 0.0
H7137 H 0.0959 0.28908 0.12177 0.0
H7138 H 0.09591 0.31823 0.13622 0.0
H7139 H 0.08581 0.31626 0.15425 0.0
H7140 H 0.16299 0.69316 0.87422 0.0
H7141 H 0.14516 0.69122 0.86413 0.0
H7142 H 0.13781 0.66066 0.88256 0.0
H7143 H 0.15579 0.66252 0.89278 0.0
H7144 H 0.13573 0.65881 0.85873 0.0
H7145 H 0.11239 0.69598 0.87467 0.0
H7146 H 0.12652 0.69954 0.87044 0.0
H7147 H 0.12434 0.68997 0.88206 0.0
C7148 C 0.15756 0.68607 0.87624 0.0
C7149 C 0.16083 0.67798 0.8843 0.0
C7150 C 0.14732 0.68503 0.87053 0.0
C7151 C 0.14009 0.6759 0.87274 0.0
C7152 C 0.14323 0.66783 0.88083 0.0
H7153 H 0.08459 0.66309 0.82391 0.0
H7154 H 0.09509 0.66113 0.84171 0.0
C7155 C 0.15349 0.66891 0.88665 0.0
C7156 C 0.12978 0.67447 0.8658 0.0
H7157 H 0.10715 0.68936 0.85596 0.0
C7158 C 0.12926 0.66529 0.85832 0.0
C7159 C 0.12134 0.68292 0.86536 0.0
C7160 C 0.1211 0.6926 0.87365 0.0
C7161 C 0.1211 0.66488 0.8497 0.0
C7162 C 0.11326 0.67384 0.84869 0.0
C7163 C 0.11323 0.68255 0.85673 0.0
C7164 C 0.10626 0.67523 0.83844 0.0
C7165 C 0.12147 0.65537 0.84123 0.0
C7166 C 0.10894 0.68393 0.83087 0.0
C7167 C 0.10302 0.68507 0.82076 0.0
C7168 C 0.09423 0.67755 0.81801 0.0
C7169 C 0.09133 0.669 0.82577 0.0
C7170 C 0.09733 0.66784 0.83591 0.0
H7171 H 0.12871 0.64957 0.84268 0.0
H7172 H 0.11353 0.65039 0.84176 0.0
H7173 H 0.12208 0.65882 0.83253 0.0
H7174 H 0.11581 0.68971 0.83269 0.0
H7175 H 0.10545 0.69178 0.81504 0.0
H7176 H 0.28308 0.1605 0.87653 0.0
H7177 H 0.28522 0.14317 0.86564 0.0
H7178 H 0.3184 0.13811 0.87986 0.0
H7179 H 0.31632 0.15558 0.8909 0.0
H7180 H 0.31734 0.13733 0.85582 0.0
H7181 H 0.28495 0.10963 0.875 0.0
H7182 H 0.27963 0.12351 0.87198 0.0
H7183 H 0.29074 0.12178 0.88222 0.0
C7184 C 0.29079 0.15565 0.87748 0.0
C7185 C 0.29954 0.15943 0.88456 0.0
C7186 C 0.29195 0.14569 0.87131 0.0
C7187 C 0.30189 0.13928 0.87208 0.0
C7188 C 0.31061 0.14289 0.87926 0.0
H7189 H 0.31499 0.08519 0.82199 0.0
H7190 H 0.31709 0.09601 0.83958 0.0
C7191 C 0.30941 0.15285 0.88556 0.0
C7192 C 0.30341 0.12946 0.86449 0.0
H7193 H 0.28998 0.10554 0.85558 0.0
C7194 C 0.31159 0.13019 0.85593 0.0
C7195 C 0.2959 0.12017 0.86469 0.0
C7196 C 0.28738 0.11865 0.87404 0.0
C7197 C 0.31185 0.12232 0.84706 0.0
C7198 C 0.3038 0.1135 0.84684 0.0
C7199 C 0.29611 0.11235 0.85578 0.0
C7200 C 0.3023 0.10636 0.83673 0.0
C7201 C 0.3202 0.1239 0.83755 0.0
C7202 C 0.2932 0.10852 0.82947 0.0
C7203 C 0.292 0.10245 0.81945 0.0
C7204 C 0.29985 0.09401 0.81652 0.0
C7205 C 0.3088 0.09163 0.824 0.0
C7206 C 0.31004 0.0978 0.83402 0.0
H7207 H 0.32558 0.1315 0.83876 0.0
H7208 H 0.32575 0.11636 0.83695 0.0
H7209 H 0.31562 0.1247 0.8294 0.0
H7210 H 0.28716 0.11512 0.83145 0.0
H7211 H 0.28499 0.10447 0.81393 0.0
H7212 H 0.89404 0.31629 0.82367 0.0
H7213 H 0.88402 0.31841 0.84173 0.0
H7214 H 0.86705 0.28666 0.83601 0.0
H7215 H 0.87695 0.28445 0.81814 0.0
H7216 H 0.86049 0.31953 0.8437 0.0
H7217 H 0.87696 0.28396 0.86894 0.0
H7218 H 0.8843 0.28943 0.85672 0.0
H7219 H 0.87294 0.27943 0.85505 0.0
C7220 C 0.88832 0.30967 0.82638 0.0
C7221 C 0.88626 0.30021 0.81945 0.0
C7222 C 0.88262 0.3109 0.83668 0.0
C7223 C 0.87494 0.3026 0.84029 0.0
C7224 C 0.87313 0.29304 0.83352 0.0
H7225 H 0.8168 0.28637 0.8735 0.0
H7226 H 0.83485 0.28856 0.86389 0.0
C7227 C 0.87873 0.29184 0.82324 0.0
C7228 C 0.86782 0.3043 0.85043 0.0
H7229 H 0.85775 0.29002 0.87333 0.0
C7230 C 0.86009 0.3133 0.85041 0.0
C7231 C 0.86739 0.29619 0.85918 0.0
C7232 C 0.87594 0.28678 0.86005 0.0
C7233 C 0.85123 0.31377 0.85829 0.0
C7234 C 0.85022 0.30507 0.86642 0.0
C7235 C 0.85851 0.29662 0.86702 0.0
C7236 C 0.83974 0.3036 0.87307 0.0
C7237 C 0.8425 0.32302 0.85731 0.0
C7238 C 0.83659 0.31126 0.88155 0.0
C7239 C 0.8262 0.31004 0.8871 0.0
C7240 C 0.81882 0.30115 0.8842 0.0
C7241 C 0.82221 0.29335 0.8759 0.0
C7242 C 0.83256 0.29456 0.87042 0.0
H7243 H 0.84403 0.32858 0.84991 0.0
H7244 H 0.83392 0.31929 0.85655 0.0
H7245 H 0.84266 0.32829 0.86506 0.0
H7246 H 0.84208 0.31824 0.88375 0.0
H7247 H 0.82386 0.31617 0.89348 0.0
H7248 H 0.69242 0.87221 0.81489 0.0
H7249 H 0.69055 0.86203 0.83266 0.0
H7250 H 0.66216 0.88293 0.84189 0.0
H7251 H 0.66391 0.89324 0.82397 0.0
H7252 H 0.69057 0.87101 0.85586 0.0
H7253 H 0.65052 0.84938 0.84341 0.0
H7254 H 0.65964 0.85586 0.83304 0.0
H7255 H 0.65137 0.86454 0.8423 0.0
C7256 C 0.68578 0.87471 0.82068 0.0
C7257 C 0.67826 0.8835 0.81796 0.0
C7258 C 0.68477 0.8689 0.83086 0.0
C7259 C 0.67619 0.87169 0.83853 0.0
C7260 C 0.66878 0.88061 0.83601 0.0
H7261 H 0.66367 0.8226 0.89312 0.0
H7262 H 0.66189 0.84058 0.88293 0.0
C7263 C 0.66982 0.88649 0.8258 0.0
C7264 C 0.67493 0.86484 0.84888 0.0
H7265 H 0.65996 0.84256 0.8594 0.0
C7266 C 0.68375 0.86495 0.8568 0.0
C7267 C 0.66596 0.85704 0.85012 0.0
C7268 C 0.65632 0.85659 0.84178 0.0
C7269 C 0.68421 0.85697 0.86553 0.0
C7270 C 0.67575 0.84855 0.86619 0.0
C7271 C 0.66646 0.849 0.85883 0.0
C7272 C 0.67723 0.83833 0.87324 0.0
C7273 C 0.69398 0.85733 0.8737 0.0
C7274 C 0.6864 0.83113 0.8711 0.0
C7275 C 0.6874 0.82088 0.87681 0.0
C7276 C 0.67922 0.81758 0.88476 0.0
C7277 C 0.67013 0.82491 0.88707 0.0
C7278 C 0.6691 0.83518 0.88127 0.0
H7279 H 0.6973 0.86607 0.87464 0.0
H7280 H 0.69149 0.8541 0.88215 0.0
H7281 H 0.70095 0.85197 0.87042 0.0
H7282 H 0.69262 0.83328 0.86474 0.0
H7283 H 0.6945 0.81546 0.87482 0.0
H7284 H 0.82364 0.66207 0.08461 0.0
H7285 H 0.84181 0.66035 0.09452 0.0
H7286 H 0.83286 0.6885 0.11584 0.0
H7287 H 0.81481 0.6903 0.1061 0.0
H7288 H 0.85617 0.68841 0.10567 0.0
H7289 H 0.84397 0.649 0.12853 0.0
H7290 H 0.84206 0.64983 0.11344 0.0
H7291 H 0.83341 0.65827 0.12258 0.0
C7292 C 0.82558 0.66793 0.09137 0.0
C7293 C 0.81774 0.67628 0.09461 0.0
C7294 C 0.83594 0.66691 0.09702 0.0
C7295 C 0.83861 0.67427 0.10592 0.0
C7296 C 0.83093 0.68276 0.10897 0.0
H7297 H 0.87622 0.694 0.16054 0.0
H7298 H 0.86607 0.69171 0.14282 0.0
C7299 C 0.82059 0.68374 0.10341 0.0
C7300 C 0.84916 0.67306 0.11249 0.0
H7301 H 0.86005 0.65865 0.13493 0.0
C7302 C 0.85719 0.68176 0.1119 0.0
C7303 C 0.8505 0.66431 0.12049 0.0
C7304 C 0.84206 0.6548 0.1214 0.0
C7305 C 0.86615 0.68233 0.11963 0.0
C7306 C 0.86691 0.67415 0.1283 0.0
C7307 C 0.85941 0.66495 0.1283 0.0
C7308 C 0.87414 0.67591 0.13835 0.0
C7309 C 0.87446 0.69196 0.11874 0.0
C7310 C 0.88198 0.66771 0.14181 0.0
C7311 C 0.88782 0.66897 0.15204 0.0
C7312 C 0.88574 0.67838 0.15902 0.0
C7313 C 0.87803 0.68665 0.15538 0.0
C7314 C 0.87229 0.68541 0.14518 0.0
H7315 H 0.87533 0.69485 0.10985 0.0
H7316 H 0.87132 0.69922 0.12379 0.0
H7317 H 0.88292 0.68951 0.12198 0.0
H7318 H 0.88342 0.66024 0.13671 0.0
H7319 H 0.89367 0.66243 0.15462 0.0
H7320 H 0.31535 0.82413 0.08382 0.0
H7321 H 0.31728 0.84205 0.09412 0.0
H7322 H 0.28853 0.83331 0.11472 0.0
H7323 H 0.2865 0.81553 0.10456 0.0
H7324 H 0.28901 0.85652 0.10579 0.0
H7325 H 0.32864 0.84338 0.12776 0.0
H7326 H 0.32791 0.84229 0.1126 0.0
H7327 H 0.3194 0.83316 0.12119 0.0
C7328 C 0.3094 0.82607 0.09049 0.0
C7329 C 0.30082 0.81835 0.09342 0.0
C7330 C 0.31054 0.83628 0.09637 0.0
C7331 C 0.3031 0.83893 0.10521 0.0
C7332 C 0.29436 0.83141 0.10792 0.0
H7333 H 0.28476 0.87511 0.16137 0.0
H7334 H 0.28674 0.86516 0.1435 0.0
C7335 C 0.29324 0.82122 0.10212 0.0
C7336 C 0.30447 0.84927 0.11209 0.0
H7337 H 0.31938 0.8595 0.13455 0.0
C7338 C 0.29579 0.85734 0.11192 0.0
C7339 C 0.31338 0.85035 0.11998 0.0
C7340 C 0.32288 0.84185 0.1205 0.0
C7341 C 0.2954 0.86607 0.11992 0.0
C7342 C 0.30378 0.86657 0.12842 0.0
C7343 C 0.31294 0.85905 0.12804 0.0
C7344 C 0.30226 0.87356 0.13868 0.0
C7345 C 0.28575 0.87439 0.1195 0.0
C7346 C 0.31042 0.88151 0.14199 0.0
C7347 C 0.30932 0.88725 0.15229 0.0
C7348 C 0.30015 0.88495 0.1595 0.0
C7349 C 0.29194 0.87708 0.15604 0.0
C7350 C 0.293 0.87145 0.14576 0.0
H7351 H 0.28254 0.87541 0.11073 0.0
H7352 H 0.27868 0.8712 0.12477 0.0
H7353 H 0.28834 0.88279 0.12279 0.0
H7354 H 0.3177 0.88315 0.13668 0.0
H7355 H 0.31581 0.89323 0.15473 0.0
H7356 H 0.66257 0.15447 0.08454 0.0
H7357 H 0.66072 0.1363 0.09439 0.0
H7358 H 0.68927 0.14477 0.11539 0.0
H7359 H 0.69122 0.16281 0.10569 0.0
H7360 H 0.68886 0.12162 0.10542 0.0
H7361 H 0.64951 0.13411 0.12826 0.0
H7362 H 0.65025 0.13586 0.11316 0.0
H7363 H 0.65879 0.14457 0.12215 0.0
C7364 C 0.66849 0.15243 0.09122 0.0
C7365 C 0.677 0.16013 0.09438 0.0
C7366 C 0.6674 0.14206 0.09683 0.0
C7367 C 0.67483 0.13926 0.10563 0.0
C7368 C 0.68347 0.1468 0.1086 0.0
H7369 H 0.69419 0.10184 0.16039 0.0
H7370 H 0.69196 0.11194 0.14264 0.0
C7371 C 0.68453 0.15713 0.10307 0.0
C7372 C 0.67353 0.12873 0.1122 0.0
H7373 H 0.659 0.11793 0.13461 0.0
C7374 C 0.68218 0.12064 0.11164 0.0
C7375 C 0.66475 0.12744 0.12019 0.0
C7376 C 0.65527 0.13593 0.12108 0.0
C7377 C 0.6827 0.1117 0.11938 0.0
C7378 C 0.67448 0.111 0.12803 0.0
C7379 C 0.66531 0.11853 0.128 0.0
C7380 C 0.6762 0.1038 0.13811 0.0
C7381 C 0.6923 0.10336 0.11854 0.0
C7382 C 0.66801 0.09594 0.14154 0.0
C7383 C 0.66925 0.09013 0.15177 0.0
C7384 C 0.67861 0.09227 0.15881 0.0
C7385 C 0.68687 0.1 0.1552 0.0
C7386 C 0.68567 0.10571 0.14498 0.0
H7387 H 0.69524 0.10247 0.10966 0.0
H7388 H 0.69954 0.10646 0.12364 0.0
H7389 H 0.68979 0.09491 0.12176 0.0
H7390 H 0.66058 0.09446 0.1364 0.0
H7391 H 0.66272 0.08425 0.15434 0.0
H7392 H 0.58387 0.65383 0.81644 0.0
H7393 H 0.59335 0.63551 0.81883 0.0
H7394 H 0.61334 0.64196 0.78907 0.0
H7395 H 0.60398 0.66009 0.78657 0.0
H7396 H 0.6037 0.61915 0.79098 0.0
H7397 H 0.62723 0.63356 0.82924 0.0
H7398 H 0.61208 0.63498 0.82886 0.0
H7399 H 0.62066 0.64354 0.81977 0.0
C7400 C 0.59022 0.65129 0.81036 0.0
C7401 C 0.59324 0.65847 0.80137 0.0
C7402 C 0.59563 0.64084 0.81176 0.0
C7403 C 0.60408 0.63745 0.80416 0.0
C7404 C 0.60682 0.64443 0.79501 0.0
H7405 H 0.65918 0.6014 0.78488 0.0
H7406 H 0.64102 0.61073 0.78731 0.0
C7407 C 0.60149 0.65483 0.79363 0.0
C7408 C 0.61068 0.62698 0.80586 0.0
H7409 H 0.63368 0.61719 0.82022 0.0
C7410 C 0.61007 0.61854 0.79755 0.0
C7411 C 0.61889 0.62616 0.8145 0.0
C7412 C 0.61986 0.63502 0.82362 0.0
C7413 C 0.61803 0.60977 0.79715 0.0
C7414 C 0.6269 0.60958 0.80515 0.0
C7415 C 0.62689 0.6174 0.81406 0.0
C7416 C 0.63721 0.60274 0.80331 0.0
C7417 C 0.61719 0.6011 0.78785 0.0
C7418 C 0.64117 0.5952 0.81157 0.0
C7419 C 0.65164 0.58983 0.81021 0.0
C7420 C 0.65837 0.59209 0.80067 0.0
C7421 C 0.65424 0.59948 0.79234 0.0
C7422 C 0.64378 0.60474 0.79366 0.0
H7423 H 0.60827 0.59987 0.78517 0.0
H7424 H 0.62202 0.60411 0.78039 0.0
H7425 H 0.62073 0.59284 0.79054 0.0
H7426 H 0.63627 0.59366 0.81914 0.0
H7427 H 0.65461 0.58421 0.81679 0.0
H7428 H 0.32487 0.58479 0.81458 0.0
H7429 H 0.34308 0.59462 0.81622 0.0
H7430 H 0.3344 0.61545 0.78762 0.0
H7431 H 0.31634 0.60574 0.78587 0.0
H7432 H 0.35745 0.60607 0.78778 0.0
H7433 H 0.34522 0.6282 0.8276 0.0
H7434 H 0.34389 0.61306 0.82684 0.0
H7435 H 0.33475 0.62181 0.81851 0.0
C7436 C 0.32688 0.59141 0.8086 0.0
C7437 C 0.3191 0.59454 0.80015 0.0
C7438 C 0.33727 0.59702 0.80957 0.0
C7439 C 0.34002 0.60579 0.80208 0.0
C7440 C 0.33242 0.60868 0.79347 0.0
H7441 H 0.3763 0.6615 0.78312 0.0
H7442 H 0.36657 0.64351 0.78514 0.0
C7443 C 0.32207 0.60315 0.79252 0.0
C7444 C 0.3505 0.61248 0.80333 0.0
H7445 H 0.36122 0.63483 0.81805 0.0
C7446 C 0.35844 0.61219 0.79454 0.0
C7447 C 0.35183 0.62035 0.81222 0.0
C7448 C 0.34349 0.62098 0.82185 0.0
C7449 C 0.36726 0.6201 0.794 0.0
C7450 C 0.36797 0.62862 0.80235 0.0
C7451 C 0.36061 0.62832 0.81164 0.0
C7452 C 0.37499 0.63885 0.80069 0.0
C7453 C 0.37543 0.61955 0.78424 0.0
C7454 C 0.38289 0.64229 0.80884 0.0
C7455 C 0.38849 0.65267 0.80773 0.0
C7456 C 0.3861 0.65983 0.79854 0.0
C7457 C 0.37834 0.65621 0.7903 0.0
C7458 C 0.37284 0.64586 0.79138 0.0
H7459 H 0.37641 0.61074 0.78115 0.0
H7460 H 0.37211 0.62471 0.77715 0.0
H7461 H 0.38387 0.62289 0.78665 0.0
H7462 H 0.38456 0.63705 0.81616 0.0
H7463 H 0.39439 0.65523 0.81424 0.0
H7464 H 0.39286 0.32345 0.81678 0.0
H7465 H 0.3836 0.3419 0.81914 0.0
H7466 H 0.36317 0.33541 0.78968 0.0
H7467 H 0.37227 0.31714 0.78723 0.0
H7468 H 0.37366 0.35816 0.79137 0.0
H7469 H 0.34956 0.34462 0.82958 0.0
H7470 H 0.36465 0.34261 0.82911 0.0
H7471 H 0.3557 0.33438 0.82008 0.0
C7472 C 0.38644 0.326 0.81077 0.0
C7473 C 0.38324 0.31878 0.80186 0.0
C7474 C 0.38117 0.33652 0.81215 0.0
C7475 C 0.37268 0.33995 0.80461 0.0
C7476 C 0.36972 0.3329 0.79557 0.0
H7477 H 0.31872 0.37736 0.78473 0.0
H7478 H 0.33665 0.36763 0.7873 0.0
C7479 C 0.3749 0.32242 0.79422 0.0
C7480 C 0.36635 0.35059 0.80621 0.0
H7481 H 0.34349 0.36103 0.82033 0.0
C7482 C 0.36725 0.35897 0.79788 0.0
C7483 C 0.3581 0.35166 0.81478 0.0
C7484 C 0.35685 0.34287 0.82392 0.0
C7485 C 0.35953 0.36795 0.79739 0.0
C7486 C 0.3506 0.3684 0.8053 0.0
C7487 C 0.35033 0.36061 0.81424 0.0
C7488 C 0.34049 0.37551 0.80336 0.0
C7489 C 0.36069 0.37656 0.78807 0.0
C7490 C 0.33663 0.38313 0.81159 0.0
C7491 C 0.3263 0.38874 0.81015 0.0
C7492 C 0.3196 0.38662 0.80054 0.0
C7493 C 0.32365 0.37917 0.79223 0.0
C7494 C 0.33397 0.37368 0.79363 0.0
H7495 H 0.36967 0.37756 0.7855 0.0
H7496 H 0.35587 0.37364 0.78057 0.0
H7497 H 0.35732 0.38492 0.7907 0.0
H7498 H 0.34149 0.38454 0.81922 0.0
H7499 H 0.32339 0.3944 0.81672 0.0
H7500 H 0.60412 0.31645 0.78683 0.0
H7501 H 0.61334 0.33467 0.78929 0.0
H7502 H 0.59286 0.34132 0.81867 0.0
H7503 H 0.58349 0.32293 0.8163 0.0
H7504 H 0.60321 0.35745 0.79086 0.0
H7505 H 0.62672 0.34379 0.82939 0.0
H7506 H 0.62048 0.3336 0.81991 0.0
H7507 H 0.61161 0.34202 0.82884 0.0
C7508 C 0.6015 0.32176 0.7938 0.0
C7509 C 0.59312 0.31818 0.80142 0.0
C7510 C 0.60676 0.33221 0.79516 0.0
C7511 C 0.60382 0.33928 0.80419 0.0
C7512 C 0.59528 0.33592 0.81169 0.0
H7513 H 0.65329 0.39351 0.81681 0.0
H7514 H 0.63513 0.3837 0.8191 0.0
C7515 C 0.58994 0.32543 0.81031 0.0
C7516 C 0.61024 0.34987 0.80583 0.0
H7517 H 0.63297 0.36018 0.82026 0.0
C7518 C 0.60953 0.35822 0.79745 0.0
C7519 C 0.61838 0.3509 0.81451 0.0
C7520 C 0.61944 0.34213 0.8237 0.0
C7521 C 0.61732 0.36714 0.79705 0.0
C7522 C 0.62614 0.36756 0.8051 0.0
C7523 C 0.62623 0.35979 0.81406 0.0
C7524 C 0.63632 0.3746 0.80329 0.0
C7525 C 0.61637 0.37574 0.7877 0.0
C7526 C 0.64298 0.37271 0.79367 0.0
C7527 C 0.65332 0.37817 0.79239 0.0
C7528 C 0.65728 0.38566 0.80072 0.0
C7529 C 0.65046 0.38782 0.81023 0.0
C7530 C 0.64009 0.38224 0.81155 0.0
H7531 H 0.60744 0.37679 0.78498 0.0
H7532 H 0.61975 0.38408 0.79036 0.0
H7533 H 0.62128 0.37277 0.78028 0.0
H7534 H 0.64036 0.36664 0.78733 0.0
H7535 H 0.65834 0.37633 0.78496 0.0
H7536 H 0.65516 0.39342 0.1624 0.0
H7537 H 0.63717 0.38328 0.16029 0.0
H7538 H 0.64418 0.36455 0.19073 0.0
H7539 H 0.66203 0.37454 0.19292 0.0
H7540 H 0.63508 0.35943 0.15821 0.0
H7541 H 0.61135 0.37515 0.19521 0.0
H7542 H 0.62334 0.38259 0.18936 0.0
H7543 H 0.62544 0.37093 0.19891 0.0
C7544 C 0.65279 0.38724 0.16872 0.0
C7545 C 0.66004 0.38477 0.17782 0.0
C7546 C 0.64252 0.38147 0.16749 0.0
C7547 C 0.63927 0.37332 0.17546 0.0
C7548 C 0.64641 0.37099 0.18463 0.0
H7549 H 0.6054 0.31546 0.19102 0.0
H7550 H 0.61541 0.33329 0.1889 0.0
C7551 C 0.65667 0.37665 0.18581 0.0
C7552 C 0.62897 0.36641 0.17386 0.0
H7553 H 0.60627 0.3564 0.18851 0.0
C7554 C 0.62855 0.35897 0.16463 0.0
C7555 C 0.62045 0.36591 0.18221 0.0
C7556 C 0.62009 0.37417 0.19192 0.0
C7557 C 0.62045 0.35032 0.16413 0.0
C7558 C 0.61255 0.34921 0.17303 0.0
C7559 C 0.61239 0.35724 0.18174 0.0
C7560 C 0.60575 0.33883 0.17442 0.0
C7561 C 0.62094 0.34187 0.15459 0.0
C7562 C 0.59687 0.33611 0.16703 0.0
C7563 C 0.59108 0.32585 0.16822 0.0
C7564 C 0.59412 0.31817 0.17679 0.0
C7565 C 0.60286 0.32111 0.18429 0.0
C7566 C 0.60858 0.33133 0.18313 0.0
H7567 H 0.62814 0.34347 0.14878 0.0
H7568 H 0.62171 0.33317 0.15802 0.0
H7569 H 0.61298 0.34228 0.14964 0.0
H7570 H 0.59452 0.34185 0.16031 0.0
H7571 H 0.58436 0.32385 0.16232 0.0
H7572 H 0.58603 0.65679 0.16146 0.0
H7573 H 0.59656 0.63899 0.15961 0.0
H7574 H 0.61521 0.64691 0.1899 0.0
H7575 H 0.60481 0.66454 0.19184 0.0
H7576 H 0.62027 0.63725 0.15739 0.0
H7577 H 0.60554 0.61406 0.1951 0.0
H7578 H 0.59782 0.62583 0.18916 0.0
H7579 H 0.60958 0.62827 0.19852 0.0
C7580 C 0.59227 0.65465 0.1678 0.0
C7581 C 0.59459 0.66209 0.17679 0.0
C7582 C 0.59826 0.64449 0.16672 0.0
C7583 C 0.60651 0.64156 0.17472 0.0
C7584 C 0.6087 0.64889 0.18377 0.0
H7585 H 0.66566 0.60891 0.18948 0.0
H7586 H 0.64795 0.61919 0.18731 0.0
C7587 C 0.6028 0.65903 0.18481 0.0
C7588 C 0.61364 0.63139 0.17328 0.0
H7589 H 0.62435 0.60926 0.18832 0.0
C7590 C 0.62096 0.6309 0.16396 0.0
C7591 C 0.61445 0.62309 0.18183 0.0
C7592 C 0.60633 0.62276 0.19165 0.0
C7593 C 0.62975 0.62294 0.16351 0.0
C7594 C 0.63115 0.6153 0.17257 0.0
C7595 C 0.62329 0.61521 0.18143 0.0
C7596 C 0.6416 0.60859 0.17385 0.0
C7597 C 0.63802 0.62329 0.15381 0.0
C7598 C 0.64382 0.59917 0.16702 0.0
C7599 C 0.65398 0.59321 0.16825 0.0
C7600 C 0.66205 0.59665 0.17629 0.0
C7601 C 0.65968 0.60605 0.18317 0.0
C7602 C 0.64954 0.61192 0.18198 0.0
H7603 H 0.63601 0.6301 0.14767 0.0
H7604 H 0.64672 0.62463 0.15707 0.0
H7605 H 0.63791 0.61507 0.1493 0.0
H7606 H 0.63773 0.59646 0.16074 0.0
H7607 H 0.65554 0.58599 0.16283 0.0
H7608 H 0.39393 0.65592 0.16272 0.0
H7609 H 0.38346 0.63812 0.16065 0.0
H7610 H 0.36105 0.64811 0.18756 0.0
H7611 H 0.37133 0.66585 0.18971 0.0
H7612 H 0.37231 0.62385 0.18743 0.0
H7613 H 0.34832 0.63714 0.14908 0.0
H7614 H 0.36326 0.64 0.15031 0.0
H7615 H 0.35344 0.64755 0.15901 0.0
C7616 C 0.38679 0.65432 0.16823 0.0
C7617 C 0.38345 0.66234 0.17637 0.0
C7618 C 0.38084 0.64415 0.16702 0.0
C7619 C 0.37151 0.64188 0.17395 0.0
C7620 C 0.36826 0.64976 0.18216 0.0
H7621 H 0.31762 0.60296 0.19381 0.0
H7622 H 0.33508 0.61357 0.19141 0.0
C7623 C 0.37414 0.6599 0.18334 0.0
C7624 C 0.36485 0.63141 0.17267 0.0
H7625 H 0.34193 0.62096 0.15866 0.0
C7626 C 0.36583 0.62305 0.18099 0.0
C7627 C 0.35651 0.63038 0.16419 0.0
C7628 C 0.35523 0.63921 0.15509 0.0
C7629 C 0.35819 0.614 0.18147 0.0
C7630 C 0.34924 0.61349 0.17356 0.0
C7631 C 0.34879 0.62139 0.16473 0.0
C7632 C 0.33937 0.60601 0.17533 0.0
C7633 C 0.35949 0.60531 0.19069 0.0
C7634 C 0.33593 0.59828 0.16702 0.0
C7635 C 0.32588 0.59215 0.16836 0.0
C7636 C 0.31905 0.59385 0.17794 0.0
C7637 C 0.32267 0.60146 0.18632 0.0
C7638 C 0.33271 0.60747 0.18501 0.0
H7639 H 0.36846 0.60454 0.19338 0.0
H7640 H 0.35448 0.60797 0.19816 0.0
H7641 H 0.35642 0.59689 0.1879 0.0
H7642 H 0.34091 0.59714 0.15942 0.0
H7643 H 0.32329 0.58638 0.16174 0.0
H7644 H 0.39353 0.32313 0.16373 0.0
H7645 H 0.38343 0.34117 0.16202 0.0
H7646 H 0.36505 0.33378 0.19259 0.0
H7647 H 0.37503 0.31589 0.19439 0.0
H7648 H 0.3598 0.34321 0.16005 0.0
H7649 H 0.37516 0.36656 0.19743 0.0
H7650 H 0.38265 0.35461 0.19155 0.0
H7651 H 0.37091 0.35244 0.20099 0.0
C7652 C 0.38746 0.32544 0.17017 0.0
C7653 C 0.38507 0.31806 0.17919 0.0
C7654 C 0.38171 0.33574 0.16918 0.0
C7655 C 0.37364 0.33889 0.17728 0.0
C7656 C 0.37143 0.33164 0.18639 0.0
H7657 H 0.31547 0.37304 0.19268 0.0
H7658 H 0.33333 0.36298 0.19089 0.0
C7659 C 0.37708 0.32135 0.18734 0.0
C7660 C 0.36664 0.34915 0.17583 0.0
H7661 H 0.35642 0.37164 0.19068 0.0
C7662 C 0.35926 0.34965 0.16656 0.0
C7663 C 0.36602 0.35755 0.1843 0.0
C7664 C 0.3742 0.35784 0.19407 0.0
C7665 C 0.35058 0.35773 0.16608 0.0
C7666 C 0.34938 0.36553 0.17505 0.0
C7667 C 0.35732 0.36559 0.18385 0.0
C7668 C 0.33904 0.37243 0.17634 0.0
C7669 C 0.34222 0.35731 0.15646 0.0
C7670 C 0.33642 0.38123 0.16883 0.0
C7671 C 0.32615 0.38705 0.16983 0.0
C7672 C 0.31836 0.38411 0.17833 0.0
C7673 C 0.32121 0.37549 0.18599 0.0
C7674 C 0.33145 0.36975 0.18501 0.0
H7675 H 0.34374 0.35003 0.15073 0.0
H7676 H 0.33346 0.35674 0.15979 0.0
H7677 H 0.34285 0.3652 0.15144 0.0
H7678 H 0.34225 0.38349 0.16214 0.0
H7679 H 0.32423 0.39367 0.16382 0.0
H7680 H 0.81719 0.6549 0.58526 0.0
H7681 H 0.81944 0.6367 0.59496 0.0
H7682 H 0.7882 0.64239 0.61284 0.0
H7683 H 0.78587 0.66045 0.60329 0.0
H7684 H 0.82077 0.63413 0.61882 0.0
H7685 H 0.78503 0.60968 0.60134 0.0
H7686 H 0.7908 0.62198 0.59436 0.0
H7687 H 0.78078 0.62358 0.6057 0.0
C7688 C 0.81073 0.65219 0.59116 0.0
C7689 C 0.80136 0.65914 0.59353 0.0
C7690 C 0.81203 0.6418 0.59667 0.0
C7691 C 0.80389 0.63813 0.60446 0.0
C7692 C 0.79445 0.64495 0.60667 0.0
H7693 H 0.78692 0.60312 0.66094 0.0
H7694 H 0.78931 0.61298 0.64308 0.0
C7695 C 0.79319 0.65534 0.60127 0.0
C7696 C 0.80556 0.62772 0.61117 0.0
H7697 H 0.7912 0.60444 0.62022 0.0
C7698 C 0.81452 0.62742 0.61893 0.0
C7699 C 0.79744 0.61896 0.61121 0.0
C7700 C 0.78804 0.61849 0.60261 0.0
C7701 C 0.81494 0.61919 0.62746 0.0
C7702 C 0.80622 0.61103 0.62811 0.0
C7703 C 0.79782 0.61076 0.61974 0.0
C7704 C 0.80458 0.60409 0.63837 0.0
C7705 C 0.82413 0.61985 0.63628 0.0
C7706 C 0.81228 0.59565 0.64154 0.0
C7707 C 0.81094 0.58995 0.65183 0.0
C7708 C 0.8019 0.59267 0.65908 0.0
C7709 C 0.79403 0.60087 0.65563 0.0
C7710 C 0.79535 0.60649 0.64538 0.0
H7711 H 0.82968 0.62734 0.6351 0.0
H7712 H 0.82036 0.62023 0.64486 0.0
H7713 H 0.82945 0.61214 0.63583 0.0
H7714 H 0.8194 0.59361 0.63616 0.0
H7715 H 0.81713 0.58364 0.65423 0.0
H7716 H 0.31651 0.78579 0.60416 0.0
H7717 H 0.33441 0.7882 0.61399 0.0
H7718 H 0.3416 0.81786 0.59409 0.0
H7719 H 0.32351 0.81556 0.58415 0.0
H7720 H 0.35727 0.78968 0.60517 0.0
H7721 H 0.34307 0.82864 0.62766 0.0
H7722 H 0.33313 0.8193 0.62082 0.0
H7723 H 0.34212 0.8282 0.61248 0.0
C7724 C 0.32188 0.79281 0.6018 0.0
C7725 C 0.31851 0.80055 0.59343 0.0
C7726 C 0.33215 0.79414 0.6074 0.0
C7727 C 0.33927 0.80325 0.60482 0.0
C7728 C 0.33615 0.81084 0.59626 0.0
H7729 H 0.39337 0.81678 0.65431 0.0
H7730 H 0.3833 0.81855 0.63626 0.0
C7731 C 0.32584 0.80949 0.59059 0.0
C7732 C 0.34962 0.80488 0.61163 0.0
H7733 H 0.35949 0.8198 0.63424 0.0
C7734 C 0.35792 0.79641 0.61136 0.0
C7735 C 0.35048 0.81373 0.61961 0.0
C7736 C 0.34174 0.823 0.62027 0.0
C7737 C 0.36664 0.79614 0.61937 0.0
C7738 C 0.36692 0.80443 0.62796 0.0
C7739 C 0.3592 0.81343 0.62766 0.0
C7740 C 0.37392 0.80298 0.63821 0.0
C7741 C 0.37518 0.78669 0.61889 0.0
C7742 C 0.37192 0.79368 0.64528 0.0
C7743 C 0.37754 0.79269 0.65558 0.0
C7744 C 0.38529 0.801 0.65905 0.0
C7745 C 0.38748 0.81021 0.65185 0.0
C7746 C 0.38175 0.81124 0.64155 0.0
H7747 H 0.37624 0.78352 0.61012 0.0
H7748 H 0.38354 0.78947 0.62215 0.0
H7749 H 0.37217 0.77955 0.62416 0.0
H7750 H 0.36573 0.78734 0.64298 0.0
H7751 H 0.37566 0.78549 0.6609 0.0
H7752 H 0.19264 0.31702 0.60421 0.0
H7753 H 0.19031 0.33512 0.6137 0.0
H7754 H 0.16079 0.34215 0.59352 0.0
H7755 H 0.16301 0.32388 0.58391 0.0
H7756 H 0.18887 0.35795 0.60445 0.0
H7757 H 0.14992 0.34397 0.6271 0.0
H7758 H 0.15929 0.33394 0.62045 0.0
H7759 H 0.15043 0.3428 0.61194 0.0
C7760 C 0.18567 0.3224 0.6017 0.0
C7761 C 0.17794 0.31894 0.59337 0.0
C7762 C 0.18439 0.33278 0.60711 0.0
C7763 C 0.17534 0.33991 0.60436 0.0
C7764 C 0.16778 0.3367 0.59581 0.0
H7765 H 0.16228 0.39372 0.65422 0.0
H7766 H 0.16026 0.38393 0.63603 0.0
C7767 C 0.16908 0.32628 0.59033 0.0
C7768 C 0.1737 0.35034 0.61103 0.0
H7769 H 0.15892 0.3603 0.63368 0.0
C7770 C 0.18217 0.35863 0.61067 0.0
C7771 C 0.16488 0.35126 0.61904 0.0
C7772 C 0.15559 0.34254 0.61976 0.0
C7773 C 0.1825 0.36738 0.61865 0.0
C7774 C 0.17427 0.36768 0.6273 0.0
C7775 C 0.16525 0.35999 0.62706 0.0
C7776 C 0.17589 0.37458 0.6376 0.0
C7777 C 0.19195 0.37591 0.61808 0.0
C7778 C 0.1853 0.37249 0.6445 0.0
C7779 C 0.18643 0.37794 0.65487 0.0
C7780 C 0.17815 0.3856 0.65859 0.0
C7781 C 0.16882 0.38789 0.65156 0.0
C7782 C 0.16765 0.38233 0.64118 0.0
H7783 H 0.19496 0.37704 0.60926 0.0
H7784 H 0.18925 0.38424 0.62146 0.0
H7785 H 0.19919 0.37284 0.62319 0.0
H7786 H 0.19161 0.36634 0.64202 0.0
H7787 H 0.19372 0.37599 0.66005 0.0
H7788 H 0.65508 0.16211 0.58424 0.0
H7789 H 0.63691 0.15988 0.59403 0.0
H7790 H 0.64269 0.19119 0.61179 0.0
H7791 H 0.66069 0.1935 0.60212 0.0
H7792 H 0.63466 0.1583 0.61756 0.0
H7793 H 0.60985 0.19434 0.60142 0.0
H7794 H 0.6221 0.18886 0.59411 0.0
H7795 H 0.62375 0.19867 0.60564 0.0
C7796 C 0.65238 0.1686 0.5901 0.0
C7797 C 0.65935 0.17796 0.59243 0.0
C7798 C 0.64201 0.16732 0.59566 0.0
C7799 C 0.63838 0.17547 0.60348 0.0
C7800 C 0.6452 0.18493 0.60559 0.0
H7801 H 0.60505 0.19111 0.66146 0.0
H7802 H 0.61476 0.18896 0.64346 0.0
C7803 C 0.65555 0.18618 0.60013 0.0
C7804 C 0.62813 0.1737 0.61042 0.0
H7805 H 0.60521 0.18801 0.62047 0.0
C7806 C 0.62799 0.16458 0.61799 0.0
C7807 C 0.61941 0.18186 0.61088 0.0
C7808 C 0.61871 0.19142 0.60248 0.0
C7809 C 0.62 0.16403 0.62674 0.0
C7810 C 0.61193 0.17278 0.62782 0.0
C7811 C 0.61147 0.18136 0.61966 0.0
C7812 C 0.60527 0.17421 0.63828 0.0
C7813 C 0.6208 0.15464 0.63532 0.0
C7814 C 0.5966 0.16669 0.64126 0.0
C7815 C 0.59099 0.16789 0.65161 0.0
C7816 C 0.59402 0.17661 0.65913 0.0
C7817 C 0.60254 0.18425 0.65593 0.0
C7818 C 0.60807 0.18308 0.64562 0.0
H7819 H 0.62809 0.14894 0.6337 0.0
H7820 H 0.62165 0.15822 0.64395 0.0
H7821 H 0.61294 0.14953 0.63511 0.0
H7822 H 0.59428 0.15984 0.63564 0.0
H7823 H 0.58444 0.16189 0.65381 0.0
H7824 H 0.81658 0.32409 0.39307 0.0
H7825 H 0.81905 0.34199 0.38286 0.0
H7826 H 0.78741 0.33648 0.36562 0.0
H7827 H 0.78486 0.31875 0.3757 0.0
H7828 H 0.82043 0.34367 0.35929 0.0
H7829 H 0.78505 0.36959 0.37517 0.0
H7830 H 0.79034 0.35741 0.38271 0.0
H7831 H 0.78037 0.3557 0.37132 0.0
C7832 C 0.81006 0.32681 0.38724 0.0
C7833 C 0.80054 0.31998 0.38516 0.0
C7834 C 0.81149 0.33703 0.38144 0.0
C7835 C 0.80332 0.34064 0.37363 0.0
C7836 C 0.79369 0.33398 0.3718 0.0
H7837 H 0.78813 0.37284 0.31478 0.0
H7838 H 0.79022 0.36332 0.3329 0.0
C7839 C 0.7923 0.32378 0.3775 0.0
C7840 C 0.80522 0.35068 0.36642 0.0
H7841 H 0.79126 0.3736 0.35592 0.0
C7842 C 0.81427 0.35044 0.35876 0.0
C7843 C 0.79722 0.35953 0.36581 0.0
C7844 C 0.78777 0.36065 0.37429 0.0
C7845 C 0.8149 0.3582 0.34981 0.0
C7846 C 0.80629 0.3664 0.34861 0.0
C7847 C 0.79779 0.36723 0.35683 0.0
C7848 C 0.80494 0.37287 0.33803 0.0
C7849 C 0.82421 0.35703 0.34118 0.0
C7850 C 0.81249 0.3815 0.33498 0.0
C7851 C 0.81131 0.38701 0.32457 0.0
C7852 C 0.80261 0.38391 0.31706 0.0
C7853 C 0.79497 0.3754 0.3203 0.0
C7854 C 0.79611 0.36998 0.33068 0.0
H7855 H 0.82986 0.34976 0.343 0.0
H7856 H 0.82052 0.35591 0.33262 0.0
H7857 H 0.82938 0.36485 0.34106 0.0
H7858 H 0.81931 0.38388 0.3406 0.0
H7859 H 0.81732 0.39354 0.32234 0.0
H7860 H 0.65346 0.80491 0.39569 0.0
H7861 H 0.63549 0.80466 0.3853 0.0
H7862 H 0.65355 0.79775 0.35439 0.0
H7863 H 0.67135 0.79748 0.36474 0.0
H7864 H 0.62673 0.81656 0.36846 0.0
H7865 H 0.6313 0.77247 0.3542 0.0
H7866 H 0.64048 0.77856 0.36472 0.0
H7867 H 0.64337 0.78051 0.34988 0.0
C7868 C 0.65356 0.80333 0.38668 0.0
C7869 C 0.66377 0.80103 0.38105 0.0
C7870 C 0.6433 0.80319 0.38076 0.0
C7871 C 0.64314 0.80086 0.36912 0.0
C7872 C 0.65341 0.79914 0.36343 0.0
H7873 H 0.59672 0.81703 0.31685 0.0
H7874 H 0.60894 0.81773 0.33348 0.0
C7875 C 0.66359 0.79906 0.36935 0.0
C7876 C 0.63233 0.80018 0.3628 0.0
H7877 H 0.61876 0.78414 0.34314 0.0
C7878 C 0.62485 0.8094 0.36306 0.0
C7879 C 0.62964 0.79067 0.35606 0.0
C7880 C 0.63657 0.77995 0.35631 0.0
C7881 C 0.61516 0.80966 0.35618 0.0
C7882 C 0.61315 0.80065 0.34854 0.0
C7883 C 0.62029 0.79116 0.34884 0.0
C7884 C 0.6043 0.80108 0.33961 0.0
C7885 C 0.60722 0.81957 0.35725 0.0
C7886 C 0.59763 0.79149 0.33736 0.0
C7887 C 0.59104 0.79093 0.32758 0.0
C7888 C 0.59071 0.80008 0.32009 0.0
C7889 C 0.59672 0.80996 0.32266 0.0
C7890 C 0.60363 0.81038 0.33224 0.0
H7891 H 0.60715 0.82287 0.36604 0.0
H7892 H 0.61019 0.82652 0.3517 0.0
H7893 H 0.59844 0.81729 0.35484 0.0
H7894 H 0.59796 0.7842 0.34288 0.0
H7895 H 0.58649 0.78321 0.32569 0.0
H7896 H 0.16137 0.65444 0.39342 0.0
H7897 H 0.1591 0.63637 0.38344 0.0
H7898 H 0.19087 0.64183 0.36642 0.0
H7899 H 0.19322 0.65971 0.37628 0.0
H7900 H 0.15793 0.63441 0.35991 0.0
H7901 H 0.19331 0.60885 0.37633 0.0
H7902 H 0.18791 0.6211 0.3837 0.0
H7903 H 0.19796 0.62272 0.37237 0.0
C7904 C 0.16796 0.65167 0.3877 0.0
C7905 C 0.17746 0.65853 0.38561 0.0
C7906 C 0.16665 0.64136 0.38202 0.0
C7907 C 0.17491 0.63768 0.37434 0.0
C7908 C 0.18452 0.64437 0.3725 0.0
H7909 H 0.19114 0.60507 0.31612 0.0
H7910 H 0.18881 0.61451 0.33425 0.0
C7911 C 0.18579 0.65467 0.37807 0.0
C7912 C 0.17311 0.62755 0.36723 0.0
H7913 H 0.1873 0.60463 0.35705 0.0
C7914 C 0.16413 0.62767 0.35949 0.0
C7915 C 0.18117 0.61874 0.36677 0.0
C7916 C 0.19056 0.61777 0.37533 0.0
C7917 C 0.16364 0.61984 0.35059 0.0
C7918 C 0.1723 0.61168 0.34953 0.0
C7919 C 0.18072 0.61096 0.35785 0.0
C7920 C 0.17383 0.60517 0.33898 0.0
C7921 C 0.15441 0.62092 0.34185 0.0
C7922 C 0.16623 0.59667 0.33572 0.0
C7923 C 0.16753 0.59122 0.32529 0.0
C7924 C 0.17643 0.59424 0.31799 0.0
C7925 C 0.18415 0.60258 0.32147 0.0
C7926 C 0.18287 0.60795 0.33186 0.0
H7927 H 0.14879 0.62826 0.34348 0.0
H7928 H 0.15817 0.62184 0.3333 0.0
H7929 H 0.14918 0.61313 0.34183 0.0
H7930 H 0.15924 0.59436 0.34116 0.0
H7931 H 0.16146 0.5848 0.32287 0.0
H7932 H 0.31549 0.19246 0.37237 0.0
H7933 H 0.33335 0.19011 0.36241 0.0
H7934 H 0.3415 0.16142 0.38333 0.0
H7935 H 0.3235 0.16365 0.39339 0.0
H7936 H 0.35636 0.18951 0.37127 0.0
H7937 H 0.34301 0.14954 0.35007 0.0
H7938 H 0.33287 0.1589 0.35658 0.0
H7939 H 0.34203 0.15046 0.36522 0.0
C7940 C 0.32106 0.18566 0.37492 0.0
C7941 C 0.31801 0.17819 0.38362 0.0
C7942 C 0.3313 0.18437 0.36924 0.0
C7943 C 0.33868 0.17555 0.37209 0.0
C7944 C 0.33585 0.16822 0.38095 0.0
H7945 H 0.39333 0.16164 0.32325 0.0
H7946 H 0.38317 0.16017 0.34129 0.0
C7947 C 0.32558 0.16953 0.3867 0.0
C7948 C 0.34904 0.17395 0.3653 0.0
H7949 H 0.3593 0.15846 0.34325 0.0
C7950 C 0.35717 0.18259 0.36531 0.0
C7951 C 0.35011 0.16485 0.35762 0.0
C7952 C 0.34156 0.15539 0.35726 0.0
C7953 C 0.36592 0.18275 0.35734 0.0
C7954 C 0.36641 0.17417 0.34904 0.0
C7955 C 0.35885 0.16505 0.34961 0.0
C7956 C 0.37341 0.17543 0.33877 0.0
C7957 C 0.37428 0.19237 0.35754 0.0
C7958 C 0.37122 0.18444 0.3314 0.0
C7959 C 0.37689 0.18525 0.32112 0.0
C7960 C 0.38488 0.17704 0.31796 0.0
C7961 C 0.38725 0.16812 0.32546 0.0
C7962 C 0.38147 0.16726 0.33575 0.0
H7963 H 0.37524 0.19586 0.36621 0.0
H7964 H 0.3827 0.18964 0.35442 0.0
H7965 H 0.37117 0.19927 0.35201 0.0
H7966 H 0.36485 0.19069 0.33346 0.0
H7967 H 0.37486 0.19224 0.31557 0.0
H7968 H 0.66094 0.78465 0.60267 0.0
H7969 H 0.64313 0.78699 0.61266 0.0
H7970 H 0.63701 0.81822 0.59492 0.0
H7971 H 0.655 0.81596 0.5848 0.0
H7972 H 0.63514 0.8199 0.61847 0.0
H7973 H 0.61014 0.78373 0.6029 0.0
H7974 H 0.62412 0.77943 0.6069 0.0
H7975 H 0.62227 0.78919 0.59537 0.0
C7976 C 0.65577 0.79195 0.60075 0.0
C7977 C 0.65942 0.80014 0.59296 0.0
C7978 C 0.64552 0.79322 0.6064 0.0
C7979 C 0.63866 0.80267 0.60438 0.0
C7980 C 0.64214 0.8108 0.59648 0.0
H7981 H 0.58504 0.81606 0.65513 0.0
H7982 H 0.59482 0.8181 0.63694 0.0
C7983 C 0.65241 0.80949 0.59072 0.0
C7984 C 0.62853 0.80445 0.6115 0.0
H7985 H 0.60585 0.79011 0.62203 0.0
C7986 C 0.6285 0.8136 0.61904 0.0
C7987 C 0.61985 0.79626 0.61215 0.0
C7988 C 0.61902 0.78667 0.6038 0.0
C7989 C 0.62066 0.81417 0.62793 0.0
C7990 C 0.61265 0.8054 0.62918 0.0
C7991 C 0.61208 0.79677 0.62107 0.0
C7992 C 0.60614 0.80403 0.63975 0.0
C7993 C 0.62156 0.82362 0.63644 0.0
C7994 C 0.60919 0.79536 0.6472 0.0
C7995 C 0.6037 0.79418 0.65754 0.0
C7996 C 0.59497 0.80164 0.66063 0.0
C7997 C 0.59174 0.8102 0.65301 0.0
C7998 C 0.59732 0.8114 0.64264 0.0
H7999 H 0.62871 0.82942 0.6346 0.0
H8000 H 0.61361 0.82859 0.63645 0.0
H8001 H 0.62271 0.82007 0.64505 0.0
H8002 H 0.616 0.7896 0.6451 0.0
H8003 H 0.60637 0.78746 0.66315 0.0
H8004 H 0.58639 0.16093 0.32235 0.0
H8005 H 0.59602 0.15873 0.34061 0.0
H8006 H 0.61375 0.19008 0.33502 0.0
H8007 H 0.60428 0.19234 0.31692 0.0
H8008 H 0.61985 0.15752 0.34331 0.0
H8009 H 0.60219 0.19322 0.36764 0.0
H8010 H 0.59525 0.18742 0.35532 0.0
H8011 H 0.60655 0.19751 0.35377 0.0
C8012 C 0.59223 0.16742 0.3251 0.0
C8013 C 0.59459 0.1768 0.31817 0.0
C8014 C 0.5977 0.16615 0.33552 0.0
C8015 C 0.60543 0.17434 0.33924 0.0
C8016 C 0.60762 0.18378 0.33243 0.0
H8017 H 0.6621 0.19154 0.37395 0.0
H8018 H 0.6443 0.18898 0.36395 0.0
C8019 C 0.60227 0.18501 0.32202 0.0
C8020 C 0.61213 0.17272 0.34966 0.0
H8021 H 0.62121 0.18729 0.37281 0.0
C8022 C 0.61994 0.1638 0.34999 0.0
C8023 C 0.61215 0.18089 0.35838 0.0
C8024 C 0.60349 0.19023 0.35883 0.0
C8025 C 0.62851 0.16349 0.35819 0.0
C8026 C 0.62915 0.17226 0.36628 0.0
C8027 C 0.62073 0.18061 0.36654 0.0
C8028 C 0.63942 0.17399 0.37319 0.0
C8029 C 0.63737 0.15433 0.3576 0.0
C8030 C 0.64247 0.16648 0.38184 0.0
C8031 C 0.65271 0.16792 0.38762 0.0
C8032 C 0.66003 0.17687 0.38478 0.0
C8033 C 0.65673 0.18452 0.37631 0.0
C8034 C 0.64652 0.1831 0.37061 0.0
H8035 H 0.63612 0.14864 0.35023 0.0
H8036 H 0.64593 0.15815 0.35703 0.0
H8037 H 0.63706 0.14917 0.36541 0.0
H8038 H 0.63702 0.15945 0.384 0.0
H8039 H 0.65499 0.1619 0.39412 0.0
H8040 H 0.81716 0.58611 0.32265 0.0
H8041 H 0.81959 0.59624 0.34061 0.0
H8042 H 0.78732 0.6125 0.33577 0.0
H8043 H 0.7848 0.60249 0.31801 0.0
H8044 H 0.82032 0.6197 0.34264 0.0
H8045 H 0.78566 0.60261 0.36872 0.0
H8046 H 0.79093 0.59538 0.35633 0.0
H8047 H 0.78068 0.60656 0.35497 0.0
C8048 C 0.8105 0.59171 0.32552 0.0
C8049 C 0.8008 0.59352 0.31888 0.0
C8050 C 0.81191 0.59747 0.33577 0.0
C8051 C 0.80355 0.60496 0.3396 0.0
C8052 C 0.79376 0.60655 0.33312 0.0
H8053 H 0.78767 0.66321 0.37294 0.0
H8054 H 0.78992 0.64531 0.36301 0.0
C8055 C 0.79238 0.60089 0.32289 0.0
C8056 C 0.80537 0.61212 0.3497 0.0
H8057 H 0.79142 0.62197 0.37292 0.0
C8058 C 0.81423 0.62 0.34948 0.0
C8059 C 0.79745 0.61242 0.35865 0.0
C8060 C 0.78822 0.6037 0.35975 0.0
C8061 C 0.81474 0.62885 0.35737 0.0
C8062 C 0.80621 0.62972 0.36568 0.0
C8063 C 0.7979 0.62131 0.36647 0.0
C8064 C 0.80475 0.64015 0.37238 0.0
C8065 C 0.82385 0.6377 0.35624 0.0
C8066 C 0.81229 0.6431 0.38104 0.0
C8067 C 0.81101 0.65337 0.38679 0.0
C8068 C 0.80221 0.66085 0.38389 0.0
C8069 C 0.79458 0.6577 0.37535 0.0
C8070 C 0.79582 0.64745 0.36969 0.0
H8071 H 0.82948 0.63611 0.34891 0.0
H8072 H 0.81996 0.64619 0.35528 0.0
H8073 H 0.82908 0.63784 0.36403 0.0
H8074 H 0.8192 0.63751 0.38326 0.0
H8075 H 0.81702 0.65553 0.39334 0.0
H8076 H 0.39251 0.81542 0.32297 0.0
H8077 H 0.38235 0.81728 0.34096 0.0
H8078 H 0.36404 0.78659 0.33377 0.0
H8079 H 0.37407 0.78465 0.31593 0.0
H8080 H 0.35858 0.8191 0.34303 0.0
H8081 H 0.37445 0.78204 0.36655 0.0
H8082 H 0.38185 0.78796 0.35458 0.0
H8083 H 0.37021 0.77838 0.35246 0.0
C8084 C 0.38643 0.80899 0.32531 0.0
C8085 C 0.38408 0.79989 0.318 0.0
C8086 C 0.38064 0.81007 0.33558 0.0
C8087 C 0.37259 0.80197 0.33877 0.0
C8088 C 0.3704 0.7928 0.33159 0.0
H8089 H 0.3149 0.78604 0.37337 0.0
H8090 H 0.33262 0.7881 0.36315 0.0
C8091 C 0.37608 0.79176 0.32133 0.0
C8092 C 0.36562 0.80345 0.34905 0.0
H8093 H 0.35572 0.78868 0.37172 0.0
C8094 C 0.35815 0.81265 0.34952 0.0
C8095 C 0.36516 0.79505 0.35752 0.0
C8096 C 0.37344 0.78536 0.35783 0.0
C8097 C 0.34951 0.8131 0.35765 0.0
C8098 C 0.34846 0.80418 0.36553 0.0
C8099 C 0.35651 0.79547 0.36561 0.0
C8100 C 0.33817 0.80281 0.37248 0.0
C8101 C 0.34104 0.82262 0.35721 0.0
C8102 C 0.33549 0.81033 0.38125 0.0
C8103 C 0.32529 0.80918 0.38717 0.0
C8104 C 0.31763 0.80051 0.38435 0.0
C8105 C 0.32054 0.79286 0.37573 0.0
C8106 C 0.3307 0.79399 0.36989 0.0
H8107 H 0.34247 0.82833 0.34989 0.0
H8108 H 0.33232 0.81918 0.35668 0.0
H8109 H 0.34163 0.8277 0.36507 0.0
H8110 H 0.34121 0.81713 0.38343 0.0
H8111 H 0.32331 0.81519 0.39378 0.0
H8112 H 0.1614 0.39307 0.32278 0.0
H8113 H 0.15904 0.38283 0.34067 0.0
H8114 H 0.19084 0.36589 0.33516 0.0
H8115 H 0.19329 0.376 0.31744 0.0
H8116 H 0.15789 0.35924 0.34246 0.0
H8117 H 0.19317 0.37565 0.36821 0.0
H8118 H 0.1878 0.38306 0.35599 0.0
H8119 H 0.19784 0.37174 0.35433 0.0
C8120 C 0.16797 0.3873 0.32549 0.0
C8121 C 0.17752 0.38532 0.31867 0.0
C8122 C 0.1666 0.38147 0.3357 0.0
C8123 C 0.17485 0.37375 0.33932 0.0
C8124 C 0.1845 0.372 0.33266 0.0
H8125 H 0.18888 0.31433 0.37103 0.0
H8126 H 0.18668 0.33218 0.36103 0.0
C8127 C 0.18583 0.37772 0.32246 0.0
C8128 C 0.17304 0.36657 0.3494 0.0
H8129 H 0.18707 0.35641 0.37243 0.0
C8130 C 0.16404 0.35884 0.34924 0.0
C8131 C 0.18105 0.36612 0.35826 0.0
C8132 C 0.19044 0.37468 0.35928 0.0
C8133 C 0.16346 0.35 0.35713 0.0
C8134 C 0.17207 0.34896 0.36533 0.0
C8135 C 0.18053 0.35722 0.36606 0.0
C8136 C 0.17344 0.33848 0.37193 0.0
C8137 C 0.1542 0.34131 0.35613 0.0
C8138 C 0.16674 0.33619 0.38142 0.0
C8139 C 0.16798 0.32594 0.38722 0.0
C8140 C 0.17591 0.31786 0.38355 0.0
C8141 C 0.18267 0.32032 0.37409 0.0
C8142 C 0.18146 0.33053 0.36837 0.0
H8143 H 0.14799 0.34346 0.34942 0.0
H8144 H 0.15794 0.33292 0.3542 0.0
H8145 H 0.14965 0.34056 0.3643 0.0
H8146 H 0.16051 0.34227 0.38427 0.0
H8147 H 0.16265 0.32431 0.39447 0.0
H8148 H 0.37196 0.19012 0.66283 0.0
H8149 H 0.3623 0.18779 0.64481 0.0
H8150 H 0.3836 0.15933 0.63681 0.0
H8151 H 0.39342 0.16157 0.65497 0.0
H8152 H 0.37261 0.18711 0.6217 0.0
H8153 H 0.34962 0.14798 0.63456 0.0
H8154 H 0.35553 0.15744 0.64497 0.0
H8155 H 0.36471 0.14886 0.63651 0.0
C8156 C 0.37465 0.18336 0.65726 0.0
C8157 C 0.38343 0.17598 0.66038 0.0
C8158 C 0.36914 0.18209 0.64694 0.0
C8159 C 0.37222 0.17337 0.63954 0.0
C8160 C 0.38108 0.16607 0.64247 0.0
H8161 H 0.32327 0.1613 0.5847 0.0
H8162 H 0.34123 0.15897 0.59485 0.0
C8163 C 0.38668 0.16737 0.65283 0.0
C8164 C 0.36573 0.17192 0.62899 0.0
H8165 H 0.34314 0.15746 0.61843 0.0
C8166 C 0.36635 0.18047 0.62081 0.0
C8167 C 0.35767 0.16318 0.62781 0.0
C8168 C 0.35675 0.15382 0.6364 0.0
C8169 C 0.35856 0.18095 0.6119 0.0
C8170 C 0.34982 0.17282 0.61133 0.0
C8171 C 0.34982 0.16372 0.61894 0.0
C8172 C 0.33969 0.1746 0.60423 0.0
C8173 C 0.35942 0.19047 0.60347 0.0
C8174 C 0.33289 0.18411 0.60619 0.0
C8175 C 0.32266 0.18541 0.60052 0.0
C8176 C 0.31896 0.17721 0.59276 0.0
C8177 C 0.3259 0.16778 0.5906 0.0
C8178 C 0.33615 0.16644 0.59637 0.0
H8179 H 0.36832 0.19335 0.60253 0.0
H8180 H 0.35615 0.1879 0.59506 0.0
H8181 H 0.35437 0.19776 0.60652 0.0
H8182 H 0.33533 0.19037 0.61241 0.0
H8183 H 0.31755 0.19278 0.60238 0.0
H8184 H 0.78585 0.37401 0.66079 0.0
H8185 H 0.78834 0.36466 0.64264 0.0
H8186 H 0.81816 0.38461 0.63624 0.0
H8187 H 0.81578 0.39407 0.65456 0.0
H8188 H 0.79027 0.3743 0.61988 0.0
H8189 H 0.82857 0.35078 0.63421 0.0
H8190 H 0.81909 0.35736 0.64419 0.0
H8191 H 0.82822 0.36592 0.63566 0.0
C8192 C 0.79292 0.37649 0.65554 0.0
C8193 C 0.80068 0.38473 0.65919 0.0
C8194 C 0.7943 0.37117 0.64513 0.0
C8195 C 0.80347 0.3739 0.63816 0.0
C8196 C 0.81108 0.38234 0.64156 0.0
H8197 H 0.81672 0.32416 0.58432 0.0
H8198 H 0.81885 0.34232 0.59416 0.0
C8199 C 0.80968 0.38774 0.65201 0.0
C8200 C 0.80517 0.36733 0.62767 0.0
H8201 H 0.8197 0.34452 0.61768 0.0
C8202 C 0.79687 0.36797 0.61923 0.0
C8203 C 0.81386 0.35917 0.6268 0.0
C8204 C 0.82296 0.35816 0.63568 0.0
C8205 C 0.79655 0.36011 0.61037 0.0
C8206 C 0.80462 0.35129 0.6101 0.0
C8207 C 0.8135 0.35126 0.61796 0.0
C8208 C 0.80292 0.34109 0.60305 0.0
C8209 C 0.78728 0.36099 0.60167 0.0
C8210 C 0.79329 0.33441 0.60483 0.0
C8211 C 0.7921 0.32406 0.59935 0.0
C8212 C 0.80053 0.32014 0.59196 0.0
C8213 C 0.81006 0.32697 0.58994 0.0
C8214 C 0.81129 0.33734 0.59553 0.0
H8215 H 0.78454 0.36991 0.60055 0.0
H8216 H 0.79004 0.3576 0.59337 0.0
H8217 H 0.77984 0.35607 0.60457 0.0
H8218 H 0.78686 0.33701 0.61081 0.0
H8219 H 0.78465 0.31903 0.60109 0.0
H8220 H 0.19031 0.60716 0.66421 0.0
H8221 H 0.18826 0.61691 0.6462 0.0
H8222 H 0.16033 0.59522 0.63739 0.0
H8223 H 0.1623 0.58531 0.65552 0.0
H8224 H 0.18819 0.60645 0.62294 0.0
H8225 H 0.14867 0.62921 0.63502 0.0
H8226 H 0.15806 0.62351 0.64561 0.0
H8227 H 0.14967 0.61416 0.63715 0.0
C8228 C 0.18373 0.60441 0.65847 0.0
C8229 C 0.17643 0.59548 0.66134 0.0
C8230 C 0.18261 0.60997 0.64815 0.0
C8231 C 0.17412 0.6068 0.64053 0.0
C8232 C 0.16689 0.59781 0.64323 0.0
H8233 H 0.16206 0.65468 0.58474 0.0
H8234 H 0.15987 0.63697 0.59534 0.0
C8235 C 0.16805 0.59216 0.65356 0.0
C8236 C 0.17284 0.61327 0.62994 0.0
H8237 H 0.15826 0.63553 0.61887 0.0
C8238 C 0.18151 0.61263 0.62188 0.0
C8239 C 0.16404 0.62122 0.62855 0.0
C8240 C 0.15455 0.62217 0.63701 0.0
C8241 C 0.182 0.62027 0.61285 0.0
C8242 C 0.17376 0.62889 0.61203 0.0
C8243 C 0.1646 0.62894 0.61956 0.0
C8244 C 0.17546 0.63887 0.6047 0.0
C8245 C 0.19161 0.61934 0.60453 0.0
C8246 C 0.18491 0.64579 0.6065 0.0
C8247 C 0.18615 0.65588 0.60057 0.0
C8248 C 0.17793 0.65931 0.59271 0.0
C8249 C 0.16856 0.65225 0.59071 0.0
C8250 C 0.16729 0.64214 0.59674 0.0
H8251 H 0.19458 0.61046 0.60377 0.0
H8252 H 0.18909 0.62243 0.59603 0.0
H8253 H 0.19883 0.62451 0.60756 0.0
H8254 H 0.19118 0.64357 0.61279 0.0
H8255 H 0.19347 0.66109 0.60232 0.0
loop_
_geom_bond_atom_site_label_1
_geom_bond_atom_site_label_2
_geom_bond_distance
_geom_bond_site_symmetry_2
_ccdc_geom_bond_type
C0 O1 1.306 . S
C0 O3 1.160 . S
O1 C0 1.306 . S
O1 Cd2 2.228 . S
Cd2 O1 2.228 . S
Cd2 O6 2.273 . S
Cd2 O10 2.277 . S
O3 C0 1.160 . S
O3 Cd4 2.203 . S
Cd4 O3 2.203 . S
Cd4 O6 2.411 . S
Cd4 O7 2.333 . S
Cd4 O8 2.352 . S
Cd4 O12 2.277 . S
Cd4 O13 2.356 . S
C5 O10 1.209 . S
C5 O12 1.226 . S
O6 Cd2 2.273 . S
O6 Cd4 2.411 . S
O6 C9 1.320 . S
O7 Cd4 2.333 . S
O7 C9 1.214 . S
O8 Cd4 2.352 . S
O8 C11 1.258 . S
C9 O6 1.320 . S
C9 O7 1.214 . S
O10 Cd2 2.277 . S
O10 C5 1.209 . S
C11 O8 1.258 . S
C11 O13 1.282 . S
O12 Cd4 2.277 . S
O12 C5 1.226 . S
O13 Cd4 2.356 . S
O13 C11 1.282 . S
C14 O15 1.306 . S
C14 O17 1.160 . S
O15 C14 1.306 . S
O15 Cd16 2.228 . S
Cd16 O15 2.228 . S
Cd16 O20 2.273 . S
Cd16 O24 2.277 . S
O17 C14 1.160 . S
O17 Cd18 2.203 . S
Cd18 O17 2.203 . S
Cd18 O20 2.411 . S
Cd18 O21 2.333 . S
Cd18 O22 2.352 . S
Cd18 O26 2.277 . S
Cd18 O27 2.356 . S
C19 O24 1.209 . S
C19 O26 1.226 . S
O20 Cd16 2.273 . S
O20 Cd18 2.411 . S
O20 C23 1.320 . S
O21 Cd18 2.333 . S
O21 C23 1.214 . S
O22 Cd18 2.352 . S
O22 C25 1.258 . S
C23 O20 1.320 . S
C23 O21 1.214 . S
O24 Cd16 2.277 . S
O24 C19 1.209 . S
C25 O22 1.258 . S
C25 O27 1.282 . S
O26 Cd18 2.277 . S
O26 C19 1.226 . S
O27 Cd18 2.356 . S
O27 C25 1.282 . S
C28 O29 1.306 . S
C28 O31 1.160 . S
O29 C28 1.306 . S
O29 Cd30 2.228 . S
Cd30 O29 2.228 . S
Cd30 O34 2.273 . S
Cd30 O38 2.277 . S
O31 C28 1.160 . S
O31 Cd32 2.203 . S
Cd32 O31 2.203 . S
Cd32 O34 2.411 . S
Cd32 O35 2.333 . S
Cd32 O36 2.352 . S
Cd32 O40 2.277 . S
Cd32 O41 2.356 . S
C33 O38 1.209 . S
C33 O40 1.226 . S
O34 Cd30 2.273 . S
O34 Cd32 2.411 . S
O34 C37 1.320 . S
O35 Cd32 2.333 . S
O35 C37 1.214 . S
O36 Cd32 2.352 . S
O36 C39 1.258 . S
C37 O34 1.320 . S
C37 O35 1.214 . S
O38 Cd30 2.277 . S
O38 C33 1.209 . S
C39 O36 1.258 . S
C39 O41 1.282 . S
O40 Cd32 2.277 . S
O40 C33 1.226 . S
O41 Cd32 2.356 . S
O41 C39 1.282 . S
C42 O43 1.306 . S
C42 O45 1.160 . S
O43 C42 1.306 . S
O43 Cd44 2.228 . S
Cd44 O43 2.228 . S
Cd44 O48 2.273 . S
Cd44 O52 2.277 . S
O45 C42 1.160 . S
O45 Cd46 2.203 . S
Cd46 O45 2.203 . S
Cd46 O48 2.411 . S
Cd46 O49 2.333 . S
Cd46 O50 2.352 . S
Cd46 O54 2.277 . S
Cd46 O55 2.356 . S
C47 O52 1.209 . S
C47 O54 1.226 . S
O48 Cd44 2.273 . S
O48 Cd46 2.411 . S
O48 C51 1.320 . S
O49 Cd46 2.333 . S
O49 C51 1.214 . S
O50 Cd46 2.352 . S
O50 C53 1.258 . S
C51 O48 1.320 . S
C51 O49 1.214 . S
O52 Cd44 2.277 . S
O52 C47 1.209 . S
C53 O50 1.258 . S
C53 O55 1.282 . S
O54 Cd46 2.277 . S
O54 C47 1.226 . S
O55 Cd46 2.356 . S
O55 C53 1.282 . S
C56 O57 1.306 . S
C56 O59 1.160 . S
O57 C56 1.306 . S
O57 Cd58 2.228 . S
Cd58 O57 2.228 . S
Cd58 O62 2.273 . S
Cd58 O66 2.277 . S
O59 C56 1.160 . S
O59 Cd60 2.203 . S
Cd60 O59 2.203 . S
Cd60 O62 2.411 . S
Cd60 O63 2.333 . S
Cd60 O64 2.352 . S
Cd60 O68 2.277 . S
Cd60 O69 2.356 . S
C61 O66 1.209 . S
C61 O68 1.226 . S
O62 Cd58 2.273 . S
O62 Cd60 2.411 . S
O62 C65 1.320 . S
O63 Cd60 2.333 . S
O63 C65 1.214 . S
O64 Cd60 2.352 . S
O64 C67 1.258 . S
C65 O62 1.320 . S
C65 O63 1.214 . S
O66 Cd58 2.277 . S
O66 C61 1.209 . S
C67 O64 1.258 . S
C67 O69 1.282 . S
O68 Cd60 2.277 . S
O68 C61 1.226 . S
O69 Cd60 2.356 . S
O69 C67 1.282 . S
C70 O71 1.306 . S
C70 O73 1.160 . S
O71 C70 1.306 . S
O71 Cd72 2.228 . S
Cd72 O71 2.228 . S
Cd72 O76 2.273 . S
Cd72 O80 2.277 . S
O73 C70 1.160 . S
O73 Cd74 2.203 . S
Cd74 O73 2.203 . S
Cd74 O76 2.411 . S
Cd74 O77 2.333 . S
Cd74 O78 2.352 . S
Cd74 O82 2.277 . S
Cd74 O83 2.356 . S
C75 O80 1.209 . S
C75 O82 1.226 . S
O76 Cd72 2.273 . S
O76 Cd74 2.411 . S
O76 C79 1.320 . S
O77 Cd74 2.333 . S
O77 C79 1.214 . S
O78 Cd74 2.352 . S
O78 C81 1.258 . S
C79 O76 1.320 . S
C79 O77 1.214 . S
O80 Cd72 2.277 . S
O80 C75 1.209 . S
C81 O78 1.258 . S
C81 O83 1.282 . S
O82 Cd74 2.277 . S
O82 C75 1.226 . S
O83 Cd74 2.356 . S
O83 C81 1.282 . S
C84 O85 1.306 . S
C84 O87 1.160 . S
O85 C84 1.306 . S
O85 Cd86 2.228 . S
Cd86 O85 2.228 . S
Cd86 O90 2.273 . S
Cd86 O94 2.277 . S
O87 C84 1.160 . S
O87 Cd88 2.203 . S
Cd88 O87 2.203 . S
Cd88 O90 2.411 . S
Cd88 O91 2.333 . S
Cd88 O92 2.352 . S
Cd88 O96 2.277 . S
Cd88 O97 2.356 . S
C89 O94 1.209 . S
C89 O96 1.226 . S
O90 Cd86 2.273 . S
O90 Cd88 2.411 . S
O90 C93 1.320 . S
O91 Cd88 2.333 . S
O91 C93 1.214 . S
O92 Cd88 2.352 . S
O92 C95 1.258 . S
C93 O90 1.320 . S
C93 O91 1.214 . S
O94 Cd86 2.277 . S
O94 C89 1.209 . S
C95 O92 1.258 . S
C95 O97 1.282 . S
O96 Cd88 2.277 . S
O96 C89 1.226 . S
O97 Cd88 2.356 . S
O97 C95 1.282 . S
C98 O99 1.306 . S
C98 O101 1.160 . S
O99 C98 1.306 . S
O99 Cd100 2.228 . S
Cd100 O99 2.228 . S
Cd100 O104 2.273 . S
Cd100 O108 2.277 . S
O101 C98 1.160 . S
O101 Cd102 2.203 . S
Cd102 O101 2.203 . S
Cd102 O104 2.411 . S
Cd102 O105 2.333 . S
Cd102 O106 2.352 . S
Cd102 O110 2.277 . S
Cd102 O111 2.356 . S
C103 O108 1.209 . S
C103 O110 1.226 . S
O104 Cd100 2.273 . S
O104 Cd102 2.411 . S
O104 C107 1.320 . S
O105 Cd102 2.333 . S
O105 C107 1.214 . S
O106 Cd102 2.352 . S
O106 C109 1.258 . S
C107 O104 1.320 . S
C107 O105 1.214 . S
O108 Cd100 2.277 . S
O108 C103 1.209 . S
C109 O106 1.258 . S
C109 O111 1.282 . S
O110 Cd102 2.277 . S
O110 C103 1.226 . S
O111 Cd102 2.356 . S
O111 C109 1.282 . S
C112 O113 1.306 . S
C112 O115 1.160 . S
O113 C112 1.306 . S
O113 Cd114 2.228 . S
Cd114 O113 2.228 . S
Cd114 O118 2.273 . S
Cd114 O122 2.277 . S
O115 C112 1.160 . S
O115 Cd116 2.203 . S
Cd116 O115 2.203 . S
Cd116 O118 2.411 . S
Cd116 O119 2.333 . S
Cd116 O120 2.352 . S
Cd116 O124 2.277 . S
Cd116 O125 2.356 . S
C117 O122 1.209 . S
C117 O124 1.226 . S
O118 Cd114 2.273 . S
O118 Cd116 2.411 . S
O118 C121 1.320 . S
O119 Cd116 2.333 . S
O119 C121 1.214 . S
O120 Cd116 2.352 . S
O120 C123 1.258 . S
C121 O118 1.320 . S
C121 O119 1.214 . S
O122 Cd114 2.277 . S
O122 C117 1.209 . S
C123 O120 1.258 . S
C123 O125 1.282 . S
O124 Cd116 2.277 . S
O124 C117 1.226 . S
O125 Cd116 2.356 . S
O125 C123 1.282 . S
C126 O127 1.306 . S
C126 O129 1.160 . S
O127 C126 1.306 . S
O127 Cd128 2.228 . S
Cd128 O127 2.228 . S
Cd128 O132 2.273 . S
Cd128 O136 2.277 . S
O129 C126 1.160 . S
O129 Cd130 2.203 . S
Cd130 O129 2.203 . S
Cd130 O132 2.411 . S
Cd130 O133 2.333 . S
Cd130 O134 2.352 . S
Cd130 O138 2.277 . S
Cd130 O139 2.356 . S
C131 O136 1.209 . S
C131 O138 1.226 . S
O132 Cd128 2.273 . S
O132 Cd130 2.411 . S
O132 C135 1.320 . S
O133 Cd130 2.333 . S
O133 C135 1.214 . S
O134 Cd130 2.352 . S
O134 C137 1.258 . S
C135 O132 1.320 . S
C135 O133 1.214 . S
O136 Cd128 2.277 . S
O136 C131 1.209 . S
C137 O134 1.258 . S
C137 O139 1.282 . S
O138 Cd130 2.277 . S
O138 C131 1.226 . S
O139 Cd130 2.356 . S
O139 C137 1.282 . S
C140 O141 1.306 . S
C140 O143 1.160 . S
O141 C140 1.306 . S
O141 Cd142 2.228 . S
Cd142 O141 2.228 . S
Cd142 O146 2.273 . S
Cd142 O150 2.277 . S
O143 C140 1.160 . S
O143 Cd144 2.203 . S
Cd144 O143 2.203 . S
Cd144 O146 2.411 . S
Cd144 O147 2.333 . S
Cd144 O148 2.352 . S
Cd144 O152 2.277 . S
Cd144 O153 2.356 . S
C145 O150 1.209 . S
C145 O152 1.226 . S
O146 Cd142 2.273 . S
O146 Cd144 2.411 . S
O146 C149 1.320 . S
O147 Cd144 2.333 . S
O147 C149 1.214 . S
O148 Cd144 2.352 . S
O148 C151 1.258 . S
C149 O146 1.320 . S
C149 O147 1.214 . S
O150 Cd142 2.277 . S
O150 C145 1.209 . S
C151 O148 1.258 . S
C151 O153 1.282 . S
O152 Cd144 2.277 . S
O152 C145 1.226 . S
O153 Cd144 2.356 . S
O153 C151 1.282 . S
C154 O155 1.306 . S
C154 O157 1.160 . S
O155 C154 1.306 . S
O155 Cd156 2.228 . S
Cd156 O155 2.228 . S
Cd156 O160 2.273 . S
Cd156 O164 2.277 . S
O157 C154 1.160 . S
O157 Cd158 2.203 . S
Cd158 O157 2.203 . S
Cd158 O160 2.411 . S
Cd158 O161 2.333 . S
Cd158 O162 2.352 . S
Cd158 O166 2.277 . S
Cd158 O167 2.356 . S
C159 O164 1.209 . S
C159 O166 1.226 . S
O160 Cd156 2.273 . S
O160 Cd158 2.411 . S
O160 C163 1.320 . S
O161 Cd158 2.333 . S
O161 C163 1.214 . S
O162 Cd158 2.352 . S
O162 C165 1.258 . S
C163 O160 1.320 . S
C163 O161 1.214 . S
O164 Cd156 2.277 . S
O164 C159 1.209 . S
C165 O162 1.258 . S
C165 O167 1.282 . S
O166 Cd158 2.277 . S
O166 C159 1.226 . S
O167 Cd158 2.356 . S
O167 C165 1.282 . S
C168 O169 1.306 . S
C168 O171 1.160 . S
O169 C168 1.306 . S
O169 Cd170 2.228 . S
Cd170 O169 2.228 . S
Cd170 O174 2.273 . S
Cd170 O178 2.277 . S
O171 C168 1.160 . S
O171 Cd172 2.203 . S
Cd172 O171 2.203 . S
Cd172 O174 2.411 . S
Cd172 O175 2.333 . S
Cd172 O176 2.352 . S
Cd172 O180 2.277 . S
Cd172 O181 2.356 . S
C173 O178 1.209 . S
C173 O180 1.226 . S
O174 Cd170 2.273 . S
O174 Cd172 2.411 . S
O174 C177 1.320 . S
O175 Cd172 2.333 . S
O175 C177 1.214 . S
O176 Cd172 2.352 . S
O176 C179 1.258 . S
C177 O174 1.320 . S
C177 O175 1.214 . S
O178 Cd170 2.277 . S
O178 C173 1.209 . S
C179 O176 1.258 . S
C179 O181 1.282 . S
O180 Cd172 2.277 . S
O180 C173 1.226 . S
O181 Cd172 2.356 . S
O181 C179 1.282 . S
C182 O183 1.306 . S
C182 O185 1.160 . S
O183 C182 1.306 . S
O183 Cd184 2.228 . S
Cd184 O183 2.228 . S
Cd184 O188 2.273 . S
Cd184 O192 2.277 . S
O185 C182 1.160 . S
O185 Cd186 2.203 . S
Cd186 O185 2.203 . S
Cd186 O188 2.411 . S
Cd186 O189 2.333 . S
Cd186 O190 2.352 . S
Cd186 O194 2.277 . S
Cd186 O195 2.356 . S
C187 O192 1.209 . S
C187 O194 1.226 . S
O188 Cd184 2.273 . S
O188 Cd186 2.411 . S
O188 C191 1.320 . S
O189 Cd186 2.333 . S
O189 C191 1.214 . S
O190 Cd186 2.352 . S
O190 C193 1.258 . S
C191 O188 1.320 . S
C191 O189 1.214 . S
O192 Cd184 2.277 . S
O192 C187 1.209 . S
C193 O190 1.258 . S
C193 O195 1.282 . S
O194 Cd186 2.277 . S
O194 C187 1.226 . S
O195 Cd186 2.356 . S
O195 C193 1.282 . S
C196 O197 1.306 . S
C196 O199 1.160 . S
O197 C196 1.306 . S
O197 Cd198 2.228 . S
Cd198 O197 2.228 . S
Cd198 O202 2.273 . S
Cd198 O206 2.277 . S
O199 C196 1.160 . S
O199 Cd200 2.203 . S
Cd200 O199 2.203 . S
Cd200 O202 2.411 . S
Cd200 O203 2.333 . S
Cd200 O204 2.352 . S
Cd200 O208 2.277 . S
Cd200 O209 2.356 . S
C201 O206 1.209 . S
C201 O208 1.226 . S
O202 Cd198 2.273 . S
O202 Cd200 2.411 . S
O202 C205 1.320 . S
O203 Cd200 2.333 . S
O203 C205 1.214 . S
O204 Cd200 2.352 . S
O204 C207 1.258 . S
C205 O202 1.320 . S
C205 O203 1.214 . S
O206 Cd198 2.277 . S
O206 C201 1.209 . S
C207 O204 1.258 . S
C207 O209 1.282 . S
O208 Cd200 2.277 . S
O208 C201 1.226 . S
O209 Cd200 2.356 . S
O209 C207 1.282 . S
C210 O211 1.306 . S
C210 O213 1.160 . S
O211 C210 1.306 . S
O211 Cd212 2.228 . S
Cd212 O211 2.228 . S
Cd212 O216 2.273 . S
Cd212 O220 2.277 . S
O213 C210 1.160 . S
O213 Cd214 2.203 . S
Cd214 O213 2.203 . S
Cd214 O216 2.411 . S
Cd214 O217 2.333 . S
Cd214 O218 2.352 . S
Cd214 O222 2.277 . S
Cd214 O223 2.356 . S
C215 O220 1.209 . S
C215 O222 1.226 . S
O216 Cd212 2.273 . S
O216 Cd214 2.411 . S
O216 C219 1.320 . S
O217 Cd214 2.333 . S
O217 C219 1.214 . S
O218 Cd214 2.352 . S
O218 C221 1.258 . S
C219 O216 1.320 . S
C219 O217 1.214 . S
O220 Cd212 2.277 . S
O220 C215 1.209 . S
C221 O218 1.258 . S
C221 O223 1.282 . S
O222 Cd214 2.277 . S
O222 C215 1.226 . S
O223 Cd214 2.356 . S
O223 C221 1.282 . S
C224 O225 1.306 . S
C224 O227 1.160 . S
O225 C224 1.306 . S
O225 Cd226 2.228 . S
Cd226 O225 2.228 . S
Cd226 O230 2.273 . S
Cd226 O234 2.277 . S
O227 C224 1.160 . S
O227 Cd228 2.203 . S
Cd228 O227 2.203 . S
Cd228 O230 2.411 . S
Cd228 O231 2.333 . S
Cd228 O232 2.352 . S
Cd228 O236 2.277 . S
Cd228 O237 2.356 . S
C229 O234 1.209 . S
C229 O236 1.226 . S
O230 Cd226 2.273 . S
O230 Cd228 2.411 . S
O230 C233 1.320 . S
O231 Cd228 2.333 . S
O231 C233 1.214 . S
O232 Cd228 2.352 . S
O232 C235 1.258 . S
C233 O230 1.320 . S
C233 O231 1.214 . S
O234 Cd226 2.277 . S
O234 C229 1.209 . S
C235 O232 1.258 . S
C235 O237 1.282 . S
O236 Cd228 2.277 . S
O236 C229 1.226 . S
O237 Cd228 2.356 . S
O237 C235 1.282 . S
C238 O239 1.306 . S
C238 O241 1.160 . S
O239 C238 1.306 . S
O239 Cd240 2.228 . S
Cd240 O239 2.228 . S
Cd240 O244 2.273 . S
Cd240 O248 2.277 . S
O241 C238 1.160 . S
O241 Cd242 2.203 . S
Cd242 O241 2.203 . S
Cd242 O244 2.411 . S
Cd242 O245 2.333 . S
Cd242 O246 2.352 . S
Cd242 O250 2.277 . S
Cd242 O251 2.356 . S
C243 O248 1.209 . S
C243 O250 1.226 . S
O244 Cd240 2.273 . S
O244 Cd242 2.411 . S
O244 C247 1.320 . S
O245 Cd242 2.333 . S
O245 C247 1.214 . S
O246 Cd242 2.352 . S
O246 C249 1.258 . S
C247 O244 1.320 . S
C247 O245 1.214 . S
O248 Cd240 2.277 . S
O248 C243 1.209 . S
C249 O246 1.258 . S
C249 O251 1.282 . S
O250 Cd242 2.277 . S
O250 C243 1.226 . S
O251 Cd242 2.356 . S
O251 C249 1.282 . S
C252 O253 1.306 . S
C252 O255 1.160 . S
O253 C252 1.306 . S
O253 Cd254 2.228 . S
Cd254 O253 2.228 . S
Cd254 O258 2.273 . S
Cd254 O262 2.277 . S
O255 C252 1.160 . S
O255 Cd256 2.203 . S
Cd256 O255 2.203 . S
Cd256 O258 2.411 . S
Cd256 O259 2.333 . S
Cd256 O260 2.352 . S
Cd256 O264 2.277 . S
Cd256 O265 2.356 . S
C257 O262 1.209 . S
C257 O264 1.226 . S
O258 Cd254 2.273 . S
O258 Cd256 2.411 . S
O258 C261 1.320 . S
O259 Cd256 2.333 . S
O259 C261 1.214 . S
O260 Cd256 2.352 . S
O260 C263 1.258 . S
C261 O258 1.320 . S
C261 O259 1.214 . S
O262 Cd254 2.277 . S
O262 C257 1.209 . S
C263 O260 1.258 . S
C263 O265 1.282 . S
O264 Cd256 2.277 . S
O264 C257 1.226 . S
O265 Cd256 2.356 . S
O265 C263 1.282 . S
C266 O267 1.306 . S
C266 O269 1.160 . S
O267 C266 1.306 . S
O267 Cd268 2.228 . S
Cd268 O267 2.228 . S
Cd268 O272 2.273 . S
Cd268 O276 2.277 . S
O269 C266 1.160 . S
O269 Cd270 2.203 . S
Cd270 O269 2.203 . S
Cd270 O272 2.411 . S
Cd270 O273 2.333 . S
Cd270 O274 2.352 . S
Cd270 O278 2.277 . S
Cd270 O279 2.356 . S
C271 O276 1.209 . S
C271 O278 1.226 . S
O272 Cd268 2.273 . S
O272 Cd270 2.411 . S
O272 C275 1.320 . S
O273 Cd270 2.333 . S
O273 C275 1.214 . S
O274 Cd270 2.352 . S
O274 C277 1.258 . S
C275 O272 1.320 . S
C275 O273 1.214 . S
O276 Cd268 2.277 . S
O276 C271 1.209 . S
C277 O274 1.258 . S
C277 O279 1.282 . S
O278 Cd270 2.277 . S
O278 C271 1.226 . S
O279 Cd270 2.356 . S
O279 C277 1.282 . S
C280 O281 1.306 . S
C280 O283 1.160 . S
O281 C280 1.306 . S
O281 Cd282 2.228 . S
Cd282 O281 2.228 . S
Cd282 O286 2.273 . S
Cd282 O290 2.277 . S
O283 C280 1.160 . S
O283 Cd284 2.203 . S
Cd284 O283 2.203 . S
Cd284 O286 2.411 . S
Cd284 O287 2.333 . S
Cd284 O288 2.352 . S
Cd284 O292 2.277 . S
Cd284 O293 2.356 . S
C285 O290 1.209 . S
C285 O292 1.226 . S
O286 Cd282 2.273 . S
O286 Cd284 2.411 . S
O286 C289 1.320 . S
O287 Cd284 2.333 . S
O287 C289 1.214 . S
O288 Cd284 2.352 . S
O288 C291 1.258 . S
C289 O286 1.320 . S
C289 O287 1.214 . S
O290 Cd282 2.277 . S
O290 C285 1.209 . S
C291 O288 1.258 . S
C291 O293 1.282 . S
O292 Cd284 2.277 . S
O292 C285 1.226 . S
O293 Cd284 2.356 . S
O293 C291 1.282 . S
C294 O295 1.306 . S
C294 O297 1.160 . S
O295 C294 1.306 . S
O295 Cd296 2.228 . S
Cd296 O295 2.228 . S
Cd296 O300 2.273 . S
Cd296 O304 2.277 . S
O297 C294 1.160 . S
O297 Cd298 2.203 . S
Cd298 O297 2.203 . S
Cd298 O300 2.411 . S
Cd298 O301 2.333 . S
Cd298 O302 2.352 . S
Cd298 O306 2.277 . S
Cd298 O307 2.356 . S
C299 O304 1.209 . S
C299 O306 1.226 . S
O300 Cd296 2.273 . S
O300 Cd298 2.411 . S
O300 C303 1.320 . S
O301 Cd298 2.333 . S
O301 C303 1.214 . S
O302 Cd298 2.352 . S
O302 C305 1.258 . S
C303 O300 1.320 . S
C303 O301 1.214 . S
O304 Cd296 2.277 . S
O304 C299 1.209 . S
C305 O302 1.258 . S
C305 O307 1.282 . S
O306 Cd298 2.277 . S
O306 C299 1.226 . S
O307 Cd298 2.356 . S
O307 C305 1.282 . S
C308 O309 1.306 . S
C308 O311 1.160 . S
O309 C308 1.306 . S
O309 Cd310 2.228 . S
Cd310 O309 2.228 . S
Cd310 O314 2.273 . S
Cd310 O318 2.277 . S
O311 C308 1.160 . S
O311 Cd312 2.203 . S
Cd312 O311 2.203 . S
Cd312 O314 2.411 . S
Cd312 O315 2.333 . S
Cd312 O316 2.352 . S
Cd312 O320 2.277 . S
Cd312 O321 2.356 . S
C313 O318 1.209 . S
C313 O320 1.226 . S
O314 Cd310 2.273 . S
O314 Cd312 2.411 . S
O314 C317 1.320 . S
O315 Cd312 2.333 . S
O315 C317 1.214 . S
O316 Cd312 2.352 . S
O316 C319 1.258 . S
C317 O314 1.320 . S
C317 O315 1.214 . S
O318 Cd310 2.277 . S
O318 C313 1.209 . S
C319 O316 1.258 . S
C319 O321 1.282 . S
O320 Cd312 2.277 . S
O320 C313 1.226 . S
O321 Cd312 2.356 . S
O321 C319 1.282 . S
C322 O323 1.306 . S
C322 O325 1.160 . S
O323 C322 1.306 . S
O323 Cd324 2.228 . S
Cd324 O323 2.228 . S
Cd324 O328 2.273 . S
Cd324 O332 2.277 . S
O325 C322 1.160 . S
O325 Cd326 2.203 . S
Cd326 O325 2.203 . S
Cd326 O328 2.411 . S
Cd326 O329 2.333 . S
Cd326 O330 2.352 . S
Cd326 O334 2.277 . S
Cd326 O335 2.356 . S
C327 O332 1.209 . S
C327 O334 1.226 . S
O328 Cd324 2.273 . S
O328 Cd326 2.411 . S
O328 C331 1.320 . S
O329 Cd326 2.333 . S
O329 C331 1.214 . S
O330 Cd326 2.352 . S
O330 C333 1.258 . S
C331 O328 1.320 . S
C331 O329 1.214 . S
O332 Cd324 2.277 . S
O332 C327 1.209 . S
C333 O330 1.258 . S
C333 O335 1.282 . S
O334 Cd326 2.277 . S
O334 C327 1.226 . S
O335 Cd326 2.356 . S
O335 C333 1.282 . S
C336 O337 1.306 . S
C336 O339 1.160 . S
O337 C336 1.306 . S
O337 Cd338 2.228 . S
Cd338 O337 2.228 . S
Cd338 O342 2.273 . S
Cd338 O346 2.277 . S
O339 C336 1.160 . S
O339 Cd340 2.203 . S
Cd340 O339 2.203 . S
Cd340 O342 2.411 . S
Cd340 O343 2.333 . S
Cd340 O344 2.352 . S
Cd340 O348 2.277 . S
Cd340 O349 2.356 . S
C341 O346 1.209 . S
C341 O348 1.226 . S
O342 Cd338 2.273 . S
O342 Cd340 2.411 . S
O342 C345 1.320 . S
O343 Cd340 2.333 . S
O343 C345 1.214 . S
O344 Cd340 2.352 . S
O344 C347 1.258 . S
C345 O342 1.320 . S
C345 O343 1.214 . S
O346 Cd338 2.277 . S
O346 C341 1.209 . S
C347 O344 1.258 . S
C347 O349 1.282 . S
O348 Cd340 2.277 . S
O348 C341 1.226 . S
O349 Cd340 2.356 . S
O349 C347 1.282 . S
C350 O351 1.306 . S
C350 O353 1.160 . S
O351 C350 1.306 . S
O351 Cd352 2.228 . S
Cd352 O351 2.228 . S
Cd352 O356 2.273 . S
Cd352 O360 2.277 . S
O353 C350 1.160 . S
O353 Cd354 2.203 . S
Cd354 O353 2.203 . S
Cd354 O356 2.411 . S
Cd354 O357 2.333 . S
Cd354 O358 2.352 . S
Cd354 O362 2.277 . S
Cd354 O363 2.356 . S
C355 O360 1.209 . S
C355 O362 1.226 . S
O356 Cd352 2.273 . S
O356 Cd354 2.411 . S
O356 C359 1.320 . S
O357 Cd354 2.333 . S
O357 C359 1.214 . S
O358 Cd354 2.352 . S
O358 C361 1.258 . S
C359 O356 1.320 . S
C359 O357 1.214 . S
O360 Cd352 2.277 . S
O360 C355 1.209 . S
C361 O358 1.258 . S
C361 O363 1.282 . S
O362 Cd354 2.277 . S
O362 C355 1.226 . S
O363 Cd354 2.356 . S
O363 C361 1.282 . S
C364 O365 1.306 . S
C364 O367 1.160 . S
O365 C364 1.306 . S
O365 Cd366 2.228 . S
Cd366 O365 2.228 . S
Cd366 O370 2.273 . S
Cd366 O374 2.277 . S
O367 C364 1.160 . S
O367 Cd368 2.203 . S
Cd368 O367 2.203 . S
Cd368 O370 2.411 . S
Cd368 O371 2.333 . S
Cd368 O372 2.352 . S
Cd368 O376 2.277 . S
Cd368 O377 2.356 . S
C369 O374 1.209 . S
C369 O376 1.226 . S
O370 Cd366 2.273 . S
O370 Cd368 2.411 . S
O370 C373 1.320 . S
O371 Cd368 2.333 . S
O371 C373 1.214 . S
O372 Cd368 2.352 . S
O372 C375 1.258 . S
C373 O370 1.320 . S
C373 O371 1.214 . S
O374 Cd366 2.277 . S
O374 C369 1.209 . S
C375 O372 1.258 . S
C375 O377 1.282 . S
O376 Cd368 2.277 . S
O376 C369 1.226 . S
O377 Cd368 2.356 . S
O377 C375 1.282 . S
C378 O379 1.306 . S
C378 O381 1.160 . S
O379 C378 1.306 . S
O379 Cd380 2.228 . S
Cd380 O379 2.228 . S
Cd380 O384 2.273 . S
Cd380 O388 2.277 . S
O381 C378 1.160 . S
O381 Cd382 2.203 . S
Cd382 O381 2.203 . S
Cd382 O384 2.411 . S
Cd382 O385 2.333 . S
Cd382 O386 2.352 . S
Cd382 O390 2.277 . S
Cd382 O391 2.356 . S
C383 O388 1.209 . S
C383 O390 1.226 . S
O384 Cd380 2.273 . S
O384 Cd382 2.411 . S
O384 C387 1.320 . S
O385 Cd382 2.333 . S
O385 C387 1.214 . S
O386 Cd382 2.352 . S
O386 C389 1.258 . S
C387 O384 1.320 . S
C387 O385 1.214 . S
O388 Cd380 2.277 . S
O388 C383 1.209 . S
C389 O386 1.258 . S
C389 O391 1.282 . S
O390 Cd382 2.277 . S
O390 C383 1.226 . S
O391 Cd382 2.356 . S
O391 C389 1.282 . S
C392 O393 1.306 . S
C392 O395 1.160 . S
O393 C392 1.306 . S
O393 Cd394 2.228 . S
Cd394 O393 2.228 . S
Cd394 O398 2.273 . S
Cd394 O402 2.277 . S
O395 C392 1.160 . S
O395 Cd396 2.203 . S
Cd396 O395 2.203 . S
Cd396 O398 2.411 . S
Cd396 O399 2.333 . S
Cd396 O400 2.352 . S
Cd396 O404 2.277 . S
Cd396 O405 2.356 . S
C397 O402 1.209 . S
C397 O404 1.226 . S
O398 Cd394 2.273 . S
O398 Cd396 2.411 . S
O398 C401 1.320 . S
O399 Cd396 2.333 . S
O399 C401 1.214 . S
O400 Cd396 2.352 . S
O400 C403 1.258 . S
C401 O398 1.320 . S
C401 O399 1.214 . S
O402 Cd394 2.277 . S
O402 C397 1.209 . S
C403 O400 1.258 . S
C403 O405 1.282 . S
O404 Cd396 2.277 . S
O404 C397 1.226 . S
O405 Cd396 2.356 . S
O405 C403 1.282 . S
C406 O407 1.306 . S
C406 O409 1.160 . S
O407 C406 1.306 . S
O407 Cd408 2.228 . S
Cd408 O407 2.228 . S
Cd408 O412 2.273 . S
Cd408 O416 2.277 . S
O409 C406 1.160 . S
O409 Cd410 2.203 . S
Cd410 O409 2.203 . S
Cd410 O412 2.411 . S
Cd410 O413 2.333 . S
Cd410 O414 2.352 . S
Cd410 O418 2.277 . S
Cd410 O419 2.356 . S
C411 O416 1.209 . S
C411 O418 1.226 . S
O412 Cd408 2.273 . S
O412 Cd410 2.411 . S
O412 C415 1.320 . S
O413 Cd410 2.333 . S
O413 C415 1.214 . S
O414 Cd410 2.352 . S
O414 C417 1.258 . S
C415 O412 1.320 . S
C415 O413 1.214 . S
O416 Cd408 2.277 . S
O416 C411 1.209 . S
C417 O414 1.258 . S
C417 O419 1.282 . S
O418 Cd410 2.277 . S
O418 C411 1.226 . S
O419 Cd410 2.356 . S
O419 C417 1.282 . S
C420 O421 1.306 . S
C420 O423 1.160 . S
O421 C420 1.306 . S
O421 Cd422 2.228 . S
Cd422 O421 2.228 . S
Cd422 O426 2.273 . S
Cd422 O430 2.277 . S
O423 C420 1.160 . S
O423 Cd424 2.203 . S
Cd424 O423 2.203 . S
Cd424 O426 2.411 . S
Cd424 O427 2.333 . S
Cd424 O428 2.352 . S
Cd424 O432 2.277 . S
Cd424 O433 2.356 . S
C425 O430 1.209 . S
C425 O432 1.226 . S
O426 Cd422 2.273 . S
O426 Cd424 2.411 . S
O426 C429 1.320 . S
O427 Cd424 2.333 . S
O427 C429 1.214 . S
O428 Cd424 2.352 . S
O428 C431 1.258 . S
C429 O426 1.320 . S
C429 O427 1.214 . S
O430 Cd422 2.277 . S
O430 C425 1.209 . S
C431 O428 1.258 . S
C431 O433 1.282 . S
O432 Cd424 2.277 . S
O432 C425 1.226 . S
O433 Cd424 2.356 . S
O433 C431 1.282 . S
C434 O435 1.306 . S
C434 O437 1.160 . S
O435 C434 1.306 . S
O435 Cd436 2.228 . S
Cd436 O435 2.228 . S
Cd436 O440 2.273 . S
Cd436 O444 2.277 . S
O437 C434 1.160 . S
O437 Cd438 2.203 . S
Cd438 O437 2.203 . S
Cd438 O440 2.411 . S
Cd438 O441 2.333 . S
Cd438 O442 2.352 . S
Cd438 O446 2.277 . S
Cd438 O447 2.356 . S
C439 O444 1.209 . S
C439 O446 1.226 . S
O440 Cd436 2.273 . S
O440 Cd438 2.411 . S
O440 C443 1.320 . S
O441 Cd438 2.333 . S
O441 C443 1.214 . S
O442 Cd438 2.352 . S
O442 C445 1.258 . S
C443 O440 1.320 . S
C443 O441 1.214 . S
O444 Cd436 2.277 . S
O444 C439 1.209 . S
C445 O442 1.258 . S
C445 O447 1.282 . S
O446 Cd438 2.277 . S
O446 C439 1.226 . S
O447 Cd438 2.356 . S
O447 C445 1.282 . S
C448 O449 1.306 . S
C448 O451 1.160 . S
O449 C448 1.306 . S
O449 Cd450 2.228 . S
Cd450 O449 2.228 . S
Cd450 O454 2.273 . S
Cd450 O458 2.277 . S
O451 C448 1.160 . S
O451 Cd452 2.203 . S
Cd452 O451 2.203 . S
Cd452 O454 2.411 . S
Cd452 O455 2.333 . S
Cd452 O456 2.352 . S
Cd452 O460 2.277 . S
Cd452 O461 2.356 . S
C453 O458 1.209 . S
C453 O460 1.226 . S
O454 Cd450 2.273 . S
O454 Cd452 2.411 . S
O454 C457 1.320 . S
O455 Cd452 2.333 . S
O455 C457 1.214 . S
O456 Cd452 2.352 . S
O456 C459 1.258 . S
C457 O454 1.320 . S
C457 O455 1.214 . S
O458 Cd450 2.277 . S
O458 C453 1.209 . S
C459 O456 1.258 . S
C459 O461 1.282 . S
O460 Cd452 2.277 . S
O460 C453 1.226 . S
O461 Cd452 2.356 . S
O461 C459 1.282 . S
C462 O463 1.306 . S
C462 O465 1.160 . S
O463 C462 1.306 . S
O463 Cd464 2.228 . S
Cd464 O463 2.228 . S
Cd464 O468 2.273 . S
Cd464 O472 2.277 . S
O465 C462 1.160 . S
O465 Cd466 2.203 . S
Cd466 O465 2.203 . S
Cd466 O468 2.411 . S
Cd466 O469 2.333 . S
Cd466 O470 2.352 . S
Cd466 O474 2.277 . S
Cd466 O475 2.356 . S
C467 O472 1.209 . S
C467 O474 1.226 . S
O468 Cd464 2.273 . S
O468 Cd466 2.411 . S
O468 C471 1.320 . S
O469 Cd466 2.333 . S
O469 C471 1.214 . S
O470 Cd466 2.352 . S
O470 C473 1.258 . S
C471 O468 1.320 . S
C471 O469 1.214 . S
O472 Cd464 2.277 . S
O472 C467 1.209 . S
C473 O470 1.258 . S
C473 O475 1.282 . S
O474 Cd466 2.277 . S
O474 C467 1.226 . S
O475 Cd466 2.356 . S
O475 C473 1.282 . S
C476 O477 1.306 . S
C476 O479 1.160 . S
O477 C476 1.306 . S
O477 Cd478 2.228 . S
Cd478 O477 2.228 . S
Cd478 O482 2.273 . S
Cd478 O486 2.277 . S
O479 C476 1.160 . S
O479 Cd480 2.203 . S
Cd480 O479 2.203 . S
Cd480 O482 2.411 . S
Cd480 O483 2.333 . S
Cd480 O484 2.352 . S
Cd480 O488 2.277 . S
Cd480 O489 2.356 . S
C481 O486 1.209 . S
C481 O488 1.226 . S
O482 Cd478 2.273 . S
O482 Cd480 2.411 . S
O482 C485 1.320 . S
O483 Cd480 2.333 . S
O483 C485 1.214 . S
O484 Cd480 2.352 . S
O484 C487 1.258 . S
C485 O482 1.320 . S
C485 O483 1.214 . S
O486 Cd478 2.277 . S
O486 C481 1.209 . S
C487 O484 1.258 . S
C487 O489 1.282 . S
O488 Cd480 2.277 . S
O488 C481 1.226 . S
O489 Cd480 2.356 . S
O489 C487 1.282 . S
C490 O491 1.306 . S
C490 O493 1.160 . S
O491 C490 1.306 . S
O491 Cd492 2.228 . S
Cd492 O491 2.228 . S
Cd492 O496 2.273 . S
Cd492 O500 2.277 . S
O493 C490 1.160 . S
O493 Cd494 2.203 . S
Cd494 O493 2.203 . S
Cd494 O496 2.411 . S
Cd494 O497 2.333 . S
Cd494 O498 2.352 . S
Cd494 O502 2.277 . S
Cd494 O503 2.356 . S
C495 O500 1.209 . S
C495 O502 1.226 . S
O496 Cd492 2.273 . S
O496 Cd494 2.411 . S
O496 C499 1.320 . S
O497 Cd494 2.333 . S
O497 C499 1.214 . S
O498 Cd494 2.352 . S
O498 C501 1.258 . S
C499 O496 1.320 . S
C499 O497 1.214 . S
O500 Cd492 2.277 . S
O500 C495 1.209 . S
C501 O498 1.258 . S
C501 O503 1.282 . S
O502 Cd494 2.277 . S
O502 C495 1.226 . S
O503 Cd494 2.356 . S
O503 C501 1.282 . S
C504 O505 1.306 . S
C504 O507 1.160 . S
O505 C504 1.306 . S
O505 Cd506 2.228 . S
Cd506 O505 2.228 . S
Cd506 O510 2.273 . S
Cd506 O514 2.277 . S
O507 C504 1.160 . S
O507 Cd508 2.203 . S
Cd508 O507 2.203 . S
Cd508 O510 2.411 . S
Cd508 O511 2.333 . S
Cd508 O512 2.352 . S
Cd508 O516 2.277 . S
Cd508 O517 2.356 . S
C509 O514 1.209 . S
C509 O516 1.226 . S
O510 Cd506 2.273 . S
O510 Cd508 2.411 . S
O510 C513 1.320 . S
O511 Cd508 2.333 . S
O511 C513 1.214 . S
O512 Cd508 2.352 . S
O512 C515 1.258 . S
C513 O510 1.320 . S
C513 O511 1.214 . S
O514 Cd506 2.277 . S
O514 C509 1.209 . S
C515 O512 1.258 . S
C515 O517 1.282 . S
O516 Cd508 2.277 . S
O516 C509 1.226 . S
O517 Cd508 2.356 . S
O517 C515 1.282 . S
C518 O519 1.306 . S
C518 O521 1.160 . S
O519 C518 1.306 . S
O519 Cd520 2.228 . S
Cd520 O519 2.228 . S
Cd520 O524 2.273 . S
Cd520 O528 2.277 . S
O521 C518 1.160 . S
O521 Cd522 2.203 . S
Cd522 O521 2.203 . S
Cd522 O524 2.411 . S
Cd522 O525 2.333 . S
Cd522 O526 2.352 . S
Cd522 O530 2.277 . S
Cd522 O531 2.356 . S
C523 O528 1.209 . S
C523 O530 1.226 . S
O524 Cd520 2.273 . S
O524 Cd522 2.411 . S
O524 C527 1.320 . S
O525 Cd522 2.333 . S
O525 C527 1.214 . S
O526 Cd522 2.352 . S
O526 C529 1.258 . S
C527 O524 1.320 . S
C527 O525 1.214 . S
O528 Cd520 2.277 . S
O528 C523 1.209 . S
C529 O526 1.258 . S
C529 O531 1.282 . S
O530 Cd522 2.277 . S
O530 C523 1.226 . S
O531 Cd522 2.356 . S
O531 C529 1.282 . S
C532 O533 1.306 . S
C532 O535 1.160 . S
O533 C532 1.306 . S
O533 Cd534 2.228 . S
Cd534 O533 2.228 . S
Cd534 O538 2.273 . S
Cd534 O542 2.277 . S
O535 C532 1.160 . S
O535 Cd536 2.203 . S
Cd536 O535 2.203 . S
Cd536 O538 2.411 . S
Cd536 O539 2.333 . S
Cd536 O540 2.352 . S
Cd536 O544 2.277 . S
Cd536 O545 2.356 . S
C537 O542 1.209 . S
C537 O544 1.226 . S
O538 Cd534 2.273 . S
O538 Cd536 2.411 . S
O538 C541 1.320 . S
O539 Cd536 2.333 . S
O539 C541 1.214 . S
O540 Cd536 2.352 . S
O540 C543 1.258 . S
C541 O538 1.320 . S
C541 O539 1.214 . S
O542 Cd534 2.277 . S
O542 C537 1.209 . S
C543 O540 1.258 . S
C543 O545 1.282 . S
O544 Cd536 2.277 . S
O544 C537 1.226 . S
O545 Cd536 2.356 . S
O545 C543 1.282 . S
C546 O547 1.306 . S
C546 O549 1.160 . S
O547 C546 1.306 . S
O547 Cd548 2.228 . S
Cd548 O547 2.228 . S
Cd548 O552 2.273 . S
Cd548 O556 2.277 . S
O549 C546 1.160 . S
O549 Cd550 2.203 . S
Cd550 O549 2.203 . S
Cd550 O552 2.411 . S
Cd550 O553 2.333 . S
Cd550 O554 2.352 . S
Cd550 O558 2.277 . S
Cd550 O559 2.356 . S
C551 O556 1.209 . S
C551 O558 1.226 . S
O552 Cd548 2.273 . S
O552 Cd550 2.411 . S
O552 C555 1.320 . S
O553 Cd550 2.333 . S
O553 C555 1.214 . S
O554 Cd550 2.352 . S
O554 C557 1.258 . S
C555 O552 1.320 . S
C555 O553 1.214 . S
O556 Cd548 2.277 . S
O556 C551 1.209 . S
C557 O554 1.258 . S
C557 O559 1.282 . S
O558 Cd550 2.277 . S
O558 C551 1.226 . S
O559 Cd550 2.356 . S
O559 C557 1.282 . S
C560 O561 1.306 . S
C560 O563 1.160 . S
O561 C560 1.306 . S
O561 Cd562 2.228 . S
Cd562 O561 2.228 . S
Cd562 O566 2.273 . S
Cd562 O570 2.277 . S
O563 C560 1.160 . S
O563 Cd564 2.203 . S
Cd564 O563 2.203 . S
Cd564 O566 2.411 . S
Cd564 O567 2.333 . S
Cd564 O568 2.352 . S
Cd564 O572 2.277 . S
Cd564 O573 2.356 . S
C565 O570 1.209 . S
C565 O572 1.226 . S
O566 Cd562 2.273 . S
O566 Cd564 2.411 . S
O566 C569 1.320 . S
O567 Cd564 2.333 . S
O567 C569 1.214 . S
O568 Cd564 2.352 . S
O568 C571 1.258 . S
C569 O566 1.320 . S
C569 O567 1.214 . S
O570 Cd562 2.277 . S
O570 C565 1.209 . S
C571 O568 1.258 . S
C571 O573 1.282 . S
O572 Cd564 2.277 . S
O572 C565 1.226 . S
O573 Cd564 2.356 . S
O573 C571 1.282 . S
C574 O575 1.306 . S
C574 O577 1.160 . S
O575 C574 1.306 . S
O575 Cd576 2.228 . S
Cd576 O575 2.228 . S
Cd576 O580 2.273 . S
Cd576 O584 2.277 . S
O577 C574 1.160 . S
O577 Cd578 2.203 . S
Cd578 O577 2.203 . S
Cd578 O580 2.411 . S
Cd578 O581 2.333 . S
Cd578 O582 2.352 . S
Cd578 O586 2.277 . S
Cd578 O587 2.356 . S
C579 O584 1.209 . S
C579 O586 1.226 . S
O580 Cd576 2.273 . S
O580 Cd578 2.411 . S
O580 C583 1.320 . S
O581 Cd578 2.333 . S
O581 C583 1.214 . S
O582 Cd578 2.352 . S
O582 C585 1.258 . S
C583 O580 1.320 . S
C583 O581 1.214 . S
O584 Cd576 2.277 . S
O584 C579 1.209 . S
C585 O582 1.258 . S
C585 O587 1.282 . S
O586 Cd578 2.277 . S
O586 C579 1.226 . S
O587 Cd578 2.356 . S
O587 C585 1.282 . S
C588 O589 1.306 . S
C588 O591 1.160 . S
O589 C588 1.306 . S
O589 Cd590 2.228 . S
Cd590 O589 2.228 . S
Cd590 O594 2.273 . S
Cd590 O598 2.277 . S
O591 C588 1.160 . S
O591 Cd592 2.203 . S
Cd592 O591 2.203 . S
Cd592 O594 2.411 . S
Cd592 O595 2.333 . S
Cd592 O596 2.352 . S
Cd592 O600 2.277 . S
Cd592 O601 2.356 . S
C593 O598 1.209 . S
C593 O600 1.226 . S
O594 Cd590 2.273 . S
O594 Cd592 2.411 . S
O594 C597 1.320 . S
O595 Cd592 2.333 . S
O595 C597 1.214 . S
O596 Cd592 2.352 . S
O596 C599 1.258 . S
C597 O594 1.320 . S
C597 O595 1.214 . S
O598 Cd590 2.277 . S
O598 C593 1.209 . S
C599 O596 1.258 . S
C599 O601 1.282 . S
O600 Cd592 2.277 . S
O600 C593 1.226 . S
O601 Cd592 2.356 . S
O601 C599 1.282 . S
C602 O603 1.306 . S
C602 O605 1.160 . S
O603 C602 1.306 . S
O603 Cd604 2.228 . S
Cd604 O603 2.228 . S
Cd604 O608 2.273 . S
Cd604 O612 2.277 . S
O605 C602 1.160 . S
O605 Cd606 2.203 . S
Cd606 O605 2.203 . S
Cd606 O608 2.411 . S
Cd606 O609 2.333 . S
Cd606 O610 2.352 . S
Cd606 O614 2.277 . S
Cd606 O615 2.356 . S
C607 O612 1.209 . S
C607 O614 1.226 . S
O608 Cd604 2.273 . S
O608 Cd606 2.411 . S
O608 C611 1.320 . S
O609 Cd606 2.333 . S
O609 C611 1.214 . S
O610 Cd606 2.352 . S
O610 C613 1.258 . S
C611 O608 1.320 . S
C611 O609 1.214 . S
O612 Cd604 2.277 . S
O612 C607 1.209 . S
C613 O610 1.258 . S
C613 O615 1.282 . S
O614 Cd606 2.277 . S
O614 C607 1.226 . S
O615 Cd606 2.356 . S
O615 C613 1.282 . S
C616 O617 1.306 . S
C616 O619 1.160 . S
O617 C616 1.306 . S
O617 Cd618 2.228 . S
Cd618 O617 2.228 . S
Cd618 O622 2.273 . S
Cd618 O626 2.277 . S
O619 C616 1.160 . S
O619 Cd620 2.203 . S
Cd620 O619 2.203 . S
Cd620 O622 2.411 . S
Cd620 O623 2.333 . S
Cd620 O624 2.352 . S
Cd620 O628 2.277 . S
Cd620 O629 2.356 . S
C621 O626 1.209 . S
C621 O628 1.226 . S
O622 Cd618 2.273 . S
O622 Cd620 2.411 . S
O622 C625 1.320 . S
O623 Cd620 2.333 . S
O623 C625 1.214 . S
O624 Cd620 2.352 . S
O624 C627 1.258 . S
C625 O622 1.320 . S
C625 O623 1.214 . S
O626 Cd618 2.277 . S
O626 C621 1.209 . S
C627 O624 1.258 . S
C627 O629 1.282 . S
O628 Cd620 2.277 . S
O628 C621 1.226 . S
O629 Cd620 2.356 . S
O629 C627 1.282 . S
C630 O631 1.306 . S
C630 O633 1.160 . S
O631 C630 1.306 . S
O631 Cd632 2.228 . S
Cd632 O631 2.228 . S
Cd632 O636 2.273 . S
Cd632 O640 2.277 . S
O633 C630 1.160 . S
O633 Cd634 2.203 . S
Cd634 O633 2.203 . S
Cd634 O636 2.411 . S
Cd634 O637 2.333 . S
Cd634 O638 2.352 . S
Cd634 O642 2.277 . S
Cd634 O643 2.356 . S
C635 O640 1.209 . S
C635 O642 1.226 . S
O636 Cd632 2.273 . S
O636 Cd634 2.411 . S
O636 C639 1.320 . S
O637 Cd634 2.333 . S
O637 C639 1.214 . S
O638 Cd634 2.352 . S
O638 C641 1.258 . S
C639 O636 1.320 . S
C639 O637 1.214 . S
O640 Cd632 2.277 . S
O640 C635 1.209 . S
C641 O638 1.258 . S
C641 O643 1.282 . S
O642 Cd634 2.277 . S
O642 C635 1.226 . S
O643 Cd634 2.356 . S
O643 C641 1.282 . S
C644 O645 1.306 . S
C644 O647 1.160 . S
O645 C644 1.306 . S
O645 Cd646 2.228 . S
Cd646 O645 2.228 . S
Cd646 O650 2.273 . S
Cd646 O654 2.277 . S
O647 C644 1.160 . S
O647 Cd648 2.203 . S
Cd648 O647 2.203 . S
Cd648 O650 2.411 . S
Cd648 O651 2.333 . S
Cd648 O652 2.352 . S
Cd648 O656 2.277 . S
Cd648 O657 2.356 . S
C649 O654 1.209 . S
C649 O656 1.226 . S
O650 Cd646 2.273 . S
O650 Cd648 2.411 . S
O650 C653 1.320 . S
O651 Cd648 2.333 . S
O651 C653 1.214 . S
O652 Cd648 2.352 . S
O652 C655 1.258 . S
C653 O650 1.320 . S
C653 O651 1.214 . S
O654 Cd646 2.277 . S
O654 C649 1.209 . S
C655 O652 1.258 . S
C655 O657 1.282 . S
O656 Cd648 2.277 . S
O656 C649 1.226 . S
O657 Cd648 2.356 . S
O657 C655 1.282 . S
C658 O659 1.306 . S
C658 O661 1.160 . S
O659 C658 1.306 . S
O659 Cd660 2.228 . S
Cd660 O659 2.228 . S
Cd660 O664 2.273 . S
Cd660 O668 2.277 . S
O661 C658 1.160 . S
O661 Cd662 2.203 . S
Cd662 O661 2.203 . S
Cd662 O664 2.411 . S
Cd662 O665 2.333 . S
Cd662 O666 2.352 . S
Cd662 O670 2.277 . S
Cd662 O671 2.356 . S
C663 O668 1.209 . S
C663 O670 1.226 . S
O664 Cd660 2.273 . S
O664 Cd662 2.411 . S
O664 C667 1.320 . S
O665 Cd662 2.333 . S
O665 C667 1.214 . S
O666 Cd662 2.352 . S
O666 C669 1.258 . S
C667 O664 1.320 . S
C667 O665 1.214 . S
O668 Cd660 2.277 . S
O668 C663 1.209 . S
C669 O666 1.258 . S
C669 O671 1.282 . S
O670 Cd662 2.277 . S
O670 C663 1.226 . S
O671 Cd662 2.356 . S
O671 C669 1.282 . S
C672 O673 1.306 . S
C672 O675 1.160 . S
O673 C672 1.306 . S
O673 Cd674 2.228 . S
Cd674 O673 2.228 . S
Cd674 O678 2.273 . S
Cd674 O682 2.277 . S
O675 C672 1.160 . S
O675 Cd676 2.203 . S
Cd676 O675 2.203 . S
Cd676 O678 2.411 . S
Cd676 O679 2.333 . S
Cd676 O680 2.352 . S
Cd676 O684 2.277 . S
Cd676 O685 2.356 . S
C677 O682 1.209 . S
C677 O684 1.226 . S
O678 Cd674 2.273 . S
O678 Cd676 2.411 . S
O678 C681 1.320 . S
O679 Cd676 2.333 . S
O679 C681 1.214 . S
O680 Cd676 2.352 . S
O680 C683 1.258 . S
C681 O678 1.320 . S
C681 O679 1.214 . S
O682 Cd674 2.277 . S
O682 C677 1.209 . S
C683 O680 1.258 . S
C683 O685 1.282 . S
O684 Cd676 2.277 . S
O684 C677 1.226 . S
O685 Cd676 2.356 . S
O685 C683 1.282 . S
C686 O687 1.306 . S
C686 O689 1.160 . S
O687 C686 1.306 . S
O687 Cd688 2.228 . S
Cd688 O687 2.228 . S
Cd688 O692 2.273 . S
Cd688 O696 2.277 . S
O689 C686 1.160 . S
O689 Cd690 2.203 . S
Cd690 O689 2.203 . S
Cd690 O692 2.411 . S
Cd690 O693 2.333 . S
Cd690 O694 2.352 . S
Cd690 O698 2.277 . S
Cd690 O699 2.356 . S
C691 O696 1.209 . S
C691 O698 1.226 . S
O692 Cd688 2.273 . S
O692 Cd690 2.411 . S
O692 C695 1.320 . S
O693 Cd690 2.333 . S
O693 C695 1.214 . S
O694 Cd690 2.352 . S
O694 C697 1.258 . S
C695 O692 1.320 . S
C695 O693 1.214 . S
O696 Cd688 2.277 . S
O696 C691 1.209 . S
C697 O694 1.258 . S
C697 O699 1.282 . S
O698 Cd690 2.277 . S
O698 C691 1.226 . S
O699 Cd690 2.356 . S
O699 C697 1.282 . S
C700 O701 1.306 . S
C700 O703 1.160 . S
O701 C700 1.306 . S
O701 Cd702 2.228 . S
Cd702 O701 2.228 . S
Cd702 O706 2.273 . S
Cd702 O710 2.277 . S
O703 C700 1.160 . S
O703 Cd704 2.203 . S
Cd704 O703 2.203 . S
Cd704 O706 2.411 . S
Cd704 O707 2.333 . S
Cd704 O708 2.352 . S
Cd704 O712 2.277 . S
Cd704 O713 2.356 . S
C705 O710 1.209 . S
C705 O712 1.226 . S
O706 Cd702 2.273 . S
O706 Cd704 2.411 . S
O706 C709 1.320 . S
O707 Cd704 2.333 . S
O707 C709 1.214 . S
O708 Cd704 2.352 . S
O708 C711 1.258 . S
C709 O706 1.320 . S
C709 O707 1.214 . S
O710 Cd702 2.277 . S
O710 C705 1.209 . S
C711 O708 1.258 . S
C711 O713 1.282 . S
O712 Cd704 2.277 . S
O712 C705 1.226 . S
O713 Cd704 2.356 . S
O713 C711 1.282 . S
C714 O715 1.306 . S
C714 O717 1.160 . S
O715 C714 1.306 . S
O715 Cd716 2.228 . S
Cd716 O715 2.228 . S
Cd716 O720 2.273 . S
Cd716 O724 2.277 . S
O717 C714 1.160 . S
O717 Cd718 2.203 . S
Cd718 O717 2.203 . S
Cd718 O720 2.411 . S
Cd718 O721 2.333 . S
Cd718 O722 2.352 . S
Cd718 O726 2.277 . S
Cd718 O727 2.356 . S
C719 O724 1.209 . S
C719 O726 1.226 . S
O720 Cd716 2.273 . S
O720 Cd718 2.411 . S
O720 C723 1.320 . S
O721 Cd718 2.333 . S
O721 C723 1.214 . S
O722 Cd718 2.352 . S
O722 C725 1.258 . S
C723 O720 1.320 . S
C723 O721 1.214 . S
O724 Cd716 2.277 . S
O724 C719 1.209 . S
C725 O722 1.258 . S
C725 O727 1.282 . S
O726 Cd718 2.277 . S
O726 C719 1.226 . S
O727 Cd718 2.356 . S
O727 C725 1.282 . S
C728 O729 1.306 . S
C728 O731 1.160 . S
O729 C728 1.306 . S
O729 Cd730 2.228 . S
Cd730 O729 2.228 . S
Cd730 O734 2.273 . S
Cd730 O738 2.277 . S
O731 C728 1.160 . S
O731 Cd732 2.203 . S
Cd732 O731 2.203 . S
Cd732 O734 2.411 . S
Cd732 O735 2.333 . S
Cd732 O736 2.352 . S
Cd732 O740 2.277 . S
Cd732 O741 2.356 . S
C733 O738 1.209 . S
C733 O740 1.226 . S
O734 Cd730 2.273 . S
O734 Cd732 2.411 . S
O734 C737 1.320 . S
O735 Cd732 2.333 . S
O735 C737 1.214 . S
O736 Cd732 2.352 . S
O736 C739 1.258 . S
C737 O734 1.320 . S
C737 O735 1.214 . S
O738 Cd730 2.277 . S
O738 C733 1.209 . S
C739 O736 1.258 . S
C739 O741 1.282 . S
O740 Cd732 2.277 . S
O740 C733 1.226 . S
O741 Cd732 2.356 . S
O741 C739 1.282 . S
C742 O743 1.306 . S
C742 O745 1.160 . S
O743 C742 1.306 . S
O743 Cd744 2.228 . S
Cd744 O743 2.228 . S
Cd744 O748 2.273 . S
Cd744 O752 2.277 . S
O745 C742 1.160 . S
O745 Cd746 2.203 . S
Cd746 O745 2.203 . S
Cd746 O748 2.411 . S
Cd746 O749 2.333 . S
Cd746 O750 2.352 . S
Cd746 O754 2.277 . S
Cd746 O755 2.356 . S
C747 O752 1.209 . S
C747 O754 1.226 . S
O748 Cd744 2.273 . S
O748 Cd746 2.411 . S
O748 C751 1.320 . S
O749 Cd746 2.333 . S
O749 C751 1.214 . S
O750 Cd746 2.352 . S
O750 C753 1.258 . S
C751 O748 1.320 . S
C751 O749 1.214 . S
O752 Cd744 2.277 . S
O752 C747 1.209 . S
C753 O750 1.258 . S
C753 O755 1.282 . S
O754 Cd746 2.277 . S
O754 C747 1.226 . S
O755 Cd746 2.356 . S
O755 C753 1.282 . S
C756 O757 1.306 . S
C756 O759 1.160 . S
O757 C756 1.306 . S
O757 Cd758 2.228 . S
Cd758 O757 2.228 . S
Cd758 O762 2.273 . S
Cd758 O766 2.277 . S
O759 C756 1.160 . S
O759 Cd760 2.203 . S
Cd760 O759 2.203 . S
Cd760 O762 2.411 . S
Cd760 O763 2.333 . S
Cd760 O764 2.352 . S
Cd760 O768 2.277 . S
Cd760 O769 2.356 . S
C761 O766 1.209 . S
C761 O768 1.226 . S
O762 Cd758 2.273 . S
O762 Cd760 2.411 . S
O762 C765 1.320 . S
O763 Cd760 2.333 . S
O763 C765 1.214 . S
O764 Cd760 2.352 . S
O764 C767 1.258 . S
C765 O762 1.320 . S
C765 O763 1.214 . S
O766 Cd758 2.277 . S
O766 C761 1.209 . S
C767 O764 1.258 . S
C767 O769 1.282 . S
O768 Cd760 2.277 . S
O768 C761 1.226 . S
O769 Cd760 2.356 . S
O769 C767 1.282 . S
C770 O771 1.306 . S
C770 O773 1.160 . S
O771 C770 1.306 . S
O771 Cd772 2.228 . S
Cd772 O771 2.228 . S
Cd772 O776 2.273 . S
Cd772 O780 2.277 . S
O773 C770 1.160 . S
O773 Cd774 2.203 . S
Cd774 O773 2.203 . S
Cd774 O776 2.411 . S
Cd774 O777 2.333 . S
Cd774 O778 2.352 . S
Cd774 O782 2.277 . S
Cd774 O783 2.356 . S
C775 O780 1.209 . S
C775 O782 1.226 . S
O776 Cd772 2.273 . S
O776 Cd774 2.411 . S
O776 C779 1.320 . S
O777 Cd774 2.333 . S
O777 C779 1.214 . S
O778 Cd774 2.352 . S
O778 C781 1.258 . S
C779 O776 1.320 . S
C779 O777 1.214 . S
O780 Cd772 2.277 . S
O780 C775 1.209 . S
C781 O778 1.258 . S
C781 O783 1.282 . S
O782 Cd774 2.277 . S
O782 C775 1.226 . S
O783 Cd774 2.356 . S
O783 C781 1.282 . S
C784 O785 1.306 . S
C784 O787 1.160 . S
O785 C784 1.306 . S
O785 Cd786 2.228 . S
Cd786 O785 2.228 . S
Cd786 O790 2.273 . S
Cd786 O794 2.277 . S
O787 C784 1.160 . S
O787 Cd788 2.203 . S
Cd788 O787 2.203 . S
Cd788 O790 2.411 . S
Cd788 O791 2.333 . S
Cd788 O792 2.352 . S
Cd788 O796 2.277 . S
Cd788 O797 2.356 . S
C789 O794 1.209 . S
C789 O796 1.226 . S
O790 Cd786 2.273 . S
O790 Cd788 2.411 . S
O790 C793 1.320 . S
O791 Cd788 2.333 . S
O791 C793 1.214 . S
O792 Cd788 2.352 . S
O792 C795 1.258 . S
C793 O790 1.320 . S
C793 O791 1.214 . S
O794 Cd786 2.277 . S
O794 C789 1.209 . S
C795 O792 1.258 . S
C795 O797 1.282 . S
O796 Cd788 2.277 . S
O796 C789 1.226 . S
O797 Cd788 2.356 . S
O797 C795 1.282 . S
C798 O799 1.306 . S
C798 O801 1.160 . S
O799 C798 1.306 . S
O799 Cd800 2.228 . S
Cd800 O799 2.228 . S
Cd800 O804 2.273 . S
Cd800 O808 2.277 . S
O801 C798 1.160 . S
O801 Cd802 2.203 . S
Cd802 O801 2.203 . S
Cd802 O804 2.411 . S
Cd802 O805 2.333 . S
Cd802 O806 2.352 . S
Cd802 O810 2.277 . S
Cd802 O811 2.356 . S
C803 O808 1.209 . S
C803 O810 1.226 . S
O804 Cd800 2.273 . S
O804 Cd802 2.411 . S
O804 C807 1.320 . S
O805 Cd802 2.333 . S
O805 C807 1.214 . S
O806 Cd802 2.352 . S
O806 C809 1.258 . S
C807 O804 1.320 . S
C807 O805 1.214 . S
O808 Cd800 2.277 . S
O808 C803 1.209 . S
C809 O806 1.258 . S
C809 O811 1.282 . S
O810 Cd802 2.277 . S
O810 C803 1.226 . S
O811 Cd802 2.356 . S
O811 C809 1.282 . S
C812 O813 1.306 . S
C812 O815 1.160 . S
O813 C812 1.306 . S
O813 Cd814 2.228 . S
Cd814 O813 2.228 . S
Cd814 O818 2.273 . S
Cd814 O822 2.277 . S
O815 C812 1.160 . S
O815 Cd816 2.203 . S
Cd816 O815 2.203 . S
Cd816 O818 2.411 . S
Cd816 O819 2.333 . S
Cd816 O820 2.352 . S
Cd816 O824 2.277 . S
Cd816 O825 2.356 . S
C817 O822 1.209 . S
C817 O824 1.226 . S
O818 Cd814 2.273 . S
O818 Cd816 2.411 . S
O818 C821 1.320 . S
O819 Cd816 2.333 . S
O819 C821 1.214 . S
O820 Cd816 2.352 . S
O820 C823 1.258 . S
C821 O818 1.320 . S
C821 O819 1.214 . S
O822 Cd814 2.277 . S
O822 C817 1.209 . S
C823 O820 1.258 . S
C823 O825 1.282 . S
O824 Cd816 2.277 . S
O824 C817 1.226 . S
O825 Cd816 2.356 . S
O825 C823 1.282 . S
C826 O827 1.306 . S
C826 O829 1.160 . S
O827 C826 1.306 . S
O827 Cd828 2.228 . S
Cd828 O827 2.228 . S
Cd828 O832 2.273 . S
Cd828 O836 2.277 . S
O829 C826 1.160 . S
O829 Cd830 2.203 . S
Cd830 O829 2.203 . S
Cd830 O832 2.411 . S
Cd830 O833 2.333 . S
Cd830 O834 2.352 . S
Cd830 O838 2.277 . S
Cd830 O839 2.356 . S
C831 O836 1.209 . S
C831 O838 1.226 . S
O832 Cd828 2.273 . S
O832 Cd830 2.411 . S
O832 C835 1.320 . S
O833 Cd830 2.333 . S
O833 C835 1.214 . S
O834 Cd830 2.352 . S
O834 C837 1.258 . S
C835 O832 1.320 . S
C835 O833 1.214 . S
O836 Cd828 2.277 . S
O836 C831 1.209 . S
C837 O834 1.258 . S
C837 O839 1.282 . S
O838 Cd830 2.277 . S
O838 C831 1.226 . S
O839 Cd830 2.356 . S
O839 C837 1.282 . S
C840 O841 1.306 . S
C840 O843 1.160 . S
O841 C840 1.306 . S
O841 Cd842 2.228 . S
Cd842 O841 2.228 . S
Cd842 O846 2.273 . S
Cd842 O850 2.277 . S
O843 C840 1.160 . S
O843 Cd844 2.203 . S
Cd844 O843 2.203 . S
Cd844 O846 2.411 . S
Cd844 O847 2.333 . S
Cd844 O848 2.352 . S
Cd844 O852 2.277 . S
Cd844 O853 2.356 . S
C845 O850 1.209 . S
C845 O852 1.226 . S
O846 Cd842 2.273 . S
O846 Cd844 2.411 . S
O846 C849 1.320 . S
O847 Cd844 2.333 . S
O847 C849 1.214 . S
O848 Cd844 2.352 . S
O848 C851 1.258 . S
C849 O846 1.320 . S
C849 O847 1.214 . S
O850 Cd842 2.277 . S
O850 C845 1.209 . S
C851 O848 1.258 . S
C851 O853 1.282 . S
O852 Cd844 2.277 . S
O852 C845 1.226 . S
O853 Cd844 2.356 . S
O853 C851 1.282 . S
C854 O855 1.306 . S
C854 O857 1.160 . S
O855 C854 1.306 . S
O855 Cd856 2.228 . S
Cd856 O855 2.228 . S
Cd856 O860 2.273 . S
Cd856 O864 2.277 . S
O857 C854 1.160 . S
O857 Cd858 2.203 . S
Cd858 O857 2.203 . S
Cd858 O860 2.411 . S
Cd858 O861 2.333 . S
Cd858 O862 2.352 . S
Cd858 O866 2.277 . S
Cd858 O867 2.356 . S
C859 O864 1.209 . S
C859 O866 1.226 . S
O860 Cd856 2.273 . S
O860 Cd858 2.411 . S
O860 C863 1.320 . S
O861 Cd858 2.333 . S
O861 C863 1.214 . S
O862 Cd858 2.352 . S
O862 C865 1.258 . S
C863 O860 1.320 . S
C863 O861 1.214 . S
O864 Cd856 2.277 . S
O864 C859 1.209 . S
C865 O862 1.258 . S
C865 O867 1.282 . S
O866 Cd858 2.277 . S
O866 C859 1.226 . S
O867 Cd858 2.356 . S
O867 C865 1.282 . S
C868 O869 1.306 . S
C868 O871 1.160 . S
O869 C868 1.306 . S
O869 Cd870 2.228 . S
Cd870 O869 2.228 . S
Cd870 O874 2.273 . S
Cd870 O878 2.277 . S
O871 C868 1.160 . S
O871 Cd872 2.203 . S
Cd872 O871 2.203 . S
Cd872 O874 2.411 . S
Cd872 O875 2.333 . S
Cd872 O876 2.352 . S
Cd872 O880 2.277 . S
Cd872 O881 2.356 . S
C873 O878 1.209 . S
C873 O880 1.226 . S
O874 Cd870 2.273 . S
O874 Cd872 2.411 . S
O874 C877 1.320 . S
O875 Cd872 2.333 . S
O875 C877 1.214 . S
O876 Cd872 2.352 . S
O876 C879 1.258 . S
C877 O874 1.320 . S
C877 O875 1.214 . S
O878 Cd870 2.277 . S
O878 C873 1.209 . S
C879 O876 1.258 . S
C879 O881 1.282 . S
O880 Cd872 2.277 . S
O880 C873 1.226 . S
O881 Cd872 2.356 . S
O881 C879 1.282 . S
C882 O883 1.306 . S
C882 O885 1.160 . S
O883 C882 1.306 . S
O883 Cd884 2.228 . S
Cd884 O883 2.228 . S
Cd884 O888 2.273 . S
Cd884 O892 2.277 . S
O885 C882 1.160 . S
O885 Cd886 2.203 . S
Cd886 O885 2.203 . S
Cd886 O888 2.411 . S
Cd886 O889 2.333 . S
Cd886 O890 2.352 . S
Cd886 O894 2.277 . S
Cd886 O895 2.356 . S
C887 O892 1.209 . S
C887 O894 1.226 . S
O888 Cd884 2.273 . S
O888 Cd886 2.411 . S
O888 C891 1.320 . S
O889 Cd886 2.333 . S
O889 C891 1.214 . S
O890 Cd886 2.352 . S
O890 C893 1.258 . S
C891 O888 1.320 . S
C891 O889 1.214 . S
O892 Cd884 2.277 . S
O892 C887 1.209 . S
C893 O890 1.258 . S
C893 O895 1.282 . S
O894 Cd886 2.277 . S
O894 C887 1.226 . S
O895 Cd886 2.356 . S
O895 C893 1.282 . S
C896 O897 1.306 . S
C896 O899 1.160 . S
O897 C896 1.306 . S
O897 Cd898 2.228 . S
Cd898 O897 2.228 . S
Cd898 O902 2.273 . S
Cd898 O906 2.277 . S
O899 C896 1.160 . S
O899 Cd900 2.203 . S
Cd900 O899 2.203 . S
Cd900 O902 2.411 . S
Cd900 O903 2.333 . S
Cd900 O904 2.352 . S
Cd900 O908 2.277 . S
Cd900 O909 2.356 . S
C901 O906 1.209 . S
C901 O908 1.226 . S
O902 Cd898 2.273 . S
O902 Cd900 2.411 . S
O902 C905 1.320 . S
O903 Cd900 2.333 . S
O903 C905 1.214 . S
O904 Cd900 2.352 . S
O904 C907 1.258 . S
C905 O902 1.320 . S
C905 O903 1.214 . S
O906 Cd898 2.277 . S
O906 C901 1.209 . S
C907 O904 1.258 . S
C907 O909 1.282 . S
O908 Cd900 2.277 . S
O908 C901 1.226 . S
O909 Cd900 2.356 . S
O909 C907 1.282 . S
C910 O911 1.306 . S
C910 O913 1.160 . S
O911 C910 1.306 . S
O911 Cd912 2.228 . S
Cd912 O911 2.228 . S
Cd912 O916 2.273 . S
Cd912 O920 2.277 . S
O913 C910 1.160 . S
O913 Cd914 2.203 . S
Cd914 O913 2.203 . S
Cd914 O916 2.411 . S
Cd914 O917 2.333 . S
Cd914 O918 2.352 . S
Cd914 O922 2.277 . S
Cd914 O923 2.356 . S
C915 O920 1.209 . S
C915 O922 1.226 . S
O916 Cd912 2.273 . S
O916 Cd914 2.411 . S
O916 C919 1.320 . S
O917 Cd914 2.333 . S
O917 C919 1.214 . S
O918 Cd914 2.352 . S
O918 C921 1.258 . S
C919 O916 1.320 . S
C919 O917 1.214 . S
O920 Cd912 2.277 . S
O920 C915 1.209 . S
C921 O918 1.258 . S
C921 O923 1.282 . S
O922 Cd914 2.277 . S
O922 C915 1.226 . S
O923 Cd914 2.356 . S
O923 C921 1.282 . S
C924 O925 1.306 . S
C924 O927 1.160 . S
O925 C924 1.306 . S
O925 Cd926 2.228 . S
Cd926 O925 2.228 . S
Cd926 O930 2.273 . S
Cd926 O934 2.277 . S
O927 C924 1.160 . S
O927 Cd928 2.203 . S
Cd928 O927 2.203 . S
Cd928 O930 2.411 . S
Cd928 O931 2.333 . S
Cd928 O932 2.352 . S
Cd928 O936 2.277 . S
Cd928 O937 2.356 . S
C929 O934 1.209 . S
C929 O936 1.226 . S
O930 Cd926 2.273 . S
O930 Cd928 2.411 . S
O930 C933 1.320 . S
O931 Cd928 2.333 . S
O931 C933 1.214 . S
O932 Cd928 2.352 . S
O932 C935 1.258 . S
C933 O930 1.320 . S
C933 O931 1.214 . S
O934 Cd926 2.277 . S
O934 C929 1.209 . S
C935 O932 1.258 . S
C935 O937 1.282 . S
O936 Cd928 2.277 . S
O936 C929 1.226 . S
O937 Cd928 2.356 . S
O937 C935 1.282 . S
C938 O939 1.306 . S
C938 O941 1.160 . S
O939 C938 1.306 . S
O939 Cd940 2.228 . S
Cd940 O939 2.228 . S
Cd940 O944 2.273 . S
Cd940 O948 2.277 . S
O941 C938 1.160 . S
O941 Cd942 2.203 . S
Cd942 O941 2.203 . S
Cd942 O944 2.411 . S
Cd942 O945 2.333 . S
Cd942 O946 2.352 . S
Cd942 O950 2.277 . S
Cd942 O951 2.356 . S
C943 O948 1.209 . S
C943 O950 1.226 . S
O944 Cd940 2.273 . S
O944 Cd942 2.411 . S
O944 C947 1.320 . S
O945 Cd942 2.333 . S
O945 C947 1.214 . S
O946 Cd942 2.352 . S
O946 C949 1.258 . S
C947 O944 1.320 . S
C947 O945 1.214 . S
O948 Cd940 2.277 . S
O948 C943 1.209 . S
C949 O946 1.258 . S
C949 O951 1.282 . S
O950 Cd942 2.277 . S
O950 C943 1.226 . S
O951 Cd942 2.356 . S
O951 C949 1.282 . S
C952 O953 1.306 . S
C952 O955 1.160 . S
O953 C952 1.306 . S
O953 Cd954 2.228 . S
Cd954 O953 2.228 . S
Cd954 O958 2.273 . S
Cd954 O962 2.277 . S
O955 C952 1.160 . S
O955 Cd956 2.203 . S
Cd956 O955 2.203 . S
Cd956 O958 2.411 . S
Cd956 O959 2.333 . S
Cd956 O960 2.352 . S
Cd956 O964 2.277 . S
Cd956 O965 2.356 . S
C957 O962 1.209 . S
C957 O964 1.226 . S
O958 Cd954 2.273 . S
O958 Cd956 2.411 . S
O958 C961 1.320 . S
O959 Cd956 2.333 . S
O959 C961 1.214 . S
O960 Cd956 2.352 . S
O960 C963 1.258 . S
C961 O958 1.320 . S
C961 O959 1.214 . S
O962 Cd954 2.277 . S
O962 C957 1.209 . S
C963 O960 1.258 . S
C963 O965 1.282 . S
O964 Cd956 2.277 . S
O964 C957 1.226 . S
O965 Cd956 2.356 . S
O965 C963 1.282 . S
C966 O967 1.306 . S
C966 O969 1.160 . S
O967 C966 1.306 . S
O967 Cd968 2.228 . S
Cd968 O967 2.228 . S
Cd968 O972 2.273 . S
Cd968 O976 2.277 . S
O969 C966 1.160 . S
O969 Cd970 2.203 . S
Cd970 O969 2.203 . S
Cd970 O972 2.411 . S
Cd970 O973 2.333 . S
Cd970 O974 2.352 . S
Cd970 O978 2.277 . S
Cd970 O979 2.356 . S
C971 O976 1.209 . S
C971 O978 1.226 . S
O972 Cd968 2.273 . S
O972 Cd970 2.411 . S
O972 C975 1.320 . S
O973 Cd970 2.333 . S
O973 C975 1.214 . S
O974 Cd970 2.352 . S
O974 C977 1.258 . S
C975 O972 1.320 . S
C975 O973 1.214 . S
O976 Cd968 2.277 . S
O976 C971 1.209 . S
C977 O974 1.258 . S
C977 O979 1.282 . S
O978 Cd970 2.277 . S
O978 C971 1.226 . S
O979 Cd970 2.356 . S
O979 C977 1.282 . S
C980 O981 1.306 . S
C980 O983 1.160 . S
O981 C980 1.306 . S
O981 Cd982 2.228 . S
Cd982 O981 2.228 . S
Cd982 O986 2.273 . S
Cd982 O990 2.277 . S
O983 C980 1.160 . S
O983 Cd984 2.203 . S
Cd984 O983 2.203 . S
Cd984 O986 2.411 . S
Cd984 O987 2.333 . S
Cd984 O988 2.352 . S
Cd984 O992 2.277 . S
Cd984 O993 2.356 . S
C985 O990 1.209 . S
C985 O992 1.226 . S
O986 Cd982 2.273 . S
O986 Cd984 2.411 . S
O986 C989 1.320 . S
O987 Cd984 2.333 . S
O987 C989 1.214 . S
O988 Cd984 2.352 . S
O988 C991 1.258 . S
C989 O986 1.320 . S
C989 O987 1.214 . S
O990 Cd982 2.277 . S
O990 C985 1.209 . S
C991 O988 1.258 . S
C991 O993 1.282 . S
O992 Cd984 2.277 . S
O992 C985 1.226 . S
O993 Cd984 2.356 . S
O993 C991 1.282 . S
C994 O995 1.306 . S
C994 O997 1.160 . S
O995 C994 1.306 . S
O995 Cd996 2.228 . S
Cd996 O995 2.228 . S
Cd996 O1000 2.273 . S
Cd996 O1004 2.277 . S
O997 C994 1.160 . S
O997 Cd998 2.203 . S
Cd998 O997 2.203 . S
Cd998 O1000 2.411 . S
Cd998 O1001 2.333 . S
Cd998 O1002 2.352 . S
Cd998 O1006 2.277 . S
Cd998 O1007 2.356 . S
C999 O1004 1.209 . S
C999 O1006 1.226 . S
O1000 Cd996 2.273 . S
O1000 Cd998 2.411 . S
O1000 C1003 1.320 . S
O1001 Cd998 2.333 . S
O1001 C1003 1.214 . S
O1002 Cd998 2.352 . S
O1002 C1005 1.258 . S
C1003 O1000 1.320 . S
C1003 O1001 1.214 . S
O1004 Cd996 2.277 . S
O1004 C999 1.209 . S
C1005 O1002 1.258 . S
C1005 O1007 1.282 . S
O1006 Cd998 2.277 . S
O1006 C999 1.226 . S
O1007 Cd998 2.356 . S
O1007 C1005 1.282 . S
C1008 O1009 1.306 . S
C1008 O1011 1.160 . S
O1009 C1008 1.306 . S
O1009 Cd1010 2.228 . S
Cd1010 O1009 2.228 . S
Cd1010 O1014 2.273 . S
Cd1010 O1018 2.277 . S
O1011 C1008 1.160 . S
O1011 Cd1012 2.203 . S
Cd1012 O1011 2.203 . S
Cd1012 O1014 2.411 . S
Cd1012 O1015 2.333 . S
Cd1012 O1016 2.352 . S
Cd1012 O1020 2.277 . S
Cd1012 O1021 2.356 . S
C1013 O1018 1.209 . S
C1013 O1020 1.226 . S
O1014 Cd1010 2.273 . S
O1014 Cd1012 2.411 . S
O1014 C1017 1.320 . S
O1015 Cd1012 2.333 . S
O1015 C1017 1.214 . S
O1016 Cd1012 2.352 . S
O1016 C1019 1.258 . S
C1017 O1014 1.320 . S
C1017 O1015 1.214 . S
O1018 Cd1010 2.277 . S
O1018 C1013 1.209 . S
C1019 O1016 1.258 . S
C1019 O1021 1.282 . S
O1020 Cd1012 2.277 . S
O1020 C1013 1.226 . S
O1021 Cd1012 2.356 . S
O1021 C1019 1.282 . S
C1022 O1023 1.306 . S
C1022 O1025 1.160 . S
O1023 C1022 1.306 . S
O1023 Cd1024 2.228 . S
Cd1024 O1023 2.228 . S
Cd1024 O1028 2.273 . S
Cd1024 O1032 2.277 . S
O1025 C1022 1.160 . S
O1025 Cd1026 2.203 . S
Cd1026 O1025 2.203 . S
Cd1026 O1028 2.411 . S
Cd1026 O1029 2.333 . S
Cd1026 O1030 2.352 . S
Cd1026 O1034 2.277 . S
Cd1026 O1035 2.356 . S
C1027 O1032 1.209 . S
C1027 O1034 1.226 . S
O1028 Cd1024 2.273 . S
O1028 Cd1026 2.411 . S
O1028 C1031 1.320 . S
O1029 Cd1026 2.333 . S
O1029 C1031 1.214 . S
O1030 Cd1026 2.352 . S
O1030 C1033 1.258 . S
C1031 O1028 1.320 . S
C1031 O1029 1.214 . S
O1032 Cd1024 2.277 . S
O1032 C1027 1.209 . S
C1033 O1030 1.258 . S
C1033 O1035 1.282 . S
O1034 Cd1026 2.277 . S
O1034 C1027 1.226 . S
O1035 Cd1026 2.356 . S
O1035 C1033 1.282 . S
C1036 O1037 1.306 . S
C1036 O1039 1.160 . S
O1037 C1036 1.306 . S
O1037 Cd1038 2.228 . S
Cd1038 O1037 2.228 . S
Cd1038 O1042 2.273 . S
Cd1038 O1046 2.277 . S
O1039 C1036 1.160 . S
O1039 Cd1040 2.203 . S
Cd1040 O1039 2.203 . S
Cd1040 O1042 2.411 . S
Cd1040 O1043 2.333 . S
Cd1040 O1044 2.352 . S
Cd1040 O1048 2.277 . S
Cd1040 O1049 2.356 . S
C1041 O1046 1.209 . S
C1041 O1048 1.226 . S
O1042 Cd1038 2.273 . S
O1042 Cd1040 2.411 . S
O1042 C1045 1.320 . S
O1043 Cd1040 2.333 . S
O1043 C1045 1.214 . S
O1044 Cd1040 2.352 . S
O1044 C1047 1.258 . S
C1045 O1042 1.320 . S
C1045 O1043 1.214 . S
O1046 Cd1038 2.277 . S
O1046 C1041 1.209 . S
C1047 O1044 1.258 . S
C1047 O1049 1.282 . S
O1048 Cd1040 2.277 . S
O1048 C1041 1.226 . S
O1049 Cd1040 2.356 . S
O1049 C1047 1.282 . S
C1050 O1051 1.306 . S
C1050 O1053 1.160 . S
O1051 C1050 1.306 . S
O1051 Cd1052 2.228 . S
Cd1052 O1051 2.228 . S
Cd1052 O1056 2.273 . S
Cd1052 O1060 2.277 . S
O1053 C1050 1.160 . S
O1053 Cd1054 2.203 . S
Cd1054 O1053 2.203 . S
Cd1054 O1056 2.411 . S
Cd1054 O1057 2.333 . S
Cd1054 O1058 2.352 . S
Cd1054 O1062 2.277 . S
Cd1054 O1063 2.356 . S
C1055 O1060 1.209 . S
C1055 O1062 1.226 . S
O1056 Cd1052 2.273 . S
O1056 Cd1054 2.411 . S
O1056 C1059 1.320 . S
O1057 Cd1054 2.333 . S
O1057 C1059 1.214 . S
O1058 Cd1054 2.352 . S
O1058 C1061 1.258 . S
C1059 O1056 1.320 . S
C1059 O1057 1.214 . S
O1060 Cd1052 2.277 . S
O1060 C1055 1.209 . S
C1061 O1058 1.258 . S
C1061 O1063 1.282 . S
O1062 Cd1054 2.277 . S
O1062 C1055 1.226 . S
O1063 Cd1054 2.356 . S
O1063 C1061 1.282 . S
C1064 O1065 1.306 . S
C1064 O1067 1.160 . S
O1065 C1064 1.306 . S
O1065 Cd1066 2.228 . S
Cd1066 O1065 2.228 . S
Cd1066 O1070 2.273 . S
Cd1066 O1074 2.277 . S
O1067 C1064 1.160 . S
O1067 Cd1068 2.203 . S
Cd1068 O1067 2.203 . S
Cd1068 O1070 2.411 . S
Cd1068 O1071 2.333 . S
Cd1068 O1072 2.352 . S
Cd1068 O1076 2.277 . S
Cd1068 O1077 2.356 . S
C1069 O1074 1.209 . S
C1069 O1076 1.226 . S
O1070 Cd1066 2.273 . S
O1070 Cd1068 2.411 . S
O1070 C1073 1.320 . S
O1071 Cd1068 2.333 . S
O1071 C1073 1.214 . S
O1072 Cd1068 2.352 . S
O1072 C1075 1.258 . S
C1073 O1070 1.320 . S
C1073 O1071 1.214 . S
O1074 Cd1066 2.277 . S
O1074 C1069 1.209 . S
C1075 O1072 1.258 . S
C1075 O1077 1.282 . S
O1076 Cd1068 2.277 . S
O1076 C1069 1.226 . S
O1077 Cd1068 2.356 . S
O1077 C1075 1.282 . S
C1078 O1079 1.306 . S
C1078 O1081 1.160 . S
O1079 C1078 1.306 . S
O1079 Cd1080 2.228 . S
Cd1080 O1079 2.228 . S
Cd1080 O1084 2.273 . S
Cd1080 O1088 2.277 . S
O1081 C1078 1.160 . S
O1081 Cd1082 2.203 . S
Cd1082 O1081 2.203 . S
Cd1082 O1084 2.411 . S
Cd1082 O1085 2.333 . S
Cd1082 O1086 2.352 . S
Cd1082 O1090 2.277 . S
Cd1082 O1091 2.356 . S
C1083 O1088 1.209 . S
C1083 O1090 1.226 . S
O1084 Cd1080 2.273 . S
O1084 Cd1082 2.411 . S
O1084 C1087 1.320 . S
O1085 Cd1082 2.333 . S
O1085 C1087 1.214 . S
O1086 Cd1082 2.352 . S
O1086 C1089 1.258 . S
C1087 O1084 1.320 . S
C1087 O1085 1.214 . S
O1088 Cd1080 2.277 . S
O1088 C1083 1.209 . S
C1089 O1086 1.258 . S
C1089 O1091 1.282 . S
O1090 Cd1082 2.277 . S
O1090 C1083 1.226 . S
O1091 Cd1082 2.356 . S
O1091 C1089 1.282 . S
C1092 O1093 1.306 . S
C1092 O1095 1.160 . S
O1093 C1092 1.306 . S
O1093 Cd1094 2.228 . S
Cd1094 O1093 2.228 . S
Cd1094 O1098 2.273 . S
Cd1094 O1102 2.277 . S
O1095 C1092 1.160 . S
O1095 Cd1096 2.203 . S
Cd1096 O1095 2.203 . S
Cd1096 O1098 2.411 . S
Cd1096 O1099 2.333 . S
Cd1096 O1100 2.352 . S
Cd1096 O1104 2.277 . S
Cd1096 O1105 2.356 . S
C1097 O1102 1.209 . S
C1097 O1104 1.226 . S
O1098 Cd1094 2.273 . S
O1098 Cd1096 2.411 . S
O1098 C1101 1.320 . S
O1099 Cd1096 2.333 . S
O1099 C1101 1.214 . S
O1100 Cd1096 2.352 . S
O1100 C1103 1.258 . S
C1101 O1098 1.320 . S
C1101 O1099 1.214 . S
O1102 Cd1094 2.277 . S
O1102 C1097 1.209 . S
C1103 O1100 1.258 . S
C1103 O1105 1.282 . S
O1104 Cd1096 2.277 . S
O1104 C1097 1.226 . S
O1105 Cd1096 2.356 . S
O1105 C1103 1.282 . S
C1106 O1107 1.306 . S
C1106 O1109 1.160 . S
O1107 C1106 1.306 . S
O1107 Cd1108 2.228 . S
Cd1108 O1107 2.228 . S
Cd1108 O1112 2.273 . S
Cd1108 O1116 2.277 . S
O1109 C1106 1.160 . S
O1109 Cd1110 2.203 . S
Cd1110 O1109 2.203 . S
Cd1110 O1112 2.411 . S
Cd1110 O1113 2.333 . S
Cd1110 O1114 2.352 . S
Cd1110 O1118 2.277 . S
Cd1110 O1119 2.356 . S
C1111 O1116 1.209 . S
C1111 O1118 1.226 . S
O1112 Cd1108 2.273 . S
O1112 Cd1110 2.411 . S
O1112 C1115 1.320 . S
O1113 Cd1110 2.333 . S
O1113 C1115 1.214 . S
O1114 Cd1110 2.352 . S
O1114 C1117 1.258 . S
C1115 O1112 1.320 . S
C1115 O1113 1.214 . S
O1116 Cd1108 2.277 . S
O1116 C1111 1.209 . S
C1117 O1114 1.258 . S
C1117 O1119 1.282 . S
O1118 Cd1110 2.277 . S
O1118 C1111 1.226 . S
O1119 Cd1110 2.356 . S
O1119 C1117 1.282 . S
C1120 O1121 1.306 . S
C1120 O1123 1.160 . S
O1121 C1120 1.306 . S
O1121 Cd1122 2.228 . S
Cd1122 O1121 2.228 . S
Cd1122 O1126 2.273 . S
Cd1122 O1130 2.277 . S
O1123 C1120 1.160 . S
O1123 Cd1124 2.203 . S
Cd1124 O1123 2.203 . S
Cd1124 O1126 2.411 . S
Cd1124 O1127 2.333 . S
Cd1124 O1128 2.352 . S
Cd1124 O1132 2.277 . S
Cd1124 O1133 2.356 . S
C1125 O1130 1.209 . S
C1125 O1132 1.226 . S
O1126 Cd1122 2.273 . S
O1126 Cd1124 2.411 . S
O1126 C1129 1.320 . S
O1127 Cd1124 2.333 . S
O1127 C1129 1.214 . S
O1128 Cd1124 2.352 . S
O1128 C1131 1.258 . S
C1129 O1126 1.320 . S
C1129 O1127 1.214 . S
O1130 Cd1122 2.277 . S
O1130 C1125 1.209 . S
C1131 O1128 1.258 . S
C1131 O1133 1.282 . S
O1132 Cd1124 2.277 . S
O1132 C1125 1.226 . S
O1133 Cd1124 2.356 . S
O1133 C1131 1.282 . S
C1134 O1135 1.306 . S
C1134 O1137 1.160 . S
O1135 C1134 1.306 . S
O1135 Cd1136 2.228 . S
Cd1136 O1135 2.228 . S
Cd1136 O1140 2.273 . S
Cd1136 O1144 2.277 . S
O1137 C1134 1.160 . S
O1137 Cd1138 2.203 . S
Cd1138 O1137 2.203 . S
Cd1138 O1140 2.411 . S
Cd1138 O1141 2.333 . S
Cd1138 O1142 2.352 . S
Cd1138 O1146 2.277 . S
Cd1138 O1147 2.356 . S
C1139 O1144 1.209 . S
C1139 O1146 1.226 . S
O1140 Cd1136 2.273 . S
O1140 Cd1138 2.411 . S
O1140 C1143 1.320 . S
O1141 Cd1138 2.333 . S
O1141 C1143 1.214 . S
O1142 Cd1138 2.352 . S
O1142 C1145 1.258 . S
C1143 O1140 1.320 . S
C1143 O1141 1.214 . S
O1144 Cd1136 2.277 . S
O1144 C1139 1.209 . S
C1145 O1142 1.258 . S
C1145 O1147 1.282 . S
O1146 Cd1138 2.277 . S
O1146 C1139 1.226 . S
O1147 Cd1138 2.356 . S
O1147 C1145 1.282 . S
C1148 O1149 1.306 . S
C1148 O1151 1.160 . S
O1149 C1148 1.306 . S
O1149 Cd1150 2.228 . S
Cd1150 O1149 2.228 . S
Cd1150 O1154 2.273 . S
Cd1150 O1158 2.277 . S
O1151 C1148 1.160 . S
O1151 Cd1152 2.203 . S
Cd1152 O1151 2.203 . S
Cd1152 O1154 2.411 . S
Cd1152 O1155 2.333 . S
Cd1152 O1156 2.352 . S
Cd1152 O1160 2.277 . S
Cd1152 O1161 2.356 . S
C1153 O1158 1.209 . S
C1153 O1160 1.226 . S
O1154 Cd1150 2.273 . S
O1154 Cd1152 2.411 . S
O1154 C1157 1.320 . S
O1155 Cd1152 2.333 . S
O1155 C1157 1.214 . S
O1156 Cd1152 2.352 . S
O1156 C1159 1.258 . S
C1157 O1154 1.320 . S
C1157 O1155 1.214 . S
O1158 Cd1150 2.277 . S
O1158 C1153 1.209 . S
C1159 O1156 1.258 . S
C1159 O1161 1.282 . S
O1160 Cd1152 2.277 . S
O1160 C1153 1.226 . S
O1161 Cd1152 2.356 . S
O1161 C1159 1.282 . S
C1162 O1163 1.306 . S
C1162 O1165 1.160 . S
O1163 C1162 1.306 . S
O1163 Cd1164 2.228 . S
Cd1164 O1163 2.228 . S
Cd1164 O1168 2.273 . S
Cd1164 O1172 2.277 . S
O1165 C1162 1.160 . S
O1165 Cd1166 2.203 . S
Cd1166 O1165 2.203 . S
Cd1166 O1168 2.411 . S
Cd1166 O1169 2.333 . S
Cd1166 O1170 2.352 . S
Cd1166 O1174 2.277 . S
Cd1166 O1175 2.356 . S
C1167 O1172 1.209 . S
C1167 O1174 1.226 . S
O1168 Cd1164 2.273 . S
O1168 Cd1166 2.411 . S
O1168 C1171 1.320 . S
O1169 Cd1166 2.333 . S
O1169 C1171 1.214 . S
O1170 Cd1166 2.352 . S
O1170 C1173 1.258 . S
C1171 O1168 1.320 . S
C1171 O1169 1.214 . S
O1172 Cd1164 2.277 . S
O1172 C1167 1.209 . S
C1173 O1170 1.258 . S
C1173 O1175 1.282 . S
O1174 Cd1166 2.277 . S
O1174 C1167 1.226 . S
O1175 Cd1166 2.356 . S
O1175 C1173 1.282 . S
C1176 O1177 1.306 . S
C1176 O1179 1.160 . S
O1177 C1176 1.306 . S
O1177 Cd1178 2.228 . S
Cd1178 O1177 2.228 . S
Cd1178 O1182 2.273 . S
Cd1178 O1186 2.277 . S
O1179 C1176 1.160 . S
O1179 Cd1180 2.203 . S
Cd1180 O1179 2.203 . S
Cd1180 O1182 2.411 . S
Cd1180 O1183 2.333 . S
Cd1180 O1184 2.352 . S
Cd1180 O1188 2.277 . S
Cd1180 O1189 2.356 . S
C1181 O1186 1.209 . S
C1181 O1188 1.226 . S
O1182 Cd1178 2.273 . S
O1182 Cd1180 2.411 . S
O1182 C1185 1.320 . S
O1183 Cd1180 2.333 . S
O1183 C1185 1.214 . S
O1184 Cd1180 2.352 . S
O1184 C1187 1.258 . S
C1185 O1182 1.320 . S
C1185 O1183 1.214 . S
O1186 Cd1178 2.277 . S
O1186 C1181 1.209 . S
C1187 O1184 1.258 . S
C1187 O1189 1.282 . S
O1188 Cd1180 2.277 . S
O1188 C1181 1.226 . S
O1189 Cd1180 2.356 . S
O1189 C1187 1.282 . S
C1190 O1191 1.306 . S
C1190 O1193 1.160 . S
O1191 C1190 1.306 . S
O1191 Cd1192 2.228 . S
Cd1192 O1191 2.228 . S
Cd1192 O1196 2.273 . S
Cd1192 O1200 2.277 . S
O1193 C1190 1.160 . S
O1193 Cd1194 2.203 . S
Cd1194 O1193 2.203 . S
Cd1194 O1196 2.411 . S
Cd1194 O1197 2.333 . S
Cd1194 O1198 2.352 . S
Cd1194 O1202 2.277 . S
Cd1194 O1203 2.356 . S
C1195 O1200 1.209 . S
C1195 O1202 1.226 . S
O1196 Cd1192 2.273 . S
O1196 Cd1194 2.411 . S
O1196 C1199 1.320 . S
O1197 Cd1194 2.333 . S
O1197 C1199 1.214 . S
O1198 Cd1194 2.352 . S
O1198 C1201 1.258 . S
C1199 O1196 1.320 . S
C1199 O1197 1.214 . S
O1200 Cd1192 2.277 . S
O1200 C1195 1.209 . S
C1201 O1198 1.258 . S
C1201 O1203 1.282 . S
O1202 Cd1194 2.277 . S
O1202 C1195 1.226 . S
O1203 Cd1194 2.356 . S
O1203 C1201 1.282 . S
C1204 O1205 1.306 . S
C1204 O1207 1.160 . S
O1205 C1204 1.306 . S
O1205 Cd1206 2.228 . S
Cd1206 O1205 2.228 . S
Cd1206 O1210 2.273 . S
Cd1206 O1214 2.277 . S
O1207 C1204 1.160 . S
O1207 Cd1208 2.203 . S
Cd1208 O1207 2.203 . S
Cd1208 O1210 2.411 . S
Cd1208 O1211 2.333 . S
Cd1208 O1212 2.352 . S
Cd1208 O1216 2.277 . S
Cd1208 O1217 2.356 . S
C1209 O1214 1.209 . S
C1209 O1216 1.226 . S
O1210 Cd1206 2.273 . S
O1210 Cd1208 2.411 . S
O1210 C1213 1.320 . S
O1211 Cd1208 2.333 . S
O1211 C1213 1.214 . S
O1212 Cd1208 2.352 . S
O1212 C1215 1.258 . S
C1213 O1210 1.320 . S
C1213 O1211 1.214 . S
O1214 Cd1206 2.277 . S
O1214 C1209 1.209 . S
C1215 O1212 1.258 . S
C1215 O1217 1.282 . S
O1216 Cd1208 2.277 . S
O1216 C1209 1.226 . S
O1217 Cd1208 2.356 . S
O1217 C1215 1.282 . S
C1218 O1219 1.306 . S
C1218 O1221 1.160 . S
O1219 C1218 1.306 . S
O1219 Cd1220 2.228 . S
Cd1220 O1219 2.228 . S
Cd1220 O1224 2.273 . S
Cd1220 O1228 2.277 . S
O1221 C1218 1.160 . S
O1221 Cd1222 2.203 . S
Cd1222 O1221 2.203 . S
Cd1222 O1224 2.411 . S
Cd1222 O1225 2.333 . S
Cd1222 O1226 2.352 . S
Cd1222 O1230 2.277 . S
Cd1222 O1231 2.356 . S
C1223 O1228 1.209 . S
C1223 O1230 1.226 . S
O1224 Cd1220 2.273 . S
O1224 Cd1222 2.411 . S
O1224 C1227 1.320 . S
O1225 Cd1222 2.333 . S
O1225 C1227 1.214 . S
O1226 Cd1222 2.352 . S
O1226 C1229 1.258 . S
C1227 O1224 1.320 . S
C1227 O1225 1.214 . S
O1228 Cd1220 2.277 . S
O1228 C1223 1.209 . S
C1229 O1226 1.258 . S
C1229 O1231 1.282 . S
O1230 Cd1222 2.277 . S
O1230 C1223 1.226 . S
O1231 Cd1222 2.356 . S
O1231 C1229 1.282 . S
C1232 O1233 1.306 . S
C1232 O1235 1.160 . S
O1233 C1232 1.306 . S
O1233 Cd1234 2.228 . S
Cd1234 O1233 2.228 . S
Cd1234 O1238 2.273 . S
Cd1234 O1242 2.277 . S
O1235 C1232 1.160 . S
O1235 Cd1236 2.203 . S
Cd1236 O1235 2.203 . S
Cd1236 O1238 2.411 . S
Cd1236 O1239 2.333 . S
Cd1236 O1240 2.352 . S
Cd1236 O1244 2.277 . S
Cd1236 O1245 2.356 . S
C1237 O1242 1.209 . S
C1237 O1244 1.226 . S
O1238 Cd1234 2.273 . S
O1238 Cd1236 2.411 . S
O1238 C1241 1.320 . S
O1239 Cd1236 2.333 . S
O1239 C1241 1.214 . S
O1240 Cd1236 2.352 . S
O1240 C1243 1.258 . S
C1241 O1238 1.320 . S
C1241 O1239 1.214 . S
O1242 Cd1234 2.277 . S
O1242 C1237 1.209 . S
C1243 O1240 1.258 . S
C1243 O1245 1.282 . S
O1244 Cd1236 2.277 . S
O1244 C1237 1.226 . S
O1245 Cd1236 2.356 . S
O1245 C1243 1.282 . S
C1246 O1247 1.306 . S
C1246 O1249 1.160 . S
O1247 C1246 1.306 . S
O1247 Cd1248 2.228 . S
Cd1248 O1247 2.228 . S
Cd1248 O1252 2.273 . S
Cd1248 O1256 2.277 . S
O1249 C1246 1.160 . S
O1249 Cd1250 2.203 . S
Cd1250 O1249 2.203 . S
Cd1250 O1252 2.411 . S
Cd1250 O1253 2.333 . S
Cd1250 O1254 2.352 . S
Cd1250 O1258 2.277 . S
Cd1250 O1259 2.356 . S
C1251 O1256 1.209 . S
C1251 O1258 1.226 . S
O1252 Cd1248 2.273 . S
O1252 Cd1250 2.411 . S
O1252 C1255 1.320 . S
O1253 Cd1250 2.333 . S
O1253 C1255 1.214 . S
O1254 Cd1250 2.352 . S
O1254 C1257 1.258 . S
C1255 O1252 1.320 . S
C1255 O1253 1.214 . S
O1256 Cd1248 2.277 . S
O1256 C1251 1.209 . S
C1257 O1254 1.258 . S
C1257 O1259 1.282 . S
O1258 Cd1250 2.277 . S
O1258 C1251 1.226 . S
O1259 Cd1250 2.356 . S
O1259 C1257 1.282 . S
C1260 O1261 1.306 . S
C1260 O1263 1.160 . S
O1261 C1260 1.306 . S
O1261 Cd1262 2.228 . S
Cd1262 O1261 2.228 . S
Cd1262 O1266 2.273 . S
Cd1262 O1270 2.277 . S
O1263 C1260 1.160 . S
O1263 Cd1264 2.203 . S
Cd1264 O1263 2.203 . S
Cd1264 O1266 2.411 . S
Cd1264 O1267 2.333 . S
Cd1264 O1268 2.352 . S
Cd1264 O1272 2.277 . S
Cd1264 O1273 2.356 . S
C1265 O1270 1.209 . S
C1265 O1272 1.226 . S
O1266 Cd1262 2.273 . S
O1266 Cd1264 2.411 . S
O1266 C1269 1.320 . S
O1267 Cd1264 2.333 . S
O1267 C1269 1.214 . S
O1268 Cd1264 2.352 . S
O1268 C1271 1.258 . S
C1269 O1266 1.320 . S
C1269 O1267 1.214 . S
O1270 Cd1262 2.277 . S
O1270 C1265 1.209 . S
C1271 O1268 1.258 . S
C1271 O1273 1.282 . S
O1272 Cd1264 2.277 . S
O1272 C1265 1.226 . S
O1273 Cd1264 2.356 . S
O1273 C1271 1.282 . S
C1274 O1275 1.306 . S
C1274 O1277 1.160 . S
O1275 C1274 1.306 . S
O1275 Cd1276 2.228 . S
Cd1276 O1275 2.228 . S
Cd1276 O1280 2.273 . S
Cd1276 O1284 2.277 . S
O1277 C1274 1.160 . S
O1277 Cd1278 2.203 . S
Cd1278 O1277 2.203 . S
Cd1278 O1280 2.411 . S
Cd1278 O1281 2.333 . S
Cd1278 O1282 2.352 . S
Cd1278 O1286 2.277 . S
Cd1278 O1287 2.356 . S
C1279 O1284 1.209 . S
C1279 O1286 1.226 . S
O1280 Cd1276 2.273 . S
O1280 Cd1278 2.411 . S
O1280 C1283 1.320 . S
O1281 Cd1278 2.333 . S
O1281 C1283 1.214 . S
O1282 Cd1278 2.352 . S
O1282 C1285 1.258 . S
C1283 O1280 1.320 . S
C1283 O1281 1.214 . S
O1284 Cd1276 2.277 . S
O1284 C1279 1.209 . S
C1285 O1282 1.258 . S
C1285 O1287 1.282 . S
O1286 Cd1278 2.277 . S
O1286 C1279 1.226 . S
O1287 Cd1278 2.356 . S
O1287 C1285 1.282 . S
C1288 O1289 1.306 . S
C1288 O1291 1.160 . S
O1289 C1288 1.306 . S
O1289 Cd1290 2.228 . S
Cd1290 O1289 2.228 . S
Cd1290 O1294 2.273 . S
Cd1290 O1298 2.277 . S
O1291 C1288 1.160 . S
O1291 Cd1292 2.203 . S
Cd1292 O1291 2.203 . S
Cd1292 O1294 2.411 . S
Cd1292 O1295 2.333 . S
Cd1292 O1296 2.352 . S
Cd1292 O1300 2.277 . S
Cd1292 O1301 2.356 . S
C1293 O1298 1.209 . S
C1293 O1300 1.226 . S
O1294 Cd1290 2.273 . S
O1294 Cd1292 2.411 . S
O1294 C1297 1.320 . S
O1295 Cd1292 2.333 . S
O1295 C1297 1.214 . S
O1296 Cd1292 2.352 . S
O1296 C1299 1.258 . S
C1297 O1294 1.320 . S
C1297 O1295 1.214 . S
O1298 Cd1290 2.277 . S
O1298 C1293 1.209 . S
C1299 O1296 1.258 . S
C1299 O1301 1.282 . S
O1300 Cd1292 2.277 . S
O1300 C1293 1.226 . S
O1301 Cd1292 2.356 . S
O1301 C1299 1.282 . S
C1302 O1303 1.306 . S
C1302 O1305 1.160 . S
O1303 C1302 1.306 . S
O1303 Cd1304 2.228 . S
Cd1304 O1303 2.228 . S
Cd1304 O1308 2.273 . S
Cd1304 O1312 2.277 . S
O1305 C1302 1.160 . S
O1305 Cd1306 2.203 . S
Cd1306 O1305 2.203 . S
Cd1306 O1308 2.411 . S
Cd1306 O1309 2.333 . S
Cd1306 O1310 2.352 . S
Cd1306 O1314 2.277 . S
Cd1306 O1315 2.356 . S
C1307 O1312 1.209 . S
C1307 O1314 1.226 . S
O1308 Cd1304 2.273 . S
O1308 Cd1306 2.411 . S
O1308 C1311 1.320 . S
O1309 Cd1306 2.333 . S
O1309 C1311 1.214 . S
O1310 Cd1306 2.352 . S
O1310 C1313 1.258 . S
C1311 O1308 1.320 . S
C1311 O1309 1.214 . S
O1312 Cd1304 2.277 . S
O1312 C1307 1.209 . S
C1313 O1310 1.258 . S
C1313 O1315 1.282 . S
O1314 Cd1306 2.277 . S
O1314 C1307 1.226 . S
O1315 Cd1306 2.356 . S
O1315 C1313 1.282 . S
C1316 O1317 1.306 . S
C1316 O1319 1.160 . S
O1317 C1316 1.306 . S
O1317 Cd1318 2.228 . S
Cd1318 O1317 2.228 . S
Cd1318 O1322 2.273 . S
Cd1318 O1326 2.277 . S
O1319 C1316 1.160 . S
O1319 Cd1320 2.203 . S
Cd1320 O1319 2.203 . S
Cd1320 O1322 2.411 . S
Cd1320 O1323 2.333 . S
Cd1320 O1324 2.352 . S
Cd1320 O1328 2.277 . S
Cd1320 O1329 2.356 . S
C1321 O1326 1.209 . S
C1321 O1328 1.226 . S
O1322 Cd1318 2.273 . S
O1322 Cd1320 2.411 . S
O1322 C1325 1.320 . S
O1323 Cd1320 2.333 . S
O1323 C1325 1.214 . S
O1324 Cd1320 2.352 . S
O1324 C1327 1.258 . S
C1325 O1322 1.320 . S
C1325 O1323 1.214 . S
O1326 Cd1318 2.277 . S
O1326 C1321 1.209 . S
C1327 O1324 1.258 . S
C1327 O1329 1.282 . S
O1328 Cd1320 2.277 . S
O1328 C1321 1.226 . S
O1329 Cd1320 2.356 . S
O1329 C1327 1.282 . S
C1330 O1331 1.306 . S
C1330 O1333 1.160 . S
O1331 C1330 1.306 . S
O1331 Cd1332 2.228 . S
Cd1332 O1331 2.228 . S
Cd1332 O1336 2.273 . S
Cd1332 O1340 2.277 . S
O1333 C1330 1.160 . S
O1333 Cd1334 2.203 . S
Cd1334 O1333 2.203 . S
Cd1334 O1336 2.411 . S
Cd1334 O1337 2.333 . S
Cd1334 O1338 2.352 . S
Cd1334 O1342 2.277 . S
Cd1334 O1343 2.356 . S
C1335 O1340 1.209 . S
C1335 O1342 1.226 . S
O1336 Cd1332 2.273 . S
O1336 Cd1334 2.411 . S
O1336 C1339 1.320 . S
O1337 Cd1334 2.333 . S
O1337 C1339 1.214 . S
O1338 Cd1334 2.352 . S
O1338 C1341 1.258 . S
C1339 O1336 1.320 . S
C1339 O1337 1.214 . S
O1340 Cd1332 2.277 . S
O1340 C1335 1.209 . S
C1341 O1338 1.258 . S
C1341 O1343 1.282 . S
O1342 Cd1334 2.277 . S
O1342 C1335 1.226 . S
O1343 Cd1334 2.356 . S
O1343 C1341 1.282 . S
H1344 C1352 0.929 . S
H1345 C1354 0.930 . S
H1346 C1356 0.930 . S
H1347 C1359 0.929 . S
H1348 C1362 0.930 . S
H1349 C1364 0.960 . S
H1350 C1364 0.960 . S
H1351 C1364 0.960 . S
C1352 H1344 0.929 . S
C1352 C1353 1.377 . S
C1352 C1354 1.384 . S
C1353 C1352 1.377 . S
C1353 C1359 1.390 . S
C1354 H1345 0.930 . S
C1354 C1352 1.384 . S
C1354 C1355 1.372 . S
C1355 C1354 1.372 . S
C1355 C1356 1.400 . S
C1355 C1360 1.490 . S
C1356 H1346 0.930 . S
C1356 C1355 1.400 . S
C1356 C1359 1.386 . S
H1357 C1373 0.930 . S
H1358 C1374 0.931 . S
C1359 H1347 0.929 . S
C1359 C1353 1.390 . S
C1359 C1356 1.386 . S
C1360 C1355 1.490 . S
C1360 C1362 1.395 . S
C1360 C1363 1.403 . S
H1361 C1367 0.930 . S
C1362 H1348 0.930 . S
C1362 C1360 1.395 . S
C1362 C1365 1.403 . S
C1363 C1360 1.403 . S
C1363 C1364 1.524 . S
C1363 C1367 1.400 . S
C1364 H1349 0.960 . S
C1364 H1350 0.960 . S
C1364 H1351 0.960 . S
C1364 C1363 1.524 . S
C1365 C1362 1.403 . S
C1365 C1366 1.392 . S
C1365 C1369 1.495 . S
C1366 C1365 1.392 . S
C1366 C1367 1.385 . S
C1366 C1368 1.478 . S
C1367 H1361 0.930 . S
C1367 C1363 1.400 . S
C1367 C1366 1.385 . S
C1368 C1366 1.478 . S
C1368 C1370 1.381 . S
C1368 C1374 1.383 . S
C1369 C1365 1.495 . S
C1369 H1375 0.959 . S
C1369 H1376 0.961 . S
C1369 H1377 0.960 . S
C1370 C1368 1.381 . S
C1370 C1371 1.394 . S
C1370 H1378 0.930 . S
C1371 C1370 1.394 . S
C1371 C1372 1.383 . S
C1371 H1379 0.929 . S
C1372 C1371 1.383 . S
C1372 C1373 1.377 . S
C1373 H1357 0.930 . S
C1373 C1372 1.377 . S
C1373 C1374 1.379 . S
C1374 H1358 0.931 . S
C1374 C1368 1.383 . S
C1374 C1373 1.379 . S
H1375 C1369 0.959 . S
H1376 C1369 0.961 . S
H1377 C1369 0.960 . S
H1378 C1370 0.930 . S
H1379 C1371 0.929 . S
H1380 C1388 0.929 . S
H1381 C1390 0.930 . S
H1382 C1392 0.930 . S
H1383 C1395 0.929 . S
H1384 C1398 0.930 . S
H1385 C1400 0.960 . S
H1386 C1400 0.960 . S
H1387 C1400 0.960 . S
C1388 H1380 0.929 . S
C1388 C1389 1.377 . S
C1388 C1390 1.384 . S
C1389 C1388 1.377 . S
C1389 C1395 1.390 . S
C1390 H1381 0.930 . S
C1390 C1388 1.384 . S
C1390 C1391 1.372 . S
C1391 C1390 1.372 . S
C1391 C1392 1.400 . S
C1391 C1396 1.490 . S
C1392 H1382 0.930 . S
C1392 C1391 1.400 . S
C1392 C1395 1.386 . S
H1393 C1409 0.930 . S
H1394 C1410 0.931 . S
C1395 H1383 0.929 . S
C1395 C1389 1.390 . S
C1395 C1392 1.386 . S
C1396 C1391 1.490 . S
C1396 C1398 1.395 . S
C1396 C1399 1.403 . S
H1397 C1403 0.930 . S
C1398 H1384 0.930 . S
C1398 C1396 1.395 . S
C1398 C1401 1.403 . S
C1399 C1396 1.403 . S
C1399 C1400 1.524 . S
C1399 C1403 1.400 . S
C1400 H1385 0.960 . S
C1400 H1386 0.960 . S
C1400 H1387 0.960 . S
C1400 C1399 1.524 . S
C1401 C1398 1.403 . S
C1401 C1402 1.392 . S
C1401 C1405 1.495 . S
C1402 C1401 1.392 . S
C1402 C1403 1.385 . S
C1402 C1404 1.478 . S
C1403 H1397 0.930 . S
C1403 C1399 1.400 . S
C1403 C1402 1.385 . S
C1404 C1402 1.478 . S
C1404 C1406 1.381 . S
C1404 C1410 1.383 . S
C1405 C1401 1.495 . S
C1405 H1411 0.959 . S
C1405 H1412 0.961 . S
C1405 H1413 0.960 . S
C1406 C1404 1.381 . S
C1406 C1407 1.394 . S
C1406 H1414 0.930 . S
C1407 C1406 1.394 . S
C1407 C1408 1.383 . S
C1407 H1415 0.929 . S
C1408 C1407 1.383 . S
C1408 C1409 1.377 . S
C1409 H1393 0.930 . S
C1409 C1408 1.377 . S
C1409 C1410 1.379 . S
C1410 H1394 0.931 . S
C1410 C1404 1.383 . S
C1410 C1409 1.379 . S
H1411 C1405 0.959 . S
H1412 C1405 0.961 . S
H1413 C1405 0.960 . S
H1414 C1406 0.930 . S
H1415 C1407 0.929 . S
H1416 C1424 0.929 . S
H1417 C1426 0.930 . S
H1418 C1428 0.930 . S
H1419 C1431 0.929 . S
H1420 C1434 0.930 . S
H1421 C1436 0.960 . S
H1422 C1436 0.960 . S
H1423 C1436 0.960 . S
C1424 H1416 0.929 . S
C1424 C1425 1.377 . S
C1424 C1426 1.384 . S
C1425 C1424 1.377 . S
C1425 C1431 1.390 . S
C1426 H1417 0.930 . S
C1426 C1424 1.384 . S
C1426 C1427 1.372 . S
C1427 C1426 1.372 . S
C1427 C1428 1.400 . S
C1427 C1432 1.490 . S
C1428 H1418 0.930 . S
C1428 C1427 1.400 . S
C1428 C1431 1.386 . S
H1429 C1445 0.930 . S
H1430 C1446 0.931 . S
C1431 H1419 0.929 . S
C1431 C1425 1.390 . S
C1431 C1428 1.386 . S
C1432 C1427 1.490 . S
C1432 C1434 1.395 . S
C1432 C1435 1.403 . S
H1433 C1439 0.930 . S
C1434 H1420 0.930 . S
C1434 C1432 1.395 . S
C1434 C1437 1.403 . S
C1435 C1432 1.403 . S
C1435 C1436 1.524 . S
C1435 C1439 1.400 . S
C1436 H1421 0.960 . S
C1436 H1422 0.960 . S
C1436 H1423 0.960 . S
C1436 C1435 1.524 . S
C1437 C1434 1.403 . S
C1437 C1438 1.392 . S
C1437 C1441 1.495 . S
C1438 C1437 1.392 . S
C1438 C1439 1.385 . S
C1438 C1440 1.478 . S
C1439 H1433 0.930 . S
C1439 C1435 1.400 . S
C1439 C1438 1.385 . S
C1440 C1438 1.478 . S
C1440 C1442 1.381 . S
C1440 C1446 1.383 . S
C1441 C1437 1.495 . S
C1441 H1447 0.959 . S
C1441 H1448 0.961 . S
C1441 H1449 0.960 . S
C1442 C1440 1.381 . S
C1442 C1443 1.394 . S
C1442 H1450 0.930 . S
C1443 C1442 1.394 . S
C1443 C1444 1.383 . S
C1443 H1451 0.929 . S
C1444 C1443 1.383 . S
C1444 C1445 1.377 . S
C1445 H1429 0.930 . S
C1445 C1444 1.377 . S
C1445 C1446 1.379 . S
C1446 H1430 0.931 . S
C1446 C1440 1.383 . S
C1446 C1445 1.379 . S
H1447 C1441 0.959 . S
H1448 C1441 0.961 . S
H1449 C1441 0.960 . S
H1450 C1442 0.930 . S
H1451 C1443 0.929 . S
H1452 C1460 0.929 . S
H1453 C1462 0.930 . S
H1454 C1464 0.930 . S
H1455 C1467 0.929 . S
H1456 C1470 0.930 . S
H1457 C1472 0.960 . S
H1458 C1472 0.960 . S
H1459 C1472 0.960 . S
C1460 H1452 0.929 . S
C1460 C1461 1.377 . S
C1460 C1462 1.384 . S
C1461 C1460 1.377 . S
C1461 C1467 1.390 . S
C1462 H1453 0.930 . S
C1462 C1460 1.384 . S
C1462 C1463 1.372 . S
C1463 C1462 1.372 . S
C1463 C1464 1.400 . S
C1463 C1468 1.490 . S
C1464 H1454 0.930 . S
C1464 C1463 1.400 . S
C1464 C1467 1.386 . S
H1465 C1481 0.930 . S
H1466 C1482 0.931 . S
C1467 H1455 0.929 . S
C1467 C1461 1.390 . S
C1467 C1464 1.386 . S
C1468 C1463 1.490 . S
C1468 C1470 1.395 . S
C1468 C1471 1.403 . S
H1469 C1475 0.930 . S
C1470 H1456 0.930 . S
C1470 C1468 1.395 . S
C1470 C1473 1.403 . S
C1471 C1468 1.403 . S
C1471 C1472 1.524 . S
C1471 C1475 1.400 . S
C1472 H1457 0.960 . S
C1472 H1458 0.960 . S
C1472 H1459 0.960 . S
C1472 C1471 1.524 . S
C1473 C1470 1.403 . S
C1473 C1474 1.392 . S
C1473 C1477 1.495 . S
C1474 C1473 1.392 . S
C1474 C1475 1.385 . S
C1474 C1476 1.478 . S
C1475 H1469 0.930 . S
C1475 C1471 1.400 . S
C1475 C1474 1.385 . S
C1476 C1474 1.478 . S
C1476 C1478 1.381 . S
C1476 C1482 1.383 . S
C1477 C1473 1.495 . S
C1477 H1483 0.959 . S
C1477 H1484 0.961 . S
C1477 H1485 0.960 . S
C1478 C1476 1.381 . S
C1478 C1479 1.394 . S
C1478 H1486 0.930 . S
C1479 C1478 1.394 . S
C1479 C1480 1.383 . S
C1479 H1487 0.929 . S
C1480 C1479 1.383 . S
C1480 C1481 1.377 . S
C1481 H1465 0.930 . S
C1481 C1480 1.377 . S
C1481 C1482 1.379 . S
C1482 H1466 0.931 . S
C1482 C1476 1.383 . S
C1482 C1481 1.379 . S
H1483 C1477 0.959 . S
H1484 C1477 0.961 . S
H1485 C1477 0.960 . S
H1486 C1478 0.930 . S
H1487 C1479 0.929 . S
H1488 C1496 0.929 . S
H1489 C1498 0.930 . S
H1490 C1500 0.930 . S
H1491 C1503 0.929 . S
H1492 C1506 0.930 . S
H1493 C1508 0.960 . S
H1494 C1508 0.960 . S
H1495 C1508 0.960 . S
C1496 H1488 0.929 . S
C1496 C1497 1.377 . S
C1496 C1498 1.384 . S
C1497 C1496 1.377 . S
C1497 C1503 1.390 . S
C1498 H1489 0.930 . S
C1498 C1496 1.384 . S
C1498 C1499 1.372 . S
C1499 C1498 1.372 . S
C1499 C1500 1.400 . S
C1499 C1504 1.490 . S
C1500 H1490 0.930 . S
C1500 C1499 1.400 . S
C1500 C1503 1.386 . S
H1501 C1517 0.930 . S
H1502 C1518 0.931 . S
C1503 H1491 0.929 . S
C1503 C1497 1.390 . S
C1503 C1500 1.386 . S
C1504 C1499 1.490 . S
C1504 C1506 1.395 . S
C1504 C1507 1.403 . S
H1505 C1511 0.930 . S
C1506 H1492 0.930 . S
C1506 C1504 1.395 . S
C1506 C1509 1.403 . S
C1507 C1504 1.403 . S
C1507 C1508 1.524 . S
C1507 C1511 1.400 . S
C1508 H1493 0.960 . S
C1508 H1494 0.960 . S
C1508 H1495 0.960 . S
C1508 C1507 1.524 . S
C1509 C1506 1.403 . S
C1509 C1510 1.392 . S
C1509 C1513 1.495 . S
C1510 C1509 1.392 . S
C1510 C1511 1.385 . S
C1510 C1512 1.478 . S
C1511 H1505 0.930 . S
C1511 C1507 1.400 . S
C1511 C1510 1.385 . S
C1512 C1510 1.478 . S
C1512 C1514 1.381 . S
C1512 C1518 1.383 . S
C1513 C1509 1.495 . S
C1513 H1519 0.959 . S
C1513 H1520 0.961 . S
C1513 H1521 0.960 . S
C1514 C1512 1.381 . S
C1514 C1515 1.394 . S
C1514 H1522 0.930 . S
C1515 C1514 1.394 . S
C1515 C1516 1.383 . S
C1515 H1523 0.929 . S
C1516 C1515 1.383 . S
C1516 C1517 1.377 . S
C1517 H1501 0.930 . S
C1517 C1516 1.377 . S
C1517 C1518 1.379 . S
C1518 H1502 0.931 . S
C1518 C1512 1.383 . S
C1518 C1517 1.379 . S
H1519 C1513 0.959 . S
H1520 C1513 0.961 . S
H1521 C1513 0.960 . S
H1522 C1514 0.930 . S
H1523 C1515 0.929 . S
H1524 C1532 0.929 . S
H1525 C1534 0.930 . S
H1526 C1536 0.930 . S
H1527 C1539 0.929 . S
H1528 C1542 0.930 . S
H1529 C1544 0.960 . S
H1530 C1544 0.960 . S
H1531 C1544 0.960 . S
C1532 H1524 0.929 . S
C1532 C1533 1.377 . S
C1532 C1534 1.384 . S
C1533 C1532 1.377 . S
C1533 C1539 1.390 . S
C1534 H1525 0.930 . S
C1534 C1532 1.384 . S
C1534 C1535 1.372 . S
C1535 C1534 1.372 . S
C1535 C1536 1.400 . S
C1535 C1540 1.490 . S
C1536 H1526 0.930 . S
C1536 C1535 1.400 . S
C1536 C1539 1.386 . S
H1537 C1553 0.930 . S
H1538 C1554 0.931 . S
C1539 H1527 0.929 . S
C1539 C1533 1.390 . S
C1539 C1536 1.386 . S
C1540 C1535 1.490 . S
C1540 C1542 1.395 . S
C1540 C1543 1.403 . S
H1541 C1547 0.930 . S
C1542 H1528 0.930 . S
C1542 C1540 1.395 . S
C1542 C1545 1.403 . S
C1543 C1540 1.403 . S
C1543 C1544 1.524 . S
C1543 C1547 1.400 . S
C1544 H1529 0.960 . S
C1544 H1530 0.960 . S
C1544 H1531 0.960 . S
C1544 C1543 1.524 . S
C1545 C1542 1.403 . S
C1545 C1546 1.392 . S
C1545 C1549 1.495 . S
C1546 C1545 1.392 . S
C1546 C1547 1.385 . S
C1546 C1548 1.478 . S
C1547 H1541 0.930 . S
C1547 C1543 1.400 . S
C1547 C1546 1.385 . S
C1548 C1546 1.478 . S
C1548 C1550 1.381 . S
C1548 C1554 1.383 . S
C1549 C1545 1.495 . S
C1549 H1555 0.959 . S
C1549 H1556 0.961 . S
C1549 H1557 0.960 . S
C1550 C1548 1.381 . S
C1550 C1551 1.394 . S
C1550 H1558 0.930 . S
C1551 C1550 1.394 . S
C1551 C1552 1.383 . S
C1551 H1559 0.929 . S
C1552 C1551 1.383 . S
C1552 C1553 1.377 . S
C1553 H1537 0.930 . S
C1553 C1552 1.377 . S
C1553 C1554 1.379 . S
C1554 H1538 0.931 . S
C1554 C1548 1.383 . S
C1554 C1553 1.379 . S
H1555 C1549 0.959 . S
H1556 C1549 0.961 . S
H1557 C1549 0.960 . S
H1558 C1550 0.930 . S
H1559 C1551 0.929 . S
H1560 C1568 0.929 . S
H1561 C1570 0.930 . S
H1562 C1572 0.930 . S
H1563 C1575 0.929 . S
H1564 C1578 0.930 . S
H1565 C1580 0.960 . S
H1566 C1580 0.960 . S
H1567 C1580 0.960 . S
C1568 H1560 0.929 . S
C1568 C1569 1.377 . S
C1568 C1570 1.384 . S
C1569 C1568 1.377 . S
C1569 C1575 1.390 . S
C1570 H1561 0.930 . S
C1570 C1568 1.384 . S
C1570 C1571 1.372 . S
C1571 C1570 1.372 . S
C1571 C1572 1.400 . S
C1571 C1576 1.490 . S
C1572 H1562 0.930 . S
C1572 C1571 1.400 . S
C1572 C1575 1.386 . S
H1573 C1589 0.930 . S
H1574 C1590 0.931 . S
C1575 H1563 0.929 . S
C1575 C1569 1.390 . S
C1575 C1572 1.386 . S
C1576 C1571 1.490 . S
C1576 C1578 1.395 . S
C1576 C1579 1.403 . S
H1577 C1583 0.930 . S
C1578 H1564 0.930 . S
C1578 C1576 1.395 . S
C1578 C1581 1.403 . S
C1579 C1576 1.403 . S
C1579 C1580 1.524 . S
C1579 C1583 1.400 . S
C1580 H1565 0.960 . S
C1580 H1566 0.960 . S
C1580 H1567 0.960 . S
C1580 C1579 1.524 . S
C1581 C1578 1.403 . S
C1581 C1582 1.392 . S
C1581 C1585 1.495 . S
C1582 C1581 1.392 . S
C1582 C1583 1.385 . S
C1582 C1584 1.478 . S
C1583 H1577 0.930 . S
C1583 C1579 1.400 . S
C1583 C1582 1.385 . S
C1584 C1582 1.478 . S
C1584 C1586 1.381 . S
C1584 C1590 1.383 . S
C1585 C1581 1.495 . S
C1585 H1591 0.959 . S
C1585 H1592 0.961 . S
C1585 H1593 0.960 . S
C1586 C1584 1.381 . S
C1586 C1587 1.394 . S
C1586 H1594 0.930 . S
C1587 C1586 1.394 . S
C1587 C1588 1.383 . S
C1587 H1595 0.929 . S
C1588 C1587 1.383 . S
C1588 C1589 1.377 . S
C1589 H1573 0.930 . S
C1589 C1588 1.377 . S
C1589 C1590 1.379 . S
C1590 H1574 0.931 . S
C1590 C1584 1.383 . S
C1590 C1589 1.379 . S
H1591 C1585 0.959 . S
H1592 C1585 0.961 . S
H1593 C1585 0.960 . S
H1594 C1586 0.930 . S
H1595 C1587 0.929 . S
H1596 C1604 0.929 . S
H1597 C1606 0.930 . S
H1598 C1608 0.930 . S
H1599 C1611 0.929 . S
H1600 C1614 0.930 . S
H1601 C1616 0.960 . S
H1602 C1616 0.960 . S
H1603 C1616 0.960 . S
C1604 H1596 0.929 . S
C1604 C1605 1.377 . S
C1604 C1606 1.384 . S
C1605 C1604 1.377 . S
C1605 C1611 1.390 . S
C1606 H1597 0.930 . S
C1606 C1604 1.384 . S
C1606 C1607 1.372 . S
C1607 C1606 1.372 . S
C1607 C1608 1.400 . S
C1607 C1612 1.490 . S
C1608 H1598 0.930 . S
C1608 C1607 1.400 . S
C1608 C1611 1.386 . S
H1609 C1625 0.930 . S
H1610 C1626 0.931 . S
C1611 H1599 0.929 . S
C1611 C1605 1.390 . S
C1611 C1608 1.386 . S
C1612 C1607 1.490 . S
C1612 C1614 1.395 . S
C1612 C1615 1.403 . S
H1613 C1619 0.930 . S
C1614 H1600 0.930 . S
C1614 C1612 1.395 . S
C1614 C1617 1.403 . S
C1615 C1612 1.403 . S
C1615 C1616 1.524 . S
C1615 C1619 1.400 . S
C1616 H1601 0.960 . S
C1616 H1602 0.960 . S
C1616 H1603 0.960 . S
C1616 C1615 1.524 . S
C1617 C1614 1.403 . S
C1617 C1618 1.392 . S
C1617 C1621 1.495 . S
C1618 C1617 1.392 . S
C1618 C1619 1.385 . S
C1618 C1620 1.478 . S
C1619 H1613 0.930 . S
C1619 C1615 1.400 . S
C1619 C1618 1.385 . S
C1620 C1618 1.478 . S
C1620 C1622 1.381 . S
C1620 C1626 1.383 . S
C1621 C1617 1.495 . S
C1621 H1627 0.959 . S
C1621 H1628 0.961 . S
C1621 H1629 0.960 . S
C1622 C1620 1.381 . S
C1622 C1623 1.394 . S
C1622 H1630 0.930 . S
C1623 C1622 1.394 . S
C1623 C1624 1.383 . S
C1623 H1631 0.929 . S
C1624 C1623 1.383 . S
C1624 C1625 1.377 . S
C1625 H1609 0.930 . S
C1625 C1624 1.377 . S
C1625 C1626 1.379 . S
C1626 H1610 0.931 . S
C1626 C1620 1.383 . S
C1626 C1625 1.379 . S
H1627 C1621 0.959 . S
H1628 C1621 0.961 . S
H1629 C1621 0.960 . S
H1630 C1622 0.930 . S
H1631 C1623 0.929 . S
H1632 C1640 0.929 . S
H1633 C1642 0.930 . S
H1634 C1644 0.930 . S
H1635 C1647 0.929 . S
H1636 C1650 0.930 . S
H1637 C1652 0.960 . S
H1638 C1652 0.960 . S
H1639 C1652 0.960 . S
C1640 H1632 0.929 . S
C1640 C1641 1.377 . S
C1640 C1642 1.384 . S
C1641 C1640 1.377 . S
C1641 C1647 1.390 . S
C1642 H1633 0.930 . S
C1642 C1640 1.384 . S
C1642 C1643 1.372 . S
C1643 C1642 1.372 . S
C1643 C1644 1.400 . S
C1643 C1648 1.490 . S
C1644 H1634 0.930 . S
C1644 C1643 1.400 . S
C1644 C1647 1.386 . S
H1645 C1661 0.930 . S
H1646 C1662 0.931 . S
C1647 H1635 0.929 . S
C1647 C1641 1.390 . S
C1647 C1644 1.386 . S
C1648 C1643 1.490 . S
C1648 C1650 1.395 . S
C1648 C1651 1.403 . S
H1649 C1655 0.930 . S
C1650 H1636 0.930 . S
C1650 C1648 1.395 . S
C1650 C1653 1.403 . S
C1651 C1648 1.403 . S
C1651 C1652 1.524 . S
C1651 C1655 1.400 . S
C1652 H1637 0.960 . S
C1652 H1638 0.960 . S
C1652 H1639 0.960 . S
C1652 C1651 1.524 . S
C1653 C1650 1.403 . S
C1653 C1654 1.392 . S
C1653 C1657 1.495 . S
C1654 C1653 1.392 . S
C1654 C1655 1.385 . S
C1654 C1656 1.478 . S
C1655 H1649 0.930 . S
C1655 C1651 1.400 . S
C1655 C1654 1.385 . S
C1656 C1654 1.478 . S
C1656 C1658 1.381 . S
C1656 C1662 1.383 . S
C1657 C1653 1.495 . S
C1657 H1663 0.959 . S
C1657 H1664 0.961 . S
C1657 H1665 0.960 . S
C1658 C1656 1.381 . S
C1658 C1659 1.394 . S
C1658 H1666 0.930 . S
C1659 C1658 1.394 . S
C1659 C1660 1.383 . S
C1659 H1667 0.929 . S
C1660 C1659 1.383 . S
C1660 C1661 1.377 . S
C1661 H1645 0.930 . S
C1661 C1660 1.377 . S
C1661 C1662 1.379 . S
C1662 H1646 0.931 . S
C1662 C1656 1.383 . S
C1662 C1661 1.379 . S
H1663 C1657 0.959 . S
H1664 C1657 0.961 . S
H1665 C1657 0.960 . S
H1666 C1658 0.930 . S
H1667 C1659 0.929 . S
H1668 C1676 0.929 . S
H1669 C1678 0.930 . S
H1670 C1680 0.930 . S
H1671 C1683 0.929 . S
H1672 C1686 0.930 . S
H1673 C1688 0.960 . S
H1674 C1688 0.960 . S
H1675 C1688 0.960 . S
C1676 H1668 0.929 . S
C1676 C1677 1.377 . S
C1676 C1678 1.384 . S
C1677 C1676 1.377 . S
C1677 C1683 1.390 . S
C1678 H1669 0.930 . S
C1678 C1676 1.384 . S
C1678 C1679 1.372 . S
C1679 C1678 1.372 . S
C1679 C1680 1.400 . S
C1679 C1684 1.490 . S
C1680 H1670 0.930 . S
C1680 C1679 1.400 . S
C1680 C1683 1.386 . S
H1681 C1697 0.930 . S
H1682 C1698 0.931 . S
C1683 H1671 0.929 . S
C1683 C1677 1.390 . S
C1683 C1680 1.386 . S
C1684 C1679 1.490 . S
C1684 C1686 1.395 . S
C1684 C1687 1.403 . S
H1685 C1691 0.930 . S
C1686 H1672 0.930 . S
C1686 C1684 1.395 . S
C1686 C1689 1.403 . S
C1687 C1684 1.403 . S
C1687 C1688 1.524 . S
C1687 C1691 1.400 . S
C1688 H1673 0.960 . S
C1688 H1674 0.960 . S
C1688 H1675 0.960 . S
C1688 C1687 1.524 . S
C1689 C1686 1.403 . S
C1689 C1690 1.392 . S
C1689 C1693 1.495 . S
C1690 C1689 1.392 . S
C1690 C1691 1.385 . S
C1690 C1692 1.478 . S
C1691 H1685 0.930 . S
C1691 C1687 1.400 . S
C1691 C1690 1.385 . S
C1692 C1690 1.478 . S
C1692 C1694 1.381 . S
C1692 C1698 1.383 . S
C1693 C1689 1.495 . S
C1693 H1699 0.959 . S
C1693 H1700 0.961 . S
C1693 H1701 0.960 . S
C1694 C1692 1.381 . S
C1694 C1695 1.394 . S
C1694 H1702 0.930 . S
C1695 C1694 1.394 . S
C1695 C1696 1.383 . S
C1695 H1703 0.929 . S
C1696 C1695 1.383 . S
C1696 C1697 1.377 . S
C1697 H1681 0.930 . S
C1697 C1696 1.377 . S
C1697 C1698 1.379 . S
C1698 H1682 0.931 . S
C1698 C1692 1.383 . S
C1698 C1697 1.379 . S
H1699 C1693 0.959 . S
H1700 C1693 0.961 . S
H1701 C1693 0.960 . S
H1702 C1694 0.930 . S
H1703 C1695 0.929 . S
H1704 C1712 0.929 . S
H1705 C1714 0.930 . S
H1706 C1716 0.930 . S
H1707 C1719 0.929 . S
H1708 C1722 0.930 . S
H1709 C1724 0.960 . S
H1710 C1724 0.960 . S
H1711 C1724 0.960 . S
C1712 H1704 0.929 . S
C1712 C1713 1.377 . S
C1712 C1714 1.384 . S
C1713 C1712 1.377 . S
C1713 C1719 1.390 . S
C1714 H1705 0.930 . S
C1714 C1712 1.384 . S
C1714 C1715 1.372 . S
C1715 C1714 1.372 . S
C1715 C1716 1.400 . S
C1715 C1720 1.490 . S
C1716 H1706 0.930 . S
C1716 C1715 1.400 . S
C1716 C1719 1.386 . S
H1717 C1733 0.930 . S
H1718 C1734 0.931 . S
C1719 H1707 0.929 . S
C1719 C1713 1.390 . S
C1719 C1716 1.386 . S
C1720 C1715 1.490 . S
C1720 C1722 1.395 . S
C1720 C1723 1.403 . S
H1721 C1727 0.930 . S
C1722 H1708 0.930 . S
C1722 C1720 1.395 . S
C1722 C1725 1.403 . S
C1723 C1720 1.403 . S
C1723 C1724 1.524 . S
C1723 C1727 1.400 . S
C1724 H1709 0.960 . S
C1724 H1710 0.960 . S
C1724 H1711 0.960 . S
C1724 C1723 1.524 . S
C1725 C1722 1.403 . S
C1725 C1726 1.392 . S
C1725 C1729 1.495 . S
C1726 C1725 1.392 . S
C1726 C1727 1.385 . S
C1726 C1728 1.478 . S
C1727 H1721 0.930 . S
C1727 C1723 1.400 . S
C1727 C1726 1.385 . S
C1728 C1726 1.478 . S
C1728 C1730 1.381 . S
C1728 C1734 1.383 . S
C1729 C1725 1.495 . S
C1729 H1735 0.959 . S
C1729 H1736 0.961 . S
C1729 H1737 0.960 . S
C1730 C1728 1.381 . S
C1730 C1731 1.394 . S
C1730 H1738 0.930 . S
C1731 C1730 1.394 . S
C1731 C1732 1.383 . S
C1731 H1739 0.929 . S
C1732 C1731 1.383 . S
C1732 C1733 1.377 . S
C1733 H1717 0.930 . S
C1733 C1732 1.377 . S
C1733 C1734 1.379 . S
C1734 H1718 0.931 . S
C1734 C1728 1.383 . S
C1734 C1733 1.379 . S
H1735 C1729 0.959 . S
H1736 C1729 0.961 . S
H1737 C1729 0.960 . S
H1738 C1730 0.930 . S
H1739 C1731 0.929 . S
H1740 C1748 0.929 . S
H1741 C1750 0.930 . S
H1742 C1752 0.930 . S
H1743 C1755 0.929 . S
H1744 C1758 0.930 . S
H1745 C1760 0.960 . S
H1746 C1760 0.960 . S
H1747 C1760 0.960 . S
C1748 H1740 0.929 . S
C1748 C1749 1.377 . S
C1748 C1750 1.384 . S
C1749 C1748 1.377 . S
C1749 C1755 1.390 . S
C1750 H1741 0.930 . S
C1750 C1748 1.384 . S
C1750 C1751 1.372 . S
C1751 C1750 1.372 . S
C1751 C1752 1.400 . S
C1751 C1756 1.490 . S
C1752 H1742 0.930 . S
C1752 C1751 1.400 . S
C1752 C1755 1.386 . S
H1753 C1769 0.930 . S
H1754 C1770 0.931 . S
C1755 H1743 0.929 . S
C1755 C1749 1.390 . S
C1755 C1752 1.386 . S
C1756 C1751 1.490 . S
C1756 C1758 1.395 . S
C1756 C1759 1.403 . S
H1757 C1763 0.930 . S
C1758 H1744 0.930 . S
C1758 C1756 1.395 . S
C1758 C1761 1.403 . S
C1759 C1756 1.403 . S
C1759 C1760 1.524 . S
C1759 C1763 1.400 . S
C1760 H1745 0.960 . S
C1760 H1746 0.960 . S
C1760 H1747 0.960 . S
C1760 C1759 1.524 . S
C1761 C1758 1.403 . S
C1761 C1762 1.392 . S
C1761 C1765 1.495 . S
C1762 C1761 1.392 . S
C1762 C1763 1.385 . S
C1762 C1764 1.478 . S
C1763 H1757 0.930 . S
C1763 C1759 1.400 . S
C1763 C1762 1.385 . S
C1764 C1762 1.478 . S
C1764 C1766 1.381 . S
C1764 C1770 1.383 . S
C1765 C1761 1.495 . S
C1765 H1771 0.959 . S
C1765 H1772 0.961 . S
C1765 H1773 0.960 . S
C1766 C1764 1.381 . S
C1766 C1767 1.394 . S
C1766 H1774 0.930 . S
C1767 C1766 1.394 . S
C1767 C1768 1.383 . S
C1767 H1775 0.929 . S
C1768 C1767 1.383 . S
C1768 C1769 1.377 . S
C1769 H1753 0.930 . S
C1769 C1768 1.377 . S
C1769 C1770 1.379 . S
C1770 H1754 0.931 . S
C1770 C1764 1.383 . S
C1770 C1769 1.379 . S
H1771 C1765 0.959 . S
H1772 C1765 0.961 . S
H1773 C1765 0.960 . S
H1774 C1766 0.930 . S
H1775 C1767 0.929 . S
H1776 C1784 0.929 . S
H1777 C1786 0.930 . S
H1778 C1788 0.930 . S
H1779 C1791 0.929 . S
H1780 C1794 0.930 . S
H1781 C1796 0.960 . S
H1782 C1796 0.960 . S
H1783 C1796 0.960 . S
C1784 H1776 0.929 . S
C1784 C1785 1.377 . S
C1784 C1786 1.384 . S
C1785 C1784 1.377 . S
C1785 C1791 1.390 . S
C1786 H1777 0.930 . S
C1786 C1784 1.384 . S
C1786 C1787 1.372 . S
C1787 C1786 1.372 . S
C1787 C1788 1.400 . S
C1787 C1792 1.490 . S
C1788 H1778 0.930 . S
C1788 C1787 1.400 . S
C1788 C1791 1.386 . S
H1789 C1805 0.930 . S
H1790 C1806 0.931 . S
C1791 H1779 0.929 . S
C1791 C1785 1.390 . S
C1791 C1788 1.386 . S
C1792 C1787 1.490 . S
C1792 C1794 1.395 . S
C1792 C1795 1.403 . S
H1793 C1799 0.930 . S
C1794 H1780 0.930 . S
C1794 C1792 1.395 . S
C1794 C1797 1.403 . S
C1795 C1792 1.403 . S
C1795 C1796 1.524 . S
C1795 C1799 1.400 . S
C1796 H1781 0.960 . S
C1796 H1782 0.960 . S
C1796 H1783 0.960 . S
C1796 C1795 1.524 . S
C1797 C1794 1.403 . S
C1797 C1798 1.392 . S
C1797 C1801 1.495 . S
C1798 C1797 1.392 . S
C1798 C1799 1.385 . S
C1798 C1800 1.478 . S
C1799 H1793 0.930 . S
C1799 C1795 1.400 . S
C1799 C1798 1.385 . S
C1800 C1798 1.478 . S
C1800 C1802 1.381 . S
C1800 C1806 1.383 . S
C1801 C1797 1.495 . S
C1801 H1807 0.959 . S
C1801 H1808 0.961 . S
C1801 H1809 0.960 . S
C1802 C1800 1.381 . S
C1802 C1803 1.394 . S
C1802 H1810 0.930 . S
C1803 C1802 1.394 . S
C1803 C1804 1.383 . S
C1803 H1811 0.929 . S
C1804 C1803 1.383 . S
C1804 C1805 1.377 . S
C1805 H1789 0.930 . S
C1805 C1804 1.377 . S
C1805 C1806 1.379 . S
C1806 H1790 0.931 . S
C1806 C1800 1.383 . S
C1806 C1805 1.379 . S
H1807 C1801 0.959 . S
H1808 C1801 0.961 . S
H1809 C1801 0.960 . S
H1810 C1802 0.930 . S
H1811 C1803 0.929 . S
H1812 C1820 0.929 . S
H1813 C1822 0.930 . S
H1814 C1824 0.930 . S
H1815 C1827 0.929 . S
H1816 C1830 0.930 . S
H1817 C1832 0.960 . S
H1818 C1832 0.960 . S
H1819 C1832 0.960 . S
C1820 H1812 0.929 . S
C1820 C1821 1.377 . S
C1820 C1822 1.384 . S
C1821 C1820 1.377 . S
C1821 C1827 1.390 . S
C1822 H1813 0.930 . S
C1822 C1820 1.384 . S
C1822 C1823 1.372 . S
C1823 C1822 1.372 . S
C1823 C1824 1.400 . S
C1823 C1828 1.490 . S
C1824 H1814 0.930 . S
C1824 C1823 1.400 . S
C1824 C1827 1.386 . S
H1825 C1841 0.930 . S
H1826 C1842 0.931 . S
C1827 H1815 0.929 . S
C1827 C1821 1.390 . S
C1827 C1824 1.386 . S
C1828 C1823 1.490 . S
C1828 C1830 1.395 . S
C1828 C1831 1.403 . S
H1829 C1835 0.930 . S
C1830 H1816 0.930 . S
C1830 C1828 1.395 . S
C1830 C1833 1.403 . S
C1831 C1828 1.403 . S
C1831 C1832 1.524 . S
C1831 C1835 1.400 . S
C1832 H1817 0.960 . S
C1832 H1818 0.960 . S
C1832 H1819 0.960 . S
C1832 C1831 1.524 . S
C1833 C1830 1.403 . S
C1833 C1834 1.392 . S
C1833 C1837 1.495 . S
C1834 C1833 1.392 . S
C1834 C1835 1.385 . S
C1834 C1836 1.478 . S
C1835 H1829 0.930 . S
C1835 C1831 1.400 . S
C1835 C1834 1.385 . S
C1836 C1834 1.478 . S
C1836 C1838 1.381 . S
C1836 C1842 1.383 . S
C1837 C1833 1.495 . S
C1837 H1843 0.959 . S
C1837 H1844 0.961 . S
C1837 H1845 0.960 . S
C1838 C1836 1.381 . S
C1838 C1839 1.394 . S
C1838 H1846 0.930 . S
C1839 C1838 1.394 . S
C1839 C1840 1.383 . S
C1839 H1847 0.929 . S
C1840 C1839 1.383 . S
C1840 C1841 1.377 . S
C1841 H1825 0.930 . S
C1841 C1840 1.377 . S
C1841 C1842 1.379 . S
C1842 H1826 0.931 . S
C1842 C1836 1.383 . S
C1842 C1841 1.379 . S
H1843 C1837 0.959 . S
H1844 C1837 0.961 . S
H1845 C1837 0.960 . S
H1846 C1838 0.930 . S
H1847 C1839 0.929 . S
H1848 C1856 0.929 . S
H1849 C1858 0.930 . S
H1850 C1860 0.930 . S
H1851 C1863 0.929 . S
H1852 C1866 0.930 . S
H1853 C1868 0.960 . S
H1854 C1868 0.960 . S
H1855 C1868 0.960 . S
C1856 H1848 0.929 . S
C1856 C1857 1.377 . S
C1856 C1858 1.384 . S
C1857 C1856 1.377 . S
C1857 C1863 1.390 . S
C1858 H1849 0.930 . S
C1858 C1856 1.384 . S
C1858 C1859 1.372 . S
C1859 C1858 1.372 . S
C1859 C1860 1.400 . S
C1859 C1864 1.490 . S
C1860 H1850 0.930 . S
C1860 C1859 1.400 . S
C1860 C1863 1.386 . S
H1861 C1877 0.930 . S
H1862 C1878 0.931 . S
C1863 H1851 0.929 . S
C1863 C1857 1.390 . S
C1863 C1860 1.386 . S
C1864 C1859 1.490 . S
C1864 C1866 1.395 . S
C1864 C1867 1.403 . S
H1865 C1871 0.930 . S
C1866 H1852 0.930 . S
C1866 C1864 1.395 . S
C1866 C1869 1.403 . S
C1867 C1864 1.403 . S
C1867 C1868 1.524 . S
C1867 C1871 1.400 . S
C1868 H1853 0.960 . S
C1868 H1854 0.960 . S
C1868 H1855 0.960 . S
C1868 C1867 1.524 . S
C1869 C1866 1.403 . S
C1869 C1870 1.392 . S
C1869 C1873 1.495 . S
C1870 C1869 1.392 . S
C1870 C1871 1.385 . S
C1870 C1872 1.478 . S
C1871 H1865 0.930 . S
C1871 C1867 1.400 . S
C1871 C1870 1.385 . S
C1872 C1870 1.478 . S
C1872 C1874 1.381 . S
C1872 C1878 1.383 . S
C1873 C1869 1.495 . S
C1873 H1879 0.959 . S
C1873 H1880 0.961 . S
C1873 H1881 0.960 . S
C1874 C1872 1.381 . S
C1874 C1875 1.394 . S
C1874 H1882 0.930 . S
C1875 C1874 1.394 . S
C1875 C1876 1.383 . S
C1875 H1883 0.929 . S
C1876 C1875 1.383 . S
C1876 C1877 1.377 . S
C1877 H1861 0.930 . S
C1877 C1876 1.377 . S
C1877 C1878 1.379 . S
C1878 H1862 0.931 . S
C1878 C1872 1.383 . S
C1878 C1877 1.379 . S
H1879 C1873 0.959 . S
H1880 C1873 0.961 . S
H1881 C1873 0.960 . S
H1882 C1874 0.930 . S
H1883 C1875 0.929 . S
H1884 C1892 0.929 . S
H1885 C1894 0.930 . S
H1886 C1896 0.930 . S
H1887 C1899 0.929 . S
H1888 C1902 0.930 . S
H1889 C1904 0.960 . S
H1890 C1904 0.960 . S
H1891 C1904 0.960 . S
C1892 H1884 0.929 . S
C1892 C1893 1.377 . S
C1892 C1894 1.384 . S
C1893 C1892 1.377 . S
C1893 C1899 1.390 . S
C1894 H1885 0.930 . S
C1894 C1892 1.384 . S
C1894 C1895 1.372 . S
C1895 C1894 1.372 . S
C1895 C1896 1.400 . S
C1895 C1900 1.490 . S
C1896 H1886 0.930 . S
C1896 C1895 1.400 . S
C1896 C1899 1.386 . S
H1897 C1913 0.930 . S
H1898 C1914 0.931 . S
C1899 H1887 0.929 . S
C1899 C1893 1.390 . S
C1899 C1896 1.386 . S
C1900 C1895 1.490 . S
C1900 C1902 1.395 . S
C1900 C1903 1.403 . S
H1901 C1907 0.930 . S
C1902 H1888 0.930 . S
C1902 C1900 1.395 . S
C1902 C1905 1.403 . S
C1903 C1900 1.403 . S
C1903 C1904 1.524 . S
C1903 C1907 1.400 . S
C1904 H1889 0.960 . S
C1904 H1890 0.960 . S
C1904 H1891 0.960 . S
C1904 C1903 1.524 . S
C1905 C1902 1.403 . S
C1905 C1906 1.392 . S
C1905 C1909 1.495 . S
C1906 C1905 1.392 . S
C1906 C1907 1.385 . S
C1906 C1908 1.478 . S
C1907 H1901 0.930 . S
C1907 C1903 1.400 . S
C1907 C1906 1.385 . S
C1908 C1906 1.478 . S
C1908 C1910 1.381 . S
C1908 C1914 1.383 . S
C1909 C1905 1.495 . S
C1909 H1915 0.959 . S
C1909 H1916 0.961 . S
C1909 H1917 0.960 . S
C1910 C1908 1.381 . S
C1910 C1911 1.394 . S
C1910 H1918 0.930 . S
C1911 C1910 1.394 . S
C1911 C1912 1.383 . S
C1911 H1919 0.929 . S
C1912 C1911 1.383 . S
C1912 C1913 1.377 . S
C1913 H1897 0.930 . S
C1913 C1912 1.377 . S
C1913 C1914 1.379 . S
C1914 H1898 0.931 . S
C1914 C1908 1.383 . S
C1914 C1913 1.379 . S
H1915 C1909 0.959 . S
H1916 C1909 0.961 . S
H1917 C1909 0.960 . S
H1918 C1910 0.930 . S
H1919 C1911 0.929 . S
H1920 C1928 0.929 . S
H1921 C1930 0.930 . S
H1922 C1932 0.930 . S
H1923 C1935 0.929 . S
H1924 C1938 0.930 . S
H1925 C1940 0.960 . S
H1926 C1940 0.960 . S
H1927 C1940 0.960 . S
C1928 H1920 0.929 . S
C1928 C1929 1.377 . S
C1928 C1930 1.384 . S
C1929 C1928 1.377 . S
C1929 C1935 1.390 . S
C1930 H1921 0.930 . S
C1930 C1928 1.384 . S
C1930 C1931 1.372 . S
C1931 C1930 1.372 . S
C1931 C1932 1.400 . S
C1931 C1936 1.490 . S
C1932 H1922 0.930 . S
C1932 C1931 1.400 . S
C1932 C1935 1.386 . S
H1933 C1949 0.930 . S
H1934 C1950 0.931 . S
C1935 H1923 0.929 . S
C1935 C1929 1.390 . S
C1935 C1932 1.386 . S
C1936 C1931 1.490 . S
C1936 C1938 1.395 . S
C1936 C1939 1.403 . S
H1937 C1943 0.930 . S
C1938 H1924 0.930 . S
C1938 C1936 1.395 . S
C1938 C1941 1.403 . S
C1939 C1936 1.403 . S
C1939 C1940 1.524 . S
C1939 C1943 1.400 . S
C1940 H1925 0.960 . S
C1940 H1926 0.960 . S
C1940 H1927 0.960 . S
C1940 C1939 1.524 . S
C1941 C1938 1.403 . S
C1941 C1942 1.392 . S
C1941 C1945 1.495 . S
C1942 C1941 1.392 . S
C1942 C1943 1.385 . S
C1942 C1944 1.478 . S
C1943 H1937 0.930 . S
C1943 C1939 1.400 . S
C1943 C1942 1.385 . S
C1944 C1942 1.478 . S
C1944 C1946 1.381 . S
C1944 C1950 1.383 . S
C1945 C1941 1.495 . S
C1945 H1951 0.959 . S
C1945 H1952 0.961 . S
C1945 H1953 0.960 . S
C1946 C1944 1.381 . S
C1946 C1947 1.394 . S
C1946 H1954 0.930 . S
C1947 C1946 1.394 . S
C1947 C1948 1.383 . S
C1947 H1955 0.929 . S
C1948 C1947 1.383 . S
C1948 C1949 1.377 . S
C1949 H1933 0.930 . S
C1949 C1948 1.377 . S
C1949 C1950 1.379 . S
C1950 H1934 0.931 . S
C1950 C1944 1.383 . S
C1950 C1949 1.379 . S
H1951 C1945 0.959 . S
H1952 C1945 0.961 . S
H1953 C1945 0.960 . S
H1954 C1946 0.930 . S
H1955 C1947 0.929 . S
H1956 C1964 0.929 . S
H1957 C1966 0.930 . S
H1958 C1968 0.930 . S
H1959 C1971 0.929 . S
H1960 C1974 0.930 . S
H1961 C1976 0.960 . S
H1962 C1976 0.960 . S
H1963 C1976 0.960 . S
C1964 H1956 0.929 . S
C1964 C1965 1.377 . S
C1964 C1966 1.384 . S
C1965 C1964 1.377 . S
C1965 C1971 1.390 . S
C1966 H1957 0.930 . S
C1966 C1964 1.384 . S
C1966 C1967 1.372 . S
C1967 C1966 1.372 . S
C1967 C1968 1.400 . S
C1967 C1972 1.490 . S
C1968 H1958 0.930 . S
C1968 C1967 1.400 . S
C1968 C1971 1.386 . S
H1969 C1985 0.930 . S
H1970 C1986 0.931 . S
C1971 H1959 0.929 . S
C1971 C1965 1.390 . S
C1971 C1968 1.386 . S
C1972 C1967 1.490 . S
C1972 C1974 1.395 . S
C1972 C1975 1.403 . S
H1973 C1979 0.930 . S
C1974 H1960 0.930 . S
C1974 C1972 1.395 . S
C1974 C1977 1.403 . S
C1975 C1972 1.403 . S
C1975 C1976 1.524 . S
C1975 C1979 1.400 . S
C1976 H1961 0.960 . S
C1976 H1962 0.960 . S
C1976 H1963 0.960 . S
C1976 C1975 1.524 . S
C1977 C1974 1.403 . S
C1977 C1978 1.392 . S
C1977 C1981 1.495 . S
C1978 C1977 1.392 . S
C1978 C1979 1.385 . S
C1978 C1980 1.478 . S
C1979 H1973 0.930 . S
C1979 C1975 1.400 . S
C1979 C1978 1.385 . S
C1980 C1978 1.478 . S
C1980 C1982 1.381 . S
C1980 C1986 1.383 . S
C1981 C1977 1.495 . S
C1981 H1987 0.959 . S
C1981 H1988 0.961 . S
C1981 H1989 0.960 . S
C1982 C1980 1.381 . S
C1982 C1983 1.394 . S
C1982 H1990 0.930 . S
C1983 C1982 1.394 . S
C1983 C1984 1.383 . S
C1983 H1991 0.929 . S
C1984 C1983 1.383 . S
C1984 C1985 1.377 . S
C1985 H1969 0.930 . S
C1985 C1984 1.377 . S
C1985 C1986 1.379 . S
C1986 H1970 0.931 . S
C1986 C1980 1.383 . S
C1986 C1985 1.379 . S
H1987 C1981 0.959 . S
H1988 C1981 0.961 . S
H1989 C1981 0.960 . S
H1990 C1982 0.930 . S
H1991 C1983 0.929 . S
H1992 C2000 0.929 . S
H1993 C2002 0.930 . S
H1994 C2004 0.930 . S
H1995 C2007 0.929 . S
H1996 C2010 0.930 . S
H1997 C2012 0.960 . S
H1998 C2012 0.960 . S
H1999 C2012 0.960 . S
C2000 H1992 0.929 . S
C2000 C2001 1.377 . S
C2000 C2002 1.384 . S
C2001 C2000 1.377 . S
C2001 C2007 1.390 . S
C2002 H1993 0.930 . S
C2002 C2000 1.384 . S
C2002 C2003 1.372 . S
C2003 C2002 1.372 . S
C2003 C2004 1.400 . S
C2003 C2008 1.490 . S
C2004 H1994 0.930 . S
C2004 C2003 1.400 . S
C2004 C2007 1.386 . S
H2005 C2021 0.930 . S
H2006 C2022 0.931 . S
C2007 H1995 0.929 . S
C2007 C2001 1.390 . S
C2007 C2004 1.386 . S
C2008 C2003 1.490 . S
C2008 C2010 1.395 . S
C2008 C2011 1.403 . S
H2009 C2015 0.930 . S
C2010 H1996 0.930 . S
C2010 C2008 1.395 . S
C2010 C2013 1.403 . S
C2011 C2008 1.403 . S
C2011 C2012 1.524 . S
C2011 C2015 1.400 . S
C2012 H1997 0.960 . S
C2012 H1998 0.960 . S
C2012 H1999 0.960 . S
C2012 C2011 1.524 . S
C2013 C2010 1.403 . S
C2013 C2014 1.392 . S
C2013 C2017 1.495 . S
C2014 C2013 1.392 . S
C2014 C2015 1.385 . S
C2014 C2016 1.478 . S
C2015 H2009 0.930 . S
C2015 C2011 1.400 . S
C2015 C2014 1.385 . S
C2016 C2014 1.478 . S
C2016 C2018 1.381 . S
C2016 C2022 1.383 . S
C2017 C2013 1.495 . S
C2017 H2023 0.959 . S
C2017 H2024 0.961 . S
C2017 H2025 0.960 . S
C2018 C2016 1.381 . S
C2018 C2019 1.394 . S
C2018 H2026 0.930 . S
C2019 C2018 1.394 . S
C2019 C2020 1.383 . S
C2019 H2027 0.929 . S
C2020 C2019 1.383 . S
C2020 C2021 1.377 . S
C2021 H2005 0.930 . S
C2021 C2020 1.377 . S
C2021 C2022 1.379 . S
C2022 H2006 0.931 . S
C2022 C2016 1.383 . S
C2022 C2021 1.379 . S
H2023 C2017 0.959 . S
H2024 C2017 0.961 . S
H2025 C2017 0.960 . S
H2026 C2018 0.930 . S
H2027 C2019 0.929 . S
H2028 C2036 0.929 . S
H2029 C2038 0.930 . S
H2030 C2040 0.930 . S
H2031 C2043 0.929 . S
H2032 C2046 0.930 . S
H2033 C2048 0.960 . S
H2034 C2048 0.960 . S
H2035 C2048 0.960 . S
C2036 H2028 0.929 . S
C2036 C2037 1.377 . S
C2036 C2038 1.384 . S
C2037 C2036 1.377 . S
C2037 C2043 1.390 . S
C2038 H2029 0.930 . S
C2038 C2036 1.384 . S
C2038 C2039 1.372 . S
C2039 C2038 1.372 . S
C2039 C2040 1.400 . S
C2039 C2044 1.490 . S
C2040 H2030 0.930 . S
C2040 C2039 1.400 . S
C2040 C2043 1.386 . S
H2041 C2057 0.930 . S
H2042 C2058 0.931 . S
C2043 H2031 0.929 . S
C2043 C2037 1.390 . S
C2043 C2040 1.386 . S
C2044 C2039 1.490 . S
C2044 C2046 1.395 . S
C2044 C2047 1.403 . S
H2045 C2051 0.930 . S
C2046 H2032 0.930 . S
C2046 C2044 1.395 . S
C2046 C2049 1.403 . S
C2047 C2044 1.403 . S
C2047 C2048 1.524 . S
C2047 C2051 1.400 . S
C2048 H2033 0.960 . S
C2048 H2034 0.960 . S
C2048 H2035 0.960 . S
C2048 C2047 1.524 . S
C2049 C2046 1.403 . S
C2049 C2050 1.392 . S
C2049 C2053 1.495 . S
C2050 C2049 1.392 . S
C2050 C2051 1.385 . S
C2050 C2052 1.478 . S
C2051 H2045 0.930 . S
C2051 C2047 1.400 . S
C2051 C2050 1.385 . S
C2052 C2050 1.478 . S
C2052 C2054 1.381 . S
C2052 C2058 1.383 . S
C2053 C2049 1.495 . S
C2053 H2059 0.959 . S
C2053 H2060 0.961 . S
C2053 H2061 0.960 . S
C2054 C2052 1.381 . S
C2054 C2055 1.394 . S
C2054 H2062 0.930 . S
C2055 C2054 1.394 . S
C2055 C2056 1.383 . S
C2055 H2063 0.929 . S
C2056 C2055 1.383 . S
C2056 C2057 1.377 . S
C2057 H2041 0.930 . S
C2057 C2056 1.377 . S
C2057 C2058 1.379 . S
C2058 H2042 0.931 . S
C2058 C2052 1.383 . S
C2058 C2057 1.379 . S
H2059 C2053 0.959 . S
H2060 C2053 0.961 . S
H2061 C2053 0.960 . S
H2062 C2054 0.930 . S
H2063 C2055 0.929 . S
H2064 C2072 0.929 . S
H2065 C2074 0.930 . S
H2066 C2076 0.930 . S
H2067 C2079 0.929 . S
H2068 C2082 0.930 . S
H2069 C2084 0.960 . S
H2070 C2084 0.960 . S
H2071 C2084 0.960 . S
C2072 H2064 0.929 . S
C2072 C2073 1.377 . S
C2072 C2074 1.384 . S
C2073 C2072 1.377 . S
C2073 C2079 1.390 . S
C2074 H2065 0.930 . S
C2074 C2072 1.384 . S
C2074 C2075 1.372 . S
C2075 C2074 1.372 . S
C2075 C2076 1.400 . S
C2075 C2080 1.490 . S
C2076 H2066 0.930 . S
C2076 C2075 1.400 . S
C2076 C2079 1.386 . S
H2077 C2093 0.930 . S
H2078 C2094 0.931 . S
C2079 H2067 0.929 . S
C2079 C2073 1.390 . S
C2079 C2076 1.386 . S
C2080 C2075 1.490 . S
C2080 C2082 1.395 . S
C2080 C2083 1.403 . S
H2081 C2087 0.930 . S
C2082 H2068 0.930 . S
C2082 C2080 1.395 . S
C2082 C2085 1.403 . S
C2083 C2080 1.403 . S
C2083 C2084 1.524 . S
C2083 C2087 1.400 . S
C2084 H2069 0.960 . S
C2084 H2070 0.960 . S
C2084 H2071 0.960 . S
C2084 C2083 1.524 . S
C2085 C2082 1.403 . S
C2085 C2086 1.392 . S
C2085 C2089 1.495 . S
C2086 C2085 1.392 . S
C2086 C2087 1.385 . S
C2086 C2088 1.478 . S
C2087 H2081 0.930 . S
C2087 C2083 1.400 . S
C2087 C2086 1.385 . S
C2088 C2086 1.478 . S
C2088 C2090 1.381 . S
C2088 C2094 1.383 . S
C2089 C2085 1.495 . S
C2089 H2095 0.959 . S
C2089 H2096 0.961 . S
C2089 H2097 0.960 . S
C2090 C2088 1.381 . S
C2090 C2091 1.394 . S
C2090 H2098 0.930 . S
C2091 C2090 1.394 . S
C2091 C2092 1.383 . S
C2091 H2099 0.929 . S
C2092 C2091 1.383 . S
C2092 C2093 1.377 . S
C2093 H2077 0.930 . S
C2093 C2092 1.377 . S
C2093 C2094 1.379 . S
C2094 H2078 0.931 . S
C2094 C2088 1.383 . S
C2094 C2093 1.379 . S
H2095 C2089 0.959 . S
H2096 C2089 0.961 . S
H2097 C2089 0.960 . S
H2098 C2090 0.930 . S
H2099 C2091 0.929 . S
H2100 C2108 0.929 . S
H2101 C2110 0.930 . S
H2102 C2112 0.930 . S
H2103 C2115 0.929 . S
H2104 C2118 0.930 . S
H2105 C2120 0.960 . S
H2106 C2120 0.960 . S
H2107 C2120 0.960 . S
C2108 H2100 0.929 . S
C2108 C2109 1.377 . S
C2108 C2110 1.384 . S
C2109 C2108 1.377 . S
C2109 C2115 1.390 . S
C2110 H2101 0.930 . S
C2110 C2108 1.384 . S
C2110 C2111 1.372 . S
C2111 C2110 1.372 . S
C2111 C2112 1.400 . S
C2111 C2116 1.490 . S
C2112 H2102 0.930 . S
C2112 C2111 1.400 . S
C2112 C2115 1.386 . S
H2113 C2129 0.930 . S
H2114 C2130 0.931 . S
C2115 H2103 0.929 . S
C2115 C2109 1.390 . S
C2115 C2112 1.386 . S
C2116 C2111 1.490 . S
C2116 C2118 1.395 . S
C2116 C2119 1.403 . S
H2117 C2123 0.930 . S
C2118 H2104 0.930 . S
C2118 C2116 1.395 . S
C2118 C2121 1.403 . S
C2119 C2116 1.403 . S
C2119 C2120 1.524 . S
C2119 C2123 1.400 . S
C2120 H2105 0.960 . S
C2120 H2106 0.960 . S
C2120 H2107 0.960 . S
C2120 C2119 1.524 . S
C2121 C2118 1.403 . S
C2121 C2122 1.392 . S
C2121 C2125 1.495 . S
C2122 C2121 1.392 . S
C2122 C2123 1.385 . S
C2122 C2124 1.478 . S
C2123 H2117 0.930 . S
C2123 C2119 1.400 . S
C2123 C2122 1.385 . S
C2124 C2122 1.478 . S
C2124 C2126 1.381 . S
C2124 C2130 1.383 . S
C2125 C2121 1.495 . S
C2125 H2131 0.959 . S
C2125 H2132 0.961 . S
C2125 H2133 0.960 . S
C2126 C2124 1.381 . S
C2126 C2127 1.394 . S
C2126 H2134 0.930 . S
C2127 C2126 1.394 . S
C2127 C2128 1.383 . S
C2127 H2135 0.929 . S
C2128 C2127 1.383 . S
C2128 C2129 1.377 . S
C2129 H2113 0.930 . S
C2129 C2128 1.377 . S
C2129 C2130 1.379 . S
C2130 H2114 0.931 . S
C2130 C2124 1.383 . S
C2130 C2129 1.379 . S
H2131 C2125 0.959 . S
H2132 C2125 0.961 . S
H2133 C2125 0.960 . S
H2134 C2126 0.930 . S
H2135 C2127 0.929 . S
H2136 C2144 0.929 . S
H2137 C2146 0.930 . S
H2138 C2148 0.930 . S
H2139 C2151 0.929 . S
H2140 C2154 0.930 . S
H2141 C2156 0.960 . S
H2142 C2156 0.960 . S
H2143 C2156 0.960 . S
C2144 H2136 0.929 . S
C2144 C2145 1.377 . S
C2144 C2146 1.384 . S
C2145 C2144 1.377 . S
C2145 C2151 1.390 . S
C2146 H2137 0.930 . S
C2146 C2144 1.384 . S
C2146 C2147 1.372 . S
C2147 C2146 1.372 . S
C2147 C2148 1.400 . S
C2147 C2152 1.490 . S
C2148 H2138 0.930 . S
C2148 C2147 1.400 . S
C2148 C2151 1.386 . S
H2149 C2165 0.930 . S
H2150 C2166 0.931 . S
C2151 H2139 0.929 . S
C2151 C2145 1.390 . S
C2151 C2148 1.386 . S
C2152 C2147 1.490 . S
C2152 C2154 1.395 . S
C2152 C2155 1.403 . S
H2153 C2159 0.930 . S
C2154 H2140 0.930 . S
C2154 C2152 1.395 . S
C2154 C2157 1.403 . S
C2155 C2152 1.403 . S
C2155 C2156 1.524 . S
C2155 C2159 1.400 . S
C2156 H2141 0.960 . S
C2156 H2142 0.960 . S
C2156 H2143 0.960 . S
C2156 C2155 1.524 . S
C2157 C2154 1.403 . S
C2157 C2158 1.392 . S
C2157 C2161 1.495 . S
C2158 C2157 1.392 . S
C2158 C2159 1.385 . S
C2158 C2160 1.478 . S
C2159 H2153 0.930 . S
C2159 C2155 1.400 . S
C2159 C2158 1.385 . S
C2160 C2158 1.478 . S
C2160 C2162 1.381 . S
C2160 C2166 1.383 . S
C2161 C2157 1.495 . S
C2161 H2167 0.959 . S
C2161 H2168 0.961 . S
C2161 H2169 0.960 . S
C2162 C2160 1.381 . S
C2162 C2163 1.394 . S
C2162 H2170 0.930 . S
C2163 C2162 1.394 . S
C2163 C2164 1.383 . S
C2163 H2171 0.929 . S
C2164 C2163 1.383 . S
C2164 C2165 1.377 . S
C2165 H2149 0.930 . S
C2165 C2164 1.377 . S
C2165 C2166 1.379 . S
C2166 H2150 0.931 . S
C2166 C2160 1.383 . S
C2166 C2165 1.379 . S
H2167 C2161 0.959 . S
H2168 C2161 0.961 . S
H2169 C2161 0.960 . S
H2170 C2162 0.930 . S
H2171 C2163 0.929 . S
H2172 C2180 0.929 . S
H2173 C2182 0.930 . S
H2174 C2184 0.930 . S
H2175 C2187 0.929 . S
H2176 C2190 0.930 . S
H2177 C2192 0.960 . S
H2178 C2192 0.960 . S
H2179 C2192 0.960 . S
C2180 H2172 0.929 . S
C2180 C2181 1.377 . S
C2180 C2182 1.384 . S
C2181 C2180 1.377 . S
C2181 C2187 1.390 . S
C2182 H2173 0.930 . S
C2182 C2180 1.384 . S
C2182 C2183 1.372 . S
C2183 C2182 1.372 . S
C2183 C2184 1.400 . S
C2183 C2188 1.490 . S
C2184 H2174 0.930 . S
C2184 C2183 1.400 . S
C2184 C2187 1.386 . S
H2185 C2201 0.930 . S
H2186 C2202 0.931 . S
C2187 H2175 0.929 . S
C2187 C2181 1.390 . S
C2187 C2184 1.386 . S
C2188 C2183 1.490 . S
C2188 C2190 1.395 . S
C2188 C2191 1.403 . S
H2189 C2195 0.930 . S
C2190 H2176 0.930 . S
C2190 C2188 1.395 . S
C2190 C2193 1.403 . S
C2191 C2188 1.403 . S
C2191 C2192 1.524 . S
C2191 C2195 1.400 . S
C2192 H2177 0.960 . S
C2192 H2178 0.960 . S
C2192 H2179 0.960 . S
C2192 C2191 1.524 . S
C2193 C2190 1.403 . S
C2193 C2194 1.392 . S
C2193 C2197 1.495 . S
C2194 C2193 1.392 . S
C2194 C2195 1.385 . S
C2194 C2196 1.478 . S
C2195 H2189 0.930 . S
C2195 C2191 1.400 . S
C2195 C2194 1.385 . S
C2196 C2194 1.478 . S
C2196 C2198 1.381 . S
C2196 C2202 1.383 . S
C2197 C2193 1.495 . S
C2197 H2203 0.959 . S
C2197 H2204 0.961 . S
C2197 H2205 0.960 . S
C2198 C2196 1.381 . S
C2198 C2199 1.394 . S
C2198 H2206 0.930 . S
C2199 C2198 1.394 . S
C2199 C2200 1.383 . S
C2199 H2207 0.929 . S
C2200 C2199 1.383 . S
C2200 C2201 1.377 . S
C2201 H2185 0.930 . S
C2201 C2200 1.377 . S
C2201 C2202 1.379 . S
C2202 H2186 0.931 . S
C2202 C2196 1.383 . S
C2202 C2201 1.379 . S
H2203 C2197 0.959 . S
H2204 C2197 0.961 . S
H2205 C2197 0.960 . S
H2206 C2198 0.930 . S
H2207 C2199 0.929 . S
H2208 C2216 0.929 . S
H2209 C2218 0.930 . S
H2210 C2220 0.930 . S
H2211 C2223 0.929 . S
H2212 C2226 0.930 . S
H2213 C2228 0.960 . S
H2214 C2228 0.960 . S
H2215 C2228 0.960 . S
C2216 H2208 0.929 . S
C2216 C2217 1.377 . S
C2216 C2218 1.384 . S
C2217 C2216 1.377 . S
C2217 C2223 1.390 . S
C2218 H2209 0.930 . S
C2218 C2216 1.384 . S
C2218 C2219 1.372 . S
C2219 C2218 1.372 . S
C2219 C2220 1.400 . S
C2219 C2224 1.490 . S
C2220 H2210 0.930 . S
C2220 C2219 1.400 . S
C2220 C2223 1.386 . S
H2221 C2237 0.930 . S
H2222 C2238 0.931 . S
C2223 H2211 0.929 . S
C2223 C2217 1.390 . S
C2223 C2220 1.386 . S
C2224 C2219 1.490 . S
C2224 C2226 1.395 . S
C2224 C2227 1.403 . S
H2225 C2231 0.930 . S
C2226 H2212 0.930 . S
C2226 C2224 1.395 . S
C2226 C2229 1.403 . S
C2227 C2224 1.403 . S
C2227 C2228 1.524 . S
C2227 C2231 1.400 . S
C2228 H2213 0.960 . S
C2228 H2214 0.960 . S
C2228 H2215 0.960 . S
C2228 C2227 1.524 . S
C2229 C2226 1.403 . S
C2229 C2230 1.392 . S
C2229 C2233 1.495 . S
C2230 C2229 1.392 . S
C2230 C2231 1.385 . S
C2230 C2232 1.478 . S
C2231 H2225 0.930 . S
C2231 C2227 1.400 . S
C2231 C2230 1.385 . S
C2232 C2230 1.478 . S
C2232 C2234 1.381 . S
C2232 C2238 1.383 . S
C2233 C2229 1.495 . S
C2233 H2239 0.959 . S
C2233 H2240 0.961 . S
C2233 H2241 0.960 . S
C2234 C2232 1.381 . S
C2234 C2235 1.394 . S
C2234 H2242 0.930 . S
C2235 C2234 1.394 . S
C2235 C2236 1.383 . S
C2235 H2243 0.929 . S
C2236 C2235 1.383 . S
C2236 C2237 1.377 . S
C2237 H2221 0.930 . S
C2237 C2236 1.377 . S
C2237 C2238 1.379 . S
C2238 H2222 0.931 . S
C2238 C2232 1.383 . S
C2238 C2237 1.379 . S
H2239 C2233 0.959 . S
H2240 C2233 0.961 . S
H2241 C2233 0.960 . S
H2242 C2234 0.930 . S
H2243 C2235 0.929 . S
H2244 C2252 0.929 . S
H2245 C2254 0.930 . S
H2246 C2256 0.930 . S
H2247 C2259 0.929 . S
H2248 C2262 0.930 . S
H2249 C2264 0.960 . S
H2250 C2264 0.960 . S
H2251 C2264 0.960 . S
C2252 H2244 0.929 . S
C2252 C2253 1.377 . S
C2252 C2254 1.384 . S
C2253 C2252 1.377 . S
C2253 C2259 1.390 . S
C2254 H2245 0.930 . S
C2254 C2252 1.384 . S
C2254 C2255 1.372 . S
C2255 C2254 1.372 . S
C2255 C2256 1.400 . S
C2255 C2260 1.490 . S
C2256 H2246 0.930 . S
C2256 C2255 1.400 . S
C2256 C2259 1.386 . S
H2257 C2273 0.930 . S
H2258 C2274 0.931 . S
C2259 H2247 0.929 . S
C2259 C2253 1.390 . S
C2259 C2256 1.386 . S
C2260 C2255 1.490 . S
C2260 C2262 1.395 . S
C2260 C2263 1.403 . S
H2261 C2267 0.930 . S
C2262 H2248 0.930 . S
C2262 C2260 1.395 . S
C2262 C2265 1.403 . S
C2263 C2260 1.403 . S
C2263 C2264 1.524 . S
C2263 C2267 1.400 . S
C2264 H2249 0.960 . S
C2264 H2250 0.960 . S
C2264 H2251 0.960 . S
C2264 C2263 1.524 . S
C2265 C2262 1.403 . S
C2265 C2266 1.392 . S
C2265 C2269 1.495 . S
C2266 C2265 1.392 . S
C2266 C2267 1.385 . S
C2266 C2268 1.478 . S
C2267 H2261 0.930 . S
C2267 C2263 1.400 . S
C2267 C2266 1.385 . S
C2268 C2266 1.478 . S
C2268 C2270 1.381 . S
C2268 C2274 1.383 . S
C2269 C2265 1.495 . S
C2269 H2275 0.959 . S
C2269 H2276 0.961 . S
C2269 H2277 0.960 . S
C2270 C2268 1.381 . S
C2270 C2271 1.394 . S
C2270 H2278 0.930 . S
C2271 C2270 1.394 . S
C2271 C2272 1.383 . S
C2271 H2279 0.929 . S
C2272 C2271 1.383 . S
C2272 C2273 1.377 . S
C2273 H2257 0.930 . S
C2273 C2272 1.377 . S
C2273 C2274 1.379 . S
C2274 H2258 0.931 . S
C2274 C2268 1.383 . S
C2274 C2273 1.379 . S
H2275 C2269 0.959 . S
H2276 C2269 0.961 . S
H2277 C2269 0.960 . S
H2278 C2270 0.930 . S
H2279 C2271 0.929 . S
H2280 C2288 0.929 . S
H2281 C2290 0.930 . S
H2282 C2292 0.930 . S
H2283 C2295 0.929 . S
H2284 C2298 0.930 . S
H2285 C2300 0.960 . S
H2286 C2300 0.960 . S
H2287 C2300 0.960 . S
C2288 H2280 0.929 . S
C2288 C2289 1.377 . S
C2288 C2290 1.384 . S
C2289 C2288 1.377 . S
C2289 C2295 1.390 . S
C2290 H2281 0.930 . S
C2290 C2288 1.384 . S
C2290 C2291 1.372 . S
C2291 C2290 1.372 . S
C2291 C2292 1.400 . S
C2291 C2296 1.490 . S
C2292 H2282 0.930 . S
C2292 C2291 1.400 . S
C2292 C2295 1.386 . S
H2293 C2309 0.930 . S
H2294 C2310 0.931 . S
C2295 H2283 0.929 . S
C2295 C2289 1.390 . S
C2295 C2292 1.386 . S
C2296 C2291 1.490 . S
C2296 C2298 1.395 . S
C2296 C2299 1.403 . S
H2297 C2303 0.930 . S
C2298 H2284 0.930 . S
C2298 C2296 1.395 . S
C2298 C2301 1.403 . S
C2299 C2296 1.403 . S
C2299 C2300 1.524 . S
C2299 C2303 1.400 . S
C2300 H2285 0.960 . S
C2300 H2286 0.960 . S
C2300 H2287 0.960 . S
C2300 C2299 1.524 . S
C2301 C2298 1.403 . S
C2301 C2302 1.392 . S
C2301 C2305 1.495 . S
C2302 C2301 1.392 . S
C2302 C2303 1.385 . S
C2302 C2304 1.478 . S
C2303 H2297 0.930 . S
C2303 C2299 1.400 . S
C2303 C2302 1.385 . S
C2304 C2302 1.478 . S
C2304 C2306 1.381 . S
C2304 C2310 1.383 . S
C2305 C2301 1.495 . S
C2305 H2311 0.959 . S
C2305 H2312 0.961 . S
C2305 H2313 0.960 . S
C2306 C2304 1.381 . S
C2306 C2307 1.394 . S
C2306 H2314 0.930 . S
C2307 C2306 1.394 . S
C2307 C2308 1.383 . S
C2307 H2315 0.929 . S
C2308 C2307 1.383 . S
C2308 C2309 1.377 . S
C2309 H2293 0.930 . S
C2309 C2308 1.377 . S
C2309 C2310 1.379 . S
C2310 H2294 0.931 . S
C2310 C2304 1.383 . S
C2310 C2309 1.379 . S
H2311 C2305 0.959 . S
H2312 C2305 0.961 . S
H2313 C2305 0.960 . S
H2314 C2306 0.930 . S
H2315 C2307 0.929 . S
H2316 C2324 0.929 . S
H2317 C2326 0.930 . S
H2318 C2328 0.930 . S
H2319 C2331 0.929 . S
H2320 C2334 0.930 . S
H2321 C2336 0.960 . S
H2322 C2336 0.960 . S
H2323 C2336 0.960 . S
C2324 H2316 0.929 . S
C2324 C2325 1.377 . S
C2324 C2326 1.384 . S
C2325 C2324 1.377 . S
C2325 C2331 1.390 . S
C2326 H2317 0.930 . S
C2326 C2324 1.384 . S
C2326 C2327 1.372 . S
C2327 C2326 1.372 . S
C2327 C2328 1.400 . S
C2327 C2332 1.490 . S
C2328 H2318 0.930 . S
C2328 C2327 1.400 . S
C2328 C2331 1.386 . S
H2329 C2345 0.930 . S
H2330 C2346 0.931 . S
C2331 H2319 0.929 . S
C2331 C2325 1.390 . S
C2331 C2328 1.386 . S
C2332 C2327 1.490 . S
C2332 C2334 1.395 . S
C2332 C2335 1.403 . S
H2333 C2339 0.930 . S
C2334 H2320 0.930 . S
C2334 C2332 1.395 . S
C2334 C2337 1.403 . S
C2335 C2332 1.403 . S
C2335 C2336 1.524 . S
C2335 C2339 1.400 . S
C2336 H2321 0.960 . S
C2336 H2322 0.960 . S
C2336 H2323 0.960 . S
C2336 C2335 1.524 . S
C2337 C2334 1.403 . S
C2337 C2338 1.392 . S
C2337 C2341 1.495 . S
C2338 C2337 1.392 . S
C2338 C2339 1.385 . S
C2338 C2340 1.478 . S
C2339 H2333 0.930 . S
C2339 C2335 1.400 . S
C2339 C2338 1.385 . S
C2340 C2338 1.478 . S
C2340 C2342 1.381 . S
C2340 C2346 1.383 . S
C2341 C2337 1.495 . S
C2341 H2347 0.959 . S
C2341 H2348 0.961 . S
C2341 H2349 0.960 . S
C2342 C2340 1.381 . S
C2342 C2343 1.394 . S
C2342 H2350 0.930 . S
C2343 C2342 1.394 . S
C2343 C2344 1.383 . S
C2343 H2351 0.929 . S
C2344 C2343 1.383 . S
C2344 C2345 1.377 . S
C2345 H2329 0.930 . S
C2345 C2344 1.377 . S
C2345 C2346 1.379 . S
C2346 H2330 0.931 . S
C2346 C2340 1.383 . S
C2346 C2345 1.379 . S
H2347 C2341 0.959 . S
H2348 C2341 0.961 . S
H2349 C2341 0.960 . S
H2350 C2342 0.930 . S
H2351 C2343 0.929 . S
H2352 C2360 0.929 . S
H2353 C2362 0.930 . S
H2354 C2364 0.930 . S
H2355 C2367 0.929 . S
H2356 C2370 0.930 . S
H2357 C2372 0.960 . S
H2358 C2372 0.960 . S
H2359 C2372 0.960 . S
C2360 H2352 0.929 . S
C2360 C2361 1.377 . S
C2360 C2362 1.384 . S
C2361 C2360 1.377 . S
C2361 C2367 1.390 . S
C2362 H2353 0.930 . S
C2362 C2360 1.384 . S
C2362 C2363 1.372 . S
C2363 C2362 1.372 . S
C2363 C2364 1.400 . S
C2363 C2368 1.490 . S
C2364 H2354 0.930 . S
C2364 C2363 1.400 . S
C2364 C2367 1.386 . S
H2365 C2381 0.930 . S
H2366 C2382 0.931 . S
C2367 H2355 0.929 . S
C2367 C2361 1.390 . S
C2367 C2364 1.386 . S
C2368 C2363 1.490 . S
C2368 C2370 1.395 . S
C2368 C2371 1.403 . S
H2369 C2375 0.930 . S
C2370 H2356 0.930 . S
C2370 C2368 1.395 . S
C2370 C2373 1.403 . S
C2371 C2368 1.403 . S
C2371 C2372 1.524 . S
C2371 C2375 1.400 . S
C2372 H2357 0.960 . S
C2372 H2358 0.960 . S
C2372 H2359 0.960 . S
C2372 C2371 1.524 . S
C2373 C2370 1.403 . S
C2373 C2374 1.392 . S
C2373 C2377 1.495 . S
C2374 C2373 1.392 . S
C2374 C2375 1.385 . S
C2374 C2376 1.478 . S
C2375 H2369 0.930 . S
C2375 C2371 1.400 . S
C2375 C2374 1.385 . S
C2376 C2374 1.478 . S
C2376 C2378 1.381 . S
C2376 C2382 1.383 . S
C2377 C2373 1.495 . S
C2377 H2383 0.959 . S
C2377 H2384 0.961 . S
C2377 H2385 0.960 . S
C2378 C2376 1.381 . S
C2378 C2379 1.394 . S
C2378 H2386 0.930 . S
C2379 C2378 1.394 . S
C2379 C2380 1.383 . S
C2379 H2387 0.929 . S
C2380 C2379 1.383 . S
C2380 C2381 1.377 . S
C2381 H2365 0.930 . S
C2381 C2380 1.377 . S
C2381 C2382 1.379 . S
C2382 H2366 0.931 . S
C2382 C2376 1.383 . S
C2382 C2381 1.379 . S
H2383 C2377 0.959 . S
H2384 C2377 0.961 . S
H2385 C2377 0.960 . S
H2386 C2378 0.930 . S
H2387 C2379 0.929 . S
H2388 C2396 0.929 . S
H2389 C2398 0.930 . S
H2390 C2400 0.930 . S
H2391 C2403 0.929 . S
H2392 C2406 0.930 . S
H2393 C2408 0.960 . S
H2394 C2408 0.960 . S
H2395 C2408 0.960 . S
C2396 H2388 0.929 . S
C2396 C2397 1.377 . S
C2396 C2398 1.384 . S
C2397 C2396 1.377 . S
C2397 C2403 1.390 . S
C2398 H2389 0.930 . S
C2398 C2396 1.384 . S
C2398 C2399 1.372 . S
C2399 C2398 1.372 . S
C2399 C2400 1.400 . S
C2399 C2404 1.490 . S
C2400 H2390 0.930 . S
C2400 C2399 1.400 . S
C2400 C2403 1.386 . S
H2401 C2417 0.930 . S
H2402 C2418 0.931 . S
C2403 H2391 0.929 . S
C2403 C2397 1.390 . S
C2403 C2400 1.386 . S
C2404 C2399 1.490 . S
C2404 C2406 1.395 . S
C2404 C2407 1.403 . S
H2405 C2411 0.930 . S
C2406 H2392 0.930 . S
C2406 C2404 1.395 . S
C2406 C2409 1.403 . S
C2407 C2404 1.403 . S
C2407 C2408 1.524 . S
C2407 C2411 1.400 . S
C2408 H2393 0.960 . S
C2408 H2394 0.960 . S
C2408 H2395 0.960 . S
C2408 C2407 1.524 . S
C2409 C2406 1.403 . S
C2409 C2410 1.392 . S
C2409 C2413 1.495 . S
C2410 C2409 1.392 . S
C2410 C2411 1.385 . S
C2410 C2412 1.478 . S
C2411 H2405 0.930 . S
C2411 C2407 1.400 . S
C2411 C2410 1.385 . S
C2412 C2410 1.478 . S
C2412 C2414 1.381 . S
C2412 C2418 1.383 . S
C2413 C2409 1.495 . S
C2413 H2419 0.959 . S
C2413 H2420 0.961 . S
C2413 H2421 0.960 . S
C2414 C2412 1.381 . S
C2414 C2415 1.394 . S
C2414 H2422 0.930 . S
C2415 C2414 1.394 . S
C2415 C2416 1.383 . S
C2415 H2423 0.929 . S
C2416 C2415 1.383 . S
C2416 C2417 1.377 . S
C2417 H2401 0.930 . S
C2417 C2416 1.377 . S
C2417 C2418 1.379 . S
C2418 H2402 0.931 . S
C2418 C2412 1.383 . S
C2418 C2417 1.379 . S
H2419 C2413 0.959 . S
H2420 C2413 0.961 . S
H2421 C2413 0.960 . S
H2422 C2414 0.930 . S
H2423 C2415 0.929 . S
H2424 C2432 0.929 . S
H2425 C2434 0.930 . S
H2426 C2436 0.930 . S
H2427 C2439 0.929 . S
H2428 C2442 0.930 . S
H2429 C2444 0.960 . S
H2430 C2444 0.960 . S
H2431 C2444 0.960 . S
C2432 H2424 0.929 . S
C2432 C2433 1.377 . S
C2432 C2434 1.384 . S
C2433 C2432 1.377 . S
C2433 C2439 1.390 . S
C2434 H2425 0.930 . S
C2434 C2432 1.384 . S
C2434 C2435 1.372 . S
C2435 C2434 1.372 . S
C2435 C2436 1.400 . S
C2435 C2440 1.490 . S
C2436 H2426 0.930 . S
C2436 C2435 1.400 . S
C2436 C2439 1.386 . S
H2437 C2453 0.930 . S
H2438 C2454 0.931 . S
C2439 H2427 0.929 . S
C2439 C2433 1.390 . S
C2439 C2436 1.386 . S
C2440 C2435 1.490 . S
C2440 C2442 1.395 . S
C2440 C2443 1.403 . S
H2441 C2447 0.930 . S
C2442 H2428 0.930 . S
C2442 C2440 1.395 . S
C2442 C2445 1.403 . S
C2443 C2440 1.403 . S
C2443 C2444 1.524 . S
C2443 C2447 1.400 . S
C2444 H2429 0.960 . S
C2444 H2430 0.960 . S
C2444 H2431 0.960 . S
C2444 C2443 1.524 . S
C2445 C2442 1.403 . S
C2445 C2446 1.392 . S
C2445 C2449 1.495 . S
C2446 C2445 1.392 . S
C2446 C2447 1.385 . S
C2446 C2448 1.478 . S
C2447 H2441 0.930 . S
C2447 C2443 1.400 . S
C2447 C2446 1.385 . S
C2448 C2446 1.478 . S
C2448 C2450 1.381 . S
C2448 C2454 1.383 . S
C2449 C2445 1.495 . S
C2449 H2455 0.959 . S
C2449 H2456 0.961 . S
C2449 H2457 0.960 . S
C2450 C2448 1.381 . S
C2450 C2451 1.394 . S
C2450 H2458 0.930 . S
C2451 C2450 1.394 . S
C2451 C2452 1.383 . S
C2451 H2459 0.929 . S
C2452 C2451 1.383 . S
C2452 C2453 1.377 . S
C2453 H2437 0.930 . S
C2453 C2452 1.377 . S
C2453 C2454 1.379 . S
C2454 H2438 0.931 . S
C2454 C2448 1.383 . S
C2454 C2453 1.379 . S
H2455 C2449 0.959 . S
H2456 C2449 0.961 . S
H2457 C2449 0.960 . S
H2458 C2450 0.930 . S
H2459 C2451 0.929 . S
H2460 C2468 0.929 . S
H2461 C2470 0.930 . S
H2462 C2472 0.930 . S
H2463 C2475 0.929 . S
H2464 C2478 0.930 . S
H2465 C2480 0.960 . S
H2466 C2480 0.960 . S
H2467 C2480 0.960 . S
C2468 H2460 0.929 . S
C2468 C2469 1.377 . S
C2468 C2470 1.384 . S
C2469 C2468 1.377 . S
C2469 C2475 1.390 . S
C2470 H2461 0.930 . S
C2470 C2468 1.384 . S
C2470 C2471 1.372 . S
C2471 C2470 1.372 . S
C2471 C2472 1.400 . S
C2471 C2476 1.490 . S
C2472 H2462 0.930 . S
C2472 C2471 1.400 . S
C2472 C2475 1.386 . S
H2473 C2489 0.930 . S
H2474 C2490 0.931 . S
C2475 H2463 0.929 . S
C2475 C2469 1.390 . S
C2475 C2472 1.386 . S
C2476 C2471 1.490 . S
C2476 C2478 1.395 . S
C2476 C2479 1.403 . S
H2477 C2483 0.930 . S
C2478 H2464 0.930 . S
C2478 C2476 1.395 . S
C2478 C2481 1.403 . S
C2479 C2476 1.403 . S
C2479 C2480 1.524 . S
C2479 C2483 1.400 . S
C2480 H2465 0.960 . S
C2480 H2466 0.960 . S
C2480 H2467 0.960 . S
C2480 C2479 1.524 . S
C2481 C2478 1.403 . S
C2481 C2482 1.392 . S
C2481 C2485 1.495 . S
C2482 C2481 1.392 . S
C2482 C2483 1.385 . S
C2482 C2484 1.478 . S
C2483 H2477 0.930 . S
C2483 C2479 1.400 . S
C2483 C2482 1.385 . S
C2484 C2482 1.478 . S
C2484 C2486 1.381 . S
C2484 C2490 1.383 . S
C2485 C2481 1.495 . S
C2485 H2491 0.959 . S
C2485 H2492 0.961 . S
C2485 H2493 0.960 . S
C2486 C2484 1.381 . S
C2486 C2487 1.394 . S
C2486 H2494 0.930 . S
C2487 C2486 1.394 . S
C2487 C2488 1.383 . S
C2487 H2495 0.929 . S
C2488 C2487 1.383 . S
C2488 C2489 1.377 . S
C2489 H2473 0.930 . S
C2489 C2488 1.377 . S
C2489 C2490 1.379 . S
C2490 H2474 0.931 . S
C2490 C2484 1.383 . S
C2490 C2489 1.379 . S
H2491 C2485 0.959 . S
H2492 C2485 0.961 . S
H2493 C2485 0.960 . S
H2494 C2486 0.930 . S
H2495 C2487 0.929 . S
H2496 C2504 0.929 . S
H2497 C2506 0.930 . S
H2498 C2508 0.930 . S
H2499 C2511 0.929 . S
H2500 C2514 0.930 . S
H2501 C2516 0.960 . S
H2502 C2516 0.960 . S
H2503 C2516 0.960 . S
C2504 H2496 0.929 . S
C2504 C2505 1.377 . S
C2504 C2506 1.384 . S
C2505 C2504 1.377 . S
C2505 C2511 1.390 . S
C2506 H2497 0.930 . S
C2506 C2504 1.384 . S
C2506 C2507 1.372 . S
C2507 C2506 1.372 . S
C2507 C2508 1.400 . S
C2507 C2512 1.490 . S
C2508 H2498 0.930 . S
C2508 C2507 1.400 . S
C2508 C2511 1.386 . S
H2509 C2525 0.930 . S
H2510 C2526 0.931 . S
C2511 H2499 0.929 . S
C2511 C2505 1.390 . S
C2511 C2508 1.386 . S
C2512 C2507 1.490 . S
C2512 C2514 1.395 . S
C2512 C2515 1.403 . S
H2513 C2519 0.930 . S
C2514 H2500 0.930 . S
C2514 C2512 1.395 . S
C2514 C2517 1.403 . S
C2515 C2512 1.403 . S
C2515 C2516 1.524 . S
C2515 C2519 1.400 . S
C2516 H2501 0.960 . S
C2516 H2502 0.960 . S
C2516 H2503 0.960 . S
C2516 C2515 1.524 . S
C2517 C2514 1.403 . S
C2517 C2518 1.392 . S
C2517 C2521 1.495 . S
C2518 C2517 1.392 . S
C2518 C2519 1.385 . S
C2518 C2520 1.478 . S
C2519 H2513 0.930 . S
C2519 C2515 1.400 . S
C2519 C2518 1.385 . S
C2520 C2518 1.478 . S
C2520 C2522 1.381 . S
C2520 C2526 1.383 . S
C2521 C2517 1.495 . S
C2521 H2527 0.959 . S
C2521 H2528 0.961 . S
C2521 H2529 0.960 . S
C2522 C2520 1.381 . S
C2522 C2523 1.394 . S
C2522 H2530 0.930 . S
C2523 C2522 1.394 . S
C2523 C2524 1.383 . S
C2523 H2531 0.929 . S
C2524 C2523 1.383 . S
C2524 C2525 1.377 . S
C2525 H2509 0.930 . S
C2525 C2524 1.377 . S
C2525 C2526 1.379 . S
C2526 H2510 0.931 . S
C2526 C2520 1.383 . S
C2526 C2525 1.379 . S
H2527 C2521 0.959 . S
H2528 C2521 0.961 . S
H2529 C2521 0.960 . S
H2530 C2522 0.930 . S
H2531 C2523 0.929 . S
H2532 C2540 0.929 . S
H2533 C2542 0.930 . S
H2534 C2544 0.930 . S
H2535 C2547 0.929 . S
H2536 C2550 0.930 . S
H2537 C2552 0.960 . S
H2538 C2552 0.960 . S
H2539 C2552 0.960 . S
C2540 H2532 0.929 . S
C2540 C2541 1.377 . S
C2540 C2542 1.384 . S
C2541 C2540 1.377 . S
C2541 C2547 1.390 . S
C2542 H2533 0.930 . S
C2542 C2540 1.384 . S
C2542 C2543 1.372 . S
C2543 C2542 1.372 . S
C2543 C2544 1.400 . S
C2543 C2548 1.490 . S
C2544 H2534 0.930 . S
C2544 C2543 1.400 . S
C2544 C2547 1.386 . S
H2545 C2561 0.930 . S
H2546 C2562 0.931 . S
C2547 H2535 0.929 . S
C2547 C2541 1.390 . S
C2547 C2544 1.386 . S
C2548 C2543 1.490 . S
C2548 C2550 1.395 . S
C2548 C2551 1.403 . S
H2549 C2555 0.930 . S
C2550 H2536 0.930 . S
C2550 C2548 1.395 . S
C2550 C2553 1.403 . S
C2551 C2548 1.403 . S
C2551 C2552 1.524 . S
C2551 C2555 1.400 . S
C2552 H2537 0.960 . S
C2552 H2538 0.960 . S
C2552 H2539 0.960 . S
C2552 C2551 1.524 . S
C2553 C2550 1.403 . S
C2553 C2554 1.392 . S
C2553 C2557 1.495 . S
C2554 C2553 1.392 . S
C2554 C2555 1.385 . S
C2554 C2556 1.478 . S
C2555 H2549 0.930 . S
C2555 C2551 1.400 . S
C2555 C2554 1.385 . S
C2556 C2554 1.478 . S
C2556 C2558 1.381 . S
C2556 C2562 1.383 . S
C2557 C2553 1.495 . S
C2557 H2563 0.959 . S
C2557 H2564 0.961 . S
C2557 H2565 0.960 . S
C2558 C2556 1.381 . S
C2558 C2559 1.394 . S
C2558 H2566 0.930 . S
C2559 C2558 1.394 . S
C2559 C2560 1.383 . S
C2559 H2567 0.929 . S
C2560 C2559 1.383 . S
C2560 C2561 1.377 . S
C2561 H2545 0.930 . S
C2561 C2560 1.377 . S
C2561 C2562 1.379 . S
C2562 H2546 0.931 . S
C2562 C2556 1.383 . S
C2562 C2561 1.379 . S
H2563 C2557 0.959 . S
H2564 C2557 0.961 . S
H2565 C2557 0.960 . S
H2566 C2558 0.930 . S
H2567 C2559 0.929 . S
H2568 C2576 0.929 . S
H2569 C2578 0.930 . S
H2570 C2580 0.930 . S
H2571 C2583 0.929 . S
H2572 C2586 0.930 . S
H2573 C2588 0.960 . S
H2574 C2588 0.960 . S
H2575 C2588 0.960 . S
C2576 H2568 0.929 . S
C2576 C2577 1.377 . S
C2576 C2578 1.384 . S
C2577 C2576 1.377 . S
C2577 C2583 1.390 . S
C2578 H2569 0.930 . S
C2578 C2576 1.384 . S
C2578 C2579 1.372 . S
C2579 C2578 1.372 . S
C2579 C2580 1.400 . S
C2579 C2584 1.490 . S
C2580 H2570 0.930 . S
C2580 C2579 1.400 . S
C2580 C2583 1.386 . S
H2581 C2597 0.930 . S
H2582 C2598 0.931 . S
C2583 H2571 0.929 . S
C2583 C2577 1.390 . S
C2583 C2580 1.386 . S
C2584 C2579 1.490 . S
C2584 C2586 1.395 . S
C2584 C2587 1.403 . S
H2585 C2591 0.930 . S
C2586 H2572 0.930 . S
C2586 C2584 1.395 . S
C2586 C2589 1.403 . S
C2587 C2584 1.403 . S
C2587 C2588 1.524 . S
C2587 C2591 1.400 . S
C2588 H2573 0.960 . S
C2588 H2574 0.960 . S
C2588 H2575 0.960 . S
C2588 C2587 1.524 . S
C2589 C2586 1.403 . S
C2589 C2590 1.392 . S
C2589 C2593 1.495 . S
C2590 C2589 1.392 . S
C2590 C2591 1.385 . S
C2590 C2592 1.478 . S
C2591 H2585 0.930 . S
C2591 C2587 1.400 . S
C2591 C2590 1.385 . S
C2592 C2590 1.478 . S
C2592 C2594 1.381 . S
C2592 C2598 1.383 . S
C2593 C2589 1.495 . S
C2593 H2599 0.959 . S
C2593 H2600 0.961 . S
C2593 H2601 0.960 . S
C2594 C2592 1.381 . S
C2594 C2595 1.394 . S
C2594 H2602 0.930 . S
C2595 C2594 1.394 . S
C2595 C2596 1.383 . S
C2595 H2603 0.929 . S
C2596 C2595 1.383 . S
C2596 C2597 1.377 . S
C2597 H2581 0.930 . S
C2597 C2596 1.377 . S
C2597 C2598 1.379 . S
C2598 H2582 0.931 . S
C2598 C2592 1.383 . S
C2598 C2597 1.379 . S
H2599 C2593 0.959 . S
H2600 C2593 0.961 . S
H2601 C2593 0.960 . S
H2602 C2594 0.930 . S
H2603 C2595 0.929 . S
H2604 C2612 0.929 . S
H2605 C2614 0.930 . S
H2606 C2616 0.930 . S
H2607 C2619 0.929 . S
H2608 C2622 0.930 . S
H2609 C2624 0.960 . S
H2610 C2624 0.960 . S
H2611 C2624 0.960 . S
C2612 H2604 0.929 . S
C2612 C2613 1.377 . S
C2612 C2614 1.384 . S
C2613 C2612 1.377 . S
C2613 C2619 1.390 . S
C2614 H2605 0.930 . S
C2614 C2612 1.384 . S
C2614 C2615 1.372 . S
C2615 C2614 1.372 . S
C2615 C2616 1.400 . S
C2615 C2620 1.490 . S
C2616 H2606 0.930 . S
C2616 C2615 1.400 . S
C2616 C2619 1.386 . S
H2617 C2633 0.930 . S
H2618 C2634 0.931 . S
C2619 H2607 0.929 . S
C2619 C2613 1.390 . S
C2619 C2616 1.386 . S
C2620 C2615 1.490 . S
C2620 C2622 1.395 . S
C2620 C2623 1.403 . S
H2621 C2627 0.930 . S
C2622 H2608 0.930 . S
C2622 C2620 1.395 . S
C2622 C2625 1.403 . S
C2623 C2620 1.403 . S
C2623 C2624 1.524 . S
C2623 C2627 1.400 . S
C2624 H2609 0.960 . S
C2624 H2610 0.960 . S
C2624 H2611 0.960 . S
C2624 C2623 1.524 . S
C2625 C2622 1.403 . S
C2625 C2626 1.392 . S
C2625 C2629 1.495 . S
C2626 C2625 1.392 . S
C2626 C2627 1.385 . S
C2626 C2628 1.478 . S
C2627 H2621 0.930 . S
C2627 C2623 1.400 . S
C2627 C2626 1.385 . S
C2628 C2626 1.478 . S
C2628 C2630 1.381 . S
C2628 C2634 1.383 . S
C2629 C2625 1.495 . S
C2629 H2635 0.959 . S
C2629 H2636 0.961 . S
C2629 H2637 0.960 . S
C2630 C2628 1.381 . S
C2630 C2631 1.394 . S
C2630 H2638 0.930 . S
C2631 C2630 1.394 . S
C2631 C2632 1.383 . S
C2631 H2639 0.929 . S
C2632 C2631 1.383 . S
C2632 C2633 1.377 . S
C2633 H2617 0.930 . S
C2633 C2632 1.377 . S
C2633 C2634 1.379 . S
C2634 H2618 0.931 . S
C2634 C2628 1.383 . S
C2634 C2633 1.379 . S
H2635 C2629 0.959 . S
H2636 C2629 0.961 . S
H2637 C2629 0.960 . S
H2638 C2630 0.930 . S
H2639 C2631 0.929 . S
H2640 C2648 0.929 . S
H2641 C2650 0.930 . S
H2642 C2652 0.930 . S
H2643 C2655 0.929 . S
H2644 C2658 0.930 . S
H2645 C2660 0.960 . S
H2646 C2660 0.960 . S
H2647 C2660 0.960 . S
C2648 H2640 0.929 . S
C2648 C2649 1.377 . S
C2648 C2650 1.384 . S
C2649 C2648 1.377 . S
C2649 C2655 1.390 . S
C2650 H2641 0.930 . S
C2650 C2648 1.384 . S
C2650 C2651 1.372 . S
C2651 C2650 1.372 . S
C2651 C2652 1.400 . S
C2651 C2656 1.490 . S
C2652 H2642 0.930 . S
C2652 C2651 1.400 . S
C2652 C2655 1.386 . S
H2653 C2669 0.930 . S
H2654 C2670 0.931 . S
C2655 H2643 0.929 . S
C2655 C2649 1.390 . S
C2655 C2652 1.386 . S
C2656 C2651 1.490 . S
C2656 C2658 1.395 . S
C2656 C2659 1.403 . S
H2657 C2663 0.930 . S
C2658 H2644 0.930 . S
C2658 C2656 1.395 . S
C2658 C2661 1.403 . S
C2659 C2656 1.403 . S
C2659 C2660 1.524 . S
C2659 C2663 1.400 . S
C2660 H2645 0.960 . S
C2660 H2646 0.960 . S
C2660 H2647 0.960 . S
C2660 C2659 1.524 . S
C2661 C2658 1.403 . S
C2661 C2662 1.392 . S
C2661 C2665 1.495 . S
C2662 C2661 1.392 . S
C2662 C2663 1.385 . S
C2662 C2664 1.478 . S
C2663 H2657 0.930 . S
C2663 C2659 1.400 . S
C2663 C2662 1.385 . S
C2664 C2662 1.478 . S
C2664 C2666 1.381 . S
C2664 C2670 1.383 . S
C2665 C2661 1.495 . S
C2665 H2671 0.959 . S
C2665 H2672 0.961 . S
C2665 H2673 0.960 . S
C2666 C2664 1.381 . S
C2666 C2667 1.394 . S
C2666 H2674 0.930 . S
C2667 C2666 1.394 . S
C2667 C2668 1.383 . S
C2667 H2675 0.929 . S
C2668 C2667 1.383 . S
C2668 C2669 1.377 . S
C2669 H2653 0.930 . S
C2669 C2668 1.377 . S
C2669 C2670 1.379 . S
C2670 H2654 0.931 . S
C2670 C2664 1.383 . S
C2670 C2669 1.379 . S
H2671 C2665 0.959 . S
H2672 C2665 0.961 . S
H2673 C2665 0.960 . S
H2674 C2666 0.930 . S
H2675 C2667 0.929 . S
H2676 C2684 0.929 . S
H2677 C2686 0.930 . S
H2678 C2688 0.930 . S
H2679 C2691 0.929 . S
H2680 C2694 0.930 . S
H2681 C2696 0.960 . S
H2682 C2696 0.960 . S
H2683 C2696 0.960 . S
C2684 H2676 0.929 . S
C2684 C2685 1.377 . S
C2684 C2686 1.384 . S
C2685 C2684 1.377 . S
C2685 C2691 1.390 . S
C2686 H2677 0.930 . S
C2686 C2684 1.384 . S
C2686 C2687 1.372 . S
C2687 C2686 1.372 . S
C2687 C2688 1.400 . S
C2687 C2692 1.490 . S
C2688 H2678 0.930 . S
C2688 C2687 1.400 . S
C2688 C2691 1.386 . S
H2689 C2705 0.930 . S
H2690 C2706 0.931 . S
C2691 H2679 0.929 . S
C2691 C2685 1.390 . S
C2691 C2688 1.386 . S
C2692 C2687 1.490 . S
C2692 C2694 1.395 . S
C2692 C2695 1.403 . S
H2693 C2699 0.930 . S
C2694 H2680 0.930 . S
C2694 C2692 1.395 . S
C2694 C2697 1.403 . S
C2695 C2692 1.403 . S
C2695 C2696 1.524 . S
C2695 C2699 1.400 . S
C2696 H2681 0.960 . S
C2696 H2682 0.960 . S
C2696 H2683 0.960 . S
C2696 C2695 1.524 . S
C2697 C2694 1.403 . S
C2697 C2698 1.392 . S
C2697 C2701 1.495 . S
C2698 C2697 1.392 . S
C2698 C2699 1.385 . S
C2698 C2700 1.478 . S
C2699 H2693 0.930 . S
C2699 C2695 1.400 . S
C2699 C2698 1.385 . S
C2700 C2698 1.478 . S
C2700 C2702 1.381 . S
C2700 C2706 1.383 . S
C2701 C2697 1.495 . S
C2701 H2707 0.959 . S
C2701 H2708 0.961 . S
C2701 H2709 0.960 . S
C2702 C2700 1.381 . S
C2702 C2703 1.394 . S
C2702 H2710 0.930 . S
C2703 C2702 1.394 . S
C2703 C2704 1.383 . S
C2703 H2711 0.929 . S
C2704 C2703 1.383 . S
C2704 C2705 1.377 . S
C2705 H2689 0.930 . S
C2705 C2704 1.377 . S
C2705 C2706 1.379 . S
C2706 H2690 0.931 . S
C2706 C2700 1.383 . S
C2706 C2705 1.379 . S
H2707 C2701 0.959 . S
H2708 C2701 0.961 . S
H2709 C2701 0.960 . S
H2710 C2702 0.930 . S
H2711 C2703 0.929 . S
H2712 C2720 0.929 . S
H2713 C2722 0.930 . S
H2714 C2724 0.930 . S
H2715 C2727 0.929 . S
H2716 C2730 0.930 . S
H2717 C2732 0.960 . S
H2718 C2732 0.960 . S
H2719 C2732 0.960 . S
C2720 H2712 0.929 . S
C2720 C2721 1.377 . S
C2720 C2722 1.384 . S
C2721 C2720 1.377 . S
C2721 C2727 1.390 . S
C2722 H2713 0.930 . S
C2722 C2720 1.384 . S
C2722 C2723 1.372 . S
C2723 C2722 1.372 . S
C2723 C2724 1.400 . S
C2723 C2728 1.490 . S
C2724 H2714 0.930 . S
C2724 C2723 1.400 . S
C2724 C2727 1.386 . S
H2725 C2741 0.930 . S
H2726 C2742 0.931 . S
C2727 H2715 0.929 . S
C2727 C2721 1.390 . S
C2727 C2724 1.386 . S
C2728 C2723 1.490 . S
C2728 C2730 1.395 . S
C2728 C2731 1.403 . S
H2729 C2735 0.930 . S
C2730 H2716 0.930 . S
C2730 C2728 1.395 . S
C2730 C2733 1.403 . S
C2731 C2728 1.403 . S
C2731 C2732 1.524 . S
C2731 C2735 1.400 . S
C2732 H2717 0.960 . S
C2732 H2718 0.960 . S
C2732 H2719 0.960 . S
C2732 C2731 1.524 . S
C2733 C2730 1.403 . S
C2733 C2734 1.392 . S
C2733 C2737 1.495 . S
C2734 C2733 1.392 . S
C2734 C2735 1.385 . S
C2734 C2736 1.478 . S
C2735 H2729 0.930 . S
C2735 C2731 1.400 . S
C2735 C2734 1.385 . S
C2736 C2734 1.478 . S
C2736 C2738 1.381 . S
C2736 C2742 1.383 . S
C2737 C2733 1.495 . S
C2737 H2743 0.959 . S
C2737 H2744 0.961 . S
C2737 H2745 0.960 . S
C2738 C2736 1.381 . S
C2738 C2739 1.394 . S
C2738 H2746 0.930 . S
C2739 C2738 1.394 . S
C2739 C2740 1.383 . S
C2739 H2747 0.929 . S
C2740 C2739 1.383 . S
C2740 C2741 1.377 . S
C2741 H2725 0.930 . S
C2741 C2740 1.377 . S
C2741 C2742 1.379 . S
C2742 H2726 0.931 . S
C2742 C2736 1.383 . S
C2742 C2741 1.379 . S
H2743 C2737 0.959 . S
H2744 C2737 0.961 . S
H2745 C2737 0.960 . S
H2746 C2738 0.930 . S
H2747 C2739 0.929 . S
H2748 C2756 0.929 . S
H2749 C2758 0.930 . S
H2750 C2760 0.930 . S
H2751 C2763 0.929 . S
H2752 C2766 0.930 . S
H2753 C2768 0.960 . S
H2754 C2768 0.960 . S
H2755 C2768 0.960 . S
C2756 H2748 0.929 . S
C2756 C2757 1.377 . S
C2756 C2758 1.384 . S
C2757 C2756 1.377 . S
C2757 C2763 1.390 . S
C2758 H2749 0.930 . S
C2758 C2756 1.384 . S
C2758 C2759 1.372 . S
C2759 C2758 1.372 . S
C2759 C2760 1.400 . S
C2759 C2764 1.490 . S
C2760 H2750 0.930 . S
C2760 C2759 1.400 . S
C2760 C2763 1.386 . S
H2761 C2777 0.930 . S
H2762 C2778 0.931 . S
C2763 H2751 0.929 . S
C2763 C2757 1.390 . S
C2763 C2760 1.386 . S
C2764 C2759 1.490 . S
C2764 C2766 1.395 . S
C2764 C2767 1.403 . S
H2765 C2771 0.930 . S
C2766 H2752 0.930 . S
C2766 C2764 1.395 . S
C2766 C2769 1.403 . S
C2767 C2764 1.403 . S
C2767 C2768 1.524 . S
C2767 C2771 1.400 . S
C2768 H2753 0.960 . S
C2768 H2754 0.960 . S
C2768 H2755 0.960 . S
C2768 C2767 1.524 . S
C2769 C2766 1.403 . S
C2769 C2770 1.392 . S
C2769 C2773 1.495 . S
C2770 C2769 1.392 . S
C2770 C2771 1.385 . S
C2770 C2772 1.478 . S
C2771 H2765 0.930 . S
C2771 C2767 1.400 . S
C2771 C2770 1.385 . S
C2772 C2770 1.478 . S
C2772 C2774 1.381 . S
C2772 C2778 1.383 . S
C2773 C2769 1.495 . S
C2773 H2779 0.959 . S
C2773 H2780 0.961 . S
C2773 H2781 0.960 . S
C2774 C2772 1.381 . S
C2774 C2775 1.394 . S
C2774 H2782 0.930 . S
C2775 C2774 1.394 . S
C2775 C2776 1.383 . S
C2775 H2783 0.929 . S
C2776 C2775 1.383 . S
C2776 C2777 1.377 . S
C2777 H2761 0.930 . S
C2777 C2776 1.377 . S
C2777 C2778 1.379 . S
C2778 H2762 0.931 . S
C2778 C2772 1.383 . S
C2778 C2777 1.379 . S
H2779 C2773 0.959 . S
H2780 C2773 0.961 . S
H2781 C2773 0.960 . S
H2782 C2774 0.930 . S
H2783 C2775 0.929 . S
H2784 C2792 0.929 . S
H2785 C2794 0.930 . S
H2786 C2796 0.930 . S
H2787 C2799 0.929 . S
H2788 C2802 0.930 . S
H2789 C2804 0.960 . S
H2790 C2804 0.960 . S
H2791 C2804 0.960 . S
C2792 H2784 0.929 . S
C2792 C2793 1.377 . S
C2792 C2794 1.384 . S
C2793 C2792 1.377 . S
C2793 C2799 1.390 . S
C2794 H2785 0.930 . S
C2794 C2792 1.384 . S
C2794 C2795 1.372 . S
C2795 C2794 1.372 . S
C2795 C2796 1.400 . S
C2795 C2800 1.490 . S
C2796 H2786 0.930 . S
C2796 C2795 1.400 . S
C2796 C2799 1.386 . S
H2797 C2813 0.930 . S
H2798 C2814 0.931 . S
C2799 H2787 0.929 . S
C2799 C2793 1.390 . S
C2799 C2796 1.386 . S
C2800 C2795 1.490 . S
C2800 C2802 1.395 . S
C2800 C2803 1.403 . S
H2801 C2807 0.930 . S
C2802 H2788 0.930 . S
C2802 C2800 1.395 . S
C2802 C2805 1.403 . S
C2803 C2800 1.403 . S
C2803 C2804 1.524 . S
C2803 C2807 1.400 . S
C2804 H2789 0.960 . S
C2804 H2790 0.960 . S
C2804 H2791 0.960 . S
C2804 C2803 1.524 . S
C2805 C2802 1.403 . S
C2805 C2806 1.392 . S
C2805 C2809 1.495 . S
C2806 C2805 1.392 . S
C2806 C2807 1.385 . S
C2806 C2808 1.478 . S
C2807 H2801 0.930 . S
C2807 C2803 1.400 . S
C2807 C2806 1.385 . S
C2808 C2806 1.478 . S
C2808 C2810 1.381 . S
C2808 C2814 1.383 . S
C2809 C2805 1.495 . S
C2809 H2815 0.959 . S
C2809 H2816 0.961 . S
C2809 H2817 0.960 . S
C2810 C2808 1.381 . S
C2810 C2811 1.394 . S
C2810 H2818 0.930 . S
C2811 C2810 1.394 . S
C2811 C2812 1.383 . S
C2811 H2819 0.929 . S
C2812 C2811 1.383 . S
C2812 C2813 1.377 . S
C2813 H2797 0.930 . S
C2813 C2812 1.377 . S
C2813 C2814 1.379 . S
C2814 H2798 0.931 . S
C2814 C2808 1.383 . S
C2814 C2813 1.379 . S
H2815 C2809 0.959 . S
H2816 C2809 0.961 . S
H2817 C2809 0.960 . S
H2818 C2810 0.930 . S
H2819 C2811 0.929 . S
H2820 C2828 0.929 . S
H2821 C2830 0.930 . S
H2822 C2832 0.930 . S
H2823 C2835 0.929 . S
H2824 C2838 0.930 . S
H2825 C2840 0.960 . S
H2826 C2840 0.960 . S
H2827 C2840 0.960 . S
C2828 H2820 0.929 . S
C2828 C2829 1.377 . S
C2828 C2830 1.384 . S
C2829 C2828 1.377 . S
C2829 C2835 1.390 . S
C2830 H2821 0.930 . S
C2830 C2828 1.384 . S
C2830 C2831 1.372 . S
C2831 C2830 1.372 . S
C2831 C2832 1.400 . S
C2831 C2836 1.490 . S
C2832 H2822 0.930 . S
C2832 C2831 1.400 . S
C2832 C2835 1.386 . S
H2833 C2849 0.930 . S
H2834 C2850 0.931 . S
C2835 H2823 0.929 . S
C2835 C2829 1.390 . S
C2835 C2832 1.386 . S
C2836 C2831 1.490 . S
C2836 C2838 1.395 . S
C2836 C2839 1.403 . S
H2837 C2843 0.930 . S
C2838 H2824 0.930 . S
C2838 C2836 1.395 . S
C2838 C2841 1.403 . S
C2839 C2836 1.403 . S
C2839 C2840 1.524 . S
C2839 C2843 1.400 . S
C2840 H2825 0.960 . S
C2840 H2826 0.960 . S
C2840 H2827 0.960 . S
C2840 C2839 1.524 . S
C2841 C2838 1.403 . S
C2841 C2842 1.392 . S
C2841 C2845 1.495 . S
C2842 C2841 1.392 . S
C2842 C2843 1.385 . S
C2842 C2844 1.478 . S
C2843 H2837 0.930 . S
C2843 C2839 1.400 . S
C2843 C2842 1.385 . S
C2844 C2842 1.478 . S
C2844 C2846 1.381 . S
C2844 C2850 1.383 . S
C2845 C2841 1.495 . S
C2845 H2851 0.959 . S
C2845 H2852 0.961 . S
C2845 H2853 0.960 . S
C2846 C2844 1.381 . S
C2846 C2847 1.394 . S
C2846 H2854 0.930 . S
C2847 C2846 1.394 . S
C2847 C2848 1.383 . S
C2847 H2855 0.929 . S
C2848 C2847 1.383 . S
C2848 C2849 1.377 . S
C2849 H2833 0.930 . S
C2849 C2848 1.377 . S
C2849 C2850 1.379 . S
C2850 H2834 0.931 . S
C2850 C2844 1.383 . S
C2850 C2849 1.379 . S
H2851 C2845 0.959 . S
H2852 C2845 0.961 . S
H2853 C2845 0.960 . S
H2854 C2846 0.930 . S
H2855 C2847 0.929 . S
H2856 C2864 0.929 . S
H2857 C2866 0.930 . S
H2858 C2868 0.930 . S
H2859 C2871 0.929 . S
H2860 C2874 0.930 . S
H2861 C2876 0.960 . S
H2862 C2876 0.960 . S
H2863 C2876 0.960 . S
C2864 H2856 0.929 . S
C2864 C2865 1.377 . S
C2864 C2866 1.384 . S
C2865 C2864 1.377 . S
C2865 C2871 1.390 . S
C2866 H2857 0.930 . S
C2866 C2864 1.384 . S
C2866 C2867 1.372 . S
C2867 C2866 1.372 . S
C2867 C2868 1.400 . S
C2867 C2872 1.490 . S
C2868 H2858 0.930 . S
C2868 C2867 1.400 . S
C2868 C2871 1.386 . S
H2869 C2885 0.930 . S
H2870 C2886 0.931 . S
C2871 H2859 0.929 . S
C2871 C2865 1.390 . S
C2871 C2868 1.386 . S
C2872 C2867 1.490 . S
C2872 C2874 1.395 . S
C2872 C2875 1.403 . S
H2873 C2879 0.930 . S
C2874 H2860 0.930 . S
C2874 C2872 1.395 . S
C2874 C2877 1.403 . S
C2875 C2872 1.403 . S
C2875 C2876 1.524 . S
C2875 C2879 1.400 . S
C2876 H2861 0.960 . S
C2876 H2862 0.960 . S
C2876 H2863 0.960 . S
C2876 C2875 1.524 . S
C2877 C2874 1.403 . S
C2877 C2878 1.392 . S
C2877 C2881 1.495 . S
C2878 C2877 1.392 . S
C2878 C2879 1.385 . S
C2878 C2880 1.478 . S
C2879 H2873 0.930 . S
C2879 C2875 1.400 . S
C2879 C2878 1.385 . S
C2880 C2878 1.478 . S
C2880 C2882 1.381 . S
C2880 C2886 1.383 . S
C2881 C2877 1.495 . S
C2881 H2887 0.959 . S
C2881 H2888 0.961 . S
C2881 H2889 0.960 . S
C2882 C2880 1.381 . S
C2882 C2883 1.394 . S
C2882 H2890 0.930 . S
C2883 C2882 1.394 . S
C2883 C2884 1.383 . S
C2883 H2891 0.929 . S
C2884 C2883 1.383 . S
C2884 C2885 1.377 . S
C2885 H2869 0.930 . S
C2885 C2884 1.377 . S
C2885 C2886 1.379 . S
C2886 H2870 0.931 . S
C2886 C2880 1.383 . S
C2886 C2885 1.379 . S
H2887 C2881 0.959 . S
H2888 C2881 0.961 . S
H2889 C2881 0.960 . S
H2890 C2882 0.930 . S
H2891 C2883 0.929 . S
H2892 C2900 0.929 . S
H2893 C2902 0.930 . S
H2894 C2904 0.930 . S
H2895 C2907 0.929 . S
H2896 C2910 0.930 . S
H2897 C2912 0.960 . S
H2898 C2912 0.960 . S
H2899 C2912 0.960 . S
C2900 H2892 0.929 . S
C2900 C2901 1.377 . S
C2900 C2902 1.384 . S
C2901 C2900 1.377 . S
C2901 C2907 1.390 . S
C2902 H2893 0.930 . S
C2902 C2900 1.384 . S
C2902 C2903 1.372 . S
C2903 C2902 1.372 . S
C2903 C2904 1.400 . S
C2903 C2908 1.490 . S
C2904 H2894 0.930 . S
C2904 C2903 1.400 . S
C2904 C2907 1.386 . S
H2905 C2921 0.930 . S
H2906 C2922 0.931 . S
C2907 H2895 0.929 . S
C2907 C2901 1.390 . S
C2907 C2904 1.386 . S
C2908 C2903 1.490 . S
C2908 C2910 1.395 . S
C2908 C2911 1.403 . S
H2909 C2915 0.930 . S
C2910 H2896 0.930 . S
C2910 C2908 1.395 . S
C2910 C2913 1.403 . S
C2911 C2908 1.403 . S
C2911 C2912 1.524 . S
C2911 C2915 1.400 . S
C2912 H2897 0.960 . S
C2912 H2898 0.960 . S
C2912 H2899 0.960 . S
C2912 C2911 1.524 . S
C2913 C2910 1.403 . S
C2913 C2914 1.392 . S
C2913 C2917 1.495 . S
C2914 C2913 1.392 . S
C2914 C2915 1.385 . S
C2914 C2916 1.478 . S
C2915 H2909 0.930 . S
C2915 C2911 1.400 . S
C2915 C2914 1.385 . S
C2916 C2914 1.478 . S
C2916 C2918 1.381 . S
C2916 C2922 1.383 . S
C2917 C2913 1.495 . S
C2917 H2923 0.959 . S
C2917 H2924 0.961 . S
C2917 H2925 0.960 . S
C2918 C2916 1.381 . S
C2918 C2919 1.394 . S
C2918 H2926 0.930 . S
C2919 C2918 1.394 . S
C2919 C2920 1.383 . S
C2919 H2927 0.929 . S
C2920 C2919 1.383 . S
C2920 C2921 1.377 . S
C2921 H2905 0.930 . S
C2921 C2920 1.377 . S
C2921 C2922 1.379 . S
C2922 H2906 0.931 . S
C2922 C2916 1.383 . S
C2922 C2921 1.379 . S
H2923 C2917 0.959 . S
H2924 C2917 0.961 . S
H2925 C2917 0.960 . S
H2926 C2918 0.930 . S
H2927 C2919 0.929 . S
H2928 C2936 0.929 . S
H2929 C2938 0.930 . S
H2930 C2940 0.930 . S
H2931 C2943 0.929 . S
H2932 C2946 0.930 . S
H2933 C2948 0.960 . S
H2934 C2948 0.960 . S
H2935 C2948 0.960 . S
C2936 H2928 0.929 . S
C2936 C2937 1.377 . S
C2936 C2938 1.384 . S
C2937 C2936 1.377 . S
C2937 C2943 1.390 . S
C2938 H2929 0.930 . S
C2938 C2936 1.384 . S
C2938 C2939 1.372 . S
C2939 C2938 1.372 . S
C2939 C2940 1.400 . S
C2939 C2944 1.490 . S
C2940 H2930 0.930 . S
C2940 C2939 1.400 . S
C2940 C2943 1.386 . S
H2941 C2957 0.930 . S
H2942 C2958 0.931 . S
C2943 H2931 0.929 . S
C2943 C2937 1.390 . S
C2943 C2940 1.386 . S
C2944 C2939 1.490 . S
C2944 C2946 1.395 . S
C2944 C2947 1.403 . S
H2945 C2951 0.930 . S
C2946 H2932 0.930 . S
C2946 C2944 1.395 . S
C2946 C2949 1.403 . S
C2947 C2944 1.403 . S
C2947 C2948 1.524 . S
C2947 C2951 1.400 . S
C2948 H2933 0.960 . S
C2948 H2934 0.960 . S
C2948 H2935 0.960 . S
C2948 C2947 1.524 . S
C2949 C2946 1.403 . S
C2949 C2950 1.392 . S
C2949 C2953 1.495 . S
C2950 C2949 1.392 . S
C2950 C2951 1.385 . S
C2950 C2952 1.478 . S
C2951 H2945 0.930 . S
C2951 C2947 1.400 . S
C2951 C2950 1.385 . S
C2952 C2950 1.478 . S
C2952 C2954 1.381 . S
C2952 C2958 1.383 . S
C2953 C2949 1.495 . S
C2953 H2959 0.959 . S
C2953 H2960 0.961 . S
C2953 H2961 0.960 . S
C2954 C2952 1.381 . S
C2954 C2955 1.394 . S
C2954 H2962 0.930 . S
C2955 C2954 1.394 . S
C2955 C2956 1.383 . S
C2955 H2963 0.929 . S
C2956 C2955 1.383 . S
C2956 C2957 1.377 . S
C2957 H2941 0.930 . S
C2957 C2956 1.377 . S
C2957 C2958 1.379 . S
C2958 H2942 0.931 . S
C2958 C2952 1.383 . S
C2958 C2957 1.379 . S
H2959 C2953 0.959 . S
H2960 C2953 0.961 . S
H2961 C2953 0.960 . S
H2962 C2954 0.930 . S
H2963 C2955 0.929 . S
H2964 C2972 0.929 . S
H2965 C2974 0.930 . S
H2966 C2976 0.930 . S
H2967 C2979 0.929 . S
H2968 C2982 0.930 . S
H2969 C2984 0.960 . S
H2970 C2984 0.960 . S
H2971 C2984 0.960 . S
C2972 H2964 0.929 . S
C2972 C2973 1.377 . S
C2972 C2974 1.384 . S
C2973 C2972 1.377 . S
C2973 C2979 1.390 . S
C2974 H2965 0.930 . S
C2974 C2972 1.384 . S
C2974 C2975 1.372 . S
C2975 C2974 1.372 . S
C2975 C2976 1.400 . S
C2975 C2980 1.490 . S
C2976 H2966 0.930 . S
C2976 C2975 1.400 . S
C2976 C2979 1.386 . S
H2977 C2993 0.930 . S
H2978 C2994 0.931 . S
C2979 H2967 0.929 . S
C2979 C2973 1.390 . S
C2979 C2976 1.386 . S
C2980 C2975 1.490 . S
C2980 C2982 1.395 . S
C2980 C2983 1.403 . S
H2981 C2987 0.930 . S
C2982 H2968 0.930 . S
C2982 C2980 1.395 . S
C2982 C2985 1.403 . S
C2983 C2980 1.403 . S
C2983 C2984 1.524 . S
C2983 C2987 1.400 . S
C2984 H2969 0.960 . S
C2984 H2970 0.960 . S
C2984 H2971 0.960 . S
C2984 C2983 1.524 . S
C2985 C2982 1.403 . S
C2985 C2986 1.392 . S
C2985 C2989 1.495 . S
C2986 C2985 1.392 . S
C2986 C2987 1.385 . S
C2986 C2988 1.478 . S
C2987 H2981 0.930 . S
C2987 C2983 1.400 . S
C2987 C2986 1.385 . S
C2988 C2986 1.478 . S
C2988 C2990 1.381 . S
C2988 C2994 1.383 . S
C2989 C2985 1.495 . S
C2989 H2995 0.959 . S
C2989 H2996 0.961 . S
C2989 H2997 0.960 . S
C2990 C2988 1.381 . S
C2990 C2991 1.394 . S
C2990 H2998 0.930 . S
C2991 C2990 1.394 . S
C2991 C2992 1.383 . S
C2991 H2999 0.929 . S
C2992 C2991 1.383 . S
C2992 C2993 1.377 . S
C2993 H2977 0.930 . S
C2993 C2992 1.377 . S
C2993 C2994 1.379 . S
C2994 H2978 0.931 . S
C2994 C2988 1.383 . S
C2994 C2993 1.379 . S
H2995 C2989 0.959 . S
H2996 C2989 0.961 . S
H2997 C2989 0.960 . S
H2998 C2990 0.930 . S
H2999 C2991 0.929 . S
H3000 C3008 0.929 . S
H3001 C3010 0.930 . S
H3002 C3012 0.930 . S
H3003 C3015 0.929 . S
H3004 C3018 0.930 . S
H3005 C3020 0.960 . S
H3006 C3020 0.960 . S
H3007 C3020 0.960 . S
C3008 H3000 0.929 . S
C3008 C3009 1.377 . S
C3008 C3010 1.384 . S
C3009 C3008 1.377 . S
C3009 C3015 1.390 . S
C3010 H3001 0.930 . S
C3010 C3008 1.384 . S
C3010 C3011 1.372 . S
C3011 C3010 1.372 . S
C3011 C3012 1.400 . S
C3011 C3016 1.490 . S
C3012 H3002 0.930 . S
C3012 C3011 1.400 . S
C3012 C3015 1.386 . S
H3013 C3029 0.930 . S
H3014 C3030 0.931 . S
C3015 H3003 0.929 . S
C3015 C3009 1.390 . S
C3015 C3012 1.386 . S
C3016 C3011 1.490 . S
C3016 C3018 1.395 . S
C3016 C3019 1.403 . S
H3017 C3023 0.930 . S
C3018 H3004 0.930 . S
C3018 C3016 1.395 . S
C3018 C3021 1.403 . S
C3019 C3016 1.403 . S
C3019 C3020 1.524 . S
C3019 C3023 1.400 . S
C3020 H3005 0.960 . S
C3020 H3006 0.960 . S
C3020 H3007 0.960 . S
C3020 C3019 1.524 . S
C3021 C3018 1.403 . S
C3021 C3022 1.392 . S
C3021 C3025 1.495 . S
C3022 C3021 1.392 . S
C3022 C3023 1.385 . S
C3022 C3024 1.478 . S
C3023 H3017 0.930 . S
C3023 C3019 1.400 . S
C3023 C3022 1.385 . S
C3024 C3022 1.478 . S
C3024 C3026 1.381 . S
C3024 C3030 1.383 . S
C3025 C3021 1.495 . S
C3025 H3031 0.959 . S
C3025 H3032 0.961 . S
C3025 H3033 0.960 . S
C3026 C3024 1.381 . S
C3026 C3027 1.394 . S
C3026 H3034 0.930 . S
C3027 C3026 1.394 . S
C3027 C3028 1.383 . S
C3027 H3035 0.929 . S
C3028 C3027 1.383 . S
C3028 C3029 1.377 . S
C3029 H3013 0.930 . S
C3029 C3028 1.377 . S
C3029 C3030 1.379 . S
C3030 H3014 0.931 . S
C3030 C3024 1.383 . S
C3030 C3029 1.379 . S
H3031 C3025 0.959 . S
H3032 C3025 0.961 . S
H3033 C3025 0.960 . S
H3034 C3026 0.930 . S
H3035 C3027 0.929 . S
H3036 C3044 0.929 . S
H3037 C3046 0.930 . S
H3038 C3048 0.930 . S
H3039 C3051 0.929 . S
H3040 C3054 0.930 . S
H3041 C3056 0.960 . S
H3042 C3056 0.960 . S
H3043 C3056 0.960 . S
C3044 H3036 0.929 . S
C3044 C3045 1.377 . S
C3044 C3046 1.384 . S
C3045 C3044 1.377 . S
C3045 C3051 1.390 . S
C3046 H3037 0.930 . S
C3046 C3044 1.384 . S
C3046 C3047 1.372 . S
C3047 C3046 1.372 . S
C3047 C3048 1.400 . S
C3047 C3052 1.490 . S
C3048 H3038 0.930 . S
C3048 C3047 1.400 . S
C3048 C3051 1.386 . S
H3049 C3065 0.930 . S
H3050 C3066 0.931 . S
C3051 H3039 0.929 . S
C3051 C3045 1.390 . S
C3051 C3048 1.386 . S
C3052 C3047 1.490 . S
C3052 C3054 1.395 . S
C3052 C3055 1.403 . S
H3053 C3059 0.930 . S
C3054 H3040 0.930 . S
C3054 C3052 1.395 . S
C3054 C3057 1.403 . S
C3055 C3052 1.403 . S
C3055 C3056 1.524 . S
C3055 C3059 1.400 . S
C3056 H3041 0.960 . S
C3056 H3042 0.960 . S
C3056 H3043 0.960 . S
C3056 C3055 1.524 . S
C3057 C3054 1.403 . S
C3057 C3058 1.392 . S
C3057 C3061 1.495 . S
C3058 C3057 1.392 . S
C3058 C3059 1.385 . S
C3058 C3060 1.478 . S
C3059 H3053 0.930 . S
C3059 C3055 1.400 . S
C3059 C3058 1.385 . S
C3060 C3058 1.478 . S
C3060 C3062 1.381 . S
C3060 C3066 1.383 . S
C3061 C3057 1.495 . S
C3061 H3067 0.959 . S
C3061 H3068 0.961 . S
C3061 H3069 0.960 . S
C3062 C3060 1.381 . S
C3062 C3063 1.394 . S
C3062 H3070 0.930 . S
C3063 C3062 1.394 . S
C3063 C3064 1.383 . S
C3063 H3071 0.929 . S
C3064 C3063 1.383 . S
C3064 C3065 1.377 . S
C3065 H3049 0.930 . S
C3065 C3064 1.377 . S
C3065 C3066 1.379 . S
C3066 H3050 0.931 . S
C3066 C3060 1.383 . S
C3066 C3065 1.379 . S
H3067 C3061 0.959 . S
H3068 C3061 0.961 . S
H3069 C3061 0.960 . S
H3070 C3062 0.930 . S
H3071 C3063 0.929 . S
H3072 C3080 0.929 . S
H3073 C3082 0.930 . S
H3074 C3084 0.930 . S
H3075 C3087 0.929 . S
H3076 C3090 0.930 . S
H3077 C3092 0.960 . S
H3078 C3092 0.960 . S
H3079 C3092 0.960 . S
C3080 H3072 0.929 . S
C3080 C3081 1.377 . S
C3080 C3082 1.384 . S
C3081 C3080 1.377 . S
C3081 C3087 1.390 . S
C3082 H3073 0.930 . S
C3082 C3080 1.384 . S
C3082 C3083 1.372 . S
C3083 C3082 1.372 . S
C3083 C3084 1.400 . S
C3083 C3088 1.490 . S
C3084 H3074 0.930 . S
C3084 C3083 1.400 . S
C3084 C3087 1.386 . S
H3085 C3101 0.930 . S
H3086 C3102 0.931 . S
C3087 H3075 0.929 . S
C3087 C3081 1.390 . S
C3087 C3084 1.386 . S
C3088 C3083 1.490 . S
C3088 C3090 1.395 . S
C3088 C3091 1.403 . S
H3089 C3095 0.930 . S
C3090 H3076 0.930 . S
C3090 C3088 1.395 . S
C3090 C3093 1.403 . S
C3091 C3088 1.403 . S
C3091 C3092 1.524 . S
C3091 C3095 1.400 . S
C3092 H3077 0.960 . S
C3092 H3078 0.960 . S
C3092 H3079 0.960 . S
C3092 C3091 1.524 . S
C3093 C3090 1.403 . S
C3093 C3094 1.392 . S
C3093 C3097 1.495 . S
C3094 C3093 1.392 . S
C3094 C3095 1.385 . S
C3094 C3096 1.478 . S
C3095 H3089 0.930 . S
C3095 C3091 1.400 . S
C3095 C3094 1.385 . S
C3096 C3094 1.478 . S
C3096 C3098 1.381 . S
C3096 C3102 1.383 . S
C3097 C3093 1.495 . S
C3097 H3103 0.959 . S
C3097 H3104 0.961 . S
C3097 H3105 0.960 . S
C3098 C3096 1.381 . S
C3098 C3099 1.394 . S
C3098 H3106 0.930 . S
C3099 C3098 1.394 . S
C3099 C3100 1.383 . S
C3099 H3107 0.929 . S
C3100 C3099 1.383 . S
C3100 C3101 1.377 . S
C3101 H3085 0.930 . S
C3101 C3100 1.377 . S
C3101 C3102 1.379 . S
C3102 H3086 0.931 . S
C3102 C3096 1.383 . S
C3102 C3101 1.379 . S
H3103 C3097 0.959 . S
H3104 C3097 0.961 . S
H3105 C3097 0.960 . S
H3106 C3098 0.930 . S
H3107 C3099 0.929 . S
H3108 C3116 0.929 . S
H3109 C3118 0.930 . S
H3110 C3120 0.930 . S
H3111 C3123 0.929 . S
H3112 C3126 0.930 . S
H3113 C3128 0.960 . S
H3114 C3128 0.960 . S
H3115 C3128 0.960 . S
C3116 H3108 0.929 . S
C3116 C3117 1.377 . S
C3116 C3118 1.384 . S
C3117 C3116 1.377 . S
C3117 C3123 1.390 . S
C3118 H3109 0.930 . S
C3118 C3116 1.384 . S
C3118 C3119 1.372 . S
C3119 C3118 1.372 . S
C3119 C3120 1.400 . S
C3119 C3124 1.490 . S
C3120 H3110 0.930 . S
C3120 C3119 1.400 . S
C3120 C3123 1.386 . S
H3121 C3137 0.930 . S
H3122 C3138 0.931 . S
C3123 H3111 0.929 . S
C3123 C3117 1.390 . S
C3123 C3120 1.386 . S
C3124 C3119 1.490 . S
C3124 C3126 1.395 . S
C3124 C3127 1.403 . S
H3125 C3131 0.930 . S
C3126 H3112 0.930 . S
C3126 C3124 1.395 . S
C3126 C3129 1.403 . S
C3127 C3124 1.403 . S
C3127 C3128 1.524 . S
C3127 C3131 1.400 . S
C3128 H3113 0.960 . S
C3128 H3114 0.960 . S
C3128 H3115 0.960 . S
C3128 C3127 1.524 . S
C3129 C3126 1.403 . S
C3129 C3130 1.392 . S
C3129 C3133 1.495 . S
C3130 C3129 1.392 . S
C3130 C3131 1.385 . S
C3130 C3132 1.478 . S
C3131 H3125 0.930 . S
C3131 C3127 1.400 . S
C3131 C3130 1.385 . S
C3132 C3130 1.478 . S
C3132 C3134 1.381 . S
C3132 C3138 1.383 . S
C3133 C3129 1.495 . S
C3133 H3139 0.959 . S
C3133 H3140 0.961 . S
C3133 H3141 0.960 . S
C3134 C3132 1.381 . S
C3134 C3135 1.394 . S
C3134 H3142 0.930 . S
C3135 C3134 1.394 . S
C3135 C3136 1.383 . S
C3135 H3143 0.929 . S
C3136 C3135 1.383 . S
C3136 C3137 1.377 . S
C3137 H3121 0.930 . S
C3137 C3136 1.377 . S
C3137 C3138 1.379 . S
C3138 H3122 0.931 . S
C3138 C3132 1.383 . S
C3138 C3137 1.379 . S
H3139 C3133 0.959 . S
H3140 C3133 0.961 . S
H3141 C3133 0.960 . S
H3142 C3134 0.930 . S
H3143 C3135 0.929 . S
H3144 C3152 0.929 . S
H3145 C3154 0.930 . S
H3146 C3156 0.930 . S
H3147 C3159 0.929 . S
H3148 C3162 0.930 . S
H3149 C3164 0.960 . S
H3150 C3164 0.960 . S
H3151 C3164 0.960 . S
C3152 H3144 0.929 . S
C3152 C3153 1.377 . S
C3152 C3154 1.384 . S
C3153 C3152 1.377 . S
C3153 C3159 1.390 . S
C3154 H3145 0.930 . S
C3154 C3152 1.384 . S
C3154 C3155 1.372 . S
C3155 C3154 1.372 . S
C3155 C3156 1.400 . S
C3155 C3160 1.490 . S
C3156 H3146 0.930 . S
C3156 C3155 1.400 . S
C3156 C3159 1.386 . S
H3157 C3173 0.930 . S
H3158 C3174 0.931 . S
C3159 H3147 0.929 . S
C3159 C3153 1.390 . S
C3159 C3156 1.386 . S
C3160 C3155 1.490 . S
C3160 C3162 1.395 . S
C3160 C3163 1.403 . S
H3161 C3167 0.930 . S
C3162 H3148 0.930 . S
C3162 C3160 1.395 . S
C3162 C3165 1.403 . S
C3163 C3160 1.403 . S
C3163 C3164 1.524 . S
C3163 C3167 1.400 . S
C3164 H3149 0.960 . S
C3164 H3150 0.960 . S
C3164 H3151 0.960 . S
C3164 C3163 1.524 . S
C3165 C3162 1.403 . S
C3165 C3166 1.392 . S
C3165 C3169 1.495 . S
C3166 C3165 1.392 . S
C3166 C3167 1.385 . S
C3166 C3168 1.478 . S
C3167 H3161 0.930 . S
C3167 C3163 1.400 . S
C3167 C3166 1.385 . S
C3168 C3166 1.478 . S
C3168 C3170 1.381 . S
C3168 C3174 1.383 . S
C3169 C3165 1.495 . S
C3169 H3175 0.959 . S
C3169 H3176 0.961 . S
C3169 H3177 0.960 . S
C3170 C3168 1.381 . S
C3170 C3171 1.394 . S
C3170 H3178 0.930 . S
C3171 C3170 1.394 . S
C3171 C3172 1.383 . S
C3171 H3179 0.929 . S
C3172 C3171 1.383 . S
C3172 C3173 1.377 . S
C3173 H3157 0.930 . S
C3173 C3172 1.377 . S
C3173 C3174 1.379 . S
C3174 H3158 0.931 . S
C3174 C3168 1.383 . S
C3174 C3173 1.379 . S
H3175 C3169 0.959 . S
H3176 C3169 0.961 . S
H3177 C3169 0.960 . S
H3178 C3170 0.930 . S
H3179 C3171 0.929 . S
H3180 C3188 0.929 . S
H3181 C3190 0.930 . S
H3182 C3192 0.930 . S
H3183 C3195 0.929 . S
H3184 C3198 0.930 . S
H3185 C3200 0.960 . S
H3186 C3200 0.960 . S
H3187 C3200 0.960 . S
C3188 H3180 0.929 . S
C3188 C3189 1.377 . S
C3188 C3190 1.384 . S
C3189 C3188 1.377 . S
C3189 C3195 1.390 . S
C3190 H3181 0.930 . S
C3190 C3188 1.384 . S
C3190 C3191 1.372 . S
C3191 C3190 1.372 . S
C3191 C3192 1.400 . S
C3191 C3196 1.490 . S
C3192 H3182 0.930 . S
C3192 C3191 1.400 . S
C3192 C3195 1.386 . S
H3193 C3209 0.930 . S
H3194 C3210 0.931 . S
C3195 H3183 0.929 . S
C3195 C3189 1.390 . S
C3195 C3192 1.386 . S
C3196 C3191 1.490 . S
C3196 C3198 1.395 . S
C3196 C3199 1.403 . S
H3197 C3203 0.930 . S
C3198 H3184 0.930 . S
C3198 C3196 1.395 . S
C3198 C3201 1.403 . S
C3199 C3196 1.403 . S
C3199 C3200 1.524 . S
C3199 C3203 1.400 . S
C3200 H3185 0.960 . S
C3200 H3186 0.960 . S
C3200 H3187 0.960 . S
C3200 C3199 1.524 . S
C3201 C3198 1.403 . S
C3201 C3202 1.392 . S
C3201 C3205 1.495 . S
C3202 C3201 1.392 . S
C3202 C3203 1.385 . S
C3202 C3204 1.478 . S
C3203 H3197 0.930 . S
C3203 C3199 1.400 . S
C3203 C3202 1.385 . S
C3204 C3202 1.478 . S
C3204 C3206 1.381 . S
C3204 C3210 1.383 . S
C3205 C3201 1.495 . S
C3205 H3211 0.959 . S
C3205 H3212 0.961 . S
C3205 H3213 0.960 . S
C3206 C3204 1.381 . S
C3206 C3207 1.394 . S
C3206 H3214 0.930 . S
C3207 C3206 1.394 . S
C3207 C3208 1.383 . S
C3207 H3215 0.929 . S
C3208 C3207 1.383 . S
C3208 C3209 1.377 . S
C3209 H3193 0.930 . S
C3209 C3208 1.377 . S
C3209 C3210 1.379 . S
C3210 H3194 0.931 . S
C3210 C3204 1.383 . S
C3210 C3209 1.379 . S
H3211 C3205 0.959 . S
H3212 C3205 0.961 . S
H3213 C3205 0.960 . S
H3214 C3206 0.930 . S
H3215 C3207 0.929 . S
H3216 C3224 0.929 . S
H3217 C3226 0.930 . S
H3218 C3228 0.930 . S
H3219 C3231 0.929 . S
H3220 C3234 0.930 . S
H3221 C3236 0.960 . S
H3222 C3236 0.960 . S
H3223 C3236 0.960 . S
C3224 H3216 0.929 . S
C3224 C3225 1.377 . S
C3224 C3226 1.384 . S
C3225 C3224 1.377 . S
C3225 C3231 1.390 . S
C3226 H3217 0.930 . S
C3226 C3224 1.384 . S
C3226 C3227 1.372 . S
C3227 C3226 1.372 . S
C3227 C3228 1.400 . S
C3227 C3232 1.490 . S
C3228 H3218 0.930 . S
C3228 C3227 1.400 . S
C3228 C3231 1.386 . S
H3229 C3245 0.930 . S
H3230 C3246 0.931 . S
C3231 H3219 0.929 . S
C3231 C3225 1.390 . S
C3231 C3228 1.386 . S
C3232 C3227 1.490 . S
C3232 C3234 1.395 . S
C3232 C3235 1.403 . S
H3233 C3239 0.930 . S
C3234 H3220 0.930 . S
C3234 C3232 1.395 . S
C3234 C3237 1.403 . S
C3235 C3232 1.403 . S
C3235 C3236 1.524 . S
C3235 C3239 1.400 . S
C3236 H3221 0.960 . S
C3236 H3222 0.960 . S
C3236 H3223 0.960 . S
C3236 C3235 1.524 . S
C3237 C3234 1.403 . S
C3237 C3238 1.392 . S
C3237 C3241 1.495 . S
C3238 C3237 1.392 . S
C3238 C3239 1.385 . S
C3238 C3240 1.478 . S
C3239 H3233 0.930 . S
C3239 C3235 1.400 . S
C3239 C3238 1.385 . S
C3240 C3238 1.478 . S
C3240 C3242 1.381 . S
C3240 C3246 1.383 . S
C3241 C3237 1.495 . S
C3241 H3247 0.959 . S
C3241 H3248 0.961 . S
C3241 H3249 0.960 . S
C3242 C3240 1.381 . S
C3242 C3243 1.394 . S
C3242 H3250 0.930 . S
C3243 C3242 1.394 . S
C3243 C3244 1.383 . S
C3243 H3251 0.929 . S
C3244 C3243 1.383 . S
C3244 C3245 1.377 . S
C3245 H3229 0.930 . S
C3245 C3244 1.377 . S
C3245 C3246 1.379 . S
C3246 H3230 0.931 . S
C3246 C3240 1.383 . S
C3246 C3245 1.379 . S
H3247 C3241 0.959 . S
H3248 C3241 0.961 . S
H3249 C3241 0.960 . S
H3250 C3242 0.930 . S
H3251 C3243 0.929 . S
H3252 C3260 0.929 . S
H3253 C3262 0.930 . S
H3254 C3264 0.930 . S
H3255 C3267 0.929 . S
H3256 C3270 0.930 . S
H3257 C3272 0.960 . S
H3258 C3272 0.960 . S
H3259 C3272 0.960 . S
C3260 H3252 0.929 . S
C3260 C3261 1.377 . S
C3260 C3262 1.384 . S
C3261 C3260 1.377 . S
C3261 C3267 1.390 . S
C3262 H3253 0.930 . S
C3262 C3260 1.384 . S
C3262 C3263 1.372 . S
C3263 C3262 1.372 . S
C3263 C3264 1.400 . S
C3263 C3268 1.490 . S
C3264 H3254 0.930 . S
C3264 C3263 1.400 . S
C3264 C3267 1.386 . S
H3265 C3281 0.930 . S
H3266 C3282 0.931 . S
C3267 H3255 0.929 . S
C3267 C3261 1.390 . S
C3267 C3264 1.386 . S
C3268 C3263 1.490 . S
C3268 C3270 1.395 . S
C3268 C3271 1.403 . S
H3269 C3275 0.930 . S
C3270 H3256 0.930 . S
C3270 C3268 1.395 . S
C3270 C3273 1.403 . S
C3271 C3268 1.403 . S
C3271 C3272 1.524 . S
C3271 C3275 1.400 . S
C3272 H3257 0.960 . S
C3272 H3258 0.960 . S
C3272 H3259 0.960 . S
C3272 C3271 1.524 . S
C3273 C3270 1.403 . S
C3273 C3274 1.392 . S
C3273 C3277 1.495 . S
C3274 C3273 1.392 . S
C3274 C3275 1.385 . S
C3274 C3276 1.478 . S
C3275 H3269 0.930 . S
C3275 C3271 1.400 . S
C3275 C3274 1.385 . S
C3276 C3274 1.478 . S
C3276 C3278 1.381 . S
C3276 C3282 1.383 . S
C3277 C3273 1.495 . S
C3277 H3283 0.959 . S
C3277 H3284 0.961 . S
C3277 H3285 0.960 . S
C3278 C3276 1.381 . S
C3278 C3279 1.394 . S
C3278 H3286 0.930 . S
C3279 C3278 1.394 . S
C3279 C3280 1.383 . S
C3279 H3287 0.929 . S
C3280 C3279 1.383 . S
C3280 C3281 1.377 . S
C3281 H3265 0.930 . S
C3281 C3280 1.377 . S
C3281 C3282 1.379 . S
C3282 H3266 0.931 . S
C3282 C3276 1.383 . S
C3282 C3281 1.379 . S
H3283 C3277 0.959 . S
H3284 C3277 0.961 . S
H3285 C3277 0.960 . S
H3286 C3278 0.930 . S
H3287 C3279 0.929 . S
H3288 C3296 0.929 . S
H3289 C3298 0.930 . S
H3290 C3300 0.930 . S
H3291 C3303 0.929 . S
H3292 C3306 0.930 . S
H3293 C3308 0.960 . S
H3294 C3308 0.960 . S
H3295 C3308 0.960 . S
C3296 H3288 0.929 . S
C3296 C3297 1.377 . S
C3296 C3298 1.384 . S
C3297 C3296 1.377 . S
C3297 C3303 1.390 . S
C3298 H3289 0.930 . S
C3298 C3296 1.384 . S
C3298 C3299 1.372 . S
C3299 C3298 1.372 . S
C3299 C3300 1.400 . S
C3299 C3304 1.490 . S
C3300 H3290 0.930 . S
C3300 C3299 1.400 . S
C3300 C3303 1.386 . S
H3301 C3317 0.930 . S
H3302 C3318 0.931 . S
C3303 H3291 0.929 . S
C3303 C3297 1.390 . S
C3303 C3300 1.386 . S
C3304 C3299 1.490 . S
C3304 C3306 1.395 . S
C3304 C3307 1.403 . S
H3305 C3311 0.930 . S
C3306 H3292 0.930 . S
C3306 C3304 1.395 . S
C3306 C3309 1.403 . S
C3307 C3304 1.403 . S
C3307 C3308 1.524 . S
C3307 C3311 1.400 . S
C3308 H3293 0.960 . S
C3308 H3294 0.960 . S
C3308 H3295 0.960 . S
C3308 C3307 1.524 . S
C3309 C3306 1.403 . S
C3309 C3310 1.392 . S
C3309 C3313 1.495 . S
C3310 C3309 1.392 . S
C3310 C3311 1.385 . S
C3310 C3312 1.478 . S
C3311 H3305 0.930 . S
C3311 C3307 1.400 . S
C3311 C3310 1.385 . S
C3312 C3310 1.478 . S
C3312 C3314 1.381 . S
C3312 C3318 1.383 . S
C3313 C3309 1.495 . S
C3313 H3319 0.959 . S
C3313 H3320 0.961 . S
C3313 H3321 0.960 . S
C3314 C3312 1.381 . S
C3314 C3315 1.394 . S
C3314 H3322 0.930 . S
C3315 C3314 1.394 . S
C3315 C3316 1.383 . S
C3315 H3323 0.929 . S
C3316 C3315 1.383 . S
C3316 C3317 1.377 . S
C3317 H3301 0.930 . S
C3317 C3316 1.377 . S
C3317 C3318 1.379 . S
C3318 H3302 0.931 . S
C3318 C3312 1.383 . S
C3318 C3317 1.379 . S
H3319 C3313 0.959 . S
H3320 C3313 0.961 . S
H3321 C3313 0.960 . S
H3322 C3314 0.930 . S
H3323 C3315 0.929 . S
H3324 C3332 0.929 . S
H3325 C3334 0.930 . S
H3326 C3336 0.930 . S
H3327 C3339 0.929 . S
H3328 C3342 0.930 . S
H3329 C3344 0.960 . S
H3330 C3344 0.960 . S
H3331 C3344 0.960 . S
C3332 H3324 0.929 . S
C3332 C3333 1.377 . S
C3332 C3334 1.384 . S
C3333 C3332 1.377 . S
C3333 C3339 1.390 . S
C3334 H3325 0.930 . S
C3334 C3332 1.384 . S
C3334 C3335 1.372 . S
C3335 C3334 1.372 . S
C3335 C3336 1.400 . S
C3335 C3340 1.490 . S
C3336 H3326 0.930 . S
C3336 C3335 1.400 . S
C3336 C3339 1.386 . S
H3337 C3353 0.930 . S
H3338 C3354 0.931 . S
C3339 H3327 0.929 . S
C3339 C3333 1.390 . S
C3339 C3336 1.386 . S
C3340 C3335 1.490 . S
C3340 C3342 1.395 . S
C3340 C3343 1.403 . S
H3341 C3347 0.930 . S
C3342 H3328 0.930 . S
C3342 C3340 1.395 . S
C3342 C3345 1.403 . S
C3343 C3340 1.403 . S
C3343 C3344 1.524 . S
C3343 C3347 1.400 . S
C3344 H3329 0.960 . S
C3344 H3330 0.960 . S
C3344 H3331 0.960 . S
C3344 C3343 1.524 . S
C3345 C3342 1.403 . S
C3345 C3346 1.392 . S
C3345 C3349 1.495 . S
C3346 C3345 1.392 . S
C3346 C3347 1.385 . S
C3346 C3348 1.478 . S
C3347 H3341 0.930 . S
C3347 C3343 1.400 . S
C3347 C3346 1.385 . S
C3348 C3346 1.478 . S
C3348 C3350 1.381 . S
C3348 C3354 1.383 . S
C3349 C3345 1.495 . S
C3349 H3355 0.959 . S
C3349 H3356 0.961 . S
C3349 H3357 0.960 . S
C3350 C3348 1.381 . S
C3350 C3351 1.394 . S
C3350 H3358 0.930 . S
C3351 C3350 1.394 . S
C3351 C3352 1.383 . S
C3351 H3359 0.929 . S
C3352 C3351 1.383 . S
C3352 C3353 1.377 . S
C3353 H3337 0.930 . S
C3353 C3352 1.377 . S
C3353 C3354 1.379 . S
C3354 H3338 0.931 . S
C3354 C3348 1.383 . S
C3354 C3353 1.379 . S
H3355 C3349 0.959 . S
H3356 C3349 0.961 . S
H3357 C3349 0.960 . S
H3358 C3350 0.930 . S
H3359 C3351 0.929 . S
H3360 C3368 0.929 . S
H3361 C3370 0.930 . S
H3362 C3372 0.930 . S
H3363 C3375 0.929 . S
H3364 C3378 0.930 . S
H3365 C3380 0.960 . S
H3366 C3380 0.960 . S
H3367 C3380 0.960 . S
C3368 H3360 0.929 . S
C3368 C3369 1.377 . S
C3368 C3370 1.384 . S
C3369 C3368 1.377 . S
C3369 C3375 1.390 . S
C3370 H3361 0.930 . S
C3370 C3368 1.384 . S
C3370 C3371 1.372 . S
C3371 C3370 1.372 . S
C3371 C3372 1.400 . S
C3371 C3376 1.490 . S
C3372 H3362 0.930 . S
C3372 C3371 1.400 . S
C3372 C3375 1.386 . S
H3373 C3389 0.930 . S
H3374 C3390 0.931 . S
C3375 H3363 0.929 . S
C3375 C3369 1.390 . S
C3375 C3372 1.386 . S
C3376 C3371 1.490 . S
C3376 C3378 1.395 . S
C3376 C3379 1.403 . S
H3377 C3383 0.930 . S
C3378 H3364 0.930 . S
C3378 C3376 1.395 . S
C3378 C3381 1.403 . S
C3379 C3376 1.403 . S
C3379 C3380 1.524 . S
C3379 C3383 1.400 . S
C3380 H3365 0.960 . S
C3380 H3366 0.960 . S
C3380 H3367 0.960 . S
C3380 C3379 1.524 . S
C3381 C3378 1.403 . S
C3381 C3382 1.392 . S
C3381 C3385 1.495 . S
C3382 C3381 1.392 . S
C3382 C3383 1.385 . S
C3382 C3384 1.478 . S
C3383 H3377 0.930 . S
C3383 C3379 1.400 . S
C3383 C3382 1.385 . S
C3384 C3382 1.478 . S
C3384 C3386 1.381 . S
C3384 C3390 1.383 . S
C3385 C3381 1.495 . S
C3385 H3391 0.959 . S
C3385 H3392 0.961 . S
C3385 H3393 0.960 . S
C3386 C3384 1.381 . S
C3386 C3387 1.394 . S
C3386 H3394 0.930 . S
C3387 C3386 1.394 . S
C3387 C3388 1.383 . S
C3387 H3395 0.929 . S
C3388 C3387 1.383 . S
C3388 C3389 1.377 . S
C3389 H3373 0.930 . S
C3389 C3388 1.377 . S
C3389 C3390 1.379 . S
C3390 H3374 0.931 . S
C3390 C3384 1.383 . S
C3390 C3389 1.379 . S
H3391 C3385 0.959 . S
H3392 C3385 0.961 . S
H3393 C3385 0.960 . S
H3394 C3386 0.930 . S
H3395 C3387 0.929 . S
H3396 C3404 0.929 . S
H3397 C3406 0.930 . S
H3398 C3408 0.930 . S
H3399 C3411 0.929 . S
H3400 C3414 0.930 . S
H3401 C3416 0.960 . S
H3402 C3416 0.960 . S
H3403 C3416 0.960 . S
C3404 H3396 0.929 . S
C3404 C3405 1.377 . S
C3404 C3406 1.384 . S
C3405 C3404 1.377 . S
C3405 C3411 1.390 . S
C3406 H3397 0.930 . S
C3406 C3404 1.384 . S
C3406 C3407 1.372 . S
C3407 C3406 1.372 . S
C3407 C3408 1.400 . S
C3407 C3412 1.490 . S
C3408 H3398 0.930 . S
C3408 C3407 1.400 . S
C3408 C3411 1.386 . S
H3409 C3425 0.930 . S
H3410 C3426 0.931 . S
C3411 H3399 0.929 . S
C3411 C3405 1.390 . S
C3411 C3408 1.386 . S
C3412 C3407 1.490 . S
C3412 C3414 1.395 . S
C3412 C3415 1.403 . S
H3413 C3419 0.930 . S
C3414 H3400 0.930 . S
C3414 C3412 1.395 . S
C3414 C3417 1.403 . S
C3415 C3412 1.403 . S
C3415 C3416 1.524 . S
C3415 C3419 1.400 . S
C3416 H3401 0.960 . S
C3416 H3402 0.960 . S
C3416 H3403 0.960 . S
C3416 C3415 1.524 . S
C3417 C3414 1.403 . S
C3417 C3418 1.392 . S
C3417 C3421 1.495 . S
C3418 C3417 1.392 . S
C3418 C3419 1.385 . S
C3418 C3420 1.478 . S
C3419 H3413 0.930 . S
C3419 C3415 1.400 . S
C3419 C3418 1.385 . S
C3420 C3418 1.478 . S
C3420 C3422 1.381 . S
C3420 C3426 1.383 . S
C3421 C3417 1.495 . S
C3421 H3427 0.959 . S
C3421 H3428 0.961 . S
C3421 H3429 0.960 . S
C3422 C3420 1.381 . S
C3422 C3423 1.394 . S
C3422 H3430 0.930 . S
C3423 C3422 1.394 . S
C3423 C3424 1.383 . S
C3423 H3431 0.929 . S
C3424 C3423 1.383 . S
C3424 C3425 1.377 . S
C3425 H3409 0.930 . S
C3425 C3424 1.377 . S
C3425 C3426 1.379 . S
C3426 H3410 0.931 . S
C3426 C3420 1.383 . S
C3426 C3425 1.379 . S
H3427 C3421 0.959 . S
H3428 C3421 0.961 . S
H3429 C3421 0.960 . S
H3430 C3422 0.930 . S
H3431 C3423 0.929 . S
H3432 C3440 0.929 . S
H3433 C3442 0.930 . S
H3434 C3444 0.930 . S
H3435 C3447 0.929 . S
H3436 C3450 0.930 . S
H3437 C3452 0.960 . S
H3438 C3452 0.960 . S
H3439 C3452 0.960 . S
C3440 H3432 0.929 . S
C3440 C3441 1.377 . S
C3440 C3442 1.384 . S
C3441 C3440 1.377 . S
C3441 C3447 1.390 . S
C3442 H3433 0.930 . S
C3442 C3440 1.384 . S
C3442 C3443 1.372 . S
C3443 C3442 1.372 . S
C3443 C3444 1.400 . S
C3443 C3448 1.490 . S
C3444 H3434 0.930 . S
C3444 C3443 1.400 . S
C3444 C3447 1.386 . S
H3445 C3461 0.930 . S
H3446 C3462 0.931 . S
C3447 H3435 0.929 . S
C3447 C3441 1.390 . S
C3447 C3444 1.386 . S
C3448 C3443 1.490 . S
C3448 C3450 1.395 . S
C3448 C3451 1.403 . S
H3449 C3455 0.930 . S
C3450 H3436 0.930 . S
C3450 C3448 1.395 . S
C3450 C3453 1.403 . S
C3451 C3448 1.403 . S
C3451 C3452 1.524 . S
C3451 C3455 1.400 . S
C3452 H3437 0.960 . S
C3452 H3438 0.960 . S
C3452 H3439 0.960 . S
C3452 C3451 1.524 . S
C3453 C3450 1.403 . S
C3453 C3454 1.392 . S
C3453 C3457 1.495 . S
C3454 C3453 1.392 . S
C3454 C3455 1.385 . S
C3454 C3456 1.478 . S
C3455 H3449 0.930 . S
C3455 C3451 1.400 . S
C3455 C3454 1.385 . S
C3456 C3454 1.478 . S
C3456 C3458 1.381 . S
C3456 C3462 1.383 . S
C3457 C3453 1.495 . S
C3457 H3463 0.959 . S
C3457 H3464 0.961 . S
C3457 H3465 0.960 . S
C3458 C3456 1.381 . S
C3458 C3459 1.394 . S
C3458 H3466 0.930 . S
C3459 C3458 1.394 . S
C3459 C3460 1.383 . S
C3459 H3467 0.929 . S
C3460 C3459 1.383 . S
C3460 C3461 1.377 . S
C3461 H3445 0.930 . S
C3461 C3460 1.377 . S
C3461 C3462 1.379 . S
C3462 H3446 0.931 . S
C3462 C3456 1.383 . S
C3462 C3461 1.379 . S
H3463 C3457 0.959 . S
H3464 C3457 0.961 . S
H3465 C3457 0.960 . S
H3466 C3458 0.930 . S
H3467 C3459 0.929 . S
H3468 C3476 0.929 . S
H3469 C3478 0.930 . S
H3470 C3480 0.930 . S
H3471 C3483 0.929 . S
H3472 C3486 0.930 . S
H3473 C3488 0.960 . S
H3474 C3488 0.960 . S
H3475 C3488 0.960 . S
C3476 H3468 0.929 . S
C3476 C3477 1.377 . S
C3476 C3478 1.384 . S
C3477 C3476 1.377 . S
C3477 C3483 1.390 . S
C3478 H3469 0.930 . S
C3478 C3476 1.384 . S
C3478 C3479 1.372 . S
C3479 C3478 1.372 . S
C3479 C3480 1.400 . S
C3479 C3484 1.490 . S
C3480 H3470 0.930 . S
C3480 C3479 1.400 . S
C3480 C3483 1.386 . S
H3481 C3497 0.930 . S
H3482 C3498 0.931 . S
C3483 H3471 0.929 . S
C3483 C3477 1.390 . S
C3483 C3480 1.386 . S
C3484 C3479 1.490 . S
C3484 C3486 1.395 . S
C3484 C3487 1.403 . S
H3485 C3491 0.930 . S
C3486 H3472 0.930 . S
C3486 C3484 1.395 . S
C3486 C3489 1.403 . S
C3487 C3484 1.403 . S
C3487 C3488 1.524 . S
C3487 C3491 1.400 . S
C3488 H3473 0.960 . S
C3488 H3474 0.960 . S
C3488 H3475 0.960 . S
C3488 C3487 1.524 . S
C3489 C3486 1.403 . S
C3489 C3490 1.392 . S
C3489 C3493 1.495 . S
C3490 C3489 1.392 . S
C3490 C3491 1.385 . S
C3490 C3492 1.478 . S
C3491 H3485 0.930 . S
C3491 C3487 1.400 . S
C3491 C3490 1.385 . S
C3492 C3490 1.478 . S
C3492 C3494 1.381 . S
C3492 C3498 1.383 . S
C3493 C3489 1.495 . S
C3493 H3499 0.959 . S
C3493 H3500 0.961 . S
C3493 H3501 0.960 . S
C3494 C3492 1.381 . S
C3494 C3495 1.394 . S
C3494 H3502 0.930 . S
C3495 C3494 1.394 . S
C3495 C3496 1.383 . S
C3495 H3503 0.929 . S
C3496 C3495 1.383 . S
C3496 C3497 1.377 . S
C3497 H3481 0.930 . S
C3497 C3496 1.377 . S
C3497 C3498 1.379 . S
C3498 H3482 0.931 . S
C3498 C3492 1.383 . S
C3498 C3497 1.379 . S
H3499 C3493 0.959 . S
H3500 C3493 0.961 . S
H3501 C3493 0.960 . S
H3502 C3494 0.930 . S
H3503 C3495 0.929 . S
H3504 C3512 0.929 . S
H3505 C3514 0.930 . S
H3506 C3516 0.930 . S
H3507 C3519 0.929 . S
H3508 C3522 0.930 . S
H3509 C3524 0.960 . S
H3510 C3524 0.960 . S
H3511 C3524 0.960 . S
C3512 H3504 0.929 . S
C3512 C3513 1.377 . S
C3512 C3514 1.384 . S
C3513 C3512 1.377 . S
C3513 C3519 1.390 . S
C3514 H3505 0.930 . S
C3514 C3512 1.384 . S
C3514 C3515 1.372 . S
C3515 C3514 1.372 . S
C3515 C3516 1.400 . S
C3515 C3520 1.490 . S
C3516 H3506 0.930 . S
C3516 C3515 1.400 . S
C3516 C3519 1.386 . S
H3517 C3533 0.930 . S
H3518 C3534 0.931 . S
C3519 H3507 0.929 . S
C3519 C3513 1.390 . S
C3519 C3516 1.386 . S
C3520 C3515 1.490 . S
C3520 C3522 1.395 . S
C3520 C3523 1.403 . S
H3521 C3527 0.930 . S
C3522 H3508 0.930 . S
C3522 C3520 1.395 . S
C3522 C3525 1.403 . S
C3523 C3520 1.403 . S
C3523 C3524 1.524 . S
C3523 C3527 1.400 . S
C3524 H3509 0.960 . S
C3524 H3510 0.960 . S
C3524 H3511 0.960 . S
C3524 C3523 1.524 . S
C3525 C3522 1.403 . S
C3525 C3526 1.392 . S
C3525 C3529 1.495 . S
C3526 C3525 1.392 . S
C3526 C3527 1.385 . S
C3526 C3528 1.478 . S
C3527 H3521 0.930 . S
C3527 C3523 1.400 . S
C3527 C3526 1.385 . S
C3528 C3526 1.478 . S
C3528 C3530 1.381 . S
C3528 C3534 1.383 . S
C3529 C3525 1.495 . S
C3529 H3535 0.959 . S
C3529 H3536 0.961 . S
C3529 H3537 0.960 . S
C3530 C3528 1.381 . S
C3530 C3531 1.394 . S
C3530 H3538 0.930 . S
C3531 C3530 1.394 . S
C3531 C3532 1.383 . S
C3531 H3539 0.929 . S
C3532 C3531 1.383 . S
C3532 C3533 1.377 . S
C3533 H3517 0.930 . S
C3533 C3532 1.377 . S
C3533 C3534 1.379 . S
C3534 H3518 0.931 . S
C3534 C3528 1.383 . S
C3534 C3533 1.379 . S
H3535 C3529 0.959 . S
H3536 C3529 0.961 . S
H3537 C3529 0.960 . S
H3538 C3530 0.930 . S
H3539 C3531 0.929 . S
H3540 C3548 0.929 . S
H3541 C3550 0.930 . S
H3542 C3552 0.930 . S
H3543 C3555 0.929 . S
H3544 C3558 0.930 . S
H3545 C3560 0.960 . S
H3546 C3560 0.960 . S
H3547 C3560 0.960 . S
C3548 H3540 0.929 . S
C3548 C3549 1.377 . S
C3548 C3550 1.384 . S
C3549 C3548 1.377 . S
C3549 C3555 1.390 . S
C3550 H3541 0.930 . S
C3550 C3548 1.384 . S
C3550 C3551 1.372 . S
C3551 C3550 1.372 . S
C3551 C3552 1.400 . S
C3551 C3556 1.490 . S
C3552 H3542 0.930 . S
C3552 C3551 1.400 . S
C3552 C3555 1.386 . S
H3553 C3569 0.930 . S
H3554 C3570 0.931 . S
C3555 H3543 0.929 . S
C3555 C3549 1.390 . S
C3555 C3552 1.386 . S
C3556 C3551 1.490 . S
C3556 C3558 1.395 . S
C3556 C3559 1.403 . S
H3557 C3563 0.930 . S
C3558 H3544 0.930 . S
C3558 C3556 1.395 . S
C3558 C3561 1.403 . S
C3559 C3556 1.403 . S
C3559 C3560 1.524 . S
C3559 C3563 1.400 . S
C3560 H3545 0.960 . S
C3560 H3546 0.960 . S
C3560 H3547 0.960 . S
C3560 C3559 1.524 . S
C3561 C3558 1.403 . S
C3561 C3562 1.392 . S
C3561 C3565 1.495 . S
C3562 C3561 1.392 . S
C3562 C3563 1.385 . S
C3562 C3564 1.478 . S
C3563 H3557 0.930 . S
C3563 C3559 1.400 . S
C3563 C3562 1.385 . S
C3564 C3562 1.478 . S
C3564 C3566 1.381 . S
C3564 C3570 1.383 . S
C3565 C3561 1.495 . S
C3565 H3571 0.959 . S
C3565 H3572 0.961 . S
C3565 H3573 0.960 . S
C3566 C3564 1.381 . S
C3566 C3567 1.394 . S
C3566 H3574 0.930 . S
C3567 C3566 1.394 . S
C3567 C3568 1.383 . S
C3567 H3575 0.929 . S
C3568 C3567 1.383 . S
C3568 C3569 1.377 . S
C3569 H3553 0.930 . S
C3569 C3568 1.377 . S
C3569 C3570 1.379 . S
C3570 H3554 0.931 . S
C3570 C3564 1.383 . S
C3570 C3569 1.379 . S
H3571 C3565 0.959 . S
H3572 C3565 0.961 . S
H3573 C3565 0.960 . S
H3574 C3566 0.930 . S
H3575 C3567 0.929 . S
H3576 C3584 0.929 . S
H3577 C3586 0.930 . S
H3578 C3588 0.930 . S
H3579 C3591 0.929 . S
H3580 C3594 0.930 . S
H3581 C3596 0.960 . S
H3582 C3596 0.960 . S
H3583 C3596 0.960 . S
C3584 H3576 0.929 . S
C3584 C3585 1.377 . S
C3584 C3586 1.384 . S
C3585 C3584 1.377 . S
C3585 C3591 1.390 . S
C3586 H3577 0.930 . S
C3586 C3584 1.384 . S
C3586 C3587 1.372 . S
C3587 C3586 1.372 . S
C3587 C3588 1.400 . S
C3587 C3592 1.490 . S
C3588 H3578 0.930 . S
C3588 C3587 1.400 . S
C3588 C3591 1.386 . S
H3589 C3605 0.930 . S
H3590 C3606 0.931 . S
C3591 H3579 0.929 . S
C3591 C3585 1.390 . S
C3591 C3588 1.386 . S
C3592 C3587 1.490 . S
C3592 C3594 1.395 . S
C3592 C3595 1.403 . S
H3593 C3599 0.930 . S
C3594 H3580 0.930 . S
C3594 C3592 1.395 . S
C3594 C3597 1.403 . S
C3595 C3592 1.403 . S
C3595 C3596 1.524 . S
C3595 C3599 1.400 . S
C3596 H3581 0.960 . S
C3596 H3582 0.960 . S
C3596 H3583 0.960 . S
C3596 C3595 1.524 . S
C3597 C3594 1.403 . S
C3597 C3598 1.392 . S
C3597 C3601 1.495 . S
C3598 C3597 1.392 . S
C3598 C3599 1.385 . S
C3598 C3600 1.478 . S
C3599 H3593 0.930 . S
C3599 C3595 1.400 . S
C3599 C3598 1.385 . S
C3600 C3598 1.478 . S
C3600 C3602 1.381 . S
C3600 C3606 1.383 . S
C3601 C3597 1.495 . S
C3601 H3607 0.959 . S
C3601 H3608 0.961 . S
C3601 H3609 0.960 . S
C3602 C3600 1.381 . S
C3602 C3603 1.394 . S
C3602 H3610 0.930 . S
C3603 C3602 1.394 . S
C3603 C3604 1.383 . S
C3603 H3611 0.929 . S
C3604 C3603 1.383 . S
C3604 C3605 1.377 . S
C3605 H3589 0.930 . S
C3605 C3604 1.377 . S
C3605 C3606 1.379 . S
C3606 H3590 0.931 . S
C3606 C3600 1.383 . S
C3606 C3605 1.379 . S
H3607 C3601 0.959 . S
H3608 C3601 0.961 . S
H3609 C3601 0.960 . S
H3610 C3602 0.930 . S
H3611 C3603 0.929 . S
H3612 C3620 0.929 . S
H3613 C3622 0.930 . S
H3614 C3624 0.930 . S
H3615 C3627 0.929 . S
H3616 C3630 0.930 . S
H3617 C3632 0.960 . S
H3618 C3632 0.960 . S
H3619 C3632 0.960 . S
C3620 H3612 0.929 . S
C3620 C3621 1.377 . S
C3620 C3622 1.384 . S
C3621 C3620 1.377 . S
C3621 C3627 1.390 . S
C3622 H3613 0.930 . S
C3622 C3620 1.384 . S
C3622 C3623 1.372 . S
C3623 C3622 1.372 . S
C3623 C3624 1.400 . S
C3623 C3628 1.490 . S
C3624 H3614 0.930 . S
C3624 C3623 1.400 . S
C3624 C3627 1.386 . S
H3625 C3641 0.930 . S
H3626 C3642 0.931 . S
C3627 H3615 0.929 . S
C3627 C3621 1.390 . S
C3627 C3624 1.386 . S
C3628 C3623 1.490 . S
C3628 C3630 1.395 . S
C3628 C3631 1.403 . S
H3629 C3635 0.930 . S
C3630 H3616 0.930 . S
C3630 C3628 1.395 . S
C3630 C3633 1.403 . S
C3631 C3628 1.403 . S
C3631 C3632 1.524 . S
C3631 C3635 1.400 . S
C3632 H3617 0.960 . S
C3632 H3618 0.960 . S
C3632 H3619 0.960 . S
C3632 C3631 1.524 . S
C3633 C3630 1.403 . S
C3633 C3634 1.392 . S
C3633 C3637 1.495 . S
C3634 C3633 1.392 . S
C3634 C3635 1.385 . S
C3634 C3636 1.478 . S
C3635 H3629 0.930 . S
C3635 C3631 1.400 . S
C3635 C3634 1.385 . S
C3636 C3634 1.478 . S
C3636 C3638 1.381 . S
C3636 C3642 1.383 . S
C3637 C3633 1.495 . S
C3637 H3643 0.959 . S
C3637 H3644 0.961 . S
C3637 H3645 0.960 . S
C3638 C3636 1.381 . S
C3638 C3639 1.394 . S
C3638 H3646 0.930 . S
C3639 C3638 1.394 . S
C3639 C3640 1.383 . S
C3639 H3647 0.929 . S
C3640 C3639 1.383 . S
C3640 C3641 1.377 . S
C3641 H3625 0.930 . S
C3641 C3640 1.377 . S
C3641 C3642 1.379 . S
C3642 H3626 0.931 . S
C3642 C3636 1.383 . S
C3642 C3641 1.379 . S
H3643 C3637 0.959 . S
H3644 C3637 0.961 . S
H3645 C3637 0.960 . S
H3646 C3638 0.930 . S
H3647 C3639 0.929 . S
H3648 C3656 0.929 . S
H3649 C3658 0.930 . S
H3650 C3660 0.930 . S
H3651 C3663 0.929 . S
H3652 C3666 0.930 . S
H3653 C3668 0.960 . S
H3654 C3668 0.960 . S
H3655 C3668 0.960 . S
C3656 H3648 0.929 . S
C3656 C3657 1.377 . S
C3656 C3658 1.384 . S
C3657 C3656 1.377 . S
C3657 C3663 1.390 . S
C3658 H3649 0.930 . S
C3658 C3656 1.384 . S
C3658 C3659 1.372 . S
C3659 C3658 1.372 . S
C3659 C3660 1.400 . S
C3659 C3664 1.490 . S
C3660 H3650 0.930 . S
C3660 C3659 1.400 . S
C3660 C3663 1.386 . S
H3661 C3677 0.930 . S
H3662 C3678 0.931 . S
C3663 H3651 0.929 . S
C3663 C3657 1.390 . S
C3663 C3660 1.386 . S
C3664 C3659 1.490 . S
C3664 C3666 1.395 . S
C3664 C3667 1.403 . S
H3665 C3671 0.930 . S
C3666 H3652 0.930 . S
C3666 C3664 1.395 . S
C3666 C3669 1.403 . S
C3667 C3664 1.403 . S
C3667 C3668 1.524 . S
C3667 C3671 1.400 . S
C3668 H3653 0.960 . S
C3668 H3654 0.960 . S
C3668 H3655 0.960 . S
C3668 C3667 1.524 . S
C3669 C3666 1.403 . S
C3669 C3670 1.392 . S
C3669 C3673 1.495 . S
C3670 C3669 1.392 . S
C3670 C3671 1.385 . S
C3670 C3672 1.478 . S
C3671 H3665 0.930 . S
C3671 C3667 1.400 . S
C3671 C3670 1.385 . S
C3672 C3670 1.478 . S
C3672 C3674 1.381 . S
C3672 C3678 1.383 . S
C3673 C3669 1.495 . S
C3673 H3679 0.959 . S
C3673 H3680 0.961 . S
C3673 H3681 0.960 . S
C3674 C3672 1.381 . S
C3674 C3675 1.394 . S
C3674 H3682 0.930 . S
C3675 C3674 1.394 . S
C3675 C3676 1.383 . S
C3675 H3683 0.929 . S
C3676 C3675 1.383 . S
C3676 C3677 1.377 . S
C3677 H3661 0.930 . S
C3677 C3676 1.377 . S
C3677 C3678 1.379 . S
C3678 H3662 0.931 . S
C3678 C3672 1.383 . S
C3678 C3677 1.379 . S
H3679 C3673 0.959 . S
H3680 C3673 0.961 . S
H3681 C3673 0.960 . S
H3682 C3674 0.930 . S
H3683 C3675 0.929 . S
H3684 C3692 0.929 . S
H3685 C3694 0.930 . S
H3686 C3696 0.930 . S
H3687 C3699 0.929 . S
H3688 C3702 0.930 . S
H3689 C3704 0.960 . S
H3690 C3704 0.960 . S
H3691 C3704 0.960 . S
C3692 H3684 0.929 . S
C3692 C3693 1.377 . S
C3692 C3694 1.384 . S
C3693 C3692 1.377 . S
C3693 C3699 1.390 . S
C3694 H3685 0.930 . S
C3694 C3692 1.384 . S
C3694 C3695 1.372 . S
C3695 C3694 1.372 . S
C3695 C3696 1.400 . S
C3695 C3700 1.490 . S
C3696 H3686 0.930 . S
C3696 C3695 1.400 . S
C3696 C3699 1.386 . S
H3697 C3713 0.930 . S
H3698 C3714 0.931 . S
C3699 H3687 0.929 . S
C3699 C3693 1.390 . S
C3699 C3696 1.386 . S
C3700 C3695 1.490 . S
C3700 C3702 1.395 . S
C3700 C3703 1.403 . S
H3701 C3707 0.930 . S
C3702 H3688 0.930 . S
C3702 C3700 1.395 . S
C3702 C3705 1.403 . S
C3703 C3700 1.403 . S
C3703 C3704 1.524 . S
C3703 C3707 1.400 . S
C3704 H3689 0.960 . S
C3704 H3690 0.960 . S
C3704 H3691 0.960 . S
C3704 C3703 1.524 . S
C3705 C3702 1.403 . S
C3705 C3706 1.392 . S
C3705 C3709 1.495 . S
C3706 C3705 1.392 . S
C3706 C3707 1.385 . S
C3706 C3708 1.478 . S
C3707 H3701 0.930 . S
C3707 C3703 1.400 . S
C3707 C3706 1.385 . S
C3708 C3706 1.478 . S
C3708 C3710 1.381 . S
C3708 C3714 1.383 . S
C3709 C3705 1.495 . S
C3709 H3715 0.959 . S
C3709 H3716 0.961 . S
C3709 H3717 0.960 . S
C3710 C3708 1.381 . S
C3710 C3711 1.394 . S
C3710 H3718 0.930 . S
C3711 C3710 1.394 . S
C3711 C3712 1.383 . S
C3711 H3719 0.929 . S
C3712 C3711 1.383 . S
C3712 C3713 1.377 . S
C3713 H3697 0.930 . S
C3713 C3712 1.377 . S
C3713 C3714 1.379 . S
C3714 H3698 0.931 . S
C3714 C3708 1.383 . S
C3714 C3713 1.379 . S
H3715 C3709 0.959 . S
H3716 C3709 0.961 . S
H3717 C3709 0.960 . S
H3718 C3710 0.930 . S
H3719 C3711 0.929 . S
H3720 C3728 0.929 . S
H3721 C3730 0.930 . S
H3722 C3732 0.930 . S
H3723 C3735 0.929 . S
H3724 C3738 0.930 . S
H3725 C3740 0.960 . S
H3726 C3740 0.960 . S
H3727 C3740 0.960 . S
C3728 H3720 0.929 . S
C3728 C3729 1.377 . S
C3728 C3730 1.384 . S
C3729 C3728 1.377 . S
C3729 C3735 1.390 . S
C3730 H3721 0.930 . S
C3730 C3728 1.384 . S
C3730 C3731 1.372 . S
C3731 C3730 1.372 . S
C3731 C3732 1.400 . S
C3731 C3736 1.490 . S
C3732 H3722 0.930 . S
C3732 C3731 1.400 . S
C3732 C3735 1.386 . S
H3733 C3749 0.930 . S
H3734 C3750 0.931 . S
C3735 H3723 0.929 . S
C3735 C3729 1.390 . S
C3735 C3732 1.386 . S
C3736 C3731 1.490 . S
C3736 C3738 1.395 . S
C3736 C3739 1.403 . S
H3737 C3743 0.930 . S
C3738 H3724 0.930 . S
C3738 C3736 1.395 . S
C3738 C3741 1.403 . S
C3739 C3736 1.403 . S
C3739 C3740 1.524 . S
C3739 C3743 1.400 . S
C3740 H3725 0.960 . S
C3740 H3726 0.960 . S
C3740 H3727 0.960 . S
C3740 C3739 1.524 . S
C3741 C3738 1.403 . S
C3741 C3742 1.392 . S
C3741 C3745 1.495 . S
C3742 C3741 1.392 . S
C3742 C3743 1.385 . S
C3742 C3744 1.478 . S
C3743 H3737 0.930 . S
C3743 C3739 1.400 . S
C3743 C3742 1.385 . S
C3744 C3742 1.478 . S
C3744 C3746 1.381 . S
C3744 C3750 1.383 . S
C3745 C3741 1.495 . S
C3745 H3751 0.959 . S
C3745 H3752 0.961 . S
C3745 H3753 0.960 . S
C3746 C3744 1.381 . S
C3746 C3747 1.394 . S
C3746 H3754 0.930 . S
C3747 C3746 1.394 . S
C3747 C3748 1.383 . S
C3747 H3755 0.929 . S
C3748 C3747 1.383 . S
C3748 C3749 1.377 . S
C3749 H3733 0.930 . S
C3749 C3748 1.377 . S
C3749 C3750 1.379 . S
C3750 H3734 0.931 . S
C3750 C3744 1.383 . S
C3750 C3749 1.379 . S
H3751 C3745 0.959 . S
H3752 C3745 0.961 . S
H3753 C3745 0.960 . S
H3754 C3746 0.930 . S
H3755 C3747 0.929 . S
H3756 C3764 0.929 . S
H3757 C3766 0.930 . S
H3758 C3768 0.930 . S
H3759 C3771 0.929 . S
H3760 C3774 0.930 . S
H3761 C3776 0.960 . S
H3762 C3776 0.960 . S
H3763 C3776 0.960 . S
C3764 H3756 0.929 . S
C3764 C3765 1.377 . S
C3764 C3766 1.384 . S
C3765 C3764 1.377 . S
C3765 C3771 1.390 . S
C3766 H3757 0.930 . S
C3766 C3764 1.384 . S
C3766 C3767 1.372 . S
C3767 C3766 1.372 . S
C3767 C3768 1.400 . S
C3767 C3772 1.490 . S
C3768 H3758 0.930 . S
C3768 C3767 1.400 . S
C3768 C3771 1.386 . S
H3769 C3785 0.930 . S
H3770 C3786 0.931 . S
C3771 H3759 0.929 . S
C3771 C3765 1.390 . S
C3771 C3768 1.386 . S
C3772 C3767 1.490 . S
C3772 C3774 1.395 . S
C3772 C3775 1.403 . S
H3773 C3779 0.930 . S
C3774 H3760 0.930 . S
C3774 C3772 1.395 . S
C3774 C3777 1.403 . S
C3775 C3772 1.403 . S
C3775 C3776 1.524 . S
C3775 C3779 1.400 . S
C3776 H3761 0.960 . S
C3776 H3762 0.960 . S
C3776 H3763 0.960 . S
C3776 C3775 1.524 . S
C3777 C3774 1.403 . S
C3777 C3778 1.392 . S
C3777 C3781 1.495 . S
C3778 C3777 1.392 . S
C3778 C3779 1.385 . S
C3778 C3780 1.478 . S
C3779 H3773 0.930 . S
C3779 C3775 1.400 . S
C3779 C3778 1.385 . S
C3780 C3778 1.478 . S
C3780 C3782 1.381 . S
C3780 C3786 1.383 . S
C3781 C3777 1.495 . S
C3781 H3787 0.959 . S
C3781 H3788 0.961 . S
C3781 H3789 0.960 . S
C3782 C3780 1.381 . S
C3782 C3783 1.394 . S
C3782 H3790 0.930 . S
C3783 C3782 1.394 . S
C3783 C3784 1.383 . S
C3783 H3791 0.929 . S
C3784 C3783 1.383 . S
C3784 C3785 1.377 . S
C3785 H3769 0.930 . S
C3785 C3784 1.377 . S
C3785 C3786 1.379 . S
C3786 H3770 0.931 . S
C3786 C3780 1.383 . S
C3786 C3785 1.379 . S
H3787 C3781 0.959 . S
H3788 C3781 0.961 . S
H3789 C3781 0.960 . S
H3790 C3782 0.930 . S
H3791 C3783 0.929 . S
H3792 C3800 0.929 . S
H3793 C3802 0.930 . S
H3794 C3804 0.930 . S
H3795 C3807 0.929 . S
H3796 C3810 0.930 . S
H3797 C3812 0.960 . S
H3798 C3812 0.960 . S
H3799 C3812 0.960 . S
C3800 H3792 0.929 . S
C3800 C3801 1.377 . S
C3800 C3802 1.384 . S
C3801 C3800 1.377 . S
C3801 C3807 1.390 . S
C3802 H3793 0.930 . S
C3802 C3800 1.384 . S
C3802 C3803 1.372 . S
C3803 C3802 1.372 . S
C3803 C3804 1.400 . S
C3803 C3808 1.490 . S
C3804 H3794 0.930 . S
C3804 C3803 1.400 . S
C3804 C3807 1.386 . S
H3805 C3821 0.930 . S
H3806 C3822 0.931 . S
C3807 H3795 0.929 . S
C3807 C3801 1.390 . S
C3807 C3804 1.386 . S
C3808 C3803 1.490 . S
C3808 C3810 1.395 . S
C3808 C3811 1.403 . S
H3809 C3815 0.930 . S
C3810 H3796 0.930 . S
C3810 C3808 1.395 . S
C3810 C3813 1.403 . S
C3811 C3808 1.403 . S
C3811 C3812 1.524 . S
C3811 C3815 1.400 . S
C3812 H3797 0.960 . S
C3812 H3798 0.960 . S
C3812 H3799 0.960 . S
C3812 C3811 1.524 . S
C3813 C3810 1.403 . S
C3813 C3814 1.392 . S
C3813 C3817 1.495 . S
C3814 C3813 1.392 . S
C3814 C3815 1.385 . S
C3814 C3816 1.478 . S
C3815 H3809 0.930 . S
C3815 C3811 1.400 . S
C3815 C3814 1.385 . S
C3816 C3814 1.478 . S
C3816 C3818 1.381 . S
C3816 C3822 1.383 . S
C3817 C3813 1.495 . S
C3817 H3823 0.959 . S
C3817 H3824 0.961 . S
C3817 H3825 0.960 . S
C3818 C3816 1.381 . S
C3818 C3819 1.394 . S
C3818 H3826 0.930 . S
C3819 C3818 1.394 . S
C3819 C3820 1.383 . S
C3819 H3827 0.929 . S
C3820 C3819 1.383 . S
C3820 C3821 1.377 . S
C3821 H3805 0.930 . S
C3821 C3820 1.377 . S
C3821 C3822 1.379 . S
C3822 H3806 0.931 . S
C3822 C3816 1.383 . S
C3822 C3821 1.379 . S
H3823 C3817 0.959 . S
H3824 C3817 0.961 . S
H3825 C3817 0.960 . S
H3826 C3818 0.930 . S
H3827 C3819 0.929 . S
H3828 C3836 0.929 . S
H3829 C3838 0.930 . S
H3830 C3840 0.930 . S
H3831 C3843 0.929 . S
H3832 C3846 0.930 . S
H3833 C3848 0.960 . S
H3834 C3848 0.960 . S
H3835 C3848 0.960 . S
C3836 H3828 0.929 . S
C3836 C3837 1.377 . S
C3836 C3838 1.384 . S
C3837 C3836 1.377 . S
C3837 C3843 1.390 . S
C3838 H3829 0.930 . S
C3838 C3836 1.384 . S
C3838 C3839 1.372 . S
C3839 C3838 1.372 . S
C3839 C3840 1.400 . S
C3839 C3844 1.490 . S
C3840 H3830 0.930 . S
C3840 C3839 1.400 . S
C3840 C3843 1.386 . S
H3841 C3857 0.930 . S
H3842 C3858 0.931 . S
C3843 H3831 0.929 . S
C3843 C3837 1.390 . S
C3843 C3840 1.386 . S
C3844 C3839 1.490 . S
C3844 C3846 1.395 . S
C3844 C3847 1.403 . S
H3845 C3851 0.930 . S
C3846 H3832 0.930 . S
C3846 C3844 1.395 . S
C3846 C3849 1.403 . S
C3847 C3844 1.403 . S
C3847 C3848 1.524 . S
C3847 C3851 1.400 . S
C3848 H3833 0.960 . S
C3848 H3834 0.960 . S
C3848 H3835 0.960 . S
C3848 C3847 1.524 . S
C3849 C3846 1.403 . S
C3849 C3850 1.392 . S
C3849 C3853 1.495 . S
C3850 C3849 1.392 . S
C3850 C3851 1.385 . S
C3850 C3852 1.478 . S
C3851 H3845 0.930 . S
C3851 C3847 1.400 . S
C3851 C3850 1.385 . S
C3852 C3850 1.478 . S
C3852 C3854 1.381 . S
C3852 C3858 1.383 . S
C3853 C3849 1.495 . S
C3853 H3859 0.959 . S
C3853 H3860 0.961 . S
C3853 H3861 0.960 . S
C3854 C3852 1.381 . S
C3854 C3855 1.394 . S
C3854 H3862 0.930 . S
C3855 C3854 1.394 . S
C3855 C3856 1.383 . S
C3855 H3863 0.929 . S
C3856 C3855 1.383 . S
C3856 C3857 1.377 . S
C3857 H3841 0.930 . S
C3857 C3856 1.377 . S
C3857 C3858 1.379 . S
C3858 H3842 0.931 . S
C3858 C3852 1.383 . S
C3858 C3857 1.379 . S
H3859 C3853 0.959 . S
H3860 C3853 0.961 . S
H3861 C3853 0.960 . S
H3862 C3854 0.930 . S
H3863 C3855 0.929 . S
H3864 C3872 0.929 . S
H3865 C3874 0.930 . S
H3866 C3876 0.930 . S
H3867 C3879 0.929 . S
H3868 C3882 0.930 . S
H3869 C3884 0.960 . S
H3870 C3884 0.960 . S
H3871 C3884 0.960 . S
C3872 H3864 0.929 . S
C3872 C3873 1.377 . S
C3872 C3874 1.384 . S
C3873 C3872 1.377 . S
C3873 C3879 1.390 . S
C3874 H3865 0.930 . S
C3874 C3872 1.384 . S
C3874 C3875 1.372 . S
C3875 C3874 1.372 . S
C3875 C3876 1.400 . S
C3875 C3880 1.490 . S
C3876 H3866 0.930 . S
C3876 C3875 1.400 . S
C3876 C3879 1.386 . S
H3877 C3893 0.930 . S
H3878 C3894 0.931 . S
C3879 H3867 0.929 . S
C3879 C3873 1.390 . S
C3879 C3876 1.386 . S
C3880 C3875 1.490 . S
C3880 C3882 1.395 . S
C3880 C3883 1.403 . S
H3881 C3887 0.930 . S
C3882 H3868 0.930 . S
C3882 C3880 1.395 . S
C3882 C3885 1.403 . S
C3883 C3880 1.403 . S
C3883 C3884 1.524 . S
C3883 C3887 1.400 . S
C3884 H3869 0.960 . S
C3884 H3870 0.960 . S
C3884 H3871 0.960 . S
C3884 C3883 1.524 . S
C3885 C3882 1.403 . S
C3885 C3886 1.392 . S
C3885 C3889 1.495 . S
C3886 C3885 1.392 . S
C3886 C3887 1.385 . S
C3886 C3888 1.478 . S
C3887 H3881 0.930 . S
C3887 C3883 1.400 . S
C3887 C3886 1.385 . S
C3888 C3886 1.478 . S
C3888 C3890 1.381 . S
C3888 C3894 1.383 . S
C3889 C3885 1.495 . S
C3889 H3895 0.959 . S
C3889 H3896 0.961 . S
C3889 H3897 0.960 . S
C3890 C3888 1.381 . S
C3890 C3891 1.394 . S
C3890 H3898 0.930 . S
C3891 C3890 1.394 . S
C3891 C3892 1.383 . S
C3891 H3899 0.929 . S
C3892 C3891 1.383 . S
C3892 C3893 1.377 . S
C3893 H3877 0.930 . S
C3893 C3892 1.377 . S
C3893 C3894 1.379 . S
C3894 H3878 0.931 . S
C3894 C3888 1.383 . S
C3894 C3893 1.379 . S
H3895 C3889 0.959 . S
H3896 C3889 0.961 . S
H3897 C3889 0.960 . S
H3898 C3890 0.930 . S
H3899 C3891 0.929 . S
H3900 C3908 0.929 . S
H3901 C3910 0.930 . S
H3902 C3912 0.930 . S
H3903 C3915 0.929 . S
H3904 C3918 0.930 . S
H3905 C3920 0.960 . S
H3906 C3920 0.960 . S
H3907 C3920 0.960 . S
C3908 H3900 0.929 . S
C3908 C3909 1.377 . S
C3908 C3910 1.384 . S
C3909 C3908 1.377 . S
C3909 C3915 1.390 . S
C3910 H3901 0.930 . S
C3910 C3908 1.384 . S
C3910 C3911 1.372 . S
C3911 C3910 1.372 . S
C3911 C3912 1.400 . S
C3911 C3916 1.490 . S
C3912 H3902 0.930 . S
C3912 C3911 1.400 . S
C3912 C3915 1.386 . S
H3913 C3929 0.930 . S
H3914 C3930 0.931 . S
C3915 H3903 0.929 . S
C3915 C3909 1.390 . S
C3915 C3912 1.386 . S
C3916 C3911 1.490 . S
C3916 C3918 1.395 . S
C3916 C3919 1.403 . S
H3917 C3923 0.930 . S
C3918 H3904 0.930 . S
C3918 C3916 1.395 . S
C3918 C3921 1.403 . S
C3919 C3916 1.403 . S
C3919 C3920 1.524 . S
C3919 C3923 1.400 . S
C3920 H3905 0.960 . S
C3920 H3906 0.960 . S
C3920 H3907 0.960 . S
C3920 C3919 1.524 . S
C3921 C3918 1.403 . S
C3921 C3922 1.392 . S
C3921 C3925 1.495 . S
C3922 C3921 1.392 . S
C3922 C3923 1.385 . S
C3922 C3924 1.478 . S
C3923 H3917 0.930 . S
C3923 C3919 1.400 . S
C3923 C3922 1.385 . S
C3924 C3922 1.478 . S
C3924 C3926 1.381 . S
C3924 C3930 1.383 . S
C3925 C3921 1.495 . S
C3925 H3931 0.959 . S
C3925 H3932 0.961 . S
C3925 H3933 0.960 . S
C3926 C3924 1.381 . S
C3926 C3927 1.394 . S
C3926 H3934 0.930 . S
C3927 C3926 1.394 . S
C3927 C3928 1.383 . S
C3927 H3935 0.929 . S
C3928 C3927 1.383 . S
C3928 C3929 1.377 . S
C3929 H3913 0.930 . S
C3929 C3928 1.377 . S
C3929 C3930 1.379 . S
C3930 H3914 0.931 . S
C3930 C3924 1.383 . S
C3930 C3929 1.379 . S
H3931 C3925 0.959 . S
H3932 C3925 0.961 . S
H3933 C3925 0.960 . S
H3934 C3926 0.930 . S
H3935 C3927 0.929 . S
H3936 C3944 0.929 . S
H3937 C3946 0.930 . S
H3938 C3948 0.930 . S
H3939 C3951 0.929 . S
H3940 C3954 0.930 . S
H3941 C3956 0.960 . S
H3942 C3956 0.960 . S
H3943 C3956 0.960 . S
C3944 H3936 0.929 . S
C3944 C3945 1.377 . S
C3944 C3946 1.384 . S
C3945 C3944 1.377 . S
C3945 C3951 1.390 . S
C3946 H3937 0.930 . S
C3946 C3944 1.384 . S
C3946 C3947 1.372 . S
C3947 C3946 1.372 . S
C3947 C3948 1.400 . S
C3947 C3952 1.490 . S
C3948 H3938 0.930 . S
C3948 C3947 1.400 . S
C3948 C3951 1.386 . S
H3949 C3965 0.930 . S
H3950 C3966 0.931 . S
C3951 H3939 0.929 . S
C3951 C3945 1.390 . S
C3951 C3948 1.386 . S
C3952 C3947 1.490 . S
C3952 C3954 1.395 . S
C3952 C3955 1.403 . S
H3953 C3959 0.930 . S
C3954 H3940 0.930 . S
C3954 C3952 1.395 . S
C3954 C3957 1.403 . S
C3955 C3952 1.403 . S
C3955 C3956 1.524 . S
C3955 C3959 1.400 . S
C3956 H3941 0.960 . S
C3956 H3942 0.960 . S
C3956 H3943 0.960 . S
C3956 C3955 1.524 . S
C3957 C3954 1.403 . S
C3957 C3958 1.392 . S
C3957 C3961 1.495 . S
C3958 C3957 1.392 . S
C3958 C3959 1.385 . S
C3958 C3960 1.478 . S
C3959 H3953 0.930 . S
C3959 C3955 1.400 . S
C3959 C3958 1.385 . S
C3960 C3958 1.478 . S
C3960 C3962 1.381 . S
C3960 C3966 1.383 . S
C3961 C3957 1.495 . S
C3961 H3967 0.959 . S
C3961 H3968 0.961 . S
C3961 H3969 0.960 . S
C3962 C3960 1.381 . S
C3962 C3963 1.394 . S
C3962 H3970 0.930 . S
C3963 C3962 1.394 . S
C3963 C3964 1.383 . S
C3963 H3971 0.929 . S
C3964 C3963 1.383 . S
C3964 C3965 1.377 . S
C3965 H3949 0.930 . S
C3965 C3964 1.377 . S
C3965 C3966 1.379 . S
C3966 H3950 0.931 . S
C3966 C3960 1.383 . S
C3966 C3965 1.379 . S
H3967 C3961 0.959 . S
H3968 C3961 0.961 . S
H3969 C3961 0.960 . S
H3970 C3962 0.930 . S
H3971 C3963 0.929 . S
H3972 C3980 0.929 . S
H3973 C3982 0.930 . S
H3974 C3984 0.930 . S
H3975 C3987 0.929 . S
H3976 C3990 0.930 . S
H3977 C3992 0.960 . S
H3978 C3992 0.960 . S
H3979 C3992 0.960 . S
C3980 H3972 0.929 . S
C3980 C3981 1.377 . S
C3980 C3982 1.384 . S
C3981 C3980 1.377 . S
C3981 C3987 1.390 . S
C3982 H3973 0.930 . S
C3982 C3980 1.384 . S
C3982 C3983 1.372 . S
C3983 C3982 1.372 . S
C3983 C3984 1.400 . S
C3983 C3988 1.490 . S
C3984 H3974 0.930 . S
C3984 C3983 1.400 . S
C3984 C3987 1.386 . S
H3985 C4001 0.930 . S
H3986 C4002 0.931 . S
C3987 H3975 0.929 . S
C3987 C3981 1.390 . S
C3987 C3984 1.386 . S
C3988 C3983 1.490 . S
C3988 C3990 1.395 . S
C3988 C3991 1.403 . S
H3989 C3995 0.930 . S
C3990 H3976 0.930 . S
C3990 C3988 1.395 . S
C3990 C3993 1.403 . S
C3991 C3988 1.403 . S
C3991 C3992 1.524 . S
C3991 C3995 1.400 . S
C3992 H3977 0.960 . S
C3992 H3978 0.960 . S
C3992 H3979 0.960 . S
C3992 C3991 1.524 . S
C3993 C3990 1.403 . S
C3993 C3994 1.392 . S
C3993 C3997 1.495 . S
C3994 C3993 1.392 . S
C3994 C3995 1.385 . S
C3994 C3996 1.478 . S
C3995 H3989 0.930 . S
C3995 C3991 1.400 . S
C3995 C3994 1.385 . S
C3996 C3994 1.478 . S
C3996 C3998 1.381 . S
C3996 C4002 1.383 . S
C3997 C3993 1.495 . S
C3997 H4003 0.959 . S
C3997 H4004 0.961 . S
C3997 H4005 0.960 . S
C3998 C3996 1.381 . S
C3998 C3999 1.394 . S
C3998 H4006 0.930 . S
C3999 C3998 1.394 . S
C3999 C4000 1.383 . S
C3999 H4007 0.929 . S
C4000 C3999 1.383 . S
C4000 C4001 1.377 . S
C4001 H3985 0.930 . S
C4001 C4000 1.377 . S
C4001 C4002 1.379 . S
C4002 H3986 0.931 . S
C4002 C3996 1.383 . S
C4002 C4001 1.379 . S
H4003 C3997 0.959 . S
H4004 C3997 0.961 . S
H4005 C3997 0.960 . S
H4006 C3998 0.930 . S
H4007 C3999 0.929 . S
H4008 C4016 0.929 . S
H4009 C4018 0.930 . S
H4010 C4020 0.930 . S
H4011 C4023 0.929 . S
H4012 C4026 0.930 . S
H4013 C4028 0.960 . S
H4014 C4028 0.960 . S
H4015 C4028 0.960 . S
C4016 H4008 0.929 . S
C4016 C4017 1.377 . S
C4016 C4018 1.384 . S
C4017 C4016 1.377 . S
C4017 C4023 1.390 . S
C4018 H4009 0.930 . S
C4018 C4016 1.384 . S
C4018 C4019 1.372 . S
C4019 C4018 1.372 . S
C4019 C4020 1.400 . S
C4019 C4024 1.490 . S
C4020 H4010 0.930 . S
C4020 C4019 1.400 . S
C4020 C4023 1.386 . S
H4021 C4037 0.930 . S
H4022 C4038 0.931 . S
C4023 H4011 0.929 . S
C4023 C4017 1.390 . S
C4023 C4020 1.386 . S
C4024 C4019 1.490 . S
C4024 C4026 1.395 . S
C4024 C4027 1.403 . S
H4025 C4031 0.930 . S
C4026 H4012 0.930 . S
C4026 C4024 1.395 . S
C4026 C4029 1.403 . S
C4027 C4024 1.403 . S
C4027 C4028 1.524 . S
C4027 C4031 1.400 . S
C4028 H4013 0.960 . S
C4028 H4014 0.960 . S
C4028 H4015 0.960 . S
C4028 C4027 1.524 . S
C4029 C4026 1.403 . S
C4029 C4030 1.392 . S
C4029 C4033 1.495 . S
C4030 C4029 1.392 . S
C4030 C4031 1.385 . S
C4030 C4032 1.478 . S
C4031 H4025 0.930 . S
C4031 C4027 1.400 . S
C4031 C4030 1.385 . S
C4032 C4030 1.478 . S
C4032 C4034 1.381 . S
C4032 C4038 1.383 . S
C4033 C4029 1.495 . S
C4033 H4039 0.959 . S
C4033 H4040 0.961 . S
C4033 H4041 0.960 . S
C4034 C4032 1.381 . S
C4034 C4035 1.394 . S
C4034 H4042 0.930 . S
C4035 C4034 1.394 . S
C4035 C4036 1.383 . S
C4035 H4043 0.929 . S
C4036 C4035 1.383 . S
C4036 C4037 1.377 . S
C4037 H4021 0.930 . S
C4037 C4036 1.377 . S
C4037 C4038 1.379 . S
C4038 H4022 0.931 . S
C4038 C4032 1.383 . S
C4038 C4037 1.379 . S
H4039 C4033 0.959 . S
H4040 C4033 0.961 . S
H4041 C4033 0.960 . S
H4042 C4034 0.930 . S
H4043 C4035 0.929 . S
H4044 C4052 0.929 . S
H4045 C4054 0.930 . S
H4046 C4056 0.930 . S
H4047 C4059 0.929 . S
H4048 C4062 0.930 . S
H4049 C4064 0.960 . S
H4050 C4064 0.960 . S
H4051 C4064 0.960 . S
C4052 H4044 0.929 . S
C4052 C4053 1.377 . S
C4052 C4054 1.384 . S
C4053 C4052 1.377 . S
C4053 C4059 1.390 . S
C4054 H4045 0.930 . S
C4054 C4052 1.384 . S
C4054 C4055 1.372 . S
C4055 C4054 1.372 . S
C4055 C4056 1.400 . S
C4055 C4060 1.490 . S
C4056 H4046 0.930 . S
C4056 C4055 1.400 . S
C4056 C4059 1.386 . S
H4057 C4073 0.930 . S
H4058 C4074 0.931 . S
C4059 H4047 0.929 . S
C4059 C4053 1.390 . S
C4059 C4056 1.386 . S
C4060 C4055 1.490 . S
C4060 C4062 1.395 . S
C4060 C4063 1.403 . S
H4061 C4067 0.930 . S
C4062 H4048 0.930 . S
C4062 C4060 1.395 . S
C4062 C4065 1.403 . S
C4063 C4060 1.403 . S
C4063 C4064 1.524 . S
C4063 C4067 1.400 . S
C4064 H4049 0.960 . S
C4064 H4050 0.960 . S
C4064 H4051 0.960 . S
C4064 C4063 1.524 . S
C4065 C4062 1.403 . S
C4065 C4066 1.392 . S
C4065 C4069 1.495 . S
C4066 C4065 1.392 . S
C4066 C4067 1.385 . S
C4066 C4068 1.478 . S
C4067 H4061 0.930 . S
C4067 C4063 1.400 . S
C4067 C4066 1.385 . S
C4068 C4066 1.478 . S
C4068 C4070 1.381 . S
C4068 C4074 1.383 . S
C4069 C4065 1.495 . S
C4069 H4075 0.959 . S
C4069 H4076 0.961 . S
C4069 H4077 0.960 . S
C4070 C4068 1.381 . S
C4070 C4071 1.394 . S
C4070 H4078 0.930 . S
C4071 C4070 1.394 . S
C4071 C4072 1.383 . S
C4071 H4079 0.929 . S
C4072 C4071 1.383 . S
C4072 C4073 1.377 . S
C4073 H4057 0.930 . S
C4073 C4072 1.377 . S
C4073 C4074 1.379 . S
C4074 H4058 0.931 . S
C4074 C4068 1.383 . S
C4074 C4073 1.379 . S
H4075 C4069 0.959 . S
H4076 C4069 0.961 . S
H4077 C4069 0.960 . S
H4078 C4070 0.930 . S
H4079 C4071 0.929 . S
H4080 C4088 0.929 . S
H4081 C4090 0.930 . S
H4082 C4092 0.930 . S
H4083 C4095 0.929 . S
H4084 C4098 0.930 . S
H4085 C4100 0.960 . S
H4086 C4100 0.960 . S
H4087 C4100 0.960 . S
C4088 H4080 0.929 . S
C4088 C4089 1.377 . S
C4088 C4090 1.384 . S
C4089 C4088 1.377 . S
C4089 C4095 1.390 . S
C4090 H4081 0.930 . S
C4090 C4088 1.384 . S
C4090 C4091 1.372 . S
C4091 C4090 1.372 . S
C4091 C4092 1.400 . S
C4091 C4096 1.490 . S
C4092 H4082 0.930 . S
C4092 C4091 1.400 . S
C4092 C4095 1.386 . S
H4093 C4109 0.930 . S
H4094 C4110 0.931 . S
C4095 H4083 0.929 . S
C4095 C4089 1.390 . S
C4095 C4092 1.386 . S
C4096 C4091 1.490 . S
C4096 C4098 1.395 . S
C4096 C4099 1.403 . S
H4097 C4103 0.930 . S
C4098 H4084 0.930 . S
C4098 C4096 1.395 . S
C4098 C4101 1.403 . S
C4099 C4096 1.403 . S
C4099 C4100 1.524 . S
C4099 C4103 1.400 . S
C4100 H4085 0.960 . S
C4100 H4086 0.960 . S
C4100 H4087 0.960 . S
C4100 C4099 1.524 . S
C4101 C4098 1.403 . S
C4101 C4102 1.392 . S
C4101 C4105 1.495 . S
C4102 C4101 1.392 . S
C4102 C4103 1.385 . S
C4102 C4104 1.478 . S
C4103 H4097 0.930 . S
C4103 C4099 1.400 . S
C4103 C4102 1.385 . S
C4104 C4102 1.478 . S
C4104 C4106 1.381 . S
C4104 C4110 1.383 . S
C4105 C4101 1.495 . S
C4105 H4111 0.959 . S
C4105 H4112 0.961 . S
C4105 H4113 0.960 . S
C4106 C4104 1.381 . S
C4106 C4107 1.394 . S
C4106 H4114 0.930 . S
C4107 C4106 1.394 . S
C4107 C4108 1.383 . S
C4107 H4115 0.929 . S
C4108 C4107 1.383 . S
C4108 C4109 1.377 . S
C4109 H4093 0.930 . S
C4109 C4108 1.377 . S
C4109 C4110 1.379 . S
C4110 H4094 0.931 . S
C4110 C4104 1.383 . S
C4110 C4109 1.379 . S
H4111 C4105 0.959 . S
H4112 C4105 0.961 . S
H4113 C4105 0.960 . S
H4114 C4106 0.930 . S
H4115 C4107 0.929 . S
H4116 C4124 0.929 . S
H4117 C4126 0.930 . S
H4118 C4128 0.930 . S
H4119 C4131 0.929 . S
H4120 C4134 0.930 . S
H4121 C4136 0.960 . S
H4122 C4136 0.960 . S
H4123 C4136 0.960 . S
C4124 H4116 0.929 . S
C4124 C4125 1.377 . S
C4124 C4126 1.384 . S
C4125 C4124 1.377 . S
C4125 C4131 1.390 . S
C4126 H4117 0.930 . S
C4126 C4124 1.384 . S
C4126 C4127 1.372 . S
C4127 C4126 1.372 . S
C4127 C4128 1.400 . S
C4127 C4132 1.490 . S
C4128 H4118 0.930 . S
C4128 C4127 1.400 . S
C4128 C4131 1.386 . S
H4129 C4145 0.930 . S
H4130 C4146 0.931 . S
C4131 H4119 0.929 . S
C4131 C4125 1.390 . S
C4131 C4128 1.386 . S
C4132 C4127 1.490 . S
C4132 C4134 1.395 . S
C4132 C4135 1.403 . S
H4133 C4139 0.930 . S
C4134 H4120 0.930 . S
C4134 C4132 1.395 . S
C4134 C4137 1.403 . S
C4135 C4132 1.403 . S
C4135 C4136 1.524 . S
C4135 C4139 1.400 . S
C4136 H4121 0.960 . S
C4136 H4122 0.960 . S
C4136 H4123 0.960 . S
C4136 C4135 1.524 . S
C4137 C4134 1.403 . S
C4137 C4138 1.392 . S
C4137 C4141 1.495 . S
C4138 C4137 1.392 . S
C4138 C4139 1.385 . S
C4138 C4140 1.478 . S
C4139 H4133 0.930 . S
C4139 C4135 1.400 . S
C4139 C4138 1.385 . S
C4140 C4138 1.478 . S
C4140 C4142 1.381 . S
C4140 C4146 1.383 . S
C4141 C4137 1.495 . S
C4141 H4147 0.959 . S
C4141 H4148 0.961 . S
C4141 H4149 0.960 . S
C4142 C4140 1.381 . S
C4142 C4143 1.394 . S
C4142 H4150 0.930 . S
C4143 C4142 1.394 . S
C4143 C4144 1.383 . S
C4143 H4151 0.929 . S
C4144 C4143 1.383 . S
C4144 C4145 1.377 . S
C4145 H4129 0.930 . S
C4145 C4144 1.377 . S
C4145 C4146 1.379 . S
C4146 H4130 0.931 . S
C4146 C4140 1.383 . S
C4146 C4145 1.379 . S
H4147 C4141 0.959 . S
H4148 C4141 0.961 . S
H4149 C4141 0.960 . S
H4150 C4142 0.930 . S
H4151 C4143 0.929 . S
H4152 C4160 0.929 . S
H4153 C4162 0.930 . S
H4154 C4164 0.930 . S
H4155 C4167 0.929 . S
H4156 C4170 0.930 . S
H4157 C4172 0.960 . S
H4158 C4172 0.960 . S
H4159 C4172 0.960 . S
C4160 H4152 0.929 . S
C4160 C4161 1.377 . S
C4160 C4162 1.384 . S
C4161 C4160 1.377 . S
C4161 C4167 1.390 . S
C4162 H4153 0.930 . S
C4162 C4160 1.384 . S
C4162 C4163 1.372 . S
C4163 C4162 1.372 . S
C4163 C4164 1.400 . S
C4163 C4168 1.490 . S
C4164 H4154 0.930 . S
C4164 C4163 1.400 . S
C4164 C4167 1.386 . S
H4165 C4181 0.930 . S
H4166 C4182 0.931 . S
C4167 H4155 0.929 . S
C4167 C4161 1.390 . S
C4167 C4164 1.386 . S
C4168 C4163 1.490 . S
C4168 C4170 1.395 . S
C4168 C4171 1.403 . S
H4169 C4175 0.930 . S
C4170 H4156 0.930 . S
C4170 C4168 1.395 . S
C4170 C4173 1.403 . S
C4171 C4168 1.403 . S
C4171 C4172 1.524 . S
C4171 C4175 1.400 . S
C4172 H4157 0.960 . S
C4172 H4158 0.960 . S
C4172 H4159 0.960 . S
C4172 C4171 1.524 . S
C4173 C4170 1.403 . S
C4173 C4174 1.392 . S
C4173 C4177 1.495 . S
C4174 C4173 1.392 . S
C4174 C4175 1.385 . S
C4174 C4176 1.478 . S
C4175 H4169 0.930 . S
C4175 C4171 1.400 . S
C4175 C4174 1.385 . S
C4176 C4174 1.478 . S
C4176 C4178 1.381 . S
C4176 C4182 1.383 . S
C4177 C4173 1.495 . S
C4177 H4183 0.959 . S
C4177 H4184 0.961 . S
C4177 H4185 0.960 . S
C4178 C4176 1.381 . S
C4178 C4179 1.394 . S
C4178 H4186 0.930 . S
C4179 C4178 1.394 . S
C4179 C4180 1.383 . S
C4179 H4187 0.929 . S
C4180 C4179 1.383 . S
C4180 C4181 1.377 . S
C4181 H4165 0.930 . S
C4181 C4180 1.377 . S
C4181 C4182 1.379 . S
C4182 H4166 0.931 . S
C4182 C4176 1.383 . S
C4182 C4181 1.379 . S
H4183 C4177 0.959 . S
H4184 C4177 0.961 . S
H4185 C4177 0.960 . S
H4186 C4178 0.930 . S
H4187 C4179 0.929 . S
H4188 C4196 0.929 . S
H4189 C4198 0.930 . S
H4190 C4200 0.930 . S
H4191 C4203 0.929 . S
H4192 C4206 0.930 . S
H4193 C4208 0.960 . S
H4194 C4208 0.960 . S
H4195 C4208 0.960 . S
C4196 H4188 0.929 . S
C4196 C4197 1.377 . S
C4196 C4198 1.384 . S
C4197 C4196 1.377 . S
C4197 C4203 1.390 . S
C4198 H4189 0.930 . S
C4198 C4196 1.384 . S
C4198 C4199 1.372 . S
C4199 C4198 1.372 . S
C4199 C4200 1.400 . S
C4199 C4204 1.490 . S
C4200 H4190 0.930 . S
C4200 C4199 1.400 . S
C4200 C4203 1.386 . S
H4201 C4217 0.930 . S
H4202 C4218 0.931 . S
C4203 H4191 0.929 . S
C4203 C4197 1.390 . S
C4203 C4200 1.386 . S
C4204 C4199 1.490 . S
C4204 C4206 1.395 . S
C4204 C4207 1.403 . S
H4205 C4211 0.930 . S
C4206 H4192 0.930 . S
C4206 C4204 1.395 . S
C4206 C4209 1.403 . S
C4207 C4204 1.403 . S
C4207 C4208 1.524 . S
C4207 C4211 1.400 . S
C4208 H4193 0.960 . S
C4208 H4194 0.960 . S
C4208 H4195 0.960 . S
C4208 C4207 1.524 . S
C4209 C4206 1.403 . S
C4209 C4210 1.392 . S
C4209 C4213 1.495 . S
C4210 C4209 1.392 . S
C4210 C4211 1.385 . S
C4210 C4212 1.478 . S
C4211 H4205 0.930 . S
C4211 C4207 1.400 . S
C4211 C4210 1.385 . S
C4212 C4210 1.478 . S
C4212 C4214 1.381 . S
C4212 C4218 1.383 . S
C4213 C4209 1.495 . S
C4213 H4219 0.959 . S
C4213 H4220 0.961 . S
C4213 H4221 0.960 . S
C4214 C4212 1.381 . S
C4214 C4215 1.394 . S
C4214 H4222 0.930 . S
C4215 C4214 1.394 . S
C4215 C4216 1.383 . S
C4215 H4223 0.929 . S
C4216 C4215 1.383 . S
C4216 C4217 1.377 . S
C4217 H4201 0.930 . S
C4217 C4216 1.377 . S
C4217 C4218 1.379 . S
C4218 H4202 0.931 . S
C4218 C4212 1.383 . S
C4218 C4217 1.379 . S
H4219 C4213 0.959 . S
H4220 C4213 0.961 . S
H4221 C4213 0.960 . S
H4222 C4214 0.930 . S
H4223 C4215 0.929 . S
H4224 C4232 0.929 . S
H4225 C4234 0.930 . S
H4226 C4236 0.930 . S
H4227 C4239 0.929 . S
H4228 C4242 0.930 . S
H4229 C4244 0.960 . S
H4230 C4244 0.960 . S
H4231 C4244 0.960 . S
C4232 H4224 0.929 . S
C4232 C4233 1.377 . S
C4232 C4234 1.384 . S
C4233 C4232 1.377 . S
C4233 C4239 1.390 . S
C4234 H4225 0.930 . S
C4234 C4232 1.384 . S
C4234 C4235 1.372 . S
C4235 C4234 1.372 . S
C4235 C4236 1.400 . S
C4235 C4240 1.490 . S
C4236 H4226 0.930 . S
C4236 C4235 1.400 . S
C4236 C4239 1.386 . S
H4237 C4253 0.930 . S
H4238 C4254 0.931 . S
C4239 H4227 0.929 . S
C4239 C4233 1.390 . S
C4239 C4236 1.386 . S
C4240 C4235 1.490 . S
C4240 C4242 1.395 . S
C4240 C4243 1.403 . S
H4241 C4247 0.930 . S
C4242 H4228 0.930 . S
C4242 C4240 1.395 . S
C4242 C4245 1.403 . S
C4243 C4240 1.403 . S
C4243 C4244 1.524 . S
C4243 C4247 1.400 . S
C4244 H4229 0.960 . S
C4244 H4230 0.960 . S
C4244 H4231 0.960 . S
C4244 C4243 1.524 . S
C4245 C4242 1.403 . S
C4245 C4246 1.392 . S
C4245 C4249 1.495 . S
C4246 C4245 1.392 . S
C4246 C4247 1.385 . S
C4246 C4248 1.478 . S
C4247 H4241 0.930 . S
C4247 C4243 1.400 . S
C4247 C4246 1.385 . S
C4248 C4246 1.478 . S
C4248 C4250 1.381 . S
C4248 C4254 1.383 . S
C4249 C4245 1.495 . S
C4249 H4255 0.959 . S
C4249 H4256 0.961 . S
C4249 H4257 0.960 . S
C4250 C4248 1.381 . S
C4250 C4251 1.394 . S
C4250 H4258 0.930 . S
C4251 C4250 1.394 . S
C4251 C4252 1.383 . S
C4251 H4259 0.929 . S
C4252 C4251 1.383 . S
C4252 C4253 1.377 . S
C4253 H4237 0.930 . S
C4253 C4252 1.377 . S
C4253 C4254 1.379 . S
C4254 H4238 0.931 . S
C4254 C4248 1.383 . S
C4254 C4253 1.379 . S
H4255 C4249 0.959 . S
H4256 C4249 0.961 . S
H4257 C4249 0.960 . S
H4258 C4250 0.930 . S
H4259 C4251 0.929 . S
H4260 C4268 0.929 . S
H4261 C4270 0.930 . S
H4262 C4272 0.930 . S
H4263 C4275 0.929 . S
H4264 C4278 0.930 . S
H4265 C4280 0.960 . S
H4266 C4280 0.960 . S
H4267 C4280 0.960 . S
C4268 H4260 0.929 . S
C4268 C4269 1.377 . S
C4268 C4270 1.384 . S
C4269 C4268 1.377 . S
C4269 C4275 1.390 . S
C4270 H4261 0.930 . S
C4270 C4268 1.384 . S
C4270 C4271 1.372 . S
C4271 C4270 1.372 . S
C4271 C4272 1.400 . S
C4271 C4276 1.490 . S
C4272 H4262 0.930 . S
C4272 C4271 1.400 . S
C4272 C4275 1.386 . S
H4273 C4289 0.930 . S
H4274 C4290 0.931 . S
C4275 H4263 0.929 . S
C4275 C4269 1.390 . S
C4275 C4272 1.386 . S
C4276 C4271 1.490 . S
C4276 C4278 1.395 . S
C4276 C4279 1.403 . S
H4277 C4283 0.930 . S
C4278 H4264 0.930 . S
C4278 C4276 1.395 . S
C4278 C4281 1.403 . S
C4279 C4276 1.403 . S
C4279 C4280 1.524 . S
C4279 C4283 1.400 . S
C4280 H4265 0.960 . S
C4280 H4266 0.960 . S
C4280 H4267 0.960 . S
C4280 C4279 1.524 . S
C4281 C4278 1.403 . S
C4281 C4282 1.392 . S
C4281 C4285 1.495 . S
C4282 C4281 1.392 . S
C4282 C4283 1.385 . S
C4282 C4284 1.478 . S
C4283 H4277 0.930 . S
C4283 C4279 1.400 . S
C4283 C4282 1.385 . S
C4284 C4282 1.478 . S
C4284 C4286 1.381 . S
C4284 C4290 1.383 . S
C4285 C4281 1.495 . S
C4285 H4291 0.959 . S
C4285 H4292 0.961 . S
C4285 H4293 0.960 . S
C4286 C4284 1.381 . S
C4286 C4287 1.394 . S
C4286 H4294 0.930 . S
C4287 C4286 1.394 . S
C4287 C4288 1.383 . S
C4287 H4295 0.929 . S
C4288 C4287 1.383 . S
C4288 C4289 1.377 . S
C4289 H4273 0.930 . S
C4289 C4288 1.377 . S
C4289 C4290 1.379 . S
C4290 H4274 0.931 . S
C4290 C4284 1.383 . S
C4290 C4289 1.379 . S
H4291 C4285 0.959 . S
H4292 C4285 0.961 . S
H4293 C4285 0.960 . S
H4294 C4286 0.930 . S
H4295 C4287 0.929 . S
H4296 C4304 0.929 . S
H4297 C4306 0.930 . S
H4298 C4308 0.930 . S
H4299 C4311 0.929 . S
H4300 C4314 0.930 . S
H4301 C4316 0.960 . S
H4302 C4316 0.960 . S
H4303 C4316 0.960 . S
C4304 H4296 0.929 . S
C4304 C4305 1.377 . S
C4304 C4306 1.384 . S
C4305 C4304 1.377 . S
C4305 C4311 1.390 . S
C4306 H4297 0.930 . S
C4306 C4304 1.384 . S
C4306 C4307 1.372 . S
C4307 C4306 1.372 . S
C4307 C4308 1.400 . S
C4307 C4312 1.490 . S
C4308 H4298 0.930 . S
C4308 C4307 1.400 . S
C4308 C4311 1.386 . S
H4309 C4325 0.930 . S
H4310 C4326 0.931 . S
C4311 H4299 0.929 . S
C4311 C4305 1.390 . S
C4311 C4308 1.386 . S
C4312 C4307 1.490 . S
C4312 C4314 1.395 . S
C4312 C4315 1.403 . S
H4313 C4319 0.930 . S
C4314 H4300 0.930 . S
C4314 C4312 1.395 . S
C4314 C4317 1.403 . S
C4315 C4312 1.403 . S
C4315 C4316 1.524 . S
C4315 C4319 1.400 . S
C4316 H4301 0.960 . S
C4316 H4302 0.960 . S
C4316 H4303 0.960 . S
C4316 C4315 1.524 . S
C4317 C4314 1.403 . S
C4317 C4318 1.392 . S
C4317 C4321 1.495 . S
C4318 C4317 1.392 . S
C4318 C4319 1.385 . S
C4318 C4320 1.478 . S
C4319 H4313 0.930 . S
C4319 C4315 1.400 . S
C4319 C4318 1.385 . S
C4320 C4318 1.478 . S
C4320 C4322 1.381 . S
C4320 C4326 1.383 . S
C4321 C4317 1.495 . S
C4321 H4327 0.959 . S
C4321 H4328 0.961 . S
C4321 H4329 0.960 . S
C4322 C4320 1.381 . S
C4322 C4323 1.394 . S
C4322 H4330 0.930 . S
C4323 C4322 1.394 . S
C4323 C4324 1.383 . S
C4323 H4331 0.929 . S
C4324 C4323 1.383 . S
C4324 C4325 1.377 . S
C4325 H4309 0.930 . S
C4325 C4324 1.377 . S
C4325 C4326 1.379 . S
C4326 H4310 0.931 . S
C4326 C4320 1.383 . S
C4326 C4325 1.379 . S
H4327 C4321 0.959 . S
H4328 C4321 0.961 . S
H4329 C4321 0.960 . S
H4330 C4322 0.930 . S
H4331 C4323 0.929 . S
H4332 C4340 0.929 . S
H4333 C4342 0.930 . S
H4334 C4344 0.930 . S
H4335 C4347 0.929 . S
H4336 C4350 0.930 . S
H4337 C4352 0.960 . S
H4338 C4352 0.960 . S
H4339 C4352 0.960 . S
C4340 H4332 0.929 . S
C4340 C4341 1.377 . S
C4340 C4342 1.384 . S
C4341 C4340 1.377 . S
C4341 C4347 1.390 . S
C4342 H4333 0.930 . S
C4342 C4340 1.384 . S
C4342 C4343 1.372 . S
C4343 C4342 1.372 . S
C4343 C4344 1.400 . S
C4343 C4348 1.490 . S
C4344 H4334 0.930 . S
C4344 C4343 1.400 . S
C4344 C4347 1.386 . S
H4345 C4361 0.930 . S
H4346 C4362 0.931 . S
C4347 H4335 0.929 . S
C4347 C4341 1.390 . S
C4347 C4344 1.386 . S
C4348 C4343 1.490 . S
C4348 C4350 1.395 . S
C4348 C4351 1.403 . S
H4349 C4355 0.930 . S
C4350 H4336 0.930 . S
C4350 C4348 1.395 . S
C4350 C4353 1.403 . S
C4351 C4348 1.403 . S
C4351 C4352 1.524 . S
C4351 C4355 1.400 . S
C4352 H4337 0.960 . S
C4352 H4338 0.960 . S
C4352 H4339 0.960 . S
C4352 C4351 1.524 . S
C4353 C4350 1.403 . S
C4353 C4354 1.392 . S
C4353 C4357 1.495 . S
C4354 C4353 1.392 . S
C4354 C4355 1.385 . S
C4354 C4356 1.478 . S
C4355 H4349 0.930 . S
C4355 C4351 1.400 . S
C4355 C4354 1.385 . S
C4356 C4354 1.478 . S
C4356 C4358 1.381 . S
C4356 C4362 1.383 . S
C4357 C4353 1.495 . S
C4357 H4363 0.959 . S
C4357 H4364 0.961 . S
C4357 H4365 0.960 . S
C4358 C4356 1.381 . S
C4358 C4359 1.394 . S
C4358 H4366 0.930 . S
C4359 C4358 1.394 . S
C4359 C4360 1.383 . S
C4359 H4367 0.929 . S
C4360 C4359 1.383 . S
C4360 C4361 1.377 . S
C4361 H4345 0.930 . S
C4361 C4360 1.377 . S
C4361 C4362 1.379 . S
C4362 H4346 0.931 . S
C4362 C4356 1.383 . S
C4362 C4361 1.379 . S
H4363 C4357 0.959 . S
H4364 C4357 0.961 . S
H4365 C4357 0.960 . S
H4366 C4358 0.930 . S
H4367 C4359 0.929 . S
H4368 C4376 0.929 . S
H4369 C4378 0.930 . S
H4370 C4380 0.930 . S
H4371 C4383 0.929 . S
H4372 C4386 0.930 . S
H4373 C4388 0.960 . S
H4374 C4388 0.960 . S
H4375 C4388 0.960 . S
C4376 H4368 0.929 . S
C4376 C4377 1.377 . S
C4376 C4378 1.384 . S
C4377 C4376 1.377 . S
C4377 C4383 1.390 . S
C4378 H4369 0.930 . S
C4378 C4376 1.384 . S
C4378 C4379 1.372 . S
C4379 C4378 1.372 . S
C4379 C4380 1.400 . S
C4379 C4384 1.490 . S
C4380 H4370 0.930 . S
C4380 C4379 1.400 . S
C4380 C4383 1.386 . S
H4381 C4397 0.930 . S
H4382 C4398 0.931 . S
C4383 H4371 0.929 . S
C4383 C4377 1.390 . S
C4383 C4380 1.386 . S
C4384 C4379 1.490 . S
C4384 C4386 1.395 . S
C4384 C4387 1.403 . S
H4385 C4391 0.930 . S
C4386 H4372 0.930 . S
C4386 C4384 1.395 . S
C4386 C4389 1.403 . S
C4387 C4384 1.403 . S
C4387 C4388 1.524 . S
C4387 C4391 1.400 . S
C4388 H4373 0.960 . S
C4388 H4374 0.960 . S
C4388 H4375 0.960 . S
C4388 C4387 1.524 . S
C4389 C4386 1.403 . S
C4389 C4390 1.392 . S
C4389 C4393 1.495 . S
C4390 C4389 1.392 . S
C4390 C4391 1.385 . S
C4390 C4392 1.478 . S
C4391 H4385 0.930 . S
C4391 C4387 1.400 . S
C4391 C4390 1.385 . S
C4392 C4390 1.478 . S
C4392 C4394 1.381 . S
C4392 C4398 1.383 . S
C4393 C4389 1.495 . S
C4393 H4399 0.959 . S
C4393 H4400 0.961 . S
C4393 H4401 0.960 . S
C4394 C4392 1.381 . S
C4394 C4395 1.394 . S
C4394 H4402 0.930 . S
C4395 C4394 1.394 . S
C4395 C4396 1.383 . S
C4395 H4403 0.929 . S
C4396 C4395 1.383 . S
C4396 C4397 1.377 . S
C4397 H4381 0.930 . S
C4397 C4396 1.377 . S
C4397 C4398 1.379 . S
C4398 H4382 0.931 . S
C4398 C4392 1.383 . S
C4398 C4397 1.379 . S
H4399 C4393 0.959 . S
H4400 C4393 0.961 . S
H4401 C4393 0.960 . S
H4402 C4394 0.930 . S
H4403 C4395 0.929 . S
H4404 C4412 0.929 . S
H4405 C4414 0.930 . S
H4406 C4416 0.930 . S
H4407 C4419 0.929 . S
H4408 C4422 0.930 . S
H4409 C4424 0.960 . S
H4410 C4424 0.960 . S
H4411 C4424 0.960 . S
C4412 H4404 0.929 . S
C4412 C4413 1.377 . S
C4412 C4414 1.384 . S
C4413 C4412 1.377 . S
C4413 C4419 1.390 . S
C4414 H4405 0.930 . S
C4414 C4412 1.384 . S
C4414 C4415 1.372 . S
C4415 C4414 1.372 . S
C4415 C4416 1.400 . S
C4415 C4420 1.490 . S
C4416 H4406 0.930 . S
C4416 C4415 1.400 . S
C4416 C4419 1.386 . S
H4417 C4433 0.930 . S
H4418 C4434 0.931 . S
C4419 H4407 0.929 . S
C4419 C4413 1.390 . S
C4419 C4416 1.386 . S
C4420 C4415 1.490 . S
C4420 C4422 1.395 . S
C4420 C4423 1.403 . S
H4421 C4427 0.930 . S
C4422 H4408 0.930 . S
C4422 C4420 1.395 . S
C4422 C4425 1.403 . S
C4423 C4420 1.403 . S
C4423 C4424 1.524 . S
C4423 C4427 1.400 . S
C4424 H4409 0.960 . S
C4424 H4410 0.960 . S
C4424 H4411 0.960 . S
C4424 C4423 1.524 . S
C4425 C4422 1.403 . S
C4425 C4426 1.392 . S
C4425 C4429 1.495 . S
C4426 C4425 1.392 . S
C4426 C4427 1.385 . S
C4426 C4428 1.478 . S
C4427 H4421 0.930 . S
C4427 C4423 1.400 . S
C4427 C4426 1.385 . S
C4428 C4426 1.478 . S
C4428 C4430 1.381 . S
C4428 C4434 1.383 . S
C4429 C4425 1.495 . S
C4429 H4435 0.959 . S
C4429 H4436 0.961 . S
C4429 H4437 0.960 . S
C4430 C4428 1.381 . S
C4430 C4431 1.394 . S
C4430 H4438 0.930 . S
C4431 C4430 1.394 . S
C4431 C4432 1.383 . S
C4431 H4439 0.929 . S
C4432 C4431 1.383 . S
C4432 C4433 1.377 . S
C4433 H4417 0.930 . S
C4433 C4432 1.377 . S
C4433 C4434 1.379 . S
C4434 H4418 0.931 . S
C4434 C4428 1.383 . S
C4434 C4433 1.379 . S
H4435 C4429 0.959 . S
H4436 C4429 0.961 . S
H4437 C4429 0.960 . S
H4438 C4430 0.930 . S
H4439 C4431 0.929 . S
H4440 C4448 0.929 . S
H4441 C4450 0.930 . S
H4442 C4452 0.930 . S
H4443 C4455 0.929 . S
H4444 C4458 0.930 . S
H4445 C4460 0.960 . S
H4446 C4460 0.960 . S
H4447 C4460 0.960 . S
C4448 H4440 0.929 . S
C4448 C4449 1.377 . S
C4448 C4450 1.384 . S
C4449 C4448 1.377 . S
C4449 C4455 1.390 . S
C4450 H4441 0.930 . S
C4450 C4448 1.384 . S
C4450 C4451 1.372 . S
C4451 C4450 1.372 . S
C4451 C4452 1.400 . S
C4451 C4456 1.490 . S
C4452 H4442 0.930 . S
C4452 C4451 1.400 . S
C4452 C4455 1.386 . S
H4453 C4469 0.930 . S
H4454 C4470 0.931 . S
C4455 H4443 0.929 . S
C4455 C4449 1.390 . S
C4455 C4452 1.386 . S
C4456 C4451 1.490 . S
C4456 C4458 1.395 . S
C4456 C4459 1.403 . S
H4457 C4463 0.930 . S
C4458 H4444 0.930 . S
C4458 C4456 1.395 . S
C4458 C4461 1.403 . S
C4459 C4456 1.403 . S
C4459 C4460 1.524 . S
C4459 C4463 1.400 . S
C4460 H4445 0.960 . S
C4460 H4446 0.960 . S
C4460 H4447 0.960 . S
C4460 C4459 1.524 . S
C4461 C4458 1.403 . S
C4461 C4462 1.392 . S
C4461 C4465 1.495 . S
C4462 C4461 1.392 . S
C4462 C4463 1.385 . S
C4462 C4464 1.478 . S
C4463 H4457 0.930 . S
C4463 C4459 1.400 . S
C4463 C4462 1.385 . S
C4464 C4462 1.478 . S
C4464 C4466 1.381 . S
C4464 C4470 1.383 . S
C4465 C4461 1.495 . S
C4465 H4471 0.959 . S
C4465 H4472 0.961 . S
C4465 H4473 0.960 . S
C4466 C4464 1.381 . S
C4466 C4467 1.394 . S
C4466 H4474 0.930 . S
C4467 C4466 1.394 . S
C4467 C4468 1.383 . S
C4467 H4475 0.929 . S
C4468 C4467 1.383 . S
C4468 C4469 1.377 . S
C4469 H4453 0.930 . S
C4469 C4468 1.377 . S
C4469 C4470 1.379 . S
C4470 H4454 0.931 . S
C4470 C4464 1.383 . S
C4470 C4469 1.379 . S
H4471 C4465 0.959 . S
H4472 C4465 0.961 . S
H4473 C4465 0.960 . S
H4474 C4466 0.930 . S
H4475 C4467 0.929 . S
H4476 C4484 0.929 . S
H4477 C4486 0.930 . S
H4478 C4488 0.930 . S
H4479 C4491 0.929 . S
H4480 C4494 0.930 . S
H4481 C4496 0.960 . S
H4482 C4496 0.960 . S
H4483 C4496 0.960 . S
C4484 H4476 0.929 . S
C4484 C4485 1.377 . S
C4484 C4486 1.384 . S
C4485 C4484 1.377 . S
C4485 C4491 1.390 . S
C4486 H4477 0.930 . S
C4486 C4484 1.384 . S
C4486 C4487 1.372 . S
C4487 C4486 1.372 . S
C4487 C4488 1.400 . S
C4487 C4492 1.490 . S
C4488 H4478 0.930 . S
C4488 C4487 1.400 . S
C4488 C4491 1.386 . S
H4489 C4505 0.930 . S
H4490 C4506 0.931 . S
C4491 H4479 0.929 . S
C4491 C4485 1.390 . S
C4491 C4488 1.386 . S
C4492 C4487 1.490 . S
C4492 C4494 1.395 . S
C4492 C4495 1.403 . S
H4493 C4499 0.930 . S
C4494 H4480 0.930 . S
C4494 C4492 1.395 . S
C4494 C4497 1.403 . S
C4495 C4492 1.403 . S
C4495 C4496 1.524 . S
C4495 C4499 1.400 . S
C4496 H4481 0.960 . S
C4496 H4482 0.960 . S
C4496 H4483 0.960 . S
C4496 C4495 1.524 . S
C4497 C4494 1.403 . S
C4497 C4498 1.392 . S
C4497 C4501 1.495 . S
C4498 C4497 1.392 . S
C4498 C4499 1.385 . S
C4498 C4500 1.478 . S
C4499 H4493 0.930 . S
C4499 C4495 1.400 . S
C4499 C4498 1.385 . S
C4500 C4498 1.478 . S
C4500 C4502 1.381 . S
C4500 C4506 1.383 . S
C4501 C4497 1.495 . S
C4501 H4507 0.959 . S
C4501 H4508 0.961 . S
C4501 H4509 0.960 . S
C4502 C4500 1.381 . S
C4502 C4503 1.394 . S
C4502 H4510 0.930 . S
C4503 C4502 1.394 . S
C4503 C4504 1.383 . S
C4503 H4511 0.929 . S
C4504 C4503 1.383 . S
C4504 C4505 1.377 . S
C4505 H4489 0.930 . S
C4505 C4504 1.377 . S
C4505 C4506 1.379 . S
C4506 H4490 0.931 . S
C4506 C4500 1.383 . S
C4506 C4505 1.379 . S
H4507 C4501 0.959 . S
H4508 C4501 0.961 . S
H4509 C4501 0.960 . S
H4510 C4502 0.930 . S
H4511 C4503 0.929 . S
H4512 C4520 0.929 . S
H4513 C4522 0.930 . S
H4514 C4524 0.930 . S
H4515 C4527 0.929 . S
H4516 C4530 0.930 . S
H4517 C4532 0.960 . S
H4518 C4532 0.960 . S
H4519 C4532 0.960 . S
C4520 H4512 0.929 . S
C4520 C4521 1.377 . S
C4520 C4522 1.384 . S
C4521 C4520 1.377 . S
C4521 C4527 1.390 . S
C4522 H4513 0.930 . S
C4522 C4520 1.384 . S
C4522 C4523 1.372 . S
C4523 C4522 1.372 . S
C4523 C4524 1.400 . S
C4523 C4528 1.490 . S
C4524 H4514 0.930 . S
C4524 C4523 1.400 . S
C4524 C4527 1.386 . S
H4525 C4541 0.930 . S
H4526 C4542 0.931 . S
C4527 H4515 0.929 . S
C4527 C4521 1.390 . S
C4527 C4524 1.386 . S
C4528 C4523 1.490 . S
C4528 C4530 1.395 . S
C4528 C4531 1.403 . S
H4529 C4535 0.930 . S
C4530 H4516 0.930 . S
C4530 C4528 1.395 . S
C4530 C4533 1.403 . S
C4531 C4528 1.403 . S
C4531 C4532 1.524 . S
C4531 C4535 1.400 . S
C4532 H4517 0.960 . S
C4532 H4518 0.960 . S
C4532 H4519 0.960 . S
C4532 C4531 1.524 . S
C4533 C4530 1.403 . S
C4533 C4534 1.392 . S
C4533 C4537 1.495 . S
C4534 C4533 1.392 . S
C4534 C4535 1.385 . S
C4534 C4536 1.478 . S
C4535 H4529 0.930 . S
C4535 C4531 1.400 . S
C4535 C4534 1.385 . S
C4536 C4534 1.478 . S
C4536 C4538 1.381 . S
C4536 C4542 1.383 . S
C4537 C4533 1.495 . S
C4537 H4543 0.959 . S
C4537 H4544 0.961 . S
C4537 H4545 0.960 . S
C4538 C4536 1.381 . S
C4538 C4539 1.394 . S
C4538 H4546 0.930 . S
C4539 C4538 1.394 . S
C4539 C4540 1.383 . S
C4539 H4547 0.929 . S
C4540 C4539 1.383 . S
C4540 C4541 1.377 . S
C4541 H4525 0.930 . S
C4541 C4540 1.377 . S
C4541 C4542 1.379 . S
C4542 H4526 0.931 . S
C4542 C4536 1.383 . S
C4542 C4541 1.379 . S
H4543 C4537 0.959 . S
H4544 C4537 0.961 . S
H4545 C4537 0.960 . S
H4546 C4538 0.930 . S
H4547 C4539 0.929 . S
H4548 C4556 0.929 . S
H4549 C4558 0.930 . S
H4550 C4560 0.930 . S
H4551 C4563 0.929 . S
H4552 C4566 0.930 . S
H4553 C4568 0.960 . S
H4554 C4568 0.960 . S
H4555 C4568 0.960 . S
C4556 H4548 0.929 . S
C4556 C4557 1.377 . S
C4556 C4558 1.384 . S
C4557 C4556 1.377 . S
C4557 C4563 1.390 . S
C4558 H4549 0.930 . S
C4558 C4556 1.384 . S
C4558 C4559 1.372 . S
C4559 C4558 1.372 . S
C4559 C4560 1.400 . S
C4559 C4564 1.490 . S
C4560 H4550 0.930 . S
C4560 C4559 1.400 . S
C4560 C4563 1.386 . S
H4561 C4577 0.930 . S
H4562 C4578 0.931 . S
C4563 H4551 0.929 . S
C4563 C4557 1.390 . S
C4563 C4560 1.386 . S
C4564 C4559 1.490 . S
C4564 C4566 1.395 . S
C4564 C4567 1.403 . S
H4565 C4571 0.930 . S
C4566 H4552 0.930 . S
C4566 C4564 1.395 . S
C4566 C4569 1.403 . S
C4567 C4564 1.403 . S
C4567 C4568 1.524 . S
C4567 C4571 1.400 . S
C4568 H4553 0.960 . S
C4568 H4554 0.960 . S
C4568 H4555 0.960 . S
C4568 C4567 1.524 . S
C4569 C4566 1.403 . S
C4569 C4570 1.392 . S
C4569 C4573 1.495 . S
C4570 C4569 1.392 . S
C4570 C4571 1.385 . S
C4570 C4572 1.478 . S
C4571 H4565 0.930 . S
C4571 C4567 1.400 . S
C4571 C4570 1.385 . S
C4572 C4570 1.478 . S
C4572 C4574 1.381 . S
C4572 C4578 1.383 . S
C4573 C4569 1.495 . S
C4573 H4579 0.959 . S
C4573 H4580 0.961 . S
C4573 H4581 0.960 . S
C4574 C4572 1.381 . S
C4574 C4575 1.394 . S
C4574 H4582 0.930 . S
C4575 C4574 1.394 . S
C4575 C4576 1.383 . S
C4575 H4583 0.929 . S
C4576 C4575 1.383 . S
C4576 C4577 1.377 . S
C4577 H4561 0.930 . S
C4577 C4576 1.377 . S
C4577 C4578 1.379 . S
C4578 H4562 0.931 . S
C4578 C4572 1.383 . S
C4578 C4577 1.379 . S
H4579 C4573 0.959 . S
H4580 C4573 0.961 . S
H4581 C4573 0.960 . S
H4582 C4574 0.930 . S
H4583 C4575 0.929 . S
H4584 C4592 0.929 . S
H4585 C4594 0.930 . S
H4586 C4596 0.930 . S
H4587 C4599 0.929 . S
H4588 C4602 0.930 . S
H4589 C4604 0.960 . S
H4590 C4604 0.960 . S
H4591 C4604 0.960 . S
C4592 H4584 0.929 . S
C4592 C4593 1.377 . S
C4592 C4594 1.384 . S
C4593 C4592 1.377 . S
C4593 C4599 1.390 . S
C4594 H4585 0.930 . S
C4594 C4592 1.384 . S
C4594 C4595 1.372 . S
C4595 C4594 1.372 . S
C4595 C4596 1.400 . S
C4595 C4600 1.490 . S
C4596 H4586 0.930 . S
C4596 C4595 1.400 . S
C4596 C4599 1.386 . S
H4597 C4613 0.930 . S
H4598 C4614 0.931 . S
C4599 H4587 0.929 . S
C4599 C4593 1.390 . S
C4599 C4596 1.386 . S
C4600 C4595 1.490 . S
C4600 C4602 1.395 . S
C4600 C4603 1.403 . S
H4601 C4607 0.930 . S
C4602 H4588 0.930 . S
C4602 C4600 1.395 . S
C4602 C4605 1.403 . S
C4603 C4600 1.403 . S
C4603 C4604 1.524 . S
C4603 C4607 1.400 . S
C4604 H4589 0.960 . S
C4604 H4590 0.960 . S
C4604 H4591 0.960 . S
C4604 C4603 1.524 . S
C4605 C4602 1.403 . S
C4605 C4606 1.392 . S
C4605 C4609 1.495 . S
C4606 C4605 1.392 . S
C4606 C4607 1.385 . S
C4606 C4608 1.478 . S
C4607 H4601 0.930 . S
C4607 C4603 1.400 . S
C4607 C4606 1.385 . S
C4608 C4606 1.478 . S
C4608 C4610 1.381 . S
C4608 C4614 1.383 . S
C4609 C4605 1.495 . S
C4609 H4615 0.959 . S
C4609 H4616 0.961 . S
C4609 H4617 0.960 . S
C4610 C4608 1.381 . S
C4610 C4611 1.394 . S
C4610 H4618 0.930 . S
C4611 C4610 1.394 . S
C4611 C4612 1.383 . S
C4611 H4619 0.929 . S
C4612 C4611 1.383 . S
C4612 C4613 1.377 . S
C4613 H4597 0.930 . S
C4613 C4612 1.377 . S
C4613 C4614 1.379 . S
C4614 H4598 0.931 . S
C4614 C4608 1.383 . S
C4614 C4613 1.379 . S
H4615 C4609 0.959 . S
H4616 C4609 0.961 . S
H4617 C4609 0.960 . S
H4618 C4610 0.930 . S
H4619 C4611 0.929 . S
H4620 C4628 0.929 . S
H4621 C4630 0.930 . S
H4622 C4632 0.930 . S
H4623 C4635 0.929 . S
H4624 C4638 0.930 . S
H4625 C4640 0.960 . S
H4626 C4640 0.960 . S
H4627 C4640 0.960 . S
C4628 H4620 0.929 . S
C4628 C4629 1.377 . S
C4628 C4630 1.384 . S
C4629 C4628 1.377 . S
C4629 C4635 1.390 . S
C4630 H4621 0.930 . S
C4630 C4628 1.384 . S
C4630 C4631 1.372 . S
C4631 C4630 1.372 . S
C4631 C4632 1.400 . S
C4631 C4636 1.490 . S
C4632 H4622 0.930 . S
C4632 C4631 1.400 . S
C4632 C4635 1.386 . S
H4633 C4649 0.930 . S
H4634 C4650 0.931 . S
C4635 H4623 0.929 . S
C4635 C4629 1.390 . S
C4635 C4632 1.386 . S
C4636 C4631 1.490 . S
C4636 C4638 1.395 . S
C4636 C4639 1.403 . S
H4637 C4643 0.930 . S
C4638 H4624 0.930 . S
C4638 C4636 1.395 . S
C4638 C4641 1.403 . S
C4639 C4636 1.403 . S
C4639 C4640 1.524 . S
C4639 C4643 1.400 . S
C4640 H4625 0.960 . S
C4640 H4626 0.960 . S
C4640 H4627 0.960 . S
C4640 C4639 1.524 . S
C4641 C4638 1.403 . S
C4641 C4642 1.392 . S
C4641 C4645 1.495 . S
C4642 C4641 1.392 . S
C4642 C4643 1.385 . S
C4642 C4644 1.478 . S
C4643 H4637 0.930 . S
C4643 C4639 1.400 . S
C4643 C4642 1.385 . S
C4644 C4642 1.478 . S
C4644 C4646 1.381 . S
C4644 C4650 1.383 . S
C4645 C4641 1.495 . S
C4645 H4651 0.959 . S
C4645 H4652 0.961 . S
C4645 H4653 0.960 . S
C4646 C4644 1.381 . S
C4646 C4647 1.394 . S
C4646 H4654 0.930 . S
C4647 C4646 1.394 . S
C4647 C4648 1.383 . S
C4647 H4655 0.929 . S
C4648 C4647 1.383 . S
C4648 C4649 1.377 . S
C4649 H4633 0.930 . S
C4649 C4648 1.377 . S
C4649 C4650 1.379 . S
C4650 H4634 0.931 . S
C4650 C4644 1.383 . S
C4650 C4649 1.379 . S
H4651 C4645 0.959 . S
H4652 C4645 0.961 . S
H4653 C4645 0.960 . S
H4654 C4646 0.930 . S
H4655 C4647 0.929 . S
H4656 C4664 0.929 . S
H4657 C4666 0.930 . S
H4658 C4668 0.930 . S
H4659 C4671 0.929 . S
H4660 C4674 0.930 . S
H4661 C4676 0.960 . S
H4662 C4676 0.960 . S
H4663 C4676 0.960 . S
C4664 H4656 0.929 . S
C4664 C4665 1.377 . S
C4664 C4666 1.384 . S
C4665 C4664 1.377 . S
C4665 C4671 1.390 . S
C4666 H4657 0.930 . S
C4666 C4664 1.384 . S
C4666 C4667 1.372 . S
C4667 C4666 1.372 . S
C4667 C4668 1.400 . S
C4667 C4672 1.490 . S
C4668 H4658 0.930 . S
C4668 C4667 1.400 . S
C4668 C4671 1.386 . S
H4669 C4685 0.930 . S
H4670 C4686 0.931 . S
C4671 H4659 0.929 . S
C4671 C4665 1.390 . S
C4671 C4668 1.386 . S
C4672 C4667 1.490 . S
C4672 C4674 1.395 . S
C4672 C4675 1.403 . S
H4673 C4679 0.930 . S
C4674 H4660 0.930 . S
C4674 C4672 1.395 . S
C4674 C4677 1.403 . S
C4675 C4672 1.403 . S
C4675 C4676 1.524 . S
C4675 C4679 1.400 . S
C4676 H4661 0.960 . S
C4676 H4662 0.960 . S
C4676 H4663 0.960 . S
C4676 C4675 1.524 . S
C4677 C4674 1.403 . S
C4677 C4678 1.392 . S
C4677 C4681 1.495 . S
C4678 C4677 1.392 . S
C4678 C4679 1.385 . S
C4678 C4680 1.478 . S
C4679 H4673 0.930 . S
C4679 C4675 1.400 . S
C4679 C4678 1.385 . S
C4680 C4678 1.478 . S
C4680 C4682 1.381 . S
C4680 C4686 1.383 . S
C4681 C4677 1.495 . S
C4681 H4687 0.959 . S
C4681 H4688 0.961 . S
C4681 H4689 0.960 . S
C4682 C4680 1.381 . S
C4682 C4683 1.394 . S
C4682 H4690 0.930 . S
C4683 C4682 1.394 . S
C4683 C4684 1.383 . S
C4683 H4691 0.929 . S
C4684 C4683 1.383 . S
C4684 C4685 1.377 . S
C4685 H4669 0.930 . S
C4685 C4684 1.377 . S
C4685 C4686 1.379 . S
C4686 H4670 0.931 . S
C4686 C4680 1.383 . S
C4686 C4685 1.379 . S
H4687 C4681 0.959 . S
H4688 C4681 0.961 . S
H4689 C4681 0.960 . S
H4690 C4682 0.930 . S
H4691 C4683 0.929 . S
H4692 C4700 0.929 . S
H4693 C4702 0.930 . S
H4694 C4704 0.930 . S
H4695 C4707 0.929 . S
H4696 C4710 0.930 . S
H4697 C4712 0.960 . S
H4698 C4712 0.960 . S
H4699 C4712 0.960 . S
C4700 H4692 0.929 . S
C4700 C4701 1.377 . S
C4700 C4702 1.384 . S
C4701 C4700 1.377 . S
C4701 C4707 1.390 . S
C4702 H4693 0.930 . S
C4702 C4700 1.384 . S
C4702 C4703 1.372 . S
C4703 C4702 1.372 . S
C4703 C4704 1.400 . S
C4703 C4708 1.490 . S
C4704 H4694 0.930 . S
C4704 C4703 1.400 . S
C4704 C4707 1.386 . S
H4705 C4721 0.930 . S
H4706 C4722 0.931 . S
C4707 H4695 0.929 . S
C4707 C4701 1.390 . S
C4707 C4704 1.386 . S
C4708 C4703 1.490 . S
C4708 C4710 1.395 . S
C4708 C4711 1.403 . S
H4709 C4715 0.930 . S
C4710 H4696 0.930 . S
C4710 C4708 1.395 . S
C4710 C4713 1.403 . S
C4711 C4708 1.403 . S
C4711 C4712 1.524 . S
C4711 C4715 1.400 . S
C4712 H4697 0.960 . S
C4712 H4698 0.960 . S
C4712 H4699 0.960 . S
C4712 C4711 1.524 . S
C4713 C4710 1.403 . S
C4713 C4714 1.392 . S
C4713 C4717 1.495 . S
C4714 C4713 1.392 . S
C4714 C4715 1.385 . S
C4714 C4716 1.478 . S
C4715 H4709 0.930 . S
C4715 C4711 1.400 . S
C4715 C4714 1.385 . S
C4716 C4714 1.478 . S
C4716 C4718 1.381 . S
C4716 C4722 1.383 . S
C4717 C4713 1.495 . S
C4717 H4723 0.959 . S
C4717 H4724 0.961 . S
C4717 H4725 0.960 . S
C4718 C4716 1.381 . S
C4718 C4719 1.394 . S
C4718 H4726 0.930 . S
C4719 C4718 1.394 . S
C4719 C4720 1.383 . S
C4719 H4727 0.929 . S
C4720 C4719 1.383 . S
C4720 C4721 1.377 . S
C4721 H4705 0.930 . S
C4721 C4720 1.377 . S
C4721 C4722 1.379 . S
C4722 H4706 0.931 . S
C4722 C4716 1.383 . S
C4722 C4721 1.379 . S
H4723 C4717 0.959 . S
H4724 C4717 0.961 . S
H4725 C4717 0.960 . S
H4726 C4718 0.930 . S
H4727 C4719 0.929 . S
H4728 C4736 0.929 . S
H4729 C4738 0.930 . S
H4730 C4740 0.930 . S
H4731 C4743 0.929 . S
H4732 C4746 0.930 . S
H4733 C4748 0.960 . S
H4734 C4748 0.960 . S
H4735 C4748 0.960 . S
C4736 H4728 0.929 . S
C4736 C4737 1.377 . S
C4736 C4738 1.384 . S
C4737 C4736 1.377 . S
C4737 C4743 1.390 . S
C4738 H4729 0.930 . S
C4738 C4736 1.384 . S
C4738 C4739 1.372 . S
C4739 C4738 1.372 . S
C4739 C4740 1.400 . S
C4739 C4744 1.490 . S
C4740 H4730 0.930 . S
C4740 C4739 1.400 . S
C4740 C4743 1.386 . S
H4741 C4757 0.930 . S
H4742 C4758 0.931 . S
C4743 H4731 0.929 . S
C4743 C4737 1.390 . S
C4743 C4740 1.386 . S
C4744 C4739 1.490 . S
C4744 C4746 1.395 . S
C4744 C4747 1.403 . S
H4745 C4751 0.930 . S
C4746 H4732 0.930 . S
C4746 C4744 1.395 . S
C4746 C4749 1.403 . S
C4747 C4744 1.403 . S
C4747 C4748 1.524 . S
C4747 C4751 1.400 . S
C4748 H4733 0.960 . S
C4748 H4734 0.960 . S
C4748 H4735 0.960 . S
C4748 C4747 1.524 . S
C4749 C4746 1.403 . S
C4749 C4750 1.392 . S
C4749 C4753 1.495 . S
C4750 C4749 1.392 . S
C4750 C4751 1.385 . S
C4750 C4752 1.478 . S
C4751 H4745 0.930 . S
C4751 C4747 1.400 . S
C4751 C4750 1.385 . S
C4752 C4750 1.478 . S
C4752 C4754 1.381 . S
C4752 C4758 1.383 . S
C4753 C4749 1.495 . S
C4753 H4759 0.959 . S
C4753 H4760 0.961 . S
C4753 H4761 0.960 . S
C4754 C4752 1.381 . S
C4754 C4755 1.394 . S
C4754 H4762 0.930 . S
C4755 C4754 1.394 . S
C4755 C4756 1.383 . S
C4755 H4763 0.929 . S
C4756 C4755 1.383 . S
C4756 C4757 1.377 . S
C4757 H4741 0.930 . S
C4757 C4756 1.377 . S
C4757 C4758 1.379 . S
C4758 H4742 0.931 . S
C4758 C4752 1.383 . S
C4758 C4757 1.379 . S
H4759 C4753 0.959 . S
H4760 C4753 0.961 . S
H4761 C4753 0.960 . S
H4762 C4754 0.930 . S
H4763 C4755 0.929 . S
H4764 C4772 0.929 . S
H4765 C4774 0.930 . S
H4766 C4776 0.930 . S
H4767 C4779 0.929 . S
H4768 C4782 0.930 . S
H4769 C4784 0.960 . S
H4770 C4784 0.960 . S
H4771 C4784 0.960 . S
C4772 H4764 0.929 . S
C4772 C4773 1.377 . S
C4772 C4774 1.384 . S
C4773 C4772 1.377 . S
C4773 C4779 1.390 . S
C4774 H4765 0.930 . S
C4774 C4772 1.384 . S
C4774 C4775 1.372 . S
C4775 C4774 1.372 . S
C4775 C4776 1.400 . S
C4775 C4780 1.490 . S
C4776 H4766 0.930 . S
C4776 C4775 1.400 . S
C4776 C4779 1.386 . S
H4777 C4793 0.930 . S
H4778 C4794 0.931 . S
C4779 H4767 0.929 . S
C4779 C4773 1.390 . S
C4779 C4776 1.386 . S
C4780 C4775 1.490 . S
C4780 C4782 1.395 . S
C4780 C4783 1.403 . S
H4781 C4787 0.930 . S
C4782 H4768 0.930 . S
C4782 C4780 1.395 . S
C4782 C4785 1.403 . S
C4783 C4780 1.403 . S
C4783 C4784 1.524 . S
C4783 C4787 1.400 . S
C4784 H4769 0.960 . S
C4784 H4770 0.960 . S
C4784 H4771 0.960 . S
C4784 C4783 1.524 . S
C4785 C4782 1.403 . S
C4785 C4786 1.392 . S
C4785 C4789 1.495 . S
C4786 C4785 1.392 . S
C4786 C4787 1.385 . S
C4786 C4788 1.478 . S
C4787 H4781 0.930 . S
C4787 C4783 1.400 . S
C4787 C4786 1.385 . S
C4788 C4786 1.478 . S
C4788 C4790 1.381 . S
C4788 C4794 1.383 . S
C4789 C4785 1.495 . S
C4789 H4795 0.959 . S
C4789 H4796 0.961 . S
C4789 H4797 0.960 . S
C4790 C4788 1.381 . S
C4790 C4791 1.394 . S
C4790 H4798 0.930 . S
C4791 C4790 1.394 . S
C4791 C4792 1.383 . S
C4791 H4799 0.929 . S
C4792 C4791 1.383 . S
C4792 C4793 1.377 . S
C4793 H4777 0.930 . S
C4793 C4792 1.377 . S
C4793 C4794 1.379 . S
C4794 H4778 0.931 . S
C4794 C4788 1.383 . S
C4794 C4793 1.379 . S
H4795 C4789 0.959 . S
H4796 C4789 0.961 . S
H4797 C4789 0.960 . S
H4798 C4790 0.930 . S
H4799 C4791 0.929 . S
H4800 C4808 0.929 . S
H4801 C4810 0.930 . S
H4802 C4812 0.930 . S
H4803 C4815 0.929 . S
H4804 C4818 0.930 . S
H4805 C4820 0.960 . S
H4806 C4820 0.960 . S
H4807 C4820 0.960 . S
C4808 H4800 0.929 . S
C4808 C4809 1.377 . S
C4808 C4810 1.384 . S
C4809 C4808 1.377 . S
C4809 C4815 1.390 . S
C4810 H4801 0.930 . S
C4810 C4808 1.384 . S
C4810 C4811 1.372 . S
C4811 C4810 1.372 . S
C4811 C4812 1.400 . S
C4811 C4816 1.490 . S
C4812 H4802 0.930 . S
C4812 C4811 1.400 . S
C4812 C4815 1.386 . S
H4813 C4829 0.930 . S
H4814 C4830 0.931 . S
C4815 H4803 0.929 . S
C4815 C4809 1.390 . S
C4815 C4812 1.386 . S
C4816 C4811 1.490 . S
C4816 C4818 1.395 . S
C4816 C4819 1.403 . S
H4817 C4823 0.930 . S
C4818 H4804 0.930 . S
C4818 C4816 1.395 . S
C4818 C4821 1.403 1_455 S
C4819 C4816 1.403 . S
C4819 C4820 1.524 . S
C4819 C4823 1.400 1_455 S
C4820 H4805 0.960 . S
C4820 H4806 0.960 . S
C4820 H4807 0.960 . S
C4820 C4819 1.524 . S
C4821 C4818 1.403 1_655 S
C4821 C4822 1.392 . S
C4821 C4825 1.495 . S
C4822 C4821 1.392 . S
C4822 C4823 1.385 . S
C4822 C4824 1.478 . S
C4823 H4817 0.930 . S
C4823 C4819 1.400 1_655 S
C4823 C4822 1.385 . S
C4824 C4822 1.478 . S
C4824 C4826 1.381 . S
C4824 C4830 1.383 . S
C4825 C4821 1.495 . S
C4825 H4831 0.959 . S
C4825 H4832 0.961 . S
C4825 H4833 0.960 . S
C4826 C4824 1.381 . S
C4826 C4827 1.394 . S
C4826 H4834 0.930 . S
C4827 C4826 1.394 . S
C4827 C4828 1.383 . S
C4827 H4835 0.929 . S
C4828 C4827 1.383 . S
C4828 C4829 1.377 . S
C4829 H4813 0.930 . S
C4829 C4828 1.377 . S
C4829 C4830 1.379 . S
C4830 H4814 0.931 . S
C4830 C4824 1.383 . S
C4830 C4829 1.379 . S
H4831 C4825 0.959 . S
H4832 C4825 0.961 . S
H4833 C4825 0.960 . S
H4834 C4826 0.930 . S
H4835 C4827 0.929 . S
H4836 C4844 0.929 . S
H4837 C4846 0.930 . S
H4838 C4848 0.930 . S
H4839 C4851 0.929 . S
H4840 C4854 0.930 . S
H4841 C4856 0.960 . S
H4842 C4856 0.960 . S
H4843 C4856 0.960 . S
C4844 H4836 0.929 . S
C4844 C4845 1.377 . S
C4844 C4846 1.384 . S
C4845 C4844 1.377 . S
C4845 C4851 1.390 . S
C4846 H4837 0.930 . S
C4846 C4844 1.384 . S
C4846 C4847 1.372 . S
C4847 C4846 1.372 . S
C4847 C4848 1.400 . S
C4847 C4852 1.490 . S
C4848 H4838 0.930 . S
C4848 C4847 1.400 . S
C4848 C4851 1.386 . S
H4849 C4865 0.930 . S
H4850 C4866 0.931 . S
C4851 H4839 0.929 . S
C4851 C4845 1.390 . S
C4851 C4848 1.386 . S
C4852 C4847 1.490 . S
C4852 C4854 1.395 . S
C4852 C4855 1.403 . S
H4853 C4859 0.930 . S
C4854 H4840 0.930 . S
C4854 C4852 1.395 . S
C4854 C4857 1.403 1_565 S
C4855 C4852 1.403 . S
C4855 C4856 1.524 . S
C4855 C4859 1.400 1_565 S
C4856 H4841 0.960 . S
C4856 H4842 0.960 . S
C4856 H4843 0.960 . S
C4856 C4855 1.524 . S
C4857 C4854 1.403 1_545 S
C4857 C4858 1.392 . S
C4857 C4861 1.495 . S
C4858 C4857 1.392 . S
C4858 C4859 1.385 . S
C4858 C4860 1.478 . S
C4859 H4853 0.930 . S
C4859 C4855 1.400 1_545 S
C4859 C4858 1.385 . S
C4860 C4858 1.478 . S
C4860 C4862 1.381 . S
C4860 C4866 1.383 . S
C4861 C4857 1.495 . S
C4861 H4867 0.959 . S
C4861 H4868 0.961 . S
C4861 H4869 0.960 . S
C4862 C4860 1.381 . S
C4862 C4863 1.394 . S
C4862 H4870 0.930 . S
C4863 C4862 1.394 . S
C4863 C4864 1.383 . S
C4863 H4871 0.929 . S
C4864 C4863 1.383 . S
C4864 C4865 1.377 . S
C4865 H4849 0.930 . S
C4865 C4864 1.377 . S
C4865 C4866 1.379 . S
C4866 H4850 0.931 . S
C4866 C4860 1.383 . S
C4866 C4865 1.379 . S
H4867 C4861 0.959 . S
H4868 C4861 0.961 . S
H4869 C4861 0.960 . S
H4870 C4862 0.930 . S
H4871 C4863 0.929 . S
H4872 C4880 0.929 . S
H4873 C4882 0.930 . S
H4874 C4884 0.930 . S
H4875 C4887 0.929 . S
H4876 C4890 0.930 . S
H4877 C4892 0.960 . S
H4878 C4892 0.960 . S
H4879 C4892 0.960 . S
C4880 H4872 0.929 . S
C4880 C4881 1.377 . S
C4880 C4882 1.384 . S
C4881 C4880 1.377 . S
C4881 C4887 1.390 . S
C4882 H4873 0.930 . S
C4882 C4880 1.384 . S
C4882 C4883 1.372 . S
C4883 C4882 1.372 . S
C4883 C4884 1.400 . S
C4883 C4888 1.490 . S
C4884 H4874 0.930 . S
C4884 C4883 1.400 . S
C4884 C4887 1.386 . S
H4885 C4901 0.930 . S
H4886 C4902 0.931 . S
C4887 H4875 0.929 . S
C4887 C4881 1.390 . S
C4887 C4884 1.386 . S
C4888 C4883 1.490 . S
C4888 C4890 1.395 . S
C4888 C4891 1.403 . S
H4889 C4895 0.930 . S
C4890 H4876 0.930 . S
C4890 C4888 1.395 . S
C4890 C4893 1.403 1_655 S
C4891 C4888 1.403 . S
C4891 C4892 1.524 . S
C4891 C4895 1.400 1_655 S
C4892 H4877 0.960 . S
C4892 H4878 0.960 . S
C4892 H4879 0.960 . S
C4892 C4891 1.524 . S
C4893 C4890 1.403 1_455 S
C4893 C4894 1.392 . S
C4893 C4897 1.495 . S
C4894 C4893 1.392 . S
C4894 C4895 1.385 . S
C4894 C4896 1.478 . S
C4895 H4889 0.930 . S
C4895 C4891 1.400 1_455 S
C4895 C4894 1.385 . S
C4896 C4894 1.478 . S
C4896 C4898 1.381 . S
C4896 C4902 1.383 . S
C4897 C4893 1.495 . S
C4897 H4903 0.959 . S
C4897 H4904 0.961 . S
C4897 H4905 0.960 . S
C4898 C4896 1.381 . S
C4898 C4899 1.394 . S
C4898 H4906 0.930 . S
C4899 C4898 1.394 . S
C4899 C4900 1.383 . S
C4899 H4907 0.929 . S
C4900 C4899 1.383 . S
C4900 C4901 1.377 . S
C4901 H4885 0.930 . S
C4901 C4900 1.377 . S
C4901 C4902 1.379 . S
C4902 H4886 0.931 . S
C4902 C4896 1.383 . S
C4902 C4901 1.379 . S
H4903 C4897 0.959 . S
H4904 C4897 0.961 . S
H4905 C4897 0.960 . S
H4906 C4898 0.930 . S
H4907 C4899 0.929 . S
H4908 C4916 0.929 . S
H4909 C4918 0.930 . S
H4910 C4920 0.930 . S
H4911 C4923 0.929 . S
H4912 C4926 0.930 . S
H4913 C4928 0.960 . S
H4914 C4928 0.960 . S
H4915 C4928 0.960 . S
C4916 H4908 0.929 . S
C4916 C4917 1.377 . S
C4916 C4918 1.384 . S
C4917 C4916 1.377 . S
C4917 C4923 1.390 . S
C4918 H4909 0.930 . S
C4918 C4916 1.384 . S
C4918 C4919 1.372 . S
C4919 C4918 1.372 . S
C4919 C4920 1.400 . S
C4919 C4924 1.490 . S
C4920 H4910 0.930 . S
C4920 C4919 1.400 . S
C4920 C4923 1.386 . S
H4921 C4937 0.930 . S
H4922 C4938 0.931 . S
C4923 H4911 0.929 . S
C4923 C4917 1.390 . S
C4923 C4920 1.386 . S
C4924 C4919 1.490 . S
C4924 C4926 1.395 . S
C4924 C4927 1.403 . S
H4925 C4931 0.930 . S
C4926 H4912 0.930 . S
C4926 C4924 1.395 . S
C4926 C4929 1.403 1_545 S
C4927 C4924 1.403 . S
C4927 C4928 1.524 . S
C4927 C4931 1.400 1_545 S
C4928 H4913 0.960 . S
C4928 H4914 0.960 . S
C4928 H4915 0.960 . S
C4928 C4927 1.524 . S
C4929 C4926 1.403 1_565 S
C4929 C4930 1.392 . S
C4929 C4933 1.495 . S
C4930 C4929 1.392 . S
C4930 C4931 1.385 . S
C4930 C4932 1.478 . S
C4931 H4925 0.930 . S
C4931 C4927 1.400 1_565 S
C4931 C4930 1.385 . S
C4932 C4930 1.478 . S
C4932 C4934 1.381 . S
C4932 C4938 1.383 . S
C4933 C4929 1.495 . S
C4933 H4939 0.959 . S
C4933 H4940 0.961 . S
C4933 H4941 0.960 . S
C4934 C4932 1.381 . S
C4934 C4935 1.394 . S
C4934 H4942 0.930 . S
C4935 C4934 1.394 . S
C4935 C4936 1.383 . S
C4935 H4943 0.929 . S
C4936 C4935 1.383 . S
C4936 C4937 1.377 . S
C4937 H4921 0.930 . S
C4937 C4936 1.377 . S
C4937 C4938 1.379 . S
C4938 H4922 0.931 . S
C4938 C4932 1.383 . S
C4938 C4937 1.379 . S
H4939 C4933 0.959 . S
H4940 C4933 0.961 . S
H4941 C4933 0.960 . S
H4942 C4934 0.930 . S
H4943 C4935 0.929 . S
H4944 C4952 0.929 . S
H4945 C4954 0.930 . S
H4946 C4956 0.930 . S
H4947 C4959 0.929 . S
H4948 C4962 0.930 . S
H4949 C4964 0.960 . S
H4950 C4964 0.960 . S
H4951 C4964 0.960 . S
C4952 H4944 0.929 . S
C4952 C4953 1.377 . S
C4952 C4954 1.384 . S
C4953 C4952 1.377 . S
C4953 C4959 1.390 . S
C4954 H4945 0.930 . S
C4954 C4952 1.384 . S
C4954 C4955 1.372 . S
C4955 C4954 1.372 . S
C4955 C4956 1.400 . S
C4955 C4960 1.490 . S
C4956 H4946 0.930 . S
C4956 C4955 1.400 . S
C4956 C4959 1.386 . S
H4957 C4973 0.930 . S
H4958 C4974 0.931 . S
C4959 H4947 0.929 . S
C4959 C4953 1.390 . S
C4959 C4956 1.386 . S
C4960 C4955 1.490 . S
C4960 C4962 1.395 . S
C4960 C4963 1.403 . S
H4961 C4967 0.930 . S
C4962 H4948 0.930 . S
C4962 C4960 1.395 . S
C4962 C4965 1.403 1_455 S
C4963 C4960 1.403 . S
C4963 C4964 1.524 . S
C4963 C4967 1.400 1_455 S
C4964 H4949 0.960 . S
C4964 H4950 0.960 . S
C4964 H4951 0.960 . S
C4964 C4963 1.524 . S
C4965 C4962 1.403 1_655 S
C4965 C4966 1.392 . S
C4965 C4969 1.495 . S
C4966 C4965 1.392 . S
C4966 C4967 1.385 . S
C4966 C4968 1.478 . S
C4967 H4961 0.930 . S
C4967 C4963 1.400 1_655 S
C4967 C4966 1.385 . S
C4968 C4966 1.478 . S
C4968 C4970 1.381 . S
C4968 C4974 1.383 . S
C4969 C4965 1.495 . S
C4969 H4975 0.959 . S
C4969 H4976 0.961 . S
C4969 H4977 0.960 . S
C4970 C4968 1.381 . S
C4970 C4971 1.394 . S
C4970 H4978 0.930 . S
C4971 C4970 1.394 . S
C4971 C4972 1.383 . S
C4971 H4979 0.929 . S
C4972 C4971 1.383 . S
C4972 C4973 1.377 . S
C4973 H4957 0.930 . S
C4973 C4972 1.377 . S
C4973 C4974 1.379 . S
C4974 H4958 0.931 . S
C4974 C4968 1.383 . S
C4974 C4973 1.379 . S
H4975 C4969 0.959 . S
H4976 C4969 0.961 . S
H4977 C4969 0.960 . S
H4978 C4970 0.930 . S
H4979 C4971 0.929 . S
H4980 C4988 0.929 . S
H4981 C4990 0.930 . S
H4982 C4992 0.930 . S
H4983 C4995 0.929 . S
H4984 C4998 0.930 . S
H4985 C5000 0.960 . S
H4986 C5000 0.960 . S
H4987 C5000 0.960 . S
C4988 H4980 0.929 . S
C4988 C4989 1.377 . S
C4988 C4990 1.384 . S
C4989 C4988 1.377 . S
C4989 C4995 1.390 . S
C4990 H4981 0.930 . S
C4990 C4988 1.384 . S
C4990 C4991 1.372 . S
C4991 C4990 1.372 . S
C4991 C4992 1.400 . S
C4991 C4996 1.490 . S
C4992 H4982 0.930 . S
C4992 C4991 1.400 . S
C4992 C4995 1.386 . S
H4993 C5009 0.930 . S
H4994 C5010 0.931 . S
C4995 H4983 0.929 . S
C4995 C4989 1.390 . S
C4995 C4992 1.386 . S
C4996 C4991 1.490 . S
C4996 C4998 1.395 . S
C4996 C4999 1.403 . S
H4997 C5003 0.930 . S
C4998 H4984 0.930 . S
C4998 C4996 1.395 . S
C4998 C5001 1.403 1_545 S
C4999 C4996 1.403 . S
C4999 C5000 1.524 . S
C4999 C5003 1.400 1_545 S
C5000 H4985 0.960 . S
C5000 H4986 0.960 . S
C5000 H4987 0.960 . S
C5000 C4999 1.524 . S
C5001 C4998 1.403 1_565 S
C5001 C5002 1.392 . S
C5001 C5005 1.495 . S
C5002 C5001 1.392 . S
C5002 C5003 1.385 . S
C5002 C5004 1.478 . S
C5003 H4997 0.930 . S
C5003 C4999 1.400 1_565 S
C5003 C5002 1.385 . S
C5004 C5002 1.478 . S
C5004 C5006 1.381 . S
C5004 C5010 1.383 . S
C5005 C5001 1.495 . S
C5005 H5011 0.959 . S
C5005 H5012 0.961 . S
C5005 H5013 0.960 . S
C5006 C5004 1.381 . S
C5006 C5007 1.394 . S
C5006 H5014 0.930 . S
C5007 C5006 1.394 . S
C5007 C5008 1.383 . S
C5007 H5015 0.929 . S
C5008 C5007 1.383 . S
C5008 C5009 1.377 . S
C5009 H4993 0.930 . S
C5009 C5008 1.377 . S
C5009 C5010 1.379 . S
C5010 H4994 0.931 . S
C5010 C5004 1.383 . S
C5010 C5009 1.379 . S
H5011 C5005 0.959 . S
H5012 C5005 0.961 . S
H5013 C5005 0.960 . S
H5014 C5006 0.930 . S
H5015 C5007 0.929 . S
H5016 C5024 0.929 . S
H5017 C5026 0.930 . S
H5018 C5028 0.930 . S
H5019 C5031 0.929 . S
H5020 C5034 0.930 . S
H5021 C5036 0.960 . S
H5022 C5036 0.960 . S
H5023 C5036 0.960 . S
C5024 H5016 0.929 . S
C5024 C5025 1.377 . S
C5024 C5026 1.384 . S
C5025 C5024 1.377 . S
C5025 C5031 1.390 . S
C5026 H5017 0.930 . S
C5026 C5024 1.384 . S
C5026 C5027 1.372 . S
C5027 C5026 1.372 . S
C5027 C5028 1.400 . S
C5027 C5032 1.490 . S
C5028 H5018 0.930 . S
C5028 C5027 1.400 . S
C5028 C5031 1.386 . S
H5029 C5045 0.930 . S
H5030 C5046 0.931 . S
C5031 H5019 0.929 . S
C5031 C5025 1.390 . S
C5031 C5028 1.386 . S
C5032 C5027 1.490 . S
C5032 C5034 1.395 . S
C5032 C5035 1.403 . S
H5033 C5039 0.930 . S
C5034 H5020 0.930 . S
C5034 C5032 1.395 . S
C5034 C5037 1.403 1_655 S
C5035 C5032 1.403 . S
C5035 C5036 1.524 . S
C5035 C5039 1.400 1_655 S
C5036 H5021 0.960 . S
C5036 H5022 0.960 . S
C5036 H5023 0.960 . S
C5036 C5035 1.524 . S
C5037 C5034 1.403 1_455 S
C5037 C5038 1.392 . S
C5037 C5041 1.495 . S
C5038 C5037 1.392 . S
C5038 C5039 1.385 . S
C5038 C5040 1.478 . S
C5039 H5033 0.930 . S
C5039 C5035 1.400 1_455 S
C5039 C5038 1.385 . S
C5040 C5038 1.478 . S
C5040 C5042 1.381 . S
C5040 C5046 1.383 . S
C5041 C5037 1.495 . S
C5041 H5047 0.959 . S
C5041 H5048 0.961 . S
C5041 H5049 0.960 . S
C5042 C5040 1.381 . S
C5042 C5043 1.394 . S
C5042 H5050 0.930 . S
C5043 C5042 1.394 . S
C5043 C5044 1.383 . S
C5043 H5051 0.929 . S
C5044 C5043 1.383 . S
C5044 C5045 1.377 . S
C5045 H5029 0.930 . S
C5045 C5044 1.377 . S
C5045 C5046 1.379 . S
C5046 H5030 0.931 . S
C5046 C5040 1.383 . S
C5046 C5045 1.379 . S
H5047 C5041 0.959 . S
H5048 C5041 0.961 . S
H5049 C5041 0.960 . S
H5050 C5042 0.930 . S
H5051 C5043 0.929 . S
H5052 C5060 0.929 . S
H5053 C5062 0.930 . S
H5054 C5064 0.930 . S
H5055 C5067 0.929 . S
H5056 C5070 0.930 . S
H5057 C5072 0.960 . S
H5058 C5072 0.960 . S
H5059 C5072 0.960 . S
C5060 H5052 0.929 . S
C5060 C5061 1.377 . S
C5060 C5062 1.384 . S
C5061 C5060 1.377 . S
C5061 C5067 1.390 . S
C5062 H5053 0.930 . S
C5062 C5060 1.384 . S
C5062 C5063 1.372 . S
C5063 C5062 1.372 . S
C5063 C5064 1.400 . S
C5063 C5068 1.490 . S
C5064 H5054 0.930 . S
C5064 C5063 1.400 . S
C5064 C5067 1.386 . S
H5065 C5081 0.930 . S
H5066 C5082 0.931 . S
C5067 H5055 0.929 . S
C5067 C5061 1.390 . S
C5067 C5064 1.386 . S
C5068 C5063 1.490 . S
C5068 C5070 1.395 . S
C5068 C5071 1.403 . S
H5069 C5075 0.930 . S
C5070 H5056 0.930 . S
C5070 C5068 1.395 . S
C5070 C5073 1.403 1_545 S
C5071 C5068 1.403 . S
C5071 C5072 1.524 . S
C5071 C5075 1.400 1_545 S
C5072 H5057 0.960 . S
C5072 H5058 0.960 . S
C5072 H5059 0.960 . S
C5072 C5071 1.524 . S
C5073 C5070 1.403 1_565 S
C5073 C5074 1.392 . S
C5073 C5077 1.495 . S
C5074 C5073 1.392 . S
C5074 C5075 1.385 . S
C5074 C5076 1.478 . S
C5075 H5069 0.930 . S
C5075 C5071 1.400 1_565 S
C5075 C5074 1.385 . S
C5076 C5074 1.478 . S
C5076 C5078 1.381 . S
C5076 C5082 1.383 . S
C5077 C5073 1.495 . S
C5077 H5083 0.959 . S
C5077 H5084 0.961 . S
C5077 H5085 0.960 . S
C5078 C5076 1.381 . S
C5078 C5079 1.394 . S
C5078 H5086 0.930 . S
C5079 C5078 1.394 . S
C5079 C5080 1.383 . S
C5079 H5087 0.929 . S
C5080 C5079 1.383 . S
C5080 C5081 1.377 . S
C5081 H5065 0.930 . S
C5081 C5080 1.377 . S
C5081 C5082 1.379 . S
C5082 H5066 0.931 . S
C5082 C5076 1.383 . S
C5082 C5081 1.379 . S
H5083 C5077 0.959 . S
H5084 C5077 0.961 . S
H5085 C5077 0.960 . S
H5086 C5078 0.930 . S
H5087 C5079 0.929 . S
H5088 C5096 0.929 . S
H5089 C5098 0.930 . S
H5090 C5100 0.930 . S
H5091 C5103 0.929 . S
H5092 C5106 0.930 . S
H5093 C5108 0.960 . S
H5094 C5108 0.960 . S
H5095 C5108 0.960 . S
C5096 H5088 0.929 . S
C5096 C5097 1.377 . S
C5096 C5098 1.384 . S
C5097 C5096 1.377 . S
C5097 C5103 1.390 . S
C5098 H5089 0.930 . S
C5098 C5096 1.384 . S
C5098 C5099 1.372 . S
C5099 C5098 1.372 . S
C5099 C5100 1.400 . S
C5099 C5104 1.490 . S
C5100 H5090 0.930 . S
C5100 C5099 1.400 . S
C5100 C5103 1.386 . S
H5101 C5117 0.930 . S
H5102 C5118 0.931 . S
C5103 H5091 0.929 . S
C5103 C5097 1.390 . S
C5103 C5100 1.386 . S
C5104 C5099 1.490 . S
C5104 C5106 1.395 . S
C5104 C5107 1.403 . S
H5105 C5111 0.930 . S
C5106 H5092 0.930 . S
C5106 C5104 1.395 . S
C5106 C5109 1.403 1_565 S
C5107 C5104 1.403 . S
C5107 C5108 1.524 . S
C5107 C5111 1.400 1_565 S
C5108 H5093 0.960 . S
C5108 H5094 0.960 . S
C5108 H5095 0.960 . S
C5108 C5107 1.524 . S
C5109 C5106 1.403 1_545 S
C5109 C5110 1.392 . S
C5109 C5113 1.495 . S
C5110 C5109 1.392 . S
C5110 C5111 1.385 . S
C5110 C5112 1.478 . S
C5111 H5105 0.930 . S
C5111 C5107 1.400 1_545 S
C5111 C5110 1.385 . S
C5112 C5110 1.478 . S
C5112 C5114 1.381 . S
C5112 C5118 1.383 . S
C5113 C5109 1.495 . S
C5113 H5119 0.959 . S
C5113 H5120 0.961 . S
C5113 H5121 0.960 . S
C5114 C5112 1.381 . S
C5114 C5115 1.394 . S
C5114 H5122 0.930 . S
C5115 C5114 1.394 . S
C5115 C5116 1.383 . S
C5115 H5123 0.929 . S
C5116 C5115 1.383 . S
C5116 C5117 1.377 . S
C5117 H5101 0.930 . S
C5117 C5116 1.377 . S
C5117 C5118 1.379 . S
C5118 H5102 0.931 . S
C5118 C5112 1.383 . S
C5118 C5117 1.379 . S
H5119 C5113 0.959 . S
H5120 C5113 0.961 . S
H5121 C5113 0.960 . S
H5122 C5114 0.930 . S
H5123 C5115 0.929 . S
H5124 C5132 0.929 . S
H5125 C5134 0.930 . S
H5126 C5136 0.930 . S
H5127 C5139 0.929 . S
H5128 C5142 0.930 . S
H5129 C5144 0.960 . S
H5130 C5144 0.960 . S
H5131 C5144 0.960 . S
C5132 H5124 0.929 . S
C5132 C5133 1.377 . S
C5132 C5134 1.384 . S
C5133 C5132 1.377 . S
C5133 C5139 1.390 . S
C5134 H5125 0.930 . S
C5134 C5132 1.384 . S
C5134 C5135 1.372 . S
C5135 C5134 1.372 . S
C5135 C5136 1.400 . S
C5135 C5140 1.490 . S
C5136 H5126 0.930 . S
C5136 C5135 1.400 . S
C5136 C5139 1.386 . S
H5137 C5153 0.930 . S
H5138 C5154 0.931 . S
C5139 H5127 0.929 . S
C5139 C5133 1.390 . S
C5139 C5136 1.386 . S
C5140 C5135 1.490 . S
C5140 C5142 1.395 . S
C5140 C5143 1.403 . S
H5141 C5147 0.930 . S
C5142 H5128 0.930 . S
C5142 C5140 1.395 . S
C5142 C5145 1.403 1_655 S
C5143 C5140 1.403 . S
C5143 C5144 1.524 . S
C5143 C5147 1.400 1_655 S
C5144 H5129 0.960 . S
C5144 H5130 0.960 . S
C5144 H5131 0.960 . S
C5144 C5143 1.524 . S
C5145 C5142 1.403 1_455 S
C5145 C5146 1.392 . S
C5145 C5149 1.495 . S
C5146 C5145 1.392 . S
C5146 C5147 1.385 . S
C5146 C5148 1.478 . S
C5147 H5141 0.930 . S
C5147 C5143 1.400 1_455 S
C5147 C5146 1.385 . S
C5148 C5146 1.478 . S
C5148 C5150 1.381 . S
C5148 C5154 1.383 . S
C5149 C5145 1.495 . S
C5149 H5155 0.959 . S
C5149 H5156 0.961 . S
C5149 H5157 0.960 . S
C5150 C5148 1.381 . S
C5150 C5151 1.394 . S
C5150 H5158 0.930 . S
C5151 C5150 1.394 . S
C5151 C5152 1.383 . S
C5151 H5159 0.929 . S
C5152 C5151 1.383 . S
C5152 C5153 1.377 . S
C5153 H5137 0.930 . S
C5153 C5152 1.377 . S
C5153 C5154 1.379 . S
C5154 H5138 0.931 . S
C5154 C5148 1.383 . S
C5154 C5153 1.379 . S
H5155 C5149 0.959 . S
H5156 C5149 0.961 . S
H5157 C5149 0.960 . S
H5158 C5150 0.930 . S
H5159 C5151 0.929 . S
H5160 C5168 0.929 . S
H5161 C5170 0.930 . S
H5162 C5172 0.930 . S
H5163 C5175 0.929 . S
H5164 C5178 0.930 . S
H5165 C5180 0.960 . S
H5166 C5180 0.960 . S
H5167 C5180 0.960 . S
C5168 H5160 0.929 . S
C5168 C5169 1.377 . S
C5168 C5170 1.384 . S
C5169 C5168 1.377 . S
C5169 C5175 1.390 . S
C5170 H5161 0.930 . S
C5170 C5168 1.384 . S
C5170 C5171 1.372 . S
C5171 C5170 1.372 . S
C5171 C5172 1.400 . S
C5171 C5176 1.490 . S
C5172 H5162 0.930 . S
C5172 C5171 1.400 . S
C5172 C5175 1.386 . S
H5173 C5189 0.930 . S
H5174 C5190 0.931 . S
C5175 H5163 0.929 . S
C5175 C5169 1.390 . S
C5175 C5172 1.386 . S
C5176 C5171 1.490 . S
C5176 C5178 1.395 . S
C5176 C5179 1.403 . S
H5177 C5183 0.930 . S
C5178 H5164 0.930 . S
C5178 C5176 1.395 . S
C5178 C5181 1.403 1_565 S
C5179 C5176 1.403 . S
C5179 C5180 1.524 . S
C5179 C5183 1.400 1_565 S
C5180 H5165 0.960 . S
C5180 H5166 0.960 . S
C5180 H5167 0.960 . S
C5180 C5179 1.524 . S
C5181 C5178 1.403 1_545 S
C5181 C5182 1.392 . S
C5181 C5185 1.495 . S
C5182 C5181 1.392 . S
C5182 C5183 1.385 . S
C5182 C5184 1.478 . S
C5183 H5177 0.930 . S
C5183 C5179 1.400 1_545 S
C5183 C5182 1.385 . S
C5184 C5182 1.478 . S
C5184 C5186 1.381 . S
C5184 C5190 1.383 . S
C5185 C5181 1.495 . S
C5185 H5191 0.959 . S
C5185 H5192 0.961 . S
C5185 H5193 0.960 . S
C5186 C5184 1.381 . S
C5186 C5187 1.394 . S
C5186 H5194 0.930 . S
C5187 C5186 1.394 . S
C5187 C5188 1.383 . S
C5187 H5195 0.929 . S
C5188 C5187 1.383 . S
C5188 C5189 1.377 . S
C5189 H5173 0.930 . S
C5189 C5188 1.377 . S
C5189 C5190 1.379 . S
C5190 H5174 0.931 . S
C5190 C5184 1.383 . S
C5190 C5189 1.379 . S
H5191 C5185 0.959 . S
H5192 C5185 0.961 . S
H5193 C5185 0.960 . S
H5194 C5186 0.930 . S
H5195 C5187 0.929 . S
H5196 C5204 0.929 . S
H5197 C5206 0.930 . S
H5198 C5208 0.930 . S
H5199 C5211 0.929 . S
H5200 C5214 0.930 . S
H5201 C5216 0.960 . S
H5202 C5216 0.960 . S
H5203 C5216 0.960 . S
C5204 H5196 0.929 . S
C5204 C5205 1.377 . S
C5204 C5206 1.384 . S
C5205 C5204 1.377 . S
C5205 C5211 1.390 . S
C5206 H5197 0.930 . S
C5206 C5204 1.384 . S
C5206 C5207 1.372 . S
C5207 C5206 1.372 . S
C5207 C5208 1.400 . S
C5207 C5212 1.490 . S
C5208 H5198 0.930 . S
C5208 C5207 1.400 . S
C5208 C5211 1.386 . S
H5209 C5225 0.930 . S
H5210 C5226 0.931 . S
C5211 H5199 0.929 . S
C5211 C5205 1.390 . S
C5211 C5208 1.386 . S
C5212 C5207 1.490 . S
C5212 C5214 1.395 . S
C5212 C5215 1.403 . S
H5213 C5219 0.930 . S
C5214 H5200 0.930 . S
C5214 C5212 1.395 . S
C5214 C5217 1.403 1_455 S
C5215 C5212 1.403 . S
C5215 C5216 1.524 . S
C5215 C5219 1.400 1_455 S
C5216 H5201 0.960 . S
C5216 H5202 0.960 . S
C5216 H5203 0.960 . S
C5216 C5215 1.524 . S
C5217 C5214 1.403 1_655 S
C5217 C5218 1.392 . S
C5217 C5221 1.495 . S
C5218 C5217 1.392 . S
C5218 C5219 1.385 . S
C5218 C5220 1.478 . S
C5219 H5213 0.930 . S
C5219 C5215 1.400 1_655 S
C5219 C5218 1.385 . S
C5220 C5218 1.478 . S
C5220 C5222 1.381 . S
C5220 C5226 1.383 . S
C5221 C5217 1.495 . S
C5221 H5227 0.959 . S
C5221 H5228 0.961 . S
C5221 H5229 0.960 . S
C5222 C5220 1.381 . S
C5222 C5223 1.394 . S
C5222 H5230 0.930 . S
C5223 C5222 1.394 . S
C5223 C5224 1.383 . S
C5223 H5231 0.929 . S
C5224 C5223 1.383 . S
C5224 C5225 1.377 . S
C5225 H5209 0.930 . S
C5225 C5224 1.377 . S
C5225 C5226 1.379 . S
C5226 H5210 0.931 . S
C5226 C5220 1.383 . S
C5226 C5225 1.379 . S
H5227 C5221 0.959 . S
H5228 C5221 0.961 . S
H5229 C5221 0.960 . S
H5230 C5222 0.930 . S
H5231 C5223 0.929 . S
H5232 C5240 0.929 . S
H5233 C5242 0.930 . S
H5234 C5244 0.930 . S
H5235 C5247 0.929 . S
H5236 C5250 0.930 . S
H5237 C5252 0.960 . S
H5238 C5252 0.960 . S
H5239 C5252 0.960 . S
C5240 H5232 0.929 . S
C5240 C5241 1.377 . S
C5240 C5242 1.384 . S
C5241 C5240 1.377 . S
C5241 C5247 1.390 . S
C5242 H5233 0.930 . S
C5242 C5240 1.384 . S
C5242 C5243 1.372 . S
C5243 C5242 1.372 . S
C5243 C5244 1.400 . S
C5243 C5248 1.490 . S
C5244 H5234 0.930 . S
C5244 C5243 1.400 . S
C5244 C5247 1.386 . S
H5245 C5261 0.930 . S
H5246 C5262 0.931 . S
C5247 H5235 0.929 . S
C5247 C5241 1.390 . S
C5247 C5244 1.386 . S
C5248 C5243 1.490 . S
C5248 C5250 1.395 . S
C5248 C5251 1.403 . S
H5249 C5255 0.930 . S
C5250 H5236 0.930 . S
C5250 C5248 1.395 . S
C5250 C5253 1.403 1_565 S
C5251 C5248 1.403 . S
C5251 C5252 1.524 . S
C5251 C5255 1.400 1_565 S
C5252 H5237 0.960 . S
C5252 H5238 0.960 . S
C5252 H5239 0.960 . S
C5252 C5251 1.524 . S
C5253 C5250 1.403 1_545 S
C5253 C5254 1.392 . S
C5253 C5257 1.495 . S
C5254 C5253 1.392 . S
C5254 C5255 1.385 . S
C5254 C5256 1.478 . S
C5255 H5249 0.930 . S
C5255 C5251 1.400 1_545 S
C5255 C5254 1.385 . S
C5256 C5254 1.478 . S
C5256 C5258 1.381 . S
C5256 C5262 1.383 . S
C5257 C5253 1.495 . S
C5257 H5263 0.959 . S
C5257 H5264 0.961 . S
C5257 H5265 0.960 . S
C5258 C5256 1.381 . S
C5258 C5259 1.394 . S
C5258 H5266 0.930 . S
C5259 C5258 1.394 . S
C5259 C5260 1.383 . S
C5259 H5267 0.929 . S
C5260 C5259 1.383 . S
C5260 C5261 1.377 . S
C5261 H5245 0.930 . S
C5261 C5260 1.377 . S
C5261 C5262 1.379 . S
C5262 H5246 0.931 . S
C5262 C5256 1.383 . S
C5262 C5261 1.379 . S
H5263 C5257 0.959 . S
H5264 C5257 0.961 . S
H5265 C5257 0.960 . S
H5266 C5258 0.930 . S
H5267 C5259 0.929 . S
H5268 C5276 0.929 . S
H5269 C5278 0.930 . S
H5270 C5280 0.930 . S
H5271 C5283 0.929 . S
H5272 C5286 0.930 . S
H5273 C5288 0.960 . S
H5274 C5288 0.960 . S
H5275 C5288 0.960 . S
C5276 H5268 0.929 . S
C5276 C5277 1.377 . S
C5276 C5278 1.384 . S
C5277 C5276 1.377 . S
C5277 C5283 1.390 . S
C5278 H5269 0.930 . S
C5278 C5276 1.384 . S
C5278 C5279 1.372 . S
C5279 C5278 1.372 . S
C5279 C5280 1.400 . S
C5279 C5284 1.490 . S
C5280 H5270 0.930 . S
C5280 C5279 1.400 . S
C5280 C5283 1.386 . S
H5281 C5297 0.930 . S
H5282 C5298 0.931 . S
C5283 H5271 0.929 . S
C5283 C5277 1.390 . S
C5283 C5280 1.386 . S
C5284 C5279 1.490 . S
C5284 C5286 1.395 . S
C5284 C5287 1.403 . S
H5285 C5291 0.930 . S
C5286 H5272 0.930 . S
C5286 C5284 1.395 . S
C5286 C5289 1.403 1_455 S
C5287 C5284 1.403 . S
C5287 C5288 1.524 . S
C5287 C5291 1.400 1_455 S
C5288 H5273 0.960 . S
C5288 H5274 0.960 . S
C5288 H5275 0.960 . S
C5288 C5287 1.524 . S
C5289 C5286 1.403 1_655 S
C5289 C5290 1.392 . S
C5289 C5293 1.495 . S
C5290 C5289 1.392 . S
C5290 C5291 1.385 . S
C5290 C5292 1.478 . S
C5291 H5285 0.930 . S
C5291 C5287 1.400 1_655 S
C5291 C5290 1.385 . S
C5292 C5290 1.478 . S
C5292 C5294 1.381 . S
C5292 C5298 1.383 . S
C5293 C5289 1.495 . S
C5293 H5299 0.959 . S
C5293 H5300 0.961 . S
C5293 H5301 0.960 . S
C5294 C5292 1.381 . S
C5294 C5295 1.394 . S
C5294 H5302 0.930 . S
C5295 C5294 1.394 . S
C5295 C5296 1.383 . S
C5295 H5303 0.929 . S
C5296 C5295 1.383 . S
C5296 C5297 1.377 . S
C5297 H5281 0.930 . S
C5297 C5296 1.377 . S
C5297 C5298 1.379 . S
C5298 H5282 0.931 . S
C5298 C5292 1.383 . S
C5298 C5297 1.379 . S
H5299 C5293 0.959 . S
H5300 C5293 0.961 . S
H5301 C5293 0.960 . S
H5302 C5294 0.930 . S
H5303 C5295 0.929 . S
H5304 C5312 0.929 . S
H5305 C5314 0.930 . S
H5306 C5316 0.930 . S
H5307 C5319 0.929 . S
H5308 C5322 0.930 . S
H5309 C5324 0.960 . S
H5310 C5324 0.960 . S
H5311 C5324 0.960 . S
C5312 H5304 0.929 . S
C5312 C5313 1.377 . S
C5312 C5314 1.384 . S
C5313 C5312 1.377 . S
C5313 C5319 1.390 . S
C5314 H5305 0.930 . S
C5314 C5312 1.384 . S
C5314 C5315 1.372 . S
C5315 C5314 1.372 . S
C5315 C5316 1.400 . S
C5315 C5320 1.490 . S
C5316 H5306 0.930 . S
C5316 C5315 1.400 . S
C5316 C5319 1.386 . S
H5317 C5333 0.930 . S
H5318 C5334 0.931 . S
C5319 H5307 0.929 . S
C5319 C5313 1.390 . S
C5319 C5316 1.386 . S
C5320 C5315 1.490 . S
C5320 C5322 1.395 . S
C5320 C5323 1.403 . S
H5321 C5327 0.930 . S
C5322 H5308 0.930 . S
C5322 C5320 1.395 . S
C5322 C5325 1.403 1_545 S
C5323 C5320 1.403 . S
C5323 C5324 1.524 . S
C5323 C5327 1.400 1_545 S
C5324 H5309 0.960 . S
C5324 H5310 0.960 . S
C5324 H5311 0.960 . S
C5324 C5323 1.524 . S
C5325 C5322 1.403 1_565 S
C5325 C5326 1.392 . S
C5325 C5329 1.495 . S
C5326 C5325 1.392 . S
C5326 C5327 1.385 . S
C5326 C5328 1.478 . S
C5327 H5321 0.930 . S
C5327 C5323 1.400 1_565 S
C5327 C5326 1.385 . S
C5328 C5326 1.478 . S
C5328 C5330 1.381 . S
C5328 C5334 1.383 . S
C5329 C5325 1.495 . S
C5329 H5335 0.959 . S
C5329 H5336 0.961 . S
C5329 H5337 0.960 . S
C5330 C5328 1.381 . S
C5330 C5331 1.394 . S
C5330 H5338 0.930 . S
C5331 C5330 1.394 . S
C5331 C5332 1.383 . S
C5331 H5339 0.929 . S
C5332 C5331 1.383 . S
C5332 C5333 1.377 . S
C5333 H5317 0.930 . S
C5333 C5332 1.377 . S
C5333 C5334 1.379 . S
C5334 H5318 0.931 . S
C5334 C5328 1.383 . S
C5334 C5333 1.379 . S
H5335 C5329 0.959 . S
H5336 C5329 0.961 . S
H5337 C5329 0.960 . S
H5338 C5330 0.930 . S
H5339 C5331 0.929 . S
H5340 C5348 0.929 . S
H5341 C5350 0.930 . S
H5342 C5352 0.930 . S
H5343 C5355 0.929 . S
H5344 C5358 0.930 . S
H5345 C5360 0.960 . S
H5346 C5360 0.960 . S
H5347 C5360 0.960 . S
C5348 H5340 0.929 . S
C5348 C5349 1.377 . S
C5348 C5350 1.384 . S
C5349 C5348 1.377 . S
C5349 C5355 1.390 . S
C5350 H5341 0.930 . S
C5350 C5348 1.384 . S
C5350 C5351 1.372 . S
C5351 C5350 1.372 . S
C5351 C5352 1.400 . S
C5351 C5356 1.490 . S
C5352 H5342 0.930 . S
C5352 C5351 1.400 . S
C5352 C5355 1.386 . S
H5353 C5369 0.930 . S
H5354 C5370 0.931 . S
C5355 H5343 0.929 . S
C5355 C5349 1.390 . S
C5355 C5352 1.386 . S
C5356 C5351 1.490 . S
C5356 C5358 1.395 . S
C5356 C5359 1.403 . S
H5357 C5363 0.930 . S
C5358 H5344 0.930 . S
C5358 C5356 1.395 . S
C5358 C5361 1.403 1_655 S
C5359 C5356 1.403 . S
C5359 C5360 1.524 . S
C5359 C5363 1.400 1_655 S
C5360 H5345 0.960 . S
C5360 H5346 0.960 . S
C5360 H5347 0.960 . S
C5360 C5359 1.524 . S
C5361 C5358 1.403 1_455 S
C5361 C5362 1.392 . S
C5361 C5365 1.495 . S
C5362 C5361 1.392 . S
C5362 C5363 1.385 . S
C5362 C5364 1.478 . S
C5363 H5357 0.930 . S
C5363 C5359 1.400 1_455 S
C5363 C5362 1.385 . S
C5364 C5362 1.478 . S
C5364 C5366 1.381 . S
C5364 C5370 1.383 . S
C5365 C5361 1.495 . S
C5365 H5371 0.959 . S
C5365 H5372 0.961 . S
C5365 H5373 0.960 . S
C5366 C5364 1.381 . S
C5366 C5367 1.394 . S
C5366 H5374 0.930 . S
C5367 C5366 1.394 . S
C5367 C5368 1.383 . S
C5367 H5375 0.929 . S
C5368 C5367 1.383 . S
C5368 C5369 1.377 . S
C5369 H5353 0.930 . S
C5369 C5368 1.377 . S
C5369 C5370 1.379 . S
C5370 H5354 0.931 . S
C5370 C5364 1.383 . S
C5370 C5369 1.379 . S
H5371 C5365 0.959 . S
H5372 C5365 0.961 . S
H5373 C5365 0.960 . S
H5374 C5366 0.930 . S
H5375 C5367 0.929 . S
H5376 C5384 0.929 . S
H5377 C5386 0.930 . S
H5378 C5388 0.930 . S
H5379 C5391 0.929 . S
H5380 C5394 0.930 . S
H5381 C5396 0.960 . S
H5382 C5396 0.960 . S
H5383 C5396 0.960 . S
C5384 H5376 0.929 . S
C5384 C5385 1.377 . S
C5384 C5386 1.384 . S
C5385 C5384 1.377 . S
C5385 C5391 1.390 . S
C5386 H5377 0.930 . S
C5386 C5384 1.384 . S
C5386 C5387 1.372 . S
C5387 C5386 1.372 . S
C5387 C5388 1.400 . S
C5387 C5392 1.490 . S
C5388 H5378 0.930 . S
C5388 C5387 1.400 . S
C5388 C5391 1.386 . S
H5389 C5405 0.930 . S
H5390 C5406 0.931 . S
C5391 H5379 0.929 . S
C5391 C5385 1.390 . S
C5391 C5388 1.386 . S
C5392 C5387 1.490 . S
C5392 C5394 1.395 . S
C5392 C5395 1.403 . S
H5393 C5399 0.930 . S
C5394 H5380 0.930 . S
C5394 C5392 1.395 . S
C5394 C5397 1.403 1_554 S
C5395 C5392 1.403 . S
C5395 C5396 1.524 . S
C5395 C5399 1.400 1_554 S
C5396 H5381 0.960 . S
C5396 H5382 0.960 . S
C5396 H5383 0.960 . S
C5396 C5395 1.524 . S
C5397 C5394 1.403 1_556 S
C5397 C5398 1.392 . S
C5397 C5401 1.495 . S
C5398 C5397 1.392 . S
C5398 C5399 1.385 . S
C5398 C5400 1.478 . S
C5399 H5393 0.930 . S
C5399 C5395 1.400 1_556 S
C5399 C5398 1.385 . S
C5400 C5398 1.478 . S
C5400 C5402 1.381 . S
C5400 C5406 1.383 . S
C5401 C5397 1.495 . S
C5401 H5407 0.959 . S
C5401 H5408 0.961 . S
C5401 H5409 0.960 . S
C5402 C5400 1.381 . S
C5402 C5403 1.394 . S
C5402 H5410 0.930 . S
C5403 C5402 1.394 . S
C5403 C5404 1.383 . S
C5403 H5411 0.929 . S
C5404 C5403 1.383 . S
C5404 C5405 1.377 . S
C5405 H5389 0.930 . S
C5405 C5404 1.377 . S
C5405 C5406 1.379 . S
C5406 H5390 0.931 . S
C5406 C5400 1.383 . S
C5406 C5405 1.379 . S
H5407 C5401 0.959 . S
H5408 C5401 0.961 . S
H5409 C5401 0.960 . S
H5410 C5402 0.930 . S
H5411 C5403 0.929 . S
H5412 C5420 0.929 . S
H5413 C5422 0.930 . S
H5414 C5424 0.930 . S
H5415 C5427 0.929 . S
H5416 C5430 0.930 . S
H5417 C5432 0.960 . S
H5418 C5432 0.960 . S
H5419 C5432 0.960 . S
C5420 H5412 0.929 . S
C5420 C5421 1.377 . S
C5420 C5422 1.384 . S
C5421 C5420 1.377 . S
C5421 C5427 1.390 . S
C5422 H5413 0.930 . S
C5422 C5420 1.384 . S
C5422 C5423 1.372 . S
C5423 C5422 1.372 . S
C5423 C5424 1.400 . S
C5423 C5428 1.490 . S
C5424 H5414 0.930 . S
C5424 C5423 1.400 . S
C5424 C5427 1.386 . S
H5425 C5441 0.930 . S
H5426 C5442 0.931 . S
C5427 H5415 0.929 . S
C5427 C5421 1.390 . S
C5427 C5424 1.386 . S
C5428 C5423 1.490 . S
C5428 C5430 1.395 . S
C5428 C5431 1.403 . S
H5429 C5435 0.930 . S
C5430 H5416 0.930 . S
C5430 C5428 1.395 . S
C5430 C5433 1.403 1_556 S
C5431 C5428 1.403 . S
C5431 C5432 1.524 . S
C5431 C5435 1.400 1_556 S
C5432 H5417 0.960 . S
C5432 H5418 0.960 . S
C5432 H5419 0.960 . S
C5432 C5431 1.524 . S
C5433 C5430 1.403 1_554 S
C5433 C5434 1.392 . S
C5433 C5437 1.495 . S
C5434 C5433 1.392 . S
C5434 C5435 1.385 . S
C5434 C5436 1.478 . S
C5435 H5429 0.930 . S
C5435 C5431 1.400 1_554 S
C5435 C5434 1.385 . S
C5436 C5434 1.478 . S
C5436 C5438 1.381 . S
C5436 C5442 1.383 . S
C5437 C5433 1.495 . S
C5437 H5443 0.959 . S
C5437 H5444 0.961 . S
C5437 H5445 0.960 . S
C5438 C5436 1.381 . S
C5438 C5439 1.394 . S
C5438 H5446 0.930 . S
C5439 C5438 1.394 . S
C5439 C5440 1.383 . S
C5439 H5447 0.929 . S
C5440 C5439 1.383 . S
C5440 C5441 1.377 . S
C5441 H5425 0.930 . S
C5441 C5440 1.377 . S
C5441 C5442 1.379 . S
C5442 H5426 0.931 . S
C5442 C5436 1.383 . S
C5442 C5441 1.379 . S
H5443 C5437 0.959 . S
H5444 C5437 0.961 . S
H5445 C5437 0.960 . S
H5446 C5438 0.930 . S
H5447 C5439 0.929 . S
H5448 C5456 0.929 . S
H5449 C5458 0.930 . S
H5450 C5460 0.930 . S
H5451 C5463 0.929 . S
H5452 C5466 0.930 . S
H5453 C5468 0.960 . S
H5454 C5468 0.960 . S
H5455 C5468 0.960 . S
C5456 H5448 0.929 . S
C5456 C5457 1.377 . S
C5456 C5458 1.384 . S
C5457 C5456 1.377 . S
C5457 C5463 1.390 . S
C5458 H5449 0.930 . S
C5458 C5456 1.384 . S
C5458 C5459 1.372 . S
C5459 C5458 1.372 . S
C5459 C5460 1.400 . S
C5459 C5464 1.490 . S
C5460 H5450 0.930 . S
C5460 C5459 1.400 . S
C5460 C5463 1.386 . S
H5461 C5477 0.930 . S
H5462 C5478 0.931 . S
C5463 H5451 0.929 . S
C5463 C5457 1.390 . S
C5463 C5460 1.386 . S
C5464 C5459 1.490 . S
C5464 C5466 1.395 . S
C5464 C5467 1.403 . S
H5465 C5471 0.930 . S
C5466 H5452 0.930 . S
C5466 C5464 1.395 . S
C5466 C5469 1.403 1_554 S
C5467 C5464 1.403 . S
C5467 C5468 1.524 . S
C5467 C5471 1.400 1_554 S
C5468 H5453 0.960 . S
C5468 H5454 0.960 . S
C5468 H5455 0.960 . S
C5468 C5467 1.524 . S
C5469 C5466 1.403 1_556 S
C5469 C5470 1.392 . S
C5469 C5473 1.495 . S
C5470 C5469 1.392 . S
C5470 C5471 1.385 . S
C5470 C5472 1.478 . S
C5471 H5465 0.930 . S
C5471 C5467 1.400 1_556 S
C5471 C5470 1.385 . S
C5472 C5470 1.478 . S
C5472 C5474 1.381 . S
C5472 C5478 1.383 . S
C5473 C5469 1.495 . S
C5473 H5479 0.959 . S
C5473 H5480 0.961 . S
C5473 H5481 0.960 . S
C5474 C5472 1.381 . S
C5474 C5475 1.394 . S
C5474 H5482 0.930 . S
C5475 C5474 1.394 . S
C5475 C5476 1.383 . S
C5475 H5483 0.929 . S
C5476 C5475 1.383 . S
C5476 C5477 1.377 . S
C5477 H5461 0.930 . S
C5477 C5476 1.377 . S
C5477 C5478 1.379 . S
C5478 H5462 0.931 . S
C5478 C5472 1.383 . S
C5478 C5477 1.379 . S
H5479 C5473 0.959 . S
H5480 C5473 0.961 . S
H5481 C5473 0.960 . S
H5482 C5474 0.930 . S
H5483 C5475 0.929 . S
H5484 C5492 0.929 . S
H5485 C5494 0.930 . S
H5486 C5496 0.930 . S
H5487 C5499 0.929 . S
H5488 C5502 0.930 . S
H5489 C5504 0.960 . S
H5490 C5504 0.960 . S
H5491 C5504 0.960 . S
C5492 H5484 0.929 . S
C5492 C5493 1.377 . S
C5492 C5494 1.384 . S
C5493 C5492 1.377 . S
C5493 C5499 1.390 . S
C5494 H5485 0.930 . S
C5494 C5492 1.384 . S
C5494 C5495 1.372 . S
C5495 C5494 1.372 . S
C5495 C5496 1.400 . S
C5495 C5500 1.490 . S
C5496 H5486 0.930 . S
C5496 C5495 1.400 . S
C5496 C5499 1.386 . S
H5497 C5513 0.930 . S
H5498 C5514 0.931 . S
C5499 H5487 0.929 . S
C5499 C5493 1.390 . S
C5499 C5496 1.386 . S
C5500 C5495 1.490 . S
C5500 C5502 1.395 . S
C5500 C5503 1.403 . S
H5501 C5507 0.930 . S
C5502 H5488 0.930 . S
C5502 C5500 1.395 . S
C5502 C5505 1.403 1_556 S
C5503 C5500 1.403 . S
C5503 C5504 1.524 . S
C5503 C5507 1.400 1_556 S
C5504 H5489 0.960 . S
C5504 H5490 0.960 . S
C5504 H5491 0.960 . S
C5504 C5503 1.524 . S
C5505 C5502 1.403 1_554 S
C5505 C5506 1.392 . S
C5505 C5509 1.495 . S
C5506 C5505 1.392 . S
C5506 C5507 1.385 . S
C5506 C5508 1.478 . S
C5507 H5501 0.930 . S
C5507 C5503 1.400 1_554 S
C5507 C5506 1.385 . S
C5508 C5506 1.478 . S
C5508 C5510 1.381 . S
C5508 C5514 1.383 . S
C5509 C5505 1.495 . S
C5509 H5515 0.959 . S
C5509 H5516 0.961 . S
C5509 H5517 0.960 . S
C5510 C5508 1.381 . S
C5510 C5511 1.394 . S
C5510 H5518 0.930 . S
C5511 C5510 1.394 . S
C5511 C5512 1.383 . S
C5511 H5519 0.929 . S
C5512 C5511 1.383 . S
C5512 C5513 1.377 . S
C5513 H5497 0.930 . S
C5513 C5512 1.377 . S
C5513 C5514 1.379 . S
C5514 H5498 0.931 . S
C5514 C5508 1.383 . S
C5514 C5513 1.379 . S
H5515 C5509 0.959 . S
H5516 C5509 0.961 . S
H5517 C5509 0.960 . S
H5518 C5510 0.930 . S
H5519 C5511 0.929 . S
H5520 C5528 0.929 . S
H5521 C5530 0.930 . S
H5522 C5532 0.930 . S
H5523 C5535 0.929 . S
H5524 C5538 0.930 . S
H5525 C5540 0.960 . S
H5526 C5540 0.960 . S
H5527 C5540 0.960 . S
C5528 H5520 0.929 . S
C5528 C5529 1.377 . S
C5528 C5530 1.384 . S
C5529 C5528 1.377 . S
C5529 C5535 1.390 . S
C5530 H5521 0.930 . S
C5530 C5528 1.384 . S
C5530 C5531 1.372 . S
C5531 C5530 1.372 . S
C5531 C5532 1.400 . S
C5531 C5536 1.490 . S
C5532 H5522 0.930 . S
C5532 C5531 1.400 . S
C5532 C5535 1.386 . S
H5533 C5549 0.930 . S
H5534 C5550 0.931 . S
C5535 H5523 0.929 . S
C5535 C5529 1.390 . S
C5535 C5532 1.386 . S
C5536 C5531 1.490 . S
C5536 C5538 1.395 . S
C5536 C5539 1.403 . S
H5537 C5543 0.930 . S
C5538 H5524 0.930 . S
C5538 C5536 1.395 . S
C5538 C5541 1.403 1_554 S
C5539 C5536 1.403 . S
C5539 C5540 1.524 . S
C5539 C5543 1.400 1_554 S
C5540 H5525 0.960 . S
C5540 H5526 0.960 . S
C5540 H5527 0.960 . S
C5540 C5539 1.524 . S
C5541 C5538 1.403 1_556 S
C5541 C5542 1.392 . S
C5541 C5545 1.495 . S
C5542 C5541 1.392 . S
C5542 C5543 1.385 . S
C5542 C5544 1.478 . S
C5543 H5537 0.930 . S
C5543 C5539 1.400 1_556 S
C5543 C5542 1.385 . S
C5544 C5542 1.478 . S
C5544 C5546 1.381 . S
C5544 C5550 1.383 . S
C5545 C5541 1.495 . S
C5545 H5551 0.959 . S
C5545 H5552 0.961 . S
C5545 H5553 0.960 . S
C5546 C5544 1.381 . S
C5546 C5547 1.394 . S
C5546 H5554 0.930 . S
C5547 C5546 1.394 . S
C5547 C5548 1.383 . S
C5547 H5555 0.929 . S
C5548 C5547 1.383 . S
C5548 C5549 1.377 . S
C5549 H5533 0.930 . S
C5549 C5548 1.377 . S
C5549 C5550 1.379 . S
C5550 H5534 0.931 . S
C5550 C5544 1.383 . S
C5550 C5549 1.379 . S
H5551 C5545 0.959 . S
H5552 C5545 0.961 . S
H5553 C5545 0.960 . S
H5554 C5546 0.930 . S
H5555 C5547 0.929 . S
H5556 C5564 0.929 . S
H5557 C5566 0.930 . S
H5558 C5568 0.930 . S
H5559 C5571 0.929 . S
H5560 C5574 0.930 . S
H5561 C5576 0.960 . S
H5562 C5576 0.960 . S
H5563 C5576 0.960 . S
C5564 H5556 0.929 . S
C5564 C5565 1.377 . S
C5564 C5566 1.384 . S
C5565 C5564 1.377 . S
C5565 C5571 1.390 . S
C5566 H5557 0.930 . S
C5566 C5564 1.384 . S
C5566 C5567 1.372 . S
C5567 C5566 1.372 . S
C5567 C5568 1.400 . S
C5567 C5572 1.490 . S
C5568 H5558 0.930 . S
C5568 C5567 1.400 . S
C5568 C5571 1.386 . S
H5569 C5585 0.930 . S
H5570 C5586 0.931 . S
C5571 H5559 0.929 . S
C5571 C5565 1.390 . S
C5571 C5568 1.386 . S
C5572 C5567 1.490 . S
C5572 C5574 1.395 . S
C5572 C5575 1.403 . S
H5573 C5579 0.930 . S
C5574 H5560 0.930 . S
C5574 C5572 1.395 . S
C5574 C5577 1.403 1_554 S
C5575 C5572 1.403 . S
C5575 C5576 1.524 . S
C5575 C5579 1.400 1_554 S
C5576 H5561 0.960 . S
C5576 H5562 0.960 . S
C5576 H5563 0.960 . S
C5576 C5575 1.524 . S
C5577 C5574 1.403 1_556 S
C5577 C5578 1.392 . S
C5577 C5581 1.495 . S
C5578 C5577 1.392 . S
C5578 C5579 1.385 . S
C5578 C5580 1.478 . S
C5579 H5573 0.930 . S
C5579 C5575 1.400 1_556 S
C5579 C5578 1.385 . S
C5580 C5578 1.478 . S
C5580 C5582 1.381 . S
C5580 C5586 1.383 . S
C5581 C5577 1.495 . S
C5581 H5587 0.959 . S
C5581 H5588 0.961 . S
C5581 H5589 0.960 . S
C5582 C5580 1.381 . S
C5582 C5583 1.394 . S
C5582 H5590 0.930 . S
C5583 C5582 1.394 . S
C5583 C5584 1.383 . S
C5583 H5591 0.929 . S
C5584 C5583 1.383 . S
C5584 C5585 1.377 . S
C5585 H5569 0.930 . S
C5585 C5584 1.377 . S
C5585 C5586 1.379 . S
C5586 H5570 0.931 . S
C5586 C5580 1.383 . S
C5586 C5585 1.379 . S
H5587 C5581 0.959 . S
H5588 C5581 0.961 . S
H5589 C5581 0.960 . S
H5590 C5582 0.930 . S
H5591 C5583 0.929 . S
H5592 C5600 0.929 . S
H5593 C5602 0.930 . S
H5594 C5604 0.930 . S
H5595 C5607 0.929 . S
H5596 C5610 0.930 . S
H5597 C5612 0.960 . S
H5598 C5612 0.960 . S
H5599 C5612 0.960 . S
C5600 H5592 0.929 . S
C5600 C5601 1.377 . S
C5600 C5602 1.384 . S
C5601 C5600 1.377 . S
C5601 C5607 1.390 . S
C5602 H5593 0.930 . S
C5602 C5600 1.384 . S
C5602 C5603 1.372 . S
C5603 C5602 1.372 . S
C5603 C5604 1.400 . S
C5603 C5608 1.490 . S
C5604 H5594 0.930 . S
C5604 C5603 1.400 . S
C5604 C5607 1.386 . S
H5605 C5621 0.930 . S
H5606 C5622 0.931 . S
C5607 H5595 0.929 . S
C5607 C5601 1.390 . S
C5607 C5604 1.386 . S
C5608 C5603 1.490 . S
C5608 C5610 1.395 . S
C5608 C5611 1.403 . S
H5609 C5615 0.930 . S
C5610 H5596 0.930 . S
C5610 C5608 1.395 . S
C5610 C5613 1.403 1_554 S
C5611 C5608 1.403 . S
C5611 C5612 1.524 . S
C5611 C5615 1.400 1_554 S
C5612 H5597 0.960 . S
C5612 H5598 0.960 . S
C5612 H5599 0.960 . S
C5612 C5611 1.524 . S
C5613 C5610 1.403 1_556 S
C5613 C5614 1.392 . S
C5613 C5617 1.495 . S
C5614 C5613 1.392 . S
C5614 C5615 1.385 . S
C5614 C5616 1.478 . S
C5615 H5609 0.930 . S
C5615 C5611 1.400 1_556 S
C5615 C5614 1.385 . S
C5616 C5614 1.478 . S
C5616 C5618 1.381 . S
C5616 C5622 1.383 . S
C5617 C5613 1.495 . S
C5617 H5623 0.959 . S
C5617 H5624 0.961 . S
C5617 H5625 0.960 . S
C5618 C5616 1.381 . S
C5618 C5619 1.394 . S
C5618 H5626 0.930 . S
C5619 C5618 1.394 . S
C5619 C5620 1.383 . S
C5619 H5627 0.929 . S
C5620 C5619 1.383 . S
C5620 C5621 1.377 . S
C5621 H5605 0.930 . S
C5621 C5620 1.377 . S
C5621 C5622 1.379 . S
C5622 H5606 0.931 . S
C5622 C5616 1.383 . S
C5622 C5621 1.379 . S
H5623 C5617 0.959 . S
H5624 C5617 0.961 . S
H5625 C5617 0.960 . S
H5626 C5618 0.930 . S
H5627 C5619 0.929 . S
H5628 C5636 0.929 . S
H5629 C5638 0.930 . S
H5630 C5640 0.930 . S
H5631 C5643 0.929 . S
H5632 C5646 0.930 . S
H5633 C5648 0.960 . S
H5634 C5648 0.960 . S
H5635 C5648 0.960 . S
C5636 H5628 0.929 . S
C5636 C5637 1.377 . S
C5636 C5638 1.384 . S
C5637 C5636 1.377 . S
C5637 C5643 1.390 . S
C5638 H5629 0.930 . S
C5638 C5636 1.384 . S
C5638 C5639 1.372 . S
C5639 C5638 1.372 . S
C5639 C5640 1.400 . S
C5639 C5644 1.490 . S
C5640 H5630 0.930 . S
C5640 C5639 1.400 . S
C5640 C5643 1.386 . S
H5641 C5657 0.930 . S
H5642 C5658 0.931 . S
C5643 H5631 0.929 . S
C5643 C5637 1.390 . S
C5643 C5640 1.386 . S
C5644 C5639 1.490 . S
C5644 C5646 1.395 . S
C5644 C5647 1.403 . S
H5645 C5651 0.930 . S
C5646 H5632 0.930 . S
C5646 C5644 1.395 . S
C5646 C5649 1.403 1_556 S
C5647 C5644 1.403 . S
C5647 C5648 1.524 . S
C5647 C5651 1.400 1_556 S
C5648 H5633 0.960 . S
C5648 H5634 0.960 . S
C5648 H5635 0.960 . S
C5648 C5647 1.524 . S
C5649 C5646 1.403 1_554 S
C5649 C5650 1.392 . S
C5649 C5653 1.495 . S
C5650 C5649 1.392 . S
C5650 C5651 1.385 . S
C5650 C5652 1.478 . S
C5651 H5645 0.930 . S
C5651 C5647 1.400 1_554 S
C5651 C5650 1.385 . S
C5652 C5650 1.478 . S
C5652 C5654 1.381 . S
C5652 C5658 1.383 . S
C5653 C5649 1.495 . S
C5653 H5659 0.959 . S
C5653 H5660 0.961 . S
C5653 H5661 0.960 . S
C5654 C5652 1.381 . S
C5654 C5655 1.394 . S
C5654 H5662 0.930 . S
C5655 C5654 1.394 . S
C5655 C5656 1.383 . S
C5655 H5663 0.929 . S
C5656 C5655 1.383 . S
C5656 C5657 1.377 . S
C5657 H5641 0.930 . S
C5657 C5656 1.377 . S
C5657 C5658 1.379 . S
C5658 H5642 0.931 . S
C5658 C5652 1.383 . S
C5658 C5657 1.379 . S
H5659 C5653 0.959 . S
H5660 C5653 0.961 . S
H5661 C5653 0.960 . S
H5662 C5654 0.930 . S
H5663 C5655 0.929 . S
H5664 C5672 0.929 . S
H5665 C5674 0.930 . S
H5666 C5676 0.930 . S
H5667 C5679 0.929 . S
H5668 C5682 0.930 . S
H5669 C5684 0.960 . S
H5670 C5684 0.960 . S
H5671 C5684 0.960 . S
C5672 H5664 0.929 . S
C5672 C5673 1.377 . S
C5672 C5674 1.384 . S
C5673 C5672 1.377 . S
C5673 C5679 1.390 . S
C5674 H5665 0.930 . S
C5674 C5672 1.384 . S
C5674 C5675 1.372 . S
C5675 C5674 1.372 . S
C5675 C5676 1.400 . S
C5675 C5680 1.490 . S
C5676 H5666 0.930 . S
C5676 C5675 1.400 . S
C5676 C5679 1.386 . S
H5677 C5693 0.930 . S
H5678 C5694 0.931 . S
C5679 H5667 0.929 . S
C5679 C5673 1.390 . S
C5679 C5676 1.386 . S
C5680 C5675 1.490 . S
C5680 C5682 1.395 . S
C5680 C5683 1.403 . S
H5681 C5687 0.930 . S
C5682 H5668 0.930 . S
C5682 C5680 1.395 . S
C5682 C5685 1.403 . S
C5683 C5680 1.403 . S
C5683 C5684 1.524 . S
C5683 C5687 1.400 . S
C5684 H5669 0.960 . S
C5684 H5670 0.960 . S
C5684 H5671 0.960 . S
C5684 C5683 1.524 . S
C5685 C5682 1.403 . S
C5685 C5686 1.392 . S
C5685 C5689 1.495 . S
C5686 C5685 1.392 . S
C5686 C5687 1.385 . S
C5686 C5688 1.478 . S
C5687 H5681 0.930 . S
C5687 C5683 1.400 . S
C5687 C5686 1.385 . S
C5688 C5686 1.478 . S
C5688 C5690 1.381 . S
C5688 C5694 1.383 . S
C5689 C5685 1.495 . S
C5689 H5695 0.959 . S
C5689 H5696 0.961 . S
C5689 H5697 0.960 . S
C5690 C5688 1.381 . S
C5690 C5691 1.394 . S
C5690 H5698 0.930 . S
C5691 C5690 1.394 . S
C5691 C5692 1.383 . S
C5691 H5699 0.929 . S
C5692 C5691 1.383 . S
C5692 C5693 1.377 . S
C5693 H5677 0.930 . S
C5693 C5692 1.377 . S
C5693 C5694 1.379 . S
C5694 H5678 0.931 . S
C5694 C5688 1.383 . S
C5694 C5693 1.379 . S
H5695 C5689 0.959 . S
H5696 C5689 0.961 . S
H5697 C5689 0.960 . S
H5698 C5690 0.930 . S
H5699 C5691 0.929 . S
H5700 C5708 0.929 . S
H5701 C5710 0.930 . S
H5702 C5712 0.930 . S
H5703 C5715 0.929 . S
H5704 C5718 0.930 . S
H5705 C5720 0.960 . S
H5706 C5720 0.960 . S
H5707 C5720 0.960 . S
C5708 H5700 0.929 . S
C5708 C5709 1.377 . S
C5708 C5710 1.384 . S
C5709 C5708 1.377 . S
C5709 C5715 1.390 . S
C5710 H5701 0.930 . S
C5710 C5708 1.384 . S
C5710 C5711 1.372 . S
C5711 C5710 1.372 . S
C5711 C5712 1.400 . S
C5711 C5716 1.490 . S
C5712 H5702 0.930 . S
C5712 C5711 1.400 . S
C5712 C5715 1.386 . S
H5713 C5729 0.930 . S
H5714 C5730 0.931 . S
C5715 H5703 0.929 . S
C5715 C5709 1.390 . S
C5715 C5712 1.386 . S
C5716 C5711 1.490 . S
C5716 C5718 1.395 . S
C5716 C5719 1.403 . S
H5717 C5723 0.930 . S
C5718 H5704 0.930 . S
C5718 C5716 1.395 . S
C5718 C5721 1.403 . S
C5719 C5716 1.403 . S
C5719 C5720 1.524 . S
C5719 C5723 1.400 . S
C5720 H5705 0.960 . S
C5720 H5706 0.960 . S
C5720 H5707 0.960 . S
C5720 C5719 1.524 . S
C5721 C5718 1.403 . S
C5721 C5722 1.392 . S
C5721 C5725 1.495 . S
C5722 C5721 1.392 . S
C5722 C5723 1.385 . S
C5722 C5724 1.478 . S
C5723 H5717 0.930 . S
C5723 C5719 1.400 . S
C5723 C5722 1.385 . S
C5724 C5722 1.478 . S
C5724 C5726 1.381 . S
C5724 C5730 1.383 . S
C5725 C5721 1.495 . S
C5725 H5731 0.959 . S
C5725 H5732 0.961 . S
C5725 H5733 0.960 . S
C5726 C5724 1.381 . S
C5726 C5727 1.394 . S
C5726 H5734 0.930 . S
C5727 C5726 1.394 . S
C5727 C5728 1.383 . S
C5727 H5735 0.929 . S
C5728 C5727 1.383 . S
C5728 C5729 1.377 . S
C5729 H5713 0.930 . S
C5729 C5728 1.377 . S
C5729 C5730 1.379 . S
C5730 H5714 0.931 . S
C5730 C5724 1.383 . S
C5730 C5729 1.379 . S
H5731 C5725 0.959 . S
H5732 C5725 0.961 . S
H5733 C5725 0.960 . S
H5734 C5726 0.930 . S
H5735 C5727 0.929 . S
H5736 C5744 0.929 . S
H5737 C5746 0.930 . S
H5738 C5748 0.930 . S
H5739 C5751 0.929 . S
H5740 C5754 0.930 . S
H5741 C5756 0.960 . S
H5742 C5756 0.960 . S
H5743 C5756 0.960 . S
C5744 H5736 0.929 . S
C5744 C5745 1.377 . S
C5744 C5746 1.384 . S
C5745 C5744 1.377 . S
C5745 C5751 1.390 . S
C5746 H5737 0.930 . S
C5746 C5744 1.384 . S
C5746 C5747 1.372 . S
C5747 C5746 1.372 . S
C5747 C5748 1.400 . S
C5747 C5752 1.490 . S
C5748 H5738 0.930 . S
C5748 C5747 1.400 . S
C5748 C5751 1.386 . S
H5749 C5765 0.930 . S
H5750 C5766 0.931 . S
C5751 H5739 0.929 . S
C5751 C5745 1.390 . S
C5751 C5748 1.386 . S
C5752 C5747 1.490 . S
C5752 C5754 1.395 . S
C5752 C5755 1.403 . S
H5753 C5759 0.930 . S
C5754 H5740 0.930 . S
C5754 C5752 1.395 . S
C5754 C5757 1.403 . S
C5755 C5752 1.403 . S
C5755 C5756 1.524 . S
C5755 C5759 1.400 . S
C5756 H5741 0.960 . S
C5756 H5742 0.960 . S
C5756 H5743 0.960 . S
C5756 C5755 1.524 . S
C5757 C5754 1.403 . S
C5757 C5758 1.392 . S
C5757 C5761 1.495 . S
C5758 C5757 1.392 . S
C5758 C5759 1.385 . S
C5758 C5760 1.478 . S
C5759 H5753 0.930 . S
C5759 C5755 1.400 . S
C5759 C5758 1.385 . S
C5760 C5758 1.478 . S
C5760 C5762 1.381 . S
C5760 C5766 1.383 . S
C5761 C5757 1.495 . S
C5761 H5767 0.959 . S
C5761 H5768 0.961 . S
C5761 H5769 0.960 . S
C5762 C5760 1.381 . S
C5762 C5763 1.394 . S
C5762 H5770 0.930 . S
C5763 C5762 1.394 . S
C5763 C5764 1.383 . S
C5763 H5771 0.929 . S
C5764 C5763 1.383 . S
C5764 C5765 1.377 . S
C5765 H5749 0.930 . S
C5765 C5764 1.377 . S
C5765 C5766 1.379 . S
C5766 H5750 0.931 . S
C5766 C5760 1.383 . S
C5766 C5765 1.379 . S
H5767 C5761 0.959 . S
H5768 C5761 0.961 . S
H5769 C5761 0.960 . S
H5770 C5762 0.930 . S
H5771 C5763 0.929 . S
H5772 C5780 0.929 . S
H5773 C5782 0.930 . S
H5774 C5784 0.930 . S
H5775 C5787 0.929 . S
H5776 C5790 0.930 . S
H5777 C5792 0.960 . S
H5778 C5792 0.960 . S
H5779 C5792 0.960 . S
C5780 H5772 0.929 . S
C5780 C5781 1.377 . S
C5780 C5782 1.384 . S
C5781 C5780 1.377 . S
C5781 C5787 1.390 . S
C5782 H5773 0.930 . S
C5782 C5780 1.384 . S
C5782 C5783 1.372 . S
C5783 C5782 1.372 . S
C5783 C5784 1.400 . S
C5783 C5788 1.490 . S
C5784 H5774 0.930 . S
C5784 C5783 1.400 . S
C5784 C5787 1.386 . S
H5785 C5801 0.930 . S
H5786 C5802 0.931 . S
C5787 H5775 0.929 . S
C5787 C5781 1.390 . S
C5787 C5784 1.386 . S
C5788 C5783 1.490 . S
C5788 C5790 1.395 . S
C5788 C5791 1.403 . S
H5789 C5795 0.930 . S
C5790 H5776 0.930 . S
C5790 C5788 1.395 . S
C5790 C5793 1.403 . S
C5791 C5788 1.403 . S
C5791 C5792 1.524 . S
C5791 C5795 1.400 . S
C5792 H5777 0.960 . S
C5792 H5778 0.960 . S
C5792 H5779 0.960 . S
C5792 C5791 1.524 . S
C5793 C5790 1.403 . S
C5793 C5794 1.392 . S
C5793 C5797 1.495 . S
C5794 C5793 1.392 . S
C5794 C5795 1.385 . S
C5794 C5796 1.478 . S
C5795 H5789 0.930 . S
C5795 C5791 1.400 . S
C5795 C5794 1.385 . S
C5796 C5794 1.478 . S
C5796 C5798 1.381 . S
C5796 C5802 1.383 . S
C5797 C5793 1.495 . S
C5797 H5803 0.959 . S
C5797 H5804 0.961 . S
C5797 H5805 0.960 . S
C5798 C5796 1.381 . S
C5798 C5799 1.394 . S
C5798 H5806 0.930 . S
C5799 C5798 1.394 . S
C5799 C5800 1.383 . S
C5799 H5807 0.929 . S
C5800 C5799 1.383 . S
C5800 C5801 1.377 . S
C5801 H5785 0.930 . S
C5801 C5800 1.377 . S
C5801 C5802 1.379 . S
C5802 H5786 0.931 . S
C5802 C5796 1.383 . S
C5802 C5801 1.379 . S
H5803 C5797 0.959 . S
H5804 C5797 0.961 . S
H5805 C5797 0.960 . S
H5806 C5798 0.930 . S
H5807 C5799 0.929 . S
H5808 C5816 0.929 . S
H5809 C5818 0.930 . S
H5810 C5820 0.930 . S
H5811 C5823 0.929 . S
H5812 C5826 0.930 . S
H5813 C5828 0.960 . S
H5814 C5828 0.960 . S
H5815 C5828 0.960 . S
C5816 H5808 0.929 . S
C5816 C5817 1.377 . S
C5816 C5818 1.384 . S
C5817 C5816 1.377 . S
C5817 C5823 1.390 . S
C5818 H5809 0.930 . S
C5818 C5816 1.384 . S
C5818 C5819 1.372 . S
C5819 C5818 1.372 . S
C5819 C5820 1.400 . S
C5819 C5824 1.490 . S
C5820 H5810 0.930 . S
C5820 C5819 1.400 . S
C5820 C5823 1.386 . S
H5821 C5837 0.930 . S
H5822 C5838 0.931 . S
C5823 H5811 0.929 . S
C5823 C5817 1.390 . S
C5823 C5820 1.386 . S
C5824 C5819 1.490 . S
C5824 C5826 1.395 . S
C5824 C5827 1.403 . S
H5825 C5831 0.930 . S
C5826 H5812 0.930 . S
C5826 C5824 1.395 . S
C5826 C5829 1.403 . S
C5827 C5824 1.403 . S
C5827 C5828 1.524 . S
C5827 C5831 1.400 . S
C5828 H5813 0.960 . S
C5828 H5814 0.960 . S
C5828 H5815 0.960 . S
C5828 C5827 1.524 . S
C5829 C5826 1.403 . S
C5829 C5830 1.392 . S
C5829 C5833 1.495 . S
C5830 C5829 1.392 . S
C5830 C5831 1.385 . S
C5830 C5832 1.478 . S
C5831 H5825 0.930 . S
C5831 C5827 1.400 . S
C5831 C5830 1.385 . S
C5832 C5830 1.478 . S
C5832 C5834 1.381 . S
C5832 C5838 1.383 . S
C5833 C5829 1.495 . S
C5833 H5839 0.959 . S
C5833 H5840 0.961 . S
C5833 H5841 0.960 . S
C5834 C5832 1.381 . S
C5834 C5835 1.394 . S
C5834 H5842 0.930 . S
C5835 C5834 1.394 . S
C5835 C5836 1.383 . S
C5835 H5843 0.929 . S
C5836 C5835 1.383 . S
C5836 C5837 1.377 . S
C5837 H5821 0.930 . S
C5837 C5836 1.377 . S
C5837 C5838 1.379 . S
C5838 H5822 0.931 . S
C5838 C5832 1.383 . S
C5838 C5837 1.379 . S
H5839 C5833 0.959 . S
H5840 C5833 0.961 . S
H5841 C5833 0.960 . S
H5842 C5834 0.930 . S
H5843 C5835 0.929 . S
H5844 C5852 0.929 . S
H5845 C5854 0.930 . S
H5846 C5856 0.930 . S
H5847 C5859 0.929 . S
H5848 C5862 0.930 . S
H5849 C5864 0.960 . S
H5850 C5864 0.960 . S
H5851 C5864 0.960 . S
C5852 H5844 0.929 . S
C5852 C5853 1.377 . S
C5852 C5854 1.384 . S
C5853 C5852 1.377 . S
C5853 C5859 1.390 . S
C5854 H5845 0.930 . S
C5854 C5852 1.384 . S
C5854 C5855 1.372 . S
C5855 C5854 1.372 . S
C5855 C5856 1.400 . S
C5855 C5860 1.490 . S
C5856 H5846 0.930 . S
C5856 C5855 1.400 . S
C5856 C5859 1.386 . S
H5857 C5873 0.930 . S
H5858 C5874 0.931 . S
C5859 H5847 0.929 . S
C5859 C5853 1.390 . S
C5859 C5856 1.386 . S
C5860 C5855 1.490 . S
C5860 C5862 1.395 . S
C5860 C5863 1.403 . S
H5861 C5867 0.930 . S
C5862 H5848 0.930 . S
C5862 C5860 1.395 . S
C5862 C5865 1.403 . S
C5863 C5860 1.403 . S
C5863 C5864 1.524 . S
C5863 C5867 1.400 . S
C5864 H5849 0.960 . S
C5864 H5850 0.960 . S
C5864 H5851 0.960 . S
C5864 C5863 1.524 . S
C5865 C5862 1.403 . S
C5865 C5866 1.392 . S
C5865 C5869 1.495 . S
C5866 C5865 1.392 . S
C5866 C5867 1.385 . S
C5866 C5868 1.478 . S
C5867 H5861 0.930 . S
C5867 C5863 1.400 . S
C5867 C5866 1.385 . S
C5868 C5866 1.478 . S
C5868 C5870 1.381 . S
C5868 C5874 1.383 . S
C5869 C5865 1.495 . S
C5869 H5875 0.959 . S
C5869 H5876 0.961 . S
C5869 H5877 0.960 . S
C5870 C5868 1.381 . S
C5870 C5871 1.394 . S
C5870 H5878 0.930 . S
C5871 C5870 1.394 . S
C5871 C5872 1.383 . S
C5871 H5879 0.929 . S
C5872 C5871 1.383 . S
C5872 C5873 1.377 . S
C5873 H5857 0.930 . S
C5873 C5872 1.377 . S
C5873 C5874 1.379 . S
C5874 H5858 0.931 . S
C5874 C5868 1.383 . S
C5874 C5873 1.379 . S
H5875 C5869 0.959 . S
H5876 C5869 0.961 . S
H5877 C5869 0.960 . S
H5878 C5870 0.930 . S
H5879 C5871 0.929 . S
H5880 C5888 0.929 . S
H5881 C5890 0.930 . S
H5882 C5892 0.930 . S
H5883 C5895 0.929 . S
H5884 C5898 0.930 . S
H5885 C5900 0.960 . S
H5886 C5900 0.960 . S
H5887 C5900 0.960 . S
C5888 H5880 0.929 . S
C5888 C5889 1.377 . S
C5888 C5890 1.384 . S
C5889 C5888 1.377 . S
C5889 C5895 1.390 . S
C5890 H5881 0.930 . S
C5890 C5888 1.384 . S
C5890 C5891 1.372 . S
C5891 C5890 1.372 . S
C5891 C5892 1.400 . S
C5891 C5896 1.490 . S
C5892 H5882 0.930 . S
C5892 C5891 1.400 . S
C5892 C5895 1.386 . S
H5893 C5909 0.930 . S
H5894 C5910 0.931 . S
C5895 H5883 0.929 . S
C5895 C5889 1.390 . S
C5895 C5892 1.386 . S
C5896 C5891 1.490 . S
C5896 C5898 1.395 . S
C5896 C5899 1.403 . S
H5897 C5903 0.930 . S
C5898 H5884 0.930 . S
C5898 C5896 1.395 . S
C5898 C5901 1.403 . S
C5899 C5896 1.403 . S
C5899 C5900 1.524 . S
C5899 C5903 1.400 . S
C5900 H5885 0.960 . S
C5900 H5886 0.960 . S
C5900 H5887 0.960 . S
C5900 C5899 1.524 . S
C5901 C5898 1.403 . S
C5901 C5902 1.392 . S
C5901 C5905 1.495 . S
C5902 C5901 1.392 . S
C5902 C5903 1.385 . S
C5902 C5904 1.478 . S
C5903 H5897 0.930 . S
C5903 C5899 1.400 . S
C5903 C5902 1.385 . S
C5904 C5902 1.478 . S
C5904 C5906 1.381 . S
C5904 C5910 1.383 . S
C5905 C5901 1.495 . S
C5905 H5911 0.959 . S
C5905 H5912 0.961 . S
C5905 H5913 0.960 . S
C5906 C5904 1.381 . S
C5906 C5907 1.394 . S
C5906 H5914 0.930 . S
C5907 C5906 1.394 . S
C5907 C5908 1.383 . S
C5907 H5915 0.929 . S
C5908 C5907 1.383 . S
C5908 C5909 1.377 . S
C5909 H5893 0.930 . S
C5909 C5908 1.377 . S
C5909 C5910 1.379 . S
C5910 H5894 0.931 . S
C5910 C5904 1.383 . S
C5910 C5909 1.379 . S
H5911 C5905 0.959 . S
H5912 C5905 0.961 . S
H5913 C5905 0.960 . S
H5914 C5906 0.930 . S
H5915 C5907 0.929 . S
H5916 C5924 0.929 . S
H5917 C5926 0.930 . S
H5918 C5928 0.930 . S
H5919 C5931 0.929 . S
H5920 C5934 0.930 . S
H5921 C5936 0.960 . S
H5922 C5936 0.960 . S
H5923 C5936 0.960 . S
C5924 H5916 0.929 . S
C5924 C5925 1.377 . S
C5924 C5926 1.384 . S
C5925 C5924 1.377 . S
C5925 C5931 1.390 . S
C5926 H5917 0.930 . S
C5926 C5924 1.384 . S
C5926 C5927 1.372 . S
C5927 C5926 1.372 . S
C5927 C5928 1.400 . S
C5927 C5932 1.490 . S
C5928 H5918 0.930 . S
C5928 C5927 1.400 . S
C5928 C5931 1.386 . S
H5929 C5945 0.930 . S
H5930 C5946 0.931 . S
C5931 H5919 0.929 . S
C5931 C5925 1.390 . S
C5931 C5928 1.386 . S
C5932 C5927 1.490 . S
C5932 C5934 1.395 . S
C5932 C5935 1.403 . S
H5933 C5939 0.930 . S
C5934 H5920 0.930 . S
C5934 C5932 1.395 . S
C5934 C5937 1.403 . S
C5935 C5932 1.403 . S
C5935 C5936 1.524 . S
C5935 C5939 1.400 . S
C5936 H5921 0.960 . S
C5936 H5922 0.960 . S
C5936 H5923 0.960 . S
C5936 C5935 1.524 . S
C5937 C5934 1.403 . S
C5937 C5938 1.392 . S
C5937 C5941 1.495 . S
C5938 C5937 1.392 . S
C5938 C5939 1.385 . S
C5938 C5940 1.478 . S
C5939 H5933 0.930 . S
C5939 C5935 1.400 . S
C5939 C5938 1.385 . S
C5940 C5938 1.478 . S
C5940 C5942 1.381 . S
C5940 C5946 1.383 . S
C5941 C5937 1.495 . S
C5941 H5947 0.959 . S
C5941 H5948 0.961 . S
C5941 H5949 0.960 . S
C5942 C5940 1.381 . S
C5942 C5943 1.394 . S
C5942 H5950 0.930 . S
C5943 C5942 1.394 . S
C5943 C5944 1.383 . S
C5943 H5951 0.929 . S
C5944 C5943 1.383 . S
C5944 C5945 1.377 . S
C5945 H5929 0.930 . S
C5945 C5944 1.377 . S
C5945 C5946 1.379 . S
C5946 H5930 0.931 . S
C5946 C5940 1.383 . S
C5946 C5945 1.379 . S
H5947 C5941 0.959 . S
H5948 C5941 0.961 . S
H5949 C5941 0.960 . S
H5950 C5942 0.930 . S
H5951 C5943 0.929 . S
H5952 C5960 0.929 . S
H5953 C5962 0.930 . S
H5954 C5964 0.930 . S
H5955 C5967 0.929 . S
H5956 C5970 0.930 . S
H5957 C5972 0.960 . S
H5958 C5972 0.960 . S
H5959 C5972 0.960 . S
C5960 H5952 0.929 . S
C5960 C5961 1.377 . S
C5960 C5962 1.384 . S
C5961 C5960 1.377 . S
C5961 C5967 1.390 . S
C5962 H5953 0.930 . S
C5962 C5960 1.384 . S
C5962 C5963 1.372 . S
C5963 C5962 1.372 . S
C5963 C5964 1.400 . S
C5963 C5968 1.490 . S
C5964 H5954 0.930 . S
C5964 C5963 1.400 . S
C5964 C5967 1.386 . S
H5965 C5981 0.930 . S
H5966 C5982 0.931 . S
C5967 H5955 0.929 . S
C5967 C5961 1.390 . S
C5967 C5964 1.386 . S
C5968 C5963 1.490 . S
C5968 C5970 1.395 . S
C5968 C5971 1.403 . S
H5969 C5975 0.930 . S
C5970 H5956 0.930 . S
C5970 C5968 1.395 . S
C5970 C5973 1.403 . S
C5971 C5968 1.403 . S
C5971 C5972 1.524 . S
C5971 C5975 1.400 . S
C5972 H5957 0.960 . S
C5972 H5958 0.960 . S
C5972 H5959 0.960 . S
C5972 C5971 1.524 . S
C5973 C5970 1.403 . S
C5973 C5974 1.392 . S
C5973 C5977 1.495 . S
C5974 C5973 1.392 . S
C5974 C5975 1.385 . S
C5974 C5976 1.478 . S
C5975 H5969 0.930 . S
C5975 C5971 1.400 . S
C5975 C5974 1.385 . S
C5976 C5974 1.478 . S
C5976 C5978 1.381 . S
C5976 C5982 1.383 . S
C5977 C5973 1.495 . S
C5977 H5983 0.959 . S
C5977 H5984 0.961 . S
C5977 H5985 0.960 . S
C5978 C5976 1.381 . S
C5978 C5979 1.394 . S
C5978 H5986 0.930 . S
C5979 C5978 1.394 . S
C5979 C5980 1.383 . S
C5979 H5987 0.929 . S
C5980 C5979 1.383 . S
C5980 C5981 1.377 . S
C5981 H5965 0.930 . S
C5981 C5980 1.377 . S
C5981 C5982 1.379 . S
C5982 H5966 0.931 . S
C5982 C5976 1.383 . S
C5982 C5981 1.379 . S
H5983 C5977 0.959 . S
H5984 C5977 0.961 . S
H5985 C5977 0.960 . S
H5986 C5978 0.930 . S
H5987 C5979 0.929 . S
H5988 C5996 0.929 . S
H5989 C5998 0.930 . S
H5990 C6000 0.930 . S
H5991 C6003 0.929 . S
H5992 C6006 0.930 . S
H5993 C6008 0.960 . S
H5994 C6008 0.960 . S
H5995 C6008 0.960 . S
C5996 H5988 0.929 . S
C5996 C5997 1.377 . S
C5996 C5998 1.384 . S
C5997 C5996 1.377 . S
C5997 C6003 1.390 . S
C5998 H5989 0.930 . S
C5998 C5996 1.384 . S
C5998 C5999 1.372 . S
C5999 C5998 1.372 . S
C5999 C6000 1.400 . S
C5999 C6004 1.490 . S
C6000 H5990 0.930 . S
C6000 C5999 1.400 . S
C6000 C6003 1.386 . S
H6001 C6017 0.930 . S
H6002 C6018 0.931 . S
C6003 H5991 0.929 . S
C6003 C5997 1.390 . S
C6003 C6000 1.386 . S
C6004 C5999 1.490 . S
C6004 C6006 1.395 . S
C6004 C6007 1.403 . S
H6005 C6011 0.930 . S
C6006 H5992 0.930 . S
C6006 C6004 1.395 . S
C6006 C6009 1.403 . S
C6007 C6004 1.403 . S
C6007 C6008 1.524 . S
C6007 C6011 1.400 . S
C6008 H5993 0.960 . S
C6008 H5994 0.960 . S
C6008 H5995 0.960 . S
C6008 C6007 1.524 . S
C6009 C6006 1.403 . S
C6009 C6010 1.392 . S
C6009 C6013 1.495 . S
C6010 C6009 1.392 . S
C6010 C6011 1.385 . S
C6010 C6012 1.478 . S
C6011 H6005 0.930 . S
C6011 C6007 1.400 . S
C6011 C6010 1.385 . S
C6012 C6010 1.478 . S
C6012 C6014 1.381 . S
C6012 C6018 1.383 . S
C6013 C6009 1.495 . S
C6013 H6019 0.959 . S
C6013 H6020 0.961 . S
C6013 H6021 0.960 . S
C6014 C6012 1.381 . S
C6014 C6015 1.394 . S
C6014 H6022 0.930 . S
C6015 C6014 1.394 . S
C6015 C6016 1.383 . S
C6015 H6023 0.929 . S
C6016 C6015 1.383 . S
C6016 C6017 1.377 . S
C6017 H6001 0.930 . S
C6017 C6016 1.377 . S
C6017 C6018 1.379 . S
C6018 H6002 0.931 . S
C6018 C6012 1.383 . S
C6018 C6017 1.379 . S
H6019 C6013 0.959 . S
H6020 C6013 0.961 . S
H6021 C6013 0.960 . S
H6022 C6014 0.930 . S
H6023 C6015 0.929 . S
H6024 C6032 0.929 . S
H6025 C6034 0.930 . S
H6026 C6036 0.930 . S
H6027 C6039 0.929 . S
H6028 C6042 0.930 . S
H6029 C6044 0.960 . S
H6030 C6044 0.960 . S
H6031 C6044 0.960 . S
C6032 H6024 0.929 . S
C6032 C6033 1.377 . S
C6032 C6034 1.384 . S
C6033 C6032 1.377 . S
C6033 C6039 1.390 . S
C6034 H6025 0.930 . S
C6034 C6032 1.384 . S
C6034 C6035 1.372 . S
C6035 C6034 1.372 . S
C6035 C6036 1.400 . S
C6035 C6040 1.490 . S
C6036 H6026 0.930 . S
C6036 C6035 1.400 . S
C6036 C6039 1.386 . S
H6037 C6053 0.930 . S
H6038 C6054 0.931 . S
C6039 H6027 0.929 . S
C6039 C6033 1.390 . S
C6039 C6036 1.386 . S
C6040 C6035 1.490 . S
C6040 C6042 1.395 . S
C6040 C6043 1.403 . S
H6041 C6047 0.930 . S
C6042 H6028 0.930 . S
C6042 C6040 1.395 . S
C6042 C6045 1.403 . S
C6043 C6040 1.403 . S
C6043 C6044 1.524 . S
C6043 C6047 1.400 . S
C6044 H6029 0.960 . S
C6044 H6030 0.960 . S
C6044 H6031 0.960 . S
C6044 C6043 1.524 . S
C6045 C6042 1.403 . S
C6045 C6046 1.392 . S
C6045 C6049 1.495 . S
C6046 C6045 1.392 . S
C6046 C6047 1.385 . S
C6046 C6048 1.478 . S
C6047 H6041 0.930 . S
C6047 C6043 1.400 . S
C6047 C6046 1.385 . S
C6048 C6046 1.478 . S
C6048 C6050 1.381 . S
C6048 C6054 1.383 . S
C6049 C6045 1.495 . S
C6049 H6055 0.959 . S
C6049 H6056 0.961 . S
C6049 H6057 0.960 . S
C6050 C6048 1.381 . S
C6050 C6051 1.394 . S
C6050 H6058 0.930 . S
C6051 C6050 1.394 . S
C6051 C6052 1.383 . S
C6051 H6059 0.929 . S
C6052 C6051 1.383 . S
C6052 C6053 1.377 . S
C6053 H6037 0.930 . S
C6053 C6052 1.377 . S
C6053 C6054 1.379 . S
C6054 H6038 0.931 . S
C6054 C6048 1.383 . S
C6054 C6053 1.379 . S
H6055 C6049 0.959 . S
H6056 C6049 0.961 . S
H6057 C6049 0.960 . S
H6058 C6050 0.930 . S
H6059 C6051 0.929 . S
H6060 C6068 0.929 . S
H6061 C6070 0.930 . S
H6062 C6072 0.930 . S
H6063 C6075 0.929 . S
H6064 C6078 0.930 . S
H6065 C6080 0.960 . S
H6066 C6080 0.960 . S
H6067 C6080 0.960 . S
C6068 H6060 0.929 . S
C6068 C6069 1.377 . S
C6068 C6070 1.384 . S
C6069 C6068 1.377 . S
C6069 C6075 1.390 . S
C6070 H6061 0.930 . S
C6070 C6068 1.384 . S
C6070 C6071 1.372 . S
C6071 C6070 1.372 . S
C6071 C6072 1.400 . S
C6071 C6076 1.490 . S
C6072 H6062 0.930 . S
C6072 C6071 1.400 . S
C6072 C6075 1.386 . S
H6073 C6089 0.930 . S
H6074 C6090 0.931 . S
C6075 H6063 0.929 . S
C6075 C6069 1.390 . S
C6075 C6072 1.386 . S
C6076 C6071 1.490 . S
C6076 C6078 1.395 . S
C6076 C6079 1.403 . S
H6077 C6083 0.930 . S
C6078 H6064 0.930 . S
C6078 C6076 1.395 . S
C6078 C6081 1.403 . S
C6079 C6076 1.403 . S
C6079 C6080 1.524 . S
C6079 C6083 1.400 . S
C6080 H6065 0.960 . S
C6080 H6066 0.960 . S
C6080 H6067 0.960 . S
C6080 C6079 1.524 . S
C6081 C6078 1.403 . S
C6081 C6082 1.392 . S
C6081 C6085 1.495 . S
C6082 C6081 1.392 . S
C6082 C6083 1.385 . S
C6082 C6084 1.478 . S
C6083 H6077 0.930 . S
C6083 C6079 1.400 . S
C6083 C6082 1.385 . S
C6084 C6082 1.478 . S
C6084 C6086 1.381 . S
C6084 C6090 1.383 . S
C6085 C6081 1.495 . S
C6085 H6091 0.959 . S
C6085 H6092 0.961 . S
C6085 H6093 0.960 . S
C6086 C6084 1.381 . S
C6086 C6087 1.394 . S
C6086 H6094 0.930 . S
C6087 C6086 1.394 . S
C6087 C6088 1.383 . S
C6087 H6095 0.929 . S
C6088 C6087 1.383 . S
C6088 C6089 1.377 . S
C6089 H6073 0.930 . S
C6089 C6088 1.377 . S
C6089 C6090 1.379 . S
C6090 H6074 0.931 . S
C6090 C6084 1.383 . S
C6090 C6089 1.379 . S
H6091 C6085 0.959 . S
H6092 C6085 0.961 . S
H6093 C6085 0.960 . S
H6094 C6086 0.930 . S
H6095 C6087 0.929 . S
H6096 C6104 0.929 . S
H6097 C6106 0.930 . S
H6098 C6108 0.930 . S
H6099 C6111 0.929 . S
H6100 C6114 0.930 . S
H6101 C6116 0.960 . S
H6102 C6116 0.960 . S
H6103 C6116 0.960 . S
C6104 H6096 0.929 . S
C6104 C6105 1.377 . S
C6104 C6106 1.384 . S
C6105 C6104 1.377 . S
C6105 C6111 1.390 . S
C6106 H6097 0.930 . S
C6106 C6104 1.384 . S
C6106 C6107 1.372 . S
C6107 C6106 1.372 . S
C6107 C6108 1.400 . S
C6107 C6112 1.490 . S
C6108 H6098 0.930 . S
C6108 C6107 1.400 . S
C6108 C6111 1.386 . S
H6109 C6125 0.930 . S
H6110 C6126 0.931 . S
C6111 H6099 0.929 . S
C6111 C6105 1.390 . S
C6111 C6108 1.386 . S
C6112 C6107 1.490 . S
C6112 C6114 1.395 . S
C6112 C6115 1.403 . S
H6113 C6119 0.930 . S
C6114 H6100 0.930 . S
C6114 C6112 1.395 . S
C6114 C6117 1.403 . S
C6115 C6112 1.403 . S
C6115 C6116 1.524 . S
C6115 C6119 1.400 . S
C6116 H6101 0.960 . S
C6116 H6102 0.960 . S
C6116 H6103 0.960 . S
C6116 C6115 1.524 . S
C6117 C6114 1.403 . S
C6117 C6118 1.392 . S
C6117 C6121 1.495 . S
C6118 C6117 1.392 . S
C6118 C6119 1.385 . S
C6118 C6120 1.478 . S
C6119 H6113 0.930 . S
C6119 C6115 1.400 . S
C6119 C6118 1.385 . S
C6120 C6118 1.478 . S
C6120 C6122 1.381 . S
C6120 C6126 1.383 . S
C6121 C6117 1.495 . S
C6121 H6127 0.959 . S
C6121 H6128 0.961 . S
C6121 H6129 0.960 . S
C6122 C6120 1.381 . S
C6122 C6123 1.394 . S
C6122 H6130 0.930 . S
C6123 C6122 1.394 . S
C6123 C6124 1.383 . S
C6123 H6131 0.929 . S
C6124 C6123 1.383 . S
C6124 C6125 1.377 . S
C6125 H6109 0.930 . S
C6125 C6124 1.377 . S
C6125 C6126 1.379 . S
C6126 H6110 0.931 . S
C6126 C6120 1.383 . S
C6126 C6125 1.379 . S
H6127 C6121 0.959 . S
H6128 C6121 0.961 . S
H6129 C6121 0.960 . S
H6130 C6122 0.930 . S
H6131 C6123 0.929 . S
H6132 C6140 0.929 . S
H6133 C6142 0.930 . S
H6134 C6144 0.930 . S
H6135 C6147 0.929 . S
H6136 C6150 0.930 . S
H6137 C6152 0.960 . S
H6138 C6152 0.960 . S
H6139 C6152 0.960 . S
C6140 H6132 0.929 . S
C6140 C6141 1.377 . S
C6140 C6142 1.384 . S
C6141 C6140 1.377 . S
C6141 C6147 1.390 . S
C6142 H6133 0.930 . S
C6142 C6140 1.384 . S
C6142 C6143 1.372 . S
C6143 C6142 1.372 . S
C6143 C6144 1.400 . S
C6143 C6148 1.490 . S
C6144 H6134 0.930 . S
C6144 C6143 1.400 . S
C6144 C6147 1.386 . S
H6145 C6161 0.930 . S
H6146 C6162 0.931 . S
C6147 H6135 0.929 . S
C6147 C6141 1.390 . S
C6147 C6144 1.386 . S
C6148 C6143 1.490 . S
C6148 C6150 1.395 . S
C6148 C6151 1.403 . S
H6149 C6155 0.930 . S
C6150 H6136 0.930 . S
C6150 C6148 1.395 . S
C6150 C6153 1.403 . S
C6151 C6148 1.403 . S
C6151 C6152 1.524 . S
C6151 C6155 1.400 . S
C6152 H6137 0.960 . S
C6152 H6138 0.960 . S
C6152 H6139 0.960 . S
C6152 C6151 1.524 . S
C6153 C6150 1.403 . S
C6153 C6154 1.392 . S
C6153 C6157 1.495 . S
C6154 C6153 1.392 . S
C6154 C6155 1.385 . S
C6154 C6156 1.478 . S
C6155 H6149 0.930 . S
C6155 C6151 1.400 . S
C6155 C6154 1.385 . S
C6156 C6154 1.478 . S
C6156 C6158 1.381 . S
C6156 C6162 1.383 . S
C6157 C6153 1.495 . S
C6157 H6163 0.959 . S
C6157 H6164 0.961 . S
C6157 H6165 0.960 . S
C6158 C6156 1.381 . S
C6158 C6159 1.394 . S
C6158 H6166 0.930 . S
C6159 C6158 1.394 . S
C6159 C6160 1.383 . S
C6159 H6167 0.929 . S
C6160 C6159 1.383 . S
C6160 C6161 1.377 . S
C6161 H6145 0.930 . S
C6161 C6160 1.377 . S
C6161 C6162 1.379 . S
C6162 H6146 0.931 . S
C6162 C6156 1.383 . S
C6162 C6161 1.379 . S
H6163 C6157 0.959 . S
H6164 C6157 0.961 . S
H6165 C6157 0.960 . S
H6166 C6158 0.930 . S
H6167 C6159 0.929 . S
H6168 C6176 0.929 . S
H6169 C6178 0.930 . S
H6170 C6180 0.930 . S
H6171 C6183 0.929 . S
H6172 C6186 0.930 . S
H6173 C6188 0.960 . S
H6174 C6188 0.960 . S
H6175 C6188 0.960 . S
C6176 H6168 0.929 . S
C6176 C6177 1.377 . S
C6176 C6178 1.384 . S
C6177 C6176 1.377 . S
C6177 C6183 1.390 . S
C6178 H6169 0.930 . S
C6178 C6176 1.384 . S
C6178 C6179 1.372 . S
C6179 C6178 1.372 . S
C6179 C6180 1.400 . S
C6179 C6184 1.490 . S
C6180 H6170 0.930 . S
C6180 C6179 1.400 . S
C6180 C6183 1.386 . S
H6181 C6197 0.930 . S
H6182 C6198 0.931 . S
C6183 H6171 0.929 . S
C6183 C6177 1.390 . S
C6183 C6180 1.386 . S
C6184 C6179 1.490 . S
C6184 C6186 1.395 . S
C6184 C6187 1.403 . S
H6185 C6191 0.930 . S
C6186 H6172 0.930 . S
C6186 C6184 1.395 . S
C6186 C6189 1.403 . S
C6187 C6184 1.403 . S
C6187 C6188 1.524 . S
C6187 C6191 1.400 . S
C6188 H6173 0.960 . S
C6188 H6174 0.960 . S
C6188 H6175 0.960 . S
C6188 C6187 1.524 . S
C6189 C6186 1.403 . S
C6189 C6190 1.392 . S
C6189 C6193 1.495 . S
C6190 C6189 1.392 . S
C6190 C6191 1.385 . S
C6190 C6192 1.478 . S
C6191 H6185 0.930 . S
C6191 C6187 1.400 . S
C6191 C6190 1.385 . S
C6192 C6190 1.478 . S
C6192 C6194 1.381 . S
C6192 C6198 1.383 . S
C6193 C6189 1.495 . S
C6193 H6199 0.959 . S
C6193 H6200 0.961 . S
C6193 H6201 0.960 . S
C6194 C6192 1.381 . S
C6194 C6195 1.394 . S
C6194 H6202 0.930 . S
C6195 C6194 1.394 . S
C6195 C6196 1.383 . S
C6195 H6203 0.929 . S
C6196 C6195 1.383 . S
C6196 C6197 1.377 . S
C6197 H6181 0.930 . S
C6197 C6196 1.377 . S
C6197 C6198 1.379 . S
C6198 H6182 0.931 . S
C6198 C6192 1.383 . S
C6198 C6197 1.379 . S
H6199 C6193 0.959 . S
H6200 C6193 0.961 . S
H6201 C6193 0.960 . S
H6202 C6194 0.930 . S
H6203 C6195 0.929 . S
H6204 C6212 0.929 . S
H6205 C6214 0.930 . S
H6206 C6216 0.930 . S
H6207 C6219 0.929 . S
H6208 C6222 0.930 . S
H6209 C6224 0.960 . S
H6210 C6224 0.960 . S
H6211 C6224 0.960 . S
C6212 H6204 0.929 . S
C6212 C6213 1.377 . S
C6212 C6214 1.384 . S
C6213 C6212 1.377 . S
C6213 C6219 1.390 . S
C6214 H6205 0.930 . S
C6214 C6212 1.384 . S
C6214 C6215 1.372 . S
C6215 C6214 1.372 . S
C6215 C6216 1.400 . S
C6215 C6220 1.490 . S
C6216 H6206 0.930 . S
C6216 C6215 1.400 . S
C6216 C6219 1.386 . S
H6217 C6233 0.930 . S
H6218 C6234 0.931 . S
C6219 H6207 0.929 . S
C6219 C6213 1.390 . S
C6219 C6216 1.386 . S
C6220 C6215 1.490 . S
C6220 C6222 1.395 . S
C6220 C6223 1.403 . S
H6221 C6227 0.930 . S
C6222 H6208 0.930 . S
C6222 C6220 1.395 . S
C6222 C6225 1.403 . S
C6223 C6220 1.403 . S
C6223 C6224 1.524 . S
C6223 C6227 1.400 . S
C6224 H6209 0.960 . S
C6224 H6210 0.960 . S
C6224 H6211 0.960 . S
C6224 C6223 1.524 . S
C6225 C6222 1.403 . S
C6225 C6226 1.392 . S
C6225 C6229 1.495 . S
C6226 C6225 1.392 . S
C6226 C6227 1.385 . S
C6226 C6228 1.478 . S
C6227 H6221 0.930 . S
C6227 C6223 1.400 . S
C6227 C6226 1.385 . S
C6228 C6226 1.478 . S
C6228 C6230 1.381 . S
C6228 C6234 1.383 . S
C6229 C6225 1.495 . S
C6229 H6235 0.959 . S
C6229 H6236 0.961 . S
C6229 H6237 0.960 . S
C6230 C6228 1.381 . S
C6230 C6231 1.394 . S
C6230 H6238 0.930 . S
C6231 C6230 1.394 . S
C6231 C6232 1.383 . S
C6231 H6239 0.929 . S
C6232 C6231 1.383 . S
C6232 C6233 1.377 . S
C6233 H6217 0.930 . S
C6233 C6232 1.377 . S
C6233 C6234 1.379 . S
C6234 H6218 0.931 . S
C6234 C6228 1.383 . S
C6234 C6233 1.379 . S
H6235 C6229 0.959 . S
H6236 C6229 0.961 . S
H6237 C6229 0.960 . S
H6238 C6230 0.930 . S
H6239 C6231 0.929 . S
H6240 C6248 0.929 . S
H6241 C6250 0.930 . S
H6242 C6252 0.930 . S
H6243 C6255 0.929 . S
H6244 C6258 0.930 . S
H6245 C6260 0.960 . S
H6246 C6260 0.960 . S
H6247 C6260 0.960 . S
C6248 H6240 0.929 . S
C6248 C6249 1.377 . S
C6248 C6250 1.384 . S
C6249 C6248 1.377 . S
C6249 C6255 1.390 . S
C6250 H6241 0.930 . S
C6250 C6248 1.384 . S
C6250 C6251 1.372 . S
C6251 C6250 1.372 . S
C6251 C6252 1.400 . S
C6251 C6256 1.490 . S
C6252 H6242 0.930 . S
C6252 C6251 1.400 . S
C6252 C6255 1.386 . S
H6253 C6269 0.930 . S
H6254 C6270 0.931 . S
C6255 H6243 0.929 . S
C6255 C6249 1.390 . S
C6255 C6252 1.386 . S
C6256 C6251 1.490 . S
C6256 C6258 1.395 . S
C6256 C6259 1.403 . S
H6257 C6263 0.930 . S
C6258 H6244 0.930 . S
C6258 C6256 1.395 . S
C6258 C6261 1.403 . S
C6259 C6256 1.403 . S
C6259 C6260 1.524 . S
C6259 C6263 1.400 . S
C6260 H6245 0.960 . S
C6260 H6246 0.960 . S
C6260 H6247 0.960 . S
C6260 C6259 1.524 . S
C6261 C6258 1.403 . S
C6261 C6262 1.392 . S
C6261 C6265 1.495 . S
C6262 C6261 1.392 . S
C6262 C6263 1.385 . S
C6262 C6264 1.478 . S
C6263 H6257 0.930 . S
C6263 C6259 1.400 . S
C6263 C6262 1.385 . S
C6264 C6262 1.478 . S
C6264 C6266 1.381 . S
C6264 C6270 1.383 . S
C6265 C6261 1.495 . S
C6265 H6271 0.959 . S
C6265 H6272 0.961 . S
C6265 H6273 0.960 . S
C6266 C6264 1.381 . S
C6266 C6267 1.394 . S
C6266 H6274 0.930 . S
C6267 C6266 1.394 . S
C6267 C6268 1.383 . S
C6267 H6275 0.929 . S
C6268 C6267 1.383 . S
C6268 C6269 1.377 . S
C6269 H6253 0.930 . S
C6269 C6268 1.377 . S
C6269 C6270 1.379 . S
C6270 H6254 0.931 . S
C6270 C6264 1.383 . S
C6270 C6269 1.379 . S
H6271 C6265 0.959 . S
H6272 C6265 0.961 . S
H6273 C6265 0.960 . S
H6274 C6266 0.930 . S
H6275 C6267 0.929 . S
H6276 C6284 0.929 . S
H6277 C6286 0.930 . S
H6278 C6288 0.930 . S
H6279 C6291 0.929 . S
H6280 C6294 0.930 . S
H6281 C6296 0.960 . S
H6282 C6296 0.960 . S
H6283 C6296 0.960 . S
C6284 H6276 0.929 . S
C6284 C6285 1.377 . S
C6284 C6286 1.384 . S
C6285 C6284 1.377 . S
C6285 C6291 1.390 . S
C6286 H6277 0.930 . S
C6286 C6284 1.384 . S
C6286 C6287 1.372 . S
C6287 C6286 1.372 . S
C6287 C6288 1.400 . S
C6287 C6292 1.490 . S
C6288 H6278 0.930 . S
C6288 C6287 1.400 . S
C6288 C6291 1.386 . S
H6289 C6305 0.930 . S
H6290 C6306 0.931 . S
C6291 H6279 0.929 . S
C6291 C6285 1.390 . S
C6291 C6288 1.386 . S
C6292 C6287 1.490 . S
C6292 C6294 1.395 . S
C6292 C6295 1.403 . S
H6293 C6299 0.930 . S
C6294 H6280 0.930 . S
C6294 C6292 1.395 . S
C6294 C6297 1.403 . S
C6295 C6292 1.403 . S
C6295 C6296 1.524 . S
C6295 C6299 1.400 . S
C6296 H6281 0.960 . S
C6296 H6282 0.960 . S
C6296 H6283 0.960 . S
C6296 C6295 1.524 . S
C6297 C6294 1.403 . S
C6297 C6298 1.392 . S
C6297 C6301 1.495 . S
C6298 C6297 1.392 . S
C6298 C6299 1.385 . S
C6298 C6300 1.478 . S
C6299 H6293 0.930 . S
C6299 C6295 1.400 . S
C6299 C6298 1.385 . S
C6300 C6298 1.478 . S
C6300 C6302 1.381 . S
C6300 C6306 1.383 . S
C6301 C6297 1.495 . S
C6301 H6307 0.959 . S
C6301 H6308 0.961 . S
C6301 H6309 0.960 . S
C6302 C6300 1.381 . S
C6302 C6303 1.394 . S
C6302 H6310 0.930 . S
C6303 C6302 1.394 . S
C6303 C6304 1.383 . S
C6303 H6311 0.929 . S
C6304 C6303 1.383 . S
C6304 C6305 1.377 . S
C6305 H6289 0.930 . S
C6305 C6304 1.377 . S
C6305 C6306 1.379 . S
C6306 H6290 0.931 . S
C6306 C6300 1.383 . S
C6306 C6305 1.379 . S
H6307 C6301 0.959 . S
H6308 C6301 0.961 . S
H6309 C6301 0.960 . S
H6310 C6302 0.930 . S
H6311 C6303 0.929 . S
H6312 C6320 0.929 . S
H6313 C6322 0.930 . S
H6314 C6324 0.930 . S
H6315 C6327 0.929 . S
H6316 C6330 0.930 . S
H6317 C6332 0.960 . S
H6318 C6332 0.960 . S
H6319 C6332 0.960 . S
C6320 H6312 0.929 . S
C6320 C6321 1.377 . S
C6320 C6322 1.384 . S
C6321 C6320 1.377 . S
C6321 C6327 1.390 . S
C6322 H6313 0.930 . S
C6322 C6320 1.384 . S
C6322 C6323 1.372 . S
C6323 C6322 1.372 . S
C6323 C6324 1.400 . S
C6323 C6328 1.490 . S
C6324 H6314 0.930 . S
C6324 C6323 1.400 . S
C6324 C6327 1.386 . S
H6325 C6341 0.930 . S
H6326 C6342 0.931 . S
C6327 H6315 0.929 . S
C6327 C6321 1.390 . S
C6327 C6324 1.386 . S
C6328 C6323 1.490 . S
C6328 C6330 1.395 . S
C6328 C6331 1.403 . S
H6329 C6335 0.930 . S
C6330 H6316 0.930 . S
C6330 C6328 1.395 . S
C6330 C6333 1.403 . S
C6331 C6328 1.403 . S
C6331 C6332 1.524 . S
C6331 C6335 1.400 . S
C6332 H6317 0.960 . S
C6332 H6318 0.960 . S
C6332 H6319 0.960 . S
C6332 C6331 1.524 . S
C6333 C6330 1.403 . S
C6333 C6334 1.392 . S
C6333 C6337 1.495 . S
C6334 C6333 1.392 . S
C6334 C6335 1.385 . S
C6334 C6336 1.478 . S
C6335 H6329 0.930 . S
C6335 C6331 1.400 . S
C6335 C6334 1.385 . S
C6336 C6334 1.478 . S
C6336 C6338 1.381 . S
C6336 C6342 1.383 . S
C6337 C6333 1.495 . S
C6337 H6343 0.959 . S
C6337 H6344 0.961 . S
C6337 H6345 0.960 . S
C6338 C6336 1.381 . S
C6338 C6339 1.394 . S
C6338 H6346 0.930 . S
C6339 C6338 1.394 . S
C6339 C6340 1.383 . S
C6339 H6347 0.929 . S
C6340 C6339 1.383 . S
C6340 C6341 1.377 . S
C6341 H6325 0.930 . S
C6341 C6340 1.377 . S
C6341 C6342 1.379 . S
C6342 H6326 0.931 . S
C6342 C6336 1.383 . S
C6342 C6341 1.379 . S
H6343 C6337 0.959 . S
H6344 C6337 0.961 . S
H6345 C6337 0.960 . S
H6346 C6338 0.930 . S
H6347 C6339 0.929 . S
H6348 C6356 0.929 . S
H6349 C6358 0.930 . S
H6350 C6360 0.930 . S
H6351 C6363 0.929 . S
H6352 C6366 0.930 . S
H6353 C6368 0.960 . S
H6354 C6368 0.960 . S
H6355 C6368 0.960 . S
C6356 H6348 0.929 . S
C6356 C6357 1.377 . S
C6356 C6358 1.384 . S
C6357 C6356 1.377 . S
C6357 C6363 1.390 . S
C6358 H6349 0.930 . S
C6358 C6356 1.384 . S
C6358 C6359 1.372 . S
C6359 C6358 1.372 . S
C6359 C6360 1.400 . S
C6359 C6364 1.490 . S
C6360 H6350 0.930 . S
C6360 C6359 1.400 . S
C6360 C6363 1.386 . S
H6361 C6377 0.930 . S
H6362 C6378 0.931 . S
C6363 H6351 0.929 . S
C6363 C6357 1.390 . S
C6363 C6360 1.386 . S
C6364 C6359 1.490 . S
C6364 C6366 1.395 . S
C6364 C6367 1.403 . S
H6365 C6371 0.930 . S
C6366 H6352 0.930 . S
C6366 C6364 1.395 . S
C6366 C6369 1.403 . S
C6367 C6364 1.403 . S
C6367 C6368 1.524 . S
C6367 C6371 1.400 . S
C6368 H6353 0.960 . S
C6368 H6354 0.960 . S
C6368 H6355 0.960 . S
C6368 C6367 1.524 . S
C6369 C6366 1.403 . S
C6369 C6370 1.392 . S
C6369 C6373 1.495 . S
C6370 C6369 1.392 . S
C6370 C6371 1.385 . S
C6370 C6372 1.478 . S
C6371 H6365 0.930 . S
C6371 C6367 1.400 . S
C6371 C6370 1.385 . S
C6372 C6370 1.478 . S
C6372 C6374 1.381 . S
C6372 C6378 1.383 . S
C6373 C6369 1.495 . S
C6373 H6379 0.959 . S
C6373 H6380 0.961 . S
C6373 H6381 0.960 . S
C6374 C6372 1.381 . S
C6374 C6375 1.394 . S
C6374 H6382 0.930 . S
C6375 C6374 1.394 . S
C6375 C6376 1.383 . S
C6375 H6383 0.929 . S
C6376 C6375 1.383 . S
C6376 C6377 1.377 . S
C6377 H6361 0.930 . S
C6377 C6376 1.377 . S
C6377 C6378 1.379 . S
C6378 H6362 0.931 . S
C6378 C6372 1.383 . S
C6378 C6377 1.379 . S
H6379 C6373 0.959 . S
H6380 C6373 0.961 . S
H6381 C6373 0.960 . S
H6382 C6374 0.930 . S
H6383 C6375 0.929 . S
H6384 C6392 0.929 . S
H6385 C6394 0.930 . S
H6386 C6396 0.930 . S
H6387 C6399 0.929 . S
H6388 C6402 0.930 . S
H6389 C6404 0.960 . S
H6390 C6404 0.960 . S
H6391 C6404 0.960 . S
C6392 H6384 0.929 . S
C6392 C6393 1.377 . S
C6392 C6394 1.384 . S
C6393 C6392 1.377 . S
C6393 C6399 1.390 . S
C6394 H6385 0.930 . S
C6394 C6392 1.384 . S
C6394 C6395 1.372 . S
C6395 C6394 1.372 . S
C6395 C6396 1.400 . S
C6395 C6400 1.490 . S
C6396 H6386 0.930 . S
C6396 C6395 1.400 . S
C6396 C6399 1.386 . S
H6397 C6413 0.930 . S
H6398 C6414 0.931 . S
C6399 H6387 0.929 . S
C6399 C6393 1.390 . S
C6399 C6396 1.386 . S
C6400 C6395 1.490 . S
C6400 C6402 1.395 . S
C6400 C6403 1.403 . S
H6401 C6407 0.930 . S
C6402 H6388 0.930 . S
C6402 C6400 1.395 . S
C6402 C6405 1.403 . S
C6403 C6400 1.403 . S
C6403 C6404 1.524 . S
C6403 C6407 1.400 . S
C6404 H6389 0.960 . S
C6404 H6390 0.960 . S
C6404 H6391 0.960 . S
C6404 C6403 1.524 . S
C6405 C6402 1.403 . S
C6405 C6406 1.392 . S
C6405 C6409 1.495 . S
C6406 C6405 1.392 . S
C6406 C6407 1.385 . S
C6406 C6408 1.478 . S
C6407 H6401 0.930 . S
C6407 C6403 1.400 . S
C6407 C6406 1.385 . S
C6408 C6406 1.478 . S
C6408 C6410 1.381 . S
C6408 C6414 1.383 . S
C6409 C6405 1.495 . S
C6409 H6415 0.959 . S
C6409 H6416 0.961 . S
C6409 H6417 0.960 . S
C6410 C6408 1.381 . S
C6410 C6411 1.394 . S
C6410 H6418 0.930 . S
C6411 C6410 1.394 . S
C6411 C6412 1.383 . S
C6411 H6419 0.929 . S
C6412 C6411 1.383 . S
C6412 C6413 1.377 . S
C6413 H6397 0.930 . S
C6413 C6412 1.377 . S
C6413 C6414 1.379 . S
C6414 H6398 0.931 . S
C6414 C6408 1.383 . S
C6414 C6413 1.379 . S
H6415 C6409 0.959 . S
H6416 C6409 0.961 . S
H6417 C6409 0.960 . S
H6418 C6410 0.930 . S
H6419 C6411 0.929 . S
H6420 C6428 0.929 . S
H6421 C6430 0.930 . S
H6422 C6432 0.930 . S
H6423 C6435 0.929 . S
H6424 C6438 0.930 . S
H6425 C6440 0.960 . S
H6426 C6440 0.960 . S
H6427 C6440 0.960 . S
C6428 H6420 0.929 . S
C6428 C6429 1.377 . S
C6428 C6430 1.384 . S
C6429 C6428 1.377 . S
C6429 C6435 1.390 . S
C6430 H6421 0.930 . S
C6430 C6428 1.384 . S
C6430 C6431 1.372 . S
C6431 C6430 1.372 . S
C6431 C6432 1.400 . S
C6431 C6436 1.490 . S
C6432 H6422 0.930 . S
C6432 C6431 1.400 . S
C6432 C6435 1.386 . S
H6433 C6449 0.930 . S
H6434 C6450 0.931 . S
C6435 H6423 0.929 . S
C6435 C6429 1.390 . S
C6435 C6432 1.386 . S
C6436 C6431 1.490 . S
C6436 C6438 1.395 . S
C6436 C6439 1.403 . S
H6437 C6443 0.930 . S
C6438 H6424 0.930 . S
C6438 C6436 1.395 . S
C6438 C6441 1.403 . S
C6439 C6436 1.403 . S
C6439 C6440 1.524 . S
C6439 C6443 1.400 . S
C6440 H6425 0.960 . S
C6440 H6426 0.960 . S
C6440 H6427 0.960 . S
C6440 C6439 1.524 . S
C6441 C6438 1.403 . S
C6441 C6442 1.392 . S
C6441 C6445 1.495 . S
C6442 C6441 1.392 . S
C6442 C6443 1.385 . S
C6442 C6444 1.478 . S
C6443 H6437 0.930 . S
C6443 C6439 1.400 . S
C6443 C6442 1.385 . S
C6444 C6442 1.478 . S
C6444 C6446 1.381 . S
C6444 C6450 1.383 . S
C6445 C6441 1.495 . S
C6445 H6451 0.959 . S
C6445 H6452 0.961 . S
C6445 H6453 0.960 . S
C6446 C6444 1.381 . S
C6446 C6447 1.394 . S
C6446 H6454 0.930 . S
C6447 C6446 1.394 . S
C6447 C6448 1.383 . S
C6447 H6455 0.929 . S
C6448 C6447 1.383 . S
C6448 C6449 1.377 . S
C6449 H6433 0.930 . S
C6449 C6448 1.377 . S
C6449 C6450 1.379 . S
C6450 H6434 0.931 . S
C6450 C6444 1.383 . S
C6450 C6449 1.379 . S
H6451 C6445 0.959 . S
H6452 C6445 0.961 . S
H6453 C6445 0.960 . S
H6454 C6446 0.930 . S
H6455 C6447 0.929 . S
H6456 C6464 0.929 . S
H6457 C6466 0.930 . S
H6458 C6468 0.930 . S
H6459 C6471 0.929 . S
H6460 C6474 0.930 . S
H6461 C6476 0.960 . S
H6462 C6476 0.960 . S
H6463 C6476 0.960 . S
C6464 H6456 0.929 . S
C6464 C6465 1.377 . S
C6464 C6466 1.384 . S
C6465 C6464 1.377 . S
C6465 C6471 1.390 . S
C6466 H6457 0.930 . S
C6466 C6464 1.384 . S
C6466 C6467 1.372 . S
C6467 C6466 1.372 . S
C6467 C6468 1.400 . S
C6467 C6472 1.490 . S
C6468 H6458 0.930 . S
C6468 C6467 1.400 . S
C6468 C6471 1.386 . S
H6469 C6485 0.930 . S
H6470 C6486 0.931 . S
C6471 H6459 0.929 . S
C6471 C6465 1.390 . S
C6471 C6468 1.386 . S
C6472 C6467 1.490 . S
C6472 C6474 1.395 . S
C6472 C6475 1.403 . S
H6473 C6479 0.930 . S
C6474 H6460 0.930 . S
C6474 C6472 1.395 . S
C6474 C6477 1.403 . S
C6475 C6472 1.403 . S
C6475 C6476 1.524 . S
C6475 C6479 1.400 . S
C6476 H6461 0.960 . S
C6476 H6462 0.960 . S
C6476 H6463 0.960 . S
C6476 C6475 1.524 . S
C6477 C6474 1.403 . S
C6477 C6478 1.392 . S
C6477 C6481 1.495 . S
C6478 C6477 1.392 . S
C6478 C6479 1.385 . S
C6478 C6480 1.478 . S
C6479 H6473 0.930 . S
C6479 C6475 1.400 . S
C6479 C6478 1.385 . S
C6480 C6478 1.478 . S
C6480 C6482 1.381 . S
C6480 C6486 1.383 . S
C6481 C6477 1.495 . S
C6481 H6487 0.959 . S
C6481 H6488 0.961 . S
C6481 H6489 0.960 . S
C6482 C6480 1.381 . S
C6482 C6483 1.394 . S
C6482 H6490 0.930 . S
C6483 C6482 1.394 . S
C6483 C6484 1.383 . S
C6483 H6491 0.929 . S
C6484 C6483 1.383 . S
C6484 C6485 1.377 . S
C6485 H6469 0.930 . S
C6485 C6484 1.377 . S
C6485 C6486 1.379 . S
C6486 H6470 0.931 . S
C6486 C6480 1.383 . S
C6486 C6485 1.379 . S
H6487 C6481 0.959 . S
H6488 C6481 0.961 . S
H6489 C6481 0.960 . S
H6490 C6482 0.930 . S
H6491 C6483 0.929 . S
H6492 C6500 0.929 . S
H6493 C6502 0.930 . S
H6494 C6504 0.930 . S
H6495 C6507 0.929 . S
H6496 C6510 0.930 . S
H6497 C6512 0.960 . S
H6498 C6512 0.960 . S
H6499 C6512 0.960 . S
C6500 H6492 0.929 . S
C6500 C6501 1.377 . S
C6500 C6502 1.384 . S
C6501 C6500 1.377 . S
C6501 C6507 1.390 . S
C6502 H6493 0.930 . S
C6502 C6500 1.384 . S
C6502 C6503 1.372 . S
C6503 C6502 1.372 . S
C6503 C6504 1.400 . S
C6503 C6508 1.490 . S
C6504 H6494 0.930 . S
C6504 C6503 1.400 . S
C6504 C6507 1.386 . S
H6505 C6521 0.930 . S
H6506 C6522 0.931 . S
C6507 H6495 0.929 . S
C6507 C6501 1.390 . S
C6507 C6504 1.386 . S
C6508 C6503 1.490 . S
C6508 C6510 1.395 . S
C6508 C6511 1.403 . S
H6509 C6515 0.930 . S
C6510 H6496 0.930 . S
C6510 C6508 1.395 . S
C6510 C6513 1.403 . S
C6511 C6508 1.403 . S
C6511 C6512 1.524 . S
C6511 C6515 1.400 . S
C6512 H6497 0.960 . S
C6512 H6498 0.960 . S
C6512 H6499 0.960 . S
C6512 C6511 1.524 . S
C6513 C6510 1.403 . S
C6513 C6514 1.392 . S
C6513 C6517 1.495 . S
C6514 C6513 1.392 . S
C6514 C6515 1.385 . S
C6514 C6516 1.478 . S
C6515 H6509 0.930 . S
C6515 C6511 1.400 . S
C6515 C6514 1.385 . S
C6516 C6514 1.478 . S
C6516 C6518 1.381 . S
C6516 C6522 1.383 . S
C6517 C6513 1.495 . S
C6517 H6523 0.959 . S
C6517 H6524 0.961 . S
C6517 H6525 0.960 . S
C6518 C6516 1.381 . S
C6518 C6519 1.394 . S
C6518 H6526 0.930 . S
C6519 C6518 1.394 . S
C6519 C6520 1.383 . S
C6519 H6527 0.929 . S
C6520 C6519 1.383 . S
C6520 C6521 1.377 . S
C6521 H6505 0.930 . S
C6521 C6520 1.377 . S
C6521 C6522 1.379 . S
C6522 H6506 0.931 . S
C6522 C6516 1.383 . S
C6522 C6521 1.379 . S
H6523 C6517 0.959 . S
H6524 C6517 0.961 . S
H6525 C6517 0.960 . S
H6526 C6518 0.930 . S
H6527 C6519 0.929 . S
H6528 C6536 0.929 . S
H6529 C6538 0.930 . S
H6530 C6540 0.930 . S
H6531 C6543 0.929 . S
H6532 C6546 0.930 . S
H6533 C6548 0.960 . S
H6534 C6548 0.960 . S
H6535 C6548 0.960 . S
C6536 H6528 0.929 . S
C6536 C6537 1.377 . S
C6536 C6538 1.384 . S
C6537 C6536 1.377 . S
C6537 C6543 1.390 . S
C6538 H6529 0.930 . S
C6538 C6536 1.384 . S
C6538 C6539 1.372 . S
C6539 C6538 1.372 . S
C6539 C6540 1.400 . S
C6539 C6544 1.490 . S
C6540 H6530 0.930 . S
C6540 C6539 1.400 . S
C6540 C6543 1.386 . S
H6541 C6557 0.930 . S
H6542 C6558 0.931 . S
C6543 H6531 0.929 . S
C6543 C6537 1.390 . S
C6543 C6540 1.386 . S
C6544 C6539 1.490 . S
C6544 C6546 1.395 . S
C6544 C6547 1.403 . S
H6545 C6551 0.930 . S
C6546 H6532 0.930 . S
C6546 C6544 1.395 . S
C6546 C6549 1.403 . S
C6547 C6544 1.403 . S
C6547 C6548 1.524 . S
C6547 C6551 1.400 . S
C6548 H6533 0.960 . S
C6548 H6534 0.960 . S
C6548 H6535 0.960 . S
C6548 C6547 1.524 . S
C6549 C6546 1.403 . S
C6549 C6550 1.392 . S
C6549 C6553 1.495 . S
C6550 C6549 1.392 . S
C6550 C6551 1.385 . S
C6550 C6552 1.478 . S
C6551 H6545 0.930 . S
C6551 C6547 1.400 . S
C6551 C6550 1.385 . S
C6552 C6550 1.478 . S
C6552 C6554 1.381 . S
C6552 C6558 1.383 . S
C6553 C6549 1.495 . S
C6553 H6559 0.959 . S
C6553 H6560 0.961 . S
C6553 H6561 0.960 . S
C6554 C6552 1.381 . S
C6554 C6555 1.394 . S
C6554 H6562 0.930 . S
C6555 C6554 1.394 . S
C6555 C6556 1.383 . S
C6555 H6563 0.929 . S
C6556 C6555 1.383 . S
C6556 C6557 1.377 . S
C6557 H6541 0.930 . S
C6557 C6556 1.377 . S
C6557 C6558 1.379 . S
C6558 H6542 0.931 . S
C6558 C6552 1.383 . S
C6558 C6557 1.379 . S
H6559 C6553 0.959 . S
H6560 C6553 0.961 . S
H6561 C6553 0.960 . S
H6562 C6554 0.930 . S
H6563 C6555 0.929 . S
H6564 C6572 0.929 . S
H6565 C6574 0.930 . S
H6566 C6576 0.930 . S
H6567 C6579 0.929 . S
H6568 C6582 0.930 . S
H6569 C6584 0.960 . S
H6570 C6584 0.960 . S
H6571 C6584 0.960 . S
C6572 H6564 0.929 . S
C6572 C6573 1.377 . S
C6572 C6574 1.384 . S
C6573 C6572 1.377 . S
C6573 C6579 1.390 . S
C6574 H6565 0.930 . S
C6574 C6572 1.384 . S
C6574 C6575 1.372 . S
C6575 C6574 1.372 . S
C6575 C6576 1.400 . S
C6575 C6580 1.490 . S
C6576 H6566 0.930 . S
C6576 C6575 1.400 . S
C6576 C6579 1.386 . S
H6577 C6593 0.930 . S
H6578 C6594 0.931 . S
C6579 H6567 0.929 . S
C6579 C6573 1.390 . S
C6579 C6576 1.386 . S
C6580 C6575 1.490 . S
C6580 C6582 1.395 . S
C6580 C6583 1.403 . S
H6581 C6587 0.930 . S
C6582 H6568 0.930 . S
C6582 C6580 1.395 . S
C6582 C6585 1.403 . S
C6583 C6580 1.403 . S
C6583 C6584 1.524 . S
C6583 C6587 1.400 . S
C6584 H6569 0.960 . S
C6584 H6570 0.960 . S
C6584 H6571 0.960 . S
C6584 C6583 1.524 . S
C6585 C6582 1.403 . S
C6585 C6586 1.392 . S
C6585 C6589 1.495 . S
C6586 C6585 1.392 . S
C6586 C6587 1.385 . S
C6586 C6588 1.478 . S
C6587 H6581 0.930 . S
C6587 C6583 1.400 . S
C6587 C6586 1.385 . S
C6588 C6586 1.478 . S
C6588 C6590 1.381 . S
C6588 C6594 1.383 . S
C6589 C6585 1.495 . S
C6589 H6595 0.959 . S
C6589 H6596 0.961 . S
C6589 H6597 0.960 . S
C6590 C6588 1.381 . S
C6590 C6591 1.394 . S
C6590 H6598 0.930 . S
C6591 C6590 1.394 . S
C6591 C6592 1.383 . S
C6591 H6599 0.929 . S
C6592 C6591 1.383 . S
C6592 C6593 1.377 . S
C6593 H6577 0.930 . S
C6593 C6592 1.377 . S
C6593 C6594 1.379 . S
C6594 H6578 0.931 . S
C6594 C6588 1.383 . S
C6594 C6593 1.379 . S
H6595 C6589 0.959 . S
H6596 C6589 0.961 . S
H6597 C6589 0.960 . S
H6598 C6590 0.930 . S
H6599 C6591 0.929 . S
H6600 C6608 0.929 . S
H6601 C6610 0.930 . S
H6602 C6612 0.930 . S
H6603 C6615 0.929 . S
H6604 C6618 0.930 . S
H6605 C6620 0.960 . S
H6606 C6620 0.960 . S
H6607 C6620 0.960 . S
C6608 H6600 0.929 . S
C6608 C6609 1.377 . S
C6608 C6610 1.384 . S
C6609 C6608 1.377 . S
C6609 C6615 1.390 . S
C6610 H6601 0.930 . S
C6610 C6608 1.384 . S
C6610 C6611 1.372 . S
C6611 C6610 1.372 . S
C6611 C6612 1.400 . S
C6611 C6616 1.490 . S
C6612 H6602 0.930 . S
C6612 C6611 1.400 . S
C6612 C6615 1.386 . S
H6613 C6629 0.930 . S
H6614 C6630 0.931 . S
C6615 H6603 0.929 . S
C6615 C6609 1.390 . S
C6615 C6612 1.386 . S
C6616 C6611 1.490 . S
C6616 C6618 1.395 . S
C6616 C6619 1.403 . S
H6617 C6623 0.930 . S
C6618 H6604 0.930 . S
C6618 C6616 1.395 . S
C6618 C6621 1.403 . S
C6619 C6616 1.403 . S
C6619 C6620 1.524 . S
C6619 C6623 1.400 . S
C6620 H6605 0.960 . S
C6620 H6606 0.960 . S
C6620 H6607 0.960 . S
C6620 C6619 1.524 . S
C6621 C6618 1.403 . S
C6621 C6622 1.392 . S
C6621 C6625 1.495 . S
C6622 C6621 1.392 . S
C6622 C6623 1.385 . S
C6622 C6624 1.478 . S
C6623 H6617 0.930 . S
C6623 C6619 1.400 . S
C6623 C6622 1.385 . S
C6624 C6622 1.478 . S
C6624 C6626 1.381 . S
C6624 C6630 1.383 . S
C6625 C6621 1.495 . S
C6625 H6631 0.959 . S
C6625 H6632 0.961 . S
C6625 H6633 0.960 . S
C6626 C6624 1.381 . S
C6626 C6627 1.394 . S
C6626 H6634 0.930 . S
C6627 C6626 1.394 . S
C6627 C6628 1.383 . S
C6627 H6635 0.929 . S
C6628 C6627 1.383 . S
C6628 C6629 1.377 . S
C6629 H6613 0.930 . S
C6629 C6628 1.377 . S
C6629 C6630 1.379 . S
C6630 H6614 0.931 . S
C6630 C6624 1.383 . S
C6630 C6629 1.379 . S
H6631 C6625 0.959 . S
H6632 C6625 0.961 . S
H6633 C6625 0.960 . S
H6634 C6626 0.930 . S
H6635 C6627 0.929 . S
H6636 C6644 0.929 . S
H6637 C6646 0.930 . S
H6638 C6648 0.930 . S
H6639 C6651 0.929 . S
H6640 C6654 0.930 . S
H6641 C6656 0.960 . S
H6642 C6656 0.960 . S
H6643 C6656 0.960 . S
C6644 H6636 0.929 . S
C6644 C6645 1.377 . S
C6644 C6646 1.384 . S
C6645 C6644 1.377 . S
C6645 C6651 1.390 . S
C6646 H6637 0.930 . S
C6646 C6644 1.384 . S
C6646 C6647 1.372 . S
C6647 C6646 1.372 . S
C6647 C6648 1.400 . S
C6647 C6652 1.490 . S
C6648 H6638 0.930 . S
C6648 C6647 1.400 . S
C6648 C6651 1.386 . S
H6649 C6665 0.930 . S
H6650 C6666 0.931 . S
C6651 H6639 0.929 . S
C6651 C6645 1.390 . S
C6651 C6648 1.386 . S
C6652 C6647 1.490 . S
C6652 C6654 1.395 . S
C6652 C6655 1.403 . S
H6653 C6659 0.930 . S
C6654 H6640 0.930 . S
C6654 C6652 1.395 . S
C6654 C6657 1.403 . S
C6655 C6652 1.403 . S
C6655 C6656 1.524 . S
C6655 C6659 1.400 . S
C6656 H6641 0.960 . S
C6656 H6642 0.960 . S
C6656 H6643 0.960 . S
C6656 C6655 1.524 . S
C6657 C6654 1.403 . S
C6657 C6658 1.392 . S
C6657 C6661 1.495 . S
C6658 C6657 1.392 . S
C6658 C6659 1.385 . S
C6658 C6660 1.478 . S
C6659 H6653 0.930 . S
C6659 C6655 1.400 . S
C6659 C6658 1.385 . S
C6660 C6658 1.478 . S
C6660 C6662 1.381 . S
C6660 C6666 1.383 . S
C6661 C6657 1.495 . S
C6661 H6667 0.959 . S
C6661 H6668 0.961 . S
C6661 H6669 0.960 . S
C6662 C6660 1.381 . S
C6662 C6663 1.394 . S
C6662 H6670 0.930 . S
C6663 C6662 1.394 . S
C6663 C6664 1.383 . S
C6663 H6671 0.929 . S
C6664 C6663 1.383 . S
C6664 C6665 1.377 . S
C6665 H6649 0.930 . S
C6665 C6664 1.377 . S
C6665 C6666 1.379 . S
C6666 H6650 0.931 . S
C6666 C6660 1.383 . S
C6666 C6665 1.379 . S
H6667 C6661 0.959 . S
H6668 C6661 0.961 . S
H6669 C6661 0.960 . S
H6670 C6662 0.930 . S
H6671 C6663 0.929 . S
H6672 C6680 0.929 . S
H6673 C6682 0.930 . S
H6674 C6684 0.930 . S
H6675 C6687 0.929 . S
H6676 C6690 0.930 . S
H6677 C6692 0.960 . S
H6678 C6692 0.960 . S
H6679 C6692 0.960 . S
C6680 H6672 0.929 . S
C6680 C6681 1.377 . S
C6680 C6682 1.384 . S
C6681 C6680 1.377 . S
C6681 C6687 1.390 . S
C6682 H6673 0.930 . S
C6682 C6680 1.384 . S
C6682 C6683 1.372 . S
C6683 C6682 1.372 . S
C6683 C6684 1.400 . S
C6683 C6688 1.490 . S
C6684 H6674 0.930 . S
C6684 C6683 1.400 . S
C6684 C6687 1.386 . S
H6685 C6701 0.930 . S
H6686 C6702 0.931 . S
C6687 H6675 0.929 . S
C6687 C6681 1.390 . S
C6687 C6684 1.386 . S
C6688 C6683 1.490 . S
C6688 C6690 1.395 . S
C6688 C6691 1.403 . S
H6689 C6695 0.930 . S
C6690 H6676 0.930 . S
C6690 C6688 1.395 . S
C6690 C6693 1.403 . S
C6691 C6688 1.403 . S
C6691 C6692 1.524 . S
C6691 C6695 1.400 . S
C6692 H6677 0.960 . S
C6692 H6678 0.960 . S
C6692 H6679 0.960 . S
C6692 C6691 1.524 . S
C6693 C6690 1.403 . S
C6693 C6694 1.392 . S
C6693 C6697 1.495 . S
C6694 C6693 1.392 . S
C6694 C6695 1.385 . S
C6694 C6696 1.478 . S
C6695 H6689 0.930 . S
C6695 C6691 1.400 . S
C6695 C6694 1.385 . S
C6696 C6694 1.478 . S
C6696 C6698 1.381 . S
C6696 C6702 1.383 . S
C6697 C6693 1.495 . S
C6697 H6703 0.959 . S
C6697 H6704 0.961 . S
C6697 H6705 0.960 . S
C6698 C6696 1.381 . S
C6698 C6699 1.394 . S
C6698 H6706 0.930 . S
C6699 C6698 1.394 . S
C6699 C6700 1.383 . S
C6699 H6707 0.929 . S
C6700 C6699 1.383 . S
C6700 C6701 1.377 . S
C6701 H6685 0.930 . S
C6701 C6700 1.377 . S
C6701 C6702 1.379 . S
C6702 H6686 0.931 . S
C6702 C6696 1.383 . S
C6702 C6701 1.379 . S
H6703 C6697 0.959 . S
H6704 C6697 0.961 . S
H6705 C6697 0.960 . S
H6706 C6698 0.930 . S
H6707 C6699 0.929 . S
H6708 C6716 0.929 . S
H6709 C6718 0.930 . S
H6710 C6720 0.930 . S
H6711 C6723 0.929 . S
H6712 C6726 0.930 . S
H6713 C6728 0.960 . S
H6714 C6728 0.960 . S
H6715 C6728 0.960 . S
C6716 H6708 0.929 . S
C6716 C6717 1.377 . S
C6716 C6718 1.384 . S
C6717 C6716 1.377 . S
C6717 C6723 1.390 . S
C6718 H6709 0.930 . S
C6718 C6716 1.384 . S
C6718 C6719 1.372 . S
C6719 C6718 1.372 . S
C6719 C6720 1.400 . S
C6719 C6724 1.490 . S
C6720 H6710 0.930 . S
C6720 C6719 1.400 . S
C6720 C6723 1.386 . S
H6721 C6737 0.930 . S
H6722 C6738 0.931 . S
C6723 H6711 0.929 . S
C6723 C6717 1.390 . S
C6723 C6720 1.386 . S
C6724 C6719 1.490 . S
C6724 C6726 1.395 . S
C6724 C6727 1.403 . S
H6725 C6731 0.930 . S
C6726 H6712 0.930 . S
C6726 C6724 1.395 . S
C6726 C6729 1.403 . S
C6727 C6724 1.403 . S
C6727 C6728 1.524 . S
C6727 C6731 1.400 . S
C6728 H6713 0.960 . S
C6728 H6714 0.960 . S
C6728 H6715 0.960 . S
C6728 C6727 1.524 . S
C6729 C6726 1.403 . S
C6729 C6730 1.392 . S
C6729 C6733 1.495 . S
C6730 C6729 1.392 . S
C6730 C6731 1.385 . S
C6730 C6732 1.478 . S
C6731 H6725 0.930 . S
C6731 C6727 1.400 . S
C6731 C6730 1.385 . S
C6732 C6730 1.478 . S
C6732 C6734 1.381 . S
C6732 C6738 1.383 . S
C6733 C6729 1.495 . S
C6733 H6739 0.959 . S
C6733 H6740 0.961 . S
C6733 H6741 0.960 . S
C6734 C6732 1.381 . S
C6734 C6735 1.394 . S
C6734 H6742 0.930 . S
C6735 C6734 1.394 . S
C6735 C6736 1.383 . S
C6735 H6743 0.929 . S
C6736 C6735 1.383 . S
C6736 C6737 1.377 . S
C6737 H6721 0.930 . S
C6737 C6736 1.377 . S
C6737 C6738 1.379 . S
C6738 H6722 0.931 . S
C6738 C6732 1.383 . S
C6738 C6737 1.379 . S
H6739 C6733 0.959 . S
H6740 C6733 0.961 . S
H6741 C6733 0.960 . S
H6742 C6734 0.930 . S
H6743 C6735 0.929 . S
H6744 C6752 0.929 . S
H6745 C6754 0.930 . S
H6746 C6756 0.930 . S
H6747 C6759 0.929 . S
H6748 C6762 0.930 . S
H6749 C6764 0.960 . S
H6750 C6764 0.960 . S
H6751 C6764 0.960 . S
C6752 H6744 0.929 . S
C6752 C6753 1.377 . S
C6752 C6754 1.384 . S
C6753 C6752 1.377 . S
C6753 C6759 1.390 . S
C6754 H6745 0.930 . S
C6754 C6752 1.384 . S
C6754 C6755 1.372 . S
C6755 C6754 1.372 . S
C6755 C6756 1.400 . S
C6755 C6760 1.490 . S
C6756 H6746 0.930 . S
C6756 C6755 1.400 . S
C6756 C6759 1.386 . S
H6757 C6773 0.930 . S
H6758 C6774 0.931 . S
C6759 H6747 0.929 . S
C6759 C6753 1.390 . S
C6759 C6756 1.386 . S
C6760 C6755 1.490 . S
C6760 C6762 1.395 . S
C6760 C6763 1.403 . S
H6761 C6767 0.930 . S
C6762 H6748 0.930 . S
C6762 C6760 1.395 . S
C6762 C6765 1.403 . S
C6763 C6760 1.403 . S
C6763 C6764 1.524 . S
C6763 C6767 1.400 . S
C6764 H6749 0.960 . S
C6764 H6750 0.960 . S
C6764 H6751 0.960 . S
C6764 C6763 1.524 . S
C6765 C6762 1.403 . S
C6765 C6766 1.392 . S
C6765 C6769 1.495 . S
C6766 C6765 1.392 . S
C6766 C6767 1.385 . S
C6766 C6768 1.478 . S
C6767 H6761 0.930 . S
C6767 C6763 1.400 . S
C6767 C6766 1.385 . S
C6768 C6766 1.478 . S
C6768 C6770 1.381 . S
C6768 C6774 1.383 . S
C6769 C6765 1.495 . S
C6769 H6775 0.959 . S
C6769 H6776 0.961 . S
C6769 H6777 0.960 . S
C6770 C6768 1.381 . S
C6770 C6771 1.394 . S
C6770 H6778 0.930 . S
C6771 C6770 1.394 . S
C6771 C6772 1.383 . S
C6771 H6779 0.929 . S
C6772 C6771 1.383 . S
C6772 C6773 1.377 . S
C6773 H6757 0.930 . S
C6773 C6772 1.377 . S
C6773 C6774 1.379 . S
C6774 H6758 0.931 . S
C6774 C6768 1.383 . S
C6774 C6773 1.379 . S
H6775 C6769 0.959 . S
H6776 C6769 0.961 . S
H6777 C6769 0.960 . S
H6778 C6770 0.930 . S
H6779 C6771 0.929 . S
H6780 C6788 0.929 . S
H6781 C6790 0.930 . S
H6782 C6792 0.930 . S
H6783 C6795 0.929 . S
H6784 C6798 0.930 . S
H6785 C6800 0.960 . S
H6786 C6800 0.960 . S
H6787 C6800 0.960 . S
C6788 H6780 0.929 . S
C6788 C6789 1.377 . S
C6788 C6790 1.384 . S
C6789 C6788 1.377 . S
C6789 C6795 1.390 . S
C6790 H6781 0.930 . S
C6790 C6788 1.384 . S
C6790 C6791 1.372 . S
C6791 C6790 1.372 . S
C6791 C6792 1.400 . S
C6791 C6796 1.490 . S
C6792 H6782 0.930 . S
C6792 C6791 1.400 . S
C6792 C6795 1.386 . S
H6793 C6809 0.930 . S
H6794 C6810 0.931 . S
C6795 H6783 0.929 . S
C6795 C6789 1.390 . S
C6795 C6792 1.386 . S
C6796 C6791 1.490 . S
C6796 C6798 1.395 . S
C6796 C6799 1.403 . S
H6797 C6803 0.930 . S
C6798 H6784 0.930 . S
C6798 C6796 1.395 . S
C6798 C6801 1.403 . S
C6799 C6796 1.403 . S
C6799 C6800 1.524 . S
C6799 C6803 1.400 . S
C6800 H6785 0.960 . S
C6800 H6786 0.960 . S
C6800 H6787 0.960 . S
C6800 C6799 1.524 . S
C6801 C6798 1.403 . S
C6801 C6802 1.392 . S
C6801 C6805 1.495 . S
C6802 C6801 1.392 . S
C6802 C6803 1.385 . S
C6802 C6804 1.478 . S
C6803 H6797 0.930 . S
C6803 C6799 1.400 . S
C6803 C6802 1.385 . S
C6804 C6802 1.478 . S
C6804 C6806 1.381 . S
C6804 C6810 1.383 . S
C6805 C6801 1.495 . S
C6805 H6811 0.959 . S
C6805 H6812 0.961 . S
C6805 H6813 0.960 . S
C6806 C6804 1.381 . S
C6806 C6807 1.394 . S
C6806 H6814 0.930 . S
C6807 C6806 1.394 . S
C6807 C6808 1.383 . S
C6807 H6815 0.929 . S
C6808 C6807 1.383 . S
C6808 C6809 1.377 . S
C6809 H6793 0.930 . S
C6809 C6808 1.377 . S
C6809 C6810 1.379 . S
C6810 H6794 0.931 . S
C6810 C6804 1.383 . S
C6810 C6809 1.379 . S
H6811 C6805 0.959 . S
H6812 C6805 0.961 . S
H6813 C6805 0.960 . S
H6814 C6806 0.930 . S
H6815 C6807 0.929 . S
H6816 C6824 0.929 . S
H6817 C6826 0.930 . S
H6818 C6828 0.930 . S
H6819 C6831 0.929 . S
H6820 C6834 0.930 . S
H6821 C6836 0.960 . S
H6822 C6836 0.960 . S
H6823 C6836 0.960 . S
C6824 H6816 0.929 . S
C6824 C6825 1.377 . S
C6824 C6826 1.384 . S
C6825 C6824 1.377 . S
C6825 C6831 1.390 . S
C6826 H6817 0.930 . S
C6826 C6824 1.384 . S
C6826 C6827 1.372 . S
C6827 C6826 1.372 . S
C6827 C6828 1.400 . S
C6827 C6832 1.490 . S
C6828 H6818 0.930 . S
C6828 C6827 1.400 . S
C6828 C6831 1.386 . S
H6829 C6845 0.930 . S
H6830 C6846 0.931 . S
C6831 H6819 0.929 . S
C6831 C6825 1.390 . S
C6831 C6828 1.386 . S
C6832 C6827 1.490 . S
C6832 C6834 1.395 . S
C6832 C6835 1.403 . S
H6833 C6839 0.930 . S
C6834 H6820 0.930 . S
C6834 C6832 1.395 . S
C6834 C6837 1.403 . S
C6835 C6832 1.403 . S
C6835 C6836 1.524 . S
C6835 C6839 1.400 . S
C6836 H6821 0.960 . S
C6836 H6822 0.960 . S
C6836 H6823 0.960 . S
C6836 C6835 1.524 . S
C6837 C6834 1.403 . S
C6837 C6838 1.392 . S
C6837 C6841 1.495 . S
C6838 C6837 1.392 . S
C6838 C6839 1.385 . S
C6838 C6840 1.478 . S
C6839 H6833 0.930 . S
C6839 C6835 1.400 . S
C6839 C6838 1.385 . S
C6840 C6838 1.478 . S
C6840 C6842 1.381 . S
C6840 C6846 1.383 . S
C6841 C6837 1.495 . S
C6841 H6847 0.959 . S
C6841 H6848 0.961 . S
C6841 H6849 0.960 . S
C6842 C6840 1.381 . S
C6842 C6843 1.394 . S
C6842 H6850 0.930 . S
C6843 C6842 1.394 . S
C6843 C6844 1.383 . S
C6843 H6851 0.929 . S
C6844 C6843 1.383 . S
C6844 C6845 1.377 . S
C6845 H6829 0.930 . S
C6845 C6844 1.377 . S
C6845 C6846 1.379 . S
C6846 H6830 0.931 . S
C6846 C6840 1.383 . S
C6846 C6845 1.379 . S
H6847 C6841 0.959 . S
H6848 C6841 0.961 . S
H6849 C6841 0.960 . S
H6850 C6842 0.930 . S
H6851 C6843 0.929 . S
H6852 C6860 0.929 . S
H6853 C6862 0.930 . S
H6854 C6864 0.930 . S
H6855 C6867 0.929 . S
H6856 C6870 0.930 . S
H6857 C6872 0.960 . S
H6858 C6872 0.960 . S
H6859 C6872 0.960 . S
C6860 H6852 0.929 . S
C6860 C6861 1.377 . S
C6860 C6862 1.384 . S
C6861 C6860 1.377 . S
C6861 C6867 1.390 . S
C6862 H6853 0.930 . S
C6862 C6860 1.384 . S
C6862 C6863 1.372 . S
C6863 C6862 1.372 . S
C6863 C6864 1.400 . S
C6863 C6868 1.490 . S
C6864 H6854 0.930 . S
C6864 C6863 1.400 . S
C6864 C6867 1.386 . S
H6865 C6881 0.930 . S
H6866 C6882 0.931 . S
C6867 H6855 0.929 . S
C6867 C6861 1.390 . S
C6867 C6864 1.386 . S
C6868 C6863 1.490 . S
C6868 C6870 1.395 . S
C6868 C6871 1.403 . S
H6869 C6875 0.930 . S
C6870 H6856 0.930 . S
C6870 C6868 1.395 . S
C6870 C6873 1.403 . S
C6871 C6868 1.403 . S
C6871 C6872 1.524 . S
C6871 C6875 1.400 . S
C6872 H6857 0.960 . S
C6872 H6858 0.960 . S
C6872 H6859 0.960 . S
C6872 C6871 1.524 . S
C6873 C6870 1.403 . S
C6873 C6874 1.392 . S
C6873 C6877 1.495 . S
C6874 C6873 1.392 . S
C6874 C6875 1.385 . S
C6874 C6876 1.478 . S
C6875 H6869 0.930 . S
C6875 C6871 1.400 . S
C6875 C6874 1.385 . S
C6876 C6874 1.478 . S
C6876 C6878 1.381 . S
C6876 C6882 1.383 . S
C6877 C6873 1.495 . S
C6877 H6883 0.959 . S
C6877 H6884 0.961 . S
C6877 H6885 0.960 . S
C6878 C6876 1.381 . S
C6878 C6879 1.394 . S
C6878 H6886 0.930 . S
C6879 C6878 1.394 . S
C6879 C6880 1.383 . S
C6879 H6887 0.929 . S
C6880 C6879 1.383 . S
C6880 C6881 1.377 . S
C6881 H6865 0.930 . S
C6881 C6880 1.377 . S
C6881 C6882 1.379 . S
C6882 H6866 0.931 . S
C6882 C6876 1.383 . S
C6882 C6881 1.379 . S
H6883 C6877 0.959 . S
H6884 C6877 0.961 . S
H6885 C6877 0.960 . S
H6886 C6878 0.930 . S
H6887 C6879 0.929 . S
H6888 C6896 0.929 . S
H6889 C6898 0.930 . S
H6890 C6900 0.930 . S
H6891 C6903 0.929 . S
H6892 C6906 0.930 . S
H6893 C6908 0.960 . S
H6894 C6908 0.960 . S
H6895 C6908 0.960 . S
C6896 H6888 0.929 . S
C6896 C6897 1.377 . S
C6896 C6898 1.384 . S
C6897 C6896 1.377 . S
C6897 C6903 1.390 . S
C6898 H6889 0.930 . S
C6898 C6896 1.384 . S
C6898 C6899 1.372 . S
C6899 C6898 1.372 . S
C6899 C6900 1.400 . S
C6899 C6904 1.490 . S
C6900 H6890 0.930 . S
C6900 C6899 1.400 . S
C6900 C6903 1.386 . S
H6901 C6917 0.930 . S
H6902 C6918 0.931 . S
C6903 H6891 0.929 . S
C6903 C6897 1.390 . S
C6903 C6900 1.386 . S
C6904 C6899 1.490 . S
C6904 C6906 1.395 . S
C6904 C6907 1.403 . S
H6905 C6911 0.930 . S
C6906 H6892 0.930 . S
C6906 C6904 1.395 . S
C6906 C6909 1.403 . S
C6907 C6904 1.403 . S
C6907 C6908 1.524 . S
C6907 C6911 1.400 . S
C6908 H6893 0.960 . S
C6908 H6894 0.960 . S
C6908 H6895 0.960 . S
C6908 C6907 1.524 . S
C6909 C6906 1.403 . S
C6909 C6910 1.392 . S
C6909 C6913 1.495 . S
C6910 C6909 1.392 . S
C6910 C6911 1.385 . S
C6910 C6912 1.478 . S
C6911 H6905 0.930 . S
C6911 C6907 1.400 . S
C6911 C6910 1.385 . S
C6912 C6910 1.478 . S
C6912 C6914 1.381 . S
C6912 C6918 1.383 . S
C6913 C6909 1.495 . S
C6913 H6919 0.959 . S
C6913 H6920 0.961 . S
C6913 H6921 0.960 . S
C6914 C6912 1.381 . S
C6914 C6915 1.394 . S
C6914 H6922 0.930 . S
C6915 C6914 1.394 . S
C6915 C6916 1.383 . S
C6915 H6923 0.929 . S
C6916 C6915 1.383 . S
C6916 C6917 1.377 . S
C6917 H6901 0.930 . S
C6917 C6916 1.377 . S
C6917 C6918 1.379 . S
C6918 H6902 0.931 . S
C6918 C6912 1.383 . S
C6918 C6917 1.379 . S
H6919 C6913 0.959 . S
H6920 C6913 0.961 . S
H6921 C6913 0.960 . S
H6922 C6914 0.930 . S
H6923 C6915 0.929 . S
H6924 C6932 0.929 . S
H6925 C6934 0.930 . S
H6926 C6936 0.930 . S
H6927 C6939 0.929 . S
H6928 C6942 0.930 . S
H6929 C6944 0.960 . S
H6930 C6944 0.960 . S
H6931 C6944 0.960 . S
C6932 H6924 0.929 . S
C6932 C6933 1.377 . S
C6932 C6934 1.384 . S
C6933 C6932 1.377 . S
C6933 C6939 1.390 . S
C6934 H6925 0.930 . S
C6934 C6932 1.384 . S
C6934 C6935 1.372 . S
C6935 C6934 1.372 . S
C6935 C6936 1.400 . S
C6935 C6940 1.490 . S
C6936 H6926 0.930 . S
C6936 C6935 1.400 . S
C6936 C6939 1.386 . S
H6937 C6953 0.930 . S
H6938 C6954 0.931 . S
C6939 H6927 0.929 . S
C6939 C6933 1.390 . S
C6939 C6936 1.386 . S
C6940 C6935 1.490 . S
C6940 C6942 1.395 . S
C6940 C6943 1.403 . S
H6941 C6947 0.930 . S
C6942 H6928 0.930 . S
C6942 C6940 1.395 . S
C6942 C6945 1.403 . S
C6943 C6940 1.403 . S
C6943 C6944 1.524 . S
C6943 C6947 1.400 . S
C6944 H6929 0.960 . S
C6944 H6930 0.960 . S
C6944 H6931 0.960 . S
C6944 C6943 1.524 . S
C6945 C6942 1.403 . S
C6945 C6946 1.392 . S
C6945 C6949 1.495 . S
C6946 C6945 1.392 . S
C6946 C6947 1.385 . S
C6946 C6948 1.478 . S
C6947 H6941 0.930 . S
C6947 C6943 1.400 . S
C6947 C6946 1.385 . S
C6948 C6946 1.478 . S
C6948 C6950 1.381 . S
C6948 C6954 1.383 . S
C6949 C6945 1.495 . S
C6949 H6955 0.959 . S
C6949 H6956 0.961 . S
C6949 H6957 0.960 . S
C6950 C6948 1.381 . S
C6950 C6951 1.394 . S
C6950 H6958 0.930 . S
C6951 C6950 1.394 . S
C6951 C6952 1.383 . S
C6951 H6959 0.929 . S
C6952 C6951 1.383 . S
C6952 C6953 1.377 . S
C6953 H6937 0.930 . S
C6953 C6952 1.377 . S
C6953 C6954 1.379 . S
C6954 H6938 0.931 . S
C6954 C6948 1.383 . S
C6954 C6953 1.379 . S
H6955 C6949 0.959 . S
H6956 C6949 0.961 . S
H6957 C6949 0.960 . S
H6958 C6950 0.930 . S
H6959 C6951 0.929 . S
H6960 C6968 0.929 . S
H6961 C6970 0.930 . S
H6962 C6972 0.930 . S
H6963 C6975 0.929 . S
H6964 C6978 0.930 . S
H6965 C6980 0.960 . S
H6966 C6980 0.960 . S
H6967 C6980 0.960 . S
C6968 H6960 0.929 . S
C6968 C6969 1.377 . S
C6968 C6970 1.384 . S
C6969 C6968 1.377 . S
C6969 C6975 1.390 . S
C6970 H6961 0.930 . S
C6970 C6968 1.384 . S
C6970 C6971 1.372 . S
C6971 C6970 1.372 . S
C6971 C6972 1.400 . S
C6971 C6976 1.490 . S
C6972 H6962 0.930 . S
C6972 C6971 1.400 . S
C6972 C6975 1.386 . S
H6973 C6989 0.930 . S
H6974 C6990 0.931 . S
C6975 H6963 0.929 . S
C6975 C6969 1.390 . S
C6975 C6972 1.386 . S
C6976 C6971 1.490 . S
C6976 C6978 1.395 . S
C6976 C6979 1.403 . S
H6977 C6983 0.930 . S
C6978 H6964 0.930 . S
C6978 C6976 1.395 . S
C6978 C6981 1.403 . S
C6979 C6976 1.403 . S
C6979 C6980 1.524 . S
C6979 C6983 1.400 . S
C6980 H6965 0.960 . S
C6980 H6966 0.960 . S
C6980 H6967 0.960 . S
C6980 C6979 1.524 . S
C6981 C6978 1.403 . S
C6981 C6982 1.392 . S
C6981 C6985 1.495 . S
C6982 C6981 1.392 . S
C6982 C6983 1.385 . S
C6982 C6984 1.478 . S
C6983 H6977 0.930 . S
C6983 C6979 1.400 . S
C6983 C6982 1.385 . S
C6984 C6982 1.478 . S
C6984 C6986 1.381 . S
C6984 C6990 1.383 . S
C6985 C6981 1.495 . S
C6985 H6991 0.959 . S
C6985 H6992 0.961 . S
C6985 H6993 0.960 . S
C6986 C6984 1.381 . S
C6986 C6987 1.394 . S
C6986 H6994 0.930 . S
C6987 C6986 1.394 . S
C6987 C6988 1.383 . S
C6987 H6995 0.929 . S
C6988 C6987 1.383 . S
C6988 C6989 1.377 . S
C6989 H6973 0.930 . S
C6989 C6988 1.377 . S
C6989 C6990 1.379 . S
C6990 H6974 0.931 . S
C6990 C6984 1.383 . S
C6990 C6989 1.379 . S
H6991 C6985 0.959 . S
H6992 C6985 0.961 . S
H6993 C6985 0.960 . S
H6994 C6986 0.930 . S
H6995 C6987 0.929 . S
H6996 C7004 0.929 . S
H6997 C7006 0.930 . S
H6998 C7008 0.930 . S
H6999 C7011 0.929 . S
H7000 C7014 0.930 . S
H7001 C7016 0.960 . S
H7002 C7016 0.960 . S
H7003 C7016 0.960 . S
C7004 H6996 0.929 . S
C7004 C7005 1.377 . S
C7004 C7006 1.384 . S
C7005 C7004 1.377 . S
C7005 C7011 1.390 . S
C7006 H6997 0.930 . S
C7006 C7004 1.384 . S
C7006 C7007 1.372 . S
C7007 C7006 1.372 . S
C7007 C7008 1.400 . S
C7007 C7012 1.490 . S
C7008 H6998 0.930 . S
C7008 C7007 1.400 . S
C7008 C7011 1.386 . S
H7009 C7025 0.930 . S
H7010 C7026 0.931 . S
C7011 H6999 0.929 . S
C7011 C7005 1.390 . S
C7011 C7008 1.386 . S
C7012 C7007 1.490 . S
C7012 C7014 1.395 . S
C7012 C7015 1.403 . S
H7013 C7019 0.930 . S
C7014 H7000 0.930 . S
C7014 C7012 1.395 . S
C7014 C7017 1.403 . S
C7015 C7012 1.403 . S
C7015 C7016 1.524 . S
C7015 C7019 1.400 . S
C7016 H7001 0.960 . S
C7016 H7002 0.960 . S
C7016 H7003 0.960 . S
C7016 C7015 1.524 . S
C7017 C7014 1.403 . S
C7017 C7018 1.392 . S
C7017 C7021 1.495 . S
C7018 C7017 1.392 . S
C7018 C7019 1.385 . S
C7018 C7020 1.478 . S
C7019 H7013 0.930 . S
C7019 C7015 1.400 . S
C7019 C7018 1.385 . S
C7020 C7018 1.478 . S
C7020 C7022 1.381 . S
C7020 C7026 1.383 . S
C7021 C7017 1.495 . S
C7021 H7027 0.959 . S
C7021 H7028 0.961 . S
C7021 H7029 0.960 . S
C7022 C7020 1.381 . S
C7022 C7023 1.394 . S
C7022 H7030 0.930 . S
C7023 C7022 1.394 . S
C7023 C7024 1.383 . S
C7023 H7031 0.929 . S
C7024 C7023 1.383 . S
C7024 C7025 1.377 . S
C7025 H7009 0.930 . S
C7025 C7024 1.377 . S
C7025 C7026 1.379 . S
C7026 H7010 0.931 . S
C7026 C7020 1.383 . S
C7026 C7025 1.379 . S
H7027 C7021 0.959 . S
H7028 C7021 0.961 . S
H7029 C7021 0.960 . S
H7030 C7022 0.930 . S
H7031 C7023 0.929 . S
H7032 C7040 0.929 . S
H7033 C7042 0.930 . S
H7034 C7044 0.930 . S
H7035 C7047 0.929 . S
H7036 C7050 0.930 . S
H7037 C7052 0.960 . S
H7038 C7052 0.960 . S
H7039 C7052 0.960 . S
C7040 H7032 0.929 . S
C7040 C7041 1.377 . S
C7040 C7042 1.384 . S
C7041 C7040 1.377 . S
C7041 C7047 1.390 . S
C7042 H7033 0.930 . S
C7042 C7040 1.384 . S
C7042 C7043 1.372 . S
C7043 C7042 1.372 . S
C7043 C7044 1.400 . S
C7043 C7048 1.490 . S
C7044 H7034 0.930 . S
C7044 C7043 1.400 . S
C7044 C7047 1.386 . S
H7045 C7061 0.930 . S
H7046 C7062 0.931 . S
C7047 H7035 0.929 . S
C7047 C7041 1.390 . S
C7047 C7044 1.386 . S
C7048 C7043 1.490 . S
C7048 C7050 1.395 . S
C7048 C7051 1.403 . S
H7049 C7055 0.930 . S
C7050 H7036 0.930 . S
C7050 C7048 1.395 . S
C7050 C7053 1.403 . S
C7051 C7048 1.403 . S
C7051 C7052 1.524 . S
C7051 C7055 1.400 . S
C7052 H7037 0.960 . S
C7052 H7038 0.960 . S
C7052 H7039 0.960 . S
C7052 C7051 1.524 . S
C7053 C7050 1.403 . S
C7053 C7054 1.392 . S
C7053 C7057 1.495 . S
C7054 C7053 1.392 . S
C7054 C7055 1.385 . S
C7054 C7056 1.478 . S
C7055 H7049 0.930 . S
C7055 C7051 1.400 . S
C7055 C7054 1.385 . S
C7056 C7054 1.478 . S
C7056 C7058 1.381 . S
C7056 C7062 1.383 . S
C7057 C7053 1.495 . S
C7057 H7063 0.959 . S
C7057 H7064 0.961 . S
C7057 H7065 0.960 . S
C7058 C7056 1.381 . S
C7058 C7059 1.394 . S
C7058 H7066 0.930 . S
C7059 C7058 1.394 . S
C7059 C7060 1.383 . S
C7059 H7067 0.929 . S
C7060 C7059 1.383 . S
C7060 C7061 1.377 . S
C7061 H7045 0.930 . S
C7061 C7060 1.377 . S
C7061 C7062 1.379 . S
C7062 H7046 0.931 . S
C7062 C7056 1.383 . S
C7062 C7061 1.379 . S
H7063 C7057 0.959 . S
H7064 C7057 0.961 . S
H7065 C7057 0.960 . S
H7066 C7058 0.930 . S
H7067 C7059 0.929 . S
H7068 C7076 0.929 . S
H7069 C7078 0.930 . S
H7070 C7080 0.930 . S
H7071 C7083 0.929 . S
H7072 C7086 0.930 . S
H7073 C7088 0.960 . S
H7074 C7088 0.960 . S
H7075 C7088 0.960 . S
C7076 H7068 0.929 . S
C7076 C7077 1.377 . S
C7076 C7078 1.384 . S
C7077 C7076 1.377 . S
C7077 C7083 1.390 . S
C7078 H7069 0.930 . S
C7078 C7076 1.384 . S
C7078 C7079 1.372 . S
C7079 C7078 1.372 . S
C7079 C7080 1.400 . S
C7079 C7084 1.490 . S
C7080 H7070 0.930 . S
C7080 C7079 1.400 . S
C7080 C7083 1.386 . S
H7081 C7097 0.930 . S
H7082 C7098 0.931 . S
C7083 H7071 0.929 . S
C7083 C7077 1.390 . S
C7083 C7080 1.386 . S
C7084 C7079 1.490 . S
C7084 C7086 1.395 . S
C7084 C7087 1.403 . S
H7085 C7091 0.930 . S
C7086 H7072 0.930 . S
C7086 C7084 1.395 . S
C7086 C7089 1.403 . S
C7087 C7084 1.403 . S
C7087 C7088 1.524 . S
C7087 C7091 1.400 . S
C7088 H7073 0.960 . S
C7088 H7074 0.960 . S
C7088 H7075 0.960 . S
C7088 C7087 1.524 . S
C7089 C7086 1.403 . S
C7089 C7090 1.392 . S
C7089 C7093 1.495 . S
C7090 C7089 1.392 . S
C7090 C7091 1.385 . S
C7090 C7092 1.478 . S
C7091 H7085 0.930 . S
C7091 C7087 1.400 . S
C7091 C7090 1.385 . S
C7092 C7090 1.478 . S
C7092 C7094 1.381 . S
C7092 C7098 1.383 . S
C7093 C7089 1.495 . S
C7093 H7099 0.959 . S
C7093 H7100 0.961 . S
C7093 H7101 0.960 . S
C7094 C7092 1.381 . S
C7094 C7095 1.394 . S
C7094 H7102 0.930 . S
C7095 C7094 1.394 . S
C7095 C7096 1.383 . S
C7095 H7103 0.929 . S
C7096 C7095 1.383 . S
C7096 C7097 1.377 . S
C7097 H7081 0.930 . S
C7097 C7096 1.377 . S
C7097 C7098 1.379 . S
C7098 H7082 0.931 . S
C7098 C7092 1.383 . S
C7098 C7097 1.379 . S
H7099 C7093 0.959 . S
H7100 C7093 0.961 . S
H7101 C7093 0.960 . S
H7102 C7094 0.930 . S
H7103 C7095 0.929 . S
H7104 C7112 0.929 . S
H7105 C7114 0.930 . S
H7106 C7116 0.930 . S
H7107 C7119 0.929 . S
H7108 C7122 0.930 . S
H7109 C7124 0.960 . S
H7110 C7124 0.960 . S
H7111 C7124 0.960 . S
C7112 H7104 0.929 . S
C7112 C7113 1.377 . S
C7112 C7114 1.384 . S
C7113 C7112 1.377 . S
C7113 C7119 1.390 . S
C7114 H7105 0.930 . S
C7114 C7112 1.384 . S
C7114 C7115 1.372 . S
C7115 C7114 1.372 . S
C7115 C7116 1.400 . S
C7115 C7120 1.490 . S
C7116 H7106 0.930 . S
C7116 C7115 1.400 . S
C7116 C7119 1.386 . S
H7117 C7133 0.930 . S
H7118 C7134 0.931 . S
C7119 H7107 0.929 . S
C7119 C7113 1.390 . S
C7119 C7116 1.386 . S
C7120 C7115 1.490 . S
C7120 C7122 1.395 . S
C7120 C7123 1.403 . S
H7121 C7127 0.930 . S
C7122 H7108 0.930 . S
C7122 C7120 1.395 . S
C7122 C7125 1.403 . S
C7123 C7120 1.403 . S
C7123 C7124 1.524 . S
C7123 C7127 1.400 . S
C7124 H7109 0.960 . S
C7124 H7110 0.960 . S
C7124 H7111 0.960 . S
C7124 C7123 1.524 . S
C7125 C7122 1.403 . S
C7125 C7126 1.392 . S
C7125 C7129 1.495 . S
C7126 C7125 1.392 . S
C7126 C7127 1.385 . S
C7126 C7128 1.478 . S
C7127 H7121 0.930 . S
C7127 C7123 1.400 . S
C7127 C7126 1.385 . S
C7128 C7126 1.478 . S
C7128 C7130 1.381 . S
C7128 C7134 1.383 . S
C7129 C7125 1.495 . S
C7129 H7135 0.959 . S
C7129 H7136 0.961 . S
C7129 H7137 0.960 . S
C7130 C7128 1.381 . S
C7130 C7131 1.394 . S
C7130 H7138 0.930 . S
C7131 C7130 1.394 . S
C7131 C7132 1.383 . S
C7131 H7139 0.929 . S
C7132 C7131 1.383 . S
C7132 C7133 1.377 . S
C7133 H7117 0.930 . S
C7133 C7132 1.377 . S
C7133 C7134 1.379 . S
C7134 H7118 0.931 . S
C7134 C7128 1.383 . S
C7134 C7133 1.379 . S
H7135 C7129 0.959 . S
H7136 C7129 0.961 . S
H7137 C7129 0.960 . S
H7138 C7130 0.930 . S
H7139 C7131 0.929 . S
H7140 C7148 0.929 . S
H7141 C7150 0.930 . S
H7142 C7152 0.930 . S
H7143 C7155 0.929 . S
H7144 C7158 0.930 . S
H7145 C7160 0.960 . S
H7146 C7160 0.960 . S
H7147 C7160 0.960 . S
C7148 H7140 0.929 . S
C7148 C7149 1.377 . S
C7148 C7150 1.384 . S
C7149 C7148 1.377 . S
C7149 C7155 1.390 . S
C7150 H7141 0.930 . S
C7150 C7148 1.384 . S
C7150 C7151 1.372 . S
C7151 C7150 1.372 . S
C7151 C7152 1.400 . S
C7151 C7156 1.490 . S
C7152 H7142 0.930 . S
C7152 C7151 1.400 . S
C7152 C7155 1.386 . S
H7153 C7169 0.930 . S
H7154 C7170 0.931 . S
C7155 H7143 0.929 . S
C7155 C7149 1.390 . S
C7155 C7152 1.386 . S
C7156 C7151 1.490 . S
C7156 C7158 1.395 . S
C7156 C7159 1.403 . S
H7157 C7163 0.930 . S
C7158 H7144 0.930 . S
C7158 C7156 1.395 . S
C7158 C7161 1.403 . S
C7159 C7156 1.403 . S
C7159 C7160 1.524 . S
C7159 C7163 1.400 . S
C7160 H7145 0.960 . S
C7160 H7146 0.960 . S
C7160 H7147 0.960 . S
C7160 C7159 1.524 . S
C7161 C7158 1.403 . S
C7161 C7162 1.392 . S
C7161 C7165 1.495 . S
C7162 C7161 1.392 . S
C7162 C7163 1.385 . S
C7162 C7164 1.478 . S
C7163 H7157 0.930 . S
C7163 C7159 1.400 . S
C7163 C7162 1.385 . S
C7164 C7162 1.478 . S
C7164 C7166 1.381 . S
C7164 C7170 1.383 . S
C7165 C7161 1.495 . S
C7165 H7171 0.959 . S
C7165 H7172 0.961 . S
C7165 H7173 0.960 . S
C7166 C7164 1.381 . S
C7166 C7167 1.394 . S
C7166 H7174 0.930 . S
C7167 C7166 1.394 . S
C7167 C7168 1.383 . S
C7167 H7175 0.929 . S
C7168 C7167 1.383 . S
C7168 C7169 1.377 . S
C7169 H7153 0.930 . S
C7169 C7168 1.377 . S
C7169 C7170 1.379 . S
C7170 H7154 0.931 . S
C7170 C7164 1.383 . S
C7170 C7169 1.379 . S
H7171 C7165 0.959 . S
H7172 C7165 0.961 . S
H7173 C7165 0.960 . S
H7174 C7166 0.930 . S
H7175 C7167 0.929 . S
H7176 C7184 0.929 . S
H7177 C7186 0.930 . S
H7178 C7188 0.930 . S
H7179 C7191 0.929 . S
H7180 C7194 0.930 . S
H7181 C7196 0.960 . S
H7182 C7196 0.960 . S
H7183 C7196 0.960 . S
C7184 H7176 0.929 . S
C7184 C7185 1.377 . S
C7184 C7186 1.384 . S
C7185 C7184 1.377 . S
C7185 C7191 1.390 . S
C7186 H7177 0.930 . S
C7186 C7184 1.384 . S
C7186 C7187 1.372 . S
C7187 C7186 1.372 . S
C7187 C7188 1.400 . S
C7187 C7192 1.490 . S
C7188 H7178 0.930 . S
C7188 C7187 1.400 . S
C7188 C7191 1.386 . S
H7189 C7205 0.930 . S
H7190 C7206 0.931 . S
C7191 H7179 0.929 . S
C7191 C7185 1.390 . S
C7191 C7188 1.386 . S
C7192 C7187 1.490 . S
C7192 C7194 1.395 . S
C7192 C7195 1.403 . S
H7193 C7199 0.930 . S
C7194 H7180 0.930 . S
C7194 C7192 1.395 . S
C7194 C7197 1.403 . S
C7195 C7192 1.403 . S
C7195 C7196 1.524 . S
C7195 C7199 1.400 . S
C7196 H7181 0.960 . S
C7196 H7182 0.960 . S
C7196 H7183 0.960 . S
C7196 C7195 1.524 . S
C7197 C7194 1.403 . S
C7197 C7198 1.392 . S
C7197 C7201 1.495 . S
C7198 C7197 1.392 . S
C7198 C7199 1.385 . S
C7198 C7200 1.478 . S
C7199 H7193 0.930 . S
C7199 C7195 1.400 . S
C7199 C7198 1.385 . S
C7200 C7198 1.478 . S
C7200 C7202 1.381 . S
C7200 C7206 1.383 . S
C7201 C7197 1.495 . S
C7201 H7207 0.959 . S
C7201 H7208 0.961 . S
C7201 H7209 0.960 . S
C7202 C7200 1.381 . S
C7202 C7203 1.394 . S
C7202 H7210 0.930 . S
C7203 C7202 1.394 . S
C7203 C7204 1.383 . S
C7203 H7211 0.929 . S
C7204 C7203 1.383 . S
C7204 C7205 1.377 . S
C7205 H7189 0.930 . S
C7205 C7204 1.377 . S
C7205 C7206 1.379 . S
C7206 H7190 0.931 . S
C7206 C7200 1.383 . S
C7206 C7205 1.379 . S
H7207 C7201 0.959 . S
H7208 C7201 0.961 . S
H7209 C7201 0.960 . S
H7210 C7202 0.930 . S
H7211 C7203 0.929 . S
H7212 C7220 0.929 . S
H7213 C7222 0.930 . S
H7214 C7224 0.930 . S
H7215 C7227 0.929 . S
H7216 C7230 0.930 . S
H7217 C7232 0.960 . S
H7218 C7232 0.960 . S
H7219 C7232 0.960 . S
C7220 H7212 0.929 . S
C7220 C7221 1.377 . S
C7220 C7222 1.384 . S
C7221 C7220 1.377 . S
C7221 C7227 1.390 . S
C7222 H7213 0.930 . S
C7222 C7220 1.384 . S
C7222 C7223 1.372 . S
C7223 C7222 1.372 . S
C7223 C7224 1.400 . S
C7223 C7228 1.490 . S
C7224 H7214 0.930 . S
C7224 C7223 1.400 . S
C7224 C7227 1.386 . S
H7225 C7241 0.930 . S
H7226 C7242 0.931 . S
C7227 H7215 0.929 . S
C7227 C7221 1.390 . S
C7227 C7224 1.386 . S
C7228 C7223 1.490 . S
C7228 C7230 1.395 . S
C7228 C7231 1.403 . S
H7229 C7235 0.930 . S
C7230 H7216 0.930 . S
C7230 C7228 1.395 . S
C7230 C7233 1.403 . S
C7231 C7228 1.403 . S
C7231 C7232 1.524 . S
C7231 C7235 1.400 . S
C7232 H7217 0.960 . S
C7232 H7218 0.960 . S
C7232 H7219 0.960 . S
C7232 C7231 1.524 . S
C7233 C7230 1.403 . S
C7233 C7234 1.392 . S
C7233 C7237 1.495 . S
C7234 C7233 1.392 . S
C7234 C7235 1.385 . S
C7234 C7236 1.478 . S
C7235 H7229 0.930 . S
C7235 C7231 1.400 . S
C7235 C7234 1.385 . S
C7236 C7234 1.478 . S
C7236 C7238 1.381 . S
C7236 C7242 1.383 . S
C7237 C7233 1.495 . S
C7237 H7243 0.959 . S
C7237 H7244 0.961 . S
C7237 H7245 0.960 . S
C7238 C7236 1.381 . S
C7238 C7239 1.394 . S
C7238 H7246 0.930 . S
C7239 C7238 1.394 . S
C7239 C7240 1.383 . S
C7239 H7247 0.929 . S
C7240 C7239 1.383 . S
C7240 C7241 1.377 . S
C7241 H7225 0.930 . S
C7241 C7240 1.377 . S
C7241 C7242 1.379 . S
C7242 H7226 0.931 . S
C7242 C7236 1.383 . S
C7242 C7241 1.379 . S
H7243 C7237 0.959 . S
H7244 C7237 0.961 . S
H7245 C7237 0.960 . S
H7246 C7238 0.930 . S
H7247 C7239 0.929 . S
H7248 C7256 0.929 . S
H7249 C7258 0.930 . S
H7250 C7260 0.930 . S
H7251 C7263 0.929 . S
H7252 C7266 0.930 . S
H7253 C7268 0.960 . S
H7254 C7268 0.960 . S
H7255 C7268 0.960 . S
C7256 H7248 0.929 . S
C7256 C7257 1.377 . S
C7256 C7258 1.384 . S
C7257 C7256 1.377 . S
C7257 C7263 1.390 . S
C7258 H7249 0.930 . S
C7258 C7256 1.384 . S
C7258 C7259 1.372 . S
C7259 C7258 1.372 . S
C7259 C7260 1.400 . S
C7259 C7264 1.490 . S
C7260 H7250 0.930 . S
C7260 C7259 1.400 . S
C7260 C7263 1.386 . S
H7261 C7277 0.930 . S
H7262 C7278 0.931 . S
C7263 H7251 0.929 . S
C7263 C7257 1.390 . S
C7263 C7260 1.386 . S
C7264 C7259 1.490 . S
C7264 C7266 1.395 . S
C7264 C7267 1.403 . S
H7265 C7271 0.930 . S
C7266 H7252 0.930 . S
C7266 C7264 1.395 . S
C7266 C7269 1.403 . S
C7267 C7264 1.403 . S
C7267 C7268 1.524 . S
C7267 C7271 1.400 . S
C7268 H7253 0.960 . S
C7268 H7254 0.960 . S
C7268 H7255 0.960 . S
C7268 C7267 1.524 . S
C7269 C7266 1.403 . S
C7269 C7270 1.392 . S
C7269 C7273 1.495 . S
C7270 C7269 1.392 . S
C7270 C7271 1.385 . S
C7270 C7272 1.478 . S
C7271 H7265 0.930 . S
C7271 C7267 1.400 . S
C7271 C7270 1.385 . S
C7272 C7270 1.478 . S
C7272 C7274 1.381 . S
C7272 C7278 1.383 . S
C7273 C7269 1.495 . S
C7273 H7279 0.959 . S
C7273 H7280 0.961 . S
C7273 H7281 0.960 . S
C7274 C7272 1.381 . S
C7274 C7275 1.394 . S
C7274 H7282 0.930 . S
C7275 C7274 1.394 . S
C7275 C7276 1.383 . S
C7275 H7283 0.929 . S
C7276 C7275 1.383 . S
C7276 C7277 1.377 . S
C7277 H7261 0.930 . S
C7277 C7276 1.377 . S
C7277 C7278 1.379 . S
C7278 H7262 0.931 . S
C7278 C7272 1.383 . S
C7278 C7277 1.379 . S
H7279 C7273 0.959 . S
H7280 C7273 0.961 . S
H7281 C7273 0.960 . S
H7282 C7274 0.930 . S
H7283 C7275 0.929 . S
H7284 C7292 0.929 . S
H7285 C7294 0.930 . S
H7286 C7296 0.930 . S
H7287 C7299 0.929 . S
H7288 C7302 0.930 . S
H7289 C7304 0.960 . S
H7290 C7304 0.960 . S
H7291 C7304 0.960 . S
C7292 H7284 0.929 . S
C7292 C7293 1.377 . S
C7292 C7294 1.384 . S
C7293 C7292 1.377 . S
C7293 C7299 1.390 . S
C7294 H7285 0.930 . S
C7294 C7292 1.384 . S
C7294 C7295 1.372 . S
C7295 C7294 1.372 . S
C7295 C7296 1.400 . S
C7295 C7300 1.490 . S
C7296 H7286 0.930 . S
C7296 C7295 1.400 . S
C7296 C7299 1.386 . S
H7297 C7313 0.930 . S
H7298 C7314 0.931 . S
C7299 H7287 0.929 . S
C7299 C7293 1.390 . S
C7299 C7296 1.386 . S
C7300 C7295 1.490 . S
C7300 C7302 1.395 . S
C7300 C7303 1.403 . S
H7301 C7307 0.930 . S
C7302 H7288 0.930 . S
C7302 C7300 1.395 . S
C7302 C7305 1.403 . S
C7303 C7300 1.403 . S
C7303 C7304 1.524 . S
C7303 C7307 1.400 . S
C7304 H7289 0.960 . S
C7304 H7290 0.960 . S
C7304 H7291 0.960 . S
C7304 C7303 1.524 . S
C7305 C7302 1.403 . S
C7305 C7306 1.392 . S
C7305 C7309 1.495 . S
C7306 C7305 1.392 . S
C7306 C7307 1.385 . S
C7306 C7308 1.478 . S
C7307 H7301 0.930 . S
C7307 C7303 1.400 . S
C7307 C7306 1.385 . S
C7308 C7306 1.478 . S
C7308 C7310 1.381 . S
C7308 C7314 1.383 . S
C7309 C7305 1.495 . S
C7309 H7315 0.959 . S
C7309 H7316 0.961 . S
C7309 H7317 0.960 . S
C7310 C7308 1.381 . S
C7310 C7311 1.394 . S
C7310 H7318 0.930 . S
C7311 C7310 1.394 . S
C7311 C7312 1.383 . S
C7311 H7319 0.929 . S
C7312 C7311 1.383 . S
C7312 C7313 1.377 . S
C7313 H7297 0.930 . S
C7313 C7312 1.377 . S
C7313 C7314 1.379 . S
C7314 H7298 0.931 . S
C7314 C7308 1.383 . S
C7314 C7313 1.379 . S
H7315 C7309 0.959 . S
H7316 C7309 0.961 . S
H7317 C7309 0.960 . S
H7318 C7310 0.930 . S
H7319 C7311 0.929 . S
H7320 C7328 0.929 . S
H7321 C7330 0.930 . S
H7322 C7332 0.930 . S
H7323 C7335 0.929 . S
H7324 C7338 0.930 . S
H7325 C7340 0.960 . S
H7326 C7340 0.960 . S
H7327 C7340 0.960 . S
C7328 H7320 0.929 . S
C7328 C7329 1.377 . S
C7328 C7330 1.384 . S
C7329 C7328 1.377 . S
C7329 C7335 1.390 . S
C7330 H7321 0.930 . S
C7330 C7328 1.384 . S
C7330 C7331 1.372 . S
C7331 C7330 1.372 . S
C7331 C7332 1.400 . S
C7331 C7336 1.490 . S
C7332 H7322 0.930 . S
C7332 C7331 1.400 . S
C7332 C7335 1.386 . S
H7333 C7349 0.930 . S
H7334 C7350 0.931 . S
C7335 H7323 0.929 . S
C7335 C7329 1.390 . S
C7335 C7332 1.386 . S
C7336 C7331 1.490 . S
C7336 C7338 1.395 . S
C7336 C7339 1.403 . S
H7337 C7343 0.930 . S
C7338 H7324 0.930 . S
C7338 C7336 1.395 . S
C7338 C7341 1.403 . S
C7339 C7336 1.403 . S
C7339 C7340 1.524 . S
C7339 C7343 1.400 . S
C7340 H7325 0.960 . S
C7340 H7326 0.960 . S
C7340 H7327 0.960 . S
C7340 C7339 1.524 . S
C7341 C7338 1.403 . S
C7341 C7342 1.392 . S
C7341 C7345 1.495 . S
C7342 C7341 1.392 . S
C7342 C7343 1.385 . S
C7342 C7344 1.478 . S
C7343 H7337 0.930 . S
C7343 C7339 1.400 . S
C7343 C7342 1.385 . S
C7344 C7342 1.478 . S
C7344 C7346 1.381 . S
C7344 C7350 1.383 . S
C7345 C7341 1.495 . S
C7345 H7351 0.959 . S
C7345 H7352 0.961 . S
C7345 H7353 0.960 . S
C7346 C7344 1.381 . S
C7346 C7347 1.394 . S
C7346 H7354 0.930 . S
C7347 C7346 1.394 . S
C7347 C7348 1.383 . S
C7347 H7355 0.929 . S
C7348 C7347 1.383 . S
C7348 C7349 1.377 . S
C7349 H7333 0.930 . S
C7349 C7348 1.377 . S
C7349 C7350 1.379 . S
C7350 H7334 0.931 . S
C7350 C7344 1.383 . S
C7350 C7349 1.379 . S
H7351 C7345 0.959 . S
H7352 C7345 0.961 . S
H7353 C7345 0.960 . S
H7354 C7346 0.930 . S
H7355 C7347 0.929 . S
H7356 C7364 0.929 . S
H7357 C7366 0.930 . S
H7358 C7368 0.930 . S
H7359 C7371 0.929 . S
H7360 C7374 0.930 . S
H7361 C7376 0.960 . S
H7362 C7376 0.960 . S
H7363 C7376 0.960 . S
C7364 H7356 0.929 . S
C7364 C7365 1.377 . S
C7364 C7366 1.384 . S
C7365 C7364 1.377 . S
C7365 C7371 1.390 . S
C7366 H7357 0.930 . S
C7366 C7364 1.384 . S
C7366 C7367 1.372 . S
C7367 C7366 1.372 . S
C7367 C7368 1.400 . S
C7367 C7372 1.490 . S
C7368 H7358 0.930 . S
C7368 C7367 1.400 . S
C7368 C7371 1.386 . S
H7369 C7385 0.930 . S
H7370 C7386 0.931 . S
C7371 H7359 0.929 . S
C7371 C7365 1.390 . S
C7371 C7368 1.386 . S
C7372 C7367 1.490 . S
C7372 C7374 1.395 . S
C7372 C7375 1.403 . S
H7373 C7379 0.930 . S
C7374 H7360 0.930 . S
C7374 C7372 1.395 . S
C7374 C7377 1.403 . S
C7375 C7372 1.403 . S
C7375 C7376 1.524 . S
C7375 C7379 1.400 . S
C7376 H7361 0.960 . S
C7376 H7362 0.960 . S
C7376 H7363 0.960 . S
C7376 C7375 1.524 . S
C7377 C7374 1.403 . S
C7377 C7378 1.392 . S
C7377 C7381 1.495 . S
C7378 C7377 1.392 . S
C7378 C7379 1.385 . S
C7378 C7380 1.478 . S
C7379 H7373 0.930 . S
C7379 C7375 1.400 . S
C7379 C7378 1.385 . S
C7380 C7378 1.478 . S
C7380 C7382 1.381 . S
C7380 C7386 1.383 . S
C7381 C7377 1.495 . S
C7381 H7387 0.959 . S
C7381 H7388 0.961 . S
C7381 H7389 0.960 . S
C7382 C7380 1.381 . S
C7382 C7383 1.394 . S
C7382 H7390 0.930 . S
C7383 C7382 1.394 . S
C7383 C7384 1.383 . S
C7383 H7391 0.929 . S
C7384 C7383 1.383 . S
C7384 C7385 1.377 . S
C7385 H7369 0.930 . S
C7385 C7384 1.377 . S
C7385 C7386 1.379 . S
C7386 H7370 0.931 . S
C7386 C7380 1.383 . S
C7386 C7385 1.379 . S
H7387 C7381 0.959 . S
H7388 C7381 0.961 . S
H7389 C7381 0.960 . S
H7390 C7382 0.930 . S
H7391 C7383 0.929 . S
H7392 C7400 0.929 . S
H7393 C7402 0.930 . S
H7394 C7404 0.930 . S
H7395 C7407 0.929 . S
H7396 C7410 0.930 . S
H7397 C7412 0.960 . S
H7398 C7412 0.960 . S
H7399 C7412 0.960 . S
C7400 H7392 0.929 . S
C7400 C7401 1.377 . S
C7400 C7402 1.384 . S
C7401 C7400 1.377 . S
C7401 C7407 1.390 . S
C7402 H7393 0.930 . S
C7402 C7400 1.384 . S
C7402 C7403 1.372 . S
C7403 C7402 1.372 . S
C7403 C7404 1.400 . S
C7403 C7408 1.490 . S
C7404 H7394 0.930 . S
C7404 C7403 1.400 . S
C7404 C7407 1.386 . S
H7405 C7421 0.930 . S
H7406 C7422 0.931 . S
C7407 H7395 0.929 . S
C7407 C7401 1.390 . S
C7407 C7404 1.386 . S
C7408 C7403 1.490 . S
C7408 C7410 1.395 . S
C7408 C7411 1.403 . S
H7409 C7415 0.930 . S
C7410 H7396 0.930 . S
C7410 C7408 1.395 . S
C7410 C7413 1.403 . S
C7411 C7408 1.403 . S
C7411 C7412 1.524 . S
C7411 C7415 1.400 . S
C7412 H7397 0.960 . S
C7412 H7398 0.960 . S
C7412 H7399 0.960 . S
C7412 C7411 1.524 . S
C7413 C7410 1.403 . S
C7413 C7414 1.392 . S
C7413 C7417 1.495 . S
C7414 C7413 1.392 . S
C7414 C7415 1.385 . S
C7414 C7416 1.478 . S
C7415 H7409 0.930 . S
C7415 C7411 1.400 . S
C7415 C7414 1.385 . S
C7416 C7414 1.478 . S
C7416 C7418 1.381 . S
C7416 C7422 1.383 . S
C7417 C7413 1.495 . S
C7417 H7423 0.959 . S
C7417 H7424 0.961 . S
C7417 H7425 0.960 . S
C7418 C7416 1.381 . S
C7418 C7419 1.394 . S
C7418 H7426 0.930 . S
C7419 C7418 1.394 . S
C7419 C7420 1.383 . S
C7419 H7427 0.929 . S
C7420 C7419 1.383 . S
C7420 C7421 1.377 . S
C7421 H7405 0.930 . S
C7421 C7420 1.377 . S
C7421 C7422 1.379 . S
C7422 H7406 0.931 . S
C7422 C7416 1.383 . S
C7422 C7421 1.379 . S
H7423 C7417 0.959 . S
H7424 C7417 0.961 . S
H7425 C7417 0.960 . S
H7426 C7418 0.930 . S
H7427 C7419 0.929 . S
H7428 C7436 0.929 . S
H7429 C7438 0.930 . S
H7430 C7440 0.930 . S
H7431 C7443 0.929 . S
H7432 C7446 0.930 . S
H7433 C7448 0.960 . S
H7434 C7448 0.960 . S
H7435 C7448 0.960 . S
C7436 H7428 0.929 . S
C7436 C7437 1.377 . S
C7436 C7438 1.384 . S
C7437 C7436 1.377 . S
C7437 C7443 1.390 . S
C7438 H7429 0.930 . S
C7438 C7436 1.384 . S
C7438 C7439 1.372 . S
C7439 C7438 1.372 . S
C7439 C7440 1.400 . S
C7439 C7444 1.490 . S
C7440 H7430 0.930 . S
C7440 C7439 1.400 . S
C7440 C7443 1.386 . S
H7441 C7457 0.930 . S
H7442 C7458 0.931 . S
C7443 H7431 0.929 . S
C7443 C7437 1.390 . S
C7443 C7440 1.386 . S
C7444 C7439 1.490 . S
C7444 C7446 1.395 . S
C7444 C7447 1.403 . S
H7445 C7451 0.930 . S
C7446 H7432 0.930 . S
C7446 C7444 1.395 . S
C7446 C7449 1.403 . S
C7447 C7444 1.403 . S
C7447 C7448 1.524 . S
C7447 C7451 1.400 . S
C7448 H7433 0.960 . S
C7448 H7434 0.960 . S
C7448 H7435 0.960 . S
C7448 C7447 1.524 . S
C7449 C7446 1.403 . S
C7449 C7450 1.392 . S
C7449 C7453 1.495 . S
C7450 C7449 1.392 . S
C7450 C7451 1.385 . S
C7450 C7452 1.478 . S
C7451 H7445 0.930 . S
C7451 C7447 1.400 . S
C7451 C7450 1.385 . S
C7452 C7450 1.478 . S
C7452 C7454 1.381 . S
C7452 C7458 1.383 . S
C7453 C7449 1.495 . S
C7453 H7459 0.959 . S
C7453 H7460 0.961 . S
C7453 H7461 0.960 . S
C7454 C7452 1.381 . S
C7454 C7455 1.394 . S
C7454 H7462 0.930 . S
C7455 C7454 1.394 . S
C7455 C7456 1.383 . S
C7455 H7463 0.929 . S
C7456 C7455 1.383 . S
C7456 C7457 1.377 . S
C7457 H7441 0.930 . S
C7457 C7456 1.377 . S
C7457 C7458 1.379 . S
C7458 H7442 0.931 . S
C7458 C7452 1.383 . S
C7458 C7457 1.379 . S
H7459 C7453 0.959 . S
H7460 C7453 0.961 . S
H7461 C7453 0.960 . S
H7462 C7454 0.930 . S
H7463 C7455 0.929 . S
H7464 C7472 0.929 . S
H7465 C7474 0.930 . S
H7466 C7476 0.930 . S
H7467 C7479 0.929 . S
H7468 C7482 0.930 . S
H7469 C7484 0.960 . S
H7470 C7484 0.960 . S
H7471 C7484 0.960 . S
C7472 H7464 0.929 . S
C7472 C7473 1.377 . S
C7472 C7474 1.384 . S
C7473 C7472 1.377 . S
C7473 C7479 1.390 . S
C7474 H7465 0.930 . S
C7474 C7472 1.384 . S
C7474 C7475 1.372 . S
C7475 C7474 1.372 . S
C7475 C7476 1.400 . S
C7475 C7480 1.490 . S
C7476 H7466 0.930 . S
C7476 C7475 1.400 . S
C7476 C7479 1.386 . S
H7477 C7493 0.930 . S
H7478 C7494 0.931 . S
C7479 H7467 0.929 . S
C7479 C7473 1.390 . S
C7479 C7476 1.386 . S
C7480 C7475 1.490 . S
C7480 C7482 1.395 . S
C7480 C7483 1.403 . S
H7481 C7487 0.930 . S
C7482 H7468 0.930 . S
C7482 C7480 1.395 . S
C7482 C7485 1.403 . S
C7483 C7480 1.403 . S
C7483 C7484 1.524 . S
C7483 C7487 1.400 . S
C7484 H7469 0.960 . S
C7484 H7470 0.960 . S
C7484 H7471 0.960 . S
C7484 C7483 1.524 . S
C7485 C7482 1.403 . S
C7485 C7486 1.392 . S
C7485 C7489 1.495 . S
C7486 C7485 1.392 . S
C7486 C7487 1.385 . S
C7486 C7488 1.478 . S
C7487 H7481 0.930 . S
C7487 C7483 1.400 . S
C7487 C7486 1.385 . S
C7488 C7486 1.478 . S
C7488 C7490 1.381 . S
C7488 C7494 1.383 . S
C7489 C7485 1.495 . S
C7489 H7495 0.959 . S
C7489 H7496 0.961 . S
C7489 H7497 0.960 . S
C7490 C7488 1.381 . S
C7490 C7491 1.394 . S
C7490 H7498 0.930 . S
C7491 C7490 1.394 . S
C7491 C7492 1.383 . S
C7491 H7499 0.929 . S
C7492 C7491 1.383 . S
C7492 C7493 1.377 . S
C7493 H7477 0.930 . S
C7493 C7492 1.377 . S
C7493 C7494 1.379 . S
C7494 H7478 0.931 . S
C7494 C7488 1.383 . S
C7494 C7493 1.379 . S
H7495 C7489 0.959 . S
H7496 C7489 0.961 . S
H7497 C7489 0.960 . S
H7498 C7490 0.930 . S
H7499 C7491 0.929 . S
H7500 C7508 0.929 . S
H7501 C7510 0.930 . S
H7502 C7512 0.930 . S
H7503 C7515 0.929 . S
H7504 C7518 0.930 . S
H7505 C7520 0.960 . S
H7506 C7520 0.960 . S
H7507 C7520 0.960 . S
C7508 H7500 0.929 . S
C7508 C7509 1.377 . S
C7508 C7510 1.384 . S
C7509 C7508 1.377 . S
C7509 C7515 1.390 . S
C7510 H7501 0.930 . S
C7510 C7508 1.384 . S
C7510 C7511 1.372 . S
C7511 C7510 1.372 . S
C7511 C7512 1.400 . S
C7511 C7516 1.490 . S
C7512 H7502 0.930 . S
C7512 C7511 1.400 . S
C7512 C7515 1.386 . S
H7513 C7529 0.930 . S
H7514 C7530 0.931 . S
C7515 H7503 0.929 . S
C7515 C7509 1.390 . S
C7515 C7512 1.386 . S
C7516 C7511 1.490 . S
C7516 C7518 1.395 . S
C7516 C7519 1.403 . S
H7517 C7523 0.930 . S
C7518 H7504 0.930 . S
C7518 C7516 1.395 . S
C7518 C7521 1.403 . S
C7519 C7516 1.403 . S
C7519 C7520 1.524 . S
C7519 C7523 1.400 . S
C7520 H7505 0.960 . S
C7520 H7506 0.960 . S
C7520 H7507 0.960 . S
C7520 C7519 1.524 . S
C7521 C7518 1.403 . S
C7521 C7522 1.392 . S
C7521 C7525 1.495 . S
C7522 C7521 1.392 . S
C7522 C7523 1.385 . S
C7522 C7524 1.478 . S
C7523 H7517 0.930 . S
C7523 C7519 1.400 . S
C7523 C7522 1.385 . S
C7524 C7522 1.478 . S
C7524 C7526 1.381 . S
C7524 C7530 1.383 . S
C7525 C7521 1.495 . S
C7525 H7531 0.959 . S
C7525 H7532 0.961 . S
C7525 H7533 0.960 . S
C7526 C7524 1.381 . S
C7526 C7527 1.394 . S
C7526 H7534 0.930 . S
C7527 C7526 1.394 . S
C7527 C7528 1.383 . S
C7527 H7535 0.929 . S
C7528 C7527 1.383 . S
C7528 C7529 1.377 . S
C7529 H7513 0.930 . S
C7529 C7528 1.377 . S
C7529 C7530 1.379 . S
C7530 H7514 0.931 . S
C7530 C7524 1.383 . S
C7530 C7529 1.379 . S
H7531 C7525 0.959 . S
H7532 C7525 0.961 . S
H7533 C7525 0.960 . S
H7534 C7526 0.930 . S
H7535 C7527 0.929 . S
H7536 C7544 0.929 . S
H7537 C7546 0.930 . S
H7538 C7548 0.930 . S
H7539 C7551 0.929 . S
H7540 C7554 0.930 . S
H7541 C7556 0.960 . S
H7542 C7556 0.960 . S
H7543 C7556 0.960 . S
C7544 H7536 0.929 . S
C7544 C7545 1.377 . S
C7544 C7546 1.384 . S
C7545 C7544 1.377 . S
C7545 C7551 1.390 . S
C7546 H7537 0.930 . S
C7546 C7544 1.384 . S
C7546 C7547 1.372 . S
C7547 C7546 1.372 . S
C7547 C7548 1.400 . S
C7547 C7552 1.490 . S
C7548 H7538 0.930 . S
C7548 C7547 1.400 . S
C7548 C7551 1.386 . S
H7549 C7565 0.930 . S
H7550 C7566 0.931 . S
C7551 H7539 0.929 . S
C7551 C7545 1.390 . S
C7551 C7548 1.386 . S
C7552 C7547 1.490 . S
C7552 C7554 1.395 . S
C7552 C7555 1.403 . S
H7553 C7559 0.930 . S
C7554 H7540 0.930 . S
C7554 C7552 1.395 . S
C7554 C7557 1.403 . S
C7555 C7552 1.403 . S
C7555 C7556 1.524 . S
C7555 C7559 1.400 . S
C7556 H7541 0.960 . S
C7556 H7542 0.960 . S
C7556 H7543 0.960 . S
C7556 C7555 1.524 . S
C7557 C7554 1.403 . S
C7557 C7558 1.392 . S
C7557 C7561 1.495 . S
C7558 C7557 1.392 . S
C7558 C7559 1.385 . S
C7558 C7560 1.478 . S
C7559 H7553 0.930 . S
C7559 C7555 1.400 . S
C7559 C7558 1.385 . S
C7560 C7558 1.478 . S
C7560 C7562 1.381 . S
C7560 C7566 1.383 . S
C7561 C7557 1.495 . S
C7561 H7567 0.959 . S
C7561 H7568 0.961 . S
C7561 H7569 0.960 . S
C7562 C7560 1.381 . S
C7562 C7563 1.394 . S
C7562 H7570 0.930 . S
C7563 C7562 1.394 . S
C7563 C7564 1.383 . S
C7563 H7571 0.929 . S
C7564 C7563 1.383 . S
C7564 C7565 1.377 . S
C7565 H7549 0.930 . S
C7565 C7564 1.377 . S
C7565 C7566 1.379 . S
C7566 H7550 0.931 . S
C7566 C7560 1.383 . S
C7566 C7565 1.379 . S
H7567 C7561 0.959 . S
H7568 C7561 0.961 . S
H7569 C7561 0.960 . S
H7570 C7562 0.930 . S
H7571 C7563 0.929 . S
H7572 C7580 0.929 . S
H7573 C7582 0.930 . S
H7574 C7584 0.930 . S
H7575 C7587 0.929 . S
H7576 C7590 0.930 . S
H7577 C7592 0.960 . S
H7578 C7592 0.960 . S
H7579 C7592 0.960 . S
C7580 H7572 0.929 . S
C7580 C7581 1.377 . S
C7580 C7582 1.384 . S
C7581 C7580 1.377 . S
C7581 C7587 1.390 . S
C7582 H7573 0.930 . S
C7582 C7580 1.384 . S
C7582 C7583 1.372 . S
C7583 C7582 1.372 . S
C7583 C7584 1.400 . S
C7583 C7588 1.490 . S
C7584 H7574 0.930 . S
C7584 C7583 1.400 . S
C7584 C7587 1.386 . S
H7585 C7601 0.930 . S
H7586 C7602 0.931 . S
C7587 H7575 0.929 . S
C7587 C7581 1.390 . S
C7587 C7584 1.386 . S
C7588 C7583 1.490 . S
C7588 C7590 1.395 . S
C7588 C7591 1.403 . S
H7589 C7595 0.930 . S
C7590 H7576 0.930 . S
C7590 C7588 1.395 . S
C7590 C7593 1.403 . S
C7591 C7588 1.403 . S
C7591 C7592 1.524 . S
C7591 C7595 1.400 . S
C7592 H7577 0.960 . S
C7592 H7578 0.960 . S
C7592 H7579 0.960 . S
C7592 C7591 1.524 . S
C7593 C7590 1.403 . S
C7593 C7594 1.392 . S
C7593 C7597 1.495 . S
C7594 C7593 1.392 . S
C7594 C7595 1.385 . S
C7594 C7596 1.478 . S
C7595 H7589 0.930 . S
C7595 C7591 1.400 . S
C7595 C7594 1.385 . S
C7596 C7594 1.478 . S
C7596 C7598 1.381 . S
C7596 C7602 1.383 . S
C7597 C7593 1.495 . S
C7597 H7603 0.959 . S
C7597 H7604 0.961 . S
C7597 H7605 0.960 . S
C7598 C7596 1.381 . S
C7598 C7599 1.394 . S
C7598 H7606 0.930 . S
C7599 C7598 1.394 . S
C7599 C7600 1.383 . S
C7599 H7607 0.929 . S
C7600 C7599 1.383 . S
C7600 C7601 1.377 . S
C7601 H7585 0.930 . S
C7601 C7600 1.377 . S
C7601 C7602 1.379 . S
C7602 H7586 0.931 . S
C7602 C7596 1.383 . S
C7602 C7601 1.379 . S
H7603 C7597 0.959 . S
H7604 C7597 0.961 . S
H7605 C7597 0.960 . S
H7606 C7598 0.930 . S
H7607 C7599 0.929 . S
H7608 C7616 0.929 . S
H7609 C7618 0.930 . S
H7610 C7620 0.930 . S
H7611 C7623 0.929 . S
H7612 C7626 0.930 . S
H7613 C7628 0.960 . S
H7614 C7628 0.960 . S
H7615 C7628 0.960 . S
C7616 H7608 0.929 . S
C7616 C7617 1.377 . S
C7616 C7618 1.384 . S
C7617 C7616 1.377 . S
C7617 C7623 1.390 . S
C7618 H7609 0.930 . S
C7618 C7616 1.384 . S
C7618 C7619 1.372 . S
C7619 C7618 1.372 . S
C7619 C7620 1.400 . S
C7619 C7624 1.490 . S
C7620 H7610 0.930 . S
C7620 C7619 1.400 . S
C7620 C7623 1.386 . S
H7621 C7637 0.930 . S
H7622 C7638 0.931 . S
C7623 H7611 0.929 . S
C7623 C7617 1.390 . S
C7623 C7620 1.386 . S
C7624 C7619 1.490 . S
C7624 C7626 1.395 . S
C7624 C7627 1.403 . S
H7625 C7631 0.930 . S
C7626 H7612 0.930 . S
C7626 C7624 1.395 . S
C7626 C7629 1.403 . S
C7627 C7624 1.403 . S
C7627 C7628 1.524 . S
C7627 C7631 1.400 . S
C7628 H7613 0.960 . S
C7628 H7614 0.960 . S
C7628 H7615 0.960 . S
C7628 C7627 1.524 . S
C7629 C7626 1.403 . S
C7629 C7630 1.392 . S
C7629 C7633 1.495 . S
C7630 C7629 1.392 . S
C7630 C7631 1.385 . S
C7630 C7632 1.478 . S
C7631 H7625 0.930 . S
C7631 C7627 1.400 . S
C7631 C7630 1.385 . S
C7632 C7630 1.478 . S
C7632 C7634 1.381 . S
C7632 C7638 1.383 . S
C7633 C7629 1.495 . S
C7633 H7639 0.959 . S
C7633 H7640 0.961 . S
C7633 H7641 0.960 . S
C7634 C7632 1.381 . S
C7634 C7635 1.394 . S
C7634 H7642 0.930 . S
C7635 C7634 1.394 . S
C7635 C7636 1.383 . S
C7635 H7643 0.929 . S
C7636 C7635 1.383 . S
C7636 C7637 1.377 . S
C7637 H7621 0.930 . S
C7637 C7636 1.377 . S
C7637 C7638 1.379 . S
C7638 H7622 0.931 . S
C7638 C7632 1.383 . S
C7638 C7637 1.379 . S
H7639 C7633 0.959 . S
H7640 C7633 0.961 . S
H7641 C7633 0.960 . S
H7642 C7634 0.930 . S
H7643 C7635 0.929 . S
H7644 C7652 0.929 . S
H7645 C7654 0.930 . S
H7646 C7656 0.930 . S
H7647 C7659 0.929 . S
H7648 C7662 0.930 . S
H7649 C7664 0.960 . S
H7650 C7664 0.960 . S
H7651 C7664 0.960 . S
C7652 H7644 0.929 . S
C7652 C7653 1.377 . S
C7652 C7654 1.384 . S
C7653 C7652 1.377 . S
C7653 C7659 1.390 . S
C7654 H7645 0.930 . S
C7654 C7652 1.384 . S
C7654 C7655 1.372 . S
C7655 C7654 1.372 . S
C7655 C7656 1.400 . S
C7655 C7660 1.490 . S
C7656 H7646 0.930 . S
C7656 C7655 1.400 . S
C7656 C7659 1.386 . S
H7657 C7673 0.930 . S
H7658 C7674 0.931 . S
C7659 H7647 0.929 . S
C7659 C7653 1.390 . S
C7659 C7656 1.386 . S
C7660 C7655 1.490 . S
C7660 C7662 1.395 . S
C7660 C7663 1.403 . S
H7661 C7667 0.930 . S
C7662 H7648 0.930 . S
C7662 C7660 1.395 . S
C7662 C7665 1.403 . S
C7663 C7660 1.403 . S
C7663 C7664 1.524 . S
C7663 C7667 1.400 . S
C7664 H7649 0.960 . S
C7664 H7650 0.960 . S
C7664 H7651 0.960 . S
C7664 C7663 1.524 . S
C7665 C7662 1.403 . S
C7665 C7666 1.392 . S
C7665 C7669 1.495 . S
C7666 C7665 1.392 . S
C7666 C7667 1.385 . S
C7666 C7668 1.478 . S
C7667 H7661 0.930 . S
C7667 C7663 1.400 . S
C7667 C7666 1.385 . S
C7668 C7666 1.478 . S
C7668 C7670 1.381 . S
C7668 C7674 1.383 . S
C7669 C7665 1.495 . S
C7669 H7675 0.959 . S
C7669 H7676 0.961 . S
C7669 H7677 0.960 . S
C7670 C7668 1.381 . S
C7670 C7671 1.394 . S
C7670 H7678 0.930 . S
C7671 C7670 1.394 . S
C7671 C7672 1.383 . S
C7671 H7679 0.929 . S
C7672 C7671 1.383 . S
C7672 C7673 1.377 . S
C7673 H7657 0.930 . S
C7673 C7672 1.377 . S
C7673 C7674 1.379 . S
C7674 H7658 0.931 . S
C7674 C7668 1.383 . S
C7674 C7673 1.379 . S
H7675 C7669 0.959 . S
H7676 C7669 0.961 . S
H7677 C7669 0.960 . S
H7678 C7670 0.930 . S
H7679 C7671 0.929 . S
H7680 C7688 0.929 . S
H7681 C7690 0.930 . S
H7682 C7692 0.930 . S
H7683 C7695 0.929 . S
H7684 C7698 0.930 . S
H7685 C7700 0.960 . S
H7686 C7700 0.960 . S
H7687 C7700 0.960 . S
C7688 H7680 0.929 . S
C7688 C7689 1.377 . S
C7688 C7690 1.384 . S
C7689 C7688 1.377 . S
C7689 C7695 1.390 . S
C7690 H7681 0.930 . S
C7690 C7688 1.384 . S
C7690 C7691 1.372 . S
C7691 C7690 1.372 . S
C7691 C7692 1.400 . S
C7691 C7696 1.490 . S
C7692 H7682 0.930 . S
C7692 C7691 1.400 . S
C7692 C7695 1.386 . S
H7693 C7709 0.930 . S
H7694 C7710 0.931 . S
C7695 H7683 0.929 . S
C7695 C7689 1.390 . S
C7695 C7692 1.386 . S
C7696 C7691 1.490 . S
C7696 C7698 1.395 . S
C7696 C7699 1.403 . S
H7697 C7703 0.930 . S
C7698 H7684 0.930 . S
C7698 C7696 1.395 . S
C7698 C7701 1.403 . S
C7699 C7696 1.403 . S
C7699 C7700 1.524 . S
C7699 C7703 1.400 . S
C7700 H7685 0.960 . S
C7700 H7686 0.960 . S
C7700 H7687 0.960 . S
C7700 C7699 1.524 . S
C7701 C7698 1.403 . S
C7701 C7702 1.392 . S
C7701 C7705 1.495 . S
C7702 C7701 1.392 . S
C7702 C7703 1.385 . S
C7702 C7704 1.478 . S
C7703 H7697 0.930 . S
C7703 C7699 1.400 . S
C7703 C7702 1.385 . S
C7704 C7702 1.478 . S
C7704 C7706 1.381 . S
C7704 C7710 1.383 . S
C7705 C7701 1.495 . S
C7705 H7711 0.959 . S
C7705 H7712 0.961 . S
C7705 H7713 0.960 . S
C7706 C7704 1.381 . S
C7706 C7707 1.394 . S
C7706 H7714 0.930 . S
C7707 C7706 1.394 . S
C7707 C7708 1.383 . S
C7707 H7715 0.929 . S
C7708 C7707 1.383 . S
C7708 C7709 1.377 . S
C7709 H7693 0.930 . S
C7709 C7708 1.377 . S
C7709 C7710 1.379 . S
C7710 H7694 0.931 . S
C7710 C7704 1.383 . S
C7710 C7709 1.379 . S
H7711 C7705 0.959 . S
H7712 C7705 0.961 . S
H7713 C7705 0.960 . S
H7714 C7706 0.930 . S
H7715 C7707 0.929 . S
H7716 C7724 0.929 . S
H7717 C7726 0.930 . S
H7718 C7728 0.930 . S
H7719 C7731 0.929 . S
H7720 C7734 0.930 . S
H7721 C7736 0.960 . S
H7722 C7736 0.960 . S
H7723 C7736 0.960 . S
C7724 H7716 0.929 . S
C7724 C7725 1.377 . S
C7724 C7726 1.384 . S
C7725 C7724 1.377 . S
C7725 C7731 1.390 . S
C7726 H7717 0.930 . S
C7726 C7724 1.384 . S
C7726 C7727 1.372 . S
C7727 C7726 1.372 . S
C7727 C7728 1.400 . S
C7727 C7732 1.490 . S
C7728 H7718 0.930 . S
C7728 C7727 1.400 . S
C7728 C7731 1.386 . S
H7729 C7745 0.930 . S
H7730 C7746 0.931 . S
C7731 H7719 0.929 . S
C7731 C7725 1.390 . S
C7731 C7728 1.386 . S
C7732 C7727 1.490 . S
C7732 C7734 1.395 . S
C7732 C7735 1.403 . S
H7733 C7739 0.930 . S
C7734 H7720 0.930 . S
C7734 C7732 1.395 . S
C7734 C7737 1.403 . S
C7735 C7732 1.403 . S
C7735 C7736 1.524 . S
C7735 C7739 1.400 . S
C7736 H7721 0.960 . S
C7736 H7722 0.960 . S
C7736 H7723 0.960 . S
C7736 C7735 1.524 . S
C7737 C7734 1.403 . S
C7737 C7738 1.392 . S
C7737 C7741 1.495 . S
C7738 C7737 1.392 . S
C7738 C7739 1.385 . S
C7738 C7740 1.478 . S
C7739 H7733 0.930 . S
C7739 C7735 1.400 . S
C7739 C7738 1.385 . S
C7740 C7738 1.478 . S
C7740 C7742 1.381 . S
C7740 C7746 1.383 . S
C7741 C7737 1.495 . S
C7741 H7747 0.959 . S
C7741 H7748 0.961 . S
C7741 H7749 0.960 . S
C7742 C7740 1.381 . S
C7742 C7743 1.394 . S
C7742 H7750 0.930 . S
C7743 C7742 1.394 . S
C7743 C7744 1.383 . S
C7743 H7751 0.929 . S
C7744 C7743 1.383 . S
C7744 C7745 1.377 . S
C7745 H7729 0.930 . S
C7745 C7744 1.377 . S
C7745 C7746 1.379 . S
C7746 H7730 0.931 . S
C7746 C7740 1.383 . S
C7746 C7745 1.379 . S
H7747 C7741 0.959 . S
H7748 C7741 0.961 . S
H7749 C7741 0.960 . S
H7750 C7742 0.930 . S
H7751 C7743 0.929 . S
H7752 C7760 0.929 . S
H7753 C7762 0.930 . S
H7754 C7764 0.930 . S
H7755 C7767 0.929 . S
H7756 C7770 0.930 . S
H7757 C7772 0.960 . S
H7758 C7772 0.960 . S
H7759 C7772 0.960 . S
C7760 H7752 0.929 . S
C7760 C7761 1.377 . S
C7760 C7762 1.384 . S
C7761 C7760 1.377 . S
C7761 C7767 1.390 . S
C7762 H7753 0.930 . S
C7762 C7760 1.384 . S
C7762 C7763 1.372 . S
C7763 C7762 1.372 . S
C7763 C7764 1.400 . S
C7763 C7768 1.490 . S
C7764 H7754 0.930 . S
C7764 C7763 1.400 . S
C7764 C7767 1.386 . S
H7765 C7781 0.930 . S
H7766 C7782 0.931 . S
C7767 H7755 0.929 . S
C7767 C7761 1.390 . S
C7767 C7764 1.386 . S
C7768 C7763 1.490 . S
C7768 C7770 1.395 . S
C7768 C7771 1.403 . S
H7769 C7775 0.930 . S
C7770 H7756 0.930 . S
C7770 C7768 1.395 . S
C7770 C7773 1.403 . S
C7771 C7768 1.403 . S
C7771 C7772 1.524 . S
C7771 C7775 1.400 . S
C7772 H7757 0.960 . S
C7772 H7758 0.960 . S
C7772 H7759 0.960 . S
C7772 C7771 1.524 . S
C7773 C7770 1.403 . S
C7773 C7774 1.392 . S
C7773 C7777 1.495 . S
C7774 C7773 1.392 . S
C7774 C7775 1.385 . S
C7774 C7776 1.478 . S
C7775 H7769 0.930 . S
C7775 C7771 1.400 . S
C7775 C7774 1.385 . S
C7776 C7774 1.478 . S
C7776 C7778 1.381 . S
C7776 C7782 1.383 . S
C7777 C7773 1.495 . S
C7777 H7783 0.959 . S
C7777 H7784 0.961 . S
C7777 H7785 0.960 . S
C7778 C7776 1.381 . S
C7778 C7779 1.394 . S
C7778 H7786 0.930 . S
C7779 C7778 1.394 . S
C7779 C7780 1.383 . S
C7779 H7787 0.929 . S
C7780 C7779 1.383 . S
C7780 C7781 1.377 . S
C7781 H7765 0.930 . S
C7781 C7780 1.377 . S
C7781 C7782 1.379 . S
C7782 H7766 0.931 . S
C7782 C7776 1.383 . S
C7782 C7781 1.379 . S
H7783 C7777 0.959 . S
H7784 C7777 0.961 . S
H7785 C7777 0.960 . S
H7786 C7778 0.930 . S
H7787 C7779 0.929 . S
H7788 C7796 0.929 . S
H7789 C7798 0.930 . S
H7790 C7800 0.930 . S
H7791 C7803 0.929 . S
H7792 C7806 0.930 . S
H7793 C7808 0.960 . S
H7794 C7808 0.960 . S
H7795 C7808 0.960 . S
C7796 H7788 0.929 . S
C7796 C7797 1.377 . S
C7796 C7798 1.384 . S
C7797 C7796 1.377 . S
C7797 C7803 1.390 . S
C7798 H7789 0.930 . S
C7798 C7796 1.384 . S
C7798 C7799 1.372 . S
C7799 C7798 1.372 . S
C7799 C7800 1.400 . S
C7799 C7804 1.490 . S
C7800 H7790 0.930 . S
C7800 C7799 1.400 . S
C7800 C7803 1.386 . S
H7801 C7817 0.930 . S
H7802 C7818 0.931 . S
C7803 H7791 0.929 . S
C7803 C7797 1.390 . S
C7803 C7800 1.386 . S
C7804 C7799 1.490 . S
C7804 C7806 1.395 . S
C7804 C7807 1.403 . S
H7805 C7811 0.930 . S
C7806 H7792 0.930 . S
C7806 C7804 1.395 . S
C7806 C7809 1.403 . S
C7807 C7804 1.403 . S
C7807 C7808 1.524 . S
C7807 C7811 1.400 . S
C7808 H7793 0.960 . S
C7808 H7794 0.960 . S
C7808 H7795 0.960 . S
C7808 C7807 1.524 . S
C7809 C7806 1.403 . S
C7809 C7810 1.392 . S
C7809 C7813 1.495 . S
C7810 C7809 1.392 . S
C7810 C7811 1.385 . S
C7810 C7812 1.478 . S
C7811 H7805 0.930 . S
C7811 C7807 1.400 . S
C7811 C7810 1.385 . S
C7812 C7810 1.478 . S
C7812 C7814 1.381 . S
C7812 C7818 1.383 . S
C7813 C7809 1.495 . S
C7813 H7819 0.959 . S
C7813 H7820 0.961 . S
C7813 H7821 0.960 . S
C7814 C7812 1.381 . S
C7814 C7815 1.394 . S
C7814 H7822 0.930 . S
C7815 C7814 1.394 . S
C7815 C7816 1.383 . S
C7815 H7823 0.929 . S
C7816 C7815 1.383 . S
C7816 C7817 1.377 . S
C7817 H7801 0.930 . S
C7817 C7816 1.377 . S
C7817 C7818 1.379 . S
C7818 H7802 0.931 . S
C7818 C7812 1.383 . S
C7818 C7817 1.379 . S
H7819 C7813 0.959 . S
H7820 C7813 0.961 . S
H7821 C7813 0.960 . S
H7822 C7814 0.930 . S
H7823 C7815 0.929 . S
H7824 C7832 0.929 . S
H7825 C7834 0.930 . S
H7826 C7836 0.930 . S
H7827 C7839 0.929 . S
H7828 C7842 0.930 . S
H7829 C7844 0.960 . S
H7830 C7844 0.960 . S
H7831 C7844 0.960 . S
C7832 H7824 0.929 . S
C7832 C7833 1.377 . S
C7832 C7834 1.384 . S
C7833 C7832 1.377 . S
C7833 C7839 1.390 . S
C7834 H7825 0.930 . S
C7834 C7832 1.384 . S
C7834 C7835 1.372 . S
C7835 C7834 1.372 . S
C7835 C7836 1.400 . S
C7835 C7840 1.490 . S
C7836 H7826 0.930 . S
C7836 C7835 1.400 . S
C7836 C7839 1.386 . S
H7837 C7853 0.930 . S
H7838 C7854 0.931 . S
C7839 H7827 0.929 . S
C7839 C7833 1.390 . S
C7839 C7836 1.386 . S
C7840 C7835 1.490 . S
C7840 C7842 1.395 . S
C7840 C7843 1.403 . S
H7841 C7847 0.930 . S
C7842 H7828 0.930 . S
C7842 C7840 1.395 . S
C7842 C7845 1.403 . S
C7843 C7840 1.403 . S
C7843 C7844 1.524 . S
C7843 C7847 1.400 . S
C7844 H7829 0.960 . S
C7844 H7830 0.960 . S
C7844 H7831 0.960 . S
C7844 C7843 1.524 . S
C7845 C7842 1.403 . S
C7845 C7846 1.392 . S
C7845 C7849 1.495 . S
C7846 C7845 1.392 . S
C7846 C7847 1.385 . S
C7846 C7848 1.478 . S
C7847 H7841 0.930 . S
C7847 C7843 1.400 . S
C7847 C7846 1.385 . S
C7848 C7846 1.478 . S
C7848 C7850 1.381 . S
C7848 C7854 1.383 . S
C7849 C7845 1.495 . S
C7849 H7855 0.959 . S
C7849 H7856 0.961 . S
C7849 H7857 0.960 . S
C7850 C7848 1.381 . S
C7850 C7851 1.394 . S
C7850 H7858 0.930 . S
C7851 C7850 1.394 . S
C7851 C7852 1.383 . S
C7851 H7859 0.929 . S
C7852 C7851 1.383 . S
C7852 C7853 1.377 . S
C7853 H7837 0.930 . S
C7853 C7852 1.377 . S
C7853 C7854 1.379 . S
C7854 H7838 0.931 . S
C7854 C7848 1.383 . S
C7854 C7853 1.379 . S
H7855 C7849 0.959 . S
H7856 C7849 0.961 . S
H7857 C7849 0.960 . S
H7858 C7850 0.930 . S
H7859 C7851 0.929 . S
H7860 C7868 0.929 . S
H7861 C7870 0.930 . S
H7862 C7872 0.930 . S
H7863 C7875 0.929 . S
H7864 C7878 0.930 . S
H7865 C7880 0.960 . S
H7866 C7880 0.960 . S
H7867 C7880 0.960 . S
C7868 H7860 0.929 . S
C7868 C7869 1.377 . S
C7868 C7870 1.384 . S
C7869 C7868 1.377 . S
C7869 C7875 1.390 . S
C7870 H7861 0.930 . S
C7870 C7868 1.384 . S
C7870 C7871 1.372 . S
C7871 C7870 1.372 . S
C7871 C7872 1.400 . S
C7871 C7876 1.490 . S
C7872 H7862 0.930 . S
C7872 C7871 1.400 . S
C7872 C7875 1.386 . S
H7873 C7889 0.930 . S
H7874 C7890 0.931 . S
C7875 H7863 0.929 . S
C7875 C7869 1.390 . S
C7875 C7872 1.386 . S
C7876 C7871 1.490 . S
C7876 C7878 1.395 . S
C7876 C7879 1.403 . S
H7877 C7883 0.930 . S
C7878 H7864 0.930 . S
C7878 C7876 1.395 . S
C7878 C7881 1.403 . S
C7879 C7876 1.403 . S
C7879 C7880 1.524 . S
C7879 C7883 1.400 . S
C7880 H7865 0.960 . S
C7880 H7866 0.960 . S
C7880 H7867 0.960 . S
C7880 C7879 1.524 . S
C7881 C7878 1.403 . S
C7881 C7882 1.392 . S
C7881 C7885 1.495 . S
C7882 C7881 1.392 . S
C7882 C7883 1.385 . S
C7882 C7884 1.478 . S
C7883 H7877 0.930 . S
C7883 C7879 1.400 . S
C7883 C7882 1.385 . S
C7884 C7882 1.478 . S
C7884 C7886 1.381 . S
C7884 C7890 1.383 . S
C7885 C7881 1.495 . S
C7885 H7891 0.959 . S
C7885 H7892 0.961 . S
C7885 H7893 0.960 . S
C7886 C7884 1.381 . S
C7886 C7887 1.394 . S
C7886 H7894 0.930 . S
C7887 C7886 1.394 . S
C7887 C7888 1.383 . S
C7887 H7895 0.929 . S
C7888 C7887 1.383 . S
C7888 C7889 1.377 . S
C7889 H7873 0.930 . S
C7889 C7888 1.377 . S
C7889 C7890 1.379 . S
C7890 H7874 0.931 . S
C7890 C7884 1.383 . S
C7890 C7889 1.379 . S
H7891 C7885 0.959 . S
H7892 C7885 0.961 . S
H7893 C7885 0.960 . S
H7894 C7886 0.930 . S
H7895 C7887 0.929 . S
H7896 C7904 0.929 . S
H7897 C7906 0.930 . S
H7898 C7908 0.930 . S
H7899 C7911 0.929 . S
H7900 C7914 0.930 . S
H7901 C7916 0.960 . S
H7902 C7916 0.960 . S
H7903 C7916 0.960 . S
C7904 H7896 0.929 . S
C7904 C7905 1.377 . S
C7904 C7906 1.384 . S
C7905 C7904 1.377 . S
C7905 C7911 1.390 . S
C7906 H7897 0.930 . S
C7906 C7904 1.384 . S
C7906 C7907 1.372 . S
C7907 C7906 1.372 . S
C7907 C7908 1.400 . S
C7907 C7912 1.490 . S
C7908 H7898 0.930 . S
C7908 C7907 1.400 . S
C7908 C7911 1.386 . S
H7909 C7925 0.930 . S
H7910 C7926 0.931 . S
C7911 H7899 0.929 . S
C7911 C7905 1.390 . S
C7911 C7908 1.386 . S
C7912 C7907 1.490 . S
C7912 C7914 1.395 . S
C7912 C7915 1.403 . S
H7913 C7919 0.930 . S
C7914 H7900 0.930 . S
C7914 C7912 1.395 . S
C7914 C7917 1.403 . S
C7915 C7912 1.403 . S
C7915 C7916 1.524 . S
C7915 C7919 1.400 . S
C7916 H7901 0.960 . S
C7916 H7902 0.960 . S
C7916 H7903 0.960 . S
C7916 C7915 1.524 . S
C7917 C7914 1.403 . S
C7917 C7918 1.392 . S
C7917 C7921 1.495 . S
C7918 C7917 1.392 . S
C7918 C7919 1.385 . S
C7918 C7920 1.478 . S
C7919 H7913 0.930 . S
C7919 C7915 1.400 . S
C7919 C7918 1.385 . S
C7920 C7918 1.478 . S
C7920 C7922 1.381 . S
C7920 C7926 1.383 . S
C7921 C7917 1.495 . S
C7921 H7927 0.959 . S
C7921 H7928 0.961 . S
C7921 H7929 0.960 . S
C7922 C7920 1.381 . S
C7922 C7923 1.394 . S
C7922 H7930 0.930 . S
C7923 C7922 1.394 . S
C7923 C7924 1.383 . S
C7923 H7931 0.929 . S
C7924 C7923 1.383 . S
C7924 C7925 1.377 . S
C7925 H7909 0.930 . S
C7925 C7924 1.377 . S
C7925 C7926 1.379 . S
C7926 H7910 0.931 . S
C7926 C7920 1.383 . S
C7926 C7925 1.379 . S
H7927 C7921 0.959 . S
H7928 C7921 0.961 . S
H7929 C7921 0.960 . S
H7930 C7922 0.930 . S
H7931 C7923 0.929 . S
H7932 C7940 0.929 . S
H7933 C7942 0.930 . S
H7934 C7944 0.930 . S
H7935 C7947 0.929 . S
H7936 C7950 0.930 . S
H7937 C7952 0.960 . S
H7938 C7952 0.960 . S
H7939 C7952 0.960 . S
C7940 H7932 0.929 . S
C7940 C7941 1.377 . S
C7940 C7942 1.384 . S
C7941 C7940 1.377 . S
C7941 C7947 1.390 . S
C7942 H7933 0.930 . S
C7942 C7940 1.384 . S
C7942 C7943 1.372 . S
C7943 C7942 1.372 . S
C7943 C7944 1.400 . S
C7943 C7948 1.490 . S
C7944 H7934 0.930 . S
C7944 C7943 1.400 . S
C7944 C7947 1.386 . S
H7945 C7961 0.930 . S
H7946 C7962 0.931 . S
C7947 H7935 0.929 . S
C7947 C7941 1.390 . S
C7947 C7944 1.386 . S
C7948 C7943 1.490 . S
C7948 C7950 1.395 . S
C7948 C7951 1.403 . S
H7949 C7955 0.930 . S
C7950 H7936 0.930 . S
C7950 C7948 1.395 . S
C7950 C7953 1.403 . S
C7951 C7948 1.403 . S
C7951 C7952 1.524 . S
C7951 C7955 1.400 . S
C7952 H7937 0.960 . S
C7952 H7938 0.960 . S
C7952 H7939 0.960 . S
C7952 C7951 1.524 . S
C7953 C7950 1.403 . S
C7953 C7954 1.392 . S
C7953 C7957 1.495 . S
C7954 C7953 1.392 . S
C7954 C7955 1.385 . S
C7954 C7956 1.478 . S
C7955 H7949 0.930 . S
C7955 C7951 1.400 . S
C7955 C7954 1.385 . S
C7956 C7954 1.478 . S
C7956 C7958 1.381 . S
C7956 C7962 1.383 . S
C7957 C7953 1.495 . S
C7957 H7963 0.959 . S
C7957 H7964 0.961 . S
C7957 H7965 0.960 . S
C7958 C7956 1.381 . S
C7958 C7959 1.394 . S
C7958 H7966 0.930 . S
C7959 C7958 1.394 . S
C7959 C7960 1.383 . S
C7959 H7967 0.929 . S
C7960 C7959 1.383 . S
C7960 C7961 1.377 . S
C7961 H7945 0.930 . S
C7961 C7960 1.377 . S
C7961 C7962 1.379 . S
C7962 H7946 0.931 . S
C7962 C7956 1.383 . S
C7962 C7961 1.379 . S
H7963 C7957 0.959 . S
H7964 C7957 0.961 . S
H7965 C7957 0.960 . S
H7966 C7958 0.930 . S
H7967 C7959 0.929 . S
H7968 C7976 0.929 . S
H7969 C7978 0.930 . S
H7970 C7980 0.930 . S
H7971 C7983 0.929 . S
H7972 C7986 0.930 . S
H7973 C7988 0.960 . S
H7974 C7988 0.960 . S
H7975 C7988 0.960 . S
C7976 H7968 0.929 . S
C7976 C7977 1.377 . S
C7976 C7978 1.384 . S
C7977 C7976 1.377 . S
C7977 C7983 1.390 . S
C7978 H7969 0.930 . S
C7978 C7976 1.384 . S
C7978 C7979 1.372 . S
C7979 C7978 1.372 . S
C7979 C7980 1.400 . S
C7979 C7984 1.490 . S
C7980 H7970 0.930 . S
C7980 C7979 1.400 . S
C7980 C7983 1.386 . S
H7981 C7997 0.930 . S
H7982 C7998 0.931 . S
C7983 H7971 0.929 . S
C7983 C7977 1.390 . S
C7983 C7980 1.386 . S
C7984 C7979 1.490 . S
C7984 C7986 1.395 . S
C7984 C7987 1.403 . S
H7985 C7991 0.930 . S
C7986 H7972 0.930 . S
C7986 C7984 1.395 . S
C7986 C7989 1.403 . S
C7987 C7984 1.403 . S
C7987 C7988 1.524 . S
C7987 C7991 1.400 . S
C7988 H7973 0.960 . S
C7988 H7974 0.960 . S
C7988 H7975 0.960 . S
C7988 C7987 1.524 . S
C7989 C7986 1.403 . S
C7989 C7990 1.392 . S
C7989 C7993 1.495 . S
C7990 C7989 1.392 . S
C7990 C7991 1.385 . S
C7990 C7992 1.478 . S
C7991 H7985 0.930 . S
C7991 C7987 1.400 . S
C7991 C7990 1.385 . S
C7992 C7990 1.478 . S
C7992 C7994 1.381 . S
C7992 C7998 1.383 . S
C7993 C7989 1.495 . S
C7993 H7999 0.959 . S
C7993 H8000 0.961 . S
C7993 H8001 0.960 . S
C7994 C7992 1.381 . S
C7994 C7995 1.394 . S
C7994 H8002 0.930 . S
C7995 C7994 1.394 . S
C7995 C7996 1.383 . S
C7995 H8003 0.929 . S
C7996 C7995 1.383 . S
C7996 C7997 1.377 . S
C7997 H7981 0.930 . S
C7997 C7996 1.377 . S
C7997 C7998 1.379 . S
C7998 H7982 0.931 . S
C7998 C7992 1.383 . S
C7998 C7997 1.379 . S
H7999 C7993 0.959 . S
H8000 C7993 0.961 . S
H8001 C7993 0.960 . S
H8002 C7994 0.930 . S
H8003 C7995 0.929 . S
H8004 C8012 0.929 . S
H8005 C8014 0.930 . S
H8006 C8016 0.930 . S
H8007 C8019 0.929 . S
H8008 C8022 0.930 . S
H8009 C8024 0.960 . S
H8010 C8024 0.960 . S
H8011 C8024 0.960 . S
C8012 H8004 0.929 . S
C8012 C8013 1.377 . S
C8012 C8014 1.384 . S
C8013 C8012 1.377 . S
C8013 C8019 1.390 . S
C8014 H8005 0.930 . S
C8014 C8012 1.384 . S
C8014 C8015 1.372 . S
C8015 C8014 1.372 . S
C8015 C8016 1.400 . S
C8015 C8020 1.490 . S
C8016 H8006 0.930 . S
C8016 C8015 1.400 . S
C8016 C8019 1.386 . S
H8017 C8033 0.930 . S
H8018 C8034 0.931 . S
C8019 H8007 0.929 . S
C8019 C8013 1.390 . S
C8019 C8016 1.386 . S
C8020 C8015 1.490 . S
C8020 C8022 1.395 . S
C8020 C8023 1.403 . S
H8021 C8027 0.930 . S
C8022 H8008 0.930 . S
C8022 C8020 1.395 . S
C8022 C8025 1.403 . S
C8023 C8020 1.403 . S
C8023 C8024 1.524 . S
C8023 C8027 1.400 . S
C8024 H8009 0.960 . S
C8024 H8010 0.960 . S
C8024 H8011 0.960 . S
C8024 C8023 1.524 . S
C8025 C8022 1.403 . S
C8025 C8026 1.392 . S
C8025 C8029 1.495 . S
C8026 C8025 1.392 . S
C8026 C8027 1.385 . S
C8026 C8028 1.478 . S
C8027 H8021 0.930 . S
C8027 C8023 1.400 . S
C8027 C8026 1.385 . S
C8028 C8026 1.478 . S
C8028 C8030 1.381 . S
C8028 C8034 1.383 . S
C8029 C8025 1.495 . S
C8029 H8035 0.959 . S
C8029 H8036 0.961 . S
C8029 H8037 0.960 . S
C8030 C8028 1.381 . S
C8030 C8031 1.394 . S
C8030 H8038 0.930 . S
C8031 C8030 1.394 . S
C8031 C8032 1.383 . S
C8031 H8039 0.929 . S
C8032 C8031 1.383 . S
C8032 C8033 1.377 . S
C8033 H8017 0.930 . S
C8033 C8032 1.377 . S
C8033 C8034 1.379 . S
C8034 H8018 0.931 . S
C8034 C8028 1.383 . S
C8034 C8033 1.379 . S
H8035 C8029 0.959 . S
H8036 C8029 0.961 . S
H8037 C8029 0.960 . S
H8038 C8030 0.930 . S
H8039 C8031 0.929 . S
H8040 C8048 0.929 . S
H8041 C8050 0.930 . S
H8042 C8052 0.930 . S
H8043 C8055 0.929 . S
H8044 C8058 0.930 . S
H8045 C8060 0.960 . S
H8046 C8060 0.960 . S
H8047 C8060 0.960 . S
C8048 H8040 0.929 . S
C8048 C8049 1.377 . S
C8048 C8050 1.384 . S
C8049 C8048 1.377 . S
C8049 C8055 1.390 . S
C8050 H8041 0.930 . S
C8050 C8048 1.384 . S
C8050 C8051 1.372 . S
C8051 C8050 1.372 . S
C8051 C8052 1.400 . S
C8051 C8056 1.490 . S
C8052 H8042 0.930 . S
C8052 C8051 1.400 . S
C8052 C8055 1.386 . S
H8053 C8069 0.930 . S
H8054 C8070 0.931 . S
C8055 H8043 0.929 . S
C8055 C8049 1.390 . S
C8055 C8052 1.386 . S
C8056 C8051 1.490 . S
C8056 C8058 1.395 . S
C8056 C8059 1.403 . S
H8057 C8063 0.930 . S
C8058 H8044 0.930 . S
C8058 C8056 1.395 . S
C8058 C8061 1.403 . S
C8059 C8056 1.403 . S
C8059 C8060 1.524 . S
C8059 C8063 1.400 . S
C8060 H8045 0.960 . S
C8060 H8046 0.960 . S
C8060 H8047 0.960 . S
C8060 C8059 1.524 . S
C8061 C8058 1.403 . S
C8061 C8062 1.392 . S
C8061 C8065 1.495 . S
C8062 C8061 1.392 . S
C8062 C8063 1.385 . S
C8062 C8064 1.478 . S
C8063 H8057 0.930 . S
C8063 C8059 1.400 . S
C8063 C8062 1.385 . S
C8064 C8062 1.478 . S
C8064 C8066 1.381 . S
C8064 C8070 1.383 . S
C8065 C8061 1.495 . S
C8065 H8071 0.959 . S
C8065 H8072 0.961 . S
C8065 H8073 0.960 . S
C8066 C8064 1.381 . S
C8066 C8067 1.394 . S
C8066 H8074 0.930 . S
C8067 C8066 1.394 . S
C8067 C8068 1.383 . S
C8067 H8075 0.929 . S
C8068 C8067 1.383 . S
C8068 C8069 1.377 . S
C8069 H8053 0.930 . S
C8069 C8068 1.377 . S
C8069 C8070 1.379 . S
C8070 H8054 0.931 . S
C8070 C8064 1.383 . S
C8070 C8069 1.379 . S
H8071 C8065 0.959 . S
H8072 C8065 0.961 . S
H8073 C8065 0.960 . S
H8074 C8066 0.930 . S
H8075 C8067 0.929 . S
H8076 C8084 0.929 . S
H8077 C8086 0.930 . S
H8078 C8088 0.930 . S
H8079 C8091 0.929 . S
H8080 C8094 0.930 . S
H8081 C8096 0.960 . S
H8082 C8096 0.960 . S
H8083 C8096 0.960 . S
C8084 H8076 0.929 . S
C8084 C8085 1.377 . S
C8084 C8086 1.384 . S
C8085 C8084 1.377 . S
C8085 C8091 1.390 . S
C8086 H8077 0.930 . S
C8086 C8084 1.384 . S
C8086 C8087 1.372 . S
C8087 C8086 1.372 . S
C8087 C8088 1.400 . S
C8087 C8092 1.490 . S
C8088 H8078 0.930 . S
C8088 C8087 1.400 . S
C8088 C8091 1.386 . S
H8089 C8105 0.930 . S
H8090 C8106 0.931 . S
C8091 H8079 0.929 . S
C8091 C8085 1.390 . S
C8091 C8088 1.386 . S
C8092 C8087 1.490 . S
C8092 C8094 1.395 . S
C8092 C8095 1.403 . S
H8093 C8099 0.930 . S
C8094 H8080 0.930 . S
C8094 C8092 1.395 . S
C8094 C8097 1.403 . S
C8095 C8092 1.403 . S
C8095 C8096 1.524 . S
C8095 C8099 1.400 . S
C8096 H8081 0.960 . S
C8096 H8082 0.960 . S
C8096 H8083 0.960 . S
C8096 C8095 1.524 . S
C8097 C8094 1.403 . S
C8097 C8098 1.392 . S
C8097 C8101 1.495 . S
C8098 C8097 1.392 . S
C8098 C8099 1.385 . S
C8098 C8100 1.478 . S
C8099 H8093 0.930 . S
C8099 C8095 1.400 . S
C8099 C8098 1.385 . S
C8100 C8098 1.478 . S
C8100 C8102 1.381 . S
C8100 C8106 1.383 . S
C8101 C8097 1.495 . S
C8101 H8107 0.959 . S
C8101 H8108 0.961 . S
C8101 H8109 0.960 . S
C8102 C8100 1.381 . S
C8102 C8103 1.394 . S
C8102 H8110 0.930 . S
C8103 C8102 1.394 . S
C8103 C8104 1.383 . S
C8103 H8111 0.929 . S
C8104 C8103 1.383 . S
C8104 C8105 1.377 . S
C8105 H8089 0.930 . S
C8105 C8104 1.377 . S
C8105 C8106 1.379 . S
C8106 H8090 0.931 . S
C8106 C8100 1.383 . S
C8106 C8105 1.379 . S
H8107 C8101 0.959 . S
H8108 C8101 0.961 . S
H8109 C8101 0.960 . S
H8110 C8102 0.930 . S
H8111 C8103 0.929 . S
H8112 C8120 0.929 . S
H8113 C8122 0.930 . S
H8114 C8124 0.930 . S
H8115 C8127 0.929 . S
H8116 C8130 0.930 . S
H8117 C8132 0.960 . S
H8118 C8132 0.960 . S
H8119 C8132 0.960 . S
C8120 H8112 0.929 . S
C8120 C8121 1.377 . S
C8120 C8122 1.384 . S
C8121 C8120 1.377 . S
C8121 C8127 1.390 . S
C8122 H8113 0.930 . S
C8122 C8120 1.384 . S
C8122 C8123 1.372 . S
C8123 C8122 1.372 . S
C8123 C8124 1.400 . S
C8123 C8128 1.490 . S
C8124 H8114 0.930 . S
C8124 C8123 1.400 . S
C8124 C8127 1.386 . S
H8125 C8141 0.930 . S
H8126 C8142 0.931 . S
C8127 H8115 0.929 . S
C8127 C8121 1.390 . S
C8127 C8124 1.386 . S
C8128 C8123 1.490 . S
C8128 C8130 1.395 . S
C8128 C8131 1.403 . S
H8129 C8135 0.930 . S
C8130 H8116 0.930 . S
C8130 C8128 1.395 . S
C8130 C8133 1.403 . S
C8131 C8128 1.403 . S
C8131 C8132 1.524 . S
C8131 C8135 1.400 . S
C8132 H8117 0.960 . S
C8132 H8118 0.960 . S
C8132 H8119 0.960 . S
C8132 C8131 1.524 . S
C8133 C8130 1.403 . S
C8133 C8134 1.392 . S
C8133 C8137 1.495 . S
C8134 C8133 1.392 . S
C8134 C8135 1.385 . S
C8134 C8136 1.478 . S
C8135 H8129 0.930 . S
C8135 C8131 1.400 . S
C8135 C8134 1.385 . S
C8136 C8134 1.478 . S
C8136 C8138 1.381 . S
C8136 C8142 1.383 . S
C8137 C8133 1.495 . S
C8137 H8143 0.959 . S
C8137 H8144 0.961 . S
C8137 H8145 0.960 . S
C8138 C8136 1.381 . S
C8138 C8139 1.394 . S
C8138 H8146 0.930 . S
C8139 C8138 1.394 . S
C8139 C8140 1.383 . S
C8139 H8147 0.929 . S
C8140 C8139 1.383 . S
C8140 C8141 1.377 . S
C8141 H8125 0.930 . S
C8141 C8140 1.377 . S
C8141 C8142 1.379 . S
C8142 H8126 0.931 . S
C8142 C8136 1.383 . S
C8142 C8141 1.379 . S
H8143 C8137 0.959 . S
H8144 C8137 0.961 . S
H8145 C8137 0.960 . S
H8146 C8138 0.930 . S
H8147 C8139 0.929 . S
H8148 C8156 0.929 . S
H8149 C8158 0.930 . S
H8150 C8160 0.930 . S
H8151 C8163 0.929 . S
H8152 C8166 0.930 . S
H8153 C8168 0.960 . S
H8154 C8168 0.960 . S
H8155 C8168 0.960 . S
C8156 H8148 0.929 . S
C8156 C8157 1.377 . S
C8156 C8158 1.384 . S
C8157 C8156 1.377 . S
C8157 C8163 1.390 . S
C8158 H8149 0.930 . S
C8158 C8156 1.384 . S
C8158 C8159 1.372 . S
C8159 C8158 1.372 . S
C8159 C8160 1.400 . S
C8159 C8164 1.490 . S
C8160 H8150 0.930 . S
C8160 C8159 1.400 . S
C8160 C8163 1.386 . S
H8161 C8177 0.930 . S
H8162 C8178 0.931 . S
C8163 H8151 0.929 . S
C8163 C8157 1.390 . S
C8163 C8160 1.386 . S
C8164 C8159 1.490 . S
C8164 C8166 1.395 . S
C8164 C8167 1.403 . S
H8165 C8171 0.930 . S
C8166 H8152 0.930 . S
C8166 C8164 1.395 . S
C8166 C8169 1.403 . S
C8167 C8164 1.403 . S
C8167 C8168 1.524 . S
C8167 C8171 1.400 . S
C8168 H8153 0.960 . S
C8168 H8154 0.960 . S
C8168 H8155 0.960 . S
C8168 C8167 1.524 . S
C8169 C8166 1.403 . S
C8169 C8170 1.392 . S
C8169 C8173 1.495 . S
C8170 C8169 1.392 . S
C8170 C8171 1.385 . S
C8170 C8172 1.478 . S
C8171 H8165 0.930 . S
C8171 C8167 1.400 . S
C8171 C8170 1.385 . S
C8172 C8170 1.478 . S
C8172 C8174 1.381 . S
C8172 C8178 1.383 . S
C8173 C8169 1.495 . S
C8173 H8179 0.959 . S
C8173 H8180 0.961 . S
C8173 H8181 0.960 . S
C8174 C8172 1.381 . S
C8174 C8175 1.394 . S
C8174 H8182 0.930 . S
C8175 C8174 1.394 . S
C8175 C8176 1.383 . S
C8175 H8183 0.929 . S
C8176 C8175 1.383 . S
C8176 C8177 1.377 . S
C8177 H8161 0.930 . S
C8177 C8176 1.377 . S
C8177 C8178 1.379 . S
C8178 H8162 0.931 . S
C8178 C8172 1.383 . S
C8178 C8177 1.379 . S
H8179 C8173 0.959 . S
H8180 C8173 0.961 . S
H8181 C8173 0.960 . S
H8182 C8174 0.930 . S
H8183 C8175 0.929 . S
H8184 C8192 0.929 . S
H8185 C8194 0.930 . S
H8186 C8196 0.930 . S
H8187 C8199 0.929 . S
H8188 C8202 0.930 . S
H8189 C8204 0.960 . S
H8190 C8204 0.960 . S
H8191 C8204 0.960 . S
C8192 H8184 0.929 . S
C8192 C8193 1.377 . S
C8192 C8194 1.384 . S
C8193 C8192 1.377 . S
C8193 C8199 1.390 . S
C8194 H8185 0.930 . S
C8194 C8192 1.384 . S
C8194 C8195 1.372 . S
C8195 C8194 1.372 . S
C8195 C8196 1.400 . S
C8195 C8200 1.490 . S
C8196 H8186 0.930 . S
C8196 C8195 1.400 . S
C8196 C8199 1.386 . S
H8197 C8213 0.930 . S
H8198 C8214 0.931 . S
C8199 H8187 0.929 . S
C8199 C8193 1.390 . S
C8199 C8196 1.386 . S
C8200 C8195 1.490 . S
C8200 C8202 1.395 . S
C8200 C8203 1.403 . S
H8201 C8207 0.930 . S
C8202 H8188 0.930 . S
C8202 C8200 1.395 . S
C8202 C8205 1.403 . S
C8203 C8200 1.403 . S
C8203 C8204 1.524 . S
C8203 C8207 1.400 . S
C8204 H8189 0.960 . S
C8204 H8190 0.960 . S
C8204 H8191 0.960 . S
C8204 C8203 1.524 . S
C8205 C8202 1.403 . S
C8205 C8206 1.392 . S
C8205 C8209 1.495 . S
C8206 C8205 1.392 . S
C8206 C8207 1.385 . S
C8206 C8208 1.478 . S
C8207 H8201 0.930 . S
C8207 C8203 1.400 . S
C8207 C8206 1.385 . S
C8208 C8206 1.478 . S
C8208 C8210 1.381 . S
C8208 C8214 1.383 . S
C8209 C8205 1.495 . S
C8209 H8215 0.959 . S
C8209 H8216 0.961 . S
C8209 H8217 0.960 . S
C8210 C8208 1.381 . S
C8210 C8211 1.394 . S
C8210 H8218 0.930 . S
C8211 C8210 1.394 . S
C8211 C8212 1.383 . S
C8211 H8219 0.929 . S
C8212 C8211 1.383 . S
C8212 C8213 1.377 . S
C8213 H8197 0.930 . S
C8213 C8212 1.377 . S
C8213 C8214 1.379 . S
C8214 H8198 0.931 . S
C8214 C8208 1.383 . S
C8214 C8213 1.379 . S
H8215 C8209 0.959 . S
H8216 C8209 0.961 . S
H8217 C8209 0.960 . S
H8218 C8210 0.930 . S
H8219 C8211 0.929 . S
H8220 C8228 0.929 . S
H8221 C8230 0.930 . S
H8222 C8232 0.930 . S
H8223 C8235 0.929 . S
H8224 C8238 0.930 . S
H8225 C8240 0.960 . S
H8226 C8240 0.960 . S
H8227 C8240 0.960 . S
C8228 H8220 0.929 . S
C8228 C8229 1.377 . S
C8228 C8230 1.384 . S
C8229 C8228 1.377 . S
C8229 C8235 1.390 . S
C8230 H8221 0.930 . S
C8230 C8228 1.384 . S
C8230 C8231 1.372 . S
C8231 C8230 1.372 . S
C8231 C8232 1.400 . S
C8231 C8236 1.490 . S
C8232 H8222 0.930 . S
C8232 C8231 1.400 . S
C8232 C8235 1.386 . S
H8233 C8249 0.930 . S
H8234 C8250 0.931 . S
C8235 H8223 0.929 . S
C8235 C8229 1.390 . S
C8235 C8232 1.386 . S
C8236 C8231 1.490 . S
C8236 C8238 1.395 . S
C8236 C8239 1.403 . S
H8237 C8243 0.930 . S
C8238 H8224 0.930 . S
C8238 C8236 1.395 . S
C8238 C8241 1.403 . S
C8239 C8236 1.403 . S
C8239 C8240 1.524 . S
C8239 C8243 1.400 . S
C8240 H8225 0.960 . S
C8240 H8226 0.960 . S
C8240 H8227 0.960 . S
C8240 C8239 1.524 . S
C8241 C8238 1.403 . S
C8241 C8242 1.392 . S
C8241 C8245 1.495 . S
C8242 C8241 1.392 . S
C8242 C8243 1.385 . S
C8242 C8244 1.478 . S
C8243 H8237 0.930 . S
C8243 C8239 1.400 . S
C8243 C8242 1.385 . S
C8244 C8242 1.478 . S
C8244 C8246 1.381 . S
C8244 C8250 1.383 . S
C8245 C8241 1.495 . S
C8245 H8251 0.959 . S
C8245 H8252 0.961 . S
C8245 H8253 0.960 . S
C8246 C8244 1.381 . S
C8246 C8247 1.394 . S
C8246 H8254 0.930 . S
C8247 C8246 1.394 . S
C8247 C8248 1.383 . S
C8247 H8255 0.929 . S
C8248 C8247 1.383 . S
C8248 C8249 1.377 . S
C8249 H8233 0.930 . S
C8249 C8248 1.377 . S
C8249 C8250 1.379 . S
C8250 H8234 0.931 . S
C8250 C8244 1.383 . S
C8250 C8249 1.379 . S
H8251 C8245 0.959 . S
H8252 C8245 0.961 . S
H8253 C8245 0.960 . S
H8254 C8246 0.930 . S
H8255 C8247 0.929 . S
C1353 C5 1.689 . S
C1372 C957 1.678 . S
C1389 C915 1.687 . S
C1408 C19 1.683 . S
C1425 C929 1.687 . S
C1444 C33 1.682 . S
C1461 C47 1.690 . S
C1480 C943 1.678 . S
C1497 C999 1.688 . S
C1516 C61 1.691 . S
C1533 C971 1.690 . S
C1552 C75 1.685 . S
C1569 C985 1.687 . S
C1588 C89 1.685 . S
C1605 C103 1.688 . S
C1624 C901 1.692 . S
C1641 C117 1.687 . S
C1660 C887 1.687 . S
C1677 C131 1.687 . S
C1696 C845 1.690 . S
C1713 C145 1.689 . S
C1732 C859 1.688 . S
C1749 C159 1.687 . S
C1768 C873 1.691 . S
C1785 C173 1.687 . S
C1804 C803 1.682 . S
C1821 C817 1.689 . S
C1840 C187 1.688 . S
C1857 C831 1.690 . S
C1876 C201 1.683 . S
C1893 C215 1.688 . S
C1912 C789 1.691 . S
C1929 C229 1.688 . S
C1948 C775 1.682 . S
C1965 C243 1.687 . S
C1984 C691 1.684 . S
C2001 C705 1.690 . S
C2020 C257 1.681 . S
C2037 C719 1.690 . S
C2056 C271 1.683 . S
C2073 C677 1.690 . S
C2092 C285 1.680 . S
C2109 C299 1.689 . S
C2128 C747 1.677 . S
C2145 C313 1.690 . S
C2164 C761 1.679 . S
C2181 C327 1.688 . S
C2200 C733 1.678 . S
C2217 C341 1.687 . S
C2236 C1293 1.678 . S
C2253 C355 1.687 . S
C2272 C1251 1.679 . S
C2289 C369 1.689 . S
C2308 C1265 1.688 . S
C2325 C383 1.687 . S
C2344 C1279 1.677 . S
C2361 C397 1.687 . S
C2380 C1335 1.680 . S
C2397 C411 1.688 . S
C2416 C1307 1.683 . S
C2433 C1321 1.687 . S
C2452 C425 1.680 . S
C2469 C439 1.688 . S
C2488 C1237 1.684 . S
C2505 C453 1.690 . S
C2524 C1223 1.691 . S
C2541 C1181 1.688 . S
C2560 C467 1.683 . S
C2577 C481 1.687 . S
C2596 C1195 1.678 . S
C2613 C495 1.687 . S
C2632 C1209 1.678 . S
C2649 C509 1.690 . S
C2668 C1139 1.690 . S
C2685 C523 1.687 . S
C2704 C1153 1.678 . S
C2721 C537 1.688 . S
C2740 C1167 1.682 . S
C2757 C1125 1.690 . S
C2776 C551 1.691 . S
C2793 C565 1.689 . S
C2812 C1111 1.689 . S
C2829 C579 1.687 . S
C2848 C1027 1.677 . S
C2865 C593 1.688 . S
C2884 C1041 1.683 . S
C2901 C1055 1.687 . S
C2920 C607 1.680 . S
C2937 C621 1.688 . S
C2956 C1013 1.682 . S
C2973 C1083 1.687 . S
C2992 C635 1.677 . S
C3009 C649 1.689 . S
C3028 C1097 1.688 . S
C3045 C663 1.688 . S
C3064 C1069 1.685 . S
C3081 C9 1.517 . S
C3100 C555 1.508 . S
C3117 C23 1.519 . S
C3136 C513 1.517 . S
C3153 C527 1.517 . S
C3172 C37 1.522 . S
C3189 C51 1.516 . S
C3208 C541 1.521 . S
C3225 C471 1.518 . S
C3244 C65 1.506 . S
C3261 C485 1.516 . S
C3280 C79 1.518 . S
C3297 C499 1.516 . S
C3316 C93 1.522 . S
C3333 C457 1.517 . S
C3352 C107 1.522 . S
C3369 C443 1.516 . S
C3388 C121 1.521 . S
C3405 C135 1.518 . S
C3424 C401 1.507 . S
C3441 C415 1.516 . S
C3460 C149 1.521 . S
C3477 C163 1.517 . S
C3496 C429 1.511 . S
C3513 C359 1.519 . S
C3532 C177 1.507 . S
C3549 C373 1.518 . S
C3568 C191 1.519 . S
C3585 C205 1.518 . S
C3604 C387 1.507 . S
C3621 C219 1.516 . S
C3640 C345 1.517 . S
C3657 C233 1.518 . S
C3676 C625 1.519 . S
C3693 C247 1.518 . S
C3712 C667 1.521 . S
C3729 C639 1.516 . S
C3748 C261 1.521 . S
C3765 C653 1.519 . S
C3784 C275 1.508 . S
C3801 C289 1.517 . S
C3820 C569 1.508 . S
C3837 C303 1.519 . S
C3856 C597 1.512 . S
C3873 C611 1.516 . S
C3892 C317 1.522 . S
C3909 C331 1.516 . S
C3928 C583 1.516 . S
C3945 C1227 1.518 . S
C3964 C681 1.521 . S
C3981 C1185 1.516 . S
C4000 C695 1.520 . S
C4017 C1199 1.519 . S
C4036 C709 1.517 . S
C4053 C723 1.517 . S
C4072 C1213 1.522 . S
C4089 C1143 1.519 . S
C4108 C737 1.515 . S
C4125 C1157 1.516 . S
C4144 C751 1.521 . S
C4161 C765 1.519 . S
C4180 C1171 1.516 . S
C4197 C779 1.519 . S
C4216 C1129 1.513 . S
C4233 C1115 1.518 . S
C4252 C793 1.506 . S
C4269 C807 1.517 . S
C4288 C1073 1.508 . S
C4305 C1087 1.516 . S
C4324 C821 1.518 . S
C4341 C1101 1.517 . S
C4360 C835 1.510 . S
C4377 C849 1.519 . S
C4396 C1031 1.516 . S
C4413 C863 1.519 . S
C4432 C1045 1.508 . S
C4449 C1059 1.519 . S
C4468 C877 1.507 . S
C4485 C891 1.516 . S
C4504 C1017 1.521 . S
C4521 C1297 1.519 . S
C4540 C905 1.511 . S
C4557 C1339 1.519 . S
C4576 C919 1.510 . S
C4593 C933 1.519 . S
C4612 C1311 1.518 . S
C4629 C1325 1.518 . S
C4648 C947 1.506 . S
C4665 C1241 1.519 . S
C4684 C961 1.509 . S
C4701 C1269 1.519 . S
C4720 C975 1.509 . S
C4737 C989 1.517 . S
C4756 C1283 1.508 . S
C4773 C1255 1.518 . S
C4792 C1003 1.506 . S
C4809 C11 1.110 . S
C4828 C403 1.100 . S
C4845 C417 1.110 . S
C4864 C25 1.096 . S
C4881 C39 1.107 . S
C4900 C431 1.078 . S
C4917 C445 1.110 . S
C4936 C53 1.090 . S
C4953 C67 1.100 . S
C4972 C347 1.115 . S
C4989 C81 1.106 . S
C5008 C361 1.078 . S
C5025 C95 1.110 . S
C5044 C375 1.083 . S
C5061 C389 1.108 . S
C5080 C109 1.077 . S
C5097 C543 1.106 . S
C5116 C123 1.078 . S
C5133 C137 1.100 . S
C5152 C557 1.118 . S
C5169 C151 1.100 . S
C5188 C515 1.107 . S
C5205 C165 1.110 . S
C5224 C529 1.086 . S
C5241 C179 1.110 . S
C5260 C487 1.089 . S
C5277 C193 1.105 . S
C5296 C501 1.125 . S
C5313 C207 1.107 . S
C5332 C459 1.120 . S
C5349 C221 1.101 . S
C5368 C473 1.126 . S
C5385 C235 1.100 . S
C5404 C641 1.103 . S
C5421 C249 1.110 . S
C5440 C613 1.099 . S
C5457 C627 1.100 . S
C5476 C263 1.121 . S
C5493 C277 1.101 . S
C5512 C585 1.095 . S
C5529 C599 1.110 . S
C5548 C291 1.102 . S
C5565 C305 1.108 . S
C5584 C571 1.116 . S
C5601 C319 1.105 . S
C5620 C669 1.124 . S
C5637 C655 1.110 . S
C5656 C333 1.082 . S
C5673 C1075 1.102 . S
C5692 C683 1.128 . S
C5709 C697 1.105 . S
C5728 C1089 1.080 . S
C5745 C1103 1.109 . S
C5764 C711 1.081 . S
C5781 C725 1.108 . S
C5800 C1117 1.077 . S
C5817 C1019 1.101 . S
C5836 C739 1.126 . S
C5853 C1033 1.100 . S
C5872 C753 1.125 . S
C5889 C1047 1.100 . S
C5908 C767 1.114 . S
C5925 C781 1.106 . S
C5944 C1061 1.078 . S
C5961 C795 1.103 . S
C5980 C1215 1.086 . S
C5997 C1229 1.100 . S
C6016 C809 1.107 . S
C6033 C1187 1.100 . S
C6052 C823 1.103 . S
C6069 C1201 1.100 . S
C6088 C837 1.119 . S
C6105 C851 1.101 . S
C6124 C1159 1.098 . S
C6141 C865 1.101 . S
C6160 C1173 1.128 . S
C6177 C1131 1.106 . S
C6196 C879 1.121 . S
C6213 C1145 1.100 . S
C6232 C893 1.121 . S
C6249 C1313 1.109 . S
C6268 C907 1.109 . S
C6285 C921 1.110 . S
C6304 C1285 1.086 . S
C6321 C1299 1.109 . S
C6340 C935 1.107 . S
C6357 C949 1.100 . S
C6376 C1257 1.117 . S
C6393 C963 1.106 . S
C6412 C1271 1.079 . S
C6429 C977 1.110 . S
C6448 C1243 1.103 . S
C6465 C1341 1.104 . S
C6484 C991 1.127 . S
C6501 C1005 1.110 . S
C6520 C1327 1.090 . S
C6537 C434 1.169 . S
C6556 C0 1.139 . S
C6573 C392 1.165 . S
C6592 C14 1.194 . S
C6609 C28 1.171 . S
C6628 C406 1.182 . S
C6645 C420 1.163 . S
C6664 C42 1.172 . S
C6681 C350 1.170 . S
C6700 C56 1.187 . S
C6717 C70 1.164 . S
C6736 C364 1.192 . S
C6753 C84 1.163 . S
C6772 C378 1.189 . S
C6789 C336 1.171 . S
C6808 C98 1.138 . S
C6825 C616 1.169 . S
C6844 C112 1.189 . S
C6861 C126 1.169 . S
C6880 C574 1.141 . S
C6897 C140 1.174 . S
C6916 C588 1.153 . S
C6933 C602 1.164 . S
C6952 C154 1.192 . S
C6969 C168 1.165 . S
C6988 C658 1.194 . S
C7005 C630 1.170 . S
C7024 C182 1.186 . S
C7041 C644 1.174 . S
C7060 C196 1.146 . S
C7077 C210 1.168 . S
C7096 C560 1.192 . S
C7113 C224 1.165 . S
C7132 C546 1.194 . S
C7149 C238 1.173 . S
C7168 C462 1.141 . S
C7185 C252 1.174 . S
C7204 C476 1.146 . S
C7221 C490 1.172 . S
C7240 C266 1.174 . S
C7257 C448 1.165 . S
C7276 C280 1.151 . S
C7293 C294 1.164 . S
C7312 C518 1.193 . S
C7329 C308 1.170 . S
C7348 C532 1.185 . S
C7365 C322 1.169 . S
C7384 C504 1.190 . S
C7401 C672 1.171 . S
C7420 C1106 1.182 . S
C7437 C686 1.174 . S
C7456 C1064 1.147 . S
C7473 C700 1.164 . S
C7492 C1078 1.194 . S
C7509 C1092 1.163 . S
C7528 C714 1.189 . S
C7545 C1022 1.174 . S
C7564 C728 1.150 . S
C7581 C1036 1.173 . S
C7600 C742 1.142 . S
C7617 C756 1.164 . S
C7636 C1050 1.192 . S
C7653 C1008 1.172 . S
C7672 C770 1.138 . S
C7689 C1288 1.174 . S
C7708 C784 1.143 . S
C7725 C1246 1.165 . S
C7744 C798 1.194 . S
C7761 C1260 1.162 . S
C7780 C812 1.180 . S
C7797 C1274 1.174 . S
C7816 C826 1.149 . S
C7833 C1330 1.172 . S
C7852 C840 1.139 . S
C7869 C1302 1.168 . S
C7888 C854 1.190 . S
C7905 C1316 1.172 . S
C7924 C868 1.138 . S
C7941 C1232 1.164 . S
C7960 C882 1.193 . S
C7977 C896 1.171 . S
C7996 C1218 1.138 . S
C8013 C1134 1.172 . S
C8032 C910 1.138 . S
C8049 C1148 1.170 . S
C8068 C924 1.138 . S
C8085 C1162 1.172 . S
C8104 C938 1.174 . S
C8121 C1120 1.174 . S
C8140 C952 1.161 . S
C8157 C1190 1.165 . S
C8176 C966 1.152 . S
C8193 C1204 1.163 . S
C8212 C980 1.190 . S
C8229 C1176 1.166 . S
C8248 C994 1.148 . S
