# Generated by pormake.
# Topology can, (4)-cn, num edge types: 1
# Building blocks:
#     Node 0, Type 0, BuildingBlock: KUFVIS_clean_sbu_0, # of connection points: 4
#     Node 1, Type 0, BuildingBlock: KUFVIS_clean_sbu_0, # of connection points: 4
#     Node 2, Type 0, BuildingBlock: KUFVIS_clean_sbu_0, # of connection points: 4
#     Node 3, Type 0, BuildingBlock: KUFVIS_clean_sbu_0, # of connection points: 4
#     Node 4, Type 0, BuildingBlock: KUFVIS_clean_sbu_0, # of connection points: 4
#     Node 5, Type 0, BuildingBlock: KUFVIS_clean_sbu_0, # of connection points: 4
#     Node 6, Type 0, BuildingBlock: KUFVIS_clean_sbu_0, # of connection points: 4
#     Node 7, Type 0, BuildingBlock: KUFVIS_clean_sbu_0, # of connection points: 4
#     Node 8, Type 0, BuildingBlock: KUFVIS_clean_sbu_0, # of connection points: 4
#     Node 9, Type 0, BuildingBlock: KUFVIS_clean_sbu_0, # of connection points: 4
#     Node 10, Type 0, BuildingBlock: KUFVIS_clean_sbu_0, # of connection points: 4
#     Node 11, Type 0, BuildingBlock: KUFVIS_clean_sbu_0, # of connection points: 4
#     Edge 12, Type (0, 0), BuildingBlock: TEMPAE_clean_linker_10, # of connection points: 2
#     Edge 13, Type (0, 0), BuildingBlock: TEMPAE_clean_linker_10, # of connection points: 2
#     Edge 14, Type (0, 0), BuildingBlock: TEMPAE_clean_linker_10, # of connection points: 2
#     Edge 15, Type (0, 0), BuildingBlock: TEMPAE_clean_linker_10, # of connection points: 2
#     Edge 16, Type (0, 0), BuildingBlock: TEMPAE_clean_linker_10, # of connection points: 2
#     Edge 17, Type (0, 0), BuildingBlock: TEMPAE_clean_linker_10, # of connection points: 2
#     Edge 18, Type (0, 0), BuildingBlock: TEMPAE_clean_linker_10, # of connection points: 2
#     Edge 19, Type (0, 0), BuildingBlock: TEMPAE_clean_linker_10, # of connection points: 2
#     Edge 20, Type (0, 0), BuildingBlock: TEMPAE_clean_linker_10, # of connection points: 2
#     Edge 21, Type (0, 0), BuildingBlock: TEMPAE_clean_linker_10, # of connection points: 2
#     Edge 22, Type (0, 0), BuildingBlock: TEMPAE_clean_linker_10, # of connection points: 2
#     Edge 23, Type (0, 0), BuildingBlock: TEMPAE_clean_linker_10, # of connection points: 2
#     Edge 24, Type (0, 0), BuildingBlock: TEMPAE_clean_linker_10, # of connection points: 2
#     Edge 25, Type (0, 0), BuildingBlock: TEMPAE_clean_linker_10, # of connection points: 2
#     Edge 26, Type (0, 0), BuildingBlock: TEMPAE_clean_linker_10, # of connection points: 2
#     Edge 27, Type (0, 0), BuildingBlock: TEMPAE_clean_linker_10, # of connection points: 2
#     Edge 28, Type (0, 0), BuildingBlock: TEMPAE_clean_linker_10, # of connection points: 2
#     Edge 29, Type (0, 0), BuildingBlock: TEMPAE_clean_linker_10, # of connection points: 2
#     Edge 30, Type (0, 0), BuildingBlock: TEMPAE_clean_linker_10, # of connection points: 2
#     Edge 31, Type (0, 0), BuildingBlock: TEMPAE_clean_linker_10, # of connection points: 2
#     Edge 32, Type (0, 0), BuildingBlock: TEMPAE_clean_linker_10, # of connection points: 2
#     Edge 33, Type (0, 0), BuildingBlock: TEMPAE_clean_linker_10, # of connection points: 2
#     Edge 34, Type (0, 0), BuildingBlock: TEMPAE_clean_linker_10, # of connection points: 2
#     Edge 35, Type (0, 0), BuildingBlock: TEMPAE_clean_linker_10, # of connection points: 2
# Relax obj value: 0.068
# Max RMSD: 0.070
# Mean RMSD: 0.064
data_MOF--net-can--node1-KUFVIS_clean_sbu_0--edge1-TEMPAE_clean_linker_10
_symmetry_space_group_name_H-M    P1
_symmetry_Int_Tables_number       1
_symmetry_cell_setting            triclinic
loop_
_symmetry_equiv_pos_as_xyz
'x, y, z'
_cell_length_a     55.203578
_cell_length_b     55.957447
_cell_length_c     27.415787
_cell_angle_alpha  89.981814
_cell_angle_beta   89.974659
_cell_angle_gamma 119.54927
loop_
_atom_site_label
_atom_site_type_symbol
_atom_site_fract_x
_atom_site_fract_y
_atom_site_fract_z
_atom_type_partial_charge
Mn0 Mn 0.06379 0.40374 0.27129 0.0
Mn1 Mn 0.11149 0.45055 0.34788 0.0
C2 C 0.06159 0.443 0.29213 0.0
C3 C 0.04866 0.38631 0.19294 0.0
C4 C 0.06242 0.39709 0.38255 0.0
O5 O 0.09478 0.39362 0.27016 0.0
O6 O 0.12505 0.42666 0.32013 0.0
C7 C 0.15541 0.48243 0.27507 0.0
N8 N 0.1384 0.48153 0.31187 0.0
C9 C 0.16027 0.5308 0.31407 0.0
C10 C 0.17811 0.53231 0.27628 0.0
C11 C 0.17552 0.508 0.25645 0.0
C12 C 0.14029 0.50474 0.33042 0.0
H13 H 0.15372 0.46379 0.26023 0.0
C14 C 0.11822 0.40606 0.29208 0.0
O15 O 0.039 0.37077 0.23123 0.0
O16 O 0.06778 0.41161 0.19995 0.0
N17 N 0.10197 0.47562 0.37786 0.0
C18 C 0.08241 0.4705 0.41274 0.0
C19 C 0.08225 0.49259 0.43666 0.0
C20 C 0.10248 0.51965 0.42506 0.0
C21 C 0.12212 0.52443 0.38846 0.0
C22 C 0.12124 0.50161 0.3659 0.0
H23 H 0.06736 0.44971 0.42283 0.0
O24 O 0.03977 0.42115 0.27628 0.0
O25 O 0.08431 0.44145 0.29503 0.0
O26 O 0.05213 0.3879 0.34049 0.0
O27 O 0.08466 0.42 0.38885 0.0
C28 C 0.14274 0.55092 0.37386 0.0
C29 C 0.16156 0.55411 0.33624 0.0
H30 H 0.19382 0.55201 0.26216 0.0
H31 H 0.18917 0.50899 0.22723 0.0
H32 H 0.06692 0.48877 0.46463 0.0
H33 H 0.10266 0.5366 0.44441 0.0
H34 H 0.14417 0.56901 0.39101 0.0
H35 H 0.17697 0.57457 0.32473 0.0
Mn36 Mn 0.66472 0.05917 0.75151 0.0
Mn37 Mn 0.71186 0.0382 0.73326 0.0
C38 C 0.67158 0.04792 0.67327 0.0
C39 C 0.61971 0.05131 0.7668 0.0
C40 C 0.72793 0.09774 0.7487 0.0
O41 O 0.66921 0.04774 0.81944 0.0
O42 O 0.70105 0.03466 0.80387 0.0
C43 C 0.67818 0.97918 0.7585 0.0
N44 N 0.69496 0.99925 0.72667 0.0
C45 C 0.69897 0.96654 0.67515 0.0
C46 C 0.68192 0.94553 0.70761 0.0
C47 C 0.6713 0.95186 0.74924 0.0
C48 C 0.70504 0.99334 0.68623 0.0
H49 H 0.67028 0.98402 0.79083 0.0
C50 C 0.68492 0.03827 0.83304 0.0
O51 O 0.6415 0.07481 0.7763 0.0
O52 O 0.6241 0.03196 0.75076 0.0
N53 N 0.72394 0.03967 0.6674 0.0
C54 C 0.73654 0.0616 0.63672 0.0
C55 C 0.74588 0.05828 0.59088 0.0
C56 C 0.74254 0.03259 0.57745 0.0
C57 C 0.72943 0.0103 0.60966 0.0
C58 C 0.72018 0.01476 0.65449 0.0
H59 H 0.7392 0.08136 0.64709 0.0
O60 O 0.66266 0.06513 0.68107 0.0
O61 O 0.67743 0.03813 0.71219 0.0
O62 O 0.70341 0.0937 0.75603 0.0
O63 O 0.73307 0.07849 0.73873 0.0
C64 C 0.7246 0.9837 0.59864 0.0
C65 C 0.70954 0.96186 0.63153 0.0
H66 H 0.67652 0.92443 0.70058 0.0
H67 H 0.65799 0.93573 0.77431 0.0
H68 H 0.75575 0.07551 0.56604 0.0
H69 H 0.74979 0.03012 0.54209 0.0
H70 H 0.73178 0.97968 0.56448 0.0
H71 H 0.70536 0.94137 0.62211 0.0
Mn72 Mn 0.60356 0.66597 0.21083 0.0
Mn73 Mn 0.67302 0.70769 0.20242 0.0
C74 C 0.62537 0.67393 0.13562 0.0
C75 C 0.56455 0.62296 0.22202 0.0
C76 C 0.63232 0.7289 0.21455 0.0
O77 O 0.61625 0.66746 0.28072 0.0
O78 O 0.66249 0.69496 0.27131 0.0
C79 C 0.69156 0.66755 0.22588 0.0
N80 N 0.69128 0.68645 0.1949 0.0
C81 C 0.72269 0.68202 0.13961 0.0
C82 C 0.72345 0.66262 0.17104 0.0
C83 C 0.70772 0.65529 0.21427 0.0
C84 C 0.70623 0.69357 0.15311 0.0
H85 H 0.6796 0.6619 0.25923 0.0
C86 C 0.641 0.6799 0.29761 0.0
O87 O 0.56363 0.64534 0.22996 0.0
O88 O 0.58822 0.6254 0.20877 0.0
N89 N 0.68613 0.72089 0.13796 0.0
C90 C 0.68102 0.73788 0.10949 0.0
C91 C 0.69397 0.74606 0.06371 0.0
C92 C 0.7122 0.73688 0.04788 0.0
C93 C 0.71706 0.71934 0.07775 0.0
C94 C 0.7035 0.71182 0.12294 0.0
H95 H 0.66695 0.74488 0.12141 0.0
O96 O 0.59909 0.66628 0.1388 0.0
O97 O 0.63835 0.67699 0.17684 0.0
O98 O 0.61042 0.70541 0.21624 0.0
O99 O 0.65669 0.73206 0.20908 0.0
C100 C 0.73444 0.70864 0.06412 0.0
C101 C 0.73723 0.68997 0.09498 0.0
H102 H 0.73581 0.65305 0.16213 0.0
H103 H 0.7081 0.64025 0.23861 0.0
H104 H 0.68993 0.75941 0.04069 0.0
H105 H 0.72213 0.74323 0.01254 0.0
H106 H 0.74547 0.71434 0.02966 0.0
H107 H 0.75023 0.68148 0.08366 0.0
Mn108 Mn 0.94283 0.60155 0.76949 0.0
Mn109 Mn 0.89422 0.55469 0.84496 0.0
C110 C 0.94392 0.56157 0.78924 0.0
C111 C 0.95838 0.61968 0.69162 0.0
C112 C 0.94403 0.60707 0.881 0.0
O113 O 0.91257 0.61267 0.76893 0.0
O114 O 0.88173 0.57964 0.81827 0.0
C115 C 0.85039 0.52454 0.77117 0.0
N116 N 0.86696 0.5245 0.80792 0.0
C117 C 0.84393 0.47515 0.80828 0.0
C118 C 0.82656 0.47461 0.77048 0.0
C119 C 0.82995 0.49943 0.7516 0.0
C120 C 0.86431 0.5008 0.82555 0.0
H121 H 0.85268 0.54358 0.75709 0.0
C122 C 0.88911 0.6006 0.79085 0.0
O123 O 0.96826 0.63474 0.73037 0.0
O124 O 0.93892 0.59443 0.69791 0.0
N125 N 0.9026 0.5286 0.87404 0.0
C126 C 0.92164 0.53279 0.90939 0.0
C127 C 0.92078 0.51009 0.93284 0.0
C128 C 0.90009 0.4834 0.92029 0.0
C129 C 0.88104 0.47957 0.88317 0.0
C130 C 0.88289 0.50296 0.86118 0.0
H131 H 0.93701 0.5533 0.92028 0.0
O132 O 0.96606 0.58325 0.77371 0.0
O133 O 0.92151 0.56367 0.79226 0.0
O134 O 0.95452 0.61656 0.83913 0.0
O135 O 0.92143 0.58442 0.88678 0.0
C136 C 0.86004 0.45349 0.86758 0.0
C137 C 0.84177 0.45128 0.82967 0.0
H138 H 0.81057 0.45527 0.75567 0.0
H139 H 0.81664 0.4992 0.72241 0.0
H140 H 0.93566 0.51317 0.96122 0.0
H141 H 0.8991 0.46598 0.93934 0.0
H142 H 0.8579 0.43499 0.88419 0.0
H143 H 0.82603 0.43112 0.81744 0.0
Mn144 Mn 0.34382 0.9445 0.25314 0.0
Mn145 Mn 0.2961 0.96507 0.23919 0.0
C146 C 0.33568 0.95548 0.17567 0.0
C147 C 0.38925 0.95336 0.26712 0.0
C148 C 0.28114 0.90589 0.25802 0.0
O149 O 0.33937 0.95554 0.32187 0.0
O150 O 0.31043 0.97243 0.30754 0.0
C151 C 0.32907 0.02522 0.254 0.0
N152 N 0.31172 0.00336 0.22589 0.0
C153 C 0.30507 0.03258 0.16944 0.0
C154 C 0.32277 0.05542 0.19793 0.0
C155 C 0.33497 0.05173 0.2402 0.0
C156 C 0.29997 0.00669 0.18503 0.0
H157 H 0.33815 0.0224 0.28686 0.0
C158 C 0.32597 0.96751 0.33587 0.0
O159 O 0.36787 0.92956 0.27662 0.0
O160 O 0.38423 0.97244 0.25191 0.0
N161 N 0.281 0.95957 0.17479 0.0
C162 C 0.26736 0.93588 0.14862 0.0
C163 C 0.25637 0.93639 0.10267 0.0
C164 C 0.25919 0.96113 0.0845 0.0
C165 C 0.27329 0.98523 0.11222 0.0
C166 C 0.28412 0.98352 0.15741 0.0
H167 H 0.265 0.91682 0.1627 0.0
O168 O 0.34558 0.93897 0.18251 0.0
O169 O 0.33 0.96493 0.21523 0.0
O170 O 0.30572 0.90943 0.25707 0.0
O171 O 0.27575 0.92536 0.2529 0.0
C172 C 0.27745 0.01096 0.09644 0.0
C173 C 0.29312 0.03459 0.12526 0.0
H174 H 0.32748 0.07591 0.1873 0.0
H175 H 0.34874 0.06927 0.26224 0.0
H176 H 0.24563 0.91774 0.08141 0.0
H177 H 0.25067 0.96144 0.04906 0.0
H178 H 0.26914 0.01289 0.06181 0.0
H179 H 0.29666 0.05434 0.11227 0.0
Mn180 Mn 0.4042 0.33874 0.71697 0.0
Mn181 Mn 0.33459 0.29787 0.70862 0.0
C182 C 0.38237 0.33184 0.64198 0.0
C183 C 0.44415 0.38103 0.72876 0.0
C184 C 0.37459 0.27576 0.7191 0.0
O185 O 0.39165 0.33678 0.78718 0.0
O186 O 0.34532 0.30997 0.77767 0.0
C187 C 0.31687 0.33842 0.73386 0.0
N188 N 0.31681 0.31961 0.70225 0.0
C189 C 0.28551 0.32486 0.64797 0.0
C190 C 0.28512 0.34418 0.68006 0.0
C191 C 0.30096 0.35106 0.72308 0.0
C192 C 0.30176 0.31294 0.66063 0.0
H193 H 0.32891 0.3437 0.76708 0.0
C194 C 0.36687 0.32451 0.80411 0.0
O195 O 0.44404 0.35806 0.73576 0.0
O196 O 0.42075 0.37959 0.71654 0.0
N197 N 0.32129 0.28527 0.64404 0.0
C198 C 0.32596 0.2682 0.61498 0.0
C199 C 0.31277 0.26037 0.56938 0.0
C200 C 0.29474 0.26994 0.55436 0.0
C201 C 0.29034 0.28756 0.58483 0.0
C202 C 0.30412 0.29473 0.6298 0.0
H203 H 0.33982 0.26083 0.62634 0.0
O204 O 0.40856 0.33905 0.64484 0.0
O205 O 0.36947 0.32861 0.68338 0.0
O206 O 0.39663 0.29908 0.72088 0.0
O207 O 0.35032 0.27292 0.71412 0.0
C208 C 0.27316 0.29863 0.57205 0.0
C209 C 0.27078 0.31731 0.60355 0.0
H210 H 0.27293 0.35402 0.67182 0.0
H211 H 0.30086 0.36603 0.74794 0.0
H212 H 0.31644 0.24694 0.5459 0.0
H213 H 0.28458 0.26382 0.51918 0.0
H214 H 0.26196 0.29323 0.53777 0.0
H215 H 0.25793 0.32607 0.59288 0.0
Mn216 Mn 0.60934 0.94718 0.26185 0.0
Mn217 Mn 0.67735 0.96758 0.27949 0.0
C218 C 0.62736 0.95739 0.34024 0.0
C219 C 0.57228 0.95536 0.24815 0.0
C220 C 0.63369 0.90834 0.26207 0.0
O221 O 0.62529 0.95947 0.19416 0.0
O222 O 0.6701 0.97191 0.20921 0.0
C223 C 0.70296 0.02688 0.25631 0.0
N224 N 0.6996 0.00644 0.28726 0.0
C225 C 0.73649 0.03846 0.33927 0.0
C226 C 0.74051 0.05985 0.30771 0.0
C227 C 0.72352 0.05406 0.26628 0.0
C228 C 0.71565 0.01183 0.32749 0.0
H229 H 0.69017 0.02245 0.22415 0.0
C230 C 0.65042 0.96883 0.18038 0.0
O231 O 0.5705 0.93198 0.2373 0.0
O232 O 0.59604 0.97446 0.26454 0.0
N233 N 0.68797 0.96535 0.34497 0.0
C234 C 0.67855 0.94309 0.37486 0.0
C235 C 0.69127 0.94584 0.42046 0.0
C236 C 0.71376 0.97132 0.43445 0.0
C237 C 0.72302 0.99396 0.40304 0.0
C238 C 0.70927 0.99005 0.35841 0.0
H239 H 0.66136 0.92348 0.36403 0.0
O240 O 0.60126 0.94025 0.33206 0.0
O241 O 0.64309 0.96766 0.30149 0.0
O242 O 0.61334 0.91264 0.25525 0.0
O243 O 0.65808 0.92736 0.27265 0.0
C244 C 0.74491 0.02038 0.41469 0.0
C245 C 0.75177 0.0426 0.38267 0.0
H246 H 0.75631 0.08084 0.31531 0.0
H247 H 0.7264 0.07048 0.24192 0.0
H248 H 0.68386 0.92834 0.44467 0.0
H249 H 0.72352 0.97336 0.46961 0.0
H250 H 0.75615 0.02398 0.44871 0.0
H251 H 0.76816 0.06294 0.3926 0.0
Mn252 Mn 0.66313 0.60271 0.72966 0.0
Mn253 Mn 0.66747 0.55716 0.65478 0.0
C254 C 0.62337 0.56165 0.70951 0.0
C255 C 0.66428 0.62038 0.80734 0.0
C256 C 0.66744 0.60814 0.61797 0.0
O257 O 0.70493 0.61557 0.73105 0.0
O258 O 0.70459 0.58387 0.68042 0.0
C259 C 0.68398 0.5296 0.72927 0.0
N260 N 0.66637 0.52817 0.69317 0.0
C261 C 0.64208 0.47881 0.69515 0.0
C262 C 0.65993 0.4797 0.73237 0.0
C263 C 0.68081 0.50522 0.74982 0.0
C264 C 0.64562 0.50378 0.67733 0.0
H265 H 0.70044 0.54917 0.74202 0.0
C266 C 0.71735 0.60485 0.70806 0.0
O267 O 0.66906 0.63537 0.76856 0.0
O268 O 0.65975 0.59553 0.80121 0.0
N269 N 0.63339 0.52956 0.62675 0.0
C270 C 0.61828 0.53229 0.59007 0.0
C271 C 0.59664 0.5087 0.56834 0.0
C272 C 0.59149 0.48259 0.58319 0.0
C273 C 0.60772 0.48029 0.62028 0.0
C274 C 0.62842 0.5045 0.64162 0.0
H275 H 0.62279 0.55232 0.57729 0.0
O276 O 0.62148 0.58261 0.72475 0.0
O277 O 0.6484 0.56513 0.70714 0.0
O278 O 0.66626 0.61752 0.65984 0.0
O279 O 0.66808 0.58581 0.61222 0.0
C280 C 0.60467 0.45497 0.63603 0.0
C281 C 0.62141 0.45418 0.67416 0.0
H282 H 0.65792 0.46093 0.74757 0.0
H283 H 0.69471 0.5061 0.77846 0.0
H284 H 0.58433 0.51064 0.53952 0.0
H285 H 0.57519 0.46445 0.56557 0.0
H286 H 0.58923 0.43592 0.61947 0.0
H287 H 0.61846 0.43454 0.68656 0.0
Mn288 Mn 0.06475 0.66529 0.29026 0.0
Mn289 Mn 0.03894 0.70866 0.29514 0.0
C290 C 0.05083 0.67419 0.36446 0.0
C291 C 0.05897 0.62154 0.27967 0.0
C292 C 0.10047 0.72761 0.28255 0.0
O293 O 0.05471 0.66751 0.2195 0.0
O294 O 0.03417 0.69353 0.22781 0.0
C295 C 0.97908 0.67003 0.27829 0.0
N296 N 0.99972 0.68916 0.30683 0.0
C297 C 0.96653 0.6874 0.36567 0.0
C298 C 0.9449 0.66778 0.33679 0.0
C299 C 0.95122 0.659 0.29299 0.0
C300 C 0.99389 0.69774 0.34905 0.0
H301 H 0.98385 0.66325 0.24456 0.0
C302 C 0.04131 0.67881 0.20217 0.0
O303 O 0.08286 0.64337 0.27244 0.0
O304 O 0.03817 0.62497 0.29174 0.0
N305 N 0.0419 0.7241 0.35861 0.0
C306 C 0.06524 0.74129 0.3842 0.0
C307 C 0.06259 0.75079 0.4302 0.0
C308 C 0.03601 0.7427 0.44921 0.0
C309 C 0.0123 0.72503 0.42216 0.0
C310 C 0.01623 0.71618 0.37658 0.0
H311 H 0.08572 0.74755 0.36977 0.0
O312 O 0.06845 0.66521 0.36252 0.0
O313 O 0.04183 0.67771 0.32262 0.0
O314 O 0.09847 0.70404 0.28668 0.0
O315 O 0.07951 0.73142 0.28352 0.0
C316 C 0.98493 0.71548 0.43897 0.0
C317 C 0.96206 0.69667 0.41077 0.0
H318 H 0.92339 0.65911 0.34814 0.0
H319 H 0.93465 0.64376 0.27062 0.0
H320 H 0.08098 0.76432 0.45097 0.0
H321 H 0.03405 0.75 0.48479 0.0
H322 H 0.98123 0.72226 0.47376 0.0
H323 H 0.94113 0.6891 0.42451 0.0
Mn324 Mn 0.3997 0.05865 0.76647 0.0
Mn325 Mn 0.33124 0.03729 0.78112 0.0
C326 C 0.38063 0.04777 0.84412 0.0
C327 C 0.43732 0.05115 0.75411 0.0
C328 C 0.37455 0.09681 0.76525 0.0
O329 O 0.38482 0.04655 0.69827 0.0
O330 O 0.33969 0.03351 0.71129 0.0
C331 C 0.30657 0.97819 0.75714 0.0
N332 N 0.30918 0.99837 0.78804 0.0
C333 C 0.27137 0.96584 0.83802 0.0
C334 C 0.26813 0.94472 0.80652 0.0
C335 C 0.28595 0.9509 0.76613 0.0
C336 C 0.2923 0.99261 0.82724 0.0
H337 H 0.31997 0.98293 0.72572 0.0
C338 C 0.35987 0.03696 0.6834 0.0
O339 O 0.43889 0.07446 0.74335 0.0
O340 O 0.41352 0.03178 0.76988 0.0
N341 N 0.31944 0.03897 0.84597 0.0
C342 C 0.3282 0.06099 0.87622 0.0
C343 C 0.31455 0.05786 0.921 0.0
C344 C 0.29184 0.03224 0.93379 0.0
C345 C 0.28329 0.00985 0.90204 0.0
C346 C 0.29793 0.01414 0.85827 0.0
H347 H 0.34555 0.0807 0.86629 0.0
O348 O 0.40674 0.06528 0.83688 0.0
O349 O 0.36543 0.03756 0.8048 0.0
O350 O 0.39521 0.0929 0.75934 0.0
O351 O 0.35015 0.07752 0.77495 0.0
C352 C 0.26128 0.98329 0.91261 0.0
C353 C 0.25521 0.96132 0.88046 0.0
H354 H 0.25229 0.92364 0.81336 0.0
H355 H 0.28367 0.93469 0.74181 0.0
H356 H 0.32142 0.07517 0.94548 0.0
H357 H 0.28137 0.02991 0.96833 0.0
H358 H 0.2494 0.97937 0.94599 0.0
H359 H 0.23873 0.94086 0.8896 0.0
Mn360 Mn 0.34442 0.4025 0.23534 0.0
Mn361 Mn 0.34065 0.44771 0.15843 0.0
C362 C 0.38463 0.44283 0.21389 0.0
C363 C 0.34319 0.38543 0.31367 0.0
C364 C 0.3398 0.39596 0.12378 0.0
O365 O 0.30282 0.39039 0.23706 0.0
O366 O 0.30346 0.4216 0.18482 0.0
C367 C 0.32503 0.4766 0.23173 0.0
N368 N 0.34213 0.47736 0.19522 0.0
C369 C 0.36709 0.52675 0.1954 0.0
C370 C 0.34974 0.52655 0.23297 0.0
C371 C 0.32874 0.50135 0.25144 0.0
C372 C 0.36277 0.50145 0.17796 0.0
H373 H 0.30864 0.45727 0.24554 0.0
C374 C 0.29058 0.40102 0.21333 0.0
O375 O 0.33796 0.37002 0.27539 0.0
O376 O 0.34821 0.41039 0.30669 0.0
N377 N 0.3747 0.47471 0.12939 0.0
C378 C 0.39001 0.47126 0.09395 0.0
C379 C 0.41139 0.4944 0.07067 0.0
C380 C 0.41647 0.52077 0.0835 0.0
C381 C 0.40078 0.52385 0.12068 0.0
C382 C 0.3797 0.50004 0.14244 0.0
H383 H 0.38559 0.45098 0.08288 0.0
O384 O 0.38591 0.42164 0.22981 0.0
O385 O 0.3598 0.44002 0.21138 0.0
O386 O 0.34076 0.38682 0.16602 0.0
O387 O 0.3396 0.41844 0.1172 0.0
C388 C 0.40494 0.54957 0.13653 0.0
C389 C 0.38838 0.55104 0.17436 0.0
H390 H 0.35234 0.5456 0.2479 0.0
H391 H 0.31526 0.50101 0.28044 0.0
H392 H 0.42357 0.4919 0.04223 0.0
H393 H 0.43252 0.53851 0.06455 0.0
H394 H 0.42097 0.56838 0.12015 0.0
H395 H 0.39208 0.57094 0.18676 0.0
Mn396 Mn 0.94212 0.33967 0.78978 0.0
Mn397 Mn 0.96935 0.29753 0.79837 0.0
C398 C 0.95617 0.33192 0.86493 0.0
C399 C 0.94644 0.3828 0.77823 0.0
C400 C 0.90747 0.27675 0.7873 0.0
O401 O 0.95294 0.33774 0.71979 0.0
O402 O 0.97125 0.30988 0.72927 0.0
C403 C 0.02798 0.3372 0.77362 0.0
N404 N 0.00891 0.31858 0.80509 0.0
C405 C 0.04496 0.32315 0.85995 0.0
C406 C 0.065 0.34226 0.828 0.0
C407 C 0.05646 0.34939 0.78474 0.0
C408 C 0.01689 0.31166 0.84691 0.0
H409 H 0.02155 0.34269 0.74024 0.0
C410 C 0.96492 0.32498 0.70287 0.0
O411 O 0.92302 0.36049 0.77065 0.0
O412 O 0.9676 0.38021 0.79126 0.0
N413 N 0.96953 0.28468 0.863 0.0
C414 C 0.94755 0.26798 0.89197 0.0
C415 C 0.95251 0.26004 0.93782 0.0
C416 C 0.97996 0.26915 0.95321 0.0
C417 C 1.00224 0.28641 0.92284 0.0
C418 C 0.99603 0.2937 0.87759 0.0
H419 H 0.92644 0.26104 0.88041 0.0
O420 O 0.93766 0.33974 0.86185 0.0
O421 O 0.96583 0.32856 0.82365 0.0
O422 O 0.90928 0.30033 0.78514 0.0
O423 O 0.92858 0.2734 0.79261 0.0
C424 C 0.03037 0.29705 0.93601 0.0
C425 C 0.05171 0.31544 0.90464 0.0
H426 H 0.08698 0.35178 0.83653 0.0
H427 H 0.07179 0.36421 0.75999 0.0
H428 H 0.93521 0.24691 0.96124 0.0
H429 H 0.98369 0.26299 0.98861 0.0
H430 H 0.03584 0.29154 0.97051 0.0
H431 H 0.07325 0.32389 0.9156 0.0
C432 C 0.03232 0.39385 0.11291 0.0
C433 C 0.03664 0.37645 0.14403 0.0
C434 C 0.01902 0.38449 0.06772 0.0
C435 C 0.01092 0.35739 0.05228 0.0
C436 C 0.01596 0.33997 0.08311 0.0
C437 C 0.02828 0.34954 0.12913 0.0
C438 C 0.013 0.4034 0.03707 0.0
C439 C 0.00874 0.31142 0.0672 0.0
C440 C 0.9543 0.32721 0.95539 0.0
C441 C 0.97 0.33444 0.91234 0.0
C442 C 0.9673 0.3337 1.0013 0.0
C443 C 0.99676 0.34741 1.00421 0.0
C444 C 0.01267 0.35392 0.96075 0.0
C445 C 0.9991 0.34805 0.91537 0.0
C446 C 0.94955 0.32732 0.04653 0.0
C447 C 0.04405 0.36792 0.96218 0.0
H448 H 0.03844 0.41455 0.12477 0.0
H449 H 0.03175 0.33615 0.15317 0.0
H450 H 0.02393 0.4074 1.00153 0.0
H451 H 0.99036 0.39349 0.02926 0.0
H452 H 0.01959 0.42341 0.05528 0.0
H453 H 0.01294 0.30003 0.09611 0.0
H454 H 0.9865 0.29945 0.05665 0.0
H455 H 0.02122 0.31286 0.03454 0.0
H456 H 0.93179 0.31735 0.95306 0.0
H457 H 0.01133 0.35498 0.88222 0.0
H458 H 0.95408 0.34678 0.06484 0.0
H459 H 0.95458 0.31533 0.07279 0.0
H460 H 0.92693 0.31555 0.03818 0.0
H461 H 0.05266 0.38853 0.97902 0.0
H462 H 0.05328 0.37039 0.92525 0.0
H463 H 0.05069 0.35583 0.98512 0.0
C464 C 0.61622 0.95786 0.42841 0.0
C465 C 0.63506 0.96998 0.38964 0.0
C466 C 0.62045 0.97112 0.47358 0.0
C467 C 0.64579 0.99574 0.48246 0.0
C468 C 0.66493 0.00803 0.44352 0.0
C469 C 0.6583 0.99587 0.39703 0.0
C470 C 0.59681 0.95891 0.51 0.0
C471 C 0.69248 0.03394 0.45073 0.0
C472 C 0.66086 0.04736 0.58471 0.0
C473 C 0.66671 0.03502 0.62419 0.0
C474 C 0.65211 0.03402 0.53955 0.0
C475 C 0.65213 0.00897 0.53166 0.0
C476 C 0.65785 0.99634 0.57147 0.0
C477 C 0.66328 0.00875 0.61773 0.0
C478 C 0.64191 0.04674 0.50188 0.0
C479 C 0.65827 0.96973 0.56544 0.0
H480 H 0.59717 0.93856 0.4228 0.0
H481 H 0.6709 0.00703 0.36628 0.0
H482 H 0.59225 0.93787 0.51999 0.0
H483 H 0.60081 0.9713 0.54362 0.0
H484 H 0.57766 0.95676 0.49264 0.0
H485 H 0.70417 0.04146 0.41615 0.0
H486 H 0.6896 0.05073 0.46548 0.0
H487 H 0.7052 0.02997 0.47744 0.0
H488 H 0.6617 0.06698 0.58964 0.0
H489 H 0.66413 0.99756 0.64901 0.0
H490 H 0.6333 0.03409 0.4686 0.0
H491 H 0.65917 0.06732 0.49146 0.0
H492 H 0.6254 0.05008 0.51824 0.0
H493 H 0.63805 0.95321 0.55196 0.0
H494 H 0.66247 0.96246 0.60028 0.0
H495 H 0.67436 0.97253 0.53819 0.0
C496 C 0.62825 0.67901 0.04521 0.0
C497 C 0.63664 0.67153 0.08807 0.0
C498 C 0.63475 0.67267 0.99914 0.0
C499 C 0.6504 0.65887 0.99586 0.0
C500 C 0.6597 0.65209 0.03913 0.0
C501 C 0.65202 0.6578 0.08467 0.0
C502 C 0.62346 0.6793 0.95411 0.0
C503 C 0.67699 0.638 0.03731 0.0
C504 C 0.63982 0.61278 0.88673 0.0
C505 C 0.66167 0.63025 0.85592 0.0
C506 C 0.63567 0.62205 0.93188 0.0
C507 C 0.65461 0.6491 0.94759 0.0
C508 C 0.67716 0.66662 0.91698 0.0
C509 C 0.68009 0.65715 0.87098 0.0
C510 C 0.61063 0.60305 0.96224 0.0
C511 C 0.69847 0.69511 0.93321 0.0
H512 H 0.6157 0.68896 0.04782 0.0
H513 H 0.65722 0.65066 0.11764 0.0
H514 H 0.64051 0.69138 0.92795 0.0
H515 H 0.60852 0.65994 0.93554 0.0
H516 H 0.61264 0.69107 0.96275 0.0
H517 H 0.68365 0.63528 0.07415 0.0
H518 H 0.66496 0.61749 0.02012 0.0
H519 H 0.69577 0.65015 0.01451 0.0
H520 H 0.62536 0.59208 0.87471 0.0
H521 H 0.69708 0.67059 0.84714 0.0
H522 H 0.59801 0.61304 0.97041 0.0
H523 H 0.61743 0.59874 0.99761 0.0
H524 H 0.59714 0.58319 0.94363 0.0
H525 H 0.68819 0.70696 0.94449 0.0
H526 H 0.71393 0.70671 0.90422 0.0
H527 H 0.70968 0.69351 0.96546 0.0
C528 C 0.00784 0.65883 0.41435 0.0
C529 C 0.03696 0.67264 0.41139 0.0
C530 C 0.99423 0.65323 0.45969 0.0
C531 C 0.0101 0.66023 0.50317 0.0
C532 C 0.03957 0.67452 0.50031 0.0
C533 C 0.05262 0.68067 0.45442 0.0
C534 C 0.96283 0.63887 0.46113 0.0
C535 C 0.0573 0.68194 0.54568 0.0
C536 C 0.97807 0.65678 0.62827 0.0
C537 C 0.97046 0.62999 0.6429 0.0
C538 C 0.99036 0.66679 0.58234 0.0
C539 C 0.99602 0.64989 0.55123 0.0
C540 C 0.98867 0.62293 0.56644 0.0
C541 C 0.97544 0.61313 0.61159 0.0
C542 C 0.99641 0.69506 0.56675 0.0
C543 C 0.9954 0.6046 0.53554 0.0
H544 H 0.99566 0.65141 0.38125 0.0
H545 H 0.07515 0.6908 0.45214 0.0
H546 H 0.95448 0.61828 0.47799 0.0
H547 H 0.95595 0.65077 0.48406 0.0
H548 H 0.95361 0.6363 0.4242 0.0
H549 H 0.07991 0.69389 0.53731 0.0
H550 H 0.0519 0.69417 0.57073 0.0
H551 H 0.05308 0.66291 0.56531 0.0
H552 H 0.97397 0.66972 0.65241 0.0
H553 H 0.96986 0.59252 0.62324 0.0
H554 H 0.97989 0.69285 0.54116 0.0
H555 H 0.01662 0.70626 0.54736 0.0
H556 H 0.99657 0.70763 0.59824 0.0
H557 H 0.98434 0.60034 0.50012 0.0
H558 H 0.98944 0.58468 0.55365 0.0
H559 H 0.01805 0.61513 0.52754 0.0
C560 C 0.34892 0.00907 0.90005 0.0
C561 C 0.37255 0.03474 0.8932 0.0
C562 C 0.34178 0.99664 0.9463 0.0
C563 C 0.36085 0.00826 0.98546 0.0
C564 C 0.38662 0.03249 0.97703 0.0
C565 C 0.39132 0.0462 0.93221 0.0
C566 C 0.31371 0.97127 0.95302 0.0
C567 C 0.41015 0.04388 0.01366 0.0
C568 C 0.34351 0.99476 0.12075 0.0
C569 C 0.33961 0.96827 0.12666 0.0
C570 C 0.34889 0.00737 0.07463 0.0
C571 C 0.35409 0.99464 0.03434 0.0
C572 C 0.35344 0.96922 0.04152 0.0
C573 C 0.34468 0.95574 0.08657 0.0
C574 C 0.34904 0.03431 0.06931 0.0
C575 C 0.36293 0.95621 1.00316 0.0
H576 H 0.33641 0.99829 0.86906 0.0
H577 H 0.41067 0.06528 0.92707 0.0
H578 H 0.31553 0.95429 0.9698 0.0
H579 H 0.30084 0.97613 0.97787 0.0
H580 H 0.30266 0.96357 0.91794 0.0
H581 H 0.42926 0.04604 0.99608 0.0
H582 H 0.41495 0.06485 0.02472 0.0
H583 H 0.40585 0.03096 0.04666 0.0
H584 H 0.34337 0.00607 0.15235 0.0
H585 H 0.3434 0.93589 0.091 0.0
H586 H 0.33202 0.03151 0.04432 0.0
H587 H 0.36876 0.05035 0.05333 0.0
H588 H 0.34654 0.04227 0.10479 0.0
H589 H 0.3451 0.93617 0.99194 0.0
H590 H 0.37874 0.95172 0.01915 0.0
H591 H 0.37213 0.96919 0.97039 0.0
C592 C 0.36769 0.39336 0.39312 0.0
C593 C 0.34575 0.37583 0.36258 0.0
C594 C 0.37188 0.38423 0.4384 0.0
C595 C 0.35289 0.35726 0.45453 0.0
C596 C 0.33021 0.33972 0.42424 0.0
C597 C 0.32724 0.34904 0.37811 0.0
C598 C 0.39706 0.40324 0.46839 0.0
C599 C 0.30886 0.31133 0.44087 0.0
C600 C 0.37931 0.32705 0.55154 0.0
C601 C 0.37112 0.33454 0.59461 0.0
C602 C 0.37278 0.33354 0.50563 0.0
C603 C 0.35728 0.34752 0.50272 0.0
C604 C 0.34822 0.35435 0.54621 0.0
C605 C 0.35593 0.34847 0.59159 0.0
C606 C 0.38384 0.32684 0.46036 0.0
C607 C 0.33109 0.36863 0.5448 0.0
H608 H 0.38223 0.41398 0.38075 0.0
H609 H 0.31018 0.33555 0.3545 0.0
H610 H 0.39044 0.40756 0.50394 0.0
H611 H 0.40971 0.39324 0.47622 0.0
H612 H 0.41046 0.42309 0.44964 0.0
H613 H 0.29313 0.29978 0.41228 0.0
H614 H 0.31908 0.29934 0.45168 0.0
H615 H 0.29799 0.31308 0.47351 0.0
H616 H 0.39171 0.31693 0.55384 0.0
H617 H 0.35087 0.35561 0.62473 0.0
H618 H 0.39866 0.34616 0.44152 0.0
H619 H 0.36664 0.3147 0.43454 0.0
H620 H 0.39472 0.3151 0.46876 0.0
H621 H 0.34316 0.38912 0.52753 0.0
H622 H 0.32462 0.3714 0.58177 0.0
H623 H 0.3122 0.35656 0.52225 0.0
C624 C 0.94792 0.61175 0.97189 0.0
C625 C 0.95956 0.62173 0.92568 0.0
C626 C 0.96302 0.62341 0.01472 0.0
C627 C 0.99053 0.64573 0.01162 0.0
C628 C 1.00221 0.65649 0.96531 0.0
C629 C 0.9866 0.64437 0.92285 0.0
C630 C 0.94971 0.61133 0.06337 0.0
C631 C 0.03144 0.68037 0.96058 0.0
C632 C 0.01732 0.6855 0.12992 0.0
C633 C 0.03158 0.673 0.15067 0.0
C634 C 0.00509 0.67786 0.08353 0.0
C635 C 0.00703 0.65713 0.05716 0.0
C636 C 0.02251 0.64538 0.07676 0.0
C637 C 0.03464 0.65348 0.12318 0.0
C638 C 0.9889 0.69101 0.06383 0.0
C639 C 0.02508 0.6232 0.04979 0.0
H640 H 0.92706 0.59435 0.97476 0.0
H641 H 0.99587 0.65224 0.88746 0.0
H642 H 0.96187 0.60318 0.08236 0.0
H643 H 0.94987 0.6275 0.08698 0.0
H644 H 0.92787 0.59444 0.05956 0.0
H645 H 0.03693 0.68735 0.92221 0.0
H646 H 0.03385 0.6979 0.98303 0.0
H647 H 0.04652 0.67435 0.97458 0.0
H648 H 0.01494 0.70075 0.15051 0.0
H649 H 0.04563 0.6437 0.13861 0.0
H650 H 0.96638 0.67566 0.06332 0.0
H651 H 0.99523 0.698 0.02573 0.0
H652 H 0.99191 0.70883 0.08618 0.0
H653 H 0.00438 0.60437 0.04785 0.0
H654 H 0.03987 0.61795 0.06782 0.0
H655 H 0.03215 0.62976 0.01179 0.0
C656 C 0.32391 0.99838 0.40004 0.0
C657 C 0.32928 0.97715 0.38718 0.0
C658 C 0.32827 0.00869 0.44786 0.0
C659 C 0.33764 0.99711 0.48406 0.0
C660 C 0.34248 0.97524 0.47162 0.0
C661 C 0.33853 0.96573 0.42326 0.0
C662 C 0.32339 0.03237 0.45939 0.0
C663 C 0.35198 0.96198 0.50937 0.0
C664 C 0.37507 0.0385 0.59675 0.0
C665 C 0.35372 0.02805 0.63173 0.0
C666 C 0.36996 0.02906 0.54835 0.0
C667 C 0.34297 0.00823 0.53473 0.0
C668 C 0.32126 0.99776 0.56972 0.0
C669 C 0.32681 0.00802 0.61763 0.0
C670 C 0.39354 0.0412 0.5119 0.0
C671 C 0.29233 0.97522 0.55688 0.0
H672 H 0.31691 0.00745 0.37242 0.0
H673 H 0.34256 0.9492 0.41376 0.0
H674 H 0.30771 0.0265 0.48888 0.0
H675 H 0.34297 0.05011 0.47284 0.0
H676 H 0.31608 0.03906 0.42713 0.0
H677 H 0.35356 0.94437 0.49434 0.0
H678 H 0.37265 0.97731 0.52384 0.0
H679 H 0.33725 0.95462 0.54058 0.0
H680 H 0.39587 0.05411 0.60723 0.0
H681 H 0.31021 0.99971 0.64442 0.0
H682 H 0.3875 0.04912 0.47974 0.0
H683 H 0.39803 0.02505 0.49866 0.0
H684 H 0.41293 0.0582 0.52768 0.0
H685 H 0.28389 0.98182 0.52623 0.0
H686 H 0.27772 0.96939 0.58821 0.0
H687 H 0.29314 0.95674 0.54455 0.0
C688 C 0.33549 0.31699 0.87579 0.0
C689 C 0.36247 0.32935 0.85596 0.0
C690 C 0.33054 0.32432 0.92223 0.0
C691 C 0.35306 0.34459 0.94955 0.0
C692 C 0.3805 0.356 0.93101 0.0
C693 C 0.38488 0.34821 0.88456 0.0
C694 C 0.301 0.3115 0.94082 0.0
C695 C 0.40512 0.37767 0.95896 0.0
C696 C 0.33977 0.39097 0.03302 0.0
C697 C 0.34079 0.381 0.07959 0.0
C698 C 0.34322 0.37894 0.99067 0.0
C699 C 0.3477 0.3562 0.99458 0.0
C700 C 0.34793 0.34542 0.04123 0.0
C701 C 0.34451 0.35796 0.08322 0.0
C702 C 0.34279 0.3911 0.94166 0.0
C703 C 0.35248 0.32109 0.04682 0.0
H704 H 0.31798 0.30225 0.85434 0.0
H705 H 0.40584 0.35785 0.8699 0.0
H706 H 0.29977 0.30463 0.97915 0.0
H707 H 0.29405 0.32703 0.94028 0.0
H708 H 0.28635 0.29368 0.91833 0.0
H709 H 0.42528 0.38244 0.94196 0.0
H710 H 0.40384 0.39684 0.96039 0.0
H711 H 0.40483 0.37093 0.9971 0.0
H712 H 0.33685 0.40867 0.02949 0.0
H713 H 0.34537 0.35006 0.11889 0.0
H714 H 0.32683 0.37509 0.91776 0.0
H715 H 0.36324 0.39885 0.92336 0.0
H716 H 0.33826 0.40831 0.9448 0.0
H717 H 0.33744 0.30376 0.0239 0.0
H718 H 0.35021 0.31401 0.08526 0.0
H719 H 0.37367 0.32665 0.03395 0.0
C720 C 0.97089 0.34878 0.62243 0.0
C721 C 0.97434 0.32985 0.65111 0.0
C722 C 0.98312 0.35656 0.57603 0.0
C723 C 0.99911 0.3451 0.55757 0.0
C724 C 1.00132 0.32481 0.58498 0.0
C725 C 0.98897 0.31748 0.63141 0.0
C726 C 0.98023 0.37826 0.54798 0.0
C727 C 0.01799 0.31194 0.56646 0.0
C728 C 0.02039 0.35854 0.42364 0.0
C729 C 0.04703 0.38174 0.42691 0.0
C730 C 0.00474 0.34582 0.46585 0.0
C731 C 0.01597 0.3566 0.51236 0.0
C732 C 0.04317 0.37941 0.51592 0.0
C733 C 0.05832 0.39162 0.47333 0.0
C734 C 0.97589 0.32141 0.46062 0.0
C735 C 0.05599 0.39156 0.56477 0.0
H736 H 0.95956 0.35842 0.63697 0.0
H737 H 0.99169 0.30272 0.65294 0.0
H738 H 1.00074 0.39734 0.54615 0.0
H739 H 0.97355 0.3714 0.50997 0.0
H740 H 0.96502 0.38323 0.56513 0.0
H741 H 0.01482 0.29414 0.58908 0.0
H742 H 0.0123 0.305 0.52819 0.0
H743 H 0.04047 0.32744 0.56686 0.0
H744 H 0.0114 0.3507 0.38809 0.0
H745 H 0.07889 0.40943 0.47657 0.0
H746 H 0.96025 0.32702 0.4732 0.0
H747 H 0.97364 0.30422 0.48394 0.0
H748 H 0.97106 0.31412 0.42231 0.0
H749 H 0.04347 0.39949 0.5832 0.0
H750 H 0.07777 0.40864 0.56136 0.0
H751 H 0.05586 0.3755 0.58869 0.0
C752 C 0.68986 0.00922 0.89772 0.0
C753 C 0.6832 0.02956 0.88471 0.0
C754 C 0.68579 0.99892 0.9456 0.0
C755 C 0.67549 0.00971 0.9817 0.0
C756 C 0.66978 0.03101 0.96922 0.0
C757 C 0.67339 0.04043 0.92082 0.0
C758 C 0.69159 0.97583 0.95713 0.0
C759 C 0.65939 0.04353 0.00684 0.0
C760 C 0.63673 0.9672 0.09276 0.0
C761 C 0.65742 0.97788 0.12886 0.0
C762 C 0.64259 0.97679 0.04446 0.0
C763 C 0.66963 0.99806 0.03208 0.0
C764 C 0.69069 0.00872 0.0682 0.0
C765 C 0.68444 0.99826 0.11598 0.0
C766 C 0.61969 0.9644 0.00682 0.0
C767 C 0.71961 0.03179 0.05677 0.0
H768 H 0.69735 1.0006 0.87007 0.0
H769 H 0.6684 0.05631 0.91121 0.0
H770 H 0.70657 0.98172 0.98776 0.0
H771 H 0.67206 0.95742 0.96893 0.0
H772 H 0.70015 0.97015 0.92529 0.0
H773 H 0.65783 0.06122 0.9921 0.0
H774 H 0.63853 0.02784 0.02004 0.0
H775 H 0.67353 0.05059 0.03884 0.0
H776 H 0.61587 0.95131 0.1023 0.0
H777 H 0.70053 0.00673 0.14364 0.0
H778 H 0.62671 0.95725 0.97484 0.0
H779 H 0.61469 0.9802 0.99358 0.0
H780 H 0.60036 0.9468 0.02154 0.0
H781 H 0.72874 0.02587 0.02621 0.0
H782 H 0.73379 0.03745 0.08867 0.0
H783 H 0.71853 0.0502 0.04488 0.0
C784 C 0.67246 0.68654 0.36871 0.0
C785 C 0.64545 0.67469 0.34921 0.0
C786 C 0.67732 0.67893 0.41498 0.0
C787 C 0.65466 0.65892 0.44247 0.0
C788 C 0.62722 0.64796 0.4242 0.0
C789 C 0.62295 0.65599 0.37791 0.0
C790 C 0.70686 0.69125 0.43328 0.0
C791 C 0.60247 0.62657 0.45236 0.0
C792 C 0.667 0.6123 0.52704 0.0
C793 C 0.66635 0.62274 0.57333 0.0
C794 C 0.66373 0.62423 0.48437 0.0
C795 C 0.65978 0.64731 0.48773 0.0
C796 C 0.65985 0.65849 0.53411 0.0
C797 C 0.6631 0.64606 0.57638 0.0
C798 C 0.66381 0.61164 0.43566 0.0
C799 C 0.65584 0.68318 0.5391 0.0
H800 H 0.69004 0.7011 0.34714 0.0
H801 H 0.60196 0.64674 0.36352 0.0
H802 H 0.70836 0.69844 0.47144 0.0
H803 H 0.71329 0.67533 0.43315 0.0
H804 H 0.72175 0.70876 0.4104 0.0
H805 H 0.58237 0.62198 0.43534 0.0
H806 H 0.60346 0.60726 0.45416 0.0
H807 H 0.60286 0.63352 0.49038 0.0
H808 H 0.66954 0.59435 0.52397 0.0
H809 H 0.66254 0.65434 0.61184 0.0
H810 H 0.67988 0.62735 0.41144 0.0
H811 H 0.64337 0.60411 0.41748 0.0
H812 H 0.66795 0.5942 0.43921 0.0
H813 H 0.67117 0.70031 0.51611 0.0
H814 H 0.65809 0.69041 0.57743 0.0
H815 H 0.6348 0.67797 0.52593 0.0
C816 C 0.06624 0.58762 0.3248 0.0
C817 C 0.05686 0.59441 0.28261 0.0
C818 C 0.06547 0.56231 0.32904 0.0
C819 C 0.05575 0.5436 0.28951 0.0
C820 C 0.04553 0.5502 0.24704 0.0
C821 C 0.04613 0.57563 0.24414 0.0
C822 C 0.07628 0.55641 0.37517 0.0
C823 C 0.03439 0.53062 0.2045 0.0
C824 C 0.08268 0.49311 0.27474 0.0
C825 C 0.06114 0.46915 0.29539 0.0
C826 C 0.08148 0.51761 0.27366 0.0
C827 C 0.05754 0.51783 0.29173 0.0
C828 C 0.03545 0.49348 0.31185 0.0
C829 C 0.03754 0.46944 0.31348 0.0
C830 C 0.10573 0.54319 0.25277 0.0
C831 C 0.00951 0.49278 0.33119 0.0
H832 H 0.07441 0.60228 0.35455 0.0
H833 H 0.03873 0.58103 0.21162 0.0
H834 H 0.0639 0.53448 0.38566 0.0
H835 H 0.09803 0.56136 0.36867 0.0
H836 H 0.07622 0.5692 0.40612 0.0
H837 H 0.02566 0.53804 0.1755 0.0
H838 H 0.0513 0.52785 0.18847 0.0
H839 H 0.0179 0.51014 0.21709 0.0
H840 H 0.10026 0.49255 0.25841 0.0
H841 H 0.02055 0.45071 0.32842 0.0
H842 H 0.11388 0.55977 0.28053 0.0
H843 H 0.09877 0.55057 0.22107 0.0
H844 H 0.12296 0.53968 0.24084 0.0
H845 H 0.01501 0.50781 0.36134 0.0
H846 H 0.994 0.47212 0.34489 0.0
H847 H 0.9997 0.49888 0.30203 0.0
C848 C 0.46403 0.02878 0.78418 0.0
C849 C 0.46228 0.04778 0.75309 0.0
C850 C 0.48876 0.0275 0.78794 0.0
C851 C 0.51204 0.04516 0.75895 0.0
C852 C 0.50996 0.0636 0.72602 0.0
C853 C 0.48523 0.06497 0.72401 0.0
C854 C 0.4903 0.00802 0.82427 0.0
C855 C 0.53404 0.08227 0.69354 0.0
C856 C 0.58586 0.06529 0.79758 0.0
C857 C 0.59133 0.04776 0.76895 0.0
C858 C 0.55975 0.06391 0.79608 0.0
C859 C 0.5389 0.04508 0.76411 0.0
C860 C 0.54418 0.02699 0.73575 0.0
C861 C 0.57022 0.02831 0.73899 0.0
C862 C 0.55472 0.08305 0.82791 0.0
C863 C 0.52277 0.00705 0.70044 0.0
H864 H 0.44642 0.01567 0.80715 0.0
H865 H 0.48392 0.07963 0.69985 0.0
H866 H 0.49666 0.99434 0.80579 0.0
H867 H 0.50638 0.01988 0.85213 0.0
H868 H 0.47013 0.99511 0.84309 0.0
H869 H 0.52839 0.09392 0.66746 0.0
H870 H 0.55173 0.09715 0.71616 0.0
H871 H 0.54139 0.07009 0.67258 0.0
H872 H 0.60211 0.0803 0.82087 0.0
H873 H 0.57446 0.01491 0.71635 0.0
H874 H 0.53527 0.07124 0.84927 0.0
H875 H 0.55198 0.09781 0.80476 0.0
H876 H 0.57218 0.09485 0.85358 0.0
H877 H 0.50285 0.99381 0.71959 0.0
H878 H 0.52972 0.99372 0.6823 0.0
H879 H 0.51849 0.01859 0.67196 0.0
C880 C 0.53174 0.57692 0.2575 0.0
C881 C 0.53889 0.59629 0.22015 0.0
C882 C 0.50671 0.55166 0.25527 0.0
C883 C 0.48888 0.54567 0.21435 0.0
C884 C 0.49681 0.56508 0.17601 0.0
C885 C 0.52148 0.59029 0.17976 0.0
C886 C 0.49922 0.5315 0.29677 0.0
C887 C 0.47899 0.55971 0.13149 0.0
C888 C 0.43449 0.47107 0.18964 0.0
C889 C 0.41046 0.46962 0.20973 0.0
C890 C 0.46008 0.49573 0.1904 0.0
C891 C 0.46171 0.51947 0.21208 0.0
C892 C 0.43736 0.51809 0.23203 0.0
C893 C 0.41216 0.49306 0.23134 0.0
C894 C 0.48547 0.49631 0.16856 0.0
C895 C 0.43801 0.54294 0.25483 0.0
H896 H 0.54548 0.58172 0.28863 0.0
H897 H 0.5273 0.60539 0.15083 0.0
H898 H 0.47939 0.52774 0.31373 0.0
H899 H 0.4959 0.5115 0.28279 0.0
H900 H 0.5156 0.53895 0.32534 0.0
H901 H 0.49033 0.57434 0.10144 0.0
H902 H 0.47124 0.5385 0.11797 0.0
H903 H 0.46089 0.56205 0.14165 0.0
H904 H 0.43328 0.45276 0.17378 0.0
H905 H 0.39389 0.49164 0.24881 0.0
H906 H 0.50171 0.50196 0.19695 0.0
H907 H 0.49439 0.51219 0.13958 0.0
H908 H 0.48067 0.47619 0.15263 0.0
H909 H 0.41716 0.5386 0.26783 0.0
H910 H 0.44573 0.55995 0.22792 0.0
H911 H 0.45264 0.55018 0.28613 0.0
C912 C 0.96691 0.53431 0.81165 0.0
C913 C 0.9438 0.53514 0.79258 0.0
C914 C 0.96855 0.51002 0.81022 0.0
C915 C 0.94654 0.48599 0.78911 0.0
C916 C 0.92307 0.48676 0.7701 0.0
C917 C 0.92226 0.51147 0.7712 0.0
C918 C 0.99395 0.51012 0.83084 0.0
C919 C 0.89893 0.46155 0.74805 0.0
C920 C 0.95904 0.42866 0.74256 0.0
C921 C 0.9476 0.40954 0.78046 0.0
C922 C 0.95922 0.4539 0.74511 0.0
C923 C 0.94801 0.46005 0.78679 0.0
C924 C 0.93743 0.44093 0.82569 0.0
C925 C 0.93698 0.41577 0.82171 0.0
C926 C 0.97112 0.47384 0.70314 0.0
C927 C 0.92561 0.4464 0.87098 0.0
H928 H 0.98387 0.55281 0.82724 0.0
H929 H 0.90503 0.51244 0.75432 0.0
H930 H 0.98771 0.49464 0.8604 0.0
H931 H 0.0042 0.5043 0.80205 0.0
H932 H 0.00933 0.53052 0.84569 0.0
H933 H 0.88206 0.46545 0.73552 0.0
H934 H 0.90622 0.45434 0.71655 0.0
H935 H 0.89018 0.44469 0.77531 0.0
H936 H 0.9674 0.42369 0.71079 0.0
H937 H 0.9283 0.40086 0.85104 0.0
H938 H 0.98768 0.49408 0.71649 0.0
H939 H 0.95462 0.47709 0.68668 0.0
H940 H 0.98 0.46647 0.67431 0.0
H941 H 0.93842 0.46802 0.88299 0.0
H942 H 0.92402 0.43268 0.90158 0.0
H943 H 0.90442 0.44259 0.86247 0.0
C944 C 0.43852 0.9772 0.23783 0.0
C945 C 0.41787 0.9575 0.26821 0.0
C946 C 0.46472 0.97896 0.2334 0.0
C947 C 0.47064 0.96105 0.26098 0.0
C948 C 0.45027 0.94198 0.29342 0.0
C949 C 0.424 0.94017 0.29612 0.0
C950 C 0.48559 0.99915 0.19764 0.0
C951 C 0.456 0.92302 0.32444 0.0
C952 C 0.52438 0.94181 0.2184 0.0
C953 C 0.54745 0.95894 0.24723 0.0
C954 C 0.49962 0.94308 0.22113 0.0
C955 C 0.49763 0.96138 0.25452 0.0
C956 C 0.52107 0.97909 0.28306 0.0
C957 C 0.54582 0.9779 0.2786 0.0
C958 C 0.47536 0.92437 0.1891 0.0
C959 C 0.51965 0.99844 0.31984 0.0
H960 H 0.43377 0.99044 0.21574 0.0
H961 H 0.40811 0.92496 0.31973 0.0
H962 H 0.5057 0.01248 0.21614 0.0
H963 H 0.48968 0.98782 0.16851 0.0
H964 H 0.47823 0.01239 0.1804 0.0
H965 H 0.43887 0.91099 0.35063 0.0
H966 H 0.45874 0.90846 0.30074 0.0
H967 H 0.47563 0.935 0.34518 0.0
H968 H 0.52559 0.92718 0.19403 0.0
H969 H 0.56351 0.99097 0.3014 0.0
H970 H 0.46756 0.93643 0.16899 0.0
H971 H 0.45799 0.9092 0.21201 0.0
H972 H 0.481 0.91303 0.1623 0.0
H973 H 0.51269 0.01181 0.30202 0.0
H974 H 0.54002 0.01164 0.33779 0.0
H975 H 0.50406 0.98642 0.34835 0.0
C976 C 0.57667 0.52773 0.67672 0.0
C977 C 0.5984 0.53421 0.70959 0.0
C978 C 0.55192 0.5023 0.67926 0.0
C979 C 0.54795 0.48399 0.71816 0.0
C980 C 0.5697 0.49096 0.75234 0.0
C981 C 0.59496 0.51565 0.74677 0.0
C982 C 0.53016 0.49497 0.64014 0.0
C983 C 0.56601 0.47278 0.79563 0.0
C984 C 0.47228 0.43147 0.74701 0.0
C985 C 0.47054 0.4073 0.72876 0.0
C986 C 0.49762 0.45648 0.7454 0.0
C987 C 0.52123 0.45745 0.72279 0.0
C988 C 0.51919 0.43296 0.70407 0.0
C989 C 0.49411 0.40817 0.70812 0.0
C990 C 0.49921 0.48175 0.76822 0.0
C991 C 0.54309 0.43301 0.67777 0.0
H992 H 0.57926 0.54239 0.64849 0.0
H993 H 0.61161 0.52108 0.77291 0.0
H994 H 0.52443 0.47457 0.62443 0.0
H995 H 0.51102 0.49351 0.65608 0.0
H996 H 0.53751 0.51035 0.61019 0.0
H997 H 0.58409 0.4822 0.82086 0.0
H998 H 0.54695 0.46854 0.81614 0.0
H999 H 0.56325 0.45274 0.78318 0.0
H1000 H 0.45399 0.43069 0.76323 0.0
H1001 H 0.49261 0.38952 0.69329 0.0
H1002 H 0.50272 0.49712 0.73959 0.0
H1003 H 0.51711 0.49136 0.79376 0.0
H1004 H 0.47989 0.47701 0.7884 0.0
H1005 H 0.54709 0.445 0.64367 0.0
H1006 H 0.53888 0.41201 0.66827 0.0
H1007 H 0.56214 0.44305 0.70041 0.0
C1008 C 0.13397 0.37382 0.25818 0.0
C1009 C 0.13985 0.39802 0.28309 0.0
C1010 C 0.15528 0.36763 0.24752 0.0
C1011 C 0.18312 0.38637 0.26111 0.0
C1012 C 0.18894 0.41034 0.28749 0.0
C1013 C 0.16732 0.4157 0.29843 0.0
C1014 C 0.14815 0.34155 0.22032 0.0
C1015 C 0.21833 0.4312 0.30211 0.0
C1016 C 0.24639 0.37644 0.26291 0.0
C1017 C 0.26043 0.39115 0.22098 0.0
C1018 C 0.21965 0.3722 0.27438 0.0
C1019 C 0.20693 0.38315 0.24345 0.0
C1020 C 0.22001 0.39579 0.19902 0.0
C1021 C 0.24642 0.39946 0.18825 0.0
C1022 C 0.20602 0.35791 0.32142 0.0
C1023 C 0.2074 0.40791 0.16491 0.0
H1024 H 0.11283 0.3599 0.24651 0.0
H1025 H 0.17231 0.43448 0.31769 0.0
H1026 H 0.15499 0.34652 0.18182 0.0
H1027 H 0.1592 0.33138 0.23635 0.0
H1028 H 0.1254 0.32686 0.22067 0.0
H1029 H 0.21916 0.44822 0.32425 0.0
H1030 H 0.22789 0.42117 0.32348 0.0
H1031 H 0.23126 0.44015 0.26898 0.0
H1032 H 0.25687 0.36968 0.28821 0.0
H1033 H 0.25678 0.41031 0.15516 0.0
H1034 H 0.18333 0.34415 0.31621 0.0
H1035 H 0.20873 0.37346 0.34919 0.0
H1036 H 0.21532 0.34569 0.33587 0.0
H1037 H 0.18515 0.39304 0.15805 0.0
H1038 H 0.21846 0.41405 0.12933 0.0
H1039 H 0.20846 0.42637 0.18203 0.0
C1040 C 0.87427 0.22729 0.80587 0.0
C1041 C 0.87956 0.2519 0.7833 0.0
C1042 C 0.84823 0.20339 0.80162 0.0
C1043 C 0.82715 0.20377 0.77271 0.0
C1044 C 0.8323 0.22858 0.74996 0.0
C1045 C 0.8583 0.25246 0.75612 0.0
C1046 C 0.84345 0.17759 0.82751 0.0
C1047 C 0.81073 0.22968 0.71767 0.0
C1048 C 0.77514 0.13386 0.72171 0.0
C1049 C 0.75201 0.12595 0.75222 0.0
C1050 C 0.79914 0.15964 0.72653 0.0
C1051 C 0.80051 0.17771 0.76394 0.0
C1052 C 0.77704 0.17004 0.79444 0.0
C1053 C 0.75288 0.14439 0.78772 0.0
C1054 C 0.8233 0.16723 0.69227 0.0
C1055 C 0.77791 0.18838 0.83555 0.0
H1056 H 0.89051 0.2267 0.82714 0.0
H1057 H 0.86231 0.27135 0.73828 0.0
H1058 H 0.82398 0.16893 0.84929 0.0
H1059 H 0.84091 0.16184 0.80033 0.0
H1060 H 0.86095 0.18135 0.85213 0.0
H1061 H 0.81751 0.25077 0.70415 0.0
H1062 H 0.80649 0.21593 0.68582 0.0
H1063 H 0.79083 0.22214 0.73774 0.0
H1064 H 0.77456 0.11976 0.69406 0.0
H1065 H 0.73514 0.13824 0.81166 0.0
H1066 H 0.84115 0.16835 0.71276 0.0
H1067 H 0.83029 0.18781 0.67614 0.0
H1068 H 0.8179 0.15212 0.66223 0.0
H1069 H 0.79383 0.19059 0.86262 0.0
H1070 H 0.75752 0.18012 0.85441 0.0
H1071 H 0.78411 0.20923 0.82162 0.0
C1072 C 0.64901 0.7786 0.19759 0.0
C1073 C 0.62953 0.75386 0.21959 0.0
C1074 C 0.6472 0.80263 0.20305 0.0
C1075 C 0.62594 0.80222 0.2326 0.0
C1076 C 0.6061 0.77726 0.25474 0.0
C1077 C 0.6079 0.75329 0.24737 0.0
C1078 C 0.66838 0.8286 0.17779 0.0
C1079 C 0.58362 0.77611 0.28765 0.0
C1080 C 0.64453 0.8717 0.28668 0.0
C1081 C 0.6294 0.88013 0.2571 0.0
C1082 C 0.64253 0.84589 0.2805 0.0
C1083 C 0.6257 0.82834 0.24266 0.0
C1084 C 0.61001 0.83655 0.21306 0.0
C1085 C 0.61172 0.86221 0.22113 0.0
C1086 C 0.65899 0.8377 0.31382 0.0
C1087 C 0.5924 0.81879 0.17155 0.0
H1088 H 0.6657 0.7792 0.17586 0.0
H1089 H 0.5929 0.73428 0.26479 0.0
H1090 H 0.65773 0.83769 0.15678 0.0
H1091 H 0.68176 0.84398 0.20533 0.0
H1092 H 0.68195 0.8249 0.15256 0.0
H1093 H 0.56915 0.75493 0.30057 0.0
H1094 H 0.59329 0.78947 0.31987 0.0
H1095 H 0.57141 0.78407 0.26833 0.0
H1096 H 0.65812 0.88539 0.3147 0.0
H1097 H 0.6002 0.86877 0.19789 0.0
H1098 H 0.67555 0.83658 0.29273 0.0
H1099 H 0.64527 0.81701 0.3294 0.0
H1100 H 0.66892 0.85248 0.34426 0.0
H1101 H 0.60597 0.81666 0.14403 0.0
H1102 H 0.58046 0.82746 0.15338 0.0
H1103 H 0.57757 0.79785 0.18487 0.0
C1104 C 0.87387 0.63269 0.75436 0.0
C1105 C 0.86802 0.60942 0.78235 0.0
C1106 C 0.85276 0.63907 0.74307 0.0
C1107 C 0.82513 0.62142 0.75922 0.0
C1108 C 0.81946 0.59869 0.78925 0.0
C1109 C 0.84091 0.59317 0.80073 0.0
C1110 C 0.85982 0.66395 0.71211 0.0
C1111 C 0.79029 0.57901 0.80683 0.0
C1112 C 0.76196 0.63153 0.7559 0.0
C1113 C 0.74755 0.61501 0.71583 0.0
C1114 C 0.78882 0.63629 0.76802 0.0
C1115 C 0.80121 0.6239 0.73985 0.0
C1116 C 0.78773 0.60928 0.69706 0.0
C1117 C 0.7613 0.60527 0.68541 0.0
C1118 C 0.80298 0.65285 0.81294 0.0
C1119 C 0.79993 0.59553 0.66597 0.0
H1120 H 0.89475 0.64558 0.74037 0.0
H1121 H 0.83596 0.5752 0.82264 0.0
H1122 H 0.85325 0.65741 0.67394 0.0
H1123 H 0.8486 0.67461 0.72516 0.0
H1124 H 0.88255 0.67872 0.7121 0.0
H1125 H 0.78966 0.56314 0.83199 0.0
H1126 H 0.78136 0.59034 0.82596 0.0
H1127 H 0.77669 0.56845 0.77511 0.0
H1128 H 0.75174 0.63946 0.77934 0.0
H1129 H 0.75071 0.59301 0.65366 0.0
H1130 H 0.82567 0.66606 0.80661 0.0
H1131 H 0.80027 0.63874 0.84349 0.0
H1132 H 0.79405 0.66598 0.8242 0.0
H1133 H 0.82199 0.61011 0.65707 0.0
H1134 H 0.78828 0.58736 0.63134 0.0
H1135 H 0.7994 0.57819 0.68656 0.0
C1136 C 0.23594 0.87389 0.2973 0.0
C1137 C 0.25725 0.87797 0.26483 0.0
C1138 C 0.21173 0.84821 0.30137 0.0
C1139 C 0.20825 0.8263 0.2709 0.0
C1140 C 0.22996 0.83022 0.23849 0.0
C1141 C 0.25444 0.85596 0.23639 0.0
C1142 C 0.18955 0.84476 0.33747 0.0
C1143 C 0.22676 0.80768 0.20441 0.0
C1144 C 0.15111 0.75404 0.30399 0.0
C1145 C 0.12849 0.75198 0.27733 0.0
C1146 C 0.17734 0.77797 0.30189 0.0
C1147 C 0.18122 0.79996 0.27117 0.0
C1148 C 0.15866 0.79745 0.2427 0.0
C1149 C 0.13246 0.77371 0.2468 0.0
C1150 C 0.20055 0.78015 0.33398 0.0
C1151 C 0.16205 0.82004 0.20844 0.0
H1152 H 0.23819 0.89094 0.3194 0.0
H1153 H 0.2708 0.85926 0.21084 0.0
H1154 H 0.17072 0.84173 0.31766 0.0
H1155 H 0.18334 0.82625 0.3603 0.0
H1156 H 0.19664 0.86287 0.3618 0.0
H1157 H 0.24605 0.81349 0.18324 0.0
H1158 H 0.22116 0.78863 0.22514 0.0
H1159 H 0.20953 0.80286 0.17845 0.0
H1160 H 0.148 0.73734 0.32795 0.0
H1161 H 0.11504 0.77205 0.22583 0.0
H1162 H 0.2065 0.79708 0.3606 0.0
H1163 H 0.21928 0.78525 0.31177 0.0
H1164 H 0.19452 0.76085 0.35439 0.0
H1165 H 0.16608 0.8385 0.22969 0.0
H1166 H 0.14329 0.81383 0.18552 0.0
H1167 H 0.18024 0.82602 0.18416 0.0
C1168 C 0.35773 0.22604 0.70158 0.0
C1169 C 0.37719 0.25069 0.7238 0.0
C1170 C 0.35958 0.202 0.70665 0.0
C1171 C 0.38086 0.20232 0.73602 0.0
C1172 C 0.40063 0.22717 0.75843 0.0
C1173 C 0.3988 0.25114 0.75146 0.0
C1174 C 0.33848 0.17614 0.68111 0.0
C1175 C 0.42311 0.22822 0.7912 0.0
C1176 C 0.36298 0.13293 0.78975 0.0
C1177 C 0.37844 0.12485 0.76024 0.0
C1178 C 0.36453 0.15854 0.78351 0.0
C1179 C 0.38123 0.17622 0.74566 0.0
C1180 C 0.39718 0.16835 0.71604 0.0
C1181 C 0.39593 0.1429 0.7242 0.0
C1182 C 0.34782 0.1664 0.81689 0.0
C1183 C 0.41466 0.18627 0.67451 0.0
H1184 H 0.34107 0.22556 0.67994 0.0
H1185 H 0.41378 0.27007 0.76906 0.0
H1186 H 0.3492 0.16722 0.65981 0.0
H1187 H 0.32513 0.16058 0.70849 0.0
H1188 H 0.32488 0.17991 0.65611 0.0
H1189 H 0.43745 0.24933 0.80458 0.0
H1190 H 0.41343 0.21459 0.82315 0.0
H1191 H 0.43547 0.22054 0.77157 0.0
H1192 H 0.3495 0.11911 0.81779 0.0
H1193 H 0.40767 0.13659 0.70099 0.0
H1194 H 0.33127 0.16751 0.79579 0.0
H1195 H 0.36139 0.18704 0.83276 0.0
H1196 H 0.33787 0.15145 0.84713 0.0
H1197 H 0.40101 0.18845 0.64727 0.0
H1198 H 0.42662 0.17772 0.65599 0.0
H1199 H 0.42948 0.20718 0.68796 0.0
loop_
_geom_bond_atom_site_label_1
_geom_bond_atom_site_label_2
_geom_bond_distance
_geom_bond_site_symmetry_2
_ccdc_geom_bond_type
Mn0 O5 2.095 . S
Mn0 O15 2.162 . S
Mn0 O16 2.297 . S
Mn0 O24 2.385 . S
Mn0 O25 2.209 . S
Mn0 O26 2.094 . S
Mn1 O6 2.121 . S
Mn1 N8 2.257 . S
Mn1 N17 2.282 . S
Mn1 O25 2.215 . S
Mn1 O27 2.117 . S
C2 O24 1.234 . S
C2 O25 1.283 . S
C3 O15 1.281 . S
C3 O16 1.236 . S
C4 O26 1.240 . S
C4 O27 1.264 . S
O5 Mn0 2.095 . S
O5 C14 1.250 . S
O6 Mn1 2.121 . S
O6 C14 1.258 . S
C7 N8 1.326 . S
C7 C11 1.460 . S
C7 H13 0.929 . S
N8 Mn1 2.257 . S
N8 C7 1.326 . S
N8 C12 1.362 . S
C9 C10 1.258 . S
C9 C12 1.431 . S
C9 C29 1.449 . S
C10 C9 1.258 . S
C10 C11 1.477 . S
C10 H30 0.931 . S
C11 C7 1.460 . S
C11 C10 1.477 . S
C11 H31 0.930 . S
C12 N8 1.362 . S
C12 C9 1.431 . S
C12 C22 1.476 . S
H13 C7 0.929 . S
C14 O5 1.250 . S
C14 O6 1.258 . S
O15 Mn0 2.162 . S
O15 C3 1.281 . S
O16 Mn0 2.297 . S
O16 C3 1.236 . S
N17 Mn1 2.282 . S
N17 C18 1.328 . S
N17 C22 1.318 . S
C18 N17 1.328 . S
C18 C19 1.457 . S
C18 H23 0.929 . S
C19 C18 1.457 . S
C19 C20 1.291 . S
C19 H32 0.931 . S
C20 C19 1.291 . S
C20 C21 1.373 . S
C20 H33 0.929 . S
C21 C20 1.373 . S
C21 C22 1.396 . S
C21 C28 1.403 . S
C22 C12 1.476 . S
C22 N17 1.318 . S
C22 C21 1.396 . S
H23 C18 0.929 . S
O24 Mn0 2.385 . S
O24 C2 1.234 . S
O25 Mn0 2.209 . S
O25 Mn1 2.215 . S
O25 C2 1.283 . S
O26 Mn0 2.094 . S
O26 C4 1.240 . S
O27 Mn1 2.117 . S
O27 C4 1.264 . S
C28 C21 1.403 . S
C28 C29 1.399 . S
C28 H34 0.929 . S
C29 C9 1.449 . S
C29 C28 1.399 . S
C29 H35 0.930 . S
H30 C10 0.931 . S
H31 C11 0.930 . S
H32 C19 0.931 . S
H33 C20 0.929 . S
H34 C28 0.929 . S
H35 C29 0.930 . S
Mn36 O41 2.095 . S
Mn36 O51 2.162 . S
Mn36 O52 2.297 . S
Mn36 O60 2.385 . S
Mn36 O61 2.209 . S
Mn36 O62 2.094 . S
Mn37 O42 2.121 . S
Mn37 N44 2.257 1_545 S
Mn37 N53 2.282 . S
Mn37 O61 2.215 . S
Mn37 O63 2.117 . S
C38 O60 1.234 . S
C38 O61 1.283 . S
C39 O51 1.281 . S
C39 O52 1.236 . S
C40 O62 1.240 . S
C40 O63 1.264 . S
O41 Mn36 2.095 . S
O41 C50 1.250 . S
O42 Mn37 2.121 . S
O42 C50 1.258 . S
C43 N44 1.326 . S
C43 C47 1.460 . S
C43 H49 0.929 . S
N44 Mn37 2.257 1_565 S
N44 C43 1.326 . S
N44 C48 1.362 . S
C45 C46 1.258 . S
C45 C48 1.431 . S
C45 C65 1.449 . S
C46 C45 1.258 . S
C46 C47 1.477 . S
C46 H66 0.931 . S
C47 C43 1.460 . S
C47 C46 1.477 . S
C47 H67 0.930 . S
C48 N44 1.362 . S
C48 C45 1.431 . S
C48 C58 1.476 1_565 S
H49 C43 0.929 . S
C50 O41 1.250 . S
C50 O42 1.258 . S
O51 Mn36 2.162 . S
O51 C39 1.281 . S
O52 Mn36 2.297 . S
O52 C39 1.236 . S
N53 Mn37 2.282 . S
N53 C54 1.328 . S
N53 C58 1.318 . S
C54 N53 1.328 . S
C54 C55 1.457 . S
C54 H59 0.929 . S
C55 C54 1.457 . S
C55 C56 1.291 . S
C55 H68 0.931 . S
C56 C55 1.291 . S
C56 C57 1.373 . S
C56 H69 0.929 . S
C57 C56 1.373 . S
C57 C58 1.396 . S
C57 C64 1.403 1_545 S
C58 C48 1.476 1_545 S
C58 N53 1.318 . S
C58 C57 1.396 . S
H59 C54 0.929 . S
O60 Mn36 2.385 . S
O60 C38 1.234 . S
O61 Mn36 2.209 . S
O61 Mn37 2.215 . S
O61 C38 1.283 . S
O62 Mn36 2.094 . S
O62 C40 1.240 . S
O63 Mn37 2.117 . S
O63 C40 1.264 . S
C64 C57 1.403 1_565 S
C64 C65 1.399 . S
C64 H70 0.929 . S
C65 C45 1.449 . S
C65 C64 1.399 . S
C65 H71 0.930 . S
H66 C46 0.931 . S
H67 C47 0.930 . S
H68 C55 0.931 . S
H69 C56 0.929 . S
H70 C64 0.929 . S
H71 C65 0.930 . S
Mn72 O77 2.095 . S
Mn72 O87 2.162 . S
Mn72 O88 2.297 . S
Mn72 O96 2.385 . S
Mn72 O97 2.209 . S
Mn72 O98 2.094 . S
Mn73 O78 2.121 . S
Mn73 N80 2.257 . S
Mn73 N89 2.282 . S
Mn73 O97 2.215 . S
Mn73 O99 2.117 . S
C74 O96 1.234 . S
C74 O97 1.283 . S
C75 O87 1.281 . S
C75 O88 1.236 . S
C76 O98 1.240 . S
C76 O99 1.264 . S
O77 Mn72 2.095 . S
O77 C86 1.250 . S
O78 Mn73 2.121 . S
O78 C86 1.258 . S
C79 N80 1.326 . S
C79 C83 1.460 . S
C79 H85 0.929 . S
N80 Mn73 2.257 . S
N80 C79 1.326 . S
N80 C84 1.362 . S
C81 C82 1.258 . S
C81 C84 1.431 . S
C81 C101 1.449 . S
C82 C81 1.258 . S
C82 C83 1.477 . S
C82 H102 0.931 . S
C83 C79 1.460 . S
C83 C82 1.477 . S
C83 H103 0.930 . S
C84 N80 1.362 . S
C84 C81 1.431 . S
C84 C94 1.476 . S
H85 C79 0.929 . S
C86 O77 1.250 . S
C86 O78 1.258 . S
O87 Mn72 2.162 . S
O87 C75 1.281 . S
O88 Mn72 2.297 . S
O88 C75 1.236 . S
N89 Mn73 2.282 . S
N89 C90 1.328 . S
N89 C94 1.318 . S
C90 N89 1.328 . S
C90 C91 1.457 . S
C90 H95 0.929 . S
C91 C90 1.457 . S
C91 C92 1.291 . S
C91 H104 0.931 . S
C92 C91 1.291 . S
C92 C93 1.373 . S
C92 H105 0.929 . S
C93 C92 1.373 . S
C93 C94 1.396 . S
C93 C100 1.403 . S
C94 C84 1.476 . S
C94 N89 1.318 . S
C94 C93 1.396 . S
H95 C90 0.929 . S
O96 Mn72 2.385 . S
O96 C74 1.234 . S
O97 Mn72 2.209 . S
O97 Mn73 2.215 . S
O97 C74 1.283 . S
O98 Mn72 2.094 . S
O98 C76 1.240 . S
O99 Mn73 2.117 . S
O99 C76 1.264 . S
C100 C93 1.403 . S
C100 C101 1.399 . S
C100 H106 0.929 . S
C101 C81 1.449 . S
C101 C100 1.399 . S
C101 H107 0.930 . S
H102 C82 0.931 . S
H103 C83 0.930 . S
H104 C91 0.931 . S
H105 C92 0.929 . S
H106 C100 0.929 . S
H107 C101 0.930 . S
Mn108 O113 2.095 . S
Mn108 O123 2.162 . S
Mn108 O124 2.297 . S
Mn108 O132 2.385 . S
Mn108 O133 2.209 . S
Mn108 O134 2.094 . S
Mn109 O114 2.121 . S
Mn109 N116 2.257 . S
Mn109 N125 2.282 . S
Mn109 O133 2.215 . S
Mn109 O135 2.117 . S
C110 O132 1.234 . S
C110 O133 1.283 . S
C111 O123 1.281 . S
C111 O124 1.236 . S
C112 O134 1.240 . S
C112 O135 1.264 . S
O113 Mn108 2.095 . S
O113 C122 1.250 . S
O114 Mn109 2.121 . S
O114 C122 1.258 . S
C115 N116 1.326 . S
C115 C119 1.460 . S
C115 H121 0.929 . S
N116 Mn109 2.257 . S
N116 C115 1.326 . S
N116 C120 1.362 . S
C117 C118 1.258 . S
C117 C120 1.431 . S
C117 C137 1.449 . S
C118 C117 1.258 . S
C118 C119 1.477 . S
C118 H138 0.931 . S
C119 C115 1.460 . S
C119 C118 1.477 . S
C119 H139 0.930 . S
C120 N116 1.362 . S
C120 C117 1.431 . S
C120 C130 1.476 . S
H121 C115 0.929 . S
C122 O113 1.250 . S
C122 O114 1.258 . S
O123 Mn108 2.162 . S
O123 C111 1.281 . S
O124 Mn108 2.297 . S
O124 C111 1.236 . S
N125 Mn109 2.282 . S
N125 C126 1.328 . S
N125 C130 1.318 . S
C126 N125 1.328 . S
C126 C127 1.457 . S
C126 H131 0.929 . S
C127 C126 1.457 . S
C127 C128 1.291 . S
C127 H140 0.931 . S
C128 C127 1.291 . S
C128 C129 1.373 . S
C128 H141 0.929 . S
C129 C128 1.373 . S
C129 C130 1.396 . S
C129 C136 1.403 . S
C130 C120 1.476 . S
C130 N125 1.318 . S
C130 C129 1.396 . S
H131 C126 0.929 . S
O132 Mn108 2.385 . S
O132 C110 1.234 . S
O133 Mn108 2.209 . S
O133 Mn109 2.215 . S
O133 C110 1.283 . S
O134 Mn108 2.094 . S
O134 C112 1.240 . S
O135 Mn109 2.117 . S
O135 C112 1.264 . S
C136 C129 1.403 . S
C136 C137 1.399 . S
C136 H142 0.929 . S
C137 C117 1.449 . S
C137 C136 1.399 . S
C137 H143 0.930 . S
H138 C118 0.931 . S
H139 C119 0.930 . S
H140 C127 0.931 . S
H141 C128 0.929 . S
H142 C136 0.929 . S
H143 C137 0.930 . S
Mn144 O149 2.095 . S
Mn144 O159 2.162 . S
Mn144 O160 2.297 . S
Mn144 O168 2.385 . S
Mn144 O169 2.209 . S
Mn144 O170 2.094 . S
Mn145 O150 2.121 . S
Mn145 N152 2.257 1_565 S
Mn145 N161 2.282 . S
Mn145 O169 2.215 . S
Mn145 O171 2.117 . S
C146 O168 1.234 . S
C146 O169 1.283 . S
C147 O159 1.281 . S
C147 O160 1.236 . S
C148 O170 1.240 . S
C148 O171 1.264 . S
O149 Mn144 2.095 . S
O149 C158 1.250 . S
O150 Mn145 2.121 . S
O150 C158 1.258 . S
C151 N152 1.326 . S
C151 C155 1.460 . S
C151 H157 0.929 . S
N152 Mn145 2.257 1_545 S
N152 C151 1.326 . S
N152 C156 1.362 . S
C153 C154 1.258 . S
C153 C156 1.431 . S
C153 C173 1.449 . S
C154 C153 1.258 . S
C154 C155 1.477 . S
C154 H174 0.931 . S
C155 C151 1.460 . S
C155 C154 1.477 . S
C155 H175 0.930 . S
C156 N152 1.362 . S
C156 C153 1.431 . S
C156 C166 1.476 1_545 S
H157 C151 0.929 . S
C158 O149 1.250 . S
C158 O150 1.258 . S
O159 Mn144 2.162 . S
O159 C147 1.281 . S
O160 Mn144 2.297 . S
O160 C147 1.236 . S
N161 Mn145 2.282 . S
N161 C162 1.328 . S
N161 C166 1.318 . S
C162 N161 1.328 . S
C162 C163 1.457 . S
C162 H167 0.929 . S
C163 C162 1.457 . S
C163 C164 1.291 . S
C163 H176 0.931 . S
C164 C163 1.291 . S
C164 C165 1.373 . S
C164 H177 0.929 . S
C165 C164 1.373 . S
C165 C166 1.396 . S
C165 C172 1.403 1_565 S
C166 C156 1.476 1_565 S
C166 N161 1.318 . S
C166 C165 1.396 . S
H167 C162 0.929 . S
O168 Mn144 2.385 . S
O168 C146 1.234 . S
O169 Mn144 2.209 . S
O169 Mn145 2.215 . S
O169 C146 1.283 . S
O170 Mn144 2.094 . S
O170 C148 1.240 . S
O171 Mn145 2.117 . S
O171 C148 1.264 . S
C172 C165 1.403 1_545 S
C172 C173 1.399 . S
C172 H178 0.929 . S
C173 C153 1.449 . S
C173 C172 1.399 . S
C173 H179 0.930 . S
H174 C154 0.931 . S
H175 C155 0.930 . S
H176 C163 0.931 . S
H177 C164 0.929 . S
H178 C172 0.929 . S
H179 C173 0.930 . S
Mn180 O185 2.095 . S
Mn180 O195 2.162 . S
Mn180 O196 2.297 . S
Mn180 O204 2.385 . S
Mn180 O205 2.209 . S
Mn180 O206 2.094 . S
Mn181 O186 2.121 . S
Mn181 N188 2.257 . S
Mn181 N197 2.282 . S
Mn181 O205 2.215 . S
Mn181 O207 2.117 . S
C182 O204 1.234 . S
C182 O205 1.283 . S
C183 O195 1.281 . S
C183 O196 1.236 . S
C184 O206 1.240 . S
C184 O207 1.264 . S
O185 Mn180 2.095 . S
O185 C194 1.250 . S
O186 Mn181 2.121 . S
O186 C194 1.258 . S
C187 N188 1.326 . S
C187 C191 1.460 . S
C187 H193 0.929 . S
N188 Mn181 2.257 . S
N188 C187 1.326 . S
N188 C192 1.362 . S
C189 C190 1.258 . S
C189 C192 1.431 . S
C189 C209 1.449 . S
C190 C189 1.258 . S
C190 C191 1.477 . S
C190 H210 0.931 . S
C191 C187 1.460 . S
C191 C190 1.477 . S
C191 H211 0.930 . S
C192 N188 1.362 . S
C192 C189 1.431 . S
C192 C202 1.476 . S
H193 C187 0.929 . S
C194 O185 1.250 . S
C194 O186 1.258 . S
O195 Mn180 2.162 . S
O195 C183 1.281 . S
O196 Mn180 2.297 . S
O196 C183 1.236 . S
N197 Mn181 2.282 . S
N197 C198 1.328 . S
N197 C202 1.318 . S
C198 N197 1.328 . S
C198 C199 1.457 . S
C198 H203 0.929 . S
C199 C198 1.457 . S
C199 C200 1.291 . S
C199 H212 0.931 . S
C200 C199 1.291 . S
C200 C201 1.373 . S
C200 H213 0.929 . S
C201 C200 1.373 . S
C201 C202 1.396 . S
C201 C208 1.403 . S
C202 C192 1.476 . S
C202 N197 1.318 . S
C202 C201 1.396 . S
H203 C198 0.929 . S
O204 Mn180 2.385 . S
O204 C182 1.234 . S
O205 Mn180 2.209 . S
O205 Mn181 2.215 . S
O205 C182 1.283 . S
O206 Mn180 2.094 . S
O206 C184 1.240 . S
O207 Mn181 2.117 . S
O207 C184 1.264 . S
C208 C201 1.403 . S
C208 C209 1.399 . S
C208 H214 0.929 . S
C209 C189 1.449 . S
C209 C208 1.399 . S
C209 H215 0.930 . S
H210 C190 0.931 . S
H211 C191 0.930 . S
H212 C199 0.931 . S
H213 C200 0.929 . S
H214 C208 0.929 . S
H215 C209 0.930 . S
Mn216 O221 2.095 . S
Mn216 O231 2.162 . S
Mn216 O232 2.297 . S
Mn216 O240 2.385 . S
Mn216 O241 2.209 . S
Mn216 O242 2.094 . S
Mn217 O222 2.121 . S
Mn217 N224 2.257 1_565 S
Mn217 N233 2.282 . S
Mn217 O241 2.215 . S
Mn217 O243 2.117 . S
C218 O240 1.234 . S
C218 O241 1.283 . S
C219 O231 1.281 . S
C219 O232 1.236 . S
C220 O242 1.240 . S
C220 O243 1.264 . S
O221 Mn216 2.095 . S
O221 C230 1.250 . S
O222 Mn217 2.121 . S
O222 C230 1.258 . S
C223 N224 1.326 . S
C223 C227 1.460 . S
C223 H229 0.929 . S
N224 Mn217 2.257 1_545 S
N224 C223 1.326 . S
N224 C228 1.362 . S
C225 C226 1.258 . S
C225 C228 1.431 . S
C225 C245 1.449 . S
C226 C225 1.258 . S
C226 C227 1.477 . S
C226 H246 0.931 . S
C227 C223 1.460 . S
C227 C226 1.477 . S
C227 H247 0.930 . S
C228 N224 1.362 . S
C228 C225 1.431 . S
C228 C238 1.476 1_545 S
H229 C223 0.929 . S
C230 O221 1.250 . S
C230 O222 1.258 . S
O231 Mn216 2.162 . S
O231 C219 1.281 . S
O232 Mn216 2.297 . S
O232 C219 1.236 . S
N233 Mn217 2.282 . S
N233 C234 1.328 . S
N233 C238 1.318 . S
C234 N233 1.328 . S
C234 C235 1.457 . S
C234 H239 0.929 . S
C235 C234 1.457 . S
C235 C236 1.291 . S
C235 H248 0.931 . S
C236 C235 1.291 . S
C236 C237 1.373 . S
C236 H249 0.929 . S
C237 C236 1.373 . S
C237 C238 1.396 . S
C237 C244 1.403 1_565 S
C238 C228 1.476 1_565 S
C238 N233 1.318 . S
C238 C237 1.396 . S
H239 C234 0.929 . S
O240 Mn216 2.385 . S
O240 C218 1.234 . S
O241 Mn216 2.209 . S
O241 Mn217 2.215 . S
O241 C218 1.283 . S
O242 Mn216 2.094 . S
O242 C220 1.240 . S
O243 Mn217 2.117 . S
O243 C220 1.264 . S
C244 C237 1.403 1_545 S
C244 C245 1.399 . S
C244 H250 0.929 . S
C245 C225 1.449 . S
C245 C244 1.399 . S
C245 H251 0.930 . S
H246 C226 0.931 . S
H247 C227 0.930 . S
H248 C235 0.931 . S
H249 C236 0.929 . S
H250 C244 0.929 . S
H251 C245 0.930 . S
Mn252 O257 2.095 . S
Mn252 O267 2.162 . S
Mn252 O268 2.297 . S
Mn252 O276 2.385 . S
Mn252 O277 2.209 . S
Mn252 O278 2.094 . S
Mn253 O258 2.121 . S
Mn253 N260 2.257 . S
Mn253 N269 2.282 . S
Mn253 O277 2.215 . S
Mn253 O279 2.117 . S
C254 O276 1.234 . S
C254 O277 1.283 . S
C255 O267 1.281 . S
C255 O268 1.236 . S
C256 O278 1.240 . S
C256 O279 1.264 . S
O257 Mn252 2.095 . S
O257 C266 1.250 . S
O258 Mn253 2.121 . S
O258 C266 1.258 . S
C259 N260 1.326 . S
C259 C263 1.460 . S
C259 H265 0.929 . S
N260 Mn253 2.257 . S
N260 C259 1.326 . S
N260 C264 1.362 . S
C261 C262 1.258 . S
C261 C264 1.431 . S
C261 C281 1.449 . S
C262 C261 1.258 . S
C262 C263 1.477 . S
C262 H282 0.931 . S
C263 C259 1.460 . S
C263 C262 1.477 . S
C263 H283 0.930 . S
C264 N260 1.362 . S
C264 C261 1.431 . S
C264 C274 1.476 . S
H265 C259 0.929 . S
C266 O257 1.250 . S
C266 O258 1.258 . S
O267 Mn252 2.162 . S
O267 C255 1.281 . S
O268 Mn252 2.297 . S
O268 C255 1.236 . S
N269 Mn253 2.282 . S
N269 C270 1.328 . S
N269 C274 1.318 . S
C270 N269 1.328 . S
C270 C271 1.457 . S
C270 H275 0.929 . S
C271 C270 1.457 . S
C271 C272 1.291 . S
C271 H284 0.931 . S
C272 C271 1.291 . S
C272 C273 1.373 . S
C272 H285 0.929 . S
C273 C272 1.373 . S
C273 C274 1.396 . S
C273 C280 1.403 . S
C274 C264 1.476 . S
C274 N269 1.318 . S
C274 C273 1.396 . S
H275 C270 0.929 . S
O276 Mn252 2.385 . S
O276 C254 1.234 . S
O277 Mn252 2.209 . S
O277 Mn253 2.215 . S
O277 C254 1.283 . S
O278 Mn252 2.094 . S
O278 C256 1.240 . S
O279 Mn253 2.117 . S
O279 C256 1.264 . S
C280 C273 1.403 . S
C280 C281 1.399 . S
C280 H286 0.929 . S
C281 C261 1.449 . S
C281 C280 1.399 . S
C281 H287 0.930 . S
H282 C262 0.931 . S
H283 C263 0.930 . S
H284 C271 0.931 . S
H285 C272 0.929 . S
H286 C280 0.929 . S
H287 C281 0.930 . S
Mn288 O293 2.095 . S
Mn288 O303 2.162 . S
Mn288 O304 2.297 . S
Mn288 O312 2.385 . S
Mn288 O313 2.209 . S
Mn288 O314 2.094 . S
Mn289 O294 2.121 . S
Mn289 N296 2.257 1_455 S
Mn289 N305 2.282 . S
Mn289 O313 2.215 . S
Mn289 O315 2.117 . S
C290 O312 1.234 . S
C290 O313 1.283 . S
C291 O303 1.281 . S
C291 O304 1.236 . S
C292 O314 1.240 . S
C292 O315 1.264 . S
O293 Mn288 2.095 . S
O293 C302 1.250 . S
O294 Mn289 2.121 . S
O294 C302 1.258 . S
C295 N296 1.326 . S
C295 C299 1.460 . S
C295 H301 0.929 . S
N296 Mn289 2.257 1_655 S
N296 C295 1.326 . S
N296 C300 1.362 . S
C297 C298 1.258 . S
C297 C300 1.431 . S
C297 C317 1.449 . S
C298 C297 1.258 . S
C298 C299 1.477 . S
C298 H318 0.931 . S
C299 C295 1.460 . S
C299 C298 1.477 . S
C299 H319 0.930 . S
C300 N296 1.362 . S
C300 C297 1.431 . S
C300 C310 1.476 1_655 S
H301 C295 0.929 . S
C302 O293 1.250 . S
C302 O294 1.258 . S
O303 Mn288 2.162 . S
O303 C291 1.281 . S
O304 Mn288 2.297 . S
O304 C291 1.236 . S
N305 Mn289 2.282 . S
N305 C306 1.328 . S
N305 C310 1.318 . S
C306 N305 1.328 . S
C306 C307 1.457 . S
C306 H311 0.929 . S
C307 C306 1.457 . S
C307 C308 1.291 . S
C307 H320 0.931 . S
C308 C307 1.291 . S
C308 C309 1.373 . S
C308 H321 0.929 . S
C309 C308 1.373 . S
C309 C310 1.396 . S
C309 C316 1.403 1_455 S
C310 C300 1.476 1_455 S
C310 N305 1.318 . S
C310 C309 1.396 . S
H311 C306 0.929 . S
O312 Mn288 2.385 . S
O312 C290 1.234 . S
O313 Mn288 2.209 . S
O313 Mn289 2.215 . S
O313 C290 1.283 . S
O314 Mn288 2.094 . S
O314 C292 1.240 . S
O315 Mn289 2.117 . S
O315 C292 1.264 . S
C316 C309 1.403 1_655 S
C316 C317 1.399 . S
C316 H322 0.929 . S
C317 C297 1.449 . S
C317 C316 1.399 . S
C317 H323 0.930 . S
H318 C298 0.931 . S
H319 C299 0.930 . S
H320 C307 0.931 . S
H321 C308 0.929 . S
H322 C316 0.929 . S
H323 C317 0.930 . S
Mn324 O329 2.095 . S
Mn324 O339 2.162 . S
Mn324 O340 2.297 . S
Mn324 O348 2.385 . S
Mn324 O349 2.209 . S
Mn324 O350 2.094 . S
Mn325 O330 2.121 . S
Mn325 N332 2.257 1_545 S
Mn325 N341 2.282 . S
Mn325 O349 2.215 . S
Mn325 O351 2.117 . S
C326 O348 1.234 . S
C326 O349 1.283 . S
C327 O339 1.281 . S
C327 O340 1.236 . S
C328 O350 1.240 . S
C328 O351 1.264 . S
O329 Mn324 2.095 . S
O329 C338 1.250 . S
O330 Mn325 2.121 . S
O330 C338 1.258 . S
C331 N332 1.326 . S
C331 C335 1.460 . S
C331 H337 0.929 . S
N332 Mn325 2.257 1_565 S
N332 C331 1.326 . S
N332 C336 1.362 . S
C333 C334 1.258 . S
C333 C336 1.431 . S
C333 C353 1.449 . S
C334 C333 1.258 . S
C334 C335 1.477 . S
C334 H354 0.931 . S
C335 C331 1.460 . S
C335 C334 1.477 . S
C335 H355 0.930 . S
C336 N332 1.362 . S
C336 C333 1.431 . S
C336 C346 1.476 1_565 S
H337 C331 0.929 . S
C338 O329 1.250 . S
C338 O330 1.258 . S
O339 Mn324 2.162 . S
O339 C327 1.281 . S
O340 Mn324 2.297 . S
O340 C327 1.236 . S
N341 Mn325 2.282 . S
N341 C342 1.328 . S
N341 C346 1.318 . S
C342 N341 1.328 . S
C342 C343 1.457 . S
C342 H347 0.929 . S
C343 C342 1.457 . S
C343 C344 1.291 . S
C343 H356 0.931 . S
C344 C343 1.291 . S
C344 C345 1.373 . S
C344 H357 0.929 . S
C345 C344 1.373 . S
C345 C346 1.396 . S
C345 C352 1.403 1_545 S
C346 C336 1.476 1_545 S
C346 N341 1.318 . S
C346 C345 1.396 . S
H347 C342 0.929 . S
O348 Mn324 2.385 . S
O348 C326 1.234 . S
O349 Mn324 2.209 . S
O349 Mn325 2.215 . S
O349 C326 1.283 . S
O350 Mn324 2.094 . S
O350 C328 1.240 . S
O351 Mn325 2.117 . S
O351 C328 1.264 . S
C352 C345 1.403 1_565 S
C352 C353 1.399 . S
C352 H358 0.929 . S
C353 C333 1.449 . S
C353 C352 1.399 . S
C353 H359 0.930 . S
H354 C334 0.931 . S
H355 C335 0.930 . S
H356 C343 0.931 . S
H357 C344 0.929 . S
H358 C352 0.929 . S
H359 C353 0.930 . S
Mn360 O365 2.095 . S
Mn360 O375 2.162 . S
Mn360 O376 2.297 . S
Mn360 O384 2.385 . S
Mn360 O385 2.209 . S
Mn360 O386 2.094 . S
Mn361 O366 2.121 . S
Mn361 N368 2.257 . S
Mn361 N377 2.282 . S
Mn361 O385 2.215 . S
Mn361 O387 2.117 . S
C362 O384 1.234 . S
C362 O385 1.283 . S
C363 O375 1.281 . S
C363 O376 1.236 . S
C364 O386 1.240 . S
C364 O387 1.264 . S
O365 Mn360 2.095 . S
O365 C374 1.250 . S
O366 Mn361 2.121 . S
O366 C374 1.258 . S
C367 N368 1.326 . S
C367 C371 1.460 . S
C367 H373 0.929 . S
N368 Mn361 2.257 . S
N368 C367 1.326 . S
N368 C372 1.362 . S
C369 C370 1.258 . S
C369 C372 1.431 . S
C369 C389 1.449 . S
C370 C369 1.258 . S
C370 C371 1.477 . S
C370 H390 0.931 . S
C371 C367 1.460 . S
C371 C370 1.477 . S
C371 H391 0.930 . S
C372 N368 1.362 . S
C372 C369 1.431 . S
C372 C382 1.476 . S
H373 C367 0.929 . S
C374 O365 1.250 . S
C374 O366 1.258 . S
O375 Mn360 2.162 . S
O375 C363 1.281 . S
O376 Mn360 2.297 . S
O376 C363 1.236 . S
N377 Mn361 2.282 . S
N377 C378 1.328 . S
N377 C382 1.318 . S
C378 N377 1.328 . S
C378 C379 1.457 . S
C378 H383 0.929 . S
C379 C378 1.457 . S
C379 C380 1.291 . S
C379 H392 0.931 . S
C380 C379 1.291 . S
C380 C381 1.373 . S
C380 H393 0.929 . S
C381 C380 1.373 . S
C381 C382 1.396 . S
C381 C388 1.403 . S
C382 C372 1.476 . S
C382 N377 1.318 . S
C382 C381 1.396 . S
H383 C378 0.929 . S
O384 Mn360 2.385 . S
O384 C362 1.234 . S
O385 Mn360 2.209 . S
O385 Mn361 2.215 . S
O385 C362 1.283 . S
O386 Mn360 2.094 . S
O386 C364 1.240 . S
O387 Mn361 2.117 . S
O387 C364 1.264 . S
C388 C381 1.403 . S
C388 C389 1.399 . S
C388 H394 0.929 . S
C389 C369 1.449 . S
C389 C388 1.399 . S
C389 H395 0.930 . S
H390 C370 0.931 . S
H391 C371 0.930 . S
H392 C379 0.931 . S
H393 C380 0.929 . S
H394 C388 0.929 . S
H395 C389 0.930 . S
Mn396 O401 2.095 . S
Mn396 O411 2.162 . S
Mn396 O412 2.297 . S
Mn396 O420 2.385 . S
Mn396 O421 2.209 . S
Mn396 O422 2.094 . S
Mn397 O402 2.121 . S
Mn397 N404 2.257 1_655 S
Mn397 N413 2.282 . S
Mn397 O421 2.215 . S
Mn397 O423 2.117 . S
C398 O420 1.234 . S
C398 O421 1.283 . S
C399 O411 1.281 . S
C399 O412 1.236 . S
C400 O422 1.240 . S
C400 O423 1.264 . S
O401 Mn396 2.095 . S
O401 C410 1.250 . S
O402 Mn397 2.121 . S
O402 C410 1.258 . S
C403 N404 1.326 . S
C403 C407 1.460 . S
C403 H409 0.929 . S
N404 Mn397 2.257 1_455 S
N404 C403 1.326 . S
N404 C408 1.362 . S
C405 C406 1.258 . S
C405 C408 1.431 . S
C405 C425 1.449 . S
C406 C405 1.258 . S
C406 C407 1.477 . S
C406 H426 0.931 . S
C407 C403 1.460 . S
C407 C406 1.477 . S
C407 H427 0.930 . S
C408 N404 1.362 . S
C408 C405 1.431 . S
C408 C418 1.476 1_455 S
H409 C403 0.929 . S
C410 O401 1.250 . S
C410 O402 1.258 . S
O411 Mn396 2.162 . S
O411 C399 1.281 . S
O412 Mn396 2.297 . S
O412 C399 1.236 . S
N413 Mn397 2.282 . S
N413 C414 1.328 . S
N413 C418 1.318 . S
C414 N413 1.328 . S
C414 C415 1.457 . S
C414 H419 0.929 . S
C415 C414 1.457 . S
C415 C416 1.291 . S
C415 H428 0.931 . S
C416 C415 1.291 . S
C416 C417 1.373 . S
C416 H429 0.929 . S
C417 C416 1.373 . S
C417 C418 1.396 . S
C417 C424 1.403 1_655 S
C418 C408 1.476 1_655 S
C418 N413 1.318 . S
C418 C417 1.396 . S
H419 C414 0.929 . S
O420 Mn396 2.385 . S
O420 C398 1.234 . S
O421 Mn396 2.209 . S
O421 Mn397 2.215 . S
O421 C398 1.283 . S
O422 Mn396 2.094 . S
O422 C400 1.240 . S
O423 Mn397 2.117 . S
O423 C400 1.264 . S
C424 C417 1.403 1_455 S
C424 C425 1.399 . S
C424 H430 0.929 . S
C425 C405 1.449 . S
C425 C424 1.399 . S
C425 H431 0.930 . S
H426 C406 0.931 . S
H427 C407 0.930 . S
H428 C415 0.931 . S
H429 C416 0.929 . S
H430 C424 0.929 . S
H431 C425 0.930 . S
C432 C433 1.391 . S
C432 C434 1.394 . S
C432 H448 0.931 . S
C433 C432 1.391 . S
C433 C437 1.376 . S
C434 C432 1.394 . S
C434 C435 1.369 . S
C434 C438 1.531 . S
C435 C434 1.369 . S
C435 C436 1.410 . S
C435 C443 1.509 1_554 S
C436 C435 1.410 . S
C436 C437 1.392 . S
C436 C439 1.511 . S
C437 C433 1.376 . S
C437 C436 1.392 . S
C437 H449 0.929 . S
C438 C434 1.531 . S
C438 H450 0.960 1_554 S
C438 H451 0.962 . S
C438 H452 0.960 . S
C439 C436 1.511 . S
C439 H453 0.961 1_455 S
C439 H454 0.961 1_454 S
C439 H455 0.961 1_554 S
C440 C441 1.370 . S
C440 C442 1.363 . S
C440 H456 0.931 . S
C441 C440 1.370 . S
C441 C445 1.408 1_655 S
C442 C440 1.363 . S
C442 C443 1.355 1_655 S
C442 C446 1.524 . S
C443 C435 1.509 1_556 S
C443 C442 1.355 1_455 S
C443 C444 1.412 . S
C444 C443 1.412 . S
C444 C445 1.404 . S
C444 C447 1.539 . S
C445 C441 1.408 1_455 S
C445 C444 1.404 . S
C445 H457 0.930 . S
C446 C442 1.524 . S
C446 H458 0.956 1_556 S
C446 H459 0.961 1_556 S
C446 H460 0.961 . S
C447 C444 1.539 . S
C447 H461 0.958 . S
C447 H462 0.961 . S
C447 H463 0.960 . S
H448 C432 0.931 . S
H449 C437 0.929 . S
H450 C438 0.960 1_556 S
H451 C438 0.962 . S
H452 C438 0.960 . S
H453 C439 0.961 1_655 S
H454 C439 0.961 1_656 S
H455 C439 0.961 1_556 S
H456 C440 0.931 . S
H457 C445 0.930 . S
H458 C446 0.956 1_554 S
H459 C446 0.961 1_554 S
H460 C446 0.961 . S
H461 C447 0.958 . S
H462 C447 0.961 . S
H463 C447 0.960 . S
C464 C465 1.391 . S
C464 C466 1.394 . S
C464 H480 0.931 . S
C465 C464 1.391 . S
C465 C469 1.376 . S
C466 C464 1.394 . S
C466 C467 1.369 . S
C466 C470 1.531 . S
C467 C466 1.369 . S
C467 C468 1.411 1_565 S
C467 C475 1.500 1_565 S
C468 C467 1.411 1_545 S
C468 C469 1.389 1_545 S
C468 C471 1.514 . S
C469 C465 1.376 . S
C469 C468 1.389 1_565 S
C469 H481 0.932 1_565 S
C470 C466 1.531 . S
C470 H482 0.960 . S
C470 H483 0.962 . S
C470 H484 0.960 . S
C471 C468 1.514 . S
C471 H485 0.961 . S
C471 H486 0.961 . S
C471 H487 0.961 . S
C472 C473 1.370 . S
C472 C474 1.363 . S
C472 H488 0.931 . S
C473 C472 1.370 . S
C473 C477 1.408 1_545 S
C474 C472 1.363 . S
C474 C475 1.380 . S
C474 C478 1.524 . S
C475 C467 1.500 1_545 S
C475 C474 1.380 . S
C475 C476 1.396 1_545 S
C476 C475 1.396 1_565 S
C476 C477 1.404 . S
C476 C479 1.539 . S
C477 C473 1.408 1_565 S
C477 C476 1.404 . S
C477 H489 0.930 . S
C478 C474 1.524 . S
C478 H490 0.956 . S
C478 H491 0.961 . S
C478 H492 0.961 . S
C479 C476 1.539 . S
C479 H493 0.958 . S
C479 H494 0.961 . S
C479 H495 0.960 . S
H480 C464 0.931 . S
H481 C469 0.932 1_545 S
H482 C470 0.960 . S
H483 C470 0.962 . S
H484 C470 0.960 . S
H485 C471 0.961 . S
H486 C471 0.961 . S
H487 C471 0.961 . S
H488 C472 0.931 . S
H489 C477 0.930 . S
H490 C478 0.956 . S
H491 C478 0.961 . S
H492 C478 0.961 . S
H493 C479 0.958 . S
H494 C479 0.961 . S
H495 C479 0.960 . S
C496 C497 1.391 . S
C496 C498 1.394 . S
C496 H512 0.931 . S
C497 C496 1.391 . S
C497 C501 1.376 . S
C498 C496 1.394 . S
C498 C499 1.369 . S
C498 C502 1.531 . S
C499 C498 1.369 . S
C499 C500 1.410 . S
C499 C507 1.503 1_554 S
C500 C499 1.410 . S
C500 C501 1.392 . S
C500 C503 1.511 . S
C501 C497 1.376 . S
C501 C500 1.392 . S
C501 H513 0.929 . S
C502 C498 1.531 . S
C502 H514 0.960 1_554 S
C502 H515 0.962 1_554 S
C502 H516 0.960 . S
C503 C500 1.511 . S
C503 H517 0.961 . S
C503 H518 0.961 . S
C503 H519 0.961 . S
C504 C505 1.370 . S
C504 C506 1.363 . S
C504 H520 0.931 . S
C505 C504 1.370 . S
C505 C509 1.408 . S
C506 C504 1.363 . S
C506 C507 1.370 . S
C506 C510 1.524 . S
C507 C499 1.503 1_556 S
C507 C506 1.370 . S
C507 C508 1.403 . S
C508 C507 1.403 . S
C508 C509 1.404 . S
C508 C511 1.539 . S
C509 C505 1.408 . S
C509 C508 1.404 . S
C509 H521 0.930 . S
C510 C506 1.524 . S
C510 H522 0.956 . S
C510 H523 0.961 1_556 S
C510 H524 0.961 . S
C511 C508 1.539 . S
C511 H525 0.958 . S
C511 H526 0.961 . S
C511 H527 0.960 1_556 S
H512 C496 0.931 . S
H513 C501 0.929 . S
H514 C502 0.960 1_556 S
H515 C502 0.962 1_556 S
H516 C502 0.960 . S
H517 C503 0.961 . S
H518 C503 0.961 . S
H519 C503 0.961 . S
H520 C504 0.931 . S
H521 C509 0.930 . S
H522 C510 0.956 . S
H523 C510 0.961 1_554 S
H524 C510 0.961 . S
H525 C511 0.958 . S
H526 C511 0.961 . S
H527 C511 0.960 1_554 S
C528 C529 1.391 . S
C528 C530 1.378 1_455 S
C528 H544 0.931 . S
C529 C528 1.391 . S
C529 C533 1.376 . S
C530 C528 1.378 1_655 S
C530 C531 1.351 . S
C530 C534 1.567 . S
C531 C530 1.351 . S
C531 C532 1.410 1_655 S
C531 C539 1.503 . S
C532 C531 1.410 1_455 S
C532 C533 1.392 . S
C532 C535 1.511 . S
C533 C529 1.376 . S
C533 C532 1.392 . S
C533 H545 0.929 . S
C534 C530 1.567 . S
C534 H546 0.960 . S
C534 H547 0.962 1_655 S
C534 H548 0.960 . S
C535 C532 1.511 . S
C535 H549 0.961 . S
C535 H550 0.961 . S
C535 H551 0.961 1_455 S
C536 C537 1.370 1_455 S
C536 C538 1.363 . S
C536 H552 0.931 . S
C537 C536 1.370 1_655 S
C537 C541 1.408 . S
C538 C536 1.363 . S
C538 C539 1.370 1_455 S
C538 C542 1.524 . S
C539 C531 1.503 . S
C539 C538 1.370 1_655 S
C539 C540 1.403 . S
C540 C539 1.403 . S
C540 C541 1.404 . S
C540 C543 1.539 . S
C541 C537 1.408 . S
C541 C540 1.404 . S
C541 H553 0.930 . S
C542 C538 1.524 . S
C542 H554 0.956 . S
C542 H555 0.961 . S
C542 H556 0.961 . S
C543 C540 1.539 . S
C543 H557 0.958 . S
C543 H558 0.961 . S
C543 H559 0.960 . S
H544 C528 0.931 . S
H545 C533 0.929 . S
H546 C534 0.960 . S
H547 C534 0.962 1_455 S
H548 C534 0.960 . S
H549 C535 0.961 . S
H550 C535 0.961 . S
H551 C535 0.961 1_655 S
H552 C536 0.931 . S
H553 C541 0.930 . S
H554 C542 0.956 . S
H555 C542 0.961 . S
H556 C542 0.961 . S
H557 C543 0.958 . S
H558 C543 0.961 . S
H559 C543 0.960 . S
C560 C561 1.391 . S
C560 C562 1.394 1_545 S
C560 H576 0.926 . S
C561 C560 1.391 . S
C561 C565 1.376 . S
C562 C560 1.394 1_565 S
C562 C563 1.369 . S
C562 C566 1.531 . S
C563 C562 1.369 . S
C563 C564 1.410 1_565 S
C563 C571 1.503 1_556 S
C564 C563 1.410 1_545 S
C564 C565 1.392 . S
C564 C567 1.511 . S
C565 C561 1.376 . S
C565 C564 1.392 . S
C565 H577 0.929 . S
C566 C562 1.531 . S
C566 H578 0.960 . S
C566 H579 0.962 . S
C566 H580 0.960 . S
C567 C564 1.511 . S
C567 H581 0.961 . S
C567 H582 0.961 1_556 S
C567 H583 0.932 1_545 S
C568 C569 1.370 1_545 S
C568 C570 1.363 . S
C568 H584 0.931 . S
C569 C568 1.370 1_565 S
C569 C573 1.408 . S
C570 C568 1.363 . S
C570 C571 1.370 1_545 S
C570 C574 1.524 . S
C571 C563 1.503 1_554 S
C571 C570 1.370 1_565 S
C571 C572 1.403 . S
C572 C571 1.403 . S
C572 C573 1.404 . S
C572 C575 1.539 . S
C573 C569 1.408 . S
C573 C572 1.404 . S
C573 H585 0.930 . S
C574 C570 1.524 . S
C574 H586 0.956 . S
C574 H587 0.961 . S
C574 H588 0.961 . S
C575 C572 1.539 . S
C575 H589 0.958 1_554 S
C575 H590 0.961 . S
C575 H591 0.960 1_554 S
H576 C560 0.926 . S
H577 C565 0.929 . S
H578 C566 0.960 . S
H579 C566 0.962 . S
H580 C566 0.960 . S
H581 C567 0.961 . S
H582 C567 0.961 1_554 S
H583 C567 0.932 1_565 S
H584 C568 0.931 . S
H585 C573 0.930 . S
H586 C574 0.956 . S
H587 C574 0.961 . S
H588 C574 0.961 . S
H589 C575 0.958 1_556 S
H590 C575 0.961 . S
H591 C575 0.960 1_556 S
C592 C593 1.391 . S
C592 C594 1.394 . S
C592 H608 0.931 . S
C593 C592 1.391 . S
C593 C597 1.376 . S
C594 C592 1.394 . S
C594 C595 1.369 . S
C594 C598 1.531 . S
C595 C594 1.369 . S
C595 C596 1.410 . S
C595 C603 1.503 . S
C596 C595 1.410 . S
C596 C597 1.392 . S
C596 C599 1.511 . S
C597 C593 1.376 . S
C597 C596 1.392 . S
C597 H609 0.929 . S
C598 C594 1.531 . S
C598 H610 0.960 . S
C598 H611 0.962 . S
C598 H612 0.960 . S
C599 C596 1.511 . S
C599 H613 0.961 . S
C599 H614 0.961 . S
C599 H615 0.961 . S
C600 C601 1.370 . S
C600 C602 1.363 . S
C600 H616 0.931 . S
C601 C600 1.370 . S
C601 C605 1.408 . S
C602 C600 1.363 . S
C602 C603 1.370 . S
C602 C606 1.524 . S
C603 C595 1.503 . S
C603 C602 1.370 . S
C603 C604 1.403 . S
C604 C603 1.403 . S
C604 C605 1.404 . S
C604 C607 1.539 . S
C605 C601 1.408 . S
C605 C604 1.404 . S
C605 H617 0.930 . S
C606 C602 1.524 . S
C606 H618 0.956 . S
C606 H619 0.961 . S
C606 H620 0.961 . S
C607 C604 1.539 . S
C607 H621 0.958 . S
C607 H622 0.961 . S
C607 H623 0.960 . S
H608 C592 0.931 . S
H609 C597 0.929 . S
H610 C598 0.960 . S
H611 C598 0.962 . S
H612 C598 0.960 . S
H613 C599 0.961 . S
H614 C599 0.961 . S
H615 C599 0.961 . S
H616 C600 0.931 . S
H617 C605 0.930 . S
H618 C606 0.956 . S
H619 C606 0.961 . S
H620 C606 0.961 . S
H621 C607 0.958 . S
H622 C607 0.961 . S
H623 C607 0.960 . S
C624 C625 1.391 . S
C624 C626 1.394 . S
C624 H640 0.931 . S
C625 C624 1.391 . S
C625 C629 1.376 1_655 S
C626 C624 1.394 . S
C626 C627 1.369 . S
C626 C630 1.531 1_556 S
C627 C626 1.369 . S
C627 C628 1.410 1_655 S
C627 C635 1.503 1_656 S
C628 C627 1.410 1_455 S
C628 C629 1.392 . S
C628 C631 1.511 . S
C629 C625 1.376 1_455 S
C629 C628 1.392 . S
C629 H641 0.929 . S
C630 C626 1.531 1_554 S
C630 H642 0.960 . S
C630 H643 0.962 . S
C630 H644 0.960 1_554 S
C631 C628 1.511 . S
C631 H645 0.961 . S
C631 H646 0.961 . S
C631 H647 0.961 . S
C632 C633 1.370 . S
C632 C634 1.363 . S
C632 H648 0.931 . S
C633 C632 1.370 . S
C633 C637 1.408 . S
C634 C632 1.363 . S
C634 C635 1.370 . S
C634 C638 1.524 1_455 S
C635 C627 1.503 1_454 S
C635 C634 1.370 . S
C635 C636 1.403 . S
C636 C635 1.403 . S
C636 C637 1.404 . S
C636 C639 1.539 . S
C637 C633 1.408 . S
C637 C636 1.404 . S
C637 H649 0.930 . S
C638 C634 1.524 1_655 S
C638 H650 0.956 . S
C638 H651 0.961 1_654 S
C638 H652 0.961 1_655 S
C639 C636 1.539 . S
C639 H653 0.958 1_455 S
C639 H654 0.961 . S
C639 H655 0.960 1_554 S
H640 C624 0.931 . S
H641 C629 0.929 . S
H642 C630 0.960 . S
H643 C630 0.962 . S
H644 C630 0.960 1_556 S
H645 C631 0.961 . S
H646 C631 0.961 . S
H647 C631 0.961 . S
H648 C632 0.931 . S
H649 C637 0.930 . S
H650 C638 0.956 . S
H651 C638 0.961 1_456 S
H652 C638 0.961 1_455 S
H653 C639 0.958 1_655 S
H654 C639 0.961 . S
H655 C639 0.960 1_556 S
C656 C657 1.391 . S
C656 C658 1.394 . S
C656 H672 0.931 . S
C657 C656 1.391 . S
C657 C661 1.376 . S
C658 C656 1.394 . S
C658 C659 1.369 . S
C658 C662 1.531 . S
C659 C658 1.369 . S
C659 C660 1.410 . S
C659 C667 1.509 . S
C660 C659 1.410 . S
C660 C661 1.392 . S
C660 C663 1.511 . S
C661 C657 1.376 . S
C661 C660 1.392 . S
C661 H673 0.929 . S
C662 C658 1.531 . S
C662 H674 0.960 . S
C662 H675 0.962 1_565 S
C662 H676 0.960 . S
C663 C660 1.511 . S
C663 H677 0.961 . S
C663 H678 0.961 1_565 S
C663 H679 0.961 . S
C664 C665 1.370 . S
C664 C666 1.363 . S
C664 H680 0.931 . S
C665 C664 1.370 . S
C665 C669 1.408 1_545 S
C666 C664 1.363 . S
C666 C667 1.354 1_545 S
C666 C670 1.524 . S
C667 C659 1.509 . S
C667 C666 1.354 1_565 S
C667 C668 1.414 . S
C668 C667 1.414 . S
C668 C669 1.404 . S
C668 C671 1.539 . S
C669 C665 1.408 1_565 S
C669 C668 1.404 . S
C669 H681 0.930 . S
C670 C666 1.524 . S
C670 H682 0.956 . S
C670 H683 0.961 . S
C670 H684 0.961 . S
C671 C668 1.539 . S
C671 H685 0.958 . S
C671 H686 0.961 . S
C671 H687 0.960 . S
H672 C656 0.931 . S
H673 C661 0.929 . S
H674 C662 0.960 . S
H675 C662 0.962 1_545 S
H676 C662 0.960 . S
H677 C663 0.961 . S
H678 C663 0.961 1_545 S
H679 C663 0.961 . S
H680 C664 0.931 . S
H681 C669 0.930 . S
H682 C670 0.956 . S
H683 C670 0.961 . S
H684 C670 0.961 . S
H685 C671 0.958 . S
H686 C671 0.961 . S
H687 C671 0.960 . S
C688 C689 1.391 . S
C688 C690 1.394 . S
C688 H704 0.931 . S
C689 C688 1.391 . S
C689 C693 1.376 . S
C690 C688 1.394 . S
C690 C691 1.369 . S
C690 C694 1.531 . S
C691 C690 1.369 . S
C691 C692 1.410 . S
C691 C699 1.503 1_556 S
C692 C691 1.410 . S
C692 C693 1.392 . S
C692 C695 1.511 . S
C693 C689 1.376 . S
C693 C692 1.392 . S
C693 H705 0.929 . S
C694 C690 1.531 . S
C694 H706 0.960 . S
C694 H707 0.962 . S
C694 H708 0.960 . S
C695 C692 1.511 . S
C695 H709 0.961 . S
C695 H710 0.961 1_556 S
C695 H711 0.961 1_556 S
C696 C697 1.370 . S
C696 C698 1.363 . S
C696 H712 0.931 . S
C697 C696 1.370 . S
C697 C701 1.408 . S
C698 C696 1.363 . S
C698 C699 1.370 . S
C698 C702 1.524 1_554 S
C699 C691 1.503 1_554 S
C699 C698 1.370 . S
C699 C700 1.403 . S
C700 C699 1.403 . S
C700 C701 1.404 . S
C700 C703 1.539 . S
C701 C697 1.408 . S
C701 C700 1.404 . S
C701 H713 0.930 . S
C702 C698 1.524 1_556 S
C702 H714 0.956 . S
C702 H715 0.961 . S
C702 H716 0.961 1_556 S
C703 C700 1.539 . S
C703 H717 0.958 . S
C703 H718 0.961 . S
C703 H719 0.960 . S
H704 C688 0.931 . S
H705 C693 0.929 . S
H706 C694 0.960 . S
H707 C694 0.962 . S
H708 C694 0.960 . S
H709 C695 0.961 . S
H710 C695 0.961 1_554 S
H711 C695 0.961 1_554 S
H712 C696 0.931 . S
H713 C701 0.930 . S
H714 C702 0.956 . S
H715 C702 0.961 . S
H716 C702 0.961 1_554 S
H717 C703 0.958 . S
H718 C703 0.961 . S
H719 C703 0.960 . S
C720 C721 1.391 . S
C720 C722 1.394 . S
C720 H736 0.931 . S
C721 C720 1.391 . S
C721 C725 1.335 1_655 S
C722 C720 1.394 . S
C722 C723 1.369 1_655 S
C722 C726 1.531 . S
C723 C722 1.369 1_455 S
C723 C724 1.410 . S
C723 C731 1.503 . S
C724 C723 1.410 . S
C724 C725 1.407 . S
C724 C727 1.511 . S
C725 C721 1.335 1_455 S
C725 C724 1.407 . S
C725 H737 0.957 . S
C726 C722 1.531 . S
C726 H738 0.960 . S
C726 H739 0.962 . S
C726 H740 0.960 . S
C727 C724 1.511 . S
C727 H741 0.961 . S
C727 H742 0.961 . S
C727 H743 0.961 . S
C728 C729 1.370 . S
C728 C730 1.363 1_455 S
C728 H744 0.931 1_455 S
C729 C728 1.370 . S
C729 C733 1.408 . S
C730 C728 1.363 1_655 S
C730 C731 1.370 1_655 S
C730 C734 1.524 . S
C731 C723 1.503 . S
C731 C730 1.370 1_455 S
C731 C732 1.403 . S
C732 C731 1.403 . S
C732 C733 1.404 . S
C732 C735 1.539 . S
C733 C729 1.408 . S
C733 C732 1.404 . S
C733 H745 0.930 . S
C734 C730 1.524 . S
C734 H746 0.956 . S
C734 H747 0.961 . S
C734 H748 0.961 . S
C735 C732 1.539 . S
C735 H749 0.958 . S
C735 H750 0.961 . S
C735 H751 0.960 . S
H736 C720 0.931 . S
H737 C725 0.957 . S
H738 C726 0.960 . S
H739 C726 0.962 . S
H740 C726 0.960 . S
H741 C727 0.961 . S
H742 C727 0.961 . S
H743 C727 0.961 . S
H744 C728 0.931 1_655 S
H745 C733 0.930 . S
H746 C734 0.956 . S
H747 C734 0.961 . S
H748 C734 0.961 . S
H749 C735 0.958 . S
H750 C735 0.961 . S
H751 C735 0.960 . S
C752 C753 1.391 . S
C752 C754 1.394 . S
C752 H768 0.931 . S
C753 C752 1.391 . S
C753 C757 1.376 . S
C754 C752 1.394 . S
C754 C755 1.369 . S
C754 C758 1.531 . S
C755 C754 1.369 . S
C755 C756 1.410 . S
C755 C763 1.502 1_556 S
C756 C755 1.410 . S
C756 C757 1.392 . S
C756 C759 1.511 1_545 S
C757 C753 1.376 . S
C757 C756 1.392 . S
C757 H769 0.929 . S
C758 C754 1.531 . S
C758 H770 0.960 1_556 S
C758 H771 0.962 . S
C758 H772 0.960 . S
C759 C756 1.511 1_565 S
C759 H773 0.961 . S
C759 H774 0.961 . S
C759 H775 0.961 1_565 S
C760 C761 1.370 . S
C760 C762 1.363 . S
C760 H776 0.931 . S
C761 C760 1.370 . S
C761 C765 1.408 1_565 S
C762 C760 1.363 . S
C762 C763 1.374 1_565 S
C762 C766 1.515 1_554 S
C763 C755 1.502 1_554 S
C763 C762 1.374 1_545 S
C763 C764 1.400 . S
C764 C763 1.400 . S
C764 C765 1.404 . S
C764 C767 1.539 . S
C765 C761 1.408 1_545 S
C765 C764 1.404 . S
C765 H777 0.930 . S
C766 C762 1.515 1_556 S
C766 H778 0.961 . S
C766 H779 0.970 . S
C766 H780 0.955 1_556 S
C767 C764 1.539 . S
C767 H781 0.958 . S
C767 H782 0.961 . S
C767 H783 0.960 . S
H768 C752 0.931 . S
H769 C757 0.929 . S
H770 C758 0.960 1_554 S
H771 C758 0.962 . S
H772 C758 0.960 . S
H773 C759 0.961 . S
H774 C759 0.961 . S
H775 C759 0.961 1_545 S
H776 C760 0.931 . S
H777 C765 0.930 . S
H778 C766 0.961 . S
H779 C766 0.970 . S
H780 C766 0.955 1_554 S
H781 C767 0.958 . S
H782 C767 0.961 . S
H783 C767 0.960 . S
C784 C785 1.391 . S
C784 C786 1.394 . S
C784 H800 0.931 . S
C785 C784 1.391 . S
C785 C789 1.376 . S
C786 C784 1.394 . S
C786 C787 1.369 . S
C786 C790 1.531 . S
C787 C786 1.369 . S
C787 C788 1.410 . S
C787 C795 1.503 . S
C788 C787 1.410 . S
C788 C789 1.392 . S
C788 C791 1.511 . S
C789 C785 1.376 . S
C789 C788 1.392 . S
C789 H801 0.929 . S
C790 C786 1.531 . S
C790 H802 0.960 . S
C790 H803 0.962 . S
C790 H804 0.960 . S
C791 C788 1.511 . S
C791 H805 0.961 . S
C791 H806 0.961 . S
C791 H807 0.961 . S
C792 C793 1.370 . S
C792 C794 1.363 . S
C792 H808 0.931 . S
C793 C792 1.370 . S
C793 C797 1.408 . S
C794 C792 1.363 . S
C794 C795 1.370 . S
C794 C798 1.524 . S
C795 C787 1.503 . S
C795 C794 1.370 . S
C795 C796 1.403 . S
C796 C795 1.403 . S
C796 C797 1.404 . S
C796 C799 1.539 . S
C797 C793 1.408 . S
C797 C796 1.404 . S
C797 H809 0.930 . S
C798 C794 1.524 . S
C798 H810 0.956 . S
C798 H811 0.961 . S
C798 H812 0.961 . S
C799 C796 1.539 . S
C799 H813 0.958 . S
C799 H814 0.961 . S
C799 H815 0.960 . S
H800 C784 0.931 . S
H801 C789 0.929 . S
H802 C790 0.960 . S
H803 C790 0.962 . S
H804 C790 0.960 . S
H805 C791 0.961 . S
H806 C791 0.961 . S
H807 C791 0.961 . S
H808 C792 0.931 . S
H809 C797 0.930 . S
H810 C798 0.956 . S
H811 C798 0.961 . S
H812 C798 0.961 . S
H813 C799 0.958 . S
H814 C799 0.961 . S
H815 C799 0.960 . S
C816 C817 1.391 . S
C816 C818 1.394 . S
C816 H832 0.931 . S
C817 C816 1.391 . S
C817 C821 1.376 . S
C818 C816 1.394 . S
C818 C819 1.369 . S
C818 C822 1.531 . S
C819 C818 1.369 . S
C819 C820 1.410 . S
C819 C827 1.503 . S
C820 C819 1.410 . S
C820 C821 1.392 . S
C820 C823 1.511 . S
C821 C817 1.376 . S
C821 C820 1.392 . S
C821 H833 0.929 . S
C822 C818 1.531 . S
C822 H834 0.960 . S
C822 H835 0.962 . S
C822 H836 0.960 . S
C823 C820 1.511 . S
C823 H837 0.961 . S
C823 H838 0.961 . S
C823 H839 0.961 . S
C824 C825 1.370 . S
C824 C826 1.363 . S
C824 H840 0.931 . S
C825 C824 1.370 . S
C825 C829 1.408 . S
C826 C824 1.363 . S
C826 C827 1.370 . S
C826 C830 1.524 . S
C827 C819 1.503 . S
C827 C826 1.370 . S
C827 C828 1.403 . S
C828 C827 1.403 . S
C828 C829 1.404 . S
C828 C831 1.560 . S
C829 C825 1.408 . S
C829 C828 1.404 . S
C829 H841 0.930 . S
C830 C826 1.524 . S
C830 H842 0.956 . S
C830 H843 0.961 . S
C830 H844 0.961 . S
C831 C828 1.560 . S
C831 H845 0.948 1_455 S
C831 H846 0.958 1_455 S
C831 H847 0.952 . S
H832 C816 0.931 . S
H833 C821 0.929 . S
H834 C822 0.960 . S
H835 C822 0.962 . S
H836 C822 0.960 . S
H837 C823 0.961 . S
H838 C823 0.961 . S
H839 C823 0.961 . S
H840 C824 0.931 . S
H841 C829 0.930 . S
H842 C830 0.956 . S
H843 C830 0.961 . S
H844 C830 0.961 . S
H845 C831 0.948 1_655 S
H846 C831 0.958 1_655 S
H847 C831 0.952 . S
C848 C849 1.391 . S
C848 C850 1.394 . S
C848 H864 0.931 . S
C849 C848 1.391 . S
C849 C853 1.376 . S
C850 C848 1.394 . S
C850 C851 1.369 . S
C850 C854 1.531 . S
C851 C850 1.369 . S
C851 C852 1.410 . S
C851 C859 1.503 . S
C852 C851 1.410 . S
C852 C853 1.392 . S
C852 C855 1.511 . S
C853 C849 1.376 . S
C853 C852 1.392 . S
C853 H865 0.929 . S
C854 C850 1.531 . S
C854 H866 0.960 . S
C854 H867 0.962 . S
C854 H868 0.960 . S
C855 C852 1.511 . S
C855 H869 0.961 . S
C855 H870 0.961 . S
C855 H871 0.961 1_545 S
C856 C857 1.370 . S
C856 C858 1.363 . S
C856 H872 0.931 . S
C857 C856 1.370 . S
C857 C861 1.408 . S
C858 C856 1.363 . S
C858 C859 1.370 . S
C858 C862 1.524 . S
C859 C851 1.503 . S
C859 C858 1.370 . S
C859 C860 1.403 . S
C860 C859 1.403 . S
C860 C861 1.404 . S
C860 C863 1.516 1_545 S
C861 C857 1.408 . S
C861 C860 1.404 . S
C861 H873 0.930 . S
C862 C858 1.524 . S
C862 H874 0.956 . S
C862 H875 0.961 . S
C862 H876 0.961 . S
C863 C860 1.516 1_565 S
C863 H877 0.949 1_565 S
C863 H878 1.010 . S
C863 H879 0.947 . S
H864 C848 0.931 . S
H865 C853 0.929 . S
H866 C854 0.960 . S
H867 C854 0.962 . S
H868 C854 0.960 . S
H869 C855 0.961 . S
H870 C855 0.961 . S
H871 C855 0.961 1_565 S
H872 C856 0.931 . S
H873 C861 0.930 . S
H874 C862 0.956 . S
H875 C862 0.961 . S
H876 C862 0.961 . S
H877 C863 0.949 1_545 S
H878 C863 1.010 . S
H879 C863 0.947 . S
C880 C881 1.391 . S
C880 C882 1.394 . S
C880 H896 0.931 . S
C881 C880 1.391 . S
C881 C885 1.376 . S
C882 C880 1.394 . S
C882 C883 1.369 . S
C882 C886 1.531 . S
C883 C882 1.369 . S
C883 C884 1.410 . S
C883 C891 1.503 . S
C884 C883 1.410 . S
C884 C885 1.392 . S
C884 C887 1.511 . S
C885 C881 1.376 . S
C885 C884 1.392 . S
C885 H897 0.929 . S
C886 C882 1.531 . S
C886 H898 0.960 . S
C886 H899 0.962 . S
C886 H900 0.960 . S
C887 C884 1.511 . S
C887 H901 0.961 . S
C887 H902 0.961 . S
C887 H903 0.961 . S
C888 C889 1.370 . S
C888 C890 1.363 . S
C888 H904 0.931 . S
C889 C888 1.370 . S
C889 C893 1.408 . S
C890 C888 1.363 . S
C890 C891 1.370 . S
C890 C894 1.524 . S
C891 C883 1.503 . S
C891 C890 1.370 . S
C891 C892 1.403 . S
C892 C891 1.403 . S
C892 C893 1.404 . S
C892 C895 1.539 . S
C893 C889 1.408 . S
C893 C892 1.404 . S
C893 H905 0.930 . S
C894 C890 1.524 . S
C894 H906 0.956 . S
C894 H907 0.961 . S
C894 H908 0.961 . S
C895 C892 1.539 . S
C895 H909 0.958 . S
C895 H910 0.961 . S
C895 H911 0.960 . S
H896 C880 0.931 . S
H897 C885 0.929 . S
H898 C886 0.960 . S
H899 C886 0.962 . S
H900 C886 0.960 . S
H901 C887 0.961 . S
H902 C887 0.961 . S
H903 C887 0.961 . S
H904 C888 0.931 . S
H905 C893 0.930 . S
H906 C894 0.956 . S
H907 C894 0.961 . S
H908 C894 0.961 . S
H909 C895 0.958 . S
H910 C895 0.961 . S
H911 C895 0.960 . S
C912 C913 1.391 . S
C912 C914 1.394 . S
C912 H928 0.931 . S
C913 C912 1.391 . S
C913 C917 1.376 . S
C914 C912 1.394 . S
C914 C915 1.369 . S
C914 C918 1.531 . S
C915 C914 1.369 . S
C915 C916 1.410 . S
C915 C923 1.503 . S
C916 C915 1.410 . S
C916 C917 1.392 . S
C916 C919 1.511 . S
C917 C913 1.376 . S
C917 C916 1.392 . S
C917 H929 0.929 . S
C918 C914 1.531 . S
C918 H930 0.960 . S
C918 H931 0.962 . S
C918 H932 0.960 1_655 S
C919 C916 1.511 . S
C919 H933 0.961 . S
C919 H934 0.961 . S
C919 H935 0.961 . S
C920 C921 1.370 . S
C920 C922 1.363 . S
C920 H936 0.931 . S
C921 C920 1.370 . S
C921 C925 1.408 . S
C922 C920 1.363 . S
C922 C923 1.370 . S
C922 C926 1.524 . S
C923 C915 1.503 . S
C923 C922 1.370 . S
C923 C924 1.403 . S
C924 C923 1.403 . S
C924 C925 1.404 . S
C924 C927 1.539 . S
C925 C921 1.408 . S
C925 C924 1.404 . S
C925 H937 0.930 . S
C926 C922 1.524 . S
C926 H938 0.956 . S
C926 H939 0.961 . S
C926 H940 0.961 . S
C927 C924 1.539 . S
C927 H941 0.976 . S
C927 H942 0.961 . S
C927 H943 0.960 . S
H928 C912 0.931 . S
H929 C917 0.929 . S
H930 C918 0.960 . S
H931 C918 0.962 . S
H932 C918 0.960 1_455 S
H933 C919 0.961 . S
H934 C919 0.961 . S
H935 C919 0.961 . S
H936 C920 0.931 . S
H937 C925 0.930 . S
H938 C926 0.956 . S
H939 C926 0.961 . S
H940 C926 0.961 . S
H941 C927 0.976 . S
H942 C927 0.961 . S
H943 C927 0.960 . S
C944 C945 1.391 . S
C944 C946 1.394 . S
C944 H960 0.931 . S
C945 C944 1.391 . S
C945 C949 1.376 . S
C946 C944 1.394 . S
C946 C947 1.369 . S
C946 C950 1.531 1_565 S
C947 C946 1.369 . S
C947 C948 1.410 . S
C947 C955 1.503 . S
C948 C947 1.410 . S
C948 C949 1.392 . S
C948 C951 1.511 . S
C949 C945 1.376 . S
C949 C948 1.392 . S
C949 H961 0.929 . S
C950 C946 1.531 1_545 S
C950 H962 0.960 . S
C950 H963 0.962 . S
C950 H964 0.960 . S
C951 C948 1.511 . S
C951 H965 0.961 . S
C951 H966 0.961 . S
C951 H967 0.961 . S
C952 C953 1.370 . S
C952 C954 1.363 . S
C952 H968 0.931 . S
C953 C952 1.370 . S
C953 C957 1.408 . S
C954 C952 1.363 . S
C954 C955 1.370 . S
C954 C958 1.524 . S
C955 C947 1.503 . S
C955 C954 1.370 . S
C955 C956 1.403 . S
C956 C955 1.403 . S
C956 C957 1.404 . S
C956 C959 1.539 . S
C957 C953 1.408 . S
C957 C956 1.404 . S
C957 H969 0.930 . S
C958 C954 1.524 . S
C958 H970 0.956 . S
C958 H971 0.961 . S
C958 H972 0.961 . S
C959 C956 1.539 . S
C959 H973 0.958 . S
C959 H974 0.961 . S
C959 H975 0.960 . S
H960 C944 0.931 . S
H961 C949 0.929 . S
H962 C950 0.960 . S
H963 C950 0.962 . S
H964 C950 0.960 . S
H965 C951 0.961 . S
H966 C951 0.961 . S
H967 C951 0.961 . S
H968 C952 0.931 . S
H969 C957 0.930 . S
H970 C958 0.956 . S
H971 C958 0.961 . S
H972 C958 0.961 . S
H973 C959 0.958 . S
H974 C959 0.961 . S
H975 C959 0.960 . S
C976 C977 1.391 . S
C976 C978 1.394 . S
C976 H992 0.931 . S
C977 C976 1.391 . S
C977 C981 1.376 . S
C978 C976 1.394 . S
C978 C979 1.369 . S
C978 C982 1.531 . S
C979 C978 1.369 . S
C979 C980 1.410 . S
C979 C987 1.503 . S
C980 C979 1.410 . S
C980 C981 1.392 . S
C980 C983 1.511 . S
C981 C977 1.376 . S
C981 C980 1.392 . S
C981 H993 0.929 . S
C982 C978 1.531 . S
C982 H994 0.960 . S
C982 H995 0.962 . S
C982 H996 0.960 . S
C983 C980 1.511 . S
C983 H997 0.961 . S
C983 H998 0.961 . S
C983 H999 0.961 . S
C984 C985 1.370 . S
C984 C986 1.363 . S
C984 H1000 0.931 . S
C985 C984 1.370 . S
C985 C989 1.408 . S
C986 C984 1.363 . S
C986 C987 1.370 . S
C986 C990 1.524 . S
C987 C979 1.503 . S
C987 C986 1.370 . S
C987 C988 1.403 . S
C988 C987 1.403 . S
C988 C989 1.404 . S
C988 C991 1.539 . S
C989 C985 1.408 . S
C989 C988 1.404 . S
C989 H1001 0.930 . S
C990 C986 1.524 . S
C990 H1002 0.956 . S
C990 H1003 0.961 . S
C990 H1004 0.961 . S
C991 C988 1.539 . S
C991 H1005 0.958 . S
C991 H1006 0.961 . S
C991 H1007 0.960 . S
H992 C976 0.931 . S
H993 C981 0.929 . S
H994 C982 0.960 . S
H995 C982 0.962 . S
H996 C982 0.960 . S
H997 C983 0.961 . S
H998 C983 0.961 . S
H999 C983 0.961 . S
H1000 C984 0.931 . S
H1001 C989 0.930 . S
H1002 C990 0.956 . S
H1003 C990 0.961 . S
H1004 C990 0.961 . S
H1005 C991 0.958 . S
H1006 C991 0.961 . S
H1007 C991 0.960 . S
C1008 C1009 1.391 . S
C1008 C1010 1.394 . S
C1008 H1024 0.931 . S
C1009 C1008 1.391 . S
C1009 C1013 1.376 . S
C1010 C1008 1.394 . S
C1010 C1011 1.369 . S
C1010 C1014 1.531 . S
C1011 C1010 1.369 . S
C1011 C1012 1.410 . S
C1011 C1019 1.503 . S
C1012 C1011 1.410 . S
C1012 C1013 1.392 . S
C1012 C1015 1.511 . S
C1013 C1009 1.376 . S
C1013 C1012 1.392 . S
C1013 H1025 0.929 . S
C1014 C1010 1.531 . S
C1014 H1026 0.960 . S
C1014 H1027 0.962 . S
C1014 H1028 0.960 . S
C1015 C1012 1.511 . S
C1015 H1029 0.961 . S
C1015 H1030 0.961 . S
C1015 H1031 0.961 . S
C1016 C1017 1.370 . S
C1016 C1018 1.363 . S
C1016 H1032 0.931 . S
C1017 C1016 1.370 . S
C1017 C1021 1.408 . S
C1018 C1016 1.363 . S
C1018 C1019 1.370 . S
C1018 C1022 1.524 . S
C1019 C1011 1.503 . S
C1019 C1018 1.370 . S
C1019 C1020 1.403 . S
C1020 C1019 1.403 . S
C1020 C1021 1.404 . S
C1020 C1023 1.539 . S
C1021 C1017 1.408 . S
C1021 C1020 1.404 . S
C1021 H1033 0.930 . S
C1022 C1018 1.524 . S
C1022 H1034 0.956 . S
C1022 H1035 0.961 . S
C1022 H1036 0.961 . S
C1023 C1020 1.539 . S
C1023 H1037 0.958 . S
C1023 H1038 0.961 . S
C1023 H1039 0.960 . S
H1024 C1008 0.931 . S
H1025 C1013 0.929 . S
H1026 C1014 0.960 . S
H1027 C1014 0.962 . S
H1028 C1014 0.960 . S
H1029 C1015 0.961 . S
H1030 C1015 0.961 . S
H1031 C1015 0.961 . S
H1032 C1016 0.931 . S
H1033 C1021 0.930 . S
H1034 C1022 0.956 . S
H1035 C1022 0.961 . S
H1036 C1022 0.961 . S
H1037 C1023 0.958 . S
H1038 C1023 0.961 . S
H1039 C1023 0.960 . S
C1040 C1041 1.391 . S
C1040 C1042 1.394 . S
C1040 H1056 0.931 . S
C1041 C1040 1.391 . S
C1041 C1045 1.376 . S
C1042 C1040 1.394 . S
C1042 C1043 1.369 . S
C1042 C1046 1.531 . S
C1043 C1042 1.369 . S
C1043 C1044 1.410 . S
C1043 C1051 1.503 . S
C1044 C1043 1.410 . S
C1044 C1045 1.392 . S
C1044 C1047 1.511 . S
C1045 C1041 1.376 . S
C1045 C1044 1.392 . S
C1045 H1057 0.929 . S
C1046 C1042 1.531 . S
C1046 H1058 0.960 . S
C1046 H1059 0.962 . S
C1046 H1060 0.960 . S
C1047 C1044 1.511 . S
C1047 H1061 0.961 . S
C1047 H1062 0.961 . S
C1047 H1063 0.961 . S
C1048 C1049 1.370 . S
C1048 C1050 1.363 . S
C1048 H1064 0.931 . S
C1049 C1048 1.370 . S
C1049 C1053 1.408 . S
C1050 C1048 1.363 . S
C1050 C1051 1.370 . S
C1050 C1054 1.524 . S
C1051 C1043 1.503 . S
C1051 C1050 1.370 . S
C1051 C1052 1.403 . S
C1052 C1051 1.403 . S
C1052 C1053 1.404 . S
C1052 C1055 1.539 . S
C1053 C1049 1.408 . S
C1053 C1052 1.404 . S
C1053 H1065 0.930 . S
C1054 C1050 1.524 . S
C1054 H1066 0.956 . S
C1054 H1067 0.961 . S
C1054 H1068 0.961 . S
C1055 C1052 1.539 . S
C1055 H1069 0.958 . S
C1055 H1070 0.961 . S
C1055 H1071 0.960 . S
H1056 C1040 0.931 . S
H1057 C1045 0.929 . S
H1058 C1046 0.960 . S
H1059 C1046 0.962 . S
H1060 C1046 0.960 . S
H1061 C1047 0.961 . S
H1062 C1047 0.961 . S
H1063 C1047 0.961 . S
H1064 C1048 0.931 . S
H1065 C1053 0.930 . S
H1066 C1054 0.956 . S
H1067 C1054 0.961 . S
H1068 C1054 0.961 . S
H1069 C1055 0.958 . S
H1070 C1055 0.961 . S
H1071 C1055 0.960 . S
C1072 C1073 1.391 . S
C1072 C1074 1.394 . S
C1072 H1088 0.931 . S
C1073 C1072 1.391 . S
C1073 C1077 1.376 . S
C1074 C1072 1.394 . S
C1074 C1075 1.369 . S
C1074 C1078 1.531 . S
C1075 C1074 1.369 . S
C1075 C1076 1.410 . S
C1075 C1083 1.503 . S
C1076 C1075 1.410 . S
C1076 C1077 1.392 . S
C1076 C1079 1.511 . S
C1077 C1073 1.376 . S
C1077 C1076 1.392 . S
C1077 H1089 0.929 . S
C1078 C1074 1.531 . S
C1078 H1090 0.960 . S
C1078 H1091 0.962 . S
C1078 H1092 0.960 . S
C1079 C1076 1.511 . S
C1079 H1093 0.961 . S
C1079 H1094 0.961 . S
C1079 H1095 0.961 . S
C1080 C1081 1.370 . S
C1080 C1082 1.363 . S
C1080 H1096 0.931 . S
C1081 C1080 1.370 . S
C1081 C1085 1.408 . S
C1082 C1080 1.363 . S
C1082 C1083 1.370 . S
C1082 C1086 1.524 . S
C1083 C1075 1.503 . S
C1083 C1082 1.370 . S
C1083 C1084 1.403 . S
C1084 C1083 1.403 . S
C1084 C1085 1.404 . S
C1084 C1087 1.539 . S
C1085 C1081 1.408 . S
C1085 C1084 1.404 . S
C1085 H1097 0.930 . S
C1086 C1082 1.524 . S
C1086 H1098 0.956 . S
C1086 H1099 0.961 . S
C1086 H1100 0.961 . S
C1087 C1084 1.539 . S
C1087 H1101 0.958 . S
C1087 H1102 0.961 . S
C1087 H1103 0.960 . S
H1088 C1072 0.931 . S
H1089 C1077 0.929 . S
H1090 C1078 0.960 . S
H1091 C1078 0.962 . S
H1092 C1078 0.960 . S
H1093 C1079 0.961 . S
H1094 C1079 0.961 . S
H1095 C1079 0.961 . S
H1096 C1080 0.931 . S
H1097 C1085 0.930 . S
H1098 C1086 0.956 . S
H1099 C1086 0.961 . S
H1100 C1086 0.961 . S
H1101 C1087 0.958 . S
H1102 C1087 0.961 . S
H1103 C1087 0.960 . S
C1104 C1105 1.391 . S
C1104 C1106 1.394 . S
C1104 H1120 0.931 . S
C1105 C1104 1.391 . S
C1105 C1109 1.376 . S
C1106 C1104 1.394 . S
C1106 C1107 1.369 . S
C1106 C1110 1.531 . S
C1107 C1106 1.369 . S
C1107 C1108 1.410 . S
C1107 C1115 1.503 . S
C1108 C1107 1.410 . S
C1108 C1109 1.392 . S
C1108 C1111 1.511 . S
C1109 C1105 1.376 . S
C1109 C1108 1.392 . S
C1109 H1121 0.929 . S
C1110 C1106 1.531 . S
C1110 H1122 0.960 . S
C1110 H1123 0.962 . S
C1110 H1124 0.960 . S
C1111 C1108 1.511 . S
C1111 H1125 0.961 . S
C1111 H1126 0.961 . S
C1111 H1127 0.961 . S
C1112 C1113 1.370 . S
C1112 C1114 1.363 . S
C1112 H1128 0.931 . S
C1113 C1112 1.370 . S
C1113 C1117 1.408 . S
C1114 C1112 1.363 . S
C1114 C1115 1.370 . S
C1114 C1118 1.524 . S
C1115 C1107 1.503 . S
C1115 C1114 1.370 . S
C1115 C1116 1.403 . S
C1116 C1115 1.403 . S
C1116 C1117 1.404 . S
C1116 C1119 1.539 . S
C1117 C1113 1.408 . S
C1117 C1116 1.404 . S
C1117 H1129 0.930 . S
C1118 C1114 1.524 . S
C1118 H1130 0.956 . S
C1118 H1131 0.961 . S
C1118 H1132 0.961 . S
C1119 C1116 1.539 . S
C1119 H1133 0.958 . S
C1119 H1134 0.961 . S
C1119 H1135 0.960 . S
H1120 C1104 0.931 . S
H1121 C1109 0.929 . S
H1122 C1110 0.960 . S
H1123 C1110 0.962 . S
H1124 C1110 0.960 . S
H1125 C1111 0.961 . S
H1126 C1111 0.961 . S
H1127 C1111 0.961 . S
H1128 C1112 0.931 . S
H1129 C1117 0.930 . S
H1130 C1118 0.956 . S
H1131 C1118 0.961 . S
H1132 C1118 0.961 . S
H1133 C1119 0.958 . S
H1134 C1119 0.961 . S
H1135 C1119 0.960 . S
C1136 C1137 1.391 . S
C1136 C1138 1.394 . S
C1136 H1152 0.931 . S
C1137 C1136 1.391 . S
C1137 C1141 1.376 . S
C1138 C1136 1.394 . S
C1138 C1139 1.369 . S
C1138 C1142 1.531 . S
C1139 C1138 1.369 . S
C1139 C1140 1.410 . S
C1139 C1147 1.503 . S
C1140 C1139 1.410 . S
C1140 C1141 1.392 . S
C1140 C1143 1.511 . S
C1141 C1137 1.376 . S
C1141 C1140 1.392 . S
C1141 H1153 0.929 . S
C1142 C1138 1.531 . S
C1142 H1154 0.960 . S
C1142 H1155 0.962 . S
C1142 H1156 0.960 . S
C1143 C1140 1.511 . S
C1143 H1157 0.961 . S
C1143 H1158 0.961 . S
C1143 H1159 0.961 . S
C1144 C1145 1.370 . S
C1144 C1146 1.363 . S
C1144 H1160 0.931 . S
C1145 C1144 1.370 . S
C1145 C1149 1.408 . S
C1146 C1144 1.363 . S
C1146 C1147 1.370 . S
C1146 C1150 1.524 . S
C1147 C1139 1.503 . S
C1147 C1146 1.370 . S
C1147 C1148 1.403 . S
C1148 C1147 1.403 . S
C1148 C1149 1.404 . S
C1148 C1151 1.539 . S
C1149 C1145 1.408 . S
C1149 C1148 1.404 . S
C1149 H1161 0.930 . S
C1150 C1146 1.524 . S
C1150 H1162 0.956 . S
C1150 H1163 0.961 . S
C1150 H1164 0.961 . S
C1151 C1148 1.539 . S
C1151 H1165 0.958 . S
C1151 H1166 0.961 . S
C1151 H1167 0.960 . S
H1152 C1136 0.931 . S
H1153 C1141 0.929 . S
H1154 C1142 0.960 . S
H1155 C1142 0.962 . S
H1156 C1142 0.960 . S
H1157 C1143 0.961 . S
H1158 C1143 0.961 . S
H1159 C1143 0.961 . S
H1160 C1144 0.931 . S
H1161 C1149 0.930 . S
H1162 C1150 0.956 . S
H1163 C1150 0.961 . S
H1164 C1150 0.961 . S
H1165 C1151 0.958 . S
H1166 C1151 0.961 . S
H1167 C1151 0.960 . S
C1168 C1169 1.391 . S
C1168 C1170 1.394 . S
C1168 H1184 0.931 . S
C1169 C1168 1.391 . S
C1169 C1173 1.376 . S
C1170 C1168 1.394 . S
C1170 C1171 1.369 . S
C1170 C1174 1.531 . S
C1171 C1170 1.369 . S
C1171 C1172 1.410 . S
C1171 C1179 1.503 . S
C1172 C1171 1.410 . S
C1172 C1173 1.392 . S
C1172 C1175 1.511 . S
C1173 C1169 1.376 . S
C1173 C1172 1.392 . S
C1173 H1185 0.929 . S
C1174 C1170 1.531 . S
C1174 H1186 0.960 . S
C1174 H1187 0.962 . S
C1174 H1188 0.960 . S
C1175 C1172 1.511 . S
C1175 H1189 0.961 . S
C1175 H1190 0.961 . S
C1175 H1191 0.961 . S
C1176 C1177 1.370 . S
C1176 C1178 1.363 . S
C1176 H1192 0.931 . S
C1177 C1176 1.370 . S
C1177 C1181 1.408 . S
C1178 C1176 1.363 . S
C1178 C1179 1.370 . S
C1178 C1182 1.524 . S
C1179 C1171 1.503 . S
C1179 C1178 1.370 . S
C1179 C1180 1.403 . S
C1180 C1179 1.403 . S
C1180 C1181 1.404 . S
C1180 C1183 1.539 . S
C1181 C1177 1.408 . S
C1181 C1180 1.404 . S
C1181 H1193 0.930 . S
C1182 C1178 1.524 . S
C1182 H1194 0.956 . S
C1182 H1195 0.961 . S
C1182 H1196 0.961 . S
C1183 C1180 1.539 . S
C1183 H1197 0.958 . S
C1183 H1198 0.961 . S
C1183 H1199 0.960 . S
H1184 C1168 0.931 . S
H1185 C1173 0.929 . S
H1186 C1174 0.960 . S
H1187 C1174 0.962 . S
H1188 C1174 0.960 . S
H1189 C1175 0.961 . S
H1190 C1175 0.961 . S
H1191 C1175 0.961 . S
H1192 C1176 0.931 . S
H1193 C1181 0.930 . S
H1194 C1182 0.956 . S
H1195 C1182 0.961 . S
H1196 C1182 0.961 . S
H1197 C1183 0.958 . S
H1198 C1183 0.961 . S
H1199 C1183 0.960 . S
C433 C3 1.321 . S
C441 C398 1.312 . S
C465 C218 1.446 . S
C473 C38 1.471 . S
C497 C74 1.317 . S
C505 C255 1.330 . S
C529 C290 1.317 . S
C537 C111 1.324 . S
C561 C326 1.470 . S
C569 C146 1.447 . S
C593 C363 1.317 . S
C601 C182 1.309 . S
C625 C112 1.219 . S
C633 C302 1.260 . S
C657 C158 1.373 . S
C665 C338 1.391 . S
C689 C194 1.233 . S
C697 C364 1.252 . S
C721 C410 1.267 . S
C729 C4 1.233 . S
C753 C50 1.381 . S
C761 C230 1.393 . S
C785 C86 1.236 . S
C793 C256 1.251 . S
C817 C291 1.605 . S
C825 C2 1.587 . S
C849 C327 1.590 . S
C857 C39 1.588 . S
C881 C75 1.604 . S
C889 C362 1.595 . S
C913 C110 1.577 . S
C921 C399 1.609 . S
C945 C147 1.579 . S
C953 C219 1.590 . S
C977 C254 1.599 . S
C985 C183 1.606 . S
C1009 C14 1.477 . S
C1017 C374 1.442 . S
C1041 C400 1.536 . S
C1049 C40 1.540 . S
C1073 C76 1.533 . S
C1081 C220 1.541 . S
C1105 C122 1.451 . S
C1113 C266 1.442 . S
C1137 C148 1.532 . S
C1145 C292 1.540 . S
C1169 C184 1.533 . S
C1177 C328 1.540 . S
