# Generated by pormake.
# Topology uof, (4)-cn, num edge types: 1
# Building blocks:
#     Node 0, Type 0, BuildingBlock: NAHDIM_clean_sbu_0, # of connection points: 4
#     Node 1, Type 0, BuildingBlock: NAHDIM_clean_sbu_0, # of connection points: 4
#     Node 2, Type 0, BuildingBlock: NAHDIM_clean_sbu_0, # of connection points: 4
#     Node 3, Type 0, BuildingBlock: NAHDIM_clean_sbu_0, # of connection points: 4
#     Node 4, Type 0, BuildingBlock: NAHDIM_clean_sbu_0, # of connection points: 4
#     Node 5, Type 0, BuildingBlock: NAHDIM_clean_sbu_0, # of connection points: 4
#     Node 6, Type 0, BuildingBlock: NAHDIM_clean_sbu_0, # of connection points: 4
#     Node 7, Type 0, BuildingBlock: NAHDIM_clean_sbu_0, # of connection points: 4
#     Node 8, Type 0, BuildingBlock: NAHDIM_clean_sbu_0, # of connection points: 4
#     Node 9, Type 0, BuildingBlock: NAHDIM_clean_sbu_0, # of connection points: 4
#     Node 10, Type 0, BuildingBlock: NAHDIM_clean_sbu_0, # of connection points: 4
#     Node 11, Type 0, BuildingBlock: NAHDIM_clean_sbu_0, # of connection points: 4
#     Edge 12, Type (0, 0), BuildingBlock: ZUJKAS_clean_linker_0, # of connection points: 2
#     Edge 13, Type (0, 0), BuildingBlock: ZUJKAS_clean_linker_0, # of connection points: 2
#     Edge 14, Type (0, 0), BuildingBlock: ZUJKAS_clean_linker_0, # of connection points: 2
#     Edge 15, Type (0, 0), BuildingBlock: ZUJKAS_clean_linker_0, # of connection points: 2
#     Edge 16, Type (0, 0), BuildingBlock: ZUJKAS_clean_linker_0, # of connection points: 2
#     Edge 17, Type (0, 0), BuildingBlock: ZUJKAS_clean_linker_0, # of connection points: 2
#     Edge 18, Type (0, 0), BuildingBlock: ZUJKAS_clean_linker_0, # of connection points: 2
#     Edge 19, Type (0, 0), BuildingBlock: ZUJKAS_clean_linker_0, # of connection points: 2
#     Edge 20, Type (0, 0), BuildingBlock: ZUJKAS_clean_linker_0, # of connection points: 2
#     Edge 21, Type (0, 0), BuildingBlock: ZUJKAS_clean_linker_0, # of connection points: 2
#     Edge 22, Type (0, 0), BuildingBlock: ZUJKAS_clean_linker_0, # of connection points: 2
#     Edge 23, Type (0, 0), BuildingBlock: ZUJKAS_clean_linker_0, # of connection points: 2
#     Edge 24, Type (0, 0), BuildingBlock: ZUJKAS_clean_linker_0, # of connection points: 2
#     Edge 25, Type (0, 0), BuildingBlock: ZUJKAS_clean_linker_0, # of connection points: 2
#     Edge 26, Type (0, 0), BuildingBlock: ZUJKAS_clean_linker_0, # of connection points: 2
#     Edge 27, Type (0, 0), BuildingBlock: ZUJKAS_clean_linker_0, # of connection points: 2
#     Edge 28, Type (0, 0), BuildingBlock: ZUJKAS_clean_linker_0, # of connection points: 2
#     Edge 29, Type (0, 0), BuildingBlock: ZUJKAS_clean_linker_0, # of connection points: 2
#     Edge 30, Type (0, 0), BuildingBlock: ZUJKAS_clean_linker_0, # of connection points: 2
#     Edge 31, Type (0, 0), BuildingBlock: ZUJKAS_clean_linker_0, # of connection points: 2
#     Edge 32, Type (0, 0), BuildingBlock: ZUJKAS_clean_linker_0, # of connection points: 2
#     Edge 33, Type (0, 0), BuildingBlock: ZUJKAS_clean_linker_0, # of connection points: 2
#     Edge 34, Type (0, 0), BuildingBlock: ZUJKAS_clean_linker_0, # of connection points: 2
#     Edge 35, Type (0, 0), BuildingBlock: ZUJKAS_clean_linker_0, # of connection points: 2
# Relax obj value: 0.221
# Max RMSD: 0.169
# Mean RMSD: 0.169
data_MOF--net-uof--node1-NAHDIM_clean_sbu_0--edge1-ZUJKAS_clean_linker_0
_symmetry_space_group_name_H-M    P1
_symmetry_Int_Tables_number       1
_symmetry_cell_setting            triclinic
loop_
_symmetry_equiv_pos_as_xyz
'x, y, z'
_cell_length_a     41.955165
_cell_length_b     42.011901
_cell_length_c     78.475579
_cell_angle_alpha  90.023871
_cell_angle_beta   89.981732
_cell_angle_gamma 120.01663
loop_
_atom_site_label
_atom_site_type_symbol
_atom_site_fract_x
_atom_site_fract_y
_atom_site_fract_z
_atom_type_partial_charge
C0 C 0.15472 0.31179 0.21084 0.0
O1 O 0.15322 0.28859 0.22248 0.0
O2 O 0.22963 0.32148 0.23729 0.0
Zn3 Zn 0.23045 0.33264 0.21227 0.0
O4 O 0.22933 0.29014 0.19983 0.0
C5 C 0.29489 0.40391 0.21781 0.0
O6 O 0.27898 0.40163 0.23254 0.0
O7 O 0.18593 0.33542 0.20492 0.0
C8 C 0.2567 0.293 0.19156 0.0
O9 O 0.28691 0.32515 0.19051 0.0
C10 C 0.25653 0.31812 0.24247 0.0
O11 O 0.28232 0.32296 0.23154 0.0
O12 O 0.27804 0.37879 0.2068 0.0
C13 C 0.85227 0.15977 0.54262 0.0
O14 O 0.87915 0.1589 0.55079 0.0
O15 O 0.91044 0.23466 0.5728 0.0
Zn16 Zn 0.90211 0.2349 0.54741 0.0
O17 O 0.94392 0.23409 0.53534 0.0
C18 C 0.90043 0.30216 0.55206 0.0
O19 O 0.88853 0.28849 0.56732 0.0
O20 O 0.85473 0.19073 0.53988 0.0
C21 C 0.97524 0.2632 0.53511 0.0
O22 O 0.97914 0.29302 0.54249 0.0
C23 C 0.93268 0.22524 0.5788 0.0
O24 O 0.94864 0.21299 0.5684 0.0
O25 O 0.90528 0.28277 0.54107 0.0
C26 C 0.6694 0.84024 0.87705 0.0
O27 O 0.67772 0.84847 0.89319 0.0
O28 O 0.67849 0.91569 0.90197 0.0
Zn29 Zn 0.66558 0.90734 0.8769 0.0
O30 O 0.70638 0.94927 0.86414 0.0
C31 C 0.59758 0.90623 0.88437 0.0
O32 O 0.60114 0.89412 0.89928 0.0
O33 O 0.66146 0.86042 0.86801 0.0
C34 C 0.71175 0.98142 0.86682 0.0
O35 O 0.68995 0.98574 0.87742 0.0
C36 C 0.71191 0.93479 0.90664 0.0
O37 O 0.73807 0.94661 0.89511 0.0
O38 O 0.6204 0.91111 0.87261 0.0
C39 C 0.83042 0.66951 0.21189 0.0
O40 O 0.83634 0.68597 0.22674 0.0
O41 O 0.76628 0.67418 0.24092 0.0
Zn42 Zn 0.7614 0.66766 0.21541 0.0
O43 O 0.76838 0.71453 0.20508 0.0
C44 C 0.68576 0.63736 0.21616 0.0
O45 O 0.69812 0.66923 0.22381 0.0
O46 O 0.7991 0.65718 0.20488 0.0
C47 C 0.75246 0.71415 0.19126 0.0
O48 O 0.73235 0.68281 0.18328 0.0
C49 C 0.78263 0.70594 0.24769 0.0
O50 O 0.7998 0.73502 0.23787 0.0
O51 O 0.70887 0.62842 0.21084 0.0
C52 C 0.14479 0.8362 0.54422 0.0
O53 O 0.11826 0.83716 0.55268 0.0
O54 O 0.08746 0.76162 0.57484 0.0
Zn55 Zn 0.09485 0.76141 0.54934 0.0
O56 O 0.05305 0.76307 0.53778 0.0
C57 C 0.09488 0.6932 0.55341 0.0
O58 O 0.10726 0.70646 0.56868 0.0
O59 O 0.14224 0.8052 0.54146 0.0
C60 C 0.02084 0.73558 0.53939 0.0
O61 O 0.01624 0.70708 0.54828 0.0
C62 C 0.06673 0.77257 0.58122 0.0
O63 O 0.05187 0.78658 0.57117 0.0
O64 O 0.09028 0.71311 0.54264 0.0
C65 C 0.29809 0.14051 0.88283 0.0
O66 O 0.26931 0.11212 0.88963 0.0
O67 O 0.31428 0.08201 0.91421 0.0
Zn68 Zn 0.32517 0.09255 0.88902 0.0
O69 O 0.28399 0.05131 0.87603 0.0
C70 C 0.39373 0.09292 0.89409 0.0
O71 O 0.39048 0.10167 0.90982 0.0
O72 O 0.32798 0.13989 0.88165 0.0
C73 C 0.28138 0.01986 0.87634 0.0
O74 O 0.30597 0.01562 0.88485 0.0
C75 C 0.28159 0.06056 0.91935 0.0
O76 O 0.2545 0.04729 0.90827 0.0
O77 O 0.37059 0.09037 0.88296 0.0
C78 C 0.6884 0.83534 0.45196 0.0
O79 O 0.71589 0.83593 0.44364 0.0
O80 O 0.6777 0.76151 0.42413 0.0
Zn81 Zn 0.66519 0.76067 0.44896 0.0
O82 O 0.70791 0.7637 0.4621 0.0
C83 C 0.59633 0.69305 0.44314 0.0
O84 O 0.59859 0.707 0.42791 0.0
O85 O 0.66045 0.80441 0.45546 0.0
C86 C 0.70419 0.73916 0.47268 0.0
O87 O 0.67119 0.71134 0.4758 0.0
C88 C 0.6877 0.73865 0.4198 0.0
O89 O 0.68823 0.71639 0.43142 0.0
O90 O 0.62012 0.71227 0.45433 0.0
C91 C 0.85007 0.68709 0.78657 0.0
O92 O 0.87396 0.71164 0.77597 0.0
O93 O 0.91176 0.67298 0.75912 0.0
Zn94 Zn 0.90207 0.66338 0.78429 0.0
O95 O 0.94393 0.70644 0.79627 0.0
C96 C 0.89546 0.59167 0.78024 0.0
O97 O 0.88032 0.59158 0.76557 0.0
O98 O 0.85512 0.66121 0.79162 0.0
C99 C 0.97055 0.70442 0.80285 0.0
O100 O 0.9705 0.67316 0.80225 0.0
C101 C 0.94072 0.67394 0.75357 0.0
O102 O 0.96103 0.66754 0.76422 0.0
O103 O 0.90379 0.6179 0.7906 0.0
C104 C 0.16242 0.8261 0.1216 0.0
O105 O 0.16513 0.82852 0.10492 0.0
O106 O 0.22824 0.90173 0.09569 0.0
Zn107 Zn 0.23076 0.89706 0.12113 0.0
O108 O 0.23007 0.94038 0.13142 0.0
C109 C 0.29513 0.89027 0.1168 0.0
O110 O 0.27671 0.87077 0.10349 0.0
O111 O 0.18772 0.85105 0.13066 0.0
C112 C 0.25608 0.97236 0.12772 0.0
O113 O 0.28267 0.97576 0.11767 0.0
C114 C 0.20898 0.91441 0.08936 0.0
O115 O 0.1881 0.92113 0.09949 0.0
O116 O 0.27983 0.90228 0.12687 0.0
C117 C 0.30465 0.16027 0.45112 0.0
O118 O 0.27663 0.16034 0.44368 0.0
O119 O 0.32172 0.23539 0.42097 0.0
Zn120 Zn 0.33126 0.2353 0.44624 0.0
O121 O 0.28923 0.23444 0.45895 0.0
C122 C 0.40041 0.30271 0.44157 0.0
O123 O 0.39827 0.28977 0.42611 0.0
O124 O 0.33413 0.19075 0.45332 0.0
C125 C 0.28797 0.26389 0.46053 0.0
O126 O 0.31457 0.29454 0.45403 0.0
C127 C 0.28998 0.22682 0.41533 0.0
O128 O 0.26237 0.21553 0.42605 0.0
O129 O 0.37641 0.28283 0.45255 0.0
C130 C 0.14779 0.31065 0.78593 0.0
O131 O 0.12071 0.28383 0.7774 0.0
O132 O 0.08996 0.32727 0.75616 0.0
Zn133 Zn 0.0994 0.33719 0.78128 0.0
O134 O 0.05753 0.29379 0.79298 0.0
C135 C 0.10226 0.4072 0.77681 0.0
O136 O 0.11578 0.40683 0.76175 0.0
O137 O 0.14639 0.33969 0.78881 0.0
C138 C 0.03856 0.29711 0.80473 0.0
O139 O 0.04711 0.33009 0.81006 0.0
C140 C 0.05914 0.32276 0.75115 0.0
O141 O 0.03752 0.32599 0.76228 0.0
O142 O 0.09629 0.38202 0.78743 0.0
C143 C 0.83229 0.15947 0.11192 0.0
O144 O 0.83704 0.14763 0.09717 0.0
O145 O 0.77025 0.0878 0.08431 0.0
Zn146 Zn 0.76243 0.09323 0.10947 0.0
O147 O 0.76658 0.05412 0.12239 0.0
C148 C 0.68664 0.05324 0.10522 0.0
O149 O 0.69823 0.03395 0.09677 0.0
O150 O 0.80111 0.14188 0.1192 0.0
C151 C 0.7454 0.03535 0.1345 0.0
O152 O 0.71948 0.042 0.13962 0.0
C153 C 0.78006 0.06502 0.07951 0.0
O154 O 0.78803 0.04747 0.09105 0.0
O155 O 0.71031 0.08299 0.11235 0.0
H156 H 0.83488 0.18292 0.14478 0.0
H157 H 0.89011 0.22056 0.16177 0.0
H158 H 0.95791 0.23776 0.11757 0.0
H159 H 0.903 0.20003 0.1005 0.0
H160 H 0.97257 0.20505 0.14529 0.0
H161 H 0.96998 0.3306 0.16529 0.0
H162 H 0.92758 0.28807 0.16833 0.0
H163 H 0.94448 0.30323 0.14713 0.0
C164 C 0.86147 0.19552 0.13855 0.0
C165 C 0.86455 0.1881 0.12132 0.0
C166 C 0.89302 0.21721 0.14828 0.0
C167 C 0.92807 0.23204 0.14091 0.0
C168 C 0.93107 0.22662 0.12347 0.0
H169 H 0.14779 0.35012 0.18419 0.0
H170 H 0.09168 0.33415 0.16812 0.0
C171 C 0.89962 0.205 0.11375 0.0
C172 C 0.96143 0.24837 0.15175 0.0
H173 H 0.01305 0.31833 0.17946 0.0
C174 C 0.98154 0.22996 0.15266 0.0
C175 C 0.97299 0.28082 0.16136 0.0
C176 C 0.95287 0.3021 0.16043 0.0
C177 C 0.01263 0.24281 0.16309 0.0
C178 C 0.02375 0.27475 0.173 0.0
C179 C 0.00413 0.29365 0.17193 0.0
C180 C 0.05602 0.28854 0.18439 0.0
C181 C 0.03347 0.22212 0.16348 0.0
C182 C 0.05414 0.26887 0.19914 0.0
C183 C 0.08605 0.27781 0.20833 0.0
C184 C 0.12042 0.30655 0.20287 0.0
C185 C 0.12179 0.32771 0.18869 0.0
C186 C 0.08978 0.31874 0.17952 0.0
H187 H 0.025 0.20169 0.153 0.0
H188 H 0.06355 0.24147 0.1625 0.0
H189 H 0.02818 0.20729 0.17578 0.0
H190 H 0.02822 0.24551 0.20309 0.0
H191 H 0.08395 0.26111 0.21925 0.0
H192 H 0.79293 0.15118 0.52406 0.0
H193 H 0.74685 0.09546 0.50939 0.0
H194 H 0.79852 0.0364 0.52901 0.0
H195 H 0.84361 0.09118 0.54398 0.0
H196 H 0.75909 0.06077 0.48459 0.0
H197 H 0.69311 0.9617 0.53675 0.0
H198 H 0.72094 0.01049 0.54061 0.0
H199 H 0.74202 0.98228 0.53867 0.0
C200 C 0.79394 0.12607 0.52552 0.0
C201 C 0.82196 0.12562 0.53518 0.0
C202 C 0.7676 0.09427 0.51713 0.0
C203 C 0.76877 0.06151 0.51833 0.0
C204 C 0.79625 0.06093 0.5283 0.0
H205 H 0.74784 0.90415 0.4494 0.0
H206 H 0.75821 0.9594 0.46412 0.0
C207 C 0.82233 0.0925 0.53674 0.0
C208 C 0.74429 0.02899 0.50778 0.0
H209 H 0.69644 0.93535 0.50933 0.0
C210 C 0.74456 0.03338 0.49003 0.0
C211 C 0.72436 0.99325 0.51481 0.0
C212 C 0.71975 0.98677 0.53378 0.0
C213 C 0.72846 0.00285 0.47911 0.0
C214 C 0.71266 0.96709 0.48612 0.0
C215 C 0.70926 0.96273 0.50389 0.0
C216 C 0.70393 0.93447 0.4755 0.0
C217 C 0.72959 0.00935 0.46016 0.0
C218 C 0.67007 0.90168 0.47712 0.0
C219 C 0.66425 0.86962 0.46889 0.0
C220 C 0.69228 0.86982 0.45896 0.0
C221 C 0.72559 0.90301 0.45688 0.0
C222 C 0.73145 0.93485 0.46517 0.0
H223 H 0.72795 0.03443 0.45737 0.0
H224 H 0.75615 0.01385 0.45498 0.0
H225 H 0.70674 0.98565 0.45345 0.0
H226 H 0.64854 0.90065 0.48513 0.0
H227 H 0.63828 0.84448 0.47075 0.0
H228 H 0.65811 0.81873 0.84363 0.0
H229 H 0.67801 0.78016 0.82919 0.0
H230 H 0.71422 0.75922 0.87715 0.0
H231 H 0.69471 0.79806 0.89173 0.0
H232 H 0.76868 0.78894 0.85271 0.0
H233 H 0.64313 0.67011 0.82607 0.0
H234 H 0.64678 0.71368 0.82145 0.0
H235 H 0.64163 0.69817 0.84316 0.0
C236 C 0.66951 0.80525 0.85119 0.0
C237 C 0.67517 0.81179 0.86882 0.0
C238 C 0.68062 0.78296 0.84292 0.0
C239 C 0.69734 0.7666 0.85212 0.0
C240 C 0.70119 0.77146 0.86984 0.0
H241 H 0.80031 0.64567 0.81134 0.0
H242 H 0.75935 0.66103 0.82714 0.0
C243 C 0.69004 0.7937 0.87814 0.0
C244 C 0.7154 0.74902 0.84298 0.0
H245 H 0.70086 0.6823 0.81401 0.0
C246 C 0.75375 0.7653 0.84444 0.0
C247 C 0.69587 0.71818 0.8322 0.0
C248 C 0.65452 0.69876 0.83072 0.0
C249 C 0.77327 0.75239 0.83497 0.0
C250 C 0.75397 0.72262 0.82366 0.0
C251 C 0.7155 0.70539 0.8226 0.0
C252 C 0.77399 0.71012 0.81257 0.0
C253 C 0.81455 0.77106 0.83689 0.0
C254 C 0.79478 0.73211 0.79887 0.0
C255 C 0.81814 0.7235 0.78984 0.0
C256 C 0.82119 0.69277 0.79441 0.0
C257 C 0.7987 0.66961 0.80755 0.0
C258 C 0.77524 0.67826 0.81657 0.0
H259 H 0.82447 0.78921 0.84827 0.0
H260 H 0.82353 0.75035 0.8379 0.0
H261 H 0.82783 0.78809 0.82543 0.0
H262 H 0.79399 0.75677 0.79561 0.0
H263 H 0.83487 0.74179 0.77973 0.0
H264 H 0.83039 0.64659 0.17916 0.0
H265 H 0.88397 0.65786 0.16216 0.0
H266 H 0.95429 0.70776 0.20573 0.0
H267 H 0.90104 0.69618 0.22284 0.0
H268 H 0.94016 0.72711 0.15577 0.0
H269 H 0.99599 0.64672 0.18631 0.0
H270 H 0.94968 0.63757 0.19013 0.0
H271 H 0.98792 0.67398 0.20141 0.0
C272 C 0.85713 0.65913 0.18525 0.0
C273 C 0.86146 0.67069 0.20234 0.0
C274 C 0.88772 0.66556 0.1755 0.0
C275 C 0.92309 0.68331 0.18271 0.0
C276 C 0.92721 0.69329 0.19998 0.0
H277 H 0.14654 0.81632 0.15564 0.0
H278 H 0.08711 0.77554 0.16886 0.0
C279 C 0.8967 0.6869 0.20972 0.0
C280 C 0.95611 0.69586 0.17179 0.0
H281 H 0.0386 0.69837 0.16913 0.0
C282 C 0.96136 0.72022 0.15844 0.0
C283 C 0.98378 0.68695 0.17536 0.0
C284 C 0.97892 0.65957 0.18898 0.0
C285 C 0.99438 0.73757 0.14918 0.0
C286 C 0.02267 0.72979 0.1532 0.0
C287 C 0.01687 0.70429 0.16609 0.0
C288 C 0.05953 0.75047 0.14519 0.0
C289 C -0.00051 0.76567 0.13586 0.0
C290 C 0.06405 0.74896 0.12755 0.0
C291 C 0.09803 0.77244 0.1199 0.0
C292 C 0.12807 0.79767 0.1298 0.0
C293 C 0.12394 0.79744 0.1476 0.0
C294 C 0.09 0.77406 0.15521 0.0
H295 H 0.97792 0.77358 0.13666 0.0
H296 H 0.02685 0.79086 0.1372 0.0
H297 H -0.00198 0.75403 0.123 0.0
H298 H 0.04101 0.73044 0.11963 0.0
H299 H 0.10035 0.77167 0.10618 0.0
H300 H 0.24209 0.09355 0.45204 0.0
H301 H 0.23164 0.03887 0.46735 0.0
H302 H 0.34595 0.0934 0.4822 0.0
H303 H 0.35646 0.14914 0.46726 0.0
H304 H 0.25923 0.99316 0.4654 0.0
H305 H 0.29497 0.06573 0.52792 0.0
H306 H 0.28976 0.08655 0.50884 0.0
H307 H 0.33053 0.08344 0.51202 0.0
C308 C 0.26518 0.09397 0.45842 0.0
C309 C 0.30001 0.1259 0.45863 0.0
C310 C 0.25917 0.06256 0.46715 0.0
C311 C 0.28784 0.06223 0.47619 0.0
C312 C 0.32322 0.09334 0.47564 0.0
H313 H 0.2043 0.84514 0.52559 0.0
H314 H 0.24866 0.90031 0.50997 0.0
C315 C 0.32922 0.12507 0.46702 0.0
C316 C 0.27931 0.02981 0.48689 0.0
H317 H 0.26906 0.00193 0.52838 0.0
C318 C 0.26194 0.995 0.47916 0.0
C319 C 0.2829 0.03241 0.50485 0.0
C320 C 0.3003 0.06894 0.51398 0.0
C321 C 0.24561 0.96267 0.48892 0.0
C322 C 0.24775 0.9653 0.50692 0.0
C323 C 0.26754 6e-05 0.51458 0.0
C324 C 0.22477 0.93317 0.51796 0.0
C325 C 0.22385 0.92623 0.47989 0.0
C326 C 0.1979 0.93395 0.52831 0.0
C327 C 0.17305 0.90286 0.53741 0.0
C328 C 0.17432 0.87014 0.53628 0.0
C329 C 0.20238 0.86984 0.52657 0.0
C330 C 0.2276 0.90124 0.51756 0.0
H331 H 0.21965 0.92964 0.46618 0.0
H332 H 0.23887 0.9108 0.48076 0.0
H333 H 0.19646 0.9094 0.48595 0.0
H334 H 0.19522 0.95828 0.52886 0.0
H335 H 0.15196 0.90418 0.54483 0.0
H336 H 0.23587 0.1452 0.88087 0.0
H337 H 0.22641 0.18919 0.86475 0.0
H338 H 0.34126 0.24769 0.85077 0.0
H339 H 0.35083 0.20276 0.86657 0.0
H340 H 0.25497 0.26294 0.86623 0.0
H341 H 0.29128 0.22315 0.80462 0.0
H342 H 0.285 0.19753 0.82397 0.0
H343 H 0.32639 0.24083 0.82074 0.0
C344 C 0.25929 0.16754 0.8745 0.0
C345 C 0.29402 0.17017 0.87482 0.0
C346 C 0.25383 0.19279 0.86531 0.0
C347 C 0.28296 0.22136 0.85629 0.0
C348 C 0.31821 0.22536 0.85732 0.0
H349 H 0.20776 0.35955 0.80474 0.0
H350 H 0.24988 0.34637 0.82089 0.0
C351 C 0.32367 0.19981 0.86644 0.0
C352 C 0.27513 0.2452 0.84519 0.0
H353 H 0.26681 0.26233 0.80338 0.0
C354 C 0.25811 0.26342 0.85249 0.0
C355 C 0.2792 0.2456 0.82727 0.0
C356 C 0.29621 0.22558 0.8186 0.0
C357 C 0.24281 0.27989 0.84235 0.0
C358 C 0.24562 0.27905 0.8244 0.0
C359 C 0.26482 0.263 0.81714 0.0
C360 C 0.22416 0.28945 0.81296 0.0
C361 C 0.22147 0.29559 0.85094 0.0
C362 C 0.19709 0.26247 0.80244 0.0
C363 C 0.17348 0.27004 0.79303 0.0
C364 C 0.17627 0.30475 0.79402 0.0
C365 C 0.20467 0.33242 0.80386 0.0
C366 C 0.2286 0.32487 0.81317 0.0
H367 H 0.21629 0.28793 0.86463 0.0
H368 H 0.23739 0.32603 0.85012 0.0
H369 H 0.19458 0.28591 0.84453 0.0
H370 H 0.1932 0.23497 0.80202 0.0
H371 H 0.15209 0.24814 0.78552 0.0
H372 H 0.64916 0.56634 0.20426 0.0
H373 H 0.58232 0.52623 0.20122 0.0
H374 H 0.5654 0.61333 0.21969 0.0
H375 H 0.63168 0.65341 0.22274 0.0
H376 H 0.52954 0.50608 0.22812 0.0
H377 H 0.50307 0.57816 0.17558 0.0
H378 H 0.54831 0.58496 0.18009 0.0
H379 H 0.52995 0.60772 0.19275 0.0
C380 C 0.63118 0.57699 0.20754 0.0
C381 C 0.6457 0.61303 0.21375 0.0
C382 C 0.59308 0.55409 0.20579 0.0
C383 C 0.56906 0.56707 0.21 0.0
C384 C 0.58353 0.60305 0.21607 0.0
H385 H 0.34225 0.45492 0.24058 0.0
H386 H 0.40883 0.4946 0.23757 0.0
C387 C 0.62144 0.62582 0.21792 0.0
C388 C 0.52871 0.54254 0.20908 0.0
H389 H 0.45059 0.53443 0.19141 0.0
C390 C 0.51227 0.51201 0.21997 0.0
C391 C 0.50636 0.55029 0.19835 0.0
C392 C 0.52277 0.58187 0.1859 0.0
C393 C 0.47389 0.48972 0.22085 0.0
C394 C 0.45149 0.49848 0.2107 0.0
C395 C 0.46792 0.52816 0.19934 0.0
C396 C 0.4109 0.47708 0.21187 0.0
C397 C 0.45753 0.45704 0.23269 0.0
C398 C 0.38998 0.45526 0.19816 0.0
C399 C 0.35191 0.43257 0.19981 0.0
C400 C 0.33414 0.43157 0.21519 0.0
C401 C 0.35504 0.45493 0.22859 0.0
C402 C 0.39311 0.47747 0.22694 0.0
H403 H 0.47817 0.44929 0.23664 0.0
H404 H 0.44716 0.46391 0.24433 0.0
H405 H 0.43398 0.43292 0.22655 0.0
H406 H 0.40328 0.45483 0.18639 0.0
H407 H 0.3366 0.415 0.18922 0.0
H408 H 0.05911 0.65497 0.5247 0.0
H409 H 0.02626 0.58827 0.5208 0.0
H410 H 0.06307 0.57508 0.57021 0.0
H411 H 0.09624 0.64173 0.57422 0.0
H412 H 0.06536 0.52865 0.54383 0.0
H413 H 0.93024 0.52308 0.54817 0.0
H414 H 0.96173 0.5537 0.53239 0.0
H415 H 0.97285 0.56295 0.55459 0.0
C416 C 0.06074 0.63796 0.53464 0.0
C417 C 0.08 0.65366 0.54986 0.0
C418 C 0.04176 0.59985 0.53241 0.0
C419 C 0.04171 0.57684 0.54536 0.0
C420 C 0.06262 0.59246 0.56012 0.0
H421 H 0.89873 0.35276 0.57339 0.0
H422 H 0.9315 0.41952 0.56982 0.0
C423 C 0.08156 0.63055 0.56238 0.0
C424 C 0.01845 0.53645 0.54398 0.0
H425 H 0.92892 0.46688 0.544 0.0
C426 C 0.03554 0.51508 0.54372 0.0
C427 C 0.97956 0.51899 0.54404 0.0
C428 C 0.95984 0.54071 0.54494 0.0
C429 C 0.01472 0.47654 0.54366 0.0
C430 C 0.97583 0.45908 0.54369 0.0
C431 C 0.95873 0.48045 0.54381 0.0
C432 C 0.9526 0.41865 0.54478 0.0
C433 C 0.03446 0.4548 0.54416 0.0
C434 C 0.9525 0.3961 0.53158 0.0
C435 C 0.93376 0.35793 0.53355 0.0
C436 C 0.91479 0.34171 0.54877 0.0
C437 C 0.9132 0.36435 0.56155 0.0
C438 C 0.93191 0.4025 0.55954 0.0
H439 H 0.06408 0.47232 0.54736 0.0
H440 H 0.02153 0.43223 0.55365 0.0
H441 H 0.03247 0.44226 0.53147 0.0
H442 H 0.96783 0.4081 0.51997 0.0
H443 H 0.9354 0.34129 0.52342 0.0
H444 H 0.44687 0.09395 0.91466 0.0
H445 H 0.48269 0.06346 0.90952 0.0
H446 H 0.43399 0.0302 0.85965 0.0
H447 H 0.39807 0.06057 0.86462 0.0
H448 H 0.42762 0.9719 0.88134 0.0
H449 H 0.57098 0.08884 0.87706 0.0
H450 H 0.54498 0.09033 0.89495 0.0
H451 H 0.53125 0.09411 0.87372 0.0
C452 C 0.4443 0.08079 0.90246 0.0
C453 C 0.41953 0.07961 0.89007 0.0
C454 C 0.46486 0.06347 0.89954 0.0
C455 C 0.46102 0.04474 0.88419 0.0
C456 C 0.43735 0.04462 0.87156 0.0
H457 H 0.59219 0.94409 0.85724 0.0
H458 H 0.55625 0.97522 0.85558 0.0
C459 C 0.41696 0.06211 0.87442 0.0
C460 C 0.47936 0.02278 0.88192 0.0
H461 H 0.5636 0.02916 0.88028 0.0
C462 C 0.45734 0.98438 0.88095 0.0
C463 C 0.51806 0.03924 0.88129 0.0
C464 C 0.54281 0.08042 0.88166 0.0
C465 C 0.47314 0.96186 0.8799 0.0
C466 C 0.51187 0.97825 0.87994 0.0
C467 C 0.53387 0.01671 0.88035 0.0
C468 C 0.53026 0.95606 0.88015 0.0
C469 C 0.44837 0.92074 0.87883 0.0
C470 C 0.52702 0.93452 0.89441 0.0
C471 C 0.54759 0.91674 0.89544 0.0
C472 C 0.57178 0.92029 0.88222 0.0
C473 C 0.57376 0.94069 0.86764 0.0
C474 C 0.55336 0.95862 0.86667 0.0
H475 H 0.42001 0.91311 0.87485 0.0
H476 H 0.45954 0.90856 0.8697 0.0
H477 H 0.44674 0.90849 0.89155 0.0
H478 H 0.50965 0.9326 0.90503 0.0
H479 H 0.54548 0.90132 0.90686 0.0
H480 H 0.54424 0.64263 0.42161 0.0
H481 H 0.50967 0.57585 0.42515 0.0
H482 H 0.5573 0.58685 0.475 0.0
H483 H 0.59197 0.6536 0.47163 0.0
H484 H 0.56602 0.53856 0.45214 0.0
H485 H 0.42107 0.50748 0.45608 0.0
H486 H 0.44706 0.53706 0.43873 0.0
H487 H 0.45978 0.55267 0.46029 0.0
C488 C 0.5468 0.63094 0.43347 0.0
C489 C 0.571 0.65346 0.44629 0.0
C490 C 0.52695 0.59278 0.43549 0.0
C491 C 0.53089 0.57653 0.45036 0.0
C492 C 0.55388 0.59895 0.46344 0.0
H493 H 0.40277 0.34107 0.47016 0.0
H494 H 0.4374 0.40769 0.47413 0.0
C495 C 0.57359 0.6371 0.46149 0.0
C496 C 0.5135 0.53612 0.4516 0.0
H497 H 0.43046 0.45678 0.45113 0.0
C498 C 0.53638 0.52063 0.4521 0.0
C499 C 0.47489 0.51294 0.45167 0.0
C500 C 0.44917 0.52828 0.45182 0.0
C501 C 0.52158 0.48239 0.45208 0.0
C502 C 0.48299 0.45922 0.45143 0.0
C503 C 0.46009 0.47471 0.45153 0.0
C504 C 0.46569 0.41885 0.44994 0.0
C505 C 0.54727 0.46704 0.45266 0.0
C506 C 0.47073 0.40312 0.43514 0.0
C507 C 0.45093 0.36505 0.43279 0.0
C508 C 0.42571 0.34211 0.4452 0.0
C509 C 0.42203 0.35791 0.46036 0.0
C510 C 0.44168 0.39599 0.46264 0.0
H511 H 0.57503 0.4877 0.45737 0.0
H512 H 0.53604 0.44238 0.46098 0.0
H513 H 0.55038 0.45871 0.43963 0.0
H514 H 0.48881 0.4204 0.42509 0.0
H515 H 0.45435 0.35378 0.42097 0.0
H516 H 0.93298 0.58856 0.80808 0.0
H517 H 0.9676 0.55617 0.81037 0.0
H518 H 0.92769 0.50714 0.76103 0.0
H519 H 0.89275 0.53924 0.7586 0.0
H520 H 0.93039 0.45881 0.78655 0.0
H521 H 0.06152 0.5918 0.78047 0.0
H522 H 0.03108 0.5895 0.79716 0.0
H523 H 0.01736 0.58691 0.7753 0.0
C524 C 0.93099 0.57039 0.79782 0.0
C525 C 0.91045 0.56685 0.78304 0.0
C526 C 0.95097 0.55208 0.79913 0.0
C527 C 0.95076 0.52997 0.78571 0.0
C528 C 0.92837 0.52436 0.77146 0.0
H529 H 0.10099 0.45774 0.75526 0.0
H530 H 0.06564 0.4892 0.75881 0.0
C531 C 0.90838 0.54268 0.77012 0.0
C532 C 0.97555 0.51447 0.78602 0.0
H533 H 0.06628 0.53864 0.78444 0.0
C534 C 0.96009 0.47618 0.78619 0.0
C535 C 0.01427 0.53736 0.78531 0.0
C536 C 0.0322 0.57868 0.78441 0.0
C537 C 0.98241 0.46008 0.78571 0.0
C538 C 0.02114 0.48298 0.78521 0.0
C539 C 0.03659 0.52127 0.785 0.0
C540 C 0.04587 0.46749 0.78403 0.0
C541 C 0.96438 0.41872 0.78526 0.0
C542 C 0.04763 0.44618 0.79734 0.0
C543 C 0.06786 0.42826 0.79538 0.0
C544 C 0.08669 0.43139 0.78007 0.0
C545 C 0.08671 0.45464 0.76718 0.0
C546 C 0.06648 0.47259 0.76917 0.0
H547 H 0.93457 0.40539 0.78222 0.0
H548 H 0.97791 0.40991 0.77568 0.0
H549 H 0.96728 0.40869 0.79792 0.0
H550 H 0.03244 0.44253 0.80903 0.0
H551 H 0.06747 0.41078 0.80562 0.0
H552 H 0.33679 0.87093 0.09733 0.0
H553 H 0.40375 0.89872 0.0976 0.0
H554 H 0.4107 0.96792 0.1397 0.0
H555 H 0.34376 0.93987 0.13974 0.0
H556 H 0.45158 0.97232 0.09176 0.0
H557 H 0.47981 0.93157 0.15481 0.0
H558 H 0.43452 0.90916 0.14533 0.0
H559 H 0.452 0.95298 0.15565 0.0
C560 C 0.35247 0.89153 0.10687 0.0
C561 C 0.33492 0.90322 0.11849 0.0
C562 C 0.39075 0.90744 0.10698 0.0
C563 C 0.41218 0.93521 0.11873 0.0
C564 C 0.39468 0.94606 0.13073 0.0
H565 H 0.6516 0.07867 0.1261 0.0
H566 H 0.58489 0.05237 0.12968 0.0
C567 C 0.35637 0.93007 0.13068 0.0
C568 C 0.45287 0.95486 0.11744 0.0
H569 H 0.53157 0.97565 0.1391 0.0
C570 C 0.46905 0.97296 0.1021 0.0
C571 C 0.47559 0.956 0.13102 0.0
C572 C 0.45967 0.93615 0.14759 0.0
C573 C 0.50734 0.99197 0.09993 0.0
C574 C 0.53001 0.99259 0.11338 0.0
C575 C 0.51399 0.97517 0.12885 0.0
C576 C 0.57021 0.00908 0.11115 0.0
C577 C 0.5233 0.01135 0.08326 0.0
C578 C 0.58382 0.99326 0.09964 0.0
C579 C 0.62164 0.00806 0.0976 0.0
C580 C 0.64668 0.03901 0.10705 0.0
C581 C 0.633 0.05497 0.11856 0.0
C582 C 0.59498 0.03993 0.12067 0.0
H583 H 0.50337 0.01619 0.07601 0.0
H584 H 0.54875 0.03815 0.08542 0.0
H585 H 0.53057 0.99408 0.07529 0.0
H586 H 0.5651 0.96915 0.09235 0.0
H587 H 0.63121 0.99502 0.08866 0.0
H588 H 0.2024 0.97491 0.14642 0.0
H589 H 0.20153 0.02959 0.15645 0.0
H590 H 0.30828 0.09871 0.13394 0.0
H591 H 0.30916 0.04428 0.1236 0.0
H592 H 0.25023 0.08439 0.17809 0.0
H593 H 0.24773 0.14191 0.11477 0.0
H594 H 0.23836 0.09535 0.11752 0.0
H595 H 0.28502 0.13295 0.11747 0.0
C596 C 0.22568 0.00175 0.14356 0.0
C597 C 0.25579 0.00529 0.13414 0.0
C598 C 0.2251 0.03293 0.1493 0.0
C599 C 0.25454 0.06816 0.14568 0.0
C600 C 0.2849 0.07178 0.13652 0.0
H601 H 0.31032 0.28936 0.17332 0.0
H602 H 0.30892 0.23429 0.16217 0.0
C603 C 0.28546 0.04063 0.13072 0.0
C604 C 0.25389 0.10108 0.15189 0.0
H605 H 0.2575 0.1803 0.13878 0.0
C606 C 0.25158 0.10527 0.16951 0.0
C607 C 0.25568 0.12821 0.14063 0.0
C608 C 0.25649 0.12432 0.12154 0.0
C609 C 0.25175 0.1363 0.17621 0.0
C610 C 0.2538 0.16352 0.16496 0.0
C611 C 0.256 0.15932 0.14734 0.0
C612 C 0.25395 0.19674 0.17127 0.0
C613 C 0.25056 0.14012 0.19529 0.0
C614 C 0.22319 0.19379 0.17977 0.0
C615 C 0.22383 0.22515 0.18614 0.0
C616 C 0.25527 0.26002 0.18406 0.0
C617 C 0.28572 0.26291 0.17518 0.0
C618 C 0.28501 0.23152 0.16879 0.0
H619 H 0.25744 0.12124 0.20219 0.0
H620 H 0.26999 0.16876 0.19937 0.0
H621 H 0.22241 0.13339 0.19912 0.0
H622 H 0.19873 0.16719 0.18153 0.0
H623 H 0.19986 0.22198 0.19284 0.0
H624 H 0.97892 0.20422 0.52281 0.0
H625 H 0.03264 0.20401 0.51085 0.0
H626 H 0.09725 0.32152 0.51753 0.0
H627 H 0.04396 0.32193 0.52985 0.0
H628 H 0.07353 0.23905 0.48266 0.0
H629 H 0.16089 0.28671 0.54059 0.0
H630 H 0.11225 0.27112 0.54106 0.0
H631 H 0.14455 0.31694 0.53404 0.0
C632 C 0.00458 0.23003 0.52176 0.0
C633 C 0.00727 0.26308 0.52737 0.0
C634 C 0.03523 0.22983 0.51494 0.0
C635 C 0.06907 0.26264 0.51361 0.0
C636 C 0.07163 0.29577 0.51886 0.0
H637 H 0.28002 0.32267 0.46885 0.0
H638 H 0.22647 0.32158 0.48189 0.0
C639 C 0.04108 0.29597 0.52578 0.0
C640 C 0.10145 0.26228 0.50636 0.0
H641 H 0.19022 0.28513 0.51487 0.0
C642 C 0.09896 0.24888 0.48973 0.0
C643 C 0.13455 0.27507 0.51566 0.0
C644 C 0.13821 0.28794 0.53388 0.0
C645 C 0.12898 0.24863 0.48202 0.0
C646 C 0.16215 0.26188 0.49124 0.0
C647 C 0.16467 0.27513 0.50787 0.0
C648 C 0.19463 0.26233 0.48376 0.0
C649 C 0.12536 0.23484 0.46397 0.0
C650 C 0.19443 0.22934 0.48077 0.0
C651 C 0.22499 0.22983 0.47341 0.0
C652 C 0.25617 0.26337 0.46889 0.0
C653 C 0.25638 0.2964 0.47213 0.0
C654 C 0.22589 0.29587 0.47958 0.0
H655 H 0.10024 0.23158 0.45762 0.0
H656 H 0.14982 0.25396 0.45633 0.0
H657 H 0.12384 0.20769 0.46408 0.0
H658 H 0.17059 0.20324 0.48409 0.0
H659 H 0.22399 0.20393 0.4711 0.0
H660 H 0.9885 0.29481 0.82773 0.0
H661 H 0.9329 0.24043 0.83806 0.0
H662 H 0.9586 0.171 0.80742 0.0
H663 H 0.01435 0.22509 0.79707 0.0
H664 H 0.8737 0.18735 0.81716 0.0
H665 H 0.93964 0.12509 0.85574 0.0
H666 H 0.96392 0.17267 0.84918 0.0
H667 H 0.95622 0.1371 0.83425 0.0
C668 C 0.98253 0.26796 0.82329 0.0
C669 C 0.00589 0.26425 0.81161 0.0
C670 C 0.95073 0.23698 0.82918 0.0
C671 C 0.94195 0.2018 0.82361 0.0
C672 C 0.96527 0.19793 0.81205 0.0
H673 H 0.76242 0.98203 0.8447 0.0
H674 H 0.81718 0.0357 0.83329 0.0
C675 C 0.99702 0.22888 0.80611 0.0
C676 C 0.90771 0.16922 0.82945 0.0
H677 H 0.87509 0.0896 0.85205 0.0
C678 C 0.87391 0.166 0.82484 0.0
C679 C 0.90826 0.14145 0.83937 0.0
C680 C 0.94391 0.14422 0.84508 0.0
C681 C 0.84046 0.13534 0.82973 0.0
C682 C 0.841 0.10767 0.83976 0.0
C683 C 0.87483 0.11087 0.84432 0.0
C684 C 0.8068 0.0754 0.84595 0.0
C685 C 0.8049 0.13251 0.82383 0.0
C686 C 0.78291 0.08002 0.85684 0.0
C687 C 0.75155 0.04945 0.86333 0.0
C688 C 0.74374 0.01371 0.85915 0.0
C689 C 0.76762 0.00919 0.84814 0.0
C690 C 0.79893 0.03979 0.84163 0.0
H691 H 0.80919 0.15027 0.81258 0.0
H692 H 0.78426 0.10372 0.8205 0.0
H693 H 0.79343 0.1416 0.83426 0.0
H694 H 0.78892 0.10728 0.86061 0.0
H695 H 0.73384 0.05387 0.87186 0.0
H696 H 0.80179 0.02126 0.13067 0.0
H697 H 0.8047 0.96794 0.14101 0.0
H698 H 0.69805 0.92566 0.16447 0.0
H699 H 0.69542 0.97954 0.15462 0.0
H700 H 0.74503 0.91745 0.18491 0.0
H701 H 0.74845 0.86694 0.12005 0.0
H702 H 0.78532 0.91289 0.1238 0.0
H703 H 0.73846 0.90341 0.12382 0.0
C704 C 0.77902 0.0007 0.1381 0.0
C705 C 0.74822 0.00442 0.14172 0.0
C706 C 0.78063 0.97013 0.14389 0.0
C707 C 0.75119 0.94241 0.15313 0.0
C708 C 0.72094 0.94663 0.15724 0.0
H709 H 0.70894 0.72023 0.16716 0.0
H710 H 0.70884 0.77594 0.15832 0.0
C711 C 0.71949 0.97743 0.15162 0.0
C712 C 0.7518 0.90889 0.15841 0.0
H713 H 0.75965 0.83709 0.14308 0.0
C714 C 0.74811 0.89979 0.17578 0.0
C715 C 0.75519 0.88558 0.14642 0.0
C716 C 0.75669 0.89244 0.12747 0.0
C717 C 0.74815 0.86819 0.18152 0.0
C718 C 0.75307 0.84572 0.1696 0.0
C719 C 0.75634 0.85462 0.15222 0.0
C720 C 0.75389 0.81225 0.17481 0.0
C721 C 0.74198 0.85878 0.20024 0.0
C722 C 0.77975 0.81428 0.18674 0.0
C723 C 0.77961 0.78243 0.19195 0.0
C724 C 0.75404 0.74808 0.18506 0.0
C725 C 0.72901 0.74629 0.17268 0.0
C726 C 0.72889 0.77809 0.16764 0.0
H727 H 0.72817 0.87227 0.20661 0.0
H728 H 0.725 0.82863 0.2022 0.0
H729 H 0.76896 0.8686 0.20657 0.0
H730 H 0.79999 0.84049 0.19207 0.0
H731 H 0.79947 0.78472 0.2014 0.0
H732 H 0.77625 0.79298 0.46922 0.0
H733 H 0.83056 0.79304 0.48066 0.0
H734 H 0.76071 0.68872 0.50497 0.0
H735 H 0.70626 0.68822 0.49356 0.0
H736 H 0.84841 0.78738 0.51574 0.0
H737 H 0.83317 0.67184 0.47534 0.0
H738 H 0.80988 0.69716 0.47068 0.0
H739 H 0.79281 0.66291 0.48716 0.0
C740 C 0.77241 0.77009 0.47705 0.0
C741 C 0.73695 0.74047 0.4804 0.0
C742 C 0.80345 0.77021 0.48357 0.0
C743 C 0.79954 0.74063 0.49341 0.0
C744 C 0.76422 0.71149 0.49714 0.0
H745 H 0.9484 0.68254 0.54164 0.0
H746 H 0.89521 0.6849 0.53051 0.0
C747 C 0.73317 0.71138 0.49069 0.0
C748 C 0.83244 0.74014 0.49974 0.0
H749 H 0.87901 0.69311 0.49678 0.0
C750 C 0.85528 0.76692 0.51156 0.0
C751 C 0.84114 0.71336 0.49422 0.0
C752 C 0.8182 0.68482 0.48104 0.0
C753 C 0.88632 0.76713 0.51834 0.0
C754 C 0.89498 0.74026 0.51286 0.0
C755 C 0.87221 0.71361 0.50095 0.0
C756 C 0.92737 0.73905 0.51944 0.0
C757 C 0.90903 0.79549 0.53162 0.0
C758 C 0.96305 0.7685 0.51664 0.0
C759 C 0.99352 0.76729 0.523 0.0
C760 C 0.98877 0.73646 0.53217 0.0
C761 C 0.95299 0.70672 0.53467 0.0
C762 C 0.92257 0.708 0.52832 0.0
H763 H 0.89369 0.80793 0.53748 0.0
H764 H 0.91771 0.78323 0.54187 0.0
H765 H 0.93416 0.81785 0.52554 0.0
H766 H 0.96735 0.79239 0.5095 0.0
H767 H 0.02073 0.79056 0.52078 0.0
H768 H 0.22288 0.01806 0.86004 0.0
H769 H 0.16964 0.96456 0.8475 0.0
H770 H 0.21586 0.89659 0.8611 0.0
H771 H 0.26893 0.94972 0.87388 0.0
H772 H 0.16665 0.91774 0.82126 0.0
H773 H 0.11264 0.84206 0.8821 0.0
H774 H 0.14711 0.8902 0.88136 0.0
H775 H 0.15984 0.85571 0.87788 0.0
C776 C 0.22175 0.99173 0.86036 0.0
C777 C 0.24999 0.98804 0.86806 0.0
C778 C 0.19133 0.96124 0.85318 0.0
C779 C 0.18859 0.92659 0.85366 0.0
C780 C 0.21713 0.92299 0.86095 0.0
H781 H 0.03144 0.70919 0.81792 0.0
H782 H 0.08421 0.76387 0.82991 0.0
C783 C 0.24752 0.95341 0.86816 0.0
C784 C 0.15593 0.89421 0.84643 0.0
H785 H 0.08424 0.80952 0.85668 0.0
C786 C 0.14848 0.89413 0.829 0.0
C787 C 0.13234 0.86356 0.8566 0.0
C788 C 0.13809 0.86287 0.87556 0.0
C789 C 0.11842 0.86376 0.82136 0.0
C790 C 0.09503 0.83301 0.83152 0.0
C791 C 0.10236 0.83317 0.84896 0.0
C792 C 0.06295 0.80016 0.82426 0.0
C793 C 0.11241 0.86442 0.80244 0.0
C794 C 0.03336 0.80248 0.81735 0.0
C795 C 0.00313 0.7713 0.81049 0.0
C796 C 0.00198 0.73726 0.81051 0.0
C797 C 0.0315 0.735 0.81767 0.0
C798 C 0.06167 0.76617 0.82453 0.0
H799 H 0.13733 0.88614 0.79589 0.0
H800 H 0.10466 0.83744 0.79656 0.0
H801 H 0.08958 0.87006 0.80021 0.0
H802 H 0.0336 0.82838 0.81731 0.0
H803 H 0.98077 0.77393 0.80514 0.0
H804 H 0.34085 0.24975 0.38959 0.0
H805 H 0.33285 0.26321 0.36004 0.0
H806 H 0.21966 0.23053 0.3705 0.0
H807 H 0.22726 0.21701 0.40001 0.0
H808 H 0.27782 0.21436 0.33489 0.0
H809 H 0.26745 0.33776 0.35125 0.0
H810 H 0.28674 0.31836 0.36567 0.0
H811 H 0.23779 0.2965 0.36292 0.0
C812 C 0.31418 0.24521 0.38558 0.0
C813 C 0.28474 0.23249 0.39718 0.0
C814 C 0.30969 0.25292 0.36871 0.0
C815 C 0.27584 0.24833 0.36322 0.0
C816 C 0.24615 0.23473 0.3746 0.0
H817 H 0.20488 0.29896 0.26771 0.0
H818 H 0.20834 0.28049 0.29697 0.0
C819 C 0.25054 0.22687 0.39144 0.0
C820 C 0.27166 0.25812 0.3456 0.0
H821 H 0.25836 0.31922 0.32242 0.0
C822 C 0.2736 0.23729 0.33211 0.0
C823 C 0.26596 0.28792 0.34213 0.0
C824 C 0.2646 0.31169 0.35621 0.0
C825 C 0.26968 0.2453 0.31515 0.0
C826 C 0.26456 0.27549 0.31163 0.0
C827 C 0.26228 0.29611 0.32516 0.0
C828 C 0.26246 0.28673 0.29397 0.0
C829 C 0.27043 0.22097 0.30118 0.0
C830 C 0.29202 0.29704 0.28273 0.0
C831 C 0.29008 0.30743 0.26604 0.0
C832 C 0.25868 0.30813 0.26032 0.0
C833 C 0.22941 0.29862 0.27173 0.0
C834 C 0.23132 0.28804 0.28842 0.0
H835 H 0.26364 0.1935 0.30613 0.0
H836 H 0.25074 0.21716 0.29085 0.0
H837 H 0.29849 0.23395 0.29563 0.0
H838 H 0.3167 0.29716 0.28687 0.0
H839 H 0.31327 0.31493 0.25764 0.0
H840 H 0.905 0.2497 0.604 0.0
H841 H 0.92647 0.26451 0.63352 0.0
H842 H 0.00601 0.23012 0.62419 0.0
H843 H 0.98483 0.21517 0.59472 0.0
H844 H 0.93275 0.21601 0.65951 0.0
H845 H 0.06587 0.33936 0.64201 0.0
H846 H 0.02668 0.31935 0.62785 0.0
H847 H 0.05384 0.29762 0.63066 0.0
C848 C 0.92687 0.24502 0.60826 0.0
C849 C 0.94333 0.23143 0.59699 0.0
C850 C 0.93908 0.2535 0.6251 0.0
C851 C 0.9681 0.24883 0.63089 0.0
C852 C 0.98389 0.23433 0.61985 0.0
H853 H 0.09194 0.30445 0.72574 0.0
H854 H 0.0695 0.28532 0.6966 0.0
C855 C 0.9716 0.22566 0.60304 0.0
C856 C 0.98228 0.25964 0.64841 0.0
H857 H 0.05691 0.3224 0.67103 0.0
C858 C 0.95984 0.23928 0.66208 0.0
C859 C 0.01772 0.28988 0.65162 0.0
C860 C 0.04247 0.31309 0.63731 0.0
C861 C 0.97211 0.24815 0.67898 0.0
C862 C 0.00739 0.27877 0.68222 0.0
C863 C 0.0299 0.29897 0.6685 0.0
C864 C 0.02118 0.29073 0.69978 0.0
C865 C 0.94746 0.22422 0.69315 0.0
C866 C 0.00188 0.30086 0.71107 0.0
C867 C 0.01449 0.31159 0.7277 0.0
C868 C 0.04693 0.31285 0.7333 0.0
C869 C 0.06682 0.30368 0.72182 0.0
C870 C 0.05403 0.29272 0.70518 0.0
H871 H 0.92686 0.19646 0.68844 0.0
H872 H 0.96371 0.22107 0.7035 0.0
H873 H 0.93223 0.23712 0.69861 0.0
H874 H 0.97702 0.3005 0.70702 0.0
H875 H -0.00128 0.31886 0.73616 0.0
H876 H 0.77352 0.10068 0.05162 0.0
H877 H 0.7652 0.08029 0.02188 0.0
H878 H 0.77154 0.9848 0.03688 0.0
H879 H 0.78135 0.0057 0.06637 0.0
H880 H 0.80802 0.0119 0.00843 0.0
H881 H 0.67085 7e-05 0.00238 0.0
H882 H 0.70647 0.04567 0.00774 0.0
H883 H 0.69443 0.00858 0.02252 0.0
C884 C 0.77342 0.0755 0.04853 0.0
C885 C 0.77787 0.0547 0.06136 0.0
C886 C 0.76833 0.0637 0.03156 0.0
C887 C 0.7668 0.03051 0.0272 0.0
C888 C 0.7724 0.01038 0.03993 0.0
H889 H 0.66807 0.90603 0.93475 0.0
H890 H 0.68263 0.9282 0.96415 0.0
C891 C 0.77804 0.02241 0.05681 0.0
C892 C 0.75907 0.01632 0.00947 0.0
H893 H 0.69672 0.99156 0.97711 0.0
C894 C 0.78363 0.00737 0.00159 0.0
C895 C 0.72687 0.00972 0.00067 0.0
C896 C 0.69795 0.01614 0.00881 0.0
C897 C 0.77702 0.9922 0.98515 0.0
C898 C 0.7456 0.98701 0.97609 0.0
C899 C 0.72094 0.99579 0.984 0.0
C900 C 0.73762 0.97247 0.95841 0.0
C901 C 0.80327 0.98095 0.97792 0.0
C902 C 0.76364 0.98992 0.94541 0.0
C903 C 0.75563 0.97688 0.92869 0.0
C904 C 0.72109 0.94666 0.92456 0.0
C905 C 0.69495 0.92931 0.93756 0.0
C906 C 0.70321 0.94202 0.95434 0.0
H907 H 0.81817 0.97551 0.98818 0.0
H908 H 0.78865 0.95593 0.9699 0.0
H909 H 0.82413 0.00362 0.96994 0.0
H910 H 0.78992 0.01412 0.9481 0.0
H911 H 0.77615 0.9912 0.91892 0.0
H912 H 0.74228 0.65198 0.2709 0.0
H913 H 0.729 0.65993 0.30044 0.0
H914 H 0.79846 0.77735 0.29563 0.0
H915 H 0.81213 0.76977 0.26608 0.0
H916 H 0.80695 0.74611 0.32695 0.0
H917 H 0.66132 0.7031 0.31224 0.0
H918 H 0.67589 0.67149 0.30548 0.0
H919 H 0.69604 0.71627 0.29592 0.0
C920 C 0.75509 0.67949 0.27616 0.0
C921 C 0.77805 0.71028 0.26609 0.0
C922 C 0.74728 0.68397 0.293 0.0
C923 C 0.76224 0.71925 0.30006 0.0
C924 C 0.78647 0.74991 0.29034 0.0
H925 H 0.68623 0.77756 0.39206 0.0
H926 H 0.70588 0.775 0.3629 0.0
C927 C 0.79424 0.7455 0.27346 0.0
C928 C 0.75178 0.72419 0.31744 0.0
H929 H 0.67839 0.71141 0.34142 0.0
C930 C 0.77891 0.73866 0.33014 0.0
C931 C 0.71526 0.71496 0.32142 0.0
C932 C 0.68543 0.70088 0.30804 0.0
C933 C 0.77021 0.7432 0.34691 0.0
C934 C 0.73342 0.73272 0.35102 0.0
C935 C 0.70651 0.71918 0.33821 0.0
C936 C 0.7221 0.73474 0.36865 0.0
C937 C 0.80044 0.75934 0.36007 0.0
C938 C 0.72428 0.71256 0.3814 0.0
C939 C 0.71297 0.71382 0.39799 0.0
C940 C 0.69921 0.73727 0.40213 0.0
C941 C 0.69681 0.7593 0.38928 0.0
C942 C 0.70801 0.75789 0.37264 0.0
H943 H 0.82814 0.77421 0.35409 0.0
H944 H 0.79712 0.77858 0.36861 0.0
H945 H 0.79909 0.73685 0.36801 0.0
H946 H 0.73446 0.69403 0.37848 0.0
H947 H 0.71509 0.69641 0.40757 0.0
H948 H 0.0913 0.74337 0.60564 0.0
H949 H 0.06981 0.72814 0.63513 0.0
H950 H 0.99699 0.77148 0.62742 0.0
H951 H 0.01816 0.78681 0.59798 0.0
H952 H 0.06889 0.77671 0.66203 0.0
H953 H 0.9298 0.66302 0.6441 0.0
H954 H 0.96842 0.68122 0.62962 0.0
H955 H 0.94494 0.70634 0.63363 0.0
C956 C 0.07092 0.74992 0.61025 0.0
C957 C 0.0563 0.76613 0.59943 0.0
C958 C 0.05868 0.74118 0.62708 0.0
C959 C 0.03147 0.74822 0.6333 0.0
C960 C 0.01762 0.76536 0.62273 0.0
H961 H 0.91142 0.69847 0.72914 0.0
H962 H 0.93374 0.71745 0.69997 0.0
C963 C 0.02992 0.77425 0.60594 0.0
C964 C 0.01721 0.73725 0.65082 0.0
H965 H 0.94044 0.67824 0.67332 0.0
C966 C 0.04085 0.75516 0.66455 0.0
C967 C 0.98057 0.70926 0.65396 0.0
C968 C 0.95441 0.68856 0.63959 0.0
C969 C 0.02865 0.74606 0.68143 0.0
C970 C 0.99211 0.71769 0.6846 0.0
C971 C 0.96841 0.69996 0.67084 0.0
C972 C 0.97816 0.70555 0.70212 0.0
C973 C 0.0548 0.76741 0.69571 0.0
C974 C 0.9952 0.69177 0.71282 0.0
C975 C 0.98266 0.68109 0.72946 0.0
C976 C 0.95253 0.68356 0.73566 0.0
C977 C 0.93475 0.69631 0.72475 0.0
C978 C 0.94747 0.7072 0.7081 0.0
H979 H 0.07733 0.79451 0.69126 0.0
H980 H 0.04016 0.77199 0.70637 0.0
H981 H 0.06753 0.75161 0.70065 0.0
H982 H 0.01828 0.68932 0.7083 0.0
H983 H 0.99673 0.67102 0.73747 0.0
H984 H 0.25331 0.90856 0.06546 0.0
H985 H 0.26587 0.93358 0.03652 0.0
H986 H 0.18823 0.97137 0.0434 0.0
H987 H 0.17571 0.9468 0.07239 0.0
H988 H 0.21868 0.91959 0.00848 0.0
H989 H 0.28426 0.06498 0.02969 0.0
H990 H 0.27572 0.02786 0.04398 0.0
H991 H 0.23889 0.03582 0.03812 0.0
C992 C 0.23868 0.92194 0.06078 0.0
C993 C 0.21371 0.92594 0.07128 0.0
C994 C 0.24593 0.93625 0.04426 0.0
C995 C 0.22852 0.95493 0.03798 0.0
C996 C 0.20253 0.95771 0.04816 0.0
H997 H 0.21515 0.01415 0.93393 0.0
H998 H 0.20331 0.98915 0.96279 0.0
C999 C 0.19523 0.94341 0.06468 0.0
C1000 C 0.23778 0.97181 0.02082 0.0
H1001 H 0.27303 0.05397 1e-05 0.0
C1002 C 0.23064 0.94896 0.00661 0.0
C1003 C 0.25396 0.01022 0.01848 0.0
C1004 C 0.26402 0.03627 0.03337 0.0
C1005 C 0.23845 0.96343 0.99004 0.0
C1006 C 0.2533 0.00166 0.98766 0.0
C1007 C 0.26128 0.02463 0.00189 0.0
C1008 C 0.2605 0.01824 0.97045 0.0
C1009 C 0.2311 0.93773 0.97523 0.0
C1010 C 0.29648 0.04393 0.96541 0.0
C1011 C 0.30338 0.05851 0.94892 0.0
C1012 C 0.27433 0.04773 0.93724 0.0
C1013 C 0.23819 0.02288 0.94255 0.0
C1014 C 0.23136 0.00836 0.95901 0.0
H1015 H 0.2288 0.91139 0.9794 0.0
H1016 H 0.20474 0.93137 0.96909 0.0
H1017 H 0.25327 0.9506 0.96553 0.0
H1018 H 0.31929 0.0521 0.97413 0.0
H1019 H 0.33151 0.07762 0.94523 0.0
loop_
_geom_bond_atom_site_label_1
_geom_bond_atom_site_label_2
_geom_bond_distance
_geom_bond_site_symmetry_2
_ccdc_geom_bond_type
C0 O1 1.160 . S
C0 O7 1.185 . S
O1 C0 1.160 . S
O2 Zn3 1.899 . S
O2 C10 1.284 . S
Zn3 O2 1.899 . S
Zn3 O4 2.032 . S
Zn3 O7 2.086 . S
Zn3 O12 1.977 . S
O4 Zn3 2.032 . S
O4 C8 1.278 . S
C5 O6 1.203 . S
C5 O12 1.267 . S
O6 C5 1.203 . S
O7 C0 1.185 . S
O7 Zn3 2.086 . S
C8 O4 1.278 . S
C8 O9 1.211 . S
O9 C8 1.211 . S
C10 O2 1.284 . S
C10 O11 1.273 . S
O11 C10 1.273 . S
O12 Zn3 1.977 . S
O12 C5 1.267 . S
C13 O14 1.160 . S
C13 O20 1.185 . S
O14 C13 1.160 . S
O15 Zn16 1.899 . S
O15 C23 1.284 . S
Zn16 O15 1.899 . S
Zn16 O17 2.032 . S
Zn16 O20 2.086 . S
Zn16 O25 1.977 . S
O17 Zn16 2.032 . S
O17 C21 1.278 1_655 S
C18 O19 1.203 . S
C18 O25 1.267 . S
O19 C18 1.203 . S
O20 C13 1.185 . S
O20 Zn16 2.086 . S
C21 O17 1.278 1_455 S
C21 O22 1.211 . S
O22 C21 1.211 . S
C23 O15 1.284 . S
C23 O24 1.273 . S
O24 C23 1.273 . S
O25 Zn16 1.977 . S
O25 C18 1.267 . S
C26 O27 1.160 . S
C26 O33 1.185 . S
O27 C26 1.160 . S
O28 Zn29 1.899 . S
O28 C36 1.284 . S
Zn29 O28 1.899 . S
Zn29 O30 2.032 . S
Zn29 O33 2.086 . S
Zn29 O38 1.977 . S
O30 Zn29 2.032 . S
O30 C34 1.278 1_565 S
C31 O32 1.203 . S
C31 O38 1.267 . S
O32 C31 1.203 . S
O33 C26 1.185 . S
O33 Zn29 2.086 . S
C34 O30 1.278 1_545 S
C34 O35 1.211 . S
O35 C34 1.211 . S
C36 O28 1.284 . S
C36 O37 1.273 . S
O37 C36 1.273 . S
O38 Zn29 1.977 . S
O38 C31 1.267 . S
C39 O40 1.160 . S
C39 O46 1.185 . S
O40 C39 1.160 . S
O41 Zn42 1.899 . S
O41 C49 1.284 . S
Zn42 O41 1.899 . S
Zn42 O43 2.032 . S
Zn42 O46 2.086 . S
Zn42 O51 1.977 . S
O43 Zn42 2.032 . S
O43 C47 1.278 . S
C44 O45 1.203 . S
C44 O51 1.267 . S
O45 C44 1.203 . S
O46 C39 1.185 . S
O46 Zn42 2.086 . S
C47 O43 1.278 . S
C47 O48 1.211 . S
O48 C47 1.211 . S
C49 O41 1.284 . S
C49 O50 1.273 . S
O50 C49 1.273 . S
O51 Zn42 1.977 . S
O51 C44 1.267 . S
C52 O53 1.160 . S
C52 O59 1.185 . S
O53 C52 1.160 . S
O54 Zn55 1.899 . S
O54 C62 1.284 . S
Zn55 O54 1.899 . S
Zn55 O56 2.032 . S
Zn55 O59 2.086 . S
Zn55 O64 1.977 . S
O56 Zn55 2.032 . S
O56 C60 1.278 1_455 S
C57 O58 1.203 . S
C57 O64 1.267 . S
O58 C57 1.203 . S
O59 C52 1.185 . S
O59 Zn55 2.086 . S
C60 O56 1.278 1_655 S
C60 O61 1.211 . S
O61 C60 1.211 . S
C62 O54 1.284 . S
C62 O63 1.273 . S
O63 C62 1.273 . S
O64 Zn55 1.977 . S
O64 C57 1.267 . S
C65 O66 1.160 . S
C65 O72 1.185 . S
O66 C65 1.160 . S
O67 Zn68 1.899 . S
O67 C75 1.284 . S
Zn68 O67 1.899 . S
Zn68 O69 2.032 . S
Zn68 O72 2.086 . S
Zn68 O77 1.977 . S
O69 Zn68 2.032 . S
O69 C73 1.278 1_545 S
C70 O71 1.203 . S
C70 O77 1.267 . S
O71 C70 1.203 . S
O72 C65 1.185 . S
O72 Zn68 2.086 . S
C73 O69 1.278 1_565 S
C73 O74 1.211 . S
O74 C73 1.211 . S
C75 O67 1.284 . S
C75 O76 1.273 . S
O76 C75 1.273 . S
O77 Zn68 1.977 . S
O77 C70 1.267 . S
C78 O79 1.160 . S
C78 O85 1.185 . S
O79 C78 1.160 . S
O80 Zn81 1.899 . S
O80 C88 1.284 . S
Zn81 O80 1.899 . S
Zn81 O82 2.032 . S
Zn81 O85 2.086 . S
Zn81 O90 1.977 . S
O82 Zn81 2.032 . S
O82 C86 1.278 . S
C83 O84 1.203 . S
C83 O90 1.267 . S
O84 C83 1.203 . S
O85 C78 1.185 . S
O85 Zn81 2.086 . S
C86 O82 1.278 . S
C86 O87 1.211 . S
O87 C86 1.211 . S
C88 O80 1.284 . S
C88 O89 1.273 . S
O89 C88 1.273 . S
O90 Zn81 1.977 . S
O90 C83 1.267 . S
C91 O92 1.160 . S
C91 O98 1.185 . S
O92 C91 1.160 . S
O93 Zn94 1.899 . S
O93 C101 1.284 . S
Zn94 O93 1.899 . S
Zn94 O95 2.032 . S
Zn94 O98 2.086 . S
Zn94 O103 1.977 . S
O95 Zn94 2.032 . S
O95 C99 1.278 1_655 S
C96 O97 1.203 . S
C96 O103 1.267 . S
O97 C96 1.203 . S
O98 C91 1.185 . S
O98 Zn94 2.086 . S
C99 O95 1.278 1_455 S
C99 O100 1.211 . S
O100 C99 1.211 . S
C101 O93 1.284 . S
C101 O102 1.273 . S
O102 C101 1.273 . S
O103 Zn94 1.977 . S
O103 C96 1.267 . S
C104 O105 1.160 . S
C104 O111 1.185 . S
O105 C104 1.160 . S
O106 Zn107 1.899 . S
O106 C114 1.284 . S
Zn107 O106 1.899 . S
Zn107 O108 2.032 . S
Zn107 O111 2.086 . S
Zn107 O116 1.977 . S
O108 Zn107 2.032 . S
O108 C112 1.278 1_565 S
C109 O110 1.203 . S
C109 O116 1.267 . S
O110 C109 1.203 . S
O111 C104 1.185 . S
O111 Zn107 2.086 . S
C112 O108 1.278 1_545 S
C112 O113 1.211 . S
O113 C112 1.211 . S
C114 O106 1.284 . S
C114 O115 1.273 . S
O115 C114 1.273 . S
O116 Zn107 1.977 . S
O116 C109 1.267 . S
C117 O118 1.160 . S
C117 O124 1.185 . S
O118 C117 1.160 . S
O119 Zn120 1.899 . S
O119 C127 1.284 . S
Zn120 O119 1.899 . S
Zn120 O121 2.032 . S
Zn120 O124 2.086 . S
Zn120 O129 1.977 . S
O121 Zn120 2.032 . S
O121 C125 1.278 . S
C122 O123 1.203 . S
C122 O129 1.267 . S
O123 C122 1.203 . S
O124 C117 1.185 . S
O124 Zn120 2.086 . S
C125 O121 1.278 . S
C125 O126 1.211 . S
O126 C125 1.211 . S
C127 O119 1.284 . S
C127 O128 1.273 . S
O128 C127 1.273 . S
O129 Zn120 1.977 . S
O129 C122 1.267 . S
C130 O131 1.160 . S
C130 O137 1.185 . S
O131 C130 1.160 . S
O132 Zn133 1.899 . S
O132 C140 1.284 . S
Zn133 O132 1.899 . S
Zn133 O134 2.032 . S
Zn133 O137 2.086 . S
Zn133 O142 1.977 . S
O134 Zn133 2.032 . S
O134 C138 1.278 1_455 S
C135 O136 1.203 . S
C135 O142 1.267 . S
O136 C135 1.203 . S
O137 C130 1.185 . S
O137 Zn133 2.086 . S
C138 O134 1.278 1_655 S
C138 O139 1.211 . S
O139 C138 1.211 . S
C140 O132 1.284 . S
C140 O141 1.273 . S
O141 C140 1.273 . S
O142 Zn133 1.977 . S
O142 C135 1.267 . S
C143 O144 1.160 . S
C143 O150 1.185 . S
O144 C143 1.160 . S
O145 Zn146 1.899 . S
O145 C153 1.284 . S
Zn146 O145 1.899 . S
Zn146 O147 2.032 . S
Zn146 O150 2.086 . S
Zn146 O155 1.977 . S
O147 Zn146 2.032 . S
O147 C151 1.278 1_545 S
C148 O149 1.203 . S
C148 O155 1.267 . S
O149 C148 1.203 . S
O150 C143 1.185 . S
O150 Zn146 2.086 . S
C151 O147 1.278 1_565 S
C151 O152 1.211 . S
O152 C151 1.211 . S
C153 O145 1.284 . S
C153 O154 1.273 . S
O154 C153 1.273 . S
O155 Zn146 1.977 . S
O155 C148 1.267 . S
H156 C164 0.929 . S
H157 C166 0.930 . S
H158 C168 0.930 . S
H159 C171 0.929 . S
H160 C174 0.930 . S
H161 C176 0.960 . S
H162 C176 0.960 . S
H163 C176 0.960 . S
C164 H156 0.929 . S
C164 C165 1.377 . S
C164 C166 1.384 . S
C165 C164 1.377 . S
C165 C171 1.390 . S
C166 H157 0.930 . S
C166 C164 1.384 . S
C166 C167 1.372 . S
C167 C166 1.372 . S
C167 C168 1.400 . S
C167 C172 1.490 . S
C168 H158 0.930 . S
C168 C167 1.400 . S
C168 C171 1.386 . S
H169 C185 0.930 . S
H170 C186 0.931 . S
C171 H159 0.929 . S
C171 C165 1.390 . S
C171 C168 1.386 . S
C172 C167 1.490 . S
C172 C174 1.395 . S
C172 C175 1.403 . S
H173 C179 0.930 . S
C174 H160 0.930 . S
C174 C172 1.395 . S
C174 C177 1.403 1_655 S
C175 C172 1.403 . S
C175 C176 1.524 . S
C175 C179 1.400 1_655 S
C176 H161 0.960 . S
C176 H162 0.960 . S
C176 H163 0.960 . S
C176 C175 1.524 . S
C177 C174 1.403 1_455 S
C177 C178 1.392 . S
C177 C181 1.495 . S
C178 C177 1.392 . S
C178 C179 1.385 . S
C178 C180 1.478 . S
C179 H173 0.930 . S
C179 C175 1.400 1_455 S
C179 C178 1.385 . S
C180 C178 1.478 . S
C180 C182 1.381 . S
C180 C186 1.383 . S
C181 C177 1.495 . S
C181 H187 0.959 . S
C181 H188 0.961 . S
C181 H189 0.960 . S
C182 C180 1.381 . S
C182 C183 1.394 . S
C182 H190 0.930 . S
C183 C182 1.394 . S
C183 C184 1.383 . S
C183 H191 0.929 . S
C184 C183 1.383 . S
C184 C185 1.377 . S
C185 H169 0.930 . S
C185 C184 1.377 . S
C185 C186 1.379 . S
C186 H170 0.931 . S
C186 C180 1.383 . S
C186 C185 1.379 . S
H187 C181 0.959 . S
H188 C181 0.961 . S
H189 C181 0.960 . S
H190 C182 0.930 . S
H191 C183 0.929 . S
H192 C200 0.929 . S
H193 C202 0.930 . S
H194 C204 0.930 . S
H195 C207 0.929 . S
H196 C210 0.930 . S
H197 C212 0.960 1_565 S
H198 C212 0.960 . S
H199 C212 0.960 . S
C200 H192 0.929 . S
C200 C201 1.377 . S
C200 C202 1.384 . S
C201 C200 1.377 . S
C201 C207 1.390 . S
C202 H193 0.930 . S
C202 C200 1.384 . S
C202 C203 1.372 . S
C203 C202 1.372 . S
C203 C204 1.400 . S
C203 C208 1.490 . S
C204 H194 0.930 . S
C204 C203 1.400 . S
C204 C207 1.386 . S
H205 C221 0.930 . S
H206 C222 0.931 . S
C207 H195 0.929 . S
C207 C201 1.390 . S
C207 C204 1.386 . S
C208 C203 1.490 . S
C208 C210 1.395 . S
C208 C211 1.403 . S
H209 C215 0.930 . S
C210 H196 0.930 . S
C210 C208 1.395 . S
C210 C213 1.403 1_545 S
C211 C208 1.403 . S
C211 C212 1.524 . S
C211 C215 1.400 1_545 S
C212 H197 0.960 1_545 S
C212 H198 0.960 . S
C212 H199 0.960 . S
C212 C211 1.524 . S
C213 C210 1.403 1_565 S
C213 C214 1.392 . S
C213 C217 1.495 . S
C214 C213 1.392 . S
C214 C215 1.385 . S
C214 C216 1.478 . S
C215 H209 0.930 . S
C215 C211 1.400 1_565 S
C215 C214 1.385 . S
C216 C214 1.478 . S
C216 C218 1.381 . S
C216 C222 1.383 . S
C217 C213 1.495 . S
C217 H223 0.959 1_565 S
C217 H224 0.961 . S
C217 H225 0.960 . S
C218 C216 1.381 . S
C218 C219 1.394 . S
C218 H226 0.930 . S
C219 C218 1.394 . S
C219 C220 1.383 . S
C219 H227 0.929 . S
C220 C219 1.383 . S
C220 C221 1.377 . S
C221 H205 0.930 . S
C221 C220 1.377 . S
C221 C222 1.379 . S
C222 H206 0.931 . S
C222 C216 1.383 . S
C222 C221 1.379 . S
H223 C217 0.959 1_545 S
H224 C217 0.961 . S
H225 C217 0.960 . S
H226 C218 0.930 . S
H227 C219 0.929 . S
H228 C236 0.929 . S
H229 C238 0.930 . S
H230 C240 0.930 . S
H231 C243 0.929 . S
H232 C246 0.930 . S
H233 C248 0.960 . S
H234 C248 0.960 . S
H235 C248 0.960 . S
C236 H228 0.929 . S
C236 C237 1.377 . S
C236 C238 1.384 . S
C237 C236 1.377 . S
C237 C243 1.390 . S
C238 H229 0.930 . S
C238 C236 1.384 . S
C238 C239 1.372 . S
C239 C238 1.372 . S
C239 C240 1.400 . S
C239 C244 1.490 . S
C240 H230 0.930 . S
C240 C239 1.400 . S
C240 C243 1.386 . S
H241 C257 0.930 . S
H242 C258 0.931 . S
C243 H231 0.929 . S
C243 C237 1.390 . S
C243 C240 1.386 . S
C244 C239 1.490 . S
C244 C246 1.395 . S
C244 C247 1.403 . S
H245 C251 0.930 . S
C246 H232 0.930 . S
C246 C244 1.395 . S
C246 C249 1.403 . S
C247 C244 1.403 . S
C247 C248 1.524 . S
C247 C251 1.400 . S
C248 H233 0.960 . S
C248 H234 0.960 . S
C248 H235 0.960 . S
C248 C247 1.524 . S
C249 C246 1.403 . S
C249 C250 1.392 . S
C249 C253 1.495 . S
C250 C249 1.392 . S
C250 C251 1.385 . S
C250 C252 1.478 . S
C251 H245 0.930 . S
C251 C247 1.400 . S
C251 C250 1.385 . S
C252 C250 1.478 . S
C252 C254 1.381 . S
C252 C258 1.383 . S
C253 C249 1.495 . S
C253 H259 0.959 . S
C253 H260 0.961 . S
C253 H261 0.960 . S
C254 C252 1.381 . S
C254 C255 1.394 . S
C254 H262 0.930 . S
C255 C254 1.394 . S
C255 C256 1.383 . S
C255 H263 0.929 . S
C256 C255 1.383 . S
C256 C257 1.377 . S
C257 H241 0.930 . S
C257 C256 1.377 . S
C257 C258 1.379 . S
C258 H242 0.931 . S
C258 C252 1.383 . S
C258 C257 1.379 . S
H259 C253 0.959 . S
H260 C253 0.961 . S
H261 C253 0.960 . S
H262 C254 0.930 . S
H263 C255 0.929 . S
H264 C272 0.929 . S
H265 C274 0.930 . S
H266 C276 0.930 . S
H267 C279 0.929 . S
H268 C282 0.930 . S
H269 C284 0.960 1_455 S
H270 C284 0.960 . S
H271 C284 0.960 . S
C272 H264 0.929 . S
C272 C273 1.377 . S
C272 C274 1.384 . S
C273 C272 1.377 . S
C273 C279 1.390 . S
C274 H265 0.930 . S
C274 C272 1.384 . S
C274 C275 1.372 . S
C275 C274 1.372 . S
C275 C276 1.400 . S
C275 C280 1.490 . S
C276 H266 0.930 . S
C276 C275 1.400 . S
C276 C279 1.386 . S
H277 C293 0.930 . S
H278 C294 0.931 . S
C279 H267 0.929 . S
C279 C273 1.390 . S
C279 C276 1.386 . S
C280 C275 1.490 . S
C280 C282 1.395 . S
C280 C283 1.403 . S
H281 C287 0.930 . S
C282 H268 0.930 . S
C282 C280 1.395 . S
C282 C285 1.403 1_655 S
C283 C280 1.403 . S
C283 C284 1.524 . S
C283 C287 1.400 1_655 S
C284 H269 0.960 1_655 S
C284 H270 0.960 . S
C284 H271 0.960 . S
C284 C283 1.524 . S
C285 C282 1.403 1_455 S
C285 C286 1.392 . S
C285 C289 1.495 . S
C286 C285 1.392 . S
C286 C287 1.385 . S
C286 C288 1.478 . S
C287 H281 0.930 . S
C287 C283 1.400 1_455 S
C287 C286 1.385 . S
C288 C286 1.478 . S
C288 C290 1.381 . S
C288 C294 1.383 . S
C289 C285 1.495 . S
C289 H295 0.959 1_455 S
C289 H296 0.961 . S
C289 H297 0.960 . S
C290 C288 1.381 . S
C290 C291 1.394 . S
C290 H298 0.930 . S
C291 C290 1.394 . S
C291 C292 1.383 . S
C291 H299 0.929 . S
C292 C291 1.383 . S
C292 C293 1.377 . S
C293 H277 0.930 . S
C293 C292 1.377 . S
C293 C294 1.379 . S
C294 H278 0.931 . S
C294 C288 1.383 . S
C294 C293 1.379 . S
H295 C289 0.959 1_655 S
H296 C289 0.961 . S
H297 C289 0.960 . S
H298 C290 0.930 . S
H299 C291 0.929 . S
H300 C308 0.929 . S
H301 C310 0.930 . S
H302 C312 0.930 . S
H303 C315 0.929 . S
H304 C318 0.930 . S
H305 C320 0.960 . S
H306 C320 0.960 . S
H307 C320 0.960 . S
C308 H300 0.929 . S
C308 C309 1.377 . S
C308 C310 1.384 . S
C309 C308 1.377 . S
C309 C315 1.390 . S
C310 H301 0.930 . S
C310 C308 1.384 . S
C310 C311 1.372 . S
C311 C310 1.372 . S
C311 C312 1.400 . S
C311 C316 1.490 . S
C312 H302 0.930 . S
C312 C311 1.400 . S
C312 C315 1.386 . S
H313 C329 0.930 . S
H314 C330 0.931 . S
C315 H303 0.929 . S
C315 C309 1.390 . S
C315 C312 1.386 . S
C316 C311 1.490 . S
C316 C318 1.395 . S
C316 C319 1.403 . S
H317 C323 0.930 . S
C318 H304 0.930 . S
C318 C316 1.395 . S
C318 C321 1.403 1_545 S
C319 C316 1.403 . S
C319 C320 1.524 . S
C319 C323 1.400 1_545 S
C320 H305 0.960 . S
C320 H306 0.960 . S
C320 H307 0.960 . S
C320 C319 1.524 . S
C321 C318 1.403 1_565 S
C321 C322 1.392 . S
C321 C325 1.495 . S
C322 C321 1.392 . S
C322 C323 1.385 . S
C322 C324 1.478 . S
C323 H317 0.930 . S
C323 C319 1.400 1_565 S
C323 C322 1.385 . S
C324 C322 1.478 . S
C324 C326 1.381 . S
C324 C330 1.383 . S
C325 C321 1.495 . S
C325 H331 0.959 . S
C325 H332 0.961 . S
C325 H333 0.960 . S
C326 C324 1.381 . S
C326 C327 1.394 . S
C326 H334 0.930 . S
C327 C326 1.394 . S
C327 C328 1.383 . S
C327 H335 0.929 . S
C328 C327 1.383 . S
C328 C329 1.377 . S
C329 H313 0.930 . S
C329 C328 1.377 . S
C329 C330 1.379 . S
C330 H314 0.931 . S
C330 C324 1.383 . S
C330 C329 1.379 . S
H331 C325 0.959 . S
H332 C325 0.961 . S
H333 C325 0.960 . S
H334 C326 0.930 . S
H335 C327 0.929 . S
H336 C344 0.929 . S
H337 C346 0.930 . S
H338 C348 0.930 . S
H339 C351 0.929 . S
H340 C354 0.930 . S
H341 C356 0.960 . S
H342 C356 0.960 . S
H343 C356 0.960 . S
C344 H336 0.929 . S
C344 C345 1.377 . S
C344 C346 1.384 . S
C345 C344 1.377 . S
C345 C351 1.390 . S
C346 H337 0.930 . S
C346 C344 1.384 . S
C346 C347 1.372 . S
C347 C346 1.372 . S
C347 C348 1.400 . S
C347 C352 1.490 . S
C348 H338 0.930 . S
C348 C347 1.400 . S
C348 C351 1.386 . S
H349 C365 0.930 . S
H350 C366 0.931 . S
C351 H339 0.929 . S
C351 C345 1.390 . S
C351 C348 1.386 . S
C352 C347 1.490 . S
C352 C354 1.395 . S
C352 C355 1.403 . S
H353 C359 0.930 . S
C354 H340 0.930 . S
C354 C352 1.395 . S
C354 C357 1.403 . S
C355 C352 1.403 . S
C355 C356 1.524 . S
C355 C359 1.400 . S
C356 H341 0.960 . S
C356 H342 0.960 . S
C356 H343 0.960 . S
C356 C355 1.524 . S
C357 C354 1.403 . S
C357 C358 1.392 . S
C357 C361 1.495 . S
C358 C357 1.392 . S
C358 C359 1.385 . S
C358 C360 1.478 . S
C359 H353 0.930 . S
C359 C355 1.400 . S
C359 C358 1.385 . S
C360 C358 1.478 . S
C360 C362 1.381 . S
C360 C366 1.383 . S
C361 C357 1.495 . S
C361 H367 0.959 . S
C361 H368 0.961 . S
C361 H369 0.960 . S
C362 C360 1.381 . S
C362 C363 1.394 . S
C362 H370 0.930 . S
C363 C362 1.394 . S
C363 C364 1.383 . S
C363 H371 0.929 . S
C364 C363 1.383 . S
C364 C365 1.377 . S
C365 H349 0.930 . S
C365 C364 1.377 . S
C365 C366 1.379 . S
C366 H350 0.931 . S
C366 C360 1.383 . S
C366 C365 1.379 . S
H367 C361 0.959 . S
H368 C361 0.961 . S
H369 C361 0.960 . S
H370 C362 0.930 . S
H371 C363 0.929 . S
H372 C380 0.929 . S
H373 C382 0.930 . S
H374 C384 0.930 . S
H375 C387 0.929 . S
H376 C390 0.930 . S
H377 C392 0.960 . S
H378 C392 0.960 . S
H379 C392 0.960 . S
C380 H372 0.929 . S
C380 C381 1.377 . S
C380 C382 1.384 . S
C381 C380 1.377 . S
C381 C387 1.390 . S
C382 H373 0.930 . S
C382 C380 1.384 . S
C382 C383 1.372 . S
C383 C382 1.372 . S
C383 C384 1.400 . S
C383 C388 1.490 . S
C384 H374 0.930 . S
C384 C383 1.400 . S
C384 C387 1.386 . S
H385 C401 0.930 . S
H386 C402 0.931 . S
C387 H375 0.929 . S
C387 C381 1.390 . S
C387 C384 1.386 . S
C388 C383 1.490 . S
C388 C390 1.395 . S
C388 C391 1.403 . S
H389 C395 0.930 . S
C390 H376 0.930 . S
C390 C388 1.395 . S
C390 C393 1.403 . S
C391 C388 1.403 . S
C391 C392 1.524 . S
C391 C395 1.400 . S
C392 H377 0.960 . S
C392 H378 0.960 . S
C392 H379 0.960 . S
C392 C391 1.524 . S
C393 C390 1.403 . S
C393 C394 1.392 . S
C393 C397 1.495 . S
C394 C393 1.392 . S
C394 C395 1.385 . S
C394 C396 1.478 . S
C395 H389 0.930 . S
C395 C391 1.400 . S
C395 C394 1.385 . S
C396 C394 1.478 . S
C396 C398 1.381 . S
C396 C402 1.383 . S
C397 C393 1.495 . S
C397 H403 0.959 . S
C397 H404 0.961 . S
C397 H405 0.960 . S
C398 C396 1.381 . S
C398 C399 1.394 . S
C398 H406 0.930 . S
C399 C398 1.394 . S
C399 C400 1.383 . S
C399 H407 0.929 . S
C400 C399 1.383 . S
C400 C401 1.377 . S
C401 H385 0.930 . S
C401 C400 1.377 . S
C401 C402 1.379 . S
C402 H386 0.931 . S
C402 C396 1.383 . S
C402 C401 1.379 . S
H403 C397 0.959 . S
H404 C397 0.961 . S
H405 C397 0.960 . S
H406 C398 0.930 . S
H407 C399 0.929 . S
H408 C416 0.929 . S
H409 C418 0.930 . S
H410 C420 0.930 . S
H411 C423 0.929 . S
H412 C426 0.930 . S
H413 C428 0.960 . S
H414 C428 0.960 . S
H415 C428 0.960 . S
C416 H408 0.929 . S
C416 C417 1.377 . S
C416 C418 1.384 . S
C417 C416 1.377 . S
C417 C423 1.390 . S
C418 H409 0.930 . S
C418 C416 1.384 . S
C418 C419 1.372 . S
C419 C418 1.372 . S
C419 C420 1.400 . S
C419 C424 1.490 . S
C420 H410 0.930 . S
C420 C419 1.400 . S
C420 C423 1.386 . S
H421 C437 0.930 . S
H422 C438 0.931 . S
C423 H411 0.929 . S
C423 C417 1.390 . S
C423 C420 1.386 . S
C424 C419 1.490 . S
C424 C426 1.395 . S
C424 C427 1.403 1_455 S
H425 C431 0.930 . S
C426 H412 0.930 . S
C426 C424 1.395 . S
C426 C429 1.403 . S
C427 C424 1.403 1_655 S
C427 C428 1.524 . S
C427 C431 1.400 . S
C428 H413 0.960 . S
C428 H414 0.960 . S
C428 H415 0.960 . S
C428 C427 1.524 . S
C429 C426 1.403 . S
C429 C430 1.392 1_455 S
C429 C433 1.495 . S
C430 C429 1.392 1_655 S
C430 C431 1.385 . S
C430 C432 1.478 . S
C431 H425 0.930 . S
C431 C427 1.400 . S
C431 C430 1.385 . S
C432 C430 1.478 . S
C432 C434 1.381 . S
C432 C438 1.383 . S
C433 C429 1.495 . S
C433 H439 0.959 . S
C433 H440 0.961 . S
C433 H441 0.960 . S
C434 C432 1.381 . S
C434 C435 1.394 . S
C434 H442 0.930 . S
C435 C434 1.394 . S
C435 C436 1.383 . S
C435 H443 0.929 . S
C436 C435 1.383 . S
C436 C437 1.377 . S
C437 H421 0.930 . S
C437 C436 1.377 . S
C437 C438 1.379 . S
C438 H422 0.931 . S
C438 C432 1.383 . S
C438 C437 1.379 . S
H439 C433 0.959 . S
H440 C433 0.961 . S
H441 C433 0.960 . S
H442 C434 0.930 . S
H443 C435 0.929 . S
H444 C452 0.929 . S
H445 C454 0.912 1_565 S
H446 C456 0.930 . S
H447 C459 0.929 . S
H448 C462 0.930 . S
H449 C464 0.960 . S
H450 C464 0.960 . S
H451 C464 0.960 . S
C452 H444 0.929 . S
C452 C453 1.377 . S
C452 C454 1.384 . S
C453 C452 1.377 . S
C453 C459 1.390 . S
C454 H445 0.912 1_545 S
C454 C452 1.384 . S
C454 C455 1.372 . S
C455 C454 1.372 . S
C455 C456 1.400 . S
C455 C460 1.490 . S
C456 H446 0.930 . S
C456 C455 1.400 . S
C456 C459 1.386 . S
H457 C473 0.930 . S
H458 C474 0.931 . S
C459 H447 0.929 . S
C459 C453 1.390 . S
C459 C456 1.386 . S
C460 C455 1.490 . S
C460 C462 1.395 1_545 S
C460 C463 1.403 . S
H461 C467 0.930 . S
C462 H448 0.930 . S
C462 C460 1.395 1_565 S
C462 C465 1.403 . S
C463 C460 1.403 . S
C463 C464 1.524 . S
C463 C467 1.400 . S
C464 H449 0.960 . S
C464 H450 0.960 . S
C464 H451 0.960 . S
C464 C463 1.524 . S
C465 C462 1.403 . S
C465 C466 1.392 . S
C465 C469 1.495 . S
C466 C465 1.392 . S
C466 C467 1.385 1_565 S
C466 C468 1.478 . S
C467 H461 0.930 . S
C467 C463 1.400 . S
C467 C466 1.385 1_545 S
C468 C466 1.478 . S
C468 C470 1.381 . S
C468 C474 1.383 . S
C469 C465 1.495 . S
C469 H475 0.959 . S
C469 H476 0.961 . S
C469 H477 0.960 . S
C470 C468 1.381 . S
C470 C471 1.394 . S
C470 H478 0.930 . S
C471 C470 1.394 . S
C471 C472 1.383 . S
C471 H479 0.929 . S
C472 C471 1.383 . S
C472 C473 1.377 . S
C473 H457 0.930 . S
C473 C472 1.377 . S
C473 C474 1.379 . S
C474 H458 0.931 . S
C474 C468 1.383 . S
C474 C473 1.379 . S
H475 C469 0.959 . S
H476 C469 0.961 . S
H477 C469 0.960 . S
H478 C470 0.930 . S
H479 C471 0.929 . S
H480 C488 0.929 . S
H481 C490 0.930 . S
H482 C492 0.930 . S
H483 C495 0.929 . S
H484 C498 0.930 . S
H485 C500 0.960 . S
H486 C500 0.960 . S
H487 C500 0.960 . S
C488 H480 0.929 . S
C488 C489 1.377 . S
C488 C490 1.384 . S
C489 C488 1.377 . S
C489 C495 1.390 . S
C490 H481 0.930 . S
C490 C488 1.384 . S
C490 C491 1.372 . S
C491 C490 1.372 . S
C491 C492 1.400 . S
C491 C496 1.490 . S
C492 H482 0.930 . S
C492 C491 1.400 . S
C492 C495 1.386 . S
H493 C509 0.930 . S
H494 C510 0.931 . S
C495 H483 0.929 . S
C495 C489 1.390 . S
C495 C492 1.386 . S
C496 C491 1.490 . S
C496 C498 1.395 . S
C496 C499 1.403 . S
H497 C503 0.930 . S
C498 H484 0.930 . S
C498 C496 1.395 . S
C498 C501 1.403 . S
C499 C496 1.403 . S
C499 C500 1.524 . S
C499 C503 1.400 . S
C500 H485 0.960 . S
C500 H486 0.960 . S
C500 H487 0.960 . S
C500 C499 1.524 . S
C501 C498 1.403 . S
C501 C502 1.392 . S
C501 C505 1.495 . S
C502 C501 1.392 . S
C502 C503 1.385 . S
C502 C504 1.478 . S
C503 H497 0.930 . S
C503 C499 1.400 . S
C503 C502 1.385 . S
C504 C502 1.478 . S
C504 C506 1.381 . S
C504 C510 1.383 . S
C505 C501 1.495 . S
C505 H511 0.959 . S
C505 H512 0.961 . S
C505 H513 0.960 . S
C506 C504 1.381 . S
C506 C507 1.394 . S
C506 H514 0.930 . S
C507 C506 1.394 . S
C507 C508 1.383 . S
C507 H515 0.929 . S
C508 C507 1.383 . S
C508 C509 1.377 . S
C509 H493 0.930 . S
C509 C508 1.377 . S
C509 C510 1.379 . S
C510 H494 0.931 . S
C510 C504 1.383 . S
C510 C509 1.379 . S
H511 C505 0.959 . S
H512 C505 0.961 . S
H513 C505 0.960 . S
H514 C506 0.930 . S
H515 C507 0.929 . S
H516 C524 0.929 . S
H517 C526 0.930 . S
H518 C528 0.930 . S
H519 C531 0.929 . S
H520 C534 0.930 . S
H521 C536 0.960 . S
H522 C536 0.960 . S
H523 C536 0.960 . S
C524 H516 0.929 . S
C524 C525 1.377 . S
C524 C526 1.384 . S
C525 C524 1.377 . S
C525 C531 1.390 . S
C526 H517 0.930 . S
C526 C524 1.384 . S
C526 C527 1.372 . S
C527 C526 1.372 . S
C527 C528 1.400 . S
C527 C532 1.490 . S
C528 H518 0.930 . S
C528 C527 1.400 . S
C528 C531 1.386 . S
H529 C545 0.930 . S
H530 C546 0.931 . S
C531 H519 0.929 . S
C531 C525 1.390 . S
C531 C528 1.386 . S
C532 C527 1.490 . S
C532 C534 1.395 . S
C532 C535 1.403 1_655 S
H533 C539 0.930 . S
C534 H520 0.930 . S
C534 C532 1.395 . S
C534 C537 1.403 . S
C535 C532 1.403 1_455 S
C535 C536 1.524 . S
C535 C539 1.400 . S
C536 H521 0.960 . S
C536 H522 0.960 . S
C536 H523 0.960 . S
C536 C535 1.524 . S
C537 C534 1.403 . S
C537 C538 1.392 1_655 S
C537 C541 1.495 . S
C538 C537 1.392 1_455 S
C538 C539 1.385 . S
C538 C540 1.478 . S
C539 H533 0.930 . S
C539 C535 1.400 . S
C539 C538 1.385 . S
C540 C538 1.478 . S
C540 C542 1.381 . S
C540 C546 1.383 . S
C541 C537 1.495 . S
C541 H547 0.959 . S
C541 H548 0.961 . S
C541 H549 0.960 . S
C542 C540 1.381 . S
C542 C543 1.394 . S
C542 H550 0.930 . S
C543 C542 1.394 . S
C543 C544 1.383 . S
C543 H551 0.929 . S
C544 C543 1.383 . S
C544 C545 1.377 . S
C545 H529 0.930 . S
C545 C544 1.377 . S
C545 C546 1.379 . S
C546 H530 0.931 . S
C546 C540 1.383 . S
C546 C545 1.379 . S
H547 C541 0.959 . S
H548 C541 0.961 . S
H549 C541 0.960 . S
H550 C542 0.930 . S
H551 C543 0.929 . S
H552 C560 0.929 . S
H553 C562 0.930 . S
H554 C564 0.930 1_545 S
H555 C567 0.929 . S
H556 C570 0.930 . S
H557 C572 0.960 . S
H558 C572 0.960 . S
H559 C572 0.960 . S
C560 H552 0.929 . S
C560 C561 1.377 . S
C560 C562 1.384 . S
C561 C560 1.377 . S
C561 C567 1.390 . S
C562 H553 0.930 . S
C562 C560 1.384 . S
C562 C563 1.372 . S
C563 C562 1.372 . S
C563 C564 1.400 . S
C563 C568 1.490 . S
C564 H554 0.930 1_565 S
C564 C563 1.400 . S
C564 C567 1.386 . S
H565 C581 0.930 . S
H566 C582 0.931 . S
C567 H555 0.929 . S
C567 C561 1.390 . S
C567 C564 1.386 . S
C568 C563 1.490 . S
C568 C570 1.395 . S
C568 C571 1.403 . S
H569 C575 0.930 . S
C570 H556 0.930 . S
C570 C568 1.395 . S
C570 C573 1.403 1_565 S
C571 C568 1.403 . S
C571 C572 1.524 . S
C571 C575 1.400 1_565 S
C572 H557 0.960 . S
C572 H558 0.960 . S
C572 H559 0.960 . S
C572 C571 1.524 . S
C573 C570 1.403 1_545 S
C573 C574 1.392 . S
C573 C577 1.495 . S
C574 C573 1.392 . S
C574 C575 1.385 . S
C574 C576 1.478 . S
C575 H569 0.930 . S
C575 C571 1.400 1_545 S
C575 C574 1.385 . S
C576 C574 1.478 . S
C576 C578 1.381 . S
C576 C582 1.383 . S
C577 C573 1.495 . S
C577 H583 0.959 . S
C577 H584 0.961 . S
C577 H585 0.960 . S
C578 C576 1.381 . S
C578 C579 1.394 . S
C578 H586 0.930 1_545 S
C579 C578 1.394 . S
C579 C580 1.383 . S
C579 H587 0.929 . S
C580 C579 1.383 . S
C580 C581 1.377 . S
C581 H565 0.930 . S
C581 C580 1.377 . S
C581 C582 1.379 . S
C582 H566 0.931 . S
C582 C576 1.383 . S
C582 C581 1.379 . S
H583 C577 0.959 . S
H584 C577 0.961 . S
H585 C577 0.960 . S
H586 C578 0.930 1_565 S
H587 C579 0.929 . S
H588 C596 0.929 . S
H589 C598 0.930 . S
H590 C600 0.930 . S
H591 C603 0.929 . S
H592 C606 0.930 . S
H593 C608 0.960 . S
H594 C608 0.960 . S
H595 C608 0.960 . S
C596 H588 0.929 . S
C596 C597 1.377 . S
C596 C598 1.384 . S
C597 C596 1.377 . S
C597 C603 1.390 . S
C598 H589 0.930 . S
C598 C596 1.384 . S
C598 C599 1.372 . S
C599 C598 1.372 . S
C599 C600 1.400 . S
C599 C604 1.490 . S
C600 H590 0.930 . S
C600 C599 1.400 . S
C600 C603 1.386 . S
H601 C617 0.930 . S
H602 C618 0.931 . S
C603 H591 0.929 . S
C603 C597 1.390 . S
C603 C600 1.386 . S
C604 C599 1.490 . S
C604 C606 1.395 . S
C604 C607 1.403 . S
H605 C611 0.930 . S
C606 H592 0.930 . S
C606 C604 1.395 . S
C606 C609 1.403 . S
C607 C604 1.403 . S
C607 C608 1.524 . S
C607 C611 1.400 . S
C608 H593 0.960 . S
C608 H594 0.960 . S
C608 H595 0.960 . S
C608 C607 1.524 . S
C609 C606 1.403 . S
C609 C610 1.392 . S
C609 C613 1.495 . S
C610 C609 1.392 . S
C610 C611 1.385 . S
C610 C612 1.478 . S
C611 H605 0.930 . S
C611 C607 1.400 . S
C611 C610 1.385 . S
C612 C610 1.478 . S
C612 C614 1.381 . S
C612 C618 1.383 . S
C613 C609 1.495 . S
C613 H619 0.959 . S
C613 H620 0.961 . S
C613 H621 0.960 . S
C614 C612 1.381 . S
C614 C615 1.394 . S
C614 H622 0.930 . S
C615 C614 1.394 . S
C615 C616 1.383 . S
C615 H623 0.929 . S
C616 C615 1.383 . S
C616 C617 1.377 . S
C617 H601 0.930 . S
C617 C616 1.377 . S
C617 C618 1.379 . S
C618 H602 0.931 . S
C618 C612 1.383 . S
C618 C617 1.379 . S
H619 C613 0.959 . S
H620 C613 0.961 . S
H621 C613 0.960 . S
H622 C614 0.930 . S
H623 C615 0.929 . S
H624 C632 0.929 1_655 S
H625 C634 0.930 . S
H626 C636 0.930 . S
H627 C639 0.929 . S
H628 C642 0.930 . S
H629 C644 0.960 . S
H630 C644 0.960 . S
H631 C644 0.960 . S
C632 H624 0.929 1_455 S
C632 C633 1.377 . S
C632 C634 1.384 . S
C633 C632 1.377 . S
C633 C639 1.390 . S
C634 H625 0.930 . S
C634 C632 1.384 . S
C634 C635 1.372 . S
C635 C634 1.372 . S
C635 C636 1.400 . S
C635 C640 1.490 . S
C636 H626 0.930 . S
C636 C635 1.400 . S
C636 C639 1.386 . S
H637 C653 0.930 . S
H638 C654 0.931 . S
C639 H627 0.929 . S
C639 C633 1.390 . S
C639 C636 1.386 . S
C640 C635 1.490 . S
C640 C642 1.395 . S
C640 C643 1.403 . S
H641 C647 0.930 . S
C642 H628 0.930 . S
C642 C640 1.395 . S
C642 C645 1.403 . S
C643 C640 1.403 . S
C643 C644 1.524 . S
C643 C647 1.400 . S
C644 H629 0.960 . S
C644 H630 0.960 . S
C644 H631 0.960 . S
C644 C643 1.524 . S
C645 C642 1.403 . S
C645 C646 1.392 . S
C645 C649 1.495 . S
C646 C645 1.392 . S
C646 C647 1.385 . S
C646 C648 1.478 . S
C647 H641 0.930 . S
C647 C643 1.400 . S
C647 C646 1.385 . S
C648 C646 1.478 . S
C648 C650 1.381 . S
C648 C654 1.383 . S
C649 C645 1.495 . S
C649 H655 0.959 . S
C649 H656 0.961 . S
C649 H657 0.960 . S
C650 C648 1.381 . S
C650 C651 1.394 . S
C650 H658 0.930 . S
C651 C650 1.394 . S
C651 C652 1.383 . S
C651 H659 0.929 . S
C652 C651 1.383 . S
C652 C653 1.377 . S
C653 H637 0.930 . S
C653 C652 1.377 . S
C653 C654 1.379 . S
C654 H638 0.931 . S
C654 C648 1.383 . S
C654 C653 1.379 . S
H655 C649 0.959 . S
H656 C649 0.961 . S
H657 C649 0.960 . S
H658 C650 0.930 . S
H659 C651 0.929 . S
H660 C668 0.929 . S
H661 C670 0.930 . S
H662 C672 0.930 . S
H663 C675 0.929 . S
H664 C678 0.930 . S
H665 C680 0.960 . S
H666 C680 0.960 . S
H667 C680 0.960 . S
C668 H660 0.929 . S
C668 C669 1.377 . S
C668 C670 1.384 . S
C669 C668 1.377 . S
C669 C675 1.390 . S
C670 H661 0.930 . S
C670 C668 1.384 . S
C670 C671 1.372 . S
C671 C670 1.372 . S
C671 C672 1.400 . S
C671 C676 1.490 . S
C672 H662 0.930 . S
C672 C671 1.400 . S
C672 C675 1.386 . S
H673 C689 0.930 1_565 S
H674 C690 0.931 . S
C675 H663 0.929 . S
C675 C669 1.390 . S
C675 C672 1.386 . S
C676 C671 1.490 . S
C676 C678 1.395 . S
C676 C679 1.403 . S
H677 C683 0.930 . S
C678 H664 0.930 . S
C678 C676 1.395 . S
C678 C681 1.403 . S
C679 C676 1.403 . S
C679 C680 1.524 . S
C679 C683 1.400 . S
C680 H665 0.960 . S
C680 H666 0.960 . S
C680 H667 0.960 . S
C680 C679 1.524 . S
C681 C678 1.403 . S
C681 C682 1.392 . S
C681 C685 1.495 . S
C682 C681 1.392 . S
C682 C683 1.385 . S
C682 C684 1.478 . S
C683 H677 0.930 . S
C683 C679 1.400 . S
C683 C682 1.385 . S
C684 C682 1.478 . S
C684 C686 1.381 . S
C684 C690 1.383 . S
C685 C681 1.495 . S
C685 H691 0.959 . S
C685 H692 0.961 . S
C685 H693 0.960 . S
C686 C684 1.381 . S
C686 C687 1.394 . S
C686 H694 0.930 . S
C687 C686 1.394 . S
C687 C688 1.383 . S
C687 H695 0.929 . S
C688 C687 1.383 . S
C688 C689 1.377 . S
C689 H673 0.930 1_545 S
C689 C688 1.377 . S
C689 C690 1.379 . S
C690 H674 0.931 . S
C690 C684 1.383 . S
C690 C689 1.379 . S
H691 C685 0.959 . S
H692 C685 0.961 . S
H693 C685 0.960 . S
H694 C686 0.930 . S
H695 C687 0.929 . S
H696 C704 0.929 1_545 S
H697 C706 0.930 . S
H698 C708 0.930 . S
H699 C711 0.929 . S
H700 C714 0.930 . S
H701 C716 0.960 . S
H702 C716 0.960 . S
H703 C716 0.960 . S
C704 H696 0.929 1_565 S
C704 C705 1.377 . S
C704 C706 1.384 . S
C705 C704 1.377 . S
C705 C711 1.390 . S
C706 H697 0.930 . S
C706 C704 1.384 . S
C706 C707 1.372 . S
C707 C706 1.372 . S
C707 C708 1.400 . S
C707 C712 1.490 . S
C708 H698 0.930 . S
C708 C707 1.400 . S
C708 C711 1.386 . S
H709 C725 0.930 . S
H710 C726 0.931 . S
C711 H699 0.929 . S
C711 C705 1.390 . S
C711 C708 1.386 . S
C712 C707 1.490 . S
C712 C714 1.395 . S
C712 C715 1.403 . S
H713 C719 0.930 . S
C714 H700 0.930 . S
C714 C712 1.395 . S
C714 C717 1.403 . S
C715 C712 1.403 . S
C715 C716 1.524 . S
C715 C719 1.400 . S
C716 H701 0.960 . S
C716 H702 0.960 . S
C716 H703 0.960 . S
C716 C715 1.524 . S
C717 C714 1.403 . S
C717 C718 1.392 . S
C717 C721 1.495 . S
C718 C717 1.392 . S
C718 C719 1.385 . S
C718 C720 1.478 . S
C719 H713 0.930 . S
C719 C715 1.400 . S
C719 C718 1.385 . S
C720 C718 1.478 . S
C720 C722 1.381 . S
C720 C726 1.383 . S
C721 C717 1.495 . S
C721 H727 0.959 . S
C721 H728 0.961 . S
C721 H729 0.960 . S
C722 C720 1.381 . S
C722 C723 1.394 . S
C722 H730 0.930 . S
C723 C722 1.394 . S
C723 C724 1.383 . S
C723 H731 0.929 . S
C724 C723 1.383 . S
C724 C725 1.377 . S
C725 H709 0.930 . S
C725 C724 1.377 . S
C725 C726 1.379 . S
C726 H710 0.931 . S
C726 C720 1.383 . S
C726 C725 1.379 . S
H727 C721 0.959 . S
H728 C721 0.961 . S
H729 C721 0.960 . S
H730 C722 0.930 . S
H731 C723 0.929 . S
H732 C740 0.929 . S
H733 C742 0.930 . S
H734 C744 0.930 . S
H735 C747 0.929 . S
H736 C750 0.930 . S
H737 C752 0.960 . S
H738 C752 0.960 . S
H739 C752 0.960 . S
C740 H732 0.929 . S
C740 C741 1.377 . S
C740 C742 1.384 . S
C741 C740 1.377 . S
C741 C747 1.390 . S
C742 H733 0.930 . S
C742 C740 1.384 . S
C742 C743 1.372 . S
C743 C742 1.372 . S
C743 C744 1.400 . S
C743 C748 1.490 . S
C744 H734 0.930 . S
C744 C743 1.400 . S
C744 C747 1.386 . S
H745 C761 0.930 . S
H746 C762 0.931 . S
C747 H735 0.929 . S
C747 C741 1.390 . S
C747 C744 1.386 . S
C748 C743 1.490 . S
C748 C750 1.395 . S
C748 C751 1.403 . S
H749 C755 0.930 . S
C750 H736 0.930 . S
C750 C748 1.395 . S
C750 C753 1.403 . S
C751 C748 1.403 . S
C751 C752 1.524 . S
C751 C755 1.400 . S
C752 H737 0.960 . S
C752 H738 0.960 . S
C752 H739 0.960 . S
C752 C751 1.524 . S
C753 C750 1.403 . S
C753 C754 1.392 . S
C753 C757 1.495 . S
C754 C753 1.392 . S
C754 C755 1.385 . S
C754 C756 1.478 . S
C755 H749 0.930 . S
C755 C751 1.400 . S
C755 C754 1.385 . S
C756 C754 1.478 . S
C756 C758 1.381 . S
C756 C762 1.383 . S
C757 C753 1.495 . S
C757 H763 0.959 . S
C757 H764 0.961 . S
C757 H765 0.960 . S
C758 C756 1.381 . S
C758 C759 1.415 . S
C758 H766 0.930 . S
C759 C758 1.415 . S
C759 C760 1.379 . S
C759 H767 0.913 1_655 S
C760 C759 1.379 . S
C760 C761 1.377 . S
C761 H745 0.930 . S
C761 C760 1.377 . S
C761 C762 1.379 . S
C762 H746 0.931 . S
C762 C756 1.383 . S
C762 C761 1.379 . S
H763 C757 0.959 . S
H764 C757 0.961 . S
H765 C757 0.960 . S
H766 C758 0.930 . S
H767 C759 0.913 1_455 S
H768 C776 0.929 1_545 S
H769 C778 0.930 . S
H770 C780 0.930 . S
H771 C783 0.929 . S
H772 C786 0.930 . S
H773 C788 0.960 . S
H774 C788 0.960 . S
H775 C788 0.960 . S
C776 H768 0.929 1_565 S
C776 C777 1.377 . S
C776 C778 1.384 . S
C777 C776 1.377 . S
C777 C783 1.390 . S
C778 H769 0.930 . S
C778 C776 1.384 . S
C778 C779 1.372 . S
C779 C778 1.372 . S
C779 C780 1.400 . S
C779 C784 1.490 . S
C780 H770 0.930 . S
C780 C779 1.400 . S
C780 C783 1.386 . S
H781 C797 0.930 . S
H782 C798 0.931 . S
C783 H771 0.929 . S
C783 C777 1.390 . S
C783 C780 1.386 . S
C784 C779 1.490 . S
C784 C786 1.395 . S
C784 C787 1.403 . S
H785 C791 0.930 . S
C786 H772 0.930 . S
C786 C784 1.395 . S
C786 C789 1.403 . S
C787 C784 1.403 . S
C787 C788 1.524 . S
C787 C791 1.400 . S
C788 H773 0.960 . S
C788 H774 0.960 . S
C788 H775 0.960 . S
C788 C787 1.524 . S
C789 C786 1.403 . S
C789 C790 1.392 . S
C789 C793 1.495 . S
C790 C789 1.392 . S
C790 C791 1.385 . S
C790 C792 1.478 . S
C791 H785 0.930 . S
C791 C787 1.400 . S
C791 C790 1.385 . S
C792 C790 1.478 . S
C792 C794 1.381 . S
C792 C798 1.383 . S
C793 C789 1.495 . S
C793 H799 0.959 . S
C793 H800 0.961 . S
C793 H801 0.960 . S
C794 C792 1.381 . S
C794 C795 1.394 . S
C794 H802 0.930 . S
C795 C794 1.394 . S
C795 C796 1.383 . S
C795 H803 0.929 1_455 S
C796 C795 1.383 . S
C796 C797 1.377 . S
C797 H781 0.930 . S
C797 C796 1.377 . S
C797 C798 1.379 . S
C798 H782 0.931 . S
C798 C792 1.383 . S
C798 C797 1.379 . S
H799 C793 0.959 . S
H800 C793 0.961 . S
H801 C793 0.960 . S
H802 C794 0.930 . S
H803 C795 0.929 1_655 S
H804 C812 0.929 . S
H805 C814 0.930 . S
H806 C816 0.930 . S
H807 C819 0.929 . S
H808 C822 0.930 . S
H809 C824 0.960 . S
H810 C824 0.960 . S
H811 C824 0.960 . S
C812 H804 0.929 . S
C812 C813 1.377 . S
C812 C814 1.384 . S
C813 C812 1.377 . S
C813 C819 1.390 . S
C814 H805 0.930 . S
C814 C812 1.384 . S
C814 C815 1.372 . S
C815 C814 1.372 . S
C815 C816 1.400 . S
C815 C820 1.490 . S
C816 H806 0.930 . S
C816 C815 1.400 . S
C816 C819 1.386 . S
H817 C833 0.930 . S
H818 C834 0.931 . S
C819 H807 0.929 . S
C819 C813 1.390 . S
C819 C816 1.386 . S
C820 C815 1.490 . S
C820 C822 1.395 . S
C820 C823 1.403 . S
H821 C827 0.930 . S
C822 H808 0.930 . S
C822 C820 1.395 . S
C822 C825 1.403 . S
C823 C820 1.403 . S
C823 C824 1.524 . S
C823 C827 1.400 . S
C824 H809 0.960 . S
C824 H810 0.960 . S
C824 H811 0.960 . S
C824 C823 1.524 . S
C825 C822 1.403 . S
C825 C826 1.392 . S
C825 C829 1.495 . S
C826 C825 1.392 . S
C826 C827 1.385 . S
C826 C828 1.478 . S
C827 H821 0.930 . S
C827 C823 1.400 . S
C827 C826 1.385 . S
C828 C826 1.478 . S
C828 C830 1.381 . S
C828 C834 1.383 . S
C829 C825 1.495 . S
C829 H835 0.959 . S
C829 H836 0.961 . S
C829 H837 0.960 . S
C830 C828 1.381 . S
C830 C831 1.394 . S
C830 H838 0.930 . S
C831 C830 1.394 . S
C831 C832 1.383 . S
C831 H839 0.929 . S
C832 C831 1.383 . S
C832 C833 1.377 . S
C833 H817 0.930 . S
C833 C832 1.377 . S
C833 C834 1.379 . S
C834 H818 0.931 . S
C834 C828 1.383 . S
C834 C833 1.379 . S
H835 C829 0.959 . S
H836 C829 0.961 . S
H837 C829 0.960 . S
H838 C830 0.930 . S
H839 C831 0.929 . S
H840 C848 0.929 . S
H841 C850 0.930 . S
H842 C852 0.930 . S
H843 C855 0.929 1_455 S
H844 C858 0.930 . S
H845 C860 0.960 . S
H846 C860 0.960 . S
H847 C860 0.960 . S
C848 H840 0.929 . S
C848 C849 1.377 . S
C848 C850 1.384 . S
C849 C848 1.377 . S
C849 C855 1.390 . S
C850 H841 0.930 . S
C850 C848 1.384 . S
C850 C851 1.372 . S
C851 C850 1.372 . S
C851 C852 1.400 1_655 S
C851 C856 1.490 . S
C852 H842 0.930 . S
C852 C851 1.400 1_455 S
C852 C855 1.386 1_455 S
H853 C869 0.930 . S
H854 C870 0.931 . S
C855 H843 0.929 1_655 S
C855 C849 1.390 . S
C855 C852 1.386 1_655 S
C856 C851 1.490 . S
C856 C858 1.395 . S
C856 C859 1.403 1_655 S
H857 C863 0.930 . S
C858 H844 0.930 . S
C858 C856 1.395 . S
C858 C861 1.403 . S
C859 C856 1.403 1_455 S
C859 C860 1.524 . S
C859 C863 1.400 . S
C860 H845 0.960 . S
C860 H846 0.960 . S
C860 H847 0.960 . S
C860 C859 1.524 . S
C861 C858 1.403 . S
C861 C862 1.392 1_655 S
C861 C865 1.495 . S
C862 C861 1.392 1_455 S
C862 C863 1.385 . S
C862 C864 1.478 . S
C863 H857 0.930 . S
C863 C859 1.400 . S
C863 C862 1.385 . S
C864 C862 1.478 . S
C864 C866 1.381 1_455 S
C864 C870 1.383 . S
C865 C861 1.495 . S
C865 H871 0.959 . S
C865 H872 0.961 . S
C865 H873 0.960 . S
C866 C864 1.381 1_655 S
C866 C867 1.394 1_655 S
C866 H874 0.930 . S
C867 C866 1.394 1_455 S
C867 C868 1.383 . S
C867 H875 0.929 1_455 S
C868 C867 1.383 . S
C868 C869 1.377 . S
C869 H853 0.930 . S
C869 C868 1.377 . S
C869 C870 1.379 . S
C870 H854 0.931 . S
C870 C864 1.383 . S
C870 C869 1.379 . S
H871 C865 0.959 . S
H872 C865 0.961 . S
H873 C865 0.960 . S
H874 C866 0.930 . S
H875 C867 0.929 1_655 S
H876 C884 0.929 . S
H877 C886 0.930 . S
H878 C888 0.930 . S
H879 C891 0.929 1_565 S
H880 C894 0.930 . S
H881 C896 0.960 . S
H882 C896 0.960 . S
H883 C896 0.960 . S
C884 H876 0.929 . S
C884 C885 1.377 . S
C884 C886 1.384 . S
C885 C884 1.377 . S
C885 C891 1.390 . S
C886 H877 0.930 . S
C886 C884 1.384 . S
C886 C887 1.372 . S
C887 C886 1.372 . S
C887 C888 1.400 1_545 S
C887 C892 1.490 . S
C888 H878 0.930 . S
C888 C887 1.400 1_565 S
C888 C891 1.386 1_565 S
H889 C905 0.930 . S
H890 C906 0.931 . S
C891 H879 0.929 1_545 S
C891 C885 1.390 . S
C891 C888 1.386 1_545 S
C892 C887 1.490 . S
C892 C894 1.395 . S
C892 C895 1.403 1_545 S
H893 C899 0.930 . S
C894 H880 0.930 . S
C894 C892 1.395 . S
C894 C897 1.403 1_554 S
C895 C892 1.403 1_565 S
C895 C896 1.524 . S
C895 C899 1.400 1_554 S
C896 H881 0.960 . S
C896 H882 0.960 . S
C896 H883 0.960 . S
C896 C895 1.524 . S
C897 C894 1.403 1_556 S
C897 C898 1.392 1_545 S
C897 C901 1.495 . S
C898 C897 1.392 1_565 S
C898 C899 1.385 . S
C898 C900 1.478 . S
C899 H893 0.930 . S
C899 C895 1.400 1_556 S
C899 C898 1.385 . S
C900 C898 1.478 . S
C900 C902 1.381 1_565 S
C900 C906 1.383 . S
C901 C897 1.495 . S
C901 H907 0.959 . S
C901 H908 0.961 . S
C901 H909 0.960 . S
C902 C900 1.381 1_545 S
C902 C903 1.394 1_545 S
C902 H910 0.930 . S
C903 C902 1.394 1_565 S
C903 C904 1.383 . S
C903 H911 0.929 1_565 S
C904 C903 1.383 . S
C904 C905 1.377 . S
C905 H889 0.930 . S
C905 C904 1.377 . S
C905 C906 1.379 . S
C906 H890 0.931 . S
C906 C900 1.383 . S
C906 C905 1.379 . S
H907 C901 0.959 . S
H908 C901 0.961 . S
H909 C901 0.960 . S
H910 C902 0.930 . S
H911 C903 0.929 1_545 S
H912 C920 0.929 . S
H913 C922 0.930 . S
H914 C924 0.930 . S
H915 C927 0.929 . S
H916 C930 0.930 . S
H917 C932 0.960 . S
H918 C932 0.960 . S
H919 C932 0.960 . S
C920 H912 0.929 . S
C920 C921 1.377 . S
C920 C922 1.384 . S
C921 C920 1.377 . S
C921 C927 1.390 . S
C922 H913 0.930 . S
C922 C920 1.384 . S
C922 C923 1.372 . S
C923 C922 1.372 . S
C923 C924 1.400 . S
C923 C928 1.490 . S
C924 H914 0.930 . S
C924 C923 1.400 . S
C924 C927 1.386 . S
H925 C941 0.930 . S
H926 C942 0.931 . S
C927 H915 0.929 . S
C927 C921 1.390 . S
C927 C924 1.386 . S
C928 C923 1.490 . S
C928 C930 1.395 . S
C928 C931 1.403 . S
H929 C935 0.930 . S
C930 H916 0.930 . S
C930 C928 1.395 . S
C930 C933 1.403 . S
C931 C928 1.403 . S
C931 C932 1.524 . S
C931 C935 1.400 . S
C932 H917 0.960 . S
C932 H918 0.960 . S
C932 H919 0.960 . S
C932 C931 1.524 . S
C933 C930 1.403 . S
C933 C934 1.392 . S
C933 C937 1.495 . S
C934 C933 1.392 . S
C934 C935 1.385 . S
C934 C936 1.478 . S
C935 H929 0.930 . S
C935 C931 1.400 . S
C935 C934 1.385 . S
C936 C934 1.478 . S
C936 C938 1.381 . S
C936 C942 1.383 . S
C937 C933 1.495 . S
C937 H943 0.959 . S
C937 H944 0.961 . S
C937 H945 0.960 . S
C938 C936 1.381 . S
C938 C939 1.394 . S
C938 H946 0.930 . S
C939 C938 1.394 . S
C939 C940 1.383 . S
C939 H947 0.929 . S
C940 C939 1.383 . S
C940 C941 1.377 . S
C941 H925 0.930 . S
C941 C940 1.377 . S
C941 C942 1.379 . S
C942 H926 0.931 . S
C942 C936 1.383 . S
C942 C941 1.379 . S
H943 C937 0.959 . S
H944 C937 0.961 . S
H945 C937 0.960 . S
H946 C938 0.930 . S
H947 C939 0.929 . S
H948 C956 0.929 . S
H949 C958 0.930 . S
H950 C960 0.930 1_655 S
H951 C963 0.929 . S
H952 C966 0.930 . S
H953 C968 0.960 . S
H954 C968 0.960 . S
H955 C968 0.960 . S
C956 H948 0.929 . S
C956 C957 1.377 . S
C956 C958 1.384 . S
C957 C956 1.377 . S
C957 C963 1.390 . S
C958 H949 0.930 . S
C958 C956 1.384 . S
C958 C959 1.372 . S
C959 C958 1.372 . S
C959 C960 1.400 . S
C959 C964 1.490 . S
C960 H950 0.930 1_455 S
C960 C959 1.400 . S
C960 C963 1.386 . S
H961 C977 0.930 . S
H962 C978 0.931 . S
C963 H951 0.929 . S
C963 C957 1.390 . S
C963 C960 1.386 . S
C964 C959 1.490 . S
C964 C966 1.395 . S
C964 C967 1.403 1_455 S
H965 C971 0.930 . S
C966 H952 0.930 . S
C966 C964 1.395 . S
C966 C969 1.403 . S
C967 C964 1.403 1_655 S
C967 C968 1.524 . S
C967 C971 1.400 . S
C968 H953 0.960 . S
C968 H954 0.960 . S
C968 H955 0.960 . S
C968 C967 1.524 . S
C969 C966 1.403 . S
C969 C970 1.392 1_455 S
C969 C973 1.495 . S
C970 C969 1.392 1_655 S
C970 C971 1.385 . S
C970 C972 1.478 . S
C971 H965 0.930 . S
C971 C967 1.400 . S
C971 C970 1.385 . S
C972 C970 1.478 . S
C972 C974 1.381 . S
C972 C978 1.383 . S
C973 C969 1.495 . S
C973 H979 0.959 . S
C973 H980 0.961 . S
C973 H981 0.960 . S
C974 C972 1.381 . S
C974 C975 1.394 . S
C974 H982 0.930 1_655 S
C975 C974 1.394 . S
C975 C976 1.383 . S
C975 H983 0.929 . S
C976 C975 1.383 . S
C976 C977 1.377 . S
C977 H961 0.930 . S
C977 C976 1.377 . S
C977 C978 1.379 . S
C978 H962 0.931 . S
C978 C972 1.383 . S
C978 C977 1.379 . S
H979 C973 0.959 . S
H980 C973 0.961 . S
H981 C973 0.960 . S
H982 C974 0.930 1_455 S
H983 C975 0.929 . S
H984 C992 0.929 . S
H985 C994 0.930 . S
H986 C996 0.930 . S
H987 C999 0.929 . S
H988 C1002 0.930 . S
H989 C1004 0.960 . S
H990 C1004 0.960 . S
H991 C1004 0.960 . S
C992 H984 0.929 . S
C992 C993 1.377 . S
C992 C994 1.384 . S
C993 C992 1.377 . S
C993 C999 1.390 . S
C994 H985 0.930 . S
C994 C992 1.384 . S
C994 C995 1.372 . S
C995 C994 1.372 . S
C995 C996 1.400 . S
C995 C1000 1.490 . S
C996 H986 0.930 . S
C996 C995 1.400 . S
C996 C999 1.386 . S
H997 C1013 0.930 . S
H998 C1014 0.931 . S
C999 H987 0.929 . S
C999 C993 1.390 . S
C999 C996 1.386 . S
C1000 C995 1.490 . S
C1000 C1002 1.395 . S
C1000 C1003 1.403 1_565 S
H1001 C1007 0.930 . S
C1002 H988 0.930 . S
C1002 C1000 1.395 . S
C1002 C1005 1.403 1_554 S
C1003 C1000 1.403 1_545 S
C1003 C1004 1.524 . S
C1003 C1007 1.400 1_554 S
C1004 H989 0.960 . S
C1004 H990 0.960 . S
C1004 H991 0.960 . S
C1004 C1003 1.524 . S
C1005 C1002 1.403 1_556 S
C1005 C1006 1.392 1_565 S
C1005 C1009 1.495 . S
C1006 C1005 1.392 1_545 S
C1006 C1007 1.385 . S
C1006 C1008 1.478 . S
C1007 H1001 0.930 . S
C1007 C1003 1.400 1_556 S
C1007 C1006 1.385 . S
C1008 C1006 1.478 . S
C1008 C1010 1.381 . S
C1008 C1014 1.383 . S
C1009 C1005 1.495 . S
C1009 H1015 0.959 . S
C1009 H1016 0.961 . S
C1009 H1017 0.960 . S
C1010 C1008 1.381 . S
C1010 C1011 1.394 . S
C1010 H1018 0.930 . S
C1011 C1010 1.394 . S
C1011 C1012 1.383 . S
C1011 H1019 0.929 . S
C1012 C1011 1.383 . S
C1012 C1013 1.377 . S
C1013 H997 0.930 . S
C1013 C1012 1.377 . S
C1013 C1014 1.379 . S
C1014 H998 0.931 . S
C1014 C1008 1.383 . S
C1014 C1013 1.379 . S
H1015 C1009 0.959 . S
H1016 C1009 0.961 . S
H1017 C1009 0.960 . S
H1018 C1010 0.930 . S
H1019 C1011 0.929 . S
C165 C143 1.423 . S
C184 C0 1.395 . S
C201 C13 1.418 . S
C220 C78 1.395 . S
C237 C26 1.423 . S
C256 C91 1.397 . S
C273 C39 1.422 . S
C292 C104 1.389 . S
C309 C117 1.416 . S
C328 C52 1.433 . S
C345 C65 1.418 . S
C364 C130 1.427 . S
C381 C44 1.015 . S
C400 C5 0.959 . S
C417 C57 1.006 . S
C436 C18 0.962 . S
C453 C70 0.999 . S
C472 C31 1.050 . S
C489 C83 1.006 . S
C508 C122 1.027 . S
C525 C96 1.007 . S
C544 C135 0.961 . S
C561 C109 1.014 . S
C580 C148 0.980 . S
C597 C112 0.335 . S
C616 C8 0.393 . S
C633 C21 0.345 . S
C652 C125 0.335 . S
C669 C138 0.335 . S
C688 C34 0.276 . S
C705 C151 0.337 . S
C724 C47 0.387 . S
C741 C86 0.334 . S
C760 C60 0.394 . S
C777 C73 0.342 . S
C796 C99 0.364 . S
C813 C127 1.568 . S
C832 C10 1.546 . S
C849 C23 1.570 . S
C868 C140 1.550 . S
C885 C153 1.570 . S
C904 C36 1.550 . S
C921 C49 1.572 . S
C940 C88 1.563 . S
C957 C62 1.567 . S
C976 C101 1.544 . S
C993 C114 1.564 . S
C1012 C75 1.548 . S
