# Generated by pormake.
# Topology lcy-e, (6)-cn, num edge types: 1
# Building blocks:
#     Node 0, Type 0, BuildingBlock: BETDEL_clean_sbu_0, # of connection points: 6
#     Node 1, Type 0, BuildingBlock: BETDEL_clean_sbu_0, # of connection points: 6
#     Node 2, Type 0, BuildingBlock: BETDEL_clean_sbu_0, # of connection points: 6
#     Node 3, Type 0, BuildingBlock: BETDEL_clean_sbu_0, # of connection points: 6
#     Node 4, Type 0, BuildingBlock: BETDEL_clean_sbu_0, # of connection points: 6
#     Node 5, Type 0, BuildingBlock: BETDEL_clean_sbu_0, # of connection points: 6
#     Node 6, Type 0, BuildingBlock: BETDEL_clean_sbu_0, # of connection points: 6
#     Node 7, Type 0, BuildingBlock: BETDEL_clean_sbu_0, # of connection points: 6
#     Node 8, Type 0, BuildingBlock: BETDEL_clean_sbu_0, # of connection points: 6
#     Node 9, Type 0, BuildingBlock: BETDEL_clean_sbu_0, # of connection points: 6
#     Node 10, Type 0, BuildingBlock: BETDEL_clean_sbu_0, # of connection points: 6
#     Node 11, Type 0, BuildingBlock: BETDEL_clean_sbu_0, # of connection points: 6
#     Edge 12, Type (0, 0), None
#     Edge 13, Type (0, 0), None
#     Edge 14, Type (0, 0), None
#     Edge 15, Type (0, 0), None
#     Edge 16, Type (0, 0), None
#     Edge 17, Type (0, 0), None
#     Edge 18, Type (0, 0), None
#     Edge 19, Type (0, 0), None
#     Edge 20, Type (0, 0), None
#     Edge 21, Type (0, 0), None
#     Edge 22, Type (0, 0), None
#     Edge 23, Type (0, 0), None
#     Edge 24, Type (0, 0), None
#     Edge 25, Type (0, 0), None
#     Edge 26, Type (0, 0), None
#     Edge 27, Type (0, 0), None
#     Edge 28, Type (0, 0), None
#     Edge 29, Type (0, 0), None
#     Edge 30, Type (0, 0), None
#     Edge 31, Type (0, 0), None
#     Edge 32, Type (0, 0), None
#     Edge 33, Type (0, 0), None
#     Edge 34, Type (0, 0), None
#     Edge 35, Type (0, 0), None
#     Edge 36, Type (0, 0), None
#     Edge 37, Type (0, 0), None
#     Edge 38, Type (0, 0), None
#     Edge 39, Type (0, 0), None
#     Edge 40, Type (0, 0), None
#     Edge 41, Type (0, 0), None
#     Edge 42, Type (0, 0), None
#     Edge 43, Type (0, 0), None
#     Edge 44, Type (0, 0), None
#     Edge 45, Type (0, 0), None
#     Edge 46, Type (0, 0), None
#     Edge 47, Type (0, 0), None
# Relax obj value: 0.217
# Max RMSD: 0.294
# Mean RMSD: 0.282
data_MOF--net-lcy-e--node1-BETDEL_clean_sbu_0--edge1-none
_symmetry_space_group_name_H-M    P1
_symmetry_Int_Tables_number       1
_symmetry_cell_setting            triclinic
loop_
_symmetry_equiv_pos_as_xyz
'x, y, z'
_cell_length_a     18.001388
_cell_length_b     17.656346
_cell_length_c     18.289631
_cell_angle_alpha  90.041106
_cell_angle_beta   92.585984
_cell_angle_gamma 87.311822
loop_
_atom_site_label
_atom_site_type_symbol
_atom_site_fract_x
_atom_site_fract_y
_atom_site_fract_z
_atom_type_partial_charge
Dy0 Dy 0.11607 0.26969 0.47177 0.0
C1 C 0.14694 0.01441 0.61376 0.0
C2 C 0.14229 0.37648 0.37188 0.0
Dy3 Dy 0.16181 0.15735 0.56815 0.0
O4 O 0.07595 0.36577 0.39559 0.0
O5 O 0.19211 0.33633 0.40878 0.0
O6 O 0.05063 0.20387 0.39093 0.0
O7 O 0.05235 0.17283 0.50249 0.0
C8 C 0.02945 0.15529 0.43731 0.0
C9 C 0.2348 0.29546 0.57921 0.0
O10 O 0.24932 0.11135 0.49934 0.0
O11 O 0.20226 0.19322 0.41018 0.0
O12 O 0.1924 0.06178 0.64519 0.0
O13 O 0.11329 0.04405 0.55575 0.0
O14 O 0.21547 0.25524 0.63456 0.0
O15 O 0.21941 0.25495 0.52514 0.0
O16 O 0.07567 0.30913 0.59126 0.0
O17 O 0.09368 0.19707 0.65574 0.0
C18 C 0.25052 0.13713 0.43277 0.0
C19 C 0.06996 0.2676 0.65406 0.0
Dy20 Dy 0.98564 0.82916 0.67593 0.0
C21 C 0.23364 0.84338 0.86329 0.0
C22 C 0.87957 0.87077 0.56923 0.0
Dy23 Dy 0.0988 0.86283 0.79241 0.0
O24 O 0.89034 0.80186 0.59617 0.0
O25 O 0.92151 0.91649 0.60514 0.0
O26 O 0.06309 0.76668 0.60354 0.0
O27 O 0.08514 0.76246 0.71723 0.0
C28 C 0.11033 0.74355 0.65497 0.0
C29 C 0.95611 0.93006 0.80167 0.0
O30 O 0.14986 0.93515 0.71593 0.0
O31 O 0.05676 0.91905 0.62741 0.0
O32 O 0.19532 0.90809 0.85729 0.0
O33 O 0.19723 0.78913 0.83275 0.0
O34 O 1.00362 0.92199 0.85766 0.0
O35 O 0.99438 0.91978 0.74653 0.0
O36 O 0.95075 0.779 0.79097 0.0
O37 O 0.05071 0.79957 0.87472 0.0
C38 C 0.11923 0.94983 0.65161 0.0
C39 C 0.98467 0.77613 0.86012 0.0
Dy40 Dy 0.37566 0.81995 0.03505 0.0
C41 C 0.39253 0.6131 0.82099 0.0
C42 C 0.40982 0.93075 0.13052 0.0
Dy43 Dy 0.41811 0.68654 0.94972 0.0
O44 O 0.34353 0.90275 0.12416 0.0
O45 O 0.45561 0.89596 0.0885 0.0
O46 O 0.32249 0.89007 0.94712 0.0
O47 O 0.31934 0.77002 0.94205 0.0
C48 C 0.30218 0.83239 0.90865 0.0
C49 C 0.45664 0.68986 0.10104 0.0
O50 O 0.51469 0.74398 0.9122 0.0
O51 O 0.46677 0.85613 0.95948 0.0
O52 O 0.43761 0.58704 0.87494 0.0
O53 O 0.36556 0.68043 0.83614 0.0
O54 O 0.44286 0.62816 0.06406 0.0
O55 O 0.46051 0.73942 0.05241 0.0
O56 O 0.30603 0.71596 0.07213 0.0
O57 O 0.33393 0.62005 0.98794 0.0
C58 C 0.5162 0.81745 0.91996 0.0
C59 C 0.29848 0.6448 0.04358 0.0
Dy60 Dy 0.55299 0.13773 0.19137 0.0
C61 C 0.31321 0.11111 0.38718 0.0
C62 C 0.63493 0.09791 0.07332 0.0
Dy63 Dy 0.44099 0.09327 0.31018 0.0
O64 O 0.66129 0.1341 0.13133 0.0
O65 O 0.56541 0.08582 0.08038 0.0
O66 O 0.4957 0.23751 0.13642 0.0
O67 O 0.44423 0.17805 0.21936 0.0
C68 C 0.43589 0.23204 0.17239 0.0
C69 C 0.59645 0.04784 0.3233 0.0
O70 O 0.39904 0.00839 0.23552 0.0
O71 O 0.4899 0.03344 0.15333 0.0
O72 O 0.37505 0.07536 0.41149 0.0
O73 O 0.32073 0.13283 0.32038 0.0
O74 O 0.55313 0.06228 0.37816 0.0
O75 O 0.5514 0.05134 0.26893 0.0
O76 O 0.57927 0.19459 0.30801 0.0
O77 O 0.45768 0.20803 0.33744 0.0
C78 C 0.43225 0.9951 0.17462 0.0
C79 C 0.52646 0.21397 0.35675 0.0
Dy80 Dy 0.60762 0.21472 0.60892 0.0
C81 C 0.59989 0.46071 0.40281 0.0
C82 C 0.65446 0.10599 0.71089 0.0
Dy83 Dy 0.63144 0.3424 0.49518 0.0
O84 O 0.62077 0.09199 0.64739 0.0
O85 O 0.65714 0.17846 0.71977 0.0
O86 O 0.5322 0.28495 0.67868 0.0
O87 O 0.54116 0.3148 0.56955 0.0
C88 C 0.51642 0.3374 0.63022 0.0
C89 C 0.70115 0.19844 0.48474 0.0
O90 O 0.70725 0.39199 0.57618 0.0
O91 O 0.71523 0.27669 0.63776 0.0
O92 O 0.63748 0.39849 0.38663 0.0
O93 O 0.58541 0.46168 0.47175 0.0
O94 O 0.68665 0.24314 0.42846 0.0
O95 O 0.68995 0.23832 0.53929 0.0
O96 O 0.55947 0.17946 0.49081 0.0
O97 O 0.52889 0.30065 0.45359 0.0
C98 C 0.73953 0.34593 0.62501 0.0
C99 C 0.53798 0.22999 0.43692 0.0
Dy100 Dy 0.91889 0.38681 0.76184 0.0
C101 C 0.10173 0.36973 1.00829 0.0
C102 C 0.81096 0.36484 0.65887 0.0
Dy103 Dy 0.03974 0.35119 0.87164 0.0
O104 O 0.82985 0.43218 0.68038 0.0
O105 O 0.85672 0.31273 0.68606 0.0
O106 O 0.83918 0.42905 0.84243 0.0
O107 O 0.95301 0.44551 0.86118 0.0
C108 C 0.88888 0.45506 0.88738 0.0
C109 C 0.06038 0.29997 0.73018 0.0
O110 O 0.9718 0.26087 0.91159 0.0
O111 O 0.87801 0.28656 0.82395 0.0
O112 O 0.11271 0.30936 0.96778 0.0
O113 O 0.05951 0.4202 0.97315 0.0
O114 O 0.11467 0.31078 0.77869 0.0
O115 O 1.00206 0.29958 0.76582 0.0
O116 O 0.02116 0.45277 0.72618 0.0
O117 O 0.10749 0.4345 0.82499 0.0
C118 C 0.90678 0.24733 0.88111 0.0
C119 C 0.08844 0.46297 0.76071 0.0
Dy120 Dy 0.88178 0.76901 0.10382 0.0
C121 C 0.86747 0.52236 0.92992 0.0
C122 C 0.85503 0.87369 0.21193 0.0
Dy123 Dy 0.83718 0.65999 0.98981 0.0
O124 O 0.92174 0.85407 0.18992 0.0
O125 O 0.80558 0.84399 0.16873 0.0
O126 O 0.92692 0.6836 0.18319 0.0
O127 O 0.93576 0.66334 0.07047 0.0
C128 C 0.9504 0.63649 0.13459 0.0
C129 C 0.7931 0.81348 0.97238 0.0
O130 O 0.74622 0.6243 0.05244 0.0
O131 O 0.78559 0.70183 0.14706 0.0
O132 O 0.80425 0.56199 0.9193 0.0
O133 O 0.91296 0.55755 0.97369 0.0
O134 O 0.80271 0.76659 0.91793 0.0
O135 O 0.79459 0.77204 0.02792 0.0
O136 O 0.94736 0.78813 0.99219 0.0
O137 O 0.90396 0.69732 0.90836 0.0
C138 C 0.74035 0.65048 0.11848 0.0
C139 C 0.94634 0.75218 0.92473 0.0
Dy140 Dy 0.55656 0.60909 0.24032 0.0
C141 C 0.36859 0.64513 0.45786 0.0
C142 C 0.67871 0.62535 0.16031 0.0
Dy143 Dy 0.44466 0.65767 0.3326 0.0
O144 O 0.61418 0.60578 0.13281 0.0
O145 O 0.67725 0.63039 0.23045 0.0
O146 O 0.57479 0.49323 0.27867 0.0
O147 O 0.54953 0.58263 0.3553 0.0
C148 C 0.56567 0.51168 0.3464 0.0
C149 C 0.43925 0.708 0.18214 0.0
O150 O 0.5001 0.7583 0.37158 0.0
O151 O 0.59994 0.70946 0.30893 0.0
O152 O 0.33743 0.66041 0.39302 0.0
O153 O 0.44029 0.64671 0.45472 0.0
O154 O 0.38228 0.68755 0.21845 0.0
O155 O 0.48949 0.70629 0.23091 0.0
O156 O 0.43923 0.55823 0.20366 0.0
O157 O 0.40851 0.54343 0.31871 0.0
C158 C 0.5694 0.76104 0.35383 0.0
C159 C 0.38947 0.53486 0.25113 0.0
Dy160 Dy 0.26651 0.4033 0.15613 0.0
C161 C 0.02066 0.59428 0.15403 0.0
C162 C 0.37625 0.29124 0.16634 0.0
Dy163 Dy 0.15787 0.52898 0.18496 0.0
O164 O 0.37877 0.35303 0.12713 0.0
O165 O 0.31427 0.29057 0.19859 0.0
O166 O 0.18215 0.32862 0.10724 0.0
O167 O 0.16905 0.44608 0.09307 0.0
C168 C 0.14038 0.3832 0.07896 0.0
C169 C 0.30511 0.53855 0.23697 0.0
O170 O 0.11495 0.46141 0.27205 0.0
O171 O 0.22245 0.38535 0.27076 0.0
O172 O 0.06072 0.60519 0.2146 0.0
O173 O 0.0562 0.54907 0.11029 0.0
O174 O 0.25981 0.59785 0.22452 0.0
O175 O 0.26481 0.48304 0.23728 0.0
O176 O 0.29542 0.51296 0.08874 0.0
O177 O 0.20287 0.60682 0.11319 0.0
C178 C 0.15919 0.40841 0.30136 0.0
C179 C 0.26282 0.58458 0.08117 0.0
Dy180 Dy 0.69629 0.94507 0.86711 0.0
C181 C 0.86767 0.18141 0.90508 0.0
C182 C 0.5764 0.85828 0.88742 0.0
Dy183 Dy 0.80253 0.04626 0.91069 0.0
O184 O 0.64373 0.83086 0.87679 0.0
O185 O 0.57429 0.93106 0.8801 0.0
O186 O 0.67972 0.97724 0.75111 0.0
O187 O 0.70057 0.06214 0.83251 0.0
C188 C 0.68743 0.04874 0.76402 0.0
C189 C 0.80817 0.89858 0.97461 0.0
O190 O 0.74521 0.09011 1.00493 0.0
O191 O 0.64818 0.019 0.96282 0.0
O192 O 0.89869 0.121 0.93766 0.0
O193 O 0.80077 0.16857 0.88092 0.0
O194 O 0.86586 0.93276 0.95174 0.0
O195 O 0.75673 0.94692 0.96509 0.0
O196 O 0.81836 0.90491 0.82494 0.0
O197 O 0.85918 0.02231 0.81103 0.0
C198 C 0.67726 0.06921 1.01045 0.0
C199 C 0.87226 0.95087 0.80284 0.0
Dy200 Dy 0.71222 0.93246 0.4177 0.0
C201 C 0.96122 0.11264 0.41871 0.0
C202 C 0.61609 0.82187 0.38198 0.0
Dy203 Dy 0.82966 0.04015 0.39128 0.0
O204 O 0.59716 0.88265 0.41994 0.0
O205 O 0.68518 0.82246 0.36707 0.0
O206 O 0.78136 0.84703 0.48186 0.0
O207 O 0.8109 0.96065 0.4853 0.0
C208 C 0.83072 0.89275 0.50456 0.0
C209 C 0.68294 0.05578 0.31931 0.0
O210 O 0.88013 0.95733 0.31491 0.0
O211 O 0.76746 0.90137 0.30785 0.0
O212 O 0.91244 0.12875 0.36462 0.0
O213 O 0.93936 0.05525 0.45492 0.0
O214 O 0.72366 0.11176 0.34197 0.0
O215 O 0.72773 1.00076 0.33028 0.0
O216 O 0.6774 0.05664 0.46543 0.0
O217 O 0.79354 0.1027 0.48486 0.0
C218 C 0.8353 0.91042 0.28241 0.0
C219 C 0.72246 0.1139 0.48683 0.0
Dy220 Dy 0.3253 0.48517 0.65204 0.0
C221 C 0.16035 0.67555 0.64084 0.0
C222 C 0.45012 0.38938 0.63783 0.0
Dy223 Dy 0.2394 0.54031 0.61628 0.0
O224 O 0.39758 0.38018 0.68344 0.0
O225 O 0.43496 0.4511 0.60097 0.0
O226 O 0.3826 0.49463 0.75795 0.0
O227 O 0.32331 0.592 0.70425 0.0
C228 C 0.36503 0.56649 0.75944 0.0
C229 C 0.22838 0.3823 0.57529 0.0
O230 O 0.26313 0.58992 0.51097 0.0
O231 O 0.37018 0.57553 0.57477 0.0
O232 O 0.16427 0.64049 0.57724 0.0
O233 O 0.1991 0.63598 0.69071 0.0
O234 O 0.1784 0.42509 0.6043 0.0
O235 O 0.27963 0.42546 0.56344 0.0
O236 O 0.2222 0.46563 0.72963 0.0
O237 O 0.13275 0.52255 0.6584 0.0
C238 C 0.33239 0.60523 0.51703 0.0
C239 C 0.14997 0.49051 0.71986 0.0
loop_
_geom_bond_atom_site_label_1
_geom_bond_atom_site_label_2
_geom_bond_distance
_geom_bond_site_symmetry_2
_ccdc_geom_bond_type
Dy0 O4 2.398 . S
Dy0 O5 2.491 . S
Dy0 O6 2.403 . S
Dy0 O7 2.664 . S
Dy0 O11 2.326 . S
Dy0 O15 2.310 . S
Dy0 O16 2.351 . S
C1 O12 1.185 . S
C1 O13 1.355 . S
C2 O4 1.185 . S
C2 O5 1.355 . S
Dy3 O7 2.310 . S
Dy3 O10 2.351 . S
Dy3 O12 2.398 . S
Dy3 O13 2.491 . S
Dy3 O14 2.403 . S
Dy3 O15 2.664 . S
Dy3 O17 2.326 . S
O4 Dy0 2.398 . S
O4 C2 1.185 . S
O5 Dy0 2.491 . S
O5 C2 1.355 . S
O6 Dy0 2.403 . S
O6 C8 1.254 . S
O7 Dy0 2.664 . S
O7 Dy3 2.310 . S
O7 C8 1.268 . S
C8 O6 1.254 . S
C8 O7 1.268 . S
C9 O14 1.254 . S
C9 O15 1.268 . S
O10 Dy3 2.351 . S
O10 C18 1.249 . S
O11 Dy0 2.326 . S
O11 C18 1.267 . S
O12 C1 1.185 . S
O12 Dy3 2.398 . S
O13 C1 1.355 . S
O13 Dy3 2.491 . S
O14 Dy3 2.403 . S
O14 C9 1.254 . S
O15 Dy0 2.310 . S
O15 Dy3 2.664 . S
O15 C9 1.268 . S
O16 Dy0 2.351 . S
O16 C19 1.249 . S
O17 Dy3 2.326 . S
O17 C19 1.267 . S
C18 O10 1.249 . S
C18 O11 1.267 . S
C19 O16 1.249 . S
C19 O17 1.267 . S
Dy20 O24 2.398 . S
Dy20 O25 2.491 . S
Dy20 O26 2.403 1_655 S
Dy20 O27 2.664 1_655 S
Dy20 O31 2.326 1_655 S
Dy20 O35 2.310 . S
Dy20 O36 2.351 . S
C21 O32 1.185 . S
C21 O33 1.355 . S
C22 O24 1.185 . S
C22 O25 1.355 . S
Dy23 O27 2.310 . S
Dy23 O30 2.351 . S
Dy23 O32 2.398 . S
Dy23 O33 2.491 . S
Dy23 O34 2.403 1_455 S
Dy23 O35 2.664 1_455 S
Dy23 O37 2.326 1_455 S
O24 Dy20 2.398 . S
O24 C22 1.185 . S
O25 Dy20 2.491 . S
O25 C22 1.355 . S
O26 Dy20 2.403 1_455 S
O26 C28 1.254 . S
O27 Dy20 2.664 1_455 S
O27 Dy23 2.310 . S
O27 C28 1.268 . S
C28 O26 1.254 . S
C28 O27 1.268 . S
C29 O34 1.254 . S
C29 O35 1.268 . S
O30 Dy23 2.351 . S
O30 C38 1.249 . S
O31 Dy20 2.326 1_455 S
O31 C38 1.267 . S
O32 C21 1.185 . S
O32 Dy23 2.398 . S
O33 C21 1.355 . S
O33 Dy23 2.491 . S
O34 Dy23 2.403 1_655 S
O34 C29 1.254 . S
O35 Dy20 2.310 . S
O35 Dy23 2.664 1_655 S
O35 C29 1.268 . S
O36 Dy20 2.351 . S
O36 C39 1.249 . S
O37 Dy23 2.326 1_655 S
O37 C39 1.267 . S
C38 O30 1.249 . S
C38 O31 1.267 . S
C39 O36 1.249 . S
C39 O37 1.267 . S
Dy40 O44 2.398 . S
Dy40 O45 2.491 . S
Dy40 O46 2.403 1_554 S
Dy40 O47 2.664 1_554 S
Dy40 O51 2.326 1_554 S
Dy40 O55 2.310 . S
Dy40 O56 2.351 . S
C41 O52 1.185 . S
C41 O53 1.355 . S
C42 O44 1.185 . S
C42 O45 1.355 . S
Dy43 O47 2.310 . S
Dy43 O50 2.351 . S
Dy43 O52 2.398 . S
Dy43 O53 2.491 . S
Dy43 O54 2.403 1_556 S
Dy43 O55 2.664 1_556 S
Dy43 O57 2.326 . S
O44 Dy40 2.398 . S
O44 C42 1.185 . S
O45 Dy40 2.491 . S
O45 C42 1.355 . S
O46 Dy40 2.403 1_556 S
O46 C48 1.254 . S
O47 Dy40 2.664 1_556 S
O47 Dy43 2.310 . S
O47 C48 1.268 . S
C48 O46 1.254 . S
C48 O47 1.268 . S
C49 O54 1.254 . S
C49 O55 1.268 . S
O50 Dy43 2.351 . S
O50 C58 1.249 . S
O51 Dy40 2.326 1_556 S
O51 C58 1.267 . S
O52 C41 1.185 . S
O52 Dy43 2.398 . S
O53 C41 1.355 . S
O53 Dy43 2.491 . S
O54 Dy43 2.403 1_554 S
O54 C49 1.254 . S
O55 Dy40 2.310 . S
O55 Dy43 2.664 1_554 S
O55 C49 1.268 . S
O56 Dy40 2.351 . S
O56 C59 1.249 . S
O57 Dy43 2.326 . S
O57 C59 1.267 1_556 S
C58 O50 1.249 . S
C58 O51 1.267 . S
C59 O56 1.249 . S
C59 O57 1.267 1_554 S
Dy60 O64 2.398 . S
Dy60 O65 2.491 . S
Dy60 O66 2.403 . S
Dy60 O67 2.664 . S
Dy60 O71 2.326 . S
Dy60 O75 2.310 . S
Dy60 O76 2.351 . S
C61 O72 1.185 . S
C61 O73 1.355 . S
C62 O64 1.185 . S
C62 O65 1.355 . S
Dy63 O67 2.310 . S
Dy63 O70 2.351 . S
Dy63 O72 2.398 . S
Dy63 O73 2.491 . S
Dy63 O74 2.403 . S
Dy63 O75 2.664 . S
Dy63 O77 2.326 . S
O64 Dy60 2.398 . S
O64 C62 1.185 . S
O65 Dy60 2.491 . S
O65 C62 1.355 . S
O66 Dy60 2.403 . S
O66 C68 1.254 . S
O67 Dy60 2.664 . S
O67 Dy63 2.310 . S
O67 C68 1.268 . S
C68 O66 1.254 . S
C68 O67 1.268 . S
C69 O74 1.254 . S
C69 O75 1.268 . S
O70 Dy63 2.351 . S
O70 C78 1.249 . S
O71 Dy60 2.326 . S
O71 C78 1.267 . S
O72 C61 1.185 . S
O72 Dy63 2.398 . S
O73 C61 1.355 . S
O73 Dy63 2.491 . S
O74 Dy63 2.403 . S
O74 C69 1.254 . S
O75 Dy60 2.310 . S
O75 Dy63 2.664 . S
O75 C69 1.268 . S
O76 Dy60 2.351 . S
O76 C79 1.249 . S
O77 Dy63 2.326 . S
O77 C79 1.267 . S
C78 O70 1.249 . S
C78 O71 1.267 . S
C79 O76 1.249 . S
C79 O77 1.267 . S
Dy80 O84 2.398 . S
Dy80 O85 2.491 . S
Dy80 O86 2.403 . S
Dy80 O87 2.664 . S
Dy80 O91 2.326 . S
Dy80 O95 2.310 . S
Dy80 O96 2.351 . S
C81 O92 1.185 . S
C81 O93 1.355 . S
C82 O84 1.185 . S
C82 O85 1.355 . S
Dy83 O87 2.310 . S
Dy83 O90 2.351 . S
Dy83 O92 2.398 . S
Dy83 O93 2.491 . S
Dy83 O94 2.403 . S
Dy83 O95 2.664 . S
Dy83 O97 2.326 . S
O84 Dy80 2.398 . S
O84 C82 1.185 . S
O85 Dy80 2.491 . S
O85 C82 1.355 . S
O86 Dy80 2.403 . S
O86 C88 1.254 . S
O87 Dy80 2.664 . S
O87 Dy83 2.310 . S
O87 C88 1.268 . S
C88 O86 1.254 . S
C88 O87 1.268 . S
C89 O94 1.254 . S
C89 O95 1.268 . S
O90 Dy83 2.351 . S
O90 C98 1.249 . S
O91 Dy80 2.326 . S
O91 C98 1.267 . S
O92 C81 1.185 . S
O92 Dy83 2.398 . S
O93 C81 1.355 . S
O93 Dy83 2.491 . S
O94 Dy83 2.403 . S
O94 C89 1.254 . S
O95 Dy80 2.310 . S
O95 Dy83 2.664 . S
O95 C89 1.268 . S
O96 Dy80 2.351 . S
O96 C99 1.249 . S
O97 Dy83 2.326 . S
O97 C99 1.267 . S
C98 O90 1.249 . S
C98 O91 1.267 . S
C99 O96 1.249 . S
C99 O97 1.267 . S
Dy100 O104 2.398 . S
Dy100 O105 2.491 . S
Dy100 O106 2.403 . S
Dy100 O107 2.664 . S
Dy100 O111 2.326 . S
Dy100 O115 2.310 1_655 S
Dy100 O116 2.351 1_655 S
C101 O112 1.185 . S
C101 O113 1.355 . S
C102 O104 1.185 . S
C102 O105 1.355 . S
Dy103 O107 2.310 1_455 S
Dy103 O110 2.351 1_455 S
Dy103 O112 2.398 . S
Dy103 O113 2.491 . S
Dy103 O114 2.403 . S
Dy103 O115 2.664 . S
Dy103 O117 2.326 . S
O104 Dy100 2.398 . S
O104 C102 1.185 . S
O105 Dy100 2.491 . S
O105 C102 1.355 . S
O106 Dy100 2.403 . S
O106 C108 1.254 . S
O107 Dy100 2.664 . S
O107 Dy103 2.310 1_655 S
O107 C108 1.268 . S
C108 O106 1.254 . S
C108 O107 1.268 . S
C109 O114 1.254 . S
C109 O115 1.268 . S
O110 Dy103 2.351 1_655 S
O110 C118 1.249 . S
O111 Dy100 2.326 . S
O111 C118 1.267 . S
O112 C101 1.185 . S
O112 Dy103 2.398 . S
O113 C101 1.355 . S
O113 Dy103 2.491 . S
O114 Dy103 2.403 . S
O114 C109 1.254 . S
O115 Dy100 2.310 1_455 S
O115 Dy103 2.664 . S
O115 C109 1.268 . S
O116 Dy100 2.351 1_455 S
O116 C119 1.249 . S
O117 Dy103 2.326 . S
O117 C119 1.267 . S
C118 O110 1.249 . S
C118 O111 1.267 . S
C119 O116 1.249 . S
C119 O117 1.267 . S
Dy120 O124 2.398 . S
Dy120 O125 2.491 . S
Dy120 O126 2.403 . S
Dy120 O127 2.664 . S
Dy120 O131 2.326 . S
Dy120 O135 2.310 . S
Dy120 O136 2.351 1_554 S
C121 O132 1.185 . S
C121 O133 1.355 . S
C122 O124 1.185 . S
C122 O125 1.355 . S
Dy123 O127 2.310 1_556 S
Dy123 O130 2.351 1_556 S
Dy123 O132 2.398 . S
Dy123 O133 2.491 . S
Dy123 O134 2.403 . S
Dy123 O135 2.664 1_556 S
Dy123 O137 2.326 . S
O124 Dy120 2.398 . S
O124 C122 1.185 . S
O125 Dy120 2.491 . S
O125 C122 1.355 . S
O126 Dy120 2.403 . S
O126 C128 1.254 . S
O127 Dy120 2.664 . S
O127 Dy123 2.310 1_554 S
O127 C128 1.268 . S
C128 O126 1.254 . S
C128 O127 1.268 . S
C129 O134 1.254 . S
C129 O135 1.268 1_556 S
O130 Dy123 2.351 1_554 S
O130 C138 1.249 . S
O131 Dy120 2.326 . S
O131 C138 1.267 . S
O132 C121 1.185 . S
O132 Dy123 2.398 . S
O133 C121 1.355 . S
O133 Dy123 2.491 . S
O134 Dy123 2.403 . S
O134 C129 1.254 . S
O135 Dy120 2.310 . S
O135 Dy123 2.664 1_554 S
O135 C129 1.268 1_554 S
O136 Dy120 2.351 1_556 S
O136 C139 1.249 . S
O137 Dy123 2.326 . S
O137 C139 1.267 . S
C138 O130 1.249 . S
C138 O131 1.267 . S
C139 O136 1.249 . S
C139 O137 1.267 . S
Dy140 O144 2.398 . S
Dy140 O145 2.491 . S
Dy140 O146 2.403 . S
Dy140 O147 2.664 . S
Dy140 O151 2.326 . S
Dy140 O155 2.310 . S
Dy140 O156 2.351 . S
C141 O152 1.185 . S
C141 O153 1.355 . S
C142 O144 1.185 . S
C142 O145 1.355 . S
Dy143 O147 2.310 . S
Dy143 O150 2.351 . S
Dy143 O152 2.398 . S
Dy143 O153 2.491 . S
Dy143 O154 2.403 . S
Dy143 O155 2.664 . S
Dy143 O157 2.326 . S
O144 Dy140 2.398 . S
O144 C142 1.185 . S
O145 Dy140 2.491 . S
O145 C142 1.355 . S
O146 Dy140 2.403 . S
O146 C148 1.254 . S
O147 Dy140 2.664 . S
O147 Dy143 2.310 . S
O147 C148 1.268 . S
C148 O146 1.254 . S
C148 O147 1.268 . S
C149 O154 1.254 . S
C149 O155 1.268 . S
O150 Dy143 2.351 . S
O150 C158 1.249 . S
O151 Dy140 2.326 . S
O151 C158 1.267 . S
O152 C141 1.185 . S
O152 Dy143 2.398 . S
O153 C141 1.355 . S
O153 Dy143 2.491 . S
O154 Dy143 2.403 . S
O154 C149 1.254 . S
O155 Dy140 2.310 . S
O155 Dy143 2.664 . S
O155 C149 1.268 . S
O156 Dy140 2.351 . S
O156 C159 1.249 . S
O157 Dy143 2.326 . S
O157 C159 1.267 . S
C158 O150 1.249 . S
C158 O151 1.267 . S
C159 O156 1.249 . S
C159 O157 1.267 . S
Dy160 O164 2.398 . S
Dy160 O165 2.491 . S
Dy160 O166 2.403 . S
Dy160 O167 2.664 . S
Dy160 O171 2.326 . S
Dy160 O175 2.310 . S
Dy160 O176 2.351 . S
C161 O172 1.185 . S
C161 O173 1.355 . S
C162 O164 1.185 . S
C162 O165 1.355 . S
Dy163 O167 2.310 . S
Dy163 O170 2.351 . S
Dy163 O172 2.398 . S
Dy163 O173 2.491 . S
Dy163 O174 2.403 . S
Dy163 O175 2.664 . S
Dy163 O177 2.326 . S
O164 Dy160 2.398 . S
O164 C162 1.185 . S
O165 Dy160 2.491 . S
O165 C162 1.355 . S
O166 Dy160 2.403 . S
O166 C168 1.254 . S
O167 Dy160 2.664 . S
O167 Dy163 2.310 . S
O167 C168 1.268 . S
C168 O166 1.254 . S
C168 O167 1.268 . S
C169 O174 1.254 . S
C169 O175 1.268 . S
O170 Dy163 2.351 . S
O170 C178 1.249 . S
O171 Dy160 2.326 . S
O171 C178 1.267 . S
O172 C161 1.185 . S
O172 Dy163 2.398 . S
O173 C161 1.355 . S
O173 Dy163 2.491 . S
O174 Dy163 2.403 . S
O174 C169 1.254 . S
O175 Dy160 2.310 . S
O175 Dy163 2.664 . S
O175 C169 1.268 . S
O176 Dy160 2.351 . S
O176 C179 1.249 . S
O177 Dy163 2.326 . S
O177 C179 1.267 . S
C178 O170 1.249 . S
C178 O171 1.267 . S
C179 O176 1.249 . S
C179 O177 1.267 . S
Dy180 O184 2.398 . S
Dy180 O185 2.491 . S
Dy180 O186 2.403 1_565 S
Dy180 O187 2.664 1_565 S
Dy180 O191 2.326 1_565 S
Dy180 O195 2.310 . S
Dy180 O196 2.351 . S
C181 O192 1.185 . S
C181 O193 1.355 . S
C182 O184 1.185 . S
C182 O185 1.355 . S
Dy183 O187 2.310 . S
Dy183 O190 2.351 . S
Dy183 O192 2.398 . S
Dy183 O193 2.491 . S
Dy183 O194 2.403 1_545 S
Dy183 O195 2.664 1_545 S
Dy183 O197 2.326 1_545 S
O184 Dy180 2.398 . S
O184 C182 1.185 . S
O185 Dy180 2.491 . S
O185 C182 1.355 . S
O186 Dy180 2.403 1_545 S
O186 C188 1.254 . S
O187 Dy180 2.664 1_545 S
O187 Dy183 2.310 . S
O187 C188 1.268 . S
C188 O186 1.254 . S
C188 O187 1.268 . S
C189 O194 1.254 . S
C189 O195 1.268 . S
O190 Dy183 2.351 . S
O190 C198 1.249 . S
O191 Dy180 2.326 1_545 S
O191 C198 1.267 . S
O192 C181 1.185 . S
O192 Dy183 2.398 . S
O193 C181 1.355 . S
O193 Dy183 2.491 . S
O194 Dy183 2.403 1_565 S
O194 C189 1.254 . S
O195 Dy180 2.310 . S
O195 Dy183 2.664 1_565 S
O195 C189 1.268 . S
O196 Dy180 2.351 . S
O196 C199 1.249 . S
O197 Dy183 2.326 1_565 S
O197 C199 1.267 . S
C198 O190 1.249 . S
C198 O191 1.267 . S
C199 O196 1.249 . S
C199 O197 1.267 . S
Dy200 O204 2.398 . S
Dy200 O205 2.491 . S
Dy200 O206 2.403 . S
Dy200 O207 2.664 . S
Dy200 O211 2.326 . S
Dy200 O215 2.310 1_565 S
Dy200 O216 2.351 1_565 S
C201 O212 1.185 . S
C201 O213 1.355 . S
C202 O204 1.185 . S
C202 O205 1.355 . S
Dy203 O207 2.310 1_545 S
Dy203 O210 2.351 1_545 S
Dy203 O212 2.398 . S
Dy203 O213 2.491 . S
Dy203 O214 2.403 . S
Dy203 O215 2.664 . S
Dy203 O217 2.326 . S
O204 Dy200 2.398 . S
O204 C202 1.185 . S
O205 Dy200 2.491 . S
O205 C202 1.355 . S
O206 Dy200 2.403 . S
O206 C208 1.254 . S
O207 Dy200 2.664 . S
O207 Dy203 2.310 1_565 S
O207 C208 1.268 . S
C208 O206 1.254 . S
C208 O207 1.268 . S
C209 O214 1.254 . S
C209 O215 1.268 . S
O210 Dy203 2.351 1_565 S
O210 C218 1.249 . S
O211 Dy200 2.326 . S
O211 C218 1.267 . S
O212 C201 1.185 . S
O212 Dy203 2.398 . S
O213 C201 1.355 . S
O213 Dy203 2.491 . S
O214 Dy203 2.403 . S
O214 C209 1.254 . S
O215 Dy200 2.310 1_545 S
O215 Dy203 2.664 . S
O215 C209 1.268 . S
O216 Dy200 2.351 1_545 S
O216 C219 1.249 . S
O217 Dy203 2.326 . S
O217 C219 1.267 . S
C218 O210 1.249 . S
C218 O211 1.267 . S
C219 O216 1.249 . S
C219 O217 1.267 . S
Dy220 O224 2.398 . S
Dy220 O225 2.491 . S
Dy220 O226 2.403 . S
Dy220 O227 2.664 . S
Dy220 O231 2.326 . S
Dy220 O235 2.310 . S
Dy220 O236 2.351 . S
C221 O232 1.185 . S
C221 O233 1.355 . S
C222 O224 1.185 . S
C222 O225 1.355 . S
Dy223 O227 2.310 . S
Dy223 O230 2.351 . S
Dy223 O232 2.398 . S
Dy223 O233 2.491 . S
Dy223 O234 2.403 . S
Dy223 O235 2.664 . S
Dy223 O237 2.326 . S
O224 Dy220 2.398 . S
O224 C222 1.185 . S
O225 Dy220 2.491 . S
O225 C222 1.355 . S
O226 Dy220 2.403 . S
O226 C228 1.254 . S
O227 Dy220 2.664 . S
O227 Dy223 2.310 . S
O227 C228 1.268 . S
C228 O226 1.254 . S
C228 O227 1.268 . S
C229 O234 1.254 . S
C229 O235 1.268 . S
O230 Dy223 2.351 . S
O230 C238 1.249 . S
O231 Dy220 2.326 . S
O231 C238 1.267 . S
O232 C221 1.185 . S
O232 Dy223 2.398 . S
O233 C221 1.355 . S
O233 Dy223 2.491 . S
O234 Dy223 2.403 . S
O234 C229 1.254 . S
O235 Dy220 2.310 . S
O235 Dy223 2.664 . S
O235 C229 1.268 . S
O236 Dy220 2.351 . S
O236 C239 1.249 . S
O237 Dy223 2.326 . S
O237 C239 1.267 . S
C238 O230 1.249 . S
C238 O231 1.267 . S
C239 O236 1.249 . S
C239 O237 1.267 . S
C9 C229 2.593 . S
C199 C29 2.218 . S
C59 C179 1.594 . S
C69 C209 3.188 . S
C89 C219 2.033 . S
C119 C239 1.396 . S
C189 C129 2.767 . S
C159 C169 2.268 . S
C79 C99 1.898 . S
C19 C109 2.518 . S
C39 C139 1.692 . S
C149 C49 2.868 . S
C2 C178 2.103 . S
C22 C208 1.589 . S
C228 C41 2.057 . S
C62 C198 1.645 1_554 S
C82 C188 1.363 . S
C168 C101 1.916 1_554 S
C218 C122 1.460 . S
C238 C141 2.859 . S
C18 C61 2.302 . S
C1 C38 2.516 1_545 S
C21 C48 1.950 . S
C78 C42 1.646 1_545 S
C102 C98 1.503 . S
C108 C121 2.121 . S
C138 C142 1.816 . S
C81 C148 1.393 . S
C162 C68 0.726 . S
C118 C181 1.935 . S
C161 C128 1.780 1_455 S
C202 C158 1.703 . S
C88 C222 1.206 . S
C221 C28 2.018 . S
C58 C182 1.713 . S
C201 C8 2.014 1_655 S
