# Generated by pormake.
# Topology wiu, (6)-cn, num edge types: 1
# Building blocks:
#     Node 0, Type 0, BuildingBlock: HISSIN_clean_sbu_0, # of connection points: 6
#     Node 1, Type 0, BuildingBlock: HISSIN_clean_sbu_0, # of connection points: 6
#     Node 2, Type 0, BuildingBlock: HISSIN_clean_sbu_0, # of connection points: 6
#     Node 3, Type 0, BuildingBlock: HISSIN_clean_sbu_0, # of connection points: 6
#     Node 4, Type 0, BuildingBlock: HISSIN_clean_sbu_0, # of connection points: 6
#     Node 5, Type 0, BuildingBlock: HISSIN_clean_sbu_0, # of connection points: 6
#     Node 6, Type 0, BuildingBlock: HISSIN_clean_sbu_0, # of connection points: 6
#     Node 7, Type 0, BuildingBlock: HISSIN_clean_sbu_0, # of connection points: 6
#     Node 8, Type 0, BuildingBlock: HISSIN_clean_sbu_0, # of connection points: 6
#     Node 9, Type 0, BuildingBlock: HISSIN_clean_sbu_0, # of connection points: 6
#     Node 10, Type 0, BuildingBlock: HISSIN_clean_sbu_0, # of connection points: 6
#     Node 11, Type 0, BuildingBlock: HISSIN_clean_sbu_0, # of connection points: 6
#     Node 12, Type 0, BuildingBlock: HISSIN_clean_sbu_0, # of connection points: 6
#     Node 13, Type 0, BuildingBlock: HISSIN_clean_sbu_0, # of connection points: 6
#     Node 14, Type 0, BuildingBlock: HISSIN_clean_sbu_0, # of connection points: 6
#     Node 15, Type 0, BuildingBlock: HISSIN_clean_sbu_0, # of connection points: 6
#     Edge 16, Type (0, 0), BuildingBlock: XUDNAN_clean_linker_2, # of connection points: 2
#     Edge 17, Type (0, 0), BuildingBlock: XUDNAN_clean_linker_2, # of connection points: 2
#     Edge 18, Type (0, 0), BuildingBlock: XUDNAN_clean_linker_2, # of connection points: 2
#     Edge 19, Type (0, 0), BuildingBlock: XUDNAN_clean_linker_2, # of connection points: 2
#     Edge 20, Type (0, 0), BuildingBlock: XUDNAN_clean_linker_2, # of connection points: 2
#     Edge 21, Type (0, 0), BuildingBlock: XUDNAN_clean_linker_2, # of connection points: 2
#     Edge 22, Type (0, 0), BuildingBlock: XUDNAN_clean_linker_2, # of connection points: 2
#     Edge 23, Type (0, 0), BuildingBlock: XUDNAN_clean_linker_2, # of connection points: 2
#     Edge 24, Type (0, 0), BuildingBlock: XUDNAN_clean_linker_2, # of connection points: 2
#     Edge 25, Type (0, 0), BuildingBlock: XUDNAN_clean_linker_2, # of connection points: 2
#     Edge 26, Type (0, 0), BuildingBlock: XUDNAN_clean_linker_2, # of connection points: 2
#     Edge 27, Type (0, 0), BuildingBlock: XUDNAN_clean_linker_2, # of connection points: 2
#     Edge 28, Type (0, 0), BuildingBlock: XUDNAN_clean_linker_2, # of connection points: 2
#     Edge 29, Type (0, 0), BuildingBlock: XUDNAN_clean_linker_2, # of connection points: 2
#     Edge 30, Type (0, 0), BuildingBlock: XUDNAN_clean_linker_2, # of connection points: 2
#     Edge 31, Type (0, 0), BuildingBlock: XUDNAN_clean_linker_2, # of connection points: 2
#     Edge 32, Type (0, 0), BuildingBlock: XUDNAN_clean_linker_2, # of connection points: 2
#     Edge 33, Type (0, 0), BuildingBlock: XUDNAN_clean_linker_2, # of connection points: 2
#     Edge 34, Type (0, 0), BuildingBlock: XUDNAN_clean_linker_2, # of connection points: 2
#     Edge 35, Type (0, 0), BuildingBlock: XUDNAN_clean_linker_2, # of connection points: 2
#     Edge 36, Type (0, 0), BuildingBlock: XUDNAN_clean_linker_2, # of connection points: 2
#     Edge 37, Type (0, 0), BuildingBlock: XUDNAN_clean_linker_2, # of connection points: 2
#     Edge 38, Type (0, 0), BuildingBlock: XUDNAN_clean_linker_2, # of connection points: 2
#     Edge 39, Type (0, 0), BuildingBlock: XUDNAN_clean_linker_2, # of connection points: 2
#     Edge 40, Type (0, 0), BuildingBlock: XUDNAN_clean_linker_2, # of connection points: 2
#     Edge 41, Type (0, 0), BuildingBlock: XUDNAN_clean_linker_2, # of connection points: 2
#     Edge 42, Type (0, 0), BuildingBlock: XUDNAN_clean_linker_2, # of connection points: 2
#     Edge 43, Type (0, 0), BuildingBlock: XUDNAN_clean_linker_2, # of connection points: 2
#     Edge 44, Type (0, 0), BuildingBlock: XUDNAN_clean_linker_2, # of connection points: 2
#     Edge 45, Type (0, 0), BuildingBlock: XUDNAN_clean_linker_2, # of connection points: 2
#     Edge 46, Type (0, 0), BuildingBlock: XUDNAN_clean_linker_2, # of connection points: 2
#     Edge 47, Type (0, 0), BuildingBlock: XUDNAN_clean_linker_2, # of connection points: 2
#     Edge 48, Type (0, 0), BuildingBlock: XUDNAN_clean_linker_2, # of connection points: 2
#     Edge 49, Type (0, 0), BuildingBlock: XUDNAN_clean_linker_2, # of connection points: 2
#     Edge 50, Type (0, 0), BuildingBlock: XUDNAN_clean_linker_2, # of connection points: 2
#     Edge 51, Type (0, 0), BuildingBlock: XUDNAN_clean_linker_2, # of connection points: 2
#     Edge 52, Type (0, 0), BuildingBlock: XUDNAN_clean_linker_2, # of connection points: 2
#     Edge 53, Type (0, 0), BuildingBlock: XUDNAN_clean_linker_2, # of connection points: 2
#     Edge 54, Type (0, 0), BuildingBlock: XUDNAN_clean_linker_2, # of connection points: 2
#     Edge 55, Type (0, 0), BuildingBlock: XUDNAN_clean_linker_2, # of connection points: 2
#     Edge 56, Type (0, 0), BuildingBlock: XUDNAN_clean_linker_2, # of connection points: 2
#     Edge 57, Type (0, 0), BuildingBlock: XUDNAN_clean_linker_2, # of connection points: 2
#     Edge 58, Type (0, 0), BuildingBlock: XUDNAN_clean_linker_2, # of connection points: 2
#     Edge 59, Type (0, 0), BuildingBlock: XUDNAN_clean_linker_2, # of connection points: 2
#     Edge 60, Type (0, 0), BuildingBlock: XUDNAN_clean_linker_2, # of connection points: 2
#     Edge 61, Type (0, 0), BuildingBlock: XUDNAN_clean_linker_2, # of connection points: 2
#     Edge 62, Type (0, 0), BuildingBlock: XUDNAN_clean_linker_2, # of connection points: 2
#     Edge 63, Type (0, 0), BuildingBlock: XUDNAN_clean_linker_2, # of connection points: 2
# Relax obj value: 0.522
# Max RMSD: 0.314
# Mean RMSD: 0.314
data_MOF--net-wiu--node1-HISSIN_clean_sbu_0--edge1-XUDNAN_clean_linker_2
_symmetry_space_group_name_H-M    P1
_symmetry_Int_Tables_number       1
_symmetry_cell_setting            triclinic
loop_
_symmetry_equiv_pos_as_xyz
'x, y, z'
_cell_length_a     38.195776
_cell_length_b     38.154439
_cell_length_c     54.423207
_cell_angle_alpha  90.004718
_cell_angle_beta   90.131089
_cell_angle_gamma 90.055073
loop_
_atom_site_label
_atom_site_type_symbol
_atom_site_fract_x
_atom_site_fract_y
_atom_site_fract_z
_atom_type_partial_charge
Eu0 Eu 0.34042 0.16134 0.28474 0.0
Eu1 Eu 0.38938 0.09622 0.2704 0.0
C2 C 0.30528 0.08514 0.27662 0.0
C3 C 0.29946 0.25063 0.30021 0.0
C4 C 0.26726 0.26607 0.30568 0.0
C5 C 0.32389 0.30777 0.29119 0.0
C6 C 0.26324 0.30219 0.30386 0.0
C7 C 0.32786 0.27148 0.29297 0.0
C8 C 0.29142 0.32336 0.29645 0.0
C9 C 0.30218 0.21262 0.30134 0.0
O10 O 0.35491 0.10399 0.23637 0.0
O11 O 0.32883 0.15734 0.24324 0.0
C12 C 0.33386 0.12951 0.22915 0.0
O13 O 0.3929 0.1893 0.27867 0.0
O14 O 0.4093 0.04452 0.27989 0.0
O15 O 0.42684 0.07052 0.24646 0.0
O16 O 0.42742 0.14244 0.26857 0.0
C17 C 0.42366 0.17634 0.2727 0.0
O18 O 0.34221 0.12393 0.31814 0.0
O19 O 0.39462 0.09782 0.31184 0.0
O20 O 0.33621 0.07063 0.27413 0.0
O21 O 0.29572 0.19613 0.28088 0.0
O22 O 0.32895 0.19973 0.31321 0.0
O23 O 0.30122 0.11876 0.28023 0.0
C24 C 0.42088 1.00904 0.24567 0.0
C25 C 0.39895 1.00788 0.22493 0.0
C26 C 0.44695 0.95428 0.23353 0.0
C27 C 0.40405 0.98166 0.20735 0.0
C28 C 0.44195 0.98019 0.2512 0.0
C29 C 0.43328 0.95939 0.20975 0.0
C30 C 0.42638 0.04156 0.25933 0.0
C31 C 0.36793 0.10387 0.32622 0.0
H32 H 0.24512 0.25014 0.3112 0.0
H33 H 0.34589 0.32352 0.28521 0.0
H34 H 0.23806 0.31356 0.30832 0.0
H35 H 0.35284 0.25968 0.28847 0.0
H36 H 0.38106 0.02918 0.22097 0.0
H37 H 0.46756 0.93539 0.23686 0.0
H38 H 0.39109 0.98441 0.18972 0.0
H39 H 0.45768 0.97978 0.26779 0.0
Eu40 Eu 0.62861 0.59234 0.53916 0.0
Eu41 Eu 0.68693 0.64179 0.51767 0.0
C42 C 0.70458 0.56263 0.53322 0.0
C43 C 0.5419 0.54733 0.55354 0.0
C44 C 0.52851 0.51344 0.5563 0.0
C45 C 0.48344 0.5695 0.54632 0.0
C46 C 0.49264 0.50758 0.55433 0.0
C47 C 0.51935 0.57529 0.54811 0.0
C48 C 0.46982 0.53566 0.54967 0.0
C49 C 0.57925 0.55314 0.55715 0.0
O50 O 0.66734 0.61461 0.48308 0.0
O51 O 0.63788 0.56855 0.50034 0.0
C52 C 0.65221 0.58367 0.48087 0.0
O53 O 0.59814 0.63921 0.52401 0.0
O54 O 0.73926 0.6628 0.5232 0.0
O55 O 0.70908 0.67814 0.49104 0.0
O56 O 0.64132 0.68016 0.52545 0.0
C57 C 0.6077 0.67235 0.52383 0.0
O58 O 0.65726 0.61023 0.57465 0.0
O59 O 0.7033 0.63913 0.5573 0.0
O60 O 0.70919 0.58622 0.51593 0.0
O61 O 0.59965 0.54306 0.53931 0.0
O62 O 0.58815 0.58351 0.56629 0.0
O63 O 0.67818 0.56496 0.54819 0.0
C64 C 0.77063 0.6714 0.48679 0.0
C65 C 0.76744 0.65976 0.46249 0.0
C66 C 0.83141 0.68541 0.47929 0.0
C67 C 0.79501 0.66535 0.44624 0.0
C68 C 0.8039 0.68039 0.49578 0.0
C69 C 0.82382 0.68595 0.45396 0.0
C70 C 0.73966 0.67815 0.50191 0.0
C71 C 0.68783 0.6263 0.57671 0.0
H72 H 0.54574 0.49163 0.56037 0.0
H73 H 0.46634 0.59141 0.5423 0.0
H74 H 0.48269 0.48127 0.55704 0.0
H75 H 0.5294 0.60161 0.54559 0.0
H76 H 0.7428 0.64977 0.45547 0.0
H77 H 0.85565 0.69638 0.48621 0.0
H78 H 0.78995 0.66003 0.42705 0.0
H79 H 0.80772 0.68692 0.51498 0.0
Eu80 Eu 0.1992 0.8774 0.78705 0.0
Eu81 Eu 0.15015 0.94147 0.77006 0.0
C82 C 0.23367 0.95309 0.77759 0.0
C83 C 0.23927 0.79024 0.81151 0.0
C84 C 0.25874 0.77952 0.83195 0.0
C85 C 0.23515 0.72987 0.79789 0.0
C86 C 0.26759 0.74442 0.83489 0.0
C87 C 0.22629 0.76517 0.79494 0.0
C88 C 0.25713 0.71956 0.81733 0.0
C89 C 0.23699 0.82778 0.80652 0.0
O90 O 0.18008 0.92631 0.73535 0.0
O91 O 0.21515 0.88019 0.74626 0.0
C92 C 0.20497 0.90369 0.72991 0.0
O93 O 0.14656 0.84905 0.78094 0.0
O94 O 0.14493 0.99721 0.76136 0.0
O95 O 0.10094 0.96256 0.75592 0.0
O96 O 0.11196 0.89555 0.77018 0.0
C97 C 0.11566 0.86186 0.77488 0.0
O98 O 0.19628 0.91737 0.81909 0.0
O99 O 0.14495 0.94578 0.81127 0.0
O100 O 0.20245 0.96713 0.77668 0.0
O101 O 0.23943 0.83761 0.78366 0.0
O102 O 0.21419 0.84594 0.81894 0.0
O103 O 0.23875 0.91934 0.77967 0.0
C104 C 0.11861 0.99732 0.72287 0.0
C105 C 0.12357 0.96785 0.70791 0.0
C106 C 0.12132 0.03428 0.68675 0.0
C107 C 0.12629 0.97127 0.68274 0.0
C108 C 0.1196 0.03081 0.71236 0.0
C109 C 0.12192 1.00419 0.67164 0.0
C110 C 0.11595 0.99185 0.74942 0.0
C111 C 0.17081 0.9385 0.82627 0.0
H112 H 0.26887 0.79862 0.8449 0.0
H113 H 0.22697 0.71115 0.78403 0.0
H114 H 0.28435 0.73699 0.85011 0.0
H115 H 0.21108 0.77309 0.77906 0.0
H116 H 0.12356 0.94165 0.71552 0.0
H117 H 0.11856 0.06009 0.6787 0.0
H118 H 0.12708 0.94732 0.67208 0.0
H119 H 0.11742 0.05396 0.72377 0.0
Eu120 Eu 0.90911 0.44695 1.03821 0.0
Eu121 Eu 0.84651 0.39789 1.01749 0.0
C122 C 0.83422 0.48027 1.02903 0.0
C123 C 0.99928 0.48699 1.04995 0.0
C124 C 1.01818 0.51438 1.06078 0.0
C125 C 0.05133 0.46891 1.02791 0.0
C126 C 0.05345 0.51925 1.05509 0.0
C127 C 1.01601 0.46408 1.03362 0.0
C128 C 0.07035 0.49676 1.03843 0.0
C129 C 0.96177 0.48382 1.05481 0.0
O130 O 0.86736 0.42328 0.98262 0.0
O131 O 0.9016 0.46733 0.99844 0.0
C132 C 0.88454 0.45305 0.97974 0.0
O133 O 0.9372 0.3951 1.02832 0.0
O134 O 0.79076 0.38702 1.02113 0.0
O135 O 0.82201 0.35779 0.99486 0.0
O136 O 0.89064 0.35844 1.02139 0.0
C137 C 0.92459 0.36334 1.02426 0.0
O138 O 0.87453 0.43763 1.07262 0.0
O139 O 0.84219 0.39139 1.05849 0.0
O140 O 0.82613 0.45309 1.01554 0.0
O141 O 0.9413 0.494 1.03702 0.0
O142 O 0.95129 0.45455 1.06479 0.0
O143 O 0.86224 0.4811 1.04284 0.0
C144 C 0.76623 0.37597 0.98262 0.0
C145 C 0.77692 0.40007 0.96473 0.0
C146 C 0.7167 0.36057 0.9573 0.0
C147 C 0.76017 0.40052 0.94199 0.0
C148 C 0.73407 0.35893 0.97991 0.0
C149 C 0.73417 0.37523 0.93686 0.0
C150 C 0.79048 0.36614 1.00221 0.0
C151 C 0.85089 0.41284 1.0763 0.0
H152 H 1.00545 0.53244 1.07326 0.0
H153 H 0.0637 0.45098 1.01518 0.0
H154 H 0.06719 0.54128 1.06318 0.0
H155 H 1.00161 0.44285 1.02504 0.0
H156 H 0.80042 0.41556 0.96727 0.0
H157 H 0.69342 0.34474 0.95489 0.0
H158 H 0.77219 0.41602 0.92769 0.0
H159 H 0.72405 0.34209 0.9943 0.0
Eu160 Eu 0.64849 0.93725 1.03769 0.0
Eu161 Eu 0.69872 0.87832 1.01617 0.0
C162 C 0.61982 0.85619 1.03182 0.0
C163 C 0.61817 1.01512 1.07176 0.0
C164 C 0.64909 1.0129 1.08567 0.0
C165 C 0.59444 0.05553 1.10108 0.0
C166 C 0.65072 0.02897 1.10868 0.0
C167 C 0.59261 0.03936 1.07821 0.0
C168 C 0.62047 0.04502 1.11815 0.0
C169 C 0.60983 0.9879 1.0539 0.0
O170 O 0.6776 0.90615 0.98189 0.0
O171 O 0.65705 0.95668 0.99872 0.0
C172 C 0.66678 0.93876 0.97941 0.0
O173 O 0.70235 0.9598 1.04312 0.0
O174 O 0.74776 0.84923 1.01415 0.0
O175 O 0.70588 0.83828 0.98829 0.0
O176 O 0.73204 0.92663 1.01498 0.0
C177 C 0.73039 0.95323 1.03013 0.0
O178 O 0.68113 0.92345 1.07211 0.0
O179 O 0.71545 0.87912 1.0566 0.0
O180 O 0.65299 0.84723 1.03128 0.0
O181 O 0.62693 0.98967 1.0333 0.0
O182 O 0.6087 0.95613 1.0629 0.0
O183 O 0.61147 0.88978 1.03034 0.0
C184 C 0.74101 0.79144 1.00041 0.0
C185 C 0.76694 0.77361 0.98739 0.0
C186 C 0.72255 0.73698 1.01927 0.0
C187 C 0.77073 0.73755 0.99026 0.0
C188 C 0.71885 0.77312 1.01643 0.0
C189 C 0.74857 0.71892 1.00622 0.0
C190 C 0.73653 0.82893 0.99655 0.0
C191 C 0.70645 0.90008 1.07488 0.0
H192 H 0.67002 0.99544 1.08023 0.0
H193 H 0.57177 0.07052 1.10655 0.0
H194 H 0.67274 0.02303 1.12054 0.0
H195 H 0.56934 0.04264 1.06701 0.0
H196 H 0.78408 0.78753 0.9749 0.0
H197 H 0.70546 0.72329 1.03191 0.0
H198 H 0.79078 0.72417 0.9798 0.0
H199 H 0.69869 0.78676 1.02662 0.0
Eu200 Eu 0.35037 0.40203 0.78497 0.0
Eu201 Eu 0.40865 0.45349 0.76207 0.0
C202 C 0.42988 0.37111 0.77782 0.0
C203 C 0.26743 0.37795 0.81613 0.0
C204 C 0.27532 0.40267 0.83439 0.0
C205 C 0.21826 0.35796 0.84007 0.0
C206 C 0.25749 0.40148 0.85666 0.0
C207 C 0.23667 0.35821 0.8179 0.0
C208 C 0.23344 0.37419 0.86079 0.0
C209 C 0.29388 0.36916 0.79782 0.0
O210 O 0.36963 0.44681 0.73016 0.0
O211 O 0.3478 0.39485 0.74344 0.0
C212 C 0.34982 0.41912 0.72638 0.0
O213 O 0.33158 0.45781 0.79082 0.0
O214 O 0.4396 0.50153 0.7633 0.0
O215 O 0.44702 0.46423 0.73358 0.0
O216 O 0.35893 0.48338 0.75862 0.0
C217 C 0.33656 0.48496 0.77659 0.0
O218 O 0.36542 0.43376 0.81927 0.0
O219 O 0.40902 0.46866 0.80315 0.0
O220 O 0.43703 0.40114 0.7668 0.0
O221 O 0.29526 0.39019 0.77897 0.0
O222 O 0.32491 0.36164 0.80673 0.0
O223 O 0.39848 0.36546 0.78731 0.0
C224 C 0.49643 0.49602 0.74732 0.0
C225 C 0.51168 0.5294 0.7471 0.0
C226 C 0.55387 0.4701 0.75322 0.0
C227 C 0.54783 0.53316 0.74977 0.0
C228 C 0.51766 0.46637 0.75066 0.0
C229 C 0.56933 0.50353 0.75268 0.0
C230 C 0.45839 0.49272 0.74429 0.0
C231 C 0.38868 0.45924 0.82171 0.0
H232 H 0.29796 0.4196 0.83272 0.0
H233 H 0.19775 0.33862 0.84242 0.0
H234 H 0.26811 0.41659 0.8718 0.0
H235 H 0.2292 0.34021 0.80341 0.0
H236 H 0.49562 0.55256 0.7447 0.0
H237 H 0.56974 0.44686 0.7558 0.0
H238 H 0.55901 0.55924 0.7491 0.0
H239 H 0.5063 0.44037 0.7512 0.0
Eu240 Eu 0.88729 0.1037 0.53929 0.0
Eu241 Eu 0.84104 0.16575 0.51639 0.0
C242 C 0.92114 0.18355 0.5328 0.0
C243 C 0.91498 1.01478 0.56122 0.0
C244 C 0.89245 1.00794 0.58106 0.0
C245 C 0.93202 0.95393 0.56102 0.0
C246 C 0.8932 0.97492 0.59226 0.0
C247 C 0.93162 0.98662 0.54964 0.0
C248 C 0.91967 0.95121 0.58532 0.0
C249 C 0.92395 0.0506 0.5537 0.0
O250 O 0.86266 0.13674 0.48277 0.0
O251 O 0.87594 0.08427 0.50032 0.0
C252 C 0.8701 0.10311 0.48057 0.0
O253 O 0.8334 0.08259 0.54243 0.0
O254 O 0.79172 0.19437 0.5143 0.0
O255 O 0.83349 0.20669 0.48899 0.0
O256 O 0.80682 0.11769 0.51379 0.0
C257 C 0.80664 0.09051 0.52859 0.0
O258 O 0.85414 0.11801 0.57298 0.0
O259 O 0.82448 0.16528 0.55702 0.0
O260 O 0.8899 0.19623 0.5279 0.0
O261 O 0.91868 0.05786 0.53063 0.0
O262 O 0.91513 0.07616 0.56842 0.0
O263 O 0.92569 0.14948 0.5356 0.0
C264 C 0.79769 0.2528 0.50211 0.0
C265 C 0.76993 0.27087 0.49101 0.0
C266 C 0.8141 0.3054 0.52424 0.0
C267 C 0.76424 0.30619 0.49652 0.0
C268 C 0.81995 0.27027 0.51857 0.0
C269 C 0.78608 0.3235 0.51341 0.0
C270 C 0.80271 0.21551 0.49719 0.0
C271 C 0.83058 0.14313 0.57531 0.0
H272 H 0.87715 0.0287 0.58934 0.0
H273 H 0.94921 0.93423 0.55334 0.0
H274 H 0.88007 0.97186 0.60976 0.0
H275 H 0.94714 0.99066 0.53324 0.0
H276 H 0.75241 0.25754 0.47841 0.0
H277 H 0.83121 0.31838 0.53729 0.0
H278 H 0.74222 0.31966 0.48825 0.0
H279 H 0.84147 0.25657 0.52731 0.0
Eu280 Eu 0.19178 0.64422 0.28467 0.0
Eu281 Eu 0.12786 0.59514 0.26562 0.0
C282 C 0.11245 0.6783 0.27959 0.0
C283 C 0.27599 0.66859 0.31457 0.0
C284 C 0.2699 0.64398 0.33322 0.0
C285 C 0.32944 0.68603 0.3349 0.0
C286 C 0.29112 0.64415 0.35406 0.0
C287 C 0.30777 0.68686 0.31416 0.0
C288 C 0.31645 0.67073 0.35663 0.0
C289 C 0.24769 0.6781 0.29776 0.0
O290 O 0.16208 0.60162 0.23156 0.0
O291 O 0.19841 0.64633 0.24308 0.0
C292 C 0.18735 0.62396 0.22646 0.0
O293 O 0.21303 0.58968 0.28711 0.0
O294 O 0.09497 0.54866 0.26822 0.0
O295 O 0.08789 0.58519 0.23797 0.0
O296 O 0.17482 0.56027 0.26206 0.0
C297 C 0.20393 0.56173 0.27478 0.0
O298 O 0.17802 0.61269 0.31955 0.0
O299 O 0.13407 0.57655 0.30528 0.0
O300 O 0.09974 0.647 0.27441 0.0
O301 O 0.24585 0.65936 0.27782 0.0
O302 O 0.21705 0.68314 0.30794 0.0
O303 O 0.14638 0.68291 0.28299 0.0
C304 C 0.03872 0.55315 0.25136 0.0
C305 C 0.02405 0.51973 0.24899 0.0
C306 C 0.98101 0.57762 0.25803 0.0
C307 C 0.98803 0.51519 0.25104 0.0
C308 C 1.01717 0.58211 0.2561 0.0
C309 C 0.96616 0.54409 0.25548 0.0
C310 C 0.07655 0.55692 0.2489 0.0
C311 C 0.15569 0.58651 0.32289 0.0
H312 H 0.24656 0.62783 0.33305 0.0
H313 H 0.35105 0.7044 0.33578 0.0
H314 H 0.28232 0.62916 0.36978 0.0
H315 H 0.31392 0.70449 0.29918 0.0
H316 H 0.04048 0.49715 0.24544 0.0
H317 H 0.96472 0.60022 0.26176 0.0
H318 H 0.97724 0.48912 0.24876 0.0
H319 H 0.02826 0.60808 0.25826 0.0
Eu320 Eu 0.83618 0.66101 0.78992 0.0
Eu321 Eu 0.8911 0.60541 0.76882 0.0
C322 C 0.81007 0.58452 0.77722 0.0
C323 C 0.78676 0.7457 0.80419 0.0
C324 C 0.77061 0.76374 0.82343 0.0
C325 C 0.79269 0.80014 0.78156 0.0
C326 C 0.76596 0.79986 0.82197 0.0
C327 C 0.79766 0.76392 0.78314 0.0
C328 C 0.77728 0.81839 0.80116 0.0
C329 C 0.7934 0.70825 0.80706 0.0
O330 O 0.86281 0.62252 0.73393 0.0
O331 O 0.81712 0.65433 0.74981 0.0
C332 C 0.8325 0.63869 0.731 0.0
O333 O 0.88372 0.69407 0.77906 0.0
O334 O 0.91608 0.55522 0.77576 0.0
O335 O 0.92861 0.58444 0.74261 0.0
O336 O 0.92681 0.65294 0.77582 0.0
C337 C 0.91719 0.68607 0.77696 0.0
O338 O 0.85088 0.63041 0.82511 0.0
O339 O 0.88516 0.58779 0.80811 0.0
O340 O 0.83768 0.58067 0.76317 0.0
O341 O 0.78624 0.6884 0.78821 0.0
O342 O 0.82301 0.70007 0.81754 0.0
O343 O 0.80848 0.60974 0.79341 0.0
C344 C 0.92424 0.52283 0.73993 0.0
C345 C 0.90102 0.5229 0.71986 0.0
C346 C 0.94614 0.46653 0.72721 0.0
C347 C 0.90366 0.49652 0.70214 0.0
C348 C 0.94388 0.49278 0.74492 0.0
C349 C 0.93165 0.47262 0.7038 0.0
C350 C 0.93077 0.55453 0.75426 0.0
C351 C 0.86908 0.60112 0.82712 0.0
H352 H 0.76208 0.74993 0.83976 0.0
H353 H 0.80172 0.814 0.76539 0.0
H354 H 0.75362 0.81337 0.83716 0.0
H355 H 0.81043 0.75026 0.76818 0.0
H356 H 0.88389 0.54502 0.71651 0.0
H357 H 0.96571 0.44636 0.72992 0.0
H358 H 0.89011 0.50018 0.68482 0.0
H359 H 0.96029 0.49131 0.76115 0.0
Eu360 Eu 0.12791 0.08559 1.03575 0.0
Eu361 Eu 0.18566 0.14241 1.02175 0.0
C362 C 0.20561 0.05907 1.02525 0.0
C363 C 0.04168 0.04377 1.05467 0.0
C364 C 0.02518 1.01792 1.06866 0.0
C365 C 0.98518 0.06622 1.04191 0.0
C366 C 0.9888 1.01579 1.06898 0.0
C367 C 0.02166 0.06827 1.04157 0.0
C368 C 0.96849 0.0395 1.05526 0.0
C369 C 0.07976 0.04426 1.05338 0.0
O370 O 0.17913 0.11005 0.9863 0.0
O371 O 0.132 0.07443 0.99449 0.0
C372 C 0.15694 0.08512 0.97945 0.0
O373 O 0.09578 0.13528 1.03022 0.0
O374 O 0.23591 0.166 1.03107 0.0
O375 O 0.20723 0.18354 0.99872 0.0
O376 O 0.1365 0.17736 1.02148 0.0
C377 C 0.10367 0.16815 1.02524 0.0
O378 O 0.16708 0.08868 1.06786 0.0
O379 O 0.18499 0.14479 1.06345 0.0
O380 O 0.21666 0.09171 1.02518 0.0
O381 O 0.09302 0.04094 1.03147 0.0
O382 O 0.09528 0.06856 1.06627 0.0
O383 O 0.17261 0.0507 1.02741 0.0
C384 C 0.26907 0.18131 0.99639 0.0
C385 C 0.26803 0.17093 0.97172 0.0
C386 C 0.32858 0.20142 0.99087 0.0
C387 C 0.29553 0.17995 0.95624 0.0
C388 C 0.30076 0.19311 1.00642 0.0
C389 C 0.32321 0.20103 0.96527 0.0
C390 C 0.23686 0.1841 1.01083 0.0
C391 C 0.18372 0.11621 1.07673 0.0
H392 H 0.04044 0.99899 1.07895 0.0
H393 H 0.97013 0.08459 1.031 0.0
H394 H 0.97651 0.9952 1.07964 0.0
H395 H 0.03428 0.08836 1.03066 0.0
H396 H 0.24463 0.15938 0.96383 0.0
H397 H 0.35135 0.21414 0.99872 0.0
H398 H 0.29141 0.1757 0.93681 0.0
H399 H 0.30284 0.19918 1.02582 0.0
Eu400 Eu 0.69889 0.38006 0.29073 0.0
Eu401 Eu 0.64703 0.43557 0.26492 0.0
C402 C 0.72786 0.45587 0.27586 0.0
C403 C 0.74358 0.2946 0.30704 0.0
C404 C 0.77686 0.27952 0.30885 0.0
C405 C 0.71836 0.23708 0.29991 0.0
C406 C 0.7809 0.24335 0.30641 0.0
C407 C 0.71438 0.27326 0.30225 0.0
C408 C 0.75163 0.22177 0.30212 0.0
C409 C 0.73967 0.33257 0.30991 0.0
O410 O 0.6835 0.42409 0.23274 0.0
O411 O 0.71523 0.37901 0.24989 0.0
C412 C 0.70834 0.40026 0.23121 0.0
O413 O 0.65146 0.34664 0.28159 0.0
O414 O 0.61556 0.48205 0.27135 0.0
O415 O 0.6151 0.45707 0.23537 0.0
O416 O 0.61126 0.38702 0.26872 0.0
C417 C 0.61947 0.35446 0.2745 0.0
O418 O 0.68126 0.41264 0.32418 0.0
O419 O 0.65267 0.45637 0.30363 0.0
O420 O 0.70016 0.46109 0.26203 0.0
O421 O 0.74839 0.35146 0.29094 0.0
O422 O 0.71064 0.34319 0.32005 0.0
O423 O 0.72967 0.42988 0.2915 0.0
C424 C 0.6123 0.51926 0.23711 0.0
C425 C 0.6299 0.52321 0.21468 0.0
C426 C 0.59237 0.57912 0.23399 0.0
C427 C 0.62496 0.55383 0.20103 0.0
C428 C 0.59701 0.5488 0.24793 0.0
C429 C 0.59879 0.57772 0.20849 0.0
C430 C 0.60681 0.48472 0.2483 0.0
C431 C 0.66557 0.44344 0.32406 0.0
H432 H 0.79968 0.29569 0.31233 0.0
H433 H 0.69547 0.22114 0.2962 0.0
H434 H 0.80684 0.23221 0.30831 0.0
H435 H 0.68851 0.28454 0.30045 0.0
H436 H 0.64482 0.50187 0.20679 0.0
H437 H 0.57753 0.60023 0.24212 0.0
H438 H 0.63617 0.55496 0.18282 0.0
H439 H 0.58587 0.54747 0.2662 0.0
Eu440 Eu 0.40951 0.94746 0.5372 0.0
Eu441 Eu 0.34669 0.90018 0.51929 0.0
C442 C 0.33538 0.98181 0.53208 0.0
C443 C 0.49686 0.99256 0.55132 0.0
C444 C 0.51087 0.0254 0.55699 0.0
C445 C 0.55476 0.97019 0.54302 0.0
C446 C 0.5468 0.03069 0.55579 0.0
C447 C 0.51873 0.96496 0.54416 0.0
C448 C 0.569 1.0031 0.54887 0.0
C449 C 0.45939 0.9876 0.55339 0.0
O450 O 0.35646 0.93118 0.48431 0.0
O451 O 0.40375 0.96442 0.49624 0.0
C452 C 0.37985 0.95572 0.47956 0.0
O453 O 0.43643 0.89382 0.53425 0.0
O454 O 0.29189 0.88849 0.52683 0.0
O455 O 0.32036 0.85894 0.499 0.0
O456 O 0.39392 0.86361 0.51344 0.0
C457 C 0.42606 0.86538 0.52256 0.0
O458 O 0.37319 0.94329 0.57062 0.0
O459 O 0.34685 0.89207 0.56089 0.0
O460 O 0.32726 0.95669 0.51667 0.0
O461 O 0.44107 0.99468 0.53375 0.0
O462 O 0.44924 0.95903 0.5645 0.0
O463 O 0.36239 0.97871 0.54647 0.0
C464 C 0.26024 0.86922 0.49227 0.0
C465 C 0.2654 0.87984 0.46793 0.0
C466 C 0.20376 0.84558 0.48113 0.0
C467 C 0.24182 0.86895 0.44994 0.0
C468 C 0.22765 0.85573 0.49923 0.0
C469 C 0.21444 0.84576 0.45639 0.0
C470 C 0.28999 0.86574 0.50903 0.0
C471 C 0.35278 0.91699 0.5769 0.0
H472 H 0.49404 0.04686 0.5625 0.0
H473 H 0.5714 0.94873 0.53731 0.0
H474 H 0.55725 0.05621 0.56057 0.0
H475 H 0.50797 0.93948 0.53957 0.0
H476 H 0.28959 0.89242 0.46239 0.0
H477 H 0.18075 0.83102 0.4867 0.0
H478 H 0.24952 0.87302 0.43105 0.0
H479 H 0.22239 0.84924 0.51825 0.0
Eu480 Eu 0.14727 0.44109 0.53372 0.0
Eu481 Eu 0.19627 0.37871 0.51449 0.0
C482 C 0.11589 0.36198 0.53072 0.0
C483 C 0.12112 0.52217 0.56565 0.0
C484 C 0.15199 0.51856 0.57949 0.0
C485 C 0.09781 0.56075 0.59632 0.0
C486 C 0.15375 0.53289 0.60304 0.0
C487 C 0.09585 0.54628 0.57291 0.0
C488 C 0.12375 0.54881 0.61294 0.0
C489 C 0.11201 0.49556 0.54757 0.0
O490 O 0.18223 0.40678 0.47854 0.0
O491 O 0.15331 0.45482 0.49339 0.0
C492 C 0.16764 0.43779 0.47506 0.0
O493 O 0.2024 0.46047 0.5385 0.0
O494 O 0.19927 0.33088 0.49261 0.0
O495 O 0.24424 0.34769 0.51516 0.0
O496 O 0.2313 0.42539 0.51115 0.0
C497 C 0.23036 0.45264 0.52576 0.0
O498 O 0.17776 0.42727 0.56931 0.0
O499 O 0.21351 0.3837 0.55443 0.0
O500 O 0.14881 0.35239 0.53117 0.0
O501 O 0.13142 0.49523 0.52796 0.0
O502 O 0.10695 0.46423 0.55669 0.0
O503 O 0.10824 0.3954 0.52781 0.0
C504 C 0.25027 0.29273 0.49291 0.0
C505 C 0.28465 0.28782 0.5014 0.0
C506 C 0.24585 0.23048 0.48442 0.0
C507 C 0.29852 0.25411 0.503 0.0
C508 C 0.23192 0.26421 0.48286 0.0
C509 C 0.27823 0.22505 0.49602 0.0
C510 C 0.23073 0.3239 0.50074 0.0
C511 C 0.20362 0.40452 0.57249 0.0
H512 H 0.17255 0.50099 0.57358 0.0
H513 H 0.07515 0.57527 0.60248 0.0
H514 H 0.17536 0.52539 0.61485 0.0
H515 H 0.07252 0.55041 0.56191 0.0
H516 H 0.29947 0.30943 0.50911 0.0
H517 H 0.2297 0.20845 0.47894 0.0
H518 H 0.32382 0.25048 0.51169 0.0
H519 H 0.20532 0.26729 0.47627 0.0
Eu520 Eu 0.85226 0.90013 0.28984 0.0
Eu521 Eu 0.90669 0.95274 0.26476 0.0
C522 C 0.93159 0.87143 0.28097 0.0
C523 C 0.7709 0.87595 0.3225 0.0
C524 C 0.77923 0.89893 0.34177 0.0
C525 C 0.71623 0.86232 0.34251 0.0
C526 C 0.7582 0.89956 0.36263 0.0
C527 C 0.73762 0.86061 0.32171 0.0
C528 C 0.73072 0.8751 0.36462 0.0
C529 C 0.79782 0.86591 0.3048 0.0
O530 O 0.86768 0.94334 0.23347 0.0
O531 O 0.84775 0.89144 0.24833 0.0
C532 C 0.84877 0.9149 0.23059 0.0
O533 O 0.82847 0.95427 0.29283 0.0
O534 O 0.93732 1.00082 0.26504 0.0
O535 O 0.94362 0.96347 0.23528 0.0
O536 O 0.85686 0.98242 0.26177 0.0
C537 C 0.83203 0.98125 0.27817 0.0
O538 O 0.86862 0.93252 0.32379 0.0
O539 O 0.90431 0.97248 0.30451 0.0
O540 O 0.93775 0.90229 0.27089 0.0
O541 O 0.79803 0.8842 0.2846 0.0
O542 O 0.82924 0.8609 0.31388 0.0
O543 O 0.90048 0.86415 0.29016 0.0
C544 C 0.99332 0.99402 0.24855 0.0
C545 C 1.01244 1.01681 0.23363 0.0
C546 C 0.04686 0.97592 0.26895 0.0
C547 C 0.04863 1.01931 0.23638 0.0
C548 C 1.0106 0.97341 0.26615 0.0
C549 C 0.06618 0.99914 0.25421 0.0
C550 C 0.95539 0.99195 0.24571 0.0
C551 C 0.88761 0.96155 0.32438 0.0
H552 H 0.80376 0.9132 0.3419 0.0
H553 H 0.69294 0.84609 0.34291 0.0
H554 H 0.76832 0.91309 0.37863 0.0
H555 H 0.72971 0.8446 0.30622 0.0
H556 H 0.99936 0.03276 0.21994 0.0
H557 H 0.05962 0.96039 0.28302 0.0
H558 H 0.06289 0.0371 0.22454 0.0
H559 H 0.99597 0.95571 0.27785 0.0
Eu560 Eu 0.38774 0.59774 1.0366 0.0
Eu561 Eu 0.34285 0.66031 1.01394 0.0
C562 C 0.42519 0.67549 1.03138 0.0
C563 C 0.40589 0.51461 1.07005 0.0
C564 C 0.38301 0.52575 1.08855 0.0
C565 C 0.42349 0.46603 1.09557 0.0
C566 C 0.38437 0.50985 1.11155 0.0
C567 C 0.42332 0.48261 1.07266 0.0
C568 C 0.41 0.4841 1.11609 0.0
C569 C 0.41595 0.53915 1.05071 0.0
O570 O 0.35253 0.62472 0.98007 0.0
O571 O 0.39963 0.59626 0.99593 0.0
C572 C 0.37851 0.60225 0.97735 0.0
O573 O 0.33052 0.58126 1.03681 0.0
O574 O 0.33614 0.70282 0.98761 0.0
O575 O 0.29566 0.69209 1.01461 0.0
O576 O 0.312 0.61267 1.00388 0.0
C577 C 0.30784 0.58673 1.01916 0.0
O578 O 0.36081 0.61626 1.07124 0.0
O579 O 0.32135 0.65422 1.05374 0.0
O580 O 0.39576 0.6873 1.02168 0.0
O581 O 0.39437 0.54133 1.03221 0.0
O582 O 0.42636 0.56991 1.05852 0.0
O583 O 0.42769 0.64246 1.03861 0.0
C584 C 0.30403 0.75076 1.00243 0.0
C585 C 0.30832 0.76428 1.02627 0.0
C586 C 0.29451 0.80939 0.98697 0.0
C587 C 0.30521 0.80029 1.03045 0.0
C588 C 0.2974 0.7735 0.98285 0.0
C589 C 0.29794 0.82313 1.01083 0.0
C590 C 0.30679 0.71318 0.99743 0.0
C591 C 0.33293 0.6363 1.07303 0.0
H592 H 0.36772 0.5494 1.0863 0.0
H593 H 0.44063 0.4437 1.09811 0.0
H594 H 0.37068 0.52275 1.12638 0.0
H595 H 0.43968 0.47256 1.05804 0.0
H596 H 0.31375 0.74702 1.04162 0.0
H597 H 0.28951 0.82641 0.97143 0.0
H598 H 0.30768 0.81011 1.04905 0.0
H599 H 0.29438 0.76347 0.96433 0.0
Eu600 Eu 0.68894 0.14214 0.79009 0.0
Eu601 Eu 0.62814 0.09514 0.76704 0.0
C602 C 0.6098 0.17585 0.78163 0.0
C603 C 0.77435 0.17232 0.81834 0.0
C604 C 0.77565 0.15213 0.8399 0.0
C605 C 0.83337 0.1919 0.82614 0.0
C606 C 0.80458 0.15542 0.85555 0.0
C607 C 0.80491 0.18881 0.8102 0.0
C608 C 0.8289 0.18254 0.85102 0.0
C609 C 0.74138 0.17935 0.80546 0.0
O610 O 0.65668 0.11654 0.73307 0.0
O611 O 0.70834 0.132 0.75108 0.0
C612 C 0.69004 0.12505 0.73125 0.0
O613 O 0.70881 0.08772 0.79481 0.0
O614 O 0.58788 0.08562 0.73945 0.0
O615 O 0.59984 0.04554 0.76633 0.0
O616 O 0.67715 0.06195 0.76411 0.0
C617 C 0.70248 0.06101 0.78046 0.0
O618 O 0.67259 0.11106 0.82445 0.0
O619 O 0.63114 0.07533 0.80672 0.0
O620 O 0.59721 0.14382 0.77939 0.0
O621 O 0.73917 0.1671 0.78322 0.0
O622 O 0.71234 0.17591 0.81791 0.0
O623 O 0.64405 0.18063 0.78265 0.0
C624 C 0.5424 0.04804 0.75139 0.0
C625 C 0.527 0.02088 0.73793 0.0
C626 C 0.48583 0.06298 0.76856 0.0
C627 C 0.49104 1.01528 0.73927 0.0
C628 C 0.52191 0.06875 0.76707 0.0
C629 C 0.47013 0.03669 0.75422 0.0
C630 C 0.57965 0.05493 0.74822 0.0
C631 C 0.65058 0.08436 0.82583 0.0
H632 H 0.75339 0.13657 0.84566 0.0
H633 H 0.85492 0.20821 0.82025 0.0
H634 H 0.80342 0.14281 0.87335 0.0
H635 H 0.80559 0.20214 0.79263 0.0
H636 H 0.54268 1.00446 0.72601 0.0
H637 H 0.4701 0.0797 0.78022 0.0
H638 H 0.47946 0.99447 0.72841 0.0
H639 H 0.53369 0.0897 0.7777 0.0
H640 H 0.43013 0.25081 0.27017 0.0
H641 H 0.49182 0.15533 0.27343 0.0
H642 H 0.54575 0.19028 0.27353 0.0
H643 H 0.49202 0.29778 0.22902 0.0
H644 H 0.48566 0.3399 0.24331 0.0
H645 H 0.45075 0.30805 0.24331 0.0
H646 H 0.4471 0.31205 0.2906 0.0
H647 H 0.48199 0.34389 0.29073 0.0
H648 H 0.48587 0.30449 0.30881 0.0
H649 H 0.59383 0.23421 0.27468 0.0
H650 H 0.63356 0.28453 0.27542 0.0
H651 H 0.54476 0.35522 0.27008 0.0
C652 C 0.45499 0.23725 0.27083 0.0
C653 C 0.45607 0.1997 0.27182 0.0
C654 C 0.48955 0.18359 0.27254 0.0
C655 C 0.52067 0.20339 0.27266 0.0
C656 C 0.51876 0.23987 0.27173 0.0
C657 C 0.48691 0.2569 0.27057 0.0
C658 C 0.49317 0.29671 0.26928 0.0
C659 C 0.47958 0.31149 0.24477 0.0
C660 C 0.47601 0.31539 0.29116 0.0
C661 C 0.53331 0.29917 0.27065 0.0
C662 C 0.54718 0.26578 0.27194 0.0
C663 C 0.58319 0.26044 0.27362 0.0
C664 C 0.60575 0.28958 0.27411 0.0
C665 C 0.59299 0.32454 0.27293 0.0
C666 C 0.55586 0.32916 0.27096 0.0
H667 H 0.5959 0.73757 0.54782 0.0
H668 H 0.5545 0.67027 0.49055 0.0
H669 H 0.5062 0.71206 0.48346 0.0
H670 H 0.50951 0.7611 0.57175 0.0
H671 H 0.52141 0.80538 0.57972 0.0
H672 H 0.55421 0.77143 0.57961 0.0
H673 H 0.59165 0.80777 0.5494 0.0
H674 H 0.55898 0.84183 0.54943 0.0
H675 H 0.57263 0.82239 0.52083 0.0
H676 H 0.46026 0.76068 0.48302 0.0
H677 H 0.42094 0.8111 0.4895 0.0
H678 H 0.48913 0.84879 0.54763 0.0
C679 C 0.57696 0.7319 0.53353 0.0
C680 C 0.57975 0.70031 0.51949 0.0
C681 C 0.5535 0.69394 0.50152 0.0
C682 C 0.52575 0.71772 0.49733 0.0
C683 C 0.52347 0.74818 0.51153 0.0
C684 C 0.54825 0.75533 0.52942 0.0
C685 C 0.53817 0.78917 0.54298 0.0
C686 C 0.53038 0.78131 0.57013 0.0
C687 C 0.56709 0.81694 0.5405 0.0
C688 C 0.50466 0.80042 0.52943 0.0
C689 C 0.49662 0.77606 0.5115 0.0
C690 C 0.46651 0.77983 0.49704 0.0
C691 C 0.44407 0.80878 0.50093 0.0
C692 C 0.4513 0.83458 0.51907 0.0
C693 C 0.48249 0.83005 0.53343 0.0
H694 H 0.10793 0.78729 0.7732 0.0
H695 H 0.04778 0.88378 0.77547 0.0
H696 H 0.99328 0.84976 0.77566 0.0
H697 H 0.04517 0.74077 0.73227 0.0
H698 H 0.05094 0.69878 0.74687 0.0
H699 H 0.08631 0.73012 0.74673 0.0
H700 H 0.08998 0.72679 0.79407 0.0
H701 H 0.05465 0.69546 0.79435 0.0
H702 H 0.05136 0.7352 0.81212 0.0
H703 H 0.94419 0.80635 0.77682 0.0
H704 H 0.90374 0.75642 0.77778 0.0
H705 H 0.99183 0.68474 0.77365 0.0
C706 C 0.0833 0.80127 0.77371 0.0
C707 C 0.08289 0.83884 0.77438 0.0
C708 C 0.04962 0.85547 0.77486 0.0
C709 C 1.01814 0.83621 0.77502 0.0
C710 C 1.0194 0.79969 0.7744 0.0
C711 C 0.05101 0.78216 0.77353 0.0
C712 C 0.04412 0.74245 0.77252 0.0
C713 C 0.05744 0.72712 0.74815 0.0
C714 C 0.06104 0.72388 0.79459 0.0
C715 C 1.00393 0.74061 0.77382 0.0
C716 C 0.99052 0.77419 0.7747 0.0
C717 C 0.95451 0.77997 0.77607 0.0
C718 C 0.93152 0.75107 0.77663 0.0
C719 C 0.94388 0.71594 0.77586 0.0
C720 C 0.98101 0.71092 0.77431 0.0
H721 H 0.10398 0.24293 1.01997 0.0
H722 H 0.03381 0.154 1.02813 0.0
H723 H 0.98351 0.19358 1.02789 0.0
H724 H 0.0553 0.30292 1.05878 0.0
H725 H 0.06192 0.34112 1.03985 0.0
H726 H 0.09366 0.30619 1.03966 0.0
H727 H 0.08725 0.3008 0.99256 0.0
H728 H 0.05551 0.33576 0.99264 0.0
H729 H 0.04449 0.29392 0.97933 0.0
H730 H 0.93957 0.24139 1.02726 0.0
H731 H 0.90444 0.29503 1.02713 0.0
H732 H 0.99918 0.35739 1.02034 0.0
C733 C 0.07804 0.23176 1.02159 0.0
C734 C 0.07362 0.19459 1.02412 0.0
C735 C 0.03878 0.18179 1.02623 0.0
C736 C 1.00963 0.20428 1.02608 0.0
C737 C 1.01479 0.24029 1.0238 0.0
C738 C 0.04802 0.25424 1.02155 0.0
C739 C 0.04531 0.29441 1.01959 0.0
C740 C 0.06524 0.31222 1.04074 0.0
C741 C 0.05896 0.30697 0.99454 0.0
C742 C 1.0056 0.30057 1.02174 0.0
C743 C 0.98883 0.26863 1.0238 0.0
C744 C 0.95249 0.26654 1.02567 0.0
C745 C 0.93258 0.29754 1.02553 0.0
C746 C 0.94838 0.33117 1.02377 0.0
C747 C 0.98582 0.33245 1.02185 0.0
H748 H 0.54569 0.85477 1.02264 0.0
H749 H 0.63204 0.78929 1.04691 0.0
H750 H 0.59234 0.73903 1.05009 0.0
H751 H 0.47807 0.81271 1.06169 0.0
H752 H 0.44409 0.81501 1.03871 0.0
H753 H 0.47863 0.84726 1.0391 0.0
H754 H 0.49338 0.8325 0.99397 0.0
H755 H 0.45893 0.80018 0.99348 0.0
H756 H 0.50305 0.78783 0.98561 0.0
H757 H 0.54419 0.69414 1.05036 0.0
H758 H 0.49122 0.65784 1.04686 0.0
H759 H 0.4328 0.74854 1.02152 0.0
C760 C 0.55619 0.82997 1.02885 0.0
C761 C 0.59273 0.82677 1.03454 0.0
C762 C 0.60473 0.79325 1.04231 0.0
C763 C 0.58215 0.76416 1.04426 0.0
C764 C 0.54682 0.76798 1.03834 0.0
C765 C 0.53367 0.79997 1.03076 0.0
C766 C 0.49442 0.79591 1.02497 0.0
C767 C 0.4725 0.81911 1.04214 0.0
C768 C 0.48701 0.80463 0.99789 0.0
C769 C 0.48792 0.7568 1.03024 0.0
C770 C 0.51871 0.74151 1.03812 0.0
C771 C 0.51997 0.70595 1.04419 0.0
C772 C 0.4894 0.68534 1.04213 0.0
C773 C 0.45711 0.6996 1.03385 0.0
C774 C 0.4567 0.73626 1.02789 0.0
H775 H 0.53505 0.18191 0.78498 0.0
H776 H 0.62978 0.24443 0.77923 0.0
H777 H 0.59449 0.29803 0.77878 0.0
H778 H 0.4801 0.23618 0.74591 0.0
H779 H 0.44116 0.23253 0.76439 0.0
H780 H 0.47322 0.1979 0.76473 0.0
H781 H 0.47825 0.20312 0.8119 0.0
H782 H 0.44618 0.23778 0.81172 0.0
H783 H 0.48854 0.24497 0.8255 0.0
H784 H 0.55012 0.34592 0.77735 0.0
H785 H 0.49952 0.38526 0.77624 0.0
H786 H 0.42965 0.29614 0.7842 0.0
C787 C 0.5484 0.20687 0.78367 0.0
C788 C 0.58591 0.20813 0.78205 0.0
C789 C 0.60162 0.24185 0.7805 0.0
C790 C 0.58159 0.27285 0.78021 0.0
C791 C 0.54518 0.27075 0.78171 0.0
C792 C 0.52849 0.23874 0.78362 0.0
C793 C 0.48867 0.24483 0.78524 0.0
C794 C 0.46966 0.22678 0.76378 0.0
C795 C 0.47457 0.23189 0.81006 0.0
C796 C 0.48579 0.28501 0.78329 0.0
C797 C 0.51903 0.29905 0.78136 0.0
C798 C 0.52402 0.33509 0.77891 0.0
C799 C 0.49471 0.35744 0.77819 0.0
C800 C 0.45985 0.34456 0.77998 0.0
C801 C 0.45559 0.3074 0.78287 0.0
H802 H 0.04245 0.36075 0.51998 0.0
H803 H 0.12681 0.29696 0.54949 0.0
H804 H 0.0866 0.24737 0.55372 0.0
H805 H 0.97245 0.32299 0.55903 0.0
H806 H 0.93977 0.32329 0.53509 0.0
H807 H 0.97449 0.35534 0.53493 0.0
H808 H 0.99159 0.33627 0.49098 0.0
H809 H 0.95695 0.30415 0.49106 0.0
H810 H 1.00136 0.29085 0.48499 0.0
H811 H 0.0389 0.20288 0.55382 0.0
H812 H 0.98607 0.16653 0.55021 0.0
H813 H 0.92893 0.25567 0.52094 0.0
C814 C 0.05234 0.3365 0.52761 0.0
C815 C 0.08843 0.33344 0.53438 0.0
C816 C 0.0998 0.30069 0.544 0.0
C817 C 0.07696 0.27201 0.54656 0.0
C818 C 0.04209 0.27563 0.53949 0.0
C819 C 0.02954 0.30696 0.53027 0.0
C820 C 0.99065 0.30271 0.52363 0.0
C821 C 0.96799 0.32757 0.53909 0.0
C822 C 0.9848 0.30887 0.49602 0.0
C823 C 0.98367 0.26427 0.53048 0.0
C824 C 1.01398 0.24942 0.5396 0.0
C825 C 1.01499 0.21433 0.54678 0.0
C826 C 0.98456 0.1937 0.54459 0.0
C827 C 0.95273 0.20767 0.5353 0.0
C828 C 0.95249 0.24384 0.52826 0.0
H829 H 0.03837 0.68378 0.28552 0.0
H830 H 0.13212 0.74668 0.27565 0.0
H831 H 0.09646 0.80012 0.27584 0.0
H832 H 0.9798 0.73642 0.24833 0.0
H833 H 0.9426 0.73305 0.26852 0.0
H834 H 0.97489 0.69864 0.26793 0.0
H835 H 0.98405 0.70519 0.31472 0.0
H836 H 0.95176 0.73962 0.31548 0.0
H837 H 0.99518 0.74748 0.32729 0.0
H838 H 0.05174 0.84748 0.27534 0.0
H839 H 1.00084 0.88642 0.27588 0.0
H840 H 0.93255 0.79698 0.288 0.0
C841 C 0.0514 0.70881 0.28342 0.0
C842 C 0.08867 0.71038 0.28048 0.0
C843 C 0.1041 0.74406 0.27802 0.0
C844 C 0.08388 0.77489 0.27805 0.0
C845 C 0.04767 0.77252 0.28092 0.0
C846 C 0.03136 0.74047 0.28384 0.0
C847 C 0.99176 0.74624 0.2871 0.0
C848 C 0.97104 0.72746 0.26675 0.0
C849 C 0.97999 0.73389 0.31267 0.0
C850 C 0.9885 0.78629 0.28478 0.0
C851 C 0.02139 0.80056 0.28129 0.0
C852 C 0.02591 0.83653 0.27818 0.0
C853 C 0.99645 0.85863 0.27846 0.0
C854 C 0.96198 0.84546 0.28197 0.0
C855 C 0.95823 0.80839 0.28541 0.0
H856 H 0.447 1.01395 0.17902 0.0
H857 H 0.48228 0.90891 0.1974 0.0
H858 H 0.54144 0.92417 0.18226 0.0
H859 H 0.50459 0.02769 1.12492 0.0
H860 H 0.50895 0.07332 1.13287 0.0
H861 H 0.46924 0.05017 1.14012 0.0
H862 H 0.47727 0.07008 0.18544 0.0
H863 H 0.51851 0.09073 0.17868 0.0
H864 H 0.51613 0.05729 0.20203 0.0
H865 H 0.59783 0.95374 0.16892 0.0
H866 H 0.64138 0.98847 1.14706 0.0
H867 H 0.57074 0.07764 1.14698 0.0
C868 C 0.46638 0.99327 0.17895 0.0
C869 C 0.45999 0.96029 0.18999 0.0
C870 C 0.48661 0.93442 0.18922 0.0
C871 C 0.52043 0.94311 0.18114 0.0
C872 C 0.52675 0.97754 0.17375 0.0
C873 C 0.50016 1.00179 0.17182 0.0
C874 C 0.51353 0.03741 0.16424 0.0
C875 C 0.49819 0.04774 1.13905 0.0
C876 C 0.50589 0.0655 0.18378 0.0
C877 C 0.55215 0.02974 0.16261 0.0
C878 C 0.55925 0.995 0.16789 0.0
C879 C 0.59241 0.98088 0.16456 0.0
C880 C 0.6174 1.00139 1.15242 0.0
C881 C 0.60848 0.03531 1.14337 0.0
C882 C 0.5777 0.05121 1.1523 0.0
H883 H 0.8152 0.69985 0.40413 0.0
H884 H 0.84575 0.75109 0.47232 0.0
H885 H 0.81895 0.80528 0.45817 0.0
H886 H 0.81597 0.77861 0.36331 0.0
H887 H 0.7773 0.76301 0.34772 0.0
H888 H 0.80809 0.73219 0.36035 0.0
H889 H 0.75679 0.70378 0.3845 0.0
H890 H 0.7264 0.73609 0.37333 0.0
H891 H 0.73222 0.73003 0.40593 0.0
H892 H 0.77744 0.8507 0.44072 0.0
H893 H 0.74142 0.88906 0.41417 0.0
H894 H 0.73089 0.80345 0.36188 0.0
C895 C 0.81711 0.72248 0.41603 0.0
C896 C 0.8299 0.7196 0.44034 0.0
C897 C 0.83443 0.75114 0.4541 0.0
C898 C 0.81873 0.78241 0.44641 0.0
C899 C 0.79978 0.78197 0.42463 0.0
C900 C 0.80007 0.75325 0.40916 0.0
C901 C 0.77526 0.7581 0.38784 0.0
C902 C 0.79536 0.75801 0.36336 0.0
C903 C 0.74596 0.73034 0.38793 0.0
C904 C 0.76095 0.79392 0.39388 0.0
C905 C 0.77528 0.80739 0.41513 0.0
C906 C 0.76651 0.84066 0.42376 0.0
C907 C 0.74548 0.86204 0.4088 0.0
C908 C 0.73411 0.85001 0.38542 0.0
C909 C 0.73917 0.81427 0.37933 0.0
H910 H 0.0646 0.04154 0.6592 0.0
H911 H 0.13728 0.96503 0.63001 0.0
H912 H 0.08858 0.93604 0.60802 0.0
H913 H 1.0034 0.98656 0.67547 0.0
H914 H 0.96568 1.01256 0.66746 0.0
H915 H 1.00635 0.03372 0.67502 0.0
H916 H 1.00829 0.06619 0.63315 0.0
H917 H 0.966 0.0477 0.62634 0.0
H918 H 1.0017 0.04175 0.60516 0.0
H919 H 0.0295 0.9078 0.59788 0.0
H920 H 0.96803 0.89678 0.58579 0.0
H921 H 0.93664 0.98971 0.62631 0.0
C922 C 0.071 0.02009 0.647 0.0
C923 C 0.10434 1.00434 0.64739 0.0
C924 C 0.11151 0.97684 0.63055 0.0
C925 C 0.08388 0.95971 0.61846 0.0
C926 C 0.05002 0.97191 0.62251 0.0
C927 C 0.04378 1.00256 0.63532 0.0
C928 C 1.0052 1.00934 0.63844 0.0
C929 C 0.99459 1.0106 0.66572 0.0
C930 C 0.99466 0.04322 0.62496 0.0
C931 C 0.99062 0.97719 0.626 0.0
C932 C 1.01667 0.95578 0.61696 0.0
C933 C 1.00892 0.92497 0.60428 0.0
C934 C 0.97383 0.91847 0.59798 0.0
C935 C 0.9475 0.94338 0.60376 0.0
C936 C 0.95575 0.97044 0.62064 0.0
H937 H 0.7151 0.30544 0.92973 0.0
H938 H 0.76468 0.39232 0.89136 0.0
H939 H 0.80316 0.35041 0.87029 0.0
H940 H 0.78706 0.25981 0.94316 0.0
H941 H 0.76922 0.21669 0.93787 0.0
H942 H 0.7408 0.25201 0.94678 0.0
H943 H 0.7019 0.24354 0.90808 0.0
H944 H 0.72859 0.20645 0.90003 0.0
H945 H 0.72219 0.24144 0.87823 0.0
H946 H 0.84592 0.3002 0.862 0.0
H947 H 0.87087 0.24314 0.85057 0.0
H948 H 0.79122 0.19129 0.89459 0.0
C949 C 0.73305 0.31639 0.9165 0.0
C950 C 0.73904 0.35297 0.91438 0.0
C951 C 0.76138 0.3647 0.89515 0.0
C952 C 0.78361 0.34108 0.88309 0.0
C953 C 0.78147 0.30581 0.8894 0.0
C954 C 0.75532 0.29331 0.90447 0.0
C955 C 0.75828 0.25425 0.90841 0.0
C956 C 0.76419 0.2452 0.93567 0.0
C957 C 0.72584 0.2353 0.89805 0.0
C958 C 0.79063 0.24681 0.89344 0.0
C959 C 0.80404 0.27687 0.883 0.0
C960 C 0.83448 0.27627 0.86903 0.0
C961 C 0.84864 0.24355 0.86283 0.0
C962 C 0.83082 0.21207 0.86926 0.0
C963 C 0.80451 0.21419 0.88757 0.0
H964 H 0.24602 0.30406 0.8604 0.0
H965 H 0.24186 0.39391 0.90945 0.0
H966 H 0.27814 0.36131 0.93954 0.0
H967 H 0.24451 0.23613 0.90708 0.0
H968 H 0.27337 0.20903 0.88911 0.0
H969 H 0.24412 0.23903 0.87402 0.0
H970 H 0.29785 0.26581 0.8516 0.0
H971 H 0.32744 0.23739 0.86795 0.0
H972 H 0.33321 0.28425 0.86941 0.0
H973 H 0.31749 0.31971 0.96265 0.0
H974 H 0.34072 0.26755 0.98241 0.0
H975 H 0.32665 0.20886 0.91461 0.0
C976 C 0.25127 0.31683 0.87778 0.0
C977 C 0.24106 0.35186 0.88243 0.0
C978 C 0.24935 0.36713 0.90547 0.0
C979 C 0.27049 0.34909 0.92241 0.0
C980 C 0.28303 0.31606 0.91585 0.0
C981 C 0.27285 0.29977 0.89441 0.0
C982 C 0.28952 0.26418 0.89144 0.0
C983 C 0.26122 0.2354 0.89037 0.0
C984 C 0.31342 0.26287 0.86875 0.0
C985 C 0.31052 0.26253 0.91492 0.0
C986 C 0.30669 0.29283 0.92861 0.0
C987 C 0.32041 0.29581 0.95214 0.0
C988 C 0.3342 0.26568 0.96312 0.0
C989 C 0.33296 0.2328 0.95069 0.0
C990 C 0.32606 0.23288 0.92518 0.0
H991 H 0.22106 0.83606 0.4062 0.0
H992 H 0.20349 0.77837 0.47401 0.0
H993 H 0.23228 0.72736 0.45651 0.0
H994 H 0.22029 0.75909 0.36285 0.0
H995 H 0.25539 0.77846 0.34542 0.0
H996 H 0.22413 0.80611 0.36074 0.0
H997 H 0.27607 0.83743 0.38245 0.0
H998 H 0.30725 0.80826 0.36856 0.0
H999 H 0.30539 0.81228 0.40153 0.0
H1000 H 0.27422 0.68642 0.43523 0.0
H1001 H 0.31053 0.65294 0.40584 0.0
H1002 H 0.30723 0.74165 0.35571 0.0
C1003 C 0.22214 0.81243 0.41717 0.0
C1004 C 0.21162 0.8125 0.44203 0.0
C1005 C 0.21199 0.78012 0.45512 0.0
C1006 C 0.22897 0.75075 0.44549 0.0
C1007 C 0.24465 0.75388 0.42264 0.0
C1008 C 0.24029 0.78343 0.40824 0.0
C1009 C 0.26242 0.78166 0.38536 0.0
C1010 C 0.23918 0.78128 0.36223 0.0
C1011 C 0.28936 0.8117 0.38445 0.0
C1012 C 0.28022 0.74683 0.38943 0.0
C1013 C 0.2697 0.73106 0.41094 0.0
C1014 C 0.28224 0.69827 0.41808 0.0
C1015 C 0.3034 0.67971 0.40151 0.0
C1016 C 0.31139 0.69411 0.37815 0.0
C1017 C 0.30198 0.72932 0.37322 0.0
H1018 H 0.07862 0.583 0.64399 0.0
H1019 H 0.13893 0.48708 0.63739 0.0
H1020 H 0.09303 0.45484 0.65879 0.0
H1021 H 0.02701 0.56055 0.7013 0.0
H1022 H 0.98869 0.5804 0.68785 0.0
H1023 H 0.03151 0.59721 0.68063 0.0
H1024 H 1.01643 0.5891 0.63445 0.0
H1025 H 0.97479 0.56961 0.64155 0.0
H1026 H 1.00595 0.54597 0.62306 0.0
H1027 H 0.0347 0.43004 0.67214 0.0
H1028 H 0.97479 0.41924 0.68782 0.0
H1029 H 0.95058 0.52941 0.67705 0.0
C1030 C 0.08298 0.55558 0.64809 0.0
C1031 C 0.11145 0.5375 0.63764 0.0
C1032 C 0.11693 0.50185 0.6444 0.0
C1033 C 0.09054 0.48286 0.65624 0.0
C1034 C 0.05953 0.50015 0.66164 0.0
C1035 C 0.05605 0.53599 0.65854 0.0
C1036 C 1.01875 0.54762 0.66241 0.0
C1037 C 1.01634 0.57291 0.68436 0.0
C1038 C 1.0031 0.56403 0.63897 0.0
C1039 C 1.00187 0.51274 0.66791 0.0
C1040 C 0.02565 0.48562 0.66753 0.0
C1041 C 1.01587 0.45119 0.6728 0.0
C1042 C 0.98161 0.44508 0.6811 0.0
C1043 C 0.95794 0.47335 0.68388 0.0
C1044 C 0.96759 0.5069 0.67509 0.0
H1045 H 0.58996 0.55626 0.15957 0.0
H1046 H 0.53453 0.61203 0.21736 0.0
H1047 H 0.47943 0.58657 0.20291 0.0
H1048 H 0.51777 0.55998 1.11328 0.0
H1049 H 0.5297 0.51714 1.10215 0.0
H1050 H 0.56281 0.54592 1.11435 0.0
H1051 H 0.58091 0.49632 1.14442 0.0
H1052 H 0.54628 0.46833 1.13354 0.0
H1053 H 0.54911 0.47918 0.16572 0.0
H1054 H 0.43244 0.54371 0.18832 0.0
H1055 H 0.39335 0.50604 0.16352 0.0
H1056 H 0.48182 0.47865 1.11709 0.0
C1057 C 0.5666 0.56405 0.16926 0.0
C1058 C 0.56785 0.58301 0.19167 0.0
C1059 C 0.53543 0.59489 0.20158 0.0
C1060 C 0.50364 0.58043 0.19357 0.0
C1061 C 0.50459 0.55601 0.17465 0.0
C1062 C 0.53492 0.54949 0.16172 0.0
C1063 C 0.52943 0.52175 1.14232 0.0
C1064 C 0.53524 0.53712 1.1165 0.0
C1065 C 0.55283 0.48952 1.14679 0.0
C1066 C 0.49142 0.51314 1.14681 0.0
C1067 C 0.4775 0.53286 0.16562 0.0
C1068 C 0.4428 0.52896 0.17299 0.0
C1069 C 0.4209 0.50711 0.15897 0.0
C1070 C 0.43373 0.49041 1.13747 0.0
C1071 C 0.47025 0.49113 1.13295 0.0
H1072 H 0.23607 0.35664 0.27526 0.0
H1073 H 0.33522 0.3759 0.31196 0.0
H1074 H 0.32491 0.43983 0.30901 0.0
H1075 H 0.23879 0.42873 0.23334 0.0
H1076 H 0.19263 0.4378 0.23584 0.0
H1077 H 0.20852 0.39384 0.24031 0.0
H1078 H 0.17903 0.39178 0.28319 0.0
H1079 H 0.16298 0.43569 0.27883 0.0
H1080 H 0.18911 0.4253 0.30546 0.0
H1081 H 0.30206 0.50142 0.30358 0.0
H1082 H 0.26935 0.55597 0.29525 0.0
H1083 H 0.18562 0.49508 0.26194 0.0
C1084 C 0.2556 0.37429 0.28273 0.0
C1085 C 0.2864 0.3615 0.29387 0.0
C1086 C 0.3116 0.38534 0.30313 0.0
C1087 C 0.30588 0.42157 0.30166 0.0
C1088 C 0.27496 0.43328 0.29079 0.0
C1089 C 0.25031 0.41032 0.28145 0.0
C1090 C 0.21893 0.42935 0.27113 0.0
C1091 C 0.21449 0.42199 0.24351 0.0
C1092 C 0.18555 0.41998 0.28552 0.0
C1093 C 0.22995 0.46675 0.27576 0.0
C1094 C 0.26217 0.46855 0.28731 0.0
C1095 C 0.27701 0.50038 0.29429 0.0
C1096 C 0.25828 0.53118 0.2894 0.0
C1097 C 0.22522 0.52979 0.27753 0.0
C1098 C 0.21116 0.49711 0.27051 0.0
H1099 H 0.43579 0.48346 0.52528 0.0
H1100 H 0.41859 0.57417 0.57179 0.0
H1101 H 0.35475 0.56346 0.57025 0.0
H1102 H 0.36166 0.49476 0.48648 0.0
H1103 H 0.35234 0.44855 0.48415 0.0
H1104 H 0.39658 0.46323 0.48922 0.0
H1105 H 0.40073 0.42459 0.5283 0.0
H1106 H 0.35656 0.4096 0.52332 0.0
H1107 H 0.36849 0.4295 0.55219 0.0
H1108 H 0.29325 0.54227 0.56395 0.0
H1109 H 0.23798 0.51251 0.55302 0.0
H1110 H 0.2963 0.43614 0.51031 0.0
C1111 C 0.41856 0.50093 0.53524 0.0
C1112 C 0.43183 0.52964 0.5486 0.0
C1113 C 0.40866 0.55225 0.56121 0.0
C1114 C 0.37251 0.54628 0.56056 0.0
C1115 C 0.36024 0.51769 0.54716 0.0
C1116 C 0.38256 0.49541 0.53474 0.0
C1117 C 0.36281 0.46665 0.52164 0.0
C1118 C 0.3687 0.46843 0.49372 0.0
C1119 C 0.37273 0.43045 0.53199 0.0
C1120 C 0.32578 0.47652 0.52833 0.0
C1121 C 0.32484 0.50585 0.54321 0.0
C1122 C 0.29357 0.51943 0.55216 0.0
C1123 C 0.26236 0.50242 0.54577 0.0
C1124 C 0.26282 0.4723 0.53052 0.0
C1125 C 0.29499 0.45944 0.52164 0.0
H1126 H 0.22603 0.65478 0.81178 0.0
H1127 H 0.3264 0.70665 0.82092 0.0
H1128 H 0.35659 0.65029 0.81586 0.0
H1129 H 0.25371 0.57084 0.84352 0.0
H1130 H 0.22806 0.54419 0.82287 0.0
H1131 H 0.21365 0.58781 0.83063 0.0
H1132 H 0.21109 0.60371 0.78433 0.0
H1133 H 0.22569 0.56034 0.77644 0.0
H1134 H 0.24965 0.59805 0.76569 0.0
H1135 H 0.37617 0.59239 0.80384 0.0
H1136 H 0.38489 0.53302 0.78767 0.0
H1137 H 0.27273 0.5151 0.78811 0.0
C1138 C 0.25429 0.65392 0.81327 0.0
C1139 C 0.27395 0.68482 0.81707 0.0
C1140 C 0.31089 0.68309 0.81859 0.0
C1141 C 0.32827 0.65125 0.81567 0.0
C1142 C 0.30829 0.62135 0.81158 0.0
C1143 C 0.27215 0.62208 0.81076 0.0
C1144 C 0.25741 0.58612 0.80475 0.0
C1145 C 0.237 0.57136 0.82675 0.0
C1146 C 0.23462 0.58714 0.78141 0.0
C1147 C 0.29101 0.56584 0.80062 0.0
C1148 C 0.31992 0.58681 0.80504 0.0
C1149 C 0.35385 0.57547 0.8007 0.0
C1150 C 0.35849 0.54187 0.7913 0.0
C1151 C 0.32944 0.51986 0.78655 0.0
C1152 C 0.29525 0.53157 0.79174 0.0
H1153 H 0.12527 0.51607 1.06818 0.0
H1154 H 0.09827 0.49375 0.99224 0.0
H1155 H 0.15832 0.50923 0.97964 0.0
H1156 H 0.17612 0.59114 1.0558 0.0
H1157 H 0.20801 0.58284 1.07957 0.0
H1158 H 0.16395 0.56681 1.08286 0.0
H1159 H 0.18763 0.50382 1.08889 0.0
H1160 H 0.23179 0.51977 1.08555 0.0
H1161 H 0.21601 0.48499 1.06599 0.0
H1162 H 0.21865 0.53316 0.97464 0.0
H1163 H 0.27653 0.56202 0.97789 0.0
H1164 H 0.2649 0.56758 1.05692 0.0
C1165 C 0.13209 0.51415 1.04893 0.0
C1166 C 0.10715 0.5035 1.0312 0.0
C1167 C 0.11711 0.50123 1.00619 0.0
C1168 C 0.15109 0.51013 0.99884 0.0
C1169 C 0.17487 0.521 1.01673 0.0
C1170 C 0.16592 0.52286 1.04128 0.0
C1171 C 0.19585 0.53713 1.05664 0.0
C1172 C 0.18535 0.57152 1.06946 0.0
C1173 C 0.20858 0.50978 1.07537 0.0
C1174 C 0.22286 0.54343 1.03678 0.0
C1175 C 0.21018 0.53398 1.0139 0.0
C1176 C 0.22919 0.54 0.99248 0.0
C1177 C 0.26192 0.55639 0.99447 0.0
C1178 C 0.27538 0.56612 1.01771 0.0
C1179 C 0.25578 0.55917 1.0391 0.0
H1180 H 0.85978 0.54614 1.02659 0.0
H1181 H 0.7633 0.48639 1.0234 0.0
H1182 H 0.72977 0.54147 1.01735 0.0
H1183 H 0.82941 0.62092 1.05813 0.0
H1184 H 0.85415 0.65163 1.0399 0.0
H1185 H 0.87002 0.60763 1.04408 0.0
H1186 H 0.87249 0.59892 0.99677 0.0
H1187 H 0.85729 0.64323 0.99266 0.0
H1188 H 0.83373 0.60749 0.97868 0.0
H1189 H 0.70728 0.60386 1.0129 0.0
H1190 H 0.69805 0.66772 1.00769 0.0
H1191 H 0.81019 0.68463 1.01261 0.0
C1192 C 0.83153 0.54476 1.02499 0.0
C1193 C 0.81381 0.51246 1.0261 0.0
C1194 C 0.77706 0.51122 1.02294 0.0
C1195 C 0.75794 0.54223 1.01948 0.0
C1196 C 0.77625 0.57385 1.01867 0.0
C1197 C 0.81229 0.57518 1.02098 0.0
C1198 C 0.82603 0.61207 1.01837 0.0
C1199 C 0.84606 0.62374 1.04151 0.0
C1200 C 0.84876 0.61562 0.99524 0.0
C1201 C 0.79203 0.63158 1.01537 0.0
C1202 C 0.76355 0.60922 1.01536 0.0
C1203 C 0.72941 0.62159 1.01278 0.0
C1204 C 0.72441 0.6578 1.00998 0.0
C1205 C 0.75345 0.68091 1.00965 0.0
C1206 C 0.78755 0.6675 1.01247 0.0
H1207 H 0.60508 0.55176 0.78014 0.0
H1208 H 0.62026 0.46491 0.72984 0.0
H1209 H 0.68438 0.47385 0.73201 0.0
H1210 H 0.67181 0.60624 0.75519 0.0
H1211 H 0.68468 0.62397 0.78455 0.0
H1212 H 0.64036 0.60942 0.77974 0.0
H1213 H 0.64566 0.56784 0.81726 0.0
H1214 H 0.69006 0.5822 0.82217 0.0
H1215 H 0.68068 0.53621 0.81833 0.0
H1216 H 0.74701 0.4952 0.73788 0.0
H1217 H 0.80243 0.5259 0.74804 0.0
H1218 H 0.74478 0.5974 0.79499 0.0
C1219 C 0.62188 0.53459 0.76959 0.0
C1220 C 0.60777 0.50765 0.75482 0.0
C1221 C 0.63062 0.48548 0.74149 0.0
C1222 C 0.66701 0.49046 0.74251 0.0
C1223 C 0.68005 0.51756 0.75708 0.0
C1224 C 0.65811 0.53912 0.77045 0.0
C1225 C 0.67839 0.56685 0.78425 0.0
C1226 C 0.66821 0.60379 0.77539 0.0
C1227 C 0.6734 0.56302 0.81216 0.0
C1228 C 0.71523 0.55752 0.77664 0.0
C1229 C 0.71579 0.5292 0.76084 0.0
C1230 C 0.74693 0.51712 0.7505 0.0
C1231 C 0.77826 0.53463 0.7564 0.0
C1232 C 0.77807 0.56367 0.77262 0.0
C1233 C 0.74607 0.57485 0.78294 0.0
H1234 H 0.78117 0.38217 0.48449 0.0
H1235 H 0.77276 0.34548 0.55964 0.0
H1236 H 0.75826 0.40547 0.5733 0.0
H1237 H 0.81978 0.46902 0.50014 0.0
H1238 H 0.79617 0.49117 0.476 0.0
H1239 H 0.80868 0.44592 0.47229 0.0
H1240 H 0.7443 0.42952 0.46364 0.0
H1241 H 0.73139 0.47453 0.46778 0.0
H1242 H 0.71116 0.44051 0.48592 0.0
H1243 H 0.74109 0.46705 0.57843 0.0
H1244 H 0.71799 0.52687 0.57482 0.0
H1245 H 0.73762 0.5255 0.49631 0.0
C1246 C 0.77667 0.38707 0.50383 0.0
C1247 C 0.77832 0.35961 0.52116 0.0
C1248 C 0.77204 0.36652 0.54627 0.0
C1249 C 0.76393 0.40041 0.55416 0.0
C1250 C 0.76288 0.42712 0.53673 0.0
C1251 C 0.76914 0.42099 0.51211 0.0
C1252 C 0.76447 0.45418 0.49716 0.0
C1253 C 0.79936 0.46576 0.48572 0.0
C1254 C 0.73613 0.44934 0.47745 0.0
C1255 C 0.75284 0.4795 0.51701 0.0
C1256 C 0.75293 0.46331 0.53975 0.0
C1257 C 0.74136 0.4802 0.56082 0.0
C1258 C 0.72827 0.51419 0.55854 0.0
C1259 C 0.72631 0.53086 0.53532 0.0
C1260 C 0.7397 0.51369 0.51435 0.0
H1261 H 0.79358 0.44212 0.2927 0.0
H1262 H 0.73421 0.51678 0.24915 0.0
H1263 H 0.78887 0.5493 0.24029 0.0
H1264 H 0.85599 0.50208 0.31895 0.0
H1265 H 0.8918 0.47154 0.31653 0.0
H1266 H 0.84777 0.45558 0.32041 0.0
H1267 H 0.85412 0.41792 0.28098 0.0
H1268 H 0.89812 0.43384 0.27699 0.0
H1269 H 0.86656 0.43875 0.25257 0.0
H1270 H 0.8506 0.57269 0.23564 0.0
H1271 H 0.91447 0.58364 0.23428 0.0
H1272 H 0.93194 0.49268 0.28053 0.0
C1273 C 0.79179 0.46569 0.28168 0.0
C1274 C 0.75952 0.47731 0.27198 0.0
C1275 C 0.75862 0.5077 0.25704 0.0
C1276 C 0.78949 0.52627 0.25188 0.0
C1277 C 0.82089 0.51388 0.26168 0.0
C1278 C 0.8222 0.48417 0.27616 0.0
C1279 C 0.85928 0.47509 0.28343 0.0
C1280 C 0.86397 0.47616 0.3115 0.0
C1281 C 0.87014 0.43929 0.27285 0.0
C1282 C 0.87868 0.50464 0.27107 0.0
C1283 C 0.85621 0.52679 0.2586 0.0
C1284 C 0.86842 0.55562 0.24543 0.0
C1285 C 0.90462 0.56174 0.24488 0.0
C1286 C 0.92797 0.53898 0.25729 0.0
C1287 C 0.91468 0.51033 0.2707 0.0
H1288 H 0.74823 0.85831 0.76461 0.0
H1289 H 0.79743 0.86458 0.8364 0.0
H1290 H 0.78776 0.92852 0.83701 0.0
H1291 H 0.78051 0.9435 0.74126 0.0
H1292 H 0.74014 0.95298 0.7254 0.0
H1293 H 0.75405 0.90819 0.72936 0.0
H1294 H 0.69498 0.8934 0.75028 0.0
H1295 H 0.68088 0.93806 0.74646 0.0
H1296 H 0.68116 0.91849 0.77661 0.0
H1297 H 0.77002 0.99006 0.8312 0.0
H1298 H 0.74324 0.04634 0.82019 0.0
H1299 H 0.70367 1.00085 0.75235 0.0
C1300 C 0.75756 0.87338 0.78017 0.0
C1301 C 0.77365 0.85681 0.80044 0.0
C1302 C 0.78493 0.87699 0.82078 0.0
C1303 C 0.77975 0.91324 0.82121 0.0
C1304 C 0.7633 0.92878 0.80115 0.0
C1305 C 0.75232 0.90963 0.781 0.0
C1306 C 0.73316 0.93259 0.76267 0.0
C1307 C 0.75317 0.93442 0.73822 0.0
C1308 C 0.6953 0.91987 0.75879 0.0
C1309 C 0.7343 0.96741 0.77601 0.0
C1310 C 0.75235 0.96461 0.79796 0.0
C1311 C 0.75619 0.99277 0.81392 0.0
C1312 C 0.74091 0.02469 0.80741 0.0
C1313 C 0.72157 0.02811 0.78525 0.0
C1314 C 0.71853 0.99911 0.76927 0.0
H1315 H 0.79666 0.92852 1.03087 0.0
H1316 H 0.73568 0.02316 1.04107 0.0
H1317 H 0.79032 0.0565 1.04939 0.0
H1318 H 0.85806 0.94737 1.08019 0.0
H1319 H 0.89432 0.92753 1.06428 0.0
H1320 H 0.85047 0.91174 1.05908 0.0
H1321 H 0.85774 0.92229 1.01226 0.0
H1322 H 0.90155 0.9381 1.01733 0.0
H1323 H 0.8702 0.96518 1.00142 0.0
H1324 H 0.85266 0.07952 1.05431 0.0
H1325 H 0.91664 0.08925 1.05852 0.0
H1326 H 0.93456 0.97824 1.04694 0.0
C1327 C 0.79486 0.95636 1.03459 0.0
C1328 C 0.76231 0.97364 1.03476 0.0
C1329 C 0.76065 1.00974 1.04056 0.0
C1330 C 0.79143 0.02876 1.04533 0.0
C1331 C 0.82327 1.01092 1.04481 0.0
C1332 C 0.82503 0.97539 1.03996 0.0
C1333 C 0.86212 0.96194 1.04126 0.0
C1334 C 0.86648 0.93559 1.06247 0.0
C1335 C 0.87356 0.94596 1.01659 0.0
C1336 C 0.88122 0.99568 1.04663 0.0
C1337 C 0.85853 0.0237 1.04873 0.0
C1338 C 0.87062 0.05769 1.05296 0.0
C1339 C 0.90687 0.063 1.05521 0.0
C1340 C 0.9303 0.03439 1.05336 0.0
C1341 C 0.91716 1.00045 1.04899 0.0
H1342 H 0.84733 0.04681 0.26218 0.0
H1343 H 0.7718 0.98838 0.30541 0.0
H1344 H 0.74112 0.04384 0.31533 0.0
H1345 H 0.85393 0.11812 0.30354 0.0
H1346 H 0.85969 0.15029 0.27963 0.0
H1347 H 0.87384 0.10584 0.27481 0.0
H1348 H 0.83545 0.10199 0.23551 0.0
H1349 H 0.82122 0.14647 0.24014 0.0
H1350 H 0.78936 0.11179 0.23738 0.0
H1351 H 0.71981 0.10648 0.32091 0.0
H1352 H 0.71104 0.17067 0.32312 0.0
H1353 H 0.80201 0.18638 0.2768 0.0
C1354 C 0.8239 0.04541 0.27331 0.0
C1355 C 0.81147 1.01325 0.28261 0.0
C1356 C 0.78142 1.01278 0.29781 0.0
C1357 C 0.76392 0.0441 0.30356 0.0
C1358 C 0.77715 0.07543 0.29416 0.0
C1359 C 0.8066 0.07621 0.27948 0.0
C1360 C 0.81694 0.11317 0.27277 0.0
C1361 C 0.85324 0.12238 0.28332 0.0
C1362 C 0.81564 0.11867 0.24479 0.0
C1363 C 0.78836 0.13325 0.28563 0.0
C1364 C 0.76561 0.11115 0.29787 0.0
C1365 C 0.7374 0.12399 0.31132 0.0
C1366 C 0.73254 0.1604 0.31236 0.0
C1367 C 0.7559 0.18338 0.30015 0.0
C1368 C 0.78396 0.16946 0.28652 0.0
H1369 H 0.74049 0.10925 0.51532 0.0
H1370 H 0.80055 0.02576 0.54953 0.0
H1371 H 0.74589 0.99362 0.55821 0.0
H1372 H 0.67074 0.10743 0.5585 0.0
H1373 H 0.63734 0.11689 0.53603 0.0
H1374 H 0.68132 0.13258 0.53147 0.0
H1375 H 0.6836 0.1015 0.48906 0.0
H1376 H 0.63952 0.08598 0.49345 0.0
H1377 H 0.67419 0.05525 0.48715 0.0
H1378 H 0.68487 0.97142 0.56399 0.0
H1379 H 0.62106 0.96068 0.56627 0.0
H1380 H 0.60196 0.05892 0.52833 0.0
C1381 C 0.74222 0.08389 0.52418 0.0
C1382 C 0.77463 0.06973 0.53145 0.0
C1383 C 0.77585 0.03691 0.54363 0.0
C1384 C 0.74504 1.01851 0.54869 0.0
C1385 C 0.71344 0.03346 0.54155 0.0
C1386 C 0.7118 0.06538 0.52958 0.0
C1387 C 0.67451 0.07632 0.52466 0.0
C1388 C 0.66546 0.11031 0.5385 0.0
C1389 C 0.66756 0.07995 0.49693 0.0
C1390 C 0.65548 0.04527 0.53538 0.0
C1391 C 0.67831 0.02089 0.54514 0.0
C1392 C 0.66667 0.99018 0.55629 0.0
C1393 C 0.63056 0.98424 0.55739 0.0
C1394 C 0.60689 1.00899 0.54743 0.0
C1395 C 0.61958 0.03976 0.53628 0.0
H1396 H 0.28003 0.16268 0.47052 0.0
H1397 H 0.29507 0.20831 0.54285 0.0
H1398 H 0.30422 0.1495 0.5603 0.0
H1399 H 0.23524 0.08337 0.4894 0.0
H1400 H 0.25761 0.05582 0.46757 0.0
H1401 H 0.2505 0.1015 0.46077 0.0
H1402 H 0.3169 0.10973 0.45375 0.0
H1403 H 0.32463 0.06438 0.46088 0.0
H1404 H 0.34729 0.09799 0.47778 0.0
H1405 H 0.31256 0.08751 0.56994 0.0
H1406 H 0.32763 0.02515 0.57081 0.0
H1407 H 0.30736 1.01745 0.49256 0.0
C1408 C 0.28532 0.1601 0.49 0.0
C1409 C 0.28712 0.18988 0.50535 0.0
C1410 C 0.29422 0.18578 0.53073 0.0
C1411 C 0.29895 0.15251 0.54086 0.0
C1412 C 0.29656 0.12364 0.52535 0.0
C1413 C 0.29051 0.12697 0.50043 0.0
C1414 C 0.29198 0.09164 0.48773 0.0
C1415 C 0.25672 0.08256 0.47566 0.0
C1416 C 0.32198 0.09091 0.46892 0.0
C1417 C 0.29952 0.06793 0.50951 0.0
C1418 C 0.30168 0.08716 0.53099 0.0
C1419 C 0.31048 0.072 0.55335 0.0
C1420 C 0.31867 0.0364 0.55369 0.0
C1421 C 0.31787 1.01619 0.53187 0.0
C1422 C 0.30717 0.03196 0.5096 0.0
H1423 H 0.10215 0.06058 0.25525 0.0
H1424 H 0.11599 0.94815 0.26209 0.0
H1425 H 0.17976 0.95699 0.26814 0.0
H1426 H 0.18152 0.07684 0.22121 0.0
H1427 H 0.18919 0.11832 0.23612 0.0
H1428 H 0.14512 0.10247 0.23214 0.0
H1429 H 0.13454 0.10813 0.27907 0.0
H1430 H 0.17856 0.12393 0.28318 0.0
H1431 H 0.16367 0.08622 0.30017 0.0
H1432 H 0.24286 0.97928 0.27294 0.0
H1433 H 0.29808 1.01303 0.27797 0.0
H1434 H 0.24007 0.10973 0.26762 0.0
C1435 C 0.11858 0.03771 0.25768 0.0
C1436 C 0.10427 1.00369 0.25798 0.0
C1437 C 0.12653 0.97451 0.2619 0.0
C1438 C 0.16273 0.97926 0.26519 0.0
C1439 C 0.176 1.0133 0.26453 0.0
C1440 C 0.15446 0.04195 0.26091 0.0
C1441 C 0.17464 0.07589 0.26126 0.0
C1442 C 0.17249 0.09446 0.23619 0.0
C1443 C 0.16211 0.09994 0.28217 0.0
C1444 C 0.21093 0.06202 0.26611 0.0
C1445 C 0.21153 0.0259 0.26769 0.0
C1446 C 0.24263 1.0076 0.27186 0.0
C1447 C 0.27379 0.0269 0.2747 0.0
C1448 C 0.27326 0.06397 0.27361 0.0
C1449 C 0.24138 0.08145 0.26904 0.0
H1450 H 0.19609 1.00241 0.99685 0.0
H1451 H 0.26906 0.04966 1.04815 0.0
H1452 H 0.30362 0.99445 1.04875 0.0
H1453 H 0.19207 0.92122 1.02344 0.0
H1454 H 0.18963 0.89668 0.99519 0.0
H1455 H 0.17385 0.94102 0.99617 0.0
H1456 H 0.21517 0.9586 0.96044 0.0
H1457 H 0.23017 0.91388 0.95886 0.0
H1458 H 0.26126 0.94903 0.96272 0.0
H1459 H 0.32535 0.93113 1.04724 0.0
H1460 H 0.33561 0.86764 1.0408 0.0
H1461 H 0.24695 0.86387 0.99089 0.0
C1462 C 0.21987 1.00137 1.00774 0.0
C1463 C 0.23022 0.02995 1.02241 0.0
C1464 C 0.26121 0.02795 1.03655 0.0
C1465 C 0.28074 0.99671 1.03709 0.0
C1466 C 0.26899 0.96835 1.02307 0.0
C1467 C 0.23958 0.97077 1.0083 0.0
C1468 C 0.23113 0.93644 0.99587 0.0
C1469 C 0.19452 0.92307 1.00313 0.0
C1470 C 0.23466 0.93969 0.96781 0.0
C1471 C 0.25968 0.91381 1.00656 0.0
C1472 C 0.28146 0.93252 1.02209 0.0
C1473 C 0.30877 0.91639 1.03483 0.0
C1474 C 0.31421 0.88033 1.03124 0.0
C1475 C 0.29234 0.861 1.0151 0.0
C1476 C 0.26467 0.8781 1.00284 0.0
H1477 H 0.42659 0.02665 0.79347 0.0
H1478 H 0.42819 0.03535 0.71405 0.0
H1479 H 0.36489 0.02255 0.71251 0.0
H1480 H 0.37303 0.95452 0.79645 0.0
H1481 H 0.34861 0.96758 0.82325 0.0
H1482 H 0.39239 0.98364 0.81879 0.0
H1483 H 0.37017 0.04758 0.82194 0.0
H1484 H 0.32615 0.03175 0.82653 0.0
H1485 H 0.33533 0.06214 0.80203 0.0
H1486 H 0.30347 1.005 0.71899 0.0
H1487 H 0.24823 0.97789 0.73285 0.0
H1488 H 0.28697 0.97528 0.80762 0.0
C1489 C 0.41324 0.02675 0.77589 0.0
C1490 C 0.43187 0.03218 0.75387 0.0
C1491 C 0.41409 0.03128 0.73106 0.0
C1492 C 0.3782 0.02433 0.73004 0.0
C1493 C 0.36058 1.01842 0.75201 0.0
C1494 C 0.37741 1.01942 0.77453 0.0
C1495 C 0.35305 1.00837 0.79507 0.0
C1496 C 0.36764 0.97663 0.8092 0.0
C1497 C 0.34575 0.0393 0.81242 0.0
C1498 C 0.32067 0.99897 0.78037 0.0
C1499 C 0.32524 1.00633 0.75569 0.0
C1500 C 0.29941 0.99946 0.73828 0.0
C1501 C 0.26824 0.98407 0.74624 0.0
C1502 C 0.26373 0.97483 0.77114 0.0
C1503 C 0.28997 0.98262 0.78851 0.0
H1504 H 0.30191 0.1773 0.19535 0.0
H1505 H 0.31415 0.06634 0.21079 0.0
H1506 H 0.27716 0.05202 0.17523 0.0
H1507 H 0.21151 0.17336 0.17313 0.0
H1508 H 0.2178 0.20447 1.14861 0.0
H1509 H 0.24448 0.20699 0.17592 0.0
H1510 H 0.30026 0.20342 1.1491 0.0
H1511 H 0.27364 0.20063 1.12178 0.0
H1512 H 0.3056 0.16714 1.12822 0.0
H1513 H 0.23734 0.04843 1.1383 0.0
H1514 H 0.20099 0.05609 1.10128 0.0
H1515 H 0.21541 0.16874 1.10593 0.0
C1516 C 0.2969 0.15001 0.19121 0.0
C1517 C 0.31168 0.12303 0.20624 0.0
C1518 C 0.30404 0.08772 0.19978 0.0
C1519 C 0.28267 0.07918 0.17951 0.0
C1520 C 0.26887 0.10604 0.16508 0.0
C1521 C 0.2759 0.1408 0.17039 0.0
C1522 C 0.25844 0.16422 1.15097 0.0
C1523 C 0.23146 0.18872 0.16288 0.0
C1524 C 0.28613 0.1851 1.13667 0.0
C1525 C 0.24035 0.13726 1.13432 0.0
C1526 C 0.24662 0.10387 1.14306 0.0
C1527 C 0.23239 0.07453 1.13134 0.0
C1528 C 0.21145 0.07921 1.11022 0.0
C1529 C 0.20469 0.11301 1.10038 0.0
C1530 C 0.21969 0.14246 1.11279 0.0
H1531 H 0.65693 0.42885 0.37514 0.0
H1532 H 0.67394 0.5136 0.32334 0.0
H1533 H 0.67193 0.55628 0.35705 0.0
H1534 H 0.595 0.47782 0.41331 0.0
H1535 H 0.61003 0.45958 0.44202 0.0
H1536 H 0.61404 0.4346 0.41404 0.0
H1537 H 0.68076 0.42791 0.42081 0.0
H1538 H 0.67555 0.45137 0.44922 0.0
H1539 H 0.7068 0.46646 0.42656 0.0
H1540 H 0.66789 0.59084 0.39561 0.0
H1541 H 0.66202 0.61581 0.43689 0.0
H1542 H 0.64561 0.51153 0.46681 0.0
C1543 C 0.66049 0.45636 0.37098 0.0
C1544 C 0.66564 0.46753 0.34621 0.0
C1545 C 0.66975 0.504 0.34184 0.0
C1546 C 0.66871 0.52867 0.361 0.0
C1547 C 0.66307 0.5171 0.38496 0.0
C1548 C 0.65881 0.48191 0.39014 0.0
C1549 C 0.65202 0.47733 0.41772 0.0
C1550 C 0.6156 0.46138 0.42202 0.0
C1551 C 0.68057 0.45443 0.42927 0.0
C1552 C 0.65379 0.51533 0.42721 0.0
C1553 C 0.66012 0.53755 0.40767 0.0
C1554 C 0.66291 0.57366 0.41104 0.0
C1555 C 0.65946 0.58769 0.43481 0.0
C1556 C 0.65302 0.56618 0.45563 0.0
C1557 C 0.65001 0.52914 0.45154 0.0
H1558 H 0.25178 0.85889 0.70344 0.0
H1559 H 0.20261 0.96142 0.70042 0.0
H1560 H 0.23573 0.9754 0.66324 0.0
H1561 H 0.33713 0.88423 0.67967 0.0
H1562 H 0.34275 0.846 0.66065 0.0
H1563 H 0.31635 0.84349 0.68801 0.0
H1564 H 0.2641 0.82078 0.66208 0.0
H1565 H 0.29041 0.82334 0.63467 0.0
H1566 H 0.24913 0.84609 0.63614 0.0
H1567 H 0.27753 0.98117 0.62761 0.0
H1568 H 0.31763 0.97429 0.59253 0.0
H1569 H 0.33616 0.86624 0.61305 0.0
C1570 C 0.24778 0.88418 0.69489 0.0
C1571 C 0.22415 0.90896 0.70555 0.0
C1572 C 0.21999 0.94158 0.69317 0.0
C1573 C 0.23908 0.95007 0.67188 0.0
C1574 C 0.26216 0.9255 0.66212 0.0
C1575 C 0.26607 0.89285 0.67279 0.0
C1576 C 0.29133 0.87081 0.65726 0.0
C1577 C 0.32381 0.86051 0.67231 0.0
C1578 C 0.27263 0.83831 0.64693 0.0
C1579 C 0.30116 0.89627 0.6366 0.0
C1580 C 0.28442 0.92792 0.6402 0.0
C1581 C 0.29039 0.95629 0.62454 0.0
C1582 C 0.31356 0.95223 0.60463 0.0
C1583 C 0.33037 0.91988 0.59974 0.0
C1584 C 0.32376 0.89136 0.61605 0.0
H1585 H 0.88987 0.61109 0.8769 0.0
H1586 H 0.84281 0.53597 0.82699 0.0
H1587 H 0.84221 0.4916 0.85986 0.0
H1588 H 0.9463 0.54874 0.90732 0.0
H1589 H 0.94213 0.56755 0.93755 0.0
H1590 H 0.937 0.5948 0.91074 0.0
H1591 H 0.87535 0.6142 0.92531 0.0
H1592 H 0.88199 0.58792 0.95239 0.0
H1593 H 0.84364 0.58117 0.93352 0.0
H1594 H 0.84813 0.45402 0.89727 0.0
H1595 H 0.85847 0.42573 0.93707 0.0
H1596 H 0.90279 0.52263 0.96537 0.0
C1597 C 0.87879 0.58553 0.87312 0.0
C1598 C 0.86584 0.57737 0.8492 0.0
C1599 C 0.85252 0.54316 0.84503 0.0
C1600 C 0.85217 0.51761 0.86366 0.0
C1601 C 0.86554 0.52606 0.88679 0.0
C1602 C 0.87853 0.55915 0.89174 0.0
C1603 C 0.89236 0.56036 0.91819 0.0
C1604 C 0.9318 0.56834 0.91846 0.0
C1605 C 0.87205 0.58755 0.93324 0.0
C1606 C 0.88497 0.52294 0.92729 0.0
C1607 C 0.86951 0.50383 0.90862 0.0
C1608 C 0.8602 0.46881 0.91199 0.0
C1609 C 0.86636 0.45282 0.93491 0.0
C1610 C 0.88185 0.47132 0.95485 0.0
C1611 C 0.89138 0.50718 0.95071 0.0
H1612 H 0.81684 0.96209 0.1972 0.0
H1613 H 0.83452 0.85134 0.21028 0.0
H1614 H 0.80077 0.837 0.17301 0.0
H1615 H 0.72673 0.95173 0.1755 0.0
H1616 H 0.72936 0.98545 1.15239 0.0
H1617 H 0.75637 0.98808 0.17953 0.0
H1618 H 0.81154 0.99242 1.15242 0.0
H1619 H 0.78477 0.98972 1.12517 0.0
H1620 H 0.82 0.95901 1.12978 0.0
H1621 H 0.76691 0.83347 1.13368 0.0
H1622 H 0.73137 0.84064 1.09617 0.0
H1623 H 0.72911 0.95307 1.10787 0.0
C1624 C 0.81393 0.93484 0.19202 0.0
C1625 C 0.82912 0.9078 0.20683 0.0
C1626 C 0.82367 0.87258 0.19949 0.0
C1627 C 0.80441 0.86413 0.17819 0.0
C1628 C 0.78974 0.89103 0.16415 0.0
C1629 C 0.79383 0.92576 0.17078 0.0
C1630 C 0.77376 0.94917 1.15258 0.0
C1631 C 0.74484 0.96983 0.16579 0.0
C1632 C 0.79902 0.97405 1.13919 0.0
C1633 C 0.75803 0.92208 1.13477 0.0
C1634 C 0.76814 0.88881 1.14185 0.0
C1635 C 0.75851 0.85938 1.12816 0.0
C1636 C 0.73815 0.86372 1.10675 0.0
C1637 C 0.72652 0.89719 1.09896 0.0
C1638 C 0.73668 0.9269 1.11344 0.0
H1639 H 0.33572 0.59256 0.93444 0.0
H1640 H 0.4354 0.56247 0.96679 0.0
H1641 H 0.44692 0.52403 0.93187 0.0
H1642 H 0.31446 0.5068 0.90882 0.0
H1643 H 0.296 0.52322 0.88056 0.0
H1644 H 0.2947 0.54968 0.90797 0.0
H1645 H 0.32604 0.60001 0.88497 0.0
H1646 H 0.32684 0.57341 0.85764 0.0
H1647 H 0.36699 0.59144 0.8697 0.0
H1648 H 0.45002 0.48876 0.89357 0.0
H1649 H 0.44301 0.45751 0.85407 0.0
H1650 H 0.34128 0.50585 0.8442 0.0
C1651 C 0.3602 0.57829 0.93398 0.0
C1652 C 0.38476 0.58144 0.95382 0.0
C1653 C 0.41603 0.56138 0.95226 0.0
C1654 C 0.42296 0.53912 0.93229 0.0
C1655 C 0.39861 0.5365 0.91332 0.0
C1656 C 0.36776 0.55545 0.91377 0.0
C1657 C 0.34629 0.54687 0.89058 0.0
C1658 C 0.31076 0.53067 0.8974 0.0
C1659 C 0.34127 0.57991 0.87479 0.0
C1660 C 0.36986 0.52003 0.87746 0.0
C1661 C 0.40001 0.51493 0.89102 0.0
C1662 C 0.42643 0.49242 0.88284 0.0
C1663 C 0.42226 0.47466 0.86029 0.0
C1664 C 0.39163 0.4786 0.84595 0.0
C1665 C 0.36493 0.50174 0.85481 0.0
H1666 H 0.74279 0.08663 0.70735 0.0
H1667 H 0.67572 0.17735 0.69898 0.0
H1668 H 0.70476 0.1915 0.65961 0.0
H1669 H 0.82137 0.12267 0.68134 0.0
H1670 H 0.83402 0.08377 0.66478 0.0
H1671 H 0.80803 0.08009 0.69225 0.0
H1672 H 0.76118 0.04526 0.66831 0.0
H1673 H 0.78698 0.04873 0.64072 0.0
H1674 H 0.74226 0.06375 0.64086 0.0
H1675 H 0.74234 0.19773 0.62182 0.0
H1676 H 0.78259 0.19386 0.58676 0.0
H1677 H 0.82558 0.09739 0.61646 0.0
C1678 C 0.7341 0.10931 0.69706 0.0
C1679 C 0.70665 0.13095 0.70641 0.0
C1680 C 0.69622 0.16027 0.69228 0.0
C1681 C 0.71277 0.16856 0.66986 0.0
C1682 C 0.73966 0.14702 0.66118 0.0
C1683 C 0.74998 0.11759 0.67409 0.0
C1684 C 0.77907 0.09853 0.65997 0.0
C1685 C 0.81262 0.09614 0.67552 0.0
C1686 C 0.76663 0.06189 0.65199 0.0
C1687 C 0.78427 0.12253 0.6376 0.0
C1688 C 0.76103 0.15022 0.63883 0.0
C1689 C 0.76051 0.17605 0.62068 0.0
C1690 C 0.78381 0.17364 0.60069 0.0
C1691 C 0.80798 0.14555 0.5984 0.0
C1692 C 0.80799 0.11957 0.61743 0.0
H1693 H 0.14074 0.50284 0.46061 0.0
H1694 H 0.19799 0.4133 0.43241 0.0
H1695 H 0.20183 0.44219 0.39188 0.0
H1696 H 0.0907 0.52007 0.40534 0.0
H1697 H 0.09251 0.56709 0.40831 0.0
H1698 H 0.09445 0.53983 0.43532 0.0
H1699 H 0.15268 0.56907 0.4482 0.0
H1700 H 0.15099 0.59661 0.42132 0.0
H1701 H 0.18888 0.56964 0.427 0.0
H1702 H 0.19771 0.47994 0.35346 0.0
H1703 H 0.18772 0.52371 0.32094 0.0
H1704 H 0.13516 0.59138 0.37298 0.0
C1705 C 0.15396 0.48911 0.44591 0.0
C1706 C 0.16871 0.4552 0.45 0.0
C1707 C 0.18604 0.43881 0.43004 0.0
C1708 C 0.18848 0.4552 0.40683 0.0
C1709 C 0.17357 0.48835 0.40345 0.0
C1710 C 0.15672 0.50524 0.42248 0.0
C1711 C 0.14286 0.54082 0.41382 0.0
C1712 C 0.10275 0.54203 0.41581 0.0
C1713 C 0.15987 0.57081 0.42846 0.0
C1714 C 0.15453 0.54141 0.38693 0.0
C1715 C 0.17207 0.51065 0.38145 0.0
C1716 C 0.18434 0.50418 0.35775 0.0
C1717 C 0.17861 0.52941 0.33928 0.0
C1718 C 0.16122 0.56148 0.34415 0.0
C1719 C 0.14904 0.56749 0.36853 0.0
H1720 H 0.67672 0.64687 0.62657 0.0
H1721 H 0.75205 0.59843 0.57769 0.0
H1722 H 0.79534 0.59655 0.61114 0.0
H1723 H 0.73889 0.70146 0.65853 0.0
H1724 H 0.71938 0.69685 0.68848 0.0
H1725 H 0.69269 0.69263 0.66128 0.0
H1726 H 0.67213 0.63138 0.67561 0.0
H1727 H 0.69864 0.63543 0.70293 0.0
H1728 H 0.70423 0.59831 0.68283 0.0
H1729 H 0.83222 0.60191 0.64869 0.0
H1730 H 0.86005 0.61186 0.68872 0.0
H1731 H 0.76348 0.65737 0.71613 0.0
C1732 C 0.70209 0.63527 0.62313 0.0
C1733 C 0.71069 0.62256 0.59925 0.0
C1734 C 0.74458 0.60829 0.59561 0.0
C1735 C 0.76953 0.60712 0.61459 0.0
C1736 C 0.76077 0.62044 0.63761 0.0
C1737 C 0.72787 0.63405 0.64217 0.0
C1738 C 0.72631 0.64738 0.66875 0.0
C1739 C 0.71887 0.68694 0.66929 0.0
C1740 C 0.69868 0.62691 0.68341 0.0
C1741 C 0.76342 0.63941 0.67815 0.0
C1742 C 0.78258 0.62378 0.65966 0.0
C1743 C 0.81739 0.61407 0.6633 0.0
C1744 C 0.83312 0.62004 0.68633 0.0
C1745 C 0.81454 0.63577 0.70606 0.0
C1746 C 0.77891 0.64566 0.70165 0.0
H1747 H 0.12805 0.94375 0.86795 0.0
H1748 H 0.22333 0.98461 0.83579 0.0
H1749 H 0.2294 0.02627 0.87043 0.0
H1750 H 0.09392 0.02283 0.8929 0.0
H1751 H 0.07889 1.00387 0.92134 0.0
H1752 H 0.08217 0.97709 0.89418 0.0
H1753 H 0.12212 0.93377 0.91751 0.0
H1754 H 0.11932 0.96036 0.94482 0.0
H1755 H 0.16146 0.9496 0.93208 0.0
H1756 H 0.22309 0.06653 0.90763 0.0
H1757 H 0.20904 0.09781 0.94589 0.0
H1758 H 0.11986 0.02907 0.95713 0.0
C1759 C 0.15037 0.96124 0.86839 0.0
C1760 C 0.17533 0.9607 0.849 0.0
C1761 C 0.20411 0.98411 0.8504 0.0
C1762 C 0.20764 1.00808 0.87003 0.0
C1763 C 0.1826 1.00816 0.88875 0.0
C1764 C 0.15491 0.98481 0.88841 0.0
C1765 C 0.13251 0.98959 0.91145 0.0
C1766 C 0.09462 0.9989 0.90455 0.0
C1767 C 0.13392 0.95636 0.92742 0.0
C1768 C 0.15088 0.02031 0.92425 0.0
C1769 C 0.17978 0.03045 0.91074 0.0
C1770 C 0.20065 0.05851 0.91836 0.0
C1771 C 0.19222 0.0764 0.94027 0.0
C1772 C 0.16305 0.0666 0.95496 0.0
C1773 C 0.14217 0.03784 0.94656 0.0
H1774 H 0.82669 0.4611 1.11261 0.0
H1775 H 0.83267 0.35022 1.09532 0.0
H1776 H 0.79784 0.33648 1.13188 0.0
H1777 H 0.8302 0.45037 0.18057 0.0
H1778 H 0.79894 0.48454 0.18683 0.0
H1779 H 0.82607 0.48694 0.15981 0.0
H1780 H 0.77107 0.49231 1.13248 0.0
H1781 H 0.74375 0.49009 0.15939 0.0
H1782 H 0.73716 0.45954 1.13453 0.0
H1783 H 0.76299 0.33289 0.17026 0.0
H1784 H 0.72766 0.34029 0.20783 0.0
H1785 H 0.73839 0.45311 0.20168 0.0
C1786 C 0.82132 0.43392 1.11689 0.0
C1787 C 0.83336 0.40666 1.10092 0.0
C1788 C 0.82447 0.37163 1.10704 0.0
C1789 C 0.80447 0.36346 1.12791 0.0
C1790 C 0.79276 0.39049 1.143 0.0
C1791 C 0.80067 0.42512 1.13792 0.0
C1792 C 0.78333 0.44875 0.15727 0.0
C1793 C 0.81129 0.46884 0.17199 0.0
C1794 C 0.75728 0.47417 1.14519 0.0
C1795 C 0.76435 0.42187 0.17361 0.0
C1796 C 0.77079 0.38846 0.16501 0.0
C1797 C 0.75759 0.35896 0.17709 0.0
C1798 C 0.73746 0.36339 0.19853 0.0
C1799 C 0.72956 0.3971 0.2078 0.0
C1800 C 0.74326 0.42687 0.19493 0.0
H1801 H 0.42802 0.98647 0.44538 0.0
H1802 H 0.31719 0.97491 0.46066 0.0
H1803 H 0.30311 1.01285 0.42553 0.0
H1804 H 0.42838 0.07542 0.42172 0.0
H1805 H 0.45753 0.06672 0.39645 0.0
H1806 H 0.46 0.04048 0.42394 0.0
H1807 H 0.45133 0.98436 0.39789 0.0
H1808 H 0.4487 1.01055 0.37037 0.0
H1809 H 0.41367 0.98084 0.37801 0.0
H1810 H 0.3002 0.05607 0.39013 0.0
H1811 H 0.30817 0.09168 0.3527 0.0
H1812 H 0.41968 0.07032 0.35477 0.0
C1813 C 0.40083 0.99211 0.44142 0.0
C1814 C 0.37378 0.97797 0.45663 0.0
C1815 C 0.33859 0.98545 0.44992 0.0
C1816 C 0.3302 1.00715 0.42981 0.0
C1817 C 0.35711 0.021 0.41552 0.0
C1818 C 0.39173 1.01294 0.42048 0.0
C1819 C 0.41504 0.02864 0.40033 0.0
C1820 C 0.44183 0.05434 0.41128 0.0
C1821 C 0.43328 0.99936 0.38579 0.0
C1822 C 0.38833 0.04788 0.38414 0.0
C1823 C 0.3551 0.04335 0.39353 0.0
C1824 C 0.32613 0.05935 0.38249 0.0
C1825 C 0.33098 0.07989 0.36118 0.0
C1826 C 0.36453 0.08426 0.35042 0.0
C1827 C 0.3936 0.06778 0.3623 0.0
H1828 H 0.31127 0.46635 0.69647 0.0
H1829 H 0.34355 0.35766 0.70198 0.0
H1830 H 0.30983 0.34374 0.66464 0.0
H1831 H 0.2221 0.44689 0.67595 0.0
H1832 H 0.21885 0.4833 0.65498 0.0
H1833 H 0.24693 0.48629 0.68158 0.0
H1834 H 0.29934 0.50126 0.65367 0.0
H1835 H 0.27151 0.49829 0.62695 0.0
H1836 H 0.3107 0.47215 0.62884 0.0
H1837 H 0.27346 0.34022 0.62694 0.0
H1838 H 0.23508 0.34666 0.59099 0.0
H1839 H 0.22073 0.45684 0.60814 0.0
C1840 C 0.31165 0.43976 0.68952 0.0
C1841 C 0.33089 0.41312 0.70224 0.0
C1842 C 0.32959 0.37858 0.69275 0.0
C1843 C 0.31034 0.37038 0.67144 0.0
C1844 C 0.2915 0.39677 0.65955 0.0
C1845 C 0.29166 0.43082 0.66818 0.0
C1846 C 0.26761 0.45348 0.65193 0.0
C1847 C 0.23706 0.46838 0.66701 0.0
C1848 C 0.28854 0.48305 0.63961 0.0
C1849 C 0.25437 0.42679 0.63285 0.0
C1850 C 0.26887 0.39437 0.63782 0.0
C1851 C 0.26179 0.36543 0.62299 0.0
C1852 C 0.23971 0.3694 0.60246 0.0
C1853 C 0.22404 0.40202 0.59648 0.0
C1854 C 0.23146 0.43123 0.61223 0.0
H1855 H 0.86699 0.03176 0.46665 0.0
H1856 H 0.87806 0.13642 0.43642 0.0
H1857 H 0.88332 0.1113 0.39489 0.0
H1858 H 0.92666 0.98736 0.42576 0.0
H1859 H 0.90038 0.94842 0.42209 0.0
H1860 H 0.8972 0.97399 0.44985 0.0
H1861 H 0.83055 0.98009 0.44341 0.0
H1862 H 0.83337 0.95451 0.41563 0.0
H1863 H 0.81407 0.99759 0.41488 0.0
H1864 H 0.89082 0.07553 0.35656 0.0
H1865 H 0.89516 0.03228 0.32337 0.0
H1866 H 0.87524 0.94847 0.37549 0.0
C1867 C 0.87058 0.04941 0.45128 0.0
C1868 C 0.87248 0.08648 0.45523 0.0
C1869 C 0.87664 0.10823 0.43432 0.0
C1870 C 0.87971 0.09408 0.41048 0.0
C1871 C 0.87806 0.05777 0.40725 0.0
C1872 C 0.87304 0.03559 0.42698 0.0
C1873 C 0.87131 0.99747 0.41789 0.0
C1874 C 0.90064 0.97551 0.4296 0.0
C1875 C 0.83518 0.98147 0.42328 0.0
C1876 C 0.87703 1.00173 0.39011 0.0
C1877 C 0.88099 0.03691 0.38465 0.0
C1878 C 0.88764 0.04797 0.3607 0.0
C1879 C 0.89035 0.02287 0.34183 0.0
C1880 C 0.88606 0.98641 0.34634 0.0
C1881 C 0.87888 0.97589 0.37109 0.0
H1882 H 0.22665 0.6746 0.20083 0.0
H1883 H 0.19181 0.5665 0.1967 0.0
H1884 H 0.22513 0.55875 0.15833 0.0
H1885 H 0.22044 0.69161 1.13504 0.0
H1886 H 0.25873 0.71923 1.13391 0.0
H1887 H 0.23343 0.71639 0.16176 0.0
H1888 H 0.28867 0.698 0.18604 0.0
H1889 H 0.31432 0.701 0.15835 0.0
H1890 H 0.31382 0.66084 0.17579 0.0
H1891 H 0.26669 0.56084 1.12214 0.0
H1892 H 0.30606 0.57456 1.08768 0.0
H1893 H 0.30871 0.68357 1.1099 0.0
C1894 C 0.22581 0.64937 0.19175 0.0
C1895 C 0.20612 0.62119 0.20205 0.0
C1896 C 0.20607 0.58869 0.18935 0.0
C1897 C 0.22525 0.58393 0.16749 0.0
C1898 C 0.24426 0.61205 0.15789 0.0
C1899 C 0.24427 0.64435 0.16934 0.0
C1900 C 0.26608 0.67045 0.15441 0.0
C1901 C 0.24331 0.70125 1.14576 0.0
C1902 C 0.29759 0.68335 0.16955 0.0
C1903 C 0.2781 0.64791 1.13271 0.0
C1904 C 0.26581 0.61404 1.13562 0.0
C1905 C 0.27557 0.5875 1.11941 0.0
C1906 C 0.29791 0.59564 1.09967 0.0
C1907 C 0.3096 0.63035 1.09516 0.0
C1908 C 0.2995 0.65694 1.11217 0.0
H1909 H 0.66585 1.01004 0.96669 0.0
H1910 H 0.665 0.90596 0.93459 0.0
H1911 H 0.66141 0.93214 0.89319 0.0
H1912 H 0.60673 0.05149 0.9242 0.0
H1913 H 0.6304 0.0923 0.9224 0.0
H1914 H 0.63316 0.06588 0.94978 0.0
H1915 H 0.70051 0.06467 0.94623 0.0
H1916 H 0.69814 0.09116 0.91885 0.0
H1917 H 0.72048 0.04958 0.91818 0.0
H1918 H 0.65397 0.96906 0.85513 0.0
H1919 H 0.64854 1.01365 0.82272 0.0
H1920 H 0.65893 0.09597 0.87728 0.0
C1921 C 0.6648 0.99273 0.95094 0.0
C1922 C 0.6652 0.95556 0.95422 0.0
C1923 C 0.6645 0.93423 0.9329 0.0
C1924 C 0.66243 0.94898 0.90917 0.0
C1925 C 0.66171 0.98544 0.90661 0.0
C1926 C 0.66346 1.00716 0.92686 0.0
C1927 C 0.66322 0.04561 0.91864 0.0
C1928 C 0.63149 0.06496 0.9294 0.0
C1929 C 0.69763 0.06383 0.9259 0.0
C1930 C 0.66009 0.04209 0.89066 0.0
C1931 C 0.65909 1.00698 0.88433 0.0
C1932 C 0.65488 0.99657 0.85994 0.0
C1933 C 0.65151 0.02232 0.84157 0.0
C1934 C 0.65282 0.05868 0.8471 0.0
C1935 C 0.65768 0.06857 0.87219 0.0
loop_
_geom_bond_atom_site_label_1
_geom_bond_atom_site_label_2
_geom_bond_distance
_geom_bond_site_symmetry_2
_ccdc_geom_bond_type
Eu0 C9 2.828 . S
Eu0 O11 2.392 . S
Eu0 O13 2.418 . S
Eu0 O18 2.373 . S
Eu0 O21 2.488 . S
Eu0 O22 2.471 . S
Eu0 O23 2.349 . S
Eu1 O10 2.373 . S
Eu1 O14 2.488 . S
Eu1 O15 2.471 . S
Eu1 O16 2.349 . S
Eu1 O19 2.392 . S
Eu1 O20 2.418 . S
Eu1 C30 2.828 . S
C2 O20 1.244 . S
C2 O23 1.265 . S
C3 C4 1.379 . S
C3 C7 1.373 . S
C3 C9 1.505 . S
C4 C3 1.379 . S
C4 C6 1.369 . S
C4 H32 0.930 . S
C5 C7 1.383 . S
C5 C8 1.382 . S
C5 H33 0.930 . S
C6 C4 1.369 . S
C6 C8 1.392 . S
C6 H34 0.930 . S
C7 C3 1.373 . S
C7 C5 1.383 . S
C7 H35 0.931 . S
C8 C5 1.382 . S
C8 C6 1.392 . S
C9 Eu0 2.828 . S
C9 C3 1.505 . S
C9 O21 1.249 . S
C9 O22 1.244 . S
O10 Eu1 2.373 . S
O10 C12 1.258 . S
O11 Eu0 2.392 . S
O11 C12 1.242 . S
C12 O10 1.258 . S
C12 O11 1.242 . S
O13 Eu0 2.418 . S
O13 C17 1.244 . S
O14 Eu1 2.488 . S
O14 C30 1.249 . S
O15 Eu1 2.471 . S
O15 C30 1.244 . S
O16 Eu1 2.349 . S
O16 C17 1.265 . S
C17 O13 1.244 . S
C17 O16 1.265 . S
O18 Eu0 2.373 . S
O18 C31 1.258 . S
O19 Eu1 2.392 . S
O19 C31 1.242 . S
O20 Eu1 2.418 . S
O20 C2 1.244 . S
O21 Eu0 2.488 . S
O21 C9 1.249 . S
O22 Eu0 2.471 . S
O22 C9 1.244 . S
O23 Eu0 2.349 . S
O23 C2 1.265 . S
C24 C25 1.379 . S
C24 C28 1.373 . S
C24 C30 1.505 . S
C25 C24 1.379 . S
C25 C27 1.369 . S
C25 H36 0.930 . S
C26 C28 1.383 1_565 S
C26 C29 1.382 1_565 S
C26 H37 0.930 . S
C27 C25 1.369 . S
C27 C29 1.392 . S
C27 H38 0.930 . S
C28 C24 1.373 . S
C28 C26 1.383 1_545 S
C28 H39 0.931 1_545 S
C29 C26 1.382 1_545 S
C29 C27 1.392 . S
C30 Eu1 2.828 . S
C30 O14 1.249 . S
C30 O15 1.244 . S
C30 C24 1.505 . S
C31 O18 1.258 . S
C31 O19 1.242 . S
H32 C4 0.930 . S
H33 C5 0.930 . S
H34 C6 0.930 . S
H35 C7 0.931 . S
H36 C25 0.930 . S
H37 C26 0.930 . S
H38 C27 0.930 . S
H39 C28 0.931 1_565 S
Eu40 C49 2.828 . S
Eu40 O51 2.392 . S
Eu40 O53 2.418 . S
Eu40 O58 2.373 . S
Eu40 O61 2.488 . S
Eu40 O62 2.471 . S
Eu40 O63 2.349 . S
Eu41 O50 2.373 . S
Eu41 O54 2.488 . S
Eu41 O55 2.471 . S
Eu41 O56 2.349 . S
Eu41 O59 2.392 . S
Eu41 O60 2.418 . S
Eu41 C70 2.828 . S
C42 O60 1.244 . S
C42 O63 1.265 . S
C43 C44 1.379 . S
C43 C47 1.373 . S
C43 C49 1.505 . S
C44 C43 1.379 . S
C44 C46 1.369 . S
C44 H72 0.930 . S
C45 C47 1.383 . S
C45 C48 1.382 . S
C45 H73 0.930 . S
C46 C44 1.369 . S
C46 C48 1.392 . S
C46 H74 0.930 . S
C47 C43 1.373 . S
C47 C45 1.383 . S
C47 H75 0.931 . S
C48 C45 1.382 . S
C48 C46 1.392 . S
C49 Eu40 2.828 . S
C49 C43 1.505 . S
C49 O61 1.249 . S
C49 O62 1.244 . S
O50 Eu41 2.373 . S
O50 C52 1.258 . S
O51 Eu40 2.392 . S
O51 C52 1.242 . S
C52 O50 1.258 . S
C52 O51 1.242 . S
O53 Eu40 2.418 . S
O53 C57 1.244 . S
O54 Eu41 2.488 . S
O54 C70 1.249 . S
O55 Eu41 2.471 . S
O55 C70 1.244 . S
O56 Eu41 2.349 . S
O56 C57 1.265 . S
C57 O53 1.244 . S
C57 O56 1.265 . S
O58 Eu40 2.373 . S
O58 C71 1.258 . S
O59 Eu41 2.392 . S
O59 C71 1.242 . S
O60 Eu41 2.418 . S
O60 C42 1.244 . S
O61 Eu40 2.488 . S
O61 C49 1.249 . S
O62 Eu40 2.471 . S
O62 C49 1.244 . S
O63 Eu40 2.349 . S
O63 C42 1.265 . S
C64 C65 1.379 . S
C64 C68 1.373 . S
C64 C70 1.505 . S
C65 C64 1.379 . S
C65 C67 1.369 . S
C65 H76 0.930 . S
C66 C68 1.383 . S
C66 C69 1.382 . S
C66 H77 0.930 . S
C67 C65 1.369 . S
C67 C69 1.392 . S
C67 H78 0.930 . S
C68 C64 1.373 . S
C68 C66 1.383 . S
C68 H79 0.931 . S
C69 C66 1.382 . S
C69 C67 1.392 . S
C70 Eu41 2.828 . S
C70 O54 1.249 . S
C70 O55 1.244 . S
C70 C64 1.505 . S
C71 O58 1.258 . S
C71 O59 1.242 . S
H72 C44 0.930 . S
H73 C45 0.930 . S
H74 C46 0.930 . S
H75 C47 0.931 . S
H76 C65 0.930 . S
H77 C66 0.930 . S
H78 C67 0.930 . S
H79 C68 0.931 . S
Eu80 C89 2.828 . S
Eu80 O91 2.392 . S
Eu80 O93 2.418 . S
Eu80 O98 2.373 . S
Eu80 O101 2.488 . S
Eu80 O102 2.471 . S
Eu80 O103 2.349 . S
Eu81 O90 2.373 . S
Eu81 O94 2.488 . S
Eu81 O95 2.471 . S
Eu81 O96 2.349 . S
Eu81 O99 2.392 . S
Eu81 O100 2.418 . S
Eu81 C110 2.828 . S
C82 O100 1.244 . S
C82 O103 1.265 . S
C83 C84 1.379 . S
C83 C87 1.373 . S
C83 C89 1.505 . S
C84 C83 1.379 . S
C84 C86 1.369 . S
C84 H112 0.930 . S
C85 C87 1.383 . S
C85 C88 1.382 . S
C85 H113 0.930 . S
C86 C84 1.369 . S
C86 C88 1.392 . S
C86 H114 0.930 . S
C87 C83 1.373 . S
C87 C85 1.383 . S
C87 H115 0.931 . S
C88 C85 1.382 . S
C88 C86 1.392 . S
C89 Eu80 2.828 . S
C89 C83 1.505 . S
C89 O101 1.249 . S
C89 O102 1.244 . S
O90 Eu81 2.373 . S
O90 C92 1.258 . S
O91 Eu80 2.392 . S
O91 C92 1.242 . S
C92 O90 1.258 . S
C92 O91 1.242 . S
O93 Eu80 2.418 . S
O93 C97 1.244 . S
O94 Eu81 2.488 . S
O94 C110 1.249 . S
O95 Eu81 2.471 . S
O95 C110 1.244 . S
O96 Eu81 2.349 . S
O96 C97 1.265 . S
C97 O93 1.244 . S
C97 O96 1.265 . S
O98 Eu80 2.373 . S
O98 C111 1.258 . S
O99 Eu81 2.392 . S
O99 C111 1.242 . S
O100 Eu81 2.418 . S
O100 C82 1.244 . S
O101 Eu80 2.488 . S
O101 C89 1.249 . S
O102 Eu80 2.471 . S
O102 C89 1.244 . S
O103 Eu80 2.349 . S
O103 C82 1.265 . S
C104 C105 1.379 . S
C104 C108 1.373 . S
C104 C110 1.505 . S
C105 C104 1.379 . S
C105 C107 1.369 . S
C105 H116 0.930 . S
C106 C108 1.383 1_545 S
C106 C109 1.382 1_545 S
C106 H117 0.930 . S
C107 C105 1.369 . S
C107 C109 1.392 . S
C107 H118 0.930 . S
C108 C104 1.373 . S
C108 C106 1.383 1_565 S
C108 H119 0.931 1_565 S
C109 C106 1.382 1_565 S
C109 C107 1.392 . S
C110 Eu81 2.828 . S
C110 O94 1.249 . S
C110 O95 1.244 . S
C110 C104 1.505 . S
C111 O98 1.258 . S
C111 O99 1.242 . S
H112 C84 0.930 . S
H113 C85 0.930 . S
H114 C86 0.930 . S
H115 C87 0.931 . S
H116 C105 0.930 . S
H117 C106 0.930 . S
H118 C107 0.930 . S
H119 C108 0.931 1_545 S
Eu120 C129 2.828 . S
Eu120 O131 2.392 . S
Eu120 O133 2.418 . S
Eu120 O138 2.373 . S
Eu120 O141 2.488 . S
Eu120 O142 2.471 . S
Eu120 O143 2.349 . S
Eu121 O130 2.373 . S
Eu121 O134 2.488 . S
Eu121 O135 2.471 . S
Eu121 O136 2.349 . S
Eu121 O139 2.392 . S
Eu121 O140 2.418 . S
Eu121 C150 2.828 . S
C122 O140 1.244 . S
C122 O143 1.265 . S
C123 C124 1.379 1_455 S
C123 C127 1.373 . S
C123 C129 1.505 1_455 S
C124 C123 1.379 1_655 S
C124 C126 1.369 1_655 S
C124 H152 0.930 . S
C125 C127 1.383 . S
C125 C128 1.382 . S
C125 H153 0.930 . S
C126 C124 1.369 1_455 S
C126 C128 1.392 . S
C126 H154 0.930 1_455 S
C127 C123 1.373 . S
C127 C125 1.383 . S
C127 H155 0.931 . S
C128 C125 1.382 . S
C128 C126 1.392 . S
C129 Eu120 2.828 . S
C129 C123 1.505 1_655 S
C129 O141 1.249 . S
C129 O142 1.244 . S
O130 Eu121 2.373 . S
O130 C132 1.258 . S
O131 Eu120 2.392 . S
O131 C132 1.242 . S
C132 O130 1.258 . S
C132 O131 1.242 . S
O133 Eu120 2.418 . S
O133 C137 1.244 . S
O134 Eu121 2.488 . S
O134 C150 1.249 . S
O135 Eu121 2.471 . S
O135 C150 1.244 . S
O136 Eu121 2.349 . S
O136 C137 1.265 . S
C137 O133 1.244 . S
C137 O136 1.265 . S
O138 Eu120 2.373 . S
O138 C151 1.258 . S
O139 Eu121 2.392 . S
O139 C151 1.242 . S
O140 Eu121 2.418 . S
O140 C122 1.244 . S
O141 Eu120 2.488 . S
O141 C129 1.249 . S
O142 Eu120 2.471 . S
O142 C129 1.244 . S
O143 Eu120 2.349 . S
O143 C122 1.265 . S
C144 C145 1.379 . S
C144 C148 1.373 . S
C144 C150 1.505 . S
C145 C144 1.379 . S
C145 C147 1.369 . S
C145 H156 0.930 . S
C146 C148 1.383 . S
C146 C149 1.382 . S
C146 H157 0.930 . S
C147 C145 1.369 . S
C147 C149 1.392 . S
C147 H158 0.930 . S
C148 C144 1.373 . S
C148 C146 1.383 . S
C148 H159 0.931 . S
C149 C146 1.382 . S
C149 C147 1.392 . S
C150 Eu121 2.828 . S
C150 O134 1.249 . S
C150 O135 1.244 . S
C150 C144 1.505 . S
C151 O138 1.258 . S
C151 O139 1.242 . S
H152 C124 0.930 . S
H153 C125 0.930 . S
H154 C126 0.930 1_655 S
H155 C127 0.931 . S
H156 C145 0.930 . S
H157 C146 0.930 . S
H158 C147 0.930 . S
H159 C148 0.931 . S
Eu160 C169 2.828 . S
Eu160 O171 2.392 . S
Eu160 O173 2.418 . S
Eu160 O178 2.373 . S
Eu160 O181 2.488 . S
Eu160 O182 2.471 . S
Eu160 O183 2.349 . S
Eu161 O170 2.373 . S
Eu161 O174 2.488 . S
Eu161 O175 2.471 . S
Eu161 O176 2.349 . S
Eu161 O179 2.392 . S
Eu161 O180 2.418 . S
Eu161 C190 2.828 . S
C162 O180 1.244 . S
C162 O183 1.265 . S
C163 C164 1.379 . S
C163 C167 1.373 . S
C163 C169 1.505 . S
C164 C163 1.379 . S
C164 C166 1.369 . S
C164 H192 0.930 . S
C165 C167 1.383 1_545 S
C165 C168 1.382 1_545 S
C165 H193 0.930 . S
C166 C164 1.369 . S
C166 C168 1.392 . S
C166 H194 0.930 . S
C167 C163 1.373 . S
C167 C165 1.383 1_565 S
C167 H195 0.931 1_565 S
C168 C165 1.382 1_565 S
C168 C166 1.392 . S
C169 Eu160 2.828 . S
C169 C163 1.505 . S
C169 O181 1.249 . S
C169 O182 1.244 . S
O170 Eu161 2.373 . S
O170 C172 1.258 . S
O171 Eu160 2.392 . S
O171 C172 1.242 . S
C172 O170 1.258 . S
C172 O171 1.242 . S
O173 Eu160 2.418 . S
O173 C177 1.244 . S
O174 Eu161 2.488 . S
O174 C190 1.249 . S
O175 Eu161 2.471 . S
O175 C190 1.244 . S
O176 Eu161 2.349 . S
O176 C177 1.265 . S
C177 O173 1.244 . S
C177 O176 1.265 . S
O178 Eu160 2.373 . S
O178 C191 1.258 . S
O179 Eu161 2.392 . S
O179 C191 1.242 . S
O180 Eu161 2.418 . S
O180 C162 1.244 . S
O181 Eu160 2.488 . S
O181 C169 1.249 . S
O182 Eu160 2.471 . S
O182 C169 1.244 . S
O183 Eu160 2.349 . S
O183 C162 1.265 . S
C184 C185 1.379 . S
C184 C188 1.373 . S
C184 C190 1.505 . S
C185 C184 1.379 . S
C185 C187 1.369 . S
C185 H196 0.930 . S
C186 C188 1.383 . S
C186 C189 1.382 . S
C186 H197 0.930 . S
C187 C185 1.369 . S
C187 C189 1.392 . S
C187 H198 0.930 . S
C188 C184 1.373 . S
C188 C186 1.383 . S
C188 H199 0.931 . S
C189 C186 1.382 . S
C189 C187 1.392 . S
C190 Eu161 2.828 . S
C190 O174 1.249 . S
C190 O175 1.244 . S
C190 C184 1.505 . S
C191 O178 1.258 . S
C191 O179 1.242 . S
H192 C164 0.930 . S
H193 C165 0.930 . S
H194 C166 0.930 . S
H195 C167 0.931 1_545 S
H196 C185 0.930 . S
H197 C186 0.930 . S
H198 C187 0.930 . S
H199 C188 0.931 . S
Eu200 C209 2.828 . S
Eu200 O211 2.392 . S
Eu200 O213 2.418 . S
Eu200 O218 2.373 . S
Eu200 O221 2.488 . S
Eu200 O222 2.471 . S
Eu200 O223 2.349 . S
Eu201 O210 2.373 . S
Eu201 O214 2.488 . S
Eu201 O215 2.471 . S
Eu201 O216 2.349 . S
Eu201 O219 2.392 . S
Eu201 O220 2.418 . S
Eu201 C230 2.828 . S
C202 O220 1.244 . S
C202 O223 1.265 . S
C203 C204 1.379 . S
C203 C207 1.373 . S
C203 C209 1.505 . S
C204 C203 1.379 . S
C204 C206 1.369 . S
C204 H232 0.930 . S
C205 C207 1.383 . S
C205 C208 1.382 . S
C205 H233 0.930 . S
C206 C204 1.369 . S
C206 C208 1.392 . S
C206 H234 0.930 . S
C207 C203 1.373 . S
C207 C205 1.383 . S
C207 H235 0.931 . S
C208 C205 1.382 . S
C208 C206 1.392 . S
C209 Eu200 2.828 . S
C209 C203 1.505 . S
C209 O221 1.249 . S
C209 O222 1.244 . S
O210 Eu201 2.373 . S
O210 C212 1.258 . S
O211 Eu200 2.392 . S
O211 C212 1.242 . S
C212 O210 1.258 . S
C212 O211 1.242 . S
O213 Eu200 2.418 . S
O213 C217 1.244 . S
O214 Eu201 2.488 . S
O214 C230 1.249 . S
O215 Eu201 2.471 . S
O215 C230 1.244 . S
O216 Eu201 2.349 . S
O216 C217 1.265 . S
C217 O213 1.244 . S
C217 O216 1.265 . S
O218 Eu200 2.373 . S
O218 C231 1.258 . S
O219 Eu201 2.392 . S
O219 C231 1.242 . S
O220 Eu201 2.418 . S
O220 C202 1.244 . S
O221 Eu200 2.488 . S
O221 C209 1.249 . S
O222 Eu200 2.471 . S
O222 C209 1.244 . S
O223 Eu200 2.349 . S
O223 C202 1.265 . S
C224 C225 1.379 . S
C224 C228 1.373 . S
C224 C230 1.505 . S
C225 C224 1.379 . S
C225 C227 1.369 . S
C225 H236 0.930 . S
C226 C228 1.383 . S
C226 C229 1.382 . S
C226 H237 0.930 . S
C227 C225 1.369 . S
C227 C229 1.392 . S
C227 H238 0.930 . S
C228 C224 1.373 . S
C228 C226 1.383 . S
C228 H239 0.931 . S
C229 C226 1.382 . S
C229 C227 1.392 . S
C230 Eu201 2.828 . S
C230 O214 1.249 . S
C230 O215 1.244 . S
C230 C224 1.505 . S
C231 O218 1.258 . S
C231 O219 1.242 . S
H232 C204 0.930 . S
H233 C205 0.930 . S
H234 C206 0.930 . S
H235 C207 0.931 . S
H236 C225 0.930 . S
H237 C226 0.930 . S
H238 C227 0.930 . S
H239 C228 0.931 . S
Eu240 C249 2.828 . S
Eu240 O251 2.392 . S
Eu240 O253 2.418 . S
Eu240 O258 2.373 . S
Eu240 O261 2.488 . S
Eu240 O262 2.471 . S
Eu240 O263 2.349 . S
Eu241 O250 2.373 . S
Eu241 O254 2.488 . S
Eu241 O255 2.471 . S
Eu241 O256 2.349 . S
Eu241 O259 2.392 . S
Eu241 O260 2.418 . S
Eu241 C270 2.828 . S
C242 O260 1.244 . S
C242 O263 1.265 . S
C243 C244 1.379 . S
C243 C247 1.373 . S
C243 C249 1.505 . S
C244 C243 1.379 . S
C244 C246 1.369 . S
C244 H272 0.930 . S
C245 C247 1.383 1_565 S
C245 C248 1.382 1_565 S
C245 H273 0.930 . S
C246 C244 1.369 . S
C246 C248 1.392 . S
C246 H274 0.930 . S
C247 C243 1.373 . S
C247 C245 1.383 1_545 S
C247 H275 0.931 1_545 S
C248 C245 1.382 1_545 S
C248 C246 1.392 . S
C249 Eu240 2.828 . S
C249 C243 1.505 . S
C249 O261 1.249 . S
C249 O262 1.244 . S
O250 Eu241 2.373 . S
O250 C252 1.258 . S
O251 Eu240 2.392 . S
O251 C252 1.242 . S
C252 O250 1.258 . S
C252 O251 1.242 . S
O253 Eu240 2.418 . S
O253 C257 1.244 . S
O254 Eu241 2.488 . S
O254 C270 1.249 . S
O255 Eu241 2.471 . S
O255 C270 1.244 . S
O256 Eu241 2.349 . S
O256 C257 1.265 . S
C257 O253 1.244 . S
C257 O256 1.265 . S
O258 Eu240 2.373 . S
O258 C271 1.258 . S
O259 Eu241 2.392 . S
O259 C271 1.242 . S
O260 Eu241 2.418 . S
O260 C242 1.244 . S
O261 Eu240 2.488 . S
O261 C249 1.249 . S
O262 Eu240 2.471 . S
O262 C249 1.244 . S
O263 Eu240 2.349 . S
O263 C242 1.265 . S
C264 C265 1.379 . S
C264 C268 1.373 . S
C264 C270 1.505 . S
C265 C264 1.379 . S
C265 C267 1.369 . S
C265 H276 0.930 . S
C266 C268 1.383 . S
C266 C269 1.382 . S
C266 H277 0.930 . S
C267 C265 1.369 . S
C267 C269 1.392 . S
C267 H278 0.930 . S
C268 C264 1.373 . S
C268 C266 1.383 . S
C268 H279 0.931 . S
C269 C266 1.382 . S
C269 C267 1.392 . S
C270 Eu241 2.828 . S
C270 O254 1.249 . S
C270 O255 1.244 . S
C270 C264 1.505 . S
C271 O258 1.258 . S
C271 O259 1.242 . S
H272 C244 0.930 . S
H273 C245 0.930 . S
H274 C246 0.930 . S
H275 C247 0.931 1_565 S
H276 C265 0.930 . S
H277 C266 0.930 . S
H278 C267 0.930 . S
H279 C268 0.931 . S
Eu280 C289 2.828 . S
Eu280 O291 2.392 . S
Eu280 O293 2.418 . S
Eu280 O298 2.373 . S
Eu280 O301 2.488 . S
Eu280 O302 2.471 . S
Eu280 O303 2.349 . S
Eu281 O290 2.373 . S
Eu281 O294 2.488 . S
Eu281 O295 2.471 . S
Eu281 O296 2.349 . S
Eu281 O299 2.392 . S
Eu281 O300 2.418 . S
Eu281 C310 2.828 . S
C282 O300 1.244 . S
C282 O303 1.265 . S
C283 C284 1.379 . S
C283 C287 1.373 . S
C283 C289 1.505 . S
C284 C283 1.379 . S
C284 C286 1.369 . S
C284 H312 0.930 . S
C285 C287 1.383 . S
C285 C288 1.382 . S
C285 H313 0.930 . S
C286 C284 1.369 . S
C286 C288 1.392 . S
C286 H314 0.930 . S
C287 C283 1.373 . S
C287 C285 1.383 . S
C287 H315 0.931 . S
C288 C285 1.382 . S
C288 C286 1.392 . S
C289 Eu280 2.828 . S
C289 C283 1.505 . S
C289 O301 1.249 . S
C289 O302 1.244 . S
O290 Eu281 2.373 . S
O290 C292 1.258 . S
O291 Eu280 2.392 . S
O291 C292 1.242 . S
C292 O290 1.258 . S
C292 O291 1.242 . S
O293 Eu280 2.418 . S
O293 C297 1.244 . S
O294 Eu281 2.488 . S
O294 C310 1.249 . S
O295 Eu281 2.471 . S
O295 C310 1.244 . S
O296 Eu281 2.349 . S
O296 C297 1.265 . S
C297 O293 1.244 . S
C297 O296 1.265 . S
O298 Eu280 2.373 . S
O298 C311 1.258 . S
O299 Eu281 2.392 . S
O299 C311 1.242 . S
O300 Eu281 2.418 . S
O300 C282 1.244 . S
O301 Eu280 2.488 . S
O301 C289 1.249 . S
O302 Eu280 2.471 . S
O302 C289 1.244 . S
O303 Eu280 2.349 . S
O303 C282 1.265 . S
C304 C305 1.379 1_655 S
C304 C308 1.373 . S
C304 C310 1.505 1_655 S
C305 C304 1.379 1_455 S
C305 C307 1.369 1_455 S
C305 H316 0.930 . S
C306 C308 1.383 . S
C306 C309 1.382 . S
C306 H317 0.930 . S
C307 C305 1.369 1_655 S
C307 C309 1.392 . S
C307 H318 0.930 1_655 S
C308 C304 1.373 . S
C308 C306 1.383 . S
C308 H319 0.931 . S
C309 C306 1.382 . S
C309 C307 1.392 . S
C310 Eu281 2.828 . S
C310 O294 1.249 . S
C310 O295 1.244 . S
C310 C304 1.505 1_455 S
C311 O298 1.258 . S
C311 O299 1.242 . S
H312 C284 0.930 . S
H313 C285 0.930 . S
H314 C286 0.930 . S
H315 C287 0.931 . S
H316 C305 0.930 . S
H317 C306 0.930 . S
H318 C307 0.930 1_455 S
H319 C308 0.931 . S
Eu320 C329 2.828 . S
Eu320 O331 2.392 . S
Eu320 O333 2.418 . S
Eu320 O338 2.373 . S
Eu320 O341 2.488 . S
Eu320 O342 2.471 . S
Eu320 O343 2.349 . S
Eu321 O330 2.373 . S
Eu321 O334 2.488 . S
Eu321 O335 2.471 . S
Eu321 O336 2.349 . S
Eu321 O339 2.392 . S
Eu321 O340 2.418 . S
Eu321 C350 2.828 . S
C322 O340 1.244 . S
C322 O343 1.265 . S
C323 C324 1.379 . S
C323 C327 1.373 . S
C323 C329 1.505 . S
C324 C323 1.379 . S
C324 C326 1.369 . S
C324 H352 0.930 . S
C325 C327 1.383 . S
C325 C328 1.382 . S
C325 H353 0.930 . S
C326 C324 1.369 . S
C326 C328 1.392 . S
C326 H354 0.930 . S
C327 C323 1.373 . S
C327 C325 1.383 . S
C327 H355 0.931 . S
C328 C325 1.382 . S
C328 C326 1.392 . S
C329 Eu320 2.828 . S
C329 C323 1.505 . S
C329 O341 1.249 . S
C329 O342 1.244 . S
O330 Eu321 2.373 . S
O330 C332 1.258 . S
O331 Eu320 2.392 . S
O331 C332 1.242 . S
C332 O330 1.258 . S
C332 O331 1.242 . S
O333 Eu320 2.418 . S
O333 C337 1.244 . S
O334 Eu321 2.488 . S
O334 C350 1.249 . S
O335 Eu321 2.471 . S
O335 C350 1.244 . S
O336 Eu321 2.349 . S
O336 C337 1.265 . S
C337 O333 1.244 . S
C337 O336 1.265 . S
O338 Eu320 2.373 . S
O338 C351 1.258 . S
O339 Eu321 2.392 . S
O339 C351 1.242 . S
O340 Eu321 2.418 . S
O340 C322 1.244 . S
O341 Eu320 2.488 . S
O341 C329 1.249 . S
O342 Eu320 2.471 . S
O342 C329 1.244 . S
O343 Eu320 2.349 . S
O343 C322 1.265 . S
C344 C345 1.379 . S
C344 C348 1.373 . S
C344 C350 1.505 . S
C345 C344 1.379 . S
C345 C347 1.369 . S
C345 H356 0.930 . S
C346 C348 1.383 . S
C346 C349 1.382 . S
C346 H357 0.930 . S
C347 C345 1.369 . S
C347 C349 1.392 . S
C347 H358 0.930 . S
C348 C344 1.373 . S
C348 C346 1.383 . S
C348 H359 0.931 . S
C349 C346 1.382 . S
C349 C347 1.392 . S
C350 Eu321 2.828 . S
C350 O334 1.249 . S
C350 O335 1.244 . S
C350 C344 1.505 . S
C351 O338 1.258 . S
C351 O339 1.242 . S
H352 C324 0.930 . S
H353 C325 0.930 . S
H354 C326 0.930 . S
H355 C327 0.931 . S
H356 C345 0.930 . S
H357 C346 0.930 . S
H358 C347 0.930 . S
H359 C348 0.931 . S
Eu360 C369 2.828 . S
Eu360 O371 2.392 . S
Eu360 O373 2.418 . S
Eu360 O378 2.373 . S
Eu360 O381 2.488 . S
Eu360 O382 2.471 1_545 S
Eu360 O383 2.349 . S
Eu361 O370 2.373 . S
Eu361 O374 2.488 . S
Eu361 O375 2.471 . S
Eu361 O376 2.349 . S
Eu361 O379 2.392 . S
Eu361 O380 2.418 . S
Eu361 C390 2.828 . S
C362 O380 1.244 . S
C362 O383 1.265 . S
C363 C364 1.379 1_655 S
C363 C367 1.373 . S
C363 C369 1.505 1_665 S
C364 C363 1.379 1_455 S
C364 C366 1.369 1_455 S
C364 H392 0.930 . S
C365 C367 1.383 . S
C365 C368 1.382 . S
C365 H393 0.930 . S
C366 C364 1.369 1_655 S
C366 C368 1.392 . S
C366 H394 0.930 1_655 S
C367 C363 1.373 . S
C367 C365 1.383 . S
C367 H395 0.931 1_565 S
C368 C365 1.382 . S
C368 C366 1.392 . S
C369 Eu360 2.828 . S
C369 C363 1.505 1_445 S
C369 O381 1.249 . S
C369 O382 1.244 1_545 S
O370 Eu361 2.373 . S
O370 C372 1.258 . S
O371 Eu360 2.392 . S
O371 C372 1.242 . S
C372 O370 1.258 . S
C372 O371 1.242 . S
O373 Eu360 2.418 . S
O373 C377 1.244 . S
O374 Eu361 2.488 . S
O374 C390 1.249 . S
O375 Eu361 2.471 . S
O375 C390 1.244 . S
O376 Eu361 2.349 . S
O376 C377 1.265 . S
C377 O373 1.244 . S
C377 O376 1.265 . S
O378 Eu360 2.373 . S
O378 C391 1.258 . S
O379 Eu361 2.392 . S
O379 C391 1.242 . S
O380 Eu361 2.418 . S
O380 C362 1.244 . S
O381 Eu360 2.488 . S
O381 C369 1.249 . S
O382 Eu360 2.471 1_565 S
O382 C369 1.244 1_565 S
O383 Eu360 2.349 . S
O383 C362 1.265 . S
C384 C385 1.379 . S
C384 C388 1.373 . S
C384 C390 1.505 . S
C385 C384 1.379 . S
C385 C387 1.369 . S
C385 H396 0.930 . S
C386 C388 1.383 . S
C386 C389 1.382 . S
C386 H397 0.930 . S
C387 C385 1.369 . S
C387 C389 1.392 . S
C387 H398 0.930 . S
C388 C384 1.373 . S
C388 C386 1.383 . S
C388 H399 0.931 . S
C389 C386 1.382 . S
C389 C387 1.392 . S
C390 Eu361 2.828 . S
C390 O374 1.249 . S
C390 O375 1.244 . S
C390 C384 1.505 . S
C391 O378 1.258 . S
C391 O379 1.242 . S
H392 C364 0.930 . S
H393 C365 0.930 . S
H394 C366 0.930 1_455 S
H395 C367 0.931 1_545 S
H396 C385 0.930 . S
H397 C386 0.930 . S
H398 C387 0.930 . S
H399 C388 0.931 . S
Eu400 C409 2.828 . S
Eu400 O411 2.392 . S
Eu400 O413 2.418 . S
Eu400 O418 2.373 . S
Eu400 O421 2.488 . S
Eu400 O422 2.471 . S
Eu400 O423 2.349 . S
Eu401 O410 2.373 . S
Eu401 O414 2.488 . S
Eu401 O415 2.471 . S
Eu401 O416 2.349 . S
Eu401 O419 2.392 . S
Eu401 O420 2.418 . S
Eu401 C430 2.828 . S
C402 O420 1.244 . S
C402 O423 1.265 . S
C403 C404 1.379 . S
C403 C407 1.373 . S
C403 C409 1.505 . S
C404 C403 1.379 . S
C404 C406 1.369 . S
C404 H432 0.930 . S
C405 C407 1.383 . S
C405 C408 1.382 . S
C405 H433 0.930 . S
C406 C404 1.369 . S
C406 C408 1.392 . S
C406 H434 0.930 . S
C407 C403 1.373 . S
C407 C405 1.383 . S
C407 H435 0.931 . S
C408 C405 1.382 . S
C408 C406 1.392 . S
C409 Eu400 2.828 . S
C409 C403 1.505 . S
C409 O421 1.249 . S
C409 O422 1.244 . S
O410 Eu401 2.373 . S
O410 C412 1.258 . S
O411 Eu400 2.392 . S
O411 C412 1.242 . S
C412 O410 1.258 . S
C412 O411 1.242 . S
O413 Eu400 2.418 . S
O413 C417 1.244 . S
O414 Eu401 2.488 . S
O414 C430 1.249 . S
O415 Eu401 2.471 . S
O415 C430 1.244 . S
O416 Eu401 2.349 . S
O416 C417 1.265 . S
C417 O413 1.244 . S
C417 O416 1.265 . S
O418 Eu400 2.373 . S
O418 C431 1.258 . S
O419 Eu401 2.392 . S
O419 C431 1.242 . S
O420 Eu401 2.418 . S
O420 C402 1.244 . S
O421 Eu400 2.488 . S
O421 C409 1.249 . S
O422 Eu400 2.471 . S
O422 C409 1.244 . S
O423 Eu400 2.349 . S
O423 C402 1.265 . S
C424 C425 1.379 . S
C424 C428 1.373 . S
C424 C430 1.505 . S
C425 C424 1.379 . S
C425 C427 1.369 . S
C425 H436 0.930 . S
C426 C428 1.383 . S
C426 C429 1.382 . S
C426 H437 0.930 . S
C427 C425 1.369 . S
C427 C429 1.392 . S
C427 H438 0.930 . S
C428 C424 1.373 . S
C428 C426 1.383 . S
C428 H439 0.931 . S
C429 C426 1.382 . S
C429 C427 1.392 . S
C430 Eu401 2.828 . S
C430 O414 1.249 . S
C430 O415 1.244 . S
C430 C424 1.505 . S
C431 O418 1.258 . S
C431 O419 1.242 . S
H432 C404 0.930 . S
H433 C405 0.930 . S
H434 C406 0.930 . S
H435 C407 0.931 . S
H436 C425 0.930 . S
H437 C426 0.930 . S
H438 C427 0.930 . S
H439 C428 0.931 . S
Eu440 C449 2.828 . S
Eu440 O451 2.392 . S
Eu440 O453 2.418 . S
Eu440 O458 2.373 . S
Eu440 O461 2.488 . S
Eu440 O462 2.471 1_565 S
Eu440 O463 2.349 . S
Eu441 O450 2.373 . S
Eu441 O454 2.488 . S
Eu441 O455 2.471 . S
Eu441 O456 2.349 . S
Eu441 O459 2.392 . S
Eu441 O460 2.418 . S
Eu441 C470 2.828 . S
C442 O460 1.244 . S
C442 O463 1.265 . S
C443 C444 1.379 . S
C443 C447 1.373 . S
C443 C449 1.505 1_545 S
C444 C443 1.379 . S
C444 C446 1.369 . S
C444 H472 0.930 . S
C445 C447 1.383 . S
C445 C448 1.382 . S
C445 H473 0.930 . S
C446 C444 1.369 . S
C446 C448 1.392 . S
C446 H474 0.930 . S
C447 C443 1.373 . S
C447 C445 1.383 . S
C447 H475 0.931 1_545 S
C448 C445 1.382 . S
C448 C446 1.392 . S
C449 Eu440 2.828 . S
C449 C443 1.505 1_565 S
C449 O461 1.249 . S
C449 O462 1.244 1_565 S
O450 Eu441 2.373 . S
O450 C452 1.258 . S
O451 Eu440 2.392 . S
O451 C452 1.242 . S
C452 O450 1.258 . S
C452 O451 1.242 . S
O453 Eu440 2.418 . S
O453 C457 1.244 . S
O454 Eu441 2.488 . S
O454 C470 1.249 . S
O455 Eu441 2.471 . S
O455 C470 1.244 . S
O456 Eu441 2.349 . S
O456 C457 1.265 . S
C457 O453 1.244 . S
C457 O456 1.265 . S
O458 Eu440 2.373 . S
O458 C471 1.258 . S
O459 Eu441 2.392 . S
O459 C471 1.242 . S
O460 Eu441 2.418 . S
O460 C442 1.244 . S
O461 Eu440 2.488 . S
O461 C449 1.249 . S
O462 Eu440 2.471 1_545 S
O462 C449 1.244 1_545 S
O463 Eu440 2.349 . S
O463 C442 1.265 . S
C464 C465 1.379 . S
C464 C468 1.373 . S
C464 C470 1.505 . S
C465 C464 1.379 . S
C465 C467 1.369 . S
C465 H476 0.930 . S
C466 C468 1.383 . S
C466 C469 1.382 . S
C466 H477 0.930 . S
C467 C465 1.369 . S
C467 C469 1.392 . S
C467 H478 0.930 . S
C468 C464 1.373 . S
C468 C466 1.383 . S
C468 H479 0.931 . S
C469 C466 1.382 . S
C469 C467 1.392 . S
C470 Eu441 2.828 . S
C470 O454 1.249 . S
C470 O455 1.244 . S
C470 C464 1.505 . S
C471 O458 1.258 . S
C471 O459 1.242 . S
H472 C444 0.930 . S
H473 C445 0.930 . S
H474 C446 0.930 . S
H475 C447 0.931 1_565 S
H476 C465 0.930 . S
H477 C466 0.930 . S
H478 C467 0.930 . S
H479 C468 0.931 . S
Eu480 C489 2.828 . S
Eu480 O491 2.392 . S
Eu480 O493 2.418 . S
Eu480 O498 2.373 . S
Eu480 O501 2.488 . S
Eu480 O502 2.471 . S
Eu480 O503 2.349 . S
Eu481 O490 2.373 . S
Eu481 O494 2.488 . S
Eu481 O495 2.471 . S
Eu481 O496 2.349 . S
Eu481 O499 2.392 . S
Eu481 O500 2.418 . S
Eu481 C510 2.828 . S
C482 O500 1.244 . S
C482 O503 1.265 . S
C483 C484 1.379 . S
C483 C487 1.373 . S
C483 C489 1.505 . S
C484 C483 1.379 . S
C484 C486 1.369 . S
C484 H512 0.930 . S
C485 C487 1.383 . S
C485 C488 1.382 . S
C485 H513 0.930 . S
C486 C484 1.369 . S
C486 C488 1.392 . S
C486 H514 0.930 . S
C487 C483 1.373 . S
C487 C485 1.383 . S
C487 H515 0.931 . S
C488 C485 1.382 . S
C488 C486 1.392 . S
C489 Eu480 2.828 . S
C489 C483 1.505 . S
C489 O501 1.249 . S
C489 O502 1.244 . S
O490 Eu481 2.373 . S
O490 C492 1.258 . S
O491 Eu480 2.392 . S
O491 C492 1.242 . S
C492 O490 1.258 . S
C492 O491 1.242 . S
O493 Eu480 2.418 . S
O493 C497 1.244 . S
O494 Eu481 2.488 . S
O494 C510 1.249 . S
O495 Eu481 2.471 . S
O495 C510 1.244 . S
O496 Eu481 2.349 . S
O496 C497 1.265 . S
C497 O493 1.244 . S
C497 O496 1.265 . S
O498 Eu480 2.373 . S
O498 C511 1.258 . S
O499 Eu481 2.392 . S
O499 C511 1.242 . S
O500 Eu481 2.418 . S
O500 C482 1.244 . S
O501 Eu480 2.488 . S
O501 C489 1.249 . S
O502 Eu480 2.471 . S
O502 C489 1.244 . S
O503 Eu480 2.349 . S
O503 C482 1.265 . S
C504 C505 1.379 . S
C504 C508 1.373 . S
C504 C510 1.505 . S
C505 C504 1.379 . S
C505 C507 1.369 . S
C505 H516 0.930 . S
C506 C508 1.383 . S
C506 C509 1.382 . S
C506 H517 0.930 . S
C507 C505 1.369 . S
C507 C509 1.392 . S
C507 H518 0.930 . S
C508 C504 1.373 . S
C508 C506 1.383 . S
C508 H519 0.931 . S
C509 C506 1.382 . S
C509 C507 1.392 . S
C510 Eu481 2.828 . S
C510 O494 1.249 . S
C510 O495 1.244 . S
C510 C504 1.505 . S
C511 O498 1.258 . S
C511 O499 1.242 . S
H512 C484 0.930 . S
H513 C485 0.930 . S
H514 C486 0.930 . S
H515 C487 0.931 . S
H516 C505 0.930 . S
H517 C506 0.930 . S
H518 C507 0.930 . S
H519 C508 0.931 . S
Eu520 C529 2.828 . S
Eu520 O531 2.392 . S
Eu520 O533 2.418 . S
Eu520 O538 2.373 . S
Eu520 O541 2.488 . S
Eu520 O542 2.471 . S
Eu520 O543 2.349 . S
Eu521 O530 2.373 . S
Eu521 O534 2.488 . S
Eu521 O535 2.471 1_565 S
Eu521 O536 2.349 . S
Eu521 O539 2.392 . S
Eu521 O540 2.418 . S
Eu521 C550 2.828 . S
C522 O540 1.244 . S
C522 O543 1.265 . S
C523 C524 1.379 . S
C523 C527 1.373 . S
C523 C529 1.505 . S
C524 C523 1.379 . S
C524 C526 1.369 . S
C524 H552 0.930 . S
C525 C527 1.383 . S
C525 C528 1.382 . S
C525 H553 0.930 . S
C526 C524 1.369 . S
C526 C528 1.392 . S
C526 H554 0.930 . S
C527 C523 1.373 . S
C527 C525 1.383 . S
C527 H555 0.931 . S
C528 C525 1.382 . S
C528 C526 1.392 . S
C529 Eu520 2.828 . S
C529 C523 1.505 . S
C529 O541 1.249 . S
C529 O542 1.244 . S
O530 Eu521 2.373 . S
O530 C532 1.258 . S
O531 Eu520 2.392 . S
O531 C532 1.242 . S
C532 O530 1.258 . S
C532 O531 1.242 . S
O533 Eu520 2.418 . S
O533 C537 1.244 . S
O534 Eu521 2.488 . S
O534 C550 1.249 . S
O535 Eu521 2.471 1_545 S
O535 C550 1.244 1_545 S
O536 Eu521 2.349 . S
O536 C537 1.265 . S
C537 O533 1.244 . S
C537 O536 1.265 . S
O538 Eu520 2.373 . S
O538 C551 1.258 . S
O539 Eu521 2.392 . S
O539 C551 1.242 . S
O540 Eu521 2.418 . S
O540 C522 1.244 . S
O541 Eu520 2.488 . S
O541 C529 1.249 . S
O542 Eu520 2.471 . S
O542 C529 1.244 . S
O543 Eu520 2.349 . S
O543 C522 1.265 . S
C544 C545 1.379 1_455 S
C544 C548 1.373 . S
C544 C550 1.505 1_445 S
C545 C544 1.379 1_655 S
C545 C547 1.369 1_655 S
C545 H556 0.930 . S
C546 C548 1.383 . S
C546 C549 1.382 . S
C546 H557 0.930 . S
C547 C545 1.369 1_455 S
C547 C549 1.392 . S
C547 H558 0.930 1_455 S
C548 C544 1.373 . S
C548 C546 1.383 . S
C548 H559 0.931 1_545 S
C549 C546 1.382 . S
C549 C547 1.392 . S
C550 Eu521 2.828 . S
C550 O534 1.249 . S
C550 O535 1.244 1_565 S
C550 C544 1.505 1_665 S
C551 O538 1.258 . S
C551 O539 1.242 . S
H552 C524 0.930 . S
H553 C525 0.930 . S
H554 C526 0.930 . S
H555 C527 0.931 . S
H556 C545 0.930 . S
H557 C546 0.930 . S
H558 C547 0.930 1_655 S
H559 C548 0.931 1_565 S
Eu560 C569 2.828 . S
Eu560 O571 2.392 . S
Eu560 O573 2.418 . S
Eu560 O578 2.373 . S
Eu560 O581 2.488 . S
Eu560 O582 2.471 . S
Eu560 O583 2.349 . S
Eu561 O570 2.373 . S
Eu561 O574 2.488 . S
Eu561 O575 2.471 . S
Eu561 O576 2.349 . S
Eu561 O579 2.392 . S
Eu561 O580 2.418 . S
Eu561 C590 2.828 . S
C562 O580 1.244 . S
C562 O583 1.265 . S
C563 C564 1.379 . S
C563 C567 1.373 . S
C563 C569 1.505 . S
C564 C563 1.379 . S
C564 C566 1.369 . S
C564 H592 0.930 . S
C565 C567 1.383 . S
C565 C568 1.382 . S
C565 H593 0.930 . S
C566 C564 1.369 . S
C566 C568 1.392 . S
C566 H594 0.930 . S
C567 C563 1.373 . S
C567 C565 1.383 . S
C567 H595 0.931 . S
C568 C565 1.382 . S
C568 C566 1.392 . S
C569 Eu560 2.828 . S
C569 C563 1.505 . S
C569 O581 1.249 . S
C569 O582 1.244 . S
O570 Eu561 2.373 . S
O570 C572 1.258 . S
O571 Eu560 2.392 . S
O571 C572 1.242 . S
C572 O570 1.258 . S
C572 O571 1.242 . S
O573 Eu560 2.418 . S
O573 C577 1.244 . S
O574 Eu561 2.488 . S
O574 C590 1.249 . S
O575 Eu561 2.471 . S
O575 C590 1.244 . S
O576 Eu561 2.349 . S
O576 C577 1.265 . S
C577 O573 1.244 . S
C577 O576 1.265 . S
O578 Eu560 2.373 . S
O578 C591 1.258 . S
O579 Eu561 2.392 . S
O579 C591 1.242 . S
O580 Eu561 2.418 . S
O580 C562 1.244 . S
O581 Eu560 2.488 . S
O581 C569 1.249 . S
O582 Eu560 2.471 . S
O582 C569 1.244 . S
O583 Eu560 2.349 . S
O583 C562 1.265 . S
C584 C585 1.379 . S
C584 C588 1.373 . S
C584 C590 1.505 . S
C585 C584 1.379 . S
C585 C587 1.369 . S
C585 H596 0.930 . S
C586 C588 1.383 . S
C586 C589 1.382 . S
C586 H597 0.930 . S
C587 C585 1.369 . S
C587 C589 1.392 . S
C587 H598 0.930 . S
C588 C584 1.373 . S
C588 C586 1.383 . S
C588 H599 0.931 . S
C589 C586 1.382 . S
C589 C587 1.392 . S
C590 Eu561 2.828 . S
C590 O574 1.249 . S
C590 O575 1.244 . S
C590 C584 1.505 . S
C591 O578 1.258 . S
C591 O579 1.242 . S
H592 C564 0.930 . S
H593 C565 0.930 . S
H594 C566 0.930 . S
H595 C567 0.931 . S
H596 C585 0.930 . S
H597 C586 0.930 . S
H598 C587 0.930 . S
H599 C588 0.931 . S
Eu600 C609 2.828 . S
Eu600 O611 2.392 . S
Eu600 O613 2.418 . S
Eu600 O618 2.373 . S
Eu600 O621 2.488 . S
Eu600 O622 2.471 . S
Eu600 O623 2.349 . S
Eu601 O610 2.373 . S
Eu601 O614 2.488 . S
Eu601 O615 2.471 1_545 S
Eu601 O616 2.349 . S
Eu601 O619 2.392 . S
Eu601 O620 2.418 . S
Eu601 C630 2.828 . S
C602 O620 1.244 . S
C602 O623 1.265 . S
C603 C604 1.379 . S
C603 C607 1.373 . S
C603 C609 1.505 . S
C604 C603 1.379 . S
C604 C606 1.369 . S
C604 H632 0.930 . S
C605 C607 1.383 . S
C605 C608 1.382 . S
C605 H633 0.930 . S
C606 C604 1.369 . S
C606 C608 1.392 . S
C606 H634 0.930 . S
C607 C603 1.373 . S
C607 C605 1.383 . S
C607 H635 0.931 . S
C608 C605 1.382 . S
C608 C606 1.392 . S
C609 Eu600 2.828 . S
C609 C603 1.505 . S
C609 O621 1.249 . S
C609 O622 1.244 . S
O610 Eu601 2.373 . S
O610 C612 1.258 . S
O611 Eu600 2.392 . S
O611 C612 1.242 . S
C612 O610 1.258 . S
C612 O611 1.242 . S
O613 Eu600 2.418 . S
O613 C617 1.244 . S
O614 Eu601 2.488 . S
O614 C630 1.249 . S
O615 Eu601 2.471 1_565 S
O615 C630 1.244 1_565 S
O616 Eu601 2.349 . S
O616 C617 1.265 . S
C617 O613 1.244 . S
C617 O616 1.265 . S
O618 Eu600 2.373 . S
O618 C631 1.258 . S
O619 Eu601 2.392 . S
O619 C631 1.242 . S
O620 Eu601 2.418 . S
O620 C602 1.244 . S
O621 Eu600 2.488 . S
O621 C609 1.249 . S
O622 Eu600 2.471 . S
O622 C609 1.244 . S
O623 Eu600 2.349 . S
O623 C602 1.265 . S
C624 C625 1.379 . S
C624 C628 1.373 . S
C624 C630 1.505 1_565 S
C625 C624 1.379 . S
C625 C627 1.369 . S
C625 H636 0.930 . S
C626 C628 1.383 . S
C626 C629 1.382 . S
C626 H637 0.930 . S
C627 C625 1.369 . S
C627 C629 1.392 . S
C627 H638 0.930 . S
C628 C624 1.373 . S
C628 C626 1.383 . S
C628 H639 0.931 1_565 S
C629 C626 1.382 . S
C629 C627 1.392 . S
C630 Eu601 2.828 . S
C630 O614 1.249 . S
C630 O615 1.244 1_545 S
C630 C624 1.505 1_545 S
C631 O618 1.258 . S
C631 O619 1.242 . S
H632 C604 0.930 . S
H633 C605 0.930 . S
H634 C606 0.930 . S
H635 C607 0.931 . S
H636 C625 0.930 . S
H637 C626 0.930 . S
H638 C627 0.930 . S
H639 C628 0.931 1_545 S
H640 C652 0.930 . S
H641 C654 0.930 . S
H642 C655 0.930 . S
H643 C659 0.959 . S
H644 C659 0.959 . S
H645 C659 0.961 . S
H646 C660 0.960 . S
H647 C660 0.961 . S
H648 C660 0.959 . S
H649 C663 0.929 . S
H650 C664 0.931 . S
H651 C666 0.930 . S
C652 H640 0.930 . S
C652 C653 1.399 . S
C652 C657 1.399 . S
C653 C652 1.399 . S
C653 C654 1.376 . S
C654 H641 0.930 . S
C654 C653 1.376 . S
C654 C655 1.388 . S
C655 H642 0.930 . S
C655 C654 1.388 . S
C655 C656 1.390 . S
C656 C655 1.390 . S
C656 C657 1.394 . S
C656 C662 1.465 . S
C657 C652 1.399 . S
C657 C656 1.394 . S
C657 C658 1.516 . S
C658 C657 1.516 . S
C658 C659 1.502 . S
C658 C660 1.561 . S
C658 C661 1.526 . S
C659 H643 0.959 . S
C659 H644 0.959 . S
C659 H645 0.961 . S
C659 C658 1.502 . S
C660 H646 0.960 . S
C660 H647 0.961 . S
C660 H648 0.959 . S
C660 C658 1.561 . S
C661 C658 1.526 . S
C661 C662 1.396 . S
C661 C666 1.390 . S
C662 C656 1.465 . S
C662 C661 1.396 . S
C662 C663 1.399 . S
C663 H649 0.929 . S
C663 C662 1.399 . S
C663 C664 1.385 . S
C664 H650 0.931 . S
C664 C663 1.385 . S
C664 C665 1.389 . S
C665 C664 1.389 . S
C665 C666 1.387 . S
C666 H651 0.930 . S
C666 C661 1.390 . S
C666 C665 1.387 . S
H667 C679 0.930 . S
H668 C681 0.930 . S
H669 C682 0.930 . S
H670 C686 0.959 . S
H671 C686 0.959 . S
H672 C686 0.961 . S
H673 C687 0.960 . S
H674 C687 0.961 . S
H675 C687 0.959 . S
H676 C690 0.929 . S
H677 C691 0.931 . S
H678 C693 0.930 . S
C679 H667 0.930 . S
C679 C680 1.399 . S
C679 C684 1.399 . S
C680 C679 1.399 . S
C680 C681 1.376 . S
C681 H668 0.930 . S
C681 C680 1.376 . S
C681 C682 1.388 . S
C682 H669 0.930 . S
C682 C681 1.388 . S
C682 C683 1.390 . S
C683 C682 1.390 . S
C683 C684 1.394 . S
C683 C689 1.465 . S
C684 C679 1.399 . S
C684 C683 1.394 . S
C684 C685 1.516 . S
C685 C684 1.516 . S
C685 C686 1.502 . S
C685 C687 1.561 . S
C685 C688 1.526 . S
C686 H670 0.959 . S
C686 H671 0.959 . S
C686 H672 0.961 . S
C686 C685 1.502 . S
C687 H673 0.960 . S
C687 H674 0.961 . S
C687 H675 0.959 . S
C687 C685 1.561 . S
C688 C685 1.526 . S
C688 C689 1.396 . S
C688 C693 1.390 . S
C689 C683 1.465 . S
C689 C688 1.396 . S
C689 C690 1.399 . S
C690 H676 0.929 . S
C690 C689 1.399 . S
C690 C691 1.385 . S
C691 H677 0.931 . S
C691 C690 1.385 . S
C691 C692 1.389 . S
C692 C691 1.389 . S
C692 C693 1.387 . S
C693 H678 0.930 . S
C693 C688 1.390 . S
C693 C692 1.387 . S
H694 C706 0.930 . S
H695 C708 0.930 . S
H696 C709 0.930 . S
H697 C713 0.946 1_655 S
H698 C713 0.945 1_655 S
H699 C713 0.984 . S
H700 C714 0.960 . S
H701 C714 0.961 . S
H702 C714 0.959 . S
H703 C717 0.929 . S
H704 C718 0.931 . S
H705 C720 0.930 . S
C706 H694 0.930 . S
C706 C707 1.399 . S
C706 C711 1.399 . S
C707 C706 1.399 . S
C707 C708 1.376 . S
C708 H695 0.930 . S
C708 C707 1.376 . S
C708 C709 1.388 . S
C709 H696 0.930 . S
C709 C708 1.388 . S
C709 C710 1.390 . S
C710 C709 1.390 . S
C710 C711 1.394 . S
C710 C716 1.465 1_455 S
C711 C706 1.399 . S
C711 C710 1.394 . S
C711 C712 1.516 . S
C712 C711 1.516 . S
C712 C713 1.507 . S
C712 C714 1.561 . S
C712 C715 1.526 1_455 S
C713 H697 0.946 1_455 S
C713 H698 0.945 1_455 S
C713 H699 0.984 . S
C713 C712 1.507 . S
C714 H700 0.960 . S
C714 H701 0.961 . S
C714 H702 0.959 . S
C714 C712 1.561 . S
C715 C712 1.526 1_655 S
C715 C716 1.396 . S
C715 C720 1.390 . S
C716 C710 1.465 1_655 S
C716 C715 1.396 . S
C716 C717 1.399 . S
C717 H703 0.929 . S
C717 C716 1.399 . S
C717 C718 1.385 . S
C718 H704 0.931 . S
C718 C717 1.385 . S
C718 C719 1.389 . S
C719 C718 1.389 . S
C719 C720 1.387 . S
C720 H705 0.930 . S
C720 C715 1.390 . S
C720 C719 1.387 . S
H721 C733 0.930 . S
H722 C735 0.930 . S
H723 C736 0.931 1_655 S
H724 C740 0.959 . S
H725 C740 0.959 . S
H726 C740 0.961 . S
H727 C741 0.965 . S
H728 C741 0.961 . S
H729 C741 0.959 . S
H730 C744 0.929 . S
H731 C745 0.931 . S
H732 C747 0.930 . S
C733 H721 0.930 . S
C733 C734 1.399 . S
C733 C738 1.399 . S
C734 C733 1.399 . S
C734 C735 1.376 . S
C735 H722 0.930 . S
C735 C734 1.376 . S
C735 C736 1.387 . S
C736 H723 0.931 1_455 S
C736 C735 1.387 . S
C736 C737 1.389 1_455 S
C737 C736 1.389 1_655 S
C737 C738 1.380 1_655 S
C737 C743 1.477 . S
C738 C733 1.399 . S
C738 C737 1.380 1_455 S
C738 C739 1.516 . S
C739 C738 1.516 . S
C739 C740 1.502 . S
C739 C741 1.561 1_455 S
C739 C742 1.526 1_455 S
C740 H724 0.959 . S
C740 H725 0.959 . S
C740 H726 0.961 . S
C740 C739 1.502 . S
C741 H727 0.965 . S
C741 H728 0.961 . S
C741 H729 0.959 . S
C741 C739 1.561 1_655 S
C742 C739 1.526 1_655 S
C742 C743 1.396 . S
C742 C747 1.390 . S
C743 C737 1.477 . S
C743 C742 1.396 . S
C743 C744 1.399 . S
C744 H730 0.929 . S
C744 C743 1.399 . S
C744 C745 1.385 . S
C745 H731 0.931 . S
C745 C744 1.385 . S
C745 C746 1.389 . S
C746 C745 1.389 . S
C746 C747 1.387 . S
C747 H732 0.930 . S
C747 C742 1.390 . S
C747 C746 1.387 . S
H748 C760 0.930 . S
H749 C762 0.930 . S
H750 C763 0.930 . S
H751 C767 0.959 . S
H752 C767 0.959 . S
H753 C767 0.961 . S
H754 C768 0.960 . S
H755 C768 0.961 . S
H756 C768 0.959 . S
H757 C771 0.929 . S
H758 C772 0.931 . S
H759 C774 0.930 . S
C760 H748 0.930 . S
C760 C761 1.399 . S
C760 C765 1.399 . S
C761 C760 1.399 . S
C761 C762 1.376 . S
C762 H749 0.930 . S
C762 C761 1.376 . S
C762 C763 1.388 . S
C763 H750 0.930 . S
C763 C762 1.388 . S
C763 C764 1.390 . S
C764 C763 1.390 . S
C764 C765 1.394 . S
C764 C770 1.465 . S
C765 C760 1.399 . S
C765 C764 1.394 . S
C765 C766 1.516 . S
C766 C765 1.516 . S
C766 C767 1.502 . S
C766 C768 1.561 . S
C766 C769 1.526 . S
C767 H751 0.959 . S
C767 H752 0.959 . S
C767 H753 0.961 . S
C767 C766 1.502 . S
C768 H754 0.960 . S
C768 H755 0.961 . S
C768 H756 0.959 . S
C768 C766 1.561 . S
C769 C766 1.526 . S
C769 C770 1.396 . S
C769 C774 1.390 . S
C770 C764 1.465 . S
C770 C769 1.396 . S
C770 C771 1.399 . S
C771 H757 0.929 . S
C771 C770 1.399 . S
C771 C772 1.385 . S
C772 H758 0.931 . S
C772 C771 1.385 . S
C772 C773 1.389 . S
C773 C772 1.389 . S
C773 C774 1.387 . S
C774 H759 0.930 . S
C774 C769 1.390 . S
C774 C773 1.387 . S
H775 C787 0.930 . S
H776 C789 0.930 . S
H777 C790 0.930 . S
H778 C794 0.959 . S
H779 C794 0.959 . S
H780 C794 0.961 . S
H781 C795 0.960 . S
H782 C795 0.961 . S
H783 C795 0.959 . S
H784 C798 0.929 . S
H785 C799 0.931 . S
H786 C801 0.930 . S
C787 H775 0.930 . S
C787 C788 1.399 . S
C787 C792 1.399 . S
C788 C787 1.399 . S
C788 C789 1.376 . S
C789 H776 0.930 . S
C789 C788 1.376 . S
C789 C790 1.388 . S
C790 H777 0.930 . S
C790 C789 1.388 . S
C790 C791 1.390 . S
C791 C790 1.390 . S
C791 C792 1.394 . S
C791 C797 1.465 . S
C792 C787 1.399 . S
C792 C791 1.394 . S
C792 C793 1.516 . S
C793 C792 1.516 . S
C793 C794 1.502 . S
C793 C795 1.561 . S
C793 C796 1.526 . S
C794 H778 0.959 . S
C794 H779 0.959 . S
C794 H780 0.961 . S
C794 C793 1.502 . S
C795 H781 0.960 . S
C795 H782 0.961 . S
C795 H783 0.959 . S
C795 C793 1.561 . S
C796 C793 1.526 . S
C796 C797 1.396 . S
C796 C801 1.390 . S
C797 C791 1.465 . S
C797 C796 1.396 . S
C797 C798 1.399 . S
C798 H784 0.929 . S
C798 C797 1.399 . S
C798 C799 1.385 . S
C799 H785 0.931 . S
C799 C798 1.385 . S
C799 C800 1.389 . S
C800 C799 1.389 . S
C800 C801 1.387 . S
C801 H786 0.930 . S
C801 C796 1.390 . S
C801 C800 1.387 . S
H802 C814 0.930 . S
H803 C816 0.930 . S
H804 C817 0.930 . S
H805 C821 0.959 . S
H806 C821 0.959 . S
H807 C821 0.961 . S
H808 C822 0.960 . S
H809 C822 0.961 1_655 S
H810 C822 0.959 . S
H811 C825 0.929 . S
H812 C826 0.931 . S
H813 C828 0.930 . S
C814 H802 0.930 . S
C814 C815 1.399 . S
C814 C819 1.399 . S
C815 C814 1.399 . S
C815 C816 1.376 . S
C816 H803 0.930 . S
C816 C815 1.376 . S
C816 C817 1.388 . S
C817 H804 0.930 . S
C817 C816 1.388 . S
C817 C818 1.390 . S
C818 C817 1.390 . S
C818 C819 1.394 . S
C818 C824 1.465 1_455 S
C819 C814 1.399 . S
C819 C818 1.394 . S
C819 C820 1.516 1_455 S
C820 C819 1.516 1_655 S
C820 C821 1.502 . S
C820 C822 1.561 1_655 S
C820 C823 1.526 . S
C821 H805 0.959 . S
C821 H806 0.959 . S
C821 H807 0.961 . S
C821 C820 1.502 . S
C822 H808 0.960 . S
C822 H809 0.961 1_455 S
C822 H810 0.959 . S
C822 C820 1.561 1_455 S
C823 C820 1.526 . S
C823 C824 1.396 . S
C823 C828 1.390 . S
C824 C818 1.465 1_655 S
C824 C823 1.396 . S
C824 C825 1.399 . S
C825 H811 0.929 . S
C825 C824 1.399 . S
C825 C826 1.385 . S
C826 H812 0.931 . S
C826 C825 1.385 . S
C826 C827 1.389 . S
C827 C826 1.389 . S
C827 C828 1.387 . S
C828 H813 0.930 . S
C828 C823 1.390 . S
C828 C827 1.387 . S
H829 C841 0.930 . S
H830 C843 0.930 . S
H831 C844 0.930 . S
H832 C848 0.959 . S
H833 C848 0.959 . S
H834 C848 0.961 . S
H835 C849 0.960 . S
H836 C849 0.961 1_655 S
H837 C849 0.959 . S
H838 C852 0.933 . S
H839 C853 0.931 . S
H840 C855 0.930 . S
C841 H829 0.930 . S
C841 C842 1.399 . S
C841 C846 1.399 . S
C842 C841 1.399 . S
C842 C843 1.376 . S
C843 H830 0.930 . S
C843 C842 1.376 . S
C843 C844 1.388 . S
C844 H831 0.930 . S
C844 C843 1.388 . S
C844 C845 1.390 . S
C845 C844 1.390 . S
C845 C846 1.394 . S
C845 C851 1.478 . S
C846 C841 1.399 . S
C846 C845 1.394 . S
C846 C847 1.516 1_455 S
C847 C846 1.516 1_655 S
C847 C848 1.502 . S
C847 C849 1.561 1_655 S
C847 C850 1.526 . S
C848 H832 0.959 . S
C848 H833 0.959 . S
C848 H834 0.961 . S
C848 C847 1.502 . S
C849 H835 0.960 . S
C849 H836 0.961 1_455 S
C849 H837 0.959 . S
C849 C847 1.561 1_455 S
C850 C847 1.526 . S
C850 C851 1.382 1_655 S
C850 C855 1.390 . S
C851 C845 1.478 . S
C851 C850 1.382 1_455 S
C851 C852 1.399 . S
C852 H838 0.933 . S
C852 C851 1.399 . S
C852 C853 1.381 1_455 S
C853 H839 0.931 . S
C853 C852 1.381 1_655 S
C853 C854 1.389 . S
C854 C853 1.389 . S
C854 C855 1.387 . S
C855 H840 0.930 . S
C855 C850 1.390 . S
C855 C854 1.387 . S
H856 C868 0.930 . S
H857 C870 0.930 . S
H858 C871 0.930 . S
H859 C875 0.959 . S
H860 C875 0.959 . S
H861 C875 0.961 . S
H862 C876 0.960 . S
H863 C876 0.961 . S
H864 C876 0.959 . S
H865 C879 0.932 . S
H866 C880 0.931 . S
H867 C882 0.930 . S
C868 H856 0.930 . S
C868 C869 1.399 1_545 S
C868 C873 1.399 . S
C869 C868 1.399 1_565 S
C869 C870 1.376 . S
C870 H857 0.930 . S
C870 C869 1.376 . S
C870 C871 1.388 . S
C871 H858 0.930 . S
C871 C870 1.388 . S
C871 C872 1.390 . S
C872 C871 1.390 . S
C872 C873 1.394 1_565 S
C872 C878 1.463 1_554 S
C873 C868 1.399 . S
C873 C872 1.394 1_545 S
C873 C874 1.516 . S
C874 C873 1.516 . S
C874 C875 1.502 1_554 S
C874 C876 1.561 . S
C874 C877 1.526 1_554 S
C875 H859 0.959 . S
C875 H860 0.959 . S
C875 H861 0.961 . S
C875 C874 1.502 1_556 S
C876 H862 0.960 . S
C876 H863 0.961 . S
C876 H864 0.959 . S
C876 C874 1.561 . S
C877 C874 1.526 1_556 S
C877 C878 1.397 1_545 S
C877 C882 1.390 . S
C878 C872 1.463 1_556 S
C878 C877 1.397 1_565 S
C878 C879 1.400 . S
C879 H865 0.932 . S
C879 C878 1.400 . S
C879 C880 1.385 . S
C880 H866 0.931 . S
C880 C879 1.385 . S
C880 C881 1.389 1_565 S
C881 C880 1.389 1_545 S
C881 C882 1.387 . S
C882 H867 0.930 . S
C882 C877 1.390 . S
C882 C881 1.387 . S
H883 C895 0.930 . S
H884 C897 0.930 . S
H885 C898 0.930 . S
H886 C902 0.959 . S
H887 C902 0.959 . S
H888 C902 0.961 . S
H889 C903 0.960 . S
H890 C903 0.961 . S
H891 C903 0.959 . S
H892 C906 0.929 . S
H893 C907 0.931 . S
H894 C909 0.930 . S
C895 H883 0.930 . S
C895 C896 1.399 . S
C895 C900 1.399 . S
C896 C895 1.399 . S
C896 C897 1.376 . S
C897 H884 0.930 . S
C897 C896 1.376 . S
C897 C898 1.388 . S
C898 H885 0.930 . S
C898 C897 1.388 . S
C898 C899 1.390 . S
C899 C898 1.390 . S
C899 C900 1.394 . S
C899 C905 1.465 . S
C900 C895 1.399 . S
C900 C899 1.394 . S
C900 C901 1.516 . S
C901 C900 1.516 . S
C901 C902 1.502 . S
C901 C903 1.561 . S
C901 C904 1.526 . S
C902 H886 0.959 . S
C902 H887 0.959 . S
C902 H888 0.961 . S
C902 C901 1.502 . S
C903 H889 0.960 . S
C903 H890 0.961 . S
C903 H891 0.959 . S
C903 C901 1.561 . S
C904 C901 1.526 . S
C904 C905 1.396 . S
C904 C909 1.390 . S
C905 C899 1.465 . S
C905 C904 1.396 . S
C905 C906 1.399 . S
C906 H892 0.929 . S
C906 C905 1.399 . S
C906 C907 1.385 . S
C907 H893 0.931 . S
C907 C906 1.385 . S
C907 C908 1.389 . S
C908 C907 1.389 . S
C908 C909 1.387 . S
C909 H894 0.930 . S
C909 C904 1.390 . S
C909 C908 1.387 . S
H910 C922 0.930 . S
H911 C924 0.930 . S
H912 C925 0.930 . S
H913 C929 0.959 . S
H914 C929 0.959 . S
H915 C929 0.961 1_455 S
H916 C930 0.960 . S
H917 C930 0.961 1_655 S
H918 C930 0.959 . S
H919 C933 0.929 . S
H920 C934 0.931 . S
H921 C936 0.930 . S
C922 H910 0.930 . S
C922 C923 1.399 . S
C922 C927 1.399 . S
C923 C922 1.399 . S
C923 C924 1.376 1_545 S
C924 H911 0.930 . S
C924 C923 1.376 1_565 S
C924 C925 1.388 . S
C925 H912 0.930 . S
C925 C924 1.388 . S
C925 C926 1.390 . S
C926 C925 1.390 . S
C926 C927 1.394 1_565 S
C926 C932 1.465 1_455 S
C927 C922 1.399 . S
C927 C926 1.394 1_545 S
C927 C928 1.527 . S
C928 C927 1.527 . S
C928 C929 1.499 1_455 S
C928 C930 1.564 . S
C928 C931 1.515 1_455 S
C929 H913 0.959 . S
C929 H914 0.959 . S
C929 H915 0.961 1_655 S
C929 C928 1.499 1_655 S
C930 H916 0.960 . S
C930 H917 0.961 1_455 S
C930 H918 0.959 . S
C930 C928 1.564 . S
C931 C928 1.515 1_655 S
C931 C932 1.396 1_545 S
C931 C936 1.390 . S
C932 C926 1.465 1_655 S
C932 C931 1.396 1_565 S
C932 C933 1.399 . S
C933 H919 0.929 . S
C933 C932 1.399 . S
C933 C934 1.385 . S
C934 H920 0.931 . S
C934 C933 1.385 . S
C934 C935 1.389 . S
C935 C934 1.389 . S
C935 C936 1.387 1_565 S
C936 H921 0.930 . S
C936 C931 1.390 . S
C936 C935 1.387 1_545 S
H937 C949 0.930 . S
H938 C951 0.930 . S
H939 C952 0.930 . S
H940 C956 0.959 . S
H941 C956 0.959 . S
H942 C956 0.961 . S
H943 C957 0.960 . S
H944 C957 0.961 . S
H945 C957 0.959 . S
H946 C960 0.929 . S
H947 C961 0.931 . S
H948 C963 0.930 . S
C949 H937 0.930 . S
C949 C950 1.399 . S
C949 C954 1.399 . S
C950 C949 1.399 . S
C950 C951 1.376 . S
C951 H938 0.930 . S
C951 C950 1.376 . S
C951 C952 1.388 . S
C952 H939 0.930 . S
C952 C951 1.388 . S
C952 C953 1.390 . S
C953 C952 1.390 . S
C953 C954 1.394 . S
C953 C959 1.465 . S
C954 C949 1.399 . S
C954 C953 1.394 . S
C954 C955 1.516 . S
C955 C954 1.516 . S
C955 C956 1.502 . S
C955 C957 1.561 . S
C955 C958 1.526 . S
C956 H940 0.959 . S
C956 H941 0.959 . S
C956 H942 0.961 . S
C956 C955 1.502 . S
C957 H943 0.960 . S
C957 H944 0.961 . S
C957 H945 0.959 . S
C957 C955 1.561 . S
C958 C955 1.526 . S
C958 C959 1.396 . S
C958 C963 1.390 . S
C959 C953 1.465 . S
C959 C958 1.396 . S
C959 C960 1.399 . S
C960 H946 0.929 . S
C960 C959 1.399 . S
C960 C961 1.385 . S
C961 H947 0.931 . S
C961 C960 1.385 . S
C961 C962 1.389 . S
C962 C961 1.389 . S
C962 C963 1.387 . S
C963 H948 0.930 . S
C963 C958 1.390 . S
C963 C962 1.387 . S
H964 C976 0.930 . S
H965 C978 0.930 . S
H966 C979 0.930 . S
H967 C983 0.959 . S
H968 C983 0.959 . S
H969 C983 0.961 . S
H970 C984 0.960 . S
H971 C984 0.961 . S
H972 C984 0.959 . S
H973 C987 0.929 . S
H974 C988 0.931 . S
H975 C990 0.930 . S
C976 H964 0.930 . S
C976 C977 1.399 . S
C976 C981 1.399 . S
C977 C976 1.399 . S
C977 C978 1.376 . S
C978 H965 0.930 . S
C978 C977 1.376 . S
C978 C979 1.388 . S
C979 H966 0.930 . S
C979 C978 1.388 . S
C979 C980 1.390 . S
C980 C979 1.390 . S
C980 C981 1.394 . S
C980 C986 1.465 . S
C981 C976 1.399 . S
C981 C980 1.394 . S
C981 C982 1.516 . S
C982 C981 1.516 . S
C982 C983 1.502 . S
C982 C984 1.561 . S
C982 C985 1.526 . S
C983 H967 0.959 . S
C983 H968 0.959 . S
C983 H969 0.961 . S
C983 C982 1.502 . S
C984 H970 0.960 . S
C984 H971 0.961 . S
C984 H972 0.959 . S
C984 C982 1.561 . S
C985 C982 1.526 . S
C985 C986 1.396 . S
C985 C990 1.390 . S
C986 C980 1.465 . S
C986 C985 1.396 . S
C986 C987 1.399 . S
C987 H973 0.929 . S
C987 C986 1.399 . S
C987 C988 1.385 . S
C988 H974 0.931 . S
C988 C987 1.385 . S
C988 C989 1.389 . S
C989 C988 1.389 . S
C989 C990 1.387 . S
C990 H975 0.930 . S
C990 C985 1.390 . S
C990 C989 1.387 . S
H991 C1003 0.930 . S
H992 C1005 0.930 . S
H993 C1006 0.930 . S
H994 C1010 0.959 . S
H995 C1010 0.959 . S
H996 C1010 0.961 . S
H997 C1011 0.960 . S
H998 C1011 0.961 . S
H999 C1011 0.959 . S
H1000 C1014 0.929 . S
H1001 C1015 0.931 . S
H1002 C1017 0.930 . S
C1003 H991 0.930 . S
C1003 C1004 1.399 . S
C1003 C1008 1.399 . S
C1004 C1003 1.399 . S
C1004 C1005 1.376 . S
C1005 H992 0.930 . S
C1005 C1004 1.376 . S
C1005 C1006 1.388 . S
C1006 H993 0.930 . S
C1006 C1005 1.388 . S
C1006 C1007 1.390 . S
C1007 C1006 1.390 . S
C1007 C1008 1.394 . S
C1007 C1013 1.465 . S
C1008 C1003 1.399 . S
C1008 C1007 1.394 . S
C1008 C1009 1.516 . S
C1009 C1008 1.516 . S
C1009 C1010 1.502 . S
C1009 C1011 1.561 . S
C1009 C1012 1.526 . S
C1010 H994 0.959 . S
C1010 H995 0.959 . S
C1010 H996 0.961 . S
C1010 C1009 1.502 . S
C1011 H997 0.960 . S
C1011 H998 0.961 . S
C1011 H999 0.959 . S
C1011 C1009 1.561 . S
C1012 C1009 1.526 . S
C1012 C1013 1.396 . S
C1012 C1017 1.390 . S
C1013 C1007 1.465 . S
C1013 C1012 1.396 . S
C1013 C1014 1.399 . S
C1014 H1000 0.929 . S
C1014 C1013 1.399 . S
C1014 C1015 1.385 . S
C1015 H1001 0.931 . S
C1015 C1014 1.385 . S
C1015 C1016 1.389 . S
C1016 C1015 1.389 . S
C1016 C1017 1.387 . S
C1017 H1002 0.930 . S
C1017 C1012 1.390 . S
C1017 C1016 1.387 . S
H1018 C1030 0.930 . S
H1019 C1032 0.930 . S
H1020 C1033 0.930 . S
H1021 C1037 0.959 . S
H1022 C1037 0.959 1_655 S
H1023 C1037 0.961 . S
H1024 C1038 0.960 1_455 S
H1025 C1038 0.961 . S
H1026 C1038 0.959 . S
H1027 C1041 0.929 . S
H1028 C1042 0.931 . S
H1029 C1044 0.930 . S
C1030 H1018 0.930 . S
C1030 C1031 1.399 . S
C1030 C1035 1.399 . S
C1031 C1030 1.399 . S
C1031 C1032 1.376 . S
C1032 H1019 0.930 . S
C1032 C1031 1.376 . S
C1032 C1033 1.388 . S
C1033 H1020 0.930 . S
C1033 C1032 1.388 . S
C1033 C1034 1.390 . S
C1034 C1033 1.390 . S
C1034 C1035 1.394 . S
C1034 C1040 1.465 1_455 S
C1035 C1030 1.399 . S
C1035 C1034 1.394 . S
C1035 C1036 1.516 . S
C1036 C1035 1.516 . S
C1036 C1037 1.502 . S
C1036 C1038 1.561 1_455 S
C1036 C1039 1.526 1_455 S
C1037 H1021 0.959 . S
C1037 H1022 0.959 1_455 S
C1037 H1023 0.961 . S
C1037 C1036 1.502 . S
C1038 H1024 0.960 1_655 S
C1038 H1025 0.961 . S
C1038 H1026 0.959 . S
C1038 C1036 1.561 1_655 S
C1039 C1036 1.526 1_655 S
C1039 C1040 1.396 . S
C1039 C1044 1.390 . S
C1040 C1034 1.465 1_655 S
C1040 C1039 1.396 . S
C1040 C1041 1.399 . S
C1041 H1027 0.929 . S
C1041 C1040 1.399 . S
C1041 C1042 1.385 . S
C1042 H1028 0.931 . S
C1042 C1041 1.385 . S
C1042 C1043 1.389 . S
C1043 C1042 1.389 . S
C1043 C1044 1.387 . S
C1044 H1029 0.930 . S
C1044 C1039 1.390 . S
C1044 C1043 1.387 . S
H1045 C1057 0.930 . S
H1046 C1059 0.930 . S
H1047 C1060 0.930 . S
H1048 C1064 0.959 . S
H1049 C1064 0.959 . S
H1050 C1064 0.961 . S
H1051 C1065 0.960 . S
H1052 C1065 0.961 . S
H1053 C1065 0.959 . S
H1054 C1068 0.929 . S
H1055 C1069 0.931 . S
H1056 C1071 0.930 . S
C1057 H1045 0.930 . S
C1057 C1058 1.399 1_556 S
C1057 C1062 1.399 . S
C1058 C1057 1.399 1_554 S
C1058 C1059 1.376 . S
C1059 H1046 0.930 . S
C1059 C1058 1.376 . S
C1059 C1060 1.388 . S
C1060 H1047 0.930 . S
C1060 C1059 1.388 . S
C1060 C1061 1.390 . S
C1061 C1060 1.390 . S
C1061 C1062 1.394 1_554 S
C1061 C1067 1.465 . S
C1062 C1057 1.399 . S
C1062 C1061 1.394 1_556 S
C1062 C1063 1.516 . S
C1063 C1062 1.516 . S
C1063 C1064 1.502 . S
C1063 C1065 1.561 . S
C1063 C1066 1.526 . S
C1064 H1048 0.959 . S
C1064 H1049 0.959 . S
C1064 H1050 0.961 . S
C1064 C1063 1.502 . S
C1065 H1051 0.960 . S
C1065 H1052 0.961 . S
C1065 H1053 0.959 . S
C1065 C1063 1.561 . S
C1066 C1063 1.526 . S
C1066 C1067 1.396 1_556 S
C1066 C1071 1.390 . S
C1067 C1061 1.465 . S
C1067 C1066 1.396 1_554 S
C1067 C1068 1.399 . S
C1068 H1054 0.929 . S
C1068 C1067 1.399 . S
C1068 C1069 1.385 . S
C1069 H1055 0.931 . S
C1069 C1068 1.385 . S
C1069 C1070 1.389 1_554 S
C1070 C1069 1.389 1_556 S
C1070 C1071 1.387 . S
C1071 H1056 0.930 . S
C1071 C1066 1.390 . S
C1071 C1070 1.387 . S
H1072 C1084 0.930 . S
H1073 C1086 0.930 . S
H1074 C1087 0.930 . S
H1075 C1091 0.959 . S
H1076 C1091 0.959 . S
H1077 C1091 0.961 . S
H1078 C1092 0.960 . S
H1079 C1092 0.961 . S
H1080 C1092 0.959 . S
H1081 C1095 0.929 . S
H1082 C1096 0.931 . S
H1083 C1098 0.930 . S
C1084 H1072 0.930 . S
C1084 C1085 1.399 . S
C1084 C1089 1.399 . S
C1085 C1084 1.399 . S
C1085 C1086 1.376 . S
C1086 H1073 0.930 . S
C1086 C1085 1.376 . S
C1086 C1087 1.388 . S
C1087 H1074 0.930 . S
C1087 C1086 1.388 . S
C1087 C1088 1.390 . S
C1088 C1087 1.390 . S
C1088 C1089 1.394 . S
C1088 C1094 1.465 . S
C1089 C1084 1.399 . S
C1089 C1088 1.394 . S
C1089 C1090 1.516 . S
C1090 C1089 1.516 . S
C1090 C1091 1.502 . S
C1090 C1092 1.561 . S
C1090 C1093 1.526 . S
C1091 H1075 0.959 . S
C1091 H1076 0.959 . S
C1091 H1077 0.961 . S
C1091 C1090 1.502 . S
C1092 H1078 0.960 . S
C1092 H1079 0.961 . S
C1092 H1080 0.959 . S
C1092 C1090 1.561 . S
C1093 C1090 1.526 . S
C1093 C1094 1.396 . S
C1093 C1098 1.390 . S
C1094 C1088 1.465 . S
C1094 C1093 1.396 . S
C1094 C1095 1.399 . S
C1095 H1081 0.929 . S
C1095 C1094 1.399 . S
C1095 C1096 1.385 . S
C1096 H1082 0.931 . S
C1096 C1095 1.385 . S
C1096 C1097 1.389 . S
C1097 C1096 1.389 . S
C1097 C1098 1.387 . S
C1098 H1083 0.930 . S
C1098 C1093 1.390 . S
C1098 C1097 1.387 . S
H1099 C1111 0.930 . S
H1100 C1113 0.930 . S
H1101 C1114 0.930 . S
H1102 C1118 0.959 . S
H1103 C1118 0.959 . S
H1104 C1118 0.961 . S
H1105 C1119 0.960 . S
H1106 C1119 0.961 . S
H1107 C1119 0.959 . S
H1108 C1122 0.929 . S
H1109 C1123 0.931 . S
H1110 C1125 0.930 . S
C1111 H1099 0.930 . S
C1111 C1112 1.399 . S
C1111 C1116 1.399 . S
C1112 C1111 1.399 . S
C1112 C1113 1.376 . S
C1113 H1100 0.930 . S
C1113 C1112 1.376 . S
C1113 C1114 1.388 . S
C1114 H1101 0.930 . S
C1114 C1113 1.388 . S
C1114 C1115 1.390 . S
C1115 C1114 1.390 . S
C1115 C1116 1.394 . S
C1115 C1121 1.465 . S
C1116 C1111 1.399 . S
C1116 C1115 1.394 . S
C1116 C1117 1.516 . S
C1117 C1116 1.516 . S
C1117 C1118 1.502 . S
C1117 C1119 1.561 . S
C1117 C1120 1.526 . S
C1118 H1102 0.959 . S
C1118 H1103 0.959 . S
C1118 H1104 0.961 . S
C1118 C1117 1.502 . S
C1119 H1105 0.960 . S
C1119 H1106 0.961 . S
C1119 H1107 0.959 . S
C1119 C1117 1.561 . S
C1120 C1117 1.526 . S
C1120 C1121 1.396 . S
C1120 C1125 1.390 . S
C1121 C1115 1.465 . S
C1121 C1120 1.396 . S
C1121 C1122 1.399 . S
C1122 H1108 0.929 . S
C1122 C1121 1.399 . S
C1122 C1123 1.385 . S
C1123 H1109 0.931 . S
C1123 C1122 1.385 . S
C1123 C1124 1.389 . S
C1124 C1123 1.389 . S
C1124 C1125 1.387 . S
C1125 H1110 0.930 . S
C1125 C1120 1.390 . S
C1125 C1124 1.387 . S
H1126 C1138 0.930 . S
H1127 C1140 0.930 . S
H1128 C1141 0.930 . S
H1129 C1145 0.959 . S
H1130 C1145 0.959 . S
H1131 C1145 0.961 . S
H1132 C1146 0.960 . S
H1133 C1146 0.961 . S
H1134 C1146 0.959 . S
H1135 C1149 0.929 . S
H1136 C1150 0.931 . S
H1137 C1152 0.930 . S
C1138 H1126 0.930 . S
C1138 C1139 1.399 . S
C1138 C1143 1.399 . S
C1139 C1138 1.399 . S
C1139 C1140 1.376 . S
C1140 H1127 0.930 . S
C1140 C1139 1.376 . S
C1140 C1141 1.388 . S
C1141 H1128 0.930 . S
C1141 C1140 1.388 . S
C1141 C1142 1.390 . S
C1142 C1141 1.390 . S
C1142 C1143 1.394 . S
C1142 C1148 1.465 . S
C1143 C1138 1.399 . S
C1143 C1142 1.394 . S
C1143 C1144 1.516 . S
C1144 C1143 1.516 . S
C1144 C1145 1.502 . S
C1144 C1146 1.561 . S
C1144 C1147 1.526 . S
C1145 H1129 0.959 . S
C1145 H1130 0.959 . S
C1145 H1131 0.961 . S
C1145 C1144 1.502 . S
C1146 H1132 0.960 . S
C1146 H1133 0.961 . S
C1146 H1134 0.959 . S
C1146 C1144 1.561 . S
C1147 C1144 1.526 . S
C1147 C1148 1.396 . S
C1147 C1152 1.390 . S
C1148 C1142 1.465 . S
C1148 C1147 1.396 . S
C1148 C1149 1.399 . S
C1149 H1135 0.929 . S
C1149 C1148 1.399 . S
C1149 C1150 1.385 . S
C1150 H1136 0.931 . S
C1150 C1149 1.385 . S
C1150 C1151 1.389 . S
C1151 C1150 1.389 . S
C1151 C1152 1.387 . S
C1152 H1137 0.930 . S
C1152 C1147 1.390 . S
C1152 C1151 1.387 . S
H1153 C1165 0.930 . S
H1154 C1167 0.930 . S
H1155 C1168 0.930 . S
H1156 C1172 0.959 . S
H1157 C1172 0.959 . S
H1158 C1172 0.961 . S
H1159 C1173 0.960 . S
H1160 C1173 0.961 . S
H1161 C1173 0.959 . S
H1162 C1176 0.929 . S
H1163 C1177 0.931 . S
H1164 C1179 0.930 . S
C1165 H1153 0.930 . S
C1165 C1166 1.399 . S
C1165 C1170 1.399 . S
C1166 C1165 1.399 . S
C1166 C1167 1.376 . S
C1167 H1154 0.930 . S
C1167 C1166 1.376 . S
C1167 C1168 1.388 . S
C1168 H1155 0.930 . S
C1168 C1167 1.388 . S
C1168 C1169 1.390 . S
C1169 C1168 1.390 . S
C1169 C1170 1.394 . S
C1169 C1175 1.465 . S
C1170 C1165 1.399 . S
C1170 C1169 1.394 . S
C1170 C1171 1.516 . S
C1171 C1170 1.516 . S
C1171 C1172 1.502 . S
C1171 C1173 1.561 . S
C1171 C1174 1.526 . S
C1172 H1156 0.959 . S
C1172 H1157 0.959 . S
C1172 H1158 0.961 . S
C1172 C1171 1.502 . S
C1173 H1159 0.960 . S
C1173 H1160 0.961 . S
C1173 H1161 0.959 . S
C1173 C1171 1.561 . S
C1174 C1171 1.526 . S
C1174 C1175 1.396 . S
C1174 C1179 1.390 . S
C1175 C1169 1.465 . S
C1175 C1174 1.396 . S
C1175 C1176 1.399 . S
C1176 H1162 0.929 . S
C1176 C1175 1.399 . S
C1176 C1177 1.385 . S
C1177 H1163 0.931 . S
C1177 C1176 1.385 . S
C1177 C1178 1.389 . S
C1178 C1177 1.389 . S
C1178 C1179 1.387 . S
C1179 H1164 0.930 . S
C1179 C1174 1.390 . S
C1179 C1178 1.387 . S
H1180 C1192 0.930 . S
H1181 C1194 0.930 . S
H1182 C1195 0.930 . S
H1183 C1199 0.959 . S
H1184 C1199 0.959 . S
H1185 C1199 0.961 . S
H1186 C1200 0.960 . S
H1187 C1200 0.961 . S
H1188 C1200 0.959 . S
H1189 C1203 0.929 . S
H1190 C1204 0.931 . S
H1191 C1206 0.930 . S
C1192 H1180 0.930 . S
C1192 C1193 1.399 . S
C1192 C1197 1.399 . S
C1193 C1192 1.399 . S
C1193 C1194 1.376 . S
C1194 H1181 0.930 . S
C1194 C1193 1.376 . S
C1194 C1195 1.388 . S
C1195 H1182 0.930 . S
C1195 C1194 1.388 . S
C1195 C1196 1.390 . S
C1196 C1195 1.390 . S
C1196 C1197 1.394 . S
C1196 C1202 1.465 . S
C1197 C1192 1.399 . S
C1197 C1196 1.394 . S
C1197 C1198 1.516 . S
C1198 C1197 1.516 . S
C1198 C1199 1.502 . S
C1198 C1200 1.561 . S
C1198 C1201 1.526 . S
C1199 H1183 0.959 . S
C1199 H1184 0.959 . S
C1199 H1185 0.961 . S
C1199 C1198 1.502 . S
C1200 H1186 0.960 . S
C1200 H1187 0.961 . S
C1200 H1188 0.959 . S
C1200 C1198 1.561 . S
C1201 C1198 1.526 . S
C1201 C1202 1.396 . S
C1201 C1206 1.390 . S
C1202 C1196 1.465 . S
C1202 C1201 1.396 . S
C1202 C1203 1.399 . S
C1203 H1189 0.929 . S
C1203 C1202 1.399 . S
C1203 C1204 1.385 . S
C1204 H1190 0.931 . S
C1204 C1203 1.385 . S
C1204 C1205 1.389 . S
C1205 C1204 1.389 . S
C1205 C1206 1.387 . S
C1206 H1191 0.930 . S
C1206 C1201 1.390 . S
C1206 C1205 1.387 . S
H1207 C1219 0.930 . S
H1208 C1221 0.930 . S
H1209 C1222 0.930 . S
H1210 C1226 0.959 . S
H1211 C1226 0.959 . S
H1212 C1226 0.961 . S
H1213 C1227 0.960 . S
H1214 C1227 0.961 . S
H1215 C1227 0.959 . S
H1216 C1230 0.929 . S
H1217 C1231 0.931 . S
H1218 C1233 0.930 . S
C1219 H1207 0.930 . S
C1219 C1220 1.399 . S
C1219 C1224 1.399 . S
C1220 C1219 1.399 . S
C1220 C1221 1.376 . S
C1221 H1208 0.930 . S
C1221 C1220 1.376 . S
C1221 C1222 1.388 . S
C1222 H1209 0.930 . S
C1222 C1221 1.388 . S
C1222 C1223 1.390 . S
C1223 C1222 1.390 . S
C1223 C1224 1.394 . S
C1223 C1229 1.465 . S
C1224 C1219 1.399 . S
C1224 C1223 1.394 . S
C1224 C1225 1.516 . S
C1225 C1224 1.516 . S
C1225 C1226 1.502 . S
C1225 C1227 1.561 . S
C1225 C1228 1.526 . S
C1226 H1210 0.959 . S
C1226 H1211 0.959 . S
C1226 H1212 0.961 . S
C1226 C1225 1.502 . S
C1227 H1213 0.960 . S
C1227 H1214 0.961 . S
C1227 H1215 0.959 . S
C1227 C1225 1.561 . S
C1228 C1225 1.526 . S
C1228 C1229 1.396 . S
C1228 C1233 1.390 . S
C1229 C1223 1.465 . S
C1229 C1228 1.396 . S
C1229 C1230 1.399 . S
C1230 H1216 0.929 . S
C1230 C1229 1.399 . S
C1230 C1231 1.385 . S
C1231 H1217 0.931 . S
C1231 C1230 1.385 . S
C1231 C1232 1.389 . S
C1232 C1231 1.389 . S
C1232 C1233 1.387 . S
C1233 H1218 0.930 . S
C1233 C1228 1.390 . S
C1233 C1232 1.387 . S
H1234 C1246 0.930 . S
H1235 C1248 0.930 . S
H1236 C1249 0.930 . S
H1237 C1253 0.959 . S
H1238 C1253 0.959 . S
H1239 C1253 0.961 . S
H1240 C1254 0.960 . S
H1241 C1254 0.961 . S
H1242 C1254 0.959 . S
H1243 C1257 0.929 . S
H1244 C1258 0.931 . S
H1245 C1260 0.930 . S
C1246 H1234 0.930 . S
C1246 C1247 1.399 . S
C1246 C1251 1.399 . S
C1247 C1246 1.399 . S
C1247 C1248 1.376 . S
C1248 H1235 0.930 . S
C1248 C1247 1.376 . S
C1248 C1249 1.388 . S
C1249 H1236 0.930 . S
C1249 C1248 1.388 . S
C1249 C1250 1.390 . S
C1250 C1249 1.390 . S
C1250 C1251 1.394 . S
C1250 C1256 1.465 . S
C1251 C1246 1.399 . S
C1251 C1250 1.394 . S
C1251 C1252 1.516 . S
C1252 C1251 1.516 . S
C1252 C1253 1.502 . S
C1252 C1254 1.561 . S
C1252 C1255 1.526 . S
C1253 H1237 0.959 . S
C1253 H1238 0.959 . S
C1253 H1239 0.961 . S
C1253 C1252 1.502 . S
C1254 H1240 0.960 . S
C1254 H1241 0.961 . S
C1254 H1242 0.959 . S
C1254 C1252 1.561 . S
C1255 C1252 1.526 . S
C1255 C1256 1.396 . S
C1255 C1260 1.390 . S
C1256 C1250 1.465 . S
C1256 C1255 1.396 . S
C1256 C1257 1.399 . S
C1257 H1243 0.929 . S
C1257 C1256 1.399 . S
C1257 C1258 1.385 . S
C1258 H1244 0.931 . S
C1258 C1257 1.385 . S
C1258 C1259 1.389 . S
C1259 C1258 1.389 . S
C1259 C1260 1.387 . S
C1260 H1245 0.930 . S
C1260 C1255 1.390 . S
C1260 C1259 1.387 . S
H1261 C1273 0.930 . S
H1262 C1275 0.930 . S
H1263 C1276 0.930 . S
H1264 C1280 0.959 . S
H1265 C1280 0.959 . S
H1266 C1280 0.961 . S
H1267 C1281 0.960 . S
H1268 C1281 0.961 . S
H1269 C1281 0.959 . S
H1270 C1284 0.929 . S
H1271 C1285 0.931 . S
H1272 C1287 0.930 . S
C1273 H1261 0.930 . S
C1273 C1274 1.399 . S
C1273 C1278 1.399 . S
C1274 C1273 1.399 . S
C1274 C1275 1.376 . S
C1275 H1262 0.930 . S
C1275 C1274 1.376 . S
C1275 C1276 1.388 . S
C1276 H1263 0.930 . S
C1276 C1275 1.388 . S
C1276 C1277 1.390 . S
C1277 C1276 1.390 . S
C1277 C1278 1.394 . S
C1277 C1283 1.465 . S
C1278 C1273 1.399 . S
C1278 C1277 1.394 . S
C1278 C1279 1.516 . S
C1279 C1278 1.516 . S
C1279 C1280 1.502 . S
C1279 C1281 1.561 . S
C1279 C1282 1.526 . S
C1280 H1264 0.959 . S
C1280 H1265 0.959 . S
C1280 H1266 0.961 . S
C1280 C1279 1.502 . S
C1281 H1267 0.960 . S
C1281 H1268 0.961 . S
C1281 H1269 0.959 . S
C1281 C1279 1.561 . S
C1282 C1279 1.526 . S
C1282 C1283 1.396 . S
C1282 C1287 1.390 . S
C1283 C1277 1.465 . S
C1283 C1282 1.396 . S
C1283 C1284 1.399 . S
C1284 H1270 0.929 . S
C1284 C1283 1.399 . S
C1284 C1285 1.385 . S
C1285 H1271 0.931 . S
C1285 C1284 1.385 . S
C1285 C1286 1.389 . S
C1286 C1285 1.389 . S
C1286 C1287 1.387 . S
C1287 H1272 0.930 . S
C1287 C1282 1.390 . S
C1287 C1286 1.387 . S
H1288 C1300 0.930 . S
H1289 C1302 0.930 . S
H1290 C1303 0.930 . S
H1291 C1307 0.959 . S
H1292 C1307 0.959 . S
H1293 C1307 0.961 . S
H1294 C1308 0.960 . S
H1295 C1308 0.961 . S
H1296 C1308 0.959 . S
H1297 C1311 0.929 . S
H1298 C1312 0.931 . S
H1299 C1314 0.930 . S
C1300 H1288 0.930 . S
C1300 C1301 1.399 . S
C1300 C1305 1.399 . S
C1301 C1300 1.399 . S
C1301 C1302 1.376 . S
C1302 H1289 0.930 . S
C1302 C1301 1.376 . S
C1302 C1303 1.388 . S
C1303 H1290 0.930 . S
C1303 C1302 1.388 . S
C1303 C1304 1.390 . S
C1304 C1303 1.390 . S
C1304 C1305 1.394 . S
C1304 C1310 1.465 . S
C1305 C1300 1.399 . S
C1305 C1304 1.394 . S
C1305 C1306 1.516 . S
C1306 C1305 1.516 . S
C1306 C1307 1.502 . S
C1306 C1308 1.561 . S
C1306 C1309 1.526 . S
C1307 H1291 0.959 . S
C1307 H1292 0.959 . S
C1307 H1293 0.961 . S
C1307 C1306 1.502 . S
C1308 H1294 0.960 . S
C1308 H1295 0.961 . S
C1308 H1296 0.959 . S
C1308 C1306 1.561 . S
C1309 C1306 1.526 . S
C1309 C1310 1.396 . S
C1309 C1314 1.390 . S
C1310 C1304 1.465 . S
C1310 C1309 1.396 . S
C1310 C1311 1.399 . S
C1311 H1297 0.929 . S
C1311 C1310 1.399 . S
C1311 C1312 1.385 . S
C1312 H1298 0.931 . S
C1312 C1311 1.385 . S
C1312 C1313 1.389 . S
C1313 C1312 1.389 . S
C1313 C1314 1.387 . S
C1314 H1299 0.930 . S
C1314 C1309 1.390 . S
C1314 C1313 1.387 . S
H1315 C1327 0.930 . S
H1316 C1329 0.930 . S
H1317 C1330 0.930 . S
H1318 C1334 0.959 . S
H1319 C1334 0.959 . S
H1320 C1334 0.961 . S
H1321 C1335 0.960 . S
H1322 C1335 0.961 . S
H1323 C1335 0.959 . S
H1324 C1338 0.929 . S
H1325 C1339 0.931 . S
H1326 C1341 0.930 . S
C1327 H1315 0.930 . S
C1327 C1328 1.399 . S
C1327 C1332 1.399 . S
C1328 C1327 1.399 . S
C1328 C1329 1.376 . S
C1329 H1316 0.930 . S
C1329 C1328 1.376 . S
C1329 C1330 1.388 . S
C1330 H1317 0.930 . S
C1330 C1329 1.388 . S
C1330 C1331 1.390 . S
C1331 C1330 1.390 . S
C1331 C1332 1.394 . S
C1331 C1337 1.465 . S
C1332 C1327 1.399 . S
C1332 C1331 1.394 . S
C1332 C1333 1.516 . S
C1333 C1332 1.516 . S
C1333 C1334 1.502 . S
C1333 C1335 1.561 . S
C1333 C1336 1.526 . S
C1334 H1318 0.959 . S
C1334 H1319 0.959 . S
C1334 H1320 0.961 . S
C1334 C1333 1.502 . S
C1335 H1321 0.960 . S
C1335 H1322 0.961 . S
C1335 H1323 0.959 . S
C1335 C1333 1.561 . S
C1336 C1333 1.526 . S
C1336 C1337 1.396 . S
C1336 C1341 1.390 . S
C1337 C1331 1.465 . S
C1337 C1336 1.396 . S
C1337 C1338 1.399 . S
C1338 H1324 0.929 . S
C1338 C1337 1.399 . S
C1338 C1339 1.385 . S
C1339 H1325 0.931 . S
C1339 C1338 1.385 . S
C1339 C1340 1.389 . S
C1340 C1339 1.389 . S
C1340 C1341 1.387 . S
C1341 H1326 0.930 . S
C1341 C1336 1.390 . S
C1341 C1340 1.387 . S
H1342 C1354 0.930 . S
H1343 C1356 0.930 . S
H1344 C1357 0.930 . S
H1345 C1361 0.959 . S
H1346 C1361 0.959 . S
H1347 C1361 0.961 . S
H1348 C1362 0.960 . S
H1349 C1362 0.961 . S
H1350 C1362 0.959 . S
H1351 C1365 0.929 . S
H1352 C1366 0.931 . S
H1353 C1368 0.930 . S
C1354 H1342 0.930 . S
C1354 C1355 1.399 . S
C1354 C1359 1.399 . S
C1355 C1354 1.399 . S
C1355 C1356 1.376 . S
C1356 H1343 0.930 . S
C1356 C1355 1.376 . S
C1356 C1357 1.388 . S
C1357 H1344 0.930 . S
C1357 C1356 1.388 . S
C1357 C1358 1.390 . S
C1358 C1357 1.390 . S
C1358 C1359 1.394 . S
C1358 C1364 1.465 . S
C1359 C1354 1.399 . S
C1359 C1358 1.394 . S
C1359 C1360 1.516 . S
C1360 C1359 1.516 . S
C1360 C1361 1.502 . S
C1360 C1362 1.561 . S
C1360 C1363 1.526 . S
C1361 H1345 0.959 . S
C1361 H1346 0.959 . S
C1361 H1347 0.961 . S
C1361 C1360 1.502 . S
C1362 H1348 0.960 . S
C1362 H1349 0.961 . S
C1362 H1350 0.959 . S
C1362 C1360 1.561 . S
C1363 C1360 1.526 . S
C1363 C1364 1.396 . S
C1363 C1368 1.390 . S
C1364 C1358 1.465 . S
C1364 C1363 1.396 . S
C1364 C1365 1.399 . S
C1365 H1351 0.929 . S
C1365 C1364 1.399 . S
C1365 C1366 1.385 . S
C1366 H1352 0.931 . S
C1366 C1365 1.385 . S
C1366 C1367 1.389 . S
C1367 C1366 1.389 . S
C1367 C1368 1.387 . S
C1368 H1353 0.930 . S
C1368 C1363 1.390 . S
C1368 C1367 1.387 . S
H1369 C1381 0.930 . S
H1370 C1383 0.930 . S
H1371 C1384 0.930 . S
H1372 C1388 0.959 . S
H1373 C1388 0.959 . S
H1374 C1388 0.961 . S
H1375 C1389 0.960 . S
H1376 C1389 0.961 . S
H1377 C1389 0.959 . S
H1378 C1392 0.929 . S
H1379 C1393 0.931 . S
H1380 C1395 0.930 . S
C1381 H1369 0.930 . S
C1381 C1382 1.399 . S
C1381 C1386 1.399 . S
C1382 C1381 1.399 . S
C1382 C1383 1.376 . S
C1383 H1370 0.930 . S
C1383 C1382 1.376 . S
C1383 C1384 1.388 . S
C1384 H1371 0.930 . S
C1384 C1383 1.388 . S
C1384 C1385 1.390 . S
C1385 C1384 1.390 . S
C1385 C1386 1.394 . S
C1385 C1391 1.465 . S
C1386 C1381 1.399 . S
C1386 C1385 1.394 . S
C1386 C1387 1.516 . S
C1387 C1386 1.516 . S
C1387 C1388 1.502 . S
C1387 C1389 1.561 . S
C1387 C1390 1.526 . S
C1388 H1372 0.959 . S
C1388 H1373 0.959 . S
C1388 H1374 0.961 . S
C1388 C1387 1.502 . S
C1389 H1375 0.960 . S
C1389 H1376 0.961 . S
C1389 H1377 0.959 . S
C1389 C1387 1.561 . S
C1390 C1387 1.526 . S
C1390 C1391 1.396 . S
C1390 C1395 1.390 . S
C1391 C1385 1.465 . S
C1391 C1390 1.396 . S
C1391 C1392 1.399 . S
C1392 H1378 0.929 . S
C1392 C1391 1.399 . S
C1392 C1393 1.385 . S
C1393 H1379 0.931 . S
C1393 C1392 1.385 . S
C1393 C1394 1.389 . S
C1394 C1393 1.389 . S
C1394 C1395 1.387 . S
C1395 H1380 0.930 . S
C1395 C1390 1.390 . S
C1395 C1394 1.387 . S
H1396 C1408 0.930 . S
H1397 C1410 0.930 . S
H1398 C1411 0.930 . S
H1399 C1415 0.959 . S
H1400 C1415 0.959 . S
H1401 C1415 0.961 . S
H1402 C1416 0.960 . S
H1403 C1416 0.961 . S
H1404 C1416 0.959 . S
H1405 C1419 0.929 . S
H1406 C1420 0.931 . S
H1407 C1422 0.930 . S
C1408 H1396 0.930 . S
C1408 C1409 1.399 . S
C1408 C1413 1.399 . S
C1409 C1408 1.399 . S
C1409 C1410 1.376 . S
C1410 H1397 0.930 . S
C1410 C1409 1.376 . S
C1410 C1411 1.388 . S
C1411 H1398 0.930 . S
C1411 C1410 1.388 . S
C1411 C1412 1.390 . S
C1412 C1411 1.390 . S
C1412 C1413 1.394 . S
C1412 C1418 1.465 . S
C1413 C1408 1.399 . S
C1413 C1412 1.394 . S
C1413 C1414 1.516 . S
C1414 C1413 1.516 . S
C1414 C1415 1.502 . S
C1414 C1416 1.561 . S
C1414 C1417 1.526 . S
C1415 H1399 0.959 . S
C1415 H1400 0.959 . S
C1415 H1401 0.961 . S
C1415 C1414 1.502 . S
C1416 H1402 0.960 . S
C1416 H1403 0.961 . S
C1416 H1404 0.959 . S
C1416 C1414 1.561 . S
C1417 C1414 1.526 . S
C1417 C1418 1.396 . S
C1417 C1422 1.390 . S
C1418 C1412 1.465 . S
C1418 C1417 1.396 . S
C1418 C1419 1.399 . S
C1419 H1405 0.929 . S
C1419 C1418 1.399 . S
C1419 C1420 1.385 . S
C1420 H1406 0.931 . S
C1420 C1419 1.385 . S
C1420 C1421 1.389 . S
C1421 C1420 1.389 . S
C1421 C1422 1.387 . S
C1422 H1407 0.930 . S
C1422 C1417 1.390 . S
C1422 C1421 1.387 . S
H1423 C1435 0.930 . S
H1424 C1437 0.930 . S
H1425 C1438 0.930 . S
H1426 C1442 0.959 . S
H1427 C1442 0.959 . S
H1428 C1442 0.961 . S
H1429 C1443 0.960 . S
H1430 C1443 0.961 . S
H1431 C1443 0.959 . S
H1432 C1446 0.929 . S
H1433 C1447 0.931 . S
H1434 C1449 0.930 . S
C1435 H1423 0.930 . S
C1435 C1436 1.399 . S
C1435 C1440 1.399 . S
C1436 C1435 1.399 . S
C1436 C1437 1.376 . S
C1437 H1424 0.930 . S
C1437 C1436 1.376 . S
C1437 C1438 1.388 . S
C1438 H1425 0.930 . S
C1438 C1437 1.388 . S
C1438 C1439 1.390 . S
C1439 C1438 1.390 . S
C1439 C1440 1.394 . S
C1439 C1445 1.465 . S
C1440 C1435 1.399 . S
C1440 C1439 1.394 . S
C1440 C1441 1.516 . S
C1441 C1440 1.516 . S
C1441 C1442 1.502 . S
C1441 C1443 1.561 . S
C1441 C1444 1.526 . S
C1442 H1426 0.959 . S
C1442 H1427 0.959 . S
C1442 H1428 0.961 . S
C1442 C1441 1.502 . S
C1443 H1429 0.960 . S
C1443 H1430 0.961 . S
C1443 H1431 0.959 . S
C1443 C1441 1.561 . S
C1444 C1441 1.526 . S
C1444 C1445 1.396 . S
C1444 C1449 1.390 . S
C1445 C1439 1.465 . S
C1445 C1444 1.396 . S
C1445 C1446 1.399 . S
C1446 H1432 0.929 . S
C1446 C1445 1.399 . S
C1446 C1447 1.385 . S
C1447 H1433 0.931 . S
C1447 C1446 1.385 . S
C1447 C1448 1.389 . S
C1448 C1447 1.389 . S
C1448 C1449 1.387 . S
C1449 H1434 0.930 . S
C1449 C1444 1.390 . S
C1449 C1448 1.387 . S
H1450 C1462 0.930 . S
H1451 C1464 0.930 . S
H1452 C1465 0.930 . S
H1453 C1469 0.959 . S
H1454 C1469 0.959 . S
H1455 C1469 0.961 . S
H1456 C1470 0.960 . S
H1457 C1470 0.961 . S
H1458 C1470 0.959 . S
H1459 C1473 0.929 . S
H1460 C1474 0.931 . S
H1461 C1476 0.930 . S
C1462 H1450 0.930 . S
C1462 C1463 1.399 . S
C1462 C1467 1.399 . S
C1463 C1462 1.399 . S
C1463 C1464 1.376 . S
C1464 H1451 0.930 . S
C1464 C1463 1.376 . S
C1464 C1465 1.388 . S
C1465 H1452 0.930 . S
C1465 C1464 1.388 . S
C1465 C1466 1.390 . S
C1466 C1465 1.390 . S
C1466 C1467 1.394 . S
C1466 C1472 1.465 . S
C1467 C1462 1.399 . S
C1467 C1466 1.394 . S
C1467 C1468 1.516 . S
C1468 C1467 1.516 . S
C1468 C1469 1.502 . S
C1468 C1470 1.561 . S
C1468 C1471 1.526 . S
C1469 H1453 0.959 . S
C1469 H1454 0.959 . S
C1469 H1455 0.961 . S
C1469 C1468 1.502 . S
C1470 H1456 0.960 . S
C1470 H1457 0.961 . S
C1470 H1458 0.959 . S
C1470 C1468 1.561 . S
C1471 C1468 1.526 . S
C1471 C1472 1.396 . S
C1471 C1476 1.390 . S
C1472 C1466 1.465 . S
C1472 C1471 1.396 . S
C1472 C1473 1.399 . S
C1473 H1459 0.929 . S
C1473 C1472 1.399 . S
C1473 C1474 1.385 . S
C1474 H1460 0.931 . S
C1474 C1473 1.385 . S
C1474 C1475 1.389 . S
C1475 C1474 1.389 . S
C1475 C1476 1.387 . S
C1476 H1461 0.930 . S
C1476 C1471 1.390 . S
C1476 C1475 1.387 . S
H1477 C1489 0.930 . S
H1478 C1491 0.930 . S
H1479 C1492 0.930 . S
H1480 C1496 0.959 . S
H1481 C1496 0.959 . S
H1482 C1496 0.961 . S
H1483 C1497 0.960 . S
H1484 C1497 0.961 . S
H1485 C1497 0.959 . S
H1486 C1500 0.929 . S
H1487 C1501 0.931 . S
H1488 C1503 0.930 . S
C1489 H1477 0.930 . S
C1489 C1490 1.399 . S
C1489 C1494 1.399 . S
C1490 C1489 1.399 . S
C1490 C1491 1.376 . S
C1491 H1478 0.930 . S
C1491 C1490 1.376 . S
C1491 C1492 1.388 . S
C1492 H1479 0.930 . S
C1492 C1491 1.388 . S
C1492 C1493 1.390 . S
C1493 C1492 1.390 . S
C1493 C1494 1.394 . S
C1493 C1499 1.465 . S
C1494 C1489 1.399 . S
C1494 C1493 1.394 . S
C1494 C1495 1.516 . S
C1495 C1494 1.516 . S
C1495 C1496 1.502 . S
C1495 C1497 1.561 . S
C1495 C1498 1.526 . S
C1496 H1480 0.959 . S
C1496 H1481 0.959 . S
C1496 H1482 0.961 . S
C1496 C1495 1.502 . S
C1497 H1483 0.960 . S
C1497 H1484 0.961 . S
C1497 H1485 0.959 . S
C1497 C1495 1.561 . S
C1498 C1495 1.526 . S
C1498 C1499 1.396 . S
C1498 C1503 1.390 . S
C1499 C1493 1.465 . S
C1499 C1498 1.396 . S
C1499 C1500 1.399 . S
C1500 H1486 0.929 . S
C1500 C1499 1.399 . S
C1500 C1501 1.385 . S
C1501 H1487 0.931 . S
C1501 C1500 1.385 . S
C1501 C1502 1.389 . S
C1502 C1501 1.389 . S
C1502 C1503 1.387 . S
C1503 H1488 0.930 . S
C1503 C1498 1.390 . S
C1503 C1502 1.387 . S
H1504 C1516 0.930 . S
H1505 C1518 0.930 . S
H1506 C1519 0.930 . S
H1507 C1523 0.959 . S
H1508 C1523 0.959 . S
H1509 C1523 0.961 . S
H1510 C1524 0.960 . S
H1511 C1524 0.961 . S
H1512 C1524 0.959 . S
H1513 C1527 0.929 . S
H1514 C1528 0.931 . S
H1515 C1530 0.930 . S
C1516 H1504 0.930 . S
C1516 C1517 1.399 1_556 S
C1516 C1521 1.399 . S
C1517 C1516 1.399 1_554 S
C1517 C1518 1.376 . S
C1518 H1505 0.930 . S
C1518 C1517 1.376 . S
C1518 C1519 1.388 1_554 S
C1519 H1506 0.930 . S
C1519 C1518 1.388 1_556 S
C1519 C1520 1.390 . S
C1520 C1519 1.390 . S
C1520 C1521 1.394 . S
C1520 C1526 1.465 . S
C1521 C1516 1.399 . S
C1521 C1520 1.394 . S
C1521 C1522 1.516 . S
C1522 C1521 1.516 . S
C1522 C1523 1.502 . S
C1522 C1524 1.561 . S
C1522 C1525 1.526 . S
C1523 H1507 0.959 . S
C1523 H1508 0.959 . S
C1523 H1509 0.961 . S
C1523 C1522 1.502 . S
C1524 H1510 0.960 . S
C1524 H1511 0.961 . S
C1524 H1512 0.959 . S
C1524 C1522 1.561 . S
C1525 C1522 1.526 . S
C1525 C1526 1.396 . S
C1525 C1530 1.390 . S
C1526 C1520 1.465 . S
C1526 C1525 1.396 . S
C1526 C1527 1.399 . S
C1527 H1513 0.929 . S
C1527 C1526 1.399 . S
C1527 C1528 1.385 . S
C1528 H1514 0.931 . S
C1528 C1527 1.385 . S
C1528 C1529 1.389 . S
C1529 C1528 1.389 . S
C1529 C1530 1.387 . S
C1530 H1515 0.930 . S
C1530 C1525 1.390 . S
C1530 C1529 1.387 . S
H1531 C1543 0.930 . S
H1532 C1545 0.930 . S
H1533 C1546 0.930 . S
H1534 C1550 0.959 . S
H1535 C1550 0.959 . S
H1536 C1550 0.961 . S
H1537 C1551 0.960 . S
H1538 C1551 0.961 . S
H1539 C1551 0.959 . S
H1540 C1554 0.929 . S
H1541 C1555 0.931 . S
H1542 C1557 0.930 . S
C1543 H1531 0.930 . S
C1543 C1544 1.399 . S
C1543 C1548 1.399 . S
C1544 C1543 1.399 . S
C1544 C1545 1.376 . S
C1545 H1532 0.930 . S
C1545 C1544 1.376 . S
C1545 C1546 1.388 . S
C1546 H1533 0.930 . S
C1546 C1545 1.388 . S
C1546 C1547 1.390 . S
C1547 C1546 1.390 . S
C1547 C1548 1.394 . S
C1547 C1553 1.465 . S
C1548 C1543 1.399 . S
C1548 C1547 1.394 . S
C1548 C1549 1.516 . S
C1549 C1548 1.516 . S
C1549 C1550 1.502 . S
C1549 C1551 1.561 . S
C1549 C1552 1.526 . S
C1550 H1534 0.959 . S
C1550 H1535 0.959 . S
C1550 H1536 0.961 . S
C1550 C1549 1.502 . S
C1551 H1537 0.960 . S
C1551 H1538 0.961 . S
C1551 H1539 0.959 . S
C1551 C1549 1.561 . S
C1552 C1549 1.526 . S
C1552 C1553 1.396 . S
C1552 C1557 1.390 . S
C1553 C1547 1.465 . S
C1553 C1552 1.396 . S
C1553 C1554 1.399 . S
C1554 H1540 0.929 . S
C1554 C1553 1.399 . S
C1554 C1555 1.385 . S
C1555 H1541 0.931 . S
C1555 C1554 1.385 . S
C1555 C1556 1.389 . S
C1556 C1555 1.389 . S
C1556 C1557 1.387 . S
C1557 H1542 0.930 . S
C1557 C1552 1.390 . S
C1557 C1556 1.387 . S
H1558 C1570 0.930 . S
H1559 C1572 0.930 . S
H1560 C1573 0.930 . S
H1561 C1577 0.959 . S
H1562 C1577 0.959 . S
H1563 C1577 0.961 . S
H1564 C1578 0.960 . S
H1565 C1578 0.961 . S
H1566 C1578 0.959 . S
H1567 C1581 0.929 . S
H1568 C1582 0.931 . S
H1569 C1584 0.930 . S
C1570 H1558 0.930 . S
C1570 C1571 1.399 . S
C1570 C1575 1.399 . S
C1571 C1570 1.399 . S
C1571 C1572 1.376 . S
C1572 H1559 0.930 . S
C1572 C1571 1.376 . S
C1572 C1573 1.388 . S
C1573 H1560 0.930 . S
C1573 C1572 1.388 . S
C1573 C1574 1.390 . S
C1574 C1573 1.390 . S
C1574 C1575 1.394 . S
C1574 C1580 1.465 . S
C1575 C1570 1.399 . S
C1575 C1574 1.394 . S
C1575 C1576 1.516 . S
C1576 C1575 1.516 . S
C1576 C1577 1.502 . S
C1576 C1578 1.561 . S
C1576 C1579 1.526 . S
C1577 H1561 0.959 . S
C1577 H1562 0.959 . S
C1577 H1563 0.961 . S
C1577 C1576 1.502 . S
C1578 H1564 0.960 . S
C1578 H1565 0.961 . S
C1578 H1566 0.959 . S
C1578 C1576 1.561 . S
C1579 C1576 1.526 . S
C1579 C1580 1.396 . S
C1579 C1584 1.390 . S
C1580 C1574 1.465 . S
C1580 C1579 1.396 . S
C1580 C1581 1.399 . S
C1581 H1567 0.929 . S
C1581 C1580 1.399 . S
C1581 C1582 1.385 . S
C1582 H1568 0.931 . S
C1582 C1581 1.385 . S
C1582 C1583 1.389 . S
C1583 C1582 1.389 . S
C1583 C1584 1.387 . S
C1584 H1569 0.930 . S
C1584 C1579 1.390 . S
C1584 C1583 1.387 . S
H1585 C1597 0.930 . S
H1586 C1599 0.930 . S
H1587 C1600 0.930 . S
H1588 C1604 0.959 . S
H1589 C1604 0.959 . S
H1590 C1604 0.961 . S
H1591 C1605 0.960 . S
H1592 C1605 0.961 . S
H1593 C1605 0.959 . S
H1594 C1608 0.929 . S
H1595 C1609 0.931 . S
H1596 C1611 0.930 . S
C1597 H1585 0.930 . S
C1597 C1598 1.399 . S
C1597 C1602 1.399 . S
C1598 C1597 1.399 . S
C1598 C1599 1.376 . S
C1599 H1586 0.930 . S
C1599 C1598 1.376 . S
C1599 C1600 1.388 . S
C1600 H1587 0.930 . S
C1600 C1599 1.388 . S
C1600 C1601 1.390 . S
C1601 C1600 1.390 . S
C1601 C1602 1.394 . S
C1601 C1607 1.465 . S
C1602 C1597 1.399 . S
C1602 C1601 1.394 . S
C1602 C1603 1.516 . S
C1603 C1602 1.516 . S
C1603 C1604 1.502 . S
C1603 C1605 1.561 . S
C1603 C1606 1.526 . S
C1604 H1588 0.959 . S
C1604 H1589 0.959 . S
C1604 H1590 0.961 . S
C1604 C1603 1.502 . S
C1605 H1591 0.960 . S
C1605 H1592 0.961 . S
C1605 H1593 0.959 . S
C1605 C1603 1.561 . S
C1606 C1603 1.526 . S
C1606 C1607 1.396 . S
C1606 C1611 1.390 . S
C1607 C1601 1.465 . S
C1607 C1606 1.396 . S
C1607 C1608 1.399 . S
C1608 H1594 0.929 . S
C1608 C1607 1.399 . S
C1608 C1609 1.385 . S
C1609 H1595 0.931 . S
C1609 C1608 1.385 . S
C1609 C1610 1.389 . S
C1610 C1609 1.389 . S
C1610 C1611 1.387 . S
C1611 H1596 0.930 . S
C1611 C1606 1.390 . S
C1611 C1610 1.387 . S
H1612 C1624 0.930 . S
H1613 C1626 0.930 . S
H1614 C1627 0.930 . S
H1615 C1631 0.959 . S
H1616 C1631 0.959 . S
H1617 C1631 0.961 . S
H1618 C1632 0.960 . S
H1619 C1632 0.961 . S
H1620 C1632 0.959 . S
H1621 C1635 0.929 . S
H1622 C1636 0.944 . S
H1623 C1638 0.914 1_556 S
C1624 H1612 0.930 . S
C1624 C1625 1.399 . S
C1624 C1629 1.399 . S
C1625 C1624 1.399 . S
C1625 C1626 1.376 . S
C1626 H1613 0.930 . S
C1626 C1625 1.376 . S
C1626 C1627 1.388 . S
C1627 H1614 0.930 . S
C1627 C1626 1.388 . S
C1627 C1628 1.390 . S
C1628 C1627 1.390 . S
C1628 C1629 1.394 . S
C1628 C1634 1.465 . S
C1629 C1624 1.399 . S
C1629 C1628 1.394 . S
C1629 C1630 1.516 . S
C1630 C1629 1.516 . S
C1630 C1631 1.502 . S
C1630 C1632 1.561 . S
C1630 C1633 1.526 . S
C1631 H1615 0.959 . S
C1631 H1616 0.959 . S
C1631 H1617 0.961 . S
C1631 C1630 1.502 . S
C1632 H1618 0.960 . S
C1632 H1619 0.961 . S
C1632 H1620 0.959 . S
C1632 C1630 1.561 . S
C1633 C1630 1.526 . S
C1633 C1634 1.396 . S
C1633 C1638 1.427 . S
C1634 C1628 1.465 . S
C1634 C1633 1.396 . S
C1634 C1635 1.399 . S
C1635 H1621 0.929 . S
C1635 C1634 1.399 . S
C1635 C1636 1.362 1_554 S
C1636 H1622 0.944 . S
C1636 C1635 1.362 1_556 S
C1636 C1637 1.400 . S
C1637 C1636 1.400 . S
C1637 C1638 1.367 1_556 S
C1638 H1623 0.914 1_554 S
C1638 C1633 1.427 . S
C1638 C1637 1.367 1_554 S
H1639 C1651 0.930 . S
H1640 C1653 0.930 . S
H1641 C1654 0.930 . S
H1642 C1658 0.959 . S
H1643 C1658 0.959 . S
H1644 C1658 0.961 . S
H1645 C1659 0.960 . S
H1646 C1659 0.961 . S
H1647 C1659 0.959 . S
H1648 C1662 0.929 . S
H1649 C1663 0.931 . S
H1650 C1665 0.930 . S
C1651 H1639 0.930 . S
C1651 C1652 1.399 . S
C1651 C1656 1.399 . S
C1652 C1651 1.399 . S
C1652 C1653 1.376 . S
C1653 H1640 0.930 . S
C1653 C1652 1.376 . S
C1653 C1654 1.388 . S
C1654 H1641 0.930 . S
C1654 C1653 1.388 . S
C1654 C1655 1.390 . S
C1655 C1654 1.390 . S
C1655 C1656 1.394 . S
C1655 C1661 1.465 . S
C1656 C1651 1.399 . S
C1656 C1655 1.394 . S
C1656 C1657 1.516 . S
C1657 C1656 1.516 . S
C1657 C1658 1.502 . S
C1657 C1659 1.561 . S
C1657 C1660 1.526 . S
C1658 H1642 0.959 . S
C1658 H1643 0.959 . S
C1658 H1644 0.961 . S
C1658 C1657 1.502 . S
C1659 H1645 0.960 . S
C1659 H1646 0.961 . S
C1659 H1647 0.959 . S
C1659 C1657 1.561 . S
C1660 C1657 1.526 . S
C1660 C1661 1.396 . S
C1660 C1665 1.390 . S
C1661 C1655 1.465 . S
C1661 C1660 1.396 . S
C1661 C1662 1.399 . S
C1662 H1648 0.929 . S
C1662 C1661 1.399 . S
C1662 C1663 1.385 . S
C1663 H1649 0.931 . S
C1663 C1662 1.385 . S
C1663 C1664 1.389 . S
C1664 C1663 1.389 . S
C1664 C1665 1.387 . S
C1665 H1650 0.930 . S
C1665 C1660 1.390 . S
C1665 C1664 1.387 . S
H1666 C1678 0.930 . S
H1667 C1680 0.930 . S
H1668 C1681 0.930 . S
H1669 C1685 0.959 . S
H1670 C1685 0.959 . S
H1671 C1685 0.961 . S
H1672 C1686 0.960 . S
H1673 C1686 0.961 . S
H1674 C1686 0.959 . S
H1675 C1689 0.929 . S
H1676 C1690 0.931 . S
H1677 C1692 0.930 . S
C1678 H1666 0.930 . S
C1678 C1679 1.399 . S
C1678 C1683 1.399 . S
C1679 C1678 1.399 . S
C1679 C1680 1.376 . S
C1680 H1667 0.930 . S
C1680 C1679 1.376 . S
C1680 C1681 1.388 . S
C1681 H1668 0.930 . S
C1681 C1680 1.388 . S
C1681 C1682 1.390 . S
C1682 C1681 1.390 . S
C1682 C1683 1.394 . S
C1682 C1688 1.465 . S
C1683 C1678 1.399 . S
C1683 C1682 1.394 . S
C1683 C1684 1.516 . S
C1684 C1683 1.516 . S
C1684 C1685 1.502 . S
C1684 C1686 1.561 . S
C1684 C1687 1.526 . S
C1685 H1669 0.959 . S
C1685 H1670 0.959 . S
C1685 H1671 0.961 . S
C1685 C1684 1.502 . S
C1686 H1672 0.960 . S
C1686 H1673 0.961 . S
C1686 H1674 0.959 . S
C1686 C1684 1.561 . S
C1687 C1684 1.526 . S
C1687 C1688 1.396 . S
C1687 C1692 1.390 . S
C1688 C1682 1.465 . S
C1688 C1687 1.396 . S
C1688 C1689 1.399 . S
C1689 H1675 0.929 . S
C1689 C1688 1.399 . S
C1689 C1690 1.385 . S
C1690 H1676 0.931 . S
C1690 C1689 1.385 . S
C1690 C1691 1.389 . S
C1691 C1690 1.389 . S
C1691 C1692 1.387 . S
C1692 H1677 0.930 . S
C1692 C1687 1.390 . S
C1692 C1691 1.387 . S
H1693 C1705 0.930 . S
H1694 C1707 0.930 . S
H1695 C1708 0.930 . S
H1696 C1712 0.959 . S
H1697 C1712 0.959 . S
H1698 C1712 0.961 . S
H1699 C1713 0.960 . S
H1700 C1713 0.961 . S
H1701 C1713 0.959 . S
H1702 C1716 0.929 . S
H1703 C1717 0.931 . S
H1704 C1719 0.930 . S
C1705 H1693 0.930 . S
C1705 C1706 1.399 . S
C1705 C1710 1.399 . S
C1706 C1705 1.399 . S
C1706 C1707 1.376 . S
C1707 H1694 0.930 . S
C1707 C1706 1.376 . S
C1707 C1708 1.388 . S
C1708 H1695 0.930 . S
C1708 C1707 1.388 . S
C1708 C1709 1.390 . S
C1709 C1708 1.390 . S
C1709 C1710 1.394 . S
C1709 C1715 1.465 . S
C1710 C1705 1.399 . S
C1710 C1709 1.394 . S
C1710 C1711 1.516 . S
C1711 C1710 1.516 . S
C1711 C1712 1.502 . S
C1711 C1713 1.561 . S
C1711 C1714 1.526 . S
C1712 H1696 0.959 . S
C1712 H1697 0.959 . S
C1712 H1698 0.961 . S
C1712 C1711 1.502 . S
C1713 H1699 0.960 . S
C1713 H1700 0.961 . S
C1713 H1701 0.959 . S
C1713 C1711 1.561 . S
C1714 C1711 1.526 . S
C1714 C1715 1.396 . S
C1714 C1719 1.390 . S
C1715 C1709 1.465 . S
C1715 C1714 1.396 . S
C1715 C1716 1.399 . S
C1716 H1702 0.929 . S
C1716 C1715 1.399 . S
C1716 C1717 1.385 . S
C1717 H1703 0.931 . S
C1717 C1716 1.385 . S
C1717 C1718 1.389 . S
C1718 C1717 1.389 . S
C1718 C1719 1.387 . S
C1719 H1704 0.930 . S
C1719 C1714 1.390 . S
C1719 C1718 1.387 . S
H1720 C1732 0.930 . S
H1721 C1734 0.930 . S
H1722 C1735 0.930 . S
H1723 C1739 0.959 . S
H1724 C1739 0.959 . S
H1725 C1739 0.961 . S
H1726 C1740 0.960 . S
H1727 C1740 0.961 . S
H1728 C1740 0.959 . S
H1729 C1743 0.929 . S
H1730 C1744 0.931 . S
H1731 C1746 0.930 . S
C1732 H1720 0.930 . S
C1732 C1733 1.399 . S
C1732 C1737 1.399 . S
C1733 C1732 1.399 . S
C1733 C1734 1.376 . S
C1734 H1721 0.930 . S
C1734 C1733 1.376 . S
C1734 C1735 1.388 . S
C1735 H1722 0.930 . S
C1735 C1734 1.388 . S
C1735 C1736 1.390 . S
C1736 C1735 1.390 . S
C1736 C1737 1.394 . S
C1736 C1742 1.465 . S
C1737 C1732 1.399 . S
C1737 C1736 1.394 . S
C1737 C1738 1.516 . S
C1738 C1737 1.516 . S
C1738 C1739 1.502 . S
C1738 C1740 1.561 . S
C1738 C1741 1.526 . S
C1739 H1723 0.959 . S
C1739 H1724 0.959 . S
C1739 H1725 0.961 . S
C1739 C1738 1.502 . S
C1740 H1726 0.960 . S
C1740 H1727 0.961 . S
C1740 H1728 0.959 . S
C1740 C1738 1.561 . S
C1741 C1738 1.526 . S
C1741 C1742 1.396 . S
C1741 C1746 1.390 . S
C1742 C1736 1.465 . S
C1742 C1741 1.396 . S
C1742 C1743 1.399 . S
C1743 H1729 0.929 . S
C1743 C1742 1.399 . S
C1743 C1744 1.385 . S
C1744 H1730 0.931 . S
C1744 C1743 1.385 . S
C1744 C1745 1.389 . S
C1745 C1744 1.389 . S
C1745 C1746 1.387 . S
C1746 H1731 0.930 . S
C1746 C1741 1.390 . S
C1746 C1745 1.387 . S
H1747 C1759 0.930 . S
H1748 C1761 0.930 . S
H1749 C1762 0.930 . S
H1750 C1766 0.959 . S
H1751 C1766 0.959 . S
H1752 C1766 0.961 . S
H1753 C1767 0.960 . S
H1754 C1767 0.961 . S
H1755 C1767 0.959 . S
H1756 C1770 0.929 1_545 S
H1757 C1771 0.931 . S
H1758 C1773 0.930 . S
C1759 H1747 0.930 . S
C1759 C1760 1.399 . S
C1759 C1764 1.399 . S
C1760 C1759 1.399 . S
C1760 C1761 1.376 . S
C1761 H1748 0.930 . S
C1761 C1760 1.376 . S
C1761 C1762 1.388 . S
C1762 H1749 0.930 . S
C1762 C1761 1.388 . S
C1762 C1763 1.390 . S
C1763 C1762 1.390 . S
C1763 C1764 1.394 . S
C1763 C1769 1.465 . S
C1764 C1759 1.399 . S
C1764 C1763 1.394 . S
C1764 C1765 1.516 . S
C1765 C1764 1.516 . S
C1765 C1766 1.502 . S
C1765 C1767 1.561 . S
C1765 C1768 1.526 . S
C1766 H1750 0.959 . S
C1766 H1751 0.959 . S
C1766 H1752 0.961 . S
C1766 C1765 1.502 . S
C1767 H1753 0.960 . S
C1767 H1754 0.961 . S
C1767 H1755 0.959 . S
C1767 C1765 1.561 . S
C1768 C1765 1.526 . S
C1768 C1769 1.396 . S
C1768 C1773 1.390 . S
C1769 C1763 1.465 . S
C1769 C1768 1.396 . S
C1769 C1770 1.399 . S
C1770 H1756 0.929 1_565 S
C1770 C1769 1.399 . S
C1770 C1771 1.385 1_565 S
C1771 H1757 0.931 . S
C1771 C1770 1.385 1_545 S
C1771 C1772 1.389 1_545 S
C1772 C1771 1.389 1_565 S
C1772 C1773 1.387 . S
C1773 H1758 0.930 . S
C1773 C1768 1.390 . S
C1773 C1772 1.387 . S
H1774 C1786 0.930 . S
H1775 C1788 0.930 . S
H1776 C1789 0.930 . S
H1777 C1793 0.959 . S
H1778 C1793 0.959 1_554 S
H1779 C1793 0.961 . S
H1780 C1794 0.960 . S
H1781 C1794 0.961 . S
H1782 C1794 0.959 . S
H1783 C1797 0.929 . S
H1784 C1798 0.931 . S
H1785 C1800 0.930 . S
C1786 H1774 0.930 . S
C1786 C1787 1.399 . S
C1786 C1791 1.399 . S
C1787 C1786 1.399 . S
C1787 C1788 1.376 . S
C1788 H1775 0.930 . S
C1788 C1787 1.376 . S
C1788 C1789 1.388 . S
C1789 H1776 0.930 . S
C1789 C1788 1.388 . S
C1789 C1790 1.390 . S
C1790 C1789 1.390 . S
C1790 C1791 1.394 . S
C1790 C1796 1.465 . S
C1791 C1786 1.399 . S
C1791 C1790 1.394 . S
C1791 C1792 1.516 . S
C1792 C1791 1.516 . S
C1792 C1793 1.502 . S
C1792 C1794 1.561 . S
C1792 C1795 1.526 . S
C1793 H1777 0.959 . S
C1793 H1778 0.959 1_556 S
C1793 H1779 0.961 . S
C1793 C1792 1.502 . S
C1794 H1780 0.960 . S
C1794 H1781 0.961 . S
C1794 H1782 0.959 . S
C1794 C1792 1.561 . S
C1795 C1792 1.526 . S
C1795 C1796 1.396 . S
C1795 C1800 1.390 1_556 S
C1796 C1790 1.465 . S
C1796 C1795 1.396 . S
C1796 C1797 1.399 . S
C1797 H1783 0.929 . S
C1797 C1796 1.399 . S
C1797 C1798 1.385 . S
C1798 H1784 0.931 . S
C1798 C1797 1.385 . S
C1798 C1799 1.389 1_556 S
C1799 C1798 1.389 1_554 S
C1799 C1800 1.387 . S
C1800 H1785 0.930 . S
C1800 C1795 1.390 1_554 S
C1800 C1799 1.387 . S
H1801 C1813 0.930 . S
H1802 C1815 0.921 1_565 S
H1803 C1816 0.930 . S
H1804 C1820 0.959 . S
H1805 C1820 0.959 . S
H1806 C1820 0.961 . S
H1807 C1821 0.960 . S
H1808 C1821 0.961 . S
H1809 C1821 0.959 . S
H1810 C1824 0.929 . S
H1811 C1825 0.931 . S
H1812 C1827 0.930 . S
C1813 H1801 0.930 . S
C1813 C1814 1.399 . S
C1813 C1818 1.399 . S
C1814 C1813 1.399 . S
C1814 C1815 1.378 . S
C1815 H1802 0.921 1_545 S
C1815 C1814 1.378 . S
C1815 C1816 1.396 . S
C1816 H1803 0.930 . S
C1816 C1815 1.396 . S
C1816 C1817 1.390 . S
C1817 C1816 1.390 . S
C1817 C1818 1.394 . S
C1817 C1823 1.465 . S
C1818 C1813 1.399 . S
C1818 C1817 1.394 . S
C1818 C1819 1.516 . S
C1819 C1818 1.516 . S
C1819 C1820 1.502 . S
C1819 C1821 1.561 . S
C1819 C1822 1.526 . S
C1820 H1804 0.959 . S
C1820 H1805 0.959 . S
C1820 H1806 0.961 . S
C1820 C1819 1.502 . S
C1821 H1807 0.960 . S
C1821 H1808 0.961 . S
C1821 H1809 0.959 . S
C1821 C1819 1.561 . S
C1822 C1819 1.526 . S
C1822 C1823 1.396 . S
C1822 C1827 1.390 . S
C1823 C1817 1.465 . S
C1823 C1822 1.396 . S
C1823 C1824 1.399 . S
C1824 H1810 0.929 . S
C1824 C1823 1.399 . S
C1824 C1825 1.385 . S
C1825 H1811 0.931 . S
C1825 C1824 1.385 . S
C1825 C1826 1.389 . S
C1826 C1825 1.389 . S
C1826 C1827 1.387 . S
C1827 H1812 0.930 . S
C1827 C1822 1.390 . S
C1827 C1826 1.387 . S
H1828 C1840 0.930 . S
H1829 C1842 0.930 . S
H1830 C1843 0.930 . S
H1831 C1847 0.959 . S
H1832 C1847 0.959 . S
H1833 C1847 0.961 . S
H1834 C1848 0.960 . S
H1835 C1848 0.961 . S
H1836 C1848 0.959 . S
H1837 C1851 0.929 . S
H1838 C1852 0.931 . S
H1839 C1854 0.930 . S
C1840 H1828 0.930 . S
C1840 C1841 1.399 . S
C1840 C1845 1.399 . S
C1841 C1840 1.399 . S
C1841 C1842 1.376 . S
C1842 H1829 0.930 . S
C1842 C1841 1.376 . S
C1842 C1843 1.388 . S
C1843 H1830 0.930 . S
C1843 C1842 1.388 . S
C1843 C1844 1.390 . S
C1844 C1843 1.390 . S
C1844 C1845 1.394 . S
C1844 C1850 1.465 . S
C1845 C1840 1.399 . S
C1845 C1844 1.394 . S
C1845 C1846 1.516 . S
C1846 C1845 1.516 . S
C1846 C1847 1.502 . S
C1846 C1848 1.561 . S
C1846 C1849 1.526 . S
C1847 H1831 0.959 . S
C1847 H1832 0.959 . S
C1847 H1833 0.961 . S
C1847 C1846 1.502 . S
C1848 H1834 0.960 . S
C1848 H1835 0.961 . S
C1848 H1836 0.959 . S
C1848 C1846 1.561 . S
C1849 C1846 1.526 . S
C1849 C1850 1.396 . S
C1849 C1854 1.390 . S
C1850 C1844 1.465 . S
C1850 C1849 1.396 . S
C1850 C1851 1.399 . S
C1851 H1837 0.929 . S
C1851 C1850 1.399 . S
C1851 C1852 1.385 . S
C1852 H1838 0.931 . S
C1852 C1851 1.385 . S
C1852 C1853 1.389 . S
C1853 C1852 1.389 . S
C1853 C1854 1.387 . S
C1854 H1839 0.930 . S
C1854 C1849 1.390 . S
C1854 C1853 1.387 . S
H1855 C1867 0.930 . S
H1856 C1869 0.930 . S
H1857 C1870 0.930 . S
H1858 C1874 0.957 1_545 S
H1859 C1874 0.964 . S
H1860 C1874 0.960 1_545 S
H1861 C1875 0.960 . S
H1862 C1875 0.961 1_565 S
H1863 C1875 0.959 . S
H1864 C1878 0.929 . S
H1865 C1879 0.931 . S
H1866 C1881 0.930 . S
C1867 H1855 0.930 . S
C1867 C1868 1.399 . S
C1867 C1872 1.399 . S
C1868 C1867 1.399 . S
C1868 C1869 1.376 . S
C1869 H1856 0.930 . S
C1869 C1868 1.376 . S
C1869 C1870 1.388 . S
C1870 H1857 0.930 . S
C1870 C1869 1.388 . S
C1870 C1871 1.390 . S
C1871 C1870 1.390 . S
C1871 C1872 1.394 . S
C1871 C1877 1.465 . S
C1872 C1867 1.399 . S
C1872 C1871 1.394 . S
C1872 C1873 1.516 . S
C1873 C1872 1.516 . S
C1873 C1874 1.499 1_545 S
C1873 C1875 1.561 . S
C1873 C1876 1.526 . S
C1874 H1858 0.957 1_565 S
C1874 H1859 0.964 . S
C1874 H1860 0.960 1_565 S
C1874 C1873 1.499 1_565 S
C1875 H1861 0.960 . S
C1875 H1862 0.961 1_545 S
C1875 H1863 0.959 . S
C1875 C1873 1.561 . S
C1876 C1873 1.526 . S
C1876 C1877 1.396 . S
C1876 C1881 1.390 1_545 S
C1877 C1871 1.465 . S
C1877 C1876 1.396 . S
C1877 C1878 1.399 . S
C1878 H1864 0.929 . S
C1878 C1877 1.399 . S
C1878 C1879 1.385 . S
C1879 H1865 0.931 . S
C1879 C1878 1.385 . S
C1879 C1880 1.389 . S
C1880 C1879 1.389 . S
C1880 C1881 1.387 1_545 S
C1881 H1866 0.930 . S
C1881 C1876 1.390 1_565 S
C1881 C1880 1.387 1_565 S
H1882 C1894 0.930 . S
H1883 C1896 0.930 . S
H1884 C1897 0.930 . S
H1885 C1901 0.959 . S
H1886 C1901 0.959 . S
H1887 C1901 0.961 . S
H1888 C1902 0.960 . S
H1889 C1902 0.961 . S
H1890 C1902 0.959 . S
H1891 C1905 0.929 . S
H1892 C1906 0.931 . S
H1893 C1908 0.930 . S
C1894 H1882 0.930 . S
C1894 C1895 1.399 . S
C1894 C1899 1.399 . S
C1895 C1894 1.399 . S
C1895 C1896 1.376 . S
C1896 H1883 0.930 . S
C1896 C1895 1.376 . S
C1896 C1897 1.388 . S
C1897 H1884 0.930 . S
C1897 C1896 1.388 . S
C1897 C1898 1.390 . S
C1898 C1897 1.390 . S
C1898 C1899 1.394 . S
C1898 C1904 1.465 . S
C1899 C1894 1.399 . S
C1899 C1898 1.394 . S
C1899 C1900 1.516 . S
C1900 C1899 1.516 . S
C1900 C1901 1.502 . S
C1900 C1902 1.561 . S
C1900 C1903 1.526 . S
C1901 H1885 0.959 . S
C1901 H1886 0.959 . S
C1901 H1887 0.961 . S
C1901 C1900 1.502 . S
C1902 H1888 0.960 . S
C1902 H1889 0.961 . S
C1902 H1890 0.959 . S
C1902 C1900 1.561 . S
C1903 C1900 1.526 . S
C1903 C1904 1.396 . S
C1903 C1908 1.390 . S
C1904 C1898 1.465 . S
C1904 C1903 1.396 . S
C1904 C1905 1.399 . S
C1905 H1891 0.929 . S
C1905 C1904 1.399 . S
C1905 C1906 1.385 1_554 S
C1906 H1892 0.931 . S
C1906 C1905 1.385 1_556 S
C1906 C1907 1.389 . S
C1907 C1906 1.389 . S
C1907 C1908 1.387 1_556 S
C1908 H1893 0.930 . S
C1908 C1903 1.390 . S
C1908 C1907 1.387 1_554 S
H1909 C1921 0.930 . S
H1910 C1923 0.930 . S
H1911 C1924 0.930 . S
H1912 C1928 0.959 . S
H1913 C1928 0.959 1_545 S
H1914 C1928 0.961 . S
H1915 C1929 0.960 . S
H1916 C1929 0.961 . S
H1917 C1929 0.959 1_565 S
H1918 C1932 0.929 . S
H1919 C1933 0.931 . S
H1920 C1935 0.932 1_545 S
C1921 H1909 0.930 . S
C1921 C1922 1.399 . S
C1921 C1926 1.399 . S
C1922 C1921 1.399 . S
C1922 C1923 1.376 . S
C1923 H1910 0.930 . S
C1923 C1922 1.376 . S
C1923 C1924 1.388 . S
C1924 H1911 0.930 . S
C1924 C1923 1.388 . S
C1924 C1925 1.390 . S
C1925 C1924 1.390 . S
C1925 C1926 1.394 . S
C1925 C1931 1.465 . S
C1926 C1921 1.399 . S
C1926 C1925 1.394 . S
C1926 C1927 1.516 . S
C1927 C1926 1.516 . S
C1927 C1928 1.502 . S
C1927 C1929 1.561 1_565 S
C1927 C1930 1.526 . S
C1928 H1912 0.959 . S
C1928 H1913 0.959 1_565 S
C1928 H1914 0.961 . S
C1928 C1927 1.502 . S
C1929 H1915 0.960 . S
C1929 H1916 0.961 . S
C1929 H1917 0.959 1_545 S
C1929 C1927 1.561 1_545 S
C1930 C1927 1.526 . S
C1930 C1931 1.396 . S
C1930 C1935 1.388 . S
C1931 C1925 1.465 . S
C1931 C1930 1.396 . S
C1931 C1932 1.399 . S
C1932 H1918 0.929 . S
C1932 C1931 1.399 . S
C1932 C1933 1.385 . S
C1933 H1919 0.931 . S
C1933 C1932 1.385 . S
C1933 C1934 1.389 . S
C1934 C1933 1.389 . S
C1934 C1935 1.386 . S
C1935 H1920 0.932 1_565 S
C1935 C1930 1.388 . S
C1935 C1934 1.386 . S
C653 C17 2.706 . S
C665 C417 2.697 . S
C680 C57 2.722 . S
C692 C457 2.715 . S
C707 C97 2.702 . S
C719 C337 2.700 . S
C734 C377 2.694 . S
C746 C137 2.712 . S
C761 C162 2.703 . S
C773 C562 2.722 . S
C788 C602 2.721 . S
C800 C202 2.695 . S
C815 C482 2.704 . S
C827 C242 2.722 . S
C842 C282 2.717 . S
C854 C522 2.697 . S
C869 C29 0.954 1_565 S
C881 C168 0.883 1_545 S
C896 C69 0.828 . S
C908 C528 1.018 . S
C923 C109 0.882 1_545 S
C935 C248 1.003 1_565 S
C950 C149 0.959 . S
C962 C608 0.937 . S
C977 C208 1.000 . S
C989 C389 0.843 . S
C1004 C469 0.829 . S
C1016 C288 1.025 . S
C1031 C488 0.830 . S
C1043 C349 1.026 . S
C1058 C429 0.849 . S
C1070 C568 0.989 . S
C1085 C8 1.138 . S
C1097 C297 1.154 . S
C1112 C48 1.132 . S
C1124 C497 1.150 . S
C1139 C88 1.005 . S
C1151 C217 1.222 . S
C1166 C128 0.955 . S
C1178 C577 1.216 . S
C1193 C122 1.175 . S
C1205 C189 0.985 . S
C1220 C229 1.076 . S
C1232 C322 1.150 . S
C1247 C269 1.007 . S
C1259 C42 1.229 . S
C1274 C402 1.151 . S
C1286 C309 1.109 . S
C1301 C328 1.123 . S
C1313 C617 1.171 1_565 S
C1328 C177 1.213 . S
C1340 C368 0.961 . S
C1355 C537 1.153 1_545 S
C1367 C408 1.101 . S
C1382 C257 1.160 . S
C1394 C448 1.079 . S
C1409 C509 1.003 . S
C1421 C442 1.229 1_545 S
C1436 C549 0.954 . S
C1448 C2 1.195 . S
C1463 C362 1.193 1_565 S
C1475 C589 0.958 . S
C1490 C629 1.135 . S
C1502 C82 1.164 . S
C1517 C12 4.044 . S
C1529 C391 3.979 . S
C1544 C431 3.968 . S
C1556 C52 4.052 . S
C1571 C92 4.048 . S
C1583 C471 3.974 . S
C1598 C351 3.979 . S
C1610 C132 4.045 . S
C1625 C532 3.988 . S
C1637 C191 4.042 . S
C1652 C572 3.976 . S
C1664 C231 4.051 . S
C1679 C612 3.993 . S
C1691 C271 4.037 . S
C1706 C492 3.986 . S
C1718 C311 4.032 . S
C1733 C71 3.979 . S
C1745 C332 4.044 . S
C1760 C111 3.976 . S
C1772 C372 4.046 1_565 S
C1787 C151 3.964 . S
C1799 C412 4.053 . S
C1814 C452 4.045 1_545 S
C1826 C31 3.978 . S
C1841 C212 3.993 . S
C1853 C511 4.038 . S
C1868 C252 3.997 . S
C1880 C551 4.029 1_545 S
C1895 C292 3.973 . S
C1907 C591 4.041 . S
C1922 C172 3.995 . S
C1934 C631 4.029 1_565 S
