# Generated by pormake.
# Topology ttw, (5)-cn, num edge types: 1
# Building blocks:
#     Node 0, Type 0, BuildingBlock: XOMCOT_clean_sbu_1, # of connection points: 5
#     Node 1, Type 0, BuildingBlock: XOMCOT_clean_sbu_1, # of connection points: 5
#     Node 2, Type 0, BuildingBlock: XOMCOT_clean_sbu_1, # of connection points: 5
#     Node 3, Type 0, BuildingBlock: XOMCOT_clean_sbu_1, # of connection points: 5
#     Node 4, Type 0, BuildingBlock: XOMCOT_clean_sbu_1, # of connection points: 5
#     Node 5, Type 0, BuildingBlock: XOMCOT_clean_sbu_1, # of connection points: 5
#     Edge 6, Type (0, 0), BuildingBlock: FUNLAD_clean_linker_1, # of connection points: 2
#     Edge 7, Type (0, 0), BuildingBlock: FUNLAD_clean_linker_1, # of connection points: 2
#     Edge 8, Type (0, 0), BuildingBlock: FUNLAD_clean_linker_1, # of connection points: 2
#     Edge 9, Type (0, 0), BuildingBlock: FUNLAD_clean_linker_1, # of connection points: 2
#     Edge 10, Type (0, 0), BuildingBlock: FUNLAD_clean_linker_1, # of connection points: 2
#     Edge 11, Type (0, 0), BuildingBlock: FUNLAD_clean_linker_1, # of connection points: 2
#     Edge 12, Type (0, 0), BuildingBlock: FUNLAD_clean_linker_1, # of connection points: 2
#     Edge 13, Type (0, 0), BuildingBlock: FUNLAD_clean_linker_1, # of connection points: 2
#     Edge 14, Type (0, 0), BuildingBlock: FUNLAD_clean_linker_1, # of connection points: 2
#     Edge 15, Type (0, 0), BuildingBlock: FUNLAD_clean_linker_1, # of connection points: 2
#     Edge 16, Type (0, 0), BuildingBlock: FUNLAD_clean_linker_1, # of connection points: 2
#     Edge 17, Type (0, 0), BuildingBlock: FUNLAD_clean_linker_1, # of connection points: 2
#     Edge 18, Type (0, 0), BuildingBlock: FUNLAD_clean_linker_1, # of connection points: 2
#     Edge 19, Type (0, 0), BuildingBlock: FUNLAD_clean_linker_1, # of connection points: 2
#     Edge 20, Type (0, 0), BuildingBlock: FUNLAD_clean_linker_1, # of connection points: 2
# Relax obj value: 0.324
# Max RMSD: 0.298
# Mean RMSD: 0.266
data_MOF--net-ttw--node1-XOMCOT_clean_sbu_1--edge1-FUNLAD_clean_linker_1
_symmetry_space_group_name_H-M    P1
_symmetry_Int_Tables_number       1
_symmetry_cell_setting            triclinic
loop_
_symmetry_equiv_pos_as_xyz
'x, y, z'
_cell_length_a     57.06516
_cell_length_b     57.513536
_cell_length_c     18.411113
_cell_angle_alpha  94.471084
_cell_angle_beta   94.199958
_cell_angle_gamma 120.65705
loop_
_atom_site_label
_atom_site_type_symbol
_atom_site_fract_x
_atom_site_fract_y
_atom_site_fract_z
_atom_type_partial_charge
C0 C 0.17027 0.54675 0.99501 0.0
C1 C 0.16725 0.54516 0.91975 0.0
N2 N 0.16328 0.56525 0.90173 0.0
N3 N 0.16883 0.56811 0.02511 0.0
C4 C 0.16374 0.57843 0.96631 0.0
H5 H 0.17297 0.53274 0.02496 0.0
Co6 Co 0.17061 0.5791 0.12612 0.0
C7 C 0.20867 0.63269 0.0717 0.0
O8 O 0.21742 0.62196 0.02298 0.0
N9 N 0.17139 0.58944 0.22535 0.0
C10 C 0.17027 0.6117 0.32803 0.0
C11 C 0.17184 0.61202 0.25399 0.0
C12 C 0.16918 0.57553 0.28293 0.0
N13 N 0.1686 0.5887 0.34623 0.0
O14 O 0.13691 0.57846 0.10562 0.0
H15 H 0.17249 0.62746 0.22282 0.0
H16 H 0.16748 0.55583 0.27839 0.0
O17 O 0.19137 0.61774 0.11276 0.0
C18 C 0.11567 0.55458 0.09408 0.0
O19 O 0.11877 0.53344 0.09177 0.0
N20 N 0.2027 0.57773 0.14921 0.0
C21 C 0.24486 0.56685 0.17406 0.0
C22 C 0.25091 0.59362 0.17038 0.0
C23 C 0.22948 0.59873 0.15957 0.0
C24 C 0.19664 0.5521 0.15929 0.0
C25 C 0.21736 0.54617 0.17131 0.0
H26 H 0.23476 0.61957 0.16067 0.0
H27 H 0.17537 0.53591 0.15575 0.0
H28 H 0.16082 0.59564 0.97072 0.0
H29 H 0.16827 0.53048 0.88179 0.0
H30 H 0.16986 0.62706 0.36477 0.0
H31 H 0.27195 0.61056 0.17698 0.0
H32 H 0.21186 0.52539 0.1764 0.0
C33 C 0.53811 0.06829 0.7085 0.0
C34 C 0.53664 0.06523 0.63313 0.0
N35 N 0.52387 0.07764 0.60622 0.0
N36 N 0.52644 0.0826 0.72919 0.0
C37 C 0.51763 0.08773 0.66556 0.0
H38 H 0.54763 0.06107 0.74624 0.0
Co39 Co 0.526 0.09271 0.82745 0.0
C40 C 0.49337 0.11923 0.79811 0.0
O41 O 0.47001 0.09814 0.80931 0.0
N42 N 0.52537 0.10189 0.92739 0.0
C43 C 0.52406 0.12144 0.03501 0.0
C44 C 0.52442 0.12308 0.961 0.0
C45 C 0.52582 0.08781 0.9825 0.0
N46 N 0.52487 0.09917 0.04836 0.0
O47 O 0.48863 0.06426 0.82102 0.0
H48 H 0.5243 0.13902 0.93428 0.0
H49 H 0.52704 0.06963 0.97457 0.0
O50 O 0.5151 0.11804 0.80176 0.0
C51 C 0.48187 0.04051 0.83465 0.0
O52 O 0.50102 0.03438 0.84527 0.0
N53 N 0.56314 0.12114 0.83482 0.0
C54 C 0.6151 0.16857 0.86187 0.0
C55 C 0.59672 0.16395 0.80012 0.0
C56 C 0.57095 0.14016 0.78741 0.0
C57 C 0.58165 0.12394 0.89125 0.0
C58 C 0.60773 0.14767 0.90638 0.0
H59 H 0.55683 0.13777 0.74107 0.0
H60 H 0.57585 0.1083 0.92681 0.0
H61 H 0.50769 0.09945 0.66263 0.0
H62 H 0.54481 0.05505 0.60128 0.0
H63 H 0.52406 0.13601 0.07594 0.0
H64 H 0.60173 0.17921 0.7634 0.0
H65 H 0.6214 0.14958 0.95333 0.0
C66 C 0.50269 0.62297 0.10643 0.0
C67 C 0.50468 0.62398 0.03254 0.0
N68 N 0.4842 0.60012 0.99546 0.0
N69 N 0.48099 0.59873 0.11596 0.0
C70 C 0.47033 0.58517 0.04727 0.0
H71 H 0.51608 0.639 0.15065 0.0
Co72 Co 0.47052 0.58916 0.20789 0.0
C73 C 0.41264 0.54299 0.12862 0.0
O74 O 0.41649 0.52546 0.08942 0.0
N75 N 0.46068 0.57961 0.30145 0.0
C76 C 0.43949 0.55626 0.39102 0.0
C77 C 0.43865 0.55647 0.31638 0.0
C78 C 0.47502 0.59269 0.36838 0.0
N79 N 0.46244 0.57911 0.42372 0.0
O80 O 0.47935 0.56154 0.19644 0.0
H81 H 0.42317 0.54014 0.27602 0.0
H82 H 0.49481 0.61142 0.37681 0.0
O83 O 0.43279 0.56423 0.16651 0.0
C84 C 0.50433 0.57034 0.22051 0.0
O85 O 0.52023 0.59602 0.24911 0.0
N86 N 0.46298 0.61739 0.21907 0.0
C87 C 0.4549 0.66135 0.23367 0.0
C88 C 0.43904 0.63927 0.17859 0.0
C89 C 0.44347 0.6176 0.17183 0.0
C90 C 0.47992 0.63958 0.26973 0.0
C91 C 0.47599 0.66165 0.27893 0.0
H92 H 0.43153 0.60142 0.127 0.0
H93 H 0.49714 0.64067 0.30161 0.0
H94 H 0.45269 0.56479 0.03481 0.0
H95 H 0.52003 0.64098 1.00854 0.0
H96 H 0.42436 0.54034 0.41848 0.0
H97 H 0.42317 0.63868 0.14096 0.0
H98 H 0.4899 0.67892 0.31953 0.0
C99 C 0.86522 0.42064 0.20115 0.0
C100 C 0.86537 0.42055 0.27587 0.0
N101 N 0.86206 0.44096 0.30349 0.0
N102 N 0.86166 0.44085 0.1817 0.0
C103 C 0.86002 0.45301 0.24532 0.0
H104 H 0.86809 0.40718 0.16353 0.0
Co105 Co 0.86176 0.45009 0.08727 0.0
C106 C 0.81972 0.4655 0.06867 0.0
O107 O 0.81385 0.45463 0.99944 0.0
N108 N 0.86316 0.46016 0.99136 0.0
C109 C 0.8715 0.48712 0.90381 0.0
C110 C 0.87114 0.48579 0.9779 0.0
C111 C 0.85936 0.44646 0.92407 0.0
N112 N 0.86402 0.46228 0.87006 0.0
O113 O 0.89477 0.48442 0.12004 0.0
H114 H 0.87641 0.50261 0.01962 0.0
H115 H 0.85367 0.4254 0.91385 0.0
O116 O 0.83878 0.46555 0.11014 0.0
C117 C 0.91566 0.48236 0.11254 0.0
O118 O 0.9116 0.45834 0.08785 0.0
N119 N 0.83056 0.41504 0.0562 0.0
C120 C 0.78972 0.35999 0.021 0.0
C121 C 0.78432 0.37839 0.05961 0.0
C122 C 0.80524 0.40567 0.0784 0.0
C123 C 0.83645 0.39708 0.0221 0.0
C124 C 0.81629 0.36954 1.00334 0.0
H125 H 0.80123 0.4186 0.11423 0.0
H126 H 0.85726 0.40405 1.01149 0.0
H127 H 0.85791 0.47072 0.24929 0.0
H128 H 0.86842 0.40694 0.30716 0.0
H129 H 0.8773 0.50514 0.87754 0.0
H130 H 0.76461 0.37159 0.07873 0.0
H131 H 0.82155 0.35574 0.97616 0.0
C132 C 0.36357 0.88528 0.33434 0.0
C133 C 0.36548 0.88848 0.41001 0.0
N134 N 0.3892 0.89076 0.43795 0.0
N135 N 0.3859 0.88545 0.31431 0.0
C136 C 0.40122 0.88905 0.37874 0.0
H137 H 0.34659 0.88226 0.29628 0.0
Co138 Co 0.39278 0.87968 0.21788 0.0
C139 C 0.33756 0.84367 0.13705 0.0
O140 O 0.3427 0.86123 0.09015 0.0
N141 N 0.39963 0.87374 0.12036 0.0
C142 C 0.39892 0.85214 1.01344 0.0
C143 C 0.39505 0.84987 0.086 0.0
C144 C 0.40634 0.89022 0.06687 0.0
N145 N 0.40594 0.87756 1.00125 0.0
O146 O 0.38257 0.90457 0.18736 0.0
H147 H 0.3878 0.83136 0.11093 0.0
H148 H 0.41013 0.91072 0.07452 0.0
O149 O 0.35537 0.84925 0.19209 0.0
C150 C 0.40024 0.92974 0.20645 0.0
O151 O 0.42189 0.93661 0.25343 0.0
N152 N 0.40414 0.85638 0.24861 0.0
C153 C 0.42377 0.82294 0.28606 0.0
C154 C 0.39662 0.81549 0.29386 0.0
C155 C 0.38726 0.83267 0.27534 0.0
C156 C 0.43099 0.86472 0.24493 0.0
C157 C 0.44126 0.84823 0.2634 0.0
H158 H 0.36649 0.82693 0.28282 0.0
H159 H 0.44429 0.88399 0.22584 0.0
H160 H 0.42046 0.88949 0.38225 0.0
H161 H 0.35002 0.88812 0.44138 0.0
H162 H 0.39506 0.8357 0.97224 0.0
H163 H 0.38273 0.7967 0.3143 0.0
H164 H 0.46246 0.85482 0.25788 0.0
C165 C 0.54123 0.38591 1.01191 0.0
C166 C 0.54066 0.38645 0.93725 0.0
N167 N 0.56616 0.39502 0.92042 0.0
N168 N 0.56696 0.3943 0.04249 0.0
C169 C 0.58162 0.39957 0.98494 0.0
H170 H 0.52362 0.3787 0.0413 0.0
Co171 Co 0.57676 0.39354 0.1416 0.0
C172 C 0.62938 0.44223 0.11782 0.0
O173 O 0.61715 0.45471 0.09325 0.0
N174 N 0.58629 0.39229 0.2406 0.0
C175 C 0.60923 0.3918 0.34316 0.0
C176 C 0.60888 0.39233 0.26849 0.0
C177 C 0.57302 0.39126 0.29938 0.0
N178 N 0.58665 0.39124 0.36242 0.0
O179 O 0.57183 0.42332 0.16966 0.0
H180 H 0.62413 0.39257 0.2365 0.0
H181 H 0.55376 0.39067 0.29677 0.0
O182 O 0.61529 0.41845 0.13622 0.0
C183 C 0.54758 0.41657 0.18163 0.0
O184 O 0.52888 0.39064 0.17894 0.0
N185 N 0.57952 0.36336 0.11291 0.0
C186 C 0.57228 0.31449 0.04694 0.0
C187 C 0.5964 0.33935 0.04329 0.0
C188 C 0.59964 0.36365 0.07647 0.0
C189 C 0.55679 0.33936 0.12133 0.0
C190 C 0.5528 0.3146 0.08937 0.0
H191 H 0.61757 0.38259 0.06887 0.0
H192 H 0.54106 0.33959 0.15027 0.0
H193 H 0.60305 0.40565 0.98938 0.0
H194 H 0.52261 0.3801 0.89861 0.0
H195 H 0.62476 0.39153 0.37981 0.0
H196 H 0.6121 0.34015 1.012 0.0
H197 H 0.53428 0.29606 0.09675 0.0
H198 H 0.07105 0.5292 0.06441 0.0
C199 C 0.0876 0.5497 0.08685 0.0
H200 H 0.09721 0.58773 0.14234 0.0
H201 H 0.96532 0.51846 0.98427 0.0
H202 H 0.98459 0.53424 0.87188 0.0
H203 H 0.03482 0.56181 0.87183 0.0
H204 H 0.06613 0.5737 0.98423 0.0
C205 C 0.08125 0.56779 0.11465 0.0
C206 C 0.05182 0.55854 0.11841 0.0
C207 C 0.03388 0.55253 0.05314 0.0
C208 C 0.00497 0.5368 0.05331 0.0
C209 C 0.98747 0.53028 0.98685 0.0
C210 C 0.99826 0.53928 0.92219 0.0
C211 C 0.02655 0.5548 0.92216 0.0
C212 C 0.04427 0.56138 0.98675 0.0
H213 H 0.94697 0.52649 0.14317 0.0
C214 C 0.94387 0.50651 0.1259 0.0
H215 H 0.96225 0.48397 0.09517 0.0
H216 H 0.08051 0.5711 0.25545 0.0
H217 H 0.06118 0.5572 0.36885 0.0
H218 H 0.01096 0.5298 0.36897 0.0
H219 H 0.97971 0.51608 0.25558 0.0
C220 C 0.96543 0.5039 0.11373 0.0
C221 C 0.9941 0.52725 0.11881 0.0
C222 C 0.01196 0.53585 0.18566 0.0
C223 C 0.04091 0.55167 0.18554 0.0
C224 C 0.05837 0.5591 0.25261 0.0
C225 C 0.04754 0.55129 0.31799 0.0
C226 C 0.01925 0.53584 0.31805 0.0
C227 C 0.00156 0.52807 0.25273 0.0
H228 H 0.42084 0.96947 0.16909 0.0
C229 C 0.40145 0.9502 0.16109 0.0
H230 H 0.36396 0.92447 0.09491 0.0
H231 H 0.45997 0.04503 0.99063 0.0
H232 H 0.4587 0.06838 0.10422 0.0
H233 H 0.42546 0.04322 0.18867 0.0
H234 H 0.39327 0.9941 0.15941 0.0
C235 C 0.38275 0.94424 0.10258 0.0
C236 C 0.39074 0.96126 0.04079 0.0
C237 C 0.40788 0.99003 0.05579 0.0
C238 C 0.42612 0.00464 1.00551 0.0
C239 C 0.44498 0.03295 0.02532 0.0
C240 C 0.4445 0.04664 0.09059 0.0
C241 C 0.4258 0.03247 0.13819 0.0
C242 C 0.40765 0.00444 0.12124 0.0
H243 H 0.43958 0.02962 0.84981 0.0
C244 C 0.45436 0.02308 0.85621 0.0
H245 H 0.46393 0.99617 0.90339 0.0
H246 H 0.35035 0.90911 0.98057 0.0
H247 H 0.34366 0.8884 0.85521 0.0
H248 H 0.37393 0.91432 0.76604 0.0
H249 H 0.41221 0.96092 0.80296 0.0
C250 C 0.44921 0.00271 0.89561 0.0
C251 C 0.42545 0.99051 0.93794 0.0
C252 C 0.40378 0.96326 0.91624 0.0
C253 C 0.38613 0.94851 0.96769 0.0
C254 C 0.36471 0.92121 0.9446 0.0
C255 C 0.36043 0.90915 0.87237 0.0
C256 C 0.37758 0.92371 0.82216 0.0
C257 C 0.39939 0.95033 0.8439 0.0
H258 H 0.51882 0.42944 0.20933 0.0
C259 C 0.5393 0.43675 0.19429 0.0
H260 H 0.57449 0.47013 0.16299 0.0
H261 H 0.50418 0.52071 0.05075 0.0
H262 H 0.51529 0.50729 0.93615 0.0
H263 H 0.53889 0.48136 0.93395 0.0
H264 H 0.55173 0.46886 0.04633 0.0
C265 C 0.55465 0.46276 0.18226 0.0
C266 C 0.5428 0.48059 0.185 0.0
C267 C 0.53548 0.48776 0.11877 0.0
C268 C 0.5216 0.50244 0.1199 0.0
C269 C 0.51459 0.50941 0.05298 0.0
C270 C 0.52084 0.50184 0.98679 0.0
C271 C 0.53414 0.48725 0.98556 0.0
C272 C 0.5414 0.48021 0.05054 0.0
H273 H 0.53722 0.56161 0.24235 0.0
C274 C 0.51595 0.55264 0.21829 0.0
H275 H 0.48074 0.51717 0.16167 0.0
H276 H 0.55666 0.47277 0.32263 0.0
H277 H 0.54444 0.48502 0.43687 0.0
H278 H 0.51786 0.50799 0.4379 0.0
H279 H 0.50369 0.51916 0.32499 0.0
C280 C 0.50169 0.52638 0.18848 0.0
C281 C 0.51511 0.50996 0.18725 0.0
C282 C 0.52243 0.50279 0.25355 0.0
C283 C 0.53678 0.48857 0.25259 0.0
C284 C 0.54489 0.4827 0.31994 0.0
C285 C 0.53817 0.48977 0.38595 0.0
C286 C 0.52328 0.50278 0.38657 0.0
C287 C 0.51543 0.50924 0.32135 0.0
H288 H 0.16423 0.55966 0.4218 0.0
C289 C 0.16598 0.57921 0.41725 0.0
H290 H 0.16854 0.61378 0.4758 0.0
H291 H 0.1114 0.52532 0.71002 0.0
H292 H 0.07122 0.50228 0.61747 0.0
H293 H 0.07306 0.51697 0.49457 0.0
H294 H 0.11511 0.55458 0.46315 0.0
C295 C 0.16586 0.59381 0.47801 0.0
C296 C 0.16447 0.58455 0.55183 0.0
C297 C 0.13965 0.56258 0.56939 0.0
C298 C 0.13848 0.55434 0.64068 0.0
C299 C 0.11344 0.53235 0.65671 0.0
C300 C 0.0902 0.51901 0.60419 0.0
C301 C 0.09125 0.52726 0.53496 0.0
C302 C 0.11558 0.54882 0.51752 0.0
H303 H 0.16188 0.59212 0.82621 0.0
C304 C 0.16154 0.57318 0.82993 0.0
H305 H 0.15958 0.53923 0.76939 0.0
H306 H 0.21501 0.62777 0.53672 0.0
H307 H 0.25507 0.65097 0.62935 0.0
H308 H 0.25326 0.63631 0.75223 0.0
H309 H 0.21138 0.59853 0.78344 0.0
C310 C 0.16098 0.5587 0.76792 0.0
C311 C 0.16195 0.56833 0.69468 0.0
C312 C 0.18674 0.59041 0.67721 0.0
C313 C 0.1879 0.59865 0.60596 0.0
C314 C 0.21292 0.62071 0.58999 0.0
C315 C 0.23612 0.63417 0.64258 0.0
C316 C 0.23509 0.62593 0.71177 0.0
C317 C 0.21082 0.60426 0.72909 0.0
H318 H 0.53571 0.07788 0.12473 0.0
C319 C 0.52652 0.09028 0.11864 0.0
H320 H 0.50755 0.10913 0.17014 0.0
H321 H 0.49983 0.02571 0.41092 0.0
H322 H 0.47408 0.98843 0.31162 0.0
H323 H 0.46932 0.99749 0.18423 0.0
H324 H 0.48946 0.04357 0.15575 0.0
C325 C 0.51692 0.09692 0.17643 0.0
C326 C 0.52097 0.09075 0.25209 0.0
C327 C 0.50855 0.06347 0.26804 0.0
C328 C 0.5114 0.05826 0.34165 0.0
C329 C 0.49856 0.03085 0.35606 0.0
C330 C 0.4836 0.00924 0.29963 0.0
C331 C 0.48081 0.01432 0.228 0.0
C332 C 0.49279 0.04101 0.21225 0.0
H333 H 0.50825 0.09191 0.51932 0.0
C334 C 0.51939 0.08164 0.53112 0.0
H335 H 0.54056 0.06384 0.48578 0.0
H336 H 0.54848 0.14541 0.24051 0.0
H337 H 0.57577 0.18252 0.33892 0.0
H338 H 0.58175 0.17342 0.46552 0.0
H339 H 0.56028 0.1272 0.49453 0.0
C340 C 0.52976 0.0745 0.47602 0.0
C341 C 0.52651 0.08024 0.39934 0.0
C342 C 0.53957 0.10749 0.38305 0.0
C343 C 0.53651 0.11272 0.30966 0.0
C344 C 0.54982 0.14016 0.29519 0.0
C345 C 0.56573 0.16172 0.35114 0.0
C346 C 0.56907 0.15659 0.4224 0.0
C347 C 0.55637 0.12988 0.4384 0.0
H348 H 0.46078 0.57087 0.89733 0.0
C349 C 0.47733 0.59164 0.91716 0.0
H350 H 0.50685 0.62929 0.88573 0.0
H351 H 0.50873 0.57861 0.57041 0.0
H352 H 0.55332 0.59094 0.63179 0.0
H353 H 0.56605 0.60741 0.76463 0.0
H354 H 0.53415 0.61142 0.83701 0.0
C355 C 0.48997 0.60861 0.86784 0.0
C356 C 0.48233 0.59943 0.78708 0.0
C357 C 0.50144 0.5978 0.74508 0.0
C358 C 0.49427 0.58875 0.66812 0.0
C359 C 0.51334 0.58615 0.62842 0.0
C360 C 0.53897 0.59297 0.66311 0.0
C361 C 0.54613 0.60221 0.73792 0.0
C362 C 0.52763 0.6045 0.77877 0.0
H363 H 0.48908 0.60875 0.51853 0.0
C364 C 0.47191 0.58808 0.50124 0.0
H365 H 0.44268 0.55126 0.53694 0.0
H366 H 0.44185 0.60299 0.8494 0.0
H367 H 0.39732 0.59076 0.788 0.0
H368 H 0.3846 0.57435 0.65515 0.0
H369 H 0.41645 0.57028 0.58283 0.0
C370 C 0.46003 0.57184 0.55269 0.0
C371 C 0.46817 0.58189 0.63292 0.0
C372 C 0.44913 0.58372 0.67484 0.0
C373 C 0.45629 0.59275 0.75177 0.0
C374 C 0.43724 0.59543 0.79141 0.0
C375 C 0.41164 0.58868 0.7567 0.0
C376 C 0.40449 0.57947 0.6819 0.0
C377 C 0.42296 0.57713 0.6411 0.0
H378 H 0.85859 0.43355 0.7763 0.0
C379 C 0.86207 0.45374 0.79299 0.0
H380 H 0.86794 0.49006 0.75611 0.0
H381 H 0.91245 0.4752 0.4632 0.0
H382 H 0.95381 0.51306 0.53391 0.0
H383 H 0.95432 0.5276 0.66395 0.0
H384 H 0.91349 0.50431 0.7241 0.0
C385 C 0.86412 0.46971 0.74113 0.0
C386 C 0.86331 0.46105 0.66213 0.0
C387 C 0.88724 0.47519 0.62737 0.0
C388 C 0.88689 0.46695 0.55218 0.0
C389 C 0.91136 0.4809 0.51966 0.0
C390 C 0.93532 0.50261 0.55975 0.0
C391 C 0.93561 0.51078 0.63297 0.0
C392 C 0.91197 0.49726 0.66675 0.0
H393 H 0.86242 0.46856 0.39258 0.0
C394 C 0.86221 0.44969 0.3792 0.0
H395 H 0.86069 0.41588 0.42182 0.0
H396 H 0.81293 0.43144 0.7093 0.0
H397 H 0.77163 0.39353 0.63855 0.0
H398 H 0.77141 0.37848 0.5092 0.0
H399 H 0.81249 0.40144 0.44963 0.0
C400 C 0.86218 0.43538 0.43368 0.0
C401 C 0.8625 0.44474 0.51164 0.0
C402 C 0.83852 0.43074 0.54618 0.0
C403 C 0.8388 0.43909 0.62123 0.0
C404 C 0.81417 0.42545 0.65325 0.0
C405 C 0.79023 0.40376 0.61306 0.0
C406 C 0.79009 0.39531 0.54021 0.0
C407 C 0.81385 0.40862 0.50677 0.0
H408 H 0.41623 0.8889 0.52496 0.0
C409 C 0.39874 0.89142 0.51373 0.0
H410 H 0.36809 0.89554 0.56049 0.0
H411 H 0.36151 0.83182 0.82711 0.0
H412 H 0.32102 0.79761 0.74566 0.0
H413 H 0.31287 0.80449 0.61789 0.0
H414 H 0.3451 0.84577 0.57094 0.0
C415 C 0.38589 0.89351 0.57041 0.0
C416 C 0.3925 0.88901 0.64646 0.0
C417 C 0.37376 0.86455 0.67305 0.0
C418 C 0.3788 0.86033 0.74642 0.0
C419 C 0.35919 0.83593 0.77153 0.0
C420 C 0.33572 0.81611 0.72544 0.0
C421 C 0.3311 0.82001 0.65357 0.0
C422 C 0.34978 0.84387 0.6274 0.0
H423 H 0.4067 0.90614 0.9285 0.0
C424 C 0.40756 0.88781 0.93119 0.0
H425 H 0.40934 0.85618 0.87093 0.0
H426 H 0.43112 0.93922 0.6162 0.0
H427 H 0.47149 0.97394 0.69823 0.0
H428 H 0.4815 0.96576 0.82308 0.0
H429 H 0.45107 0.92304 0.86735 0.0
C430 C 0.40832 0.87442 0.86863 0.0
C431 C 0.40281 0.88042 0.7935 0.0
C432 C 0.42151 0.90502 0.76713 0.0
C433 C 0.41615 0.90944 0.69397 0.0
C434 C 0.43451 0.93464 0.67047 0.0
C435 C 0.45771 0.95473 0.71702 0.0
C436 C 0.46333 0.95014 0.78741 0.0
C437 C 0.44561 0.92556 0.8123 0.0
H438 H 0.55739 0.38669 0.4384 0.0
C439 C 0.57801 0.39066 0.43436 0.0
H440 H 0.61535 0.39953 0.49408 0.0
H441 H 0.55679 0.43206 0.75096 0.0
H442 H 0.56109 0.46723 0.67871 0.0
H443 H 0.57746 0.47021 0.55749 0.0
H444 H 0.58943 0.43798 0.50758 0.0
C445 C 0.59476 0.3957 0.49655 0.0
C446 C 0.58545 0.39462 0.57062 0.0
C447 C 0.57902 0.41401 0.59964 0.0
C448 C 0.57008 0.41263 0.67029 0.0
C449 C 0.56364 0.43213 0.69766 0.0
C450 C 0.5661 0.4525 0.65688 0.0
C451 C 0.57528 0.45415 0.5886 0.0
C452 C 0.58186 0.43533 0.56027 0.0
H453 H 0.59665 0.40297 0.84571 0.0
C454 C 0.57537 0.39694 0.84895 0.0
H455 H 0.53743 0.38568 0.78755 0.0
H456 H 0.59661 0.35464 0.53227 0.0
H457 H 0.59239 0.31959 0.60478 0.0
H458 H 0.57642 0.31691 0.72646 0.0
H459 H 0.56477 0.34936 0.7766 0.0
C460 C 0.5585 0.39089 0.7862 0.0
C461 C 0.56823 0.39234 0.71269 0.0
C462 C 0.57478 0.37303 0.68387 0.0
C463 C 0.58362 0.37433 0.61313 0.0
C464 C 0.58992 0.35472 0.58573 0.0
C465 C 0.5875 0.33441 0.62666 0.0
C466 C 0.57854 0.33292 0.6952 0.0
C467 C 0.57209 0.35184 0.72357 0.0
H468 H 0.26247 0.54241 0.20998 0.0
C469 C 0.26659 0.55993 0.18241 0.0
H470 H 0.29457 0.59032 0.12377 0.0
H471 H 0.40048 0.59398 0.26461 0.0
H472 H 0.40742 0.63637 0.32315 0.0
H473 H 0.37109 0.64743 0.30813 0.0
H474 H 0.32721 0.61564 0.23536 0.0
C475 C 0.29014 0.57308 0.15279 0.0
C476 C 0.31164 0.56569 0.16198 0.0
C477 C 0.33729 0.58446 0.20439 0.0
C478 C 0.35826 0.57801 0.21276 0.0
C479 C 0.38361 0.59737 0.25595 0.0
C480 C 0.38799 0.622 0.29004 0.0
C481 C 0.36754 0.62822 0.28166 0.0
C482 C 0.34246 0.60977 0.23951 0.0
H483 H 0.37386 0.53529 0.06858 0.0
C484 C 0.3855 0.5405 0.12275 0.0
H485 H 0.38872 0.55182 0.23557 0.0
H486 H 0.26563 0.52584 0.07217 0.0
H487 H 0.25658 0.48128 0.02313 0.0
H488 H 0.29091 0.46805 0.04911 0.0
H489 H 0.3348 0.49964 0.1223 0.0
C490 C 0.37677 0.54737 0.18231 0.0
C491 C 0.35364 0.55274 0.17798 0.0
C492 C 0.32733 0.53331 0.13923 0.0
C493 C 0.30671 0.54019 0.12891 0.0
C494 C 0.28149 0.52122 0.08495 0.0
C495 C 0.27607 0.4956 0.05605 0.0
C496 C 0.29546 0.48821 0.07032 0.0
C497 C 0.32075 0.50671 0.11159 0.0
H498 H 0.64441 0.21011 0.83892 0.0
C499 C 0.64077 0.19586 0.8784 0.0
H500 H 0.65545 0.19214 0.98341 0.0
H501 H 0.75338 0.30639 0.86628 0.0
H502 H 0.7544 0.27637 0.76839 0.0
H503 H 0.7232 0.22651 0.75771 0.0
H504 H 0.69025 0.20651 0.84378 0.0
C505 C 0.65864 0.20491 0.94047 0.0
C506 C 0.68134 0.23409 0.95591 0.0
C507 C 0.70174 0.2453 0.90819 0.0
C508 C 0.72098 0.27388 0.91737 0.0
C509 C 0.73939 0.28472 0.86472 0.0
C510 C 0.74002 0.26772 0.80771 0.0
C511 C 0.72236 0.23967 0.80147 0.0
C512 C 0.7034 0.22848 0.85091 0.0
H513 H 0.77599 0.31619 1.0015 0.0
C514 C 0.76883 0.33048 1.00408 0.0
H515 H 0.73416 0.33473 0.99107 0.0
H516 H 0.64578 0.21921 0.0594 0.0
H517 H 0.64682 0.24879 0.16227 0.0
H518 H 0.68187 0.29788 0.18246 0.0
H519 H 0.71615 0.3177 0.09998 0.0
C520 C 0.74174 0.32081 0.98986 0.0
C521 C 0.72113 0.29096 0.97764 0.0
C522 C 0.70144 0.27957 0.02711 0.0
C523 C 0.68145 0.25116 0.01605 0.0
C524 C 0.66167 0.24054 0.06546 0.0
C525 C 0.66196 0.25731 0.12478 0.0
C526 C 0.6817 0.28495 0.13617 0.0
C527 C 0.70125 0.29606 0.08818 0.0
H528 H 0.4364 0.68434 0.19384 0.0
C529 C 0.4493 0.68385 0.23956 0.0
H530 H 0.4694 0.7023 0.34771 0.0
H531 H 0.44669 0.78947 0.17676 0.0
H532 H 0.48003 0.79173 0.09916 0.0
H533 H 0.50138 0.76411 0.11525 0.0
H534 H 0.48882 0.73351 0.20794 0.0
C535 C 0.45814 0.70289 0.29853 0.0
C536 C 0.45006 0.7237 0.30001 0.0
C537 C 0.45911 0.7429 0.24919 0.0
C538 C 0.44814 0.76006 0.24316 0.0
C539 C 0.45554 0.77712 0.18697 0.0
C540 C 0.47449 0.77842 0.14139 0.0
C541 C 0.48641 0.76279 0.1502 0.0
C542 C 0.47887 0.74518 0.20331 0.0
H543 H 0.45634 0.81373 0.31329 0.0
C544 C 0.43428 0.80464 0.29938 0.0
H545 H 0.39614 0.76756 0.27097 0.0
H546 H 0.4289 0.68953 0.40418 0.0
H547 H 0.39707 0.68862 0.48587 0.0
H548 H 0.38031 0.72051 0.4811 0.0
H549 H 0.39499 0.75325 0.39384 0.0
C550 C 0.41815 0.77733 0.28643 0.0
C551 C 0.42966 0.75937 0.29181 0.0
C552 C 0.42141 0.74087 0.34443 0.0
C553 C 0.43148 0.72287 0.34821 0.0
C554 C 0.4222 0.70395 0.39962 0.0
C555 C 0.4039 0.70318 0.44683 0.0
C556 C 0.39444 0.72111 0.44407 0.0
C557 C 0.40301 0.73978 0.39363 0.0
H558 H 0.80153 0.47407 0.16185 0.0
C559 C 0.79973 0.47062 0.10228 0.0
H560 H 0.77493 0.46238 1.00163 0.0
H561 H 0.66315 0.39634 0.12388 0.0
H562 H 0.66987 0.3594 0.0836 0.0
H563 H 0.71443 0.36869 0.04826 0.0
H564 H 0.7524 0.4151 0.05249 0.0
C565 C 0.77728 0.46682 0.06107 0.0
C566 C 0.75226 0.46184 0.09345 0.0
C567 C 0.73034 0.43459 0.09177 0.0
C568 C 0.70477 0.42928 0.11298 0.0
C569 C 0.6831 0.40176 0.10905 0.0
C570 C 0.68667 0.38025 0.08595 0.0
C571 C 0.71172 0.38547 0.06597 0.0
C572 C 0.73334 0.41225 0.06856 0.0
H573 H 0.66848 0.46806 0.07446 0.0
C574 C 0.65894 0.4537 0.1133 0.0
H575 H 0.66375 0.43109 0.19128 0.0
H576 H 0.79077 0.51614 0.10759 0.0
H577 H 0.78532 0.55345 0.15571 0.0
H578 H 0.74175 0.54435 0.19823 0.0
H579 H 0.70324 0.49799 0.19194 0.0
C580 C 0.67348 0.44527 0.1522 0.0
C581 C 0.70116 0.4513 0.13594 0.0
C582 C 0.72375 0.47853 0.14232 0.0
C583 C 0.74922 0.48379 0.12003 0.0
C584 C 0.77114 0.51111 0.1246 0.0
C585 C 0.76829 0.53266 0.15219 0.0
C586 C 0.74373 0.52754 0.17598 0.0
C587 C 0.72169 0.50083 0.17147 0.0
H588 H 0.21728 0.67068 0.13689 0.0
C589 C 0.22223 0.6626 0.0889 0.0
H590 H 0.24716 0.67196 1.00381 0.0
H591 H 0.26075 0.79065 0.14175 0.0
H592 H 0.21206 0.76971 0.10043 0.0
H593 H 0.18432 0.72153 0.04461 0.0
H594 H 0.20496 0.69383 0.03124 0.0
C595 C 0.24152 0.67989 0.05055 0.0
C596 C 0.25846 0.70977 0.07672 0.0
C597 C 0.24629 0.726 0.08106 0.0
C598 C 0.26258 0.75419 0.10988 0.0
C599 C 0.24959 0.76947 0.11763 0.0
C600 C 0.22162 0.75767 0.09451 0.0
C601 C 0.20598 0.73051 0.06334 0.0
C602 C 0.21805 0.71478 0.05648 0.0
H603 H 0.30271 0.80991 0.06221 0.0
C604 C 0.31413 0.81544 0.11688 0.0
H605 H 0.32077 0.80124 0.21383 0.0
H606 H 0.28843 0.68465 0.07654 0.0
H607 H 0.33757 0.70629 0.1104 0.0
H608 H 0.36628 0.75576 0.15162 0.0
H609 H 0.34595 0.78372 0.16105 0.0
C610 C 0.30889 0.79594 0.15997 0.0
C611 C 0.29125 0.7664 0.13081 0.0
C612 C 0.30356 0.75037 0.12421 0.0
C613 C 0.28713 0.72201 0.09801 0.0
C614 C 0.29993 0.70639 0.0944 0.0
C615 C 0.32816 0.71853 0.11391 0.0
C616 C 0.34431 0.74635 0.13741 0.0
C617 C 0.3323 0.76217 0.14271 0.0
H618 H 0.48059 0.14851 0.82823 0.0
C619 C 0.49665 0.1465 0.80572 0.0
H620 H 0.53713 0.16696 0.77925 0.0
H621 H 0.51035 0.26487 0.88483 0.0
H622 H 0.4782 0.24825 0.77292 0.0
H623 H 0.46909 0.20754 0.69171 0.0
H624 H 0.49227 0.18328 0.72195 0.0
C625 C 0.52102 0.16899 0.80118 0.0
C626 C 0.52898 0.19562 0.84356 0.0
C627 C 0.51524 0.20948 0.82539 0.0
C628 C 0.52052 0.23293 0.87233 0.0
C629 C 0.50685 0.24669 0.85195 0.0
C630 C 0.48843 0.23745 0.7876 0.0
C631 C 0.48329 0.21452 0.7419 0.0
C632 C 0.49655 0.20068 0.76015 0.0
H633 H 0.58513 0.2906 0.97856 0.0
C634 C 0.56785 0.28938 1.00322 0.0
H635 H 0.52514 0.26425 1.0076 0.0
H636 H 0.56242 0.17659 0.88835 0.0
H637 H 0.59411 0.1926 1.00028 0.0
H638 H 0.59995 0.23046 0.0879 0.0
H639 H 0.57485 0.25299 0.06242 0.0
C640 C 0.54337 0.26589 0.98848 0.0
C641 C 0.53935 0.24229 0.93784 0.0
C642 C 0.55362 0.22877 0.95509 0.0
C643 C 0.54915 0.20603 0.90647 0.0
C644 C 0.56445 0.19355 0.9237 0.0
C645 C 0.5828 0.20256 0.98801 0.0
C646 C 0.58618 0.22393 0.03711 0.0
C647 C 0.57175 0.23687 0.02135 0.0
loop_
_geom_bond_atom_site_label_1
_geom_bond_atom_site_label_2
_geom_bond_distance
_geom_bond_site_symmetry_2
_ccdc_geom_bond_type
C0 C1 1.351 . S
C0 N3 1.368 . S
C0 H5 0.931 . S
C1 C0 1.351 . S
C1 N2 1.373 . S
C1 H29 0.930 . S
N2 C1 1.373 . S
N2 C4 1.340 . S
N3 C0 1.368 . S
N3 C4 1.321 . S
N3 Co6 2.135 1_556 S
C4 N2 1.340 . S
C4 N3 1.321 . S
C4 H28 0.930 . S
H5 C0 0.931 . S
Co6 N3 2.135 1_554 S
Co6 N9 2.121 . S
Co6 O14 2.055 . S
Co6 O17 2.039 . S
Co6 N20 2.140 . S
C7 O8 1.227 . S
C7 O17 1.265 . S
O8 C7 1.227 . S
N9 Co6 2.121 . S
N9 C11 1.375 . S
N9 C12 1.313 . S
C10 C11 1.338 . S
C10 N13 1.377 . S
C10 H30 0.930 . S
C11 N9 1.375 . S
C11 C10 1.338 . S
C11 H15 0.931 . S
C12 N9 1.313 . S
C12 N13 1.344 . S
C12 H16 0.930 . S
N13 C10 1.377 . S
N13 C12 1.344 . S
O14 Co6 2.055 . S
O14 C18 1.253 . S
H15 C11 0.931 . S
H16 C12 0.930 . S
O17 Co6 2.039 . S
O17 C7 1.265 . S
C18 O14 1.253 . S
C18 O19 1.227 . S
O19 C18 1.227 . S
N20 Co6 2.140 . S
N20 C23 1.346 1_554 S
N20 C24 1.345 . S
C21 C22 1.387 1_554 S
C21 C25 1.391 . S
C22 C21 1.387 1_556 S
C22 C23 1.369 . S
C22 H31 0.929 . S
C23 N20 1.346 1_556 S
C23 C22 1.369 . S
C23 H26 0.928 . S
C24 N20 1.345 . S
C24 C25 1.371 . S
C24 H27 0.931 . S
C25 C21 1.391 . S
C25 C24 1.371 . S
C25 H32 0.930 . S
H26 C23 0.928 . S
H27 C24 0.931 . S
H28 C4 0.930 . S
H29 C1 0.930 . S
H30 C10 0.930 . S
H31 C22 0.929 . S
H32 C25 0.930 . S
C33 C34 1.351 . S
C33 N36 1.368 . S
C33 H38 0.931 . S
C34 C33 1.351 . S
C34 N35 1.373 . S
C34 H62 0.930 . S
N35 C34 1.373 . S
N35 C37 1.340 . S
N36 C33 1.368 . S
N36 C37 1.321 . S
N36 Co39 2.135 1_556 S
C37 N35 1.340 . S
C37 N36 1.321 . S
C37 H61 0.930 . S
H38 C33 0.931 . S
Co39 N36 2.135 1_554 S
Co39 N42 2.121 . S
Co39 O47 2.055 . S
Co39 O50 2.039 . S
Co39 N53 2.140 . S
C40 O41 1.227 . S
C40 O50 1.265 . S
O41 C40 1.227 . S
N42 Co39 2.121 . S
N42 C44 1.375 . S
N42 C45 1.313 . S
C43 C44 1.338 . S
C43 N46 1.377 . S
C43 H63 0.930 . S
C44 N42 1.375 . S
C44 C43 1.338 . S
C44 H48 0.931 . S
C45 N42 1.313 . S
C45 N46 1.344 . S
C45 H49 0.930 . S
N46 C43 1.377 . S
N46 C45 1.344 . S
O47 Co39 2.055 . S
O47 C51 1.253 . S
H48 C44 0.931 . S
H49 C45 0.930 . S
O50 Co39 2.039 . S
O50 C40 1.265 . S
C51 O47 1.253 . S
C51 O52 1.227 . S
O52 C51 1.227 . S
N53 Co39 2.140 . S
N53 C56 1.350 . S
N53 C57 1.345 . S
C54 C55 1.387 . S
C54 C58 1.391 . S
C55 C54 1.387 . S
C55 C56 1.369 . S
C55 H64 0.929 1_554 S
C56 N53 1.350 . S
C56 C55 1.369 . S
C56 H59 0.925 1_554 S
C57 N53 1.345 . S
C57 C58 1.371 . S
C57 H60 0.931 . S
C58 C54 1.391 . S
C58 C57 1.371 . S
C58 H65 0.930 . S
H59 C56 0.925 1_556 S
H60 C57 0.931 . S
H61 C37 0.930 . S
H62 C34 0.930 . S
H63 C43 0.930 . S
H64 C55 0.929 1_556 S
H65 C58 0.930 . S
C66 C67 1.351 . S
C66 N69 1.368 . S
C66 H71 0.931 . S
C67 C66 1.351 . S
C67 N68 1.373 . S
C67 H95 0.930 . S
N68 C67 1.373 . S
N68 C70 1.340 . S
N69 C66 1.368 . S
N69 C70 1.321 . S
N69 Co72 2.135 1_556 S
C70 N68 1.340 . S
C70 N69 1.321 . S
C70 H94 0.930 . S
H71 C66 0.931 . S
Co72 N69 2.135 1_554 S
Co72 N75 2.121 . S
Co72 O80 2.055 . S
Co72 O83 2.039 . S
Co72 N86 2.140 . S
C73 O74 1.227 . S
C73 O83 1.265 . S
O74 C73 1.227 . S
N75 Co72 2.121 . S
N75 C77 1.375 . S
N75 C78 1.313 . S
C76 C77 1.338 . S
C76 N79 1.377 . S
C76 H96 0.930 . S
C77 N75 1.375 . S
C77 C76 1.338 . S
C77 H81 0.931 . S
C78 N75 1.313 . S
C78 N79 1.344 . S
C78 H82 0.930 . S
N79 C76 1.377 . S
N79 C78 1.344 . S
O80 Co72 2.055 . S
O80 C84 1.253 . S
H81 C77 0.931 . S
H82 C78 0.930 . S
O83 Co72 2.039 . S
O83 C73 1.265 . S
C84 O80 1.253 . S
C84 O85 1.227 . S
O85 C84 1.227 . S
N86 Co72 2.140 . S
N86 C89 1.346 . S
N86 C90 1.345 . S
C87 C88 1.387 . S
C87 C91 1.391 . S
C88 C87 1.387 . S
C88 C89 1.369 . S
C88 H97 0.929 . S
C89 N86 1.346 . S
C89 C88 1.369 . S
C89 H92 0.928 . S
C90 N86 1.345 . S
C90 C91 1.371 . S
C90 H93 0.931 . S
C91 C87 1.391 . S
C91 C90 1.371 . S
C91 H98 0.930 . S
H92 C89 0.928 . S
H93 C90 0.931 . S
H94 C70 0.930 . S
H95 C67 0.930 . S
H96 C76 0.930 . S
H97 C88 0.929 . S
H98 C91 0.930 . S
C99 C100 1.351 . S
C99 N102 1.368 . S
C99 H104 0.931 . S
C100 C99 1.351 . S
C100 N101 1.373 . S
C100 H128 0.930 . S
N101 C100 1.373 . S
N101 C103 1.340 . S
N102 C99 1.368 . S
N102 C103 1.321 . S
N102 Co105 2.135 . S
C103 N101 1.340 . S
C103 N102 1.321 . S
C103 H127 0.930 . S
H104 C99 0.931 . S
Co105 N102 2.135 . S
Co105 N108 2.121 1_554 S
Co105 O113 2.055 . S
Co105 O116 2.039 . S
Co105 N119 2.140 . S
C106 O107 1.227 . S
C106 O116 1.265 . S
O107 C106 1.227 . S
N108 Co105 2.121 1_556 S
N108 C110 1.375 . S
N108 C111 1.313 . S
C109 C110 1.338 . S
C109 N112 1.377 . S
C109 H129 0.930 . S
C110 N108 1.375 . S
C110 C109 1.338 . S
C110 H114 0.931 . S
C111 N108 1.313 . S
C111 N112 1.344 . S
C111 H115 0.930 . S
N112 C109 1.377 . S
N112 C111 1.344 . S
O113 Co105 2.055 . S
O113 C117 1.253 . S
H114 C110 0.931 . S
H115 C111 0.930 . S
O116 Co105 2.039 . S
O116 C106 1.265 . S
C117 O113 1.253 . S
C117 O118 1.227 . S
O118 C117 1.227 . S
N119 Co105 2.140 . S
N119 C122 1.346 . S
N119 C123 1.345 . S
C120 C121 1.387 . S
C120 C124 1.391 . S
C121 C120 1.387 . S
C121 C122 1.369 . S
C121 H130 0.929 . S
C122 N119 1.346 . S
C122 C121 1.369 . S
C122 H125 0.928 . S
C123 N119 1.345 . S
C123 C124 1.371 . S
C123 H126 0.931 . S
C124 C120 1.391 . S
C124 C123 1.371 . S
C124 H131 0.930 1_554 S
H125 C122 0.928 . S
H126 C123 0.931 . S
H127 C103 0.930 . S
H128 C100 0.930 . S
H129 C109 0.930 . S
H130 C121 0.929 . S
H131 C124 0.930 1_556 S
C132 C133 1.351 . S
C132 N135 1.368 . S
C132 H137 0.931 . S
C133 C132 1.351 . S
C133 N134 1.373 . S
C133 H161 0.930 . S
N134 C133 1.373 . S
N134 C136 1.340 . S
N135 C132 1.368 . S
N135 C136 1.321 . S
N135 Co138 2.135 . S
C136 N134 1.340 . S
C136 N135 1.321 . S
C136 H160 0.930 . S
H137 C132 0.931 . S
Co138 N135 2.135 . S
Co138 N141 2.121 1_554 S
Co138 O146 2.055 . S
Co138 O149 2.039 . S
Co138 N152 2.140 . S
C139 O140 1.227 . S
C139 O149 1.265 . S
O140 C139 1.227 . S
N141 Co138 2.121 1_556 S
N141 C143 1.375 . S
N141 C144 1.313 . S
C142 C143 1.338 . S
C142 N145 1.377 . S
C142 H162 0.930 . S
C143 N141 1.375 . S
C143 C142 1.338 . S
C143 H147 0.931 . S
C144 N141 1.313 . S
C144 N145 1.344 . S
C144 H148 0.930 . S
N145 C142 1.377 . S
N145 C144 1.344 . S
O146 Co138 2.055 . S
O146 C150 1.253 . S
H147 C143 0.931 . S
H148 C144 0.930 . S
O149 Co138 2.039 . S
O149 C139 1.265 . S
C150 O146 1.253 . S
C150 O151 1.227 . S
O151 C150 1.227 . S
N152 Co138 2.140 . S
N152 C155 1.346 . S
N152 C156 1.345 . S
C153 C154 1.387 . S
C153 C157 1.391 . S
C154 C153 1.387 . S
C154 C155 1.369 . S
C154 H163 0.929 . S
C155 N152 1.346 . S
C155 C154 1.369 . S
C155 H158 0.928 . S
C156 N152 1.345 . S
C156 C157 1.371 . S
C156 H159 0.931 . S
C157 C153 1.391 . S
C157 C156 1.371 . S
C157 H164 0.930 . S
H158 C155 0.928 . S
H159 C156 0.931 . S
H160 C136 0.930 . S
H161 C133 0.930 . S
H162 C142 0.930 . S
H163 C154 0.929 . S
H164 C157 0.930 . S
C165 C166 1.351 . S
C165 N168 1.368 1_556 S
C165 H170 0.931 . S
C166 C165 1.351 . S
C166 N167 1.373 . S
C166 H194 0.930 . S
N167 C166 1.373 . S
N167 C169 1.340 . S
N168 C165 1.368 1_554 S
N168 C169 1.321 1_554 S
N168 Co171 2.135 . S
C169 N167 1.340 . S
C169 N168 1.321 1_556 S
C169 H193 0.930 . S
H170 C165 0.931 . S
Co171 N168 2.135 . S
Co171 N174 2.121 . S
Co171 O179 2.055 . S
Co171 O182 2.039 . S
Co171 N185 2.140 . S
C172 O173 1.227 . S
C172 O182 1.265 . S
O173 C172 1.227 . S
N174 Co171 2.121 . S
N174 C176 1.375 . S
N174 C177 1.313 . S
C175 C176 1.338 . S
C175 N178 1.377 . S
C175 H195 0.930 . S
C176 N174 1.375 . S
C176 C175 1.338 . S
C176 H180 0.931 . S
C177 N174 1.313 . S
C177 N178 1.344 . S
C177 H181 0.930 . S
N178 C175 1.377 . S
N178 C177 1.344 . S
O179 Co171 2.055 . S
O179 C183 1.253 . S
H180 C176 0.931 . S
H181 C177 0.930 . S
O182 Co171 2.039 . S
O182 C172 1.265 . S
C183 O179 1.253 . S
C183 O184 1.227 . S
O184 C183 1.227 . S
N185 Co171 2.140 . S
N185 C188 1.346 . S
N185 C189 1.345 . S
C186 C187 1.387 . S
C186 C190 1.391 . S
C187 C186 1.387 . S
C187 C188 1.369 . S
C187 H196 0.929 . S
C188 N185 1.346 . S
C188 C187 1.369 . S
C188 H191 0.928 . S
C189 N185 1.345 . S
C189 C190 1.371 . S
C189 H192 0.931 . S
C190 C186 1.391 . S
C190 C189 1.371 . S
C190 H197 0.930 . S
H191 C188 0.928 . S
H192 C189 0.931 . S
H193 C169 0.930 . S
H194 C166 0.930 . S
H195 C175 0.930 . S
H196 C187 0.929 . S
H197 C190 0.930 . S
H198 C199 0.951 . S
C199 H198 0.951 . S
C199 C205 1.265 . S
H200 C205 0.950 . S
H201 C209 0.949 . S
H202 C210 0.950 . S
H203 C211 0.951 . S
H204 C212 0.951 . S
C205 C199 1.265 . S
C205 H200 0.950 . S
C205 C206 1.478 . S
C206 C205 1.478 . S
C206 C207 1.397 . S
C206 C223 1.394 . S
C207 C206 1.397 . S
C207 C208 1.438 1_455 S
C207 C212 1.429 1_554 S
C208 C207 1.438 1_655 S
C208 C209 1.428 1_554 S
C208 C221 1.394 . S
C209 H201 0.949 . S
C209 C208 1.428 1_556 S
C209 C210 1.345 . S
C210 H202 0.950 . S
C210 C209 1.345 . S
C210 C211 1.424 1_655 S
C211 H203 0.951 . S
C211 C210 1.424 1_455 S
C211 C212 1.347 . S
C212 H204 0.951 . S
C212 C207 1.429 1_556 S
C212 C211 1.347 . S
H213 C214 0.951 . S
C214 H213 0.951 . S
C214 C220 1.265 . S
H215 C220 0.950 . S
H216 C224 0.949 . S
H217 C225 0.950 . S
H218 C226 0.951 . S
H219 C227 0.951 . S
C220 C214 1.265 . S
C220 H215 0.950 . S
C220 C221 1.478 . S
C221 C208 1.394 . S
C221 C220 1.478 . S
C221 C222 1.397 . S
C222 C221 1.397 . S
C222 C223 1.438 1_655 S
C222 C227 1.429 . S
C223 C206 1.394 . S
C223 C222 1.438 1_455 S
C223 C224 1.428 . S
C224 H216 0.949 . S
C224 C223 1.428 . S
C224 C225 1.345 . S
C225 H217 0.950 . S
C225 C224 1.345 . S
C225 C226 1.424 . S
C226 H218 0.951 . S
C226 C225 1.424 . S
C226 C227 1.347 1_455 S
C227 H219 0.951 . S
C227 C222 1.429 . S
C227 C226 1.347 1_655 S
H228 C229 0.951 . S
C229 H228 0.951 . S
C229 C235 1.265 . S
H230 C235 0.950 . S
H231 C239 0.949 . S
H232 C240 0.950 . S
H233 C241 0.951 . S
H234 C242 0.951 . S
C235 C229 1.265 . S
C235 H230 0.950 . S
C235 C236 1.478 . S
C236 C235 1.478 . S
C236 C237 1.397 . S
C236 C253 1.394 . S
C237 C236 1.397 . S
C237 C238 1.438 1_565 S
C237 C242 1.429 . S
C238 C237 1.438 1_545 S
C238 C239 1.428 . S
C238 C251 1.394 . S
C239 H231 0.949 . S
C239 C238 1.428 . S
C239 C240 1.345 . S
C240 H232 0.950 . S
C240 C239 1.345 . S
C240 C241 1.424 . S
C241 H233 0.951 . S
C241 C240 1.424 . S
C241 C242 1.347 1_545 S
C242 H234 0.951 . S
C242 C237 1.429 . S
C242 C241 1.347 1_565 S
H243 C244 0.951 . S
C244 H243 0.951 . S
C244 C250 1.265 . S
H245 C250 0.950 . S
H246 C254 0.949 . S
H247 C255 0.950 . S
H248 C256 0.951 . S
H249 C257 0.951 . S
C250 C244 1.265 . S
C250 H245 0.950 . S
C250 C251 1.478 . S
C251 C238 1.394 . S
C251 C250 1.478 . S
C251 C252 1.389 1_544 S
C252 C251 1.389 1_566 S
C252 C253 1.446 1_556 S
C252 C257 1.428 1_565 S
C253 C236 1.394 . S
C253 C252 1.446 1_554 S
C253 C254 1.428 1_554 S
C254 H246 0.949 . S
C254 C253 1.428 1_556 S
C254 C255 1.345 . S
C255 H247 0.950 . S
C255 C254 1.345 . S
C255 C256 1.424 . S
C256 H248 0.951 . S
C256 C255 1.424 . S
C256 C257 1.347 1_565 S
C257 H249 0.951 . S
C257 C252 1.428 1_545 S
C257 C256 1.347 1_545 S
H258 C259 0.951 . S
C259 H258 0.951 . S
C259 C265 1.265 . S
H260 C265 0.950 . S
H261 C269 0.949 . S
H262 C270 0.950 . S
H263 C271 0.951 . S
H264 C272 0.950 1_556 S
C265 C259 1.265 . S
C265 H260 0.950 . S
C265 C266 1.478 . S
C266 C265 1.478 . S
C266 C267 1.397 . S
C266 C283 1.394 . S
C267 C266 1.397 . S
C267 C268 1.438 . S
C267 C272 1.436 . S
C268 C267 1.438 . S
C268 C269 1.428 . S
C268 C281 1.394 . S
C269 H261 0.949 . S
C269 C268 1.428 . S
C269 C270 1.345 1_554 S
C270 H262 0.950 . S
C270 C269 1.345 1_556 S
C270 C271 1.424 . S
C271 H263 0.951 . S
C271 C270 1.424 . S
C271 C272 1.341 1_556 S
C272 H264 0.950 1_554 S
C272 C267 1.436 . S
C272 C271 1.341 1_554 S
H273 C274 0.951 . S
C274 H273 0.951 . S
C274 C280 1.265 . S
H275 C280 0.950 . S
H276 C284 0.949 . S
H277 C285 0.950 . S
H278 C286 0.951 . S
H279 C287 0.951 . S
C280 C274 1.265 . S
C280 H275 0.950 . S
C280 C281 1.478 . S
C281 C268 1.394 . S
C281 C280 1.478 . S
C281 C282 1.397 . S
C282 C281 1.397 . S
C282 C283 1.438 . S
C282 C287 1.429 . S
C283 C266 1.394 . S
C283 C282 1.438 . S
C283 C284 1.428 . S
C284 H276 0.949 . S
C284 C283 1.428 . S
C284 C285 1.345 . S
C285 H277 0.950 . S
C285 C284 1.345 . S
C285 C286 1.424 . S
C286 H278 0.951 . S
C286 C285 1.424 . S
C286 C287 1.347 . S
C287 H279 0.951 . S
C287 C282 1.429 . S
C287 C286 1.347 . S
H288 C289 0.951 . S
C289 H288 0.951 . S
C289 C295 1.265 . S
H290 C295 0.950 . S
H291 C299 0.949 . S
H292 C300 0.950 . S
H293 C301 0.951 . S
H294 C302 0.951 . S
C295 C289 1.265 . S
C295 H290 0.950 . S
C295 C296 1.478 . S
C296 C295 1.478 . S
C296 C297 1.397 . S
C296 C313 1.394 . S
C297 C296 1.397 . S
C297 C298 1.438 . S
C297 C302 1.429 . S
C298 C297 1.438 . S
C298 C299 1.428 . S
C298 C311 1.394 . S
C299 H291 0.949 . S
C299 C298 1.428 . S
C299 C300 1.345 . S
C300 H292 0.950 . S
C300 C299 1.345 . S
C300 C301 1.424 . S
C301 H293 0.951 . S
C301 C300 1.424 . S
C301 C302 1.347 . S
C302 H294 0.951 . S
C302 C297 1.429 . S
C302 C301 1.347 . S
H303 C304 0.951 . S
C304 H303 0.951 . S
C304 C310 1.265 . S
H305 C310 0.950 . S
H306 C314 0.949 . S
H307 C315 0.950 . S
H308 C316 0.951 . S
H309 C317 0.951 . S
C310 C304 1.265 . S
C310 H305 0.950 . S
C310 C311 1.478 . S
C311 C298 1.394 . S
C311 C310 1.478 . S
C311 C312 1.397 . S
C312 C311 1.397 . S
C312 C313 1.438 . S
C312 C317 1.429 . S
C313 C296 1.394 . S
C313 C312 1.438 . S
C313 C314 1.428 . S
C314 H306 0.949 . S
C314 C313 1.428 . S
C314 C315 1.345 . S
C315 H307 0.950 . S
C315 C314 1.345 . S
C315 C316 1.424 . S
C316 H308 0.951 . S
C316 C315 1.424 . S
C316 C317 1.347 . S
C317 H309 0.951 . S
C317 C312 1.429 . S
C317 C316 1.347 . S
H318 C319 0.951 . S
C319 H318 0.951 . S
C319 C325 1.265 . S
H320 C325 0.950 . S
H321 C329 0.949 . S
H322 C330 0.950 . S
H323 C331 0.951 . S
H324 C332 0.951 . S
C325 C319 1.265 . S
C325 H320 0.950 . S
C325 C326 1.478 . S
C326 C325 1.478 . S
C326 C327 1.397 . S
C326 C343 1.394 . S
C327 C326 1.397 . S
C327 C328 1.438 . S
C327 C332 1.429 . S
C328 C327 1.438 . S
C328 C329 1.428 . S
C328 C341 1.394 . S
C329 H321 0.949 . S
C329 C328 1.428 . S
C329 C330 1.345 . S
C330 H322 0.950 . S
C330 C329 1.345 . S
C330 C331 1.424 . S
C331 H323 0.951 . S
C331 C330 1.424 . S
C331 C332 1.347 . S
C332 H324 0.951 . S
C332 C327 1.429 . S
C332 C331 1.347 . S
H333 C334 0.951 . S
C334 H333 0.951 . S
C334 C340 1.265 . S
H335 C340 0.950 . S
H336 C344 0.949 . S
H337 C345 0.950 . S
H338 C346 0.951 . S
H339 C347 0.951 . S
C340 C334 1.265 . S
C340 H335 0.950 . S
C340 C341 1.478 . S
C341 C328 1.394 . S
C341 C340 1.478 . S
C341 C342 1.397 . S
C342 C341 1.397 . S
C342 C343 1.438 . S
C342 C347 1.429 . S
C343 C326 1.394 . S
C343 C342 1.438 . S
C343 C344 1.428 . S
C344 H336 0.949 . S
C344 C343 1.428 . S
C344 C345 1.345 . S
C345 H337 0.950 . S
C345 C344 1.345 . S
C345 C346 1.424 . S
C346 H338 0.951 . S
C346 C345 1.424 . S
C346 C347 1.347 . S
C347 H339 0.951 . S
C347 C342 1.429 . S
C347 C346 1.347 . S
H348 C349 0.951 . S
C349 H348 0.951 . S
C349 C355 1.265 . S
H350 C355 0.950 . S
H351 C359 0.949 . S
H352 C360 0.950 . S
H353 C361 0.951 . S
H354 C362 0.951 . S
C355 C349 1.265 . S
C355 H350 0.950 . S
C355 C356 1.478 . S
C356 C355 1.478 . S
C356 C357 1.397 . S
C356 C373 1.394 . S
C357 C356 1.397 . S
C357 C358 1.438 . S
C357 C362 1.429 . S
C358 C357 1.438 . S
C358 C359 1.428 . S
C358 C371 1.394 . S
C359 H351 0.949 . S
C359 C358 1.428 . S
C359 C360 1.345 . S
C360 H352 0.950 . S
C360 C359 1.345 . S
C360 C361 1.424 . S
C361 H353 0.951 . S
C361 C360 1.424 . S
C361 C362 1.347 . S
C362 H354 0.951 . S
C362 C357 1.429 . S
C362 C361 1.347 . S
H363 C364 0.951 . S
C364 H363 0.951 . S
C364 C370 1.265 . S
H365 C370 0.950 . S
H366 C374 0.949 . S
H367 C375 0.950 . S
H368 C376 0.951 . S
H369 C377 0.951 . S
C370 C364 1.265 . S
C370 H365 0.950 . S
C370 C371 1.478 . S
C371 C358 1.394 . S
C371 C370 1.478 . S
C371 C372 1.397 . S
C372 C371 1.397 . S
C372 C373 1.438 . S
C372 C377 1.429 . S
C373 C356 1.394 . S
C373 C372 1.438 . S
C373 C374 1.428 . S
C374 H366 0.949 . S
C374 C373 1.428 . S
C374 C375 1.345 . S
C375 H367 0.950 . S
C375 C374 1.345 . S
C375 C376 1.424 . S
C376 H368 0.951 . S
C376 C375 1.424 . S
C376 C377 1.347 . S
C377 H369 0.951 . S
C377 C372 1.429 . S
C377 C376 1.347 . S
H378 C379 0.951 . S
C379 H378 0.951 . S
C379 C385 1.265 . S
H380 C385 0.950 . S
H381 C389 0.949 . S
H382 C390 0.950 . S
H383 C391 0.951 . S
H384 C392 0.951 . S
C385 C379 1.265 . S
C385 H380 0.950 . S
C385 C386 1.478 . S
C386 C385 1.478 . S
C386 C387 1.397 . S
C386 C403 1.394 . S
C387 C386 1.397 . S
C387 C388 1.438 . S
C387 C392 1.429 . S
C388 C387 1.438 . S
C388 C389 1.428 . S
C388 C401 1.394 . S
C389 H381 0.949 . S
C389 C388 1.428 . S
C389 C390 1.345 . S
C390 H382 0.950 . S
C390 C389 1.345 . S
C390 C391 1.424 . S
C391 H383 0.951 . S
C391 C390 1.424 . S
C391 C392 1.347 . S
C392 H384 0.951 . S
C392 C387 1.429 . S
C392 C391 1.347 . S
H393 C394 0.951 . S
C394 H393 0.951 . S
C394 C400 1.265 . S
H395 C400 0.950 . S
H396 C404 0.949 . S
H397 C405 0.950 . S
H398 C406 0.951 . S
H399 C407 0.951 . S
C400 C394 1.265 . S
C400 H395 0.950 . S
C400 C401 1.478 . S
C401 C388 1.394 . S
C401 C400 1.478 . S
C401 C402 1.397 . S
C402 C401 1.397 . S
C402 C403 1.438 . S
C402 C407 1.429 . S
C403 C386 1.394 . S
C403 C402 1.438 . S
C403 C404 1.428 . S
C404 H396 0.949 . S
C404 C403 1.428 . S
C404 C405 1.345 . S
C405 H397 0.950 . S
C405 C404 1.345 . S
C405 C406 1.424 . S
C406 H398 0.951 . S
C406 C405 1.424 . S
C406 C407 1.347 . S
C407 H399 0.951 . S
C407 C402 1.429 . S
C407 C406 1.347 . S
H408 C409 0.951 . S
C409 H408 0.951 . S
C409 C415 1.265 . S
H410 C415 0.950 . S
H411 C419 0.949 . S
H412 C420 0.950 . S
H413 C421 0.951 . S
H414 C422 0.951 . S
C415 C409 1.265 . S
C415 H410 0.950 . S
C415 C416 1.478 . S
C416 C415 1.478 . S
C416 C417 1.397 . S
C416 C433 1.394 . S
C417 C416 1.397 . S
C417 C418 1.438 . S
C417 C422 1.429 . S
C418 C417 1.438 . S
C418 C419 1.428 . S
C418 C431 1.394 . S
C419 H411 0.949 . S
C419 C418 1.428 . S
C419 C420 1.345 . S
C420 H412 0.950 . S
C420 C419 1.345 . S
C420 C421 1.424 . S
C421 H413 0.951 . S
C421 C420 1.424 . S
C421 C422 1.347 . S
C422 H414 0.951 . S
C422 C417 1.429 . S
C422 C421 1.347 . S
H423 C424 0.951 . S
C424 H423 0.951 . S
C424 C430 1.265 . S
H425 C430 0.950 . S
H426 C434 0.949 . S
H427 C435 0.950 . S
H428 C436 0.951 . S
H429 C437 0.951 . S
C430 C424 1.265 . S
C430 H425 0.950 . S
C430 C431 1.478 . S
C431 C418 1.394 . S
C431 C430 1.478 . S
C431 C432 1.397 . S
C432 C431 1.397 . S
C432 C433 1.438 . S
C432 C437 1.429 . S
C433 C416 1.394 . S
C433 C432 1.438 . S
C433 C434 1.428 . S
C434 H426 0.949 . S
C434 C433 1.428 . S
C434 C435 1.345 . S
C435 H427 0.950 . S
C435 C434 1.345 . S
C435 C436 1.424 . S
C436 H428 0.951 . S
C436 C435 1.424 . S
C436 C437 1.347 . S
C437 H429 0.951 . S
C437 C432 1.429 . S
C437 C436 1.347 . S
H438 C439 0.951 . S
C439 H438 0.951 . S
C439 C445 1.265 . S
H440 C445 0.950 . S
H441 C449 0.949 . S
H442 C450 0.950 . S
H443 C451 0.951 . S
H444 C452 0.951 . S
C445 C439 1.265 . S
C445 H440 0.950 . S
C445 C446 1.478 . S
C446 C445 1.478 . S
C446 C447 1.397 . S
C446 C463 1.394 . S
C447 C446 1.397 . S
C447 C448 1.438 . S
C447 C452 1.429 . S
C448 C447 1.438 . S
C448 C449 1.428 . S
C448 C461 1.394 . S
C449 H441 0.949 . S
C449 C448 1.428 . S
C449 C450 1.345 . S
C450 H442 0.950 . S
C450 C449 1.345 . S
C450 C451 1.424 . S
C451 H443 0.951 . S
C451 C450 1.424 . S
C451 C452 1.347 . S
C452 H444 0.951 . S
C452 C447 1.429 . S
C452 C451 1.347 . S
H453 C454 0.951 . S
C454 H453 0.951 . S
C454 C460 1.265 . S
H455 C460 0.950 . S
H456 C464 0.949 . S
H457 C465 0.950 . S
H458 C466 0.951 . S
H459 C467 0.951 . S
C460 C454 1.265 . S
C460 H455 0.950 . S
C460 C461 1.478 . S
C461 C448 1.394 . S
C461 C460 1.478 . S
C461 C462 1.397 . S
C462 C461 1.397 . S
C462 C463 1.438 . S
C462 C467 1.429 . S
C463 C446 1.394 . S
C463 C462 1.438 . S
C463 C464 1.428 . S
C464 H456 0.949 . S
C464 C463 1.428 . S
C464 C465 1.345 . S
C465 H457 0.950 . S
C465 C464 1.345 . S
C465 C466 1.424 . S
C466 H458 0.951 . S
C466 C465 1.424 . S
C466 C467 1.347 . S
C467 H459 0.951 . S
C467 C462 1.429 . S
C467 C466 1.347 . S
H468 C469 0.951 . S
C469 H468 0.951 . S
C469 C475 1.265 . S
H470 C475 0.950 1_556 S
H471 C479 0.949 . S
H472 C480 0.950 . S
H473 C481 0.951 . S
H474 C482 0.951 . S
C475 C469 1.265 . S
C475 H470 0.950 1_554 S
C475 C476 1.478 . S
C476 C475 1.478 . S
C476 C477 1.397 . S
C476 C493 1.394 . S
C477 C476 1.397 . S
C477 C478 1.438 . S
C477 C482 1.429 . S
C478 C477 1.438 . S
C478 C479 1.428 . S
C478 C491 1.394 . S
C479 H471 0.949 . S
C479 C478 1.428 . S
C479 C480 1.345 . S
C480 H472 0.950 . S
C480 C479 1.345 . S
C480 C481 1.424 . S
C481 H473 0.951 . S
C481 C480 1.424 . S
C481 C482 1.347 . S
C482 H474 0.951 . S
C482 C477 1.429 . S
C482 C481 1.347 . S
H483 C484 0.951 . S
C484 H483 0.951 . S
C484 C490 1.265 . S
H485 C490 0.950 . S
H486 C494 0.949 . S
H487 C495 0.950 . S
H488 C496 0.951 . S
H489 C497 0.951 . S
C490 C484 1.265 . S
C490 H485 0.950 . S
C490 C491 1.478 . S
C491 C478 1.394 . S
C491 C490 1.478 . S
C491 C492 1.397 . S
C492 C491 1.397 . S
C492 C493 1.438 . S
C492 C497 1.429 . S
C493 C476 1.394 . S
C493 C492 1.438 . S
C493 C494 1.428 1_554 S
C494 H486 0.949 . S
C494 C493 1.428 1_556 S
C494 C495 1.345 . S
C495 H487 0.950 . S
C495 C494 1.345 . S
C495 C496 1.424 . S
C496 H488 0.951 . S
C496 C495 1.424 . S
C496 C497 1.347 1_556 S
C497 H489 0.951 . S
C497 C492 1.429 . S
C497 C496 1.347 1_554 S
H498 C499 0.951 . S
C499 H498 0.951 . S
C499 C505 1.265 . S
H500 C505 0.950 . S
H501 C509 0.949 . S
H502 C510 0.950 . S
H503 C511 0.951 . S
H504 C512 0.951 . S
C505 C499 1.265 . S
C505 H500 0.950 . S
C505 C506 1.478 . S
C506 C505 1.478 . S
C506 C507 1.397 . S
C506 C523 1.394 . S
C507 C506 1.397 . S
C507 C508 1.438 . S
C507 C512 1.429 1_554 S
C508 C507 1.438 . S
C508 C509 1.428 1_554 S
C508 C521 1.394 . S
C509 H501 0.949 . S
C509 C508 1.428 1_556 S
C509 C510 1.345 . S
C510 H502 0.950 . S
C510 C509 1.345 . S
C510 C511 1.424 . S
C511 H503 0.951 . S
C511 C510 1.424 . S
C511 C512 1.347 . S
C512 H504 0.951 . S
C512 C507 1.429 1_556 S
C512 C511 1.347 . S
H513 C514 0.951 . S
C514 H513 0.951 . S
C514 C520 1.265 . S
H515 C520 0.950 . S
H516 C524 0.949 . S
H517 C525 0.950 . S
H518 C526 0.951 . S
H519 C527 0.951 . S
C520 C514 1.265 . S
C520 H515 0.950 . S
C520 C521 1.478 . S
C521 C508 1.394 . S
C521 C520 1.478 . S
C521 C522 1.397 . S
C522 C521 1.397 . S
C522 C523 1.438 . S
C522 C527 1.429 . S
C523 C506 1.394 . S
C523 C522 1.438 . S
C523 C524 1.428 . S
C524 H516 0.949 . S
C524 C523 1.428 . S
C524 C525 1.345 . S
C525 H517 0.950 . S
C525 C524 1.345 . S
C525 C526 1.424 . S
C526 H518 0.951 . S
C526 C525 1.424 . S
C526 C527 1.347 . S
C527 H519 0.951 . S
C527 C522 1.429 . S
C527 C526 1.347 . S
H528 C529 0.951 . S
C529 H528 0.951 . S
C529 C535 1.265 . S
H530 C535 0.950 . S
H531 C539 0.949 . S
H532 C540 0.950 . S
H533 C541 0.951 . S
H534 C542 0.951 . S
C535 C529 1.265 . S
C535 H530 0.950 . S
C535 C536 1.478 . S
C536 C535 1.478 . S
C536 C537 1.397 . S
C536 C553 1.394 . S
C537 C536 1.397 . S
C537 C538 1.438 . S
C537 C542 1.429 . S
C538 C537 1.438 . S
C538 C539 1.428 1_554 S
C538 C551 1.394 . S
C539 H531 0.949 . S
C539 C538 1.428 1_556 S
C539 C540 1.345 . S
C540 H532 0.950 . S
C540 C539 1.345 . S
C540 C541 1.424 . S
C541 H533 0.951 . S
C541 C540 1.424 . S
C541 C542 1.347 1_556 S
C542 H534 0.951 . S
C542 C537 1.429 . S
C542 C541 1.347 1_554 S
H543 C544 0.951 . S
C544 H543 0.951 . S
C544 C550 1.265 . S
H545 C550 0.950 . S
H546 C554 0.949 . S
H547 C555 0.950 . S
H548 C556 0.951 . S
H549 C557 0.951 . S
C550 C544 1.265 . S
C550 H545 0.950 . S
C550 C551 1.478 . S
C551 C538 1.394 . S
C551 C550 1.478 . S
C551 C552 1.397 . S
C552 C551 1.397 . S
C552 C553 1.438 . S
C552 C557 1.429 . S
C553 C536 1.394 . S
C553 C552 1.438 . S
C553 C554 1.428 . S
C554 H546 0.949 . S
C554 C553 1.428 . S
C554 C555 1.345 . S
C555 H547 0.950 . S
C555 C554 1.345 . S
C555 C556 1.424 . S
C556 H548 0.951 . S
C556 C555 1.424 . S
C556 C557 1.347 . S
C557 H549 0.951 . S
C557 C552 1.429 . S
C557 C556 1.347 . S
H558 C559 0.951 . S
C559 H558 0.951 . S
C559 C565 1.265 . S
H560 C565 0.950 . S
H561 C569 0.949 . S
H562 C570 0.950 . S
H563 C571 0.951 . S
H564 C572 0.951 . S
C565 C559 1.265 . S
C565 H560 0.950 . S
C565 C566 1.478 . S
C566 C565 1.478 . S
C566 C567 1.397 . S
C566 C583 1.394 . S
C567 C566 1.397 . S
C567 C568 1.438 . S
C567 C572 1.429 . S
C568 C567 1.438 . S
C568 C569 1.428 . S
C568 C581 1.394 . S
C569 H561 0.949 . S
C569 C568 1.428 . S
C569 C570 1.345 . S
C570 H562 0.950 . S
C570 C569 1.345 . S
C570 C571 1.424 . S
C571 H563 0.951 . S
C571 C570 1.424 . S
C571 C572 1.347 . S
C572 H564 0.951 . S
C572 C567 1.429 . S
C572 C571 1.347 . S
H573 C574 0.951 . S
C574 H573 0.951 . S
C574 C580 1.265 . S
H575 C580 0.950 . S
H576 C584 0.949 . S
H577 C585 0.950 . S
H578 C586 0.951 . S
H579 C587 0.951 . S
C580 C574 1.265 . S
C580 H575 0.950 . S
C580 C581 1.478 . S
C581 C568 1.394 . S
C581 C580 1.478 . S
C581 C582 1.397 . S
C582 C581 1.397 . S
C582 C583 1.438 . S
C582 C587 1.429 . S
C583 C566 1.394 . S
C583 C582 1.438 . S
C583 C584 1.428 . S
C584 H576 0.949 . S
C584 C583 1.428 . S
C584 C585 1.345 . S
C585 H577 0.950 . S
C585 C584 1.345 . S
C585 C586 1.424 . S
C586 H578 0.951 . S
C586 C585 1.424 . S
C586 C587 1.347 . S
C587 H579 0.951 . S
C587 C582 1.429 . S
C587 C586 1.347 . S
H588 C589 0.951 . S
C589 H588 0.951 . S
C589 C595 1.265 . S
H590 C595 0.950 1_556 S
H591 C599 0.949 . S
H592 C600 0.950 . S
H593 C601 0.951 . S
H594 C602 0.951 . S
C595 C589 1.265 . S
C595 H590 0.950 1_554 S
C595 C596 1.478 . S
C596 C595 1.478 . S
C596 C597 1.397 . S
C596 C613 1.394 . S
C597 C596 1.397 . S
C597 C598 1.438 . S
C597 C602 1.429 . S
C598 C597 1.438 . S
C598 C599 1.428 . S
C598 C611 1.394 . S
C599 H591 0.949 . S
C599 C598 1.428 . S
C599 C600 1.345 . S
C600 H592 0.950 . S
C600 C599 1.345 . S
C600 C601 1.424 . S
C601 H593 0.951 . S
C601 C600 1.424 . S
C601 C602 1.347 . S
C602 H594 0.951 . S
C602 C597 1.429 . S
C602 C601 1.347 . S
H603 C604 0.951 . S
C604 H603 0.951 . S
C604 C610 1.265 . S
H605 C610 0.950 . S
H606 C614 0.949 . S
H607 C615 0.950 . S
H608 C616 0.951 . S
H609 C617 0.951 . S
C610 C604 1.265 . S
C610 H605 0.950 . S
C610 C611 1.478 . S
C611 C598 1.394 . S
C611 C610 1.478 . S
C611 C612 1.397 . S
C612 C611 1.397 . S
C612 C613 1.438 . S
C612 C617 1.429 . S
C613 C596 1.394 . S
C613 C612 1.438 . S
C613 C614 1.428 . S
C614 H606 0.949 . S
C614 C613 1.428 . S
C614 C615 1.345 . S
C615 H607 0.950 . S
C615 C614 1.345 . S
C615 C616 1.424 . S
C616 H608 0.951 . S
C616 C615 1.424 . S
C616 C617 1.347 . S
C617 H609 0.951 . S
C617 C612 1.429 . S
C617 C616 1.347 . S
H618 C619 0.951 . S
C619 H618 0.951 . S
C619 C625 1.265 . S
H620 C625 0.950 . S
H621 C629 0.949 . S
H622 C630 0.950 . S
H623 C631 0.951 . S
H624 C632 0.951 . S
C625 C619 1.265 . S
C625 H620 0.950 . S
C625 C626 1.478 . S
C626 C625 1.478 . S
C626 C627 1.397 1_554 S
C626 C643 1.394 . S
C627 C626 1.397 1_556 S
C627 C628 1.438 1_556 S
C627 C632 1.429 . S
C628 C627 1.438 1_554 S
C628 C629 1.428 1_554 S
C628 C641 1.394 . S
C629 H621 0.949 . S
C629 C628 1.428 1_556 S
C629 C630 1.345 . S
C630 H622 0.950 . S
C630 C629 1.345 . S
C630 C631 1.424 . S
C631 H623 0.951 . S
C631 C630 1.424 . S
C631 C632 1.347 . S
C632 H624 0.951 . S
C632 C627 1.429 . S
C632 C631 1.347 . S
H633 C634 0.951 . S
C634 H633 0.951 . S
C634 C640 1.265 . S
H635 C640 0.950 . S
H636 C644 0.949 . S
H637 C645 0.950 . S
H638 C646 0.951 . S
H639 C647 0.951 . S
C640 C634 1.265 . S
C640 H635 0.950 . S
C640 C641 1.478 . S
C641 C628 1.394 . S
C641 C640 1.478 . S
C641 C642 1.397 . S
C642 C641 1.397 . S
C642 C643 1.438 . S
C642 C647 1.429 . S
C643 C626 1.394 . S
C643 C642 1.438 . S
C643 C644 1.428 . S
C644 H636 0.949 . S
C644 C643 1.428 . S
C644 C645 1.345 . S
C645 H637 0.950 . S
C645 C644 1.345 . S
C645 C646 1.424 . S
C646 H638 0.951 . S
C646 C645 1.424 . S
C646 C647 1.347 . S
C647 H639 0.951 . S
C647 C642 1.429 . S
C647 C646 1.347 . S
C199 C18 0.973 . S
C214 C117 0.975 . S
C229 C150 0.833 . S
C244 C51 0.832 . S
C259 C183 0.931 . S
C274 C84 0.924 . S
C289 N13 1.420 . S
C304 N2 1.417 . S
C319 N46 1.421 . S
C334 N35 1.417 . S
C349 N68 1.392 . S
C364 N79 1.397 . S
C379 N112 1.480 . S
C394 N101 1.479 . S
C409 N134 1.418 . S
C424 N145 1.421 . S
C439 N178 1.399 . S
C454 N167 1.395 . S
C469 C21 0.803 . S
C484 C73 0.670 . S
C499 C54 0.570 . S
C514 C120 0.746 . S
C529 C87 0.578 . S
C544 C153 0.761 . S
C559 C106 0.875 . S
C574 C172 0.804 . S
C589 C7 0.864 . S
C604 C139 0.899 . S
C619 C40 0.863 . S
C634 C186 0.697 . S
