# Generated by pormake.
# Topology uof, (4)-cn, num edge types: 1
# Building blocks:
#     Node 0, Type 0, BuildingBlock: QUQFOY_clean_sbu_1, # of connection points: 4
#     Node 1, Type 0, BuildingBlock: QUQFOY_clean_sbu_1, # of connection points: 4
#     Node 2, Type 0, BuildingBlock: QUQFOY_clean_sbu_1, # of connection points: 4
#     Node 3, Type 0, BuildingBlock: QUQFOY_clean_sbu_1, # of connection points: 4
#     Node 4, Type 0, BuildingBlock: QUQFOY_clean_sbu_1, # of connection points: 4
#     Node 5, Type 0, BuildingBlock: QUQFOY_clean_sbu_1, # of connection points: 4
#     Node 6, Type 0, BuildingBlock: QUQFOY_clean_sbu_1, # of connection points: 4
#     Node 7, Type 0, BuildingBlock: QUQFOY_clean_sbu_1, # of connection points: 4
#     Node 8, Type 0, BuildingBlock: QUQFOY_clean_sbu_1, # of connection points: 4
#     Node 9, Type 0, BuildingBlock: QUQFOY_clean_sbu_1, # of connection points: 4
#     Node 10, Type 0, BuildingBlock: QUQFOY_clean_sbu_1, # of connection points: 4
#     Node 11, Type 0, BuildingBlock: QUQFOY_clean_sbu_1, # of connection points: 4
#     Edge 12, Type (0, 0), BuildingBlock: EZIPEK_clean_linker_0, # of connection points: 2
#     Edge 13, Type (0, 0), BuildingBlock: EZIPEK_clean_linker_0, # of connection points: 2
#     Edge 14, Type (0, 0), BuildingBlock: EZIPEK_clean_linker_0, # of connection points: 2
#     Edge 15, Type (0, 0), BuildingBlock: EZIPEK_clean_linker_0, # of connection points: 2
#     Edge 16, Type (0, 0), BuildingBlock: EZIPEK_clean_linker_0, # of connection points: 2
#     Edge 17, Type (0, 0), BuildingBlock: EZIPEK_clean_linker_0, # of connection points: 2
#     Edge 18, Type (0, 0), BuildingBlock: EZIPEK_clean_linker_0, # of connection points: 2
#     Edge 19, Type (0, 0), BuildingBlock: EZIPEK_clean_linker_0, # of connection points: 2
#     Edge 20, Type (0, 0), BuildingBlock: EZIPEK_clean_linker_0, # of connection points: 2
#     Edge 21, Type (0, 0), BuildingBlock: EZIPEK_clean_linker_0, # of connection points: 2
#     Edge 22, Type (0, 0), BuildingBlock: EZIPEK_clean_linker_0, # of connection points: 2
#     Edge 23, Type (0, 0), BuildingBlock: EZIPEK_clean_linker_0, # of connection points: 2
#     Edge 24, Type (0, 0), BuildingBlock: EZIPEK_clean_linker_0, # of connection points: 2
#     Edge 25, Type (0, 0), BuildingBlock: EZIPEK_clean_linker_0, # of connection points: 2
#     Edge 26, Type (0, 0), BuildingBlock: EZIPEK_clean_linker_0, # of connection points: 2
#     Edge 27, Type (0, 0), BuildingBlock: EZIPEK_clean_linker_0, # of connection points: 2
#     Edge 28, Type (0, 0), BuildingBlock: EZIPEK_clean_linker_0, # of connection points: 2
#     Edge 29, Type (0, 0), BuildingBlock: EZIPEK_clean_linker_0, # of connection points: 2
#     Edge 30, Type (0, 0), BuildingBlock: EZIPEK_clean_linker_0, # of connection points: 2
#     Edge 31, Type (0, 0), BuildingBlock: EZIPEK_clean_linker_0, # of connection points: 2
#     Edge 32, Type (0, 0), BuildingBlock: EZIPEK_clean_linker_0, # of connection points: 2
#     Edge 33, Type (0, 0), BuildingBlock: EZIPEK_clean_linker_0, # of connection points: 2
#     Edge 34, Type (0, 0), BuildingBlock: EZIPEK_clean_linker_0, # of connection points: 2
#     Edge 35, Type (0, 0), BuildingBlock: EZIPEK_clean_linker_0, # of connection points: 2
# Relax obj value: 0.141
# Max RMSD: 0.150
# Mean RMSD: 0.150
data_MOF--net-uof--node1-QUQFOY_clean_sbu_1--edge1-EZIPEK_clean_linker_0
_symmetry_space_group_name_H-M    P1
_symmetry_Int_Tables_number       1
_symmetry_cell_setting            triclinic
loop_
_symmetry_equiv_pos_as_xyz
'x, y, z'
_cell_length_a     23.849369
_cell_length_b     23.864744
_cell_length_c     54.981729
_cell_angle_alpha  90.042655
_cell_angle_beta   89.979743
_cell_angle_gamma 119.9058
loop_
_atom_site_label
_atom_site_type_symbol
_atom_site_fract_x
_atom_site_fract_y
_atom_site_fract_z
_atom_type_partial_charge
O0 O 0.34169 0.3626 0.23263 0.0
Cd1 Cd 0.25323 0.28631 0.2427 0.0
Cd2 Cd 0.22833 0.33851 0.19988 0.0
O3 O 0.31701 0.4198 0.2076 0.0
O4 O 0.28047 0.25524 0.27172 0.0
O5 O 0.21065 0.2903 0.27405 0.0
C6 C 0.24403 0.26854 0.2848 0.0
C7 C 0.13041 0.32753 0.18588 0.0
C8 C 0.35867 0.41283 0.21981 0.0
C9 C 0.22474 0.2119 0.1978 0.0
O10 O 0.23869 0.264 0.18688 0.0
O11 O 0.21676 0.20666 0.22066 0.0
O12 O 0.18149 0.35296 0.17238 0.0
O13 O 0.13663 0.31504 0.20828 0.0
O14 O 0.98875 0.34652 0.56675 0.0
Cd15 Cd 0.97537 0.25752 0.57644 0.0
Cd16 Cd 0.89567 0.23327 0.53462 0.0
O17 O 0.90552 0.32312 0.54265 0.0
O18 O 0.03866 0.28571 0.60381 0.0
O19 O 0.93427 0.21825 0.60891 0.0
C20 C 0.99131 0.25154 0.61819 0.0
C21 C 0.808 0.13398 0.52271 0.0
C22 C 0.95529 0.36427 0.55446 0.0
C23 C 0.01615 0.22653 0.53064 0.0
O24 O 0.97807 0.24138 0.52013 0.0
O25 O 0.01462 0.21891 0.5535 0.0
O26 O 0.82951 0.18409 0.50878 0.0
O27 O 0.83072 0.14221 0.54459 0.0
O28 O 0.647 0.99319 0.90043 0.0
Cd29 Cd 0.72169 0.97792 0.9093 0.0
Cd30 Cd 0.66345 0.89484 0.86879 0.0
O31 O 0.58539 0.90777 0.87766 0.0
O32 O 0.7593 0.04108 0.93665 0.0
O33 O 0.71996 0.93624 0.9416 0.0
C34 C 0.74493 0.9933 0.95097 0.0
C35 C 0.67094 0.80368 0.85737 0.0
C36 C 0.5949 0.9587 0.88885 0.0
C37 C 0.79012 0.01346 0.86236 0.0
O38 O 0.73711 0.97364 0.85227 0.0
O39 O 0.797 0.01496 0.88529 0.0
O40 O 0.69294 0.83212 0.87807 0.0
O41 O 0.63649 0.8215 0.84506 0.0
O42 O 0.65463 0.63293 0.23153 0.0
Cd43 Cd 0.7439 0.709 0.24119 0.0
Cd44 Cd 0.76664 0.65403 0.19813 0.0
O45 O 0.67753 0.57427 0.20651 0.0
O46 O 0.7169 0.74328 0.26934 0.0
O47 O 0.78468 0.70607 0.27316 0.0
C48 C 0.75214 0.72993 0.28308 0.0
C49 C 0.86302 0.66415 0.1833 0.0
C50 C 0.63671 0.58223 0.21887 0.0
C51 C 0.77526 0.78222 0.1956 0.0
O52 O 0.75848 0.72929 0.18476 0.0
O53 O 0.78345 0.78751 0.21846 0.0
O54 O 0.81036 0.63516 0.17072 0.0
O55 O 0.85893 0.67888 0.20563 0.0
O56 O 0.03546 0.66132 0.56564 0.0
Cd57 Cd 0.04336 0.74979 0.57304 0.0
Cd58 Cd 0.12024 0.77003 0.53158 0.0
O59 O 0.11523 0.68295 0.54001 0.0
O60 O 0.98466 0.72045 0.60199 0.0
O61 O 0.08366 0.80229 0.60373 0.0
C62 C 0.03027 0.76458 0.61485 0.0
C63 C 0.20635 0.87238 0.52218 0.0
C64 C 0.06798 0.64284 0.55308 0.0
C65 C 0.99639 0.77005 0.52615 0.0
O66 O 0.03633 0.75685 0.51617 0.0
O67 O 0.99726 0.77888 0.54896 0.0
O68 O 0.18786 0.82483 0.50712 0.0
O69 O 0.18152 0.8599 0.5438 0.0
O70 O 0.37676 0.03709 0.89969 0.0
Cd71 Cd 0.29501 0.04308 0.90691 0.0
Cd72 Cd 0.35037 0.11939 0.86519 0.0
O73 O 0.4335 0.11646 0.87381 0.0
O74 O 0.26682 0.98417 0.93575 0.0
O75 O 0.28072 0.08199 0.9376 0.0
C76 C 0.26641 0.02885 0.94863 0.0
C77 C 0.33205 0.20426 0.8555 0.0
C78 C 0.42746 0.06995 0.88708 0.0
C79 C 0.22839 0.99403 0.86005 0.0
O80 O 0.28109 0.03442 0.85001 0.0
O81 O 0.22026 0.99541 0.88282 0.0
O82 O 0.36172 0.18616 0.84053 0.0
O83 O 0.31989 0.17961 0.87714 0.0
O84 O 0.63127 0.65619 0.43891 0.0
Cd85 Cd 0.71019 0.74236 0.42891 0.0
Cd86 Cd 0.66329 0.77121 0.4731 0.0
O87 O 0.58104 0.68166 0.46697 0.0
O88 O 0.73711 0.71048 0.40008 0.0
O89 O 0.71102 0.7869 0.39732 0.0
C90 C 0.72878 0.74993 0.38682 0.0
C91 C 0.67727 0.87226 0.48353 0.0
C92 C 0.58402 0.63992 0.45331 0.0
C93 C 0.78876 0.77071 0.4735 0.0
O94 O 0.74033 0.7641 0.48546 0.0
O95 O 0.7898 0.77248 0.45044 0.0
O96 O 0.65262 0.82499 0.49886 0.0
O97 O 0.68602 0.85982 0.46137 0.0
O98 O 0.97216 0.62889 0.76885 0.0
Cd99 Cd 0.97037 0.71195 0.76086 0.0
Cd100 Cd 0.89298 0.66416 0.8055 0.0
O101 O 0.89931 0.58176 0.798 0.0
O102 O 0.0271 0.73545 0.7314 0.0
O103 O 0.93208 0.72855 0.73042 0.0
C104 C 0.9837 0.73943 0.71896 0.0
C105 C 0.80445 0.67413 0.81923 0.0
C106 C 0.94161 0.58248 0.78359 0.0
C107 C 0.02213 0.7857 0.80716 0.0
O108 O 0.97712 0.7391 0.81886 0.0
O109 O 0.02412 0.78662 0.78408 0.0
O110 O 0.82618 0.64331 0.8317 0.0
O111 O 0.82799 0.6921 0.79759 0.0
O112 O 0.34191 0.97093 0.10341 0.0
Cd113 Cd 0.25593 0.96715 0.09456 0.0
Cd114 Cd 0.22632 0.88621 0.13637 0.0
O115 O 0.31614 0.89381 0.13077 0.0
O116 O 0.28869 0.02494 0.06545 0.0
O117 O 0.20367 0.92788 0.06374 0.0
C118 C 0.2432 0.98057 0.05263 0.0
C119 C 0.12359 0.79826 0.14351 0.0
C120 C 0.3581 0.93901 0.1174 0.0
C121 C 0.22689 0.01178 0.14065 0.0
O122 O 0.2322 0.96756 0.15129 0.0
O123 O 0.22808 0.01622 0.11764 0.0
O124 O 0.16801 0.81805 0.16001 0.0
O125 O 0.14046 0.8221 0.12185 0.0
O126 O 0.36347 0.34336 0.4408 0.0
Cd127 Cd 0.28957 0.25339 0.4305 0.0
Cd128 Cd 0.34631 0.23116 0.4714 0.0
O129 O 0.42583 0.32106 0.4639 0.0
O130 O 0.25285 0.28046 0.40323 0.0
O131 O 0.29396 0.21655 0.39775 0.0
C132 C 0.26826 0.2483 0.38863 0.0
C133 C 0.33322 0.1297 0.4799 0.0
C134 C 0.4155 0.36189 0.45269 0.0
C135 C 0.21776 0.21978 0.47608 0.0
O136 O 0.27176 0.23854 0.48636 0.0
O137 O 0.21127 0.21003 0.45332 0.0
O138 O 0.35977 0.17617 0.49555 0.0
O139 O 0.32291 0.14352 0.45818 0.0
O140 O 0.01958 0.36129 0.77324 0.0
Cd141 Cd 0.04072 0.29007 0.76388 0.0
Cd142 Cd 0.11341 0.34575 0.80476 0.0
O143 O 0.10291 0.42508 0.7965 0.0
O144 O 0.98372 0.2542 0.73478 0.0
O145 O 0.09003 0.29837 0.7329 0.0
C146 C 0.03486 0.27215 0.72193 0.0
C147 C 0.20112 0.33161 0.81345 0.0
C148 C 0.05193 0.41384 0.78492 0.0
C149 C 0.99806 0.2168 0.80864 0.0
O150 O 0.03082 0.27091 0.81913 0.0
O151 O 0.0045 0.21079 0.78607 0.0
O152 O 0.18138 0.35854 0.82905 0.0
O153 O 0.17725 0.32154 0.79168 0.0
O154 O 0.65658 0.01518 0.10648 0.0
Cd155 Cd 0.7482 0.03382 0.09704 0.0
Cd156 Cd 0.76756 0.10654 0.13869 0.0
O157 O 0.67655 0.09502 0.13185 0.0
O158 O 0.72673 0.97905 0.06726 0.0
O159 O 0.79132 0.08502 0.06664 0.0
C160 C 0.76181 0.03084 0.05504 0.0
C161 C 0.86958 0.19477 0.14609 0.0
C162 C 0.63675 0.04621 0.1193 0.0
C163 C 0.78166 0.99027 0.14139 0.0
O164 O 0.76362 0.0251 0.15247 0.0
O165 O 0.78914 0.99382 0.11852 0.0
O166 O 0.82523 0.17388 0.16267 0.0
O167 O 0.85254 0.17233 0.12424 0.0
C168 C 0.98173 0.20948 0.14956 0.0
C169 C 0.93936 0.2348 0.1532 0.0
C170 C 0.02605 0.32677 0.17592 0.0
C171 C 0.06515 0.29757 0.17433 0.0
N172 N 0.07687 0.20641 0.16279 0.0
N173 N 0.92038 0.31714 0.17003 0.0
C174 C 0.04231 0.23809 0.16178 0.0
C175 C 0.96144 0.29348 0.16645 0.0
N176 N 0.96447 0.15749 0.13463 0.0
N177 N 0.05134 0.38687 0.18605 0.0
H178 H 0.87515 0.29721 0.16169 0.0
H179 H 0.92991 0.35507 0.18178 0.0
H180 H 0.09789 0.41146 0.19338 0.0
H181 H 0.02837 0.41421 0.18586 0.0
H182 H 0.99729 0.14408 0.12831 0.0
H183 H 0.9187 0.12912 0.12724 0.0
H184 H 0.05874 0.15875 0.1572 0.0
H185 H 0.12179 0.22542 0.1712 0.0
C186 C 0.70441 0.02772 0.51504 0.0
C187 C 0.77221 0.06781 0.51193 0.0
C188 C 0.7771 0.97881 0.4914 0.0
C189 C 0.70858 0.94037 0.4925 0.0
N190 N 0.60584 0.92969 0.50314 0.0
N191 N 0.87181 0.08505 0.49364 0.0
C192 C 0.67183 0.96522 0.50378 0.0
C193 C 0.80795 0.04446 0.49892 0.0
N194 N 0.67152 0.04914 0.52902 0.0
N195 N 0.81348 0.9515 0.48474 0.0
H196 H 0.89768 0.13266 0.49968 0.0
H197 H 0.89799 0.07312 0.48161 0.0
H198 H 0.79372 0.90317 0.47976 0.0
H199 H 0.8636 0.97486 0.48655 0.0
H200 H 0.6234 0.0203 0.53416 0.0
H201 H 0.69385 0.09519 0.53678 0.0
H202 H 0.57572 0.94696 0.50895 0.0
H203 H 0.58103 0.88412 0.49504 0.0
C204 C 0.71249 0.72587 0.86358 0.0
C205 C 0.69105 0.75738 0.84726 0.0
C206 C 0.71986 0.70745 0.8139 0.0
C207 C 0.75826 0.69369 0.82983 0.0
N208 N 0.79875 0.70401 0.8714 0.0
N209 N 0.68782 0.78568 0.80465 0.0
C210 C 0.75632 0.70594 0.8552 0.0
C211 C 0.69753 0.74982 0.82173 0.0
N212 N 0.69109 0.7145 0.88705 0.0
N213 N 0.70412 0.68006 0.79133 0.0
H214 H 0.67809 0.82253 0.80848 0.0
H215 H 0.69782 0.78413 0.78627 0.0
H216 H 0.71555 0.64523 0.78564 0.0
H217 H 0.67245 0.68556 0.77981 0.0
H218 H 0.70251 0.68784 0.89907 0.0
H219 H 0.65532 0.72392 0.89332 0.0
H220 H 0.8009 0.71795 0.88952 0.0
H221 H 0.83705 0.6972 0.86665 0.0
C222 C 0.97156 0.67114 0.1764 0.0
C223 C 0.92725 0.69269 0.17095 0.0
C224 C 0.01016 0.78093 0.1461 0.0
C225 C 0.0539 0.75771 0.15056 0.0
N226 N 0.07198 0.67366 0.16599 0.0
N227 N 0.90065 0.76172 0.14725 0.0
C228 C 0.03326 0.70067 0.1646 0.0
C229 C 0.94523 0.74499 0.15453 0.0
N230 N 0.95494 0.62297 0.19308 0.0
N231 N 0.03153 0.8402 0.13561 0.0
H232 H 0.85438 0.742 0.15455 0.0
H233 H 0.90811 0.79248 0.13265 0.0
H234 H 0.07835 0.86984 0.12931 0.0
H235 H 0.00451 0.86356 0.13522 0.0
H236 H 0.98733 0.60978 0.20001 0.0
H237 H 0.90924 0.59848 0.2011 0.0
H238 H 0.05778 0.62907 0.17402 0.0
H239 H 0.11639 0.69318 0.15704 0.0
C240 C 0.2346 0.02609 0.4916 0.0
C241 C 0.30273 0.0613 0.48846 0.0
C242 C 0.30931 0.97074 0.50713 0.0
C243 C 0.24238 0.94008 0.51287 0.0
N244 N 0.14607 0.94903 0.51619 0.0
N245 N 0.40651 0.06998 0.49522 0.0
C246 C 0.20657 0.97093 0.50684 0.0
C247 C 0.3407 0.0345 0.4969 0.0
N248 N 0.19571 0.04409 0.47975 0.0
N249 N 0.34263 0.93893 0.51135 0.0
H250 H 0.43032 0.11505 0.48672 0.0
H251 H 0.43738 0.0563 0.50327 0.0
H252 H 0.32151 0.89373 0.51975 0.0
H253 H 0.38978 0.9556 0.50537 0.0
H254 H 0.14547 0.01523 0.47931 0.0
H255 H 0.21296 0.08478 0.46872 0.0
H256 H 0.12129 0.97456 0.51453 0.0
H257 H 0.12274 0.90871 0.52743 0.0
C258 C 0.33613 0.3072 0.84063 0.0
C259 C 0.30016 0.24017 0.84614 0.0
C260 C 0.20622 0.23271 0.82498 0.0
C261 C 0.23895 0.30089 0.82203 0.0
N262 N 0.33373 0.4045 0.82902 0.0
N263 N 0.19544 0.14346 0.84902 0.0
C264 C 0.30361 0.3387 0.83053 0.0
C265 C 0.23363 0.20434 0.83999 0.0
N266 N 0.40116 0.34052 0.84494 0.0
N267 N 0.14924 0.19414 0.81318 0.0
H268 H 0.21271 0.12001 0.86009 0.0
H269 H 0.14521 0.11846 0.84732 0.0
H270 H 0.12558 0.21166 0.80239 0.0
H271 H 0.12794 0.14394 0.81254 0.0
H272 H 0.43147 0.38776 0.83912 0.0
H273 H 0.42535 0.31931 0.85325 0.0
H274 H 0.37814 0.43523 0.83714 0.0
H275 H 0.31242 0.42844 0.8206 0.0
C276 C 0.5326 0.51179 0.24052 0.0
C277 C 0.56625 0.5345 0.21819 0.0
C278 C 0.46296 0.47689 0.19621 0.0
C279 C 0.42905 0.46091 0.21872 0.0
N280 N 0.43199 0.47532 0.26223 0.0
N281 N 0.56182 0.54956 0.1749 0.0
C282 C 0.46411 0.48207 0.24087 0.0
C283 C 0.53106 0.52007 0.19602 0.0
N284 N 0.5661 0.51678 0.26132 0.0
N285 N 0.43114 0.4486 0.1751 0.0
H286 H 0.61136 0.58193 0.17385 0.0
H287 H 0.53712 0.54624 0.15884 0.0
H288 H 0.38168 0.41583 0.17428 0.0
H289 H 0.45501 0.45316 0.1587 0.0
H290 H 0.54377 0.49594 0.27778 0.0
H291 H 0.61608 0.53561 0.26145 0.0
H292 H 0.45545 0.49515 0.27863 0.0
H293 H 0.38197 0.45593 0.26305 0.0
C294 C 0.03282 0.53871 0.57502 0.0
C295 C 0.04484 0.57222 0.5526 0.0
C296 C 0.9978 0.46849 0.5308 0.0
C297 C 0.97898 0.43493 0.55334 0.0
N298 N 0.96776 0.43846 0.59681 0.0
N299 N 0.02554 0.56726 0.50922 0.0
C300 C 0.99339 0.47027 0.57543 0.0
C301 C 0.02386 0.53673 0.53046 0.0
N302 N 0.06061 0.57228 0.5959 0.0
N303 N 0.99381 0.43606 0.50979 0.0
H304 H 0.043 0.6168 0.50798 0.0
H305 H 0.00399 0.54238 0.49322 0.0
H306 H 0.97588 0.38635 0.50908 0.0
H307 H 0.01382 0.45948 0.49341 0.0
H308 H 0.05872 0.55001 0.61242 0.0
H309 H 0.09131 0.62229 0.59615 0.0
H310 H 0.97158 0.46205 0.61319 0.0
H311 H 0.93692 0.38853 0.59767 0.0
C312 C 0.49815 0.037 0.90913 0.0
C313 C 0.47571 0.04768 0.88666 0.0
C314 C 0.53218 0.99991 0.86508 0.0
C315 C 0.54788 0.98239 0.88771 0.0
N316 N 0.53509 0.97371 0.93127 0.0
N317 N 0.46018 0.02635 0.84342 0.0
C318 C 0.52772 0.99796 0.90975 0.0
C319 C 0.48975 0.02578 0.86463 0.0
N320 N 0.49262 0.0656 0.92984 0.0
N321 N 0.55987 0.99474 0.84405 0.0
H322 H 0.42798 0.04373 0.84208 0.0
H323 H 0.46313 0.00407 0.82754 0.0
H324 H 0.59165 0.97671 0.84342 0.0
H325 H 0.55581 0.01383 0.82754 0.0
H326 H 0.51359 0.06472 0.94634 0.0
H327 H 0.47278 0.09594 0.9299 0.0
H328 H 0.51594 0.97835 0.94768 0.0
H329 H 0.55466 0.94321 0.9323 0.0
C330 C 0.50882 0.53657 0.43224 0.0
C331 C 0.5349 0.56989 0.45442 0.0
C332 C 0.48083 0.46615 0.47621 0.0
C333 C 0.46205 0.43268 0.45363 0.0
N334 N 0.47052 0.43672 0.40986 0.0
N335 N 0.55626 0.56456 0.49712 0.0
C336 C 0.47961 0.46819 0.43154 0.0
C337 C 0.52371 0.5343 0.47636 0.0
N338 N 0.51078 0.57031 0.41187 0.0
N339 N 0.45576 0.43377 0.49752 0.0
H340 H 0.5887 0.61404 0.49816 0.0
H341 H 0.55534 0.5395 0.51277 0.0
H342 H 0.42344 0.38422 0.49837 0.0
H343 H 0.46242 0.45719 0.51417 0.0
H344 H 0.48734 0.54814 0.39572 0.0
H345 H 0.53 0.62033 0.41194 0.0
H346 H 0.48784 0.46065 0.39336 0.0
H347 H 0.45183 0.38687 0.40869 0.0
C348 C 0.96863 0.50509 0.76329 0.0
C349 C 0.96253 0.53324 0.78514 0.0
C350 C 0.01281 0.48047 0.80756 0.0
C351 C 0.02658 0.45972 0.78524 0.0
N352 N 0.02889 0.46434 0.74137 0.0
N353 N 0.99245 0.55891 0.82749 0.0
C354 C 0.00757 0.47542 0.76295 0.0
C355 C 0.98813 0.5239 0.80718 0.0
N356 N 0.93614 0.50568 0.74291 0.0
N357 N 0.02045 0.45681 0.82917 0.0
H358 H 0.97663 0.59242 0.82817 0.0
H359 H 0.01747 0.55908 0.84306 0.0
H360 H 0.03689 0.42383 0.83043 0.0
H361 H 0.00441 0.46514 0.84569 0.0
H362 H 0.9339 0.48065 0.72707 0.0
H363 H 0.90578 0.5255 0.74274 0.0
H364 H 0.02151 0.48025 0.72467 0.0
H365 H 0.06009 0.44561 0.74041 0.0
C366 C 0.46337 0.96986 0.09691 0.0
C367 C 0.42835 0.96002 0.11886 0.0
C368 C 0.53041 0.00478 0.14176 0.0
C369 C 0.56575 0.02212 0.11957 0.0
N370 N 0.56531 0.03291 0.07594 0.0
N371 N 0.43105 0.98155 0.16201 0.0
C372 C 0.53197 0.00794 0.0971 0.0
C373 C 0.46244 0.98097 0.14129 0.0
N374 N 0.43107 0.94144 0.07588 0.0
N375 N 0.56078 0.00816 0.16323 0.0
H376 H 0.3818 0.9661 0.16264 0.0
H377 H 0.45523 0.00316 0.17812 0.0
H378 H 0.61004 0.02393 0.1645 0.0
H379 H 0.53582 0.98939 0.17947 0.0
H380 H 0.45441 0.9419 0.0598 0.0
H381 H 0.38094 0.91148 0.07522 0.0
H382 H 0.54278 0.02919 0.05931 0.0
H383 H 0.61533 0.06344 0.07545 0.0
C384 C 0.28194 0.12437 0.15642 0.0
C385 C 0.22571 0.06242 0.15542 0.0
C386 C 0.16751 0.09902 0.1817 0.0
C387 C 0.22496 0.15954 0.18392 0.0
N388 N 0.34017 0.22623 0.17785 0.0
N389 N 0.11886 0.98644 0.17014 0.0
C390 C 0.28314 0.1714 0.17244 0.0
C391 C 0.16962 0.04832 0.16904 0.0
N392 N 0.33433 0.1382 0.14216 0.0
N393 N 0.11054 0.09087 0.19082 0.0
H394 H 0.11836 0.94828 0.16077 0.0
H395 H 0.07955 0.97189 0.18178 0.0
H396 H 0.10725 0.12698 0.2003 0.0
H397 H 0.06571 0.05033 0.18733 0.0
H398 H 0.3732 0.18477 0.13978 0.0
H399 H 0.33753 0.10389 0.13141 0.0
H400 H 0.38521 0.23433 0.17211 0.0
H401 H 0.34349 0.26131 0.19002 0.0
C402 C 0.10952 0.27816 0.50209 0.0
C403 C 0.06672 0.22389 0.51633 0.0
C404 C 0.12863 0.17069 0.50667 0.0
C405 C 0.16573 0.22075 0.48993 0.0
N406 N 0.18801 0.31953 0.46953 0.0
N407 N 0.02727 0.11315 0.52838 0.0
C408 C 0.15469 0.27343 0.4868 0.0
C409 C 0.07382 0.16848 0.51757 0.0
N410 N 0.11003 0.33554 0.50435 0.0
N411 N 0.1468 0.12658 0.51275 0.0
H412 H 0.98534 0.10914 0.53599 0.0
H413 H 0.02719 0.06947 0.52762 0.0
H414 H 0.18871 0.12903 0.50598 0.0
H415 H 0.12445 0.0923 0.52644 0.0
H416 H 0.14487 0.3784 0.49631 0.0
H417 H 0.08004 0.34246 0.51629 0.0
H418 H 0.176 0.35433 0.46452 0.0
H419 H 0.225 0.32072 0.45903 0.0
C420 C 0.88064 0.14919 0.81731 0.0
C421 C 0.94496 0.16352 0.82188 0.0
C422 C 0.90614 0.07289 0.85004 0.0
C423 C 0.8427 0.06295 0.84754 0.0
N424 N 0.77211 0.10177 0.83323 0.0
N425 N 0.02044 0.14935 0.84669 0.0
C426 C 0.83029 0.10345 0.83223 0.0
C427 C 0.95832 0.12849 0.83949 0.0
N428 N 0.86768 0.18015 0.79912 0.0
N429 N 0.91634 0.02837 0.86186 0.0
H430 H 0.05956 0.19169 0.84009 0.0
H431 H 0.03227 0.12862 0.86103 0.0
H432 H 0.87882 0.98586 0.86921 0.0
H433 H 0.96101 0.0304 0.86215 0.0
H434 H 0.82093 0.16568 0.79315 0.0
H435 H 0.90349 0.21758 0.78882 0.0
H436 H 0.76324 0.13512 0.82436 0.0
H437 H 0.73469 0.07173 0.84492 0.0
C438 C 0.8372 0.94819 0.16801 0.0
C439 C 0.78193 0.93715 0.15457 0.0
C440 C 0.721 0.82698 0.17012 0.0
C441 C 0.77802 0.83594 0.18171 0.0
N442 N 0.89295 0.90043 0.18869 0.0
N443 N 0.67412 0.86451 0.13973 0.0
C444 C 0.83698 0.89534 0.17988 0.0
C445 C 0.72477 0.87593 0.15459 0.0
N446 N 0.88915 0.00924 0.1698 0.0
N447 N 0.66263 0.77323 0.17498 0.0
H448 H 0.67371 0.89991 0.12873 0.0
H449 H 0.63446 0.81866 0.13686 0.0
H450 H 0.65725 0.73677 0.18684 0.0
H451 H 0.61855 0.7675 0.16914 0.0
H452 H 0.9282 0.02154 0.18135 0.0
H453 H 0.89084 0.04882 0.16108 0.0
H454 H 0.93849 0.94038 0.18565 0.0
H455 H 0.89454 0.86236 0.19736 0.0
C456 C 0.82871 0.71696 0.50186 0.0
C457 C 0.84217 0.77009 0.48655 0.0
C458 C 0.95791 0.81561 0.4934 0.0
C459 C 0.94385 0.76817 0.51154 0.0
N460 N 0.86581 0.6744 0.53404 0.0
N461 N 0.9183 0.87528 0.47055 0.0
C462 C 0.87913 0.7193 0.51621 0.0
C463 C 0.90646 0.82089 0.48301 0.0
N464 N 0.76885 0.66261 0.50156 0.0
N465 N 0.01997 0.85458 0.48564 0.0
H466 H 0.88173 0.88144 0.4629 0.0
H467 H 0.96373 0.91673 0.46978 0.0
H468 H 0.05879 0.8506 0.49213 0.0
H469 H 0.03196 0.88595 0.47091 0.0
H470 H 0.75831 0.61988 0.51041 0.0
H471 H 0.7311 0.65749 0.49048 0.0
H472 H 0.81922 0.64339 0.54041 0.0
H473 H 0.90145 0.66999 0.54338 0.0
C474 C 0.16193 0.87639 0.85068 0.0
C475 C 0.17807 0.94103 0.84553 0.0
C476 C 0.08858 0.90301 0.8167 0.0
C477 C 0.07502 0.83882 0.82065 0.0
N478 N 0.10679 0.76499 0.83715 0.0
N479 N 0.1678 0.01653 0.81915 0.0
C480 C 0.11367 0.82545 0.83656 0.0
C481 C 0.14496 0.95466 0.82711 0.0
N482 N 0.19338 0.86367 0.86877 0.0
N483 N 0.04623 0.91452 0.80387 0.0
H484 H 0.20992 0.05573 0.82581 0.0
H485 H 0.14883 0.02811 0.80417 0.0
H486 H 0.00347 0.87771 0.79637 0.0
H487 H 0.05022 0.95994 0.80271 0.0
H488 H 0.17774 0.81744 0.87552 0.0
H489 H 0.2336 0.89959 0.87791 0.0
H490 H 0.13824 0.75409 0.8464 0.0
H491 H 0.07322 0.72661 0.82656 0.0
C492 C 0.29372 0.31388 0.35054 0.0
C493 C 0.26091 0.2524 0.36201 0.0
C494 C 0.21571 0.20095 0.32266 0.0
C495 C 0.24477 0.26293 0.3116 0.0
N496 N 0.30387 0.37915 0.31526 0.0
N497 N 0.18292 0.13861 0.36007 0.0
C498 C 0.28108 0.31964 0.32568 0.0
C499 C 0.21989 0.19611 0.34836 0.0
N500 N 0.33984 0.36626 0.36305 0.0
N501 N 0.18467 0.14672 0.30854 0.0
H502 H 0.1846 0.13335 0.37884 0.0
H503 H 0.14692 0.0973 0.35156 0.0
H504 H 0.17738 0.14844 0.2899 0.0
H505 H 0.1693 0.10026 0.31496 0.0
H506 H 0.37062 0.4107 0.355 0.0
H507 H 0.35188 0.36393 0.3811 0.0
H508 H 0.32412 0.42204 0.32517 0.0
H509 H 0.29814 0.38564 0.29687 0.0
C510 C 0.99025 0.19994 0.65825 0.0
C511 C 1.00235 0.25556 0.64479 0.0
C512 C 0.04703 0.32309 0.68118 0.0
C513 C 0.02951 0.26674 0.69512 0.0
N514 N 0.97928 0.15078 0.69791 0.0
N515 N 0.03086 0.36786 0.64409 0.0
C516 C 0.99947 0.20485 0.68393 0.0
C517 C 0.02805 0.31667 0.6564 0.0
N518 N 0.97252 0.14316 0.64636 0.0
N519 N 0.08151 0.38286 0.69164 0.0
H520 H 0.01573 0.36486 0.62611 0.0
H521 H 0.04219 0.4116 0.65228 0.0
H522 H 0.09427 0.38981 0.70997 0.0
H523 H 0.10205 0.42579 0.68177 0.0
H524 H 0.96968 0.10269 0.65471 0.0
H525 H 0.96535 0.13788 0.6276 0.0
H526 H 0.95015 0.10398 0.69141 0.0
H527 H 0.98889 0.15279 0.7165 0.0
C528 C 0.79586 0.99746 0.01704 0.0
C529 C 0.76382 0.02744 0.02821 0.0
C530 C 0.71583 0.02985 0.98913 0.0
C531 C 0.75117 0.00379 0.97762 0.0
N532 N 0.83226 0.97184 0.97955 0.0
N533 N 0.7013 0.0813 0.02469 0.0
C534 C 0.79318 0.98988 0.99129 0.0
C535 C 0.72669 0.04691 0.01413 0.0
N536 N 0.82824 0.97563 0.03113 0.0
N537 N 0.66899 0.03472 0.9765 0.0
H538 H 0.70567 0.09243 0.04317 0.0
H539 H 0.68024 0.10327 0.01483 0.0
H540 H 0.65813 0.02121 0.95832 0.0
H541 H 0.63651 0.04629 0.98453 0.0
H542 H 0.84594 0.94649 0.02458 0.0
H543 H 0.83459 0.98394 0.04982 0.0
H544 H 0.86887 0.96758 0.98812 0.0
H545 H 0.83148 0.96585 0.96074 0.0
C546 C 0.69813 0.68328 0.32267 0.0
C547 C 0.74889 0.7353 0.30978 0.0
C548 C 0.78725 0.79818 0.34755 0.0
C549 C 0.73398 0.7477 0.36007 0.0
N550 N 0.63246 0.64742 0.35918 0.0
N551 N 0.83722 0.84502 0.30867 0.0
C552 C 0.68768 0.69162 0.34751 0.0
C553 C 0.79223 0.79366 0.32186 0.0
N554 N 0.66065 0.6254 0.31122 0.0
N555 N 0.83415 0.84917 0.36034 0.0
H556 H 0.84352 0.8424 0.29 0.0
H557 H 0.8656 0.89119 0.31584 0.0
H558 H 0.83127 0.85449 0.37906 0.0
H559 H 0.87777 0.88401 0.3528 0.0
H560 H 0.62745 0.58341 0.32019 0.0
H561 H 0.66639 0.61783 0.29294 0.0
H562 H 0.59355 0.60905 0.35043 0.0
H563 H 0.62281 0.6522 0.37734 0.0
C564 C 0.07172 0.78965 0.65868 0.0
C565 C 0.02049 0.76934 0.64153 0.0
C566 C 0.94271 0.72977 0.67524 0.0
C567 C 0.99426 0.75544 0.6924 0.0
N568 N 0.10721 0.83425 0.69881 0.0
N569 N 0.91018 0.74553 0.63545 0.0
C570 C 0.05861 0.79341 0.68362 0.0
C571 C 0.95689 0.7477 0.65041 0.0
N572 N 0.13174 0.80133 0.65197 0.0
N573 N 0.88101 0.68534 0.6818 0.0
H574 H 0.91994 0.7636 0.61774 0.0
H575 H 0.86444 0.7341 0.64177 0.0
H576 H 0.86799 0.66547 0.6991 0.0
H577 H 0.84399 0.66226 0.66907 0.0
H578 H 0.168 0.81111 0.66467 0.0
H579 H 0.14338 0.79348 0.63456 0.0
H580 H 0.15391 0.86583 0.69259 0.0
H581 H 0.09876 0.84283 0.71668 0.0
C582 C 0.26244 0.05539 0.0174 0.0
C583 C 0.23837 0.99124 0.02604 0.0
C584 C 0.21111 0.9542 0.98393 0.0
C585 C 0.25124 0.0183 0.97525 0.0
N586 N 0.3266 0.13027 0.98609 0.0
N587 N 0.20044 0.87904 0.01517 0.0
C588 C 0.27987 0.06939 0.99255 0.0
C589 C 0.21505 0.9401 0.00874 0.0
N590 N 0.26737 0.10288 0.03262 0.0
N591 N 0.1681 0.90689 0.96879 0.0
H592 H 0.20795 0.86642 0.03245 0.0
H593 H 0.18833 0.84254 0.00233 0.0
H594 H 0.15944 0.91639 0.95109 0.0
H595 H 0.1351 0.86061 0.97497 0.0
H596 H 0.28074 0.14923 0.02647 0.0
H597 H 0.24966 0.09354 0.05039 0.0
H598 H 0.35148 0.1666 0.99893 0.0
H599 H 0.34653 0.14283 0.96878 0.0
loop_
_geom_bond_atom_site_label_1
_geom_bond_atom_site_label_2
_geom_bond_distance
_geom_bond_site_symmetry_2
_ccdc_geom_bond_type
O0 Cd1 2.223 . S
O0 C8 1.315 . S
Cd1 O0 2.223 . S
Cd1 O4 2.297 . S
Cd1 O5 2.439 . S
Cd1 O11 2.240 . S
Cd2 O3 2.240 . S
Cd2 O10 2.223 . S
Cd2 O12 2.297 . S
Cd2 O13 2.439 . S
O3 Cd2 2.240 . S
O3 C8 1.279 . S
O4 Cd1 2.297 . S
O4 C6 1.247 . S
O5 Cd1 2.439 . S
O5 C6 1.208 . S
C6 O4 1.247 . S
C6 O5 1.208 . S
C7 O12 1.247 . S
C7 O13 1.208 . S
C8 O0 1.315 . S
C8 O3 1.279 . S
C9 O10 1.315 . S
C9 O11 1.279 . S
O10 Cd2 2.223 . S
O10 C9 1.315 . S
O11 Cd1 2.240 . S
O11 C9 1.279 . S
O12 Cd2 2.297 . S
O12 C7 1.247 . S
O13 Cd2 2.439 . S
O13 C7 1.208 . S
O14 Cd15 2.223 . S
O14 C22 1.315 1_455 S
Cd15 O14 2.223 . S
Cd15 O18 2.297 . S
Cd15 O19 2.439 1_455 S
Cd15 O25 2.240 . S
Cd16 O17 2.240 . S
Cd16 O24 2.223 1_655 S
Cd16 O26 2.297 . S
Cd16 O27 2.439 . S
O17 Cd16 2.240 . S
O17 C22 1.279 . S
O18 Cd15 2.297 . S
O18 C20 1.247 1_455 S
O19 Cd15 2.439 1_655 S
O19 C20 1.208 . S
C20 O18 1.247 1_655 S
C20 O19 1.208 . S
C21 O26 1.247 . S
C21 O27 1.208 . S
C22 O14 1.315 1_655 S
C22 O17 1.279 . S
C23 O24 1.315 . S
C23 O25 1.279 . S
O24 Cd16 2.223 1_455 S
O24 C23 1.315 . S
O25 Cd15 2.240 . S
O25 C23 1.279 . S
O26 Cd16 2.297 . S
O26 C21 1.247 . S
O27 Cd16 2.439 . S
O27 C21 1.208 . S
O28 Cd29 2.223 . S
O28 C36 1.315 1_545 S
Cd29 O28 2.223 . S
Cd29 O32 2.297 . S
Cd29 O33 2.439 1_545 S
Cd29 O39 2.240 . S
Cd30 O31 2.240 . S
Cd30 O38 2.223 1_565 S
Cd30 O40 2.297 . S
Cd30 O41 2.439 . S
O31 Cd30 2.240 . S
O31 C36 1.279 . S
O32 Cd29 2.297 . S
O32 C34 1.247 1_545 S
O33 Cd29 2.439 1_565 S
O33 C34 1.208 . S
C34 O32 1.247 1_565 S
C34 O33 1.208 . S
C35 O40 1.247 . S
C35 O41 1.208 . S
C36 O28 1.315 1_565 S
C36 O31 1.279 . S
C37 O38 1.315 . S
C37 O39 1.279 . S
O38 Cd30 2.223 1_545 S
O38 C37 1.315 . S
O39 Cd29 2.240 . S
O39 C37 1.279 . S
O40 Cd30 2.297 . S
O40 C35 1.247 . S
O41 Cd30 2.439 . S
O41 C35 1.208 . S
O42 Cd43 2.223 . S
O42 C50 1.315 . S
Cd43 O42 2.223 . S
Cd43 O46 2.297 . S
Cd43 O47 2.439 . S
Cd43 O53 2.240 . S
Cd44 O45 2.240 . S
Cd44 O52 2.223 . S
Cd44 O54 2.297 . S
Cd44 O55 2.439 . S
O45 Cd44 2.240 . S
O45 C50 1.279 . S
O46 Cd43 2.297 . S
O46 C48 1.247 . S
O47 Cd43 2.439 . S
O47 C48 1.208 . S
C48 O46 1.247 . S
C48 O47 1.208 . S
C49 O54 1.247 . S
C49 O55 1.208 . S
C50 O42 1.315 . S
C50 O45 1.279 . S
C51 O52 1.315 . S
C51 O53 1.279 . S
O52 Cd44 2.223 . S
O52 C51 1.315 . S
O53 Cd43 2.240 . S
O53 C51 1.279 . S
O54 Cd44 2.297 . S
O54 C49 1.247 . S
O55 Cd44 2.439 . S
O55 C49 1.208 . S
O56 Cd57 2.223 . S
O56 C64 1.315 1_655 S
Cd57 O56 2.223 . S
Cd57 O60 2.297 . S
Cd57 O61 2.439 1_655 S
Cd57 O67 2.240 . S
Cd58 O59 2.240 . S
Cd58 O66 2.223 1_455 S
Cd58 O68 2.297 . S
Cd58 O69 2.439 . S
O59 Cd58 2.240 . S
O59 C64 1.279 . S
O60 Cd57 2.297 . S
O60 C62 1.247 1_655 S
O61 Cd57 2.439 1_455 S
O61 C62 1.208 . S
C62 O60 1.247 1_455 S
C62 O61 1.208 . S
C63 O68 1.247 . S
C63 O69 1.208 . S
C64 O56 1.315 1_455 S
C64 O59 1.279 . S
C65 O66 1.315 . S
C65 O67 1.279 . S
O66 Cd58 2.223 1_655 S
O66 C65 1.315 . S
O67 Cd57 2.240 . S
O67 C65 1.279 . S
O68 Cd58 2.297 . S
O68 C63 1.247 . S
O69 Cd58 2.439 . S
O69 C63 1.208 . S
O70 Cd71 2.223 . S
O70 C78 1.315 1_565 S
Cd71 O70 2.223 . S
Cd71 O74 2.297 . S
Cd71 O75 2.439 1_565 S
Cd71 O81 2.240 . S
Cd72 O73 2.240 . S
Cd72 O80 2.223 1_545 S
Cd72 O82 2.297 . S
Cd72 O83 2.439 . S
O73 Cd72 2.240 . S
O73 C78 1.279 . S
O74 Cd71 2.297 . S
O74 C76 1.247 1_565 S
O75 Cd71 2.439 1_545 S
O75 C76 1.208 . S
C76 O74 1.247 1_545 S
C76 O75 1.208 . S
C77 O82 1.247 . S
C77 O83 1.208 . S
C78 O70 1.315 1_545 S
C78 O73 1.279 . S
C79 O80 1.315 . S
C79 O81 1.279 . S
O80 Cd72 2.223 1_565 S
O80 C79 1.315 . S
O81 Cd71 2.240 . S
O81 C79 1.279 . S
O82 Cd72 2.297 . S
O82 C77 1.247 . S
O83 Cd72 2.439 . S
O83 C77 1.208 . S
O84 Cd85 2.223 . S
O84 C92 1.315 . S
Cd85 O84 2.223 . S
Cd85 O88 2.297 . S
Cd85 O89 2.439 . S
Cd85 O95 2.240 . S
Cd86 O87 2.240 . S
Cd86 O94 2.223 . S
Cd86 O96 2.297 . S
Cd86 O97 2.439 . S
O87 Cd86 2.240 . S
O87 C92 1.279 . S
O88 Cd85 2.297 . S
O88 C90 1.247 . S
O89 Cd85 2.439 . S
O89 C90 1.208 . S
C90 O88 1.247 . S
C90 O89 1.208 . S
C91 O96 1.247 . S
C91 O97 1.208 . S
C92 O84 1.315 . S
C92 O87 1.279 . S
C93 O94 1.315 . S
C93 O95 1.279 . S
O94 Cd86 2.223 . S
O94 C93 1.315 . S
O95 Cd85 2.240 . S
O95 C93 1.279 . S
O96 Cd86 2.297 . S
O96 C91 1.247 . S
O97 Cd86 2.439 . S
O97 C91 1.208 . S
O98 Cd99 2.223 . S
O98 C106 1.315 1_455 S
Cd99 O98 2.223 . S
Cd99 O102 2.297 . S
Cd99 O103 2.439 1_455 S
Cd99 O109 2.240 . S
Cd100 O101 2.240 . S
Cd100 O108 2.223 1_655 S
Cd100 O110 2.297 . S
Cd100 O111 2.439 . S
O101 Cd100 2.240 . S
O101 C106 1.279 . S
O102 Cd99 2.297 . S
O102 C104 1.247 1_455 S
O103 Cd99 2.439 1_655 S
O103 C104 1.208 . S
C104 O102 1.247 1_655 S
C104 O103 1.208 . S
C105 O110 1.247 . S
C105 O111 1.208 . S
C106 O98 1.315 1_655 S
C106 O101 1.279 . S
C107 O108 1.315 . S
C107 O109 1.279 . S
O108 Cd100 2.223 1_455 S
O108 C107 1.315 . S
O109 Cd99 2.240 . S
O109 C107 1.279 . S
O110 Cd100 2.297 . S
O110 C105 1.247 . S
O111 Cd100 2.439 . S
O111 C105 1.208 . S
O112 Cd113 2.223 . S
O112 C120 1.315 1_545 S
Cd113 O112 2.223 . S
Cd113 O116 2.297 . S
Cd113 O117 2.439 1_545 S
Cd113 O123 2.240 . S
Cd114 O115 2.240 . S
Cd114 O122 2.223 1_565 S
Cd114 O124 2.297 . S
Cd114 O125 2.439 . S
O115 Cd114 2.240 . S
O115 C120 1.279 . S
O116 Cd113 2.297 . S
O116 C118 1.247 1_545 S
O117 Cd113 2.439 1_565 S
O117 C118 1.208 . S
C118 O116 1.247 1_565 S
C118 O117 1.208 . S
C119 O124 1.247 . S
C119 O125 1.208 . S
C120 O112 1.315 1_565 S
C120 O115 1.279 . S
C121 O122 1.315 . S
C121 O123 1.279 . S
O122 Cd114 2.223 1_545 S
O122 C121 1.315 . S
O123 Cd113 2.240 . S
O123 C121 1.279 . S
O124 Cd114 2.297 . S
O124 C119 1.247 . S
O125 Cd114 2.439 . S
O125 C119 1.208 . S
O126 Cd127 2.223 . S
O126 C134 1.315 . S
Cd127 O126 2.223 . S
Cd127 O130 2.297 . S
Cd127 O131 2.439 . S
Cd127 O137 2.240 . S
Cd128 O129 2.240 . S
Cd128 O136 2.223 . S
Cd128 O138 2.297 . S
Cd128 O139 2.439 . S
O129 Cd128 2.240 . S
O129 C134 1.279 . S
O130 Cd127 2.297 . S
O130 C132 1.247 . S
O131 Cd127 2.439 . S
O131 C132 1.208 . S
C132 O130 1.247 . S
C132 O131 1.208 . S
C133 O138 1.247 . S
C133 O139 1.208 . S
C134 O126 1.315 . S
C134 O129 1.279 . S
C135 O136 1.315 . S
C135 O137 1.279 . S
O136 Cd128 2.223 . S
O136 C135 1.315 . S
O137 Cd127 2.240 . S
O137 C135 1.279 . S
O138 Cd128 2.297 . S
O138 C133 1.247 . S
O139 Cd128 2.439 . S
O139 C133 1.208 . S
O140 Cd141 2.223 . S
O140 C148 1.315 1_655 S
Cd141 O140 2.223 . S
Cd141 O144 2.297 . S
Cd141 O145 2.439 1_655 S
Cd141 O151 2.240 . S
Cd142 O143 2.240 . S
Cd142 O150 2.223 1_455 S
Cd142 O152 2.297 . S
Cd142 O153 2.439 . S
O143 Cd142 2.240 . S
O143 C148 1.279 . S
O144 Cd141 2.297 . S
O144 C146 1.247 1_655 S
O145 Cd141 2.439 1_455 S
O145 C146 1.208 . S
C146 O144 1.247 1_455 S
C146 O145 1.208 . S
C147 O152 1.247 . S
C147 O153 1.208 . S
C148 O140 1.315 1_455 S
C148 O143 1.279 . S
C149 O150 1.315 . S
C149 O151 1.279 . S
O150 Cd142 2.223 1_655 S
O150 C149 1.315 . S
O151 Cd141 2.240 . S
O151 C149 1.279 . S
O152 Cd142 2.297 . S
O152 C147 1.247 . S
O153 Cd142 2.439 . S
O153 C147 1.208 . S
O154 Cd155 2.223 . S
O154 C162 1.315 1_565 S
Cd155 O154 2.223 . S
Cd155 O158 2.297 . S
Cd155 O159 2.439 1_565 S
Cd155 O165 2.240 . S
Cd156 O157 2.240 . S
Cd156 O164 2.223 1_545 S
Cd156 O166 2.297 . S
Cd156 O167 2.439 . S
O157 Cd156 2.240 . S
O157 C162 1.279 . S
O158 Cd155 2.297 . S
O158 C160 1.247 1_565 S
O159 Cd155 2.439 1_545 S
O159 C160 1.208 . S
C160 O158 1.247 1_545 S
C160 O159 1.208 . S
C161 O166 1.247 . S
C161 O167 1.208 . S
C162 O154 1.315 1_545 S
C162 O157 1.279 . S
C163 O164 1.315 . S
C163 O165 1.279 . S
O164 Cd156 2.223 1_565 S
O164 C163 1.315 . S
O165 Cd155 2.240 . S
O165 C163 1.279 . S
O166 Cd156 2.297 . S
O166 C161 1.247 . S
O167 Cd156 2.439 . S
O167 C161 1.208 . S
C168 C169 1.363 . S
C168 C174 1.379 1_655 S
C168 N176 1.356 . S
C169 C168 1.363 . S
C169 C175 1.363 . S
C170 C171 1.363 . S
C170 C175 1.379 1_455 S
C170 N177 1.356 . S
C171 C170 1.363 . S
C171 C174 1.363 . S
N172 C174 1.356 . S
N172 H184 0.984 . S
N172 H185 0.985 . S
N173 C175 1.356 . S
N173 H178 0.984 . S
N173 H179 0.985 . S
C174 C168 1.379 1_455 S
C174 C171 1.363 . S
C174 N172 1.356 . S
C175 C169 1.363 . S
C175 C170 1.379 1_655 S
C175 N173 1.356 . S
N176 C168 1.356 . S
N176 H182 0.984 . S
N176 H183 0.984 . S
N177 C170 1.356 . S
N177 H180 0.984 . S
N177 H181 0.985 . S
H178 N173 0.984 . S
H179 N173 0.985 . S
H180 N177 0.984 . S
H181 N177 0.985 . S
H182 N176 0.984 . S
H183 N176 0.984 . S
H184 N172 0.984 . S
H185 N172 0.985 . S
C186 C187 1.363 . S
C186 C192 1.379 1_545 S
C186 N194 1.356 . S
C187 C186 1.363 . S
C187 C193 1.363 . S
C188 C189 1.363 . S
C188 C193 1.379 1_565 S
C188 N195 1.356 . S
C189 C188 1.363 . S
C189 C192 1.363 . S
N190 C192 1.356 . S
N190 H202 0.984 . S
N190 H203 0.985 . S
N191 C193 1.356 . S
N191 H196 0.984 . S
N191 H197 0.985 . S
C192 C186 1.379 1_565 S
C192 C189 1.363 . S
C192 N190 1.356 . S
C193 C187 1.363 . S
C193 C188 1.379 1_545 S
C193 N191 1.356 . S
N194 C186 1.356 . S
N194 H200 0.984 1_545 S
N194 H201 0.984 . S
N195 C188 1.356 . S
N195 H198 0.984 . S
N195 H199 0.985 1_565 S
H196 N191 0.984 . S
H197 N191 0.985 . S
H198 N195 0.984 . S
H199 N195 0.985 1_545 S
H200 N194 0.984 1_565 S
H201 N194 0.984 . S
H202 N190 0.984 . S
H203 N190 0.985 . S
C204 C205 1.363 . S
C204 C210 1.379 . S
C204 N212 1.356 . S
C205 C204 1.363 . S
C205 C211 1.363 . S
C206 C207 1.363 . S
C206 C211 1.379 . S
C206 N213 1.356 . S
C207 C206 1.363 . S
C207 C210 1.363 . S
N208 C210 1.356 . S
N208 H220 0.984 . S
N208 H221 0.985 . S
N209 C211 1.356 . S
N209 H214 0.984 . S
N209 H215 0.985 . S
C210 C204 1.379 . S
C210 C207 1.363 . S
C210 N208 1.356 . S
C211 C205 1.363 . S
C211 C206 1.379 . S
C211 N209 1.356 . S
N212 C204 1.356 . S
N212 H218 0.984 . S
N212 H219 0.984 . S
N213 C206 1.356 . S
N213 H216 0.984 . S
N213 H217 0.985 . S
H214 N209 0.984 . S
H215 N209 0.985 . S
H216 N213 0.984 . S
H217 N213 0.985 . S
H218 N212 0.984 . S
H219 N212 0.984 . S
H220 N208 0.984 . S
H221 N208 0.985 . S
C222 C223 1.363 . S
C222 C228 1.379 1_655 S
C222 N230 1.356 . S
C223 C222 1.363 . S
C223 C229 1.363 . S
C224 C225 1.363 . S
C224 C229 1.379 1_455 S
C224 N231 1.356 . S
C225 C224 1.363 . S
C225 C228 1.363 . S
N226 C228 1.356 . S
N226 H238 0.984 . S
N226 H239 0.985 . S
N227 C229 1.356 . S
N227 H232 0.984 . S
N227 H233 0.985 . S
C228 C222 1.379 1_455 S
C228 C225 1.363 . S
C228 N226 1.356 . S
C229 C223 1.363 . S
C229 C224 1.379 1_655 S
C229 N227 1.356 . S
N230 C222 1.356 . S
N230 H236 0.984 . S
N230 H237 0.984 . S
N231 C224 1.356 . S
N231 H234 0.984 . S
N231 H235 0.985 . S
H232 N227 0.984 . S
H233 N227 0.985 . S
H234 N231 0.984 . S
H235 N231 0.985 . S
H236 N230 0.984 . S
H237 N230 0.984 . S
H238 N226 0.984 . S
H239 N226 0.985 . S
C240 C241 1.363 . S
C240 C246 1.379 1_545 S
C240 N248 1.356 . S
C241 C240 1.363 . S
C241 C247 1.363 . S
C242 C243 1.363 . S
C242 C247 1.379 1_565 S
C242 N249 1.356 . S
C243 C242 1.363 . S
C243 C246 1.363 . S
N244 C246 1.356 . S
N244 H256 0.984 . S
N244 H257 0.985 . S
N245 C247 1.356 . S
N245 H250 0.984 . S
N245 H251 0.985 . S
C246 C240 1.379 1_565 S
C246 C243 1.363 . S
C246 N244 1.356 . S
C247 C241 1.363 . S
C247 C242 1.379 1_545 S
C247 N245 1.356 . S
N248 C240 1.356 . S
N248 H254 0.984 . S
N248 H255 0.984 . S
N249 C242 1.356 . S
N249 H252 0.984 . S
N249 H253 0.985 . S
H250 N245 0.984 . S
H251 N245 0.985 . S
H252 N249 0.984 . S
H253 N249 0.985 . S
H254 N248 0.984 . S
H255 N248 0.984 . S
H256 N244 0.984 . S
H257 N244 0.985 . S
C258 C259 1.363 . S
C258 C264 1.379 . S
C258 N266 1.356 . S
C259 C258 1.363 . S
C259 C265 1.363 . S
C260 C261 1.363 . S
C260 C265 1.379 . S
C260 N267 1.356 . S
C261 C260 1.363 . S
C261 C264 1.363 . S
N262 C264 1.356 . S
N262 H274 0.984 . S
N262 H275 0.985 . S
N263 C265 1.356 . S
N263 H268 0.984 . S
N263 H269 0.985 . S
C264 C258 1.379 . S
C264 C261 1.363 . S
C264 N262 1.356 . S
C265 C259 1.363 . S
C265 C260 1.379 . S
C265 N263 1.356 . S
N266 C258 1.356 . S
N266 H272 0.984 . S
N266 H273 0.984 . S
N267 C260 1.356 . S
N267 H270 0.984 . S
N267 H271 0.985 . S
H268 N263 0.984 . S
H269 N263 0.985 . S
H270 N267 0.984 . S
H271 N267 0.985 . S
H272 N266 0.984 . S
H273 N266 0.984 . S
H274 N262 0.984 . S
H275 N262 0.985 . S
C276 C277 1.363 . S
C276 C282 1.379 . S
C276 N284 1.356 . S
C277 C276 1.363 . S
C277 C283 1.363 . S
C278 C279 1.363 . S
C278 C283 1.379 . S
C278 N285 1.356 . S
C279 C278 1.363 . S
C279 C282 1.363 . S
N280 C282 1.356 . S
N280 H292 0.984 . S
N280 H293 0.985 . S
N281 C283 1.356 . S
N281 H286 0.984 . S
N281 H287 0.985 . S
C282 C276 1.379 . S
C282 C279 1.363 . S
C282 N280 1.356 . S
C283 C277 1.363 . S
C283 C278 1.379 . S
C283 N281 1.356 . S
N284 C276 1.356 . S
N284 H290 0.984 . S
N284 H291 0.984 . S
N285 C278 1.356 . S
N285 H288 0.984 . S
N285 H289 0.985 . S
H286 N281 0.984 . S
H287 N281 0.985 . S
H288 N285 0.984 . S
H289 N285 0.985 . S
H290 N284 0.984 . S
H291 N284 0.984 . S
H292 N280 0.984 . S
H293 N280 0.985 . S
C294 C295 1.363 . S
C294 C300 1.379 . S
C294 N302 1.356 . S
C295 C294 1.363 . S
C295 C301 1.363 1_455 S
C296 C297 1.363 . S
C296 C301 1.379 . S
C296 N303 1.356 . S
C297 C296 1.363 . S
C297 C300 1.363 1_655 S
N298 C300 1.356 . S
N298 H310 0.984 . S
N298 H311 0.985 . S
N299 C301 1.356 . S
N299 H304 0.984 . S
N299 H305 0.985 . S
C300 C294 1.379 . S
C300 C297 1.363 1_455 S
C300 N298 1.356 . S
C301 C295 1.363 1_655 S
C301 C296 1.379 . S
C301 N299 1.356 . S
N302 C294 1.356 . S
N302 H308 0.984 . S
N302 H309 0.984 . S
N303 C296 1.356 . S
N303 H306 0.984 . S
N303 H307 0.985 . S
H304 N299 0.984 . S
H305 N299 0.985 . S
H306 N303 0.984 . S
H307 N303 0.985 . S
H308 N302 0.984 . S
H309 N302 0.984 . S
H310 N298 0.984 . S
H311 N298 0.985 . S
C312 C313 1.363 . S
C312 C318 1.379 . S
C312 N320 1.356 . S
C313 C312 1.363 . S
C313 C319 1.363 1_545 S
C314 C315 1.363 . S
C314 C319 1.379 . S
C314 N321 1.356 . S
C315 C314 1.363 . S
C315 C318 1.363 1_565 S
N316 C318 1.356 . S
N316 H328 0.984 . S
N316 H329 0.985 . S
N317 C319 1.356 . S
N317 H322 0.984 . S
N317 H323 0.985 . S
C318 C312 1.379 . S
C318 C315 1.363 1_545 S
C318 N316 1.356 . S
C319 C313 1.363 1_565 S
C319 C314 1.379 . S
C319 N317 1.356 . S
N320 C312 1.356 . S
N320 H326 0.984 . S
N320 H327 0.984 . S
N321 C314 1.356 . S
N321 H324 0.984 . S
N321 H325 0.985 . S
H322 N317 0.984 . S
H323 N317 0.985 . S
H324 N321 0.984 . S
H325 N321 0.985 . S
H326 N320 0.984 . S
H327 N320 0.984 . S
H328 N316 0.984 . S
H329 N316 0.985 . S
C330 C331 1.363 . S
C330 C336 1.379 . S
C330 N338 1.356 . S
C331 C330 1.363 . S
C331 C337 1.363 . S
C332 C333 1.363 . S
C332 C337 1.379 . S
C332 N339 1.356 . S
C333 C332 1.363 . S
C333 C336 1.363 . S
N334 C336 1.356 . S
N334 H346 0.984 . S
N334 H347 0.985 . S
N335 C337 1.356 . S
N335 H340 0.984 . S
N335 H341 0.985 . S
C336 C330 1.379 . S
C336 C333 1.363 . S
C336 N334 1.356 . S
C337 C331 1.363 . S
C337 C332 1.379 . S
C337 N335 1.356 . S
N338 C330 1.356 . S
N338 H344 0.984 . S
N338 H345 0.984 . S
N339 C332 1.356 . S
N339 H342 0.984 . S
N339 H343 0.985 . S
H340 N335 0.984 . S
H341 N335 0.985 . S
H342 N339 0.984 . S
H343 N339 0.985 . S
H344 N338 0.984 . S
H345 N338 0.984 . S
H346 N334 0.984 . S
H347 N334 0.985 . S
C348 C349 1.363 . S
C348 C354 1.379 . S
C348 N356 1.356 . S
C349 C348 1.363 . S
C349 C355 1.363 1_655 S
C350 C351 1.363 . S
C350 C355 1.379 . S
C350 N357 1.356 . S
C351 C350 1.363 . S
C351 C354 1.363 1_455 S
N352 C354 1.356 . S
N352 H364 0.984 . S
N352 H365 0.985 . S
N353 C355 1.356 . S
N353 H358 0.984 . S
N353 H359 0.985 . S
C354 C348 1.379 . S
C354 C351 1.363 1_655 S
C354 N352 1.356 . S
C355 C349 1.363 1_455 S
C355 C350 1.379 . S
C355 N353 1.356 . S
N356 C348 1.356 . S
N356 H362 0.984 . S
N356 H363 0.984 . S
N357 C350 1.356 . S
N357 H360 0.984 . S
N357 H361 0.985 . S
H358 N353 0.984 . S
H359 N353 0.985 . S
H360 N357 0.984 . S
H361 N357 0.985 . S
H362 N356 0.984 . S
H363 N356 0.984 . S
H364 N352 0.984 . S
H365 N352 0.985 . S
C366 C367 1.363 . S
C366 C372 1.379 . S
C366 N374 1.356 . S
C367 C366 1.363 . S
C367 C373 1.363 1_565 S
C368 C369 1.363 . S
C368 C373 1.379 . S
C368 N375 1.356 . S
C369 C368 1.363 . S
C369 C372 1.363 1_545 S
N370 C372 1.356 . S
N370 H382 0.984 . S
N370 H383 0.985 . S
N371 C373 1.356 . S
N371 H376 0.984 . S
N371 H377 0.985 . S
C372 C366 1.379 . S
C372 C369 1.363 1_565 S
C372 N370 1.356 . S
C373 C367 1.363 1_545 S
C373 C368 1.379 . S
C373 N371 1.356 . S
N374 C366 1.356 . S
N374 H380 0.984 . S
N374 H381 0.984 . S
N375 C368 1.356 . S
N375 H378 0.984 . S
N375 H379 0.985 . S
H376 N371 0.984 . S
H377 N371 0.985 . S
H378 N375 0.984 . S
H379 N375 0.985 . S
H380 N374 0.984 . S
H381 N374 0.984 . S
H382 N370 0.984 . S
H383 N370 0.985 . S
C384 C385 1.363 . S
C384 C390 1.379 . S
C384 N392 1.356 . S
C385 C384 1.363 . S
C385 C391 1.363 . S
C386 C387 1.363 . S
C386 C391 1.379 . S
C386 N393 1.356 . S
C387 C386 1.363 . S
C387 C390 1.363 . S
N388 C390 1.356 . S
N388 H400 0.984 . S
N388 H401 0.985 . S
N389 C391 1.356 . S
N389 H394 0.984 . S
N389 H395 0.985 . S
C390 C384 1.379 . S
C390 C387 1.363 . S
C390 N388 1.356 . S
C391 C385 1.363 . S
C391 C386 1.379 . S
C391 N389 1.356 . S
N392 C384 1.356 . S
N392 H398 0.984 . S
N392 H399 0.984 . S
N393 C386 1.356 . S
N393 H396 0.984 . S
N393 H397 0.985 . S
H394 N389 0.984 . S
H395 N389 0.985 . S
H396 N393 0.984 . S
H397 N393 0.985 . S
H398 N392 0.984 . S
H399 N392 0.984 . S
H400 N388 0.984 . S
H401 N388 0.985 . S
C402 C403 1.363 . S
C402 C408 1.379 . S
C402 N410 1.356 . S
C403 C402 1.363 . S
C403 C409 1.363 . S
C404 C405 1.363 . S
C404 C409 1.379 . S
C404 N411 1.356 . S
C405 C404 1.363 . S
C405 C408 1.363 . S
N406 C408 1.356 . S
N406 H418 0.984 . S
N406 H419 0.985 . S
N407 C409 1.356 . S
N407 H412 0.984 . S
N407 H413 0.985 . S
C408 C402 1.379 . S
C408 C405 1.363 . S
C408 N406 1.356 . S
C409 C403 1.363 . S
C409 C404 1.379 . S
C409 N407 1.356 . S
N410 C402 1.356 . S
N410 H416 0.984 . S
N410 H417 0.984 . S
N411 C404 1.356 . S
N411 H414 0.984 . S
N411 H415 0.985 . S
H412 N407 0.984 . S
H413 N407 0.985 . S
H414 N411 0.984 . S
H415 N411 0.985 . S
H416 N410 0.984 . S
H417 N410 0.984 . S
H418 N406 0.984 . S
H419 N406 0.985 . S
C420 C421 1.363 . S
C420 C426 1.379 . S
C420 N428 1.356 . S
C421 C420 1.363 . S
C421 C427 1.363 . S
C422 C423 1.363 . S
C422 C427 1.379 . S
C422 N429 1.356 . S
C423 C422 1.363 . S
C423 C426 1.363 . S
N424 C426 1.356 . S
N424 H436 0.984 . S
N424 H437 0.985 . S
N425 C427 1.356 . S
N425 H430 0.984 . S
N425 H431 0.985 . S
C426 C420 1.379 . S
C426 C423 1.363 . S
C426 N424 1.356 . S
C427 C421 1.363 . S
C427 C422 1.379 . S
C427 N425 1.356 . S
N428 C420 1.356 . S
N428 H434 0.984 . S
N428 H435 0.984 . S
N429 C422 1.356 . S
N429 H432 0.984 . S
N429 H433 0.985 . S
H430 N425 0.984 . S
H431 N425 0.985 . S
H432 N429 0.984 . S
H433 N429 0.985 . S
H434 N428 0.984 . S
H435 N428 0.984 . S
H436 N424 0.984 . S
H437 N424 0.985 . S
C438 C439 1.363 . S
C438 C444 1.379 . S
C438 N446 1.356 . S
C439 C438 1.363 . S
C439 C445 1.363 . S
C440 C441 1.363 . S
C440 C445 1.379 . S
C440 N447 1.356 . S
C441 C440 1.363 . S
C441 C444 1.363 . S
N442 C444 1.356 . S
N442 H454 0.984 . S
N442 H455 0.985 . S
N443 C445 1.356 . S
N443 H448 0.984 . S
N443 H449 0.985 . S
C444 C438 1.379 . S
C444 C441 1.363 . S
C444 N442 1.356 . S
C445 C439 1.363 . S
C445 C440 1.379 . S
C445 N443 1.356 . S
N446 C438 1.356 . S
N446 H452 0.984 . S
N446 H453 0.984 . S
N447 C440 1.356 . S
N447 H450 0.984 . S
N447 H451 0.985 . S
H448 N443 0.984 . S
H449 N443 0.985 . S
H450 N447 0.984 . S
H451 N447 0.985 . S
H452 N446 0.984 . S
H453 N446 0.984 . S
H454 N442 0.984 . S
H455 N442 0.985 . S
C456 C457 1.363 . S
C456 C462 1.379 . S
C456 N464 1.356 . S
C457 C456 1.363 . S
C457 C463 1.363 . S
C458 C459 1.363 . S
C458 C463 1.379 . S
C458 N465 1.356 . S
C459 C458 1.363 . S
C459 C462 1.363 . S
N460 C462 1.356 . S
N460 H472 0.984 . S
N460 H473 0.985 . S
N461 C463 1.356 . S
N461 H466 0.984 . S
N461 H467 0.985 . S
C462 C456 1.379 . S
C462 C459 1.363 . S
C462 N460 1.356 . S
C463 C457 1.363 . S
C463 C458 1.379 . S
C463 N461 1.356 . S
N464 C456 1.356 . S
N464 H470 0.984 . S
N464 H471 0.984 . S
N465 C458 1.356 . S
N465 H468 0.984 . S
N465 H469 0.985 . S
H466 N461 0.984 . S
H467 N461 0.985 . S
H468 N465 0.984 . S
H469 N465 0.985 . S
H470 N464 0.984 . S
H471 N464 0.984 . S
H472 N460 0.984 . S
H473 N460 0.985 . S
C474 C475 1.363 . S
C474 C480 1.379 . S
C474 N482 1.356 . S
C475 C474 1.363 . S
C475 C481 1.363 . S
C476 C477 1.363 . S
C476 C481 1.379 . S
C476 N483 1.356 . S
C477 C476 1.363 . S
C477 C480 1.363 . S
N478 C480 1.356 . S
N478 H490 0.984 . S
N478 H491 0.985 . S
N479 C481 1.356 . S
N479 H484 0.984 . S
N479 H485 0.985 . S
C480 C474 1.379 . S
C480 C477 1.363 . S
C480 N478 1.356 . S
C481 C475 1.363 . S
C481 C476 1.379 . S
C481 N479 1.356 . S
N482 C474 1.356 . S
N482 H488 0.984 . S
N482 H489 0.984 . S
N483 C476 1.356 . S
N483 H486 0.984 . S
N483 H487 0.985 . S
H484 N479 0.984 . S
H485 N479 0.985 . S
H486 N483 0.984 . S
H487 N483 0.985 . S
H488 N482 0.984 . S
H489 N482 0.984 . S
H490 N478 0.984 . S
H491 N478 0.985 . S
C492 C493 1.363 . S
C492 C498 1.379 . S
C492 N500 1.356 . S
C493 C492 1.363 . S
C493 C499 1.363 . S
C494 C495 1.363 . S
C494 C499 1.379 . S
C494 N501 1.356 . S
C495 C494 1.363 . S
C495 C498 1.363 . S
N496 C498 1.356 . S
N496 H508 0.984 . S
N496 H509 0.985 . S
N497 C499 1.356 . S
N497 H502 0.984 . S
N497 H503 0.985 . S
C498 C492 1.379 . S
C498 C495 1.363 . S
C498 N496 1.356 . S
C499 C493 1.363 . S
C499 C494 1.379 . S
C499 N497 1.356 . S
N500 C492 1.356 . S
N500 H506 0.984 . S
N500 H507 0.984 . S
N501 C494 1.356 . S
N501 H504 0.984 . S
N501 H505 0.985 . S
H502 N497 0.984 . S
H503 N497 0.985 . S
H504 N501 0.984 . S
H505 N501 0.985 . S
H506 N500 0.984 . S
H507 N500 0.984 . S
H508 N496 0.984 . S
H509 N496 0.985 . S
C510 C511 1.363 . S
C510 C516 1.379 . S
C510 N518 1.356 . S
C511 C510 1.363 . S
C511 C517 1.363 1_655 S
C512 C513 1.363 . S
C512 C517 1.379 . S
C512 N519 1.356 . S
C513 C512 1.363 . S
C513 C516 1.363 1_455 S
N514 C516 1.356 . S
N514 H526 0.984 . S
N514 H527 0.985 . S
N515 C517 1.356 . S
N515 H520 0.984 . S
N515 H521 0.985 . S
C516 C510 1.379 . S
C516 C513 1.363 1_655 S
C516 N514 1.356 . S
C517 C511 1.363 1_455 S
C517 C512 1.379 . S
C517 N515 1.356 . S
N518 C510 1.356 . S
N518 H524 0.984 . S
N518 H525 0.984 . S
N519 C512 1.356 . S
N519 H522 0.984 . S
N519 H523 0.985 . S
H520 N515 0.984 . S
H521 N515 0.985 . S
H522 N519 0.984 . S
H523 N519 0.985 . S
H524 N518 0.984 . S
H525 N518 0.984 . S
H526 N514 0.984 . S
H527 N514 0.985 . S
C528 C529 1.363 1_565 S
C528 C534 1.379 1_554 S
C528 N536 1.356 . S
C529 C528 1.363 1_545 S
C529 C535 1.363 . S
C530 C531 1.363 1_545 S
C530 C535 1.379 1_556 S
C530 N537 1.356 . S
C531 C530 1.363 1_565 S
C531 C534 1.363 . S
N532 C534 1.356 . S
N532 H544 0.984 . S
N532 H545 0.985 . S
N533 C535 1.356 . S
N533 H538 0.984 . S
N533 H539 0.985 . S
C534 C528 1.379 1_556 S
C534 C531 1.363 . S
C534 N532 1.356 . S
C535 C529 1.363 . S
C535 C530 1.379 1_554 S
C535 N533 1.356 . S
N536 C528 1.356 . S
N536 H542 0.984 . S
N536 H543 0.984 . S
N537 C530 1.356 . S
N537 H540 0.984 . S
N537 H541 0.985 . S
H538 N533 0.984 . S
H539 N533 0.985 . S
H540 N537 0.984 . S
H541 N537 0.985 . S
H542 N536 0.984 . S
H543 N536 0.984 . S
H544 N532 0.984 . S
H545 N532 0.985 . S
C546 C547 1.363 . S
C546 C552 1.379 . S
C546 N554 1.356 . S
C547 C546 1.363 . S
C547 C553 1.363 . S
C548 C549 1.363 . S
C548 C553 1.379 . S
C548 N555 1.356 . S
C549 C548 1.363 . S
C549 C552 1.363 . S
N550 C552 1.356 . S
N550 H562 0.984 . S
N550 H563 0.985 . S
N551 C553 1.356 . S
N551 H556 0.984 . S
N551 H557 0.985 . S
C552 C546 1.379 . S
C552 C549 1.363 . S
C552 N550 1.356 . S
C553 C547 1.363 . S
C553 C548 1.379 . S
C553 N551 1.356 . S
N554 C546 1.356 . S
N554 H560 0.984 . S
N554 H561 0.984 . S
N555 C548 1.356 . S
N555 H558 0.984 . S
N555 H559 0.985 . S
H556 N551 0.984 . S
H557 N551 0.985 . S
H558 N555 0.984 . S
H559 N555 0.985 . S
H560 N554 0.984 . S
H561 N554 0.984 . S
H562 N550 0.984 . S
H563 N550 0.985 . S
C564 C565 1.363 . S
C564 C570 1.379 . S
C564 N572 1.356 . S
C565 C564 1.363 . S
C565 C571 1.363 1_455 S
C566 C567 1.363 . S
C566 C571 1.379 . S
C566 N573 1.356 . S
C567 C566 1.363 . S
C567 C570 1.363 1_655 S
N568 C570 1.356 . S
N568 H580 0.984 . S
N568 H581 0.985 . S
N569 C571 1.356 . S
N569 H574 0.984 . S
N569 H575 0.985 . S
C570 C564 1.379 . S
C570 C567 1.363 1_455 S
C570 N568 1.356 . S
C571 C565 1.363 1_655 S
C571 C566 1.379 . S
C571 N569 1.356 . S
N572 C564 1.356 . S
N572 H578 0.984 . S
N572 H579 0.984 . S
N573 C566 1.356 . S
N573 H576 0.984 . S
N573 H577 0.985 . S
H574 N569 0.984 . S
H575 N569 0.985 . S
H576 N573 0.984 . S
H577 N573 0.985 . S
H578 N572 0.984 . S
H579 N572 0.984 . S
H580 N568 0.984 . S
H581 N568 0.985 . S
C582 C583 1.363 1_545 S
C582 C588 1.379 1_554 S
C582 N590 1.356 . S
C583 C582 1.363 1_565 S
C583 C589 1.363 . S
C584 C585 1.363 1_565 S
C584 C589 1.379 1_556 S
C584 N591 1.356 . S
C585 C584 1.363 1_545 S
C585 C588 1.363 . S
N586 C588 1.356 . S
N586 H598 0.984 . S
N586 H599 0.985 . S
N587 C589 1.356 . S
N587 H592 0.984 . S
N587 H593 0.985 . S
C588 C582 1.379 1_556 S
C588 C585 1.363 . S
C588 N586 1.356 . S
C589 C583 1.363 . S
C589 C584 1.379 1_554 S
C589 N587 1.356 . S
N590 C582 1.356 . S
N590 H596 0.984 . S
N590 H597 0.984 . S
N591 C584 1.356 . S
N591 H594 0.984 . S
N591 H595 0.985 . S
H592 N587 0.984 . S
H593 N587 0.985 . S
H594 N591 0.984 . S
H595 N591 0.985 . S
H596 N590 0.984 . S
H597 N590 0.984 . S
H598 N586 0.984 . S
H599 N586 0.985 . S
C169 C161 1.522 . S
C171 C7 1.522 . S
C187 C21 1.522 . S
C189 C91 1.522 . S
C205 C35 1.522 . S
C207 C105 1.522 . S
C223 C49 1.522 . S
C225 C119 1.522 . S
C241 C133 1.522 . S
C243 C63 1.522 . S
C259 C77 1.522 . S
C261 C147 1.522 . S
C277 C50 1.230 . S
C279 C8 1.230 . S
C295 C64 1.230 . S
C297 C22 1.230 . S
C313 C78 1.230 . S
C315 C36 1.230 . S
C331 C92 1.230 . S
C333 C134 1.230 . S
C349 C106 1.230 . S
C351 C148 1.230 . S
C367 C120 1.230 . S
C369 C162 1.230 . S
C385 C121 1.237 . S
C387 C9 1.237 . S
C403 C23 1.237 . S
C405 C135 1.237 . S
C421 C149 1.236 . S
C423 C37 1.236 . S
C439 C163 1.237 . S
C441 C51 1.237 . S
C457 C93 1.237 . S
C459 C65 1.237 . S
C475 C79 1.236 . S
C477 C107 1.236 . S
C493 C132 1.587 . S
C495 C6 1.587 . S
C511 C20 1.587 . S
C513 C146 1.587 . S
C529 C160 1.587 . S
C531 C34 1.587 . S
C547 C48 1.587 . S
C549 C90 1.587 . S
C565 C62 1.587 . S
C567 C104 1.587 . S
C583 C118 1.587 . S
C585 C76 1.587 . S
