# Generated by pormake.
# Topology snk, (6)-cn, num edge types: 1
# Building blocks:
#     Node 0, Type 0, BuildingBlock: MIFKUJ_clean_sbu_0, # of connection points: 6
#     Node 1, Type 0, BuildingBlock: MIFKUJ_clean_sbu_0, # of connection points: 6
#     Node 2, Type 0, BuildingBlock: MIFKUJ_clean_sbu_0, # of connection points: 6
#     Node 3, Type 0, BuildingBlock: MIFKUJ_clean_sbu_0, # of connection points: 6
#     Node 4, Type 0, BuildingBlock: MIFKUJ_clean_sbu_0, # of connection points: 6
#     Node 5, Type 0, BuildingBlock: MIFKUJ_clean_sbu_0, # of connection points: 6
#     Node 6, Type 0, BuildingBlock: MIFKUJ_clean_sbu_0, # of connection points: 6
#     Node 7, Type 0, BuildingBlock: MIFKUJ_clean_sbu_0, # of connection points: 6
#     Edge 8, Type (0, 0), BuildingBlock: UVAHIK_clean_linker_0, # of connection points: 2
#     Edge 9, Type (0, 0), BuildingBlock: UVAHIK_clean_linker_0, # of connection points: 2
#     Edge 10, Type (0, 0), BuildingBlock: UVAHIK_clean_linker_0, # of connection points: 2
#     Edge 11, Type (0, 0), BuildingBlock: UVAHIK_clean_linker_0, # of connection points: 2
#     Edge 12, Type (0, 0), BuildingBlock: UVAHIK_clean_linker_0, # of connection points: 2
#     Edge 13, Type (0, 0), BuildingBlock: UVAHIK_clean_linker_0, # of connection points: 2
#     Edge 14, Type (0, 0), BuildingBlock: UVAHIK_clean_linker_0, # of connection points: 2
#     Edge 15, Type (0, 0), BuildingBlock: UVAHIK_clean_linker_0, # of connection points: 2
#     Edge 16, Type (0, 0), BuildingBlock: UVAHIK_clean_linker_0, # of connection points: 2
#     Edge 17, Type (0, 0), BuildingBlock: UVAHIK_clean_linker_0, # of connection points: 2
#     Edge 18, Type (0, 0), BuildingBlock: UVAHIK_clean_linker_0, # of connection points: 2
#     Edge 19, Type (0, 0), BuildingBlock: UVAHIK_clean_linker_0, # of connection points: 2
#     Edge 20, Type (0, 0), BuildingBlock: UVAHIK_clean_linker_0, # of connection points: 2
#     Edge 21, Type (0, 0), BuildingBlock: UVAHIK_clean_linker_0, # of connection points: 2
#     Edge 22, Type (0, 0), BuildingBlock: UVAHIK_clean_linker_0, # of connection points: 2
#     Edge 23, Type (0, 0), BuildingBlock: UVAHIK_clean_linker_0, # of connection points: 2
#     Edge 24, Type (0, 0), BuildingBlock: UVAHIK_clean_linker_0, # of connection points: 2
#     Edge 25, Type (0, 0), BuildingBlock: UVAHIK_clean_linker_0, # of connection points: 2
#     Edge 26, Type (0, 0), BuildingBlock: UVAHIK_clean_linker_0, # of connection points: 2
#     Edge 27, Type (0, 0), BuildingBlock: UVAHIK_clean_linker_0, # of connection points: 2
#     Edge 28, Type (0, 0), BuildingBlock: UVAHIK_clean_linker_0, # of connection points: 2
#     Edge 29, Type (0, 0), BuildingBlock: UVAHIK_clean_linker_0, # of connection points: 2
#     Edge 30, Type (0, 0), BuildingBlock: UVAHIK_clean_linker_0, # of connection points: 2
#     Edge 31, Type (0, 0), BuildingBlock: UVAHIK_clean_linker_0, # of connection points: 2
# Relax obj value: 0.029
# Max RMSD: 0.068
# Mean RMSD: 0.065
data_MOF--net-snk--node1-MIFKUJ_clean_sbu_0--edge1-UVAHIK_clean_linker_0
_symmetry_space_group_name_H-M    P1
_symmetry_Int_Tables_number       1
_symmetry_cell_setting            triclinic
loop_
_symmetry_equiv_pos_as_xyz
'x, y, z'
_cell_length_a     54.298921
_cell_length_b     54.214976
_cell_length_c     23.00106
_cell_angle_alpha  96.654369
_cell_angle_beta   83.263888
_cell_angle_gamma 90.223292
loop_
_atom_site_label
_atom_site_type_symbol
_atom_site_fract_x
_atom_site_fract_y
_atom_site_fract_z
_atom_type_partial_charge
Zn0 Zn 0.99669 1.00094 0.42851 0.0
Zn1 Zn 0.00707 0.00517 0.56703 0.0
C2 C 0.94919 0.02317 0.43019 0.0
O3 O 0.94441 0.99999 0.41176 0.0
C4 C 0.0526 0.97965 0.56366 0.0
O5 O 0.05885 1.00262 0.58005 0.0
O6 O 0.998 0.992 0.34066 0.0
O7 O 0.03025 0.01566 0.43961 0.0
O8 O 0.02346 0.03419 0.53089 0.0
C9 C 0.00241 0.01038 0.3114 0.0
O10 O 0.00613 0.03224 0.34002 0.0
O11 O 0.97063 0.02842 0.445 0.0
C12 C 0.99707 0.99479 0.68364 0.0
O13 O 0.99134 0.97375 0.65406 0.0
O14 O 0.00428 0.0128 0.65526 0.0
O15 O 0.97255 0.99535 0.54985 0.0
O16 O 0.98479 0.97096 0.46887 0.0
O17 O 0.03061 0.97546 0.55127 0.0
C18 C 0.03532 0.03251 0.4795 0.0
C19 C 0.97037 0.97528 0.51661 0.0
Zn20 Zn 0.24824 0.74998 0.82053 0.0
Zn21 Zn 0.25597 0.75616 0.68272 0.0
C22 C 0.27283 0.70395 0.82017 0.0
O23 O 0.24992 0.69834 0.83886 0.0
C24 C 0.23183 0.80193 0.67876 0.0
O25 O 0.25492 0.80707 0.6605 0.0
O26 O 0.2399 0.7522 0.90927 0.0
O27 O 0.25997 0.78407 0.80369 0.0
O28 O 0.2847 0.77123 0.72319 0.0
C29 C 0.25776 0.7591 0.93847 0.0
O30 O 0.27882 0.76518 0.90962 0.0
O31 O 0.27721 0.72556 0.80523 0.0
C32 C 0.24717 0.74612 0.56457 0.0
O33 O 0.22602 0.74015 0.59322 0.0
O34 O 0.26487 0.75329 0.59404 0.0
O35 O 0.24393 0.72223 0.70036 0.0
O36 O 0.21922 0.73532 0.78065 0.0
O37 O 0.22707 0.78068 0.69556 0.0
C38 C 0.27991 0.78625 0.76988 0.0
C39 C 0.22386 0.72032 0.73389 0.0
Zn40 Zn 0.50693 1.00278 0.07195 0.0
Zn41 Zn 0.49731 1.00293 0.93487 0.0
C42 C 0.55384 0.02793 0.06683 0.0
O43 O 0.56223 0.00534 0.06825 0.0
C44 C 0.45013 0.97857 0.93858 0.0
O45 O 0.44229 1.0014 0.93783 0.0
O46 O 0.50591 0.99633 0.15632 0.0
O47 O 0.4727 0.01492 0.0644 0.0
O48 O 0.4834 0.03369 0.9854 0.0
C49 C 0.50145 0.01492 0.19518 0.0
O50 O 0.49747 0.03673 0.17818 0.0
O51 O 0.53079 0.03129 0.06495 0.0
C52 C 0.50339 0.99129 0.81165 0.0
O53 O 0.50749 0.96947 0.82844 0.0
O54 O 0.49865 0.00977 0.85069 0.0
O55 O 0.53145 0.9905 0.94254 0.0
O56 O 0.52096 0.97196 0.02199 0.0
O57 O 0.47307 0.97464 0.94062 0.0
C58 C 0.46974 0.03246 0.03373 0.0
C59 C 0.53463 0.97317 0.97368 0.0
Zn60 Zn 0.25108 0.25586 0.18183 0.0
Zn61 Zn 0.2536 0.2504 0.32039 0.0
C62 C 0.27445 0.30044 0.15483 0.0
O63 O 0.25417 0.30142 0.12912 0.0
C64 C 0.23038 0.20562 0.34635 0.0
O65 O 0.25072 0.20454 0.37182 0.0
O66 O 0.24413 0.25119 0.0971 0.0
O67 O 0.26544 0.22317 0.19539 0.0
O68 O 0.28482 0.23695 0.2715 0.0
C69 C 0.26259 0.24617 0.05814 0.0
O70 O 0.28455 0.24318 0.07517 0.0
O71 O 0.27746 0.28248 0.18444 0.0
C72 C 0.242 0.25979 0.44413 0.0
O73 O 0.22005 0.26281 0.42709 0.0
O74 O 0.26048 0.25487 0.40517 0.0
O75 O 0.23922 0.28312 0.30711 0.0
O76 O 0.21993 0.26946 0.23076 0.0
O77 O 0.22728 0.22374 0.31731 0.0
C78 C 0.28337 0.22174 0.22572 0.0
C79 C 0.22136 0.28463 0.27662 0.0
Zn80 Zn 0.7481 0.25014 0.3184 0.0
Zn81 Zn 0.75608 0.2567 0.18097 0.0
C82 C 0.77167 0.20353 0.31787 0.0
O83 O 0.74856 0.19826 0.33564 0.0
C84 C 0.73248 0.30331 0.1818 0.0
O85 O 0.75557 0.30859 0.16386 0.0
O86 O 0.73958 0.2526 0.40714 0.0
O87 O 0.76055 0.28401 0.30154 0.0
O88 O 0.78521 0.27086 0.22116 0.0
C89 C 0.75751 0.25927 0.4363 0.0
O90 O 0.77871 0.26492 0.40735 0.0
O91 O 0.7766 0.22516 0.30366 0.0
C92 C 0.74658 0.24778 0.06309 0.0
O93 O 0.72537 0.24214 0.09204 0.0
O94 O 0.76454 0.25436 0.09223 0.0
O95 O 0.74364 0.22281 0.19767 0.0
O96 O 0.71901 0.2359 0.27815 0.0
O97 O 0.72759 0.28167 0.19601 0.0
C98 C 0.78063 0.28585 0.26797 0.0
C99 C 0.7236 0.22092 0.23131 0.0
Zn100 Zn 0.75297 0.75816 0.68163 0.0
Zn101 Zn 0.75193 0.74808 0.81951 0.0
C102 C 0.77865 0.80494 0.68704 0.0
O103 O 0.75612 0.81368 0.68693 0.0
C104 C 0.72712 0.701 0.81569 0.0
O105 O 0.74984 0.69287 0.81622 0.0
O106 O 0.74662 0.75703 0.59731 0.0
O107 O 0.76444 0.7237 0.6897 0.0
O108 O 0.7827 0.73392 0.76953 0.0
C109 C 0.7651 0.75221 0.55834 0.0
O110 O 0.78684 0.74793 0.57516 0.0
O111 O 0.78177 0.78177 0.6881 0.0
C112 C 0.74025 0.75405 0.94278 0.0
O113 O 0.71843 0.75821 0.92624 0.0
O114 O 0.75866 0.74932 0.90359 0.0
O115 O 0.73981 0.7824 0.81188 0.0
O116 O 0.7222 0.7726 0.73088 0.0
O117 O 0.72345 0.72403 0.81379 0.0
C118 C 0.78159 0.72034 0.72109 0.0
C119 C 0.72298 0.78596 0.77975 0.0
Zn120 Zn 0.49752 0.50081 0.93283 0.0
Zn121 Zn 0.50721 0.50571 0.07152 0.0
C122 C 0.45198 0.5255 0.9326 0.0
O123 O 0.44643 0.50234 0.91596 0.0
C124 C 0.5546 0.48338 0.07003 0.0
O125 O 0.55939 0.50657 0.08846 0.0
O126 O 0.50065 0.49279 0.84456 0.0
O127 O 0.53185 0.5112 0.95045 0.0
O128 O 0.5194 0.53563 0.0313 0.0
C129 C 0.50782 0.51077 0.81602 0.0
O130 O 0.51339 0.53189 0.84548 0.0
O131 O 0.47359 0.53021 0.94697 0.0
C132 C 0.50126 0.49611 0.18861 0.0
O133 O 0.49749 0.4743 0.15981 0.0
O134 O 0.50577 0.51452 0.1595 0.0
O135 O 0.47362 0.49121 0.05981 0.0
O136 O 0.48134 0.47183 0.96958 0.0
O137 O 0.53317 0.47814 0.05518 0.0
C138 C 0.53403 0.53121 0.98393 0.0
C139 C 0.46904 0.4739 0.02049 0.0
Zn140 Zn 0.00688 0.50347 0.5658 0.0
Zn141 Zn 0.99759 0.50347 0.42856 0.0
C142 C 0.05371 0.52867 0.56269 0.0
O143 O 0.06205 0.506 0.56338 0.0
C144 C 0.95075 0.47836 0.43304 0.0
O145 O 0.94249 0.50094 0.43089 0.0
O146 O 0.00539 0.49666 0.65002 0.0
O147 O 0.97267 0.51552 0.55739 0.0
O148 O 0.98355 0.53427 0.47849 0.0
C149 C 1.0003 0.51507 0.68909 0.0
O150 O 0.99599 0.53685 0.67232 0.0
O151 O 0.03071 0.5321 0.56044 0.0
C152 C 0.00306 0.49137 0.30528 0.0
O153 O 0.00721 0.46958 0.32216 0.0
O154 O 0.99853 0.50992 0.34421 0.0
O155 O 0.03184 0.4914 0.43611 0.0
O156 O 0.02132 0.47285 0.51554 0.0
O157 O 0.97373 0.47496 0.4356 0.0
C158 C 0.96965 0.53294 0.52641 0.0
C159 C 0.03497 0.47404 0.46717 0.0
C160 C 0.06183 0.05505 0.40671 0.0
C161 C 0.05521 0.05036 0.46536 0.0
C162 C 0.08042 0.07204 0.39299 0.0
C163 C 0.13711 0.09808 0.43811 0.0
H164 H 0.1236 0.15445 0.35682 0.0
C165 C 0.2095 0.17462 0.40691 0.0
C166 C 0.21054 0.18735 0.35691 0.0
C167 C 0.19046 0.15794 0.41898 0.0
C168 C 0.12792 0.13859 0.37849 0.0
H169 H 0.06318 0.0595 0.55548 0.0
H170 H 0.09644 0.08863 0.53097 0.0
H171 H 0.09064 0.12515 0.37983 0.0
H172 H 0.19266 0.19236 0.27973 0.0
H173 H 0.16002 0.1622 0.29889 0.0
H174 H 0.17451 0.11051 0.43484 0.0
C175 C 0.08683 0.07939 0.49598 0.0
C176 C 0.10892 0.12194 0.39207 0.0
C177 C 0.0678 0.06282 0.50995 0.0
C178 C 0.19225 0.18285 0.31873 0.0
C179 C 0.17343 0.16568 0.33011 0.0
C180 C 0.15625 0.11437 0.42342 0.0
C181 C 0.09319 0.08422 0.43742 0.0
C182 C 0.11332 0.10171 0.42249 0.0
C183 C 0.17218 0.15305 0.38064 0.0
C184 C 0.15191 0.13506 0.39397 0.0
H185 H 0.05247 0.04576 0.37137 0.0
H186 H 0.08512 0.07538 0.34749 0.0
H187 H 0.141 0.08238 0.46089 0.0
H188 H 0.22312 0.17798 0.43772 0.0
H189 H 0.18993 0.14924 0.45915 0.0
C190 C 0.0619 0.93465 0.57031 0.0
C191 C 0.07019 0.95909 0.56647 0.0
C192 C 0.07834 0.91599 0.57965 0.0
C193 C 0.14511 0.90009 0.56769 0.0
H194 H 0.12569 0.85882 0.69194 0.0
C195 C 0.21763 0.84373 0.65973 0.0
C196 C 0.21172 0.81951 0.67235 0.0
C197 C 0.19938 0.85968 0.64694 0.0
C198 C 0.13132 0.86994 0.65657 0.0
H199 H 0.10238 0.98287 0.56742 0.0
H200 H 0.13096 0.95043 0.58284 0.0
H201 H 0.09565 0.88778 0.66524 0.0
H202 H 0.18173 0.79331 0.68316 0.0
H203 H 0.14978 0.82113 0.66012 0.0
H204 H 0.18067 0.88241 0.55869 0.0
C205 C 0.11181 0.94561 0.57876 0.0
C206 C 0.11408 0.88652 0.64123 0.0
C207 C 0.09538 0.96425 0.57015 0.0
C208 C 0.18688 0.8119 0.67387 0.0
C209 C 0.16856 0.82787 0.66069 0.0
C210 C 0.16225 0.88347 0.58273 0.0
C211 C 0.10346 0.92133 0.58447 0.0
C212 C 0.12092 0.90209 0.59727 0.0
C213 C 0.17469 0.85182 0.64592 0.0
C214 C 0.15577 0.86848 0.62811 0.0
H215 H 0.04257 0.93011 0.56799 0.0
H216 H 0.07139 0.89742 0.58339 0.0
H217 H 0.15084 0.91149 0.53292 0.0
H218 H 0.23653 0.85029 0.6587 0.0
H219 H 0.20471 0.87818 0.63737 0.0
C220 C 0.32265 0.80437 0.76213 0.0
C221 C 0.29759 0.80601 0.78608 0.0
C222 C 0.33947 0.82255 0.78 0.0
C223 C 0.34351 0.88747 0.84023 0.0
H224 H 0.40451 0.86822 0.89592 0.0
C225 C 0.40726 0.96142 0.94132 0.0
C226 C 0.43299 0.95759 0.92928 0.0
C227 C 0.39089 0.94232 0.92701 0.0
C228 C 0.38777 0.87399 0.87971 0.0
H229 H 0.27044 0.82823 0.84666 0.0
H230 H 0.29969 0.86022 0.87655 0.0
H231 H 0.37609 0.83631 0.86121 0.0
H232 H 0.46181 0.93063 0.89361 0.0
H233 H 0.43336 0.8976 0.86655 0.0
H234 H 0.35527 0.92499 0.85646 0.0
C235 C 0.30633 0.84477 0.84442 0.0
C236 C 0.37147 0.85565 0.86001 0.0
C237 C 0.28963 0.82641 0.82742 0.0
C238 C 0.44205 0.93407 0.90394 0.0
C239 C 0.42567 0.91508 0.88859 0.0
C240 C 0.35997 0.90578 0.85894 0.0
C241 C 0.33144 0.84292 0.82126 0.0
C242 C 0.34912 0.86225 0.84044 0.0
C243 C 0.39982 0.91903 0.89913 0.0
C244 C 0.38228 0.89935 0.87936 0.0
H245 H 0.32936 0.78882 0.73041 0.0
H246 H 0.35872 0.82079 0.76124 0.0
H247 H 0.32652 0.89304 0.82475 0.0
H248 H 0.39975 0.9793 0.9613 0.0
H249 H 0.37118 0.94595 0.93743 0.0
C250 C 0.4412 0.05593 0.11435 0.0
C251 C 0.45025 0.05143 0.05424 0.0
C252 C 0.42316 0.07427 0.13399 0.0
C253 C 0.372 0.10695 0.08897 0.0
H254 H 0.38423 0.15959 0.21106 0.0
C255 C 0.30611 0.1912 0.14866 0.0
C256 C 0.30249 0.2022 0.20738 0.0
C257 C 0.32419 0.17278 0.13084 0.0
C258 C 0.38025 0.14482 0.17771 0.0
H259 H 0.44721 0.06221 0.96743 0.0
H260 H 0.41506 0.0938 0.00176 0.0
H261 H 0.41533 0.12696 0.17907 0.0
H262 H 0.31464 0.2023 0.29383 0.0
H263 H 0.34547 0.16934 0.26352 0.0
H264 H 0.33667 0.124 0.08858 0.0
C265 C 0.42223 0.08332 0.03355 0.0
C266 C 0.39817 0.12624 0.15922 0.0
C267 C 0.44065 0.06535 0.01404 0.0
C268 C 0.31719 0.19428 0.24812 0.0
C269 C 0.33497 0.17548 0.23056 0.0
C270 C 0.35387 0.12523 0.10819 0.0
C271 C 0.41346 0.08802 0.09371 0.0
C272 C 0.39426 0.1073 0.11436 0.0
C273 C 0.33877 0.1645 0.17158 0.0
C274 C 0.35783 0.14458 0.15245 0.0
H275 H 0.4483 0.04552 0.14634 0.0
H276 H 0.41656 0.07752 0.18057 0.0
H277 H 0.3685 0.09233 0.05473 0.0
H278 H 0.29519 0.19706 0.11613 0.0
H279 H 0.32688 0.16528 0.08481 0.0
C280 C 0.95316 0.93211 0.50978 0.0
C281 C 0.95138 0.95707 0.53445 0.0
C282 C 0.93568 0.91482 0.5288 0.0
C283 C 0.88577 0.90628 0.65159 0.0
H284 H 0.86618 0.85245 0.54079 0.0
C285 C 0.79732 0.84729 0.69098 0.0
C286 C 0.80022 0.82142 0.67816 0.0
C287 C 0.81707 0.86307 0.67732 0.0
C288 C 0.87167 0.86727 0.57231 0.0
H289 H 0.92953 0.98361 0.59734 0.0
H290 H 0.89854 0.95393 0.6285 0.0
H291 H 0.89751 0.88168 0.50758 0.0
H292 H 0.82618 0.79175 0.64171 0.0
H293 H 0.86054 0.81944 0.61662 0.0
H294 H 0.85897 0.89228 0.71553 0.0
C295 C 0.91386 0.94731 0.59606 0.0
C296 C 0.88972 0.88401 0.55342 0.0
C297 C 0.93154 0.96446 0.57777 0.0
C298 C 0.82342 0.81161 0.65247 0.0
C299 C 0.84303 0.82742 0.63773 0.0
C300 C 0.86741 0.88979 0.67014 0.0
C301 C 0.91576 0.92217 0.5723 0.0
C302 C 0.89697 0.90385 0.59272 0.0
C303 C 0.83995 0.8533 0.64952 0.0
C304 C 0.86015 0.87017 0.63065 0.0
H305 H 0.96837 0.9258 0.47666 0.0
H306 H 0.93808 0.89562 0.51001 0.0
H307 H 0.89119 0.92088 0.68366 0.0
H308 H 0.77966 0.85538 0.71077 0.0
H309 H 0.81418 0.88296 0.68662 0.0
C310 C 0.93845 0.06796 0.42559 0.0
C311 C 0.93111 0.04304 0.42516 0.0
C312 C 0.92208 0.08608 0.41328 0.0
C313 C 0.86515 0.09177 0.34007 0.0
H314 H 0.86287 0.15918 0.41816 0.0
C315 C 0.78569 0.16047 0.32737 0.0
C316 C 0.79165 0.18535 0.32113 0.0
C317 C 0.8039 0.14362 0.33632 0.0
C318 C 0.86352 0.1405 0.39543 0.0
H319 H 0.90042 0.01788 0.4144 0.0
H320 H 0.87176 0.04943 0.39481 0.0
H321 H 0.89171 0.12905 0.44474 0.0
H322 H 0.82156 0.21196 0.31836 0.0
H323 H 0.85345 0.18243 0.33437 0.0
H324 H 0.83662 0.1031 0.29168 0.0
C325 C 0.89037 0.05495 0.40278 0.0
C326 C 0.88005 0.1232 0.41067 0.0
C327 C 0.90676 0.03686 0.4146 0.0
C328 C 0.8164 0.19288 0.32273 0.0
C329 C 0.83461 0.17604 0.3324 0.0
C330 C 0.84854 0.10898 0.32518 0.0
C331 C 0.89795 0.07972 0.40061 0.0
C332 C 0.8809 0.09851 0.38362 0.0
C333 C 0.8285 0.15126 0.33983 0.0
C334 C 0.84736 0.13349 0.35303 0.0
H335 H 0.95715 0.07332 0.43319 0.0
H336 H 0.92866 0.1049 0.41167 0.0
H337 H 0.86568 0.07314 0.3171 0.0
H338 H 0.76681 0.15406 0.32638 0.0
H339 H 0.79852 0.12474 0.34236 0.0
C340 C 0.68057 0.20355 0.23849 0.0
C341 C 0.70562 0.20151 0.21484 0.0
C342 C 0.66346 0.18575 0.22022 0.0
C343 C 0.65578 0.13445 0.10028 0.0
H344 H 0.60099 0.11633 0.21053 0.0
C345 C 0.59632 0.04615 0.06368 0.0
C346 C 0.57047 0.04939 0.07522 0.0
C347 C 0.61218 0.06586 0.0769 0.0
C348 C 0.61609 0.1214 0.17917 0.0
H349 H 0.73254 0.17883 0.15484 0.0
H350 H 0.70313 0.14734 0.12505 0.0
H351 H 0.63011 0.14786 0.24313 0.0
H352 H 0.54095 0.07591 0.10888 0.0
H353 H 0.56877 0.11023 0.13319 0.0
H354 H 0.64214 0.10707 0.03718 0.0
C355 C 0.69633 0.16308 0.15602 0.0
C356 C 0.63276 0.13955 0.19769 0.0
C357 C 0.7133 0.18105 0.17352 0.0
C358 C 0.56079 0.07288 0.09915 0.0
C359 C 0.57667 0.09246 0.11345 0.0
C360 C 0.63935 0.11599 0.08213 0.0
C361 C 0.67109 0.16528 0.17855 0.0
C362 C 0.65293 0.14629 0.15858 0.0
C363 C 0.6025 0.08906 0.10298 0.0
C364 C 0.61938 0.10927 0.12141 0.0
H365 H 0.67405 0.21922 0.27005 0.0
H366 H 0.64417 0.18837 0.23801 0.0
H367 H 0.67066 0.13947 0.06835 0.0
H368 H 0.6043 0.02825 0.04524 0.0
H369 H 0.63204 0.06273 0.06864 0.0
C370 C 0.69091 0.81555 0.75825 0.0
C371 C 0.70431 0.80585 0.79919 0.0
C372 C 0.67313 0.83424 0.77674 0.0
C373 C 0.65146 0.88112 0.90421 0.0
H374 H 0.59214 0.88134 0.82533 0.0
C375 C 0.5637 0.94037 0.99416 0.0
C376 C 0.55449 0.95451 0.95382 0.0
C377 C 0.58249 0.92272 0.97522 0.0
C378 C 0.60871 0.88155 0.84746 0.0
H379 H 0.70948 0.80792 0.89165 0.0
H380 H 0.67779 0.83972 0.92436 0.0
H381 H 0.62375 0.84931 0.7929 0.0
H382 H 0.55758 0.96115 0.86204 0.0
H383 H 0.59002 0.92983 0.82882 0.0
H384 H 0.63575 0.91295 0.96006 0.0
C385 C 0.68147 0.83355 0.87767 0.0
C386 C 0.62692 0.8633 0.82874 0.0
C387 C 0.69956 0.81517 0.859 0.0
C388 C 0.56435 0.95057 0.89416 0.0
C389 C 0.5828 0.93261 0.87508 0.0
C390 C 0.63304 0.8991 0.92352 0.0
C391 C 0.66801 0.84337 0.83679 0.0
C392 C 0.6486 0.86287 0.85674 0.0
C393 C 0.59207 0.91858 0.91547 0.0
C394 C 0.61155 0.89951 0.89518 0.0
H395 H 0.69437 0.8089 0.71174 0.0
H396 H 0.66357 0.84166 0.74375 0.0
H397 H 0.66807 0.88174 0.92617 0.0
H398 H 0.55654 0.94308 0.04045 0.0
H399 H 0.58927 0.91202 0.00711 0.0
C400 C 0.5738 0.5412 0.92525 0.0
C401 C 0.55361 0.54903 0.96728 0.0
C402 C 0.59214 0.55794 0.90832 0.0
C403 C 0.60354 0.62325 0.89453 0.0
H404 H 0.67264 0.60624 0.897 0.0
C405 C 0.68259 0.6933 0.8507 0.0
C406 C 0.70598 0.68404 0.82503 0.0
C407 C 0.66345 0.67706 0.86606 0.0
C408 C 0.6535 0.61117 0.89482 0.0
H409 H 0.53671 0.58065 0.0241 0.0
H410 H 0.56865 0.61013 0.99335 0.0
H411 H 0.64049 0.5776 0.9283 0.0
H412 H 0.72729 0.65057 0.79246 0.0
H413 H 0.69369 0.62226 0.81631 0.0
H414 H 0.61638 0.65643 0.85929 0.0
C415 C 0.57026 0.59093 0.97402 0.0
C416 C 0.63507 0.59478 0.9133 0.0
C417 C 0.5521 0.57405 0.99184 0.0
C418 C 0.70951 0.65825 0.81269 0.0
C419 C 0.69027 0.64201 0.827 0.0
C420 C 0.62199 0.6395 0.87504 0.0
C421 C 0.59049 0.58299 0.93223 0.0
C422 C 0.60992 0.60067 0.91344 0.0
C423 C 0.66712 0.65114 0.85521 0.0
C424 C 0.64728 0.63371 0.87494 0.0
H425 H 0.57552 0.52205 0.90553 0.0
H426 H 0.60746 0.55138 0.87576 0.0
H427 H 0.58426 0.6281 0.89365 0.0
H428 H 0.67938 0.71311 0.86126 0.0
H429 H 0.64609 0.6849 0.88834 0.0
C430 C 0.68771 0.31392 0.17734 0.0
C431 C 0.71247 0.32147 0.17868 0.0
C432 C 0.66946 0.33073 0.16777 0.0
C433 C 0.65546 0.39777 0.17479 0.0
H434 H 0.61212 0.37756 0.05569 0.0
C435 C 0.59707 0.46973 0.08538 0.0
C436 C 0.57269 0.46353 0.07505 0.0
C437 C 0.61349 0.45167 0.09719 0.0
C438 C 0.62383 0.38344 0.08963 0.0
H439 H 0.73728 0.35277 0.17309 0.0
H440 H 0.7055 0.38205 0.15728 0.0
H441 H 0.64104 0.34748 0.08219 0.0
H442 H 0.54664 0.43325 0.06742 0.0
H443 H 0.57518 0.40172 0.08892 0.0
H444 H 0.6383 0.43359 0.1828 0.0
C445 C 0.70014 0.36317 0.16345 0.0
C446 C 0.6404 0.36618 0.10483 0.0
C447 C 0.71839 0.34635 0.1723 0.0
C448 C 0.56536 0.43862 0.07483 0.0
C449 C 0.58176 0.42052 0.08713 0.0
C450 C 0.63882 0.41495 0.15994 0.0
C451 C 0.67554 0.3555 0.16018 0.0
C452 C 0.65663 0.37324 0.14706 0.0
C453 C 0.60591 0.42691 0.09957 0.0
C454 C 0.623 0.40815 0.11655 0.0
H455 H 0.68258 0.29485 0.18182 0.0
H456 H 0.65061 0.32433 0.166 0.0
H457 H 0.66743 0.4037 0.20816 0.0
H458 H 0.6034 0.48871 0.0854 0.0
H459 H 0.63211 0.4572 0.10497 0.0
C460 C 0.90821 0.46032 0.43568 0.0
C461 C 0.93405 0.45695 0.42472 0.0
C462 C 0.89231 0.44065 0.42245 0.0
C463 C 0.88846 0.38493 0.32082 0.0
H464 H 0.83342 0.36737 0.43102 0.0
C465 C 0.82373 0.30303 0.26124 0.0
C466 C 0.79864 0.30522 0.28449 0.0
C467 C 0.84087 0.32077 0.27961 0.0
C468 C 0.84844 0.37225 0.39925 0.0
H469 H 0.96353 0.43025 0.3921 0.0
H470 H 0.93564 0.39599 0.36775 0.0
H471 H 0.862 0.39967 0.46234 0.0
H472 H 0.77168 0.3281 0.34385 0.0
H473 H 0.80114 0.35952 0.37379 0.0
H474 H 0.87451 0.35842 0.25684 0.0
C475 C 0.92777 0.41383 0.38705 0.0
C476 C 0.8649 0.39065 0.4175 0.0
C477 C 0.94369 0.43337 0.40137 0.0
C478 C 0.79094 0.32577 0.32549 0.0
C479 C 0.80795 0.3437 0.34309 0.0
C480 C 0.87175 0.36683 0.30219 0.0
C481 C 0.90194 0.41736 0.39694 0.0
C482 C 0.88503 0.39718 0.37844 0.0
C483 C 0.83323 0.34134 0.32097 0.0
C484 C 0.85142 0.36028 0.34107 0.0
H485 H 0.90026 0.47828 0.45367 0.0
H486 H 0.87245 0.44387 0.43025 0.0
H487 H 0.90369 0.38986 0.28963 0.0
H488 H 0.83026 0.28728 0.22993 0.0
H489 H 0.86018 0.31804 0.26215 0.0
C490 C 0.80458 0.69101 0.64136 0.0
C491 C 0.80024 0.70047 0.70122 0.0
C492 C 0.82264 0.67265 0.62225 0.0
C493 C 0.85565 0.62184 0.66946 0.0
H494 H 0.90664 0.6327 0.54246 0.0
C495 C 0.93979 0.5556 0.60546 0.0
C496 C 0.94974 0.55157 0.54596 0.0
C497 C 0.92134 0.5736 0.62426 0.0
C498 C 0.89233 0.62909 0.57725 0.0
H499 H 0.811 0.69779 0.78817 0.0
H500 H 0.8422 0.66517 0.75475 0.0
H501 H 0.87438 0.66405 0.57495 0.0
H502 H 0.94777 0.56274 0.45913 0.0
H503 H 0.91487 0.59337 0.49126 0.0
H504 H 0.87291 0.58661 0.6709 0.0
C505 C 0.83176 0.67221 0.72274 0.0
C506 C 0.87395 0.64716 0.59601 0.0
C507 C 0.81403 0.69092 0.74173 0.0
C508 C 0.94062 0.56563 0.50542 0.0
C509 C 0.92185 0.58332 0.52401 0.0
C510 C 0.87377 0.60355 0.65005 0.0
C511 C 0.83634 0.66307 0.66279 0.0
C512 C 0.85555 0.64374 0.64245 0.0
C513 C 0.91207 0.58769 0.58378 0.0
C514 C 0.89246 0.60698 0.60386 0.0
H515 H 0.79427 0.69805 0.60911 0.0
H516 H 0.82577 0.66577 0.57582 0.0
H517 H 0.84147 0.6187 0.70501 0.0
H518 H 0.94658 0.54516 0.6378 0.0
H519 H 0.91467 0.5767 0.67077 0.0
C520 C 0.29574 0.33076 0.09295 0.0
C521 C 0.29435 0.31861 0.14391 0.0
C522 C 0.31477 0.34741 0.08068 0.0
C523 C 0.37671 0.3679 0.1233 0.0
H524 H 0.36396 0.42285 0.03656 0.0
C525 C 0.44204 0.45196 0.09362 0.0
C526 C 0.44922 0.45598 0.03471 0.0
C527 C 0.42353 0.43489 0.10742 0.0
C528 C 0.36776 0.40751 0.06056 0.0
H529 H 0.31161 0.31458 0.22249 0.0
H530 H 0.34422 0.34473 0.20294 0.0
H531 H 0.33053 0.39465 0.06265 0.0
H532 H 0.44234 0.44556 0.94421 0.0
H533 H 0.40923 0.41629 0.96878 0.0
H534 H 0.41379 0.38182 0.12314 0.0
C535 C 0.33111 0.3408 0.17117 0.0
C536 C 0.34867 0.39117 0.07528 0.0
C537 C 0.3123 0.32364 0.18277 0.0
C538 C 0.43729 0.44277 0.98994 0.0
C539 C 0.41833 0.42612 0.00394 0.0
C540 C 0.39564 0.38462 0.10968 0.0
C541 C 0.33268 0.35288 0.11974 0.0
C542 C 0.35289 0.37092 0.1063 0.0
C543 C 0.41142 0.42195 0.06276 0.0
C544 C 0.39137 0.40439 0.07772 0.0
H545 H 0.28239 0.32696 0.06162 0.0
H546 H 0.31559 0.35565 0.03983 0.0
H547 H 0.38095 0.35239 0.14623 0.0
H548 H 0.45088 0.46184 0.12911 0.0
H549 H 0.41839 0.43207 0.15311 0.0
C550 C 0.44212 0.57031 0.92498 0.0
C551 C 0.43429 0.54563 0.92697 0.0
C552 C 0.42589 0.58849 0.91219 0.0
C553 C 0.36834 0.59392 0.84128 0.0
H554 H 0.36646 0.6618 0.91638 0.0
C555 C 0.28778 0.66132 0.83061 0.0
C556 C 0.29323 0.6862 0.82313 0.0
C557 C 0.30643 0.64488 0.83914 0.0
C558 C 0.36701 0.64299 0.89445 0.0
H559 H 0.40293 0.52102 0.92017 0.0
H560 H 0.37462 0.55262 0.89961 0.0
H561 H 0.39585 0.63207 0.94266 0.0
H562 H 0.3227 0.71323 0.81782 0.0
H563 H 0.35539 0.68441 0.83304 0.0
H564 H 0.33922 0.60465 0.79398 0.0
C565 C 0.39345 0.55791 0.90604 0.0
C566 C 0.38385 0.62593 0.90954 0.0
C567 C 0.40965 0.53979 0.91839 0.0
C568 C 0.31793 0.69415 0.82315 0.0
C569 C 0.3366 0.67771 0.83237 0.0
C570 C 0.35148 0.61088 0.8265 0.0
C571 C 0.40147 0.58238 0.90137 0.0
C572 C 0.38447 0.60105 0.88376 0.0
C573 C 0.331 0.65293 0.84093 0.0
C574 C 0.35036 0.63553 0.85343 0.0
H575 H 0.46104 0.57539 0.93108 0.0
H576 H 0.43275 0.6071 0.90875 0.0
H577 H 0.36871 0.57513 0.81926 0.0
H578 H 0.26896 0.65459 0.83089 0.0
H579 H 0.30142 0.626 0.84614 0.0
C580 C 0.21351 0.68061 0.67551 0.0
C581 C 0.20586 0.70097 0.71713 0.0
C582 C 0.19649 0.66276 0.65753 0.0
C583 C 0.13273 0.6394 0.69794 0.0
H584 H 0.14227 0.60764 0.53679 0.0
C585 C 0.06071 0.57345 0.59682 0.0
C586 C 0.07037 0.55004 0.57212 0.0
C587 C 0.07661 0.59291 0.61199 0.0
C588 C 0.13943 0.61636 0.58192 0.0
H589 H 0.17429 0.71864 0.77245 0.0
H590 H 0.14434 0.68802 0.73962 0.0
H591 H 0.17088 0.63973 0.5691 0.0
H592 H 0.10419 0.52894 0.54175 0.0
H593 H 0.13195 0.5632 0.56666 0.0
H594 H 0.10083 0.61627 0.70982 0.0
C595 C 0.16364 0.68538 0.72193 0.0
C596 C 0.15592 0.63463 0.60072 0.0
C597 C 0.18079 0.70303 0.74065 0.0
C598 C 0.09622 0.54677 0.56075 0.0
C599 C 0.1121 0.56636 0.57485 0.0
C600 C 0.11601 0.62142 0.67877 0.0
C601 C 0.17123 0.66502 0.67988 0.0
C602 C 0.15301 0.64621 0.65926 0.0
C603 C 0.10245 0.58947 0.60162 0.0
C604 C 0.11936 0.60954 0.62078 0.0
H605 H 0.23275 0.67836 0.6569 0.0
H606 H 0.20327 0.6471 0.62629 0.0
H607 H 0.13003 0.64751 0.74353 0.0
H608 H 0.04087 0.5765 0.60645 0.0
H609 H 0.06873 0.6106 0.63227 0.0
C610 C 0.18768 0.3122 0.25402 0.0
C611 C 0.20228 0.30422 0.29487 0.0
C612 C 0.16993 0.33104 0.27149 0.0
C613 C 0.15096 0.3813 0.39378 0.0
H614 H 0.08961 0.37963 0.32248 0.0
C615 C 0.06422 0.44137 0.48728 0.0
C616 C 0.05456 0.45515 0.4469 0.0
C617 C 0.08269 0.42343 0.46796 0.0
C618 C 0.10675 0.38034 0.34245 0.0
H619 H 0.20946 0.30929 0.38622 0.0
H620 H 0.17783 0.34116 0.41735 0.0
H621 H 0.12069 0.34697 0.29071 0.0
H622 H 0.05645 0.46083 0.35466 0.0
H623 H 0.08827 0.42889 0.32078 0.0
H624 H 0.13634 0.41423 0.44711 0.0
C625 C 0.18057 0.33367 0.37133 0.0
C626 C 0.12465 0.36174 0.32408 0.0
C627 C 0.19861 0.31521 0.3536 0.0
C628 C 0.0636 0.45054 0.3868 0.0
C629 C 0.08169 0.43223 0.36735 0.0
C630 C 0.13285 0.39961 0.41287 0.0
C631 C 0.16607 0.342 0.33047 0.0
C632 C 0.14703 0.36195 0.3495 0.0
C633 C 0.09143 0.4186 0.4078 0.0
C634 C 0.11063 0.39929 0.38731 0.0
H635 H 0.19027 0.30421 0.2083 0.0
H636 H 0.15949 0.33722 0.23845 0.0
H637 H 0.16813 0.3825 0.41352 0.0
H638 H 0.05767 0.4446 0.53388 0.0
H639 H 0.08988 0.41304 0.49988 0.0
C640 C 0.98896 0.97636 0.7787 0.0
C641 C 0.9963 0.99679 0.74853 0.0
C642 C 0.98917 0.97766 0.83961 0.0
C643 C 0.98896 0.02182 0.97415 0.0
H644 H 0.01526 0.96579 0.03875 0.0
C645 C 0.00878 0.02819 0.2155 0.0
C646 C 0.00242 0.00782 0.24668 0.0
C647 C 0.00795 0.02643 0.15478 0.0
C648 C 0.00758 0.98146 0.02151 0.0
H649 H 0.00935 0.03473 0.75881 0.0
H650 H 0.0098 0.03697 0.86534 0.0
H651 H 0.01364 0.96381 0.93278 0.0
H652 H 0.99043 0.96951 0.23842 0.0
H653 H 0.98873 0.96649 0.13211 0.0
H654 H 0.98286 0.03946 0.06278 0.0
C655 C 0.00369 0.02 0.84181 0.0
C656 C 0.00666 0.98034 0.96079 0.0
C657 C 0.00353 0.01869 0.78077 0.0
C658 C 0.99551 0.98551 0.21561 0.0
C659 C 0.99462 0.98376 0.15469 0.0
C660 C 0.98983 0.02292 0.03485 0.0
C661 C 0.99667 0.99943 0.87183 0.0
C662 C 0.99742 1.00054 0.93642 0.0
C663 C 1.00066 0.00429 0.12368 0.0
C664 C 0.99926 1.0028 0.05923 0.0
H665 H 0.98319 0.95922 0.75525 0.0
H666 H 0.9833 0.96163 0.86154 0.0
H667 H 0.98137 0.03752 0.95685 0.0
H668 H 0.01435 0.04562 0.23799 0.0
H669 H 0.01317 0.04244 0.13213 0.0
C670 C 0.27054 0.75533 0.46839 0.0
C671 C 0.24937 0.74607 0.49965 0.0
C672 C 0.27163 0.75655 0.40759 0.0
C673 C 0.23094 0.75808 0.28936 0.0
H674 H 0.29139 0.74171 0.18482 0.0
C675 C 0.23461 0.74963 0.03466 0.0
C676 C 0.25576 0.75887 0.0033 0.0
C677 C 0.23362 0.74829 0.09538 0.0
C678 C 0.27442 0.74662 0.21347 0.0
H679 H 0.21301 0.73024 0.49112 0.0
H680 H 0.21507 0.73207 0.38557 0.0
H681 H 0.29055 0.73868 0.28997 0.0
H682 H 0.29223 0.77448 0.01155 0.0
H683 H 0.29035 0.77245 0.11701 0.0
H684 H 0.21481 0.76605 0.21291 0.0
C685 C 0.23065 0.73883 0.408 0.0
C686 C 0.27396 0.74488 0.27381 0.0
C687 C 0.22956 0.73762 0.46858 0.0
C688 C 0.27569 0.76712 0.03418 0.0
C689 C 0.27469 0.7658 0.09471 0.0
C690 C 0.23141 0.75983 0.22904 0.0
C691 C 0.25157 0.74854 0.37678 0.0
C692 C 0.2522 0.75055 0.31253 0.0
C693 C 0.25376 0.75616 0.12605 0.0
C694 C 0.25316 0.75414 0.1903 0.0
H695 H 0.28608 0.76207 0.49101 0.0
H696 H 0.28796 0.76432 0.38501 0.0
H697 H 0.21398 0.76299 0.31802 0.0
H698 H 0.21898 0.74303 0.01218 0.0
H699 H 0.21729 0.74056 0.11803 0.0
C700 C 0.49877 0.01714 0.7299 0.0
C701 C 0.5037 0.99403 0.74836 0.0
C702 C 0.49861 0.01947 0.67006 0.0
C703 C 0.49173 0.98271 0.52765 0.0
H704 H 0.52201 0.03968 0.46128 0.0
C705 C 0.50615 0.9892 0.2771 0.0
C706 C 0.50126 0.0123 0.25849 0.0
C707 C 0.50634 0.98694 0.33696 0.0
C708 C 0.51324 0.0238 0.47929 0.0
H709 H 0.51255 0.95529 0.71846 0.0
H710 H 0.51248 0.95943 0.61421 0.0
H711 H 0.52266 0.03594 0.56573 0.0
H712 H 0.49256 0.05109 0.28813 0.0
H713 H 0.49267 0.04706 0.39244 0.0
H714 H 0.4823 0.97057 0.44123 0.0
C715 C 0.50841 0.97568 0.64599 0.0
C716 C 0.51361 0.02166 0.53912 0.0
C717 C 0.5086 0.97335 0.70574 0.0
C718 C 0.49646 0.03304 0.30097 0.0
C719 C 0.49668 0.03078 0.36076 0.0
C720 C 0.49135 0.98485 0.46783 0.0
C721 C 0.50333 0.99874 0.62747 0.0
C722 C 0.50287 1.00109 0.56395 0.0
C723 C 0.50168 0.00772 0.37943 0.0
C724 C 0.5021 0.00542 0.44298 0.0
H725 H 0.49485 0.03342 0.76165 0.0
H726 H 0.49437 0.03744 0.65723 0.0
H727 H 0.48296 0.96683 0.54566 0.0
H728 H 0.50999 0.97288 0.24545 0.0
H729 H 0.51053 0.96898 0.34989 0.0
C730 C 0.23704 0.25132 0.97621 0.0
C731 C 0.25996 0.24588 0.99476 0.0
C732 C 0.23504 0.25255 0.91655 0.0
C733 C 0.27282 0.26238 0.77718 0.0
H734 H 0.21587 0.23539 0.70545 0.0
C735 C 0.26754 0.25449 0.526 0.0
C736 C 0.24461 0.25996 0.50748 0.0
C737 C 0.26953 0.2532 0.58563 0.0
C738 C 0.23175 0.24329 0.725 0.0
H739 H 0.29864 0.23689 0.96504 0.0
H740 H 0.29507 0.23876 0.86109 0.0
H741 H 0.21892 0.23158 0.80896 0.0
H742 H 0.20592 0.2689 0.53723 0.0
H743 H 0.20949 0.26691 0.64114 0.0
H744 H 0.28566 0.27409 0.69322 0.0
C745 C 0.27872 0.24247 0.89271 0.0
C746 C 0.23351 0.24108 0.7843 0.0
C747 C 0.28072 0.24123 0.95229 0.0
C748 C 0.22384 0.26455 0.54996 0.0
C749 C 0.22584 0.26324 0.60951 0.0
C750 C 0.27107 0.26459 0.71787 0.0
C751 C 0.25592 0.24838 0.8742 0.0
C752 C 0.25407 0.25059 0.81107 0.0
C753 C 0.24864 0.25732 0.628 0.0
C754 C 0.25051 0.25508 0.69111 0.0
H755 H 0.2207 0.25508 0.00785 0.0
H756 H 0.21725 0.25737 0.9038 0.0
H757 H 0.28871 0.27028 0.79673 0.0
H758 H 0.28387 0.25078 0.49436 0.0
H759 H 0.28732 0.24837 0.59836 0.0
C760 C 0.77001 0.25657 0.96663 0.0
C761 C 0.74863 0.24786 0.99821 0.0
C762 C 0.77108 0.25775 0.90582 0.0
C763 C 0.73041 0.26 0.78768 0.0
H764 H 0.79049 0.24196 0.68316 0.0
C765 C 0.73405 0.2506 0.53282 0.0
C766 C 0.75543 0.2593 0.5012 0.0
C767 C 0.73297 0.2495 0.59366 0.0
C768 C 0.77363 0.24734 0.71181 0.0
H769 H 0.71183 0.23302 0.99027 0.0
H770 H 0.71385 0.23476 0.88471 0.0
H771 H 0.78955 0.23926 0.78846 0.0
H772 H 0.7922 0.27421 0.50912 0.0
H773 H 0.79017 0.27258 0.61473 0.0
H774 H 0.71449 0.26808 0.71101 0.0
C775 C 0.72963 0.24113 0.90688 0.0
C776 C 0.77311 0.24579 0.77224 0.0
C777 C 0.72856 0.23997 0.96748 0.0
C778 C 0.77548 0.26726 0.53194 0.0
C779 C 0.7744 0.26617 0.59256 0.0
C780 C 0.73093 0.26155 0.72725 0.0
C781 C 0.75079 0.25024 0.8753 0.0
C782 C 0.75148 0.25208 0.81096 0.0
C783 C 0.75324 0.25706 0.62417 0.0
C784 C 0.75255 0.25526 0.68852 0.0
H785 H 0.78576 0.26288 0.98899 0.0
H786 H 0.78759 0.26506 0.88298 0.0
H787 H 0.71355 0.26538 0.81632 0.0
H788 H 0.71831 0.24424 0.51047 0.0
H789 H 0.71646 0.24218 0.61653 0.0
C790 C 0.78303 0.74697 0.45238 0.0
C791 C 0.76239 0.75193 0.49508 0.0
C792 C 0.78066 0.74711 0.39263 0.0
C793 C 0.73459 0.7418 0.28635 0.0
H794 H 0.78537 0.77318 0.18759 0.0
C795 C 0.72251 0.75919 0.04885 0.0
C796 C 0.74308 0.75429 0.00596 0.0
C797 C 0.72497 0.75896 0.10851 0.0
C798 C 0.77118 0.76411 0.21445 0.0
H799 H 0.72307 0.76085 0.50856 0.0
H800 H 0.719 0.76127 0.40421 0.0
H801 H 0.78937 0.7725 0.2919 0.0
H802 H 0.78241 0.7454 0.99206 0.0
H803 H 0.78666 0.74483 0.0963 0.0
H804 H 0.71639 0.73341 0.20892 0.0
C805 C 0.73694 0.75701 0.41694 0.0
C806 C 0.77346 0.76372 0.27418 0.0
C807 C 0.73931 0.7569 0.47674 0.0
C808 C 0.76621 0.74931 0.02404 0.0
C809 C 0.76868 0.74911 0.08377 0.0
C810 C 0.7323 0.74219 0.22663 0.0
C811 C 0.75762 0.75219 0.37426 0.0
C812 C 0.75519 0.75257 0.31079 0.0
C813 C 0.74805 0.75385 0.12663 0.0
C814 C 0.75056 0.75336 0.19003 0.0
H815 H 0.80106 0.743 0.46503 0.0
H816 H 0.79686 0.743 0.36076 0.0
H817 H 0.72039 0.73274 0.31322 0.0
H818 H 0.70443 0.76317 0.03641 0.0
H819 H 0.70881 0.76303 0.14053 0.0
C820 C 0.51587 0.52913 0.72087 0.0
C821 C 0.50853 0.50873 0.75112 0.0
C822 C 0.5155 0.52787 0.66002 0.0
C823 C 0.51506 0.48385 0.52537 0.0
H824 H 0.48888 0.5402 0.46176 0.0
C825 C 0.49483 0.47813 0.28432 0.0
C826 C 0.50126 0.49855 0.25334 0.0
C827 C 0.49572 0.47975 0.345 0.0
C828 C 0.49652 0.52443 0.47871 0.0
H829 H 0.49535 0.47084 0.74099 0.0
H830 H 0.49461 0.46864 0.63453 0.0
H831 H 0.49078 0.54196 0.56758 0.0
H832 H 0.51343 0.5368 0.26197 0.0
H833 H 0.51524 0.53956 0.36822 0.0
H834 H 0.52085 0.46632 0.43659 0.0
C835 C 0.50084 0.48557 0.65796 0.0
C836 C 0.4976 0.52542 0.53936 0.0
C837 C 0.50118 0.48686 0.71897 0.0
C838 C 0.50829 0.52077 0.28461 0.0
C839 C 0.50924 0.52237 0.3455 0.0
C840 C 0.51403 0.48287 0.46474 0.0
C841 C 0.50781 0.50615 0.6279 0.0
C842 C 0.50683 0.50512 0.56339 0.0
C843 C 0.50314 0.50179 0.37629 0.0
C844 C 0.50465 0.50311 0.4407 0.0
H845 H 0.52174 0.54625 0.74423 0.0
H846 H 0.52134 0.5439 0.63806 0.0
H847 H 0.52262 0.46805 0.54238 0.0
H848 H 0.48916 0.46077 0.26168 0.0
H849 H 0.49045 0.4637 0.36748 0.0
C850 C 0.00518 0.48928 0.77081 0.0
C851 C 0.9999 0.51232 0.75239 0.0
C852 C 0.00531 0.48695 0.83066 0.0
C853 C 0.01158 0.52384 0.97318 0.0
H854 H 0.98238 0.46635 0.03925 0.0
C855 C 0.99779 0.51704 0.2236 0.0
C856 C 0.00308 0.49402 0.24202 0.0
C857 C 0.99741 0.51932 0.16381 0.0
C858 C 0.99086 0.48238 0.02133 0.0
H859 H 0.99036 0.5509 0.78238 0.0
H860 H 0.99038 0.54676 0.88665 0.0
H861 H 0.98155 0.47009 0.93486 0.0
H862 H 0.01233 0.45536 0.2121 0.0
H863 H 0.01192 0.45941 0.10788 0.0
H864 H 0.02092 0.53613 0.0596 0.0
C865 C 0.99474 0.53058 0.85483 0.0
C866 C 0.99037 0.48452 0.96154 0.0
C867 C 0.99459 0.53291 0.79506 0.0
C868 C 0.00811 0.47336 0.19941 0.0
C869 C 0.00773 0.47563 0.13967 0.0
C870 C 0.01208 0.5217 0.03296 0.0
C871 C 1.0002 0.50761 0.8733 0.0
C872 C 1.00072 0.50528 0.93681 0.0
C873 C 0.00231 0.49862 0.1212 0.0
C874 C 1.00173 0.50094 0.0577 0.0
H875 H 0.00941 0.47307 0.73901 0.0
H876 H 0.00985 0.46906 0.84345 0.0
H877 H 0.02006 0.53988 0.95525 0.0
H878 H 0.99376 0.5333 0.25536 0.0
H879 H 0.9929 0.53722 0.15104 0.0
loop_
_geom_bond_atom_site_label_1
_geom_bond_atom_site_label_2
_geom_bond_distance
_geom_bond_site_symmetry_2
_ccdc_geom_bond_type
Zn0 O6 1.969 1_545 S
Zn0 O7 1.965 1_655 S
Zn0 O11 2.024 . S
Zn0 O16 1.969 1_545 S
Zn1 O8 1.969 1_565 S
Zn1 O14 1.969 1_565 S
Zn1 O15 1.965 1_455 S
Zn1 O17 2.024 . S
C2 O3 1.229 . S
C2 O11 1.058 . S
O3 C2 1.229 . S
C4 O5 1.229 . S
C4 O17 1.058 . S
O5 C4 1.229 . S
O6 Zn0 1.969 1_565 S
O6 C9 1.267 1_565 S
O7 Zn0 1.965 1_455 S
O7 C18 1.260 . S
O8 Zn1 1.969 1_545 S
O8 C18 1.258 . S
C9 O6 1.267 1_545 S
C9 O10 1.228 . S
O10 C9 1.228 . S
O11 Zn0 2.024 . S
O11 C2 1.058 . S
C12 O13 1.228 . S
C12 O14 1.267 1_565 S
O13 C12 1.228 . S
O14 Zn1 1.969 1_545 S
O14 C12 1.267 1_545 S
O15 Zn1 1.965 1_655 S
O15 C19 1.260 . S
O16 Zn0 1.969 1_565 S
O16 C19 1.258 . S
O17 Zn1 2.024 . S
O17 C4 1.058 . S
C18 O7 1.260 . S
C18 O8 1.258 . S
C19 O15 1.260 . S
C19 O16 1.258 . S
Zn20 O26 1.969 . S
Zn20 O27 1.965 . S
Zn20 O31 2.024 . S
Zn20 O36 1.969 . S
Zn21 O28 1.969 . S
Zn21 O34 1.969 . S
Zn21 O35 1.965 . S
Zn21 O37 2.024 . S
C22 O23 1.229 . S
C22 O31 1.058 . S
O23 C22 1.229 . S
C24 O25 1.229 . S
C24 O37 1.058 . S
O25 C24 1.229 . S
O26 Zn20 1.969 . S
O26 C29 1.267 . S
O27 Zn20 1.965 . S
O27 C38 1.260 . S
O28 Zn21 1.969 . S
O28 C38 1.258 . S
C29 O26 1.267 . S
C29 O30 1.228 . S
O30 C29 1.228 . S
O31 Zn20 2.024 . S
O31 C22 1.058 . S
C32 O33 1.228 . S
C32 O34 1.267 . S
O33 C32 1.228 . S
O34 Zn21 1.969 . S
O34 C32 1.267 . S
O35 Zn21 1.965 . S
O35 C39 1.260 . S
O36 Zn20 1.969 . S
O36 C39 1.258 . S
O37 Zn21 2.024 . S
O37 C24 1.058 . S
C38 O27 1.260 . S
C38 O28 1.258 . S
C39 O35 1.260 . S
C39 O36 1.258 . S
Zn40 O46 1.969 1_545 S
Zn40 O47 1.965 . S
Zn40 O51 2.024 . S
Zn40 O56 1.969 1_545 S
Zn41 O48 1.969 1_565 S
Zn41 O54 1.969 1_565 S
Zn41 O55 1.965 . S
Zn41 O57 2.024 . S
C42 O43 1.229 . S
C42 O51 1.058 . S
O43 C42 1.229 . S
C44 O45 1.229 . S
C44 O57 1.058 . S
O45 C44 1.229 . S
O46 Zn40 1.969 1_565 S
O46 C49 1.267 1_565 S
O47 Zn40 1.965 . S
O47 C58 1.260 . S
O48 Zn41 1.969 1_545 S
O48 C58 1.258 1_556 S
C49 O46 1.267 1_545 S
C49 O50 1.228 . S
O50 C49 1.228 . S
O51 Zn40 2.024 . S
O51 C42 1.058 . S
C52 O53 1.228 . S
C52 O54 1.267 1_565 S
O53 C52 1.228 . S
O54 Zn41 1.969 1_545 S
O54 C52 1.267 1_545 S
O55 Zn41 1.965 . S
O55 C59 1.260 . S
O56 Zn40 1.969 1_565 S
O56 C59 1.258 1_554 S
O57 Zn41 2.024 . S
O57 C44 1.058 . S
C58 O47 1.260 . S
C58 O48 1.258 1_554 S
C59 O55 1.260 . S
C59 O56 1.258 1_556 S
Zn60 O66 1.969 . S
Zn60 O67 1.965 . S
Zn60 O71 2.024 . S
Zn60 O76 1.969 . S
Zn61 O68 1.969 . S
Zn61 O74 1.969 . S
Zn61 O75 1.965 . S
Zn61 O77 2.024 . S
C62 O63 1.229 . S
C62 O71 1.058 . S
O63 C62 1.229 . S
C64 O65 1.229 . S
C64 O77 1.058 . S
O65 C64 1.229 . S
O66 Zn60 1.969 . S
O66 C69 1.267 . S
O67 Zn60 1.965 . S
O67 C78 1.260 . S
O68 Zn61 1.969 . S
O68 C78 1.258 . S
C69 O66 1.267 . S
C69 O70 1.228 . S
O70 C69 1.228 . S
O71 Zn60 2.024 . S
O71 C62 1.058 . S
C72 O73 1.228 . S
C72 O74 1.267 . S
O73 C72 1.228 . S
O74 Zn61 1.969 . S
O74 C72 1.267 . S
O75 Zn61 1.965 . S
O75 C79 1.260 . S
O76 Zn60 1.969 . S
O76 C79 1.258 . S
O77 Zn61 2.024 . S
O77 C64 1.058 . S
C78 O67 1.260 . S
C78 O68 1.258 . S
C79 O75 1.260 . S
C79 O76 1.258 . S
Zn80 O86 1.969 . S
Zn80 O87 1.965 . S
Zn80 O91 2.024 . S
Zn80 O96 1.969 . S
Zn81 O88 1.969 . S
Zn81 O94 1.969 . S
Zn81 O95 1.965 . S
Zn81 O97 2.024 . S
C82 O83 1.229 . S
C82 O91 1.058 . S
O83 C82 1.229 . S
C84 O85 1.229 . S
C84 O97 1.058 . S
O85 C84 1.229 . S
O86 Zn80 1.969 . S
O86 C89 1.267 . S
O87 Zn80 1.965 . S
O87 C98 1.260 . S
O88 Zn81 1.969 . S
O88 C98 1.258 . S
C89 O86 1.267 . S
C89 O90 1.228 . S
O90 C89 1.228 . S
O91 Zn80 2.024 . S
O91 C82 1.058 . S
C92 O93 1.228 . S
C92 O94 1.267 . S
O93 C92 1.228 . S
O94 Zn81 1.969 . S
O94 C92 1.267 . S
O95 Zn81 1.965 . S
O95 C99 1.260 . S
O96 Zn80 1.969 . S
O96 C99 1.258 . S
O97 Zn81 2.024 . S
O97 C84 1.058 . S
C98 O87 1.260 . S
C98 O88 1.258 . S
C99 O95 1.260 . S
C99 O96 1.258 . S
Zn100 O106 1.969 . S
Zn100 O107 1.965 . S
Zn100 O111 2.024 . S
Zn100 O116 1.969 . S
Zn101 O108 1.969 . S
Zn101 O114 1.969 . S
Zn101 O115 1.965 . S
Zn101 O117 2.024 . S
C102 O103 1.229 . S
C102 O111 1.058 . S
O103 C102 1.229 . S
C104 O105 1.229 . S
C104 O117 1.058 . S
O105 C104 1.229 . S
O106 Zn100 1.969 . S
O106 C109 1.267 . S
O107 Zn100 1.965 . S
O107 C118 1.260 . S
O108 Zn101 1.969 . S
O108 C118 1.258 . S
C109 O106 1.267 . S
C109 O110 1.228 . S
O110 C109 1.228 . S
O111 Zn100 2.024 . S
O111 C102 1.058 . S
C112 O113 1.228 . S
C112 O114 1.267 . S
O113 C112 1.228 . S
O114 Zn101 1.969 . S
O114 C112 1.267 . S
O115 Zn101 1.965 . S
O115 C119 1.260 . S
O116 Zn100 1.969 . S
O116 C119 1.258 . S
O117 Zn101 2.024 . S
O117 C104 1.058 . S
C118 O107 1.260 . S
C118 O108 1.258 . S
C119 O115 1.260 . S
C119 O116 1.258 . S
Zn120 O126 1.969 . S
Zn120 O127 1.965 . S
Zn120 O131 2.024 . S
Zn120 O136 1.969 . S
Zn121 O128 1.969 . S
Zn121 O134 1.969 . S
Zn121 O135 1.965 . S
Zn121 O137 2.024 . S
C122 O123 1.229 . S
C122 O131 1.058 . S
O123 C122 1.229 . S
C124 O125 1.229 . S
C124 O137 1.058 . S
O125 C124 1.229 . S
O126 Zn120 1.969 . S
O126 C129 1.267 . S
O127 Zn120 1.965 . S
O127 C138 1.260 . S
O128 Zn121 1.969 . S
O128 C138 1.258 1_554 S
C129 O126 1.267 . S
C129 O130 1.228 . S
O130 C129 1.228 . S
O131 Zn120 2.024 . S
O131 C122 1.058 . S
C132 O133 1.228 . S
C132 O134 1.267 . S
O133 C132 1.228 . S
O134 Zn121 1.969 . S
O134 C132 1.267 . S
O135 Zn121 1.965 . S
O135 C139 1.260 . S
O136 Zn120 1.969 . S
O136 C139 1.258 1_556 S
O137 Zn121 2.024 . S
O137 C124 1.058 . S
C138 O127 1.260 . S
C138 O128 1.258 1_556 S
C139 O135 1.260 . S
C139 O136 1.258 1_554 S
Zn140 O146 1.969 . S
Zn140 O147 1.965 1_455 S
Zn140 O151 2.024 . S
Zn140 O156 1.969 . S
Zn141 O148 1.969 . S
Zn141 O154 1.969 . S
Zn141 O155 1.965 1_655 S
Zn141 O157 2.024 . S
C142 O143 1.229 . S
C142 O151 1.058 . S
O143 C142 1.229 . S
C144 O145 1.229 . S
C144 O157 1.058 . S
O145 C144 1.229 . S
O146 Zn140 1.969 . S
O146 C149 1.267 . S
O147 Zn140 1.965 1_655 S
O147 C158 1.260 . S
O148 Zn141 1.969 . S
O148 C158 1.258 . S
C149 O146 1.267 . S
C149 O150 1.238 . S
O150 C149 1.238 . S
O151 Zn140 2.024 . S
O151 C142 1.058 . S
C152 O153 1.236 . S
C152 O154 1.267 . S
O153 C152 1.236 . S
O154 Zn141 1.969 . S
O154 C152 1.267 . S
O155 Zn141 1.965 1_455 S
O155 C159 1.260 . S
O156 Zn140 1.969 . S
O156 C159 1.258 . S
O157 Zn141 2.024 . S
O157 C144 1.058 . S
C158 O147 1.260 . S
C158 O148 1.258 . S
C159 O155 1.260 . S
C159 O156 1.258 . S
C160 C161 1.349 . S
C160 C162 1.327 . S
C160 H185 0.950 . S
C161 C160 1.349 . S
C161 C177 1.349 . S
C162 C160 1.327 . S
C162 C181 1.429 . S
C162 H186 0.950 . S
C163 C180 1.574 . S
C163 C182 1.368 . S
C163 H187 0.949 . S
H164 C168 0.949 . S
C165 C166 1.349 . S
C165 C167 1.327 . S
C165 H188 0.950 . S
C166 C165 1.349 . S
C166 C178 1.349 . S
C167 C165 1.327 . S
C167 C183 1.429 . S
C167 H189 0.950 . S
C168 H164 0.949 . S
C168 C176 1.574 . S
C168 C184 1.368 . S
H169 C177 0.950 . S
H170 C175 0.950 . S
H171 C176 0.949 . S
H172 C178 0.950 . S
H173 C179 0.950 . S
H174 C180 0.949 . S
C175 H170 0.950 . S
C175 C177 1.327 . S
C175 C181 1.429 . S
C176 C168 1.574 . S
C176 H171 0.949 . S
C176 C182 1.368 . S
C177 C161 1.349 . S
C177 H169 0.950 . S
C177 C175 1.327 . S
C178 C166 1.349 . S
C178 H172 0.950 . S
C178 C179 1.327 . S
C179 H173 0.950 . S
C179 C178 1.327 . S
C179 C183 1.429 . S
C180 C163 1.574 . S
C180 H174 0.949 . S
C180 C184 1.368 . S
C181 C162 1.429 . S
C181 C175 1.429 . S
C181 C182 1.523 . S
C182 C163 1.368 . S
C182 C176 1.368 . S
C182 C181 1.523 . S
C183 C167 1.429 . S
C183 C179 1.429 . S
C183 C184 1.523 . S
C184 C168 1.368 . S
C184 C180 1.368 . S
C184 C183 1.523 . S
H185 C160 0.950 . S
H186 C162 0.950 . S
H187 C163 0.949 . S
H188 C165 0.950 . S
H189 C167 0.950 . S
C190 C191 1.349 . S
C190 C192 1.327 . S
C190 H215 0.950 . S
C191 C190 1.349 . S
C191 C207 1.349 . S
C192 C190 1.327 . S
C192 C211 1.429 . S
C192 H216 0.950 . S
C193 C210 1.574 . S
C193 C212 1.368 . S
C193 H217 0.949 . S
H194 C198 0.949 . S
C195 C196 1.349 . S
C195 C197 1.327 . S
C195 H218 0.950 . S
C196 C195 1.349 . S
C196 C208 1.349 . S
C197 C195 1.327 . S
C197 C213 1.429 . S
C197 H219 0.950 . S
C198 H194 0.949 . S
C198 C206 1.574 . S
C198 C214 1.368 . S
H199 C207 0.950 . S
H200 C205 0.950 . S
H201 C206 0.949 . S
H202 C208 0.950 . S
H203 C209 0.950 . S
H204 C210 0.949 . S
C205 H200 0.950 . S
C205 C207 1.327 . S
C205 C211 1.429 . S
C206 C198 1.574 . S
C206 H201 0.949 . S
C206 C212 1.368 . S
C207 C191 1.349 . S
C207 H199 0.950 . S
C207 C205 1.327 . S
C208 C196 1.349 . S
C208 H202 0.950 . S
C208 C209 1.327 . S
C209 H203 0.950 . S
C209 C208 1.327 . S
C209 C213 1.429 . S
C210 C193 1.574 . S
C210 H204 0.949 . S
C210 C214 1.368 . S
C211 C192 1.429 . S
C211 C205 1.429 . S
C211 C212 1.523 . S
C212 C193 1.368 . S
C212 C206 1.368 . S
C212 C211 1.523 . S
C213 C197 1.429 . S
C213 C209 1.429 . S
C213 C214 1.523 . S
C214 C198 1.368 . S
C214 C210 1.368 . S
C214 C213 1.523 . S
H215 C190 0.950 . S
H216 C192 0.950 . S
H217 C193 0.949 . S
H218 C195 0.950 . S
H219 C197 0.950 . S
C220 C221 1.349 . S
C220 C222 1.327 . S
C220 H245 0.950 . S
C221 C220 1.349 . S
C221 C237 1.349 . S
C222 C220 1.327 . S
C222 C241 1.429 . S
C222 H246 0.950 . S
C223 C240 1.574 . S
C223 C242 1.368 . S
C223 H247 0.949 . S
H224 C228 0.949 . S
C225 C226 1.349 . S
C225 C227 1.327 . S
C225 H248 0.950 . S
C226 C225 1.349 . S
C226 C238 1.349 . S
C227 C225 1.327 . S
C227 C243 1.429 . S
C227 H249 0.950 . S
C228 H224 0.949 . S
C228 C236 1.574 . S
C228 C244 1.368 . S
H229 C237 0.950 . S
H230 C235 0.950 . S
H231 C236 0.949 . S
H232 C238 0.950 . S
H233 C239 0.950 . S
H234 C240 0.949 . S
C235 H230 0.950 . S
C235 C237 1.327 . S
C235 C241 1.429 . S
C236 C228 1.574 . S
C236 H231 0.949 . S
C236 C242 1.368 . S
C237 C221 1.349 . S
C237 H229 0.950 . S
C237 C235 1.327 . S
C238 C226 1.349 . S
C238 H232 0.950 . S
C238 C239 1.327 . S
C239 H233 0.950 . S
C239 C238 1.327 . S
C239 C243 1.429 . S
C240 C223 1.574 . S
C240 H234 0.949 . S
C240 C244 1.368 . S
C241 C222 1.429 . S
C241 C235 1.429 . S
C241 C242 1.523 . S
C242 C223 1.368 . S
C242 C236 1.368 . S
C242 C241 1.523 . S
C243 C227 1.429 . S
C243 C239 1.429 . S
C243 C244 1.523 . S
C244 C228 1.368 . S
C244 C240 1.368 . S
C244 C243 1.523 . S
H245 C220 0.950 . S
H246 C222 0.950 . S
H247 C223 0.949 . S
H248 C225 0.950 . S
H249 C227 0.950 . S
C250 C251 1.349 . S
C250 C252 1.327 . S
C250 H275 0.950 . S
C251 C250 1.349 . S
C251 C267 1.349 . S
C252 C250 1.327 . S
C252 C271 1.429 . S
C252 H276 0.950 . S
C253 C270 1.574 . S
C253 C272 1.368 . S
C253 H277 0.949 . S
H254 C258 0.949 . S
C255 C256 1.349 . S
C255 C257 1.327 . S
C255 H278 0.950 . S
C256 C255 1.349 . S
C256 C268 1.349 . S
C257 C255 1.327 . S
C257 C273 1.429 . S
C257 H279 0.950 . S
C258 H254 0.949 . S
C258 C266 1.574 . S
C258 C274 1.368 . S
H259 C267 0.950 . S
H260 C265 0.950 . S
H261 C266 0.949 . S
H262 C268 0.950 . S
H263 C269 0.950 . S
H264 C270 0.949 . S
C265 H260 0.950 . S
C265 C267 1.327 . S
C265 C271 1.429 . S
C266 C258 1.574 . S
C266 H261 0.949 . S
C266 C272 1.368 . S
C267 C251 1.349 . S
C267 H259 0.950 . S
C267 C265 1.327 . S
C268 C256 1.349 . S
C268 H262 0.950 . S
C268 C269 1.327 . S
C269 H263 0.950 . S
C269 C268 1.327 . S
C269 C273 1.429 . S
C270 C253 1.574 . S
C270 H264 0.949 . S
C270 C274 1.368 . S
C271 C252 1.429 . S
C271 C265 1.429 . S
C271 C272 1.523 . S
C272 C253 1.368 . S
C272 C266 1.368 . S
C272 C271 1.523 . S
C273 C257 1.429 . S
C273 C269 1.429 . S
C273 C274 1.523 . S
C274 C258 1.368 . S
C274 C270 1.368 . S
C274 C273 1.523 . S
H275 C250 0.950 . S
H276 C252 0.950 . S
H277 C253 0.949 . S
H278 C255 0.950 . S
H279 C257 0.950 . S
C280 C281 1.349 . S
C280 C282 1.327 . S
C280 H305 0.950 . S
C281 C280 1.349 . S
C281 C297 1.349 . S
C282 C280 1.327 . S
C282 C301 1.429 . S
C282 H306 0.950 . S
C283 C300 1.574 . S
C283 C302 1.368 . S
C283 H307 0.949 . S
H284 C288 0.949 . S
C285 C286 1.349 . S
C285 C287 1.327 . S
C285 H308 0.950 . S
C286 C285 1.349 . S
C286 C298 1.349 . S
C287 C285 1.327 . S
C287 C303 1.429 . S
C287 H309 0.950 . S
C288 H284 0.949 . S
C288 C296 1.574 . S
C288 C304 1.368 . S
H289 C297 0.950 . S
H290 C295 0.950 . S
H291 C296 0.949 . S
H292 C298 0.950 . S
H293 C299 0.950 . S
H294 C300 0.949 . S
C295 H290 0.950 . S
C295 C297 1.327 . S
C295 C301 1.429 . S
C296 C288 1.574 . S
C296 H291 0.949 . S
C296 C302 1.368 . S
C297 C281 1.349 . S
C297 H289 0.950 . S
C297 C295 1.327 . S
C298 C286 1.349 . S
C298 H292 0.950 . S
C298 C299 1.327 . S
C299 H293 0.950 . S
C299 C298 1.327 . S
C299 C303 1.429 . S
C300 C283 1.574 . S
C300 H294 0.949 . S
C300 C304 1.368 . S
C301 C282 1.429 . S
C301 C295 1.429 . S
C301 C302 1.523 . S
C302 C283 1.368 . S
C302 C296 1.368 . S
C302 C301 1.523 . S
C303 C287 1.429 . S
C303 C299 1.429 . S
C303 C304 1.523 . S
C304 C288 1.368 . S
C304 C300 1.368 . S
C304 C303 1.523 . S
H305 C280 0.950 . S
H306 C282 0.950 . S
H307 C283 0.949 . S
H308 C285 0.950 . S
H309 C287 0.950 . S
C310 C311 1.349 . S
C310 C312 1.327 . S
C310 H335 0.950 . S
C311 C310 1.349 . S
C311 C327 1.349 . S
C312 C310 1.327 . S
C312 C331 1.429 . S
C312 H336 0.950 . S
C313 C330 1.574 . S
C313 C332 1.368 . S
C313 H337 0.949 . S
H314 C318 0.949 . S
C315 C316 1.349 . S
C315 C317 1.327 . S
C315 H338 0.950 . S
C316 C315 1.349 . S
C316 C328 1.349 . S
C317 C315 1.327 . S
C317 C333 1.429 . S
C317 H339 0.950 . S
C318 H314 0.949 . S
C318 C326 1.574 . S
C318 C334 1.368 . S
H319 C327 0.950 . S
H320 C325 0.950 . S
H321 C326 0.949 . S
H322 C328 0.950 . S
H323 C329 0.950 . S
H324 C330 0.949 . S
C325 H320 0.950 . S
C325 C327 1.327 . S
C325 C331 1.429 . S
C326 C318 1.574 . S
C326 H321 0.949 . S
C326 C332 1.368 . S
C327 C311 1.349 . S
C327 H319 0.950 . S
C327 C325 1.327 . S
C328 C316 1.349 . S
C328 H322 0.950 . S
C328 C329 1.327 . S
C329 H323 0.950 . S
C329 C328 1.327 . S
C329 C333 1.429 . S
C330 C313 1.574 . S
C330 H324 0.949 . S
C330 C334 1.368 . S
C331 C312 1.429 . S
C331 C325 1.429 . S
C331 C332 1.523 . S
C332 C313 1.368 . S
C332 C326 1.368 . S
C332 C331 1.523 . S
C333 C317 1.429 . S
C333 C329 1.429 . S
C333 C334 1.523 . S
C334 C318 1.368 . S
C334 C330 1.368 . S
C334 C333 1.523 . S
H335 C310 0.950 . S
H336 C312 0.950 . S
H337 C313 0.949 . S
H338 C315 0.950 . S
H339 C317 0.950 . S
C340 C341 1.349 . S
C340 C342 1.327 . S
C340 H365 0.950 . S
C341 C340 1.349 . S
C341 C357 1.349 . S
C342 C340 1.327 . S
C342 C361 1.429 . S
C342 H366 0.950 . S
C343 C360 1.574 . S
C343 C362 1.368 . S
C343 H367 0.949 . S
H344 C348 0.949 . S
C345 C346 1.349 . S
C345 C347 1.327 . S
C345 H368 0.950 1_554 S
C346 C345 1.349 . S
C346 C358 1.349 . S
C347 C345 1.327 . S
C347 C363 1.429 . S
C347 H369 0.950 . S
C348 H344 0.949 . S
C348 C356 1.574 . S
C348 C364 1.368 . S
H349 C357 0.950 . S
H350 C355 0.950 . S
H351 C356 0.949 . S
H352 C358 0.950 . S
H353 C359 0.950 . S
H354 C360 0.949 . S
C355 H350 0.950 . S
C355 C357 1.327 . S
C355 C361 1.429 . S
C356 C348 1.574 . S
C356 H351 0.949 . S
C356 C362 1.368 . S
C357 C341 1.349 . S
C357 H349 0.950 . S
C357 C355 1.327 . S
C358 C346 1.349 . S
C358 H352 0.950 . S
C358 C359 1.327 . S
C359 H353 0.950 . S
C359 C358 1.327 . S
C359 C363 1.429 . S
C360 C343 1.574 . S
C360 H354 0.949 . S
C360 C364 1.368 . S
C361 C342 1.429 . S
C361 C355 1.429 . S
C361 C362 1.523 . S
C362 C343 1.368 . S
C362 C356 1.368 . S
C362 C361 1.523 . S
C363 C347 1.429 . S
C363 C359 1.429 . S
C363 C364 1.523 . S
C364 C348 1.368 . S
C364 C360 1.368 . S
C364 C363 1.523 . S
H365 C340 0.950 . S
H366 C342 0.950 . S
H367 C343 0.949 . S
H368 C345 0.950 1_556 S
H369 C347 0.950 . S
C370 C371 1.349 . S
C370 C372 1.327 . S
C370 H395 0.950 . S
C371 C370 1.349 . S
C371 C387 1.349 . S
C372 C370 1.327 . S
C372 C391 1.429 . S
C372 H396 0.950 . S
C373 C390 1.574 . S
C373 C392 1.368 . S
C373 H397 0.949 . S
H374 C378 0.949 . S
C375 C376 1.349 . S
C375 C377 1.327 . S
C375 H398 0.950 1_556 S
C376 C375 1.349 . S
C376 C388 1.349 . S
C377 C375 1.327 . S
C377 C393 1.429 . S
C377 H399 0.953 . S
C378 H374 0.949 . S
C378 C386 1.574 . S
C378 C394 1.368 . S
H379 C387 0.950 . S
H380 C385 0.950 . S
H381 C386 0.949 . S
H382 C388 0.950 . S
H383 C389 0.950 . S
H384 C390 0.949 . S
C385 H380 0.950 . S
C385 C387 1.327 . S
C385 C391 1.429 . S
C386 C378 1.574 . S
C386 H381 0.949 . S
C386 C392 1.368 . S
C387 C371 1.349 . S
C387 H379 0.950 . S
C387 C385 1.327 . S
C388 C376 1.349 . S
C388 H382 0.950 . S
C388 C389 1.327 . S
C389 H383 0.950 . S
C389 C388 1.327 . S
C389 C393 1.429 . S
C390 C373 1.574 . S
C390 H384 0.949 . S
C390 C394 1.368 . S
C391 C372 1.429 . S
C391 C385 1.429 . S
C391 C392 1.523 . S
C392 C373 1.368 . S
C392 C386 1.368 . S
C392 C391 1.523 . S
C393 C377 1.429 . S
C393 C389 1.429 . S
C393 C394 1.523 . S
C394 C378 1.368 . S
C394 C390 1.368 . S
C394 C393 1.523 . S
H395 C370 0.950 . S
H396 C372 0.950 . S
H397 C373 0.949 . S
H398 C375 0.950 1_554 S
H399 C377 0.953 . S
C400 C401 1.349 . S
C400 C402 1.327 . S
C400 H425 0.950 . S
C401 C400 1.349 . S
C401 C417 1.349 . S
C402 C400 1.327 . S
C402 C421 1.429 . S
C402 H426 0.950 . S
C403 C420 1.574 . S
C403 C422 1.368 . S
C403 H427 0.949 . S
H404 C408 0.949 . S
C405 C406 1.349 . S
C405 C407 1.327 . S
C405 H428 0.950 . S
C406 C405 1.349 . S
C406 C418 1.349 . S
C407 C405 1.327 . S
C407 C423 1.429 . S
C407 H429 0.950 . S
C408 H404 0.949 . S
C408 C416 1.574 . S
C408 C424 1.368 . S
H409 C417 0.950 . S
H410 C415 0.950 . S
H411 C416 0.949 . S
H412 C418 0.950 . S
H413 C419 0.950 . S
H414 C420 0.949 . S
C415 H410 0.950 . S
C415 C417 1.327 . S
C415 C421 1.429 . S
C416 C408 1.574 . S
C416 H411 0.949 . S
C416 C422 1.368 . S
C417 C401 1.349 . S
C417 H409 0.950 . S
C417 C415 1.327 . S
C418 C406 1.349 . S
C418 H412 0.950 . S
C418 C419 1.327 . S
C419 H413 0.950 . S
C419 C418 1.327 . S
C419 C423 1.429 . S
C420 C403 1.574 . S
C420 H414 0.949 . S
C420 C424 1.368 . S
C421 C402 1.429 . S
C421 C415 1.429 . S
C421 C422 1.523 . S
C422 C403 1.368 . S
C422 C416 1.368 . S
C422 C421 1.523 . S
C423 C407 1.429 . S
C423 C419 1.429 . S
C423 C424 1.523 . S
C424 C408 1.368 . S
C424 C420 1.368 . S
C424 C423 1.523 . S
H425 C400 0.950 . S
H426 C402 0.950 . S
H427 C403 0.949 . S
H428 C405 0.950 . S
H429 C407 0.950 . S
C430 C431 1.349 . S
C430 C432 1.327 . S
C430 H455 0.950 . S
C431 C430 1.349 . S
C431 C447 1.349 . S
C432 C430 1.327 . S
C432 C451 1.429 . S
C432 H456 0.950 . S
C433 C450 1.574 . S
C433 C452 1.368 . S
C433 H457 0.949 . S
H434 C438 0.949 . S
C435 C436 1.349 . S
C435 C437 1.327 . S
C435 H458 0.950 . S
C436 C435 1.349 . S
C436 C448 1.349 . S
C437 C435 1.327 . S
C437 C453 1.429 . S
C437 H459 0.950 . S
C438 H434 0.949 . S
C438 C446 1.574 . S
C438 C454 1.368 . S
H439 C447 0.950 . S
H440 C445 0.950 . S
H441 C446 0.949 . S
H442 C448 0.950 . S
H443 C449 0.950 . S
H444 C450 0.949 . S
C445 H440 0.950 . S
C445 C447 1.327 . S
C445 C451 1.429 . S
C446 C438 1.574 . S
C446 H441 0.949 . S
C446 C452 1.368 . S
C447 C431 1.349 . S
C447 H439 0.950 . S
C447 C445 1.327 . S
C448 C436 1.349 . S
C448 H442 0.950 . S
C448 C449 1.327 . S
C449 H443 0.950 . S
C449 C448 1.327 . S
C449 C453 1.429 . S
C450 C433 1.574 . S
C450 H444 0.949 . S
C450 C454 1.368 . S
C451 C432 1.429 . S
C451 C445 1.429 . S
C451 C452 1.523 . S
C452 C433 1.368 . S
C452 C446 1.368 . S
C452 C451 1.523 . S
C453 C437 1.429 . S
C453 C449 1.429 . S
C453 C454 1.523 . S
C454 C438 1.368 . S
C454 C450 1.368 . S
C454 C453 1.523 . S
H455 C430 0.950 . S
H456 C432 0.950 . S
H457 C433 0.949 . S
H458 C435 0.950 . S
H459 C437 0.950 . S
C460 C461 1.349 . S
C460 C462 1.327 . S
C460 H485 0.950 . S
C461 C460 1.349 . S
C461 C477 1.349 . S
C462 C460 1.327 . S
C462 C481 1.429 . S
C462 H486 0.950 . S
C463 C480 1.574 . S
C463 C482 1.368 . S
C463 H487 0.949 . S
H464 C468 0.949 . S
C465 C466 1.349 . S
C465 C467 1.327 . S
C465 H488 0.950 . S
C466 C465 1.349 . S
C466 C478 1.349 . S
C467 C465 1.327 . S
C467 C483 1.429 . S
C467 H489 0.950 . S
C468 H464 0.949 . S
C468 C476 1.574 . S
C468 C484 1.368 . S
H469 C477 0.950 . S
H470 C475 0.950 . S
H471 C476 0.949 . S
H472 C478 0.950 . S
H473 C479 0.950 . S
H474 C480 0.949 . S
C475 H470 0.950 . S
C475 C477 1.327 . S
C475 C481 1.429 . S
C476 C468 1.574 . S
C476 H471 0.949 . S
C476 C482 1.368 . S
C477 C461 1.349 . S
C477 H469 0.950 . S
C477 C475 1.327 . S
C478 C466 1.349 . S
C478 H472 0.950 . S
C478 C479 1.327 . S
C479 H473 0.950 . S
C479 C478 1.327 . S
C479 C483 1.429 . S
C480 C463 1.574 . S
C480 H474 0.949 . S
C480 C484 1.368 . S
C481 C462 1.429 . S
C481 C475 1.429 . S
C481 C482 1.523 . S
C482 C463 1.368 . S
C482 C476 1.368 . S
C482 C481 1.523 . S
C483 C467 1.429 . S
C483 C479 1.429 . S
C483 C484 1.523 . S
C484 C468 1.368 . S
C484 C480 1.368 . S
C484 C483 1.523 . S
H485 C460 0.950 . S
H486 C462 0.950 . S
H487 C463 0.949 . S
H488 C465 0.950 . S
H489 C467 0.950 . S
C490 C491 1.349 . S
C490 C492 1.327 . S
C490 H515 0.950 . S
C491 C490 1.349 . S
C491 C507 1.349 . S
C492 C490 1.327 . S
C492 C511 1.429 . S
C492 H516 0.950 . S
C493 C510 1.574 . S
C493 C512 1.368 . S
C493 H517 0.949 . S
H494 C498 0.949 . S
C495 C496 1.349 . S
C495 C497 1.327 . S
C495 H518 0.950 . S
C496 C495 1.349 . S
C496 C508 1.349 . S
C497 C495 1.327 . S
C497 C513 1.429 . S
C497 H519 0.950 . S
C498 H494 0.949 . S
C498 C506 1.574 . S
C498 C514 1.368 . S
H499 C507 0.950 . S
H500 C505 0.950 . S
H501 C506 0.949 . S
H502 C508 0.950 . S
H503 C509 0.950 . S
H504 C510 0.949 . S
C505 H500 0.950 . S
C505 C507 1.327 . S
C505 C511 1.429 . S
C506 C498 1.574 . S
C506 H501 0.949 . S
C506 C512 1.368 . S
C507 C491 1.349 . S
C507 H499 0.950 . S
C507 C505 1.327 . S
C508 C496 1.349 . S
C508 H502 0.950 . S
C508 C509 1.327 . S
C509 H503 0.950 . S
C509 C508 1.327 . S
C509 C513 1.429 . S
C510 C493 1.574 . S
C510 H504 0.949 . S
C510 C514 1.368 . S
C511 C492 1.429 . S
C511 C505 1.429 . S
C511 C512 1.523 . S
C512 C493 1.368 . S
C512 C506 1.368 . S
C512 C511 1.523 . S
C513 C497 1.429 . S
C513 C509 1.429 . S
C513 C514 1.523 . S
C514 C498 1.368 . S
C514 C510 1.368 . S
C514 C513 1.523 . S
H515 C490 0.950 . S
H516 C492 0.950 . S
H517 C493 0.949 . S
H518 C495 0.950 . S
H519 C497 0.950 . S
C520 C521 1.349 . S
C520 C522 1.327 . S
C520 H545 0.950 . S
C521 C520 1.349 . S
C521 C537 1.349 . S
C522 C520 1.327 . S
C522 C541 1.429 . S
C522 H546 0.950 . S
C523 C540 1.574 . S
C523 C542 1.368 . S
C523 H547 0.949 . S
H524 C528 0.949 . S
C525 C526 1.349 . S
C525 C527 1.327 . S
C525 H548 0.950 . S
C526 C525 1.349 . S
C526 C538 1.349 1_554 S
C527 C525 1.327 . S
C527 C543 1.429 . S
C527 H549 0.950 . S
C528 H524 0.949 . S
C528 C536 1.574 . S
C528 C544 1.368 . S
H529 C537 0.950 . S
H530 C535 0.950 . S
H531 C536 0.949 . S
H532 C538 0.950 . S
H533 C539 0.950 1_556 S
H534 C540 0.949 . S
C535 H530 0.950 . S
C535 C537 1.327 . S
C535 C541 1.429 . S
C536 C528 1.574 . S
C536 H531 0.949 . S
C536 C542 1.368 . S
C537 C521 1.349 . S
C537 H529 0.950 . S
C537 C535 1.327 . S
C538 C526 1.349 1_556 S
C538 H532 0.950 . S
C538 C539 1.327 1_556 S
C539 H533 0.950 1_554 S
C539 C538 1.327 1_554 S
C539 C543 1.429 . S
C540 C523 1.574 . S
C540 H534 0.949 . S
C540 C544 1.368 . S
C541 C522 1.429 . S
C541 C535 1.429 . S
C541 C542 1.523 . S
C542 C523 1.368 . S
C542 C536 1.368 . S
C542 C541 1.523 . S
C543 C527 1.429 . S
C543 C539 1.429 . S
C543 C544 1.523 . S
C544 C528 1.368 . S
C544 C540 1.368 . S
C544 C543 1.523 . S
H545 C520 0.950 . S
H546 C522 0.950 . S
H547 C523 0.949 . S
H548 C525 0.950 . S
H549 C527 0.950 . S
C550 C551 1.349 . S
C550 C552 1.327 . S
C550 H575 0.950 . S
C551 C550 1.349 . S
C551 C567 1.349 . S
C552 C550 1.327 . S
C552 C571 1.429 . S
C552 H576 0.950 . S
C553 C570 1.574 . S
C553 C572 1.368 . S
C553 H577 0.949 . S
H554 C558 0.949 . S
C555 C556 1.349 . S
C555 C557 1.327 . S
C555 H578 0.950 . S
C556 C555 1.349 . S
C556 C568 1.349 . S
C557 C555 1.327 . S
C557 C573 1.429 . S
C557 H579 0.950 . S
C558 H554 0.949 . S
C558 C566 1.574 . S
C558 C574 1.368 . S
H559 C567 0.950 . S
H560 C565 0.950 . S
H561 C566 0.949 . S
H562 C568 0.950 . S
H563 C569 0.950 . S
H564 C570 0.949 . S
C565 H560 0.950 . S
C565 C567 1.327 . S
C565 C571 1.429 . S
C566 C558 1.574 . S
C566 H561 0.949 . S
C566 C572 1.368 . S
C567 C551 1.349 . S
C567 H559 0.950 . S
C567 C565 1.327 . S
C568 C556 1.349 . S
C568 H562 0.950 . S
C568 C569 1.327 . S
C569 H563 0.950 . S
C569 C568 1.327 . S
C569 C573 1.429 . S
C570 C553 1.574 . S
C570 H564 0.949 . S
C570 C574 1.368 . S
C571 C552 1.429 . S
C571 C565 1.429 . S
C571 C572 1.523 . S
C572 C553 1.368 . S
C572 C566 1.368 . S
C572 C571 1.523 . S
C573 C557 1.429 . S
C573 C569 1.429 . S
C573 C574 1.523 . S
C574 C558 1.368 . S
C574 C570 1.368 . S
C574 C573 1.523 . S
H575 C550 0.950 . S
H576 C552 0.950 . S
H577 C553 0.949 . S
H578 C555 0.950 . S
H579 C557 0.950 . S
C580 C581 1.349 . S
C580 C582 1.327 . S
C580 H605 0.950 . S
C581 C580 1.349 . S
C581 C597 1.349 . S
C582 C580 1.327 . S
C582 C601 1.429 . S
C582 H606 0.950 . S
C583 C600 1.574 . S
C583 C602 1.368 . S
C583 H607 0.949 . S
H584 C588 0.949 . S
C585 C586 1.349 . S
C585 C587 1.327 . S
C585 H608 0.950 . S
C586 C585 1.349 . S
C586 C598 1.349 . S
C587 C585 1.327 . S
C587 C603 1.429 . S
C587 H609 0.950 . S
C588 H584 0.949 . S
C588 C596 1.574 . S
C588 C604 1.368 . S
H589 C597 0.950 . S
H590 C595 0.950 . S
H591 C596 0.949 . S
H592 C598 0.950 . S
H593 C599 0.950 . S
H594 C600 0.949 . S
C595 H590 0.950 . S
C595 C597 1.327 . S
C595 C601 1.429 . S
C596 C588 1.574 . S
C596 H591 0.949 . S
C596 C602 1.368 . S
C597 C581 1.349 . S
C597 H589 0.950 . S
C597 C595 1.327 . S
C598 C586 1.349 . S
C598 H592 0.950 . S
C598 C599 1.327 . S
C599 H593 0.950 . S
C599 C598 1.327 . S
C599 C603 1.429 . S
C600 C583 1.574 . S
C600 H594 0.949 . S
C600 C604 1.368 . S
C601 C582 1.429 . S
C601 C595 1.429 . S
C601 C602 1.523 . S
C602 C583 1.368 . S
C602 C596 1.368 . S
C602 C601 1.523 . S
C603 C587 1.429 . S
C603 C599 1.429 . S
C603 C604 1.523 . S
C604 C588 1.368 . S
C604 C600 1.368 . S
C604 C603 1.523 . S
H605 C580 0.950 . S
H606 C582 0.950 . S
H607 C583 0.949 . S
H608 C585 0.950 . S
H609 C587 0.950 . S
C610 C611 1.349 . S
C610 C612 1.327 . S
C610 H635 0.950 . S
C611 C610 1.349 . S
C611 C627 1.349 . S
C612 C610 1.327 . S
C612 C631 1.429 . S
C612 H636 0.950 . S
C613 C630 1.574 . S
C613 C632 1.368 . S
C613 H637 0.949 . S
H614 C618 0.949 . S
C615 C616 1.349 . S
C615 C617 1.327 . S
C615 H638 0.950 . S
C616 C615 1.349 . S
C616 C628 1.349 . S
C617 C615 1.327 . S
C617 C633 1.429 . S
C617 H639 0.950 . S
C618 H614 0.949 . S
C618 C626 1.574 . S
C618 C634 1.368 . S
H619 C627 0.950 . S
H620 C625 0.950 . S
H621 C626 0.949 . S
H622 C628 0.950 . S
H623 C629 0.950 . S
H624 C630 0.949 . S
C625 H620 0.950 . S
C625 C627 1.327 . S
C625 C631 1.429 . S
C626 C618 1.574 . S
C626 H621 0.949 . S
C626 C632 1.368 . S
C627 C611 1.349 . S
C627 H619 0.950 . S
C627 C625 1.327 . S
C628 C616 1.349 . S
C628 H622 0.950 . S
C628 C629 1.327 . S
C629 H623 0.950 . S
C629 C628 1.327 . S
C629 C633 1.429 . S
C630 C613 1.574 . S
C630 H624 0.949 . S
C630 C634 1.368 . S
C631 C612 1.429 . S
C631 C625 1.429 . S
C631 C632 1.523 . S
C632 C613 1.368 . S
C632 C626 1.368 . S
C632 C631 1.523 . S
C633 C617 1.429 . S
C633 C629 1.429 . S
C633 C634 1.523 . S
C634 C618 1.368 . S
C634 C630 1.368 . S
C634 C633 1.523 . S
H635 C610 0.950 . S
H636 C612 0.950 . S
H637 C613 0.949 . S
H638 C615 0.950 . S
H639 C617 0.950 . S
C640 C641 1.349 1_665 S
C640 C642 1.327 . S
C640 H665 0.950 . S
C641 C640 1.349 1_445 S
C641 C657 1.349 . S
C642 C640 1.327 . S
C642 C661 1.429 1_665 S
C642 H666 0.950 . S
C643 C660 1.574 1_556 S
C643 C662 1.412 . S
C643 H667 0.949 . S
H644 C648 0.949 . S
C645 C646 1.349 1_445 S
C645 C647 1.327 . S
C645 H668 0.950 . S
C646 C645 1.349 1_665 S
C646 C658 1.349 . S
C647 C645 1.327 . S
C647 C663 1.429 1_445 S
C647 H669 0.950 . S
C648 H644 0.949 . S
C648 C656 1.574 1_554 S
C648 C664 1.397 . S
H649 C657 0.950 . S
H650 C655 0.950 . S
H651 C656 0.949 . S
H652 C658 0.950 . S
H653 C659 0.950 . S
H654 C660 0.949 . S
C655 H650 0.950 . S
C655 C657 1.327 . S
C655 C661 1.429 . S
C656 C648 1.574 1_556 S
C656 H651 0.949 . S
C656 C662 1.324 1_665 S
C657 C641 1.349 . S
C657 H649 0.950 . S
C657 C655 1.327 . S
C658 C646 1.349 . S
C658 H652 0.950 . S
C658 C659 1.327 . S
C659 H653 0.950 . S
C659 C658 1.327 . S
C659 C663 1.429 . S
C660 C643 1.574 1_554 S
C660 H654 0.949 . S
C660 C664 1.339 1_445 S
C661 C642 1.429 1_445 S
C661 C655 1.429 . S
C661 C662 1.526 . S
C662 C643 1.412 . S
C662 C656 1.324 1_445 S
C662 C661 1.526 . S
C663 C647 1.429 1_665 S
C663 C659 1.429 . S
C663 C664 1.524 . S
C664 C648 1.397 . S
C664 C660 1.339 1_665 S
C664 C663 1.524 . S
H665 C640 0.950 . S
H666 C642 0.950 . S
H667 C643 0.949 . S
H668 C645 0.950 . S
H669 C647 0.950 . S
C670 C671 1.349 . S
C670 C672 1.327 . S
C670 H695 0.950 . S
C671 C670 1.349 . S
C671 C687 1.349 . S
C672 C670 1.327 . S
C672 C691 1.429 . S
C672 H696 0.950 . S
C673 C690 1.574 . S
C673 C692 1.368 . S
C673 H697 0.949 . S
H674 C678 0.949 . S
C675 C676 1.349 . S
C675 C677 1.327 . S
C675 H698 0.950 . S
C676 C675 1.349 . S
C676 C688 1.349 . S
C677 C675 1.327 . S
C677 C693 1.429 . S
C677 H699 0.950 . S
C678 H674 0.949 . S
C678 C686 1.574 . S
C678 C694 1.368 . S
H679 C687 0.950 . S
H680 C685 0.950 . S
H681 C686 0.949 . S
H682 C688 0.950 . S
H683 C689 0.950 . S
H684 C690 0.949 . S
C685 H680 0.950 . S
C685 C687 1.327 . S
C685 C691 1.429 . S
C686 C678 1.574 . S
C686 H681 0.949 . S
C686 C692 1.368 . S
C687 C671 1.349 . S
C687 H679 0.950 . S
C687 C685 1.327 . S
C688 C676 1.349 . S
C688 H682 0.950 . S
C688 C689 1.327 . S
C689 H683 0.950 . S
C689 C688 1.327 . S
C689 C693 1.429 . S
C690 C673 1.574 . S
C690 H684 0.949 . S
C690 C694 1.368 . S
C691 C672 1.429 . S
C691 C685 1.429 . S
C691 C692 1.523 . S
C692 C673 1.368 . S
C692 C686 1.368 . S
C692 C691 1.523 . S
C693 C677 1.429 . S
C693 C689 1.429 . S
C693 C694 1.523 . S
C694 C678 1.368 . S
C694 C690 1.368 . S
C694 C693 1.523 . S
H695 C670 0.950 . S
H696 C672 0.950 . S
H697 C673 0.949 . S
H698 C675 0.950 . S
H699 C677 0.950 . S
C700 C701 1.349 1_545 S
C700 C702 1.327 . S
C700 H725 0.950 . S
C701 C700 1.349 1_565 S
C701 C717 1.349 . S
C702 C700 1.327 . S
C702 C721 1.429 1_545 S
C702 H726 0.950 . S
C703 C720 1.574 . S
C703 C722 1.368 . S
C703 H727 0.949 . S
H704 C708 0.949 . S
C705 C706 1.349 1_565 S
C705 C707 1.327 . S
C705 H728 0.950 . S
C706 C705 1.349 1_545 S
C706 C718 1.349 . S
C707 C705 1.327 . S
C707 C723 1.429 1_565 S
C707 H729 0.950 . S
C708 H704 0.949 . S
C708 C716 1.574 . S
C708 C724 1.368 . S
H709 C717 0.950 . S
H710 C715 0.950 . S
H711 C716 0.949 . S
H712 C718 0.950 . S
H713 C719 0.950 . S
H714 C720 0.949 . S
C715 H710 0.950 . S
C715 C717 1.327 . S
C715 C721 1.429 . S
C716 C708 1.574 . S
C716 H711 0.949 . S
C716 C722 1.368 1_545 S
C717 C701 1.349 . S
C717 H709 0.950 . S
C717 C715 1.327 . S
C718 C706 1.349 . S
C718 H712 0.950 . S
C718 C719 1.327 . S
C719 H713 0.950 . S
C719 C718 1.327 . S
C719 C723 1.429 . S
C720 C703 1.574 . S
C720 H714 0.949 . S
C720 C724 1.368 1_565 S
C721 C702 1.429 1_565 S
C721 C715 1.429 . S
C721 C722 1.523 . S
C722 C703 1.368 . S
C722 C716 1.368 1_565 S
C722 C721 1.523 . S
C723 C707 1.429 1_545 S
C723 C719 1.429 . S
C723 C724 1.523 . S
C724 C708 1.368 . S
C724 C720 1.368 1_545 S
C724 C723 1.523 . S
H725 C700 0.950 . S
H726 C702 0.950 . S
H727 C703 0.949 . S
H728 C705 0.950 . S
H729 C707 0.950 . S
C730 C731 1.349 . S
C730 C732 1.327 . S
C730 H755 0.950 . S
C731 C730 1.349 . S
C731 C747 1.349 . S
C732 C730 1.327 . S
C732 C751 1.429 . S
C732 H756 0.950 . S
C733 C750 1.574 . S
C733 C752 1.368 . S
C733 H757 0.949 . S
H734 C738 0.949 . S
C735 C736 1.349 . S
C735 C737 1.327 . S
C735 H758 0.950 . S
C736 C735 1.349 . S
C736 C748 1.349 . S
C737 C735 1.327 . S
C737 C753 1.429 . S
C737 H759 0.950 . S
C738 H734 0.949 . S
C738 C746 1.574 . S
C738 C754 1.368 . S
H739 C747 0.950 . S
H740 C745 0.950 . S
H741 C746 0.949 . S
H742 C748 0.950 . S
H743 C749 0.950 . S
H744 C750 0.949 . S
C745 H740 0.950 . S
C745 C747 1.327 . S
C745 C751 1.429 . S
C746 C738 1.574 . S
C746 H741 0.949 . S
C746 C752 1.368 . S
C747 C731 1.349 . S
C747 H739 0.950 . S
C747 C745 1.327 . S
C748 C736 1.349 . S
C748 H742 0.950 . S
C748 C749 1.327 . S
C749 H743 0.950 . S
C749 C748 1.327 . S
C749 C753 1.429 . S
C750 C733 1.574 . S
C750 H744 0.949 . S
C750 C754 1.368 . S
C751 C732 1.429 . S
C751 C745 1.429 . S
C751 C752 1.523 . S
C752 C733 1.368 . S
C752 C746 1.368 . S
C752 C751 1.523 . S
C753 C737 1.429 . S
C753 C749 1.429 . S
C753 C754 1.523 . S
C754 C738 1.368 . S
C754 C750 1.368 . S
C754 C753 1.523 . S
H755 C730 0.950 . S
H756 C732 0.950 . S
H757 C733 0.949 . S
H758 C735 0.950 . S
H759 C737 0.950 . S
C760 C761 1.349 . S
C760 C762 1.327 . S
C760 H785 0.950 . S
C761 C760 1.349 . S
C761 C777 1.349 . S
C762 C760 1.327 . S
C762 C781 1.429 . S
C762 H786 0.950 . S
C763 C780 1.574 . S
C763 C782 1.368 . S
C763 H787 0.949 . S
H764 C768 0.949 . S
C765 C766 1.349 . S
C765 C767 1.327 . S
C765 H788 0.950 . S
C766 C765 1.349 . S
C766 C778 1.349 . S
C767 C765 1.327 . S
C767 C783 1.429 . S
C767 H789 0.950 . S
C768 H764 0.949 . S
C768 C776 1.574 . S
C768 C784 1.368 . S
H769 C777 0.950 . S
H770 C775 0.950 . S
H771 C776 0.949 . S
H772 C778 0.950 . S
H773 C779 0.950 . S
H774 C780 0.949 . S
C775 H770 0.950 . S
C775 C777 1.327 . S
C775 C781 1.429 . S
C776 C768 1.574 . S
C776 H771 0.949 . S
C776 C782 1.368 . S
C777 C761 1.349 . S
C777 H769 0.950 . S
C777 C775 1.327 . S
C778 C766 1.349 . S
C778 H772 0.950 . S
C778 C779 1.327 . S
C779 H773 0.950 . S
C779 C778 1.327 . S
C779 C783 1.429 . S
C780 C763 1.574 . S
C780 H774 0.949 . S
C780 C784 1.368 . S
C781 C762 1.429 . S
C781 C775 1.429 . S
C781 C782 1.523 . S
C782 C763 1.368 . S
C782 C776 1.368 . S
C782 C781 1.523 . S
C783 C767 1.429 . S
C783 C779 1.429 . S
C783 C784 1.523 . S
C784 C768 1.368 . S
C784 C780 1.368 . S
C784 C783 1.523 . S
H785 C760 0.950 . S
H786 C762 0.950 . S
H787 C763 0.949 . S
H788 C765 0.950 . S
H789 C767 0.950 . S
C790 C791 1.349 . S
C790 C792 1.327 . S
C790 H815 0.950 . S
C791 C790 1.349 . S
C791 C807 1.349 . S
C792 C790 1.327 . S
C792 C811 1.429 . S
C792 H816 0.950 . S
C793 C810 1.574 . S
C793 C812 1.368 . S
C793 H817 0.949 . S
H794 C798 0.949 . S
C795 C796 1.349 . S
C795 C797 1.327 . S
C795 H818 0.950 . S
C796 C795 1.349 . S
C796 C808 1.349 . S
C797 C795 1.327 . S
C797 C813 1.429 . S
C797 H819 0.950 . S
C798 H794 0.949 . S
C798 C806 1.574 . S
C798 C814 1.368 . S
H799 C807 0.950 . S
H800 C805 0.950 . S
H801 C806 0.949 . S
H802 C808 0.950 . S
H803 C809 0.950 . S
H804 C810 0.949 . S
C805 H800 0.950 . S
C805 C807 1.327 . S
C805 C811 1.429 . S
C806 C798 1.574 . S
C806 H801 0.949 . S
C806 C812 1.368 . S
C807 C791 1.349 . S
C807 H799 0.950 . S
C807 C805 1.327 . S
C808 C796 1.349 . S
C808 H802 0.950 . S
C808 C809 1.327 . S
C809 H803 0.950 . S
C809 C808 1.327 . S
C809 C813 1.429 . S
C810 C793 1.574 . S
C810 H804 0.949 . S
C810 C814 1.368 . S
C811 C792 1.429 . S
C811 C805 1.429 . S
C811 C812 1.523 . S
C812 C793 1.368 . S
C812 C806 1.368 . S
C812 C811 1.523 . S
C813 C797 1.429 . S
C813 C809 1.429 . S
C813 C814 1.523 . S
C814 C798 1.368 . S
C814 C810 1.368 . S
C814 C813 1.523 . S
H815 C790 0.950 . S
H816 C792 0.950 . S
H817 C793 0.949 . S
H818 C795 0.950 . S
H819 C797 0.950 . S
C820 C821 1.349 . S
C820 C822 1.327 . S
C820 H845 0.950 . S
C821 C820 1.349 . S
C821 C837 1.349 . S
C822 C820 1.327 . S
C822 C841 1.429 . S
C822 H846 0.950 . S
C823 C840 1.574 . S
C823 C842 1.368 . S
C823 H847 0.949 . S
H824 C828 0.949 . S
C825 C826 1.349 . S
C825 C827 1.327 . S
C825 H848 0.950 . S
C826 C825 1.349 . S
C826 C838 1.349 . S
C827 C825 1.327 . S
C827 C843 1.429 . S
C827 H849 0.950 . S
C828 H824 0.949 . S
C828 C836 1.574 . S
C828 C844 1.368 . S
H829 C837 0.950 . S
H830 C835 0.950 . S
H831 C836 0.949 . S
H832 C838 0.950 . S
H833 C839 0.950 . S
H834 C840 0.949 . S
C835 H830 0.950 . S
C835 C837 1.327 . S
C835 C841 1.429 . S
C836 C828 1.574 . S
C836 H831 0.949 . S
C836 C842 1.368 . S
C837 C821 1.349 . S
C837 H829 0.950 . S
C837 C835 1.327 . S
C838 C826 1.349 . S
C838 H832 0.950 . S
C838 C839 1.327 . S
C839 H833 0.950 . S
C839 C838 1.327 . S
C839 C843 1.429 . S
C840 C823 1.574 . S
C840 H834 0.949 . S
C840 C844 1.368 . S
C841 C822 1.429 . S
C841 C835 1.429 . S
C841 C842 1.523 . S
C842 C823 1.368 . S
C842 C836 1.368 . S
C842 C841 1.523 . S
C843 C827 1.429 . S
C843 C839 1.429 . S
C843 C844 1.523 . S
C844 C828 1.368 . S
C844 C840 1.368 . S
C844 C843 1.523 . S
H845 C820 0.950 . S
H846 C822 0.950 . S
H847 C823 0.949 . S
H848 C825 0.950 . S
H849 C827 0.950 . S
C850 C851 1.349 . S
C850 C852 1.327 . S
C850 H875 0.950 . S
C851 C850 1.349 . S
C851 C867 1.349 . S
C852 C850 1.327 . S
C852 C871 1.429 . S
C852 H876 0.950 . S
C853 C870 1.573 1_556 S
C853 C872 1.371 . S
C853 H877 0.949 . S
H854 C858 0.949 . S
C855 C856 1.349 . S
C855 C857 1.323 . S
C855 H878 0.950 . S
C856 C855 1.349 . S
C856 C868 1.349 . S
C857 C855 1.323 . S
C857 C873 1.434 . S
C857 H879 0.950 . S
C858 H854 0.949 . S
C858 C866 1.578 1_554 S
C858 C874 1.367 . S
H859 C867 0.950 . S
H860 C865 0.950 . S
H861 C866 0.949 . S
H862 C868 0.950 . S
H863 C869 0.950 . S
H864 C870 0.949 . S
C865 H860 0.950 . S
C865 C867 1.327 . S
C865 C871 1.429 . S
C866 C858 1.578 1_556 S
C866 H861 0.949 . S
C866 C872 1.369 1_655 S
C867 C851 1.349 . S
C867 H859 0.950 . S
C867 C865 1.327 . S
C868 C856 1.349 . S
C868 H862 0.950 . S
C868 C869 1.327 . S
C869 H863 0.950 . S
C869 C868 1.327 . S
C869 C873 1.429 . S
C870 C853 1.573 1_554 S
C870 H864 0.949 . S
C870 C874 1.369 1_455 S
C871 C852 1.429 . S
C871 C865 1.429 . S
C871 C872 1.520 . S
C872 C853 1.371 . S
C872 C866 1.369 1_455 S
C872 C871 1.520 . S
C873 C857 1.434 . S
C873 C869 1.429 . S
C873 C874 1.521 . S
C874 C858 1.367 . S
C874 C870 1.369 1_655 S
C874 C873 1.521 . S
H875 C850 0.950 . S
H876 C852 0.950 . S
H877 C853 0.949 . S
H878 C855 0.950 . S
H879 C857 0.950 . S
C161 C18 1.499 . S
C166 C64 1.443 . S
C191 C4 1.046 . S
C196 C24 1.042 . S
C221 C38 1.499 . S
C226 C44 1.446 . S
C251 C58 1.945 . S
C256 C78 1.944 . S
C281 C19 1.499 . S
C286 C102 1.450 . S
C311 C2 1.046 . S
C316 C82 1.049 . S
C341 C99 1.499 . S
C346 C42 1.446 . S
C371 C119 1.945 . S
C376 C59 1.945 . S
C401 C138 1.499 . S
C406 C104 1.446 . S
C431 C84 1.046 . S
C436 C124 1.046 . S
C461 C144 1.446 . S
C466 C98 1.502 . S
C491 C118 1.945 . S
C496 C158 1.947 . S
C521 C62 1.446 . S
C526 C139 1.498 . S
C551 C122 1.046 . S
C556 C22 1.046 . S
C581 C39 1.499 . S
C586 C142 1.443 . S
C611 C79 1.945 . S
C616 C159 1.942 . S
C641 C12 1.488 1_545 S
C646 C9 1.488 1_565 S
C671 C32 1.488 . S
C676 C29 1.488 1_554 S
C701 C52 1.537 . S
C706 C49 1.537 . S
C731 C69 1.537 1_556 S
C736 C72 1.537 . S
C761 C92 1.488 1_556 S
C766 C89 1.488 . S
C791 C109 1.537 . S
C796 C112 1.537 1_554 S
C821 C129 1.488 . S
C826 C132 1.488 . S
C851 C149 1.537 . S
C856 C152 1.537 . S
