# Generated by pormake.
# Topology sxi, (6)-cn, num edge types: 1
# Building blocks:
#     Node 0, Type 0, BuildingBlock: IZENUY_clean_sbu_0, # of connection points: 6
#     Node 1, Type 0, BuildingBlock: IZENUY_clean_sbu_0, # of connection points: 6
#     Node 2, Type 0, BuildingBlock: IZENUY_clean_sbu_0, # of connection points: 6
#     Node 3, Type 0, BuildingBlock: IZENUY_clean_sbu_0, # of connection points: 6
#     Node 4, Type 0, BuildingBlock: IZENUY_clean_sbu_0, # of connection points: 6
#     Node 5, Type 0, BuildingBlock: IZENUY_clean_sbu_0, # of connection points: 6
#     Node 6, Type 0, BuildingBlock: IZENUY_clean_sbu_0, # of connection points: 6
#     Node 7, Type 0, BuildingBlock: IZENUY_clean_sbu_0, # of connection points: 6
#     Node 8, Type 0, BuildingBlock: IZENUY_clean_sbu_0, # of connection points: 6
#     Node 9, Type 0, BuildingBlock: IZENUY_clean_sbu_0, # of connection points: 6
#     Node 10, Type 0, BuildingBlock: IZENUY_clean_sbu_0, # of connection points: 6
#     Node 11, Type 0, BuildingBlock: IZENUY_clean_sbu_0, # of connection points: 6
#     Node 12, Type 0, BuildingBlock: IZENUY_clean_sbu_0, # of connection points: 6
#     Node 13, Type 0, BuildingBlock: IZENUY_clean_sbu_0, # of connection points: 6
#     Node 14, Type 0, BuildingBlock: IZENUY_clean_sbu_0, # of connection points: 6
#     Node 15, Type 0, BuildingBlock: IZENUY_clean_sbu_0, # of connection points: 6
#     Node 16, Type 0, BuildingBlock: IZENUY_clean_sbu_0, # of connection points: 6
#     Node 17, Type 0, BuildingBlock: IZENUY_clean_sbu_0, # of connection points: 6
#     Node 18, Type 0, BuildingBlock: IZENUY_clean_sbu_0, # of connection points: 6
#     Node 19, Type 0, BuildingBlock: IZENUY_clean_sbu_0, # of connection points: 6
#     Node 20, Type 0, BuildingBlock: IZENUY_clean_sbu_0, # of connection points: 6
#     Node 21, Type 0, BuildingBlock: IZENUY_clean_sbu_0, # of connection points: 6
#     Node 22, Type 0, BuildingBlock: IZENUY_clean_sbu_0, # of connection points: 6
#     Node 23, Type 0, BuildingBlock: IZENUY_clean_sbu_0, # of connection points: 6
#     Edge 24, Type (0, 0), None
#     Edge 25, Type (0, 0), None
#     Edge 26, Type (0, 0), None
#     Edge 27, Type (0, 0), None
#     Edge 28, Type (0, 0), None
#     Edge 29, Type (0, 0), None
#     Edge 30, Type (0, 0), None
#     Edge 31, Type (0, 0), None
#     Edge 32, Type (0, 0), None
#     Edge 33, Type (0, 0), None
#     Edge 34, Type (0, 0), None
#     Edge 35, Type (0, 0), None
#     Edge 36, Type (0, 0), None
#     Edge 37, Type (0, 0), None
#     Edge 38, Type (0, 0), None
#     Edge 39, Type (0, 0), None
#     Edge 40, Type (0, 0), None
#     Edge 41, Type (0, 0), None
#     Edge 42, Type (0, 0), None
#     Edge 43, Type (0, 0), None
#     Edge 44, Type (0, 0), None
#     Edge 45, Type (0, 0), None
#     Edge 46, Type (0, 0), None
#     Edge 47, Type (0, 0), None
#     Edge 48, Type (0, 0), None
#     Edge 49, Type (0, 0), None
#     Edge 50, Type (0, 0), None
#     Edge 51, Type (0, 0), None
#     Edge 52, Type (0, 0), None
#     Edge 53, Type (0, 0), None
#     Edge 54, Type (0, 0), None
#     Edge 55, Type (0, 0), None
#     Edge 56, Type (0, 0), None
#     Edge 57, Type (0, 0), None
#     Edge 58, Type (0, 0), None
#     Edge 59, Type (0, 0), None
#     Edge 60, Type (0, 0), None
#     Edge 61, Type (0, 0), None
#     Edge 62, Type (0, 0), None
#     Edge 63, Type (0, 0), None
#     Edge 64, Type (0, 0), None
#     Edge 65, Type (0, 0), None
#     Edge 66, Type (0, 0), None
#     Edge 67, Type (0, 0), None
#     Edge 68, Type (0, 0), None
#     Edge 69, Type (0, 0), None
#     Edge 70, Type (0, 0), None
#     Edge 71, Type (0, 0), None
#     Edge 72, Type (0, 0), None
#     Edge 73, Type (0, 0), None
#     Edge 74, Type (0, 0), None
#     Edge 75, Type (0, 0), None
#     Edge 76, Type (0, 0), None
#     Edge 77, Type (0, 0), None
#     Edge 78, Type (0, 0), None
#     Edge 79, Type (0, 0), None
#     Edge 80, Type (0, 0), None
#     Edge 81, Type (0, 0), None
#     Edge 82, Type (0, 0), None
#     Edge 83, Type (0, 0), None
#     Edge 84, Type (0, 0), None
#     Edge 85, Type (0, 0), None
#     Edge 86, Type (0, 0), None
#     Edge 87, Type (0, 0), None
#     Edge 88, Type (0, 0), None
#     Edge 89, Type (0, 0), None
#     Edge 90, Type (0, 0), None
#     Edge 91, Type (0, 0), None
#     Edge 92, Type (0, 0), None
#     Edge 93, Type (0, 0), None
#     Edge 94, Type (0, 0), None
#     Edge 95, Type (0, 0), None
# Relax obj value: 0.414
# Max RMSD: 0.250
# Mean RMSD: 0.250
data_MOF--net-sxi--node1-IZENUY_clean_sbu_0--edge1-none
_symmetry_space_group_name_H-M    P1
_symmetry_Int_Tables_number       1
_symmetry_cell_setting            triclinic
loop_
_symmetry_equiv_pos_as_xyz
'x, y, z'
_cell_length_a     22.117365
_cell_length_b     22.118257
_cell_length_c     22.120189
_cell_angle_alpha  90.000338
_cell_angle_beta   89.999754
_cell_angle_gamma 89.999955
loop_
_atom_site_label
_atom_site_type_symbol
_atom_site_fract_x
_atom_site_fract_y
_atom_site_fract_z
_atom_type_partial_charge
Fe0 Fe 1.00817 0.29386 0.46616 0.0
Fe1 Fe 0.10197 0.33891 0.37353 0.0
O2 O 0.04446 0.35194 0.42499 0.0
Fe3 Fe 1.02057 0.42765 0.43596 0.0
O4 O 0.97146 0.41648 0.50295 0.0
O5 O 1.00749 0.335 0.53846 0.0
O6 O 0.07279 0.25722 0.49414 0.0
C7 C 0.12406 0.25478 0.47114 0.0
C8 C 0.9252 0.37187 0.40473 0.0
O9 O 0.13972 0.28535 0.42488 0.0
C10 C 0.06672 0.44679 0.31732 0.0
O11 O 1.00109 0.24017 0.40686 0.0
O12 O 0.05725 0.27578 0.33299 0.0
O13 O 0.95873 0.41467 0.38883 0.0
O14 O 0.9422 0.32641 0.43644 0.0
C15 C 0.13598 0.43584 0.46118 0.0
O16 O 0.07217 0.39 0.31252 0.0
O17 O 0.06011 0.46489 0.37111 0.0
C18 C 1.01715 0.23799 0.35319 0.0
O19 O 0.14741 0.40412 0.41202 0.0
O20 O 0.08397 0.43512 0.48411 0.0
C21 C 0.9743 0.37985 0.54631 0.0
Fe22 Fe 0.95365 0.85193 0.62353 0.0
Fe23 Fe 0.8649 0.77052 0.68595 0.0
O24 O 0.94061 0.79441 0.67499 0.0
Fe25 Fe 0.9987 0.75813 0.71615 0.0
O26 O 0.03533 0.82274 0.74415 0.0
O27 O 1.0072 0.88967 0.67488 0.0
O28 O 0.88843 0.89736 0.66203 0.0
C29 C 0.8567 0.88592 0.71118 0.0
C30 C 0.05457 0.76712 0.60319 0.0
O31 O 0.85741 0.83391 0.73411 0.0
C32 C 0.92069 0.67515 0.65472 0.0
O33 O 0.90255 0.82213 0.56253 0.0
O34 O 0.82766 0.81006 0.62111 0.0
O35 O 0.0524 0.75106 0.65686 0.0
O36 O 1.01678 0.80721 0.58299 0.0
C37 C 0.9127 0.72424 0.79629 0.0
O38 O 0.87789 0.70869 0.63881 0.0
O39 O 0.96615 0.69216 0.68643 0.0
C40 C 0.84576 0.81668 0.56732 0.0
O41 O 0.87607 0.7214 0.75293 0.0
O42 O 0.95755 0.75742 0.78845 0.0
C43 C 0.03778 0.87401 0.72115 0.0
Fe44 Fe 0.53441 0.7487 0.96617 0.0
Fe45 Fe 0.44058 0.70366 0.87357 0.0
O46 O 0.4981 0.69062 0.92501 0.0
Fe47 Fe 0.52196 0.61491 0.93599 0.0
O48 O 0.57113 0.62607 1.00294 0.0
O49 O 0.53513 0.70754 0.03847 0.0
O50 O 0.4698 0.78533 0.99419 0.0
C51 C 0.41854 0.7878 0.97118 0.0
C52 C 0.61735 0.67065 0.9047 0.0
O53 O 0.40287 0.75723 0.92491 0.0
C54 C 0.47579 0.59576 0.81737 0.0
O55 O 0.54146 0.80239 0.90688 0.0
O56 O 0.48531 0.76676 0.83301 0.0
O57 O 0.5838 0.62785 0.88883 0.0
O58 O 0.60036 0.71612 0.93641 0.0
C59 C 0.40657 0.60679 0.96129 0.0
O60 O 0.47036 0.65255 0.81257 0.0
O61 O 0.48237 0.57766 0.87117 0.0
C62 C 0.52541 0.80455 0.85321 0.0
O63 O 0.39513 0.63847 0.9121 0.0
O64 O 0.45859 0.60751 0.98419 0.0
C65 C 0.5683 0.66268 0.04631 0.0
Fe66 Fe 0.58891 0.19059 0.12353 0.0
Fe67 Fe 0.67766 0.27199 0.18596 0.0
O68 O 0.60195 0.2481 0.17499 0.0
Fe69 Fe 0.54385 0.28439 0.21616 0.0
O70 O 0.50723 0.21977 0.24416 0.0
O71 O 0.53536 0.15285 0.17488 0.0
O72 O 0.65413 0.14516 0.16203 0.0
C73 C 0.68586 0.1566 0.21118 0.0
C74 C 0.48798 0.2754 0.1032 0.0
O75 O 0.68515 0.2086 0.23411 0.0
C76 C 0.62187 0.36737 0.15473 0.0
O77 O 0.64001 0.22039 0.06253 0.0
O78 O 0.7149 0.23246 0.12111 0.0
O79 O 0.49016 0.29145 0.15687 0.0
O80 O 0.52578 0.2353 0.083 0.0
C81 C 0.62986 0.31828 0.2963 0.0
O82 O 0.66466 0.33383 0.13881 0.0
O83 O 0.5764 0.35037 0.18644 0.0
C84 C 0.6968 0.22584 0.06732 0.0
O85 O 0.66649 0.32111 0.25294 0.0
O86 O 0.58501 0.28509 0.28846 0.0
C87 C 0.50479 0.16851 0.22115 0.0
Fe88 Fe 0.50815 0.24869 0.57629 0.0
Fe89 Fe 0.60199 0.20366 0.66889 0.0
O90 O 0.54446 0.19061 0.61745 0.0
Fe91 Fe 0.52061 0.1149 0.60646 0.0
O92 O 0.47147 0.12605 0.53949 0.0
O93 O 0.50745 0.20754 0.50398 0.0
O94 O 0.57275 0.28535 0.54829 0.0
C95 C 0.62402 0.2878 0.57128 0.0
C96 C 0.42521 0.17062 0.63773 0.0
O97 O 0.6397 0.25723 0.61754 0.0
C98 C 0.56678 0.09576 0.7251 0.0
O99 O 0.50107 0.30237 0.63559 0.0
O100 O 0.55726 0.26677 0.70944 0.0
O101 O 0.45876 0.12782 0.65361 0.0
O102 O 0.4422 0.2161 0.60603 0.0
C103 C 0.636 0.1068 0.58117 0.0
O104 O 0.57221 0.15255 0.72989 0.0
O105 O 0.5602 0.07766 0.6713 0.0
C106 C 0.51714 0.30455 0.68926 0.0
O107 O 0.64744 0.13847 0.63037 0.0
O108 O 0.58399 0.10752 0.55827 0.0
C109 C 0.47429 0.16267 0.49613 0.0
Fe110 Fe 0.08891 0.35194 0.91893 0.0
Fe111 Fe 0.17766 0.27054 0.85649 0.0
O112 O 0.10195 0.29442 0.86746 0.0
Fe113 Fe 0.04386 0.25813 0.8263 0.0
O114 O 1.00721 0.32274 0.79831 0.0
O115 O 0.03536 0.38967 0.86757 0.0
O116 O 0.15412 0.39737 0.88044 0.0
C117 C 0.18585 0.38594 0.83128 0.0
C118 C 0.98798 0.26712 0.93926 0.0
O119 O 0.18514 0.33394 0.80834 0.0
C120 C 0.1219 0.17515 0.8877 0.0
O121 O 0.14 0.32214 0.97993 0.0
O122 O 0.2149 0.31007 0.92135 0.0
O123 O 0.99018 0.25104 0.8856 0.0
O124 O 0.02577 0.30722 0.95946 0.0
C125 C 0.12987 0.22428 0.74614 0.0
O126 O 0.16468 0.20869 0.90362 0.0
O127 O 0.07643 0.19215 0.856 0.0
C128 C 0.19679 0.31669 0.97514 0.0
O129 O 0.1665 0.22144 0.7895 0.0
O130 O 0.08501 0.25744 0.75399 0.0
C131 C 1.00478 0.37401 0.82131 0.0
Fe132 Fe 0.02195 0.92761 0.10645 0.0
Fe133 Fe 0.03441 0.79383 0.07628 0.0
O134 O 0.9981 0.8519 0.11744 0.0
Fe135 Fe 0.94057 0.83886 0.16888 0.0
O136 O 0.89512 0.90404 0.13036 0.0
O137 O 0.95857 0.935 0.05826 0.0
O138 O 0.07109 0.91646 0.03949 0.0
C139 C 0.06827 0.87985 0.99613 0.0
C140 C 0.97578 0.94675 0.22509 0.0
O141 O 0.03511 0.83498 1.00397 0.0
C142 C 0.02541 0.73796 0.18924 0.0
O143 O 0.08379 0.91468 0.15361 0.0
O144 O 0.10036 0.82641 0.10602 0.0
O145 O 0.97035 0.88997 0.22989 0.0
O146 O 0.98236 0.96485 0.17129 0.0
C147 C 0.91853 0.75472 0.07127 0.0
O148 O 0.04148 0.74014 0.13558 0.0
O149 O 0.9853 0.77574 0.20943 0.0
C150 C 0.11735 0.87189 0.13772 0.0
O151 O 0.9698 0.75718 0.04827 0.0
O152 O 0.90286 0.78529 0.11754 0.0
C153 C 0.90656 0.93572 0.08117 0.0
Fe154 Fe 0.36494 0.77196 0.35646 0.0
Fe155 Fe 0.49873 0.78441 0.32629 0.0
O156 O 0.44065 0.74811 0.36744 0.0
Fe157 Fe 0.45369 0.69058 0.41888 0.0
O158 O 0.3885 0.64513 0.38036 0.0
O159 O 0.35754 0.70859 0.30827 0.0
O160 O 0.37609 0.82111 0.28951 0.0
C161 C 0.41271 0.81829 0.24614 0.0
C162 C 0.3458 0.72579 0.47509 0.0
O163 O 0.45758 0.78513 0.25398 0.0
C164 C 0.5546 0.7754 0.43925 0.0
O165 O 0.37788 0.8338 0.40362 0.0
O166 O 0.46616 0.85037 0.35604 0.0
O167 O 0.40259 0.72036 0.47989 0.0
O168 O 0.3277 0.73237 0.42129 0.0
C169 C 0.53783 0.66854 0.32127 0.0
O170 O 0.55243 0.79147 0.38558 0.0
O171 O 0.51681 0.7353 0.45944 0.0
C172 C 0.42067 0.86735 0.38774 0.0
O173 O 0.53537 0.71981 0.29827 0.0
O174 O 0.50726 0.65287 0.36754 0.0
C175 C 0.35682 0.65657 0.33117 0.0
Fe176 Fe 0.43599 1.02052 0.42753 0.0
Fe177 Fe 0.46623 1.00826 0.29373 0.0
O178 O 0.42507 0.04449 0.35184 0.0
Fe179 Fe 0.3736 0.10197 0.33882 0.0
O180 O 0.41223 0.14741 0.40396 0.0
O181 O 0.48427 0.08384 0.43502 0.0
O182 O 0.50285 0.97123 0.41633 0.0
C183 C 0.54626 0.97408 0.37976 0.0
C184 C 0.31743 0.0668 0.44676 0.0
O185 O 0.53847 1.00733 0.33496 0.0
C186 C 0.35326 1.01721 0.2379 0.0
O187 O 0.38872 0.95879 0.41449 0.0
O188 O 0.43623 0.9423 0.3261 0.0
O189 O 0.31262 0.07223 0.38998 0.0
O190 O 0.37124 0.06019 0.46483 0.0
C191 C 0.47127 0.12409 0.25471 0.0
O192 O 0.40703 1.00146 0.23985 0.0
O193 O 0.33299 0.05714 0.27583 0.0
C194 C 0.40439 0.92537 0.37151 0.0
O195 O 0.49444 0.07291 0.25735 0.0
O196 O 0.42488 0.13968 0.28515 0.0
C197 C 0.46141 0.13589 0.43565 0.0
Fe198 Fe 0.28429 0.21623 0.54376 0.0
Fe199 Fe 0.19057 0.1236 0.58883 0.0
O200 O 0.24806 0.17506 0.60186 0.0
Fe201 Fe 0.27202 0.18597 0.67755 0.0
O202 O 0.32131 0.25283 0.66636 0.0
O203 O 0.28519 0.28847 0.58501 0.0
O204 O 0.21965 0.24443 0.50735 0.0
C205 C 0.16847 0.22127 0.50471 0.0
C206 C 0.36718 0.15438 0.62154 0.0
O207 O 0.15287 0.17488 0.53516 0.0
C208 C 0.22575 0.06741 0.69675 0.0
O209 O 0.29112 0.15703 0.48989 0.0
O210 O 0.23539 0.083 0.52582 0.0
O211 O 0.33376 0.13871 0.66451 0.0
O212 O 0.35024 0.18624 0.57615 0.0
C213 C 0.15665 0.2114 0.68565 0.0
O214 O 0.22031 0.06261 0.63997 0.0
O215 O 0.23235 0.12121 0.71483 0.0
C216 C 0.27535 0.10327 0.48792 0.0
O217 O 0.14513 0.16221 0.65397 0.0
O218 O 0.2087 0.23425 0.68503 0.0
C219 C 0.31844 0.29625 0.62982 0.0
Fe220 Fe 0.07632 0.03425 0.79372 0.0
Fe221 Fe 0.16896 0.94055 0.83882 0.0
O222 O 0.11748 0.99803 0.85183 0.0
Fe223 Fe 0.10657 0.022 0.92752 0.0
O224 O 0.03971 0.0713 0.91631 0.0
O225 O 1.00408 0.03518 0.83496 0.0
O226 O 0.04811 0.9696 0.75735 0.0
C227 C 0.07129 0.91842 0.75471 0.0
C228 C 0.13817 0.11714 0.87148 0.0
O229 O 0.11769 0.90284 0.78514 0.0
C230 C 0.22513 0.97575 0.94675 0.0
O231 O 0.13551 0.04104 0.73983 0.0
O232 O 0.20957 0.98539 0.77582 0.0
O233 O 0.15384 0.08372 0.91446 0.0
O234 O 0.10632 0.10021 0.82608 0.0
C235 C 0.08115 0.90664 0.93564 0.0
O236 O 0.22994 0.9703 0.88998 0.0
O237 O 0.17132 0.98234 0.96482 0.0
C238 C 0.18929 0.02531 0.7379 0.0
O239 O 0.13033 0.89511 0.90396 0.0
O240 O 0.05829 0.95869 0.93502 0.0
C241 C 0.9963 0.06844 0.87975 0.0
Fe242 Fe 0.35199 0.91898 0.08883 0.0
Fe243 Fe 0.27053 0.85657 0.17755 0.0
O244 O 0.2945 0.86751 0.10186 0.0
Fe245 Fe 0.25828 0.82634 0.04375 0.0
O246 O 0.32293 0.79815 1.00736 0.0
O247 O 0.38971 0.8677 0.03518 0.0
O248 O 0.39743 0.88036 0.15398 0.0
C249 C 0.38591 0.83118 0.18566 0.0
C250 C 0.26722 0.9393 0.98791 0.0
O251 O 0.33386 0.80831 0.18503 0.0
C252 C 0.17537 0.88815 0.12153 0.0
O253 O 0.32225 0.97996 0.13998 0.0
O254 O 0.31017 0.92133 0.21486 0.0
O255 O 0.25146 0.88553 0.98988 0.0
O256 O 0.30717 0.95957 0.02582 0.0
C257 C 0.22411 0.7463 0.12976 0.0
O258 O 0.20879 0.90382 0.16451 0.0
O259 O 0.19231 0.85631 0.07612 0.0
C260 C 0.31681 0.97512 0.19674 0.0
O261 O 0.22125 0.7897 0.16634 0.0
O262 O 0.25737 0.75409 0.08498 0.0
C263 C 0.37412 0.82131 1.00474 0.0
Fe264 Fe 0.93601 0.52198 0.6149 0.0
Fe265 Fe 0.96627 0.53424 0.74869 0.0
O266 O 0.92509 0.49802 0.69059 0.0
Fe267 Fe 0.87361 0.44055 0.70361 0.0
O268 O 0.91224 0.3951 0.63848 0.0
O269 O 0.98428 0.45867 0.60742 0.0
O270 O 1.00287 0.57127 0.6261 0.0
C271 C 0.04629 0.5684 0.66264 0.0
C272 C 0.81744 0.47572 0.59568 0.0
O273 O 0.03851 0.53515 0.70745 0.0
C274 C 0.85328 0.52532 0.80453 0.0
O275 O 0.88874 0.58372 0.62795 0.0
O276 O 0.93629 0.6002 0.71632 0.0
O277 O 0.81264 0.47029 0.65246 0.0
O278 O 0.87125 0.48232 0.57761 0.0
C279 C 0.97128 0.41842 0.78773 0.0
O280 O 0.90707 0.54106 0.80257 0.0
O281 O 0.83301 0.48538 0.76661 0.0
C282 C 0.90443 0.61714 0.67093 0.0
O283 O 0.99446 0.4696 0.78508 0.0
O284 O 0.92489 0.40284 0.75729 0.0
C285 C 0.96143 0.40662 0.60679 0.0
Fe286 Fe 0.75828 0.71621 0.99867 0.0
Fe287 Fe 0.85199 0.62356 0.9536 0.0
O288 O 0.79451 0.67503 0.94056 0.0
Fe289 Fe 0.77055 0.68596 0.86487 0.0
O290 O 0.72127 0.75283 0.87608 0.0
O291 O 0.7574 0.78846 0.95743 0.0
O292 O 0.82293 0.74438 0.03507 0.0
C293 C 0.87412 0.72122 0.0377 0.0
C294 C 0.67538 0.65439 0.92088 0.0
O295 O 0.88971 0.67484 1.00726 0.0
C296 C 0.81683 0.56741 0.84569 0.0
O297 O 0.75144 0.65701 0.05253 0.0
O298 O 0.80717 0.58297 1.01661 0.0
O299 O 0.70879 0.63871 0.8779 0.0
O300 O 0.69232 0.68625 0.96628 0.0
C301 C 0.88592 0.71136 0.85678 0.0
O302 O 0.82227 0.56257 0.90245 0.0
O303 O 0.81019 0.6212 0.82756 0.0
C304 C 0.76721 0.60324 0.05452 0.0
O305 O 0.89744 0.66217 0.88845 0.0
O306 O 0.83387 0.73422 0.85741 0.0
C307 C 0.72414 0.79625 0.91263 0.0
Fe308 Fe 0.57634 0.50829 0.24871 0.0
Fe309 Fe 0.669 0.60197 0.20361 0.0
O310 O 0.61752 0.5445 0.19059 0.0
Fe311 Fe 0.60658 0.52052 0.11491 0.0
O312 O 0.53971 0.47124 0.12612 0.0
O313 O 0.5041 0.50737 0.20748 0.0
O314 O 0.54815 0.57295 0.28507 0.0
C315 C 0.57133 0.62412 0.2877 0.0
C316 C 0.63816 0.42537 0.17094 0.0
O317 O 0.61774 0.6397 0.25728 0.0
C318 C 0.72513 0.56679 0.09569 0.0
O319 O 0.63554 0.50149 0.30259 0.0
O320 O 0.7096 0.55713 0.26661 0.0
O321 O 0.65384 0.45879 0.12796 0.0
O322 O 0.60632 0.44232 0.21635 0.0
C323 C 0.58119 0.63589 0.10679 0.0
O324 O 0.72998 0.57224 0.15245 0.0
O325 O 0.67134 0.56015 0.07758 0.0
C326 C 0.68932 0.51721 0.30454 0.0
O327 O 0.63038 0.64741 0.13847 0.0
O328 O 0.55832 0.58385 0.10742 0.0
C329 C 0.49631 0.4741 0.16269 0.0
Fe330 Fe 0.77202 0.35655 0.36489 0.0
Fe331 Fe 0.78426 0.3263 0.49868 0.0
O332 O 0.74805 0.36748 0.44057 0.0
Fe333 Fe 0.69057 0.41896 0.45361 0.0
O334 O 0.64513 0.38035 0.38846 0.0
O335 O 0.70869 0.3083 0.35741 0.0
O336 O 0.82129 0.28968 0.37609 0.0
C337 C 0.81841 0.24627 0.41264 0.0
C338 C 0.72575 0.4751 0.34569 0.0
O339 O 0.78516 0.25405 0.45743 0.0
C340 C 0.77535 0.43927 0.55452 0.0
O341 O 0.83376 0.4038 0.37793 0.0
O342 O 0.85023 0.35626 0.4663 0.0
O343 O 0.72031 0.47995 0.40246 0.0
O344 O 0.73238 0.42132 0.32757 0.0
C345 C 0.66843 0.3213 0.53771 0.0
O346 O 0.7911 0.38549 0.55255 0.0
O347 O 0.7354 0.45955 0.51662 0.0
C348 C 0.86717 0.38812 0.42091 0.0
O349 O 0.71961 0.29812 0.53507 0.0
O350 O 0.65285 0.36769 0.50727 0.0
C351 C 0.65664 0.33116 0.35678 0.0
Fe352 Fe 0.3389 0.37356 0.10194 0.0
Fe353 Fe 0.42764 0.43599 1.0205 0.0
O354 O 0.35193 0.42503 0.04443 0.0
Fe355 Fe 0.29381 0.46618 1.00814 0.0
O356 O 0.25723 0.49421 0.07277 0.0
O357 O 0.28532 0.4249 0.13967 0.0
O358 O 0.40411 0.41209 0.14736 0.0
C359 C 0.43583 0.46125 0.13588 0.0
C360 C 0.23797 0.3532 1.01715 0.0
O361 O 0.43518 0.48417 0.08387 0.0
C362 C 0.37181 0.40473 0.92517 0.0
O363 O 0.39001 0.31255 0.07218 0.0
O364 O 0.46491 0.37116 0.06003 0.0
O365 O 0.2401 0.40689 1.00114 0.0
O366 O 0.27579 0.333 0.05722 0.0
C367 C 0.37983 0.5463 0.97422 0.0
O368 O 0.41459 0.38882 0.95871 0.0
O369 O 0.32632 0.43643 0.94216 0.0
C370 C 0.44678 0.31739 0.0667 0.0
O371 O 0.41646 0.50296 0.97138 0.0
O372 O 0.33494 0.53849 1.00737 0.0
C373 C 0.25477 0.4712 0.12403 0.0
Fe374 Fe 0.79381 0.07635 0.03434 0.0
Fe375 Fe 0.8389 0.16896 0.94053 0.0
O376 O 0.85193 0.11749 0.99805 0.0
Fe377 Fe 0.92764 0.10653 0.02196 0.0
O378 O 0.91647 0.03955 0.07108 0.0
O379 O 0.83493 1.00403 0.03511 0.0
O380 O 0.7572 0.04832 0.96973 0.0
C381 C 0.75476 0.07132 0.91847 0.0
C382 C 0.87183 0.13778 0.11731 0.0
O383 O 0.78533 0.1176 0.90281 0.0
C384 C 0.94678 0.22513 0.97576 0.0
O385 O 0.74011 0.13565 0.04136 0.0
O386 O 0.77578 0.20952 0.98524 0.0
O387 O 0.91461 0.15369 0.08377 0.0
O388 O 0.82634 0.10609 0.10032 0.0
C389 C 0.93582 0.08128 0.90658 0.0
O390 O 0.89 0.22997 0.97029 0.0
O391 O 0.96491 0.17136 0.98243 0.0
C392 C 0.73797 0.18933 0.02533 0.0
O393 O 0.9041 0.13044 0.89511 0.0
O394 O 0.93518 0.05835 0.95859 0.0
C395 C 0.87982 0.99621 0.06825 0.0
Fe396 Fe 0.12358 0.58889 0.19051 0.0
Fe397 Fe 0.18601 0.67763 0.27195 0.0
O398 O 0.17505 0.60192 0.24803 0.0
Fe399 Fe 0.21621 0.54381 0.28431 0.0
O400 O 0.24425 0.50723 0.21968 0.0
O401 O 0.17493 0.53531 0.15278 0.0
O402 O 0.16211 0.6541 0.14509 0.0
C403 C 0.21127 0.68582 0.15658 0.0
C404 C 0.10323 0.48796 0.27531 0.0
O405 O 0.23419 0.68517 0.20858 0.0
C406 C 0.15475 0.6218 0.36728 0.0
O407 O 0.06256 0.63999 0.22027 0.0
O408 O 0.12118 0.7149 0.23242 0.0
O409 O 0.15692 0.49009 0.29131 0.0
O410 O 0.08302 0.52578 0.23524 0.0
C411 C 0.29633 0.62982 0.31824 0.0
O412 O 0.13883 0.66458 0.33374 0.0
O413 O 0.18645 0.57632 0.35029 0.0
C414 C 0.0674 0.69676 0.22575 0.0
O415 O 0.25298 0.66646 0.32107 0.0
O416 O 0.28852 0.58494 0.28509 0.0
C417 C 0.22121 0.50474 0.16844 0.0
Fe418 Fe 0.74876 0.96618 0.53434 0.0
Fe419 Fe 0.70367 0.87357 0.44053 0.0
O420 O 0.69064 0.92503 0.49805 0.0
Fe421 Fe 0.61492 0.93599 0.52196 0.0
O422 O 0.6261 1.00297 0.57108 0.0
O423 O 0.70763 0.03849 0.53511 0.0
O424 O 0.78537 0.9942 0.46973 0.0
C425 C 0.78781 0.97121 0.41847 0.0
C426 C 0.67074 0.90474 0.61731 0.0
O427 O 0.75724 0.92493 0.40281 0.0
C428 C 0.5958 0.81739 0.47576 0.0
O429 O 0.80245 0.90687 0.54137 0.0
O430 O 0.76679 0.83301 0.48524 0.0
O431 O 0.62796 0.88883 0.58376 0.0
O432 O 0.71622 0.93644 0.60032 0.0
C433 C 0.60674 0.96124 0.40658 0.0
O434 O 0.65257 0.81255 0.47028 0.0
O435 O 0.57766 0.87116 0.48243 0.0
C436 C 0.80459 0.8532 0.52533 0.0
O437 O 0.63846 0.91208 0.39511 0.0
O438 O 0.60739 0.98417 0.45859 0.0
C439 C 0.66274 0.04631 0.56825 0.0
Fe440 Fe 0.32635 0.49877 0.78427 0.0
Fe441 Fe 0.419 0.45365 0.69056 0.0
O442 O 0.36752 0.44063 0.74804 0.0
Fe443 Fe 0.35661 0.36493 0.77204 0.0
O444 O 0.28972 0.37613 0.82126 0.0
O445 O 0.25409 0.45757 0.7852 0.0
O446 O 0.29818 0.53517 0.71962 0.0
C447 C 0.32131 0.53774 0.66843 0.0
C448 C 0.38812 0.42099 0.86719 0.0
O449 O 0.36769 0.50729 0.65284 0.0
C450 C 0.47516 0.34575 0.72577 0.0
O451 O 0.38557 0.55263 0.79108 0.0
O452 O 0.45959 0.51669 0.73535 0.0
O453 O 0.40385 0.37804 0.83377 0.0
O454 O 0.35629 0.4664 0.85025 0.0
C455 C 0.33128 0.35672 0.65667 0.0
O456 O 0.48001 0.40252 0.72029 0.0
O457 O 0.42139 0.32763 0.73246 0.0
C458 C 0.43933 0.5546 0.77529 0.0
O459 O 0.38042 0.38847 0.64514 0.0
O460 O 0.30839 0.35733 0.7087 0.0
C461 C 0.24633 0.41272 0.81839 0.0
Fe462 Fe 0.11496 0.60659 0.52042 0.0
Fe463 Fe 0.24881 0.57635 0.50817 0.0
O464 O 0.19066 0.6175 0.54441 0.0
Fe465 Fe 0.20368 0.66897 0.6019 0.0
O466 O 0.1385 0.63039 0.64731 0.0
O467 O 0.10737 0.55837 0.58375 0.0
O468 O 0.12617 0.5397 0.47119 0.0
C469 C 0.16276 0.49632 0.47406 0.0
C470 C 0.09577 0.72513 0.56669 0.0
O471 O 0.20761 0.50409 0.50725 0.0
C472 C 0.30464 0.68932 0.51716 0.0
O473 O 0.12806 0.65383 0.45869 0.0
O474 O 0.21643 0.60628 0.4422 0.0
O475 O 0.15255 0.72998 0.57217 0.0
O476 O 0.07766 0.67136 0.56 0.0
C477 C 0.2878 0.5713 0.62401 0.0
O478 O 0.30266 0.63556 0.50135 0.0
O479 O 0.26673 0.70957 0.55711 0.0
C480 C 0.17101 0.63811 0.42526 0.0
O481 O 0.28522 0.54817 0.57281 0.0
O482 O 0.25732 0.61766 0.63961 0.0
C483 C 0.10676 0.58125 0.63579 0.0
Fe484 Fe 0.68594 0.86493 0.77043 0.0
Fe485 Fe 0.71621 0.99877 0.75821 0.0
O486 O 0.67504 0.94063 0.79443 0.0
Fe487 Fe 0.62356 0.95365 0.85191 0.0
O488 O 0.66215 0.88847 0.89733 0.0
O489 O 0.73418 0.85733 0.83375 0.0
O490 O 0.75283 0.87614 0.72119 0.0
C491 C 0.79622 0.91271 0.72407 0.0
C492 C 0.5674 0.84575 0.8167 0.0
O493 O 0.78847 0.95755 0.75727 0.0
C494 C 0.60324 0.05461 0.76718 0.0
O495 O 0.6387 0.87805 0.70871 0.0
O496 O 0.68626 0.96641 0.69223 0.0
O497 O 0.56256 0.90251 0.82218 0.0
O498 O 0.62117 0.82763 0.81002 0.0
C499 C 0.72124 0.03775 0.87405 0.0
O500 O 0.65701 0.05264 0.75141 0.0
O501 O 0.58297 1.01668 0.80712 0.0
C502 C 0.65442 0.92101 0.67529 0.0
O503 O 0.74439 0.03515 0.82287 0.0
O504 O 0.67486 1.00729 0.88964 0.0
C505 C 0.7113 0.85672 0.88579 0.0
Fe506 Fe 0.91901 0.08888 0.35191 0.0
Fe507 Fe 0.85662 0.17759 0.27043 0.0
O508 O 0.86752 0.1019 0.29443 0.0
Fe509 Fe 0.82635 0.04375 0.25822 0.0
O510 O 0.79817 1.00738 0.32287 0.0
O511 O 0.86771 0.03523 0.38964 0.0
O512 O 0.88041 0.15406 0.39733 0.0
C513 C 0.83127 0.1858 0.3858 0.0
C514 C 0.93933 0.98792 0.26718 0.0
O515 O 0.80839 0.18519 0.33375 0.0
C516 C 0.88815 0.12151 0.17529 0.0
O517 O 0.98001 0.14002 0.32217 0.0
O518 O 0.92138 0.2149 0.31001 0.0
O519 O 0.88556 0.98988 0.25142 0.0
O520 O 0.9596 0.02585 0.30711 0.0
C521 C 0.74634 0.12981 0.22407 0.0
O522 O 0.90386 0.16447 0.20871 0.0
O523 O 0.8563 0.07611 0.19223 0.0
C524 C 0.97516 0.19679 0.31669 0.0
O525 O 0.78973 0.16638 0.22119 0.0
O526 O 0.7541 0.08497 0.25727 0.0
C527 C 0.82132 1.00478 0.37405 0.0
loop_
_geom_bond_atom_site_label_1
_geom_bond_atom_site_label_2
_geom_bond_distance
_geom_bond_site_symmetry_2
_ccdc_geom_bond_type
Fe0 O2 1.918 1_655 S
Fe0 O5 1.997 . S
Fe0 O6 2.002 1_655 S
Fe0 O11 1.976 . S
Fe0 O14 1.996 . S
Fe1 O2 1.918 . S
Fe1 O9 1.997 . S
Fe1 O12 1.996 . S
Fe1 O16 1.976 . S
Fe1 O19 2.002 . S
O2 Fe0 1.918 1_455 S
O2 Fe1 1.918 . S
O2 Fe3 1.918 . S
Fe3 O2 1.918 . S
Fe3 O4 2.002 1_455 S
Fe3 O13 1.976 1_455 S
Fe3 O17 1.996 . S
Fe3 O20 1.997 . S
O4 Fe3 2.002 1_655 S
O4 C21 1.295 . S
O5 Fe0 1.997 . S
O5 C21 1.235 . S
O6 Fe0 2.002 1_455 S
O6 C7 1.295 . S
C7 O6 1.295 . S
C7 O9 1.235 . S
C8 O13 1.287 . S
C8 O14 1.255 . S
O9 Fe1 1.997 . S
O9 C7 1.235 . S
C10 O16 1.287 . S
C10 O17 1.255 . S
O11 Fe0 1.976 . S
O11 C18 1.287 1_655 S
O12 Fe1 1.996 . S
O12 C18 1.255 . S
O13 Fe3 1.976 1_655 S
O13 C8 1.287 . S
O14 Fe0 1.996 . S
O14 C8 1.255 . S
C15 O19 1.295 . S
C15 O20 1.235 . S
O16 Fe1 1.976 . S
O16 C10 1.287 . S
O17 Fe3 1.996 . S
O17 C10 1.255 . S
C18 O11 1.287 1_455 S
C18 O12 1.255 . S
O19 Fe1 2.002 . S
O19 C15 1.295 . S
O20 Fe3 1.997 . S
O20 C15 1.235 . S
C21 O4 1.295 . S
C21 O5 1.235 . S
Fe22 O24 1.918 . S
Fe22 O27 1.997 . S
Fe22 O28 2.002 . S
Fe22 O33 1.976 . S
Fe22 O36 1.996 . S
Fe23 O24 1.918 . S
Fe23 O31 1.997 . S
Fe23 O34 1.996 . S
Fe23 O38 1.976 . S
Fe23 O41 2.002 . S
O24 Fe22 1.918 . S
O24 Fe23 1.918 . S
O24 Fe25 1.918 . S
Fe25 O24 1.918 . S
Fe25 O26 2.002 1_655 S
Fe25 O35 1.976 1_655 S
Fe25 O39 1.996 . S
Fe25 O42 1.997 . S
O26 Fe25 2.002 1_455 S
O26 C43 1.295 . S
O27 Fe22 1.997 . S
O27 C43 1.235 1_655 S
O28 Fe22 2.002 . S
O28 C29 1.295 . S
C29 O28 1.295 . S
C29 O31 1.235 . S
C30 O35 1.287 . S
C30 O36 1.255 1_455 S
O31 Fe23 1.997 . S
O31 C29 1.235 . S
C32 O38 1.287 . S
C32 O39 1.255 . S
O33 Fe22 1.976 . S
O33 C40 1.287 . S
O34 Fe23 1.996 . S
O34 C40 1.255 . S
O35 Fe25 1.976 1_455 S
O35 C30 1.287 . S
O36 Fe22 1.996 . S
O36 C30 1.255 1_655 S
C37 O41 1.295 . S
C37 O42 1.235 . S
O38 Fe23 1.976 . S
O38 C32 1.287 . S
O39 Fe25 1.996 . S
O39 C32 1.255 . S
C40 O33 1.287 . S
C40 O34 1.255 . S
O41 Fe23 2.002 . S
O41 C37 1.295 . S
O42 Fe25 1.997 . S
O42 C37 1.235 . S
C43 O26 1.295 . S
C43 O27 1.235 1_455 S
Fe44 O46 1.918 . S
Fe44 O49 1.997 . S
Fe44 O50 2.002 . S
Fe44 O55 1.976 . S
Fe44 O58 1.996 . S
Fe45 O46 1.918 . S
Fe45 O53 1.997 . S
Fe45 O56 1.996 . S
Fe45 O60 1.976 . S
Fe45 O63 2.002 . S
O46 Fe44 1.918 . S
O46 Fe45 1.918 . S
O46 Fe47 1.918 . S
Fe47 O46 1.918 . S
Fe47 O48 2.002 . S
Fe47 O57 1.976 . S
Fe47 O61 1.996 . S
Fe47 O64 1.997 . S
O48 Fe47 2.002 . S
O48 C65 1.295 1_556 S
O49 Fe44 1.997 . S
O49 C65 1.235 1_556 S
O50 Fe44 2.002 . S
O50 C51 1.295 . S
C51 O50 1.295 . S
C51 O53 1.235 . S
C52 O57 1.287 . S
C52 O58 1.255 . S
O53 Fe45 1.997 . S
O53 C51 1.235 . S
C54 O60 1.287 . S
C54 O61 1.255 . S
O55 Fe44 1.976 . S
O55 C62 1.287 . S
O56 Fe45 1.996 . S
O56 C62 1.255 . S
O57 Fe47 1.976 . S
O57 C52 1.287 . S
O58 Fe44 1.996 . S
O58 C52 1.255 . S
C59 O63 1.295 . S
C59 O64 1.235 . S
O60 Fe45 1.976 . S
O60 C54 1.287 . S
O61 Fe47 1.996 . S
O61 C54 1.255 . S
C62 O55 1.287 . S
C62 O56 1.255 . S
O63 Fe45 2.002 . S
O63 C59 1.295 . S
O64 Fe47 1.997 . S
O64 C59 1.235 . S
C65 O48 1.295 1_554 S
C65 O49 1.235 1_554 S
Fe66 O68 1.918 . S
Fe66 O71 1.997 . S
Fe66 O72 2.002 . S
Fe66 O77 1.976 . S
Fe66 O80 1.996 . S
Fe67 O68 1.918 . S
Fe67 O75 1.997 . S
Fe67 O78 1.996 . S
Fe67 O82 1.976 . S
Fe67 O85 2.002 . S
O68 Fe66 1.918 . S
O68 Fe67 1.918 . S
O68 Fe69 1.918 . S
Fe69 O68 1.918 . S
Fe69 O70 2.002 . S
Fe69 O79 1.976 . S
Fe69 O83 1.996 . S
Fe69 O86 1.997 . S
O70 Fe69 2.002 . S
O70 C87 1.295 . S
O71 Fe66 1.997 . S
O71 C87 1.235 . S
O72 Fe66 2.002 . S
O72 C73 1.295 . S
C73 O72 1.295 . S
C73 O75 1.235 . S
C74 O79 1.287 . S
C74 O80 1.255 . S
O75 Fe67 1.997 . S
O75 C73 1.235 . S
C76 O82 1.287 . S
C76 O83 1.255 . S
O77 Fe66 1.976 . S
O77 C84 1.287 . S
O78 Fe67 1.996 . S
O78 C84 1.255 . S
O79 Fe69 1.976 . S
O79 C74 1.287 . S
O80 Fe66 1.996 . S
O80 C74 1.255 . S
C81 O85 1.295 . S
C81 O86 1.235 . S
O82 Fe67 1.976 . S
O82 C76 1.287 . S
O83 Fe69 1.996 . S
O83 C76 1.255 . S
C84 O77 1.287 . S
C84 O78 1.255 . S
O85 Fe67 2.002 . S
O85 C81 1.295 . S
O86 Fe69 1.997 . S
O86 C81 1.235 . S
C87 O70 1.295 . S
C87 O71 1.235 . S
Fe88 O90 1.918 . S
Fe88 O93 1.997 . S
Fe88 O94 2.002 . S
Fe88 O99 1.976 . S
Fe88 O102 1.996 . S
Fe89 O90 1.918 . S
Fe89 O97 1.997 . S
Fe89 O100 1.996 . S
Fe89 O104 1.976 . S
Fe89 O107 2.002 . S
O90 Fe88 1.918 . S
O90 Fe89 1.918 . S
O90 Fe91 1.918 . S
Fe91 O90 1.918 . S
Fe91 O92 2.002 . S
Fe91 O101 1.976 . S
Fe91 O105 1.996 . S
Fe91 O108 1.997 . S
O92 Fe91 2.002 . S
O92 C109 1.295 . S
O93 Fe88 1.997 . S
O93 C109 1.235 . S
O94 Fe88 2.002 . S
O94 C95 1.295 . S
C95 O94 1.295 . S
C95 O97 1.235 . S
C96 O101 1.287 . S
C96 O102 1.255 . S
O97 Fe89 1.997 . S
O97 C95 1.235 . S
C98 O104 1.287 . S
C98 O105 1.255 . S
O99 Fe88 1.976 . S
O99 C106 1.287 . S
O100 Fe89 1.996 . S
O100 C106 1.255 . S
O101 Fe91 1.976 . S
O101 C96 1.287 . S
O102 Fe88 1.996 . S
O102 C96 1.255 . S
C103 O107 1.295 . S
C103 O108 1.235 . S
O104 Fe89 1.976 . S
O104 C98 1.287 . S
O105 Fe91 1.996 . S
O105 C98 1.255 . S
C106 O99 1.287 . S
C106 O100 1.255 . S
O107 Fe89 2.002 . S
O107 C103 1.295 . S
O108 Fe91 1.997 . S
O108 C103 1.235 . S
C109 O92 1.295 . S
C109 O93 1.235 . S
Fe110 O112 1.918 . S
Fe110 O115 1.997 . S
Fe110 O116 2.002 . S
Fe110 O121 1.976 . S
Fe110 O124 1.996 . S
Fe111 O112 1.918 . S
Fe111 O119 1.997 . S
Fe111 O122 1.996 . S
Fe111 O126 1.976 . S
Fe111 O129 2.002 . S
O112 Fe110 1.918 . S
O112 Fe111 1.918 . S
O112 Fe113 1.918 . S
Fe113 O112 1.918 . S
Fe113 O114 2.002 1_455 S
Fe113 O123 1.976 1_455 S
Fe113 O127 1.996 . S
Fe113 O130 1.997 . S
O114 Fe113 2.002 1_655 S
O114 C131 1.295 . S
O115 Fe110 1.997 . S
O115 C131 1.235 1_455 S
O116 Fe110 2.002 . S
O116 C117 1.295 . S
C117 O116 1.295 . S
C117 O119 1.235 . S
C118 O123 1.287 . S
C118 O124 1.255 1_655 S
O119 Fe111 1.997 . S
O119 C117 1.235 . S
C120 O126 1.287 . S
C120 O127 1.255 . S
O121 Fe110 1.976 . S
O121 C128 1.287 . S
O122 Fe111 1.996 . S
O122 C128 1.255 . S
O123 Fe113 1.976 1_655 S
O123 C118 1.287 . S
O124 Fe110 1.996 . S
O124 C118 1.255 1_455 S
C125 O129 1.295 . S
C125 O130 1.235 . S
O126 Fe111 1.976 . S
O126 C120 1.287 . S
O127 Fe113 1.996 . S
O127 C120 1.255 . S
C128 O121 1.287 . S
C128 O122 1.255 . S
O129 Fe111 2.002 . S
O129 C125 1.295 . S
O130 Fe113 1.997 . S
O130 C125 1.235 . S
C131 O114 1.295 . S
C131 O115 1.235 1_655 S
Fe132 O134 1.918 . S
Fe132 O137 1.997 . S
Fe132 O138 2.002 1_655 S
Fe132 O143 1.976 1_655 S
Fe132 O146 1.996 . S
Fe133 O134 1.918 1_455 S
Fe133 O141 1.997 . S
Fe133 O144 1.996 . S
Fe133 O148 1.976 . S
Fe133 O151 2.002 1_455 S
O134 Fe132 1.918 . S
O134 Fe133 1.918 1_655 S
O134 Fe135 1.918 . S
Fe135 O134 1.918 . S
Fe135 O136 2.002 . S
Fe135 O145 1.976 . S
Fe135 O149 1.996 . S
Fe135 O152 1.997 . S
O136 Fe135 2.002 . S
O136 C153 1.295 . S
O137 Fe132 1.997 . S
O137 C153 1.235 . S
O138 Fe132 2.002 1_455 S
O138 C139 1.295 1_554 S
C139 O138 1.295 1_556 S
C139 O141 1.235 1_556 S
C140 O145 1.287 . S
C140 O146 1.255 . S
O141 Fe133 1.997 . S
O141 C139 1.235 1_554 S
C142 O148 1.287 1_655 S
C142 O149 1.255 . S
O143 Fe132 1.976 1_455 S
O143 C150 1.287 . S
O144 Fe133 1.996 . S
O144 C150 1.255 . S
O145 Fe135 1.976 . S
O145 C140 1.287 . S
O146 Fe132 1.996 . S
O146 C140 1.255 . S
C147 O151 1.295 . S
C147 O152 1.235 . S
O148 Fe133 1.976 . S
O148 C142 1.287 1_455 S
O149 Fe135 1.996 . S
O149 C142 1.255 . S
C150 O143 1.287 . S
C150 O144 1.255 . S
O151 Fe133 2.002 1_655 S
O151 C147 1.295 . S
O152 Fe135 1.997 . S
O152 C147 1.235 . S
C153 O136 1.295 . S
C153 O137 1.235 . S
Fe154 O156 1.918 . S
Fe154 O159 1.997 . S
Fe154 O160 2.002 . S
Fe154 O165 1.976 . S
Fe154 O168 1.996 . S
Fe155 O156 1.918 . S
Fe155 O163 1.997 . S
Fe155 O166 1.996 . S
Fe155 O170 1.976 . S
Fe155 O173 2.002 . S
O156 Fe154 1.918 . S
O156 Fe155 1.918 . S
O156 Fe157 1.918 . S
Fe157 O156 1.918 . S
Fe157 O158 2.002 . S
Fe157 O167 1.976 . S
Fe157 O171 1.996 . S
Fe157 O174 1.997 . S
O158 Fe157 2.002 . S
O158 C175 1.295 . S
O159 Fe154 1.997 . S
O159 C175 1.235 . S
O160 Fe154 2.002 . S
O160 C161 1.295 . S
C161 O160 1.295 . S
C161 O163 1.235 . S
C162 O167 1.287 . S
C162 O168 1.255 . S
O163 Fe155 1.997 . S
O163 C161 1.235 . S
C164 O170 1.287 . S
C164 O171 1.255 . S
O165 Fe154 1.976 . S
O165 C172 1.287 . S
O166 Fe155 1.996 . S
O166 C172 1.255 . S
O167 Fe157 1.976 . S
O167 C162 1.287 . S
O168 Fe154 1.996 . S
O168 C162 1.255 . S
C169 O173 1.295 . S
C169 O174 1.235 . S
O170 Fe155 1.976 . S
O170 C164 1.287 . S
O171 Fe157 1.996 . S
O171 C164 1.255 . S
C172 O165 1.287 . S
C172 O166 1.255 . S
O173 Fe155 2.002 . S
O173 C169 1.295 . S
O174 Fe157 1.997 . S
O174 C169 1.235 . S
C175 O158 1.295 . S
C175 O159 1.235 . S
Fe176 O178 1.918 . S
Fe176 O181 1.997 . S
Fe176 O182 2.002 1_545 S
Fe176 O187 1.976 1_545 S
Fe176 O190 1.996 . S
Fe177 O178 1.918 1_565 S
Fe177 O185 1.997 . S
Fe177 O188 1.996 . S
Fe177 O192 1.976 . S
Fe177 O195 2.002 1_565 S
O178 Fe176 1.918 . S
O178 Fe177 1.918 1_545 S
O178 Fe179 1.918 . S
Fe179 O178 1.918 . S
Fe179 O180 2.002 . S
Fe179 O189 1.976 . S
Fe179 O193 1.996 . S
Fe179 O196 1.997 . S
O180 Fe179 2.002 . S
O180 C197 1.295 . S
O181 Fe176 1.997 . S
O181 C197 1.235 . S
O182 Fe176 2.002 1_565 S
O182 C183 1.295 . S
C183 O182 1.295 . S
C183 O185 1.235 . S
C184 O189 1.287 . S
C184 O190 1.255 . S
O185 Fe177 1.997 . S
O185 C183 1.235 . S
C186 O192 1.287 1_545 S
C186 O193 1.255 . S
O187 Fe176 1.976 1_565 S
O187 C194 1.287 . S
O188 Fe177 1.996 . S
O188 C194 1.255 . S
O189 Fe179 1.976 . S
O189 C184 1.287 . S
O190 Fe176 1.996 . S
O190 C184 1.255 . S
C191 O195 1.295 . S
C191 O196 1.235 . S
O192 Fe177 1.976 . S
O192 C186 1.287 1_565 S
O193 Fe179 1.996 . S
O193 C186 1.255 . S
C194 O187 1.287 . S
C194 O188 1.255 . S
O195 Fe177 2.002 1_545 S
O195 C191 1.295 . S
O196 Fe179 1.997 . S
O196 C191 1.235 . S
C197 O180 1.295 . S
C197 O181 1.235 . S
Fe198 O200 1.918 . S
Fe198 O203 1.997 . S
Fe198 O204 2.002 . S
Fe198 O209 1.976 . S
Fe198 O212 1.996 . S
Fe199 O200 1.918 . S
Fe199 O207 1.997 . S
Fe199 O210 1.996 . S
Fe199 O214 1.976 . S
Fe199 O217 2.002 . S
O200 Fe198 1.918 . S
O200 Fe199 1.918 . S
O200 Fe201 1.918 . S
Fe201 O200 1.918 . S
Fe201 O202 2.002 . S
Fe201 O211 1.976 . S
Fe201 O215 1.996 . S
Fe201 O218 1.997 . S
O202 Fe201 2.002 . S
O202 C219 1.295 . S
O203 Fe198 1.997 . S
O203 C219 1.235 . S
O204 Fe198 2.002 . S
O204 C205 1.295 . S
C205 O204 1.295 . S
C205 O207 1.235 . S
C206 O211 1.287 . S
C206 O212 1.255 . S
O207 Fe199 1.997 . S
O207 C205 1.235 . S
C208 O214 1.287 . S
C208 O215 1.255 . S
O209 Fe198 1.976 . S
O209 C216 1.287 . S
O210 Fe199 1.996 . S
O210 C216 1.255 . S
O211 Fe201 1.976 . S
O211 C206 1.287 . S
O212 Fe198 1.996 . S
O212 C206 1.255 . S
C213 O217 1.295 . S
C213 O218 1.235 . S
O214 Fe199 1.976 . S
O214 C208 1.287 . S
O215 Fe201 1.996 . S
O215 C208 1.255 . S
C216 O209 1.287 . S
C216 O210 1.255 . S
O217 Fe199 2.002 . S
O217 C213 1.295 . S
O218 Fe201 1.997 . S
O218 C213 1.235 . S
C219 O202 1.295 . S
C219 O203 1.235 . S
Fe220 O222 1.918 1_545 S
Fe220 O225 1.997 . S
Fe220 O226 2.002 1_545 S
Fe220 O231 1.976 . S
Fe220 O234 1.996 . S
Fe221 O222 1.918 . S
Fe221 O229 1.997 . S
Fe221 O232 1.996 . S
Fe221 O236 1.976 . S
Fe221 O239 2.002 . S
O222 Fe220 1.918 1_565 S
O222 Fe221 1.918 . S
O222 Fe223 1.918 . S
Fe223 O222 1.918 . S
Fe223 O224 2.002 1_565 S
Fe223 O233 1.976 1_565 S
Fe223 O237 1.996 . S
Fe223 O240 1.997 . S
O224 Fe223 2.002 1_545 S
O224 C241 1.295 1_455 S
O225 Fe220 1.997 . S
O225 C241 1.235 1_455 S
O226 Fe220 2.002 1_565 S
O226 C227 1.295 . S
C227 O226 1.295 . S
C227 O229 1.235 . S
C228 O233 1.287 . S
C228 O234 1.255 . S
O229 Fe221 1.997 . S
O229 C227 1.235 . S
C230 O236 1.287 . S
C230 O237 1.255 . S
O231 Fe220 1.976 . S
O231 C238 1.287 1_545 S
O232 Fe221 1.996 . S
O232 C238 1.255 . S
O233 Fe223 1.976 1_545 S
O233 C228 1.287 . S
O234 Fe220 1.996 . S
O234 C228 1.255 . S
C235 O239 1.295 . S
C235 O240 1.235 . S
O236 Fe221 1.976 . S
O236 C230 1.287 . S
O237 Fe223 1.996 . S
O237 C230 1.255 . S
C238 O231 1.287 1_565 S
C238 O232 1.255 . S
O239 Fe221 2.002 . S
O239 C235 1.295 . S
O240 Fe223 1.997 . S
O240 C235 1.235 . S
C241 O224 1.295 1_655 S
C241 O225 1.235 1_655 S
Fe242 O244 1.918 . S
Fe242 O247 1.997 . S
Fe242 O248 2.002 . S
Fe242 O253 1.976 . S
Fe242 O256 1.996 . S
Fe243 O244 1.918 . S
Fe243 O251 1.997 . S
Fe243 O254 1.996 . S
Fe243 O258 1.976 . S
Fe243 O261 2.002 . S
O244 Fe242 1.918 . S
O244 Fe243 1.918 . S
O244 Fe245 1.918 . S
Fe245 O244 1.918 . S
Fe245 O246 2.002 1_554 S
Fe245 O255 1.976 1_554 S
Fe245 O259 1.996 . S
Fe245 O262 1.997 . S
O246 Fe245 2.002 1_556 S
O246 C263 1.295 . S
O247 Fe242 1.997 . S
O247 C263 1.235 1_554 S
O248 Fe242 2.002 . S
O248 C249 1.295 . S
C249 O248 1.295 . S
C249 O251 1.235 . S
C250 O255 1.287 . S
C250 O256 1.255 1_556 S
O251 Fe243 1.997 . S
O251 C249 1.235 . S
C252 O258 1.287 . S
C252 O259 1.255 . S
O253 Fe242 1.976 . S
O253 C260 1.287 . S
O254 Fe243 1.996 . S
O254 C260 1.255 . S
O255 Fe245 1.976 1_556 S
O255 C250 1.287 . S
O256 Fe242 1.996 . S
O256 C250 1.255 1_554 S
C257 O261 1.295 . S
C257 O262 1.235 . S
O258 Fe243 1.976 . S
O258 C252 1.287 . S
O259 Fe245 1.996 . S
O259 C252 1.255 . S
C260 O253 1.287 . S
C260 O254 1.255 . S
O261 Fe243 2.002 . S
O261 C257 1.295 . S
O262 Fe245 1.997 . S
O262 C257 1.235 . S
C263 O246 1.295 . S
C263 O247 1.235 1_556 S
Fe264 O266 1.918 . S
Fe264 O269 1.997 . S
Fe264 O270 2.002 . S
Fe264 O275 1.976 . S
Fe264 O278 1.996 . S
Fe265 O266 1.918 . S
Fe265 O273 1.997 . S
Fe265 O276 1.996 . S
Fe265 O280 1.976 . S
Fe265 O283 2.002 . S
O266 Fe264 1.918 . S
O266 Fe265 1.918 . S
O266 Fe267 1.918 . S
Fe267 O266 1.918 . S
Fe267 O268 2.002 . S
Fe267 O277 1.976 . S
Fe267 O281 1.996 . S
Fe267 O284 1.997 . S
O268 Fe267 2.002 . S
O268 C285 1.295 . S
O269 Fe264 1.997 . S
O269 C285 1.235 . S
O270 Fe264 2.002 . S
O270 C271 1.295 1_655 S
C271 O270 1.295 1_455 S
C271 O273 1.235 1_455 S
C272 O277 1.287 . S
C272 O278 1.255 . S
O273 Fe265 1.997 . S
O273 C271 1.235 1_655 S
C274 O280 1.287 . S
C274 O281 1.255 . S
O275 Fe264 1.976 . S
O275 C282 1.287 . S
O276 Fe265 1.996 . S
O276 C282 1.255 . S
O277 Fe267 1.976 . S
O277 C272 1.287 . S
O278 Fe264 1.996 . S
O278 C272 1.255 . S
C279 O283 1.295 . S
C279 O284 1.235 . S
O280 Fe265 1.976 . S
O280 C274 1.287 . S
O281 Fe267 1.996 . S
O281 C274 1.255 . S
C282 O275 1.287 . S
C282 O276 1.255 . S
O283 Fe265 2.002 . S
O283 C279 1.295 . S
O284 Fe267 1.997 . S
O284 C279 1.235 . S
C285 O268 1.295 . S
C285 O269 1.235 . S
Fe286 O288 1.918 . S
Fe286 O291 1.997 . S
Fe286 O292 2.002 1_556 S
Fe286 O297 1.976 1_556 S
Fe286 O300 1.996 . S
Fe287 O288 1.918 . S
Fe287 O295 1.997 . S
Fe287 O298 1.996 . S
Fe287 O302 1.976 . S
Fe287 O305 2.002 . S
O288 Fe286 1.918 . S
O288 Fe287 1.918 . S
O288 Fe289 1.918 . S
Fe289 O288 1.918 . S
Fe289 O290 2.002 . S
Fe289 O299 1.976 . S
Fe289 O303 1.996 . S
Fe289 O306 1.997 . S
O290 Fe289 2.002 . S
O290 C307 1.295 . S
O291 Fe286 1.997 . S
O291 C307 1.235 . S
O292 Fe286 2.002 1_554 S
O292 C293 1.295 . S
C293 O292 1.295 . S
C293 O295 1.235 1_554 S
C294 O299 1.287 . S
C294 O300 1.255 . S
O295 Fe287 1.997 . S
O295 C293 1.235 1_556 S
C296 O302 1.287 . S
C296 O303 1.255 . S
O297 Fe286 1.976 1_554 S
O297 C304 1.287 . S
O298 Fe287 1.996 . S
O298 C304 1.255 1_556 S
O299 Fe289 1.976 . S
O299 C294 1.287 . S
O300 Fe286 1.996 . S
O300 C294 1.255 . S
C301 O305 1.295 . S
C301 O306 1.235 . S
O302 Fe287 1.976 . S
O302 C296 1.287 . S
O303 Fe289 1.996 . S
O303 C296 1.255 . S
C304 O297 1.287 . S
C304 O298 1.255 1_554 S
O305 Fe287 2.002 . S
O305 C301 1.295 . S
O306 Fe289 1.997 . S
O306 C301 1.235 . S
C307 O290 1.295 . S
C307 O291 1.235 . S
Fe308 O310 1.918 . S
Fe308 O313 1.997 . S
Fe308 O314 2.002 . S
Fe308 O319 1.976 . S
Fe308 O322 1.996 . S
Fe309 O310 1.918 . S
Fe309 O317 1.997 . S
Fe309 O320 1.996 . S
Fe309 O324 1.976 . S
Fe309 O327 2.002 . S
O310 Fe308 1.918 . S
O310 Fe309 1.918 . S
O310 Fe311 1.918 . S
Fe311 O310 1.918 . S
Fe311 O312 2.002 . S
Fe311 O321 1.976 . S
Fe311 O325 1.996 . S
Fe311 O328 1.997 . S
O312 Fe311 2.002 . S
O312 C329 1.295 . S
O313 Fe308 1.997 . S
O313 C329 1.235 . S
O314 Fe308 2.002 . S
O314 C315 1.295 . S
C315 O314 1.295 . S
C315 O317 1.235 . S
C316 O321 1.287 . S
C316 O322 1.255 . S
O317 Fe309 1.997 . S
O317 C315 1.235 . S
C318 O324 1.287 . S
C318 O325 1.255 . S
O319 Fe308 1.976 . S
O319 C326 1.287 . S
O320 Fe309 1.996 . S
O320 C326 1.255 . S
O321 Fe311 1.976 . S
O321 C316 1.287 . S
O322 Fe308 1.996 . S
O322 C316 1.255 . S
C323 O327 1.295 . S
C323 O328 1.235 . S
O324 Fe309 1.976 . S
O324 C318 1.287 . S
O325 Fe311 1.996 . S
O325 C318 1.255 . S
C326 O319 1.287 . S
C326 O320 1.255 . S
O327 Fe309 2.002 . S
O327 C323 1.295 . S
O328 Fe311 1.997 . S
O328 C323 1.235 . S
C329 O312 1.295 . S
C329 O313 1.235 . S
Fe330 O332 1.918 . S
Fe330 O335 1.997 . S
Fe330 O336 2.002 . S
Fe330 O341 1.976 . S
Fe330 O344 1.996 . S
Fe331 O332 1.918 . S
Fe331 O339 1.997 . S
Fe331 O342 1.996 . S
Fe331 O346 1.976 . S
Fe331 O349 2.002 . S
O332 Fe330 1.918 . S
O332 Fe331 1.918 . S
O332 Fe333 1.918 . S
Fe333 O332 1.918 . S
Fe333 O334 2.002 . S
Fe333 O343 1.976 . S
Fe333 O347 1.996 . S
Fe333 O350 1.997 . S
O334 Fe333 2.002 . S
O334 C351 1.295 . S
O335 Fe330 1.997 . S
O335 C351 1.235 . S
O336 Fe330 2.002 . S
O336 C337 1.295 . S
C337 O336 1.295 . S
C337 O339 1.235 . S
C338 O343 1.287 . S
C338 O344 1.255 . S
O339 Fe331 1.997 . S
O339 C337 1.235 . S
C340 O346 1.287 . S
C340 O347 1.255 . S
O341 Fe330 1.976 . S
O341 C348 1.287 . S
O342 Fe331 1.996 . S
O342 C348 1.255 . S
O343 Fe333 1.976 . S
O343 C338 1.287 . S
O344 Fe330 1.996 . S
O344 C338 1.255 . S
C345 O349 1.295 . S
C345 O350 1.235 . S
O346 Fe331 1.976 . S
O346 C340 1.287 . S
O347 Fe333 1.996 . S
O347 C340 1.255 . S
C348 O341 1.287 . S
C348 O342 1.255 . S
O349 Fe331 2.002 . S
O349 C345 1.295 . S
O350 Fe333 1.997 . S
O350 C345 1.235 . S
C351 O334 1.295 . S
C351 O335 1.235 . S
Fe352 O354 1.918 . S
Fe352 O357 1.997 . S
Fe352 O358 2.002 . S
Fe352 O363 1.976 . S
Fe352 O366 1.996 . S
Fe353 O354 1.918 . S
Fe353 O361 1.997 . S
Fe353 O364 1.996 . S
Fe353 O368 1.976 1_554 S
Fe353 O371 2.002 1_554 S
O354 Fe352 1.918 . S
O354 Fe353 1.918 . S
O354 Fe355 1.918 1_554 S
Fe355 O354 1.918 1_556 S
Fe355 O356 2.002 1_556 S
Fe355 O365 1.976 . S
Fe355 O369 1.996 . S
Fe355 O372 1.997 . S
O356 Fe355 2.002 1_554 S
O356 C373 1.295 . S
O357 Fe352 1.997 . S
O357 C373 1.235 . S
O358 Fe352 2.002 . S
O358 C359 1.295 . S
C359 O358 1.295 . S
C359 O361 1.235 . S
C360 O365 1.287 1_554 S
C360 O366 1.255 . S
O361 Fe353 1.997 . S
O361 C359 1.235 . S
C362 O368 1.287 . S
C362 O369 1.255 . S
O363 Fe352 1.976 . S
O363 C370 1.287 . S
O364 Fe353 1.996 . S
O364 C370 1.255 . S
O365 Fe355 1.976 . S
O365 C360 1.287 1_556 S
O366 Fe352 1.996 . S
O366 C360 1.255 . S
C367 O371 1.295 . S
C367 O372 1.235 . S
O368 Fe353 1.976 1_556 S
O368 C362 1.287 . S
O369 Fe355 1.996 . S
O369 C362 1.255 . S
C370 O363 1.287 . S
C370 O364 1.255 . S
O371 Fe353 2.002 1_556 S
O371 C367 1.295 . S
O372 Fe355 1.997 . S
O372 C367 1.235 . S
C373 O356 1.295 . S
C373 O357 1.235 . S
Fe374 O376 1.918 1_554 S
Fe374 O379 1.997 . S
Fe374 O380 2.002 1_554 S
Fe374 O385 1.976 . S
Fe374 O388 1.996 . S
Fe375 O376 1.918 . S
Fe375 O383 1.997 . S
Fe375 O386 1.996 . S
Fe375 O390 1.976 . S
Fe375 O393 2.002 . S
O376 Fe374 1.918 1_556 S
O376 Fe375 1.918 . S
O376 Fe377 1.918 . S
Fe377 O376 1.918 . S
Fe377 O378 2.002 1_556 S
Fe377 O387 1.976 1_556 S
Fe377 O391 1.996 . S
Fe377 O394 1.997 . S
O378 Fe377 2.002 1_554 S
O378 C395 1.295 1_545 S
O379 Fe374 1.997 . S
O379 C395 1.235 1_545 S
O380 Fe374 2.002 1_556 S
O380 C381 1.295 . S
C381 O380 1.295 . S
C381 O383 1.235 . S
C382 O387 1.287 . S
C382 O388 1.255 . S
O383 Fe375 1.997 . S
O383 C381 1.235 . S
C384 O390 1.287 . S
C384 O391 1.255 . S
O385 Fe374 1.976 . S
O385 C392 1.287 1_554 S
O386 Fe375 1.996 . S
O386 C392 1.255 . S
O387 Fe377 1.976 1_554 S
O387 C382 1.287 . S
O388 Fe374 1.996 . S
O388 C382 1.255 . S
C389 O393 1.295 . S
C389 O394 1.235 . S
O390 Fe375 1.976 . S
O390 C384 1.287 . S
O391 Fe377 1.996 . S
O391 C384 1.255 . S
C392 O385 1.287 1_556 S
C392 O386 1.255 . S
O393 Fe375 2.002 . S
O393 C389 1.295 . S
O394 Fe377 1.997 . S
O394 C389 1.235 . S
C395 O378 1.295 1_565 S
C395 O379 1.235 1_565 S
Fe396 O398 1.918 . S
Fe396 O401 1.997 . S
Fe396 O402 2.002 . S
Fe396 O407 1.976 . S
Fe396 O410 1.996 . S
Fe397 O398 1.918 . S
Fe397 O405 1.997 . S
Fe397 O408 1.996 . S
Fe397 O412 1.976 . S
Fe397 O415 2.002 . S
O398 Fe396 1.918 . S
O398 Fe397 1.918 . S
O398 Fe399 1.918 . S
Fe399 O398 1.918 . S
Fe399 O400 2.002 . S
Fe399 O409 1.976 . S
Fe399 O413 1.996 . S
Fe399 O416 1.997 . S
O400 Fe399 2.002 . S
O400 C417 1.295 . S
O401 Fe396 1.997 . S
O401 C417 1.235 . S
O402 Fe396 2.002 . S
O402 C403 1.295 . S
C403 O402 1.295 . S
C403 O405 1.235 . S
C404 O409 1.287 . S
C404 O410 1.255 . S
O405 Fe397 1.997 . S
O405 C403 1.235 . S
C406 O412 1.287 . S
C406 O413 1.255 . S
O407 Fe396 1.976 . S
O407 C414 1.287 . S
O408 Fe397 1.996 . S
O408 C414 1.255 . S
O409 Fe399 1.976 . S
O409 C404 1.287 . S
O410 Fe396 1.996 . S
O410 C404 1.255 . S
C411 O415 1.295 . S
C411 O416 1.235 . S
O412 Fe397 1.976 . S
O412 C406 1.287 . S
O413 Fe399 1.996 . S
O413 C406 1.255 . S
C414 O407 1.287 . S
C414 O408 1.255 . S
O415 Fe397 2.002 . S
O415 C411 1.295 . S
O416 Fe399 1.997 . S
O416 C411 1.235 . S
C417 O400 1.295 . S
C417 O401 1.235 . S
Fe418 O420 1.918 . S
Fe418 O423 1.997 . S
Fe418 O424 2.002 . S
Fe418 O429 1.976 . S
Fe418 O432 1.996 . S
Fe419 O420 1.918 . S
Fe419 O427 1.997 . S
Fe419 O430 1.996 . S
Fe419 O434 1.976 . S
Fe419 O437 2.002 . S
O420 Fe418 1.918 . S
O420 Fe419 1.918 . S
O420 Fe421 1.918 . S
Fe421 O420 1.918 . S
Fe421 O422 2.002 . S
Fe421 O431 1.976 . S
Fe421 O435 1.996 . S
Fe421 O438 1.997 . S
O422 Fe421 2.002 . S
O422 C439 1.295 1_565 S
O423 Fe418 1.997 . S
O423 C439 1.235 1_565 S
O424 Fe418 2.002 . S
O424 C425 1.295 . S
C425 O424 1.295 . S
C425 O427 1.235 . S
C426 O431 1.287 . S
C426 O432 1.255 . S
O427 Fe419 1.997 . S
O427 C425 1.235 . S
C428 O434 1.287 . S
C428 O435 1.255 . S
O429 Fe418 1.976 . S
O429 C436 1.287 . S
O430 Fe419 1.996 . S
O430 C436 1.255 . S
O431 Fe421 1.976 . S
O431 C426 1.287 . S
O432 Fe418 1.996 . S
O432 C426 1.255 . S
C433 O437 1.295 . S
C433 O438 1.235 . S
O434 Fe419 1.976 . S
O434 C428 1.287 . S
O435 Fe421 1.996 . S
O435 C428 1.255 . S
C436 O429 1.287 . S
C436 O430 1.255 . S
O437 Fe419 2.002 . S
O437 C433 1.295 . S
O438 Fe421 1.997 . S
O438 C433 1.235 . S
C439 O422 1.295 1_545 S
C439 O423 1.235 1_545 S
Fe440 O442 1.918 . S
Fe440 O445 1.997 . S
Fe440 O446 2.002 . S
Fe440 O451 1.976 . S
Fe440 O454 1.996 . S
Fe441 O442 1.918 . S
Fe441 O449 1.997 . S
Fe441 O452 1.996 . S
Fe441 O456 1.976 . S
Fe441 O459 2.002 . S
O442 Fe440 1.918 . S
O442 Fe441 1.918 . S
O442 Fe443 1.918 . S
Fe443 O442 1.918 . S
Fe443 O444 2.002 . S
Fe443 O453 1.976 . S
Fe443 O457 1.996 . S
Fe443 O460 1.997 . S
O444 Fe443 2.002 . S
O444 C461 1.295 . S
O445 Fe440 1.997 . S
O445 C461 1.235 . S
O446 Fe440 2.002 . S
O446 C447 1.295 . S
C447 O446 1.295 . S
C447 O449 1.235 . S
C448 O453 1.287 . S
C448 O454 1.255 . S
O449 Fe441 1.997 . S
O449 C447 1.235 . S
C450 O456 1.287 . S
C450 O457 1.255 . S
O451 Fe440 1.976 . S
O451 C458 1.287 . S
O452 Fe441 1.996 . S
O452 C458 1.255 . S
O453 Fe443 1.976 . S
O453 C448 1.287 . S
O454 Fe440 1.996 . S
O454 C448 1.255 . S
C455 O459 1.295 . S
C455 O460 1.235 . S
O456 Fe441 1.976 . S
O456 C450 1.287 . S
O457 Fe443 1.996 . S
O457 C450 1.255 . S
C458 O451 1.287 . S
C458 O452 1.255 . S
O459 Fe441 2.002 . S
O459 C455 1.295 . S
O460 Fe443 1.997 . S
O460 C455 1.235 . S
C461 O444 1.295 . S
C461 O445 1.235 . S
Fe462 O464 1.918 . S
Fe462 O467 1.997 . S
Fe462 O468 2.002 . S
Fe462 O473 1.976 . S
Fe462 O476 1.996 . S
Fe463 O464 1.918 . S
Fe463 O471 1.997 . S
Fe463 O474 1.996 . S
Fe463 O478 1.976 . S
Fe463 O481 2.002 . S
O464 Fe462 1.918 . S
O464 Fe463 1.918 . S
O464 Fe465 1.918 . S
Fe465 O464 1.918 . S
Fe465 O466 2.002 . S
Fe465 O475 1.976 . S
Fe465 O479 1.996 . S
Fe465 O482 1.997 . S
O466 Fe465 2.002 . S
O466 C483 1.295 . S
O467 Fe462 1.997 . S
O467 C483 1.235 . S
O468 Fe462 2.002 . S
O468 C469 1.295 . S
C469 O468 1.295 . S
C469 O471 1.235 . S
C470 O475 1.287 . S
C470 O476 1.255 . S
O471 Fe463 1.997 . S
O471 C469 1.235 . S
C472 O478 1.287 . S
C472 O479 1.255 . S
O473 Fe462 1.976 . S
O473 C480 1.287 . S
O474 Fe463 1.996 . S
O474 C480 1.255 . S
O475 Fe465 1.976 . S
O475 C470 1.287 . S
O476 Fe462 1.996 . S
O476 C470 1.255 . S
C477 O481 1.295 . S
C477 O482 1.235 . S
O478 Fe463 1.976 . S
O478 C472 1.287 . S
O479 Fe465 1.996 . S
O479 C472 1.255 . S
C480 O473 1.287 . S
C480 O474 1.255 . S
O481 Fe463 2.002 . S
O481 C477 1.295 . S
O482 Fe465 1.997 . S
O482 C477 1.235 . S
C483 O466 1.295 . S
C483 O467 1.235 . S
Fe484 O486 1.918 . S
Fe484 O489 1.997 . S
Fe484 O490 2.002 . S
Fe484 O495 1.976 . S
Fe484 O498 1.996 . S
Fe485 O486 1.918 . S
Fe485 O493 1.997 . S
Fe485 O496 1.996 . S
Fe485 O500 1.976 1_565 S
Fe485 O503 2.002 1_565 S
O486 Fe484 1.918 . S
O486 Fe485 1.918 . S
O486 Fe487 1.918 . S
Fe487 O486 1.918 . S
Fe487 O488 2.002 . S
Fe487 O497 1.976 . S
Fe487 O501 1.996 . S
Fe487 O504 1.997 . S
O488 Fe487 2.002 . S
O488 C505 1.295 . S
O489 Fe484 1.997 . S
O489 C505 1.235 . S
O490 Fe484 2.002 . S
O490 C491 1.295 . S
C491 O490 1.295 . S
C491 O493 1.235 . S
C492 O497 1.287 . S
C492 O498 1.255 . S
O493 Fe485 1.997 . S
O493 C491 1.235 . S
C494 O500 1.287 . S
C494 O501 1.255 1_545 S
O495 Fe484 1.976 . S
O495 C502 1.287 . S
O496 Fe485 1.996 . S
O496 C502 1.255 . S
O497 Fe487 1.976 . S
O497 C492 1.287 . S
O498 Fe484 1.996 . S
O498 C492 1.255 . S
C499 O503 1.295 . S
C499 O504 1.235 1_545 S
O500 Fe485 1.976 1_545 S
O500 C494 1.287 . S
O501 Fe487 1.996 . S
O501 C494 1.255 1_565 S
C502 O495 1.287 . S
C502 O496 1.255 . S
O503 Fe485 2.002 1_545 S
O503 C499 1.295 . S
O504 Fe487 1.997 . S
O504 C499 1.235 1_565 S
C505 O488 1.295 . S
C505 O489 1.235 . S
Fe506 O508 1.918 . S
Fe506 O511 1.997 . S
Fe506 O512 2.002 . S
Fe506 O517 1.976 . S
Fe506 O520 1.996 . S
Fe507 O508 1.918 . S
Fe507 O515 1.997 . S
Fe507 O518 1.996 . S
Fe507 O522 1.976 . S
Fe507 O525 2.002 . S
O508 Fe506 1.918 . S
O508 Fe507 1.918 . S
O508 Fe509 1.918 . S
Fe509 O508 1.918 . S
Fe509 O510 2.002 1_545 S
Fe509 O519 1.976 1_545 S
Fe509 O523 1.996 . S
Fe509 O526 1.997 . S
O510 Fe509 2.002 1_565 S
O510 C527 1.295 . S
O511 Fe506 1.997 . S
O511 C527 1.235 1_545 S
O512 Fe506 2.002 . S
O512 C513 1.295 . S
C513 O512 1.295 . S
C513 O515 1.235 . S
C514 O519 1.287 . S
C514 O520 1.255 1_565 S
O515 Fe507 1.997 . S
O515 C513 1.235 . S
C516 O522 1.287 . S
C516 O523 1.255 . S
O517 Fe506 1.976 . S
O517 C524 1.287 . S
O518 Fe507 1.996 . S
O518 C524 1.255 . S
O519 Fe509 1.976 1_565 S
O519 C514 1.287 . S
O520 Fe506 1.996 . S
O520 C514 1.255 1_545 S
C521 O525 1.295 . S
C521 O526 1.235 . S
O522 Fe507 1.976 . S
O522 C516 1.287 . S
O523 Fe509 1.996 . S
O523 C516 1.255 . S
C524 O517 1.287 . S
C524 O518 1.255 . S
O525 Fe507 2.002 . S
O525 C521 1.295 . S
O526 Fe509 1.997 . S
O526 C521 1.235 . S
C527 O510 1.295 . S
C527 O511 1.235 1_565 S
C8 C348 1.118 . S
C282 C32 1.118 . S
C294 C52 1.118 . S
C76 C316 1.118 . S
C96 C206 1.118 . S
C120 C228 1.118 . S
C150 C252 1.118 . S
C172 C194 1.118 . S
C362 C448 1.118 . S
C382 C516 1.118 . S
C406 C480 1.118 . S
C426 C502 1.118 . S
C469 C15 1.729 . S
C29 C491 1.729 . S
C59 C367 1.729 . S
C73 C521 1.729 . S
C439 C103 1.729 . S
C461 C117 1.729 . S
C153 C395 1.729 . S
C175 C411 1.729 . S
C197 C109 1.729 . S
C213 C125 1.729 . S
C235 C139 1.729 . S
C249 C161 1.729 . S
C21 C285 1.729 . S
C301 C37 1.729 . S
C323 C65 1.729 . S
C351 C81 1.729 . S
C329 C359 1.729 . S
C241 C389 1.729 . S
C403 C257 1.729 . S
C183 C433 1.729 . S
C455 C219 1.729 . S
C271 C483 1.729 . S
C307 C505 1.729 . S
C337 C513 1.729 . S
C404 C10 1.891 . S
C40 C436 1.891 . S
C458 C54 1.891 . S
C84 C392 1.891 1_554 S
C494 C98 1.891 . S
C360 C128 1.891 1_554 S
C514 C140 1.891 . S
C472 C162 1.891 . S
C216 C184 1.891 . S
C238 C208 1.891 1_565 S
C230 C250 1.891 . S
C260 C186 1.891 1_565 S
C340 C272 1.891 . S
C274 C296 1.891 . S
C318 C304 1.891 . S
C338 C326 1.891 . S
C74 C370 1.891 . S
C118 C384 1.891 . S
C142 C414 1.891 1_655 S
C164 C428 1.891 . S
C106 C450 1.891 . S
C30 C470 1.891 . S
C62 C492 1.891 . S
C524 C18 1.891 1_655 S
C7 C205 1.645 . S
C227 C43 1.645 . S
C51 C263 1.645 . S
C87 C191 1.645 . S
C95 C345 1.645 . S
C279 C131 1.645 . S
C147 C293 1.645 . S
C169 C315 1.645 . S
C373 C417 1.645 . S
C381 C499 1.645 . S
C527 C425 1.645 . S
C447 C477 1.645 . S
