# Generated by pormake.
# Topology wkf, (6)-cn, num edge types: 1
# Building blocks:
#     Node 0, Type 0, BuildingBlock: CUWYAW_clean_sbu_0, # of connection points: 6
#     Node 1, Type 0, BuildingBlock: CUWYAW_clean_sbu_0, # of connection points: 6
#     Node 2, Type 0, BuildingBlock: CUWYAW_clean_sbu_0, # of connection points: 6
#     Node 3, Type 0, BuildingBlock: CUWYAW_clean_sbu_0, # of connection points: 6
#     Node 4, Type 0, BuildingBlock: CUWYAW_clean_sbu_0, # of connection points: 6
#     Node 5, Type 0, BuildingBlock: CUWYAW_clean_sbu_0, # of connection points: 6
#     Node 6, Type 0, BuildingBlock: CUWYAW_clean_sbu_0, # of connection points: 6
#     Node 7, Type 0, BuildingBlock: CUWYAW_clean_sbu_0, # of connection points: 6
#     Node 8, Type 0, BuildingBlock: CUWYAW_clean_sbu_0, # of connection points: 6
#     Node 9, Type 0, BuildingBlock: CUWYAW_clean_sbu_0, # of connection points: 6
#     Node 10, Type 0, BuildingBlock: CUWYAW_clean_sbu_0, # of connection points: 6
#     Node 11, Type 0, BuildingBlock: CUWYAW_clean_sbu_0, # of connection points: 6
#     Edge 12, Type (0, 0), BuildingBlock: CIFDUS_clean_linker_0, # of connection points: 2
#     Edge 13, Type (0, 0), BuildingBlock: CIFDUS_clean_linker_0, # of connection points: 2
#     Edge 14, Type (0, 0), BuildingBlock: CIFDUS_clean_linker_0, # of connection points: 2
#     Edge 15, Type (0, 0), BuildingBlock: CIFDUS_clean_linker_0, # of connection points: 2
#     Edge 16, Type (0, 0), BuildingBlock: CIFDUS_clean_linker_0, # of connection points: 2
#     Edge 17, Type (0, 0), BuildingBlock: CIFDUS_clean_linker_0, # of connection points: 2
#     Edge 18, Type (0, 0), BuildingBlock: CIFDUS_clean_linker_0, # of connection points: 2
#     Edge 19, Type (0, 0), BuildingBlock: CIFDUS_clean_linker_0, # of connection points: 2
#     Edge 20, Type (0, 0), BuildingBlock: CIFDUS_clean_linker_0, # of connection points: 2
#     Edge 21, Type (0, 0), BuildingBlock: CIFDUS_clean_linker_0, # of connection points: 2
#     Edge 22, Type (0, 0), BuildingBlock: CIFDUS_clean_linker_0, # of connection points: 2
#     Edge 23, Type (0, 0), BuildingBlock: CIFDUS_clean_linker_0, # of connection points: 2
#     Edge 24, Type (0, 0), BuildingBlock: CIFDUS_clean_linker_0, # of connection points: 2
#     Edge 25, Type (0, 0), BuildingBlock: CIFDUS_clean_linker_0, # of connection points: 2
#     Edge 26, Type (0, 0), BuildingBlock: CIFDUS_clean_linker_0, # of connection points: 2
#     Edge 27, Type (0, 0), BuildingBlock: CIFDUS_clean_linker_0, # of connection points: 2
#     Edge 28, Type (0, 0), BuildingBlock: CIFDUS_clean_linker_0, # of connection points: 2
#     Edge 29, Type (0, 0), BuildingBlock: CIFDUS_clean_linker_0, # of connection points: 2
#     Edge 30, Type (0, 0), BuildingBlock: CIFDUS_clean_linker_0, # of connection points: 2
#     Edge 31, Type (0, 0), BuildingBlock: CIFDUS_clean_linker_0, # of connection points: 2
#     Edge 32, Type (0, 0), BuildingBlock: CIFDUS_clean_linker_0, # of connection points: 2
#     Edge 33, Type (0, 0), BuildingBlock: CIFDUS_clean_linker_0, # of connection points: 2
#     Edge 34, Type (0, 0), BuildingBlock: CIFDUS_clean_linker_0, # of connection points: 2
#     Edge 35, Type (0, 0), BuildingBlock: CIFDUS_clean_linker_0, # of connection points: 2
#     Edge 36, Type (0, 0), BuildingBlock: CIFDUS_clean_linker_0, # of connection points: 2
#     Edge 37, Type (0, 0), BuildingBlock: CIFDUS_clean_linker_0, # of connection points: 2
#     Edge 38, Type (0, 0), BuildingBlock: CIFDUS_clean_linker_0, # of connection points: 2
#     Edge 39, Type (0, 0), BuildingBlock: CIFDUS_clean_linker_0, # of connection points: 2
#     Edge 40, Type (0, 0), BuildingBlock: CIFDUS_clean_linker_0, # of connection points: 2
#     Edge 41, Type (0, 0), BuildingBlock: CIFDUS_clean_linker_0, # of connection points: 2
#     Edge 42, Type (0, 0), BuildingBlock: CIFDUS_clean_linker_0, # of connection points: 2
#     Edge 43, Type (0, 0), BuildingBlock: CIFDUS_clean_linker_0, # of connection points: 2
#     Edge 44, Type (0, 0), BuildingBlock: CIFDUS_clean_linker_0, # of connection points: 2
#     Edge 45, Type (0, 0), BuildingBlock: CIFDUS_clean_linker_0, # of connection points: 2
#     Edge 46, Type (0, 0), BuildingBlock: CIFDUS_clean_linker_0, # of connection points: 2
#     Edge 47, Type (0, 0), BuildingBlock: CIFDUS_clean_linker_0, # of connection points: 2
# Relax obj value: 0.353
# Max RMSD: 0.278
# Mean RMSD: 0.269
data_MOF--net-wkf--node1-CUWYAW_clean_sbu_0--edge1-CIFDUS_clean_linker_0
_symmetry_space_group_name_H-M    P1
_symmetry_Int_Tables_number       1
_symmetry_cell_setting            triclinic
loop_
_symmetry_equiv_pos_as_xyz
'x, y, z'
_cell_length_a     25.436411
_cell_length_b     25.434407
_cell_length_c     86.604985
_cell_angle_alpha  89.628459
_cell_angle_beta   89.935818
_cell_angle_gamma 119.62035
loop_
_atom_site_label
_atom_site_type_symbol
_atom_site_fract_x
_atom_site_fract_y
_atom_site_fract_z
_atom_type_partial_charge
C0 C 0.33479 0.89905 0.36895 0.0
Eu1 Eu 0.43007 0.94107 0.38748 0.0
C2 C 0.30116 0.86179 0.35515 0.0
C3 C 0.27842 0.88643 0.34413 0.0
C4 C 0.24577 0.85321 0.33112 0.0
C5 C 0.23475 0.79394 0.32858 0.0
C6 C 0.25705 0.76906 0.33979 0.0
C7 C 0.2896 0.80233 0.35284 0.0
C8 C 0.51209 0.06379 0.38323 0.0
C9 C 0.51142 0.86793 0.38183 0.0
C10 C 0.62266 1.02853 0.42248 0.0
Eu11 Eu 0.52949 0.97003 0.40494 0.0
C12 C 0.63274 0.07636 0.43352 0.0
C13 C 0.59117 0.06528 0.4456 0.0
C14 C 0.59819 0.11202 0.45523 0.0
C15 C 0.64636 0.17074 0.45285 0.0
C16 C 0.68751 0.18178 0.4407 0.0
C17 C 0.68077 0.13502 0.43115 0.0
C18 C 0.43026 0.86812 0.41734 0.0
C19 C 0.44642 1.02116 0.41795 0.0
O20 O 0.33566 0.873 0.38196 0.0
O21 O 0.38587 0.94842 0.36646 0.0
O22 O 0.45432 1.039 0.38501 0.0
O23 O 0.5257 1.02061 0.38321 0.0
O24 O 0.4609 0.87076 0.37913 0.0
O25 O 0.55275 0.91031 0.39048 0.0
O26 O 0.62307 1.04214 0.40789 0.0
O27 O 0.57855 0.97477 0.42588 0.0
O28 O 0.48347 0.87433 0.41529 0.0
O29 O 0.43055 0.91435 0.41184 0.0
O30 O 0.5022 1.03257 0.41629 0.0
O31 O 0.40379 0.97747 0.40932 0.0
H32 H 0.2861 0.93197 0.34556 0.0
H33 H 0.23039 0.87473 0.32286 0.0
H34 H 0.24908 0.72338 0.33856 0.0
H35 H 0.30578 0.78148 0.36109 0.0
H36 H 0.55277 1.02064 0.44757 0.0
H37 H 0.56612 0.10227 0.46454 0.0
H38 H 0.72623 0.22632 0.43885 0.0
H39 H 0.71293 0.14476 0.42185 0.0
C40 C 0.5014 0.33146 0.53386 0.0
Eu41 Eu 0.55197 0.42024 0.55401 0.0
C42 C 0.49989 0.2898 0.52139 0.0
C43 C 0.44366 0.24317 0.51621 0.0
C44 C 0.43888 0.21078 0.5026 0.0
C45 C 0.49036 0.22378 0.49363 0.0
C46 C 0.54713 0.26867 0.49936 0.0
C47 C 0.55172 0.3015 0.51288 0.0
C48 C 0.50748 0.50045 0.55015 0.0
C49 C 0.70472 0.49812 0.54823 0.0
C50 C 0.67076 0.6303 0.58276 0.0
Eu51 Eu 0.62113 0.52459 0.57042 0.0
C52 C 0.65308 0.64523 0.59755 0.0
C53 C 0.64846 0.6119 0.61104 0.0
C54 C 0.62367 0.62042 0.62452 0.0
C55 C 0.60244 0.66182 0.6247 0.0
C56 C 0.60687 0.69492 0.61121 0.0
C57 C 0.63209 0.68678 0.59778 0.0
C58 C 0.60886 0.42779 0.58758 0.0
C59 C 0.49122 0.43874 0.58492 0.0
O60 O 0.50602 0.32185 0.54859 0.0
O61 O 0.52645 0.38895 0.53046 0.0
O62 O 0.47642 0.44336 0.55311 0.0
O63 O 0.56369 0.51426 0.54928 0.0
O64 O 0.6512 0.45036 0.5446 0.0
O65 O 0.70483 0.53792 0.55775 0.0
O66 O 0.63012 0.61415 0.57191 0.0
O67 O 0.69512 0.59559 0.58345 0.0
O68 O 0.60827 0.47479 0.59296 0.0
O69 O 0.61743 0.43327 0.57294 0.0
O70 O 0.53264 0.49528 0.58239 0.0
O71 O 0.49247 0.3955 0.57645 0.0
H72 H 0.40263 0.23363 0.5223 0.0
H73 H 0.39424 0.17744 0.49877 0.0
H74 H 0.58847 0.27959 0.49325 0.0
H75 H 0.59571 0.33741 0.5164 0.0
H76 H 0.66315 0.57855 0.61116 0.0
H77 H 0.62116 0.59483 0.63482 0.0
H78 H 0.59218 0.7283 0.61116 0.0
H79 H 0.63425 0.71216 0.58747 0.0
C80 C 0.2199 0.47243 0.70111 0.0
Eu81 Eu 0.18014 0.52551 0.7203 0.0
C82 C 0.26129 0.47158 0.6889 0.0
C83 C 0.24222 0.4184 0.68031 0.0
C84 C 0.2746 0.41724 0.66722 0.0
C85 C 0.32753 0.46943 0.66221 0.0
C86 C 0.34787 0.5222 0.67131 0.0
C87 C 0.31498 0.52341 0.68434 0.0
C88 C 1.05594 0.47957 0.7161 0.0
C89 C 0.25769 0.67781 0.71478 0.0
C90 C 0.08389 0.64532 0.74435 0.0
Eu91 Eu 0.14484 0.59446 0.736 0.0
C92 C 1.02216 0.60892 0.75025 0.0
C93 C 1.00809 0.62089 0.76496 0.0
C94 C 0.95778 0.57657 0.77288 0.0
C95 C 0.92101 0.51957 0.7662 0.0
C96 C 0.93346 0.50871 0.75118 0.0
C97 C 0.98356 0.55303 0.74327 0.0
C98 C 0.22876 0.58476 0.75356 0.0
C99 C 0.09866 0.46533 0.75085 0.0
O100 O 0.23548 0.4817 0.71572 0.0
O101 O 0.18508 0.49446 0.69723 0.0
O102 O 0.08198 0.44862 0.71955 0.0
O103 O 0.09753 0.53567 0.71519 0.0
O104 O 0.24549 0.6234 0.70956 0.0
O105 O 0.22413 0.67901 0.72607 0.0
O106 O 0.09203 0.63783 0.72979 0.0
O107 O 0.12431 0.64357 0.75326 0.0
O108 O 0.17992 0.58262 0.75872 0.0
O109 O 0.23311 0.59281 0.73887 0.0
O110 O 0.08192 0.50545 0.74757 0.0
O111 O 0.14517 0.46784 0.743 0.0
H112 H 0.20053 0.37785 0.6834 0.0
H113 H 0.2564 0.37585 0.66067 0.0
H114 H 0.38899 0.56328 0.66826 0.0
H115 H 0.33074 0.56524 0.6906 0.0
H116 H 1.03789 0.66309 0.77067 0.0
H117 H 0.94786 0.58683 0.78427 0.0
H118 H 0.9054 0.46546 0.74573 0.0
H119 H 0.99399 0.54199 0.73204 0.0
C120 C 0.79175 0.19535 0.86745 0.0
Eu121 Eu 0.69769 0.15491 0.88652 0.0
C122 C 0.82491 0.23474 0.85369 0.0
C123 C 0.79398 0.23074 0.83988 0.0
C124 C 0.82533 0.2585 0.82615 0.0
C125 C 0.88923 0.29256 0.82556 0.0
C126 C 0.92027 0.29748 0.83949 0.0
C127 C 0.88864 0.26881 0.85328 0.0
C128 C 0.62229 1.03122 0.88314 0.0
C129 C 0.6312 0.23839 0.88032 0.0
C130 C 0.48616 0.09044 0.90613 0.0
Eu131 Eu 0.60052 0.12903 0.90203 0.0
C132 C 0.43591 1.03108 0.90984 0.0
C133 C 0.38308 1.02688 0.9159 0.0
C134 C 0.34478 0.97698 0.92491 0.0
C135 C 0.35988 0.93178 0.92802 0.0
C136 C 0.40826 0.93217 0.92016 0.0
C137 C 0.44637 0.98195 0.91105 0.0
C138 C 0.69349 0.20846 0.92005 0.0
C139 C 0.66959 0.07175 0.91783 0.0
O140 O 0.79546 0.21771 0.88126 0.0
O141 O 0.73785 0.15038 0.86485 0.0
O142 O 0.67915 0.05821 0.88644 0.0
O143 O 0.6057 0.0719 0.88217 0.0
O144 O 0.65893 0.21176 0.8734 0.0
O145 O 0.61014 0.21812 0.89404 0.0
O146 O 0.51054 0.09671 0.89247 0.0
O147 O 0.52617 0.11307 0.91713 0.0
O148 O 0.64422 0.16188 0.9251 0.0
O149 O 0.6924 0.21327 0.90524 0.0
O150 O 0.61438 0.06045 0.91484 0.0
O151 O 0.71503 0.11498 0.90943 0.0
H152 H 0.74511 0.20415 0.83948 0.0
H153 H 0.79874 0.25143 0.81584 0.0
H154 H 0.96915 0.32345 0.8398 0.0
H155 H 0.91425 0.27205 0.86356 0.0
H156 H 0.37472 0.06464 0.915 0.0
H157 H 0.30689 0.9767 0.93073 0.0
H158 H 0.42047 0.89763 0.92241 0.0
H159 H 0.48736 0.98499 0.90639 0.0
C160 C 0.63879 0.77429 1.03667 0.0
Eu161 Eu 0.58666 0.68003 0.05584 0.0
C162 C 0.63605 0.80741 1.02245 0.0
C163 C 0.67909 0.82154 1.01056 0.0
C164 C 0.68017 0.85462 0.9973 0.0
C165 C 0.638 0.87479 0.99537 0.0
C166 C 0.59519 0.86106 1.0074 0.0
C167 C 0.59432 0.82814 1.02072 0.0
C168 C 0.62631 0.59686 0.05146 0.0
C169 C 0.4348 0.59436 1.04974 0.0
C170 C 0.48355 0.48819 0.09188 0.0
Eu171 Eu 0.51887 0.58107 0.07373 0.0
C172 C 0.51912 0.47858 0.10377 0.0
C173 C 0.55086 0.52275 0.11506 0.0
C174 C 0.59012 0.51638 0.12515 0.0
C175 C 0.59904 0.4665 0.12388 0.0
C176 C 0.56699 0.42234 0.11267 0.0
C177 C 0.5273 0.42828 0.10273 0.0
C178 C 0.51514 0.68075 0.08566 0.0
C179 C 0.65246 0.66408 0.08618 0.0
O180 O 0.61125 0.77399 1.04947 0.0
O181 O 0.63814 0.72328 1.03474 0.0
O182 O 0.65986 0.65424 0.05352 0.0
O183 O 0.57017 0.58414 0.05168 0.0
O184 O 0.48444 0.64891 1.04829 0.0
O185 O 0.44075 0.5531 0.05743 0.0
O186 O 0.50112 0.48884 0.07768 0.0
O187 O 0.47131 0.53136 0.09446 0.0
O188 O 0.46856 0.62764 0.08367 0.0
O189 O 0.5609 0.68015 0.08022 0.0
O190 O 0.60916 0.60812 0.08457 0.0
O191 O 0.65017 0.70666 0.0775 0.0
H192 H 0.71243 0.80697 1.01154 0.0
H193 H 0.71347 0.86328 0.9884 0.0
H194 H 0.56234 0.87627 1.00664 0.0
H195 H 0.561 0.81906 1.02965 0.0
H196 H 0.54633 0.56279 0.11594 0.0
H197 H 0.61398 0.55059 0.1338 0.0
H198 H 0.57182 0.38246 0.11175 0.0
H199 H 0.5038 0.39413 0.09404 0.0
C200 C 0.91276 0.61286 0.20276 0.0
Eu201 Eu 0.95463 0.56091 0.22212 0.0
C202 C 0.87498 0.60871 0.18884 0.0
C203 C 0.83985 0.63769 0.18849 0.0
C204 C 0.81343 0.6433 0.17459 0.0
C205 C 0.82181 0.62073 0.16045 0.0
C206 C 0.8569 0.59155 0.16099 0.0
C207 C 0.88227 0.58521 0.17482 0.0
C208 C 0.07876 0.61048 0.21801 0.0
C209 C 0.87478 0.41032 0.21717 0.0
C210 C 1.03571 0.42362 0.24088 0.0
Eu211 Eu 0.98727 0.49209 0.23763 0.0
C212 C 0.09707 0.43723 0.23699 0.0
C213 C 0.11753 0.39687 0.2407 0.0
C214 C 0.17813 0.41369 0.23817 0.0
C215 C 0.21868 0.47105 0.23189 0.0
C216 C 0.19656 0.50932 0.22719 0.0
C217 C 0.13636 0.49268 0.22986 0.0
C218 C 0.90474 0.50133 0.25596 0.0
C219 C 1.03638 0.61833 0.25298 0.0
O220 O 0.8897 0.594 0.21659 0.0
O221 O 0.95827 0.60412 0.20024 0.0
O222 O 1.051 0.63953 0.2217 0.0
O223 O 1.03883 0.55358 0.21712 0.0
O224 O 0.89729 0.46432 0.21013 0.0
O225 O 0.89884 0.41023 0.23047 0.0
O226 O 1.00323 0.42118 0.22895 0.0
O227 O 1.03169 0.45544 0.25215 0.0
O228 O 0.95183 0.49907 0.26087 0.0
O229 O 0.90014 0.49545 0.24121 0.0
O230 O 1.05185 0.57729 0.24981 0.0
O231 O 0.99124 0.61779 0.24485 0.0
H232 H 0.83412 0.6576 0.19893 0.0
H233 H 0.78655 0.66554 0.17496 0.0
H234 H 0.86679 0.57476 0.15058 0.0
H235 H 0.90983 0.56367 0.17434 0.0
H236 H 0.08749 0.35373 0.24614 0.0
H237 H 0.19405 0.38361 0.24218 0.0
H238 H 0.22673 0.55365 0.22236 0.0
H239 H 0.1209 0.52416 0.22698 0.0
C240 C 0.22968 0.78755 0.54008 0.0
Eu241 Eu 0.18441 0.68859 0.52285 0.0
C242 C 0.26719 0.81917 0.55402 0.0
C243 C 0.29063 0.88189 0.55585 0.0
C244 C 0.31965 0.91151 0.56964 0.0
C245 C 0.32634 0.87938 0.58212 0.0
C246 C 0.30279 0.8164 0.58017 0.0
C247 C 0.27379 0.78691 0.56641 0.0
C248 C 1.06258 0.60928 0.52877 0.0
C249 C 0.25819 0.60885 0.5299 0.0
C250 C 0.07912 0.47953 0.49605 0.0
Eu251 Eu 0.14999 0.58322 0.50804 0.0
C252 C 1.01435 0.45574 0.49313 0.0
C253 C 0.99307 0.44373 0.47795 0.0
C254 C 0.93436 0.4309 0.47462 0.0
C255 C 0.8957 0.42972 0.48643 0.0
C256 C 0.9167 0.44099 0.50166 0.0
C257 C 0.97569 0.45444 0.50498 0.0
C258 C 0.25373 0.67285 0.4939 0.0
C259 C 0.10266 0.66581 0.4924 0.0
O260 O 0.25538 0.78351 0.52739 0.0
O261 O 0.17874 0.73821 0.54266 0.0
O262 O 0.08632 0.66566 0.52503 0.0
O263 O 0.10551 0.59587 0.52945 0.0
O264 O 0.25435 0.65892 0.53229 0.0
O265 O 0.21641 0.56648 0.52141 0.0
O266 O 0.09535 0.48538 0.51056 0.0
O267 O 0.11492 0.52679 0.48767 0.0
O268 O 0.24278 0.61845 0.49704 0.0
O269 O 0.21012 0.67893 0.4988 0.0
O270 O 0.08925 0.61019 0.49565 0.0
O271 O 0.147 0.71041 0.50043 0.0
H272 H 0.28553 0.90808 0.54665 0.0
H273 H 0.33735 0.95982 0.57043 0.0
H274 H 0.30562 0.78918 0.58944 0.0
H275 H 0.25537 0.73846 0.56559 0.0
H276 H 1.0223 0.4455 0.46861 0.0
H277 H 0.91868 0.42027 0.46283 0.0
H278 H 0.88737 0.43909 0.51098 0.0
H279 H 0.99119 0.4648 0.51679 0.0
C280 C 0.49425 0.1963 0.70898 0.0
Eu281 Eu 0.54836 0.15674 0.68971 0.0
C282 C 0.49706 0.2319 0.72324 0.0
C283 C 0.47371 0.27206 0.72334 0.0
C284 C 0.4671 0.29734 0.73731 0.0
C285 C 0.48293 0.28281 0.75175 0.0
C286 C 0.50618 0.24246 0.75147 0.0
C287 C 0.51354 0.21817 0.73762 0.0
C288 C 0.50343 1.03304 0.69347 0.0
C289 C 0.69925 0.23774 0.6951 0.0
C290 C 0.69004 0.07898 0.67176 0.0
Eu291 Eu 0.62038 0.12612 0.67437 0.0
C292 C 0.67856 1.01837 0.67579 0.0
C293 C 0.72224 1.00164 0.67287 0.0
C294 C 0.7087 0.94205 0.67546 0.0
C295 C 0.65115 0.89848 0.681 0.0
C296 C 0.60911 0.9168 0.68496 0.0
C297 C 0.6227 0.97633 0.68232 0.0
C298 C 0.61055 0.20877 0.65615 0.0
C299 C 0.49465 0.07671 0.65846 0.0
O300 O 0.51544 0.22159 0.69546 0.0
O301 O 0.50154 0.14969 0.71118 0.0
O302 O 0.47233 0.05877 0.6898 0.0
O303 O 0.5592 0.075 0.69484 0.0
O304 O 0.64479 0.21456 0.70193 0.0
O305 O 0.70053 0.21461 0.68181 0.0
O306 O 0.69144 0.11129 0.68357 0.0
O307 O 0.65804 0.08187 0.6603 0.0
O308 O 0.61617 0.16374 0.65111 0.0
O309 O 0.61441 0.21183 0.67095 0.0
O310 O 0.53603 0.06177 0.66181 0.0
O311 O 0.49359 0.12084 0.66665 0.0
H312 H 0.45914 0.28289 0.71263 0.0
H313 H 0.44953 0.32833 0.73673 0.0
H314 H 0.5175 0.22776 0.76208 0.0
H315 H 0.5304 0.18658 0.73832 0.0
H316 H 0.76573 1.03388 0.66796 0.0
H317 H 0.74175 0.92925 0.67202 0.0
H318 H 0.56454 0.88434 0.68924 0.0
H319 H 0.58874 0.98899 0.68477 0.0
C320 C 0.33767 0.47214 0.8753 0.0
Eu321 Eu 0.43142 0.5224 0.85605 0.0
C322 C 0.30442 0.47605 0.88928 0.0
C323 C 0.29141 0.43483 0.90161 0.0
C324 C 0.25805 0.43461 0.91466 0.0
C325 C 0.23646 0.47586 0.91593 0.0
C326 C 0.24917 0.5169 0.90346 0.0
C327 C 0.28237 0.51689 0.89036 0.0
C328 C 0.51283 0.4801 0.86014 0.0
C329 C 0.51845 0.67496 0.86101 0.0
C330 C 0.62643 0.61706 0.82088 0.0
Eu331 Eu 0.532 0.58799 0.83762 0.0
C332 C 0.64178 0.57393 0.81405 0.0
C333 C 0.6555 0.57831 0.79831 0.0
C334 C 0.66057 0.5323 0.79109 0.0
C335 C 0.65179 0.48093 0.7995 0.0
C336 C 0.63702 0.47623 0.81524 0.0
C337 C 0.63204 0.52233 0.82246 0.0
C338 C 0.43541 0.59756 0.82615 0.0
C339 C 0.44402 0.45489 0.82577 0.0
O340 O 0.33742 0.49791 0.86219 0.0
O341 O 0.38899 0.47361 0.87753 0.0
O342 O 0.45508 0.44743 0.85848 0.0
O343 O 0.52665 0.53643 0.85975 0.0
O344 O 0.4649 0.62496 0.86348 0.0
O345 O 0.55841 0.66935 0.85264 0.0
O346 O 0.62892 0.62097 0.83594 0.0
O347 O 0.57724 0.61347 0.8153 0.0
O348 O 0.49078 0.64151 0.82676 0.0
O349 O 0.43301 0.55059 0.83182 0.0
O350 O 0.50088 0.49556 0.82767 0.0
O351 O 0.40258 0.45971 0.83426 0.0
H352 H 0.30702 0.4022 0.90114 0.0
H353 H 0.25023 0.4027 0.92392 0.0
H354 H 0.23287 0.54896 0.90373 0.0
H355 H 0.29058 0.54878 0.88107 0.0
H356 H 0.6616 0.617 0.79158 0.0
H357 H 0.67382 0.53829 0.77904 0.0
H358 H 0.6303 0.43738 0.82201 0.0
H359 H 0.61945 0.51701 0.83455 0.0
C360 C 0.91478 0.32146 1.04255 0.0
Eu361 Eu 0.95461 0.41656 1.02385 0.0
C362 C 0.87224 0.28409 0.0553 0.0
C363 C 0.85448 0.31078 0.06685 0.0
C364 C 0.82333 0.27795 0.08015 0.0
C365 C 0.80838 0.21693 0.08243 0.0
C366 C 0.82566 0.19009 0.07072 0.0
C367 C 0.85711 0.22318 0.0574 0.0
C368 C 0.07839 0.49151 1.02755 0.0
C369 C 0.868 0.47975 1.0296 0.0
C370 C 1.01532 0.62717 1.0069 0.0
Eu371 Eu 0.97925 0.51265 1.00884 0.0
C372 C 0.07504 0.67959 1.00862 0.0
C373 C 0.08393 0.73743 1.00564 0.0
C374 C 0.14242 0.7853 1.0034 0.0
C375 C 0.19182 0.77491 1.00388 0.0
C376 C 0.18306 0.71869 1.00899 0.0
C377 C 0.12464 0.67096 1.01127 0.0
C378 C 0.90079 0.42138 0.99023 0.0
C379 C 1.03779 0.44629 0.99267 0.0
O380 O 0.89636 0.31768 1.02827 0.0
O381 O 0.95498 0.37664 1.04605 0.0
O382 O 1.05138 0.43494 1.02401 0.0
O383 O 1.03772 0.50803 1.02858 0.0
O384 O 0.89634 0.45402 1.03674 0.0
O385 O 0.8875 0.49951 1.01573 0.0
O386 O 0.99275 0.59542 1.01953 0.0
O387 O 1.00936 0.5938 0.99487 0.0
O388 O 0.94628 0.47208 0.98543 0.0
O389 O 0.8957 0.42067 1.00504 0.0
O390 O 1.0487 0.50123 0.99577 0.0
O391 O 0.99495 0.40048 1.00101 0.0
H392 H 0.86637 0.35786 0.06586 0.0
H393 H 0.81237 0.30134 0.08887 0.0
H394 H 0.81481 0.14336 0.07181 0.0
H395 H 0.87112 0.20149 1.04889 0.0
H396 H 1.04577 0.74449 1.00374 0.0
H397 H 0.1481 0.82824 0.99937 0.0
H398 H 0.22058 0.70986 1.00939 0.0
H399 H 0.11798 0.62622 1.01367 0.0
C400 C 0.63985 0.88375 0.2058 0.0
Eu401 Eu 0.5857 0.9318 0.18931 0.0
C402 C 0.63706 0.8506 0.22047 0.0
C403 C 0.60497 0.85234 0.2335 0.0
C404 C 0.60866 0.82711 0.24773 0.0
C405 C 0.64465 0.79921 0.24949 0.0
C406 C 0.67669 0.79756 0.23637 0.0
C407 C 0.6729 0.82281 0.22211 0.0
C408 C 0.63038 0.0539 0.19599 0.0
C409 C 0.43474 0.86444 0.19769 0.0
C410 C 0.48613 1.04291 0.16319 0.0
Eu411 Eu 0.51746 0.96982 0.17519 0.0
C412 C 0.52798 0.108 0.16126 0.0
C413 C 0.53997 0.13348 0.14644 0.0
C414 C 0.58725 0.19215 0.14405 0.0
C415 C 0.62355 0.22647 0.15644 0.0
C416 C 0.61105 0.20132 0.17132 0.0
C417 C 0.56401 0.14238 0.17371 0.0
C418 C 0.50034 0.86528 0.1607 0.0
C419 C 0.64466 1.01494 0.15914 0.0
O420 O 0.60235 0.85562 0.19456 0.0
O421 O 0.64864 0.93829 0.20729 0.0
O422 O 0.66169 1.02931 0.19164 0.0
O423 O 0.57416 1.01191 0.19665 0.0
O424 O 0.48597 0.86174 0.19865 0.0
O425 O 0.4377 0.91098 0.1904 0.0
O426 O 0.47243 1.02333 0.17743 0.0
O427 O 0.49925 1.00857 0.15475 0.0
O428 O 0.45796 0.87728 0.16435 0.0
O429 O 0.55035 0.90795 0.16534 0.0
O430 O 0.6059 1.03188 0.16338 0.0
O431 O 0.64192 0.96721 0.16644 0.0
H432 H 0.57788 0.87436 0.23278 0.0
H433 H 0.58389 0.83057 0.25748 0.0
H434 H 0.70433 0.77615 0.23704 0.0
H435 H 0.69899 0.82151 0.21238 0.0
H436 H 0.51361 0.10751 0.13666 0.0
H437 H 0.59431 0.21126 0.13251 0.0
H438 H 0.63733 0.22742 0.18109 0.0
H439 H 0.5567 0.1235 0.18527 0.0
C440 C 0.79691 0.6318 0.37597 0.0
Eu441 Eu 0.70224 0.57687 0.35743 0.0
C442 C 0.83265 0.63032 0.38966 0.0
C443 C 0.844 0.67075 0.40193 0.0
C444 C 0.87898 0.67283 0.41478 0.0
C445 C 0.90388 0.6343 0.41588 0.0
C446 C 0.89305 0.59426 0.40345 0.0
C447 C 0.8582 0.5924 0.39055 0.0
C448 C 0.61914 0.61686 0.36162 0.0
C449 C 0.62256 0.42345 0.36391 0.0
C450 C 0.50371 0.46982 0.3246 0.0
Eu451 Eu 0.60101 0.50555 0.34075 0.0
C452 C 0.49428 0.49871 0.31095 0.0
C453 C 0.53237 0.51362 0.29791 0.0
C454 C 0.5226 0.54057 0.28498 0.0
C455 C 0.47539 0.55394 0.28501 0.0
C456 C 0.43961 0.54217 0.29835 0.0
C457 C 0.44884 0.51452 0.3112 0.0
C458 C 0.69922 0.50083 0.32802 0.0
C459 C 0.68363 0.63746 0.32614 0.0
O460 O 0.7982 0.60746 0.3628 0.0
O461 O 0.74399 0.62617 0.37865 0.0
O462 O 0.67627 0.6498 0.35893 0.0
O463 O 0.60681 0.56067 0.36226 0.0
O464 O 0.67417 0.47609 0.36572 0.0
O465 O 0.57925 0.4251 0.35612 0.0
O466 O 0.51274 0.49894 0.33755 0.0
O467 O 0.54027 0.44825 0.32283 0.0
O468 O 0.64482 0.45563 0.3293 0.0
O469 O 0.69994 0.54718 0.33342 0.0
O470 O 0.62887 0.59136 0.32745 0.0
O471 O 0.72664 0.63952 0.33544 0.0
H472 H 0.82564 0.70117 0.40159 0.0
H473 H 0.88534 0.70384 0.42403 0.0
H474 H 0.91192 0.56431 0.4036 0.0
H475 H 0.85133 0.56125 0.38129 0.0
H476 H 0.56902 0.50351 0.29756 0.0
H477 H 0.55049 0.54911 0.27479 0.0
H478 H 0.40217 0.55113 0.29854 0.0
H479 H 0.41976 0.50445 0.32122 0.0
H480 H 0.13439 0.63014 0.26859 0.0
H481 H 1.01079 0.70014 0.26804 0.0
H482 H 1.06074 0.76079 0.29106 0.0
H483 H 0.13861 0.79157 0.31207 0.0
H484 H 0.25981 0.71824 0.31169 0.0
H485 H 0.21109 0.66112 0.28863 0.0
C486 C 0.11803 0.65873 0.27337 0.0
C487 C 0.06838 0.66014 0.26634 0.0
C488 C 0.14645 0.69273 0.2867 0.0
C489 C 1.04884 0.69802 0.27295 0.0
C490 C 0.07739 0.73257 0.28623 0.0
C491 C 0.15472 0.7634 0.30693 0.0
C492 C 0.20307 0.75929 0.31406 0.0
C493 C 0.12616 0.73004 0.29333 0.0
C494 C 0.2223 0.72187 0.307 0.0
C495 C 0.19462 0.6893 0.2936 0.0
H496 H 0.40519 0.10769 0.48338 0.0
H497 H 0.56195 0.27259 0.46783 0.0
H498 H 0.55773 0.22677 0.44305 0.0
H499 H 0.51501 0.1384 0.42605 0.0
H500 H 0.35606 0.97424 0.44025 0.0
H501 H 0.35507 1.02148 0.46489 0.0
C502 C 0.4383 0.13412 0.4746 0.0
C503 C 0.48502 0.19385 0.47804 0.0
C504 C 0.43511 0.10754 0.45991 0.0
C505 C 0.52678 0.22627 0.46613 0.0
C506 C 0.52401 0.20023 0.45172 0.0
C507 C 0.47899 0.11332 0.43434 0.0
C508 C 0.43508 0.05283 0.43107 0.0
C509 C 0.47913 0.14071 0.44854 0.0
C510 C 0.38957 1.02108 0.44217 0.0
C511 C 0.38965 0.04801 0.45641 0.0
H512 H 0.33825 0.37641 0.64779 0.0
H513 H 0.38693 0.56412 0.64183 0.0
H514 H 0.43678 0.5683 0.61764 0.0
H515 H 0.46808 0.52124 0.59811 0.0
H516 H 0.42254 0.33457 0.60286 0.0
H517 H 0.36816 0.32715 0.62711 0.0
C518 C 0.35928 0.41826 0.6412 0.0
C519 C 0.35885 0.47023 0.64714 0.0
C520 C 0.38792 0.42047 0.62685 0.0
C521 C 0.38727 0.52371 0.63817 0.0
C522 C 0.41548 0.52609 0.62409 0.0
C523 C 0.44599 0.47839 0.6043 0.0
C524 C 0.44958 0.42835 0.59844 0.0
C525 C 0.41624 0.47503 0.61834 0.0
C526 C 0.42014 0.37363 0.60682 0.0
C527 C 0.38954 0.3697 0.62083 0.0
H528 H 0.98368 0.42502 0.76037 0.0
H529 H 0.14173 0.4125 0.77194 0.0
H530 H 0.09203 0.35825 0.79602 0.0
H531 H 1.00386 0.31823 0.81452 0.0
H532 H 0.84933 0.33721 0.80208 0.0
H533 H 0.89625 0.3814 0.77754 0.0
C534 C 1.00727 0.40976 0.76801 0.0
C535 C 1.06658 0.42286 0.76416 0.0
C536 C 0.97872 0.37939 0.78187 0.0
C537 C 0.0959 0.40249 0.77436 0.0
C538 C 1.06755 0.37198 0.78827 0.0
C539 C 0.98057 0.33281 0.80661 0.0
C540 C 0.92191 0.32297 0.81053 0.0
C541 C 1.00911 0.36105 0.79233 0.0
C542 C 0.89323 0.34198 0.79968 0.0
C543 C 0.92061 0.36861 0.78557 0.0
H544 H 0.5806 0.98399 0.93548 0.0
H545 H 0.77502 0.08462 0.9315 0.0
H546 H 0.78295 1.03281 0.95481 0.0
H547 H 0.7336 0.95991 0.97697 0.0
H548 H 0.53852 0.86245 0.98005 0.0
H549 H 0.5325 0.91272 0.95672 0.0
C550 C 0.62514 0.99494 0.93955 0.0
C551 C 0.67726 1.03866 0.93148 0.0
C552 C 0.62923 0.96565 0.95306 0.0
C553 C 0.73402 0.0513 0.93724 0.0
C554 C 0.73847 1.02167 0.95068 0.0
C555 C 0.68968 0.94933 0.97253 0.0
C556 C 0.63649 0.90722 0.98068 0.0
C557 C 0.68628 0.97885 0.95879 0.0
C558 C 0.58037 0.89509 0.97452 0.0
C559 C 0.57678 0.92364 0.96099 0.0
H560 H 0.7939 0.70964 0.15003 0.0
H561 H 0.7853 0.5428 0.1359 0.0
H562 H 0.74274 0.54818 0.11142 0.0
H563 H 0.69792 0.59243 0.09465 0.0
H564 H 0.70214 0.75755 0.10757 0.0
H565 H 0.75452 0.75955 0.1317 0.0
C566 C 0.78229 0.67398 0.14172 0.0
C567 C 0.79387 0.62576 0.14527 0.0
C568 C 0.756 0.67643 0.12732 0.0
C569 C 0.77886 0.5812 0.13387 0.0
C570 C 0.7536 0.58374 0.11973 0.0
C571 C 0.71164 0.62995 0.10252 0.0
C572 C 0.69658 0.67527 0.09904 0.0
C573 C 0.74102 0.63032 0.1164 0.0
C574 C 0.71406 0.72272 0.10964 0.0
C575 C 0.74336 0.72329 0.1236 0.0
H576 H 0.48217 0.97742 0.64355 0.0
H577 H 0.41617 0.10423 0.6422 0.0
H578 H 0.35855 0.05533 0.61869 0.0
H579 H 0.32882 0.97691 0.59789 0.0
H580 H 0.40031 0.85423 0.59989 0.0
H581 H 0.45317 0.90108 0.62357 0.0
C582 C 0.4551 0.9947 0.63825 0.0
C583 C 0.45397 1.04498 0.64487 0.0
C584 C 0.4228 0.96683 0.62465 0.0
C585 C 0.41798 0.06566 0.63761 0.0
C586 C 0.38522 1.03773 0.62404 0.0
C587 C 0.35614 0.96047 0.60343 0.0
C588 C 0.3593 0.91084 0.59686 0.0
C589 C 0.38764 0.98843 0.61731 0.0
C590 C 0.39511 0.8908 0.60455 0.0
C591 C 0.42605 0.91807 0.61816 0.0
H592 H 0.40025 0.32072 0.76099 0.0
H593 H 0.55332 0.3071 0.77769 0.0
H594 H 0.54739 0.34872 0.80216 0.0
H595 H 0.5071 0.39884 0.81839 0.0
H596 H 0.35553 0.41595 0.80303 0.0
H597 H 0.35335 0.3647 0.77875 0.0
C598 C 0.43278 0.32722 0.76988 0.0
C599 C 0.47735 0.30986 0.767 0.0
C600 C 0.42994 0.35278 0.78433 0.0
C601 C 0.51772 0.31822 0.77914 0.0
C602 C 0.51498 0.34305 0.7933 0.0
C603 C 0.47248 0.39014 0.80993 0.0
C604 C 0.43102 0.4108 0.81281 0.0
C605 C 0.47216 0.36142 0.79597 0.0
C606 C 0.38715 0.39952 0.80146 0.0
C607 C 0.38661 0.37091 0.78741 0.0
H608 H 0.12314 0.53524 0.97443 0.0
H609 H 1.02784 0.34121 0.97988 0.0
H610 H 0.08051 0.33275 0.95695 0.0
H611 H 0.15292 0.38127 0.93477 0.0
H612 H 0.24562 0.57592 0.93014 0.0
H613 H 0.19416 0.58273 0.95306 0.0
C614 C 0.11361 0.49073 0.97075 0.0
C615 C 0.07112 0.43884 0.97912 0.0
C616 C 0.14353 0.48628 0.95746 0.0
C617 C 1.06014 0.38204 0.97388 0.0
C618 C 0.09031 0.37726 0.96067 0.0
C619 C 0.16222 0.42529 0.93879 0.0
C620 C 0.20335 0.47806 0.93034 0.0
C621 C 0.13205 0.42915 0.95227 0.0
C622 C 0.21377 0.53431 0.93592 0.0
C623 C 0.18454 0.53838 0.94922 0.0
H624 H 0.64423 0.10469 0.14223 0.0
H625 H 0.73289 0.99762 0.14424 0.0
H626 H 0.79133 0.04986 0.12083 0.0
H627 H 0.81659 0.12682 0.09949 0.0
H628 H 0.71968 0.2265 0.0979 0.0
H629 H 0.66544 0.17587 0.12125 0.0
C630 C 0.67636 0.09232 0.13771 0.0
C631 C 0.68396 1.04696 0.14527 0.0
C632 C 0.70864 0.12157 0.12415 0.0
C633 C 0.72599 1.03232 0.13889 0.0
C634 C 0.75931 0.06222 0.12541 0.0
C635 C 0.7834 0.13735 0.10417 0.0
C636 C 0.77378 0.18209 0.09677 0.0
C637 C 0.75089 0.10697 0.11785 0.0
C638 C 0.73019 0.19431 0.10329 0.0
C639 C 0.69849 0.16488 0.11672 0.0
H640 H 0.59952 0.65952 0.3136 0.0
H641 H 0.78727 0.7102 0.30846 0.0
H642 H 0.79249 0.76497 0.28436 0.0
H643 H 0.7408 0.79377 0.26384 0.0
H644 H 0.55155 0.73755 0.26984 0.0
H645 H 0.55032 0.69005 0.29435 0.0
C646 C 0.64214 0.68306 0.30737 0.0
C647 C 0.69309 0.68057 0.31303 0.0
C648 C 0.64428 0.71316 0.29344 0.0
C649 C 0.74754 0.71175 0.30464 0.0
C650 C 0.75019 0.74253 0.29071 0.0
C651 C 0.69915 0.77095 0.27045 0.0
C652 C 0.64625 0.77013 0.26474 0.0
C653 C 0.69842 0.7427 0.28481 0.0
C654 C 0.59324 0.74043 0.27378 0.0
C655 C 0.5923 0.71266 0.28786 0.0
H656 H 1.02 0.57766 0.4741 0.0
H657 H 0.11117 0.77138 0.47948 0.0
H658 H 1.05773 0.77925 0.45657 0.0
H659 H 0.98534 0.72985 0.43451 0.0
H660 H 0.89886 0.53562 0.43003 0.0
H661 H 0.95169 0.53007 0.45275 0.0
C662 C 1.02867 0.62209 0.47044 0.0
C663 C 0.06999 0.67397 0.4788 0.0
C664 C 0.99873 0.6262 0.45717 0.0
C665 C 0.07977 0.73056 0.4735 0.0
C666 C 1.04915 0.73496 0.46031 0.0
C667 C 0.97766 0.68619 0.43854 0.0
C668 C 0.93789 0.63316 0.43018 0.0
C669 C 1.00847 0.68296 0.45197 0.0
C670 C 0.92955 0.5774 0.43576 0.0
C671 C 0.9594 0.57399 0.44896 0.0
H672 H 0.5533 0.6649 0.34659 0.0
H673 H 0.61724 0.65071 0.39156 0.0
H674 H 0.59258 0.72605 0.40144 0.0
H675 H 0.55894 0.80307 0.39727 0.0
H676 H 0.4864 0.81173 0.35304 0.0
H677 H 0.50764 0.73346 0.34325 0.0
C678 C 0.55961 0.67615 0.35875 0.0
C679 C 0.58533 0.64841 0.36835 0.0
C680 C 0.54476 0.72066 0.36453 0.0
C681 C 0.59544 0.66773 0.38386 0.0
C682 C 0.58209 0.71224 0.38952 0.0
C683 C 0.54723 0.78783 0.38547 0.0
C684 C 0.52128 0.81552 0.37598 0.0
C685 C 0.55773 0.74019 0.37997 0.0
C686 C 0.50628 0.79291 0.3608 0.0
C687 C 0.51862 0.74752 0.35514 0.0
H688 H 0.8075 0.51475 0.56426 0.0
H689 H 0.74393 0.50744 0.51784 0.0
H690 H 0.8455 0.53738 0.50781 0.0
H691 H 0.95649 0.57408 0.51219 0.0
H692 H 1.01726 0.57021 0.55832 0.0
H693 H 0.91482 0.53657 0.56825 0.0
C694 C 0.81532 0.51874 0.5519 0.0
C695 C 0.76624 0.50849 0.54193 0.0
C696 C 0.87455 0.53447 0.54608 0.0
C697 C 0.77907 0.51424 0.52596 0.0
C698 C 0.83795 0.5319 0.52018 0.0
C699 C 0.94718 0.56411 0.5244 0.0
C700 C 0.99616 0.57383 0.53433 0.0
C701 C 0.88663 0.54311 0.53009 0.0
C702 C 0.98175 0.56185 0.55017 0.0
C703 C 0.9226 0.54312 0.55592 0.0
H704 H 0.44998 0.92199 0.67796 0.0
H705 H 0.47619 0.99593 0.72369 0.0
H706 H 0.40431 0.89559 0.73406 0.0
H707 H 0.3274 0.78655 0.73019 0.0
H708 H 0.30603 0.70948 0.68495 0.0
H709 H 0.38138 0.80909 0.67461 0.0
C710 C 0.44159 0.916 0.69029 0.0
C711 C 0.47105 0.968 0.7 0.0
C712 C 0.39954 0.8567 0.69633 0.0
C713 C 0.45682 0.95796 0.71587 0.0
C714 C 0.41461 0.90004 0.72182 0.0
C715 C 0.33933 0.79099 0.71805 0.0
C716 C 0.30922 0.73878 0.70846 0.0
C717 C 0.38465 0.84901 0.71218 0.0
C718 C 0.32718 0.74725 0.69279 0.0
C719 C 0.37067 0.80495 0.68682 0.0
H720 H 0.52662 0.39197 0.8447 0.0
H721 H 0.58102 0.49522 0.88658 0.0
H722 H 0.62232 0.43187 0.89621 0.0
H723 H 0.63664 0.34082 0.89372 0.0
H724 H 0.59229 0.24479 0.85066 0.0
H725 H 0.55511 0.31106 0.84061 0.0
C726 C 0.54915 0.40212 0.85576 0.0
C727 C 0.55098 0.45032 0.86466 0.0
C728 C 0.5745 0.36568 0.86115 0.0
C729 C 0.57955 0.46045 0.87914 0.0
C730 C 0.60281 0.42329 0.88476 0.0
C731 C 0.61996 0.33481 0.88199 0.0
C732 C 0.61798 0.28652 0.87307 0.0
C733 C 0.59976 0.37491 0.87603 0.0
C734 C 0.59563 0.28084 0.85791 0.0
C735 C 0.5737 0.31893 0.85215 0.0
H736 H 0.16026 0.45081 1.02491 0.0
H737 H 0.15427 0.60856 1.04009 0.0
H738 H 0.26234 0.6565 1.04706 0.0
H739 H 0.36097 0.65222 1.04996 0.0
H740 H 0.36017 0.49045 1.03497 0.0
H741 H 0.25526 0.44735 1.02699 0.0
C742 C 0.18201 0.4959 1.02972 0.0
C743 C 0.14674 0.52506 1.03186 0.0
C744 C 0.24481 0.5233 1.03382 0.0
C745 C 0.17819 0.58387 1.03814 0.0
C746 C 0.24086 0.61155 1.04219 0.0
C747 C 0.33848 0.60807 1.04465 0.0
C748 C 0.37131 0.57572 1.04294 0.0
C749 C 0.27528 0.58179 1.04019 0.0
C750 C 0.3385 0.51761 1.03639 0.0
C751 C 0.27747 0.49237 1.03184 0.0
H752 H 0.77923 0.309 0.23186 0.0
H753 H 0.85964 0.36982 0.18684 0.0
H754 H 0.79192 0.26869 0.17647 0.0
H755 H 0.71341 0.15877 0.18035 0.0
H756 H 0.62449 0.10107 0.22451 0.0
H757 H 0.69031 0.20302 0.23476 0.0
C758 C 0.78172 0.30074 0.21969 0.0
C759 C 0.82626 0.34902 0.2103 0.0
C760 C 0.74046 0.24173 0.21356 0.0
C761 C 0.82692 0.33547 0.19454 0.0
C762 C 0.78791 0.27677 0.18857 0.0
C763 C 0.70721 0.16854 0.19216 0.0
C764 C 0.66216 0.12045 0.20147 0.0
C765 C 0.7449 0.22892 0.19796 0.0
C766 C 0.65671 0.13573 0.2168 0.0
C767 C 0.69531 0.19463 0.22275 0.0
H768 H 0.31729 0.55571 0.51504 0.0
H769 H 0.32106 0.64234 0.55789 0.0
H770 H 0.40024 0.62176 0.56753 0.0
H771 H 0.46572 0.57255 0.56451 0.0
H772 H 0.46597 0.49337 0.52075 0.0
H773 H 0.39033 0.51793 0.51096 0.0
C774 C 0.33549 0.57067 0.52649 0.0
C775 C 0.31127 0.60038 0.53567 0.0
C776 C 0.38316 0.56022 0.53186 0.0
C777 C 0.3374 0.61953 0.5504 0.0
C778 C 0.38319 0.60753 0.55597 0.0
C779 C 0.45116 0.5627 0.55261 0.0
C780 C 0.47477 0.53263 0.54328 0.0
C781 C 0.4065 0.57741 0.54689 0.0
C782 C 0.45173 0.51825 0.52815 0.0
C783 C 0.40722 0.53165 0.52257 0.0
H784 H 0.79946 0.33456 0.68073 0.0
H785 H 0.74012 0.25017 0.72543 0.0
H786 H 0.84174 0.31681 0.73578 0.0
H787 H 0.95168 0.39545 0.73185 0.0
H788 H 1.00772 0.48746 0.68797 0.0
H789 H 0.90523 0.42305 0.67786 0.0
C790 C 0.80811 0.33109 0.69284 0.0
C791 C 0.76015 0.28592 0.70215 0.0
C792 C 0.86734 0.37152 0.69894 0.0
C793 C 0.7742 0.28368 0.71782 0.0
C794 C 0.83317 0.32201 0.72377 0.0
C795 C 0.9414 0.40265 0.72015 0.0
C796 C 0.98916 0.44799 0.71084 0.0
C797 C 0.88072 0.36572 0.71443 0.0
C798 C 0.97331 0.45478 0.69565 0.0
C799 C 0.91412 0.41706 0.68979 0.0
H800 H 0.66503 0.95077 0.8845 0.0
H801 H 0.50252 0.95377 0.87235 0.0
H802 H 0.45417 0.84547 0.86558 0.0
H803 H 0.45915 0.74744 0.8621 0.0
H804 H 0.6255 0.75136 0.87421 0.0
H805 H 0.66935 0.85654 0.88189 0.0
C806 C 0.61883 0.92834 0.88039 0.0
C807 C 0.5885 0.96283 0.87897 0.0
C808 C 0.59116 0.86544 0.87647 0.0
C809 C 0.52823 0.9305 0.87362 0.0
C810 C 0.5003 0.8677 0.86973 0.0
C811 C 0.50456 0.77071 0.86671 0.0
C812 C 0.53798 0.73869 0.86769 0.0
C813 C 0.5312 0.83406 0.871 0.0
C814 C 0.59756 0.77243 0.87335 0.0
C815 C 0.6232 0.83359 0.87774 0.0
H816 H 0.71324 0.57962 0.06659 0.0
H817 H 0.61215 0.53309 1.02426 0.0
H818 H 0.67587 0.49342 1.01402 0.0
H819 H 0.76662 0.47808 1.01618 0.0
H820 H 0.86074 0.51507 0.05953 0.0
H821 H 0.79439 0.55094 0.07008 0.0
C822 C 0.70362 0.55913 0.05527 0.0
C823 C 0.65573 0.55888 1.04647 0.0
C824 C 0.74048 0.53494 1.04947 0.0
C825 C 0.64646 0.53308 1.03165 0.0
C826 C 0.68392 0.51083 1.02568 0.0
C827 C 0.77227 0.49295 1.02806 0.0
C828 C 0.82012 0.49322 1.03691 0.0
C829 C 0.73194 0.51228 1.03433 0.0
C830 C 0.82516 0.51316 0.05229 0.0
C831 C 0.78694 0.53427 0.05835 0.0
H832 H 0.35821 0.73689 0.19269 0.0
H833 H 0.36597 0.8867 0.2176 0.0
H834 H 0.26145 0.82313 0.22606 0.0
H835 H 0.1641 0.72689 0.22564 0.0
H836 H 0.15073 0.57535 0.20052 0.0
H837 H 0.25845 0.63609 0.19323 0.0
C838 C 0.33777 0.75538 0.20031 0.0
C839 C 0.37271 0.81777 0.20474 0.0
C840 C 0.27506 0.71777 0.20504 0.0
C841 C 0.34255 0.8397 0.21415 0.0
C842 C 0.28181 0.80303 0.21895 0.0
C843 C 0.18434 0.7064 0.21862 0.0
C844 C 0.14723 0.64511 0.21385 0.0
C845 C 0.247 0.74226 0.21434 0.0
C846 C 0.1764 0.62126 0.20468 0.0
C847 C 0.23877 0.65665 0.2004 0.0
H848 H 0.57097 0.31221 0.3486 0.0
H849 H 0.65285 0.39067 0.39211 0.0
H850 H 0.63172 0.2905 0.40156 0.0
H851 H 0.58333 0.17639 0.39817 0.0
H852 H 0.50968 0.10145 0.35375 0.0
H853 H 0.5346 0.20198 0.34421 0.0
C854 C 0.58484 0.30797 0.36016 0.0
C855 C 0.61342 0.36105 0.36955 0.0
C856 C 0.57427 0.24946 0.36543 0.0
C857 C 0.631 0.35246 0.38442 0.0
C858 C 0.61868 0.29433 0.38988 0.0
C859 C 0.57494 0.18208 0.38618 0.0
C860 C 0.54631 0.12925 0.37661 0.0
C861 C 0.5899 0.24187 0.38058 0.0
C862 C 0.53361 0.13961 0.36137 0.0
C863 C 0.54715 0.19781 0.35592 0.0
H864 H 0.24318 0.75203 0.47363 0.0
H865 H 0.35431 0.67175 0.48346 0.0
H866 H 0.4171 0.72229 0.46077 0.0
H867 H 0.44103 0.78943 0.43774 0.0
H868 H 0.32802 0.86731 0.42751 0.0
H869 H 0.26605 0.81778 0.45034 0.0
C870 C 0.2815 0.74604 0.47091 0.0
C871 C 0.29404 0.70824 0.48049 0.0
C872 C 0.31712 0.77457 0.45753 0.0
C873 C 0.34349 0.70059 0.47647 0.0
C874 C 0.37945 0.72943 0.4634 0.0
C875 C 0.40254 0.7952 0.44041 0.0
C876 C 0.3896 0.83239 0.4307 0.0
C877 C 0.36666 0.76634 0.45373 0.0
C878 C 0.33944 0.83915 0.43458 0.0
C879 C 0.30389 0.81087 0.44776 0.0
H880 H 0.60418 0.42385 0.61913 0.0
H881 H 0.61625 0.32582 0.58012 0.0
H882 H 0.61775 0.25045 0.59777 0.0
H883 H 0.61548 0.21198 0.62442 0.0
H884 H 0.60487 0.31133 0.66333 0.0
H885 H 0.60305 0.38623 0.64566 0.0
C886 C 0.60733 0.38611 0.61441 0.0
C887 C 0.61031 0.38105 0.59815 0.0
C888 C 0.60848 0.34301 0.6247 0.0
C889 C 0.61409 0.3314 0.59245 0.0
C890 C 0.61492 0.28816 0.6026 0.0
C891 C 0.61302 0.25015 0.62909 0.0
C892 C 0.61062 0.25574 0.64536 0.0
C893 C 0.61219 0.29343 0.61877 0.0
C894 C 0.60709 0.3056 0.65101 0.0
C895 C 0.60595 0.34853 0.64085 0.0
H896 H 0.45697 0.64473 0.79632 0.0
H897 H 0.31335 0.53769 0.82851 0.0
H898 H 0.23808 0.52346 0.80897 0.0
H899 H 0.21219 0.5411 0.78278 0.0
H900 H 0.35362 0.64163 0.74955 0.0
H901 H 0.43016 0.65792 0.76918 0.0
C902 C 0.40919 0.61897 0.7991 0.0
C903 C 0.39098 0.59351 0.81411 0.0
C904 C 0.36564 0.60914 0.78749 0.0
C905 C 0.32877 0.55862 0.81725 0.0
C906 C 0.28563 0.5502 0.80601 0.0
C907 C 0.25982 0.56641 0.77976 0.0
C908 C 0.27685 0.59028 0.76462 0.0
C909 C 0.3034 0.57508 0.79109 0.0
C910 C 0.3389 0.62239 0.76099 0.0
C911 C 0.38274 0.63206 0.77231 0.0
H912 H 0.69123 0.20566 0.95172 0.0
H913 H 0.7977 0.31639 0.91342 0.0
H914 H 0.86999 0.39078 0.93158 0.0
H915 H 0.90348 0.42481 0.95847 0.0
H916 H 0.79624 0.3142 0.9967 0.0
H917 H 0.72421 0.2399 0.97854 0.0
C918 C 0.73014 0.24614 0.94727 0.0
C919 C 0.73841 0.25504 0.93103 0.0
C920 C 0.77161 0.28902 0.95786 0.0
C921 C 0.78959 0.30796 0.9257 0.0
C922 C 0.83109 0.35063 0.93615 0.0
C923 C 0.86423 0.38457 0.96289 0.0
C924 C 0.85559 0.37574 0.97913 0.0
C925 C 0.82265 0.34179 0.95227 0.0
C926 C 0.80437 0.32281 0.98443 0.0
C927 C 0.76305 0.28012 0.97397 0.0
H928 H 0.58813 0.8716 0.14057 0.0
H929 H 0.39736 0.76659 0.15046 0.0
H930 H 0.38385 0.70168 0.1283 0.0
H931 H 0.4261 0.67379 0.10575 0.0
H932 H 0.61649 0.78162 0.09552 0.0
H933 H 0.62976 0.8455 0.11775 0.0
C934 C 0.54361 0.83424 0.13798 0.0
C935 C 0.49389 0.82407 0.14744 0.0
C936 C 0.53585 0.79741 0.1249 0.0
C937 C 0.43657 0.77572 0.14356 0.0
C938 C 0.42877 0.73848 0.13079 0.0
C939 C 0.47043 0.71156 0.10828 0.0
C940 C 0.52017 0.72234 0.09873 0.0
C941 C 0.47796 0.74885 0.12128 0.0
C942 C 0.57716 0.77172 0.10245 0.0
C943 C 0.58493 0.80844 0.1153 0.0
H944 H 0.67787 0.45216 0.29854 0.0
H945 H 0.82178 0.56075 0.32998 0.0
H946 H 0.89681 0.57045 0.31072 0.0
H947 H 0.92246 0.54765 0.28495 0.0
H948 H 0.78038 0.44726 0.25235 0.0
H949 H 0.70441 0.43538 0.27176 0.0
C950 C 0.72566 0.47755 0.30121 0.0
C951 C 0.7439 0.50466 0.31596 0.0
C952 C 0.76913 0.48482 0.28974 0.0
C953 C 0.80621 0.5388 0.31892 0.0
C954 C 0.84926 0.54449 0.30785 0.0
C955 C 0.87482 0.52332 0.28203 0.0
C956 C 0.85748 0.49805 0.26711 0.0
C957 C 0.83141 0.5177 0.29322 0.0
C958 C 0.79542 0.4674 0.26361 0.0
C959 C 0.75184 0.46032 0.2748 0.0
H960 H 0.79998 0.34223 0.50181 0.0
H961 H 0.84695 0.46469 0.46306 0.0
H962 H 0.75225 0.39536 0.4504 0.0
H963 H 0.67983 0.28785 0.44676 0.0
H964 H 0.64272 0.16195 0.48429 0.0
H965 H 0.70671 0.24476 0.50132 0.0
C966 C 0.788 0.35518 0.49098 0.0
C967 C 0.83124 0.40665 0.48295 0.0
C968 C 0.73539 0.31342 0.4834 0.0
C969 C 0.81493 0.42388 0.46912 0.0
C970 C 0.76098 0.38407 0.46185 0.0
C971 C 0.68418 0.27905 0.45883 0.0
C972 C 0.65965 0.21911 0.46409 0.0
C973 C 0.72429 0.32639 0.46823 0.0
C974 C 0.66271 0.2078 0.47986 0.0
C975 C 0.6999 0.25516 0.48958 0.0
H976 H 0.54659 0.8135 0.66853 0.0
H977 H 0.71242 0.83846 0.68862 0.0
H978 H 0.70067 0.74931 0.67511 0.0
H979 H 0.66113 0.68783 0.65186 0.0
H980 H 0.50191 0.67184 0.62991 0.0
H981 H 0.4918 0.73248 0.65019 0.0
C982 C 0.57867 0.79783 0.67058 0.0
C983 C 0.63148 0.83361 0.67908 0.0
C984 C 0.57336 0.74886 0.66211 0.0
C985 C 0.67228 0.81239 0.68175 0.0
C986 C 0.66577 0.76173 0.67394 0.0
C987 C 0.62274 0.69541 0.65192 0.0
C988 C 0.58332 0.67721 0.63926 0.0
C989 C 0.61928 0.733 0.66313 0.0
C990 C 0.53349 0.68678 0.63942 0.0
C991 C 0.52794 0.72166 0.65097 0.0
H992 H 0.72109 0.44055 0.81263 0.0
H993 H 0.62673 0.43124 0.77053 0.0
H994 H 0.70085 0.41834 0.75569 0.0
H995 H 0.80914 0.45423 0.75439 0.0
H996 H 0.91059 0.48397 0.7964 0.0
H997 H 0.81769 0.44343 0.81159 0.0
C998 C 0.71489 0.43247 0.80031 0.0
C999 C 0.67084 0.44022 0.79252 0.0
C1000 C 0.76087 0.43131 0.79178 0.0
C1001 C 0.66198 0.4277 0.77665 0.0
C1002 C 0.70482 0.42111 0.76815 0.0
C1003 C 0.81051 0.44921 0.76681 0.0
C1004 C 0.86632 0.47455 0.77441 0.0
C1005 C 0.75768 0.43003 0.77546 0.0
C1006 C 0.86785 0.46697 0.79045 0.0
C1007 C 0.81482 0.44374 0.7991 0.0
H1008 H 0.35528 0.96946 0.95643 0.0
H1009 H 0.31143 0.80919 0.93033 0.0
H1010 H 0.26759 0.7466 0.95355 0.0
H1011 H 0.23027 0.73771 0.97993 0.0
H1012 H 0.2661 0.89741 1.00527 0.0
H1013 H 0.32707 0.96122 0.98368 0.0
C1014 C 0.33575 0.92072 0.95585 0.0
C1015 C 0.33435 0.89324 0.94174 0.0
C1016 C 0.31054 0.88564 0.96908 0.0
C1017 C 0.3115 0.83065 0.9411 0.0
C1018 C 0.28691 0.79521 0.95434 0.0
C1019 C 0.25353 0.78659 0.98097 0.0
C1020 C 0.24432 0.81326 0.99411 0.0
C1021 C 0.28492 0.82222 0.96825 0.0
C1022 C 0.27331 0.8764 0.99526 0.0
C1023 C 0.30722 0.91256 0.98287 0.0
H1024 H 0.63066 0.31922 0.17291 0.0
H1025 H 0.71119 0.27948 0.13416 0.0
H1026 H 0.73075 0.37325 0.12146 0.0
H1027 H 0.68558 0.43784 0.11751 0.0
H1028 H 0.5952 0.47047 0.15525 0.0
H1029 H 0.62031 0.40983 0.17243 0.0
C1030 C 0.65571 0.33287 0.16211 0.0
C1031 C 0.66615 0.29137 0.15395 0.0
C1032 C 0.66302 0.38472 0.15449 0.0
C1033 C 0.70049 0.31006 0.14027 0.0
C1034 C 0.71102 0.36331 0.13294 0.0
C1035 C 0.67396 0.43387 0.12968 0.0
C1036 C 0.63646 0.45586 0.13504 0.0
C1037 C 0.68619 0.39687 0.13923 0.0
C1038 C 0.623 0.45254 0.15085 0.0
C1039 C 0.63696 0.41746 0.16064 0.0
H1040 H 0.4501 0.49199 0.2586 0.0
H1041 H 0.45169 0.64596 0.27957 0.0
H1042 H 0.38162 0.64408 0.26009 0.0
H1043 H 0.29881 0.5799 0.24315 0.0
H1044 H 0.28537 0.41602 0.22511 0.0
H1045 H 0.38176 0.44072 0.23711 0.0
C1046 C 0.43723 0.5268 0.25842 0.0
C1047 C 0.45506 0.56855 0.27052 0.0
C1048 C 0.39336 0.52232 0.24796 0.0
C1049 C 0.43811 0.61332 0.27034 0.0
C1050 C 0.39752 0.61173 0.25932 0.0
C1051 C 0.31822 0.55091 0.24122 0.0
C1052 C 0.28447 0.49542 0.23363 0.0
C1053 C 0.37138 0.56354 0.24891 0.0
C1054 C 0.31014 0.45832 0.23123 0.0
C1055 C 0.36502 0.47232 0.23814 0.0
loop_
_geom_bond_atom_site_label_1
_geom_bond_atom_site_label_2
_geom_bond_distance
_geom_bond_site_symmetry_2
_ccdc_geom_bond_type
C0 Eu1 2.835 . S
C0 C2 1.500 . S
C0 O20 1.257 . S
C0 O21 1.260 . S
Eu1 C0 2.835 . S
Eu1 O20 2.473 . S
Eu1 O21 2.480 . S
Eu1 O22 2.430 1_565 S
Eu1 O23 2.670 1_565 S
Eu1 O24 2.394 . S
Eu1 O29 2.355 . S
Eu1 O31 2.374 1_565 S
C2 C0 1.500 . S
C2 C3 1.377 . S
C2 C7 1.377 . S
C3 C2 1.377 . S
C3 C4 1.395 . S
C3 H32 0.931 . S
C4 C3 1.395 . S
C4 C5 1.383 . S
C4 H33 0.931 . S
C5 C4 1.383 . S
C5 C6 1.394 . S
C6 C5 1.394 . S
C6 C7 1.378 . S
C6 H34 0.931 . S
C7 C2 1.377 . S
C7 C6 1.378 . S
C7 H35 0.931 . S
C8 O22 1.259 . S
C8 O23 1.270 . S
C9 O24 1.251 . S
C9 O25 1.251 . S
C10 Eu11 2.835 . S
C10 C12 1.500 . S
C10 O26 1.257 . S
C10 O27 1.260 . S
Eu11 C10 2.835 . S
Eu11 O23 2.355 . S
Eu11 O25 2.374 1_545 S
Eu11 O26 2.473 . S
Eu11 O27 2.480 . S
Eu11 O28 2.430 1_545 S
Eu11 O29 2.670 1_545 S
Eu11 O30 2.394 . S
C12 C10 1.500 . S
C12 C13 1.377 . S
C12 C17 1.377 . S
C13 C12 1.377 . S
C13 C14 1.395 . S
C13 H36 0.931 . S
C14 C13 1.395 . S
C14 C15 1.383 . S
C14 H37 0.931 . S
C15 C14 1.383 . S
C15 C16 1.394 . S
C16 C15 1.394 . S
C16 C17 1.378 . S
C16 H38 0.931 . S
C17 C12 1.377 . S
C17 C16 1.378 . S
C17 H39 0.931 . S
C18 O28 1.259 . S
C18 O29 1.270 . S
C19 O30 1.251 . S
C19 O31 1.251 . S
O20 C0 1.257 . S
O20 Eu1 2.473 . S
O21 C0 1.260 . S
O21 Eu1 2.480 . S
O22 Eu1 2.430 1_545 S
O22 C8 1.259 . S
O23 Eu1 2.670 1_545 S
O23 C8 1.270 . S
O23 Eu11 2.355 . S
O24 Eu1 2.394 . S
O24 C9 1.251 . S
O25 C9 1.251 . S
O25 Eu11 2.374 1_565 S
O26 C10 1.257 . S
O26 Eu11 2.473 . S
O27 C10 1.260 . S
O27 Eu11 2.480 . S
O28 Eu11 2.430 1_565 S
O28 C18 1.259 . S
O29 Eu1 2.355 . S
O29 Eu11 2.670 1_565 S
O29 C18 1.270 . S
O30 Eu11 2.394 . S
O30 C19 1.251 . S
O31 Eu1 2.374 1_545 S
O31 C19 1.251 . S
H32 C3 0.931 . S
H33 C4 0.931 . S
H34 C6 0.931 . S
H35 C7 0.931 . S
H36 C13 0.931 . S
H37 C14 0.931 . S
H38 C16 0.931 . S
H39 C17 0.931 . S
C40 Eu41 2.835 . S
C40 C42 1.500 . S
C40 O60 1.257 . S
C40 O61 1.260 . S
Eu41 C40 2.835 . S
Eu41 O60 2.473 . S
Eu41 O61 2.480 . S
Eu41 O62 2.430 . S
Eu41 O63 2.670 . S
Eu41 O64 2.394 . S
Eu41 O69 2.355 . S
Eu41 O71 2.374 . S
C42 C40 1.500 . S
C42 C43 1.377 . S
C42 C47 1.377 . S
C43 C42 1.377 . S
C43 C44 1.395 . S
C43 H72 0.931 . S
C44 C43 1.395 . S
C44 C45 1.383 . S
C44 H73 0.931 . S
C45 C44 1.383 . S
C45 C46 1.394 . S
C46 C45 1.394 . S
C46 C47 1.378 . S
C46 H74 0.931 . S
C47 C42 1.377 . S
C47 C46 1.378 . S
C47 H75 0.931 . S
C48 O62 1.259 . S
C48 O63 1.270 . S
C49 O64 1.251 . S
C49 O65 1.251 . S
C50 Eu51 2.835 . S
C50 C52 1.500 . S
C50 O66 1.257 . S
C50 O67 1.260 . S
Eu51 C50 2.835 . S
Eu51 O63 2.355 . S
Eu51 O65 2.374 . S
Eu51 O66 2.473 . S
Eu51 O67 2.480 . S
Eu51 O68 2.430 . S
Eu51 O69 2.670 . S
Eu51 O70 2.394 . S
C52 C50 1.500 . S
C52 C53 1.377 . S
C52 C57 1.377 . S
C53 C52 1.377 . S
C53 C54 1.395 . S
C53 H76 0.931 . S
C54 C53 1.395 . S
C54 C55 1.383 . S
C54 H77 0.931 . S
C55 C54 1.383 . S
C55 C56 1.394 . S
C56 C55 1.394 . S
C56 C57 1.378 . S
C56 H78 0.931 . S
C57 C52 1.377 . S
C57 C56 1.378 . S
C57 H79 0.931 . S
C58 O68 1.259 . S
C58 O69 1.270 . S
C59 O70 1.251 . S
C59 O71 1.251 . S
O60 C40 1.257 . S
O60 Eu41 2.473 . S
O61 C40 1.260 . S
O61 Eu41 2.480 . S
O62 Eu41 2.430 . S
O62 C48 1.259 . S
O63 Eu41 2.670 . S
O63 C48 1.270 . S
O63 Eu51 2.355 . S
O64 Eu41 2.394 . S
O64 C49 1.251 . S
O65 C49 1.251 . S
O65 Eu51 2.374 . S
O66 C50 1.257 . S
O66 Eu51 2.473 . S
O67 C50 1.260 . S
O67 Eu51 2.480 . S
O68 Eu51 2.430 . S
O68 C58 1.259 . S
O69 Eu41 2.355 . S
O69 Eu51 2.670 . S
O69 C58 1.270 . S
O70 Eu51 2.394 . S
O70 C59 1.251 . S
O71 Eu41 2.374 . S
O71 C59 1.251 . S
H72 C43 0.931 . S
H73 C44 0.931 . S
H74 C46 0.931 . S
H75 C47 0.931 . S
H76 C53 0.931 . S
H77 C54 0.931 . S
H78 C56 0.931 . S
H79 C57 0.931 . S
C80 Eu81 2.835 . S
C80 C82 1.500 . S
C80 O100 1.257 . S
C80 O101 1.260 . S
Eu81 C80 2.835 . S
Eu81 O100 2.473 . S
Eu81 O101 2.480 . S
Eu81 O102 2.430 1_455 S
Eu81 O103 2.670 1_455 S
Eu81 O104 2.394 . S
Eu81 O109 2.355 . S
Eu81 O111 2.374 1_455 S
C82 C80 1.500 . S
C82 C83 1.377 . S
C82 C87 1.377 . S
C83 C82 1.377 . S
C83 C84 1.395 . S
C83 H112 0.931 . S
C84 C83 1.395 . S
C84 C85 1.383 . S
C84 H113 0.931 . S
C85 C84 1.383 . S
C85 C86 1.394 . S
C86 C85 1.394 . S
C86 C87 1.378 . S
C86 H114 0.931 . S
C87 C82 1.377 . S
C87 C86 1.378 . S
C87 H115 0.931 . S
C88 O102 1.259 . S
C88 O103 1.270 . S
C89 O104 1.251 . S
C89 O105 1.251 . S
C90 Eu91 2.835 . S
C90 C92 1.500 . S
C90 O106 1.257 . S
C90 O107 1.260 . S
Eu91 C90 2.835 . S
Eu91 O103 2.355 . S
Eu91 O105 2.374 1_655 S
Eu91 O106 2.473 . S
Eu91 O107 2.480 . S
Eu91 O108 2.430 1_655 S
Eu91 O109 2.670 1_655 S
Eu91 O110 2.394 . S
C92 C90 1.500 . S
C92 C93 1.377 . S
C92 C97 1.377 . S
C93 C92 1.377 . S
C93 C94 1.395 . S
C93 H116 0.931 . S
C94 C93 1.395 . S
C94 C95 1.383 . S
C94 H117 0.931 . S
C95 C94 1.383 . S
C95 C96 1.394 . S
C96 C95 1.394 . S
C96 C97 1.378 . S
C96 H118 0.931 . S
C97 C92 1.377 . S
C97 C96 1.378 . S
C97 H119 0.931 . S
C98 O108 1.259 . S
C98 O109 1.270 . S
C99 O110 1.251 . S
C99 O111 1.251 . S
O100 C80 1.257 . S
O100 Eu81 2.473 . S
O101 C80 1.260 . S
O101 Eu81 2.480 . S
O102 Eu81 2.430 1_655 S
O102 C88 1.259 . S
O103 Eu81 2.670 1_655 S
O103 C88 1.270 . S
O103 Eu91 2.355 . S
O104 Eu81 2.394 . S
O104 C89 1.251 . S
O105 C89 1.251 . S
O105 Eu91 2.374 1_455 S
O106 C90 1.257 . S
O106 Eu91 2.473 . S
O107 C90 1.260 . S
O107 Eu91 2.480 . S
O108 Eu91 2.430 1_455 S
O108 C98 1.259 . S
O109 Eu81 2.355 . S
O109 Eu91 2.670 1_455 S
O109 C98 1.270 . S
O110 Eu91 2.394 . S
O110 C99 1.251 . S
O111 Eu81 2.374 1_655 S
O111 C99 1.251 . S
H112 C83 0.931 . S
H113 C84 0.931 . S
H114 C86 0.931 . S
H115 C87 0.931 . S
H116 C93 0.931 . S
H117 C94 0.931 . S
H118 C96 0.931 . S
H119 C97 0.931 . S
C120 Eu121 2.835 . S
C120 C122 1.500 . S
C120 O140 1.257 . S
C120 O141 1.260 . S
Eu121 C120 2.835 . S
Eu121 O140 2.473 . S
Eu121 O141 2.480 . S
Eu121 O142 2.430 1_545 S
Eu121 O143 2.670 1_545 S
Eu121 O144 2.394 . S
Eu121 O149 2.355 . S
Eu121 O151 2.374 1_545 S
C122 C120 1.500 . S
C122 C123 1.377 . S
C122 C127 1.377 . S
C123 C122 1.377 . S
C123 C124 1.395 . S
C123 H152 0.931 . S
C124 C123 1.395 . S
C124 C125 1.383 . S
C124 H153 0.931 . S
C125 C124 1.383 . S
C125 C126 1.394 . S
C126 C125 1.394 . S
C126 C127 1.378 . S
C126 H154 0.931 . S
C127 C122 1.377 . S
C127 C126 1.378 . S
C127 H155 0.931 . S
C128 O142 1.259 . S
C128 O143 1.270 . S
C129 O144 1.251 . S
C129 O145 1.251 . S
C130 Eu131 2.835 . S
C130 C132 1.500 . S
C130 O146 1.257 . S
C130 O147 1.260 . S
Eu131 C130 2.835 . S
Eu131 O143 2.355 . S
Eu131 O145 2.374 1_565 S
Eu131 O146 2.473 . S
Eu131 O147 2.480 . S
Eu131 O148 2.430 1_565 S
Eu131 O149 2.670 1_565 S
Eu131 O150 2.394 . S
C132 C130 1.500 . S
C132 C133 1.377 . S
C132 C137 1.377 . S
C133 C132 1.377 . S
C133 C134 1.395 . S
C133 H156 0.931 . S
C134 C133 1.395 . S
C134 C135 1.383 . S
C134 H157 0.931 . S
C135 C134 1.383 . S
C135 C136 1.394 . S
C136 C135 1.394 . S
C136 C137 1.378 . S
C136 H158 0.931 . S
C137 C132 1.377 . S
C137 C136 1.378 . S
C137 H159 0.931 . S
C138 O148 1.259 . S
C138 O149 1.270 . S
C139 O150 1.251 . S
C139 O151 1.251 . S
O140 C120 1.257 . S
O140 Eu121 2.473 . S
O141 C120 1.260 . S
O141 Eu121 2.480 . S
O142 Eu121 2.430 1_565 S
O142 C128 1.259 . S
O143 Eu121 2.670 1_565 S
O143 C128 1.270 . S
O143 Eu131 2.355 . S
O144 Eu121 2.394 . S
O144 C129 1.251 . S
O145 C129 1.251 . S
O145 Eu131 2.374 1_545 S
O146 C130 1.257 . S
O146 Eu131 2.473 . S
O147 C130 1.260 . S
O147 Eu131 2.480 . S
O148 Eu131 2.430 1_545 S
O148 C138 1.259 . S
O149 Eu121 2.355 . S
O149 Eu131 2.670 1_545 S
O149 C138 1.270 . S
O150 Eu131 2.394 . S
O150 C139 1.251 . S
O151 Eu121 2.374 1_565 S
O151 C139 1.251 . S
H152 C123 0.931 . S
H153 C124 0.931 . S
H154 C126 0.931 . S
H155 C127 0.931 . S
H156 C133 0.931 . S
H157 C134 0.931 . S
H158 C136 0.931 . S
H159 C137 0.931 . S
C160 Eu161 2.835 1_556 S
C160 C162 1.500 . S
C160 O180 1.257 1_556 S
C160 O181 1.260 . S
Eu161 C160 2.835 1_554 S
Eu161 O180 2.473 . S
Eu161 O181 2.480 1_554 S
Eu161 O182 2.430 1_554 S
Eu161 O183 2.670 . S
Eu161 O184 2.394 1_554 S
Eu161 O189 2.355 . S
Eu161 O191 2.374 . S
C162 C160 1.500 . S
C162 C163 1.377 . S
C162 C167 1.377 . S
C163 C162 1.377 . S
C163 C164 1.395 . S
C163 H192 0.931 . S
C164 C163 1.395 . S
C164 C165 1.383 . S
C164 H193 0.931 . S
C165 C164 1.383 . S
C165 C166 1.394 . S
C166 C165 1.394 . S
C166 C167 1.378 . S
C166 H194 0.931 . S
C167 C162 1.377 . S
C167 C166 1.378 . S
C167 H195 0.931 . S
C168 O182 1.259 1_554 S
C168 O183 1.270 . S
C169 O184 1.251 1_554 S
C169 O185 1.251 . S
C170 Eu171 2.835 . S
C170 C172 1.500 . S
C170 O186 1.257 . S
C170 O187 1.260 . S
Eu171 C170 2.835 . S
Eu171 O183 2.355 . S
Eu171 O185 2.374 . S
Eu171 O186 2.473 . S
Eu171 O187 2.480 . S
Eu171 O188 2.430 . S
Eu171 O189 2.670 . S
Eu171 O190 2.394 . S
C172 C170 1.500 . S
C172 C173 1.377 . S
C172 C177 1.377 . S
C173 C172 1.377 . S
C173 C174 1.395 . S
C173 H196 0.931 . S
C174 C173 1.395 . S
C174 C175 1.383 . S
C174 H197 0.931 . S
C175 C174 1.383 . S
C175 C176 1.394 . S
C176 C175 1.394 . S
C176 C177 1.378 . S
C176 H198 0.931 . S
C177 C172 1.377 . S
C177 C176 1.378 . S
C177 H199 0.931 . S
C178 O188 1.259 . S
C178 O189 1.270 . S
C179 O190 1.251 . S
C179 O191 1.251 . S
O180 C160 1.257 1_554 S
O180 Eu161 2.473 . S
O181 C160 1.260 . S
O181 Eu161 2.480 1_556 S
O182 Eu161 2.430 1_556 S
O182 C168 1.259 1_556 S
O183 Eu161 2.670 . S
O183 C168 1.270 . S
O183 Eu171 2.355 . S
O184 Eu161 2.394 1_556 S
O184 C169 1.251 1_556 S
O185 C169 1.251 . S
O185 Eu171 2.374 . S
O186 C170 1.257 . S
O186 Eu171 2.473 . S
O187 C170 1.260 . S
O187 Eu171 2.480 . S
O188 Eu171 2.430 . S
O188 C178 1.259 . S
O189 Eu161 2.355 . S
O189 Eu171 2.670 . S
O189 C178 1.270 . S
O190 Eu171 2.394 . S
O190 C179 1.251 . S
O191 Eu161 2.374 . S
O191 C179 1.251 . S
H192 C163 0.931 . S
H193 C164 0.931 . S
H194 C166 0.931 . S
H195 C167 0.931 . S
H196 C173 0.931 . S
H197 C174 0.931 . S
H198 C176 0.931 . S
H199 C177 0.931 . S
C200 Eu201 2.835 . S
C200 C202 1.500 . S
C200 O220 1.257 . S
C200 O221 1.260 . S
Eu201 C200 2.835 . S
Eu201 O220 2.473 . S
Eu201 O221 2.480 . S
Eu201 O222 2.430 1_655 S
Eu201 O223 2.670 1_655 S
Eu201 O224 2.394 . S
Eu201 O229 2.355 . S
Eu201 O231 2.374 1_655 S
C202 C200 1.500 . S
C202 C203 1.377 . S
C202 C207 1.377 . S
C203 C202 1.377 . S
C203 C204 1.395 . S
C203 H232 0.931 . S
C204 C203 1.395 . S
C204 C205 1.383 . S
C204 H233 0.931 . S
C205 C204 1.383 . S
C205 C206 1.394 . S
C206 C205 1.394 . S
C206 C207 1.378 . S
C206 H234 0.931 . S
C207 C202 1.377 . S
C207 C206 1.378 . S
C207 H235 0.931 . S
C208 O222 1.259 . S
C208 O223 1.270 . S
C209 O224 1.251 . S
C209 O225 1.251 . S
C210 Eu211 2.835 . S
C210 C212 1.500 . S
C210 O226 1.257 . S
C210 O227 1.260 . S
Eu211 C210 2.835 . S
Eu211 O223 2.355 . S
Eu211 O225 2.374 1_455 S
Eu211 O226 2.473 . S
Eu211 O227 2.480 . S
Eu211 O228 2.430 1_455 S
Eu211 O229 2.670 1_455 S
Eu211 O230 2.394 . S
C212 C210 1.500 . S
C212 C213 1.377 . S
C212 C217 1.377 . S
C213 C212 1.377 . S
C213 C214 1.395 . S
C213 H236 0.931 . S
C214 C213 1.395 . S
C214 C215 1.383 . S
C214 H237 0.931 . S
C215 C214 1.383 . S
C215 C216 1.394 . S
C216 C215 1.394 . S
C216 C217 1.378 . S
C216 H238 0.931 . S
C217 C212 1.377 . S
C217 C216 1.378 . S
C217 H239 0.931 . S
C218 O228 1.259 . S
C218 O229 1.270 . S
C219 O230 1.251 . S
C219 O231 1.251 . S
O220 C200 1.257 . S
O220 Eu201 2.473 . S
O221 C200 1.260 . S
O221 Eu201 2.480 . S
O222 Eu201 2.430 1_455 S
O222 C208 1.259 . S
O223 Eu201 2.670 1_455 S
O223 C208 1.270 . S
O223 Eu211 2.355 . S
O224 Eu201 2.394 . S
O224 C209 1.251 . S
O225 C209 1.251 . S
O225 Eu211 2.374 1_655 S
O226 C210 1.257 . S
O226 Eu211 2.473 . S
O227 C210 1.260 . S
O227 Eu211 2.480 . S
O228 Eu211 2.430 1_655 S
O228 C218 1.259 . S
O229 Eu201 2.355 . S
O229 Eu211 2.670 1_655 S
O229 C218 1.270 . S
O230 Eu211 2.394 . S
O230 C219 1.251 . S
O231 Eu201 2.374 1_455 S
O231 C219 1.251 . S
H232 C203 0.931 . S
H233 C204 0.931 . S
H234 C206 0.931 . S
H235 C207 0.931 . S
H236 C213 0.931 . S
H237 C214 0.931 . S
H238 C216 0.931 . S
H239 C217 0.931 . S
C240 Eu241 2.835 . S
C240 C242 1.500 . S
C240 O260 1.257 . S
C240 O261 1.260 . S
Eu241 C240 2.835 . S
Eu241 O260 2.473 . S
Eu241 O261 2.480 . S
Eu241 O262 2.430 1_455 S
Eu241 O263 2.670 1_455 S
Eu241 O264 2.394 . S
Eu241 O269 2.355 . S
Eu241 O271 2.374 1_455 S
C242 C240 1.500 . S
C242 C243 1.377 . S
C242 C247 1.377 . S
C243 C242 1.377 . S
C243 C244 1.395 . S
C243 H272 0.931 . S
C244 C243 1.395 . S
C244 C245 1.383 . S
C244 H273 0.931 . S
C245 C244 1.383 . S
C245 C246 1.394 . S
C246 C245 1.394 . S
C246 C247 1.378 . S
C246 H274 0.931 . S
C247 C242 1.377 . S
C247 C246 1.378 . S
C247 H275 0.931 . S
C248 O262 1.259 . S
C248 O263 1.270 . S
C249 O264 1.251 . S
C249 O265 1.251 . S
C250 Eu251 2.835 . S
C250 C252 1.500 . S
C250 O266 1.257 . S
C250 O267 1.260 . S
Eu251 C250 2.835 . S
Eu251 O263 2.355 . S
Eu251 O265 2.374 1_655 S
Eu251 O266 2.473 . S
Eu251 O267 2.480 . S
Eu251 O268 2.430 1_655 S
Eu251 O269 2.670 1_655 S
Eu251 O270 2.394 . S
C252 C250 1.500 . S
C252 C253 1.377 . S
C252 C257 1.377 . S
C253 C252 1.377 . S
C253 C254 1.395 . S
C253 H276 0.931 . S
C254 C253 1.395 . S
C254 C255 1.383 . S
C254 H277 0.931 . S
C255 C254 1.383 . S
C255 C256 1.394 . S
C256 C255 1.394 . S
C256 C257 1.378 . S
C256 H278 0.931 . S
C257 C252 1.377 . S
C257 C256 1.378 . S
C257 H279 0.931 . S
C258 O268 1.259 . S
C258 O269 1.270 . S
C259 O270 1.251 . S
C259 O271 1.251 . S
O260 C240 1.257 . S
O260 Eu241 2.473 . S
O261 C240 1.260 . S
O261 Eu241 2.480 . S
O262 Eu241 2.430 1_655 S
O262 C248 1.259 . S
O263 Eu241 2.670 1_655 S
O263 C248 1.270 . S
O263 Eu251 2.355 . S
O264 Eu241 2.394 . S
O264 C249 1.251 . S
O265 C249 1.251 . S
O265 Eu251 2.374 1_455 S
O266 C250 1.257 . S
O266 Eu251 2.473 . S
O267 C250 1.260 . S
O267 Eu251 2.480 . S
O268 Eu251 2.430 1_455 S
O268 C258 1.259 . S
O269 Eu241 2.355 . S
O269 Eu251 2.670 1_455 S
O269 C258 1.270 . S
O270 Eu251 2.394 . S
O270 C259 1.251 . S
O271 Eu241 2.374 1_655 S
O271 C259 1.251 . S
H272 C243 0.931 . S
H273 C244 0.931 . S
H274 C246 0.931 . S
H275 C247 0.931 . S
H276 C253 0.931 . S
H277 C254 0.931 . S
H278 C256 0.931 . S
H279 C257 0.931 . S
C280 Eu281 2.835 . S
C280 C282 1.500 . S
C280 O300 1.257 . S
C280 O301 1.260 . S
Eu281 C280 2.835 . S
Eu281 O300 2.473 . S
Eu281 O301 2.480 . S
Eu281 O302 2.430 1_545 S
Eu281 O303 2.670 1_545 S
Eu281 O304 2.394 . S
Eu281 O309 2.355 . S
Eu281 O311 2.374 1_545 S
C282 C280 1.500 . S
C282 C283 1.377 . S
C282 C287 1.377 . S
C283 C282 1.377 . S
C283 C284 1.395 . S
C283 H312 0.931 . S
C284 C283 1.395 . S
C284 C285 1.383 . S
C284 H313 0.931 . S
C285 C284 1.383 . S
C285 C286 1.394 . S
C286 C285 1.394 . S
C286 C287 1.378 . S
C286 H314 0.931 . S
C287 C282 1.377 . S
C287 C286 1.378 . S
C287 H315 0.931 . S
C288 O302 1.259 . S
C288 O303 1.270 . S
C289 O304 1.251 . S
C289 O305 1.251 . S
C290 Eu291 2.835 . S
C290 C292 1.500 . S
C290 O306 1.257 . S
C290 O307 1.260 . S
Eu291 C290 2.835 . S
Eu291 O303 2.355 . S
Eu291 O305 2.374 1_565 S
Eu291 O306 2.473 . S
Eu291 O307 2.480 . S
Eu291 O308 2.430 1_565 S
Eu291 O309 2.670 1_565 S
Eu291 O310 2.394 . S
C292 C290 1.500 . S
C292 C293 1.377 . S
C292 C297 1.377 . S
C293 C292 1.377 . S
C293 C294 1.395 . S
C293 H316 0.931 . S
C294 C293 1.395 . S
C294 C295 1.383 . S
C294 H317 0.931 . S
C295 C294 1.383 . S
C295 C296 1.394 . S
C296 C295 1.394 . S
C296 C297 1.378 . S
C296 H318 0.931 . S
C297 C292 1.377 . S
C297 C296 1.378 . S
C297 H319 0.931 . S
C298 O308 1.259 . S
C298 O309 1.270 . S
C299 O310 1.251 . S
C299 O311 1.251 . S
O300 C280 1.257 . S
O300 Eu281 2.473 . S
O301 C280 1.260 . S
O301 Eu281 2.480 . S
O302 Eu281 2.430 1_565 S
O302 C288 1.259 . S
O303 Eu281 2.670 1_565 S
O303 C288 1.270 . S
O303 Eu291 2.355 . S
O304 Eu281 2.394 . S
O304 C289 1.251 . S
O305 C289 1.251 . S
O305 Eu291 2.374 1_545 S
O306 C290 1.257 . S
O306 Eu291 2.473 . S
O307 C290 1.260 . S
O307 Eu291 2.480 . S
O308 Eu291 2.430 1_545 S
O308 C298 1.259 . S
O309 Eu281 2.355 . S
O309 Eu291 2.670 1_545 S
O309 C298 1.270 . S
O310 Eu291 2.394 . S
O310 C299 1.251 . S
O311 Eu281 2.374 1_565 S
O311 C299 1.251 . S
H312 C283 0.931 . S
H313 C284 0.931 . S
H314 C286 0.931 . S
H315 C287 0.931 . S
H316 C293 0.931 . S
H317 C294 0.931 . S
H318 C296 0.931 . S
H319 C297 0.931 . S
C320 Eu321 2.835 . S
C320 C322 1.500 . S
C320 O340 1.257 . S
C320 O341 1.260 . S
Eu321 C320 2.835 . S
Eu321 O340 2.473 . S
Eu321 O341 2.480 . S
Eu321 O342 2.430 . S
Eu321 O343 2.670 . S
Eu321 O344 2.394 . S
Eu321 O349 2.355 . S
Eu321 O351 2.374 . S
C322 C320 1.500 . S
C322 C323 1.377 . S
C322 C327 1.377 . S
C323 C322 1.377 . S
C323 C324 1.395 . S
C323 H352 0.931 . S
C324 C323 1.395 . S
C324 C325 1.383 . S
C324 H353 0.931 . S
C325 C324 1.383 . S
C325 C326 1.394 . S
C326 C325 1.394 . S
C326 C327 1.378 . S
C326 H354 0.931 . S
C327 C322 1.377 . S
C327 C326 1.378 . S
C327 H355 0.931 . S
C328 O342 1.259 . S
C328 O343 1.270 . S
C329 O344 1.251 . S
C329 O345 1.251 . S
C330 Eu331 2.835 . S
C330 C332 1.500 . S
C330 O346 1.257 . S
C330 O347 1.260 . S
Eu331 C330 2.835 . S
Eu331 O343 2.355 . S
Eu331 O345 2.374 . S
Eu331 O346 2.473 . S
Eu331 O347 2.480 . S
Eu331 O348 2.430 . S
Eu331 O349 2.670 . S
Eu331 O350 2.394 . S
C332 C330 1.500 . S
C332 C333 1.377 . S
C332 C337 1.377 . S
C333 C332 1.377 . S
C333 C334 1.395 . S
C333 H356 0.931 . S
C334 C333 1.395 . S
C334 C335 1.383 . S
C334 H357 0.931 . S
C335 C334 1.383 . S
C335 C336 1.394 . S
C336 C335 1.394 . S
C336 C337 1.378 . S
C336 H358 0.931 . S
C337 C332 1.377 . S
C337 C336 1.378 . S
C337 H359 0.931 . S
C338 O348 1.259 . S
C338 O349 1.270 . S
C339 O350 1.251 . S
C339 O351 1.251 . S
O340 C320 1.257 . S
O340 Eu321 2.473 . S
O341 C320 1.260 . S
O341 Eu321 2.480 . S
O342 Eu321 2.430 . S
O342 C328 1.259 . S
O343 Eu321 2.670 . S
O343 C328 1.270 . S
O343 Eu331 2.355 . S
O344 Eu321 2.394 . S
O344 C329 1.251 . S
O345 C329 1.251 . S
O345 Eu331 2.374 . S
O346 C330 1.257 . S
O346 Eu331 2.473 . S
O347 C330 1.260 . S
O347 Eu331 2.480 . S
O348 Eu331 2.430 . S
O348 C338 1.259 . S
O349 Eu321 2.355 . S
O349 Eu331 2.670 . S
O349 C338 1.270 . S
O350 Eu331 2.394 . S
O350 C339 1.251 . S
O351 Eu321 2.374 . S
O351 C339 1.251 . S
H352 C323 0.931 . S
H353 C324 0.931 . S
H354 C326 0.931 . S
H355 C327 0.931 . S
H356 C333 0.931 . S
H357 C334 0.931 . S
H358 C336 0.931 . S
H359 C337 0.931 . S
C360 Eu361 2.835 . S
C360 C362 1.500 1_556 S
C360 O380 1.257 . S
C360 O381 1.262 . S
Eu361 C360 2.835 . S
Eu361 O380 2.473 . S
Eu361 O381 2.486 . S
Eu361 O382 2.430 1_655 S
Eu361 O383 2.670 1_655 S
Eu361 O384 2.394 . S
Eu361 O389 2.355 . S
Eu361 O391 2.374 1_655 S
C362 C360 1.500 1_554 S
C362 C363 1.377 . S
C362 C367 1.377 . S
C363 C362 1.377 . S
C363 C364 1.395 . S
C363 H392 0.931 . S
C364 C363 1.395 . S
C364 C365 1.383 . S
C364 H393 0.931 . S
C365 C364 1.383 . S
C365 C366 1.394 . S
C366 C365 1.394 . S
C366 C367 1.378 . S
C366 H394 0.931 . S
C367 C362 1.377 . S
C367 C366 1.378 . S
C367 H395 0.931 1_554 S
C368 O382 1.259 . S
C368 O383 1.270 . S
C369 O384 1.251 . S
C369 O385 1.251 . S
C370 Eu371 2.835 . S
C370 C372 1.500 . S
C370 O386 1.257 . S
C370 O387 1.260 . S
Eu371 C370 2.835 . S
Eu371 O383 2.355 . S
Eu371 O385 2.374 1_455 S
Eu371 O386 2.473 . S
Eu371 O387 2.480 . S
Eu371 O388 2.430 1_455 S
Eu371 O389 2.670 1_455 S
Eu371 O390 2.394 . S
C372 C370 1.500 . S
C372 C373 1.377 . S
C372 C377 1.377 . S
C373 C372 1.377 . S
C373 C374 1.395 . S
C373 H396 0.931 . S
C374 C373 1.395 . S
C374 C375 1.383 . S
C374 H397 0.931 . S
C375 C374 1.383 . S
C375 C376 1.394 . S
C376 C375 1.394 . S
C376 C377 1.378 . S
C376 H398 0.931 . S
C377 C372 1.377 . S
C377 C376 1.378 . S
C377 H399 0.931 . S
C378 O388 1.259 . S
C378 O389 1.270 . S
C379 O390 1.251 . S
C379 O391 1.251 . S
O380 C360 1.257 . S
O380 Eu361 2.473 . S
O381 C360 1.262 . S
O381 Eu361 2.486 . S
O382 Eu361 2.430 1_455 S
O382 C368 1.259 . S
O383 Eu361 2.670 1_455 S
O383 C368 1.270 . S
O383 Eu371 2.355 . S
O384 Eu361 2.394 . S
O384 C369 1.251 . S
O385 C369 1.251 . S
O385 Eu371 2.374 1_655 S
O386 C370 1.257 . S
O386 Eu371 2.473 . S
O387 C370 1.260 . S
O387 Eu371 2.480 . S
O388 Eu371 2.430 1_655 S
O388 C378 1.259 . S
O389 Eu361 2.355 . S
O389 Eu371 2.670 1_655 S
O389 C378 1.270 . S
O390 Eu371 2.394 . S
O390 C379 1.251 . S
O391 Eu361 2.374 1_455 S
O391 C379 1.251 . S
H392 C363 0.931 . S
H393 C364 0.931 . S
H394 C366 0.931 . S
H395 C367 0.931 1_556 S
H396 C373 0.931 . S
H397 C374 0.931 . S
H398 C376 0.931 . S
H399 C377 0.931 . S
C400 Eu401 2.835 . S
C400 C402 1.500 . S
C400 O420 1.257 . S
C400 O421 1.260 . S
Eu401 C400 2.835 . S
Eu401 O420 2.473 . S
Eu401 O421 2.480 . S
Eu401 O422 2.430 1_565 S
Eu401 O423 2.670 1_565 S
Eu401 O424 2.394 . S
Eu401 O429 2.355 . S
Eu401 O431 2.374 1_565 S
C402 C400 1.500 . S
C402 C403 1.377 . S
C402 C407 1.377 . S
C403 C402 1.377 . S
C403 C404 1.395 . S
C403 H432 0.931 . S
C404 C403 1.395 . S
C404 C405 1.383 . S
C404 H433 0.931 . S
C405 C404 1.383 . S
C405 C406 1.394 . S
C406 C405 1.394 . S
C406 C407 1.378 . S
C406 H434 0.931 . S
C407 C402 1.377 . S
C407 C406 1.378 . S
C407 H435 0.931 . S
C408 O422 1.259 . S
C408 O423 1.270 . S
C409 O424 1.251 . S
C409 O425 1.251 . S
C410 Eu411 2.835 . S
C410 C412 1.500 . S
C410 O426 1.257 . S
C410 O427 1.260 . S
Eu411 C410 2.835 . S
Eu411 O423 2.355 . S
Eu411 O425 2.374 1_545 S
Eu411 O426 2.473 . S
Eu411 O427 2.480 . S
Eu411 O428 2.430 1_545 S
Eu411 O429 2.670 1_545 S
Eu411 O430 2.394 . S
C412 C410 1.500 . S
C412 C413 1.377 . S
C412 C417 1.377 . S
C413 C412 1.377 . S
C413 C414 1.395 . S
C413 H436 0.931 . S
C414 C413 1.395 . S
C414 C415 1.383 . S
C414 H437 0.931 . S
C415 C414 1.383 . S
C415 C416 1.394 . S
C416 C415 1.394 . S
C416 C417 1.378 . S
C416 H438 0.931 . S
C417 C412 1.377 . S
C417 C416 1.378 . S
C417 H439 0.931 . S
C418 O428 1.259 . S
C418 O429 1.270 . S
C419 O430 1.251 . S
C419 O431 1.251 . S
O420 C400 1.257 . S
O420 Eu401 2.473 . S
O421 C400 1.260 . S
O421 Eu401 2.480 . S
O422 Eu401 2.430 1_545 S
O422 C408 1.259 . S
O423 Eu401 2.670 1_545 S
O423 C408 1.270 . S
O423 Eu411 2.355 . S
O424 Eu401 2.394 . S
O424 C409 1.251 . S
O425 C409 1.251 . S
O425 Eu411 2.374 1_565 S
O426 C410 1.257 . S
O426 Eu411 2.473 . S
O427 C410 1.260 . S
O427 Eu411 2.480 . S
O428 Eu411 2.430 1_565 S
O428 C418 1.259 . S
O429 Eu401 2.355 . S
O429 Eu411 2.670 1_565 S
O429 C418 1.270 . S
O430 Eu411 2.394 . S
O430 C419 1.251 . S
O431 Eu401 2.374 1_545 S
O431 C419 1.251 . S
H432 C403 0.931 . S
H433 C404 0.931 . S
H434 C406 0.931 . S
H435 C407 0.931 . S
H436 C413 0.931 . S
H437 C414 0.931 . S
H438 C416 0.931 . S
H439 C417 0.931 . S
C440 Eu441 2.835 . S
C440 C442 1.500 . S
C440 O460 1.257 . S
C440 O461 1.260 . S
Eu441 C440 2.835 . S
Eu441 O460 2.473 . S
Eu441 O461 2.480 . S
Eu441 O462 2.430 . S
Eu441 O463 2.670 . S
Eu441 O464 2.394 . S
Eu441 O469 2.355 . S
Eu441 O471 2.374 . S
C442 C440 1.500 . S
C442 C443 1.377 . S
C442 C447 1.377 . S
C443 C442 1.377 . S
C443 C444 1.395 . S
C443 H472 0.931 . S
C444 C443 1.395 . S
C444 C445 1.383 . S
C444 H473 0.931 . S
C445 C444 1.383 . S
C445 C446 1.394 . S
C446 C445 1.394 . S
C446 C447 1.378 . S
C446 H474 0.931 . S
C447 C442 1.377 . S
C447 C446 1.378 . S
C447 H475 0.931 . S
C448 O462 1.259 . S
C448 O463 1.270 . S
C449 O464 1.251 . S
C449 O465 1.251 . S
C450 Eu451 2.835 . S
C450 C452 1.500 . S
C450 O466 1.257 . S
C450 O467 1.260 . S
Eu451 C450 2.835 . S
Eu451 O463 2.355 . S
Eu451 O465 2.374 . S
Eu451 O466 2.473 . S
Eu451 O467 2.480 . S
Eu451 O468 2.430 . S
Eu451 O469 2.670 . S
Eu451 O470 2.394 . S
C452 C450 1.500 . S
C452 C453 1.377 . S
C452 C457 1.377 . S
C453 C452 1.377 . S
C453 C454 1.395 . S
C453 H476 0.931 . S
C454 C453 1.395 . S
C454 C455 1.383 . S
C454 H477 0.931 . S
C455 C454 1.383 . S
C455 C456 1.394 . S
C456 C455 1.394 . S
C456 C457 1.378 . S
C456 H478 0.931 . S
C457 C452 1.377 . S
C457 C456 1.378 . S
C457 H479 0.931 . S
C458 O468 1.259 . S
C458 O469 1.270 . S
C459 O470 1.251 . S
C459 O471 1.251 . S
O460 C440 1.257 . S
O460 Eu441 2.473 . S
O461 C440 1.260 . S
O461 Eu441 2.480 . S
O462 Eu441 2.430 . S
O462 C448 1.259 . S
O463 Eu441 2.670 . S
O463 C448 1.270 . S
O463 Eu451 2.355 . S
O464 Eu441 2.394 . S
O464 C449 1.251 . S
O465 C449 1.251 . S
O465 Eu451 2.374 . S
O466 C450 1.257 . S
O466 Eu451 2.473 . S
O467 C450 1.260 . S
O467 Eu451 2.480 . S
O468 Eu451 2.430 . S
O468 C458 1.259 . S
O469 Eu441 2.355 . S
O469 Eu451 2.670 . S
O469 C458 1.270 . S
O470 Eu451 2.394 . S
O470 C459 1.251 . S
O471 Eu441 2.374 . S
O471 C459 1.251 . S
H472 C443 0.931 . S
H473 C444 0.931 . S
H474 C446 0.931 . S
H475 C447 0.931 . S
H476 C453 0.931 . S
H477 C454 0.931 . S
H478 C456 0.931 . S
H479 C457 0.931 . S
H480 C486 0.930 . S
H481 C489 0.930 . S
H482 C490 0.930 . S
H483 C491 0.930 . S
H484 C494 0.930 . S
H485 C495 0.930 . S
C486 H480 0.930 . S
C486 C487 1.355 . S
C486 C488 1.415 . S
C487 C486 1.355 . S
C487 C489 1.419 . S
C488 C486 1.415 . S
C488 C493 1.425 . S
C488 C495 1.409 . S
C489 H481 0.930 . S
C489 C487 1.419 . S
C489 C490 1.362 . S
C490 H482 0.930 . S
C490 C489 1.362 . S
C490 C493 1.409 . S
C491 H483 0.930 . S
C491 C492 1.355 . S
C491 C493 1.415 . S
C492 C491 1.355 . S
C492 C494 1.419 . S
C493 C488 1.425 . S
C493 C490 1.409 . S
C493 C491 1.415 . S
C494 H484 0.930 . S
C494 C492 1.419 . S
C494 C495 1.362 . S
C495 H485 0.930 . S
C495 C488 1.409 . S
C495 C494 1.362 . S
H496 C502 0.930 . S
H497 C505 0.930 . S
H498 C506 0.930 . S
H499 C507 0.930 . S
H500 C510 0.930 . S
H501 C511 0.930 . S
C502 H496 0.930 . S
C502 C503 1.355 . S
C502 C504 1.415 . S
C503 C502 1.355 . S
C503 C505 1.419 . S
C504 C502 1.415 . S
C504 C509 1.425 . S
C504 C511 1.409 . S
C505 H497 0.930 . S
C505 C503 1.419 . S
C505 C506 1.362 . S
C506 H498 0.930 . S
C506 C505 1.362 . S
C506 C509 1.409 . S
C507 H499 0.930 . S
C507 C508 1.355 . S
C507 C509 1.415 . S
C508 C507 1.355 . S
C508 C510 1.419 . S
C509 C504 1.425 . S
C509 C506 1.409 . S
C509 C507 1.415 . S
C510 H500 0.930 . S
C510 C508 1.419 . S
C510 C511 1.362 . S
C511 H501 0.930 . S
C511 C504 1.409 . S
C511 C510 1.362 . S
H512 C518 0.930 . S
H513 C521 0.930 . S
H514 C522 0.930 . S
H515 C523 0.930 . S
H516 C526 0.930 . S
H517 C527 0.930 . S
C518 H512 0.930 . S
C518 C519 1.355 . S
C518 C520 1.415 . S
C519 C518 1.355 . S
C519 C521 1.419 . S
C520 C518 1.415 . S
C520 C525 1.425 . S
C520 C527 1.409 . S
C521 H513 0.930 . S
C521 C519 1.419 . S
C521 C522 1.362 . S
C522 H514 0.930 . S
C522 C521 1.362 . S
C522 C525 1.409 . S
C523 H515 0.930 . S
C523 C524 1.355 . S
C523 C525 1.415 . S
C524 C523 1.355 . S
C524 C526 1.419 . S
C525 C520 1.425 . S
C525 C522 1.409 . S
C525 C523 1.415 . S
C526 H516 0.930 . S
C526 C524 1.419 . S
C526 C527 1.362 . S
C527 H517 0.930 . S
C527 C520 1.409 . S
C527 C526 1.362 . S
H528 C534 0.930 . S
H529 C537 0.930 . S
H530 C538 0.930 . S
H531 C539 0.930 . S
H532 C542 0.930 . S
H533 C543 0.930 . S
C534 H528 0.930 . S
C534 C535 1.355 . S
C534 C536 1.415 . S
C535 C534 1.355 . S
C535 C537 1.419 . S
C536 C534 1.415 . S
C536 C541 1.425 . S
C536 C543 1.409 . S
C537 H529 0.930 . S
C537 C535 1.419 . S
C537 C538 1.362 . S
C538 H530 0.930 . S
C538 C537 1.362 . S
C538 C541 1.409 . S
C539 H531 0.930 . S
C539 C540 1.355 . S
C539 C541 1.415 . S
C540 C539 1.355 . S
C540 C542 1.419 . S
C541 C536 1.425 . S
C541 C538 1.409 . S
C541 C539 1.415 . S
C542 H532 0.930 . S
C542 C540 1.419 . S
C542 C543 1.362 . S
C543 H533 0.930 . S
C543 C536 1.409 . S
C543 C542 1.362 . S
H544 C550 0.930 . S
H545 C553 0.930 . S
H546 C554 0.930 . S
H547 C555 0.930 . S
H548 C558 0.930 . S
H549 C559 0.930 . S
C550 H544 0.930 . S
C550 C551 1.355 . S
C550 C552 1.415 . S
C551 C550 1.355 . S
C551 C553 1.419 . S
C552 C550 1.415 . S
C552 C557 1.425 . S
C552 C559 1.409 . S
C553 H545 0.930 . S
C553 C551 1.419 . S
C553 C554 1.362 . S
C554 H546 0.930 . S
C554 C553 1.362 . S
C554 C557 1.409 . S
C555 H547 0.930 . S
C555 C556 1.355 . S
C555 C557 1.415 . S
C556 C555 1.355 . S
C556 C558 1.419 . S
C557 C552 1.425 . S
C557 C554 1.409 . S
C557 C555 1.415 . S
C558 H548 0.930 . S
C558 C556 1.419 . S
C558 C559 1.362 . S
C559 H549 0.930 . S
C559 C552 1.409 . S
C559 C558 1.362 . S
H560 C566 0.930 . S
H561 C569 0.930 . S
H562 C570 0.930 . S
H563 C571 0.930 . S
H564 C574 0.930 . S
H565 C575 0.930 . S
C566 H560 0.930 . S
C566 C567 1.355 . S
C566 C568 1.415 . S
C567 C566 1.355 . S
C567 C569 1.419 . S
C568 C566 1.415 . S
C568 C573 1.425 . S
C568 C575 1.409 . S
C569 H561 0.930 . S
C569 C567 1.419 . S
C569 C570 1.362 . S
C570 H562 0.930 . S
C570 C569 1.362 . S
C570 C573 1.409 . S
C571 H563 0.930 . S
C571 C572 1.355 . S
C571 C573 1.415 . S
C572 C571 1.355 . S
C572 C574 1.419 . S
C573 C568 1.425 . S
C573 C570 1.409 . S
C573 C571 1.415 . S
C574 H564 0.930 . S
C574 C572 1.419 . S
C574 C575 1.362 . S
C575 H565 0.930 . S
C575 C568 1.409 . S
C575 C574 1.362 . S
H576 C582 0.930 . S
H577 C585 0.930 . S
H578 C586 0.930 . S
H579 C587 0.930 . S
H580 C590 0.930 . S
H581 C591 0.930 . S
C582 H576 0.930 . S
C582 C583 1.355 . S
C582 C584 1.415 . S
C583 C582 1.355 . S
C583 C585 1.419 . S
C584 C582 1.415 . S
C584 C589 1.425 . S
C584 C591 1.409 . S
C585 H577 0.930 . S
C585 C583 1.419 . S
C585 C586 1.362 . S
C586 H578 0.930 . S
C586 C585 1.362 . S
C586 C589 1.409 . S
C587 H579 0.930 . S
C587 C588 1.355 . S
C587 C589 1.415 . S
C588 C587 1.355 . S
C588 C590 1.419 . S
C589 C584 1.425 . S
C589 C586 1.409 . S
C589 C587 1.415 . S
C590 H580 0.930 . S
C590 C588 1.419 . S
C590 C591 1.362 . S
C591 H581 0.930 . S
C591 C584 1.409 . S
C591 C590 1.362 . S
H592 C598 0.930 . S
H593 C601 0.930 . S
H594 C602 0.930 . S
H595 C603 0.930 . S
H596 C606 0.930 . S
H597 C607 0.930 . S
C598 H592 0.930 . S
C598 C599 1.355 . S
C598 C600 1.415 . S
C599 C598 1.355 . S
C599 C601 1.419 . S
C600 C598 1.415 . S
C600 C605 1.425 . S
C600 C607 1.409 . S
C601 H593 0.930 . S
C601 C599 1.419 . S
C601 C602 1.362 . S
C602 H594 0.930 . S
C602 C601 1.362 . S
C602 C605 1.409 . S
C603 H595 0.930 . S
C603 C604 1.355 . S
C603 C605 1.415 . S
C604 C603 1.355 . S
C604 C606 1.419 . S
C605 C600 1.425 . S
C605 C602 1.409 . S
C605 C603 1.415 . S
C606 H596 0.930 . S
C606 C604 1.419 . S
C606 C607 1.362 . S
C607 H597 0.930 . S
C607 C600 1.409 . S
C607 C606 1.362 . S
H608 C614 0.930 . S
H609 C617 0.930 . S
H610 C618 0.930 . S
H611 C619 0.930 . S
H612 C622 0.930 . S
H613 C623 0.930 . S
C614 H608 0.930 . S
C614 C615 1.355 . S
C614 C616 1.415 . S
C615 C614 1.355 . S
C615 C617 1.419 . S
C616 C614 1.415 . S
C616 C621 1.425 . S
C616 C623 1.409 . S
C617 H609 0.930 . S
C617 C615 1.419 . S
C617 C618 1.362 . S
C618 H610 0.930 . S
C618 C617 1.362 . S
C618 C621 1.409 . S
C619 H611 0.930 . S
C619 C620 1.355 . S
C619 C621 1.415 . S
C620 C619 1.355 . S
C620 C622 1.419 . S
C621 C616 1.425 . S
C621 C618 1.409 . S
C621 C619 1.415 . S
C622 H612 0.930 . S
C622 C620 1.419 . S
C622 C623 1.362 . S
C623 H613 0.930 . S
C623 C616 1.409 . S
C623 C622 1.362 . S
H624 C630 0.930 . S
H625 C633 0.930 . S
H626 C634 0.930 . S
H627 C635 0.930 . S
H628 C638 0.930 . S
H629 C639 0.930 . S
C630 H624 0.930 . S
C630 C631 1.355 . S
C630 C632 1.415 . S
C631 C630 1.355 . S
C631 C633 1.419 . S
C632 C630 1.415 . S
C632 C637 1.425 . S
C632 C639 1.409 . S
C633 H625 0.930 . S
C633 C631 1.419 . S
C633 C634 1.362 . S
C634 H626 0.930 . S
C634 C633 1.362 . S
C634 C637 1.409 . S
C635 H627 0.930 . S
C635 C636 1.355 . S
C635 C637 1.415 . S
C636 C635 1.355 . S
C636 C638 1.419 . S
C637 C632 1.425 . S
C637 C634 1.409 . S
C637 C635 1.415 . S
C638 H628 0.930 . S
C638 C636 1.419 . S
C638 C639 1.362 . S
C639 H629 0.930 . S
C639 C632 1.409 . S
C639 C638 1.362 . S
H640 C646 0.930 . S
H641 C649 0.930 . S
H642 C650 0.930 . S
H643 C651 0.930 . S
H644 C654 0.930 . S
H645 C655 0.930 . S
C646 H640 0.930 . S
C646 C647 1.355 . S
C646 C648 1.415 . S
C647 C646 1.355 . S
C647 C649 1.419 . S
C648 C646 1.415 . S
C648 C653 1.425 . S
C648 C655 1.409 . S
C649 H641 0.930 . S
C649 C647 1.419 . S
C649 C650 1.362 . S
C650 H642 0.930 . S
C650 C649 1.362 . S
C650 C653 1.409 . S
C651 H643 0.930 . S
C651 C652 1.355 . S
C651 C653 1.415 . S
C652 C651 1.355 . S
C652 C654 1.419 . S
C653 C648 1.425 . S
C653 C650 1.409 . S
C653 C651 1.415 . S
C654 H644 0.930 . S
C654 C652 1.419 . S
C654 C655 1.362 . S
C655 H645 0.930 . S
C655 C648 1.409 . S
C655 C654 1.362 . S
H656 C662 0.930 . S
H657 C665 0.930 . S
H658 C666 0.930 . S
H659 C667 0.930 . S
H660 C670 0.930 . S
H661 C671 0.930 1_455 S
C662 H656 0.930 . S
C662 C663 1.355 . S
C662 C664 1.415 . S
C663 C662 1.355 . S
C663 C665 1.419 . S
C664 C662 1.415 . S
C664 C669 1.425 . S
C664 C671 1.409 . S
C665 H657 0.930 . S
C665 C663 1.419 . S
C665 C666 1.362 . S
C666 H658 0.930 . S
C666 C665 1.362 . S
C666 C669 1.409 . S
C667 H659 0.930 . S
C667 C668 1.355 . S
C667 C669 1.415 . S
C668 C667 1.355 . S
C668 C670 1.419 . S
C669 C664 1.425 . S
C669 C666 1.409 . S
C669 C667 1.415 . S
C670 H660 0.930 . S
C670 C668 1.419 . S
C670 C671 1.362 . S
C671 H661 0.930 1_655 S
C671 C664 1.409 . S
C671 C670 1.362 . S
H672 C678 0.930 . S
H673 C681 0.930 . S
H674 C682 0.930 . S
H675 C683 0.930 . S
H676 C686 0.930 . S
H677 C687 0.930 . S
C678 H672 0.930 . S
C678 C679 1.355 . S
C678 C680 1.415 . S
C679 C678 1.355 . S
C679 C681 1.419 . S
C680 C678 1.415 . S
C680 C685 1.425 . S
C680 C687 1.409 . S
C681 H673 0.930 . S
C681 C679 1.419 . S
C681 C682 1.362 . S
C682 H674 0.930 . S
C682 C681 1.362 . S
C682 C685 1.409 . S
C683 H675 0.930 . S
C683 C684 1.355 . S
C683 C685 1.415 . S
C684 C683 1.355 . S
C684 C686 1.419 . S
C685 C680 1.425 . S
C685 C682 1.409 . S
C685 C683 1.415 . S
C686 H676 0.930 . S
C686 C684 1.419 . S
C686 C687 1.362 . S
C687 H677 0.930 . S
C687 C680 1.409 . S
C687 C686 1.362 . S
H688 C694 0.930 . S
H689 C697 0.930 . S
H690 C698 0.930 . S
H691 C699 0.930 . S
H692 C702 0.930 . S
H693 C703 0.930 . S
C694 H688 0.930 . S
C694 C695 1.355 . S
C694 C696 1.415 . S
C695 C694 1.355 . S
C695 C697 1.419 . S
C696 C694 1.415 . S
C696 C701 1.425 . S
C696 C703 1.409 . S
C697 H689 0.930 . S
C697 C695 1.419 . S
C697 C698 1.362 . S
C698 H690 0.930 . S
C698 C697 1.362 . S
C698 C701 1.409 . S
C699 H691 0.930 . S
C699 C700 1.355 . S
C699 C701 1.415 . S
C700 C699 1.355 . S
C700 C702 1.419 . S
C701 C696 1.425 . S
C701 C698 1.409 . S
C701 C699 1.415 . S
C702 H692 0.930 . S
C702 C700 1.419 . S
C702 C703 1.362 . S
C703 H693 0.930 . S
C703 C696 1.409 . S
C703 C702 1.362 . S
H704 C710 0.930 . S
H705 C713 0.930 . S
H706 C714 0.930 . S
H707 C715 0.930 . S
H708 C718 0.930 . S
H709 C719 0.930 . S
C710 H704 0.930 . S
C710 C711 1.355 . S
C710 C712 1.415 . S
C711 C710 1.355 . S
C711 C713 1.419 . S
C712 C710 1.415 . S
C712 C717 1.425 . S
C712 C719 1.409 . S
C713 H705 0.930 . S
C713 C711 1.419 . S
C713 C714 1.362 . S
C714 H706 0.930 . S
C714 C713 1.362 . S
C714 C717 1.409 . S
C715 H707 0.930 . S
C715 C716 1.355 . S
C715 C717 1.415 . S
C716 C715 1.355 . S
C716 C718 1.419 . S
C717 C712 1.425 . S
C717 C714 1.409 . S
C717 C715 1.415 . S
C718 H708 0.930 . S
C718 C716 1.419 . S
C718 C719 1.362 . S
C719 H709 0.930 . S
C719 C712 1.409 . S
C719 C718 1.362 . S
H720 C726 0.930 . S
H721 C729 0.930 . S
H722 C730 0.930 . S
H723 C731 0.930 . S
H724 C734 0.930 . S
H725 C735 0.930 . S
C726 H720 0.930 . S
C726 C727 1.355 . S
C726 C728 1.415 . S
C727 C726 1.355 . S
C727 C729 1.419 . S
C728 C726 1.415 . S
C728 C733 1.425 . S
C728 C735 1.409 . S
C729 H721 0.930 . S
C729 C727 1.419 . S
C729 C730 1.362 . S
C730 H722 0.930 . S
C730 C729 1.362 . S
C730 C733 1.409 . S
C731 H723 0.930 . S
C731 C732 1.355 . S
C731 C733 1.415 . S
C732 C731 1.355 . S
C732 C734 1.419 . S
C733 C728 1.425 . S
C733 C730 1.409 . S
C733 C731 1.415 . S
C734 H724 0.930 . S
C734 C732 1.419 . S
C734 C735 1.362 . S
C735 H725 0.930 . S
C735 C728 1.409 . S
C735 C734 1.362 . S
H736 C742 0.930 . S
H737 C745 0.930 . S
H738 C746 0.930 . S
H739 C747 0.930 . S
H740 C750 0.930 . S
H741 C751 0.930 . S
C742 H736 0.930 . S
C742 C743 1.355 . S
C742 C744 1.415 . S
C743 C742 1.355 . S
C743 C745 1.419 . S
C744 C742 1.415 . S
C744 C749 1.425 . S
C744 C751 1.409 . S
C745 H737 0.930 . S
C745 C743 1.419 . S
C745 C746 1.362 . S
C746 H738 0.930 . S
C746 C745 1.362 . S
C746 C749 1.409 . S
C747 H739 0.930 . S
C747 C748 1.355 . S
C747 C749 1.415 . S
C748 C747 1.355 . S
C748 C750 1.419 . S
C749 C744 1.425 . S
C749 C746 1.409 . S
C749 C747 1.415 . S
C750 H740 0.930 . S
C750 C748 1.419 . S
C750 C751 1.362 . S
C751 H741 0.930 . S
C751 C744 1.409 . S
C751 C750 1.362 . S
H752 C758 0.930 . S
H753 C761 0.930 . S
H754 C762 0.930 . S
H755 C763 0.930 . S
H756 C766 0.930 . S
H757 C767 0.930 . S
C758 H752 0.930 . S
C758 C759 1.355 . S
C758 C760 1.415 . S
C759 C758 1.355 . S
C759 C761 1.419 . S
C760 C758 1.415 . S
C760 C765 1.425 . S
C760 C767 1.409 . S
C761 H753 0.930 . S
C761 C759 1.419 . S
C761 C762 1.362 . S
C762 H754 0.930 . S
C762 C761 1.362 . S
C762 C765 1.409 . S
C763 H755 0.930 . S
C763 C764 1.355 . S
C763 C765 1.415 . S
C764 C763 1.355 . S
C764 C766 1.419 . S
C765 C760 1.425 . S
C765 C762 1.409 . S
C765 C763 1.415 . S
C766 H756 0.930 . S
C766 C764 1.419 . S
C766 C767 1.362 . S
C767 H757 0.930 . S
C767 C760 1.409 . S
C767 C766 1.362 . S
H768 C774 0.930 . S
H769 C777 0.930 . S
H770 C778 0.930 . S
H771 C779 0.930 . S
H772 C782 0.930 . S
H773 C783 0.930 . S
C774 H768 0.930 . S
C774 C775 1.355 . S
C774 C776 1.415 . S
C775 C774 1.355 . S
C775 C777 1.419 . S
C776 C774 1.415 . S
C776 C781 1.425 . S
C776 C783 1.409 . S
C777 H769 0.930 . S
C777 C775 1.419 . S
C777 C778 1.362 . S
C778 H770 0.930 . S
C778 C777 1.362 . S
C778 C781 1.409 . S
C779 H771 0.930 . S
C779 C780 1.355 . S
C779 C781 1.415 . S
C780 C779 1.355 . S
C780 C782 1.419 . S
C781 C776 1.425 . S
C781 C778 1.409 . S
C781 C779 1.415 . S
C782 H772 0.930 . S
C782 C780 1.419 . S
C782 C783 1.362 . S
C783 H773 0.930 . S
C783 C776 1.409 . S
C783 C782 1.362 . S
H784 C790 0.930 . S
H785 C793 0.930 . S
H786 C794 0.930 . S
H787 C795 0.930 . S
H788 C798 0.930 . S
H789 C799 0.930 . S
C790 H784 0.930 . S
C790 C791 1.355 . S
C790 C792 1.415 . S
C791 C790 1.355 . S
C791 C793 1.419 . S
C792 C790 1.415 . S
C792 C797 1.425 . S
C792 C799 1.409 . S
C793 H785 0.930 . S
C793 C791 1.419 . S
C793 C794 1.362 . S
C794 H786 0.930 . S
C794 C793 1.362 . S
C794 C797 1.409 . S
C795 H787 0.930 . S
C795 C796 1.355 . S
C795 C797 1.415 . S
C796 C795 1.355 . S
C796 C798 1.419 . S
C797 C792 1.425 . S
C797 C794 1.409 . S
C797 C795 1.415 . S
C798 H788 0.930 . S
C798 C796 1.419 . S
C798 C799 1.362 . S
C799 H789 0.930 . S
C799 C792 1.409 . S
C799 C798 1.362 . S
H800 C806 0.930 . S
H801 C809 0.930 . S
H802 C810 0.930 . S
H803 C811 0.930 . S
H804 C814 0.930 . S
H805 C815 0.930 . S
C806 H800 0.930 . S
C806 C807 1.355 . S
C806 C808 1.415 . S
C807 C806 1.355 . S
C807 C809 1.419 . S
C808 C806 1.415 . S
C808 C813 1.425 . S
C808 C815 1.409 . S
C809 H801 0.930 . S
C809 C807 1.419 . S
C809 C810 1.362 . S
C810 H802 0.930 . S
C810 C809 1.362 . S
C810 C813 1.409 . S
C811 H803 0.930 . S
C811 C812 1.355 . S
C811 C813 1.415 . S
C812 C811 1.355 . S
C812 C814 1.419 . S
C813 C808 1.425 . S
C813 C810 1.409 . S
C813 C811 1.415 . S
C814 H804 0.930 . S
C814 C812 1.419 . S
C814 C815 1.362 . S
C815 H805 0.930 . S
C815 C808 1.409 . S
C815 C814 1.362 . S
H816 C822 0.930 . S
H817 C825 0.930 . S
H818 C826 0.930 . S
H819 C827 0.930 . S
H820 C830 0.930 . S
H821 C831 0.930 . S
C822 H816 0.930 . S
C822 C823 1.355 1_554 S
C822 C824 1.415 . S
C823 C822 1.355 1_556 S
C823 C825 1.419 . S
C824 C822 1.415 . S
C824 C829 1.425 1_554 S
C824 C831 1.409 . S
C825 H817 0.930 . S
C825 C823 1.419 . S
C825 C826 1.362 . S
C826 H818 0.930 . S
C826 C825 1.362 . S
C826 C829 1.409 . S
C827 H819 0.930 . S
C827 C828 1.355 . S
C827 C829 1.415 . S
C828 C827 1.355 . S
C828 C830 1.419 1_556 S
C829 C824 1.425 1_556 S
C829 C826 1.409 . S
C829 C827 1.415 . S
C830 H820 0.930 . S
C830 C828 1.419 1_554 S
C830 C831 1.362 . S
C831 H821 0.930 . S
C831 C824 1.409 . S
C831 C830 1.362 . S
H832 C838 0.930 . S
H833 C841 0.930 . S
H834 C842 0.930 . S
H835 C843 0.930 . S
H836 C846 0.930 . S
H837 C847 0.930 . S
C838 H832 0.930 . S
C838 C839 1.355 . S
C838 C840 1.415 . S
C839 C838 1.355 . S
C839 C841 1.419 . S
C840 C838 1.415 . S
C840 C845 1.425 . S
C840 C847 1.409 . S
C841 H833 0.930 . S
C841 C839 1.419 . S
C841 C842 1.362 . S
C842 H834 0.930 . S
C842 C841 1.362 . S
C842 C845 1.409 . S
C843 H835 0.930 . S
C843 C844 1.355 . S
C843 C845 1.415 . S
C844 C843 1.355 . S
C844 C846 1.419 . S
C845 C840 1.425 . S
C845 C842 1.409 . S
C845 C843 1.415 . S
C846 H836 0.930 . S
C846 C844 1.419 . S
C846 C847 1.362 . S
C847 H837 0.930 . S
C847 C840 1.409 . S
C847 C846 1.362 . S
H848 C854 0.930 . S
H849 C857 0.930 . S
H850 C858 0.930 . S
H851 C859 0.930 . S
H852 C862 0.930 . S
H853 C863 0.930 . S
C854 H848 0.930 . S
C854 C855 1.355 . S
C854 C856 1.415 . S
C855 C854 1.355 . S
C855 C857 1.419 . S
C856 C854 1.415 . S
C856 C861 1.425 . S
C856 C863 1.409 . S
C857 H849 0.930 . S
C857 C855 1.419 . S
C857 C858 1.362 . S
C858 H850 0.930 . S
C858 C857 1.362 . S
C858 C861 1.409 . S
C859 H851 0.930 . S
C859 C860 1.355 . S
C859 C861 1.415 . S
C860 C859 1.355 . S
C860 C862 1.419 . S
C861 C856 1.425 . S
C861 C858 1.409 . S
C861 C859 1.415 . S
C862 H852 0.930 . S
C862 C860 1.419 . S
C862 C863 1.362 . S
C863 H853 0.930 . S
C863 C856 1.409 . S
C863 C862 1.362 . S
H864 C870 0.930 . S
H865 C873 0.930 . S
H866 C874 0.930 . S
H867 C875 0.930 . S
H868 C878 0.930 . S
H869 C879 0.930 . S
C870 H864 0.930 . S
C870 C871 1.355 . S
C870 C872 1.415 . S
C871 C870 1.355 . S
C871 C873 1.419 . S
C872 C870 1.415 . S
C872 C877 1.425 . S
C872 C879 1.409 . S
C873 H865 0.930 . S
C873 C871 1.419 . S
C873 C874 1.362 . S
C874 H866 0.930 . S
C874 C873 1.362 . S
C874 C877 1.409 . S
C875 H867 0.930 . S
C875 C876 1.355 . S
C875 C877 1.415 . S
C876 C875 1.355 . S
C876 C878 1.419 . S
C877 C872 1.425 . S
C877 C874 1.409 . S
C877 C875 1.415 . S
C878 H868 0.930 . S
C878 C876 1.419 . S
C878 C879 1.362 . S
C879 H869 0.930 . S
C879 C872 1.409 . S
C879 C878 1.362 . S
H880 C886 0.930 . S
H881 C889 0.930 . S
H882 C890 0.930 . S
H883 C891 0.930 . S
H884 C894 0.930 . S
H885 C895 0.930 . S
C886 H880 0.930 . S
C886 C887 1.355 . S
C886 C888 1.415 . S
C887 C886 1.355 . S
C887 C889 1.419 . S
C888 C886 1.415 . S
C888 C893 1.425 . S
C888 C895 1.409 . S
C889 H881 0.930 . S
C889 C887 1.419 . S
C889 C890 1.362 . S
C890 H882 0.930 . S
C890 C889 1.362 . S
C890 C893 1.409 . S
C891 H883 0.930 . S
C891 C892 1.355 . S
C891 C893 1.415 . S
C892 C891 1.355 . S
C892 C894 1.419 . S
C893 C888 1.425 . S
C893 C890 1.409 . S
C893 C891 1.415 . S
C894 H884 0.930 . S
C894 C892 1.419 . S
C894 C895 1.362 . S
C895 H885 0.930 . S
C895 C888 1.409 . S
C895 C894 1.362 . S
H896 C902 0.930 . S
H897 C905 0.930 . S
H898 C906 0.930 . S
H899 C907 0.930 . S
H900 C910 0.930 . S
H901 C911 0.930 . S
C902 H896 0.930 . S
C902 C903 1.355 . S
C902 C904 1.415 . S
C903 C902 1.355 . S
C903 C905 1.419 . S
C904 C902 1.415 . S
C904 C909 1.425 . S
C904 C911 1.409 . S
C905 H897 0.930 . S
C905 C903 1.419 . S
C905 C906 1.362 . S
C906 H898 0.930 . S
C906 C905 1.362 . S
C906 C909 1.409 . S
C907 H899 0.930 . S
C907 C908 1.355 . S
C907 C909 1.415 . S
C908 C907 1.355 . S
C908 C910 1.419 . S
C909 C904 1.425 . S
C909 C906 1.409 . S
C909 C907 1.415 . S
C910 H900 0.930 . S
C910 C908 1.419 . S
C910 C911 1.362 . S
C911 H901 0.930 . S
C911 C904 1.409 . S
C911 C910 1.362 . S
H912 C918 0.930 . S
H913 C921 0.930 . S
H914 C922 0.930 . S
H915 C923 0.930 . S
H916 C926 0.930 . S
H917 C927 0.930 . S
C918 H912 0.930 . S
C918 C919 1.355 . S
C918 C920 1.415 . S
C919 C918 1.355 . S
C919 C921 1.419 . S
C920 C918 1.415 . S
C920 C925 1.425 . S
C920 C927 1.409 . S
C921 H913 0.930 . S
C921 C919 1.419 . S
C921 C922 1.362 . S
C922 H914 0.930 . S
C922 C921 1.362 . S
C922 C925 1.409 . S
C923 H915 0.930 . S
C923 C924 1.355 . S
C923 C925 1.415 . S
C924 C923 1.355 . S
C924 C926 1.419 . S
C925 C920 1.425 . S
C925 C922 1.409 . S
C925 C923 1.415 . S
C926 H916 0.930 . S
C926 C924 1.419 . S
C926 C927 1.362 . S
C927 H917 0.930 . S
C927 C920 1.409 . S
C927 C926 1.362 . S
H928 C934 0.930 . S
H929 C937 0.930 . S
H930 C938 0.930 . S
H931 C939 0.930 . S
H932 C942 0.930 . S
H933 C943 0.930 . S
C934 H928 0.930 . S
C934 C935 1.355 . S
C934 C936 1.415 . S
C935 C934 1.355 . S
C935 C937 1.419 . S
C936 C934 1.415 . S
C936 C941 1.425 . S
C936 C943 1.409 . S
C937 H929 0.930 . S
C937 C935 1.419 . S
C937 C938 1.362 . S
C938 H930 0.930 . S
C938 C937 1.362 . S
C938 C941 1.409 . S
C939 H931 0.930 . S
C939 C940 1.355 . S
C939 C941 1.415 . S
C940 C939 1.355 . S
C940 C942 1.419 . S
C941 C936 1.425 . S
C941 C938 1.409 . S
C941 C939 1.415 . S
C942 H932 0.930 . S
C942 C940 1.419 . S
C942 C943 1.362 . S
C943 H933 0.930 . S
C943 C936 1.409 . S
C943 C942 1.362 . S
H944 C950 0.930 . S
H945 C953 0.930 . S
H946 C954 0.930 . S
H947 C955 0.930 . S
H948 C958 0.930 . S
H949 C959 0.930 . S
C950 H944 0.930 . S
C950 C951 1.355 . S
C950 C952 1.415 . S
C951 C950 1.355 . S
C951 C953 1.419 . S
C952 C950 1.415 . S
C952 C957 1.425 . S
C952 C959 1.409 . S
C953 H945 0.930 . S
C953 C951 1.419 . S
C953 C954 1.362 . S
C954 H946 0.930 . S
C954 C953 1.362 . S
C954 C957 1.409 . S
C955 H947 0.930 . S
C955 C956 1.355 . S
C955 C957 1.415 . S
C956 C955 1.355 . S
C956 C958 1.419 . S
C957 C952 1.425 . S
C957 C954 1.409 . S
C957 C955 1.415 . S
C958 H948 0.930 . S
C958 C956 1.419 . S
C958 C959 1.362 . S
C959 H949 0.930 . S
C959 C952 1.409 . S
C959 C958 1.362 . S
H960 C966 0.930 . S
H961 C969 0.930 . S
H962 C970 0.930 . S
H963 C971 0.930 . S
H964 C974 0.930 . S
H965 C975 0.930 . S
C966 H960 0.930 . S
C966 C967 1.355 . S
C966 C968 1.415 . S
C967 C966 1.355 . S
C967 C969 1.419 . S
C968 C966 1.415 . S
C968 C973 1.425 . S
C968 C975 1.409 . S
C969 H961 0.930 . S
C969 C967 1.419 . S
C969 C970 1.362 . S
C970 H962 0.930 . S
C970 C969 1.362 . S
C970 C973 1.409 . S
C971 H963 0.930 . S
C971 C972 1.355 . S
C971 C973 1.415 . S
C972 C971 1.355 . S
C972 C974 1.419 . S
C973 C968 1.425 . S
C973 C970 1.409 . S
C973 C971 1.415 . S
C974 H964 0.930 . S
C974 C972 1.419 . S
C974 C975 1.362 . S
C975 H965 0.930 . S
C975 C968 1.409 . S
C975 C974 1.362 . S
H976 C982 0.930 . S
H977 C985 0.930 . S
H978 C986 0.930 . S
H979 C987 0.930 . S
H980 C990 0.930 . S
H981 C991 0.930 . S
C982 H976 0.930 . S
C982 C983 1.355 . S
C982 C984 1.415 . S
C983 C982 1.355 . S
C983 C985 1.419 . S
C984 C982 1.415 . S
C984 C989 1.425 . S
C984 C991 1.409 . S
C985 H977 0.930 . S
C985 C983 1.419 . S
C985 C986 1.362 . S
C986 H978 0.930 . S
C986 C985 1.362 . S
C986 C989 1.409 . S
C987 H979 0.930 . S
C987 C988 1.355 . S
C987 C989 1.415 . S
C988 C987 1.355 . S
C988 C990 1.419 . S
C989 C984 1.425 . S
C989 C986 1.409 . S
C989 C987 1.415 . S
C990 H980 0.930 . S
C990 C988 1.419 . S
C990 C991 1.362 . S
C991 H981 0.930 . S
C991 C984 1.409 . S
C991 C990 1.362 . S
H992 C998 0.930 . S
H993 C1001 0.930 . S
H994 C1002 0.930 . S
H995 C1003 0.930 . S
H996 C1006 0.930 . S
H997 C1007 0.930 . S
C998 H992 0.930 . S
C998 C999 1.355 . S
C998 C1000 1.415 . S
C999 C998 1.355 . S
C999 C1001 1.419 . S
C1000 C998 1.415 . S
C1000 C1005 1.425 . S
C1000 C1007 1.409 . S
C1001 H993 0.930 . S
C1001 C999 1.419 . S
C1001 C1002 1.362 . S
C1002 H994 0.930 . S
C1002 C1001 1.362 . S
C1002 C1005 1.409 . S
C1003 H995 0.930 . S
C1003 C1004 1.355 . S
C1003 C1005 1.415 . S
C1004 C1003 1.355 . S
C1004 C1006 1.419 . S
C1005 C1000 1.425 . S
C1005 C1002 1.409 . S
C1005 C1003 1.415 . S
C1006 H996 0.930 . S
C1006 C1004 1.419 . S
C1006 C1007 1.362 . S
C1007 H997 0.930 . S
C1007 C1000 1.409 . S
C1007 C1006 1.362 . S
H1008 C1014 0.930 . S
H1009 C1017 0.930 . S
H1010 C1018 0.930 . S
H1011 C1019 0.930 . S
H1012 C1022 0.930 . S
H1013 C1023 0.930 . S
C1014 H1008 0.930 . S
C1014 C1015 1.355 . S
C1014 C1016 1.415 . S
C1015 C1014 1.355 . S
C1015 C1017 1.419 . S
C1016 C1014 1.415 . S
C1016 C1021 1.425 . S
C1016 C1023 1.409 . S
C1017 H1009 0.930 . S
C1017 C1015 1.419 . S
C1017 C1018 1.362 . S
C1018 H1010 0.930 . S
C1018 C1017 1.362 . S
C1018 C1021 1.409 . S
C1019 H1011 0.930 . S
C1019 C1020 1.355 . S
C1019 C1021 1.415 . S
C1020 C1019 1.355 . S
C1020 C1022 1.419 . S
C1021 C1016 1.425 . S
C1021 C1018 1.409 . S
C1021 C1019 1.415 . S
C1022 H1012 0.930 . S
C1022 C1020 1.419 . S
C1022 C1023 1.362 . S
C1023 H1013 0.930 . S
C1023 C1016 1.409 . S
C1023 C1022 1.362 . S
H1024 C1030 0.930 . S
H1025 C1033 0.930 . S
H1026 C1034 0.930 . S
H1027 C1035 0.930 . S
H1028 C1038 0.930 . S
H1029 C1039 0.930 . S
C1030 H1024 0.930 . S
C1030 C1031 1.355 . S
C1030 C1032 1.415 . S
C1031 C1030 1.355 . S
C1031 C1033 1.419 . S
C1032 C1030 1.415 . S
C1032 C1037 1.425 . S
C1032 C1039 1.409 . S
C1033 H1025 0.930 . S
C1033 C1031 1.419 . S
C1033 C1034 1.362 . S
C1034 H1026 0.930 . S
C1034 C1033 1.362 . S
C1034 C1037 1.409 . S
C1035 H1027 0.930 . S
C1035 C1036 1.355 . S
C1035 C1037 1.415 . S
C1036 C1035 1.355 . S
C1036 C1038 1.419 . S
C1037 C1032 1.425 . S
C1037 C1034 1.409 . S
C1037 C1035 1.415 . S
C1038 H1028 0.930 . S
C1038 C1036 1.419 . S
C1038 C1039 1.362 . S
C1039 H1029 0.930 . S
C1039 C1032 1.409 . S
C1039 C1038 1.362 . S
H1040 C1046 0.930 . S
H1041 C1049 0.930 . S
H1042 C1050 0.930 . S
H1043 C1051 0.930 . S
H1044 C1054 0.930 . S
H1045 C1055 0.930 . S
C1046 H1040 0.930 . S
C1046 C1047 1.355 . S
C1046 C1048 1.415 . S
C1047 C1046 1.355 . S
C1047 C1049 1.419 . S
C1048 C1046 1.415 . S
C1048 C1053 1.425 . S
C1048 C1055 1.409 . S
C1049 H1041 0.930 . S
C1049 C1047 1.419 . S
C1049 C1050 1.362 . S
C1050 H1042 0.930 . S
C1050 C1049 1.362 . S
C1050 C1053 1.409 . S
C1051 H1043 0.930 . S
C1051 C1052 1.355 . S
C1051 C1053 1.415 . S
C1052 C1051 1.355 . S
C1052 C1054 1.419 . S
C1053 C1048 1.425 . S
C1053 C1050 1.409 . S
C1053 C1051 1.415 . S
C1054 H1044 0.930 . S
C1054 C1052 1.419 . S
C1054 C1055 1.362 . S
C1055 H1045 0.930 . S
C1055 C1048 1.409 . S
C1055 C1054 1.362 . S
C487 C219 1.836 . S
C492 C5 1.869 . S
C503 C45 2.092 . S
C508 C19 2.041 . S
C519 C85 2.046 . S
C524 C59 2.023 . S
C535 C99 1.766 . S
C540 C125 1.812 . S
C551 C139 2.031 . S
C556 C165 2.081 . S
C567 C205 2.045 . S
C572 C179 2.021 . S
C583 C299 1.775 . S
C588 C245 1.820 . S
C599 C285 2.015 . S
C604 C339 1.987 . S
C615 C379 2.041 . S
C620 C325 2.089 . S
C631 C419 1.793 . S
C636 C365 1.833 . S
C647 C459 1.958 . S
C652 C405 1.993 . S
C663 C259 2.035 . S
C668 C445 2.084 . S
C679 C448 3.398 . S
C684 C9 3.540 . S
C695 C49 2.712 . S
C700 C248 2.651 . S
C711 C288 2.978 . S
C716 C89 3.134 . S
C727 C328 3.398 . S
C732 C129 3.546 . S
C743 C368 2.654 . S
C748 C169 2.706 1_556 S
C759 C209 3.134 . S
C764 C408 2.975 . S
C775 C249 3.549 . S
C780 C48 3.402 . S
C791 C289 3.105 . S
C796 C88 2.989 . S
C807 C128 2.650 . S
C812 C329 2.691 . S
C823 C168 3.409 1_556 S
C828 C369 3.557 . S
C839 C409 3.123 . S
C844 C208 3.020 . S
C855 C449 2.727 . S
C860 C8 2.629 . S
C871 C258 3.261 . S
C876 C18 3.269 . S
C887 C58 2.183 . S
C892 C298 2.186 . S
C903 C338 2.205 . S
C908 C98 2.214 . S
C919 C138 3.275 . S
C924 C378 3.279 . S
C935 C418 2.164 . S
C940 C178 2.157 . S
C951 C458 2.172 . S
C956 C218 2.189 . S
C967 C255 0.954 . S
C972 C15 0.960 . S
C983 C295 0.545 . S
C988 C55 0.553 . S
C999 C335 0.815 . S
C1004 C95 0.801 . S
C1015 C135 0.890 . S
C1020 C375 0.892 . S
C1031 C415 0.733 . S
C1036 C175 0.746 . S
C1047 C455 0.574 . S
C1052 C215 0.565 . S
