# Generated by pormake.
# Topology sod-g, (3)-cn, num edge types: 1
# Building blocks:
#     Node 0, Type 0, BuildingBlock: OLANEW_clean_sbu_2, # of connection points: 3
#     Node 1, Type 0, BuildingBlock: OLANEW_clean_sbu_2, # of connection points: 3
#     Node 2, Type 0, BuildingBlock: OLANEW_clean_sbu_2, # of connection points: 3
#     Node 3, Type 0, BuildingBlock: OLANEW_clean_sbu_2, # of connection points: 3
#     Node 4, Type 0, BuildingBlock: OLANEW_clean_sbu_2, # of connection points: 3
#     Node 5, Type 0, BuildingBlock: OLANEW_clean_sbu_2, # of connection points: 3
#     Node 6, Type 0, BuildingBlock: OLANEW_clean_sbu_2, # of connection points: 3
#     Node 7, Type 0, BuildingBlock: OLANEW_clean_sbu_2, # of connection points: 3
#     Node 8, Type 0, BuildingBlock: OLANEW_clean_sbu_2, # of connection points: 3
#     Node 9, Type 0, BuildingBlock: OLANEW_clean_sbu_2, # of connection points: 3
#     Node 10, Type 0, BuildingBlock: OLANEW_clean_sbu_2, # of connection points: 3
#     Node 11, Type 0, BuildingBlock: OLANEW_clean_sbu_2, # of connection points: 3
#     Node 12, Type 0, BuildingBlock: OLANEW_clean_sbu_2, # of connection points: 3
#     Node 13, Type 0, BuildingBlock: OLANEW_clean_sbu_2, # of connection points: 3
#     Node 14, Type 0, BuildingBlock: OLANEW_clean_sbu_2, # of connection points: 3
#     Node 15, Type 0, BuildingBlock: OLANEW_clean_sbu_2, # of connection points: 3
#     Node 16, Type 0, BuildingBlock: OLANEW_clean_sbu_2, # of connection points: 3
#     Node 17, Type 0, BuildingBlock: OLANEW_clean_sbu_2, # of connection points: 3
#     Node 18, Type 0, BuildingBlock: OLANEW_clean_sbu_2, # of connection points: 3
#     Node 19, Type 0, BuildingBlock: OLANEW_clean_sbu_2, # of connection points: 3
#     Node 20, Type 0, BuildingBlock: OLANEW_clean_sbu_2, # of connection points: 3
#     Node 21, Type 0, BuildingBlock: OLANEW_clean_sbu_2, # of connection points: 3
#     Node 22, Type 0, BuildingBlock: OLANEW_clean_sbu_2, # of connection points: 3
#     Node 23, Type 0, BuildingBlock: OLANEW_clean_sbu_2, # of connection points: 3
#     Node 24, Type 0, BuildingBlock: OLANEW_clean_sbu_2, # of connection points: 3
#     Node 25, Type 0, BuildingBlock: OLANEW_clean_sbu_2, # of connection points: 3
#     Node 26, Type 0, BuildingBlock: OLANEW_clean_sbu_2, # of connection points: 3
#     Node 27, Type 0, BuildingBlock: OLANEW_clean_sbu_2, # of connection points: 3
#     Node 28, Type 0, BuildingBlock: OLANEW_clean_sbu_2, # of connection points: 3
#     Node 29, Type 0, BuildingBlock: OLANEW_clean_sbu_2, # of connection points: 3
#     Node 30, Type 0, BuildingBlock: OLANEW_clean_sbu_2, # of connection points: 3
#     Node 31, Type 0, BuildingBlock: OLANEW_clean_sbu_2, # of connection points: 3
#     Node 32, Type 0, BuildingBlock: OLANEW_clean_sbu_2, # of connection points: 3
#     Node 33, Type 0, BuildingBlock: OLANEW_clean_sbu_2, # of connection points: 3
#     Node 34, Type 0, BuildingBlock: OLANEW_clean_sbu_2, # of connection points: 3
#     Node 35, Type 0, BuildingBlock: OLANEW_clean_sbu_2, # of connection points: 3
#     Node 36, Type 0, BuildingBlock: OLANEW_clean_sbu_2, # of connection points: 3
#     Node 37, Type 0, BuildingBlock: OLANEW_clean_sbu_2, # of connection points: 3
#     Node 38, Type 0, BuildingBlock: OLANEW_clean_sbu_2, # of connection points: 3
#     Node 39, Type 0, BuildingBlock: OLANEW_clean_sbu_2, # of connection points: 3
#     Node 40, Type 0, BuildingBlock: OLANEW_clean_sbu_2, # of connection points: 3
#     Node 41, Type 0, BuildingBlock: OLANEW_clean_sbu_2, # of connection points: 3
#     Node 42, Type 0, BuildingBlock: OLANEW_clean_sbu_2, # of connection points: 3
#     Node 43, Type 0, BuildingBlock: OLANEW_clean_sbu_2, # of connection points: 3
#     Node 44, Type 0, BuildingBlock: OLANEW_clean_sbu_2, # of connection points: 3
#     Node 45, Type 0, BuildingBlock: OLANEW_clean_sbu_2, # of connection points: 3
#     Node 46, Type 0, BuildingBlock: OLANEW_clean_sbu_2, # of connection points: 3
#     Node 47, Type 0, BuildingBlock: OLANEW_clean_sbu_2, # of connection points: 3
#     Edge 48, Type (0, 0), BuildingBlock: XUDNAN_clean_linker_2, # of connection points: 2
#     Edge 49, Type (0, 0), BuildingBlock: XUDNAN_clean_linker_2, # of connection points: 2
#     Edge 50, Type (0, 0), BuildingBlock: XUDNAN_clean_linker_2, # of connection points: 2
#     Edge 51, Type (0, 0), BuildingBlock: XUDNAN_clean_linker_2, # of connection points: 2
#     Edge 52, Type (0, 0), BuildingBlock: XUDNAN_clean_linker_2, # of connection points: 2
#     Edge 53, Type (0, 0), BuildingBlock: XUDNAN_clean_linker_2, # of connection points: 2
#     Edge 54, Type (0, 0), BuildingBlock: XUDNAN_clean_linker_2, # of connection points: 2
#     Edge 55, Type (0, 0), BuildingBlock: XUDNAN_clean_linker_2, # of connection points: 2
#     Edge 56, Type (0, 0), BuildingBlock: XUDNAN_clean_linker_2, # of connection points: 2
#     Edge 57, Type (0, 0), BuildingBlock: XUDNAN_clean_linker_2, # of connection points: 2
#     Edge 58, Type (0, 0), BuildingBlock: XUDNAN_clean_linker_2, # of connection points: 2
#     Edge 59, Type (0, 0), BuildingBlock: XUDNAN_clean_linker_2, # of connection points: 2
#     Edge 60, Type (0, 0), BuildingBlock: XUDNAN_clean_linker_2, # of connection points: 2
#     Edge 61, Type (0, 0), BuildingBlock: XUDNAN_clean_linker_2, # of connection points: 2
#     Edge 62, Type (0, 0), BuildingBlock: XUDNAN_clean_linker_2, # of connection points: 2
#     Edge 63, Type (0, 0), BuildingBlock: XUDNAN_clean_linker_2, # of connection points: 2
#     Edge 64, Type (0, 0), BuildingBlock: XUDNAN_clean_linker_2, # of connection points: 2
#     Edge 65, Type (0, 0), BuildingBlock: XUDNAN_clean_linker_2, # of connection points: 2
#     Edge 66, Type (0, 0), BuildingBlock: XUDNAN_clean_linker_2, # of connection points: 2
#     Edge 67, Type (0, 0), BuildingBlock: XUDNAN_clean_linker_2, # of connection points: 2
#     Edge 68, Type (0, 0), BuildingBlock: XUDNAN_clean_linker_2, # of connection points: 2
#     Edge 69, Type (0, 0), BuildingBlock: XUDNAN_clean_linker_2, # of connection points: 2
#     Edge 70, Type (0, 0), BuildingBlock: XUDNAN_clean_linker_2, # of connection points: 2
#     Edge 71, Type (0, 0), BuildingBlock: XUDNAN_clean_linker_2, # of connection points: 2
#     Edge 72, Type (0, 0), BuildingBlock: XUDNAN_clean_linker_2, # of connection points: 2
#     Edge 73, Type (0, 0), BuildingBlock: XUDNAN_clean_linker_2, # of connection points: 2
#     Edge 74, Type (0, 0), BuildingBlock: XUDNAN_clean_linker_2, # of connection points: 2
#     Edge 75, Type (0, 0), BuildingBlock: XUDNAN_clean_linker_2, # of connection points: 2
#     Edge 76, Type (0, 0), BuildingBlock: XUDNAN_clean_linker_2, # of connection points: 2
#     Edge 77, Type (0, 0), BuildingBlock: XUDNAN_clean_linker_2, # of connection points: 2
#     Edge 78, Type (0, 0), BuildingBlock: XUDNAN_clean_linker_2, # of connection points: 2
#     Edge 79, Type (0, 0), BuildingBlock: XUDNAN_clean_linker_2, # of connection points: 2
#     Edge 80, Type (0, 0), BuildingBlock: XUDNAN_clean_linker_2, # of connection points: 2
#     Edge 81, Type (0, 0), BuildingBlock: XUDNAN_clean_linker_2, # of connection points: 2
#     Edge 82, Type (0, 0), BuildingBlock: XUDNAN_clean_linker_2, # of connection points: 2
#     Edge 83, Type (0, 0), BuildingBlock: XUDNAN_clean_linker_2, # of connection points: 2
#     Edge 84, Type (0, 0), BuildingBlock: XUDNAN_clean_linker_2, # of connection points: 2
#     Edge 85, Type (0, 0), BuildingBlock: XUDNAN_clean_linker_2, # of connection points: 2
#     Edge 86, Type (0, 0), BuildingBlock: XUDNAN_clean_linker_2, # of connection points: 2
#     Edge 87, Type (0, 0), BuildingBlock: XUDNAN_clean_linker_2, # of connection points: 2
#     Edge 88, Type (0, 0), BuildingBlock: XUDNAN_clean_linker_2, # of connection points: 2
#     Edge 89, Type (0, 0), BuildingBlock: XUDNAN_clean_linker_2, # of connection points: 2
#     Edge 90, Type (0, 0), BuildingBlock: XUDNAN_clean_linker_2, # of connection points: 2
#     Edge 91, Type (0, 0), BuildingBlock: XUDNAN_clean_linker_2, # of connection points: 2
#     Edge 92, Type (0, 0), BuildingBlock: XUDNAN_clean_linker_2, # of connection points: 2
#     Edge 93, Type (0, 0), BuildingBlock: XUDNAN_clean_linker_2, # of connection points: 2
#     Edge 94, Type (0, 0), BuildingBlock: XUDNAN_clean_linker_2, # of connection points: 2
#     Edge 95, Type (0, 0), BuildingBlock: XUDNAN_clean_linker_2, # of connection points: 2
#     Edge 96, Type (0, 0), BuildingBlock: XUDNAN_clean_linker_2, # of connection points: 2
#     Edge 97, Type (0, 0), BuildingBlock: XUDNAN_clean_linker_2, # of connection points: 2
#     Edge 98, Type (0, 0), BuildingBlock: XUDNAN_clean_linker_2, # of connection points: 2
#     Edge 99, Type (0, 0), BuildingBlock: XUDNAN_clean_linker_2, # of connection points: 2
#     Edge 100, Type (0, 0), BuildingBlock: XUDNAN_clean_linker_2, # of connection points: 2
#     Edge 101, Type (0, 0), BuildingBlock: XUDNAN_clean_linker_2, # of connection points: 2
#     Edge 102, Type (0, 0), BuildingBlock: XUDNAN_clean_linker_2, # of connection points: 2
#     Edge 103, Type (0, 0), BuildingBlock: XUDNAN_clean_linker_2, # of connection points: 2
#     Edge 104, Type (0, 0), BuildingBlock: XUDNAN_clean_linker_2, # of connection points: 2
#     Edge 105, Type (0, 0), BuildingBlock: XUDNAN_clean_linker_2, # of connection points: 2
#     Edge 106, Type (0, 0), BuildingBlock: XUDNAN_clean_linker_2, # of connection points: 2
#     Edge 107, Type (0, 0), BuildingBlock: XUDNAN_clean_linker_2, # of connection points: 2
#     Edge 108, Type (0, 0), BuildingBlock: XUDNAN_clean_linker_2, # of connection points: 2
#     Edge 109, Type (0, 0), BuildingBlock: XUDNAN_clean_linker_2, # of connection points: 2
#     Edge 110, Type (0, 0), BuildingBlock: XUDNAN_clean_linker_2, # of connection points: 2
#     Edge 111, Type (0, 0), BuildingBlock: XUDNAN_clean_linker_2, # of connection points: 2
#     Edge 112, Type (0, 0), BuildingBlock: XUDNAN_clean_linker_2, # of connection points: 2
#     Edge 113, Type (0, 0), BuildingBlock: XUDNAN_clean_linker_2, # of connection points: 2
#     Edge 114, Type (0, 0), BuildingBlock: XUDNAN_clean_linker_2, # of connection points: 2
#     Edge 115, Type (0, 0), BuildingBlock: XUDNAN_clean_linker_2, # of connection points: 2
#     Edge 116, Type (0, 0), BuildingBlock: XUDNAN_clean_linker_2, # of connection points: 2
#     Edge 117, Type (0, 0), BuildingBlock: XUDNAN_clean_linker_2, # of connection points: 2
#     Edge 118, Type (0, 0), BuildingBlock: XUDNAN_clean_linker_2, # of connection points: 2
#     Edge 119, Type (0, 0), BuildingBlock: XUDNAN_clean_linker_2, # of connection points: 2
# Relax obj value: 0.024
# Max RMSD: 0.011
# Mean RMSD: 0.011
data_MOF--net-sod-g--node1-OLANEW_clean_sbu_2--edge1-XUDNAN_clean_linker_2
_symmetry_space_group_name_H-M    P1
_symmetry_Int_Tables_number       1
_symmetry_cell_setting            triclinic
loop_
_symmetry_equiv_pos_as_xyz
'x, y, z'
_cell_length_a     102.64484
_cell_length_b     102.638
_cell_length_c     102.64513
_cell_angle_alpha  90.00756
_cell_angle_beta   90.003614
_cell_angle_gamma 89.984469
loop_
_atom_site_label
_atom_site_type_symbol
_atom_site_fract_x
_atom_site_fract_y
_atom_site_fract_z
_atom_type_partial_charge
O0 O 0.04193 0.47817 0.13589 0.0
Cd1 Cd 0.06279 0.46779 0.1406 0.0
O2 O 0.03827 0.47793 0.15689 0.0
Cd3 Cd 0.02842 0.48343 0.17504 0.0
O4 O 0.02209 0.48679 0.19511 0.0
C5 C 0.01195 0.48141 0.19975 0.0
O6 O 0.00495 0.47377 0.19224 0.0
C7 C 0.03471 0.48116 0.14547 0.0
C8 C 0.08135 0.47739 0.12339 0.0
O9 O 0.07644 0.46604 0.1217 0.0
O10 O 0.07771 0.48404 0.13329 0.0
O11 O 0.53154 0.02954 0.13878 0.0
Cd12 Cd 0.54586 0.04623 0.12986 0.0
O13 O 0.537 0.03302 0.15914 0.0
Cd14 Cd 0.53674 0.02945 0.18016 0.0
O15 O 0.53733 0.0272 0.2013 0.0
C16 C 0.54362 0.01789 0.20651 0.0
O17 O 0.54969 0.0095 0.19898 0.0
C18 C 0.53006 0.02703 0.1508 0.0
C19 C 0.53087 0.05978 0.11179 0.0
O20 O 0.53742 0.0497 0.10844 0.0
O21 O 0.53184 0.06378 0.12358 0.0
O22 O 0.94846 0.53926 0.14594 0.0
Cd23 Cd 0.9284 0.54892 0.15422 0.0
O24 O 0.95152 0.53237 0.16588 0.0
Cd25 Cd 0.96227 0.52335 0.18203 0.0
O26 O 0.971 0.51718 0.20046 0.0
C27 C 0.98302 0.51888 0.2029 0.0
O28 O 0.99051 0.52409 0.19393 0.0
C29 C 0.95522 0.53282 0.15405 0.0
C30 C 0.90731 0.53626 0.14286 0.0
O31 O 0.91164 0.547 0.13818 0.0
O32 O 0.9128 0.53165 0.15308 0.0
O33 O 0.4576 0.95845 0.14248 0.0
Cd34 Cd 0.44445 0.93871 0.14119 0.0
O35 O 0.45553 0.95553 0.16343 0.0
Cd36 Cd 0.45941 0.95803 0.18418 0.0
O37 O 0.4586 0.95659 0.20533 0.0
C38 C 0.45235 0.94697 0.20996 0.0
O39 O 0.44702 0.9386 0.20187 0.0
C40 C 0.46043 0.96191 0.15401 0.0
C41 C 0.46059 0.91863 0.13283 0.0
O42 O 0.45243 0.92389 0.12498 0.0
O43 O 0.46088 0.9226 0.14465 0.0
O44 O 0.0194 0.51414 0.8378 0.0
Cd45 Cd 0.03779 0.52547 0.82786 0.0
O46 O 0.01652 0.50182 0.8205 0.0
Cd47 Cd 0.03032 0.51274 0.80851 0.0
O48 O 0.04063 0.52384 0.79355 0.0
C49 C 0.03479 0.53338 0.78825 0.0
O50 O 0.02302 0.53642 0.79226 0.0
C51 C 0.01355 0.50478 0.83217 0.0
C52 C 0.0605 0.51471 0.83807 0.0
O53 O 0.05576 0.52526 0.84277 0.0
O54 O 0.05472 0.50947 0.82834 0.0
O55 O 0.47215 0.04459 0.85251 0.0
Cd56 Cd 0.46264 0.06637 0.85338 0.0
O57 O 0.4701 0.04407 0.83123 0.0
Cd58 Cd 0.47345 0.03468 0.81238 0.0
O59 O 0.47627 0.02681 0.79283 0.0
C60 C 0.47503 0.01478 0.79013 0.0
O61 O 0.47216 0.00652 0.79947 0.0
C62 C 0.47346 0.03856 0.84179 0.0
C63 C 0.47882 0.0837 0.86655 0.0
O64 O 0.47097 0.07623 0.87274 0.0
O65 O 0.47901 0.08303 0.85409 0.0
O66 O 0.94157 0.44186 0.87392 0.0
Cd67 Cd 0.9212 0.42963 0.87413 0.0
O68 O 0.93686 0.44305 0.85324 0.0
Cd69 Cd 0.93803 0.44949 0.83299 0.0
O70 O 0.93919 0.45209 0.81196 0.0
C71 C 0.94795 0.44603 0.80566 0.0
O72 O 0.95619 0.43861 0.81207 0.0
C73 C 0.94431 0.44616 0.86265 0.0
C74 C 0.90134 0.44711 0.8799 0.0
O75 O 0.90546 0.4391 0.88855 0.0
O76 O 0.90633 0.44663 0.86848 0.0
O77 O 0.52605 0.95582 0.86455 0.0
Cd78 Cd 0.54162 0.93876 0.87011 0.0
O79 O 0.524 0.94819 0.84468 0.0
Cd80 Cd 0.51702 0.95025 0.82465 0.0
O81 O 0.50848 0.95705 0.80641 0.0
C82 C 0.51121 0.96846 0.80244 0.0
O83 O 0.51907 0.97576 0.80942 0.0
C84 C 0.5209 0.95651 0.85332 0.0
C85 C 0.52911 0.91691 0.88015 0.0
O86 O 0.53173 0.92675 0.88737 0.0
O87 O 0.53245 0.91734 0.86813 0.0
O88 O 0.14165 0.03307 0.44351 0.0
Cd89 Cd 0.13479 0.05142 0.43012 0.0
O90 O 0.15201 0.04725 0.45574 0.0
Cd91 Cd 0.16598 0.05056 0.47145 0.0
O92 O 0.18551 0.04652 0.47869 0.0
C93 C 0.19115 0.05199 0.48825 0.0
O94 O 0.18489 0.06088 0.49501 0.0
C95 C 0.14849 0.03559 0.45351 0.0
C96 C 0.12484 0.07029 0.44685 0.0
O97 O 0.11765 0.06107 0.4425 0.0
O98 O 0.1367 0.07085 0.44297 0.0
O99 O 0.9438 0.15983 0.48472 0.0
Cd100 Cd 0.92104 0.16667 0.48376 0.0
O101 O 0.9472 0.18083 0.48531 0.0
Cd102 Cd 0.95918 0.19816 0.48804 0.0
O103 O 0.96767 0.21754 0.4883 0.0
C104 C 0.9798 0.21989 0.48741 0.0
O105 O 0.98806 0.21014 0.4866 0.0
C106 C 0.95171 0.1693 0.48542 0.0
C107 C 0.90395 0.14715 0.49139 0.0
O108 O 0.90594 0.14949 0.47929 0.0
O109 O 0.91007 0.15399 0.49985 0.0
O110 O 0.86149 0.96259 0.44776 0.0
Cd111 Cd 0.86855 0.94209 0.43812 0.0
O112 O 0.84614 0.95265 0.45891 0.0
Cd113 Cd 0.82902 0.95429 0.47149 0.0
O114 O 0.80955 0.96004 0.47781 0.0
C115 C 0.80527 0.95863 0.48934 0.0
O116 O 0.81286 0.95343 0.49825 0.0
C117 C 0.85235 0.96298 0.45608 0.0
C118 C 0.88299 0.92898 0.45693 0.0
O119 O 0.88825 0.93762 0.44962 0.0
O120 O 0.87095 0.92623 0.4551 0.0
O121 O 0.04662 0.84767 0.49904 0.0
Cd122 Cd 0.06549 0.85053 0.48488 0.0
O123 O 0.03981 0.83064 0.48812 0.0
Cd124 Cd 0.02727 0.81376 0.48467 0.0
O125 O 0.01828 0.79508 0.48002 0.0
C126 C 0.00928 0.7941 0.47159 0.0
O127 O 0.00494 0.80468 0.46583 0.0
C128 C 0.03828 0.83869 0.4974 0.0
C129 C 0.08295 0.86751 0.49683 0.0
O130 O 0.07354 0.8718 0.48984 0.0
O131 O 0.08428 0.85514 0.49797 0.0
O132 O 0.14125 0.97763 0.53272 0.0
Cd133 Cd 0.13511 0.96385 0.55104 0.0
O134 O 0.15947 0.96665 0.53073 0.0
Cd135 Cd 0.17872 0.96393 0.52212 0.0
O136 O 0.19956 0.96515 0.51822 0.0
C137 C 0.20734 0.96102 0.52692 0.0
O138 O 0.2025 0.95583 0.53758 0.0
C139 C 0.15185 0.97553 0.52669 0.0
C140 C 0.12673 0.93996 0.5413 0.0
O141 O 0.11886 0.94959 0.54245 0.0
O142 O 0.13854 0.94153 0.54502 0.0
O143 O 0.04055 0.13635 0.52003 0.0
Cd144 Cd 0.05979 0.12908 0.53192 0.0
O145 O 0.04709 0.15666 0.52144 0.0
Cd146 Cd 0.04343 0.17754 0.51907 0.0
O147 O 0.03583 0.19728 0.51675 0.0
C148 C 0.02358 0.19908 0.51619 0.0
O149 O 0.01577 0.18898 0.51697 0.0
C150 C 0.03885 0.14832 0.51742 0.0
C151 C 0.07777 0.11898 0.51431 0.0
O152 O 0.06875 0.11183 0.51916 0.0
O153 O 0.07845 0.1309 0.51799 0.0
O154 O 0.85082 0.03453 0.52639 0.0
Cd155 Cd 0.84878 0.05147 0.54291 0.0
O156 O 0.83429 0.04445 0.51713 0.0
Cd157 Cd 0.81875 0.04331 0.50269 0.0
O158 O 0.80052 0.03333 0.49847 0.0
C159 C 0.80015 0.02112 0.50055 0.0
O160 O 0.81095 0.01511 0.5039 0.0
C161 C 0.84278 0.03546 0.51703 0.0
C162 C 0.8565 0.0747 0.53136 0.0
O163 O 0.86442 0.06816 0.53845 0.0
O164 O 0.84482 0.07049 0.53011 0.0
O165 O 0.94897 0.85369 0.5435 0.0
Cd166 Cd 0.92635 0.85946 0.54789 0.0
O167 O 0.94369 0.83554 0.53347 0.0
Cd168 Cd 0.94941 0.81696 0.52485 0.0
O169 O 0.95862 0.798 0.52244 0.0
C170 C 0.96981 0.79631 0.52746 0.0
O171 O 0.97545 0.80611 0.53345 0.0
C172 C 0.95234 0.84352 0.53732 0.0
C173 C 0.91834 0.87748 0.5293 0.0
O174 O 0.92467 0.88106 0.53944 0.0
O175 O 0.91552 0.86538 0.52805 0.0
O176 O 0.45476 0.1381 0.0395 0.0
Cd177 Cd 0.44401 0.12661 0.05724 0.0
O178 O 0.44435 0.15658 0.04218 0.0
Cd179 Cd 0.4391 0.17655 0.03703 0.0
O180 O 0.43525 0.19669 0.03156 0.0
C181 C 0.44386 0.20525 0.03394 0.0
O182 O 0.45473 0.20168 0.0397 0.0
C183 C 0.45286 0.14987 0.03618 0.0
C184 C 0.46209 0.109 0.06718 0.0
O185 O 0.45471 0.10593 0.05759 0.0
O186 O 0.46064 0.12027 0.07236 0.0
O187 O 0.49446 0.84545 0.97575 0.0
Cd188 Cd 0.48101 0.8375 0.9578 0.0
O189 O 0.50839 0.82918 0.97506 0.0
Cd190 Cd 0.49673 0.81781 0.96145 0.0
O191 O 0.48602 0.80032 0.95595 0.0
C192 C 0.47525 0.79798 0.96157 0.0
O193 O 0.47055 0.80662 0.96978 0.0
C194 C 0.50486 0.84007 0.97977 0.0
C195 C 0.48872 0.85094 0.93558 0.0
O196 O 0.48048 0.85585 0.94357 0.0
O197 O 0.49302 0.83944 0.93785 0.0
O198 O 0.15773 0.49166 0.92587 0.0
Cd199 Cd 0.1601 0.48557 0.90297 0.0
O200 O 0.17831 0.48661 0.92715 0.0
Cd201 Cd 0.19825 0.48459 0.93442 0.0
O202 O 0.21858 0.48036 0.93899 0.0
C203 C 0.22155 0.47151 0.94713 0.0
O204 O 0.21219 0.46506 0.95302 0.0
C205 C 0.16805 0.49088 0.93266 0.0
C206 C 0.13739 0.48821 0.88839 0.0
O207 O 0.14073 0.47713 0.89308 0.0
O208 O 0.1447 0.49806 0.89074 0.0
O209 O 0.52306 0.15121 0.96699 0.0
Cd210 Cd 0.54027 0.14658 0.95126 0.0
O211 O 0.52249 0.17183 0.9616 0.0
Cd212 Cd 0.5156 0.19198 0.9611 0.0
O213 O 0.5139 0.21286 0.95748 0.0
C214 C 0.52154 0.22057 0.96343 0.0
O215 O 0.5298 0.21576 0.97195 0.0
C216 C 0.51813 0.16248 0.96845 0.0
C217 C 0.52943 0.13513 0.92919 0.0
O218 O 0.53229 0.12831 0.93925 0.0
O219 O 0.5319 0.14736 0.92946 0.0
O220 O 0.85422 0.54564 0.94286 0.0
Cd221 Cd 0.85349 0.5505 0.91962 0.0
O222 O 0.83411 0.53961 0.93952 0.0
Cd223 Cd 0.81512 0.53097 0.94361 0.0
O224 O 0.79573 0.52676 0.95107 0.0
C225 C 0.78987 0.53579 0.95719 0.0
O226 O 0.79558 0.5472 0.95834 0.0
C227 C 0.84377 0.54068 0.94724 0.0
C228 C 0.85822 0.52698 0.90704 0.0
O229 O 0.86734 0.53537 0.90851 0.0
O230 O 0.84677 0.52993 0.91103 0.0
O231 O 0.55618 0.86844 0.06572 0.0
Cd232 Cd 0.56037 0.86594 0.08895 0.0
O233 O 0.54915 0.84842 0.06755 0.0
Cd234 Cd 0.53864 0.831 0.06121 0.0
O235 O 0.53011 0.81256 0.05493 0.0
C236 C 0.53784 0.80366 0.05115 0.0
O237 O 0.55043 0.80595 0.05131 0.0
C238 C 0.55083 0.85853 0.06059 0.0
C239 C 0.53701 0.87196 0.10129 0.0
O240 O 0.54622 0.88035 0.10063 0.0
O241 O 0.53903 0.86057 0.09659 0.0
O242 O 0.14176 0.53507 0.01926 0.0
Cd243 Cd 0.13727 0.54633 0.03972 0.0
O244 O 0.16183 0.53974 0.02448 0.0
Cd245 Cd 0.18288 0.54129 0.02186 0.0
O246 O 0.2033 0.54708 0.02286 0.0
C247 C 0.21038 0.54263 0.03199 0.0
O248 O 0.20528 0.53435 0.04032 0.0
C249 C 0.15384 0.53428 0.01676 0.0
C250 C 0.12841 0.52886 0.05845 0.0
O251 O 0.12046 0.53644 0.05252 0.0
O252 O 0.14054 0.52959 0.05562 0.0
O253 O 0.83084 0.50548 0.04413 0.0
Cd254 Cd 0.82118 0.49934 0.06498 0.0
O255 O 0.81168 0.50253 0.03538 0.0
Cd256 Cd 0.79643 0.50067 0.02055 0.0
O257 O 0.77747 0.49473 0.01293 0.0
C258 C 0.77624 0.48685 0.00346 0.0
O259 O 0.78673 0.48268 0.99743 0.0
C260 C 0.82356 0.50584 0.03414 0.0
C261 C 0.83882 0.5035 0.08511 0.0
O262 O 0.83742 0.49213 0.08014 0.0
O263 O 0.83178 0.5128 0.08067 0.0
O264 O 0.54626 0.97262 0.65439 0.0
Cd265 Cd 0.56541 0.96141 0.66291 0.0
O266 O 0.54276 0.97937 0.67428 0.0
Cd267 Cd 0.53354 0.98998 0.69036 0.0
O268 O 0.52405 0.99326 0.7091 0.0
C269 C 0.5129 0.98828 0.71114 0.0
O270 O 0.50711 0.98201 0.7016 0.0
C271 C 0.53945 0.97923 0.66233 0.0
C272 C 0.58719 0.96922 0.64883 0.0
O273 O 0.58141 0.95848 0.64616 0.0
O274 O 0.58282 0.9761 0.65829 0.0
O275 O 0.04176 0.55119 0.66644 0.0
Cd276 Cd 0.05373 0.57175 0.66617 0.0
O277 O 0.02343 0.56219 0.66698 0.0
Cd278 Cd 0.03321 0.57698 0.6787 0.0
O279 O 0.03873 0.57715 0.69925 0.0
C280 C 0.04897 0.57113 0.70277 0.0
O281 O 0.05668 0.56626 0.69379 0.0
C282 C 0.02946 0.55156 0.665 0.0
C283 C 0.04521 0.58418 0.64359 0.0
O284 O 0.05473 0.57611 0.6433 0.0
O285 O 0.04016 0.58692 0.65467 0.0
O286 O 0.45854 0.04024 0.63867 0.0
Cd287 Cd 0.43711 0.05034 0.63718 0.0
O288 O 0.45145 0.02823 0.65478 0.0
Cd289 Cd 0.45183 0.01336 0.67013 0.0
O290 O 0.45675 0.00538 0.68924 0.0
C291 C 0.46344 0.01289 0.69646 0.0
O292 O 0.46663 0.02446 0.69199 0.0
C293 C 0.46061 0.03133 0.647 0.0
C294 C 0.42131 0.03331 0.62327 0.0
O295 O 0.42849 0.0417 0.61744 0.0
O296 O 0.42126 0.03325 0.63576 0.0
O297 O 0.97859 0.46209 0.67053 0.0
Cd298 Cd 0.97183 0.44055 0.67812 0.0
O299 O 0.9979 0.4598 0.67955 0.0
Cd300 Cd 0.99104 0.44454 0.69257 0.0
O301 O 0.98112 0.44075 0.71093 0.0
C302 C 0.97068 0.44712 0.71285 0.0
O303 O 0.96627 0.45469 0.70351 0.0
C304 C 0.99018 0.46615 0.67222 0.0
C305 C 0.98414 0.42178 0.6628 0.0
O306 O 0.97256 0.42564 0.66013 0.0
O307 O 0.98974 0.42656 0.67287 0.0
O308 O 0.52595 0.04597 0.36434 0.0
Cd309 Cd 0.54149 0.06314 0.3695 0.0
O310 O 0.53785 0.04091 0.3474 0.0
Cd311 Cd 0.54418 0.02961 0.33045 0.0
O312 O 0.54708 0.0221 0.31077 0.0
C313 C 0.5412 0.02803 0.30163 0.0
O314 O 0.53383 0.03808 0.30455 0.0
C315 C 0.52799 0.03865 0.35457 0.0
C316 C 0.56464 0.05132 0.37723 0.0
O317 O 0.55539 0.05335 0.38536 0.0
O318 O 0.5631 0.05519 0.36545 0.0
O319 O 0.97643 0.52648 0.3601 0.0
Cd320 Cd 0.9629 0.54408 0.36851 0.0
O321 O 0.98011 0.53705 0.34189 0.0
Cd322 Cd 0.9893 0.54015 0.32283 0.0
O323 O 0.99535 0.53564 0.30288 0.0
C324 C 0.98783 0.52841 0.29619 0.0
O325 O 0.97688 0.52437 0.30143 0.0
C326 C 0.98198 0.52708 0.34906 0.0
C327 C 0.97824 0.55864 0.38546 0.0
O328 O 0.97209 0.54853 0.38941 0.0
O329 O 0.97682 0.56212 0.37354 0.0
O330 O 0.46889 0.9591 0.37136 0.0
Cd331 Cd 0.45106 0.94369 0.37446 0.0
O332 O 0.46206 0.95811 0.35128 0.0
Cd333 Cd 0.45997 0.96259 0.33059 0.0
O334 O 0.45766 0.96062 0.30959 0.0
C335 C 0.4517 0.95053 0.30561 0.0
O336 O 0.44717 0.94223 0.31424 0.0
C337 C 0.46984 0.96294 0.35964 0.0
C338 C 0.42793 0.95783 0.37531 0.0
O339 O 0.4333 0.95373 0.38581 0.0
O340 O 0.43329 0.95497 0.36441 0.0
O341 O 0.04852 0.45062 0.35031 0.0
Cd342 Cd 0.05578 0.42803 0.35106 0.0
O343 O 0.03966 0.4446 0.33185 0.0
Cd344 Cd 0.02679 0.44766 0.31502 0.0
O345 O 0.01687 0.45557 0.29787 0.0
C346 C 0.02317 0.46342 0.29065 0.0
O347 O 0.03527 0.46626 0.2937 0.0
C348 C 0.04161 0.45335 0.34042 0.0
C349 C 0.03493 0.41358 0.36055 0.0
O350 O 0.04433 0.4169 0.36806 0.0
O351 O 0.03562 0.41669 0.34848 0.0
O352 O 0.6652 0.53101 0.00237 0.0
Cd353 Cd 0.67547 0.55054 0.99348 0.0
O354 O 0.66977 0.536 0.02271 0.0
Cd355 Cd 0.684 0.55021 0.01603 0.0
O356 O 0.70251 0.54913 0.00567 0.0
C357 C 0.70518 0.53771 0.00169 0.0
O358 O 0.69684 0.52829 0.00403 0.0
C359 C 0.66412 0.52864 0.01449 0.0
C360 C 0.65666 0.56962 0.98919 0.0
O361 O 0.66039 0.56213 0.97992 0.0
O362 O 0.66194 0.56818 0.00041 0.0
O363 O 0.45647 0.63716 0.94812 0.0
Cd364 Cd 0.43654 0.63268 0.93596 0.0
O365 O 0.4478 0.65647 0.95038 0.0
Cd366 Cd 0.44725 0.67706 0.95574 0.0
O367 O 0.44681 0.69807 0.95882 0.0
C368 C 0.45517 0.70513 0.95303 0.0
O369 O 0.46387 0.69951 0.9455 0.0
C370 C 0.45706 0.64859 0.95282 0.0
C371 C 0.41675 0.62674 0.95351 0.0
O372 O 0.42295 0.61768 0.94755 0.0
O373 O 0.41972 0.63859 0.95098 0.0
O374 O 0.34854 0.44884 0.9945 0.0
Cd375 Cd 0.33755 0.43036 0.98425 0.0
O376 O 0.33715 0.44672 0.01251 0.0
Cd377 Cd 0.32264 0.43465 0.0028 0.0
O378 O 0.3056 0.43669 0.99024 0.0
C379 C 0.30685 0.44483 0.98098 0.0
O380 O 0.31818 0.45052 0.97929 0.0
C381 C 0.34637 0.45213 0.00625 0.0
C382 C 0.35444 0.40918 0.98378 0.0
O383 O 0.35299 0.4164 0.9737 0.0
O384 O 0.34772 0.41182 0.99396 0.0
O385 O 0.56464 0.37798 0.95687 0.0
Cd386 Cd 0.58762 0.37562 0.95127 0.0
O387 O 0.56444 0.35678 0.95503 0.0
Cd388 Cd 0.55721 0.3368 0.95688 0.0
O389 O 0.55014 0.31675 0.95747 0.0
C390 C 0.54231 0.31274 0.94876 0.0
O391 O 0.5387 0.32078 0.93947 0.0
C392 C 0.55846 0.3673 0.95781 0.0
C393 C 0.60167 0.37583 0.97445 0.0
O394 O 0.60077 0.3861 0.96742 0.0
O395 O 0.59626 0.36536 0.97034 0.0
O396 O 0.64369 0.44313 0.06599 0.0
Cd397 Cd 0.64821 0.42161 0.0751 0.0
O398 O 0.65787 0.43681 0.05129 0.0
Cd399 Cd 0.67024 0.44178 0.03465 0.0
O400 O 0.68634 0.45079 0.024 0.0
C401 C 0.69165 0.4457 0.01403 0.0
O402 O 0.68709 0.43463 0.0095 0.0
C403 C 0.64984 0.44525 0.05547 0.0
C404 C 0.64012 0.40384 0.05635 0.0
O405 O 0.63293 0.4063 0.06625 0.0
O406 O 0.65131 0.4093 0.05562 0.0
O407 O 0.54881 0.65293 0.99386 0.0
Cd408 Cd 0.57141 0.6565 0.00052 0.0
O409 O 0.54603 0.67253 0.00157 0.0
Cd410 Cd 0.53686 0.69129 0.0058 0.0
O411 O 0.53409 0.71122 0.01263 0.0
C412 C 0.52312 0.71595 0.01589 0.0
O413 O 0.51263 0.70868 0.01497 0.0
C414 C 0.54128 0.6625 0.99604 0.0
C415 C 0.58855 0.63661 0.99367 0.0
O416 O 0.58335 0.63696 0.00502 0.0
O417 O 0.58548 0.64554 0.9855 0.0
O418 O 0.35452 0.54712 0.03041 0.0
Cd419 Cd 0.34343 0.56818 0.03086 0.0
O420 O 0.34467 0.53913 0.04766 0.0
Cd421 Cd 0.33183 0.55593 0.0495 0.0
O422 O 0.31176 0.56203 0.04624 0.0
C423 C 0.30311 0.55471 0.05123 0.0
O424 O 0.30685 0.54489 0.05854 0.0
C425 C 0.35282 0.53784 0.03843 0.0
C426 C 0.35717 0.5859 0.01563 0.0
O427 O 0.35823 0.58604 0.02807 0.0
O428 O 0.34948 0.57756 0.01043 0.0
O429 O 0.46736 0.34734 0.00281 0.0
Cd430 Cd 0.44801 0.33616 0.01106 0.0
O431 O 0.4684 0.33429 0.98582 0.0
Cd432 Cd 0.45295 0.32135 0.99243 0.0
O433 O 0.44408 0.30347 -0.00036 0.0
C434 C 0.45119 0.29651 0.00699 0.0
O435 O 0.46289 0.30072 0.01003 0.0
C436 C 0.47273 0.34403 0.99215 0.0
C437 C 0.42568 0.34853 0.00189 0.0
O438 O 0.43034 0.35122 0.01316 0.0
O439 O 0.43146 0.33984 0.99504 0.0
O440 O 0.97832 0.63723 0.54055 0.0
Cd441 Cd 0.96802 0.62905 0.5603 0.0
O442 O 0.98124 0.6567 0.54885 0.0
Cd443 Cd 0.98881 0.67664 0.5492 0.0
O444 O 0.99261 0.69724 0.5455 0.0
C445 C 0.9848 0.70325 0.538 0.0
O446 O 0.97496 0.69684 0.53291 0.0
C447 C 0.98264 0.64877 0.53942 0.0
C448 C 0.9871 0.61797 0.57606 0.0
O449 O 0.98206 0.6116 0.56658 0.0
O450 O 0.98295 0.62953 0.5783 0.0
O451 O 0.96017 0.36653 0.45492 0.0
Cd452 Cd 0.95175 0.36198 0.43315 0.0
O453 O 0.97419 0.35133 0.44988 0.0
Cd454 Cd 0.98999 0.33725 0.45262 0.0
O455 O 0.99644 0.31839 0.45998 0.0
C456 C 0.98719 0.31156 0.46456 0.0
O457 O 0.97529 0.31628 0.46414 0.0
C458 C 0.96968 0.35933 0.45823 0.0
C459 C 0.967 0.37333 0.41389 0.0
O460 O 0.95614 0.37848 0.41727 0.0
O461 O 0.97063 0.36283 0.41957 0.0
O462 O 0.65115 0.99589 0.45564 0.0
Cd463 Cd 0.64855 0.98411 0.43515 0.0
O464 O 0.67016 0.98681 0.45926 0.0
Cd465 Cd 0.6886 0.98455 0.46973 0.0
O466 O 0.70874 0.9826 0.4764 0.0
C467 C 0.71164 0.97593 0.48642 0.0
O468 O 0.70232 0.97008 0.49294 0.0
C469 C 0.66111 0.99447 0.46284 0.0
C470 C 0.63291 0.99862 0.41841 0.0
O471 O 0.62791 0.99099 0.42693 0.0
O472 O 0.64536 0.99923 0.41763 0.0
O473 O 0.0437 0.64366 0.46002 0.0
Cd474 Cd 0.0548 0.63684 0.4402 0.0
O475 O 0.03477 0.66047 0.45033 0.0
Cd476 Cd 0.02176 0.67732 0.44896 0.0
O477 O 0.01438 0.6968 0.45318 0.0
C478 C 0.00608 0.70275 0.4462 0.0
O479 O 0.00127 0.69694 0.43585 0.0
C480 C 0.03619 0.65348 0.46048 0.0
C481 C 0.0401 0.61671 0.42955 0.0
O482 O 0.04875 0.61446 0.43827 0.0
O483 O 0.03869 0.62846 0.42554 0.0
O484 O 0.33983 0.02004 0.43789 0.0
Cd485 Cd 0.33443 0.02385 0.41507 0.0
O486 O 0.31968 0.02388 0.44374 0.0
Cd487 Cd 0.30274 0.02376 0.45667 0.0
O488 O 0.28433 0.02609 0.46702 0.0
C489 C 0.28335 0.0331 0.47718 0.0
O490 O 0.29381 0.0388 0.48187 0.0
C491 C 0.3312 0.02042 0.44675 0.0
C492 C 0.35305 0.01103 0.40015 0.0
O493 O 0.35353 0.02342 0.40159 0.0
O494 O 0.34362 0.00479 0.40542 0.0
O495 O 0.01076 0.35378 0.55389 0.0
Cd496 Cd 0.01809 0.34433 0.57446 0.0
O497 O 0.00607 0.33373 0.54859 0.0
Cd498 Cd 0.99854 0.31713 0.53747 0.0
O499 O 0.99613 0.29776 0.52903 0.0
C500 C 0.0062 0.29221 0.52445 0.0
O501 O 0.0173 0.29859 0.52445 0.0
C502 C 0.00626 0.34577 0.54561 0.0
C503 C 0.01448 0.36124 0.59534 0.0
O504 O 0.02555 0.36041 0.58961 0.0
O505 O 0.00514 0.35408 0.59118 0.0
O506 O 0.66055 0.03291 0.55925 0.0
Cd507 Cd 0.66539 0.03529 0.58239 0.0
O508 O 0.67688 0.01923 0.55935 0.0
Cd509 Cd 0.69199 0.00724 0.55033 0.0
O510 O 0.7091 0.00052 0.53977 0.0
C511 C 0.71257 0.00727 0.53 0.0
O512 O 0.70547 0.0174 0.52667 0.0
C513 C 0.66786 0.02503 0.55312 0.0
C514 C 0.6511 0.01744 0.59692 0.0
O515 O 0.64715 0.0292 0.59551 0.0
O516 O 0.66189 0.01415 0.59156 0.0
O517 O 0.37203 0.9685 0.52268 0.0
Cd518 Cd 0.38187 0.95436 0.539 0.0
O519 O 0.35299 0.96596 0.53203 0.0
Cd520 Cd 0.33184 0.96842 0.53202 0.0
O521 O 0.31118 0.97041 0.52753 0.0
C522 C 0.30264 0.96492 0.53459 0.0
O523 O 0.3064 0.9582 0.54482 0.0
C524 C 0.35997 0.97119 0.52324 0.0
C525 C 0.38779 0.9694 0.56074 0.0
O526 O 0.39574 0.96846 0.55116 0.0
O527 O 0.37711 0.96297 0.5602 0.0
H528 H 0.96543 0.51023 0.16374 0.0
H529 H 0.97158 0.53977 0.13419 0.0
H530 H 0.9919 0.52865 0.1274 0.0
H531 H 0.99832 0.50872 0.1735 0.0
H532 H 0.99829 0.49153 0.17669 0.0
H533 H 0.98345 0.50068 0.17842 0.0
H534 H 0.97163 0.48553 0.16218 0.0
H535 H 0.98623 0.4759 0.16065 0.0
H536 H 0.97862 0.48266 0.14633 0.0
H537 H 0.01221 0.51479 0.12478 0.0
H538 H 0.03113 0.50002 0.12712 0.0
H539 H 0.01172 0.48021 0.15898 0.0
C540 C 0.97116 0.51454 0.15602 0.0
C541 C 0.96715 0.52607 0.14974 0.0
C542 C 0.97457 0.53098 0.1392 0.0
C543 C 0.98609 0.52472 0.13527 0.0
C544 C 0.98994 0.51353 0.14193 0.0
C545 C 0.98267 0.5085 0.15207 0.0
C546 C 0.98926 0.49687 0.15822 0.0
C547 C 0.9925 0.49963 0.17257 0.0
C548 C 0.98094 0.48451 0.15675 0.0
C549 C 0.00147 0.49615 0.15003 0.0
C550 C 0.00164 0.50575 0.14059 0.0
C551 C 0.01214 0.50721 0.13211 0.0
C552 C 0.02281 0.49877 0.13348 0.0
C553 C 0.02295 0.48916 0.14339 0.0
C554 C 0.01202 0.48769 0.15156 0.0
H555 H 0.52183 0.006 0.13696 0.0
H556 H 0.51491 0.02713 0.17289 0.0
H557 H 0.49679 0.01222 0.17816 0.0
H558 H 0.48886 0.0015 0.12892 0.0
H559 H 0.49101 0.98545 0.12211 0.0
H560 H 0.50427 0.99692 0.12182 0.0
H561 H 0.51907 0.9804 0.1339 0.0
H562 H 0.5059 0.96881 0.1341 0.0
H563 H 0.51368 0.9735 0.14913 0.0
H564 H 0.47829 0.99591 0.17861 0.0
H565 H 0.46157 0.97904 0.1746 0.0
H566 H 0.48057 0.96887 0.13825 0.0
C567 C 0.51664 0.00734 0.14606 0.0
C568 C 0.52004 0.01747 0.15472 0.0
C569 C 0.51288 0.01909 0.1664 0.0
C570 C 0.50243 0.01077 0.16938 0.0
C571 C 0.49926 0.00096 0.16054 0.0
C572 C 0.50622 0.99917 0.14915 0.0
C573 C 0.50054 0.98828 0.141 0.0
C574 C 0.4959 0.99335 0.12768 0.0
C575 C 0.51038 0.97708 0.13945 0.0
C576 C 0.48919 0.98431 0.14949 0.0
C577 C 0.48862 0.99168 0.16075 0.0
C578 C 0.47877 0.98993 0.16993 0.0
C579 C 0.46938 0.98025 0.16763 0.0
C580 C 0.46995 0.97246 0.15627 0.0
C581 C 0.47991 0.97466 0.14705 0.0
H582 H 0.9594 0.4497 0.84074 0.0
H583 H 0.9544 0.46295 0.88056 0.0
H584 H 0.97184 0.47922 0.87729 0.0
H585 H 0.99405 0.45371 0.83887 0.0
H586 H 0.99383 0.45944 0.82228 0.0
H587 H 0.98132 0.44852 0.82793 0.0
H588 H 0.96354 0.46502 0.82087 0.0
H589 H 0.976 0.47589 0.81507 0.0
H590 H 0.96422 0.48151 0.82682 0.0
H591 H 0.98913 0.49472 0.86932 0.0
H592 H 0.00562 0.50768 0.85753 0.0
H593 H 0.99878 0.48458 0.82273 0.0
C594 C 0.96176 0.45617 0.8487 0.0
C595 C 0.95532 0.45526 0.86081 0.0
C596 C 0.9592 0.4635 0.87118 0.0
C597 C 0.96905 0.47281 0.8694 0.0
C598 C 0.97495 0.4737 0.85721 0.0
C599 C 0.9715 0.46556 0.84705 0.0
C600 C 0.97924 0.4686 0.83487 0.0
C601 C 0.98761 0.45687 0.83075 0.0
C602 C 0.97021 0.47302 0.82375 0.0
C603 C 0.98757 0.47974 0.83975 0.0
C604 C 0.98495 0.48254 0.85266 0.0
C605 C 0.99131 0.49258 0.85922 0.0
C606 C 0.00064 0.49991 0.85244 0.0
C607 C 0.00352 0.49716 0.83921 0.0
C608 C 0.99684 0.48693 0.83285 0.0
H609 H 0.4939 0.02934 0.85605 0.0
H610 H 0.46491 0.01785 0.82756 0.0
H611 H 0.47372 0.99542 0.8276 0.0
H612 H 0.5201 0.01003 0.84273 0.0
H613 H 0.52685 0.00603 0.85844 0.0
H614 H 0.51814 0.0211 0.85623 0.0
H615 H 0.50263 0.01494 0.87517 0.0
H616 H 0.51125 -0.00018 0.87741 0.0
H617 H 0.49392 -0.00031 0.87458 0.0
H618 H 0.48505 0.97411 0.83153 0.0
H619 H 0.49918 0.9557 0.83782 0.0
H620 H 0.52173 0.98141 0.86263 0.0
C621 C 0.48944 0.02208 0.84983 0.0
C622 C 0.47885 0.02528 0.84168 0.0
C623 C 0.47322 0.0156 0.83365 0.0
C624 C 0.47808 0.00283 0.8337 0.0
C625 C 0.48859 -2e-05 0.8418 0.0
C626 C 0.49428 0.00934 0.84964 0.0
C627 C 0.50566 0.00381 0.8572 0.0
C628 C 0.51845 0.01065 0.85342 0.0
C629 C 0.50321 0.00461 0.87197 0.0
C630 C 0.50543 0.98985 0.85247 0.0
C631 C 0.49545 0.98783 0.84366 0.0
C632 C 0.49307 0.97564 0.8382 0.0
C633 C 0.50127 0.96529 0.84167 0.0
C634 C 0.51188 0.96728 0.85024 0.0
C635 C 0.5138 0.97967 0.85589 0.0
H636 H 0.14823 0.00154 0.52274 0.0
H637 H 0.16173 0.96624 0.50391 0.0
H638 H 0.16411 0.97821 0.48312 0.0
H639 H 0.12939 0.01336 0.4976 0.0
H640 H 0.13355 0.03029 0.49973 0.0
H641 H 0.1343 0.01933 0.51338 0.0
H642 H 0.15847 0.02559 0.51727 0.0
H643 H 0.15776 0.03666 0.50365 0.0
H644 H 0.17002 0.0241 0.50411 0.0
H645 H 0.16174 0.99327 0.4638 0.0
H646 H 0.15716 0.01097 0.44796 0.0
H647 H 0.1467 0.03665 0.47979 0.0
C648 C 0.15197 0.99644 0.51429 0.0
C649 C 0.15493 0.98305 0.51488 0.0
C650 C 0.15967 0.97659 0.50366 0.0
C651 C 0.16098 0.98329 0.49182 0.0
C652 C 0.15775 0.99648 0.49147 0.0
C653 C 0.15362 0.00305 0.50249 0.0
C654 C 0.15036 0.0171 0.49945 0.0
C655 C 0.13605 0.02019 0.50273 0.0
C656 C 0.15971 0.02641 0.50654 0.0
C657 C 0.15273 0.01724 0.48491 0.0
C658 C 0.15701 0.00528 0.48046 0.0
C659 C 0.15873 0.00279 0.4672 0.0
C660 C 0.15606 0.01283 0.45829 0.0
C661 C 0.15192 0.02519 0.46275 0.0
C662 C 0.15029 0.02739 0.4762 0.0
H663 H 0.01424 0.13842 0.51923 0.0
H664 H 0.03737 0.16724 0.49878 0.0
H665 H 0.01766 0.175 0.48735 0.0
H666 H 0.99235 0.13093 0.49196 0.0
H667 H 0.97836 0.12897 0.50239 0.0
H668 H 0.99441 0.12528 0.50847 0.0
H669 H 0.9909 0.14134 0.52764 0.0
H670 H 0.97485 0.14508 0.52163 0.0
H671 H 0.98646 0.158 0.52422 0.0
H672 H 0.9953 0.18048 0.47924 0.0
H673 H 0.97179 0.18305 0.47469 0.0
H674 H 0.96326 0.15036 0.50004 0.0
C675 C 0.01515 0.14628 0.51225 0.0
C676 C 0.02722 0.15248 0.51011 0.0
C677 C 0.0281 0.16269 0.50088 0.0
C678 C 0.017 0.16703 0.49422 0.0
C679 C 0.00515 0.16094 0.4968 0.0
C680 C 0.00416 0.15072 0.50552 0.0
C681 C 0.9902 0.14614 0.50683 0.0
C682 C 0.98875 0.13199 0.50213 0.0
C683 C 0.98532 0.14774 0.52091 0.0
C684 C 0.98347 0.15554 0.49768 0.0
C685 C 0.99228 0.16396 0.49196 0.0
C686 C 0.98831 0.1739 0.48361 0.0
C687 C 0.97495 0.17537 0.48118 0.0
C688 C 0.96577 0.167 0.48714 0.0
C689 C 0.97012 0.15681 0.49528 0.0
H690 H 0.84814 0.9664 0.48198 0.0
H691 H 0.85059 0.98723 0.44534 0.0
H692 H 0.84698 0.00808 0.45698 0.0
H693 H 0.82354 0.98734 0.49763 0.0
H694 H 0.83121 0.98627 0.51339 0.0
H695 H 0.83252 0.97292 0.50207 0.0
H696 H 0.85767 0.97386 0.50363 0.0
H697 H 0.85654 0.9872 0.51495 0.0
H698 H 0.86596 0.98897 0.50023 0.0
H699 H 0.84363 0.02653 0.47266 0.0
H700 H 0.84251 0.0416 0.49143 0.0
H701 H 0.84399 0.00881 0.518 0.0
C702 C 0.84755 0.97534 0.4764 0.0
C703 C 0.84929 0.97528 0.46276 0.0
C704 C 0.84907 0.98714 0.45578 0.0
C705 C 0.847 0.99898 0.4623 0.0
C706 C 0.84537 0.99872 0.47579 0.0
C707 C 0.84572 0.98722 0.48278 0.0
C708 C 0.8448 0.98969 0.49729 0.0
C709 C 0.83227 0.9837 0.50293 0.0
C710 C 0.85697 0.98463 0.50444 0.0
C711 C 0.8442 0.00442 0.49742 0.0
C712 C 0.84423 0.00941 0.4849 0.0
C713 C 0.8436 0.02274 0.48249 0.0
C714 C 0.84297 0.0312 0.49318 0.0
C715 C 0.84322 0.02629 0.50605 0.0
C716 C 0.84389 0.01275 0.50821 0.0
H717 H 0.01332 0.83122 0.49146 0.0
H718 H 0.03759 0.84522 0.52308 0.0
H719 H 0.01837 0.8458 0.53755 0.0
H720 H 0.9867 0.85073 0.49785 0.0
H721 H 0.97452 0.83877 0.49374 0.0
H722 H 0.99039 0.83794 0.48638 0.0
H723 H 0.99293 0.81433 0.49455 0.0
H724 H 0.9772 0.81494 0.50234 0.0
H725 H 0.99149 0.81081 0.51168 0.0
H726 H 0.99635 0.84713 0.54777 0.0
H727 H 0.97293 0.84897 0.55312 0.0
H728 H 0.96308 0.83381 0.51495 0.0
C729 C 0.0147 0.83387 0.50157 0.0
C730 C 0.027 0.83783 0.50627 0.0
C731 C 0.02826 0.84201 0.51935 0.0
C732 C 0.01742 0.84231 0.52765 0.0
C733 C 0.0054 0.83841 0.5227 0.0
C734 C 0.00398 0.83422 0.50998 0.0
C735 C 0.98983 0.83155 0.50677 0.0
C736 C 0.98509 0.84027 0.49553 0.0
C737 C 0.98773 0.81705 0.50366 0.0
C738 C 0.98348 0.83529 0.51956 0.0
C739 C 0.99265 0.83909 0.52866 0.0
C740 C 0.98909 0.84393 0.54084 0.0
C741 C 0.97579 0.84499 0.54377 0.0
C742 C 0.96625 0.84119 0.53458 0.0
C743 C 0.97017 0.83624 0.52236 0.0
H744 H 0.50055 0.14424 0.97594 0.0
H745 H 0.51182 0.18439 0.98273 0.0
H746 H 0.49448 0.18642 0.99933 0.0
H747 H 0.46534 0.14837 0.98113 0.0
H748 H 0.4639 0.13285 0.98922 0.0
H749 H 0.47611 0.13518 0.97683 0.0
H750 H 0.49404 0.12793 0.99309 0.0
H751 H 0.48191 0.12559 0.0055 0.0
H752 H 0.49555 0.13623 0.00849 0.0
H753 H 0.47724 0.18319 0.01685 0.0
H754 H 0.46212 0.17492 0.03367 0.0
H755 H 0.46231 0.13696 0.01515 0.0
C756 C 0.49924 0.15354 0.98077 0.0
C757 C 0.50733 0.16426 0.97782 0.0
C758 C 0.50544 0.1762 0.98447 0.0
C759 C 0.49568 0.1774 0.994 0.0
C760 C 0.48791 0.16658 0.99672 0.0
C761 C 0.48959 0.15489 0.99025 0.0
C762 C 0.48066 0.14443 0.99551 0.0
C763 C 0.47092 0.13995 0.98505 0.0
C764 C 0.48851 0.13287 0.00097 0.0
C765 C 0.47391 0.15193 0.00623 0.0
C766 C 0.47807 0.16473 0.00672 0.0
C767 C 0.4737 0.17327 0.01636 0.0
C768 C 0.46498 0.16854 0.02579 0.0
C769 C 0.46074 0.15541 0.02549 0.0
C770 C 0.46522 0.1471 0.0155 0.0
H771 H 0.52384 0.82873 0.99464 0.0
H772 H 0.50294 0.86506 0.98902 0.0
H773 H 0.51463 0.87463 0.00776 0.0
H774 H 0.52212 0.82831 0.02845 0.0
H775 H 0.53814 0.8214 0.0306 0.0
H776 H 0.52923 0.81827 0.01589 0.0
H777 H 0.54901 0.82714 0.00276 0.0
H778 H 0.55759 0.83049 0.01771 0.0
H779 H 0.55497 0.84334 0.00603 0.0
H780 H 0.52738 0.87968 0.02806 0.0
H781 H 0.53886 0.87925 0.04924 0.0
H782 H 0.5507 0.83934 0.04203 0.0
C783 C 0.52192 0.83879 0.99716 0.0
C784 C 0.51254 0.84618 0.99032 0.0
C785 C 0.51012 0.85923 0.99411 0.0
C786 C 0.51676 0.86477 0.00469 0.0
C787 C 0.52578 0.85713 0.01137 0.0
C788 C 0.52835 0.84442 0.00776 0.0
C789 C 0.53759 0.8379 0.01722 0.0
C790 C 0.53136 0.82576 0.0234 0.0
C791 C 0.55056 0.83452 0.01053 0.0
C792 C 0.53935 0.84873 0.02707 0.0
C793 C 0.53275 0.85987 0.02333 0.0
C794 C 0.53265 0.87104 0.03104 0.0
C795 C 0.53921 0.87072 0.04303 0.0
C796 C 0.5455 0.85922 0.04728 0.0
C797 C 0.54579 0.8482 0.03907 0.0
H798 H 0.14191 0.53239 0.99305 0.0
H799 H 0.17583 0.51945 0.01465 0.0
H800 H 0.18305 0.50656 0.99563 0.0
H801 H 0.13584 0.50245 0.97608 0.0
H802 H 0.13111 0.51026 0.96109 0.0
H803 H 0.1286 0.51845 0.97641 0.0
H804 H 0.1419 0.53826 0.96814 0.0
H805 H 0.14437 0.53017 0.95276 0.0
H806 H 0.15819 0.53577 0.96204 0.0
H807 H 0.18589 0.49416 0.97459 0.0
H808 H 0.18525 0.48483 0.9525 0.0
H809 H 0.15029 0.50708 0.94411 0.0
C810 C 0.15087 0.52686 0.99373 0.0
C811 C 0.15842 0.52702 0.00522 0.0
C812 C 0.17009 0.5197 0.00581 0.0
C813 C 0.17419 0.51224 0.99511 0.0
C814 C 0.16653 0.51229 0.9839 0.0
C815 C 0.15519 0.51952 0.98309 0.0
C816 C 0.14891 0.51815 0.96981 0.0
C817 C 0.13531 0.51196 0.97092 0.0
C818 C 0.14832 0.53137 0.96277 0.0
C819 C 0.15846 0.509 0.96329 0.0
C820 C 0.16848 0.50562 0.97162 0.0
C821 C 0.17825 0.49697 0.96788 0.0
C822 C 0.17792 0.49186 0.95521 0.0
C823 C 0.16805 0.49561 0.94632 0.0
C824 C 0.15809 0.50413 0.95058 0.0
H825 H 0.81065 0.51721 0.0136 0.0
H826 H 0.84895 0.50471 0.02638 0.0
H827 H 0.85838 0.51261 0.00569 0.0
H828 H 0.81501 0.50738 0.98011 0.0
H829 H 0.80587 0.52083 0.97363 0.0
H830 H 0.80198 0.51454 0.9895 0.0
H831 H 0.80508 0.5373 -0.00025 0.0
H832 H 0.8087 0.54394 0.98393 0.0
H833 H 0.8201 0.54601 0.99714 0.0
H834 H 0.86361 0.52213 0.98369 0.0
H835 H 0.86418 0.53183 0.96168 0.0
H836 H 0.82245 0.53826 0.96354 0.0
C837 C 0.82094 0.5158 0.01195 0.0
C838 C 0.829 0.51007 0.0215 0.0
C839 C 0.84257 0.509 0.01915 0.0
C840 C 0.84802 0.51346 0.00744 0.0
C841 C 0.83977 0.519 0.9982 0.0
C842 C 0.82653 0.52016 0.00032 0.0
C843 C 0.81977 0.52635 0.98877 0.0
C844 C 0.81008 0.5167 0.98265 0.0
C845 C 0.81302 0.53916 0.99263 0.0
C846 C 0.83132 0.52875 0.97991 0.0
C847 C 0.84276 0.52438 0.98551 0.0
C848 C 0.85471 0.52554 0.97919 0.0
C849 C 0.85494 0.53113 0.96672 0.0
C850 C 0.8433 0.5355 0.9607 0.0
C851 C 0.83141 0.5345 0.96755 0.0
H852 H 0.5172 0.98641 0.67553 0.0
H853 H 0.53624 0.98913 0.63791 0.0
H854 H 0.51815 0.00282 0.62982 0.0
H855 H 0.48443 0.98566 0.66409 0.0
H856 H 0.47821 0.99554 0.67719 0.0
H857 H 0.49236 0.98552 0.67975 0.0
H858 H 0.50552 0.00591 0.68716 0.0
H859 H 0.4913 0.01585 0.68473 0.0
H860 H 0.50631 0.0199 0.6766 0.0
H861 H 0.49806 0.0164 0.62598 0.0
H862 H 0.47732 0.02859 0.62657 0.0
H863 H 0.47299 0.01894 0.66746 0.0
C864 C 0.51782 0.99019 0.66575 0.0
C865 C 0.52834 0.98702 0.65749 0.0
C866 C 0.52829 0.9915 0.64443 0.0
C867 C 0.5181 0.99932 0.63977 0.0
C868 C 0.50806 0.00257 0.6483 0.0
C869 C 0.50786 0.99817 0.66102 0.0
C870 C 0.49601 0.00314 0.66824 0.0
C871 C 0.48724 0.99179 0.67257 0.0
C872 C 0.50003 0.01171 0.67987 0.0
C873 C 0.4896 0.01109 0.65761 0.0
C874 C 0.49663 0.01054 0.64615 0.0
C875 C 0.49248 0.0169 0.63491 0.0
C876 C 0.48071 0.02384 0.63537 0.0
C877 C 0.47327 0.02441 0.64699 0.0
C878 C 0.478 0.01818 0.65829 0.0
H879 H 0.03776 0.52646 0.66792 0.0
H880 H 0.00441 0.54955 0.65602 0.0
H881 H 0.99146 0.52943 0.6534 0.0
H882 H 0.03104 0.49733 0.64715 0.0
H883 H 0.03628 0.48632 0.65979 0.0
H884 H 0.04354 0.50226 0.65846 0.0
H885 H 0.03741 0.50707 0.68249 0.0
H886 H 0.03014 0.49122 0.68388 0.0
H887 H 0.02067 0.50554 0.68757 0.0
H888 H 0.98149 0.50711 0.65448 0.0
H889 H 0.97501 0.48471 0.66037 0.0
H890 H 0.01475 0.47643 0.67224 0.0
C891 C 0.02785 0.52726 0.6644 0.0
C892 C 0.02212 0.53954 0.66206 0.0
C893 C 0.009 0.54022 0.65781 0.0
C894 C 0.0016 0.52884 0.65623 0.0
C895 C 0.00745 0.51689 0.65893 0.0
C896 C 0.02029 0.51603 0.66292 0.0
C897 C 0.02385 0.50223 0.66668 0.0
C898 C 0.03429 0.49671 0.65747 0.0
C899 C 0.02827 0.50148 0.681 0.0
C900 C 0.01088 0.49554 0.66464 0.0
C901 C 0.00162 0.50408 0.65989 0.0
C902 C 0.98871 0.50029 0.65803 0.0
C903 C 0.98512 0.48754 0.6614 0.0
C904 C 0.99437 0.47881 0.66677 0.0
C905 C 0.00747 0.48283 0.66809 0.0
H906 H 0.48035 0.98124 0.37579 0.0
H907 H 0.48124 0.96767 0.33577 0.0
H908 H 0.49547 0.98608 0.32983 0.0
H909 H 0.48038 0.0153 0.36938 0.0
H910 H 0.49112 0.01928 0.38269 0.0
H911 H 0.48075 0.00518 0.38372 0.0
H912 H 0.50087 0.99053 0.38806 0.0
H913 H 0.51129 0.00461 0.38714 0.0
H914 H 0.51431 0.99077 0.37676 0.0
H915 H 0.5088 0.00676 0.32813 0.0
H916 H 0.52188 0.02669 0.33125 0.0
H917 H 0.514 0.02536 0.37274 0.0
C918 C 0.48357 0.9821 0.36577 0.0
C919 C 0.47924 0.97329 0.35613 0.0
C920 C 0.48382 0.97467 0.34319 0.0
C921 C 0.49208 0.98501 0.33975 0.0
C922 C 0.49586 0.99373 0.34944 0.0
C923 C 0.49191 0.99226 0.36222 0.0
C924 C 0.49762 0.00275 0.37086 0.0
C925 C 0.48682 0.01112 0.37702 0.0
C926 C 0.50656 0.99681 0.38132 0.0
C927 C 0.50533 0.01042 0.36091 0.0
C928 C 0.50414 0.00513 0.3486 0.0
C929 C 0.51007 0.0108 0.33779 0.0
C930 C 0.51766 0.02202 0.33968 0.0
C931 C 0.51943 0.02728 0.3523 0.0
C932 C 0.51297 0.02149 0.36298 0.0
H933 H 0.03135 0.46805 0.36019 0.0
H934 H 0.03754 0.46765 0.31849 0.0
H935 H 0.0226 0.48638 0.31598 0.0
H936 H 0.99859 0.47633 0.3606 0.0
H937 H 0.99942 0.48744 0.37417 0.0
H938 H 0.01105 0.47438 0.37283 0.0
H939 H 0.03011 0.4909 0.37384 0.0
H940 H 0.01854 0.50401 0.37544 0.0
H941 H 0.03049 0.50436 0.36257 0.0
H942 H 0.00426 0.50242 0.31791 0.0
H943 H 0.98742 0.51823 0.32436 0.0
H944 H 0.99603 0.51106 0.36504 0.0
C945 C 0.02976 0.4721 0.35058 0.0
C946 C 0.03501 0.46607 0.33939 0.0
C947 C 0.03291 0.47171 0.32702 0.0
C948 C 0.02461 0.48243 0.32555 0.0
C949 C 0.01893 0.48769 0.33668 0.0
C950 C 0.02176 0.48304 0.349 0.0
C951 C 0.01445 0.49061 0.35936 0.0
C952 C 0.00534 0.48166 0.36719 0.0
C953 C 0.02397 0.49791 0.36833 0.0
C954 C 0.00681 0.49996 0.35088 0.0
C955 C 0.00943 0.498 0.33783 0.0
C956 C 0.00262 0.50455 0.3281 0.0
C957 C 0.99323 0.51372 0.33184 0.0
C958 C 0.99108 0.51662 0.34513 0.0
C959 C 0.99775 0.50937 0.35476 0.0
H960 H 0.66162 0.51958 0.03953 0.0
H961 H 0.6523 0.51016 0.99935 0.0
H962 H 0.64472 0.48847 0.00623 0.0
H963 H 0.67486 0.49024 0.04755 0.0
H964 H 0.66858 0.48938 0.06392 0.0
H965 H 0.67108 0.50497 0.05635 0.0
H966 H 0.64694 0.51108 0.06047 0.0
H967 H 0.64436 0.49551 0.06819 0.0
H968 H 0.63421 0.50042 0.05473 0.0
H969 H 0.6421 0.46683 0.01658 0.0
H970 H 0.64306 0.44698 0.03017 0.0
H971 H 0.65299 0.47034 0.06387 0.0
C972 C 0.65761 0.51311 0.03223 0.0
C973 C 0.65755 0.51659 0.0189 0.0
C974 C 0.65241 0.50775 0.00962 0.0
C975 C 0.64805 0.4954 0.01344 0.0
C976 C 0.6487 0.4921 0.02658 0.0
C977 C 0.65315 0.50076 0.03588 0.0
C978 C 0.65394 0.49439 0.04918 0.0
C979 C 0.66794 0.49477 0.05455 0.0
C980 C 0.64428 0.50073 0.05871 0.0
C981 C 0.64983 0.48063 0.04578 0.0
C982 C 0.64675 0.47957 0.0327 0.0
C983 C 0.6441 0.46759 0.0269 0.0
C984 C 0.64472 0.45639 0.03465 0.0
C985 C 0.64785 0.45728 0.04802 0.0
C986 C 0.65019 0.46954 0.05373 0.0
H987 H 0.48217 0.63995 0.95087 0.0
H988 H 0.45726 0.66564 0.97333 0.0
H989 H 0.47608 0.67215 0.98681 0.0
H990 H 0.50157 0.62884 0.97784 0.0
H991 H 0.51649 0.62823 0.96861 0.0
H992 H 0.50109 0.62582 0.96055 0.0
H993 H 0.50644 0.6446 0.94453 0.0
H994 H 0.52187 0.64704 0.95252 0.0
H995 H 0.51062 0.66043 0.95089 0.0
H996 H 0.49759 0.67541 0.99822 0.0
H997 H 0.52023 0.67558 0.00628 0.0
H998 H 0.53116 0.64795 0.97621 0.0
C999 C 0.4807 0.64698 0.9586 0.0
C1000 C 0.46833 0.65257 0.96083 0.0
C1001 C 0.46675 0.66164 0.97111 0.0
C1002 C 0.47735 0.66525 0.97894 0.0
C1003 C 0.48945 0.65965 0.9764 0.0
C1004 C 0.49118 0.65071 0.96648 0.0
C1005 C 0.50518 0.64611 0.96579 0.0
C1006 C 0.50613 0.63138 0.96835 0.0
C1007 C 0.51139 0.64977 0.95265 0.0
C1008 C 0.51106 0.65387 0.97687 0.0
C1009 C 0.50183 0.66159 0.98289 0.0
C1010 C 0.50494 0.66953 0.99346 0.0
C1011 C 0.51788 0.6697 0.99787 0.0
C1012 C 0.52755 0.66208 0.99165 0.0
C1013 C 0.524 0.65395 0.98113 0.0
H1014 H 0.34172 0.46364 0.02979 0.0
H1015 H 0.36642 0.46626 0.9956 0.0
H1016 H 0.37489 0.48734 0.00341 0.0
H1017 H 0.33122 0.49411 0.02916 0.0
H1018 H 0.33069 0.4969 0.04649 0.0
H1019 H 0.32936 0.48064 0.04028 0.0
H1020 H 0.34904 0.47348 0.05439 0.0
H1021 H 0.35041 0.48982 0.06072 0.0
H1022 H 0.36426 0.48214 0.05312 0.0
H1023 H 0.3768 0.50987 0.01206 0.0
H1024 H 0.37174 0.53176 0.02056 0.0
H1025 H 0.346 0.51457 0.04931 0.0
C1026 C 0.3493 0.46838 0.0242 0.0
C1027 C 0.35342 0.46328 0.0121 0.0
C1028 C 0.36315 0.46994 0.00493 0.0
C1029 C 0.36807 0.4819 0.00933 0.0
C1030 C 0.36331 0.48699 0.021 0.0
C1031 C 0.35425 0.48034 0.02843 0.0
C1032 C 0.34918 0.48871 0.03947 0.0
C1033 C 0.33424 0.49018 0.03879 0.0
C1034 C 0.35349 0.48321 0.05271 0.0
C1035 C 0.35605 0.50141 0.03652 0.0
C1036 C 0.36446 0.50014 0.02606 0.0
C1037 C 0.37055 0.51092 0.02048 0.0
C1038 C 0.36759 0.52334 0.02536 0.0
C1039 C 0.35852 0.52488 0.03565 0.0
C1040 C 0.35318 0.5137 0.04164 0.0
H1041 H 0.48919 0.33626 0.97278 0.0
H1042 H 0.48305 0.36714 0.00102 0.0
H1043 H 0.50361 0.37757 0.99396 0.0
H1044 H 0.52224 0.33329 0.97867 0.0
H1045 H 0.5269 0.32986 0.96215 0.0
H1046 H 0.5109 0.32548 0.96774 0.0
H1047 H 0.50005 0.33888 0.94944 0.0
H1048 H 0.51595 0.34284 0.94318 0.0
H1049 H 0.50461 0.35568 0.9471 0.0
H1050 H 0.52562 0.38379 0.98462 0.0
H1051 H 0.54749 0.38478 0.97455 0.0
H1052 H 0.53891 0.34973 0.95257 0.0
C1053 C 0.49198 0.34538 0.9773 0.0
C1054 C 0.48445 0.35095 0.98738 0.0
C1055 C 0.48864 0.36272 0.99325 0.0
C1056 C 0.50028 0.36873 0.98927 0.0
C1057 C 0.50758 0.36284 0.97943 0.0
C1058 C 0.50356 0.35143 0.97354 0.0
C1059 C 0.51365 0.34637 0.96408 0.0
C1060 C 0.5187 0.33295 0.96843 0.0
C1061 C 0.50824 0.34592 0.95012 0.0
C1062 C 0.52402 0.35672 0.96552 0.0
C1063 C 0.52033 0.36618 0.97436 0.0
C1064 C 0.52856 0.37647 0.97762 0.0
C1065 C 0.54095 0.37697 0.97183 0.0
C1066 C 0.54501 0.36717 0.96299 0.0
C1067 C 0.53629 0.3571 0.95961 0.0
H1068 H 0.02785 0.63543 0.47793 0.0
H1069 H 0.02792 0.67704 0.47059 0.0
H1070 H 0.01342 0.6804 0.4895 0.0
H1071 H 0.99519 0.63224 0.48863 0.0
H1072 H 0.9989 0.62064 0.50128 0.0
H1073 H 0.00902 0.62153 0.48698 0.0
H1074 H 0.02939 0.62526 0.50145 0.0
H1075 H 0.01935 0.62426 0.5158 0.0
H1076 H 0.0294 0.6384 0.51311 0.0
H1077 H 0.99769 0.67883 0.50854 0.0
H1078 H 0.9842 0.67282 0.52753 0.0
H1079 H 0.99673 0.63267 0.52378 0.0
C1080 C 0.02487 0.64527 0.48032 0.0
C1081 C 0.02852 0.65592 0.47242 0.0
C1082 C 0.0246 0.66865 0.476 0.0
C1083 C 0.01653 0.67067 0.48687 0.0
C1084 C 0.01276 0.65988 0.4942 0.0
C1085 C 0.01702 0.64746 0.4912 0.0
C1086 C 0.01193 0.63754 0.50083 0.0
C1087 C 0.00324 0.62739 0.49402 0.0
C1088 C 0.02319 0.63098 0.50824 0.0
C1089 C 0.00404 0.64629 0.50966 0.0
C1090 C 0.00455 0.65913 0.50564 0.0
C1091 C 0.99754 0.66887 0.512 0.0
C1092 C 0.99007 0.66542 0.52292 0.0
C1093 C 0.98992 0.65242 0.52753 0.0
C1094 C 0.99682 0.64274 0.52063 0.0
H1095 H 0.00407 0.3325 0.52238 0.0
H1096 H 0.99706 0.37015 0.54025 0.0
H1097 H 0.98756 0.3781 0.51959 0.0
H1098 H 0.01168 0.34365 0.49047 0.0
H1099 H 0.0033 0.33055 0.48235 0.0
H1100 H 0.01012 0.32799 0.49829 0.0
H1101 H 0.98768 0.32064 0.50704 0.0
H1102 H 0.98072 0.32294 0.49112 0.0
H1103 H 0.97373 0.33113 0.50499 0.0
H1104 H 0.97815 0.38164 0.49703 0.0
H1105 H 0.96967 0.38043 0.47448 0.0
H1106 H 0.98091 0.33979 0.47267 0.0
C1107 C 0.00021 0.34227 0.52214 0.0
C1108 C 0.00097 0.35056 0.53308 0.0
C1109 C 0.99652 0.36359 0.532 0.0
C1110 C 0.99107 0.36819 0.52033 0.0
C1111 C 0.99015 0.35962 0.50984 0.0
C1112 C 0.99456 0.34692 0.51067 0.0
C1113 C 0.99216 0.33954 0.49815 0.0
C1114 C 0.00509 0.33518 0.49195 0.0
C1115 C 0.98303 0.32788 0.50047 0.0
C1116 C 0.98563 0.35006 0.49015 0.0
C1117 C 0.98467 0.36161 0.49699 0.0
C1118 C 0.97892 0.37266 0.49156 0.0
C1119 C 0.9741 0.37187 0.47878 0.0
C1120 C 0.97504 0.36012 0.4716 0.0
C1121 C 0.9807 0.34908 0.47751 0.0
H1122 H 0.67279 0.0029 0.53897 0.0
H1123 H 0.65827 0.04242 0.5354 0.0
H1124 H 0.65536 0.03913 0.51169 0.0
H1125 H 0.69135 0.00262 0.50861 0.0
H1126 H 0.68745 0.98582 0.50552 0.0
H1127 H 0.68844 0.99161 0.52202 0.0
H1128 H 0.66501 0.98293 0.52603 0.0
H1129 H 0.66407 0.97742 0.5094 0.0
H1130 H 0.65192 0.98843 0.51569 0.0
H1131 H 0.65348 0.0312 0.48848 0.0
H1132 H 0.65316 0.01935 0.46746 0.0
H1133 H 0.67031 0.9856 0.4862 0.0
C1134 C 0.66943 0.01103 0.53317 0.0
C1135 C 0.66615 0.02306 0.53896 0.0
C1136 C 0.66096 0.03316 0.53112 0.0
C1137 C 0.65931 0.03139 0.51766 0.0
C1138 C 0.66291 0.01948 0.51222 0.0
C1139 C 0.66789 0.00948 0.51974 0.0
C1140 C 0.67081 0.99755 0.51158 0.0
C1141 C 0.68539 0.99422 0.51197 0.0
C1142 C 0.66245 0.9859 0.51594 0.0
C1143 C 0.66677 0.0024 0.49827 0.0
C1144 C 0.66213 0.01504 0.49885 0.0
C1145 C 0.65724 0.02136 0.48788 0.0
C1146 C 0.65709 0.01458 0.47602 0.0
C1147 C 0.66198 0.00171 0.47521 0.0
C1148 C 0.66691 0.99559 0.48648 0.0
H1149 H 0.36596 0.9732 0.49744 0.0
H1150 H 0.34137 0.98975 0.52754 0.0
H1151 H 0.33172 0.00483 0.51141 0.0
H1152 H 0.37225 0.00328 0.4802 0.0
H1153 H 0.37176 0.99572 0.46435 0.0
H1154 H 0.37686 0.98643 0.47834 0.0
H1155 H 0.35909 0.96916 0.47346 0.0
H1156 H 0.35399 0.97836 0.45943 0.0
H1157 H 0.34234 0.97423 0.4719 0.0
H1158 H 0.32488 0.0182 0.49187 0.0
H1159 H 0.32066 0.02801 0.47028 0.0
H1160 H 0.34934 0.00219 0.45302 0.0
C1161 C 0.35856 0.98003 0.50061 0.0
C1162 C 0.35419 0.98017 0.51364 0.0
C1163 C 0.34454 0.98923 0.51749 0.0
C1164 C 0.33913 0.99793 0.50844 0.0
C1165 C 0.34355 0.99745 0.49562 0.0
C1166 C 0.35302 0.98871 0.4917 0.0
C1167 C 0.35582 0.98992 0.47729 0.0
C1168 C 0.37002 0.99409 0.47491 0.0
C1169 C 0.35261 0.97716 0.4701 0.0
C1170 C 0.3464 0.00066 0.47369 0.0
C1171 C 0.33947 0.00496 0.48439 0.0
C1172 C 0.33015 0.0148 0.48339 0.0
C1173 C 0.32769 0.0202 0.47107 0.0
C1174 C 0.33439 0.0156 0.45993 0.0
C1175 C 0.34403 0.0059 0.46136 0.0
H1176 H 0.02825 0.48988 0.21897 0.0
H1177 H 0.98962 0.4741 0.2124 0.0
H1178 H 0.98672 0.47141 0.23613 0.0
H1179 H 0.03736 0.46778 0.24095 0.0
H1180 H 0.04679 0.47837 0.2513 0.0
H1181 H 0.04461 0.48239 0.23443 0.0
H1182 H 0.03478 0.50491 0.24065 0.0
H1183 H 0.03745 0.501 0.25758 0.0
H1184 H 0.02145 0.50557 0.25205 0.0
H1185 H 0.98981 0.46623 0.25976 0.0
H1186 H 0.99837 0.45965 0.28128 0.0
H1187 H 0.03511 0.47852 0.27231 0.0
C1188 C 0.01898 0.48633 0.22255 0.0
C1189 C 0.00917 0.48217 0.21386 0.0
C1190 C 0.99729 0.47731 0.2189 0.0
C1191 C 0.99553 0.47582 0.23237 0.0
C1192 C 0.00571 0.47931 0.24066 0.0
C1193 C 0.01715 0.48465 0.23593 0.0
C1194 C 0.02731 0.48582 0.24655 0.0
C1195 C 0.03974 0.47813 0.2431 0.0
C1196 C 0.03044 0.50018 0.24937 0.0
C1197 C 0.02008 0.47965 0.2578 0.0
C1198 C 0.00754 0.47621 0.25431 0.0
C1199 C 0.9995 0.46916 0.2627 0.0
C1200 C 0.00447 0.4654 0.27488 0.0
C1201 C 0.01741 0.46857 0.27848 0.0
C1202 C 0.02514 0.47606 0.26991 0.0
H1203 H 0.53097 0.03967 0.27994 0.0
H1204 H 0.55507 0.00715 0.29224 0.0
H1205 H 0.55792 0.00064 0.26922 0.0
H1206 H 0.51477 0.02319 0.25342 0.0
H1207 H 0.51468 0.03739 0.2431 0.0
H1208 H 0.5143 0.03924 0.26055 0.0
H1209 H 0.53485 0.05389 0.2595 0.0
H1210 H 0.53529 0.05209 0.24206 0.0
H1211 H 0.54936 0.04784 0.25167 0.0
H1212 H 0.55843 0.99797 0.24474 0.0
H1213 H 0.55671 0.99946 0.22077 0.0
H1214 H 0.53235 0.03383 0.22475 0.0
C1215 C 0.5368 0.03114 0.27783 0.0
C1216 C 0.54278 0.02391 0.2879 0.0
C1217 C 0.55039 0.01284 0.28469 0.0
C1218 C 0.55205 0.00906 0.27165 0.0
C1219 C 0.54605 0.01644 0.26196 0.0
C1220 C 0.53858 0.02725 0.26491 0.0
C1221 C 0.53337 0.03369 0.25271 0.0
C1222 C 0.51839 0.03335 0.25243 0.0
C1223 C 0.53853 0.04771 0.25141 0.0
C1224 C 0.53913 0.02486 0.24241 0.0
C1225 C 0.54638 0.01495 0.24793 0.0
C1226 C 0.55275 0.00568 0.24032 0.0
C1227 C 0.55172 0.00661 0.22671 0.0
C1228 C 0.5444 0.01676 0.22087 0.0
C1229 C 0.538 0.02594 0.22889 0.0
H1230 H 0.96964 0.50951 0.22395 0.0
H1231 H 0.00745 0.52434 0.21229 0.0
H1232 H 0.01412 0.52538 0.23536 0.0
H1233 H 0.96485 0.52973 0.24899 0.0
H1234 H 0.95706 0.51837 0.25989 0.0
H1235 H 0.95624 0.51581 0.2426 0.0
H1236 H 0.96647 0.49274 0.24509 0.0
H1237 H 0.96674 0.49517 0.2625 0.0
H1238 H 0.98149 0.49094 0.25401 0.0
H1239 H 0.01489 0.52922 0.25952 0.0
H1240 H 0.01044 0.53352 0.28279 0.0
H1241 H 0.97224 0.51588 0.27862 0.0
C1242 C 0.97948 0.51257 0.22621 0.0
C1243 C 0.98797 0.51697 0.21632 0.0
C1244 C 0.00074 0.52098 0.21969 0.0
C1245 C 0.00463 0.52157 0.23279 0.0
C1246 C 0.99573 0.51789 0.24236 0.0
C1247 C 0.98351 0.51318 0.23921 0.0
C1248 C 0.97525 0.51117 0.25126 0.0
C1249 C 0.96262 0.51926 0.25064 0.0
C1250 C 0.97231 0.49664 0.25333 0.0
C1251 C 0.98443 0.51626 0.26161 0.0
C1252 C 0.99627 0.5199 0.25634 0.0
C1253 C 0.00579 0.52607 0.26382 0.0
C1254 C 0.00314 0.52856 0.27701 0.0
C1255 C 0.99101 0.52499 0.28254 0.0
C1256 C 0.98168 0.51857 0.27474 0.0
H1257 H 0.46155 0.96289 0.22943 0.0
H1258 H 0.43982 0.92721 0.22268 0.0
H1259 H 0.43715 0.92438 0.24639 0.0
H1260 H 0.47863 0.95191 0.25798 0.0
H1261 H 0.47779 0.96747 0.26608 0.0
H1262 H 0.47798 0.96672 0.24856 0.0
H1263 H 0.4565 0.97996 0.24771 0.0
H1264 H 0.45622 0.98073 0.26524 0.0
H1265 H 0.44245 0.97419 0.25654 0.0
H1266 H 0.43684 0.92537 0.27075 0.0
H1267 H 0.43906 0.93004 0.29421 0.0
H1268 H 0.46092 0.96511 0.28513 0.0
C1269 C 0.45624 0.95447 0.23293 0.0
C1270 C 0.4509 0.94526 0.22419 0.0
C1271 C 0.44401 0.93439 0.22918 0.0
C1272 C 0.44243 0.9327 0.24263 0.0
C1273 C 0.44779 0.94196 0.25096 0.0
C1274 C 0.45456 0.95263 0.24633 0.0
C1275 C 0.45936 0.96114 0.25739 0.0
C1276 C 0.47433 0.96184 0.25751 0.0
C1277 C 0.45326 0.97481 0.25667 0.0
C1278 C 0.45424 0.95357 0.26896 0.0
C1279 C 0.44758 0.94255 0.26503 0.0
C1280 C 0.44202 0.93398 0.27395 0.0
C1281 C 0.44334 0.93672 0.28726 0.0
C1282 C 0.45016 0.94794 0.29152 0.0
C1283 C 0.45563 0.95647 0.2822 0.0
H1284 H 0.03184 0.57445 0.72298 0.0
H1285 H 0.07019 0.55923 0.71373 0.0
H1286 H 0.07187 0.55009 0.73591 0.0
H1287 H 0.03821 0.58157 0.75824 0.0
H1288 H 0.02204 0.57646 0.76279 0.0
H1289 H 0.02485 0.58373 0.74705 0.0
H1290 H 0.01453 0.56354 0.73594 0.0
H1291 H 0.0118 0.55617 0.75158 0.0
H1292 H 0.02102 0.54758 0.73935 0.0
H1293 H 0.06807 0.53999 0.75786 0.0
H1294 H 0.05925 0.5301 0.77795 0.0
H1295 H 0.02335 0.55185 0.77277 0.0
C1296 C 0.04077 0.56956 0.72573 0.0
C1297 C 0.05091 0.56762 0.71663 0.0
C1298 C 0.06231 0.5609 0.72055 0.0
C1299 C 0.06337 0.55569 0.73315 0.0
C1300 C 0.05298 0.55736 0.74173 0.0
C1301 C 0.04195 0.56425 0.73823 0.0
C1302 C 0.03164 0.56357 0.74876 0.0
C1303 C 0.02904 0.57714 0.75455 0.0
C1304 C 0.01901 0.55734 0.74359 0.0
C1305 C 0.03839 0.55481 0.75851 0.0
C1306 C 0.05077 0.55148 0.75438 0.0
C1307 C 0.05849 0.54271 0.76131 0.0
C1308 C 0.05337 0.53711 0.77269 0.0
C1309 C 0.04063 0.54023 0.77697 0.0
C1310 C 0.03318 0.54938 0.76986 0.0
H1311 H 0.47623 0.02773 0.71439 0.0
H1312 H 0.45822 0.98985 0.70914 0.0
H1313 H 0.46206 0.98489 0.73242 0.0
H1314 H 0.50069 0.01766 0.73905 0.0
H1315 H 0.499 0.03264 0.74804 0.0
H1316 H 0.4967 0.03251 0.73062 0.0
H1317 H 0.47377 0.0426 0.73324 0.0
H1318 H 0.47592 0.04301 0.7506 0.0
H1319 H 0.46204 0.03475 0.7437 0.0
H1320 H 0.46565 0.98519 0.75682 0.0
H1321 H 0.46782 0.99103 0.78008 0.0
H1322 H 0.48293 0.02893 0.76904 0.0
C1323 C 0.47334 0.01826 0.71803 0.0
C1324 C 0.4669 0.00918 0.70995 0.0
C1325 C 0.46316 0.99696 0.71516 0.0
C1326 C 0.46535 0.99404 0.72835 0.0
C1327 C 0.47141 0.00339 0.73614 0.0
C1328 C 0.47541 0.01522 0.73112 0.0
C1329 C 0.4805 0.02413 0.74168 0.0
C1330 C 0.49509 0.0269 0.73973 0.0
C1331 C 0.47258 0.03686 0.74234 0.0
C1332 C 0.47821 0.01571 0.75353 0.0
C1333 C 0.47323 0.00366 0.75015 0.0
C1334 C 0.46964 0.99455 0.75956 0.0
C1335 C 0.47091 0.99796 0.77275 0.0
C1336 C 0.47546 0.01047 0.77638 0.0
C1337 C 0.47942 0.01929 0.7666 0.0
H1338 H 0.96632 0.43534 0.78948 0.0
H1339 H 0.93152 0.45941 0.78943 0.0
H1340 H 0.9329 0.46128 0.76549 0.0
H1341 H 0.98323 0.45285 0.76476 0.0
H1342 H 0.99047 0.43855 0.75759 0.0
H1343 H 0.98642 0.4387 0.77465 0.0
H1344 H 0.97236 0.41795 0.7715 0.0
H1345 H 0.97632 0.41778 0.7544 0.0
H1346 H 0.95952 0.41796 0.75951 0.0
H1347 H 0.93836 0.46101 0.74167 0.0
H1348 H 0.94797 0.45926 0.71971 0.0
H1349 H 0.9792 0.43535 0.73533 0.0
C1350 C 0.95895 0.44096 0.78444 0.0
C1351 C 0.94879 0.4472 0.79133 0.0
C1352 C 0.93938 0.45453 0.78436 0.0
C1353 C 0.94006 0.45562 0.77077 0.0
C1354 C 0.95018 0.44932 0.76428 0.0
C1355 C 0.95948 0.44216 0.77088 0.0
C1356 C 0.96959 0.43669 0.76165 0.0
C1357 C 0.98323 0.44202 0.76485 0.0
C1358 C 0.96943 0.42171 0.76177 0.0
C1359 C 0.9646 0.44199 0.74882 0.0
C1360 C 0.95335 0.44919 0.75055 0.0
C1361 C 0.94714 0.45535 0.74019 0.0
C1362 C 0.95267 0.45429 0.72775 0.0
C1363 C 0.96433 0.44715 0.72579 0.0
C1364 C 0.97024 0.44079 0.73647 0.0
H1365 H 0.52208 0.98731 0.78718 0.0
H1366 H 0.49056 0.9592 0.78834 0.0
H1367 H 0.48489 0.96466 0.76559 0.0
H1368 H 0.5063 0.01115 0.7641 0.0
H1369 H 0.5215 0.01423 0.75588 0.0
H1370 H 0.52138 0.01039 0.77302 0.0
H1371 H 0.53727 0.99123 0.76909 0.0
H1372 H 0.53763 0.99501 0.75201 0.0
H1373 H 0.53312 0.97888 0.75731 0.0
H1374 H 0.48483 0.97052 0.74203 0.0
H1375 H 0.49105 0.97536 0.71935 0.0
H1376 H 0.52316 0.99907 0.7333 0.0
C1377 C 0.5137 0.98263 0.78279 0.0
C1378 C 0.5067 0.9729 0.78952 0.0
C1379 C 0.49604 0.96671 0.78334 0.0
C1380 C 0.4927 0.96981 0.77046 0.0
C1381 C 0.5001 0.97912 0.76391 0.0
C1382 C 0.51037 0.98548 0.76989 0.0
C1383 C 0.51794 0.99367 0.76024 0.0
C1384 C 0.5167 0.00823 0.7635 0.0
C1385 C 0.53233 0.98943 0.75963 0.0
C1386 C 0.51078 0.99037 0.74778 0.0
C1387 C 0.5003 0.98226 0.75016 0.0
C1388 C 0.4929 0.977 0.74006 0.0
C1389 C 0.49653 0.9798 0.72719 0.0
C1390 C 0.50764 0.98754 0.72454 0.0
C1391 C 0.51456 0.9932 0.735 0.0
H1392 H 0.25998 0.02282 0.46963 0.0
H1393 H 0.2773 0.04965 0.49735 0.0
H1394 H 0.25533 0.05573 0.50511 0.0
H1395 H 0.23462 0.0426 0.4602 0.0
H1396 H 0.22275 0.02976 0.45855 0.0
H1397 H 0.23978 0.02621 0.45654 0.0
H1398 H 0.23833 0.00849 0.47449 0.0
H1399 H 0.22124 0.01196 0.47653 0.0
H1400 H 0.23206 0.01271 0.49034 0.0
H1401 H 0.23132 0.06067 0.50803 0.0
H1402 H 0.20754 0.06398 0.50577 0.0
H1403 H 0.20632 0.03378 0.47618 0.0
C1404 C 0.2592 0.02978 0.47752 0.0
C1405 C 0.27037 0.03575 0.48288 0.0
C1406 C 0.26889 0.0449 0.49312 0.0
C1407 C 0.25644 0.0484 0.49761 0.0
C1408 C 0.24561 0.04255 0.49187 0.0
C1409 C 0.2469 0.03335 0.48212 0.0
C1410 C 0.23378 0.0292 0.47685 0.0
C1411 C 0.23268 0.03213 0.46217 0.0
C1412 C 0.2312 0.01473 0.47973 0.0
C1413 C 0.22492 0.03789 0.48478 0.0
C1414 C 0.23186 0.04539 0.49354 0.0
C1415 C 0.22576 0.05471 0.50133 0.0
C1416 C 0.21226 0.05653 0.49998 0.0
C1417 C 0.20506 0.04914 0.49081 0.0
C1418 C 0.2115 0.03955 0.48334 0.0
H1419 H 0.96482 0.24179 0.48808 0.0
H1420 H 0.00481 0.22881 0.48359 0.0
H1421 H 0.01161 0.25157 0.47946 0.0
H1422 H 0.96561 0.26338 0.46224 0.0
H1423 H 0.95503 0.27529 0.46963 0.0
H1424 H 0.95367 0.25842 0.47413 0.0
H1425 H 0.95721 0.26439 0.49847 0.0
H1426 H 0.95827 0.28132 0.49393 0.0
H1427 H 0.97125 0.27385 0.50303 0.0
H1428 H 0.01365 0.27559 0.47402 0.0
H1429 H 0.01047 0.29834 0.46661 0.0
H1430 H 0.96904 0.29492 0.47438 0.0
C1431 C 0.97508 0.24372 0.48655 0.0
C1432 C 0.98429 0.23352 0.48622 0.0
C1433 C 0.99758 0.23648 0.48393 0.0
C1434 C 0.00155 0.24938 0.48168 0.0
C1435 C 0.99214 0.25918 0.48184 0.0
C1436 C 0.97916 0.25646 0.48422 0.0
C1437 C 0.97069 0.26836 0.48242 0.0
C1438 C 0.96067 0.26623 0.47145 0.0
C1439 C 0.96396 0.2722 0.49523 0.0
C1440 C 0.98089 0.27822 0.47853 0.0
C1441 C 0.99322 0.27283 0.47836 0.0
C1442 C 0.00405 0.27995 0.47425 0.0
C1443 C 0.00214 0.29284 0.47003 0.0
C1444 C 0.9895 0.29839 0.46988 0.0
C1445 C 0.97884 0.291 0.47442 0.0
H1446 H 0.73335 0.98161 0.47199 0.0
H1447 H 0.72106 0.96571 0.50919 0.0
H1448 H 0.74403 0.96115 0.51478 0.0
H1449 H 0.75705 0.95756 0.46626 0.0
H1450 H 0.76833 0.9683 0.45815 0.0
H1451 H 0.75114 0.9717 0.45768 0.0
H1452 H 0.75525 0.99471 0.46739 0.0
H1453 H 0.77247 0.99131 0.46758 0.0
H1454 H 0.76437 0.9962 0.4823 0.0
H1455 H 0.7683 0.95755 0.51594 0.0
H1456 H 0.7917 0.9536 0.51184 0.0
H1457 H 0.7878 0.97114 0.47354 0.0
C1458 C 0.7355 0.97744 0.48144 0.0
C1459 C 0.72543 0.9741 0.4902 0.0
C1460 C 0.72863 0.96836 0.50233 0.0
C1461 C 0.74164 0.96577 0.50561 0.0
C1462 C 0.75134 0.96908 0.4967 0.0
C1463 C 0.74841 0.97473 0.48483 0.0
C1464 C 0.76045 0.97608 0.47642 0.0
C1465 C 0.75916 0.96792 0.46389 0.0
C1466 C 0.76329 0.99043 0.47324 0.0
C1467 C 0.77062 0.97043 0.48546 0.0
C1468 C 0.76521 0.96653 0.49715 0.0
C1469 C 0.77265 0.9606 0.50684 0.0
C1470 C 0.78594 0.95841 0.50442 0.0
C1471 C 0.79158 0.96201 0.49236 0.0
C1472 C 0.78381 0.96828 0.48288 0.0
H1473 H 0.01606 0.77047 0.4819 0.0
H1474 H 0.99262 0.78822 0.45151 0.0
H1475 H 0.98724 0.76637 0.44297 0.0
H1476 H 0.03021 0.74682 0.46293 0.0
H1477 H 0.0301 0.73419 0.47513 0.0
H1478 H 0.03053 0.751 0.47999 0.0
H1479 H 0.00965 0.74773 0.49393 0.0
H1480 H 0.00936 0.73081 0.48924 0.0
H1481 H 0.99529 0.74093 0.48645 0.0
H1482 H 0.98656 0.74273 0.43626 0.0
H1483 H 0.99045 0.71932 0.43212 0.0
H1484 H 0.01432 0.71726 0.46698 0.0
C1485 C 0.00957 0.76978 0.47361 0.0
C1486 C 0.00476 0.78106 0.46737 0.0
C1487 C 0.99638 0.77972 0.45649 0.0
C1488 C 0.99325 0.76734 0.45157 0.0
C1489 C 0.99846 0.75642 0.45775 0.0
C1490 C 0.00633 0.75753 0.46863 0.0
C1491 C 0.01146 0.74439 0.47293 0.0
C1492 C 0.02646 0.74409 0.47272 0.0
C1493 C 0.00612 0.74076 0.48644 0.0
C1494 C 0.00573 0.73578 0.46243 0.0
C1495 C 0.99808 0.74284 0.45389 0.0
C1496 C 0.99237 0.73707 0.443 0.0
C1497 C 0.99466 0.72377 0.44071 0.0
C1498 C 0.00268 0.71644 0.44923 0.0
C1499 C 0.00808 0.72255 0.46032 0.0
H1500 H 0.22649 0.95234 0.54335 0.0
H1501 H 0.2204 0.97335 0.50714 0.0
H1502 H 0.24416 0.97666 0.50513 0.0
H1503 H 0.25228 0.97224 0.55546 0.0
H1504 H 0.26118 0.95885 0.56252 0.0
H1505 H 0.24373 0.95793 0.56097 0.0
H1506 H 0.24593 0.93639 0.54797 0.0
H1507 H 0.26339 0.93721 0.54953 0.0
H1508 H 0.25605 0.93596 0.53362 0.0
H1509 H 0.26856 0.97809 0.50737 0.0
H1510 H 0.29184 0.97696 0.51333 0.0
H1511 H 0.28183 0.95486 0.54799 0.0
C1512 C 0.23013 0.9576 0.53496 0.0
C1513 C 0.22158 0.96259 0.5254 0.0
C1514 C 0.22677 0.96941 0.51458 0.0
C1515 C 0.24024 0.97136 0.51336 0.0
C1516 C 0.24838 0.96638 0.52302 0.0
C1517 C 0.24353 0.95959 0.53358 0.0
C1518 C 0.25434 0.95527 0.54263 0.0
C1519 C 0.25279 0.96145 0.5562 0.0
C1520 C 0.25496 0.94032 0.54348 0.0
C1521 C 0.26605 0.96074 0.53554 0.0
C1522 C 0.26241 0.96713 0.52426 0.0
C1523 C 0.27153 0.97307 0.51616 0.0
C1524 C 0.28472 0.97239 0.51964 0.0
C1525 C 0.28867 0.9658 0.53112 0.0
C1526 C 0.27915 0.95994 0.53915 0.0
H1527 H 0.0371 0.22207 0.51461 0.0
H1528 H 0.99787 0.20633 0.51621 0.0
H1529 H 0.98896 0.22868 0.51641 0.0
H1530 H 0.0316 0.24778 0.5364 0.0
H1531 H 0.04201 0.2592 0.52805 0.0
H1532 H 0.04516 0.242 0.52685 0.0
H1533 H 0.04418 0.24361 0.50173 0.0
H1534 H 0.04082 0.26081 0.50278 0.0
H1535 H 0.02991 0.25024 0.494 0.0
H1536 H 0.98443 0.25272 0.51817 0.0
H1537 H 0.98476 0.27646 0.52221 0.0
H1538 H 0.02688 0.27639 0.51871 0.0
C1539 C 0.02662 0.22329 0.51478 0.0
C1540 C 0.01818 0.21244 0.51537 0.0
C1541 C 0.00454 0.21449 0.51573 0.0
C1542 C 0.99938 0.22715 0.51582 0.0
C1543 C 0.00798 0.23764 0.51534 0.0
C1544 C 0.02131 0.23584 0.51479 0.0
C1545 C 0.02849 0.2487 0.51526 0.0
C1546 C 0.03733 0.24946 0.52736 0.0
C1547 C 0.03631 0.25097 0.50269 0.0
C1548 C 0.01712 0.25803 0.51631 0.0
C1549 C 0.00536 0.25148 0.51627 0.0
C1550 C 0.99357 0.25797 0.51808 0.0
C1551 C 0.99385 0.27145 0.52032 0.0
C1552 C 0.00582 0.27831 0.52064 0.0
C1553 C 0.01755 0.27149 0.51833 0.0
H1554 H 0.77606 0.03061 0.49417 0.0
H1555 H 0.79553 0.9967 0.51027 0.0
H1556 H 0.77428 0.98768 0.51686 0.0
H1557 H 0.75441 0.03504 0.51822 0.0
H1558 H 0.74072 0.03977 0.50829 0.0
H1559 H 0.757 0.04234 0.50244 0.0
H1560 H 0.75203 0.02876 0.48158 0.0
H1561 H 0.73556 0.02667 0.48735 0.0
H1562 H 0.74525 0.01264 0.48325 0.0
H1563 H 0.75178 0.98467 0.52563 0.0
H1564 H 0.7294 0.98691 0.53415 0.0
H1565 H 0.72445 0.0223 0.51156 0.0
C1566 C 0.77583 0.02107 0.49867 0.0
C1567 C 0.78746 0.01442 0.50179 0.0
C1568 C 0.78675 0.00199 0.50777 0.0
C1569 C 0.77471 0.99676 0.51153 0.0
C1570 C 0.76346 0.0039 0.50892 0.0
C1571 C 0.76389 0.01565 0.50234 0.0
C1572 C 0.75056 0.02195 0.50174 0.0
C1573 C 0.75069 0.03557 0.50805 0.0
C1574 C 0.74557 0.02253 0.48764 0.0
C1575 C 0.74276 0.01234 0.50972 0.0
C1576 C 0.75031 0.00189 0.51361 0.0
C1577 C 0.74564 0.99257 0.5223 0.0
C1578 C 0.73294 0.99397 0.52715 0.0
C1579 C 0.72515 0.00475 0.52347 0.0
C1580 C 0.73006 0.01383 0.51439 0.0
H1581 H 0.95955 0.7735 0.51812 0.0
H1582 H 0.99346 0.78943 0.53774 0.0
H1583 H 0.00223 0.76722 0.54055 0.0
H1584 H 0.95517 0.74717 0.53835 0.0
H1585 H 0.95024 0.73588 0.52584 0.0
H1586 H 0.94755 0.75304 0.52365 0.0
H1587 H 0.9604 0.7524 0.50195 0.0
H1588 H 0.96318 0.73518 0.50401 0.0
H1589 H 0.97677 0.74607 0.50175 0.0
H1590 H 0.00593 0.74321 0.54366 0.0
H1591 H 0.00448 0.71933 0.54633 0.0
H1592 H 0.96825 0.71919 0.5245 0.0
C1593 C 0.96897 0.77236 0.52274 0.0
C1594 C 0.97581 0.78321 0.52772 0.0
C1595 C 0.98804 0.78127 0.53384 0.0
C1596 C 0.99312 0.76869 0.53545 0.0
C1597 C 0.98594 0.75817 0.53077 0.0
C1598 C 0.97418 0.75988 0.52441 0.0
C1599 C 0.9679 0.74695 0.52117 0.0
C1600 C 0.95442 0.74569 0.52764 0.0
C1601 C 0.96701 0.74504 0.50634 0.0
C1602 C 0.97767 0.73769 0.52717 0.0
C1603 C 0.9881 0.74433 0.5325 0.0
C1604 C 0.99792 0.73789 0.53933 0.0
C1605 C 0.99699 0.72433 0.54084 0.0
C1606 C 0.98627 0.71739 0.5356 0.0
C1607 C 0.97663 0.72419 0.52852 0.0
H1608 H 0.46092 0.22558 0.03661 0.0
H1609 H 0.42235 0.21591 0.02219 0.0
H1610 H 0.41942 0.23865 0.01488 0.0
H1611 H 0.45311 0.25836 0.04795 0.0
H1612 H 0.46863 0.26488 0.04297 0.0
H1613 H 0.46732 0.24804 0.04778 0.0
H1614 H 0.47724 0.24091 0.02567 0.0
H1615 H 0.47858 0.25769 0.0208 0.0
H1616 H 0.46977 0.24633 0.01072 0.0
H1617 H 0.42121 0.26222 0.00812 0.0
H1618 H 0.42769 0.28465 0.00223 0.0
H1619 H 0.46504 0.2787 0.02119 0.0
C1620 C 0.4518 0.22825 0.03204 0.0
C1621 C 0.44185 0.21897 0.03 0.0
C1622 C 0.4301 0.22286 0.02388 0.0
C1623 C 0.42834 0.23576 0.01971 0.0
C1624 C 0.43839 0.24464 0.02179 0.0
C1625 C 0.44988 0.24106 0.02783 0.0
C1626 C 0.45938 0.25231 0.02843 0.0
C1627 C 0.46227 0.25612 0.04263 0.0
C1628 C 0.47198 0.24912 0.02096 0.0
C1629 C 0.45153 0.26273 0.02158 0.0
C1630 C 0.43941 0.25817 0.0179 0.0
C1631 C 0.43063 0.26593 0.01104 0.0
C1632 C 0.4344 0.27865 0.00773 0.0
C1633 C 0.44686 0.28345 0.01127 0.0
C1634 C 0.45542 0.27538 0.01841 0.0
H1635 H 0.48408 0.77691 0.94771 0.0
H1636 H 0.45231 0.78982 0.97249 0.0
H1637 H 0.44297 0.76766 0.97198 0.0
H1638 H 0.46493 0.7539 0.9279 0.0
H1639 H 0.47813 0.74234 0.92702 0.0
H1640 H 0.48157 0.7595 0.92833 0.0
H1641 H 0.49565 0.75507 0.94883 0.0
H1642 H 0.49217 0.73793 0.94765 0.0
H1643 H 0.48856 0.7466 0.96248 0.0
H1644 H 0.43812 0.7437 0.97027 0.0
H1645 H 0.43775 0.71988 0.96692 0.0
H1646 H 0.47271 0.72273 0.94327 0.0
C1647 C 0.47502 0.77516 0.95283 0.0
C1648 C 0.46891 0.78512 0.96012 0.0
C1649 C 0.45716 0.78236 0.96681 0.0
C1650 C 0.45177 0.7698 0.96658 0.0
C1651 C 0.45822 0.76014 0.95956 0.0
C1652 C 0.46953 0.7627 0.95272 0.0
C1653 C 0.47492 0.75046 0.94648 0.0
C1654 C 0.47488 0.75162 0.93155 0.0
C1655 C 0.48863 0.74733 0.95168 0.0
C1656 C 0.46502 0.74057 0.95111 0.0
C1657 C 0.45542 0.74635 0.95857 0.0
C1658 C 0.44551 0.73909 0.96433 0.0
C1659 C 0.4454 0.72556 0.9624 0.0
C1660 C 0.45518 0.71943 0.9548 0.0
C1661 C 0.46505 0.72711 0.94906 0.0
H1662 H 0.23135 0.45424 0.96509 0.0
H1663 H 0.24306 0.48183 0.93521 0.0
H1664 H 0.26613 0.47685 0.93971 0.0
H1665 H 0.25648 0.46194 0.98757 0.0
H1666 H 0.25869 0.44542 0.99309 0.0
H1667 H 0.24307 0.45061 0.98703 0.0
H1668 H 0.24338 0.43185 0.97012 0.0
H1669 H 0.25905 0.42663 0.9761 0.0
H1670 H 0.25696 0.43039 0.95908 0.0
H1671 H 0.28786 0.46956 0.94793 0.0
H1672 H 0.30687 0.46102 0.95987 0.0
H1673 H 0.28111 0.43815 0.98445 0.0
C1674 C 0.23876 0.45917 0.95942 0.0
C1675 C 0.23538 0.46841 0.94977 0.0
C1676 C 0.24539 0.47471 0.94265 0.0
C1677 C 0.25853 0.47192 0.9451 0.0
C1678 C 0.26151 0.46279 0.95468 0.0
C1679 C 0.25193 0.45652 0.96175 0.0
C1680 C 0.25779 0.4475 0.97186 0.0
C1681 C 0.25377 0.45162 0.9857 0.0
C1682 C 0.25407 0.43325 0.96912 0.0
C1683 C 0.27216 0.44983 0.96949 0.0
C1684 C 0.27409 0.4586 0.95946 0.0
C1685 C 0.28649 0.46263 0.95575 0.0
C1686 C 0.29723 0.45771 0.9626 0.0
C1687 C 0.29549 0.44889 0.97308 0.0
C1688 C 0.28278 0.44478 0.97641 0.0
H1689 H 0.5494 0.29301 0.96533 0.0
H1690 H 0.52302 0.30228 0.93358 0.0
H1691 H 0.51405 0.27998 0.93458 0.0
H1692 H 0.55663 0.2607 0.95513 0.0
H1693 H 0.55732 0.25418 0.97142 0.0
H1694 H 0.56122 0.27104 0.96857 0.0
H1695 H 0.54372 0.27797 0.98541 0.0
H1696 H 0.53974 0.26112 0.98829 0.0
H1697 H 0.52718 0.2724 0.98347 0.0
H1698 H 0.50831 0.25649 0.93873 0.0
H1699 H 0.50678 0.23336 0.94519 0.0
H1700 H 0.53706 0.23951 0.97409 0.0
C1701 C 0.54168 0.29039 0.95863 0.0
C1702 C 0.53691 0.2994 0.94938 0.0
C1703 C 0.52686 0.29554 0.94073 0.0
C1704 C 0.52167 0.28291 0.94125 0.0
C1705 C 0.52662 0.27426 0.95047 0.0
C1706 C 0.53643 0.27783 0.95898 0.0
C1707 C 0.54035 0.26658 0.96768 0.0
C1708 C 0.55473 0.26291 0.96556 0.0
C1709 C 0.53758 0.26971 0.98206 0.0
C1710 C 0.53131 0.25608 0.96264 0.0
C1711 C 0.5234 0.26073 0.95278 0.0
C1712 C 0.51442 0.25275 0.94646 0.0
C1713 C 0.51362 0.23963 0.95021 0.0
C1714 C 0.5218 0.23461 0.96014 0.0
C1715 C 0.53065 0.24303 0.96649 0.0
H1716 H 0.77443 0.5534 0.96999 0.0
H1717 H 0.77651 0.51271 0.95853 0.0
H1718 H 0.7552 0.50874 0.96899 0.0
H1719 H 0.75938 0.54804 0.00132 0.0
H1720 H 0.74932 0.5624 0.00031 0.0
H1721 H 0.76483 0.56196 0.99212 0.0
H1722 H 0.7535 0.56762 0.97027 0.0
H1723 H 0.73795 0.56805 0.97837 0.0
H1724 H 0.74033 0.55752 0.96452 0.0
H1725 H 0.73349 0.50933 0.98023 0.0
H1726 H 0.71293 0.51438 0.99158 0.0
H1727 H 0.72515 0.55464 0.99591 0.0
C1728 C 0.77042 0.54364 0.96967 0.0
C1729 C 0.77711 0.53338 0.96339 0.0
C1730 C 0.77153 0.52075 0.96322 0.0
C1731 C 0.75945 0.51839 0.96915 0.0
C1732 C 0.75309 0.52876 0.97519 0.0
C1733 C 0.75838 0.54112 0.97551 0.0
C1734 C 0.74951 0.5506 0.98253 0.0
C1735 C 0.75616 0.55607 0.9948 0.0
C1736 C 0.74506 0.56159 0.97337 0.0
C1737 C 0.73834 0.54164 0.98602 0.0
C1738 C 0.74061 0.52908 0.98173 0.0
C1739 C 0.73162 0.51912 0.98367 0.0
C1740 C 0.71999 0.52208 0.99016 0.0
C1741 C 0.71747 0.53488 0.99471 0.0
C1742 C 0.7268 0.54476 0.99258 0.0
H1743 H 0.54331 0.73283 0.02011 0.0
H1744 H 0.50128 0.72946 0.02352 0.0
H1745 H 0.50031 0.75174 0.03268 0.0
H1746 H 0.54847 0.74998 0.04978 0.0
H1747 H 0.56128 0.76008 0.0433 0.0
H1748 H 0.55854 0.74408 0.03665 0.0
H1749 H 0.55593 0.75402 0.01358 0.0
H1750 H 0.55869 0.77006 0.02015 0.0
H1751 H 0.5441 0.76675 0.01095 0.0
H1752 H 0.50412 0.77441 0.04179 0.0
H1753 H 0.51238 0.79545 0.05014 0.0
H1754 H 0.55188 0.78351 0.04084 0.0
C1755 C 0.53387 0.73676 0.02271 0.0
C1756 C 0.52236 0.7294 0.02108 0.0
C1757 C 0.51023 0.73492 0.02467 0.0
C1758 C 0.50958 0.74757 0.02988 0.0
C1759 C 0.52115 0.75452 0.03142 0.0
C1760 C 0.53305 0.7493 0.02793 0.0
C1761 C 0.54409 0.75865 0.03073 0.0
C1762 C 0.55366 0.75285 0.04071 0.0
C1763 C 0.55111 0.7626 0.0181 0.0
C1764 C 0.53656 0.76995 0.03644 0.0
C1765 C 0.52333 0.76743 0.03672 0.0
C1766 C 0.51446 0.77648 0.04161 0.0
C1767 C 0.51924 0.78839 0.04634 0.0
C1768 C 0.53278 0.79111 0.04618 0.0
C1769 C 0.54149 0.78173 0.04114 0.0
H1770 H 0.28247 0.54069 0.06055 0.0
H1771 H 0.29235 0.57192 0.0338 0.0
H1772 H 0.26943 0.5728 0.02645 0.0
H1773 H 0.26097 0.52413 0.03983 0.0
H1774 H 0.24966 0.51957 0.05246 0.0
H1775 H 0.26657 0.52209 0.05635 0.0
H1776 H 0.26016 0.53919 0.0738 0.0
H1777 H 0.24321 0.53664 0.07005 0.0
H1778 H 0.25003 0.5528 0.06926 0.0
H1779 H 0.24579 0.56905 0.02086 0.0
H1780 H 0.22298 0.5618 0.01829 0.0
H1781 H 0.22871 0.5332 0.04893 0.0
C1782 C 0.27981 0.54785 0.05328 0.0
C1783 C 0.28921 0.55624 0.04775 0.0
C1784 C 0.28531 0.56543 0.03821 0.0
C1785 C 0.27232 0.56599 0.03396 0.0
C1786 C 0.26336 0.55736 0.03942 0.0
C1787 C 0.26692 0.54856 0.04897 0.0
C1788 C 0.25554 0.54009 0.05298 0.0
C1789 C 0.25836 0.52562 0.05024 0.0
C1790 C 0.25203 0.54232 0.06737 0.0
C1791 C 0.24508 0.54532 0.04403 0.0
C1792 C 0.24976 0.5553 0.0363 0.0
C1793 C 0.24198 0.56134 0.02695 0.0
C1794 C 0.22906 0.55711 0.02554 0.0
C1795 C 0.22405 0.54696 0.03344 0.0
C1796 C 0.23221 0.54104 0.0428 0.0
H1797 H 0.70369 0.4683 0.02155 0.0
H1798 H 0.70671 0.43635 0.994 0.0
H1799 H 0.72772 0.44513 0.98621 0.0
H1800 H 0.71941 0.4932 0.00052 0.0
H1801 H 0.72755 0.50081 0.01409 0.0
H1802 H 0.71195 0.49308 0.01641 0.0
H1803 H 0.72158 0.4784 0.03453 0.0
H1804 H 0.73716 0.48612 0.0325 0.0
H1805 H 0.7358 0.46867 0.03108 0.0
H1806 H 0.74957 0.45598 0.98326 0.0
H1807 H 0.77043 0.46774 0.98567 0.0
H1808 H 0.75292 0.49259 0.01508 0.0
C1809 C 0.70862 0.46327 0.0137 0.0
C1810 C 0.70353 0.45163 0.00838 0.0
C1811 C 0.71038 0.44531 0.99819 0.0
C1812 C 0.72231 0.45025 0.99368 0.0
C1813 C 0.72719 0.46158 0.99935 0.0
C1814 C 0.7205 0.46806 0.00908 0.0
C1815 C 0.72826 0.47949 0.01425 0.0
C1816 C 0.72138 0.49242 0.01114 0.0
C1817 C 0.73086 0.47807 0.02896 0.0
C1818 C 0.74064 0.47804 0.00638 0.0
C1819 C 0.73976 0.46782 0.99765 0.0
C1820 C 0.7503 0.46413 0.98992 0.0
C1821 C 0.76212 0.47086 0.99137 0.0
C1822 C 0.76333 0.48108 0.00057 0.0
C1823 C 0.75231 0.48488 0.00789 0.0
H1824 H 0.10856 0.5321 0.0758 0.0
H1825 H 0.1377 0.50438 0.06286 0.0
H1826 H 0.12908 0.48805 0.07839 0.0
H1827 H 0.11042 0.52297 0.11009 0.0
H1828 H 0.09327 0.52554 0.11283 0.0
H1829 H 0.10169 0.5349 0.10061 0.0
H1830 H 0.08507 0.52722 0.08322 0.0
H1831 H 0.07662 0.51782 0.09537 0.0
H1832 H 0.08248 0.51001 0.08077 0.0
H1833 H 0.11586 0.47421 0.09394 0.0
H1834 H 0.10081 0.46477 0.11032 0.0
H1835 H 0.08207 0.50237 0.11473 0.0
C1836 C 0.11312 0.52259 0.07628 0.0
C1837 C 0.12369 0.51939 0.06811 0.0
C1838 C 0.12958 0.50696 0.06909 0.0
C1839 C 0.12473 0.49764 0.07783 0.0
C1840 C 0.11422 0.50106 0.08572 0.0
C1841 C 0.10866 0.51332 0.08521 0.0
C1842 C 0.09773 0.51469 0.09501 0.0
C1843 C 0.10098 0.52514 0.10524 0.0
C1844 C 0.08471 0.5176 0.08818 0.0
C1845 C 0.09782 0.50119 0.10092 0.0
C1846 C 0.10728 0.49341 0.09533 0.0
C1847 C 0.10858 0.48027 0.09857 0.0
C1848 C 0.1 0.47499 0.10782 0.0
C1849 C 0.0905 0.48293 0.11387 0.0
C1850 C 0.08948 0.49619 0.11043 0.0
H1851 H 0.47657 0.11078 0.08958 0.0
H1852 H 0.47083 0.0869 0.05513 0.0
H1853 H 0.48859 0.07234 0.06229 0.0
H1854 H 0.51152 0.10803 0.0911 0.0
H1855 H 0.51202 0.1071 0.10863 0.0
H1856 H 0.49905 0.11586 0.10068 0.0
H1857 H 0.48194 0.10173 0.11272 0.0
H1858 H 0.49485 0.093 0.12078 0.0
H1859 H 0.48281 0.08422 0.11148 0.0
H1860 H 0.5071 0.06053 0.07303 0.0
H1861 H 0.52385 0.05121 0.08755 0.0
H1862 H 0.51707 0.08242 0.11531 0.0
C1863 C 0.47905 0.10249 0.08353 0.0
C1864 C 0.47235 0.09999 0.07178 0.0
C1865 C 0.47581 0.08899 0.06419 0.0
C1866 C 0.48593 0.0807 0.06814 0.0
C1867 C 0.49241 0.0835 0.07972 0.0
C1868 C 0.48904 0.09404 0.08738 0.0
C1869 C 0.49725 0.09462 0.09963 0.0
C1870 C 0.50545 0.10715 0.10002 0.0
C1871 C 0.4887 0.09331 0.11188 0.0
C1872 C 0.50574 0.08271 0.09768 0.0
C1873 C 0.50289 0.07652 0.08607 0.0
C1874 C 0.50941 0.06528 0.08216 0.0
C1875 C 0.51894 0.06009 0.09045 0.0
C1876 C 0.52177 0.06608 0.10257 0.0
C1877 C 0.51515 0.07762 0.10611 0.0
H1878 H 0.89017 0.54579 0.12482 0.0
H1879 H 0.90039 0.51074 0.14615 0.0
H1880 H 0.88342 0.49854 0.13418 0.0
H1881 H 0.85514 0.53972 0.1241 0.0
H1882 H 0.85327 0.54643 0.10798 0.0
H1883 H 0.86594 0.55242 0.11856 0.0
H1884 H 0.88319 0.54721 0.10087 0.0
H1885 H 0.87061 0.54116 0.09026 0.0
H1886 H 0.88426 0.53091 0.09439 0.0
H1887 H 0.86653 0.48983 0.11855 0.0
H1888 H 0.84983 0.48569 0.10165 0.0
H1889 H 0.84994 0.52675 0.09157 0.0
C1890 C 0.88877 0.53557 0.12705 0.0
C1891 C 0.8966 0.52919 0.13637 0.0
C1892 C 0.89445 0.51582 0.13906 0.0
C1893 C 0.88486 0.50881 0.1323 0.0
C1894 C 0.87741 0.51537 0.12304 0.0
C1895 C 0.87914 0.52849 0.12054 0.0
C1896 C 0.86991 0.53324 0.11008 0.0
C1897 C 0.86051 0.54356 0.11551 0.0
C1898 C 0.87745 0.53843 0.0982 0.0
C1899 C 0.86287 0.5207 0.10691 0.0
C1900 C 0.86736 0.51047 0.11443 0.0
C1901 C 0.8628 0.4978 0.11273 0.0
C1902 C 0.85336 0.49553 0.1031 0.0
C1903 C 0.84852 0.50592 0.09543 0.0
C1904 C 0.85331 0.51865 0.09745 0.0
H1905 H 0.48639 0.91746 0.13839 0.0
H1906 H 0.45592 0.89831 0.11634 0.0
H1907 H 0.47208 0.88258 0.10766 0.0
H1908 H 0.50944 0.91621 0.11311 0.0
H1909 H 0.52331 0.91395 0.12364 0.0
H1910 H 0.50912 0.92236 0.12957 0.0
H1911 H 0.50746 0.9061 0.14882 0.0
H1912 H 0.52167 0.89762 0.14293 0.0
H1913 H 0.50668 0.88886 0.14554 0.0
H1914 H 0.4917 0.8694 0.10104 0.0
H1915 H 0.51353 0.86154 0.09459 0.0
H1916 H 0.53138 0.89086 0.11923 0.0
C1917 C 0.48311 0.90975 0.13197 0.0
C1918 C 0.46994 0.90884 0.1282 0.0
C1919 C 0.46599 0.899 0.11941 0.0
C1920 C 0.47508 0.89003 0.11451 0.0
C1921 C 0.48806 0.89125 0.11832 0.0
C1922 C 0.49211 0.90099 0.1267 0.0
C1923 C 0.50679 0.90116 0.12807 0.0
C1924 C 0.51249 0.91419 0.12331 0.0
C1925 C 0.51089 0.89826 0.14218 0.0
C1926 C 0.51041 0.89007 0.11906 0.0
C1927 C 0.49945 0.88427 0.11378 0.0
C1928 C 0.50034 0.87386 0.10512 0.0
C1929 C 0.51277 0.86943 0.10155 0.0
C1930 C 0.5241 0.87562 0.10641 0.0
C1931 C 0.52287 0.88597 0.11538 0.0
H1932 H 0.07868 0.52592 0.8541 0.0
H1933 H 0.06818 0.48934 0.83568 0.0
H1934 H 0.08659 0.47849 0.84675 0.0
H1935 H 0.11364 0.5213 0.85154 0.0
H1936 H 0.11696 0.529 0.86697 0.0
H1937 H 0.10292 0.53383 0.85761 0.0
H1938 H 0.08804 0.52889 0.87741 0.0
H1939 H 0.10202 0.52397 0.8868 0.0
H1940 H 0.0885 0.51296 0.88478 0.0
H1941 H 0.10538 0.47139 0.86081 0.0
H1942 H 0.12459 0.469 0.87513 0.0
H1943 H 0.12361 0.51047 0.8833 0.0
C1944 C 0.08029 0.51564 0.85236 0.0
C1945 C 0.07199 0.50845 0.84408 0.0
C1946 C 0.07446 0.49504 0.84196 0.0
C1947 C 0.08485 0.48878 0.84824 0.0
C1948 C 0.09278 0.49612 0.85646 0.0
C1949 C 0.09074 0.50929 0.85838 0.0
C1950 C 0.10086 0.515 0.86747 0.0
C1951 C 0.10908 0.52539 0.86048 0.0
C1952 C 0.09447 0.52053 0.87985 0.0
C1953 C 0.10883 0.50295 0.87046 0.0
C1954 C 0.10392 0.49214 0.86412 0.0
C1955 C 0.10939 0.47981 0.86572 0.0
C1956 C 0.12025 0.47854 0.87391 0.0
C1957 C 0.12562 0.48956 0.88024 0.0
C1958 C 0.11979 0.5019 0.87848 0.0
H1959 H 0.51589 0.11225 0.92847 0.0
H1960 H 0.52851 0.14449 0.90423 0.0
H1961 H 0.51749 0.13449 0.88525 0.0
H1962 H 0.51869 0.08676 0.90431 0.0
H1963 H 0.5042 0.07845 0.90971 0.0
H1964 H 0.51369 0.0878 0.92112 0.0
H1965 H 0.49321 0.10129 0.92717 0.0
H1966 H 0.48366 0.092 0.91577 0.0
H1967 H 0.48423 0.1095 0.91449 0.0
H1968 H 0.50516 0.12077 0.86892 0.0
H1969 H 0.49126 0.10521 0.85684 0.0
H1970 H 0.48574 0.08277 0.89225 0.0
C1971 C 0.51646 0.11714 0.91914 0.0
C1972 C 0.52315 0.12907 0.91776 0.0
C1973 C 0.52345 0.13531 0.90546 0.0
C1974 C 0.51726 0.12969 0.89464 0.0
C1975 C 0.51069 0.11793 0.89635 0.0
C1976 C 0.51016 0.11179 0.90832 0.0
C1977 C 0.50193 0.09958 0.90774 0.0
C1978 C 0.51012 0.08743 0.91091 0.0
C1979 C 0.49005 0.10067 0.91683 0.0
C1980 C 0.4979 0.09979 0.89358 0.0
C1981 C 0.50316 0.11036 0.88712 0.0
C1982 C 0.50094 0.11248 0.87389 0.0
C1983 C 0.49306 0.10359 0.86711 0.0
C1984 C 0.48737 0.09285 0.87363 0.0
C1985 C 0.48987 0.09096 0.88703 0.0
H1986 H 0.87805 0.51987 0.89068 0.0
H1987 H 0.84507 0.50451 0.91218 0.0
H1988 H 0.85154 0.48213 0.90611 0.0
H1989 H 0.87655 0.49538 0.86389 0.0
H1990 H 0.89404 0.49483 0.8624 0.0
H1991 H 0.88612 0.50965 0.86752 0.0
H1992 H 0.90044 0.51007 0.88831 0.0
H1993 H 0.90832 0.49524 0.88332 0.0
H1994 H 0.9005 0.49615 0.89902 0.0
H1995 H 0.86365 0.46152 0.90076 0.0
H1996 H 0.87898 0.44413 0.89394 0.0
H1997 H 0.90266 0.47283 0.87402 0.0
C1998 C 0.87205 0.5118 0.89388 0.0
C1999 C 0.86108 0.51387 0.9019 0.0
C2000 C 0.85346 0.50311 0.90593 0.0
C2001 C 0.85708 0.49037 0.90257 0.0
C2002 C 0.86814 0.48862 0.8949 0.0
C2003 C 0.87534 0.49905 0.89034 0.0
C2004 C 0.88699 0.4945 0.88252 0.0
C2005 C 0.88585 0.49885 0.86823 0.0
C2006 C 0.89981 0.49927 0.88866 0.0
C2007 C 0.88549 0.47989 0.88382 0.0
C2008 C 0.8746 0.47668 0.89106 0.0
C2009 C 0.87199 0.46387 0.89475 0.0
C2010 C 0.88074 0.45408 0.89091 0.0
C2011 C 0.89175 0.45719 0.88325 0.0
C2012 C 0.89406 0.47021 0.87954 0.0
H2013 H 0.51425 0.91574 0.90215 0.0
H2014 H 0.5293 0.892 0.87059 0.0
H2015 H 0.51939 0.87243 0.88062 0.0
H2016 H 0.51932 0.89344 0.92753 0.0
H2017 H 0.50448 0.89732 0.93609 0.0
H2018 H 0.51219 0.90943 0.92604 0.0
H2019 H 0.49079 0.91228 0.91292 0.0
H2020 H 0.483 0.90017 0.92295 0.0
H2021 H 0.48327 0.89826 0.9055 0.0
H2022 H 0.50972 0.85523 0.89541 0.0
H2023 H 0.4997 0.84201 0.91294 0.0
H2024 H 0.48972 0.87738 0.93381 0.0
C2025 C 0.51538 0.90644 0.8973 0.0
C2026 C 0.52259 0.90534 0.88565 0.0
C2027 C 0.52378 0.89303 0.87952 0.0
C2028 C 0.5182 0.88188 0.88515 0.0
C2029 C 0.51126 0.88329 0.89674 0.0
C2030 C 0.50968 0.8953 0.90263 0.0
C2031 C 0.50192 0.8942 0.91511 0.0
C2032 C 0.50996 0.89887 0.92688 0.0
C2033 C 0.48898 0.90167 0.91405 0.0
C2034 C 0.49969 0.87965 0.91553 0.0
C2035 C 0.50517 0.87349 0.90487 0.0
C2036 C 0.50518 0.85996 0.90367 0.0
C2037 C 0.49951 0.85254 0.91367 0.0
C2038 C 0.49379 0.8587 0.9246 0.0
C2039 C 0.49375 0.87242 0.92541 0.0
H2040 H 0.10245 0.06826 0.46108 0.0
H2041 H 0.1358 0.09342 0.45454 0.0
H2042 H 0.12744 0.10874 0.47118 0.0
H2043 H 0.07867 0.09346 0.46631 0.0
H2044 H 0.07026 0.08458 0.47891 0.0
H2045 H 0.07874 0.07589 0.46625 0.0
H2046 H 0.09212 0.06347 0.48371 0.0
H2047 H 0.08373 0.07217 0.49643 0.0
H2048 H 0.10127 0.07255 0.49564 0.0
H2049 H 0.11518 0.1214 0.48842 0.0
H2050 H 0.10032 0.13009 0.50529 0.0
H2051 H 0.07564 0.09603 0.50098 0.0
C2052 C 0.10795 0.07704 0.46305 0.0
C2053 C 0.11972 0.07971 0.45646 0.0
C2054 C 0.12673 0.09121 0.45947 0.0
C2055 C 0.12206 0.09996 0.46889 0.0
C2056 C 0.11045 0.09699 0.47527 0.0
C2057 C 0.10353 0.08577 0.47251 0.0
C2058 C 0.09151 0.08464 0.48096 0.0
C2059 C 0.07906 0.08465 0.47261 0.0
C2060 C 0.09221 0.07249 0.4897 0.0
C2061 C 0.09269 0.09702 0.48886 0.0
C2062 C 0.10364 0.10404 0.48542 0.0
C2063 C 0.1066 0.11595 0.49124 0.0
C2064 C 0.09811 0.12081 0.5008 0.0
C2065 C 0.08688 0.1137 0.50449 0.0
C2066 C 0.08422 0.10163 0.49846 0.0
H2067 H 0.90482 0.13287 0.51379 0.0
H2068 H 0.88271 0.13813 0.47817 0.0
H2069 H 0.86729 0.12099 0.48522 0.0
H2070 H 0.90209 0.09818 0.51427 0.0
H2071 H 0.90105 0.09711 0.53176 0.0
H2072 H 0.90973 0.1104 0.52431 0.0
H2073 H 0.89532 0.1269 0.53689 0.0
H2074 H 0.88654 0.11365 0.54434 0.0
H2075 H 0.87784 0.126 0.53539 0.0
H2076 H 0.85418 0.10354 0.49635 0.0
H2077 H 0.84571 0.08522 0.50948 0.0
H2078 H 0.87738 0.09031 0.53701 0.0
C2079 C 0.89666 0.13048 0.50755 0.0
C2080 C 0.89483 0.13687 0.49551 0.0
C2081 C 0.88423 0.13333 0.48744 0.0
C2082 C 0.87541 0.12368 0.49139 0.0
C2083 C 0.87747 0.11756 0.50334 0.0
C2084 C 0.88794 0.12069 0.51121 0.0
C2085 C 0.88847 0.11206 0.52315 0.0
C2086 C 0.90108 0.10396 0.52338 0.0
C2087 C 0.88695 0.12013 0.53568 0.0
C2088 C 0.87665 0.10357 0.52078 0.0
C2089 C 0.87032 0.10705 0.50941 0.0
C2090 C 0.85908 0.10069 0.50524 0.0
C2091 C 0.85431 0.09035 0.51278 0.0
C2092 C 0.86092 0.08635 0.52422 0.0
C2093 C 0.87217 0.09313 0.52828 0.0
H2094 H 0.87781 0.90586 0.46926 0.0
H2095 H 0.90494 0.93828 0.46864 0.0
H2096 H 0.91677 0.92873 0.48729 0.0
H2097 H 0.87623 0.9018 0.50375 0.0
H2098 H 0.87579 0.88425 0.50318 0.0
H2099 H 0.86939 0.89362 0.48979 0.0
H2100 H 0.88471 0.88145 0.47382 0.0
H2101 H 0.89109 0.87198 0.48715 0.0
H2102 H 0.90199 0.8812 0.47692 0.0
H2103 H 0.92482 0.91638 0.50675 0.0
H2104 H 0.93006 0.90078 0.52432 0.0
H2105 H 0.89865 0.87562 0.51135 0.0
C2106 C 0.88626 0.91091 0.47303 0.0
C2107 C 0.89045 0.92282 0.46756 0.0
C2108 C 0.90161 0.92911 0.47267 0.0
C2109 C 0.90835 0.9238 0.48329 0.0
C2110 C 0.90391 0.91211 0.48854 0.0
C2111 C 0.89325 0.90563 0.48348 0.0
C2112 C 0.89072 0.89302 0.49072 0.0
C2113 C 0.87723 0.89319 0.49724 0.0
C2114 C 0.89222 0.88122 0.48161 0.0
C2115 C 0.90154 0.8935 0.50073 0.0
C2116 C 0.90894 0.90467 0.4994 0.0
C2117 C 0.91919 0.90753 0.50782 0.0
C2118 C 0.92205 0.89865 0.51779 0.0
C2119 C 0.91481 0.88699 0.51911 0.0
C2120 C 0.90443 0.88441 0.51047 0.0
H2121 H 0.10428 0.93544 0.52768 0.0
H2122 H 0.13937 0.91644 0.54168 0.0
H2123 H 0.13213 0.89576 0.53165 0.0
H2124 H 0.08244 0.90856 0.53234 0.0
H2125 H 0.07331 0.91179 0.51769 0.0
H2126 H 0.08121 0.92496 0.52617 0.0
H2127 H 0.09352 0.93121 0.50502 0.0
H2128 H 0.08569 0.91802 0.49649 0.0
H2129 H 0.10322 0.9191 0.49677 0.0
H2130 H 0.12072 0.87704 0.52045 0.0
H2131 H 0.10636 0.86191 0.50838 0.0
H2132 H 0.07931 0.89357 0.50101 0.0
C2133 C 0.11042 0.92692 0.52871 0.0
C2134 C 0.12235 0.92751 0.53553 0.0
C2135 C 0.13018 0.91619 0.53651 0.0
C2136 C 0.12614 0.90441 0.53085 0.0
C2137 C 0.11433 0.90417 0.52416 0.0
C2138 C 0.10662 0.91515 0.523 0.0
C2139 C 0.09449 0.91241 0.5151 0.0
C2140 C 0.08213 0.91455 0.52332 0.0
C2141 C 0.09422 0.92067 0.5026 0.0
C2142 C 0.09652 0.89813 0.51205 0.0
C2143 C 0.10799 0.89354 0.5174 0.0
C2144 C 0.11175 0.88055 0.51616 0.0
C2145 C 0.10354 0.87203 0.5093 0.0
C2146 C 0.09177 0.87658 0.5037 0.0
C2147 C 0.08831 0.88983 0.50506 0.0
H2148 H 0.63195 0.02249 0.61473 0.0
H2149 H 0.65268 0.99086 0.59581 0.0
H2150 H 0.63897 0.97489 0.60753 0.0
H2151 H 0.62856 0.00644 0.64614 0.0
H2152 H 0.61261 0.01318 0.64909 0.0
H2153 H 0.6242 0.02204 0.63933 0.0
H2154 H 0.60751 0.02311 0.6204 0.0
H2155 H 0.59589 0.01424 0.63008 0.0
H2156 H 0.6005 0.00823 0.61424 0.0
H2157 H 0.62188 0.96249 0.62015 0.0
H2158 H 0.60377 0.95456 0.63396 0.0
H2159 H 0.59531 0.99431 0.6456 0.0
C2160 C 0.63364 0.0122 0.61309 0.0
C2161 C 0.64332 0.00789 0.60434 0.0
C2162 C 0.64532 0.99435 0.60252 0.0
C2163 C 0.63757 0.98522 0.6091 0.0
C2164 C 0.62803 0.98981 0.6176 0.0
C2165 C 0.62615 0.00297 0.61973 0.0
C2166 C 0.6153 0.00537 0.62941 0.0
C2167 C 0.62048 0.01216 0.64172 0.0
C2168 C 0.60414 0.0132 0.62316 0.0
C2169 C 0.61121 0.9915 0.63225 0.0
C2170 C 0.61861 0.98266 0.62529 0.0
C2171 C 0.61614 0.96931 0.62578 0.0
C2172 C 0.60584 0.9649 0.63361 0.0
C2173 C 0.59828 0.97381 0.64094 0.0
C2174 C 0.60109 0.98725 0.64029 0.0
H2175 H 0.02737 0.60391 0.64092 0.0
H2176 H 0.04968 0.57559 0.6188 0.0
H2177 H 0.03789 0.58193 0.59883 0.0
H2178 H 0.99753 0.59896 0.62552 0.0
H2179 H 0.99262 0.61582 0.62545 0.0
H2180 H 0.00356 0.60994 0.63783 0.0
H2181 H 0.0205 0.62756 0.63149 0.0
H2182 H 0.00954 0.6336 0.61917 0.0
H2183 H 0.02586 0.62879 0.61481 0.0
H2184 H 0.02188 0.58934 0.58198 0.0
H2185 H 0.00433 0.59914 0.56873 0.0
H2186 H 0.99329 0.62359 0.60141 0.0
C2187 C 0.02995 0.59922 0.63183 0.0
C2188 C 0.03945 0.58926 0.63141 0.0
C2189 C 0.04251 0.58331 0.61934 0.0
C2190 C 0.03583 0.58681 0.60795 0.0
C2191 C 0.02629 0.59642 0.60877 0.0
C2192 C 0.02351 0.60273 0.62033 0.0
C2193 C 0.01257 0.61249 0.61862 0.0
C2194 C 0.00088 0.60909 0.62737 0.0
C2195 C 0.01741 0.62643 0.62117 0.0
C2196 C 0.0094 0.61043 0.60436 0.0
C2197 C 0.01739 0.60108 0.59888 0.0
C2198 C 0.01572 0.59685 0.58609 0.0
C2199 C 0.00569 0.6024 0.57867 0.0
C2200 C 0.99757 0.61218 0.58403 0.0
C2201 C 0.99951 0.61628 0.59701 0.0
H2202 H 0.42473 0.02657 0.5978 0.0
H2203 H 0.40135 0.01779 0.63191 0.0
H2204 H 0.38977 0.00066 0.6195 0.0
H2205 H 0.39973 0.02116 0.57348 0.0
H2206 H 0.41089 0.0138 0.5621 0.0
H2207 H 0.41666 0.02584 0.57348 0.0
H2208 H 0.43405 0.00955 0.58188 0.0
H2209 H 0.42828 0.99743 0.57059 0.0
H2210 H 0.42898 0.99379 0.58776 0.0
H2211 H 0.38091 0.98434 0.60324 0.0
H2212 H 0.37601 0.96969 0.58472 0.0
H2213 H 0.40612 0.98863 0.56187 0.0
C2214 C 0.41706 0.02117 0.60263 0.0
C2215 C 0.41384 0.02357 0.61578 0.0
C2216 C 0.40392 0.01613 0.62181 0.0
C2217 C 0.39729 0.0064 0.61485 0.0
C2218 C 0.40081 0.00418 0.60192 0.0
C2219 C 0.4105 0.01134 0.59589 0.0
C2220 C 0.41288 0.00668 0.58212 0.0
C2221 C 0.40986 0.01751 0.57221 0.0
C2222 C 0.42687 0.00156 0.5805 0.0
C2223 C 0.40303 0.99577 0.58132 0.0
C2224 C 0.39608 0.99453 0.59278 0.0
C2225 C 0.38632 0.9852 0.59423 0.0
C2226 C 0.38361 0.97693 0.58368 0.0
C2227 C 0.39075 0.97797 0.57191 0.0
C2228 C 0.40059 0.98751 0.57079 0.0
H2229 H 0.99137 0.37058 0.60477 0.0
H2230 H 0.03319 0.37226 0.61077 0.0
H2231 H 0.02989 0.38725 0.62934 0.0
H2232 H 0.98548 0.40428 0.61129 0.0
H2233 H 0.97007 0.40149 0.61923 0.0
H2234 H 0.97571 0.39037 0.60689 0.0
H2235 H 0.97347 0.37115 0.62312 0.0
H2236 H 0.96785 0.38222 0.63553 0.0
H2237 H 0.98174 0.37192 0.6386 0.0
H2238 H 0.02199 0.4019 0.64732 0.0
H2239 H 0.01022 0.41651 0.66238 0.0
H2240 H 0.97365 0.40611 0.64387 0.0
C2241 C -0.00018 0.37403 0.61005 0.0
C2242 C 0.01253 0.3702 0.60642 0.0
C2243 C 0.02337 0.37508 0.61342 0.0
C2244 C 0.02159 0.38355 0.624 0.0
C2245 C 0.00893 0.38714 0.62733 0.0
C2246 C 0.99824 0.38263 0.62049 0.0
C2247 C 0.98571 0.38846 0.62566 0.0
C2248 C 0.97884 0.39663 0.61514 0.0
C2249 C 0.97666 0.3778 0.63105 0.0
C2250 C 0.99102 0.39696 0.63648 0.0
C2251 C 0.00442 0.39594 0.63738 0.0
C2252 C 0.0115 0.4028 0.64669 0.0
C2253 C 0.00473 0.41104 0.65522 0.0
C2254 C 0.99103 0.41247 0.65427 0.0
C2255 C 0.98412 0.40526 0.6448 0.0
H2256 H 0.5679 0.03609 0.39878 0.0
H2257 H 0.58819 0.05062 0.36466 0.0
H2258 H 0.60799 0.03859 0.37136 0.0
H2259 H 0.59482 0.03715 0.421 0.0
H2260 H 0.59035 0.02223 0.42912 0.0
H2261 H 0.57798 0.03223 0.42173 0.0
H2262 H 0.57022 0.0125 0.408 0.0
H2263 H 0.5826 0.00245 0.41532 0.0
H2264 H 0.58174 0.00397 0.39785 0.0
H2265 H 0.62574 0.02538 0.38225 0.0
H2266 H 0.63973 0.01127 0.39591 0.0
H2267 H 0.60724 0.00459 0.42213 0.0
C2268 C 0.57654 0.03682 0.39275 0.0
C2269 C 0.57657 0.04437 0.38126 0.0
C2270 C 0.58798 0.04491 0.37353 0.0
C2271 C 0.59926 0.03813 0.37726 0.0
C2272 C 0.59888 0.03073 0.38864 0.0
C2273 C 0.58777 0.02997 0.39622 0.0
C2274 C 0.58976 0.0211 0.40782 0.0
C2275 C 0.58813 0.02863 0.42068 0.0
C2276 C 0.58053 0.00931 0.4072 0.0
C2277 C 0.60376 0.01707 0.40567 0.0
C2278 C 0.60889 0.02278 0.3946 0.0
C2279 C 0.6218 0.02079 0.39088 0.0
C2280 C 0.62967 0.01278 0.39869 0.0
C2281 C 0.62454 0.00677 0.41001 0.0
C2282 C 0.6114 0.00892 0.41345 0.0
H2283 H 0.98868 0.58298 0.38193 0.0
H2284 H 0.98808 0.55025 0.40871 0.0
H2285 H 0.0041 0.56144 0.42273 0.0
H2286 H 0.02255 0.59022 0.38445 0.0
H2287 H 0.0204 0.60764 0.38392 0.0
H2288 H 0.00879 0.59715 0.376 0.0
H2289 H 0.99005 0.60762 0.38929 0.0
H2290 H 0.00159 0.61823 0.39719 0.0
H2291 H 0.99107 0.608 0.40683 0.0
H2292 H 0.02098 0.57565 0.43322 0.0
H2293 H 0.03607 0.59286 0.44061 0.0
H2294 H 0.02489 0.6168 0.40758 0.0
C2295 C 0.99188 0.5782 0.39078 0.0
C2296 C 0.98718 0.56573 0.39422 0.0
C2297 C 0.99153 0.55982 0.40591 0.0
C2298 C 0.00066 0.56607 0.41391 0.0
C2299 C 0.00522 0.57828 0.41015 0.0
C2300 C 0.00086 0.58437 0.39897 0.0
C2301 C 0.00714 0.59762 0.39728 0.0
C2302 C 0.0152 0.59818 0.38466 0.0
C2303 C 0.99685 0.60851 0.39768 0.0
C2304 C 0.0158 0.59796 0.40921 0.0
C2305 C 0.01463 0.58667 0.41644 0.0
C2306 C 0.02191 0.58458 0.4277 0.0
C2307 C 0.0305 0.59438 0.43178 0.0
C2308 C 0.03161 0.60617 0.42469 0.0
C2309 C 0.02418 0.60792 0.41324 0.0
H2310 H 0.36411 0.98813 0.40734 0.0
H2311 H 0.36591 0.01851 0.37809 0.0
H2312 H 0.38427 0.00704 0.36734 0.0
H2313 H 0.39819 0.98542 0.41092 0.0
H2314 H 0.39811 0.96809 0.4138 0.0
H2315 H 0.38412 0.97775 0.4181 0.0
H2316 H 0.36943 0.96296 0.40385 0.0
H2317 H 0.38339 0.95324 0.39949 0.0
H2318 H 0.37348 0.96048 0.38693 0.0
H2319 H 0.40254 0.99225 0.36002 0.0
H2320 H 0.42107 0.97692 0.35818 0.0
H2321 H 0.40863 0.95763 0.39365 0.0
C2322 C 0.36822 0.9922 0.39852 0.0
C2323 C 0.36352 0.00402 0.39333 0.0
C2324 C 0.36937 0.00936 0.38207 0.0
C2325 C 0.37973 0.0029 0.3759 0.0
C2326 C 0.38424 0.99128 0.38132 0.0
C2327 C 0.37879 0.98609 0.39249 0.0
C2328 C 0.38626 0.97425 0.39714 0.0
C2329 C 0.39201 0.97652 0.4108 0.0
C2330 C 0.37762 0.96201 0.39683 0.0
C2331 C 0.39681 0.97361 0.38688 0.0
C2332 C 0.39531 0.98333 0.37767 0.0
C2333 C 0.40383 0.98462 0.36719 0.0
C2334 C 0.41428 0.97586 0.3662 0.0
C2335 C 0.41626 0.96618 0.37581 0.0
C2336 C 0.40736 0.96501 0.38622 0.0
H2337 H 0.99352 0.37406 0.413 0.0
H2338 H 0.95886 0.3865 0.3923 0.0
H2339 H 0.97265 0.39678 0.37539 0.0
H2340 H 0.01096 0.40356 0.40785 0.0
H2341 H 0.02662 0.39576 0.40633 0.0
H2342 H 0.01405 0.38833 0.41603 0.0
H2343 H 0.01604 0.36713 0.40245 0.0
H2344 H 0.0286 0.37452 0.39265 0.0
H2345 H 0.01427 0.36786 0.38499 0.0
H2346 H 0.99026 0.40552 0.36074 0.0
H2347 H 0.01025 0.41459 0.35083 0.0
H2348 H 0.03328 0.39815 0.38224 0.0
C2349 C 0.98887 0.37881 0.4048 0.0
C2350 C 0.97518 0.37938 0.40379 0.0
C2351 C 0.96936 0.38595 0.39316 0.0
C2352 C 0.97711 0.39174 0.38351 0.0
C2353 C 0.99061 0.39104 0.38479 0.0
C2354 C 0.99644 0.38492 0.39528 0.0
C2355 C 0.0111 0.3865 0.39496 0.0
C2356 C 0.01596 0.39399 0.407 0.0
C2357 C 0.0179 0.37321 0.39368 0.0
C2358 C 0.01261 0.3945 0.38267 0.0
C2359 C 0.0007 0.39678 0.37681 0.0
C2360 C -0.00037 0.40383 0.36526 0.0
C2361 C 0.01103 0.40889 0.35968 0.0
C2362 C 0.02325 0.40709 0.36581 0.0
C2363 C 0.02403 0.39971 0.37739 0.0
H2364 H 0.64237 0.58241 0.0077 0.0
H2365 H 0.64774 0.57907 0.9659 0.0
H2366 H 0.63061 0.59566 0.96241 0.0
H2367 H 0.60741 0.58595 0.00668 0.0
H2368 H 0.60693 0.59733 0.02005 0.0
H2369 H 0.61971 0.58533 0.01921 0.0
H2370 H 0.63708 0.60361 0.02048 0.0
H2371 H 0.62436 0.61567 0.02135 0.0
H2372 H 0.63663 0.61675 0.00883 0.0
H2373 H 0.61345 0.61321 0.96359 0.0
H2374 H 0.59688 0.62974 0.9693 0.0
H2375 H 0.60205 0.6207 0.01028 0.0
C2376 C 0.63997 0.58519 0.99781 0.0
C2377 C 0.64643 0.57952 0.98706 0.0
C2378 C 0.64291 0.58331 0.97427 0.0
C2379 C 0.63321 0.59272 0.9722 0.0
C2380 C 0.62703 0.59811 0.98302 0.0
C2381 C 0.63021 0.59442 0.99557 0.0
C2382 C 0.62198 0.60155 0.00552 0.0
C2383 C 0.6135 0.59197 0.01332 0.0
C2384 C 0.63052 0.60989 0.01457 0.0
C2385 C 0.61376 0.60995 0.99661 0.0
C2386 C 0.61686 0.60787 0.98367 0.0
C2387 C 0.61087 0.61484 0.97368 0.0
C2388 C 0.60149 0.62421 0.97701 0.0
C2389 C 0.59812 0.62642 0.99021 0.0
C2390 C 0.6043 0.61911 9e-05 0.0
H2391 H 0.36676 0.58105 0.99138 0.0
H2392 H 0.36557 0.61041 0.02173 0.0
H2393 H 0.37942 0.62487 0.00827 0.0
H2394 H 0.40011 0.5854 0.98405 0.0
H2395 H 0.39832 0.58244 0.96683 0.0
H2396 H 0.38715 0.5751 0.97817 0.0
H2397 H 0.3677 0.58547 0.96584 0.0
H2398 H 0.37882 0.59285 0.95444 0.0
H2399 H 0.36738 0.60284 0.96325 0.0
H2400 H 0.39362 0.63592 0.99155 0.0
H2401 H 0.40897 0.64187 0.97395 0.0
H2402 H 0.40231 0.60443 0.95549 0.0
C2403 C 0.36924 0.59062 0.99507 0.0
C2404 C 0.36498 0.59475 0.00747 0.0
C2405 C 0.3687 0.60715 0.01219 0.0
C2406 C 0.3765 0.61542 0.0046 0.0
C2407 C 0.38064 0.61102 0.99243 0.0
C2408 C 0.37726 0.59884 0.98777 0.0
C2409 C 0.38391 0.59596 0.97492 0.0
C2410 C 0.39291 0.58402 0.97607 0.0
C2411 C 0.37385 0.59418 0.96397 0.0
C2412 C 0.39164 0.60838 0.97313 0.0
C2413 C 0.38942 0.61705 0.98319 0.0
C2414 C 0.39545 0.62921 0.98362 0.0
C2415 C 0.40411 0.63251 0.97358 0.0
C2416 C 0.40684 0.62358 0.96343 0.0
C2417 C 0.40044 0.61141 0.96318 0.0
H2418 H 0.36632 0.39837 0.00495 0.0
H2419 H 0.36447 0.39616 0.96279 0.0
H2420 H 0.38144 0.37903 0.96297 0.0
H2421 H 0.40042 0.39586 0.007 0.0
H2422 H 0.40047 0.38644 0.02181 0.0
H2423 H 0.3872 0.39739 0.01846 0.0
H2424 H 0.37076 0.37839 0.021 0.0
H2425 H 0.384 0.36737 0.0244 0.0
H2426 H 0.37278 0.36386 0.01135 0.0
H2427 H 0.39915 0.36273 0.96777 0.0
H2428 H 0.41731 0.34962 0.97661 0.0
H2429 H 0.40834 0.36355 0.01552 0.0
C2430 C 0.36931 0.3941 0.99578 0.0
C2431 C 0.364 0.39844 0.98386 0.0
C2432 C 0.36839 0.39289 0.97203 0.0
C2433 C 0.37798 0.38314 0.97204 0.0
C2434 C 0.38313 0.37918 0.98397 0.0
C2435 C 0.37901 0.38454 0.99561 0.0
C2436 C 0.38683 0.37936 0.00699 0.0
C2437 C 0.39416 0.39042 0.01397 0.0
C2438 C 0.37807 0.37179 0.01649 0.0
C2439 C 0.39611 0.37035 -8e-05 0.0
C2440 C 0.39368 0.37022 0.98668 0.0
C2441 C 0.40111 0.36273 0.97813 0.0
C2442 C 0.41139 0.35531 0.98324 0.0
C2443 C 0.41425 0.3556 0.99674 0.0
C2444 C 0.40641 0.36315 0.00516 0.0
H2445 H 0.64383 0.40833 0.03061 0.0
H2446 H 0.62453 0.38228 0.05764 0.0
H2447 H 0.61454 0.37046 0.03908 0.0
H2448 H 0.61689 0.4121 0.01045 0.0
H2449 H 0.626 0.41328 0.99549 0.0
H2450 H 0.63339 0.41813 0.01062 0.0
H2451 H 0.65246 0.40208 0.00657 0.0
H2452 H 0.64515 0.39719 0.99138 0.0
H2453 H 0.64903 0.38513 0.00353 0.0
H2454 H 0.60581 0.36234 0.01762 0.0
H2455 H 0.59703 0.36002 0.99531 0.0
H2456 H 0.62044 0.39285 0.98268 0.0
C2457 C 0.63781 0.39988 0.03257 0.0
C2458 C 0.63515 0.39596 0.04546 0.0
C2459 C 0.62679 0.38526 0.04777 0.0
C2460 C 0.62114 0.37849 0.03731 0.0
C2461 C 0.62379 0.38274 0.02467 0.0
C2462 C 0.63182 0.39329 0.02229 0.0
C2463 C 0.6318 0.39696 0.00801 0.0
C2464 C 0.62671 0.41094 0.00603 0.0
C2465 C 0.64542 0.39523 0.00202 0.0
C2466 C 0.62234 0.38698 0.00274 0.0
C2467 C 0.61808 0.37865 0.01244 0.0
C2468 C 0.60912 0.36877 0.00994 0.0
C2469 C 0.60421 0.3675 0.99725 0.0
C2470 C 0.60805 0.37628 0.98732 0.0
C2471 C 0.61734 0.38602 0.9901 0.0
loop_
_geom_bond_atom_site_label_1
_geom_bond_atom_site_label_2
_geom_bond_distance
_geom_bond_site_symmetry_2
_ccdc_geom_bond_type
O0 Cd1 2.300 . S
O0 C7 1.275 . S
Cd1 O0 2.300 . S
Cd1 O9 2.381 . S
Cd1 O10 2.378 . S
O2 Cd3 2.385 . S
O2 C7 1.255 . S
Cd3 O2 2.385 . S
Cd3 O4 2.317 . S
O4 Cd3 2.317 . S
O4 C5 1.232 . S
C5 O4 1.232 . S
C5 O6 1.218 . S
O6 C5 1.218 . S
C7 O0 1.275 . S
C7 O2 1.255 . S
C8 O9 1.258 . S
C8 O10 1.256 . S
O9 Cd1 2.381 . S
O9 C8 1.258 . S
O10 Cd1 2.378 . S
O10 C8 1.256 . S
O11 Cd12 2.300 . S
O11 C18 1.275 . S
Cd12 O11 2.300 . S
Cd12 O20 2.381 . S
Cd12 O21 2.378 . S
O13 Cd14 2.385 . S
O13 C18 1.255 . S
Cd14 O13 2.385 . S
Cd14 O15 2.317 . S
O15 Cd14 2.317 . S
O15 C16 1.232 . S
C16 O15 1.232 . S
C16 O17 1.218 . S
O17 C16 1.218 . S
C18 O11 1.275 . S
C18 O13 1.255 . S
C19 O20 1.258 . S
C19 O21 1.256 . S
O20 Cd12 2.381 . S
O20 C19 1.258 . S
O21 Cd12 2.378 . S
O21 C19 1.256 . S
O22 Cd23 2.300 . S
O22 C29 1.275 . S
Cd23 O22 2.300 . S
Cd23 O31 2.381 . S
Cd23 O32 2.378 . S
O24 Cd25 2.385 . S
O24 C29 1.255 . S
Cd25 O24 2.385 . S
Cd25 O26 2.317 . S
O26 Cd25 2.317 . S
O26 C27 1.232 . S
C27 O26 1.232 . S
C27 O28 1.218 . S
O28 C27 1.218 . S
C29 O22 1.275 . S
C29 O24 1.255 . S
C30 O31 1.258 . S
C30 O32 1.256 . S
O31 Cd23 2.381 . S
O31 C30 1.258 . S
O32 Cd23 2.378 . S
O32 C30 1.256 . S
O33 Cd34 2.300 . S
O33 C40 1.275 . S
Cd34 O33 2.300 . S
Cd34 O42 2.381 . S
Cd34 O43 2.378 . S
O35 Cd36 2.385 . S
O35 C40 1.255 . S
Cd36 O35 2.385 . S
Cd36 O37 2.317 . S
O37 Cd36 2.317 . S
O37 C38 1.232 . S
C38 O37 1.232 . S
C38 O39 1.218 . S
O39 C38 1.218 . S
C40 O33 1.275 . S
C40 O35 1.255 . S
C41 O42 1.258 . S
C41 O43 1.256 . S
O42 Cd34 2.381 . S
O42 C41 1.258 . S
O43 Cd34 2.378 . S
O43 C41 1.256 . S
O44 Cd45 2.300 . S
O44 C51 1.275 . S
Cd45 O44 2.300 . S
Cd45 O53 2.381 . S
Cd45 O54 2.378 . S
O46 Cd47 2.385 . S
O46 C51 1.255 . S
Cd47 O46 2.385 . S
Cd47 O48 2.317 . S
O48 Cd47 2.317 . S
O48 C49 1.232 . S
C49 O48 1.232 . S
C49 O50 1.218 . S
O50 C49 1.218 . S
C51 O44 1.275 . S
C51 O46 1.255 . S
C52 O53 1.258 . S
C52 O54 1.256 . S
O53 Cd45 2.381 . S
O53 C52 1.258 . S
O54 Cd45 2.378 . S
O54 C52 1.256 . S
O55 Cd56 2.300 . S
O55 C62 1.275 . S
Cd56 O55 2.300 . S
Cd56 O64 2.381 . S
Cd56 O65 2.378 . S
O57 Cd58 2.385 . S
O57 C62 1.255 . S
Cd58 O57 2.385 . S
Cd58 O59 2.317 . S
O59 Cd58 2.317 . S
O59 C60 1.232 . S
C60 O59 1.232 . S
C60 O61 1.218 . S
O61 C60 1.218 . S
C62 O55 1.275 . S
C62 O57 1.255 . S
C63 O64 1.258 . S
C63 O65 1.256 . S
O64 Cd56 2.381 . S
O64 C63 1.258 . S
O65 Cd56 2.378 . S
O65 C63 1.256 . S
O66 Cd67 2.300 . S
O66 C73 1.275 . S
Cd67 O66 2.300 . S
Cd67 O75 2.381 . S
Cd67 O76 2.378 . S
O68 Cd69 2.385 . S
O68 C73 1.255 . S
Cd69 O68 2.385 . S
Cd69 O70 2.317 . S
O70 Cd69 2.317 . S
O70 C71 1.232 . S
C71 O70 1.232 . S
C71 O72 1.218 . S
O72 C71 1.218 . S
C73 O66 1.275 . S
C73 O68 1.255 . S
C74 O75 1.258 . S
C74 O76 1.256 . S
O75 Cd67 2.381 . S
O75 C74 1.258 . S
O76 Cd67 2.378 . S
O76 C74 1.256 . S
O77 Cd78 2.300 . S
O77 C84 1.275 . S
Cd78 O77 2.300 . S
Cd78 O86 2.381 . S
Cd78 O87 2.378 . S
O79 Cd80 2.385 . S
O79 C84 1.255 . S
Cd80 O79 2.385 . S
Cd80 O81 2.317 . S
O81 Cd80 2.317 . S
O81 C82 1.232 . S
C82 O81 1.232 . S
C82 O83 1.218 . S
O83 C82 1.218 . S
C84 O77 1.275 . S
C84 O79 1.255 . S
C85 O86 1.258 . S
C85 O87 1.256 . S
O86 Cd78 2.381 . S
O86 C85 1.258 . S
O87 Cd78 2.378 . S
O87 C85 1.256 . S
O88 Cd89 2.300 . S
O88 C95 1.275 . S
Cd89 O88 2.300 . S
Cd89 O97 2.381 . S
Cd89 O98 2.378 . S
O90 Cd91 2.385 . S
O90 C95 1.255 . S
Cd91 O90 2.385 . S
Cd91 O92 2.317 . S
O92 Cd91 2.317 . S
O92 C93 1.232 . S
C93 O92 1.232 . S
C93 O94 1.218 . S
O94 C93 1.218 . S
C95 O88 1.275 . S
C95 O90 1.255 . S
C96 O97 1.258 . S
C96 O98 1.256 . S
O97 Cd89 2.381 . S
O97 C96 1.258 . S
O98 Cd89 2.378 . S
O98 C96 1.256 . S
O99 Cd100 2.300 . S
O99 C106 1.275 . S
Cd100 O99 2.300 . S
Cd100 O108 2.381 . S
Cd100 O109 2.378 . S
O101 Cd102 2.385 . S
O101 C106 1.255 . S
Cd102 O101 2.385 . S
Cd102 O103 2.317 . S
O103 Cd102 2.317 . S
O103 C104 1.232 . S
C104 O103 1.232 . S
C104 O105 1.218 . S
O105 C104 1.218 . S
C106 O99 1.275 . S
C106 O101 1.255 . S
C107 O108 1.258 . S
C107 O109 1.256 . S
O108 Cd100 2.381 . S
O108 C107 1.258 . S
O109 Cd100 2.378 . S
O109 C107 1.256 . S
O110 Cd111 2.300 . S
O110 C117 1.275 . S
Cd111 O110 2.300 . S
Cd111 O119 2.381 . S
Cd111 O120 2.378 . S
O112 Cd113 2.385 . S
O112 C117 1.255 . S
Cd113 O112 2.385 . S
Cd113 O114 2.317 . S
O114 Cd113 2.317 . S
O114 C115 1.232 . S
C115 O114 1.232 . S
C115 O116 1.218 . S
O116 C115 1.218 . S
C117 O110 1.275 . S
C117 O112 1.255 . S
C118 O119 1.258 . S
C118 O120 1.256 . S
O119 Cd111 2.381 . S
O119 C118 1.258 . S
O120 Cd111 2.378 . S
O120 C118 1.256 . S
O121 Cd122 2.300 . S
O121 C128 1.275 . S
Cd122 O121 2.300 . S
Cd122 O130 2.381 . S
Cd122 O131 2.378 . S
O123 Cd124 2.385 . S
O123 C128 1.255 . S
Cd124 O123 2.385 . S
Cd124 O125 2.317 . S
O125 Cd124 2.317 . S
O125 C126 1.232 . S
C126 O125 1.232 . S
C126 O127 1.218 . S
O127 C126 1.218 . S
C128 O121 1.275 . S
C128 O123 1.255 . S
C129 O130 1.258 . S
C129 O131 1.256 . S
O130 Cd122 2.381 . S
O130 C129 1.258 . S
O131 Cd122 2.378 . S
O131 C129 1.256 . S
O132 Cd133 2.300 . S
O132 C139 1.275 . S
Cd133 O132 2.300 . S
Cd133 O141 2.381 . S
Cd133 O142 2.378 . S
O134 Cd135 2.385 . S
O134 C139 1.255 . S
Cd135 O134 2.385 . S
Cd135 O136 2.317 . S
O136 Cd135 2.317 . S
O136 C137 1.232 . S
C137 O136 1.232 . S
C137 O138 1.218 . S
O138 C137 1.218 . S
C139 O132 1.275 . S
C139 O134 1.255 . S
C140 O141 1.258 . S
C140 O142 1.256 . S
O141 Cd133 2.381 . S
O141 C140 1.258 . S
O142 Cd133 2.378 . S
O142 C140 1.256 . S
O143 Cd144 2.300 . S
O143 C150 1.275 . S
Cd144 O143 2.300 . S
Cd144 O152 2.381 . S
Cd144 O153 2.378 . S
O145 Cd146 2.385 . S
O145 C150 1.255 . S
Cd146 O145 2.385 . S
Cd146 O147 2.317 . S
O147 Cd146 2.317 . S
O147 C148 1.232 . S
C148 O147 1.232 . S
C148 O149 1.218 . S
O149 C148 1.218 . S
C150 O143 1.275 . S
C150 O145 1.255 . S
C151 O152 1.258 . S
C151 O153 1.256 . S
O152 Cd144 2.381 . S
O152 C151 1.258 . S
O153 Cd144 2.378 . S
O153 C151 1.256 . S
O154 Cd155 2.300 . S
O154 C161 1.275 . S
Cd155 O154 2.300 . S
Cd155 O163 2.381 . S
Cd155 O164 2.378 . S
O156 Cd157 2.385 . S
O156 C161 1.255 . S
Cd157 O156 2.385 . S
Cd157 O158 2.317 . S
O158 Cd157 2.317 . S
O158 C159 1.232 . S
C159 O158 1.232 . S
C159 O160 1.218 . S
O160 C159 1.218 . S
C161 O154 1.275 . S
C161 O156 1.255 . S
C162 O163 1.258 . S
C162 O164 1.256 . S
O163 Cd155 2.381 . S
O163 C162 1.258 . S
O164 Cd155 2.378 . S
O164 C162 1.256 . S
O165 Cd166 2.300 . S
O165 C172 1.275 . S
Cd166 O165 2.300 . S
Cd166 O174 2.381 . S
Cd166 O175 2.378 . S
O167 Cd168 2.385 . S
O167 C172 1.255 . S
Cd168 O167 2.385 . S
Cd168 O169 2.317 . S
O169 Cd168 2.317 . S
O169 C170 1.232 . S
C170 O169 1.232 . S
C170 O171 1.218 . S
O171 C170 1.218 . S
C172 O165 1.275 . S
C172 O167 1.255 . S
C173 O174 1.258 . S
C173 O175 1.256 . S
O174 Cd166 2.381 . S
O174 C173 1.258 . S
O175 Cd166 2.378 . S
O175 C173 1.256 . S
O176 Cd177 2.300 . S
O176 C183 1.275 . S
Cd177 O176 2.300 . S
Cd177 O185 2.381 . S
Cd177 O186 2.378 . S
O178 Cd179 2.385 . S
O178 C183 1.255 . S
Cd179 O178 2.385 . S
Cd179 O180 2.317 . S
O180 Cd179 2.317 . S
O180 C181 1.232 . S
C181 O180 1.232 . S
C181 O182 1.218 . S
O182 C181 1.218 . S
C183 O176 1.275 . S
C183 O178 1.255 . S
C184 O185 1.258 . S
C184 O186 1.256 . S
O185 Cd177 2.381 . S
O185 C184 1.258 . S
O186 Cd177 2.378 . S
O186 C184 1.256 . S
O187 Cd188 2.300 . S
O187 C194 1.275 . S
Cd188 O187 2.300 . S
Cd188 O196 2.381 . S
Cd188 O197 2.378 . S
O189 Cd190 2.385 . S
O189 C194 1.255 . S
Cd190 O189 2.385 . S
Cd190 O191 2.317 . S
O191 Cd190 2.317 . S
O191 C192 1.232 . S
C192 O191 1.232 . S
C192 O193 1.218 . S
O193 C192 1.218 . S
C194 O187 1.275 . S
C194 O189 1.255 . S
C195 O196 1.258 . S
C195 O197 1.256 . S
O196 Cd188 2.381 . S
O196 C195 1.258 . S
O197 Cd188 2.378 . S
O197 C195 1.256 . S
O198 Cd199 2.300 . S
O198 C205 1.275 . S
Cd199 O198 2.300 . S
Cd199 O207 2.381 . S
Cd199 O208 2.378 . S
O200 Cd201 2.385 . S
O200 C205 1.255 . S
Cd201 O200 2.385 . S
Cd201 O202 2.317 . S
O202 Cd201 2.317 . S
O202 C203 1.232 . S
C203 O202 1.232 . S
C203 O204 1.218 . S
O204 C203 1.218 . S
C205 O198 1.275 . S
C205 O200 1.255 . S
C206 O207 1.258 . S
C206 O208 1.256 . S
O207 Cd199 2.381 . S
O207 C206 1.258 . S
O208 Cd199 2.378 . S
O208 C206 1.256 . S
O209 Cd210 2.300 . S
O209 C216 1.275 . S
Cd210 O209 2.300 . S
Cd210 O218 2.381 . S
Cd210 O219 2.378 . S
O211 Cd212 2.385 . S
O211 C216 1.255 . S
Cd212 O211 2.385 . S
Cd212 O213 2.317 . S
O213 Cd212 2.317 . S
O213 C214 1.232 . S
C214 O213 1.232 . S
C214 O215 1.218 . S
O215 C214 1.218 . S
C216 O209 1.275 . S
C216 O211 1.255 . S
C217 O218 1.258 . S
C217 O219 1.256 . S
O218 Cd210 2.381 . S
O218 C217 1.258 . S
O219 Cd210 2.378 . S
O219 C217 1.256 . S
O220 Cd221 2.300 . S
O220 C227 1.275 . S
Cd221 O220 2.300 . S
Cd221 O229 2.381 . S
Cd221 O230 2.378 . S
O222 Cd223 2.385 . S
O222 C227 1.255 . S
Cd223 O222 2.385 . S
Cd223 O224 2.317 . S
O224 Cd223 2.317 . S
O224 C225 1.232 . S
C225 O224 1.232 . S
C225 O226 1.218 . S
O226 C225 1.218 . S
C227 O220 1.275 . S
C227 O222 1.255 . S
C228 O229 1.258 . S
C228 O230 1.256 . S
O229 Cd221 2.381 . S
O229 C228 1.258 . S
O230 Cd221 2.378 . S
O230 C228 1.256 . S
O231 Cd232 2.300 . S
O231 C238 1.275 . S
Cd232 O231 2.300 . S
Cd232 O240 2.381 . S
Cd232 O241 2.378 . S
O233 Cd234 2.385 . S
O233 C238 1.255 . S
Cd234 O233 2.385 . S
Cd234 O235 2.317 . S
O235 Cd234 2.317 . S
O235 C236 1.232 . S
C236 O235 1.232 . S
C236 O237 1.218 . S
O237 C236 1.218 . S
C238 O231 1.275 . S
C238 O233 1.255 . S
C239 O240 1.258 . S
C239 O241 1.256 . S
O240 Cd232 2.381 . S
O240 C239 1.258 . S
O241 Cd232 2.378 . S
O241 C239 1.256 . S
O242 Cd243 2.300 . S
O242 C249 1.275 . S
Cd243 O242 2.300 . S
Cd243 O251 2.381 . S
Cd243 O252 2.378 . S
O244 Cd245 2.385 . S
O244 C249 1.255 . S
Cd245 O244 2.385 . S
Cd245 O246 2.317 . S
O246 Cd245 2.317 . S
O246 C247 1.232 . S
C247 O246 1.232 . S
C247 O248 1.218 . S
O248 C247 1.218 . S
C249 O242 1.275 . S
C249 O244 1.255 . S
C250 O251 1.258 . S
C250 O252 1.256 . S
O251 Cd243 2.381 . S
O251 C250 1.258 . S
O252 Cd243 2.378 . S
O252 C250 1.256 . S
O253 Cd254 2.300 . S
O253 C260 1.275 . S
Cd254 O253 2.300 . S
Cd254 O262 2.381 . S
Cd254 O263 2.378 . S
O255 Cd256 2.385 . S
O255 C260 1.255 . S
Cd256 O255 2.385 . S
Cd256 O257 2.317 . S
O257 Cd256 2.317 . S
O257 C258 1.232 . S
C258 O257 1.232 . S
C258 O259 1.218 . S
O259 C258 1.218 . S
C260 O253 1.275 . S
C260 O255 1.255 . S
C261 O262 1.258 . S
C261 O263 1.256 . S
O262 Cd254 2.381 . S
O262 C261 1.258 . S
O263 Cd254 2.378 . S
O263 C261 1.256 . S
O264 Cd265 2.300 . S
O264 C271 1.275 . S
Cd265 O264 2.300 . S
Cd265 O273 2.381 . S
Cd265 O274 2.378 . S
O266 Cd267 2.385 . S
O266 C271 1.255 . S
Cd267 O266 2.385 . S
Cd267 O268 2.317 . S
O268 Cd267 2.317 . S
O268 C269 1.232 . S
C269 O268 1.232 . S
C269 O270 1.218 . S
O270 C269 1.218 . S
C271 O264 1.275 . S
C271 O266 1.255 . S
C272 O273 1.258 . S
C272 O274 1.256 . S
O273 Cd265 2.381 . S
O273 C272 1.258 . S
O274 Cd265 2.378 . S
O274 C272 1.256 . S
O275 Cd276 2.300 . S
O275 C282 1.275 . S
Cd276 O275 2.300 . S
Cd276 O284 2.381 . S
Cd276 O285 2.378 . S
O277 Cd278 2.385 . S
O277 C282 1.255 . S
Cd278 O277 2.385 . S
Cd278 O279 2.317 . S
O279 Cd278 2.317 . S
O279 C280 1.232 . S
C280 O279 1.232 . S
C280 O281 1.218 . S
O281 C280 1.218 . S
C282 O275 1.275 . S
C282 O277 1.255 . S
C283 O284 1.258 . S
C283 O285 1.256 . S
O284 Cd276 2.381 . S
O284 C283 1.258 . S
O285 Cd276 2.378 . S
O285 C283 1.256 . S
O286 Cd287 2.300 . S
O286 C293 1.275 . S
Cd287 O286 2.300 . S
Cd287 O295 2.381 . S
Cd287 O296 2.378 . S
O288 Cd289 2.385 . S
O288 C293 1.255 . S
Cd289 O288 2.385 . S
Cd289 O290 2.317 . S
O290 Cd289 2.317 . S
O290 C291 1.232 . S
C291 O290 1.232 . S
C291 O292 1.218 . S
O292 C291 1.218 . S
C293 O286 1.275 . S
C293 O288 1.255 . S
C294 O295 1.258 . S
C294 O296 1.256 . S
O295 Cd287 2.381 . S
O295 C294 1.258 . S
O296 Cd287 2.378 . S
O296 C294 1.256 . S
O297 Cd298 2.300 . S
O297 C304 1.275 . S
Cd298 O297 2.300 . S
Cd298 O306 2.381 . S
Cd298 O307 2.378 . S
O299 Cd300 2.385 . S
O299 C304 1.255 . S
Cd300 O299 2.385 . S
Cd300 O301 2.317 . S
O301 Cd300 2.317 . S
O301 C302 1.232 . S
C302 O301 1.232 . S
C302 O303 1.218 . S
O303 C302 1.218 . S
C304 O297 1.275 . S
C304 O299 1.255 . S
C305 O306 1.258 . S
C305 O307 1.256 . S
O306 Cd298 2.381 . S
O306 C305 1.258 . S
O307 Cd298 2.378 . S
O307 C305 1.256 . S
O308 Cd309 2.300 . S
O308 C315 1.275 . S
Cd309 O308 2.300 . S
Cd309 O317 2.381 . S
Cd309 O318 2.378 . S
O310 Cd311 2.385 . S
O310 C315 1.255 . S
Cd311 O310 2.385 . S
Cd311 O312 2.317 . S
O312 Cd311 2.317 . S
O312 C313 1.232 . S
C313 O312 1.232 . S
C313 O314 1.218 . S
O314 C313 1.218 . S
C315 O308 1.275 . S
C315 O310 1.255 . S
C316 O317 1.258 . S
C316 O318 1.256 . S
O317 Cd309 2.381 . S
O317 C316 1.258 . S
O318 Cd309 2.378 . S
O318 C316 1.256 . S
O319 Cd320 2.300 . S
O319 C326 1.275 . S
Cd320 O319 2.300 . S
Cd320 O328 2.381 . S
Cd320 O329 2.378 . S
O321 Cd322 2.385 . S
O321 C326 1.255 . S
Cd322 O321 2.385 . S
Cd322 O323 2.317 . S
O323 Cd322 2.317 . S
O323 C324 1.232 . S
C324 O323 1.232 . S
C324 O325 1.218 . S
O325 C324 1.218 . S
C326 O319 1.275 . S
C326 O321 1.255 . S
C327 O328 1.258 . S
C327 O329 1.256 . S
O328 Cd320 2.381 . S
O328 C327 1.258 . S
O329 Cd320 2.378 . S
O329 C327 1.256 . S
O330 Cd331 2.300 . S
O330 C337 1.275 . S
Cd331 O330 2.300 . S
Cd331 O339 2.381 . S
Cd331 O340 2.378 . S
O332 Cd333 2.385 . S
O332 C337 1.255 . S
Cd333 O332 2.385 . S
Cd333 O334 2.317 . S
O334 Cd333 2.317 . S
O334 C335 1.232 . S
C335 O334 1.232 . S
C335 O336 1.218 . S
O336 C335 1.218 . S
C337 O330 1.275 . S
C337 O332 1.255 . S
C338 O339 1.258 . S
C338 O340 1.256 . S
O339 Cd331 2.381 . S
O339 C338 1.258 . S
O340 Cd331 2.378 . S
O340 C338 1.256 . S
O341 Cd342 2.300 . S
O341 C348 1.275 . S
Cd342 O341 2.300 . S
Cd342 O350 2.381 . S
Cd342 O351 2.378 . S
O343 Cd344 2.385 . S
O343 C348 1.255 . S
Cd344 O343 2.385 . S
Cd344 O345 2.317 . S
O345 Cd344 2.317 . S
O345 C346 1.232 . S
C346 O345 1.232 . S
C346 O347 1.218 . S
O347 C346 1.218 . S
C348 O341 1.275 . S
C348 O343 1.255 . S
C349 O350 1.258 . S
C349 O351 1.256 . S
O350 Cd342 2.381 . S
O350 C349 1.258 . S
O351 Cd342 2.378 . S
O351 C349 1.256 . S
O352 Cd353 2.300 . S
O352 C359 1.275 . S
Cd353 O352 2.300 . S
Cd353 O361 2.381 . S
Cd353 O362 2.378 . S
O354 Cd355 2.385 . S
O354 C359 1.255 . S
Cd355 O354 2.385 . S
Cd355 O356 2.317 . S
O356 Cd355 2.317 . S
O356 C357 1.232 . S
C357 O356 1.232 . S
C357 O358 1.218 . S
O358 C357 1.218 . S
C359 O352 1.275 . S
C359 O354 1.255 . S
C360 O361 1.258 . S
C360 O362 1.256 . S
O361 Cd353 2.381 . S
O361 C360 1.258 . S
O362 Cd353 2.378 . S
O362 C360 1.256 . S
O363 Cd364 2.300 . S
O363 C370 1.275 . S
Cd364 O363 2.300 . S
Cd364 O372 2.381 . S
Cd364 O373 2.378 . S
O365 Cd366 2.385 . S
O365 C370 1.255 . S
Cd366 O365 2.385 . S
Cd366 O367 2.317 . S
O367 Cd366 2.317 . S
O367 C368 1.232 . S
C368 O367 1.232 . S
C368 O369 1.218 . S
O369 C368 1.218 . S
C370 O363 1.275 . S
C370 O365 1.255 . S
C371 O372 1.258 . S
C371 O373 1.256 . S
O372 Cd364 2.381 . S
O372 C371 1.258 . S
O373 Cd364 2.378 . S
O373 C371 1.256 . S
O374 Cd375 2.300 . S
O374 C381 1.275 . S
Cd375 O374 2.300 . S
Cd375 O383 2.381 . S
Cd375 O384 2.378 . S
O376 Cd377 2.385 . S
O376 C381 1.255 . S
Cd377 O376 2.385 . S
Cd377 O378 2.317 . S
O378 Cd377 2.317 . S
O378 C379 1.232 . S
C379 O378 1.232 . S
C379 O380 1.218 . S
O380 C379 1.218 . S
C381 O374 1.275 . S
C381 O376 1.255 . S
C382 O383 1.258 . S
C382 O384 1.256 . S
O383 Cd375 2.381 . S
O383 C382 1.258 . S
O384 Cd375 2.378 . S
O384 C382 1.256 . S
O385 Cd386 2.300 . S
O385 C392 1.275 . S
Cd386 O385 2.300 . S
Cd386 O394 2.381 . S
Cd386 O395 2.378 . S
O387 Cd388 2.385 . S
O387 C392 1.255 . S
Cd388 O387 2.385 . S
Cd388 O389 2.317 . S
O389 Cd388 2.317 . S
O389 C390 1.232 . S
C390 O389 1.232 . S
C390 O391 1.218 . S
O391 C390 1.218 . S
C392 O385 1.275 . S
C392 O387 1.255 . S
C393 O394 1.258 . S
C393 O395 1.256 . S
O394 Cd386 2.381 . S
O394 C393 1.258 . S
O395 Cd386 2.378 . S
O395 C393 1.256 . S
O396 Cd397 2.300 . S
O396 C403 1.275 . S
Cd397 O396 2.300 . S
Cd397 O405 2.381 . S
Cd397 O406 2.378 . S
O398 Cd399 2.385 . S
O398 C403 1.255 . S
Cd399 O398 2.385 . S
Cd399 O400 2.317 . S
O400 Cd399 2.317 . S
O400 C401 1.232 . S
C401 O400 1.232 . S
C401 O402 1.218 . S
O402 C401 1.218 . S
C403 O396 1.275 . S
C403 O398 1.255 . S
C404 O405 1.258 . S
C404 O406 1.256 . S
O405 Cd397 2.381 . S
O405 C404 1.258 . S
O406 Cd397 2.378 . S
O406 C404 1.256 . S
O407 Cd408 2.300 . S
O407 C414 1.275 . S
Cd408 O407 2.300 . S
Cd408 O416 2.381 . S
Cd408 O417 2.378 . S
O409 Cd410 2.385 . S
O409 C414 1.255 . S
Cd410 O409 2.385 . S
Cd410 O411 2.317 . S
O411 Cd410 2.317 . S
O411 C412 1.232 . S
C412 O411 1.232 . S
C412 O413 1.218 . S
O413 C412 1.218 . S
C414 O407 1.275 . S
C414 O409 1.255 . S
C415 O416 1.258 . S
C415 O417 1.256 . S
O416 Cd408 2.381 . S
O416 C415 1.258 . S
O417 Cd408 2.378 . S
O417 C415 1.256 . S
O418 Cd419 2.300 . S
O418 C425 1.275 . S
Cd419 O418 2.300 . S
Cd419 O427 2.381 . S
Cd419 O428 2.378 . S
O420 Cd421 2.385 . S
O420 C425 1.255 . S
Cd421 O420 2.385 . S
Cd421 O422 2.317 . S
O422 Cd421 2.317 . S
O422 C423 1.232 . S
C423 O422 1.232 . S
C423 O424 1.218 . S
O424 C423 1.218 . S
C425 O418 1.275 . S
C425 O420 1.255 . S
C426 O427 1.258 . S
C426 O428 1.256 . S
O427 Cd419 2.381 . S
O427 C426 1.258 . S
O428 Cd419 2.378 . S
O428 C426 1.256 . S
O429 Cd430 2.300 . S
O429 C436 1.275 . S
Cd430 O429 2.300 . S
Cd430 O438 2.381 . S
Cd430 O439 2.378 . S
O431 Cd432 2.385 . S
O431 C436 1.255 . S
Cd432 O431 2.385 . S
Cd432 O433 2.317 . S
O433 Cd432 2.317 . S
O433 C434 1.232 . S
C434 O433 1.232 . S
C434 O435 1.218 . S
O435 C434 1.218 . S
C436 O429 1.275 . S
C436 O431 1.255 . S
C437 O438 1.258 . S
C437 O439 1.256 . S
O438 Cd430 2.381 . S
O438 C437 1.258 . S
O439 Cd430 2.378 . S
O439 C437 1.256 . S
O440 Cd441 2.300 . S
O440 C447 1.275 . S
Cd441 O440 2.300 . S
Cd441 O449 2.381 . S
Cd441 O450 2.378 . S
O442 Cd443 2.385 . S
O442 C447 1.255 . S
Cd443 O442 2.385 . S
Cd443 O444 2.317 . S
O444 Cd443 2.317 . S
O444 C445 1.232 . S
C445 O444 1.232 . S
C445 O446 1.218 . S
O446 C445 1.218 . S
C447 O440 1.275 . S
C447 O442 1.255 . S
C448 O449 1.258 . S
C448 O450 1.256 . S
O449 Cd441 2.381 . S
O449 C448 1.258 . S
O450 Cd441 2.378 . S
O450 C448 1.256 . S
O451 Cd452 2.300 . S
O451 C458 1.275 . S
Cd452 O451 2.300 . S
Cd452 O460 2.381 . S
Cd452 O461 2.378 . S
O453 Cd454 2.385 . S
O453 C458 1.255 . S
Cd454 O453 2.385 . S
Cd454 O455 2.317 . S
O455 Cd454 2.317 . S
O455 C456 1.232 . S
C456 O455 1.232 . S
C456 O457 1.218 . S
O457 C456 1.218 . S
C458 O451 1.275 . S
C458 O453 1.255 . S
C459 O460 1.258 . S
C459 O461 1.256 . S
O460 Cd452 2.381 . S
O460 C459 1.258 . S
O461 Cd452 2.378 . S
O461 C459 1.256 . S
O462 Cd463 2.300 . S
O462 C469 1.275 . S
Cd463 O462 2.300 . S
Cd463 O471 2.381 . S
Cd463 O472 2.378 . S
O464 Cd465 2.385 . S
O464 C469 1.255 . S
Cd465 O464 2.385 . S
Cd465 O466 2.317 . S
O466 Cd465 2.317 . S
O466 C467 1.232 . S
C467 O466 1.232 . S
C467 O468 1.218 . S
O468 C467 1.218 . S
C469 O462 1.275 . S
C469 O464 1.255 . S
C470 O471 1.258 . S
C470 O472 1.256 . S
O471 Cd463 2.381 . S
O471 C470 1.258 . S
O472 Cd463 2.378 . S
O472 C470 1.256 . S
O473 Cd474 2.300 . S
O473 C480 1.275 . S
Cd474 O473 2.300 . S
Cd474 O482 2.381 . S
Cd474 O483 2.378 . S
O475 Cd476 2.385 . S
O475 C480 1.255 . S
Cd476 O475 2.385 . S
Cd476 O477 2.317 . S
O477 Cd476 2.317 . S
O477 C478 1.232 . S
C478 O477 1.232 . S
C478 O479 1.218 . S
O479 C478 1.218 . S
C480 O473 1.275 . S
C480 O475 1.255 . S
C481 O482 1.258 . S
C481 O483 1.256 . S
O482 Cd474 2.381 . S
O482 C481 1.258 . S
O483 Cd474 2.378 . S
O483 C481 1.256 . S
O484 Cd485 2.300 . S
O484 C491 1.275 . S
Cd485 O484 2.300 . S
Cd485 O493 2.381 . S
Cd485 O494 2.378 . S
O486 Cd487 2.385 . S
O486 C491 1.255 . S
Cd487 O486 2.385 . S
Cd487 O488 2.317 . S
O488 Cd487 2.317 . S
O488 C489 1.232 . S
C489 O488 1.232 . S
C489 O490 1.218 . S
O490 C489 1.218 . S
C491 O484 1.275 . S
C491 O486 1.255 . S
C492 O493 1.258 . S
C492 O494 1.256 . S
O493 Cd485 2.381 . S
O493 C492 1.258 . S
O494 Cd485 2.378 . S
O494 C492 1.256 . S
O495 Cd496 2.300 . S
O495 C502 1.275 . S
Cd496 O495 2.300 . S
Cd496 O504 2.381 . S
Cd496 O505 2.378 . S
O497 Cd498 2.385 . S
O497 C502 1.255 . S
Cd498 O497 2.385 . S
Cd498 O499 2.317 . S
O499 Cd498 2.317 . S
O499 C500 1.232 . S
C500 O499 1.232 . S
C500 O501 1.218 . S
O501 C500 1.218 . S
C502 O495 1.275 . S
C502 O497 1.255 . S
C503 O504 1.258 . S
C503 O505 1.256 . S
O504 Cd496 2.381 . S
O504 C503 1.258 . S
O505 Cd496 2.378 . S
O505 C503 1.256 . S
O506 Cd507 2.300 . S
O506 C513 1.275 . S
Cd507 O506 2.300 . S
Cd507 O515 2.381 . S
Cd507 O516 2.378 . S
O508 Cd509 2.385 . S
O508 C513 1.255 . S
Cd509 O508 2.385 . S
Cd509 O510 2.317 . S
O510 Cd509 2.317 . S
O510 C511 1.232 . S
C511 O510 1.232 . S
C511 O512 1.218 . S
O512 C511 1.218 . S
C513 O506 1.275 . S
C513 O508 1.255 . S
C514 O515 1.258 . S
C514 O516 1.256 . S
O515 Cd507 2.381 . S
O515 C514 1.258 . S
O516 Cd507 2.378 . S
O516 C514 1.256 . S
O517 Cd518 2.300 . S
O517 C524 1.275 . S
Cd518 O517 2.300 . S
Cd518 O526 2.381 . S
Cd518 O527 2.378 . S
O519 Cd520 2.385 . S
O519 C524 1.255 . S
Cd520 O519 2.385 . S
Cd520 O521 2.317 . S
O521 Cd520 2.317 . S
O521 C522 1.232 . S
C522 O521 1.232 . S
C522 O523 1.218 . S
O523 C522 1.218 . S
C524 O517 1.275 . S
C524 O519 1.255 . S
C525 O526 1.258 . S
C525 O527 1.256 . S
O526 Cd518 2.381 . S
O526 C525 1.258 . S
O527 Cd518 2.378 . S
O527 C525 1.256 . S
H528 C540 0.930 . S
H529 C542 0.930 . S
H530 C543 0.930 1_455 S
H531 C547 0.959 . S
H532 C547 0.959 . S
H533 C547 0.961 . S
H534 C548 0.960 . S
H535 C548 0.961 . S
H536 C548 0.959 . S
H537 C551 0.929 . S
H538 C552 0.931 . S
H539 C554 0.930 . S
C540 H528 0.930 . S
C540 C541 1.399 . S
C540 C545 1.399 . S
C541 C540 1.399 . S
C541 C542 1.376 . S
C542 H529 0.930 . S
C542 C541 1.376 . S
C542 C543 1.388 . S
C543 H530 0.930 1_655 S
C543 C542 1.388 . S
C543 C544 1.390 . S
C544 C543 1.390 . S
C544 C545 1.394 . S
C544 C550 1.465 1_655 S
C545 C540 1.399 . S
C545 C544 1.394 . S
C545 C546 1.516 . S
C546 C545 1.516 . S
C546 C547 1.502 . S
C546 C548 1.561 . S
C546 C549 1.526 1_655 S
C547 H531 0.959 . S
C547 H532 0.959 . S
C547 H533 0.961 . S
C547 C546 1.502 . S
C548 H534 0.960 . S
C548 H535 0.961 . S
C548 H536 0.959 . S
C548 C546 1.561 . S
C549 C546 1.526 1_455 S
C549 C550 1.396 . S
C549 C554 1.390 . S
C550 C544 1.465 1_455 S
C550 C549 1.396 . S
C550 C551 1.399 . S
C551 H537 0.929 . S
C551 C550 1.399 . S
C551 C552 1.385 . S
C552 H538 0.931 . S
C552 C551 1.385 . S
C552 C553 1.389 . S
C553 C552 1.389 . S
C553 C554 1.387 . S
C554 H539 0.930 . S
C554 C549 1.390 . S
C554 C553 1.387 . S
H555 C567 0.930 . S
H556 C569 0.930 . S
H557 C570 0.930 . S
H558 C574 0.959 . S
H559 C574 0.959 . S
H560 C574 0.961 . S
H561 C575 0.960 1_545 S
H562 C575 0.961 . S
H563 C575 0.959 . S
H564 C578 0.929 . S
H565 C579 0.931 . S
H566 C581 0.930 . S
C567 H555 0.930 . S
C567 C568 1.399 . S
C567 C572 1.399 . S
C568 C567 1.399 . S
C568 C569 1.376 . S
C569 H556 0.930 . S
C569 C568 1.376 . S
C569 C570 1.388 . S
C570 H557 0.930 . S
C570 C569 1.388 . S
C570 C571 1.390 . S
C571 C570 1.390 . S
C571 C572 1.394 . S
C571 C577 1.465 1_545 S
C572 C567 1.399 . S
C572 C571 1.394 . S
C572 C573 1.516 . S
C573 C572 1.516 . S
C573 C574 1.502 . S
C573 C575 1.561 1_545 S
C573 C576 1.526 1_545 S
C574 H558 0.959 . S
C574 H559 0.959 . S
C574 H560 0.961 . S
C574 C573 1.502 . S
C575 H561 0.960 1_565 S
C575 H562 0.961 . S
C575 H563 0.959 . S
C575 C573 1.561 1_565 S
C576 C573 1.526 1_565 S
C576 C577 1.396 . S
C576 C581 1.390 . S
C577 C571 1.465 1_565 S
C577 C576 1.396 . S
C577 C578 1.399 . S
C578 H564 0.929 . S
C578 C577 1.399 . S
C578 C579 1.385 . S
C579 H565 0.931 . S
C579 C578 1.385 . S
C579 C580 1.389 . S
C580 C579 1.389 . S
C580 C581 1.387 . S
C581 H566 0.930 . S
C581 C576 1.390 . S
C581 C580 1.387 . S
H582 C594 0.930 . S
H583 C596 0.930 . S
H584 C597 0.930 . S
H585 C601 0.959 . S
H586 C601 0.959 . S
H587 C601 0.961 . S
H588 C602 0.960 . S
H589 C602 0.961 1_455 S
H590 C602 0.959 . S
H591 C605 0.929 . S
H592 C606 0.931 . S
H593 C608 0.930 . S
C594 H582 0.930 . S
C594 C595 1.399 . S
C594 C599 1.399 . S
C595 C594 1.399 . S
C595 C596 1.376 . S
C596 H583 0.930 . S
C596 C595 1.376 . S
C596 C597 1.388 . S
C597 H584 0.930 . S
C597 C596 1.388 . S
C597 C598 1.390 . S
C598 C597 1.390 . S
C598 C599 1.394 . S
C598 C604 1.465 1_655 S
C599 C594 1.399 . S
C599 C598 1.394 . S
C599 C600 1.516 1_655 S
C600 C599 1.516 1_455 S
C600 C601 1.502 . S
C600 C602 1.561 1_455 S
C600 C603 1.526 . S
C601 H585 0.959 . S
C601 H586 0.959 . S
C601 H587 0.961 . S
C601 C600 1.502 . S
C602 H588 0.960 . S
C602 H589 0.961 1_655 S
C602 H590 0.959 . S
C602 C600 1.561 1_655 S
C603 C600 1.526 . S
C603 C604 1.396 . S
C603 C608 1.390 . S
C604 C598 1.465 1_455 S
C604 C603 1.396 . S
C604 C605 1.399 . S
C605 H591 0.929 . S
C605 C604 1.399 . S
C605 C606 1.385 . S
C606 H592 0.931 . S
C606 C605 1.385 . S
C606 C607 1.389 . S
C607 C606 1.389 . S
C607 C608 1.387 . S
C608 H593 0.930 . S
C608 C603 1.390 . S
C608 C607 1.387 . S
H609 C621 0.930 . S
H610 C623 0.930 . S
H611 C624 0.980 . S
H612 C628 0.959 . S
H613 C628 0.959 . S
H614 C628 0.961 . S
H615 C629 0.960 . S
H616 C629 0.961 1_565 S
H617 C629 0.959 1_565 S
H618 C632 0.929 . S
H619 C633 0.931 . S
H620 C635 0.930 . S
C621 H609 0.930 . S
C621 C622 1.399 . S
C621 C626 1.399 . S
C622 C621 1.399 . S
C622 C623 1.376 . S
C623 H610 0.930 . S
C623 C622 1.376 . S
C623 C624 1.388 . S
C624 H611 0.980 . S
C624 C623 1.388 . S
C624 C625 1.390 . S
C625 C624 1.390 . S
C625 C626 1.394 . S
C625 C631 1.465 1_545 S
C626 C621 1.399 . S
C626 C625 1.394 . S
C626 C627 1.516 . S
C627 C626 1.516 . S
C627 C628 1.502 . S
C627 C629 1.561 . S
C627 C630 1.526 1_545 S
C628 H612 0.959 . S
C628 H613 0.959 . S
C628 H614 0.961 . S
C628 C627 1.502 . S
C629 H615 0.960 . S
C629 H616 0.961 1_545 S
C629 H617 0.959 1_545 S
C629 C627 1.561 . S
C630 C627 1.526 1_565 S
C630 C631 1.396 . S
C630 C635 1.390 . S
C631 C625 1.465 1_565 S
C631 C630 1.396 . S
C631 C632 1.399 . S
C632 H618 0.929 . S
C632 C631 1.399 . S
C632 C633 1.385 . S
C633 H619 0.931 . S
C633 C632 1.385 . S
C633 C634 1.389 . S
C634 C633 1.389 . S
C634 C635 1.387 . S
C635 H620 0.930 . S
C635 C630 1.390 . S
C635 C634 1.387 . S
H636 C648 0.930 . S
H637 C650 0.930 . S
H638 C651 0.930 . S
H639 C655 0.959 . S
H640 C655 0.959 . S
H641 C655 0.961 . S
H642 C656 0.960 . S
H643 C656 0.961 . S
H644 C656 0.959 . S
H645 C659 0.929 1_565 S
H646 C660 0.931 . S
H647 C662 0.930 . S
C648 H636 0.930 . S
C648 C649 1.399 . S
C648 C653 1.399 . S
C649 C648 1.399 . S
C649 C650 1.376 . S
C650 H637 0.930 . S
C650 C649 1.376 . S
C650 C651 1.388 . S
C651 H638 0.930 . S
C651 C650 1.388 . S
C651 C652 1.390 . S
C652 C651 1.390 . S
C652 C653 1.394 . S
C652 C658 1.465 1_565 S
C653 C648 1.399 . S
C653 C652 1.394 . S
C653 C654 1.516 1_565 S
C654 C653 1.516 1_545 S
C654 C655 1.502 . S
C654 C656 1.561 . S
C654 C657 1.526 . S
C655 H639 0.959 . S
C655 H640 0.959 . S
C655 H641 0.961 . S
C655 C654 1.502 . S
C656 H642 0.960 . S
C656 H643 0.961 . S
C656 H644 0.959 . S
C656 C654 1.561 . S
C657 C654 1.526 . S
C657 C658 1.396 . S
C657 C662 1.390 . S
C658 C652 1.465 1_545 S
C658 C657 1.396 . S
C658 C659 1.399 . S
C659 H645 0.929 1_545 S
C659 C658 1.399 . S
C659 C660 1.385 . S
C660 H646 0.931 . S
C660 C659 1.385 . S
C660 C661 1.389 . S
C661 C660 1.389 . S
C661 C662 1.387 . S
C662 H647 0.930 . S
C662 C657 1.390 . S
C662 C661 1.387 . S
H663 C675 0.930 . S
H664 C677 0.930 . S
H665 C678 0.930 . S
H666 C682 0.959 . S
H667 C682 0.959 . S
H668 C682 0.961 . S
H669 C683 0.960 1_455 S
H670 C683 0.961 . S
H671 C683 0.959 . S
H672 C686 0.929 . S
H673 C687 0.931 . S
H674 C689 0.930 . S
C675 H663 0.930 . S
C675 C676 1.399 . S
C675 C680 1.399 . S
C676 C675 1.399 . S
C676 C677 1.376 . S
C677 H664 0.930 . S
C677 C676 1.376 . S
C677 C678 1.388 . S
C678 H665 0.930 . S
C678 C677 1.388 . S
C678 C679 1.390 . S
C679 C678 1.390 . S
C679 C680 1.394 . S
C679 C685 1.465 1_455 S
C680 C675 1.399 . S
C680 C679 1.394 . S
C680 C681 1.516 . S
C681 C680 1.516 . S
C681 C682 1.502 . S
C681 C683 1.561 1_455 S
C681 C684 1.526 1_455 S
C682 H666 0.959 . S
C682 H667 0.959 . S
C682 H668 0.961 . S
C682 C681 1.502 . S
C683 H669 0.960 1_655 S
C683 H670 0.961 . S
C683 H671 0.959 . S
C683 C681 1.561 1_655 S
C684 C681 1.526 1_655 S
C684 C685 1.396 . S
C684 C689 1.390 . S
C685 C679 1.465 1_655 S
C685 C684 1.396 . S
C685 C686 1.399 . S
C686 H672 0.929 . S
C686 C685 1.399 . S
C686 C687 1.385 . S
C687 H673 0.931 . S
C687 C686 1.385 . S
C687 C688 1.389 . S
C688 C687 1.389 . S
C688 C689 1.387 . S
C689 H674 0.930 . S
C689 C684 1.390 . S
C689 C688 1.387 . S
H690 C702 0.930 . S
H691 C704 0.930 . S
H692 C705 0.930 1_545 S
H693 C709 0.959 . S
H694 C709 0.959 . S
H695 C709 0.961 . S
H696 C710 0.960 . S
H697 C710 0.961 . S
H698 C710 0.959 . S
H699 C713 0.929 . S
H700 C714 0.931 . S
H701 C716 0.930 . S
C702 H690 0.930 . S
C702 C703 1.399 . S
C702 C707 1.399 . S
C703 C702 1.399 . S
C703 C704 1.376 . S
C704 H691 0.930 . S
C704 C703 1.376 . S
C704 C705 1.388 . S
C705 H692 0.930 1_565 S
C705 C704 1.388 . S
C705 C706 1.390 . S
C706 C705 1.390 . S
C706 C707 1.394 . S
C706 C712 1.465 1_565 S
C707 C702 1.399 . S
C707 C706 1.394 . S
C707 C708 1.516 . S
C708 C707 1.516 . S
C708 C709 1.502 . S
C708 C710 1.561 . S
C708 C711 1.526 1_565 S
C709 H693 0.959 . S
C709 H694 0.959 . S
C709 H695 0.961 . S
C709 C708 1.502 . S
C710 H696 0.960 . S
C710 H697 0.961 . S
C710 H698 0.959 . S
C710 C708 1.561 . S
C711 C708 1.526 1_545 S
C711 C712 1.396 . S
C711 C716 1.390 . S
C712 C706 1.465 1_545 S
C712 C711 1.396 . S
C712 C713 1.399 . S
C713 H699 0.929 . S
C713 C712 1.399 . S
C713 C714 1.385 . S
C714 H700 0.931 . S
C714 C713 1.385 . S
C714 C715 1.389 . S
C715 C714 1.389 . S
C715 C716 1.387 . S
C716 H701 0.930 . S
C716 C711 1.390 . S
C716 C715 1.387 . S
H717 C729 0.930 . S
H718 C731 0.930 . S
H719 C732 0.930 . S
H720 C736 0.959 . S
H721 C736 0.959 . S
H722 C736 0.961 . S
H723 C737 0.960 1_455 S
H724 C737 0.961 . S
H725 C737 0.959 1_455 S
H726 C740 0.920 1_455 S
H727 C741 0.931 . S
H728 C743 0.930 . S
C729 H717 0.930 . S
C729 C730 1.399 . S
C729 C734 1.399 . S
C730 C729 1.399 . S
C730 C731 1.376 . S
C731 H718 0.930 . S
C731 C730 1.376 . S
C731 C732 1.388 . S
C732 H719 0.930 . S
C732 C731 1.388 . S
C732 C733 1.390 . S
C733 C732 1.390 . S
C733 C734 1.394 . S
C733 C739 1.465 1_455 S
C734 C729 1.399 . S
C734 C733 1.394 . S
C734 C735 1.516 1_455 S
C735 C734 1.516 1_655 S
C735 C736 1.502 . S
C735 C737 1.561 . S
C735 C738 1.526 . S
C736 H720 0.959 . S
C736 H721 0.959 . S
C736 H722 0.961 . S
C736 C735 1.502 . S
C737 H723 0.960 1_655 S
C737 H724 0.961 . S
C737 H725 0.959 1_655 S
C737 C735 1.561 . S
C738 C735 1.526 . S
C738 C739 1.396 . S
C738 C743 1.390 . S
C739 C733 1.465 1_655 S
C739 C738 1.396 . S
C739 C740 1.399 . S
C740 H726 0.920 1_655 S
C740 C739 1.399 . S
C740 C741 1.385 . S
C741 H727 0.931 . S
C741 C740 1.385 . S
C741 C742 1.389 . S
C742 C741 1.389 . S
C742 C743 1.387 . S
C743 H728 0.930 . S
C743 C738 1.390 . S
C743 C742 1.387 . S
H744 C756 0.930 . S
H745 C758 0.930 . S
H746 C759 0.930 1_554 S
H747 C763 0.959 . S
H748 C763 0.959 . S
H749 C763 0.961 . S
H750 C764 0.960 . S
H751 C764 0.961 . S
H752 C764 0.959 1_554 S
H753 C767 0.929 . S
H754 C768 0.931 . S
H755 C770 0.930 . S
C756 H744 0.930 . S
C756 C757 1.399 . S
C756 C761 1.399 . S
C757 C756 1.399 . S
C757 C758 1.376 . S
C758 H745 0.930 . S
C758 C757 1.376 . S
C758 C759 1.388 . S
C759 H746 0.930 1_556 S
C759 C758 1.388 . S
C759 C760 1.390 . S
C760 C759 1.390 . S
C760 C761 1.394 . S
C760 C766 1.465 1_556 S
C761 C756 1.399 . S
C761 C760 1.394 . S
C761 C762 1.516 . S
C762 C761 1.516 . S
C762 C763 1.502 . S
C762 C764 1.561 . S
C762 C765 1.526 1_556 S
C763 H747 0.959 . S
C763 H748 0.959 . S
C763 H749 0.961 . S
C763 C762 1.502 . S
C764 H750 0.960 . S
C764 H751 0.961 . S
C764 H752 0.959 1_556 S
C764 C762 1.561 . S
C765 C762 1.526 1_554 S
C765 C766 1.396 . S
C765 C770 1.390 . S
C766 C760 1.465 1_554 S
C766 C765 1.396 . S
C766 C767 1.399 . S
C767 H753 0.929 . S
C767 C766 1.399 . S
C767 C768 1.385 . S
C768 H754 0.931 . S
C768 C767 1.385 . S
C768 C769 1.389 . S
C769 C768 1.389 . S
C769 C770 1.387 . S
C770 H755 0.930 . S
C770 C765 1.390 . S
C770 C769 1.387 . S
H771 C783 0.930 . S
H772 C785 0.930 . S
H773 C786 0.930 . S
H774 C790 0.959 . S
H775 C790 0.959 . S
H776 C790 0.961 . S
H777 C791 0.960 . S
H778 C791 0.961 1_554 S
H779 C791 0.959 . S
H780 C794 0.929 . S
H781 C795 0.931 . S
H782 C797 0.930 . S
C783 H771 0.930 . S
C783 C784 1.399 . S
C783 C788 1.399 . S
C784 C783 1.399 . S
C784 C785 1.376 . S
C785 H772 0.930 . S
C785 C784 1.376 . S
C785 C786 1.388 . S
C786 H773 0.930 . S
C786 C785 1.388 . S
C786 C787 1.390 . S
C787 C786 1.390 . S
C787 C788 1.394 . S
C787 C793 1.465 1_556 S
C788 C783 1.399 . S
C788 C787 1.394 . S
C788 C789 1.516 1_556 S
C789 C788 1.516 1_554 S
C789 C790 1.502 . S
C789 C791 1.561 1_554 S
C789 C792 1.526 . S
C790 H774 0.959 . S
C790 H775 0.959 . S
C790 H776 0.961 . S
C790 C789 1.502 . S
C791 H777 0.960 . S
C791 H778 0.961 1_556 S
C791 H779 0.959 . S
C791 C789 1.561 1_556 S
C792 C789 1.526 . S
C792 C793 1.396 . S
C792 C797 1.390 . S
C793 C787 1.465 1_554 S
C793 C792 1.396 . S
C793 C794 1.399 . S
C794 H780 0.929 . S
C794 C793 1.399 . S
C794 C795 1.385 . S
C795 H781 0.931 . S
C795 C794 1.385 . S
C795 C796 1.389 . S
C796 C795 1.389 . S
C796 C797 1.387 . S
C797 H782 0.930 . S
C797 C792 1.390 . S
C797 C796 1.387 . S
H798 C810 0.930 . S
H799 C812 0.930 . S
H800 C813 0.930 . S
H801 C817 0.959 . S
H802 C817 0.959 . S
H803 C817 0.961 . S
H804 C818 0.960 . S
H805 C818 0.961 . S
H806 C818 0.959 . S
H807 C821 0.929 1_554 S
H808 C822 0.931 . S
H809 C824 0.930 . S
C810 H798 0.930 . S
C810 C811 1.399 . S
C810 C815 1.399 . S
C811 C810 1.399 . S
C811 C812 1.376 . S
C812 H799 0.930 . S
C812 C811 1.376 . S
C812 C813 1.388 . S
C813 H800 0.930 . S
C813 C812 1.388 . S
C813 C814 1.390 . S
C814 C813 1.390 . S
C814 C815 1.394 . S
C814 C820 1.465 1_554 S
C815 C810 1.399 . S
C815 C814 1.394 . S
C815 C816 1.516 1_554 S
C816 C815 1.516 1_556 S
C816 C817 1.502 . S
C816 C818 1.561 . S
C816 C819 1.526 . S
C817 H801 0.959 . S
C817 H802 0.959 . S
C817 H803 0.961 . S
C817 C816 1.502 . S
C818 H804 0.960 . S
C818 H805 0.961 . S
C818 H806 0.959 . S
C818 C816 1.561 . S
C819 C816 1.526 . S
C819 C820 1.396 . S
C819 C824 1.390 . S
C820 C814 1.465 1_556 S
C820 C819 1.396 . S
C820 C821 1.399 . S
C821 H807 0.929 1_556 S
C821 C820 1.399 . S
C821 C822 1.385 . S
C822 H808 0.931 . S
C822 C821 1.385 . S
C822 C823 1.389 . S
C823 C822 1.389 . S
C823 C824 1.387 . S
C824 H809 0.930 . S
C824 C819 1.390 . S
C824 C823 1.387 . S
H825 C837 0.930 . S
H826 C839 0.930 . S
H827 C840 0.930 1_556 S
H828 C844 0.959 . S
H829 C844 0.959 . S
H830 C844 0.961 . S
H831 C845 0.960 . S
H832 C845 0.961 . S
H833 C845 0.959 . S
H834 C848 0.929 . S
H835 C849 0.931 . S
H836 C851 0.930 . S
C837 H825 0.930 . S
C837 C838 1.399 . S
C837 C842 1.399 . S
C838 C837 1.399 . S
C838 C839 1.376 . S
C839 H826 0.930 . S
C839 C838 1.376 . S
C839 C840 1.388 . S
C840 H827 0.930 1_554 S
C840 C839 1.388 . S
C840 C841 1.390 . S
C841 C840 1.390 . S
C841 C842 1.394 . S
C841 C847 1.465 1_554 S
C842 C837 1.399 . S
C842 C841 1.394 . S
C842 C843 1.516 . S
C843 C842 1.516 . S
C843 C844 1.502 . S
C843 C845 1.561 . S
C843 C846 1.526 1_554 S
C844 H828 0.959 . S
C844 H829 0.959 . S
C844 H830 0.961 . S
C844 C843 1.502 . S
C845 H831 0.960 . S
C845 H832 0.961 . S
C845 H833 0.959 . S
C845 C843 1.561 . S
C846 C843 1.526 1_556 S
C846 C847 1.396 . S
C846 C851 1.390 . S
C847 C841 1.465 1_556 S
C847 C846 1.396 . S
C847 C848 1.399 . S
C848 H834 0.929 . S
C848 C847 1.399 . S
C848 C849 1.385 . S
C849 H835 0.931 . S
C849 C848 1.385 . S
C849 C850 1.389 . S
C850 C849 1.389 . S
C850 C851 1.387 . S
C851 H836 0.930 . S
C851 C846 1.390 . S
C851 C850 1.387 . S
H852 C864 0.930 . S
H853 C866 0.930 . S
H854 C867 0.930 1_545 S
H855 C871 0.959 . S
H856 C871 0.959 . S
H857 C871 0.961 . S
H858 C872 0.960 1_565 S
H859 C872 0.961 . S
H860 C872 0.959 . S
H861 C875 0.929 . S
H862 C876 0.931 . S
H863 C878 0.930 . S
C864 H852 0.930 . S
C864 C865 1.399 . S
C864 C869 1.399 . S
C865 C864 1.399 . S
C865 C866 1.376 . S
C866 H853 0.930 . S
C866 C865 1.376 . S
C866 C867 1.388 . S
C867 H854 0.930 1_565 S
C867 C866 1.388 . S
C867 C868 1.400 . S
C868 C867 1.400 . S
C868 C869 1.432 . S
C868 C874 1.426 1_565 S
C869 C864 1.399 . S
C869 C868 1.432 . S
C869 C870 1.516 . S
C870 C869 1.516 . S
C870 C871 1.502 . S
C870 C872 1.561 1_565 S
C870 C873 1.526 1_565 S
C871 H855 0.959 . S
C871 H856 0.959 . S
C871 H857 0.961 . S
C871 C870 1.502 . S
C872 H858 0.960 1_545 S
C872 H859 0.961 . S
C872 H860 0.959 . S
C872 C870 1.561 1_545 S
C873 C870 1.526 1_545 S
C873 C874 1.396 . S
C873 C878 1.390 . S
C874 C868 1.426 1_545 S
C874 C873 1.396 . S
C874 C875 1.399 . S
C875 H861 0.929 . S
C875 C874 1.399 . S
C875 C876 1.385 . S
C876 H862 0.931 . S
C876 C875 1.385 . S
C876 C877 1.389 . S
C877 C876 1.389 . S
C877 C878 1.387 . S
C878 H863 0.930 . S
C878 C873 1.390 . S
C878 C877 1.387 . S
H879 C891 0.930 . S
H880 C893 0.930 . S
H881 C894 0.930 . S
H882 C898 0.959 . S
H883 C898 0.959 . S
H884 C898 0.961 . S
H885 C899 0.960 . S
H886 C899 0.961 . S
H887 C899 0.961 . S
H888 C902 0.929 . S
H889 C903 0.931 . S
H890 C905 0.930 . S
C891 H879 0.930 . S
C891 C892 1.399 . S
C891 C896 1.399 . S
C892 C891 1.399 . S
C892 C893 1.376 . S
C893 H880 0.930 . S
C893 C892 1.376 . S
C893 C894 1.388 1_455 S
C894 H881 0.930 . S
C894 C893 1.388 1_655 S
C894 C895 1.390 . S
C895 C894 1.390 . S
C895 C896 1.394 1_655 S
C895 C901 1.465 . S
C896 C891 1.399 . S
C896 C895 1.394 1_455 S
C896 C897 1.516 . S
C897 C896 1.516 . S
C897 C898 1.502 . S
C897 C899 1.561 . S
C897 C900 1.526 1_455 S
C898 H882 0.959 . S
C898 H883 0.959 . S
C898 H884 0.961 . S
C898 C897 1.502 . S
C899 H885 0.960 . S
C899 H886 0.961 . S
C899 H887 0.961 . S
C899 C897 1.561 . S
C900 C897 1.526 1_655 S
C900 C901 1.396 . S
C900 C905 1.390 . S
C901 C895 1.465 . S
C901 C900 1.396 . S
C901 C902 1.399 . S
C902 H888 0.929 . S
C902 C901 1.399 . S
C902 C903 1.385 . S
C903 H889 0.931 . S
C903 C902 1.385 . S
C903 C904 1.389 . S
C904 C903 1.389 . S
C904 C905 1.387 . S
C905 H890 0.930 . S
C905 C900 1.390 . S
C905 C904 1.387 . S
H906 C918 0.930 . S
H907 C920 0.930 . S
H908 C921 0.930 . S
H909 C925 0.959 . S
H910 C925 0.959 . S
H911 C925 0.961 . S
H912 C926 0.960 . S
H913 C926 0.961 . S
H914 C926 0.959 . S
H915 C929 0.929 . S
H916 C930 0.931 . S
H917 C932 0.930 . S
C918 H906 0.930 . S
C918 C919 1.399 . S
C918 C923 1.399 . S
C919 C918 1.399 . S
C919 C920 1.376 . S
C920 H907 0.930 . S
C920 C919 1.376 . S
C920 C921 1.388 . S
C921 H908 0.930 . S
C921 C920 1.388 . S
C921 C922 1.390 . S
C922 C921 1.390 . S
C922 C923 1.394 . S
C922 C928 1.465 1_565 S
C923 C918 1.399 . S
C923 C922 1.394 . S
C923 C924 1.516 1_565 S
C924 C923 1.516 1_545 S
C924 C925 1.502 . S
C924 C926 1.561 1_545 S
C924 C927 1.526 . S
C925 H909 0.959 . S
C925 H910 0.959 . S
C925 H911 0.961 . S
C925 C924 1.502 . S
C926 H912 0.960 . S
C926 H913 0.961 . S
C926 H914 0.959 . S
C926 C924 1.561 1_565 S
C927 C924 1.526 . S
C927 C928 1.396 . S
C927 C932 1.390 . S
C928 C922 1.465 1_545 S
C928 C927 1.396 . S
C928 C929 1.399 . S
C929 H915 0.929 . S
C929 C928 1.399 . S
C929 C930 1.385 . S
C930 H916 0.931 . S
C930 C929 1.385 . S
C930 C931 1.389 . S
C931 C930 1.389 . S
C931 C932 1.387 . S
C932 H917 0.930 . S
C932 C927 1.390 . S
C932 C931 1.387 . S
H933 C945 0.930 . S
H934 C947 0.930 . S
H935 C948 0.930 . S
H936 C952 0.959 . S
H937 C952 0.959 . S
H938 C952 0.961 . S
H939 C953 0.960 . S
H940 C953 0.961 1_655 S
H941 C953 0.959 . S
H942 C956 0.929 1_455 S
H943 C957 0.931 . S
H944 C959 0.930 . S
C945 H933 0.930 . S
C945 C946 1.399 . S
C945 C950 1.399 . S
C946 C945 1.399 . S
C946 C947 1.376 . S
C947 H934 0.930 . S
C947 C946 1.376 . S
C947 C948 1.388 . S
C948 H935 0.930 . S
C948 C947 1.388 . S
C948 C949 1.390 . S
C949 C948 1.390 . S
C949 C950 1.394 . S
C949 C955 1.445 1_455 S
C950 C945 1.399 . S
C950 C949 1.394 . S
C950 C951 1.516 1_455 S
C951 C950 1.516 1_655 S
C951 C952 1.502 . S
C951 C953 1.561 1_655 S
C951 C954 1.526 . S
C952 H936 0.959 . S
C952 H937 0.959 . S
C952 H938 0.961 . S
C952 C951 1.502 . S
C953 H939 0.960 . S
C953 H940 0.961 1_455 S
C953 H941 0.959 . S
C953 C951 1.561 1_455 S
C954 C951 1.526 . S
C954 C955 1.416 . S
C954 C959 1.390 . S
C955 C949 1.445 1_655 S
C955 C954 1.416 . S
C955 C956 1.401 . S
C956 H942 0.929 1_655 S
C956 C955 1.401 . S
C956 C957 1.385 . S
C957 H943 0.931 . S
C957 C956 1.385 . S
C957 C958 1.389 . S
C958 C957 1.389 . S
C958 C959 1.387 . S
C959 H944 0.930 . S
C959 C954 1.390 . S
C959 C958 1.387 . S
H960 C972 0.930 . S
H961 C974 0.930 . S
H962 C975 0.930 . S
H963 C979 0.959 . S
H964 C979 0.959 . S
H965 C979 0.961 . S
H966 C980 0.960 . S
H967 C980 0.961 . S
H968 C980 0.959 . S
H969 C983 0.929 . S
H970 C984 0.931 . S
H971 C986 0.930 . S
C972 H960 0.930 . S
C972 C973 1.399 . S
C972 C977 1.399 . S
C973 C972 1.399 . S
C973 C974 1.376 . S
C974 H961 0.930 . S
C974 C973 1.376 . S
C974 C975 1.388 . S
C975 H962 0.930 . S
C975 C974 1.388 . S
C975 C976 1.390 . S
C976 C975 1.390 . S
C976 C977 1.394 . S
C976 C982 1.465 . S
C977 C972 1.399 . S
C977 C976 1.394 . S
C977 C978 1.516 1_556 S
C978 C977 1.516 1_554 S
C978 C979 1.502 . S
C978 C980 1.561 . S
C978 C981 1.526 . S
C979 H963 0.959 . S
C979 H964 0.959 . S
C979 H965 0.961 . S
C979 C978 1.502 . S
C980 H966 0.960 . S
C980 H967 0.961 . S
C980 H968 0.959 . S
C980 C978 1.561 . S
C981 C978 1.526 . S
C981 C982 1.396 1_554 S
C981 C986 1.390 . S
C982 C976 1.465 . S
C982 C981 1.396 1_556 S
C982 C983 1.399 . S
C983 H969 0.929 . S
C983 C982 1.399 . S
C983 C984 1.385 1_556 S
C984 H970 0.931 . S
C984 C983 1.385 1_554 S
C984 C985 1.389 . S
C985 C984 1.389 . S
C985 C986 1.387 . S
C986 H971 0.930 . S
C986 C981 1.390 . S
C986 C985 1.387 . S
H987 C999 0.930 . S
H988 C1001 0.930 . S
H989 C1002 0.930 . S
H990 C1006 0.959 . S
H991 C1006 0.959 . S
H992 C1006 0.961 . S
H993 C1007 0.960 . S
H994 C1007 0.961 . S
H995 C1007 0.959 . S
H996 C1010 0.929 . S
H997 C1011 0.931 . S
H998 C1013 0.930 . S
C999 H987 0.930 . S
C999 C1000 1.399 . S
C999 C1004 1.399 . S
C1000 C999 1.399 . S
C1000 C1001 1.376 . S
C1001 H988 0.930 . S
C1001 C1000 1.376 . S
C1001 C1002 1.388 . S
C1002 H989 0.930 . S
C1002 C1001 1.388 . S
C1002 C1003 1.390 . S
C1003 C1002 1.390 . S
C1003 C1004 1.394 . S
C1003 C1009 1.465 1_556 S
C1004 C999 1.399 . S
C1004 C1003 1.394 . S
C1004 C1005 1.496 1_556 S
C1005 C1004 1.496 1_554 S
C1005 C1006 1.531 . S
C1005 C1007 1.533 1_554 S
C1005 C1008 1.543 . S
C1006 H990 0.959 . S
C1006 H991 0.959 . S
C1006 H992 0.961 . S
C1006 C1005 1.531 . S
C1007 H993 0.960 . S
C1007 H994 0.961 . S
C1007 H995 0.959 . S
C1007 C1005 1.533 1_556 S
C1008 C1005 1.543 . S
C1008 C1009 1.396 . S
C1008 C1013 1.390 . S
C1009 C1003 1.465 1_554 S
C1009 C1008 1.396 . S
C1009 C1010 1.399 . S
C1010 H996 0.929 . S
C1010 C1009 1.399 . S
C1010 C1011 1.385 . S
C1011 H997 0.931 . S
C1011 C1010 1.385 . S
C1011 C1012 1.389 . S
C1012 C1011 1.389 . S
C1012 C1013 1.387 . S
C1013 H998 0.930 . S
C1013 C1008 1.390 . S
C1013 C1012 1.387 . S
H1014 C1026 0.930 . S
H1015 C1028 0.930 . S
H1016 C1029 0.930 . S
H1017 C1033 0.959 . S
H1018 C1033 0.959 . S
H1019 C1033 0.961 . S
H1020 C1034 0.960 . S
H1021 C1034 0.961 . S
H1022 C1034 0.959 . S
H1023 C1037 0.929 . S
H1024 C1038 0.931 . S
H1025 C1040 0.930 . S
C1026 H1014 0.930 . S
C1026 C1027 1.399 . S
C1026 C1031 1.399 . S
C1027 C1026 1.399 . S
C1027 C1028 1.376 . S
C1028 H1015 0.930 . S
C1028 C1027 1.376 . S
C1028 C1029 1.388 . S
C1029 H1016 0.930 . S
C1029 C1028 1.388 . S
C1029 C1030 1.390 . S
C1030 C1029 1.390 . S
C1030 C1031 1.394 . S
C1030 C1036 1.466 . S
C1031 C1026 1.399 . S
C1031 C1030 1.394 . S
C1031 C1032 1.516 1_556 S
C1032 C1031 1.516 1_554 S
C1032 C1033 1.502 . S
C1032 C1034 1.561 . S
C1032 C1035 1.526 . S
C1033 H1017 0.959 . S
C1033 H1018 0.959 . S
C1033 H1019 0.961 . S
C1033 C1032 1.502 . S
C1034 H1020 0.960 . S
C1034 H1021 0.961 . S
C1034 H1022 0.959 . S
C1034 C1032 1.561 . S
C1035 C1032 1.526 . S
C1035 C1036 1.395 1_554 S
C1035 C1040 1.390 . S
C1036 C1030 1.466 . S
C1036 C1035 1.395 1_556 S
C1036 C1037 1.399 . S
C1037 H1023 0.929 . S
C1037 C1036 1.399 . S
C1037 C1038 1.385 1_556 S
C1038 H1024 0.931 . S
C1038 C1037 1.385 1_554 S
C1038 C1039 1.389 . S
C1039 C1038 1.389 . S
C1039 C1040 1.387 . S
C1040 H1025 0.930 . S
C1040 C1035 1.390 . S
C1040 C1039 1.387 . S
H1041 C1053 0.930 . S
H1042 C1055 0.930 . S
H1043 C1056 0.896 1_556 S
H1044 C1060 0.959 . S
H1045 C1060 0.959 . S
H1046 C1060 0.961 . S
H1047 C1061 0.985 . S
H1048 C1061 0.961 . S
H1049 C1061 0.959 . S
H1050 C1064 0.929 . S
H1051 C1065 0.931 . S
H1052 C1067 0.930 . S
C1053 H1041 0.930 . S
C1053 C1054 1.399 . S
C1053 C1058 1.399 . S
C1054 C1053 1.399 . S
C1054 C1055 1.376 . S
C1055 H1042 0.930 . S
C1055 C1054 1.376 . S
C1055 C1056 1.388 . S
C1056 H1043 0.896 1_554 S
C1056 C1055 1.388 . S
C1056 C1057 1.390 . S
C1057 C1056 1.390 . S
C1057 C1058 1.394 . S
C1057 C1063 1.465 1_554 S
C1058 C1053 1.399 . S
C1058 C1057 1.394 . S
C1058 C1059 1.516 . S
C1059 C1058 1.516 . S
C1059 C1060 1.502 . S
C1059 C1061 1.561 1_554 S
C1059 C1062 1.526 1_554 S
C1060 H1044 0.959 . S
C1060 H1045 0.959 . S
C1060 H1046 0.961 . S
C1060 C1059 1.502 . S
C1061 H1047 0.985 . S
C1061 H1048 0.961 . S
C1061 H1049 0.959 . S
C1061 C1059 1.561 1_556 S
C1062 C1059 1.526 1_556 S
C1062 C1063 1.396 . S
C1062 C1067 1.390 . S
C1063 C1057 1.465 1_556 S
C1063 C1062 1.396 . S
C1063 C1064 1.399 . S
C1064 H1050 0.929 . S
C1064 C1063 1.399 . S
C1064 C1065 1.385 . S
C1065 H1051 0.931 . S
C1065 C1064 1.385 . S
C1065 C1066 1.389 . S
C1066 C1065 1.389 . S
C1066 C1067 1.387 . S
C1067 H1052 0.930 . S
C1067 C1062 1.390 . S
C1067 C1066 1.387 . S
H1068 C1080 0.930 . S
H1069 C1082 0.930 . S
H1070 C1083 0.930 . S
H1071 C1087 0.959 . S
H1072 C1087 0.959 . S
H1073 C1087 0.961 . S
H1074 C1088 0.960 . S
H1075 C1088 0.961 1_655 S
H1076 C1088 0.959 . S
H1077 C1091 0.929 1_455 S
H1078 C1092 0.931 . S
H1079 C1094 0.930 . S
C1080 H1068 0.930 . S
C1080 C1081 1.399 . S
C1080 C1085 1.399 . S
C1081 C1080 1.399 . S
C1081 C1082 1.376 . S
C1082 H1069 0.930 . S
C1082 C1081 1.376 . S
C1082 C1083 1.388 . S
C1083 H1070 0.930 . S
C1083 C1082 1.388 . S
C1083 C1084 1.390 . S
C1084 C1083 1.390 . S
C1084 C1085 1.394 . S
C1084 C1090 1.423 1_455 S
C1085 C1080 1.399 . S
C1085 C1084 1.394 . S
C1085 C1086 1.516 1_455 S
C1086 C1085 1.516 1_655 S
C1086 C1087 1.502 . S
C1086 C1088 1.561 1_655 S
C1086 C1089 1.526 . S
C1087 H1071 0.959 . S
C1087 H1072 0.959 . S
C1087 H1073 0.961 . S
C1087 C1086 1.502 . S
C1088 H1074 0.960 . S
C1088 H1075 0.961 1_455 S
C1088 H1076 0.959 . S
C1088 C1086 1.561 1_455 S
C1089 C1086 1.526 . S
C1089 C1090 1.437 . S
C1089 C1094 1.390 . S
C1090 C1084 1.423 1_655 S
C1090 C1089 1.437 . S
C1090 C1091 1.409 . S
C1091 H1077 0.929 1_655 S
C1091 C1090 1.409 . S
C1091 C1092 1.385 . S
C1092 H1078 0.931 . S
C1092 C1091 1.385 . S
C1092 C1093 1.389 . S
C1093 C1092 1.389 . S
C1093 C1094 1.387 . S
C1094 H1079 0.930 . S
C1094 C1089 1.390 . S
C1094 C1093 1.387 . S
H1095 C1107 0.930 . S
H1096 C1109 0.930 . S
H1097 C1110 0.930 1_655 S
H1098 C1114 0.959 . S
H1099 C1114 0.959 . S
H1100 C1114 0.961 . S
H1101 C1115 0.960 1_455 S
H1102 C1115 0.961 . S
H1103 C1115 0.959 . S
H1104 C1118 0.929 . S
H1105 C1119 0.931 . S
H1106 C1121 0.930 . S
C1107 H1095 0.930 . S
C1107 C1108 1.399 . S
C1107 C1112 1.399 . S
C1108 C1107 1.399 . S
C1108 C1109 1.376 . S
C1109 H1096 0.930 . S
C1109 C1108 1.376 . S
C1109 C1110 1.388 . S
C1110 H1097 0.930 1_455 S
C1110 C1109 1.388 . S
C1110 C1111 1.401 . S
C1111 C1110 1.401 . S
C1111 C1112 1.433 . S
C1111 C1117 1.425 1_455 S
C1112 C1107 1.399 . S
C1112 C1111 1.433 . S
C1112 C1113 1.516 . S
C1113 C1112 1.516 . S
C1113 C1114 1.502 . S
C1113 C1115 1.561 1_455 S
C1113 C1116 1.526 1_455 S
C1114 H1098 0.959 . S
C1114 H1099 0.959 . S
C1114 H1100 0.961 . S
C1114 C1113 1.502 . S
C1115 H1101 0.960 1_655 S
C1115 H1102 0.961 . S
C1115 H1103 0.959 . S
C1115 C1113 1.561 1_655 S
C1116 C1113 1.526 1_655 S
C1116 C1117 1.396 . S
C1116 C1121 1.390 . S
C1117 C1111 1.425 1_655 S
C1117 C1116 1.396 . S
C1117 C1118 1.399 . S
C1118 H1104 0.929 . S
C1118 C1117 1.399 . S
C1118 C1119 1.385 . S
C1119 H1105 0.931 . S
C1119 C1118 1.385 . S
C1119 C1120 1.389 . S
C1120 C1119 1.389 . S
C1120 C1121 1.387 . S
C1121 H1106 0.930 . S
C1121 C1116 1.390 . S
C1121 C1120 1.387 . S
H1122 C1134 0.930 . S
H1123 C1136 0.930 . S
H1124 C1137 0.930 . S
H1125 C1141 0.959 . S
H1126 C1141 0.959 . S
H1127 C1141 0.961 . S
H1128 C1142 0.960 . S
H1129 C1142 0.961 . S
H1130 C1142 0.959 . S
H1131 C1145 0.929 . S
H1132 C1146 0.931 . S
H1133 C1148 0.930 . S
C1134 H1122 0.930 . S
C1134 C1135 1.399 . S
C1134 C1139 1.399 . S
C1135 C1134 1.399 . S
C1135 C1136 1.376 . S
C1136 H1123 0.930 . S
C1136 C1135 1.376 . S
C1136 C1137 1.388 . S
C1137 H1124 0.930 . S
C1137 C1136 1.388 . S
C1137 C1138 1.390 . S
C1138 C1137 1.390 . S
C1138 C1139 1.394 . S
C1138 C1144 1.465 . S
C1139 C1134 1.399 . S
C1139 C1138 1.394 . S
C1139 C1140 1.516 1_545 S
C1140 C1139 1.516 1_565 S
C1140 C1141 1.502 . S
C1140 C1142 1.561 . S
C1140 C1143 1.526 . S
C1141 H1125 0.959 . S
C1141 H1126 0.959 . S
C1141 H1127 0.961 . S
C1141 C1140 1.502 . S
C1142 H1128 0.960 . S
C1142 H1129 0.961 . S
C1142 H1130 0.959 . S
C1142 C1140 1.561 . S
C1143 C1140 1.526 . S
C1143 C1144 1.396 1_565 S
C1143 C1148 1.390 . S
C1144 C1138 1.465 . S
C1144 C1143 1.396 1_545 S
C1144 C1145 1.399 . S
C1145 H1131 0.929 . S
C1145 C1144 1.399 . S
C1145 C1146 1.385 1_545 S
C1146 H1132 0.931 . S
C1146 C1145 1.385 1_565 S
C1146 C1147 1.389 . S
C1147 C1146 1.389 . S
C1147 C1148 1.387 . S
C1148 H1133 0.930 . S
C1148 C1143 1.390 . S
C1148 C1147 1.387 . S
H1149 C1161 0.930 . S
H1150 C1163 0.930 . S
H1151 C1164 0.930 . S
H1152 C1168 0.959 . S
H1153 C1168 0.959 . S
H1154 C1168 0.961 . S
H1155 C1169 0.960 . S
H1156 C1169 0.961 . S
H1157 C1169 0.959 . S
H1158 C1172 0.929 . S
H1159 C1173 0.931 . S
H1160 C1175 0.930 . S
C1161 H1149 0.930 . S
C1161 C1162 1.399 . S
C1161 C1166 1.399 . S
C1162 C1161 1.399 . S
C1162 C1163 1.376 . S
C1163 H1150 0.930 . S
C1163 C1162 1.376 . S
C1163 C1164 1.388 1_565 S
C1164 H1151 0.930 . S
C1164 C1163 1.388 1_545 S
C1164 C1165 1.390 . S
C1165 C1164 1.390 . S
C1165 C1166 1.394 1_545 S
C1165 C1171 1.465 . S
C1166 C1161 1.399 . S
C1166 C1165 1.394 1_565 S
C1166 C1167 1.516 . S
C1167 C1166 1.516 . S
C1167 C1168 1.502 . S
C1167 C1169 1.561 . S
C1167 C1170 1.526 1_565 S
C1168 H1152 0.959 . S
C1168 H1153 0.959 . S
C1168 H1154 0.961 . S
C1168 C1167 1.502 . S
C1169 H1155 0.960 . S
C1169 H1156 0.961 . S
C1169 H1157 0.959 . S
C1169 C1167 1.561 . S
C1170 C1167 1.526 1_545 S
C1170 C1171 1.396 . S
C1170 C1175 1.390 . S
C1171 C1165 1.465 . S
C1171 C1170 1.396 . S
C1171 C1172 1.399 . S
C1172 H1158 0.929 . S
C1172 C1171 1.399 . S
C1172 C1173 1.385 . S
C1173 H1159 0.931 . S
C1173 C1172 1.385 . S
C1173 C1174 1.389 . S
C1174 C1173 1.389 . S
C1174 C1175 1.387 . S
C1175 H1160 0.930 . S
C1175 C1170 1.390 . S
C1175 C1174 1.387 . S
H1176 C1188 0.930 . S
H1177 C1190 0.930 . S
H1178 C1191 0.930 . S
H1179 C1195 0.959 . S
H1180 C1195 0.959 . S
H1181 C1195 0.961 . S
H1182 C1196 0.960 . S
H1183 C1196 0.961 . S
H1184 C1196 0.959 . S
H1185 C1199 0.929 . S
H1186 C1200 0.931 . S
H1187 C1202 0.930 . S
C1188 H1176 0.930 . S
C1188 C1189 1.399 . S
C1188 C1193 1.399 . S
C1189 C1188 1.399 . S
C1189 C1190 1.376 . S
C1190 H1177 0.930 . S
C1190 C1189 1.376 . S
C1190 C1191 1.388 . S
C1191 H1178 0.930 . S
C1191 C1190 1.388 . S
C1191 C1192 1.390 . S
C1192 C1191 1.390 . S
C1192 C1193 1.394 . S
C1192 C1198 1.465 . S
C1193 C1188 1.399 . S
C1193 C1192 1.394 . S
C1193 C1194 1.516 . S
C1194 C1193 1.516 . S
C1194 C1195 1.502 . S
C1194 C1196 1.561 . S
C1194 C1197 1.526 . S
C1195 H1179 0.959 . S
C1195 H1180 0.959 . S
C1195 H1181 0.961 . S
C1195 C1194 1.502 . S
C1196 H1182 0.960 . S
C1196 H1183 0.961 . S
C1196 H1184 0.959 . S
C1196 C1194 1.561 . S
C1197 C1194 1.526 . S
C1197 C1198 1.396 . S
C1197 C1202 1.390 . S
C1198 C1192 1.465 . S
C1198 C1197 1.396 . S
C1198 C1199 1.399 . S
C1199 H1185 0.929 . S
C1199 C1198 1.399 . S
C1199 C1200 1.385 . S
C1200 H1186 0.931 . S
C1200 C1199 1.385 . S
C1200 C1201 1.389 . S
C1201 C1200 1.389 . S
C1201 C1202 1.387 . S
C1202 H1187 0.930 . S
C1202 C1197 1.390 . S
C1202 C1201 1.387 . S
H1203 C1215 0.930 . S
H1204 C1217 0.930 . S
H1205 C1218 0.930 . S
H1206 C1222 0.959 . S
H1207 C1222 0.959 . S
H1208 C1222 0.961 . S
H1209 C1223 0.960 . S
H1210 C1223 0.961 . S
H1211 C1223 0.959 . S
H1212 C1226 0.929 . S
H1213 C1227 0.931 . S
H1214 C1229 0.930 . S
C1215 H1203 0.930 . S
C1215 C1216 1.399 . S
C1215 C1220 1.399 . S
C1216 C1215 1.399 . S
C1216 C1217 1.376 . S
C1217 H1204 0.930 . S
C1217 C1216 1.376 . S
C1217 C1218 1.388 . S
C1218 H1205 0.930 . S
C1218 C1217 1.388 . S
C1218 C1219 1.390 . S
C1219 C1218 1.390 . S
C1219 C1220 1.394 . S
C1219 C1225 1.465 . S
C1220 C1215 1.399 . S
C1220 C1219 1.394 . S
C1220 C1221 1.516 . S
C1221 C1220 1.516 . S
C1221 C1222 1.502 . S
C1221 C1223 1.561 . S
C1221 C1224 1.526 . S
C1222 H1206 0.959 . S
C1222 H1207 0.959 . S
C1222 H1208 0.961 . S
C1222 C1221 1.502 . S
C1223 H1209 0.960 . S
C1223 H1210 0.961 . S
C1223 H1211 0.959 . S
C1223 C1221 1.561 . S
C1224 C1221 1.526 . S
C1224 C1225 1.396 . S
C1224 C1229 1.390 . S
C1225 C1219 1.465 . S
C1225 C1224 1.396 . S
C1225 C1226 1.399 . S
C1226 H1212 0.929 . S
C1226 C1225 1.399 . S
C1226 C1227 1.385 . S
C1227 H1213 0.931 . S
C1227 C1226 1.385 . S
C1227 C1228 1.389 . S
C1228 C1227 1.389 . S
C1228 C1229 1.387 . S
C1229 H1214 0.930 . S
C1229 C1224 1.390 . S
C1229 C1228 1.387 . S
H1230 C1242 0.930 . S
H1231 C1244 0.930 . S
H1232 C1245 0.930 . S
H1233 C1249 0.959 . S
H1234 C1249 0.959 . S
H1235 C1249 0.961 . S
H1236 C1250 0.960 . S
H1237 C1250 0.961 . S
H1238 C1250 0.959 . S
H1239 C1253 0.929 . S
H1240 C1254 0.931 . S
H1241 C1256 0.930 . S
C1242 H1230 0.930 . S
C1242 C1243 1.399 . S
C1242 C1247 1.399 . S
C1243 C1242 1.399 . S
C1243 C1244 1.376 . S
C1244 H1231 0.930 . S
C1244 C1243 1.376 . S
C1244 C1245 1.388 . S
C1245 H1232 0.930 . S
C1245 C1244 1.388 . S
C1245 C1246 1.390 . S
C1246 C1245 1.390 . S
C1246 C1247 1.394 . S
C1246 C1252 1.465 . S
C1247 C1242 1.399 . S
C1247 C1246 1.394 . S
C1247 C1248 1.516 . S
C1248 C1247 1.516 . S
C1248 C1249 1.502 . S
C1248 C1250 1.561 . S
C1248 C1251 1.526 . S
C1249 H1233 0.959 . S
C1249 H1234 0.959 . S
C1249 H1235 0.961 . S
C1249 C1248 1.502 . S
C1250 H1236 0.960 . S
C1250 H1237 0.961 . S
C1250 H1238 0.959 . S
C1250 C1248 1.561 . S
C1251 C1248 1.526 . S
C1251 C1252 1.396 . S
C1251 C1256 1.390 . S
C1252 C1246 1.465 . S
C1252 C1251 1.396 . S
C1252 C1253 1.399 . S
C1253 H1239 0.929 . S
C1253 C1252 1.399 . S
C1253 C1254 1.385 . S
C1254 H1240 0.931 . S
C1254 C1253 1.385 . S
C1254 C1255 1.389 . S
C1255 C1254 1.389 . S
C1255 C1256 1.387 . S
C1256 H1241 0.930 . S
C1256 C1251 1.390 . S
C1256 C1255 1.387 . S
H1257 C1269 0.930 . S
H1258 C1271 0.930 . S
H1259 C1272 0.930 . S
H1260 C1276 0.959 . S
H1261 C1276 0.959 . S
H1262 C1276 0.961 . S
H1263 C1277 0.960 . S
H1264 C1277 0.961 . S
H1265 C1277 0.959 . S
H1266 C1280 0.929 . S
H1267 C1281 0.931 . S
H1268 C1283 0.930 . S
C1269 H1257 0.930 . S
C1269 C1270 1.399 . S
C1269 C1274 1.399 . S
C1270 C1269 1.399 . S
C1270 C1271 1.376 . S
C1271 H1258 0.930 . S
C1271 C1270 1.376 . S
C1271 C1272 1.388 . S
C1272 H1259 0.930 . S
C1272 C1271 1.388 . S
C1272 C1273 1.390 . S
C1273 C1272 1.390 . S
C1273 C1274 1.394 . S
C1273 C1279 1.465 . S
C1274 C1269 1.399 . S
C1274 C1273 1.394 . S
C1274 C1275 1.516 . S
C1275 C1274 1.516 . S
C1275 C1276 1.502 . S
C1275 C1277 1.561 . S
C1275 C1278 1.526 . S
C1276 H1260 0.959 . S
C1276 H1261 0.959 . S
C1276 H1262 0.961 . S
C1276 C1275 1.502 . S
C1277 H1263 0.960 . S
C1277 H1264 0.961 . S
C1277 H1265 0.959 . S
C1277 C1275 1.561 . S
C1278 C1275 1.526 . S
C1278 C1279 1.396 . S
C1278 C1283 1.390 . S
C1279 C1273 1.465 . S
C1279 C1278 1.396 . S
C1279 C1280 1.399 . S
C1280 H1266 0.929 . S
C1280 C1279 1.399 . S
C1280 C1281 1.385 . S
C1281 H1267 0.931 . S
C1281 C1280 1.385 . S
C1281 C1282 1.389 . S
C1282 C1281 1.389 . S
C1282 C1283 1.387 . S
C1283 H1268 0.930 . S
C1283 C1278 1.390 . S
C1283 C1282 1.387 . S
H1284 C1296 0.930 . S
H1285 C1298 0.930 . S
H1286 C1299 0.930 . S
H1287 C1303 0.959 . S
H1288 C1303 0.959 . S
H1289 C1303 0.961 . S
H1290 C1304 0.960 . S
H1291 C1304 0.961 . S
H1292 C1304 0.959 . S
H1293 C1307 0.929 . S
H1294 C1308 0.931 . S
H1295 C1310 0.930 . S
C1296 H1284 0.930 . S
C1296 C1297 1.399 . S
C1296 C1301 1.399 . S
C1297 C1296 1.399 . S
C1297 C1298 1.376 . S
C1298 H1285 0.930 . S
C1298 C1297 1.376 . S
C1298 C1299 1.388 . S
C1299 H1286 0.930 . S
C1299 C1298 1.388 . S
C1299 C1300 1.390 . S
C1300 C1299 1.390 . S
C1300 C1301 1.394 . S
C1300 C1306 1.465 . S
C1301 C1296 1.399 . S
C1301 C1300 1.394 . S
C1301 C1302 1.516 . S
C1302 C1301 1.516 . S
C1302 C1303 1.502 . S
C1302 C1304 1.561 . S
C1302 C1305 1.526 . S
C1303 H1287 0.959 . S
C1303 H1288 0.959 . S
C1303 H1289 0.961 . S
C1303 C1302 1.502 . S
C1304 H1290 0.960 . S
C1304 H1291 0.961 . S
C1304 H1292 0.959 . S
C1304 C1302 1.561 . S
C1305 C1302 1.526 . S
C1305 C1306 1.396 . S
C1305 C1310 1.390 . S
C1306 C1300 1.465 . S
C1306 C1305 1.396 . S
C1306 C1307 1.399 . S
C1307 H1293 0.929 . S
C1307 C1306 1.399 . S
C1307 C1308 1.385 . S
C1308 H1294 0.931 . S
C1308 C1307 1.385 . S
C1308 C1309 1.389 . S
C1309 C1308 1.389 . S
C1309 C1310 1.387 . S
C1310 H1295 0.930 . S
C1310 C1305 1.390 . S
C1310 C1309 1.387 . S
H1311 C1323 0.930 . S
H1312 C1325 0.930 . S
H1313 C1326 0.930 . S
H1314 C1330 0.959 . S
H1315 C1330 0.959 . S
H1316 C1330 0.961 . S
H1317 C1331 0.960 . S
H1318 C1331 0.961 . S
H1319 C1331 0.959 . S
H1320 C1334 0.929 . S
H1321 C1335 0.931 . S
H1322 C1337 0.930 . S
C1323 H1311 0.930 . S
C1323 C1324 1.399 . S
C1323 C1328 1.399 . S
C1324 C1323 1.399 . S
C1324 C1325 1.376 . S
C1325 H1312 0.930 . S
C1325 C1324 1.376 . S
C1325 C1326 1.388 . S
C1326 H1313 0.930 . S
C1326 C1325 1.388 . S
C1326 C1327 1.390 . S
C1327 C1326 1.390 . S
C1327 C1328 1.394 . S
C1327 C1333 1.465 . S
C1328 C1323 1.399 . S
C1328 C1327 1.394 . S
C1328 C1329 1.516 . S
C1329 C1328 1.516 . S
C1329 C1330 1.502 . S
C1329 C1331 1.561 . S
C1329 C1332 1.526 . S
C1330 H1314 0.959 . S
C1330 H1315 0.959 . S
C1330 H1316 0.961 . S
C1330 C1329 1.502 . S
C1331 H1317 0.960 . S
C1331 H1318 0.961 . S
C1331 H1319 0.959 . S
C1331 C1329 1.561 . S
C1332 C1329 1.526 . S
C1332 C1333 1.396 . S
C1332 C1337 1.390 . S
C1333 C1327 1.465 . S
C1333 C1332 1.396 . S
C1333 C1334 1.399 . S
C1334 H1320 0.929 . S
C1334 C1333 1.399 . S
C1334 C1335 1.385 . S
C1335 H1321 0.931 . S
C1335 C1334 1.385 . S
C1335 C1336 1.389 . S
C1336 C1335 1.389 . S
C1336 C1337 1.387 . S
C1337 H1322 0.930 . S
C1337 C1332 1.390 . S
C1337 C1336 1.387 . S
H1338 C1350 0.930 . S
H1339 C1352 0.930 . S
H1340 C1353 0.930 . S
H1341 C1357 0.959 . S
H1342 C1357 0.959 . S
H1343 C1357 0.961 . S
H1344 C1358 0.960 . S
H1345 C1358 0.961 . S
H1346 C1358 0.959 . S
H1347 C1361 0.929 . S
H1348 C1362 0.931 . S
H1349 C1364 0.930 . S
C1350 H1338 0.930 . S
C1350 C1351 1.399 . S
C1350 C1355 1.399 . S
C1351 C1350 1.399 . S
C1351 C1352 1.376 . S
C1352 H1339 0.930 . S
C1352 C1351 1.376 . S
C1352 C1353 1.388 . S
C1353 H1340 0.930 . S
C1353 C1352 1.388 . S
C1353 C1354 1.390 . S
C1354 C1353 1.390 . S
C1354 C1355 1.394 . S
C1354 C1360 1.465 . S
C1355 C1350 1.399 . S
C1355 C1354 1.394 . S
C1355 C1356 1.516 . S
C1356 C1355 1.516 . S
C1356 C1357 1.502 . S
C1356 C1358 1.561 . S
C1356 C1359 1.526 . S
C1357 H1341 0.959 . S
C1357 H1342 0.959 . S
C1357 H1343 0.961 . S
C1357 C1356 1.502 . S
C1358 H1344 0.960 . S
C1358 H1345 0.961 . S
C1358 H1346 0.959 . S
C1358 C1356 1.561 . S
C1359 C1356 1.526 . S
C1359 C1360 1.396 . S
C1359 C1364 1.390 . S
C1360 C1354 1.465 . S
C1360 C1359 1.396 . S
C1360 C1361 1.399 . S
C1361 H1347 0.929 . S
C1361 C1360 1.399 . S
C1361 C1362 1.385 . S
C1362 H1348 0.931 . S
C1362 C1361 1.385 . S
C1362 C1363 1.389 . S
C1363 C1362 1.389 . S
C1363 C1364 1.387 . S
C1364 H1349 0.930 . S
C1364 C1359 1.390 . S
C1364 C1363 1.387 . S
H1365 C1377 0.930 . S
H1366 C1379 0.930 . S
H1367 C1380 0.930 . S
H1368 C1384 0.959 . S
H1369 C1384 0.959 . S
H1370 C1384 0.961 . S
H1371 C1385 0.960 . S
H1372 C1385 0.961 . S
H1373 C1385 0.959 . S
H1374 C1388 0.929 . S
H1375 C1389 0.931 . S
H1376 C1391 0.930 . S
C1377 H1365 0.930 . S
C1377 C1378 1.399 . S
C1377 C1382 1.399 . S
C1378 C1377 1.399 . S
C1378 C1379 1.376 . S
C1379 H1366 0.930 . S
C1379 C1378 1.376 . S
C1379 C1380 1.388 . S
C1380 H1367 0.930 . S
C1380 C1379 1.388 . S
C1380 C1381 1.390 . S
C1381 C1380 1.390 . S
C1381 C1382 1.394 . S
C1381 C1387 1.465 . S
C1382 C1377 1.399 . S
C1382 C1381 1.394 . S
C1382 C1383 1.516 . S
C1383 C1382 1.516 . S
C1383 C1384 1.502 . S
C1383 C1385 1.561 . S
C1383 C1386 1.526 . S
C1384 H1368 0.959 . S
C1384 H1369 0.959 . S
C1384 H1370 0.961 . S
C1384 C1383 1.502 . S
C1385 H1371 0.960 . S
C1385 H1372 0.961 . S
C1385 H1373 0.959 . S
C1385 C1383 1.561 . S
C1386 C1383 1.526 . S
C1386 C1387 1.396 . S
C1386 C1391 1.390 . S
C1387 C1381 1.465 . S
C1387 C1386 1.396 . S
C1387 C1388 1.399 . S
C1388 H1374 0.929 . S
C1388 C1387 1.399 . S
C1388 C1389 1.385 . S
C1389 H1375 0.931 . S
C1389 C1388 1.385 . S
C1389 C1390 1.389 . S
C1390 C1389 1.389 . S
C1390 C1391 1.387 . S
C1391 H1376 0.930 . S
C1391 C1386 1.390 . S
C1391 C1390 1.387 . S
H1392 C1404 0.930 . S
H1393 C1406 0.930 . S
H1394 C1407 0.930 . S
H1395 C1411 0.959 . S
H1396 C1411 0.959 . S
H1397 C1411 0.961 . S
H1398 C1412 0.960 . S
H1399 C1412 0.961 . S
H1400 C1412 0.959 . S
H1401 C1415 0.929 . S
H1402 C1416 0.931 . S
H1403 C1418 0.930 . S
C1404 H1392 0.930 . S
C1404 C1405 1.399 . S
C1404 C1409 1.399 . S
C1405 C1404 1.399 . S
C1405 C1406 1.376 . S
C1406 H1393 0.930 . S
C1406 C1405 1.376 . S
C1406 C1407 1.388 . S
C1407 H1394 0.930 . S
C1407 C1406 1.388 . S
C1407 C1408 1.390 . S
C1408 C1407 1.390 . S
C1408 C1409 1.394 . S
C1408 C1414 1.465 . S
C1409 C1404 1.399 . S
C1409 C1408 1.394 . S
C1409 C1410 1.516 . S
C1410 C1409 1.516 . S
C1410 C1411 1.502 . S
C1410 C1412 1.561 . S
C1410 C1413 1.526 . S
C1411 H1395 0.959 . S
C1411 H1396 0.959 . S
C1411 H1397 0.961 . S
C1411 C1410 1.502 . S
C1412 H1398 0.960 . S
C1412 H1399 0.961 . S
C1412 H1400 0.959 . S
C1412 C1410 1.561 . S
C1413 C1410 1.526 . S
C1413 C1414 1.396 . S
C1413 C1418 1.390 . S
C1414 C1408 1.465 . S
C1414 C1413 1.396 . S
C1414 C1415 1.399 . S
C1415 H1401 0.929 . S
C1415 C1414 1.399 . S
C1415 C1416 1.385 . S
C1416 H1402 0.931 . S
C1416 C1415 1.385 . S
C1416 C1417 1.389 . S
C1417 C1416 1.389 . S
C1417 C1418 1.387 . S
C1418 H1403 0.930 . S
C1418 C1413 1.390 . S
C1418 C1417 1.387 . S
H1419 C1431 0.930 . S
H1420 C1433 0.930 . S
H1421 C1434 0.930 . S
H1422 C1438 0.959 . S
H1423 C1438 0.959 . S
H1424 C1438 0.961 . S
H1425 C1439 0.960 . S
H1426 C1439 0.961 . S
H1427 C1439 0.959 . S
H1428 C1442 0.929 . S
H1429 C1443 0.931 . S
H1430 C1445 0.930 . S
C1431 H1419 0.930 . S
C1431 C1432 1.399 . S
C1431 C1436 1.399 . S
C1432 C1431 1.399 . S
C1432 C1433 1.376 . S
C1433 H1420 0.930 . S
C1433 C1432 1.376 . S
C1433 C1434 1.388 . S
C1434 H1421 0.930 . S
C1434 C1433 1.388 . S
C1434 C1435 1.390 . S
C1435 C1434 1.390 . S
C1435 C1436 1.394 . S
C1435 C1441 1.465 . S
C1436 C1431 1.399 . S
C1436 C1435 1.394 . S
C1436 C1437 1.516 . S
C1437 C1436 1.516 . S
C1437 C1438 1.502 . S
C1437 C1439 1.561 . S
C1437 C1440 1.526 . S
C1438 H1422 0.959 . S
C1438 H1423 0.959 . S
C1438 H1424 0.961 . S
C1438 C1437 1.502 . S
C1439 H1425 0.960 . S
C1439 H1426 0.961 . S
C1439 H1427 0.959 . S
C1439 C1437 1.561 . S
C1440 C1437 1.526 . S
C1440 C1441 1.396 . S
C1440 C1445 1.390 . S
C1441 C1435 1.465 . S
C1441 C1440 1.396 . S
C1441 C1442 1.399 . S
C1442 H1428 0.929 . S
C1442 C1441 1.399 . S
C1442 C1443 1.385 . S
C1443 H1429 0.931 . S
C1443 C1442 1.385 . S
C1443 C1444 1.389 . S
C1444 C1443 1.389 . S
C1444 C1445 1.387 . S
C1445 H1430 0.930 . S
C1445 C1440 1.390 . S
C1445 C1444 1.387 . S
H1446 C1458 0.930 . S
H1447 C1460 0.930 . S
H1448 C1461 0.930 . S
H1449 C1465 0.959 . S
H1450 C1465 0.959 . S
H1451 C1465 0.961 . S
H1452 C1466 0.960 . S
H1453 C1466 0.961 . S
H1454 C1466 0.959 . S
H1455 C1469 0.929 . S
H1456 C1470 0.931 . S
H1457 C1472 0.930 . S
C1458 H1446 0.930 . S
C1458 C1459 1.399 . S
C1458 C1463 1.399 . S
C1459 C1458 1.399 . S
C1459 C1460 1.376 . S
C1460 H1447 0.930 . S
C1460 C1459 1.376 . S
C1460 C1461 1.388 . S
C1461 H1448 0.930 . S
C1461 C1460 1.388 . S
C1461 C1462 1.390 . S
C1462 C1461 1.390 . S
C1462 C1463 1.394 . S
C1462 C1468 1.465 . S
C1463 C1458 1.399 . S
C1463 C1462 1.394 . S
C1463 C1464 1.516 . S
C1464 C1463 1.516 . S
C1464 C1465 1.502 . S
C1464 C1466 1.561 . S
C1464 C1467 1.526 . S
C1465 H1449 0.959 . S
C1465 H1450 0.959 . S
C1465 H1451 0.961 . S
C1465 C1464 1.502 . S
C1466 H1452 0.960 . S
C1466 H1453 0.961 . S
C1466 H1454 0.959 . S
C1466 C1464 1.561 . S
C1467 C1464 1.526 . S
C1467 C1468 1.396 . S
C1467 C1472 1.390 . S
C1468 C1462 1.465 . S
C1468 C1467 1.396 . S
C1468 C1469 1.399 . S
C1469 H1455 0.929 . S
C1469 C1468 1.399 . S
C1469 C1470 1.385 . S
C1470 H1456 0.931 . S
C1470 C1469 1.385 . S
C1470 C1471 1.389 . S
C1471 C1470 1.389 . S
C1471 C1472 1.387 . S
C1472 H1457 0.930 . S
C1472 C1467 1.390 . S
C1472 C1471 1.387 . S
H1473 C1485 0.930 . S
H1474 C1487 0.930 . S
H1475 C1488 0.930 . S
H1476 C1492 0.959 . S
H1477 C1492 0.959 . S
H1478 C1492 0.961 . S
H1479 C1493 0.960 . S
H1480 C1493 0.961 . S
H1481 C1493 0.959 . S
H1482 C1496 0.929 . S
H1483 C1497 0.931 . S
H1484 C1499 0.930 . S
C1485 H1473 0.930 . S
C1485 C1486 1.399 . S
C1485 C1490 1.399 . S
C1486 C1485 1.399 . S
C1486 C1487 1.376 . S
C1487 H1474 0.930 . S
C1487 C1486 1.376 . S
C1487 C1488 1.388 . S
C1488 H1475 0.930 . S
C1488 C1487 1.388 . S
C1488 C1489 1.390 . S
C1489 C1488 1.390 . S
C1489 C1490 1.394 . S
C1489 C1495 1.465 . S
C1490 C1485 1.399 . S
C1490 C1489 1.394 . S
C1490 C1491 1.516 . S
C1491 C1490 1.516 . S
C1491 C1492 1.502 . S
C1491 C1493 1.561 . S
C1491 C1494 1.526 . S
C1492 H1476 0.959 . S
C1492 H1477 0.959 . S
C1492 H1478 0.961 . S
C1492 C1491 1.502 . S
C1493 H1479 0.960 . S
C1493 H1480 0.961 . S
C1493 H1481 0.959 . S
C1493 C1491 1.561 . S
C1494 C1491 1.526 . S
C1494 C1495 1.396 . S
C1494 C1499 1.390 . S
C1495 C1489 1.465 . S
C1495 C1494 1.396 . S
C1495 C1496 1.399 . S
C1496 H1482 0.929 . S
C1496 C1495 1.399 . S
C1496 C1497 1.385 . S
C1497 H1483 0.931 . S
C1497 C1496 1.385 . S
C1497 C1498 1.389 . S
C1498 C1497 1.389 . S
C1498 C1499 1.387 . S
C1499 H1484 0.930 . S
C1499 C1494 1.390 . S
C1499 C1498 1.387 . S
H1500 C1512 0.930 . S
H1501 C1514 0.930 . S
H1502 C1515 0.930 . S
H1503 C1519 0.959 . S
H1504 C1519 0.959 . S
H1505 C1519 0.961 . S
H1506 C1520 0.960 . S
H1507 C1520 0.961 . S
H1508 C1520 0.959 . S
H1509 C1523 0.929 . S
H1510 C1524 0.931 . S
H1511 C1526 0.930 . S
C1512 H1500 0.930 . S
C1512 C1513 1.399 . S
C1512 C1517 1.399 . S
C1513 C1512 1.399 . S
C1513 C1514 1.376 . S
C1514 H1501 0.930 . S
C1514 C1513 1.376 . S
C1514 C1515 1.388 . S
C1515 H1502 0.930 . S
C1515 C1514 1.388 . S
C1515 C1516 1.390 . S
C1516 C1515 1.390 . S
C1516 C1517 1.394 . S
C1516 C1522 1.465 . S
C1517 C1512 1.399 . S
C1517 C1516 1.394 . S
C1517 C1518 1.516 . S
C1518 C1517 1.516 . S
C1518 C1519 1.502 . S
C1518 C1520 1.561 . S
C1518 C1521 1.526 . S
C1519 H1503 0.959 . S
C1519 H1504 0.959 . S
C1519 H1505 0.961 . S
C1519 C1518 1.502 . S
C1520 H1506 0.960 . S
C1520 H1507 0.961 . S
C1520 H1508 0.959 . S
C1520 C1518 1.561 . S
C1521 C1518 1.526 . S
C1521 C1522 1.396 . S
C1521 C1526 1.390 . S
C1522 C1516 1.465 . S
C1522 C1521 1.396 . S
C1522 C1523 1.399 . S
C1523 H1509 0.929 . S
C1523 C1522 1.399 . S
C1523 C1524 1.385 . S
C1524 H1510 0.931 . S
C1524 C1523 1.385 . S
C1524 C1525 1.389 . S
C1525 C1524 1.389 . S
C1525 C1526 1.387 . S
C1526 H1511 0.930 . S
C1526 C1521 1.390 . S
C1526 C1525 1.387 . S
H1527 C1539 0.930 . S
H1528 C1541 0.930 . S
H1529 C1542 0.930 . S
H1530 C1546 0.959 . S
H1531 C1546 0.959 . S
H1532 C1546 0.961 . S
H1533 C1547 0.960 . S
H1534 C1547 0.961 . S
H1535 C1547 0.959 . S
H1536 C1550 0.929 . S
H1537 C1551 0.931 . S
H1538 C1553 0.930 . S
C1539 H1527 0.930 . S
C1539 C1540 1.399 . S
C1539 C1544 1.399 . S
C1540 C1539 1.399 . S
C1540 C1541 1.376 . S
C1541 H1528 0.930 . S
C1541 C1540 1.376 . S
C1541 C1542 1.388 . S
C1542 H1529 0.930 . S
C1542 C1541 1.388 . S
C1542 C1543 1.390 . S
C1543 C1542 1.390 . S
C1543 C1544 1.394 . S
C1543 C1549 1.465 . S
C1544 C1539 1.399 . S
C1544 C1543 1.394 . S
C1544 C1545 1.516 . S
C1545 C1544 1.516 . S
C1545 C1546 1.502 . S
C1545 C1547 1.561 . S
C1545 C1548 1.526 . S
C1546 H1530 0.959 . S
C1546 H1531 0.959 . S
C1546 H1532 0.961 . S
C1546 C1545 1.502 . S
C1547 H1533 0.960 . S
C1547 H1534 0.961 . S
C1547 H1535 0.959 . S
C1547 C1545 1.561 . S
C1548 C1545 1.526 . S
C1548 C1549 1.396 . S
C1548 C1553 1.390 . S
C1549 C1543 1.465 . S
C1549 C1548 1.396 . S
C1549 C1550 1.399 . S
C1550 H1536 0.929 . S
C1550 C1549 1.399 . S
C1550 C1551 1.385 . S
C1551 H1537 0.931 . S
C1551 C1550 1.385 . S
C1551 C1552 1.389 . S
C1552 C1551 1.389 . S
C1552 C1553 1.387 . S
C1553 H1538 0.930 . S
C1553 C1548 1.390 . S
C1553 C1552 1.387 . S
H1554 C1566 0.930 . S
H1555 C1568 0.930 . S
H1556 C1569 0.930 . S
H1557 C1573 0.959 . S
H1558 C1573 0.959 . S
H1559 C1573 0.961 . S
H1560 C1574 0.960 . S
H1561 C1574 0.961 . S
H1562 C1574 0.959 . S
H1563 C1577 0.929 . S
H1564 C1578 0.931 . S
H1565 C1580 0.930 . S
C1566 H1554 0.930 . S
C1566 C1567 1.399 . S
C1566 C1571 1.399 . S
C1567 C1566 1.399 . S
C1567 C1568 1.376 . S
C1568 H1555 0.930 . S
C1568 C1567 1.376 . S
C1568 C1569 1.388 . S
C1569 H1556 0.930 . S
C1569 C1568 1.388 . S
C1569 C1570 1.390 . S
C1570 C1569 1.390 . S
C1570 C1571 1.394 . S
C1570 C1576 1.465 . S
C1571 C1566 1.399 . S
C1571 C1570 1.394 . S
C1571 C1572 1.516 . S
C1572 C1571 1.516 . S
C1572 C1573 1.502 . S
C1572 C1574 1.561 . S
C1572 C1575 1.526 . S
C1573 H1557 0.959 . S
C1573 H1558 0.959 . S
C1573 H1559 0.961 . S
C1573 C1572 1.502 . S
C1574 H1560 0.960 . S
C1574 H1561 0.961 . S
C1574 H1562 0.959 . S
C1574 C1572 1.561 . S
C1575 C1572 1.526 . S
C1575 C1576 1.396 . S
C1575 C1580 1.390 . S
C1576 C1570 1.465 . S
C1576 C1575 1.396 . S
C1576 C1577 1.399 . S
C1577 H1563 0.929 . S
C1577 C1576 1.399 . S
C1577 C1578 1.385 . S
C1578 H1564 0.931 . S
C1578 C1577 1.385 . S
C1578 C1579 1.389 . S
C1579 C1578 1.389 . S
C1579 C1580 1.387 . S
C1580 H1565 0.930 . S
C1580 C1575 1.390 . S
C1580 C1579 1.387 . S
H1581 C1593 0.930 . S
H1582 C1595 0.930 . S
H1583 C1596 0.930 . S
H1584 C1600 0.959 . S
H1585 C1600 0.959 . S
H1586 C1600 0.961 . S
H1587 C1601 0.960 . S
H1588 C1601 0.961 . S
H1589 C1601 0.959 . S
H1590 C1604 0.929 . S
H1591 C1605 0.931 . S
H1592 C1607 0.930 . S
C1593 H1581 0.930 . S
C1593 C1594 1.399 . S
C1593 C1598 1.399 . S
C1594 C1593 1.399 . S
C1594 C1595 1.376 . S
C1595 H1582 0.930 . S
C1595 C1594 1.376 . S
C1595 C1596 1.388 . S
C1596 H1583 0.930 . S
C1596 C1595 1.388 . S
C1596 C1597 1.390 . S
C1597 C1596 1.390 . S
C1597 C1598 1.394 . S
C1597 C1603 1.465 . S
C1598 C1593 1.399 . S
C1598 C1597 1.394 . S
C1598 C1599 1.516 . S
C1599 C1598 1.516 . S
C1599 C1600 1.502 . S
C1599 C1601 1.561 . S
C1599 C1602 1.526 . S
C1600 H1584 0.959 . S
C1600 H1585 0.959 . S
C1600 H1586 0.961 . S
C1600 C1599 1.502 . S
C1601 H1587 0.960 . S
C1601 H1588 0.961 . S
C1601 H1589 0.959 . S
C1601 C1599 1.561 . S
C1602 C1599 1.526 . S
C1602 C1603 1.396 . S
C1602 C1607 1.390 . S
C1603 C1597 1.465 . S
C1603 C1602 1.396 . S
C1603 C1604 1.399 . S
C1604 H1590 0.929 . S
C1604 C1603 1.399 . S
C1604 C1605 1.385 . S
C1605 H1591 0.931 . S
C1605 C1604 1.385 . S
C1605 C1606 1.389 . S
C1606 C1605 1.389 . S
C1606 C1607 1.387 . S
C1607 H1592 0.930 . S
C1607 C1602 1.390 . S
C1607 C1606 1.387 . S
H1608 C1620 0.930 . S
H1609 C1622 0.930 . S
H1610 C1623 0.930 . S
H1611 C1627 0.959 . S
H1612 C1627 0.959 . S
H1613 C1627 0.961 . S
H1614 C1628 0.960 . S
H1615 C1628 0.961 . S
H1616 C1628 0.959 . S
H1617 C1631 0.929 . S
H1618 C1632 0.931 . S
H1619 C1634 0.930 . S
C1620 H1608 0.930 . S
C1620 C1621 1.399 . S
C1620 C1625 1.399 . S
C1621 C1620 1.399 . S
C1621 C1622 1.376 . S
C1622 H1609 0.930 . S
C1622 C1621 1.376 . S
C1622 C1623 1.388 . S
C1623 H1610 0.930 . S
C1623 C1622 1.388 . S
C1623 C1624 1.390 . S
C1624 C1623 1.390 . S
C1624 C1625 1.394 . S
C1624 C1630 1.465 . S
C1625 C1620 1.399 . S
C1625 C1624 1.394 . S
C1625 C1626 1.516 . S
C1626 C1625 1.516 . S
C1626 C1627 1.502 . S
C1626 C1628 1.561 . S
C1626 C1629 1.526 . S
C1627 H1611 0.959 . S
C1627 H1612 0.959 . S
C1627 H1613 0.961 . S
C1627 C1626 1.502 . S
C1628 H1614 0.960 . S
C1628 H1615 0.961 . S
C1628 H1616 0.959 . S
C1628 C1626 1.561 . S
C1629 C1626 1.526 . S
C1629 C1630 1.396 . S
C1629 C1634 1.390 . S
C1630 C1624 1.465 . S
C1630 C1629 1.396 . S
C1630 C1631 1.399 . S
C1631 H1617 0.929 . S
C1631 C1630 1.399 . S
C1631 C1632 1.385 . S
C1632 H1618 0.931 . S
C1632 C1631 1.385 . S
C1632 C1633 1.389 . S
C1633 C1632 1.389 . S
C1633 C1634 1.387 . S
C1634 H1619 0.930 . S
C1634 C1629 1.390 . S
C1634 C1633 1.387 . S
H1635 C1647 0.930 . S
H1636 C1649 0.930 . S
H1637 C1650 0.930 . S
H1638 C1654 0.959 . S
H1639 C1654 0.959 . S
H1640 C1654 0.961 . S
H1641 C1655 0.960 . S
H1642 C1655 0.961 . S
H1643 C1655 0.959 . S
H1644 C1658 0.929 . S
H1645 C1659 0.931 . S
H1646 C1661 0.930 . S
C1647 H1635 0.930 . S
C1647 C1648 1.399 . S
C1647 C1652 1.399 . S
C1648 C1647 1.399 . S
C1648 C1649 1.376 . S
C1649 H1636 0.930 . S
C1649 C1648 1.376 . S
C1649 C1650 1.388 . S
C1650 H1637 0.930 . S
C1650 C1649 1.388 . S
C1650 C1651 1.390 . S
C1651 C1650 1.390 . S
C1651 C1652 1.394 . S
C1651 C1657 1.465 . S
C1652 C1647 1.399 . S
C1652 C1651 1.394 . S
C1652 C1653 1.516 . S
C1653 C1652 1.516 . S
C1653 C1654 1.502 . S
C1653 C1655 1.561 . S
C1653 C1656 1.526 . S
C1654 H1638 0.959 . S
C1654 H1639 0.959 . S
C1654 H1640 0.961 . S
C1654 C1653 1.502 . S
C1655 H1641 0.960 . S
C1655 H1642 0.961 . S
C1655 H1643 0.959 . S
C1655 C1653 1.561 . S
C1656 C1653 1.526 . S
C1656 C1657 1.396 . S
C1656 C1661 1.390 . S
C1657 C1651 1.465 . S
C1657 C1656 1.396 . S
C1657 C1658 1.399 . S
C1658 H1644 0.929 . S
C1658 C1657 1.399 . S
C1658 C1659 1.385 . S
C1659 H1645 0.931 . S
C1659 C1658 1.385 . S
C1659 C1660 1.389 . S
C1660 C1659 1.389 . S
C1660 C1661 1.387 . S
C1661 H1646 0.930 . S
C1661 C1656 1.390 . S
C1661 C1660 1.387 . S
H1662 C1674 0.930 . S
H1663 C1676 0.930 . S
H1664 C1677 0.930 . S
H1665 C1681 0.959 . S
H1666 C1681 0.959 . S
H1667 C1681 0.961 . S
H1668 C1682 0.960 . S
H1669 C1682 0.961 . S
H1670 C1682 0.959 . S
H1671 C1685 0.929 . S
H1672 C1686 0.931 . S
H1673 C1688 0.930 . S
C1674 H1662 0.930 . S
C1674 C1675 1.399 . S
C1674 C1679 1.399 . S
C1675 C1674 1.399 . S
C1675 C1676 1.376 . S
C1676 H1663 0.930 . S
C1676 C1675 1.376 . S
C1676 C1677 1.388 . S
C1677 H1664 0.930 . S
C1677 C1676 1.388 . S
C1677 C1678 1.390 . S
C1678 C1677 1.390 . S
C1678 C1679 1.394 . S
C1678 C1684 1.465 . S
C1679 C1674 1.399 . S
C1679 C1678 1.394 . S
C1679 C1680 1.516 . S
C1680 C1679 1.516 . S
C1680 C1681 1.502 . S
C1680 C1682 1.561 . S
C1680 C1683 1.526 . S
C1681 H1665 0.959 . S
C1681 H1666 0.959 . S
C1681 H1667 0.961 . S
C1681 C1680 1.502 . S
C1682 H1668 0.960 . S
C1682 H1669 0.961 . S
C1682 H1670 0.959 . S
C1682 C1680 1.561 . S
C1683 C1680 1.526 . S
C1683 C1684 1.396 . S
C1683 C1688 1.390 . S
C1684 C1678 1.465 . S
C1684 C1683 1.396 . S
C1684 C1685 1.399 . S
C1685 H1671 0.929 . S
C1685 C1684 1.399 . S
C1685 C1686 1.385 . S
C1686 H1672 0.931 . S
C1686 C1685 1.385 . S
C1686 C1687 1.389 . S
C1687 C1686 1.389 . S
C1687 C1688 1.387 . S
C1688 H1673 0.930 . S
C1688 C1683 1.390 . S
C1688 C1687 1.387 . S
H1689 C1701 0.930 . S
H1690 C1703 0.930 . S
H1691 C1704 0.930 . S
H1692 C1708 0.959 . S
H1693 C1708 0.959 . S
H1694 C1708 0.961 . S
H1695 C1709 0.960 . S
H1696 C1709 0.961 . S
H1697 C1709 0.959 . S
H1698 C1712 0.929 . S
H1699 C1713 0.931 . S
H1700 C1715 0.930 . S
C1701 H1689 0.930 . S
C1701 C1702 1.399 . S
C1701 C1706 1.399 . S
C1702 C1701 1.399 . S
C1702 C1703 1.376 . S
C1703 H1690 0.930 . S
C1703 C1702 1.376 . S
C1703 C1704 1.388 . S
C1704 H1691 0.930 . S
C1704 C1703 1.388 . S
C1704 C1705 1.390 . S
C1705 C1704 1.390 . S
C1705 C1706 1.394 . S
C1705 C1711 1.465 . S
C1706 C1701 1.399 . S
C1706 C1705 1.394 . S
C1706 C1707 1.516 . S
C1707 C1706 1.516 . S
C1707 C1708 1.502 . S
C1707 C1709 1.561 . S
C1707 C1710 1.526 . S
C1708 H1692 0.959 . S
C1708 H1693 0.959 . S
C1708 H1694 0.961 . S
C1708 C1707 1.502 . S
C1709 H1695 0.960 . S
C1709 H1696 0.961 . S
C1709 H1697 0.959 . S
C1709 C1707 1.561 . S
C1710 C1707 1.526 . S
C1710 C1711 1.396 . S
C1710 C1715 1.390 . S
C1711 C1705 1.465 . S
C1711 C1710 1.396 . S
C1711 C1712 1.399 . S
C1712 H1698 0.929 . S
C1712 C1711 1.399 . S
C1712 C1713 1.385 . S
C1713 H1699 0.931 . S
C1713 C1712 1.385 . S
C1713 C1714 1.389 . S
C1714 C1713 1.389 . S
C1714 C1715 1.387 . S
C1715 H1700 0.930 . S
C1715 C1710 1.390 . S
C1715 C1714 1.387 . S
H1716 C1728 0.930 . S
H1717 C1730 0.930 . S
H1718 C1731 0.930 . S
H1719 C1735 0.959 . S
H1720 C1735 0.959 . S
H1721 C1735 0.961 . S
H1722 C1736 0.960 . S
H1723 C1736 0.961 . S
H1724 C1736 0.959 . S
H1725 C1739 0.929 . S
H1726 C1740 0.931 . S
H1727 C1742 0.930 . S
C1728 H1716 0.930 . S
C1728 C1729 1.399 . S
C1728 C1733 1.399 . S
C1729 C1728 1.399 . S
C1729 C1730 1.376 . S
C1730 H1717 0.930 . S
C1730 C1729 1.376 . S
C1730 C1731 1.388 . S
C1731 H1718 0.930 . S
C1731 C1730 1.388 . S
C1731 C1732 1.390 . S
C1732 C1731 1.390 . S
C1732 C1733 1.394 . S
C1732 C1738 1.465 . S
C1733 C1728 1.399 . S
C1733 C1732 1.394 . S
C1733 C1734 1.516 . S
C1734 C1733 1.516 . S
C1734 C1735 1.502 . S
C1734 C1736 1.561 . S
C1734 C1737 1.526 . S
C1735 H1719 0.959 . S
C1735 H1720 0.959 . S
C1735 H1721 0.961 . S
C1735 C1734 1.502 . S
C1736 H1722 0.960 . S
C1736 H1723 0.961 . S
C1736 H1724 0.959 . S
C1736 C1734 1.561 . S
C1737 C1734 1.526 . S
C1737 C1738 1.396 . S
C1737 C1742 1.390 . S
C1738 C1732 1.465 . S
C1738 C1737 1.396 . S
C1738 C1739 1.399 . S
C1739 H1725 0.929 . S
C1739 C1738 1.399 . S
C1739 C1740 1.385 . S
C1740 H1726 0.931 . S
C1740 C1739 1.385 . S
C1740 C1741 1.389 . S
C1741 C1740 1.389 . S
C1741 C1742 1.387 . S
C1742 H1727 0.930 . S
C1742 C1737 1.390 . S
C1742 C1741 1.387 . S
H1743 C1755 0.930 . S
H1744 C1757 0.930 . S
H1745 C1758 0.930 . S
H1746 C1762 0.959 . S
H1747 C1762 0.959 . S
H1748 C1762 0.961 . S
H1749 C1763 0.960 . S
H1750 C1763 0.961 . S
H1751 C1763 0.959 . S
H1752 C1766 0.929 . S
H1753 C1767 0.931 . S
H1754 C1769 0.930 . S
C1755 H1743 0.930 . S
C1755 C1756 1.399 . S
C1755 C1760 1.399 . S
C1756 C1755 1.399 . S
C1756 C1757 1.376 . S
C1757 H1744 0.930 . S
C1757 C1756 1.376 . S
C1757 C1758 1.388 . S
C1758 H1745 0.930 . S
C1758 C1757 1.388 . S
C1758 C1759 1.390 . S
C1759 C1758 1.390 . S
C1759 C1760 1.394 . S
C1759 C1765 1.465 . S
C1760 C1755 1.399 . S
C1760 C1759 1.394 . S
C1760 C1761 1.516 . S
C1761 C1760 1.516 . S
C1761 C1762 1.502 . S
C1761 C1763 1.561 . S
C1761 C1764 1.526 . S
C1762 H1746 0.959 . S
C1762 H1747 0.959 . S
C1762 H1748 0.961 . S
C1762 C1761 1.502 . S
C1763 H1749 0.960 . S
C1763 H1750 0.961 . S
C1763 H1751 0.959 . S
C1763 C1761 1.561 . S
C1764 C1761 1.526 . S
C1764 C1765 1.396 . S
C1764 C1769 1.390 . S
C1765 C1759 1.465 . S
C1765 C1764 1.396 . S
C1765 C1766 1.399 . S
C1766 H1752 0.929 . S
C1766 C1765 1.399 . S
C1766 C1767 1.385 . S
C1767 H1753 0.931 . S
C1767 C1766 1.385 . S
C1767 C1768 1.389 . S
C1768 C1767 1.389 . S
C1768 C1769 1.387 . S
C1769 H1754 0.930 . S
C1769 C1764 1.390 . S
C1769 C1768 1.387 . S
H1770 C1782 0.930 . S
H1771 C1784 0.930 . S
H1772 C1785 0.930 . S
H1773 C1789 0.959 . S
H1774 C1789 0.959 . S
H1775 C1789 0.961 . S
H1776 C1790 0.960 . S
H1777 C1790 0.961 . S
H1778 C1790 0.959 . S
H1779 C1793 0.929 . S
H1780 C1794 0.931 . S
H1781 C1796 0.930 . S
C1782 H1770 0.930 . S
C1782 C1783 1.399 . S
C1782 C1787 1.399 . S
C1783 C1782 1.399 . S
C1783 C1784 1.376 . S
C1784 H1771 0.930 . S
C1784 C1783 1.376 . S
C1784 C1785 1.388 . S
C1785 H1772 0.930 . S
C1785 C1784 1.388 . S
C1785 C1786 1.390 . S
C1786 C1785 1.390 . S
C1786 C1787 1.394 . S
C1786 C1792 1.465 . S
C1787 C1782 1.399 . S
C1787 C1786 1.394 . S
C1787 C1788 1.516 . S
C1788 C1787 1.516 . S
C1788 C1789 1.502 . S
C1788 C1790 1.561 . S
C1788 C1791 1.526 . S
C1789 H1773 0.959 . S
C1789 H1774 0.959 . S
C1789 H1775 0.961 . S
C1789 C1788 1.502 . S
C1790 H1776 0.960 . S
C1790 H1777 0.961 . S
C1790 H1778 0.959 . S
C1790 C1788 1.561 . S
C1791 C1788 1.526 . S
C1791 C1792 1.396 . S
C1791 C1796 1.390 . S
C1792 C1786 1.465 . S
C1792 C1791 1.396 . S
C1792 C1793 1.399 . S
C1793 H1779 0.929 . S
C1793 C1792 1.399 . S
C1793 C1794 1.385 . S
C1794 H1780 0.931 . S
C1794 C1793 1.385 . S
C1794 C1795 1.389 . S
C1795 C1794 1.389 . S
C1795 C1796 1.387 . S
C1796 H1781 0.930 . S
C1796 C1791 1.390 . S
C1796 C1795 1.387 . S
H1797 C1809 0.930 . S
H1798 C1811 0.930 . S
H1799 C1812 0.930 . S
H1800 C1816 0.959 . S
H1801 C1816 0.959 . S
H1802 C1816 0.961 . S
H1803 C1817 0.960 . S
H1804 C1817 0.961 . S
H1805 C1817 0.959 . S
H1806 C1820 0.929 . S
H1807 C1821 0.931 . S
H1808 C1823 0.930 . S
C1809 H1797 0.930 . S
C1809 C1810 1.399 . S
C1809 C1814 1.399 . S
C1810 C1809 1.399 . S
C1810 C1811 1.376 . S
C1811 H1798 0.930 . S
C1811 C1810 1.376 . S
C1811 C1812 1.388 . S
C1812 H1799 0.930 . S
C1812 C1811 1.388 . S
C1812 C1813 1.390 . S
C1813 C1812 1.390 . S
C1813 C1814 1.394 . S
C1813 C1819 1.465 . S
C1814 C1809 1.399 . S
C1814 C1813 1.394 . S
C1814 C1815 1.516 . S
C1815 C1814 1.516 . S
C1815 C1816 1.502 . S
C1815 C1817 1.561 . S
C1815 C1818 1.526 . S
C1816 H1800 0.959 . S
C1816 H1801 0.959 . S
C1816 H1802 0.961 . S
C1816 C1815 1.502 . S
C1817 H1803 0.960 . S
C1817 H1804 0.961 . S
C1817 H1805 0.959 . S
C1817 C1815 1.561 . S
C1818 C1815 1.526 . S
C1818 C1819 1.396 . S
C1818 C1823 1.390 . S
C1819 C1813 1.465 . S
C1819 C1818 1.396 . S
C1819 C1820 1.399 . S
C1820 H1806 0.929 . S
C1820 C1819 1.399 . S
C1820 C1821 1.385 . S
C1821 H1807 0.931 . S
C1821 C1820 1.385 . S
C1821 C1822 1.389 . S
C1822 C1821 1.389 . S
C1822 C1823 1.387 . S
C1823 H1808 0.930 . S
C1823 C1818 1.390 . S
C1823 C1822 1.387 . S
H1824 C1836 0.930 . S
H1825 C1838 0.930 . S
H1826 C1839 0.930 . S
H1827 C1843 0.959 . S
H1828 C1843 0.959 . S
H1829 C1843 0.961 . S
H1830 C1844 0.960 . S
H1831 C1844 0.961 . S
H1832 C1844 0.959 . S
H1833 C1847 0.929 . S
H1834 C1848 0.931 . S
H1835 C1850 0.930 . S
C1836 H1824 0.930 . S
C1836 C1837 1.399 . S
C1836 C1841 1.399 . S
C1837 C1836 1.399 . S
C1837 C1838 1.376 . S
C1838 H1825 0.930 . S
C1838 C1837 1.376 . S
C1838 C1839 1.388 . S
C1839 H1826 0.930 . S
C1839 C1838 1.388 . S
C1839 C1840 1.390 . S
C1840 C1839 1.390 . S
C1840 C1841 1.394 . S
C1840 C1846 1.465 . S
C1841 C1836 1.399 . S
C1841 C1840 1.394 . S
C1841 C1842 1.516 . S
C1842 C1841 1.516 . S
C1842 C1843 1.502 . S
C1842 C1844 1.561 . S
C1842 C1845 1.526 . S
C1843 H1827 0.959 . S
C1843 H1828 0.959 . S
C1843 H1829 0.961 . S
C1843 C1842 1.502 . S
C1844 H1830 0.960 . S
C1844 H1831 0.961 . S
C1844 H1832 0.959 . S
C1844 C1842 1.561 . S
C1845 C1842 1.526 . S
C1845 C1846 1.396 . S
C1845 C1850 1.390 . S
C1846 C1840 1.465 . S
C1846 C1845 1.396 . S
C1846 C1847 1.399 . S
C1847 H1833 0.929 . S
C1847 C1846 1.399 . S
C1847 C1848 1.385 . S
C1848 H1834 0.931 . S
C1848 C1847 1.385 . S
C1848 C1849 1.389 . S
C1849 C1848 1.389 . S
C1849 C1850 1.387 . S
C1850 H1835 0.930 . S
C1850 C1845 1.390 . S
C1850 C1849 1.387 . S
H1851 C1863 0.930 . S
H1852 C1865 0.930 . S
H1853 C1866 0.930 . S
H1854 C1870 0.959 . S
H1855 C1870 0.959 . S
H1856 C1870 0.961 . S
H1857 C1871 0.960 . S
H1858 C1871 0.961 . S
H1859 C1871 0.959 . S
H1860 C1874 0.929 . S
H1861 C1875 0.931 . S
H1862 C1877 0.930 . S
C1863 H1851 0.930 . S
C1863 C1864 1.399 . S
C1863 C1868 1.399 . S
C1864 C1863 1.399 . S
C1864 C1865 1.376 . S
C1865 H1852 0.930 . S
C1865 C1864 1.376 . S
C1865 C1866 1.388 . S
C1866 H1853 0.930 . S
C1866 C1865 1.388 . S
C1866 C1867 1.390 . S
C1867 C1866 1.390 . S
C1867 C1868 1.394 . S
C1867 C1873 1.465 . S
C1868 C1863 1.399 . S
C1868 C1867 1.394 . S
C1868 C1869 1.516 . S
C1869 C1868 1.516 . S
C1869 C1870 1.502 . S
C1869 C1871 1.561 . S
C1869 C1872 1.526 . S
C1870 H1854 0.959 . S
C1870 H1855 0.959 . S
C1870 H1856 0.961 . S
C1870 C1869 1.502 . S
C1871 H1857 0.960 . S
C1871 H1858 0.961 . S
C1871 H1859 0.959 . S
C1871 C1869 1.561 . S
C1872 C1869 1.526 . S
C1872 C1873 1.396 . S
C1872 C1877 1.390 . S
C1873 C1867 1.465 . S
C1873 C1872 1.396 . S
C1873 C1874 1.399 . S
C1874 H1860 0.929 . S
C1874 C1873 1.399 . S
C1874 C1875 1.385 . S
C1875 H1861 0.931 . S
C1875 C1874 1.385 . S
C1875 C1876 1.389 . S
C1876 C1875 1.389 . S
C1876 C1877 1.387 . S
C1877 H1862 0.930 . S
C1877 C1872 1.390 . S
C1877 C1876 1.387 . S
H1878 C1890 0.930 . S
H1879 C1892 0.930 . S
H1880 C1893 0.930 . S
H1881 C1897 0.959 . S
H1882 C1897 0.959 . S
H1883 C1897 0.961 . S
H1884 C1898 0.960 . S
H1885 C1898 0.961 . S
H1886 C1898 0.959 . S
H1887 C1901 0.929 . S
H1888 C1902 0.931 . S
H1889 C1904 0.930 . S
C1890 H1878 0.930 . S
C1890 C1891 1.399 . S
C1890 C1895 1.399 . S
C1891 C1890 1.399 . S
C1891 C1892 1.376 . S
C1892 H1879 0.930 . S
C1892 C1891 1.376 . S
C1892 C1893 1.388 . S
C1893 H1880 0.930 . S
C1893 C1892 1.388 . S
C1893 C1894 1.390 . S
C1894 C1893 1.390 . S
C1894 C1895 1.394 . S
C1894 C1900 1.465 . S
C1895 C1890 1.399 . S
C1895 C1894 1.394 . S
C1895 C1896 1.516 . S
C1896 C1895 1.516 . S
C1896 C1897 1.502 . S
C1896 C1898 1.561 . S
C1896 C1899 1.526 . S
C1897 H1881 0.959 . S
C1897 H1882 0.959 . S
C1897 H1883 0.961 . S
C1897 C1896 1.502 . S
C1898 H1884 0.960 . S
C1898 H1885 0.961 . S
C1898 H1886 0.959 . S
C1898 C1896 1.561 . S
C1899 C1896 1.526 . S
C1899 C1900 1.396 . S
C1899 C1904 1.390 . S
C1900 C1894 1.465 . S
C1900 C1899 1.396 . S
C1900 C1901 1.399 . S
C1901 H1887 0.929 . S
C1901 C1900 1.399 . S
C1901 C1902 1.385 . S
C1902 H1888 0.931 . S
C1902 C1901 1.385 . S
C1902 C1903 1.389 . S
C1903 C1902 1.389 . S
C1903 C1904 1.387 . S
C1904 H1889 0.930 . S
C1904 C1899 1.390 . S
C1904 C1903 1.387 . S
H1905 C1917 0.930 . S
H1906 C1919 0.930 . S
H1907 C1920 0.930 . S
H1908 C1924 0.959 . S
H1909 C1924 0.959 . S
H1910 C1924 0.961 . S
H1911 C1925 0.960 . S
H1912 C1925 0.961 . S
H1913 C1925 0.959 . S
H1914 C1928 0.929 . S
H1915 C1929 0.931 . S
H1916 C1931 0.930 . S
C1917 H1905 0.930 . S
C1917 C1918 1.399 . S
C1917 C1922 1.399 . S
C1918 C1917 1.399 . S
C1918 C1919 1.376 . S
C1919 H1906 0.930 . S
C1919 C1918 1.376 . S
C1919 C1920 1.388 . S
C1920 H1907 0.930 . S
C1920 C1919 1.388 . S
C1920 C1921 1.390 . S
C1921 C1920 1.390 . S
C1921 C1922 1.394 . S
C1921 C1927 1.465 . S
C1922 C1917 1.399 . S
C1922 C1921 1.394 . S
C1922 C1923 1.516 . S
C1923 C1922 1.516 . S
C1923 C1924 1.502 . S
C1923 C1925 1.561 . S
C1923 C1926 1.526 . S
C1924 H1908 0.959 . S
C1924 H1909 0.959 . S
C1924 H1910 0.961 . S
C1924 C1923 1.502 . S
C1925 H1911 0.960 . S
C1925 H1912 0.961 . S
C1925 H1913 0.959 . S
C1925 C1923 1.561 . S
C1926 C1923 1.526 . S
C1926 C1927 1.396 . S
C1926 C1931 1.390 . S
C1927 C1921 1.465 . S
C1927 C1926 1.396 . S
C1927 C1928 1.399 . S
C1928 H1914 0.929 . S
C1928 C1927 1.399 . S
C1928 C1929 1.385 . S
C1929 H1915 0.931 . S
C1929 C1928 1.385 . S
C1929 C1930 1.389 . S
C1930 C1929 1.389 . S
C1930 C1931 1.387 . S
C1931 H1916 0.930 . S
C1931 C1926 1.390 . S
C1931 C1930 1.387 . S
H1932 C1944 0.930 . S
H1933 C1946 0.930 . S
H1934 C1947 0.930 . S
H1935 C1951 0.959 . S
H1936 C1951 0.959 . S
H1937 C1951 0.961 . S
H1938 C1952 0.960 . S
H1939 C1952 0.961 . S
H1940 C1952 0.959 . S
H1941 C1955 0.929 . S
H1942 C1956 0.931 . S
H1943 C1958 0.930 . S
C1944 H1932 0.930 . S
C1944 C1945 1.399 . S
C1944 C1949 1.399 . S
C1945 C1944 1.399 . S
C1945 C1946 1.376 . S
C1946 H1933 0.930 . S
C1946 C1945 1.376 . S
C1946 C1947 1.388 . S
C1947 H1934 0.930 . S
C1947 C1946 1.388 . S
C1947 C1948 1.390 . S
C1948 C1947 1.390 . S
C1948 C1949 1.394 . S
C1948 C1954 1.465 . S
C1949 C1944 1.399 . S
C1949 C1948 1.394 . S
C1949 C1950 1.516 . S
C1950 C1949 1.516 . S
C1950 C1951 1.502 . S
C1950 C1952 1.561 . S
C1950 C1953 1.526 . S
C1951 H1935 0.959 . S
C1951 H1936 0.959 . S
C1951 H1937 0.961 . S
C1951 C1950 1.502 . S
C1952 H1938 0.960 . S
C1952 H1939 0.961 . S
C1952 H1940 0.959 . S
C1952 C1950 1.561 . S
C1953 C1950 1.526 . S
C1953 C1954 1.396 . S
C1953 C1958 1.390 . S
C1954 C1948 1.465 . S
C1954 C1953 1.396 . S
C1954 C1955 1.399 . S
C1955 H1941 0.929 . S
C1955 C1954 1.399 . S
C1955 C1956 1.385 . S
C1956 H1942 0.931 . S
C1956 C1955 1.385 . S
C1956 C1957 1.389 . S
C1957 C1956 1.389 . S
C1957 C1958 1.387 . S
C1958 H1943 0.930 . S
C1958 C1953 1.390 . S
C1958 C1957 1.387 . S
H1959 C1971 0.930 . S
H1960 C1973 0.930 . S
H1961 C1974 0.930 . S
H1962 C1978 0.959 . S
H1963 C1978 0.959 . S
H1964 C1978 0.961 . S
H1965 C1979 0.960 . S
H1966 C1979 0.961 . S
H1967 C1979 0.959 . S
H1968 C1982 0.929 . S
H1969 C1983 0.931 . S
H1970 C1985 0.930 . S
C1971 H1959 0.930 . S
C1971 C1972 1.399 . S
C1971 C1976 1.399 . S
C1972 C1971 1.399 . S
C1972 C1973 1.376 . S
C1973 H1960 0.930 . S
C1973 C1972 1.376 . S
C1973 C1974 1.388 . S
C1974 H1961 0.930 . S
C1974 C1973 1.388 . S
C1974 C1975 1.390 . S
C1975 C1974 1.390 . S
C1975 C1976 1.394 . S
C1975 C1981 1.465 . S
C1976 C1971 1.399 . S
C1976 C1975 1.394 . S
C1976 C1977 1.516 . S
C1977 C1976 1.516 . S
C1977 C1978 1.502 . S
C1977 C1979 1.561 . S
C1977 C1980 1.526 . S
C1978 H1962 0.959 . S
C1978 H1963 0.959 . S
C1978 H1964 0.961 . S
C1978 C1977 1.502 . S
C1979 H1965 0.960 . S
C1979 H1966 0.961 . S
C1979 H1967 0.959 . S
C1979 C1977 1.561 . S
C1980 C1977 1.526 . S
C1980 C1981 1.396 . S
C1980 C1985 1.390 . S
C1981 C1975 1.465 . S
C1981 C1980 1.396 . S
C1981 C1982 1.399 . S
C1982 H1968 0.929 . S
C1982 C1981 1.399 . S
C1982 C1983 1.385 . S
C1983 H1969 0.931 . S
C1983 C1982 1.385 . S
C1983 C1984 1.389 . S
C1984 C1983 1.389 . S
C1984 C1985 1.387 . S
C1985 H1970 0.930 . S
C1985 C1980 1.390 . S
C1985 C1984 1.387 . S
H1986 C1998 0.930 . S
H1987 C2000 0.930 . S
H1988 C2001 0.930 . S
H1989 C2005 0.959 . S
H1990 C2005 0.959 . S
H1991 C2005 0.961 . S
H1992 C2006 0.960 . S
H1993 C2006 0.961 . S
H1994 C2006 0.959 . S
H1995 C2009 0.929 . S
H1996 C2010 0.931 . S
H1997 C2012 0.930 . S
C1998 H1986 0.930 . S
C1998 C1999 1.399 . S
C1998 C2003 1.399 . S
C1999 C1998 1.399 . S
C1999 C2000 1.376 . S
C2000 H1987 0.930 . S
C2000 C1999 1.376 . S
C2000 C2001 1.388 . S
C2001 H1988 0.930 . S
C2001 C2000 1.388 . S
C2001 C2002 1.390 . S
C2002 C2001 1.390 . S
C2002 C2003 1.394 . S
C2002 C2008 1.465 . S
C2003 C1998 1.399 . S
C2003 C2002 1.394 . S
C2003 C2004 1.516 . S
C2004 C2003 1.516 . S
C2004 C2005 1.502 . S
C2004 C2006 1.561 . S
C2004 C2007 1.526 . S
C2005 H1989 0.959 . S
C2005 H1990 0.959 . S
C2005 H1991 0.961 . S
C2005 C2004 1.502 . S
C2006 H1992 0.960 . S
C2006 H1993 0.961 . S
C2006 H1994 0.959 . S
C2006 C2004 1.561 . S
C2007 C2004 1.526 . S
C2007 C2008 1.396 . S
C2007 C2012 1.390 . S
C2008 C2002 1.465 . S
C2008 C2007 1.396 . S
C2008 C2009 1.399 . S
C2009 H1995 0.929 . S
C2009 C2008 1.399 . S
C2009 C2010 1.385 . S
C2010 H1996 0.931 . S
C2010 C2009 1.385 . S
C2010 C2011 1.389 . S
C2011 C2010 1.389 . S
C2011 C2012 1.387 . S
C2012 H1997 0.930 . S
C2012 C2007 1.390 . S
C2012 C2011 1.387 . S
H2013 C2025 0.930 . S
H2014 C2027 0.930 . S
H2015 C2028 0.930 . S
H2016 C2032 0.959 . S
H2017 C2032 0.959 . S
H2018 C2032 0.961 . S
H2019 C2033 0.960 . S
H2020 C2033 0.961 . S
H2021 C2033 0.959 . S
H2022 C2036 0.929 . S
H2023 C2037 0.931 . S
H2024 C2039 0.930 . S
C2025 H2013 0.930 . S
C2025 C2026 1.399 . S
C2025 C2030 1.399 . S
C2026 C2025 1.399 . S
C2026 C2027 1.376 . S
C2027 H2014 0.930 . S
C2027 C2026 1.376 . S
C2027 C2028 1.388 . S
C2028 H2015 0.930 . S
C2028 C2027 1.388 . S
C2028 C2029 1.390 . S
C2029 C2028 1.390 . S
C2029 C2030 1.394 . S
C2029 C2035 1.465 . S
C2030 C2025 1.399 . S
C2030 C2029 1.394 . S
C2030 C2031 1.516 . S
C2031 C2030 1.516 . S
C2031 C2032 1.502 . S
C2031 C2033 1.561 . S
C2031 C2034 1.526 . S
C2032 H2016 0.959 . S
C2032 H2017 0.959 . S
C2032 H2018 0.961 . S
C2032 C2031 1.502 . S
C2033 H2019 0.960 . S
C2033 H2020 0.961 . S
C2033 H2021 0.959 . S
C2033 C2031 1.561 . S
C2034 C2031 1.526 . S
C2034 C2035 1.396 . S
C2034 C2039 1.390 . S
C2035 C2029 1.465 . S
C2035 C2034 1.396 . S
C2035 C2036 1.399 . S
C2036 H2022 0.929 . S
C2036 C2035 1.399 . S
C2036 C2037 1.385 . S
C2037 H2023 0.931 . S
C2037 C2036 1.385 . S
C2037 C2038 1.389 . S
C2038 C2037 1.389 . S
C2038 C2039 1.387 . S
C2039 H2024 0.930 . S
C2039 C2034 1.390 . S
C2039 C2038 1.387 . S
H2040 C2052 0.930 . S
H2041 C2054 0.930 . S
H2042 C2055 0.930 . S
H2043 C2059 0.959 . S
H2044 C2059 0.959 . S
H2045 C2059 0.961 . S
H2046 C2060 0.960 . S
H2047 C2060 0.961 . S
H2048 C2060 0.959 . S
H2049 C2063 0.929 . S
H2050 C2064 0.931 . S
H2051 C2066 0.930 . S
C2052 H2040 0.930 . S
C2052 C2053 1.399 . S
C2052 C2057 1.399 . S
C2053 C2052 1.399 . S
C2053 C2054 1.376 . S
C2054 H2041 0.930 . S
C2054 C2053 1.376 . S
C2054 C2055 1.388 . S
C2055 H2042 0.930 . S
C2055 C2054 1.388 . S
C2055 C2056 1.390 . S
C2056 C2055 1.390 . S
C2056 C2057 1.394 . S
C2056 C2062 1.465 . S
C2057 C2052 1.399 . S
C2057 C2056 1.394 . S
C2057 C2058 1.516 . S
C2058 C2057 1.516 . S
C2058 C2059 1.502 . S
C2058 C2060 1.561 . S
C2058 C2061 1.526 . S
C2059 H2043 0.959 . S
C2059 H2044 0.959 . S
C2059 H2045 0.961 . S
C2059 C2058 1.502 . S
C2060 H2046 0.960 . S
C2060 H2047 0.961 . S
C2060 H2048 0.959 . S
C2060 C2058 1.561 . S
C2061 C2058 1.526 . S
C2061 C2062 1.396 . S
C2061 C2066 1.390 . S
C2062 C2056 1.465 . S
C2062 C2061 1.396 . S
C2062 C2063 1.399 . S
C2063 H2049 0.929 . S
C2063 C2062 1.399 . S
C2063 C2064 1.385 . S
C2064 H2050 0.931 . S
C2064 C2063 1.385 . S
C2064 C2065 1.389 . S
C2065 C2064 1.389 . S
C2065 C2066 1.387 . S
C2066 H2051 0.930 . S
C2066 C2061 1.390 . S
C2066 C2065 1.387 . S
H2067 C2079 0.930 . S
H2068 C2081 0.930 . S
H2069 C2082 0.930 . S
H2070 C2086 0.959 . S
H2071 C2086 0.959 . S
H2072 C2086 0.961 . S
H2073 C2087 0.960 . S
H2074 C2087 0.961 . S
H2075 C2087 0.959 . S
H2076 C2090 0.929 . S
H2077 C2091 0.931 . S
H2078 C2093 0.930 . S
C2079 H2067 0.930 . S
C2079 C2080 1.399 . S
C2079 C2084 1.399 . S
C2080 C2079 1.399 . S
C2080 C2081 1.376 . S
C2081 H2068 0.930 . S
C2081 C2080 1.376 . S
C2081 C2082 1.388 . S
C2082 H2069 0.930 . S
C2082 C2081 1.388 . S
C2082 C2083 1.390 . S
C2083 C2082 1.390 . S
C2083 C2084 1.394 . S
C2083 C2089 1.465 . S
C2084 C2079 1.399 . S
C2084 C2083 1.394 . S
C2084 C2085 1.516 . S
C2085 C2084 1.516 . S
C2085 C2086 1.502 . S
C2085 C2087 1.561 . S
C2085 C2088 1.526 . S
C2086 H2070 0.959 . S
C2086 H2071 0.959 . S
C2086 H2072 0.961 . S
C2086 C2085 1.502 . S
C2087 H2073 0.960 . S
C2087 H2074 0.961 . S
C2087 H2075 0.959 . S
C2087 C2085 1.561 . S
C2088 C2085 1.526 . S
C2088 C2089 1.396 . S
C2088 C2093 1.390 . S
C2089 C2083 1.465 . S
C2089 C2088 1.396 . S
C2089 C2090 1.399 . S
C2090 H2076 0.929 . S
C2090 C2089 1.399 . S
C2090 C2091 1.385 . S
C2091 H2077 0.931 . S
C2091 C2090 1.385 . S
C2091 C2092 1.389 . S
C2092 C2091 1.389 . S
C2092 C2093 1.387 . S
C2093 H2078 0.930 . S
C2093 C2088 1.390 . S
C2093 C2092 1.387 . S
H2094 C2106 0.930 . S
H2095 C2108 0.930 . S
H2096 C2109 0.930 . S
H2097 C2113 0.959 . S
H2098 C2113 0.959 . S
H2099 C2113 0.961 . S
H2100 C2114 0.960 . S
H2101 C2114 0.961 . S
H2102 C2114 0.959 . S
H2103 C2117 0.929 . S
H2104 C2118 0.931 . S
H2105 C2120 0.930 . S
C2106 H2094 0.930 . S
C2106 C2107 1.399 . S
C2106 C2111 1.399 . S
C2107 C2106 1.399 . S
C2107 C2108 1.376 . S
C2108 H2095 0.930 . S
C2108 C2107 1.376 . S
C2108 C2109 1.388 . S
C2109 H2096 0.930 . S
C2109 C2108 1.388 . S
C2109 C2110 1.390 . S
C2110 C2109 1.390 . S
C2110 C2111 1.394 . S
C2110 C2116 1.465 . S
C2111 C2106 1.399 . S
C2111 C2110 1.394 . S
C2111 C2112 1.516 . S
C2112 C2111 1.516 . S
C2112 C2113 1.502 . S
C2112 C2114 1.561 . S
C2112 C2115 1.526 . S
C2113 H2097 0.959 . S
C2113 H2098 0.959 . S
C2113 H2099 0.961 . S
C2113 C2112 1.502 . S
C2114 H2100 0.960 . S
C2114 H2101 0.961 . S
C2114 H2102 0.959 . S
C2114 C2112 1.561 . S
C2115 C2112 1.526 . S
C2115 C2116 1.396 . S
C2115 C2120 1.390 . S
C2116 C2110 1.465 . S
C2116 C2115 1.396 . S
C2116 C2117 1.399 . S
C2117 H2103 0.929 . S
C2117 C2116 1.399 . S
C2117 C2118 1.385 . S
C2118 H2104 0.931 . S
C2118 C2117 1.385 . S
C2118 C2119 1.389 . S
C2119 C2118 1.389 . S
C2119 C2120 1.387 . S
C2120 H2105 0.930 . S
C2120 C2115 1.390 . S
C2120 C2119 1.387 . S
H2121 C2133 0.930 . S
H2122 C2135 0.930 . S
H2123 C2136 0.930 . S
H2124 C2140 0.959 . S
H2125 C2140 0.959 . S
H2126 C2140 0.961 . S
H2127 C2141 0.960 . S
H2128 C2141 0.961 . S
H2129 C2141 0.959 . S
H2130 C2144 0.929 . S
H2131 C2145 0.931 . S
H2132 C2147 0.930 . S
C2133 H2121 0.930 . S
C2133 C2134 1.399 . S
C2133 C2138 1.399 . S
C2134 C2133 1.399 . S
C2134 C2135 1.376 . S
C2135 H2122 0.930 . S
C2135 C2134 1.376 . S
C2135 C2136 1.388 . S
C2136 H2123 0.930 . S
C2136 C2135 1.388 . S
C2136 C2137 1.390 . S
C2137 C2136 1.390 . S
C2137 C2138 1.394 . S
C2137 C2143 1.465 . S
C2138 C2133 1.399 . S
C2138 C2137 1.394 . S
C2138 C2139 1.516 . S
C2139 C2138 1.516 . S
C2139 C2140 1.502 . S
C2139 C2141 1.561 . S
C2139 C2142 1.526 . S
C2140 H2124 0.959 . S
C2140 H2125 0.959 . S
C2140 H2126 0.961 . S
C2140 C2139 1.502 . S
C2141 H2127 0.960 . S
C2141 H2128 0.961 . S
C2141 H2129 0.959 . S
C2141 C2139 1.561 . S
C2142 C2139 1.526 . S
C2142 C2143 1.396 . S
C2142 C2147 1.390 . S
C2143 C2137 1.465 . S
C2143 C2142 1.396 . S
C2143 C2144 1.399 . S
C2144 H2130 0.929 . S
C2144 C2143 1.399 . S
C2144 C2145 1.385 . S
C2145 H2131 0.931 . S
C2145 C2144 1.385 . S
C2145 C2146 1.389 . S
C2146 C2145 1.389 . S
C2146 C2147 1.387 . S
C2147 H2132 0.930 . S
C2147 C2142 1.390 . S
C2147 C2146 1.387 . S
H2148 C2160 0.930 . S
H2149 C2162 0.930 . S
H2150 C2163 0.930 . S
H2151 C2167 0.959 . S
H2152 C2167 0.959 . S
H2153 C2167 0.961 . S
H2154 C2168 0.960 . S
H2155 C2168 0.961 . S
H2156 C2168 0.959 . S
H2157 C2171 0.929 . S
H2158 C2172 0.931 . S
H2159 C2174 0.972 . S
C2160 H2148 0.930 . S
C2160 C2161 1.399 . S
C2160 C2165 1.399 . S
C2161 C2160 1.399 . S
C2161 C2162 1.376 . S
C2162 H2149 0.930 . S
C2162 C2161 1.376 . S
C2162 C2163 1.388 1_545 S
C2163 H2150 0.930 . S
C2163 C2162 1.388 1_565 S
C2163 C2164 1.390 . S
C2164 C2163 1.390 . S
C2164 C2165 1.394 1_565 S
C2164 C2170 1.465 . S
C2165 C2160 1.399 . S
C2165 C2164 1.394 1_545 S
C2165 C2166 1.516 . S
C2166 C2165 1.516 . S
C2166 C2167 1.502 . S
C2166 C2168 1.561 . S
C2166 C2169 1.526 1_545 S
C2167 H2151 0.959 . S
C2167 H2152 0.959 . S
C2167 H2153 0.961 . S
C2167 C2166 1.502 . S
C2168 H2154 0.960 . S
C2168 H2155 0.961 . S
C2168 H2156 0.959 . S
C2168 C2166 1.561 . S
C2169 C2166 1.526 1_565 S
C2169 C2170 1.396 . S
C2169 C2174 1.390 . S
C2170 C2164 1.465 . S
C2170 C2169 1.396 . S
C2170 C2171 1.399 . S
C2171 H2157 0.929 . S
C2171 C2170 1.399 . S
C2171 C2172 1.385 . S
C2172 H2158 0.931 . S
C2172 C2171 1.385 . S
C2172 C2173 1.389 . S
C2173 C2172 1.389 . S
C2173 C2174 1.387 . S
C2174 H2159 0.972 . S
C2174 C2169 1.390 . S
C2174 C2173 1.387 . S
H2175 C2187 0.930 . S
H2176 C2189 0.930 . S
H2177 C2190 0.930 . S
H2178 C2194 0.959 . S
H2179 C2194 0.959 . S
H2180 C2194 0.961 . S
H2181 C2195 0.960 . S
H2182 C2195 0.961 . S
H2183 C2195 0.959 . S
H2184 C2198 0.929 . S
H2185 C2199 0.931 . S
H2186 C2201 0.930 . S
C2187 H2175 0.930 . S
C2187 C2188 1.399 . S
C2187 C2192 1.399 . S
C2188 C2187 1.399 . S
C2188 C2189 1.376 . S
C2189 H2176 0.930 . S
C2189 C2188 1.376 . S
C2189 C2190 1.388 . S
C2190 H2177 0.930 . S
C2190 C2189 1.388 . S
C2190 C2191 1.390 . S
C2191 C2190 1.390 . S
C2191 C2192 1.394 . S
C2191 C2197 1.465 1_455 S
C2192 C2187 1.399 . S
C2192 C2191 1.394 . S
C2192 C2193 1.533 . S
C2193 C2192 1.533 . S
C2193 C2194 1.478 1_455 S
C2193 C2195 1.588 . S
C2193 C2196 1.510 1_455 S
C2194 H2178 0.959 . S
C2194 H2179 0.959 . S
C2194 H2180 0.961 . S
C2194 C2193 1.478 1_655 S
C2195 H2181 0.960 . S
C2195 H2182 0.961 . S
C2195 H2183 0.959 . S
C2195 C2193 1.588 . S
C2196 C2193 1.510 1_655 S
C2196 C2197 1.396 . S
C2196 C2201 1.390 . S
C2197 C2191 1.465 1_655 S
C2197 C2196 1.396 . S
C2197 C2198 1.399 . S
C2198 H2184 0.929 . S
C2198 C2197 1.399 . S
C2198 C2199 1.385 . S
C2199 H2185 0.931 . S
C2199 C2198 1.385 . S
C2199 C2200 1.389 . S
C2200 C2199 1.389 . S
C2200 C2201 1.387 . S
C2201 H2186 0.930 . S
C2201 C2196 1.390 . S
C2201 C2200 1.387 . S
H2202 C2214 0.930 . S
H2203 C2216 0.930 . S
H2204 C2217 0.930 1_565 S
H2205 C2221 0.959 . S
H2206 C2221 0.959 . S
H2207 C2221 0.961 . S
H2208 C2222 0.960 . S
H2209 C2222 0.961 . S
H2210 C2222 0.959 . S
H2211 C2225 0.929 . S
H2212 C2226 0.931 . S
H2213 C2228 0.930 . S
C2214 H2202 0.930 . S
C2214 C2215 1.399 . S
C2214 C2219 1.399 . S
C2215 C2214 1.399 . S
C2215 C2216 1.376 . S
C2216 H2203 0.930 . S
C2216 C2215 1.376 . S
C2216 C2217 1.388 . S
C2217 H2204 0.930 1_545 S
C2217 C2216 1.388 . S
C2217 C2218 1.406 . S
C2218 C2217 1.406 . S
C2218 C2219 1.436 . S
C2218 C2224 1.419 1_545 S
C2219 C2214 1.399 . S
C2219 C2218 1.436 . S
C2219 C2220 1.516 . S
C2220 C2219 1.516 . S
C2220 C2221 1.502 . S
C2220 C2222 1.561 1_545 S
C2220 C2223 1.526 1_545 S
C2221 H2205 0.959 . S
C2221 H2206 0.959 . S
C2221 H2207 0.961 . S
C2221 C2220 1.502 . S
C2222 H2208 0.960 . S
C2222 H2209 0.961 . S
C2222 H2210 0.959 . S
C2222 C2220 1.561 1_565 S
C2223 C2220 1.526 1_565 S
C2223 C2224 1.396 . S
C2223 C2228 1.390 . S
C2224 C2218 1.419 1_565 S
C2224 C2223 1.396 . S
C2224 C2225 1.399 . S
C2225 H2211 0.929 . S
C2225 C2224 1.399 . S
C2225 C2226 1.385 . S
C2226 H2212 0.931 . S
C2226 C2225 1.385 . S
C2226 C2227 1.389 . S
C2227 C2226 1.389 . S
C2227 C2228 1.387 . S
C2228 H2213 0.930 . S
C2228 C2223 1.390 . S
C2228 C2227 1.387 . S
H2229 C2241 0.930 . S
H2230 C2243 0.930 . S
H2231 C2244 0.930 . S
H2232 C2248 0.959 . S
H2233 C2248 0.959 . S
H2234 C2248 0.961 . S
H2235 C2249 0.960 . S
H2236 C2249 0.961 . S
H2237 C2249 0.959 . S
H2238 C2252 0.929 . S
H2239 C2253 0.931 . S
H2240 C2255 0.930 . S
C2241 H2229 0.930 . S
C2241 C2242 1.399 . S
C2241 C2246 1.399 . S
C2242 C2241 1.399 . S
C2242 C2243 1.376 . S
C2243 H2230 0.930 . S
C2243 C2242 1.376 . S
C2243 C2244 1.388 . S
C2244 H2231 0.930 . S
C2244 C2243 1.388 . S
C2244 C2245 1.390 . S
C2245 C2244 1.390 . S
C2245 C2246 1.394 . S
C2245 C2251 1.465 . S
C2246 C2241 1.399 . S
C2246 C2245 1.394 . S
C2246 C2247 1.516 1_455 S
C2247 C2246 1.516 1_655 S
C2247 C2248 1.502 . S
C2247 C2249 1.561 . S
C2247 C2250 1.526 . S
C2248 H2232 0.959 . S
C2248 H2233 0.959 . S
C2248 H2234 0.961 . S
C2248 C2247 1.502 . S
C2249 H2235 0.960 . S
C2249 H2236 0.961 . S
C2249 H2237 0.959 . S
C2249 C2247 1.561 . S
C2250 C2247 1.526 . S
C2250 C2251 1.396 1_655 S
C2250 C2255 1.390 . S
C2251 C2245 1.465 . S
C2251 C2250 1.396 1_455 S
C2251 C2252 1.399 . S
C2252 H2238 0.929 . S
C2252 C2251 1.399 . S
C2252 C2253 1.385 1_455 S
C2253 H2239 0.931 . S
C2253 C2252 1.385 1_655 S
C2253 C2254 1.389 . S
C2254 C2253 1.389 . S
C2254 C2255 1.387 . S
C2255 H2240 0.930 . S
C2255 C2250 1.390 . S
C2255 C2254 1.387 . S
H2256 C2268 0.930 . S
H2257 C2270 0.930 . S
H2258 C2271 0.930 . S
H2259 C2275 0.959 . S
H2260 C2275 0.959 . S
H2261 C2275 0.961 . S
H2262 C2276 0.960 . S
H2263 C2276 0.961 . S
H2264 C2276 0.959 . S
H2265 C2279 0.929 . S
H2266 C2280 0.931 . S
H2267 C2282 0.930 . S
C2268 H2256 0.930 . S
C2268 C2269 1.399 . S
C2268 C2273 1.399 . S
C2269 C2268 1.399 . S
C2269 C2270 1.376 . S
C2270 H2257 0.930 . S
C2270 C2269 1.376 . S
C2270 C2271 1.388 . S
C2271 H2258 0.930 . S
C2271 C2270 1.388 . S
C2271 C2272 1.390 . S
C2272 C2271 1.390 . S
C2272 C2273 1.394 . S
C2272 C2278 1.482 . S
C2273 C2268 1.399 . S
C2273 C2272 1.394 . S
C2273 C2274 1.516 1_545 S
C2274 C2273 1.516 1_565 S
C2274 C2275 1.502 . S
C2274 C2276 1.561 . S
C2274 C2277 1.526 . S
C2275 H2259 0.959 . S
C2275 H2260 0.959 . S
C2275 H2261 0.961 . S
C2275 C2274 1.502 . S
C2276 H2262 0.960 . S
C2276 H2263 0.961 . S
C2276 H2264 0.959 . S
C2276 C2274 1.561 . S
C2277 C2274 1.526 . S
C2277 C2278 1.370 1_565 S
C2277 C2282 1.390 . S
C2278 C2272 1.482 . S
C2278 C2277 1.370 1_545 S
C2278 C2279 1.405 . S
C2279 H2265 0.929 . S
C2279 C2278 1.405 . S
C2279 C2280 1.385 1_545 S
C2280 H2266 0.931 . S
C2280 C2279 1.385 1_565 S
C2280 C2281 1.389 . S
C2281 C2280 1.389 . S
C2281 C2282 1.387 . S
C2282 H2267 0.930 . S
C2282 C2277 1.390 . S
C2282 C2281 1.387 . S
H2283 C2295 0.930 . S
H2284 C2297 0.930 . S
H2285 C2298 0.930 . S
H2286 C2302 0.959 . S
H2287 C2302 0.959 . S
H2288 C2302 0.961 . S
H2289 C2303 0.960 . S
H2290 C2303 0.961 . S
H2291 C2303 0.959 . S
H2292 C2306 0.929 . S
H2293 C2307 0.931 . S
H2294 C2309 0.930 . S
C2295 H2283 0.930 . S
C2295 C2296 1.399 . S
C2295 C2300 1.399 . S
C2296 C2295 1.399 . S
C2296 C2297 1.376 . S
C2297 H2284 0.930 . S
C2297 C2296 1.376 . S
C2297 C2298 1.388 . S
C2298 H2285 0.930 . S
C2298 C2297 1.388 . S
C2298 C2299 1.390 . S
C2299 C2298 1.390 . S
C2299 C2300 1.394 . S
C2299 C2305 1.465 1_655 S
C2300 C2295 1.399 . S
C2300 C2299 1.394 . S
C2300 C2301 1.516 . S
C2301 C2300 1.516 . S
C2301 C2302 1.502 1_655 S
C2301 C2303 1.561 . S
C2301 C2304 1.526 1_655 S
C2302 H2286 0.959 . S
C2302 H2287 0.959 . S
C2302 H2288 0.961 . S
C2302 C2301 1.502 1_455 S
C2303 H2289 0.960 . S
C2303 H2290 0.961 . S
C2303 H2291 0.959 . S
C2303 C2301 1.561 . S
C2304 C2301 1.526 1_455 S
C2304 C2305 1.396 . S
C2304 C2309 1.390 . S
C2305 C2299 1.465 1_455 S
C2305 C2304 1.396 . S
C2305 C2306 1.399 . S
C2306 H2292 0.929 . S
C2306 C2305 1.399 . S
C2306 C2307 1.385 . S
C2307 H2293 0.931 . S
C2307 C2306 1.385 . S
C2307 C2308 1.389 . S
C2308 C2307 1.389 . S
C2308 C2309 1.387 . S
C2309 H2294 0.930 . S
C2309 C2304 1.390 . S
C2309 C2308 1.387 . S
H2310 C2322 0.930 . S
H2311 C2324 0.930 . S
H2312 C2325 0.930 . S
H2313 C2329 0.959 . S
H2314 C2329 0.959 . S
H2315 C2329 0.961 . S
H2316 C2330 0.960 . S
H2317 C2330 0.961 . S
H2318 C2330 0.959 . S
H2319 C2333 0.929 . S
H2320 C2334 0.931 . S
H2321 C2336 0.930 . S
C2322 H2310 0.930 . S
C2322 C2323 1.399 . S
C2322 C2327 1.399 . S
C2323 C2322 1.399 . S
C2323 C2324 1.376 . S
C2324 H2311 0.930 . S
C2324 C2323 1.376 . S
C2324 C2325 1.388 . S
C2325 H2312 0.930 . S
C2325 C2324 1.388 . S
C2325 C2326 1.390 . S
C2326 C2325 1.390 . S
C2326 C2327 1.394 . S
C2326 C2332 1.475 . S
C2327 C2322 1.399 . S
C2327 C2326 1.394 . S
C2327 C2328 1.516 1_545 S
C2328 C2327 1.516 1_565 S
C2328 C2329 1.502 . S
C2328 C2330 1.561 . S
C2328 C2331 1.526 . S
C2329 H2313 0.959 . S
C2329 H2314 0.959 . S
C2329 H2315 0.961 . S
C2329 C2328 1.502 . S
C2330 H2316 0.960 . S
C2330 H2317 0.961 . S
C2330 H2318 0.959 . S
C2330 C2328 1.561 . S
C2331 C2328 1.526 . S
C2331 C2332 1.382 1_565 S
C2331 C2336 1.390 . S
C2332 C2326 1.475 . S
C2332 C2331 1.382 1_545 S
C2332 C2333 1.402 . S
C2333 H2319 0.929 . S
C2333 C2332 1.402 . S
C2333 C2334 1.385 1_545 S
C2334 H2320 0.931 . S
C2334 C2333 1.385 1_565 S
C2334 C2335 1.389 . S
C2335 C2334 1.389 . S
C2335 C2336 1.387 . S
C2336 H2321 0.930 . S
C2336 C2331 1.390 . S
C2336 C2335 1.387 . S
H2337 C2349 0.930 . S
H2338 C2351 0.930 . S
H2339 C2352 0.930 . S
H2340 C2356 0.959 . S
H2341 C2356 0.959 . S
H2342 C2356 0.961 . S
H2343 C2357 0.960 . S
H2344 C2357 0.961 . S
H2345 C2357 0.959 . S
H2346 C2360 0.923 . S
H2347 C2361 0.931 . S
H2348 C2363 0.930 . S
C2349 H2337 0.930 . S
C2349 C2350 1.399 . S
C2349 C2354 1.399 . S
C2350 C2349 1.399 . S
C2350 C2351 1.376 . S
C2351 H2338 0.930 . S
C2351 C2350 1.376 . S
C2351 C2352 1.388 . S
C2352 H2339 0.930 . S
C2352 C2351 1.388 . S
C2352 C2353 1.390 . S
C2353 C2352 1.390 . S
C2353 C2354 1.394 . S
C2353 C2359 1.421 1_655 S
C2354 C2349 1.399 . S
C2354 C2353 1.394 . S
C2354 C2355 1.516 1_655 S
C2355 C2354 1.516 1_455 S
C2355 C2356 1.502 . S
C2355 C2357 1.561 . S
C2355 C2358 1.526 . S
C2356 H2340 0.959 . S
C2356 H2341 0.959 . S
C2356 H2342 0.961 . S
C2356 C2355 1.502 . S
C2357 H2343 0.960 . S
C2357 H2344 0.961 . S
C2357 H2345 0.959 . S
C2357 C2355 1.561 . S
C2358 C2355 1.526 . S
C2358 C2359 1.457 . S
C2358 C2363 1.390 . S
C2359 C2353 1.421 1_455 S
C2359 C2358 1.457 . S
C2359 C2360 1.396 1_455 S
C2360 H2346 0.923 . S
C2360 C2359 1.396 1_655 S
C2360 C2361 1.391 1_655 S
C2361 H2347 0.931 . S
C2361 C2360 1.391 1_455 S
C2361 C2362 1.389 . S
C2362 C2361 1.389 . S
C2362 C2363 1.387 . S
C2363 H2348 0.930 . S
C2363 C2358 1.390 . S
C2363 C2362 1.387 . S
H2364 C2376 0.965 . S
H2365 C2378 0.930 . S
H2366 C2379 0.930 . S
H2367 C2383 0.959 . S
H2368 C2383 0.959 . S
H2369 C2383 0.961 . S
H2370 C2384 0.960 . S
H2371 C2384 0.961 . S
H2372 C2384 0.959 . S
H2373 C2387 0.929 . S
H2374 C2388 0.931 . S
H2375 C2390 0.930 . S
C2376 H2364 0.965 . S
C2376 C2377 1.399 . S
C2376 C2381 1.435 . S
C2377 C2376 1.399 . S
C2377 C2378 1.376 . S
C2378 H2365 0.930 . S
C2378 C2377 1.376 . S
C2378 C2379 1.388 . S
C2379 H2366 0.930 . S
C2379 C2378 1.388 . S
C2379 C2380 1.390 . S
C2380 C2379 1.390 . S
C2380 C2381 1.450 . S
C2380 C2386 1.465 . S
C2381 C2376 1.435 . S
C2381 C2380 1.450 . S
C2381 C2382 1.431 1_556 S
C2382 C2381 1.431 1_554 S
C2382 C2383 1.502 . S
C2382 C2384 1.561 . S
C2382 C2385 1.526 . S
C2383 H2367 0.959 . S
C2383 H2368 0.959 . S
C2383 H2369 0.961 . S
C2383 C2382 1.502 . S
C2384 H2370 0.960 . S
C2384 H2371 0.961 . S
C2384 H2372 0.959 . S
C2384 C2382 1.561 . S
C2385 C2382 1.526 . S
C2385 C2386 1.396 1_554 S
C2385 C2390 1.390 . S
C2386 C2380 1.465 . S
C2386 C2385 1.396 1_556 S
C2386 C2387 1.399 . S
C2387 H2373 0.929 . S
C2387 C2386 1.399 . S
C2387 C2388 1.385 1_556 S
C2388 H2374 0.931 . S
C2388 C2387 1.385 1_554 S
C2388 C2389 1.389 . S
C2389 C2388 1.389 . S
C2389 C2390 1.387 . S
C2390 H2375 0.930 . S
C2390 C2385 1.390 . S
C2390 C2389 1.387 . S
H2391 C2403 0.964 . S
H2392 C2405 0.930 . S
H2393 C2406 0.930 . S
H2394 C2410 0.959 . S
H2395 C2410 0.959 . S
H2396 C2410 0.961 . S
H2397 C2411 0.960 . S
H2398 C2411 0.961 . S
H2399 C2411 0.959 . S
H2400 C2414 0.929 . S
H2401 C2415 0.931 . S
H2402 C2417 0.930 . S
C2403 H2391 0.964 . S
C2403 C2404 1.399 . S
C2403 C2408 1.435 . S
C2404 C2403 1.399 . S
C2404 C2405 1.376 . S
C2405 H2392 0.930 . S
C2405 C2404 1.376 . S
C2405 C2406 1.388 . S
C2406 H2393 0.930 . S
C2406 C2405 1.388 . S
C2406 C2407 1.390 . S
C2407 C2406 1.390 . S
C2407 C2408 1.451 . S
C2407 C2413 1.465 . S
C2408 C2403 1.435 . S
C2408 C2407 1.451 . S
C2408 C2409 1.431 1_554 S
C2409 C2408 1.431 1_556 S
C2409 C2410 1.502 . S
C2409 C2411 1.561 . S
C2409 C2412 1.526 . S
C2410 H2394 0.959 . S
C2410 H2395 0.959 . S
C2410 H2396 0.961 . S
C2410 C2409 1.502 . S
C2411 H2397 0.960 . S
C2411 H2398 0.961 . S
C2411 H2399 0.959 . S
C2411 C2409 1.561 . S
C2412 C2409 1.526 . S
C2412 C2413 1.396 1_556 S
C2412 C2417 1.390 . S
C2413 C2407 1.465 . S
C2413 C2412 1.396 1_554 S
C2413 C2414 1.399 . S
C2414 H2400 0.929 . S
C2414 C2413 1.399 . S
C2414 C2415 1.385 1_554 S
C2415 H2401 0.931 . S
C2415 C2414 1.385 1_556 S
C2415 C2416 1.389 . S
C2416 C2415 1.389 . S
C2416 C2417 1.387 . S
C2417 H2402 0.930 . S
C2417 C2412 1.390 . S
C2417 C2416 1.387 . S
H2418 C2430 0.930 . S
H2419 C2432 0.930 . S
H2420 C2433 0.930 . S
H2421 C2437 0.959 . S
H2422 C2437 0.959 . S
H2423 C2437 0.961 . S
H2424 C2438 0.960 . S
H2425 C2438 0.961 . S
H2426 C2438 0.959 . S
H2427 C2441 0.929 . S
H2428 C2442 0.931 . S
H2429 C2444 0.930 . S
C2430 H2418 0.930 . S
C2430 C2431 1.399 . S
C2430 C2435 1.399 . S
C2431 C2430 1.399 . S
C2431 C2432 1.376 . S
C2432 H2419 0.930 . S
C2432 C2431 1.376 . S
C2432 C2433 1.388 . S
C2433 H2420 0.930 . S
C2433 C2432 1.388 . S
C2433 C2434 1.390 . S
C2434 C2433 1.390 . S
C2434 C2435 1.394 . S
C2434 C2440 1.469 1_556 S
C2435 C2430 1.399 . S
C2435 C2434 1.394 . S
C2435 C2436 1.516 1_556 S
C2436 C2435 1.516 1_554 S
C2436 C2437 1.502 . S
C2436 C2438 1.561 . S
C2436 C2439 1.526 . S
C2437 H2421 0.959 . S
C2437 H2422 0.959 . S
C2437 H2423 0.961 . S
C2437 C2436 1.502 . S
C2438 H2424 0.960 . S
C2438 H2425 0.961 . S
C2438 H2426 0.959 . S
C2438 C2436 1.561 . S
C2439 C2436 1.526 . S
C2439 C2440 1.391 . S
C2439 C2444 1.390 . S
C2440 C2434 1.469 1_554 S
C2440 C2439 1.391 . S
C2440 C2441 1.400 1_554 S
C2441 H2427 0.929 . S
C2441 C2440 1.400 1_556 S
C2441 C2442 1.385 1_556 S
C2442 H2428 0.931 . S
C2442 C2441 1.385 1_554 S
C2442 C2443 1.389 . S
C2443 C2442 1.389 . S
C2443 C2444 1.387 . S
C2444 H2429 0.930 . S
C2444 C2439 1.390 . S
C2444 C2443 1.387 . S
H2445 C2457 0.930 . S
H2446 C2459 0.930 . S
H2447 C2460 0.930 . S
H2448 C2464 0.959 . S
H2449 C2464 0.959 . S
H2450 C2464 0.961 . S
H2451 C2465 0.960 . S
H2452 C2465 0.961 . S
H2453 C2465 0.959 . S
H2454 C2468 0.929 . S
H2455 C2469 0.931 . S
H2456 C2471 0.930 . S
C2457 H2445 0.930 . S
C2457 C2458 1.399 . S
C2457 C2462 1.399 . S
C2458 C2457 1.399 . S
C2458 C2459 1.376 . S
C2459 H2446 0.930 . S
C2459 C2458 1.376 . S
C2459 C2460 1.388 . S
C2460 H2447 0.930 . S
C2460 C2459 1.388 . S
C2460 C2461 1.390 . S
C2461 C2460 1.390 . S
C2461 C2462 1.394 . S
C2461 C2467 1.465 . S
C2462 C2457 1.399 . S
C2462 C2461 1.394 . S
C2462 C2463 1.516 1_554 S
C2463 C2462 1.516 1_556 S
C2463 C2464 1.502 . S
C2463 C2465 1.561 . S
C2463 C2466 1.526 . S
C2464 H2448 0.959 . S
C2464 H2449 0.959 . S
C2464 H2450 0.961 . S
C2464 C2463 1.502 . S
C2465 H2451 0.960 . S
C2465 H2452 0.961 . S
C2465 H2453 0.959 . S
C2465 C2463 1.561 . S
C2466 C2463 1.526 . S
C2466 C2467 1.396 1_556 S
C2466 C2471 1.390 . S
C2467 C2461 1.465 . S
C2467 C2466 1.396 1_554 S
C2467 C2468 1.399 . S
C2468 H2454 0.929 . S
C2468 C2467 1.399 . S
C2468 C2469 1.385 1_554 S
C2469 H2455 0.931 . S
C2469 C2468 1.385 1_556 S
C2469 C2470 1.389 . S
C2470 C2469 1.389 . S
C2470 C2471 1.387 . S
C2471 H2456 0.930 . S
C2471 C2466 1.390 . S
C2471 C2470 1.387 . S
C541 C29 1.500 . S
C553 C7 1.400 . S
C568 C18 1.484 . S
C580 C40 1.431 . S
C595 C73 1.407 . S
C607 C51 1.471 . S
C622 C62 1.496 . S
C634 C84 1.412 . S
C649 C139 1.414 . S
C661 C95 1.494 . S
C676 C150 1.486 . S
C688 C106 1.428 . S
C703 C117 1.498 . S
C715 C161 1.396 . S
C730 C128 1.397 . S
C742 C172 1.487 . S
C757 C216 1.499 . S
C769 C183 1.405 . S
C784 C194 1.413 . S
C796 C238 1.464 . S
C811 C249 1.412 . S
C823 C205 1.495 . S
C838 C260 1.479 . S
C850 C227 1.403 . S
C865 C271 1.406 . S
C877 C293 1.473 . S
C892 C282 1.395 . S
C904 C304 1.492 . S
C919 C337 1.481 . S
C931 C315 1.434 . S
C946 C348 1.492 . S
C958 C326 1.419 . S
C973 C359 1.491 . S
C985 C403 1.397 . S
C1000 C370 1.479 . S
C1012 C414 1.437 . S
C1027 C381 1.475 . S
C1039 C425 1.406 . S
C1054 C436 1.409 . S
C1066 C392 1.469 . S
C1081 C480 1.490 . S
C1093 C447 1.423 . S
C1108 C502 1.406 . S
C1120 C458 1.473 . S
C1135 C513 1.475 . S
C1147 C469 1.406 . S
C1162 C524 1.405 . S
C1174 C491 1.498 . S
C1189 C5 1.275 . S
C1201 C346 1.189 . S
C1216 C313 1.177 . S
C1228 C16 1.264 . S
C1243 C27 1.269 . S
C1255 C324 1.182 . S
C1270 C38 1.292 . S
C1282 C335 1.300 . S
C1297 C280 1.148 . S
C1309 C49 1.144 . S
C1324 C291 1.265 . S
C1336 C60 1.307 . S
C1351 C71 1.141 . S
C1363 C302 1.216 . S
C1378 C82 1.261 . S
C1390 C269 1.306 . S
C1405 C489 1.308 . S
C1417 C93 1.266 . S
C1432 C104 1.278 . S
C1444 C456 1.194 . S
C1459 C467 1.303 . S
C1471 C115 1.237 . S
C1486 C126 1.306 . S
C1498 C478 1.247 . S
C1513 C137 1.135 . S
C1525 C522 1.162 . S
C1540 C148 1.277 . S
C1552 C500 1.191 . S
C1567 C159 1.190 . S
C1579 C511 1.135 . S
C1594 C170 1.271 . S
C1606 C445 1.185 . S
C1621 C181 1.141 . S
C1633 C434 1.151 . S
C1648 C192 1.154 . S
C1660 C368 1.140 . S
C1675 C203 1.132 . S
C1687 C379 1.182 . S
C1702 C390 1.285 . S
C1714 C214 1.202 . S
C1729 C225 1.139 . S
C1741 C357 1.210 . S
C1756 C412 1.277 . S
C1768 C236 1.192 . S
C1783 C423 1.133 . S
C1795 C247 1.185 . S
C1810 C401 1.292 . S
C1822 C258 1.300 . S
C1837 C250 1.592 . S
C1849 C8 1.667 . S
C1864 C184 1.633 . S
C1876 C19 1.638 . S
C1891 C30 1.588 . S
C1903 C261 1.666 . S
C1918 C41 1.665 . S
C1930 C239 1.588 . S
C1945 C52 1.602 . S
C1957 C206 1.663 . S
C1972 C217 1.602 . S
C1984 C63 1.640 . S
C1999 C228 1.611 . S
C2011 C74 1.657 . S
C2026 C85 1.603 . S
C2038 C195 1.638 . S
C2053 C96 1.614 . S
C2065 C151 1.626 . S
C2080 C107 1.659 . S
C2092 C162 1.590 . S
C2107 C118 1.620 . S
C2119 C173 1.650 . S
C2134 C140 1.642 . S
C2146 C129 1.601 . S
C2161 C514 1.592 . S
C2173 C272 1.667 . S
C2188 C283 1.649 . S
C2200 C448 1.622 . S
C2215 C294 1.598 . S
C2227 C525 1.644 . S
C2242 C503 1.667 . S
C2254 C305 1.594 . S
C2269 C316 1.649 . S
C2281 C470 1.596 . S
C2296 C327 1.644 . S
C2308 C481 1.628 . S
C2323 C492 1.648 . S
C2335 C338 1.596 . S
C2350 C459 1.638 . S
C2362 C349 1.604 . S
C2377 C360 1.661 . S
C2389 C415 1.589 . S
C2404 C426 1.661 . S
C2416 C371 1.589 . S
C2431 C382 1.645 . S
C2443 C437 1.598 . S
C2458 C404 1.656 . S
C2470 C393 1.591 . S
