# Generated by pormake.
# Topology uoj, (4)-cn, num edge types: 1
# Building blocks:
#     Node 0, Type 0, BuildingBlock: ESEHIV_clean_sbu_0, # of connection points: 4
#     Node 1, Type 0, BuildingBlock: ESEHIV_clean_sbu_0, # of connection points: 4
#     Node 2, Type 0, BuildingBlock: ESEHIV_clean_sbu_0, # of connection points: 4
#     Node 3, Type 0, BuildingBlock: ESEHIV_clean_sbu_0, # of connection points: 4
#     Node 4, Type 0, BuildingBlock: ESEHIV_clean_sbu_0, # of connection points: 4
#     Node 5, Type 0, BuildingBlock: ESEHIV_clean_sbu_0, # of connection points: 4
#     Node 6, Type 0, BuildingBlock: ESEHIV_clean_sbu_0, # of connection points: 4
#     Node 7, Type 0, BuildingBlock: ESEHIV_clean_sbu_0, # of connection points: 4
#     Edge 8, Type (0, 0), BuildingBlock: FUNLAD_clean_linker_0, # of connection points: 2
#     Edge 9, Type (0, 0), BuildingBlock: FUNLAD_clean_linker_0, # of connection points: 2
#     Edge 10, Type (0, 0), BuildingBlock: FUNLAD_clean_linker_0, # of connection points: 2
#     Edge 11, Type (0, 0), BuildingBlock: FUNLAD_clean_linker_0, # of connection points: 2
#     Edge 12, Type (0, 0), BuildingBlock: FUNLAD_clean_linker_0, # of connection points: 2
#     Edge 13, Type (0, 0), BuildingBlock: FUNLAD_clean_linker_0, # of connection points: 2
#     Edge 14, Type (0, 0), BuildingBlock: FUNLAD_clean_linker_0, # of connection points: 2
#     Edge 15, Type (0, 0), BuildingBlock: FUNLAD_clean_linker_0, # of connection points: 2
#     Edge 16, Type (0, 0), BuildingBlock: FUNLAD_clean_linker_0, # of connection points: 2
#     Edge 17, Type (0, 0), BuildingBlock: FUNLAD_clean_linker_0, # of connection points: 2
#     Edge 18, Type (0, 0), BuildingBlock: FUNLAD_clean_linker_0, # of connection points: 2
#     Edge 19, Type (0, 0), BuildingBlock: FUNLAD_clean_linker_0, # of connection points: 2
#     Edge 20, Type (0, 0), BuildingBlock: FUNLAD_clean_linker_0, # of connection points: 2
#     Edge 21, Type (0, 0), BuildingBlock: FUNLAD_clean_linker_0, # of connection points: 2
#     Edge 22, Type (0, 0), BuildingBlock: FUNLAD_clean_linker_0, # of connection points: 2
#     Edge 23, Type (0, 0), BuildingBlock: FUNLAD_clean_linker_0, # of connection points: 2
# Relax obj value: 0.034
# Max RMSD: 0.219
# Mean RMSD: 0.219
data_MOF--net-uoj--node1-ESEHIV_clean_sbu_0--edge1-FUNLAD_clean_linker_0
_symmetry_space_group_name_H-M    P1
_symmetry_Int_Tables_number       1
_symmetry_cell_setting            triclinic
loop_
_symmetry_equiv_pos_as_xyz
'x, y, z'
_cell_length_a     39.949984
_cell_length_b     40.287298
_cell_length_c     50.796672
_cell_angle_alpha  89.61475
_cell_angle_beta   90.093244
_cell_angle_gamma 90.223721
loop_
_atom_site_label
_atom_site_type_symbol
_atom_site_fract_x
_atom_site_fract_y
_atom_site_fract_z
_atom_type_partial_charge
Cu0 Cu 0.06008 0.30452 0.42363 0.0
N1 N 1.0168 0.28716 0.42151 0.0
N2 N 0.96796 0.26353 0.43243 0.0
C3 C 0.99964 0.27037 0.44019 0.0
C4 C 0.96528 0.27643 0.40792 0.0
C5 C 0.99542 0.29093 0.40126 0.0
O6 O 0.08547 0.2785 0.44917 0.0
C7 C 0.07976 0.37177 0.43301 0.0
O8 O 0.10872 0.36303 0.42308 0.0
H9 H 1.00984 0.26424 0.45936 0.0
H10 H 1.00125 0.30383 0.38308 0.0
N11 N 0.08014 0.30188 0.39037 0.0
N12 N 0.10193 0.31467 0.35092 0.0
C13 C 0.08586 0.32616 0.37246 0.0
C14 C 0.09251 0.2741 0.37968 0.0
C15 C 0.10596 0.28184 0.35546 0.0
C16 C 0.11733 0.27863 0.44967 0.0
O17 O 0.13374 0.2971 0.4326 0.0
H18 H 0.07896 0.3518 0.37543 0.0
H19 H 0.09196 0.24989 0.38901 0.0
O20 O 0.05641 0.35035 0.43505 0.0
H21 H 0.9431 0.2755 0.39567 0.0
H22 H 0.11764 0.26447 0.34221 0.0
Cu23 Cu 0.30273 1.00195 0.6287 0.0
N24 N 0.28649 0.04491 0.62398 0.0
N25 N 0.26019 0.08867 0.60635 0.0
C26 C 0.26735 0.05605 0.60396 0.0
C27 C 0.27548 0.09826 0.62881 0.0
C28 C 0.29162 0.07121 0.63964 0.0
O29 O 0.28065 0.97432 0.60251 0.0
C30 C 0.36873 0.97685 0.62258 0.0
O31 O 0.35421 0.94774 0.62538 0.0
H32 H 0.25931 0.0406 0.58778 0.0
H33 H 0.30607 0.07069 0.65766 0.0
N34 N 0.29158 0.98741 0.66266 0.0
N35 N 0.29376 0.96971 0.70451 0.0
C36 C 0.31163 0.97966 0.68322 0.0
C37 C 0.26016 0.98248 0.67129 0.0
C38 C 0.26138 0.97152 0.69698 0.0
C39 C 0.27384 0.94363 0.60557 0.0
O40 O 0.28333 0.92832 0.62722 0.0
H41 H 0.33869 0.98074 0.68241 0.0
H42 H 0.23789 0.98651 0.65957 0.0
O43 O 0.35097 1.00294 0.62359 0.0
H44 H 0.27474 0.12295 0.63706 0.0
H45 H 0.24001 0.96564 0.70924 0.0
Cu46 Cu 1.01619 0.73711 0.42801 0.0
N47 N 0.05971 0.75327 0.43181 0.0
N48 N 0.10521 0.77692 0.44935 0.0
C49 C 0.07189 0.77173 0.4517 0.0
C50 C 0.1142 0.76116 0.42709 0.0
C51 C 0.08607 0.74665 0.41631 0.0
O52 O 0.98794 0.75823 0.45403 0.0
C53 C 0.0284 0.6732 0.45129 0.0
O54 O 0.0384 0.68935 0.47228 0.0
H55 H 0.05683 0.78015 0.46802 0.0
H56 H 0.08497 0.73173 0.39871 0.0
N57 N 1.00042 0.74589 0.3941 0.0
N58 N 0.97614 0.73714 0.35502 0.0
C59 C 0.9839 0.7241 0.37882 0.0
C60 C 1.00336 0.77376 0.37957 0.0
C61 C 0.98843 0.76844 0.3554 0.0
C62 C 0.95641 0.76123 0.45145 0.0
O63 O 0.94148 0.74795 0.43098 0.0
H64 H 0.97821 0.69895 0.38499 0.0
H65 H 1.01559 0.79627 0.38607 0.0
O66 O 1.01715 0.68928 0.43159 0.0
H67 H 0.13932 0.76008 0.41921 0.0
H68 H 0.98649 0.78635 0.33951 0.0
Cu69 Cu 0.73996 0.04475 0.59347 0.0
N70 N 0.76073 1.00335 0.59512 0.0
N71 N 0.78785 0.95753 0.58274 0.0
C72 C 0.77335 0.9862 0.57478 0.0
C73 C 0.7841 0.95682 0.60918 0.0
C74 C 0.76747 0.9851 0.61673 0.0
O75 O 0.76278 0.07032 0.56626 0.0
C76 C 0.67597 1.01999 0.60241 0.0
O77 O 0.69231 1.00475 0.62139 0.0
H78 H 0.77256 0.99507 0.55464 0.0
H79 H 0.76092 0.99202 0.6366 0.0
N80 N 0.74499 0.06609 0.62573 0.0
N81 N 0.73254 0.09221 0.66312 0.0
C82 C 0.72041 0.07827 0.64094 0.0
C83 C 0.77368 0.0726 0.6386 0.0
C84 C 0.7661 0.08875 0.66168 0.0
C85 C 0.76446 0.10188 0.56598 0.0
O86 O 0.74762 0.11876 0.58355 0.0
H87 H 0.69419 0.07725 0.63564 0.0
H88 H 0.79833 0.0659 0.63171 0.0
O89 O 0.69223 0.03894 0.58678 0.0
H90 H 0.79255 0.93722 0.62222 0.0
H91 H 0.78389 0.09676 0.67644 0.0
Cu92 Cu 0.48653 0.82284 0.94352 0.0
N93 N 0.503 0.81093 0.97671 0.0
N94 N 0.53678 0.78097 1.00286 0.0
C95 C 0.53206 0.79439 0.97874 0.0
C96 C 0.50945 0.78985 1.01679 0.0
C97 C 0.48843 0.8081 1.00048 0.0
O98 O 0.47141 0.77984 0.93003 0.0
C99 C 0.53782 0.86843 0.93827 0.0
O100 O 0.53452 0.8678 0.96397 0.0
H101 H 0.54867 0.79109 0.96218 0.0
H102 H 0.46349 0.81663 1.00508 0.0
N103 N 0.45125 0.85307 0.94166 0.0
N104 N 0.4168 0.88593 0.91849 0.0
C105 C 0.43506 0.85789 0.91872 0.0
C106 C 0.44336 0.87931 0.95665 0.0
C107 C 0.42192 0.89964 0.94238 0.0
C108 C 0.44112 0.77128 0.93458 0.0
O109 O 0.42013 0.79358 0.94335 0.0
H110 H 0.43901 0.8424 0.90167 0.0
H111 H 0.45434 0.88459 0.97565 0.0
O112 O 0.52148 0.84732 0.92459 0.0
H113 H 0.50396 0.78195 0.03673 0.0
H114 H 0.41219 0.92334 0.94864 0.0
Cu115 Cu 0.79577 0.5459 0.11609 0.0
N116 N 0.77534 0.50412 0.11203 0.0
N117 N 0.7465 0.46075 0.09618 0.0
C118 C 0.75741 0.49214 0.09158 0.0
C119 C 0.75817 0.45279 0.12035 0.0
C120 C 0.77586 0.47942 0.12999 0.0
O121 O 0.76684 0.58061 0.10206 0.0
C122 C 0.861 0.52395 0.11097 0.0
O123 O 0.85012 0.50433 0.12989 0.0
H124 H 0.75212 0.50624 0.07389 0.0
H125 H 0.78842 0.48064 0.14883 0.0
N126 N 0.79976 0.55473 0.15204 0.0
N127 N 0.81841 0.57394 0.19062 0.0
C128 C 0.82452 0.57119 0.16453 0.0
C129 C 0.77714 0.54714 0.17073 0.0
C130 C 0.78862 0.55877 0.19452 0.0
C131 C 0.75884 0.58563 0.07812 0.0
O132 O 0.77213 0.56716 0.05969 0.0
H133 H 0.84653 0.58084 0.15468 0.0
H134 H 0.7537 0.53441 0.16719 0.0
O135 O 0.84081 0.54507 0.10106 0.0
H136 H 0.75468 0.42917 0.13025 0.0
H137 H 0.77558 0.55692 0.21314 0.0
Cu138 Cu 0.55504 0.22982 0.92073 0.0
N139 N 0.51026 0.24148 0.92554 0.0
N140 N 0.46325 0.265 0.94024 0.0
C141 C 0.49709 0.2644 0.94171 0.0
C142 C 0.45506 0.24166 0.92236 0.0
C143 C 0.48404 0.22727 0.91337 0.0
O144 O 0.58366 0.2557 0.94395 0.0
C145 C 0.58683 0.16689 0.92659 0.0
O146 O 0.61477 0.18419 0.92582 0.0
H147 H 0.51197 0.27985 0.9546 0.0
H148 H 0.48594 0.20768 0.899 0.0
N149 N 0.56716 0.23934 0.88606 0.0
N150 N 0.58904 0.23402 0.84582 0.0
C151 C 0.58285 0.21902 0.86919 0.0
C152 C 0.56308 0.26816 0.87296 0.0
C153 C 0.5766 0.26499 0.84814 0.0
C154 C 0.58243 0.25366 0.96893 0.0
O155 O 0.56183 0.23218 0.97991 0.0
H156 H 0.59026 0.19398 0.87419 0.0
H157 H 0.55134 0.28999 0.88102 0.0
O158 O 0.55897 0.18207 0.92596 0.0
H159 H 0.42993 0.23559 0.91597 0.0
H160 H 0.57708 0.28399 0.83298 0.0
Cu161 Cu 0.2313 0.48904 0.08355 0.0
N162 N 0.25388 0.52861 0.07565 0.0
N163 N 0.28641 0.56573 0.05482 0.0
C164 C 0.27064 0.53603 0.05332 0.0
C165 C 0.27912 0.5774 0.07899 0.0
C166 C 0.25905 0.5545 0.09175 0.0
O167 O 0.25098 0.45518 0.06116 0.0
C168 C 0.16335 0.47065 0.07543 0.0
O169 O 0.17551 0.4404 0.07546 0.0
H170 H 0.272 0.51955 0.03662 0.0
H171 H 0.24935 0.5563 0.11156 0.0
N172 N 0.23855 0.47829 0.11904 0.0
N173 N 0.23202 0.45784 0.15985 0.0
C174 C 0.21766 0.46266 0.13597 0.0
C175 C 0.2669 0.48371 0.13265 0.0
C176 C 0.26298 0.47121 0.15775 0.0
C177 C 0.25654 0.42545 0.06857 0.0
O178 O 0.24595 0.41544 0.09177 0.0
H179 H 0.19288 0.45414 0.13061 0.0
H180 H 0.28903 0.49565 0.12473 0.0
O181 O 0.18341 0.49507 0.07781 0.0
H182 H 0.28755 0.6009 0.08687 0.0
H183 H 0.28158 0.47198 0.17324 0.0
C184 C 0.18332 0.43829 0.18626 0.0
C185 C 0.21815 0.44066 0.18247 0.0
C186 C 0.17012 0.42146 0.20822 0.0
C187 C 0.19154 0.40659 0.22693 0.0
C188 C 0.22625 0.40882 0.22295 0.0
C189 C 0.23938 0.42567 0.20115 0.0
C190 C 0.17914 0.38732 0.25019 0.0
C191 C 0.14806 0.3897 0.26043 0.0
C192 C 0.13668 0.36998 0.28381 0.0
C193 C 0.11008 0.38179 0.29917 0.0
C194 C 0.09873 0.36385 0.32119 0.0
C195 C 0.1135 0.3334 0.32825 0.0
H196 H 0.17098 0.32866 0.27902 0.0
C197 C 0.13986 0.32143 0.31264 0.0
C198 C 0.15118 0.33932 0.29069 0.0
H199 H 0.15208 0.29826 0.31744 0.0
H200 H 0.16621 0.4496 0.17235 0.0
H201 H 0.14322 0.41972 0.21011 0.0
H202 H 0.24343 0.39737 0.23679 0.0
H203 H 0.26627 0.42637 0.19873 0.0
H204 H 0.19724 0.37138 0.25992 0.0
H205 H 0.13068 0.40771 0.2523 0.0
H206 H 0.09812 0.4051 0.29421 0.0
H207 H 0.07809 0.37368 0.33243 0.0
C208 C 0.33636 0.97084 0.74024 0.0
C209 C 0.30605 0.95867 0.72987 0.0
C210 C 0.34761 0.96046 0.76517 0.0
C211 C 0.32881 0.93751 0.78019 0.0
C212 C 0.29887 0.92508 0.76956 0.0
C213 C 0.28753 0.93563 0.74487 0.0
C214 C 0.34018 0.92441 0.80624 0.0
C215 C 0.36164 0.94027 0.82248 0.0
C216 C 0.37335 0.92592 0.8481 0.0
C217 C 0.38579 0.94713 0.86775 0.0
C218 C 0.39878 0.93425 0.89137 0.0
C219 C 0.40003 0.89977 0.89572 0.0
H220 H 0.36559 0.87402 0.83804 0.0
C221 C 0.38701 0.87863 0.87628 0.0
C222 C 0.374 0.89143 0.85277 0.0
H223 H 0.38744 0.85197 0.87904 0.0
H224 H 0.35118 0.98864 0.72921 0.0
H225 H 0.37127 0.97 0.77231 0.0
H226 H 0.28405 0.90707 0.78045 0.0
H227 H 0.26441 0.92528 0.73735 0.0
H228 H 0.32913 0.90107 0.81265 0.0
H229 H 0.37036 0.96502 0.8173 0.0
H230 H 0.38587 0.97377 0.86468 0.0
H231 H 0.40899 0.95122 0.90576 0.0
C232 C 0.93654 0.69431 0.33906 0.0
C233 C 0.95862 0.72079 0.33379 0.0
C234 C 0.9199 0.67804 0.3186 0.0
C235 C 0.92512 0.68766 0.29221 0.0
C236 C 0.94667 0.71454 0.28698 0.0
C237 C 0.96331 0.73086 0.30749 0.0
C238 C 0.90765 0.67112 0.26981 0.0
C239 C 0.89546 0.63985 0.27111 0.0
C240 C 0.87648 0.6233 0.24952 0.0
C241 C 0.85593 0.59612 0.25603 0.0
C242 C 0.83719 0.57989 0.23674 0.0
C243 C 0.83873 0.59019 0.21028 0.0
H244 H 0.89477 0.65352 0.21687 0.0
C245 C 0.85992 0.61688 0.20355 0.0
C246 C 0.87859 0.63331 0.22293 0.0
H247 H 0.86167 0.62547 0.18337 0.0
H248 H 0.9316 0.68642 0.35909 0.0
H249 H 0.90249 0.65844 0.32374 0.0
H250 H 0.95095 0.72277 0.26691 0.0
H251 H 0.98023 0.75102 0.30265 0.0
H252 H 0.90495 0.68542 0.25177 0.0
H253 H 0.89863 0.62558 0.28912 0.0
H254 H 0.85404 0.58755 0.27625 0.0
H255 H 0.82162 0.55907 0.24256 0.0
C256 C 0.60708 0.18562 0.81967 0.0
C257 C 0.60639 0.22014 0.82356 0.0
C258 C 0.62466 0.17207 0.79854 0.0
C259 C 0.64186 0.19279 0.78065 0.0
C260 C 0.64125 0.22725 0.78459 0.0
C261 C 0.6236 0.2408 0.80568 0.0
C262 C 0.66185 0.17938 0.75841 0.0
C263 C 0.65613 0.14945 0.7475 0.0
C264 C 0.6763 0.13581 0.72546 0.0
C265 C 0.66206 0.11118 0.7095 0.0
C266 C 0.68035 0.09711 0.68899 0.0
C267 C 0.71354 0.10708 0.6841 0.0
H268 H 0.7219 0.16391 0.73298 0.0
C269 C 0.72795 0.13152 0.70023 0.0
C270 C 0.7096 0.14571 0.7207 0.0
H271 H 0.75339 0.13986 0.69697 0.0
H272 H 0.59399 0.16896 0.83294 0.0
H273 H 0.62521 0.14534 0.79673 0.0
H274 H 0.65455 0.2438 0.77131 0.0
H275 H 0.62406 0.26743 0.80826 0.0
H276 H 0.68105 0.19547 0.75014 0.0
H277 H 0.63492 0.1347 0.75411 0.0
H278 H 0.63663 0.10276 0.71289 0.0
H279 H 0.66862 0.07796 0.67728 0.0
C280 C 0.24586 0.14353 0.58713 0.0
C281 C 0.24062 0.10902 0.58859 0.0
C282 C 0.22705 0.16324 0.56986 0.0
C283 C 0.20253 0.14888 0.55351 0.0
C284 C 0.19693 0.1145 0.55528 0.0
C285 C 0.21585 0.09477 0.57247 0.0
C286 C 0.18179 0.169 0.53495 0.0
C287 C 0.19199 0.19825 0.52459 0.0
C288 C 0.17192 0.21816 0.50546 0.0
C289 C 0.18867 0.2407 0.48884 0.0
C290 C 0.17096 0.26018 0.47075 0.0
C291 C 0.1359 0.25793 0.46902 0.0
H292 H 0.12278 0.19973 0.51689 0.0
C293 C 0.11898 0.23572 0.4859 0.0
C294 C 0.13676 0.21605 0.50393 0.0
H295 H 0.09196 0.2335 0.4852 0.0
H296 H 0.26477 0.15536 0.59915 0.0
H297 H 0.23152 0.18974 0.56973 0.0
H298 H 0.17797 0.10278 0.54318 0.0
H299 H 0.21071 0.0684 0.57337 0.0
H300 H 0.15817 0.1583 0.52857 0.0
H301 H 0.21694 0.20736 0.5291 0.0
H302 H 0.21568 0.24311 0.48971 0.0
H303 H 0.18482 0.27712 0.45817 0.0
C304 C 0.24872 0.89132 0.58732 0.0
C305 C 0.25368 0.92584 0.58551 0.0
C306 C 0.22855 0.87477 0.56901 0.0
C307 C 0.21279 0.89242 0.54846 0.0
C308 C 0.21772 0.92689 0.54671 0.0
C309 C 0.23812 0.94339 0.56485 0.0
C310 C 0.18984 0.87603 0.52935 0.0
C311 C 0.19246 0.8439 0.52241 0.0
C312 C 0.16954 0.82762 0.50325 0.0
C313 C 0.18134 0.8007 0.48857 0.0
C314 C 0.1604 0.78436 0.47071 0.0
C315 C 0.12691 0.79418 0.46747 0.0
H316 H 0.12569 0.85752 0.51153 0.0
C317 C 0.1149 0.82084 0.48242 0.0
C318 C 0.13598 0.83746 0.50007 0.0
H319 H 0.08925 0.82901 0.48033 0.0
H320 H 0.26016 0.87707 0.60307 0.0
H321 H 0.22469 0.84833 0.57147 0.0
H322 H 0.2057 0.94116 0.53123 0.0
H323 H 0.24119 0.97002 0.56294 0.0
H324 H 0.17114 0.8915 0.51981 0.0
H325 H 0.21317 0.82926 0.52996 0.0
H326 H 0.20694 0.79234 0.49083 0.0
H327 H 0.17028 0.7636 0.45982 0.0
C328 C 0.82805 0.91125 0.5775 0.0
C329 C 0.80447 0.93324 0.56654 0.0
C330 C 0.84435 0.88793 0.5618 0.0
C331 C 0.8377 0.88619 0.53461 0.0
C332 C 0.81378 0.90781 0.52377 0.0
C333 C 0.79743 0.93107 0.53947 0.0
C334 C 0.85453 0.86197 0.51695 0.0
C335 C 0.88367 0.84671 0.52279 0.0
C336 C 0.90126 0.82372 0.50458 0.0
C337 C 0.93567 0.8183 0.50822 0.0
C338 C 0.95345 0.7976 0.49129 0.0
C339 C 0.93716 0.78158 0.47034 0.0
H340 H 0.85804 0.80938 0.48105 0.0
C341 C 0.90252 0.78619 0.4671 0.0
C342 C 0.88472 0.80691 0.48406 0.0
H343 H 0.88911 0.77399 0.45132 0.0
H344 H 0.83429 0.91217 0.59821 0.0
H345 H 0.86178 0.8712 0.57126 0.0
H346 H 0.80778 0.90686 0.50297 0.0
H347 H 0.77903 0.94708 0.53035 0.0
H348 H 0.84319 0.85811 0.49778 0.0
H349 H 0.89652 0.85267 0.54099 0.0
H350 H 0.94905 0.83057 0.524 0.0
H351 H 0.98008 0.79454 0.49446 0.0
C352 C 0.79011 0.15398 0.54725 0.0
C353 C 0.78806 0.11913 0.54787 0.0
C354 C 0.81425 0.17014 0.53178 0.0
C355 C 0.83693 0.15176 0.51654 0.0
C356 C 0.83459 0.11697 0.51696 0.0
C357 C 0.81034 0.10084 0.53227 0.0
C358 C 0.86443 0.16778 0.50118 0.0
C359 C 0.86305 0.19912 0.49178 0.0
C360 C 0.89069 0.21492 0.47648 0.0
C361 C 0.88293 0.23993 0.45813 0.0
C362 C 0.9082 0.25565 0.44359 0.0
C363 C 0.94197 0.24714 0.44741 0.0
H364 H 0.93159 0.18797 0.49495 0.0
C365 C 0.94986 0.22252 0.46613 0.0
C366 C 0.92452 0.20649 0.48047 0.0
H367 H 0.97562 0.2154 0.4695 0.0
H368 H 0.77351 0.16884 0.55916 0.0
H369 H 0.8157 0.19694 0.53254 0.0
H370 H 0.85181 0.10215 0.50556 0.0
H371 H 0.80964 0.07396 0.53236 0.0
H372 H 0.88602 0.15258 0.49659 0.0
H373 H 0.84022 0.21333 0.49412 0.0
H374 H 0.85716 0.24722 0.45488 0.0
H375 H 0.9013 0.27488 0.42966 0.0
C376 C 0.33316 0.60307 0.04219 0.0
C377 C 0.30684 0.58171 0.03496 0.0
C378 C 0.35188 0.61998 0.02303 0.0
C379 C 0.34463 0.61603 0.99609 0.0
C380 C 0.31861 0.59434 0.98887 0.0
C381 C 0.30014 0.57711 1.00805 0.0
C382 C 0.36116 0.63685 0.97545 0.0
C383 C 0.39205 0.65014 0.97815 0.0
C384 C 0.40583 0.67685 0.96067 0.0
C385 C 0.44027 0.6843 0.96176 0.0
C386 C 0.45295 0.71353 0.9503 0.0
C387 C 0.43125 0.73608 0.93787 0.0
H388 H 0.35809 0.69384 0.94498 0.0
C389 C 0.3974 0.72735 0.93488 0.0
C390 C 0.38479 0.69809 0.94607 0.0
H391 H 0.38007 0.74447 0.92562 0.0
H392 H 0.33914 0.60696 0.06273 0.0
H393 H 0.37108 0.6371 0.02951 0.0
H394 H 0.31215 0.59112 0.96832 0.0
H395 H 0.27985 0.56108 1.00183 0.0
H396 H 0.3468 0.64193 0.95773 0.0
H397 H 0.40748 0.64243 0.99471 0.0
H398 H 0.4571 0.66853 0.9729 0.0
H399 H 0.47905 0.71987 0.95334 0.0
C400 C 0.72105 0.61451 0.04559 0.0
C401 C 0.73299 0.61084 0.07149 0.0
C402 C 0.69542 0.63706 0.03972 0.0
C403 C 0.68123 0.65678 0.05964 0.0
C404 C 0.69333 0.65312 0.08547 0.0
C405 C 0.7189 0.63058 0.09133 0.0
C406 C 0.65296 0.68027 0.05463 0.0
C407 C 0.64545 0.69284 0.03065 0.0
C408 C 0.6167 0.71541 0.02479 0.0
C409 C 0.60746 0.71986 0.99835 0.0
C410 C 0.58124 0.74092 0.99133 0.0
C411 C 0.56346 0.75864 1.01054 0.0
H412 H 0.60532 0.73079 0.06482 0.0
C413 C 0.57246 0.75416 0.03713 0.0
C414 C 0.59882 0.73286 0.04421 0.0
H415 H 0.55954 0.76757 0.05242 0.0
H416 H 0.73104 0.59948 0.02987 0.0
H417 H 0.68632 0.63812 0.01968 0.0
H418 H 0.68286 0.66771 0.10127 0.0
H419 H 0.72734 0.6284 0.11153 0.0
H420 H 0.63808 0.68732 0.07152 0.0
H421 H 0.66088 0.68607 1.01399 0.0
H422 H 0.62053 0.70678 0.9829 0.0
H423 H 0.57478 0.7429 0.97071 0.0
C424 C 0.70647 0.4144 0.08989 0.0
C425 C 0.72675 0.43969 0.07916 0.0
C426 C 0.68822 0.39308 0.07361 0.0
C427 C 0.68997 0.39625 0.04601 0.0
C428 C 0.70957 0.42208 0.0353 0.0
C429 C 0.72778 0.44352 0.05164 0.0
C430 C 0.67114 0.37381 0.02785 0.0
C431 C 0.65968 0.34338 0.03485 0.0
C432 C 0.64029 0.32088 1.01717 0.0
C433 C 0.62094 0.29542 0.02863 0.0
C434 C 0.60235 0.27356 1.01302 0.0
C435 C 0.60288 0.27636 0.98544 0.0
H436 H 0.65644 0.34201 0.97973 0.0
C437 C 0.62267 0.30147 0.97387 0.0
C438 C 0.64118 0.32347 0.98951 0.0
H439 H 0.62382 0.30425 0.95266 0.0
H440 H 0.70433 0.41125 0.11099 0.0
H441 H 0.67245 0.37458 0.08291 0.0
H442 H 0.71118 0.42545 1.01416 0.0
H443 H 0.74319 0.46262 0.04268 0.0
H444 H 0.66695 0.38287 1.00796 0.0
H445 H 0.66411 0.33429 0.05469 0.0
H446 H 0.61993 0.29256 0.04984 0.0
H447 H 0.5875 0.25449 0.02264 0.0
C448 C 0.40727 0.27544 0.95933 0.0
C449 C 0.44042 0.28582 0.95469 0.0
C450 C 0.38484 0.29575 0.97281 0.0
C451 C 0.39504 0.32701 0.98215 0.0
C452 C 0.4281 0.33747 0.97741 0.0
C453 C 0.4506 0.31707 0.964 0.0
C454 C 0.37166 0.34976 0.99603 0.0
C455 C 0.34434 0.33921 1.00933 0.0
C456 C 0.32135 0.36182 0.02366 0.0
C457 C 0.303 0.34921 0.04509 0.0
C458 C 0.28154 0.3697 0.05936 0.0
C459 C 0.2775 0.40323 0.05228 0.0
H460 H 0.32961 0.4056 0.99926 0.0
C461 C 0.29503 0.41564 0.0303 0.0
C462 C 0.31675 0.3952 1.01615 0.0
H463 H 0.29242 0.44134 0.02423 0.0
H464 H 0.39857 0.25147 0.95263 0.0
H465 H 0.3594 0.28702 0.97536 0.0
H466 H 0.43661 0.36154 0.98413 0.0
H467 H 0.47576 0.32607 0.9605 0.0
H468 H 0.37823 0.37594 0.9963 0.0
H469 H 0.33951 0.31277 1.01121 0.0
H470 H 0.30572 0.32352 0.05114 0.0
H471 H 0.26834 0.35926 0.0761 0.0
C472 C 0.04233 0.61753 0.47121 0.0
C473 C 0.03328 0.63685 0.44918 0.0
C474 C 0.04894 0.58356 0.46853 0.0
C475 C 0.04693 0.56842 0.44367 0.0
C476 C 0.03766 0.58771 0.42179 0.0
C477 C 0.03057 0.6214 0.42452 0.0
C478 C 0.05615 0.53319 0.43944 0.0
C479 C 0.0518 0.50904 0.45757 0.0
C480 C 0.06011 0.47386 0.452 0.0
C481 C 0.03966 0.44844 0.46214 0.0
C482 C 0.0461 0.41522 0.45611 0.0
C483 C 0.07364 0.40675 0.44034 0.0
H484 H 0.10481 0.48434 0.42913 0.0
C485 C 0.09483 0.43214 0.43103 0.0
C486 C 0.08806 0.46536 0.43668 0.0
H487 H 0.11632 0.42644 0.41892 0.0
H488 H 0.04476 0.62872 0.49045 0.0
H489 H 0.05667 0.56954 0.48573 0.0
H490 H 0.03606 0.5767 0.40242 0.0
H491 H 1.02383 0.63551 0.40709 0.0
H492 H 0.06511 0.52661 0.41996 0.0
H493 H 0.03965 0.51465 0.47612 0.0
H494 H 1.01817 0.45434 0.47419 0.0
H495 H 0.02946 0.39619 0.46376 0.0
C496 C 0.62216 0.99529 0.61842 0.0
C497 C 0.63901 1.01653 0.60076 0.0
C498 C 0.58728 0.99283 0.61815 0.0
C499 C 0.56821 1.01138 0.60002 0.0
C500 C 0.58504 0.03263 0.58233 0.0
C501 C 0.62007 0.03507 0.58258 0.0
C502 C 0.53085 1.01044 0.6001 0.0
C503 C 0.513 0.98445 0.60956 0.0
C504 C 0.47575 0.98351 0.61148 0.0
C505 C 0.45984 0.95258 0.61464 0.0
C506 C 0.42516 0.95042 0.61799 0.0
C507 C 0.40546 0.97923 0.61847 0.0
H508 H 0.46726 0.03681 0.61022 0.0
C509 C 0.42129 1.01025 0.61525 0.0
C510 C 0.45603 1.01241 0.61185 0.0
H511 H 0.4069 0.03297 0.61565 0.0
H512 H 0.63587 0.98083 0.63287 0.0
H513 H 0.57548 0.97704 0.63275 0.0
H514 H 0.57102 0.04749 0.56832 0.0
H515 H 0.63224 0.05183 0.56882 0.0
H516 H 0.51792 0.03157 0.59156 0.0
H517 H 0.52612 0.96219 0.61578 0.0
H518 H 0.47433 0.9299 0.61467 0.0
H519 H 0.41387 0.92611 0.62043 0.0
C520 C 0.55811 0.11158 0.9219 0.0
C521 C 0.5877 0.13003 0.92567 0.0
C522 C 0.55903 0.07692 0.92008 0.0
C523 C 0.58963 0.05982 0.92198 0.0
C524 C 0.6191 0.07826 0.92605 0.0
C525 C 0.61821 0.11293 0.92768 0.0
C526 C 0.59143 0.02283 0.92196 0.0
C527 C 0.56817 1.00301 0.91068 0.0
C528 C 0.56669 0.96614 0.91426 0.0
C529 C 0.54463 0.94746 0.8985 0.0
C530 C 0.53771 0.91406 0.90444 0.0
C531 C 0.55255 0.8988 0.92645 0.0
H532 H 0.60035 0.96295 0.94799 0.0
C533 C 0.57653 0.91663 0.94093 0.0
C534 C 0.58352 0.94984 0.93499 0.0
H535 H 0.5882 0.90555 0.95813 0.0
H536 H 0.53414 0.12391 0.9203 0.0
H537 H 0.53561 0.06368 0.91782 0.0
H538 H 0.64297 0.06579 0.92796 0.0
H539 H 0.64148 0.1263 0.9306 0.0
H540 H 0.61289 1.01183 0.9317 0.0
H541 H 0.54847 1.01427 0.89893 0.0
H542 H 0.53124 0.95924 0.88242 0.0
H543 H 0.51872 0.90115 0.89316 0.0
C544 C 0.11276 0.5078 0.07784 0.0
C545 C 0.12652 0.47592 0.07489 0.0
C546 C 0.07798 0.51216 0.07946 0.0
C547 C 0.05614 0.48466 0.07801 0.0
C548 C 0.07 0.45301 0.07441 0.0
C549 C 0.10464 0.44867 0.07281 0.0
C550 C 1.01923 0.48714 0.08224 0.0
C551 C 1.00132 0.51552 0.08125 0.0
C552 C 0.96496 0.51678 0.08808 0.0
C553 C 0.94462 0.54202 0.0775 0.0
C554 C 0.91066 0.54428 0.08442 0.0
C555 C 0.89648 0.52155 0.10239 0.0
H556 H 0.96554 0.47509 0.11549 0.0
C557 C 0.91695 0.49648 0.11303 0.0
C558 C 0.95065 0.49417 0.10608 0.0
H559 H 0.90706 0.47866 0.1271 0.0
H560 H 0.12888 0.52934 0.07963 0.0
H561 H 0.06858 0.53691 0.08274 0.0
H562 H 0.05395 0.43131 0.07332 0.0
H563 H 0.11425 0.42376 0.0705 0.0
H564 H 1.00616 0.46398 0.08629 0.0
H565 H 1.01322 0.53847 0.07493 0.0
H566 H 0.95501 0.56005 0.06383 0.0
H567 H 0.89568 0.56402 0.07599 0.0
loop_
_geom_bond_atom_site_label_1
_geom_bond_atom_site_label_2
_geom_bond_distance
_geom_bond_site_symmetry_2
_ccdc_geom_bond_type
Cu0 N1 1.999 . S
Cu0 O6 1.974 . S
Cu0 N11 1.985 . S
Cu0 O20 1.959 . S
N1 Cu0 1.999 . S
N1 C3 1.263 . S
N1 C5 1.389 1_455 S
N2 C3 1.358 1_655 S
N2 C4 1.400 . S
C3 N1 1.263 . S
C3 N2 1.358 1_455 S
C3 H9 0.930 . S
C4 N2 1.400 . S
C4 C5 1.351 . S
C4 H21 0.930 . S
C5 N1 1.389 1_655 S
C5 C4 1.351 . S
C5 H10 0.930 . S
O6 Cu0 1.974 . S
O6 C16 1.282 . S
C7 O8 1.261 . S
C7 O20 1.251 . S
O8 C7 1.261 . S
H9 C3 0.930 . S
H10 C5 0.930 . S
N11 Cu0 1.985 . S
N11 C13 1.335 . S
N11 C14 1.390 . S
N12 C13 1.345 . S
N12 C15 1.336 . S
C13 N11 1.335 . S
C13 N12 1.345 . S
C13 H18 0.930 . S
C14 N11 1.390 . S
C14 C15 1.346 . S
C14 H19 0.930 . S
C15 N12 1.336 . S
C15 C14 1.346 . S
C15 H22 0.929 . S
C16 O6 1.282 . S
C16 O17 1.216 . S
O17 C16 1.216 . S
H18 C13 0.930 . S
H19 C14 0.930 . S
O20 Cu0 1.959 . S
O20 C7 1.251 . S
H21 C4 0.930 . S
H22 C15 0.929 . S
Cu23 N24 1.999 . S
Cu23 O29 1.974 . S
Cu23 N34 1.985 . S
Cu23 O43 1.959 . S
N24 Cu23 1.999 . S
N24 C26 1.263 . S
N24 C28 1.389 1_565 S
N25 C26 1.358 1_545 S
N25 C27 1.400 . S
C26 N24 1.263 . S
C26 N25 1.358 1_565 S
C26 H32 0.930 . S
C27 N25 1.400 . S
C27 C28 1.351 . S
C27 H44 0.930 . S
C28 N24 1.389 1_545 S
C28 C27 1.351 . S
C28 H33 0.930 . S
O29 Cu23 1.974 . S
O29 C39 1.282 . S
C30 O31 1.261 . S
C30 O43 1.251 . S
O31 C30 1.261 . S
H32 C26 0.930 . S
H33 C28 0.930 . S
N34 Cu23 1.985 . S
N34 C36 1.335 . S
N34 C37 1.390 . S
N35 C36 1.345 . S
N35 C38 1.336 . S
C36 N34 1.335 . S
C36 N35 1.345 . S
C36 H41 0.930 . S
C37 N34 1.390 . S
C37 C38 1.346 . S
C37 H42 0.930 . S
C38 N35 1.336 . S
C38 C37 1.346 . S
C38 H45 0.929 . S
C39 O29 1.282 . S
C39 O40 1.216 . S
O40 C39 1.216 . S
H41 C36 0.930 . S
H42 C37 0.930 . S
O43 Cu23 1.959 . S
O43 C30 1.251 . S
H44 C27 0.930 . S
H45 C38 0.929 . S
Cu46 N47 1.999 . S
Cu46 O52 1.974 . S
Cu46 N57 1.985 . S
Cu46 O66 1.959 . S
N47 Cu46 1.999 . S
N47 C49 1.263 . S
N47 C51 1.389 1_655 S
N48 C49 1.358 1_455 S
N48 C50 1.400 . S
C49 N47 1.263 . S
C49 N48 1.358 1_655 S
C49 H55 0.930 . S
C50 N48 1.400 . S
C50 C51 1.351 . S
C50 H67 0.930 . S
C51 N47 1.389 1_455 S
C51 C50 1.351 . S
C51 H56 0.930 . S
O52 Cu46 1.974 . S
O52 C62 1.282 . S
C53 O54 1.261 . S
C53 O66 1.251 . S
O54 C53 1.261 . S
H55 C49 0.930 . S
H56 C51 0.930 . S
N57 Cu46 1.985 . S
N57 C59 1.335 . S
N57 C60 1.390 . S
N58 C59 1.345 . S
N58 C61 1.336 . S
C59 N57 1.335 . S
C59 N58 1.345 . S
C59 H64 0.930 . S
C60 N57 1.390 . S
C60 C61 1.346 . S
C60 H65 0.930 . S
C61 N58 1.336 . S
C61 C60 1.346 . S
C61 H68 0.929 . S
C62 O52 1.282 . S
C62 O63 1.216 . S
O63 C62 1.216 . S
H64 C59 0.930 . S
H65 C60 0.930 . S
O66 Cu46 1.959 . S
O66 C53 1.251 . S
H67 C50 0.930 . S
H68 C61 0.929 . S
Cu69 N70 1.999 . S
Cu69 O75 1.974 . S
Cu69 N80 1.985 . S
Cu69 O89 1.959 . S
N70 Cu69 1.999 . S
N70 C72 1.263 . S
N70 C74 1.389 1_545 S
N71 C72 1.358 1_565 S
N71 C73 1.400 . S
C72 N70 1.263 . S
C72 N71 1.358 1_545 S
C72 H78 0.930 . S
C73 N71 1.400 . S
C73 C74 1.351 . S
C73 H90 0.930 . S
C74 N70 1.389 1_565 S
C74 C73 1.351 . S
C74 H79 0.930 . S
O75 Cu69 1.974 . S
O75 C85 1.282 . S
C76 O77 1.261 . S
C76 O89 1.251 . S
O77 C76 1.261 . S
H78 C72 0.930 . S
H79 C74 0.930 . S
N80 Cu69 1.985 . S
N80 C82 1.335 . S
N80 C83 1.390 . S
N81 C82 1.345 . S
N81 C84 1.336 . S
C82 N80 1.335 . S
C82 N81 1.345 . S
C82 H87 0.930 . S
C83 N80 1.390 . S
C83 C84 1.346 . S
C83 H88 0.930 . S
C84 N81 1.336 . S
C84 C83 1.346 . S
C84 H91 0.929 . S
C85 O75 1.282 . S
C85 O86 1.216 . S
O86 C85 1.216 . S
H87 C82 0.930 . S
H88 C83 0.930 . S
O89 Cu69 1.959 . S
O89 C76 1.251 . S
H90 C73 0.930 . S
H91 C84 0.929 . S
Cu92 N93 1.999 . S
Cu92 O98 1.974 . S
Cu92 N103 1.985 . S
Cu92 O112 1.959 . S
N93 Cu92 1.999 . S
N93 C95 1.263 . S
N93 C97 1.389 . S
N94 C95 1.358 . S
N94 C96 1.400 . S
C95 N93 1.263 . S
C95 N94 1.358 . S
C95 H101 0.930 . S
C96 N94 1.400 . S
C96 C97 1.351 . S
C96 H113 0.930 . S
C97 N93 1.389 . S
C97 C96 1.351 . S
C97 H102 0.930 . S
O98 Cu92 1.974 . S
O98 C108 1.282 . S
C99 O100 1.261 . S
C99 O112 1.251 . S
O100 C99 1.261 . S
H101 C95 0.930 . S
H102 C97 0.930 . S
N103 Cu92 1.985 . S
N103 C105 1.335 . S
N103 C106 1.390 . S
N104 C105 1.345 . S
N104 C107 1.336 . S
C105 N103 1.335 . S
C105 N104 1.345 . S
C105 H110 0.930 . S
C106 N103 1.390 . S
C106 C107 1.346 . S
C106 H111 0.930 . S
C107 N104 1.336 . S
C107 C106 1.346 . S
C107 H114 0.929 . S
C108 O98 1.282 . S
C108 O109 1.216 . S
O109 C108 1.216 . S
H110 C105 0.930 . S
H111 C106 0.930 . S
O112 Cu92 1.959 . S
O112 C99 1.251 . S
H113 C96 0.930 . S
H114 C107 0.929 . S
Cu115 N116 1.999 . S
Cu115 O121 1.974 . S
Cu115 N126 1.985 . S
Cu115 O135 1.959 . S
N116 Cu115 1.999 . S
N116 C118 1.263 . S
N116 C120 1.389 . S
N117 C118 1.358 . S
N117 C119 1.400 . S
C118 N116 1.263 . S
C118 N117 1.358 . S
C118 H124 0.930 . S
C119 N117 1.400 . S
C119 C120 1.351 . S
C119 H136 0.930 . S
C120 N116 1.389 . S
C120 C119 1.351 . S
C120 H125 0.930 . S
O121 Cu115 1.974 . S
O121 C131 1.282 . S
C122 O123 1.261 . S
C122 O135 1.251 . S
O123 C122 1.261 . S
H124 C118 0.930 . S
H125 C120 0.930 . S
N126 Cu115 1.985 . S
N126 C128 1.335 . S
N126 C129 1.390 . S
N127 C128 1.345 . S
N127 C130 1.336 . S
C128 N126 1.335 . S
C128 N127 1.345 . S
C128 H133 0.930 . S
C129 N126 1.390 . S
C129 C130 1.346 . S
C129 H134 0.930 . S
C130 N127 1.336 . S
C130 C129 1.346 . S
C130 H137 0.929 . S
C131 O121 1.282 . S
C131 O132 1.216 . S
O132 C131 1.216 . S
H133 C128 0.930 . S
H134 C129 0.930 . S
O135 Cu115 1.959 . S
O135 C122 1.251 . S
H136 C119 0.930 . S
H137 C130 0.929 . S
Cu138 N139 1.999 . S
Cu138 O144 1.974 . S
Cu138 N149 1.985 . S
Cu138 O158 1.959 . S
N139 Cu138 1.999 . S
N139 C141 1.263 . S
N139 C143 1.389 . S
N140 C141 1.358 . S
N140 C142 1.400 . S
C141 N139 1.263 . S
C141 N140 1.358 . S
C141 H147 0.930 . S
C142 N140 1.400 . S
C142 C143 1.351 . S
C142 H159 0.930 . S
C143 N139 1.389 . S
C143 C142 1.351 . S
C143 H148 0.930 . S
O144 Cu138 1.974 . S
O144 C154 1.282 . S
C145 O146 1.261 . S
C145 O158 1.251 . S
O146 C145 1.261 . S
H147 C141 0.930 . S
H148 C143 0.930 . S
N149 Cu138 1.985 . S
N149 C151 1.335 . S
N149 C152 1.390 . S
N150 C151 1.345 . S
N150 C153 1.336 . S
C151 N149 1.335 . S
C151 N150 1.345 . S
C151 H156 0.930 . S
C152 N149 1.390 . S
C152 C153 1.346 . S
C152 H157 0.930 . S
C153 N150 1.336 . S
C153 C152 1.346 . S
C153 H160 0.929 . S
C154 O144 1.282 . S
C154 O155 1.216 . S
O155 C154 1.216 . S
H156 C151 0.930 . S
H157 C152 0.930 . S
O158 Cu138 1.959 . S
O158 C145 1.251 . S
H159 C142 0.930 . S
H160 C153 0.929 . S
Cu161 N162 1.999 . S
Cu161 O167 1.974 . S
Cu161 N172 1.985 . S
Cu161 O181 1.959 . S
N162 Cu161 1.999 . S
N162 C164 1.263 . S
N162 C166 1.389 . S
N163 C164 1.358 . S
N163 C165 1.400 . S
C164 N162 1.263 . S
C164 N163 1.358 . S
C164 H170 0.930 . S
C165 N163 1.400 . S
C165 C166 1.351 . S
C165 H182 0.930 . S
C166 N162 1.389 . S
C166 C165 1.351 . S
C166 H171 0.930 . S
O167 Cu161 1.974 . S
O167 C177 1.282 . S
C168 O169 1.261 . S
C168 O181 1.251 . S
O169 C168 1.261 . S
H170 C164 0.930 . S
H171 C166 0.930 . S
N172 Cu161 1.985 . S
N172 C174 1.335 . S
N172 C175 1.390 . S
N173 C174 1.345 . S
N173 C176 1.336 . S
C174 N172 1.335 . S
C174 N173 1.345 . S
C174 H179 0.930 . S
C175 N172 1.390 . S
C175 C176 1.346 . S
C175 H180 0.930 . S
C176 N173 1.336 . S
C176 C175 1.346 . S
C176 H183 0.929 . S
C177 O167 1.282 . S
C177 O178 1.216 . S
O178 C177 1.216 . S
H179 C174 0.930 . S
H180 C175 0.930 . S
O181 Cu161 1.959 . S
O181 C168 1.251 . S
H182 C165 0.930 . S
H183 C176 0.929 . S
C184 C185 1.386 . S
C184 C186 1.383 . S
C184 H200 0.951 . S
C185 C184 1.386 . S
C185 C189 1.383 . S
C186 C184 1.383 . S
C186 C187 1.402 . S
C186 H201 0.951 . S
C187 C186 1.402 . S
C187 C188 1.375 . S
C187 C190 1.481 . S
C188 C187 1.375 . S
C188 C189 1.367 . S
C188 H202 0.951 . S
C189 C185 1.383 . S
C189 C188 1.367 . S
C189 H203 0.950 . S
C190 C187 1.481 . S
C190 C191 1.297 . S
C190 H204 0.950 . S
C191 C190 1.297 . S
C191 C192 1.479 . S
C191 H205 0.950 . S
C192 C191 1.479 . S
C192 C193 1.375 . S
C192 C198 1.404 . S
C193 C192 1.375 . S
C193 C194 1.369 . S
C193 H206 0.950 . S
C194 C193 1.369 . S
C194 C195 1.392 . S
C194 H207 0.951 . S
C195 C194 1.392 . S
C195 C197 1.384 . S
H196 C198 0.949 . S
C197 C195 1.384 . S
C197 C198 1.385 . S
C197 H199 0.950 . S
C198 C192 1.404 . S
C198 H196 0.949 . S
C198 C197 1.385 . S
H199 C197 0.950 . S
H200 C184 0.951 . S
H201 C186 0.951 . S
H202 C188 0.951 . S
H203 C189 0.950 . S
H204 C190 0.950 . S
H205 C191 0.950 . S
H206 C193 0.950 . S
H207 C194 0.951 . S
C208 C209 1.386 . S
C208 C210 1.383 . S
C208 H224 0.951 . S
C209 C208 1.386 . S
C209 C213 1.383 . S
C210 C208 1.383 . S
C210 C211 1.402 . S
C210 H225 0.951 . S
C211 C210 1.402 . S
C211 C212 1.375 . S
C211 C214 1.481 . S
C212 C211 1.375 . S
C212 C213 1.367 . S
C212 H226 0.951 . S
C213 C209 1.383 . S
C213 C212 1.367 . S
C213 H227 0.950 . S
C214 C211 1.481 . S
C214 C215 1.297 . S
C214 H228 0.950 . S
C215 C214 1.297 . S
C215 C216 1.479 . S
C215 H229 0.950 . S
C216 C215 1.479 . S
C216 C217 1.375 . S
C216 C222 1.404 . S
C217 C216 1.375 . S
C217 C218 1.369 . S
C217 H230 0.950 . S
C218 C217 1.369 . S
C218 C219 1.392 . S
C218 H231 0.951 . S
C219 C218 1.392 . S
C219 C221 1.384 . S
H220 C222 0.949 . S
C221 C219 1.384 . S
C221 C222 1.385 . S
C221 H223 0.950 . S
C222 C216 1.404 . S
C222 H220 0.949 . S
C222 C221 1.385 . S
H223 C221 0.950 . S
H224 C208 0.951 . S
H225 C210 0.951 . S
H226 C212 0.951 . S
H227 C213 0.950 . S
H228 C214 0.950 . S
H229 C215 0.950 . S
H230 C217 0.950 . S
H231 C218 0.951 . S
C232 C233 1.386 . S
C232 C234 1.383 . S
C232 H248 0.951 . S
C233 C232 1.386 . S
C233 C237 1.383 . S
C234 C232 1.383 . S
C234 C235 1.402 . S
C234 H249 0.951 . S
C235 C234 1.402 . S
C235 C236 1.375 . S
C235 C238 1.481 . S
C236 C235 1.375 . S
C236 C237 1.367 . S
C236 H250 0.951 . S
C237 C233 1.383 . S
C237 C236 1.367 . S
C237 H251 0.950 . S
C238 C235 1.481 . S
C238 C239 1.297 . S
C238 H252 0.950 . S
C239 C238 1.297 . S
C239 C240 1.479 . S
C239 H253 0.950 . S
C240 C239 1.479 . S
C240 C241 1.375 . S
C240 C246 1.404 . S
C241 C240 1.375 . S
C241 C242 1.369 . S
C241 H254 0.950 . S
C242 C241 1.369 . S
C242 C243 1.392 . S
C242 H255 0.951 . S
C243 C242 1.392 . S
C243 C245 1.384 . S
H244 C246 0.949 . S
C245 C243 1.384 . S
C245 C246 1.385 . S
C245 H247 0.950 . S
C246 C240 1.404 . S
C246 H244 0.949 . S
C246 C245 1.385 . S
H247 C245 0.950 . S
H248 C232 0.951 . S
H249 C234 0.951 . S
H250 C236 0.951 . S
H251 C237 0.950 . S
H252 C238 0.950 . S
H253 C239 0.950 . S
H254 C241 0.950 . S
H255 C242 0.951 . S
C256 C257 1.386 . S
C256 C258 1.383 . S
C256 H272 0.951 . S
C257 C256 1.386 . S
C257 C261 1.383 . S
C258 C256 1.383 . S
C258 C259 1.402 . S
C258 H273 0.951 . S
C259 C258 1.402 . S
C259 C260 1.375 . S
C259 C262 1.481 . S
C260 C259 1.375 . S
C260 C261 1.367 . S
C260 H274 0.951 . S
C261 C257 1.383 . S
C261 C260 1.367 . S
C261 H275 0.950 . S
C262 C259 1.481 . S
C262 C263 1.297 . S
C262 H276 0.950 . S
C263 C262 1.297 . S
C263 C264 1.479 . S
C263 H277 0.950 . S
C264 C263 1.479 . S
C264 C265 1.375 . S
C264 C270 1.404 . S
C265 C264 1.375 . S
C265 C266 1.369 . S
C265 H278 0.950 . S
C266 C265 1.369 . S
C266 C267 1.392 . S
C266 H279 0.951 . S
C267 C266 1.392 . S
C267 C269 1.384 . S
H268 C270 0.949 . S
C269 C267 1.384 . S
C269 C270 1.385 . S
C269 H271 0.950 . S
C270 C264 1.404 . S
C270 H268 0.949 . S
C270 C269 1.385 . S
H271 C269 0.950 . S
H272 C256 0.951 . S
H273 C258 0.951 . S
H274 C260 0.951 . S
H275 C261 0.950 . S
H276 C262 0.950 . S
H277 C263 0.950 . S
H278 C265 0.950 . S
H279 C266 0.951 . S
C280 C281 1.386 . S
C280 C282 1.383 . S
C280 H296 0.951 . S
C281 C280 1.386 . S
C281 C285 1.383 . S
C282 C280 1.383 . S
C282 C283 1.402 . S
C282 H297 0.951 . S
C283 C282 1.402 . S
C283 C284 1.375 . S
C283 C286 1.481 . S
C284 C283 1.375 . S
C284 C285 1.367 . S
C284 H298 0.951 . S
C285 C281 1.383 . S
C285 C284 1.367 . S
C285 H299 0.950 . S
C286 C283 1.481 . S
C286 C287 1.297 . S
C286 H300 0.950 . S
C287 C286 1.297 . S
C287 C288 1.479 . S
C287 H301 0.950 . S
C288 C287 1.479 . S
C288 C289 1.375 . S
C288 C294 1.404 . S
C289 C288 1.375 . S
C289 C290 1.369 . S
C289 H302 0.950 . S
C290 C289 1.369 . S
C290 C291 1.392 . S
C290 H303 0.951 . S
C291 C290 1.392 . S
C291 C293 1.384 . S
H292 C294 0.949 . S
C293 C291 1.384 . S
C293 C294 1.385 . S
C293 H295 0.950 . S
C294 C288 1.404 . S
C294 H292 0.949 . S
C294 C293 1.385 . S
H295 C293 0.950 . S
H296 C280 0.951 . S
H297 C282 0.951 . S
H298 C284 0.951 . S
H299 C285 0.950 . S
H300 C286 0.950 . S
H301 C287 0.950 . S
H302 C289 0.950 . S
H303 C290 0.951 . S
C304 C305 1.386 . S
C304 C306 1.383 . S
C304 H320 0.951 . S
C305 C304 1.386 . S
C305 C309 1.383 . S
C306 C304 1.383 . S
C306 C307 1.402 . S
C306 H321 0.951 . S
C307 C306 1.402 . S
C307 C308 1.375 . S
C307 C310 1.481 . S
C308 C307 1.375 . S
C308 C309 1.367 . S
C308 H322 0.951 . S
C309 C305 1.383 . S
C309 C308 1.367 . S
C309 H323 0.950 . S
C310 C307 1.481 . S
C310 C311 1.297 . S
C310 H324 0.950 . S
C311 C310 1.297 . S
C311 C312 1.479 . S
C311 H325 0.950 . S
C312 C311 1.479 . S
C312 C313 1.375 . S
C312 C318 1.404 . S
C313 C312 1.375 . S
C313 C314 1.369 . S
C313 H326 0.950 . S
C314 C313 1.369 . S
C314 C315 1.392 . S
C314 H327 0.951 . S
C315 C314 1.392 . S
C315 C317 1.384 . S
H316 C318 0.949 . S
C317 C315 1.384 . S
C317 C318 1.385 . S
C317 H319 0.950 . S
C318 C312 1.404 . S
C318 H316 0.949 . S
C318 C317 1.385 . S
H319 C317 0.950 . S
H320 C304 0.951 . S
H321 C306 0.951 . S
H322 C308 0.951 . S
H323 C309 0.950 . S
H324 C310 0.950 . S
H325 C311 0.950 . S
H326 C313 0.950 . S
H327 C314 0.951 . S
C328 C329 1.386 . S
C328 C330 1.383 . S
C328 H344 0.951 . S
C329 C328 1.386 . S
C329 C333 1.383 . S
C330 C328 1.383 . S
C330 C331 1.402 . S
C330 H345 0.951 . S
C331 C330 1.402 . S
C331 C332 1.375 . S
C331 C334 1.481 . S
C332 C331 1.375 . S
C332 C333 1.367 . S
C332 H346 0.951 . S
C333 C329 1.383 . S
C333 C332 1.367 . S
C333 H347 0.950 . S
C334 C331 1.481 . S
C334 C335 1.297 . S
C334 H348 0.950 . S
C335 C334 1.297 . S
C335 C336 1.479 . S
C335 H349 0.950 . S
C336 C335 1.479 . S
C336 C337 1.375 . S
C336 C342 1.404 . S
C337 C336 1.375 . S
C337 C338 1.369 . S
C337 H350 0.950 . S
C338 C337 1.369 . S
C338 C339 1.392 . S
C338 H351 0.951 . S
C339 C338 1.392 . S
C339 C341 1.384 . S
H340 C342 0.949 . S
C341 C339 1.384 . S
C341 C342 1.385 . S
C341 H343 0.950 . S
C342 C336 1.404 . S
C342 H340 0.949 . S
C342 C341 1.385 . S
H343 C341 0.950 . S
H344 C328 0.951 . S
H345 C330 0.951 . S
H346 C332 0.951 . S
H347 C333 0.950 . S
H348 C334 0.950 . S
H349 C335 0.950 . S
H350 C337 0.950 . S
H351 C338 0.951 . S
C352 C353 1.386 . S
C352 C354 1.383 . S
C352 H368 0.951 . S
C353 C352 1.386 . S
C353 C357 1.383 . S
C354 C352 1.383 . S
C354 C355 1.402 . S
C354 H369 0.951 . S
C355 C354 1.402 . S
C355 C356 1.375 . S
C355 C358 1.481 . S
C356 C355 1.375 . S
C356 C357 1.367 . S
C356 H370 0.951 . S
C357 C353 1.383 . S
C357 C356 1.367 . S
C357 H371 0.950 . S
C358 C355 1.481 . S
C358 C359 1.297 . S
C358 H372 0.950 . S
C359 C358 1.297 . S
C359 C360 1.479 . S
C359 H373 0.950 . S
C360 C359 1.479 . S
C360 C361 1.375 . S
C360 C366 1.404 . S
C361 C360 1.375 . S
C361 C362 1.369 . S
C361 H374 0.950 . S
C362 C361 1.369 . S
C362 C363 1.392 . S
C362 H375 0.951 . S
C363 C362 1.392 . S
C363 C365 1.384 . S
H364 C366 0.949 . S
C365 C363 1.384 . S
C365 C366 1.385 . S
C365 H367 0.950 . S
C366 C360 1.404 . S
C366 H364 0.949 . S
C366 C365 1.385 . S
H367 C365 0.950 . S
H368 C352 0.951 . S
H369 C354 0.951 . S
H370 C356 0.951 . S
H371 C357 0.950 . S
H372 C358 0.950 . S
H373 C359 0.950 . S
H374 C361 0.950 . S
H375 C362 0.951 . S
C376 C377 1.386 . S
C376 C378 1.383 . S
C376 H392 0.951 . S
C377 C376 1.386 . S
C377 C381 1.383 1_554 S
C378 C376 1.383 . S
C378 C379 1.402 1_554 S
C378 H393 0.951 . S
C379 C378 1.402 1_556 S
C379 C380 1.375 . S
C379 C382 1.481 . S
C380 C379 1.375 . S
C380 C381 1.367 . S
C380 H394 0.951 . S
C381 C377 1.383 1_556 S
C381 C380 1.367 . S
C381 H395 0.950 . S
C382 C379 1.481 . S
C382 C383 1.297 . S
C382 H396 0.950 . S
C383 C382 1.297 . S
C383 C384 1.479 . S
C383 H397 0.950 . S
C384 C383 1.479 . S
C384 C385 1.375 . S
C384 C390 1.404 . S
C385 C384 1.375 . S
C385 C386 1.369 . S
C385 H398 0.950 . S
C386 C385 1.369 . S
C386 C387 1.392 . S
C386 H399 0.951 . S
C387 C386 1.392 . S
C387 C389 1.384 . S
H388 C390 0.949 . S
C389 C387 1.384 . S
C389 C390 1.385 . S
C389 H391 0.950 . S
C390 C384 1.404 . S
C390 H388 0.949 . S
C390 C389 1.385 . S
H391 C389 0.950 . S
H392 C376 0.951 . S
H393 C378 0.951 . S
H394 C380 0.951 . S
H395 C381 0.950 . S
H396 C382 0.950 . S
H397 C383 0.950 . S
H398 C385 0.950 . S
H399 C386 0.951 . S
C400 C401 1.386 . S
C400 C402 1.383 . S
C400 H416 0.951 . S
C401 C400 1.386 . S
C401 C405 1.383 . S
C402 C400 1.383 . S
C402 C403 1.402 . S
C402 H417 0.951 . S
C403 C402 1.402 . S
C403 C404 1.375 . S
C403 C406 1.481 . S
C404 C403 1.375 . S
C404 C405 1.367 . S
C404 H418 0.951 . S
C405 C401 1.383 . S
C405 C404 1.367 . S
C405 H419 0.950 . S
C406 C403 1.481 . S
C406 C407 1.297 . S
C406 H420 0.950 . S
C407 C406 1.297 . S
C407 C408 1.479 . S
C407 H421 0.950 1_554 S
C408 C407 1.479 . S
C408 C409 1.375 1_554 S
C408 C414 1.404 . S
C409 C408 1.375 1_556 S
C409 C410 1.369 . S
C409 H422 0.950 . S
C410 C409 1.369 . S
C410 C411 1.392 . S
C410 H423 0.951 . S
C411 C410 1.392 . S
C411 C413 1.384 1_556 S
H412 C414 0.949 . S
C413 C411 1.384 1_554 S
C413 C414 1.385 . S
C413 H415 0.950 . S
C414 C408 1.404 . S
C414 H412 0.949 . S
C414 C413 1.385 . S
H415 C413 0.950 . S
H416 C400 0.951 . S
H417 C402 0.951 . S
H418 C404 0.951 . S
H419 C405 0.950 . S
H420 C406 0.950 . S
H421 C407 0.950 1_556 S
H422 C409 0.950 . S
H423 C410 0.951 . S
C424 C425 1.386 . S
C424 C426 1.383 . S
C424 H440 0.951 . S
C425 C424 1.386 . S
C425 C429 1.383 1_554 S
C426 C424 1.383 . S
C426 C427 1.402 1_554 S
C426 H441 0.951 . S
C427 C426 1.402 1_556 S
C427 C428 1.375 . S
C427 C430 1.481 . S
C428 C427 1.375 . S
C428 C429 1.367 . S
C428 H442 0.951 . S
C429 C425 1.383 1_556 S
C429 C428 1.367 . S
C429 H443 0.950 . S
C430 C427 1.481 . S
C430 C431 1.297 . S
C430 H444 0.950 . S
C431 C430 1.297 . S
C431 C432 1.479 . S
C431 H445 0.950 . S
C432 C431 1.479 . S
C432 C433 1.375 . S
C432 C438 1.404 . S
C433 C432 1.375 . S
C433 C434 1.369 . S
C433 H446 0.950 . S
C434 C433 1.369 . S
C434 C435 1.392 . S
C434 H447 0.951 . S
C435 C434 1.392 . S
C435 C437 1.384 . S
H436 C438 0.949 . S
C437 C435 1.384 . S
C437 C438 1.385 . S
C437 H439 0.950 . S
C438 C432 1.404 . S
C438 H436 0.949 . S
C438 C437 1.385 . S
H439 C437 0.950 . S
H440 C424 0.951 . S
H441 C426 0.951 . S
H442 C428 0.951 . S
H443 C429 0.950 . S
H444 C430 0.950 . S
H445 C431 0.950 . S
H446 C433 0.950 . S
H447 C434 0.951 . S
C448 C449 1.386 . S
C448 C450 1.383 1_556 S
C448 H464 0.951 . S
C449 C448 1.386 . S
C449 C453 1.383 . S
C450 C448 1.383 1_554 S
C450 C451 1.402 . S
C450 H465 0.951 . S
C451 C450 1.402 . S
C451 C452 1.375 . S
C451 C454 1.481 . S
C452 C451 1.375 . S
C452 C453 1.367 1_554 S
C452 H466 0.951 . S
C453 C449 1.383 . S
C453 C452 1.367 1_556 S
C453 H467 0.950 . S
C454 C451 1.481 . S
C454 C455 1.297 . S
C454 H468 0.950 . S
C455 C454 1.297 . S
C455 C456 1.479 . S
C455 H469 0.950 . S
C456 C455 1.479 . S
C456 C457 1.375 . S
C456 C462 1.404 . S
C457 C456 1.375 . S
C457 C458 1.369 . S
C457 H470 0.950 . S
C458 C457 1.369 . S
C458 C459 1.392 . S
C458 H471 0.951 . S
C459 C458 1.392 . S
C459 C461 1.384 . S
H460 C462 0.949 . S
C461 C459 1.384 . S
C461 C462 1.385 . S
C461 H463 0.950 . S
C462 C456 1.404 . S
C462 H460 0.949 . S
C462 C461 1.385 . S
H463 C461 0.950 . S
H464 C448 0.951 . S
H465 C450 0.951 . S
H466 C452 0.951 . S
H467 C453 0.950 . S
H468 C454 0.950 . S
H469 C455 0.950 . S
H470 C457 0.950 . S
H471 C458 0.951 . S
C472 C473 1.386 . S
C472 C474 1.383 . S
C472 H488 0.951 . S
C473 C472 1.386 . S
C473 C477 1.383 . S
C474 C472 1.383 . S
C474 C475 1.402 . S
C474 H489 0.951 . S
C475 C474 1.402 . S
C475 C476 1.375 . S
C475 C478 1.481 . S
C476 C475 1.375 . S
C476 C477 1.367 . S
C476 H490 0.951 1_655 S
C477 C473 1.383 . S
C477 C476 1.367 . S
C477 H491 0.950 . S
C478 C475 1.481 . S
C478 C479 1.297 . S
C478 H492 0.950 1_655 S
C479 C478 1.297 . S
C479 C480 1.479 . S
C479 H493 0.950 . S
C480 C479 1.479 . S
C480 C481 1.375 . S
C480 C486 1.404 1_655 S
C481 C480 1.375 . S
C481 C482 1.369 1_655 S
C481 H494 0.950 . S
C482 C481 1.369 1_455 S
C482 C483 1.392 . S
C482 H495 0.951 . S
C483 C482 1.392 . S
C483 C485 1.384 . S
H484 C486 0.949 . S
C485 C483 1.384 . S
C485 C486 1.385 . S
C485 H487 0.950 . S
C486 C480 1.404 1_455 S
C486 H484 0.949 . S
C486 C485 1.385 . S
H487 C485 0.950 . S
H488 C472 0.951 . S
H489 C474 0.951 . S
H490 C476 0.951 1_455 S
H491 C477 0.950 . S
H492 C478 0.950 1_455 S
H493 C479 0.950 . S
H494 C481 0.950 . S
H495 C482 0.951 . S
C496 C497 1.386 1_565 S
C496 C498 1.383 . S
C496 H512 0.951 . S
C497 C496 1.386 1_545 S
C497 C501 1.383 . S
C498 C496 1.383 . S
C498 C499 1.402 1_565 S
C498 H513 0.951 . S
C499 C498 1.402 1_545 S
C499 C500 1.375 . S
C499 C502 1.481 . S
C500 C499 1.375 . S
C500 C501 1.367 . S
C500 H514 0.951 . S
C501 C497 1.383 . S
C501 C500 1.367 . S
C501 H515 0.950 . S
C502 C499 1.481 . S
C502 C503 1.297 1_545 S
C502 H516 0.950 . S
C503 C502 1.297 1_565 S
C503 C504 1.479 . S
C503 H517 0.950 . S
C504 C503 1.479 . S
C504 C505 1.375 . S
C504 C510 1.404 1_565 S
C505 C504 1.375 . S
C505 C506 1.369 . S
C505 H518 0.950 . S
C506 C505 1.369 . S
C506 C507 1.392 . S
C506 H519 0.951 . S
C507 C506 1.392 . S
C507 C509 1.384 1_565 S
H508 C510 0.949 . S
C509 C507 1.384 1_545 S
C509 C510 1.385 . S
C509 H511 0.950 . S
C510 C504 1.404 1_545 S
C510 H508 0.949 . S
C510 C509 1.385 . S
H511 C509 0.950 . S
H512 C496 0.951 . S
H513 C498 0.951 . S
H514 C500 0.951 . S
H515 C501 0.950 . S
H516 C502 0.950 . S
H517 C503 0.950 . S
H518 C505 0.950 . S
H519 C506 0.951 . S
C520 C521 1.386 . S
C520 C522 1.383 . S
C520 H536 0.951 . S
C521 C520 1.386 . S
C521 C525 1.383 . S
C522 C520 1.383 . S
C522 C523 1.402 . S
C522 H537 0.951 . S
C523 C522 1.402 . S
C523 C524 1.375 . S
C523 C526 1.481 . S
C524 C523 1.375 . S
C524 C525 1.367 . S
C524 H538 0.951 . S
C525 C521 1.383 . S
C525 C524 1.367 . S
C525 H539 0.950 . S
C526 C523 1.481 . S
C526 C527 1.297 1_545 S
C526 H540 0.950 1_545 S
C527 C526 1.297 1_565 S
C527 C528 1.479 . S
C527 H541 0.950 1_565 S
C528 C527 1.479 . S
C528 C529 1.375 . S
C528 C534 1.404 . S
C529 C528 1.375 . S
C529 C530 1.369 . S
C529 H542 0.950 . S
C530 C529 1.369 . S
C530 C531 1.392 . S
C530 H543 0.951 . S
C531 C530 1.392 . S
C531 C533 1.384 . S
H532 C534 0.949 . S
C533 C531 1.384 . S
C533 C534 1.385 . S
C533 H535 0.950 . S
C534 C528 1.404 . S
C534 H532 0.949 . S
C534 C533 1.385 . S
H535 C533 0.950 . S
H536 C520 0.951 . S
H537 C522 0.951 . S
H538 C524 0.951 . S
H539 C525 0.950 . S
H540 C526 0.950 1_565 S
H541 C527 0.950 1_545 S
H542 C529 0.950 . S
H543 C530 0.951 . S
C544 C545 1.386 . S
C544 C546 1.383 . S
C544 H560 0.951 . S
C545 C544 1.386 . S
C545 C549 1.383 . S
C546 C544 1.383 . S
C546 C547 1.402 . S
C546 H561 0.951 . S
C547 C546 1.402 . S
C547 C548 1.375 . S
C547 C550 1.481 . S
C548 C547 1.375 . S
C548 C549 1.367 . S
C548 H562 0.951 . S
C549 C545 1.383 . S
C549 C548 1.367 . S
C549 H563 0.950 . S
C550 C547 1.481 . S
C550 C551 1.297 1_455 S
C550 H564 0.950 1_455 S
C551 C550 1.297 1_655 S
C551 C552 1.479 . S
C551 H565 0.950 1_655 S
C552 C551 1.479 . S
C552 C553 1.375 . S
C552 C558 1.404 . S
C553 C552 1.375 . S
C553 C554 1.369 . S
C553 H566 0.950 . S
C554 C553 1.369 . S
C554 C555 1.392 . S
C554 H567 0.951 . S
C555 C554 1.392 . S
C555 C557 1.384 . S
H556 C558 0.949 . S
C557 C555 1.384 . S
C557 C558 1.385 . S
C557 H559 0.950 . S
C558 C552 1.404 . S
C558 H556 0.949 . S
C558 C557 1.385 . S
H559 C557 0.950 . S
H560 C544 0.951 . S
H561 C546 0.951 . S
H562 C548 0.951 . S
H563 C549 0.950 . S
H564 C550 0.950 1_655 S
H565 C551 0.950 1_455 S
H566 C553 0.950 . S
H567 C554 0.951 . S
C185 N173 1.723 . S
C195 N12 1.685 . S
C209 N35 1.717 . S
C219 N104 1.720 . S
C233 N58 1.702 . S
C243 N127 1.689 . S
C257 N150 1.705 . S
C267 N81 1.744 . S
C281 N25 1.669 . S
C291 C16 1.736 . S
C305 C39 1.734 . S
C315 N48 1.656 . S
C329 N71 1.640 . S
C339 C62 1.675 . S
C353 C85 1.741 . S
C363 N2 1.681 . S
C377 N163 1.678 . S
C387 C108 1.747 . S
C401 C131 1.742 . S
C411 N94 1.643 . S
C425 N117 1.678 . S
C435 C154 1.748 . S
C449 N140 1.674 . S
C459 C177 1.728 . S
C473 C53 1.852 . S
C483 C7 1.857 . S
C497 C76 1.854 . S
C507 C30 1.840 . S
C521 C145 1.848 . S
C531 C99 1.850 . S
C545 C168 1.832 . S
C555 C122 1.813 . S
