# Generated by pormake.
# Topology sml, (6)-cn, num edge types: 1
# Building blocks:
#     Node 0, Type 0, BuildingBlock: NUHQIS_clean_sbu_0, # of connection points: 6
#     Node 1, Type 0, BuildingBlock: NUHQIS_clean_sbu_0, # of connection points: 6
#     Node 2, Type 0, BuildingBlock: NUHQIS_clean_sbu_0, # of connection points: 6
#     Node 3, Type 0, BuildingBlock: NUHQIS_clean_sbu_0, # of connection points: 6
#     Node 4, Type 0, BuildingBlock: NUHQIS_clean_sbu_0, # of connection points: 6
#     Node 5, Type 0, BuildingBlock: NUHQIS_clean_sbu_0, # of connection points: 6
#     Edge 6, Type (0, 0), BuildingBlock: MIFKUJ_clean_linker_0, # of connection points: 2
#     Edge 7, Type (0, 0), BuildingBlock: MIFKUJ_clean_linker_0, # of connection points: 2
#     Edge 8, Type (0, 0), BuildingBlock: MIFKUJ_clean_linker_0, # of connection points: 2
#     Edge 9, Type (0, 0), BuildingBlock: MIFKUJ_clean_linker_0, # of connection points: 2
#     Edge 10, Type (0, 0), BuildingBlock: MIFKUJ_clean_linker_0, # of connection points: 2
#     Edge 11, Type (0, 0), BuildingBlock: MIFKUJ_clean_linker_0, # of connection points: 2
#     Edge 12, Type (0, 0), BuildingBlock: MIFKUJ_clean_linker_0, # of connection points: 2
#     Edge 13, Type (0, 0), BuildingBlock: MIFKUJ_clean_linker_0, # of connection points: 2
#     Edge 14, Type (0, 0), BuildingBlock: MIFKUJ_clean_linker_0, # of connection points: 2
#     Edge 15, Type (0, 0), BuildingBlock: MIFKUJ_clean_linker_0, # of connection points: 2
#     Edge 16, Type (0, 0), BuildingBlock: MIFKUJ_clean_linker_0, # of connection points: 2
#     Edge 17, Type (0, 0), BuildingBlock: MIFKUJ_clean_linker_0, # of connection points: 2
#     Edge 18, Type (0, 0), BuildingBlock: MIFKUJ_clean_linker_0, # of connection points: 2
#     Edge 19, Type (0, 0), BuildingBlock: MIFKUJ_clean_linker_0, # of connection points: 2
#     Edge 20, Type (0, 0), BuildingBlock: MIFKUJ_clean_linker_0, # of connection points: 2
#     Edge 21, Type (0, 0), BuildingBlock: MIFKUJ_clean_linker_0, # of connection points: 2
#     Edge 22, Type (0, 0), BuildingBlock: MIFKUJ_clean_linker_0, # of connection points: 2
#     Edge 23, Type (0, 0), BuildingBlock: MIFKUJ_clean_linker_0, # of connection points: 2
# Relax obj value: 0.142
# Max RMSD: 0.196
# Mean RMSD: 0.196
data_MOF--net-sml--node1-NUHQIS_clean_sbu_0--edge1-MIFKUJ_clean_linker_0
_symmetry_space_group_name_H-M    P1
_symmetry_Int_Tables_number       1
_symmetry_cell_setting            triclinic
loop_
_symmetry_equiv_pos_as_xyz
'x, y, z'
_cell_length_a     43.965868
_cell_length_b     43.951962
_cell_length_c     29.684466
_cell_angle_alpha  89.911917
_cell_angle_beta   90.040909
_cell_angle_gamma 120.12501
loop_
_atom_site_label
_atom_site_type_symbol
_atom_site_fract_x
_atom_site_fract_y
_atom_site_fract_z
_atom_type_partial_charge
Tb0 Tb 0.20092 0.41146 0.11819 0.0
Eu1 Eu 0.15669 0.41254 0.02674 0.0
C2 C 0.17793 0.35318 0.04523 0.0
C3 C 0.23945 0.44334 0.02541 0.0
C4 C 0.22448 0.41242 0.23987 0.0
C5 C 0.20704 0.38221 0.3123 0.0
C6 C 0.21344 0.38201 0.26615 0.0
C7 C 0.22973 0.44333 0.26112 0.0
C8 C 0.22367 0.44361 0.30741 0.0
C9 C 0.21192 0.41295 0.33337 0.0
C10 C 0.23112 0.41163 0.1909 0.0
O11 O 0.18089 0.44621 0.13278 0.0
O12 O 0.17929 0.46523 0.06143 0.0
O13 O 0.11882 0.39585 0.08449 0.0
O14 O 0.14565 0.37226 0.12721 0.0
C15 C 0.18236 0.47014 0.10519 0.0
O16 O 0.1515 0.44224 0.97144 0.0
O17 O 0.11453 0.38645 0.97698 0.0
O18 O 0.15371 0.35975 0.02987 0.0
O19 O 0.20335 0.37498 0.07198 0.0
O20 O 0.24051 0.44666 0.06961 0.0
O21 O 0.20984 0.42465 1.00365 0.0
C22 C 0.11807 0.37496 0.1166 0.0
O23 O 0.20933 0.38314 0.16914 0.0
O24 O 0.23916 0.43981 0.16745 0.0
C25 C 0.13129 0.41062 0.90369 0.0
C26 C 0.14322 0.40759 0.8106 0.0
C27 C 0.11265 0.40712 0.82579 0.0
C28 C 0.10683 0.40874 0.8719 0.0
C29 C 0.16144 0.4103 0.88884 0.0
C30 C 0.16743 0.40893 0.84276 0.0
C31 C 0.12608 0.41456 0.95195 0.0
H32 H 0.19833 0.3583 0.3316 0.0
H33 H 0.20958 0.35794 0.25092 0.0
H34 H 0.23843 0.46734 0.24206 0.0
H35 H 0.22747 0.46762 0.32276 0.0
H36 H 0.09365 0.40643 0.80196 0.0
H37 H 0.08347 0.40909 0.8827 0.0
H38 H 0.18056 0.41154 0.91291 0.0
H39 H 0.19099 0.40887 0.83229 0.0
Tb40 Tb 0.77493 0.19797 0.45547 0.0
Eu41 Eu 0.82206 0.23783 0.54762 0.0
C42 C 0.78813 0.15468 0.52842 0.0
C43 C 0.73924 0.19937 0.54704 0.0
C44 C 0.7478 0.1795 0.3346 0.0
C45 C 0.74251 0.15758 0.2581 0.0
C46 C 0.73597 0.15138 0.3043 0.0
C47 C 0.76598 0.21409 0.31785 0.0
C48 C 0.77233 0.22034 0.27156 0.0
C49 C 0.7611 0.19216 0.24103 0.0
C50 C 0.74097 0.17215 0.38333 0.0
O51 O 0.80704 0.25297 0.43935 0.0
O52 O 0.81022 0.27551 0.50958 0.0
O53 O 0.86054 0.25255 0.49071 0.0
O54 O 0.82701 0.2046 0.44542 0.0
C55 C 0.81142 0.27877 0.46549 0.0
O56 O 0.83149 0.27399 0.60312 0.0
O57 O 0.86318 0.24913 0.59731 0.0
O58 O 0.81463 0.18319 0.5459 0.0
O59 O 0.76534 0.15552 0.50053 0.0
O60 O 0.74038 0.20409 0.50313 0.0
O61 O 0.76656 0.20321 0.5694 0.0
C62 C 0.85738 0.23189 0.45689 0.0
O63 O 0.75907 0.16016 0.40381 0.0
O64 O 0.73885 0.1958 0.40742 0.0
C65 C 0.85113 0.2617 0.67091 0.0
C66 C 0.84066 0.25048 0.76493 0.0
C67 C 0.864 0.28414 0.74758 0.0
C68 C 0.86916 0.28964 0.70109 0.0
C69 C 0.82809 0.22794 0.68789 0.0
C70 C 0.82303 0.22234 0.7345 0.0
C71 C 0.85527 0.26876 0.62202 0.0
H72 H 0.73279 0.13517 0.23576 0.0
H73 H 0.72172 0.1245 0.31644 0.0
H74 H 0.77563 0.23632 0.34052 0.0
H75 H 0.78723 0.24732 0.26 0.0
H76 H 0.87832 0.30629 0.76998 0.0
H77 H 0.88696 0.31591 0.68864 0.0
H78 H 0.81363 0.20606 0.6651 0.0
H79 H 0.80459 0.19618 0.74665 0.0
Tb80 Tb 0.57067 0.7731 0.75965 0.0
Eu81 Eu 0.56938 0.72773 0.66858 0.0
C82 C 0.62529 0.81062 0.68256 0.0
C83 C 0.53363 0.77511 0.66945 0.0
C84 C 0.56904 0.7951 0.88096 0.0
C85 C 0.59404 0.81547 0.9556 0.0
C86 C 0.59378 0.82148 0.9093 0.0
C87 C 0.54448 0.76247 0.89988 0.0
C88 C 0.54454 0.75658 0.94625 0.0
C89 C 0.56939 0.78298 0.9746 0.0
C90 C 0.56896 0.80232 0.83217 0.0
O91 O 0.5444 0.71838 0.77853 0.0
O92 O 0.52084 0.69345 0.71047 0.0
O93 O 0.59362 0.71208 0.72369 0.0
O94 O 0.6139 0.76247 0.76616 0.0
C95 C 0.52105 0.69197 0.75468 0.0
O96 O 0.53855 0.69146 0.61509 0.0
O97 O 0.59489 0.71235 0.61724 0.0
O98 O 0.61956 0.78037 0.66617 0.0
O99 O 0.60464 0.81309 0.71248 0.0
O100 O 0.53112 0.7722 0.71365 0.0
O101 O 0.55298 0.76576 0.6466 0.0
C102 C 0.61398 0.73348 0.7553 0.0
O103 O 0.5978 0.81098 0.81004 0.0
O104 O 0.54109 0.78055 0.80927 0.0
C105 C 0.56836 0.70409 0.54532 0.0
C106 C 0.57104 0.71956 0.45236 0.0
C107 C 0.58421 0.6983 0.46859 0.0
C108 C 0.58277 0.69056 0.51462 0.0
C109 C 0.55583 0.72592 0.52937 0.0
C110 C 0.55699 0.73342 0.48336 0.0
C111 C 0.56609 0.69505 0.59365 0.0
H112 H 0.61335 0.83637 0.97666 0.0
H113 H 0.61292 0.84685 0.8956 0.0
H114 H 0.52519 0.74147 0.87893 0.0
H115 H 0.52546 0.73116 0.95988 0.0
H116 H 0.59496 0.68702 0.44555 0.0
H117 H 0.59263 0.67374 0.52621 0.0
H118 H 0.5449 0.73699 0.55244 0.0
H119 H 0.54709 0.75027 0.47207 0.0
Tb120 Tb 0.79078 0.57509 0.11037 0.0
Eu121 Eu 0.75281 0.58749 0.20051 0.0
C122 C 0.83597 0.63172 0.18113 0.0
C123 C 0.78585 0.53777 0.2033 0.0
C124 C 0.8092 0.56919 0.98919 0.0
C125 C 0.82978 0.59742 0.91596 0.0
C126 C 0.83575 0.5949 0.96184 0.0
C127 C 0.77651 0.54583 0.96949 0.0
C128 C 0.77067 0.54812 0.92353 0.0
C129 C 0.79714 0.57406 0.89611 0.0
C130 C 0.81609 0.56717 0.03784 0.0
O131 O 0.73585 0.55247 0.09419 0.0
O132 O 0.71244 0.53773 0.16503 0.0
O133 O 0.73825 0.61001 0.14225 0.0
O134 O 0.78596 0.62143 0.09858 0.0
C135 C 0.70947 0.53336 0.12109 0.0
O136 O 0.71538 0.56424 0.25589 0.0
O137 O 0.74703 0.62093 0.25028 0.0
O138 O 0.80827 0.63342 0.19421 0.0
O139 O 0.833 0.6053 0.15715 0.0
O140 O 0.78307 0.53426 0.15913 0.0
O141 O 0.78336 0.56266 0.22408 0.0
C142 C 0.75875 0.62527 0.10742 0.0
O143 O 0.8299 0.59664 0.06024 0.0
O144 O 0.79151 0.54121 0.06105 0.0
C145 C 0.73254 0.59592 0.32416 0.0
C146 C 0.74498 0.59484 0.41768 0.0
C147 C 0.71067 0.57593 0.40011 0.0
C148 C 0.70456 0.57655 0.35394 0.0
C149 C 0.7669 0.61505 0.34149 0.0
C150 C 0.77302 0.61468 0.38785 0.0
C151 C 0.72522 0.59437 0.27527 0.0
H152 H 0.85101 0.61736 0.89589 0.0
H153 H 0.86125 0.61313 0.976 0.0
H154 H 0.75535 0.52573 0.9895 0.0
H155 H 0.7452 0.52974 0.90959 0.0
H156 H 0.68844 0.56074 0.42213 0.0
H157 H 0.67787 0.56154 0.34137 0.0
H158 H 0.78905 0.62992 0.3192 0.0
H159 H 0.79979 0.62927 0.4002 0.0
Tb160 Tb 0.22375 0.81649 0.4205 0.0
Eu161 Eu 0.2653 0.86041 0.32848 0.0
C162 C 0.18143 0.82334 0.34136 0.0
C163 C 0.22925 0.77784 0.33451 0.0
C164 C 0.20162 0.79528 0.54144 0.0
C165 C 0.1839 0.78113 0.61961 0.0
C166 C 0.17767 0.77293 0.57381 0.0
C167 C 0.23196 0.8261 0.55528 0.0
C168 C 0.23828 0.83432 0.60114 0.0
C169 C 0.21427 0.81195 0.63394 0.0
C170 C 0.19493 0.78591 0.49349 0.0
O171 O 0.27849 0.84751 0.43849 0.0
O172 O 0.30227 0.84921 0.36948 0.0
O173 O 0.28082 0.89981 0.38414 0.0
O174 O 0.22925 0.86857 0.42288 0.0
C175 C 0.30439 0.85033 0.41375 0.0
O176 O 0.30185 0.86888 0.27401 0.0
O177 O 0.27715 0.90088 0.27755 0.0
O178 O 0.2099 0.8515 0.32658 0.0
O179 O 0.18309 0.80184 0.37065 0.0
O180 O 0.2325 0.7807 0.37859 0.0
O181 O 0.23313 0.80389 0.30911 0.0
C182 C 0.25853 0.89806 0.41471 0.0
O183 O 0.18464 0.80394 0.46947 0.0
O184 O 0.21889 0.78209 0.4727 0.0
C185 C 0.28808 0.88581 0.20533 0.0
C186 C 0.27453 0.87311 0.11222 0.0
C187 C 0.30298 0.90502 0.1277 0.0
C188 C 0.30968 0.91127 0.17382 0.0
C189 C 0.25937 0.8541 0.19026 0.0
C190 C 0.25263 0.84779 0.14409 0.0
C191 C 0.29645 0.89207 0.25361 0.0
H192 H 0.16517 0.76291 0.6438 0.0
H193 H 0.15422 0.74894 0.5637 0.0
H194 H 0.25068 0.84381 0.53065 0.0
H195 H 0.26171 0.85846 0.61078 0.0
H196 H 0.32002 0.9253 0.10415 0.0
H197 H 0.33192 0.9359 0.18488 0.0
H198 H 0.24246 0.83406 0.21418 0.0
H199 H 0.23073 0.82281 0.13337 0.0
Tb200 Tb 0.39986 0.20364 0.79296 0.0
Eu201 Eu 0.39855 0.15929 0.88499 0.0
C202 C 0.34468 0.18792 0.86771 0.0
C203 C 0.43813 0.24272 0.88273 0.0
C204 C 0.39852 0.22382 0.67168 0.0
C205 C 0.4107 0.24125 0.59303 0.0
C206 C 0.41267 0.25013 0.63862 0.0
C207 C 0.38221 0.18837 0.65853 0.0
C208 C 0.38001 0.17948 0.61287 0.0
C209 C 0.39446 0.20578 0.57952 0.0
C210 C 0.40146 0.23373 0.71961 0.0
O211 O 0.42727 0.17606 0.77679 0.0
O212 O 0.44895 0.17514 0.84634 0.0
O213 O 0.37727 0.12017 0.82874 0.0
O214 O 0.35672 0.1497 0.78617 0.0
C215 C 0.4513 0.17555 0.80214 0.0
O216 O 0.42698 0.15238 0.94043 0.0
O217 O 0.37071 0.11736 0.93469 0.0
O218 O 0.34859 0.16225 0.88413 0.0
O219 O 0.36763 0.2118 0.84025 0.0
O220 O 0.4402 0.24188 0.83848 0.0
O221 O 0.41717 0.21457 0.90607 0.0
C222 C 0.35739 0.1209 0.79629 0.0
O223 O 0.37324 0.21601 0.74403 0.0
O224 O 0.42945 0.23803 0.74047 0.0
C225 C 0.3948 0.13204 1.00825 0.0
C226 C 0.39017 0.14042 0.10198 0.0
C227 C 0.37948 0.10703 0.08363 0.0
C228 C 0.38189 0.10293 0.03721 0.0
C229 C 0.40474 0.16528 0.02625 0.0
C230 C 0.40258 0.16945 0.07266 0.0
C231 C 0.39862 0.12758 0.95968 0.0
H232 H 0.42161 0.26222 0.56832 0.0
H233 H 0.42534 0.27761 0.64809 0.0
H234 H 0.37133 0.16759 0.68356 0.0
H235 H 0.36753 0.15201 0.60369 0.0
H236 H 0.37005 0.0842 0.10529 0.0
H237 H 0.37407 0.07706 0.02398 0.0
H238 H 0.41452 0.1881 1.00447 0.0
H239 H 0.41053 0.19542 0.08559 0.0
H240 H 0.30605 0.16592 0.94569 0.0
H241 H 0.26116 0.18006 0.9699 0.0
H242 H 0.26934 0.23031 0.84187 0.0
H243 H 0.31439 0.21704 0.81808 0.0
H244 H 0.28213 0.27399 0.90942 0.0
H245 H 0.19356 0.15664 0.87224 0.0
H246 H 0.1643 0.0919 0.87313 0.0
H247 H 0.15007 0.0914 0.01627 0.0
H248 H 0.17972 0.15619 0.01636 0.0
H249 H 0.14277 0.31071 0.97336 0.0
H250 H 0.15414 0.26656 0.93928 0.0
H251 H 0.2263 0.28137 0.04671 0.0
H252 H 0.21512 0.32503 0.0811 0.0
H253 H 0.16483 0.20145 0.98008 0.0
H254 H 0.3016 0.31961 0.98357 0.0
H255 H 0.33106 0.38443 0.98603 0.0
H256 H 0.24789 0.38176 0.90706 0.0
H257 H 0.21836 0.31697 0.90336 0.0
C258 C 0.29765 0.17932 0.92251 0.0
C259 C 0.31409 0.19107 0.88048 0.0
C260 C 0.27191 0.18718 0.9362 0.0
C261 C 0.26205 0.20631 0.90763 0.0
C262 C 0.27673 0.21571 0.86445 0.0
C263 C 0.3026 0.20829 0.85106 0.0
C264 C 0.24074 0.22119 0.92476 0.0
C265 C 0.25619 0.25793 0.92402 0.0
C266 C 0.20707 0.20031 0.94424 0.0
C267 C 0.18911 0.16133 0.94433 0.0
C268 C 0.18445 0.14276 0.90397 0.0
C269 C 0.16774 0.10604 0.90428 0.0
C270 C 0.15539 0.08755 0.94474 0.0
C271 C 0.15966 0.10575 0.98495 0.0
C272 C 0.17637 0.14248 0.98483 0.0
C273 C 0.16019 0.30373 0.99044 0.0
C274 C 0.17876 0.32192 0.02923 0.0
C275 C 0.16637 0.27832 0.97116 0.0
C276 C 0.19109 0.27103 0.99058 0.0
C277 C 0.20704 0.28671 0.03149 0.0
C278 C 0.20094 0.31197 0.05071 0.0
C279 C 0.20637 0.25377 0.96418 0.0
C280 C 0.19024 0.21702 0.96402 0.0
C281 C 0.23937 0.27445 0.9433 0.0
C282 C 0.25765 0.31347 0.94357 0.0
C283 C 0.28975 0.3329 0.96647 0.0
C284 C 0.30645 0.36961 0.9681 0.0
C285 C 0.29131 0.38719 0.94682 0.0
C286 C 0.25954 0.3681 0.92363 0.0
C287 C 0.24282 0.33138 0.92177 0.0
H288 H 0.30427 0.41559 0.94822 0.0
H289 H 0.14247 0.05912 0.94491 0.0
H290 H 0.07432 0.39654 0.14919 0.0
H291 H 0.02703 0.36535 0.2045 0.0
H292 H 0.04207 0.27576 0.1976 0.0
H293 H 0.0903 0.30736 0.14382 0.0
H294 H 0.96569 0.26412 0.20367 0.0
H295 H 0.08162 0.31911 0.26992 0.0
H296 H 0.14116 0.3692 0.28122 0.0
H297 H 0.09827 0.42847 0.34096 0.0
H298 H 0.03825 0.37949 0.32705 0.0
H299 H 0.87352 0.1894 0.408 0.0
H300 H 0.91824 0.20766 0.34885 0.0
H301 H 0.95019 0.31639 0.37459 0.0
H302 H 0.90732 0.29831 0.43533 0.0
H303 H 0.00445 0.31311 0.3572 0.0
H304 H 0.8884 0.25948 0.29004 0.0
H305 H 0.82852 0.21043 0.27692 0.0
H306 H 0.86983 0.14955 0.2182 0.0
H307 H 0.93023 0.19759 0.23329 0.0
C308 C 0.0669 0.3699 0.15877 0.0
C309 C 0.08588 0.3543 0.14285 0.0
C310 C 0.04001 0.35218 0.19017 0.0
C311 C 0.03139 0.31844 0.20497 0.0
C312 C 0.04843 0.30175 0.18631 0.0
C313 C 0.07598 0.31984 0.15596 0.0
C314 C 0.00808 0.30267 0.24407 0.0
C315 C 0.97404 0.27443 0.23742 0.0
C316 C 0.0193 0.3165 0.28772 0.0
C317 C 0.05541 0.34586 0.29657 0.0
C318 C 0.08483 0.34308 0.28455 0.0
C319 C 0.11873 0.37132 0.29145 0.0
C320 C 0.12361 0.40211 0.31167 0.0
C321 C 0.09454 0.40475 0.32494 0.0
C322 C 0.06053 0.37683 0.31725 0.0
C323 C 0.89071 0.2172 0.40149 0.0
C324 C 0.88717 0.24251 0.4261 0.0
C325 C 0.91596 0.22759 0.36746 0.0
C326 C 0.93697 0.26336 0.3564 0.0
C327 C 0.93428 0.28863 0.38236 0.0
C328 C 0.90984 0.27831 0.41718 0.0
C329 C 0.96111 0.27496 0.31715 0.0
C330 C -0.00428 0.30246 0.32367 0.0
C331 C 0.95016 0.26051 0.27335 0.0
C332 C 0.91385 0.23196 0.26346 0.0
C333 C 0.88476 0.23554 0.27468 0.0
C334 C 0.85068 0.20789 0.26686 0.0
C335 C 0.84526 0.1769 0.24659 0.0
C336 C 0.87402 0.17351 0.23407 0.0
C337 C 0.90821 0.20085 0.24254 0.0
H338 H 0.8188 0.15549 0.24079 0.0
H339 H 0.14991 0.42379 0.31722 0.0
H340 H 0.798 0.13264 0.61027 0.0
H341 H 0.78235 0.07253 0.631 0.0
H342 H 0.75327 0.03967 0.49295 0.0
H343 H 0.76692 0.09909 0.47298 0.0
H344 H 0.70348 -0.00181 0.54308 0.0
H345 H 0.82729 0.04279 0.54806 0.0
H346 H 0.88895 0.08332 0.56946 0.0
H347 H 0.86251 0.05824 0.70902 0.0
H348 H 0.80058 0.01791 0.68854 0.0
H349 H 0.65341 0.82343 0.598 0.0
H350 H 0.69484 0.88125 0.56603 0.0
H351 H 0.70449 0.92924 0.69587 0.0
H352 H 0.66284 0.87188 0.72774 0.0
H353 H 0.7692 0.95999 0.64194 0.0
H354 H 0.64463 0.92522 0.63546 0.0
H355 H 0.58277 0.88486 0.61441 0.0
H356 H 0.61263 0.89237 0.47537 0.0
H357 H 0.67479 0.93225 0.49576 0.0
C358 C 0.78874 0.11257 0.58441 0.0
C359 C 0.7832 0.12011 0.54027 0.0
C360 C 0.78009 0.07834 0.5961 0.0
C361 C 0.76686 0.05155 0.56342 0.0
C362 C 0.76324 0.05979 0.51878 0.0
C363 C 0.77097 0.09366 0.50741 0.0
C364 C 0.75295 0.01433 0.57653 0.0
C365 C 0.71837 0.98982 0.56367 0.0
C366 C 0.77192 0.00337 0.60427 0.0
C367 C 0.80921 0.02746 0.61674 0.0
C368 C 0.83456 0.04608 0.58334 0.0
C369 C 0.86958 0.06899 0.5953 0.0
C370 C 0.87963 0.07339 0.64057 0.0
C371 C 0.85469 0.05481 0.67396 0.0
C372 C 0.81963 0.03187 0.66219 0.0
C373 C 0.66515 0.84622 0.61988 0.0
C374 C 0.65467 0.8435 0.66505 0.0
C375 C 0.68879 0.87909 0.60167 0.0
C376 C 0.70245 0.90931 0.6287 0.0
C377 C 0.69428 0.90612 0.67466 0.0
C378 C 0.67026 0.87346 0.69265 0.0
C379 C 0.72026 0.94456 0.60819 0.0
C380 C 0.75511 0.96856 0.62014 0.0
C381 C 0.70174 0.9552 0.5794 0.0
C382 C 0.66437 0.93133 0.56718 0.0
C383 C 0.63803 0.91798 0.60047 0.0
C384 C 0.60293 0.89525 0.58866 0.0
C385 C 0.59381 0.88605 0.54359 0.0
C386 C 0.61976 0.8995 0.51026 0.0
C387 C 0.65492 0.92214 0.52192 0.0
H388 H 0.56663 0.86862 0.53444 0.0
H389 H 0.90675 0.09116 0.64976 0.0
H390 H 0.5946 0.66761 0.78369 0.0
H391 H 0.62271 0.65154 0.84271 0.0
H392 H 0.70783 0.75923 0.84891 0.0
H393 H 0.67845 0.7757 0.79188 0.0
H394 H 0.67766 0.64982 0.85866 0.0
H395 H 0.73606 0.78273 0.95557 0.0
H396 H 0.72431 0.83177 0.96376 0.0
H397 H 0.61602 0.76287 0.92892 0.0
H398 H 0.62686 0.71335 0.9218 0.0
H399 H 0.78972 0.65165 0.02613 0.0
H400 H 0.76769 0.67284 0.96567 0.0
H401 H 0.68312 0.661 0.05116 0.0
H402 H 0.7049 0.63953 0.11225 0.0
H403 H 0.71057 0.72111 0.9986 0.0
H404 H 0.66202 0.59863 0.98075 0.0
H405 H 0.65832 0.541 0.97432 0.0
H406 H 0.72641 0.57752 0.859 0.0
H407 H 0.73154 0.63587 0.86582 0.0
C408 C 0.61964 0.68766 0.79714 0.0
C409 C 0.63433 0.72288 0.78377 0.0
C410 C 0.63568 0.6785 0.83087 0.0
C411 C 0.66694 0.70436 0.85109 0.0
C412 C 0.68315 0.73905 0.83482 0.0
C413 C 0.66657 0.7484 0.80206 0.0
C414 C 0.68121 0.69539 0.89097 0.0
C415 C 0.68525 0.66573 0.88894 0.0
C416 C 0.68954 0.7151 0.93148 0.0
C417 C 0.68242 0.74446 0.93758 0.0
C418 C 0.70968 0.77802 0.95003 0.0
C419 C 0.70317 0.8059 0.95452 0.0
C420 C 0.66947 0.80051 0.94673 0.0
C421 C 0.64211 0.76711 0.93495 0.0
C422 C 0.64841 0.7391 0.93074 0.0
C423 C 0.7668 0.65412 0.03256 0.0
C424 C 0.74886 0.64361 0.07395 0.0
C425 C 0.7542 0.6661 0.99783 0.0
C426 C 0.72358 0.66796 1.00391 0.0
C427 C 0.70679 0.65961 0.04596 0.0
C428 C 0.71924 0.64734 0.08074 0.0
C429 C 0.70801 0.67642 0.96532 0.0
C430 C 0.70358 0.70577 0.96782 0.0
C431 C 0.69777 0.65556 0.92598 0.0
C432 C 0.69723 0.6216 0.92384 0.0
C433 C 0.67675 0.59457 0.95454 0.0
C434 C 0.67443 0.56179 0.95089 0.0
C435 C 0.6923 0.55563 0.91646 0.0
C436 C 0.71285 0.5824 0.88591 0.0
C437 C 0.71549 0.61534 0.88966 0.0
H438 H 0.68996 0.53002 0.9133 0.0
H439 H 0.66459 0.82221 0.9499 0.0
H440 H 0.11822 0.76984 0.36905 0.0
H441 H 0.06067 0.75175 0.33799 0.0
H442 H 0.10669 0.8385 0.24412 0.0
H443 H 0.16527 0.85662 0.2747 0.0
H444 H 0.01987 0.77955 0.33019 0.0
H445 H 0.05953 0.8075 0.14501 0.0
H446 H 0.10892 0.81813 0.0952 0.0
H447 H 0.13246 0.75345 0.18016 0.0
H448 H 0.08296 0.7421 0.23004 0.0
H449 H 0.8556 0.69734 0.21395 0.0
H450 H 0.91504 0.74373 0.2344 0.0
H451 H 0.95557 0.67582 0.1975 0.0
H452 H 0.89686 0.63008 0.17588 0.0
H453 H -0.00024 0.74012 0.17095 0.0
H454 H 0.93452 0.68429 0.30793 0.0
H455 H 0.88533 0.66622 0.36126 0.0
H456 H 0.91322 0.77415 0.37869 0.0
H457 H 0.96231 0.79278 0.32495 0.0
C458 C 0.11632 0.78533 0.34194 0.0
C459 C 0.14646 0.81444 0.32394 0.0
C460 C 0.08323 0.77509 0.3245 0.0
C461 C 0.07938 0.79368 0.28868 0.0
C462 C 0.10918 0.82366 0.27163 0.0
C463 C 0.14257 0.83395 0.28908 0.0
C464 C 0.04437 0.77924 0.26746 0.0
C465 C 0.01548 0.77152 0.29512 0.0
C466 C 0.03866 0.76851 0.22185 0.0
C467 C 0.06789 0.77438 0.19149 0.0
C468 C 0.0752 0.79548 0.15292 0.0
C469 C 0.1032 0.80163 0.1247 0.0
C470 C 0.12391 0.78661 0.13462 0.0
C471 C 0.1165 0.76518 0.1726 0.0
C472 C 0.08848 0.75889 0.20084 0.0
C473 C 0.87725 0.69242 0.21009 0.0
C474 C 0.87153 0.65998 0.19364 0.0
C475 C 0.91117 0.71896 0.22163 0.0
C476 C 0.93971 0.71317 0.21765 0.0
C477 C 0.93402 0.68102 0.20047 0.0
C478 C 0.90034 0.65475 0.18845 0.0
C479 C 0.9752 0.73917 0.23421 0.0
C480 C 0.00415 0.74924 0.20557 0.0
C481 C 0.98096 0.75099 0.2794 0.0
C482 C 0.95175 0.73987 0.31205 0.0
C483 C 0.93001 0.70412 0.32295 0.0
C484 C 0.90217 0.69379 0.35324 0.0
C485 C 0.89608 0.71901 0.37323 0.0
C486 C 0.91791 0.75463 0.36309 0.0
C487 C 0.94574 0.7651 0.33272 0.0
H488 H 0.87451 0.71095 0.39666 0.0
H489 H 0.14565 0.7915 0.11283 0.0
H490 H 0.37102 0.06738 0.7843 0.0
H491 H 0.35002 0.025 0.72238 0.0
H492 H 0.28271 0.06407 0.67711 0.0
H493 H 0.30372 0.10673 0.73859 0.0
H494 H 0.25361 0.98808 0.6692 0.0
H495 H 0.35973 0.09996 0.63896 0.0
H496 H 0.42143 0.14642 0.6508 0.0
H497 H 0.45526 0.07131 0.63025 0.0
H498 H 0.39376 0.02432 0.61917 0.0
H499 H 0.22391 0.93086 0.44462 0.0
H500 H 0.23892 0.96861 0.51128 0.0
H501 H 0.33161 0.95979 0.53136 0.0
H502 H 0.31826 0.92511 0.46267 0.0
H503 H 0.34743 0.01879 0.55574 0.0
H504 H 0.2468 0.90672 0.58776 0.0
H505 H 0.18658 0.85631 0.57857 0.0
H506 H 0.14394 0.92402 0.6005 0.0
H507 H 0.20379 0.97489 0.60916 0.0
C508 C 0.35099 0.06626 0.76197 0.0
C509 C 0.33928 0.0906 0.76585 0.0
C510 C 0.33912 0.04212 0.72663 0.0
C511 C 0.31523 0.04188 0.69513 0.0
C512 C 0.30121 0.06402 0.70121 0.0
C513 C 0.31336 0.08843 0.73617 0.0
C514 C 0.30818 0.02197 0.6529 0.0
C515 C 0.27392 0.99476 0.64407 0.0
C516 C 0.33513 0.03031 0.62104 0.0
C517 C 0.37207 0.05858 0.62861 0.0
C518 C 0.38029 0.09332 0.63741 0.0
C519 C 0.41522 0.11974 0.64392 0.0
C520 C 0.4422 0.11181 0.64122 0.0
C521 C 0.43432 0.07741 0.63232 0.0
C522 C 0.39943 0.05088 0.62597 0.0
C523 C 0.24801 0.93809 0.46271 0.0
C524 C 0.2702 0.92564 0.4487 0.0
C525 C 0.25628 0.95905 0.50114 0.0
C526 C 0.28577 0.96609 0.52734 0.0
C527 C 0.30865 0.95473 0.51197 0.0
C528 C 0.30115 0.93505 0.47262 0.0
C529 C 0.29256 0.98445 0.57126 0.0
C530 C 0.32686 0.01163 0.58056 0.0
C531 C 0.26585 0.97526 0.60407 0.0
C532 C 0.22982 0.94467 0.59873 0.0
C533 C 0.22459 0.91087 0.59037 0.0
C534 C 0.19055 0.88223 0.58529 0.0
C535 C 0.16153 0.88698 0.58891 0.0
C536 C 0.16646 0.92038 0.59766 0.0
C537 C 0.20042 0.94913 0.60267 0.0
H538 H 0.13522 0.86477 0.58498 0.0
H539 H 0.46923 0.13232 0.64574 0.0
H540 H 0.20533 0.44747 0.76556 0.0
H541 H 0.21648 0.44813 0.68469 0.0
H542 H 0.10815 0.36866 0.66331 0.0
H543 H 0.09689 0.36752 0.74431 0.0
H544 H 0.15461 0.35507 0.61645 0.0
H545 H 0.13485 0.4525 0.63798 0.0
H546 H 0.14522 0.50779 0.67288 0.0
H547 H 0.25265 0.55983 0.62842 0.0
H548 H 0.24304 0.50469 0.59378 0.0
H549 H 0.15265 0.3663 0.37891 0.0
H550 H 0.14016 0.36578 0.45923 0.0
H551 H 0.24224 0.45794 0.47874 0.0
H552 H 0.25393 0.45948 0.39784 0.0
H553 H 0.19866 0.46489 0.52747 0.0
H554 H 0.221 0.36964 0.50768 0.0
H555 H 0.21338 0.31492 0.47418 0.0
H556 H 0.10552 0.25941 0.51697 0.0
H557 H 0.11238 0.31392 0.55024 0.0
C558 C 0.18393 0.4299 0.74373 0.0
C559 C 0.15018 0.40747 0.76145 0.0
C560 C 0.19028 0.43051 0.69743 0.0
C561 C 0.16307 0.40869 0.66783 0.0
C562 C 0.12952 0.38582 0.68547 0.0
C563 C 0.12307 0.38537 0.73174 0.0
C564 C 0.16959 0.40977 0.61847 0.0
C565 C 0.16382 0.37896 0.59682 0.0
C566 C 0.18257 0.44117 0.5931 0.0
C567 C 0.1883 0.47438 0.61366 0.0
C568 C 0.16075 0.47567 0.63594 0.0
C569 C 0.16648 0.50699 0.65563 0.0
C570 C 0.19959 0.53728 0.65297 0.0
C571 C 0.22702 0.53633 0.63051 0.0
C572 C 0.22144 0.50507 0.6108 0.0
C573 C 0.17238 0.38643 0.4004 0.0
C574 C 0.20435 0.41281 0.38219 0.0
C575 C 0.16534 0.38602 0.44643 0.0
C576 C 0.19055 0.41134 0.4756 0.0
C577 C 0.22233 0.43802 0.4572 0.0
C578 C 0.22905 0.43888 0.41096 0.0
C579 C 0.18383 0.41013 0.52512 0.0
C580 C 0.18952 0.44094 0.54691 0.0
C581 C 0.17126 0.37881 0.55078 0.0
C582 C 0.16713 0.34594 0.53109 0.0
C583 C 0.1956 0.34581 0.5097 0.0
C584 C 0.19143 0.31483 0.49079 0.0
C585 C 0.15897 0.28373 0.49335 0.0
C586 C 0.13064 0.28353 0.51497 0.0
C587 C 0.13467 0.31445 0.5339 0.0
H588 H 0.15578 0.25977 0.47868 0.0
H589 H 0.20398 0.56151 0.66823 0.0
H590 H 0.77815 0.15446 0.18263 0.0
H591 H 0.79254 0.16526 0.10289 0.0
H592 H 0.77964 0.2562 0.10798 0.0
H593 H 0.76366 0.24471 0.18757 0.0
H594 H 0.74997 0.21952 0.03432 0.0
H595 H 0.86132 0.26295 0.10648 0.0
H596 H 0.90437 0.26002 0.15698 0.0
H597 H 0.90006 0.17642 0.07753 0.0
H598 H 0.85639 0.17828 0.0271 0.0
H599 H 0.83158 0.29263 0.82476 0.0
H600 H 0.8201 0.28368 0.90565 0.0
H601 H 0.82276 0.18708 0.89841 0.0
H602 H 0.83483 0.19615 0.81734 0.0
H603 H 0.85889 0.22773 0.97323 0.0
H604 H 0.7456 0.18352 0.90331 0.0
H605 H 0.70215 0.18662 0.85385 0.0
H606 H 0.71138 0.27374 0.93027 0.0
H607 H 0.75529 0.27148 0.97983 0.0
C608 C 0.77799 0.1766 0.16692 0.0
C609 C 0.76979 0.19875 0.19197 0.0
C610 C 0.78666 0.18298 0.12123 0.0
C611 C 0.78776 0.21189 0.09941 0.0
C612 C 0.77919 0.23383 0.12405 0.0
C613 C 0.77037 0.22739 0.16977 0.0
C614 C 0.79739 0.21893 0.0508 0.0
C615 C 0.77407 0.22185 0.02117 0.0
C616 C 0.82853 0.2213 0.0333 0.0
C617 C 0.85532 0.22057 0.06315 0.0
C618 C 0.86935 0.24377 0.09992 0.0
C619 C 0.89387 0.24231 0.12855 0.0
C620 C 0.90492 0.21805 0.12045 0.0
C621 C 0.89146 0.1952 0.08374 0.0
C622 C 0.86683 0.19644 0.05512 0.0
C623 C 0.8301 0.26965 0.84038 0.0
C624 C 0.8341 0.24508 0.81444 0.0
C625 C 0.8233 0.26445 0.88664 0.0
C626 C 0.8203 0.23457 0.90813 0.0
C627 C 0.82492 0.21031 0.88258 0.0
C628 C 0.83152 0.21538 0.83617 0.0
C629 C 0.81143 0.22828 0.95697 0.0
C630 C 0.83488 0.22551 0.98657 0.0
C631 C 0.78054 0.22627 0.97459 0.0
C632 C 0.75399 0.22755 0.945 0.0
C633 C 0.73857 0.20352 0.90935 0.0
C634 C 0.71382 0.20509 0.88133 0.0
C635 C 0.70407 0.23042 0.88884 0.0
C636 C 0.71899 0.25417 0.92446 0.0
C637 C 0.74379 0.25273 0.95254 0.0
H638 H 0.68491 0.2316 0.86711 0.0
H639 H 0.92396 0.217 0.14255 0.0
H640 H 0.51817 0.71776 0.40158 0.0
H641 H 0.51844 0.72895 0.32071 0.0
H642 H 0.6247 0.74872 0.31101 0.0
H643 H 0.6247 0.73777 0.39205 0.0
H644 H 0.61409 0.79865 0.26499 0.0
H645 H 0.55979 0.67245 0.27592 0.0
H646 H 0.51637 0.61362 0.30429 0.0
H647 H 0.43229 0.62609 0.25153 0.0
H648 H 0.47522 0.68524 0.2234 0.0
H649 H 0.6258 0.79619 0.02719 0.0
H650 H 0.62639 0.78543 0.10792 0.0
H651 H 0.51454 0.74555 0.11412 0.0
H652 H 0.51376 0.75503 0.03293 0.0
H653 H 0.52812 0.706 0.16296 0.0
H654 H 0.57918 0.83083 0.15303 0.0
H655 H 0.62038 0.89092 0.12627 0.0
H656 H 0.70742 0.88335 0.17865 0.0
H657 H 0.66675 0.82301 0.20522 0.0
C658 C 0.54169 0.72473 0.38231 0.0
C659 C 0.5714 0.72681 0.40325 0.0
C660 C 0.54172 0.7309 0.33603 0.0
C661 C 0.5715 0.73942 0.30974 0.0
C662 C 0.60141 0.7421 0.33063 0.0
C663 C 0.60129 0.7356 0.37686 0.0
C664 C 0.57133 0.74529 0.26039 0.0
C665 C 0.59563 0.77828 0.24251 0.0
C666 C 0.54652 0.71906 0.23132 0.0
C667 C 0.52071 0.68341 0.24794 0.0
C668 C 0.53203 0.66276 0.27068 0.0
C669 C 0.50751 0.62934 0.28666 0.0
C670 C 0.47159 0.61616 0.27981 0.0
C671 C 0.46012 0.63635 0.25686 0.0
C672 C 0.48454 0.66981 0.24086 0.0
C673 C 0.60139 0.78523 0.04583 0.0
C674 C 0.56976 0.77659 0.02376 0.0
C675 C 0.60174 0.77922 0.0921 0.0
C676 C 0.57061 0.76527 0.1176 0.0
C677 C 0.53895 0.75636 0.09541 0.0
C678 C 0.5385 0.7618 0.04899 0.0
C679 C 0.57094 0.75953 0.16718 0.0
C680 C 0.54664 0.72651 0.18523 0.0
C681 C 0.59541 0.78596 0.19653 0.0
C682 C 0.61994 0.82227 0.18072 0.0
C683 C 0.60713 0.84189 0.15856 0.0
C684 C 0.63038 0.87601 0.14347 0.0
C685 C 0.6665 0.89091 0.15065 0.0
C686 C 0.67943 0.87176 0.17305 0.0
C687 C 0.65629 0.83761 0.18817 0.0
H688 H 0.68446 0.91733 0.13894 0.0
H689 H 0.45265 0.59027 0.29221 0.0
H690 H 0.81918 0.63368 0.8448 0.0
H691 H 0.81 0.63771 0.76436 0.0
H692 H 0.75014 0.5245 0.75595 0.0
H693 H 0.76057 0.52025 0.83593 0.0
H694 H 0.7927 0.54826 0.6881 0.0
H695 H 0.70934 0.5769 0.74949 0.0
H696 H 0.68656 0.60789 0.79531 0.0
H697 H 0.76125 0.70609 0.73446 0.0
H698 H 0.7842 0.67561 0.68784 0.0
H699 H 0.71609 0.53706 0.47286 0.0
H700 H 0.72529 0.53459 0.55374 0.0
H701 H 0.79741 0.64649 0.55497 0.0
H702 H 0.78802 0.64922 0.47391 0.0
H703 H 0.74917 0.62414 0.62572 0.0
H704 H 0.82885 0.59155 0.56016 0.0
H705 H 0.84509 0.55706 0.51044 0.0
H706 H 0.77202 0.46218 0.57941 0.0
H707 H 0.75499 0.49606 0.62918 0.0
C708 C 0.80433 0.60959 0.82581 0.0
C709 C 0.7908 0.57662 0.84706 0.0
C710 C 0.79863 0.61195 0.7798 0.0
C711 C 0.77898 0.58142 0.75388 0.0
C712 C 0.76532 0.54849 0.77505 0.0
C713 C 0.7711 0.5461 0.82101 0.0
C714 C 0.77389 0.58374 0.70444 0.0
C715 C 0.78271 0.56451 0.67464 0.0
C716 C 0.76153 0.60544 0.68639 0.0
C717 C 0.74872 0.62403 0.71553 0.0
C718 C 0.72111 0.60515 0.74617 0.0
C719 C 0.70805 0.6226 0.77211 0.0
C720 C 0.72259 0.65897 0.76798 0.0
C721 C 0.75008 0.67794 0.7377 0.0
C722 C 0.76301 0.66057 0.71136 0.0
C723 C 0.7338 0.5612 0.49033 0.0
C724 C 0.75129 0.59336 0.46685 0.0
C725 C 0.73923 0.5597 0.53656 0.0
C726 C 0.76223 0.59031 0.56047 0.0
C727 C 0.77959 0.62251 0.53724 0.0
C728 C 0.7744 0.624 0.49085 0.0
C729 C 0.76788 0.58864 0.60973 0.0
C730 C 0.75922 0.608 0.63937 0.0
C731 C 0.7799 0.56668 0.62768 0.0
C732 C 0.79043 0.54632 0.59814 0.0
C733 C 0.81607 0.5633 0.56453 0.0
C734 C 0.82545 0.54386 0.53637 0.0
C735 C 0.80954 0.50744 0.54169 0.0
C736 C 0.7843 0.49039 0.5753 0.0
C737 C 0.77481 0.50971 0.60353 0.0
H738 H 0.81681 0.49243 0.51983 0.0
H739 H 0.71248 0.67247 0.78805 0.0
H740 H 0.27734 0.84143 0.67911 0.0
H741 H 0.2877 0.8533 0.75963 0.0
H742 H 0.1767 0.81187 0.78081 0.0
H743 H 0.16636 0.80178 0.7 0.0
H744 H 0.21243 0.86789 0.83072 0.0
H745 H 0.21802 0.763 0.80382 0.0
H746 H 0.23912 0.72679 0.76694 0.0
H747 H 0.34425 0.79822 0.81188 0.0
H748 H 0.32384 0.83512 0.84856 0.0
H749 H 0.21128 0.84193 0.06757 0.0
H750 H 0.2011 0.83175 0.98652 0.0
H751 H 0.31277 0.87921 0.96443 0.0
H752 H 0.32308 0.88856 0.04544 0.0
H753 H 0.27669 0.82013 0.9153 0.0
H754 H 0.27051 0.92473 0.9426 0.0
H755 H 0.24891 0.96041 0.97979 0.0
H756 H 0.14401 0.88845 0.93458 0.0
H757 H 0.16492 0.85208 0.89758 0.0
C758 C 0.25515 0.83533 0.7007 0.0
C759 C 0.22093 0.82032 0.68291 0.0
C760 C 0.26108 0.84173 0.74693 0.0
C761 C 0.2329 0.83281 0.77655 0.0
C762 C 0.19887 0.81873 0.75877 0.0
C763 C 0.19295 0.81262 0.71252 0.0
C764 C 0.23875 0.83781 0.82607 0.0
C765 C 0.22608 0.85704 0.84926 0.0
C766 C 0.25716 0.82427 0.85031 0.0
C767 C 0.26945 0.80198 0.82857 0.0
C768 C 0.24567 0.7711 0.80558 0.0
C769 C 0.2575 0.75044 0.78475 0.0
C770 C 0.29302 0.76024 0.78697 0.0
C771 C 0.31676 0.79068 0.81014 0.0
C772 C 0.30507 0.81146 0.831 0.0
C773 C 0.23366 0.84992 0.04552 0.0
C774 C 0.26804 0.8663 0.06302 0.0
C775 C 0.22782 0.84436 0.99913 0.0
C776 C 0.25622 0.85514 0.96929 0.0
C777 C 0.29047 0.87083 0.98675 0.0
C778 C 0.29633 0.87644 0.03306 0.0
C779 C 0.25034 0.85016 0.91985 0.0
C780 C 0.26301 0.83094 0.8967 0.0
C781 C 0.23182 0.86358 0.8957 0.0
C782 C 0.21923 0.88551 0.9177 0.0
C783 C 0.24279 0.91638 0.94087 0.0
C784 C 0.23068 0.93675 0.96187 0.0
C785 C 0.19509 0.92666 0.95965 0.0
C786 C 0.17156 0.89621 0.93632 0.0
C787 C 0.18353 0.87573 0.91529 0.0
H788 H 0.18576 0.94246 0.97593 0.0
H789 H 0.30213 0.74421 0.77081 0.0
H790 H 0.33996 0.15139 0.53349 0.0
H791 H 0.33736 0.13707 0.45344 0.0
H792 H 0.44249 0.22455 0.43525 0.0
H793 H 0.44548 0.23877 0.51517 0.0
H794 H 0.39893 0.22419 0.37175 0.0
H795 H 0.42409 0.13857 0.43733 0.0
H796 H 0.41433 0.08884 0.48582 0.0
H797 H 0.31483 0.02282 0.42183 0.0
H798 H 0.32369 0.07234 0.37342 0.0
H799 H 0.44046 0.19224 0.15467 0.0
H800 H 0.43884 0.20044 0.23578 0.0
H801 H 0.33596 0.10768 0.24289 0.0
H802 H 0.3377 0.09905 0.16158 0.0
H803 H 0.37408 0.1086 0.31205 0.0
H804 H 0.34708 0.19148 0.24708 0.0
H805 H 0.35504 0.23959 0.19669 0.0
H806 H 0.45415 0.30924 0.25937 0.0
H807 H 0.44702 0.26139 0.30976 0.0
C808 C 0.36272 0.16733 0.51262 0.0
C809 C 0.39289 0.19638 0.53091 0.0
C810 C 0.36117 0.1591 0.46678 0.0
C811 C 0.3898 0.17961 0.43827 0.0
C812 C 0.42 0.20842 0.45649 0.0
C813 C 0.42159 0.21663 0.50223 0.0
C814 C 0.38806 0.17208 0.38913 0.0
C815 C 0.39393 0.19903 0.35876 0.0
C816 C 0.38016 0.13881 0.37202 0.0
C817 C 0.37442 0.10931 0.40201 0.0
C818 C 0.39993 0.11359 0.43395 0.0
C819 C 0.3946 0.08541 0.46134 0.0
C820 C 0.364 0.05272 0.45683 0.0
C821 C 0.33852 0.04818 0.42522 0.0
C822 C 0.34369 0.07629 0.39781 0.0
C823 C 0.41736 0.17372 0.17341 0.0
C824 C 0.38907 0.14516 0.15154 0.0
C825 C 0.41645 0.17843 0.21986 0.0
C826 C 0.387 0.15504 0.24552 0.0
C827 C 0.35895 0.12613 0.22391 0.0
C828 C 0.35998 0.12122 0.17742 0.0
C829 C 0.3856 0.16094 0.29476 0.0
C830 C 0.37897 0.13371 0.32509 0.0
C831 C 0.39235 0.1938 0.31196 0.0
C832 C 0.39664 0.22275 0.28194 0.0
C833 C 0.37069 0.21699 0.24992 0.0
C834 C 0.37504 0.24422 0.22139 0.0
C835 C 0.40512 0.27743 0.22476 0.0
C836 C 0.43088 0.28349 0.25677 0.0
C837 C 0.42668 0.25633 0.28536 0.0
H838 H 0.40844 0.29848 0.20263 0.0
H839 H 0.36014 0.03081 0.47756 0.0
H840 H 0.22426 0.50437 0.17574 0.0
H841 H 0.23314 0.55801 0.21175 0.0
H842 H 0.16197 0.5639 0.11652 0.0
H843 H 0.15485 0.51108 0.0784 0.0
H844 H 0.21389 0.62714 0.13312 0.0
H845 H 0.13768 0.52787 0.22964 0.0
H846 H 0.12192 0.47544 0.27616 0.0
H847 H 0.21284 0.53576 0.35913 0.0
H848 H 0.22941 0.58838 0.31275 0.0
H849 H 0.18879 0.74828 0.26071 0.0
H850 H 0.17929 0.69572 0.22059 0.0
H851 H 0.24607 0.68275 0.31623 0.0
H852 H 0.25363 0.73407 0.35809 0.0
H853 H 0.19462 0.6228 0.29821 0.0
H854 H 0.27336 0.72046 0.2052 0.0
H855 H 0.29176 0.77533 0.16282 0.0
H856 H 0.20222 0.72124 0.0758 0.0
H857 H 0.18299 0.66614 0.11809 0.0
C858 C 0.21065 0.51724 0.16236 0.0
C859 C 0.1885 0.50348 0.12474 0.0
C860 C 0.21556 0.54777 0.18313 0.0
C861 C 0.19729 0.56437 0.16786 0.0
C862 C 0.17606 0.55133 0.1292 0.0
C863 C 0.17194 0.52121 0.1075 0.0
C864 C 0.19994 0.59488 0.1928 0.0
C865 C 0.20923 0.62605 0.16912 0.0
C866 C 0.19486 0.59388 0.24006 0.0
C867 C 0.18484 0.56201 0.26759 0.0
C868 C 0.1544 0.52987 0.25763 0.0
C869 C 0.14534 0.50013 0.28402 0.0
C870 C 0.16637 0.50233 0.32064 0.0
C871 C 0.19658 0.53415 0.3308 0.0
C872 C 0.20579 0.56391 0.30451 0.0
C873 C 0.20116 0.73395 0.27327 0.0
C874 C 0.222 0.74507 0.31229 0.0
C875 C 0.19601 0.70414 0.25012 0.0
C876 C 0.21274 0.68578 0.26459 0.0
C877 C 0.23299 0.69655 0.30425 0.0
C878 C 0.2373 0.72578 0.32819 0.0
C879 C 0.20899 0.65519 0.23875 0.0
C880 C 0.19932 0.62395 0.2622 0.0
C881 C 0.21438 0.65641 0.19154 0.0
C882 C 0.22658 0.68923 0.16506 0.0
C883 C 0.25754 0.72029 0.17711 0.0
C884 C 0.26811 0.75144 0.15312 0.0
C885 C 0.24813 0.75179 0.11671 0.0
C886 C 0.21765 0.72093 0.10404 0.0
C887 C 0.20692 0.68973 0.12798 0.0
H888 H 0.25628 0.77596 0.09828 0.0
H889 H 0.15927 0.47952 0.34142 0.0
H890 H 0.68092 0.20093 0.51738 0.0
H891 H 0.63137 0.19388 0.563 0.0
H892 H 0.67672 0.17448 0.68074 0.0
H893 H 0.72595 0.18106 0.63562 0.0
H894 H 0.6049 0.1306 0.67668 0.0
H895 H 0.6891 0.25469 0.66322 0.0
H896 H 0.72719 0.30912 0.62084 0.0
H897 H 0.63684 0.30085 0.55362 0.0
H898 H 0.59824 0.24603 0.59513 0.0
H899 H 0.50255 0.16383 0.83788 0.0
H900 H 0.55233 0.16588 0.79725 0.0
H901 H 0.51763 0.19147 0.67432 0.0
H902 H 0.46844 0.18933 0.71388 0.0
H903 H 0.58633 0.23288 0.68469 0.0
H904 H 0.50247 0.1094 0.69267 0.0
H905 H 0.46246 0.05303 0.72995 0.0
H906 H 0.54942 0.05841 0.80293 0.0
H907 H 0.58986 0.1151 0.76637 0.0
C908 C 0.68011 0.19473 0.55284 0.0
C909 C 0.70754 0.19193 0.57294 0.0
C910 C 0.65188 0.19084 0.57887 0.0
C911 C 0.65071 0.18414 0.62533 0.0
C912 C 0.67721 0.17974 0.64499 0.0
C913 C 0.70542 0.1837 0.61911 0.0
C914 C 0.62291 0.18354 0.654 0.0
C915 C 0.60108 0.15309 0.67896 0.0
C916 C 0.61771 0.21275 0.65633 0.0
C917 C 0.64082 0.2461 0.63202 0.0
C918 C 0.67738 0.26437 0.63922 0.0
C919 C 0.69905 0.2953 0.61537 0.0
C920 C 0.68445 0.30839 0.58449 0.0
C921 C 0.64811 0.29065 0.57752 0.0
C922 C 0.62632 0.25967 0.60123 0.0
C923 C 0.50559 0.16978 0.8022 0.0
C924 C 0.48142 0.17618 0.77914 0.0
C925 C 0.53391 0.17087 0.77903 0.0
C926 C 0.53847 0.17861 0.73268 0.0
C927 C 0.51461 0.18541 0.71 0.0
C928 C 0.48632 0.18397 0.73279 0.0
C929 C 0.56794 0.17976 0.70708 0.0
C930 C 0.59024 0.21043 0.68275 0.0
C931 C 0.57328 0.15062 0.70497 0.0
C932 C 0.54908 0.11668 0.72721 0.0
C933 C 0.51298 0.09871 0.71697 0.0
C934 C 0.49024 0.06667 0.7379 0.0
C935 C 0.50337 0.05219 0.76893 0.0
C936 C 0.53928 0.0697 0.77897 0.0
C937 C 0.56212 0.10178 0.75813 0.0
H938 H 0.48575 0.02737 0.78509 0.0
H939 H 0.70128 0.33232 0.56602 0.0
H940 H 0.3075 0.48358 0.05537 0.0
H941 H 0.35989 0.51941 1.00942 0.0
H942 H 0.29693 0.4825 0.88875 0.0
H943 H 0.24509 0.44603 0.93387 0.0
H944 H 0.35924 0.48946 0.87364 0.0
H945 H 0.31544 0.56043 0.94026 0.0
H946 H 0.29768 0.58474 1.00319 0.0
H947 H 0.4015 0.63065 0.05936 0.0
H948 H 0.41972 0.60618 0.99706 0.0
H949 H 0.45785 0.63709 0.72495 0.0
H950 H 0.4135 0.58828 0.7707 0.0
H951 H 0.48289 0.62644 0.88559 0.0
H952 H 0.5267 0.67493 0.84081 0.0
H953 H 0.41996 0.61744 0.90549 0.0
H954 H 0.46502 0.55047 0.83356 0.0
H955 H 0.48194 0.52653 0.76942 0.0
H956 H 0.37549 0.47413 0.72123 0.0
H957 H 0.358 0.49813 0.7848 0.0
C958 C 0.30494 0.48278 0.01904 0.0
C959 C 0.27199 0.46243 0.99841 0.0
C960 C 0.33486 0.50328 0.99283 0.0
C961 C 0.33215 0.50415 0.94569 0.0
C962 C 0.29966 0.48237 0.92503 0.0
C963 C 0.26992 0.46169 0.95105 0.0
C964 C 0.3622 0.52969 0.9179 0.0
C965 C 0.37245 0.51748 0.88042 0.0
C966 C 0.37967 0.5662 0.92706 0.0
C967 C 0.36881 0.58115 0.96431 0.0
C968 C 0.3344 0.57552 0.9662 0.0
C969 C 0.32426 0.58934 1.00173 0.0
C970 C 0.34841 0.60914 0.03532 0.0
C971 C 0.38279 0.61525 0.03337 0.0
C972 C 0.39305 0.60142 0.99796 0.0
C973 C 0.46374 0.63467 0.75976 0.0
C974 C 0.4955 0.6601 0.7794 0.0
C975 C 0.4385 0.60677 0.78581 0.0
C976 C 0.44494 0.60384 0.83159 0.0
C977 C 0.47729 0.62833 0.85047 0.0
C978 C 0.50228 0.65611 0.82473 0.0
C979 C 0.41712 0.57729 0.86117 0.0
C980 C 0.40711 0.5894 0.8989 0.0
C981 C 0.39983 0.54083 0.85198 0.0
C982 C 0.41028 0.52639 0.81371 0.0
C983 C 0.44528 0.53409 0.80907 0.0
C984 C 0.45496 0.52045 0.77287 0.0
C985 C 0.42983 0.4989 0.7412 0.0
C986 C 0.39493 0.49086 0.74575 0.0
C987 C 0.38512 0.50444 0.78189 0.0
H988 H 0.43737 0.48836 0.71319 0.0
H989 H 0.34051 0.61981 0.06281 0.0
H990 H 0.80674 0.33342 0.50322 0.0
H991 H 0.80864 0.38326 0.46314 0.0
H992 H 0.82906 0.34644 0.33838 0.0
H993 H 0.82802 0.29751 0.37789 0.0
H994 H 0.86638 0.41658 0.34237 0.0
H995 H 0.74558 0.32507 0.36776 0.0
H996 H 0.69553 0.28454 0.4155 0.0
H997 H 0.70187 0.37226 0.48738 0.0
H998 H 0.75228 0.41333 0.44034 0.0
H999 H 0.80105 0.48697 0.17602 0.0
H1000 H 0.81032 0.44699 0.22446 0.0
H1001 H 0.79288 0.49353 0.34228 0.0
H1002 H 0.78351 0.53313 0.29474 0.0
H1003 H 0.75651 0.42227 0.34643 0.0
H1004 H 0.87422 0.51414 0.31561 0.0
H1005 H 0.92435 0.5542 0.26775 0.0
H1006 H 0.92404 0.46579 0.20591 0.0
H1007 H 0.87352 0.42515 0.25295 0.0
C1008 C 0.81224 0.33637 0.46742 0.0
C1009 C 0.81671 0.31128 0.44364 0.0
C1010 C 0.81317 0.36472 0.44454 0.0
C1011 C 0.81844 0.36819 0.39765 0.0
C1012 C 0.82486 0.34425 0.37449 0.0
C1013 C 0.82398 0.3161 0.39719 0.0
C1014 C 0.81478 0.39498 0.37169 0.0
C1015 C 0.84231 0.41775 0.34306 0.0
C1016 C 0.78356 0.3968 0.37313 0.0
C1017 C 0.75287 0.37223 0.40084 0.0
C1018 C 0.73639 0.3357 0.39389 0.0
C1019 C 0.70797 0.31264 0.4208 0.0
C1020 C 0.69558 0.32582 0.4545 0.0
C1021 C 0.71152 0.3621 0.46127 0.0
C1022 C 0.74 0.38528 0.43448 0.0
C1023 C 0.79922 0.48866 0.21221 0.0
C1024 C 0.79167 0.51332 0.23142 0.0
C1025 C 0.80464 0.46593 0.23983 0.0
C1026 C 0.80249 0.46753 0.28696 0.0
C1027 C 0.79466 0.49189 0.30604 0.0
C1028 C 0.78946 0.51462 0.27865 0.0
C1029 C 0.80796 0.44362 0.31668 0.0
C1030 C 0.78072 0.42137 0.34599 0.0
C1031 C 0.8394 0.44224 0.31575 0.0
C1032 C 0.86985 0.4666 0.28749 0.0
C1033 C 0.88464 0.50322 0.29153 0.0
C1034 C 0.91316 0.52604 0.2646 0.0
C1035 C 0.92732 0.51254 0.23372 0.0
C1036 C 0.91302 0.4762 0.22979 0.0
C1037 C 0.88445 0.45326 0.25661 0.0
H1038 H 0.94941 0.53025 0.21291 0.0
H1039 H 0.67358 0.30792 0.4753 0.0
H1040 H 0.36231 0.85107 0.37719 0.0
H1041 H 0.40865 0.84713 0.41825 0.0
H1042 H 0.36106 0.8492 0.54445 0.0
H1043 H 0.31587 0.85441 0.50418 0.0
H1044 H 0.42961 0.88428 0.55309 0.0
H1045 H 0.34341 0.77093 0.49166 0.0
H1046 H 0.30942 0.73027 0.43013 0.0
H1047 H 0.40523 0.74914 0.36701 0.0
H1048 H 0.4398 0.79033 0.42785 0.0
H1049 H 0.48396 0.79095 0.69992 0.0
H1050 H 0.45074 0.81116 0.65462 0.0
H1051 H 0.5069 0.8109 0.53566 0.0
H1052 H 0.53993 0.79095 0.58008 0.0
H1053 H 0.43839 0.77837 0.51993 0.0
H1054 H 0.52447 0.88786 0.58519 0.0
H1055 H 0.55822 0.92809 0.64712 0.0
H1056 H 0.4629 0.91606 0.70369 0.0
H1057 H 0.42852 0.87533 0.64241 0.0
C1058 C 0.36214 0.85131 0.41366 0.0
C1059 C 0.33509 0.85251 0.43731 0.0
C1060 C 0.38851 0.8489 0.4371 0.0
C1061 C 0.38789 0.84712 0.48446 0.0
C1062 C 0.36207 0.85039 0.50798 0.0
C1063 C 0.33604 0.85314 0.48473 0.0
C1064 C 0.41219 0.83918 0.50985 0.0
C1065 C 0.43142 0.86104 0.54598 0.0
C1066 C 0.41499 0.80914 0.5002 0.0
C1067 C 0.39418 0.78397 0.46402 0.0
C1068 C 0.35722 0.76654 0.46452 0.0
C1069 C 0.33785 0.7434 0.42979 0.0
C1070 C 0.35516 0.73719 0.39463 0.0
C1071 C 0.39186 0.75402 0.39422 0.0
C1072 C 0.41135 0.77726 0.42881 0.0
C1073 C 0.48937 0.79547 0.6642 0.0
C1074 C 0.51436 0.789 0.64366 0.0
C1075 C 0.47049 0.80713 0.63838 0.0
C1076 C 0.4765 0.81268 0.59176 0.0
C1077 C 0.50177 0.80672 0.5715 0.0
C1078 C 0.5206 0.79521 0.59711 0.0
C1079 C 0.45558 0.8233 0.56342 0.0
C1080 C 0.43691 0.80184 0.52679 0.0
C1081 C 0.45327 0.85361 0.57273 0.0
C1082 C 0.47389 0.8783 0.60943 0.0
C1083 C 0.51068 0.89359 0.61102 0.0
C1084 C 0.52993 0.91651 0.64598 0.0
C1085 C 0.5127 0.92456 0.67938 0.0
C1086 C 0.4762 0.90977 0.67781 0.0
C1087 C 0.45682 0.88679 0.64295 0.0
H1088 H 0.52764 0.94231 0.70642 0.0
H1089 H 0.34012 0.71929 0.36775 0.0
H1090 H 0.64905 0.48286 0.16285 0.0
H1091 H 0.59625 0.4358 0.12623 0.0
H1092 H 0.64256 0.47581 0.99585 0.0
H1093 H 0.69458 0.52278 0.03162 0.0
H1094 H 0.57404 0.4554 0.99502 0.0
H1095 H 0.64708 0.40833 0.04479 0.0
H1096 H 0.67942 0.3941 0.101 0.0
H1097 H 0.58374 0.33087 0.17451 0.0
H1098 H 0.5509 0.34514 0.11901 0.0
H1099 H 0.4918 0.30552 0.85037 0.0
H1100 H 0.53175 0.35763 0.8944 0.0
H1101 H 0.47518 0.30623 0.01573 0.0
H1102 H 0.43559 0.25425 0.97245 0.0
H1103 H 0.54384 0.33253 0.02667 0.0
H1104 H 0.46954 0.37428 0.97034 0.0
H1105 H 0.438 0.38849 0.91295 0.0
H1106 H 0.53608 0.46142 0.8504 0.0
H1107 H 0.56821 0.44727 0.90704 0.0
C1108 C 0.64773 0.48182 0.12641 0.0
C1109 C 0.67616 0.50639 0.10026 0.0
C1110 C 0.61763 0.45492 0.10554 0.0
C1111 C 0.61566 0.45216 0.0583 0.0
C1112 C 0.64345 0.47746 0.0323 0.0
C1113 C 0.67334 0.50423 0.05297 0.0
C1114 C 0.58589 0.42191 0.03543 0.0
C1115 C 0.56745 0.42851 1.00178 0.0
C1116 C 0.57695 0.38683 0.04482 0.0
C1117 C 0.59664 0.37815 0.07809 0.0
C1118 C 0.633 0.39162 0.07315 0.0
C1119 C 0.65141 0.38352 0.10483 0.0
C1120 C 0.63367 0.36169 0.14139 0.0
C1121 C 0.59746 0.34784 0.14624 0.0
C1122 C 0.57894 0.35593 0.11468 0.0
C1123 C 0.48764 0.3055 0.88633 0.0
C1124 C 0.46067 0.27561 0.90786 0.0
C1125 C 0.51039 0.33534 0.91143 0.0
C1126 C 0.50634 0.33583 0.95836 0.0
C1127 C 0.47885 0.30639 0.97962 0.0
C1128 C 0.45622 0.27666 0.95469 0.0
C1129 C 0.5321 0.36595 0.98585 0.0
C1130 C 0.54993 0.35932 0.02029 0.0
C1131 C 0.54052 0.40096 0.97698 0.0
C1132 C 0.52127 0.40945 0.94273 0.0
C1133 C 0.48438 0.39311 0.94412 0.0
C1134 C 0.46639 0.4012 0.91176 0.0
C1135 C 0.48501 0.42577 0.87798 0.0
C1136 C 0.52168 0.44236 0.87655 0.0
C1137 C 0.5398 0.43433 0.9088 0.0
H1138 H 0.47104 0.43202 0.85298 0.0
H1139 H 0.64797 0.35544 0.16588 0.0
loop_
_geom_bond_atom_site_label_1
_geom_bond_atom_site_label_2
_geom_bond_distance
_geom_bond_site_symmetry_2
_ccdc_geom_bond_type
Tb0 C10 2.825 . S
Tb0 O11 2.347 . S
Tb0 O14 2.366 . S
Tb0 O19 2.418 . S
Tb0 O20 2.388 . S
Tb0 O23 2.479 . S
Tb0 O24 2.471 . S
Eu1 O12 2.418 . S
Eu1 O13 2.384 1_556 S
Eu1 O16 2.479 . S
Eu1 O17 2.471 . S
Eu1 O18 2.347 . S
Eu1 O21 2.366 . S
Eu1 C31 2.825 . S
C2 O18 1.259 1_554 S
C2 O19 1.265 . S
C3 O20 1.251 1_556 S
C3 O21 1.265 . S
C4 C6 1.380 . S
C4 C7 1.374 . S
C4 C10 1.507 . S
C5 C6 1.384 . S
C5 C9 1.387 . S
C5 H32 0.930 . S
C6 C4 1.380 . S
C6 C5 1.384 . S
C6 H33 0.931 . S
C7 C4 1.374 . S
C7 C8 1.390 . S
C7 H34 0.930 . S
C8 C7 1.390 . S
C8 C9 1.391 . S
C8 H35 0.930 . S
C9 C5 1.387 . S
C9 C8 1.391 . S
C10 Tb0 2.825 . S
C10 C4 1.507 . S
C10 O23 1.238 . S
C10 O24 1.247 . S
O11 Tb0 2.347 . S
O11 C15 1.259 . S
O12 Eu1 2.418 . S
O12 C15 1.265 1_556 S
O13 Eu1 2.384 1_554 S
O13 C22 1.255 . S
O14 Tb0 2.366 . S
O14 C22 1.265 . S
C15 O11 1.259 . S
C15 O12 1.265 1_554 S
O16 Eu1 2.479 . S
O16 C31 1.238 . S
O17 Eu1 2.471 . S
O17 C31 1.247 . S
O18 Eu1 2.347 . S
O18 C2 1.259 1_556 S
O19 Tb0 2.418 . S
O19 C2 1.265 . S
O20 Tb0 2.388 . S
O20 C3 1.251 1_554 S
O21 Eu1 2.366 . S
O21 C3 1.265 . S
C22 O13 1.255 . S
C22 O14 1.265 . S
O23 Tb0 2.479 . S
O23 C10 1.238 . S
O24 Tb0 2.471 . S
O24 C10 1.247 . S
C25 C28 1.380 . S
C25 C29 1.374 . S
C25 C31 1.507 . S
C26 C27 1.387 . S
C26 C30 1.391 . S
C27 C26 1.387 . S
C27 C28 1.384 . S
C27 H36 0.930 . S
C28 C25 1.380 . S
C28 C27 1.384 . S
C28 H37 0.931 . S
C29 C25 1.374 . S
C29 C30 1.390 . S
C29 H38 0.930 . S
C30 C26 1.391 . S
C30 C29 1.390 . S
C30 H39 0.930 . S
C31 Eu1 2.825 . S
C31 O16 1.238 . S
C31 O17 1.247 . S
C31 C25 1.507 . S
H32 C5 0.930 . S
H33 C6 0.931 . S
H34 C7 0.930 . S
H35 C8 0.930 . S
H36 C27 0.930 . S
H37 C28 0.931 . S
H38 C29 0.930 . S
H39 C30 0.930 . S
Tb40 C50 2.825 . S
Tb40 O51 2.347 . S
Tb40 O54 2.366 . S
Tb40 O59 2.418 . S
Tb40 O60 2.384 . S
Tb40 O63 2.479 . S
Tb40 O64 2.471 . S
Eu41 O52 2.418 . S
Eu41 O53 2.384 . S
Eu41 O56 2.479 . S
Eu41 O57 2.471 . S
Eu41 O58 2.347 . S
Eu41 O61 2.366 . S
Eu41 C71 2.825 . S
C42 O58 1.259 . S
C42 O59 1.265 . S
C43 O60 1.255 . S
C43 O61 1.265 . S
C44 C46 1.380 . S
C44 C47 1.374 . S
C44 C50 1.507 . S
C45 C46 1.384 . S
C45 C49 1.387 . S
C45 H72 0.930 . S
C46 C44 1.380 . S
C46 C45 1.384 . S
C46 H73 0.931 . S
C47 C44 1.374 . S
C47 C48 1.390 . S
C47 H74 0.930 . S
C48 C47 1.390 . S
C48 C49 1.391 . S
C48 H75 0.930 . S
C49 C45 1.387 . S
C49 C48 1.391 . S
C50 Tb40 2.825 . S
C50 C44 1.507 . S
C50 O63 1.238 . S
C50 O64 1.247 . S
O51 Tb40 2.347 . S
O51 C55 1.259 . S
O52 Eu41 2.418 . S
O52 C55 1.265 . S
O53 Eu41 2.384 . S
O53 C62 1.255 . S
O54 Tb40 2.366 . S
O54 C62 1.265 . S
C55 O51 1.259 . S
C55 O52 1.265 . S
O56 Eu41 2.479 . S
O56 C71 1.238 . S
O57 Eu41 2.471 . S
O57 C71 1.247 . S
O58 Eu41 2.347 . S
O58 C42 1.259 . S
O59 Tb40 2.418 . S
O59 C42 1.265 . S
O60 Tb40 2.384 . S
O60 C43 1.255 . S
O61 Eu41 2.366 . S
O61 C43 1.265 . S
C62 O53 1.255 . S
C62 O54 1.265 . S
O63 Tb40 2.479 . S
O63 C50 1.238 . S
O64 Tb40 2.471 . S
O64 C50 1.247 . S
C65 C68 1.380 . S
C65 C69 1.374 . S
C65 C71 1.507 . S
C66 C67 1.387 . S
C66 C70 1.391 . S
C67 C66 1.387 . S
C67 C68 1.384 . S
C67 H76 0.930 . S
C68 C65 1.380 . S
C68 C67 1.384 . S
C68 H77 0.931 . S
C69 C65 1.374 . S
C69 C70 1.390 . S
C69 H78 0.930 . S
C70 C66 1.391 . S
C70 C69 1.390 . S
C70 H79 0.930 . S
C71 Eu41 2.825 . S
C71 O56 1.238 . S
C71 O57 1.247 . S
C71 C65 1.507 . S
H72 C45 0.930 . S
H73 C46 0.931 . S
H74 C47 0.930 . S
H75 C48 0.930 . S
H76 C67 0.930 . S
H77 C68 0.931 . S
H78 C69 0.930 . S
H79 C70 0.930 . S
Tb80 C90 2.825 . S
Tb80 O91 2.347 . S
Tb80 O94 2.366 . S
Tb80 O99 2.418 . S
Tb80 O100 2.384 . S
Tb80 O103 2.479 . S
Tb80 O104 2.471 . S
Eu81 O92 2.418 . S
Eu81 O93 2.384 . S
Eu81 O96 2.479 . S
Eu81 O97 2.471 . S
Eu81 O98 2.347 . S
Eu81 O101 2.366 . S
Eu81 C111 2.825 . S
C82 O98 1.259 . S
C82 O99 1.265 . S
C83 O100 1.255 . S
C83 O101 1.265 . S
C84 C86 1.380 . S
C84 C87 1.374 . S
C84 C90 1.507 . S
C85 C86 1.384 . S
C85 C89 1.387 . S
C85 H112 0.930 . S
C86 C84 1.380 . S
C86 C85 1.384 . S
C86 H113 0.931 . S
C87 C84 1.374 . S
C87 C88 1.390 . S
C87 H114 0.930 . S
C88 C87 1.390 . S
C88 C89 1.391 . S
C88 H115 0.930 . S
C89 C85 1.387 . S
C89 C88 1.391 . S
C90 Tb80 2.825 . S
C90 C84 1.507 . S
C90 O103 1.238 . S
C90 O104 1.247 . S
O91 Tb80 2.347 . S
O91 C95 1.259 . S
O92 Eu81 2.418 . S
O92 C95 1.265 . S
O93 Eu81 2.384 . S
O93 C102 1.255 . S
O94 Tb80 2.366 . S
O94 C102 1.265 . S
C95 O91 1.259 . S
C95 O92 1.265 . S
O96 Eu81 2.479 . S
O96 C111 1.238 . S
O97 Eu81 2.471 . S
O97 C111 1.247 . S
O98 Eu81 2.347 . S
O98 C82 1.259 . S
O99 Tb80 2.418 . S
O99 C82 1.265 . S
O100 Tb80 2.384 . S
O100 C83 1.255 . S
O101 Eu81 2.366 . S
O101 C83 1.265 . S
C102 O93 1.255 . S
C102 O94 1.265 . S
O103 Tb80 2.479 . S
O103 C90 1.238 . S
O104 Tb80 2.471 . S
O104 C90 1.247 . S
C105 C108 1.380 . S
C105 C109 1.374 . S
C105 C111 1.507 . S
C106 C107 1.387 . S
C106 C110 1.391 . S
C107 C106 1.387 . S
C107 C108 1.384 . S
C107 H116 0.930 . S
C108 C105 1.380 . S
C108 C107 1.384 . S
C108 H117 0.931 . S
C109 C105 1.374 . S
C109 C110 1.390 . S
C109 H118 0.930 . S
C110 C106 1.391 . S
C110 C109 1.390 . S
C110 H119 0.930 . S
C111 Eu81 2.825 . S
C111 O96 1.238 . S
C111 O97 1.247 . S
C111 C105 1.507 . S
H112 C85 0.930 . S
H113 C86 0.931 . S
H114 C87 0.930 . S
H115 C88 0.930 . S
H116 C107 0.930 . S
H117 C108 0.931 . S
H118 C109 0.930 . S
H119 C110 0.930 . S
Tb120 C130 2.825 . S
Tb120 O131 2.347 . S
Tb120 O134 2.366 . S
Tb120 O139 2.418 . S
Tb120 O140 2.384 . S
Tb120 O143 2.479 . S
Tb120 O144 2.471 . S
Eu121 O132 2.418 . S
Eu121 O133 2.384 . S
Eu121 O136 2.479 . S
Eu121 O137 2.471 . S
Eu121 O138 2.347 . S
Eu121 O141 2.366 . S
Eu121 C151 2.825 . S
C122 O138 1.259 . S
C122 O139 1.265 . S
C123 O140 1.255 . S
C123 O141 1.265 . S
C124 C126 1.380 . S
C124 C127 1.374 . S
C124 C130 1.507 1_556 S
C125 C126 1.384 . S
C125 C129 1.387 . S
C125 H152 0.930 . S
C126 C124 1.380 . S
C126 C125 1.384 . S
C126 H153 0.931 . S
C127 C124 1.374 . S
C127 C128 1.390 . S
C127 H154 0.930 . S
C128 C127 1.390 . S
C128 C129 1.391 . S
C128 H155 0.930 . S
C129 C125 1.387 . S
C129 C128 1.391 . S
C130 Tb120 2.825 . S
C130 C124 1.507 1_554 S
C130 O143 1.238 . S
C130 O144 1.247 . S
O131 Tb120 2.347 . S
O131 C135 1.259 . S
O132 Eu121 2.418 . S
O132 C135 1.265 . S
O133 Eu121 2.384 . S
O133 C142 1.255 . S
O134 Tb120 2.366 . S
O134 C142 1.265 . S
C135 O131 1.259 . S
C135 O132 1.265 . S
O136 Eu121 2.479 . S
O136 C151 1.238 . S
O137 Eu121 2.471 . S
O137 C151 1.247 . S
O138 Eu121 2.347 . S
O138 C122 1.259 . S
O139 Tb120 2.418 . S
O139 C122 1.265 . S
O140 Tb120 2.384 . S
O140 C123 1.255 . S
O141 Eu121 2.366 . S
O141 C123 1.265 . S
C142 O133 1.255 . S
C142 O134 1.265 . S
O143 Tb120 2.479 . S
O143 C130 1.238 . S
O144 Tb120 2.471 . S
O144 C130 1.247 . S
C145 C148 1.380 . S
C145 C149 1.374 . S
C145 C151 1.507 . S
C146 C147 1.387 . S
C146 C150 1.391 . S
C147 C146 1.387 . S
C147 C148 1.384 . S
C147 H156 0.930 . S
C148 C145 1.380 . S
C148 C147 1.384 . S
C148 H157 0.931 . S
C149 C145 1.374 . S
C149 C150 1.390 . S
C149 H158 0.930 . S
C150 C146 1.391 . S
C150 C149 1.390 . S
C150 H159 0.930 . S
C151 Eu121 2.825 . S
C151 O136 1.238 . S
C151 O137 1.247 . S
C151 C145 1.507 . S
H152 C125 0.930 . S
H153 C126 0.931 . S
H154 C127 0.930 . S
H155 C128 0.930 . S
H156 C147 0.930 . S
H157 C148 0.931 . S
H158 C149 0.930 . S
H159 C150 0.930 . S
Tb160 C170 2.825 . S
Tb160 O171 2.347 . S
Tb160 O174 2.366 . S
Tb160 O179 2.418 . S
Tb160 O180 2.384 . S
Tb160 O183 2.479 . S
Tb160 O184 2.471 . S
Eu161 O172 2.418 . S
Eu161 O173 2.384 . S
Eu161 O176 2.479 . S
Eu161 O177 2.471 . S
Eu161 O178 2.347 . S
Eu161 O181 2.366 . S
Eu161 C191 2.825 . S
C162 O178 1.259 . S
C162 O179 1.265 . S
C163 O180 1.255 . S
C163 O181 1.265 . S
C164 C166 1.380 . S
C164 C167 1.374 . S
C164 C170 1.507 . S
C165 C166 1.384 . S
C165 C169 1.387 . S
C165 H192 0.930 . S
C166 C164 1.380 . S
C166 C165 1.384 . S
C166 H193 0.931 . S
C167 C164 1.374 . S
C167 C168 1.390 . S
C167 H194 0.930 . S
C168 C167 1.390 . S
C168 C169 1.391 . S
C168 H195 0.930 . S
C169 C165 1.387 . S
C169 C168 1.391 . S
C170 Tb160 2.825 . S
C170 C164 1.507 . S
C170 O183 1.238 . S
C170 O184 1.247 . S
O171 Tb160 2.347 . S
O171 C175 1.259 . S
O172 Eu161 2.418 . S
O172 C175 1.265 . S
O173 Eu161 2.384 . S
O173 C182 1.255 . S
O174 Tb160 2.366 . S
O174 C182 1.265 . S
C175 O171 1.259 . S
C175 O172 1.265 . S
O176 Eu161 2.479 . S
O176 C191 1.238 . S
O177 Eu161 2.471 . S
O177 C191 1.247 . S
O178 Eu161 2.347 . S
O178 C162 1.259 . S
O179 Tb160 2.418 . S
O179 C162 1.265 . S
O180 Tb160 2.384 . S
O180 C163 1.255 . S
O181 Eu161 2.366 . S
O181 C163 1.265 . S
C182 O173 1.255 . S
C182 O174 1.265 . S
O183 Tb160 2.479 . S
O183 C170 1.238 . S
O184 Tb160 2.471 . S
O184 C170 1.247 . S
C185 C188 1.380 . S
C185 C189 1.374 . S
C185 C191 1.507 . S
C186 C187 1.387 . S
C186 C190 1.391 . S
C187 C186 1.387 . S
C187 C188 1.384 . S
C187 H196 0.930 . S
C188 C185 1.380 . S
C188 C187 1.384 . S
C188 H197 0.931 . S
C189 C185 1.374 . S
C189 C190 1.390 . S
C189 H198 0.930 . S
C190 C186 1.391 . S
C190 C189 1.390 . S
C190 H199 0.930 . S
C191 Eu161 2.825 . S
C191 O176 1.238 . S
C191 O177 1.247 . S
C191 C185 1.507 . S
H192 C165 0.930 . S
H193 C166 0.931 . S
H194 C167 0.930 . S
H195 C168 0.930 . S
H196 C187 0.930 . S
H197 C188 0.931 . S
H198 C189 0.930 . S
H199 C190 0.930 . S
Tb200 C210 2.825 . S
Tb200 O211 2.347 . S
Tb200 O214 2.366 . S
Tb200 O219 2.418 . S
Tb200 O220 2.384 . S
Tb200 O223 2.479 . S
Tb200 O224 2.471 . S
Eu201 O212 2.418 . S
Eu201 O213 2.384 . S
Eu201 O216 2.479 . S
Eu201 O217 2.471 . S
Eu201 O218 2.347 . S
Eu201 O221 2.366 . S
Eu201 C231 2.825 . S
C202 O218 1.259 . S
C202 O219 1.265 . S
C203 O220 1.255 . S
C203 O221 1.265 . S
C204 C206 1.380 . S
C204 C207 1.374 . S
C204 C210 1.507 . S
C205 C206 1.384 . S
C205 C209 1.387 . S
C205 H232 0.930 . S
C206 C204 1.380 . S
C206 C205 1.384 . S
C206 H233 0.931 . S
C207 C204 1.374 . S
C207 C208 1.390 . S
C207 H234 0.930 . S
C208 C207 1.390 . S
C208 C209 1.391 . S
C208 H235 0.930 . S
C209 C205 1.387 . S
C209 C208 1.391 . S
C210 Tb200 2.825 . S
C210 C204 1.507 . S
C210 O223 1.238 . S
C210 O224 1.247 . S
O211 Tb200 2.347 . S
O211 C215 1.259 . S
O212 Eu201 2.418 . S
O212 C215 1.265 . S
O213 Eu201 2.384 . S
O213 C222 1.255 . S
O214 Tb200 2.366 . S
O214 C222 1.265 . S
C215 O211 1.259 . S
C215 O212 1.265 . S
O216 Eu201 2.479 . S
O216 C231 1.238 . S
O217 Eu201 2.471 . S
O217 C231 1.247 . S
O218 Eu201 2.347 . S
O218 C202 1.259 . S
O219 Tb200 2.418 . S
O219 C202 1.265 . S
O220 Tb200 2.384 . S
O220 C203 1.255 . S
O221 Eu201 2.366 . S
O221 C203 1.265 . S
C222 O213 1.255 . S
C222 O214 1.265 . S
O223 Tb200 2.479 . S
O223 C210 1.238 . S
O224 Tb200 2.471 . S
O224 C210 1.247 . S
C225 C228 1.380 . S
C225 C229 1.374 . S
C225 C231 1.507 1_554 S
C226 C227 1.387 . S
C226 C230 1.391 . S
C227 C226 1.387 . S
C227 C228 1.384 . S
C227 H236 0.930 . S
C228 C225 1.380 . S
C228 C227 1.384 . S
C228 H237 0.931 . S
C229 C225 1.374 . S
C229 C230 1.390 . S
C229 H238 0.930 . S
C230 C226 1.391 . S
C230 C229 1.390 . S
C230 H239 0.930 . S
C231 Eu201 2.825 . S
C231 O216 1.238 . S
C231 O217 1.247 . S
C231 C225 1.507 1_556 S
H232 C205 0.930 . S
H233 C206 0.931 . S
H234 C207 0.930 . S
H235 C208 0.930 . S
H236 C227 0.930 . S
H237 C228 0.931 . S
H238 C229 0.930 . S
H239 C230 0.930 . S
H240 C258 0.951 . S
H241 C260 0.951 . S
H242 C262 0.950 . S
H243 C263 0.950 . S
H244 C265 0.950 . S
H245 C268 0.950 . S
H246 C269 0.950 . S
H247 C271 0.950 . S
H248 C272 0.950 . S
H249 C273 0.951 . S
H250 C275 0.951 . S
H251 C277 0.950 . S
H252 C278 0.936 1_554 S
H253 C280 0.950 . S
H254 C283 0.950 . S
H255 C284 0.950 . S
H256 C286 0.950 . S
H257 C287 0.950 . S
C258 H240 0.951 . S
C258 C259 1.366 . S
C258 C260 1.388 . S
C259 C258 1.366 . S
C259 C263 1.385 . S
C260 H241 0.951 . S
C260 C258 1.388 . S
C260 C261 1.366 . S
C261 C260 1.366 . S
C261 C262 1.414 . S
C261 C264 1.499 . S
C262 H242 0.950 . S
C262 C261 1.414 . S
C262 C263 1.374 . S
C263 H243 0.950 . S
C263 C259 1.385 . S
C263 C262 1.374 . S
C264 C261 1.499 . S
C264 C265 1.373 . S
C264 C266 1.389 . S
C265 H244 0.950 . S
C265 C264 1.373 . S
C265 C281 1.377 . S
C266 C264 1.389 . S
C266 C267 1.524 . S
C266 C280 1.377 . S
C267 C266 1.524 . S
C267 C268 1.397 . S
C267 C272 1.363 . S
C268 H245 0.950 . S
C268 C267 1.397 . S
C268 C269 1.334 . S
C269 H246 0.950 . S
C269 C268 1.334 . S
C269 C270 1.287 . S
C270 C269 1.287 . S
C270 C271 1.524 . S
C270 H289 0.913 . S
C271 H247 0.950 . S
C271 C270 1.524 . S
C271 C272 1.415 . S
C272 H248 0.950 . S
C272 C267 1.363 . S
C272 C271 1.415 . S
C273 H249 0.951 . S
C273 C274 1.366 . S
C273 C275 1.388 . S
C274 C273 1.366 . S
C274 C278 1.393 . S
C275 H250 0.951 . S
C275 C273 1.388 . S
C275 C276 1.366 . S
C276 C275 1.366 . S
C276 C277 1.414 . S
C276 C279 1.499 . S
C277 H251 0.950 . S
C277 C276 1.414 . S
C277 C278 1.380 . S
C278 H252 0.936 1_556 S
C278 C274 1.393 . S
C278 C277 1.380 . S
C279 C276 1.499 . S
C279 C280 1.373 . S
C279 C281 1.389 . S
C280 H253 0.950 . S
C280 C266 1.377 . S
C280 C279 1.373 . S
C281 C265 1.377 . S
C281 C279 1.389 . S
C281 C282 1.524 . S
C282 C281 1.524 . S
C282 C283 1.397 1_556 S
C282 C287 1.363 . S
C283 H254 0.950 . S
C283 C282 1.397 1_554 S
C283 C284 1.334 . S
C284 H255 0.950 . S
C284 C283 1.334 . S
C284 C285 1.287 . S
C285 C284 1.287 . S
C285 C286 1.524 1_554 S
C285 H288 0.999 . S
C286 H256 0.950 . S
C286 C285 1.524 1_556 S
C286 C287 1.415 . S
C287 H257 0.950 . S
C287 C282 1.363 . S
C287 C286 1.415 . S
H288 C285 0.999 . S
H289 C270 0.913 . S
H290 C308 0.951 . S
H291 C310 0.951 . S
H292 C312 0.950 . S
H293 C313 0.950 . S
H294 C315 0.950 . S
H295 C318 0.950 . S
H296 C319 0.950 . S
H297 C321 0.950 . S
H298 C322 0.950 . S
H299 C323 0.951 . S
H300 C325 0.951 . S
H301 C327 0.950 . S
H302 C328 0.950 . S
H303 C330 0.950 . S
H304 C333 0.950 . S
H305 C334 0.950 . S
H306 C336 0.950 . S
H307 C337 0.950 . S
C308 H290 0.951 . S
C308 C309 1.366 . S
C308 C310 1.388 . S
C309 C308 1.366 . S
C309 C313 1.385 . S
C310 H291 0.951 . S
C310 C308 1.388 . S
C310 C311 1.366 . S
C311 C310 1.366 . S
C311 C312 1.414 . S
C311 C314 1.499 . S
C312 H292 0.950 . S
C312 C311 1.414 . S
C312 C313 1.374 . S
C313 H293 0.950 . S
C313 C309 1.385 . S
C313 C312 1.374 . S
C314 C311 1.499 . S
C314 C315 1.373 1_455 S
C314 C316 1.389 . S
C315 H294 0.950 . S
C315 C314 1.373 1_655 S
C315 C331 1.377 . S
C316 C314 1.389 . S
C316 C317 1.524 . S
C316 C330 1.377 . S
C317 C316 1.524 . S
C317 C318 1.397 . S
C317 C322 1.363 . S
C318 H295 0.950 . S
C318 C317 1.397 . S
C318 C319 1.334 . S
C319 H296 0.950 . S
C319 C318 1.334 . S
C319 C320 1.287 . S
C320 C319 1.287 . S
C320 C321 1.524 . S
C320 H339 0.913 . S
C321 H297 0.950 . S
C321 C320 1.524 . S
C321 C322 1.415 . S
C322 H298 0.950 . S
C322 C317 1.363 . S
C322 C321 1.415 . S
C323 H299 0.951 . S
C323 C324 1.366 . S
C323 C325 1.388 . S
C324 C323 1.366 . S
C324 C328 1.385 . S
C325 H300 0.951 . S
C325 C323 1.388 . S
C325 C326 1.366 . S
C326 C325 1.366 . S
C326 C327 1.414 . S
C326 C329 1.499 . S
C327 H301 0.950 . S
C327 C326 1.414 . S
C327 C328 1.374 . S
C328 H302 0.950 . S
C328 C324 1.385 . S
C328 C327 1.374 . S
C329 C326 1.499 . S
C329 C330 1.373 1_655 S
C329 C331 1.389 . S
C330 H303 0.950 . S
C330 C316 1.377 . S
C330 C329 1.373 1_455 S
C331 C315 1.377 . S
C331 C329 1.389 . S
C331 C332 1.524 . S
C332 C331 1.524 . S
C332 C333 1.397 . S
C332 C337 1.363 . S
C333 H304 0.950 . S
C333 C332 1.397 . S
C333 C334 1.334 . S
C334 H305 0.950 . S
C334 C333 1.334 . S
C334 C335 1.287 . S
C335 C334 1.287 . S
C335 C336 1.524 . S
C335 H338 0.999 . S
C336 H306 0.950 . S
C336 C335 1.524 . S
C336 C337 1.415 . S
C337 H307 0.950 . S
C337 C332 1.363 . S
C337 C336 1.415 . S
H338 C335 0.999 . S
H339 C320 0.913 . S
H340 C358 0.951 . S
H341 C360 0.951 . S
H342 C362 0.950 . S
H343 C363 0.950 . S
H344 C365 0.950 . S
H345 C368 0.950 . S
H346 C369 0.950 . S
H347 C371 0.950 . S
H348 C372 0.950 . S
H349 C373 0.951 . S
H350 C375 0.951 . S
H351 C377 0.950 . S
H352 C378 0.950 . S
H353 C380 0.950 . S
H354 C383 0.950 . S
H355 C384 0.950 . S
H356 C386 0.950 . S
H357 C387 0.950 . S
C358 H340 0.951 . S
C358 C359 1.366 . S
C358 C360 1.388 . S
C359 C358 1.366 . S
C359 C363 1.385 . S
C360 H341 0.951 . S
C360 C358 1.388 . S
C360 C361 1.366 . S
C361 C360 1.366 . S
C361 C362 1.414 . S
C361 C364 1.499 . S
C362 H342 0.950 . S
C362 C361 1.414 . S
C362 C363 1.374 . S
C363 H343 0.950 . S
C363 C359 1.385 . S
C363 C362 1.374 . S
C364 C361 1.499 . S
C364 C365 1.373 . S
C364 C366 1.389 . S
C365 H344 0.950 . S
C365 C364 1.373 . S
C365 C381 1.377 1_545 S
C366 C364 1.389 . S
C366 C367 1.524 . S
C366 C380 1.377 1_545 S
C367 C366 1.524 . S
C367 C368 1.397 . S
C367 C372 1.363 . S
C368 H345 0.950 . S
C368 C367 1.397 . S
C368 C369 1.334 . S
C369 H346 0.950 . S
C369 C368 1.334 . S
C369 C370 1.287 . S
C370 C369 1.287 . S
C370 C371 1.524 . S
C370 H389 0.913 . S
C371 H347 0.950 . S
C371 C370 1.524 . S
C371 C372 1.415 . S
C372 H348 0.950 . S
C372 C367 1.363 . S
C372 C371 1.415 . S
C373 H349 0.951 . S
C373 C374 1.366 . S
C373 C375 1.388 . S
C374 C373 1.366 . S
C374 C378 1.385 . S
C375 H350 0.951 . S
C375 C373 1.388 . S
C375 C376 1.366 . S
C376 C375 1.366 . S
C376 C377 1.414 . S
C376 C379 1.499 . S
C377 H351 0.950 . S
C377 C376 1.414 . S
C377 C378 1.374 . S
C378 H352 0.950 . S
C378 C374 1.385 . S
C378 C377 1.374 . S
C379 C376 1.499 . S
C379 C380 1.373 . S
C379 C381 1.389 . S
C380 H353 0.950 . S
C380 C366 1.377 1_565 S
C380 C379 1.373 . S
C381 C365 1.377 1_565 S
C381 C379 1.389 . S
C381 C382 1.524 . S
C382 C381 1.524 . S
C382 C383 1.397 . S
C382 C387 1.363 . S
C383 H354 0.950 . S
C383 C382 1.397 . S
C383 C384 1.334 . S
C384 H355 0.950 . S
C384 C383 1.334 . S
C384 C385 1.287 . S
C385 C384 1.287 . S
C385 C386 1.524 . S
C385 H388 0.999 . S
C386 H356 0.950 . S
C386 C385 1.524 . S
C386 C387 1.415 . S
C387 H357 0.950 . S
C387 C382 1.363 . S
C387 C386 1.415 . S
H388 C385 0.999 . S
H389 C370 0.913 . S
H390 C408 0.951 . S
H391 C410 0.951 . S
H392 C412 0.950 . S
H393 C413 0.950 . S
H394 C415 0.950 . S
H395 C418 0.950 . S
H396 C419 0.950 . S
H397 C421 0.942 1_554 S
H398 C422 0.950 . S
H399 C423 0.951 . S
H400 C425 0.951 1_556 S
H401 C427 0.950 . S
H402 C428 0.950 . S
H403 C430 0.950 1_554 S
H404 C433 0.950 . S
H405 C434 0.950 . S
H406 C436 0.950 . S
H407 C437 0.950 . S
C408 H390 0.951 . S
C408 C409 1.366 . S
C408 C410 1.388 . S
C409 C408 1.366 . S
C409 C413 1.385 . S
C410 H391 0.951 . S
C410 C408 1.388 . S
C410 C411 1.366 . S
C411 C410 1.366 . S
C411 C412 1.414 . S
C411 C414 1.499 . S
C412 H392 0.950 . S
C412 C411 1.414 . S
C412 C413 1.374 . S
C413 H393 0.950 . S
C413 C409 1.385 . S
C413 C412 1.374 . S
C414 C411 1.499 . S
C414 C415 1.373 . S
C414 C416 1.389 . S
C415 H394 0.950 . S
C415 C414 1.373 . S
C415 C431 1.377 . S
C416 C414 1.389 . S
C416 C417 1.524 . S
C416 C430 1.377 . S
C417 C416 1.524 . S
C417 C418 1.397 . S
C417 C422 1.363 . S
C418 H395 0.950 . S
C418 C417 1.397 . S
C418 C419 1.334 . S
C419 H396 0.950 . S
C419 C418 1.334 . S
C419 C420 1.287 . S
C420 C419 1.287 . S
C420 C421 1.524 . S
C420 H439 0.913 . S
C421 H397 0.942 1_556 S
C421 C420 1.524 . S
C421 C422 1.415 . S
C422 H398 0.950 . S
C422 C417 1.363 . S
C422 C421 1.415 . S
C423 H399 0.951 . S
C423 C424 1.366 . S
C423 C425 1.388 . S
C424 C423 1.366 . S
C424 C428 1.385 . S
C425 H400 0.951 1_554 S
C425 C423 1.388 . S
C425 C426 1.366 . S
C426 C425 1.366 . S
C426 C427 1.414 . S
C426 C429 1.499 1_554 S
C427 H401 0.950 . S
C427 C426 1.414 . S
C427 C428 1.374 . S
C428 H402 0.950 . S
C428 C424 1.385 . S
C428 C427 1.374 . S
C429 C426 1.499 1_556 S
C429 C430 1.373 . S
C429 C431 1.389 . S
C430 H403 0.950 1_556 S
C430 C416 1.377 . S
C430 C429 1.373 . S
C431 C415 1.377 . S
C431 C429 1.389 . S
C431 C432 1.524 . S
C432 C431 1.524 . S
C432 C433 1.397 . S
C432 C437 1.363 . S
C433 H404 0.950 . S
C433 C432 1.397 . S
C433 C434 1.334 . S
C434 H405 0.950 . S
C434 C433 1.334 . S
C434 C435 1.287 . S
C435 C434 1.287 . S
C435 C436 1.524 . S
C435 H438 0.999 . S
C436 H406 0.950 . S
C436 C435 1.524 . S
C436 C437 1.415 . S
C437 H407 0.950 . S
C437 C432 1.363 . S
C437 C436 1.415 . S
H438 C435 0.999 . S
H439 C420 0.913 . S
H440 C458 0.951 . S
H441 C460 0.951 . S
H442 C462 0.950 . S
H443 C463 0.950 . S
H444 C465 0.950 . S
H445 C468 0.950 . S
H446 C469 0.950 . S
H447 C471 0.950 . S
H448 C472 0.950 . S
H449 C473 0.951 . S
H450 C475 0.951 . S
H451 C477 0.950 . S
H452 C478 0.950 . S
H453 C480 0.950 . S
H454 C483 0.950 . S
H455 C484 0.950 . S
H456 C486 0.950 . S
H457 C487 0.950 . S
C458 H440 0.951 . S
C458 C459 1.366 . S
C458 C460 1.388 . S
C459 C458 1.366 . S
C459 C463 1.385 . S
C460 H441 0.951 . S
C460 C458 1.388 . S
C460 C461 1.366 . S
C461 C460 1.366 . S
C461 C462 1.414 . S
C461 C464 1.499 . S
C462 H442 0.950 . S
C462 C461 1.414 . S
C462 C463 1.374 . S
C463 H443 0.950 . S
C463 C459 1.385 . S
C463 C462 1.374 . S
C464 C461 1.499 . S
C464 C465 1.373 . S
C464 C466 1.389 . S
C465 H444 0.950 . S
C465 C464 1.373 . S
C465 C481 1.377 1_455 S
C466 C464 1.389 . S
C466 C467 1.524 . S
C466 C480 1.377 1_455 S
C467 C466 1.524 . S
C467 C468 1.397 . S
C467 C472 1.363 . S
C468 H445 0.950 . S
C468 C467 1.397 . S
C468 C469 1.334 . S
C469 H446 0.950 . S
C469 C468 1.334 . S
C469 C470 1.287 . S
C470 C469 1.287 . S
C470 C471 1.524 . S
C470 H489 0.913 . S
C471 H447 0.950 . S
C471 C470 1.524 . S
C471 C472 1.415 . S
C472 H448 0.950 . S
C472 C467 1.363 . S
C472 C471 1.415 . S
C473 H449 0.951 . S
C473 C474 1.366 . S
C473 C475 1.388 . S
C474 C473 1.366 . S
C474 C478 1.385 . S
C475 H450 0.951 . S
C475 C473 1.388 . S
C475 C476 1.366 . S
C476 C475 1.366 . S
C476 C477 1.414 . S
C476 C479 1.499 . S
C477 H451 0.950 . S
C477 C476 1.414 . S
C477 C478 1.374 . S
C478 H452 0.950 . S
C478 C474 1.385 . S
C478 C477 1.374 . S
C479 C476 1.499 . S
C479 C480 1.373 . S
C479 C481 1.389 . S
C480 H453 0.950 . S
C480 C466 1.377 1_655 S
C480 C479 1.373 . S
C481 C465 1.377 1_655 S
C481 C479 1.389 . S
C481 C482 1.524 . S
C482 C481 1.524 . S
C482 C483 1.397 . S
C482 C487 1.363 . S
C483 H454 0.950 . S
C483 C482 1.397 . S
C483 C484 1.334 . S
C484 H455 0.950 . S
C484 C483 1.334 . S
C484 C485 1.287 . S
C485 C484 1.287 . S
C485 C486 1.524 . S
C485 H488 0.999 . S
C486 H456 0.950 . S
C486 C485 1.524 . S
C486 C487 1.415 . S
C487 H457 0.950 . S
C487 C482 1.363 . S
C487 C486 1.415 . S
H488 C485 0.999 . S
H489 C470 0.913 . S
H490 C508 0.951 . S
H491 C510 0.951 . S
H492 C512 0.950 . S
H493 C513 0.950 . S
H494 C515 0.937 . S
H495 C518 0.950 . S
H496 C519 0.950 . S
H497 C521 0.950 . S
H498 C522 0.950 . S
H499 C523 0.951 . S
H500 C525 0.951 . S
H501 C527 0.950 . S
H502 C528 0.950 . S
H503 C530 0.937 . S
H504 C533 0.950 . S
H505 C534 0.950 . S
H506 C536 0.950 . S
H507 C537 0.950 . S
C508 H490 0.951 . S
C508 C509 1.366 . S
C508 C510 1.388 . S
C509 C508 1.366 . S
C509 C513 1.385 . S
C510 H491 0.951 . S
C510 C508 1.388 . S
C510 C511 1.366 . S
C511 C510 1.366 . S
C511 C512 1.414 . S
C511 C514 1.499 . S
C512 H492 0.950 . S
C512 C511 1.414 . S
C512 C513 1.374 . S
C513 H493 0.950 . S
C513 C509 1.385 . S
C513 C512 1.374 . S
C514 C511 1.499 . S
C514 C515 1.367 1_545 S
C514 C516 1.389 . S
C515 H494 0.937 . S
C515 C514 1.367 1_565 S
C515 C531 1.398 . S
C516 C514 1.389 . S
C516 C517 1.524 . S
C516 C530 1.397 . S
C517 C516 1.524 . S
C517 C518 1.397 . S
C517 C522 1.363 . S
C518 H495 0.950 . S
C518 C517 1.397 . S
C518 C519 1.334 . S
C519 H496 0.950 . S
C519 C518 1.334 . S
C519 C520 1.287 . S
C520 C519 1.287 . S
C520 C521 1.524 . S
C520 H539 0.913 . S
C521 H497 0.950 . S
C521 C520 1.524 . S
C521 C522 1.415 . S
C522 H498 0.950 . S
C522 C517 1.363 . S
C522 C521 1.415 . S
C523 H499 0.951 . S
C523 C524 1.366 . S
C523 C525 1.388 . S
C524 C523 1.366 . S
C524 C528 1.385 . S
C525 H500 0.951 . S
C525 C523 1.388 . S
C525 C526 1.366 . S
C526 C525 1.366 . S
C526 C527 1.414 . S
C526 C529 1.499 . S
C527 H501 0.950 . S
C527 C526 1.414 . S
C527 C528 1.374 . S
C528 H502 0.950 . S
C528 C524 1.385 . S
C528 C527 1.374 . S
C529 C526 1.499 . S
C529 C530 1.367 1_565 S
C529 C531 1.389 . S
C530 H503 0.937 . S
C530 C516 1.397 . S
C530 C529 1.367 1_545 S
C531 C515 1.398 . S
C531 C529 1.389 . S
C531 C532 1.524 . S
C532 C531 1.524 . S
C532 C533 1.397 . S
C532 C537 1.363 . S
C533 H504 0.950 . S
C533 C532 1.397 . S
C533 C534 1.334 . S
C534 H505 0.950 . S
C534 C533 1.334 . S
C534 C535 1.287 . S
C535 C534 1.287 . S
C535 C536 1.524 . S
C535 H538 0.999 . S
C536 H506 0.950 . S
C536 C535 1.524 . S
C536 C537 1.415 . S
C537 H507 0.950 . S
C537 C532 1.363 . S
C537 C536 1.415 . S
H538 C535 0.999 . S
H539 C520 0.913 . S
H540 C558 0.951 . S
H541 C560 0.951 . S
H542 C562 0.950 . S
H543 C563 0.950 . S
H544 C565 0.950 . S
H545 C568 0.950 . S
H546 C569 0.950 . S
H547 C571 0.950 . S
H548 C572 0.950 . S
H549 C573 0.951 . S
H550 C575 0.951 . S
H551 C577 0.950 . S
H552 C578 0.950 . S
H553 C580 0.950 . S
H554 C583 0.950 . S
H555 C584 0.950 . S
H556 C586 0.950 . S
H557 C587 0.950 . S
C558 H540 0.951 . S
C558 C559 1.366 . S
C558 C560 1.388 . S
C559 C558 1.366 . S
C559 C563 1.385 . S
C560 H541 0.951 . S
C560 C558 1.388 . S
C560 C561 1.366 . S
C561 C560 1.366 . S
C561 C562 1.414 . S
C561 C564 1.499 . S
C562 H542 0.950 . S
C562 C561 1.414 . S
C562 C563 1.374 . S
C563 H543 0.950 . S
C563 C559 1.385 . S
C563 C562 1.374 . S
C564 C561 1.499 . S
C564 C565 1.373 . S
C564 C566 1.389 . S
C565 H544 0.950 . S
C565 C564 1.373 . S
C565 C581 1.377 . S
C566 C564 1.389 . S
C566 C567 1.524 . S
C566 C580 1.377 . S
C567 C566 1.524 . S
C567 C568 1.397 . S
C567 C572 1.363 . S
C568 H545 0.950 . S
C568 C567 1.397 . S
C568 C569 1.334 . S
C569 H546 0.950 . S
C569 C568 1.334 . S
C569 C570 1.287 . S
C570 C569 1.287 . S
C570 C571 1.524 . S
C570 H589 0.913 . S
C571 H547 0.950 . S
C571 C570 1.524 . S
C571 C572 1.415 . S
C572 H548 0.950 . S
C572 C567 1.363 . S
C572 C571 1.415 . S
C573 H549 0.951 . S
C573 C574 1.366 . S
C573 C575 1.388 . S
C574 C573 1.366 . S
C574 C578 1.385 . S
C575 H550 0.951 . S
C575 C573 1.388 . S
C575 C576 1.366 . S
C576 C575 1.366 . S
C576 C577 1.414 . S
C576 C579 1.499 . S
C577 H551 0.950 . S
C577 C576 1.414 . S
C577 C578 1.374 . S
C578 H552 0.950 . S
C578 C574 1.385 . S
C578 C577 1.374 . S
C579 C576 1.499 . S
C579 C580 1.373 . S
C579 C581 1.389 . S
C580 H553 0.950 . S
C580 C566 1.377 . S
C580 C579 1.373 . S
C581 C565 1.377 . S
C581 C579 1.389 . S
C581 C582 1.524 . S
C582 C581 1.524 . S
C582 C583 1.397 . S
C582 C587 1.363 . S
C583 H554 0.950 . S
C583 C582 1.397 . S
C583 C584 1.334 . S
C584 H555 0.950 . S
C584 C583 1.334 . S
C584 C585 1.287 . S
C585 C584 1.287 . S
C585 C586 1.524 . S
C585 H588 0.999 . S
C586 H556 0.950 . S
C586 C585 1.524 . S
C586 C587 1.415 . S
C587 H557 0.950 . S
C587 C582 1.363 . S
C587 C586 1.415 . S
H588 C585 0.999 . S
H589 C570 0.913 . S
H590 C608 0.951 . S
H591 C610 0.951 . S
H592 C612 0.950 . S
H593 C613 0.950 . S
H594 C615 0.950 . S
H595 C618 0.950 . S
H596 C619 0.950 . S
H597 C621 0.950 . S
H598 C622 0.950 . S
H599 C623 0.951 . S
H600 C625 0.951 . S
H601 C627 0.950 . S
H602 C628 0.950 . S
H603 C630 0.950 . S
H604 C633 0.950 . S
H605 C634 0.950 . S
H606 C636 0.950 . S
H607 C637 0.950 1_554 S
C608 H590 0.951 . S
C608 C609 1.366 . S
C608 C610 1.388 . S
C609 C608 1.366 . S
C609 C613 1.385 . S
C610 H591 0.951 . S
C610 C608 1.388 . S
C610 C611 1.366 . S
C611 C610 1.366 . S
C611 C612 1.414 . S
C611 C614 1.499 . S
C612 H592 0.950 . S
C612 C611 1.414 . S
C612 C613 1.374 . S
C613 H593 0.950 . S
C613 C609 1.385 . S
C613 C612 1.374 . S
C614 C611 1.499 . S
C614 C615 1.373 . S
C614 C616 1.389 . S
C615 H594 0.950 . S
C615 C614 1.373 . S
C615 C631 1.377 1_554 S
C616 C614 1.389 . S
C616 C617 1.524 . S
C616 C630 1.377 1_554 S
C617 C616 1.524 . S
C617 C618 1.397 . S
C617 C622 1.363 . S
C618 H595 0.950 . S
C618 C617 1.397 . S
C618 C619 1.334 . S
C619 H596 0.950 . S
C619 C618 1.334 . S
C619 C620 1.287 . S
C620 C619 1.287 . S
C620 C621 1.524 . S
C620 H639 0.913 . S
C621 H597 0.950 . S
C621 C620 1.524 . S
C621 C622 1.415 . S
C622 H598 0.950 . S
C622 C617 1.363 . S
C622 C621 1.415 . S
C623 H599 0.951 . S
C623 C624 1.366 . S
C623 C625 1.388 . S
C624 C623 1.366 . S
C624 C628 1.385 . S
C625 H600 0.951 . S
C625 C623 1.388 . S
C625 C626 1.366 . S
C626 C625 1.366 . S
C626 C627 1.414 . S
C626 C629 1.499 . S
C627 H601 0.950 . S
C627 C626 1.414 . S
C627 C628 1.374 . S
C628 H602 0.950 . S
C628 C624 1.385 . S
C628 C627 1.374 . S
C629 C626 1.499 . S
C629 C630 1.373 . S
C629 C631 1.389 . S
C630 H603 0.950 . S
C630 C616 1.377 1_556 S
C630 C629 1.373 . S
C631 C615 1.377 1_556 S
C631 C629 1.389 . S
C631 C632 1.524 . S
C632 C631 1.524 . S
C632 C633 1.397 . S
C632 C637 1.363 . S
C633 H604 0.950 . S
C633 C632 1.397 . S
C633 C634 1.334 . S
C634 H605 0.950 . S
C634 C633 1.334 . S
C634 C635 1.287 . S
C635 C634 1.287 . S
C635 C636 1.524 . S
C635 H638 0.999 . S
C636 H606 0.950 . S
C636 C635 1.524 . S
C636 C637 1.415 . S
C637 H607 0.950 1_556 S
C637 C632 1.363 . S
C637 C636 1.415 . S
H638 C635 0.999 . S
H639 C620 0.913 . S
H640 C658 0.951 . S
H641 C660 0.951 . S
H642 C662 0.950 . S
H643 C663 0.950 . S
H644 C665 0.950 . S
H645 C668 0.950 . S
H646 C669 0.950 . S
H647 C671 0.950 . S
H648 C672 0.950 . S
H649 C673 0.951 . S
H650 C675 0.951 . S
H651 C677 0.950 . S
H652 C678 0.950 . S
H653 C680 0.950 . S
H654 C683 0.950 . S
H655 C684 0.950 . S
H656 C686 0.950 . S
H657 C687 0.950 . S
C658 H640 0.951 . S
C658 C659 1.366 . S
C658 C660 1.388 . S
C659 C658 1.366 . S
C659 C663 1.385 . S
C660 H641 0.951 . S
C660 C658 1.388 . S
C660 C661 1.366 . S
C661 C660 1.366 . S
C661 C662 1.414 . S
C661 C664 1.499 . S
C662 H642 0.950 . S
C662 C661 1.414 . S
C662 C663 1.374 . S
C663 H643 0.950 . S
C663 C659 1.385 . S
C663 C662 1.374 . S
C664 C661 1.499 . S
C664 C665 1.373 . S
C664 C666 1.389 . S
C665 H644 0.950 . S
C665 C664 1.373 . S
C665 C681 1.377 . S
C666 C664 1.389 . S
C666 C667 1.524 . S
C666 C680 1.377 . S
C667 C666 1.524 . S
C667 C668 1.397 . S
C667 C672 1.363 . S
C668 H645 0.950 . S
C668 C667 1.397 . S
C668 C669 1.334 . S
C669 H646 0.950 . S
C669 C668 1.334 . S
C669 C670 1.287 . S
C670 C669 1.287 . S
C670 C671 1.524 . S
C670 H689 0.913 . S
C671 H647 0.950 . S
C671 C670 1.524 . S
C671 C672 1.415 . S
C672 H648 0.950 . S
C672 C667 1.363 . S
C672 C671 1.415 . S
C673 H649 0.951 . S
C673 C674 1.367 1_554 S
C673 C675 1.388 . S
C674 C673 1.367 1_556 S
C674 C678 1.385 1_556 S
C675 H650 0.951 . S
C675 C673 1.388 . S
C675 C676 1.366 . S
C676 C675 1.366 . S
C676 C677 1.414 . S
C676 C679 1.499 . S
C677 H651 0.950 . S
C677 C676 1.414 . S
C677 C678 1.374 . S
C678 H652 0.950 . S
C678 C674 1.385 1_554 S
C678 C677 1.374 . S
C679 C676 1.499 . S
C679 C680 1.373 . S
C679 C681 1.389 . S
C680 H653 0.950 . S
C680 C666 1.377 . S
C680 C679 1.373 . S
C681 C665 1.377 . S
C681 C679 1.389 . S
C681 C682 1.524 . S
C682 C681 1.524 . S
C682 C683 1.397 . S
C682 C687 1.363 . S
C683 H654 0.950 . S
C683 C682 1.397 . S
C683 C684 1.334 . S
C684 H655 0.950 . S
C684 C683 1.334 . S
C684 C685 1.287 . S
C685 C684 1.287 . S
C685 C686 1.524 . S
C685 H688 0.999 . S
C686 H656 0.950 . S
C686 C685 1.524 . S
C686 C687 1.415 . S
C687 H657 0.950 . S
C687 C682 1.363 . S
C687 C686 1.415 . S
H688 C685 0.999 . S
H689 C670 0.913 . S
H690 C708 0.951 . S
H691 C710 0.951 . S
H692 C712 0.950 . S
H693 C713 0.950 . S
H694 C715 0.950 . S
H695 C718 0.950 . S
H696 C719 0.950 . S
H697 C721 0.950 . S
H698 C722 0.950 . S
H699 C723 0.951 . S
H700 C725 0.951 . S
H701 C727 0.950 . S
H702 C728 0.950 . S
H703 C730 0.950 . S
H704 C733 0.950 . S
H705 C734 0.950 . S
H706 C736 0.950 . S
H707 C737 0.950 . S
C708 H690 0.951 . S
C708 C709 1.366 . S
C708 C710 1.388 . S
C709 C708 1.366 . S
C709 C713 1.385 . S
C710 H691 0.951 . S
C710 C708 1.388 . S
C710 C711 1.366 . S
C711 C710 1.366 . S
C711 C712 1.414 . S
C711 C714 1.499 . S
C712 H692 0.950 . S
C712 C711 1.414 . S
C712 C713 1.374 . S
C713 H693 0.950 . S
C713 C709 1.385 . S
C713 C712 1.374 . S
C714 C711 1.499 . S
C714 C715 1.373 . S
C714 C716 1.389 . S
C715 H694 0.950 . S
C715 C714 1.373 . S
C715 C731 1.377 . S
C716 C714 1.389 . S
C716 C717 1.524 . S
C716 C730 1.377 . S
C717 C716 1.524 . S
C717 C718 1.397 . S
C717 C722 1.363 . S
C718 H695 0.950 . S
C718 C717 1.397 . S
C718 C719 1.334 . S
C719 H696 0.950 . S
C719 C718 1.334 . S
C719 C720 1.287 . S
C720 C719 1.287 . S
C720 C721 1.524 . S
C720 H739 0.913 . S
C721 H697 0.950 . S
C721 C720 1.524 . S
C721 C722 1.415 . S
C722 H698 0.950 . S
C722 C717 1.363 . S
C722 C721 1.415 . S
C723 H699 0.951 . S
C723 C724 1.366 . S
C723 C725 1.388 . S
C724 C723 1.366 . S
C724 C728 1.385 . S
C725 H700 0.951 . S
C725 C723 1.388 . S
C725 C726 1.366 . S
C726 C725 1.366 . S
C726 C727 1.414 . S
C726 C729 1.499 . S
C727 H701 0.950 . S
C727 C726 1.414 . S
C727 C728 1.374 . S
C728 H702 0.950 . S
C728 C724 1.385 . S
C728 C727 1.374 . S
C729 C726 1.499 . S
C729 C730 1.373 . S
C729 C731 1.389 . S
C730 H703 0.950 . S
C730 C716 1.377 . S
C730 C729 1.373 . S
C731 C715 1.377 . S
C731 C729 1.389 . S
C731 C732 1.524 . S
C732 C731 1.524 . S
C732 C733 1.397 . S
C732 C737 1.363 . S
C733 H704 0.950 . S
C733 C732 1.397 . S
C733 C734 1.334 . S
C734 H705 0.950 . S
C734 C733 1.334 . S
C734 C735 1.287 . S
C735 C734 1.287 . S
C735 C736 1.524 . S
C735 H738 0.999 . S
C736 H706 0.950 . S
C736 C735 1.524 . S
C736 C737 1.415 . S
C737 H707 0.950 . S
C737 C732 1.363 . S
C737 C736 1.415 . S
H738 C735 0.999 . S
H739 C720 0.913 . S
H740 C758 0.951 . S
H741 C760 0.951 . S
H742 C762 0.950 . S
H743 C763 0.950 . S
H744 C765 0.950 . S
H745 C768 0.950 . S
H746 C769 0.950 . S
H747 C771 0.950 . S
H748 C772 0.950 . S
H749 C773 0.951 . S
H750 C775 0.951 . S
H751 C777 0.950 . S
H752 C778 0.950 . S
H753 C780 0.950 . S
H754 C783 0.950 . S
H755 C784 0.950 . S
H756 C786 0.950 . S
H757 C787 0.950 . S
C758 H740 0.951 . S
C758 C759 1.366 . S
C758 C760 1.388 . S
C759 C758 1.366 . S
C759 C763 1.385 . S
C760 H741 0.951 . S
C760 C758 1.388 . S
C760 C761 1.366 . S
C761 C760 1.366 . S
C761 C762 1.414 . S
C761 C764 1.499 . S
C762 H742 0.950 . S
C762 C761 1.414 . S
C762 C763 1.374 . S
C763 H743 0.950 . S
C763 C759 1.385 . S
C763 C762 1.374 . S
C764 C761 1.499 . S
C764 C765 1.373 . S
C764 C766 1.389 . S
C765 H744 0.950 . S
C765 C764 1.373 . S
C765 C781 1.377 . S
C766 C764 1.389 . S
C766 C767 1.524 . S
C766 C780 1.377 . S
C767 C766 1.524 . S
C767 C768 1.397 . S
C767 C772 1.363 . S
C768 H745 0.950 . S
C768 C767 1.397 . S
C768 C769 1.334 . S
C769 H746 0.950 . S
C769 C768 1.334 . S
C769 C770 1.287 . S
C770 C769 1.287 . S
C770 C771 1.524 . S
C770 H789 0.913 . S
C771 H747 0.950 . S
C771 C770 1.524 . S
C771 C772 1.415 . S
C772 H748 0.950 . S
C772 C767 1.363 . S
C772 C771 1.415 . S
C773 H749 0.951 . S
C773 C774 1.366 . S
C773 C775 1.388 1_554 S
C774 C773 1.366 . S
C774 C778 1.385 . S
C775 H750 0.951 . S
C775 C773 1.388 1_556 S
C775 C776 1.366 . S
C776 C775 1.366 . S
C776 C777 1.414 . S
C776 C779 1.499 . S
C777 H751 0.950 . S
C777 C776 1.414 . S
C777 C778 1.374 1_556 S
C778 H752 0.950 . S
C778 C774 1.385 . S
C778 C777 1.374 1_554 S
C779 C776 1.499 . S
C779 C780 1.373 . S
C779 C781 1.389 . S
C780 H753 0.950 . S
C780 C766 1.377 . S
C780 C779 1.373 . S
C781 C765 1.377 . S
C781 C779 1.389 . S
C781 C782 1.524 . S
C782 C781 1.524 . S
C782 C783 1.397 . S
C782 C787 1.363 . S
C783 H754 0.950 . S
C783 C782 1.397 . S
C783 C784 1.334 . S
C784 H755 0.950 . S
C784 C783 1.334 . S
C784 C785 1.287 . S
C785 C784 1.287 . S
C785 C786 1.524 . S
C785 H788 0.999 . S
C786 H756 0.950 . S
C786 C785 1.524 . S
C786 C787 1.415 . S
C787 H757 0.950 . S
C787 C782 1.363 . S
C787 C786 1.415 . S
H788 C785 0.999 . S
H789 C770 0.913 . S
H790 C808 0.951 . S
H791 C810 0.951 . S
H792 C812 0.950 . S
H793 C813 0.950 . S
H794 C815 0.950 . S
H795 C818 0.950 . S
H796 C819 0.950 . S
H797 C821 0.950 . S
H798 C822 0.950 . S
H799 C823 0.951 . S
H800 C825 0.951 . S
H801 C827 0.950 . S
H802 C828 0.950 . S
H803 C830 0.950 . S
H804 C833 0.950 . S
H805 C834 0.950 . S
H806 C836 0.950 . S
H807 C837 0.950 . S
C808 H790 0.951 . S
C808 C809 1.366 . S
C808 C810 1.388 . S
C809 C808 1.366 . S
C809 C813 1.385 . S
C810 H791 0.951 . S
C810 C808 1.388 . S
C810 C811 1.366 . S
C811 C810 1.366 . S
C811 C812 1.414 . S
C811 C814 1.499 . S
C812 H792 0.950 . S
C812 C811 1.414 . S
C812 C813 1.374 . S
C813 H793 0.950 . S
C813 C809 1.385 . S
C813 C812 1.374 . S
C814 C811 1.499 . S
C814 C815 1.373 . S
C814 C816 1.389 . S
C815 H794 0.950 . S
C815 C814 1.373 . S
C815 C831 1.377 . S
C816 C814 1.389 . S
C816 C817 1.524 . S
C816 C830 1.377 . S
C817 C816 1.524 . S
C817 C818 1.397 . S
C817 C822 1.363 . S
C818 H795 0.950 . S
C818 C817 1.397 . S
C818 C819 1.334 . S
C819 H796 0.950 . S
C819 C818 1.334 . S
C819 C820 1.287 . S
C820 C819 1.287 . S
C820 C821 1.524 . S
C820 H839 0.913 . S
C821 H797 0.950 . S
C821 C820 1.524 . S
C821 C822 1.415 . S
C822 H798 0.950 . S
C822 C817 1.363 . S
C822 C821 1.415 . S
C823 H799 0.951 . S
C823 C824 1.366 . S
C823 C825 1.388 . S
C824 C823 1.366 . S
C824 C828 1.385 . S
C825 H800 0.951 . S
C825 C823 1.388 . S
C825 C826 1.366 . S
C826 C825 1.366 . S
C826 C827 1.414 . S
C826 C829 1.499 . S
C827 H801 0.950 . S
C827 C826 1.414 . S
C827 C828 1.374 . S
C828 H802 0.950 . S
C828 C824 1.385 . S
C828 C827 1.374 . S
C829 C826 1.499 . S
C829 C830 1.373 . S
C829 C831 1.389 . S
C830 H803 0.950 . S
C830 C816 1.377 . S
C830 C829 1.373 . S
C831 C815 1.377 . S
C831 C829 1.389 . S
C831 C832 1.524 . S
C832 C831 1.524 . S
C832 C833 1.397 . S
C832 C837 1.363 . S
C833 H804 0.950 . S
C833 C832 1.397 . S
C833 C834 1.334 . S
C834 H805 0.950 . S
C834 C833 1.334 . S
C834 C835 1.287 . S
C835 C834 1.287 . S
C835 C836 1.524 . S
C835 H838 0.999 . S
C836 H806 0.950 . S
C836 C835 1.524 . S
C836 C837 1.415 . S
C837 H807 0.950 . S
C837 C832 1.363 . S
C837 C836 1.415 . S
H838 C835 0.999 . S
H839 C820 0.913 . S
H840 C858 0.951 . S
H841 C860 0.951 . S
H842 C862 0.950 . S
H843 C863 0.950 . S
H844 C865 0.950 . S
H845 C868 0.950 . S
H846 C869 0.950 . S
H847 C871 0.950 . S
H848 C872 0.950 . S
H849 C873 0.951 . S
H850 C875 0.951 . S
H851 C877 0.950 . S
H852 C878 0.950 . S
H853 C880 0.950 . S
H854 C883 0.950 . S
H855 C884 0.950 . S
H856 C886 0.950 . S
H857 C887 0.950 . S
C858 H840 0.951 . S
C858 C859 1.366 . S
C858 C860 1.388 . S
C859 C858 1.366 . S
C859 C863 1.385 . S
C860 H841 0.951 . S
C860 C858 1.388 . S
C860 C861 1.366 . S
C861 C860 1.366 . S
C861 C862 1.414 . S
C861 C864 1.499 . S
C862 H842 0.950 . S
C862 C861 1.414 . S
C862 C863 1.374 . S
C863 H843 0.950 . S
C863 C859 1.385 . S
C863 C862 1.374 . S
C864 C861 1.499 . S
C864 C865 1.373 . S
C864 C866 1.389 . S
C865 H844 0.950 . S
C865 C864 1.373 . S
C865 C881 1.377 . S
C866 C864 1.389 . S
C866 C867 1.524 . S
C866 C880 1.377 . S
C867 C866 1.524 . S
C867 C868 1.397 . S
C867 C872 1.363 . S
C868 H845 0.950 . S
C868 C867 1.397 . S
C868 C869 1.334 . S
C869 H846 0.950 . S
C869 C868 1.334 . S
C869 C870 1.287 . S
C870 C869 1.287 . S
C870 C871 1.524 . S
C870 H889 0.913 . S
C871 H847 0.950 . S
C871 C870 1.524 . S
C871 C872 1.415 . S
C872 H848 0.950 . S
C872 C867 1.363 . S
C872 C871 1.415 . S
C873 H849 0.951 . S
C873 C874 1.366 . S
C873 C875 1.388 . S
C874 C873 1.366 . S
C874 C878 1.385 . S
C875 H850 0.951 . S
C875 C873 1.388 . S
C875 C876 1.366 . S
C876 C875 1.366 . S
C876 C877 1.414 . S
C876 C879 1.499 . S
C877 H851 0.950 . S
C877 C876 1.414 . S
C877 C878 1.374 . S
C878 H852 0.950 . S
C878 C874 1.385 . S
C878 C877 1.374 . S
C879 C876 1.499 . S
C879 C880 1.373 . S
C879 C881 1.389 . S
C880 H853 0.950 . S
C880 C866 1.377 . S
C880 C879 1.373 . S
C881 C865 1.377 . S
C881 C879 1.389 . S
C881 C882 1.524 . S
C882 C881 1.524 . S
C882 C883 1.397 . S
C882 C887 1.363 . S
C883 H854 0.950 . S
C883 C882 1.397 . S
C883 C884 1.334 . S
C884 H855 0.950 . S
C884 C883 1.334 . S
C884 C885 1.287 . S
C885 C884 1.287 . S
C885 C886 1.524 . S
C885 H888 0.999 . S
C886 H856 0.950 . S
C886 C885 1.524 . S
C886 C887 1.415 . S
C887 H857 0.950 . S
C887 C882 1.363 . S
C887 C886 1.415 . S
H888 C885 0.999 . S
H889 C870 0.913 . S
H890 C908 0.951 . S
H891 C910 0.951 . S
H892 C912 0.950 . S
H893 C913 0.950 . S
H894 C915 0.950 . S
H895 C918 0.950 . S
H896 C919 0.950 . S
H897 C921 0.950 . S
H898 C922 0.950 . S
H899 C923 0.951 . S
H900 C925 0.951 . S
H901 C927 0.950 . S
H902 C928 0.950 . S
H903 C930 0.950 . S
H904 C933 0.950 . S
H905 C934 0.950 . S
H906 C936 0.950 . S
H907 C937 0.950 . S
C908 H890 0.951 . S
C908 C909 1.366 . S
C908 C910 1.388 . S
C909 C908 1.366 . S
C909 C913 1.385 . S
C910 H891 0.951 . S
C910 C908 1.388 . S
C910 C911 1.366 . S
C911 C910 1.366 . S
C911 C912 1.414 . S
C911 C914 1.499 . S
C912 H892 0.950 . S
C912 C911 1.414 . S
C912 C913 1.374 . S
C913 H893 0.950 . S
C913 C909 1.385 . S
C913 C912 1.374 . S
C914 C911 1.499 . S
C914 C915 1.373 . S
C914 C916 1.389 . S
C915 H894 0.950 . S
C915 C914 1.373 . S
C915 C931 1.377 . S
C916 C914 1.389 . S
C916 C917 1.524 . S
C916 C930 1.377 . S
C917 C916 1.524 . S
C917 C918 1.397 . S
C917 C922 1.363 . S
C918 H895 0.950 . S
C918 C917 1.397 . S
C918 C919 1.334 . S
C919 H896 0.950 . S
C919 C918 1.334 . S
C919 C920 1.287 . S
C920 C919 1.287 . S
C920 C921 1.524 . S
C920 H939 0.913 . S
C921 H897 0.950 . S
C921 C920 1.524 . S
C921 C922 1.415 . S
C922 H898 0.950 . S
C922 C917 1.363 . S
C922 C921 1.415 . S
C923 H899 0.951 . S
C923 C924 1.366 . S
C923 C925 1.388 . S
C924 C923 1.366 . S
C924 C928 1.385 . S
C925 H900 0.951 . S
C925 C923 1.388 . S
C925 C926 1.366 . S
C926 C925 1.366 . S
C926 C927 1.414 . S
C926 C929 1.499 . S
C927 H901 0.950 . S
C927 C926 1.414 . S
C927 C928 1.374 . S
C928 H902 0.950 . S
C928 C924 1.385 . S
C928 C927 1.374 . S
C929 C926 1.499 . S
C929 C930 1.373 . S
C929 C931 1.389 . S
C930 H903 0.950 . S
C930 C916 1.377 . S
C930 C929 1.373 . S
C931 C915 1.377 . S
C931 C929 1.389 . S
C931 C932 1.524 . S
C932 C931 1.524 . S
C932 C933 1.397 . S
C932 C937 1.363 . S
C933 H904 0.950 . S
C933 C932 1.397 . S
C933 C934 1.334 . S
C934 H905 0.950 . S
C934 C933 1.334 . S
C934 C935 1.287 . S
C935 C934 1.287 . S
C935 C936 1.524 . S
C935 H938 0.999 . S
C936 H906 0.950 . S
C936 C935 1.524 . S
C936 C937 1.415 . S
C937 H907 0.950 . S
C937 C932 1.363 . S
C937 C936 1.415 . S
H938 C935 0.999 . S
H939 C920 0.913 . S
H940 C958 0.951 . S
H941 C960 0.951 . S
H942 C962 0.950 . S
H943 C963 0.950 . S
H944 C965 0.950 . S
H945 C968 0.950 . S
H946 C969 0.950 1_554 S
H947 C971 0.950 . S
H948 C972 0.950 . S
H949 C973 0.951 . S
H950 C975 0.951 . S
H951 C977 0.950 . S
H952 C978 0.950 . S
H953 C980 0.950 . S
H954 C983 0.950 . S
H955 C984 0.950 . S
H956 C986 0.950 . S
H957 C987 0.950 . S
C958 H940 0.951 . S
C958 C959 1.366 . S
C958 C960 1.388 . S
C959 C958 1.366 . S
C959 C963 1.385 . S
C960 H941 0.951 . S
C960 C958 1.388 . S
C960 C961 1.366 . S
C961 C960 1.366 . S
C961 C962 1.414 . S
C961 C964 1.499 . S
C962 H942 0.950 . S
C962 C961 1.414 . S
C962 C963 1.374 . S
C963 H943 0.950 . S
C963 C959 1.385 . S
C963 C962 1.374 . S
C964 C961 1.499 . S
C964 C965 1.373 . S
C964 C966 1.389 . S
C965 H944 0.950 . S
C965 C964 1.373 . S
C965 C981 1.377 . S
C966 C964 1.389 . S
C966 C967 1.524 . S
C966 C980 1.377 . S
C967 C966 1.524 . S
C967 C968 1.397 . S
C967 C972 1.363 . S
C968 H945 0.950 . S
C968 C967 1.397 . S
C968 C969 1.334 . S
C969 H946 0.950 1_556 S
C969 C968 1.334 . S
C969 C970 1.287 1_556 S
C970 C969 1.287 1_554 S
C970 C971 1.524 1_554 S
C970 H989 0.913 . S
C971 H947 0.950 . S
C971 C970 1.524 1_556 S
C971 C972 1.415 . S
C972 H948 0.950 . S
C972 C967 1.363 . S
C972 C971 1.415 . S
C973 H949 0.951 . S
C973 C974 1.366 . S
C973 C975 1.388 . S
C974 C973 1.366 . S
C974 C978 1.385 . S
C975 H950 0.951 . S
C975 C973 1.388 . S
C975 C976 1.366 . S
C976 C975 1.366 . S
C976 C977 1.414 . S
C976 C979 1.499 . S
C977 H951 0.950 . S
C977 C976 1.414 . S
C977 C978 1.374 . S
C978 H952 0.950 . S
C978 C974 1.385 . S
C978 C977 1.374 . S
C979 C976 1.499 . S
C979 C980 1.373 . S
C979 C981 1.389 . S
C980 H953 0.950 . S
C980 C966 1.377 . S
C980 C979 1.373 . S
C981 C965 1.377 . S
C981 C979 1.389 . S
C981 C982 1.524 . S
C982 C981 1.524 . S
C982 C983 1.397 . S
C982 C987 1.363 . S
C983 H954 0.950 . S
C983 C982 1.397 . S
C983 C984 1.334 . S
C984 H955 0.950 . S
C984 C983 1.334 . S
C984 C985 1.287 . S
C985 C984 1.287 . S
C985 C986 1.524 . S
C985 H988 0.999 . S
C986 H956 0.950 . S
C986 C985 1.524 . S
C986 C987 1.415 . S
C987 H957 0.950 . S
C987 C982 1.363 . S
C987 C986 1.415 . S
H988 C985 0.999 . S
H989 C970 0.913 . S
H990 C1008 0.951 . S
H991 C1010 0.951 . S
H992 C1012 0.950 . S
H993 C1013 0.950 . S
H994 C1015 0.950 . S
H995 C1018 0.950 . S
H996 C1019 0.950 . S
H997 C1021 0.950 . S
H998 C1022 0.950 . S
H999 C1023 0.951 . S
H1000 C1025 0.951 . S
H1001 C1027 0.950 . S
H1002 C1028 0.950 . S
H1003 C1030 0.950 . S
H1004 C1033 0.950 . S
H1005 C1034 0.950 . S
H1006 C1036 0.950 . S
H1007 C1037 0.950 . S
C1008 H990 0.951 . S
C1008 C1009 1.366 . S
C1008 C1010 1.388 . S
C1009 C1008 1.366 . S
C1009 C1013 1.385 . S
C1010 H991 0.951 . S
C1010 C1008 1.388 . S
C1010 C1011 1.366 . S
C1011 C1010 1.366 . S
C1011 C1012 1.414 . S
C1011 C1014 1.499 . S
C1012 H992 0.950 . S
C1012 C1011 1.414 . S
C1012 C1013 1.374 . S
C1013 H993 0.950 . S
C1013 C1009 1.385 . S
C1013 C1012 1.374 . S
C1014 C1011 1.499 . S
C1014 C1015 1.373 . S
C1014 C1016 1.389 . S
C1015 H994 0.950 . S
C1015 C1014 1.373 . S
C1015 C1031 1.377 . S
C1016 C1014 1.389 . S
C1016 C1017 1.524 . S
C1016 C1030 1.377 . S
C1017 C1016 1.524 . S
C1017 C1018 1.397 . S
C1017 C1022 1.363 . S
C1018 H995 0.950 . S
C1018 C1017 1.397 . S
C1018 C1019 1.334 . S
C1019 H996 0.950 . S
C1019 C1018 1.334 . S
C1019 C1020 1.287 . S
C1020 C1019 1.287 . S
C1020 C1021 1.524 . S
C1020 H1039 0.913 . S
C1021 H997 0.950 . S
C1021 C1020 1.524 . S
C1021 C1022 1.415 . S
C1022 H998 0.950 . S
C1022 C1017 1.363 . S
C1022 C1021 1.415 . S
C1023 H999 0.951 . S
C1023 C1024 1.366 . S
C1023 C1025 1.388 . S
C1024 C1023 1.366 . S
C1024 C1028 1.385 . S
C1025 H1000 0.951 . S
C1025 C1023 1.388 . S
C1025 C1026 1.366 . S
C1026 C1025 1.366 . S
C1026 C1027 1.414 . S
C1026 C1029 1.499 . S
C1027 H1001 0.950 . S
C1027 C1026 1.414 . S
C1027 C1028 1.374 . S
C1028 H1002 0.950 . S
C1028 C1024 1.385 . S
C1028 C1027 1.374 . S
C1029 C1026 1.499 . S
C1029 C1030 1.373 . S
C1029 C1031 1.389 . S
C1030 H1003 0.950 . S
C1030 C1016 1.377 . S
C1030 C1029 1.373 . S
C1031 C1015 1.377 . S
C1031 C1029 1.389 . S
C1031 C1032 1.524 . S
C1032 C1031 1.524 . S
C1032 C1033 1.397 . S
C1032 C1037 1.363 . S
C1033 H1004 0.950 . S
C1033 C1032 1.397 . S
C1033 C1034 1.334 . S
C1034 H1005 0.950 . S
C1034 C1033 1.334 . S
C1034 C1035 1.287 . S
C1035 C1034 1.287 . S
C1035 C1036 1.524 . S
C1035 H1038 0.999 . S
C1036 H1006 0.950 . S
C1036 C1035 1.524 . S
C1036 C1037 1.415 . S
C1037 H1007 0.950 . S
C1037 C1032 1.363 . S
C1037 C1036 1.415 . S
H1038 C1035 0.999 . S
H1039 C1020 0.913 . S
H1040 C1058 0.951 . S
H1041 C1060 0.951 . S
H1042 C1062 0.950 . S
H1043 C1063 0.950 . S
H1044 C1065 0.950 . S
H1045 C1068 0.950 . S
H1046 C1069 0.950 . S
H1047 C1071 0.950 . S
H1048 C1072 0.950 . S
H1049 C1073 0.951 . S
H1050 C1075 0.951 . S
H1051 C1077 0.950 . S
H1052 C1078 0.950 . S
H1053 C1080 0.950 . S
H1054 C1083 0.950 . S
H1055 C1084 0.950 . S
H1056 C1086 0.950 . S
H1057 C1087 0.950 . S
C1058 H1040 0.951 . S
C1058 C1059 1.366 . S
C1058 C1060 1.388 . S
C1059 C1058 1.366 . S
C1059 C1063 1.385 . S
C1060 H1041 0.951 . S
C1060 C1058 1.388 . S
C1060 C1061 1.366 . S
C1061 C1060 1.366 . S
C1061 C1062 1.414 . S
C1061 C1064 1.499 . S
C1062 H1042 0.950 . S
C1062 C1061 1.414 . S
C1062 C1063 1.374 . S
C1063 H1043 0.950 . S
C1063 C1059 1.385 . S
C1063 C1062 1.374 . S
C1064 C1061 1.499 . S
C1064 C1065 1.373 . S
C1064 C1066 1.389 . S
C1065 H1044 0.950 . S
C1065 C1064 1.373 . S
C1065 C1081 1.377 . S
C1066 C1064 1.389 . S
C1066 C1067 1.524 . S
C1066 C1080 1.377 . S
C1067 C1066 1.524 . S
C1067 C1068 1.397 . S
C1067 C1072 1.363 . S
C1068 H1045 0.950 . S
C1068 C1067 1.397 . S
C1068 C1069 1.334 . S
C1069 H1046 0.950 . S
C1069 C1068 1.334 . S
C1069 C1070 1.287 . S
C1070 C1069 1.287 . S
C1070 C1071 1.524 . S
C1070 H1089 0.913 . S
C1071 H1047 0.950 . S
C1071 C1070 1.524 . S
C1071 C1072 1.415 . S
C1072 H1048 0.950 . S
C1072 C1067 1.363 . S
C1072 C1071 1.415 . S
C1073 H1049 0.951 . S
C1073 C1074 1.366 . S
C1073 C1075 1.388 . S
C1074 C1073 1.366 . S
C1074 C1078 1.385 . S
C1075 H1050 0.951 . S
C1075 C1073 1.388 . S
C1075 C1076 1.366 . S
C1076 C1075 1.366 . S
C1076 C1077 1.414 . S
C1076 C1079 1.499 . S
C1077 H1051 0.950 . S
C1077 C1076 1.414 . S
C1077 C1078 1.374 . S
C1078 H1052 0.950 . S
C1078 C1074 1.385 . S
C1078 C1077 1.374 . S
C1079 C1076 1.499 . S
C1079 C1080 1.373 . S
C1079 C1081 1.389 . S
C1080 H1053 0.950 . S
C1080 C1066 1.377 . S
C1080 C1079 1.373 . S
C1081 C1065 1.377 . S
C1081 C1079 1.389 . S
C1081 C1082 1.524 . S
C1082 C1081 1.524 . S
C1082 C1083 1.397 . S
C1082 C1087 1.363 . S
C1083 H1054 0.950 . S
C1083 C1082 1.397 . S
C1083 C1084 1.334 . S
C1084 H1055 0.950 . S
C1084 C1083 1.334 . S
C1084 C1085 1.287 . S
C1085 C1084 1.287 . S
C1085 C1086 1.524 . S
C1085 H1088 0.999 . S
C1086 H1056 0.950 . S
C1086 C1085 1.524 . S
C1086 C1087 1.415 . S
C1087 H1057 0.950 . S
C1087 C1082 1.363 . S
C1087 C1086 1.415 . S
H1088 C1085 0.999 . S
H1089 C1070 0.913 . S
H1090 C1108 0.951 . S
H1091 C1110 0.951 . S
H1092 C1112 0.950 . S
H1093 C1113 0.950 . S
H1094 C1115 0.950 . S
H1095 C1118 0.950 . S
H1096 C1119 0.950 . S
H1097 C1121 0.950 . S
H1098 C1122 0.950 . S
H1099 C1123 0.951 . S
H1100 C1125 0.951 . S
H1101 C1127 0.950 . S
H1102 C1128 0.950 . S
H1103 C1130 0.950 . S
H1104 C1133 0.950 1_554 S
H1105 C1134 0.950 . S
H1106 C1136 0.950 . S
H1107 C1137 0.950 . S
C1108 H1090 0.951 . S
C1108 C1109 1.366 . S
C1108 C1110 1.388 . S
C1109 C1108 1.366 . S
C1109 C1113 1.385 . S
C1110 H1091 0.951 . S
C1110 C1108 1.388 . S
C1110 C1111 1.366 . S
C1111 C1110 1.366 . S
C1111 C1112 1.414 . S
C1111 C1114 1.499 . S
C1112 H1092 0.950 . S
C1112 C1111 1.414 . S
C1112 C1113 1.374 . S
C1113 H1093 0.950 . S
C1113 C1109 1.385 . S
C1113 C1112 1.374 . S
C1114 C1111 1.499 . S
C1114 C1115 1.373 . S
C1114 C1116 1.389 . S
C1115 H1094 0.950 . S
C1115 C1114 1.373 . S
C1115 C1131 1.377 . S
C1116 C1114 1.389 . S
C1116 C1117 1.524 . S
C1116 C1130 1.377 . S
C1117 C1116 1.524 . S
C1117 C1118 1.397 . S
C1117 C1122 1.363 . S
C1118 H1095 0.950 . S
C1118 C1117 1.397 . S
C1118 C1119 1.334 . S
C1119 H1096 0.950 . S
C1119 C1118 1.334 . S
C1119 C1120 1.287 . S
C1120 C1119 1.287 . S
C1120 C1121 1.524 . S
C1120 H1139 0.913 . S
C1121 H1097 0.950 . S
C1121 C1120 1.524 . S
C1121 C1122 1.415 . S
C1122 H1098 0.950 . S
C1122 C1117 1.363 . S
C1122 C1121 1.415 . S
C1123 H1099 0.951 . S
C1123 C1124 1.366 . S
C1123 C1125 1.388 . S
C1124 C1123 1.366 . S
C1124 C1128 1.385 . S
C1125 H1100 0.951 . S
C1125 C1123 1.388 . S
C1125 C1126 1.366 . S
C1126 C1125 1.366 . S
C1126 C1127 1.414 1_556 S
C1126 C1129 1.499 1_556 S
C1127 H1101 0.950 . S
C1127 C1126 1.414 1_554 S
C1127 C1128 1.374 1_554 S
C1128 H1102 0.950 . S
C1128 C1124 1.385 . S
C1128 C1127 1.374 1_556 S
C1129 C1126 1.499 1_554 S
C1129 C1130 1.373 . S
C1129 C1131 1.389 . S
C1130 H1103 0.950 . S
C1130 C1116 1.377 . S
C1130 C1129 1.373 . S
C1131 C1115 1.377 . S
C1131 C1129 1.389 . S
C1131 C1132 1.524 1_554 S
C1132 C1131 1.524 1_556 S
C1132 C1133 1.397 . S
C1132 C1137 1.363 . S
C1133 H1104 0.950 1_556 S
C1133 C1132 1.397 . S
C1133 C1134 1.334 . S
C1134 H1105 0.950 . S
C1134 C1133 1.334 . S
C1134 C1135 1.287 . S
C1135 C1134 1.287 . S
C1135 C1136 1.524 . S
C1135 H1138 0.999 . S
C1136 H1106 0.950 . S
C1136 C1135 1.524 . S
C1136 C1137 1.415 . S
C1137 H1107 0.950 . S
C1137 C1132 1.363 . S
C1137 C1136 1.415 . S
H1138 C1135 0.999 . S
H1139 C1120 0.913 . S
C259 C202 1.328 . S
C274 C2 1.329 1_556 S
C309 C22 1.571 . S
C324 C62 1.571 . S
C359 C42 1.329 . S
C374 C82 1.330 . S
C409 C102 1.572 . S
C424 C142 1.572 . S
C459 C162 1.329 . S
C474 C122 1.329 . S
C509 C222 1.572 . S
C524 C182 1.572 . S
C559 C26 0.990 . S
C574 C9 0.990 . S
C609 C49 0.990 . S
C624 C66 0.990 . S
C659 C106 0.990 . S
C674 C89 0.988 . S
C709 C129 0.990 . S
C724 C146 0.990 . S
C759 C169 0.991 . S
C774 C186 0.991 . S
C809 C209 0.991 . S
C824 C226 0.991 . S
C859 C15 1.827 . S
C874 C163 1.824 . S
C909 C43 1.825 . S
C924 C215 1.827 . S
C959 C3 1.825 . S
C974 C95 1.827 . S
C1009 C55 1.828 . S
C1024 C123 1.825 . S
C1059 C175 1.827 . S
C1074 C83 1.825 . S
C1109 C135 1.826 . S
C1124 C203 1.824 . S
