# Generated by pormake.
# Topology rob, (6)-cn, num edge types: 1
# Building blocks:
#     Node 0, Type 0, BuildingBlock: INOVEN_clean_sbu_0, # of connection points: 6
#     Node 1, Type 0, BuildingBlock: INOVEN_clean_sbu_0, # of connection points: 6
#     Node 2, Type 0, BuildingBlock: INOVEN_clean_sbu_0, # of connection points: 6
#     Node 3, Type 0, BuildingBlock: INOVEN_clean_sbu_0, # of connection points: 6
#     Edge 4, Type (0, 0), BuildingBlock: CIFDUS_clean_linker_0, # of connection points: 2
#     Edge 5, Type (0, 0), BuildingBlock: CIFDUS_clean_linker_0, # of connection points: 2
#     Edge 6, Type (0, 0), BuildingBlock: CIFDUS_clean_linker_0, # of connection points: 2
#     Edge 7, Type (0, 0), BuildingBlock: CIFDUS_clean_linker_0, # of connection points: 2
#     Edge 8, Type (0, 0), BuildingBlock: CIFDUS_clean_linker_0, # of connection points: 2
#     Edge 9, Type (0, 0), BuildingBlock: CIFDUS_clean_linker_0, # of connection points: 2
#     Edge 10, Type (0, 0), BuildingBlock: CIFDUS_clean_linker_0, # of connection points: 2
#     Edge 11, Type (0, 0), BuildingBlock: CIFDUS_clean_linker_0, # of connection points: 2
#     Edge 12, Type (0, 0), BuildingBlock: CIFDUS_clean_linker_0, # of connection points: 2
#     Edge 13, Type (0, 0), BuildingBlock: CIFDUS_clean_linker_0, # of connection points: 2
#     Edge 14, Type (0, 0), BuildingBlock: CIFDUS_clean_linker_0, # of connection points: 2
#     Edge 15, Type (0, 0), BuildingBlock: CIFDUS_clean_linker_0, # of connection points: 2
# Relax obj value: 0.158
# Max RMSD: 0.205
# Mean RMSD: 0.205
data_MOF--net-rob--node1-INOVEN_clean_sbu_0--edge1-CIFDUS_clean_linker_0
_symmetry_space_group_name_H-M    P1
_symmetry_Int_Tables_number       1
_symmetry_cell_setting            triclinic
loop_
_symmetry_equiv_pos_as_xyz
'x, y, z'
_cell_length_a     15.349283
_cell_length_b     20.144022
_cell_length_c     33.7982
_cell_angle_alpha  89.828315
_cell_angle_beta   129.23221
_cell_angle_gamma 90.50221
loop_
_atom_site_label
_atom_site_type_symbol
_atom_site_fract_x
_atom_site_fract_y
_atom_site_fract_z
_atom_type_partial_charge
Gd0 Gd 0.14804 0.3088 0.99342 0.0
Gd1 Gd 0.34632 0.24198 0.01044 0.0
C2 C 0.36465 0.2637 0.10778 0.0
C3 C 0.99981 0.34326 1.00263 0.0
C4 C 0.99491 0.33605 0.04486 0.0
C5 C 0.98445 0.39271 0.06561 0.0
C6 C 1.00955 0.27405 0.0675 0.0
C7 C 1.00904 0.32616 0.13253 0.0
C8 C 1.01597 0.26916 0.1106 0.0
C9 C 0.99176 0.38794 0.10898 0.0
C10 C 0.28526 0.39355 0.99287 0.0
C11 C 0.12066 0.28476 0.89624 0.0
C12 C 0.49409 0.2101 0.99917 0.0
C13 C 0.50344 0.21507 0.95772 0.0
C14 C 0.55136 0.16297 0.94973 0.0
C15 C 0.46291 0.27034 0.92511 0.0
C16 C 0.5139 0.21994 0.87609 0.0
C17 C 0.46806 0.27271 0.88498 0.0
C18 C 0.55692 0.1654 0.90968 0.0
C19 C 0.20044 0.15725 1.00553 0.0
O20 O 0.2556 0.27326 0.07394 0.0
O21 O 0.4277 0.25603 0.09383 0.0
O22 O 0.07775 0.38373 0.01172 0.0
O23 O 0.99096 0.28896 0.97901 0.0
O24 O 0.17697 0.39968 0.96444 0.0
O25 O 0.31793 0.3446 0.02298 0.0
O26 O 0.23063 0.27595 0.92839 0.0
O27 O 0.06103 0.2894 0.91176 0.0
O28 O 0.41809 0.16887 0.99113 0.0
O29 O 0.49866 0.26526 0.02089 0.0
O30 O 0.30861 0.14842 0.03513 0.0
O31 O 0.17496 0.20806 0.97818 0.0
H32 H 0.97383 0.44115 0.0491 0.0
H33 H 1.01857 0.22936 0.05266 0.0
H34 H 0.02713 0.22055 0.1269 0.0
H35 H 0.98742 0.43312 0.1249 0.0
H36 H 0.58341 0.11971 0.97419 0.0
H37 H 0.42632 0.31162 0.93034 0.0
H38 H 0.43621 0.31626 0.86089 0.0
H39 H 0.59216 0.12357 0.9042 0.0
Gd40 Gd 0.69361 0.78358 1.00485 0.0
Gd41 Gd 0.87751 0.7134 0.01347 0.0
C42 C 0.91893 0.73447 0.11533 0.0
C43 C 0.55123 0.82134 0.01753 0.0
C44 C 0.54195 0.8145 0.0584 0.0
C45 C 0.49211 0.86508 0.06636 0.0
C46 C 0.58682 0.75939 0.09112 0.0
C47 C 0.53698 0.80717 0.14077 0.0
C48 C 0.58446 0.75581 0.13185 0.0
C49 C 0.48919 0.86138 0.10697 0.0
C50 C 0.83641 0.86549 1.00509 0.0
C51 C 0.64917 0.75947 0.90227 0.0
C52 C 1.02011 0.67719 1.00096 0.0
C53 C 1.02635 0.68312 0.95905 0.0
C54 C 0.02908 0.6255 0.93661 0.0
C55 C 1.02567 0.7453 0.93984 0.0
C56 C 0.02682 0.69183 0.87536 0.0
C57 C 0.02649 0.74957 0.89872 0.0
C58 C 0.02873 0.62971 0.89516 0.0
C59 C 0.74396 0.63068 0.01809 0.0
O60 O 0.80991 0.74585 0.08555 0.0
O61 O 0.9728 0.72909 0.09688 0.0
O62 O 0.63407 0.85866 0.02854 0.0
O63 O 0.53849 0.76721 0.99295 0.0
O64 O 0.72894 0.87525 0.97739 0.0
O65 O 0.86319 0.81473 0.03255 0.0
O66 O 0.75825 0.74816 0.93181 0.0
O67 O 0.5971 0.76747 0.92138 0.0
O68 O 0.94096 0.63802 0.992 0.0
O69 O 0.03146 0.73178 0.02487 0.0
O70 O 0.85118 0.62269 0.04381 0.0
O71 O 0.71038 0.68019 0.98847 0.0
H72 H 0.45713 0.90812 0.04165 0.0
H73 H 0.6249 0.71943 0.08556 0.0
H74 H 0.61997 0.71275 0.15646 0.0
H75 H 0.45258 0.90198 0.11283 0.0
H76 H 0.02943 0.57694 0.95059 0.0
H77 H 1.02357 0.79079 0.95623 0.0
H78 H 0.02715 0.79835 0.88538 0.0
H79 H 0.02723 0.58402 0.87795 0.0
Gd80 Gd 0.35871 0.77892 0.5103 0.0
Gd81 Gd 0.17782 0.70506 0.50098 0.0
C82 C 0.13404 0.72991 0.3989 0.0
C83 C 0.49367 0.82004 0.49371 0.0
C84 C 0.48864 0.82056 0.44814 0.0
C85 C 0.43251 0.87146 0.41157 0.0
C86 C 0.5396 0.77005 0.44057 0.0
C87 C 0.47633 0.82064 0.36051 0.0
C88 C 0.53337 0.77003 0.39733 0.0
C89 C 0.42623 0.8714 0.36837 0.0
C90 C 0.21583 0.85817 0.51061 0.0
C91 C 0.40653 0.75207 0.61285 0.0
C92 C 0.03764 0.66375 0.5142 0.0
C93 C 0.0364 0.66437 0.55765 0.0
C94 C 1.0186 0.60472 0.57327 0.0
C95 C 0.05847 0.72279 0.58547 0.0
C96 C 0.04728 0.6613 0.6444 0.0
C97 C 0.06315 0.7213 0.62822 0.0
C98 C 1.0246 0.6031 0.61633 0.0
C99 C 0.31082 0.62493 0.49534 0.0
O100 O 0.24205 0.74455 0.42901 0.0
O101 O 0.08045 0.72012 0.41721 0.0
O102 O 0.42399 0.85887 0.49232 0.0
O103 O 0.50354 0.76227 0.51396 0.0
O104 O 0.32359 0.8684 0.53889 0.0
O105 O 0.18848 0.80796 0.48233 0.0
O106 O 0.29775 0.73866 0.58326 0.0
O107 O 0.4582 0.76201 0.59368 0.0
O108 O 0.11313 0.62568 0.51972 0.0
O109 O 0.02791 0.72085 0.49315 0.0
O110 O 0.20325 0.61691 0.46904 0.0
O111 O 0.34546 0.6737 0.52599 0.0
H112 H 0.39312 0.9116 0.4162 0.0
H113 H 0.5839 0.73019 0.46798 0.0
H114 H 0.57199 0.72971 0.39241 0.0
H115 H 0.3832 0.91181 0.34142 0.0
H116 H 1.00173 0.55902 0.55256 0.0
H117 H 0.07394 0.76945 0.57476 0.0
H118 H 0.08204 0.76679 0.64941 0.0
H119 H 1.01141 0.55623 0.62768 0.0
Gd120 Gd 0.89837 0.30098 0.51859 0.0
Gd121 Gd 0.70957 0.23028 0.50671 0.0
C122 C 0.68027 0.246 0.40696 0.0
C123 C 0.04015 0.34155 0.50615 0.0
C124 C 0.04085 0.34209 0.46247 0.0
C125 C 0.0512 0.40293 0.44529 0.0
C126 C 1.02426 0.28369 0.43561 0.0
C127 C 1.02384 0.34765 0.37409 0.0
C128 C 1.01662 0.28645 0.39204 0.0
C129 C 0.04207 0.40576 0.40142 0.0
C130 C 0.76014 0.38362 0.51896 0.0
C131 C 0.93487 0.28058 0.6186 0.0
C132 C 0.57333 0.19662 0.52481 0.0
C133 C 0.57785 0.19792 0.57065 0.0
C134 C 0.6261 0.14531 0.60601 0.0
C135 C 0.53166 0.25081 0.57906 0.0
C136 C 0.58343 0.19873 0.65716 0.0
C137 C 0.53443 0.25123 0.62158 0.0
C138 C 0.6291 0.14579 0.64848 0.0
C139 C 0.8565 0.14786 0.51195 0.0
O140 O 0.78855 0.26026 0.43875 0.0
O141 O 0.62039 0.24051 0.42268 0.0
O142 O 0.96601 0.38015 0.50133 0.0
O143 O 0.04829 0.28405 0.52644 0.0
O144 O 0.86807 0.39131 0.54669 0.0
O145 O 0.72762 0.33346 0.48965 0.0
O146 O 0.82635 0.26718 0.58728 0.0
O147 O 0.99229 0.2878 0.60201 0.0
O148 O 0.63903 0.15478 0.52557 0.0
O149 O 0.56757 0.25343 0.50435 0.0
O150 O 0.74873 0.13695 0.48339 0.0
O151 O 0.88195 0.19988 0.53843 0.0
H152 H 0.06391 0.44864 0.46523 0.0
H153 H 1.01483 0.23606 0.44754 0.0
H154 H 1.00156 0.24095 0.37147 0.0
H155 H 0.0487 0.45353 0.38868 0.0
H156 H 0.66143 0.1032 0.60084 0.0
H157 H 0.49318 0.29212 0.55271 0.0
H158 H 0.4994 0.29334 0.62689 0.0
H159 H 0.666 0.10382 0.67418 0.0
H160 H 0.51333 0.62703 0.95923 0.0
H161 H 0.81417 0.52451 0.08091 0.0
H162 H 0.70181 0.44216 0.08447 0.0
H163 H 0.51665 0.39803 0.05298 0.0
H164 H 0.21596 0.50015 0.93068 0.0
H165 H 0.32856 0.58282 0.92767 0.0
C166 C 0.55414 0.58677 0.98657 0.0
C167 C 0.67217 0.5822 0.01966 0.0
C168 C 0.48866 0.53895 0.98838 0.0
C169 C 0.7235 0.52943 0.05483 0.0
C170 C 0.65923 0.48208 0.05696 0.0
C171 C 0.47592 0.43823 0.02562 0.0
C172 C 0.35779 0.44254 0.99216 0.0
C173 C 0.54154 0.48608 0.02386 0.0
C174 C 0.30664 0.49533 0.95701 0.0
C175 C 0.37103 0.54289 0.95518 0.0
H176 H 0.54225 0.62039 0.55353 0.0
H177 H 0.23672 0.51734 0.43336 0.0
H178 H 0.34456 0.43347 0.42944 0.0
H179 H 0.52763 0.38798 0.45995 0.0
H180 H 0.83274 0.49115 0.58042 0.0
H181 H 0.7248 0.57497 0.58406 0.0
C182 C 0.49942 0.57967 0.52648 0.0
C183 C 0.38118 0.57551 0.49394 0.0
C184 C 0.56246 0.53096 0.52428 0.0
C185 C 0.32751 0.52208 0.45908 0.0
C186 C 0.38929 0.47379 0.45672 0.0
C187 C 0.57029 0.42872 0.48699 0.0
C188 C 0.68862 0.43292 0.51969 0.0
C189 C 0.50706 0.47744 0.48913 0.0
C190 C 0.74199 0.48639 0.55452 0.0
C191 C 0.68014 0.53466 0.55676 0.0
H192 H 0.24387 0.04119 0.05716 0.0
H193 H 0.97065 0.1645 0.9396 0.0
H194 H 0.83458 0.08593 0.92892 0.0
H195 H 0.79223 0.98131 0.95279 0.0
H196 H 0.06573 0.85764 0.06983 0.0
H197 H 0.20159 0.93619 0.08045 0.0
C198 C 0.15454 0.05091 0.02923 0.0
C199 C 0.1179 0.10914 0.99946 0.0
C200 C 0.07636 1.00496 0.02296 0.0
C201 C 1.0016 0.12059 0.96334 0.0
C202 C 0.92352 0.07543 0.95708 0.0
C203 C 0.88157 0.97151 0.98055 0.0
C204 C 0.91835 0.9133 0.01038 0.0
C205 C 0.95973 0.01734 0.98663 0.0
C206 C 0.03465 0.90164 0.04617 0.0
C207 C 0.11264 0.94678 0.05239 0.0
H208 H 0.81174 0.03065 0.46124 0.0
H209 H 0.08657 0.15827 0.57554 0.0
H210 H 0.2212 0.0806 0.58553 0.0
H211 H 0.26178 0.97541 0.56205 0.0
H212 H 0.98633 0.84822 0.44751 0.0
H213 H 0.85213 0.92578 0.43777 0.0
C214 C 0.90112 0.04152 0.48836 0.0
C215 C 0.93858 0.10057 0.51759 0.0
C216 C 0.97842 0.99623 0.49406 0.0
C217 C 0.05495 0.11355 0.55246 0.0
C218 C 0.13218 0.06892 0.55825 0.0
C219 C 0.17238 0.96459 0.535 0.0
C220 C 0.13465 0.9056 0.50564 0.0
C221 C 0.0951 0.00995 0.52935 0.0
C222 C 1.01822 0.89279 0.47076 0.0
C223 C 0.94118 0.93737 0.46508 0.0
H224 H 0.46925 0.27703 0.32114 0.0
H225 H 0.78317 0.19404 0.37239 0.0
H226 H 0.71621 0.19171 0.28497 0.0
H227 H 0.57046 0.21834 0.19333 0.0
H228 H 0.26021 0.30598 0.14418 0.0
H229 H 0.32354 0.30162 0.2302 0.0
C230 C 0.52182 0.25727 0.31291 0.0
C231 C 0.63048 0.23566 0.35305 0.0
C232 C 0.48399 0.25761 0.26257 0.0
C233 C 0.6988 0.21117 0.34199 0.0
C234 C 0.66088 0.21003 0.29199 0.0
C235 C 0.51711 0.23651 0.20155 0.0
C236 C 0.41057 0.26193 0.16188 0.0
C237 C 0.5542 0.23427 0.25189 0.0
C238 C 0.34237 0.28523 0.17347 0.0
C239 C 0.37829 0.2829 0.22294 0.0
H240 H 0.37108 0.83867 0.14614 0.0
H241 H 0.71469 0.77283 0.23838 0.0
H242 H 0.72584 0.7696 0.31361 0.0
H243 H 0.63969 0.78773 0.35401 0.0
H244 H 0.29613 0.85418 0.26218 0.0
H245 H 0.28411 0.85602 0.18665 0.0
C246 C 0.4485 0.82384 0.18274 0.0
C247 C 0.54164 0.8053 0.18631 0.0
C248 C 0.45462 0.82258 0.22619 0.0
C249 C 0.64098 0.78586 0.23413 0.0
C250 C 0.64772 0.78455 0.27737 0.0
C251 C 0.56167 0.80193 0.31742 0.0
C252 C 0.46903 0.82072 0.31415 0.0
C253 C 0.55511 0.80278 0.27391 0.0
C254 C 0.36943 0.84016 0.2663 0.0
C255 C 0.36219 0.84095 0.22286 0.0
H256 H 0.73607 0.76457 0.85319 0.0
H257 H 0.4206 0.76103 0.82605 0.0
H258 H 0.31811 0.75961 0.73388 0.0
H259 H 0.31888 0.7562 0.66168 0.0
H260 H 0.63468 0.75977 0.68908 0.0
H261 H 0.73657 0.76432 0.78114 0.0
C262 C 0.64482 0.76369 0.82724 0.0
C263 C 0.58602 0.76263 0.84652 0.0
C264 C 0.58672 0.76278 0.77451 0.0
C265 C 0.46787 0.76202 0.81224 0.0
C266 C 0.40928 0.76102 0.75956 0.0
C267 C 0.41008 0.75805 0.68767 0.0
C268 C 0.46913 0.75727 0.66849 0.0
C269 C 0.46799 0.76085 0.74037 0.0
C270 C 0.58718 0.76033 0.70278 0.0
C271 C 0.64549 0.76288 0.75538 0.0
H272 H 0.42416 0.2427 0.66457 0.0
H273 H 0.75405 0.15543 0.75475 0.0
H274 H 0.7623 0.15375 0.82926 0.0
H275 H 0.67637 0.17726 0.86991 0.0
H276 H 0.34611 0.26347 0.7791 0.0
H277 H 0.33889 0.26638 0.70504 0.0
C278 C 0.49852 0.22385 0.70054 0.0
C279 C 0.58814 0.19909 0.70327 0.0
C280 C 0.50306 0.22302 0.74376 0.0
C281 C 0.68267 0.17398 0.7506 0.0
C282 C 0.6879 0.17331 0.79363 0.0
C283 C 0.6025 0.19643 0.83391 0.0
C284 C 0.51221 0.22091 0.83085 0.0
C285 C 0.59843 0.19746 0.79076 0.0
C286 C 0.41798 0.24582 0.7835 0.0
C287 C 0.41337 0.24697 0.74071 0.0
H288 H 0.82755 0.70516 0.16008 0.0
H289 H 0.14493 0.74678 0.19374 0.0
H290 H 0.23972 0.74559 0.28527 0.0
H291 H 0.22905 0.74114 0.35393 0.0
H292 H 0.91138 0.70096 0.32073 0.0
H293 H 0.81955 0.69245 0.22968 0.0
C294 C 0.91748 0.71409 0.18737 0.0
C295 C 0.97907 0.72725 0.17033 0.0
C296 C 0.97067 0.71416 0.2395 0.0
C297 C 0.09586 0.73691 0.20606 0.0
C298 C 0.14977 0.73664 0.25822 0.0
C299 C 0.13944 0.73068 0.327 0.0
C300 C 0.0766 0.72264 0.34403 0.0
C301 C 0.08737 0.72679 0.27512 0.0
C302 C 0.96122 0.70812 0.30851 0.0
C303 C 0.90874 0.70349 0.25656 0.0
H304 H 0.12607 0.27323 0.34683 0.0
H305 H 0.88696 0.43071 0.29355 0.0
H306 H 0.85947 0.43729 0.21404 0.0
H307 H 0.90205 0.39769 0.15934 0.0
H308 H 0.14947 0.24427 0.21471 0.0
H309 H 0.17317 0.23598 0.29294 0.0
C310 C 0.06768 0.30875 0.31766 0.0
C311 C 1.0086 0.35137 0.32606 0.0
C312 C 0.0532 0.31277 0.27221 0.0
C313 C 0.93415 0.39773 0.28819 0.0
C314 C 0.91806 0.40134 0.24264 0.0
C315 C 0.96207 0.36285 0.18861 0.0
C316 C 1.02305 0.32139 0.18049 0.0
C317 C 0.97726 0.35918 0.23423 0.0
C318 C 0.09928 0.27595 0.219 0.0
C319 C 0.11376 0.27147 0.26414 0.0
H320 H 0.83383 0.26394 0.6601 0.0
H321 H 0.15195 0.31923 0.69815 0.0
H322 H 0.23411 0.33227 0.78792 0.0
H323 H 0.21864 0.31838 0.85524 0.0
H324 H 0.89959 0.26293 0.81574 0.0
H325 H 0.8139 0.2596 0.72543 0.0
C326 C 0.92156 0.27864 0.68776 0.0
C327 C 0.98754 0.28955 0.67267 0.0
C328 C 0.96797 0.2851 0.73866 0.0
C329 C 0.10022 0.30946 0.70908 0.0
C330 C 0.1471 0.31671 0.7602 0.0
C331 C 0.13033 0.30553 0.82685 0.0
C332 C 0.06566 0.28962 0.84186 0.0
C333 C 0.08229 0.30311 0.77542 0.0
C334 C 0.95081 0.27489 0.80486 0.0
C335 C 0.90217 0.2726 0.75345 0.0
H336 H 0.95345 0.7454 0.67093 0.0
H337 H 0.1615 0.57172 0.72231 0.0
H338 H 0.1755 0.56649 0.79843 0.0
H339 H 0.12876 0.61117 0.85037 0.0
H340 H 0.91477 0.78275 0.7973 0.0
H341 H 0.90506 0.78947 0.7227 0.0
C342 C 1.00244 0.7067 0.69899 0.0
C343 C 0.0562 0.65899 0.69089 0.0
C344 C 1.00951 0.7037 0.74256 0.0
C345 C 0.1183 0.60864 0.72733 0.0
C346 C 0.12675 0.60579 0.77099 0.0
C347 C 0.07904 0.64975 0.82238 0.0
C348 C 1.02266 0.6963 0.82996 0.0
C349 C 0.0723 0.65289 0.77891 0.0
C350 C 0.96046 0.74658 0.7933 0.0
C351 C 0.95416 0.75032 0.75024 0.0
loop_
_geom_bond_atom_site_label_1
_geom_bond_atom_site_label_2
_geom_bond_distance
_geom_bond_site_symmetry_2
_ccdc_geom_bond_type
Gd0 C3 2.818 1_556 S
Gd0 O20 2.377 1_556 S
Gd0 O22 2.448 1_556 S
Gd0 O23 2.506 1_556 S
Gd0 O24 2.435 1_556 S
Gd0 O25 2.719 . S
Gd0 O27 2.395 . S
Gd0 O31 2.328 1_556 S
Gd1 C12 2.818 1_554 S
Gd1 O21 2.395 . S
Gd1 O25 2.327 1_554 S
Gd1 O26 2.377 1_554 S
Gd1 O28 2.448 1_554 S
Gd1 O29 2.506 1_554 S
Gd1 O30 2.435 1_554 S
Gd1 O31 2.715 . S
C2 O20 1.240 . S
C2 O21 1.240 . S
C3 Gd0 2.818 1_554 S
C3 C4 1.510 . S
C3 O22 1.249 . S
C3 O23 1.252 . S
C4 C3 1.510 . S
C4 C5 1.404 . S
C4 C6 1.352 . S
C5 C4 1.404 . S
C5 C9 1.389 . S
C5 H32 0.930 . S
C6 C4 1.352 . S
C6 C8 1.374 . S
C6 H33 0.931 . S
C7 C8 1.359 . S
C7 C9 1.364 . S
C8 C6 1.374 . S
C8 C7 1.359 . S
C8 H34 0.931 . S
C9 C5 1.389 . S
C9 C7 1.364 . S
C9 H35 0.931 . S
C10 O24 1.256 . S
C10 O25 1.258 1_554 S
C11 O26 1.240 . S
C11 O27 1.240 . S
C12 Gd1 2.818 1_556 S
C12 C13 1.510 . S
C12 O28 1.249 . S
C12 O29 1.252 . S
C13 C12 1.510 . S
C13 C14 1.404 . S
C13 C15 1.352 . S
C14 C13 1.404 . S
C14 C18 1.389 . S
C14 H36 0.930 . S
C15 C13 1.352 . S
C15 C17 1.374 . S
C15 H37 0.931 . S
C16 C17 1.359 . S
C16 C18 1.364 . S
C17 C15 1.374 . S
C17 C16 1.359 . S
C17 H38 0.931 . S
C18 C14 1.389 . S
C18 C16 1.364 . S
C18 H39 0.931 . S
C19 O30 1.256 . S
C19 O31 1.257 1_556 S
O20 Gd0 2.377 1_554 S
O20 C2 1.240 . S
O21 Gd1 2.395 . S
O21 C2 1.240 . S
O22 Gd0 2.448 1_554 S
O22 C3 1.249 . S
O23 Gd0 2.506 1_554 S
O23 C3 1.252 . S
O24 Gd0 2.435 1_554 S
O24 C10 1.256 . S
O25 Gd0 2.719 . S
O25 Gd1 2.327 1_556 S
O25 C10 1.258 1_556 S
O26 Gd1 2.377 1_556 S
O26 C11 1.240 . S
O27 Gd0 2.395 . S
O27 C11 1.240 . S
O28 Gd1 2.448 1_556 S
O28 C12 1.249 . S
O29 Gd1 2.506 1_556 S
O29 C12 1.252 . S
O30 Gd1 2.435 1_556 S
O30 C19 1.256 . S
O31 Gd0 2.328 1_554 S
O31 Gd1 2.715 . S
O31 C19 1.257 1_554 S
H32 C5 0.930 . S
H33 C6 0.931 . S
H34 C8 0.931 . S
H35 C9 0.931 . S
H36 C14 0.930 . S
H37 C15 0.931 . S
H38 C17 0.931 . S
H39 C18 0.931 . S
Gd40 C43 2.818 1_556 S
Gd40 O60 2.377 1_556 S
Gd40 O62 2.448 1_556 S
Gd40 O63 2.506 1_556 S
Gd40 O64 2.435 1_556 S
Gd40 O65 2.719 . S
Gd40 O67 2.395 . S
Gd40 O71 2.328 1_556 S
Gd41 C52 2.818 1_554 S
Gd41 O61 2.395 . S
Gd41 O65 2.327 1_554 S
Gd41 O66 2.377 1_554 S
Gd41 O68 2.448 1_554 S
Gd41 O69 2.506 1_554 S
Gd41 O70 2.435 1_554 S
Gd41 O71 2.715 . S
C42 O60 1.240 . S
C42 O61 1.240 . S
C43 Gd40 2.818 1_554 S
C43 C44 1.510 . S
C43 O62 1.249 . S
C43 O63 1.252 . S
C44 C43 1.510 . S
C44 C45 1.404 . S
C44 C46 1.352 . S
C45 C44 1.404 . S
C45 C49 1.389 . S
C45 H72 0.930 . S
C46 C44 1.352 . S
C46 C48 1.374 . S
C46 H73 0.931 . S
C47 C48 1.359 . S
C47 C49 1.364 . S
C48 C46 1.374 . S
C48 C47 1.359 . S
C48 H74 0.931 . S
C49 C45 1.389 . S
C49 C47 1.364 . S
C49 H75 0.931 . S
C50 O64 1.256 . S
C50 O65 1.258 1_554 S
C51 O66 1.240 . S
C51 O67 1.240 . S
C52 Gd41 2.818 1_556 S
C52 C53 1.510 . S
C52 O68 1.249 . S
C52 O69 1.252 . S
C53 C52 1.510 . S
C53 C54 1.404 . S
C53 C55 1.352 . S
C54 C53 1.404 . S
C54 C58 1.389 . S
C54 H76 0.930 . S
C55 C53 1.352 . S
C55 C57 1.374 . S
C55 H77 0.931 . S
C56 C57 1.359 . S
C56 C58 1.364 . S
C57 C55 1.374 . S
C57 C56 1.359 . S
C57 H78 0.931 . S
C58 C54 1.389 . S
C58 C56 1.364 . S
C58 H79 0.931 . S
C59 O70 1.256 . S
C59 O71 1.257 1_556 S
O60 Gd40 2.377 1_554 S
O60 C42 1.240 . S
O61 Gd41 2.395 . S
O61 C42 1.240 . S
O62 Gd40 2.448 1_554 S
O62 C43 1.249 . S
O63 Gd40 2.506 1_554 S
O63 C43 1.252 . S
O64 Gd40 2.435 1_554 S
O64 C50 1.256 . S
O65 Gd40 2.719 . S
O65 Gd41 2.327 1_556 S
O65 C50 1.258 1_556 S
O66 Gd41 2.377 1_556 S
O66 C51 1.240 . S
O67 Gd40 2.395 . S
O67 C51 1.240 . S
O68 Gd41 2.448 1_556 S
O68 C52 1.249 . S
O69 Gd41 2.506 1_556 S
O69 C52 1.252 . S
O70 Gd41 2.435 1_556 S
O70 C59 1.256 . S
O71 Gd40 2.328 1_554 S
O71 Gd41 2.715 . S
O71 C59 1.257 1_554 S
H72 C45 0.930 . S
H73 C46 0.931 . S
H74 C48 0.931 . S
H75 C49 0.931 . S
H76 C54 0.930 . S
H77 C55 0.931 . S
H78 C57 0.931 . S
H79 C58 0.931 . S
Gd80 C83 2.818 . S
Gd80 O100 2.377 . S
Gd80 O102 2.448 . S
Gd80 O103 2.506 . S
Gd80 O104 2.435 . S
Gd80 O105 2.717 . S
Gd80 O107 2.395 . S
Gd80 O111 2.327 . S
Gd81 C92 2.818 . S
Gd81 O101 2.395 . S
Gd81 O105 2.327 . S
Gd81 O106 2.377 . S
Gd81 O108 2.448 . S
Gd81 O109 2.506 . S
Gd81 O110 2.435 . S
Gd81 O111 2.717 . S
C82 O100 1.240 . S
C82 O101 1.240 . S
C83 Gd80 2.818 . S
C83 C84 1.510 . S
C83 O102 1.249 . S
C83 O103 1.252 . S
C84 C83 1.510 . S
C84 C85 1.404 . S
C84 C86 1.352 . S
C85 C84 1.404 . S
C85 C89 1.389 . S
C85 H112 0.930 . S
C86 C84 1.352 . S
C86 C88 1.374 . S
C86 H113 0.931 . S
C87 C88 1.359 . S
C87 C89 1.364 . S
C88 C86 1.374 . S
C88 C87 1.359 . S
C88 H114 0.931 . S
C89 C85 1.389 . S
C89 C87 1.364 . S
C89 H115 0.931 . S
C90 O104 1.256 . S
C90 O105 1.257 . S
C91 O106 1.240 . S
C91 O107 1.240 . S
C92 Gd81 2.818 . S
C92 C93 1.510 . S
C92 O108 1.249 . S
C92 O109 1.252 . S
C93 C92 1.510 . S
C93 C94 1.404 . S
C93 C95 1.352 . S
C94 C93 1.404 . S
C94 C98 1.389 . S
C94 H116 0.930 . S
C95 C93 1.352 . S
C95 C97 1.374 . S
C95 H117 0.931 . S
C96 C97 1.359 . S
C96 C98 1.364 . S
C97 C95 1.374 . S
C97 C96 1.359 . S
C97 H118 0.931 . S
C98 C94 1.389 . S
C98 C96 1.364 . S
C98 H119 0.931 . S
C99 O110 1.256 . S
C99 O111 1.257 . S
O100 Gd80 2.377 . S
O100 C82 1.240 . S
O101 Gd81 2.395 . S
O101 C82 1.240 . S
O102 Gd80 2.448 . S
O102 C83 1.249 . S
O103 Gd80 2.506 . S
O103 C83 1.252 . S
O104 Gd80 2.435 . S
O104 C90 1.256 . S
O105 Gd80 2.717 . S
O105 Gd81 2.327 . S
O105 C90 1.257 . S
O106 Gd81 2.377 . S
O106 C91 1.240 . S
O107 Gd80 2.395 . S
O107 C91 1.240 . S
O108 Gd81 2.448 . S
O108 C92 1.249 . S
O109 Gd81 2.506 . S
O109 C92 1.252 . S
O110 Gd81 2.435 . S
O110 C99 1.256 . S
O111 Gd80 2.327 . S
O111 Gd81 2.717 . S
O111 C99 1.257 . S
H112 C85 0.930 . S
H113 C86 0.931 . S
H114 C88 0.931 . S
H115 C89 0.931 . S
H116 C94 0.930 . S
H117 C95 0.931 . S
H118 C97 0.931 . S
H119 C98 0.931 . S
Gd120 C123 2.818 . S
Gd120 O140 2.377 . S
Gd120 O142 2.448 . S
Gd120 O143 2.506 . S
Gd120 O144 2.435 . S
Gd120 O145 2.717 . S
Gd120 O147 2.395 . S
Gd120 O151 2.327 . S
Gd121 C132 2.818 . S
Gd121 O141 2.395 . S
Gd121 O145 2.327 . S
Gd121 O146 2.377 . S
Gd121 O148 2.448 . S
Gd121 O149 2.506 . S
Gd121 O150 2.435 . S
Gd121 O151 2.717 . S
C122 O140 1.240 . S
C122 O141 1.240 . S
C123 Gd120 2.818 . S
C123 C124 1.510 . S
C123 O142 1.249 . S
C123 O143 1.252 . S
C124 C123 1.510 . S
C124 C125 1.404 . S
C124 C126 1.352 . S
C125 C124 1.404 . S
C125 C129 1.389 . S
C125 H152 0.930 . S
C126 C124 1.352 . S
C126 C128 1.374 . S
C126 H153 0.931 . S
C127 C128 1.359 . S
C127 C129 1.364 . S
C128 C126 1.374 . S
C128 C127 1.359 . S
C128 H154 0.931 . S
C129 C125 1.389 . S
C129 C127 1.364 . S
C129 H155 0.931 . S
C130 O144 1.256 . S
C130 O145 1.257 . S
C131 O146 1.240 . S
C131 O147 1.240 . S
C132 Gd121 2.818 . S
C132 C133 1.510 . S
C132 O148 1.249 . S
C132 O149 1.252 . S
C133 C132 1.510 . S
C133 C134 1.404 . S
C133 C135 1.352 . S
C134 C133 1.404 . S
C134 C138 1.389 . S
C134 H156 0.930 . S
C135 C133 1.352 . S
C135 C137 1.374 . S
C135 H157 0.931 . S
C136 C137 1.359 . S
C136 C138 1.364 . S
C137 C135 1.374 . S
C137 C136 1.359 . S
C137 H158 0.931 . S
C138 C134 1.389 . S
C138 C136 1.364 . S
C138 H159 0.931 . S
C139 O150 1.256 . S
C139 O151 1.257 . S
O140 Gd120 2.377 . S
O140 C122 1.240 . S
O141 Gd121 2.395 . S
O141 C122 1.240 . S
O142 Gd120 2.448 . S
O142 C123 1.249 . S
O143 Gd120 2.506 . S
O143 C123 1.252 . S
O144 Gd120 2.435 . S
O144 C130 1.256 . S
O145 Gd120 2.717 . S
O145 Gd121 2.327 . S
O145 C130 1.257 . S
O146 Gd121 2.377 . S
O146 C131 1.240 . S
O147 Gd120 2.395 . S
O147 C131 1.240 . S
O148 Gd121 2.448 . S
O148 C132 1.249 . S
O149 Gd121 2.506 . S
O149 C132 1.252 . S
O150 Gd121 2.435 . S
O150 C139 1.256 . S
O151 Gd120 2.327 . S
O151 Gd121 2.717 . S
O151 C139 1.257 . S
H152 C125 0.930 . S
H153 C126 0.931 . S
H154 C128 0.931 . S
H155 C129 0.931 . S
H156 C134 0.930 . S
H157 C135 0.931 . S
H158 C137 0.931 . S
H159 C138 0.931 . S
H160 C166 0.930 . S
H161 C169 0.930 . S
H162 C170 0.930 . S
H163 C171 0.930 . S
H164 C174 0.930 . S
H165 C175 0.930 . S
C166 H160 0.930 . S
C166 C167 1.355 . S
C166 C168 1.415 . S
C167 C166 1.355 . S
C167 C169 1.419 1_556 S
C168 C166 1.415 . S
C168 C173 1.425 1_556 S
C168 C175 1.409 . S
C169 H161 0.930 . S
C169 C167 1.419 1_554 S
C169 C170 1.362 . S
C170 H162 0.930 . S
C170 C169 1.362 . S
C170 C173 1.409 . S
C171 H163 0.930 . S
C171 C172 1.355 . S
C171 C173 1.415 . S
C172 C171 1.355 . S
C172 C174 1.419 1_554 S
C173 C168 1.425 1_554 S
C173 C170 1.409 . S
C173 C171 1.415 . S
C174 H164 0.930 . S
C174 C172 1.419 1_556 S
C174 C175 1.362 . S
C175 H165 0.930 . S
C175 C168 1.409 . S
C175 C174 1.362 . S
H176 C182 0.930 . S
H177 C185 0.930 . S
H178 C186 0.930 . S
H179 C187 0.930 . S
H180 C190 0.930 . S
H181 C191 0.930 . S
C182 H176 0.930 . S
C182 C183 1.355 . S
C182 C184 1.415 . S
C183 C182 1.355 . S
C183 C185 1.419 . S
C184 C182 1.415 . S
C184 C189 1.425 . S
C184 C191 1.409 . S
C185 H177 0.930 . S
C185 C183 1.419 . S
C185 C186 1.362 . S
C186 H178 0.930 . S
C186 C185 1.362 . S
C186 C189 1.409 . S
C187 H179 0.930 . S
C187 C188 1.355 . S
C187 C189 1.415 . S
C188 C187 1.355 . S
C188 C190 1.419 . S
C189 C184 1.425 . S
C189 C186 1.409 . S
C189 C187 1.415 . S
C190 H180 0.930 . S
C190 C188 1.419 . S
C190 C191 1.362 . S
C191 H181 0.930 . S
C191 C184 1.409 . S
C191 C190 1.362 . S
H192 C198 0.930 . S
H193 C201 0.930 . S
H194 C202 0.930 . S
H195 C203 0.930 . S
H196 C206 0.930 . S
H197 C207 0.930 . S
C198 H192 0.930 . S
C198 C199 1.355 1_554 S
C198 C200 1.415 1_545 S
C199 C198 1.355 1_556 S
C199 C201 1.419 1_455 S
C200 C198 1.415 1_565 S
C200 C205 1.425 1_464 S
C200 C207 1.409 . S
C201 H193 0.930 . S
C201 C199 1.419 1_655 S
C201 C202 1.362 . S
C202 H194 0.930 . S
C202 C201 1.362 . S
C202 C205 1.409 . S
C203 H195 0.930 . S
C203 C204 1.355 1_556 S
C203 C205 1.415 1_565 S
C204 C203 1.355 1_554 S
C204 C206 1.419 1_655 S
C205 C200 1.425 1_646 S
C205 C202 1.409 . S
C205 C203 1.415 1_545 S
C206 H196 0.930 . S
C206 C204 1.419 1_455 S
C206 C207 1.362 . S
C207 H197 0.930 . S
C207 C200 1.409 . S
C207 C206 1.362 . S
H208 C214 0.930 . S
H209 C217 0.930 . S
H210 C218 0.930 . S
H211 C219 0.930 . S
H212 C222 0.930 . S
H213 C223 0.930 . S
C214 H208 0.930 . S
C214 C215 1.355 . S
C214 C216 1.415 1_545 S
C215 C214 1.355 . S
C215 C217 1.419 . S
C216 C214 1.415 1_565 S
C216 C221 1.425 1_665 S
C216 C223 1.409 1_655 S
C217 H209 0.930 . S
C217 C215 1.419 . S
C217 C218 1.362 . S
C218 H210 0.930 . S
C218 C217 1.362 . S
C218 C221 1.409 1_655 S
C219 H211 0.930 . S
C219 C220 1.355 . S
C219 C221 1.415 1_565 S
C220 C219 1.355 . S
C220 C222 1.419 . S
C221 C216 1.425 1_445 S
C221 C218 1.409 1_455 S
C221 C219 1.415 1_545 S
C222 H212 0.930 . S
C222 C220 1.419 . S
C222 C223 1.362 . S
C223 H213 0.930 . S
C223 C216 1.409 1_455 S
C223 C222 1.362 . S
H224 C230 0.930 . S
H225 C233 0.930 . S
H226 C234 0.930 . S
H227 C235 0.930 . S
H228 C238 0.930 . S
H229 C239 0.930 . S
C230 H224 0.930 . S
C230 C231 1.355 . S
C230 C232 1.415 . S
C231 C230 1.355 . S
C231 C233 1.419 . S
C232 C230 1.415 . S
C232 C237 1.425 . S
C232 C239 1.409 . S
C233 H225 0.930 . S
C233 C231 1.419 . S
C233 C234 1.362 . S
C234 H226 0.930 . S
C234 C233 1.362 . S
C234 C237 1.409 . S
C235 H227 0.930 . S
C235 C236 1.355 . S
C235 C237 1.415 . S
C236 C235 1.355 . S
C236 C238 1.419 . S
C237 C232 1.425 . S
C237 C234 1.409 . S
C237 C235 1.415 . S
C238 H228 0.930 . S
C238 C236 1.419 . S
C238 C239 1.362 . S
C239 H229 0.930 . S
C239 C232 1.409 . S
C239 C238 1.362 . S
H240 C246 0.930 . S
H241 C249 0.930 . S
H242 C250 0.930 . S
H243 C251 0.930 . S
H244 C254 0.930 . S
H245 C255 0.930 . S
C246 H240 0.930 . S
C246 C247 1.355 . S
C246 C248 1.415 . S
C247 C246 1.355 . S
C247 C249 1.419 . S
C248 C246 1.415 . S
C248 C253 1.425 . S
C248 C255 1.409 . S
C249 H241 0.930 . S
C249 C247 1.419 . S
C249 C250 1.362 . S
C250 H242 0.930 . S
C250 C249 1.362 . S
C250 C253 1.409 . S
C251 H243 0.930 . S
C251 C252 1.355 . S
C251 C253 1.415 . S
C252 C251 1.355 . S
C252 C254 1.419 . S
C253 C248 1.425 . S
C253 C250 1.409 . S
C253 C251 1.415 . S
C254 H244 0.930 . S
C254 C252 1.419 . S
C254 C255 1.362 . S
C255 H245 0.930 . S
C255 C248 1.409 . S
C255 C254 1.362 . S
H256 C262 0.930 . S
H257 C265 0.930 . S
H258 C266 0.930 . S
H259 C267 0.930 . S
H260 C270 0.930 . S
H261 C271 0.930 . S
C262 H256 0.930 . S
C262 C263 1.355 . S
C262 C264 1.415 . S
C263 C262 1.355 . S
C263 C265 1.419 . S
C264 C262 1.415 . S
C264 C269 1.425 . S
C264 C271 1.409 . S
C265 H257 0.930 . S
C265 C263 1.419 . S
C265 C266 1.362 . S
C266 H258 0.930 . S
C266 C265 1.362 . S
C266 C269 1.409 . S
C267 H259 0.930 . S
C267 C268 1.355 . S
C267 C269 1.415 . S
C268 C267 1.355 . S
C268 C270 1.419 . S
C269 C264 1.425 . S
C269 C266 1.409 . S
C269 C267 1.415 . S
C270 H260 0.930 . S
C270 C268 1.419 . S
C270 C271 1.362 . S
C271 H261 0.930 . S
C271 C264 1.409 . S
C271 C270 1.362 . S
H272 C278 0.930 . S
H273 C281 0.930 . S
H274 C282 0.930 . S
H275 C283 0.930 . S
H276 C286 0.930 . S
H277 C287 0.930 . S
C278 H272 0.930 . S
C278 C279 1.355 . S
C278 C280 1.415 . S
C279 C278 1.355 . S
C279 C281 1.419 . S
C280 C278 1.415 . S
C280 C285 1.425 . S
C280 C287 1.409 . S
C281 H273 0.930 . S
C281 C279 1.419 . S
C281 C282 1.362 . S
C282 H274 0.930 . S
C282 C281 1.362 . S
C282 C285 1.409 . S
C283 H275 0.930 . S
C283 C284 1.355 . S
C283 C285 1.415 . S
C284 C283 1.355 . S
C284 C286 1.419 . S
C285 C280 1.425 . S
C285 C282 1.409 . S
C285 C283 1.415 . S
C286 H276 0.930 . S
C286 C284 1.419 . S
C286 C287 1.362 . S
C287 H277 0.930 . S
C287 C280 1.409 . S
C287 C286 1.362 . S
H288 C294 0.930 . S
H289 C297 0.930 . S
H290 C298 0.930 . S
H291 C299 0.930 . S
H292 C302 0.930 . S
H293 C303 0.930 . S
C294 H288 0.930 . S
C294 C295 1.355 . S
C294 C296 1.415 . S
C295 C294 1.355 . S
C295 C297 1.419 1_655 S
C296 C294 1.415 . S
C296 C301 1.425 1_655 S
C296 C303 1.409 . S
C297 H289 0.930 . S
C297 C295 1.419 1_455 S
C297 C298 1.362 . S
C298 H290 0.930 . S
C298 C297 1.362 . S
C298 C301 1.409 . S
C299 H291 0.930 . S
C299 C300 1.355 . S
C299 C301 1.415 . S
C300 C299 1.355 . S
C300 C302 1.419 1_455 S
C301 C296 1.425 1_455 S
C301 C298 1.409 . S
C301 C299 1.415 . S
C302 H292 0.930 . S
C302 C300 1.419 1_655 S
C302 C303 1.362 . S
C303 H293 0.930 . S
C303 C296 1.409 . S
C303 C302 1.362 . S
H304 C310 0.930 . S
H305 C313 0.930 . S
H306 C314 0.930 . S
H307 C315 0.930 . S
H308 C318 0.930 . S
H309 C319 0.930 . S
C310 H304 0.930 . S
C310 C311 1.355 1_455 S
C310 C312 1.415 . S
C311 C310 1.355 1_655 S
C311 C313 1.419 . S
C312 C310 1.415 . S
C312 C317 1.425 1_455 S
C312 C319 1.409 . S
C313 H305 0.930 . S
C313 C311 1.419 . S
C313 C314 1.362 . S
C314 H306 0.930 . S
C314 C313 1.362 . S
C314 C317 1.409 . S
C315 H307 0.930 . S
C315 C316 1.355 1_655 S
C315 C317 1.415 . S
C316 C315 1.355 1_455 S
C316 C318 1.419 . S
C317 C312 1.425 1_655 S
C317 C314 1.409 . S
C317 C315 1.415 . S
C318 H308 0.930 . S
C318 C316 1.419 . S
C318 C319 1.362 . S
C319 H309 0.930 . S
C319 C312 1.409 . S
C319 C318 1.362 . S
H320 C326 0.930 . S
H321 C329 0.930 . S
H322 C330 0.930 . S
H323 C331 0.930 . S
H324 C334 0.930 . S
H325 C335 0.930 . S
C326 H320 0.930 . S
C326 C327 1.355 1_455 S
C326 C328 1.415 . S
C327 C326 1.355 1_655 S
C327 C329 1.419 . S
C328 C326 1.415 . S
C328 C333 1.425 1_455 S
C328 C335 1.409 . S
C329 H321 0.930 . S
C329 C327 1.419 . S
C329 C330 1.362 . S
C330 H322 0.930 . S
C330 C329 1.362 . S
C330 C333 1.409 . S
C331 H323 0.930 . S
C331 C332 1.355 1_655 S
C331 C333 1.415 . S
C332 C331 1.355 1_455 S
C332 C334 1.419 . S
C333 C328 1.425 1_655 S
C333 C330 1.409 . S
C333 C331 1.415 . S
C334 H324 0.930 . S
C334 C332 1.419 . S
C334 C335 1.362 . S
C335 H325 0.930 . S
C335 C328 1.409 . S
C335 C334 1.362 . S
H336 C342 0.930 . S
H337 C345 0.930 . S
H338 C346 0.930 . S
H339 C347 0.930 . S
H340 C350 0.930 . S
H341 C351 0.930 . S
C342 H336 0.930 . S
C342 C343 1.355 1_655 S
C342 C344 1.415 . S
C343 C342 1.355 1_455 S
C343 C345 1.419 . S
C344 C342 1.415 . S
C344 C349 1.425 1_655 S
C344 C351 1.409 . S
C345 H337 0.930 . S
C345 C343 1.419 . S
C345 C346 1.362 . S
C346 H338 0.930 . S
C346 C345 1.362 . S
C346 C349 1.409 . S
C347 H339 0.930 . S
C347 C348 1.355 1_455 S
C347 C349 1.415 . S
C348 C347 1.355 1_655 S
C348 C350 1.419 . S
C349 C344 1.425 1_455 S
C349 C346 1.409 . S
C349 C347 1.415 . S
C350 H340 0.930 . S
C350 C348 1.419 . S
C350 C351 1.362 . S
C351 H341 0.930 . S
C351 C344 1.409 . S
C351 C350 1.362 . S
C167 C59 1.598 . S
C172 C10 1.598 . S
C183 C99 1.597 . S
C188 C130 1.597 . S
C199 C19 1.617 . S
C204 C50 1.617 . S
C215 C139 1.611 . S
C220 C90 1.611 . S
C231 C122 1.719 . S
C236 C2 1.704 . S
C247 C47 1.089 . S
C252 C87 1.071 . S
C263 C51 1.727 . S
C268 C91 1.709 . S
C279 C136 1.108 . S
C284 C16 1.072 . S
C295 C42 1.718 . S
C300 C82 1.723 . S
C311 C127 1.117 . S
C316 C7 1.067 . S
C327 C131 1.707 . S
C332 C11 1.720 . S
C343 C96 1.112 . S
C348 C56 1.072 . S
