# Generated by pormake.
# Topology bcs, (6)-cn, num edge types: 1
# Building blocks:
#     Node 0, Type 0, BuildingBlock: KUMBUR_clean_sbu_0, # of connection points: 6
#     Node 1, Type 0, BuildingBlock: KUMBUR_clean_sbu_0, # of connection points: 6
#     Node 2, Type 0, BuildingBlock: KUMBUR_clean_sbu_0, # of connection points: 6
#     Node 3, Type 0, BuildingBlock: KUMBUR_clean_sbu_0, # of connection points: 6
#     Node 4, Type 0, BuildingBlock: KUMBUR_clean_sbu_0, # of connection points: 6
#     Node 5, Type 0, BuildingBlock: KUMBUR_clean_sbu_0, # of connection points: 6
#     Node 6, Type 0, BuildingBlock: KUMBUR_clean_sbu_0, # of connection points: 6
#     Node 7, Type 0, BuildingBlock: KUMBUR_clean_sbu_0, # of connection points: 6
#     Node 8, Type 0, BuildingBlock: KUMBUR_clean_sbu_0, # of connection points: 6
#     Node 9, Type 0, BuildingBlock: KUMBUR_clean_sbu_0, # of connection points: 6
#     Node 10, Type 0, BuildingBlock: KUMBUR_clean_sbu_0, # of connection points: 6
#     Node 11, Type 0, BuildingBlock: KUMBUR_clean_sbu_0, # of connection points: 6
#     Node 12, Type 0, BuildingBlock: KUMBUR_clean_sbu_0, # of connection points: 6
#     Node 13, Type 0, BuildingBlock: KUMBUR_clean_sbu_0, # of connection points: 6
#     Node 14, Type 0, BuildingBlock: KUMBUR_clean_sbu_0, # of connection points: 6
#     Node 15, Type 0, BuildingBlock: KUMBUR_clean_sbu_0, # of connection points: 6
#     Edge 16, Type (0, 0), BuildingBlock: MIFKUJ_clean_linker_0, # of connection points: 2
#     Edge 17, Type (0, 0), BuildingBlock: MIFKUJ_clean_linker_0, # of connection points: 2
#     Edge 18, Type (0, 0), BuildingBlock: MIFKUJ_clean_linker_0, # of connection points: 2
#     Edge 19, Type (0, 0), BuildingBlock: MIFKUJ_clean_linker_0, # of connection points: 2
#     Edge 20, Type (0, 0), BuildingBlock: MIFKUJ_clean_linker_0, # of connection points: 2
#     Edge 21, Type (0, 0), BuildingBlock: MIFKUJ_clean_linker_0, # of connection points: 2
#     Edge 22, Type (0, 0), BuildingBlock: MIFKUJ_clean_linker_0, # of connection points: 2
#     Edge 23, Type (0, 0), BuildingBlock: MIFKUJ_clean_linker_0, # of connection points: 2
#     Edge 24, Type (0, 0), BuildingBlock: MIFKUJ_clean_linker_0, # of connection points: 2
#     Edge 25, Type (0, 0), BuildingBlock: MIFKUJ_clean_linker_0, # of connection points: 2
#     Edge 26, Type (0, 0), BuildingBlock: MIFKUJ_clean_linker_0, # of connection points: 2
#     Edge 27, Type (0, 0), BuildingBlock: MIFKUJ_clean_linker_0, # of connection points: 2
#     Edge 28, Type (0, 0), BuildingBlock: MIFKUJ_clean_linker_0, # of connection points: 2
#     Edge 29, Type (0, 0), BuildingBlock: MIFKUJ_clean_linker_0, # of connection points: 2
#     Edge 30, Type (0, 0), BuildingBlock: MIFKUJ_clean_linker_0, # of connection points: 2
#     Edge 31, Type (0, 0), BuildingBlock: MIFKUJ_clean_linker_0, # of connection points: 2
#     Edge 32, Type (0, 0), BuildingBlock: MIFKUJ_clean_linker_0, # of connection points: 2
#     Edge 33, Type (0, 0), BuildingBlock: MIFKUJ_clean_linker_0, # of connection points: 2
#     Edge 34, Type (0, 0), BuildingBlock: MIFKUJ_clean_linker_0, # of connection points: 2
#     Edge 35, Type (0, 0), BuildingBlock: MIFKUJ_clean_linker_0, # of connection points: 2
#     Edge 36, Type (0, 0), BuildingBlock: MIFKUJ_clean_linker_0, # of connection points: 2
#     Edge 37, Type (0, 0), BuildingBlock: MIFKUJ_clean_linker_0, # of connection points: 2
#     Edge 38, Type (0, 0), BuildingBlock: MIFKUJ_clean_linker_0, # of connection points: 2
#     Edge 39, Type (0, 0), BuildingBlock: MIFKUJ_clean_linker_0, # of connection points: 2
#     Edge 40, Type (0, 0), BuildingBlock: MIFKUJ_clean_linker_0, # of connection points: 2
#     Edge 41, Type (0, 0), BuildingBlock: MIFKUJ_clean_linker_0, # of connection points: 2
#     Edge 42, Type (0, 0), BuildingBlock: MIFKUJ_clean_linker_0, # of connection points: 2
#     Edge 43, Type (0, 0), BuildingBlock: MIFKUJ_clean_linker_0, # of connection points: 2
#     Edge 44, Type (0, 0), BuildingBlock: MIFKUJ_clean_linker_0, # of connection points: 2
#     Edge 45, Type (0, 0), BuildingBlock: MIFKUJ_clean_linker_0, # of connection points: 2
#     Edge 46, Type (0, 0), BuildingBlock: MIFKUJ_clean_linker_0, # of connection points: 2
#     Edge 47, Type (0, 0), BuildingBlock: MIFKUJ_clean_linker_0, # of connection points: 2
#     Edge 48, Type (0, 0), BuildingBlock: MIFKUJ_clean_linker_0, # of connection points: 2
#     Edge 49, Type (0, 0), BuildingBlock: MIFKUJ_clean_linker_0, # of connection points: 2
#     Edge 50, Type (0, 0), BuildingBlock: MIFKUJ_clean_linker_0, # of connection points: 2
#     Edge 51, Type (0, 0), BuildingBlock: MIFKUJ_clean_linker_0, # of connection points: 2
#     Edge 52, Type (0, 0), BuildingBlock: MIFKUJ_clean_linker_0, # of connection points: 2
#     Edge 53, Type (0, 0), BuildingBlock: MIFKUJ_clean_linker_0, # of connection points: 2
#     Edge 54, Type (0, 0), BuildingBlock: MIFKUJ_clean_linker_0, # of connection points: 2
#     Edge 55, Type (0, 0), BuildingBlock: MIFKUJ_clean_linker_0, # of connection points: 2
#     Edge 56, Type (0, 0), BuildingBlock: MIFKUJ_clean_linker_0, # of connection points: 2
#     Edge 57, Type (0, 0), BuildingBlock: MIFKUJ_clean_linker_0, # of connection points: 2
#     Edge 58, Type (0, 0), BuildingBlock: MIFKUJ_clean_linker_0, # of connection points: 2
#     Edge 59, Type (0, 0), BuildingBlock: MIFKUJ_clean_linker_0, # of connection points: 2
#     Edge 60, Type (0, 0), BuildingBlock: MIFKUJ_clean_linker_0, # of connection points: 2
#     Edge 61, Type (0, 0), BuildingBlock: MIFKUJ_clean_linker_0, # of connection points: 2
#     Edge 62, Type (0, 0), BuildingBlock: MIFKUJ_clean_linker_0, # of connection points: 2
#     Edge 63, Type (0, 0), BuildingBlock: MIFKUJ_clean_linker_0, # of connection points: 2
# Relax obj value: 0.093
# Max RMSD: 0.248
# Mean RMSD: 0.188
data_MOF--net-bcs--node1-KUMBUR_clean_sbu_0--edge1-MIFKUJ_clean_linker_0
_symmetry_space_group_name_H-M    P1
_symmetry_Int_Tables_number       1
_symmetry_cell_setting            triclinic
loop_
_symmetry_equiv_pos_as_xyz
'x, y, z'
_cell_length_a     50.419041
_cell_length_b     50.592534
_cell_length_c     55.810617
_cell_angle_alpha  73.817071
_cell_angle_beta   105.30461
_cell_angle_gamma 119.95858
loop_
_atom_site_label
_atom_site_type_symbol
_atom_site_fract_x
_atom_site_fract_y
_atom_site_fract_z
_atom_type_partial_charge
Tb0 Tb 1.00508 0.97327 0.97735 0.0
C1 C 0.08887 0.05883 0.04917 0.0
C2 C 0.08867 0.02135 0.08726 0.0
C3 C 0.13549 0.06966 0.0803 0.0
C4 C 0.07348 0.0306 0.06391 0.0
C5 C 0.11977 0.07924 0.05765 0.0
C6 C 0.11998 0.04068 0.09504 0.0
C7 C 0.11623 0.11831 0.02236 0.0
N8 N 0.0729 0.06711 0.02735 0.0
C9 C 0.08571 0.09723 0.01471 0.0
C10 C 0.13357 0.10908 0.04365 0.0
Tb11 Tb 0.02276 0.02971 0.01631 0.0
N12 N 0.04327 0.01255 0.05573 0.0
C13 C 0.02625 0.98612 0.07122 0.0
C14 C 0.07176 0.99328 0.10232 0.0
C15 C 0.04025 0.97589 0.09446 0.0
H16 H 0.07228 0.10469 -0.00166 0.0
H17 H 0.02666 0.95457 0.10628 0.0
H18 H 0.13214 0.03381 0.11274 0.0
H19 H 0.12627 0.14171 0.01189 0.0
H20 H 1.00185 0.97266 0.06598 0.0
H21 H 0.99814 0.03742 0.88121 0.0
H22 H 0.08258 0.98529 0.12031 0.0
H23 H 0.95456 0.8999 -0.00056 0.0
H24 H 0.02489 0.02295 0.92119 0.0
H25 H 0.90016 0.86366 0.98897 0.0
H26 H 0.15935 0.08483 0.08693 0.0
H27 H 0.94199 0.00697 0.86993 0.0
H28 H 0.89282 0.96117 0.88114 0.0
H29 H 0.15717 0.12548 0.04961 0.0
H30 H 0.86586 0.9139 0.91065 0.0
N31 N 0.98348 0.98747 0.93664 0.0
C32 C 1.00005 0.01025 0.91838 0.0
C33 C 0.95334 0.0011 0.8885 0.0
C34 C 0.93677 0.97606 0.906 0.0
C35 C 0.98514 0.01798 0.89464 0.0
C36 C 0.95258 0.96971 0.93019 0.0
H37 H 0.86846 0.87728 0.9506 0.0
N38 N 0.95389 0.93656 0.96896 0.0
C39 C 0.91007 0.88625 0.9772 0.0
C40 C 0.93731 0.94337 0.9469 0.0
C41 C 0.94101 0.90743 0.98328 0.0
C42 C 0.89229 0.894 0.95555 0.0
C43 C 0.90602 0.92242 0.93972 0.0
O44 O 1.00929 0.93197 0.98639 0.0
O45 O 0.02673 0.99083 0.01264 0.0
O46 O 0.0593 0.05107 0.99268 0.0
O47 O 0.04021 0.01861 0.96272 0.0
O48 O 0.05241 0.98428 0.99409 0.0
O49 O 0.02518 0.96547 0.95312 0.0
O50 O 1.0068 0.06284 0.00997 0.0
O51 O 0.99392 0.00548 0.98535 0.0
O52 O 0.9819 0.94891 0.01111 0.0
O53 O 0.97906 0.98768 0.02352 0.0
O54 O 1.01116 0.05258 0.97911 0.0
O55 O 1.00387 0.03196 0.04509 0.0
C56 C 0.05271 0.99274 0.01377 0.0
C57 C 1.01333 0.914 0.95259 0.0
C58 C 0.02758 0.89034 0.9284 0.0
C59 C 0.03579 0.91393 0.94182 0.0
C60 C 0.99689 0.86665 0.92636 0.0
C61 C 0.98287 0.89015 0.94998 0.0
C62 C 0.97481 0.86658 0.93709 0.0
C63 C 0.06018 0.04427 0.97178 0.0
C64 C 0.02229 0.9389 0.96661 0.0
C65 C 0.88988 0.9296 0.91633 0.0
C66 C 0.90522 0.95645 0.89953 0.0
C67 C 0.99245 0.02786 0.96946 0.0
C68 C 1.00889 0.08137 0.04538 0.0
C69 C 0.98842 0.08191 0.05822 0.0
C70 C 0.99747 0.10805 0.06903 0.0
C71 C 0.02688 0.13351 0.06626 0.0
C72 C 0.03813 0.10701 0.04371 0.0
C73 C 0.04705 0.13278 0.05398 0.0
C74 C 0.96901 0.95819 0.0227 0.0
C75 C 0.99917 0.05531 0.03226 0.0
H76 H 0.05939 0.93232 0.94358 0.0
H77 H 0.99 0.84795 0.91657 0.0
H78 H 0.96525 0.88955 0.95794 0.0
H79 H 0.95129 0.84812 0.93539 0.0
H80 H 0.96571 0.06225 0.0597 0.0
H81 H 0.03429 0.15446 0.07325 0.0
H82 H 0.05389 0.10772 0.03377 0.0
H83 H 0.06955 0.15257 0.05199 0.0
Tb84 Tb 0.29403 0.7345 0.25432 0.0
C85 C 0.20201 0.76272 0.28056 0.0
C86 C 0.14972 0.72155 0.27403 0.0
C87 C 0.16488 0.75103 0.30717 0.0
C88 C 0.17998 0.73919 0.26773 0.0
C89 C 0.19416 0.76996 0.29956 0.0
C90 C 0.14271 0.72675 0.29448 0.0
C91 C 0.24202 0.81732 0.29865 0.0
N92 N 0.22985 0.78075 0.2724 0.0
C93 C 0.24851 0.80935 0.27965 0.0
C94 C 0.21512 0.79707 0.30922 0.0
Tb95 Tb 0.23906 0.76284 0.24272 0.0
N96 N 0.18745 0.73518 0.24781 0.0
C97 C 0.16435 0.7167 0.23149 0.0
C98 C 0.12711 0.69996 0.25906 0.0
C99 C 0.13429 0.69807 0.23734 0.0
H100 H 0.26951 0.82563 0.27166 0.0
H101 H 0.11661 0.68254 0.22492 0.0
H102 H 0.11978 0.71305 0.29987 0.0
H103 H 0.25777 0.83917 0.30503 0.0
H104 H 0.16896 0.71576 0.21398 0.0
H105 H 0.41576 0.81818 0.26946 0.0
H106 H 0.10373 0.68572 0.26346 0.0
H107 H 0.26552 0.67445 0.22305 0.0
H108 H 0.36518 0.78103 0.28251 0.0
H109 H 0.27622 0.6649 0.18698 0.0
H110 H 0.15868 0.75588 0.32204 0.0
H111 H 0.42631 0.82023 0.22801 0.0
H112 H 0.40931 0.79574 0.18988 0.0
H113 H 0.20993 0.80342 0.32377 0.0
H114 H 0.37041 0.75411 0.16656 0.0
N115 N 0.3446 0.76577 0.24691 0.0
C116 C 0.36838 0.78303 0.26359 0.0
C117 C 0.40346 0.8047 0.23322 0.0
C118 C 0.38051 0.78397 0.21773 0.0
C119 C 0.39759 0.80365 0.25657 0.0
C120 C 0.35095 0.76455 0.22517 0.0
H121 H 0.32088 0.70467 0.1656 0.0
N122 N 0.30235 0.72107 0.22141 0.0
C123 C 0.29095 0.68681 0.19338 0.0
C124 C 0.32898 0.74139 0.2119 0.0
C125 C 0.28515 0.69246 0.21404 0.0
C126 C 0.31608 0.70935 0.18135 0.0
C127 C 0.33626 0.73645 0.19127 0.0
O128 O 0.2744 0.6864 0.2647 0.0
O129 O 0.25039 0.72609 0.26253 0.0
O130 O 0.27226 0.77738 0.27619 0.0
O131 O 0.31555 0.77653 0.27044 0.0
O132 O 0.28174 0.72034 0.29262 0.0
O133 O 0.32252 0.71758 0.28034 0.0
O134 O 0.25511 0.81028 0.22952 0.0
O135 O 0.2841 0.7723 0.23612 0.0
O136 O 0.2595 0.72097 0.22117 0.0
O137 O 0.21717 0.71686 0.23273 0.0
O138 O 0.25312 0.77622 0.20521 0.0
O139 O 0.21414 0.77526 0.20977 0.0
C140 C 0.25397 0.71711 0.28616 0.0
C141 C 0.30356 0.66296 0.29437 0.0
C142 C 0.32002 0.63899 0.33445 0.0
C143 C 0.31882 0.66496 0.31889 0.0
C144 C 0.30677 0.61116 0.32536 0.0
C145 C 0.28954 0.63518 0.2851 0.0
C146 C 0.29146 0.60922 0.30067 0.0
C147 C 0.30202 0.78554 0.28139 0.0
C148 C 0.30005 0.68931 0.27963 0.0
C149 C 0.36463 0.75726 0.18259 0.0
C150 C 0.38679 0.78093 0.19589 0.0
C151 C 0.28123 0.78105 0.21254 0.0
C152 C 0.21694 0.8236 0.20401 0.0
C153 C 0.2031 0.82613 0.17917 0.0
C154 C 0.1922 0.8476 0.16976 0.0
C155 C 0.19409 0.86623 0.18529 0.0
C156 C 0.21815 0.84112 0.22018 0.0
C157 C 0.20632 0.86231 0.21075 0.0
C158 C 0.22945 0.70987 0.21892 0.0
C159 C 0.23231 0.80468 0.21069 0.0
H160 H 0.32933 0.68649 0.32604 0.0
H161 H 0.3089 0.59135 0.33716 0.0
H162 H 0.27727 0.63366 0.26601 0.0
H163 H 0.28121 0.58774 0.29365 0.0
H164 H 0.20245 0.81266 0.16665 0.0
H165 H 0.18665 0.88396 0.17771 0.0
H166 H 0.22898 0.8394 0.23953 0.0
H167 H 0.20764 0.8764 0.2229 0.0
Tb168 Tb 0.48747 0.99321 0.51608 0.0
C169 C 0.56496 0.07332 0.44678 0.0
C170 C 0.52579 0.0701 0.4099 0.0
C171 C 0.57263 0.1187 0.41394 0.0
C172 C 0.53636 0.05637 0.43348 0.0
C173 C 0.58376 0.10448 0.43678 0.0
C174 C 0.54373 0.10153 0.40051 0.0
C175 C 0.62495 0.10402 0.47054 0.0
N176 N 0.5754 0.05859 0.46839 0.0
C177 C 0.60576 0.07296 0.47937 0.0
C178 C 0.61373 0.12003 0.44937 0.0
Tb179 Tb 0.54107 0.00765 0.48076 0.0
N180 N 0.51971 0.02595 0.44291 0.0
C181 C 0.49329 0.00746 0.42895 0.0
C182 C 0.49789 0.05162 0.39613 0.0
C183 C 0.48177 0.02007 0.40557 0.0
H184 H 0.61515 0.06056 0.49531 0.0
H185 H 0.46055 0.00543 0.39482 0.0
H186 H 0.53583 0.11257 0.38256 0.0
H187 H 0.64852 0.11543 0.47984 0.0
H188 H 0.48095 0.98301 0.43579 0.0
H189 H 0.56283 0.9873 0.60392 0.0
H190 H 0.48898 0.06133 0.37796 0.0
H191 H 0.41184 0.9455 0.50133 0.0
H192 H 0.54403 0.01314 0.56387 0.0
H193 H 0.37555 0.89056 0.51436 0.0
H194 H 0.58663 0.14268 0.40609 0.0
H195 H 0.53342 0.93055 0.61722 0.0
H196 H 0.48595 0.88061 0.60936 0.0
H197 H 0.62882 0.14399 0.44231 0.0
H198 H 0.43488 0.85402 0.58452 0.0
N199 N 0.50594 0.97157 0.55382 0.0
C200 C 0.53169 0.98844 0.56921 0.0
C201 C 0.52542 0.94184 0.59948 0.0
C202 C 0.49789 0.92501 0.58442 0.0
C203 C 0.54208 0.97384 0.59205 0.0
C204 C 0.48848 0.94085 0.56152 0.0
H205 H 0.39323 0.85764 0.54924 0.0
N206 N 0.45055 0.94298 0.52704 0.0
C207 C 0.39931 0.90008 0.52366 0.0
C208 C 0.45985 0.92595 0.54752 0.0
C209 C 0.41998 0.93113 0.51627 0.0
C210 C 0.40941 0.88157 0.5433 0.0
C211 C 0.4397 0.89471 0.55607 0.0
O212 O 0.44951 0.998 0.51829 0.0
O213 O 0.50133 0.01983 0.47815 0.0
O214 O 0.56504 0.0353 0.50962 0.0
O215 O 0.52509 0.03981 0.51708 0.0
O216 O 0.46272 0.01583 0.48627 0.0
O217 O 0.48981 0.01343 0.54607 0.0
O218 O 0.58121 0.00882 0.47581 0.0
O219 O 0.52765 0.98159 0.51887 0.0
O220 O 0.46395 0.96241 0.48879 0.0
O221 O 0.50553 0.96048 0.4817 0.0
O222 O 0.56592 0.98489 0.51046 0.0
O223 O 0.53811 0.98412 0.45304 0.0
C224 C 0.47986 0.03068 0.4687 0.0
C225 C 0.44072 0.00181 0.55608 0.0
C226 C 0.41425 0.01644 0.57748 0.0
C227 C 0.43911 0.0246 0.56496 0.0
C228 C 0.39062 0.98554 0.57969 0.0
C229 C 0.41781 0.97095 0.56042 0.0
C230 C 0.3927 0.96305 0.57167 0.0
C231 C 0.55451 0.04986 0.5172 0.0
C232 C 0.46211 0.01103 0.53811 0.0
C233 C 0.44985 0.87816 0.57786 0.0
C234 C 0.47891 0.89331 0.59203 0.0
C235 C 0.54906 0.97068 0.52827 0.0
C236 C 0.58576 0.99929 0.43859 0.0
C237 C 0.58943 0.97583 0.43289 0.0
C238 C 0.61233 0.98366 0.41842 0.0
C239 C 0.63083 0.01514 0.40934 0.0
C240 C 0.6043 0.03043 0.4289 0.0
C241 C 0.62666 0.03821 0.41438 0.0
C242 C 0.47583 0.94902 0.48104 0.0
C243 C 0.56749 0.99153 0.45856 0.0
H244 H 0.45679 0.04847 0.56177 0.0
H245 H 0.37026 0.97851 0.58774 0.0
H246 H 0.41847 0.95307 0.55403 0.0
H247 H 0.37447 0.93939 0.57387 0.0
H248 H 0.57577 0.95178 0.44084 0.0
H249 H 0.64857 0.02194 0.39817 0.0
H250 H 0.60235 0.0488 0.4334 0.0
H251 H 0.64127 0.06232 0.40739 0.0
Tb252 Tb 0.28382 0.22741 0.75382 0.0
C253 C 0.22709 0.31405 0.69347 0.0
C254 C 0.27068 0.3654 0.69042 0.0
C255 C 0.22413 0.35498 0.65941 0.0
C256 C 0.25688 0.33423 0.70249 0.0
C257 C 0.21025 0.32419 0.67194 0.0
C258 C 0.254 0.37565 0.66897 0.0
C259 C 0.16542 0.27452 0.67957 0.0
N260 N 0.21367 0.28518 0.70708 0.0
C261 C 0.18283 0.2659 0.70126 0.0
C262 C 0.17931 0.30366 0.66464 0.0
Tb263 Tb 0.24308 0.2737 0.74272 0.0
N264 N 0.27125 0.32395 0.72429 0.0
C265 C 0.29949 0.34409 0.73528 0.0
C266 C 0.30009 0.38569 0.70102 0.0
C267 C 0.3145 0.37498 0.72361 0.0
H268 H 0.17199 0.2435 0.71297 0.0
H269 H 0.33701 0.39058 0.73225 0.0
H270 H 0.26343 0.3998 0.66023 0.0
H271 H 0.14127 0.2588 0.67452 0.0
H272 H 0.31097 0.33675 0.75299 0.0
H273 H 0.19658 0.10704 0.75721 0.0
H274 H 0.31146 0.40983 0.69234 0.0
H275 H 0.35296 0.25765 0.78826 0.0
H276 H 0.22249 0.16138 0.73752 0.0
H277 H 0.37885 0.24326 0.83036 0.0
H278 H 0.21145 0.36341 0.64303 0.0
H279 H 0.21519 0.08957 0.80131 0.0
H280 H 0.25491 0.10229 0.84014 0.0
H281 H 0.16563 0.31054 0.64811 0.0
H282 H 0.30466 0.13952 0.8602 0.0
N283 N 0.25664 0.1757 0.76992 0.0
C284 C 0.23147 0.15465 0.75667 0.0
C285 C 0.22709 0.11366 0.79263 0.0
C286 C 0.25351 0.1349 0.80571 0.0
C287 C 0.21658 0.1234 0.76773 0.0
C288 C 0.26836 0.16591 0.79344 0.0
H289 H 0.35145 0.19201 0.85646 0.0
N290 N 0.31115 0.21535 0.7911 0.0
C291 C 0.35564 0.22714 0.82334 0.0
C292 C 0.29655 0.18652 0.80448 0.0
C293 C 0.34105 0.23515 0.79951 0.0
C294 C 0.34005 0.19822 0.83805 0.0
C295 C 0.3104 0.17721 0.82843 0.0
O296 O 0.32244 0.24066 0.73703 0.0
O297 O 0.27922 0.26826 0.73439 0.0
O298 O 0.23274 0.25713 0.70762 0.0
O299 O 0.24304 0.21483 0.7247 0.0
O300 O 0.32282 0.27378 0.74585 0.0
O301 O 0.28105 0.19881 0.73097 0.0
O302 O 0.20593 0.26478 0.75947 0.0
O303 O 0.24747 0.23284 0.76128 0.0
O304 O 0.29051 0.24179 0.78913 0.0
O305 O 0.28296 0.28568 0.77237 0.0
O306 O 0.20454 0.22773 0.75295 0.0
O307 O 0.25008 0.30397 0.76602 0.0
C308 C 0.30693 0.28797 0.73275 0.0
C309 C 0.32849 0.20079 0.72898 0.0
C310 C 0.34855 0.17684 0.71059 0.0
C311 C 0.32884 0.19004 0.70825 0.0
C312 C 0.36793 0.17491 0.73355 0.0
C313 C 0.3479 0.1982 0.75174 0.0
C314 C 0.3676 0.18556 0.75392 0.0
C315 C 0.23186 0.23108 0.70605 0.0
C316 C 0.30937 0.21627 0.7265 0.0
C317 C 0.29463 0.14703 0.84159 0.0
C318 C 0.26627 0.12585 0.8302 0.0
C319 C 0.22048 0.21332 0.76518 0.0
C320 C 0.2055 0.30805 0.7673 0.0
C321 C 0.20085 0.31461 0.78855 0.0
C322 C 0.18285 0.33008 0.78528 0.0
C323 C 0.1704 0.33926 0.76064 0.0
C324 C 0.19282 0.3178 0.74313 0.0
C325 C 0.17544 0.33323 0.73984 0.0
C326 C 0.29374 0.26884 0.79053 0.0
C327 C 0.22147 0.28923 0.77015 0.0
H328 H 0.31394 0.19189 0.69056 0.0
H329 H 0.38339 0.16506 0.7357 0.0
H330 H 0.34819 0.20637 0.76779 0.0
H331 H 0.38272 0.18401 0.77149 0.0
H332 H 0.21032 0.30696 0.80737 0.0
H333 H 0.15678 0.35137 0.7574 0.0
H334 H 0.19586 0.31311 0.72669 0.0
H335 H 0.16559 0.34036 0.72102 0.0
Tb336 Tb 0.03473 0.97979 0.50205 0.0
C337 C 0.94612 0.01613 0.52986 0.0
C338 C 0.89706 0.97044 0.52431 0.0
C339 C 0.90408 0.00484 0.55085 0.0
C340 C 0.92749 0.99024 0.51876 0.0
C341 C 0.93463 0.02384 0.54597 0.0
C342 C 0.88537 0.9781 0.54013 0.0
C343 C 0.98442 0.06841 0.55149 0.0
N344 N 0.97599 0.03295 0.52583 0.0
C345 C 0.99476 0.05962 0.53563 0.0
C346 C 0.95426 0.05029 0.55688 0.0
Tb347 Tb 0.99054 0.01908 0.49744 0.0
N348 N 0.94013 0.98311 0.50433 0.0
C349 C 0.92301 0.95568 0.49529 0.0
C350 C 0.87961 0.94298 0.51457 0.0
C351 C 0.89278 0.93547 0.50018 0.0
H352 H 0.01769 0.07452 0.5309 0.0
H353 H 0.87981 0.91382 0.49313 0.0
H354 H 0.86204 0.96323 0.54451 0.0
H355 H 0.99968 0.08933 0.55935 0.0
H356 H 0.93259 0.94793 0.48527 0.0
H357 H 0.15202 0.07535 0.50575 0.0
H358 H 0.85629 0.92707 0.51858 0.0
H359 H 0.99951 0.92089 0.47177 0.0
H360 H 0.09884 0.04829 0.51328 0.0
H361 H 1.01184 0.90057 0.44299 0.0
H362 H 0.89486 0.01037 0.56318 0.0
H363 H 0.16966 0.05558 0.48063 0.0
H364 H 0.15641 0.01874 0.45239 0.0
H365 H 0.94628 0.05705 0.56928 0.0
H366 H 0.11806 0.97215 0.43429 0.0
N367 N 0.08462 0.01177 0.49288 0.0
C368 C 0.10527 0.03845 0.5024 0.0
C369 C 0.14569 0.04375 0.48335 0.0
C370 C 0.12449 0.01758 0.47262 0.0
C371 C 0.13591 0.0546 0.49787 0.0
C372 C 0.09389 0.00171 0.47803 0.0
H373 H 0.06401 0.92824 0.43037 0.0
N374 N 0.04354 0.96074 0.47397 0.0
C375 C 0.02911 0.92177 0.44979 0.0
C376 C 0.0725 0.97553 0.46799 0.0
C377 C 0.02217 0.93341 0.46596 0.0
C378 C 0.05855 0.93744 0.44271 0.0
C379 C 0.08084 0.96443 0.45211 0.0
O380 O 0.02336 0.93422 0.51912 0.0
O381 O 1.00061 0.98184 0.51619 0.0
O382 O 0.01778 0.02146 0.53474 0.0
O383 O 0.05593 0.01079 0.52978 0.0
O384 O 0.99014 0.94005 0.50978 0.0
O385 O 0.06402 0.97282 0.53475 0.0
O386 O 1.00413 0.06603 0.48669 0.0
O387 O 0.02558 0.01761 0.4836 0.0
O388 O 1.00804 0.9781 0.46445 0.0
O389 O 0.97103 0.99223 0.46653 0.0
O390 O 0.03537 0.05924 0.48945 0.0
O391 O 0.9635 0.03198 0.46543 0.0
C392 C 0.98165 0.95375 0.52022 0.0
C393 C 0.06233 0.9238 0.54552 0.0
C394 C 0.0864 0.90132 0.58201 0.0
C395 C 0.07679 0.92361 0.57028 0.0
C396 C 0.08244 0.87941 0.56875 0.0
C397 C 0.05853 0.90245 0.53175 0.0
C398 C 0.06876 0.88026 0.54347 0.0
C399 C 0.04515 0.02194 0.54156 0.0
C400 C 0.04691 0.94281 0.53691 0.0
C401 C 0.11118 0.9803 0.44645 0.0
C402 C 0.13302 0.00676 0.45679 0.0
C403 C 0.04514 0.0456 0.48028 0.0
C404 C 0.97826 0.08675 0.45111 0.0
C405 C 0.96136 0.08227 0.4274 0.0
C406 C 0.96044 0.10731 0.40984 0.0
C407 C 0.97697 0.13724 0.41582 0.0
C408 C 0.99441 0.11643 0.45758 0.0
C409 C 0.99373 0.1417 0.43982 0.0
C410 C 0.98198 0.9802 0.4556 0.0
C411 C 0.98204 0.06109 0.46763 0.0
H412 H 0.07932 0.94 0.58092 0.0
H413 H 0.09029 0.86211 0.57784 0.0
H414 H 0.04685 0.90224 0.51245 0.0
H415 H 0.06563 0.86347 0.53314 0.0
H416 H 0.94897 0.05931 0.42241 0.0
H417 H 0.97623 0.15687 0.40222 0.0
H418 H 1.00795 0.12015 0.47607 0.0
H419 H 1.00615 0.16464 0.44464 0.0
Tb420 Tb 0.23711 0.73591 0.77378 0.0
C421 C 0.32707 0.82905 0.69687 0.0
C422 C 0.29377 0.83048 0.65687 0.0
C423 C 0.343 0.87564 0.66489 0.0
C424 C 0.29979 0.81477 0.6812 0.0
C425 C 0.34935 0.85941 0.68872 0.0
C426 C 0.31522 0.86121 0.64901 0.0
C427 C 0.38343 0.85445 0.72739 0.0
N428 N 0.33236 0.81262 0.71971 0.0
C429 C 0.36062 0.82436 0.73461 0.0
C430 C 0.37763 0.87221 0.70449 0.0
Tb431 Tb 0.29362 0.76365 0.72969 0.0
N432 N 0.27977 0.78501 0.68941 0.0
C433 C 0.25424 0.76889 0.67325 0.0
C434 C 0.26682 0.81458 0.64092 0.0
C435 C 0.24715 0.78354 0.64905 0.0
H436 H 0.36521 0.81068 0.75232 0.0
H437 H 0.22656 0.7708 0.63666 0.0
H438 H 0.31086 0.87376 0.63047 0.0
H439 H 0.40545 0.86392 0.73949 0.0
H440 H 0.23867 0.74483 0.6788 0.0
H441 H 0.30488 0.72324 0.8652 0.0
H442 H 0.26152 0.82577 0.62206 0.0
H443 H 0.1641 0.69232 0.75183 0.0
H444 H 0.29326 0.75093 0.82348 0.0
H445 H 0.12249 0.63969 0.76386 0.0
H446 H 0.35969 0.89911 0.65835 0.0
H447 H 0.26846 0.66859 0.87908 0.0
H448 H 0.21696 0.62252 0.87056 0.0
H449 H 0.39536 0.89548 0.6989 0.0
H450 H 0.16777 0.59925 0.84256 0.0
N451 N 0.25107 0.71203 0.81276 0.0
C452 C 0.27713 0.72702 0.82893 0.0
C453 C 0.26338 0.68048 0.86046 0.0
C454 C 0.23597 0.66574 0.84443 0.0
C455 C 0.28391 0.71138 0.85275 0.0
C456 C 0.23043 0.68237 0.82043 0.0
H457 H 0.13213 0.60561 0.80281 0.0
N458 N 0.19745 0.6873 0.78288 0.0
C459 C 0.14501 0.64768 0.77546 0.0
C460 C 0.2026 0.66953 0.80493 0.0
C461 C 0.1686 0.67742 0.76868 0.0
C462 C 0.15057 0.62849 0.79743 0.0
C463 C 0.17941 0.63958 0.81277 0.0
O464 O 0.20522 0.75293 0.76914 0.0
O465 O 0.2551 0.76341 0.73947 0.0
O466 O 0.30512 0.80334 0.74646 0.0
O467 O 0.28061 0.7763 0.78233 0.0
O468 O 0.20857 0.74572 0.73953 0.0
O469 O 0.23791 0.75573 0.80297 0.0
O470 O 0.32632 0.74706 0.73605 0.0
O471 O 0.27543 0.73608 0.76377 0.0
O472 O 0.22278 0.69737 0.75534 0.0
O473 O 0.24968 0.7232 0.72037 0.0
O474 O 0.32213 0.75589 0.76514 0.0
O475 O 0.294 0.74214 0.7021 0.0
C476 C 0.23058 0.76232 0.72607 0.0
C477 C 0.18975 0.75206 0.80577 0.0
C478 C 0.16109 0.76717 0.8239 0.0
C479 C 0.187 0.77509 0.81307 0.0
C480 C 0.13819 0.73621 0.82747 0.0
C481 C 0.16699 0.72112 0.81037 0.0
C482 C 0.1413 0.71332 0.82096 0.0
C483 C 0.29985 0.80185 0.76904 0.0
C484 C 0.21453 0.76089 0.79123 0.0
C485 C 0.18526 0.62233 0.83617 0.0
C486 C 0.21338 0.63551 0.85206 0.0
C487 C 0.29963 0.7374 0.77791 0.0
C488 C 0.34323 0.74707 0.70029 0.0
C489 C 0.3447 0.72556 0.68944 0.0
C490 C 0.37073 0.73451 0.67793 0.0
C491 C 0.39524 0.76477 0.67839 0.0
C492 C 0.36769 0.77725 0.69918 0.0
C493 C 0.39352 0.78588 0.6886 0.0
C494 C 0.22767 0.69933 0.73264 0.0
C495 C 0.31775 0.73795 0.71445 0.0
H496 H 0.20442 0.79908 0.80972 0.0
H497 H 0.11799 0.72972 0.83556 0.0
H498 H 0.16867 0.70301 0.80534 0.0
H499 H 0.1236 0.68946 0.82397 0.0
H500 H 0.32581 0.70223 0.68994 0.0
H501 H 0.41618 0.77228 0.67097 0.0
H502 H 0.36731 0.79411 0.70711 0.0
H503 H 0.41253 0.80907 0.68855 0.0
Tb504 Tb 0.5345 0.97689 0.0038 0.0
C505 C 0.49235 0.06497 0.94289 0.0
C506 C 0.53891 0.11409 0.94264 0.0
C507 C 0.50182 0.10349 0.90435 0.0
C508 C 0.52043 0.08418 0.95527 0.0
C509 C 0.48208 0.07514 0.91764 0.0
C510 C 0.53023 0.12296 0.91685 0.0
C511 C 0.43151 0.03189 0.92196 0.0
N512 N 0.47352 0.03816 0.95649 0.0
C513 C 0.44262 0.02302 0.94694 0.0
C514 C 0.45158 0.05758 0.90698 0.0
Tb515 Tb 0.49642 0.02373 0.99615 0.0
N516 N 0.52768 0.07513 0.98037 0.0
C517 C 0.55062 0.09691 0.99441 0.0
C518 C 0.5644 0.13499 0.95662 0.0
C519 C 0.56966 0.12666 0.98273 0.0
H520 H 0.42688 0.00245 0.95801 0.0
H521 H 0.58819 0.14327 0.99394 0.0
H522 H 0.54446 0.14557 0.90677 0.0
H523 H 0.40753 0.01871 0.91424 0.0
H524 H 0.55444 0.09221 0.01477 0.0
H525 H 0.43519 0.86545 0.02108 0.0
H526 H 0.57902 0.15817 0.94764 0.0
H527 H 0.60746 0.00732 0.03556 0.0
H528 H 0.46283 0.91816 -0.00128 0.0
H529 H 0.63596 0.99183 0.07541 0.0
H530 H 0.49456 0.11136 0.88481 0.0
H531 H 0.46136 0.84582 0.06021 0.0
H532 H 0.50805 0.85579 0.09356 0.0
H533 H 0.44289 0.06457 0.88765 0.0
H534 H 0.56183 0.89053 0.10891 0.0
N535 N 0.50489 0.92893 0.02464 0.0
C536 C 0.47494 0.91015 0.01554 0.0
C537 C 0.47356 0.86932 0.05072 0.0
C538 C 0.50396 0.88872 0.06026 0.0
C539 C 0.45887 0.88018 0.02842 0.0
C540 C 0.51937 0.91875 0.04651 0.0
H541 H 0.60944 0.94128 0.10248 0.0
N542 N 0.56459 0.96641 0.04047 0.0
C543 C 0.6118 0.97655 0.06987 0.0
C544 C 0.54999 0.93816 0.05482 0.0
C545 C 0.59559 0.98519 0.04731 0.0
C546 C 0.59673 0.94803 0.0851 0.0
C547 C 0.56568 0.92822 0.07747 0.0
O548 O 0.56203 0.98665 0.97679 0.0
O549 O 0.52881 0.01724 0.98222 0.0
O550 O 0.47057 0.99121 0.96963 0.0
O551 O 0.49651 0.96249 0.97352 0.0
O552 O 0.573 0.02256 0.99438 0.0
O553 O 0.5358 0.94015 0.99353 0.0
O554 O 0.45278 0.00745 0.00607 0.0
O555 O 0.49459 0.97786 0.01116 0.0
O556 O 0.55189 -0.00037 0.03634 0.0
O557 O 0.54005 0.0409 0.02118 0.0
O558 O 0.49105 0.0001 0.03484 0.0
O559 O 0.48933 0.05271 0.01225 0.0
C560 C 0.55706 0.03657 0.98069 0.0
C561 C 0.58213 0.95289 0.97951 0.0
C562 C 0.61095 0.9367 0.96256 0.0
C563 C 0.58401 0.93959 0.9612 0.0
C564 C 0.63572 0.94778 0.98211 0.0
C565 C 0.6073 0.96348 -0.00147 0.0
C566 C 0.63371 0.96074 1e-05 0.0
C567 C 0.47465 0.9707 0.96278 0.0
C568 C 0.55536 0.95822 0.97786 0.0
C569 C 0.55014 0.89859 0.09151 0.0
C570 C 0.51946 0.87881 0.08281 0.0
C571 C 0.48998 0.97484 0.03335 0.0
C572 C 0.43724 0.04221 0.01256 0.0
C573 C 0.43675 0.05587 0.03148 0.0
C574 C 0.41167 0.06197 0.03006 0.0
C575 C 0.38714 0.05322 0.00987 0.0
C576 C 0.41275 0.03507 0.99249 0.0
C577 C 0.38798 0.04045 0.99122 0.0
C578 C 0.55539 0.0269 0.03712 0.0
C579 C 0.46103 0.03198 0.01531 0.0
H580 H 0.56479 0.9316 0.94617 0.0
H581 H 0.65709 0.94691 0.98344 0.0
H582 H 0.6071 0.97504 0.01171 0.0
H583 H 0.65302 0.96934 0.01481 0.0
H584 H 0.45554 0.06143 0.04714 0.0
H585 H 0.36673 0.05584 0.00848 0.0
H586 H 0.4119 0.02413 0.97817 0.0
H587 H 0.3689 0.03407 0.97588 0.0
Tb588 Tb 0.25313 0.22062 0.23169 0.0
C589 C 0.33989 0.30457 0.29746 0.0
C590 C 0.33986 0.26665 0.33531 0.0
C591 C 0.38649 0.31526 0.32862 0.0
C592 C 0.32467 0.27579 0.3119 0.0
C593 C 0.37066 0.32506 0.30617 0.0
C594 C 0.37111 0.28609 0.34316 0.0
C595 C 0.36631 0.36512 0.27228 0.0
N596 N 0.32367 0.31357 0.27618 0.0
C597 C 0.33581 0.34407 0.26453 0.0
C598 C 0.38406 0.35538 0.29286 0.0
Tb599 Tb 0.27346 0.27706 0.26601 0.0
N600 N 0.2943 0.25781 0.30403 0.0
C601 C 0.27734 0.23134 0.31954 0.0
C602 C 0.32296 0.23869 0.35052 0.0
C603 C 0.29144 0.22118 0.34273 0.0
H604 H 0.32205 0.35195 0.24879 0.0
H605 H 0.2779 0.19996 0.35465 0.0
H606 H 0.38327 0.27924 0.36087 0.0
H607 H 0.37601 0.38888 0.26248 0.0
H608 H 0.25292 0.2179 0.31427 0.0
H609 H 0.25363 0.29935 0.14328 0.0
H610 H 0.33381 0.23086 0.36856 0.0
H611 H 0.19849 0.14797 0.25012 0.0
H612 H 0.27643 0.27978 0.18402 0.0
H613 H 0.14321 0.11538 0.23718 0.0
H614 H 0.41024 0.33053 0.33541 0.0
H615 H 0.19747 0.27143 0.1287 0.0
H616 H 0.14626 0.22545 0.13588 0.0
H617 H 0.40757 0.37182 0.299 0.0
H618 H 0.1161 0.17567 0.16171 0.0
N619 N 0.23381 0.24148 0.19365 0.0
C620 C 0.252 0.26735 0.17835 0.0
C621 C 0.2074 0.26279 0.14687 0.0
C622 C 0.18906 0.23558 0.16199 0.0
C623 C 0.23908 0.27856 0.155 0.0
C624 C 0.20312 0.22533 0.18556 0.0
H625 H 0.11468 0.13459 0.19947 0.0
N626 N 0.20109 0.18742 0.22185 0.0
C627 C 0.15485 0.1386 0.22679 0.0
C628 C 0.18615 0.19748 0.20021 0.0
C629 C 0.1862 0.15749 0.23426 0.0
C630 C 0.13885 0.14951 0.20551 0.0
C631 C 0.15464 0.1789 0.19153 0.0
O632 O 0.24848 0.17833 0.22874 0.0
O633 O 0.283 0.23609 0.26792 0.0
O634 O 0.3065 0.29911 0.23903 0.0
O635 O 0.29876 0.25689 0.22447 0.0
O636 O 0.27767 0.19702 0.26088 0.0
O637 O 0.2741 0.2194 0.2034 0.0
O638 O 0.26888 0.31565 0.26675 0.0
O639 O 0.24413 0.26187 0.2297 0.0
O640 O 0.22688 0.1981 0.26284 0.0
O641 O 0.22715 0.23979 0.27177 0.0
O642 O 0.25135 0.30236 0.23559 0.0
O643 O 0.25563 0.27691 0.29696 0.0
C644 C 0.2937 0.21456 0.27763 0.0
C645 C 0.26012 0.16885 0.19432 0.0
C646 C 0.28099 0.14755 0.17369 0.0
C647 C 0.28527 0.17105 0.18554 0.0
C648 C 0.25165 0.12192 0.171 0.0
C649 C 0.23094 0.14308 0.19089 0.0
C650 C 0.22687 0.11977 0.17948 0.0
C651 C 0.31426 0.28637 0.22621 0.0
C652 C 0.26564 0.18989 0.21109 0.0
C653 C 0.14026 0.18958 0.16859 0.0
C654 C 0.15744 0.21788 0.15386 0.0
C655 C 0.23434 0.28399 0.21954 0.0
C656 C 0.26619 0.32678 0.30414 0.0
C657 C 0.24353 0.32772 0.31414 0.0
C658 C 0.25142 0.35294 0.32572 0.0
C659 C 0.28177 0.37751 0.3259 0.0
C660 C 0.29656 0.3509 0.30632 0.0
C661 C 0.30409 0.37623 0.31668 0.0
C662 C 0.2154 0.20985 0.27293 0.0
C663 C 0.2571 0.30416 0.28757 0.0
H664 H 0.30806 0.19049 0.18839 0.0
H665 H 0.2479 0.10347 0.16225 0.0
H666 H 0.21143 0.14037 0.19785 0.0
H667 H 0.20444 0.09973 0.17741 0.0
H668 H 0.22 0.30919 0.31266 0.0
H669 H 0.28848 0.39799 0.33329 0.0
H670 H 0.31434 0.35088 0.29909 0.0
H671 H 0.32735 0.39523 0.31731 0.0
Tb672 Tb 0.53685 0.47903 0.00076 0.0
C673 C 0.45919 0.52793 0.02839 0.0
C674 C 0.40611 0.48791 0.02376 0.0
C675 C 0.42113 0.528 0.04754 0.0
C676 C 0.43688 0.50152 0.01914 0.0
C677 C 0.45167 0.54135 0.04293 0.0
C678 C 0.39829 0.50169 0.03753 0.0
C679 C 0.50395 0.58265 0.04428 0.0
N680 N 0.48781 0.54161 0.02185 0.0
C681 C 0.50982 0.56948 0.02863 0.0
C682 C 0.47473 0.56861 0.05141 0.0
Tb683 Tb 0.49449 0.52027 0.99421 0.0
N684 N 0.44498 0.49005 0.00461 0.0
C685 C 0.42304 0.46375 0.99511 0.0
C686 C 0.38387 0.46148 0.01372 0.0
C687 C 0.39254 0.44901 -0.00025 0.0
H688 H 0.53224 0.58108 0.02249 0.0
H689 H 0.3756 0.42829 0.99211 0.0
H690 H 0.37456 0.49261 0.04008 0.0
H691 H 0.52175 0.60379 0.05058 0.0
H692 H 0.42824 0.45317 0.98407 0.0
H693 H 0.65337 0.57514 0.01192 0.0
H694 H 0.35993 0.45073 0.01635 0.0
H695 H 0.50434 0.42568 0.96414 0.0
H696 H 0.5986 0.54777 0.01502 0.0
H697 H 0.52097 0.40919 0.93568 0.0
H698 H 0.41474 0.53838 0.05815 0.0
H699 H 0.67521 0.55663 0.98942 0.0
H700 H 0.66632 0.51887 0.96347 0.0
H701 H 0.47001 0.57942 0.0629 0.0
H702 H 0.63004 0.47609 0.94055 0.0
N703 N 0.58784 0.51209 0.99507 0.0
C704 C 0.60705 0.53828 0.00557 0.0
C705 C 0.65067 0.54433 0.9905 0.0
C706 C 0.63092 0.51869 0.97866 0.0
C707 C 0.63851 0.55463 0.00345 0.0
C708 C 0.59921 0.50311 0.98107 0.0
H709 H 0.57569 0.43581 0.92933 0.0
N710 N 0.5486 0.46409 0.97146 0.0
C711 C 0.53747 0.42869 0.94481 0.0
C712 C 0.57888 0.47851 0.96868 0.0
C713 C 0.5281 0.43847 0.96064 0.0
C714 C 0.56837 0.44385 0.94125 0.0
C715 C 0.58962 0.46875 0.95357 0.0
O716 O 0.5237 0.43201 0.0117 0.0
O717 O 0.50197 0.48174 0.01344 0.0
O718 O 0.51931 0.52145 0.03221 0.0
O719 O 0.55613 0.50663 0.03114 0.0
O720 O 0.49162 0.43929 0.00977 0.0
O721 O 0.56462 0.46691 0.03231 0.0
O722 O 0.50523 0.56467 0.97388 0.0
O723 O 0.52993 0.51814 0.98171 0.0
O724 O 0.51296 0.48055 0.96241 0.0
O725 O 0.47288 0.48637 0.9688 0.0
O726 O 0.53999 0.55997 0.98784 0.0
O727 O 0.46333 0.52453 0.96203 0.0
C728 C 0.48191 0.4541 0.01752 0.0
C729 C 0.55164 0.4128 0.04701 0.0
C730 C 0.56764 0.39207 0.08907 0.0
C731 C 0.56641 0.41698 0.07141 0.0
C732 C 0.55378 0.36272 0.08225 0.0
C733 C 0.53861 0.38383 0.03981 0.0
C734 C 0.53974 0.35875 0.05753 0.0
C735 C 0.54543 0.51954 0.04136 0.0
C736 C 0.54656 0.43766 0.03032 0.0
C737 C 0.62125 0.48363 0.95168 0.0
C738 C 0.6419 0.5082 0.96454 0.0
C739 C 0.55011 0.546 0.97937 0.0
C740 C 0.46365 0.57257 0.95149 0.0
C741 C 0.45604 0.58159 0.92607 0.0
C742 C 0.44278 0.60136 0.91806 0.0
C743 C 0.43704 0.61231 0.93573 0.0
C744 C 0.45807 0.5831 0.96946 0.0
C745 C 0.44468 0.60303 0.9615 0.0
C746 C 0.48474 0.47746 0.95607 0.0
C747 C 0.47998 0.55456 0.95789 0.0
H748 H 0.57664 0.4395 0.07687 0.0
H749 H 0.55456 0.34317 0.09589 0.0
H750 H 0.52701 0.38048 0.02076 0.0
H751 H 0.52962 0.33629 0.05218 0.0
H752 H 0.46092 0.57355 0.91236 0.0
H753 H 0.4262 0.62742 0.92964 0.0
H754 H 0.46449 0.5766 0.98933 0.0
H755 H 0.44034 0.61132 0.97524 0.0
Tb756 Tb 0.73967 0.24068 0.27226 0.0
C757 C 0.82232 0.32651 0.19391 0.0
C758 C 0.7839 0.32438 0.15675 0.0
C759 C 0.83271 0.37136 0.16021 0.0
C760 C 0.79371 0.31038 0.18057 0.0
C761 C 0.84263 0.35685 0.18354 0.0
C762 C 0.80334 0.35516 0.14686 0.0
C763 C 0.88223 0.35466 0.21839 0.0
N764 N 0.83099 0.31173 0.21638 0.0
C765 C 0.86127 0.32445 0.2277 0.0
C766 C 0.87267 0.37119 0.19646 0.0
Tb767 Tb 0.79509 0.26215 0.22988 0.0
N768 N 0.77549 0.28085 0.1909 0.0
C769 C 0.74761 0.26345 0.1777 0.0
C770 C 0.7549 0.30702 0.14364 0.0
C771 C 0.7368 0.27632 0.15408 0.0
H772 H 0.86888 0.31136 0.24433 0.0
H773 H 0.71445 0.26255 0.144 0.0
H774 H 0.7961 0.36645 0.12873 0.0
H775 H 0.90579 0.36502 0.22798 0.0
H776 H 0.73317 0.23981 0.18534 0.0
H777 H 0.7978 0.23003 0.36885 0.0
H778 H 0.74643 0.31698 0.12537 0.0
H779 H 0.6644 0.19721 0.25211 0.0
H780 H 0.78894 0.25774 0.32715 0.0
H781 H 0.62387 0.14399 0.26314 0.0
H782 H 0.84782 0.3948 0.15206 0.0
H783 H 0.76447 0.17414 0.38054 0.0
H784 H 0.71752 0.1263 0.36912 0.0
H785 H 0.88899 0.39449 0.18913 0.0
H786 H 0.67006 0.10233 0.33977 0.0
N787 N 0.75171 0.21738 0.31259 0.0
C788 C 0.77453 0.23307 0.33066 0.0
C789 C 0.76058 0.18597 0.36154 0.0
C790 C 0.73585 0.17044 0.34389 0.0
C791 C 0.77948 0.21755 0.35504 0.0
C792 C 0.73162 0.18703 0.31939 0.0
H793 H 0.63468 0.10886 0.30045 0.0
N794 N 0.69954 0.19145 0.281 0.0
C795 C 0.6467 0.15171 0.27425 0.0
C796 C 0.70485 0.1735 0.30289 0.0
C797 C 0.66993 0.1818 0.26795 0.0
C798 C 0.65292 0.13197 0.29525 0.0
C799 C 0.6818 0.14314 0.31046 0.0
O800 O 0.70123 0.24931 0.26524 0.0
O801 O 0.75419 0.26199 0.23511 0.0
O802 O 0.81306 0.3001 0.25022 0.0
O803 O 0.78647 0.27366 0.28503 0.0
O804 O 0.7446 0.28581 0.25285 0.0
O805 O 0.73564 0.26099 0.2984 0.0
O806 O 0.83243 0.25318 0.23252 0.0
O807 O 0.77372 0.23318 0.26269 0.0
O808 O 0.71624 0.20994 0.24394 0.0
O809 O 0.75596 0.21752 0.22453 0.0
O810 O 0.81976 0.24964 0.26605 0.0
O811 O 0.79455 0.24059 0.20218 0.0
C812 C 0.75314 0.28675 0.23295 0.0
C813 C 0.68546 0.25189 0.30099 0.0
C814 C 0.65869 0.26682 0.32139 0.0
C815 C 0.68298 0.27501 0.30842 0.0
C816 C 0.63704 0.23556 0.32679 0.0
C817 C 0.66432 0.22072 0.30773 0.0
C818 C 0.64004 0.21268 0.3202 0.0
C819 C 0.80784 0.29809 0.27277 0.0
C820 C 0.70973 0.26077 0.2859 0.0
C821 C 0.68732 0.12575 0.33384 0.0
C822 C 0.71431 0.13942 0.35056 0.0
C823 C 0.79589 0.22994 0.27709 0.0
C824 C 0.84321 0.25064 0.19465 0.0
C825 C 0.84797 0.228 0.1889 0.0
C826 C 0.87095 0.23689 0.17425 0.0
C827 C 0.8886 0.26854 0.1651 0.0
C828 C 0.86073 0.28197 0.18483 0.0
C829 C 0.88336 0.29083 0.17024 0.0
C830 C 0.72723 0.20202 0.22943 0.0
C831 C 0.82126 0.2413 0.21202 0.0
H832 H 0.69948 0.29918 0.30377 0.0
H833 H 0.61801 0.22882 0.33649 0.0
H834 H 0.66641 0.20248 0.30351 0.0
H835 H 0.62352 0.18857 0.32485 0.0
H836 H 0.83455 0.20371 0.19643 0.0
H837 H 0.90635 0.27605 0.15373 0.0
H838 H 0.85722 0.29966 0.18854 0.0
H839 H 0.89702 0.31511 0.16299 0.0
Tb840 Tb 0.03286 0.47651 0.50188 0.0
C841 C 0.98328 0.56422 0.44424 0.0
C842 C 0.03114 0.61133 0.43778 0.0
C843 C 0.9854 0.60238 0.40605 0.0
C844 C 1.01409 0.58251 0.45243 0.0
C845 C 0.96837 0.57413 0.42115 0.0
C846 C 0.01671 0.621 0.41439 0.0
C847 C 0.92036 0.52897 0.43083 0.0
N848 N 0.96766 0.53712 0.45937 0.0
C849 C 0.93608 0.52051 0.45384 0.0
C850 C 0.93667 0.55567 0.41423 0.0
Tb851 Tb 0.99649 0.52442 0.49553 0.0
N852 N 0.02739 0.57202 0.47479 0.0
C853 C 0.0577 0.58955 0.48386 0.0
C854 C 0.06222 0.62936 0.44698 0.0
C855 C 0.07549 0.61842 0.4702 0.0
H856 H 0.92348 0.49987 0.46671 0.0
H857 H 0.09955 0.6319 0.47745 0.0
H858 H 0.02948 0.64289 0.40271 0.0
H859 H 0.8957 0.51498 0.42595 0.0
H860 H 0.06878 0.5808 0.50095 0.0
H861 H 0.94066 0.35715 0.50821 0.0
H862 H 0.07616 0.65159 0.43628 0.0
H863 H 0.10439 0.49644 0.536 0.0
H864 H 0.97297 0.408 0.48591 0.0
H865 H 0.12655 0.48113 0.57911 0.0
H866 H 0.97444 0.6103 0.38811 0.0
H867 H 0.95238 0.34367 0.5545 0.0
H868 H 0.98903 0.35784 0.59437 0.0
H869 H 0.92442 0.56229 0.39648 0.0
H870 H 0.04053 0.39237 0.61412 0.0
N871 N 1.0021 0.42581 0.51939 0.0
C872 C 0.97818 0.40368 0.50621 0.0
C873 C 0.96657 0.36659 0.54484 0.0
C874 C 0.99279 0.38801 0.55788 0.0
C875 C 0.9599 0.37411 0.51874 0.0
C876 C 1.01068 0.4175 0.54435 0.0
H877 H 0.09265 0.43769 0.60821 0.0
N878 N 0.05771 0.46278 0.54066 0.0
C879 C 0.10195 0.46867 0.57284 0.0
C880 C 0.03956 0.43685 0.55545 0.0
C881 C 0.08917 0.47725 0.54837 0.0
C882 C 0.08271 0.44432 0.58925 0.0
C883 C 0.05134 0.42729 0.58033 0.0
O884 O 0.07565 0.48857 0.49207 0.0
O885 O 0.03537 0.52253 0.48703 0.0
O886 O 0.97756 0.50203 0.46301 0.0
O887 O 0.98826 0.45993 0.47769 0.0
O888 O 0.0379 0.49996 0.46323 0.0
O889 O 0.0345 0.44761 0.48214 0.0
O890 O 0.96222 0.51626 0.51544 0.0
O891 O 1.00194 0.48396 0.51671 0.0
O892 O 0.06221 0.5113 0.52667 0.0
O893 O 0.0325 0.53455 0.52745 0.0
O894 O 0.958 0.47918 0.50605 0.0
O895 O 1.00259 0.56012 0.51236 0.0
C896 C 0.03949 0.52542 0.4647 0.0
C897 C 0.08239 0.44898 0.48332 0.0
C898 C 0.10856 0.43177 0.46436 0.0
C899 C 0.0894 0.44568 0.4617 0.0
C900 C 0.12021 0.42114 0.48879 0.0
C901 C 0.09351 0.43721 0.50734 0.0
C902 C 0.11255 0.42366 0.51003 0.0
C903 C 0.97343 0.47466 0.46194 0.0
C904 C 0.06382 0.46502 0.48052 0.0
C905 C 0.03215 0.3997 0.59478 0.0
C906 C 1.00284 0.38003 0.58353 0.0
C907 C 0.97393 0.46503 0.51907 0.0
C908 C 0.95683 0.55879 0.51803 0.0
C909 C 0.94874 0.56149 0.53932 0.0
C910 C 0.92741 0.57301 0.53614 0.0
C911 C 0.91451 0.5817 0.51156 0.0
C912 C 0.94432 0.5686 0.4938 0.0
C913 C 0.92308 0.57968 0.49061 0.0
C914 C 0.05645 0.52907 0.53591 0.0
C915 C 0.97645 0.54373 0.52118 0.0
H916 H 0.08057 0.45441 0.44301 0.0
H917 H 0.13502 0.41043 0.49145 0.0
H918 H 0.08751 0.43842 0.52402 0.0
H919 H 0.12139 0.415 0.52869 0.0
H920 H 0.95831 0.55399 0.55817 0.0
H921 H 0.89802 0.59053 0.50855 0.0
H922 H 0.95078 0.5676 0.47729 0.0
H923 H 0.9132 0.58674 0.47179 0.0
Tb924 Tb 0.78235 0.72519 0.25384 0.0
C925 C 0.73412 0.81675 0.19336 0.0
C926 C 0.78158 0.86492 0.1897 0.0
C927 C 0.73775 0.85632 0.15601 0.0
C928 C 0.76417 0.8353 0.20316 0.0
C929 C 0.72028 0.82722 0.16992 0.0
C930 C 0.76836 0.87513 0.16588 0.0
C931 C 0.67248 0.78025 0.17656 0.0
N932 N 0.71821 0.7886 0.20713 0.0
C933 C 0.68723 0.77098 0.19979 0.0
C934 C 0.68921 0.80829 0.16137 0.0
Tb935 Tb 0.74532 0.77436 0.24351 0.0
N936 N 0.77627 0.82431 0.22597 0.0
C937 C 0.80513 0.84294 0.23726 0.0
C938 C 0.81162 0.88341 0.20064 0.0
C939 C 0.82328 0.87249 0.22467 0.0
H940 H 0.67434 0.74931 0.21155 0.0
H941 H 0.84631 0.88674 0.23352 0.0
H942 H 0.78146 0.89768 0.15512 0.0
H943 H 0.64827 0.76577 0.17038 0.0
H944 H 0.81491 0.83516 0.25572 0.0
H945 H 0.68428 0.61084 0.26456 0.0
H946 H 0.82579 0.90627 0.19089 0.0
H947 H 0.85358 0.7542 0.28647 0.0
H948 H 0.71274 0.66392 0.24315 0.0
H949 H 0.88126 0.73784 0.32641 0.0
H950 H 0.72767 0.86468 0.1378 0.0
H951 H 0.70853 0.59038 0.3046 0.0
H952 H 0.75561 0.59836 0.33693 0.0
H953 H 0.67774 0.81543 0.14338 0.0
H954 H 0.80856 0.63313 0.35444 0.0
N955 N 0.75258 0.67528 0.27183 0.0
C956 C 0.72379 0.65603 0.26089 0.0
C957 C 0.72112 0.61416 0.29553 0.0
C958 C 0.75113 0.63338 0.30595 0.0
C959 C 0.70745 0.62554 0.27285 0.0
C960 C 0.76638 0.66428 0.29365 0.0
H961 H 0.85498 0.68546 0.35129 0.0
N962 N 0.8111 0.71261 0.2899 0.0
C963 C 0.85745 0.72237 0.32006 0.0
C964 C 0.79654 0.68357 0.30302 0.0
C965 C 0.84164 0.73164 0.29755 0.0
C966 C 0.84251 0.69282 0.33406 0.0
C967 C 0.81198 0.67275 0.32527 0.0
O968 O 0.81483 0.73669 0.23071 0.0
O969 O 0.78018 0.76738 0.23425 0.0
O970 O 0.73287 0.75692 0.20865 0.0
O971 O 0.74299 0.7143 0.22376 0.0
O972 O 0.82294 0.77009 0.24779 0.0
O973 O 0.77862 0.69057 0.23668 0.0
O974 O 0.70887 0.76475 0.26145 0.0
O975 O 0.7474 0.73222 0.26222 0.0
O976 O 0.79342 0.74135 0.28916 0.0
O977 O 0.78412 0.7845 0.27434 0.0
O978 O 0.7048 0.72929 0.25188 0.0
O979 O 0.75161 0.80625 0.26492 0.0
C980 C 0.80866 0.78567 0.2339 0.0
C981 C 0.82631 0.69779 0.22884 0.0
C982 C 0.8492 0.67423 0.21284 0.0
C983 C 0.8254 0.6824 0.21068 0.0
C984 C 0.87385 0.6824 0.23297 0.0
C985 C 0.85111 0.705 0.24868 0.0
C986 C 0.87461 0.6974 0.25073 0.0
C987 C 0.73123 0.73088 0.20635 0.0
C988 C 0.80335 0.70896 0.22618 0.0
C989 C 0.79686 0.64203 0.33758 0.0
C990 C 0.76665 0.62231 0.32776 0.0
C991 C 0.71945 0.71359 0.26418 0.0
C992 C 0.70573 0.80713 0.26772 0.0
C993 C 0.70185 0.8144 0.2889 0.0
C994 C 0.68149 0.82707 0.28607 0.0
C995 C 0.66553 0.83249 0.26198 0.0
C996 C 0.69006 0.81372 0.2439 0.0
C997 C 0.66997 0.82605 0.2411 0.0
C998 C 0.79612 0.76788 0.29148 0.0
C999 C 0.72367 0.79026 0.27062 0.0
H1000 H 0.80646 0.6769 0.19513 0.0
H1001 H 0.89302 0.67757 0.23489 0.0
H1002 H 0.853 0.71755 0.26221 0.0
H1003 H 0.89382 0.70361 0.26599 0.0
H1004 H 0.71381 0.80943 0.30745 0.0
H1005 H 0.64982 0.8422 0.25923 0.0
H1006 H 0.6929 0.8089 0.22743 0.0
H1007 H 0.65767 0.83054 0.22263 0.0
Tb1008 Tb 0.7853 0.22943 0.75298 0.0
C1009 C 0.70487 0.26951 0.78124 0.0
C1010 C 0.65241 0.23047 0.77033 0.0
C1011 C 0.66253 0.26494 0.79801 0.0
C1012 C 0.68416 0.24535 0.76835 0.0
C1013 C 0.69423 0.27912 0.79663 0.0
C1014 C 0.64165 0.24123 0.78438 0.0
C1015 C 0.74623 0.31919 0.8054 0.0
N1016 N 0.7351 0.2842 0.77804 0.0
C1017 C 0.7554 0.30993 0.78903 0.0
C1018 C 0.71548 0.30371 0.80925 0.0
Tb1019 Tb 0.7443 0.27204 0.74509 0.0
N1020 N 0.69506 0.23659 0.75374 0.0
C1021 C 0.67597 0.20978 0.74413 0.0
C1022 C 0.63235 0.20547 0.75786 0.0
C1023 C 0.64439 0.19416 0.74574 0.0
H1024 H 0.7788 0.32418 0.78482 0.0
H1025 H 0.6293 0.17368 0.73727 0.0
H1026 H 0.6172 0.23154 0.78468 0.0
H1027 H 0.76267 0.33908 0.81425 0.0
H1028 H 0.68449 0.1998 0.7353 0.0
H1029 H 0.90033 0.32839 0.75478 0.0
H1030 H 0.60768 0.19438 0.75787 0.0
H1031 H 0.74892 0.1732 0.71745 0.0
H1032 H 0.8473 0.29926 0.76348 0.0
H1033 H 0.76269 0.15539 0.68914 0.0
H1034 H 0.65384 0.27265 0.80908 0.0
H1035 H 0.91757 0.31118 0.72716 0.0
H1036 H 0.90422 0.27692 0.69692 0.0
H1037 H 0.70818 0.31161 0.82128 0.0
H1038 H 0.86632 0.23131 0.67767 0.0
N1039 N 0.83349 0.26455 0.74169 0.0
C1040 C 0.85394 0.29077 0.75173 0.0
C1041 C 0.89379 0.29871 0.73043 0.0
C1042 C 0.8725 0.27338 0.71877 0.0
C1043 C 0.88426 0.30802 0.7464 0.0
C1044 C 0.84208 0.25659 0.7247 0.0
H1045 H 0.81393 0.18599 0.67467 0.0
N1046 N 0.79131 0.21567 0.71933 0.0
C1047 C 0.77883 0.17749 0.69471 0.0
C1048 C 0.82039 0.23149 0.71318 0.0
C1049 C 0.77103 0.18811 0.71089 0.0
C1050 C 0.80779 0.19461 0.687 0.0
C1051 C 0.82911 0.22177 0.69639 0.0
O1052 O 0.76747 0.18153 0.76076 0.0
O1053 O 0.74364 0.22772 0.75971 0.0
O1054 O 0.77935 0.28041 0.7783 0.0
O1055 O 0.80905 0.25489 0.7836 0.0
O1056 O 0.76616 0.20785 0.78866 0.0
O1057 O 0.81655 0.21169 0.77105 0.0
O1058 O 0.76527 0.32057 0.73831 0.0
O1059 O 0.78619 0.27392 0.73869 0.0
O1060 O 0.74835 0.21905 0.72091 0.0
O1061 O 0.72097 0.24735 0.71391 0.0
O1062 O 0.76211 0.29159 0.70901 0.0
O1063 O 0.71593 0.29297 0.72698 0.0
C1064 C 0.74299 0.21366 0.78242 0.0
C1065 C 0.79414 0.16066 0.79411 0.0
C1066 C 0.81606 0.14681 0.83645 0.0
C1067 C 0.81605 0.16938 0.81551 0.0
C1068 C 0.79439 0.11562 0.83609 0.0
C1069 C 0.77251 0.12942 0.79376 0.0
C1070 C 0.77263 0.10694 0.81479 0.0
C1071 C 0.80182 0.27333 0.79004 0.0
C1072 C 0.79448 0.18314 0.77129 0.0
C1073 C 0.85931 0.23848 0.69049 0.0
C1074 C 0.88093 0.26429 0.70159 0.0
C1075 C 0.78598 0.28696 0.71572 0.0
C1076 C 0.74166 0.34087 0.701 0.0
C1077 C 0.71709 0.33184 0.6812 0.0
C1078 C 0.71822 0.3518 0.65815 0.0
C1079 C 0.74435 0.38072 0.65447 0.0
C1080 C 0.76772 0.36989 0.69732 0.0
C1081 C 0.76909 0.38963 0.67403 0.0
C1082 C 0.72687 0.22737 0.70829 0.0
C1083 C 0.73949 0.32074 0.72577 0.0
H1084 H 0.83346 0.19329 0.81581 0.0
H1085 H 0.79504 0.09802 0.85208 0.0
H1086 H 0.75582 0.12241 0.77706 0.0
H1087 H 0.75627 0.0828 0.81444 0.0
H1088 H 0.69623 0.31006 0.68395 0.0
H1089 H 0.74481 0.39701 0.63701 0.0
H1090 H 0.78677 0.37746 0.71253 0.0
H1091 H 0.78892 0.41224 0.6714 0.0
Tb1092 Tb 0.75582 0.72316 0.73193 0.0
C1093 C 0.83897 0.80006 0.79903 0.0
C1094 C 0.83218 0.76612 0.83977 0.0
C1095 C 0.8826 0.80945 0.83322 0.0
C1096 C 0.82029 0.77388 0.81437 0.0
C1097 C 0.87029 0.81838 0.80854 0.0
C1098 C 0.86353 0.78353 0.84886 0.0
C1099 C 0.87379 0.85634 0.77063 0.0
N1100 N 0.82579 0.80931 0.77588 0.0
C1101 C 0.84248 0.83821 0.76249 0.0
C1102 C 0.8879 0.8462 0.79363 0.0
Tb1103 Tb 0.77313 0.778 0.76589 0.0
N1104 N 0.78988 0.75768 0.80524 0.0
C1105 C 0.76999 0.73439 0.82095 0.0
C1106 C 0.81185 0.7422 0.85576 0.0
C1107 C 0.78054 0.72655 0.84636 0.0
H1108 H 0.83169 0.84803 0.7456 0.0
H1109 H 0.76449 0.70832 0.85866 0.0
H1110 H 0.87302 0.77775 0.86824 0.0
H1111 H 0.88673 0.87866 0.75953 0.0
H1112 H 0.74564 0.72257 0.81453 0.0
H1113 H 0.75325 0.79996 0.64272 0.0
H1114 H 0.81999 0.73598 0.87546 0.0
H1115 H 0.70613 0.64818 0.74866 0.0
H1116 H 0.77747 0.78155 0.68322 0.0
H1117 H 0.65171 0.61232 0.7353 0.0
H1118 H 0.90653 0.82326 0.84077 0.0
H1119 H 0.69735 0.76971 0.62847 0.0
H1120 H 0.64749 0.72189 0.6359 0.0
H1121 H 0.91195 0.86081 0.80029 0.0
H1122 H 0.61955 0.67109 0.66155 0.0
N1123 N 0.73562 0.7427 0.69368 0.0
C1124 C 0.75298 0.7688 0.67809 0.0
C1125 C 0.70783 0.76188 0.64673 0.0
C1126 C 0.69049 0.73417 0.66195 0.0
C1127 C 0.73933 0.77905 0.65472 0.0
C1128 C 0.70522 0.725 0.68562 0.0
H1129 H 0.62094 0.62998 0.69849 0.0
N1130 N 0.70529 0.68712 0.72158 0.0
C1131 C 0.66184 0.63605 0.72548 0.0
C1132 C 0.68948 0.69641 0.70013 0.0
C1133 C 0.69255 0.65659 0.73318 0.0
C1134 C 0.64457 0.64611 0.70472 0.0
C1135 C 0.65861 0.67626 0.69126 0.0
O1136 O 0.75882 0.68397 0.73069 0.0
O1137 O 0.78354 0.7371 0.76937 0.0
O1138 O 0.79683 0.80031 0.73332 0.0
O1139 O 0.80237 0.76032 0.72834 0.0
O1140 O 0.78027 0.69939 0.76091 0.0
O1141 O 0.7744 0.72349 0.70132 0.0
O1142 O 0.78298 0.82149 0.77032 0.0
O1143 O 0.7444 0.76345 0.72904 0.0
O1144 O 0.72462 0.69995 0.75997 0.0
O1145 O 0.72688 0.74156 0.77122 0.0
O1146 O 0.74769 0.80107 0.73754 0.0
O1147 O 0.74989 0.78095 0.79166 0.0
C1148 C 0.79472 0.71588 0.77848 0.0
C1149 C 0.76212 0.67325 0.69344 0.0
C1150 C 0.77685 0.64671 0.67222 0.0
C1151 C 0.78463 0.67234 0.68324 0.0
C1152 C 0.74675 0.62174 0.67289 0.0
C1153 C 0.73186 0.64887 0.69174 0.0
C1154 C 0.72446 0.62314 0.68202 0.0
C1155 C 0.81152 0.78994 0.72555 0.0
C1156 C 0.77145 0.69561 0.71028 0.0
C1157 C 0.64332 0.68613 0.6685 0.0
C1158 C 0.65925 0.71501 0.65385 0.0
C1159 C 0.73306 0.7846 0.71996 0.0
C1160 C 0.76803 0.83223 0.8022 0.0
C1161 C 0.74282 0.8289 0.81164 0.0
C1162 C 0.74651 0.85222 0.82339 0.0
C1163 C 0.77517 0.87885 0.82514 0.0
C1164 C 0.79662 0.85901 0.80479 0.0
C1165 C 0.79998 0.88216 0.81596 0.0
C1166 C 0.71367 0.71188 0.77054 0.0
C1167 C 0.76329 0.81113 0.78579 0.0
H1168 H 0.80802 0.69114 0.6843 0.0
H1169 H 0.74016 0.60076 0.66631 0.0
H1170 H 0.71416 0.64885 0.69911 0.0
H1171 H 0.70138 0.60386 0.68197 0.0
H1172 H 0.72048 0.8087 0.8095 0.0
H1173 H 0.77835 0.8972 0.83372 0.0
H1174 H 0.81622 0.86263 0.7974 0.0
H1175 H 0.82189 0.90294 0.81733 0.0
Tb1176 Tb 0.50326 0.46991 0.48144 0.0
C1177 C 0.59408 0.56391 0.55379 0.0
C1178 C 0.59206 0.53202 0.59519 0.0
C1179 C 0.63816 0.5807 0.58706 0.0
C1180 C 0.57862 0.53702 0.56977 0.0
C1181 C 0.62362 0.58663 0.56245 0.0
C1182 C 0.62233 0.55343 0.60346 0.0
C1183 C 0.61954 0.62153 0.52379 0.0
N1184 N 0.57864 0.56935 0.53068 0.0
C1185 C 0.59002 0.59845 0.5164 0.0
C1186 C 0.63672 0.61537 0.54673 0.0
Tb1187 Tb 0.53006 0.53102 0.51965 0.0
N1188 N 0.54926 0.51723 0.56108 0.0
C1189 C 0.5314 0.4929 0.57778 0.0
C1190 C 0.57416 0.5066 0.61187 0.0
C1191 C 0.54347 0.48734 0.60323 0.0
H1192 H 0.57625 0.60366 0.49913 0.0
H1193 H 0.52922 0.46776 0.616 0.0
H1194 H 0.63318 0.54974 0.62277 0.0
H1195 H 0.62877 0.64418 0.51201 0.0
H1196 H 0.50801 0.47679 0.572 0.0
H1197 H 0.50097 0.53815 0.38713 0.0
H1198 H 0.58353 0.5021 0.63153 0.0
H1199 H 0.45468 0.3963 0.49998 0.0
H1200 H 0.52546 0.52258 0.4285 0.0
H1201 H 0.40045 0.35872 0.48717 0.0
H1202 H 0.66097 0.5977 0.59398 0.0
H1203 H 0.44437 0.50966 0.37465 0.0
H1204 H 0.39379 0.46382 0.3844 0.0
H1205 H 0.65933 0.63345 0.55268 0.0
H1206 H 0.36609 0.41438 0.41184 0.0
N1207 N 0.48321 0.48554 0.44091 0.0
C1208 C 0.50078 0.50953 0.42391 0.0
C1209 C 0.45501 0.50261 0.39315 0.0
C1210 C 0.43747 0.47665 0.40966 0.0
C1211 C 0.48694 0.51861 0.40007 0.0
C1212 C 0.4525 0.46848 0.43356 0.0
H1213 H 0.36871 0.37441 0.44981 0.0
N1214 N 0.45314 0.43323 0.47078 0.0
C1215 C 0.41025 0.38201 0.47646 0.0
C1216 C 0.43688 0.44116 0.44906 0.0
C1217 C 0.4409 0.40331 0.48365 0.0
C1218 C 0.39237 0.39097 0.45543 0.0
C1219 C 0.40588 0.4206 0.44102 0.0
O1220 O 0.51282 0.43216 0.48773 0.0
O1221 O 0.53286 0.49323 0.51245 0.0
O1222 O 0.56867 0.54615 0.49941 0.0
O1223 O 0.54529 0.51181 0.4703 0.0
O1224 O 0.5163 0.44721 0.51883 0.0
O1225 O 0.52633 0.46807 0.45567 0.0
O1226 O 0.51821 0.56739 0.51215 0.0
O1227 O 0.50156 0.50904 0.4878 0.0
O1228 O 0.46548 0.45358 0.50259 0.0
O1229 O 0.48911 0.48838 0.53092 0.0
O1230 O 0.52236 0.55654 0.48253 0.0
O1231 O 0.50279 0.53044 0.54303 0.0
C1232 C 0.53576 0.47178 0.52846 0.0
C1233 C 0.51571 0.41781 0.45161 0.0
C1234 C 0.52861 0.39299 0.42728 0.0
C1235 C 0.5378 0.41661 0.44115 0.0
C1236 C 0.49743 0.37029 0.42487 0.0
C1237 C 0.48469 0.39535 0.44782 0.0
C1238 C 0.47574 0.37163 0.4349 0.0
C1239 C 0.56793 0.53722 0.47883 0.0
C1240 C 0.52518 0.44149 0.46728 0.0
C1241 C 0.39006 0.42959 0.41814 0.0
C1242 C 0.40584 0.45771 0.40251 0.0
C1243 C 0.50397 0.53275 0.47181 0.0
C1244 C 0.51173 0.57957 0.5477 0.0
C1245 C 0.48839 0.58254 0.55474 0.0
C1246 C 0.49659 0.60556 0.5689 0.0
C1247 C 0.5281 0.62493 0.57613 0.0
C1248 C 0.54289 0.59906 0.55571 0.0
C1249 C 0.55097 0.62157 0.56969 0.0
C1250 C 0.46651 0.46271 0.52299 0.0
C1251 C 0.5038 0.55695 0.53152 0.0
H1252 H 0.5618 0.43402 0.44361 0.0
H1253 H 0.4897 0.35126 0.41519 0.0
H1254 H 0.46726 0.39577 0.45506 0.0
H1255 H 0.45179 0.35411 0.43265 0.0
H1256 H 0.4642 0.56766 0.54877 0.0
H1257 H 0.53509 0.64269 0.58701 0.0
H1258 H 0.56115 0.59714 0.55108 0.0
H1259 H 0.57514 0.63661 0.5755 0.0
Tb1260 Tb 0.98703 0.49035 0.01704 0.0
C1261 C 0.0719 0.57529 0.94684 0.0
C1262 C 0.03771 0.56993 0.9068 0.0
C1263 C 0.08459 0.61829 0.91141 0.0
C1264 C 0.04419 0.55826 0.93256 0.0
C1265 C 0.09271 0.60529 0.93615 0.0
C1266 C 0.05741 0.60043 0.8966 0.0
C1267 C 0.13093 0.60475 0.97264 0.0
N1268 N 0.07993 0.56125 0.97005 0.0
C1269 C 0.10997 0.57462 0.982 0.0
C1270 C 0.12197 0.6205 0.9499 0.0
Tb1271 Tb 0.04387 0.51113 0.98239 0.0
N1272 N 0.02498 0.52924 0.94316 0.0
C1273 C 0.999 0.51058 0.92895 0.0
C1274 C 1.01207 0.55029 0.89187 0.0
C1275 C 0.99249 0.52052 0.90309 0.0
H1276 H 0.1175 0.56227 -0.00073 0.0
H1277 H 0.97227 0.50531 0.89187 0.0
H1278 H 0.05226 0.61012 0.87709 0.0
H1279 H 0.15409 0.61563 0.98281 0.0
H1280 H 0.98381 0.48757 0.93729 0.0
H1281 H 0.06477 0.48846 0.1042 0.0
H1282 H 1.00676 0.55814 0.8719 0.0
H1283 H 0.9124 0.44164 0.00102 0.0
H1284 H 0.04805 0.5116 0.06187 0.0
H1285 H 0.87492 0.38852 0.01724 0.0
H1286 H 0.10008 0.64145 0.90305 0.0
H1287 H 0.03186 0.43392 0.12192 0.0
H1288 H 0.98266 0.38462 0.1171 0.0
H1289 H 0.13846 0.64362 0.94242 0.0
H1290 H 0.93156 0.35692 0.09281 0.0
N1291 N 1.00646 0.47051 0.0552 0.0
C1292 C 0.0335 0.48785 0.06932 0.0
C1293 C 0.02445 0.44399 0.10325 0.0
C1294 C 0.99622 0.42671 0.08914 0.0
C1295 C 0.04307 0.47477 0.09334 0.0
C1296 C 0.98767 0.44084 0.06487 0.0
H1297 H 0.89109 0.35824 0.05572 0.0
N1298 N 0.95027 0.44064 0.02895 0.0
C1299 C 0.89853 0.39841 0.02682 0.0
C1300 C 0.95884 0.42527 0.05117 0.0
C1301 C 0.9199 0.42843 0.01765 0.0
C1302 C 0.90779 0.38138 0.04849 0.0
C1303 C 0.93793 0.39509 0.0614 0.0
O1304 O 0.94764 0.49307 0.01896 0.0
O1305 O 1.00133 0.51921 0.97933 0.0
O1306 O 0.06455 0.54402 0.00789 0.0
O1307 O 0.0213 0.53694 0.0206 0.0
O1308 O 0.96198 0.51267 0.98747 0.0
O1309 O 0.98777 0.50928 0.04708 0.0
O1310 O 0.08434 0.51038 0.98019 0.0
O1311 O 0.02927 0.48206 0.01959 0.0
O1312 O 0.96569 0.45766 0.99156 0.0
O1313 O 1.00924 0.46415 0.97969 0.0
O1314 O 0.06972 0.49013 0.01268 0.0
O1315 O 0.04317 0.48968 0.95419 0.0
C1316 C 0.97935 0.52948 0.97022 0.0
C1317 C 0.93883 0.49947 0.05606 0.0
C1318 C 0.91569 0.51831 0.0767 0.0
C1319 C 0.9394 0.52398 0.06409 0.0
C1320 C 0.89158 0.48811 0.08114 0.0
C1321 C 0.91472 0.46939 0.06124 0.0
C1322 C 0.89122 0.46384 0.07359 0.0
C1323 C 0.05065 0.55252 0.0187 0.0
C1324 C 0.96001 0.50656 0.03859 0.0
C1325 C 0.94717 0.38022 0.08482 0.0
C1326 C 0.97621 0.39604 0.0987 0.0
C1327 C 0.05166 0.47244 0.02935 0.0
C1328 C 0.09188 0.50209 0.94324 0.0
C1329 C 0.09251 0.47774 0.93593 0.0
C1330 C 0.11578 0.4841 0.92243 0.0
C1331 C 0.13789 0.515 0.91603 0.0
C1332 C 0.11393 0.53275 0.93605 0.0
C1333 C 0.13674 0.53907 0.92255 0.0
C1334 C 0.97969 0.44886 0.98117 0.0
C1335 C 0.07178 0.49483 0.96174 0.0
H1336 H 0.95758 0.54743 0.05986 0.0
H1337 H 0.87298 0.48331 0.09053 0.0
H1338 H 0.91347 0.45032 0.05506 0.0
H1339 H 0.8724 0.44067 0.07703 0.0
H1340 H 0.07593 0.45391 0.94172 0.0
H1341 H 0.15608 0.52052 0.90583 0.0
H1342 H 0.11421 0.55174 0.94158 0.0
H1343 H 0.15398 0.56275 0.91749 0.0
H1344 H 0.22815 0.24084 0.80317 0.0
H1345 H 0.20716 0.21594 0.84221 0.0
H1346 H 0.18671 0.12734 0.82755 0.0
H1347 H 0.19622 0.15173 0.78483 0.0
H1348 H 0.14402 0.1154 0.84112 0.0
H1349 H 0.24781 0.18168 0.88248 0.0
H1350 H 0.29368 0.22962 0.89371 0.0
H1351 H 0.23523 0.26016 0.90909 0.0
H1352 H 0.18909 0.21269 0.89776 0.0
H1353 H 0.09604 0.02881 0.95683 0.0
H1354 H 0.13138 0.06031 0.9259 0.0
H1355 H 0.11556 0.13762 0.92307 0.0
H1356 H 0.08064 0.10612 0.95478 0.0
H1357 H 0.17492 0.15558 0.92057 0.0
H1358 H 0.07263 0.08704 0.87335 0.0
H1359 H 0.03027 0.03772 0.86084 0.0
H1360 H 0.09603 0.00744 0.86152 0.0
H1361 H 0.13887 0.05711 0.87242 0.0
C1362 C 0.21857 0.21594 0.80824 0.0
C1363 C 0.21474 0.19814 0.79111 0.0
C1364 C 0.20756 0.20163 0.83126 0.0
C1365 C 0.19551 0.16934 0.8388 0.0
C1366 C 0.19501 0.15216 0.82247 0.0
C1367 C 0.20209 0.16614 0.79821 0.0
C1368 C 0.17891 0.15259 0.86117 0.0
C1369 C 0.15221 0.1241 0.85872 0.0
C1370 C 0.18722 0.16424 0.88394 0.0
C1371 C 0.21499 0.19362 0.88918 0.0
C1372 C 0.24474 0.19874 0.88804 0.0
C1373 C 0.27079 0.22579 0.89452 0.0
C1374 C 0.26735 0.24779 0.90226 0.0
C1375 C 0.23787 0.24305 0.90319 0.0
C1376 C 0.21179 0.2161 0.89675 0.0
C1377 C 0.10071 0.05277 0.94994 0.0
C1378 C 0.08578 0.06528 0.95779 0.0
C1379 C 0.12053 0.07055 0.93215 0.0
C1380 C 0.1251 0.1008 0.92166 0.0
C1381 C 0.11189 0.11409 0.93083 0.0
C1382 C 0.09227 0.09633 0.94898 0.0
C1383 C 0.14287 0.11819 0.90057 0.0
C1384 C 0.16864 0.147 0.90307 0.0
C1385 C 0.13488 0.10633 0.87825 0.0
C1386 C 0.10888 0.07548 0.87424 0.0
C1387 C 0.078 0.06964 0.87127 0.0
C1388 C 0.05393 0.04171 0.86438 0.0
C1389 C 0.06037 0.01921 0.86114 0.0
C1390 C 0.091 0.02472 0.86434 0.0
C1391 C 0.11519 0.05283 0.87064 0.0
H1392 H 0.04163 0.99768 0.8558 0.0
H1393 H 0.28754 0.26852 0.90757 0.0
H1394 H 0.11405 0.02184 0.02922 0.0
H1395 H 0.14225 0.99306 0.0549 0.0
H1396 H 0.05475 0.91308 0.06989 0.0
H1397 H 0.02767 0.94234 0.04678 0.0
H1398 H 0.09458 0.91168 0.10546 0.0
H1399 H 0.0915 0.93199 0.01169 0.0
H1400 H 0.10583 0.96713 0.97129 0.0
H1401 H 0.20174 0.00597 0.00415 0.0
H1402 H 0.18794 0.97105 0.04467 0.0
H1403 H 0.13962 0.8075 0.14517 0.0
H1404 H 0.11358 0.82242 0.10408 0.0
H1405 H 0.19497 0.91104 0.09445 0.0
H1406 H 0.22082 0.89599 0.13505 0.0
H1407 H 0.15418 0.90379 0.05208 0.0
H1408 H 0.15026 0.89638 0.14702 0.0
H1409 H 0.13473 0.866 0.18867 0.0
H1410 H 0.04719 0.80445 0.15202 0.0
H1411 H 0.06245 0.83437 0.11036 0.0
C1412 C 0.10151 0.99882 0.03962 0.0
C1413 C 0.06921 0.98389 0.03656 0.0
C1414 C 0.11732 0.98232 0.05364 0.0
C1415 C 0.10029 0.95083 0.06312 0.0
C1416 C 0.06825 0.93741 0.06255 0.0
C1417 C 0.05277 0.95416 0.04956 0.0
C1418 C 0.11427 0.93025 0.07103 0.0
C1419 C 0.10719 0.90963 0.09356 0.0
C1420 C 0.13063 0.92788 0.05535 0.0
C1421 C 0.13869 0.94909 0.03114 0.0
C1422 C 0.1156 0.9481 0.01026 0.0
C1423 C 0.12364 0.96791 0.98735 0.0
C1424 C 0.15466 0.98874 0.98515 0.0
C1425 C 0.17773 0.98982 0.00585 0.0
C1426 C 0.16984 0.96999 0.02876 0.0
C1427 C 0.15219 0.82951 0.1335 0.0
C1428 C 0.18095 0.85181 0.14319 0.0
C1429 C 0.13768 0.83769 0.10996 0.0
C1430 C 0.15187 0.86831 0.09732 0.0
C1431 C 0.18338 0.88755 0.10449 0.0
C1432 C 0.19786 0.87944 0.12788 0.0
C1433 C 0.13324 0.88437 0.08599 0.0
C1434 C 0.14012 0.90489 0.06318 0.0
C1435 C 0.11588 0.88638 0.10108 0.0
C1436 C 0.10807 0.8666 0.12579 0.0
C1437 C 0.12811 0.87582 0.14801 0.0
C1438 C 0.11927 0.85887 0.17153 0.0
C1439 C 0.09024 0.83299 0.17297 0.0
C1440 C 0.06989 0.82416 0.15088 0.0
C1441 C 0.07867 0.84099 0.12734 0.0
H1442 H 0.08339 0.82001 0.19119 0.0
H1443 H 0.16083 0.00406 0.96741 0.0
H1444 H 0.41272 0.9227 0.46831 0.0
H1445 H 0.38211 0.88897 0.43711 0.0
H1446 H 0.46375 0.8874 0.42842 0.0
H1447 H 0.49412 0.91871 0.46104 0.0
H1448 H 0.41899 0.91553 0.38354 0.0
H1449 H 0.43343 0.82966 0.44269 0.0
H1450 H 0.43209 0.79867 0.48556 0.0
H1451 H 0.3353 0.77135 0.47878 0.0
H1452 H 0.33636 0.80295 0.43604 0.0
H1453 H 0.36338 0.82581 0.28813 0.0
H1454 H 0.39288 0.85013 0.32525 0.0
H1455 H 0.309 0.80708 0.35814 0.0
H1456 H 0.27993 0.78112 0.32206 0.0
H1457 H 0.35535 0.80134 0.39172 0.0
H1458 H 0.33863 0.88195 0.33099 0.0
H1459 H 0.33926 0.91438 0.28877 0.0
H1460 H 0.43825 0.95316 0.29834 0.0
H1461 H 0.43816 0.92054 0.3405 0.0
C1462 C 0.4239 0.914 0.46078 0.0
C1463 C 0.45584 0.92353 0.46708 0.0
C1464 C 0.40648 0.89511 0.44275 0.0
C1465 C 0.42108 0.88631 0.43067 0.0
C1466 C 0.45241 0.89416 0.43785 0.0
C1467 C 0.4696 0.91208 0.45643 0.0
C1468 C 0.40427 0.87153 0.40878 0.0
C1469 C 0.4053 0.89057 0.38508 0.0
C1470 C 0.38624 0.83923 0.41141 0.0
C1471 C 0.38507 0.81893 0.4364 0.0
C1472 C 0.41194 0.81725 0.45045 0.0
C1473 C 0.41124 0.79959 0.4747 0.0
C1474 C 0.38365 0.78315 0.48494 0.0
C1475 C 0.35667 0.78418 0.47085 0.0
C1476 C 0.35731 0.80197 0.44662 0.0
C1477 C 0.35146 0.82134 0.30345 0.0
C1478 C 0.3196 0.80179 0.30243 0.0
C1479 C 0.36814 0.83539 0.3244 0.0
C1480 C 0.35287 0.83038 0.34413 0.0
C1481 C 0.321 0.81106 0.34299 0.0
C1482 C 0.30445 0.79669 0.32228 0.0
C1483 C 0.37013 0.84526 0.36611 0.0
C1484 C 0.36909 0.8263 0.38995 0.0
C1485 C 0.38803 0.87776 0.36355 0.0
C1486 C 0.38836 0.89863 0.33881 0.0
C1487 C 0.36053 0.89736 0.32407 0.0
C1488 C 0.36079 0.91573 0.30014 0.0
C1489 C 0.38877 0.93576 0.29085 0.0
C1490 C 0.41659 0.93761 0.30556 0.0
C1491 C 0.41646 0.91921 0.32949 0.0
H1492 H 0.38891 0.94987 0.27227 0.0
H1493 H 0.38316 0.76953 0.50375 0.0
H1494 H 0.32483 0.11643 0.70782 0.0
H1495 H 0.33654 0.09491 0.6801 0.0
H1496 H 0.38843 0.18704 0.64044 0.0
H1497 H 0.37602 0.20859 0.66804 0.0
H1498 H 0.35753 0.14225 0.60809 0.0
H1499 H 0.4265 0.15598 0.6874 0.0
H1500 H 0.43837 0.15014 0.73381 0.0
H1501 H 0.38955 0.0511 0.74027 0.0
H1502 H 0.37705 0.05636 0.6939 0.0
H1503 H 0.43115 0.07952 0.56002 0.0
H1504 H 0.42294 0.11347 0.57825 0.0
H1505 H 0.38221 0.03719 0.63759 0.0
H1506 H 0.39288 0.00474 0.62119 0.0
H1507 H 0.41405 0.08285 0.65783 0.0
H1508 H 0.34089 0.06731 0.57972 0.0
H1509 H 0.32609 0.07157 0.53351 0.0
H1510 H 0.37916 0.17062 0.52446 0.0
H1511 H 0.39462 0.16691 0.5706 0.0
C1512 C 0.33781 0.13197 0.69261 0.0
C1513 C 0.34928 0.1641 0.68991 0.0
C1514 C 0.34473 0.11971 0.67688 0.0
C1515 C 0.36387 0.13934 0.6584 0.0
C1516 C 0.37365 0.17139 0.65453 0.0
C1517 C 0.36648 0.18369 0.67023 0.0
C1518 C 0.37617 0.1265 0.64533 0.0
C1519 C 0.37019 0.12952 0.61888 0.0
C1520 C 0.39263 0.10978 0.65932 0.0
C1521 C 0.40078 0.10658 0.68719 0.0
C1522 C 0.41824 0.13297 0.69873 0.0
C1523 C 0.42507 0.12976 0.72502 0.0
C1524 C 0.41473 0.10027 0.73998 0.0
C1525 C 0.39758 0.07392 0.72867 0.0
C1526 C 0.39066 0.07701 0.70238 0.0
C1527 C 0.42094 0.07021 0.57719 0.0
C1528 C 0.41205 0.03895 0.58871 0.0
C1529 C 0.41579 0.08956 0.58743 0.0
C1530 C 0.40121 0.07791 0.60914 0.0
C1531 C 0.39333 0.04706 0.62085 0.0
C1532 C 0.39908 0.02819 0.61111 0.0
C1533 C 0.39412 0.097 0.62045 0.0
C1534 C 0.40144 0.09554 0.64678 0.0
C1535 C 0.37853 0.11466 0.60629 0.0
C1536 C 0.36918 0.11681 0.57858 0.0
C1537 C 0.34957 0.08998 0.56786 0.0
C1538 C 0.34105 0.09229 0.54168 0.0
C1539 C 0.35174 0.12134 0.52606 0.0
C1540 C 0.37094 0.14813 0.53658 0.0
C1541 C 0.37958 0.14594 0.56273 0.0
H1542 H 0.34509 0.12308 0.5058 0.0
H1543 H 0.42002 0.09784 0.76033 0.0
H1544 H 0.06845 0.85615 0.62247 0.0
H1545 H 0.1033 0.85088 0.66092 0.0
H1546 H 0.17336 0.94355 0.63757 0.0
H1547 H 0.13846 0.94884 0.59909 0.0
H1548 H 0.17382 0.89396 0.62333 0.0
H1549 H 0.17089 0.92093 0.69859 0.0
H1550 H 0.14326 0.92128 0.72883 0.0
H1551 H 0.10108 0.82193 0.74695 0.0
H1552 H 0.1282 0.82094 0.71655 0.0
H1553 H 0.27121 0.82408 0.71734 0.0
H1554 H 0.25458 0.86324 0.69452 0.0
H1555 H 0.16493 0.7909 0.67055 0.0
H1556 H 0.18272 0.7524 0.69018 0.0
H1557 H 0.18591 0.84128 0.71184 0.0
H1558 H 0.16507 0.81217 0.62893 0.0
H1559 H 0.18277 0.8021 0.59695 0.0
H1560 H 0.25529 0.89586 0.58863 0.0
H1561 H 0.23927 0.90576 0.62208 0.0
C1562 C 0.09078 0.87579 0.6263 0.0
C1563 C 0.10189 0.90212 0.60781 0.0
C1564 C 0.11036 0.87319 0.64848 0.0
C1565 C 0.14109 0.89655 0.65135 0.0
C1566 C 0.14969 0.92536 0.63535 0.0
C1567 C 0.13008 0.92805 0.6132 0.0
C1568 C 0.1645 0.88591 0.66122 0.0
C1569 C 0.17767 0.88371 0.64296 0.0
C1570 C 0.1673 0.87063 0.68631 0.0
C1571 C 0.15175 0.87093 0.70536 0.0
C1572 C 0.15572 0.89915 0.70902 0.0
C1573 C 0.14012 0.89946 0.72616 0.0
C1574 C 0.12045 0.87165 0.73982 0.0
C1575 C 0.1164 0.84346 0.7364 0.0
C1576 C 0.13199 0.84302 0.71927 0.0
C1577 C 0.24898 0.81687 0.70545 0.0
C1578 C 0.22802 0.78545 0.70519 0.0
C1579 C 0.23938 0.83913 0.69288 0.0
C1580 C 0.20879 0.82952 0.68097 0.0
C1581 C 0.18898 0.79852 0.67895 0.0
C1582 C 0.19909 0.77663 0.6902 0.0
C1583 C 0.19567 0.85062 0.67409 0.0
C1584 C 0.18365 0.85352 0.69266 0.0
C1585 C 0.19227 0.86516 0.649 0.0
C1586 C 0.20167 0.85942 0.62865 0.0
C1587 C 0.18541 0.83036 0.62094 0.0
C1588 C 0.19503 0.82469 0.60244 0.0
C1589 C 0.2202 0.84831 0.59079 0.0
C1590 C 0.23591 0.87754 0.59779 0.0
C1591 C 0.22675 0.8831 0.6167 0.0
H1592 H 0.22751 0.84399 0.57633 0.0
H1593 H 0.10835 0.87195 0.75306 0.0
H1594 H 0.34319 0.86203 0.75227 0.0
H1595 H 0.37443 0.90333 0.77793 0.0
H1596 H 0.32758 0.841 0.84111 0.0
H1597 H 0.29603 0.80222 0.81615 0.0
H1598 H 0.3343 0.89011 0.84344 0.0
H1599 H 0.39977 0.85377 0.82931 0.0
H1600 H 0.42643 0.8446 0.80366 0.0
H1601 H 0.47734 0.94266 0.77893 0.0
H1602 H 0.45041 0.95236 0.80404 0.0
H1603 H 0.44271 0.91027 0.9572 0.0
H1604 H 0.41616 0.89072 0.91753 0.0
H1605 H 0.44084 0.98423 0.87749 0.0
H1606 H 0.46763 0.00386 0.9171 0.0
H1607 H 0.44864 0.93387 0.85714 0.0
H1608 H 0.37576 0.9521 0.89159 0.0
H1609 H 0.35139 0.93918 0.92904 0.0
H1610 H 0.31538 0.8421 0.92969 0.0
H1611 H 0.33987 0.85449 0.8925 0.0
C1612 C 0.3396 0.85758 0.77156 0.0
C1613 C 0.31772 0.82848 0.78226 0.0
C1614 C 0.35732 0.88109 0.78616 0.0
C1615 C 0.35348 0.87528 0.81154 0.0
C1616 C 0.33088 0.84656 0.82156 0.0
C1617 C 0.31297 0.82388 0.8071 0.0
C1618 C 0.3737 0.89719 0.82911 0.0
C1619 C 0.35934 0.89997 0.84607 0.0
C1620 C 0.40635 0.90948 0.83311 0.0
C1621 C 0.42268 0.90377 0.81813 0.0
C1622 C 0.41645 0.87336 0.81821 0.0
C1623 C 0.4316 0.86806 0.80378 0.0
C1624 C 0.45346 0.89303 0.78957 0.0
C1625 C 0.46028 0.92334 0.78984 0.0
C1626 C 0.44503 0.92876 0.80411 0.0
C1627 C 0.44208 0.92652 0.93998 0.0
C1628 C 0.45588 0.95838 0.94008 0.0
C1629 C 0.42742 0.91544 0.91741 0.0
C1630 C 0.42695 0.93624 0.89485 0.0
C1631 C 0.44125 0.96806 0.89487 0.0
C1632 C 0.45567 0.9791 0.91744 0.0
C1633 C 0.40869 0.92451 0.87166 0.0
C1634 C 0.42364 0.92457 0.85374 0.0
C1635 C 0.37623 0.91126 0.86823 0.0
C1636 C 0.35945 0.90426 0.88918 0.0
C1637 C 0.36249 0.92804 0.89964 0.0
C1638 C 0.34874 0.92078 0.92088 0.0
C1639 C 0.33179 0.88984 0.9317 0.0
C1640 C 0.3284 0.86606 0.92125 0.0
C1641 C 0.34213 0.87318 0.90006 0.0
H1642 H 0.32131 0.8843 0.94821 0.0
H1643 H 0.46519 0.88889 0.77842 0.0
H1644 H 0.38806 0.10264 0.02038 0.0
H1645 H 0.3738 0.11876 0.04944 0.0
H1646 H 0.4196 0.07661 0.11213 0.0
H1647 H 0.43014 0.05596 0.08252 0.0
H1648 H 0.37152 0.06763 0.12647 0.0
H1649 H 0.44966 0.16436 0.08917 0.0
H1650 H 0.47579 0.20309 0.05388 0.0
H1651 H 0.3925 0.21101 0.01988 0.0
H1652 H 0.36596 0.17246 0.05501 0.0
H1653 H 0.33008 0.13602 0.19899 0.0
H1654 H 0.36328 0.12679 0.18031 0.0
H1655 H 0.31872 0.1497 0.10593 0.0
H1656 H 0.28641 0.15949 0.12454 0.0
H1657 H 0.37723 0.17215 0.10458 0.0
H1658 H 0.29852 0.07141 0.14058 0.0
H1659 H 0.2729 0.03289 0.17617 0.0
H1660 H 0.35939 0.03397 0.21402 0.0
H1661 H 0.38554 0.0727 0.17873 0.0
C1662 C 0.3949 0.09621 0.04033 0.0
C1663 C 0.4096 0.07709 0.04884 0.0
C1664 C 0.38739 0.10639 0.05715 0.0
C1665 C 0.39635 0.10008 0.08331 0.0
C1666 C 0.41242 0.08214 0.0921 0.0
C1667 C 0.41888 0.07066 0.07507 0.0
C1668 C 0.38748 0.11138 0.10086 0.0
C1669 C 0.3735 0.09077 0.12193 0.0
C1670 C 0.38963 0.14153 0.09531 0.0
C1671 C 0.4059 0.16559 0.0747 0.0
C1672 C 0.43699 0.17446 0.07419 0.0
C1673 C 0.45185 0.19637 0.05422 0.0
C1674 C 0.43581 0.20949 0.03465 0.0
C1675 C 0.40493 0.20091 0.03509 0.0
C1676 C 0.39003 0.17919 0.0551 0.0
C1677 C 0.32819 0.14 0.17865 0.0
C1678 C 0.30598 0.14891 0.16315 0.0
C1679 C 0.34681 0.13423 0.16796 0.0
C1680 C 0.34325 0.13691 0.14159 0.0
C1681 C 0.32208 0.14735 0.12625 0.0
C1682 C 0.30367 0.15314 0.13688 0.0
C1683 C 0.36039 0.12812 0.12948 0.0
C1684 C 0.37592 0.14926 0.10942 0.0
C1685 C 0.35988 0.09868 0.13618 0.0
C1686 C 0.344 0.07507 0.15713 0.0
C1687 C 0.31207 0.06349 0.15654 0.0
C1688 C 0.29746 0.04162 0.17665 0.0
C1689 C 0.31452 0.03103 0.19736 0.0
C1690 C 0.34621 0.04221 0.19797 0.0
C1691 C 0.36092 0.06407 0.17791 0.0
H1692 H 0.30318 0.01412 0.21291 0.0
H1693 H 0.44732 0.22632 0.01914 0.0
H1694 H 0.05148 0.01987 0.44583 0.0
H1695 H 0.07834 0.04622 0.40942 0.0
H1696 H 0.09956 0.13413 0.42476 0.0
H1697 H 0.07537 0.10778 0.46314 0.0
H1698 H 0.06507 0.10342 0.36717 0.0
H1699 H 0.15291 0.1464 0.43322 0.0
H1700 H 0.1901 0.14621 0.47192 0.0
H1701 H 0.21241 0.08861 0.44563 0.0
H1702 H 0.1736 0.08663 0.40756 0.0
H1703 H 0.17643 0.22265 0.28808 0.0
H1704 H 0.14244 0.19053 0.32011 0.0
H1705 H 0.167 0.11801 0.32745 0.0
H1706 H 0.20094 0.14988 0.29541 0.0
H1707 H 0.17733 0.13857 0.37283 0.0
H1708 H 0.09672 0.10455 0.30333 0.0
H1709 H 0.06745 0.11412 0.26175 0.0
H1710 H 0.03754 0.16257 0.29189 0.0
H1711 H 0.06711 0.15377 0.33357 0.0
C1712 C 0.0628 0.04472 0.44228 0.0
C1713 C 0.06237 0.06154 0.45832 0.0
C1714 C 0.07781 0.05982 0.42107 0.0
C1715 C 0.09155 0.09215 0.41471 0.0
C1716 C 0.08991 0.10915 0.42981 0.0
C1717 C 0.07603 0.09405 0.45171 0.0
C1718 C 0.10728 0.10787 0.39211 0.0
C1719 C 0.08966 0.11139 0.3684 0.0
C1720 C 0.13917 0.11753 0.39365 0.0
C1721 C 0.15953 0.11551 0.41792 0.0
C1722 C 0.16467 0.13256 0.43617 0.0
C1723 C 0.18631 0.1331 0.4579 0.0
C1724 C 0.20367 0.11747 0.46122 0.0
C1725 C 0.19898 0.10075 0.44303 0.0
C1726 C 0.17682 0.09952 0.42157 0.0
C1727 C 0.17412 0.19962 0.29616 0.0
C1728 C 0.19139 0.18881 0.28925 0.0
C1729 C 0.15461 0.18127 0.31436 0.0
C1730 C 0.15222 0.15193 0.32608 0.0
C1731 C 0.16848 0.14058 0.31853 0.0
C1732 C 0.18772 0.15876 0.30011 0.0
C1733 C 0.13537 0.13461 0.34798 0.0
C1734 C 0.15267 0.13045 0.37155 0.0
C1735 C 0.10341 0.12481 0.34625 0.0
C1736 C 0.08426 0.12863 0.32157 0.0
C1737 C 0.08396 0.11731 0.3011 0.0
C1738 C 0.06734 0.12262 0.27749 0.0
C1739 C 0.05068 0.13898 0.27417 0.0
C1740 C 0.05046 0.14989 0.2945 0.0
C1741 C 0.0671 0.1447 0.31813 0.0
H1742 H 0.03792 0.14317 0.25587 0.0
H1743 H 0.22068 0.11821 0.47792 0.0
H1744 H 0.83033 0.18461 0.15344 0.0
H1745 H 0.84394 0.15321 0.13697 0.0
H1746 H 0.94017 0.2068 0.16538 0.0
H1747 H 0.92675 0.23789 0.18174 0.0
H1748 H 0.93018 0.20662 0.11481 0.0
H1749 H 0.90096 0.13398 0.19125 0.0
H1750 H 0.86641 0.09786 0.22253 0.0
H1751 H 0.80461 0.04196 0.16661 0.0
H1752 H 0.83851 0.07811 0.13481 0.0
H1753 H 0.01436 0.13337 0.11128 0.0
H1754 H 0.98433 0.14725 0.12845 0.0
H1755 H 0.90347 0.10062 0.07651 0.0
H1756 H 0.93408 0.08798 0.0579 0.0
H1757 H 0.89776 0.09378 0.13363 0.0
H1758 H 0.92963 0.16615 0.05773 0.0
H1759 H 0.96569 0.2024 0.02755 0.0
H1760 H 0.02335 0.25944 0.08366 0.0
H1761 H 0.98805 0.22307 0.11442 0.0
C1762 C 0.85425 0.18907 0.15668 0.0
C1763 C 0.87758 0.21394 0.16855 0.0
C1764 C 0.86201 0.1712 0.14723 0.0
C1765 C 0.89314 0.1779 0.1497 0.0
C1766 C 0.91606 0.20143 0.16299 0.0
C1767 C 0.90837 0.21917 0.17235 0.0
C1768 C 0.90269 0.16279 0.13662 0.0
C1769 C 0.92311 0.18193 0.11902 0.0
C1770 C 0.89275 0.13044 0.14151 0.0
C1771 C 0.87205 0.10906 0.16051 0.0
C1772 C 0.87978 0.11425 0.18549 0.0
C1773 C 0.86037 0.09369 0.20336 0.0
C1774 C 0.83327 0.06769 0.19654 0.0
C1775 C 0.82555 0.06217 0.17184 0.0
C1776 C 0.84485 0.08269 0.15389 0.0
C1777 C 0.99019 0.12596 0.10336 0.0
C1778 C 0.97694 0.11025 0.08265 0.0
C1779 C 0.97299 0.13373 0.11342 0.0
C1780 C 0.94183 0.12532 0.10356 0.0
C1781 C 0.92759 0.10741 0.08431 0.0
C1782 C 0.94508 0.10008 0.07379 0.0
C1783 C 0.92559 0.13779 0.11229 0.0
C1784 C 0.90419 0.11832 0.1291 0.0
C1785 C 0.93464 0.16994 0.10679 0.0
C1786 C 0.95636 0.19159 0.08851 0.0
C1787 C 0.95025 0.18613 0.06379 0.0
C1788 C 0.97052 0.20677 0.04654 0.0
C1789 C 0.99685 0.23316 0.0537 0.0
C1790 C 1.00299 0.23894 0.07815 0.0
C1791 C 0.98286 0.21829 0.09551 0.0
H1792 H 1.01244 0.24917 0.04029 0.0
H1793 H 0.81829 0.05179 0.21041 0.0
H1794 H 0.1018 0.55521 0.47483 0.0
H1795 H 0.13716 0.58909 0.44444 0.0
H1796 H 0.0604 0.59223 0.38868 0.0
H1797 H 0.02473 0.55453 0.41831 0.0
H1798 H 0.09195 0.58661 0.36629 0.0
H1799 H 0.1291 0.6593 0.4255 0.0
H1800 H 0.15015 0.67381 0.46783 0.0
H1801 H 0.22528 0.65427 0.4729 0.0
H1802 H 0.20502 0.64015 0.43053 0.0
H1803 H 0.19035 0.68782 0.27488 0.0
H1804 H 0.15284 0.66451 0.30373 0.0
H1805 H 0.22722 0.67385 0.36632 0.0
H1806 H 0.26448 0.70528 0.33727 0.0
H1807 H 0.19389 0.67563 0.38505 0.0
H1808 H 0.15831 0.5987 0.32986 0.0
H1809 H 0.13892 0.58134 0.28862 0.0
H1810 H 0.06309 0.60181 0.27775 0.0
H1811 H 0.08212 0.61945 0.31879 0.0
C1812 C 0.09269 0.56408 0.45635 0.0
C1813 C 0.06065 0.55352 0.44935 0.0
C1814 C 0.11303 0.58373 0.43884 0.0
C1815 C 0.10205 0.59459 0.41413 0.0
C1816 C 0.06991 0.58468 0.4075 0.0
C1817 C 0.04944 0.56366 0.42464 0.0
C1818 C 0.12339 0.61403 0.39463 0.0
C1819 C 0.11419 0.60628 0.37038 0.0
C1820 C 0.15302 0.63916 0.39977 0.0
C1821 C 0.16548 0.6486 0.42491 0.0
C1822 C 0.15012 0.65817 0.43565 0.0
C1823 C 0.16191 0.66629 0.45964 0.0
C1824 C 0.18888 0.66474 0.4731 0.0
C1825 C 0.20438 0.65543 0.46248 0.0
C1826 C 0.19287 0.64757 0.43843 0.0
C1827 C 0.1986 0.68726 0.29479 0.0
C1828 C 0.23043 0.70098 0.30359 0.0
C1829 C 0.17689 0.67188 0.31164 0.0
C1830 C 0.18623 0.666 0.33792 0.0
C1831 C 0.21842 0.67824 0.34652 0.0
C1832 C 0.24005 0.69608 0.32974 0.0
C1833 C 0.16335 0.64762 0.35663 0.0
C1834 C 0.17199 0.65575 0.38077 0.0
C1835 C 0.13361 0.62215 0.35158 0.0
C1836 C 0.1218 0.61061 0.32729 0.0
C1837 C 0.13749 0.59944 0.31867 0.0
C1838 C 0.12659 0.58961 0.29531 0.0
C1839 C 0.09985 0.59055 0.28055 0.0
C1840 C 0.08382 0.60113 0.28918 0.0
C1841 C 0.09462 0.611 0.31249 0.0
H1842 H 0.09151 0.58304 0.26246 0.0
H1843 H 0.19784 0.67086 0.49172 0.0
H1844 H 0.52425 0.90269 0.5494 0.0
H1845 H 0.54959 0.87199 0.57687 0.0
H1846 H 0.63301 0.95531 0.58927 0.0
H1847 H 0.60768 0.98569 0.56107 0.0
H1848 H 0.66064 0.92413 0.60256 0.0
H1849 H 0.56334 0.8665 0.63953 0.0
H1850 H 0.50623 0.83841 0.63497 0.0
H1851 H 0.50482 0.77939 0.59178 0.0
H1852 H 0.56196 0.8069 0.59642 0.0
H1853 H 0.74427 0.84648 0.69905 0.0
H1854 H 0.71462 0.87232 0.67214 0.0
H1855 H 0.63846 0.78464 0.65881 0.0
H1856 H 0.66819 0.75824 0.68789 0.0
H1857 H 0.60563 0.81581 0.64493 0.0
H1858 H 0.69936 0.86595 0.61096 0.0
H1859 H 0.75574 0.89336 0.61055 0.0
H1860 H 0.76361 0.96645 0.64116 0.0
H1861 H 0.70726 0.93923 0.64203 0.0
C1862 C 0.54761 0.91539 0.55858 0.0
C1863 C 0.56144 0.94898 0.55252 0.0
C1864 C 0.56323 0.89678 0.57524 0.0
C1865 C 0.59524 0.90885 0.58812 0.0
C1866 C 0.60899 0.94239 0.58159 0.0
C1867 C 0.59345 0.96083 0.56489 0.0
C1868 C 0.61416 0.88841 0.60671 0.0
C1869 C 0.64756 0.9006 0.61182 0.0
C1870 C 0.60073 0.85622 0.62001 0.0
C1871 C 0.56676 0.83876 0.61824 0.0
C1872 C 0.5508 0.84739 0.62922 0.0
C1873 C 0.51846 0.83161 0.62659 0.0
C1874 C 0.5019 0.80721 0.61301 0.0
C1875 C 0.51767 0.79837 0.6022 0.0
C1876 C 0.55003 0.81388 0.60498 0.0
C1877 C 0.72155 0.83164 0.69014 0.0
C1878 C 0.71182 0.79852 0.69638 0.0
C1879 C 0.7035 0.84746 0.67359 0.0
C1880 C 0.67232 0.83282 0.66026 0.0
C1881 C 0.66181 0.79933 0.6668 0.0
C1882 C 0.68005 0.78328 0.68387 0.0
C1883 C 0.65225 0.85194 0.64124 0.0
C1884 C 0.61874 0.8395 0.63597 0.0
C1885 C 0.66553 0.88383 0.62737 0.0
C1886 C 0.69922 0.90041 0.62682 0.0
C1887 C 0.71317 0.88782 0.61769 0.0
C1888 C 0.74509 0.9033 0.61739 0.0
C1889 C 0.76326 0.93158 0.6259 0.0
C1890 C 0.74951 0.94449 0.63464 0.0
C1891 C 0.71757 0.92905 0.63505 0.0
H1892 H 0.78799 0.94353 0.62566 0.0
H1893 H 0.47687 0.79506 0.61096 0.0
H1894 H 0.43712 0.42235 0.96763 0.0
H1895 H 0.40236 0.38526 0.93976 0.0
H1896 H 0.45292 0.44694 0.87842 0.0
H1897 H 0.48782 0.48478 0.90663 0.0
H1898 H 0.38754 0.4225 0.86601 0.0
H1899 H 0.46033 0.37939 0.89558 0.0
H1900 H 0.49456 0.35893 0.92514 0.0
H1901 H 0.42302 0.30075 0.97146 0.0
H1902 H 0.38792 0.31983 0.94149 0.0
H1903 H 0.34854 0.31805 0.78791 0.0
H1904 H 0.37489 0.35415 0.81769 0.0
H1905 H 0.30855 0.29123 0.86812 0.0
H1906 H 0.28159 0.25485 0.838 0.0
H1907 H 0.3752 0.31527 0.88742 0.0
H1908 H 0.29958 0.34778 0.84222 0.0
H1909 H 0.26828 0.36328 0.80469 0.0
H1910 H 0.35028 0.44377 0.78144 0.0
H1911 H 0.38224 0.42836 0.81844 0.0
C1912 C 0.44019 0.42834 0.94802 0.0
C1913 C 0.46391 0.45663 0.93868 0.0
C1914 C 0.42085 0.40697 0.93233 0.0
C1915 C 0.42528 0.4136 0.90723 0.0
C1916 C 0.4493 0.44177 0.89783 0.0
C1917 C 0.46894 0.46321 0.91372 0.0
C1918 C 0.40396 0.39097 0.89098 0.0
C1919 C 0.38501 0.39915 0.87032 0.0
C1920 C 0.40018 0.36045 0.89736 0.0
C1921 C 0.4219 0.35149 0.91674 0.0
C1922 C 0.45217 0.36262 0.91232 0.0
C1923 C 0.47157 0.35106 0.92898 0.0
C1924 C 0.46117 0.32898 0.95039 0.0
C1925 C 0.43115 0.31807 0.95501 0.0
C1926 C 0.41142 0.32905 0.93811 0.0
C1927 C 0.34022 0.31165 0.80575 0.0
C1928 C 0.31375 0.28389 0.81129 0.0
C1929 C 0.35469 0.33241 0.82229 0.0
C1930 C 0.34275 0.32533 0.84445 0.0
C1931 C 0.31734 0.29676 0.85075 0.0
C1932 C 0.30259 0.27597 0.83401 0.0
C1933 C 0.35927 0.34685 0.86204 0.0
C1934 C 0.37726 0.33846 0.88321 0.0
C1935 C 0.36262 0.37731 0.85544 0.0
C1936 C 0.3434 0.38673 0.8331 0.0
C1937 C 0.31104 0.3686 0.82898 0.0
C1938 C 0.29314 0.3774 0.8078 0.0
C1939 C 0.30728 0.40447 0.79068 0.0
C1940 C 0.33935 0.42279 0.79471 0.0
C1941 C 0.35738 0.41402 0.8158 0.0
H1942 H 0.29338 0.41126 0.77431 0.0
H1943 H 0.47628 0.32012 0.96328 0.0
H1944 H 0.85783 0.79812 0.29797 0.0
H1945 H 0.89026 0.83581 0.32597 0.0
H1946 H 0.81048 0.81051 0.3589 0.0
H1947 H 0.77789 0.7729 0.33053 0.0
H1948 H 0.84324 0.87399 0.3409 0.0
H1949 H 0.86307 0.79126 0.39355 0.0
H1950 H 0.87525 0.74828 0.39883 0.0
H1951 H 0.96421 0.81279 0.37612 0.0
H1952 H 0.95221 0.85611 0.37014 0.0
H1953 H 0.91946 0.9554 0.44226 0.0
H1954 H 0.88864 0.91966 0.41288 0.0
H1955 H 0.97165 0.93961 0.38747 0.0
H1956 H 1.00296 0.97372 0.41852 0.0
H1957 H 0.93761 0.87921 0.4005 0.0
H1958 H 0.91717 0.96301 0.34978 0.0
H1959 H 0.90322 0.00461 0.34534 0.0
H1960 H 0.81369 0.93704 0.36545 0.0
H1961 H 0.82735 0.8951 0.37053 0.0
C1962 C 0.84766 0.79947 0.31213 0.0
C1963 C 0.81588 0.78205 0.313 0.0
C1964 C 0.86598 0.82129 0.32776 0.0
C1965 C 0.85259 0.82573 0.34438 0.0
C1966 C 0.82102 0.80724 0.3461 0.0
C1967 C 0.80264 0.78551 0.33032 0.0
C1968 C 0.87147 0.85096 0.35886 0.0
C1969 C 0.86368 0.87508 0.35418 0.0
C1970 C 0.89836 0.85242 0.37558 0.0
C1971 C 0.90671 0.82686 0.38129 0.0
C1972 C 0.88525 0.79627 0.38973 0.0
C1973 C 0.89206 0.77184 0.39275 0.0
C1974 C 0.92046 0.77779 0.38776 0.0
C1975 C 0.94221 0.80822 0.37997 0.0
C1976 C 0.93544 0.83273 0.37678 0.0
C1977 C 0.93118 0.95252 0.43027 0.0
C1978 C 0.96355 0.96646 0.43319 0.0
C1979 C 0.9135 0.93229 0.41326 0.0
C1980 C 0.92792 0.92701 0.39805 0.0
C1981 C 0.96018 0.9432 0.39928 0.0
C1982 C 0.97795 0.96273 0.41687 0.0
C1983 C 0.90944 0.90249 0.38267 0.0
C1984 C 0.91731 0.87839 0.38712 0.0
C1985 C 0.88248 0.901 0.36585 0.0
C1986 C 0.87332 0.92595 0.36061 0.0
C1987 C 0.89448 0.95704 0.35318 0.0
C1988 C 0.88667 0.98068 0.35065 0.0
C1989 C 0.85762 0.97348 0.35516 0.0
C1990 C 0.83619 0.94259 0.36196 0.0
C1991 C 0.84393 0.91887 0.36462 0.0
H1992 H 0.85169 0.99183 0.35337 0.0
H1993 H 0.92564 0.75883 0.38997 0.0
H1994 H 0.45033 0.56511 0.59787 0.0
H1995 H 0.42132 0.57886 0.61739 0.0
H1996 H 0.46337 0.67254 0.57687 0.0
H1997 H 0.49203 0.65891 0.55752 0.0
H1998 H 0.47123 0.67024 0.6278 0.0
H1999 H 0.38755 0.62237 0.56229 0.0
H2000 H 0.35037 0.57891 0.53996 0.0
H2001 H 0.31197 0.52521 0.60801 0.0
H2002 H 0.34928 0.56817 0.63089 0.0
H2003 H 0.39527 0.74985 0.63484 0.0
H2004 H 0.41004 0.71984 0.6188 0.0
H2005 H 0.36705 0.64054 0.6751 0.0
H2006 H 0.35345 0.67129 0.69248 0.0
H2007 H 0.35789 0.62771 0.62313 0.0
H2008 H 0.43522 0.67527 0.68776 0.0
H2009 H 0.47259 0.71593 0.71266 0.0
H2010 H 0.5258 0.76513 0.65181 0.0
H2011 H 0.48754 0.72602 0.62558 0.0
C2012 C 0.45255 0.58833 0.59259 0.0
C2013 C 0.47344 0.61094 0.57615 0.0
C2014 C 0.43615 0.59626 0.60388 0.0
C2015 C 0.44034 0.62689 0.59883 0.0
C2016 C 0.45988 0.64887 0.58131 0.0
C2017 C 0.47611 0.641 0.5701 0.0
C2018 C 0.42637 0.63712 0.61275 0.0
C2019 C 0.44644 0.66114 0.62657 0.0
C2020 C 0.39401 0.62415 0.61227 0.0
C2021 C 0.37148 0.59841 0.5984 0.0
C2022 C 0.37139 0.6012 0.57257 0.0
C2023 C 0.35024 0.57666 0.5598 0.0
C2024 C 0.32887 0.54929 0.57257 0.0
C2025 C 0.32856 0.54641 0.59814 0.0
C2026 C 0.3497 0.57086 0.61102 0.0
C2027 C 0.38889 0.72605 0.64404 0.0
C2028 C 0.37382 0.71343 0.66553 0.0
C2029 C 0.39721 0.7088 0.63461 0.0
C2030 C 0.3901 0.67804 0.64589 0.0
C2031 C 0.37291 0.66432 0.66612 0.0
C2032 C 0.36502 0.68192 0.67598 0.0
C2033 C 0.40284 0.66169 0.63729 0.0
C2034 C 0.38268 0.63663 0.62455 0.0
C2035 C 0.43526 0.67333 0.63912 0.0
C2036 C 0.45796 0.69779 0.65442 0.0
C2037 C 0.45435 0.69514 0.6793 0.0
C2038 C 0.47573 0.71796 0.69367 0.0
C2039 C 0.50136 0.74323 0.68369 0.0
C2040 C 0.50562 0.74577 0.65928 0.0
C2041 C 0.48397 0.72336 0.64459 0.0
H2042 H 0.51804 0.76071 0.69494 0.0
H2043 H 0.31249 0.53034 0.56264 0.0
H2044 H 0.54217 0.02164 0.93394 0.0
H2045 H 0.57231 0.05092 0.89878 0.0
H2046 H 0.62927 0.12702 0.93925 0.0
H2047 H 0.6013 0.09653 0.9754 0.0
H2048 H 0.5919 0.12811 0.87633 0.0
H2049 H 0.66786 0.10752 0.94475 0.0
H2050 H 0.68175 0.07033 0.97724 0.0
H2051 H 0.66882 0.02096 0.92035 0.0
H2052 H 0.65349 0.05717 0.88763 0.0
H2053 H 0.73172 0.2344 0.81708 0.0
H2054 H 0.69395 0.20406 0.84668 0.0
H2055 H 0.66171 0.1229 0.81479 0.0
H2056 H 0.69798 0.15393 0.7839 0.0
H2057 H 0.68536 0.12101 0.87278 0.0
H2058 H 0.60373 0.1258 0.80917 0.0
H2059 H 0.56589 0.13939 0.77763 0.0
H2060 H 0.57771 0.20323 0.82138 0.0
H2061 H 0.61557 0.18986 0.85319 0.0
C2062 C 0.56069 0.04491 0.93507 0.0
C2063 C 0.56871 0.0573 0.95711 0.0
C2064 C 0.57817 0.06142 0.91513 0.0
C2065 C 0.60353 0.09091 0.91661 0.0
C2066 C 0.61024 0.10406 0.9379 0.0
C2067 C 0.59375 0.08698 0.95829 0.0
C2068 C 0.62244 0.10845 0.89563 0.0
C2069 C 0.61279 0.12716 0.87584 0.0
C2070 C 0.64863 0.10572 0.89427 0.0
C2071 C 0.65875 0.08461 0.91384 0.0
C2072 C 0.6673 0.08837 0.93922 0.0
C2073 C 0.67554 0.06751 0.95768 0.0
C2074 C 0.67595 0.04315 0.95089 0.0
C2075 C 0.6683 0.03972 0.92561 0.0
C2076 C 0.65973 0.06036 0.90711 0.0
C2077 C 0.71543 0.21054 0.81549 0.0
C2078 C 0.7167 0.19706 0.79723 0.0
C2079 C 0.69411 0.19303 0.83268 0.0
C2080 C 0.67465 0.16113 0.83294 0.0
C2081 C 0.67604 0.1475 0.81481 0.0
C2082 C 0.69667 0.1653 0.79707 0.0
C2083 C 0.65537 0.14183 0.85366 0.0
C2084 C 0.66493 0.12264 0.87346 0.0
C2085 C 0.62845 0.14329 0.85479 0.0
C2086 C 0.61295 0.15744 0.83315 0.0
C2087 C 0.59904 0.14352 0.81158 0.0
C2088 C 0.57709 0.15067 0.79396 0.0
C2089 C 0.56936 0.17213 0.7975 0.0
C2090 C 0.58369 0.1866 0.81864 0.0
C2091 C 0.60555 0.17944 0.83637 0.0
H2092 H 0.55237 0.17766 0.78381 0.0
H2093 H 0.68236 0.02704 0.96521 0.0
H2094 H 0.0248 0.40965 0.06616 0.0
H2095 H 0.05005 0.37922 0.09546 0.0
H2096 H 0.13722 0.44759 0.07229 0.0
H2097 H 0.11259 0.47852 0.0447 0.0
H2098 H 0.14899 0.40078 0.08311 0.0
H2099 H 0.10366 0.41459 0.14222 0.0
H2100 H 0.06087 0.40937 0.15978 0.0
H2101 H 0.01632 0.31071 0.16396 0.0
H2102 H 0.05871 0.31541 0.14619 0.0
H2103 H 0.24853 0.33722 0.17877 0.0
H2104 H 0.21895 0.36343 0.1507 0.0
H2105 H 0.13641 0.29125 0.17929 0.0
H2106 H 0.16637 0.26471 0.20725 0.0
H2107 H 0.11976 0.33737 0.16577 0.0
H2108 H 0.1576 0.31847 0.10834 0.0
H2109 H 0.19368 0.31675 0.08715 0.0
H2110 H 0.24442 0.41611 0.07493 0.0
H2111 H 0.20885 0.4184 0.09647 0.0
C2112 C 0.04965 0.41993 0.06783 0.0
C2113 C 0.06518 0.44998 0.05218 0.0
C2114 C 0.065 0.40119 0.08517 0.0
C2115 C 0.09782 0.40907 0.08861 0.0
C2116 C 0.1127 0.43839 0.07232 0.0
C2117 C 0.09766 0.45722 0.05571 0.0
C2118 C 0.11627 0.38834 0.10743 0.0
C2119 C 0.14217 0.38769 0.10133 0.0
C2120 C 0.10949 0.36827 0.13196 0.0
C2121 C 0.08414 0.36539 0.14264 0.0
C2122 C 0.08463 0.39182 0.14675 0.0
C2123 C 0.06046 0.38895 0.15674 0.0
C2124 C 0.03581 0.35974 0.16287 0.0
C2125 C 0.03537 0.33332 0.15914 0.0
C2126 C 0.05946 0.33607 0.14911 0.0
C2127 C 0.22377 0.32531 0.17882 0.0
C2128 C 0.21164 0.29574 0.19584 0.0
C2129 C 0.20587 0.34141 0.16203 0.0
C2130 C 0.173 0.33121 0.16036 0.0
C2131 C 0.16078 0.30198 0.17791 0.0
C2132 C 0.17875 0.28557 0.19445 0.0
C2133 C 0.15304 0.35053 0.14166 0.0
C2134 C 0.12689 0.35084 0.14771 0.0
C2135 C 0.15892 0.36957 0.11671 0.0
C2136 C 0.1809 0.36859 0.10437 0.0
C2137 C 0.17668 0.33995 0.10141 0.0
C2138 C 0.19698 0.33886 0.08928 0.0
C2139 C 0.22141 0.3663 0.07979 0.0
C2140 C 0.22554 0.39488 0.08239 0.0
C2141 C 0.20534 0.39609 0.09458 0.0
H2142 H 0.23709 0.36543 0.07036 0.0
H2143 H 0.01711 0.35758 0.17057 0.0
H2144 H 0.55673 0.52058 0.94497 0.0
H2145 H 0.58245 0.54681 0.90828 0.0
H2146 H 0.60918 0.63498 0.92654 0.0
H2147 H 0.58458 0.60833 0.96484 0.0
H2148 H 0.5758 0.62391 0.87468 0.0
H2149 H 0.66595 0.62627 0.93072 0.0
H2150 H 0.70456 0.61239 0.96066 0.0
H2151 H 0.68816 0.54732 0.91615 0.0
H2152 H 0.64918 0.56064 0.88606 0.0
H2153 H 0.68502 0.72891 0.79396 0.0
H2154 H 0.65166 0.69678 0.8257 0.0
H2155 H 0.64956 0.61557 0.81262 0.0
H2156 H 0.68536 0.64807 0.78228 0.0
H2157 H 0.66597 0.6192 0.85983 0.0
H2158 H 0.58277 0.62841 0.79889 0.0
H2159 H 0.56068 0.65882 0.76564 0.0
H2160 H 0.57215 0.71191 0.81907 0.0
H2161 H 0.59475 0.68217 0.85253 0.0
C2162 C 0.56872 0.54535 0.94199 0.0
C2163 C 0.56887 0.56206 0.95839 0.0
C2164 C 0.58334 0.56045 0.92067 0.0
C2165 C 0.59764 0.59277 0.9147 0.0
C2166 C 0.59822 0.6099 0.93093 0.0
C2167 C 0.58426 0.59465 0.9528 0.0
C2168 C 0.61038 0.60818 0.89074 0.0
C2169 C 0.59564 0.6231 0.87142 0.0
C2170 C 0.63554 0.60625 0.88625 0.0
C2171 C 0.65442 0.59413 0.90639 0.0
C2172 C 0.66999 0.60841 0.9277 0.0
C2173 C 0.69224 0.60097 0.94449 0.0
C2174 C 0.69901 0.5792 0.94018 0.0
C2175 C 0.68305 0.56434 0.91936 0.0
C2176 C 0.66078 0.5717 0.90252 0.0
C2177 C 0.67709 0.70414 0.79738 0.0
C2178 C 0.68806 0.69117 0.78547 0.0
C2179 C 0.65756 0.68567 0.81541 0.0
C2180 C 0.64762 0.65363 0.82133 0.0
C2181 C 0.65679 0.64025 0.80823 0.0
C2182 C 0.67706 0.65888 0.79062 0.0
C2183 C 0.63167 0.63518 0.84362 0.0
C2184 C 0.64557 0.61936 0.86269 0.0
C2185 C 0.60604 0.63672 0.84786 0.0
C2186 C 0.59041 0.65304 0.82821 0.0
C2187 C 0.58048 0.64651 0.80355 0.0
C2188 C 0.56796 0.66369 0.78465 0.0
C2189 C 0.56501 0.68728 0.79023 0.0
C2190 C 0.57438 0.69359 0.81478 0.0
C2191 C 0.58696 0.67652 0.83374 0.0
H2192 H 0.55546 0.70067 0.77554 0.0
H2193 H 0.71642 0.57363 0.95312 0.0
H2194 H 0.78387 0.34518 0.20871 0.0
H2195 H 0.75854 0.37379 0.17796 0.0
H2196 H 0.67049 0.29067 0.18377 0.0
H2197 H 0.69697 0.26142 0.20843 0.0
H2198 H 0.66192 0.31988 0.14605 0.0
H2199 H 0.72096 0.36179 0.22946 0.0
H2200 H 0.77083 0.3907 0.25522 0.0
H2201 H 0.79955 0.46335 0.19125 0.0
H2202 H 0.74987 0.4349 0.16525 0.0
H2203 H 0.55408 0.35972 0.13583 0.0
H2204 H 0.59328 0.35322 0.17001 0.0
H2205 H 0.66519 0.42928 0.12952 0.0
H2206 H 0.62656 0.43672 0.09609 0.0
H2207 H 0.68626 0.41127 0.18035 0.0
H2208 H 0.6285 0.34927 0.09973 0.0
H2209 H 0.58048 0.31156 0.0779 0.0
H2210 H 0.54554 0.26592 0.14837 0.0
H2211 H 0.5938 0.30272 0.17062 0.0
C2212 C 0.75948 0.33304 0.2015 0.0
C2213 C 0.74207 0.30144 0.20995 0.0
C2214 C 0.74485 0.34944 0.1848 0.0
C2215 C 0.71243 0.33503 0.17968 0.0
C2216 C 0.69556 0.30272 0.18705 0.0
C2217 C 0.71056 0.28586 0.20135 0.0
C2218 C 0.69511 0.35295 0.17 0.0
C2219 C 0.66717 0.33945 0.15416 0.0
C2220 C 0.70232 0.37933 0.17965 0.0
C2221 C 0.73194 0.39618 0.19545 0.0
C2222 C 0.73796 0.38393 0.22097 0.0
C2223 C 0.76616 0.40023 0.23559 0.0
C2224 C 0.78836 0.42881 0.22487 0.0
C2225 C 0.78237 0.44122 0.19954 0.0
C2226 C 0.75421 0.42507 0.18488 0.0
C2227 C 0.57824 0.37623 0.13515 0.0
C2228 C 0.58766 0.39767 0.11317 0.0
C2229 C 0.60051 0.37259 0.1546 0.0
C2230 C 0.63163 0.38964 0.15122 0.0
C2231 C 0.64103 0.41555 0.13201 0.0
C2232 C 0.61888 0.41961 0.11281 0.0
C2233 C 0.65155 0.37474 0.16021 0.0
C2234 C 0.68063 0.39043 0.17394 0.0
C2235 C 0.64461 0.34871 0.15036 0.0
C2236 C 0.61411 0.32955 0.13662 0.0
C2237 C 0.6103 0.33153 0.11044 0.0
C2238 C 0.58331 0.30997 0.09808 0.0
C2239 C 0.55984 0.28654 0.1117 0.0
C2240 C 0.56352 0.28434 0.13778 0.0
C2241 C 0.59071 0.30548 0.15027 0.0
H2242 H 0.53888 0.27004 0.10207 0.0
H2243 H 0.81018 0.44135 0.23619 0.0
H2244 H 0.99555 0.47271 0.42474 0.0
H2245 H 0.96544 0.4475 0.38833 0.0
H2246 H 0.88069 0.4222 0.41398 0.0
H2247 H 0.9112 0.4478 0.45073 0.0
H2248 H 0.88756 0.37353 0.40497 0.0
H2249 H 0.89878 0.4744 0.36518 0.0
H2250 H 0.92952 0.53109 0.35517 0.0
H2251 H 0.98294 0.52037 0.31345 0.0
H2252 H 0.95316 0.46353 0.32389 0.0
H2253 H 0.7867 0.31862 0.29865 0.0
H2254 H 0.81742 0.35189 0.33001 0.0
H2255 H 0.90137 0.3689 0.30818 0.0
H2256 H 0.87047 0.33419 0.27723 0.0
H2257 H 0.89544 0.42228 0.31494 0.0
H2258 H 0.89121 0.32499 0.3571 0.0
H2259 H 0.87413 0.27 0.37655 0.0
H2260 H 0.81511 0.27413 0.417 0.0
H2261 H 0.83146 0.32903 0.39753 0.0
C2262 C 0.97051 0.46211 0.42227 0.0
C2263 C 0.95518 0.46184 0.43988 0.0
C2264 C 0.95348 0.44802 0.4016 0.0
C2265 C 0.92116 0.43367 0.39864 0.0
C2266 C 0.90576 0.43371 0.41615 0.0
C2267 C 0.92292 0.44813 0.43684 0.0
C2268 C 0.90388 0.41618 0.37836 0.0
C2269 C 0.88836 0.38403 0.38517 0.0
C2270 C 0.90702 0.43046 0.35298 0.0
C2271 C 0.92382 0.46465 0.34545 0.0
C2272 C 0.91717 0.4841 0.35397 0.0
C2273 C 0.93447 0.51628 0.34826 0.0
C2274 C 0.95819 0.52933 0.3337 0.0
C2275 C 0.96456 0.51022 0.32473 0.0
C2276 C 0.94748 0.478 0.33055 0.0
C2277 C 0.81172 0.32977 0.30035 0.0
C2278 C 0.82652 0.32382 0.28602 0.0
C2279 C 0.82907 0.34846 0.31825 0.0
C2280 C 0.86127 0.3617 0.32155 0.0
C2281 C 0.87633 0.35812 0.30581 0.0
C2282 C 0.85882 0.33887 0.288 0.0
C2283 C 0.87868 0.37953 0.34155 0.0
C2284 C 0.89421 0.41175 0.33468 0.0
C2285 C 0.87593 0.36526 0.36701 0.0
C2286 C 0.8624 0.33115 0.37564 0.0
C2287 C 0.87401 0.31402 0.36964 0.0
C2288 C 0.86472 0.28294 0.3809 0.0
C2289 C 0.8439 0.26875 0.39825 0.0
C2290 C 0.83149 0.28526 0.40374 0.0
C2291 C 0.84069 0.31632 0.39254 0.0
H2292 H 0.83715 0.24484 0.40728 0.0
H2293 H 0.97161 0.55425 0.32934 0.0
H2294 H 0.60115 0.60101 0.47133 0.0
H2295 H 0.63199 0.63441 0.4376 0.0
H2296 H 0.6158 0.55349 0.41263 0.0
H2297 H 0.58625 0.52023 0.44682 0.0
H2298 H 0.67382 0.59594 0.41225 0.0
H2299 H 0.57293 0.5941 0.38294 0.0
H2300 H 0.53038 0.60292 0.38667 0.0
H2301 H 0.59346 0.69911 0.38845 0.0
H2302 H 0.63641 0.69077 0.38483 0.0
H2303 H 0.66966 0.65646 0.27206 0.0
H2304 H 0.65011 0.62775 0.3124 0.0
H2305 H 0.72467 0.701 0.35016 0.0
H2306 H 0.74468 0.72861 0.31054 0.0
H2307 H 0.64189 0.66774 0.34631 0.0
H2308 H 0.74333 0.66676 0.38152 0.0
H2309 H 0.78588 0.6533 0.38873 0.0
H2310 H 0.72002 0.55972 0.37957 0.0
H2311 H 0.67717 0.57292 0.37175 0.0
C2312 C 0.60502 0.59035 0.45929 0.0
C2313 C 0.59146 0.55791 0.46203 0.0
C2314 C 0.62216 0.60949 0.43964 0.0
C2315 C 0.62573 0.5964 0.42235 0.0
C2316 C 0.61327 0.56411 0.4257 0.0
C2317 C 0.59643 0.54511 0.44533 0.0
C2318 C 0.64241 0.61577 0.40063 0.0
C2319 C 0.66669 0.61155 0.3978 0.0
C2320 C 0.63363 0.63668 0.38208 0.0
C2321 C 0.60783 0.64178 0.38382 0.0
C2322 C 0.5777 0.61709 0.38423 0.0
C2323 C 0.55354 0.62201 0.38631 0.0
C2324 C 0.55923 0.65154 0.38788 0.0
C2325 C 0.58909 0.67625 0.38725 0.0
C2326 C 0.61333 0.67147 0.38513 0.0
C2327 C 0.68253 0.66566 0.28922 0.0
C2328 C 0.7098 0.69389 0.28846 0.0
C2329 C 0.67126 0.64946 0.31212 0.0
C2330 C 0.68645 0.662 0.33429 0.0
C2331 C 0.71332 0.69039 0.33347 0.0
C2332 C 0.72496 0.70604 0.31081 0.0
C2333 C 0.67262 0.64696 0.35774 0.0
C2334 C 0.64897 0.65218 0.36085 0.0
C2335 C 0.68184 0.62684 0.37665 0.0
C2336 C 0.70723 0.62098 0.37553 0.0
C2337 C 0.73803 0.64365 0.38014 0.0
C2338 C 0.76215 0.63593 0.38477 0.0
C2339 C 0.7556 0.60554 0.38506 0.0
C2340 C 0.72503 0.58315 0.37963 0.0
C2341 C 0.70087 0.5908 0.37486 0.0
H2342 H 0.77426 0.59944 0.38912 0.0
H2343 H 0.54049 0.65528 0.3895 0.0
H2344 H 0.85081 0.32957 0.7892 0.0
H2345 H 0.87816 0.35695 0.82495 0.0
H2346 H 0.81692 0.27904 0.87326 0.0
H2347 H 0.78998 0.25118 0.83748 0.0
H2348 H 0.83291 0.34641 0.8752 0.0
H2349 H 0.87801 0.27817 0.87552 0.0
H2350 H 0.9016 0.26208 0.85248 0.0
H2351 H 0.97319 0.35578 0.83835 0.0
H2352 H 0.94964 0.37248 0.86088 0.0
H2353 H 0.9237 0.39782 0.98862 0.0
H2354 H 0.89026 0.3622 0.95904 0.0
H2355 H 0.96143 0.4091 0.91114 0.0
H2356 H 0.99478 0.44313 0.94071 0.0
H2357 H 0.93695 0.3531 0.91051 0.0
H2358 H 0.90144 0.42678 0.90183 0.0
H2359 H 0.88183 0.45622 0.91419 0.0
H2360 H 0.7995 0.3723 0.93177 0.0
H2361 H 0.81894 0.34225 0.91999 0.0
C2362 C 0.84392 0.31807 0.80765 0.0
C2363 C 0.81981 0.28791 0.81145 0.0
C2364 C 0.85891 0.33388 0.82771 0.0
C2365 C 0.84935 0.31962 0.85138 0.0
C2366 C 0.82434 0.28999 0.85492 0.0
C2367 C 0.80954 0.27404 0.83487 0.0
C2368 C 0.86747 0.33444 0.873 0.0
C2369 C 0.85546 0.34758 0.8834 0.0
C2370 C 0.89729 0.33699 0.88232 0.0
C2371 C 0.91205 0.32652 0.86982 0.0
C2372 C 0.89873 0.29531 0.86743 0.0
C2373 C 0.91207 0.28611 0.85444 0.0
C2374 C 0.93887 0.30789 0.84396 0.0
C2375 C 0.95245 0.33892 0.84649 0.0
C2376 C 0.93913 0.34825 0.85939 0.0
C2377 C 0.93208 0.40032 0.97189 0.0
C2378 C 0.96134 0.42388 0.9666 0.0
C2379 C 0.91311 0.37998 0.95509 0.0
C2380 C 0.92326 0.38362 0.93276 0.0
C2381 C 0.95319 0.4059 0.92832 0.0
C2382 C 0.97225 0.42548 0.94531 0.0
C2383 C 0.90267 0.36548 0.91315 0.0
C2384 C 0.91417 0.3516 0.90292 0.0
C2385 C 0.87333 0.36426 0.9029 0.0
C2386 C 0.86188 0.38218 0.91048 0.0
C2387 C 0.87934 0.41454 0.90866 0.0
C2388 C 0.86823 0.43135 0.91549 0.0
C2389 C 0.8395 0.41612 0.92387 0.0
C2390 C 0.82181 0.38405 0.92538 0.0
C2391 C 0.83288 0.36711 0.91867 0.0
H2392 H 0.83088 0.42918 0.92909 0.0
H2393 H 0.94915 0.30072 0.83389 0.0
H2394 H 0.86871 0.81677 0.2277 0.0
H2395 H 0.89007 0.84205 0.18865 0.0
H2396 H 0.79971 0.82864 0.14821 0.0
H2397 H 0.7775 0.79799 0.18662 0.0
H2398 H 0.82444 0.82384 0.11855 0.0
H2399 H 0.86505 0.90344 0.16751 0.0
H2400 H 0.88948 0.9259 0.20641 0.0
H2401 H 0.97234 0.92196 0.20559 0.0
H2402 H 0.94839 0.89934 0.16677 0.0
H2403 H 0.91606 0.95785 0.02572 0.0
H2404 H 0.88233 0.92623 0.05823 0.0
H2405 H 0.93689 0.87736 0.08961 0.0
H2406 H 0.96989 0.90805 0.0565 0.0
H2407 H 0.92641 0.91779 0.12052 0.0
H2408 H 0.87978 0.83414 0.0709 0.0
H2409 H 0.85431 0.81627 0.03018 0.0
H2410 H 0.78006 0.83505 0.02992 0.0
H2411 H 0.8055 0.8537 0.07045 0.0
C2412 C 0.85336 0.81948 0.21057 0.0
C2413 C 0.82145 0.8065 0.21069 0.0
C2414 C 0.86572 0.83436 0.18813 0.0
C2415 C 0.84698 0.83894 0.16538 0.0
C2416 C 0.815 0.8261 0.16543 0.0
C2417 C 0.80231 0.80928 0.18769 0.0
C2418 C 0.86096 0.85649 0.14173 0.0
C2419 C 0.8465 0.84463 0.11905 0.0
C2420 C 0.88966 0.884 0.14187 0.0
C2421 C 0.90488 0.89966 0.16422 0.0
C2422 C 0.88853 0.90751 0.17556 0.0
C2423 C 0.90225 0.92015 0.19765 0.0
C2424 C 0.93239 0.92525 0.2085 0.0
C2425 C 0.949 0.91802 0.19715 0.0
C2426 C 0.93542 0.90541 0.17504 0.0
C2427 C 0.9202 0.93969 0.03913 0.0
C2428 C 0.9454 0.93519 0.03868 0.0
C2429 C 0.90104 0.92177 0.05766 0.0
C2430 C 0.90727 0.89963 0.07626 0.0
C2431 C 0.93169 0.89427 0.07525 0.0
C2432 C 0.95034 0.91159 0.05629 0.0
C2433 C 0.89042 0.88438 0.0982 0.0
C2434 C 0.90423 0.8971 0.12028 0.0
C2435 C 0.86086 0.85843 0.09722 0.0
C2436 C 0.84472 0.84562 0.0736 0.0
C2437 C 0.85814 0.83466 0.0621 0.0
C2438 C 0.8437 0.82438 0.03905 0.0
C2439 C 0.81563 0.8246 0.02743 0.0
C2440 C 0.80184 0.83493 0.03893 0.0
C2441 C 0.81625 0.84533 0.06196 0.0
H2442 H 0.80453 0.81672 0.00955 0.0
H2443 H 0.9429 0.93486 0.22569 0.0
H2444 H 0.8756 0.16418 0.83565 0.0
H2445 H 0.90755 0.14858 0.87171 0.0
H2446 H 0.84389 0.1288 0.9205 0.0
H2447 H 0.81137 0.14361 0.88427 0.0
H2448 H 0.93099 0.14989 0.92852 0.0
H2449 H 0.81194 0.07072 0.92256 0.0
H2450 H 0.76074 0.04277 0.89803 0.0
H2451 H 0.80416 0.03434 0.84586 0.0
H2452 H 0.85555 0.06263 0.86991 0.0
H2453 H 0.94581 0.00963 0.99418 0.0
H2454 H 0.91224 0.0342 0.9815 0.0
H2455 H 0.93695 0.06544 0.90666 0.0
H2456 H 0.97562 0.04717 0.92099 0.0
H2457 H 0.86634 0.03773 0.92453 0.0
H2458 H 0.97851 0.11308 0.92057 0.0
H2459 H 0.03314 0.13389 0.94023 0.0
H2460 H 1.0105 0.15104 0.00145 0.0
H2461 H 0.95524 0.12842 0.98285 0.0
C2462 C 0.86963 0.15854 0.85435 0.0
C2463 C 0.84104 0.1543 0.85754 0.0
C2464 C 0.8878 0.14963 0.87486 0.0
C2465 C 0.87723 0.13692 0.89827 0.0
C2466 C 0.85184 0.13835 0.9023 0.0
C2467 C 0.83347 0.1469 0.88175 0.0
C2468 C 0.88656 0.11445 0.91507 0.0
C2469 C 0.91663 0.12526 0.92841 0.0
C2470 C 0.86791 0.08251 0.91387 0.0
C2471 C 0.83755 0.06969 0.89754 0.0
C2472 C 0.81056 0.06363 0.90548 0.0
C2473 C 0.7815 0.04739 0.89184 0.0
C2474 C 0.77918 0.03678 0.8704 0.0
C2475 C 0.80595 0.04268 0.86239 0.0
C2476 C 0.83504 0.05899 0.87592 0.0
C2477 C 0.94304 0.02043 0.97469 0.0
C2478 C 0.96263 0.02585 0.95812 0.0
C2479 C 0.92418 0.03469 0.9677 0.0
C2480 C 0.92354 0.05219 0.94362 0.0
C2481 C 0.93827 0.05237 0.92559 0.0
C2482 C 0.95932 0.04073 0.93329 0.0
C2483 C 0.91049 0.0732 0.93767 0.0
C2484 C 0.87995 0.06211 0.92605 0.0
C2485 C 0.92927 0.1049 0.93937 0.0
C2486 C 0.96243 0.11768 0.95088 0.0
C2487 C 0.98489 0.12013 0.93869 0.0
C2488 C 0.01606 0.13248 0.94956 0.0
C2489 C 0.02526 0.14345 0.97225 0.0
C2490 C 1.00329 0.14213 0.98406 0.0
C2491 C 0.97199 0.12928 0.97347 0.0
H2492 H 0.04943 0.15321 0.98056 0.0
H2493 H 0.75666 0.02413 0.85993 0.0
H2494 H 0.6953 0.16591 0.71025 0.0
H2495 H 0.66762 0.13883 0.67425 0.0
H2496 H 0.68848 0.22671 0.62411 0.0
H2497 H 0.71623 0.25388 0.66021 0.0
H2498 H 0.62355 0.17683 0.61976 0.0
H2499 H 0.73365 0.19014 0.61604 0.0
H2500 H 0.77706 0.17709 0.63212 0.0
H2501 H 0.71469 0.08525 0.66445 0.0
H2502 H 0.67099 0.0977 0.64806 0.0
H2503 H 0.56216 0.10855 0.50948 0.0
H2504 H 0.59537 0.14617 0.53793 0.0
H2505 H 0.62338 0.0785 0.58714 0.0
H2506 H 0.59542 0.04436 0.55667 0.0
H2507 H 0.66737 0.12593 0.58919 0.0
H2508 H 0.56 0.0971 0.593 0.0
H2509 H 0.50831 0.09426 0.57634 0.0
H2510 H 0.54992 0.1933 0.55423 0.0
H2511 H 0.60178 0.19664 0.57063 0.0
C2512 C 0.69373 0.17924 0.69147 0.0
C2513 C 0.70751 0.21166 0.6875 0.0
C2514 C 0.67822 0.16391 0.67112 0.0
C2515 C 0.6767 0.18107 0.64684 0.0
C2516 C 0.68978 0.21343 0.64294 0.0
C2517 C 0.70521 0.22878 0.66335 0.0
C2518 C 0.66071 0.16528 0.62539 0.0
C2519 C 0.63283 0.16547 0.61294 0.0
C2520 C 0.67258 0.14994 0.61729 0.0
C2521 C 0.69938 0.14502 0.63127 0.0
C2522 C 0.72944 0.16745 0.62704 0.0
C2523 C 0.75395 0.15996 0.63582 0.0
C2524 C 0.74859 0.13025 0.64906 0.0
C2525 C 0.71882 0.10818 0.65408 0.0
C2526 C 0.69422 0.11545 0.64508 0.0
C2527 C 0.57635 0.1026 0.52612 0.0
C2528 C 0.57626 0.07385 0.53153 0.0
C2529 C 0.59474 0.12363 0.54251 0.0
C2530 C 0.61116 0.11487 0.56508 0.0
C2531 C 0.61126 0.08614 0.56981 0.0
C2532 C 0.59502 0.06642 0.55259 0.0
C2533 C 0.62839 0.13485 0.58423 0.0
C2534 C 0.6573 0.13661 0.59592 0.0
C2535 C 0.6158 0.14936 0.59294 0.0
C2536 C 0.58468 0.14709 0.58271 0.0
C2537 C 0.55807 0.11821 0.5844 0.0
C2538 C 0.52876 0.11652 0.57505 0.0
C2539 C 0.52583 0.14357 0.56415 0.0
C2540 C 0.5522 0.17236 0.56261 0.0
C2541 C 0.58153 0.17417 0.57193 0.0
H2542 H 0.50312 0.14222 0.55695 0.0
H2543 H 0.7676 0.12451 0.65577 0.0
H2544 H 0.57036 0.93074 0.3988 0.0
H2545 H 0.58211 0.89785 0.38251 0.0
H2546 H 0.67921 0.95045 0.409 0.0
H2547 H 0.6676 0.98313 0.42518 0.0
H2548 H 0.66918 0.94803 0.35959 0.0
H2549 H 0.63765 0.87586 0.43556 0.0
H2550 H 0.60293 0.84157 0.46715 0.0
H2551 H 0.53624 0.78869 0.41092 0.0
H2552 H 0.57031 0.82304 0.37884 0.0
H2553 H 0.72413 0.86679 0.31826 0.0
H2554 H 0.71322 0.88815 0.34689 0.0
H2555 H 0.61546 0.8283 0.32926 0.0
H2556 H 0.62647 0.80653 0.30137 0.0
H2557 H 0.62616 0.83372 0.37556 0.0
H2558 H 0.65405 0.90617 0.29921 0.0
H2559 H 0.68637 0.94073 0.26606 0.0
H2560 H 0.75658 0.99383 0.32076 0.0
H2561 H 0.72495 0.95917 0.35436 0.0
C2562 C 0.59409 0.93473 0.40168 0.0
C2563 C 0.6181 0.95984 0.41293 0.0
C2564 C 0.60082 0.91596 0.39232 0.0
C2565 C 0.63165 0.9218 0.39428 0.0
C2566 C 0.65532 0.94564 0.40696 0.0
C2567 C 0.64863 0.96432 0.41622 0.0
C2568 C 0.63982 0.90524 0.38129 0.0
C2569 C 0.66017 0.92304 0.36343 0.0
C2570 C 0.62726 0.87255 0.38556 0.0
C2571 C 0.60642 0.85229 0.40471 0.0
C2572 C 0.61542 0.85718 0.42983 0.0
C2573 C 0.59588 0.83767 0.44785 0.0
C2574 C 0.56736 0.81302 0.44104 0.0
C2575 C 0.55831 0.80784 0.41617 0.0
C2576 C 0.57773 0.82733 0.39806 0.0
C2577 C 0.70045 0.8576 0.32115 0.0
C2578 C 0.67614 0.8351 0.30752 0.0
C2579 C 0.69413 0.87011 0.33723 0.0
C2580 C 0.66336 0.86052 0.33982 0.0
C2581 C 0.63935 0.83642 0.32756 0.0
C2582 C 0.64566 0.82394 0.31158 0.0
C2583 C 0.65582 0.87657 0.35398 0.0
C2584 C 0.63541 0.85872 0.37188 0.0
C2585 C 0.66795 0.90928 0.34949 0.0
C2586 C 0.6873 0.92977 0.32938 0.0
C2587 C 0.67654 0.92497 0.30423 0.0
C2588 C 0.69472 0.94463 0.28535 0.0
C2589 C 0.72355 0.9694 0.29131 0.0
C2590 C 0.73428 0.97457 0.31618 0.0
C2591 C 0.71626 0.9549 0.33516 0.0
H2592 H 0.73754 0.98466 0.27665 0.0
H2593 H 0.55232 0.79788 0.45504 0.0
H2594 H 0.79475 0.19584 0.24752 0.0
H2595 H 0.81232 0.15749 0.26227 0.0
H2596 H 0.79463 0.14677 0.33716 0.0
H2597 H 0.79128 0.19458 0.32389 0.0
H2598 H 0.84803 0.16576 0.34093 0.0
H2599 H 0.76727 0.08352 0.29361 0.0
H2600 H 0.73416 0.06595 0.25451 0.0
H2601 H 0.81438 0.10476 0.21833 0.0
H2602 H 0.84814 0.12218 0.25761 0.0
H2603 H 0.90026 0.06596 0.40685 0.0
H2604 H 0.86061 0.06956 0.3723 0.0
H2605 H 0.93105 0.13876 0.32713 0.0
H2606 H 0.97127 0.13552 0.36195 0.0
H2607 H 0.85534 0.09054 0.30536 0.0
H2608 H 0.933 0.17811 0.35203 0.0
H2609 H 0.96424 0.20223 0.3894 0.0
H2610 H 0.88416 0.15426 0.42688 0.0
H2611 H 0.85246 0.12973 0.38976 0.0
C2612 C 0.79511 0.18558 0.26719 0.0
C2613 C 0.79242 0.1988 0.28481 0.0
C2614 C 0.80364 0.16218 0.2755 0.0
C2615 C 0.80532 0.1491 0.30117 0.0
C2616 C 0.79445 0.15721 0.31736 0.0
C2617 C 0.79131 0.18406 0.30978 0.0
C2618 C 0.82717 0.13627 0.31245 0.0
C2619 C 0.84835 0.14827 0.33349 0.0
C2620 C 0.8302 0.11592 0.30159 0.0
C2621 C 0.8101 0.10395 0.27853 0.0
C2622 C 0.77782 0.08808 0.27737 0.0
C2623 C 0.75895 0.07818 0.25511 0.0
C2624 C 0.77207 0.08414 0.23383 0.0
C2625 C 0.80423 0.09989 0.23486 0.0
C2626 C 0.82326 0.1096 0.25718 0.0
C2627 C 0.90727 0.0806 0.38904 0.0
C2628 C 0.93846 0.1013 0.38688 0.0
C2629 C 0.88464 0.08237 0.36935 0.0
C2630 C 0.89349 0.10478 0.34782 0.0
C2631 C 0.92439 0.12144 0.34393 0.0
C2632 C 0.94715 0.11991 0.36376 0.0
C2633 C 0.87281 0.1177 0.33464 0.0
C2634 C 0.85322 0.10684 0.31295 0.0
C2635 C 0.87069 0.1388 0.34512 0.0
C2636 C 0.8906 0.1511 0.36841 0.0
C2637 C 0.92222 0.17198 0.36848 0.0
C2638 C 0.93993 0.18603 0.38953 0.0
C2639 C 0.92631 0.17941 0.41065 0.0
C2640 C 0.89483 0.159 0.41067 0.0
C2641 C 0.87699 0.145 0.38964 0.0
H2642 H 0.94008 0.19034 0.42689 0.0
H2643 H 0.75734 0.07659 0.21655 0.0
H2644 H 0.66353 0.16996 0.22373 0.0
H2645 H 0.62981 0.13532 0.19381 0.0
H2646 H 0.70958 0.14571 0.16987 0.0
H2647 H 0.74353 0.17797 0.20123 0.0
H2648 H 0.65591 0.16493 0.13262 0.0
H2649 H 0.68608 0.08521 0.1841 0.0
H2650 H 0.69374 0.0509 0.22324 0.0
H2651 H 0.60044 0.01746 0.2347 0.0
H2652 H 0.59193 0.051 0.19492 0.0
H2653 H 0.61463 0.07095 0.0431 0.0
H2654 H 0.63946 0.1008 0.07773 0.0
H2655 H 0.55646 0.04505 0.11258 0.0
H2656 H 0.53256 0.01447 0.07881 0.0
H2657 H 0.60601 0.05013 0.14495 0.0
H2658 H 0.5752 0.11944 0.08096 0.0
H2659 H 0.57178 0.1501 0.03838 0.0
H2660 H 0.67067 0.20465 0.04817 0.0
H2661 H 0.67478 0.17393 0.0906 0.0
C2662 C 0.674 0.16384 0.21314 0.0
C2663 C 0.70627 0.17693 0.21501 0.0
C2664 C 0.65468 0.14445 0.19573 0.0
C2665 C 0.66758 0.13873 0.17969 0.0
C2666 C 0.69953 0.15028 0.18223 0.0
C2667 C 0.71877 0.16875 0.20013 0.0
C2668 C 0.64792 0.1224 0.15902 0.0
C2669 C 0.64476 0.13983 0.13507 0.0
C2670 C 0.63349 0.08995 0.16273 0.0
C2671 C 0.63867 0.07106 0.18708 0.0
C2672 C 0.66741 0.07092 0.19524 0.0
C2673 C 0.67187 0.05156 0.21747 0.0
C2674 C 0.64787 0.03253 0.23184 0.0
C2675 C 0.61914 0.03248 0.22372 0.0
C2676 C 0.61441 0.05153 0.20127 0.0
C2677 C 0.60236 0.06479 0.05867 0.0
C2678 C 0.57242 0.04031 0.05921 0.0
C2679 C 0.61606 0.0821 0.07793 0.0
C2680 C 0.59935 0.07533 0.09721 0.0
C2681 C 0.56948 0.05054 0.0977 0.0
C2682 C 0.5561 0.03294 0.07878 0.0
C2683 C 0.61389 0.09243 0.1181 0.0
C2684 C 0.61616 0.0752 0.14227 0.0
C2685 C 0.62779 0.12513 0.11428 0.0
C2686 C 0.6253 0.14422 0.08897 0.0
C2687 C 0.59625 0.13787 0.074 0.0
C2688 C 0.59418 0.15527 0.04988 0.0
C2689 C 0.62099 0.1793 0.04058 0.0
C2690 C 0.64992 0.18604 0.05541 0.0
C2691 C 0.65212 0.16865 0.07951 0.0
H2692 H 0.61934 0.1927 0.02188 0.0
H2693 H 0.65144 0.01755 0.24909 0.0
H2694 H 0.74509 0.84469 0.87279 0.0
H2695 H 0.71283 0.85429 0.89156 0.0
H2696 H 0.66079 0.8667 0.81812 0.0
H2697 H 0.69397 0.85774 0.79915 0.0
H2698 H 0.67842 0.91338 0.84315 0.0
H2699 H 0.62816 0.80082 0.86556 0.0
H2700 H 0.62719 0.75003 0.88408 0.0
H2701 H 0.67149 0.77989 0.95551 0.0
H2702 H 0.67298 0.83087 0.93735 0.0
H2703 H 0.59357 0.94269 0.91042 0.0
H2704 H 0.6061 0.9232 0.88135 0.0
H2705 H 0.65181 0.88176 0.94501 0.0
H2706 H 0.63623 0.8976 0.97349 0.0
H2707 H 0.62709 0.84555 0.91742 0.0
H2708 H 0.68728 0.95857 0.89759 0.0
H2709 H 0.69546 0.01235 0.88128 0.0
H2710 H 0.64269 0.98727 0.80981 0.0
H2711 H 0.63389 0.93333 0.82581 0.0
C2712 C 0.7261 0.84844 0.86078 0.0
C2713 C 0.72162 0.84983 0.83463 0.0
C2714 C 0.70767 0.85404 0.87149 0.0
C2715 C 0.684 0.86088 0.85637 0.0
C2716 C 0.67875 0.86129 0.83023 0.0
C2717 C 0.69738 0.85573 0.81944 0.0
C2718 C 0.66625 0.86929 0.86795 0.0
C2719 C 0.6668 0.89841 0.85922 0.0
C2720 C 0.65171 0.85025 0.88927 0.0
C2721 C 0.65072 0.81959 0.90008 0.0
C2722 C 0.6378 0.79655 0.88517 0.0
C2723 C 0.63715 0.76774 0.89562 0.0
C2724 C 0.64928 0.76174 0.92095 0.0
C2725 C 0.66207 0.78453 0.93591 0.0
C2726 C 0.66277 0.81334 0.92557 0.0
C2727 C 0.60557 0.92871 0.91809 0.0
C2728 C 0.61442 0.92226 0.94434 0.0
C2729 C 0.61336 0.9181 0.90141 0.0
C2730 C 0.63078 0.90155 0.91068 0.0
C2731 C 0.63847 0.8944 0.93696 0.0
C2732 C 0.62983 0.90391 0.95342 0.0
C2733 C 0.64097 0.89074 0.89391 0.0
C2734 C 0.63863 0.86081 0.90139 0.0
C2735 C 0.65499 0.90968 0.87216 0.0
C2736 C 0.65948 0.94185 0.86303 0.0
C2737 C 0.67712 0.96447 0.87851 0.0
C2738 C 0.68194 0.99499 0.86929 0.0
C2739 C 0.66948 0.00318 0.84457 0.0
C2740 C 0.65221 0.98089 0.82899 0.0
C2741 C 0.64727 0.95035 0.83812 0.0
H2742 H 0.6733 0.02683 0.83744 0.0
H2743 H 0.64874 0.73942 0.929 0.0
H2744 H 0.97667 0.89835 0.54928 0.0
H2745 H 0.9615 0.87642 0.591 0.0
H2746 H 0.94248 0.95224 0.58663 0.0
H2747 H 0.96921 0.97847 0.55068 0.0
H2748 H 0.94629 0.93552 0.62801 0.0
H2749 H 0.88536 0.8635 0.56732 0.0
H2750 H 0.88072 0.83193 0.53829 0.0
H2751 H 0.92 0.78204 0.59897 0.0
H2752 H 0.92516 0.81353 0.62825 0.0
H2753 H 0.81497 0.84247 0.69336 0.0
H2754 H 0.84973 0.87316 0.66184 0.0
H2755 H 0.8969 0.81658 0.69075 0.0
H2756 H 0.86095 0.78472 0.72139 0.0
H2757 H 0.87998 0.82182 0.64073 0.0
H2758 H 0.92975 0.89531 0.70091 0.0
H2759 H 0.92337 0.92489 0.72557 0.0
H2760 H 0.88884 0.97046 0.6574 0.0
H2761 H 0.89492 0.9411 0.6324 0.0
C2762 C 0.96928 0.91029 0.55736 0.0
C2763 C 0.97029 0.93892 0.54481 0.0
C2764 C 0.95983 0.8973 0.58112 0.0
C2765 C 0.94726 0.91051 0.59123 0.0
C2766 C 0.95045 0.94014 0.57937 0.0
C2767 C 0.96389 0.95477 0.55752 0.0
C2768 C 0.93009 0.89361 0.61335 0.0
C2769 C 0.93147 0.91073 0.63017 0.0
C2770 C 0.91077 0.861 0.61722 0.0
C2771 C 0.90578 0.84093 0.59989 0.0
C2772 C 0.89279 0.84565 0.57446 0.0
C2773 C 0.89022 0.82788 0.55795 0.0
C2774 C 0.90012 0.80504 0.56677 0.0
C2775 C 0.91238 0.79975 0.59216 0.0
C2776 C 0.91509 0.8175 0.60872 0.0
C2777 C 0.8332 0.83706 0.69328 0.0
C2778 C 0.83546 0.81134 0.70965 0.0
C2779 C 0.85305 0.8546 0.67533 0.0
C2780 C 0.87612 0.84734 0.6742 0.0
C2781 C 0.87922 0.8225 0.69136 0.0
C2782 C 0.85885 0.80445 0.70885 0.0
C2783 C 0.89561 0.86402 0.65401 0.0
C2784 C 0.8947 0.84671 0.63789 0.0
C2785 C 0.91369 0.8965 0.64985 0.0
C2786 C 0.91293 0.91612 0.66481 0.0
C2787 C 0.92108 0.91185 0.6912 0.0
C2788 C 0.9174 0.92849 0.70523 0.0
C2789 C 0.90572 0.94954 0.69306 0.0
C2790 C 0.89798 0.95423 0.66681 0.0
C2791 C 0.90168 0.93771 0.65269 0.0
H2792 H 0.90266 0.96221 0.70397 0.0
H2793 H 0.89824 0.7914 0.55395 0.0
H2794 H 0.18999 0.79342 0.86597 0.0
H2795 H 0.17511 0.82284 0.88344 0.0
H2796 H 0.10659 0.82078 0.81752 0.0
H2797 H 0.12165 0.79155 0.8001 0.0
H2798 H 0.13308 0.87517 0.8326 0.0
H2799 H 0.08795 0.7684 0.87229 0.0
H2800 H 0.08714 0.71923 0.8966 0.0
H2801 H 0.14273 0.76374 0.96025 0.0
H2802 H 0.14444 0.81336 0.93611 0.0
H2803 H 0.02153 0.88563 0.87972 0.0
H2804 H 0.05282 0.87412 0.86152 0.0
H2805 H 0.11568 0.88032 0.93166 0.0
H2806 H 0.08393 0.89165 0.95009 0.0
H2807 H 0.09754 0.82773 0.91616 0.0
H2808 H 0.13833 0.93421 0.87621 0.0
H2809 H 0.13777 0.98247 0.85091 0.0
H2810 H 0.08759 0.93701 0.78691 0.0
H2811 H 0.08743 0.88837 0.81194 0.0
C2812 C 0.17237 0.80006 0.85498 0.0
C2813 C 0.15705 0.79047 0.83169 0.0
C2814 C 0.16361 0.81652 0.86507 0.0
C2815 C 0.13924 0.8235 0.85207 0.0
C2816 C 0.12529 0.81555 0.82802 0.0
C2817 C 0.13394 0.79896 0.81802 0.0
C2818 C 0.12718 0.83762 0.86396 0.0
C2819 C 0.12511 0.86467 0.8508 0.0
C2820 C 0.11731 0.82436 0.88796 0.0
C2821 C 0.11672 0.79468 0.90228 0.0
C2822 C 0.10032 0.76779 0.89136 0.0
C2823 C 0.09964 0.73982 0.90513 0.0
C2824 C 0.11495 0.73838 0.92993 0.0
C2825 C 0.13097 0.7649 0.94102 0.0
C2826 C 0.13184 0.79296 0.92729 0.0
C2827 C 0.0424 0.88521 0.8911 0.0
C2828 C 0.05021 0.88948 0.91635 0.0
C2829 C 0.06042 0.87877 0.88062 0.0
C2830 C 0.08684 0.8765 0.89507 0.0
C2831 C 0.09548 0.88205 0.92005 0.0
C2832 C 0.07748 0.88874 0.93053 0.0
C2833 C 0.10335 0.86537 0.88479 0.0
C2834 C 0.10599 0.83862 0.89816 0.0
C2835 C 0.1134 0.8787 0.86085 0.0
C2836 C 0.11263 0.90761 0.84602 0.0
C2837 C 0.12687 0.93443 0.85683 0.0
C2838 C 0.12675 0.96187 0.84252 0.0
C2839 C 0.1126 0.96279 0.81734 0.0
C2840 C 0.09851 0.93626 0.80642 0.0
C2841 C 0.09852 0.90876 0.82066 0.0
H2842 H 0.11261 0.98409 0.80627 0.0
H2843 H 0.11434 0.71668 0.94058 0.0
H2844 H 0.93126 0.40468 0.52543 0.0
H2845 H 0.90768 0.37298 0.56299 0.0
H2846 H 0.96089 0.45223 0.6008 0.0
H2847 H 0.98954 0.48108 0.56519 0.0
H2848 H 0.94926 0.41172 0.63476 0.0
H2849 H 0.8766 0.42266 0.56376 0.0
H2850 H 0.84916 0.42 0.5201 0.0
H2851 H 0.81293 0.32105 0.53528 0.0
H2852 H 0.8405 0.32314 0.57894 0.0
H2853 H 0.83324 0.34518 0.71745 0.0
H2854 H 0.8697 0.37714 0.6873 0.0
H2855 H 0.83306 0.29904 0.64985 0.0
H2856 H 0.79418 0.26872 0.67812 0.0
H2857 H 0.8367 0.34323 0.61665 0.0
H2858 H 0.9296 0.34745 0.68861 0.0
H2859 H 0.96011 0.36191 0.72992 0.0
H2860 H 0.95362 0.44698 0.70963 0.0
H2861 H 0.92362 0.43318 0.66829 0.0
C2862 C 0.93944 0.4144 0.54248 0.0
C2863 C 0.96344 0.44459 0.54291 0.0
C2864 C 0.92486 0.39677 0.56371 0.0
C2865 C 0.93087 0.41033 0.5847 0.0
C2866 C 0.95535 0.44067 0.58518 0.0
C2867 C 0.97186 0.45733 0.56474 0.0
C2868 C 0.91092 0.39358 0.60537 0.0
C2869 C 0.92459 0.39698 0.63053 0.0
C2870 C 0.87837 0.37463 0.60052 0.0
C2871 C 0.86081 0.37311 0.57456 0.0
C2872 C 0.86278 0.40034 0.55777 0.0
C2873 C 0.84726 0.39893 0.53302 0.0
C2874 C 0.82937 0.37038 0.52491 0.0
C2875 C 0.82682 0.34315 0.54159 0.0
C2876 C 0.84236 0.34442 0.56635 0.0
C2877 C 0.83364 0.33477 0.70309 0.0
C2878 C 0.81192 0.30397 0.70084 0.0
C2879 C 0.85487 0.353 0.68593 0.0
C2880 C 0.85529 0.34063 0.66639 0.0
C2881 C 0.8337 0.3095 0.66463 0.0
C2882 C 0.81168 0.29184 0.68106 0.0
C2883 C 0.87531 0.36029 0.64603 0.0
C2884 C 0.86145 0.35773 0.62078 0.0
C2885 C 0.90722 0.38151 0.65063 0.0
C2886 C 0.92361 0.38878 0.6759 0.0
C2887 C 0.93425 0.3689 0.69329 0.0
C2888 C 0.95162 0.37709 0.71656 0.0
C2889 C 0.95834 0.40506 0.72253 0.0
C2890 C 0.94812 0.42516 0.70512 0.0
C2891 C 0.93107 0.41722 0.68177 0.0
H2892 H 0.97172 0.4113 0.74055 0.0
H2893 H 0.81745 0.36936 0.50571 0.0
H2894 H 0.41926 0.01611 0.44098 0.0
H2895 H 0.39336 0.04585 0.41337 0.0
H2896 H 0.47982 0.12853 0.41406 0.0
H2897 H 0.50592 0.09817 0.44248 0.0
H2898 H 0.44201 0.15527 0.40365 0.0
H2899 H 0.4193 0.08081 0.35588 0.0
H2900 H 0.40105 0.02951 0.34559 0.0
H2901 H 0.31057 0.00034 0.36141 0.0
H2902 H 0.32844 0.05139 0.37215 0.0
H2903 H 0.36001 0.24237 0.3062 0.0
H2904 H 0.39107 0.21749 0.33458 0.0
H2905 H 0.31286 0.12829 0.33018 0.0
H2906 H 0.28229 0.15312 0.30215 0.0
H2907 H 0.3493 0.10688 0.34234 0.0
H2908 H 0.37538 0.18557 0.39 0.0
H2909 H 0.39689 0.23839 0.39858 0.0
H2910 H 0.48446 0.26177 0.38021 0.0
H2911 H 0.46331 0.20925 0.37113 0.0
C2912 C 0.43397 0.04046 0.43486 0.0
C2913 C 0.46681 0.05205 0.44455 0.0
C2914 C 0.41818 0.05858 0.41821 0.0
C2915 C 0.43258 0.09168 0.40888 0.0
C2916 C 0.46556 0.10382 0.41896 0.0
C2917 C 0.48151 0.08541 0.43571 0.0
C2918 C 0.41367 0.11198 0.39012 0.0
C2919 C 0.42191 0.14385 0.39029 0.0
C2920 C 0.38616 0.10051 0.37119 0.0
C2921 C 0.37531 0.06974 0.36513 0.0
C2922 C 0.39557 0.06335 0.35736 0.0
C2923 C 0.3853 0.03435 0.35143 0.0
C2924 C 0.35469 0.01164 0.35293 0.0
C2925 C 0.33429 0.01793 0.36033 0.0
C2926 C 0.34448 0.04689 0.36636 0.0
C2927 C 0.34816 0.21746 0.3118 0.0
C2928 C 0.3157 0.20157 0.30114 0.0
C2929 C 0.36704 0.20219 0.32885 0.0
C2930 C 0.35651 0.1688 0.33733 0.0
C2931 C 0.32442 0.15335 0.32613 0.0
C2932 C 0.30575 0.16849 0.30938 0.0
C2933 C 0.3771 0.1501 0.35604 0.0
C2934 C 0.36918 0.11836 0.35582 0.0
C2935 C 0.4051 0.16192 0.37466 0.0
C2936 C 0.41759 0.19364 0.37949 0.0
C2937 C 0.39913 0.20207 0.38757 0.0
C2938 C 0.41127 0.23195 0.39255 0.0
C2939 C 0.44198 0.25347 0.38983 0.0
C2940 C 0.46063 0.24513 0.38218 0.0
C2941 C 0.44856 0.21534 0.37707 0.0
H2942 H 0.45134 0.27656 0.39372 0.0
H2943 H 0.34676 0.9892 0.3483 0.0
H2944 H 0.52574 0.53411 0.07447 0.0
H2945 H 0.55881 0.57196 0.10219 0.0
H2946 H 0.63965 0.57503 0.08623 0.0
H2947 H 0.6068 0.53709 0.05861 0.0
H2948 H 0.64401 0.57602 0.13452 0.0
H2949 H 0.61808 0.62866 0.05445 0.0
H2950 H 0.59013 0.6476 0.01627 0.0
H2951 H 0.55124 0.67111 0.06201 0.0
H2952 H 0.57801 0.65124 0.1005 0.0
H2953 H 0.75245 0.72018 0.17287 0.0
H2954 H 0.72077 0.68161 0.14519 0.0
H2955 H 0.63797 0.66916 0.16581 0.0
H2956 H 0.66965 0.70766 0.19344 0.0
H2957 H 0.63663 0.67427 0.11415 0.0
H2958 H 0.65976 0.61264 0.19495 0.0
H2959 H 0.69241 0.59631 0.23084 0.0
H2960 H 0.74268 0.59605 0.17979 0.0
H2961 H 0.7098 0.61153 0.14357 0.0
C2962 C 0.55057 0.54273 0.07698 0.0
C2963 C 0.56395 0.53414 0.06332 0.0
C2964 C 0.56931 0.56433 0.09272 0.0
C2965 C 0.60149 0.57702 0.0952 0.0
C2966 C 0.61474 0.56587 0.08389 0.0
C2967 C 0.59598 0.54424 0.06814 0.0
C2968 C 0.62142 0.60219 0.10945 0.0
C2969 C 0.64259 0.59763 0.12992 0.0
C2970 C 0.61923 0.63018 0.10336 0.0
C2971 C 0.59983 0.6381 0.08041 0.0
C2972 C 0.60295 0.63711 0.05642 0.0
C2973 C 0.5875 0.64826 0.03469 0.0
C2974 C 0.56915 0.66081 0.03669 0.0
C2975 C 0.56565 0.66162 0.06046 0.0
C2976 C 0.58074 0.65015 0.08223 0.0
C2977 C 0.72742 0.70996 0.17058 0.0
C2978 C 0.71308 0.71707 0.18445 0.0
C2979 C 0.70954 0.68767 0.15533 0.0
C2980 C 0.67734 0.67236 0.15414 0.0
C2981 C 0.66293 0.68086 0.16679 0.0
C2982 C 0.68084 0.7032 0.18202 0.0
C2983 C 0.65846 0.64769 0.13935 0.0
C2984 C 0.63767 0.65247 0.11872 0.0
C2985 C 0.66133 0.6202 0.14495 0.0
C2986 C 0.68271 0.61367 0.16667 0.0
C2987 C 0.6781 0.60956 0.19145 0.0
C2988 C 0.69651 0.60029 0.21182 0.0
C2989 C 0.71982 0.59552 0.20764 0.0
C2990 C 0.72473 0.59989 0.18304 0.0
C2991 C 0.70614 0.60876 0.16258 0.0
H2992 H 0.73395 0.58825 0.22347 0.0
H2993 H 0.5574 0.66965 0.01985 0.0
H2994 H 0.18168 0.23213 0.67167 0.0
H2995 H 0.15189 0.19751 0.6408 0.0
H2996 H 0.22119 0.16557 0.6591 0.0
H2997 H 0.25189 0.20201 0.68744 0.0
H2998 H 0.19935 0.1628 0.61465 0.0
H2999 H 0.15025 0.12909 0.69156 0.0
H3000 H 0.12426 0.13429 0.72057 0.0
H3001 H 0.05658 0.14478 0.65858 0.0
H3002 H 0.08217 0.13965 0.62929 0.0
H3003 H 0.07493 0.00428 0.58654 0.0
H3004 H 0.11156 0.03868 0.61718 0.0
H3005 H 0.09895 0.11525 0.56749 0.0
H3006 H 0.06551 0.08224 0.53648 0.0
H3007 H 0.092 0.08918 0.63137 0.0
H3008 H 0.15153 0.13657 0.55532 0.0
H3009 H 0.17595 0.12943 0.52631 0.0
H3010 H 0.22402 0.09093 0.5894 0.0
H3011 H 0.19913 0.09711 0.61868 0.0
C3012 C 0.19089 0.21851 0.66839 0.0
C3013 C 0.21813 0.21838 0.68284 0.0
C3014 C 0.17371 0.19842 0.65107 0.0
C3015 C 0.18362 0.17788 0.64876 0.0
C3016 C 0.21271 0.1807 0.66098 0.0
C3017 C 0.23009 0.20128 0.67748 0.0
C3018 C 0.16338 0.15178 0.63539 0.0
C3019 C 0.17602 0.14661 0.61863 0.0
C3020 C 0.13299 0.13048 0.64063 0.0
C3021 C 0.1182 0.1342 0.65827 0.0
C3022 C 0.12992 0.13266 0.68415 0.0
C3023 C 0.11522 0.13553 0.70063 0.0
C3024 C 0.08882 0.1399 0.69142 0.0
C3025 C 0.07703 0.1414 0.66571 0.0
C3026 C 0.09157 0.13845 0.64918 0.0
C3027 C 0.08026 0.02851 0.58248 0.0
C3028 C 0.06656 0.04074 0.56008 0.0
C3029 C 0.10083 0.04785 0.59978 0.0
C3030 C 0.10728 0.07906 0.59433 0.0
C3031 C 0.09373 0.09103 0.57185 0.0
C3032 C 0.07413 0.07212 0.55451 0.0
C3033 C 0.12842 0.10042 0.61137 0.0
C3034 C 0.11578 0.10499 0.62837 0.0
C3035 C 0.15885 0.12104 0.60667 0.0
C3036 C 0.17306 0.11669 0.58906 0.0
C3037 C 0.1669 0.12611 0.56293 0.0
C3038 C 0.18087 0.12231 0.54645 0.0
C3039 C 0.20141 0.10958 0.55599 0.0
C3040 C 0.20797 0.10059 0.58202 0.0
C3041 C 0.19384 0.10411 0.59854 0.0
H3042 H 0.21232 0.10681 0.54321 0.0
H3043 H 0.07746 0.14208 0.7042 0.0
H3044 H 0.69301 0.29911 0.35999 0.0
H3045 H 0.67917 0.32868 0.37841 0.0
H3046 H 0.59998 0.31405 0.32001 0.0
H3047 H 0.61408 0.285 0.30162 0.0
H3048 H 0.62476 0.36991 0.32878 0.0
H3049 H 0.59589 0.26906 0.38121 0.0
H3050 H 0.60364 0.2257 0.40977 0.0
H3051 H 0.66663 0.28591 0.46256 0.0
H3052 H 0.65964 0.32973 0.4341 0.0
H3053 H 0.5186 0.3811 0.38017 0.0
H3054 H 0.54867 0.36784 0.36255 0.0
H3055 H 0.61887 0.38739 0.42822 0.0
H3056 H 0.58756 0.39915 0.44677 0.0
H3057 H 0.60651 0.33497 0.41786 0.0
H3058 H 0.63053 0.43488 0.36584 0.0
H3059 H 0.62045 0.47675 0.33692 0.0
H3060 H 0.56381 0.41631 0.28295 0.0
H3061 H 0.57327 0.37402 0.31166 0.0
C3062 C 0.67317 0.30303 0.3508 0.0
C3063 C 0.6547 0.29009 0.32931 0.0
C3064 C 0.66499 0.3195 0.36151 0.0
C3065 C 0.63812 0.32312 0.35095 0.0
C3066 C 0.62071 0.31153 0.32865 0.0
C3067 C 0.62882 0.29506 0.31805 0.0
C3068 C 0.62742 0.33827 0.3631 0.0
C3069 C 0.62063 0.36211 0.34824 0.0
C3070 C 0.62274 0.32884 0.38871 0.0
C3071 C 0.62765 0.30275 0.40536 0.0
C3072 C 0.61172 0.27313 0.39875 0.0
C3073 C 0.6159 0.24846 0.41495 0.0
C3074 C 0.63572 0.25308 0.43792 0.0
C3075 C 0.65139 0.28238 0.44473 0.0
C3076 C 0.64736 0.30714 0.42857 0.0
C3077 C 0.54058 0.38289 0.39087 0.0
C3078 C 0.55046 0.39094 0.41504 0.0
C3079 C 0.55804 0.37563 0.38056 0.0
C3080 C 0.58644 0.37699 0.39375 0.0
C3081 C 0.59712 0.38627 0.41753 0.0
C3082 C 0.57937 0.3933 0.42804 0.0
C3083 C 0.60336 0.36633 0.3834 0.0
C3084 C 0.61119 0.34322 0.39855 0.0
C3085 C 0.60871 0.37617 0.35795 0.0
C3086 C 0.60245 0.40131 0.34095 0.0
C3087 C 0.61571 0.43049 0.34789 0.0
C3088 C 0.61016 0.45429 0.33152 0.0
C3089 C 0.59146 0.44918 0.30813 0.0
C3090 C 0.57827 0.42024 0.30106 0.0
C3091 C 0.58375 0.39637 0.31736 0.0
H3092 H 0.58723 0.46767 0.29547 0.0
H3093 H 0.63887 0.23393 0.45047 0.0
H3094 H 0.50797 0.9515 0.08105 0.0
H3095 H 0.47397 0.91609 0.11261 0.0
H3096 H 0.3941 0.90236 0.05526 0.0
H3097 H 0.42826 0.93725 0.02359 0.0
H3098 H 0.39091 0.92086 0.09635 0.0
H3099 H 0.39833 0.83197 0.0863 0.0
H3100 H 0.4221 0.80031 0.08444 0.0
H3101 H 0.4852 0.82806 0.15196 0.0
H3102 H 0.46071 0.85871 0.15479 0.0
H3103 H 0.27371 0.78562 0.16206 0.0
H3104 H 0.31177 0.81941 0.13335 0.0
H3105 H 0.38141 0.85416 0.19639 0.0
H3106 H 0.34269 0.82138 0.22518 0.0
H3107 H 0.39189 0.82739 0.15472 0.0
H3108 H 0.37 0.90311 0.16925 0.0
H3109 H 0.33544 0.92279 0.17262 0.0
H3110 H 0.29533 0.91692 0.09498 0.0
H3111 H 0.32921 0.89651 0.09133 0.0
C3112 C 0.48321 0.93969 0.07499 0.0
C3113 C 0.4708 0.94626 0.0497 0.0
C3114 C 0.46373 0.91967 0.09309 0.0
C3115 C 0.43135 0.9065 0.08644 0.0
C3116 C 0.41895 0.91212 0.06094 0.0
C3117 C 0.43847 0.93169 0.04275 0.0
C3118 C 0.41074 0.88937 0.10639 0.0
C3119 C 0.39107 0.90031 0.10902 0.0
C3120 C 0.41119 0.86306 0.12351 0.0
C3121 C 0.42824 0.84797 0.12045 0.0
C3122 C 0.41756 0.83157 0.10053 0.0
C3123 C 0.4308 0.81346 0.09954 0.0
C3124 C 0.45529 0.81234 0.11797 0.0
C3125 C 0.46635 0.82907 0.13763 0.0
C3126 C 0.45264 0.8466 0.13906 0.0
C3127 C 0.29724 0.80013 0.16989 0.0
C3128 C 0.30562 0.79966 0.19606 0.0
C3129 C 0.31888 0.81964 0.15342 0.0
C3130 C 0.34945 0.8392 0.1627 0.0
C3131 C 0.35796 0.83911 0.18882 0.0
C3132 C 0.336 0.82001 0.2053 0.0
C3133 C 0.37239 0.85883 0.14489 0.0
C3134 C 0.39233 0.84834 0.14254 0.0
C3135 C 0.37199 0.8854 0.12808 0.0
C3136 C 0.35183 0.89791 0.13011 0.0
C3137 C 0.35354 0.90565 0.15299 0.0
C3138 C 0.33413 0.91701 0.15493 0.0
C3139 C 0.31312 0.921 0.13405 0.0
C3140 C 0.31156 0.91375 0.11116 0.0
C3141 C 0.33086 0.90229 0.10914 0.0
H3142 H 0.29809 0.9298 0.13559 0.0
H3143 H 0.46569 0.79849 0.11703 0.0
H3144 H 0.98538 0.56444 0.9148 0.0
H3145 H 0.9586 0.59276 0.88579 0.0
H3146 H 0.91316 0.58149 0.94538 0.0
H3147 H 0.93856 0.55152 0.97346 0.0
H3148 H 0.87523 0.59329 0.91281 0.0
H3149 H 0.97856 0.65896 0.8986 0.0
H3150 H 0.02961 0.67667 0.88721 0.0
H3151 H 0.98651 0.65422 0.8133 0.0
H3152 H 0.93507 0.63572 0.82446 0.0
H3153 H 0.80172 0.69441 0.83549 0.0
H3154 H 0.83312 0.67096 0.86452 0.0
H3155 H 0.87042 0.6748 0.80239 0.0
H3156 H 0.84116 0.70122 0.77403 0.0
H3157 H 0.91364 0.66805 0.83629 0.0
H3158 H 0.80829 0.60123 0.85469 0.0
H3159 H 0.76034 0.58965 0.86849 0.0
H3160 H 0.81256 0.62159 0.938 0.0
H3161 H 0.86083 0.63375 0.92444 0.0
C3162 C 0.96998 0.56724 0.92246 0.0
C3163 C 0.96618 0.55311 0.94857 0.0
C3164 C 0.95385 0.585 0.905 0.0
C3165 C 0.932 0.59214 0.91126 0.0
C3166 C 0.92855 0.57835 0.93741 0.0
C3167 C 0.94422 0.56029 0.95448 0.0
C3168 C 0.91321 0.61231 0.89209 0.0
C3169 C 0.88471 0.60961 0.89631 0.0
C3170 C 0.92233 0.63529 0.86916 0.0
C3171 C 0.95293 0.64548 0.86251 0.0
C3172 C 0.97994 0.65749 0.88001 0.0
C3173 C 1.00895 0.66769 0.87359 0.0
C3174 C 1.0113 0.66646 0.84958 0.0
C3175 C 0.98463 0.65501 0.83194 0.0
C3176 C 0.95553 0.64458 0.83832 0.0
C3177 C 0.81802 0.69296 0.82753 0.0
C3178 C 0.81903 0.70463 0.80072 0.0
C3179 C 0.83595 0.67701 0.84489 0.0
C3180 C 0.85623 0.66847 0.83784 0.0
C3181 C 0.85673 0.67959 0.81098 0.0
C3182 C 0.83924 0.69592 0.79386 0.0
C3183 C 0.8755 0.64868 0.85691 0.0
C3184 C 0.9041 0.65149 0.85268 0.0
C3185 C 0.86694 0.62633 0.88018 0.0
C3186 C 0.83809 0.61867 0.88845 0.0
C3187 C 0.80948 0.60583 0.87289 0.0
C3188 C 0.78229 0.59922 0.88065 0.0
C3189 C 0.78341 0.60498 0.90407 0.0
C3190 C 0.81173 0.61724 0.91983 0.0
C3191 C 0.839 0.62402 0.91212 0.0
H3192 H 0.76233 0.59986 0.91003 0.0
H3193 H 0.0338 0.67448 0.84461 0.0
H3194 H 0.42718 0.40101 0.02323 0.0
H3195 H 0.40114 0.37649 0.06092 0.0
H3196 H 0.47279 0.45049 0.0994 0.0
H3197 H 0.49875 0.47414 0.0627 0.0
H3198 H 0.46097 0.39052 0.12723 0.0
H3199 H 0.38969 0.44454 0.10328 0.0
H3200 H 0.35046 0.4595 0.07594 0.0
H3201 H 0.31124 0.37939 0.0412 0.0
H3202 H 0.34912 0.36297 0.06963 0.0
H3203 H 0.36001 0.34752 0.22604 0.0
H3204 H 0.39453 0.38021 0.19428 0.0
H3205 H 0.3568 0.30277 0.15623 0.0
H3206 H 0.32366 0.26993 0.18793 0.0
H3207 H 0.35514 0.37015 0.13133 0.0
H3208 H 0.41293 0.30986 0.16968 0.0
H3209 H 0.44095 0.29076 0.20774 0.0
H3210 H 0.50531 0.3844 0.21775 0.0
H3211 H 0.4771 0.40399 0.17997 0.0
C3212 C 0.43701 0.41225 0.0396 0.0
C3213 C 0.4646 0.44026 0.03942 0.0
C3214 C 0.42203 0.39838 0.06106 0.0
C3215 C 0.4347 0.412 0.08287 0.0
C3216 C 0.46224 0.4398 0.08271 0.0
C3217 C 0.47693 0.4537 0.06132 0.0
C3218 C 0.42082 0.39616 0.10652 0.0
C3219 C 0.43788 0.38625 0.12808 0.0
C3220 C 0.391 0.39077 0.10812 0.0
C3221 C 0.37278 0.4032 0.08781 0.0
C3222 C 0.37313 0.43057 0.08936 0.0
C3223 C 0.35079 0.43896 0.07405 0.0
C3224 C 0.32855 0.42059 0.05664 0.0
C3225 C 0.32861 0.39371 0.05457 0.0
C3226 C 0.35042 0.38477 0.07035 0.0
C3227 C 0.35949 0.33726 0.21131 0.0
C3228 C 0.33866 0.30602 0.20968 0.0
C3229 C 0.37932 0.35597 0.19318 0.0
C3230 C 0.37824 0.34371 0.17307 0.0
C3231 C 0.35828 0.31249 0.17184 0.0
C3232 C 0.3392 0.29376 0.19011 0.0
C3233 C 0.39471 0.3637 0.15142 0.0
C3234 C 0.3783 0.37459 0.13041 0.0
C3235 C 0.42492 0.36977 0.15042 0.0
C3236 C 0.44277 0.35831 0.17226 0.0
C3237 C 0.43292 0.32634 0.18013 0.0
C3238 C 0.44882 0.31543 0.20162 0.0
C3239 C 0.47485 0.33636 0.21521 0.0
C3240 C 0.48511 0.36824 0.20723 0.0
C3241 C 0.46917 0.37925 0.18578 0.0
H3242 H 0.48711 0.32787 0.23188 0.0
H3243 H 0.3113 0.4272 0.04475 0.0
H3244 H 0.40974 0.56064 0.88587 0.0
H3245 H 0.38174 0.57063 0.84459 0.0
H3246 H 0.42563 0.66759 0.84953 0.0
H3247 H 0.45465 0.65801 0.89025 0.0
H3248 H 0.35381 0.60003 0.86608 0.0
H3249 H 0.42898 0.68907 0.80732 0.0
H3250 H 0.46831 0.70385 0.78108 0.0
H3251 H 0.40558 0.62735 0.74248 0.0
H3252 H 0.36633 0.61144 0.76931 0.0
H3253 H 0.34069 0.7354 0.81912 0.0
H3254 H 0.35382 0.69257 0.83546 0.0
H3255 H 0.27594 0.63681 0.78571 0.0
H3256 H 0.26227 0.67869 0.77012 0.0
H3257 H 0.34822 0.66281 0.78081 0.0
H3258 H 0.26667 0.59406 0.83434 0.0
H3259 H 0.23437 0.58689 0.86425 0.0
H3260 H 0.31607 0.6358 0.91415 0.0
H3261 H 0.34885 0.6424 0.88479 0.0
C3262 C 0.41479 0.58439 0.87736 0.0
C3263 C 0.43322 0.60862 0.8912 0.0
C3264 C 0.39931 0.59008 0.8536 0.0
C3265 C 0.40181 0.61971 0.84418 0.0
C3266 C 0.42413 0.6447 0.85623 0.0
C3267 C 0.4398 0.6391 0.87989 0.0
C3268 C 0.37373 0.6217 0.83145 0.0
C3269 C 0.35167 0.61255 0.84699 0.0
C3270 C 0.37181 0.63859 0.807 0.0
C3271 C 0.39504 0.64871 0.79059 0.0
C3272 C 0.42378 0.67512 0.79354 0.0
C3273 C 0.44604 0.68372 0.77855 0.0
C3274 C 0.43953 0.6664 0.76025 0.0
C3275 C 0.41068 0.64058 0.75681 0.0
C3276 C 0.38849 0.63168 0.77197 0.0
C3277 C 0.32555 0.71337 0.81283 0.0
C3278 C 0.30044 0.70996 0.79374 0.0
C3279 C 0.33302 0.68921 0.82191 0.0
C3280 C 0.31574 0.66222 0.81131 0.0
C3281 C 0.28908 0.65766 0.79395 0.0
C3282 C 0.28117 0.6815 0.78536 0.0
C3283 C 0.32895 0.64154 0.81569 0.0
C3284 C 0.34863 0.64778 0.79895 0.0
C3285 C 0.32953 0.62298 0.83946 0.0
C3286 C 0.3101 0.61813 0.85765 0.0
C3287 C 0.27769 0.60298 0.85183 0.0
C3288 C 0.25933 0.59904 0.86867 0.0
C3289 C 0.27315 0.61079 0.89116 0.0
C3290 C 0.3054 0.62645 0.89685 0.0
C3291 C 0.32388 0.63001 0.88024 0.0
H3292 H 0.25887 0.6079 0.90409 0.0
H3293 H 0.4568 0.67299 0.74872 0.0
H3294 H 0.08072 0.50436 0.58016 0.0
H3295 H 0.1113 0.52981 0.61664 0.0
H3296 H 0.10424 0.61281 0.57624 0.0
H3297 H 0.0751 0.58799 0.53994 0.0
H3298 H 0.1613 0.62656 0.59924 0.0
H3299 H 0.05888 0.56627 0.61772 0.0
H3300 H 1.00868 0.52078 0.62504 0.0
H3301 H 0.05425 0.47871 0.68731 0.0
H3302 H 0.10487 0.52375 0.68007 0.0
H3303 H 0.18227 0.70287 0.69646 0.0
H3304 H 0.15377 0.6697 0.66433 0.0
H3305 H 0.19627 0.61049 0.7035 0.0
H3306 H 0.2252 0.64408 0.73556 0.0
H3307 H 0.12495 0.58297 0.68263 0.0
H3308 H 0.22952 0.65609 0.66151 0.0
H3309 H 0.2728 0.70822 0.65189 0.0
H3310 H 0.21289 0.73385 0.59084 0.0
H3311 H 0.16912 0.68213 0.6004 0.0
C3312 C 0.08748 0.52853 0.57863 0.0
C3313 C 0.07766 0.54486 0.55662 0.0
C3314 C 0.10399 0.54274 0.59965 0.0
C3315 C 0.1102 0.57322 0.59885 0.0
C3316 C 0.10017 0.58946 0.57694 0.0
C3317 C 0.08381 0.57531 0.55609 0.0
C3318 C 0.12683 0.5885 0.62082 0.0
C3319 C 0.15339 0.61705 0.6175 0.0
C3320 C 0.11604 0.57602 0.6444 0.0
C3321 C 0.0858 0.54818 0.64805 0.0
C3322 C 0.05831 0.54709 0.63269 0.0
C3323 C 0.02973 0.52144 0.6369 0.0
C3324 C 0.02828 0.4968 0.65656 0.0
C3325 C 0.05542 0.49776 0.67202 0.0
C3326 C 0.08406 0.52333 0.66785 0.0
C3327 C 0.18469 0.68223 0.69848 0.0
C3328 C 0.20533 0.67542 0.71825 0.0
C3329 C 0.16877 0.66362 0.68016 0.0
C3330 C 0.1735 0.63818 0.68164 0.0
C3331 C 0.19261 0.63021 0.70229 0.0
C3332 C 0.20876 0.64903 0.72057 0.0
C3333 C 0.15932 0.62075 0.66096 0.0
C3334 C 0.13316 0.59197 0.6645 0.0
C3335 C 0.1695 0.63382 0.63717 0.0
C3336 C 0.19588 0.66524 0.63191 0.0
C3337 C 0.22543 0.67295 0.64628 0.0
C3338 C 0.2501 0.70242 0.64076 0.0
C3339 C 0.24558 0.72434 0.62079 0.0
C3340 C 0.21637 0.71687 0.60632 0.0
C3341 C 0.19163 0.68748 0.61179 0.0
H3342 H 0.26471 0.7471 0.61653 0.0
H3343 H 1.00613 0.47703 0.65987 0.0
H3344 H 0.35636 0.34512 0.72481 0.0
H3345 H 0.37628 0.37329 0.68456 0.0
H3346 H 0.30111 0.30037 0.64674 0.0
H3347 H 0.28139 0.27273 0.68634 0.0
H3348 H 0.36484 0.31735 0.64094 0.0
H3349 H 0.29554 0.3719 0.61254 0.0
H3350 H 0.27457 0.40487 0.61693 0.0
H3351 H 0.36198 0.46083 0.65778 0.0
H3352 H 0.38369 0.42878 0.65263 0.0
H3353 H 0.41977 0.40225 0.52161 0.0
H3354 H 0.38547 0.36857 0.55295 0.0
H3355 H 0.42707 0.44322 0.59513 0.0
H3356 H 0.45889 0.47719 0.56321 0.0
H3357 H 0.37053 0.4185 0.59417 0.0
H3358 H 0.44364 0.37351 0.6144 0.0
H3359 H 0.46844 0.3476 0.60365 0.0
H3360 H 0.37927 0.27665 0.57873 0.0
H3361 H 0.35389 0.30163 0.58994 0.0
C3362 C 0.34361 0.33578 0.70769 0.0
C3363 C 0.31642 0.3075 0.70847 0.0
C3364 C 0.355 0.35171 0.68482 0.0
C3365 C 0.33985 0.33894 0.66274 0.0
C3366 C 0.31276 0.31079 0.66351 0.0
C3367 C 0.30116 0.29526 0.68615 0.0
C3368 C 0.3535 0.35373 0.63925 0.0
C3369 C 0.36607 0.33945 0.63058 0.0
C3370 C 0.35493 0.38219 0.62571 0.0
C3371 C 0.34087 0.39774 0.63271 0.0
C3372 C 0.31 0.39091 0.62286 0.0
C3373 C 0.29819 0.40971 0.6251 0.0
C3374 C 0.31692 0.43492 0.63768 0.0
C3375 C 0.34749 0.44128 0.64811 0.0
C3376 C 0.35958 0.4229 0.64545 0.0
C3377 C 0.42138 0.4116 0.53729 0.0
C3378 C 0.44276 0.44245 0.53986 0.0
C3379 C 0.40197 0.3921 0.5555 0.0
C3380 C 0.40409 0.40309 0.57676 0.0
C3381 C 0.42491 0.43401 0.57896 0.0
C3382 C 0.44342 0.45351 0.56059 0.0
C3383 C 0.38427 0.38361 0.59666 0.0
C3384 C 0.36967 0.39649 0.60442 0.0
C3385 C 0.38183 0.3543 0.60958 0.0
C3386 C 0.39698 0.33951 0.60273 0.0
C3387 C 0.42939 0.35244 0.60653 0.0
C3388 C 0.44353 0.33794 0.6004 0.0
C3389 C 0.42549 0.31076 0.59027 0.0
C3390 C 0.39322 0.29777 0.5865 0.0
C3391 C 0.37894 0.31195 0.59287 0.0
H3392 H 0.43654 0.29967 0.58546 0.0
H3393 H 0.30772 0.44947 0.63939 0.0
H3394 H 0.17184 0.66068 0.21535 0.0
H3395 H 0.14172 0.63861 0.17684 0.0
H3396 H 0.21554 0.70788 0.13485 0.0
H3397 H 0.2458 0.7292 0.17297 0.0
H3398 H 0.13931 0.69038 0.11794 0.0
H3399 H 0.22371 0.6535 0.12835 0.0
H3400 H 0.25391 0.62802 0.1575 0.0
H3401 H 0.17302 0.55996 0.19127 0.0
H3402 H 0.14232 0.58475 0.16188 0.0
H3403 H 0.10422 0.60636 0.00938 0.0
H3404 H 0.13785 0.64233 0.03903 0.0
H3405 H 0.07096 0.59018 0.09053 0.0
H3406 H 0.03774 0.55496 0.06154 0.0
H3407 H 0.14801 0.60484 0.09912 0.0
H3408 H 0.06246 0.63403 0.09027 0.0
H3409 H 0.02651 0.65193 0.06043 0.0
H3410 H 0.10297 0.72991 0.02672 0.0
H3411 H 0.13922 0.71183 0.05605 0.0
C3412 C 0.18134 0.67104 0.19779 0.0
C3413 C 0.21082 0.69642 0.19675 0.0
C3414 C 0.16432 0.65861 0.17605 0.0
C3415 C 0.17669 0.67206 0.15339 0.0
C3416 C 0.20592 0.69753 0.15235 0.0
C3417 C 0.22305 0.70952 0.17402 0.0
C3418 C 0.15966 0.65919 0.13063 0.0
C3419 C 0.14129 0.67183 0.11367 0.0
C3420 C 0.16257 0.63529 0.12529 0.0
C3421 C 0.18096 0.62091 0.14316 0.0
C3422 C 0.21251 0.63312 0.14205 0.0
C3423 C 0.22964 0.61879 0.15854 0.0
C3424 C 0.21545 0.59252 0.17635 0.0
C3425 C 0.18401 0.58036 0.17755 0.0
C3426 C 0.16672 0.59445 0.16094 0.0
C3427 C 0.09683 0.60275 0.02695 0.0
C3428 C 0.06893 0.57737 0.03348 0.0
C3429 C 0.11571 0.62344 0.0436 0.0
C3430 C 0.10642 0.61865 0.06661 0.0
C3431 C 0.07796 0.59436 0.07251 0.0
C3432 C 0.05911 0.57417 0.0559 0.0
C3433 C 0.12754 0.6359 0.08639 0.0
C3434 C 0.14669 0.624 0.10298 0.0
C3435 C 0.12463 0.65984 0.09169 0.0
C3436 C 0.10334 0.67151 0.07503 0.0
C3437 C 0.0715 0.65488 0.07638 0.0
C3438 C 0.05109 0.66501 0.05956 0.0
C3439 C 0.06243 0.692 0.04163 0.0
C3440 C 0.09422 0.70896 0.04056 0.0
C3441 C 0.11468 0.69875 0.05722 0.0
H3442 H 0.0466 0.69981 0.02859 0.0
H3443 H 0.22879 0.58153 0.18916 0.0
H3444 H 0.70425 0.34194 0.60953 0.0
H3445 H 0.66348 0.34999 0.57797 0.0
H3446 H 0.63149 0.36246 0.63689 0.0
H3447 H 0.6684 0.3498 0.66794 0.0
H3448 H 0.59089 0.35536 0.60402 0.0
H3449 H 0.70737 0.42451 0.59545 0.0
H3450 H 0.75504 0.43619 0.58098 0.0
H3451 H 0.70232 0.40867 0.51012 0.0
H3452 H 0.65449 0.39669 0.52433 0.0
H3453 H 0.56786 0.47325 0.57654 0.0
H3454 H 0.60954 0.46033 0.59205 0.0
H3455 H 0.6077 0.45189 0.51676 0.0
H3456 H 0.57335 0.47549 0.50028 0.0
H3457 H 0.65381 0.44704 0.54533 0.0
H3458 H 0.54122 0.39575 0.55644 0.0
H3459 H 0.50217 0.39903 0.5729 0.0
H3460 H 0.55703 0.4034 0.64643 0.0
H3461 H 0.59639 0.40034 0.63037 0.0
C3462 C 0.68719 0.34477 0.61551 0.0
C3463 C 0.68958 0.34626 0.64071 0.0
C3464 C 0.66433 0.34991 0.59756 0.0
C3465 C 0.64582 0.35913 0.60461 0.0
C3466 C 0.6456 0.35601 0.63045 0.0
C3467 C 0.66701 0.34903 0.6484 0.0
C3468 C 0.63207 0.37809 0.58636 0.0
C3469 C 0.60476 0.37531 0.59117 0.0
C3470 C 0.64917 0.40377 0.56867 0.0
C3471 C 0.67748 0.40887 0.56117 0.0
C3472 C 0.70604 0.42058 0.57695 0.0
C3473 C 0.73303 0.42734 0.56876 0.0
C3474 C 0.73167 0.42292 0.54473 0.0
C3475 C 0.70333 0.41181 0.52881 0.0
C3476 C 0.6763 0.40491 0.53694 0.0
C3477 C 0.57886 0.4729 0.5629 0.0
C3478 C 0.56687 0.47511 0.53729 0.0
C3479 C 0.60209 0.46409 0.57188 0.0
C3480 C 0.60897 0.4523 0.55583 0.0
C3481 C 0.60146 0.45965 0.52968 0.0
C3482 C 0.58128 0.47246 0.52036 0.0
C3483 C 0.61572 0.42607 0.56601 0.0
C3484 C 0.64027 0.42701 0.55834 0.0
C3485 C 0.59708 0.39954 0.58219 0.0
C3486 C 0.57162 0.39775 0.59221 0.0
C3487 C 0.54465 0.39692 0.57618 0.0
C3488 C 0.52261 0.39899 0.58541 0.0
C3489 C 0.52716 0.40149 0.61067 0.0
C3490 C 0.55352 0.40146 0.62688 0.0
C3491 C 0.57563 0.39944 0.61776 0.0
H3492 H 0.51022 0.40338 0.61769 0.0
H3493 H 0.7526 0.42827 0.53839 0.0
H3494 H 0.83549 0.6833 0.16042 0.0
H3495 H 0.84557 0.66096 0.13178 0.0
H3496 H 0.87581 0.60646 0.19593 0.0
H3497 H 0.86452 0.62717 0.22424 0.0
H3498 H 0.91982 0.64602 0.1604 0.0
H3499 H 0.81221 0.57141 0.16419 0.0
H3500 H 0.75597 0.5537 0.15754 0.0
H3501 H 0.75661 0.58676 0.07788 0.0
H3502 H 0.81304 0.60543 0.08415 0.0
H3503 H 0.93969 0.53537 0.12268 0.0
H3504 H 0.92891 0.56722 0.14077 0.0
H3505 H 0.87782 0.58776 0.06908 0.0
H3506 H 0.88792 0.55487 0.05131 0.0
H3507 H 0.84515 0.57266 0.1029 0.0
H3508 H 0.95076 0.64418 0.09712 0.0
H3509 H 1.00727 0.66402 0.10226 0.0
H3510 H 1.01149 0.64025 0.18281 0.0
H3511 H 0.95495 0.61974 0.17816 0.0
C3512 C 0.84349 0.66595 0.16835 0.0
C3513 C 0.84971 0.6575 0.19473 0.0
C3514 C 0.84947 0.65337 0.15197 0.0
C3515 C 0.86191 0.63234 0.16173 0.0
C3516 C 0.86661 0.62289 0.18792 0.0
C3517 C 0.86019 0.63489 0.20412 0.0
C3518 C 0.87186 0.62113 0.14529 0.0
C3519 C 0.90351 0.6299 0.14784 0.0
C3520 C 0.85074 0.60091 0.12828 0.0
C3521 C 0.81698 0.59041 0.12471 0.0
C3522 C 0.80049 0.57545 0.14532 0.0
C3523 C 0.76853 0.56511 0.1416 0.0
C3524 C 0.75275 0.56925 0.11732 0.0
C3525 C 0.76888 0.58371 0.0967 0.0
C3526 C 0.80085 0.59423 0.10033 0.0
C3527 C 0.92698 0.54749 0.11063 0.0
C3528 C 0.91515 0.54317 0.08551 0.0
C3529 C 0.92079 0.56578 0.12095 0.0
C3530 C 0.90278 0.58045 0.10633 0.0
C3531 C 0.89183 0.57691 0.08086 0.0
C3532 C 0.89788 0.55839 0.07059 0.0
C3533 C 0.8933 0.59708 0.11824 0.0
C3534 C 0.86171 0.58926 0.11499 0.0
C3535 C 0.91457 0.61853 0.13441 0.0
C3536 C 0.94852 0.63017 0.13726 0.0
C3537 C 0.96368 0.64287 0.11592 0.0
C3538 C 0.99574 0.6543 0.11875 0.0
C3539 C 1.01295 0.65335 0.14284 0.0
C3540 C 0.99813 0.64094 0.16416 0.0
C3541 C 0.96608 0.62942 0.16143 0.0
H3542 H 0.03778 0.66227 0.14499 0.0
H3543 H 0.728 0.56114 0.11448 0.0
H3544 H 0.96366 0.60755 0.5735 0.0
H3545 H 0.94543 0.62202 0.60236 0.0
H3546 H 0.85104 0.56101 0.57529 0.0
H3547 H 0.86907 0.54675 0.54666 0.0
H3548 H 0.8638 0.62246 0.56832 0.0
H3549 H 0.88104 0.54537 0.63459 0.0
H3550 H 0.91163 0.5208 0.66418 0.0
H3551 H 0.96967 0.60422 0.69524 0.0
H3552 H 0.93972 0.62946 0.66553 0.0
H3553 H 0.76274 0.62055 0.63101 0.0
H3554 H 0.7946 0.60958 0.61409 0.0
H3555 H 0.87441 0.66043 0.66508 0.0
H3556 H 0.84108 0.66835 0.68474 0.0
H3557 H 0.87863 0.61289 0.6612 0.0
H3558 H 0.86078 0.68963 0.59647 0.0
H3559 H 0.83061 0.71474 0.56691 0.0
H3560 H 0.77566 0.6337 0.53231 0.0
H3561 H 0.80535 0.60808 0.56178 0.0
C3562 C 0.93911 0.59648 0.57443 0.0
C3563 C 0.91773 0.57612 0.55779 0.0
C3564 C 0.92871 0.6048 0.59087 0.0
C3565 C 0.89681 0.59272 0.59094 0.0
C3566 C 0.87573 0.57072 0.57558 0.0
C3567 C 0.88604 0.56253 0.55923 0.0
C3568 C 0.88477 0.60585 0.60387 0.0
C3569 C 0.86692 0.62016 0.58867 0.0
C3570 C 0.88998 0.60429 0.63032 0.0
C3571 C 0.9085 0.58945 0.64757 0.0
C3572 C 0.90064 0.55863 0.64746 0.0
C3573 C 0.91777 0.54454 0.66432 0.0
C3574 C 0.94268 0.56099 0.6815 0.0
C3575 C 0.95046 0.59155 0.68187 0.0
C3576 C 0.93343 0.60576 0.66501 0.0
C3577 C 0.78692 0.6291 0.63918 0.0
C3578 C 0.79887 0.64481 0.65981 0.0
C3579 C 0.80549 0.62339 0.62889 0.0
C3580 C 0.83736 0.63487 0.63758 0.0
C3581 C 0.84994 0.65143 0.65777 0.0
C3582 C 0.83089 0.65631 0.66883 0.0
C3583 C 0.85656 0.62849 0.62561 0.0
C3584 C 0.8759 0.61568 0.64085 0.0
C3585 C 0.85307 0.63164 0.59903 0.0
C3586 C 0.83519 0.64697 0.58136 0.0
C3587 C 0.84216 0.67716 0.58262 0.0
C3588 C 0.82516 0.69147 0.56587 0.0
C3589 C 0.8012 0.67581 0.54777 0.0
C3590 C 0.79423 0.64582 0.54633 0.0
C3591 C 0.81118 0.63143 0.56299 0.0
H3592 H 0.78805 0.68693 0.53483 0.0
H3593 H 0.95587 0.55 0.69458 0.0
H3594 H 0.50617 0.57152 0.42775 0.0
H3595 H 0.46739 0.58987 0.40976 0.0
H3596 H 0.40743 0.51855 0.46244 0.0
H3597 H 0.44429 0.49792 0.47809 0.0
H3598 H 0.37611 0.53479 0.42242 0.0
H3599 H 0.46606 0.59395 0.48207 0.0
H3600 H 0.52251 0.62196 0.4959 0.0
H3601 H 0.53426 0.68006 0.42309 0.0
H3602 H 0.47785 0.6535 0.40914 0.0
H3603 H 0.29856 0.61443 0.37925 0.0
H3604 H 0.32916 0.60297 0.41893 0.0
H3605 H 0.41163 0.6567 0.38329 0.0
H3606 H 0.3816 0.67009 0.34479 0.0
H3607 H 0.42838 0.64582 0.43034 0.0
H3608 H 0.34982 0.57151 0.36742 0.0
H3609 H 0.29679 0.53821 0.34821 0.0
H3610 H 0.26616 0.50701 0.42038 0.0
H3611 H 0.31924 0.53901 0.44013 0.0
C3612 C 0.48375 0.55865 0.43409 0.0
C3613 C 0.47794 0.53386 0.45426 0.0
C3614 C 0.46209 0.56944 0.42436 0.0
C3615 C 0.43599 0.55666 0.43619 0.0
C3616 C 0.42807 0.52904 0.4537 0.0
C3617 C 0.44897 0.5172 0.46245 0.0
C3618 C 0.41896 0.57389 0.43256 0.0
C3619 C 0.38726 0.55888 0.42468 0.0
C3620 C 0.43399 0.60512 0.43588 0.0
C3621 C 0.46777 0.62178 0.44461 0.0
C3622 C 0.48068 0.6128 0.46907 0.0
C3623 C 0.51263 0.62836 0.47691 0.0
C3624 C 0.53193 0.65239 0.4603 0.0
C3625 C 0.51929 0.66139 0.43593 0.0
C3626 C 0.48731 0.64637 0.42814 0.0
C3627 C 0.32351 0.6251 0.38066 0.0
C3628 C 0.33803 0.64183 0.35931 0.0
C3629 C 0.34091 0.6187 0.40316 0.0
C3630 C 0.37204 0.6274 0.40336 0.0
C3631 C 0.38739 0.64913 0.38337 0.0
C3632 C 0.37025 0.65648 0.36124 0.0
C3633 C 0.38547 0.60721 0.41875 0.0
C3634 C 0.41678 0.62135 0.42926 0.0
C3635 C 0.3703 0.57521 0.41721 0.0
C3636 C 0.33805 0.55843 0.40503 0.0
C3637 C 0.33161 0.55784 0.37907 0.0
C3638 C 0.30167 0.53899 0.36817 0.0
C3639 C 0.278 0.5211 0.38296 0.0
C3640 C 0.28438 0.52133 0.40885 0.0
C3641 C 0.31439 0.53965 0.41994 0.0
H3642 H 0.25481 0.50676 0.37442 0.0
H3643 H 0.55666 0.66415 0.46637 0.0
H3644 H 0.12648 0.31704 0.7936 0.0
H3645 H 0.11521 0.33772 0.82216 0.0
H3646 H 0.21172 0.37965 0.85403 0.0
H3647 H 0.22333 0.35928 0.82487 0.0
H3648 H 0.16349 0.35093 0.89048 0.0
H3649 H 0.19482 0.42612 0.81503 0.0
H3650 H 0.19379 0.44227 0.76897 0.0
H3651 H 0.09661 0.41482 0.75899 0.0
H3652 H 0.097 0.39806 0.80503 0.0
H3653 H 0.16259 0.46811 0.93851 0.0
H3654 H 0.17259 0.43572 0.92029 0.0
H3655 H 0.08563 0.41309 0.87038 0.0
H3656 H 0.07573 0.44573 0.88869 0.0
H3657 H 0.13028 0.43121 0.8441 0.0
H3658 H 0.09808 0.35716 0.91872 0.0
H3659 H 0.09707 0.33815 0.96441 0.0
H3660 H 0.19338 0.3614 0.97613 0.0
H3661 H 0.19501 0.38078 0.93049 0.0
C3662 C 0.14529 0.33017 0.807 0.0
C3663 C 0.17587 0.33676 0.80675 0.0
C3664 C 0.13878 0.34196 0.82337 0.0
C3665 C 0.16259 0.36049 0.84014 0.0
C3666 C 0.19292 0.36532 0.84132 0.0
C3667 C 0.19953 0.35359 0.82471 0.0
C3668 C 0.15586 0.37724 0.85415 0.0
C3669 C 0.15673 0.36885 0.88044 0.0
C3670 C 0.14614 0.4 0.84104 0.0
C3671 C 0.1459 0.41065 0.81343 0.0
C3672 C 0.1732 0.42336 0.80299 0.0
C3673 C 0.17274 0.43264 0.7769 0.0
C3674 C 0.14514 0.42953 0.76105 0.0
C3675 C 0.11797 0.4172 0.77129 0.0
C3676 C 0.1183 0.40785 0.79738 0.0
C3677 C 0.14526 0.45556 0.92409 0.0
C3678 C 0.11829 0.45931 0.91512 0.0
C3679 C 0.15097 0.437 0.91364 0.0
C3680 C 0.12991 0.42177 0.89385 0.0
C3681 C 0.10233 0.42454 0.88557 0.0
C3682 C 0.09649 0.44294 0.8962 0.0
C3683 C 0.13776 0.40498 0.88064 0.0
C3684 C 0.13709 0.41338 0.85433 0.0
C3685 C 0.14752 0.38217 0.89379 0.0
C3686 C 0.14672 0.3706 0.92122 0.0
C3687 C 0.11909 0.3584 0.93107 0.0
C3688 C 0.11839 0.34751 0.95694 0.0
C3689 C 0.14516 0.34861 0.97317 0.0
C3690 C 0.17267 0.36056 0.96354 0.0
C3691 C 0.17348 0.37144 0.93766 0.0
H3692 H 0.14457 0.34016 0.99319 0.0
H3693 H 0.14482 0.43672 0.74085 0.0
H3694 H 0.2644 0.37411 0.36927 0.0
H3695 H 0.23304 0.3855 0.38667 0.0
H3696 H 0.15552 0.34548 0.32972 0.0
H3697 H 0.18842 0.33648 0.31038 0.0
H3698 H 0.15629 0.39498 0.33657 0.0
H3699 H 0.15981 0.30796 0.39582 0.0
H3700 H 0.18296 0.27557 0.42466 0.0
H3701 H 0.2403 0.34819 0.4683 0.0
H3702 H 0.21776 0.3811 0.43957 0.0
H3703 H 0.0708 0.40044 0.42525 0.0
H3704 H 0.08704 0.38531 0.39536 0.0
H3705 H 0.18261 0.43913 0.42506 0.0
H3706 H 0.16659 0.45415 0.45462 0.0
H3707 H 0.16177 0.37408 0.42952 0.0
H3708 H 0.15888 0.46176 0.36787 0.0
H3709 H 0.13477 0.49305 0.33868 0.0
H3710 H 0.07329 0.41659 0.29974 0.0
H3711 H 0.09668 0.38466 0.32902 0.0
C3712 C 0.24077 0.36781 0.36013 0.0
C3713 C 0.22932 0.35476 0.33806 0.0
C3714 C 0.2225 0.37389 0.37051 0.0
C3715 C 0.19144 0.36578 0.36007 0.0
C3716 C 0.17934 0.35187 0.33835 0.0
C3717 C 0.19808 0.34637 0.32745 0.0
C3718 C 0.17269 0.37296 0.37186 0.0
C3719 C 0.15691 0.38974 0.35687 0.0
C3720 C 0.17341 0.36655 0.39839 0.0
C3721 C 0.18719 0.34696 0.41552 0.0
C3722 C 0.1775 0.31705 0.41149 0.0
C3723 C 0.19048 0.2986 0.42783 0.0
C3724 C 0.21311 0.30982 0.44828 0.0
C3725 C 0.22278 0.33951 0.45246 0.0
C3726 C 0.20987 0.35804 0.4362 0.0
C3727 C 0.09525 0.40984 0.42472 0.0
C3728 C 0.11747 0.42836 0.44235 0.0
C3729 C 0.10451 0.40115 0.40767 0.0
C3730 C 0.13609 0.41101 0.40797 0.0
C3731 C 0.15815 0.43121 0.42442 0.0
C3732 C 0.14898 0.4398 0.44133 0.0
C3733 C 0.14655 0.39703 0.39439 0.0
C3734 C 0.16066 0.3788 0.40917 0.0
C3735 C 0.14388 0.40186 0.3678 0.0
C3736 C 0.12911 0.42066 0.35092 0.0
C3737 C 0.13985 0.45144 0.35338 0.0
C3738 C 0.12641 0.46934 0.33673 0.0
C3739 C 0.1024 0.45676 0.31745 0.0
C3740 C 0.09179 0.42626 0.31475 0.0
C3741 C 0.1051 0.40826 0.33138 0.0
H3742 H 0.0921 0.4707 0.30453 0.0
H3743 H 0.22312 0.29549 0.46092 0.0
loop_
_geom_bond_atom_site_label_1
_geom_bond_atom_site_label_2
_geom_bond_distance
_geom_bond_site_symmetry_2
_ccdc_geom_bond_type
Tb0 N31 2.660 . S
Tb0 N38 2.600 . S
Tb0 O44 2.546 . S
Tb0 O45 2.610 1_656 S
Tb0 O47 2.320 1_665 S
Tb0 O48 2.552 1_656 S
Tb0 O49 2.391 1_655 S
Tb0 O51 2.362 1_565 S
Tb0 O52 2.421 1_556 S
Tb0 C64 2.833 . S
C1 C4 1.432 . S
C1 C5 1.414 . S
C1 N8 1.359 . S
C2 C4 1.417 . S
C2 C6 1.432 . S
C2 C14 1.410 1_545 S
C3 C5 1.444 . S
C3 C6 1.317 . S
C3 H26 0.929 . S
C4 C1 1.432 . S
C4 C2 1.417 . S
C4 N12 1.360 . S
C5 C1 1.414 . S
C5 C3 1.444 . S
C5 C10 1.385 . S
C6 C2 1.432 . S
C6 C3 1.317 . S
C6 H18 0.930 . S
C7 C9 1.392 . S
C7 C10 1.370 . S
C7 H19 0.931 . S
N8 C1 1.359 . S
N8 C9 1.327 . S
N8 Tb11 2.600 . S
C9 C7 1.392 . S
C9 N8 1.327 . S
C9 H16 0.930 . S
C10 C5 1.385 . S
C10 C7 1.370 . S
C10 H29 0.930 . S
Tb11 N8 2.600 . S
Tb11 N12 2.660 . S
Tb11 O45 2.362 1_545 S
Tb11 O46 2.421 1_554 S
Tb11 O50 2.546 . S
Tb11 O51 2.610 1_454 S
Tb11 O53 2.320 1_445 S
Tb11 O54 2.552 1_454 S
Tb11 O55 2.409 1_455 S
Tb11 C75 2.833 . S
N12 C4 1.360 . S
N12 Tb11 2.660 . S
N12 C13 1.305 1_545 S
C13 N12 1.305 1_565 S
C13 C15 1.407 . S
C13 H20 0.930 . S
C14 C2 1.410 1_565 S
C14 C15 1.345 . S
C14 H22 0.930 . S
C15 C13 1.407 . S
C15 C14 1.345 . S
C15 H17 0.930 . S
H16 C9 0.930 . S
H17 C15 0.930 . S
H18 C6 0.930 . S
H19 C7 0.931 . S
H20 C13 0.930 . S
H21 C35 0.930 . S
H22 C14 0.930 . S
H23 C41 0.930 . S
H24 C32 0.930 . S
H25 C39 0.931 . S
H26 C3 0.929 . S
H27 C33 0.930 . S
H28 C66 0.930 . S
H29 C10 0.930 . S
H30 C65 0.929 . S
N31 Tb0 2.660 . S
N31 C32 1.305 1_565 S
N31 C36 1.360 . S
C32 H24 0.930 . S
C32 N31 1.305 1_545 S
C32 C35 1.407 . S
C33 H27 0.930 . S
C33 C34 1.410 1_545 S
C33 C35 1.345 . S
C34 C33 1.410 1_565 S
C34 C36 1.417 . S
C34 C66 1.432 . S
C35 H21 0.930 . S
C35 C32 1.407 . S
C35 C33 1.345 . S
C36 N31 1.360 . S
C36 C34 1.417 . S
C36 C40 1.432 . S
H37 C42 0.930 . S
N38 Tb0 2.600 . S
N38 C40 1.359 . S
N38 C41 1.327 . S
C39 H25 0.931 . S
C39 C41 1.392 . S
C39 C42 1.370 . S
C40 C36 1.432 . S
C40 N38 1.359 . S
C40 C43 1.414 . S
C41 H23 0.930 . S
C41 N38 1.327 . S
C41 C39 1.392 . S
C42 H37 0.930 . S
C42 C39 1.370 . S
C42 C43 1.385 . S
C43 C40 1.414 . S
C43 C42 1.385 . S
C43 C65 1.444 . S
O44 Tb0 2.546 . S
O44 C64 1.251 . S
O45 Tb0 2.610 1_454 S
O45 Tb11 2.362 1_565 S
O45 C56 1.283 . S
O46 Tb11 2.421 1_556 S
O46 C63 1.262 . S
O47 Tb0 2.320 1_445 S
O47 C63 1.260 . S
O48 Tb0 2.552 1_454 S
O48 C56 1.243 . S
O49 Tb0 2.391 1_455 S
O49 C64 1.256 1_455 S
O50 Tb11 2.546 . S
O50 C75 1.251 . S
O51 Tb0 2.362 1_545 S
O51 Tb11 2.610 1_656 S
O51 C67 1.283 . S
O52 Tb0 2.421 1_554 S
O52 C74 1.262 . S
O53 Tb11 2.320 1_665 S
O53 C74 1.260 . S
O54 Tb11 2.552 1_656 S
O54 C67 1.243 . S
O55 Tb11 2.409 1_655 S
O55 C75 1.256 1_655 S
C56 O45 1.283 . S
C56 O48 1.243 . S
C57 C59 1.382 1_655 S
C57 C61 1.393 . S
C57 C64 1.500 . S
C58 C59 1.400 . S
C58 C60 1.384 . S
C59 C57 1.382 1_455 S
C59 C58 1.400 . S
C59 H76 0.930 . S
C60 C58 1.384 . S
C60 C62 1.392 1_455 S
C60 H77 0.931 . S
C61 C57 1.393 . S
C61 C62 1.401 . S
C61 H78 0.930 . S
C62 C60 1.392 1_655 S
C62 C61 1.401 . S
C62 H79 0.930 . S
C63 O46 1.262 . S
C63 O47 1.260 . S
C64 Tb0 2.833 . S
C64 O44 1.251 . S
C64 O49 1.256 1_655 S
C64 C57 1.500 . S
C65 H30 0.929 . S
C65 C43 1.444 . S
C65 C66 1.317 . S
C66 H28 0.930 . S
C66 C34 1.432 . S
C66 C65 1.317 . S
C67 O51 1.283 . S
C67 O54 1.243 . S
C68 C69 1.382 1_455 S
C68 C72 1.393 . S
C68 C75 1.500 . S
C69 C68 1.382 1_655 S
C69 C70 1.400 . S
C69 H80 0.930 . S
C70 C69 1.400 . S
C70 C71 1.384 . S
C71 C70 1.384 . S
C71 C73 1.392 1_655 S
C71 H81 0.931 . S
C72 C68 1.393 . S
C72 C73 1.401 . S
C72 H82 0.930 . S
C73 C71 1.392 1_455 S
C73 C72 1.401 . S
C73 H83 0.930 . S
C74 O52 1.262 . S
C74 O53 1.260 . S
C75 Tb11 2.833 . S
C75 O50 1.251 . S
C75 O55 1.256 1_455 S
C75 C68 1.500 . S
H76 C59 0.930 . S
H77 C60 0.931 . S
H78 C61 0.930 . S
H79 C62 0.930 . S
H80 C69 0.930 . S
H81 C71 0.931 . S
H82 C72 0.930 . S
H83 C73 0.930 . S
Tb84 N115 2.660 . S
Tb84 N122 2.600 . S
Tb84 O128 2.546 . S
Tb84 O129 2.610 . S
Tb84 O131 2.320 . S
Tb84 O132 2.552 . S
Tb84 O133 2.413 . S
Tb84 O135 2.362 . S
Tb84 O136 2.421 . S
Tb84 C148 2.833 . S
C85 C88 1.432 . S
C85 C89 1.414 . S
C85 N92 1.359 . S
C86 C88 1.417 . S
C86 C90 1.432 . S
C86 C98 1.410 . S
C87 C89 1.444 . S
C87 C90 1.317 . S
C87 H110 0.929 . S
C88 C85 1.432 . S
C88 C86 1.417 . S
C88 N96 1.360 . S
C89 C85 1.414 . S
C89 C87 1.444 . S
C89 C94 1.385 . S
C90 C86 1.432 . S
C90 C87 1.317 . S
C90 H102 0.930 . S
C91 C93 1.392 . S
C91 C94 1.370 . S
C91 H103 0.931 . S
N92 C85 1.359 . S
N92 C93 1.327 . S
N92 Tb95 2.600 . S
C93 C91 1.392 . S
C93 N92 1.327 . S
C93 H100 0.930 . S
C94 C89 1.385 . S
C94 C91 1.370 . S
C94 H113 0.930 . S
Tb95 N92 2.600 . S
Tb95 N96 2.660 . S
Tb95 O129 2.362 . S
Tb95 O130 2.421 . S
Tb95 O134 2.546 . S
Tb95 O135 2.610 . S
Tb95 O137 2.320 . S
Tb95 O138 2.552 . S
Tb95 O139 2.413 . S
Tb95 C159 2.833 . S
N96 C88 1.360 . S
N96 Tb95 2.660 . S
N96 C97 1.305 . S
C97 N96 1.305 . S
C97 C99 1.407 . S
C97 H104 0.930 . S
C98 C86 1.410 . S
C98 C99 1.345 . S
C98 H106 0.930 . S
C99 C97 1.407 . S
C99 C98 1.345 . S
C99 H101 0.930 . S
H100 C93 0.930 . S
H101 C99 0.930 . S
H102 C90 0.930 . S
H103 C91 0.931 . S
H104 C97 0.930 . S
H105 C119 0.930 . S
H106 C98 0.930 . S
H107 C125 0.930 . S
H108 C116 0.930 . S
H109 C123 0.931 . S
H110 C87 0.929 . S
H111 C117 0.930 . S
H112 C150 0.930 . S
H113 C94 0.930 . S
H114 C149 0.929 . S
N115 Tb84 2.660 . S
N115 C116 1.305 . S
N115 C120 1.360 . S
C116 H108 0.930 . S
C116 N115 1.305 . S
C116 C119 1.407 . S
C117 H111 0.930 . S
C117 C118 1.410 . S
C117 C119 1.345 . S
C118 C117 1.410 . S
C118 C120 1.417 . S
C118 C150 1.432 . S
C119 H105 0.930 . S
C119 C116 1.407 . S
C119 C117 1.345 . S
C120 N115 1.360 . S
C120 C118 1.417 . S
C120 C124 1.432 . S
H121 C126 0.930 . S
N122 Tb84 2.600 . S
N122 C124 1.359 . S
N122 C125 1.327 . S
C123 H109 0.931 . S
C123 C125 1.392 . S
C123 C126 1.370 . S
C124 C120 1.432 . S
C124 N122 1.359 . S
C124 C127 1.414 . S
C125 H107 0.930 . S
C125 N122 1.327 . S
C125 C123 1.392 . S
C126 H121 0.930 . S
C126 C123 1.370 . S
C126 C127 1.385 . S
C127 C124 1.414 . S
C127 C126 1.385 . S
C127 C149 1.444 . S
O128 Tb84 2.546 . S
O128 C148 1.251 . S
O129 Tb84 2.610 . S
O129 Tb95 2.362 . S
O129 C140 1.283 . S
O130 Tb95 2.421 . S
O130 C147 1.262 . S
O131 Tb84 2.320 . S
O131 C147 1.260 . S
O132 Tb84 2.552 . S
O132 C140 1.243 . S
O133 Tb84 2.413 . S
O133 C148 1.256 . S
O134 Tb95 2.546 . S
O134 C159 1.251 . S
O135 Tb84 2.362 . S
O135 Tb95 2.610 . S
O135 C151 1.283 . S
O136 Tb84 2.421 . S
O136 C158 1.262 . S
O137 Tb95 2.320 . S
O137 C158 1.260 . S
O138 Tb95 2.552 . S
O138 C151 1.243 . S
O139 Tb95 2.413 . S
O139 C159 1.256 . S
C140 O129 1.283 . S
C140 O132 1.243 . S
C141 C143 1.382 . S
C141 C145 1.393 . S
C141 C148 1.500 . S
C142 C143 1.400 . S
C142 C144 1.384 . S
C143 C141 1.382 . S
C143 C142 1.400 . S
C143 H160 0.930 . S
C144 C142 1.384 . S
C144 C146 1.392 . S
C144 H161 0.931 . S
C145 C141 1.393 . S
C145 C146 1.401 . S
C145 H162 0.930 . S
C146 C144 1.392 . S
C146 C145 1.401 . S
C146 H163 0.930 . S
C147 O130 1.262 . S
C147 O131 1.260 . S
C148 Tb84 2.833 . S
C148 O128 1.251 . S
C148 O133 1.256 . S
C148 C141 1.500 . S
C149 H114 0.929 . S
C149 C127 1.444 . S
C149 C150 1.317 . S
C150 H112 0.930 . S
C150 C118 1.432 . S
C150 C149 1.317 . S
C151 O135 1.283 . S
C151 O138 1.243 . S
C152 C153 1.382 . S
C152 C156 1.393 . S
C152 C159 1.500 . S
C153 C152 1.382 . S
C153 C154 1.400 . S
C153 H164 0.930 . S
C154 C153 1.400 . S
C154 C155 1.384 . S
C155 C154 1.384 . S
C155 C157 1.392 . S
C155 H165 0.931 . S
C156 C152 1.393 . S
C156 C157 1.401 . S
C156 H166 0.930 . S
C157 C155 1.392 . S
C157 C156 1.401 . S
C157 H167 0.930 . S
C158 O136 1.262 . S
C158 O137 1.260 . S
C159 Tb95 2.833 . S
C159 O134 1.251 . S
C159 O139 1.256 . S
C159 C152 1.500 . S
H160 C143 0.930 . S
H161 C144 0.931 . S
H162 C145 0.930 . S
H163 C146 0.930 . S
H164 C153 0.930 . S
H165 C155 0.931 . S
H166 C156 0.930 . S
H167 C157 0.930 . S
Tb168 N199 2.660 . S
Tb168 N206 2.600 . S
Tb168 O212 2.546 . S
Tb168 O213 2.610 1_565 S
Tb168 O215 2.320 1_565 S
Tb168 O216 2.552 1_565 S
Tb168 O217 2.413 1_565 S
Tb168 O219 2.362 . S
Tb168 O220 2.421 . S
Tb168 C232 2.833 . S
C169 C172 1.432 . S
C169 C173 1.414 . S
C169 N176 1.359 . S
C170 C172 1.417 . S
C170 C174 1.432 . S
C170 C182 1.410 . S
C171 C173 1.444 . S
C171 C174 1.317 . S
C171 H194 0.929 . S
C172 C169 1.432 . S
C172 C170 1.417 . S
C172 N180 1.360 . S
C173 C169 1.414 . S
C173 C171 1.444 . S
C173 C178 1.385 . S
C174 C170 1.432 . S
C174 C171 1.317 . S
C174 H186 0.930 . S
C175 C177 1.392 . S
C175 C178 1.370 . S
C175 H187 0.931 . S
N176 C169 1.359 . S
N176 C177 1.327 . S
N176 Tb179 2.600 . S
C177 C175 1.392 . S
C177 N176 1.327 . S
C177 H184 0.930 . S
C178 C173 1.385 . S
C178 C175 1.370 . S
C178 H197 0.930 . S
Tb179 N176 2.600 . S
Tb179 N180 2.660 . S
Tb179 O213 2.362 . S
Tb179 O214 2.421 . S
Tb179 O218 2.546 . S
Tb179 O219 2.610 1_545 S
Tb179 O221 2.320 1_545 S
Tb179 O222 2.552 1_545 S
Tb179 O223 2.421 . S
Tb179 C243 2.833 . S
N180 C172 1.360 . S
N180 Tb179 2.660 . S
N180 C181 1.305 . S
C181 N180 1.305 . S
C181 C183 1.407 . S
C181 H188 0.930 . S
C182 C170 1.410 . S
C182 C183 1.345 . S
C182 H190 0.930 . S
C183 C181 1.407 . S
C183 C182 1.345 . S
C183 H185 0.930 . S
H184 C177 0.930 . S
H185 C183 0.930 . S
H186 C174 0.930 . S
H187 C175 0.931 . S
H188 C181 0.930 . S
H189 C203 0.930 . S
H190 C182 0.930 . S
H191 C209 0.930 . S
H192 C200 0.930 . S
H193 C207 0.931 . S
H194 C171 0.929 . S
H195 C201 0.930 . S
H196 C234 0.930 . S
H197 C178 0.930 . S
H198 C233 0.929 . S
N199 Tb168 2.660 . S
N199 C200 1.305 . S
N199 C204 1.360 . S
C200 H192 0.930 . S
C200 N199 1.305 . S
C200 C203 1.407 . S
C201 H195 0.930 . S
C201 C202 1.410 . S
C201 C203 1.345 . S
C202 C201 1.410 . S
C202 C204 1.417 . S
C202 C234 1.432 . S
C203 H189 0.930 . S
C203 C200 1.407 . S
C203 C201 1.345 . S
C204 N199 1.360 . S
C204 C202 1.417 . S
C204 C208 1.432 . S
H205 C210 0.930 . S
N206 Tb168 2.600 . S
N206 C208 1.359 . S
N206 C209 1.327 . S
C207 H193 0.931 . S
C207 C209 1.392 . S
C207 C210 1.370 . S
C208 C204 1.432 . S
C208 N206 1.359 . S
C208 C211 1.414 . S
C209 H191 0.930 . S
C209 N206 1.327 . S
C209 C207 1.392 . S
C210 H205 0.930 . S
C210 C207 1.370 . S
C210 C211 1.385 . S
C211 C208 1.414 . S
C211 C210 1.385 . S
C211 C233 1.444 . S
O212 Tb168 2.546 . S
O212 C232 1.251 . S
O213 Tb168 2.610 1_545 S
O213 Tb179 2.362 . S
O213 C224 1.283 . S
O214 Tb179 2.421 . S
O214 C231 1.262 . S
O215 Tb168 2.320 1_545 S
O215 C231 1.260 . S
O216 Tb168 2.552 1_545 S
O216 C224 1.243 . S
O217 Tb168 2.413 1_545 S
O217 C232 1.256 1_545 S
O218 Tb179 2.546 . S
O218 C243 1.251 . S
O219 Tb168 2.362 . S
O219 Tb179 2.610 1_565 S
O219 C235 1.283 . S
O220 Tb168 2.421 . S
O220 C242 1.262 . S
O221 Tb179 2.320 1_565 S
O221 C242 1.260 . S
O222 Tb179 2.552 1_565 S
O222 C235 1.243 . S
O223 Tb179 2.421 . S
O223 C243 1.256 . S
C224 O213 1.283 . S
C224 O216 1.243 . S
C225 C227 1.382 1_565 S
C225 C229 1.393 . S
C225 C232 1.500 . S
C226 C227 1.400 . S
C226 C228 1.384 . S
C227 C225 1.382 1_545 S
C227 C226 1.400 . S
C227 H244 0.930 . S
C228 C226 1.384 . S
C228 C230 1.392 1_545 S
C228 H245 0.931 . S
C229 C225 1.393 . S
C229 C230 1.401 . S
C229 H246 0.930 . S
C230 C228 1.392 1_565 S
C230 C229 1.401 . S
C230 H247 0.930 . S
C231 O214 1.262 . S
C231 O215 1.260 . S
C232 Tb168 2.833 . S
C232 O212 1.251 . S
C232 O217 1.256 1_565 S
C232 C225 1.500 . S
C233 H198 0.929 . S
C233 C211 1.444 . S
C233 C234 1.317 . S
C234 H196 0.930 . S
C234 C202 1.432 . S
C234 C233 1.317 . S
C235 O219 1.283 . S
C235 O222 1.243 . S
C236 C237 1.382 1_545 S
C236 C240 1.393 . S
C236 C243 1.500 . S
C237 C236 1.382 1_565 S
C237 C238 1.400 . S
C237 H248 0.930 . S
C238 C237 1.400 . S
C238 C239 1.384 . S
C239 C238 1.384 . S
C239 C241 1.392 1_565 S
C239 H249 0.931 . S
C240 C236 1.393 . S
C240 C241 1.401 . S
C240 H250 0.930 . S
C241 C239 1.392 1_545 S
C241 C240 1.401 . S
C241 H251 0.930 . S
C242 O220 1.262 . S
C242 O221 1.260 . S
C243 Tb179 2.833 . S
C243 O218 1.251 . S
C243 O223 1.256 . S
C243 C236 1.500 . S
H244 C227 0.930 . S
H245 C228 0.931 . S
H246 C229 0.930 . S
H247 C230 0.930 . S
H248 C237 0.930 . S
H249 C239 0.931 . S
H250 C240 0.930 . S
H251 C241 0.930 . S
Tb252 N283 2.660 . S
Tb252 N290 2.600 . S
Tb252 O296 2.546 . S
Tb252 O297 2.610 . S
Tb252 O299 2.320 . S
Tb252 O300 2.552 . S
Tb252 O301 2.413 . S
Tb252 O303 2.362 . S
Tb252 O304 2.421 . S
Tb252 C316 2.833 . S
C253 C256 1.432 . S
C253 C257 1.414 . S
C253 N260 1.359 . S
C254 C256 1.417 . S
C254 C258 1.432 . S
C254 C266 1.410 . S
C255 C257 1.444 . S
C255 C258 1.317 . S
C255 H278 0.929 . S
C256 C253 1.432 . S
C256 C254 1.417 . S
C256 N264 1.360 . S
C257 C253 1.414 . S
C257 C255 1.444 . S
C257 C262 1.385 . S
C258 C254 1.432 . S
C258 C255 1.317 . S
C258 H270 0.930 . S
C259 C261 1.392 . S
C259 C262 1.370 . S
C259 H271 0.931 . S
N260 C253 1.359 . S
N260 C261 1.327 . S
N260 Tb263 2.600 . S
C261 C259 1.392 . S
C261 N260 1.327 . S
C261 H268 0.930 . S
C262 C257 1.385 . S
C262 C259 1.370 . S
C262 H281 0.930 . S
Tb263 N260 2.600 . S
Tb263 N264 2.660 . S
Tb263 O297 2.362 . S
Tb263 O298 2.421 . S
Tb263 O302 2.546 . S
Tb263 O303 2.610 . S
Tb263 O305 2.320 . S
Tb263 O306 2.552 . S
Tb263 O307 2.413 . S
Tb263 C327 2.833 . S
N264 C256 1.360 . S
N264 Tb263 2.660 . S
N264 C265 1.305 . S
C265 N264 1.305 . S
C265 C267 1.407 . S
C265 H272 0.930 . S
C266 C254 1.410 . S
C266 C267 1.345 . S
C266 H274 0.930 . S
C267 C265 1.407 . S
C267 C266 1.345 . S
C267 H269 0.930 . S
H268 C261 0.930 . S
H269 C267 0.930 . S
H270 C258 0.930 . S
H271 C259 0.931 . S
H272 C265 0.930 . S
H273 C287 0.930 . S
H274 C266 0.930 . S
H275 C293 0.930 . S
H276 C284 0.930 . S
H277 C291 0.931 . S
H278 C255 0.929 . S
H279 C285 0.930 . S
H280 C318 0.930 . S
H281 C262 0.930 . S
H282 C317 0.929 . S
N283 Tb252 2.660 . S
N283 C284 1.305 . S
N283 C288 1.360 . S
C284 H276 0.930 . S
C284 N283 1.305 . S
C284 C287 1.407 . S
C285 H279 0.930 . S
C285 C286 1.410 . S
C285 C287 1.345 . S
C286 C285 1.410 . S
C286 C288 1.417 . S
C286 C318 1.432 . S
C287 H273 0.930 . S
C287 C284 1.407 . S
C287 C285 1.345 . S
C288 N283 1.360 . S
C288 C286 1.417 . S
C288 C292 1.432 . S
H289 C294 0.930 . S
N290 Tb252 2.600 . S
N290 C292 1.359 . S
N290 C293 1.327 . S
C291 H277 0.931 . S
C291 C293 1.392 . S
C291 C294 1.370 . S
C292 C288 1.432 . S
C292 N290 1.359 . S
C292 C295 1.414 . S
C293 H275 0.930 . S
C293 N290 1.327 . S
C293 C291 1.392 . S
C294 H289 0.930 . S
C294 C291 1.370 . S
C294 C295 1.385 . S
C295 C292 1.414 . S
C295 C294 1.385 . S
C295 C317 1.444 . S
O296 Tb252 2.546 . S
O296 C316 1.251 . S
O297 Tb252 2.610 . S
O297 Tb263 2.362 . S
O297 C308 1.283 . S
O298 Tb263 2.421 . S
O298 C315 1.262 . S
O299 Tb252 2.320 . S
O299 C315 1.260 . S
O300 Tb252 2.552 . S
O300 C308 1.243 . S
O301 Tb252 2.413 . S
O301 C316 1.256 . S
O302 Tb263 2.546 . S
O302 C327 1.251 . S
O303 Tb252 2.362 . S
O303 Tb263 2.610 . S
O303 C319 1.283 . S
O304 Tb252 2.421 . S
O304 C326 1.262 . S
O305 Tb263 2.320 . S
O305 C326 1.260 . S
O306 Tb263 2.552 . S
O306 C319 1.243 . S
O307 Tb263 2.413 . S
O307 C327 1.256 . S
C308 O297 1.283 . S
C308 O300 1.243 . S
C309 C311 1.382 . S
C309 C313 1.393 . S
C309 C316 1.500 . S
C310 C311 1.400 . S
C310 C312 1.384 . S
C311 C309 1.382 . S
C311 C310 1.400 . S
C311 H328 0.930 . S
C312 C310 1.384 . S
C312 C314 1.392 . S
C312 H329 0.931 . S
C313 C309 1.393 . S
C313 C314 1.401 . S
C313 H330 0.930 . S
C314 C312 1.392 . S
C314 C313 1.401 . S
C314 H331 0.930 . S
C315 O298 1.262 . S
C315 O299 1.260 . S
C316 Tb252 2.833 . S
C316 O296 1.251 . S
C316 O301 1.256 . S
C316 C309 1.500 . S
C317 H282 0.929 . S
C317 C295 1.444 . S
C317 C318 1.317 . S
C318 H280 0.930 . S
C318 C286 1.432 . S
C318 C317 1.317 . S
C319 O303 1.283 . S
C319 O306 1.243 . S
C320 C321 1.382 . S
C320 C324 1.393 . S
C320 C327 1.500 . S
C321 C320 1.382 . S
C321 C322 1.400 . S
C321 H332 0.930 . S
C322 C321 1.400 . S
C322 C323 1.384 . S
C323 C322 1.384 . S
C323 C325 1.392 . S
C323 H333 0.931 . S
C324 C320 1.393 . S
C324 C325 1.401 . S
C324 H334 0.930 . S
C325 C323 1.392 . S
C325 C324 1.401 . S
C325 H335 0.930 . S
C326 O304 1.262 . S
C326 O305 1.260 . S
C327 Tb263 2.833 . S
C327 O302 1.251 . S
C327 O307 1.256 . S
C327 C320 1.500 . S
H328 C311 0.930 . S
H329 C312 0.931 . S
H330 C313 0.930 . S
H331 C314 0.930 . S
H332 C321 0.930 . S
H333 C323 0.931 . S
H334 C324 0.930 . S
H335 C325 0.930 . S
Tb336 N367 2.660 1_565 S
Tb336 N374 2.600 . S
Tb336 O380 2.546 . S
Tb336 O381 2.610 1_455 S
Tb336 O383 2.320 1_565 S
Tb336 O384 2.552 1_455 S
Tb336 O385 2.413 . S
Tb336 O387 2.362 1_565 S
Tb336 O388 2.421 1_455 S
Tb336 C400 2.833 . S
C337 C340 1.432 1_545 S
C337 C341 1.414 . S
C337 N344 1.359 . S
C338 C340 1.417 . S
C338 C342 1.432 . S
C338 C350 1.410 . S
C339 C341 1.444 . S
C339 C342 1.317 1_545 S
C339 H362 0.929 . S
C340 C337 1.432 1_565 S
C340 C338 1.417 . S
C340 N348 1.360 . S
C341 C337 1.414 . S
C341 C339 1.444 . S
C341 C346 1.385 . S
C342 C338 1.432 . S
C342 C339 1.317 1_565 S
C342 H354 0.930 . S
C343 C345 1.392 . S
C343 C346 1.370 . S
C343 H355 0.931 . S
N344 C337 1.359 . S
N344 C345 1.327 . S
N344 Tb347 2.600 . S
C345 C343 1.392 . S
C345 N344 1.327 . S
C345 H352 0.943 . S
C346 C341 1.385 . S
C346 C343 1.370 . S
C346 H365 0.930 . S
Tb347 N344 2.600 . S
Tb347 N348 2.660 1_545 S
Tb347 O381 2.362 1_545 S
Tb347 O382 2.421 1_655 S
Tb347 O386 2.546 . S
Tb347 O387 2.610 1_655 S
Tb347 O389 2.320 1_545 S
Tb347 O390 2.552 1_655 S
Tb347 O391 2.413 . S
Tb347 C411 2.833 . S
N348 C340 1.360 . S
N348 Tb347 2.660 1_565 S
N348 C349 1.305 . S
C349 N348 1.305 . S
C349 C351 1.407 . S
C349 H356 0.930 . S
C350 C338 1.410 . S
C350 C351 1.345 . S
C350 H358 0.930 . S
C351 C349 1.407 . S
C351 C350 1.345 . S
C351 H353 0.930 . S
H352 C345 0.943 . S
H353 C351 0.930 . S
H354 C342 0.930 . S
H355 C343 0.931 . S
H356 C349 0.930 . S
H357 C371 0.930 . S
H358 C350 0.930 . S
H359 C377 0.966 . S
H360 C368 0.930 . S
H361 C375 0.931 . S
H362 C339 0.929 . S
H363 C369 0.930 . S
H364 C402 0.930 . S
H365 C346 0.930 . S
H366 C401 0.929 . S
N367 Tb336 2.660 1_545 S
N367 C368 1.305 . S
N367 C372 1.360 . S
C368 H360 0.930 . S
C368 N367 1.305 . S
C368 C371 1.407 . S
C369 H363 0.930 . S
C369 C370 1.410 . S
C369 C371 1.345 . S
C370 C369 1.410 . S
C370 C372 1.417 . S
C370 C402 1.432 . S
C371 H357 0.930 . S
C371 C368 1.407 . S
C371 C369 1.345 . S
C372 N367 1.360 . S
C372 C370 1.417 . S
C372 C376 1.432 1_545 S
H373 C378 0.930 . S
N374 Tb336 2.600 . S
N374 C376 1.359 . S
N374 C377 1.327 . S
C375 H361 0.931 . S
C375 C377 1.392 . S
C375 C378 1.370 . S
C376 C372 1.432 1_565 S
C376 N374 1.359 . S
C376 C379 1.414 . S
C377 H359 0.966 . S
C377 N374 1.327 . S
C377 C375 1.392 . S
C378 H373 0.930 . S
C378 C375 1.370 . S
C378 C379 1.385 . S
C379 C376 1.414 . S
C379 C378 1.385 . S
C379 C401 1.444 . S
O380 Tb336 2.546 . S
O380 C400 1.251 . S
O381 Tb336 2.610 1_655 S
O381 Tb347 2.362 1_565 S
O381 C392 1.283 . S
O382 Tb347 2.421 1_455 S
O382 C399 1.262 . S
O383 Tb336 2.320 1_545 S
O383 C399 1.260 . S
O384 Tb336 2.552 1_655 S
O384 C392 1.243 . S
O385 Tb336 2.413 . S
O385 C400 1.256 . S
O386 Tb347 2.546 . S
O386 C411 1.251 . S
O387 Tb336 2.362 1_545 S
O387 Tb347 2.610 1_455 S
O387 C403 1.283 . S
O388 Tb336 2.421 1_655 S
O388 C410 1.262 . S
O389 Tb347 2.320 1_565 S
O389 C410 1.260 . S
O390 Tb347 2.552 1_455 S
O390 C403 1.243 . S
O391 Tb347 2.413 . S
O391 C411 1.256 . S
C392 O381 1.283 . S
C392 O384 1.243 . S
C393 C395 1.382 . S
C393 C397 1.393 . S
C393 C400 1.500 . S
C394 C395 1.400 . S
C394 C396 1.384 . S
C395 C393 1.382 . S
C395 C394 1.400 . S
C395 H412 0.930 . S
C396 C394 1.384 . S
C396 C398 1.392 . S
C396 H413 0.931 . S
C397 C393 1.393 . S
C397 C398 1.401 . S
C397 H414 0.930 . S
C398 C396 1.392 . S
C398 C397 1.401 . S
C398 H415 0.930 . S
C399 O382 1.262 . S
C399 O383 1.260 . S
C400 Tb336 2.833 . S
C400 O380 1.251 . S
C400 O385 1.256 . S
C400 C393 1.500 . S
C401 H366 0.929 . S
C401 C379 1.444 . S
C401 C402 1.317 1_565 S
C402 H364 0.930 . S
C402 C370 1.432 . S
C402 C401 1.317 1_545 S
C403 O387 1.283 . S
C403 O390 1.243 . S
C404 C405 1.382 . S
C404 C408 1.393 . S
C404 C411 1.500 . S
C405 C404 1.382 . S
C405 C406 1.400 . S
C405 H416 0.930 . S
C406 C405 1.400 . S
C406 C407 1.384 . S
C407 C406 1.384 . S
C407 C409 1.392 . S
C407 H417 0.931 . S
C408 C404 1.393 . S
C408 C409 1.401 . S
C408 H418 0.930 . S
C409 C407 1.392 . S
C409 C408 1.401 . S
C409 H419 0.930 . S
C410 O388 1.262 . S
C410 O389 1.260 . S
C411 Tb347 2.833 . S
C411 O386 1.251 . S
C411 O391 1.256 . S
C411 C404 1.500 . S
H412 C395 0.930 . S
H413 C396 0.931 . S
H414 C397 0.930 . S
H415 C398 0.930 . S
H416 C405 0.930 . S
H417 C407 0.931 . S
H418 C408 0.930 . S
H419 C409 0.930 . S
Tb420 N451 2.660 . S
Tb420 N458 2.600 . S
Tb420 O464 2.546 . S
Tb420 O465 2.610 . S
Tb420 O467 2.320 . S
Tb420 O468 2.552 . S
Tb420 O469 2.413 . S
Tb420 O471 2.362 . S
Tb420 O472 2.421 . S
Tb420 C484 2.833 . S
C421 C424 1.432 . S
C421 C425 1.414 . S
C421 N428 1.359 . S
C422 C424 1.417 . S
C422 C426 1.432 . S
C422 C434 1.410 . S
C423 C425 1.444 . S
C423 C426 1.317 . S
C423 H446 0.929 . S
C424 C421 1.432 . S
C424 C422 1.417 . S
C424 N432 1.360 . S
C425 C421 1.414 . S
C425 C423 1.444 . S
C425 C430 1.385 . S
C426 C422 1.432 . S
C426 C423 1.317 . S
C426 H438 0.930 . S
C427 C429 1.392 . S
C427 C430 1.370 . S
C427 H439 0.931 . S
N428 C421 1.359 . S
N428 C429 1.327 . S
N428 Tb431 2.600 . S
C429 C427 1.392 . S
C429 N428 1.327 . S
C429 H436 0.930 . S
C430 C425 1.385 . S
C430 C427 1.370 . S
C430 H449 0.930 . S
Tb431 N428 2.600 . S
Tb431 N432 2.660 . S
Tb431 O465 2.362 . S
Tb431 O466 2.421 . S
Tb431 O470 2.546 . S
Tb431 O471 2.610 . S
Tb431 O473 2.320 . S
Tb431 O474 2.552 . S
Tb431 O475 2.413 . S
Tb431 C495 2.833 . S
N432 C424 1.360 . S
N432 Tb431 2.660 . S
N432 C433 1.305 . S
C433 N432 1.305 . S
C433 C435 1.407 . S
C433 H440 0.930 . S
C434 C422 1.410 . S
C434 C435 1.345 . S
C434 H442 0.930 . S
C435 C433 1.407 . S
C435 C434 1.345 . S
C435 H437 0.930 . S
H436 C429 0.930 . S
H437 C435 0.930 . S
H438 C426 0.930 . S
H439 C427 0.931 . S
H440 C433 0.930 . S
H441 C455 0.930 . S
H442 C434 0.930 . S
H443 C461 0.930 . S
H444 C452 0.930 . S
H445 C459 0.931 . S
H446 C423 0.929 . S
H447 C453 0.930 . S
H448 C486 0.930 . S
H449 C430 0.930 . S
H450 C485 0.929 . S
N451 Tb420 2.660 . S
N451 C452 1.305 . S
N451 C456 1.360 . S
C452 H444 0.930 . S
C452 N451 1.305 . S
C452 C455 1.407 . S
C453 H447 0.930 . S
C453 C454 1.410 . S
C453 C455 1.345 . S
C454 C453 1.410 . S
C454 C456 1.417 . S
C454 C486 1.432 . S
C455 H441 0.930 . S
C455 C452 1.407 . S
C455 C453 1.345 . S
C456 N451 1.360 . S
C456 C454 1.417 . S
C456 C460 1.432 . S
H457 C462 0.930 . S
N458 Tb420 2.600 . S
N458 C460 1.359 . S
N458 C461 1.327 . S
C459 H445 0.931 . S
C459 C461 1.392 . S
C459 C462 1.370 . S
C460 C456 1.432 . S
C460 N458 1.359 . S
C460 C463 1.414 . S
C461 H443 0.930 . S
C461 N458 1.327 . S
C461 C459 1.392 . S
C462 H457 0.930 . S
C462 C459 1.370 . S
C462 C463 1.385 . S
C463 C460 1.414 . S
C463 C462 1.385 . S
C463 C485 1.444 . S
O464 Tb420 2.546 . S
O464 C484 1.251 . S
O465 Tb420 2.610 . S
O465 Tb431 2.362 . S
O465 C476 1.283 . S
O466 Tb431 2.421 . S
O466 C483 1.262 . S
O467 Tb420 2.320 . S
O467 C483 1.260 . S
O468 Tb420 2.552 . S
O468 C476 1.243 . S
O469 Tb420 2.413 . S
O469 C484 1.256 . S
O470 Tb431 2.546 . S
O470 C495 1.251 . S
O471 Tb420 2.362 . S
O471 Tb431 2.610 . S
O471 C487 1.283 . S
O472 Tb420 2.421 . S
O472 C494 1.262 . S
O473 Tb431 2.320 . S
O473 C494 1.260 . S
O474 Tb431 2.552 . S
O474 C487 1.243 . S
O475 Tb431 2.413 . S
O475 C495 1.256 . S
C476 O465 1.283 . S
C476 O468 1.243 . S
C477 C479 1.382 . S
C477 C481 1.393 . S
C477 C484 1.500 . S
C478 C479 1.400 . S
C478 C480 1.384 . S
C479 C477 1.382 . S
C479 C478 1.400 . S
C479 H496 0.930 . S
C480 C478 1.384 . S
C480 C482 1.392 . S
C480 H497 0.931 . S
C481 C477 1.393 . S
C481 C482 1.401 . S
C481 H498 0.930 . S
C482 C480 1.392 . S
C482 C481 1.401 . S
C482 H499 0.930 . S
C483 O466 1.262 . S
C483 O467 1.260 . S
C484 Tb420 2.833 . S
C484 O464 1.251 . S
C484 O469 1.256 . S
C484 C477 1.500 . S
C485 H450 0.929 . S
C485 C463 1.444 . S
C485 C486 1.317 . S
C486 H448 0.930 . S
C486 C454 1.432 . S
C486 C485 1.317 . S
C487 O471 1.283 . S
C487 O474 1.243 . S
C488 C489 1.382 . S
C488 C492 1.393 . S
C488 C495 1.500 . S
C489 C488 1.382 . S
C489 C490 1.400 . S
C489 H500 0.930 . S
C490 C489 1.400 . S
C490 C491 1.384 . S
C491 C490 1.384 . S
C491 C493 1.392 . S
C491 H501 0.931 . S
C492 C488 1.393 . S
C492 C493 1.401 . S
C492 H502 0.930 . S
C493 C491 1.392 . S
C493 C492 1.401 . S
C493 H503 0.930 . S
C494 O472 1.262 . S
C494 O473 1.260 . S
C495 Tb431 2.833 . S
C495 O470 1.251 . S
C495 O475 1.256 . S
C495 C488 1.500 . S
H496 C479 0.930 . S
H497 C480 0.931 . S
H498 C481 0.930 . S
H499 C482 0.930 . S
H500 C489 0.930 . S
H501 C491 0.931 . S
H502 C492 0.930 . S
H503 C493 0.930 . S
Tb504 N535 2.660 . S
Tb504 N542 2.600 . S
Tb504 O548 2.546 . S
Tb504 O549 2.610 1_564 S
Tb504 O551 2.320 1_554 S
Tb504 O552 2.552 1_564 S
Tb504 O553 2.413 1_554 S
Tb504 O555 2.362 . S
Tb504 O556 2.421 1_565 S
Tb504 C568 2.833 1_554 S
C505 C508 1.432 . S
C505 C509 1.414 . S
C505 N512 1.359 . S
C506 C508 1.417 . S
C506 C510 1.432 . S
C506 C518 1.410 . S
C507 C509 1.444 . S
C507 C510 1.317 . S
C507 H530 0.929 . S
C508 C505 1.432 . S
C508 C506 1.417 . S
C508 N516 1.360 . S
C509 C505 1.414 . S
C509 C507 1.444 . S
C509 C514 1.385 . S
C510 C506 1.432 . S
C510 C507 1.317 . S
C510 H522 0.930 . S
C511 C513 1.392 . S
C511 C514 1.370 . S
C511 H523 0.931 . S
N512 C505 1.359 . S
N512 C513 1.327 . S
N512 Tb515 2.600 . S
C513 C511 1.392 . S
C513 N512 1.327 . S
C513 H520 0.930 . S
C514 C509 1.385 . S
C514 C511 1.370 . S
C514 H533 0.930 . S
Tb515 N512 2.600 . S
Tb515 N516 2.660 . S
Tb515 O549 2.362 . S
Tb515 O550 2.421 1_545 S
Tb515 O554 2.546 . S
Tb515 O555 2.610 1_546 S
Tb515 O557 2.320 1_556 S
Tb515 O558 2.552 1_546 S
Tb515 O559 2.413 1_556 S
Tb515 C579 2.833 1_556 S
N516 C508 1.360 . S
N516 Tb515 2.660 . S
N516 C517 1.305 . S
C517 N516 1.305 . S
C517 C519 1.407 . S
C517 H524 0.961 . S
C518 C506 1.410 . S
C518 C519 1.345 . S
C518 H526 0.930 . S
C519 C517 1.407 . S
C519 C518 1.345 . S
C519 H521 0.930 . S
H520 C513 0.930 . S
H521 C519 0.930 . S
H522 C510 0.930 . S
H523 C511 0.931 . S
H524 C517 0.961 . S
H525 C539 0.930 . S
H526 C518 0.930 . S
H527 C545 0.930 . S
H528 C536 0.930 . S
H529 C543 0.931 . S
H530 C507 0.929 . S
H531 C537 0.930 . S
H532 C570 0.930 . S
H533 C514 0.930 . S
H534 C569 0.929 . S
N535 Tb504 2.660 . S
N535 C536 1.305 . S
N535 C540 1.360 . S
C536 H528 0.930 . S
C536 N535 1.305 . S
C536 C539 1.407 . S
C537 H531 0.930 . S
C537 C538 1.410 . S
C537 C539 1.345 . S
C538 C537 1.410 . S
C538 C540 1.417 . S
C538 C570 1.432 . S
C539 H525 0.930 . S
C539 C536 1.407 . S
C539 C537 1.345 . S
C540 N535 1.360 . S
C540 C538 1.417 . S
C540 C544 1.432 . S
H541 C546 0.930 . S
N542 Tb504 2.600 . S
N542 C544 1.359 . S
N542 C545 1.327 . S
C543 H529 0.931 . S
C543 C545 1.392 . S
C543 C546 1.370 . S
C544 C540 1.432 . S
C544 N542 1.359 . S
C544 C547 1.414 . S
C545 H527 0.930 . S
C545 N542 1.327 . S
C545 C543 1.392 . S
C546 H541 0.930 . S
C546 C543 1.370 . S
C546 C547 1.385 . S
C547 C544 1.414 . S
C547 C546 1.385 . S
C547 C569 1.444 . S
O548 Tb504 2.546 . S
O548 C568 1.251 1_554 S
O549 Tb504 2.610 1_546 S
O549 Tb515 2.362 . S
O549 C560 1.283 . S
O550 Tb515 2.421 1_565 S
O550 C567 1.262 . S
O551 Tb504 2.320 1_556 S
O551 C567 1.260 . S
O552 Tb504 2.552 1_546 S
O552 C560 1.243 . S
O553 Tb504 2.413 1_556 S
O553 C568 1.256 . S
O554 Tb515 2.546 . S
O554 C579 1.251 1_556 S
O555 Tb504 2.362 . S
O555 Tb515 2.610 1_564 S
O555 C571 1.283 . S
O556 Tb504 2.421 1_545 S
O556 C578 1.262 . S
O557 Tb515 2.320 1_554 S
O557 C578 1.260 . S
O558 Tb515 2.552 1_564 S
O558 C571 1.243 . S
O559 Tb515 2.413 1_554 S
O559 C579 1.256 . S
C560 O549 1.283 . S
C560 O552 1.243 . S
C561 C563 1.382 . S
C561 C565 1.393 1_556 S
C561 C568 1.500 . S
C562 C563 1.400 . S
C562 C564 1.384 . S
C563 C561 1.382 . S
C563 C562 1.400 . S
C563 H580 0.930 . S
C564 C562 1.384 . S
C564 C566 1.392 . S
C564 H581 0.931 . S
C565 C561 1.393 1_554 S
C565 C566 1.401 1_554 S
C565 H582 0.930 . S
C566 C564 1.392 . S
C566 C565 1.401 1_556 S
C566 H583 0.930 1_556 S
C567 O550 1.262 . S
C567 O551 1.260 . S
C568 Tb504 2.833 1_556 S
C568 O548 1.251 1_556 S
C568 O553 1.256 . S
C568 C561 1.500 . S
C569 H534 0.929 . S
C569 C547 1.444 . S
C569 C570 1.317 . S
C570 H532 0.930 . S
C570 C538 1.432 . S
C570 C569 1.317 . S
C571 O555 1.283 . S
C571 O558 1.243 . S
C572 C573 1.382 . S
C572 C576 1.393 1_554 S
C572 C579 1.500 . S
C573 C572 1.382 . S
C573 C574 1.400 . S
C573 H584 0.930 . S
C574 C573 1.400 . S
C574 C575 1.384 . S
C575 C574 1.384 . S
C575 C577 1.392 . S
C575 H585 0.931 . S
C576 C572 1.393 1_556 S
C576 C577 1.401 1_556 S
C576 H586 0.930 . S
C577 C575 1.392 . S
C577 C576 1.401 1_554 S
C577 H587 0.930 1_554 S
C578 O556 1.262 . S
C578 O557 1.260 . S
C579 Tb515 2.833 1_554 S
C579 O554 1.251 1_554 S
C579 O559 1.256 . S
C579 C572 1.500 . S
H580 C563 0.930 . S
H581 C564 0.931 . S
H582 C565 0.930 . S
H583 C566 0.930 1_554 S
H584 C573 0.930 . S
H585 C575 0.931 . S
H586 C576 0.930 . S
H587 C577 0.930 1_556 S
Tb588 N619 2.660 . S
Tb588 N626 2.600 . S
Tb588 O632 2.546 . S
Tb588 O633 2.610 . S
Tb588 O635 2.320 . S
Tb588 O636 2.552 . S
Tb588 O637 2.413 . S
Tb588 O639 2.362 . S
Tb588 O640 2.421 . S
Tb588 C652 2.833 . S
C589 C592 1.432 . S
C589 C593 1.414 . S
C589 N596 1.359 . S
C590 C592 1.417 . S
C590 C594 1.432 . S
C590 C602 1.410 . S
C591 C593 1.444 . S
C591 C594 1.317 . S
C591 H614 0.929 . S
C592 C589 1.432 . S
C592 C590 1.417 . S
C592 N600 1.360 . S
C593 C589 1.414 . S
C593 C591 1.444 . S
C593 C598 1.385 . S
C594 C590 1.432 . S
C594 C591 1.317 . S
C594 H606 0.930 . S
C595 C597 1.392 . S
C595 C598 1.370 . S
C595 H607 0.931 . S
N596 C589 1.359 . S
N596 C597 1.327 . S
N596 Tb599 2.600 . S
C597 C595 1.392 . S
C597 N596 1.327 . S
C597 H604 0.930 . S
C598 C593 1.385 . S
C598 C595 1.370 . S
C598 H617 0.930 . S
Tb599 N596 2.600 . S
Tb599 N600 2.660 . S
Tb599 O633 2.362 . S
Tb599 O634 2.421 . S
Tb599 O638 2.546 . S
Tb599 O639 2.610 . S
Tb599 O641 2.320 . S
Tb599 O642 2.552 . S
Tb599 O643 2.413 . S
Tb599 C663 2.833 . S
N600 C592 1.360 . S
N600 Tb599 2.660 . S
N600 C601 1.305 . S
C601 N600 1.305 . S
C601 C603 1.407 . S
C601 H608 0.930 . S
C602 C590 1.410 . S
C602 C603 1.345 . S
C602 H610 0.930 . S
C603 C601 1.407 . S
C603 C602 1.345 . S
C603 H605 0.930 . S
H604 C597 0.930 . S
H605 C603 0.930 . S
H606 C594 0.930 . S
H607 C595 0.931 . S
H608 C601 0.930 . S
H609 C623 0.930 . S
H610 C602 0.930 . S
H611 C629 0.930 . S
H612 C620 0.930 . S
H613 C627 0.931 . S
H614 C591 0.929 . S
H615 C621 0.930 . S
H616 C654 0.930 . S
H617 C598 0.930 . S
H618 C653 0.929 . S
N619 Tb588 2.660 . S
N619 C620 1.305 . S
N619 C624 1.360 . S
C620 H612 0.930 . S
C620 N619 1.305 . S
C620 C623 1.407 . S
C621 H615 0.930 . S
C621 C622 1.410 . S
C621 C623 1.345 . S
C622 C621 1.410 . S
C622 C624 1.417 . S
C622 C654 1.432 . S
C623 H609 0.930 . S
C623 C620 1.407 . S
C623 C621 1.345 . S
C624 N619 1.360 . S
C624 C622 1.417 . S
C624 C628 1.432 . S
H625 C630 0.930 . S
N626 Tb588 2.600 . S
N626 C628 1.359 . S
N626 C629 1.327 . S
C627 H613 0.931 . S
C627 C629 1.392 . S
C627 C630 1.370 . S
C628 C624 1.432 . S
C628 N626 1.359 . S
C628 C631 1.414 . S
C629 H611 0.930 . S
C629 N626 1.327 . S
C629 C627 1.392 . S
C630 H625 0.930 . S
C630 C627 1.370 . S
C630 C631 1.385 . S
C631 C628 1.414 . S
C631 C630 1.385 . S
C631 C653 1.444 . S
O632 Tb588 2.546 . S
O632 C652 1.251 . S
O633 Tb588 2.610 . S
O633 Tb599 2.362 . S
O633 C644 1.283 . S
O634 Tb599 2.421 . S
O634 C651 1.262 . S
O635 Tb588 2.320 . S
O635 C651 1.260 . S
O636 Tb588 2.552 . S
O636 C644 1.243 . S
O637 Tb588 2.413 . S
O637 C652 1.256 . S
O638 Tb599 2.546 . S
O638 C663 1.251 . S
O639 Tb588 2.362 . S
O639 Tb599 2.610 . S
O639 C655 1.283 . S
O640 Tb588 2.421 . S
O640 C662 1.262 . S
O641 Tb599 2.320 . S
O641 C662 1.260 . S
O642 Tb599 2.552 . S
O642 C655 1.243 . S
O643 Tb599 2.413 . S
O643 C663 1.256 . S
C644 O633 1.283 . S
C644 O636 1.243 . S
C645 C647 1.382 . S
C645 C649 1.393 . S
C645 C652 1.500 . S
C646 C647 1.400 . S
C646 C648 1.384 . S
C647 C645 1.382 . S
C647 C646 1.400 . S
C647 H664 0.930 . S
C648 C646 1.384 . S
C648 C650 1.392 . S
C648 H665 0.931 . S
C649 C645 1.393 . S
C649 C650 1.401 . S
C649 H666 0.930 . S
C650 C648 1.392 . S
C650 C649 1.401 . S
C650 H667 0.930 . S
C651 O634 1.262 . S
C651 O635 1.260 . S
C652 Tb588 2.833 . S
C652 O632 1.251 . S
C652 O637 1.256 . S
C652 C645 1.500 . S
C653 H618 0.929 . S
C653 C631 1.444 . S
C653 C654 1.317 . S
C654 H616 0.930 . S
C654 C622 1.432 . S
C654 C653 1.317 . S
C655 O639 1.283 . S
C655 O642 1.243 . S
C656 C657 1.382 . S
C656 C660 1.393 . S
C656 C663 1.500 . S
C657 C656 1.382 . S
C657 C658 1.400 . S
C657 H668 0.930 . S
C658 C657 1.400 . S
C658 C659 1.384 . S
C659 C658 1.384 . S
C659 C661 1.392 . S
C659 H669 0.931 . S
C660 C656 1.393 . S
C660 C661 1.401 . S
C660 H670 0.930 . S
C661 C659 1.392 . S
C661 C660 1.401 . S
C661 H671 0.930 . S
C662 O640 1.262 . S
C662 O641 1.260 . S
C663 Tb599 2.833 . S
C663 O638 1.251 . S
C663 O643 1.256 . S
C663 C656 1.500 . S
H664 C647 0.930 . S
H665 C648 0.931 . S
H666 C649 0.930 . S
H667 C650 0.930 . S
H668 C657 0.930 . S
H669 C659 0.931 . S
H670 C660 0.930 . S
H671 C661 0.930 . S
Tb672 N703 2.660 1_554 S
Tb672 N710 2.600 1_554 S
Tb672 O716 2.546 . S
Tb672 O717 2.610 . S
Tb672 O719 2.320 . S
Tb672 O720 2.552 . S
Tb672 O721 2.413 . S
Tb672 O723 2.362 1_554 S
Tb672 O724 2.421 1_554 S
Tb672 C736 2.833 . S
C673 C676 1.432 . S
C673 C677 1.414 . S
C673 N680 1.359 . S
C674 C676 1.417 . S
C674 C678 1.432 . S
C674 C686 1.410 . S
C675 C677 1.444 . S
C675 C678 1.317 . S
C675 H698 0.929 . S
C676 C673 1.432 . S
C676 C674 1.417 . S
C676 N684 1.360 . S
C677 C673 1.414 . S
C677 C675 1.444 . S
C677 C682 1.385 . S
C678 C674 1.432 . S
C678 C675 1.317 . S
C678 H690 0.930 . S
C679 C681 1.392 . S
C679 C682 1.370 . S
C679 H691 0.931 . S
N680 C673 1.359 . S
N680 C681 1.327 . S
N680 Tb683 2.600 1_554 S
C681 C679 1.392 . S
C681 N680 1.327 . S
C681 H688 0.930 . S
C682 C677 1.385 . S
C682 C679 1.370 . S
C682 H701 0.930 . S
Tb683 N680 2.600 1_556 S
Tb683 N684 2.660 1_556 S
Tb683 O717 2.362 1_556 S
Tb683 O718 2.421 1_556 S
Tb683 O722 2.546 . S
Tb683 O723 2.610 . S
Tb683 O725 2.320 . S
Tb683 O726 2.552 . S
Tb683 O727 2.413 . S
Tb683 C747 2.833 . S
N684 C676 1.360 . S
N684 Tb683 2.660 1_554 S
N684 C685 1.292 1_554 S
C685 N684 1.292 1_556 S
C685 C687 1.396 1_556 S
C685 H692 0.956 . S
C686 C674 1.410 . S
C686 C687 1.345 . S
C686 H694 0.930 . S
C687 C685 1.396 1_554 S
C687 C686 1.345 . S
C687 H689 0.943 . S
H688 C681 0.930 . S
H689 C687 0.943 . S
H690 C678 0.930 . S
H691 C679 0.931 . S
H692 C685 0.956 . S
H693 C707 0.913 1_554 S
H694 C686 0.930 . S
H695 C713 0.930 . S
H696 C704 0.930 . S
H697 C711 0.931 . S
H698 C675 0.929 . S
H699 C705 0.930 . S
H700 C738 0.930 . S
H701 C682 0.930 . S
H702 C737 0.929 . S
N703 Tb672 2.660 1_556 S
N703 C704 1.305 1_556 S
N703 C708 1.360 . S
C704 H696 0.930 . S
C704 N703 1.305 1_554 S
C704 C707 1.407 1_554 S
C705 H699 0.930 . S
C705 C706 1.410 . S
C705 C707 1.345 . S
C706 C705 1.410 . S
C706 C708 1.417 . S
C706 C738 1.432 . S
C707 H693 0.913 1_556 S
C707 C704 1.407 1_556 S
C707 C705 1.345 . S
C708 N703 1.360 . S
C708 C706 1.417 . S
C708 C712 1.432 . S
H709 C714 0.930 . S
N710 Tb672 2.600 1_556 S
N710 C712 1.359 . S
N710 C713 1.327 . S
C711 H697 0.931 . S
C711 C713 1.392 . S
C711 C714 1.370 . S
C712 C708 1.432 . S
C712 N710 1.359 . S
C712 C715 1.414 . S
C713 H695 0.930 . S
C713 N710 1.327 . S
C713 C711 1.392 . S
C714 H709 0.930 . S
C714 C711 1.370 . S
C714 C715 1.385 . S
C715 C712 1.414 . S
C715 C714 1.385 . S
C715 C737 1.444 . S
O716 Tb672 2.546 . S
O716 C736 1.251 . S
O717 Tb672 2.610 . S
O717 Tb683 2.362 1_554 S
O717 C728 1.283 . S
O718 Tb683 2.421 1_554 S
O718 C735 1.262 . S
O719 Tb672 2.320 . S
O719 C735 1.260 . S
O720 Tb672 2.552 . S
O720 C728 1.243 . S
O721 Tb672 2.413 . S
O721 C736 1.256 . S
O722 Tb683 2.546 . S
O722 C747 1.251 . S
O723 Tb672 2.362 1_556 S
O723 Tb683 2.610 . S
O723 C739 1.283 . S
O724 Tb672 2.421 1_556 S
O724 C746 1.262 . S
O725 Tb683 2.320 . S
O725 C746 1.260 . S
O726 Tb683 2.552 . S
O726 C739 1.243 . S
O727 Tb683 2.413 . S
O727 C747 1.256 . S
C728 O717 1.283 . S
C728 O720 1.243 . S
C729 C731 1.382 . S
C729 C733 1.393 . S
C729 C736 1.500 . S
C730 C731 1.400 . S
C730 C732 1.384 . S
C731 C729 1.382 . S
C731 C730 1.400 . S
C731 H748 0.930 . S
C732 C730 1.384 . S
C732 C734 1.392 . S
C732 H749 0.931 . S
C733 C729 1.393 . S
C733 C734 1.401 . S
C733 H750 0.930 . S
C734 C732 1.392 . S
C734 C733 1.401 . S
C734 H751 0.930 . S
C735 O718 1.262 . S
C735 O719 1.260 . S
C736 Tb672 2.833 . S
C736 O716 1.251 . S
C736 O721 1.256 . S
C736 C729 1.500 . S
C737 H702 0.929 . S
C737 C715 1.444 . S
C737 C738 1.317 . S
C738 H700 0.930 . S
C738 C706 1.432 . S
C738 C737 1.317 . S
C739 O723 1.283 . S
C739 O726 1.243 . S
C740 C741 1.382 . S
C740 C744 1.393 . S
C740 C747 1.500 . S
C741 C740 1.382 . S
C741 C742 1.400 . S
C741 H752 0.930 . S
C742 C741 1.400 . S
C742 C743 1.384 . S
C743 C742 1.384 . S
C743 C745 1.392 . S
C743 H753 0.931 . S
C744 C740 1.393 . S
C744 C745 1.401 . S
C744 H754 0.930 . S
C745 C743 1.392 . S
C745 C744 1.401 . S
C745 H755 0.930 . S
C746 O724 1.262 . S
C746 O725 1.260 . S
C747 Tb683 2.833 . S
C747 O722 1.251 . S
C747 O727 1.256 . S
C747 C740 1.500 . S
H748 C731 0.930 . S
H749 C732 0.931 . S
H750 C733 0.930 . S
H751 C734 0.930 . S
H752 C741 0.930 . S
H753 C743 0.931 . S
H754 C744 0.930 . S
H755 C745 0.930 . S
Tb756 N787 2.660 . S
Tb756 N794 2.600 . S
Tb756 O800 2.546 . S
Tb756 O801 2.610 . S
Tb756 O803 2.320 . S
Tb756 O804 2.552 . S
Tb756 O805 2.413 . S
Tb756 O807 2.362 . S
Tb756 O808 2.421 . S
Tb756 C820 2.833 . S
C757 C760 1.432 . S
C757 C761 1.414 . S
C757 N764 1.359 . S
C758 C760 1.417 . S
C758 C762 1.432 . S
C758 C770 1.410 . S
C759 C761 1.444 . S
C759 C762 1.317 . S
C759 H782 0.929 . S
C760 C757 1.432 . S
C760 C758 1.417 . S
C760 N768 1.360 . S
C761 C757 1.414 . S
C761 C759 1.444 . S
C761 C766 1.385 . S
C762 C758 1.432 . S
C762 C759 1.317 . S
C762 H774 0.930 . S
C763 C765 1.392 . S
C763 C766 1.370 . S
C763 H775 0.931 . S
N764 C757 1.359 . S
N764 C765 1.327 . S
N764 Tb767 2.600 . S
C765 C763 1.392 . S
C765 N764 1.327 . S
C765 H772 0.930 . S
C766 C761 1.385 . S
C766 C763 1.370 . S
C766 H785 0.930 . S
Tb767 N764 2.600 . S
Tb767 N768 2.660 . S
Tb767 O801 2.362 . S
Tb767 O802 2.421 . S
Tb767 O806 2.546 . S
Tb767 O807 2.610 . S
Tb767 O809 2.320 . S
Tb767 O810 2.552 . S
Tb767 O811 2.413 . S
Tb767 C831 2.833 . S
N768 C760 1.360 . S
N768 Tb767 2.660 . S
N768 C769 1.305 . S
C769 N768 1.305 . S
C769 C771 1.407 . S
C769 H776 0.930 . S
C770 C758 1.410 . S
C770 C771 1.345 . S
C770 H778 0.930 . S
C771 C769 1.407 . S
C771 C770 1.345 . S
C771 H773 0.930 . S
H772 C765 0.930 . S
H773 C771 0.930 . S
H774 C762 0.930 . S
H775 C763 0.931 . S
H776 C769 0.930 . S
H777 C791 0.930 . S
H778 C770 0.930 . S
H779 C797 0.930 . S
H780 C788 0.930 . S
H781 C795 0.931 . S
H782 C759 0.929 . S
H783 C789 0.930 . S
H784 C822 0.930 . S
H785 C766 0.930 . S
H786 C821 0.929 . S
N787 Tb756 2.660 . S
N787 C788 1.305 . S
N787 C792 1.360 . S
C788 H780 0.930 . S
C788 N787 1.305 . S
C788 C791 1.407 . S
C789 H783 0.930 . S
C789 C790 1.410 . S
C789 C791 1.345 . S
C790 C789 1.410 . S
C790 C792 1.417 . S
C790 C822 1.432 . S
C791 H777 0.930 . S
C791 C788 1.407 . S
C791 C789 1.345 . S
C792 N787 1.360 . S
C792 C790 1.417 . S
C792 C796 1.432 . S
H793 C798 0.930 . S
N794 Tb756 2.600 . S
N794 C796 1.359 . S
N794 C797 1.327 . S
C795 H781 0.931 . S
C795 C797 1.392 . S
C795 C798 1.370 . S
C796 C792 1.432 . S
C796 N794 1.359 . S
C796 C799 1.414 . S
C797 H779 0.930 . S
C797 N794 1.327 . S
C797 C795 1.392 . S
C798 H793 0.930 . S
C798 C795 1.370 . S
C798 C799 1.385 . S
C799 C796 1.414 . S
C799 C798 1.385 . S
C799 C821 1.444 . S
O800 Tb756 2.546 . S
O800 C820 1.251 . S
O801 Tb756 2.610 . S
O801 Tb767 2.362 . S
O801 C812 1.283 . S
O802 Tb767 2.421 . S
O802 C819 1.262 . S
O803 Tb756 2.320 . S
O803 C819 1.260 . S
O804 Tb756 2.552 . S
O804 C812 1.243 . S
O805 Tb756 2.413 . S
O805 C820 1.256 . S
O806 Tb767 2.546 . S
O806 C831 1.251 . S
O807 Tb756 2.362 . S
O807 Tb767 2.610 . S
O807 C823 1.283 . S
O808 Tb756 2.421 . S
O808 C830 1.262 . S
O809 Tb767 2.320 . S
O809 C830 1.260 . S
O810 Tb767 2.552 . S
O810 C823 1.243 . S
O811 Tb767 2.413 . S
O811 C831 1.256 . S
C812 O801 1.283 . S
C812 O804 1.243 . S
C813 C815 1.382 . S
C813 C817 1.393 . S
C813 C820 1.500 . S
C814 C815 1.400 . S
C814 C816 1.384 . S
C815 C813 1.382 . S
C815 C814 1.400 . S
C815 H832 0.930 . S
C816 C814 1.384 . S
C816 C818 1.392 . S
C816 H833 0.931 . S
C817 C813 1.393 . S
C817 C818 1.401 . S
C817 H834 0.930 . S
C818 C816 1.392 . S
C818 C817 1.401 . S
C818 H835 0.930 . S
C819 O802 1.262 . S
C819 O803 1.260 . S
C820 Tb756 2.833 . S
C820 O800 1.251 . S
C820 O805 1.256 . S
C820 C813 1.500 . S
C821 H786 0.929 . S
C821 C799 1.444 . S
C821 C822 1.317 . S
C822 H784 0.930 . S
C822 C790 1.432 . S
C822 C821 1.317 . S
C823 O807 1.283 . S
C823 O810 1.243 . S
C824 C825 1.382 . S
C824 C828 1.393 . S
C824 C831 1.500 . S
C825 C824 1.382 . S
C825 C826 1.400 . S
C825 H836 0.930 . S
C826 C825 1.400 . S
C826 C827 1.384 . S
C827 C826 1.384 . S
C827 C829 1.392 . S
C827 H837 0.931 . S
C828 C824 1.393 . S
C828 C829 1.401 . S
C828 H838 0.930 . S
C829 C827 1.392 . S
C829 C828 1.401 . S
C829 H839 0.930 . S
C830 O808 1.262 . S
C830 O809 1.260 . S
C831 Tb767 2.833 . S
C831 O806 1.251 . S
C831 O811 1.256 . S
C831 C824 1.500 . S
H832 C815 0.930 . S
H833 C816 0.931 . S
H834 C817 0.930 . S
H835 C818 0.930 . S
H836 C825 0.930 . S
H837 C827 0.931 . S
H838 C828 0.930 . S
H839 C829 0.930 . S
Tb840 N871 2.660 1_455 S
Tb840 N878 2.600 . S
Tb840 O884 2.546 . S
Tb840 O885 2.610 . S
Tb840 O887 2.320 1_455 S
Tb840 O888 2.552 . S
Tb840 O889 2.413 . S
Tb840 O891 2.362 1_455 S
Tb840 O892 2.421 . S
Tb840 C904 2.833 . S
C841 C844 1.432 1_655 S
C841 C845 1.414 . S
C841 N848 1.359 . S
C842 C844 1.417 . S
C842 C846 1.432 . S
C842 C854 1.410 . S
C843 C845 1.444 . S
C843 C846 1.317 1_655 S
C843 H866 0.929 . S
C844 C841 1.432 1_455 S
C844 C842 1.417 . S
C844 N852 1.360 . S
C845 C841 1.414 . S
C845 C843 1.444 . S
C845 C850 1.385 . S
C846 C842 1.432 . S
C846 C843 1.317 1_455 S
C846 H858 0.930 . S
C847 C849 1.392 . S
C847 C850 1.370 . S
C847 H859 0.931 . S
N848 C841 1.359 . S
N848 C849 1.327 . S
N848 Tb851 2.600 . S
C849 C847 1.392 . S
C849 N848 1.327 . S
C849 H856 0.930 . S
C850 C845 1.385 . S
C850 C847 1.370 . S
C850 H869 0.930 . S
Tb851 N848 2.600 . S
Tb851 N852 2.660 1_655 S
Tb851 O885 2.362 1_655 S
Tb851 O886 2.421 . S
Tb851 O890 2.546 . S
Tb851 O891 2.610 . S
Tb851 O893 2.320 1_655 S
Tb851 O894 2.552 . S
Tb851 O895 2.413 . S
Tb851 C915 2.833 . S
N852 C844 1.360 . S
N852 Tb851 2.660 1_455 S
N852 C853 1.305 . S
C853 N852 1.305 . S
C853 C855 1.407 . S
C853 H860 0.930 . S
C854 C842 1.410 . S
C854 C855 1.345 . S
C854 H862 0.930 . S
C855 C853 1.407 . S
C855 C854 1.345 . S
C855 H857 0.930 . S
H856 C849 0.930 . S
H857 C855 0.930 . S
H858 C846 0.930 . S
H859 C847 0.931 . S
H860 C853 0.930 . S
H861 C875 0.930 . S
H862 C854 0.930 . S
H863 C881 0.930 . S
H864 C872 0.930 . S
H865 C879 0.931 . S
H866 C843 0.929 . S
H867 C873 0.930 . S
H868 C906 0.930 . S
H869 C850 0.930 . S
H870 C905 0.929 . S
N871 Tb840 2.660 1_655 S
N871 C872 1.305 . S
N871 C876 1.360 . S
C872 H864 0.930 . S
C872 N871 1.305 . S
C872 C875 1.407 . S
C873 H867 0.930 . S
C873 C874 1.410 . S
C873 C875 1.345 . S
C874 C873 1.410 . S
C874 C876 1.417 . S
C874 C906 1.432 . S
C875 H861 0.930 . S
C875 C872 1.407 . S
C875 C873 1.345 . S
C876 N871 1.360 . S
C876 C874 1.417 . S
C876 C880 1.432 1_655 S
H877 C882 0.930 . S
N878 Tb840 2.600 . S
N878 C880 1.359 . S
N878 C881 1.327 . S
C879 H865 0.931 . S
C879 C881 1.392 . S
C879 C882 1.370 . S
C880 C876 1.432 1_455 S
C880 N878 1.359 . S
C880 C883 1.414 . S
C881 H863 0.930 . S
C881 N878 1.327 . S
C881 C879 1.392 . S
C882 H877 0.930 . S
C882 C879 1.370 . S
C882 C883 1.385 . S
C883 C880 1.414 . S
C883 C882 1.385 . S
C883 C905 1.444 . S
O884 Tb840 2.546 . S
O884 C904 1.251 . S
O885 Tb840 2.610 . S
O885 Tb851 2.362 1_455 S
O885 C896 1.283 . S
O886 Tb851 2.421 . S
O886 C903 1.262 . S
O887 Tb840 2.320 1_655 S
O887 C903 1.260 . S
O888 Tb840 2.552 . S
O888 C896 1.243 . S
O889 Tb840 2.413 . S
O889 C904 1.256 . S
O890 Tb851 2.546 . S
O890 C915 1.251 . S
O891 Tb840 2.362 1_655 S
O891 Tb851 2.610 . S
O891 C907 1.283 . S
O892 Tb840 2.421 . S
O892 C914 1.262 . S
O893 Tb851 2.320 1_455 S
O893 C914 1.260 . S
O894 Tb851 2.552 . S
O894 C907 1.243 . S
O895 Tb851 2.413 . S
O895 C915 1.256 . S
C896 O885 1.283 . S
C896 O888 1.243 . S
C897 C899 1.382 . S
C897 C901 1.393 . S
C897 C904 1.500 . S
C898 C899 1.400 . S
C898 C900 1.384 . S
C899 C897 1.382 . S
C899 C898 1.400 . S
C899 H916 0.930 . S
C900 C898 1.384 . S
C900 C902 1.392 . S
C900 H917 0.931 . S
C901 C897 1.393 . S
C901 C902 1.401 . S
C901 H918 0.930 . S
C902 C900 1.392 . S
C902 C901 1.401 . S
C902 H919 0.930 . S
C903 O886 1.262 . S
C903 O887 1.260 . S
C904 Tb840 2.833 . S
C904 O884 1.251 . S
C904 O889 1.256 . S
C904 C897 1.500 . S
C905 H870 0.929 . S
C905 C883 1.444 . S
C905 C906 1.317 1_455 S
C906 H868 0.930 . S
C906 C874 1.432 . S
C906 C905 1.317 1_655 S
C907 O891 1.283 . S
C907 O894 1.243 . S
C908 C909 1.382 . S
C908 C912 1.393 . S
C908 C915 1.500 . S
C909 C908 1.382 . S
C909 C910 1.400 . S
C909 H920 0.930 . S
C910 C909 1.400 . S
C910 C911 1.384 . S
C911 C910 1.384 . S
C911 C913 1.392 . S
C911 H921 0.931 . S
C912 C908 1.393 . S
C912 C913 1.401 . S
C912 H922 0.930 . S
C913 C911 1.392 . S
C913 C912 1.401 . S
C913 H923 0.930 . S
C914 O892 1.262 . S
C914 O893 1.260 . S
C915 Tb851 2.833 . S
C915 O890 1.251 . S
C915 O895 1.256 . S
C915 C908 1.500 . S
H916 C899 0.930 . S
H917 C900 0.931 . S
H918 C901 0.930 . S
H919 C902 0.930 . S
H920 C909 0.930 . S
H921 C911 0.931 . S
H922 C912 0.930 . S
H923 C913 0.930 . S
Tb924 N955 2.660 . S
Tb924 N962 2.600 . S
Tb924 O968 2.546 . S
Tb924 O969 2.610 . S
Tb924 O971 2.320 . S
Tb924 O972 2.552 . S
Tb924 O973 2.413 . S
Tb924 O975 2.362 . S
Tb924 O976 2.421 . S
Tb924 C988 2.833 . S
C925 C928 1.432 . S
C925 C929 1.414 . S
C925 N932 1.359 . S
C926 C928 1.417 . S
C926 C930 1.432 . S
C926 C938 1.410 . S
C927 C929 1.444 . S
C927 C930 1.317 . S
C927 H950 0.929 . S
C928 C925 1.432 . S
C928 C926 1.417 . S
C928 N936 1.360 . S
C929 C925 1.414 . S
C929 C927 1.444 . S
C929 C934 1.385 . S
C930 C926 1.432 . S
C930 C927 1.317 . S
C930 H942 0.930 . S
C931 C933 1.392 . S
C931 C934 1.370 . S
C931 H943 0.931 . S
N932 C925 1.359 . S
N932 C933 1.327 . S
N932 Tb935 2.600 . S
C933 C931 1.392 . S
C933 N932 1.327 . S
C933 H940 0.930 . S
C934 C929 1.385 . S
C934 C931 1.370 . S
C934 H953 0.930 . S
Tb935 N932 2.600 . S
Tb935 N936 2.660 . S
Tb935 O969 2.362 . S
Tb935 O970 2.421 . S
Tb935 O974 2.546 . S
Tb935 O975 2.610 . S
Tb935 O977 2.320 . S
Tb935 O978 2.552 . S
Tb935 O979 2.413 . S
Tb935 C999 2.833 . S
N936 C928 1.360 . S
N936 Tb935 2.660 . S
N936 C937 1.305 . S
C937 N936 1.305 . S
C937 C939 1.407 . S
C937 H944 0.930 . S
C938 C926 1.410 . S
C938 C939 1.345 . S
C938 H946 0.930 . S
C939 C937 1.407 . S
C939 C938 1.345 . S
C939 H941 0.930 . S
H940 C933 0.930 . S
H941 C939 0.930 . S
H942 C930 0.930 . S
H943 C931 0.931 . S
H944 C937 0.930 . S
H945 C959 0.930 . S
H946 C938 0.930 . S
H947 C965 0.930 . S
H948 C956 0.930 . S
H949 C963 0.931 . S
H950 C927 0.929 . S
H951 C957 0.930 . S
H952 C990 0.930 . S
H953 C934 0.930 . S
H954 C989 0.929 . S
N955 Tb924 2.660 . S
N955 C956 1.305 . S
N955 C960 1.360 . S
C956 H948 0.930 . S
C956 N955 1.305 . S
C956 C959 1.407 . S
C957 H951 0.930 . S
C957 C958 1.410 . S
C957 C959 1.345 . S
C958 C957 1.410 . S
C958 C960 1.417 . S
C958 C990 1.432 . S
C959 H945 0.930 . S
C959 C956 1.407 . S
C959 C957 1.345 . S
C960 N955 1.360 . S
C960 C958 1.417 . S
C960 C964 1.432 . S
H961 C966 0.930 . S
N962 Tb924 2.600 . S
N962 C964 1.359 . S
N962 C965 1.327 . S
C963 H949 0.931 . S
C963 C965 1.392 . S
C963 C966 1.370 . S
C964 C960 1.432 . S
C964 N962 1.359 . S
C964 C967 1.414 . S
C965 H947 0.930 . S
C965 N962 1.327 . S
C965 C963 1.392 . S
C966 H961 0.930 . S
C966 C963 1.370 . S
C966 C967 1.385 . S
C967 C964 1.414 . S
C967 C966 1.385 . S
C967 C989 1.444 . S
O968 Tb924 2.546 . S
O968 C988 1.251 . S
O969 Tb924 2.610 . S
O969 Tb935 2.362 . S
O969 C980 1.283 . S
O970 Tb935 2.421 . S
O970 C987 1.262 . S
O971 Tb924 2.320 . S
O971 C987 1.260 . S
O972 Tb924 2.552 . S
O972 C980 1.243 . S
O973 Tb924 2.413 . S
O973 C988 1.256 . S
O974 Tb935 2.546 . S
O974 C999 1.251 . S
O975 Tb924 2.362 . S
O975 Tb935 2.610 . S
O975 C991 1.283 . S
O976 Tb924 2.421 . S
O976 C998 1.262 . S
O977 Tb935 2.320 . S
O977 C998 1.260 . S
O978 Tb935 2.552 . S
O978 C991 1.243 . S
O979 Tb935 2.413 . S
O979 C999 1.256 . S
C980 O969 1.283 . S
C980 O972 1.243 . S
C981 C983 1.382 . S
C981 C985 1.393 . S
C981 C988 1.500 . S
C982 C983 1.400 . S
C982 C984 1.384 . S
C983 C981 1.382 . S
C983 C982 1.400 . S
C983 H1000 0.930 . S
C984 C982 1.384 . S
C984 C986 1.392 . S
C984 H1001 0.931 . S
C985 C981 1.393 . S
C985 C986 1.401 . S
C985 H1002 0.930 . S
C986 C984 1.392 . S
C986 C985 1.401 . S
C986 H1003 0.930 . S
C987 O970 1.262 . S
C987 O971 1.260 . S
C988 Tb924 2.833 . S
C988 O968 1.251 . S
C988 O973 1.256 . S
C988 C981 1.500 . S
C989 H954 0.929 . S
C989 C967 1.444 . S
C989 C990 1.317 . S
C990 H952 0.930 . S
C990 C958 1.432 . S
C990 C989 1.317 . S
C991 O975 1.283 . S
C991 O978 1.243 . S
C992 C993 1.382 . S
C992 C996 1.393 . S
C992 C999 1.500 . S
C993 C992 1.382 . S
C993 C994 1.400 . S
C993 H1004 0.930 . S
C994 C993 1.400 . S
C994 C995 1.384 . S
C995 C994 1.384 . S
C995 C997 1.392 . S
C995 H1005 0.931 . S
C996 C992 1.393 . S
C996 C997 1.401 . S
C996 H1006 0.930 . S
C997 C995 1.392 . S
C997 C996 1.401 . S
C997 H1007 0.930 . S
C998 O976 1.262 . S
C998 O977 1.260 . S
C999 Tb935 2.833 . S
C999 O974 1.251 . S
C999 O979 1.256 . S
C999 C992 1.500 . S
H1000 C983 0.930 . S
H1001 C984 0.931 . S
H1002 C985 0.930 . S
H1003 C986 0.930 . S
H1004 C993 0.930 . S
H1005 C995 0.931 . S
H1006 C996 0.930 . S
H1007 C997 0.930 . S
Tb1008 N1039 2.660 . S
Tb1008 N1046 2.600 . S
Tb1008 O1052 2.546 . S
Tb1008 O1053 2.610 . S
Tb1008 O1055 2.320 . S
Tb1008 O1056 2.552 . S
Tb1008 O1057 2.413 . S
Tb1008 O1059 2.362 . S
Tb1008 O1060 2.421 . S
Tb1008 C1072 2.833 . S
C1009 C1012 1.432 . S
C1009 C1013 1.414 . S
C1009 N1016 1.359 . S
C1010 C1012 1.417 . S
C1010 C1014 1.432 . S
C1010 C1022 1.410 . S
C1011 C1013 1.444 . S
C1011 C1014 1.317 . S
C1011 H1034 0.929 . S
C1012 C1009 1.432 . S
C1012 C1010 1.417 . S
C1012 N1020 1.360 . S
C1013 C1009 1.414 . S
C1013 C1011 1.444 . S
C1013 C1018 1.385 . S
C1014 C1010 1.432 . S
C1014 C1011 1.317 . S
C1014 H1026 0.930 . S
C1015 C1017 1.392 . S
C1015 C1018 1.370 . S
C1015 H1027 0.931 . S
N1016 C1009 1.359 . S
N1016 C1017 1.327 . S
N1016 Tb1019 2.600 . S
C1017 C1015 1.392 . S
C1017 N1016 1.327 . S
C1017 H1024 0.930 . S
C1018 C1013 1.385 . S
C1018 C1015 1.370 . S
C1018 H1037 0.930 . S
Tb1019 N1016 2.600 . S
Tb1019 N1020 2.660 . S
Tb1019 O1053 2.362 . S
Tb1019 O1054 2.421 . S
Tb1019 O1058 2.546 . S
Tb1019 O1059 2.610 . S
Tb1019 O1061 2.320 . S
Tb1019 O1062 2.552 . S
Tb1019 O1063 2.413 . S
Tb1019 C1083 2.833 . S
N1020 C1012 1.360 . S
N1020 Tb1019 2.660 . S
N1020 C1021 1.305 . S
C1021 N1020 1.305 . S
C1021 C1023 1.407 . S
C1021 H1028 0.930 . S
C1022 C1010 1.410 . S
C1022 C1023 1.345 . S
C1022 H1030 0.930 . S
C1023 C1021 1.407 . S
C1023 C1022 1.345 . S
C1023 H1025 0.930 . S
H1024 C1017 0.930 . S
H1025 C1023 0.930 . S
H1026 C1014 0.930 . S
H1027 C1015 0.931 . S
H1028 C1021 0.930 . S
H1029 C1043 0.930 . S
H1030 C1022 0.930 . S
H1031 C1049 0.930 . S
H1032 C1040 0.930 . S
H1033 C1047 0.931 . S
H1034 C1011 0.929 . S
H1035 C1041 0.930 . S
H1036 C1074 0.930 . S
H1037 C1018 0.930 . S
H1038 C1073 0.929 . S
N1039 Tb1008 2.660 . S
N1039 C1040 1.305 . S
N1039 C1044 1.360 . S
C1040 H1032 0.930 . S
C1040 N1039 1.305 . S
C1040 C1043 1.407 . S
C1041 H1035 0.930 . S
C1041 C1042 1.410 . S
C1041 C1043 1.345 . S
C1042 C1041 1.410 . S
C1042 C1044 1.417 . S
C1042 C1074 1.432 . S
C1043 H1029 0.930 . S
C1043 C1040 1.407 . S
C1043 C1041 1.345 . S
C1044 N1039 1.360 . S
C1044 C1042 1.417 . S
C1044 C1048 1.432 . S
H1045 C1050 0.930 . S
N1046 Tb1008 2.600 . S
N1046 C1048 1.359 . S
N1046 C1049 1.327 . S
C1047 H1033 0.931 . S
C1047 C1049 1.392 . S
C1047 C1050 1.370 . S
C1048 C1044 1.432 . S
C1048 N1046 1.359 . S
C1048 C1051 1.414 . S
C1049 H1031 0.930 . S
C1049 N1046 1.327 . S
C1049 C1047 1.392 . S
C1050 H1045 0.930 . S
C1050 C1047 1.370 . S
C1050 C1051 1.385 . S
C1051 C1048 1.414 . S
C1051 C1050 1.385 . S
C1051 C1073 1.444 . S
O1052 Tb1008 2.546 . S
O1052 C1072 1.251 . S
O1053 Tb1008 2.610 . S
O1053 Tb1019 2.362 . S
O1053 C1064 1.283 . S
O1054 Tb1019 2.421 . S
O1054 C1071 1.262 . S
O1055 Tb1008 2.320 . S
O1055 C1071 1.260 . S
O1056 Tb1008 2.552 . S
O1056 C1064 1.243 . S
O1057 Tb1008 2.413 . S
O1057 C1072 1.256 . S
O1058 Tb1019 2.546 . S
O1058 C1083 1.251 . S
O1059 Tb1008 2.362 . S
O1059 Tb1019 2.610 . S
O1059 C1075 1.283 . S
O1060 Tb1008 2.421 . S
O1060 C1082 1.262 . S
O1061 Tb1019 2.320 . S
O1061 C1082 1.260 . S
O1062 Tb1019 2.552 . S
O1062 C1075 1.243 . S
O1063 Tb1019 2.413 . S
O1063 C1083 1.256 . S
C1064 O1053 1.283 . S
C1064 O1056 1.243 . S
C1065 C1067 1.382 . S
C1065 C1069 1.393 . S
C1065 C1072 1.500 . S
C1066 C1067 1.400 . S
C1066 C1068 1.384 . S
C1067 C1065 1.382 . S
C1067 C1066 1.400 . S
C1067 H1084 0.930 . S
C1068 C1066 1.384 . S
C1068 C1070 1.392 . S
C1068 H1085 0.931 . S
C1069 C1065 1.393 . S
C1069 C1070 1.401 . S
C1069 H1086 0.930 . S
C1070 C1068 1.392 . S
C1070 C1069 1.401 . S
C1070 H1087 0.930 . S
C1071 O1054 1.262 . S
C1071 O1055 1.260 . S
C1072 Tb1008 2.833 . S
C1072 O1052 1.251 . S
C1072 O1057 1.256 . S
C1072 C1065 1.500 . S
C1073 H1038 0.929 . S
C1073 C1051 1.444 . S
C1073 C1074 1.317 . S
C1074 H1036 0.930 . S
C1074 C1042 1.432 . S
C1074 C1073 1.317 . S
C1075 O1059 1.283 . S
C1075 O1062 1.243 . S
C1076 C1077 1.382 . S
C1076 C1080 1.393 . S
C1076 C1083 1.500 . S
C1077 C1076 1.382 . S
C1077 C1078 1.400 . S
C1077 H1088 0.930 . S
C1078 C1077 1.400 . S
C1078 C1079 1.384 . S
C1079 C1078 1.384 . S
C1079 C1081 1.392 . S
C1079 H1089 0.931 . S
C1080 C1076 1.393 . S
C1080 C1081 1.401 . S
C1080 H1090 0.930 . S
C1081 C1079 1.392 . S
C1081 C1080 1.401 . S
C1081 H1091 0.930 . S
C1082 O1060 1.262 . S
C1082 O1061 1.260 . S
C1083 Tb1019 2.833 . S
C1083 O1058 1.251 . S
C1083 O1063 1.256 . S
C1083 C1076 1.500 . S
H1084 C1067 0.930 . S
H1085 C1068 0.931 . S
H1086 C1069 0.930 . S
H1087 C1070 0.930 . S
H1088 C1077 0.930 . S
H1089 C1079 0.931 . S
H1090 C1080 0.930 . S
H1091 C1081 0.930 . S
Tb1092 N1123 2.660 . S
Tb1092 N1130 2.600 . S
Tb1092 O1136 2.546 . S
Tb1092 O1137 2.610 . S
Tb1092 O1139 2.320 . S
Tb1092 O1140 2.552 . S
Tb1092 O1141 2.413 . S
Tb1092 O1143 2.362 . S
Tb1092 O1144 2.421 . S
Tb1092 C1156 2.833 . S
C1093 C1096 1.432 . S
C1093 C1097 1.414 . S
C1093 N1100 1.359 . S
C1094 C1096 1.417 . S
C1094 C1098 1.432 . S
C1094 C1106 1.410 . S
C1095 C1097 1.444 . S
C1095 C1098 1.317 . S
C1095 H1118 0.929 . S
C1096 C1093 1.432 . S
C1096 C1094 1.417 . S
C1096 N1104 1.360 . S
C1097 C1093 1.414 . S
C1097 C1095 1.444 . S
C1097 C1102 1.385 . S
C1098 C1094 1.432 . S
C1098 C1095 1.317 . S
C1098 H1110 0.930 . S
C1099 C1101 1.392 . S
C1099 C1102 1.370 . S
C1099 H1111 0.931 . S
N1100 C1093 1.359 . S
N1100 C1101 1.327 . S
N1100 Tb1103 2.600 . S
C1101 C1099 1.392 . S
C1101 N1100 1.327 . S
C1101 H1108 0.930 . S
C1102 C1097 1.385 . S
C1102 C1099 1.370 . S
C1102 H1121 0.930 . S
Tb1103 N1100 2.600 . S
Tb1103 N1104 2.660 . S
Tb1103 O1137 2.362 . S
Tb1103 O1138 2.421 . S
Tb1103 O1142 2.546 . S
Tb1103 O1143 2.610 . S
Tb1103 O1145 2.320 . S
Tb1103 O1146 2.552 . S
Tb1103 O1147 2.413 . S
Tb1103 C1167 2.833 . S
N1104 C1096 1.360 . S
N1104 Tb1103 2.660 . S
N1104 C1105 1.305 . S
C1105 N1104 1.305 . S
C1105 C1107 1.407 . S
C1105 H1112 0.930 . S
C1106 C1094 1.410 . S
C1106 C1107 1.345 . S
C1106 H1114 0.930 . S
C1107 C1105 1.407 . S
C1107 C1106 1.345 . S
C1107 H1109 0.930 . S
H1108 C1101 0.930 . S
H1109 C1107 0.930 . S
H1110 C1098 0.930 . S
H1111 C1099 0.931 . S
H1112 C1105 0.930 . S
H1113 C1127 0.930 . S
H1114 C1106 0.930 . S
H1115 C1133 0.930 . S
H1116 C1124 0.930 . S
H1117 C1131 0.931 . S
H1118 C1095 0.929 . S
H1119 C1125 0.930 . S
H1120 C1158 0.930 . S
H1121 C1102 0.930 . S
H1122 C1157 0.929 . S
N1123 Tb1092 2.660 . S
N1123 C1124 1.305 . S
N1123 C1128 1.360 . S
C1124 H1116 0.930 . S
C1124 N1123 1.305 . S
C1124 C1127 1.407 . S
C1125 H1119 0.930 . S
C1125 C1126 1.410 . S
C1125 C1127 1.345 . S
C1126 C1125 1.410 . S
C1126 C1128 1.417 . S
C1126 C1158 1.432 . S
C1127 H1113 0.930 . S
C1127 C1124 1.407 . S
C1127 C1125 1.345 . S
C1128 N1123 1.360 . S
C1128 C1126 1.417 . S
C1128 C1132 1.432 . S
H1129 C1134 0.930 . S
N1130 Tb1092 2.600 . S
N1130 C1132 1.359 . S
N1130 C1133 1.327 . S
C1131 H1117 0.931 . S
C1131 C1133 1.392 . S
C1131 C1134 1.370 . S
C1132 C1128 1.432 . S
C1132 N1130 1.359 . S
C1132 C1135 1.414 . S
C1133 H1115 0.930 . S
C1133 N1130 1.327 . S
C1133 C1131 1.392 . S
C1134 H1129 0.930 . S
C1134 C1131 1.370 . S
C1134 C1135 1.385 . S
C1135 C1132 1.414 . S
C1135 C1134 1.385 . S
C1135 C1157 1.444 . S
O1136 Tb1092 2.546 . S
O1136 C1156 1.251 . S
O1137 Tb1092 2.610 . S
O1137 Tb1103 2.362 . S
O1137 C1148 1.283 . S
O1138 Tb1103 2.421 . S
O1138 C1155 1.262 . S
O1139 Tb1092 2.320 . S
O1139 C1155 1.260 . S
O1140 Tb1092 2.552 . S
O1140 C1148 1.243 . S
O1141 Tb1092 2.413 . S
O1141 C1156 1.256 . S
O1142 Tb1103 2.546 . S
O1142 C1167 1.251 . S
O1143 Tb1092 2.362 . S
O1143 Tb1103 2.610 . S
O1143 C1159 1.283 . S
O1144 Tb1092 2.421 . S
O1144 C1166 1.262 . S
O1145 Tb1103 2.320 . S
O1145 C1166 1.260 . S
O1146 Tb1103 2.552 . S
O1146 C1159 1.243 . S
O1147 Tb1103 2.413 . S
O1147 C1167 1.256 . S
C1148 O1137 1.283 . S
C1148 O1140 1.243 . S
C1149 C1151 1.382 . S
C1149 C1153 1.393 . S
C1149 C1156 1.500 . S
C1150 C1151 1.400 . S
C1150 C1152 1.384 . S
C1151 C1149 1.382 . S
C1151 C1150 1.400 . S
C1151 H1168 0.930 . S
C1152 C1150 1.384 . S
C1152 C1154 1.392 . S
C1152 H1169 0.931 . S
C1153 C1149 1.393 . S
C1153 C1154 1.401 . S
C1153 H1170 0.930 . S
C1154 C1152 1.392 . S
C1154 C1153 1.401 . S
C1154 H1171 0.930 . S
C1155 O1138 1.262 . S
C1155 O1139 1.260 . S
C1156 Tb1092 2.833 . S
C1156 O1136 1.251 . S
C1156 O1141 1.256 . S
C1156 C1149 1.500 . S
C1157 H1122 0.929 . S
C1157 C1135 1.444 . S
C1157 C1158 1.317 . S
C1158 H1120 0.930 . S
C1158 C1126 1.432 . S
C1158 C1157 1.317 . S
C1159 O1143 1.283 . S
C1159 O1146 1.243 . S
C1160 C1161 1.382 . S
C1160 C1164 1.393 . S
C1160 C1167 1.500 . S
C1161 C1160 1.382 . S
C1161 C1162 1.400 . S
C1161 H1172 0.930 . S
C1162 C1161 1.400 . S
C1162 C1163 1.384 . S
C1163 C1162 1.384 . S
C1163 C1165 1.392 . S
C1163 H1173 0.931 . S
C1164 C1160 1.393 . S
C1164 C1165 1.401 . S
C1164 H1174 0.930 . S
C1165 C1163 1.392 . S
C1165 C1164 1.401 . S
C1165 H1175 0.930 . S
C1166 O1144 1.262 . S
C1166 O1145 1.260 . S
C1167 Tb1103 2.833 . S
C1167 O1142 1.251 . S
C1167 O1147 1.256 . S
C1167 C1160 1.500 . S
H1168 C1151 0.930 . S
H1169 C1152 0.931 . S
H1170 C1153 0.930 . S
H1171 C1154 0.930 . S
H1172 C1161 0.930 . S
H1173 C1163 0.931 . S
H1174 C1164 0.930 . S
H1175 C1165 0.930 . S
Tb1176 N1207 2.660 . S
Tb1176 N1214 2.600 . S
Tb1176 O1220 2.546 . S
Tb1176 O1221 2.610 . S
Tb1176 O1223 2.320 . S
Tb1176 O1224 2.552 . S
Tb1176 O1225 2.413 . S
Tb1176 O1227 2.362 . S
Tb1176 O1228 2.421 . S
Tb1176 C1240 2.833 . S
C1177 C1180 1.432 . S
C1177 C1181 1.414 . S
C1177 N1184 1.359 . S
C1178 C1180 1.417 . S
C1178 C1182 1.432 . S
C1178 C1190 1.410 . S
C1179 C1181 1.444 . S
C1179 C1182 1.317 . S
C1179 H1202 0.929 . S
C1180 C1177 1.432 . S
C1180 C1178 1.417 . S
C1180 N1188 1.360 . S
C1181 C1177 1.414 . S
C1181 C1179 1.444 . S
C1181 C1186 1.385 . S
C1182 C1178 1.432 . S
C1182 C1179 1.317 . S
C1182 H1194 0.930 . S
C1183 C1185 1.392 . S
C1183 C1186 1.370 . S
C1183 H1195 0.931 . S
N1184 C1177 1.359 . S
N1184 C1185 1.327 . S
N1184 Tb1187 2.600 . S
C1185 C1183 1.392 . S
C1185 N1184 1.327 . S
C1185 H1192 0.930 . S
C1186 C1181 1.385 . S
C1186 C1183 1.370 . S
C1186 H1205 0.930 . S
Tb1187 N1184 2.600 . S
Tb1187 N1188 2.660 . S
Tb1187 O1221 2.362 . S
Tb1187 O1222 2.421 . S
Tb1187 O1226 2.546 . S
Tb1187 O1227 2.610 . S
Tb1187 O1229 2.320 . S
Tb1187 O1230 2.552 . S
Tb1187 O1231 2.413 . S
Tb1187 C1251 2.833 . S
N1188 C1180 1.360 . S
N1188 Tb1187 2.660 . S
N1188 C1189 1.305 . S
C1189 N1188 1.305 . S
C1189 C1191 1.407 . S
C1189 H1196 0.930 . S
C1190 C1178 1.410 . S
C1190 C1191 1.345 . S
C1190 H1198 0.930 . S
C1191 C1189 1.407 . S
C1191 C1190 1.345 . S
C1191 H1193 0.930 . S
H1192 C1185 0.930 . S
H1193 C1191 0.930 . S
H1194 C1182 0.930 . S
H1195 C1183 0.931 . S
H1196 C1189 0.930 . S
H1197 C1211 0.930 . S
H1198 C1190 0.930 . S
H1199 C1217 0.930 . S
H1200 C1208 0.930 . S
H1201 C1215 0.931 . S
H1202 C1179 0.929 . S
H1203 C1209 0.930 . S
H1204 C1242 0.930 . S
H1205 C1186 0.930 . S
H1206 C1241 0.929 . S
N1207 Tb1176 2.660 . S
N1207 C1208 1.305 . S
N1207 C1212 1.360 . S
C1208 H1200 0.930 . S
C1208 N1207 1.305 . S
C1208 C1211 1.407 . S
C1209 H1203 0.930 . S
C1209 C1210 1.410 . S
C1209 C1211 1.345 . S
C1210 C1209 1.410 . S
C1210 C1212 1.417 . S
C1210 C1242 1.432 . S
C1211 H1197 0.930 . S
C1211 C1208 1.407 . S
C1211 C1209 1.345 . S
C1212 N1207 1.360 . S
C1212 C1210 1.417 . S
C1212 C1216 1.432 . S
H1213 C1218 0.930 . S
N1214 Tb1176 2.600 . S
N1214 C1216 1.359 . S
N1214 C1217 1.327 . S
C1215 H1201 0.931 . S
C1215 C1217 1.392 . S
C1215 C1218 1.370 . S
C1216 C1212 1.432 . S
C1216 N1214 1.359 . S
C1216 C1219 1.414 . S
C1217 H1199 0.930 . S
C1217 N1214 1.327 . S
C1217 C1215 1.392 . S
C1218 H1213 0.930 . S
C1218 C1215 1.370 . S
C1218 C1219 1.385 . S
C1219 C1216 1.414 . S
C1219 C1218 1.385 . S
C1219 C1241 1.444 . S
O1220 Tb1176 2.546 . S
O1220 C1240 1.251 . S
O1221 Tb1176 2.610 . S
O1221 Tb1187 2.362 . S
O1221 C1232 1.283 . S
O1222 Tb1187 2.421 . S
O1222 C1239 1.262 . S
O1223 Tb1176 2.320 . S
O1223 C1239 1.260 . S
O1224 Tb1176 2.552 . S
O1224 C1232 1.243 . S
O1225 Tb1176 2.413 . S
O1225 C1240 1.256 . S
O1226 Tb1187 2.546 . S
O1226 C1251 1.251 . S
O1227 Tb1176 2.362 . S
O1227 Tb1187 2.610 . S
O1227 C1243 1.283 . S
O1228 Tb1176 2.421 . S
O1228 C1250 1.262 . S
O1229 Tb1187 2.320 . S
O1229 C1250 1.260 . S
O1230 Tb1187 2.552 . S
O1230 C1243 1.243 . S
O1231 Tb1187 2.413 . S
O1231 C1251 1.256 . S
C1232 O1221 1.283 . S
C1232 O1224 1.243 . S
C1233 C1235 1.382 . S
C1233 C1237 1.393 . S
C1233 C1240 1.500 . S
C1234 C1235 1.400 . S
C1234 C1236 1.384 . S
C1235 C1233 1.382 . S
C1235 C1234 1.400 . S
C1235 H1252 0.930 . S
C1236 C1234 1.384 . S
C1236 C1238 1.392 . S
C1236 H1253 0.931 . S
C1237 C1233 1.393 . S
C1237 C1238 1.401 . S
C1237 H1254 0.930 . S
C1238 C1236 1.392 . S
C1238 C1237 1.401 . S
C1238 H1255 0.930 . S
C1239 O1222 1.262 . S
C1239 O1223 1.260 . S
C1240 Tb1176 2.833 . S
C1240 O1220 1.251 . S
C1240 O1225 1.256 . S
C1240 C1233 1.500 . S
C1241 H1206 0.929 . S
C1241 C1219 1.444 . S
C1241 C1242 1.317 . S
C1242 H1204 0.930 . S
C1242 C1210 1.432 . S
C1242 C1241 1.317 . S
C1243 O1227 1.283 . S
C1243 O1230 1.243 . S
C1244 C1245 1.382 . S
C1244 C1248 1.393 . S
C1244 C1251 1.500 . S
C1245 C1244 1.382 . S
C1245 C1246 1.400 . S
C1245 H1256 0.930 . S
C1246 C1245 1.400 . S
C1246 C1247 1.384 . S
C1247 C1246 1.384 . S
C1247 C1249 1.392 . S
C1247 H1257 0.931 . S
C1248 C1244 1.393 . S
C1248 C1249 1.401 . S
C1248 H1258 0.930 . S
C1249 C1247 1.392 . S
C1249 C1248 1.401 . S
C1249 H1259 0.930 . S
C1250 O1228 1.262 . S
C1250 O1229 1.260 . S
C1251 Tb1187 2.833 . S
C1251 O1226 1.251 . S
C1251 O1231 1.256 . S
C1251 C1244 1.500 . S
H1252 C1235 0.930 . S
H1253 C1236 0.931 . S
H1254 C1237 0.930 . S
H1255 C1238 0.930 . S
H1256 C1245 0.930 . S
H1257 C1247 0.931 . S
H1258 C1248 0.930 . S
H1259 C1249 0.930 . S
Tb1260 N1291 2.660 . S
Tb1260 N1298 2.600 . S
Tb1260 O1304 2.546 . S
Tb1260 O1305 2.610 1_554 S
Tb1260 O1307 2.320 1_655 S
Tb1260 O1308 2.552 1_554 S
Tb1260 O1309 2.413 . S
Tb1260 O1311 2.362 1_655 S
Tb1260 O1312 2.421 1_554 S
Tb1260 C1324 2.833 . S
C1261 C1264 1.432 . S
C1261 C1265 1.414 . S
C1261 N1268 1.359 . S
C1262 C1264 1.417 . S
C1262 C1266 1.432 . S
C1262 C1274 1.410 1_455 S
C1263 C1265 1.444 . S
C1263 C1266 1.317 . S
C1263 H1286 0.929 . S
C1264 C1261 1.432 . S
C1264 C1262 1.417 . S
C1264 N1272 1.360 . S
C1265 C1261 1.414 . S
C1265 C1263 1.444 . S
C1265 C1270 1.385 . S
C1266 C1262 1.432 . S
C1266 C1263 1.317 . S
C1266 H1278 0.930 . S
C1267 C1269 1.392 . S
C1267 C1270 1.370 . S
C1267 H1279 0.931 . S
N1268 C1261 1.359 . S
N1268 C1269 1.327 . S
N1268 Tb1271 2.600 . S
C1269 C1267 1.392 . S
C1269 N1268 1.327 . S
C1269 H1276 0.930 . S
C1270 C1265 1.385 . S
C1270 C1267 1.370 . S
C1270 H1289 0.930 . S
Tb1271 N1268 2.600 . S
Tb1271 N1272 2.660 . S
Tb1271 O1305 2.362 1_455 S
Tb1271 O1306 2.421 1_556 S
Tb1271 O1310 2.546 . S
Tb1271 O1311 2.610 1_556 S
Tb1271 O1313 2.320 1_455 S
Tb1271 O1314 2.552 1_556 S
Tb1271 O1315 2.413 . S
Tb1271 C1335 2.833 . S
N1272 C1264 1.360 . S
N1272 Tb1271 2.660 . S
N1272 C1273 1.305 1_455 S
C1273 N1272 1.305 1_655 S
C1273 C1275 1.407 . S
C1273 H1280 0.930 . S
C1274 C1262 1.410 1_655 S
C1274 C1275 1.345 . S
C1274 H1282 0.930 . S
C1275 C1273 1.407 . S
C1275 C1274 1.345 . S
C1275 H1277 0.930 . S
H1276 C1269 0.930 . S
H1277 C1275 0.930 . S
H1278 C1266 0.930 . S
H1279 C1267 0.931 . S
H1280 C1273 0.930 . S
H1281 C1295 0.930 . S
H1282 C1274 0.930 . S
H1283 C1301 0.930 . S
H1284 C1292 0.930 . S
H1285 C1299 0.931 . S
H1286 C1263 0.929 . S
H1287 C1293 0.930 . S
H1288 C1326 0.930 . S
H1289 C1270 0.930 . S
H1290 C1325 0.929 . S
N1291 Tb1260 2.660 . S
N1291 C1292 1.305 1_655 S
N1291 C1296 1.360 . S
C1292 H1284 0.930 . S
C1292 N1291 1.305 1_455 S
C1292 C1295 1.407 . S
C1293 H1287 0.930 . S
C1293 C1294 1.410 1_455 S
C1293 C1295 1.345 . S
C1294 C1293 1.410 1_655 S
C1294 C1296 1.417 . S
C1294 C1326 1.432 . S
C1295 H1281 0.930 . S
C1295 C1292 1.407 . S
C1295 C1293 1.345 . S
C1296 N1291 1.360 . S
C1296 C1294 1.417 . S
C1296 C1300 1.432 . S
H1297 C1302 0.930 . S
N1298 Tb1260 2.600 . S
N1298 C1300 1.359 . S
N1298 C1301 1.327 . S
C1299 H1285 0.931 . S
C1299 C1301 1.392 . S
C1299 C1302 1.370 . S
C1300 C1296 1.432 . S
C1300 N1298 1.359 . S
C1300 C1303 1.414 . S
C1301 H1283 0.930 . S
C1301 N1298 1.327 . S
C1301 C1299 1.392 . S
C1302 H1297 0.930 . S
C1302 C1299 1.370 . S
C1302 C1303 1.385 . S
C1303 C1300 1.414 . S
C1303 C1302 1.385 . S
C1303 C1325 1.444 . S
O1304 Tb1260 2.546 . S
O1304 C1324 1.251 . S
O1305 Tb1260 2.610 1_556 S
O1305 Tb1271 2.362 1_655 S
O1305 C1316 1.283 . S
O1306 Tb1271 2.421 1_554 S
O1306 C1323 1.262 . S
O1307 Tb1260 2.320 1_455 S
O1307 C1323 1.260 . S
O1308 Tb1260 2.552 1_556 S
O1308 C1316 1.243 . S
O1309 Tb1260 2.413 . S
O1309 C1324 1.256 . S
O1310 Tb1271 2.546 . S
O1310 C1335 1.251 . S
O1311 Tb1260 2.362 1_455 S
O1311 Tb1271 2.610 1_554 S
O1311 C1327 1.283 . S
O1312 Tb1260 2.421 1_556 S
O1312 C1334 1.262 . S
O1313 Tb1271 2.320 1_655 S
O1313 C1334 1.260 . S
O1314 Tb1271 2.552 1_554 S
O1314 C1327 1.243 . S
O1315 Tb1271 2.413 . S
O1315 C1335 1.256 . S
C1316 O1305 1.283 . S
C1316 O1308 1.243 . S
C1317 C1319 1.382 . S
C1317 C1321 1.393 . S
C1317 C1324 1.500 . S
C1318 C1319 1.400 . S
C1318 C1320 1.384 . S
C1319 C1317 1.382 . S
C1319 C1318 1.400 . S
C1319 H1336 0.930 . S
C1320 C1318 1.384 . S
C1320 C1322 1.392 . S
C1320 H1337 0.931 . S
C1321 C1317 1.393 . S
C1321 C1322 1.401 . S
C1321 H1338 0.930 . S
C1322 C1320 1.392 . S
C1322 C1321 1.401 . S
C1322 H1339 0.930 . S
C1323 O1306 1.262 . S
C1323 O1307 1.260 . S
C1324 Tb1260 2.833 . S
C1324 O1304 1.251 . S
C1324 O1309 1.256 . S
C1324 C1317 1.500 . S
C1325 H1290 0.929 . S
C1325 C1303 1.444 . S
C1325 C1326 1.317 . S
C1326 H1288 0.930 . S
C1326 C1294 1.432 . S
C1326 C1325 1.317 . S
C1327 O1311 1.283 . S
C1327 O1314 1.243 . S
C1328 C1329 1.382 . S
C1328 C1332 1.393 . S
C1328 C1335 1.500 . S
C1329 C1328 1.382 . S
C1329 C1330 1.400 . S
C1329 H1340 0.930 . S
C1330 C1329 1.400 . S
C1330 C1331 1.384 . S
C1331 C1330 1.384 . S
C1331 C1333 1.392 . S
C1331 H1341 0.931 . S
C1332 C1328 1.393 . S
C1332 C1333 1.401 . S
C1332 H1342 0.930 . S
C1333 C1331 1.392 . S
C1333 C1332 1.401 . S
C1333 H1343 0.930 . S
C1334 O1312 1.262 . S
C1334 O1313 1.260 . S
C1335 Tb1271 2.833 . S
C1335 O1310 1.251 . S
C1335 O1315 1.256 . S
C1335 C1328 1.500 . S
H1336 C1319 0.930 . S
H1337 C1320 0.931 . S
H1338 C1321 0.930 . S
H1339 C1322 0.930 . S
H1340 C1329 0.930 . S
H1341 C1331 0.931 . S
H1342 C1332 0.930 . S
H1343 C1333 0.930 . S
H1344 C1362 0.951 . S
H1345 C1364 0.951 . S
H1346 C1366 0.950 . S
H1347 C1367 0.950 . S
H1348 C1369 0.950 . S
H1349 C1372 0.950 . S
H1350 C1373 0.950 . S
H1351 C1375 0.950 . S
H1352 C1376 0.950 . S
H1353 C1377 0.951 . S
H1354 C1379 0.951 . S
H1355 C1381 0.950 . S
H1356 C1382 0.950 . S
H1357 C1384 0.950 . S
H1358 C1387 0.950 . S
H1359 C1388 0.950 . S
H1360 C1390 0.950 . S
H1361 C1391 0.950 . S
C1362 H1344 0.951 . S
C1362 C1363 1.366 . S
C1362 C1364 1.388 . S
C1363 C1362 1.366 . S
C1363 C1367 1.385 . S
C1364 H1345 0.951 . S
C1364 C1362 1.388 . S
C1364 C1365 1.366 . S
C1365 C1364 1.366 . S
C1365 C1366 1.414 . S
C1365 C1368 1.499 . S
C1366 H1346 0.950 . S
C1366 C1365 1.414 . S
C1366 C1367 1.374 . S
C1367 H1347 0.950 . S
C1367 C1363 1.385 . S
C1367 C1366 1.374 . S
C1368 C1365 1.499 . S
C1368 C1369 1.373 . S
C1368 C1370 1.389 . S
C1369 H1348 0.950 . S
C1369 C1368 1.373 . S
C1369 C1385 1.377 . S
C1370 C1368 1.389 . S
C1370 C1371 1.524 . S
C1370 C1384 1.377 . S
C1371 C1370 1.524 . S
C1371 C1372 1.397 . S
C1371 C1376 1.363 . S
C1372 H1349 0.950 . S
C1372 C1371 1.397 . S
C1372 C1373 1.334 . S
C1373 H1350 0.950 . S
C1373 C1372 1.334 . S
C1373 C1374 1.287 . S
C1374 C1373 1.287 . S
C1374 C1375 1.524 . S
C1374 H1393 0.913 . S
C1375 H1351 0.950 . S
C1375 C1374 1.524 . S
C1375 C1376 1.415 . S
C1376 H1352 0.950 . S
C1376 C1371 1.363 . S
C1376 C1375 1.415 . S
C1377 H1353 0.951 . S
C1377 C1378 1.366 . S
C1377 C1379 1.388 . S
C1378 C1377 1.366 . S
C1378 C1382 1.385 . S
C1379 H1354 0.951 . S
C1379 C1377 1.388 . S
C1379 C1380 1.366 . S
C1380 C1379 1.366 . S
C1380 C1381 1.414 . S
C1380 C1383 1.499 . S
C1381 H1355 0.950 . S
C1381 C1380 1.414 . S
C1381 C1382 1.374 . S
C1382 H1356 0.950 . S
C1382 C1378 1.385 . S
C1382 C1381 1.374 . S
C1383 C1380 1.499 . S
C1383 C1384 1.373 . S
C1383 C1385 1.389 . S
C1384 H1357 0.950 . S
C1384 C1370 1.377 . S
C1384 C1383 1.373 . S
C1385 C1369 1.377 . S
C1385 C1383 1.389 . S
C1385 C1386 1.524 . S
C1386 C1385 1.524 . S
C1386 C1387 1.397 . S
C1386 C1391 1.363 . S
C1387 H1358 0.950 . S
C1387 C1386 1.397 . S
C1387 C1388 1.334 . S
C1388 H1359 0.950 . S
C1388 C1387 1.334 . S
C1388 C1389 1.287 . S
C1389 C1388 1.287 . S
C1389 C1390 1.524 . S
C1389 H1392 0.999 1_545 S
C1390 H1360 0.950 . S
C1390 C1389 1.524 . S
C1390 C1391 1.415 . S
C1391 H1361 0.950 . S
C1391 C1386 1.363 . S
C1391 C1390 1.415 . S
H1392 C1389 0.999 1_565 S
H1393 C1374 0.913 . S
H1394 C1412 0.951 1_545 S
H1395 C1414 0.951 . S
H1396 C1416 0.950 . S
H1397 C1417 0.950 . S
H1398 C1419 0.950 . S
H1399 C1422 0.950 . S
H1400 C1423 0.950 . S
H1401 C1425 0.950 1_545 S
H1402 C1426 0.950 . S
H1403 C1427 0.951 . S
H1404 C1429 0.951 . S
H1405 C1431 0.950 . S
H1406 C1432 0.950 . S
H1407 C1434 0.950 . S
H1408 C1437 0.950 . S
H1409 C1438 0.950 . S
H1410 C1440 0.950 . S
H1411 C1441 0.950 . S
C1412 H1394 0.951 1_565 S
C1412 C1413 1.366 . S
C1412 C1414 1.388 . S
C1413 C1412 1.366 . S
C1413 C1417 1.385 . S
C1414 H1395 0.951 . S
C1414 C1412 1.388 . S
C1414 C1415 1.366 . S
C1415 C1414 1.366 . S
C1415 C1416 1.414 . S
C1415 C1418 1.499 . S
C1416 H1396 0.950 . S
C1416 C1415 1.414 . S
C1416 C1417 1.374 . S
C1417 H1397 0.950 . S
C1417 C1413 1.385 . S
C1417 C1416 1.374 . S
C1418 C1415 1.499 . S
C1418 C1419 1.373 . S
C1418 C1420 1.389 . S
C1419 H1398 0.950 . S
C1419 C1418 1.373 . S
C1419 C1435 1.377 . S
C1420 C1418 1.389 . S
C1420 C1421 1.524 . S
C1420 C1434 1.377 . S
C1421 C1420 1.524 . S
C1421 C1422 1.397 . S
C1421 C1426 1.363 . S
C1422 H1399 0.950 . S
C1422 C1421 1.397 . S
C1422 C1423 1.334 1_554 S
C1423 H1400 0.950 . S
C1423 C1422 1.334 1_556 S
C1423 C1424 1.287 . S
C1424 C1423 1.287 . S
C1424 C1425 1.524 1_556 S
C1424 H1443 0.913 . S
C1425 H1401 0.950 1_565 S
C1425 C1424 1.524 1_554 S
C1425 C1426 1.415 . S
C1426 H1402 0.950 . S
C1426 C1421 1.363 . S
C1426 C1425 1.415 . S
C1427 H1403 0.951 . S
C1427 C1428 1.366 . S
C1427 C1429 1.388 . S
C1428 C1427 1.366 . S
C1428 C1432 1.385 . S
C1429 H1404 0.951 . S
C1429 C1427 1.388 . S
C1429 C1430 1.366 . S
C1430 C1429 1.366 . S
C1430 C1431 1.414 . S
C1430 C1433 1.499 . S
C1431 H1405 0.950 . S
C1431 C1430 1.414 . S
C1431 C1432 1.374 . S
C1432 H1406 0.950 . S
C1432 C1428 1.385 . S
C1432 C1431 1.374 . S
C1433 C1430 1.499 . S
C1433 C1434 1.373 . S
C1433 C1435 1.389 . S
C1434 H1407 0.950 . S
C1434 C1420 1.377 . S
C1434 C1433 1.373 . S
C1435 C1419 1.377 . S
C1435 C1433 1.389 . S
C1435 C1436 1.524 . S
C1436 C1435 1.524 . S
C1436 C1437 1.397 . S
C1436 C1441 1.363 . S
C1437 H1408 0.950 . S
C1437 C1436 1.397 . S
C1437 C1438 1.334 . S
C1438 H1409 0.950 . S
C1438 C1437 1.334 . S
C1438 C1439 1.287 . S
C1439 C1438 1.287 . S
C1439 C1440 1.524 . S
C1439 H1442 0.999 . S
C1440 H1410 0.950 . S
C1440 C1439 1.524 . S
C1440 C1441 1.415 . S
C1441 H1411 0.950 . S
C1441 C1436 1.363 . S
C1441 C1440 1.415 . S
H1442 C1439 0.999 . S
H1443 C1424 0.913 . S
H1444 C1462 0.951 . S
H1445 C1464 0.951 . S
H1446 C1466 0.950 . S
H1447 C1467 0.950 . S
H1448 C1469 0.950 . S
H1449 C1472 0.950 . S
H1450 C1473 0.950 . S
H1451 C1475 0.950 . S
H1452 C1476 0.950 . S
H1453 C1477 0.951 . S
H1454 C1479 0.951 . S
H1455 C1481 0.950 . S
H1456 C1482 0.950 . S
H1457 C1484 0.950 . S
H1458 C1487 0.950 . S
H1459 C1488 0.950 . S
H1460 C1490 0.950 . S
H1461 C1491 0.950 . S
C1462 H1444 0.951 . S
C1462 C1463 1.366 . S
C1462 C1464 1.388 . S
C1463 C1462 1.366 . S
C1463 C1467 1.385 . S
C1464 H1445 0.951 . S
C1464 C1462 1.388 . S
C1464 C1465 1.366 . S
C1465 C1464 1.366 . S
C1465 C1466 1.414 . S
C1465 C1468 1.499 . S
C1466 H1446 0.950 . S
C1466 C1465 1.414 . S
C1466 C1467 1.374 . S
C1467 H1447 0.950 . S
C1467 C1463 1.385 . S
C1467 C1466 1.374 . S
C1468 C1465 1.499 . S
C1468 C1469 1.373 . S
C1468 C1470 1.389 . S
C1469 H1448 0.950 . S
C1469 C1468 1.373 . S
C1469 C1485 1.377 . S
C1470 C1468 1.389 . S
C1470 C1471 1.524 . S
C1470 C1484 1.377 . S
C1471 C1470 1.524 . S
C1471 C1472 1.397 . S
C1471 C1476 1.363 . S
C1472 H1449 0.950 . S
C1472 C1471 1.397 . S
C1472 C1473 1.334 . S
C1473 H1450 0.950 . S
C1473 C1472 1.334 . S
C1473 C1474 1.287 . S
C1474 C1473 1.287 . S
C1474 C1475 1.524 . S
C1474 H1493 0.913 . S
C1475 H1451 0.950 . S
C1475 C1474 1.524 . S
C1475 C1476 1.415 . S
C1476 H1452 0.950 . S
C1476 C1471 1.363 . S
C1476 C1475 1.415 . S
C1477 H1453 0.951 . S
C1477 C1478 1.366 . S
C1477 C1479 1.388 . S
C1478 C1477 1.366 . S
C1478 C1482 1.385 . S
C1479 H1454 0.951 . S
C1479 C1477 1.388 . S
C1479 C1480 1.366 . S
C1480 C1479 1.366 . S
C1480 C1481 1.414 . S
C1480 C1483 1.499 . S
C1481 H1455 0.950 . S
C1481 C1480 1.414 . S
C1481 C1482 1.374 . S
C1482 H1456 0.950 . S
C1482 C1478 1.385 . S
C1482 C1481 1.374 . S
C1483 C1480 1.499 . S
C1483 C1484 1.373 . S
C1483 C1485 1.389 . S
C1484 H1457 0.950 . S
C1484 C1470 1.377 . S
C1484 C1483 1.373 . S
C1485 C1469 1.377 . S
C1485 C1483 1.389 . S
C1485 C1486 1.524 . S
C1486 C1485 1.524 . S
C1486 C1487 1.397 . S
C1486 C1491 1.363 . S
C1487 H1458 0.950 . S
C1487 C1486 1.397 . S
C1487 C1488 1.334 . S
C1488 H1459 0.950 . S
C1488 C1487 1.334 . S
C1488 C1489 1.287 . S
C1489 C1488 1.287 . S
C1489 C1490 1.524 . S
C1489 H1492 0.999 . S
C1490 H1460 0.950 . S
C1490 C1489 1.524 . S
C1490 C1491 1.415 . S
C1491 H1461 0.950 . S
C1491 C1486 1.363 . S
C1491 C1490 1.415 . S
H1492 C1489 0.999 . S
H1493 C1474 0.913 . S
H1494 C1512 0.951 . S
H1495 C1514 0.951 . S
H1496 C1516 0.950 . S
H1497 C1517 0.950 . S
H1498 C1519 0.950 . S
H1499 C1522 0.950 . S
H1500 C1523 0.950 . S
H1501 C1525 0.950 . S
H1502 C1526 0.950 . S
H1503 C1527 0.951 . S
H1504 C1529 0.951 . S
H1505 C1531 0.950 . S
H1506 C1532 0.950 . S
H1507 C1534 0.950 . S
H1508 C1537 0.950 . S
H1509 C1538 0.950 . S
H1510 C1540 0.950 . S
H1511 C1541 0.950 . S
C1512 H1494 0.951 . S
C1512 C1513 1.366 . S
C1512 C1514 1.388 . S
C1513 C1512 1.366 . S
C1513 C1517 1.385 . S
C1514 H1495 0.951 . S
C1514 C1512 1.388 . S
C1514 C1515 1.366 . S
C1515 C1514 1.366 . S
C1515 C1516 1.414 . S
C1515 C1518 1.499 . S
C1516 H1496 0.950 . S
C1516 C1515 1.414 . S
C1516 C1517 1.374 . S
C1517 H1497 0.950 . S
C1517 C1513 1.385 . S
C1517 C1516 1.374 . S
C1518 C1515 1.499 . S
C1518 C1519 1.373 . S
C1518 C1520 1.389 . S
C1519 H1498 0.950 . S
C1519 C1518 1.373 . S
C1519 C1535 1.377 . S
C1520 C1518 1.389 . S
C1520 C1521 1.524 . S
C1520 C1534 1.377 . S
C1521 C1520 1.524 . S
C1521 C1522 1.397 . S
C1521 C1526 1.363 . S
C1522 H1499 0.950 . S
C1522 C1521 1.397 . S
C1522 C1523 1.334 . S
C1523 H1500 0.950 . S
C1523 C1522 1.334 . S
C1523 C1524 1.287 . S
C1524 C1523 1.287 . S
C1524 C1525 1.524 . S
C1524 H1543 0.913 . S
C1525 H1501 0.950 . S
C1525 C1524 1.524 . S
C1525 C1526 1.415 . S
C1526 H1502 0.950 . S
C1526 C1521 1.363 . S
C1526 C1525 1.415 . S
C1527 H1503 0.951 . S
C1527 C1528 1.366 . S
C1527 C1529 1.388 . S
C1528 C1527 1.366 . S
C1528 C1532 1.385 . S
C1529 H1504 0.951 . S
C1529 C1527 1.388 . S
C1529 C1530 1.366 . S
C1530 C1529 1.366 . S
C1530 C1531 1.414 . S
C1530 C1533 1.499 . S
C1531 H1505 0.950 . S
C1531 C1530 1.414 . S
C1531 C1532 1.374 . S
C1532 H1506 0.950 . S
C1532 C1528 1.385 . S
C1532 C1531 1.374 . S
C1533 C1530 1.499 . S
C1533 C1534 1.373 . S
C1533 C1535 1.389 . S
C1534 H1507 0.950 . S
C1534 C1520 1.377 . S
C1534 C1533 1.373 . S
C1535 C1519 1.377 . S
C1535 C1533 1.389 . S
C1535 C1536 1.524 . S
C1536 C1535 1.524 . S
C1536 C1537 1.397 . S
C1536 C1541 1.363 . S
C1537 H1508 0.950 . S
C1537 C1536 1.397 . S
C1537 C1538 1.334 . S
C1538 H1509 0.950 . S
C1538 C1537 1.334 . S
C1538 C1539 1.287 . S
C1539 C1538 1.287 . S
C1539 C1540 1.524 . S
C1539 H1542 0.999 . S
C1540 H1510 0.950 . S
C1540 C1539 1.524 . S
C1540 C1541 1.415 . S
C1541 H1511 0.950 . S
C1541 C1536 1.363 . S
C1541 C1540 1.415 . S
H1542 C1539 0.999 . S
H1543 C1524 0.913 . S
H1544 C1562 0.951 . S
H1545 C1564 0.951 . S
H1546 C1566 0.950 . S
H1547 C1567 0.950 . S
H1548 C1569 0.950 . S
H1549 C1572 0.950 . S
H1550 C1573 0.950 . S
H1551 C1575 0.950 . S
H1552 C1576 0.950 . S
H1553 C1577 0.951 . S
H1554 C1579 0.951 . S
H1555 C1581 0.950 . S
H1556 C1582 0.950 . S
H1557 C1584 0.950 . S
H1558 C1587 0.950 . S
H1559 C1588 0.950 . S
H1560 C1590 0.950 . S
H1561 C1591 0.950 . S
C1562 H1544 0.951 . S
C1562 C1563 1.366 . S
C1562 C1564 1.388 . S
C1563 C1562 1.366 . S
C1563 C1567 1.385 . S
C1564 H1545 0.951 . S
C1564 C1562 1.388 . S
C1564 C1565 1.366 . S
C1565 C1564 1.366 . S
C1565 C1566 1.414 . S
C1565 C1568 1.499 . S
C1566 H1546 0.950 . S
C1566 C1565 1.414 . S
C1566 C1567 1.374 . S
C1567 H1547 0.950 . S
C1567 C1563 1.385 . S
C1567 C1566 1.374 . S
C1568 C1565 1.499 . S
C1568 C1569 1.373 . S
C1568 C1570 1.389 . S
C1569 H1548 0.950 . S
C1569 C1568 1.373 . S
C1569 C1585 1.377 . S
C1570 C1568 1.389 . S
C1570 C1571 1.524 . S
C1570 C1584 1.377 . S
C1571 C1570 1.524 . S
C1571 C1572 1.397 . S
C1571 C1576 1.363 . S
C1572 H1549 0.950 . S
C1572 C1571 1.397 . S
C1572 C1573 1.334 . S
C1573 H1550 0.950 . S
C1573 C1572 1.334 . S
C1573 C1574 1.287 . S
C1574 C1573 1.287 . S
C1574 C1575 1.524 . S
C1574 H1593 0.913 . S
C1575 H1551 0.950 . S
C1575 C1574 1.524 . S
C1575 C1576 1.415 . S
C1576 H1552 0.950 . S
C1576 C1571 1.363 . S
C1576 C1575 1.415 . S
C1577 H1553 0.951 . S
C1577 C1578 1.366 . S
C1577 C1579 1.388 . S
C1578 C1577 1.366 . S
C1578 C1582 1.385 . S
C1579 H1554 0.951 . S
C1579 C1577 1.388 . S
C1579 C1580 1.366 . S
C1580 C1579 1.366 . S
C1580 C1581 1.414 . S
C1580 C1583 1.499 . S
C1581 H1555 0.950 . S
C1581 C1580 1.414 . S
C1581 C1582 1.374 . S
C1582 H1556 0.950 . S
C1582 C1578 1.385 . S
C1582 C1581 1.374 . S
C1583 C1580 1.499 . S
C1583 C1584 1.373 . S
C1583 C1585 1.389 . S
C1584 H1557 0.950 . S
C1584 C1570 1.377 . S
C1584 C1583 1.373 . S
C1585 C1569 1.377 . S
C1585 C1583 1.389 . S
C1585 C1586 1.524 . S
C1586 C1585 1.524 . S
C1586 C1587 1.397 . S
C1586 C1591 1.363 . S
C1587 H1558 0.950 . S
C1587 C1586 1.397 . S
C1587 C1588 1.334 . S
C1588 H1559 0.950 . S
C1588 C1587 1.334 . S
C1588 C1589 1.287 . S
C1589 C1588 1.287 . S
C1589 C1590 1.524 . S
C1589 H1592 0.999 . S
C1590 H1560 0.950 . S
C1590 C1589 1.524 . S
C1590 C1591 1.415 . S
C1591 H1561 0.950 . S
C1591 C1586 1.363 . S
C1591 C1590 1.415 . S
H1592 C1589 0.999 . S
H1593 C1574 0.913 . S
H1594 C1612 0.951 . S
H1595 C1614 0.951 . S
H1596 C1616 0.950 . S
H1597 C1617 0.950 . S
H1598 C1619 0.950 . S
H1599 C1622 0.950 . S
H1600 C1623 0.950 . S
H1601 C1625 0.950 . S
H1602 C1626 0.950 . S
H1603 C1627 0.951 . S
H1604 C1629 0.951 . S
H1605 C1631 0.950 . S
H1606 C1632 0.950 . S
H1607 C1634 0.950 . S
H1608 C1637 0.950 . S
H1609 C1638 0.950 . S
H1610 C1640 0.950 . S
H1611 C1641 0.950 . S
C1612 H1594 0.951 . S
C1612 C1613 1.366 . S
C1612 C1614 1.388 . S
C1613 C1612 1.366 . S
C1613 C1617 1.385 . S
C1614 H1595 0.951 . S
C1614 C1612 1.388 . S
C1614 C1615 1.366 . S
C1615 C1614 1.366 . S
C1615 C1616 1.414 . S
C1615 C1618 1.499 . S
C1616 H1596 0.950 . S
C1616 C1615 1.414 . S
C1616 C1617 1.374 . S
C1617 H1597 0.950 . S
C1617 C1613 1.385 . S
C1617 C1616 1.374 . S
C1618 C1615 1.499 . S
C1618 C1619 1.373 . S
C1618 C1620 1.389 . S
C1619 H1598 0.950 . S
C1619 C1618 1.373 . S
C1619 C1635 1.377 . S
C1620 C1618 1.389 . S
C1620 C1621 1.524 . S
C1620 C1634 1.377 . S
C1621 C1620 1.524 . S
C1621 C1622 1.397 . S
C1621 C1626 1.363 . S
C1622 H1599 0.950 . S
C1622 C1621 1.397 . S
C1622 C1623 1.334 . S
C1623 H1600 0.950 . S
C1623 C1622 1.334 . S
C1623 C1624 1.287 . S
C1624 C1623 1.287 . S
C1624 C1625 1.524 . S
C1624 H1643 0.913 . S
C1625 H1601 0.950 . S
C1625 C1624 1.524 . S
C1625 C1626 1.415 . S
C1626 H1602 0.950 . S
C1626 C1621 1.363 . S
C1626 C1625 1.415 . S
C1627 H1603 0.951 . S
C1627 C1628 1.366 . S
C1627 C1629 1.388 . S
C1628 C1627 1.366 . S
C1628 C1632 1.385 . S
C1629 H1604 0.951 . S
C1629 C1627 1.388 . S
C1629 C1630 1.366 . S
C1630 C1629 1.366 . S
C1630 C1631 1.414 . S
C1630 C1633 1.499 . S
C1631 H1605 0.950 . S
C1631 C1630 1.414 . S
C1631 C1632 1.374 . S
C1632 H1606 0.950 . S
C1632 C1628 1.385 . S
C1632 C1631 1.374 . S
C1633 C1630 1.499 . S
C1633 C1634 1.373 . S
C1633 C1635 1.389 . S
C1634 H1607 0.950 . S
C1634 C1620 1.377 . S
C1634 C1633 1.373 . S
C1635 C1619 1.377 . S
C1635 C1633 1.389 . S
C1635 C1636 1.524 . S
C1636 C1635 1.524 . S
C1636 C1637 1.397 . S
C1636 C1641 1.363 . S
C1637 H1608 0.950 . S
C1637 C1636 1.397 . S
C1637 C1638 1.334 . S
C1638 H1609 0.950 . S
C1638 C1637 1.334 . S
C1638 C1639 1.287 . S
C1639 C1638 1.287 . S
C1639 C1640 1.524 . S
C1639 H1642 0.999 . S
C1640 H1610 0.950 . S
C1640 C1639 1.524 . S
C1640 C1641 1.415 . S
C1641 H1611 0.950 . S
C1641 C1636 1.363 . S
C1641 C1640 1.415 . S
H1642 C1639 0.999 . S
H1643 C1624 0.913 . S
H1644 C1662 0.951 . S
H1645 C1664 0.951 . S
H1646 C1666 0.950 . S
H1647 C1667 0.950 . S
H1648 C1669 0.950 . S
H1649 C1672 0.950 . S
H1650 C1673 0.950 . S
H1651 C1675 0.950 . S
H1652 C1676 0.950 . S
H1653 C1677 0.951 . S
H1654 C1679 0.951 . S
H1655 C1681 0.950 . S
H1656 C1682 0.950 . S
H1657 C1684 0.950 . S
H1658 C1687 0.950 . S
H1659 C1688 0.950 . S
H1660 C1690 0.950 . S
H1661 C1691 0.950 . S
C1662 H1644 0.951 . S
C1662 C1663 1.366 . S
C1662 C1664 1.388 . S
C1663 C1662 1.366 . S
C1663 C1667 1.385 . S
C1664 H1645 0.951 . S
C1664 C1662 1.388 . S
C1664 C1665 1.366 . S
C1665 C1664 1.366 . S
C1665 C1666 1.414 . S
C1665 C1668 1.499 . S
C1666 H1646 0.950 . S
C1666 C1665 1.414 . S
C1666 C1667 1.374 . S
C1667 H1647 0.950 . S
C1667 C1663 1.385 . S
C1667 C1666 1.374 . S
C1668 C1665 1.499 . S
C1668 C1669 1.373 . S
C1668 C1670 1.389 . S
C1669 H1648 0.950 . S
C1669 C1668 1.373 . S
C1669 C1685 1.377 . S
C1670 C1668 1.389 . S
C1670 C1671 1.524 . S
C1670 C1684 1.377 . S
C1671 C1670 1.524 . S
C1671 C1672 1.397 . S
C1671 C1676 1.363 . S
C1672 H1649 0.950 . S
C1672 C1671 1.397 . S
C1672 C1673 1.334 . S
C1673 H1650 0.950 . S
C1673 C1672 1.334 . S
C1673 C1674 1.287 . S
C1674 C1673 1.287 . S
C1674 C1675 1.524 . S
C1674 H1693 0.913 . S
C1675 H1651 0.950 . S
C1675 C1674 1.524 . S
C1675 C1676 1.415 . S
C1676 H1652 0.950 . S
C1676 C1671 1.363 . S
C1676 C1675 1.415 . S
C1677 H1653 0.951 . S
C1677 C1678 1.366 . S
C1677 C1679 1.388 . S
C1678 C1677 1.366 . S
C1678 C1682 1.385 . S
C1679 H1654 0.951 . S
C1679 C1677 1.388 . S
C1679 C1680 1.366 . S
C1680 C1679 1.366 . S
C1680 C1681 1.414 . S
C1680 C1683 1.499 . S
C1681 H1655 0.950 . S
C1681 C1680 1.414 . S
C1681 C1682 1.374 . S
C1682 H1656 0.950 . S
C1682 C1678 1.385 . S
C1682 C1681 1.374 . S
C1683 C1680 1.499 . S
C1683 C1684 1.373 . S
C1683 C1685 1.389 . S
C1684 H1657 0.950 . S
C1684 C1670 1.377 . S
C1684 C1683 1.373 . S
C1685 C1669 1.377 . S
C1685 C1683 1.389 . S
C1685 C1686 1.524 . S
C1686 C1685 1.524 . S
C1686 C1687 1.397 . S
C1686 C1691 1.363 . S
C1687 H1658 0.950 . S
C1687 C1686 1.397 . S
C1687 C1688 1.334 . S
C1688 H1659 0.950 . S
C1688 C1687 1.334 . S
C1688 C1689 1.287 . S
C1689 C1688 1.287 . S
C1689 C1690 1.524 . S
C1689 H1692 0.999 . S
C1690 H1660 0.950 . S
C1690 C1689 1.524 . S
C1690 C1691 1.415 . S
C1691 H1661 0.950 . S
C1691 C1686 1.363 . S
C1691 C1690 1.415 . S
H1692 C1689 0.999 . S
H1693 C1674 0.913 . S
H1694 C1712 0.951 . S
H1695 C1714 0.951 . S
H1696 C1716 0.950 . S
H1697 C1717 0.950 . S
H1698 C1719 0.950 . S
H1699 C1722 0.950 . S
H1700 C1723 0.950 . S
H1701 C1725 0.950 . S
H1702 C1726 0.950 . S
H1703 C1727 0.951 . S
H1704 C1729 0.951 . S
H1705 C1731 0.950 . S
H1706 C1732 0.950 . S
H1707 C1734 0.950 . S
H1708 C1737 0.950 . S
H1709 C1738 0.950 . S
H1710 C1740 0.950 . S
H1711 C1741 0.950 . S
C1712 H1694 0.951 . S
C1712 C1713 1.366 . S
C1712 C1714 1.388 . S
C1713 C1712 1.366 . S
C1713 C1717 1.385 . S
C1714 H1695 0.951 . S
C1714 C1712 1.388 . S
C1714 C1715 1.366 . S
C1715 C1714 1.366 . S
C1715 C1716 1.414 . S
C1715 C1718 1.499 . S
C1716 H1696 0.950 . S
C1716 C1715 1.414 . S
C1716 C1717 1.374 . S
C1717 H1697 0.950 . S
C1717 C1713 1.385 . S
C1717 C1716 1.374 . S
C1718 C1715 1.499 . S
C1718 C1719 1.373 . S
C1718 C1720 1.389 . S
C1719 H1698 0.950 . S
C1719 C1718 1.373 . S
C1719 C1735 1.377 . S
C1720 C1718 1.389 . S
C1720 C1721 1.524 . S
C1720 C1734 1.377 . S
C1721 C1720 1.524 . S
C1721 C1722 1.397 . S
C1721 C1726 1.363 . S
C1722 H1699 0.950 . S
C1722 C1721 1.397 . S
C1722 C1723 1.334 . S
C1723 H1700 0.950 . S
C1723 C1722 1.334 . S
C1723 C1724 1.287 . S
C1724 C1723 1.287 . S
C1724 C1725 1.524 . S
C1724 H1743 0.913 . S
C1725 H1701 0.950 . S
C1725 C1724 1.524 . S
C1725 C1726 1.415 . S
C1726 H1702 0.950 . S
C1726 C1721 1.363 . S
C1726 C1725 1.415 . S
C1727 H1703 0.951 . S
C1727 C1728 1.366 . S
C1727 C1729 1.388 . S
C1728 C1727 1.366 . S
C1728 C1732 1.385 . S
C1729 H1704 0.951 . S
C1729 C1727 1.388 . S
C1729 C1730 1.366 . S
C1730 C1729 1.366 . S
C1730 C1731 1.414 . S
C1730 C1733 1.499 . S
C1731 H1705 0.950 . S
C1731 C1730 1.414 . S
C1731 C1732 1.374 . S
C1732 H1706 0.950 . S
C1732 C1728 1.385 . S
C1732 C1731 1.374 . S
C1733 C1730 1.499 . S
C1733 C1734 1.373 . S
C1733 C1735 1.389 . S
C1734 H1707 0.950 . S
C1734 C1720 1.377 . S
C1734 C1733 1.373 . S
C1735 C1719 1.377 . S
C1735 C1733 1.389 . S
C1735 C1736 1.524 . S
C1736 C1735 1.524 . S
C1736 C1737 1.397 . S
C1736 C1741 1.363 . S
C1737 H1708 0.950 . S
C1737 C1736 1.397 . S
C1737 C1738 1.334 . S
C1738 H1709 0.950 . S
C1738 C1737 1.334 . S
C1738 C1739 1.287 . S
C1739 C1738 1.287 . S
C1739 C1740 1.524 . S
C1739 H1742 0.999 . S
C1740 H1710 0.950 . S
C1740 C1739 1.524 . S
C1740 C1741 1.415 . S
C1741 H1711 0.950 . S
C1741 C1736 1.363 . S
C1741 C1740 1.415 . S
H1742 C1739 0.999 . S
H1743 C1724 0.913 . S
H1744 C1762 0.951 . S
H1745 C1764 0.951 . S
H1746 C1766 0.950 . S
H1747 C1767 0.950 . S
H1748 C1769 0.950 . S
H1749 C1772 0.950 . S
H1750 C1773 0.950 . S
H1751 C1775 0.950 . S
H1752 C1776 0.950 . S
H1753 C1777 0.951 . S
H1754 C1779 0.951 . S
H1755 C1781 0.950 . S
H1756 C1782 0.950 . S
H1757 C1784 0.950 . S
H1758 C1787 0.950 . S
H1759 C1788 0.950 . S
H1760 C1790 0.950 1_455 S
H1761 C1791 0.950 . S
C1762 H1744 0.951 . S
C1762 C1763 1.366 . S
C1762 C1764 1.388 . S
C1763 C1762 1.366 . S
C1763 C1767 1.385 . S
C1764 H1745 0.951 . S
C1764 C1762 1.388 . S
C1764 C1765 1.366 . S
C1765 C1764 1.366 . S
C1765 C1766 1.414 . S
C1765 C1768 1.499 . S
C1766 H1746 0.950 . S
C1766 C1765 1.414 . S
C1766 C1767 1.374 . S
C1767 H1747 0.950 . S
C1767 C1763 1.385 . S
C1767 C1766 1.374 . S
C1768 C1765 1.499 . S
C1768 C1769 1.373 . S
C1768 C1770 1.389 . S
C1769 H1748 0.950 . S
C1769 C1768 1.373 . S
C1769 C1785 1.377 . S
C1770 C1768 1.389 . S
C1770 C1771 1.524 . S
C1770 C1784 1.377 . S
C1771 C1770 1.524 . S
C1771 C1772 1.397 . S
C1771 C1776 1.363 . S
C1772 H1749 0.950 . S
C1772 C1771 1.397 . S
C1772 C1773 1.334 . S
C1773 H1750 0.950 . S
C1773 C1772 1.334 . S
C1773 C1774 1.287 . S
C1774 C1773 1.287 . S
C1774 C1775 1.524 . S
C1774 H1793 0.913 . S
C1775 H1751 0.950 . S
C1775 C1774 1.524 . S
C1775 C1776 1.415 . S
C1776 H1752 0.950 . S
C1776 C1771 1.363 . S
C1776 C1775 1.415 . S
C1777 H1753 0.951 . S
C1777 C1778 1.366 . S
C1777 C1779 1.388 . S
C1778 C1777 1.366 . S
C1778 C1782 1.385 . S
C1779 H1754 0.951 . S
C1779 C1777 1.388 . S
C1779 C1780 1.366 . S
C1780 C1779 1.366 . S
C1780 C1781 1.414 . S
C1780 C1783 1.499 . S
C1781 H1755 0.950 . S
C1781 C1780 1.414 . S
C1781 C1782 1.374 . S
C1782 H1756 0.950 . S
C1782 C1778 1.385 . S
C1782 C1781 1.374 . S
C1783 C1780 1.499 . S
C1783 C1784 1.373 . S
C1783 C1785 1.389 . S
C1784 H1757 0.950 . S
C1784 C1770 1.377 . S
C1784 C1783 1.373 . S
C1785 C1769 1.377 . S
C1785 C1783 1.389 . S
C1785 C1786 1.524 . S
C1786 C1785 1.524 . S
C1786 C1787 1.397 . S
C1786 C1791 1.363 . S
C1787 H1758 0.950 . S
C1787 C1786 1.397 . S
C1787 C1788 1.334 . S
C1788 H1759 0.950 . S
C1788 C1787 1.334 . S
C1788 C1789 1.287 . S
C1789 C1788 1.287 . S
C1789 C1790 1.524 . S
C1789 H1792 0.999 . S
C1790 H1760 0.950 1_655 S
C1790 C1789 1.524 . S
C1790 C1791 1.415 . S
C1791 H1761 0.950 . S
C1791 C1786 1.363 . S
C1791 C1790 1.415 . S
H1792 C1789 0.999 . S
H1793 C1774 0.913 . S
H1794 C1812 0.951 . S
H1795 C1814 0.951 . S
H1796 C1816 0.950 . S
H1797 C1817 0.950 . S
H1798 C1819 0.950 . S
H1799 C1822 0.950 . S
H1800 C1823 0.950 . S
H1801 C1825 0.950 . S
H1802 C1826 0.950 . S
H1803 C1827 0.951 . S
H1804 C1829 0.951 . S
H1805 C1831 0.950 . S
H1806 C1832 0.950 . S
H1807 C1834 0.950 . S
H1808 C1837 0.950 . S
H1809 C1838 0.950 . S
H1810 C1840 0.950 . S
H1811 C1841 0.950 . S
C1812 H1794 0.951 . S
C1812 C1813 1.366 . S
C1812 C1814 1.388 . S
C1813 C1812 1.366 . S
C1813 C1817 1.385 . S
C1814 H1795 0.951 . S
C1814 C1812 1.388 . S
C1814 C1815 1.366 . S
C1815 C1814 1.366 . S
C1815 C1816 1.414 . S
C1815 C1818 1.499 . S
C1816 H1796 0.950 . S
C1816 C1815 1.414 . S
C1816 C1817 1.374 . S
C1817 H1797 0.950 . S
C1817 C1813 1.385 . S
C1817 C1816 1.374 . S
C1818 C1815 1.499 . S
C1818 C1819 1.373 . S
C1818 C1820 1.389 . S
C1819 H1798 0.950 . S
C1819 C1818 1.373 . S
C1819 C1835 1.377 . S
C1820 C1818 1.389 . S
C1820 C1821 1.524 . S
C1820 C1834 1.377 . S
C1821 C1820 1.524 . S
C1821 C1822 1.397 . S
C1821 C1826 1.363 . S
C1822 H1799 0.950 . S
C1822 C1821 1.397 . S
C1822 C1823 1.334 . S
C1823 H1800 0.950 . S
C1823 C1822 1.334 . S
C1823 C1824 1.287 . S
C1824 C1823 1.287 . S
C1824 C1825 1.524 . S
C1824 H1843 0.913 . S
C1825 H1801 0.950 . S
C1825 C1824 1.524 . S
C1825 C1826 1.415 . S
C1826 H1802 0.950 . S
C1826 C1821 1.363 . S
C1826 C1825 1.415 . S
C1827 H1803 0.951 . S
C1827 C1828 1.366 . S
C1827 C1829 1.388 . S
C1828 C1827 1.366 . S
C1828 C1832 1.385 . S
C1829 H1804 0.951 . S
C1829 C1827 1.388 . S
C1829 C1830 1.366 . S
C1830 C1829 1.366 . S
C1830 C1831 1.414 . S
C1830 C1833 1.499 . S
C1831 H1805 0.950 . S
C1831 C1830 1.414 . S
C1831 C1832 1.374 . S
C1832 H1806 0.950 . S
C1832 C1828 1.385 . S
C1832 C1831 1.374 . S
C1833 C1830 1.499 . S
C1833 C1834 1.373 . S
C1833 C1835 1.389 . S
C1834 H1807 0.950 . S
C1834 C1820 1.377 . S
C1834 C1833 1.373 . S
C1835 C1819 1.377 . S
C1835 C1833 1.389 . S
C1835 C1836 1.524 . S
C1836 C1835 1.524 . S
C1836 C1837 1.397 . S
C1836 C1841 1.363 . S
C1837 H1808 0.950 . S
C1837 C1836 1.397 . S
C1837 C1838 1.334 . S
C1838 H1809 0.950 . S
C1838 C1837 1.334 . S
C1838 C1839 1.287 . S
C1839 C1838 1.287 . S
C1839 C1840 1.524 . S
C1839 H1842 0.999 . S
C1840 H1810 0.950 . S
C1840 C1839 1.524 . S
C1840 C1841 1.415 . S
C1841 H1811 0.950 . S
C1841 C1836 1.363 . S
C1841 C1840 1.415 . S
H1842 C1839 0.999 . S
H1843 C1824 0.913 . S
H1844 C1862 0.951 . S
H1845 C1864 0.951 . S
H1846 C1866 0.950 . S
H1847 C1867 0.950 . S
H1848 C1869 0.950 . S
H1849 C1872 0.950 . S
H1850 C1873 0.950 . S
H1851 C1875 0.950 . S
H1852 C1876 0.950 . S
H1853 C1877 0.951 . S
H1854 C1879 0.951 . S
H1855 C1881 0.950 . S
H1856 C1882 0.950 . S
H1857 C1884 0.950 . S
H1858 C1887 0.950 . S
H1859 C1888 0.950 . S
H1860 C1890 0.950 . S
H1861 C1891 0.950 . S
C1862 H1844 0.951 . S
C1862 C1863 1.366 . S
C1862 C1864 1.388 . S
C1863 C1862 1.366 . S
C1863 C1867 1.385 . S
C1864 H1845 0.951 . S
C1864 C1862 1.388 . S
C1864 C1865 1.366 . S
C1865 C1864 1.366 . S
C1865 C1866 1.414 . S
C1865 C1868 1.499 . S
C1866 H1846 0.950 . S
C1866 C1865 1.414 . S
C1866 C1867 1.374 . S
C1867 H1847 0.950 . S
C1867 C1863 1.385 . S
C1867 C1866 1.374 . S
C1868 C1865 1.499 . S
C1868 C1869 1.373 . S
C1868 C1870 1.389 . S
C1869 H1848 0.950 . S
C1869 C1868 1.373 . S
C1869 C1885 1.377 . S
C1870 C1868 1.389 . S
C1870 C1871 1.524 . S
C1870 C1884 1.377 . S
C1871 C1870 1.524 . S
C1871 C1872 1.397 . S
C1871 C1876 1.363 . S
C1872 H1849 0.950 . S
C1872 C1871 1.397 . S
C1872 C1873 1.334 . S
C1873 H1850 0.950 . S
C1873 C1872 1.334 . S
C1873 C1874 1.287 . S
C1874 C1873 1.287 . S
C1874 C1875 1.524 . S
C1874 H1893 0.913 . S
C1875 H1851 0.950 . S
C1875 C1874 1.524 . S
C1875 C1876 1.415 . S
C1876 H1852 0.950 . S
C1876 C1871 1.363 . S
C1876 C1875 1.415 . S
C1877 H1853 0.951 . S
C1877 C1878 1.366 . S
C1877 C1879 1.388 . S
C1878 C1877 1.366 . S
C1878 C1882 1.385 . S
C1879 H1854 0.951 . S
C1879 C1877 1.388 . S
C1879 C1880 1.366 . S
C1880 C1879 1.366 . S
C1880 C1881 1.414 . S
C1880 C1883 1.499 . S
C1881 H1855 0.950 . S
C1881 C1880 1.414 . S
C1881 C1882 1.374 . S
C1882 H1856 0.950 . S
C1882 C1878 1.385 . S
C1882 C1881 1.374 . S
C1883 C1880 1.499 . S
C1883 C1884 1.373 . S
C1883 C1885 1.389 . S
C1884 H1857 0.950 . S
C1884 C1870 1.377 . S
C1884 C1883 1.373 . S
C1885 C1869 1.377 . S
C1885 C1883 1.389 . S
C1885 C1886 1.524 . S
C1886 C1885 1.524 . S
C1886 C1887 1.397 . S
C1886 C1891 1.363 . S
C1887 H1858 0.950 . S
C1887 C1886 1.397 . S
C1887 C1888 1.334 . S
C1888 H1859 0.950 . S
C1888 C1887 1.334 . S
C1888 C1889 1.287 . S
C1889 C1888 1.287 . S
C1889 C1890 1.524 . S
C1889 H1892 0.999 . S
C1890 H1860 0.950 . S
C1890 C1889 1.524 . S
C1890 C1891 1.415 . S
C1891 H1861 0.950 . S
C1891 C1886 1.363 . S
C1891 C1890 1.415 . S
H1892 C1889 0.999 . S
H1893 C1874 0.913 . S
H1894 C1912 0.951 . S
H1895 C1914 0.951 . S
H1896 C1916 0.950 . S
H1897 C1917 0.950 . S
H1898 C1919 0.950 . S
H1899 C1922 0.950 . S
H1900 C1923 0.950 . S
H1901 C1925 0.950 . S
H1902 C1926 0.950 . S
H1903 C1927 0.951 . S
H1904 C1929 0.951 . S
H1905 C1931 0.950 . S
H1906 C1932 0.950 . S
H1907 C1934 0.950 . S
H1908 C1937 0.950 . S
H1909 C1938 0.950 . S
H1910 C1940 0.950 . S
H1911 C1941 0.950 . S
C1912 H1894 0.951 . S
C1912 C1913 1.366 . S
C1912 C1914 1.388 . S
C1913 C1912 1.366 . S
C1913 C1917 1.385 . S
C1914 H1895 0.951 . S
C1914 C1912 1.388 . S
C1914 C1915 1.366 . S
C1915 C1914 1.366 . S
C1915 C1916 1.414 . S
C1915 C1918 1.499 . S
C1916 H1896 0.950 . S
C1916 C1915 1.414 . S
C1916 C1917 1.374 . S
C1917 H1897 0.950 . S
C1917 C1913 1.385 . S
C1917 C1916 1.374 . S
C1918 C1915 1.499 . S
C1918 C1919 1.373 . S
C1918 C1920 1.389 . S
C1919 H1898 0.950 . S
C1919 C1918 1.373 . S
C1919 C1935 1.377 . S
C1920 C1918 1.389 . S
C1920 C1921 1.524 . S
C1920 C1934 1.377 . S
C1921 C1920 1.524 . S
C1921 C1922 1.397 . S
C1921 C1926 1.363 . S
C1922 H1899 0.950 . S
C1922 C1921 1.397 . S
C1922 C1923 1.334 . S
C1923 H1900 0.950 . S
C1923 C1922 1.334 . S
C1923 C1924 1.287 . S
C1924 C1923 1.287 . S
C1924 C1925 1.524 . S
C1924 H1943 0.913 . S
C1925 H1901 0.950 . S
C1925 C1924 1.524 . S
C1925 C1926 1.415 . S
C1926 H1902 0.950 . S
C1926 C1921 1.363 . S
C1926 C1925 1.415 . S
C1927 H1903 0.951 . S
C1927 C1928 1.366 . S
C1927 C1929 1.388 . S
C1928 C1927 1.366 . S
C1928 C1932 1.385 . S
C1929 H1904 0.951 . S
C1929 C1927 1.388 . S
C1929 C1930 1.366 . S
C1930 C1929 1.366 . S
C1930 C1931 1.414 . S
C1930 C1933 1.499 . S
C1931 H1905 0.950 . S
C1931 C1930 1.414 . S
C1931 C1932 1.374 . S
C1932 H1906 0.950 . S
C1932 C1928 1.385 . S
C1932 C1931 1.374 . S
C1933 C1930 1.499 . S
C1933 C1934 1.373 . S
C1933 C1935 1.389 . S
C1934 H1907 0.950 . S
C1934 C1920 1.377 . S
C1934 C1933 1.373 . S
C1935 C1919 1.377 . S
C1935 C1933 1.389 . S
C1935 C1936 1.524 . S
C1936 C1935 1.524 . S
C1936 C1937 1.397 . S
C1936 C1941 1.363 . S
C1937 H1908 0.950 . S
C1937 C1936 1.397 . S
C1937 C1938 1.334 . S
C1938 H1909 0.950 . S
C1938 C1937 1.334 . S
C1938 C1939 1.287 . S
C1939 C1938 1.287 . S
C1939 C1940 1.524 . S
C1939 H1942 0.999 . S
C1940 H1910 0.950 . S
C1940 C1939 1.524 . S
C1940 C1941 1.415 . S
C1941 H1911 0.950 . S
C1941 C1936 1.363 . S
C1941 C1940 1.415 . S
H1942 C1939 0.999 . S
H1943 C1924 0.913 . S
H1944 C1962 0.951 . S
H1945 C1964 0.951 . S
H1946 C1966 0.950 . S
H1947 C1967 0.950 . S
H1948 C1969 0.950 . S
H1949 C1972 0.950 . S
H1950 C1973 0.950 . S
H1951 C1975 0.950 . S
H1952 C1976 0.950 . S
H1953 C1977 0.951 . S
H1954 C1979 0.951 . S
H1955 C1981 0.950 . S
H1956 C1982 0.950 . S
H1957 C1984 0.950 . S
H1958 C1987 0.950 . S
H1959 C1988 0.950 . S
H1960 C1990 0.950 . S
H1961 C1991 0.950 . S
C1962 H1944 0.951 . S
C1962 C1963 1.366 . S
C1962 C1964 1.388 . S
C1963 C1962 1.366 . S
C1963 C1967 1.385 . S
C1964 H1945 0.951 . S
C1964 C1962 1.388 . S
C1964 C1965 1.366 . S
C1965 C1964 1.366 . S
C1965 C1966 1.414 . S
C1965 C1968 1.499 . S
C1966 H1946 0.950 . S
C1966 C1965 1.414 . S
C1966 C1967 1.374 . S
C1967 H1947 0.950 . S
C1967 C1963 1.385 . S
C1967 C1966 1.374 . S
C1968 C1965 1.499 . S
C1968 C1969 1.373 . S
C1968 C1970 1.389 . S
C1969 H1948 0.950 . S
C1969 C1968 1.373 . S
C1969 C1985 1.377 . S
C1970 C1968 1.389 . S
C1970 C1971 1.524 . S
C1970 C1984 1.377 . S
C1971 C1970 1.524 . S
C1971 C1972 1.397 . S
C1971 C1976 1.363 . S
C1972 H1949 0.950 . S
C1972 C1971 1.397 . S
C1972 C1973 1.334 . S
C1973 H1950 0.950 . S
C1973 C1972 1.334 . S
C1973 C1974 1.287 . S
C1974 C1973 1.287 . S
C1974 C1975 1.524 . S
C1974 H1993 0.913 . S
C1975 H1951 0.950 . S
C1975 C1974 1.524 . S
C1975 C1976 1.415 . S
C1976 H1952 0.950 . S
C1976 C1971 1.363 . S
C1976 C1975 1.415 . S
C1977 H1953 0.951 . S
C1977 C1978 1.366 . S
C1977 C1979 1.388 . S
C1978 C1977 1.366 . S
C1978 C1982 1.385 . S
C1979 H1954 0.951 . S
C1979 C1977 1.388 . S
C1979 C1980 1.366 . S
C1980 C1979 1.366 . S
C1980 C1981 1.414 . S
C1980 C1983 1.499 . S
C1981 H1955 0.950 . S
C1981 C1980 1.414 . S
C1981 C1982 1.374 . S
C1982 H1956 0.950 . S
C1982 C1978 1.385 . S
C1982 C1981 1.374 . S
C1983 C1980 1.499 . S
C1983 C1984 1.373 . S
C1983 C1985 1.389 . S
C1984 H1957 0.950 . S
C1984 C1970 1.377 . S
C1984 C1983 1.373 . S
C1985 C1969 1.377 . S
C1985 C1983 1.389 . S
C1985 C1986 1.524 . S
C1986 C1985 1.524 . S
C1986 C1987 1.397 . S
C1986 C1991 1.363 . S
C1987 H1958 0.950 . S
C1987 C1986 1.397 . S
C1987 C1988 1.334 . S
C1988 H1959 0.950 . S
C1988 C1987 1.334 . S
C1988 C1989 1.287 . S
C1989 C1988 1.287 . S
C1989 C1990 1.524 . S
C1989 H1992 0.999 . S
C1990 H1960 0.950 . S
C1990 C1989 1.524 . S
C1990 C1991 1.415 . S
C1991 H1961 0.950 . S
C1991 C1986 1.363 . S
C1991 C1990 1.415 . S
H1992 C1989 0.999 . S
H1993 C1974 0.913 . S
H1994 C2012 0.951 . S
H1995 C2014 0.951 . S
H1996 C2016 0.950 . S
H1997 C2017 0.950 . S
H1998 C2019 0.950 . S
H1999 C2022 0.950 . S
H2000 C2023 0.950 . S
H2001 C2025 0.950 . S
H2002 C2026 0.950 . S
H2003 C2027 0.951 . S
H2004 C2029 0.951 . S
H2005 C2031 0.950 . S
H2006 C2032 0.950 . S
H2007 C2034 0.950 . S
H2008 C2037 0.950 . S
H2009 C2038 0.950 . S
H2010 C2040 0.950 . S
H2011 C2041 0.950 . S
C2012 H1994 0.951 . S
C2012 C2013 1.366 . S
C2012 C2014 1.388 . S
C2013 C2012 1.366 . S
C2013 C2017 1.385 . S
C2014 H1995 0.951 . S
C2014 C2012 1.388 . S
C2014 C2015 1.366 . S
C2015 C2014 1.366 . S
C2015 C2016 1.414 . S
C2015 C2018 1.499 . S
C2016 H1996 0.950 . S
C2016 C2015 1.414 . S
C2016 C2017 1.374 . S
C2017 H1997 0.950 . S
C2017 C2013 1.385 . S
C2017 C2016 1.374 . S
C2018 C2015 1.499 . S
C2018 C2019 1.373 . S
C2018 C2020 1.389 . S
C2019 H1998 0.950 . S
C2019 C2018 1.373 . S
C2019 C2035 1.377 . S
C2020 C2018 1.389 . S
C2020 C2021 1.524 . S
C2020 C2034 1.377 . S
C2021 C2020 1.524 . S
C2021 C2022 1.397 . S
C2021 C2026 1.363 . S
C2022 H1999 0.950 . S
C2022 C2021 1.397 . S
C2022 C2023 1.334 . S
C2023 H2000 0.950 . S
C2023 C2022 1.334 . S
C2023 C2024 1.287 . S
C2024 C2023 1.287 . S
C2024 C2025 1.524 . S
C2024 H2043 0.913 . S
C2025 H2001 0.950 . S
C2025 C2024 1.524 . S
C2025 C2026 1.415 . S
C2026 H2002 0.950 . S
C2026 C2021 1.363 . S
C2026 C2025 1.415 . S
C2027 H2003 0.951 . S
C2027 C2028 1.366 . S
C2027 C2029 1.388 . S
C2028 C2027 1.366 . S
C2028 C2032 1.385 . S
C2029 H2004 0.951 . S
C2029 C2027 1.388 . S
C2029 C2030 1.366 . S
C2030 C2029 1.366 . S
C2030 C2031 1.414 . S
C2030 C2033 1.499 . S
C2031 H2005 0.950 . S
C2031 C2030 1.414 . S
C2031 C2032 1.374 . S
C2032 H2006 0.950 . S
C2032 C2028 1.385 . S
C2032 C2031 1.374 . S
C2033 C2030 1.499 . S
C2033 C2034 1.373 . S
C2033 C2035 1.389 . S
C2034 H2007 0.950 . S
C2034 C2020 1.377 . S
C2034 C2033 1.373 . S
C2035 C2019 1.377 . S
C2035 C2033 1.389 . S
C2035 C2036 1.524 . S
C2036 C2035 1.524 . S
C2036 C2037 1.397 . S
C2036 C2041 1.363 . S
C2037 H2008 0.950 . S
C2037 C2036 1.397 . S
C2037 C2038 1.334 . S
C2038 H2009 0.950 . S
C2038 C2037 1.334 . S
C2038 C2039 1.287 . S
C2039 C2038 1.287 . S
C2039 C2040 1.524 . S
C2039 H2042 0.999 . S
C2040 H2010 0.950 . S
C2040 C2039 1.524 . S
C2040 C2041 1.415 . S
C2041 H2011 0.950 . S
C2041 C2036 1.363 . S
C2041 C2040 1.415 . S
H2042 C2039 0.999 . S
H2043 C2024 0.913 . S
H2044 C2062 0.951 . S
H2045 C2064 0.951 . S
H2046 C2066 0.950 . S
H2047 C2067 0.950 . S
H2048 C2069 0.950 . S
H2049 C2072 0.950 . S
H2050 C2073 0.950 . S
H2051 C2075 0.950 . S
H2052 C2076 0.950 . S
H2053 C2077 0.951 . S
H2054 C2079 0.951 . S
H2055 C2081 0.950 . S
H2056 C2082 0.950 . S
H2057 C2084 0.950 . S
H2058 C2087 0.950 . S
H2059 C2088 0.950 . S
H2060 C2090 0.950 . S
H2061 C2091 0.950 . S
C2062 H2044 0.951 . S
C2062 C2063 1.366 . S
C2062 C2064 1.388 . S
C2063 C2062 1.366 . S
C2063 C2067 1.385 . S
C2064 H2045 0.951 . S
C2064 C2062 1.388 . S
C2064 C2065 1.366 . S
C2065 C2064 1.366 . S
C2065 C2066 1.414 . S
C2065 C2068 1.499 . S
C2066 H2046 0.950 . S
C2066 C2065 1.414 . S
C2066 C2067 1.374 . S
C2067 H2047 0.950 . S
C2067 C2063 1.385 . S
C2067 C2066 1.374 . S
C2068 C2065 1.499 . S
C2068 C2069 1.373 . S
C2068 C2070 1.389 . S
C2069 H2048 0.950 . S
C2069 C2068 1.373 . S
C2069 C2085 1.377 . S
C2070 C2068 1.389 . S
C2070 C2071 1.524 . S
C2070 C2084 1.377 . S
C2071 C2070 1.524 . S
C2071 C2072 1.397 . S
C2071 C2076 1.363 . S
C2072 H2049 0.950 . S
C2072 C2071 1.397 . S
C2072 C2073 1.334 . S
C2073 H2050 0.950 . S
C2073 C2072 1.334 . S
C2073 C2074 1.287 . S
C2074 C2073 1.287 . S
C2074 C2075 1.524 . S
C2074 H2093 0.913 . S
C2075 H2051 0.950 . S
C2075 C2074 1.524 . S
C2075 C2076 1.415 . S
C2076 H2052 0.950 . S
C2076 C2071 1.363 . S
C2076 C2075 1.415 . S
C2077 H2053 0.951 . S
C2077 C2078 1.366 . S
C2077 C2079 1.388 . S
C2078 C2077 1.366 . S
C2078 C2082 1.385 . S
C2079 H2054 0.951 . S
C2079 C2077 1.388 . S
C2079 C2080 1.366 . S
C2080 C2079 1.366 . S
C2080 C2081 1.414 . S
C2080 C2083 1.499 . S
C2081 H2055 0.950 . S
C2081 C2080 1.414 . S
C2081 C2082 1.374 . S
C2082 H2056 0.950 . S
C2082 C2078 1.385 . S
C2082 C2081 1.374 . S
C2083 C2080 1.499 . S
C2083 C2084 1.373 . S
C2083 C2085 1.389 . S
C2084 H2057 0.950 . S
C2084 C2070 1.377 . S
C2084 C2083 1.373 . S
C2085 C2069 1.377 . S
C2085 C2083 1.389 . S
C2085 C2086 1.524 . S
C2086 C2085 1.524 . S
C2086 C2087 1.397 . S
C2086 C2091 1.363 . S
C2087 H2058 0.950 . S
C2087 C2086 1.397 . S
C2087 C2088 1.334 . S
C2088 H2059 0.950 . S
C2088 C2087 1.334 . S
C2088 C2089 1.287 . S
C2089 C2088 1.287 . S
C2089 C2090 1.524 . S
C2089 H2092 0.999 . S
C2090 H2060 0.950 . S
C2090 C2089 1.524 . S
C2090 C2091 1.415 . S
C2091 H2061 0.950 . S
C2091 C2086 1.363 . S
C2091 C2090 1.415 . S
H2092 C2089 0.999 . S
H2093 C2074 0.913 . S
H2094 C2112 0.951 . S
H2095 C2114 0.951 . S
H2096 C2116 0.950 . S
H2097 C2117 0.950 . S
H2098 C2119 0.950 . S
H2099 C2122 0.950 . S
H2100 C2123 0.950 . S
H2101 C2125 0.939 1_655 S
H2102 C2126 0.950 . S
H2103 C2127 0.951 . S
H2104 C2129 0.951 . S
H2105 C2131 0.950 . S
H2106 C2132 0.950 . S
H2107 C2134 0.950 . S
H2108 C2137 0.950 . S
H2109 C2138 0.950 . S
H2110 C2140 0.950 . S
H2111 C2141 0.950 . S
C2112 H2094 0.951 . S
C2112 C2113 1.366 . S
C2112 C2114 1.388 . S
C2113 C2112 1.366 . S
C2113 C2117 1.385 . S
C2114 H2095 0.951 . S
C2114 C2112 1.388 . S
C2114 C2115 1.366 . S
C2115 C2114 1.366 . S
C2115 C2116 1.414 . S
C2115 C2118 1.499 . S
C2116 H2096 0.950 . S
C2116 C2115 1.414 . S
C2116 C2117 1.374 . S
C2117 H2097 0.950 . S
C2117 C2113 1.385 . S
C2117 C2116 1.374 . S
C2118 C2115 1.499 . S
C2118 C2119 1.373 . S
C2118 C2120 1.389 . S
C2119 H2098 0.950 . S
C2119 C2118 1.373 . S
C2119 C2135 1.377 . S
C2120 C2118 1.389 . S
C2120 C2121 1.524 . S
C2120 C2134 1.377 . S
C2121 C2120 1.524 . S
C2121 C2122 1.397 . S
C2121 C2126 1.363 . S
C2122 H2099 0.950 . S
C2122 C2121 1.397 . S
C2122 C2123 1.334 . S
C2123 H2100 0.950 . S
C2123 C2122 1.334 . S
C2123 C2124 1.287 . S
C2124 C2123 1.287 . S
C2124 C2125 1.524 . S
C2124 H2143 0.913 . S
C2125 H2101 0.939 1_455 S
C2125 C2124 1.524 . S
C2125 C2126 1.415 . S
C2126 H2102 0.950 . S
C2126 C2121 1.363 . S
C2126 C2125 1.415 . S
C2127 H2103 0.951 . S
C2127 C2128 1.366 . S
C2127 C2129 1.388 . S
C2128 C2127 1.366 . S
C2128 C2132 1.385 . S
C2129 H2104 0.951 . S
C2129 C2127 1.388 . S
C2129 C2130 1.366 . S
C2130 C2129 1.366 . S
C2130 C2131 1.414 . S
C2130 C2133 1.499 . S
C2131 H2105 0.950 . S
C2131 C2130 1.414 . S
C2131 C2132 1.374 . S
C2132 H2106 0.950 . S
C2132 C2128 1.385 . S
C2132 C2131 1.374 . S
C2133 C2130 1.499 . S
C2133 C2134 1.373 . S
C2133 C2135 1.389 . S
C2134 H2107 0.950 . S
C2134 C2120 1.377 . S
C2134 C2133 1.373 . S
C2135 C2119 1.377 . S
C2135 C2133 1.389 . S
C2135 C2136 1.524 . S
C2136 C2135 1.524 . S
C2136 C2137 1.397 . S
C2136 C2141 1.363 . S
C2137 H2108 0.950 . S
C2137 C2136 1.397 . S
C2137 C2138 1.334 . S
C2138 H2109 0.950 . S
C2138 C2137 1.334 . S
C2138 C2139 1.287 . S
C2139 C2138 1.287 . S
C2139 C2140 1.524 . S
C2139 H2142 0.999 . S
C2140 H2110 0.950 . S
C2140 C2139 1.524 . S
C2140 C2141 1.415 . S
C2141 H2111 0.950 . S
C2141 C2136 1.363 . S
C2141 C2140 1.415 . S
H2142 C2139 0.999 . S
H2143 C2124 0.913 . S
H2144 C2162 0.951 . S
H2145 C2164 0.951 . S
H2146 C2166 0.950 . S
H2147 C2167 0.950 . S
H2148 C2169 0.950 . S
H2149 C2172 0.950 . S
H2150 C2173 0.950 . S
H2151 C2175 0.950 . S
H2152 C2176 0.950 . S
H2153 C2177 0.951 . S
H2154 C2179 0.951 . S
H2155 C2181 0.950 . S
H2156 C2182 0.950 . S
H2157 C2184 0.950 . S
H2158 C2187 0.950 . S
H2159 C2188 0.950 . S
H2160 C2190 0.950 . S
H2161 C2191 0.950 . S
C2162 H2144 0.951 . S
C2162 C2163 1.366 . S
C2162 C2164 1.388 . S
C2163 C2162 1.366 . S
C2163 C2167 1.385 . S
C2164 H2145 0.951 . S
C2164 C2162 1.388 . S
C2164 C2165 1.366 . S
C2165 C2164 1.366 . S
C2165 C2166 1.414 . S
C2165 C2168 1.499 . S
C2166 H2146 0.950 . S
C2166 C2165 1.414 . S
C2166 C2167 1.374 . S
C2167 H2147 0.950 . S
C2167 C2163 1.385 . S
C2167 C2166 1.374 . S
C2168 C2165 1.499 . S
C2168 C2169 1.373 . S
C2168 C2170 1.389 . S
C2169 H2148 0.950 . S
C2169 C2168 1.373 . S
C2169 C2185 1.377 . S
C2170 C2168 1.389 . S
C2170 C2171 1.524 . S
C2170 C2184 1.377 . S
C2171 C2170 1.524 . S
C2171 C2172 1.397 . S
C2171 C2176 1.363 . S
C2172 H2149 0.950 . S
C2172 C2171 1.397 . S
C2172 C2173 1.334 . S
C2173 H2150 0.950 . S
C2173 C2172 1.334 . S
C2173 C2174 1.287 . S
C2174 C2173 1.287 . S
C2174 C2175 1.524 . S
C2174 H2193 0.913 . S
C2175 H2151 0.950 . S
C2175 C2174 1.524 . S
C2175 C2176 1.415 . S
C2176 H2152 0.950 . S
C2176 C2171 1.363 . S
C2176 C2175 1.415 . S
C2177 H2153 0.951 . S
C2177 C2178 1.366 . S
C2177 C2179 1.388 . S
C2178 C2177 1.366 . S
C2178 C2182 1.385 . S
C2179 H2154 0.951 . S
C2179 C2177 1.388 . S
C2179 C2180 1.366 . S
C2180 C2179 1.366 . S
C2180 C2181 1.414 . S
C2180 C2183 1.499 . S
C2181 H2155 0.950 . S
C2181 C2180 1.414 . S
C2181 C2182 1.374 . S
C2182 H2156 0.950 . S
C2182 C2178 1.385 . S
C2182 C2181 1.374 . S
C2183 C2180 1.499 . S
C2183 C2184 1.373 . S
C2183 C2185 1.389 . S
C2184 H2157 0.950 . S
C2184 C2170 1.377 . S
C2184 C2183 1.373 . S
C2185 C2169 1.377 . S
C2185 C2183 1.389 . S
C2185 C2186 1.524 . S
C2186 C2185 1.524 . S
C2186 C2187 1.397 . S
C2186 C2191 1.363 . S
C2187 H2158 0.950 . S
C2187 C2186 1.397 . S
C2187 C2188 1.334 . S
C2188 H2159 0.950 . S
C2188 C2187 1.334 . S
C2188 C2189 1.287 . S
C2189 C2188 1.287 . S
C2189 C2190 1.524 . S
C2189 H2192 0.999 . S
C2190 H2160 0.950 . S
C2190 C2189 1.524 . S
C2190 C2191 1.415 . S
C2191 H2161 0.950 . S
C2191 C2186 1.363 . S
C2191 C2190 1.415 . S
H2192 C2189 0.999 . S
H2193 C2174 0.913 . S
H2194 C2212 0.951 . S
H2195 C2214 0.951 . S
H2196 C2216 0.950 . S
H2197 C2217 0.950 . S
H2198 C2219 0.950 . S
H2199 C2222 0.950 . S
H2200 C2223 0.950 . S
H2201 C2225 0.950 . S
H2202 C2226 0.950 . S
H2203 C2227 0.951 . S
H2204 C2229 0.951 . S
H2205 C2231 0.950 . S
H2206 C2232 0.950 . S
H2207 C2234 0.950 . S
H2208 C2237 0.950 . S
H2209 C2238 0.950 . S
H2210 C2240 0.950 . S
H2211 C2241 0.950 . S
C2212 H2194 0.951 . S
C2212 C2213 1.366 . S
C2212 C2214 1.388 . S
C2213 C2212 1.366 . S
C2213 C2217 1.385 . S
C2214 H2195 0.951 . S
C2214 C2212 1.388 . S
C2214 C2215 1.366 . S
C2215 C2214 1.366 . S
C2215 C2216 1.414 . S
C2215 C2218 1.499 . S
C2216 H2196 0.950 . S
C2216 C2215 1.414 . S
C2216 C2217 1.374 . S
C2217 H2197 0.950 . S
C2217 C2213 1.385 . S
C2217 C2216 1.374 . S
C2218 C2215 1.499 . S
C2218 C2219 1.373 . S
C2218 C2220 1.389 . S
C2219 H2198 0.950 . S
C2219 C2218 1.373 . S
C2219 C2235 1.377 . S
C2220 C2218 1.389 . S
C2220 C2221 1.524 . S
C2220 C2234 1.377 . S
C2221 C2220 1.524 . S
C2221 C2222 1.397 . S
C2221 C2226 1.363 . S
C2222 H2199 0.950 . S
C2222 C2221 1.397 . S
C2222 C2223 1.334 . S
C2223 H2200 0.950 . S
C2223 C2222 1.334 . S
C2223 C2224 1.287 . S
C2224 C2223 1.287 . S
C2224 C2225 1.524 . S
C2224 H2243 0.913 . S
C2225 H2201 0.950 . S
C2225 C2224 1.524 . S
C2225 C2226 1.415 . S
C2226 H2202 0.950 . S
C2226 C2221 1.363 . S
C2226 C2225 1.415 . S
C2227 H2203 0.951 . S
C2227 C2228 1.366 . S
C2227 C2229 1.388 . S
C2228 C2227 1.366 . S
C2228 C2232 1.385 . S
C2229 H2204 0.951 . S
C2229 C2227 1.388 . S
C2229 C2230 1.366 . S
C2230 C2229 1.366 . S
C2230 C2231 1.414 . S
C2230 C2233 1.499 . S
C2231 H2205 0.950 . S
C2231 C2230 1.414 . S
C2231 C2232 1.374 . S
C2232 H2206 0.950 . S
C2232 C2228 1.385 . S
C2232 C2231 1.374 . S
C2233 C2230 1.499 . S
C2233 C2234 1.373 . S
C2233 C2235 1.389 . S
C2234 H2207 0.950 . S
C2234 C2220 1.377 . S
C2234 C2233 1.373 . S
C2235 C2219 1.377 . S
C2235 C2233 1.389 . S
C2235 C2236 1.524 . S
C2236 C2235 1.524 . S
C2236 C2237 1.397 . S
C2236 C2241 1.363 . S
C2237 H2208 0.950 . S
C2237 C2236 1.397 . S
C2237 C2238 1.334 . S
C2238 H2209 0.950 . S
C2238 C2237 1.334 . S
C2238 C2239 1.287 . S
C2239 C2238 1.287 . S
C2239 C2240 1.524 . S
C2239 H2242 0.999 . S
C2240 H2210 0.950 . S
C2240 C2239 1.524 . S
C2240 C2241 1.415 . S
C2241 H2211 0.950 . S
C2241 C2236 1.363 . S
C2241 C2240 1.415 . S
H2242 C2239 0.999 . S
H2243 C2224 0.913 . S
H2244 C2262 0.951 . S
H2245 C2264 0.951 . S
H2246 C2266 0.950 . S
H2247 C2267 0.950 . S
H2248 C2269 0.950 . S
H2249 C2272 0.950 . S
H2250 C2273 0.950 . S
H2251 C2275 0.950 . S
H2252 C2276 0.950 . S
H2253 C2277 0.951 . S
H2254 C2279 0.951 . S
H2255 C2281 0.950 . S
H2256 C2282 0.950 . S
H2257 C2284 0.950 . S
H2258 C2287 0.950 . S
H2259 C2288 0.950 . S
H2260 C2290 0.950 . S
H2261 C2291 0.950 . S
C2262 H2244 0.951 . S
C2262 C2263 1.366 . S
C2262 C2264 1.388 . S
C2263 C2262 1.366 . S
C2263 C2267 1.385 . S
C2264 H2245 0.951 . S
C2264 C2262 1.388 . S
C2264 C2265 1.366 . S
C2265 C2264 1.366 . S
C2265 C2266 1.414 . S
C2265 C2268 1.499 . S
C2266 H2246 0.950 . S
C2266 C2265 1.414 . S
C2266 C2267 1.374 . S
C2267 H2247 0.950 . S
C2267 C2263 1.385 . S
C2267 C2266 1.374 . S
C2268 C2265 1.499 . S
C2268 C2269 1.373 . S
C2268 C2270 1.389 . S
C2269 H2248 0.950 . S
C2269 C2268 1.373 . S
C2269 C2285 1.377 . S
C2270 C2268 1.389 . S
C2270 C2271 1.524 . S
C2270 C2284 1.377 . S
C2271 C2270 1.524 . S
C2271 C2272 1.397 . S
C2271 C2276 1.363 . S
C2272 H2249 0.950 . S
C2272 C2271 1.397 . S
C2272 C2273 1.334 . S
C2273 H2250 0.950 . S
C2273 C2272 1.334 . S
C2273 C2274 1.287 . S
C2274 C2273 1.287 . S
C2274 C2275 1.524 . S
C2274 H2293 0.913 . S
C2275 H2251 0.950 . S
C2275 C2274 1.524 . S
C2275 C2276 1.415 . S
C2276 H2252 0.950 . S
C2276 C2271 1.363 . S
C2276 C2275 1.415 . S
C2277 H2253 0.951 . S
C2277 C2278 1.366 . S
C2277 C2279 1.388 . S
C2278 C2277 1.366 . S
C2278 C2282 1.385 . S
C2279 H2254 0.951 . S
C2279 C2277 1.388 . S
C2279 C2280 1.366 . S
C2280 C2279 1.366 . S
C2280 C2281 1.414 . S
C2280 C2283 1.499 . S
C2281 H2255 0.950 . S
C2281 C2280 1.414 . S
C2281 C2282 1.374 . S
C2282 H2256 0.950 . S
C2282 C2278 1.385 . S
C2282 C2281 1.374 . S
C2283 C2280 1.499 . S
C2283 C2284 1.373 . S
C2283 C2285 1.389 . S
C2284 H2257 0.950 . S
C2284 C2270 1.377 . S
C2284 C2283 1.373 . S
C2285 C2269 1.377 . S
C2285 C2283 1.389 . S
C2285 C2286 1.524 . S
C2286 C2285 1.524 . S
C2286 C2287 1.397 . S
C2286 C2291 1.363 . S
C2287 H2258 0.950 . S
C2287 C2286 1.397 . S
C2287 C2288 1.334 . S
C2288 H2259 0.950 . S
C2288 C2287 1.334 . S
C2288 C2289 1.287 . S
C2289 C2288 1.287 . S
C2289 C2290 1.524 . S
C2289 H2292 0.999 . S
C2290 H2260 0.950 . S
C2290 C2289 1.524 . S
C2290 C2291 1.415 . S
C2291 H2261 0.950 . S
C2291 C2286 1.363 . S
C2291 C2290 1.415 . S
H2292 C2289 0.999 . S
H2293 C2274 0.913 . S
H2294 C2312 0.951 . S
H2295 C2314 0.951 . S
H2296 C2316 0.950 . S
H2297 C2317 0.950 . S
H2298 C2319 0.950 . S
H2299 C2322 0.950 . S
H2300 C2323 0.950 . S
H2301 C2325 0.950 . S
H2302 C2326 0.950 . S
H2303 C2327 0.951 . S
H2304 C2329 0.951 . S
H2305 C2331 0.950 . S
H2306 C2332 0.950 . S
H2307 C2334 0.950 . S
H2308 C2337 0.950 . S
H2309 C2338 0.950 . S
H2310 C2340 0.950 . S
H2311 C2341 0.950 . S
C2312 H2294 0.951 . S
C2312 C2313 1.366 . S
C2312 C2314 1.388 . S
C2313 C2312 1.366 . S
C2313 C2317 1.385 . S
C2314 H2295 0.951 . S
C2314 C2312 1.388 . S
C2314 C2315 1.366 . S
C2315 C2314 1.366 . S
C2315 C2316 1.414 . S
C2315 C2318 1.499 . S
C2316 H2296 0.950 . S
C2316 C2315 1.414 . S
C2316 C2317 1.374 . S
C2317 H2297 0.950 . S
C2317 C2313 1.385 . S
C2317 C2316 1.374 . S
C2318 C2315 1.499 . S
C2318 C2319 1.373 . S
C2318 C2320 1.389 . S
C2319 H2298 0.950 . S
C2319 C2318 1.373 . S
C2319 C2335 1.377 . S
C2320 C2318 1.389 . S
C2320 C2321 1.524 . S
C2320 C2334 1.377 . S
C2321 C2320 1.524 . S
C2321 C2322 1.397 . S
C2321 C2326 1.363 . S
C2322 H2299 0.950 . S
C2322 C2321 1.397 . S
C2322 C2323 1.334 . S
C2323 H2300 0.950 . S
C2323 C2322 1.334 . S
C2323 C2324 1.287 . S
C2324 C2323 1.287 . S
C2324 C2325 1.524 . S
C2324 H2343 0.913 . S
C2325 H2301 0.950 . S
C2325 C2324 1.524 . S
C2325 C2326 1.415 . S
C2326 H2302 0.950 . S
C2326 C2321 1.363 . S
C2326 C2325 1.415 . S
C2327 H2303 0.951 . S
C2327 C2328 1.366 . S
C2327 C2329 1.388 . S
C2328 C2327 1.366 . S
C2328 C2332 1.385 . S
C2329 H2304 0.951 . S
C2329 C2327 1.388 . S
C2329 C2330 1.366 . S
C2330 C2329 1.366 . S
C2330 C2331 1.414 . S
C2330 C2333 1.499 . S
C2331 H2305 0.950 . S
C2331 C2330 1.414 . S
C2331 C2332 1.374 . S
C2332 H2306 0.950 . S
C2332 C2328 1.385 . S
C2332 C2331 1.374 . S
C2333 C2330 1.499 . S
C2333 C2334 1.373 . S
C2333 C2335 1.389 . S
C2334 H2307 0.950 . S
C2334 C2320 1.377 . S
C2334 C2333 1.373 . S
C2335 C2319 1.377 . S
C2335 C2333 1.389 . S
C2335 C2336 1.524 . S
C2336 C2335 1.524 . S
C2336 C2337 1.397 . S
C2336 C2341 1.363 . S
C2337 H2308 0.950 . S
C2337 C2336 1.397 . S
C2337 C2338 1.334 . S
C2338 H2309 0.950 . S
C2338 C2337 1.334 . S
C2338 C2339 1.287 . S
C2339 C2338 1.287 . S
C2339 C2340 1.524 . S
C2339 H2342 0.999 . S
C2340 H2310 0.950 . S
C2340 C2339 1.524 . S
C2340 C2341 1.415 . S
C2341 H2311 0.950 . S
C2341 C2336 1.363 . S
C2341 C2340 1.415 . S
H2342 C2339 0.999 . S
H2343 C2324 0.913 . S
H2344 C2362 0.951 . S
H2345 C2364 0.951 . S
H2346 C2366 0.950 . S
H2347 C2367 0.950 . S
H2348 C2369 0.950 . S
H2349 C2372 0.950 . S
H2350 C2373 0.950 . S
H2351 C2375 0.950 . S
H2352 C2376 0.950 . S
H2353 C2377 0.951 . S
H2354 C2379 0.951 . S
H2355 C2381 0.950 . S
H2356 C2382 0.950 . S
H2357 C2384 0.950 . S
H2358 C2387 0.950 . S
H2359 C2388 0.950 . S
H2360 C2390 0.950 . S
H2361 C2391 0.950 . S
C2362 H2344 0.951 . S
C2362 C2363 1.366 . S
C2362 C2364 1.388 . S
C2363 C2362 1.366 . S
C2363 C2367 1.385 . S
C2364 H2345 0.951 . S
C2364 C2362 1.388 . S
C2364 C2365 1.366 . S
C2365 C2364 1.366 . S
C2365 C2366 1.414 . S
C2365 C2368 1.499 . S
C2366 H2346 0.950 . S
C2366 C2365 1.414 . S
C2366 C2367 1.374 . S
C2367 H2347 0.950 . S
C2367 C2363 1.385 . S
C2367 C2366 1.374 . S
C2368 C2365 1.499 . S
C2368 C2369 1.373 . S
C2368 C2370 1.389 . S
C2369 H2348 0.950 . S
C2369 C2368 1.373 . S
C2369 C2385 1.377 . S
C2370 C2368 1.389 . S
C2370 C2371 1.524 . S
C2370 C2384 1.377 . S
C2371 C2370 1.524 . S
C2371 C2372 1.397 . S
C2371 C2376 1.363 . S
C2372 H2349 0.950 . S
C2372 C2371 1.397 . S
C2372 C2373 1.334 . S
C2373 H2350 0.950 . S
C2373 C2372 1.334 . S
C2373 C2374 1.287 . S
C2374 C2373 1.287 . S
C2374 C2375 1.524 . S
C2374 H2393 0.913 . S
C2375 H2351 0.950 . S
C2375 C2374 1.524 . S
C2375 C2376 1.415 . S
C2376 H2352 0.950 . S
C2376 C2371 1.363 . S
C2376 C2375 1.415 . S
C2377 H2353 0.951 . S
C2377 C2378 1.366 . S
C2377 C2379 1.388 . S
C2378 C2377 1.366 . S
C2378 C2382 1.385 . S
C2379 H2354 0.951 . S
C2379 C2377 1.388 . S
C2379 C2380 1.366 . S
C2380 C2379 1.366 . S
C2380 C2381 1.414 . S
C2380 C2383 1.499 . S
C2381 H2355 0.950 . S
C2381 C2380 1.414 . S
C2381 C2382 1.374 . S
C2382 H2356 0.950 . S
C2382 C2378 1.385 . S
C2382 C2381 1.374 . S
C2383 C2380 1.499 . S
C2383 C2384 1.373 . S
C2383 C2385 1.389 . S
C2384 H2357 0.950 . S
C2384 C2370 1.377 . S
C2384 C2383 1.373 . S
C2385 C2369 1.377 . S
C2385 C2383 1.389 . S
C2385 C2386 1.524 . S
C2386 C2385 1.524 . S
C2386 C2387 1.397 . S
C2386 C2391 1.363 . S
C2387 H2358 0.950 . S
C2387 C2386 1.397 . S
C2387 C2388 1.334 . S
C2388 H2359 0.950 . S
C2388 C2387 1.334 . S
C2388 C2389 1.287 . S
C2389 C2388 1.287 . S
C2389 C2390 1.524 . S
C2389 H2392 0.999 . S
C2390 H2360 0.950 . S
C2390 C2389 1.524 . S
C2390 C2391 1.415 . S
C2391 H2361 0.950 . S
C2391 C2386 1.363 . S
C2391 C2390 1.415 . S
H2392 C2389 0.999 . S
H2393 C2374 0.913 . S
H2394 C2412 0.951 . S
H2395 C2414 0.951 . S
H2396 C2416 0.950 . S
H2397 C2417 0.950 . S
H2398 C2419 0.950 . S
H2399 C2422 0.950 . S
H2400 C2423 0.950 . S
H2401 C2425 0.950 . S
H2402 C2426 0.950 . S
H2403 C2427 0.951 . S
H2404 C2429 0.951 . S
H2405 C2431 0.950 . S
H2406 C2432 0.950 . S
H2407 C2434 0.950 . S
H2408 C2437 0.950 . S
H2409 C2438 0.950 . S
H2410 C2440 0.950 . S
H2411 C2441 0.950 . S
C2412 H2394 0.951 . S
C2412 C2413 1.366 . S
C2412 C2414 1.388 . S
C2413 C2412 1.366 . S
C2413 C2417 1.385 . S
C2414 H2395 0.951 . S
C2414 C2412 1.388 . S
C2414 C2415 1.366 . S
C2415 C2414 1.366 . S
C2415 C2416 1.414 . S
C2415 C2418 1.499 . S
C2416 H2396 0.950 . S
C2416 C2415 1.414 . S
C2416 C2417 1.374 . S
C2417 H2397 0.950 . S
C2417 C2413 1.385 . S
C2417 C2416 1.374 . S
C2418 C2415 1.499 . S
C2418 C2419 1.373 . S
C2418 C2420 1.389 . S
C2419 H2398 0.950 . S
C2419 C2418 1.373 . S
C2419 C2435 1.377 . S
C2420 C2418 1.389 . S
C2420 C2421 1.524 . S
C2420 C2434 1.377 . S
C2421 C2420 1.524 . S
C2421 C2422 1.397 . S
C2421 C2426 1.363 . S
C2422 H2399 0.950 . S
C2422 C2421 1.397 . S
C2422 C2423 1.334 . S
C2423 H2400 0.950 . S
C2423 C2422 1.334 . S
C2423 C2424 1.287 . S
C2424 C2423 1.287 . S
C2424 C2425 1.524 . S
C2424 H2443 0.913 . S
C2425 H2401 0.950 . S
C2425 C2424 1.524 . S
C2425 C2426 1.415 . S
C2426 H2402 0.950 . S
C2426 C2421 1.363 . S
C2426 C2425 1.415 . S
C2427 H2403 0.951 . S
C2427 C2428 1.366 . S
C2427 C2429 1.388 . S
C2428 C2427 1.366 . S
C2428 C2432 1.385 . S
C2429 H2404 0.951 . S
C2429 C2427 1.388 . S
C2429 C2430 1.366 . S
C2430 C2429 1.366 . S
C2430 C2431 1.414 . S
C2430 C2433 1.499 . S
C2431 H2405 0.950 . S
C2431 C2430 1.414 . S
C2431 C2432 1.374 . S
C2432 H2406 0.950 . S
C2432 C2428 1.385 . S
C2432 C2431 1.374 . S
C2433 C2430 1.499 . S
C2433 C2434 1.373 . S
C2433 C2435 1.389 . S
C2434 H2407 0.950 . S
C2434 C2420 1.377 . S
C2434 C2433 1.373 . S
C2435 C2419 1.377 . S
C2435 C2433 1.389 . S
C2435 C2436 1.524 . S
C2436 C2435 1.524 . S
C2436 C2437 1.397 . S
C2436 C2441 1.363 . S
C2437 H2408 0.950 . S
C2437 C2436 1.397 . S
C2437 C2438 1.334 . S
C2438 H2409 0.950 . S
C2438 C2437 1.334 . S
C2438 C2439 1.287 . S
C2439 C2438 1.287 . S
C2439 C2440 1.524 . S
C2439 H2442 0.999 . S
C2440 H2410 0.950 . S
C2440 C2439 1.524 . S
C2440 C2441 1.415 . S
C2441 H2411 0.950 . S
C2441 C2436 1.363 . S
C2441 C2440 1.415 . S
H2442 C2439 0.999 . S
H2443 C2424 0.913 . S
H2444 C2462 0.951 . S
H2445 C2464 0.951 . S
H2446 C2466 0.950 . S
H2447 C2467 0.950 . S
H2448 C2469 0.950 . S
H2449 C2472 0.950 . S
H2450 C2473 0.950 . S
H2451 C2475 0.950 . S
H2452 C2476 0.950 . S
H2453 C2477 0.951 1_554 S
H2454 C2479 0.951 . S
H2455 C2481 0.950 . S
H2456 C2482 0.950 . S
H2457 C2484 0.950 . S
H2458 C2487 0.950 . S
H2459 C2488 0.950 . S
H2460 C2490 0.941 . S
H2461 C2491 0.950 . S
C2462 H2444 0.951 . S
C2462 C2463 1.366 . S
C2462 C2464 1.388 . S
C2463 C2462 1.366 . S
C2463 C2467 1.385 . S
C2464 H2445 0.951 . S
C2464 C2462 1.388 . S
C2464 C2465 1.366 . S
C2465 C2464 1.366 . S
C2465 C2466 1.414 . S
C2465 C2468 1.499 . S
C2466 H2446 0.950 . S
C2466 C2465 1.414 . S
C2466 C2467 1.374 . S
C2467 H2447 0.950 . S
C2467 C2463 1.385 . S
C2467 C2466 1.374 . S
C2468 C2465 1.499 . S
C2468 C2469 1.373 . S
C2468 C2470 1.389 . S
C2469 H2448 0.950 . S
C2469 C2468 1.373 . S
C2469 C2485 1.377 . S
C2470 C2468 1.389 . S
C2470 C2471 1.524 . S
C2470 C2484 1.377 . S
C2471 C2470 1.524 . S
C2471 C2472 1.397 . S
C2471 C2476 1.363 . S
C2472 H2449 0.950 . S
C2472 C2471 1.397 . S
C2472 C2473 1.334 . S
C2473 H2450 0.950 . S
C2473 C2472 1.334 . S
C2473 C2474 1.287 . S
C2474 C2473 1.287 . S
C2474 C2475 1.524 . S
C2474 H2493 0.913 . S
C2475 H2451 0.950 . S
C2475 C2474 1.524 . S
C2475 C2476 1.415 . S
C2476 H2452 0.950 . S
C2476 C2471 1.363 . S
C2476 C2475 1.415 . S
C2477 H2453 0.951 1_556 S
C2477 C2478 1.366 . S
C2477 C2479 1.388 . S
C2478 C2477 1.366 . S
C2478 C2482 1.385 . S
C2479 H2454 0.951 . S
C2479 C2477 1.388 . S
C2479 C2480 1.366 . S
C2480 C2479 1.366 . S
C2480 C2481 1.414 . S
C2480 C2483 1.499 . S
C2481 H2455 0.950 . S
C2481 C2480 1.414 . S
C2481 C2482 1.374 . S
C2482 H2456 0.950 . S
C2482 C2478 1.385 . S
C2482 C2481 1.374 . S
C2483 C2480 1.499 . S
C2483 C2484 1.373 . S
C2483 C2485 1.389 . S
C2484 H2457 0.950 . S
C2484 C2470 1.377 . S
C2484 C2483 1.373 . S
C2485 C2469 1.377 . S
C2485 C2483 1.389 . S
C2485 C2486 1.524 . S
C2486 C2485 1.524 . S
C2486 C2487 1.397 . S
C2486 C2491 1.363 . S
C2487 H2458 0.950 . S
C2487 C2486 1.397 . S
C2487 C2488 1.334 1_655 S
C2488 H2459 0.950 . S
C2488 C2487 1.334 1_455 S
C2488 C2489 1.287 . S
C2489 C2488 1.287 . S
C2489 C2490 1.524 1_455 S
C2489 H2492 0.999 . S
C2490 H2460 0.941 . S
C2490 C2489 1.524 1_655 S
C2490 C2491 1.415 . S
C2491 H2461 0.950 . S
C2491 C2486 1.363 . S
C2491 C2490 1.415 . S
H2492 C2489 0.999 . S
H2493 C2474 0.913 . S
H2494 C2512 0.951 . S
H2495 C2514 0.951 . S
H2496 C2516 0.950 . S
H2497 C2517 0.950 . S
H2498 C2519 0.950 . S
H2499 C2522 0.950 . S
H2500 C2523 0.950 . S
H2501 C2525 0.950 . S
H2502 C2526 0.950 . S
H2503 C2527 0.951 . S
H2504 C2529 0.951 . S
H2505 C2531 0.950 . S
H2506 C2532 0.950 . S
H2507 C2534 0.950 . S
H2508 C2537 0.950 . S
H2509 C2538 0.950 . S
H2510 C2540 0.950 . S
H2511 C2541 0.950 . S
C2512 H2494 0.951 . S
C2512 C2513 1.366 . S
C2512 C2514 1.388 . S
C2513 C2512 1.366 . S
C2513 C2517 1.385 . S
C2514 H2495 0.951 . S
C2514 C2512 1.388 . S
C2514 C2515 1.366 . S
C2515 C2514 1.366 . S
C2515 C2516 1.414 . S
C2515 C2518 1.499 . S
C2516 H2496 0.950 . S
C2516 C2515 1.414 . S
C2516 C2517 1.374 . S
C2517 H2497 0.950 . S
C2517 C2513 1.385 . S
C2517 C2516 1.374 . S
C2518 C2515 1.499 . S
C2518 C2519 1.373 . S
C2518 C2520 1.389 . S
C2519 H2498 0.950 . S
C2519 C2518 1.373 . S
C2519 C2535 1.377 . S
C2520 C2518 1.389 . S
C2520 C2521 1.524 . S
C2520 C2534 1.377 . S
C2521 C2520 1.524 . S
C2521 C2522 1.397 . S
C2521 C2526 1.363 . S
C2522 H2499 0.950 . S
C2522 C2521 1.397 . S
C2522 C2523 1.334 . S
C2523 H2500 0.950 . S
C2523 C2522 1.334 . S
C2523 C2524 1.287 . S
C2524 C2523 1.287 . S
C2524 C2525 1.524 . S
C2524 H2543 0.913 . S
C2525 H2501 0.950 . S
C2525 C2524 1.524 . S
C2525 C2526 1.415 . S
C2526 H2502 0.950 . S
C2526 C2521 1.363 . S
C2526 C2525 1.415 . S
C2527 H2503 0.951 . S
C2527 C2528 1.366 . S
C2527 C2529 1.388 . S
C2528 C2527 1.366 . S
C2528 C2532 1.385 . S
C2529 H2504 0.951 . S
C2529 C2527 1.388 . S
C2529 C2530 1.366 . S
C2530 C2529 1.366 . S
C2530 C2531 1.414 . S
C2530 C2533 1.499 . S
C2531 H2505 0.950 . S
C2531 C2530 1.414 . S
C2531 C2532 1.374 . S
C2532 H2506 0.950 . S
C2532 C2528 1.385 . S
C2532 C2531 1.374 . S
C2533 C2530 1.499 . S
C2533 C2534 1.373 . S
C2533 C2535 1.389 . S
C2534 H2507 0.950 . S
C2534 C2520 1.377 . S
C2534 C2533 1.373 . S
C2535 C2519 1.377 . S
C2535 C2533 1.389 . S
C2535 C2536 1.524 . S
C2536 C2535 1.524 . S
C2536 C2537 1.397 . S
C2536 C2541 1.363 . S
C2537 H2508 0.950 . S
C2537 C2536 1.397 . S
C2537 C2538 1.334 . S
C2538 H2509 0.950 . S
C2538 C2537 1.334 . S
C2538 C2539 1.287 . S
C2539 C2538 1.287 . S
C2539 C2540 1.524 . S
C2539 H2542 0.999 . S
C2540 H2510 0.950 . S
C2540 C2539 1.524 . S
C2540 C2541 1.415 . S
C2541 H2511 0.950 . S
C2541 C2536 1.363 . S
C2541 C2540 1.415 . S
H2542 C2539 0.999 . S
H2543 C2524 0.913 . S
H2544 C2562 0.951 . S
H2545 C2564 0.951 . S
H2546 C2566 0.950 . S
H2547 C2567 0.950 . S
H2548 C2569 0.950 . S
H2549 C2572 0.950 . S
H2550 C2573 0.950 . S
H2551 C2575 0.950 . S
H2552 C2576 0.950 . S
H2553 C2577 0.951 . S
H2554 C2579 0.951 . S
H2555 C2581 0.950 . S
H2556 C2582 0.950 . S
H2557 C2584 0.950 . S
H2558 C2587 0.950 . S
H2559 C2588 0.950 . S
H2560 C2590 0.950 . S
H2561 C2591 0.950 . S
C2562 H2544 0.951 . S
C2562 C2563 1.366 . S
C2562 C2564 1.388 . S
C2563 C2562 1.366 . S
C2563 C2567 1.385 . S
C2564 H2545 0.951 . S
C2564 C2562 1.388 . S
C2564 C2565 1.366 . S
C2565 C2564 1.366 . S
C2565 C2566 1.414 . S
C2565 C2568 1.499 . S
C2566 H2546 0.950 . S
C2566 C2565 1.414 . S
C2566 C2567 1.374 . S
C2567 H2547 0.950 . S
C2567 C2563 1.385 . S
C2567 C2566 1.374 . S
C2568 C2565 1.499 . S
C2568 C2569 1.373 . S
C2568 C2570 1.389 . S
C2569 H2548 0.950 . S
C2569 C2568 1.373 . S
C2569 C2585 1.377 . S
C2570 C2568 1.389 . S
C2570 C2571 1.524 . S
C2570 C2584 1.377 . S
C2571 C2570 1.524 . S
C2571 C2572 1.397 . S
C2571 C2576 1.363 . S
C2572 H2549 0.950 . S
C2572 C2571 1.397 . S
C2572 C2573 1.334 . S
C2573 H2550 0.950 . S
C2573 C2572 1.334 . S
C2573 C2574 1.287 . S
C2574 C2573 1.287 . S
C2574 C2575 1.524 . S
C2574 H2593 0.913 . S
C2575 H2551 0.950 . S
C2575 C2574 1.524 . S
C2575 C2576 1.415 . S
C2576 H2552 0.950 . S
C2576 C2571 1.363 . S
C2576 C2575 1.415 . S
C2577 H2553 0.951 . S
C2577 C2578 1.366 . S
C2577 C2579 1.388 . S
C2578 C2577 1.366 . S
C2578 C2582 1.385 . S
C2579 H2554 0.951 . S
C2579 C2577 1.388 . S
C2579 C2580 1.366 . S
C2580 C2579 1.366 . S
C2580 C2581 1.414 . S
C2580 C2583 1.499 . S
C2581 H2555 0.950 . S
C2581 C2580 1.414 . S
C2581 C2582 1.374 . S
C2582 H2556 0.950 . S
C2582 C2578 1.385 . S
C2582 C2581 1.374 . S
C2583 C2580 1.499 . S
C2583 C2584 1.373 . S
C2583 C2585 1.389 . S
C2584 H2557 0.950 . S
C2584 C2570 1.377 . S
C2584 C2583 1.373 . S
C2585 C2569 1.377 . S
C2585 C2583 1.389 . S
C2585 C2586 1.524 . S
C2586 C2585 1.524 . S
C2586 C2587 1.397 . S
C2586 C2591 1.363 . S
C2587 H2558 0.950 . S
C2587 C2586 1.397 . S
C2587 C2588 1.334 . S
C2588 H2559 0.950 . S
C2588 C2587 1.334 . S
C2588 C2589 1.287 . S
C2589 C2588 1.287 . S
C2589 C2590 1.524 . S
C2589 H2592 0.999 . S
C2590 H2560 0.950 . S
C2590 C2589 1.524 . S
C2590 C2591 1.415 . S
C2591 H2561 0.950 . S
C2591 C2586 1.363 . S
C2591 C2590 1.415 . S
H2592 C2589 0.999 . S
H2593 C2574 0.913 . S
H2594 C2612 0.951 . S
H2595 C2614 0.951 . S
H2596 C2616 0.950 . S
H2597 C2617 0.950 . S
H2598 C2619 0.950 . S
H2599 C2622 0.950 . S
H2600 C2623 0.950 . S
H2601 C2625 0.950 . S
H2602 C2626 0.950 . S
H2603 C2627 0.951 . S
H2604 C2629 0.951 . S
H2605 C2631 0.950 . S
H2606 C2632 0.950 . S
H2607 C2634 0.950 . S
H2608 C2637 0.950 . S
H2609 C2638 0.950 . S
H2610 C2640 0.950 . S
H2611 C2641 0.950 . S
C2612 H2594 0.951 . S
C2612 C2613 1.366 . S
C2612 C2614 1.388 . S
C2613 C2612 1.366 . S
C2613 C2617 1.385 . S
C2614 H2595 0.951 . S
C2614 C2612 1.388 . S
C2614 C2615 1.366 . S
C2615 C2614 1.366 . S
C2615 C2616 1.414 . S
C2615 C2618 1.499 . S
C2616 H2596 0.950 . S
C2616 C2615 1.414 . S
C2616 C2617 1.374 . S
C2617 H2597 0.950 . S
C2617 C2613 1.385 . S
C2617 C2616 1.374 . S
C2618 C2615 1.499 . S
C2618 C2619 1.373 . S
C2618 C2620 1.389 . S
C2619 H2598 0.950 . S
C2619 C2618 1.373 . S
C2619 C2635 1.377 . S
C2620 C2618 1.389 . S
C2620 C2621 1.524 . S
C2620 C2634 1.377 . S
C2621 C2620 1.524 . S
C2621 C2622 1.397 . S
C2621 C2626 1.363 . S
C2622 H2599 0.950 . S
C2622 C2621 1.397 . S
C2622 C2623 1.334 . S
C2623 H2600 0.950 . S
C2623 C2622 1.334 . S
C2623 C2624 1.287 . S
C2624 C2623 1.287 . S
C2624 C2625 1.524 . S
C2624 H2643 0.913 . S
C2625 H2601 0.950 . S
C2625 C2624 1.524 . S
C2625 C2626 1.415 . S
C2626 H2602 0.950 . S
C2626 C2621 1.363 . S
C2626 C2625 1.415 . S
C2627 H2603 0.951 . S
C2627 C2628 1.366 . S
C2627 C2629 1.388 . S
C2628 C2627 1.366 . S
C2628 C2632 1.385 . S
C2629 H2604 0.951 . S
C2629 C2627 1.388 . S
C2629 C2630 1.366 . S
C2630 C2629 1.366 . S
C2630 C2631 1.414 . S
C2630 C2633 1.499 . S
C2631 H2605 0.950 . S
C2631 C2630 1.414 . S
C2631 C2632 1.374 . S
C2632 H2606 0.950 . S
C2632 C2628 1.385 . S
C2632 C2631 1.374 . S
C2633 C2630 1.499 . S
C2633 C2634 1.373 . S
C2633 C2635 1.389 . S
C2634 H2607 0.950 . S
C2634 C2620 1.377 . S
C2634 C2633 1.373 . S
C2635 C2619 1.377 . S
C2635 C2633 1.389 . S
C2635 C2636 1.524 . S
C2636 C2635 1.524 . S
C2636 C2637 1.397 . S
C2636 C2641 1.363 . S
C2637 H2608 0.950 . S
C2637 C2636 1.397 . S
C2637 C2638 1.334 . S
C2638 H2609 0.950 . S
C2638 C2637 1.334 . S
C2638 C2639 1.287 . S
C2639 C2638 1.287 . S
C2639 C2640 1.524 . S
C2639 H2642 0.999 . S
C2640 H2610 0.950 . S
C2640 C2639 1.524 . S
C2640 C2641 1.415 . S
C2641 H2611 0.950 . S
C2641 C2636 1.363 . S
C2641 C2640 1.415 . S
H2642 C2639 0.999 . S
H2643 C2624 0.913 . S
H2644 C2662 0.951 . S
H2645 C2664 0.951 . S
H2646 C2666 0.950 . S
H2647 C2667 0.950 . S
H2648 C2669 0.950 . S
H2649 C2672 0.950 . S
H2650 C2673 0.950 . S
H2651 C2675 0.950 . S
H2652 C2676 0.950 . S
H2653 C2677 0.951 . S
H2654 C2679 0.951 . S
H2655 C2681 0.950 . S
H2656 C2682 0.950 . S
H2657 C2684 0.950 . S
H2658 C2687 0.950 . S
H2659 C2688 0.950 . S
H2660 C2690 0.950 . S
H2661 C2691 0.950 . S
C2662 H2644 0.951 . S
C2662 C2663 1.366 . S
C2662 C2664 1.388 . S
C2663 C2662 1.366 . S
C2663 C2667 1.385 . S
C2664 H2645 0.951 . S
C2664 C2662 1.388 . S
C2664 C2665 1.366 . S
C2665 C2664 1.366 . S
C2665 C2666 1.414 . S
C2665 C2668 1.499 . S
C2666 H2646 0.950 . S
C2666 C2665 1.414 . S
C2666 C2667 1.374 . S
C2667 H2647 0.950 . S
C2667 C2663 1.385 . S
C2667 C2666 1.374 . S
C2668 C2665 1.499 . S
C2668 C2669 1.373 . S
C2668 C2670 1.389 . S
C2669 H2648 0.950 . S
C2669 C2668 1.373 . S
C2669 C2685 1.377 . S
C2670 C2668 1.389 . S
C2670 C2671 1.524 . S
C2670 C2684 1.377 . S
C2671 C2670 1.524 . S
C2671 C2672 1.397 . S
C2671 C2676 1.363 . S
C2672 H2649 0.950 . S
C2672 C2671 1.397 . S
C2672 C2673 1.334 . S
C2673 H2650 0.950 . S
C2673 C2672 1.334 . S
C2673 C2674 1.287 . S
C2674 C2673 1.287 . S
C2674 C2675 1.524 . S
C2674 H2693 0.913 . S
C2675 H2651 0.950 . S
C2675 C2674 1.524 . S
C2675 C2676 1.415 . S
C2676 H2652 0.950 . S
C2676 C2671 1.363 . S
C2676 C2675 1.415 . S
C2677 H2653 0.951 . S
C2677 C2678 1.366 . S
C2677 C2679 1.388 . S
C2678 C2677 1.366 . S
C2678 C2682 1.385 . S
C2679 H2654 0.951 . S
C2679 C2677 1.388 . S
C2679 C2680 1.366 . S
C2680 C2679 1.366 . S
C2680 C2681 1.414 . S
C2680 C2683 1.499 . S
C2681 H2655 0.950 . S
C2681 C2680 1.414 . S
C2681 C2682 1.374 . S
C2682 H2656 0.950 . S
C2682 C2678 1.385 . S
C2682 C2681 1.374 . S
C2683 C2680 1.499 . S
C2683 C2684 1.373 . S
C2683 C2685 1.389 . S
C2684 H2657 0.950 . S
C2684 C2670 1.377 . S
C2684 C2683 1.373 . S
C2685 C2669 1.377 . S
C2685 C2683 1.389 . S
C2685 C2686 1.524 . S
C2686 C2685 1.524 . S
C2686 C2687 1.397 . S
C2686 C2691 1.363 . S
C2687 H2658 0.950 . S
C2687 C2686 1.397 . S
C2687 C2688 1.334 . S
C2688 H2659 0.950 . S
C2688 C2687 1.334 . S
C2688 C2689 1.287 . S
C2689 C2688 1.287 . S
C2689 C2690 1.524 . S
C2689 H2692 0.999 . S
C2690 H2660 0.950 . S
C2690 C2689 1.524 . S
C2690 C2691 1.415 . S
C2691 H2661 0.950 . S
C2691 C2686 1.363 . S
C2691 C2690 1.415 . S
H2692 C2689 0.999 . S
H2693 C2674 0.913 . S
H2694 C2712 0.951 . S
H2695 C2714 0.951 . S
H2696 C2716 0.950 . S
H2697 C2717 0.950 . S
H2698 C2719 0.950 . S
H2699 C2722 0.950 . S
H2700 C2723 0.950 . S
H2701 C2725 0.950 . S
H2702 C2726 0.950 . S
H2703 C2727 0.951 . S
H2704 C2729 0.951 . S
H2705 C2731 0.950 . S
H2706 C2732 0.950 . S
H2707 C2734 0.950 . S
H2708 C2737 0.950 . S
H2709 C2738 0.950 1_545 S
H2710 C2740 0.950 . S
H2711 C2741 0.950 . S
C2712 H2694 0.951 . S
C2712 C2713 1.366 . S
C2712 C2714 1.388 . S
C2713 C2712 1.366 . S
C2713 C2717 1.385 . S
C2714 H2695 0.951 . S
C2714 C2712 1.388 . S
C2714 C2715 1.366 . S
C2715 C2714 1.366 . S
C2715 C2716 1.414 . S
C2715 C2718 1.499 . S
C2716 H2696 0.950 . S
C2716 C2715 1.414 . S
C2716 C2717 1.374 . S
C2717 H2697 0.950 . S
C2717 C2713 1.385 . S
C2717 C2716 1.374 . S
C2718 C2715 1.499 . S
C2718 C2719 1.373 . S
C2718 C2720 1.389 . S
C2719 H2698 0.950 . S
C2719 C2718 1.373 . S
C2719 C2735 1.377 . S
C2720 C2718 1.389 . S
C2720 C2721 1.524 . S
C2720 C2734 1.377 . S
C2721 C2720 1.524 . S
C2721 C2722 1.397 . S
C2721 C2726 1.363 . S
C2722 H2699 0.950 . S
C2722 C2721 1.397 . S
C2722 C2723 1.334 . S
C2723 H2700 0.950 . S
C2723 C2722 1.334 . S
C2723 C2724 1.287 . S
C2724 C2723 1.287 . S
C2724 C2725 1.524 . S
C2724 H2743 0.913 . S
C2725 H2701 0.950 . S
C2725 C2724 1.524 . S
C2725 C2726 1.415 . S
C2726 H2702 0.950 . S
C2726 C2721 1.363 . S
C2726 C2725 1.415 . S
C2727 H2703 0.951 . S
C2727 C2728 1.366 . S
C2727 C2729 1.388 . S
C2728 C2727 1.366 . S
C2728 C2732 1.385 . S
C2729 H2704 0.951 . S
C2729 C2727 1.388 . S
C2729 C2730 1.366 . S
C2730 C2729 1.366 . S
C2730 C2731 1.414 . S
C2730 C2733 1.499 . S
C2731 H2705 0.950 . S
C2731 C2730 1.414 . S
C2731 C2732 1.374 . S
C2732 H2706 0.950 . S
C2732 C2728 1.385 . S
C2732 C2731 1.374 . S
C2733 C2730 1.499 . S
C2733 C2734 1.373 . S
C2733 C2735 1.389 . S
C2734 H2707 0.950 . S
C2734 C2720 1.377 . S
C2734 C2733 1.373 . S
C2735 C2719 1.377 . S
C2735 C2733 1.389 . S
C2735 C2736 1.524 . S
C2736 C2735 1.524 . S
C2736 C2737 1.397 . S
C2736 C2741 1.363 . S
C2737 H2708 0.950 . S
C2737 C2736 1.397 . S
C2737 C2738 1.334 . S
C2738 H2709 0.950 1_565 S
C2738 C2737 1.334 . S
C2738 C2739 1.287 1_565 S
C2739 C2738 1.287 1_545 S
C2739 C2740 1.524 1_545 S
C2739 H2742 0.999 . S
C2740 H2710 0.950 . S
C2740 C2739 1.524 1_565 S
C2740 C2741 1.415 . S
C2741 H2711 0.950 . S
C2741 C2736 1.363 . S
C2741 C2740 1.415 . S
H2742 C2739 0.999 . S
H2743 C2724 0.913 . S
H2744 C2762 0.951 . S
H2745 C2764 0.951 . S
H2746 C2766 0.950 . S
H2747 C2767 0.950 . S
H2748 C2769 0.950 . S
H2749 C2772 0.950 . S
H2750 C2773 0.950 . S
H2751 C2775 0.950 . S
H2752 C2776 0.950 . S
H2753 C2777 0.951 . S
H2754 C2779 0.951 . S
H2755 C2781 0.950 . S
H2756 C2782 0.950 . S
H2757 C2784 0.950 . S
H2758 C2787 0.950 . S
H2759 C2788 0.950 . S
H2760 C2790 0.950 . S
H2761 C2791 0.950 . S
C2762 H2744 0.951 . S
C2762 C2763 1.366 . S
C2762 C2764 1.388 . S
C2763 C2762 1.366 . S
C2763 C2767 1.385 . S
C2764 H2745 0.951 . S
C2764 C2762 1.388 . S
C2764 C2765 1.366 . S
C2765 C2764 1.366 . S
C2765 C2766 1.414 . S
C2765 C2768 1.499 . S
C2766 H2746 0.950 . S
C2766 C2765 1.414 . S
C2766 C2767 1.374 . S
C2767 H2747 0.950 . S
C2767 C2763 1.385 . S
C2767 C2766 1.374 . S
C2768 C2765 1.499 . S
C2768 C2769 1.373 . S
C2768 C2770 1.389 . S
C2769 H2748 0.950 . S
C2769 C2768 1.373 . S
C2769 C2785 1.377 . S
C2770 C2768 1.389 . S
C2770 C2771 1.524 . S
C2770 C2784 1.377 . S
C2771 C2770 1.524 . S
C2771 C2772 1.397 . S
C2771 C2776 1.363 . S
C2772 H2749 0.950 . S
C2772 C2771 1.397 . S
C2772 C2773 1.334 . S
C2773 H2750 0.950 . S
C2773 C2772 1.334 . S
C2773 C2774 1.287 . S
C2774 C2773 1.287 . S
C2774 C2775 1.524 . S
C2774 H2793 0.913 . S
C2775 H2751 0.950 . S
C2775 C2774 1.524 . S
C2775 C2776 1.415 . S
C2776 H2752 0.950 . S
C2776 C2771 1.363 . S
C2776 C2775 1.415 . S
C2777 H2753 0.951 . S
C2777 C2778 1.366 . S
C2777 C2779 1.388 . S
C2778 C2777 1.366 . S
C2778 C2782 1.385 . S
C2779 H2754 0.951 . S
C2779 C2777 1.388 . S
C2779 C2780 1.366 . S
C2780 C2779 1.366 . S
C2780 C2781 1.414 . S
C2780 C2783 1.499 . S
C2781 H2755 0.950 . S
C2781 C2780 1.414 . S
C2781 C2782 1.374 . S
C2782 H2756 0.950 . S
C2782 C2778 1.385 . S
C2782 C2781 1.374 . S
C2783 C2780 1.499 . S
C2783 C2784 1.373 . S
C2783 C2785 1.389 . S
C2784 H2757 0.950 . S
C2784 C2770 1.377 . S
C2784 C2783 1.373 . S
C2785 C2769 1.377 . S
C2785 C2783 1.389 . S
C2785 C2786 1.524 . S
C2786 C2785 1.524 . S
C2786 C2787 1.397 . S
C2786 C2791 1.363 . S
C2787 H2758 0.950 . S
C2787 C2786 1.397 . S
C2787 C2788 1.334 . S
C2788 H2759 0.950 . S
C2788 C2787 1.334 . S
C2788 C2789 1.287 . S
C2789 C2788 1.287 . S
C2789 C2790 1.524 . S
C2789 H2792 0.999 . S
C2790 H2760 0.950 . S
C2790 C2789 1.524 . S
C2790 C2791 1.415 . S
C2791 H2761 0.950 . S
C2791 C2786 1.363 . S
C2791 C2790 1.415 . S
H2792 C2789 0.999 . S
H2793 C2774 0.913 . S
H2794 C2812 0.951 . S
H2795 C2814 0.951 . S
H2796 C2816 0.950 . S
H2797 C2817 0.950 . S
H2798 C2819 0.950 . S
H2799 C2822 0.950 . S
H2800 C2823 0.950 . S
H2801 C2825 0.950 . S
H2802 C2826 0.950 . S
H2803 C2827 0.951 . S
H2804 C2829 0.951 . S
H2805 C2831 0.950 . S
H2806 C2832 0.950 . S
H2807 C2834 0.950 . S
H2808 C2837 0.950 . S
H2809 C2838 0.950 . S
H2810 C2840 0.950 . S
H2811 C2841 0.950 . S
C2812 H2794 0.951 . S
C2812 C2813 1.366 . S
C2812 C2814 1.388 . S
C2813 C2812 1.366 . S
C2813 C2817 1.385 . S
C2814 H2795 0.951 . S
C2814 C2812 1.388 . S
C2814 C2815 1.366 . S
C2815 C2814 1.366 . S
C2815 C2816 1.414 . S
C2815 C2818 1.499 . S
C2816 H2796 0.950 . S
C2816 C2815 1.414 . S
C2816 C2817 1.374 . S
C2817 H2797 0.950 . S
C2817 C2813 1.385 . S
C2817 C2816 1.374 . S
C2818 C2815 1.499 . S
C2818 C2819 1.373 . S
C2818 C2820 1.389 . S
C2819 H2798 0.950 . S
C2819 C2818 1.373 . S
C2819 C2835 1.377 . S
C2820 C2818 1.389 . S
C2820 C2821 1.524 . S
C2820 C2834 1.377 . S
C2821 C2820 1.524 . S
C2821 C2822 1.397 . S
C2821 C2826 1.363 . S
C2822 H2799 0.950 . S
C2822 C2821 1.397 . S
C2822 C2823 1.334 . S
C2823 H2800 0.950 . S
C2823 C2822 1.334 . S
C2823 C2824 1.287 . S
C2824 C2823 1.287 . S
C2824 C2825 1.524 . S
C2824 H2843 0.913 . S
C2825 H2801 0.950 . S
C2825 C2824 1.524 . S
C2825 C2826 1.415 . S
C2826 H2802 0.950 . S
C2826 C2821 1.363 . S
C2826 C2825 1.415 . S
C2827 H2803 0.951 . S
C2827 C2828 1.366 . S
C2827 C2829 1.388 . S
C2828 C2827 1.366 . S
C2828 C2832 1.385 . S
C2829 H2804 0.951 . S
C2829 C2827 1.388 . S
C2829 C2830 1.366 . S
C2830 C2829 1.366 . S
C2830 C2831 1.414 . S
C2830 C2833 1.499 . S
C2831 H2805 0.950 . S
C2831 C2830 1.414 . S
C2831 C2832 1.374 . S
C2832 H2806 0.950 . S
C2832 C2828 1.385 . S
C2832 C2831 1.374 . S
C2833 C2830 1.499 . S
C2833 C2834 1.373 . S
C2833 C2835 1.389 . S
C2834 H2807 0.950 . S
C2834 C2820 1.377 . S
C2834 C2833 1.373 . S
C2835 C2819 1.377 . S
C2835 C2833 1.389 . S
C2835 C2836 1.524 . S
C2836 C2835 1.524 . S
C2836 C2837 1.397 . S
C2836 C2841 1.363 . S
C2837 H2808 0.950 . S
C2837 C2836 1.397 . S
C2837 C2838 1.334 . S
C2838 H2809 0.950 . S
C2838 C2837 1.334 . S
C2838 C2839 1.287 . S
C2839 C2838 1.287 . S
C2839 C2840 1.524 . S
C2839 H2842 0.999 . S
C2840 H2810 0.950 . S
C2840 C2839 1.524 . S
C2840 C2841 1.415 . S
C2841 H2811 0.950 . S
C2841 C2836 1.363 . S
C2841 C2840 1.415 . S
H2842 C2839 0.999 . S
H2843 C2824 0.913 . S
H2844 C2862 0.951 . S
H2845 C2864 0.951 . S
H2846 C2866 0.950 . S
H2847 C2867 0.950 . S
H2848 C2869 0.950 . S
H2849 C2872 0.950 . S
H2850 C2873 0.950 . S
H2851 C2875 0.950 . S
H2852 C2876 0.950 . S
H2853 C2877 0.951 . S
H2854 C2879 0.951 . S
H2855 C2881 0.950 . S
H2856 C2882 0.950 . S
H2857 C2884 0.950 . S
H2858 C2887 0.950 . S
H2859 C2888 0.950 . S
H2860 C2890 0.950 . S
H2861 C2891 0.950 . S
C2862 H2844 0.951 . S
C2862 C2863 1.366 . S
C2862 C2864 1.388 . S
C2863 C2862 1.366 . S
C2863 C2867 1.385 . S
C2864 H2845 0.951 . S
C2864 C2862 1.388 . S
C2864 C2865 1.366 . S
C2865 C2864 1.366 . S
C2865 C2866 1.414 . S
C2865 C2868 1.499 . S
C2866 H2846 0.950 . S
C2866 C2865 1.414 . S
C2866 C2867 1.374 . S
C2867 H2847 0.950 . S
C2867 C2863 1.385 . S
C2867 C2866 1.374 . S
C2868 C2865 1.499 . S
C2868 C2869 1.373 . S
C2868 C2870 1.389 . S
C2869 H2848 0.950 . S
C2869 C2868 1.373 . S
C2869 C2885 1.377 . S
C2870 C2868 1.389 . S
C2870 C2871 1.524 . S
C2870 C2884 1.377 . S
C2871 C2870 1.524 . S
C2871 C2872 1.397 . S
C2871 C2876 1.363 . S
C2872 H2849 0.950 . S
C2872 C2871 1.397 . S
C2872 C2873 1.334 . S
C2873 H2850 0.950 . S
C2873 C2872 1.334 . S
C2873 C2874 1.287 . S
C2874 C2873 1.287 . S
C2874 C2875 1.524 . S
C2874 H2893 0.913 . S
C2875 H2851 0.950 . S
C2875 C2874 1.524 . S
C2875 C2876 1.415 . S
C2876 H2852 0.950 . S
C2876 C2871 1.363 . S
C2876 C2875 1.415 . S
C2877 H2853 0.951 . S
C2877 C2878 1.366 . S
C2877 C2879 1.388 . S
C2878 C2877 1.366 . S
C2878 C2882 1.385 . S
C2879 H2854 0.951 . S
C2879 C2877 1.388 . S
C2879 C2880 1.366 . S
C2880 C2879 1.366 . S
C2880 C2881 1.414 . S
C2880 C2883 1.499 . S
C2881 H2855 0.950 . S
C2881 C2880 1.414 . S
C2881 C2882 1.374 . S
C2882 H2856 0.950 . S
C2882 C2878 1.385 . S
C2882 C2881 1.374 . S
C2883 C2880 1.499 . S
C2883 C2884 1.373 . S
C2883 C2885 1.389 . S
C2884 H2857 0.950 . S
C2884 C2870 1.377 . S
C2884 C2883 1.373 . S
C2885 C2869 1.377 . S
C2885 C2883 1.389 . S
C2885 C2886 1.524 . S
C2886 C2885 1.524 . S
C2886 C2887 1.397 . S
C2886 C2891 1.363 . S
C2887 H2858 0.950 . S
C2887 C2886 1.397 . S
C2887 C2888 1.334 . S
C2888 H2859 0.950 . S
C2888 C2887 1.334 . S
C2888 C2889 1.287 . S
C2889 C2888 1.287 . S
C2889 C2890 1.524 . S
C2889 H2892 0.999 . S
C2890 H2860 0.950 . S
C2890 C2889 1.524 . S
C2890 C2891 1.415 . S
C2891 H2861 0.950 . S
C2891 C2886 1.363 . S
C2891 C2890 1.415 . S
H2892 C2889 0.999 . S
H2893 C2874 0.913 . S
H2894 C2912 0.951 . S
H2895 C2914 0.951 . S
H2896 C2916 0.950 . S
H2897 C2917 0.950 . S
H2898 C2919 0.950 . S
H2899 C2922 0.950 . S
H2900 C2923 0.950 . S
H2901 C2925 0.950 . S
H2902 C2926 0.950 . S
H2903 C2927 0.951 . S
H2904 C2929 0.951 . S
H2905 C2931 0.950 . S
H2906 C2932 0.950 . S
H2907 C2934 0.950 . S
H2908 C2937 0.950 . S
H2909 C2938 0.950 . S
H2910 C2940 0.950 . S
H2911 C2941 0.950 . S
C2912 H2894 0.951 . S
C2912 C2913 1.366 . S
C2912 C2914 1.388 . S
C2913 C2912 1.366 . S
C2913 C2917 1.385 . S
C2914 H2895 0.951 . S
C2914 C2912 1.388 . S
C2914 C2915 1.366 . S
C2915 C2914 1.366 . S
C2915 C2916 1.414 . S
C2915 C2918 1.499 . S
C2916 H2896 0.950 . S
C2916 C2915 1.414 . S
C2916 C2917 1.374 . S
C2917 H2897 0.950 . S
C2917 C2913 1.385 . S
C2917 C2916 1.374 . S
C2918 C2915 1.499 . S
C2918 C2919 1.373 . S
C2918 C2920 1.389 . S
C2919 H2898 0.950 . S
C2919 C2918 1.373 . S
C2919 C2935 1.377 . S
C2920 C2918 1.389 . S
C2920 C2921 1.524 . S
C2920 C2934 1.377 . S
C2921 C2920 1.524 . S
C2921 C2922 1.397 . S
C2921 C2926 1.363 . S
C2922 H2899 0.950 . S
C2922 C2921 1.397 . S
C2922 C2923 1.334 . S
C2923 H2900 0.950 . S
C2923 C2922 1.334 . S
C2923 C2924 1.287 . S
C2924 C2923 1.287 . S
C2924 C2925 1.524 . S
C2924 H2943 0.913 . S
C2925 H2901 0.950 . S
C2925 C2924 1.524 . S
C2925 C2926 1.415 . S
C2926 H2902 0.950 . S
C2926 C2921 1.363 . S
C2926 C2925 1.415 . S
C2927 H2903 0.951 . S
C2927 C2928 1.366 . S
C2927 C2929 1.388 . S
C2928 C2927 1.366 . S
C2928 C2932 1.385 . S
C2929 H2904 0.951 . S
C2929 C2927 1.388 . S
C2929 C2930 1.366 . S
C2930 C2929 1.366 . S
C2930 C2931 1.414 . S
C2930 C2933 1.499 . S
C2931 H2905 0.950 . S
C2931 C2930 1.414 . S
C2931 C2932 1.374 . S
C2932 H2906 0.950 . S
C2932 C2928 1.385 . S
C2932 C2931 1.374 . S
C2933 C2930 1.499 . S
C2933 C2934 1.373 . S
C2933 C2935 1.389 . S
C2934 H2907 0.950 . S
C2934 C2920 1.377 . S
C2934 C2933 1.373 . S
C2935 C2919 1.377 . S
C2935 C2933 1.389 . S
C2935 C2936 1.524 . S
C2936 C2935 1.524 . S
C2936 C2937 1.397 . S
C2936 C2941 1.363 . S
C2937 H2908 0.950 . S
C2937 C2936 1.397 . S
C2937 C2938 1.334 . S
C2938 H2909 0.950 . S
C2938 C2937 1.334 . S
C2938 C2939 1.287 . S
C2939 C2938 1.287 . S
C2939 C2940 1.524 . S
C2939 H2942 0.999 . S
C2940 H2910 0.950 . S
C2940 C2939 1.524 . S
C2940 C2941 1.415 . S
C2941 H2911 0.950 . S
C2941 C2936 1.363 . S
C2941 C2940 1.415 . S
H2942 C2939 0.999 . S
H2943 C2924 0.913 . S
H2944 C2962 0.951 . S
H2945 C2964 0.951 . S
H2946 C2966 0.950 . S
H2947 C2967 0.950 . S
H2948 C2969 0.950 . S
H2949 C2972 0.950 . S
H2950 C2973 0.950 . S
H2951 C2975 0.950 . S
H2952 C2976 0.950 . S
H2953 C2977 0.951 . S
H2954 C2979 0.951 . S
H2955 C2981 0.950 . S
H2956 C2982 0.950 . S
H2957 C2984 0.950 . S
H2958 C2987 0.950 . S
H2959 C2988 0.950 . S
H2960 C2990 0.950 . S
H2961 C2991 0.950 . S
C2962 H2944 0.951 . S
C2962 C2963 1.366 . S
C2962 C2964 1.388 . S
C2963 C2962 1.366 . S
C2963 C2967 1.385 . S
C2964 H2945 0.951 . S
C2964 C2962 1.388 . S
C2964 C2965 1.366 . S
C2965 C2964 1.366 . S
C2965 C2966 1.414 . S
C2965 C2968 1.499 . S
C2966 H2946 0.950 . S
C2966 C2965 1.414 . S
C2966 C2967 1.374 . S
C2967 H2947 0.950 . S
C2967 C2963 1.385 . S
C2967 C2966 1.374 . S
C2968 C2965 1.499 . S
C2968 C2969 1.373 . S
C2968 C2970 1.389 . S
C2969 H2948 0.950 . S
C2969 C2968 1.373 . S
C2969 C2985 1.377 . S
C2970 C2968 1.389 . S
C2970 C2971 1.524 . S
C2970 C2984 1.377 . S
C2971 C2970 1.524 . S
C2971 C2972 1.397 . S
C2971 C2976 1.363 . S
C2972 H2949 0.950 . S
C2972 C2971 1.397 . S
C2972 C2973 1.334 . S
C2973 H2950 0.950 . S
C2973 C2972 1.334 . S
C2973 C2974 1.287 . S
C2974 C2973 1.287 . S
C2974 C2975 1.524 . S
C2974 H2993 0.913 . S
C2975 H2951 0.950 . S
C2975 C2974 1.524 . S
C2975 C2976 1.415 . S
C2976 H2952 0.950 . S
C2976 C2971 1.363 . S
C2976 C2975 1.415 . S
C2977 H2953 0.951 . S
C2977 C2978 1.366 . S
C2977 C2979 1.388 . S
C2978 C2977 1.366 . S
C2978 C2982 1.385 . S
C2979 H2954 0.951 . S
C2979 C2977 1.388 . S
C2979 C2980 1.366 . S
C2980 C2979 1.366 . S
C2980 C2981 1.414 . S
C2980 C2983 1.499 . S
C2981 H2955 0.950 . S
C2981 C2980 1.414 . S
C2981 C2982 1.374 . S
C2982 H2956 0.950 . S
C2982 C2978 1.385 . S
C2982 C2981 1.374 . S
C2983 C2980 1.499 . S
C2983 C2984 1.373 . S
C2983 C2985 1.389 . S
C2984 H2957 0.950 . S
C2984 C2970 1.377 . S
C2984 C2983 1.373 . S
C2985 C2969 1.377 . S
C2985 C2983 1.389 . S
C2985 C2986 1.524 . S
C2986 C2985 1.524 . S
C2986 C2987 1.397 . S
C2986 C2991 1.363 . S
C2987 H2958 0.950 . S
C2987 C2986 1.397 . S
C2987 C2988 1.334 . S
C2988 H2959 0.950 . S
C2988 C2987 1.334 . S
C2988 C2989 1.287 . S
C2989 C2988 1.287 . S
C2989 C2990 1.524 . S
C2989 H2992 0.999 . S
C2990 H2960 0.950 . S
C2990 C2989 1.524 . S
C2990 C2991 1.415 . S
C2991 H2961 0.950 . S
C2991 C2986 1.363 . S
C2991 C2990 1.415 . S
H2992 C2989 0.999 . S
H2993 C2974 0.913 . S
H2994 C3012 0.951 . S
H2995 C3014 0.951 . S
H2996 C3016 0.950 . S
H2997 C3017 0.950 . S
H2998 C3019 0.950 . S
H2999 C3022 0.950 . S
H3000 C3023 0.950 . S
H3001 C3025 0.950 . S
H3002 C3026 0.950 . S
H3003 C3027 0.951 . S
H3004 C3029 0.951 . S
H3005 C3031 0.950 . S
H3006 C3032 0.950 . S
H3007 C3034 0.950 . S
H3008 C3037 0.950 . S
H3009 C3038 0.950 . S
H3010 C3040 0.950 . S
H3011 C3041 0.950 . S
C3012 H2994 0.951 . S
C3012 C3013 1.366 . S
C3012 C3014 1.388 . S
C3013 C3012 1.366 . S
C3013 C3017 1.385 . S
C3014 H2995 0.951 . S
C3014 C3012 1.388 . S
C3014 C3015 1.366 . S
C3015 C3014 1.366 . S
C3015 C3016 1.414 . S
C3015 C3018 1.499 . S
C3016 H2996 0.950 . S
C3016 C3015 1.414 . S
C3016 C3017 1.374 . S
C3017 H2997 0.950 . S
C3017 C3013 1.385 . S
C3017 C3016 1.374 . S
C3018 C3015 1.499 . S
C3018 C3019 1.373 . S
C3018 C3020 1.389 . S
C3019 H2998 0.950 . S
C3019 C3018 1.373 . S
C3019 C3035 1.377 . S
C3020 C3018 1.389 . S
C3020 C3021 1.524 . S
C3020 C3034 1.377 . S
C3021 C3020 1.524 . S
C3021 C3022 1.397 . S
C3021 C3026 1.363 . S
C3022 H2999 0.950 . S
C3022 C3021 1.397 . S
C3022 C3023 1.334 . S
C3023 H3000 0.950 . S
C3023 C3022 1.334 . S
C3023 C3024 1.287 . S
C3024 C3023 1.287 . S
C3024 C3025 1.524 . S
C3024 H3043 0.913 . S
C3025 H3001 0.950 . S
C3025 C3024 1.524 . S
C3025 C3026 1.415 . S
C3026 H3002 0.950 . S
C3026 C3021 1.363 . S
C3026 C3025 1.415 . S
C3027 H3003 0.951 . S
C3027 C3028 1.366 . S
C3027 C3029 1.388 . S
C3028 C3027 1.366 . S
C3028 C3032 1.385 . S
C3029 H3004 0.951 . S
C3029 C3027 1.388 . S
C3029 C3030 1.366 . S
C3030 C3029 1.366 . S
C3030 C3031 1.414 . S
C3030 C3033 1.499 . S
C3031 H3005 0.950 . S
C3031 C3030 1.414 . S
C3031 C3032 1.374 . S
C3032 H3006 0.950 . S
C3032 C3028 1.385 . S
C3032 C3031 1.374 . S
C3033 C3030 1.499 . S
C3033 C3034 1.373 . S
C3033 C3035 1.389 . S
C3034 H3007 0.950 . S
C3034 C3020 1.377 . S
C3034 C3033 1.373 . S
C3035 C3019 1.377 . S
C3035 C3033 1.389 . S
C3035 C3036 1.524 . S
C3036 C3035 1.524 . S
C3036 C3037 1.397 . S
C3036 C3041 1.363 . S
C3037 H3008 0.950 . S
C3037 C3036 1.397 . S
C3037 C3038 1.334 . S
C3038 H3009 0.950 . S
C3038 C3037 1.334 . S
C3038 C3039 1.287 . S
C3039 C3038 1.287 . S
C3039 C3040 1.524 . S
C3039 H3042 0.999 . S
C3040 H3010 0.950 . S
C3040 C3039 1.524 . S
C3040 C3041 1.415 . S
C3041 H3011 0.950 . S
C3041 C3036 1.363 . S
C3041 C3040 1.415 . S
H3042 C3039 0.999 . S
H3043 C3024 0.913 . S
H3044 C3062 0.951 . S
H3045 C3064 0.951 . S
H3046 C3066 0.950 . S
H3047 C3067 0.950 . S
H3048 C3069 0.950 . S
H3049 C3072 0.950 . S
H3050 C3073 0.950 . S
H3051 C3075 0.950 . S
H3052 C3076 0.950 . S
H3053 C3077 0.951 . S
H3054 C3079 0.951 . S
H3055 C3081 0.950 . S
H3056 C3082 0.950 . S
H3057 C3084 0.950 . S
H3058 C3087 0.950 . S
H3059 C3088 0.950 . S
H3060 C3090 0.950 . S
H3061 C3091 0.950 . S
C3062 H3044 0.951 . S
C3062 C3063 1.366 . S
C3062 C3064 1.388 . S
C3063 C3062 1.366 . S
C3063 C3067 1.385 . S
C3064 H3045 0.951 . S
C3064 C3062 1.388 . S
C3064 C3065 1.366 . S
C3065 C3064 1.366 . S
C3065 C3066 1.414 . S
C3065 C3068 1.499 . S
C3066 H3046 0.950 . S
C3066 C3065 1.414 . S
C3066 C3067 1.374 . S
C3067 H3047 0.950 . S
C3067 C3063 1.385 . S
C3067 C3066 1.374 . S
C3068 C3065 1.499 . S
C3068 C3069 1.373 . S
C3068 C3070 1.389 . S
C3069 H3048 0.950 . S
C3069 C3068 1.373 . S
C3069 C3085 1.377 . S
C3070 C3068 1.389 . S
C3070 C3071 1.524 . S
C3070 C3084 1.377 . S
C3071 C3070 1.524 . S
C3071 C3072 1.397 . S
C3071 C3076 1.363 . S
C3072 H3049 0.950 . S
C3072 C3071 1.397 . S
C3072 C3073 1.334 . S
C3073 H3050 0.950 . S
C3073 C3072 1.334 . S
C3073 C3074 1.287 . S
C3074 C3073 1.287 . S
C3074 C3075 1.524 . S
C3074 H3093 0.913 . S
C3075 H3051 0.950 . S
C3075 C3074 1.524 . S
C3075 C3076 1.415 . S
C3076 H3052 0.950 . S
C3076 C3071 1.363 . S
C3076 C3075 1.415 . S
C3077 H3053 0.951 . S
C3077 C3078 1.366 . S
C3077 C3079 1.388 . S
C3078 C3077 1.366 . S
C3078 C3082 1.385 . S
C3079 H3054 0.951 . S
C3079 C3077 1.388 . S
C3079 C3080 1.366 . S
C3080 C3079 1.366 . S
C3080 C3081 1.414 . S
C3080 C3083 1.499 . S
C3081 H3055 0.950 . S
C3081 C3080 1.414 . S
C3081 C3082 1.374 . S
C3082 H3056 0.950 . S
C3082 C3078 1.385 . S
C3082 C3081 1.374 . S
C3083 C3080 1.499 . S
C3083 C3084 1.373 . S
C3083 C3085 1.389 . S
C3084 H3057 0.950 . S
C3084 C3070 1.377 . S
C3084 C3083 1.373 . S
C3085 C3069 1.377 . S
C3085 C3083 1.389 . S
C3085 C3086 1.524 . S
C3086 C3085 1.524 . S
C3086 C3087 1.397 . S
C3086 C3091 1.363 . S
C3087 H3058 0.950 . S
C3087 C3086 1.397 . S
C3087 C3088 1.334 . S
C3088 H3059 0.950 . S
C3088 C3087 1.334 . S
C3088 C3089 1.287 . S
C3089 C3088 1.287 . S
C3089 C3090 1.524 . S
C3089 H3092 0.999 . S
C3090 H3060 0.950 . S
C3090 C3089 1.524 . S
C3090 C3091 1.415 . S
C3091 H3061 0.950 . S
C3091 C3086 1.363 . S
C3091 C3090 1.415 . S
H3092 C3089 0.999 . S
H3093 C3074 0.913 . S
H3094 C3112 0.951 . S
H3095 C3114 0.951 . S
H3096 C3116 0.950 . S
H3097 C3117 0.950 . S
H3098 C3119 0.950 . S
H3099 C3122 0.950 . S
H3100 C3123 0.950 . S
H3101 C3125 0.950 . S
H3102 C3126 0.950 . S
H3103 C3127 0.951 . S
H3104 C3129 0.951 . S
H3105 C3131 0.950 . S
H3106 C3132 0.950 . S
H3107 C3134 0.950 . S
H3108 C3137 0.950 . S
H3109 C3138 0.950 . S
H3110 C3140 0.950 . S
H3111 C3141 0.950 . S
C3112 H3094 0.951 . S
C3112 C3113 1.366 . S
C3112 C3114 1.388 . S
C3113 C3112 1.366 . S
C3113 C3117 1.385 . S
C3114 H3095 0.951 . S
C3114 C3112 1.388 . S
C3114 C3115 1.366 . S
C3115 C3114 1.366 . S
C3115 C3116 1.414 . S
C3115 C3118 1.499 . S
C3116 H3096 0.950 . S
C3116 C3115 1.414 . S
C3116 C3117 1.374 . S
C3117 H3097 0.950 . S
C3117 C3113 1.385 . S
C3117 C3116 1.374 . S
C3118 C3115 1.499 . S
C3118 C3119 1.373 . S
C3118 C3120 1.389 . S
C3119 H3098 0.950 . S
C3119 C3118 1.373 . S
C3119 C3135 1.377 . S
C3120 C3118 1.389 . S
C3120 C3121 1.524 . S
C3120 C3134 1.377 . S
C3121 C3120 1.524 . S
C3121 C3122 1.397 . S
C3121 C3126 1.363 . S
C3122 H3099 0.950 . S
C3122 C3121 1.397 . S
C3122 C3123 1.334 . S
C3123 H3100 0.950 . S
C3123 C3122 1.334 . S
C3123 C3124 1.287 . S
C3124 C3123 1.287 . S
C3124 C3125 1.524 . S
C3124 H3143 0.913 . S
C3125 H3101 0.950 . S
C3125 C3124 1.524 . S
C3125 C3126 1.415 . S
C3126 H3102 0.950 . S
C3126 C3121 1.363 . S
C3126 C3125 1.415 . S
C3127 H3103 0.951 . S
C3127 C3128 1.366 . S
C3127 C3129 1.388 . S
C3128 C3127 1.366 . S
C3128 C3132 1.385 . S
C3129 H3104 0.951 . S
C3129 C3127 1.388 . S
C3129 C3130 1.366 . S
C3130 C3129 1.366 . S
C3130 C3131 1.414 . S
C3130 C3133 1.499 . S
C3131 H3105 0.950 . S
C3131 C3130 1.414 . S
C3131 C3132 1.374 . S
C3132 H3106 0.950 . S
C3132 C3128 1.385 . S
C3132 C3131 1.374 . S
C3133 C3130 1.499 . S
C3133 C3134 1.373 . S
C3133 C3135 1.389 . S
C3134 H3107 0.950 . S
C3134 C3120 1.377 . S
C3134 C3133 1.373 . S
C3135 C3119 1.377 . S
C3135 C3133 1.389 . S
C3135 C3136 1.524 . S
C3136 C3135 1.524 . S
C3136 C3137 1.397 . S
C3136 C3141 1.363 . S
C3137 H3108 0.950 . S
C3137 C3136 1.397 . S
C3137 C3138 1.334 . S
C3138 H3109 0.950 . S
C3138 C3137 1.334 . S
C3138 C3139 1.287 . S
C3139 C3138 1.287 . S
C3139 C3140 1.524 . S
C3139 H3142 0.999 . S
C3140 H3110 0.950 . S
C3140 C3139 1.524 . S
C3140 C3141 1.415 . S
C3141 H3111 0.950 . S
C3141 C3136 1.363 . S
C3141 C3140 1.415 . S
H3142 C3139 0.999 . S
H3143 C3124 0.913 . S
H3144 C3162 0.951 . S
H3145 C3164 0.951 . S
H3146 C3166 0.950 . S
H3147 C3167 0.950 . S
H3148 C3169 0.950 . S
H3149 C3172 0.950 . S
H3150 C3173 0.950 . S
H3151 C3175 0.950 . S
H3152 C3176 0.950 . S
H3153 C3177 0.951 . S
H3154 C3179 0.951 . S
H3155 C3181 0.950 . S
H3156 C3182 0.950 . S
H3157 C3184 0.950 . S
H3158 C3187 0.950 . S
H3159 C3188 0.950 . S
H3160 C3190 0.950 . S
H3161 C3191 0.950 . S
C3162 H3144 0.951 . S
C3162 C3163 1.366 . S
C3162 C3164 1.388 . S
C3163 C3162 1.366 . S
C3163 C3167 1.385 . S
C3164 H3145 0.951 . S
C3164 C3162 1.388 . S
C3164 C3165 1.366 . S
C3165 C3164 1.366 . S
C3165 C3166 1.414 . S
C3165 C3168 1.499 . S
C3166 H3146 0.950 . S
C3166 C3165 1.414 . S
C3166 C3167 1.374 . S
C3167 H3147 0.950 . S
C3167 C3163 1.385 . S
C3167 C3166 1.374 . S
C3168 C3165 1.499 . S
C3168 C3169 1.373 . S
C3168 C3170 1.389 . S
C3169 H3148 0.950 . S
C3169 C3168 1.373 . S
C3169 C3185 1.377 . S
C3170 C3168 1.389 . S
C3170 C3171 1.524 . S
C3170 C3184 1.377 . S
C3171 C3170 1.524 . S
C3171 C3172 1.397 . S
C3171 C3176 1.363 . S
C3172 H3149 0.950 . S
C3172 C3171 1.397 . S
C3172 C3173 1.334 1_655 S
C3173 H3150 0.950 . S
C3173 C3172 1.334 1_455 S
C3173 C3174 1.287 . S
C3174 C3173 1.287 . S
C3174 C3175 1.524 1_455 S
C3174 H3193 0.913 . S
C3175 H3151 0.950 . S
C3175 C3174 1.524 1_655 S
C3175 C3176 1.415 . S
C3176 H3152 0.950 . S
C3176 C3171 1.363 . S
C3176 C3175 1.415 . S
C3177 H3153 0.951 . S
C3177 C3178 1.366 . S
C3177 C3179 1.388 . S
C3178 C3177 1.366 . S
C3178 C3182 1.385 . S
C3179 H3154 0.951 . S
C3179 C3177 1.388 . S
C3179 C3180 1.366 . S
C3180 C3179 1.366 . S
C3180 C3181 1.414 . S
C3180 C3183 1.499 . S
C3181 H3155 0.950 . S
C3181 C3180 1.414 . S
C3181 C3182 1.374 . S
C3182 H3156 0.950 . S
C3182 C3178 1.385 . S
C3182 C3181 1.374 . S
C3183 C3180 1.499 . S
C3183 C3184 1.373 . S
C3183 C3185 1.389 . S
C3184 H3157 0.950 . S
C3184 C3170 1.377 . S
C3184 C3183 1.373 . S
C3185 C3169 1.377 . S
C3185 C3183 1.389 . S
C3185 C3186 1.524 . S
C3186 C3185 1.524 . S
C3186 C3187 1.397 . S
C3186 C3191 1.363 . S
C3187 H3158 0.950 . S
C3187 C3186 1.397 . S
C3187 C3188 1.334 . S
C3188 H3159 0.950 . S
C3188 C3187 1.334 . S
C3188 C3189 1.287 . S
C3189 C3188 1.287 . S
C3189 C3190 1.524 . S
C3189 H3192 0.999 . S
C3190 H3160 0.950 . S
C3190 C3189 1.524 . S
C3190 C3191 1.415 . S
C3191 H3161 0.950 . S
C3191 C3186 1.363 . S
C3191 C3190 1.415 . S
H3192 C3189 0.999 . S
H3193 C3174 0.913 . S
H3194 C3212 0.951 . S
H3195 C3214 0.951 . S
H3196 C3216 0.950 . S
H3197 C3217 0.950 . S
H3198 C3219 0.950 . S
H3199 C3222 0.950 . S
H3200 C3223 0.950 . S
H3201 C3225 0.950 . S
H3202 C3226 0.950 . S
H3203 C3227 0.951 . S
H3204 C3229 0.951 . S
H3205 C3231 0.950 . S
H3206 C3232 0.950 . S
H3207 C3234 0.950 . S
H3208 C3237 0.950 . S
H3209 C3238 0.950 . S
H3210 C3240 0.950 . S
H3211 C3241 0.950 . S
C3212 H3194 0.951 . S
C3212 C3213 1.366 . S
C3212 C3214 1.388 . S
C3213 C3212 1.366 . S
C3213 C3217 1.385 . S
C3214 H3195 0.951 . S
C3214 C3212 1.388 . S
C3214 C3215 1.366 . S
C3215 C3214 1.366 . S
C3215 C3216 1.414 . S
C3215 C3218 1.499 . S
C3216 H3196 0.950 . S
C3216 C3215 1.414 . S
C3216 C3217 1.374 . S
C3217 H3197 0.950 . S
C3217 C3213 1.385 . S
C3217 C3216 1.374 . S
C3218 C3215 1.499 . S
C3218 C3219 1.373 . S
C3218 C3220 1.389 . S
C3219 H3198 0.950 . S
C3219 C3218 1.373 . S
C3219 C3235 1.377 . S
C3220 C3218 1.389 . S
C3220 C3221 1.524 . S
C3220 C3234 1.377 . S
C3221 C3220 1.524 . S
C3221 C3222 1.397 . S
C3221 C3226 1.363 . S
C3222 H3199 0.950 . S
C3222 C3221 1.397 . S
C3222 C3223 1.334 . S
C3223 H3200 0.950 . S
C3223 C3222 1.334 . S
C3223 C3224 1.287 . S
C3224 C3223 1.287 . S
C3224 C3225 1.524 . S
C3224 H3243 0.913 . S
C3225 H3201 0.950 . S
C3225 C3224 1.524 . S
C3225 C3226 1.415 . S
C3226 H3202 0.950 . S
C3226 C3221 1.363 . S
C3226 C3225 1.415 . S
C3227 H3203 0.951 . S
C3227 C3228 1.366 . S
C3227 C3229 1.388 . S
C3228 C3227 1.366 . S
C3228 C3232 1.385 . S
C3229 H3204 0.951 . S
C3229 C3227 1.388 . S
C3229 C3230 1.366 . S
C3230 C3229 1.366 . S
C3230 C3231 1.414 . S
C3230 C3233 1.499 . S
C3231 H3205 0.950 . S
C3231 C3230 1.414 . S
C3231 C3232 1.374 . S
C3232 H3206 0.950 . S
C3232 C3228 1.385 . S
C3232 C3231 1.374 . S
C3233 C3230 1.499 . S
C3233 C3234 1.373 . S
C3233 C3235 1.389 . S
C3234 H3207 0.950 . S
C3234 C3220 1.377 . S
C3234 C3233 1.373 . S
C3235 C3219 1.377 . S
C3235 C3233 1.389 . S
C3235 C3236 1.524 . S
C3236 C3235 1.524 . S
C3236 C3237 1.397 . S
C3236 C3241 1.363 . S
C3237 H3208 0.950 . S
C3237 C3236 1.397 . S
C3237 C3238 1.334 . S
C3238 H3209 0.950 . S
C3238 C3237 1.334 . S
C3238 C3239 1.287 . S
C3239 C3238 1.287 . S
C3239 C3240 1.524 . S
C3239 H3242 0.999 . S
C3240 H3210 0.950 . S
C3240 C3239 1.524 . S
C3240 C3241 1.415 . S
C3241 H3211 0.950 . S
C3241 C3236 1.363 . S
C3241 C3240 1.415 . S
H3242 C3239 0.999 . S
H3243 C3224 0.913 . S
H3244 C3262 0.951 . S
H3245 C3264 0.951 . S
H3246 C3266 0.950 . S
H3247 C3267 0.950 . S
H3248 C3269 0.950 . S
H3249 C3272 0.950 . S
H3250 C3273 0.950 . S
H3251 C3275 0.950 . S
H3252 C3276 0.950 . S
H3253 C3277 0.951 . S
H3254 C3279 0.951 . S
H3255 C3281 0.950 . S
H3256 C3282 0.950 . S
H3257 C3284 0.950 . S
H3258 C3287 0.950 . S
H3259 C3288 0.950 . S
H3260 C3290 0.950 . S
H3261 C3291 0.950 . S
C3262 H3244 0.951 . S
C3262 C3263 1.366 . S
C3262 C3264 1.388 . S
C3263 C3262 1.366 . S
C3263 C3267 1.385 . S
C3264 H3245 0.951 . S
C3264 C3262 1.388 . S
C3264 C3265 1.366 . S
C3265 C3264 1.366 . S
C3265 C3266 1.414 . S
C3265 C3268 1.499 . S
C3266 H3246 0.950 . S
C3266 C3265 1.414 . S
C3266 C3267 1.374 . S
C3267 H3247 0.950 . S
C3267 C3263 1.385 . S
C3267 C3266 1.374 . S
C3268 C3265 1.499 . S
C3268 C3269 1.373 . S
C3268 C3270 1.389 . S
C3269 H3248 0.950 . S
C3269 C3268 1.373 . S
C3269 C3285 1.377 . S
C3270 C3268 1.389 . S
C3270 C3271 1.524 . S
C3270 C3284 1.377 . S
C3271 C3270 1.524 . S
C3271 C3272 1.397 . S
C3271 C3276 1.363 . S
C3272 H3249 0.950 . S
C3272 C3271 1.397 . S
C3272 C3273 1.334 . S
C3273 H3250 0.950 . S
C3273 C3272 1.334 . S
C3273 C3274 1.287 . S
C3274 C3273 1.287 . S
C3274 C3275 1.524 . S
C3274 H3293 0.913 . S
C3275 H3251 0.950 . S
C3275 C3274 1.524 . S
C3275 C3276 1.415 . S
C3276 H3252 0.950 . S
C3276 C3271 1.363 . S
C3276 C3275 1.415 . S
C3277 H3253 0.951 . S
C3277 C3278 1.366 . S
C3277 C3279 1.388 . S
C3278 C3277 1.366 . S
C3278 C3282 1.385 . S
C3279 H3254 0.951 . S
C3279 C3277 1.388 . S
C3279 C3280 1.366 . S
C3280 C3279 1.366 . S
C3280 C3281 1.414 . S
C3280 C3283 1.499 . S
C3281 H3255 0.950 . S
C3281 C3280 1.414 . S
C3281 C3282 1.374 . S
C3282 H3256 0.950 . S
C3282 C3278 1.385 . S
C3282 C3281 1.374 . S
C3283 C3280 1.499 . S
C3283 C3284 1.373 . S
C3283 C3285 1.389 . S
C3284 H3257 0.950 . S
C3284 C3270 1.377 . S
C3284 C3283 1.373 . S
C3285 C3269 1.377 . S
C3285 C3283 1.389 . S
C3285 C3286 1.524 . S
C3286 C3285 1.524 . S
C3286 C3287 1.397 . S
C3286 C3291 1.363 . S
C3287 H3258 0.950 . S
C3287 C3286 1.397 . S
C3287 C3288 1.334 . S
C3288 H3259 0.950 . S
C3288 C3287 1.334 . S
C3288 C3289 1.287 . S
C3289 C3288 1.287 . S
C3289 C3290 1.524 . S
C3289 H3292 0.999 . S
C3290 H3260 0.950 . S
C3290 C3289 1.524 . S
C3290 C3291 1.415 . S
C3291 H3261 0.950 . S
C3291 C3286 1.363 . S
C3291 C3290 1.415 . S
H3292 C3289 0.999 . S
H3293 C3274 0.913 . S
H3294 C3312 0.951 . S
H3295 C3314 0.951 . S
H3296 C3316 0.950 . S
H3297 C3317 0.950 . S
H3298 C3319 0.950 . S
H3299 C3322 0.950 . S
H3300 C3323 0.950 1_655 S
H3301 C3325 0.950 . S
H3302 C3326 0.950 . S
H3303 C3327 0.951 . S
H3304 C3329 0.951 . S
H3305 C3331 0.950 . S
H3306 C3332 0.950 . S
H3307 C3334 0.950 . S
H3308 C3337 0.950 . S
H3309 C3338 0.950 . S
H3310 C3340 0.950 . S
H3311 C3341 0.950 . S
C3312 H3294 0.951 . S
C3312 C3313 1.366 . S
C3312 C3314 1.388 . S
C3313 C3312 1.366 . S
C3313 C3317 1.385 . S
C3314 H3295 0.951 . S
C3314 C3312 1.388 . S
C3314 C3315 1.366 . S
C3315 C3314 1.366 . S
C3315 C3316 1.414 . S
C3315 C3318 1.499 . S
C3316 H3296 0.950 . S
C3316 C3315 1.414 . S
C3316 C3317 1.374 . S
C3317 H3297 0.950 . S
C3317 C3313 1.385 . S
C3317 C3316 1.374 . S
C3318 C3315 1.499 . S
C3318 C3319 1.373 . S
C3318 C3320 1.389 . S
C3319 H3298 0.950 . S
C3319 C3318 1.373 . S
C3319 C3335 1.377 . S
C3320 C3318 1.389 . S
C3320 C3321 1.524 . S
C3320 C3334 1.377 . S
C3321 C3320 1.524 . S
C3321 C3322 1.397 . S
C3321 C3326 1.363 . S
C3322 H3299 0.950 . S
C3322 C3321 1.397 . S
C3322 C3323 1.334 . S
C3323 H3300 0.950 1_455 S
C3323 C3322 1.334 . S
C3323 C3324 1.287 . S
C3324 C3323 1.287 . S
C3324 C3325 1.524 . S
C3324 H3343 0.928 . S
C3325 H3301 0.950 . S
C3325 C3324 1.524 . S
C3325 C3326 1.415 . S
C3326 H3302 0.950 . S
C3326 C3321 1.363 . S
C3326 C3325 1.415 . S
C3327 H3303 0.951 . S
C3327 C3328 1.366 . S
C3327 C3329 1.388 . S
C3328 C3327 1.366 . S
C3328 C3332 1.385 . S
C3329 H3304 0.951 . S
C3329 C3327 1.388 . S
C3329 C3330 1.366 . S
C3330 C3329 1.366 . S
C3330 C3331 1.414 . S
C3330 C3333 1.499 . S
C3331 H3305 0.950 . S
C3331 C3330 1.414 . S
C3331 C3332 1.374 . S
C3332 H3306 0.950 . S
C3332 C3328 1.385 . S
C3332 C3331 1.374 . S
C3333 C3330 1.499 . S
C3333 C3334 1.373 . S
C3333 C3335 1.389 . S
C3334 H3307 0.950 . S
C3334 C3320 1.377 . S
C3334 C3333 1.373 . S
C3335 C3319 1.377 . S
C3335 C3333 1.389 . S
C3335 C3336 1.524 . S
C3336 C3335 1.524 . S
C3336 C3337 1.397 . S
C3336 C3341 1.363 . S
C3337 H3308 0.950 . S
C3337 C3336 1.397 . S
C3337 C3338 1.334 . S
C3338 H3309 0.950 . S
C3338 C3337 1.334 . S
C3338 C3339 1.287 . S
C3339 C3338 1.287 . S
C3339 C3340 1.524 . S
C3339 H3342 0.999 . S
C3340 H3310 0.950 . S
C3340 C3339 1.524 . S
C3340 C3341 1.415 . S
C3341 H3311 0.950 . S
C3341 C3336 1.363 . S
C3341 C3340 1.415 . S
H3342 C3339 0.999 . S
H3343 C3324 0.928 . S
H3344 C3362 0.951 . S
H3345 C3364 0.951 . S
H3346 C3366 0.950 . S
H3347 C3367 0.950 . S
H3348 C3369 0.950 . S
H3349 C3372 0.950 . S
H3350 C3373 0.950 . S
H3351 C3375 0.950 . S
H3352 C3376 0.950 . S
H3353 C3377 0.951 . S
H3354 C3379 0.951 . S
H3355 C3381 0.950 . S
H3356 C3382 0.950 . S
H3357 C3384 0.950 . S
H3358 C3387 0.950 . S
H3359 C3388 0.950 . S
H3360 C3390 0.950 . S
H3361 C3391 0.950 . S
C3362 H3344 0.951 . S
C3362 C3363 1.366 . S
C3362 C3364 1.388 . S
C3363 C3362 1.366 . S
C3363 C3367 1.385 . S
C3364 H3345 0.951 . S
C3364 C3362 1.388 . S
C3364 C3365 1.366 . S
C3365 C3364 1.366 . S
C3365 C3366 1.414 . S
C3365 C3368 1.499 . S
C3366 H3346 0.950 . S
C3366 C3365 1.414 . S
C3366 C3367 1.374 . S
C3367 H3347 0.950 . S
C3367 C3363 1.385 . S
C3367 C3366 1.374 . S
C3368 C3365 1.499 . S
C3368 C3369 1.373 . S
C3368 C3370 1.389 . S
C3369 H3348 0.950 . S
C3369 C3368 1.373 . S
C3369 C3385 1.377 . S
C3370 C3368 1.389 . S
C3370 C3371 1.524 . S
C3370 C3384 1.377 . S
C3371 C3370 1.524 . S
C3371 C3372 1.397 . S
C3371 C3376 1.363 . S
C3372 H3349 0.950 . S
C3372 C3371 1.397 . S
C3372 C3373 1.334 . S
C3373 H3350 0.950 . S
C3373 C3372 1.334 . S
C3373 C3374 1.287 . S
C3374 C3373 1.287 . S
C3374 C3375 1.524 . S
C3374 H3393 0.913 . S
C3375 H3351 0.950 . S
C3375 C3374 1.524 . S
C3375 C3376 1.415 . S
C3376 H3352 0.950 . S
C3376 C3371 1.363 . S
C3376 C3375 1.415 . S
C3377 H3353 0.951 . S
C3377 C3378 1.366 . S
C3377 C3379 1.388 . S
C3378 C3377 1.366 . S
C3378 C3382 1.385 . S
C3379 H3354 0.951 . S
C3379 C3377 1.388 . S
C3379 C3380 1.366 . S
C3380 C3379 1.366 . S
C3380 C3381 1.414 . S
C3380 C3383 1.499 . S
C3381 H3355 0.950 . S
C3381 C3380 1.414 . S
C3381 C3382 1.374 . S
C3382 H3356 0.950 . S
C3382 C3378 1.385 . S
C3382 C3381 1.374 . S
C3383 C3380 1.499 . S
C3383 C3384 1.373 . S
C3383 C3385 1.389 . S
C3384 H3357 0.950 . S
C3384 C3370 1.377 . S
C3384 C3383 1.373 . S
C3385 C3369 1.377 . S
C3385 C3383 1.389 . S
C3385 C3386 1.524 . S
C3386 C3385 1.524 . S
C3386 C3387 1.397 . S
C3386 C3391 1.363 . S
C3387 H3358 0.950 . S
C3387 C3386 1.397 . S
C3387 C3388 1.334 . S
C3388 H3359 0.950 . S
C3388 C3387 1.334 . S
C3388 C3389 1.287 . S
C3389 C3388 1.287 . S
C3389 C3390 1.524 . S
C3389 H3392 0.999 . S
C3390 H3360 0.950 . S
C3390 C3389 1.524 . S
C3390 C3391 1.415 . S
C3391 H3361 0.950 . S
C3391 C3386 1.363 . S
C3391 C3390 1.415 . S
H3392 C3389 0.999 . S
H3393 C3374 0.913 . S
H3394 C3412 0.951 . S
H3395 C3414 0.951 . S
H3396 C3416 0.950 . S
H3397 C3417 0.950 . S
H3398 C3419 0.950 . S
H3399 C3422 0.950 . S
H3400 C3423 0.950 . S
H3401 C3425 0.950 . S
H3402 C3426 0.950 . S
H3403 C3427 0.951 . S
H3404 C3429 0.951 . S
H3405 C3431 0.950 . S
H3406 C3432 0.950 . S
H3407 C3434 0.950 . S
H3408 C3437 0.950 . S
H3409 C3438 0.950 . S
H3410 C3440 0.950 . S
H3411 C3441 0.950 . S
C3412 H3394 0.951 . S
C3412 C3413 1.366 . S
C3412 C3414 1.388 . S
C3413 C3412 1.366 . S
C3413 C3417 1.385 . S
C3414 H3395 0.951 . S
C3414 C3412 1.388 . S
C3414 C3415 1.366 . S
C3415 C3414 1.366 . S
C3415 C3416 1.414 . S
C3415 C3418 1.499 . S
C3416 H3396 0.950 . S
C3416 C3415 1.414 . S
C3416 C3417 1.374 . S
C3417 H3397 0.950 . S
C3417 C3413 1.385 . S
C3417 C3416 1.374 . S
C3418 C3415 1.499 . S
C3418 C3419 1.373 . S
C3418 C3420 1.389 . S
C3419 H3398 0.950 . S
C3419 C3418 1.373 . S
C3419 C3435 1.377 . S
C3420 C3418 1.389 . S
C3420 C3421 1.524 . S
C3420 C3434 1.377 . S
C3421 C3420 1.524 . S
C3421 C3422 1.397 . S
C3421 C3426 1.363 . S
C3422 H3399 0.950 . S
C3422 C3421 1.397 . S
C3422 C3423 1.334 . S
C3423 H3400 0.950 . S
C3423 C3422 1.334 . S
C3423 C3424 1.287 . S
C3424 C3423 1.287 . S
C3424 C3425 1.524 . S
C3424 H3443 0.913 . S
C3425 H3401 0.950 . S
C3425 C3424 1.524 . S
C3425 C3426 1.415 . S
C3426 H3402 0.950 . S
C3426 C3421 1.363 . S
C3426 C3425 1.415 . S
C3427 H3403 0.951 . S
C3427 C3428 1.366 . S
C3427 C3429 1.388 . S
C3428 C3427 1.366 . S
C3428 C3432 1.385 . S
C3429 H3404 0.951 . S
C3429 C3427 1.388 . S
C3429 C3430 1.366 . S
C3430 C3429 1.366 . S
C3430 C3431 1.414 . S
C3430 C3433 1.499 . S
C3431 H3405 0.950 . S
C3431 C3430 1.414 . S
C3431 C3432 1.374 . S
C3432 H3406 0.950 . S
C3432 C3428 1.385 . S
C3432 C3431 1.374 . S
C3433 C3430 1.499 . S
C3433 C3434 1.373 . S
C3433 C3435 1.389 . S
C3434 H3407 0.950 . S
C3434 C3420 1.377 . S
C3434 C3433 1.373 . S
C3435 C3419 1.377 . S
C3435 C3433 1.389 . S
C3435 C3436 1.524 . S
C3436 C3435 1.524 . S
C3436 C3437 1.397 . S
C3436 C3441 1.363 . S
C3437 H3408 0.950 . S
C3437 C3436 1.397 . S
C3437 C3438 1.334 . S
C3438 H3409 0.950 . S
C3438 C3437 1.334 . S
C3438 C3439 1.287 . S
C3439 C3438 1.287 . S
C3439 C3440 1.524 . S
C3439 H3442 0.999 . S
C3440 H3410 0.950 . S
C3440 C3439 1.524 . S
C3440 C3441 1.415 . S
C3441 H3411 0.950 . S
C3441 C3436 1.363 . S
C3441 C3440 1.415 . S
H3442 C3439 0.999 . S
H3443 C3424 0.913 . S
H3444 C3462 0.951 . S
H3445 C3464 0.951 . S
H3446 C3466 0.950 . S
H3447 C3467 0.950 . S
H3448 C3469 0.950 . S
H3449 C3472 0.950 . S
H3450 C3473 0.950 . S
H3451 C3475 0.950 . S
H3452 C3476 0.950 . S
H3453 C3477 0.951 . S
H3454 C3479 0.951 . S
H3455 C3481 0.950 . S
H3456 C3482 0.950 . S
H3457 C3484 0.950 . S
H3458 C3487 0.950 . S
H3459 C3488 0.950 . S
H3460 C3490 0.950 . S
H3461 C3491 0.950 . S
C3462 H3444 0.951 . S
C3462 C3463 1.366 . S
C3462 C3464 1.388 . S
C3463 C3462 1.366 . S
C3463 C3467 1.385 . S
C3464 H3445 0.951 . S
C3464 C3462 1.388 . S
C3464 C3465 1.366 . S
C3465 C3464 1.366 . S
C3465 C3466 1.414 . S
C3465 C3468 1.499 . S
C3466 H3446 0.950 . S
C3466 C3465 1.414 . S
C3466 C3467 1.374 . S
C3467 H3447 0.950 . S
C3467 C3463 1.385 . S
C3467 C3466 1.374 . S
C3468 C3465 1.499 . S
C3468 C3469 1.373 . S
C3468 C3470 1.389 . S
C3469 H3448 0.950 . S
C3469 C3468 1.373 . S
C3469 C3485 1.377 . S
C3470 C3468 1.389 . S
C3470 C3471 1.524 . S
C3470 C3484 1.377 . S
C3471 C3470 1.524 . S
C3471 C3472 1.397 . S
C3471 C3476 1.363 . S
C3472 H3449 0.950 . S
C3472 C3471 1.397 . S
C3472 C3473 1.334 . S
C3473 H3450 0.950 . S
C3473 C3472 1.334 . S
C3473 C3474 1.287 . S
C3474 C3473 1.287 . S
C3474 C3475 1.524 . S
C3474 H3493 0.913 . S
C3475 H3451 0.950 . S
C3475 C3474 1.524 . S
C3475 C3476 1.415 . S
C3476 H3452 0.950 . S
C3476 C3471 1.363 . S
C3476 C3475 1.415 . S
C3477 H3453 0.951 . S
C3477 C3478 1.366 . S
C3477 C3479 1.388 . S
C3478 C3477 1.366 . S
C3478 C3482 1.385 . S
C3479 H3454 0.951 . S
C3479 C3477 1.388 . S
C3479 C3480 1.366 . S
C3480 C3479 1.366 . S
C3480 C3481 1.414 . S
C3480 C3483 1.499 . S
C3481 H3455 0.950 . S
C3481 C3480 1.414 . S
C3481 C3482 1.374 . S
C3482 H3456 0.950 . S
C3482 C3478 1.385 . S
C3482 C3481 1.374 . S
C3483 C3480 1.499 . S
C3483 C3484 1.373 . S
C3483 C3485 1.389 . S
C3484 H3457 0.950 . S
C3484 C3470 1.377 . S
C3484 C3483 1.373 . S
C3485 C3469 1.377 . S
C3485 C3483 1.389 . S
C3485 C3486 1.524 . S
C3486 C3485 1.524 . S
C3486 C3487 1.397 . S
C3486 C3491 1.363 . S
C3487 H3458 0.950 . S
C3487 C3486 1.397 . S
C3487 C3488 1.334 . S
C3488 H3459 0.950 . S
C3488 C3487 1.334 . S
C3488 C3489 1.287 . S
C3489 C3488 1.287 . S
C3489 C3490 1.524 . S
C3489 H3492 0.999 . S
C3490 H3460 0.950 . S
C3490 C3489 1.524 . S
C3490 C3491 1.415 . S
C3491 H3461 0.950 . S
C3491 C3486 1.363 . S
C3491 C3490 1.415 . S
H3492 C3489 0.999 . S
H3493 C3474 0.913 . S
H3494 C3512 0.951 . S
H3495 C3514 0.951 . S
H3496 C3516 0.950 . S
H3497 C3517 0.950 . S
H3498 C3519 0.950 . S
H3499 C3522 0.950 . S
H3500 C3523 0.950 . S
H3501 C3525 0.950 . S
H3502 C3526 0.950 . S
H3503 C3527 0.951 . S
H3504 C3529 0.951 . S
H3505 C3531 0.950 . S
H3506 C3532 0.950 . S
H3507 C3534 0.950 . S
H3508 C3537 0.950 . S
H3509 C3538 0.950 . S
H3510 C3540 0.950 . S
H3511 C3541 0.950 . S
C3512 H3494 0.951 . S
C3512 C3513 1.366 . S
C3512 C3514 1.388 . S
C3513 C3512 1.366 . S
C3513 C3517 1.385 . S
C3514 H3495 0.951 . S
C3514 C3512 1.388 . S
C3514 C3515 1.366 . S
C3515 C3514 1.366 . S
C3515 C3516 1.414 . S
C3515 C3518 1.499 . S
C3516 H3496 0.950 . S
C3516 C3515 1.414 . S
C3516 C3517 1.374 . S
C3517 H3497 0.950 . S
C3517 C3513 1.385 . S
C3517 C3516 1.374 . S
C3518 C3515 1.499 . S
C3518 C3519 1.373 . S
C3518 C3520 1.389 . S
C3519 H3498 0.950 . S
C3519 C3518 1.373 . S
C3519 C3535 1.377 . S
C3520 C3518 1.389 . S
C3520 C3521 1.524 . S
C3520 C3534 1.377 . S
C3521 C3520 1.524 . S
C3521 C3522 1.397 . S
C3521 C3526 1.363 . S
C3522 H3499 0.950 . S
C3522 C3521 1.397 . S
C3522 C3523 1.334 . S
C3523 H3500 0.950 . S
C3523 C3522 1.334 . S
C3523 C3524 1.287 . S
C3524 C3523 1.287 . S
C3524 C3525 1.524 . S
C3524 H3543 0.913 . S
C3525 H3501 0.950 . S
C3525 C3524 1.524 . S
C3525 C3526 1.415 . S
C3526 H3502 0.950 . S
C3526 C3521 1.363 . S
C3526 C3525 1.415 . S
C3527 H3503 0.951 . S
C3527 C3528 1.366 . S
C3527 C3529 1.388 . S
C3528 C3527 1.366 . S
C3528 C3532 1.385 . S
C3529 H3504 0.951 . S
C3529 C3527 1.388 . S
C3529 C3530 1.366 . S
C3530 C3529 1.366 . S
C3530 C3531 1.414 . S
C3530 C3533 1.499 . S
C3531 H3505 0.950 . S
C3531 C3530 1.414 . S
C3531 C3532 1.374 . S
C3532 H3506 0.950 . S
C3532 C3528 1.385 . S
C3532 C3531 1.374 . S
C3533 C3530 1.499 . S
C3533 C3534 1.373 . S
C3533 C3535 1.389 . S
C3534 H3507 0.950 . S
C3534 C3520 1.377 . S
C3534 C3533 1.373 . S
C3535 C3519 1.377 . S
C3535 C3533 1.389 . S
C3535 C3536 1.524 . S
C3536 C3535 1.524 . S
C3536 C3537 1.397 . S
C3536 C3541 1.363 . S
C3537 H3508 0.950 . S
C3537 C3536 1.397 . S
C3537 C3538 1.334 . S
C3538 H3509 0.950 . S
C3538 C3537 1.334 . S
C3538 C3539 1.287 . S
C3539 C3538 1.287 . S
C3539 C3540 1.524 . S
C3539 H3542 0.999 1_655 S
C3540 H3510 0.950 . S
C3540 C3539 1.524 . S
C3540 C3541 1.415 . S
C3541 H3511 0.950 . S
C3541 C3536 1.363 . S
C3541 C3540 1.415 . S
H3542 C3539 0.999 1_455 S
H3543 C3524 0.913 . S
H3544 C3562 0.951 . S
H3545 C3564 0.951 . S
H3546 C3566 0.950 . S
H3547 C3567 0.950 . S
H3548 C3569 0.950 . S
H3549 C3572 0.950 . S
H3550 C3573 0.950 . S
H3551 C3575 0.950 . S
H3552 C3576 0.950 . S
H3553 C3577 0.951 . S
H3554 C3579 0.951 . S
H3555 C3581 0.950 . S
H3556 C3582 0.950 . S
H3557 C3584 0.950 . S
H3558 C3587 0.950 . S
H3559 C3588 0.950 . S
H3560 C3590 0.950 . S
H3561 C3591 0.950 . S
C3562 H3544 0.951 . S
C3562 C3563 1.366 . S
C3562 C3564 1.388 . S
C3563 C3562 1.366 . S
C3563 C3567 1.385 . S
C3564 H3545 0.951 . S
C3564 C3562 1.388 . S
C3564 C3565 1.366 . S
C3565 C3564 1.366 . S
C3565 C3566 1.414 . S
C3565 C3568 1.499 . S
C3566 H3546 0.950 . S
C3566 C3565 1.414 . S
C3566 C3567 1.374 . S
C3567 H3547 0.950 . S
C3567 C3563 1.385 . S
C3567 C3566 1.374 . S
C3568 C3565 1.499 . S
C3568 C3569 1.373 . S
C3568 C3570 1.389 . S
C3569 H3548 0.950 . S
C3569 C3568 1.373 . S
C3569 C3585 1.377 . S
C3570 C3568 1.389 . S
C3570 C3571 1.524 . S
C3570 C3584 1.377 . S
C3571 C3570 1.524 . S
C3571 C3572 1.397 . S
C3571 C3576 1.363 . S
C3572 H3549 0.950 . S
C3572 C3571 1.397 . S
C3572 C3573 1.334 . S
C3573 H3550 0.950 . S
C3573 C3572 1.334 . S
C3573 C3574 1.287 . S
C3574 C3573 1.287 . S
C3574 C3575 1.524 . S
C3574 H3593 0.913 . S
C3575 H3551 0.950 . S
C3575 C3574 1.524 . S
C3575 C3576 1.415 . S
C3576 H3552 0.950 . S
C3576 C3571 1.363 . S
C3576 C3575 1.415 . S
C3577 H3553 0.951 . S
C3577 C3578 1.366 . S
C3577 C3579 1.388 . S
C3578 C3577 1.366 . S
C3578 C3582 1.385 . S
C3579 H3554 0.951 . S
C3579 C3577 1.388 . S
C3579 C3580 1.366 . S
C3580 C3579 1.366 . S
C3580 C3581 1.414 . S
C3580 C3583 1.499 . S
C3581 H3555 0.950 . S
C3581 C3580 1.414 . S
C3581 C3582 1.374 . S
C3582 H3556 0.950 . S
C3582 C3578 1.385 . S
C3582 C3581 1.374 . S
C3583 C3580 1.499 . S
C3583 C3584 1.373 . S
C3583 C3585 1.389 . S
C3584 H3557 0.950 . S
C3584 C3570 1.377 . S
C3584 C3583 1.373 . S
C3585 C3569 1.377 . S
C3585 C3583 1.389 . S
C3585 C3586 1.524 . S
C3586 C3585 1.524 . S
C3586 C3587 1.397 . S
C3586 C3591 1.363 . S
C3587 H3558 0.950 . S
C3587 C3586 1.397 . S
C3587 C3588 1.334 . S
C3588 H3559 0.950 . S
C3588 C3587 1.334 . S
C3588 C3589 1.287 . S
C3589 C3588 1.287 . S
C3589 C3590 1.524 . S
C3589 H3592 0.999 . S
C3590 H3560 0.950 . S
C3590 C3589 1.524 . S
C3590 C3591 1.415 . S
C3591 H3561 0.950 . S
C3591 C3586 1.363 . S
C3591 C3590 1.415 . S
H3592 C3589 0.999 . S
H3593 C3574 0.913 . S
H3594 C3612 0.951 . S
H3595 C3614 0.951 . S
H3596 C3616 0.950 . S
H3597 C3617 0.950 . S
H3598 C3619 0.950 . S
H3599 C3622 0.950 . S
H3600 C3623 0.950 . S
H3601 C3625 0.950 . S
H3602 C3626 0.950 . S
H3603 C3627 0.951 . S
H3604 C3629 0.951 . S
H3605 C3631 0.950 . S
H3606 C3632 0.950 . S
H3607 C3634 0.950 . S
H3608 C3637 0.950 . S
H3609 C3638 0.950 . S
H3610 C3640 0.950 . S
H3611 C3641 0.950 . S
C3612 H3594 0.951 . S
C3612 C3613 1.366 . S
C3612 C3614 1.388 . S
C3613 C3612 1.366 . S
C3613 C3617 1.385 . S
C3614 H3595 0.951 . S
C3614 C3612 1.388 . S
C3614 C3615 1.366 . S
C3615 C3614 1.366 . S
C3615 C3616 1.414 . S
C3615 C3618 1.499 . S
C3616 H3596 0.950 . S
C3616 C3615 1.414 . S
C3616 C3617 1.374 . S
C3617 H3597 0.950 . S
C3617 C3613 1.385 . S
C3617 C3616 1.374 . S
C3618 C3615 1.499 . S
C3618 C3619 1.373 . S
C3618 C3620 1.389 . S
C3619 H3598 0.950 . S
C3619 C3618 1.373 . S
C3619 C3635 1.377 . S
C3620 C3618 1.389 . S
C3620 C3621 1.524 . S
C3620 C3634 1.377 . S
C3621 C3620 1.524 . S
C3621 C3622 1.397 . S
C3621 C3626 1.363 . S
C3622 H3599 0.950 . S
C3622 C3621 1.397 . S
C3622 C3623 1.334 . S
C3623 H3600 0.950 . S
C3623 C3622 1.334 . S
C3623 C3624 1.287 . S
C3624 C3623 1.287 . S
C3624 C3625 1.524 . S
C3624 H3643 0.913 . S
C3625 H3601 0.950 . S
C3625 C3624 1.524 . S
C3625 C3626 1.415 . S
C3626 H3602 0.950 . S
C3626 C3621 1.363 . S
C3626 C3625 1.415 . S
C3627 H3603 0.951 . S
C3627 C3628 1.366 . S
C3627 C3629 1.388 . S
C3628 C3627 1.366 . S
C3628 C3632 1.385 . S
C3629 H3604 0.951 . S
C3629 C3627 1.388 . S
C3629 C3630 1.366 . S
C3630 C3629 1.366 . S
C3630 C3631 1.414 . S
C3630 C3633 1.499 . S
C3631 H3605 0.950 . S
C3631 C3630 1.414 . S
C3631 C3632 1.374 . S
C3632 H3606 0.950 . S
C3632 C3628 1.385 . S
C3632 C3631 1.374 . S
C3633 C3630 1.499 . S
C3633 C3634 1.373 . S
C3633 C3635 1.389 . S
C3634 H3607 0.950 . S
C3634 C3620 1.377 . S
C3634 C3633 1.373 . S
C3635 C3619 1.377 . S
C3635 C3633 1.389 . S
C3635 C3636 1.524 . S
C3636 C3635 1.524 . S
C3636 C3637 1.397 . S
C3636 C3641 1.363 . S
C3637 H3608 0.950 . S
C3637 C3636 1.397 . S
C3637 C3638 1.334 . S
C3638 H3609 0.950 . S
C3638 C3637 1.334 . S
C3638 C3639 1.287 . S
C3639 C3638 1.287 . S
C3639 C3640 1.524 . S
C3639 H3642 0.999 . S
C3640 H3610 0.950 . S
C3640 C3639 1.524 . S
C3640 C3641 1.415 . S
C3641 H3611 0.950 . S
C3641 C3636 1.363 . S
C3641 C3640 1.415 . S
H3642 C3639 0.999 . S
H3643 C3624 0.913 . S
H3644 C3662 0.951 . S
H3645 C3664 0.951 . S
H3646 C3666 0.950 . S
H3647 C3667 0.950 . S
H3648 C3669 0.950 . S
H3649 C3672 0.950 . S
H3650 C3673 0.950 . S
H3651 C3675 0.950 . S
H3652 C3676 0.950 . S
H3653 C3677 0.951 . S
H3654 C3679 0.951 . S
H3655 C3681 0.950 . S
H3656 C3682 0.950 . S
H3657 C3684 0.950 . S
H3658 C3687 0.950 . S
H3659 C3688 0.950 . S
H3660 C3690 0.950 . S
H3661 C3691 0.950 . S
C3662 H3644 0.951 . S
C3662 C3663 1.366 . S
C3662 C3664 1.388 . S
C3663 C3662 1.366 . S
C3663 C3667 1.385 . S
C3664 H3645 0.951 . S
C3664 C3662 1.388 . S
C3664 C3665 1.366 . S
C3665 C3664 1.366 . S
C3665 C3666 1.414 . S
C3665 C3668 1.499 . S
C3666 H3646 0.950 . S
C3666 C3665 1.414 . S
C3666 C3667 1.374 . S
C3667 H3647 0.950 . S
C3667 C3663 1.385 . S
C3667 C3666 1.374 . S
C3668 C3665 1.499 . S
C3668 C3669 1.373 . S
C3668 C3670 1.389 . S
C3669 H3648 0.950 . S
C3669 C3668 1.373 . S
C3669 C3685 1.377 . S
C3670 C3668 1.389 . S
C3670 C3671 1.524 . S
C3670 C3684 1.377 . S
C3671 C3670 1.524 . S
C3671 C3672 1.397 . S
C3671 C3676 1.363 . S
C3672 H3649 0.950 . S
C3672 C3671 1.397 . S
C3672 C3673 1.334 . S
C3673 H3650 0.950 . S
C3673 C3672 1.334 . S
C3673 C3674 1.287 . S
C3674 C3673 1.287 . S
C3674 C3675 1.524 . S
C3674 H3693 0.913 . S
C3675 H3651 0.950 . S
C3675 C3674 1.524 . S
C3675 C3676 1.415 . S
C3676 H3652 0.950 . S
C3676 C3671 1.363 . S
C3676 C3675 1.415 . S
C3677 H3653 0.951 . S
C3677 C3678 1.366 . S
C3677 C3679 1.388 . S
C3678 C3677 1.366 . S
C3678 C3682 1.385 . S
C3679 H3654 0.951 . S
C3679 C3677 1.388 . S
C3679 C3680 1.366 . S
C3680 C3679 1.366 . S
C3680 C3681 1.414 . S
C3680 C3683 1.499 . S
C3681 H3655 0.950 . S
C3681 C3680 1.414 . S
C3681 C3682 1.374 . S
C3682 H3656 0.950 . S
C3682 C3678 1.385 . S
C3682 C3681 1.374 . S
C3683 C3680 1.499 . S
C3683 C3684 1.373 . S
C3683 C3685 1.389 . S
C3684 H3657 0.950 . S
C3684 C3670 1.377 . S
C3684 C3683 1.373 . S
C3685 C3669 1.377 . S
C3685 C3683 1.389 . S
C3685 C3686 1.524 . S
C3686 C3685 1.524 . S
C3686 C3687 1.397 . S
C3686 C3691 1.363 . S
C3687 H3658 0.950 . S
C3687 C3686 1.397 . S
C3687 C3688 1.334 . S
C3688 H3659 0.950 . S
C3688 C3687 1.334 . S
C3688 C3689 1.287 . S
C3689 C3688 1.287 . S
C3689 C3690 1.524 . S
C3689 H3692 0.999 . S
C3690 H3660 0.950 . S
C3690 C3689 1.524 . S
C3690 C3691 1.415 . S
C3691 H3661 0.950 . S
C3691 C3686 1.363 . S
C3691 C3690 1.415 . S
H3692 C3689 0.999 . S
H3693 C3674 0.913 . S
H3694 C3712 0.951 . S
H3695 C3714 0.951 . S
H3696 C3716 0.950 . S
H3697 C3717 0.950 . S
H3698 C3719 0.950 . S
H3699 C3722 0.950 . S
H3700 C3723 0.950 . S
H3701 C3725 0.950 . S
H3702 C3726 0.950 . S
H3703 C3727 0.951 . S
H3704 C3729 0.951 . S
H3705 C3731 0.950 . S
H3706 C3732 0.950 . S
H3707 C3734 0.950 . S
H3708 C3737 0.950 . S
H3709 C3738 0.950 . S
H3710 C3740 0.950 . S
H3711 C3741 0.950 . S
C3712 H3694 0.951 . S
C3712 C3713 1.366 . S
C3712 C3714 1.388 . S
C3713 C3712 1.366 . S
C3713 C3717 1.385 . S
C3714 H3695 0.951 . S
C3714 C3712 1.388 . S
C3714 C3715 1.366 . S
C3715 C3714 1.366 . S
C3715 C3716 1.414 . S
C3715 C3718 1.499 . S
C3716 H3696 0.950 . S
C3716 C3715 1.414 . S
C3716 C3717 1.374 . S
C3717 H3697 0.950 . S
C3717 C3713 1.385 . S
C3717 C3716 1.374 . S
C3718 C3715 1.499 . S
C3718 C3719 1.373 . S
C3718 C3720 1.389 . S
C3719 H3698 0.950 . S
C3719 C3718 1.373 . S
C3719 C3735 1.377 . S
C3720 C3718 1.389 . S
C3720 C3721 1.524 . S
C3720 C3734 1.377 . S
C3721 C3720 1.524 . S
C3721 C3722 1.397 . S
C3721 C3726 1.363 . S
C3722 H3699 0.950 . S
C3722 C3721 1.397 . S
C3722 C3723 1.334 . S
C3723 H3700 0.950 . S
C3723 C3722 1.334 . S
C3723 C3724 1.287 . S
C3724 C3723 1.287 . S
C3724 C3725 1.524 . S
C3724 H3743 0.913 . S
C3725 H3701 0.950 . S
C3725 C3724 1.524 . S
C3725 C3726 1.415 . S
C3726 H3702 0.950 . S
C3726 C3721 1.363 . S
C3726 C3725 1.415 . S
C3727 H3703 0.951 . S
C3727 C3728 1.366 . S
C3727 C3729 1.388 . S
C3728 C3727 1.366 . S
C3728 C3732 1.385 . S
C3729 H3704 0.951 . S
C3729 C3727 1.388 . S
C3729 C3730 1.366 . S
C3730 C3729 1.366 . S
C3730 C3731 1.414 . S
C3730 C3733 1.499 . S
C3731 H3705 0.950 . S
C3731 C3730 1.414 . S
C3731 C3732 1.374 . S
C3732 H3706 0.950 . S
C3732 C3728 1.385 . S
C3732 C3731 1.374 . S
C3733 C3730 1.499 . S
C3733 C3734 1.373 . S
C3733 C3735 1.389 . S
C3734 H3707 0.950 . S
C3734 C3720 1.377 . S
C3734 C3733 1.373 . S
C3735 C3719 1.377 . S
C3735 C3733 1.389 . S
C3735 C3736 1.524 . S
C3736 C3735 1.524 . S
C3736 C3737 1.397 . S
C3736 C3741 1.363 . S
C3737 H3708 0.950 . S
C3737 C3736 1.397 . S
C3737 C3738 1.334 . S
C3738 H3709 0.950 . S
C3738 C3737 1.334 . S
C3738 C3739 1.287 . S
C3739 C3738 1.287 . S
C3739 C3740 1.524 . S
C3739 H3742 0.999 . S
C3740 H3710 0.950 . S
C3740 C3739 1.524 . S
C3740 C3741 1.415 . S
C3741 H3711 0.950 . S
C3741 C3736 1.363 . S
C3741 C3740 1.415 . S
H3742 C3739 0.999 . S
H3743 C3724 0.913 . S
C1363 C319 1.153 . S
C1378 C63 1.139 . S
C1413 C56 0.749 . S
C1428 C154 0.751 . S
C1463 C242 1.024 . S
C1478 C147 1.051 . S
C1513 C310 1.549 . S
C1528 C226 1.585 . S
C1563 C394 0.753 . S
C1578 C476 0.758 . S
C1613 C483 1.022 . S
C1628 C567 1.052 . S
C1663 C574 1.505 . S
C1678 C646 1.555 . S
C1713 C403 1.174 . S
C1728 C662 1.148 . S
C1763 C826 1.543 . S
C1778 C70 1.544 . S
C1813 C896 1.189 . S
C1828 C140 1.228 . S
C1863 C235 3.241 . S
C1878 C1159 3.241 . S
C1913 C746 0.997 . S
C1928 C326 1.002 . S
C1963 C998 1.002 . S
C1978 C410 0.996 . S
C2013 C1246 1.543 . S
C2028 C490 1.544 . S
C2063 C560 1.190 . S
C2078 C1064 1.227 . S
C2113 C1327 3.242 . S
C2128 C655 3.241 . S
C2163 C739 1.174 . S
C2178 C1166 1.148 . S
C2213 C812 0.758 . S
C2228 C730 0.757 . S
C2263 C903 1.051 . S
C2278 C819 1.023 . S
C2313 C1239 1.139 . S
C2328 C991 1.153 . S
C2363 C1071 1.051 . S
C2378 C1334 1.026 . S
C2413 C980 1.153 . S
C2428 C74 1.138 . S
C2463 C1066 0.750 . S
C2478 C67 0.750 . S
C2513 C1082 1.051 . S
C2528 C231 1.024 . S
C2563 C238 1.585 . S
C2578 C994 1.549 . S
C2613 C823 0.758 . S
C2628 C406 0.757 . S
C2663 C830 1.021 . S
C2678 C578 1.051 . S
C2713 C1162 1.553 . S
C2728 C562 1.505 . S
C2763 C392 1.175 . S
C2778 C1155 1.149 . S
C2813 C478 1.544 . S
C2828 C58 1.544 . S
C2863 C907 1.190 . S
C2878 C1075 1.228 . S
C2913 C224 3.242 . S
C2928 C644 3.241 . S
C2963 C735 0.998 . S
C2978 C987 1.002 . S
C3013 C315 1.002 . S
C3028 C399 0.997 . S
C3063 C814 1.544 . S
C3078 C1234 1.544 . S
C3113 C571 1.189 . S
C3128 C151 1.228 . S
C3163 C1316 3.241 . S
C3178 C1148 3.241 . S
C3213 C728 1.173 . S
C3228 C651 1.148 . S
C3263 C742 0.754 . S
C3278 C487 0.757 . S
C3313 C914 1.050 . S
C3328 C494 1.022 . S
C3363 C308 1.153 . S
C3378 C1250 1.139 . S
C3413 C158 1.051 . S
C3428 C1323 1.024 . S
C3463 C1078 0.748 . S
C3478 C1232 0.749 . S
C3513 C982 1.548 . S
C3528 C1318 1.585 . S
C3563 C910 1.504 . S
C3578 C1150 1.554 . S
C3613 C1243 0.750 . S
C3628 C142 0.751 . S
C3663 C322 1.549 . S
C3678 C1330 1.585 . S
C3713 C658 1.554 . S
C3728 C898 1.504 . S
