# Generated by pormake.
# Topology ume, (4)-cn, num edge types: 1
# Building blocks:
#     Node 0, Type 0, BuildingBlock: ICAMEG_clean_sbu_1, # of connection points: 4
#     Node 1, Type 0, BuildingBlock: ICAMEG_clean_sbu_1, # of connection points: 4
#     Node 2, Type 0, BuildingBlock: ICAMEG_clean_sbu_1, # of connection points: 4
#     Node 3, Type 0, BuildingBlock: ICAMEG_clean_sbu_1, # of connection points: 4
#     Node 4, Type 0, BuildingBlock: ICAMEG_clean_sbu_1, # of connection points: 4
#     Node 5, Type 0, BuildingBlock: ICAMEG_clean_sbu_1, # of connection points: 4
#     Node 6, Type 0, BuildingBlock: ICAMEG_clean_sbu_1, # of connection points: 4
#     Node 7, Type 0, BuildingBlock: ICAMEG_clean_sbu_1, # of connection points: 4
#     Node 8, Type 0, BuildingBlock: ICAMEG_clean_sbu_1, # of connection points: 4
#     Node 9, Type 0, BuildingBlock: ICAMEG_clean_sbu_1, # of connection points: 4
#     Node 10, Type 0, BuildingBlock: ICAMEG_clean_sbu_1, # of connection points: 4
#     Node 11, Type 0, BuildingBlock: ICAMEG_clean_sbu_1, # of connection points: 4
#     Node 12, Type 0, BuildingBlock: ICAMEG_clean_sbu_1, # of connection points: 4
#     Node 13, Type 0, BuildingBlock: ICAMEG_clean_sbu_1, # of connection points: 4
#     Node 14, Type 0, BuildingBlock: ICAMEG_clean_sbu_1, # of connection points: 4
#     Node 15, Type 0, BuildingBlock: ICAMEG_clean_sbu_1, # of connection points: 4
#     Edge 16, Type (0, 0), None
#     Edge 17, Type (0, 0), None
#     Edge 18, Type (0, 0), None
#     Edge 19, Type (0, 0), None
#     Edge 20, Type (0, 0), None
#     Edge 21, Type (0, 0), None
#     Edge 22, Type (0, 0), None
#     Edge 23, Type (0, 0), None
#     Edge 24, Type (0, 0), None
#     Edge 25, Type (0, 0), None
#     Edge 26, Type (0, 0), None
#     Edge 27, Type (0, 0), None
#     Edge 28, Type (0, 0), None
#     Edge 29, Type (0, 0), None
#     Edge 30, Type (0, 0), None
#     Edge 31, Type (0, 0), None
#     Edge 32, Type (0, 0), None
#     Edge 33, Type (0, 0), None
#     Edge 34, Type (0, 0), None
#     Edge 35, Type (0, 0), None
#     Edge 36, Type (0, 0), None
#     Edge 37, Type (0, 0), None
#     Edge 38, Type (0, 0), None
#     Edge 39, Type (0, 0), None
#     Edge 40, Type (0, 0), None
#     Edge 41, Type (0, 0), None
#     Edge 42, Type (0, 0), None
#     Edge 43, Type (0, 0), None
#     Edge 44, Type (0, 0), None
#     Edge 45, Type (0, 0), None
#     Edge 46, Type (0, 0), None
#     Edge 47, Type (0, 0), None
# Relax obj value: 0.086
# Max RMSD: 0.092
# Mean RMSD: 0.091
data_MOF--net-ume--node1-ICAMEG_clean_sbu_1--edge1-none
_symmetry_space_group_name_H-M    P1
_symmetry_Int_Tables_number       1
_symmetry_cell_setting            triclinic
loop_
_symmetry_equiv_pos_as_xyz
'x, y, z'
_cell_length_a     14.238493
_cell_length_b     14.238489
_cell_length_c     55.966501
_cell_angle_alpha  89.999999
_cell_angle_beta   90.000003
_cell_angle_gamma 89.992638
loop_
_atom_site_label
_atom_site_type_symbol
_atom_site_fract_x
_atom_site_fract_y
_atom_site_fract_z
_atom_type_partial_charge
Co0 Co 0.33461 0.19394 0.33094 0.0
Co1 Co 0.23499 -0.00045 0.30662 0.0
O2 O 0.23482 0.10514 0.32736 0.0
C3 C 0.27694 0.11484 0.37761 0.0
O4 O 0.30306 0.03364 0.36882 0.0
C5 C 0.04726 0.01006 0.28407 0.0
O6 O 0.09014 0.01878 0.26355 0.0
O7 O 0.25625 0.08635 0.27895 0.0
O8 O 0.35921 0.19059 0.29429 0.0
H9 H 0.25119 0.86256 0.22619 0.0
H10 H 0.15394 0.25197 0.35564 0.0
O11 O 0.29962 0.19015 0.36649 0.0
H12 H 0.19592 0.47685 0.2901 0.0
H13 H 0.55229 0.38725 0.38288 0.0
H14 H 0.45702 0.31913 0.30044 0.0
H15 H 0.30594 0.34856 0.29488 0.0
H16 H 0.4363 0.26603 0.37489 0.0
O17 O 0.09384 0.01461 0.30349 0.0
H18 H 0.31638 0.95264 0.25923 0.0
H19 H 0.12026 0.82338 0.30633 0.0
H20 H 0.57712 0.43855 0.30795 0.0
H21 H 0.04999 0.38842 0.353 0.0
H22 H 0.6284 0.4712 0.34931 0.0
H23 H 0.07501 0.50629 0.32068 0.0
O24 O 0.43376 0.0928 0.33447 0.0
H25 H 0.04286 0.8788 0.37517 0.0
H26 H 0.337 0.83861 0.3303 0.0
H27 H 0.28617 0.71494 0.3581 0.0
H28 H 0.13736 0.73401 0.38033 0.0
H29 H 0.09235 0.99656 0.34567 0.0
H30 H 0.05992 0.72715 0.27381 0.0
H31 H 0.12447 0.74885 0.23263 0.0
O32 O 0.38046 0.9808 0.3095 0.0
C33 C 0.31693 0.15148 0.27627 0.0
C34 C 0.22371 0.8524 0.24373 0.0
C35 C 0.1162 0.77644 0.27045 0.0
N36 N 0.22332 0.89419 0.28503 0.0
C37 C 0.26007 0.90373 0.26269 0.0
C38 C 0.15388 0.82913 0.28914 0.0
C39 C 0.15112 0.78918 0.2475 0.0
C40 C 0.16771 0.30334 0.34195 0.0
N41 N 0.24226 0.29422 0.3266 0.0
C42 C 0.10673 0.37999 0.3403 0.0
C43 C 0.11943 0.44515 0.32206 0.0
C44 C 0.18943 0.43065 0.30523 0.0
C45 C 0.25133 0.35584 0.30798 0.0
C46 C 0.5322 0.37172 0.36466 0.0
C47 C 0.47599 0.33359 0.31852 0.0
C48 C 0.46375 0.30401 0.35984 0.0
N49 N 0.43427 0.28654 0.33691 0.0
C50 C 0.5462 0.40027 0.32266 0.0
C51 C 0.57478 0.41901 0.34588 0.0
C52 C 0.44794 0.01912 0.32176 0.0
C53 C 0.10632 0.86811 0.36486 0.0
C54 C 0.27063 0.8454 0.33912 0.0
C55 C 0.24318 0.77636 0.35533 0.0
C56 C 0.15957 0.78718 0.36789 0.0
N57 N 0.21307 0.9195 0.33427 0.0
C58 C 0.13463 0.93425 0.34797 0.0
Co59 Co 0.80068 0.83456 0.58092 0.0
Co60 Co 0.99509 0.73494 0.55661 0.0
O61 O 0.8895 0.73477 0.57735 0.0
C62 C 0.87972 0.77686 0.6276 0.0
O63 O 0.96093 0.80298 0.61882 0.0
C64 C 0.98461 0.5472 0.53407 0.0
O65 O 0.9759 0.59008 0.51355 0.0
O66 O 0.9083 0.75619 0.52894 0.0
O67 O 0.80405 0.85918 0.54428 0.0
H68 H 0.13213 0.75106 0.47619 0.0
H69 H 0.74266 0.65388 0.60562 0.0
O70 O 0.80443 0.79956 0.61648 0.0
H71 H 0.51795 0.69581 0.54003 0.0
H72 H 0.60736 0.05231 0.63286 0.0
H73 H 0.67546 0.95696 0.55043 0.0
H74 H 0.6461 0.80592 0.54486 0.0
H75 H 0.7286 0.9363 0.62488 0.0
O76 O 0.98006 0.5938 0.55349 0.0
H77 H 0.04202 0.8163 0.50922 0.0
H78 H 0.17128 0.62021 0.55633 0.0
H79 H 0.55601 0.07707 0.55793 0.0
H80 H 0.60635 0.54982 0.60293 0.0
H81 H 0.52336 0.12838 0.5993 0.0
H82 H 0.48857 0.57478 0.57058 0.0
O83 O 0.9018 0.9337 0.58447 0.0
H84 H 0.11585 0.54286 0.62518 0.0
H85 H 0.156 0.83695 0.58029 0.0
H86 H 0.27965 0.78617 0.6081 0.0
H87 H 0.2606 0.63738 0.63035 0.0
H88 H -0.00189 0.59231 0.59567 0.0
H89 H 0.26754 0.55982 0.52382 0.0
H90 H 0.24583 0.62432 0.48264 0.0
O91 O 0.0138 0.88041 0.5595 0.0
C92 C 0.84317 0.81688 0.52626 0.0
C93 C 0.14227 0.7236 0.49373 0.0
C94 C 0.21823 0.61611 0.52046 0.0
N95 N 0.10046 0.72325 0.53503 0.0
C96 C 0.09094 0.75999 0.51269 0.0
C97 C 0.16553 0.65381 0.53914 0.0
C98 C 0.2055 0.651 0.4975 0.0
C99 C 0.69133 0.66763 0.59191 0.0
N100 N 0.70042 0.74221 0.57657 0.0
C101 C 0.61475 0.60659 0.59024 0.0
C102 C 0.54964 0.61926 0.57198 0.0
C103 C 0.56411 0.68932 0.55517 0.0
C104 C 0.63884 0.75128 0.55794 0.0
C105 C 0.62287 0.03219 0.61465 0.0
C106 C 0.661 0.97594 0.5685 0.0
C107 C 0.6906 0.96373 0.60983 0.0
N108 N 0.70806 0.93423 0.58689 0.0
C109 C 0.5943 0.04616 0.57265 0.0
C110 C 0.57556 0.07476 0.59586 0.0
C111 C 0.97548 0.94789 0.57176 0.0
C112 C 0.12653 0.60631 0.61487 0.0
C113 C 0.14921 0.7706 0.58912 0.0
C114 C 0.21824 0.74317 0.60533 0.0
C115 C 0.20743 0.65958 0.6179 0.0
N116 N 0.07514 0.71304 0.58427 0.0
C117 C 0.0604 0.63461 0.59797 0.0
Co118 Co 0.15995 0.30062 0.83094 0.0
Co119 Co 0.25956 0.495 0.80661 0.0
O120 O 0.25974 0.38942 0.82736 0.0
C121 C 0.21763 0.37971 0.87761 0.0
O122 O 0.19151 0.46092 0.86882 0.0
C123 C 0.44729 0.48451 0.78407 0.0
O124 O 0.40441 0.47578 0.76355 0.0
O125 O 0.23831 0.4082 0.77895 0.0
O126 O 0.13534 0.30397 0.79429 0.0
H127 H 0.24334 0.63197 0.72619 0.0
H128 H 0.34062 0.24257 0.85564 0.0
O129 O 0.19494 0.3044 0.86649 0.0
H130 H 0.29866 0.01774 0.79009 0.0
H131 H 0.94226 0.10732 0.88288 0.0
H132 H 0.03755 0.17542 0.80044 0.0
H133 H 0.18863 0.14601 0.79488 0.0
H134 H 0.05826 0.22853 0.87489 0.0
O135 O 0.40071 0.47996 0.80349 0.0
H136 H 0.17815 0.5419 0.75923 0.0
H137 H 0.37428 0.67118 0.80632 0.0
H138 H 0.91745 0.056 0.80794 0.0
H139 H 0.44458 0.10614 0.85299 0.0
H140 H 0.86615 0.02336 0.84931 0.0
H141 H 0.41958 0.9883 0.82067 0.0
O142 O 0.0608 0.40175 0.83448 0.0
H143 H 0.45168 0.61578 0.87517 0.0
H144 H 0.15754 0.65594 0.8303 0.0
H145 H 0.20836 0.77962 0.85809 0.0
H146 H 0.35717 0.76057 0.88033 0.0
H147 H 0.4022 0.49802 0.84567 0.0
H148 H 0.43462 0.7674 0.7738 0.0
H149 H 0.37006 0.74568 0.73262 0.0
O150 O 0.11409 0.51374 0.8095 0.0
C151 C 0.17763 0.34308 0.77627 0.0
C152 C 0.27082 0.64214 0.74373 0.0
C153 C 0.37833 0.71811 0.77045 0.0
N154 N 0.27123 0.60036 0.78503 0.0
C155 C 0.23446 0.59082 0.76269 0.0
C156 C 0.34067 0.66542 0.78914 0.0
C157 C 0.34341 0.70536 0.74749 0.0
C158 C 0.32686 0.19122 0.84194 0.0
N159 N 0.25231 0.20034 0.82659 0.0
C160 C 0.38784 0.11457 0.84029 0.0
C161 C 0.37516 0.04943 0.82205 0.0
C162 C 0.30515 0.06393 0.80522 0.0
C163 C 0.24324 0.13873 0.80797 0.0
C164 C 0.96236 0.12284 0.86466 0.0
C165 C 0.01857 0.16096 0.81852 0.0
C166 C 0.03081 0.19055 0.85984 0.0
N167 N 0.0603 0.20802 0.8369 0.0
C168 C 0.94836 0.09428 0.82266 0.0
C169 C 0.91978 0.07555 0.84588 0.0
C170 C 0.04661 0.47543 0.82176 0.0
C171 C 0.38822 0.62647 0.86486 0.0
C172 C 0.22391 0.64916 0.83912 0.0
C173 C 0.25135 0.7182 0.85532 0.0
C174 C 0.33496 0.70739 0.86789 0.0
N175 N 0.28147 0.57507 0.83427 0.0
C176 C 0.35991 0.56032 0.84796 0.0
Co177 Co 0.69389 0.65999 0.08092 0.0
Co178 Co 0.49947 0.75962 0.05661 0.0
O179 O 0.60506 0.75978 0.07735 0.0
C180 C 0.61484 0.71769 0.1276 0.0
O181 O 0.53363 0.69158 0.11882 0.0
C182 C 0.50996 0.94735 0.03407 0.0
O183 O 0.51866 0.90447 1.01355 0.0
O184 O 0.58626 0.73836 0.02894 0.0
O185 O 0.69051 0.63537 0.04428 0.0
H186 H 0.36243 0.7435 0.97619 0.0
H187 H 0.75189 0.84068 0.10562 0.0
O188 O 0.69014 0.695 0.11648 0.0
H189 H 0.97662 0.79875 0.04003 0.0
H190 H 0.8872 0.44225 0.13286 0.0
H191 H 0.8191 0.53759 0.05043 0.0
H192 H 0.84847 0.68863 0.04486 0.0
H193 H 0.76597 0.55826 0.12488 0.0
O194 O 0.5145 0.90076 0.05349 0.0
H195 H 0.45254 0.67825 1.00922 0.0
H196 H 0.32328 0.87435 0.05633 0.0
H197 H 0.93855 0.41749 0.05793 0.0
H198 H 0.88821 0.94474 0.10293 0.0
H199 H 0.9712 0.36617 0.0993 0.0
H200 H 0.00599 0.91978 0.07058 0.0
O201 O 0.59277 0.56085 0.08447 0.0
H202 H 0.37872 0.9517 0.12518 0.0
H203 H 0.33856 0.65761 0.08029 0.0
H204 H 0.21492 0.70839 0.1081 0.0
H205 H 0.23396 0.85718 0.13035 0.0
H206 H 0.49646 0.90224 0.09567 0.0
H207 H 0.22702 0.93474 0.02382 0.0
H208 H 0.24872 0.87024 0.98264 0.0
O209 O 0.48076 0.61415 0.0595 0.0
C210 C 0.65139 0.67767 0.02626 0.0
C211 C 0.35228 0.77096 0.99373 0.0
C212 C 0.27633 0.87845 0.02046 0.0
N213 N 0.3941 0.77131 0.03503 0.0
C214 C 0.40362 0.73457 1.01269 0.0
C215 C 0.32903 0.84075 0.03915 0.0
C216 C 0.28906 0.84356 0.9975 0.0
C217 C 0.80323 0.82692 0.09191 0.0
N218 N 0.79414 0.75234 0.07657 0.0
C219 C 0.87981 0.88796 0.09024 0.0
C220 C 0.94492 0.87529 0.07198 0.0
C221 C 0.93045 0.80523 0.05517 0.0
C222 C 0.85572 0.74328 0.05794 0.0
C223 C 0.87169 0.46237 0.11465 0.0
C224 C 0.83356 0.51861 0.0685 0.0
C225 C 0.80397 0.53083 0.10983 0.0
N226 N 0.78651 0.56033 0.08689 0.0
C227 C 0.90027 0.4484 0.07265 0.0
C228 C 0.919 0.4198 0.09586 0.0
C229 C 0.51908 0.54667 0.07176 0.0
C230 C 0.36803 0.88825 0.11487 0.0
C231 C 0.34535 0.72396 0.08912 0.0
C232 C 0.27632 0.75139 0.10533 0.0
C233 C 0.28713 0.83498 0.11791 0.0
N234 N 0.41942 0.78152 0.08427 0.0
C235 C 0.43417 0.85995 0.09797 0.0
Co236 Co 0.33456 0.30067 0.94628 0.0
Co237 Co 0.23494 0.49509 0.97059 0.0
O238 O 0.23478 0.38949 0.94985 0.0
C239 C 0.27686 0.37972 0.8996 0.0
O240 O 0.30298 0.46093 0.90838 0.0
C241 C 0.04721 0.4846 0.99314 0.0
O242 O 0.09008 0.4759 0.01366 0.0
O243 O 0.25619 0.4083 0.99827 0.0
O244 O 0.35918 0.30405 0.98292 0.0
H245 H 0.25105 0.63213 0.05102 0.0
H246 H 0.15388 0.24267 0.92159 0.0
O247 O 0.29956 0.30442 0.91072 0.0
H248 H 0.19582 0.01794 0.98717 0.0
H249 H 0.5523 0.10735 0.89434 0.0
H250 H 0.45697 0.17546 0.97678 0.0
H251 H 0.30593 0.14609 0.98235 0.0
H252 H 0.4363 0.22859 0.90233 0.0
O253 O 0.0938 0.48006 0.97372 0.0
H254 H 0.3163 0.54202 0.01798 0.0
H255 H 0.12021 0.67128 0.97087 0.0
H256 H 0.57707 0.05601 0.96928 0.0
H257 H 0.04982 0.10635 0.92428 0.0
H258 H 0.62838 0.02335 0.92791 0.0
H259 H 0.07479 0.98857 0.95662 0.0
O260 O 0.4337 0.40179 0.94273 0.0
H261 H 0.04285 0.61584 0.90202 0.0
H262 H 0.33695 0.656 0.94691 0.0
H263 H 0.28617 0.77964 0.9191 0.0
H264 H 0.13737 0.76059 0.89685 0.0
H265 H 0.09231 0.4981 0.93154 0.0
H266 H 0.05982 0.76754 1.00338 0.0
H267 H 0.12431 0.74584 0.04456 0.0
O268 O 0.38041 0.5138 0.96771 0.0
C269 C 0.31689 0.34317 1.00095 0.0
C270 C 0.22359 0.64228 0.03347 0.0
C271 C 0.11611 0.71823 1.00674 0.0
N272 N 0.22325 0.60046 0.99218 0.0
C273 C 0.25999 0.59094 0.01451 0.0
C274 C 0.15381 0.66553 0.98806 0.0
C275 C 0.15099 0.7055 0.0297 0.0
C276 C 0.16763 0.19133 0.93529 0.0
N277 N 0.24222 0.20042 0.95063 0.0
C278 C 0.10659 0.11475 0.93697 0.0
C279 C 0.11927 0.04963 0.95522 0.0
C280 C 0.18933 0.06411 0.97203 0.0
C281 C 0.25128 0.13883 0.96926 0.0
C282 C 0.53219 0.12287 0.91256 0.0
C283 C 0.47595 0.16099 0.9587 0.0
C284 C 0.46373 0.19059 0.91738 0.0
N285 N 0.43423 0.20805 0.94031 0.0
C286 C 0.54616 0.09429 0.95456 0.0
C287 C 0.57476 0.07556 0.93134 0.0
C288 C 0.44789 0.47547 0.95545 0.0
C289 C 0.10631 0.62652 0.91233 0.0
C290 C 0.27059 0.64921 0.93808 0.0
C291 C 0.24317 0.71823 0.92187 0.0
C292 C 0.15957 0.70742 0.9093 0.0
N293 N 0.21303 0.57513 0.94294 0.0
C294 C 0.1346 0.56039 0.92924 0.0
Co295 Co 0.69394 0.8346 0.19627 0.0
Co296 Co 0.49955 0.73499 0.22059 0.0
O297 O 0.60514 0.73482 0.19984 0.0
C298 C 0.61485 0.77693 0.1496 0.0
O299 O 0.53364 0.80305 0.15839 0.0
C300 C 0.51005 0.54726 0.24314 0.0
O301 O 0.51877 0.59015 0.26366 0.0
O302 O 0.58636 0.75625 0.24826 0.0
O303 O 0.69059 0.85921 0.23291 0.0
H304 H 0.36259 0.75121 0.30102 0.0
H305 H 0.75198 0.65394 0.17156 0.0
O306 O 0.69015 0.79962 0.16071 0.0
H307 H 0.97682 0.6959 0.23712 0.0
H308 H 0.88724 0.0523 0.14433 0.0
H309 H 0.81914 0.95701 0.22676 0.0
H310 H 0.84856 0.80593 0.23233 0.0
H311 H 0.76603 0.9363 0.15231 0.0
O312 O 0.5146 0.59385 0.22372 0.0
H313 H 0.45265 0.81641 0.26797 0.0
H314 H 0.32338 0.62027 0.22088 0.0
H315 H 0.93856 0.07711 0.21926 0.0
H316 H 0.88841 0.54998 0.17421 0.0
H317 H 0.9712 0.1284 0.17789 0.0
H318 H 0.00626 0.57498 0.20654 0.0
O319 O 0.59281 0.93376 0.19273 0.0
H320 H 0.37878 0.54287 0.15204 0.0
H321 H 0.33862 0.83701 0.19691 0.0
H322 H 0.21494 0.7862 0.16911 0.0
H323 H 0.23399 0.63739 0.14687 0.0
H324 H 0.49654 0.59235 0.18154 0.0
H325 H 0.22715 0.55994 0.25341 0.0
H326 H 0.24888 0.6245 0.29458 0.0
O327 O 0.48081 0.88047 0.2177 0.0
C328 C 0.65148 0.81693 0.25094 0.0
C329 C 0.35242 0.72373 0.28347 0.0
C330 C 0.27645 0.61622 0.25676 0.0
N331 N 0.3942 0.72333 0.24218 0.0
C332 C 0.40374 0.7601 0.26451 0.0
C333 C 0.32914 0.65389 0.23807 0.0
C334 C 0.2892 0.65114 0.27971 0.0
C335 C 0.80334 0.6677 0.18526 0.0
N336 N 0.79422 0.74225 0.20061 0.0
C337 C 0.87999 0.60672 0.18691 0.0
C338 C 0.94513 0.6194 0.20516 0.0
C339 C 0.93063 0.68941 0.22198 0.0
C340 C 0.85583 0.75132 0.21923 0.0
C341 C 0.87172 0.0322 0.16254 0.0
C342 C 0.83359 0.97598 0.20869 0.0
C343 C 0.80401 0.96375 0.16736 0.0
N344 N 0.78654 0.93426 0.1903 0.0
C345 C 0.90028 0.0462 0.20454 0.0
C346 C 0.91901 0.07478 0.18132 0.0
C347 C 0.51913 0.94795 0.20545 0.0
C348 C 0.36809 0.60634 0.16234 0.0
C349 C 0.3454 0.77064 0.18809 0.0
C350 C 0.27636 0.7432 0.17188 0.0
C351 C 0.28717 0.6596 0.15931 0.0
N352 N 0.41949 0.71308 0.19294 0.0
C353 C 0.43424 0.63464 0.17924 0.0
Co354 Co 0.16 0.19388 0.44628 0.0
Co355 Co 0.25962 -0.00053 0.47059 0.0
O356 O 0.25978 0.10506 0.44985 0.0
C357 C 0.2177 0.11484 0.3996 0.0
O358 O 0.19158 0.03362 0.40838 0.0
C359 C 0.44736 0.00996 0.49314 0.0
O360 O 0.40448 0.01866 0.51366 0.0
O361 O 0.23836 0.08625 0.49827 0.0
O362 O 0.13538 0.19051 0.48292 0.0
H363 H 0.24351 0.86242 0.55102 0.0
H364 H 0.34068 0.25189 0.42159 0.0
O365 O 0.195 0.19013 0.41072 0.0
H366 H 0.29874 0.47662 0.48717 0.0
H367 H 0.94225 0.3872 0.39434 0.0
H368 H 0.03759 0.31909 0.47677 0.0
H369 H 0.18863 0.34847 0.48235 0.0
H370 H 0.05826 0.26596 0.40233 0.0
O371 O 0.40076 0.0145 0.47372 0.0
H372 H 0.17827 0.95254 0.51798 0.0
H373 H 0.37436 0.82328 0.47087 0.0
H374 H 0.91749 0.43855 0.46927 0.0
H375 H 0.44474 0.38821 0.42427 0.0
H376 H 0.86618 0.4712 0.42791 0.0
H377 H 0.41976 0.506 0.45662 0.0
O378 O 0.06086 0.09276 0.44273 0.0
H379 H 0.45171 0.87873 0.40202 0.0
H380 H 0.15761 0.83856 0.44691 0.0
H381 H 0.2084 0.71492 0.4191 0.0
H382 H 0.35719 0.73397 0.39685 0.0
H383 H 0.40225 0.99646 0.43154 0.0
H384 H 0.43475 0.72702 0.50338 0.0
H385 H 0.37025 0.74871 0.54456 0.0
O386 O 0.11415 0.98075 0.46771 0.0
C387 C 0.17767 0.15139 0.50095 0.0
C388 C 0.27097 0.85227 0.53347 0.0
C389 C 0.37846 0.77632 0.50674 0.0
N390 N 0.27131 0.89409 0.49218 0.0
C391 C 0.23458 0.90362 0.51451 0.0
C392 C 0.34076 0.82903 0.48806 0.0
C393 C 0.34357 0.78905 0.5297 0.0
C394 C 0.32692 0.30323 0.43529 0.0
N395 N 0.25234 0.29414 0.45063 0.0
C396 C 0.38796 0.37981 0.43696 0.0
C397 C 0.37529 0.44493 0.45522 0.0
C398 C 0.30523 0.43045 0.47203 0.0
C399 C 0.24328 0.35572 0.46926 0.0
C400 C 0.96237 0.37169 0.41256 0.0
C401 C 0.01861 0.33356 0.4587 0.0
C402 C 0.03083 0.30396 0.41738 0.0
N403 N 0.06033 0.2865 0.44031 0.0
C404 C 0.9484 0.40026 0.45456 0.0
C405 C 0.9198 0.41899 0.43134 0.0
C406 C 0.04667 0.01908 0.45545 0.0
C407 C 0.38825 0.86804 0.41233 0.0
C408 C 0.22397 0.84535 0.43808 0.0
C409 C 0.2514 0.77632 0.42187 0.0
C410 C 0.33499 0.78713 0.4093 0.0
N411 N 0.28153 0.91942 0.44294 0.0
C412 C 0.35996 0.93417 0.42924 0.0
Co413 Co 0.80062 0.65995 0.69627 0.0
Co414 Co 0.99501 0.75957 0.72059 0.0
O415 O 0.88942 0.75974 0.69984 0.0
C416 C 0.87971 0.71763 0.6496 0.0
O417 O 0.96092 0.6915 0.65839 0.0
C418 C 0.9845 0.9473 0.74314 0.0
O419 O 0.97578 0.90441 0.76366 0.0
O420 O 0.90821 0.73831 0.74826 0.0
O421 O 0.80396 0.63535 0.73291 0.0
H422 H 0.132 0.74338 0.80101 0.0
H423 H 0.74258 0.84062 0.67156 0.0
O424 O 0.80441 0.69494 0.66071 0.0
H425 H 0.5177 0.79863 0.73711 0.0
H426 H 0.60731 0.44227 0.64433 0.0
H427 H 0.67543 0.53754 0.72676 0.0
H428 H 0.64599 0.68861 0.73232 0.0
H429 H 0.72852 0.55826 0.65231 0.0
O430 O 0.97995 0.90071 0.72372 0.0
H431 H 0.04192 0.67818 0.76797 0.0
H432 H 0.17118 0.8743 0.72088 0.0
H433 H 0.55601 0.41744 0.71926 0.0
H434 H 0.60614 0.94457 0.67421 0.0
H435 H 0.52335 0.36616 0.67789 0.0
H436 H 0.48827 0.91955 0.70652 0.0
O437 O 0.90175 0.5608 0.69273 0.0
H438 H 0.11575 0.9517 0.65203 0.0
H439 H 0.15595 0.65756 0.6969 0.0
H440 H 0.27962 0.70839 0.66911 0.0
H441 H 0.26054 0.8572 0.64687 0.0
H442 H -0.002 0.90221 0.68153 0.0
H443 H 0.26741 0.93464 0.7534 0.0
H444 H 0.24571 0.8701 0.79457 0.0
O445 O 0.01376 0.6141 0.7177 0.0
C446 C 0.84308 0.67763 0.75094 0.0
C447 C 0.14216 0.77085 0.78347 0.0
C448 C 0.21812 0.87836 0.75675 0.0
N449 N 0.10037 0.77124 0.74218 0.0
C450 C 0.09083 0.73449 0.76451 0.0
C451 C 0.16542 0.84068 0.73806 0.0
C452 C 0.20538 0.84344 0.77971 0.0
C453 C 0.69122 0.82685 0.68526 0.0
N454 N 0.70033 0.7523 0.70061 0.0
C455 C 0.61457 0.88783 0.68691 0.0
C456 C 0.5494 0.87513 0.70515 0.0
C457 C 0.56391 0.80513 0.72198 0.0
C458 C 0.63871 0.74323 0.71923 0.0
C459 C 0.62283 0.46236 0.66254 0.0
C460 C 0.66097 0.51856 0.70869 0.0
C461 C 0.69054 0.53081 0.66736 0.0
N462 N 0.70802 0.56029 0.6903 0.0
C463 C 0.59428 0.44836 0.70454 0.0
C464 C 0.57555 0.41978 0.68132 0.0
C465 C 0.97544 0.54661 0.70545 0.0
C466 C 0.12644 0.88824 0.66234 0.0
C467 C 0.14915 0.72393 0.68808 0.0
C468 C 0.21819 0.75138 0.67187 0.0
C469 C 0.20737 0.83499 0.65931 0.0
N470 N 0.07506 0.78149 0.69293 0.0
C471 C 0.0603 0.85993 0.67924 0.0
Co472 Co 0.83453 0.6939 0.83093 0.0
Co473 Co 0.73493 0.4995 0.80661 0.0
O474 O 0.73475 0.60509 0.82735 0.0
C475 C 0.77685 0.61484 0.8776 0.0
O476 O 0.80298 0.53363 0.86882 0.0
C477 C 0.5472 0.50999 0.78406 0.0
O478 O 0.59007 0.51869 0.76354 0.0
O479 O 0.75618 0.58628 0.77894 0.0
O480 O 0.85915 0.69053 0.79428 0.0
H481 H 0.75107 0.36245 0.72619 0.0
H482 H 0.65385 0.75194 0.85562 0.0
O483 O 0.79953 0.69014 0.86648 0.0
H484 H 0.69581 0.97671 0.79005 0.0
H485 H 0.05223 0.8872 0.88287 0.0
H486 H 0.95695 0.81908 0.80043 0.0
H487 H 0.80589 0.8485 0.79486 0.0
H488 H 0.93623 0.76599 0.87488 0.0
O489 O 0.59379 0.51454 0.80348 0.0
H490 H 0.8163 0.45256 0.75922 0.0
H491 H 0.62023 0.32332 0.80633 0.0
H492 H 0.07704 0.93851 0.80793 0.0
H493 H 0.54982 0.88832 0.85294 0.0
H494 H 0.12833 0.97115 0.8493 0.0
H495 H 0.57481 0.00612 0.82061 0.0
O496 O 0.93369 0.59276 0.83447 0.0
H497 H 0.54284 0.37878 0.87517 0.0
H498 H 0.83696 0.33857 0.8303 0.0
H499 H 0.78617 0.21493 0.8581 0.0
H500 H 0.63737 0.234 0.88035 0.0
H501 H 0.5923 0.49651 0.84567 0.0
H502 H 0.55985 0.22707 0.77382 0.0
H503 H 0.62434 0.24877 0.73264 0.0
O504 O 0.88041 0.48076 0.8095 0.0
C505 C 0.81686 0.65142 0.77626 0.0
C506 C 0.72361 0.35231 0.74373 0.0
C507 C 0.61613 0.27637 0.77046 0.0
N508 N 0.72326 0.39412 0.78503 0.0
C509 C 0.75999 0.40365 0.76269 0.0
C510 C 0.65383 0.32907 0.78914 0.0
C511 C 0.65102 0.2891 0.7475 0.0
C512 C 0.66761 0.80329 0.84192 0.0
N513 N 0.74218 0.79417 0.82658 0.0
C514 C 0.60659 0.8799 0.84025 0.0
C515 C 0.61927 0.94503 0.822 0.0
C516 C 0.68932 0.93053 0.80519 0.0
C517 C 0.75125 0.85577 0.80795 0.0
C518 C 0.03213 0.87168 0.86465 0.0
C519 C 0.97592 0.83355 0.81851 0.0
C520 C 0.96367 0.80397 0.85983 0.0
N521 N 0.93419 0.7865 0.83689 0.0
C522 C 0.04613 0.90023 0.82265 0.0
C523 C 0.07471 0.91896 0.84587 0.0
C524 C 0.94788 0.51909 0.82175 0.0
C525 C 0.6063 0.36808 0.86487 0.0
C526 C 0.7706 0.34537 0.83912 0.0
C527 C 0.74317 0.27635 0.85533 0.0
C528 C 0.65957 0.28717 0.8679 0.0
N529 N 0.71303 0.41946 0.83427 0.0
C530 C 0.6346 0.43421 0.84796 0.0
Co531 Co 0.30063 0.33464 0.08094 0.0
Co532 Co 0.49503 0.235 0.05662 0.0
O533 O 0.38945 0.23484 0.07736 0.0
C534 C 0.37971 0.27695 0.12761 0.0
O535 O 0.46093 0.30306 0.11882 0.0
C536 C 0.48452 0.04727 0.03407 0.0
O537 O 0.47581 0.09016 1.01355 0.0
O538 O 0.40823 0.25626 0.02895 0.0
O539 O 0.30398 0.35925 0.04429 0.0
H540 H 0.63201 0.25119 0.97619 0.0
H541 H 0.24263 0.15398 0.10564 0.0
O542 O 0.30441 0.29966 0.11649 0.0
H543 H 0.01778 0.19594 0.04009 0.0
H544 H 0.1073 0.55237 0.13287 0.0
H545 H 0.17541 0.45705 0.05044 0.0
H546 H 0.14602 0.30598 0.04488 0.0
H547 H 0.22854 0.43637 0.12489 0.0
O548 O 0.47999 0.09386 0.05349 0.0
H549 H 0.54193 0.31639 1.00923 0.0
H550 H 0.67121 0.12024 0.05632 0.0
H551 H 0.05597 0.57715 0.05794 0.0
H552 H 0.10623 0.05001 0.10299 0.0
H553 H 0.0233 0.62845 0.09931 0.0
H554 H 0.98838 0.07501 0.07067 0.0
O555 O 0.40175 0.43378 0.08448 0.0
H556 H 0.61582 0.04287 0.12517 0.0
H557 H 0.65596 0.33699 0.0803 0.0
H558 H 0.77963 0.28617 0.1081 0.0
H559 H 0.76059 0.13737 0.13034 0.0
H560 H 0.49806 0.09235 0.09567 0.0
H561 H 0.76746 0.05989 0.0238 0.0
H562 H 0.74574 0.12446 0.98263 0.0
O563 O 0.51376 0.38047 0.0595 0.0
C564 C 0.34309 0.31695 0.02627 0.0
C565 C 0.64218 0.22371 0.99373 0.0
C566 C 0.71815 0.11619 0.02045 0.0
N567 N 0.60039 0.22331 0.03503 0.0
C568 C 0.59085 0.26007 1.01269 0.0
C569 C 0.66545 0.15386 0.03914 0.0
C570 C 0.70541 0.15111 0.9975 0.0
C571 C 0.19127 0.16774 0.09194 0.0
N572 N 0.20036 0.2423 0.0766 0.0
C573 C 0.11464 0.10675 0.09029 0.0
C574 C 0.04949 0.11944 0.07205 0.0
C575 C 0.06398 0.18946 0.05522 0.0
C576 C 0.13875 0.25137 0.05797 0.0
C577 C 0.12282 0.53226 0.11466 0.0
C578 C 0.16095 0.47603 0.06851 0.0
C579 C 0.19054 0.4638 0.10984 0.0
N580 N 0.20802 0.43431 0.0869 0.0
C581 C 0.09425 0.54624 0.07266 0.0
C582 C 0.07551 0.57483 0.09588 0.0
C583 C 0.47544 0.44795 0.07176 0.0
C584 C 0.6265 0.10633 0.11486 0.0
C585 C 0.64917 0.27063 0.08912 0.0
C586 C 0.71822 0.24318 0.10533 0.0
C587 C 0.70742 0.15958 0.1179 0.0
N588 N 0.57509 0.21308 0.08427 0.0
C589 C 0.56036 0.13464 0.09797 0.0
Co590 Co 0.66003 0.80066 0.33093 0.0
Co591 Co 0.75962 0.99506 0.30661 0.0
O592 O 0.7598 0.88946 0.32735 0.0
C593 C 0.71771 0.87971 0.3776 0.0
O594 O 0.69158 0.96092 0.36882 0.0
C595 C 0.94736 0.98458 0.28406 0.0
O596 O 0.90449 0.97587 0.26354 0.0
O597 O 0.73838 0.90827 0.27894 0.0
O598 O 0.6354 0.80403 0.29428 0.0
H599 H 0.74346 0.13208 0.22619 0.0
H600 H 0.84071 0.74261 0.35562 0.0
O601 O 0.69504 0.80441 0.36648 0.0
H602 H 0.79878 0.51787 0.29004 0.0
H603 H 0.44232 0.60737 0.38286 0.0
H604 H 0.53763 0.67546 0.30043 0.0
H605 H 0.68868 0.64607 0.29486 0.0
H606 H 0.55833 0.72857 0.37488 0.0
O607 O 0.90077 0.98003 0.30348 0.0
H608 H 0.67824 0.04199 0.25922 0.0
H609 H 0.87432 0.17124 0.30633 0.0
H610 H 0.41753 0.55604 0.30793 0.0
H611 H 0.94475 0.60624 0.35294 0.0
H612 H 0.36622 0.52341 0.3493 0.0
H613 H 0.91978 0.48846 0.3206 0.0
O614 O 0.56087 0.90179 0.33447 0.0
H615 H 0.9517 0.11579 0.37517 0.0
H616 H 0.65759 0.15598 0.3303 0.0
H617 H 0.70836 0.27963 0.3581 0.0
H618 H 0.85717 0.26057 0.38034 0.0
H619 H 0.90225 -0.00194 0.34567 0.0
H620 H 0.93469 0.26748 0.27382 0.0
H621 H 0.87019 0.24577 0.23264 0.0
O622 O 0.61414 0.01379 0.3095 0.0
C623 C 0.6777 0.84314 0.27626 0.0
C624 C 0.77093 0.14223 0.24373 0.0
C625 C 0.87841 0.21818 0.27046 0.0
N626 N 0.77128 0.10043 0.28503 0.0
C627 C 0.73454 0.0909 0.26269 0.0
C628 C 0.84072 0.16549 0.28914 0.0
C629 C 0.84352 0.20544 0.2475 0.0
C630 C 0.82696 0.69127 0.34192 0.0
N631 N 0.75238 0.70038 0.32657 0.0
C632 C 0.88799 0.61466 0.34025 0.0
C633 C 0.87531 0.54955 0.32199 0.0
C634 C 0.80526 0.56404 0.30518 0.0
C635 C 0.74332 0.6388 0.30795 0.0
C636 C 0.46242 0.62288 0.36465 0.0
C637 C 0.51865 0.661 0.31851 0.0
C638 C 0.53088 0.69059 0.35983 0.0
N639 N 0.56037 0.70805 0.33689 0.0
C640 C 0.44844 0.59432 0.32265 0.0
C641 C 0.41985 0.5756 0.34587 0.0
C642 C 0.54667 0.97546 0.32176 0.0
C643 C 0.88824 0.12649 0.36487 0.0
C644 C 0.72395 0.14919 0.33912 0.0
C645 C 0.75137 0.21822 0.35533 0.0
C646 C 0.83497 0.2074 0.3679 0.0
N647 N 0.78151 0.0751 0.33427 0.0
C648 C 0.85995 0.06035 0.34796 0.0
Co649 Co 0.19393 0.15991 0.58094 0.0
Co650 Co -0.00047 0.25956 0.55662 0.0
O651 O 0.10511 0.25971 0.57736 0.0
C652 C 0.11485 0.2176 0.62761 0.0
O653 O 0.03364 0.1915 0.61882 0.0
C654 C 0.01005 0.44728 0.53407 0.0
O655 O 0.01875 0.4044 0.51355 0.0
O656 O 0.08633 0.23829 0.52895 0.0
O657 O 0.19058 0.13531 0.54429 0.0
H658 H 0.86255 0.24337 0.47619 0.0
H659 H 0.25193 0.34058 0.60564 0.0
O660 O 0.19015 0.1949 0.61649 0.0
H661 H 0.47678 0.29861 0.54009 0.0
H662 H 0.38727 0.94219 0.63287 0.0
H663 H 0.31914 0.0375 0.55044 0.0
H664 H 0.34855 0.18857 0.54488 0.0
H665 H 0.26603 0.05819 0.62489 0.0
O666 O 0.01458 0.4007 0.55349 0.0
H667 H 0.95263 0.17816 0.50923 0.0
H668 H 0.82335 0.37432 0.55633 0.0
H669 H 0.43859 0.9174 0.55794 0.0
H670 H 0.38832 0.44455 0.60299 0.0
H671 H 0.47126 0.86611 0.59931 0.0
H672 H 0.50618 0.41954 0.57067 0.0
O673 O 0.09281 0.06078 0.58448 0.0
H674 H 0.87874 0.45169 0.62517 0.0
H675 H 0.8386 0.15756 0.5803 0.0
H676 H 0.71493 0.20839 0.60809 0.0
H677 H 0.73397 0.35719 0.63033 0.0
H678 H 0.9965 0.4022 0.59567 0.0
H679 H 0.7271 0.43466 0.52381 0.0
H680 H 0.74882 0.3701 0.48263 0.0
O681 O 0.9808 0.11409 0.5595 0.0
C682 C 0.15147 0.17761 0.52627 0.0
C683 C 0.85238 0.27085 0.49373 0.0
C684 C 0.77641 0.37837 0.52045 0.0
N685 N 0.89417 0.27125 0.53503 0.0
C686 C 0.90371 0.23448 0.51269 0.0
C687 C 0.82911 0.3407 0.53914 0.0
C688 C 0.78915 0.34345 0.4975 0.0
C689 C 0.30329 0.32681 0.59194 0.0
N690 N 0.2942 0.25226 0.5766 0.0
C691 C 0.37992 0.3878 0.59029 0.0
C692 C 0.44507 0.37511 0.57205 0.0
C693 C 0.43058 0.3051 0.55522 0.0
C694 C 0.35581 0.24319 0.55797 0.0
C695 C 0.37175 0.9623 0.61466 0.0
C696 C 0.3336 0.01852 0.56851 0.0
C697 C 0.30402 0.03075 0.60984 0.0
N698 N 0.28655 0.06024 0.5869 0.0
C699 C 0.40031 0.94831 0.57266 0.0
C700 C 0.41905 0.91973 0.59588 0.0
C701 C 0.01913 0.0466 0.57176 0.0
C702 C 0.86806 0.38823 0.61486 0.0
C703 C 0.84539 0.22393 0.58912 0.0
C704 C 0.77634 0.25138 0.60533 0.0
C705 C 0.78714 0.33498 0.6179 0.0
N706 N 0.91947 0.28148 0.58427 0.0
C707 C 0.93421 0.35992 0.59797 0.0
Co708 Co 0.83464 0.80063 0.44627 0.0
Co709 Co 0.735 0.99503 0.47059 0.0
O710 O 0.73485 0.88944 0.44984 0.0
C711 C 0.77695 0.87971 0.39959 0.0
O712 O 0.80306 0.96092 0.40838 0.0
C713 C 0.54728 0.98452 0.49314 0.0
O714 O 0.59016 0.97581 0.51365 0.0
O715 O 0.75626 0.90822 0.49826 0.0
O716 O 0.85925 0.80397 0.48291 0.0
H717 H 0.7512 0.132 0.55102 0.0
H718 H 0.65398 0.74263 0.42156 0.0
O719 O 0.79966 0.80441 0.41071 0.0
H720 H 0.69594 0.51779 0.48712 0.0
H721 H 0.05237 0.60729 0.39433 0.0
H722 H 0.95705 0.67541 0.47676 0.0
H723 H 0.80599 0.64601 0.48233 0.0
H724 H 0.93637 0.72853 0.40232 0.0
O725 O 0.59386 0.97999 0.47371 0.0
H726 H 0.8164 0.04192 0.51797 0.0
H727 H 0.62025 0.17121 0.47088 0.0
H728 H 0.07715 0.55596 0.46926 0.0
H729 H 0.55 0.60624 0.42422 0.0
H730 H 0.12846 0.5233 0.4279 0.0
H731 H 0.575 0.48839 0.45654 0.0
O732 O 0.93378 0.90175 0.44273 0.0
H733 H 0.54287 0.11582 0.40203 0.0
H734 H 0.837 0.15595 0.4469 0.0
H735 H 0.78618 0.27963 0.41911 0.0
H736 H 0.63738 0.2606 0.39687 0.0
H737 H 0.59236 -0.00194 0.43153 0.0
H738 H 0.5599 0.26745 0.5034 0.0
H739 H 0.62447 0.24573 0.54458 0.0
O740 O 0.88047 0.01375 0.4677 0.0
C741 C 0.81695 0.84309 0.50094 0.0
C742 C 0.72372 0.14217 0.53347 0.0
C743 C 0.61619 0.21815 0.50675 0.0
N744 N 0.72332 0.10038 0.49218 0.0
C745 C 0.76008 0.09084 0.51451 0.0
C746 C 0.65387 0.16545 0.48807 0.0
C747 C 0.65112 0.2054 0.52971 0.0
C748 C 0.66774 0.69127 0.43526 0.0
N749 N 0.7423 0.70036 0.45061 0.0
C750 C 0.60675 0.61465 0.43692 0.0
C751 C 0.61944 0.5495 0.45516 0.0
C752 C 0.68945 0.56398 0.47199 0.0
C753 C 0.75136 0.63875 0.46923 0.0
C754 C 0.03226 0.62281 0.41255 0.0
C755 C 0.97603 0.66095 0.45869 0.0
C756 C 0.96381 0.69054 0.41737 0.0
N757 N 0.93431 0.70801 0.4403 0.0
C758 C 0.04624 0.59425 0.45455 0.0
C759 C 0.07483 0.57551 0.43133 0.0
C760 C 0.94796 0.97543 0.45545 0.0
C761 C 0.60633 0.1265 0.41234 0.0
C762 C 0.77063 0.14917 0.43808 0.0
C763 C 0.74319 0.21822 0.42188 0.0
C764 C 0.65959 0.20742 0.40931 0.0
N765 N 0.71308 0.07509 0.44293 0.0
C766 C 0.63465 0.06036 0.42924 0.0
Co767 Co 0.1939 0.33453 0.69628 0.0
Co768 Co -0.0005 0.23494 0.72059 0.0
O769 O 0.10509 0.23475 0.69985 0.0
C770 C 0.11485 0.27684 0.6496 0.0
O771 O 0.03363 0.30298 0.65839 0.0
C772 C 0.00998 0.0472 0.74314 0.0
O773 O 0.01869 0.09007 0.76366 0.0
O774 O 0.08629 0.25618 0.74827 0.0
O775 O 0.19053 0.35916 0.73292 0.0
H776 H 0.86248 0.25109 0.80102 0.0
H777 H 0.25195 0.15384 0.67158 0.0
O778 O 0.19014 0.29952 0.66072 0.0
H779 H 0.47669 0.19578 0.73716 0.0
H780 H 0.38719 0.55224 0.64434 0.0
H781 H 0.3191 0.45693 0.72677 0.0
H782 H 0.34849 0.30588 0.73235 0.0
H783 H 0.26598 0.43623 0.65232 0.0
O784 O 0.01453 0.09379 0.72372 0.0
H785 H 0.95257 0.31632 0.76798 0.0
H786 H 0.82331 0.12024 0.72087 0.0
H787 H 0.43851 0.57703 0.71927 0.0
H788 H 0.38831 0.0498 0.67427 0.0
H789 H 0.47115 0.62834 0.6779 0.0
H790 H 0.5061 0.07478 0.70661 0.0
O791 O 0.09277 0.43369 0.69273 0.0
H792 H 0.87877 0.04286 0.65203 0.0
H793 H 0.83858 0.33697 0.69691 0.0
H794 H 0.71493 0.28619 0.6691 0.0
H795 H 0.734 0.13739 0.64686 0.0
H796 H 0.9965 0.09231 0.68154 0.0
H797 H 0.72708 0.05987 0.75339 0.0
H798 H 0.74879 0.12437 0.79457 0.0
O799 O 0.98077 0.38042 0.71771 0.0
C800 C 0.15142 0.31686 0.75095 0.0
C801 C 0.85233 0.22363 0.78347 0.0
C802 C 0.77637 0.11615 0.75675 0.0
N803 N 0.89413 0.22327 0.74218 0.0
C804 C 0.90366 0.26001 0.76451 0.0
C805 C 0.82907 0.15384 0.73806 0.0
C806 C 0.78911 0.15104 0.7797 0.0
C807 C 0.30329 0.1676 0.68529 0.0
N808 N 0.29417 0.24217 0.70063 0.0
C809 C 0.37989 0.10657 0.68696 0.0
C810 C 0.44501 0.11925 0.70521 0.0
C811 C 0.43051 0.1893 0.72203 0.0
C812 C 0.35576 0.25124 0.71926 0.0
C813 C 0.37167 0.53214 0.66255 0.0
C814 C 0.33355 0.47591 0.7087 0.0
C815 C 0.30397 0.46367 0.66737 0.0
N816 N 0.28651 0.43418 0.69031 0.0
C817 C 0.40023 0.54612 0.70455 0.0
C818 C 0.41896 0.57471 0.68134 0.0
C819 C 0.01909 0.44789 0.70545 0.0
C820 C 0.86807 0.10632 0.66234 0.0
C821 C 0.84537 0.27061 0.68808 0.0
C822 C 0.77634 0.24319 0.67187 0.0
C823 C 0.78716 0.15959 0.6593 0.0
N824 N 0.91945 0.21304 0.69294 0.0
C825 C 0.9342 0.13461 0.67924 0.0
Co826 Co 0.65992 0.69393 0.94627 0.0
Co827 Co 0.75956 0.49953 0.97059 0.0
O828 O 0.75971 0.60511 0.94984 0.0
C829 C 0.71761 0.61484 0.89959 0.0
O830 O 0.6915 0.53363 0.90838 0.0
C831 C 0.94729 0.51004 0.99314 0.0
O832 O 0.9044 0.51874 0.01366 0.0
O833 O 0.7383 0.58633 0.99826 0.0
O834 O 0.63531 0.69058 0.98291 0.0
H835 H 0.74337 0.36255 0.05101 0.0
H836 H 0.84058 0.75193 0.92156 0.0
O837 O 0.6949 0.69014 0.91071 0.0
H838 H 0.79862 0.97677 0.98712 0.0
H839 H 0.44219 0.88726 0.89433 0.0
H840 H 0.53751 0.81915 0.97676 0.0
H841 H 0.68857 0.84854 0.98233 0.0
H842 H 0.55819 0.76602 0.90232 0.0
O843 O 0.9007 0.51457 0.97371 0.0
H844 H 0.67816 0.45263 0.01797 0.0
H845 H 0.87432 0.32335 0.97088 0.0
H846 H 0.4174 0.93859 0.96926 0.0
H847 H 0.94455 0.88832 0.92422 0.0
H848 H 0.36611 0.97125 0.92789 0.0
H849 H 0.91955 0.00617 0.95654 0.0
O850 O 0.56078 0.5928 0.94273 0.0
H851 H 0.95169 0.37873 0.90203 0.0
H852 H 0.65756 0.3386 0.9469 0.0
H853 H 0.70838 0.21493 0.91911 0.0
H854 H 0.85718 0.23397 0.89687 0.0
H855 H 0.9022 0.4965 0.93153 0.0
H856 H 0.93466 0.2271 1.0034 0.0
H857 H 0.8701 0.24882 0.04457 0.0
O858 O 0.61409 0.4808 0.9677 0.0
C859 C 0.67761 0.65147 1.00094 0.0
C860 C 0.77085 0.35238 0.03347 0.0
C861 C 0.87837 0.27641 1.00675 0.0
N862 N 0.77125 0.39417 0.99218 0.0
C863 C 0.73448 0.40371 0.01451 0.0
C864 C 0.8407 0.32911 0.98807 0.0
C865 C 0.84345 0.28915 0.02971 0.0
C866 C 0.82682 0.80329 0.93526 0.0
N867 N 0.75226 0.79419 0.95061 0.0
C868 C 0.88781 0.87991 0.93692 0.0
C869 C 0.87512 0.94506 0.95516 0.0
C870 C 0.8051 0.93058 0.97199 0.0
C871 C 0.74319 0.8558 0.96923 0.0
C872 C 0.4623 0.87174 0.91254 0.0
C873 C 0.51853 0.8336 0.95869 0.0
C874 C 0.53075 0.80401 0.91737 0.0
N875 N 0.56025 0.78654 0.9403 0.0
C876 C 0.44832 0.90031 0.95455 0.0
C877 C 0.41973 0.91905 0.93133 0.0
C878 C 0.5466 0.51912 0.95545 0.0
C879 C 0.88823 0.36805 0.91234 0.0
C880 C 0.72393 0.34538 0.93808 0.0
C881 C 0.75137 0.27634 0.92188 0.0
C882 C 0.83497 0.28714 0.90931 0.0
N883 N 0.78148 0.41947 0.94293 0.0
C884 C 0.85992 0.4342 0.92924 0.0
Co885 Co 0.30066 0.16003 0.19628 0.0
Co886 Co 0.49506 0.25962 0.22059 0.0
O887 O 0.38946 0.2598 0.19985 0.0
C888 C 0.37972 0.21772 0.1496 0.0
O889 O 0.46093 0.19158 0.15839 0.0
C890 C 0.48457 0.44736 0.24314 0.0
O891 O 0.47586 0.40449 0.26366 0.0
O892 O 0.40827 0.23837 0.24827 0.0
O893 O 0.30403 0.1354 0.23292 0.0
H894 H 0.63211 0.24349 0.30102 0.0
H895 H 0.24262 0.34071 0.17158 0.0
O896 O 0.30442 0.19503 0.16072 0.0
H897 H 0.01785 0.29875 0.23716 0.0
H898 H 0.10736 0.94233 0.14434 0.0
H899 H 0.17548 0.03761 0.22677 0.0
H900 H 0.14606 0.18867 0.23234 0.0
H901 H 0.22857 0.05833 0.15232 0.0
O902 O 0.48002 0.40077 0.22372 0.0
H903 H 0.542 0.17826 0.26798 0.0
H904 H 0.67124 0.37433 0.22087 0.0
H905 H 0.05605 0.91752 0.21927 0.0
H906 H 0.10624 0.44474 0.17426 0.0
H907 H 0.02341 0.86622 0.1779 0.0
H908 H 0.98844 0.41975 0.2066 0.0
O909 O 0.40179 0.06087 0.19273 0.0
H910 H 0.61578 0.45172 0.15203 0.0
H911 H 0.65598 0.1576 0.19691 0.0
H912 H 0.77962 0.20839 0.1691 0.0
H913 H 0.76055 0.35719 0.14686 0.0
H914 H 0.49805 0.40226 0.18154 0.0
H915 H 0.76749 0.43471 0.25338 0.0
H916 H 0.74579 0.37022 0.29456 0.0
O917 O 0.5138 0.11415 0.21771 0.0
C918 C 0.34314 0.1777 0.25095 0.0
C919 C 0.64225 0.27095 0.28347 0.0
C920 C 0.71819 0.37843 0.25674 0.0
N921 N 0.60044 0.2713 0.24218 0.0
C922 C 0.59091 0.23456 0.26451 0.0
C923 C 0.66549 0.34073 0.23806 0.0
C924 C 0.70546 0.34354 0.2797 0.0
C925 C 0.19127 0.32695 0.18529 0.0
N926 N 0.20038 0.25238 0.20063 0.0
C927 C 0.11466 0.38797 0.18695 0.0
C928 C 0.04953 0.37529 0.2052 0.0
C929 C 0.06403 0.30524 0.22202 0.0
C930 C 0.13879 0.24331 0.21926 0.0
C931 C 0.12288 0.96243 0.16255 0.0
C932 C 0.16101 0.01864 0.2087 0.0
C933 C 0.19059 0.03089 0.16737 0.0
N934 N 0.20806 0.06037 0.19031 0.0
C935 C 0.09433 0.94843 0.20455 0.0
C936 C 0.0756 0.91985 0.18133 0.0
C937 C 0.47547 0.04668 0.20545 0.0
C938 C 0.62647 0.38826 0.16234 0.0
C939 C 0.64918 0.22396 0.18808 0.0
C940 C 0.71821 0.25139 0.17187 0.0
C941 C 0.70739 0.33499 0.1593 0.0
N942 N 0.5751 0.28152 0.19294 0.0
C943 C 0.56034 0.35996 0.17924 0.0
loop_
_geom_bond_atom_site_label_1
_geom_bond_atom_site_label_2
_geom_bond_distance
_geom_bond_site_symmetry_2
_ccdc_geom_bond_type
Co0 O2 2.143 . S
Co0 O8 2.074 . S
Co0 O11 2.093 . S
Co0 O24 2.097 . S
Co0 N41 2.151 . S
Co0 N49 2.214 . S
Co1 O2 2.160 . S
Co1 O7 2.058 . S
Co1 O17 2.057 1_545 S
Co1 O32 2.037 . S
Co1 N36 2.145 1_545 S
Co1 N57 2.257 1_545 S
O2 Co0 2.143 . S
O2 Co1 2.160 . S
C3 O4 1.278 . S
C3 O11 1.224 . S
O4 C3 1.278 . S
C5 O6 1.245 . S
C5 O17 1.232 1_545 S
O6 C5 1.245 . S
O7 Co1 2.058 . S
O7 C33 1.269 . S
O8 Co0 2.074 . S
O8 C33 1.257 . S
H9 C34 0.930 . S
H10 C40 0.930 . S
O11 Co0 2.093 . S
O11 C3 1.224 . S
H12 C44 0.929 . S
H13 C46 0.930 . S
H14 C47 0.930 . S
H15 C45 0.929 . S
H16 C48 0.928 . S
O17 Co1 2.057 1_565 S
O17 C5 1.232 1_565 S
H18 C37 0.929 . S
H19 C38 0.929 . S
H20 C50 0.931 . S
H21 C42 0.929 . S
H22 C51 0.930 . S
H23 C43 0.931 . S
O24 Co0 2.097 . S
O24 C52 1.214 . S
H25 C53 0.929 . S
H26 C54 0.929 . S
H27 C55 0.930 . S
H28 C56 0.929 . S
H29 C58 0.930 . S
H30 C35 0.930 . S
H31 C39 0.930 . S
O32 Co1 2.037 . S
O32 C52 1.234 . S
C33 O7 1.269 . S
C33 O8 1.257 . S
C34 H9 0.930 . S
C34 C37 1.388 . S
C34 C39 1.418 . S
C35 H30 0.930 . S
C35 C38 1.404 . S
C35 C39 1.353 . S
N36 Co1 2.145 1_565 S
N36 C37 1.397 . S
N36 C38 1.334 . S
C37 H18 0.929 . S
C37 C34 1.388 . S
C37 N36 1.397 . S
C38 H19 0.929 . S
C38 C35 1.404 . S
C38 N36 1.334 . S
C39 H31 0.930 . S
C39 C34 1.418 . S
C39 C35 1.353 . S
C40 H10 0.930 . S
C40 N41 1.330 . S
C40 C42 1.446 . S
N41 Co0 2.151 . S
N41 C40 1.330 . S
N41 C45 1.418 . S
C42 H21 0.929 . S
C42 C40 1.446 . S
C42 C43 1.332 . S
C43 H23 0.931 . S
C43 C42 1.332 . S
C43 C44 1.267 . S
C44 H12 0.929 . S
C44 C43 1.267 . S
C44 C45 1.251 . S
C45 H15 0.929 . S
C45 N41 1.418 . S
C45 C44 1.251 . S
C46 H13 0.930 . S
C46 C48 1.406 . S
C46 C51 1.261 . S
C47 H14 0.930 . S
C47 N49 1.325 . S
C47 C50 1.357 . S
C48 H16 0.928 . S
C48 C46 1.406 . S
C48 N49 1.261 . S
N49 Co0 2.214 . S
N49 C47 1.325 . S
N49 C48 1.261 . S
C50 H20 0.931 . S
C50 C47 1.357 . S
C50 C51 1.312 . S
C51 H22 0.930 . S
C51 C46 1.261 . S
C51 C50 1.312 . S
C52 O24 1.214 . S
C52 O32 1.234 . S
C53 H25 0.929 . S
C53 C56 1.391 . S
C53 C58 1.391 . S
C54 H26 0.929 . S
C54 C55 1.390 . S
C54 N57 1.391 . S
C55 H27 0.930 . S
C55 C54 1.390 . S
C55 C56 1.392 . S
C56 H28 0.929 . S
C56 C53 1.391 . S
C56 C55 1.392 . S
N57 Co1 2.257 1_565 S
N57 C54 1.391 . S
N57 C58 1.388 . S
C58 H29 0.930 . S
C58 C53 1.391 . S
C58 N57 1.388 . S
Co59 O61 2.143 . S
Co59 O67 2.074 . S
Co59 O70 2.093 . S
Co59 O83 2.097 . S
Co59 N100 2.151 . S
Co59 N108 2.214 . S
Co60 O61 2.160 . S
Co60 O66 2.058 . S
Co60 O76 2.057 1_655 S
Co60 O91 2.037 . S
Co60 N95 2.145 1_655 S
Co60 N116 2.257 1_655 S
O61 Co59 2.143 . S
O61 Co60 2.160 . S
C62 O63 1.278 . S
C62 O70 1.224 . S
O63 C62 1.278 . S
C64 O65 1.245 . S
C64 O76 1.232 1_655 S
O65 C64 1.245 . S
O66 Co60 2.058 . S
O66 C92 1.269 . S
O67 Co59 2.074 . S
O67 C92 1.257 . S
H68 C93 0.930 . S
H69 C99 0.930 . S
O70 Co59 2.093 . S
O70 C62 1.224 . S
H71 C103 0.929 . S
H72 C105 0.930 . S
H73 C106 0.930 . S
H74 C104 0.929 . S
H75 C107 0.928 . S
O76 Co60 2.057 1_455 S
O76 C64 1.232 1_455 S
H77 C96 0.929 . S
H78 C97 0.929 . S
H79 C109 0.931 . S
H80 C101 0.929 . S
H81 C110 0.930 . S
H82 C102 0.931 . S
O83 Co59 2.097 . S
O83 C111 1.214 . S
H84 C112 0.929 . S
H85 C113 0.929 . S
H86 C114 0.930 . S
H87 C115 0.929 . S
H88 C117 0.930 . S
H89 C94 0.930 . S
H90 C98 0.930 . S
O91 Co60 2.037 . S
O91 C111 1.234 . S
C92 O66 1.269 . S
C92 O67 1.257 . S
C93 H68 0.930 . S
C93 C96 1.388 . S
C93 C98 1.418 . S
C94 H89 0.930 . S
C94 C97 1.404 . S
C94 C98 1.353 . S
N95 Co60 2.145 1_455 S
N95 C96 1.397 . S
N95 C97 1.334 . S
C96 H77 0.929 . S
C96 C93 1.388 . S
C96 N95 1.397 . S
C97 H78 0.929 . S
C97 C94 1.404 . S
C97 N95 1.334 . S
C98 H90 0.930 . S
C98 C93 1.418 . S
C98 C94 1.353 . S
C99 H69 0.930 . S
C99 N100 1.330 . S
C99 C101 1.446 . S
N100 Co59 2.151 . S
N100 C99 1.330 . S
N100 C104 1.418 . S
C101 H80 0.929 . S
C101 C99 1.446 . S
C101 C102 1.332 . S
C102 H82 0.931 . S
C102 C101 1.332 . S
C102 C103 1.267 . S
C103 H71 0.929 . S
C103 C102 1.267 . S
C103 C104 1.251 . S
C104 H74 0.929 . S
C104 N100 1.418 . S
C104 C103 1.251 . S
C105 H72 0.930 . S
C105 C107 1.406 1_545 S
C105 C110 1.261 . S
C106 H73 0.930 . S
C106 N108 1.325 1_545 S
C106 C109 1.357 . S
C107 H75 0.928 . S
C107 C105 1.406 1_565 S
C107 N108 1.261 . S
N108 Co59 2.214 . S
N108 C106 1.325 1_565 S
N108 C107 1.261 . S
C109 H79 0.931 . S
C109 C106 1.357 . S
C109 C110 1.312 . S
C110 H81 0.930 . S
C110 C105 1.261 . S
C110 C109 1.312 . S
C111 O83 1.214 . S
C111 O91 1.234 . S
C112 H84 0.929 . S
C112 C115 1.391 . S
C112 C117 1.391 . S
C113 H85 0.929 . S
C113 C114 1.390 . S
C113 N116 1.391 . S
C114 H86 0.930 . S
C114 C113 1.390 . S
C114 C115 1.392 . S
C115 H87 0.929 . S
C115 C112 1.391 . S
C115 C114 1.392 . S
N116 Co60 2.257 1_455 S
N116 C113 1.391 . S
N116 C117 1.388 . S
C117 H88 0.930 . S
C117 C112 1.391 . S
C117 N116 1.388 . S
Co118 O120 2.143 . S
Co118 O126 2.074 . S
Co118 O129 2.093 . S
Co118 O142 2.097 . S
Co118 N159 2.151 . S
Co118 N167 2.214 . S
Co119 O120 2.160 . S
Co119 O125 2.058 . S
Co119 O135 2.057 . S
Co119 O150 2.037 . S
Co119 N154 2.145 . S
Co119 N175 2.257 . S
O120 Co118 2.143 . S
O120 Co119 2.160 . S
C121 O122 1.278 . S
C121 O129 1.224 . S
O122 C121 1.278 . S
C123 O124 1.245 . S
C123 O135 1.232 . S
O124 C123 1.245 . S
O125 Co119 2.058 . S
O125 C151 1.269 . S
O126 Co118 2.074 . S
O126 C151 1.257 . S
H127 C152 0.930 . S
H128 C158 0.930 . S
O129 Co118 2.093 . S
O129 C121 1.224 . S
H130 C162 0.929 1_565 S
H131 C164 0.930 . S
H132 C165 0.930 . S
H133 C163 0.929 . S
H134 C166 0.928 . S
O135 Co119 2.057 . S
O135 C123 1.232 . S
H136 C155 0.929 . S
H137 C156 0.929 . S
H138 C168 0.931 . S
H139 C160 0.929 . S
H140 C169 0.930 . S
H141 C161 0.931 1_565 S
O142 Co118 2.097 . S
O142 C170 1.214 . S
H143 C171 0.929 . S
H144 C172 0.929 . S
H145 C173 0.930 . S
H146 C174 0.929 . S
H147 C176 0.930 . S
H148 C153 0.930 . S
H149 C157 0.930 . S
O150 Co119 2.037 . S
O150 C170 1.234 . S
C151 O125 1.269 . S
C151 O126 1.257 . S
C152 H127 0.930 . S
C152 C155 1.388 . S
C152 C157 1.418 . S
C153 H148 0.930 . S
C153 C156 1.404 . S
C153 C157 1.353 . S
N154 Co119 2.145 . S
N154 C155 1.397 . S
N154 C156 1.334 . S
C155 H136 0.929 . S
C155 C152 1.388 . S
C155 N154 1.397 . S
C156 H137 0.929 . S
C156 C153 1.404 . S
C156 N154 1.334 . S
C157 H149 0.930 . S
C157 C152 1.418 . S
C157 C153 1.353 . S
C158 H128 0.930 . S
C158 N159 1.330 . S
C158 C160 1.446 . S
N159 Co118 2.151 . S
N159 C158 1.330 . S
N159 C163 1.418 . S
C160 H139 0.929 . S
C160 C158 1.446 . S
C160 C161 1.332 . S
C161 H141 0.931 1_545 S
C161 C160 1.332 . S
C161 C162 1.267 . S
C162 H130 0.929 1_545 S
C162 C161 1.267 . S
C162 C163 1.251 . S
C163 H133 0.929 . S
C163 N159 1.418 . S
C163 C162 1.251 . S
C164 H131 0.930 . S
C164 C166 1.406 1_655 S
C164 C169 1.261 . S
C165 H132 0.930 . S
C165 N167 1.325 1_655 S
C165 C168 1.357 . S
C166 H134 0.928 . S
C166 C164 1.406 1_455 S
C166 N167 1.261 . S
N167 Co118 2.214 . S
N167 C165 1.325 1_455 S
N167 C166 1.261 . S
C168 H138 0.931 . S
C168 C165 1.357 . S
C168 C169 1.312 . S
C169 H140 0.930 . S
C169 C164 1.261 . S
C169 C168 1.312 . S
C170 O142 1.214 . S
C170 O150 1.234 . S
C171 H143 0.929 . S
C171 C174 1.391 . S
C171 C176 1.391 . S
C172 H144 0.929 . S
C172 C173 1.390 . S
C172 N175 1.391 . S
C173 H145 0.930 . S
C173 C172 1.390 . S
C173 C174 1.392 . S
C174 H146 0.929 . S
C174 C171 1.391 . S
C174 C173 1.392 . S
N175 Co119 2.257 . S
N175 C172 1.391 . S
N175 C176 1.388 . S
C176 H147 0.930 . S
C176 C171 1.391 . S
C176 N175 1.388 . S
Co177 O179 2.143 . S
Co177 O185 2.074 . S
Co177 O188 2.093 . S
Co177 O201 2.097 . S
Co177 N218 2.151 . S
Co177 N226 2.214 . S
Co178 O179 2.160 . S
Co178 O184 2.058 . S
Co178 O194 2.057 . S
Co178 O209 2.037 . S
Co178 N213 2.145 . S
Co178 N234 2.257 . S
O179 Co177 2.143 . S
O179 Co178 2.160 . S
C180 O181 1.278 . S
C180 O188 1.224 . S
O181 C180 1.278 . S
C182 O183 1.245 . S
C182 O194 1.232 . S
O183 C182 1.245 . S
O184 Co178 2.058 . S
O184 C210 1.269 . S
O185 Co177 2.074 . S
O185 C210 1.257 . S
H186 C211 0.930 . S
H187 C217 0.930 . S
O188 Co177 2.093 . S
O188 C180 1.224 . S
H189 C221 0.929 1_455 S
H190 C223 0.930 . S
H191 C224 0.930 . S
H192 C222 0.929 . S
H193 C225 0.928 . S
O194 Co178 2.057 . S
O194 C182 1.232 . S
H195 C214 0.934 . S
H196 C215 0.929 . S
H197 C227 0.931 . S
H198 C219 0.929 . S
H199 C228 0.930 . S
H200 C220 0.931 1_455 S
O201 Co177 2.097 . S
O201 C229 1.214 . S
H202 C230 0.929 . S
H203 C231 0.929 . S
H204 C232 0.930 . S
H205 C233 0.929 . S
H206 C235 0.930 . S
H207 C212 0.930 . S
H208 C216 0.930 . S
O209 Co178 2.037 . S
O209 C229 1.234 . S
C210 O184 1.269 . S
C210 O185 1.257 . S
C211 H186 0.930 . S
C211 C214 1.388 . S
C211 C216 1.418 . S
C212 H207 0.930 . S
C212 C215 1.404 1_556 S
C212 C216 1.353 . S
N213 Co178 2.145 . S
N213 C214 1.397 1_554 S
N213 C215 1.334 . S
C214 H195 0.934 . S
C214 C211 1.388 . S
C214 N213 1.397 1_556 S
C215 H196 0.929 . S
C215 C212 1.404 1_554 S
C215 N213 1.334 . S
C216 H208 0.930 . S
C216 C211 1.418 . S
C216 C212 1.353 . S
C217 H187 0.930 . S
C217 N218 1.330 . S
C217 C219 1.446 . S
N218 Co177 2.151 . S
N218 C217 1.330 . S
N218 C222 1.418 . S
C219 H198 0.929 . S
C219 C217 1.446 . S
C219 C220 1.332 . S
C220 H200 0.931 1_655 S
C220 C219 1.332 . S
C220 C221 1.267 . S
C221 H189 0.929 1_655 S
C221 C220 1.267 . S
C221 C222 1.251 . S
C222 H192 0.929 . S
C222 N218 1.418 . S
C222 C221 1.251 . S
C223 H190 0.930 . S
C223 C225 1.406 . S
C223 C228 1.261 . S
C224 H191 0.930 . S
C224 N226 1.325 . S
C224 C227 1.357 . S
C225 H193 0.928 . S
C225 C223 1.406 . S
C225 N226 1.261 . S
N226 Co177 2.214 . S
N226 C224 1.325 . S
N226 C225 1.261 . S
C227 H197 0.931 . S
C227 C224 1.357 . S
C227 C228 1.312 . S
C228 H199 0.930 . S
C228 C223 1.261 . S
C228 C227 1.312 . S
C229 O201 1.214 . S
C229 O209 1.234 . S
C230 H202 0.929 . S
C230 C233 1.391 . S
C230 C235 1.391 . S
C231 H203 0.929 . S
C231 C232 1.390 . S
C231 N234 1.391 . S
C232 H204 0.930 . S
C232 C231 1.390 . S
C232 C233 1.392 . S
C233 H205 0.929 . S
C233 C230 1.391 . S
C233 C232 1.392 . S
N234 Co178 2.257 . S
N234 C231 1.391 . S
N234 C235 1.388 . S
C235 H206 0.930 . S
C235 C230 1.391 . S
C235 N234 1.388 . S
Co236 O238 2.143 . S
Co236 O244 2.074 . S
Co236 O247 2.093 . S
Co236 O260 2.097 . S
Co236 N277 2.151 . S
Co236 N285 2.214 . S
Co237 O238 2.160 . S
Co237 O243 2.058 . S
Co237 O253 2.057 . S
Co237 O268 2.037 . S
Co237 N272 2.145 . S
Co237 N293 2.257 . S
O238 Co236 2.143 . S
O238 Co237 2.160 . S
C239 O240 1.278 . S
C239 O247 1.224 . S
O240 C239 1.278 . S
C241 O242 1.245 . S
C241 O253 1.232 . S
O242 C241 1.245 . S
O243 Co237 2.058 . S
O243 C269 1.269 . S
O244 Co236 2.074 . S
O244 C269 1.257 . S
H245 C270 0.930 . S
H246 C276 0.930 . S
O247 Co236 2.093 . S
O247 C239 1.224 . S
H248 C280 0.929 1_565 S
H249 C282 0.930 . S
H250 C283 0.930 . S
H251 C281 0.929 . S
H252 C284 0.928 . S
O253 Co237 2.057 . S
O253 C241 1.232 . S
H254 C273 0.934 . S
H255 C274 0.929 . S
H256 C286 0.931 . S
H257 C278 0.929 . S
H258 C287 0.930 . S
H259 C279 0.931 1_565 S
O260 Co236 2.097 . S
O260 C288 1.214 . S
H261 C289 0.929 . S
H262 C290 0.929 . S
H263 C291 0.930 . S
H264 C292 0.929 . S
H265 C294 0.930 . S
H266 C271 0.930 . S
H267 C275 0.930 . S
O268 Co237 2.037 . S
O268 C288 1.234 . S
C269 O243 1.269 . S
C269 O244 1.257 . S
C270 H245 0.930 . S
C270 C273 1.388 . S
C270 C275 1.418 . S
C271 H266 0.930 . S
C271 C274 1.404 1_554 S
C271 C275 1.353 . S
N272 Co237 2.145 . S
N272 C273 1.397 1_556 S
N272 C274 1.334 . S
C273 H254 0.934 . S
C273 C270 1.388 . S
C273 N272 1.397 1_554 S
C274 H255 0.929 . S
C274 C271 1.404 1_556 S
C274 N272 1.334 . S
C275 H267 0.930 . S
C275 C270 1.418 . S
C275 C271 1.353 . S
C276 H246 0.930 . S
C276 N277 1.330 . S
C276 C278 1.446 . S
N277 Co236 2.151 . S
N277 C276 1.330 . S
N277 C281 1.418 . S
C278 H257 0.929 . S
C278 C276 1.446 . S
C278 C279 1.332 . S
C279 H259 0.931 1_545 S
C279 C278 1.332 . S
C279 C280 1.267 . S
C280 H248 0.929 1_545 S
C280 C279 1.267 . S
C280 C281 1.251 . S
C281 H251 0.929 . S
C281 N277 1.418 . S
C281 C280 1.251 . S
C282 H249 0.930 . S
C282 C284 1.406 . S
C282 C287 1.261 . S
C283 H250 0.930 . S
C283 N285 1.325 . S
C283 C286 1.357 . S
C284 H252 0.928 . S
C284 C282 1.406 . S
C284 N285 1.261 . S
N285 Co236 2.214 . S
N285 C283 1.325 . S
N285 C284 1.261 . S
C286 H256 0.931 . S
C286 C283 1.357 . S
C286 C287 1.312 . S
C287 H258 0.930 . S
C287 C282 1.261 . S
C287 C286 1.312 . S
C288 O260 1.214 . S
C288 O268 1.234 . S
C289 H261 0.929 . S
C289 C292 1.391 . S
C289 C294 1.391 . S
C290 H262 0.929 . S
C290 C291 1.390 . S
C290 N293 1.391 . S
C291 H263 0.930 . S
C291 C290 1.390 . S
C291 C292 1.392 . S
C292 H264 0.929 . S
C292 C289 1.391 . S
C292 C291 1.392 . S
N293 Co237 2.257 . S
N293 C290 1.391 . S
N293 C294 1.388 . S
C294 H265 0.930 . S
C294 C289 1.391 . S
C294 N293 1.388 . S
Co295 O297 2.143 . S
Co295 O303 2.074 . S
Co295 O306 2.093 . S
Co295 O319 2.097 . S
Co295 N336 2.151 . S
Co295 N344 2.214 . S
Co296 O297 2.160 . S
Co296 O302 2.058 . S
Co296 O312 2.057 . S
Co296 O327 2.037 . S
Co296 N331 2.145 . S
Co296 N352 2.257 . S
O297 Co295 2.143 . S
O297 Co296 2.160 . S
C298 O299 1.278 . S
C298 O306 1.224 . S
O299 C298 1.278 . S
C300 O301 1.245 . S
C300 O312 1.232 . S
O301 C300 1.245 . S
O302 Co296 2.058 . S
O302 C328 1.269 . S
O303 Co295 2.074 . S
O303 C328 1.257 . S
H304 C329 0.930 . S
H305 C335 0.930 . S
O306 Co295 2.093 . S
O306 C298 1.224 . S
H307 C339 0.929 1_455 S
H308 C341 0.930 . S
H309 C342 0.930 . S
H310 C340 0.929 . S
H311 C343 0.928 . S
O312 Co296 2.057 . S
O312 C300 1.232 . S
H313 C332 0.929 . S
H314 C333 0.929 . S
H315 C345 0.931 . S
H316 C337 0.929 . S
H317 C346 0.930 . S
H318 C338 0.931 1_455 S
O319 Co295 2.097 . S
O319 C347 1.214 . S
H320 C348 0.929 . S
H321 C349 0.929 . S
H322 C350 0.930 . S
H323 C351 0.929 . S
H324 C353 0.930 . S
H325 C330 0.930 . S
H326 C334 0.930 . S
O327 Co296 2.037 . S
O327 C347 1.234 . S
C328 O302 1.269 . S
C328 O303 1.257 . S
C329 H304 0.930 . S
C329 C332 1.388 . S
C329 C334 1.418 . S
C330 H325 0.930 . S
C330 C333 1.404 . S
C330 C334 1.353 . S
N331 Co296 2.145 . S
N331 C332 1.397 . S
N331 C333 1.334 . S
C332 H313 0.929 . S
C332 C329 1.388 . S
C332 N331 1.397 . S
C333 H314 0.929 . S
C333 C330 1.404 . S
C333 N331 1.334 . S
C334 H326 0.930 . S
C334 C329 1.418 . S
C334 C330 1.353 . S
C335 H305 0.930 . S
C335 N336 1.330 . S
C335 C337 1.446 . S
N336 Co295 2.151 . S
N336 C335 1.330 . S
N336 C340 1.418 . S
C337 H316 0.929 . S
C337 C335 1.446 . S
C337 C338 1.332 . S
C338 H318 0.931 1_655 S
C338 C337 1.332 . S
C338 C339 1.267 . S
C339 H307 0.929 1_655 S
C339 C338 1.267 . S
C339 C340 1.251 . S
C340 H310 0.929 . S
C340 N336 1.418 . S
C340 C339 1.251 . S
C341 H308 0.930 . S
C341 C343 1.406 1_545 S
C341 C346 1.261 . S
C342 H309 0.930 . S
C342 N344 1.325 1_545 S
C342 C345 1.357 . S
C343 H311 0.928 . S
C343 C341 1.406 1_565 S
C343 N344 1.261 . S
N344 Co295 2.214 . S
N344 C342 1.325 1_565 S
N344 C343 1.261 . S
C345 H315 0.931 . S
C345 C342 1.357 . S
C345 C346 1.312 . S
C346 H317 0.930 . S
C346 C341 1.261 . S
C346 C345 1.312 . S
C347 O319 1.214 . S
C347 O327 1.234 . S
C348 H320 0.929 . S
C348 C351 1.391 . S
C348 C353 1.391 . S
C349 H321 0.929 . S
C349 C350 1.390 . S
C349 N352 1.391 . S
C350 H322 0.930 . S
C350 C349 1.390 . S
C350 C351 1.392 . S
C351 H323 0.929 . S
C351 C348 1.391 . S
C351 C350 1.392 . S
N352 Co296 2.257 . S
N352 C349 1.391 . S
N352 C353 1.388 . S
C353 H324 0.930 . S
C353 C348 1.391 . S
C353 N352 1.388 . S
Co354 O356 2.143 . S
Co354 O362 2.074 . S
Co354 O365 2.093 . S
Co354 O378 2.097 . S
Co354 N395 2.151 . S
Co354 N403 2.214 . S
Co355 O356 2.160 . S
Co355 O361 2.058 . S
Co355 O371 2.057 1_545 S
Co355 O386 2.037 . S
Co355 N390 2.145 1_545 S
Co355 N411 2.257 1_545 S
O356 Co354 2.143 . S
O356 Co355 2.160 . S
C357 O358 1.278 . S
C357 O365 1.224 . S
O358 C357 1.278 . S
C359 O360 1.245 . S
C359 O371 1.232 1_545 S
O360 C359 1.245 . S
O361 Co355 2.058 . S
O361 C387 1.269 . S
O362 Co354 2.074 . S
O362 C387 1.257 . S
H363 C388 0.930 . S
H364 C394 0.930 . S
O365 Co354 2.093 . S
O365 C357 1.224 . S
H366 C398 0.929 . S
H367 C400 0.930 . S
H368 C401 0.930 . S
H369 C399 0.929 . S
H370 C402 0.928 . S
O371 Co355 2.057 1_565 S
O371 C359 1.232 1_565 S
H372 C391 0.929 . S
H373 C392 0.929 . S
H374 C404 0.931 . S
H375 C396 0.929 . S
H376 C405 0.930 . S
H377 C397 0.931 . S
O378 Co354 2.097 . S
O378 C406 1.214 . S
H379 C407 0.929 . S
H380 C408 0.929 . S
H381 C409 0.930 . S
H382 C410 0.929 . S
H383 C412 0.930 . S
H384 C389 0.930 . S
H385 C393 0.930 . S
O386 Co355 2.037 . S
O386 C406 1.234 . S
C387 O361 1.269 . S
C387 O362 1.257 . S
C388 H363 0.930 . S
C388 C391 1.388 . S
C388 C393 1.418 . S
C389 H384 0.930 . S
C389 C392 1.404 . S
C389 C393 1.353 . S
N390 Co355 2.145 1_565 S
N390 C391 1.397 . S
N390 C392 1.334 . S
C391 H372 0.929 . S
C391 C388 1.388 . S
C391 N390 1.397 . S
C392 H373 0.929 . S
C392 C389 1.404 . S
C392 N390 1.334 . S
C393 H385 0.930 . S
C393 C388 1.418 . S
C393 C389 1.353 . S
C394 H364 0.930 . S
C394 N395 1.330 . S
C394 C396 1.446 . S
N395 Co354 2.151 . S
N395 C394 1.330 . S
N395 C399 1.418 . S
C396 H375 0.929 . S
C396 C394 1.446 . S
C396 C397 1.332 . S
C397 H377 0.931 . S
C397 C396 1.332 . S
C397 C398 1.267 . S
C398 H366 0.929 . S
C398 C397 1.267 . S
C398 C399 1.251 . S
C399 H369 0.929 . S
C399 N395 1.418 . S
C399 C398 1.251 . S
C400 H367 0.930 . S
C400 C402 1.406 1_655 S
C400 C405 1.261 . S
C401 H368 0.930 . S
C401 N403 1.325 1_655 S
C401 C404 1.357 . S
C402 H370 0.928 . S
C402 C400 1.406 1_455 S
C402 N403 1.261 . S
N403 Co354 2.214 . S
N403 C401 1.325 1_455 S
N403 C402 1.261 . S
C404 H374 0.931 . S
C404 C401 1.357 . S
C404 C405 1.312 . S
C405 H376 0.930 . S
C405 C400 1.261 . S
C405 C404 1.312 . S
C406 O378 1.214 . S
C406 O386 1.234 . S
C407 H379 0.929 . S
C407 C410 1.391 . S
C407 C412 1.391 . S
C408 H380 0.929 . S
C408 C409 1.390 . S
C408 N411 1.391 . S
C409 H381 0.930 . S
C409 C408 1.390 . S
C409 C410 1.392 . S
C410 H382 0.929 . S
C410 C407 1.391 . S
C410 C409 1.392 . S
N411 Co355 2.257 1_565 S
N411 C408 1.391 . S
N411 C412 1.388 . S
C412 H383 0.930 . S
C412 C407 1.391 . S
C412 N411 1.388 . S
Co413 O415 2.143 . S
Co413 O421 2.074 . S
Co413 O424 2.093 . S
Co413 O437 2.097 . S
Co413 N454 2.151 . S
Co413 N462 2.214 . S
Co414 O415 2.160 . S
Co414 O420 2.058 . S
Co414 O430 2.057 1_655 S
Co414 O445 2.037 . S
Co414 N449 2.145 1_655 S
Co414 N470 2.257 1_655 S
O415 Co413 2.143 . S
O415 Co414 2.160 . S
C416 O417 1.278 . S
C416 O424 1.224 . S
O417 C416 1.278 . S
C418 O419 1.245 . S
C418 O430 1.232 1_655 S
O419 C418 1.245 . S
O420 Co414 2.058 . S
O420 C446 1.269 . S
O421 Co413 2.074 . S
O421 C446 1.257 . S
H422 C447 0.930 . S
H423 C453 0.930 . S
O424 Co413 2.093 . S
O424 C416 1.224 . S
H425 C457 0.929 . S
H426 C459 0.930 . S
H427 C460 0.930 . S
H428 C458 0.929 . S
H429 C461 0.928 . S
O430 Co414 2.057 1_455 S
O430 C418 1.232 1_455 S
H431 C450 0.929 . S
H432 C451 0.929 . S
H433 C463 0.931 . S
H434 C455 0.929 . S
H435 C464 0.930 . S
H436 C456 0.931 . S
O437 Co413 2.097 . S
O437 C465 1.214 . S
H438 C466 0.929 . S
H439 C467 0.929 . S
H440 C468 0.930 . S
H441 C469 0.929 . S
H442 C471 0.930 . S
H443 C448 0.930 . S
H444 C452 0.930 . S
O445 Co414 2.037 . S
O445 C465 1.234 . S
C446 O420 1.269 . S
C446 O421 1.257 . S
C447 H422 0.930 . S
C447 C450 1.388 . S
C447 C452 1.418 . S
C448 H443 0.930 . S
C448 C451 1.404 . S
C448 C452 1.353 . S
N449 Co414 2.145 1_455 S
N449 C450 1.397 . S
N449 C451 1.334 . S
C450 H431 0.929 . S
C450 C447 1.388 . S
C450 N449 1.397 . S
C451 H432 0.929 . S
C451 C448 1.404 . S
C451 N449 1.334 . S
C452 H444 0.930 . S
C452 C447 1.418 . S
C452 C448 1.353 . S
C453 H423 0.930 . S
C453 N454 1.330 . S
C453 C455 1.446 . S
N454 Co413 2.151 . S
N454 C453 1.330 . S
N454 C458 1.418 . S
C455 H434 0.929 . S
C455 C453 1.446 . S
C455 C456 1.332 . S
C456 H436 0.931 . S
C456 C455 1.332 . S
C456 C457 1.267 . S
C457 H425 0.929 . S
C457 C456 1.267 . S
C457 C458 1.251 . S
C458 H428 0.929 . S
C458 N454 1.418 . S
C458 C457 1.251 . S
C459 H426 0.930 . S
C459 C461 1.406 . S
C459 C464 1.261 . S
C460 H427 0.930 . S
C460 N462 1.325 . S
C460 C463 1.357 . S
C461 H429 0.928 . S
C461 C459 1.406 . S
C461 N462 1.261 . S
N462 Co413 2.214 . S
N462 C460 1.325 . S
N462 C461 1.261 . S
C463 H433 0.931 . S
C463 C460 1.357 . S
C463 C464 1.312 . S
C464 H435 0.930 . S
C464 C459 1.261 . S
C464 C463 1.312 . S
C465 O437 1.214 . S
C465 O445 1.234 . S
C466 H438 0.929 . S
C466 C469 1.391 . S
C466 C471 1.391 . S
C467 H439 0.929 . S
C467 C468 1.390 . S
C467 N470 1.391 . S
C468 H440 0.930 . S
C468 C467 1.390 . S
C468 C469 1.392 . S
C469 H441 0.929 . S
C469 C466 1.391 . S
C469 C468 1.392 . S
N470 Co414 2.257 1_455 S
N470 C467 1.391 . S
N470 C471 1.388 . S
C471 H442 0.930 . S
C471 C466 1.391 . S
C471 N470 1.388 . S
Co472 O474 2.143 . S
Co472 O480 2.074 . S
Co472 O483 2.093 . S
Co472 O496 2.097 . S
Co472 N513 2.151 . S
Co472 N521 2.214 . S
Co473 O474 2.160 . S
Co473 O479 2.058 . S
Co473 O489 2.057 . S
Co473 O504 2.037 . S
Co473 N508 2.145 . S
Co473 N529 2.257 . S
O474 Co472 2.143 . S
O474 Co473 2.160 . S
C475 O476 1.278 . S
C475 O483 1.224 . S
O476 C475 1.278 . S
C477 O478 1.245 . S
C477 O489 1.232 . S
O478 C477 1.245 . S
O479 Co473 2.058 . S
O479 C505 1.269 . S
O480 Co472 2.074 . S
O480 C505 1.257 . S
H481 C506 0.930 . S
H482 C512 0.930 . S
O483 Co472 2.093 . S
O483 C475 1.224 . S
H484 C516 0.929 1_545 S
H485 C518 0.930 . S
H486 C519 0.930 . S
H487 C517 0.929 . S
H488 C520 0.928 . S
O489 Co473 2.057 . S
O489 C477 1.232 . S
H490 C509 0.929 . S
H491 C510 0.929 . S
H492 C522 0.931 . S
H493 C514 0.929 . S
H494 C523 0.930 . S
H495 C515 0.931 1_545 S
O496 Co472 2.097 . S
O496 C524 1.214 . S
H497 C525 0.929 . S
H498 C526 0.929 . S
H499 C527 0.930 . S
H500 C528 0.929 . S
H501 C530 0.930 . S
H502 C507 0.930 . S
H503 C511 0.930 . S
O504 Co473 2.037 . S
O504 C524 1.234 . S
C505 O479 1.269 . S
C505 O480 1.257 . S
C506 H481 0.930 . S
C506 C509 1.388 . S
C506 C511 1.418 . S
C507 H502 0.930 . S
C507 C510 1.404 . S
C507 C511 1.353 . S
N508 Co473 2.145 . S
N508 C509 1.397 . S
N508 C510 1.334 . S
C509 H490 0.929 . S
C509 C506 1.388 . S
C509 N508 1.397 . S
C510 H491 0.929 . S
C510 C507 1.404 . S
C510 N508 1.334 . S
C511 H503 0.930 . S
C511 C506 1.418 . S
C511 C507 1.353 . S
C512 H482 0.930 . S
C512 N513 1.330 . S
C512 C514 1.446 . S
N513 Co472 2.151 . S
N513 C512 1.330 . S
N513 C517 1.418 . S
C514 H493 0.929 . S
C514 C512 1.446 . S
C514 C515 1.332 . S
C515 H495 0.931 1_565 S
C515 C514 1.332 . S
C515 C516 1.267 . S
C516 H484 0.929 1_565 S
C516 C515 1.267 . S
C516 C517 1.251 . S
C517 H487 0.929 . S
C517 N513 1.418 . S
C517 C516 1.251 . S
C518 H485 0.930 . S
C518 C520 1.406 1_455 S
C518 C523 1.261 . S
C519 H486 0.930 . S
C519 N521 1.325 1_455 S
C519 C522 1.357 . S
C520 H488 0.928 . S
C520 C518 1.406 1_655 S
C520 N521 1.261 . S
N521 Co472 2.214 . S
N521 C519 1.325 1_655 S
N521 C520 1.261 . S
C522 H492 0.931 . S
C522 C519 1.357 . S
C522 C523 1.312 . S
C523 H494 0.930 . S
C523 C518 1.261 . S
C523 C522 1.312 . S
C524 O496 1.214 . S
C524 O504 1.234 . S
C525 H497 0.929 . S
C525 C528 1.391 . S
C525 C530 1.391 . S
C526 H498 0.929 . S
C526 C527 1.390 . S
C526 N529 1.391 . S
C527 H499 0.930 . S
C527 C526 1.390 . S
C527 C528 1.392 . S
C528 H500 0.929 . S
C528 C525 1.391 . S
C528 C527 1.392 . S
N529 Co473 2.257 . S
N529 C526 1.391 . S
N529 C530 1.388 . S
C530 H501 0.930 . S
C530 C525 1.391 . S
C530 N529 1.388 . S
Co531 O533 2.143 . S
Co531 O539 2.074 . S
Co531 O542 2.093 . S
Co531 O555 2.097 . S
Co531 N572 2.151 . S
Co531 N580 2.214 . S
Co532 O533 2.160 . S
Co532 O538 2.058 . S
Co532 O548 2.057 . S
Co532 O563 2.037 . S
Co532 N567 2.145 . S
Co532 N588 2.257 . S
O533 Co531 2.143 . S
O533 Co532 2.160 . S
C534 O535 1.278 . S
C534 O542 1.224 . S
O535 C534 1.278 . S
C536 O537 1.245 . S
C536 O548 1.232 . S
O537 C536 1.245 . S
O538 Co532 2.058 . S
O538 C564 1.269 . S
O539 Co531 2.074 . S
O539 C564 1.257 . S
H540 C565 0.930 . S
H541 C571 0.930 . S
O542 Co531 2.093 . S
O542 C534 1.224 . S
H543 C575 0.929 1_655 S
H544 C577 0.930 . S
H545 C578 0.930 . S
H546 C576 0.929 . S
H547 C579 0.928 . S
O548 Co532 2.057 . S
O548 C536 1.232 . S
H549 C568 0.934 . S
H550 C569 0.929 . S
H551 C581 0.931 . S
H552 C573 0.929 . S
H553 C582 0.930 . S
H554 C574 0.931 1_655 S
O555 Co531 2.097 . S
O555 C583 1.214 . S
H556 C584 0.929 . S
H557 C585 0.929 . S
H558 C586 0.930 . S
H559 C587 0.929 . S
H560 C589 0.930 . S
H561 C566 0.930 . S
H562 C570 0.930 . S
O563 Co532 2.037 . S
O563 C583 1.234 . S
C564 O538 1.269 . S
C564 O539 1.257 . S
C565 H540 0.930 . S
C565 C568 1.388 . S
C565 C570 1.418 . S
C566 H561 0.930 . S
C566 C569 1.404 1_556 S
C566 C570 1.353 . S
N567 Co532 2.145 . S
N567 C568 1.397 1_554 S
N567 C569 1.334 . S
C568 H549 0.934 . S
C568 C565 1.388 . S
C568 N567 1.397 1_556 S
C569 H550 0.929 . S
C569 C566 1.404 1_554 S
C569 N567 1.334 . S
C570 H562 0.930 . S
C570 C565 1.418 . S
C570 C566 1.353 . S
C571 H541 0.930 . S
C571 N572 1.330 . S
C571 C573 1.446 . S
N572 Co531 2.151 . S
N572 C571 1.330 . S
N572 C576 1.418 . S
C573 H552 0.929 . S
C573 C571 1.446 . S
C573 C574 1.332 . S
C574 H554 0.931 1_455 S
C574 C573 1.332 . S
C574 C575 1.267 . S
C575 H543 0.929 1_455 S
C575 C574 1.267 . S
C575 C576 1.251 . S
C576 H546 0.929 . S
C576 N572 1.418 . S
C576 C575 1.251 . S
C577 H544 0.930 . S
C577 C579 1.406 . S
C577 C582 1.261 . S
C578 H545 0.930 . S
C578 N580 1.325 . S
C578 C581 1.357 . S
C579 H547 0.928 . S
C579 C577 1.406 . S
C579 N580 1.261 . S
N580 Co531 2.214 . S
N580 C578 1.325 . S
N580 C579 1.261 . S
C581 H551 0.931 . S
C581 C578 1.357 . S
C581 C582 1.312 . S
C582 H553 0.930 . S
C582 C577 1.261 . S
C582 C581 1.312 . S
C583 O555 1.214 . S
C583 O563 1.234 . S
C584 H556 0.929 . S
C584 C587 1.391 . S
C584 C589 1.391 . S
C585 H557 0.929 . S
C585 C586 1.390 . S
C585 N588 1.391 . S
C586 H558 0.930 . S
C586 C585 1.390 . S
C586 C587 1.392 . S
C587 H559 0.929 . S
C587 C584 1.391 . S
C587 C586 1.392 . S
N588 Co532 2.257 . S
N588 C585 1.391 . S
N588 C589 1.388 . S
C589 H560 0.930 . S
C589 C584 1.391 . S
C589 N588 1.388 . S
Co590 O592 2.143 . S
Co590 O598 2.074 . S
Co590 O601 2.093 . S
Co590 O614 2.097 . S
Co590 N631 2.151 . S
Co590 N639 2.214 . S
Co591 O592 2.160 . S
Co591 O597 2.058 . S
Co591 O607 2.057 1_565 S
Co591 O622 2.037 . S
Co591 N626 2.145 1_565 S
Co591 N647 2.257 1_565 S
O592 Co590 2.143 . S
O592 Co591 2.160 . S
C593 O594 1.278 . S
C593 O601 1.224 . S
O594 C593 1.278 . S
C595 O596 1.245 . S
C595 O607 1.232 1_565 S
O596 C595 1.245 . S
O597 Co591 2.058 . S
O597 C623 1.269 . S
O598 Co590 2.074 . S
O598 C623 1.257 . S
H599 C624 0.930 . S
H600 C630 0.930 . S
O601 Co590 2.093 . S
O601 C593 1.224 . S
H602 C634 0.929 . S
H603 C636 0.930 . S
H604 C637 0.930 . S
H605 C635 0.929 . S
H606 C638 0.928 . S
O607 Co591 2.057 1_545 S
O607 C595 1.232 1_545 S
H608 C627 0.929 . S
H609 C628 0.929 . S
H610 C640 0.931 . S
H611 C632 0.929 . S
H612 C641 0.930 . S
H613 C633 0.931 . S
O614 Co590 2.097 . S
O614 C642 1.214 . S
H615 C643 0.929 . S
H616 C644 0.929 . S
H617 C645 0.930 . S
H618 C646 0.929 . S
H619 C648 0.930 . S
H620 C625 0.930 . S
H621 C629 0.930 . S
O622 Co591 2.037 . S
O622 C642 1.234 . S
C623 O597 1.269 . S
C623 O598 1.257 . S
C624 H599 0.930 . S
C624 C627 1.388 . S
C624 C629 1.418 . S
C625 H620 0.930 . S
C625 C628 1.404 . S
C625 C629 1.353 . S
N626 Co591 2.145 1_545 S
N626 C627 1.397 . S
N626 C628 1.334 . S
C627 H608 0.929 . S
C627 C624 1.388 . S
C627 N626 1.397 . S
C628 H609 0.929 . S
C628 C625 1.404 . S
C628 N626 1.334 . S
C629 H621 0.930 . S
C629 C624 1.418 . S
C629 C625 1.353 . S
C630 H600 0.930 . S
C630 N631 1.330 . S
C630 C632 1.446 . S
N631 Co590 2.151 . S
N631 C630 1.330 . S
N631 C635 1.418 . S
C632 H611 0.929 . S
C632 C630 1.446 . S
C632 C633 1.332 . S
C633 H613 0.931 . S
C633 C632 1.332 . S
C633 C634 1.267 . S
C634 H602 0.929 . S
C634 C633 1.267 . S
C634 C635 1.251 . S
C635 H605 0.929 . S
C635 N631 1.418 . S
C635 C634 1.251 . S
C636 H603 0.930 . S
C636 C638 1.406 . S
C636 C641 1.261 . S
C637 H604 0.930 . S
C637 N639 1.325 . S
C637 C640 1.357 . S
C638 H606 0.928 . S
C638 C636 1.406 . S
C638 N639 1.261 . S
N639 Co590 2.214 . S
N639 C637 1.325 . S
N639 C638 1.261 . S
C640 H610 0.931 . S
C640 C637 1.357 . S
C640 C641 1.312 . S
C641 H612 0.930 . S
C641 C636 1.261 . S
C641 C640 1.312 . S
C642 O614 1.214 . S
C642 O622 1.234 . S
C643 H615 0.929 . S
C643 C646 1.391 . S
C643 C648 1.391 . S
C644 H616 0.929 . S
C644 C645 1.390 . S
C644 N647 1.391 . S
C645 H617 0.930 . S
C645 C644 1.390 . S
C645 C646 1.392 . S
C646 H618 0.929 . S
C646 C643 1.391 . S
C646 C645 1.392 . S
N647 Co591 2.257 1_545 S
N647 C644 1.391 . S
N647 C648 1.388 . S
C648 H619 0.930 . S
C648 C643 1.391 . S
C648 N647 1.388 . S
Co649 O651 2.143 . S
Co649 O657 2.074 . S
Co649 O660 2.093 . S
Co649 O673 2.097 . S
Co649 N690 2.151 . S
Co649 N698 2.214 . S
Co650 O651 2.160 . S
Co650 O656 2.058 . S
Co650 O666 2.057 1_455 S
Co650 O681 2.037 . S
Co650 N685 2.145 1_455 S
Co650 N706 2.257 1_455 S
O651 Co649 2.143 . S
O651 Co650 2.160 . S
C652 O653 1.278 . S
C652 O660 1.224 . S
O653 C652 1.278 . S
C654 O655 1.245 . S
C654 O666 1.232 1_455 S
O655 C654 1.245 . S
O656 Co650 2.058 . S
O656 C682 1.269 . S
O657 Co649 2.074 . S
O657 C682 1.257 . S
H658 C683 0.930 . S
H659 C689 0.930 . S
O660 Co649 2.093 . S
O660 C652 1.224 . S
H661 C693 0.929 . S
H662 C695 0.930 . S
H663 C696 0.930 . S
H664 C694 0.929 . S
H665 C697 0.928 . S
O666 Co650 2.057 1_655 S
O666 C654 1.232 1_655 S
H667 C686 0.929 . S
H668 C687 0.929 . S
H669 C699 0.931 . S
H670 C691 0.929 . S
H671 C700 0.930 . S
H672 C692 0.931 . S
O673 Co649 2.097 . S
O673 C701 1.214 . S
H674 C702 0.929 . S
H675 C703 0.929 . S
H676 C704 0.930 . S
H677 C705 0.929 . S
H678 C707 0.930 . S
H679 C684 0.930 . S
H680 C688 0.930 . S
O681 Co650 2.037 . S
O681 C701 1.234 . S
C682 O656 1.269 . S
C682 O657 1.257 . S
C683 H658 0.930 . S
C683 C686 1.388 . S
C683 C688 1.418 . S
C684 H679 0.930 . S
C684 C687 1.404 . S
C684 C688 1.353 . S
N685 Co650 2.145 1_655 S
N685 C686 1.397 . S
N685 C687 1.334 . S
C686 H667 0.929 . S
C686 C683 1.388 . S
C686 N685 1.397 . S
C687 H668 0.929 . S
C687 C684 1.404 . S
C687 N685 1.334 . S
C688 H680 0.930 . S
C688 C683 1.418 . S
C688 C684 1.353 . S
C689 H659 0.930 . S
C689 N690 1.330 . S
C689 C691 1.446 . S
N690 Co649 2.151 . S
N690 C689 1.330 . S
N690 C694 1.418 . S
C691 H670 0.929 . S
C691 C689 1.446 . S
C691 C692 1.332 . S
C692 H672 0.931 . S
C692 C691 1.332 . S
C692 C693 1.267 . S
C693 H661 0.929 . S
C693 C692 1.267 . S
C693 C694 1.251 . S
C694 H664 0.929 . S
C694 N690 1.418 . S
C694 C693 1.251 . S
C695 H662 0.930 . S
C695 C697 1.406 1_565 S
C695 C700 1.261 . S
C696 H663 0.930 . S
C696 N698 1.325 1_565 S
C696 C699 1.357 . S
C697 H665 0.928 . S
C697 C695 1.406 1_545 S
C697 N698 1.261 . S
N698 Co649 2.214 . S
N698 C696 1.325 1_545 S
N698 C697 1.261 . S
C699 H669 0.931 . S
C699 C696 1.357 . S
C699 C700 1.312 . S
C700 H671 0.930 . S
C700 C695 1.261 . S
C700 C699 1.312 . S
C701 O673 1.214 . S
C701 O681 1.234 . S
C702 H674 0.929 . S
C702 C705 1.391 . S
C702 C707 1.391 . S
C703 H675 0.929 . S
C703 C704 1.390 . S
C703 N706 1.391 . S
C704 H676 0.930 . S
C704 C703 1.390 . S
C704 C705 1.392 . S
C705 H677 0.929 . S
C705 C702 1.391 . S
C705 C704 1.392 . S
N706 Co650 2.257 1_655 S
N706 C703 1.391 . S
N706 C707 1.388 . S
C707 H678 0.930 . S
C707 C702 1.391 . S
C707 N706 1.388 . S
Co708 O710 2.143 . S
Co708 O716 2.074 . S
Co708 O719 2.093 . S
Co708 O732 2.097 . S
Co708 N749 2.151 . S
Co708 N757 2.214 . S
Co709 O710 2.160 . S
Co709 O715 2.058 . S
Co709 O725 2.057 1_565 S
Co709 O740 2.037 . S
Co709 N744 2.145 1_565 S
Co709 N765 2.257 1_565 S
O710 Co708 2.143 . S
O710 Co709 2.160 . S
C711 O712 1.278 . S
C711 O719 1.224 . S
O712 C711 1.278 . S
C713 O714 1.245 . S
C713 O725 1.232 1_565 S
O714 C713 1.245 . S
O715 Co709 2.058 . S
O715 C741 1.269 . S
O716 Co708 2.074 . S
O716 C741 1.257 . S
H717 C742 0.930 . S
H718 C748 0.930 . S
O719 Co708 2.093 . S
O719 C711 1.224 . S
H720 C752 0.929 . S
H721 C754 0.930 . S
H722 C755 0.930 . S
H723 C753 0.929 . S
H724 C756 0.928 . S
O725 Co709 2.057 1_545 S
O725 C713 1.232 1_545 S
H726 C745 0.929 . S
H727 C746 0.929 . S
H728 C758 0.931 . S
H729 C750 0.929 . S
H730 C759 0.930 . S
H731 C751 0.931 . S
O732 Co708 2.097 . S
O732 C760 1.214 . S
H733 C761 0.929 . S
H734 C762 0.929 . S
H735 C763 0.930 . S
H736 C764 0.929 . S
H737 C766 0.930 . S
H738 C743 0.930 . S
H739 C747 0.930 . S
O740 Co709 2.037 . S
O740 C760 1.234 . S
C741 O715 1.269 . S
C741 O716 1.257 . S
C742 H717 0.930 . S
C742 C745 1.388 . S
C742 C747 1.418 . S
C743 H738 0.930 . S
C743 C746 1.404 . S
C743 C747 1.353 . S
N744 Co709 2.145 1_545 S
N744 C745 1.397 . S
N744 C746 1.334 . S
C745 H726 0.929 . S
C745 C742 1.388 . S
C745 N744 1.397 . S
C746 H727 0.929 . S
C746 C743 1.404 . S
C746 N744 1.334 . S
C747 H739 0.930 . S
C747 C742 1.418 . S
C747 C743 1.353 . S
C748 H718 0.930 . S
C748 N749 1.330 . S
C748 C750 1.446 . S
N749 Co708 2.151 . S
N749 C748 1.330 . S
N749 C753 1.418 . S
C750 H729 0.929 . S
C750 C748 1.446 . S
C750 C751 1.332 . S
C751 H731 0.931 . S
C751 C750 1.332 . S
C751 C752 1.267 . S
C752 H720 0.929 . S
C752 C751 1.267 . S
C752 C753 1.251 . S
C753 H723 0.929 . S
C753 N749 1.418 . S
C753 C752 1.251 . S
C754 H721 0.930 . S
C754 C756 1.406 1_455 S
C754 C759 1.261 . S
C755 H722 0.930 . S
C755 N757 1.325 1_455 S
C755 C758 1.357 . S
C756 H724 0.928 . S
C756 C754 1.406 1_655 S
C756 N757 1.261 . S
N757 Co708 2.214 . S
N757 C755 1.325 1_655 S
N757 C756 1.261 . S
C758 H728 0.931 . S
C758 C755 1.357 . S
C758 C759 1.312 . S
C759 H730 0.930 . S
C759 C754 1.261 . S
C759 C758 1.312 . S
C760 O732 1.214 . S
C760 O740 1.234 . S
C761 H733 0.929 . S
C761 C764 1.391 . S
C761 C766 1.391 . S
C762 H734 0.929 . S
C762 C763 1.390 . S
C762 N765 1.391 . S
C763 H735 0.930 . S
C763 C762 1.390 . S
C763 C764 1.392 . S
C764 H736 0.929 . S
C764 C761 1.391 . S
C764 C763 1.392 . S
N765 Co709 2.257 1_545 S
N765 C762 1.391 . S
N765 C766 1.388 . S
C766 H737 0.930 . S
C766 C761 1.391 . S
C766 N765 1.388 . S
Co767 O769 2.143 . S
Co767 O775 2.074 . S
Co767 O778 2.093 . S
Co767 O791 2.097 . S
Co767 N808 2.151 . S
Co767 N816 2.214 . S
Co768 O769 2.160 . S
Co768 O774 2.058 . S
Co768 O784 2.057 1_455 S
Co768 O799 2.037 . S
Co768 N803 2.145 1_455 S
Co768 N824 2.257 1_455 S
O769 Co767 2.143 . S
O769 Co768 2.160 . S
C770 O771 1.278 . S
C770 O778 1.224 . S
O771 C770 1.278 . S
C772 O773 1.245 . S
C772 O784 1.232 1_455 S
O773 C772 1.245 . S
O774 Co768 2.058 . S
O774 C800 1.269 . S
O775 Co767 2.074 . S
O775 C800 1.257 . S
H776 C801 0.930 . S
H777 C807 0.930 . S
O778 Co767 2.093 . S
O778 C770 1.224 . S
H779 C811 0.929 . S
H780 C813 0.930 . S
H781 C814 0.930 . S
H782 C812 0.929 . S
H783 C815 0.928 . S
O784 Co768 2.057 1_655 S
O784 C772 1.232 1_655 S
H785 C804 0.929 . S
H786 C805 0.929 . S
H787 C817 0.931 . S
H788 C809 0.929 . S
H789 C818 0.930 . S
H790 C810 0.931 . S
O791 Co767 2.097 . S
O791 C819 1.214 . S
H792 C820 0.929 . S
H793 C821 0.929 . S
H794 C822 0.930 . S
H795 C823 0.929 . S
H796 C825 0.930 . S
H797 C802 0.930 . S
H798 C806 0.930 . S
O799 Co768 2.037 . S
O799 C819 1.234 . S
C800 O774 1.269 . S
C800 O775 1.257 . S
C801 H776 0.930 . S
C801 C804 1.388 . S
C801 C806 1.418 . S
C802 H797 0.930 . S
C802 C805 1.404 . S
C802 C806 1.353 . S
N803 Co768 2.145 1_655 S
N803 C804 1.397 . S
N803 C805 1.334 . S
C804 H785 0.929 . S
C804 C801 1.388 . S
C804 N803 1.397 . S
C805 H786 0.929 . S
C805 C802 1.404 . S
C805 N803 1.334 . S
C806 H798 0.930 . S
C806 C801 1.418 . S
C806 C802 1.353 . S
C807 H777 0.930 . S
C807 N808 1.330 . S
C807 C809 1.446 . S
N808 Co767 2.151 . S
N808 C807 1.330 . S
N808 C812 1.418 . S
C809 H788 0.929 . S
C809 C807 1.446 . S
C809 C810 1.332 . S
C810 H790 0.931 . S
C810 C809 1.332 . S
C810 C811 1.267 . S
C811 H779 0.929 . S
C811 C810 1.267 . S
C811 C812 1.251 . S
C812 H782 0.929 . S
C812 N808 1.418 . S
C812 C811 1.251 . S
C813 H780 0.930 . S
C813 C815 1.406 . S
C813 C818 1.261 . S
C814 H781 0.930 . S
C814 N816 1.325 . S
C814 C817 1.357 . S
C815 H783 0.928 . S
C815 C813 1.406 . S
C815 N816 1.261 . S
N816 Co767 2.214 . S
N816 C814 1.325 . S
N816 C815 1.261 . S
C817 H787 0.931 . S
C817 C814 1.357 . S
C817 C818 1.312 . S
C818 H789 0.930 . S
C818 C813 1.261 . S
C818 C817 1.312 . S
C819 O791 1.214 . S
C819 O799 1.234 . S
C820 H792 0.929 . S
C820 C823 1.391 . S
C820 C825 1.391 . S
C821 H793 0.929 . S
C821 C822 1.390 . S
C821 N824 1.391 . S
C822 H794 0.930 . S
C822 C821 1.390 . S
C822 C823 1.392 . S
C823 H795 0.929 . S
C823 C820 1.391 . S
C823 C822 1.392 . S
N824 Co768 2.257 1_655 S
N824 C821 1.391 . S
N824 C825 1.388 . S
C825 H796 0.930 . S
C825 C820 1.391 . S
C825 N824 1.388 . S
Co826 O828 2.143 . S
Co826 O834 2.074 . S
Co826 O837 2.093 . S
Co826 O850 2.097 . S
Co826 N867 2.151 . S
Co826 N875 2.214 . S
Co827 O828 2.160 . S
Co827 O833 2.058 . S
Co827 O843 2.057 . S
Co827 O858 2.037 . S
Co827 N862 2.145 . S
Co827 N883 2.257 . S
O828 Co826 2.143 . S
O828 Co827 2.160 . S
C829 O830 1.278 . S
C829 O837 1.224 . S
O830 C829 1.278 . S
C831 O832 1.245 . S
C831 O843 1.232 . S
O832 C831 1.245 . S
O833 Co827 2.058 . S
O833 C859 1.269 . S
O834 Co826 2.074 . S
O834 C859 1.257 . S
H835 C860 0.930 . S
H836 C866 0.930 . S
O837 Co826 2.093 . S
O837 C829 1.224 . S
H838 C870 0.929 1_545 S
H839 C872 0.930 . S
H840 C873 0.930 . S
H841 C871 0.929 . S
H842 C874 0.928 . S
O843 Co827 2.057 . S
O843 C831 1.232 . S
H844 C863 0.934 . S
H845 C864 0.929 . S
H846 C876 0.931 . S
H847 C868 0.929 . S
H848 C877 0.930 . S
H849 C869 0.931 1_545 S
O850 Co826 2.097 . S
O850 C878 1.214 . S
H851 C879 0.929 . S
H852 C880 0.929 . S
H853 C881 0.930 . S
H854 C882 0.929 . S
H855 C884 0.930 . S
H856 C861 0.930 . S
H857 C865 0.930 . S
O858 Co827 2.037 . S
O858 C878 1.234 . S
C859 O833 1.269 . S
C859 O834 1.257 . S
C860 H835 0.930 . S
C860 C863 1.388 . S
C860 C865 1.418 . S
C861 H856 0.930 . S
C861 C864 1.404 1_554 S
C861 C865 1.353 . S
N862 Co827 2.145 . S
N862 C863 1.397 1_556 S
N862 C864 1.334 . S
C863 H844 0.934 . S
C863 C860 1.388 . S
C863 N862 1.397 1_554 S
C864 H845 0.929 . S
C864 C861 1.404 1_556 S
C864 N862 1.334 . S
C865 H857 0.930 . S
C865 C860 1.418 . S
C865 C861 1.353 . S
C866 H836 0.930 . S
C866 N867 1.330 . S
C866 C868 1.446 . S
N867 Co826 2.151 . S
N867 C866 1.330 . S
N867 C871 1.418 . S
C868 H847 0.929 . S
C868 C866 1.446 . S
C868 C869 1.332 . S
C869 H849 0.931 1_565 S
C869 C868 1.332 . S
C869 C870 1.267 . S
C870 H838 0.929 1_565 S
C870 C869 1.267 . S
C870 C871 1.251 . S
C871 H841 0.929 . S
C871 N867 1.418 . S
C871 C870 1.251 . S
C872 H839 0.930 . S
C872 C874 1.406 . S
C872 C877 1.261 . S
C873 H840 0.930 . S
C873 N875 1.325 . S
C873 C876 1.357 . S
C874 H842 0.928 . S
C874 C872 1.406 . S
C874 N875 1.261 . S
N875 Co826 2.214 . S
N875 C873 1.325 . S
N875 C874 1.261 . S
C876 H846 0.931 . S
C876 C873 1.357 . S
C876 C877 1.312 . S
C877 H848 0.930 . S
C877 C872 1.261 . S
C877 C876 1.312 . S
C878 O850 1.214 . S
C878 O858 1.234 . S
C879 H851 0.929 . S
C879 C882 1.391 . S
C879 C884 1.391 . S
C880 H852 0.929 . S
C880 C881 1.390 . S
C880 N883 1.391 . S
C881 H853 0.930 . S
C881 C880 1.390 . S
C881 C882 1.392 . S
C882 H854 0.929 . S
C882 C879 1.391 . S
C882 C881 1.392 . S
N883 Co827 2.257 . S
N883 C880 1.391 . S
N883 C884 1.388 . S
C884 H855 0.930 . S
C884 C879 1.391 . S
C884 N883 1.388 . S
Co885 O887 2.143 . S
Co885 O893 2.074 . S
Co885 O896 2.093 . S
Co885 O909 2.097 . S
Co885 N926 2.151 . S
Co885 N934 2.214 . S
Co886 O887 2.160 . S
Co886 O892 2.058 . S
Co886 O902 2.057 . S
Co886 O917 2.037 . S
Co886 N921 2.145 . S
Co886 N942 2.257 . S
O887 Co885 2.143 . S
O887 Co886 2.160 . S
C888 O889 1.278 . S
C888 O896 1.224 . S
O889 C888 1.278 . S
C890 O891 1.245 . S
C890 O902 1.232 . S
O891 C890 1.245 . S
O892 Co886 2.058 . S
O892 C918 1.269 . S
O893 Co885 2.074 . S
O893 C918 1.257 . S
H894 C919 0.930 . S
H895 C925 0.930 . S
O896 Co885 2.093 . S
O896 C888 1.224 . S
H897 C929 0.929 1_655 S
H898 C931 0.930 . S
H899 C932 0.930 . S
H900 C930 0.929 . S
H901 C933 0.928 . S
O902 Co886 2.057 . S
O902 C890 1.232 . S
H903 C922 0.929 . S
H904 C923 0.929 . S
H905 C935 0.931 . S
H906 C927 0.929 . S
H907 C936 0.930 . S
H908 C928 0.931 1_655 S
O909 Co885 2.097 . S
O909 C937 1.214 . S
H910 C938 0.929 . S
H911 C939 0.929 . S
H912 C940 0.930 . S
H913 C941 0.929 . S
H914 C943 0.930 . S
H915 C920 0.930 . S
H916 C924 0.930 . S
O917 Co886 2.037 . S
O917 C937 1.234 . S
C918 O892 1.269 . S
C918 O893 1.257 . S
C919 H894 0.930 . S
C919 C922 1.388 . S
C919 C924 1.418 . S
C920 H915 0.930 . S
C920 C923 1.404 . S
C920 C924 1.353 . S
N921 Co886 2.145 . S
N921 C922 1.397 . S
N921 C923 1.334 . S
C922 H903 0.929 . S
C922 C919 1.388 . S
C922 N921 1.397 . S
C923 H904 0.929 . S
C923 C920 1.404 . S
C923 N921 1.334 . S
C924 H916 0.930 . S
C924 C919 1.418 . S
C924 C920 1.353 . S
C925 H895 0.930 . S
C925 N926 1.330 . S
C925 C927 1.446 . S
N926 Co885 2.151 . S
N926 C925 1.330 . S
N926 C930 1.418 . S
C927 H906 0.929 . S
C927 C925 1.446 . S
C927 C928 1.332 . S
C928 H908 0.931 1_455 S
C928 C927 1.332 . S
C928 C929 1.267 . S
C929 H897 0.929 1_455 S
C929 C928 1.267 . S
C929 C930 1.251 . S
C930 H900 0.929 . S
C930 N926 1.418 . S
C930 C929 1.251 . S
C931 H898 0.930 . S
C931 C933 1.406 1_565 S
C931 C936 1.261 . S
C932 H899 0.930 . S
C932 N934 1.325 1_565 S
C932 C935 1.357 . S
C933 H901 0.928 . S
C933 C931 1.406 1_545 S
C933 N934 1.261 . S
N934 Co885 2.214 . S
N934 C932 1.325 1_545 S
N934 C933 1.261 . S
C935 H905 0.931 . S
C935 C932 1.357 . S
C935 C936 1.312 . S
C936 H907 0.930 . S
C936 C931 1.261 . S
C936 C935 1.312 . S
C937 O909 1.214 . S
C937 O917 1.234 . S
C938 H910 0.929 . S
C938 C941 1.391 . S
C938 C943 1.391 . S
C939 H911 0.929 . S
C939 C940 1.390 . S
C939 N942 1.391 . S
C940 H912 0.930 . S
C940 C939 1.390 . S
C940 C941 1.392 . S
C941 H913 0.929 . S
C941 C938 1.391 . S
C941 C940 1.392 . S
N942 Co886 2.257 . S
N942 C939 1.391 . S
N942 C943 1.388 . S
C943 H914 0.930 . S
C943 C938 1.391 . S
C943 N942 1.388 . S
C595 C5 1.565 1_665 S
C64 C654 1.565 1_655 S
C477 C123 1.566 . S
C536 C182 1.565 1_545 S
C241 C831 1.565 1_455 S
C890 C300 1.566 . S
C359 C713 1.565 1_545 S
C772 C418 1.565 1_445 S
C642 C52 1.863 1_565 S
C111 C701 1.862 1_665 S
C170 C524 1.863 1_455 S
C229 C583 1.863 . S
C288 C878 1.863 . S
C347 C937 1.863 1_565 S
C760 C406 1.862 1_665 S
C819 C465 1.863 1_455 S
C3 C357 1.665 . S
C62 C416 1.665 . S
C121 C239 1.665 . S
C180 C298 1.665 . S
C475 C829 1.665 . S
C888 C534 1.665 . S
C593 C711 1.665 . S
C770 C652 1.665 . S
C33 C918 1.314 . S
C741 C92 1.314 . S
C800 C151 1.314 . S
C859 C210 1.315 1_556 S
C564 C269 1.314 1_554 S
C623 C328 1.314 . S
C387 C682 1.315 . S
C446 C505 1.314 . S
