# Generated by pormake.
# Topology uof, (4)-cn, num edge types: 1
# Building blocks:
#     Node 0, Type 0, BuildingBlock: ICAMEG_clean_sbu_1, # of connection points: 4
#     Node 1, Type 0, BuildingBlock: ICAMEG_clean_sbu_1, # of connection points: 4
#     Node 2, Type 0, BuildingBlock: ICAMEG_clean_sbu_1, # of connection points: 4
#     Node 3, Type 0, BuildingBlock: ICAMEG_clean_sbu_1, # of connection points: 4
#     Node 4, Type 0, BuildingBlock: ICAMEG_clean_sbu_1, # of connection points: 4
#     Node 5, Type 0, BuildingBlock: ICAMEG_clean_sbu_1, # of connection points: 4
#     Node 6, Type 0, BuildingBlock: ICAMEG_clean_sbu_1, # of connection points: 4
#     Node 7, Type 0, BuildingBlock: ICAMEG_clean_sbu_1, # of connection points: 4
#     Node 8, Type 0, BuildingBlock: ICAMEG_clean_sbu_1, # of connection points: 4
#     Node 9, Type 0, BuildingBlock: ICAMEG_clean_sbu_1, # of connection points: 4
#     Node 10, Type 0, BuildingBlock: ICAMEG_clean_sbu_1, # of connection points: 4
#     Node 11, Type 0, BuildingBlock: ICAMEG_clean_sbu_1, # of connection points: 4
#     Edge 12, Type (0, 0), BuildingBlock: ZUJKAS_clean_linker_0, # of connection points: 2
#     Edge 13, Type (0, 0), BuildingBlock: ZUJKAS_clean_linker_0, # of connection points: 2
#     Edge 14, Type (0, 0), BuildingBlock: ZUJKAS_clean_linker_0, # of connection points: 2
#     Edge 15, Type (0, 0), BuildingBlock: ZUJKAS_clean_linker_0, # of connection points: 2
#     Edge 16, Type (0, 0), BuildingBlock: ZUJKAS_clean_linker_0, # of connection points: 2
#     Edge 17, Type (0, 0), BuildingBlock: ZUJKAS_clean_linker_0, # of connection points: 2
#     Edge 18, Type (0, 0), BuildingBlock: ZUJKAS_clean_linker_0, # of connection points: 2
#     Edge 19, Type (0, 0), BuildingBlock: ZUJKAS_clean_linker_0, # of connection points: 2
#     Edge 20, Type (0, 0), BuildingBlock: ZUJKAS_clean_linker_0, # of connection points: 2
#     Edge 21, Type (0, 0), BuildingBlock: ZUJKAS_clean_linker_0, # of connection points: 2
#     Edge 22, Type (0, 0), BuildingBlock: ZUJKAS_clean_linker_0, # of connection points: 2
#     Edge 23, Type (0, 0), BuildingBlock: ZUJKAS_clean_linker_0, # of connection points: 2
#     Edge 24, Type (0, 0), BuildingBlock: ZUJKAS_clean_linker_0, # of connection points: 2
#     Edge 25, Type (0, 0), BuildingBlock: ZUJKAS_clean_linker_0, # of connection points: 2
#     Edge 26, Type (0, 0), BuildingBlock: ZUJKAS_clean_linker_0, # of connection points: 2
#     Edge 27, Type (0, 0), BuildingBlock: ZUJKAS_clean_linker_0, # of connection points: 2
#     Edge 28, Type (0, 0), BuildingBlock: ZUJKAS_clean_linker_0, # of connection points: 2
#     Edge 29, Type (0, 0), BuildingBlock: ZUJKAS_clean_linker_0, # of connection points: 2
#     Edge 30, Type (0, 0), BuildingBlock: ZUJKAS_clean_linker_0, # of connection points: 2
#     Edge 31, Type (0, 0), BuildingBlock: ZUJKAS_clean_linker_0, # of connection points: 2
#     Edge 32, Type (0, 0), BuildingBlock: ZUJKAS_clean_linker_0, # of connection points: 2
#     Edge 33, Type (0, 0), BuildingBlock: ZUJKAS_clean_linker_0, # of connection points: 2
#     Edge 34, Type (0, 0), BuildingBlock: ZUJKAS_clean_linker_0, # of connection points: 2
#     Edge 35, Type (0, 0), BuildingBlock: ZUJKAS_clean_linker_0, # of connection points: 2
# Relax obj value: 0.220
# Max RMSD: 0.166
# Mean RMSD: 0.166
data_MOF--net-uof--node1-ICAMEG_clean_sbu_1--edge1-ZUJKAS_clean_linker_0
_symmetry_space_group_name_H-M    P1
_symmetry_Int_Tables_number       1
_symmetry_cell_setting            triclinic
loop_
_symmetry_equiv_pos_as_xyz
'x, y, z'
_cell_length_a     42.276838
_cell_length_b     42.290821
_cell_length_c     91.908136
_cell_angle_alpha  89.999521
_cell_angle_beta   89.951889
_cell_angle_gamma 119.96068
loop_
_atom_site_label
_atom_site_type_symbol
_atom_site_fract_x
_atom_site_fract_y
_atom_site_fract_z
_atom_type_partial_charge
Co0 Co 0.24754 0.32277 0.22501 0.0
Co1 Co 0.22114 0.22735 0.23528 0.0
O2 O 0.24611 0.28345 0.23874 0.0
C3 C 0.32132 0.35971 0.23987 0.0
O4 O 0.31421 0.329 0.24613 0.0
C5 C 0.19233 0.2428 0.26321 0.0
O6 O 0.18164 0.26353 0.25677 0.0
O7 O 0.17764 0.22932 0.2275 0.0
O8 O 0.19851 0.2849 0.217 0.0
H9 H 0.13617 0.10501 0.21391 0.0
H10 H 0.26063 0.34142 0.25644 0.0
O11 O 0.29729 0.36158 0.23209 0.0
H12 H 0.15042 0.34758 0.24407 0.0
H13 H 0.26951 0.4473 0.21097 0.0
H14 H 0.22815 0.32197 0.19405 0.0
H15 H 0.18164 0.3311 0.22543 0.0
H16 H 0.26866 0.40128 0.22772 0.0
O17 O 0.20752 0.22824 0.25609 0.0
H18 H 0.17352 0.17231 0.21427 0.0
H19 H 0.20732 0.16939 0.25746 0.0
H20 H 0.22818 0.36702 0.17696 0.0
H21 H 0.23103 0.35922 0.27529 0.0
H22 H 0.24899 0.43021 0.18541 0.0
H23 H 0.17528 0.36205 0.26919 0.0
O24 O 0.27317 0.31024 0.20983 0.0
H25 H 0.32819 0.26154 0.2685 0.0
H26 H 0.25794 0.18697 0.22653 0.0
H27 H 0.31115 0.18284 0.23556 0.0
H28 H 0.34665 0.22057 0.25654 0.0
H29 H 0.27479 0.26411 0.25941 0.0
H30 H 0.17006 0.10224 0.25771 0.0
H31 H 0.13423 0.06958 0.2358 0.0
O32 O 0.25525 0.27724 0.22897 0.0
C33 C 0.1737 0.25154 0.21917 0.0
C34 C 0.15155 0.11892 0.22355 0.0
C35 C 0.17051 0.11738 0.24814 0.0
N36 N 0.19206 0.17466 0.2359 0.0
C37 C 0.17269 0.15695 0.22379 0.0
C38 C 0.19134 0.15544 0.24798 0.0
C39 C 0.15047 0.09907 0.23583 0.0
C40 C 0.23688 0.34331 0.25361 0.0
N41 N 0.22317 0.33561 0.2398 0.0
C42 C 0.22001 0.35309 0.26437 0.0
C43 C 0.18869 0.35461 0.26095 0.0
C44 C 0.1747 0.34645 0.24686 0.0
C45 C 0.1924 0.33696 0.23637 0.0
C46 C 0.2603 0.41984 0.20717 0.0
C47 C 0.23698 0.34935 0.19781 0.0
C48 C 0.25982 0.39368 0.21659 0.0
N49 N 0.24802 0.35889 0.21188 0.0
C50 C 0.23706 0.37476 0.18809 0.0
C51 C 0.24877 0.41022 0.19283 0.0
C52 C 0.27067 0.2829 0.21603 0.0
C53 C 0.31297 0.24499 0.25929 0.0
C54 C 0.27342 0.2032 0.23572 0.0
C55 C 0.30341 0.20091 0.24073 0.0
C56 C 0.32332 0.22204 0.25257 0.0
N57 N 0.26333 0.22555 0.24243 0.0
C58 C 0.28267 0.24634 0.25407 0.0
Co59 Co 0.92258 0.24142 0.55532 0.0
Co60 Co 0.97854 0.21044 0.56735 0.0
O61 O 0.95287 0.23781 0.57059 0.0
C62 C 0.96955 0.31873 0.56398 0.0
O63 O 0.99741 0.31326 0.56289 0.0
C64 C 0.95091 0.19438 0.59812 0.0
O65 O 0.92159 0.19544 0.59425 0.0
O66 O 0.93131 0.1656 0.56292 0.0
O67 O 0.90702 0.19039 0.54831 0.0
H68 H 0.00741 0.12443 0.54039 0.0
H69 H 0.91192 0.25868 0.58551 0.0
O70 O 0.93724 0.2924 0.5618 0.0
H71 H 0.79261 0.15595 0.57059 0.0
H72 H 0.83525 0.27768 0.53438 0.0
H73 H 0.91019 0.22077 0.52417 0.0
H74 H 0.84483 0.18157 0.55364 0.0
H75 H 0.87237 0.27181 0.55374 0.0
O76 O 0.97429 0.19771 0.58861 0.0
H77 H 0.97639 0.15989 0.54441 0.0
H78 H 0.0347 0.20205 0.58389 0.0
H79 H 0.8732 0.22577 0.50452 0.0
H80 H 0.86026 0.23425 0.60275 0.0
H81 H 0.83539 0.25441 0.50958 0.0
H82 H 0.80012 0.18241 0.59534 0.0
O83 O 0.96511 0.26218 0.54189 0.0
H84 H 0.06225 0.32457 0.59513 0.0
H85 H 0.05138 0.24838 0.55273 0.0
H86 H 0.10923 0.30541 0.55707 0.0
H87 H 0.11501 0.34391 0.57844 0.0
H88 H 1.00462 0.26766 0.59022 0.0
H89 H 0.06618 0.16683 0.58034 0.0
H90 H 0.05268 0.12774 0.55844 0.0
O91 O 0.98488 0.22286 0.54612 0.0
C92 C 0.90909 0.16288 0.55291 0.0
C93 C 0.01353 0.14136 0.54998 0.0
C94 C 0.04646 0.16511 0.57241 0.0
N95 N 1.00359 0.18297 0.56439 0.0
C96 C 0.99605 0.16153 0.55232 0.0
C97 C 0.02841 0.18487 0.57439 0.0
C98 C 0.03891 0.14321 0.56011 0.0
C99 C 0.88573 0.23633 0.58217 0.0
N100 N 0.88141 0.22154 0.5686 0.0
C101 C 0.85663 0.22252 0.59199 0.0
C102 C 0.82291 0.19339 0.58784 0.0
C103 C 0.8187 0.1785 0.57396 0.0
C104 C 0.84842 0.193 0.56443 0.0
C105 C 0.85156 0.26509 0.53205 0.0
C106 C 0.89363 0.23307 0.52647 0.0
C107 C 0.8727 0.26176 0.54296 0.0
N108 N 0.8932 0.24571 0.54011 0.0
C109 C 0.87282 0.23591 0.5153 0.0
C110 C 0.85164 0.25202 0.51814 0.0
C111 C 0.98494 0.24838 0.53875 0.0
C112 C 0.06011 0.30796 0.58582 0.0
C113 C 0.05357 0.26501 0.56202 0.0
C114 C 0.08647 0.29725 0.56445 0.0
C115 C 0.08969 0.31883 0.57644 0.0
N116 N 0.02461 0.25456 0.57125 0.0
C117 C 0.0276 0.27558 0.58303 0.0
Co118 Co 0.69112 0.92502 0.89025 0.0
Co119 Co 0.77903 0.97999 0.90147 0.0
O120 O 0.72625 0.95519 0.90517 0.0
C121 C 0.66308 0.97374 0.89924 0.0
O122 O 0.69657 1.00102 0.89773 0.0
C123 C 0.76846 0.95138 0.93198 0.0
O124 O 0.73845 0.92192 0.92795 0.0
O125 O 0.77563 0.9324 0.89672 0.0
O126 O 0.72526 0.90818 0.88283 0.0
H127 H 0.89197 0.00734 0.87333 0.0
H128 H 0.66533 0.91591 0.92074 0.0
O129 O 0.65618 0.94109 0.89715 0.0
H130 H 0.64503 0.79509 0.90594 0.0
H131 H 0.5656 0.83935 0.87063 0.0
H132 H 0.69687 0.91123 0.85902 0.0
H133 H 0.67141 0.84672 0.88873 0.0
H134 H 0.61026 0.87637 0.88953 0.0
O135 O 0.78824 0.97532 0.9226 0.0
H136 H 0.82577 0.97722 0.87791 0.0
H137 H 0.84475 0.03515 0.91768 0.0
H138 H 0.65321 0.87431 0.83982 0.0
H139 H 0.63838 0.86487 0.93825 0.0
H140 H 0.58704 0.83804 0.84558 0.0
H141 H 0.62821 0.80397 0.93089 0.0
O142 O 0.71274 0.96703 0.87659 0.0
H143 H 0.75203 0.06498 0.93022 0.0
H144 H 0.81388 0.0528 0.88687 0.0
H145 H 0.81593 0.11112 0.89158 0.0
H146 H 0.78496 0.11756 0.91343 0.0
H147 H 0.75004 0.00686 0.92494 0.0
H148 H 0.91119 0.06571 0.91357 0.0
H149 H 0.93522 0.05195 0.89124 0.0
O150 O 0.77201 0.98664 0.88037 0.0
C151 C 0.75506 0.91001 0.88696 0.0
C152 C 0.88185 0.01357 0.88311 0.0
C153 C 0.89263 0.04628 0.9057 0.0
N154 N 0.83133 0.00428 0.89808 0.0
C155 C 0.84435 0.9966 0.88576 0.0
C156 C 0.85496 0.02875 0.908 0.0
C157 C 0.90609 0.03857 0.89316 0.0
C158 C 0.66066 0.88939 0.91742 0.0
N159 N 0.66998 0.88432 0.90374 0.0
C160 C 0.64554 0.86064 0.9274 0.0
C161 C 0.6399 0.82649 0.92328 0.0
C162 C 0.64939 0.82151 0.90928 0.0
C163 C 0.66449 0.8509 0.89961 0.0
C164 C 0.59437 0.85498 0.86799 0.0
C165 C 0.66815 0.89534 0.86163 0.0
C166 C 0.61977 0.87605 0.87864 0.0
N167 N 0.65616 0.8957 0.8754 0.0
C168 C 0.64354 0.87457 0.8507 0.0
C169 C 0.60641 0.85425 0.85394 0.0
C170 C 0.74622 0.98651 0.87317 0.0
C171 C 0.76575 0.06255 0.9207 0.0
C172 C 0.8002 0.05527 0.89637 0.0
C173 C 0.80155 0.08844 0.899 0.0
C174 C 0.78418 0.09203 0.91126 0.0
N175 N 0.78198 0.02642 0.90566 0.0
C176 C 0.7649 0.02976 0.9177 0.0
Co177 Co 0.76888 0.68443 0.22269 0.0
Co178 Co 0.80158 0.77216 0.23419 0.0
O179 O 0.77436 0.71931 0.23789 0.0
C180 C 0.69325 0.65586 0.2333 0.0
O181 O 0.70003 0.6897 0.23346 0.0
C182 C 0.82274 0.76255 0.26431 0.0
O183 O 0.82352 0.73334 0.26004 0.0
O184 O 0.84579 0.76931 0.22889 0.0
O185 O 0.81943 0.71902 0.21496 0.0
H186 H 0.88466 0.88539 0.20574 0.0
H187 H 0.75437 0.6588 0.25319 0.0
O188 O 0.71826 0.64885 0.22974 0.0
H189 H 0.85434 0.63903 0.2369 0.0
H190 H 0.72956 0.55966 0.2023 0.0
H191 H 0.78684 0.69105 0.19127 0.0
H192 H 0.8276 0.66498 0.22019 0.0
H193 H 0.73761 0.6037 0.22156 0.0
O194 O 0.81661 0.78147 0.25517 0.0
H195 H 0.84952 0.81919 0.21035 0.0
H196 H 0.8121 0.83762 0.25064 0.0
H197 H 0.77967 0.64802 0.17171 0.0
H198 H 0.77999 0.63234 0.27023 0.0
H199 H 0.75083 0.58179 0.17718 0.0
H200 H 0.83043 0.62242 0.26211 0.0
O201 O 0.7472 0.70581 0.20957 0.0
H202 H 0.692 0.74561 0.26458 0.0
H203 H 0.76178 0.8059 0.22019 0.0
H204 H 0.70573 0.80775 0.22577 0.0
H205 H 0.67047 0.77758 0.24814 0.0
H206 H 0.74776 0.74368 0.25841 0.0
H207 H 0.84705 0.90405 0.24651 0.0
H208 H 0.8836 0.92836 0.2239 0.0
O209 O 0.78678 0.76508 0.21322 0.0
C210 C 0.84742 0.74886 0.21901 0.0
C211 C 0.86886 0.87515 0.21564 0.0
C212 C 0.8478 0.88562 0.23853 0.0
N213 N 0.82887 0.82447 0.23079 0.0
C214 C 0.84888 0.83765 0.21831 0.0
C215 C 0.8282 0.84795 0.24084 0.0
C216 C 0.86827 0.89924 0.22583 0.0
C217 C 0.7761 0.65425 0.24956 0.0
N218 N 0.78948 0.66342 0.23573 0.0
C219 C 0.79059 0.6394 0.25926 0.0
C220 C 0.81894 0.6339 0.25471 0.0
C221 C 0.83239 0.64326 0.24057 0.0
C222 C 0.81726 0.6581 0.23118 0.0
C223 C 0.74223 0.58846 0.19979 0.0
C224 C 0.77448 0.6623 0.19375 0.0
C225 C 0.74679 0.61351 0.21064 0.0
N226 N 0.76294 0.64993 0.20756 0.0
C227 C 0.77039 0.63805 0.18262 0.0
C228 C 0.75418 0.6009 0.1857 0.0
C229 C 0.76076 0.73924 0.2062 0.0
C230 C 0.70719 0.75895 0.25482 0.0
C231 C 0.74649 0.79246 0.2299 0.0
C232 C 0.71483 0.79374 0.23303 0.0
C233 C 0.69508 0.77684 0.24558 0.0
N234 N 0.75811 0.77469 0.23897 0.0
C235 C 0.73894 0.75815 0.25132 0.0
Co236 Co 0.08219 0.76272 0.55255 0.0
Co237 Co 0.02997 0.79736 0.56501 0.0
O238 O 0.05401 0.76842 0.56821 0.0
C239 C 0.03466 0.68643 0.56236 0.0
O240 O 0.00733 0.69281 0.56174 0.0
C241 C 0.05928 0.81449 0.59549 0.0
O242 O 0.08902 0.81462 0.59129 0.0
O243 O 0.07811 0.84078 0.56033 0.0
O244 O 0.09845 0.81358 0.54502 0.0
H245 H 0.00635 0.88718 0.53822 0.0
H246 H 0.09516 0.74775 0.58273 0.0
O247 O 0.06698 0.71197 0.55952 0.0
H248 H 0.21427 0.84651 0.5654 0.0
H249 H 0.16484 0.72169 0.53055 0.0
H250 H 0.09139 0.78055 0.52111 0.0
H251 H 0.16041 0.82063 0.54932 0.0
H252 H 0.13065 0.7304 0.55042 0.0
O253 O 0.03519 0.81037 0.5862 0.0
H254 H 0.03476 0.84926 0.54217 0.0
H255 H 0.97557 0.8086 0.58161 0.0
H256 H 0.12542 0.77271 0.50094 0.0
H257 H 0.14844 0.77253 0.59913 0.0
H258 H 0.16248 0.74309 0.50561 0.0
H259 H 0.20849 0.82236 0.59049 0.0
O260 O 0.03818 0.74191 0.53994 0.0
H261 H 0.94404 0.6853 0.59346 0.0
H262 H 0.9563 0.76196 0.55102 0.0
H263 H 0.89723 0.70671 0.55595 0.0
H264 H 0.89078 0.66795 0.5773 0.0
H265 H 1.00281 0.74049 0.58802 0.0
H266 H 0.9467 0.84628 0.57812 0.0
H267 H 0.96195 0.88585 0.55627 0.0
O268 O 0.02254 0.78446 0.5438 0.0
C269 C 0.0987 0.84213 0.54987 0.0
C270 C 0.99946 0.87002 0.54778 0.0
C271 C 0.96603 0.84712 0.57018 0.0
N272 N 0.00687 0.82669 0.56211 0.0
C273 C 0.01544 0.84845 0.55007 0.0
C274 C 0.98259 0.82594 0.57213 0.0
C275 C 0.97457 0.86929 0.55792 0.0
C276 C 0.12129 0.76921 0.57887 0.0
N277 N 0.12468 0.7827 0.5651 0.0
C278 C 0.15132 0.78324 0.58821 0.0
C279 C 0.18499 0.81123 0.58336 0.0
C280 C 0.18824 0.82483 0.56929 0.0
C281 C 0.15761 0.81016 0.56026 0.0
C282 C 0.14886 0.73471 0.52838 0.0
C283 C 0.10764 0.76785 0.52324 0.0
C284 C 0.12938 0.73965 0.53958 0.0
N285 N 0.10931 0.75625 0.53694 0.0
C286 C 0.12677 0.76339 0.51177 0.0
C287 C 0.14753 0.74673 0.5144 0.0
C288 C 0.01934 0.75688 0.53692 0.0
C289 C 0.94649 0.702 0.58413 0.0
C290 C 0.95381 0.74519 0.56031 0.0
C291 C 0.92024 0.71397 0.56306 0.0
C292 C 0.91663 0.69226 0.57505 0.0
N293 N 0.98305 0.75452 0.56923 0.0
C294 C 0.97967 0.7334 0.58103 0.0
Co295 Co 0.32673 0.08067 0.88969 0.0
Co296 Co 0.22877 0.01357 0.89606 0.0
O297 O 0.28406 0.03899 0.9009 0.0
C298 C 0.35845 0.03519 0.90012 0.0
O299 O 0.32602 0.00615 0.89885 0.0
C300 C 0.24103 0.04457 0.9267 0.0
O301 O 0.25848 0.07842 0.92202 0.0
O302 O 0.23628 0.06369 0.89239 0.0
O303 O 0.2913 0.09503 0.8812 0.0
H304 H 0.11258 0.99812 0.87538 0.0
H305 H 0.3375 0.07551 0.92119 0.0
O306 O 0.36293 0.06687 0.89756 0.0
H307 H 0.34662 0.19546 0.91438 0.0
H308 H 0.45466 0.18566 0.88289 0.0
H309 H 0.33477 0.10928 0.85973 0.0
H310 H 0.33466 0.15438 0.89348 0.0
H311 H 0.40405 0.13587 0.89656 0.0
O312 O 0.22889 0.01801 0.9178 0.0
H313 H 0.17899 0.02128 0.8763 0.0
H314 H 0.16637 0.9635 0.91558 0.0
H315 H 0.38451 0.15906 0.84569 0.0
H316 H 0.35093 0.11632 0.94231 0.0
H317 H 0.44498 0.19763 0.85728 0.0
H318 H 0.35515 0.1766 0.93899 0.0
O319 O 0.31788 0.04754 0.87275 0.0
H320 H 0.25275 0.92013 0.91979 0.0
H321 H 0.18014 0.9409 0.88307 0.0
H322 H 0.16909 0.87853 0.88716 0.0
H323 H 0.206 0.86794 0.90542 0.0
H324 H 0.26189 0.98168 0.91579 0.0
H325 H 0.1 0.94012 0.91529 0.0
H326 H 0.07265 0.95733 0.89504 0.0
O327 O 0.27898 0.02843 0.89017 0.0
C328 C 0.25882 0.08892 0.88382 0.0
C329 C 0.12417 0.99056 0.8843 0.0
C330 C 0.11713 0.9581 0.90672 0.0
N331 N 0.17651 0.99432 0.8961 0.0
C332 C 0.16169 1.0036 0.88486 0.0
C333 C 0.15479 0.97173 0.90692 0.0
C334 C 0.10179 0.9677 0.89534 0.0
C335 C 0.33991 0.10195 0.91964 0.0
N336 N 0.33553 0.11266 0.90613 0.0
C337 C 0.34728 0.12485 0.93164 0.0
C338 C 0.34961 0.15865 0.92977 0.0
C339 C 0.34477 0.16922 0.91597 0.0
C340 C 0.33777 0.14576 0.90419 0.0
C341 C 0.42841 0.1691 0.87773 0.0
C342 C 0.36094 0.12616 0.86487 0.0
C343 C 0.39968 0.14083 0.88541 0.0
N344 N 0.36641 0.11995 0.87898 0.0
C345 C 0.38902 0.15421 0.85686 0.0
C346 C 0.42296 0.17581 0.86336 0.0
C347 C 0.28729 0.02299 0.87691 0.0
C348 C 0.23671 0.92443 0.91169 0.0
C349 C 0.19626 0.93648 0.89105 0.0
C350 C 0.18997 0.90114 0.89328 0.0
C351 C 0.21052 0.89518 0.90361 0.0
N352 N 0.22174 0.965 0.8991 0.0
C353 C 0.24183 0.9593 0.90933 0.0
Co354 Co 0.68783 0.76703 0.45628 0.0
Co355 Co 0.77539 0.79785 0.44511 0.0
O356 O 0.72263 0.77115 0.4413 0.0
C357 C 0.65783 0.69022 0.44708 0.0
O358 O 0.69118 0.69581 0.44823 0.0
C359 C 0.76694 0.81774 0.4146 0.0
O360 O 0.73818 0.81973 0.41859 0.0
O361 O 0.77316 0.84274 0.44969 0.0
O362 O 0.72306 0.81764 0.46377 0.0
H363 H 0.88862 0.88179 0.47332 0.0
H364 H 0.66269 0.7519 0.42574 0.0
O365 O 0.65169 0.71643 0.44935 0.0
H366 H 0.6452 0.85397 0.44094 0.0
H367 H 0.56316 0.73073 0.47609 0.0
H368 H 0.69415 0.78613 0.48757 0.0
H369 H 0.66996 0.82694 0.45808 0.0
H370 H 0.60729 0.73719 0.4571 0.0
O371 O 0.7852 0.81142 0.424 0.0
H372 H 0.82245 0.84717 0.46859 0.0
H373 H 0.84075 0.80619 0.4292 0.0
H374 H 0.65102 0.78053 0.50686 0.0
H375 H 0.63742 0.77781 0.40828 0.0
H376 H 0.585 0.75264 0.50116 0.0
H377 H 0.62864 0.82931 0.41585 0.0
O378 O 0.70841 0.74523 0.4698 0.0
H379 H 0.74608 0.68519 0.41646 0.0
H380 H 0.8087 0.75844 0.45982 0.0
H381 H 0.8094 0.70144 0.45509 0.0
H382 H 0.778 0.66441 0.43327 0.0
H383 H 0.74552 0.74207 0.42171 0.0
H384 H 0.90717 0.84059 0.43346 0.0
H385 H 0.93152 0.87865 0.45568 0.0
O386 O 0.7678 0.78444 0.46624 0.0
C387 C 0.75304 0.84521 0.45951 0.0
C388 C 0.87836 0.86531 0.46359 0.0
C389 C 0.88876 0.84223 0.44121 0.0
N390 N 0.82767 0.82473 0.44861 0.0
C391 C 0.84088 0.84561 0.46086 0.0
C392 C 0.85111 0.82294 0.43882 0.0
C393 C 0.90241 0.86355 0.45369 0.0
C394 C 0.65864 0.77409 0.42913 0.0
N395 N 0.66777 0.78788 0.4429 0.0
C396 C 0.64446 0.78875 0.41919 0.0
C397 C 0.6396 0.81768 0.42344 0.0
C398 C 0.64893 0.83156 0.43751 0.0
C399 C 0.66309 0.81625 0.44715 0.0
C400 C 0.59187 0.74298 0.4787 0.0
C401 C 0.66549 0.77417 0.48499 0.0
C402 C 0.61696 0.74664 0.468 0.0
N403 N 0.65328 0.76228 0.47121 0.0
C404 C 0.64119 0.77098 0.49596 0.0
C405 C 0.60414 0.7553 0.49276 0.0
C406 C 0.74178 0.75849 0.47323 0.0
C407 C 0.75994 0.70114 0.42599 0.0
C408 C 0.79482 0.74243 0.45032 0.0
C409 C 0.79541 0.71021 0.44769 0.0
C410 C 0.7778 0.68946 0.43544 0.0
N411 N 0.77711 0.75366 0.44103 0.0
C412 C 0.75988 0.73349 0.42898 0.0
Co413 Co 0.92343 0.68463 0.79057 0.0
Co414 Co 0.97394 0.76997 0.77617 0.0
O415 O 0.95089 0.71661 0.77426 0.0
C416 C 0.97174 0.65573 0.78144 0.0
O417 O 0.99829 0.68956 0.77996 0.0
C418 C 0.94472 0.75332 0.74554 0.0
O419 O 0.91642 0.72257 0.74981 0.0
O420 O 0.9256 0.76518 0.78066 0.0
O421 O 0.90574 0.71908 0.79666 0.0
H422 H 0.99793 0.88652 0.80044 0.0
H423 H 0.91157 0.65237 0.76115 0.0
O424 O 0.93995 0.64903 0.78518 0.0
H425 H 0.79093 0.63079 0.77704 0.0
H426 H 0.84327 0.56397 0.81522 0.0
H427 H 0.91326 0.69759 0.82146 0.0
H428 H 0.84452 0.66242 0.79311 0.0
H429 H 0.87684 0.60409 0.79457 0.0
O430 O 0.96786 0.77487 0.75478 0.0
H431 H 0.96995 0.81989 0.79794 0.0
H432 H 0.02693 0.83348 0.75825 0.0
H433 H 0.87979 0.6585 0.84237 0.0
H434 H 0.85859 0.6202 0.74479 0.0
H435 H 0.84448 0.59117 0.83931 0.0
H436 H 0.79776 0.60934 0.75271 0.0
O437 O 0.96723 0.71068 0.80323 0.0
H438 H 0.06129 0.74361 0.7488 0.0
H439 H 0.04746 0.81005 0.79014 0.0
H440 H 0.10701 0.81453 0.78567 0.0
H441 H 0.1143 0.78129 0.76483 0.0
H442 H 1.00195 0.73919 0.75386 0.0
H443 H 0.05532 0.90029 0.76027 0.0
H444 H 0.04096 0.92727 0.7815 0.0
O445 O 0.982 0.76777 0.79745 0.0
C446 C 0.90514 0.74673 0.79129 0.0
C447 C 1.00434 0.8751 0.79111 0.0
C448 C 0.03649 0.88282 0.76856 0.0
N449 N 0.99645 0.82266 0.77789 0.0
C450 C 0.98854 0.83734 0.78963 0.0
C451 C 0.02013 0.84492 0.76743 0.0
C452 C 0.02847 0.89794 0.78048 0.0
C453 C 0.88511 0.64745 0.76471 0.0
N454 N 0.88113 0.65924 0.77805 0.0
C455 C 0.85525 0.62935 0.75538 0.0
C456 C 0.82114 0.62332 0.75982 0.0
C457 C 0.8173 0.6354 0.77346 0.0
C458 C 0.84778 0.65343 0.78249 0.0
C459 C 0.85851 0.59327 0.81668 0.0
C460 C 0.8978 0.66833 0.82003 0.0
C461 C 0.87764 0.61612 0.80504 0.0
N462 N 0.8968 0.65316 0.80679 0.0
C463 C 0.87897 0.64633 0.83191 0.0
C464 C 0.85919 0.60855 0.83019 0.0
C465 C 0.98464 0.74487 0.80558 0.0
C466 C 0.0585 0.75832 0.75789 0.0
C467 C 0.05026 0.79526 0.78111 0.0
C468 C 0.08414 0.79804 0.7786 0.0
C469 C 0.08821 0.77941 0.7669 0.0
N470 N 0.02117 0.77439 0.77226 0.0
C471 C 0.02499 0.7561 0.76076 0.0
Co472 Co 0.24435 0.91986 0.12526 0.0
Co473 Co 0.20541 0.95975 0.10519 0.0
O474 O 0.23842 0.93965 0.1068 0.0
C475 C 0.32119 0.96847 0.1156 0.0
O476 O 0.31219 0.9929 0.1119 0.0
C477 C 0.20348 0.92613 0.07585 0.0
O478 O 0.22068 0.90996 0.08102 0.0
O479 O 0.16363 0.91266 0.11222 0.0
O480 O 0.19159 0.901 0.13045 0.0
H481 H 0.108 0.98546 0.12306 0.0
H482 H 0.26849 0.89977 0.0983 0.0
O483 O 0.29725 0.93781 0.12082 0.0
H484 H 0.1734 0.78324 0.11913 0.0
H485 H 0.291 0.85597 0.15762 0.0
H486 H 0.21978 0.91926 0.15552 0.0
H487 H 0.19126 0.84143 0.13155 0.0
H488 H 0.28273 0.87996 0.13435 0.0
O489 O 0.19371 0.94363 0.08429 0.0
H490 H 0.15011 0.96122 0.12473 0.0
H491 H 0.19019 1.00053 0.08225 0.0
H492 H 0.22707 0.89538 0.179 0.0
H493 H 0.25182 0.84214 0.08559 0.0
H494 H 0.26292 0.86347 0.18015 0.0
H495 H 0.20384 0.78334 0.09599 0.0
O496 O 0.25852 0.96705 0.13505 0.0
H497 H 0.31873 0.04059 0.07602 0.0
H498 H 0.23312 0.03747 0.1132 0.0
H499 H 0.28514 0.09654 0.10573 0.0
H500 H 0.32828 0.09844 0.08692 0.0
H501 H 0.26698 0.98214 0.08404 0.0
H502 H 0.14826 0.02491 0.08009 0.0
H503 H 0.10685 0.01757 0.10061 0.0
O504 O 0.21579 0.97759 0.12568 0.0
C505 C 0.1627 0.89663 0.12415 0.0
C506 C 0.1259 0.98882 0.11404 0.0
C507 C 0.14844 0.0109 0.08992 0.0
N508 N 0.17254 0.97927 0.10359 0.0
C509 C 0.14984 0.97516 0.11492 0.0
C510 C 0.17201 0.99685 0.09118 0.0
C511 C 0.12525 0.00681 0.10144 0.0
C512 C 0.24771 0.87427 0.10292 0.0
N513 N 0.2307 0.87401 0.1156 0.0
C514 C 0.23832 0.84174 0.09566 0.0
C515 C 0.21138 0.80876 0.10149 0.0
C516 C 0.19425 0.80869 0.11446 0.0
C517 C 0.20433 0.84176 0.12141 0.0
C518 C 0.27528 0.86977 0.15726 0.0
C519 C 0.23526 0.90524 0.15592 0.0
C520 C 0.27058 0.8835 0.14412 0.0
N521 N 0.25059 0.90079 0.14357 0.0
C522 C 0.23937 0.89185 0.16925 0.0
C523 C 0.2595 0.87398 0.16989 0.0
C524 C 0.24056 0.98386 0.13497 0.0
C525 C 0.2999 0.04016 0.08411 0.0
C526 C 0.25172 0.03793 0.10501 0.0
C527 C 0.28114 0.07154 0.10082 0.0
C528 C 0.30532 0.07259 0.09026 0.0
N529 N 0.24634 0.00616 0.09885 0.0
C530 C 0.27019 0.00704 0.08859 0.0
Co531 Co 0.32506 0.24641 0.45799 0.0
Co532 Co 0.24011 0.20976 0.4433 0.0
O533 O 0.29342 0.24003 0.44137 0.0
C534 C 0.35439 0.32289 0.44803 0.0
O535 O 0.32068 0.31661 0.44799 0.0
C536 C 0.25853 0.19796 0.41282 0.0
O537 O 0.29125 0.20561 0.41699 0.0
O538 O 0.2456 0.16717 0.44876 0.0
O539 O 0.29022 0.19533 0.4652 0.0
H540 H 0.12407 0.11748 0.46795 0.0
H541 H 0.35875 0.26268 0.42869 0.0
O542 O 0.36084 0.29736 0.45133 0.0
H543 H 0.37787 0.16485 0.44817 0.0
H544 H 0.44545 0.28991 0.48328 0.0
H545 H 0.3118 0.22849 0.48936 0.0
H546 H 0.346 0.18936 0.46276 0.0
H547 H 0.40552 0.28032 0.46221 0.0
O548 O 0.23536 0.19639 0.42208 0.0
H549 H 0.19064 0.15714 0.46548 0.0
H550 H 0.17639 0.1965 0.42489 0.0
H551 H 0.35067 0.2372 0.5107 0.0
H552 H 0.39125 0.23932 0.4138 0.0
H553 H 0.41802 0.26812 0.50773 0.0
H554 H 0.40086 0.18994 0.42352 0.0
O555 O 0.29908 0.26623 0.46948 0.0
H556 H 0.26791 0.32195 0.41453 0.0
H557 H 0.19779 0.24281 0.45559 0.0
H558 H 0.19307 0.29727 0.45003 0.0
H559 H 0.22819 0.33724 0.42933 0.0
H560 H 0.27241 0.26761 0.42065 0.0
H561 H 0.10965 0.15708 0.4269 0.0
H562 H 0.08305 0.11727 0.44857 0.0
O563 O 0.24207 0.22256 0.46444 0.0
C564 C 0.26333 0.16637 0.45988 0.0
C565 C 0.13532 0.13474 0.45846 0.0
C566 C 0.12724 0.15692 0.43541 0.0
N567 N 0.18748 0.17918 0.44506 0.0
C568 C 0.17303 0.1573 0.457 0.0
C569 C 0.16508 0.17909 0.43432 0.0
C570 C 0.11233 0.13461 0.44758 0.0
C571 C 0.36307 0.24137 0.43303 0.0
N572 N 0.35037 0.22732 0.44654 0.0
C573 C 0.38137 0.22817 0.42453 0.0
C574 C 0.38671 0.20043 0.42998 0.0
C575 C 0.37377 0.1863 0.4438 0.0
C576 C 0.35556 0.20016 0.45198 0.0
C577 C 0.41614 0.27633 0.48471 0.0
C578 C 0.34106 0.24176 0.48797 0.0
C579 C 0.3934 0.27089 0.47283 0.0
N580 N 0.35635 0.25358 0.47454 0.0
C581 C 0.36294 0.24671 0.5001 0.0
C582 C 0.40073 0.26409 0.49842 0.0
C583 C 0.26484 0.25036 0.47167 0.0
C584 C 0.25234 0.30466 0.42353 0.0
C585 C 0.21325 0.26006 0.44658 0.0
C586 C 0.21039 0.29085 0.44347 0.0
C587 C 0.2301 0.31326 0.43186 0.0
N588 N 0.2352 0.25181 0.43839 0.0
C589 C 0.25461 0.27368 0.427 0.0
Co590 Co 0.09012 0.32623 0.79367 0.0
Co591 Co 0.04609 0.24498 0.77574 0.0
O592 O 0.06925 0.29857 0.77565 0.0
C593 C 0.0469 0.35863 0.78205 0.0
O594 O 0.02102 0.32553 0.77873 0.0
C595 C 0.07947 0.26959 0.74574 0.0
O596 O 0.09912 0.30352 0.7501 0.0
O597 O 0.09272 0.24922 0.78263 0.0
O598 O 0.10465 0.28972 0.80048 0.0
H599 H 0.01707 0.12415 0.79733 0.0
H600 H 0.11463 0.36626 0.7658 0.0
O601 O 0.07665 0.36377 0.78768 0.0
H602 H 0.22623 0.38038 0.78886 0.0
H603 H 0.16022 0.43981 0.82389 0.0
H604 H 0.08665 0.30544 0.82465 0.0
H605 H 0.16661 0.34583 0.80113 0.0
H606 H 0.13544 0.40524 0.80113 0.0
O607 O 0.06 0.24441 0.75478 0.0
H608 H 0.04427 0.191 0.7969 0.0
H609 H 1.00049 0.18537 0.75476 0.0
H610 H 0.11118 0.33891 0.84765 0.0
H611 H 0.17379 0.4014 0.75319 0.0
H612 H 0.14827 0.4066 0.84736 0.0
H613 H 0.23011 0.40853 0.76472 0.0
O614 O 0.04162 0.29793 0.80314 0.0
H615 H 0.96773 0.27778 0.74518 0.0
H616 H 0.96833 0.20006 0.78502 0.0
H617 H 0.9103 0.19563 0.77763 0.0
H618 H 0.90965 0.2345 0.7575 0.0
H619 H 0.02526 0.28206 0.75316 0.0
H620 H 0.97305 0.11846 0.75471 0.0
H621 H 0.98114 0.08738 0.77613 0.0
O622 O 0.03004 0.24238 0.79646 0.0
C623 C 0.10841 0.26434 0.79458 0.0
C624 C 0.01331 0.13737 0.78794 0.0
C625 C 0.98866 0.13418 0.76401 0.0
N626 N 0.02401 0.19217 0.77583 0.0
C627 C 0.02864 0.17525 0.78763 0.0
C628 C 1.00441 0.17212 0.76408 0.0
C629 C 0.99319 0.11676 0.77603 0.0
C630 C 0.13906 0.36941 0.7709 0.0
N631 N 0.13713 0.35389 0.78414 0.0
C632 C 0.17246 0.38926 0.7637 0.0
C633 C 0.20404 0.39322 0.77017 0.0
C634 C 0.20188 0.37739 0.7837 0.0
C635 C 0.168 0.3577 0.79057 0.0
C636 C 0.14417 0.41032 0.82416 0.0
C637 C 0.10294 0.33487 0.82443 0.0
C638 C 0.13001 0.39059 0.81131 0.0
N639 N 0.10987 0.35333 0.81156 0.0
C640 C 0.11668 0.35369 0.83749 0.0
C641 C 0.13746 0.39167 0.83732 0.0
C642 C 0.02306 0.26335 0.80406 0.0
C643 C 0.9676 0.26049 0.75389 0.0
C644 C 0.96842 0.21721 0.77628 0.0
C645 C 0.93539 0.21449 0.77213 0.0
C646 C 0.93505 0.23628 0.76083 0.0
N647 N 1.00031 0.241 0.76942 0.0
C648 C 1.00014 0.26255 0.75837 0.0
Co649 Co 0.76886 0.08523 0.12801 0.0
Co650 Co 0.80513 0.04001 0.11021 0.0
O651 O 0.77568 0.06426 0.11002 0.0
C652 C 0.69343 0.04318 0.1162 0.0
O653 O 0.70011 0.01678 0.11313 0.0
C654 C 0.81568 0.0743 0.0803 0.0
O655 O 0.80161 0.09422 0.0846 0.0
O656 O 0.84788 0.08592 0.1174 0.0
O657 O 0.81938 0.09856 0.13508 0.0
H658 H 0.89424 0.00765 0.13213 0.0
H659 H 0.75488 0.11083 0.10009 0.0
O660 O 0.71832 0.07287 0.12175 0.0
H661 H 0.85311 0.221 0.12361 0.0
H662 H 0.72645 0.15673 0.15801 0.0
H663 H 0.78481 0.0808 0.15908 0.0
H664 H 0.82663 0.16109 0.13574 0.0
H665 H 0.73638 0.13179 0.1353 0.0
O666 O 0.8206 0.0543 0.08935 0.0
H667 H 0.85579 0.03624 0.13159 0.0
H668 H 0.81859 0.99402 0.08919 0.0
H669 H 0.77572 0.10547 0.18204 0.0
H670 H 0.78032 0.1703 0.08762 0.0
H671 H 0.74634 0.14373 0.18159 0.0
H672 H 0.82988 0.22589 0.09939 0.0
O673 O 0.74754 0.03657 0.13739 0.0
H674 H 0.69451 0.96449 0.07901 0.0
H675 H 0.77039 0.96189 0.11917 0.0
H676 H 0.71628 0.90477 0.11142 0.0
H677 H 0.67799 0.90574 0.09113 0.0
H678 H 0.74826 0.02109 0.08734 0.0
H679 H 0.85687 0.96522 0.08925 0.0
H680 H 0.89496 0.97182 0.11085 0.0
O681 O 0.79064 0.02351 0.13083 0.0
C682 C 0.84842 0.10159 0.12936 0.0
C683 C 0.87773 0.00454 0.12266 0.0
C684 C 0.8568 0.98077 0.09858 0.0
N685 N 0.83488 0.01682 0.11039 0.0
C686 C 0.85584 0.02064 0.12229 0.0
C687 C 0.83527 0.99728 0.0986 0.0
C688 C 0.87815 0.98446 0.11071 0.0
C689 C 0.77633 0.13495 0.10529 0.0
N690 N 0.78934 0.13246 0.11858 0.0
C691 C 0.79068 0.16852 0.09818 0.0
C692 C 0.81851 0.19969 0.10478 0.0
C693 C 0.83159 0.19696 0.11836 0.0
C694 C 0.8166 0.16292 0.12514 0.0
C695 C 0.73936 0.14016 0.15834 0.0
C696 C 0.77221 0.09762 0.15879 0.0
C697 C 0.74499 0.12591 0.14553 0.0
N698 N 0.76145 0.10513 0.14586 0.0
C699 C 0.76705 0.11143 0.17183 0.0
C700 C 0.75053 0.13287 0.17157 0.0
C701 C 0.76281 0.0173 0.13836 0.0
C702 C 0.71114 0.96366 0.08779 0.0
C703 C 0.75389 0.96267 0.11036 0.0
C704 C 0.72328 0.93016 0.106 0.0
C705 C 0.70183 0.93072 0.09462 0.0
N706 N 0.76296 0.99494 0.10359 0.0
C707 C 0.74191 0.99566 0.09247 0.0
H708 H 0.85797 0.12925 0.15698 0.0
H709 H 0.91288 0.15547 0.17185 0.0
H710 H 0.97286 0.14378 0.1363 0.0
H711 H 0.91735 0.116 0.12143 0.0
H712 H 0.98891 0.12217 0.16064 0.0
H713 H 0.99924 0.25543 0.17165 0.0
H714 H 0.95592 0.21841 0.17731 0.0
H715 H 0.96817 0.22407 0.15831 0.0
C716 C 0.88285 0.13253 0.15219 0.0
C717 C 0.88307 0.12061 0.13789 0.0
C718 C 0.91447 0.14786 0.16075 0.0
C719 C 0.94747 0.15245 0.15518 0.0
C720 C 0.9479 0.1408 0.14087 0.0
H721 H 0.1577 0.2862 0.19758 0.0
H722 H 0.10364 0.26149 0.18223 0.0
C723 C 0.9161 0.12505 0.13233 0.0
C724 C 0.98099 0.16796 0.1645 0.0
H725 H 0.03525 0.23965 0.18678 0.0
C726 C 0.99916 0.148 0.16627 0.0
C727 C 0.99493 0.20195 0.17174 0.0
C728 C 0.97878 0.22637 0.16954 0.0
C729 C 0.03027 0.16066 0.17519 0.0
C730 C 0.0431 0.19377 0.183 0.0
C731 C 0.02527 0.214 0.18104 0.0
C732 C 0.07577 0.20871 0.19279 0.0
C733 C 0.04954 0.13877 0.1758 0.0
C734 C 0.07821 0.18776 0.20418 0.0
C735 C 0.10956 0.20173 0.21294 0.0
C736 C 0.13902 0.23733 0.21072 0.0
C737 C 0.13582 0.25868 0.19967 0.0
C738 C 0.10473 0.24454 0.19083 0.0
H739 H 0.0434 0.12106 0.16607 0.0
H740 H 0.07959 0.15681 0.17657 0.0
H741 H 0.04005 0.1208 0.18552 0.0
H742 H 0.05589 0.16049 0.2063 0.0
H743 H 0.11077 0.18449 0.22137 0.0
H744 H 0.91631 0.10169 0.5545 0.0
H745 H 0.88876 0.0484 0.53847 0.0
H746 H 0.82659 0.09046 0.51716 0.0
H747 H 0.85491 0.14436 0.53272 0.0
H748 H 0.82117 0.99459 0.53309 0.0
H749 H 0.87616 0.07581 0.48273 0.0
H750 H 0.89034 0.09548 0.50059 0.0
H751 H 0.84832 0.08891 0.49289 0.0
C752 C 0.89661 0.09957 0.54647 0.0
C753 C 0.88833 0.12777 0.54482 0.0
C754 C 0.88087 0.06901 0.53727 0.0
C755 C 0.85633 0.06578 0.52627 0.0
C756 C 0.84636 0.0928 0.52519 0.0
H757 H 0.71616 0.86337 0.4793 0.0
H758 H 0.74071 0.91705 0.49496 0.0
C759 C 0.86236 0.12352 0.53425 0.0
C760 C 0.84145 0.03441 0.51586 0.0
H761 H 0.83218 0.01297 0.47962 0.0
C762 C 0.82369 0.99866 0.5214 0.0
C763 C 0.84528 0.0395 0.50057 0.0
C764 C 0.86639 0.07698 0.49383 0.0
C765 C 0.80916 0.96805 0.51214 0.0
C766 C 0.81147 0.97315 0.49684 0.0
C767 C 0.82983 0.0089 0.49131 0.0
C768 C 0.7957 0.9418 0.48642 0.0
C769 C 0.79233 0.93057 0.51891 0.0
C770 C 0.81773 0.93866 0.47569 0.0
C771 C 0.80352 0.90823 0.46643 0.0
C772 C 0.76694 0.88009 0.46774 0.0
C773 C 0.74455 0.88419 0.47804 0.0
C774 C 0.75868 0.91478 0.48716 0.0
H775 H 0.80252 0.93173 0.53015 0.0
H776 H 0.76229 0.91869 0.51953 0.0
H777 H 0.79819 0.91205 0.51235 0.0
H778 H 0.84629 0.95926 0.47475 0.0
H779 H 0.82161 0.90621 0.45862 0.0
H780 H 0.82357 0.91723 0.88698 0.0
H781 H 0.84704 0.88867 0.87033 0.0
H782 H 0.73985 0.82476 0.85157 0.0
H783 H 0.71656 0.85428 0.86769 0.0
H784 H 0.8338 0.82194 0.86531 0.0
H785 H 0.79759 0.87027 0.81553 0.0
H786 H 0.79453 0.88599 0.83342 0.0
H787 H 0.75845 0.84301 0.8267 0.0
C788 C 0.80488 0.89698 0.87937 0.0
C789 C 0.76823 0.88858 0.87858 0.0
C790 C 0.8184 0.88065 0.86981 0.0
C791 C 0.79555 0.8553 0.85932 0.0
C792 C 0.75844 0.84518 0.85915 0.0
H793 H 0.85324 0.71176 0.81235 0.0
H794 H 0.82553 0.7375 0.82817 0.0
C795 C 0.74503 0.86184 0.86854 0.0
C796 C 0.81053 0.83959 0.84856 0.0
H797 H 0.81614 0.82601 0.81214 0.0
C798 C 0.83001 0.82297 0.85369 0.0
C799 C 0.8064 0.84152 0.83332 0.0
C800 C 0.78846 0.86151 0.8269 0.0
C801 C 0.84479 0.80773 0.84411 0.0
C802 C 0.83897 0.80794 0.82891 0.0
C803 C 0.82013 0.8252 0.82376 0.0
C804 C 0.85285 0.79105 0.81822 0.0
C805 C 0.86735 0.79245 0.85041 0.0
C806 C 0.87548 0.81159 0.80659 0.0
C807 C 0.89071 0.79656 0.7972 0.0
C808 C 0.88395 0.76072 0.79933 0.0
C809 C 0.85957 0.7396 0.81046 0.0
C810 C 0.84397 0.75446 0.81967 0.0
H811 H 0.87861 0.80445 0.86124 0.0
H812 H 0.84983 0.76254 0.85187 0.0
H813 H 0.8904 0.79762 0.84311 0.0
H814 H 0.88241 0.83973 0.80506 0.0
H815 H 0.90903 0.8136 0.7887 0.0
H816 H 0.90779 0.81782 0.21846 0.0
H817 H 0.95975 0.84111 0.20181 0.0
H818 H 0.91823 0.7331 0.18408 0.0
H819 H 0.86524 0.71006 0.20008 0.0
H820 H 0.0138 0.83016 0.19747 0.0
H821 H 0.93089 0.78699 0.14727 0.0
H822 H 0.9111 0.7843 0.16492 0.0
H823 H 0.91993 0.74886 0.1589 0.0
C824 C 0.90966 0.79895 0.21104 0.0
C825 C 0.88186 0.7621 0.21052 0.0
C826 C 0.9395 0.81235 0.20148 0.0
C827 C 0.94255 0.7892 0.19128 0.0
C828 C 0.91597 0.75195 0.19138 0.0
H829 H 0.14753 0.84952 0.14694 0.0
H830 H 0.0936 0.82221 0.16244 0.0
C831 C 0.88581 0.73867 0.20073 0.0
C832 C 0.97355 0.80397 0.18065 0.0
H833 H 0.99413 0.80629 0.14448 0.0
C834 C 0.00939 0.82504 0.18588 0.0
C835 C 0.96807 0.79817 0.16542 0.0
C836 C 0.9304 0.77871 0.15878 0.0
C837 C 0.03971 0.83979 0.17645 0.0
C838 C 0.03436 0.83213 0.16133 0.0
C839 C 0.99848 0.8117 0.15605 0.0
C840 C 0.06556 0.84554 0.15084 0.0
C841 C 0.07706 0.86433 0.18283 0.0
C842 C 0.06689 0.86554 0.13839 0.0
C843 C 0.09741 0.88029 0.12912 0.0
C844 C 0.12753 0.87578 0.13223 0.0
C845 C 0.12518 0.85405 0.14425 0.0
C846 C 0.09443 0.83875 0.1533 0.0
H847 H 0.07529 0.87693 0.19319 0.0
H848 H 0.09027 0.84792 0.18528 0.0
H849 H 0.09475 0.88649 0.17517 0.0
H850 H 0.04482 0.8708 0.13607 0.0
H851 H 0.098 0.89652 0.11992 0.0
H852 H 0.20503 0.09836 0.45347 0.0
H853 H 0.17946 0.04333 0.46858 0.0
H854 H 0.26353 0.10093 0.50059 0.0
H855 H 0.28993 0.15545 0.48541 0.0
H856 H 0.2522 0.03402 0.49738 0.0
H857 H 0.11817 0.02596 0.50426 0.0
H858 H 0.12933 0.02412 0.48556 0.0
H859 H 0.15674 0.06481 0.49603 0.0
C860 C 0.21833 0.09925 0.46365 0.0
C861 C 0.24949 0.13161 0.46821 0.0
C862 C 0.20339 0.0678 0.47238 0.0
C863 C 0.21892 0.06809 0.48595 0.0
C864 C 0.25077 0.09994 0.49025 0.0
H865 H 0.10522 0.90923 0.5554 0.0
H866 H 0.13626 0.96457 0.54053 0.0
C867 C 0.26587 0.13123 0.4815 0.0
C868 C 0.20216 0.03551 0.49577 0.0
H869 H 0.12305 0.97597 0.51333 0.0
C870 C 0.22396 0.0214 0.50088 0.0
C871 C 0.16549 0.01934 0.50064 0.0
C872 C 0.14116 0.03453 0.49647 0.0
C873 C 0.21012 0.99147 0.51048 0.0
C874 C 0.17303 0.97433 0.51485 0.0
C875 C 0.15136 0.98877 0.50992 0.0
C876 C 0.15601 0.94125 0.5244 0.0
C877 C 0.23575 0.97914 0.5161 0.0
C878 C 0.15674 0.90957 0.5204 0.0
C879 C 0.13942 0.87803 0.52898 0.0
C880 C 0.1203 0.87705 0.5417 0.0
C881 C 0.11982 0.90892 0.54576 0.0
C882 C 0.13743 0.9406 0.53721 0.0
H883 H 0.26462 1.00156 0.51566 0.0
H884 H 0.22912 0.96918 0.52748 0.0
H885 H 0.23337 0.95656 0.50917 0.0
H886 H 0.16996 0.90885 0.51041 0.0
H887 H 0.14022 0.85406 0.52537 0.0
H888 H 0.19461 0.09008 0.88731 0.0
H889 H 0.17136 0.12169 0.87226 0.0
H890 H 0.26935 0.16771 0.84626 0.0
H891 H 0.29332 0.13736 0.8615 0.0
H892 H 0.25032 0.21726 0.85063 0.0
H893 H 0.12746 0.0905 0.83268 0.0
H894 H 0.12958 0.0957 0.85208 0.0
H895 H 0.16382 0.08997 0.84272 0.0
C896 C 0.2114 0.10714 0.87846 0.0
C897 C 0.24584 0.11081 0.87562 0.0
C898 C 0.19785 0.12494 0.86973 0.0
C899 C 0.21807 0.14638 0.8578 0.0
C900 C 0.25297 0.15113 0.85528 0.0
H901 H 0.1218 0.20908 0.78679 0.0
H902 H 0.15047 0.18198 0.80151 0.0
C903 C 0.2667 0.13368 0.86407 0.0
C904 C 0.20311 0.16392 0.84794 0.0
H905 H 0.1299 0.14635 0.82653 0.0
C906 C 0.22403 0.20167 0.84533 0.0
C907 C 0.16913 0.14365 0.8407 0.0
C908 C 0.14637 0.10267 0.84205 0.0
C909 C 0.21174 0.2197 0.83599 0.0
C910 C 0.17697 0.19973 0.82933 0.0
C911 C 0.15636 0.16187 0.83171 0.0
C912 C 0.16122 0.21753 0.82004 0.0
C913 C 0.23664 0.25988 0.83314 0.0
C914 C 0.15757 0.24661 0.82546 0.0
C915 C 0.14164 0.26248 0.817 0.0
C916 C 0.12826 0.2493 0.80293 0.0
C917 C 0.13197 0.22018 0.79749 0.0
C918 C 0.14823 0.2045 0.80595 0.0
H919 H 0.26573 0.26801 0.83491 0.0
H920 H 0.23356 0.26729 0.82185 0.0
H921 H 0.22982 0.27587 0.8408 0.0
H922 H 0.16631 0.25661 0.8364 0.0
H923 H 0.13904 0.28457 0.82168 0.0
H924 H 0.66147 0.58696 0.22225 0.0
H925 H 0.59801 0.53844 0.22478 0.0
H926 H 0.5772 0.60687 0.25346 0.0
H927 H 0.64017 0.65642 0.25012 0.0
H928 H 0.55825 0.49895 0.24536 0.0
H929 H 0.49549 0.57928 0.22648 0.0
H930 H 0.54395 0.59665 0.2255 0.0
H931 H 0.52316 0.59915 0.24229 0.0
C932 C 0.64333 0.59165 0.22909 0.0
C933 C 0.65566 0.62558 0.23589 0.0
C934 C 0.60699 0.56386 0.23054 0.0
C935 C 0.58228 0.56909 0.23903 0.0
C936 C 0.59512 0.60247 0.24639 0.0
H937 H 0.37125 0.37674 0.2617 0.0
H938 H 0.43371 0.42844 0.26269 0.0
C939 C 0.63126 0.63068 0.24461 0.0
C940 C 0.54332 0.53944 0.24015 0.0
H941 H 0.45527 0.52114 0.23664 0.0
C942 C 0.53576 0.50384 0.24338 0.0
C943 C 0.51376 0.54547 0.23736 0.0
C944 C 0.51947 0.58211 0.23256 0.0
C945 C 0.49983 0.47423 0.24375 0.0
C946 C 0.47023 0.48054 0.24157 0.0
C947 C 0.47777 0.5162 0.23848 0.0
C948 C 0.43136 0.45041 0.24167 0.0
C949 C 0.49433 0.43639 0.24583 0.0
C950 C 0.40823 0.44659 0.22999 0.0
C951 C 0.37211 0.41787 0.22969 0.0
C952 C 0.35845 0.39189 0.24094 0.0
C953 C 0.38121 0.39609 0.25279 0.0
C954 C 0.41708 0.42545 0.25328 0.0
H955 H 0.51904 0.43512 0.24266 0.0
H956 H 0.48895 0.4288 0.2575 0.0
H957 H 0.47093 0.41587 0.23933 0.0
H958 H 0.41833 0.46545 0.22091 0.0
H959 H 0.35526 0.41531 0.22039 0.0
H960 H 0.08443 0.66293 0.56355 0.0
H961 H 0.07207 0.6001 0.56587 0.0
H962 H 0.95689 0.56192 0.56961 0.0
H963 H 0.96887 0.62457 0.56719 0.0
H964 H 0.03573 0.5464 0.58805 0.0
H965 H 0.96374 0.50363 0.53495 0.0
H966 H 0.99158 0.55096 0.54004 0.0
H967 H 0.94631 0.52414 0.54733 0.0
C968 C 0.05646 0.64123 0.56496 0.0
C969 C 0.0276 0.64882 0.56506 0.0
C970 C 0.04947 0.60532 0.5663 0.0
C971 C 0.01352 0.57627 0.56767 0.0
C972 C 0.98478 0.58385 0.5683 0.0
H973 H 0.91832 0.34005 0.56656 0.0
H974 H 0.92882 0.40219 0.56878 0.0
C975 C 0.99173 0.61975 0.56698 0.0
C976 C 0.00607 0.53801 0.56806 0.0
H977 H 0.96441 0.45763 0.54926 0.0
C978 C 0.02015 0.52696 0.57958 0.0
C979 C 0.98575 0.5127 0.55699 0.0
C980 C 0.97119 0.52339 0.54405 0.0
C981 C 0.01402 0.4911 0.58042 0.0
C982 C 0.9939 0.46584 0.56929 0.0
C983 C 0.97971 0.47692 0.55782 0.0
C984 C 0.98774 0.42798 0.56909 0.0
C985 C 0.02859 0.48043 0.59336 0.0
C986 C 0.01736 0.42169 0.56858 0.0
C987 C 0.01145 0.38613 0.56737 0.0
C988 C 0.97578 0.35612 0.56649 0.0
C989 C 0.94616 0.36248 0.56722 0.0
C990 C 0.9521 0.39802 0.56847 0.0
H991 H 0.03373 0.49893 0.60275 0.0
H992 H 0.00932 0.45198 0.59682 0.0
H993 H 0.05488 0.48226 0.59036 0.0
H994 H 0.04511 0.44436 0.56871 0.0
H995 H 0.03491 0.3823 0.56675 0.0
H996 H 0.35874 0.97173 0.9054 0.0
H997 H 0.41157 0.96327 0.9077 0.0
H998 H 0.48362 0.07932 0.90345 0.0
H999 H 0.43085 0.08819 0.90123 0.0
H1000 H 0.46518 0.98305 0.88611 0.0
H1001 H 0.52657 0.05242 0.93841 0.0
H1002 H 0.48011 0.03854 0.93341 0.0
H1003 H 0.51738 0.07894 0.9256 0.0
C1004 C 0.38577 0.99559 0.90517 0.0
C1005 C 0.39049 0.03066 0.9031 0.0
C1006 C 0.41597 0.99066 0.90648 0.0
C1007 C 0.45154 0.02065 0.90586 0.0
C1008 C 0.45642 0.05583 0.90421 0.0
H1009 H 0.66627 0.03998 0.90105 0.0
H1010 H 0.6151 0.05141 0.90319 0.0
C1011 C 0.42619 0.06083 0.90288 0.0
C1012 C 0.48329 0.01464 0.90581 0.0
H1013 H 0.56087 0.03316 0.92425 0.0
C1014 C 0.486 0.99385 0.89449 0.0
C1015 C 0.51059 0.02903 0.91668 0.0
C1016 C 0.50854 0.05075 0.9293 0.0
C1017 C 0.51541 0.98733 0.89364 0.0
C1018 C 0.54251 1.00128 0.90461 0.0
C1019 C 0.53999 0.02234 0.91589 0.0
C1020 C 0.5737 0.99436 0.90444 0.0
C1021 C 0.51761 0.96626 0.88079 0.0
C1022 C 0.56755 0.95853 0.90488 0.0
C1023 C 0.59668 0.95187 0.90359 0.0
C1024 C 0.63266 0.98097 0.90198 0.0
C1025 C 0.63891 0.01693 0.90221 0.0
C1026 C 0.60969 0.02354 0.90344 0.0
H1027 H 0.50068 0.96622 0.87154 0.0
H1028 H 0.54622 0.97784 0.87698 0.0
H1029 H 0.50732 0.93749 0.88407 0.0
H1030 H 0.54009 0.93563 0.90598 0.0
H1031 H 0.59088 0.92386 0.9036 0.0
H1032 H 0.58492 0.66805 0.44511 0.0
H1033 H 0.53371 0.60546 0.44335 0.0
H1034 H 0.60909 0.5649 0.44173 0.0
H1035 H 0.66047 0.62727 0.44358 0.0
H1036 H 0.51625 0.54908 0.42207 0.0
H1037 H 0.54229 0.51123 0.47682 0.0
H1038 H 0.56243 0.55804 0.47087 0.0
H1039 H 0.58082 0.53017 0.46471 0.0
C1040 C 0.59067 0.64587 0.44426 0.0
C1041 C 0.62686 0.65272 0.44461 0.0
C1042 C 0.56133 0.6101 0.44325 0.0
C1043 C 0.56756 0.58049 0.44265 0.0
C1044 C 0.60364 0.58731 0.44244 0.0
H1045 H 0.42724 0.34506 0.44672 0.0
H1046 H 0.47843 0.40727 0.4442 0.0
C1047 C 0.633 0.62304 0.44343 0.0
C1048 C 0.53634 0.54245 0.44268 0.0
H1049 H 0.49631 0.46394 0.46273 0.0
C1050 C 0.5118 0.53043 0.43095 0.0
C1051 C 0.53059 0.5182 0.4543 0.0
C1052 C 0.55519 0.53002 0.46747 0.0
C1053 C 0.48202 0.49456 0.43041 0.0
C1054 C 0.47623 0.47032 0.44206 0.0
C1055 C 0.5008 0.48244 0.45378 0.0
C1056 C 0.44477 0.43233 0.44246 0.0
C1057 C 0.45753 0.48275 0.41723 0.0
C1058 C 0.40868 0.42558 0.44226 0.0
C1059 C 0.37925 0.38993 0.44364 0.0
C1060 C 0.38532 0.36033 0.4454 0.0
C1061 C 0.4215 0.36715 0.44539 0.0
C1062 C 0.45085 0.40275 0.44396 0.0
H1063 H 0.47131 0.50052 0.40769 0.0
H1064 H 0.44871 0.45407 0.41425 0.0
H1065 H 0.43281 0.4846 0.41969 0.0
H1066 H 0.40325 0.44797 0.44145 0.0
H1067 H 0.35179 0.38573 0.4437 0.0
H1068 H 0.02233 0.65252 0.76384 0.0
H1069 H 0.03427 0.60172 0.7612 0.0
H1070 H 0.95198 0.54079 0.7936 0.0
H1071 H 0.93827 0.59025 0.79542 0.0
H1072 H 0.05982 0.57299 0.77765 0.0
H1073 H 0.92076 0.46247 0.76506 0.0
H1074 H 0.93211 0.50956 0.76558 0.0
H1075 H 0.92034 0.48281 0.78208 0.0
C1076 C 0.00647 0.628 0.77022 0.0
C1077 C 0.97905 0.62514 0.77968 0.0
C1078 C 0.01334 0.59896 0.76874 0.0
C1079 C 0.99344 0.56673 0.77692 0.0
C1080 C 0.96671 0.56445 0.78667 0.0
H1081 H 0.07492 0.4205 0.79838 0.0
H1082 H 0.06241 0.47073 0.79631 0.0
C1083 C 0.95911 0.59297 0.78782 0.0
C1084 C 1.00182 0.53635 0.77581 0.0
H1085 H 0.96217 0.44349 0.77411 0.0
C1086 C 0.03841 0.54472 0.77666 0.0
C1087 C 0.97423 0.49931 0.77415 0.0
C1088 C 0.93477 0.48811 0.77149 0.0
C1089 C 0.04801 0.51731 0.77637 0.0
C1090 C 0.02016 0.48011 0.77601 0.0
C1091 C 0.98367 0.47181 0.77467 0.0
C1092 C 0.02803 0.4494 0.77721 0.0
C1093 C 0.08806 0.52888 0.77612 0.0
C1094 C 0.01156 0.41941 0.76766 0.0
C1095 C 0.01758 0.38984 0.76921 0.0
C1096 C 0.0408 0.38997 0.78016 0.0
C1097 C 0.05742 0.41995 0.78966 0.0
C1098 C 0.05054 0.44894 0.78838 0.0
H1099 H 0.10442 0.55601 0.77086 0.0
H1100 H 0.09807 0.53138 0.78745 0.0
H1101 H 0.09309 0.50894 0.77019 0.0
H1102 H 0.99392 0.41878 0.75899 0.0
H1103 H 1.00435 0.36705 0.76175 0.0
H1104 H 0.37364 0.01548 0.09659 0.0
H1105 H 0.43657 0.02774 0.09419 0.0
H1106 H 0.4187 0.95437 0.12991 0.0
H1107 H 0.35544 0.94037 0.13168 0.0
H1108 H 0.49254 0.05752 0.11027 0.0
H1109 H 0.4628 0.91604 0.10271 0.0
H1110 H 0.42727 0.92776 0.10248 0.0
H1111 H 0.44334 0.91963 0.11949 0.0
C1112 C 0.38314 1.00173 0.10382 0.0
C1113 C 0.35949 0.97663 0.1142 0.0
C1114 C 0.41914 0.00876 0.10246 0.0
C1115 C 0.43242 0.99129 0.11161 0.0
C1116 C 0.40898 0.96711 0.12229 0.0
H1117 H 0.66126 0.07494 0.13141 0.0
H1118 H 0.5987 0.06298 0.12938 0.0
C1119 C 0.3728 0.95937 0.1234 0.0
C1120 C 0.47104 0.99935 0.1104 0.0
H1121 H 0.52395 0.95919 0.11028 0.0
C1122 C 0.49931 0.03594 0.11008 0.0
C1123 C 0.48028 0.97142 0.10977 0.0
C1124 C 0.45175 0.93158 0.10845 0.0
C1125 C 0.53627 0.04532 0.10964 0.0
C1126 C 0.54552 0.01739 0.11025 0.0
C1127 C 0.51722 0.9808 0.11008 0.0
C1128 C 0.58412 0.02529 0.11131 0.0
C1129 C 0.56478 0.08513 0.10821 0.0
C1130 C 0.59679 0.00701 0.10229 0.0
C1131 C 0.63231 0.01287 0.10382 0.0
C1132 C 0.6562 0.03764 0.11421 0.0
C1133 C 0.64372 0.05617 0.12312 0.0
C1134 C 0.60793 0.04957 0.12186 0.0
H1135 H 0.55367 0.10058 0.10245 0.0
H1136 H 0.57329 0.09723 0.11921 0.0
H1137 H 0.5892 0.08887 0.1022 0.0
H1138 H 0.5791 0.988 0.0941 0.0
H1139 H 0.64115 0.99814 0.09681 0.0
H1140 H 0.19418 0.00585 0.14464 0.0
H1141 H 0.20912 0.06016 0.15877 0.0
H1142 H 0.32011 0.08307 0.16334 0.0
H1143 H 0.30524 0.02804 0.14908 0.0
H1144 H 0.28615 0.09296 0.18936 0.0
H1145 H 0.2724 0.16368 0.14115 0.0
H1146 H 0.23394 0.11876 0.14372 0.0
H1147 H 0.27804 0.12416 0.13974 0.0
C1148 C 0.22174 0.02217 0.14875 0.0
C1149 C 0.24871 0.01299 0.14562 0.0
C1150 C 0.23023 0.05329 0.15675 0.0
C1151 C 0.2659 0.07603 0.1617 0.0
C1152 C 0.29252 0.06594 0.1594 0.0
H1153 H 0.33078 0.27676 0.21223 0.0
H1154 H 0.335 0.22844 0.19895 0.0
C1155 C 0.28396 0.03449 0.15138 0.0
C1156 C 0.27476 0.11047 0.16907 0.0
H1157 H 0.26897 0.18747 0.16447 0.0
C1158 C 0.28325 0.11412 0.18391 0.0
C1159 C 0.27093 0.13788 0.16183 0.0
C1160 C 0.26368 0.13618 0.14569 0.0
C1161 C 0.28575 0.14348 0.19196 0.0
C1162 C 0.27979 0.1698 0.1849 0.0
C1163 C 0.27315 0.16705 0.16988 0.0
C1164 C 0.27784 0.19902 0.19299 0.0
C1165 C 0.29244 0.14487 0.20808 0.0
C1166 C 0.24463 0.19901 0.19362 0.0
C1167 C 0.24239 0.22669 0.20101 0.0
C1168 C 0.27324 0.25454 0.2079 0.0
C1169 C 0.30665 0.25516 0.20703 0.0
C1170 C 0.30897 0.22752 0.1996 0.0
H1171 H 0.29438 0.12105 0.212 0.0
H1172 H 0.31834 0.17005 0.21075 0.0
H1173 H 0.26988 0.1455 0.21397 0.0
H1174 H 0.22041 0.17748 0.18844 0.0
H1175 H 0.21665 0.22639 0.20133 0.0
H1176 H 0.03509 0.31999 0.53538 0.0
H1177 H 0.09314 0.34373 0.52218 0.0
H1178 H 0.05645 0.2368 0.50415 0.0
H1179 H 0.99918 0.2129 0.51762 0.0
H1180 H 0.13494 0.30651 0.52932 0.0
H1181 H 0.11296 0.31055 0.47006 0.0
H1182 H 0.08467 0.31553 0.48361 0.0
H1183 H 0.07743 0.27103 0.47911 0.0
C1184 C 0.03883 0.30209 0.52803 0.0
C1185 C 0.01275 0.26477 0.52733 0.0
C1186 C 0.07201 0.31559 0.5206 0.0
C1187 C 0.07884 0.29206 0.51212 0.0
C1188 C 0.0514 0.25551 0.51044 0.0
H1189 H 0.21002 0.21376 0.49089 0.0
H1190 H 0.1735 0.23672 0.50261 0.0
C1191 C 0.0187 0.24188 0.51809 0.0
C1192 C 0.11618 0.30291 0.50726 0.0
H1193 H 0.16209 0.30017 0.47724 0.0
C1194 C 0.14155 0.30649 0.51791 0.0
C1195 C 0.12458 0.30278 0.4924 0.0
C1196 C 0.0986 0.30009 0.4806 0.0
C1197 C 0.17361 0.30636 0.5141 0.0
C1198 C 0.18034 0.30289 0.49932 0.0
C1199 C 0.15674 0.30285 0.48859 0.0
C1200 C 0.20722 0.29215 0.49498 0.0
C1201 C 0.19875 0.30721 0.52589 0.0
C1202 C 0.23889 0.31615 0.48727 0.0
C1203 C 0.26035 0.30324 0.48089 0.0
C1204 C 0.24963 0.26605 0.48184 0.0
C1205 C 0.21901 0.24262 0.4902 0.0
C1206 C 0.19814 0.25567 0.49684 0.0
H1207 H 0.19441 0.31795 0.53628 0.0
H1208 H 0.19344 0.27906 0.52783 0.0
H1209 H 0.22773 0.32424 0.52252 0.0
H1210 H 0.24594 0.34428 0.48561 0.0
H1211 H 0.28343 0.32158 0.4742 0.0
H1212 H 0.97333 0.28523 0.80938 0.0
H1213 H 0.91242 0.24769 0.82031 0.0
H1214 H 0.93896 0.16402 0.83028 0.0
H1215 H 0.99914 0.20078 0.81925 0.0
H1216 H 0.86856 0.15569 0.80883 0.0
H1217 H 0.88313 0.19655 0.86709 0.0
H1218 H 0.90757 0.22883 0.85267 0.0
H1219 H 0.92164 0.19716 0.85834 0.0
C1220 C 0.96648 0.25935 0.81436 0.0
C1221 C 0.99079 0.24582 0.81355 0.0
C1222 C 0.93172 0.23793 0.82047 0.0
C1223 C 0.92147 0.20324 0.82602 0.0
C1224 C 0.94661 0.19083 0.82605 0.0
H1225 H 0.79547 0.99968 0.85197 0.0
H1226 H 0.82736 0.05549 0.83757 0.0
C1227 C 0.98093 0.21185 0.8198 0.0
C1228 C 0.88365 0.17764 0.83048 0.0
H1229 H 0.83444 0.13722 0.86106 0.0
C1230 C 0.86033 0.15224 0.82017 0.0
C1231 C 0.87319 0.17348 0.84523 0.0
C1232 C 0.8975 0.2005 0.85654 0.0
C1233 C 0.82827 0.12076 0.8245 0.0
C1234 C 0.81969 0.11472 0.83945 0.0
C1235 C 0.8411 0.14199 0.84957 0.0
C1236 C 0.79411 0.07794 0.84511 0.0
C1237 C 0.80521 0.09294 0.81318 0.0
C1238 C 0.7641 0.07161 0.85374 0.0
C1239 C 0.74532 0.03923 0.86174 0.0
C1240 C 0.7571 0.01351 0.86147 0.0
C1241 C 0.78563 0.01894 0.85214 0.0
C1242 C 0.80381 0.05078 0.84393 0.0
H1243 H 0.80819 0.10592 0.80237 0.0
H1244 H 0.81427 0.07253 0.81212 0.0
H1245 H 0.77593 0.07837 0.81635 0.0
H1246 H 0.75664 0.09253 0.85493 0.0
H1247 H 0.72388 0.0359 0.86914 0.0
H1248 H 0.69089 0.96762 0.14267 0.0
H1249 H 0.66648 0.90682 0.15381 0.0
H1250 H 0.77556 0.93349 0.16591 0.0
H1251 H 0.80004 0.99351 0.15457 0.0
H1252 H 0.70941 0.86138 0.14337 0.0
H1253 H 0.69211 0.87982 0.20218 0.0
H1254 H 0.68517 0.9056 0.18807 0.0
H1255 H 0.7306 0.91688 0.19312 0.0
C1256 C 0.70939 0.96081 0.14815 0.0
C1257 C 0.74726 0.9851 0.14788 0.0
C1258 C 0.69548 0.92613 0.15439 0.0
C1259 C 0.71933 0.91598 0.16065 0.0
C1260 C 0.75683 0.9411 0.16118 0.0
H1261 H 0.79499 0.78684 0.18432 0.0
H1262 H 0.7705 0.81911 0.17049 0.0
C1263 C 0.77074 0.97531 0.15475 0.0
C1264 C 0.70665 0.87816 0.16524 0.0
H1265 H 0.70113 0.83007 0.19576 0.0
C1266 C 0.70621 0.85379 0.15478 0.0
C1267 C 0.70248 0.86855 0.18009 0.0
C1268 C 0.70234 0.89391 0.19157 0.0
C1269 C 0.70527 0.82145 0.15896 0.0
C1270 C 0.70482 0.81361 0.17392 0.0
C1271 C 0.70143 0.83615 0.18428 0.0
C1272 C 0.71574 0.78746 0.17916 0.0
C1273 C 0.70746 0.79724 0.14745 0.0
C1274 C 0.69269 0.75819 0.18821 0.0
C1275 C 0.70654 0.73915 0.19588 0.0
C1276 C 0.74373 0.74997 0.19482 0.0
C1277 C 0.7661 0.77771 0.18508 0.0
C1278 C 0.75211 0.79611 0.1772 0.0
H1279 H 0.69636 0.80023 0.13691 0.0
H1280 H 0.73648 0.80516 0.14573 0.0
H1281 H 0.69231 0.76814 0.15083 0.0
H1282 H 0.66472 0.75159 0.19002 0.0
H1283 H 0.68909 0.71839 0.20363 0.0
H1284 H 0.71965 0.68646 0.47529 0.0
H1285 H 0.75379 0.66118 0.48749 0.0
H1286 H 0.82355 0.76571 0.50746 0.0
H1287 H 0.79038 0.79121 0.49496 0.0
H1288 H 0.83234 0.69923 0.48017 0.0
H1289 H 0.80765 0.68824 0.53964 0.0
H1290 H 0.77407 0.6848 0.52657 0.0
H1291 H 0.81129 0.72876 0.53169 0.0
C1292 C 0.74108 0.70342 0.48287 0.0
C1293 C 0.75233 0.74063 0.48434 0.0
C1294 C 0.76068 0.68904 0.48973 0.0
C1295 C 0.79094 0.71152 0.49844 0.0
C1296 C 0.79987 0.74776 0.50099 0.0
H1297 H 1.00129 0.79079 0.51637 0.0
H1298 H 0.94169 0.76612 0.50467 0.0
C1299 C 0.7809 0.76231 0.49389 0.0
C1300 C 0.81766 0.70031 0.50255 0.0
H1301 H 0.86734 0.70046 0.53171 0.0
C1302 C 0.8393 0.69812 0.49144 0.0
C1303 C 0.82661 0.69888 0.51723 0.0
C1304 C 0.80348 0.69996 0.52949 0.0
C1305 C 0.87179 0.69828 0.49467 0.0
C1306 C 0.88252 0.70043 0.50933 0.0
C1307 C 0.85901 0.69885 0.52046 0.0
C1308 C 0.92049 0.7116 0.5133 0.0
C1309 C 0.89573 0.6988 0.48241 0.0
C1310 C 0.92862 0.68866 0.52155 0.0
C1311 C 0.96309 0.70254 0.52793 0.0
C1312 C 0.98921 0.73972 0.52646 0.0
C1313 C 0.98172 0.76194 0.51745 0.0
C1314 C 0.94771 0.74788 0.51082 0.0
H1315 H 0.87983 0.68735 0.47225 0.0
H1316 H 0.91719 0.72744 0.48023 0.0
H1317 H 0.90944 0.68311 0.48536 0.0
H1318 H 0.90771 0.66073 0.52372 0.0
H1319 H 0.96802 0.68514 0.5351 0.0
H1320 H 0.29052 0.9641 0.86784 0.0
H1321 H 0.24358 0.91164 0.85421 0.0
H1322 H 0.17888 0.96455 0.8516 0.0
H1323 H 0.22648 0.01725 0.86479 0.0
H1324 H 0.17677 0.86686 0.86281 0.0
H1325 H 0.16873 0.92784 0.81097 0.0
H1326 H 0.2062 0.95179 0.82348 0.0
H1327 H 0.16426 0.95259 0.82588 0.0
C1328 C 0.26658 0.96464 0.86398 0.0
C1329 C 0.26151 0.99414 0.8673 0.0
C1330 C 0.23982 0.93476 0.85628 0.0
C1331 C 0.20788 0.93428 0.85172 0.0
C1332 C 0.20365 0.96462 0.85464 0.0
H1333 H 0.99262 0.79654 0.82467 0.0
H1334 H 0.04898 0.83805 0.83743 0.0
C1335 C 0.23043 0.99444 0.86234 0.0
C1336 C 0.17741 0.90088 0.84522 0.0
H1337 H 0.11434 0.8718 0.81799 0.0
C1338 C 0.16326 0.86788 0.85297 0.0
C1339 C 0.16046 0.90187 0.83211 0.0
C1340 C 0.17602 0.93537 0.82257 0.0
C1341 C 0.13091 0.83671 0.8486 0.0
C1342 C 0.11277 0.83861 0.83606 0.0
C1343 C 0.12811 0.87079 0.82779 0.0
C1344 C 0.07669 0.80851 0.83164 0.0
C1345 C 0.11532 0.80252 0.85771 0.0
C1346 C 0.07313 0.77714 0.82487 0.0
C1347 C 0.04061 0.75299 0.81774 0.0
C1348 C 0.01178 0.76045 0.81723 0.0
C1349 C 0.01441 0.7901 0.82509 0.0
C1350 C 0.04662 0.81393 0.83226 0.0
H1351 H 0.13115 0.80654 0.86786 0.0
H1352 H 0.08654 0.7935 0.86062 0.0
H1353 H 0.11538 0.78031 0.8513 0.0
H1354 H 0.09629 0.77284 0.82415 0.0
H1355 H 0.0394 0.73074 0.81145 0.0
H1356 H 0.19136 0.17036 0.40026 0.0
H1357 H 0.17746 0.17629 0.37494 0.0
H1358 H 0.29248 0.23323 0.3648 0.0
H1359 H 0.30647 0.22619 0.39 0.0
H1360 H 0.19455 0.23583 0.35991 0.0
H1361 H 0.25466 0.16215 0.33199 0.0
H1362 H 0.24843 0.16032 0.35145 0.0
H1363 H 0.28724 0.19868 0.34315 0.0
C1364 C 0.21368 0.18352 0.39257 0.0
C1365 C 0.25002 0.19751 0.39713 0.0
C1366 C 0.20569 0.18709 0.3781 0.0
C1367 C 0.23383 0.2049 0.36786 0.0
C1368 C 0.27016 0.21854 0.37235 0.0
H1369 H 0.21125 0.29406 0.2847 0.0
H1370 H 0.21955 0.2858 0.31059 0.0
C1371 C 0.27816 0.21454 0.3868 0.0
C1372 C 0.22511 0.21047 0.35268 0.0
H1373 H 0.23814 0.19745 0.31701 0.0
C1374 C 0.20389 0.22721 0.35053 0.0
C1375 C 0.23695 0.19897 0.3404 0.0
C1376 C 0.25775 0.1787 0.34184 0.0
C1377 C 0.19434 0.23288 0.33649 0.0
C1378 C 0.20721 0.22245 0.32421 0.0
C1379 C 0.22838 0.20568 0.32638 0.0
C1380 C 0.1984 0.22748 0.30897 0.0
C1381 C 0.1698 0.2491 0.33503 0.0
C1382 C 0.18362 0.19764 0.29939 0.0
C1383 C 0.17954 0.20252 0.28463 0.0
C1384 C 0.1896 0.23726 0.27912 0.0
C1385 C 0.20255 0.2669 0.28875 0.0
C1386 C 0.2073 0.26213 0.30355 0.0
H1387 H 0.15375 0.24526 0.34511 0.0
H1388 H 0.18679 0.27887 0.33304 0.0
H1389 H 0.15057 0.23673 0.32578 0.0
H1390 H 0.17639 0.17064 0.30324 0.0
H1391 H 0.16961 0.17924 0.27741 0.0
H1392 H 1.00128 0.17945 0.60985 0.0
H1393 H 0.02284 0.18838 0.63496 0.0
H1394 H 0.94576 0.22272 0.64667 0.0
H1395 H 0.92325 0.21273 0.6216 0.0
H1396 H 0.05592 0.2501 0.6497 0.0
H1397 H 0.93018 0.15411 0.67947 0.0
H1398 H 0.93367 0.15319 0.65992 0.0
H1399 H 0.92412 0.18578 0.66852 0.0
C1400 C 0.9884 0.18823 0.61782 0.0
C1401 C 0.96038 0.19519 0.61372 0.0
C1402 C 1.00088 0.19347 0.63219 0.0
C1403 C 0.9858 0.20595 0.64281 0.0
C1404 C 0.9573 0.21225 0.6388 0.0
H1405 H 0.09367 0.31707 0.72309 0.0
H1406 H 0.07292 0.30164 0.69792 0.0
C1407 C 0.94448 0.20659 0.62444 0.0
C1408 C 1.00154 0.21445 0.65777 0.0
H1409 H 0.97976 0.19786 0.69383 0.0
C1410 C 0.03926 0.23844 0.65934 0.0
C1411 C 0.98001 0.199 0.67039 0.0
C1412 C 0.93983 0.1713 0.66951 0.0
C1413 C 0.05591 0.24776 0.67312 0.0
C1414 C 0.03413 0.23349 0.68575 0.0
C1415 C 0.9965 0.20909 0.68418 0.0
C1416 C 0.04961 0.24333 0.70073 0.0
C1417 C 0.09678 0.27225 0.67394 0.0
C1418 C 0.04342 0.21581 0.71078 0.0
C1419 C 0.05491 0.22454 0.72523 0.0
C1420 C 0.07295 0.26106 0.72997 0.0
C1421 C 0.08036 0.28872 0.71977 0.0
C1422 C 0.06851 0.27991 0.70534 0.0
H1423 H 0.11033 0.27132 0.66371 0.0
H1424 H 0.10322 0.30085 0.67559 0.0
H1425 H 0.10853 0.26447 0.68314 0.0
H1426 H 0.02895 0.1874 0.70752 0.0
H1427 H 0.04871 0.20254 0.73279 0.0
H1428 H 0.85249 0.04379 0.06752 0.0
H1429 H 0.8493 0.0251 0.04216 0.0
H1430 H 0.77957 0.06958 0.03223 0.0
H1431 H 0.78358 0.08936 0.05749 0.0
H1432 H 0.79105 0.97669 0.02786 0.0
H1433 H 0.84857 0.1083 0.99858 0.0
H1434 H 0.85253 0.1058 0.01803 0.0
H1435 H 0.81119 0.10056 0.01014 0.0
C1436 C 0.83714 0.05035 0.05987 0.0
C1437 C 0.81846 0.06829 0.06454 0.0
C1438 C 0.83519 0.03947 0.04537 0.0
C1439 C 0.81443 0.04612 0.03519 0.0
C1440 C 0.7965 0.06486 0.03974 0.0
H1441 H 0.7222 0.92237 0.9553 0.0
H1442 H 0.73398 0.94397 0.98049 0.0
C1443 C 0.79877 0.07614 0.05423 0.0
C1444 C 0.80964 0.03129 0.02012 0.0
H1445 H 0.81596 0.05444 0.98419 0.0
C1446 C 0.7968 0.99379 0.01831 0.0
C1447 C 0.81747 0.05353 0.00761 0.0
C1448 C 0.83356 0.09433 0.00866 0.0
C1449 C 0.79109 0.97787 1.00442 0.0
C1450 C 0.79739 0.99983 0.99193 0.0
C1451 C 0.81076 0.03743 0.99373 0.0
C1452 C 0.79065 0.98466 0.97687 0.0
C1453 C 0.77906 0.93782 1.00333 0.0
C1454 C 0.81836 1.00042 0.96633 0.0
C1455 C 0.81152 0.98848 0.95189 0.0
C1456 C 0.77682 0.96031 0.94763 0.0
C1457 C 0.74938 0.94372 0.95826 0.0
C1458 C 0.75613 0.95602 0.9727 0.0
H1459 H 0.78661 0.928 0.01322 0.0
H1460 H 0.7489 0.9219 1.00226 0.0
H1461 H 0.79131 0.93214 0.9937 0.0
H1462 H 0.84521 0.02252 0.96923 0.0
H1463 H 0.83327 1.0019 0.94398 0.0
H1464 H 0.82589 0.82306 0.27637 0.0
H1465 H 0.82005 0.83448 0.30194 0.0
H1466 H 0.81526 0.73346 0.31364 0.0
H1467 H 0.82057 0.72141 0.28789 0.0
H1468 H 0.75975 0.74153 0.32615 0.0
H1469 H 0.89365 0.86619 0.33504 0.0
H1470 H 0.86932 0.86946 0.31965 0.0
H1471 H 0.88461 0.83668 0.31953 0.0
C1472 C 0.82412 0.80341 0.28436 0.0
C1473 C 0.8238 0.7713 0.28003 0.0
C1474 C 0.82095 0.81013 0.29902 0.0
C1475 C 0.81763 0.78507 0.30976 0.0
C1476 C 0.81798 0.75329 0.30555 0.0
H1477 H 0.82634 0.81738 0.40309 0.0
H1478 H 0.838 0.81013 0.37768 0.0
C1479 C 0.82122 0.74653 0.29083 0.0
C1480 C 0.81168 0.79121 0.32522 0.0
H1481 H 0.84832 0.85203 0.35327 0.0
C1482 C 0.7792 0.76559 0.33211 0.0
C1483 C 0.83716 0.8225 0.33303 0.0
C1484 C 0.87331 0.85012 0.3265 0.0
C1485 C 0.77125 0.77067 0.34649 0.0
C1486 C 0.79618 0.80257 0.35414 0.0
C1487 C 0.82895 0.82788 0.34734 0.0
C1488 C 0.78964 0.80922 0.36946 0.0
C1489 C 0.73655 0.74149 0.35347 0.0
C1490 C 0.75902 0.81218 0.37332 0.0
C1491 C 0.75218 0.81636 0.38793 0.0
C1492 C 0.77594 0.81777 0.39895 0.0
C1493 C 0.80731 0.81624 0.39494 0.0
C1494 C 0.81409 0.8121 0.38038 0.0
H1495 H 0.72498 0.71517 0.34751 0.0
H1496 H 0.74139 0.73687 0.36495 0.0
H1497 H 0.71588 0.75035 0.3534 0.0
H1498 H 0.74016 0.8108 0.36504 0.0
H1499 H 0.72781 0.81749 0.39061 0.0
H1500 H 0.99955 0.81339 0.60738 0.0
H1501 H 0.98106 0.80544 0.63279 0.0
H1502 H 0.07974 0.80575 0.64487 0.0
H1503 H 0.09828 0.81294 0.61921 0.0
H1504 H 0.01891 0.74918 0.6574 0.0
H1505 H 0.01733 0.87799 0.66583 0.0
H1506 H 0.99027 0.85251 0.65054 0.0
H1507 H 0.0389 0.87062 0.65027 0.0
C1508 C 0.01771 0.81229 0.6154 0.0
C1509 C 0.05057 0.81397 0.61119 0.0
C1510 C 0.00709 0.8079 0.62999 0.0
C1511 C 0.02919 0.8055 0.6408 0.0
C1512 C 0.06231 0.80772 0.63672 0.0
H1513 H 1.0003 0.81525 0.73353 0.0
H1514 H 0.01939 0.82658 0.7082 0.0
C1515 C 0.07298 0.81204 0.62205 0.0
C1516 C 0.01666 0.79886 0.65622 0.0
H1517 H 0.98711 0.83177 0.68385 0.0
C1518 C 0.01217 0.76736 0.66322 0.0
C1519 C 0.00809 0.82269 0.66387 0.0
C1520 C 0.01423 0.85803 0.6573 0.0
C1521 C 0.99889 0.75877 0.67757 0.0
C1522 C 0.98904 0.78191 0.68502 0.0
C1523 C 0.99406 0.81369 0.67808 0.0
C1524 C 0.97569 0.77494 0.70033 0.0
C1525 C 0.99633 0.72543 0.6847 0.0
C1526 C 0.94406 0.74243 0.70438 0.0
C1527 C 0.93302 0.73569 0.71901 0.0
C1528 C 0.9533 0.76149 0.72982 0.0
C1529 C 0.98406 0.79459 0.72557 0.0
C1530 C 0.99508 0.8012 0.71104 0.0
H1531 H 0.01338 0.71608 0.679 0.0
H1532 H 1.00503 0.73092 0.69626 0.0
H1533 H 0.96757 0.70285 0.68438 0.0
H1534 H 0.9281 0.72211 0.69626 0.0
H1535 H 0.90916 0.70998 0.72186 0.0
H1536 H 0.24908 0.92406 0.05522 0.0
H1537 H 0.25701 0.94624 0.03017 0.0
H1538 H 0.16636 0.96512 0.03547 0.0
H1539 H 0.15941 0.94455 0.06073 0.0
H1540 H 0.2187 0.92708 0.00664 0.0
H1541 H 0.24148 0.06343 0.02163 0.0
H1542 H 0.23903 0.03115 0.03504 0.0
H1543 H 0.19788 0.02806 0.02789 0.0
C1544 C 0.23049 0.93244 0.05099 0.0
C1545 C 0.20371 0.93269 0.05999 0.0
C1546 C 0.23521 0.94538 0.03667 0.0
C1547 C 0.21305 0.95852 0.03101 0.0
C1548 C 0.18475 0.95651 0.03971 0.0
H1549 H 0.18758 0.98313 0.93944 0.0
H1550 H 0.18217 0.96471 0.96477 0.0
C1551 C 0.18043 0.94421 0.0541 0.0
C1552 C 0.2195 0.97414 0.01603 0.0
H1553 H 0.23052 0.0477 0.99638 0.0
C1554 C 0.22153 0.95358 1.00445 0.0
C1555 C 0.22428 0.00921 0.01311 0.0
C1556 C 0.22599 0.03439 0.0251 0.0
C1557 C 0.227 0.96648 0.99006 0.0
C1558 C 0.22903 1.00032 0.98701 0.0
C1559 C 0.22828 0.02149 0.99863 0.0
C1560 C 0.23092 0.01354 0.97182 0.0
C1561 C 0.23118 0.94382 0.97833 0.0
C1562 C 0.25863 0.04841 0.96743 0.0
C1563 C 0.26116 0.05958 0.95287 0.0
C1564 C 0.23631 0.03585 0.94246 0.0
C1565 C 0.20767 1.0018 0.94708 0.0
C1566 C 0.20472 0.99103 0.96159 0.0
H1567 H 0.24184 0.9266 0.98285 0.0
H1568 H 0.20407 0.92524 0.97348 0.0
H1569 H 0.24991 0.9612 0.96957 0.0
H1570 H 0.27888 0.06658 0.97517 0.0
H1571 H 0.28325 0.08612 0.94969 0.0
loop_
_geom_bond_atom_site_label_1
_geom_bond_atom_site_label_2
_geom_bond_distance
_geom_bond_site_symmetry_2
_ccdc_geom_bond_type
Co0 O2 2.143 . S
Co0 O8 2.074 . S
Co0 O11 2.093 . S
Co0 O24 2.097 . S
Co0 N41 2.151 . S
Co0 N49 2.214 . S
Co1 O2 2.160 . S
Co1 O7 2.058 . S
Co1 O17 2.057 . S
Co1 O32 2.037 . S
Co1 N36 2.145 . S
Co1 N57 2.257 . S
O2 Co0 2.143 . S
O2 Co1 2.160 . S
C3 O4 1.278 . S
C3 O11 1.224 . S
O4 C3 1.278 . S
C5 O6 1.245 . S
C5 O17 1.232 . S
O6 C5 1.245 . S
O7 Co1 2.058 . S
O7 C33 1.269 . S
O8 Co0 2.074 . S
O8 C33 1.257 . S
H9 C34 0.930 . S
H10 C40 0.930 . S
O11 Co0 2.093 . S
O11 C3 1.224 . S
H12 C44 0.929 . S
H13 C46 0.930 . S
H14 C47 0.930 . S
H15 C45 0.929 . S
H16 C48 0.928 . S
O17 Co1 2.057 . S
O17 C5 1.232 . S
H18 C37 0.929 . S
H19 C38 0.929 . S
H20 C50 0.931 . S
H21 C42 0.929 . S
H22 C51 0.930 . S
H23 C43 0.931 . S
O24 Co0 2.097 . S
O24 C52 1.214 . S
H25 C53 0.929 . S
H26 C54 0.929 . S
H27 C55 0.930 . S
H28 C56 0.929 . S
H29 C58 0.930 . S
H30 C35 0.930 . S
H31 C39 0.930 . S
O32 Co1 2.037 . S
O32 C52 1.234 . S
C33 O7 1.269 . S
C33 O8 1.257 . S
C34 H9 0.930 . S
C34 C37 1.388 . S
C34 C39 1.418 . S
C35 H30 0.930 . S
C35 C38 1.404 . S
C35 C39 1.353 . S
N36 Co1 2.145 . S
N36 C37 1.397 . S
N36 C38 1.334 . S
C37 H18 0.929 . S
C37 C34 1.388 . S
C37 N36 1.397 . S
C38 H19 0.929 . S
C38 C35 1.404 . S
C38 N36 1.334 . S
C39 H31 0.930 . S
C39 C34 1.418 . S
C39 C35 1.353 . S
C40 H10 0.930 . S
C40 N41 1.330 . S
C40 C42 1.446 . S
N41 Co0 2.151 . S
N41 C40 1.330 . S
N41 C45 1.418 . S
C42 H21 0.929 . S
C42 C40 1.446 . S
C42 C43 1.332 . S
C43 H23 0.931 . S
C43 C42 1.332 . S
C43 C44 1.267 . S
C44 H12 0.929 . S
C44 C43 1.267 . S
C44 C45 1.251 . S
C45 H15 0.929 . S
C45 N41 1.418 . S
C45 C44 1.251 . S
C46 H13 0.930 . S
C46 C48 1.406 . S
C46 C51 1.261 . S
C47 H14 0.930 . S
C47 N49 1.325 . S
C47 C50 1.357 . S
C48 H16 0.928 . S
C48 C46 1.406 . S
C48 N49 1.261 . S
N49 Co0 2.214 . S
N49 C47 1.325 . S
N49 C48 1.261 . S
C50 H20 0.931 . S
C50 C47 1.357 . S
C50 C51 1.312 . S
C51 H22 0.930 . S
C51 C46 1.261 . S
C51 C50 1.312 . S
C52 O24 1.214 . S
C52 O32 1.234 . S
C53 H25 0.929 . S
C53 C56 1.391 . S
C53 C58 1.391 . S
C54 H26 0.929 . S
C54 C55 1.390 . S
C54 N57 1.391 . S
C55 H27 0.930 . S
C55 C54 1.390 . S
C55 C56 1.392 . S
C56 H28 0.929 . S
C56 C53 1.391 . S
C56 C55 1.392 . S
N57 Co1 2.257 . S
N57 C54 1.391 . S
N57 C58 1.388 . S
C58 H29 0.930 . S
C58 C53 1.391 . S
C58 N57 1.388 . S
Co59 O61 2.143 . S
Co59 O67 2.074 . S
Co59 O70 2.093 . S
Co59 O83 2.075 1_655 S
Co59 N100 2.151 . S
Co59 N108 2.214 . S
Co60 O61 2.160 . S
Co60 O66 2.058 . S
Co60 O76 2.057 . S
Co60 O91 2.037 1_655 S
Co60 N95 2.145 1_655 S
Co60 N116 2.257 1_655 S
O61 Co59 2.143 . S
O61 Co60 2.160 . S
C62 O63 1.278 . S
C62 O70 1.224 . S
O63 C62 1.278 . S
C64 O65 1.245 . S
C64 O76 1.232 . S
O65 C64 1.245 . S
O66 Co60 2.058 . S
O66 C92 1.269 . S
O67 Co59 2.074 . S
O67 C92 1.257 . S
H68 C93 0.930 . S
H69 C99 0.930 . S
O70 Co59 2.093 . S
O70 C62 1.224 . S
H71 C103 0.929 . S
H72 C105 0.930 . S
H73 C106 0.930 . S
H74 C104 0.929 . S
H75 C107 0.928 . S
O76 Co60 2.057 . S
O76 C64 1.232 . S
H77 C96 0.929 . S
H78 C97 0.929 . S
H79 C109 0.931 . S
H80 C101 0.929 . S
H81 C110 0.930 . S
H82 C102 0.931 . S
O83 Co59 2.075 1_455 S
O83 C111 1.235 . S
H84 C112 0.929 . S
H85 C113 0.929 . S
H86 C114 0.930 . S
H87 C115 0.929 . S
H88 C117 0.930 . S
H89 C94 0.930 . S
H90 C98 0.930 . S
O91 Co60 2.037 1_455 S
O91 C111 1.234 . S
C92 O66 1.269 . S
C92 O67 1.257 . S
C93 H68 0.930 . S
C93 C96 1.388 . S
C93 C98 1.418 . S
C94 H89 0.930 . S
C94 C97 1.404 . S
C94 C98 1.353 . S
N95 Co60 2.145 1_455 S
N95 C96 1.397 . S
N95 C97 1.334 . S
C96 H77 0.929 . S
C96 C93 1.388 . S
C96 N95 1.397 . S
C97 H78 0.929 . S
C97 C94 1.404 . S
C97 N95 1.334 . S
C98 H90 0.930 . S
C98 C93 1.418 . S
C98 C94 1.353 . S
C99 H69 0.930 . S
C99 N100 1.330 . S
C99 C101 1.446 . S
N100 Co59 2.151 . S
N100 C99 1.330 . S
N100 C104 1.418 . S
C101 H80 0.929 . S
C101 C99 1.446 . S
C101 C102 1.332 . S
C102 H82 0.931 . S
C102 C101 1.332 . S
C102 C103 1.267 . S
C103 H71 0.929 . S
C103 C102 1.267 . S
C103 C104 1.251 . S
C104 H74 0.929 . S
C104 N100 1.418 . S
C104 C103 1.251 . S
C105 H72 0.930 . S
C105 C107 1.406 . S
C105 C110 1.261 . S
C106 H73 0.930 . S
C106 N108 1.325 . S
C106 C109 1.357 . S
C107 H75 0.928 . S
C107 C105 1.406 . S
C107 N108 1.261 . S
N108 Co59 2.214 . S
N108 C106 1.325 . S
N108 C107 1.261 . S
C109 H79 0.931 . S
C109 C106 1.357 . S
C109 C110 1.312 . S
C110 H81 0.930 . S
C110 C105 1.261 . S
C110 C109 1.312 . S
C111 O83 1.235 . S
C111 O91 1.234 . S
C112 H84 0.929 . S
C112 C115 1.391 . S
C112 C117 1.391 . S
C113 H85 0.929 . S
C113 C114 1.390 . S
C113 N116 1.391 . S
C114 H86 0.930 . S
C114 C113 1.390 . S
C114 C115 1.392 . S
C115 H87 0.929 . S
C115 C112 1.391 . S
C115 C114 1.392 . S
N116 Co60 2.257 1_455 S
N116 C113 1.391 . S
N116 C117 1.388 . S
C117 H88 0.930 . S
C117 C112 1.391 . S
C117 N116 1.388 . S
Co118 O120 2.143 . S
Co118 O126 2.074 . S
Co118 O129 2.093 . S
Co118 O142 2.080 1_565 S
Co118 N159 2.151 . S
Co118 N167 2.214 . S
Co119 O120 2.160 . S
Co119 O125 2.058 . S
Co119 O135 2.057 . S
Co119 O150 2.037 1_565 S
Co119 N154 2.145 1_565 S
Co119 N175 2.257 1_565 S
O120 Co118 2.143 . S
O120 Co119 2.160 . S
C121 O122 1.278 . S
C121 O129 1.224 . S
O122 C121 1.278 . S
C123 O124 1.245 . S
C123 O135 1.232 . S
O124 C123 1.245 . S
O125 Co119 2.058 . S
O125 C151 1.269 . S
O126 Co118 2.074 . S
O126 C151 1.257 . S
H127 C152 0.930 . S
H128 C158 0.930 . S
O129 Co118 2.093 . S
O129 C121 1.224 . S
H130 C162 0.929 . S
H131 C164 0.930 . S
H132 C165 0.930 . S
H133 C163 0.929 . S
H134 C166 0.928 . S
O135 Co119 2.057 . S
O135 C123 1.232 . S
H136 C155 0.929 . S
H137 C156 0.929 . S
H138 C168 0.931 . S
H139 C160 0.929 . S
H140 C169 0.930 . S
H141 C161 0.931 . S
O142 Co118 2.080 1_545 S
O142 C170 1.215 . S
H143 C171 0.929 . S
H144 C172 0.929 . S
H145 C173 0.930 . S
H146 C174 0.929 . S
H147 C176 0.930 . S
H148 C153 0.930 . S
H149 C157 0.930 . S
O150 Co119 2.037 1_545 S
O150 C170 1.234 . S
C151 O125 1.269 . S
C151 O126 1.257 . S
C152 H127 0.930 . S
C152 C155 1.388 . S
C152 C157 1.418 . S
C153 H148 0.930 . S
C153 C156 1.404 . S
C153 C157 1.353 . S
N154 Co119 2.145 1_545 S
N154 C155 1.397 . S
N154 C156 1.334 . S
C155 H136 0.929 . S
C155 C152 1.388 . S
C155 N154 1.397 . S
C156 H137 0.929 . S
C156 C153 1.404 . S
C156 N154 1.334 . S
C157 H149 0.930 . S
C157 C152 1.418 . S
C157 C153 1.353 . S
C158 H128 0.930 . S
C158 N159 1.330 . S
C158 C160 1.446 . S
N159 Co118 2.151 . S
N159 C158 1.330 . S
N159 C163 1.418 . S
C160 H139 0.929 . S
C160 C158 1.446 . S
C160 C161 1.332 . S
C161 H141 0.931 . S
C161 C160 1.332 . S
C161 C162 1.267 . S
C162 H130 0.929 . S
C162 C161 1.267 . S
C162 C163 1.251 . S
C163 H133 0.929 . S
C163 N159 1.418 . S
C163 C162 1.251 . S
C164 H131 0.930 . S
C164 C166 1.406 . S
C164 C169 1.261 . S
C165 H132 0.930 . S
C165 N167 1.325 . S
C165 C168 1.357 . S
C166 H134 0.928 . S
C166 C164 1.406 . S
C166 N167 1.261 . S
N167 Co118 2.214 . S
N167 C165 1.325 . S
N167 C166 1.261 . S
C168 H138 0.931 . S
C168 C165 1.357 . S
C168 C169 1.312 . S
C169 H140 0.930 . S
C169 C164 1.261 . S
C169 C168 1.312 . S
C170 O142 1.215 . S
C170 O150 1.234 . S
C171 H143 0.929 . S
C171 C174 1.391 . S
C171 C176 1.391 . S
C172 H144 0.929 . S
C172 C173 1.390 . S
C172 N175 1.391 . S
C173 H145 0.930 . S
C173 C172 1.390 . S
C173 C174 1.392 . S
C174 H146 0.929 . S
C174 C171 1.391 . S
C174 C173 1.392 . S
N175 Co119 2.257 1_545 S
N175 C172 1.391 . S
N175 C176 1.388 . S
C176 H147 0.930 . S
C176 C171 1.391 . S
C176 N175 1.388 . S
Co177 O179 2.143 . S
Co177 O185 2.074 . S
Co177 O188 2.093 . S
Co177 O201 2.097 . S
Co177 N218 2.151 . S
Co177 N226 2.214 . S
Co178 O179 2.160 . S
Co178 O184 2.058 . S
Co178 O194 2.057 . S
Co178 O209 2.037 . S
Co178 N213 2.145 . S
Co178 N234 2.257 . S
O179 Co177 2.143 . S
O179 Co178 2.160 . S
C180 O181 1.278 . S
C180 O188 1.224 . S
O181 C180 1.278 . S
C182 O183 1.245 . S
C182 O194 1.232 . S
O183 C182 1.245 . S
O184 Co178 2.058 . S
O184 C210 1.269 . S
O185 Co177 2.074 . S
O185 C210 1.257 . S
H186 C211 0.930 . S
H187 C217 0.930 . S
O188 Co177 2.093 . S
O188 C180 1.224 . S
H189 C221 0.929 . S
H190 C223 0.930 . S
H191 C224 0.930 . S
H192 C222 0.929 . S
H193 C225 0.928 . S
O194 Co178 2.057 . S
O194 C182 1.232 . S
H195 C214 0.929 . S
H196 C215 0.929 . S
H197 C227 0.931 . S
H198 C219 0.929 . S
H199 C228 0.930 . S
H200 C220 0.931 . S
O201 Co177 2.097 . S
O201 C229 1.214 . S
H202 C230 0.929 . S
H203 C231 0.929 . S
H204 C232 0.930 . S
H205 C233 0.929 . S
H206 C235 0.930 . S
H207 C212 0.930 . S
H208 C216 0.930 . S
O209 Co178 2.037 . S
O209 C229 1.234 . S
C210 O184 1.269 . S
C210 O185 1.257 . S
C211 H186 0.930 . S
C211 C214 1.388 . S
C211 C216 1.418 . S
C212 H207 0.930 . S
C212 C215 1.404 . S
C212 C216 1.353 . S
N213 Co178 2.145 . S
N213 C214 1.397 . S
N213 C215 1.334 . S
C214 H195 0.929 . S
C214 C211 1.388 . S
C214 N213 1.397 . S
C215 H196 0.929 . S
C215 C212 1.404 . S
C215 N213 1.334 . S
C216 H208 0.930 . S
C216 C211 1.418 . S
C216 C212 1.353 . S
C217 H187 0.930 . S
C217 N218 1.330 . S
C217 C219 1.446 . S
N218 Co177 2.151 . S
N218 C217 1.330 . S
N218 C222 1.418 . S
C219 H198 0.929 . S
C219 C217 1.446 . S
C219 C220 1.332 . S
C220 H200 0.931 . S
C220 C219 1.332 . S
C220 C221 1.267 . S
C221 H189 0.929 . S
C221 C220 1.267 . S
C221 C222 1.251 . S
C222 H192 0.929 . S
C222 N218 1.418 . S
C222 C221 1.251 . S
C223 H190 0.930 . S
C223 C225 1.406 . S
C223 C228 1.261 . S
C224 H191 0.930 . S
C224 N226 1.325 . S
C224 C227 1.357 . S
C225 H193 0.928 . S
C225 C223 1.406 . S
C225 N226 1.261 . S
N226 Co177 2.214 . S
N226 C224 1.325 . S
N226 C225 1.261 . S
C227 H197 0.931 . S
C227 C224 1.357 . S
C227 C228 1.312 . S
C228 H199 0.930 . S
C228 C223 1.261 . S
C228 C227 1.312 . S
C229 O201 1.214 . S
C229 O209 1.234 . S
C230 H202 0.929 . S
C230 C233 1.391 . S
C230 C235 1.391 . S
C231 H203 0.929 . S
C231 C232 1.390 . S
C231 N234 1.391 . S
C232 H204 0.930 . S
C232 C231 1.390 . S
C232 C233 1.392 . S
C233 H205 0.929 . S
C233 C230 1.391 . S
C233 C232 1.392 . S
N234 Co178 2.257 . S
N234 C231 1.391 . S
N234 C235 1.388 . S
C235 H206 0.930 . S
C235 C230 1.391 . S
C235 N234 1.388 . S
Co236 O238 2.143 . S
Co236 O244 2.074 . S
Co236 O247 2.093 . S
Co236 O260 2.074 1_455 S
Co236 N277 2.151 . S
Co236 N285 2.214 . S
Co237 O238 2.160 . S
Co237 O243 2.058 . S
Co237 O253 2.057 . S
Co237 O268 2.037 1_455 S
Co237 N272 2.145 1_455 S
Co237 N293 2.257 1_455 S
O238 Co236 2.143 . S
O238 Co237 2.160 . S
C239 O240 1.278 . S
C239 O247 1.224 . S
O240 C239 1.278 . S
C241 O242 1.245 . S
C241 O253 1.232 . S
O242 C241 1.245 . S
O243 Co237 2.058 . S
O243 C269 1.269 . S
O244 Co236 2.074 . S
O244 C269 1.257 . S
H245 C270 0.930 . S
H246 C276 0.930 . S
O247 Co236 2.093 . S
O247 C239 1.224 . S
H248 C280 0.929 . S
H249 C282 0.930 . S
H250 C283 0.930 . S
H251 C281 0.929 . S
H252 C284 0.928 . S
O253 Co237 2.057 . S
O253 C241 1.232 . S
H254 C273 0.929 . S
H255 C274 0.929 . S
H256 C286 0.931 . S
H257 C278 0.929 . S
H258 C287 0.930 . S
H259 C279 0.931 . S
O260 Co236 2.074 1_655 S
O260 C288 1.236 . S
H261 C289 0.929 . S
H262 C290 0.929 . S
H263 C291 0.930 . S
H264 C292 0.929 . S
H265 C294 0.930 . S
H266 C271 0.930 . S
H267 C275 0.930 . S
O268 Co237 2.037 1_655 S
O268 C288 1.234 . S
C269 O243 1.269 . S
C269 O244 1.257 . S
C270 H245 0.930 . S
C270 C273 1.388 . S
C270 C275 1.418 . S
C271 H266 0.930 . S
C271 C274 1.404 . S
C271 C275 1.353 . S
N272 Co237 2.145 1_655 S
N272 C273 1.397 . S
N272 C274 1.334 . S
C273 H254 0.929 . S
C273 C270 1.388 . S
C273 N272 1.397 . S
C274 H255 0.929 . S
C274 C271 1.404 . S
C274 N272 1.334 . S
C275 H267 0.930 . S
C275 C270 1.418 . S
C275 C271 1.353 . S
C276 H246 0.930 . S
C276 N277 1.330 . S
C276 C278 1.446 . S
N277 Co236 2.151 . S
N277 C276 1.330 . S
N277 C281 1.418 . S
C278 H257 0.929 . S
C278 C276 1.446 . S
C278 C279 1.332 . S
C279 H259 0.931 . S
C279 C278 1.332 . S
C279 C280 1.267 . S
C280 H248 0.929 . S
C280 C279 1.267 . S
C280 C281 1.251 . S
C281 H251 0.929 . S
C281 N277 1.418 . S
C281 C280 1.251 . S
C282 H249 0.930 . S
C282 C284 1.406 . S
C282 C287 1.261 . S
C283 H250 0.930 . S
C283 N285 1.325 . S
C283 C286 1.357 . S
C284 H252 0.928 . S
C284 C282 1.406 . S
C284 N285 1.261 . S
N285 Co236 2.214 . S
N285 C283 1.325 . S
N285 C284 1.261 . S
C286 H256 0.931 . S
C286 C283 1.357 . S
C286 C287 1.312 . S
C287 H258 0.930 . S
C287 C282 1.261 . S
C287 C286 1.312 . S
C288 O260 1.236 . S
C288 O268 1.234 . S
C289 H261 0.929 . S
C289 C292 1.391 . S
C289 C294 1.391 . S
C290 H262 0.929 . S
C290 C291 1.390 . S
C290 N293 1.391 . S
C291 H263 0.930 . S
C291 C290 1.390 . S
C291 C292 1.392 . S
C292 H264 0.929 . S
C292 C289 1.391 . S
C292 C291 1.392 . S
N293 Co237 2.257 1_655 S
N293 C290 1.391 . S
N293 C294 1.388 . S
C294 H265 0.930 . S
C294 C289 1.391 . S
C294 N293 1.388 . S
Co295 O297 2.143 . S
Co295 O303 2.074 . S
Co295 O306 2.093 . S
Co295 O319 2.081 1_545 S
Co295 N336 2.151 . S
Co295 N344 2.214 . S
Co296 O297 2.160 . S
Co296 O302 2.058 . S
Co296 O312 2.057 . S
Co296 O327 2.037 1_545 S
Co296 N331 2.145 1_545 S
Co296 N352 2.257 1_545 S
O297 Co295 2.143 . S
O297 Co296 2.160 . S
C298 O299 1.278 . S
C298 O306 1.224 . S
O299 C298 1.278 . S
C300 O301 1.245 . S
C300 O312 1.232 . S
O301 C300 1.245 . S
O302 Co296 2.058 . S
O302 C328 1.269 . S
O303 Co295 2.074 . S
O303 C328 1.257 . S
H304 C329 0.930 . S
H305 C335 0.930 . S
O306 Co295 2.093 . S
O306 C298 1.224 . S
H307 C339 0.929 . S
H308 C341 0.930 . S
H309 C342 0.930 . S
H310 C340 0.929 . S
H311 C343 0.928 . S
O312 Co296 2.057 . S
O312 C300 1.232 . S
H313 C332 0.929 . S
H314 C333 0.929 . S
H315 C345 0.931 . S
H316 C337 0.929 . S
H317 C346 0.930 . S
H318 C338 0.931 . S
O319 Co295 2.081 1_565 S
O319 C347 1.215 . S
H320 C348 0.929 . S
H321 C349 0.929 . S
H322 C350 0.930 . S
H323 C351 0.929 . S
H324 C353 0.930 . S
H325 C330 0.930 . S
H326 C334 0.930 . S
O327 Co296 2.037 1_565 S
O327 C347 1.234 . S
C328 O302 1.269 . S
C328 O303 1.257 . S
C329 H304 0.930 . S
C329 C332 1.388 . S
C329 C334 1.418 . S
C330 H325 0.930 . S
C330 C333 1.404 . S
C330 C334 1.353 . S
N331 Co296 2.145 1_565 S
N331 C332 1.397 . S
N331 C333 1.334 . S
C332 H313 0.929 . S
C332 C329 1.388 . S
C332 N331 1.397 . S
C333 H314 0.929 . S
C333 C330 1.404 . S
C333 N331 1.334 . S
C334 H326 0.930 . S
C334 C329 1.418 . S
C334 C330 1.353 . S
C335 H305 0.930 . S
C335 N336 1.330 . S
C335 C337 1.446 . S
N336 Co295 2.151 . S
N336 C335 1.330 . S
N336 C340 1.418 . S
C337 H316 0.929 . S
C337 C335 1.446 . S
C337 C338 1.332 . S
C338 H318 0.931 . S
C338 C337 1.332 . S
C338 C339 1.267 . S
C339 H307 0.929 . S
C339 C338 1.267 . S
C339 C340 1.251 . S
C340 H310 0.929 . S
C340 N336 1.418 . S
C340 C339 1.251 . S
C341 H308 0.930 . S
C341 C343 1.406 . S
C341 C346 1.261 . S
C342 H309 0.930 . S
C342 N344 1.325 . S
C342 C345 1.357 . S
C343 H311 0.928 . S
C343 C341 1.406 . S
C343 N344 1.261 . S
N344 Co295 2.214 . S
N344 C342 1.325 . S
N344 C343 1.261 . S
C345 H315 0.931 . S
C345 C342 1.357 . S
C345 C346 1.312 . S
C346 H317 0.930 . S
C346 C341 1.261 . S
C346 C345 1.312 . S
C347 O319 1.215 . S
C347 O327 1.234 . S
C348 H320 0.929 . S
C348 C351 1.391 . S
C348 C353 1.391 . S
C349 H321 0.929 . S
C349 C350 1.390 . S
C349 N352 1.391 . S
C350 H322 0.930 . S
C350 C349 1.390 . S
C350 C351 1.392 . S
C351 H323 0.929 . S
C351 C348 1.391 . S
C351 C350 1.392 . S
N352 Co296 2.257 1_565 S
N352 C349 1.391 . S
N352 C353 1.388 . S
C353 H324 0.930 . S
C353 C348 1.391 . S
C353 N352 1.388 . S
Co354 O356 2.143 . S
Co354 O362 2.074 . S
Co354 O365 2.093 . S
Co354 O378 2.097 . S
Co354 N395 2.151 . S
Co354 N403 2.214 . S
Co355 O356 2.160 . S
Co355 O361 2.058 . S
Co355 O371 2.057 . S
Co355 O386 2.037 . S
Co355 N390 2.145 . S
Co355 N411 2.257 . S
O356 Co354 2.143 . S
O356 Co355 2.160 . S
C357 O358 1.278 . S
C357 O365 1.224 . S
O358 C357 1.278 . S
C359 O360 1.245 . S
C359 O371 1.232 . S
O360 C359 1.245 . S
O361 Co355 2.058 . S
O361 C387 1.269 . S
O362 Co354 2.074 . S
O362 C387 1.257 . S
H363 C388 0.930 . S
H364 C394 0.930 . S
O365 Co354 2.093 . S
O365 C357 1.224 . S
H366 C398 0.929 . S
H367 C400 0.930 . S
H368 C401 0.930 . S
H369 C399 0.929 . S
H370 C402 0.928 . S
O371 Co355 2.057 . S
O371 C359 1.232 . S
H372 C391 0.929 . S
H373 C392 0.929 . S
H374 C404 0.931 . S
H375 C396 0.929 . S
H376 C405 0.930 . S
H377 C397 0.931 . S
O378 Co354 2.097 . S
O378 C406 1.214 . S
H379 C407 0.929 . S
H380 C408 0.929 . S
H381 C409 0.930 . S
H382 C410 0.929 . S
H383 C412 0.930 . S
H384 C389 0.930 . S
H385 C393 0.930 . S
O386 Co355 2.037 . S
O386 C406 1.234 . S
C387 O361 1.269 . S
C387 O362 1.257 . S
C388 H363 0.930 . S
C388 C391 1.388 . S
C388 C393 1.418 . S
C389 H384 0.930 . S
C389 C392 1.404 . S
C389 C393 1.353 . S
N390 Co355 2.145 . S
N390 C391 1.397 . S
N390 C392 1.334 . S
C391 H372 0.929 . S
C391 C388 1.388 . S
C391 N390 1.397 . S
C392 H373 0.929 . S
C392 C389 1.404 . S
C392 N390 1.334 . S
C393 H385 0.930 . S
C393 C388 1.418 . S
C393 C389 1.353 . S
C394 H364 0.930 . S
C394 N395 1.330 . S
C394 C396 1.446 . S
N395 Co354 2.151 . S
N395 C394 1.330 . S
N395 C399 1.418 . S
C396 H375 0.929 . S
C396 C394 1.446 . S
C396 C397 1.332 . S
C397 H377 0.931 . S
C397 C396 1.332 . S
C397 C398 1.267 . S
C398 H366 0.929 . S
C398 C397 1.267 . S
C398 C399 1.251 . S
C399 H369 0.929 . S
C399 N395 1.418 . S
C399 C398 1.251 . S
C400 H367 0.930 . S
C400 C402 1.406 . S
C400 C405 1.261 . S
C401 H368 0.930 . S
C401 N403 1.325 . S
C401 C404 1.357 . S
C402 H370 0.928 . S
C402 C400 1.406 . S
C402 N403 1.261 . S
N403 Co354 2.214 . S
N403 C401 1.325 . S
N403 C402 1.261 . S
C404 H374 0.931 . S
C404 C401 1.357 . S
C404 C405 1.312 . S
C405 H376 0.930 . S
C405 C400 1.261 . S
C405 C404 1.312 . S
C406 O378 1.214 . S
C406 O386 1.234 . S
C407 H379 0.929 . S
C407 C410 1.391 . S
C407 C412 1.391 . S
C408 H380 0.929 . S
C408 C409 1.390 . S
C408 N411 1.391 . S
C409 H381 0.930 . S
C409 C408 1.390 . S
C409 C410 1.392 . S
C410 H382 0.929 . S
C410 C407 1.391 . S
C410 C409 1.392 . S
N411 Co355 2.257 . S
N411 C408 1.391 . S
N411 C412 1.388 . S
C412 H383 0.930 . S
C412 C407 1.391 . S
C412 N411 1.388 . S
Co413 O415 2.143 . S
Co413 O421 2.074 . S
Co413 O424 2.093 . S
Co413 O437 2.081 1_655 S
Co413 N454 2.151 . S
Co413 N462 2.214 . S
Co414 O415 2.160 . S
Co414 O420 2.058 . S
Co414 O430 2.057 . S
Co414 O445 2.037 1_655 S
Co414 N449 2.145 1_655 S
Co414 N470 2.257 1_655 S
O415 Co413 2.143 . S
O415 Co414 2.160 . S
C416 O417 1.278 . S
C416 O424 1.224 . S
O417 C416 1.278 . S
C418 O419 1.245 . S
C418 O430 1.232 . S
O419 C418 1.245 . S
O420 Co414 2.058 . S
O420 C446 1.269 . S
O421 Co413 2.074 . S
O421 C446 1.257 . S
H422 C447 0.930 . S
H423 C453 0.930 . S
O424 Co413 2.093 . S
O424 C416 1.224 . S
H425 C457 0.929 . S
H426 C459 0.930 . S
H427 C460 0.930 . S
H428 C458 0.929 . S
H429 C461 0.928 . S
O430 Co414 2.057 . S
O430 C418 1.232 . S
H431 C450 0.929 . S
H432 C451 0.929 . S
H433 C463 0.931 . S
H434 C455 0.929 . S
H435 C464 0.930 . S
H436 C456 0.931 . S
O437 Co413 2.081 1_455 S
O437 C465 1.215 . S
H438 C466 0.929 . S
H439 C467 0.929 . S
H440 C468 0.930 . S
H441 C469 0.929 . S
H442 C471 0.930 . S
H443 C448 0.930 . S
H444 C452 0.930 . S
O445 Co414 2.037 1_455 S
O445 C465 1.234 . S
C446 O420 1.269 . S
C446 O421 1.257 . S
C447 H422 0.930 . S
C447 C450 1.388 . S
C447 C452 1.418 . S
C448 H443 0.930 . S
C448 C451 1.404 . S
C448 C452 1.353 . S
N449 Co414 2.145 1_455 S
N449 C450 1.397 . S
N449 C451 1.334 . S
C450 H431 0.929 . S
C450 C447 1.388 . S
C450 N449 1.397 . S
C451 H432 0.929 . S
C451 C448 1.404 . S
C451 N449 1.334 . S
C452 H444 0.930 . S
C452 C447 1.418 . S
C452 C448 1.353 . S
C453 H423 0.930 . S
C453 N454 1.330 . S
C453 C455 1.446 . S
N454 Co413 2.151 . S
N454 C453 1.330 . S
N454 C458 1.418 . S
C455 H434 0.929 . S
C455 C453 1.446 . S
C455 C456 1.332 . S
C456 H436 0.931 . S
C456 C455 1.332 . S
C456 C457 1.267 . S
C457 H425 0.929 . S
C457 C456 1.267 . S
C457 C458 1.251 . S
C458 H428 0.929 . S
C458 N454 1.418 . S
C458 C457 1.251 . S
C459 H426 0.930 . S
C459 C461 1.406 . S
C459 C464 1.261 . S
C460 H427 0.930 . S
C460 N462 1.325 . S
C460 C463 1.357 . S
C461 H429 0.928 . S
C461 C459 1.406 . S
C461 N462 1.261 . S
N462 Co413 2.214 . S
N462 C460 1.325 . S
N462 C461 1.261 . S
C463 H433 0.931 . S
C463 C460 1.357 . S
C463 C464 1.312 . S
C464 H435 0.930 . S
C464 C459 1.261 . S
C464 C463 1.312 . S
C465 O437 1.215 . S
C465 O445 1.234 . S
C466 H438 0.929 . S
C466 C469 1.391 . S
C466 C471 1.391 . S
C467 H439 0.929 . S
C467 C468 1.390 . S
C467 N470 1.391 . S
C468 H440 0.930 . S
C468 C467 1.390 . S
C468 C469 1.392 . S
C469 H441 0.929 . S
C469 C466 1.391 . S
C469 C468 1.392 . S
N470 Co414 2.257 1_455 S
N470 C467 1.391 . S
N470 C471 1.388 . S
C471 H442 0.930 . S
C471 C466 1.391 . S
C471 N470 1.388 . S
Co472 O474 2.143 . S
Co472 O480 2.074 . S
Co472 O483 2.093 . S
Co472 O496 2.074 1_565 S
Co472 N513 2.151 . S
Co472 N521 2.214 . S
Co473 O474 2.160 . S
Co473 O479 2.058 . S
Co473 O489 2.057 . S
Co473 O504 2.037 1_565 S
Co473 N508 2.145 1_565 S
Co473 N529 2.257 1_565 S
O474 Co472 2.143 . S
O474 Co473 2.160 . S
C475 O476 1.278 . S
C475 O483 1.224 . S
O476 C475 1.278 . S
C477 O478 1.245 . S
C477 O489 1.232 . S
O478 C477 1.245 . S
O479 Co473 2.058 . S
O479 C505 1.269 . S
O480 Co472 2.074 . S
O480 C505 1.257 . S
H481 C506 0.930 . S
H482 C512 0.930 . S
O483 Co472 2.093 . S
O483 C475 1.224 . S
H484 C516 0.929 . S
H485 C518 0.930 . S
H486 C519 0.930 . S
H487 C517 0.929 . S
H488 C520 0.928 . S
O489 Co473 2.057 . S
O489 C477 1.232 . S
H490 C509 0.929 . S
H491 C510 0.929 . S
H492 C522 0.931 . S
H493 C514 0.929 . S
H494 C523 0.930 . S
H495 C515 0.931 . S
O496 Co472 2.074 1_545 S
O496 C524 1.236 . S
H497 C525 0.929 . S
H498 C526 0.929 . S
H499 C527 0.930 . S
H500 C528 0.929 . S
H501 C530 0.930 . S
H502 C507 0.930 . S
H503 C511 0.930 . S
O504 Co473 2.037 1_545 S
O504 C524 1.234 . S
C505 O479 1.269 . S
C505 O480 1.257 . S
C506 H481 0.930 . S
C506 C509 1.388 . S
C506 C511 1.418 . S
C507 H502 0.930 . S
C507 C510 1.404 . S
C507 C511 1.353 . S
N508 Co473 2.145 1_545 S
N508 C509 1.397 . S
N508 C510 1.334 . S
C509 H490 0.929 . S
C509 C506 1.388 . S
C509 N508 1.397 . S
C510 H491 0.929 . S
C510 C507 1.404 . S
C510 N508 1.334 . S
C511 H503 0.930 . S
C511 C506 1.418 . S
C511 C507 1.353 . S
C512 H482 0.930 . S
C512 N513 1.330 . S
C512 C514 1.446 . S
N513 Co472 2.151 . S
N513 C512 1.330 . S
N513 C517 1.418 . S
C514 H493 0.929 . S
C514 C512 1.446 . S
C514 C515 1.332 . S
C515 H495 0.931 . S
C515 C514 1.332 . S
C515 C516 1.267 . S
C516 H484 0.929 . S
C516 C515 1.267 . S
C516 C517 1.251 . S
C517 H487 0.929 . S
C517 N513 1.418 . S
C517 C516 1.251 . S
C518 H485 0.930 . S
C518 C520 1.406 . S
C518 C523 1.261 . S
C519 H486 0.930 . S
C519 N521 1.325 . S
C519 C522 1.357 . S
C520 H488 0.928 . S
C520 C518 1.406 . S
C520 N521 1.261 . S
N521 Co472 2.214 . S
N521 C519 1.325 . S
N521 C520 1.261 . S
C522 H492 0.931 . S
C522 C519 1.357 . S
C522 C523 1.312 . S
C523 H494 0.930 . S
C523 C518 1.261 . S
C523 C522 1.312 . S
C524 O496 1.236 . S
C524 O504 1.234 . S
C525 H497 0.929 . S
C525 C528 1.391 . S
C525 C530 1.391 . S
C526 H498 0.929 . S
C526 C527 1.390 . S
C526 N529 1.391 . S
C527 H499 0.930 . S
C527 C526 1.390 . S
C527 C528 1.392 . S
C528 H500 0.929 . S
C528 C525 1.391 . S
C528 C527 1.392 . S
N529 Co473 2.257 1_545 S
N529 C526 1.391 . S
N529 C530 1.388 . S
C530 H501 0.930 . S
C530 C525 1.391 . S
C530 N529 1.388 . S
Co531 O533 2.143 . S
Co531 O539 2.074 . S
Co531 O542 2.093 . S
Co531 O555 2.097 . S
Co531 N572 2.151 . S
Co531 N580 2.214 . S
Co532 O533 2.160 . S
Co532 O538 2.058 . S
Co532 O548 2.057 . S
Co532 O563 2.037 . S
Co532 N567 2.145 . S
Co532 N588 2.257 . S
O533 Co531 2.143 . S
O533 Co532 2.160 . S
C534 O535 1.278 . S
C534 O542 1.224 . S
O535 C534 1.278 . S
C536 O537 1.245 . S
C536 O548 1.232 . S
O537 C536 1.245 . S
O538 Co532 2.058 . S
O538 C564 1.269 . S
O539 Co531 2.074 . S
O539 C564 1.257 . S
H540 C565 0.930 . S
H541 C571 0.930 . S
O542 Co531 2.093 . S
O542 C534 1.224 . S
H543 C575 0.929 . S
H544 C577 0.930 . S
H545 C578 0.930 . S
H546 C576 0.929 . S
H547 C579 0.928 . S
O548 Co532 2.057 . S
O548 C536 1.232 . S
H549 C568 0.929 . S
H550 C569 0.929 . S
H551 C581 0.931 . S
H552 C573 0.929 . S
H553 C582 0.930 . S
H554 C574 0.931 . S
O555 Co531 2.097 . S
O555 C583 1.214 . S
H556 C584 0.929 . S
H557 C585 0.929 . S
H558 C586 0.930 . S
H559 C587 0.929 . S
H560 C589 0.930 . S
H561 C566 0.930 . S
H562 C570 0.930 . S
O563 Co532 2.037 . S
O563 C583 1.234 . S
C564 O538 1.269 . S
C564 O539 1.257 . S
C565 H540 0.930 . S
C565 C568 1.388 . S
C565 C570 1.418 . S
C566 H561 0.930 . S
C566 C569 1.404 . S
C566 C570 1.353 . S
N567 Co532 2.145 . S
N567 C568 1.397 . S
N567 C569 1.334 . S
C568 H549 0.929 . S
C568 C565 1.388 . S
C568 N567 1.397 . S
C569 H550 0.929 . S
C569 C566 1.404 . S
C569 N567 1.334 . S
C570 H562 0.930 . S
C570 C565 1.418 . S
C570 C566 1.353 . S
C571 H541 0.930 . S
C571 N572 1.330 . S
C571 C573 1.446 . S
N572 Co531 2.151 . S
N572 C571 1.330 . S
N572 C576 1.418 . S
C573 H552 0.929 . S
C573 C571 1.446 . S
C573 C574 1.332 . S
C574 H554 0.931 . S
C574 C573 1.332 . S
C574 C575 1.267 . S
C575 H543 0.929 . S
C575 C574 1.267 . S
C575 C576 1.251 . S
C576 H546 0.929 . S
C576 N572 1.418 . S
C576 C575 1.251 . S
C577 H544 0.930 . S
C577 C579 1.406 . S
C577 C582 1.261 . S
C578 H545 0.930 . S
C578 N580 1.325 . S
C578 C581 1.357 . S
C579 H547 0.928 . S
C579 C577 1.406 . S
C579 N580 1.261 . S
N580 Co531 2.214 . S
N580 C578 1.325 . S
N580 C579 1.261 . S
C581 H551 0.931 . S
C581 C578 1.357 . S
C581 C582 1.312 . S
C582 H553 0.930 . S
C582 C577 1.261 . S
C582 C581 1.312 . S
C583 O555 1.214 . S
C583 O563 1.234 . S
C584 H556 0.929 . S
C584 C587 1.391 . S
C584 C589 1.391 . S
C585 H557 0.929 . S
C585 C586 1.390 . S
C585 N588 1.391 . S
C586 H558 0.930 . S
C586 C585 1.390 . S
C586 C587 1.392 . S
C587 H559 0.929 . S
C587 C584 1.391 . S
C587 C586 1.392 . S
N588 Co532 2.257 . S
N588 C585 1.391 . S
N588 C589 1.388 . S
C589 H560 0.930 . S
C589 C584 1.391 . S
C589 N588 1.388 . S
Co590 O592 2.143 . S
Co590 O598 2.074 . S
Co590 O601 2.093 . S
Co590 O614 2.080 1_455 S
Co590 N631 2.151 . S
Co590 N639 2.214 . S
Co591 O592 2.160 . S
Co591 O597 2.058 . S
Co591 O607 2.057 . S
Co591 O622 2.037 1_455 S
Co591 N626 2.145 1_455 S
Co591 N647 2.257 1_455 S
O592 Co590 2.143 . S
O592 Co591 2.160 . S
C593 O594 1.278 . S
C593 O601 1.224 . S
O594 C593 1.278 . S
C595 O596 1.245 . S
C595 O607 1.232 . S
O596 C595 1.245 . S
O597 Co591 2.058 . S
O597 C623 1.269 . S
O598 Co590 2.074 . S
O598 C623 1.257 . S
H599 C624 0.930 . S
H600 C630 0.930 . S
O601 Co590 2.093 . S
O601 C593 1.224 . S
H602 C634 0.929 . S
H603 C636 0.930 . S
H604 C637 0.930 . S
H605 C635 0.929 . S
H606 C638 0.928 . S
O607 Co591 2.057 . S
O607 C595 1.232 . S
H608 C627 0.929 . S
H609 C628 0.929 . S
H610 C640 0.931 . S
H611 C632 0.929 . S
H612 C641 0.930 . S
H613 C633 0.931 . S
O614 Co590 2.080 1_655 S
O614 C642 1.215 . S
H615 C643 0.929 . S
H616 C644 0.929 . S
H617 C645 0.930 . S
H618 C646 0.929 . S
H619 C648 0.930 . S
H620 C625 0.930 . S
H621 C629 0.930 . S
O622 Co591 2.037 1_655 S
O622 C642 1.234 . S
C623 O597 1.269 . S
C623 O598 1.257 . S
C624 H599 0.930 . S
C624 C627 1.388 . S
C624 C629 1.418 . S
C625 H620 0.930 . S
C625 C628 1.404 . S
C625 C629 1.353 . S
N626 Co591 2.145 1_655 S
N626 C627 1.397 . S
N626 C628 1.334 . S
C627 H608 0.929 . S
C627 C624 1.388 . S
C627 N626 1.397 . S
C628 H609 0.929 . S
C628 C625 1.404 . S
C628 N626 1.334 . S
C629 H621 0.930 . S
C629 C624 1.418 . S
C629 C625 1.353 . S
C630 H600 0.930 . S
C630 N631 1.330 . S
C630 C632 1.446 . S
N631 Co590 2.151 . S
N631 C630 1.330 . S
N631 C635 1.418 . S
C632 H611 0.929 . S
C632 C630 1.446 . S
C632 C633 1.332 . S
C633 H613 0.931 . S
C633 C632 1.332 . S
C633 C634 1.267 . S
C634 H602 0.929 . S
C634 C633 1.267 . S
C634 C635 1.251 . S
C635 H605 0.929 . S
C635 N631 1.418 . S
C635 C634 1.251 . S
C636 H603 0.930 . S
C636 C638 1.406 . S
C636 C641 1.261 . S
C637 H604 0.930 . S
C637 N639 1.325 . S
C637 C640 1.357 . S
C638 H606 0.928 . S
C638 C636 1.406 . S
C638 N639 1.261 . S
N639 Co590 2.214 . S
N639 C637 1.325 . S
N639 C638 1.261 . S
C640 H610 0.931 . S
C640 C637 1.357 . S
C640 C641 1.312 . S
C641 H612 0.930 . S
C641 C636 1.261 . S
C641 C640 1.312 . S
C642 O614 1.215 . S
C642 O622 1.234 . S
C643 H615 0.929 . S
C643 C646 1.391 . S
C643 C648 1.391 . S
C644 H616 0.929 . S
C644 C645 1.390 . S
C644 N647 1.391 . S
C645 H617 0.930 . S
C645 C644 1.390 . S
C645 C646 1.392 . S
C646 H618 0.929 . S
C646 C643 1.391 . S
C646 C645 1.392 . S
N647 Co591 2.257 1_655 S
N647 C644 1.391 . S
N647 C648 1.388 . S
C648 H619 0.930 . S
C648 C643 1.391 . S
C648 N647 1.388 . S
Co649 O651 2.143 . S
Co649 O657 2.074 . S
Co649 O660 2.093 . S
Co649 O673 2.075 1_545 S
Co649 N690 2.151 . S
Co649 N698 2.214 . S
Co650 O651 2.160 . S
Co650 O656 2.058 . S
Co650 O666 2.057 . S
Co650 O681 2.037 1_545 S
Co650 N685 2.145 1_545 S
Co650 N706 2.257 1_545 S
O651 Co649 2.143 . S
O651 Co650 2.160 . S
C652 O653 1.278 . S
C652 O660 1.224 . S
O653 C652 1.278 . S
C654 O655 1.245 . S
C654 O666 1.232 . S
O655 C654 1.245 . S
O656 Co650 2.058 . S
O656 C682 1.269 . S
O657 Co649 2.074 . S
O657 C682 1.257 . S
H658 C683 0.930 . S
H659 C689 0.930 . S
O660 Co649 2.093 . S
O660 C652 1.224 . S
H661 C693 0.929 . S
H662 C695 0.930 . S
H663 C696 0.930 . S
H664 C694 0.929 . S
H665 C697 0.928 . S
O666 Co650 2.057 . S
O666 C654 1.232 . S
H667 C686 0.929 . S
H668 C687 0.929 . S
H669 C699 0.931 . S
H670 C691 0.929 . S
H671 C700 0.930 . S
H672 C692 0.931 . S
O673 Co649 2.075 1_565 S
O673 C701 1.235 . S
H674 C702 0.929 . S
H675 C703 0.929 . S
H676 C704 0.930 . S
H677 C705 0.929 . S
H678 C707 0.930 . S
H679 C684 0.930 . S
H680 C688 0.930 . S
O681 Co650 2.037 1_565 S
O681 C701 1.234 . S
C682 O656 1.269 . S
C682 O657 1.257 . S
C683 H658 0.930 . S
C683 C686 1.388 . S
C683 C688 1.418 . S
C684 H679 0.930 . S
C684 C687 1.404 . S
C684 C688 1.353 . S
N685 Co650 2.145 1_565 S
N685 C686 1.397 . S
N685 C687 1.334 . S
C686 H667 0.929 . S
C686 C683 1.388 . S
C686 N685 1.397 . S
C687 H668 0.929 . S
C687 C684 1.404 . S
C687 N685 1.334 . S
C688 H680 0.930 . S
C688 C683 1.418 . S
C688 C684 1.353 . S
C689 H659 0.930 . S
C689 N690 1.330 . S
C689 C691 1.446 . S
N690 Co649 2.151 . S
N690 C689 1.330 . S
N690 C694 1.418 . S
C691 H670 0.929 . S
C691 C689 1.446 . S
C691 C692 1.332 . S
C692 H672 0.931 . S
C692 C691 1.332 . S
C692 C693 1.267 . S
C693 H661 0.929 . S
C693 C692 1.267 . S
C693 C694 1.251 . S
C694 H664 0.929 . S
C694 N690 1.418 . S
C694 C693 1.251 . S
C695 H662 0.930 . S
C695 C697 1.406 . S
C695 C700 1.261 . S
C696 H663 0.930 . S
C696 N698 1.325 . S
C696 C699 1.357 . S
C697 H665 0.928 . S
C697 C695 1.406 . S
C697 N698 1.261 . S
N698 Co649 2.214 . S
N698 C696 1.325 . S
N698 C697 1.261 . S
C699 H669 0.931 . S
C699 C696 1.357 . S
C699 C700 1.312 . S
C700 H671 0.930 . S
C700 C695 1.261 . S
C700 C699 1.312 . S
C701 O673 1.235 . S
C701 O681 1.234 . S
C702 H674 0.929 . S
C702 C705 1.391 . S
C702 C707 1.391 . S
C703 H675 0.929 . S
C703 C704 1.390 . S
C703 N706 1.391 . S
C704 H676 0.930 . S
C704 C703 1.390 . S
C704 C705 1.392 . S
C705 H677 0.929 . S
C705 C702 1.391 . S
C705 C704 1.392 . S
N706 Co650 2.257 1_565 S
N706 C703 1.391 . S
N706 C707 1.388 . S
C707 H678 0.930 . S
C707 C702 1.391 . S
C707 N706 1.388 . S
H708 C716 0.929 . S
H709 C718 0.930 . S
H710 C720 0.930 . S
H711 C723 0.929 . S
H712 C726 0.930 . S
H713 C728 0.960 . S
H714 C728 0.960 . S
H715 C728 0.960 . S
C716 H708 0.929 . S
C716 C717 1.377 . S
C716 C718 1.384 . S
C717 C716 1.377 . S
C717 C723 1.390 . S
C718 H709 0.930 . S
C718 C716 1.384 . S
C718 C719 1.372 . S
C719 C718 1.372 . S
C719 C720 1.400 . S
C719 C724 1.490 . S
C720 H710 0.930 . S
C720 C719 1.400 . S
C720 C723 1.386 . S
H721 C737 0.930 . S
H722 C738 0.931 . S
C723 H711 0.929 . S
C723 C717 1.390 . S
C723 C720 1.386 . S
C724 C719 1.490 . S
C724 C726 1.395 . S
C724 C727 1.403 . S
H725 C731 0.930 . S
C726 H712 0.930 . S
C726 C724 1.395 . S
C726 C729 1.403 1_655 S
C727 C724 1.403 . S
C727 C728 1.524 . S
C727 C731 1.400 1_655 S
C728 H713 0.960 . S
C728 H714 0.960 . S
C728 H715 0.960 . S
C728 C727 1.524 . S
C729 C726 1.403 1_455 S
C729 C730 1.392 . S
C729 C733 1.495 . S
C730 C729 1.392 . S
C730 C731 1.385 . S
C730 C732 1.478 . S
C731 H725 0.930 . S
C731 C727 1.400 1_455 S
C731 C730 1.385 . S
C732 C730 1.478 . S
C732 C734 1.381 . S
C732 C738 1.383 . S
C733 C729 1.495 . S
C733 H739 0.959 . S
C733 H740 0.961 . S
C733 H741 0.960 . S
C734 C732 1.381 . S
C734 C735 1.394 . S
C734 H742 0.930 . S
C735 C734 1.394 . S
C735 C736 1.383 . S
C735 H743 0.929 . S
C736 C735 1.383 . S
C736 C737 1.377 . S
C737 H721 0.930 . S
C737 C736 1.377 . S
C737 C738 1.379 . S
C738 H722 0.931 . S
C738 C732 1.383 . S
C738 C737 1.379 . S
H739 C733 0.959 . S
H740 C733 0.961 . S
H741 C733 0.960 . S
H742 C734 0.930 . S
H743 C735 0.929 . S
H744 C752 0.929 . S
H745 C754 0.930 . S
H746 C756 0.930 . S
H747 C759 0.929 . S
H748 C762 0.930 . S
H749 C764 0.960 . S
H750 C764 0.960 . S
H751 C764 0.960 . S
C752 H744 0.929 . S
C752 C753 1.377 . S
C752 C754 1.384 . S
C753 C752 1.377 . S
C753 C759 1.390 . S
C754 H745 0.930 . S
C754 C752 1.384 . S
C754 C755 1.372 . S
C755 C754 1.372 . S
C755 C756 1.400 . S
C755 C760 1.490 . S
C756 H746 0.930 . S
C756 C755 1.400 . S
C756 C759 1.386 . S
H757 C773 0.930 . S
H758 C774 0.931 . S
C759 H747 0.929 . S
C759 C753 1.390 . S
C759 C756 1.386 . S
C760 C755 1.490 . S
C760 C762 1.392 . S
C760 C763 1.403 . S
H761 C767 0.930 . S
C762 H748 0.930 . S
C762 C760 1.392 . S
C762 C765 1.405 1_545 S
C763 C760 1.403 . S
C763 C764 1.524 . S
C763 C767 1.400 1_545 S
C764 H749 0.960 . S
C764 H750 0.960 . S
C764 H751 0.960 . S
C764 C763 1.524 . S
C765 C762 1.405 1_565 S
C765 C766 1.392 . S
C765 C769 1.495 . S
C766 C765 1.392 . S
C766 C767 1.385 . S
C766 C768 1.478 . S
C767 H761 0.930 . S
C767 C763 1.400 1_565 S
C767 C766 1.385 . S
C768 C766 1.478 . S
C768 C770 1.381 . S
C768 C774 1.383 . S
C769 C765 1.495 . S
C769 H775 0.959 . S
C769 H776 0.961 . S
C769 H777 0.960 . S
C770 C768 1.381 . S
C770 C771 1.394 . S
C770 H778 0.930 . S
C771 C770 1.394 . S
C771 C772 1.383 . S
C771 H779 0.929 . S
C772 C771 1.383 . S
C772 C773 1.377 . S
C773 H757 0.930 . S
C773 C772 1.377 . S
C773 C774 1.379 . S
C774 H758 0.931 . S
C774 C768 1.383 . S
C774 C773 1.379 . S
H775 C769 0.959 . S
H776 C769 0.961 . S
H777 C769 0.960 . S
H778 C770 0.930 . S
H779 C771 0.929 . S
H780 C788 0.929 . S
H781 C790 0.930 . S
H782 C792 0.930 . S
H783 C795 0.929 . S
H784 C798 0.930 . S
H785 C800 0.960 . S
H786 C800 0.960 . S
H787 C800 0.960 . S
C788 H780 0.929 . S
C788 C789 1.377 . S
C788 C790 1.384 . S
C789 C788 1.377 . S
C789 C795 1.390 . S
C790 H781 0.930 . S
C790 C788 1.384 . S
C790 C791 1.372 . S
C791 C790 1.372 . S
C791 C792 1.400 . S
C791 C796 1.490 . S
C792 H782 0.930 . S
C792 C791 1.400 . S
C792 C795 1.386 . S
H793 C809 0.930 . S
H794 C810 0.931 . S
C795 H783 0.929 . S
C795 C789 1.390 . S
C795 C792 1.386 . S
C796 C791 1.490 . S
C796 C798 1.395 . S
C796 C799 1.403 . S
H797 C803 0.930 . S
C798 H784 0.930 . S
C798 C796 1.395 . S
C798 C801 1.403 . S
C799 C796 1.403 . S
C799 C800 1.524 . S
C799 C803 1.400 . S
C800 H785 0.960 . S
C800 H786 0.960 . S
C800 H787 0.960 . S
C800 C799 1.524 . S
C801 C798 1.403 . S
C801 C802 1.392 . S
C801 C805 1.495 . S
C802 C801 1.392 . S
C802 C803 1.385 . S
C802 C804 1.478 . S
C803 H797 0.930 . S
C803 C799 1.400 . S
C803 C802 1.385 . S
C804 C802 1.478 . S
C804 C806 1.381 . S
C804 C810 1.383 . S
C805 C801 1.495 . S
C805 H811 0.959 . S
C805 H812 0.961 . S
C805 H813 0.960 . S
C806 C804 1.381 . S
C806 C807 1.394 . S
C806 H814 0.930 . S
C807 C806 1.394 . S
C807 C808 1.383 . S
C807 H815 0.929 . S
C808 C807 1.383 . S
C808 C809 1.377 . S
C809 H793 0.930 . S
C809 C808 1.377 . S
C809 C810 1.379 . S
C810 H794 0.931 . S
C810 C804 1.383 . S
C810 C809 1.379 . S
H811 C805 0.959 . S
H812 C805 0.961 . S
H813 C805 0.960 . S
H814 C806 0.930 . S
H815 C807 0.929 . S
H816 C824 0.929 . S
H817 C826 0.930 . S
H818 C828 0.930 . S
H819 C831 0.929 . S
H820 C834 0.938 . S
H821 C836 0.960 . S
H822 C836 0.960 . S
H823 C836 0.960 . S
C824 H816 0.929 . S
C824 C825 1.377 . S
C824 C826 1.384 . S
C825 C824 1.377 . S
C825 C831 1.390 . S
C826 H817 0.930 . S
C826 C824 1.384 . S
C826 C827 1.372 . S
C827 C826 1.372 . S
C827 C828 1.400 . S
C827 C832 1.490 . S
C828 H818 0.930 . S
C828 C827 1.400 . S
C828 C831 1.386 . S
H829 C845 0.930 . S
H830 C846 0.931 . S
C831 H819 0.929 . S
C831 C825 1.390 . S
C831 C828 1.386 . S
C832 C827 1.490 . S
C832 C834 1.395 1_655 S
C832 C835 1.403 . S
H833 C839 0.930 . S
C834 H820 0.938 . S
C834 C832 1.395 1_455 S
C834 C837 1.403 . S
C835 C832 1.403 . S
C835 C836 1.524 . S
C835 C839 1.400 1_655 S
C836 H821 0.960 . S
C836 H822 0.960 . S
C836 H823 0.960 . S
C836 C835 1.524 . S
C837 C834 1.403 . S
C837 C838 1.392 . S
C837 C841 1.495 . S
C838 C837 1.392 . S
C838 C839 1.385 . S
C838 C840 1.478 . S
C839 H833 0.930 . S
C839 C835 1.400 1_455 S
C839 C838 1.385 . S
C840 C838 1.478 . S
C840 C842 1.381 . S
C840 C846 1.383 . S
C841 C837 1.495 . S
C841 H847 0.959 . S
C841 H848 0.961 . S
C841 H849 0.960 . S
C842 C840 1.381 . S
C842 C843 1.394 . S
C842 H850 0.930 . S
C843 C842 1.394 . S
C843 C844 1.383 . S
C843 H851 0.929 . S
C844 C843 1.383 . S
C844 C845 1.377 . S
C845 H829 0.930 . S
C845 C844 1.377 . S
C845 C846 1.379 . S
C846 H830 0.931 . S
C846 C840 1.383 . S
C846 C845 1.379 . S
H847 C841 0.959 . S
H848 C841 0.961 . S
H849 C841 0.960 . S
H850 C842 0.930 . S
H851 C843 0.929 . S
H852 C860 0.929 . S
H853 C862 0.930 . S
H854 C864 0.930 . S
H855 C867 0.929 . S
H856 C870 0.930 . S
H857 C872 0.960 . S
H858 C872 0.960 . S
H859 C872 0.960 . S
C860 H852 0.929 . S
C860 C861 1.377 . S
C860 C862 1.384 . S
C861 C860 1.377 . S
C861 C867 1.390 . S
C862 H853 0.930 . S
C862 C860 1.384 . S
C862 C863 1.372 . S
C863 C862 1.372 . S
C863 C864 1.400 . S
C863 C868 1.490 . S
C864 H854 0.930 . S
C864 C863 1.400 . S
C864 C867 1.386 . S
H865 C881 0.930 . S
H866 C882 0.931 . S
C867 H855 0.929 . S
C867 C861 1.390 . S
C867 C864 1.386 . S
C868 C863 1.490 . S
C868 C870 1.395 1_545 S
C868 C871 1.403 . S
H869 C875 0.930 . S
C870 H856 0.930 . S
C870 C868 1.395 1_565 S
C870 C873 1.403 . S
C871 C868 1.403 . S
C871 C872 1.524 . S
C871 C875 1.400 1_545 S
C872 H857 0.960 . S
C872 H858 0.960 . S
C872 H859 0.960 . S
C872 C871 1.524 . S
C873 C870 1.403 . S
C873 C874 1.392 . S
C873 C877 1.495 . S
C874 C873 1.392 . S
C874 C875 1.385 . S
C874 C876 1.478 . S
C875 H869 0.930 . S
C875 C871 1.400 1_565 S
C875 C874 1.385 . S
C876 C874 1.478 . S
C876 C878 1.381 . S
C876 C882 1.383 . S
C877 C873 1.495 . S
C877 H883 0.959 . S
C877 H884 0.961 . S
C877 H885 0.960 . S
C878 C876 1.381 . S
C878 C879 1.394 . S
C878 H886 0.930 . S
C879 C878 1.394 . S
C879 C880 1.383 . S
C879 H887 0.929 . S
C880 C879 1.383 . S
C880 C881 1.377 . S
C881 H865 0.930 . S
C881 C880 1.377 . S
C881 C882 1.379 . S
C882 H866 0.931 . S
C882 C876 1.383 . S
C882 C881 1.379 . S
H883 C877 0.959 . S
H884 C877 0.961 . S
H885 C877 0.960 . S
H886 C878 0.930 . S
H887 C879 0.929 . S
H888 C896 0.929 . S
H889 C898 0.930 . S
H890 C900 0.930 . S
H891 C903 0.929 . S
H892 C906 0.930 . S
H893 C908 0.960 . S
H894 C908 0.960 . S
H895 C908 0.960 . S
C896 H888 0.929 . S
C896 C897 1.377 . S
C896 C898 1.384 . S
C897 C896 1.377 . S
C897 C903 1.390 . S
C898 H889 0.930 . S
C898 C896 1.384 . S
C898 C899 1.372 . S
C899 C898 1.372 . S
C899 C900 1.400 . S
C899 C904 1.490 . S
C900 H890 0.930 . S
C900 C899 1.400 . S
C900 C903 1.386 . S
H901 C917 0.930 . S
H902 C918 0.931 . S
C903 H891 0.929 . S
C903 C897 1.390 . S
C903 C900 1.386 . S
C904 C899 1.490 . S
C904 C906 1.395 . S
C904 C907 1.403 . S
H905 C911 0.930 . S
C906 H892 0.930 . S
C906 C904 1.395 . S
C906 C909 1.403 . S
C907 C904 1.403 . S
C907 C908 1.524 . S
C907 C911 1.400 . S
C908 H893 0.960 . S
C908 H894 0.960 . S
C908 H895 0.960 . S
C908 C907 1.524 . S
C909 C906 1.403 . S
C909 C910 1.392 . S
C909 C913 1.495 . S
C910 C909 1.392 . S
C910 C911 1.385 . S
C910 C912 1.478 . S
C911 H905 0.930 . S
C911 C907 1.400 . S
C911 C910 1.385 . S
C912 C910 1.478 . S
C912 C914 1.381 . S
C912 C918 1.383 . S
C913 C909 1.495 . S
C913 H919 0.959 . S
C913 H920 0.961 . S
C913 H921 0.960 . S
C914 C912 1.381 . S
C914 C915 1.394 . S
C914 H922 0.930 . S
C915 C914 1.394 . S
C915 C916 1.383 . S
C915 H923 0.929 . S
C916 C915 1.383 . S
C916 C917 1.377 . S
C917 H901 0.930 . S
C917 C916 1.377 . S
C917 C918 1.379 . S
C918 H902 0.931 . S
C918 C912 1.383 . S
C918 C917 1.379 . S
H919 C913 0.959 . S
H920 C913 0.961 . S
H921 C913 0.960 . S
H922 C914 0.930 . S
H923 C915 0.929 . S
H924 C932 0.929 . S
H925 C934 0.930 . S
H926 C936 0.930 . S
H927 C939 0.929 . S
H928 C942 0.930 . S
H929 C944 0.960 . S
H930 C944 0.960 . S
H931 C944 0.960 . S
C932 H924 0.929 . S
C932 C933 1.377 . S
C932 C934 1.384 . S
C933 C932 1.377 . S
C933 C939 1.390 . S
C934 H925 0.930 . S
C934 C932 1.384 . S
C934 C935 1.372 . S
C935 C934 1.372 . S
C935 C936 1.400 . S
C935 C940 1.490 . S
C936 H926 0.930 . S
C936 C935 1.400 . S
C936 C939 1.386 . S
H937 C953 0.930 . S
H938 C954 0.931 . S
C939 H927 0.929 . S
C939 C933 1.390 . S
C939 C936 1.386 . S
C940 C935 1.490 . S
C940 C942 1.395 . S
C940 C943 1.403 . S
H941 C947 0.930 . S
C942 H928 0.930 . S
C942 C940 1.395 . S
C942 C945 1.403 . S
C943 C940 1.403 . S
C943 C944 1.524 . S
C943 C947 1.400 . S
C944 H929 0.960 . S
C944 H930 0.960 . S
C944 H931 0.960 . S
C944 C943 1.524 . S
C945 C942 1.403 . S
C945 C946 1.392 . S
C945 C949 1.495 . S
C946 C945 1.392 . S
C946 C947 1.385 . S
C946 C948 1.478 . S
C947 H941 0.930 . S
C947 C943 1.400 . S
C947 C946 1.385 . S
C948 C946 1.478 . S
C948 C950 1.381 . S
C948 C954 1.383 . S
C949 C945 1.495 . S
C949 H955 0.959 . S
C949 H956 0.961 . S
C949 H957 0.960 . S
C950 C948 1.381 . S
C950 C951 1.394 . S
C950 H958 0.930 . S
C951 C950 1.394 . S
C951 C952 1.383 . S
C951 H959 0.929 . S
C952 C951 1.383 . S
C952 C953 1.377 . S
C953 H937 0.930 . S
C953 C952 1.377 . S
C953 C954 1.379 . S
C954 H938 0.931 . S
C954 C948 1.383 . S
C954 C953 1.379 . S
H955 C949 0.959 . S
H956 C949 0.961 . S
H957 C949 0.960 . S
H958 C950 0.930 . S
H959 C951 0.929 . S
H960 C968 0.929 . S
H961 C970 0.930 . S
H962 C972 0.930 . S
H963 C975 0.929 . S
H964 C978 0.930 . S
H965 C980 0.960 . S
H966 C980 0.960 . S
H967 C980 0.960 . S
C968 H960 0.929 . S
C968 C969 1.377 . S
C968 C970 1.384 . S
C969 C968 1.377 . S
C969 C975 1.390 1_455 S
C970 H961 0.930 . S
C970 C968 1.384 . S
C970 C971 1.372 . S
C971 C970 1.372 . S
C971 C972 1.400 1_455 S
C971 C976 1.490 . S
C972 H962 0.930 . S
C972 C971 1.400 1_655 S
C972 C975 1.386 . S
H973 C989 0.930 . S
H974 C990 0.931 . S
C975 H963 0.929 . S
C975 C969 1.390 1_655 S
C975 C972 1.386 . S
C976 C971 1.490 . S
C976 C978 1.395 . S
C976 C979 1.403 1_455 S
H977 C983 0.930 . S
C978 H964 0.930 . S
C978 C976 1.395 . S
C978 C981 1.403 . S
C979 C976 1.403 1_655 S
C979 C980 1.524 . S
C979 C983 1.400 . S
C980 H965 0.960 . S
C980 H966 0.960 . S
C980 H967 0.960 . S
C980 C979 1.524 . S
C981 C978 1.403 . S
C981 C982 1.392 . S
C981 C985 1.495 . S
C982 C981 1.392 . S
C982 C983 1.385 1_455 S
C982 C984 1.478 1_455 S
C983 H977 0.930 . S
C983 C979 1.400 . S
C983 C982 1.385 1_655 S
C984 C982 1.478 1_655 S
C984 C986 1.381 1_655 S
C984 C990 1.383 . S
C985 C981 1.495 . S
C985 H991 0.959 . S
C985 H992 0.961 . S
C985 H993 0.960 . S
C986 C984 1.381 1_455 S
C986 C987 1.394 . S
C986 H994 0.930 . S
C987 C986 1.394 . S
C987 C988 1.383 1_455 S
C987 H995 0.929 . S
C988 C987 1.383 1_655 S
C988 C989 1.377 . S
C989 H973 0.930 . S
C989 C988 1.377 . S
C989 C990 1.379 . S
C990 H974 0.931 . S
C990 C984 1.383 . S
C990 C989 1.379 . S
H991 C985 0.959 . S
H992 C985 0.961 . S
H993 C985 0.960 . S
H994 C986 0.930 . S
H995 C987 0.929 . S
H996 C1004 0.929 . S
H997 C1006 0.930 . S
H998 C1008 0.930 . S
H999 C1011 0.929 . S
H1000 C1014 0.930 . S
H1001 C1016 0.960 . S
H1002 C1016 0.960 . S
H1003 C1016 0.960 . S
C1004 H996 0.929 . S
C1004 C1005 1.377 1_565 S
C1004 C1006 1.384 . S
C1005 C1004 1.377 1_545 S
C1005 C1011 1.390 . S
C1006 H997 0.930 . S
C1006 C1004 1.384 . S
C1006 C1007 1.372 1_565 S
C1007 C1006 1.372 1_545 S
C1007 C1008 1.400 . S
C1007 C1012 1.490 . S
C1008 H998 0.930 . S
C1008 C1007 1.400 . S
C1008 C1011 1.386 . S
H1009 C1025 0.930 . S
H1010 C1026 0.931 . S
C1011 H999 0.929 . S
C1011 C1005 1.390 . S
C1011 C1008 1.386 . S
C1012 C1007 1.490 . S
C1012 C1014 1.395 1_545 S
C1012 C1015 1.403 . S
H1013 C1019 0.930 . S
C1014 H1000 0.930 . S
C1014 C1012 1.395 1_565 S
C1014 C1017 1.403 . S
C1015 C1012 1.403 . S
C1015 C1016 1.524 . S
C1015 C1019 1.400 . S
C1016 H1001 0.960 . S
C1016 H1002 0.960 . S
C1016 H1003 0.960 . S
C1016 C1015 1.524 . S
C1017 C1014 1.403 . S
C1017 C1018 1.392 . S
C1017 C1021 1.495 . S
C1018 C1017 1.392 . S
C1018 C1019 1.385 1_565 S
C1018 C1020 1.478 . S
C1019 H1013 0.930 . S
C1019 C1015 1.400 . S
C1019 C1018 1.385 1_545 S
C1020 C1018 1.478 . S
C1020 C1022 1.381 . S
C1020 C1026 1.383 1_565 S
C1021 C1017 1.495 . S
C1021 H1027 0.959 . S
C1021 H1028 0.961 . S
C1021 H1029 0.960 . S
C1022 C1020 1.381 . S
C1022 C1023 1.394 . S
C1022 H1030 0.930 . S
C1023 C1022 1.394 . S
C1023 C1024 1.383 . S
C1023 H1031 0.929 . S
C1024 C1023 1.383 . S
C1024 C1025 1.377 1_565 S
C1025 H1009 0.930 . S
C1025 C1024 1.377 1_545 S
C1025 C1026 1.379 . S
C1026 H1010 0.931 . S
C1026 C1020 1.383 1_545 S
C1026 C1025 1.379 . S
H1027 C1021 0.959 . S
H1028 C1021 0.961 . S
H1029 C1021 0.960 . S
H1030 C1022 0.930 . S
H1031 C1023 0.929 . S
H1032 C1040 0.929 . S
H1033 C1042 0.930 . S
H1034 C1044 0.930 . S
H1035 C1047 0.929 . S
H1036 C1050 0.930 . S
H1037 C1052 0.960 . S
H1038 C1052 0.960 . S
H1039 C1052 0.960 . S
C1040 H1032 0.929 . S
C1040 C1041 1.377 . S
C1040 C1042 1.384 . S
C1041 C1040 1.377 . S
C1041 C1047 1.390 . S
C1042 H1033 0.930 . S
C1042 C1040 1.384 . S
C1042 C1043 1.372 . S
C1043 C1042 1.372 . S
C1043 C1044 1.400 . S
C1043 C1048 1.490 . S
C1044 H1034 0.930 . S
C1044 C1043 1.400 . S
C1044 C1047 1.386 . S
H1045 C1061 0.930 . S
H1046 C1062 0.931 . S
C1047 H1035 0.929 . S
C1047 C1041 1.390 . S
C1047 C1044 1.386 . S
C1048 C1043 1.490 . S
C1048 C1050 1.395 . S
C1048 C1051 1.403 . S
H1049 C1055 0.930 . S
C1050 H1036 0.930 . S
C1050 C1048 1.395 . S
C1050 C1053 1.403 . S
C1051 C1048 1.403 . S
C1051 C1052 1.524 . S
C1051 C1055 1.400 . S
C1052 H1037 0.960 . S
C1052 H1038 0.960 . S
C1052 H1039 0.960 . S
C1052 C1051 1.524 . S
C1053 C1050 1.403 . S
C1053 C1054 1.392 . S
C1053 C1057 1.495 . S
C1054 C1053 1.392 . S
C1054 C1055 1.385 . S
C1054 C1056 1.478 . S
C1055 H1049 0.930 . S
C1055 C1051 1.400 . S
C1055 C1054 1.385 . S
C1056 C1054 1.478 . S
C1056 C1058 1.381 . S
C1056 C1062 1.383 . S
C1057 C1053 1.495 . S
C1057 H1063 0.959 . S
C1057 H1064 0.961 . S
C1057 H1065 0.960 . S
C1058 C1056 1.381 . S
C1058 C1059 1.394 . S
C1058 H1066 0.930 . S
C1059 C1058 1.394 . S
C1059 C1060 1.383 . S
C1059 H1067 0.929 . S
C1060 C1059 1.383 . S
C1060 C1061 1.377 . S
C1061 H1045 0.930 . S
C1061 C1060 1.377 . S
C1061 C1062 1.379 . S
C1062 H1046 0.931 . S
C1062 C1056 1.383 . S
C1062 C1061 1.379 . S
H1063 C1057 0.959 . S
H1064 C1057 0.961 . S
H1065 C1057 0.960 . S
H1066 C1058 0.930 . S
H1067 C1059 0.929 . S
H1068 C1076 0.929 . S
H1069 C1078 0.930 . S
H1070 C1080 0.930 . S
H1071 C1083 0.929 . S
H1072 C1086 0.930 . S
H1073 C1088 0.960 . S
H1074 C1088 0.960 . S
H1075 C1088 0.960 . S
C1076 H1068 0.929 . S
C1076 C1077 1.377 . S
C1076 C1078 1.384 . S
C1077 C1076 1.377 . S
C1077 C1083 1.390 . S
C1078 H1069 0.930 . S
C1078 C1076 1.384 . S
C1078 C1079 1.372 . S
C1079 C1078 1.372 . S
C1079 C1080 1.400 . S
C1079 C1084 1.490 . S
C1080 H1070 0.930 . S
C1080 C1079 1.400 . S
C1080 C1083 1.386 . S
H1081 C1097 0.930 . S
H1082 C1098 0.931 . S
C1083 H1071 0.929 . S
C1083 C1077 1.390 . S
C1083 C1080 1.386 . S
C1084 C1079 1.490 . S
C1084 C1086 1.395 1_655 S
C1084 C1087 1.403 . S
H1085 C1091 0.930 . S
C1086 H1072 0.930 . S
C1086 C1084 1.395 1_455 S
C1086 C1089 1.403 . S
C1087 C1084 1.403 . S
C1087 C1088 1.524 . S
C1087 C1091 1.400 . S
C1088 H1073 0.960 . S
C1088 H1074 0.960 . S
C1088 H1075 0.960 . S
C1088 C1087 1.524 . S
C1089 C1086 1.403 . S
C1089 C1090 1.392 . S
C1089 C1093 1.495 . S
C1090 C1089 1.392 . S
C1090 C1091 1.385 1_455 S
C1090 C1092 1.478 . S
C1091 H1085 0.930 . S
C1091 C1087 1.400 . S
C1091 C1090 1.385 1_655 S
C1092 C1090 1.478 . S
C1092 C1094 1.381 . S
C1092 C1098 1.383 . S
C1093 C1089 1.495 . S
C1093 H1099 0.959 . S
C1093 H1100 0.961 . S
C1093 H1101 0.960 . S
C1094 C1092 1.381 . S
C1094 C1095 1.394 . S
C1094 H1102 0.930 . S
C1095 C1094 1.394 . S
C1095 C1096 1.383 . S
C1095 H1103 0.929 . S
C1096 C1095 1.383 . S
C1096 C1097 1.377 . S
C1097 H1081 0.930 . S
C1097 C1096 1.377 . S
C1097 C1098 1.379 . S
C1098 H1082 0.931 . S
C1098 C1092 1.383 . S
C1098 C1097 1.379 . S
H1099 C1093 0.959 . S
H1100 C1093 0.961 . S
H1101 C1093 0.960 . S
H1102 C1094 0.930 . S
H1103 C1095 0.929 . S
H1104 C1112 0.929 . S
H1105 C1114 0.930 . S
H1106 C1116 0.930 . S
H1107 C1119 0.929 . S
H1108 C1122 0.930 . S
H1109 C1124 0.960 . S
H1110 C1124 0.960 . S
H1111 C1124 0.960 . S
C1112 H1104 0.929 . S
C1112 C1113 1.377 . S
C1112 C1114 1.384 . S
C1113 C1112 1.377 . S
C1113 C1119 1.390 . S
C1114 H1105 0.930 . S
C1114 C1112 1.384 . S
C1114 C1115 1.372 . S
C1115 C1114 1.372 . S
C1115 C1116 1.400 . S
C1115 C1120 1.490 . S
C1116 H1106 0.930 . S
C1116 C1115 1.400 . S
C1116 C1119 1.386 . S
H1117 C1133 0.930 . S
H1118 C1134 0.931 . S
C1119 H1107 0.929 . S
C1119 C1113 1.390 . S
C1119 C1116 1.386 . S
C1120 C1115 1.490 . S
C1120 C1122 1.395 1_565 S
C1120 C1123 1.403 . S
H1121 C1127 0.930 . S
C1122 H1108 0.930 . S
C1122 C1120 1.395 1_545 S
C1122 C1125 1.403 . S
C1123 C1120 1.403 . S
C1123 C1124 1.524 . S
C1123 C1127 1.400 . S
C1124 H1109 0.960 . S
C1124 H1110 0.960 . S
C1124 H1111 0.960 . S
C1124 C1123 1.524 . S
C1125 C1122 1.403 . S
C1125 C1126 1.392 . S
C1125 C1129 1.495 . S
C1126 C1125 1.392 . S
C1126 C1127 1.385 1_545 S
C1126 C1128 1.478 . S
C1127 H1121 0.930 . S
C1127 C1123 1.400 . S
C1127 C1126 1.385 1_565 S
C1128 C1126 1.478 . S
C1128 C1130 1.381 . S
C1128 C1134 1.383 . S
C1129 C1125 1.495 . S
C1129 H1135 0.959 . S
C1129 H1136 0.961 . S
C1129 H1137 0.960 . S
C1130 C1128 1.381 . S
C1130 C1131 1.394 . S
C1130 H1138 0.930 . S
C1131 C1130 1.394 . S
C1131 C1132 1.383 . S
C1131 H1139 0.929 . S
C1132 C1131 1.383 . S
C1132 C1133 1.377 . S
C1133 H1117 0.930 . S
C1133 C1132 1.377 . S
C1133 C1134 1.379 . S
C1134 H1118 0.931 . S
C1134 C1128 1.383 . S
C1134 C1133 1.379 . S
H1135 C1129 0.959 . S
H1136 C1129 0.961 . S
H1137 C1129 0.960 . S
H1138 C1130 0.930 . S
H1139 C1131 0.929 . S
H1140 C1148 0.929 1_565 S
H1141 C1150 0.930 . S
H1142 C1152 0.930 . S
H1143 C1155 0.929 . S
H1144 C1158 0.930 . S
H1145 C1160 0.960 . S
H1146 C1160 0.960 . S
H1147 C1160 0.960 . S
C1148 H1140 0.929 1_545 S
C1148 C1149 1.377 . S
C1148 C1150 1.384 . S
C1149 C1148 1.377 . S
C1149 C1155 1.390 . S
C1150 H1141 0.930 . S
C1150 C1148 1.384 . S
C1150 C1151 1.372 . S
C1151 C1150 1.372 . S
C1151 C1152 1.400 . S
C1151 C1156 1.490 . S
C1152 H1142 0.930 . S
C1152 C1151 1.400 . S
C1152 C1155 1.386 . S
H1153 C1169 0.930 . S
H1154 C1170 0.931 . S
C1155 H1143 0.929 . S
C1155 C1149 1.390 . S
C1155 C1152 1.386 . S
C1156 C1151 1.490 . S
C1156 C1158 1.395 . S
C1156 C1159 1.403 . S
H1157 C1163 0.930 . S
C1158 H1144 0.930 . S
C1158 C1156 1.395 . S
C1158 C1161 1.403 . S
C1159 C1156 1.403 . S
C1159 C1160 1.524 . S
C1159 C1163 1.400 . S
C1160 H1145 0.960 . S
C1160 H1146 0.960 . S
C1160 H1147 0.960 . S
C1160 C1159 1.524 . S
C1161 C1158 1.403 . S
C1161 C1162 1.392 . S
C1161 C1165 1.495 . S
C1162 C1161 1.392 . S
C1162 C1163 1.385 . S
C1162 C1164 1.478 . S
C1163 H1157 0.930 . S
C1163 C1159 1.400 . S
C1163 C1162 1.385 . S
C1164 C1162 1.478 . S
C1164 C1166 1.381 . S
C1164 C1170 1.383 . S
C1165 C1161 1.495 . S
C1165 H1171 0.959 . S
C1165 H1172 0.961 . S
C1165 H1173 0.960 . S
C1166 C1164 1.381 . S
C1166 C1167 1.394 . S
C1166 H1174 0.930 . S
C1167 C1166 1.394 . S
C1167 C1168 1.383 . S
C1167 H1175 0.929 . S
C1168 C1167 1.383 . S
C1168 C1169 1.377 . S
C1169 H1153 0.930 . S
C1169 C1168 1.377 . S
C1169 C1170 1.379 . S
C1170 H1154 0.931 . S
C1170 C1164 1.383 . S
C1170 C1169 1.379 . S
H1171 C1165 0.959 . S
H1172 C1165 0.961 . S
H1173 C1165 0.960 . S
H1174 C1166 0.930 . S
H1175 C1167 0.929 . S
H1176 C1184 0.929 . S
H1177 C1186 0.930 . S
H1178 C1188 0.930 . S
H1179 C1191 0.929 . S
H1180 C1194 0.930 . S
H1181 C1196 0.960 . S
H1182 C1196 0.960 . S
H1183 C1196 0.960 . S
C1184 H1176 0.929 . S
C1184 C1185 1.377 . S
C1184 C1186 1.384 . S
C1185 C1184 1.377 . S
C1185 C1191 1.390 . S
C1186 H1177 0.930 . S
C1186 C1184 1.384 . S
C1186 C1187 1.372 . S
C1187 C1186 1.372 . S
C1187 C1188 1.400 . S
C1187 C1192 1.490 . S
C1188 H1178 0.930 . S
C1188 C1187 1.400 . S
C1188 C1191 1.386 . S
H1189 C1205 0.930 . S
H1190 C1206 0.931 . S
C1191 H1179 0.929 . S
C1191 C1185 1.390 . S
C1191 C1188 1.386 . S
C1192 C1187 1.490 . S
C1192 C1194 1.395 . S
C1192 C1195 1.403 . S
H1193 C1199 0.930 . S
C1194 H1180 0.930 . S
C1194 C1192 1.395 . S
C1194 C1197 1.403 . S
C1195 C1192 1.403 . S
C1195 C1196 1.524 . S
C1195 C1199 1.400 . S
C1196 H1181 0.960 . S
C1196 H1182 0.960 . S
C1196 H1183 0.960 . S
C1196 C1195 1.524 . S
C1197 C1194 1.403 . S
C1197 C1198 1.392 . S
C1197 C1201 1.495 . S
C1198 C1197 1.392 . S
C1198 C1199 1.385 . S
C1198 C1200 1.478 . S
C1199 H1193 0.930 . S
C1199 C1195 1.400 . S
C1199 C1198 1.385 . S
C1200 C1198 1.478 . S
C1200 C1202 1.381 . S
C1200 C1206 1.383 . S
C1201 C1197 1.495 . S
C1201 H1207 0.959 . S
C1201 H1208 0.961 . S
C1201 H1209 0.960 . S
C1202 C1200 1.381 . S
C1202 C1203 1.394 . S
C1202 H1210 0.930 . S
C1203 C1202 1.394 . S
C1203 C1204 1.383 . S
C1203 H1211 0.929 . S
C1204 C1203 1.383 . S
C1204 C1205 1.377 . S
C1205 H1189 0.930 . S
C1205 C1204 1.377 . S
C1205 C1206 1.379 . S
C1206 H1190 0.931 . S
C1206 C1200 1.383 . S
C1206 C1205 1.379 . S
H1207 C1201 0.959 . S
H1208 C1201 0.961 . S
H1209 C1201 0.960 . S
H1210 C1202 0.930 . S
H1211 C1203 0.929 . S
H1212 C1220 0.929 . S
H1213 C1222 0.930 . S
H1214 C1224 0.930 . S
H1215 C1227 0.929 1_455 S
H1216 C1230 0.930 . S
H1217 C1232 0.960 . S
H1218 C1232 0.960 . S
H1219 C1232 0.960 . S
C1220 H1212 0.929 . S
C1220 C1221 1.377 . S
C1220 C1222 1.384 . S
C1221 C1220 1.377 . S
C1221 C1227 1.390 . S
C1222 H1213 0.930 . S
C1222 C1220 1.384 . S
C1222 C1223 1.372 . S
C1223 C1222 1.372 . S
C1223 C1224 1.400 . S
C1223 C1228 1.490 . S
C1224 H1214 0.930 . S
C1224 C1223 1.400 . S
C1224 C1227 1.386 . S
H1225 C1241 0.930 . S
H1226 C1242 0.931 . S
C1227 H1215 0.929 1_655 S
C1227 C1221 1.390 . S
C1227 C1224 1.386 . S
C1228 C1223 1.490 . S
C1228 C1230 1.395 . S
C1228 C1231 1.403 . S
H1229 C1235 0.930 . S
C1230 H1216 0.930 . S
C1230 C1228 1.395 . S
C1230 C1233 1.403 . S
C1231 C1228 1.403 . S
C1231 C1232 1.524 . S
C1231 C1235 1.400 . S
C1232 H1217 0.960 . S
C1232 H1218 0.960 . S
C1232 H1219 0.960 . S
C1232 C1231 1.524 . S
C1233 C1230 1.403 . S
C1233 C1234 1.392 . S
C1233 C1237 1.495 . S
C1234 C1233 1.392 . S
C1234 C1235 1.385 . S
C1234 C1236 1.478 . S
C1235 H1229 0.930 . S
C1235 C1231 1.400 . S
C1235 C1234 1.385 . S
C1236 C1234 1.478 . S
C1236 C1238 1.381 . S
C1236 C1242 1.383 . S
C1237 C1233 1.495 . S
C1237 H1243 0.959 . S
C1237 H1244 0.961 . S
C1237 H1245 0.960 . S
C1238 C1236 1.381 . S
C1238 C1239 1.394 . S
C1238 H1246 0.930 . S
C1239 C1238 1.394 . S
C1239 C1240 1.383 . S
C1239 H1247 0.929 . S
C1240 C1239 1.383 . S
C1240 C1241 1.377 . S
C1241 H1225 0.930 . S
C1241 C1240 1.377 . S
C1241 C1242 1.379 . S
C1242 H1226 0.931 . S
C1242 C1236 1.383 . S
C1242 C1241 1.379 . S
H1243 C1237 0.959 . S
H1244 C1237 0.961 . S
H1245 C1237 0.960 . S
H1246 C1238 0.930 . S
H1247 C1239 0.929 . S
H1248 C1256 0.929 . S
H1249 C1258 0.930 . S
H1250 C1260 0.930 . S
H1251 C1263 0.929 . S
H1252 C1266 0.930 . S
H1253 C1268 0.960 . S
H1254 C1268 0.960 . S
H1255 C1268 0.960 . S
C1256 H1248 0.929 . S
C1256 C1257 1.377 . S
C1256 C1258 1.384 . S
C1257 C1256 1.377 . S
C1257 C1263 1.390 . S
C1258 H1249 0.930 . S
C1258 C1256 1.384 . S
C1258 C1259 1.372 . S
C1259 C1258 1.372 . S
C1259 C1260 1.400 . S
C1259 C1264 1.490 . S
C1260 H1250 0.930 . S
C1260 C1259 1.400 . S
C1260 C1263 1.386 . S
H1261 C1277 0.930 . S
H1262 C1278 0.931 . S
C1263 H1251 0.929 . S
C1263 C1257 1.390 . S
C1263 C1260 1.386 . S
C1264 C1259 1.490 . S
C1264 C1266 1.395 . S
C1264 C1267 1.403 . S
H1265 C1271 0.930 . S
C1266 H1252 0.930 . S
C1266 C1264 1.395 . S
C1266 C1269 1.403 . S
C1267 C1264 1.403 . S
C1267 C1268 1.524 . S
C1267 C1271 1.400 . S
C1268 H1253 0.960 . S
C1268 H1254 0.960 . S
C1268 H1255 0.960 . S
C1268 C1267 1.524 . S
C1269 C1266 1.403 . S
C1269 C1270 1.392 . S
C1269 C1273 1.495 . S
C1270 C1269 1.392 . S
C1270 C1271 1.385 . S
C1270 C1272 1.478 . S
C1271 H1265 0.930 . S
C1271 C1267 1.400 . S
C1271 C1270 1.385 . S
C1272 C1270 1.478 . S
C1272 C1274 1.381 . S
C1272 C1278 1.383 . S
C1273 C1269 1.495 . S
C1273 H1279 0.959 . S
C1273 H1280 0.961 . S
C1273 H1281 0.960 . S
C1274 C1272 1.381 . S
C1274 C1275 1.394 . S
C1274 H1282 0.930 . S
C1275 C1274 1.394 . S
C1275 C1276 1.383 . S
C1275 H1283 0.929 . S
C1276 C1275 1.383 . S
C1276 C1277 1.377 . S
C1277 H1261 0.930 . S
C1277 C1276 1.377 . S
C1277 C1278 1.379 . S
C1278 H1262 0.931 . S
C1278 C1272 1.383 . S
C1278 C1277 1.379 . S
H1279 C1273 0.959 . S
H1280 C1273 0.961 . S
H1281 C1273 0.960 . S
H1282 C1274 0.930 . S
H1283 C1275 0.929 . S
H1284 C1292 0.929 . S
H1285 C1294 0.930 . S
H1286 C1296 0.930 . S
H1287 C1299 0.929 . S
H1288 C1302 0.930 . S
H1289 C1304 0.960 . S
H1290 C1304 0.960 . S
H1291 C1304 0.960 . S
C1292 H1284 0.929 . S
C1292 C1293 1.377 . S
C1292 C1294 1.384 . S
C1293 C1292 1.377 . S
C1293 C1299 1.390 . S
C1294 H1285 0.930 . S
C1294 C1292 1.384 . S
C1294 C1295 1.372 . S
C1295 C1294 1.372 . S
C1295 C1296 1.400 . S
C1295 C1300 1.490 . S
C1296 H1286 0.930 . S
C1296 C1295 1.400 . S
C1296 C1299 1.386 . S
H1297 C1313 0.930 . S
H1298 C1314 0.931 . S
C1299 H1287 0.929 . S
C1299 C1293 1.390 . S
C1299 C1296 1.386 . S
C1300 C1295 1.490 . S
C1300 C1302 1.395 . S
C1300 C1303 1.403 . S
H1301 C1307 0.930 . S
C1302 H1288 0.930 . S
C1302 C1300 1.395 . S
C1302 C1305 1.403 . S
C1303 C1300 1.403 . S
C1303 C1304 1.524 . S
C1303 C1307 1.400 . S
C1304 H1289 0.960 . S
C1304 H1290 0.960 . S
C1304 H1291 0.960 . S
C1304 C1303 1.524 . S
C1305 C1302 1.403 . S
C1305 C1306 1.392 . S
C1305 C1309 1.495 . S
C1306 C1305 1.392 . S
C1306 C1307 1.385 . S
C1306 C1308 1.478 . S
C1307 H1301 0.930 . S
C1307 C1303 1.400 . S
C1307 C1306 1.385 . S
C1308 C1306 1.478 . S
C1308 C1310 1.381 . S
C1308 C1314 1.383 . S
C1309 C1305 1.495 . S
C1309 H1315 0.959 . S
C1309 H1316 0.961 . S
C1309 H1317 0.960 . S
C1310 C1308 1.381 . S
C1310 C1311 1.394 . S
C1310 H1318 0.930 . S
C1311 C1310 1.394 . S
C1311 C1312 1.383 . S
C1311 H1319 0.929 . S
C1312 C1311 1.383 . S
C1312 C1313 1.377 . S
C1313 H1297 0.930 . S
C1313 C1312 1.377 . S
C1313 C1314 1.379 . S
C1314 H1298 0.931 . S
C1314 C1308 1.383 . S
C1314 C1313 1.379 . S
H1315 C1309 0.959 . S
H1316 C1309 0.961 . S
H1317 C1309 0.960 . S
H1318 C1310 0.930 . S
H1319 C1311 0.929 . S
H1320 C1328 0.929 . S
H1321 C1330 0.930 . S
H1322 C1332 0.930 . S
H1323 C1335 0.929 . S
H1324 C1338 0.930 . S
H1325 C1340 0.960 . S
H1326 C1340 0.960 . S
H1327 C1340 0.960 . S
C1328 H1320 0.929 . S
C1328 C1329 1.377 . S
C1328 C1330 1.384 . S
C1329 C1328 1.377 . S
C1329 C1335 1.390 . S
C1330 H1321 0.930 . S
C1330 C1328 1.384 . S
C1330 C1331 1.372 . S
C1331 C1330 1.372 . S
C1331 C1332 1.400 . S
C1331 C1336 1.490 . S
C1332 H1322 0.930 . S
C1332 C1331 1.400 . S
C1332 C1335 1.386 . S
H1333 C1349 0.930 1_655 S
H1334 C1350 0.931 . S
C1335 H1323 0.929 . S
C1335 C1329 1.390 . S
C1335 C1332 1.386 . S
C1336 C1331 1.490 . S
C1336 C1338 1.395 . S
C1336 C1339 1.403 . S
H1337 C1343 0.930 . S
C1338 H1324 0.930 . S
C1338 C1336 1.395 . S
C1338 C1341 1.403 . S
C1339 C1336 1.403 . S
C1339 C1340 1.524 . S
C1339 C1343 1.400 . S
C1340 H1325 0.960 . S
C1340 H1326 0.960 . S
C1340 H1327 0.960 . S
C1340 C1339 1.524 . S
C1341 C1338 1.403 . S
C1341 C1342 1.392 . S
C1341 C1345 1.495 . S
C1342 C1341 1.392 . S
C1342 C1343 1.385 . S
C1342 C1344 1.478 . S
C1343 H1337 0.930 . S
C1343 C1339 1.400 . S
C1343 C1342 1.385 . S
C1344 C1342 1.478 . S
C1344 C1346 1.381 . S
C1344 C1350 1.383 . S
C1345 C1341 1.495 . S
C1345 H1351 0.959 . S
C1345 H1352 0.961 . S
C1345 H1353 0.960 . S
C1346 C1344 1.381 . S
C1346 C1347 1.394 . S
C1346 H1354 0.930 . S
C1347 C1346 1.394 . S
C1347 C1348 1.383 . S
C1347 H1355 0.929 . S
C1348 C1347 1.383 . S
C1348 C1349 1.377 . S
C1349 H1333 0.930 1_455 S
C1349 C1348 1.377 . S
C1349 C1350 1.379 . S
C1350 H1334 0.931 . S
C1350 C1344 1.383 . S
C1350 C1349 1.379 . S
H1351 C1345 0.959 . S
H1352 C1345 0.961 . S
H1353 C1345 0.960 . S
H1354 C1346 0.930 . S
H1355 C1347 0.929 . S
H1356 C1364 0.929 . S
H1357 C1366 0.930 . S
H1358 C1368 0.930 . S
H1359 C1371 0.929 . S
H1360 C1374 0.930 . S
H1361 C1376 0.960 . S
H1362 C1376 0.960 . S
H1363 C1376 0.960 . S
C1364 H1356 0.929 . S
C1364 C1365 1.377 . S
C1364 C1366 1.384 . S
C1365 C1364 1.377 . S
C1365 C1371 1.390 . S
C1366 H1357 0.930 . S
C1366 C1364 1.384 . S
C1366 C1367 1.372 . S
C1367 C1366 1.372 . S
C1367 C1368 1.400 . S
C1367 C1372 1.490 . S
C1368 H1358 0.930 . S
C1368 C1367 1.400 . S
C1368 C1371 1.386 . S
H1369 C1385 0.930 . S
H1370 C1386 0.931 . S
C1371 H1359 0.929 . S
C1371 C1365 1.390 . S
C1371 C1368 1.386 . S
C1372 C1367 1.490 . S
C1372 C1374 1.395 . S
C1372 C1375 1.403 . S
H1373 C1379 0.930 . S
C1374 H1360 0.930 . S
C1374 C1372 1.395 . S
C1374 C1377 1.403 . S
C1375 C1372 1.403 . S
C1375 C1376 1.524 . S
C1375 C1379 1.400 . S
C1376 H1361 0.960 . S
C1376 H1362 0.960 . S
C1376 H1363 0.960 . S
C1376 C1375 1.524 . S
C1377 C1374 1.403 . S
C1377 C1378 1.392 . S
C1377 C1381 1.495 . S
C1378 C1377 1.392 . S
C1378 C1379 1.385 . S
C1378 C1380 1.478 . S
C1379 H1373 0.930 . S
C1379 C1375 1.400 . S
C1379 C1378 1.385 . S
C1380 C1378 1.478 . S
C1380 C1382 1.381 . S
C1380 C1386 1.383 . S
C1381 C1377 1.495 . S
C1381 H1387 0.959 . S
C1381 H1388 0.961 . S
C1381 H1389 0.960 . S
C1382 C1380 1.381 . S
C1382 C1383 1.394 . S
C1382 H1390 0.930 . S
C1383 C1382 1.394 . S
C1383 C1384 1.383 . S
C1383 H1391 0.929 . S
C1384 C1383 1.383 . S
C1384 C1385 1.377 . S
C1385 H1369 0.930 . S
C1385 C1384 1.377 . S
C1385 C1386 1.379 . S
C1386 H1370 0.931 . S
C1386 C1380 1.383 . S
C1386 C1385 1.379 . S
H1387 C1381 0.959 . S
H1388 C1381 0.961 . S
H1389 C1381 0.960 . S
H1390 C1382 0.930 . S
H1391 C1383 0.929 . S
H1392 C1400 0.929 . S
H1393 C1402 0.930 . S
H1394 C1404 0.930 1_455 S
H1395 C1407 0.929 . S
H1396 C1410 0.930 . S
H1397 C1412 0.960 . S
H1398 C1412 0.960 . S
H1399 C1412 0.960 . S
C1400 H1392 0.929 . S
C1400 C1401 1.377 . S
C1400 C1402 1.384 . S
C1401 C1400 1.377 . S
C1401 C1407 1.390 . S
C1402 H1393 0.930 . S
C1402 C1400 1.384 . S
C1402 C1403 1.372 . S
C1403 C1402 1.372 . S
C1403 C1404 1.400 . S
C1403 C1408 1.490 . S
C1404 H1394 0.930 1_655 S
C1404 C1403 1.400 . S
C1404 C1407 1.386 . S
H1405 C1421 0.930 . S
H1406 C1422 0.931 . S
C1407 H1395 0.929 . S
C1407 C1401 1.390 . S
C1407 C1404 1.386 . S
C1408 C1403 1.490 . S
C1408 C1410 1.395 1_655 S
C1408 C1411 1.403 . S
H1409 C1415 0.930 . S
C1410 H1396 0.930 . S
C1410 C1408 1.395 1_455 S
C1410 C1413 1.403 . S
C1411 C1408 1.403 . S
C1411 C1412 1.524 . S
C1411 C1415 1.400 . S
C1412 H1397 0.960 . S
C1412 H1398 0.960 . S
C1412 H1399 0.960 . S
C1412 C1411 1.524 . S
C1413 C1410 1.403 . S
C1413 C1414 1.392 . S
C1413 C1417 1.495 . S
C1414 C1413 1.392 . S
C1414 C1415 1.385 1_455 S
C1414 C1416 1.478 . S
C1415 H1409 0.930 . S
C1415 C1411 1.400 . S
C1415 C1414 1.385 1_655 S
C1416 C1414 1.478 . S
C1416 C1418 1.381 . S
C1416 C1422 1.383 . S
C1417 C1413 1.495 . S
C1417 H1423 0.959 . S
C1417 H1424 0.961 . S
C1417 H1425 0.960 . S
C1418 C1416 1.381 . S
C1418 C1419 1.394 . S
C1418 H1426 0.930 1_455 S
C1419 C1418 1.394 . S
C1419 C1420 1.383 . S
C1419 H1427 0.929 . S
C1420 C1419 1.383 . S
C1420 C1421 1.377 . S
C1421 H1405 0.930 . S
C1421 C1420 1.377 . S
C1421 C1422 1.379 . S
C1422 H1406 0.931 . S
C1422 C1416 1.383 . S
C1422 C1421 1.379 . S
H1423 C1417 0.959 . S
H1424 C1417 0.961 . S
H1425 C1417 0.960 . S
H1426 C1418 0.930 1_655 S
H1427 C1419 0.929 . S
H1428 C1436 0.929 . S
H1429 C1438 0.930 . S
H1430 C1440 0.930 . S
H1431 C1443 0.929 . S
H1432 C1446 0.930 . S
H1433 C1448 0.960 1_556 S
H1434 C1448 0.960 . S
H1435 C1448 0.960 . S
C1436 H1428 0.929 . S
C1436 C1437 1.377 . S
C1436 C1438 1.384 . S
C1437 C1436 1.377 . S
C1437 C1443 1.390 . S
C1438 H1429 0.930 . S
C1438 C1436 1.384 . S
C1438 C1439 1.372 . S
C1439 C1438 1.372 . S
C1439 C1440 1.400 . S
C1439 C1444 1.490 . S
C1440 H1430 0.930 . S
C1440 C1439 1.400 . S
C1440 C1443 1.386 . S
H1441 C1457 0.930 . S
H1442 C1458 0.931 . S
C1443 H1431 0.929 . S
C1443 C1437 1.390 . S
C1443 C1440 1.386 . S
C1444 C1439 1.490 . S
C1444 C1446 1.395 1_545 S
C1444 C1447 1.403 . S
H1445 C1451 0.930 . S
C1446 H1432 0.930 . S
C1446 C1444 1.395 1_565 S
C1446 C1449 1.403 1_554 S
C1447 C1444 1.403 . S
C1447 C1448 1.524 . S
C1447 C1451 1.400 1_554 S
C1448 H1433 0.960 1_554 S
C1448 H1434 0.960 . S
C1448 H1435 0.960 . S
C1448 C1447 1.524 . S
C1449 C1446 1.403 1_556 S
C1449 C1450 1.392 . S
C1449 C1453 1.495 . S
C1450 C1449 1.392 . S
C1450 C1451 1.385 1_565 S
C1450 C1452 1.478 . S
C1451 H1445 0.930 . S
C1451 C1447 1.400 1_556 S
C1451 C1450 1.385 1_545 S
C1452 C1450 1.478 . S
C1452 C1454 1.381 . S
C1452 C1458 1.383 . S
C1453 C1449 1.495 . S
C1453 H1459 0.959 1_556 S
C1453 H1460 0.961 . S
C1453 H1461 0.960 . S
C1454 C1452 1.381 . S
C1454 C1455 1.394 . S
C1454 H1462 0.930 . S
C1455 C1454 1.394 . S
C1455 C1456 1.383 . S
C1455 H1463 0.929 . S
C1456 C1455 1.383 . S
C1456 C1457 1.377 . S
C1457 H1441 0.930 . S
C1457 C1456 1.377 . S
C1457 C1458 1.379 . S
C1458 H1442 0.931 . S
C1458 C1452 1.383 . S
C1458 C1457 1.379 . S
H1459 C1453 0.959 1_554 S
H1460 C1453 0.961 . S
H1461 C1453 0.960 . S
H1462 C1454 0.930 . S
H1463 C1455 0.929 . S
H1464 C1472 0.929 . S
H1465 C1474 0.930 . S
H1466 C1476 0.930 . S
H1467 C1479 0.929 . S
H1468 C1482 0.930 . S
H1469 C1484 0.960 . S
H1470 C1484 0.960 . S
H1471 C1484 0.960 . S
C1472 H1464 0.929 . S
C1472 C1473 1.377 . S
C1472 C1474 1.384 . S
C1473 C1472 1.377 . S
C1473 C1479 1.390 . S
C1474 H1465 0.930 . S
C1474 C1472 1.384 . S
C1474 C1475 1.372 . S
C1475 C1474 1.372 . S
C1475 C1476 1.400 . S
C1475 C1480 1.490 . S
C1476 H1466 0.930 . S
C1476 C1475 1.400 . S
C1476 C1479 1.386 . S
H1477 C1493 0.930 . S
H1478 C1494 0.931 . S
C1479 H1467 0.929 . S
C1479 C1473 1.390 . S
C1479 C1476 1.386 . S
C1480 C1475 1.490 . S
C1480 C1482 1.395 . S
C1480 C1483 1.403 . S
H1481 C1487 0.930 . S
C1482 H1468 0.930 . S
C1482 C1480 1.395 . S
C1482 C1485 1.403 . S
C1483 C1480 1.403 . S
C1483 C1484 1.524 . S
C1483 C1487 1.400 . S
C1484 H1469 0.960 . S
C1484 H1470 0.960 . S
C1484 H1471 0.960 . S
C1484 C1483 1.524 . S
C1485 C1482 1.403 . S
C1485 C1486 1.392 . S
C1485 C1489 1.495 . S
C1486 C1485 1.392 . S
C1486 C1487 1.385 . S
C1486 C1488 1.478 . S
C1487 H1481 0.930 . S
C1487 C1483 1.400 . S
C1487 C1486 1.385 . S
C1488 C1486 1.478 . S
C1488 C1490 1.381 . S
C1488 C1494 1.383 . S
C1489 C1485 1.495 . S
C1489 H1495 0.959 . S
C1489 H1496 0.961 . S
C1489 H1497 0.960 . S
C1490 C1488 1.381 . S
C1490 C1491 1.394 . S
C1490 H1498 0.930 . S
C1491 C1490 1.394 . S
C1491 C1492 1.383 . S
C1491 H1499 0.929 . S
C1492 C1491 1.383 . S
C1492 C1493 1.377 . S
C1493 H1477 0.930 . S
C1493 C1492 1.377 . S
C1493 C1494 1.379 . S
C1494 H1478 0.931 . S
C1494 C1488 1.383 . S
C1494 C1493 1.379 . S
H1495 C1489 0.959 . S
H1496 C1489 0.961 . S
H1497 C1489 0.960 . S
H1498 C1490 0.930 . S
H1499 C1491 0.929 . S
H1500 C1508 0.929 1_655 S
H1501 C1510 0.930 . S
H1502 C1512 0.930 . S
H1503 C1515 0.929 . S
H1504 C1518 0.930 . S
H1505 C1520 0.960 . S
H1506 C1520 0.960 . S
H1507 C1520 0.960 . S
C1508 H1500 0.929 1_455 S
C1508 C1509 1.377 . S
C1508 C1510 1.384 1_455 S
C1509 C1508 1.377 . S
C1509 C1515 1.390 . S
C1510 H1501 0.930 . S
C1510 C1508 1.384 1_655 S
C1510 C1511 1.372 1_655 S
C1511 C1510 1.372 1_455 S
C1511 C1512 1.400 . S
C1511 C1516 1.490 . S
C1512 H1502 0.930 . S
C1512 C1511 1.400 . S
C1512 C1515 1.386 . S
H1513 C1529 0.930 1_455 S
H1514 C1530 0.931 . S
C1515 H1503 0.929 . S
C1515 C1509 1.390 . S
C1515 C1512 1.386 . S
C1516 C1511 1.490 . S
C1516 C1518 1.395 1_455 S
C1516 C1519 1.403 . S
H1517 C1523 0.930 . S
C1518 H1504 0.930 . S
C1518 C1516 1.395 1_655 S
C1518 C1521 1.403 . S
C1519 C1516 1.403 . S
C1519 C1520 1.524 . S
C1519 C1523 1.400 . S
C1520 H1505 0.960 . S
C1520 H1506 0.960 . S
C1520 H1507 0.960 . S
C1520 C1519 1.524 . S
C1521 C1518 1.403 . S
C1521 C1522 1.392 . S
C1521 C1525 1.495 . S
C1522 C1521 1.392 . S
C1522 C1523 1.385 1_655 S
C1522 C1524 1.478 . S
C1523 H1517 0.930 . S
C1523 C1519 1.400 . S
C1523 C1522 1.385 1_455 S
C1524 C1522 1.478 . S
C1524 C1526 1.381 . S
C1524 C1530 1.383 1_655 S
C1525 C1521 1.495 . S
C1525 H1531 0.959 . S
C1525 H1532 0.961 . S
C1525 H1533 0.960 . S
C1526 C1524 1.381 . S
C1526 C1527 1.394 . S
C1526 H1534 0.930 . S
C1527 C1526 1.394 . S
C1527 C1528 1.383 . S
C1527 H1535 0.929 . S
C1528 C1527 1.383 . S
C1528 C1529 1.377 . S
C1529 H1513 0.930 1_655 S
C1529 C1528 1.377 . S
C1529 C1530 1.379 1_655 S
C1530 H1514 0.931 . S
C1530 C1524 1.383 1_455 S
C1530 C1529 1.379 1_455 S
H1531 C1525 0.959 . S
H1532 C1525 0.961 . S
H1533 C1525 0.960 . S
H1534 C1526 0.930 . S
H1535 C1527 0.929 . S
H1536 C1544 0.929 . S
H1537 C1546 0.930 1_545 S
H1538 C1548 0.930 . S
H1539 C1551 0.929 . S
H1540 C1554 0.930 . S
H1541 C1556 0.960 . S
H1542 C1556 0.960 . S
H1543 C1556 0.960 . S
C1544 H1536 0.929 . S
C1544 C1545 1.377 . S
C1544 C1546 1.384 . S
C1545 C1544 1.377 . S
C1545 C1551 1.390 . S
C1546 H1537 0.930 1_565 S
C1546 C1544 1.384 . S
C1546 C1547 1.372 . S
C1547 C1546 1.372 . S
C1547 C1548 1.400 . S
C1547 C1552 1.490 . S
C1548 H1538 0.930 . S
C1548 C1547 1.400 . S
C1548 C1551 1.386 . S
H1549 C1565 0.930 . S
H1550 C1566 0.931 1_565 S
C1551 H1539 0.929 . S
C1551 C1545 1.390 . S
C1551 C1548 1.386 . S
C1552 C1547 1.490 . S
C1552 C1554 1.395 . S
C1552 C1555 1.403 1_565 S
H1553 C1559 0.930 . S
C1554 H1540 0.930 . S
C1554 C1552 1.395 . S
C1554 C1557 1.403 1_554 S
C1555 C1552 1.403 1_545 S
C1555 C1556 1.524 . S
C1555 C1559 1.400 1_554 S
C1556 H1541 0.960 . S
C1556 H1542 0.960 . S
C1556 H1543 0.960 . S
C1556 C1555 1.524 . S
C1557 C1554 1.403 1_556 S
C1557 C1558 1.392 1_565 S
C1557 C1561 1.495 . S
C1558 C1557 1.392 1_545 S
C1558 C1559 1.385 . S
C1558 C1560 1.478 . S
C1559 H1553 0.930 . S
C1559 C1555 1.400 1_556 S
C1559 C1558 1.385 . S
C1560 C1558 1.478 . S
C1560 C1562 1.381 . S
C1560 C1566 1.383 . S
C1561 C1557 1.495 . S
C1561 H1567 0.959 . S
C1561 H1568 0.961 . S
C1561 H1569 0.960 . S
C1562 C1560 1.381 . S
C1562 C1563 1.394 . S
C1562 H1570 0.930 . S
C1563 C1562 1.394 . S
C1563 C1564 1.383 . S
C1563 H1571 0.929 . S
C1564 C1563 1.383 . S
C1564 C1565 1.377 . S
C1565 H1549 0.930 . S
C1565 C1564 1.377 . S
C1565 C1566 1.379 . S
C1566 H1550 0.931 1_545 S
C1566 C1560 1.383 . S
C1566 C1565 1.379 . S
H1567 C1561 0.959 . S
H1568 C1561 0.961 . S
H1569 C1561 0.960 . S
H1570 C1562 0.930 . S
H1571 C1563 0.929 . S
C717 C682 1.930 . S
C736 C33 1.917 . S
C753 C92 1.929 . S
C772 C387 1.915 . S
C789 C151 1.930 . S
C808 C446 1.917 . S
C825 C210 1.929 . S
C844 C505 1.915 . S
C861 C564 1.931 . S
C880 C269 1.922 . S
C897 C328 1.934 . S
C916 C623 1.938 . S
C933 C180 1.349 . S
C952 C3 1.338 . S
C969 C239 1.351 . S
C988 C62 1.346 . S
C1005 C298 1.352 . S
C1024 C121 1.349 . S
C1041 C357 1.349 . S
C1060 C534 1.339 . S
C1077 C416 1.354 . S
C1096 C593 1.359 . S
C1113 C475 1.353 . S
C1132 C652 1.359 . S
C1149 C524 0.297 . S
C1168 C52 0.270 . S
C1185 C111 0.309 . S
C1204 C583 0.347 . S
C1221 C642 0.301 . S
C1240 C170 0.372 . S
C1257 C701 0.308 . S
C1276 C229 0.339 . S
C1293 C406 0.300 . S
C1312 C288 0.371 . S
C1329 C347 0.308 . S
C1348 C465 0.329 . S
C1365 C536 1.604 . S
C1384 C5 1.612 . S
C1401 C64 1.605 . S
C1420 C595 1.609 . S
C1437 C654 1.604 . S
C1456 C123 1.612 . S
C1473 C182 1.601 . S
C1492 C359 1.605 . S
C1509 C241 1.600 . S
C1528 C418 1.599 . S
C1545 C477 1.599 . S
C1564 C300 1.587 . S
