# Generated by pormake.
# Topology qtz-a, (4)-cn, num edge types: 1
# Building blocks:
#     Node 0, Type 0, BuildingBlock: NAHDIM_clean_sbu_0, # of connection points: 4
#     Node 1, Type 0, BuildingBlock: NAHDIM_clean_sbu_0, # of connection points: 4
#     Node 2, Type 0, BuildingBlock: NAHDIM_clean_sbu_0, # of connection points: 4
#     Node 3, Type 0, BuildingBlock: NAHDIM_clean_sbu_0, # of connection points: 4
#     Node 4, Type 0, BuildingBlock: NAHDIM_clean_sbu_0, # of connection points: 4
#     Node 5, Type 0, BuildingBlock: NAHDIM_clean_sbu_0, # of connection points: 4
#     Node 6, Type 0, BuildingBlock: NAHDIM_clean_sbu_0, # of connection points: 4
#     Node 7, Type 0, BuildingBlock: NAHDIM_clean_sbu_0, # of connection points: 4
#     Node 8, Type 0, BuildingBlock: NAHDIM_clean_sbu_0, # of connection points: 4
#     Node 9, Type 0, BuildingBlock: NAHDIM_clean_sbu_0, # of connection points: 4
#     Node 10, Type 0, BuildingBlock: NAHDIM_clean_sbu_0, # of connection points: 4
#     Node 11, Type 0, BuildingBlock: NAHDIM_clean_sbu_0, # of connection points: 4
#     Edge 12, Type (0, 0), BuildingBlock: XUDNAN_clean_linker_2, # of connection points: 2
#     Edge 13, Type (0, 0), BuildingBlock: XUDNAN_clean_linker_2, # of connection points: 2
#     Edge 14, Type (0, 0), BuildingBlock: XUDNAN_clean_linker_2, # of connection points: 2
#     Edge 15, Type (0, 0), BuildingBlock: XUDNAN_clean_linker_2, # of connection points: 2
#     Edge 16, Type (0, 0), BuildingBlock: XUDNAN_clean_linker_2, # of connection points: 2
#     Edge 17, Type (0, 0), BuildingBlock: XUDNAN_clean_linker_2, # of connection points: 2
#     Edge 18, Type (0, 0), BuildingBlock: XUDNAN_clean_linker_2, # of connection points: 2
#     Edge 19, Type (0, 0), BuildingBlock: XUDNAN_clean_linker_2, # of connection points: 2
#     Edge 20, Type (0, 0), BuildingBlock: XUDNAN_clean_linker_2, # of connection points: 2
#     Edge 21, Type (0, 0), BuildingBlock: XUDNAN_clean_linker_2, # of connection points: 2
#     Edge 22, Type (0, 0), BuildingBlock: XUDNAN_clean_linker_2, # of connection points: 2
#     Edge 23, Type (0, 0), BuildingBlock: XUDNAN_clean_linker_2, # of connection points: 2
#     Edge 24, Type (0, 0), BuildingBlock: XUDNAN_clean_linker_2, # of connection points: 2
#     Edge 25, Type (0, 0), BuildingBlock: XUDNAN_clean_linker_2, # of connection points: 2
#     Edge 26, Type (0, 0), BuildingBlock: XUDNAN_clean_linker_2, # of connection points: 2
#     Edge 27, Type (0, 0), BuildingBlock: XUDNAN_clean_linker_2, # of connection points: 2
#     Edge 28, Type (0, 0), BuildingBlock: XUDNAN_clean_linker_2, # of connection points: 2
#     Edge 29, Type (0, 0), BuildingBlock: XUDNAN_clean_linker_2, # of connection points: 2
#     Edge 30, Type (0, 0), BuildingBlock: XUDNAN_clean_linker_2, # of connection points: 2
#     Edge 31, Type (0, 0), BuildingBlock: XUDNAN_clean_linker_2, # of connection points: 2
#     Edge 32, Type (0, 0), BuildingBlock: XUDNAN_clean_linker_2, # of connection points: 2
#     Edge 33, Type (0, 0), BuildingBlock: XUDNAN_clean_linker_2, # of connection points: 2
#     Edge 34, Type (0, 0), BuildingBlock: XUDNAN_clean_linker_2, # of connection points: 2
#     Edge 35, Type (0, 0), BuildingBlock: XUDNAN_clean_linker_2, # of connection points: 2
# Relax obj value: 0.793
# Max RMSD: 0.440
# Mean RMSD: 0.311
data_MOF--net-qtz-a--node1-NAHDIM_clean_sbu_0--edge1-XUDNAN_clean_linker_2
_symmetry_space_group_name_H-M    P1
_symmetry_Int_Tables_number       1
_symmetry_cell_setting            triclinic
loop_
_symmetry_equiv_pos_as_xyz
'x, y, z'
_cell_length_a     38.597696
_cell_length_b     49.596995
_cell_length_c     41.575794
_cell_angle_alpha  77.236887
_cell_angle_beta   90.047694
_cell_angle_gamma 112.97273
loop_
_atom_site_label
_atom_site_type_symbol
_atom_site_fract_x
_atom_site_fract_y
_atom_site_fract_z
_atom_type_partial_charge
C0 C 0.40575 0.03888 0.19467 0.0
O1 O 0.39886 0.01149 0.21211 0.0
O2 O 0.43053 0.98503 0.16174 0.0
Zn3 Zn 0.41447 0.01705 0.13617 0.0
O4 O 0.45689 0.04186 0.10053 0.0
C5 C 0.3572 0.97941 0.10121 0.0
O6 O 0.37346 0.96043 0.11027 0.0
O7 O 0.41174 0.04499 0.16335 0.0
C8 C 0.46889 0.02931 0.08221 0.0
O9 O 0.45279 -0.00012 0.08649 0.0
C10 C 0.46153 0.99608 0.17433 0.0
O11 O 0.47616 0.02514 0.17288 0.0
O12 O 0.36784 0.00302 0.11223 0.0
C13 C 0.12347 0.33736 0.41514 0.0
O14 O 0.10514 0.33507 0.38856 0.0
O15 O 0.21567 0.3075 0.40101 0.0
Zn16 Zn 0.17227 0.31725 0.38251 0.0
O17 O 0.19377 0.35178 0.34128 0.0
C18 C 0.13016 0.25765 0.36561 0.0
O19 O 0.0982 0.23494 0.36472 0.0
O20 O 0.15233 0.33096 0.41749 0.0
C21 C 0.19727 0.37876 0.33914 0.0
O22 O 0.18421 0.38532 0.36419 0.0
C23 C 0.24214 0.32924 0.40907 0.0
O24 O 0.23906 0.35523 0.4049 0.0
O25 O 0.12911 0.28043 0.37421 0.0
C26 C 0.88564 0.41575 0.88965 0.0
O27 O 0.87877 0.43098 0.86209 0.0
O28 O 0.9491 0.48753 0.94016 0.0
Zn29 Zn 0.91667 0.47441 0.90335 0.0
O30 O 0.86874 0.48113 0.90874 0.0
C31 C 0.9743 0.48331 0.85793 0.0
O32 O 0.98002 0.46723 0.88545 0.0
O33 O 0.90095 0.42953 0.91168 0.0
C34 C 0.85569 0.50059 0.89617 0.0
O35 O 0.82261 0.49744 0.90841 0.0
C36 C 0.98081 0.50946 0.93895 0.0
O37 O 0.9979 0.5117 0.96617 0.0
O38 O 0.94659 0.49113 0.85828 0.0
C39 C 0.65369 0.83792 0.1243 0.0
O40 O 0.67421 0.85529 0.14288 0.0
O41 O 0.64506 0.90781 0.12636 0.0
Zn42 Zn 0.65725 0.89455 0.08666 0.0
O43 O 0.6261 0.90547 0.05136 0.0
C44 C 0.73014 0.9446 0.0689 0.0
O45 O 0.72091 0.95282 0.09444 0.0
O46 O 0.64396 0.84994 0.09758 0.0
C47 C 0.59241 0.90326 0.05555 0.0
O48 O 0.57342 0.89039 0.08483 0.0
C49 C 0.6154 0.89036 0.14556 0.0
O50 O 0.59697 0.86286 0.14186 0.0
O51 O 0.70987 0.91873 0.0645 0.0
C52 C 0.6153 0.44521 0.51879 0.0
O53 O 0.63683 0.4415 0.49715 0.0
O54 O 0.50675 0.38207 0.49074 0.0
Zn55 Zn 0.56359 0.40434 0.48794 0.0
O56 O 0.59114 0.37621 0.49621 0.0
C57 C 0.57046 0.45641 0.43958 0.0
O58 O 0.55867 0.46194 0.46605 0.0
O59 O 0.57976 0.43027 0.52093 0.0
C60 C 0.59897 0.3617 0.47769 0.0
O61 O 0.61465 0.34294 0.49007 0.0
C62 C 0.48969 0.35472 0.48921 0.0
O63 O 0.50902 0.33793 0.49021 0.0
O64 O 0.57659 0.43261 0.44255 0.0
C65 C 0.24528 0.75375 0.73187 0.0
O66 O 0.25389 0.73168 0.72726 0.0
O67 O 0.14588 0.6848 0.73292 0.0
Zn68 Zn 0.18086 0.72275 0.70052 0.0
O69 O 0.21355 0.71443 0.66948 0.0
C70 C 0.13422 0.72674 0.64787 0.0
O71 O 0.1499 0.71047 0.63779 0.0
O72 O 0.21402 0.75454 0.72317 0.0
C73 C 0.22553 0.69355 0.67664 0.0
O74 O 0.21724 0.67587 0.70662 0.0
C75 C 0.15233 0.6699 0.75952 0.0
O76 O 0.1866 0.67876 0.76913 0.0
O77 O 0.14483 0.73656 0.67357 0.0
C78 C 0.7795 0.60629 0.61861 0.0
O79 O 0.77281 0.62055 0.63939 0.0
O80 O 0.90315 0.64592 0.59126 0.0
Zn81 Zn 0.86002 0.64404 0.61991 0.0
O82 O 0.86807 0.62727 0.66692 0.0
C83 C 0.87927 0.71057 0.60855 0.0
O84 O 0.86931 0.73312 0.60798 0.0
O85 O 0.81337 0.61305 0.60783 0.0
C86 C 0.88147 0.64218 0.68852 0.0
O87 O 0.88933 0.67119 0.68151 0.0
C88 C 0.90034 0.64271 0.56173 0.0
O89 O 0.86901 0.64058 0.548 0.0
O90 O 0.85388 0.68386 0.61381 0.0
C91 C 0.3985 0.93494 0.80737 0.0
O92 O 0.43456 0.94586 0.81205 0.0
O93 O 0.4325 0.02126 0.80385 0.0
Zn94 Zn 0.40181 0.98239 0.83656 0.0
O95 O 0.44134 0.975 0.86418 0.0
C96 C 0.34225 0.99585 0.87289 0.0
O97 O 0.3394 0.01606 0.84785 0.0
O98 O 0.37795 0.94773 0.81502 0.0
C99 C 0.43339 0.95939 0.89387 0.0
O100 O 0.39796 0.9461 0.90646 0.0
C101 C 0.44167 0.04668 0.81083 0.0
O102 O 0.42422 0.04848 0.83686 0.0
O103 O 0.3645 0.98312 0.86977 0.0
C104 C 0.44243 0.22689 0.25708 0.0
O105 O 0.43712 0.23191 0.28605 0.0
O106 O 0.44558 0.31455 0.19542 0.0
Zn107 Zn 0.44116 0.28417 0.23815 0.0
O108 O 0.47781 0.30268 0.26948 0.0
C109 C 0.3769 0.28842 0.26721 0.0
O110 O 0.39751 0.31744 0.25648 0.0
O111 O 0.44684 0.24745 0.23106 0.0
C112 C 0.4912 0.33055 0.26938 0.0
O113 O 0.48269 0.34946 0.24673 0.0
C114 C 0.4771 0.33339 0.17994 0.0
O115 O 0.50854 0.33207 0.19074 0.0
O116 O 0.38951 0.26968 0.26148 0.0
C117 C 0.08487 0.47388 0.53269 0.0
O118 O 0.06136 0.48562 0.51974 0.0
O119 O 0.08206 0.54542 0.54857 0.0
Zn120 Zn 0.11238 0.52218 0.56936 0.0
O121 O 0.16654 0.5503 0.56567 0.0
C122 C 0.08713 0.52686 0.6317 0.0
O123 O 0.08694 0.55188 0.61304 0.0
O124 O 0.1072 0.48591 0.55276 0.0
C125 C 0.18592 0.57146 0.5412 0.0
O126 O 0.17117 0.57461 0.51284 0.0
C127 C 0.0761 0.55606 0.5194 0.0
O128 O 0.09033 0.55104 0.49376 0.0
O129 O 0.09649 0.50956 0.61848 0.0
C130 C 0.79925 0.20204 0.88746 0.0
O131 O 0.79615 0.17918 0.91205 0.0
O132 O 0.71889 0.1455 0.82642 0.0
Zn133 Zn 0.74877 0.15299 0.86565 0.0
O134 O 0.70896 0.14158 0.90289 0.0
C135 C 0.76784 0.09995 0.87856 0.0
O136 O 0.7398 0.08856 0.86101 0.0
O137 O 0.78201 0.19672 0.86202 0.0
C138 C 0.68073 0.11632 0.90866 0.0
O139 O 0.67799 0.09735 0.89023 0.0
C140 C 0.70299 0.16368 0.81697 0.0
O141 O 0.71321 0.18796 0.82861 0.0
O142 O 0.77776 0.12708 0.88062 0.0
C143 C 0.50562 0.61946 0.1727 0.0
O144 O 0.48669 0.60171 0.2009 0.0
O145 O 0.49842 0.54079 0.13319 0.0
Zn146 Zn 0.48502 0.56238 0.16366 0.0
O147 O 0.42862 0.54519 0.17573 0.0
C148 C 0.51857 0.53221 0.2162 0.0
O149 O 0.51574 0.51332 0.19763 0.0
O150 O 0.50736 0.60773 0.14877 0.0
C151 C 0.4125 0.51661 0.18508 0.0
O152 O 0.43269 0.50067 0.18426 0.0
C153 C 0.47617 0.5278 0.11359 0.0
O154 O 0.44565 0.53312 0.10803 0.0
O155 O 0.50753 0.5534 0.20631 0.0
H156 H 0.4988 0.01038 0.03595 0.0
H157 H 0.51261 0.08952 0.07191 0.0
H158 H 0.56787 0.12004 0.03114 0.0
H159 H 0.59779 0.02728 0.02132 0.0
H160 H 0.59266 0.01355 0.98416 0.0
H161 H 0.55406 0.99777 0.01617 0.0
H162 H 0.51065 0.01038 0.97324 0.0
H163 H 0.54934 0.02664 0.94123 0.0
H164 H 0.52421 0.04868 0.9495 0.0
H165 H 0.62225 0.14172 0.98829 0.0
H166 H 0.6719 0.15403 0.94373 0.0
H167 H 0.62244 0.06137 0.93416 0.0
C168 C 0.51341 0.03414 0.0352 0.0
C169 C 0.50142 0.04758 0.05715 0.0
C170 C 0.52122 0.07874 0.05533 0.0
C171 C 0.55268 0.09627 0.0323 0.0
C172 C 0.56385 0.08234 0.01117 0.0
C173 C 0.54482 0.05204 0.01222 0.0
C174 C 0.56284 0.04278 0.98653 0.0
C175 C 0.57772 0.01895 0.00304 0.0
C176 C 0.5351 0.03146 0.96113 0.0
C177 C 0.59501 0.0727 0.97104 0.0
C178 C 0.59509 0.0951 0.98578 0.0
C179 C 0.62246 0.12446 0.97638 0.0
C180 C 0.65059 0.1312 0.95111 0.0
C181 C 0.65099 0.1087 0.93543 0.0
C182 C 0.62274 0.07909 0.94555 0.0
H183 H 0.36915 0.45631 0.20122 0.0
H184 H 0.36756 0.54247 0.20523 0.0
H185 H 0.30606 0.51591 0.23933 0.0
H186 H 0.26462 0.41443 0.20138 0.0
H187 H 0.26567 0.38056 0.22739 0.0
H188 H 0.30584 0.40611 0.1985 0.0
H189 H 0.34927 0.41003 0.246 0.0
H190 H 0.30975 0.38504 0.27539 0.0
H191 H 0.33844 0.42174 0.28149 0.0
H192 H 0.25041 0.47981 0.2805 0.0
H193 H 0.20507 0.43771 0.32342 0.0
H194 H 0.24355 0.37563 0.29176 0.0
C195 C 0.35539 0.46966 0.20843 0.0
C196 C 0.3731 0.50144 0.20056 0.0
C197 C 0.35436 0.51807 0.21078 0.0
C198 C 0.31939 0.50317 0.23014 0.0
C199 C 0.30336 0.47169 0.23854 0.0
C200 C 0.32057 0.45518 0.22754 0.0
C201 C 0.29988 0.42179 0.24263 0.0
C202 C 0.28301 0.40472 0.21588 0.0
C203 C 0.32593 0.40895 0.26255 0.0
C204 C 0.26923 0.42204 0.26502 0.0
C205 C 0.27129 0.45096 0.26202 0.0
C206 C 0.24802 0.45701 0.2825 0.0
C207 C 0.22245 0.43296 0.3069 0.0
C208 C 0.22048 0.40327 0.31072 0.0
C209 C 0.24371 0.39785 0.28897 0.0
H210 H 0.87014 0.58274 0.70992 0.0
H211 H 0.90769 0.66675 0.74127 0.0
H212 H 0.91548 0.64029 0.79676 0.0
H213 H 0.8151 0.53667 0.78184 0.0
H214 H 0.82666 0.50488 0.78134 0.0
H215 H 0.82904 0.53127 0.74317 0.0
H216 H 0.89891 0.54018 0.72997 0.0
H217 H 0.89663 0.51391 0.76845 0.0
H218 H 0.93255 0.55181 0.75951 0.0
H219 H 0.90987 0.60344 0.85068 0.0
H220 H 0.89095 0.55909 0.89842 0.0
H221 H 0.86079 0.49966 0.83156 0.0
C222 C 0.88058 0.59573 0.72826 0.0
C223 C 0.88817 0.62682 0.72126 0.0
C224 C 0.90161 0.6429 0.74605 0.0
C225 C 0.90635 0.6281 0.77759 0.0
C226 C 0.89807 0.59732 0.78381 0.0
C227 C 0.88569 0.58137 0.75974 0.0
C228 C 0.87584 0.54806 0.77338 0.0
C229 C 0.8342 0.52912 0.76973 0.0
C230 C 0.90258 0.53791 0.75682 0.0
C231 C 0.8829 0.54746 0.80928 0.0
C232 C 0.89624 0.57619 0.81473 0.0
C233 C 0.90059 0.58098 0.84656 0.0
C234 C 0.88994 0.55576 0.87349 0.0
C235 C 0.87586 0.52629 0.86831 0.0
C236 C 0.87318 0.52212 0.83586 0.0
H237 H 0.51913 0.89806 0.05372 0.0
H238 H 0.62798 0.93924 0.99525 0.0
H239 H 0.60007 0.96163 0.94897 0.0
H240 H 0.46441 0.87714 0.98929 0.0
H241 H 0.42561 0.88493 0.00269 0.0
H242 H 0.45493 0.8748 0.03251 0.0
H243 H 0.46943 0.92402 0.05207 0.0
H244 H 0.4397 0.93396 0.02242 0.0
H245 H 0.48795 0.95978 0.02208 0.0
H246 H 0.55974 0.97688 0.90799 0.0
H247 H 0.50918 0.98261 0.87446 0.0
H248 H 0.42643 0.93036 0.95924 0.0
C249 C 0.53717 0.91199 0.0313 0.0
C250 C 0.57567 0.9168 0.02801 0.0
C251 C 0.59832 0.93508 0.99821 0.0
C252 C 0.58282 0.94807 0.97188 0.0
C253 C 0.54465 0.94259 0.97578 0.0
C254 C 0.52211 0.92501 0.00473 0.0
C255 C 0.48141 0.92101 0.00177 0.0
C256 C 0.45505 0.88748 0.00685 0.0
C257 C 0.4689 0.93556 0.02603 0.0
C258 C 0.4844 0.93824 0.96627 0.0
C259 C 0.52122 0.95097 0.95192 0.0
C260 C 0.5308 0.96715 0.91899 0.0
C261 C 0.50188 0.97019 0.90011 0.0
C262 C 0.46382 0.95679 0.91418 0.0
C263 C 0.45521 0.94089 0.94777 0.0
H264 H 0.55084 0.316 0.45353 0.0
H265 H 0.62432 0.41097 0.42559 0.0
H266 H 0.60647 0.41336 0.36793 0.0
H267 H 0.56826 0.29759 0.37804 0.0
H268 H 0.52008 0.27152 0.37819 0.0
H269 H 0.53936 0.27751 0.41672 0.0
H270 H 0.48469 0.29159 0.4324 0.0
H271 H 0.46513 0.2857 0.39396 0.0
H272 H 0.47623 0.32133 0.40451 0.0
H273 H 0.57869 0.4051 0.31389 0.0
H274 H 0.54303 0.38744 0.26786 0.0
H275 H 0.48892 0.29745 0.33172 0.0
C276 C 0.56289 0.33731 0.43522 0.0
C277 C 0.588 0.36355 0.44379 0.0
C278 C 0.60394 0.39096 0.4194 0.0
C279 C 0.59419 0.39242 0.3867 0.0
C280 C 0.56849 0.36623 0.37913 0.0
C281 C 0.55307 0.3392 0.40273 0.0
C282 C 0.52571 0.31439 0.38852 0.0
C283 C 0.53918 0.28875 0.39049 0.0
C284 C 0.48557 0.30257 0.40587 0.0
C285 C 0.52825 0.3316 0.35312 0.0
C286 C 0.553 0.36146 0.34814 0.0
C287 C 0.55913 0.38186 0.31755 0.0
C288 C 0.53887 0.37161 0.29157 0.0
C289 C 0.51354 0.34108 0.29624 0.0
C290 C 0.50853 0.32084 0.32733 0.0
H291 H 0.22405 0.57038 0.59573 0.0
H292 H 0.21846 0.62998 0.50442 0.0
H293 H 0.25116 0.6737 0.52782 0.0
H294 H 0.1905 0.59645 0.64272 0.0
H295 H 0.21767 0.59432 0.67779 0.0
H296 H 0.21285 0.57006 0.65062 0.0
H297 H 0.2855 0.58993 0.63952 0.0
H298 H 0.29081 0.61404 0.66755 0.0
H299 H 0.31339 0.6299 0.62585 0.0
H300 H 0.25955 0.7066 0.56545 0.0
H301 H 0.24561 0.72519 0.61188 0.0
H302 H 0.24323 0.6449 0.68097 0.0
C303 C 0.23176 0.59281 0.58007 0.0
C304 C 0.21831 0.59683 0.54855 0.0
C305 C 0.22854 0.62634 0.52865 0.0
C306 C 0.2472 0.65138 0.54185 0.0
C307 C 0.25577 0.64648 0.57473 0.0
C308 C 0.24928 0.61781 0.59339 0.0
C309 C 0.25208 0.61725 0.62989 0.0
C310 C 0.21614 0.59315 0.65144 0.0
C311 C 0.28757 0.61251 0.64137 0.0
C312 C 0.25609 0.64891 0.62936 0.0
C313 C 0.2601 0.66589 0.59724 0.0
C314 C 0.25781 0.69394 0.59063 0.0
C315 C 0.24954 0.70424 0.61721 0.0
C316 C 0.24313 0.68633 0.65001 0.0
C317 C 0.24848 0.65918 0.65617 0.0
H318 H 0.34284 0.93941 0.06204 0.0
H319 H 0.32401 0.01769 0.07311 0.0
H320 H 0.30332 0.02378 0.01689 0.0
H321 H 0.38618 0.96825 0.98671 0.0
H322 H 0.36647 0.93475 0.9711 0.0
H323 H 0.36914 0.93137 0.0147 0.0
H324 H 0.29695 0.89902 0.02506 0.0
H325 H 0.29443 0.90249 0.9811 0.0
H326 H 0.26471 0.91354 0.00404 0.0
H327 H 0.30064 0.02912 0.95578 0.0
H328 H 0.31464 0.03193 0.89678 0.0
H329 H 0.33324 0.9495 0.92567 0.0
C330 C 0.33268 0.95697 0.05326 0.0
C331 C 0.33511 0.97805 0.072 0.0
C332 C 0.32231 0.00116 0.05929 0.0
C333 C 0.31037 0.00477 0.02734 0.0
C334 C 0.3107 0.98477 0.00859 0.0
C335 C 0.3208 0.9609 0.02139 0.0
C336 C 0.32422 0.94527 0.99491 0.0
C337 C 0.36387 0.94496 0.99169 0.0
C338 C 0.29322 0.91318 0.00169 0.0
C339 C 0.3176 0.96556 0.96477 0.0
C340 C 0.3088 0.98774 0.97316 0.0
C341 C 0.30637 0.01132 0.94897 0.0
C342 C 0.31437 0.01278 0.91548 0.0
C343 C 0.32514 0.99099 0.90665 0.0
C344 C 0.32502 0.96647 0.93164 0.0
H345 H 0.3377 0.32202 0.27634 0.0
H346 H 0.33188 0.23052 0.30041 0.0
H347 H 0.26926 0.21277 0.33132 0.0
H348 H 0.29002 0.31822 0.35421 0.0
H349 H 0.26711 0.34155 0.33295 0.0
H350 H 0.31249 0.34552 0.3163 0.0
H351 H 0.28214 0.33667 0.26075 0.0
H352 H 0.23633 0.33048 0.2786 0.0
H353 H 0.24217 0.30198 0.26177 0.0
H354 H 0.20571 0.20494 0.35755 0.0
H355 H 0.1464 0.20772 0.37592 0.0
H356 H 0.19418 0.30394 0.33302 0.0
C357 C 0.3235 0.29829 0.28838 0.0
C358 C 0.3397 0.27768 0.28606 0.0
C359 C 0.31994 0.24673 0.30184 0.0
C360 C 0.28446 0.23645 0.31958 0.0
C361 C 0.26921 0.25741 0.32124 0.0
C362 C 0.28811 0.28764 0.30599 0.0
C363 C 0.26486 0.30534 0.30979 0.0
C364 C 0.28474 0.32911 0.32944 0.0
C365 C 0.25589 0.31951 0.27574 0.0
C366 C 0.22982 0.28042 0.32953 0.0
C367 C 0.23284 0.25292 0.33608 0.0
C368 C 0.20324 0.22643 0.35288 0.0
C369 C 0.16971 0.22821 0.36312 0.0
C370 C 0.16625 0.25626 0.35664 0.0
C371 C 0.19666 0.28253 0.33953 0.0
H372 H 0.04034 0.54367 0.66417 0.0
H373 H 0.11086 0.49284 0.68025 0.0
H374 H 0.0939 0.48029 0.74066 0.0
H375 H 0.05541 0.57253 0.73944 0.0
H376 H 0.00665 0.5668 0.74602 0.0
H377 H 0.02803 0.57494 0.70457 0.0
H378 H 0.97479 0.5268 0.69543 0.0
H379 H 0.95361 0.51672 0.7372 0.0
H380 H 0.96732 0.49067 0.72229 0.0
H381 H 0.06834 0.47241 0.79866 0.0
H382 H 0.03071 0.46466 0.85015 0.0
H383 H 0.97311 0.51784 0.79628 0.0
C384 C 0.0527 0.53033 0.6805 0.0
C385 C 0.07716 0.5194 0.66772 0.0
C386 C 0.09203 0.50136 0.68965 0.0
C387 C 0.08283 0.49437 0.72395 0.0
C388 C 0.05846 0.50538 0.73578 0.0
C389 C 0.04331 0.52273 0.71473 0.0
C390 C 0.01456 0.52883 0.73345 0.0
C391 C 0.02692 0.56279 0.73069 0.0
C392 C 0.97526 0.51496 0.72134 0.0
C393 C 0.016 0.51231 0.76838 0.0
C394 C 0.04196 0.49935 0.76916 0.0
C395 C 0.04795 0.48246 0.79838 0.0
C396 C 0.02637 0.4782 0.82752 0.0
C397 C 0.99873 0.49045 0.82723 0.0
C398 C 0.99394 0.50813 0.79728 0.0
H399 H 0.72245 0.9457 0.00378 0.0
H400 H 0.78958 0.99755 0.06981 0.0
H401 H 0.81889 0.04149 0.02225 0.0
H402 H 0.79129 0.98523 0.92511 0.0
H403 H 0.7524 0.98342 0.90041 0.0
H404 H 0.74615 0.9538 0.93686 0.0
H405 H 0.68947 0.96183 0.95926 0.0
H406 H 0.69565 0.99179 0.92364 0.0
H407 H 0.69592 0.99858 0.9645 0.0
H408 H 0.8308 0.08187 0.97089 0.0
H409 H 0.82103 0.11584 0.92228 0.0
H410 H 0.74275 0.03845 0.89028 0.0
C411 C 0.74481 0.96578 0.00797 0.0
C412 C 0.75445 0.96807 0.04035 0.0
C413 C 0.78237 0.99522 0.0451 0.0
C414 C 0.79921 0.02023 0.01818 0.0
C415 C 0.78761 0.01773 0.98675 0.0
C416 C 0.76106 0.99109 0.98153 0.0
C417 C 0.74785 0.99568 0.94716 0.0
C418 C 0.76018 0.97851 0.92614 0.0
C419 C 0.7047 0.98647 0.94878 0.0
C420 C 0.76925 0.02941 0.9346 0.0
C421 C 0.79307 0.04153 0.95729 0.0
C422 C 0.81286 0.07256 0.95267 0.0
C423 C 0.80704 0.09171 0.92492 0.0
C424 C 0.78103 0.07982 0.90243 0.0
C425 C 0.76319 0.04823 0.90672 0.0
H426 H 0.53834 0.48633 0.2486 0.0
H427 H 0.53061 0.56922 0.2586 0.0
H428 H 0.55029 0.56147 0.31505 0.0
H429 H 0.50013 0.44419 0.32753 0.0
H430 H 0.53086 0.4244 0.3347 0.0
H431 H 0.52141 0.43755 0.2931 0.0
H432 H 0.59208 0.46646 0.27567 0.0
H433 H 0.60464 0.45578 0.31696 0.0
H434 H 0.62044 0.49495 0.29623 0.0
H435 H 0.5644 0.5425 0.37191 0.0
H436 H 0.57129 0.51302 0.4258 0.0
H437 H 0.57038 0.44266 0.37923 0.0
C438 C 0.54139 0.5031 0.26245 0.0
C439 C 0.53294 0.52838 0.24914 0.0
C440 C 0.53692 0.54966 0.26823 0.0
C441 C 0.54825 0.54555 0.30029 0.0
C442 C 0.55581 0.52019 0.31287 0.0
C443 C 0.55272 0.49937 0.29455 0.0
C444 C 0.56039 0.47319 0.3147 0.0
C445 C 0.52617 0.44306 0.31766 0.0
C446 C 0.59649 0.47253 0.29998 0.0
C447 C 0.56634 0.48181 0.34764 0.0
C448 C 0.56429 0.50929 0.34584 0.0
C449 C 0.56663 0.52116 0.37354 0.0
C450 C 0.57044 0.50422 0.40404 0.0
C451 C 0.57171 0.47567 0.40661 0.0
C452 C 0.57038 0.46468 0.37787 0.0
H453 H 0.08042 0.74073 0.6745 0.0
H454 H 0.11121 0.71669 0.5878 0.0
H455 H 0.05097 0.71436 0.56567 0.0
H456 H 0.98565 0.69022 0.68423 0.0
H457 H 0.96755 0.71447 0.6983 0.0
H458 H 0.01497 0.71798 0.70523 0.0
H459 H 0.04077 0.77474 0.67502 0.0
H460 H 0.99328 0.77128 0.66808 0.0
H461 H 0.02896 0.78565 0.63356 0.0
H462 H 0.98525 0.71068 0.55515 0.0
H463 H 0.91845 0.70506 0.55796 0.0
H464 H 0.93044 0.7303 0.65183 0.0
C465 C 0.07501 0.73583 0.65041 0.0
C466 C 0.10071 0.7293 0.63264 0.0
C467 C 0.09206 0.72206 0.60168 0.0
C468 C 0.05794 0.72071 0.58889 0.0
C469 C 0.03281 0.72658 0.60743 0.0
C470 C 0.04094 0.73404 0.63751 0.0
C471 C 0.00785 0.73676 0.6539 0.0
C472 C 0.99316 0.71347 0.68738 0.0
C473 C 0.01835 0.76903 0.65786 0.0
C474 C 0.97972 0.72941 0.62851 0.0
C475 C 0.99467 0.72375 0.60178 0.0
C476 C 0.97331 0.71513 0.57592 0.0
C477 C 0.93547 0.71169 0.57782 0.0
C478 C 0.91947 0.71624 0.6056 0.0
C479 C 0.94214 0.72622 0.63062 0.0
H480 H 0.54024 0.87656 0.15127 0.0
H481 H 0.64704 0.93568 0.17763 0.0
H482 H 0.61466 0.96363 0.19866 0.0
H483 H 0.5142 0.93345 0.11606 0.0
H484 H 0.46417 0.91302 0.1277 0.0
H485 H 0.49308 0.89294 0.12314 0.0
H486 H 0.47016 0.86033 0.18316 0.0
H487 H 0.44088 0.88026 0.18789 0.0
H488 H 0.47502 0.87847 0.217 0.0
H489 H 0.57301 0.98927 0.20894 0.0
H490 H 0.52769 0.01344 0.20324 0.0
H491 H 0.44894 0.93973 0.16592 0.0
C492 C 0.55649 0.89455 0.16283 0.0
C493 C 0.59592 0.90357 0.16372 0.0
C494 C 0.61667 0.92816 0.17741 0.0
C495 C 0.59847 0.94404 0.18945 0.0
C496 C 0.55968 0.93524 0.18711 0.0
C497 C 0.53898 0.91114 0.17392 0.0
C498 C 0.49944 0.90951 0.16859 0.0
C499 C 0.49235 0.91242 0.13171 0.0
C500 C 0.46961 0.88041 0.19048 0.0
C501 C 0.50137 0.93694 0.18 0.0
C502 C 0.53602 0.95103 0.19135 0.0
C503 C 0.5456 0.97818 0.20062 0.0
C504 C 0.51964 0.99176 0.19723 0.0
C505 C 0.48471 0.97843 0.1842 0.0
C506 C 0.47509 0.9502 0.17649 0.0
H507 H 0.44456 0.38625 0.47727 0.0
H508 H 0.445 0.29806 0.48205 0.0
H509 H 0.38072 0.28105 0.46348 0.0
H510 H 0.34515 0.36073 0.50504 0.0
H511 H 0.34026 0.39216 0.47702 0.0
H512 H 0.38516 0.39645 0.49269 0.0
H513 H 0.41698 0.41445 0.43253 0.0
H514 H 0.37217 0.41002 0.41668 0.0
H515 H 0.39898 0.39085 0.40389 0.0
H516 H 0.3169 0.27459 0.44173 0.0
H517 H 0.25931 0.27922 0.41965 0.0
H518 H 0.30217 0.37188 0.42885 0.0
C519 C 0.43098 0.36318 0.475 0.0
C520 C 0.44977 0.34342 0.48141 0.0
C521 C 0.43109 0.31356 0.47755 0.0
C522 C 0.39459 0.3037 0.46694 0.0
C523 C 0.37714 0.32396 0.46031 0.0
C524 C 0.39473 0.35304 0.46433 0.0
C525 C 0.37071 0.37085 0.45437 0.0
C526 C 0.35966 0.38061 0.48405 0.0
C527 C 0.39092 0.39815 0.42513 0.0
C528 C 0.33684 0.3473 0.44403 0.0
C529 C 0.34092 0.32036 0.44764 0.0
C530 C 0.31333 0.29554 0.43903 0.0
C531 C 0.28072 0.29836 0.42653 0.0
C532 C 0.27611 0.32585 0.42265 0.0
C533 C 0.30467 0.35051 0.43159 0.0
H534 H 0.15614 0.62771 0.81309 0.0
H535 H 0.07664 0.65319 0.75313 0.0
H536 H 0.02351 0.61245 0.79049 0.0
H537 H 0.09624 0.54502 0.83327 0.0
H538 H 0.11146 0.5397 0.87432 0.0
H539 H 0.14297 0.56889 0.84086 0.0
H540 H 0.15079 0.60856 0.87496 0.0
H541 H 0.11905 0.57959 0.90829 0.0
H542 H 0.10936 0.61213 0.89002 0.0
H543 H 0.97939 0.5732 0.83838 0.0
H544 H 0.948 0.5354 0.89083 0.0
H545 H 0.05571 0.53417 0.91775 0.0
C546 C 0.12757 0.6245 0.80758 0.0
C547 C 0.1206 0.64381 0.78035 0.0
C548 C 0.08274 0.63873 0.77389 0.0
C549 C 0.05232 0.61562 0.79495 0.0
C550 C 0.0602 0.59746 0.82206 0.0
C551 C 0.09687 0.60128 0.82809 0.0
C552 C 0.0977 0.57928 0.85944 0.0
C553 C 0.113 0.5569 0.85149 0.0
C554 C 0.12057 0.5959 0.88466 0.0
C555 C 0.056 0.5637 0.87109 0.0
C556 C 0.03472 0.57421 0.849 0.0
C557 C 0.99572 0.56436 0.85547 0.0
C558 C 0.9781 0.54301 0.88518 0.0
C559 C 0.99932 0.53154 0.90764 0.0
C560 C 0.03877 0.54226 0.90061 0.0
H561 H 0.96349 0.63799 0.58723 0.0
H562 H 0.90339 0.63402 0.49897 0.0
H563 H 0.94781 0.61735 0.47479 0.0
H564 H 0.0598 0.66111 0.54612 0.0
H565 H 0.07168 0.63745 0.57989 0.0
H566 H 0.03954 0.65411 0.58773 0.0
H567 H 0.9891 0.60138 0.61598 0.0
H568 H 0.02076 0.58436 0.60843 0.0
H569 H 0.9745 0.57203 0.59368 0.0
H570 H 0.99393 0.59478 0.46344 0.0
H571 H 0.03666 0.56788 0.46667 0.0
H572 H 0.06423 0.58565 0.56311 0.0
C573 C 0.96022 0.63444 0.56243 0.0
C574 C 0.93001 0.63738 0.54496 0.0
C575 C 0.92644 0.63204 0.51277 0.0
C576 C 0.95159 0.62262 0.4988 0.0
C577 C 0.98023 0.61882 0.51727 0.0
C578 C 0.98476 0.62478 0.54833 0.0
C579 C 0.01501 0.61595 0.56471 0.0
C580 C 0.0485 0.64382 0.56989 0.0
C581 C 0.99885 0.59201 0.59762 0.0
C582 C 0.02575 0.60296 0.53859 0.0
C583 C 0.00604 0.6053 0.51109 0.0
C584 C 0.0099 0.59319 0.48466 0.0
C585 C 0.03414 0.57794 0.48669 0.0
C586 C 0.0535 0.57452 0.51521 0.0
C587 C 0.04965 0.58773 0.54105 0.0
H588 H 0.50616 0.03909 0.80109 0.0
H589 H 0.46172 0.1077 0.79465 0.0
H590 H 0.52691 0.14724 0.78309 0.0
H591 H 0.57522 0.06926 0.84852 0.0
H592 H 0.61009 0.05896 0.83185 0.0
H593 H 0.56074 0.03721 0.83032 0.0
H594 H 0.57157 0.04604 0.76663 0.0
H595 H 0.6212 0.06785 0.76797 0.0
H596 H 0.59383 0.08399 0.74135 0.0
H597 H 0.59607 0.17802 0.78102 0.0
H598 H 0.6623 0.19715 0.79416 0.0
H599 H 0.66163 0.1078 0.80603 0.0
C600 C 0.51014 0.06256 0.79558 0.0
C601 C 0.47905 0.0706 0.79757 0.0
C602 C 0.48526 0.10132 0.79233 0.0
C603 C 0.52214 0.12383 0.78569 0.0
C604 C 0.55239 0.11511 0.78494 0.0
C605 C 0.54673 0.08512 0.78996 0.0
C606 C 0.58355 0.08107 0.79413 0.0
C607 C 0.5823 0.06043 0.82821 0.0
C608 C 0.5931 0.06903 0.76582 0.0
C609 C 0.61074 0.11334 0.79176 0.0
C610 C 0.59238 0.13272 0.78556 0.0
C611 C 0.61085 0.16316 0.78531 0.0
C612 C 0.64854 0.17382 0.79284 0.0
C613 C 0.66725 0.154 0.80104 0.0
C614 C 0.64841 0.12364 0.79925 0.0
H615 H 0.53126 0.39041 0.16885 0.0
H616 H 0.4237 0.33718 0.13813 0.0
H617 H 0.41957 0.38379 0.10558 0.0
H618 H 0.50352 0.44206 0.18655 0.0
H619 H 0.54776 0.47424 0.17357 0.0
H620 H 0.54741 0.43715 0.18637 0.0
H621 H 0.58359 0.44526 0.13009 0.0
H622 H 0.5838 0.48251 0.11712 0.0
H623 H 0.56458 0.45574 0.09198 0.0
H624 H 0.42098 0.43539 0.08575 0.0
H625 H 0.42539 0.48667 0.08379 0.0
H626 H 0.53132 0.50665 0.1287 0.0
C627 C 0.50777 0.38855 0.15395 0.0
C628 C 0.47816 0.36026 0.15537 0.0
C629 C 0.44692 0.35868 0.13691 0.0
C630 C 0.44445 0.38503 0.11825 0.0
C631 C 0.47341 0.41278 0.11843 0.0
C632 C 0.50456 0.41469 0.1358 0.0
C633 C 0.52834 0.44696 0.13695 0.0
C634 C 0.53191 0.45027 0.17297 0.0
C635 C 0.5674 0.45828 0.11789 0.0
C636 C 0.50467 0.46267 0.11909 0.0
C637 C 0.47369 0.44275 0.10774 0.0
C638 C 0.44556 0.45135 0.09383 0.0
C639 C 0.44833 0.4806 0.0928 0.0
C640 C 0.4787 0.50074 0.10608 0.0
C641 C 0.508 0.49197 0.11794 0.0
H642 H 0.44516 0.20742 0.20078 0.0
H643 H 0.43182 0.17802 0.30814 0.0
H644 H 0.42132 0.12651 0.30417 0.0
H645 H 0.37344 0.14178 0.18608 0.0
H646 H 0.39858 0.14187 0.14951 0.0
H647 H 0.4072 0.17681 0.16077 0.0
H648 H 0.47876 0.18834 0.16087 0.0
H649 H 0.47041 0.15357 0.14928 0.0
H650 H 0.49386 0.161 0.18583 0.0
H651 H 0.40949 0.07752 0.28825 0.0
H652 H 0.39999 0.0356 0.26146 0.0
H653 H 0.42076 0.09767 0.16487 0.0
C654 C 0.4405 0.19027 0.22349 0.0
C655 C 0.43935 0.19675 0.25476 0.0
C656 C 0.43288 0.17359 0.28387 0.0
C657 C 0.42683 0.14425 0.28189 0.0
C658 C 0.42743 0.1385 0.25064 0.0
C659 C 0.43436 0.16092 0.22197 0.0
C660 C 0.43271 0.1488 0.19144 0.0
C661 C 0.4011 0.15254 0.17074 0.0
C662 C 0.47123 0.16382 0.17064 0.0
C663 C 0.42345 0.11599 0.20739 0.0
C664 C 0.42055 0.11043 0.24154 0.0
C665 C 0.41185 0.08163 0.26151 0.0
C666 C 0.40637 0.05796 0.24609 0.0
C667 C 0.40961 0.06333 0.2111 0.0
C668 C 0.41807 0.09276 0.19168 0.0
H669 H 0.05911 0.45223 0.47798 0.0
H670 H 0.11631 0.43657 0.56569 0.0
H671 H 0.12536 0.3954 0.54793 0.0
H672 H 0.01315 0.37201 0.47237 0.0
H673 H 0.02068 0.38219 0.42778 0.0
H674 H 0.01377 0.40764 0.44954 0.0
H675 H 0.07705 0.44999 0.42047 0.0
H676 H 0.08416 0.42472 0.39873 0.0
H677 H 0.11978 0.44335 0.42367 0.0
H678 H 0.13494 0.36048 0.51822 0.0
H679 H 0.14481 0.33387 0.47787 0.0
H680 H 0.08141 0.37152 0.4091 0.0
C681 C 0.07268 0.43962 0.49382 0.0
C682 C 0.08686 0.44749 0.52327 0.0
C683 C 0.10524 0.43093 0.54301 0.0
C684 C 0.11033 0.40738 0.53324 0.0
C685 C 0.09681 0.40061 0.50372 0.0
C686 C 0.07825 0.41611 0.48429 0.0
C687 C 0.06963 0.40607 0.45224 0.0
C688 C 0.02675 0.39108 0.45039 0.0
C689 C 0.08881 0.43261 0.42201 0.0
C690 C 0.08734 0.38326 0.45628 0.0
C691 C 0.10241 0.38021 0.48637 0.0
C692 C 0.12272 0.36224 0.49482 0.0
C693 C 0.12829 0.34732 0.47169 0.0
C694 C 0.11365 0.35049 0.44049 0.0
C695 C 0.0923 0.36823 0.43301 0.0
H696 H 0.80106 0.25448 0.84646 0.0
H697 H 0.84151 0.2201 0.93741 0.0
H698 H 0.86961 0.27131 0.94689 0.0
H699 H 0.8825 0.32736 0.8219 0.0
H700 H 0.85364 0.34745 0.80589 0.0
H701 H 0.83903 0.30841 0.80501 0.0
H702 H 0.77501 0.29568 0.83727 0.0
H703 H 0.78953 0.33459 0.83851 0.0
H704 H 0.77473 0.30552 0.87647 0.0
H705 H 0.88967 0.32534 0.94856 0.0
H706 H 0.90278 0.37929 0.94101 0.0
H707 H 0.84954 0.37876 0.84893 0.0
C708 C 0.81638 0.2578 0.86807 0.0
C709 C 0.81914 0.23327 0.89116 0.0
C710 C 0.83903 0.23853 0.91935 0.0
C711 C 0.85511 0.26755 0.92498 0.0
C712 C 0.85118 0.2911 0.90214 0.0
C713 C 0.83258 0.28664 0.87411 0.0
C714 C 0.83124 0.31567 0.85412 0.0
C715 C 0.8529 0.32529 0.81969 0.0
C716 C 0.79019 0.31267 0.85145 0.0
C717 C 0.8515 0.337 0.87555 0.0
C718 C 0.86285 0.32237 0.90308 0.0
C719 C 0.8812 0.33713 0.92697 0.0
C720 C 0.88839 0.36775 0.92251 0.0
C721 C 0.87723 0.38329 0.89437 0.0
C722 C 0.85856 0.36759 0.87065 0.0
H723 H 0.53202 0.66703 0.11745 0.0
H724 H 0.53186 0.64409 0.22448 0.0
H725 H 0.57307 0.69684 0.22296 0.0
H726 H 0.62846 0.72249 0.09879 0.0
H727 H 0.61748 0.74777 0.06621 0.0
H728 H 0.58917 0.70779 0.07512 0.0
H729 H 0.52877 0.7173 0.08363 0.0
H730 H 0.55684 0.75729 0.07446 0.0
H731 H 0.52695 0.73882 0.11285 0.0
H732 H 0.61505 0.75131 0.21029 0.0
H733 H 0.64922 0.80608 0.18778 0.0
H734 H 0.61952 0.79505 0.08931 0.0
C735 C 0.54078 0.67319 0.14049 0.0
C736 C 0.5289 0.6515 0.17106 0.0
C737 C 0.5405 0.66038 0.20078 0.0
C738 C 0.56413 0.69024 0.20019 0.0
C739 C 0.57556 0.71105 0.16971 0.0
C740 C 0.56387 0.70313 0.14043 0.0
C741 C 0.57863 0.73044 0.11133 0.0
C742 C 0.605 0.7269 0.0864 0.0
C743 C 0.54584 0.73631 0.09459 0.0
C744 C 0.60033 0.75483 0.12893 0.0
C745 C 0.59865 0.743 0.16252 0.0
C746 C 0.61653 0.76093 0.18403 0.0
C747 C 0.63602 0.79199 0.17098 0.0
C748 C 0.63697 0.80482 0.13683 0.0
C749 C 0.61924 0.78587 0.11554 0.0
H750 H 0.78532 0.57134 0.57827 0.0
H751 H 0.70302 0.58656 0.63478 0.0
H752 H 0.65138 0.54596 0.61663 0.0
H753 H 0.7325 0.55728 0.50914 0.0
H754 H 0.74786 0.5286 0.50321 0.0
H755 H 0.77783 0.55842 0.52123 0.0
H756 H 0.78069 0.5188 0.5724 0.0
H757 H 0.75062 0.48883 0.55459 0.0
H758 H 0.73734 0.49065 0.59535 0.0
H759 H 0.60869 0.50353 0.59136 0.0
H760 H 0.57908 0.46401 0.56061 0.0
H761 H 0.6904 0.47755 0.52143 0.0
C762 C 0.75648 0.56621 0.58692 0.0
C763 C 0.74822 0.58215 0.60797 0.0
C764 C 0.71003 0.57463 0.61867 0.0
C765 C 0.68053 0.5516 0.60851 0.0
C766 C 0.68976 0.53631 0.58777 0.0
C767 C 0.72686 0.54337 0.57714 0.0
C768 C 0.72954 0.5239 0.55476 0.0
C769 C 0.74801 0.54321 0.52003 0.0
C770 C 0.7508 0.50439 0.57021 0.0
C771 C 0.68809 0.50488 0.55413 0.0
C772 C 0.66549 0.51218 0.5734 0.0
C773 C 0.62616 0.49761 0.57627 0.0
C774 C 0.6096 0.47517 0.55878 0.0
C775 C 0.6324 0.46767 0.53864 0.0
C776 C 0.67212 0.4827 0.53659 0.0
H777 H 0.23626 0.80203 0.74726 0.0
H778 H 0.31712 0.76111 0.74547 0.0
H779 H 0.36488 0.80313 0.76418 0.0
H780 H 0.30153 0.87854 0.71762 0.0
H781 H 0.28023 0.89323 0.74417 0.0
H782 H 0.25177 0.85959 0.73124 0.0
H783 H 0.23039 0.83046 0.79258 0.0
H784 H 0.25859 0.86407 0.8057 0.0
H785 H 0.26554 0.82976 0.82097 0.0
H786 H 0.40462 0.85019 0.78092 0.0
H787 H 0.43289 0.89811 0.79808 0.0
H788 H 0.32616 0.90826 0.79037 0.0
C789 C 0.26394 0.80183 0.75098 0.0
C790 C 0.27295 0.77829 0.74482 0.0
C791 C 0.30949 0.77885 0.75004 0.0
C792 C 0.33689 0.80266 0.7606 0.0
C793 C 0.32726 0.82566 0.76605 0.0
C794 C 0.29163 0.82536 0.76173 0.0
C795 C 0.28869 0.85289 0.7695 0.0
C796 C 0.28005 0.8722 0.7388 0.0
C797 C 0.25905 0.84374 0.79894 0.0
C798 C 0.32835 0.86877 0.77859 0.0
C799 C 0.35013 0.8527 0.7763 0.0
C800 C 0.38783 0.86294 0.78297 0.0
C801 C 0.40366 0.89025 0.79259 0.0
C802 C 0.38175 0.90693 0.79561 0.0
C803 C 0.34362 0.896 0.78837 0.0
loop_
_geom_bond_atom_site_label_1
_geom_bond_atom_site_label_2
_geom_bond_distance
_geom_bond_site_symmetry_2
_ccdc_geom_bond_type
C0 O1 1.160 . S
C0 O7 1.185 . S
O1 C0 1.160 . S
O2 Zn3 1.899 . S
O2 C10 1.284 . S
Zn3 O2 1.899 . S
Zn3 O4 2.032 . S
Zn3 O7 2.086 . S
Zn3 O12 1.977 . S
O4 Zn3 2.032 . S
O4 C8 1.278 . S
C5 O6 1.203 . S
C5 O12 1.267 . S
O6 C5 1.203 . S
O7 C0 1.185 . S
O7 Zn3 2.086 . S
C8 O4 1.278 . S
C8 O9 1.211 . S
O9 C8 1.211 . S
C10 O2 1.284 . S
C10 O11 1.273 . S
O11 C10 1.273 . S
O12 Zn3 1.977 . S
O12 C5 1.267 . S
C13 O14 1.160 . S
C13 O20 1.185 . S
O14 C13 1.160 . S
O15 Zn16 1.899 . S
O15 C23 1.284 . S
Zn16 O15 1.899 . S
Zn16 O17 2.032 . S
Zn16 O20 2.086 . S
Zn16 O25 1.977 . S
O17 Zn16 2.032 . S
O17 C21 1.278 . S
C18 O19 1.203 . S
C18 O25 1.267 . S
O19 C18 1.203 . S
O20 C13 1.185 . S
O20 Zn16 2.086 . S
C21 O17 1.278 . S
C21 O22 1.211 . S
O22 C21 1.211 . S
C23 O15 1.284 . S
C23 O24 1.273 . S
O24 C23 1.273 . S
O25 Zn16 1.977 . S
O25 C18 1.267 . S
C26 O27 1.160 . S
C26 O33 1.185 . S
O27 C26 1.160 . S
O28 Zn29 1.899 . S
O28 C36 1.284 . S
Zn29 O28 1.899 . S
Zn29 O30 2.032 . S
Zn29 O33 2.086 . S
Zn29 O38 1.977 . S
O30 Zn29 2.032 . S
O30 C34 1.278 . S
C31 O32 1.203 . S
C31 O38 1.267 . S
O32 C31 1.203 . S
O33 C26 1.185 . S
O33 Zn29 2.086 . S
C34 O30 1.278 . S
C34 O35 1.211 . S
O35 C34 1.211 . S
C36 O28 1.284 . S
C36 O37 1.273 . S
O37 C36 1.273 . S
O38 Zn29 1.977 . S
O38 C31 1.267 . S
C39 O40 1.160 . S
C39 O46 1.185 . S
O40 C39 1.160 . S
O41 Zn42 1.899 . S
O41 C49 1.284 . S
Zn42 O41 1.899 . S
Zn42 O43 2.032 . S
Zn42 O46 2.086 . S
Zn42 O51 1.977 . S
O43 Zn42 2.032 . S
O43 C47 1.278 . S
C44 O45 1.203 . S
C44 O51 1.267 . S
O45 C44 1.203 . S
O46 C39 1.185 . S
O46 Zn42 2.086 . S
C47 O43 1.278 . S
C47 O48 1.211 . S
O48 C47 1.211 . S
C49 O41 1.284 . S
C49 O50 1.273 . S
O50 C49 1.273 . S
O51 Zn42 1.977 . S
O51 C44 1.267 . S
C52 O53 1.160 . S
C52 O59 1.185 . S
O53 C52 1.160 . S
O54 Zn55 1.899 . S
O54 C62 1.284 . S
Zn55 O54 1.899 . S
Zn55 O56 2.032 . S
Zn55 O59 2.086 . S
Zn55 O64 1.977 . S
O56 Zn55 2.032 . S
O56 C60 1.278 . S
C57 O58 1.203 . S
C57 O64 1.267 . S
O58 C57 1.203 . S
O59 C52 1.185 . S
O59 Zn55 2.086 . S
C60 O56 1.278 . S
C60 O61 1.211 . S
O61 C60 1.211 . S
C62 O54 1.284 . S
C62 O63 1.273 . S
O63 C62 1.273 . S
O64 Zn55 1.977 . S
O64 C57 1.267 . S
C65 O66 1.160 . S
C65 O72 1.185 . S
O66 C65 1.160 . S
O67 Zn68 1.899 . S
O67 C75 1.284 . S
Zn68 O67 1.899 . S
Zn68 O69 2.032 . S
Zn68 O72 2.086 . S
Zn68 O77 1.977 . S
O69 Zn68 2.032 . S
O69 C73 1.278 . S
C70 O71 1.203 . S
C70 O77 1.267 . S
O71 C70 1.203 . S
O72 C65 1.185 . S
O72 Zn68 2.086 . S
C73 O69 1.278 . S
C73 O74 1.211 . S
O74 C73 1.211 . S
C75 O67 1.284 . S
C75 O76 1.273 . S
O76 C75 1.273 . S
O77 Zn68 1.977 . S
O77 C70 1.267 . S
C78 O79 1.160 . S
C78 O85 1.185 . S
O79 C78 1.160 . S
O80 Zn81 1.899 . S
O80 C88 1.284 . S
Zn81 O80 1.899 . S
Zn81 O82 2.032 . S
Zn81 O85 2.086 . S
Zn81 O90 1.977 . S
O82 Zn81 2.032 . S
O82 C86 1.278 . S
C83 O84 1.203 . S
C83 O90 1.267 . S
O84 C83 1.203 . S
O85 C78 1.185 . S
O85 Zn81 2.086 . S
C86 O82 1.278 . S
C86 O87 1.211 . S
O87 C86 1.211 . S
C88 O80 1.284 . S
C88 O89 1.273 . S
O89 C88 1.273 . S
O90 Zn81 1.977 . S
O90 C83 1.267 . S
C91 O92 1.160 . S
C91 O98 1.185 . S
O92 C91 1.160 . S
O93 Zn94 1.899 . S
O93 C101 1.284 . S
Zn94 O93 1.899 . S
Zn94 O95 2.032 . S
Zn94 O98 2.086 . S
Zn94 O103 1.977 . S
O95 Zn94 2.032 . S
O95 C99 1.278 . S
C96 O97 1.203 . S
C96 O103 1.267 . S
O97 C96 1.203 . S
O98 C91 1.185 . S
O98 Zn94 2.086 . S
C99 O95 1.278 . S
C99 O100 1.211 . S
O100 C99 1.211 . S
C101 O93 1.284 . S
C101 O102 1.273 . S
O102 C101 1.273 . S
O103 Zn94 1.977 . S
O103 C96 1.267 . S
C104 O105 1.160 . S
C104 O111 1.185 . S
O105 C104 1.160 . S
O106 Zn107 1.899 . S
O106 C114 1.284 . S
Zn107 O106 1.899 . S
Zn107 O108 2.032 . S
Zn107 O111 2.086 . S
Zn107 O116 1.977 . S
O108 Zn107 2.032 . S
O108 C112 1.278 . S
C109 O110 1.203 . S
C109 O116 1.267 . S
O110 C109 1.203 . S
O111 C104 1.185 . S
O111 Zn107 2.086 . S
C112 O108 1.278 . S
C112 O113 1.211 . S
O113 C112 1.211 . S
C114 O106 1.284 . S
C114 O115 1.273 . S
O115 C114 1.273 . S
O116 Zn107 1.977 . S
O116 C109 1.267 . S
C117 O118 1.160 . S
C117 O124 1.185 . S
O118 C117 1.160 . S
O119 Zn120 1.899 . S
O119 C127 1.284 . S
Zn120 O119 1.899 . S
Zn120 O121 2.032 . S
Zn120 O124 2.086 . S
Zn120 O129 1.977 . S
O121 Zn120 2.032 . S
O121 C125 1.278 . S
C122 O123 1.203 . S
C122 O129 1.267 . S
O123 C122 1.203 . S
O124 C117 1.185 . S
O124 Zn120 2.086 . S
C125 O121 1.278 . S
C125 O126 1.211 . S
O126 C125 1.211 . S
C127 O119 1.284 . S
C127 O128 1.273 . S
O128 C127 1.273 . S
O129 Zn120 1.977 . S
O129 C122 1.267 . S
C130 O131 1.160 . S
C130 O137 1.185 . S
O131 C130 1.160 . S
O132 Zn133 1.899 . S
O132 C140 1.284 . S
Zn133 O132 1.899 . S
Zn133 O134 2.032 . S
Zn133 O137 2.086 . S
Zn133 O142 1.977 . S
O134 Zn133 2.032 . S
O134 C138 1.278 . S
C135 O136 1.203 . S
C135 O142 1.267 . S
O136 C135 1.203 . S
O137 C130 1.185 . S
O137 Zn133 2.086 . S
C138 O134 1.278 . S
C138 O139 1.211 . S
O139 C138 1.211 . S
C140 O132 1.284 . S
C140 O141 1.273 . S
O141 C140 1.273 . S
O142 Zn133 1.977 . S
O142 C135 1.267 . S
C143 O144 1.160 . S
C143 O150 1.185 . S
O144 C143 1.160 . S
O145 Zn146 1.899 . S
O145 C153 1.284 . S
Zn146 O145 1.899 . S
Zn146 O147 2.032 . S
Zn146 O150 2.086 . S
Zn146 O155 1.977 . S
O147 Zn146 2.032 . S
O147 C151 1.278 . S
C148 O149 1.203 . S
C148 O155 1.267 . S
O149 C148 1.203 . S
O150 C143 1.185 . S
O150 Zn146 2.086 . S
C151 O147 1.278 . S
C151 O152 1.211 . S
O152 C151 1.211 . S
C153 O145 1.284 . S
C153 O154 1.273 . S
O154 C153 1.273 . S
O155 Zn146 1.977 . S
O155 C148 1.267 . S
H156 C168 0.930 . S
H157 C170 0.930 . S
H158 C171 0.930 . S
H159 C175 0.959 . S
H160 C175 0.959 1_556 S
H161 C175 0.961 . S
H162 C176 0.960 . S
H163 C176 0.961 . S
H164 C176 0.959 . S
H165 C179 0.929 . S
H166 C180 0.931 . S
H167 C182 0.930 . S
C168 H156 0.930 . S
C168 C169 1.399 . S
C168 C173 1.399 . S
C169 C168 1.399 . S
C169 C170 1.376 . S
C170 H157 0.930 . S
C170 C169 1.376 . S
C170 C171 1.388 . S
C171 H158 0.930 . S
C171 C170 1.388 . S
C171 C172 1.390 . S
C172 C171 1.390 . S
C172 C173 1.394 . S
C172 C178 1.465 1_554 S
C173 C168 1.399 . S
C173 C172 1.394 . S
C173 C174 1.516 1_554 S
C174 C173 1.516 1_556 S
C174 C175 1.502 1_556 S
C174 C176 1.561 . S
C174 C177 1.526 . S
C175 H159 0.959 . S
C175 H160 0.959 1_554 S
C175 H161 0.961 . S
C175 C174 1.502 1_554 S
C176 H162 0.960 . S
C176 H163 0.961 . S
C176 H164 0.959 . S
C176 C174 1.561 . S
C177 C174 1.526 . S
C177 C178 1.396 . S
C177 C182 1.390 . S
C178 C172 1.465 1_556 S
C178 C177 1.396 . S
C178 C179 1.399 . S
C179 H165 0.929 . S
C179 C178 1.399 . S
C179 C180 1.385 . S
C180 H166 0.931 . S
C180 C179 1.385 . S
C180 C181 1.389 . S
C181 C180 1.389 . S
C181 C182 1.387 . S
C182 H167 0.930 . S
C182 C177 1.390 . S
C182 C181 1.387 . S
H183 C195 0.930 . S
H184 C197 0.930 . S
H185 C198 0.930 . S
H186 C202 0.959 . S
H187 C202 0.959 . S
H188 C202 0.961 . S
H189 C203 0.960 . S
H190 C203 0.961 . S
H191 C203 0.959 . S
H192 C206 0.929 . S
H193 C207 0.931 . S
H194 C209 0.930 . S
C195 H183 0.930 . S
C195 C196 1.399 . S
C195 C200 1.399 . S
C196 C195 1.399 . S
C196 C197 1.376 . S
C197 H184 0.930 . S
C197 C196 1.376 . S
C197 C198 1.388 . S
C198 H185 0.930 . S
C198 C197 1.388 . S
C198 C199 1.390 . S
C199 C198 1.390 . S
C199 C200 1.394 . S
C199 C205 1.465 . S
C200 C195 1.399 . S
C200 C199 1.394 . S
C200 C201 1.516 . S
C201 C200 1.516 . S
C201 C202 1.502 . S
C201 C203 1.561 . S
C201 C204 1.526 . S
C202 H186 0.959 . S
C202 H187 0.959 . S
C202 H188 0.961 . S
C202 C201 1.502 . S
C203 H189 0.960 . S
C203 H190 0.961 . S
C203 H191 0.959 . S
C203 C201 1.561 . S
C204 C201 1.526 . S
C204 C205 1.396 . S
C204 C209 1.390 . S
C205 C199 1.465 . S
C205 C204 1.396 . S
C205 C206 1.399 . S
C206 H192 0.929 . S
C206 C205 1.399 . S
C206 C207 1.385 . S
C207 H193 0.931 . S
C207 C206 1.385 . S
C207 C208 1.389 . S
C208 C207 1.389 . S
C208 C209 1.387 . S
C209 H194 0.930 . S
C209 C204 1.390 . S
C209 C208 1.387 . S
H210 C222 0.930 . S
H211 C224 0.930 . S
H212 C225 0.930 . S
H213 C229 0.959 . S
H214 C229 0.959 . S
H215 C229 0.961 . S
H216 C230 0.960 . S
H217 C230 0.961 . S
H218 C230 0.959 . S
H219 C233 0.929 . S
H220 C234 0.931 . S
H221 C236 0.930 . S
C222 H210 0.930 . S
C222 C223 1.399 . S
C222 C227 1.399 . S
C223 C222 1.399 . S
C223 C224 1.376 . S
C224 H211 0.930 . S
C224 C223 1.376 . S
C224 C225 1.388 . S
C225 H212 0.930 . S
C225 C224 1.388 . S
C225 C226 1.390 . S
C226 C225 1.390 . S
C226 C227 1.394 . S
C226 C232 1.465 . S
C227 C222 1.399 . S
C227 C226 1.394 . S
C227 C228 1.516 . S
C228 C227 1.516 . S
C228 C229 1.502 . S
C228 C230 1.561 . S
C228 C231 1.526 . S
C229 H213 0.959 . S
C229 H214 0.959 . S
C229 H215 0.961 . S
C229 C228 1.502 . S
C230 H216 0.960 . S
C230 H217 0.961 . S
C230 H218 0.959 . S
C230 C228 1.561 . S
C231 C228 1.526 . S
C231 C232 1.396 . S
C231 C236 1.390 . S
C232 C226 1.465 . S
C232 C231 1.396 . S
C232 C233 1.399 . S
C233 H219 0.929 . S
C233 C232 1.399 . S
C233 C234 1.385 . S
C234 H220 0.931 . S
C234 C233 1.385 . S
C234 C235 1.389 . S
C235 C234 1.389 . S
C235 C236 1.387 . S
C236 H221 0.930 . S
C236 C231 1.390 . S
C236 C235 1.387 . S
H237 C249 0.930 . S
H238 C251 0.930 . S
H239 C252 0.930 . S
H240 C256 0.959 . S
H241 C256 0.959 . S
H242 C256 0.961 . S
H243 C257 0.960 . S
H244 C257 0.961 1_556 S
H245 C257 0.959 . S
H246 C260 0.929 . S
H247 C261 0.931 . S
H248 C263 0.930 . S
C249 H237 0.930 . S
C249 C250 1.399 . S
C249 C254 1.399 . S
C250 C249 1.399 . S
C250 C251 1.376 . S
C251 H238 0.930 . S
C251 C250 1.376 . S
C251 C252 1.388 . S
C252 H239 0.930 . S
C252 C251 1.388 . S
C252 C253 1.390 . S
C253 C252 1.390 . S
C253 C254 1.394 . S
C253 C259 1.465 1_554 S
C254 C249 1.399 . S
C254 C253 1.394 . S
C254 C255 1.516 1_554 S
C255 C254 1.516 1_556 S
C255 C256 1.502 . S
C255 C257 1.561 1_556 S
C255 C258 1.526 . S
C256 H240 0.959 . S
C256 H241 0.959 . S
C256 H242 0.961 . S
C256 C255 1.502 . S
C257 H243 0.960 . S
C257 H244 0.961 1_554 S
C257 H245 0.959 . S
C257 C255 1.561 1_554 S
C258 C255 1.526 . S
C258 C259 1.396 . S
C258 C263 1.390 . S
C259 C253 1.465 1_556 S
C259 C258 1.396 . S
C259 C260 1.399 . S
C260 H246 0.929 . S
C260 C259 1.399 . S
C260 C261 1.385 . S
C261 H247 0.931 . S
C261 C260 1.385 . S
C261 C262 1.389 . S
C262 C261 1.389 . S
C262 C263 1.387 . S
C263 H248 0.930 . S
C263 C258 1.390 . S
C263 C262 1.387 . S
H264 C276 0.930 . S
H265 C278 0.930 . S
H266 C279 0.930 . S
H267 C283 0.959 . S
H268 C283 0.959 . S
H269 C283 0.961 . S
H270 C284 0.960 . S
H271 C284 0.961 . S
H272 C284 0.959 . S
H273 C287 0.929 . S
H274 C288 0.931 . S
H275 C290 0.930 . S
C276 H264 0.930 . S
C276 C277 1.399 . S
C276 C281 1.399 . S
C277 C276 1.399 . S
C277 C278 1.376 . S
C278 H265 0.930 . S
C278 C277 1.376 . S
C278 C279 1.388 . S
C279 H266 0.930 . S
C279 C278 1.388 . S
C279 C280 1.390 . S
C280 C279 1.390 . S
C280 C281 1.394 . S
C280 C286 1.465 . S
C281 C276 1.399 . S
C281 C280 1.394 . S
C281 C282 1.516 . S
C282 C281 1.516 . S
C282 C283 1.502 . S
C282 C284 1.561 . S
C282 C285 1.526 . S
C283 H267 0.959 . S
C283 H268 0.959 . S
C283 H269 0.961 . S
C283 C282 1.502 . S
C284 H270 0.960 . S
C284 H271 0.961 . S
C284 H272 0.959 . S
C284 C282 1.561 . S
C285 C282 1.526 . S
C285 C286 1.396 . S
C285 C290 1.390 . S
C286 C280 1.465 . S
C286 C285 1.396 . S
C286 C287 1.399 . S
C287 H273 0.929 . S
C287 C286 1.399 . S
C287 C288 1.385 . S
C288 H274 0.931 . S
C288 C287 1.385 . S
C288 C289 1.389 . S
C289 C288 1.389 . S
C289 C290 1.387 . S
C290 H275 0.930 . S
C290 C285 1.390 . S
C290 C289 1.387 . S
H291 C303 0.930 . S
H292 C305 0.930 . S
H293 C306 0.930 . S
H294 C310 0.959 . S
H295 C310 0.959 . S
H296 C310 0.961 . S
H297 C311 0.960 . S
H298 C311 0.961 . S
H299 C311 0.959 . S
H300 C314 0.929 . S
H301 C315 0.931 . S
H302 C317 0.930 . S
C303 H291 0.930 . S
C303 C304 1.399 . S
C303 C308 1.399 . S
C304 C303 1.399 . S
C304 C305 1.376 . S
C305 H292 0.930 . S
C305 C304 1.376 . S
C305 C306 1.388 . S
C306 H293 0.930 . S
C306 C305 1.388 . S
C306 C307 1.390 . S
C307 C306 1.390 . S
C307 C308 1.394 . S
C307 C313 1.465 . S
C308 C303 1.399 . S
C308 C307 1.394 . S
C308 C309 1.516 . S
C309 C308 1.516 . S
C309 C310 1.502 . S
C309 C311 1.561 . S
C309 C312 1.526 . S
C310 H294 0.959 . S
C310 H295 0.959 . S
C310 H296 0.961 . S
C310 C309 1.502 . S
C311 H297 0.960 . S
C311 H298 0.961 . S
C311 H299 0.959 . S
C311 C309 1.561 . S
C312 C309 1.526 . S
C312 C313 1.396 . S
C312 C317 1.390 . S
C313 C307 1.465 . S
C313 C312 1.396 . S
C313 C314 1.399 . S
C314 H300 0.929 . S
C314 C313 1.399 . S
C314 C315 1.385 . S
C315 H301 0.931 . S
C315 C314 1.385 . S
C315 C316 1.389 . S
C316 C315 1.389 . S
C316 C317 1.387 . S
C317 H302 0.930 . S
C317 C312 1.390 . S
C317 C316 1.387 . S
H318 C330 0.930 . S
H319 C332 0.930 . S
H320 C333 0.930 . S
H321 C337 0.959 . S
H322 C337 0.959 . S
H323 C337 0.961 . S
H324 C338 0.960 . S
H325 C338 0.961 . S
H326 C338 0.959 . S
H327 C341 0.929 . S
H328 C342 0.931 . S
H329 C344 0.930 . S
C330 H318 0.930 . S
C330 C331 1.399 1_565 S
C330 C335 1.399 . S
C331 C330 1.399 1_545 S
C331 C332 1.376 . S
C332 H319 0.930 . S
C332 C331 1.376 . S
C332 C333 1.388 . S
C333 H320 0.930 . S
C333 C332 1.388 . S
C333 C334 1.390 . S
C334 C333 1.390 . S
C334 C335 1.394 1_545 S
C334 C340 1.465 1_554 S
C335 C330 1.399 . S
C335 C334 1.394 1_565 S
C335 C336 1.516 . S
C336 C335 1.516 . S
C336 C337 1.502 . S
C336 C338 1.561 . S
C336 C339 1.526 1_554 S
C337 H321 0.959 . S
C337 H322 0.959 . S
C337 H323 0.961 . S
C337 C336 1.502 . S
C338 H324 0.960 . S
C338 H325 0.961 . S
C338 H326 0.959 . S
C338 C336 1.561 . S
C339 C336 1.526 1_556 S
C339 C340 1.396 1_565 S
C339 C344 1.390 . S
C340 C334 1.465 1_556 S
C340 C339 1.396 1_545 S
C340 C341 1.399 . S
C341 H327 0.929 . S
C341 C340 1.399 . S
C341 C342 1.385 . S
C342 H328 0.931 . S
C342 C341 1.385 . S
C342 C343 1.389 1_545 S
C343 C342 1.389 1_565 S
C343 C344 1.387 . S
C344 H329 0.930 . S
C344 C339 1.390 . S
C344 C343 1.387 . S
H345 C357 0.930 . S
H346 C359 0.930 . S
H347 C360 0.930 . S
H348 C364 0.959 . S
H349 C364 0.959 . S
H350 C364 0.961 . S
H351 C365 0.960 . S
H352 C365 0.961 . S
H353 C365 0.959 . S
H354 C368 0.929 . S
H355 C369 0.931 . S
H356 C371 0.930 . S
C357 H345 0.930 . S
C357 C358 1.399 . S
C357 C362 1.399 . S
C358 C357 1.399 . S
C358 C359 1.376 . S
C359 H346 0.930 . S
C359 C358 1.376 . S
C359 C360 1.388 . S
C360 H347 0.930 . S
C360 C359 1.388 . S
C360 C361 1.390 . S
C361 C360 1.390 . S
C361 C362 1.394 . S
C361 C367 1.465 . S
C362 C357 1.399 . S
C362 C361 1.394 . S
C362 C363 1.516 . S
C363 C362 1.516 . S
C363 C364 1.502 . S
C363 C365 1.561 . S
C363 C366 1.526 . S
C364 H348 0.959 . S
C364 H349 0.959 . S
C364 H350 0.961 . S
C364 C363 1.502 . S
C365 H351 0.960 . S
C365 H352 0.961 . S
C365 H353 0.959 . S
C365 C363 1.561 . S
C366 C363 1.526 . S
C366 C367 1.396 . S
C366 C371 1.390 . S
C367 C361 1.465 . S
C367 C366 1.396 . S
C367 C368 1.399 . S
C368 H354 0.929 . S
C368 C367 1.399 . S
C368 C369 1.385 . S
C369 H355 0.931 . S
C369 C368 1.385 . S
C369 C370 1.389 . S
C370 C369 1.389 . S
C370 C371 1.387 . S
C371 H356 0.930 . S
C371 C366 1.390 . S
C371 C370 1.387 . S
H372 C384 0.930 . S
H373 C386 0.930 . S
H374 C387 0.930 . S
H375 C391 0.959 . S
H376 C391 0.959 . S
H377 C391 0.961 . S
H378 C392 0.960 . S
H379 C392 0.961 . S
H380 C392 0.959 . S
H381 C395 0.929 . S
H382 C396 0.931 . S
H383 C398 0.930 . S
C384 H372 0.930 . S
C384 C385 1.399 . S
C384 C389 1.399 . S
C385 C384 1.399 . S
C385 C386 1.376 . S
C386 H373 0.930 . S
C386 C385 1.376 . S
C386 C387 1.388 . S
C387 H374 0.930 . S
C387 C386 1.388 . S
C387 C388 1.390 . S
C388 C387 1.390 . S
C388 C389 1.394 . S
C388 C394 1.465 . S
C389 C384 1.399 . S
C389 C388 1.394 . S
C389 C390 1.516 1_455 S
C390 C389 1.516 1_655 S
C390 C391 1.502 . S
C390 C392 1.561 . S
C390 C393 1.526 . S
C391 H375 0.959 . S
C391 H376 0.959 . S
C391 H377 0.961 . S
C391 C390 1.502 . S
C392 H378 0.960 . S
C392 H379 0.961 . S
C392 H380 0.959 . S
C392 C390 1.561 . S
C393 C390 1.526 . S
C393 C394 1.396 1_655 S
C393 C398 1.390 . S
C394 C388 1.465 . S
C394 C393 1.396 1_455 S
C394 C395 1.399 . S
C395 H381 0.929 . S
C395 C394 1.399 . S
C395 C396 1.385 . S
C396 H382 0.931 . S
C396 C395 1.385 . S
C396 C397 1.389 1_455 S
C397 C396 1.389 1_655 S
C397 C398 1.387 . S
C398 H383 0.930 . S
C398 C393 1.390 . S
C398 C397 1.387 . S
H399 C411 0.930 . S
H400 C413 0.930 . S
H401 C414 0.930 1_545 S
H402 C418 0.959 . S
H403 C418 0.959 . S
H404 C418 0.961 . S
H405 C419 0.960 . S
H406 C419 0.961 . S
H407 C419 0.959 . S
H408 C422 0.929 1_554 S
H409 C423 0.931 . S
H410 C425 0.930 . S
C411 H399 0.930 . S
C411 C412 1.399 . S
C411 C416 1.399 . S
C412 C411 1.399 . S
C412 C413 1.376 . S
C413 H400 0.930 . S
C413 C412 1.376 . S
C413 C414 1.388 . S
C414 H401 0.930 1_565 S
C414 C413 1.388 . S
C414 C415 1.390 . S
C415 C414 1.390 . S
C415 C416 1.394 . S
C415 C421 1.465 1_564 S
C416 C411 1.399 . S
C416 C415 1.394 . S
C416 C417 1.516 1_554 S
C417 C416 1.516 1_556 S
C417 C418 1.502 . S
C417 C419 1.561 . S
C417 C420 1.526 1_565 S
C418 H402 0.959 . S
C418 H403 0.959 . S
C418 H404 0.961 . S
C418 C417 1.502 . S
C419 H405 0.960 . S
C419 H406 0.961 . S
C419 H407 0.959 . S
C419 C417 1.561 . S
C420 C417 1.526 1_545 S
C420 C421 1.396 . S
C420 C425 1.390 . S
C421 C415 1.465 1_546 S
C421 C420 1.396 . S
C421 C422 1.399 . S
C422 H408 0.929 1_556 S
C422 C421 1.399 . S
C422 C423 1.385 . S
C423 H409 0.931 . S
C423 C422 1.385 . S
C423 C424 1.389 . S
C424 C423 1.389 . S
C424 C425 1.387 . S
C425 H410 0.930 . S
C425 C420 1.390 . S
C425 C424 1.387 . S
H426 C438 0.930 . S
H427 C440 0.930 . S
H428 C441 0.930 . S
H429 C445 0.959 . S
H430 C445 0.959 . S
H431 C445 0.961 . S
H432 C446 0.960 . S
H433 C446 0.961 . S
H434 C446 0.959 . S
H435 C449 0.929 . S
H436 C450 0.931 . S
H437 C452 0.930 . S
C438 H426 0.930 . S
C438 C439 1.399 . S
C438 C443 1.399 . S
C439 C438 1.399 . S
C439 C440 1.376 . S
C440 H427 0.930 . S
C440 C439 1.376 . S
C440 C441 1.388 . S
C441 H428 0.930 . S
C441 C440 1.388 . S
C441 C442 1.390 . S
C442 C441 1.390 . S
C442 C443 1.394 . S
C442 C448 1.465 . S
C443 C438 1.399 . S
C443 C442 1.394 . S
C443 C444 1.516 . S
C444 C443 1.516 . S
C444 C445 1.502 . S
C444 C446 1.561 . S
C444 C447 1.526 . S
C445 H429 0.959 . S
C445 H430 0.959 . S
C445 H431 0.961 . S
C445 C444 1.502 . S
C446 H432 0.960 . S
C446 H433 0.961 . S
C446 H434 0.959 . S
C446 C444 1.561 . S
C447 C444 1.526 . S
C447 C448 1.396 . S
C447 C452 1.390 . S
C448 C442 1.465 . S
C448 C447 1.396 . S
C448 C449 1.399 . S
C449 H435 0.929 . S
C449 C448 1.399 . S
C449 C450 1.385 . S
C450 H436 0.931 . S
C450 C449 1.385 . S
C450 C451 1.389 . S
C451 C450 1.389 . S
C451 C452 1.387 . S
C452 H437 0.930 . S
C452 C447 1.390 . S
C452 C451 1.387 . S
H453 C465 0.930 . S
H454 C467 0.930 . S
H455 C468 0.930 . S
H456 C472 0.959 1_655 S
H457 C472 0.959 1_655 S
H458 C472 0.961 . S
H459 C473 0.960 . S
H460 C473 0.961 . S
H461 C473 0.959 . S
H462 C476 0.929 . S
H463 C477 0.931 . S
H464 C479 0.930 . S
C465 H453 0.930 . S
C465 C466 1.399 . S
C465 C470 1.399 . S
C466 C465 1.399 . S
C466 C467 1.376 . S
C467 H454 0.930 . S
C467 C466 1.376 . S
C467 C468 1.388 . S
C468 H455 0.930 . S
C468 C467 1.388 . S
C468 C469 1.390 . S
C469 C468 1.390 . S
C469 C470 1.394 . S
C469 C475 1.465 1_455 S
C470 C465 1.399 . S
C470 C469 1.394 . S
C470 C471 1.516 . S
C471 C470 1.516 . S
C471 C472 1.502 . S
C471 C473 1.561 . S
C471 C474 1.526 1_455 S
C472 H456 0.959 1_455 S
C472 H457 0.959 1_455 S
C472 H458 0.961 . S
C472 C471 1.502 . S
C473 H459 0.960 . S
C473 H460 0.961 . S
C473 H461 0.959 . S
C473 C471 1.561 . S
C474 C471 1.526 1_655 S
C474 C475 1.396 . S
C474 C479 1.390 . S
C475 C469 1.465 1_655 S
C475 C474 1.396 . S
C475 C476 1.399 . S
C476 H462 0.929 . S
C476 C475 1.399 . S
C476 C477 1.385 . S
C477 H463 0.931 . S
C477 C476 1.385 . S
C477 C478 1.389 . S
C478 C477 1.389 . S
C478 C479 1.387 . S
C479 H464 0.930 . S
C479 C474 1.390 . S
C479 C478 1.387 . S
H480 C492 0.930 . S
H481 C494 0.930 . S
H482 C495 0.930 . S
H483 C499 0.959 1_545 S
H484 C499 0.959 . S
H485 C499 0.961 . S
H486 C500 0.960 . S
H487 C500 0.961 . S
H488 C500 0.959 . S
H489 C503 0.929 . S
H490 C504 0.931 . S
H491 C506 0.931 . S
C492 H480 0.930 . S
C492 C493 1.399 . S
C492 C497 1.399 . S
C493 C492 1.399 . S
C493 C494 1.376 . S
C494 H481 0.930 . S
C494 C493 1.376 . S
C494 C495 1.388 . S
C495 H482 0.930 . S
C495 C494 1.388 . S
C495 C496 1.390 . S
C496 C495 1.390 . S
C496 C497 1.394 . S
C496 C502 1.465 . S
C497 C492 1.399 . S
C497 C496 1.394 . S
C497 C498 1.516 . S
C498 C497 1.516 . S
C498 C499 1.502 . S
C498 C500 1.561 . S
C498 C501 1.526 . S
C499 H483 0.959 1_565 S
C499 H484 0.959 . S
C499 H485 0.961 . S
C499 C498 1.502 . S
C500 H486 0.960 . S
C500 H487 0.961 . S
C500 H488 0.959 . S
C500 C498 1.561 . S
C501 C498 1.526 . S
C501 C502 1.396 . S
C501 C506 1.390 . S
C502 C496 1.465 . S
C502 C501 1.396 . S
C502 C503 1.399 . S
C503 H489 0.929 . S
C503 C502 1.399 . S
C503 C504 1.385 . S
C504 H490 0.931 . S
C504 C503 1.385 . S
C504 C505 1.389 . S
C505 C504 1.389 . S
C505 C506 1.387 . S
C506 H491 0.931 . S
C506 C501 1.390 . S
C506 C505 1.387 . S
H507 C519 0.930 . S
H508 C521 0.930 . S
H509 C522 0.930 . S
H510 C526 0.959 . S
H511 C526 0.959 . S
H512 C526 0.961 . S
H513 C527 0.960 . S
H514 C527 0.961 . S
H515 C527 0.959 . S
H516 C530 0.929 . S
H517 C531 0.931 . S
H518 C533 0.930 . S
C519 H507 0.930 . S
C519 C520 1.399 . S
C519 C524 1.399 . S
C520 C519 1.399 . S
C520 C521 1.376 . S
C521 H508 0.930 . S
C521 C520 1.376 . S
C521 C522 1.388 . S
C522 H509 0.930 . S
C522 C521 1.388 . S
C522 C523 1.390 . S
C523 C522 1.390 . S
C523 C524 1.394 . S
C523 C529 1.465 . S
C524 C519 1.399 . S
C524 C523 1.394 . S
C524 C525 1.516 . S
C525 C524 1.516 . S
C525 C526 1.502 . S
C525 C527 1.561 . S
C525 C528 1.526 . S
C526 H510 0.959 . S
C526 H511 0.959 . S
C526 H512 0.961 . S
C526 C525 1.502 . S
C527 H513 0.960 . S
C527 H514 0.961 . S
C527 H515 0.959 . S
C527 C525 1.561 . S
C528 C525 1.526 . S
C528 C529 1.396 . S
C528 C533 1.390 . S
C529 C523 1.465 . S
C529 C528 1.396 . S
C529 C530 1.399 . S
C530 H516 0.929 . S
C530 C529 1.399 . S
C530 C531 1.385 . S
C531 H517 0.931 . S
C531 C530 1.385 . S
C531 C532 1.389 . S
C532 C531 1.389 . S
C532 C533 1.387 . S
C533 H518 0.930 . S
C533 C528 1.390 . S
C533 C532 1.387 . S
H534 C546 0.930 . S
H535 C548 0.930 . S
H536 C549 0.930 . S
H537 C553 0.959 . S
H538 C553 0.959 . S
H539 C553 0.961 . S
H540 C554 0.960 . S
H541 C554 0.961 . S
H542 C554 0.959 . S
H543 C557 0.929 . S
H544 C558 0.931 . S
H545 C560 0.930 . S
C546 H534 0.930 . S
C546 C547 1.399 . S
C546 C551 1.399 . S
C547 C546 1.399 . S
C547 C548 1.376 . S
C548 H535 0.930 . S
C548 C547 1.376 . S
C548 C549 1.388 . S
C549 H536 0.930 . S
C549 C548 1.388 . S
C549 C550 1.390 . S
C550 C549 1.390 . S
C550 C551 1.394 . S
C550 C556 1.465 . S
C551 C546 1.399 . S
C551 C550 1.394 . S
C551 C552 1.516 . S
C552 C551 1.516 . S
C552 C553 1.502 . S
C552 C554 1.561 . S
C552 C555 1.526 . S
C553 H537 0.959 . S
C553 H538 0.959 . S
C553 H539 0.961 . S
C553 C552 1.502 . S
C554 H540 0.960 . S
C554 H541 0.961 . S
C554 H542 0.959 . S
C554 C552 1.561 . S
C555 C552 1.526 . S
C555 C556 1.396 . S
C555 C560 1.390 1_455 S
C556 C550 1.465 . S
C556 C555 1.396 . S
C556 C557 1.399 1_455 S
C557 H543 0.929 . S
C557 C556 1.399 1_655 S
C557 C558 1.385 . S
C558 H544 0.931 . S
C558 C557 1.385 . S
C558 C559 1.389 . S
C559 C558 1.389 . S
C559 C560 1.387 . S
C560 H545 0.930 . S
C560 C555 1.390 1_655 S
C560 C559 1.387 . S
H561 C573 0.930 . S
H562 C575 0.930 . S
H563 C576 0.930 . S
H564 C580 0.959 . S
H565 C580 0.959 . S
H566 C580 0.961 . S
H567 C581 0.960 . S
H568 C581 0.961 . S
H569 C581 0.959 . S
H570 C584 0.929 . S
H571 C585 0.931 . S
H572 C587 0.930 . S
C573 H561 0.930 . S
C573 C574 1.399 . S
C573 C578 1.399 1_655 S
C574 C573 1.399 . S
C574 C575 1.376 . S
C575 H562 0.930 . S
C575 C574 1.376 . S
C575 C576 1.388 . S
C576 H563 0.930 . S
C576 C575 1.388 . S
C576 C577 1.390 1_655 S
C577 C576 1.390 1_455 S
C577 C578 1.394 . S
C577 C583 1.465 . S
C578 C573 1.399 1_455 S
C578 C577 1.394 . S
C578 C579 1.516 . S
C579 C578 1.516 . S
C579 C580 1.502 . S
C579 C581 1.561 . S
C579 C582 1.526 . S
C580 H564 0.959 . S
C580 H565 0.959 . S
C580 H566 0.961 . S
C580 C579 1.502 . S
C581 H567 0.960 . S
C581 H568 0.961 . S
C581 H569 0.959 . S
C581 C579 1.561 . S
C582 C579 1.526 . S
C582 C583 1.396 . S
C582 C587 1.390 . S
C583 C577 1.465 . S
C583 C582 1.396 . S
C583 C584 1.399 . S
C584 H570 0.929 . S
C584 C583 1.399 . S
C584 C585 1.385 . S
C585 H571 0.931 . S
C585 C584 1.385 . S
C585 C586 1.389 . S
C586 C585 1.389 . S
C586 C587 1.387 . S
C587 H572 0.930 . S
C587 C582 1.390 . S
C587 C586 1.387 . S
H588 C600 0.930 . S
H589 C602 0.930 . S
H590 C603 0.930 . S
H591 C607 0.959 . S
H592 C607 0.959 . S
H593 C607 0.961 1_565 S
H594 C608 0.960 . S
H595 C608 0.961 . S
H596 C608 0.959 . S
H597 C611 0.929 . S
H598 C612 0.931 . S
H599 C614 0.930 . S
C600 H588 0.930 . S
C600 C601 1.399 1_565 S
C600 C605 1.399 1_565 S
C601 C600 1.399 1_545 S
C601 C602 1.376 . S
C602 H589 0.930 . S
C602 C601 1.376 . S
C602 C603 1.388 . S
C603 H590 0.930 . S
C603 C602 1.388 . S
C603 C604 1.390 . S
C604 C603 1.390 . S
C604 C605 1.394 . S
C604 C610 1.465 . S
C605 C600 1.399 1_545 S
C605 C604 1.394 . S
C605 C606 1.516 . S
C606 C605 1.516 . S
C606 C607 1.502 . S
C606 C608 1.561 1_545 S
C606 C609 1.526 . S
C607 H591 0.959 . S
C607 H592 0.959 . S
C607 H593 0.961 1_545 S
C607 C606 1.502 . S
C608 H594 0.960 . S
C608 H595 0.961 . S
C608 H596 0.959 . S
C608 C606 1.561 1_565 S
C609 C606 1.526 . S
C609 C610 1.396 . S
C609 C614 1.390 . S
C610 C604 1.465 . S
C610 C609 1.396 . S
C610 C611 1.399 . S
C611 H597 0.929 . S
C611 C610 1.399 . S
C611 C612 1.385 . S
C612 H598 0.931 . S
C612 C611 1.385 . S
C612 C613 1.389 . S
C613 C612 1.389 . S
C613 C614 1.387 . S
C614 H599 0.930 . S
C614 C609 1.390 . S
C614 C613 1.387 . S
H615 C627 0.930 . S
H616 C629 0.930 . S
H617 C630 0.930 . S
H618 C634 0.959 . S
H619 C634 0.959 . S
H620 C634 0.961 . S
H621 C635 0.960 . S
H622 C635 0.961 . S
H623 C635 0.959 . S
H624 C638 0.929 . S
H625 C639 0.931 . S
H626 C641 0.930 . S
C627 H615 0.930 . S
C627 C628 1.399 . S
C627 C632 1.399 . S
C628 C627 1.399 . S
C628 C629 1.376 . S
C629 H616 0.930 . S
C629 C628 1.376 . S
C629 C630 1.388 . S
C630 H617 0.930 . S
C630 C629 1.388 . S
C630 C631 1.390 . S
C631 C630 1.390 . S
C631 C632 1.394 . S
C631 C637 1.465 . S
C632 C627 1.399 . S
C632 C631 1.394 . S
C632 C633 1.516 . S
C633 C632 1.516 . S
C633 C634 1.502 . S
C633 C635 1.561 . S
C633 C636 1.526 . S
C634 H618 0.959 . S
C634 H619 0.959 . S
C634 H620 0.961 . S
C634 C633 1.502 . S
C635 H621 0.960 . S
C635 H622 0.961 . S
C635 H623 0.959 . S
C635 C633 1.561 . S
C636 C633 1.526 . S
C636 C637 1.396 . S
C636 C641 1.390 . S
C637 C631 1.465 . S
C637 C636 1.396 . S
C637 C638 1.399 . S
C638 H624 0.929 . S
C638 C637 1.399 . S
C638 C639 1.385 . S
C639 H625 0.931 . S
C639 C638 1.385 . S
C639 C640 1.389 . S
C640 C639 1.389 . S
C640 C641 1.387 . S
C641 H626 0.930 . S
C641 C636 1.390 . S
C641 C640 1.387 . S
H642 C654 0.930 . S
H643 C656 0.930 . S
H644 C657 0.930 . S
H645 C661 0.959 . S
H646 C661 0.959 . S
H647 C661 0.961 . S
H648 C662 0.960 . S
H649 C662 0.961 . S
H650 C662 0.959 . S
H651 C665 0.929 . S
H652 C666 0.931 . S
H653 C668 0.930 . S
C654 H642 0.930 . S
C654 C655 1.399 . S
C654 C659 1.399 . S
C655 C654 1.399 . S
C655 C656 1.376 . S
C656 H643 0.930 . S
C656 C655 1.376 . S
C656 C657 1.388 . S
C657 H644 0.930 . S
C657 C656 1.388 . S
C657 C658 1.390 . S
C658 C657 1.390 . S
C658 C659 1.394 . S
C658 C664 1.465 . S
C659 C654 1.399 . S
C659 C658 1.394 . S
C659 C660 1.516 . S
C660 C659 1.516 . S
C660 C661 1.502 . S
C660 C662 1.561 . S
C660 C663 1.526 . S
C661 H645 0.959 . S
C661 H646 0.959 . S
C661 H647 0.961 . S
C661 C660 1.502 . S
C662 H648 0.960 . S
C662 H649 0.961 . S
C662 H650 0.959 . S
C662 C660 1.561 . S
C663 C660 1.526 . S
C663 C664 1.396 . S
C663 C668 1.390 . S
C664 C658 1.465 . S
C664 C663 1.396 . S
C664 C665 1.399 . S
C665 H651 0.929 . S
C665 C664 1.399 . S
C665 C666 1.385 . S
C666 H652 0.931 . S
C666 C665 1.385 . S
C666 C667 1.389 . S
C667 C666 1.389 . S
C667 C668 1.387 . S
C668 H653 0.930 . S
C668 C663 1.390 . S
C668 C667 1.387 . S
H669 C681 0.930 . S
H670 C683 0.930 . S
H671 C684 0.930 . S
H672 C688 0.959 . S
H673 C688 0.959 . S
H674 C688 0.961 . S
H675 C689 0.960 . S
H676 C689 0.961 . S
H677 C689 0.959 . S
H678 C692 0.929 . S
H679 C693 0.931 . S
H680 C695 0.930 . S
C681 H669 0.930 . S
C681 C682 1.399 . S
C681 C686 1.399 . S
C682 C681 1.399 . S
C682 C683 1.376 . S
C683 H670 0.930 . S
C683 C682 1.376 . S
C683 C684 1.388 . S
C684 H671 0.930 . S
C684 C683 1.388 . S
C684 C685 1.390 . S
C685 C684 1.390 . S
C685 C686 1.394 . S
C685 C691 1.465 . S
C686 C681 1.399 . S
C686 C685 1.394 . S
C686 C687 1.516 . S
C687 C686 1.516 . S
C687 C688 1.502 . S
C687 C689 1.561 . S
C687 C690 1.526 . S
C688 H672 0.959 . S
C688 H673 0.959 . S
C688 H674 0.961 . S
C688 C687 1.502 . S
C689 H675 0.960 . S
C689 H676 0.961 . S
C689 H677 0.959 . S
C689 C687 1.561 . S
C690 C687 1.526 . S
C690 C691 1.396 . S
C690 C695 1.390 . S
C691 C685 1.465 . S
C691 C690 1.396 . S
C691 C692 1.399 . S
C692 H678 0.929 . S
C692 C691 1.399 . S
C692 C693 1.385 . S
C693 H679 0.931 . S
C693 C692 1.385 . S
C693 C694 1.389 . S
C694 C693 1.389 . S
C694 C695 1.387 . S
C695 H680 0.930 . S
C695 C690 1.390 . S
C695 C694 1.387 . S
H696 C708 0.930 . S
H697 C710 0.930 . S
H698 C711 0.930 . S
H699 C715 0.959 . S
H700 C715 0.959 . S
H701 C715 0.961 . S
H702 C716 0.960 . S
H703 C716 0.961 . S
H704 C716 0.959 . S
H705 C719 0.929 . S
H706 C720 0.931 . S
H707 C722 0.930 . S
C708 H696 0.930 . S
C708 C709 1.399 . S
C708 C713 1.399 . S
C709 C708 1.399 . S
C709 C710 1.376 . S
C710 H697 0.930 . S
C710 C709 1.376 . S
C710 C711 1.388 . S
C711 H698 0.930 . S
C711 C710 1.388 . S
C711 C712 1.390 . S
C712 C711 1.390 . S
C712 C713 1.394 . S
C712 C718 1.465 . S
C713 C708 1.399 . S
C713 C712 1.394 . S
C713 C714 1.516 . S
C714 C713 1.516 . S
C714 C715 1.502 . S
C714 C716 1.561 . S
C714 C717 1.526 . S
C715 H699 0.959 . S
C715 H700 0.959 . S
C715 H701 0.961 . S
C715 C714 1.502 . S
C716 H702 0.960 . S
C716 H703 0.961 . S
C716 H704 0.959 . S
C716 C714 1.561 . S
C717 C714 1.526 . S
C717 C718 1.396 . S
C717 C722 1.390 . S
C718 C712 1.465 . S
C718 C717 1.396 . S
C718 C719 1.399 . S
C719 H705 0.929 . S
C719 C718 1.399 . S
C719 C720 1.385 . S
C720 H706 0.931 . S
C720 C719 1.385 . S
C720 C721 1.389 . S
C721 C720 1.389 . S
C721 C722 1.387 . S
C722 H707 0.930 . S
C722 C717 1.390 . S
C722 C721 1.387 . S
H723 C735 0.930 . S
H724 C737 0.930 . S
H725 C738 0.930 . S
H726 C742 0.959 . S
H727 C742 0.959 . S
H728 C742 0.961 . S
H729 C743 0.960 . S
H730 C743 0.961 . S
H731 C743 0.959 . S
H732 C746 0.929 . S
H733 C747 0.931 . S
H734 C749 0.930 . S
C735 H723 0.930 . S
C735 C736 1.399 . S
C735 C740 1.399 . S
C736 C735 1.399 . S
C736 C737 1.376 . S
C737 H724 0.930 . S
C737 C736 1.376 . S
C737 C738 1.388 . S
C738 H725 0.930 . S
C738 C737 1.388 . S
C738 C739 1.390 . S
C739 C738 1.390 . S
C739 C740 1.394 . S
C739 C745 1.465 . S
C740 C735 1.399 . S
C740 C739 1.394 . S
C740 C741 1.516 . S
C741 C740 1.516 . S
C741 C742 1.502 . S
C741 C743 1.561 . S
C741 C744 1.526 . S
C742 H726 0.959 . S
C742 H727 0.959 . S
C742 H728 0.961 . S
C742 C741 1.502 . S
C743 H729 0.960 . S
C743 H730 0.961 . S
C743 H731 0.959 . S
C743 C741 1.561 . S
C744 C741 1.526 . S
C744 C745 1.396 . S
C744 C749 1.390 . S
C745 C739 1.465 . S
C745 C744 1.396 . S
C745 C746 1.399 . S
C746 H732 0.929 . S
C746 C745 1.399 . S
C746 C747 1.385 . S
C747 H733 0.931 . S
C747 C746 1.385 . S
C747 C748 1.389 . S
C748 C747 1.389 . S
C748 C749 1.387 . S
C749 H734 0.930 . S
C749 C744 1.390 . S
C749 C748 1.387 . S
H750 C762 0.930 . S
H751 C764 0.930 . S
H752 C765 0.930 . S
H753 C769 0.959 . S
H754 C769 0.959 . S
H755 C769 0.961 . S
H756 C770 0.960 . S
H757 C770 0.961 . S
H758 C770 0.959 . S
H759 C773 0.929 . S
H760 C774 0.931 . S
H761 C776 0.930 . S
C762 H750 0.930 . S
C762 C763 1.399 . S
C762 C767 1.399 . S
C763 C762 1.399 . S
C763 C764 1.376 . S
C764 H751 0.930 . S
C764 C763 1.376 . S
C764 C765 1.388 . S
C765 H752 0.930 . S
C765 C764 1.388 . S
C765 C766 1.390 . S
C766 C765 1.390 . S
C766 C767 1.394 . S
C766 C772 1.465 . S
C767 C762 1.399 . S
C767 C766 1.394 . S
C767 C768 1.516 . S
C768 C767 1.516 . S
C768 C769 1.502 . S
C768 C770 1.561 . S
C768 C771 1.526 . S
C769 H753 0.959 . S
C769 H754 0.959 . S
C769 H755 0.961 . S
C769 C768 1.502 . S
C770 H756 0.960 . S
C770 H757 0.961 . S
C770 H758 0.959 . S
C770 C768 1.561 . S
C771 C768 1.526 . S
C771 C772 1.396 . S
C771 C776 1.390 . S
C772 C766 1.465 . S
C772 C771 1.396 . S
C772 C773 1.399 . S
C773 H759 0.929 . S
C773 C772 1.399 . S
C773 C774 1.385 . S
C774 H760 0.931 . S
C774 C773 1.385 . S
C774 C775 1.389 . S
C775 C774 1.389 . S
C775 C776 1.387 . S
C776 H761 0.930 . S
C776 C771 1.390 . S
C776 C775 1.387 . S
H777 C789 0.930 . S
H778 C791 0.930 . S
H779 C792 0.930 . S
H780 C796 0.959 . S
H781 C796 0.959 . S
H782 C796 0.961 . S
H783 C797 0.960 . S
H784 C797 0.961 . S
H785 C797 0.959 . S
H786 C800 0.929 . S
H787 C801 0.931 . S
H788 C803 0.930 . S
C789 H777 0.930 . S
C789 C790 1.399 . S
C789 C794 1.399 . S
C790 C789 1.399 . S
C790 C791 1.376 . S
C791 H778 0.930 . S
C791 C790 1.376 . S
C791 C792 1.388 . S
C792 H779 0.930 . S
C792 C791 1.388 . S
C792 C793 1.390 . S
C793 C792 1.390 . S
C793 C794 1.394 . S
C793 C799 1.465 . S
C794 C789 1.399 . S
C794 C793 1.394 . S
C794 C795 1.516 . S
C795 C794 1.516 . S
C795 C796 1.502 . S
C795 C797 1.561 . S
C795 C798 1.526 . S
C796 H780 0.959 . S
C796 H781 0.959 . S
C796 H782 0.961 . S
C796 C795 1.502 . S
C797 H783 0.960 . S
C797 H784 0.961 . S
C797 H785 0.959 . S
C797 C795 1.561 . S
C798 C795 1.526 . S
C798 C799 1.396 . S
C798 C803 1.390 . S
C799 C793 1.465 . S
C799 C798 1.396 . S
C799 C800 1.399 . S
C800 H786 0.929 . S
C800 C799 1.399 . S
C800 C801 1.385 . S
C801 H787 0.931 . S
C801 C800 1.385 . S
C801 C802 1.389 . S
C802 C801 1.389 . S
C802 C803 1.387 . S
C803 H788 0.930 . S
C803 C798 1.390 . S
C803 C802 1.387 . S
C169 C8 0.674 . S
C181 C138 0.684 . S
C196 C151 0.650 . S
C208 C21 0.543 . S
C223 C86 0.459 . S
C235 C34 0.649 . S
C250 C47 0.542 . S
C262 C99 0.475 . S
C277 C60 0.684 . S
C289 C112 0.675 . S
C304 C125 0.939 . S
C316 C73 0.816 . S
C331 C5 0.844 . S
C343 C96 0.815 . S
C358 C109 1.641 . S
C370 C18 1.160 . S
C385 C122 0.752 . S
C397 C31 0.683 . S
C412 C44 0.677 . S
C424 C135 0.712 . S
C439 C148 0.766 . S
C451 C57 0.704 . S
C466 C70 1.607 . S
C478 C83 1.003 . S
C493 C49 0.826 . S
C505 C10 0.857 1_565 S
C520 C62 0.537 . S
C532 C23 0.461 . S
C547 C75 0.491 . S
C559 C36 0.530 . S
C574 C88 0.451 . S
C586 C127 0.582 . S
C601 C101 0.866 1_545 S
C613 C140 0.799 . S
C628 C114 0.679 . S
C640 C153 0.739 . S
C655 C104 1.527 . S
C667 C0 1.475 . S
C682 C117 1.810 . S
C694 C13 1.614 . S
C709 C130 1.562 . S
C721 C26 1.521 . S
C736 C143 1.561 . S
C748 C39 1.518 . S
C763 C78 1.684 . S
C775 C52 1.759 . S
C790 C65 1.528 . S
C802 C91 1.471 . S
