# Generated by pormake.
# Topology umc, (4)-cn, num edge types: 1
# Building blocks:
#     Node 0, Type 0, BuildingBlock: GALJAG_clean_sbu_0, # of connection points: 4
#     Node 1, Type 0, BuildingBlock: GALJAG_clean_sbu_0, # of connection points: 4
#     Node 2, Type 0, BuildingBlock: GALJAG_clean_sbu_0, # of connection points: 4
#     Node 3, Type 0, BuildingBlock: GALJAG_clean_sbu_0, # of connection points: 4
#     Node 4, Type 0, BuildingBlock: GALJAG_clean_sbu_0, # of connection points: 4
#     Node 5, Type 0, BuildingBlock: GALJAG_clean_sbu_0, # of connection points: 4
#     Node 6, Type 0, BuildingBlock: GALJAG_clean_sbu_0, # of connection points: 4
#     Node 7, Type 0, BuildingBlock: GALJAG_clean_sbu_0, # of connection points: 4
#     Node 8, Type 0, BuildingBlock: GALJAG_clean_sbu_0, # of connection points: 4
#     Node 9, Type 0, BuildingBlock: GALJAG_clean_sbu_0, # of connection points: 4
#     Node 10, Type 0, BuildingBlock: GALJAG_clean_sbu_0, # of connection points: 4
#     Node 11, Type 0, BuildingBlock: GALJAG_clean_sbu_0, # of connection points: 4
#     Node 12, Type 0, BuildingBlock: GALJAG_clean_sbu_0, # of connection points: 4
#     Node 13, Type 0, BuildingBlock: GALJAG_clean_sbu_0, # of connection points: 4
#     Node 14, Type 0, BuildingBlock: GALJAG_clean_sbu_0, # of connection points: 4
#     Node 15, Type 0, BuildingBlock: GALJAG_clean_sbu_0, # of connection points: 4
#     Edge 16, Type (0, 0), BuildingBlock: EZIPEK_clean_linker_0, # of connection points: 2
#     Edge 17, Type (0, 0), BuildingBlock: EZIPEK_clean_linker_0, # of connection points: 2
#     Edge 18, Type (0, 0), BuildingBlock: EZIPEK_clean_linker_0, # of connection points: 2
#     Edge 19, Type (0, 0), BuildingBlock: EZIPEK_clean_linker_0, # of connection points: 2
#     Edge 20, Type (0, 0), BuildingBlock: EZIPEK_clean_linker_0, # of connection points: 2
#     Edge 21, Type (0, 0), BuildingBlock: EZIPEK_clean_linker_0, # of connection points: 2
#     Edge 22, Type (0, 0), BuildingBlock: EZIPEK_clean_linker_0, # of connection points: 2
#     Edge 23, Type (0, 0), BuildingBlock: EZIPEK_clean_linker_0, # of connection points: 2
#     Edge 24, Type (0, 0), BuildingBlock: EZIPEK_clean_linker_0, # of connection points: 2
#     Edge 25, Type (0, 0), BuildingBlock: EZIPEK_clean_linker_0, # of connection points: 2
#     Edge 26, Type (0, 0), BuildingBlock: EZIPEK_clean_linker_0, # of connection points: 2
#     Edge 27, Type (0, 0), BuildingBlock: EZIPEK_clean_linker_0, # of connection points: 2
#     Edge 28, Type (0, 0), BuildingBlock: EZIPEK_clean_linker_0, # of connection points: 2
#     Edge 29, Type (0, 0), BuildingBlock: EZIPEK_clean_linker_0, # of connection points: 2
#     Edge 30, Type (0, 0), BuildingBlock: EZIPEK_clean_linker_0, # of connection points: 2
#     Edge 31, Type (0, 0), BuildingBlock: EZIPEK_clean_linker_0, # of connection points: 2
#     Edge 32, Type (0, 0), BuildingBlock: EZIPEK_clean_linker_0, # of connection points: 2
#     Edge 33, Type (0, 0), BuildingBlock: EZIPEK_clean_linker_0, # of connection points: 2
#     Edge 34, Type (0, 0), BuildingBlock: EZIPEK_clean_linker_0, # of connection points: 2
#     Edge 35, Type (0, 0), BuildingBlock: EZIPEK_clean_linker_0, # of connection points: 2
#     Edge 36, Type (0, 0), BuildingBlock: EZIPEK_clean_linker_0, # of connection points: 2
#     Edge 37, Type (0, 0), BuildingBlock: EZIPEK_clean_linker_0, # of connection points: 2
#     Edge 38, Type (0, 0), BuildingBlock: EZIPEK_clean_linker_0, # of connection points: 2
#     Edge 39, Type (0, 0), BuildingBlock: EZIPEK_clean_linker_0, # of connection points: 2
#     Edge 40, Type (0, 0), BuildingBlock: EZIPEK_clean_linker_0, # of connection points: 2
#     Edge 41, Type (0, 0), BuildingBlock: EZIPEK_clean_linker_0, # of connection points: 2
#     Edge 42, Type (0, 0), BuildingBlock: EZIPEK_clean_linker_0, # of connection points: 2
#     Edge 43, Type (0, 0), BuildingBlock: EZIPEK_clean_linker_0, # of connection points: 2
#     Edge 44, Type (0, 0), BuildingBlock: EZIPEK_clean_linker_0, # of connection points: 2
#     Edge 45, Type (0, 0), BuildingBlock: EZIPEK_clean_linker_0, # of connection points: 2
#     Edge 46, Type (0, 0), BuildingBlock: EZIPEK_clean_linker_0, # of connection points: 2
#     Edge 47, Type (0, 0), BuildingBlock: EZIPEK_clean_linker_0, # of connection points: 2
# Relax obj value: 0.064
# Max RMSD: 0.131
# Mean RMSD: 0.131
data_MOF--net-umc--node1-GALJAG_clean_sbu_0--edge1-EZIPEK_clean_linker_0
_symmetry_space_group_name_H-M    P1
_symmetry_Int_Tables_number       1
_symmetry_cell_setting            triclinic
loop_
_symmetry_equiv_pos_as_xyz
'x, y, z'
_cell_length_a     30.341355
_cell_length_b     27.850001
_cell_length_c     41.575573
_cell_angle_alpha  89.906257
_cell_angle_beta   89.989824
_cell_angle_gamma 90.018405
loop_
_atom_site_label
_atom_site_type_symbol
_atom_site_fract_x
_atom_site_fract_y
_atom_site_fract_z
_atom_type_partial_charge
In0 In 0.32874 0.06904 0.37225 0.0
O1 O 0.33114 0.15084 0.37385 0.0
O2 O 0.26898 0.11712 0.36542 0.0
C3 C 0.41339 0.04111 0.37569 0.0
C4 C 0.30288 0.04395 0.43141 0.0
C5 C 0.31355 0.03477 0.3132 0.0
O6 O 0.40267 0.0846 0.37158 0.0
O7 O 0.38161 0.01218 0.37853 0.0
O8 O 0.29388 0.01785 0.33756 0.0
O9 O 0.33979 0.06888 0.31869 0.0
C10 C 0.29025 0.15567 0.36901 0.0
O11 O 0.28807 0.02252 0.40687 0.0
O12 O 0.32979 0.07743 0.42596 0.0
In13 In 0.6748 0.93338 0.3715 0.0
O14 O 0.72291 0.976 0.40323 0.0
O15 O 0.67237 0.93368 0.42536 0.0
C16 C 0.69072 0.95792 0.31002 0.0
C17 C 0.7069 0.8438 0.3742 0.0
C18 C 0.59207 0.96824 0.37399 0.0
O19 O 0.70405 0.98349 0.33322 0.0
O20 O 0.67158 0.91956 0.31804 0.0
O21 O 0.59983 0.92385 0.37088 0.0
O22 O 0.62574 0.99455 0.37622 0.0
C23 C 0.70476 0.96149 0.42892 0.0
O24 O 0.66615 0.85251 0.37718 0.0
O25 O 0.73124 0.88007 0.36997 0.0
In26 In 0.33055 0.93348 0.12273 0.0
O27 O 0.33752 0.8521 0.12283 0.0
O28 O 0.27266 0.88198 0.12413 0.0
C29 C 0.41391 0.96638 0.11861 0.0
C30 C 0.30041 0.95842 0.06468 0.0
C31 C 0.31548 0.96171 0.18348 0.0
O32 O 0.40534 0.9222 0.12204 0.0
O33 O 0.38069 0.99341 0.11668 0.0
O34 O 0.30295 0.98663 0.15969 0.0
O35 O 0.33336 0.92232 0.17643 0.0
C36 C 0.29636 0.84467 0.12393 0.0
O37 O 0.28296 0.97493 0.09005 0.0
O38 O 0.33224 0.92995 0.0688 0.0
In39 In 0.67913 0.0617 0.11984 0.0
O40 O 0.67536 0.14345 0.12112 0.0
O41 O 0.73895 0.11087 0.12337 0.0
C42 C 0.59402 0.03513 0.11596 0.0
C43 C 0.70455 0.03515 0.06079 0.0
C44 C 0.69449 0.02758 0.17923 0.0
O45 O 0.60543 0.07854 0.11914 0.0
O46 O 0.62534 0.00549 0.11416 0.0
O47 O 0.71457 0.01104 0.15498 0.0
O48 O 0.66796 0.06127 0.17345 0.0
C49 C 0.7166 0.14908 0.12283 0.0
O50 O 0.71829 0.01322 0.0855 0.0
O51 O 0.67898 0.06992 0.06601 0.0
In52 In 0.67585 0.93447 0.62012 0.0
O53 O 0.72019 0.97892 0.58668 0.0
O54 O 0.67454 0.92936 0.56604 0.0
C55 C 0.69382 0.96743 0.67914 0.0
C56 C 0.71012 0.8456 0.62303 0.0
C57 C 0.59222 0.96659 0.61801 0.0
O58 O 0.71229 0.98466 0.65439 0.0
O59 O 0.66765 0.93308 0.67408 0.0
O60 O 0.60118 0.92242 0.62074 0.0
O61 O 0.62508 0.99413 0.61595 0.0
C62 C 0.70414 0.96037 0.56155 0.0
O63 O 0.66961 0.8527 0.61783 0.0
O64 O 0.73309 0.88287 0.62686 0.0
In65 In 0.32978 0.07013 0.62407 0.0
O66 O 0.3337 0.15203 0.62295 0.0
O67 O 0.27058 0.11949 0.62941 0.0
C68 C 0.41429 0.04119 0.62034 0.0
C69 C 0.30335 0.04464 0.56514 0.0
C70 C 0.31265 0.03586 0.68304 0.0
O71 O 0.40407 0.08461 0.62524 0.0
O72 O 0.38218 0.01289 0.61696 0.0
O73 O 0.29265 0.02018 0.65852 0.0
O74 O 0.34029 0.06873 0.67777 0.0
C75 C 0.29269 0.15762 0.62666 0.0
O76 O 0.28987 0.02246 0.58983 0.0
O77 O 0.32937 0.07904 0.5703 0.0
In78 In 0.67148 0.06697 0.86956 0.0
O79 O 0.66609 0.14902 0.87062 0.0
O80 O 0.72991 0.11788 0.86597 0.0
C81 C 0.58747 0.03688 0.87415 0.0
C82 C 0.69867 0.03771 0.92765 0.0
C83 C 0.68877 0.03669 0.80944 0.0
O84 O 0.59737 0.0809 0.87174 0.0
O85 O 0.61978 0.00833 0.87449 0.0
O86 O 0.71302 0.02538 0.83301 0.0
O87 O 0.6566 0.06341 0.81631 0.0
C88 C 0.70719 0.15562 0.86817 0.0
O89 O 0.71057 0.01607 0.90237 0.0
O90 O 0.67386 0.07342 0.92345 0.0
In91 In 0.32455 0.93219 0.87328 0.0
O92 O 0.279 0.97527 0.90653 0.0
O93 O 0.32713 0.9281 0.92715 0.0
C94 C 0.30983 0.96102 0.81254 0.0
C95 C 0.28842 0.84434 0.87297 0.0
C96 C 0.40828 0.96445 0.87613 0.0
O97 O 0.2974 0.98588 0.83635 0.0
O98 O 0.32706 0.92125 0.8196 0.0
O99 O 0.39939 0.92047 0.87197 0.0
O100 O 0.37525 0.99136 0.87961 0.0
C101 C 0.29639 0.95782 0.93167 0.0
O102 O 0.32972 0.85056 0.87448 0.0
O103 O 0.26553 0.8822 0.87181 0.0
In104 In 0.82604 0.56846 0.37522 0.0
O105 O 0.78659 0.52268 0.41102 0.0
O106 O 0.83056 0.57649 0.42888 0.0
C107 C 0.80902 0.53493 0.31594 0.0
C108 C 0.78749 0.65552 0.37381 0.0
C109 C 0.90965 0.53711 0.37748 0.0
O110 O 0.78868 0.51943 0.34046 0.0
O111 O 0.83632 0.56811 0.32137 0.0
O112 O 0.90052 0.58124 0.37428 0.0
O113 O 0.87694 0.50935 0.3799 0.0
C114 C 0.80323 0.54369 0.43513 0.0
O115 O 0.8289 0.65056 0.37527 0.0
O116 O 0.76583 0.61688 0.37257 0.0
In117 In 0.17078 0.4298 0.37194 0.0
O118 O 0.16464 0.34803 0.37234 0.0
O119 O 0.22869 0.37868 0.36682 0.0
C120 C 0.08683 0.46048 0.37621 0.0
C121 C 0.19927 0.45522 0.43036 0.0
C122 C 0.18758 0.4641 0.31296 0.0
O123 O 0.09627 0.4168 0.37159 0.0
O124 O 0.11944 0.48818 0.37922 0.0
O125 O 0.208 0.47942 0.33737 0.0
O126 O 0.15979 0.43143 0.31832 0.0
C127 C 0.20553 0.3412 0.36895 0.0
O128 O 0.21302 0.4763 0.40534 0.0
O129 O 0.17181 0.42196 0.42581 0.0
In130 In 0.83096 0.42676 0.12736 0.0
O131 O 0.83786 0.34488 0.12776 0.0
O132 O 0.77319 0.37474 0.12885 0.0
C133 C 0.91409 0.45995 0.12388 0.0
C134 C 0.80511 0.45431 0.06855 0.0
C135 C 0.81246 0.4579 0.18704 0.0
O136 O 0.90554 0.41554 0.12584 0.0
O137 O 0.88092 0.48726 0.12344 0.0
O138 O 0.79046 0.4714 0.1628 0.0
O139 O 0.84257 0.428 0.18116 0.0
C140 C 0.79675 0.33746 0.12844 0.0
O141 O 0.78967 0.47398 0.09354 0.0
O142 O 0.83279 0.42134 0.07335 0.0
In143 In 0.17459 0.57063 0.12369 0.0
O144 O 0.21823 0.52877 0.08847 0.0
O145 O 0.17006 0.57803 0.07019 0.0
C146 C 0.18767 0.54052 0.18396 0.0
C147 C 0.21595 0.65588 0.12576 0.0
C148 C 0.09118 0.53814 0.12198 0.0
O149 O 0.20132 0.51643 0.16007 0.0
O150 O 0.16968 0.58011 0.17717 0.0
O151 O 0.09986 0.58205 0.12697 0.0
O152 O 0.12419 0.51162 0.11715 0.0
C153 C 0.19995 0.54788 0.06417 0.0
O154 O 0.17529 0.65226 0.11905 0.0
O155 O 0.23515 0.61668 0.13193 0.0
In156 In 0.17786 0.43392 0.62361 0.0
O157 O 0.16964 0.35232 0.62202 0.0
O158 O 0.2342 0.38092 0.62909 0.0
C159 C 0.09531 0.46916 0.62292 0.0
C160 C 0.20294 0.45697 0.56391 0.0
C161 C 0.19998 0.46747 0.68166 0.0
O162 O 0.10304 0.42497 0.6272 0.0
O163 O 0.12888 0.49514 0.61873 0.0
O164 O 0.2183 0.48286 0.65631 0.0
O165 O 0.17188 0.43465 0.67763 0.0
C166 C 0.21025 0.34422 0.62605 0.0
O167 O 0.22055 0.47654 0.58814 0.0
O168 O 0.17353 0.42629 0.56987 0.0
In169 In 0.83313 0.57338 0.62772 0.0
O170 O 0.79123 0.52639 0.59416 0.0
O171 O 0.83513 0.57812 0.57372 0.0
C172 C 0.81657 0.54167 0.68756 0.0
C173 C 0.79468 0.66022 0.62804 0.0
C174 C 0.91829 0.54624 0.62518 0.0
O175 O 0.80062 0.521 0.6631 0.0
O176 O 0.8395 0.57845 0.68171 0.0
O177 O 0.90717 0.5899 0.62728 0.0
O178 O 0.88673 0.51682 0.62402 0.0
C179 C 0.80691 0.5457 0.56908 0.0
O180 O 0.83588 0.65521 0.62517 0.0
O181 O 0.77301 0.62183 0.63116 0.0
In182 In 0.17345 0.56682 0.87027 0.0
O183 O 0.1665 0.64858 0.86631 0.0
O184 O 0.23088 0.61891 0.87145 0.0
C185 C 0.09104 0.53194 0.87413 0.0
C186 C 0.198 0.54327 0.92986 0.0
C187 C 0.19548 0.53605 0.81126 0.0
O188 O 0.09864 0.57645 0.87124 0.0
O189 O 0.12473 0.50542 0.87523 0.0
O190 O 0.21756 0.52436 0.83587 0.0
O191 O 0.16317 0.56335 0.81661 0.0
C192 C 0.20751 0.65611 0.86874 0.0
O193 O 0.21261 0.52045 0.90579 0.0
O194 O 0.17169 0.5771 0.92365 0.0
In195 In 0.82817 0.42997 0.87583 0.0
O196 O 0.78753 0.47701 0.91024 0.0
O197 O 0.8296 0.42283 0.92978 0.0
C198 C 0.8129 0.46526 0.81669 0.0
C199 C 0.79019 0.34276 0.87271 0.0
C200 C 0.91355 0.4562 0.8784 0.0
O201 O 0.79443 0.4829 0.84127 0.0
O202 O 0.83757 0.42972 0.82203 0.0
O203 O 0.90201 0.41284 0.87514 0.0
O204 O 0.8823 0.48576 0.88112 0.0
C205 C 0.8025 0.45619 0.93499 0.0
O206 O 0.83123 0.3481 0.87642 0.0
O207 O 0.76834 0.38117 0.87039 0.0
C208 C 0.3143 0.99579 0.48108 0.0
C209 C 0.2903 0.03187 0.46466 0.0
C210 C 0.26056 0.06135 0.51562 0.0
C211 C 0.29098 0.03165 0.53202 0.0
N212 N 0.34462 0.96807 0.53197 0.0
N213 N 0.23807 0.09683 0.46478 0.0
C214 C 0.31647 0.99719 0.51525 0.0
C215 C 0.2619 0.06342 0.4815 0.0
N216 N 0.33579 0.96124 0.46383 0.0
N217 N 0.23097 0.08777 0.53294 0.0
H218 H 0.2369 0.09739 0.43969 0.0
H219 H 0.2207 0.12476 0.4755 0.0
H220 H 0.22952 0.08618 0.55801 0.0
H221 H 0.2058 0.10803 0.5227 0.0
H222 H 0.35163 0.93187 0.47411 0.0
H223 H 0.33487 0.96005 0.43875 0.0
H224 H 0.36808 0.94604 0.52128 0.0
H225 H 0.34542 0.96718 0.55705 0.0
C226 C 0.74811 0.94547 0.51189 0.0
C227 C 0.71731 0.97424 0.52872 0.0
C228 C 0.69081 0.009 0.47833 0.0
C229 C 0.71821 0.97653 0.46143 0.0
N230 N 0.78176 0.92533 0.46049 0.0
N231 N 0.6687 0.04228 0.52995 0.0
C232 C 0.75024 0.94889 0.47779 0.0
C233 C 0.69207 0.00946 0.5125 0.0
N234 N 0.7733 0.91315 0.52845 0.0
N235 N 0.662 0.03723 0.46155 0.0
H236 H 0.6693 0.04285 0.55505 0.0
H237 H 0.65163 0.07099 0.51987 0.0
H238 H 0.66223 0.03898 0.43646 0.0
H239 H 0.63741 0.05788 0.47213 0.0
H240 H 0.79279 0.88709 0.51756 0.0
H241 H 0.77349 0.91153 0.55355 0.0
H242 H 0.8079 0.90664 0.47078 0.0
H243 H 0.78358 0.92798 0.43548 0.0
C244 C 0.31099 0.00663 0.01512 0.0
C245 C 0.28624 0.97161 0.03194 0.0
C246 C 0.25295 0.9445 0.98154 0.0
C247 C 0.28434 0.9723 0.96461 0.0
N248 N 0.34016 0.03353 0.96368 0.0
N249 N 0.23087 0.90985 0.0328 0.0
C250 C 0.31178 0.0054 0.98095 0.0
C251 C 0.25551 0.94204 0.01566 0.0
N252 N 0.33428 0.04015 0.03205 0.0
N253 N 0.22152 0.91997 0.96474 0.0
H254 H 0.23109 0.90884 0.0579 0.0
H255 H 0.21137 0.88338 0.02238 0.0
H256 H 0.21932 0.92195 0.93971 0.0
H257 H 0.19578 0.90107 0.97541 0.0
H258 H 0.35098 0.06878 0.02155 0.0
H259 H 0.33389 0.04134 0.05715 0.0
H260 H 0.36476 0.05459 0.97389 0.0
H261 H 0.33965 0.03476 0.93858 0.0
C262 C 0.74321 0.05369 0.97669 0.0
C263 C 0.71278 0.02387 0.96029 0.0
C264 C 0.68879 0.98813 0.01114 0.0
C265 C 0.7159 0.02145 0.02758 0.0
N266 N 0.77803 0.07466 0.02748 0.0
N267 N 0.66549 0.9546 0.95983 0.0
C268 C 0.74646 0.05031 0.01069 0.0
C269 C 0.68888 0.98787 0.9769 0.0
N270 N 0.76719 0.08674 0.95976 0.0
N271 N 0.66126 0.95898 0.02837 0.0
H272 H 0.66499 0.95425 0.93474 0.0
H273 H 0.64933 0.92546 0.97015 0.0
H274 H 0.66218 0.95724 0.05344 0.0
H275 H 0.63687 0.93759 0.01819 0.0
H276 H 0.78619 0.11348 0.97037 0.0
H277 H 0.76691 0.08821 0.93467 0.0
H278 H 0.8033 0.09427 0.01679 0.0
H279 H 0.78095 0.07165 0.05243 0.0
C280 C 0.76332 0.5627 0.51995 0.0
C281 C 0.79366 0.53262 0.53614 0.0
C282 C 0.81553 0.49611 0.48505 0.0
C283 C 0.79165 0.53241 0.46874 0.0
N284 N 0.74047 0.59838 0.46927 0.0
N285 N 0.84635 0.46819 0.53575 0.0
C286 C 0.76406 0.56458 0.4858 0.0
C287 C 0.81839 0.49772 0.51919 0.0
N288 N 0.73445 0.58975 0.53748 0.0
N289 N 0.83617 0.46107 0.46769 0.0
H290 H 0.84746 0.46742 0.56084 0.0
H291 H 0.86928 0.44565 0.52492 0.0
H292 H 0.83466 0.45969 0.44263 0.0
H293 H 0.85183 0.43154 0.47791 0.0
H294 H 0.70931 0.61026 0.52743 0.0
H295 H 0.73354 0.58851 0.56257 0.0
H296 H 0.72375 0.62667 0.48011 0.0
H297 H 0.73886 0.59895 0.44418 0.0
C298 C 0.19003 0.50453 0.51428 0.0
C299 C 0.21468 0.46876 0.53047 0.0
C300 C 0.24381 0.43971 0.47926 0.0
C301 C 0.21251 0.46869 0.46319 0.0
N302 N 0.15834 0.5317 0.46373 0.0
N303 N 0.26771 0.4046 0.52987 0.0
C304 C 0.18706 0.50291 0.48018 0.0
C305 C 0.24317 0.43763 0.51339 0.0
N306 N 0.1689 0.53913 0.53172 0.0
N307 N 0.27361 0.41404 0.46165 0.0
H308 H 0.26926 0.40401 0.55496 0.0
H309 H 0.28525 0.37697 0.51896 0.0
H310 H 0.27463 0.41589 0.43657 0.0
H311 H 0.29933 0.39434 0.47165 0.0
H312 H 0.15267 0.56834 0.52156 0.0
H313 H 0.17067 0.54057 0.55678 0.0
H314 H 0.13493 0.55354 0.47467 0.0
H315 H 0.15708 0.53254 0.43865 0.0
C316 C 0.75912 0.44251 0.98474 0.0
C317 C 0.79111 0.46996 0.9682 0.0
C318 C 0.81762 0.50287 0.01918 0.0
C319 C 0.79231 0.46783 0.03556 0.0
N320 N 0.73665 0.40628 0.03534 0.0
N321 N 0.8485 0.52951 0.96823 0.0
C322 C 0.76161 0.43886 0.01878 0.0
C323 C 0.81907 0.50202 0.985 0.0
N324 N 0.72686 0.4198 0.96765 0.0
N325 N 0.8407 0.53612 0.03648 0.0
H326 H 0.84864 0.53103 0.94314 0.0
H327 H 0.87354 0.54944 0.9789 0.0
H328 H 0.83978 0.53716 0.06157 0.0
H329 H 0.85768 0.56476 0.02621 0.0
H330 H 0.70062 0.40148 0.97815 0.0
H331 H 0.72436 0.42321 0.94271 0.0
H332 H 0.71737 0.38009 0.02438 0.0
H333 H 0.73657 0.40446 0.06043 0.0
C334 C 0.19931 0.49598 0.01513 0.0
C335 C 0.21328 0.53873 0.03058 0.0
C336 C 0.23505 0.57274 0.97869 0.0
C337 C 0.21267 0.53485 0.96316 0.0
N338 N 0.17493 0.45894 0.96527 0.0
N339 N 0.24433 0.61835 0.02761 0.0
C340 C 0.19617 0.4953 0.98094 0.0
C341 C 0.23197 0.57693 0.01253 0.0
N342 N 0.18777 0.45693 0.03319 0.0
N343 N 0.25862 0.60499 0.9608 0.0
H344 H 0.24298 0.62229 0.05247 0.0
H345 H 0.25325 0.64964 0.01551 0.0
H346 H 0.2614 0.60215 0.93584 0.0
H347 H 0.27872 0.63138 0.97075 0.0
H348 H 0.18053 0.42344 0.02347 0.0
H349 H 0.18888 0.45704 0.05826 0.0
H350 H 0.15745 0.43184 0.97689 0.0
H351 H 0.17328 0.45705 0.94024 0.0
C352 C 0.53226 0.01949 0.35015 0.0
C353 C 0.54682 0.98829 0.37505 0.0
C354 C 0.47582 0.99787 0.40268 0.0
C355 C 0.45977 0.02449 0.37599 0.0
N356 N 0.4699 0.05299 0.3216 0.0
N357 N 0.53207 0.94493 0.42422 0.0
C358 C 0.48727 0.03353 0.34905 0.0
C359 C 0.51835 0.9764 0.401 0.0
N360 N 0.5613 0.03603 0.32755 0.0
N361 N 0.45122 0.99507 0.43021 0.0
H362 H 0.56404 0.93131 0.42531 0.0
H363 H 0.51113 0.93023 0.44146 0.0
H364 H 0.42045 0.01136 0.43263 0.0
H365 H 0.46278 0.98047 0.45167 0.0
H366 H 0.55359 0.06306 0.31115 0.0
H367 H 0.59428 0.02584 0.32671 0.0
H368 H 0.48705 0.05496 0.29994 0.0
H369 H 0.43695 0.06302 0.3194 0.0
C370 C 0.47481 0.01683 0.14174 0.0
C371 C 0.45954 0.98545 0.11721 0.0
C372 C 0.53072 0.99275 0.08948 0.0
C373 C 0.54735 0.01948 0.11585 0.0
N374 N 0.53792 0.04926 0.16991 0.0
N375 N 0.4734 0.94068 0.06857 0.0
C376 C 0.52009 0.02971 0.14269 0.0
C377 C 0.48776 0.97231 0.09141 0.0
N378 N 0.44618 0.03471 0.16412 0.0
N379 N 0.55519 0.98893 0.06196 0.0
H380 H 0.44115 0.92781 0.06762 0.0
H381 H 0.49404 0.92513 0.05151 0.0
H382 H 0.58617 0.00472 0.05937 0.0
H383 H 0.54338 0.97408 0.04068 0.0
H384 H 0.45454 0.0619 0.18017 0.0
H385 H 0.41296 0.02551 0.1651 0.0
H386 H 0.52085 0.05205 0.19157 0.0
H387 H 0.57109 0.05851 0.17198 0.0
C388 C 0.53167 0.01107 0.64606 0.0
C389 C 0.54658 0.98536 0.61866 0.0
C390 C 0.47661 0.00147 0.59109 0.0
C391 C 0.46047 0.02394 0.61938 0.0
N392 N 0.46958 0.04385 0.67545 0.0
N393 N 0.53264 0.9514 0.56635 0.0
C394 C 0.48727 0.0274 0.64727 0.0
C395 C 0.51876 0.97899 0.59158 0.0
N396 N 0.55999 0.01991 0.67096 0.0
N397 N 0.45239 0.00358 0.56336 0.0
H398 H 0.56408 0.93638 0.56513 0.0
H399 H 0.51221 0.94075 0.54756 0.0
H400 H 0.42185 0.02065 0.56195 0.0
H401 H 0.46396 0.99222 0.54107 0.0
H402 H 0.55304 0.04358 0.68964 0.0
H403 H 0.59176 0.00573 0.67213 0.0
H404 H 0.48564 0.04182 0.69754 0.0
H405 H 0.43726 0.05617 0.67745 0.0
C406 C 0.52707 0.99001 0.90117 0.0
C407 C 0.54126 0.0195 0.87527 0.0
C408 C 0.46695 0.01729 0.85213 0.0
C409 C 0.45395 0.98365 0.87612 0.0
N410 N 0.4722 0.93496 0.92232 0.0
N411 N 0.52739 0.05345 0.82279 0.0
C412 C 0.48432 0.96883 0.90017 0.0
C413 C 0.51189 0.0313 0.84993 0.0
N414 N 0.5536 0.98426 0.92751 0.0
N415 N 0.43653 0.03618 0.83141 0.0
H416 H 0.56025 0.06335 0.81972 0.0
H417 H 0.5087 0.0578 0.80198 0.0
H418 H 0.40357 0.02584 0.83095 0.0
H419 H 0.44321 0.06503 0.81619 0.0
H420 H 0.54357 0.96735 0.94862 0.0
H421 H 0.58454 0.00031 0.92951 0.0
H422 H 0.49437 0.9183 0.93786 0.0
H423 H 0.44027 0.92138 0.92411 0.0
C424 C 0.96997 0.49168 0.34993 0.0
C425 C 0.95531 0.51843 0.37694 0.0
C426 C 0.02509 0.50236 0.40477 0.0
C427 C 0.04097 0.47872 0.37685 0.0
N428 N 0.03177 0.45744 0.32099 0.0
N429 N 0.96962 0.55403 0.42871 0.0
C430 C 0.01421 0.47485 0.34896 0.0
C431 C 0.9832 0.52541 0.40391 0.0
N432 N 0.94155 0.48222 0.32519 0.0
N433 N 0.04922 0.5008 0.43255 0.0
H434 H 0.93837 0.56957 0.42965 0.0
H435 H 0.99015 0.56503 0.44735 0.0
H436 H 0.07953 0.4833 0.43425 0.0
H437 H 0.03775 0.51305 0.45465 0.0
H438 H 0.94834 0.45785 0.30688 0.0
H439 H 0.90986 0.49655 0.32382 0.0
H440 H 0.01576 0.45915 0.29888 0.0
H441 H 0.06397 0.44474 0.31915 0.0
C442 C 0.01481 0.53269 0.09867 0.0
C443 C 0.04576 0.51831 0.12243 0.0
C444 C 0.98942 0.46798 0.14821 0.0
C445 C 0.9597 0.47909 0.12297 0.0
N446 N 0.9465 0.51446 0.0709 0.0
N447 N 0.06505 0.46503 0.16632 0.0
C448 C 0.97294 0.50963 0.09735 0.0
C449 C 0.03391 0.48359 0.14604 0.0
N450 N 0.02556 0.56786 0.07707 0.0
N451 N 0.97468 0.44475 0.17516 0.0
H452 H 0.09779 0.47621 0.16657 0.0
H453 H 0.05921 0.43568 0.18129 0.0
H454 H 0.94212 0.43364 0.17817 0.0
H455 H 0.99359 0.44069 0.1959 0.0
H456 H 0.00272 0.5839 0.06176 0.0
H457 H 0.05684 0.58323 0.07566 0.0
H458 H 0.95605 0.53228 0.04999 0.0
H459 H 0.91648 0.49659 0.06852 0.0
C460 C 0.97882 0.50214 0.59701 0.0
C461 C 0.96481 0.53001 0.62368 0.0
C462 C 0.0378 0.52123 0.64856 0.0
C463 C 0.05026 0.48961 0.62335 0.0
N464 N 0.03233 0.44662 0.57476 0.0
N465 N 0.97884 0.56276 0.67641 0.0
C466 C 0.02058 0.47893 0.59798 0.0
C467 C 0.99387 0.53914 0.64975 0.0
N468 N 0.95301 0.49991 0.57006 0.0
N469 N 0.06797 0.534 0.67147 0.0
H470 H 0.94735 0.57743 0.67807 0.0
H471 H 0.99637 0.56516 0.69786 0.0
H472 H 0.0993 0.51881 0.67306 0.0
H473 H 0.06298 0.56155 0.68795 0.0
H474 H 0.96298 0.48426 0.54854 0.0
H475 H 0.92295 0.51785 0.56807 0.0
H476 H 0.01038 0.43281 0.5579 0.0
H477 H 0.06356 0.43114 0.57342 0.0
C478 C 0.01897 0.52029 0.90277 0.0
C479 C 0.04587 0.51178 0.87543 0.0
C480 C 0.98637 0.46535 0.85018 0.0
C481 C 0.96019 0.47212 0.87814 0.0
N482 N 0.95383 0.49777 0.93324 0.0
N483 N 0.05809 0.47183 0.82472 0.0
C484 C 0.97708 0.49748 0.90503 0.0
C485 C 0.03051 0.48271 0.84971 0.0
N486 N 0.03351 0.55017 0.9266 0.0
N487 N 0.96833 0.44466 0.82341 0.0
H488 H 0.0894 0.48675 0.82205 0.0
H489 H 0.05105 0.44592 0.80745 0.0
H490 H 0.93648 0.43073 0.82275 0.0
H491 H 0.98358 0.44431 0.80099 0.0
H492 H 0.0136 0.56249 0.94523 0.0
H493 H 0.06501 0.56514 0.92686 0.0
H494 H 0.96593 0.51149 0.95476 0.0
H495 H 0.92368 0.48021 0.93598 0.0
C496 C 0.24669 0.27622 0.39759 0.0
C497 C 0.22551 0.29285 0.36926 0.0
C498 C 0.24886 0.22062 0.34024 0.0
C499 C 0.26826 0.203 0.36899 0.0
N500 N 0.27941 0.20921 0.42627 0.0
N501 N 0.20077 0.27934 0.31497 0.0
C502 C 0.26565 0.22956 0.39802 0.0
C503 C 0.22478 0.26446 0.34098 0.0
N504 N 0.24885 0.30526 0.42405 0.0
N505 N 0.25508 0.19638 0.312 0.0
H506 H 0.18402 0.31204 0.31432 0.0
H507 H 0.19486 0.25808 0.29486 0.0
H508 H 0.27256 0.1642 0.31056 0.0
H509 H 0.24591 0.2097 0.28958 0.0
H510 H 0.26848 0.29802 0.44401 0.0
H511 H 0.23271 0.33824 0.42543 0.0
H512 H 0.2739 0.22432 0.44879 0.0
H513 H 0.29339 0.17505 0.4276 0.0
C514 C 0.71611 0.76241 0.34955 0.0
C515 C 0.72517 0.79454 0.37514 0.0
C516 C 0.77105 0.73346 0.40156 0.0
C517 C 0.76556 0.70314 0.37444 0.0
N518 N 0.73622 0.6896 0.32134 0.0
N519 N 0.76236 0.81271 0.4249 0.0
C520 C 0.7386 0.71764 0.34823 0.0
C521 C 0.75311 0.78068 0.40093 0.0
N522 N 0.68608 0.77475 0.32641 0.0
N523 N 0.79132 0.71614 0.42859 0.0
H524 H 0.74685 0.84599 0.42678 0.0
H525 H 0.7868 0.80738 0.44211 0.0
H526 H 0.80403 0.68143 0.43023 0.0
H527 H 0.7923 0.73441 0.45039 0.0
H528 H 0.67384 0.7508 0.30943 0.0
H529 H 0.67101 0.80833 0.32526 0.0
H530 H 0.72179 0.70043 0.29982 0.0
H531 H 0.75156 0.65633 0.31972 0.0
C532 C 0.22337 0.73928 0.14835 0.0
C533 C 0.23904 0.70294 0.12729 0.0
C534 C 0.29054 0.76036 0.10302 0.0
C535 C 0.2771 0.79575 0.12542 0.0
N536 N 0.23851 0.81525 0.17449 0.0
N537 N 0.29688 0.67585 0.09141 0.0
C538 C 0.24551 0.78433 0.14948 0.0
C539 C 0.27565 0.71238 0.10687 0.0
N540 N 0.18789 0.7306 0.16778 0.0
N541 N 0.31558 0.77287 0.07697 0.0
H542 H 0.28825 0.63992 0.09392 0.0
H543 H 0.32625 0.68072 0.07882 0.0
H544 H 0.32575 0.80798 0.07237 0.0
H545 H 0.32218 0.7494 0.05808 0.0
H546 H 0.17142 0.75752 0.18032 0.0
H547 H 0.17355 0.69678 0.17036 0.0
H548 H 0.21928 0.80679 0.19446 0.0
H549 H 0.25551 0.84756 0.17709 0.0
C550 C 0.73283 0.22506 0.15256 0.0
C551 C 0.73731 0.19715 0.12426 0.0
C552 C 0.78197 0.26053 0.09903 0.0
C553 C 0.77723 0.28865 0.12733 0.0
N554 N 0.74408 0.30139 0.17935 0.0
N555 N 0.76775 0.18517 0.07137 0.0
C556 C 0.75146 0.27193 0.15362 0.0
C557 C 0.76247 0.21399 0.09773 0.0
N558 N 0.71272 0.2056 0.17903 0.0
N559 N 0.80261 0.27978 0.0727 0.0
H560 H 0.75117 0.15265 0.06858 0.0
H561 H 0.78959 0.1921 0.05266 0.0
H562 H 0.81662 0.31397 0.07252 0.0
H563 H 0.8038 0.26363 0.0502 0.0
H564 H 0.71256 0.22147 0.20166 0.0
H565 H 0.69862 0.17143 0.17917 0.0
H566 H 0.72138 0.29423 0.19749 0.0
H567 H 0.75892 0.33488 0.18179 0.0
C568 C 0.74247 0.77428 0.59516 0.0
C569 C 0.7298 0.79713 0.62418 0.0
C570 C 0.76246 0.73173 0.65574 0.0
C571 C 0.77292 0.70761 0.62672 0.0
N572 N 0.76839 0.70171 0.56897 0.0
N573 N 0.72141 0.79567 0.68178 0.0
C574 C 0.76164 0.7277 0.59643 0.0
C575 C 0.73803 0.7753 0.65443 0.0
N576 N 0.73738 0.7978 0.56648 0.0
N577 N 0.77685 0.7135 0.68444 0.0
H578 H 0.70327 0.82749 0.68157 0.0
H579 H 0.72243 0.77939 0.70431 0.0
H580 H 0.79407 0.68118 0.68628 0.0
H581 H 0.77459 0.73179 0.70618 0.0
H582 H 0.75051 0.7857 0.54483 0.0
H583 H 0.72228 0.83134 0.56455 0.0
H584 H 0.75632 0.71171 0.54651 0.0
H585 H 0.78372 0.66818 0.56891 0.0
C586 C 0.24069 0.2737 0.65595 0.0
C587 C 0.2291 0.29534 0.62624 0.0
C588 C 0.25686 0.22526 0.59693 0.0
C589 C 0.27153 0.20535 0.62648 0.0
N590 N 0.28222 0.21166 0.68373 0.0
N591 N 0.22977 0.2953 0.56826 0.0
C592 C 0.26479 0.22988 0.65593 0.0
C593 C 0.238 0.27201 0.59663 0.0
N594 N 0.22742 0.29446 0.68413 0.0
N595 N 0.26027 0.19901 0.56925 0.0
H596 H 0.21475 0.32895 0.5671 0.0
H597 H 0.24022 0.28287 0.54593 0.0
H598 H 0.27553 0.16549 0.56834 0.0
H599 H 0.24565 0.20887 0.54758 0.0
H600 H 0.23103 0.27845 0.7066 0.0
H601 H 0.20934 0.32629 0.68486 0.0
H602 H 0.28268 0.23015 0.70545 0.0
H603 H 0.29915 0.17907 0.68464 0.0
C604 C 0.75365 0.21994 0.84268 0.0
C605 C 0.72781 0.20391 0.86911 0.0
C606 C 0.7413 0.27996 0.89723 0.0
C607 C 0.76903 0.29486 0.87156 0.0
N608 N 0.80582 0.27799 0.82143 0.0
N609 N 0.70331 0.21433 0.92385 0.0
C610 C 0.77658 0.26442 0.8448 0.0
C611 C 0.72301 0.2329 0.89695 0.0
N612 N 0.75476 0.1935 0.81502 0.0
N613 N 0.73275 0.31073 0.92206 0.0
H614 H 0.69029 0.17971 0.9249 0.0
H615 H 0.70309 0.23144 0.94608 0.0
H616 H 0.74847 0.34378 0.92457 0.0
H617 H 0.70847 0.30474 0.9393 0.0
H618 H 0.76852 0.20553 0.79354 0.0
H619 H 0.73896 0.16051 0.81273 0.0
H620 H 0.81708 0.25514 0.80344 0.0
H621 H 0.82109 0.31154 0.82097 0.0
C622 C 0.25788 0.71853 0.84512 0.0
C623 C 0.22721 0.70488 0.86934 0.0
C624 C 0.24016 0.78108 0.89752 0.0
C625 C 0.26802 0.79606 0.872 0.0
N626 N 0.29805 0.78305 0.81905 0.0
N627 N 0.18614 0.72408 0.91742 0.0
C628 C 0.27561 0.7658 0.84518 0.0
C629 C 0.21718 0.73663 0.89506 0.0
N630 N 0.27037 0.68624 0.82212 0.0
N631 N 0.23759 0.80822 0.92486 0.0
H632 H 0.17116 0.69042 0.91819 0.0
H633 H 0.17332 0.74789 0.93427 0.0
H634 H 0.25482 0.84032 0.92775 0.0
H635 H 0.2216 0.79723 0.94576 0.0
H636 H 0.2966 0.69188 0.80642 0.0
H637 H 0.25647 0.65222 0.81994 0.0
H638 H 0.30025 0.76491 0.79724 0.0
H639 H 0.3115 0.81749 0.81809 0.0
C640 C 0.27337 0.01643 0.26177 0.0
C641 C 0.31156 0.01223 0.28117 0.0
C642 C 0.35258 0.97793 0.23617 0.0
C643 C 0.3136 0.97893 0.21716 0.0
N644 N 0.23483 0.99006 0.21384 0.0
N645 N 0.38388 0.97867 0.28965 0.0
C646 C 0.27332 0.9957 0.23048 0.0
C647 C 0.35004 0.98979 0.26921 0.0
N648 N 0.23777 0.04152 0.27282 0.0
N649 N 0.39259 0.96812 0.2225 0.0
H650 H 0.38296 0.9861 0.31421 0.0
H651 H 0.41081 0.95775 0.28296 0.0
H652 H 0.3968 0.95985 0.19829 0.0
H653 H 0.42242 0.97281 0.23448 0.0
H654 H 0.21089 0.05052 0.25846 0.0
H655 H 0.23649 0.05633 0.29585 0.0
H656 H 0.20394 0.9972 0.22363 0.0
H657 H 0.23335 0.97399 0.19123 0.0
C658 C 0.65722 0.98393 0.22363 0.0
C659 C 0.69621 0.00506 0.21139 0.0
C660 C 0.73394 0.98857 0.26236 0.0
C661 C 0.69319 0.97354 0.27593 0.0
N662 N 0.61397 0.96509 0.2706 0.0
N663 N 0.77081 0.03205 0.21939 0.0
C664 C 0.65427 0.97314 0.25685 0.0
C665 C 0.73451 0.00844 0.23075 0.0
N666 N 0.62322 0.97307 0.20329 0.0
N667 N 0.77224 0.98217 0.27913 0.0
H668 H 0.77255 0.04616 0.19617 0.0
H669 H 0.79793 0.04053 0.23365 0.0
H670 H 0.77322 0.9667 0.30198 0.0
H671 H 0.80333 0.98802 0.26927 0.0
H672 H 0.5958 0.95308 0.21027 0.0
H673 H 0.62446 0.97959 0.1786 0.0
H674 H 0.58433 0.9703 0.25844 0.0
H675 H 0.60942 0.9579 0.29494 0.0
C676 C 0.69254 0.05314 0.75019 0.0
C677 C 0.69653 0.01992 0.77603 0.0
C678 C 0.71139 0.95581 0.73723 0.0
C679 C 0.69987 0.98726 0.71178 0.0
N680 N 0.67279 0.06474 0.69444 0.0
N681 N 0.7025 0.93718 0.7936 0.0
C682 C 0.68903 0.03579 0.71825 0.0
C683 C 0.70452 0.97058 0.76951 0.0
N684 N 0.69301 0.1014 0.75601 0.0
N685 N 0.72937 0.91198 0.73052 0.0
H686 H 0.69529 0.94559 0.81742 0.0
H687 H 0.70348 0.90033 0.78937 0.0
H688 H 0.73586 0.90071 0.70707 0.0
H689 H 0.74215 0.88928 0.74815 0.0
H690 H 0.69477 0.12707 0.7378 0.0
H691 H 0.69631 0.11574 0.77898 0.0
H692 H 0.65936 0.09852 0.69888 0.0
H693 H 0.66889 0.05364 0.67069 0.0
C694 C 0.2696 0.99723 0.76525 0.0
C695 C 0.30909 0.97888 0.77893 0.0
C696 C 0.34685 0.98912 0.72729 0.0
C697 C 0.30934 0.01308 0.715 0.0
N698 N 0.23627 0.04479 0.7227 0.0
N699 N 0.38792 0.96592 0.77439 0.0
C700 C 0.2709 0.01835 0.73403 0.0
C701 C 0.34842 0.97692 0.76032 0.0
N702 N 0.23063 0.99275 0.78148 0.0
N703 N 0.38068 0.97687 0.70714 0.0
H704 H 0.39153 0.95764 0.79866 0.0
H705 H 0.41807 0.96978 0.76266 0.0
H706 H 0.38039 0.98441 0.68256 0.0
H707 H 0.40682 0.95494 0.71408 0.0
H708 H 0.20016 0.00111 0.7714 0.0
H709 H 0.22823 0.9765 0.80402 0.0
H710 H 0.20937 0.05453 0.73681 0.0
H711 H 0.2359 0.05992 0.69973 0.0
C712 C 0.80408 0.44565 0.24654 0.0
C713 C 0.80578 0.47749 0.21985 0.0
C714 C 0.7987 0.54569 0.25653 0.0
C715 C 0.8038 0.51435 0.28324 0.0
N716 N 0.82016 0.4345 0.30296 0.0
N717 N 0.81364 0.5589 0.20018 0.0
C718 C 0.80849 0.46421 0.27816 0.0
C719 C 0.80512 0.52786 0.22494 0.0
N720 N 0.79754 0.39767 0.24178 0.0
N721 N 0.78705 0.59248 0.26127 0.0
H722 H 0.82071 0.54782 0.17683 0.0
H723 H 0.81832 0.59562 0.20354 0.0
H724 H 0.78152 0.6066 0.28404 0.0
H725 H 0.77847 0.61565 0.24258 0.0
H726 H 0.79154 0.37359 0.26049 0.0
H727 H 0.79359 0.38279 0.21901 0.0
H728 H 0.82879 0.39864 0.29962 0.0
H729 H 0.82573 0.44643 0.32633 0.0
C730 C 0.22827 0.48238 0.26168 0.0
C731 C 0.19028 0.48741 0.28117 0.0
C732 C 0.15022 0.52434 0.23663 0.0
C733 C 0.18909 0.52246 0.2175 0.0
N734 N 0.26765 0.50926 0.21421 0.0
N735 N 0.11944 0.52415 0.29025 0.0
C736 C 0.22893 0.5041 0.23066 0.0
C737 C 0.15261 0.5118 0.26956 0.0
N738 N 0.26311 0.4557 0.27239 0.0
N739 N 0.11038 0.53564 0.2232 0.0
H740 H 0.12042 0.51645 0.3148 0.0
H741 H 0.09327 0.54636 0.28379 0.0
H742 H 0.10608 0.54429 0.19906 0.0
H743 H 0.08055 0.53168 0.23535 0.0
H744 H 0.28965 0.44615 0.25786 0.0
H745 H 0.26397 0.44018 0.29524 0.0
H746 H 0.29829 0.5008 0.22398 0.0
H747 H 0.26974 0.52637 0.19193 0.0
C748 C 0.20452 0.55312 0.75262 0.0
C749 C 0.20569 0.51936 0.77826 0.0
C750 C 0.21868 0.45507 0.73934 0.0
C751 C 0.20865 0.48726 0.71398 0.0
N752 N 0.18691 0.56677 0.69669 0.0
N753 N 0.20832 0.43627 0.79554 0.0
C754 C 0.20079 0.53646 0.72053 0.0
C755 C 0.21196 0.46979 0.77163 0.0
N756 N 0.20752 0.60116 0.75889 0.0
N757 N 0.23491 0.41049 0.73249 0.0
H758 H 0.20157 0.44476 0.81941 0.0
H759 H 0.20783 0.39946 0.79112 0.0
H760 H 0.24135 0.39939 0.70899 0.0
H761 H 0.24647 0.38692 0.75005 0.0
H762 H 0.21113 0.62701 0.74093 0.0
H763 H 0.21112 0.61472 0.78208 0.0
H764 H 0.17555 0.60143 0.70115 0.0
H765 H 0.18306 0.55631 0.67282 0.0
C766 C 0.77269 0.51256 0.73549 0.0
C767 C 0.81395 0.5213 0.72042 0.0
C768 C 0.85208 0.50274 0.77063 0.0
C769 C 0.81165 0.48815 0.78458 0.0
N770 N 0.73367 0.47356 0.77939 0.0
N771 N 0.89315 0.51232 0.72142 0.0
C772 C 0.77184 0.49163 0.76683 0.0
C773 C 0.85375 0.51296 0.73737 0.0
N774 N 0.73453 0.52567 0.72041 0.0
N775 N 0.88869 0.50846 0.78938 0.0
H776 H 0.89556 0.5163 0.69654 0.0
H777 H 0.92267 0.50212 0.73226 0.0
H778 H 0.8882 0.50365 0.81426 0.0
H779 H 0.91801 0.52324 0.78082 0.0
H780 H 0.70379 0.52471 0.73154 0.0
H781 H 0.73399 0.54125 0.69758 0.0
H782 H 0.70462 0.47033 0.76622 0.0
H783 H 0.73189 0.45848 0.80234 0.0
loop_
_geom_bond_atom_site_label_1
_geom_bond_atom_site_label_2
_geom_bond_distance
_geom_bond_site_symmetry_2
_ccdc_geom_bond_type
In0 O1 2.294 . S
In0 O2 2.326 . S
In0 O6 2.266 . S
In0 O7 2.326 . S
In0 O8 2.266 . S
In0 O9 2.326 . S
In0 O11 2.294 . S
In0 O12 2.326 . S
O1 In0 2.294 . S
O1 C10 1.240 . S
O2 In0 2.326 . S
O2 C10 1.252 . S
C3 O6 1.252 . S
C3 O7 1.260 . S
C4 O11 1.240 . S
C4 O12 1.252 . S
C5 O8 1.252 . S
C5 O9 1.260 . S
O6 In0 2.266 . S
O6 C3 1.252 . S
O7 In0 2.326 . S
O7 C3 1.260 . S
O8 In0 2.266 . S
O8 C5 1.252 . S
O9 In0 2.326 . S
O9 C5 1.260 . S
C10 O1 1.240 . S
C10 O2 1.252 . S
O11 In0 2.294 . S
O11 C4 1.240 . S
O12 In0 2.326 . S
O12 C4 1.252 . S
In13 O14 2.294 . S
In13 O15 2.326 . S
In13 O19 2.266 . S
In13 O20 2.326 . S
In13 O21 2.266 . S
In13 O22 2.326 . S
In13 O24 2.294 . S
In13 O25 2.326 . S
O14 In13 2.294 . S
O14 C23 1.240 . S
O15 In13 2.326 . S
O15 C23 1.252 . S
C16 O19 1.252 . S
C16 O20 1.260 . S
C17 O24 1.240 . S
C17 O25 1.252 . S
C18 O21 1.252 . S
C18 O22 1.260 . S
O19 In13 2.266 . S
O19 C16 1.252 . S
O20 In13 2.326 . S
O20 C16 1.260 . S
O21 In13 2.266 . S
O21 C18 1.252 . S
O22 In13 2.326 . S
O22 C18 1.260 . S
C23 O14 1.240 . S
C23 O15 1.252 . S
O24 In13 2.294 . S
O24 C17 1.240 . S
O25 In13 2.326 . S
O25 C17 1.252 . S
In26 O27 2.294 . S
In26 O28 2.326 . S
In26 O32 2.266 . S
In26 O33 2.326 . S
In26 O34 2.266 . S
In26 O35 2.326 . S
In26 O37 2.294 . S
In26 O38 2.326 . S
O27 In26 2.294 . S
O27 C36 1.240 . S
O28 In26 2.326 . S
O28 C36 1.252 . S
C29 O32 1.252 . S
C29 O33 1.260 . S
C30 O37 1.240 . S
C30 O38 1.252 . S
C31 O34 1.252 . S
C31 O35 1.260 . S
O32 In26 2.266 . S
O32 C29 1.252 . S
O33 In26 2.326 . S
O33 C29 1.260 . S
O34 In26 2.266 . S
O34 C31 1.252 . S
O35 In26 2.326 . S
O35 C31 1.260 . S
C36 O27 1.240 . S
C36 O28 1.252 . S
O37 In26 2.294 . S
O37 C30 1.240 . S
O38 In26 2.326 . S
O38 C30 1.252 . S
In39 O40 2.294 . S
In39 O41 2.326 . S
In39 O45 2.266 . S
In39 O46 2.326 . S
In39 O47 2.266 . S
In39 O48 2.326 . S
In39 O50 2.294 . S
In39 O51 2.326 . S
O40 In39 2.294 . S
O40 C49 1.240 . S
O41 In39 2.326 . S
O41 C49 1.252 . S
C42 O45 1.252 . S
C42 O46 1.260 . S
C43 O50 1.240 . S
C43 O51 1.252 . S
C44 O47 1.252 . S
C44 O48 1.260 . S
O45 In39 2.266 . S
O45 C42 1.252 . S
O46 In39 2.326 . S
O46 C42 1.260 . S
O47 In39 2.266 . S
O47 C44 1.252 . S
O48 In39 2.326 . S
O48 C44 1.260 . S
C49 O40 1.240 . S
C49 O41 1.252 . S
O50 In39 2.294 . S
O50 C43 1.240 . S
O51 In39 2.326 . S
O51 C43 1.252 . S
In52 O53 2.294 . S
In52 O54 2.326 . S
In52 O58 2.266 . S
In52 O59 2.326 . S
In52 O60 2.266 . S
In52 O61 2.326 . S
In52 O63 2.294 . S
In52 O64 2.326 . S
O53 In52 2.294 . S
O53 C62 1.240 . S
O54 In52 2.326 . S
O54 C62 1.252 . S
C55 O58 1.252 . S
C55 O59 1.260 . S
C56 O63 1.240 . S
C56 O64 1.252 . S
C57 O60 1.252 . S
C57 O61 1.260 . S
O58 In52 2.266 . S
O58 C55 1.252 . S
O59 In52 2.326 . S
O59 C55 1.260 . S
O60 In52 2.266 . S
O60 C57 1.252 . S
O61 In52 2.326 . S
O61 C57 1.260 . S
C62 O53 1.240 . S
C62 O54 1.252 . S
O63 In52 2.294 . S
O63 C56 1.240 . S
O64 In52 2.326 . S
O64 C56 1.252 . S
In65 O66 2.294 . S
In65 O67 2.326 . S
In65 O71 2.266 . S
In65 O72 2.326 . S
In65 O73 2.266 . S
In65 O74 2.326 . S
In65 O76 2.294 . S
In65 O77 2.326 . S
O66 In65 2.294 . S
O66 C75 1.240 . S
O67 In65 2.326 . S
O67 C75 1.252 . S
C68 O71 1.252 . S
C68 O72 1.260 . S
C69 O76 1.240 . S
C69 O77 1.252 . S
C70 O73 1.252 . S
C70 O74 1.260 . S
O71 In65 2.266 . S
O71 C68 1.252 . S
O72 In65 2.326 . S
O72 C68 1.260 . S
O73 In65 2.266 . S
O73 C70 1.252 . S
O74 In65 2.326 . S
O74 C70 1.260 . S
C75 O66 1.240 . S
C75 O67 1.252 . S
O76 In65 2.294 . S
O76 C69 1.240 . S
O77 In65 2.326 . S
O77 C69 1.252 . S
In78 O79 2.294 . S
In78 O80 2.326 . S
In78 O84 2.266 . S
In78 O85 2.326 . S
In78 O86 2.266 . S
In78 O87 2.326 . S
In78 O89 2.294 . S
In78 O90 2.326 . S
O79 In78 2.294 . S
O79 C88 1.240 . S
O80 In78 2.326 . S
O80 C88 1.252 . S
C81 O84 1.252 . S
C81 O85 1.260 . S
C82 O89 1.240 . S
C82 O90 1.252 . S
C83 O86 1.252 . S
C83 O87 1.260 . S
O84 In78 2.266 . S
O84 C81 1.252 . S
O85 In78 2.326 . S
O85 C81 1.260 . S
O86 In78 2.266 . S
O86 C83 1.252 . S
O87 In78 2.326 . S
O87 C83 1.260 . S
C88 O79 1.240 . S
C88 O80 1.252 . S
O89 In78 2.294 . S
O89 C82 1.240 . S
O90 In78 2.326 . S
O90 C82 1.252 . S
In91 O92 2.294 . S
In91 O93 2.326 . S
In91 O97 2.266 . S
In91 O98 2.326 . S
In91 O99 2.266 . S
In91 O100 2.326 . S
In91 O102 2.294 . S
In91 O103 2.326 . S
O92 In91 2.294 . S
O92 C101 1.240 . S
O93 In91 2.326 . S
O93 C101 1.252 . S
C94 O97 1.252 . S
C94 O98 1.260 . S
C95 O102 1.240 . S
C95 O103 1.252 . S
C96 O99 1.252 . S
C96 O100 1.260 . S
O97 In91 2.266 . S
O97 C94 1.252 . S
O98 In91 2.326 . S
O98 C94 1.260 . S
O99 In91 2.266 . S
O99 C96 1.252 . S
O100 In91 2.326 . S
O100 C96 1.260 . S
C101 O92 1.240 . S
C101 O93 1.252 . S
O102 In91 2.294 . S
O102 C95 1.240 . S
O103 In91 2.326 . S
O103 C95 1.252 . S
In104 O105 2.294 . S
In104 O106 2.326 . S
In104 O110 2.266 . S
In104 O111 2.326 . S
In104 O112 2.266 . S
In104 O113 2.326 . S
In104 O115 2.294 . S
In104 O116 2.326 . S
O105 In104 2.294 . S
O105 C114 1.240 . S
O106 In104 2.326 . S
O106 C114 1.252 . S
C107 O110 1.252 . S
C107 O111 1.260 . S
C108 O115 1.240 . S
C108 O116 1.252 . S
C109 O112 1.252 . S
C109 O113 1.260 . S
O110 In104 2.266 . S
O110 C107 1.252 . S
O111 In104 2.326 . S
O111 C107 1.260 . S
O112 In104 2.266 . S
O112 C109 1.252 . S
O113 In104 2.326 . S
O113 C109 1.260 . S
C114 O105 1.240 . S
C114 O106 1.252 . S
O115 In104 2.294 . S
O115 C108 1.240 . S
O116 In104 2.326 . S
O116 C108 1.252 . S
In117 O118 2.294 . S
In117 O119 2.326 . S
In117 O123 2.266 . S
In117 O124 2.326 . S
In117 O125 2.266 . S
In117 O126 2.326 . S
In117 O128 2.294 . S
In117 O129 2.326 . S
O118 In117 2.294 . S
O118 C127 1.240 . S
O119 In117 2.326 . S
O119 C127 1.252 . S
C120 O123 1.252 . S
C120 O124 1.260 . S
C121 O128 1.240 . S
C121 O129 1.252 . S
C122 O125 1.252 . S
C122 O126 1.260 . S
O123 In117 2.266 . S
O123 C120 1.252 . S
O124 In117 2.326 . S
O124 C120 1.260 . S
O125 In117 2.266 . S
O125 C122 1.252 . S
O126 In117 2.326 . S
O126 C122 1.260 . S
C127 O118 1.240 . S
C127 O119 1.252 . S
O128 In117 2.294 . S
O128 C121 1.240 . S
O129 In117 2.326 . S
O129 C121 1.252 . S
In130 O131 2.294 . S
In130 O132 2.326 . S
In130 O136 2.266 . S
In130 O137 2.326 . S
In130 O138 2.266 . S
In130 O139 2.326 . S
In130 O141 2.294 . S
In130 O142 2.326 . S
O131 In130 2.294 . S
O131 C140 1.240 . S
O132 In130 2.326 . S
O132 C140 1.252 . S
C133 O136 1.252 . S
C133 O137 1.260 . S
C134 O141 1.240 . S
C134 O142 1.252 . S
C135 O138 1.252 . S
C135 O139 1.260 . S
O136 In130 2.266 . S
O136 C133 1.252 . S
O137 In130 2.326 . S
O137 C133 1.260 . S
O138 In130 2.266 . S
O138 C135 1.252 . S
O139 In130 2.326 . S
O139 C135 1.260 . S
C140 O131 1.240 . S
C140 O132 1.252 . S
O141 In130 2.294 . S
O141 C134 1.240 . S
O142 In130 2.326 . S
O142 C134 1.252 . S
In143 O144 2.294 . S
In143 O145 2.326 . S
In143 O149 2.266 . S
In143 O150 2.326 . S
In143 O151 2.266 . S
In143 O152 2.326 . S
In143 O154 2.294 . S
In143 O155 2.326 . S
O144 In143 2.294 . S
O144 C153 1.240 . S
O145 In143 2.326 . S
O145 C153 1.252 . S
C146 O149 1.252 . S
C146 O150 1.260 . S
C147 O154 1.240 . S
C147 O155 1.252 . S
C148 O151 1.252 . S
C148 O152 1.260 . S
O149 In143 2.266 . S
O149 C146 1.252 . S
O150 In143 2.326 . S
O150 C146 1.260 . S
O151 In143 2.266 . S
O151 C148 1.252 . S
O152 In143 2.326 . S
O152 C148 1.260 . S
C153 O144 1.240 . S
C153 O145 1.252 . S
O154 In143 2.294 . S
O154 C147 1.240 . S
O155 In143 2.326 . S
O155 C147 1.252 . S
In156 O157 2.294 . S
In156 O158 2.326 . S
In156 O162 2.266 . S
In156 O163 2.326 . S
In156 O164 2.266 . S
In156 O165 2.326 . S
In156 O167 2.294 . S
In156 O168 2.326 . S
O157 In156 2.294 . S
O157 C166 1.240 . S
O158 In156 2.326 . S
O158 C166 1.252 . S
C159 O162 1.252 . S
C159 O163 1.260 . S
C160 O167 1.240 . S
C160 O168 1.252 . S
C161 O164 1.252 . S
C161 O165 1.260 . S
O162 In156 2.266 . S
O162 C159 1.252 . S
O163 In156 2.326 . S
O163 C159 1.260 . S
O164 In156 2.266 . S
O164 C161 1.252 . S
O165 In156 2.326 . S
O165 C161 1.260 . S
C166 O157 1.240 . S
C166 O158 1.252 . S
O167 In156 2.294 . S
O167 C160 1.240 . S
O168 In156 2.326 . S
O168 C160 1.252 . S
In169 O170 2.294 . S
In169 O171 2.326 . S
In169 O175 2.266 . S
In169 O176 2.326 . S
In169 O177 2.266 . S
In169 O178 2.326 . S
In169 O180 2.294 . S
In169 O181 2.326 . S
O170 In169 2.294 . S
O170 C179 1.240 . S
O171 In169 2.326 . S
O171 C179 1.252 . S
C172 O175 1.252 . S
C172 O176 1.260 . S
C173 O180 1.240 . S
C173 O181 1.252 . S
C174 O177 1.252 . S
C174 O178 1.260 . S
O175 In169 2.266 . S
O175 C172 1.252 . S
O176 In169 2.326 . S
O176 C172 1.260 . S
O177 In169 2.266 . S
O177 C174 1.252 . S
O178 In169 2.326 . S
O178 C174 1.260 . S
C179 O170 1.240 . S
C179 O171 1.252 . S
O180 In169 2.294 . S
O180 C173 1.240 . S
O181 In169 2.326 . S
O181 C173 1.252 . S
In182 O183 2.294 . S
In182 O184 2.326 . S
In182 O188 2.266 . S
In182 O189 2.326 . S
In182 O190 2.266 . S
In182 O191 2.326 . S
In182 O193 2.294 . S
In182 O194 2.326 . S
O183 In182 2.294 . S
O183 C192 1.240 . S
O184 In182 2.326 . S
O184 C192 1.252 . S
C185 O188 1.252 . S
C185 O189 1.260 . S
C186 O193 1.240 . S
C186 O194 1.252 . S
C187 O190 1.252 . S
C187 O191 1.260 . S
O188 In182 2.266 . S
O188 C185 1.252 . S
O189 In182 2.326 . S
O189 C185 1.260 . S
O190 In182 2.266 . S
O190 C187 1.252 . S
O191 In182 2.326 . S
O191 C187 1.260 . S
C192 O183 1.240 . S
C192 O184 1.252 . S
O193 In182 2.294 . S
O193 C186 1.240 . S
O194 In182 2.326 . S
O194 C186 1.252 . S
In195 O196 2.294 . S
In195 O197 2.326 . S
In195 O201 2.266 . S
In195 O202 2.326 . S
In195 O203 2.266 . S
In195 O204 2.326 . S
In195 O206 2.294 . S
In195 O207 2.326 . S
O196 In195 2.294 . S
O196 C205 1.240 . S
O197 In195 2.326 . S
O197 C205 1.252 . S
C198 O201 1.252 . S
C198 O202 1.260 . S
C199 O206 1.240 . S
C199 O207 1.252 . S
C200 O203 1.252 . S
C200 O204 1.260 . S
O201 In195 2.266 . S
O201 C198 1.252 . S
O202 In195 2.326 . S
O202 C198 1.260 . S
O203 In195 2.266 . S
O203 C200 1.252 . S
O204 In195 2.326 . S
O204 C200 1.260 . S
C205 O196 1.240 . S
C205 O197 1.252 . S
O206 In195 2.294 . S
O206 C199 1.240 . S
O207 In195 2.326 . S
O207 C199 1.252 . S
C208 C209 1.363 . S
C208 C214 1.379 . S
C208 N216 1.356 1_545 S
C209 C208 1.363 . S
C209 C215 1.363 . S
C210 C211 1.363 . S
C210 C215 1.379 . S
C210 N217 1.356 . S
C211 C210 1.363 . S
C211 C214 1.363 . S
N212 C214 1.356 1_565 S
N212 H224 0.984 . S
N212 H225 0.985 1_565 S
N213 C215 1.356 . S
N213 H218 0.984 . S
N213 H219 0.985 . S
C214 C208 1.379 . S
C214 C211 1.363 . S
C214 N212 1.356 1_545 S
C215 C209 1.363 . S
C215 C210 1.379 . S
C215 N213 1.356 . S
N216 C208 1.356 1_565 S
N216 H222 0.984 . S
N216 H223 0.984 1_565 S
N217 C210 1.356 . S
N217 H220 0.984 . S
N217 H221 0.985 . S
H218 N213 0.984 . S
H219 N213 0.985 . S
H220 N217 0.984 . S
H221 N217 0.985 . S
H222 N216 0.984 . S
H223 N216 0.984 1_545 S
H224 N212 0.984 . S
H225 N212 0.985 1_545 S
C226 C227 1.363 . S
C226 C232 1.379 . S
C226 N234 1.356 . S
C227 C226 1.363 . S
C227 C233 1.363 . S
C228 C229 1.363 . S
C228 C233 1.379 . S
C228 N235 1.356 1_565 S
C229 C228 1.363 . S
C229 C232 1.363 . S
N230 C232 1.356 . S
N230 H242 0.984 . S
N230 H243 0.985 . S
N231 C233 1.356 1_545 S
N231 H236 0.984 1_545 S
N231 H237 0.985 . S
C232 C226 1.379 . S
C232 C229 1.363 . S
C232 N230 1.356 . S
C233 C227 1.363 . S
C233 C228 1.379 . S
C233 N231 1.356 1_565 S
N234 C226 1.356 . S
N234 H240 0.984 . S
N234 H241 0.984 . S
N235 C228 1.356 1_545 S
N235 H238 0.984 1_545 S
N235 H239 0.985 . S
H236 N231 0.984 1_565 S
H237 N231 0.985 . S
H238 N235 0.984 1_565 S
H239 N235 0.985 . S
H240 N234 0.984 . S
H241 N234 0.984 . S
H242 N230 0.984 . S
H243 N230 0.985 . S
C244 C245 1.363 . S
C244 C250 1.379 1_554 S
C244 N252 1.356 1_565 S
C245 C244 1.363 . S
C245 C251 1.363 . S
C246 C247 1.363 . S
C246 C251 1.379 1_556 S
C246 N253 1.356 . S
C247 C246 1.363 . S
C247 C250 1.363 . S
N248 C250 1.356 1_545 S
N248 H260 0.984 . S
N248 H261 0.985 1_545 S
N249 C251 1.356 . S
N249 H254 0.984 . S
N249 H255 0.985 . S
C250 C244 1.379 1_556 S
C250 C247 1.363 . S
C250 N248 1.356 1_565 S
C251 C245 1.363 . S
C251 C246 1.379 1_554 S
C251 N249 1.356 . S
N252 C244 1.356 1_545 S
N252 H258 0.984 . S
N252 H259 0.984 1_545 S
N253 C246 1.356 . S
N253 H256 0.984 . S
N253 H257 0.985 . S
H254 N249 0.984 . S
H255 N249 0.985 . S
H256 N253 0.984 . S
H257 N253 0.985 . S
H258 N252 0.984 . S
H259 N252 0.984 1_565 S
H260 N248 0.984 . S
H261 N248 0.985 1_565 S
C262 C263 1.363 . S
C262 C268 1.379 1_556 S
C262 N270 1.356 . S
C263 C262 1.363 . S
C263 C269 1.363 . S
C264 C265 1.363 . S
C264 C269 1.379 1_554 S
C264 N271 1.356 1_545 S
C265 C264 1.363 . S
C265 C268 1.363 . S
N266 C268 1.356 . S
N266 H278 0.984 . S
N266 H279 0.985 . S
N267 C269 1.356 1_565 S
N267 H272 0.984 1_565 S
N267 H273 0.985 . S
C268 C262 1.379 1_554 S
C268 C265 1.363 . S
C268 N266 1.356 . S
C269 C263 1.363 . S
C269 C264 1.379 1_556 S
C269 N267 1.356 1_545 S
N270 C262 1.356 . S
N270 H276 0.984 . S
N270 H277 0.984 . S
N271 C264 1.356 1_565 S
N271 H274 0.984 1_565 S
N271 H275 0.985 . S
H272 N267 0.984 1_545 S
H273 N267 0.985 . S
H274 N271 0.984 1_545 S
H275 N271 0.985 . S
H276 N270 0.984 . S
H277 N270 0.984 . S
H278 N266 0.984 . S
H279 N266 0.985 . S
C280 C281 1.363 . S
C280 C286 1.379 . S
C280 N288 1.356 . S
C281 C280 1.363 . S
C281 C287 1.363 . S
C282 C283 1.363 . S
C282 C287 1.379 . S
C282 N289 1.356 . S
C283 C282 1.363 . S
C283 C286 1.363 . S
N284 C286 1.356 . S
N284 H296 0.984 . S
N284 H297 0.985 . S
N285 C287 1.356 . S
N285 H290 0.984 . S
N285 H291 0.985 . S
C286 C280 1.379 . S
C286 C283 1.363 . S
C286 N284 1.356 . S
C287 C281 1.363 . S
C287 C282 1.379 . S
C287 N285 1.356 . S
N288 C280 1.356 . S
N288 H294 0.984 . S
N288 H295 0.984 . S
N289 C282 1.356 . S
N289 H292 0.984 . S
N289 H293 0.985 . S
H290 N285 0.984 . S
H291 N285 0.985 . S
H292 N289 0.984 . S
H293 N289 0.985 . S
H294 N288 0.984 . S
H295 N288 0.984 . S
H296 N284 0.984 . S
H297 N284 0.985 . S
C298 C299 1.363 . S
C298 C304 1.379 . S
C298 N306 1.356 . S
C299 C298 1.363 . S
C299 C305 1.363 . S
C300 C301 1.363 . S
C300 C305 1.379 . S
C300 N307 1.356 . S
C301 C300 1.363 . S
C301 C304 1.363 . S
N302 C304 1.356 . S
N302 H314 0.984 . S
N302 H315 0.985 . S
N303 C305 1.356 . S
N303 H308 0.984 . S
N303 H309 0.985 . S
C304 C298 1.379 . S
C304 C301 1.363 . S
C304 N302 1.356 . S
C305 C299 1.363 . S
C305 C300 1.379 . S
C305 N303 1.356 . S
N306 C298 1.356 . S
N306 H312 0.984 . S
N306 H313 0.984 . S
N307 C300 1.356 . S
N307 H310 0.984 . S
N307 H311 0.985 . S
H308 N303 0.984 . S
H309 N303 0.985 . S
H310 N307 0.984 . S
H311 N307 0.985 . S
H312 N306 0.984 . S
H313 N306 0.984 . S
H314 N302 0.984 . S
H315 N302 0.985 . S
C316 C317 1.363 . S
C316 C322 1.379 1_556 S
C316 N324 1.356 . S
C317 C316 1.363 . S
C317 C323 1.363 . S
C318 C319 1.363 . S
C318 C323 1.379 1_554 S
C318 N325 1.356 . S
C319 C318 1.363 . S
C319 C322 1.363 . S
N320 C322 1.356 . S
N320 H332 0.984 . S
N320 H333 0.985 . S
N321 C323 1.356 . S
N321 H326 0.984 . S
N321 H327 0.985 . S
C322 C316 1.379 1_554 S
C322 C319 1.363 . S
C322 N320 1.356 . S
C323 C317 1.363 . S
C323 C318 1.379 1_556 S
C323 N321 1.356 . S
N324 C316 1.356 . S
N324 H330 0.984 . S
N324 H331 0.984 . S
N325 C318 1.356 . S
N325 H328 0.984 . S
N325 H329 0.985 . S
H326 N321 0.984 . S
H327 N321 0.985 . S
H328 N325 0.984 . S
H329 N325 0.985 . S
H330 N324 0.984 . S
H331 N324 0.984 . S
H332 N320 0.984 . S
H333 N320 0.985 . S
C334 C335 1.363 . S
C334 C340 1.379 1_554 S
C334 N342 1.356 . S
C335 C334 1.363 . S
C335 C341 1.363 . S
C336 C337 1.363 . S
C336 C341 1.379 1_556 S
C336 N343 1.356 . S
C337 C336 1.363 . S
C337 C340 1.363 . S
N338 C340 1.356 . S
N338 H350 0.984 . S
N338 H351 0.985 . S
N339 C341 1.356 . S
N339 H344 0.984 . S
N339 H345 0.985 . S
C340 C334 1.379 1_556 S
C340 C337 1.363 . S
C340 N338 1.356 . S
C341 C335 1.363 . S
C341 C336 1.379 1_554 S
C341 N339 1.356 . S
N342 C334 1.356 . S
N342 H348 0.984 . S
N342 H349 0.984 . S
N343 C336 1.356 . S
N343 H346 0.984 . S
N343 H347 0.985 . S
H344 N339 0.984 . S
H345 N339 0.985 . S
H346 N343 0.984 . S
H347 N343 0.985 . S
H348 N342 0.984 . S
H349 N342 0.984 . S
H350 N338 0.984 . S
H351 N338 0.985 . S
C352 C353 1.363 1_545 S
C352 C358 1.379 . S
C352 N360 1.356 . S
C353 C352 1.363 1_565 S
C353 C359 1.363 . S
C354 C355 1.363 1_565 S
C354 C359 1.379 . S
C354 N361 1.356 . S
C355 C354 1.363 1_545 S
C355 C358 1.363 . S
N356 C358 1.356 . S
N356 H368 0.984 . S
N356 H369 0.985 . S
N357 C359 1.356 . S
N357 H362 0.984 . S
N357 H363 0.985 . S
C358 C352 1.379 . S
C358 C355 1.363 . S
C358 N356 1.356 . S
C359 C353 1.363 . S
C359 C354 1.379 . S
C359 N357 1.356 . S
N360 C352 1.356 . S
N360 H366 0.984 . S
N360 H367 0.984 1_545 S
N361 C354 1.356 . S
N361 H364 0.984 1_565 S
N361 H365 0.985 . S
H362 N357 0.984 . S
H363 N357 0.985 . S
H364 N361 0.984 1_545 S
H365 N361 0.985 . S
H366 N360 0.984 . S
H367 N360 0.984 1_565 S
H368 N356 0.984 . S
H369 N356 0.985 . S
C370 C371 1.363 1_545 S
C370 C376 1.379 . S
C370 N378 1.356 . S
C371 C370 1.363 1_565 S
C371 C377 1.363 . S
C372 C373 1.363 1_565 S
C372 C377 1.379 . S
C372 N379 1.356 . S
C373 C372 1.363 1_545 S
C373 C376 1.363 . S
N374 C376 1.356 . S
N374 H386 0.984 . S
N374 H387 0.985 . S
N375 C377 1.356 . S
N375 H380 0.984 . S
N375 H381 0.985 . S
C376 C370 1.379 . S
C376 C373 1.363 . S
C376 N374 1.356 . S
C377 C371 1.363 . S
C377 C372 1.379 . S
C377 N375 1.356 . S
N378 C370 1.356 . S
N378 H384 0.984 . S
N378 H385 0.984 1_545 S
N379 C372 1.356 . S
N379 H382 0.984 1_565 S
N379 H383 0.985 . S
H380 N375 0.984 . S
H381 N375 0.985 . S
H382 N379 0.984 1_545 S
H383 N379 0.985 . S
H384 N378 0.984 . S
H385 N378 0.984 1_565 S
H386 N374 0.984 . S
H387 N374 0.985 . S
C388 C389 1.363 . S
C388 C394 1.379 . S
C388 N396 1.356 . S
C389 C388 1.363 . S
C389 C395 1.363 1_565 S
C390 C391 1.363 . S
C390 C395 1.379 . S
C390 N397 1.356 . S
C391 C390 1.363 . S
C391 C394 1.363 1_545 S
N392 C394 1.356 . S
N392 H404 0.984 . S
N392 H405 0.985 1_565 S
N393 C395 1.356 . S
N393 H398 0.984 1_545 S
N393 H399 0.985 . S
C394 C388 1.379 . S
C394 C391 1.363 1_565 S
C394 N392 1.356 . S
C395 C389 1.363 1_545 S
C395 C390 1.379 . S
C395 N393 1.356 . S
N396 C388 1.356 . S
N396 H402 0.984 . S
N396 H403 0.984 . S
N397 C390 1.356 . S
N397 H400 0.984 . S
N397 H401 0.985 . S
H398 N393 0.984 1_565 S
H399 N393 0.985 . S
H400 N397 0.984 . S
H401 N397 0.985 . S
H402 N396 0.984 . S
H403 N396 0.984 . S
H404 N392 0.984 . S
H405 N392 0.985 1_545 S
C406 C407 1.363 1_565 S
C406 C412 1.379 . S
C406 N414 1.356 . S
C407 C406 1.363 1_545 S
C407 C413 1.363 . S
C408 C409 1.363 1_545 S
C408 C413 1.379 . S
C408 N415 1.356 . S
C409 C408 1.363 1_565 S
C409 C412 1.363 . S
N410 C412 1.356 . S
N410 H422 0.984 . S
N410 H423 0.985 . S
N411 C413 1.356 . S
N411 H416 0.984 . S
N411 H417 0.985 . S
C412 C406 1.379 . S
C412 C409 1.363 . S
C412 N410 1.356 . S
C413 C407 1.363 . S
C413 C408 1.379 . S
C413 N411 1.356 . S
N414 C406 1.356 . S
N414 H420 0.984 . S
N414 H421 0.984 1_565 S
N415 C408 1.356 . S
N415 H418 0.984 1_545 S
N415 H419 0.985 . S
H416 N411 0.984 . S
H417 N411 0.985 . S
H418 N415 0.984 1_565 S
H419 N415 0.985 . S
H420 N414 0.984 . S
H421 N414 0.984 1_545 S
H422 N410 0.984 . S
H423 N410 0.985 . S
C424 C425 1.363 . S
C424 C430 1.379 1_655 S
C424 N432 1.356 . S
C425 C424 1.363 . S
C425 C431 1.363 . S
C426 C427 1.363 . S
C426 C431 1.379 1_455 S
C426 N433 1.356 . S
C427 C426 1.363 . S
C427 C430 1.363 . S
N428 C430 1.356 . S
N428 H440 0.984 . S
N428 H441 0.985 . S
N429 C431 1.356 . S
N429 H434 0.984 . S
N429 H435 0.985 . S
C430 C424 1.379 1_455 S
C430 C427 1.363 . S
C430 N428 1.356 . S
C431 C425 1.363 . S
C431 C426 1.379 1_655 S
C431 N429 1.356 . S
N432 C424 1.356 . S
N432 H438 0.984 . S
N432 H439 0.984 . S
N433 C426 1.356 . S
N433 H436 0.984 . S
N433 H437 0.985 . S
H434 N429 0.984 . S
H435 N429 0.985 . S
H436 N433 0.984 . S
H437 N433 0.985 . S
H438 N432 0.984 . S
H439 N432 0.984 . S
H440 N428 0.984 . S
H441 N428 0.985 . S
C442 C443 1.363 . S
C442 C448 1.379 1_455 S
C442 N450 1.356 . S
C443 C442 1.363 . S
C443 C449 1.363 . S
C444 C445 1.363 . S
C444 C449 1.379 1_655 S
C444 N451 1.356 . S
C445 C444 1.363 . S
C445 C448 1.363 . S
N446 C448 1.356 . S
N446 H458 0.984 . S
N446 H459 0.985 . S
N447 C449 1.356 . S
N447 H452 0.984 . S
N447 H453 0.985 . S
C448 C442 1.379 1_655 S
C448 C445 1.363 . S
C448 N446 1.356 . S
C449 C443 1.363 . S
C449 C444 1.379 1_455 S
C449 N447 1.356 . S
N450 C442 1.356 . S
N450 H456 0.984 . S
N450 H457 0.984 . S
N451 C444 1.356 . S
N451 H454 0.984 . S
N451 H455 0.985 . S
H452 N447 0.984 . S
H453 N447 0.985 . S
H454 N451 0.984 . S
H455 N451 0.985 . S
H456 N450 0.984 . S
H457 N450 0.984 . S
H458 N446 0.984 . S
H459 N446 0.985 . S
C460 C461 1.363 . S
C460 C466 1.379 1_655 S
C460 N468 1.356 . S
C461 C460 1.363 . S
C461 C467 1.363 . S
C462 C463 1.363 . S
C462 C467 1.379 1_455 S
C462 N469 1.356 . S
C463 C462 1.363 . S
C463 C466 1.363 . S
N464 C466 1.356 . S
N464 H476 0.984 . S
N464 H477 0.985 . S
N465 C467 1.356 . S
N465 H470 0.984 . S
N465 H471 0.985 . S
C466 C460 1.379 1_455 S
C466 C463 1.363 . S
C466 N464 1.356 . S
C467 C461 1.363 . S
C467 C462 1.379 1_655 S
C467 N465 1.356 . S
N468 C460 1.356 . S
N468 H474 0.984 . S
N468 H475 0.984 . S
N469 C462 1.356 . S
N469 H472 0.984 . S
N469 H473 0.985 . S
H470 N465 0.984 . S
H471 N465 0.985 . S
H472 N469 0.984 . S
H473 N469 0.985 . S
H474 N468 0.984 . S
H475 N468 0.984 . S
H476 N464 0.984 . S
H477 N464 0.985 . S
C478 C479 1.363 . S
C478 C484 1.379 1_455 S
C478 N486 1.356 . S
C479 C478 1.363 . S
C479 C485 1.363 . S
C480 C481 1.363 . S
C480 C485 1.379 1_655 S
C480 N487 1.356 . S
C481 C480 1.363 . S
C481 C484 1.363 . S
N482 C484 1.356 . S
N482 H494 0.984 . S
N482 H495 0.985 . S
N483 C485 1.356 . S
N483 H488 0.984 . S
N483 H489 0.985 . S
C484 C478 1.379 1_655 S
C484 C481 1.363 . S
C484 N482 1.356 . S
C485 C479 1.363 . S
C485 C480 1.379 1_455 S
C485 N483 1.356 . S
N486 C478 1.356 . S
N486 H492 0.984 . S
N486 H493 0.984 . S
N487 C480 1.356 . S
N487 H490 0.984 . S
N487 H491 0.985 . S
H488 N483 0.984 . S
H489 N483 0.985 . S
H490 N487 0.984 . S
H491 N487 0.985 . S
H492 N486 0.984 . S
H493 N486 0.984 . S
H494 N482 0.984 . S
H495 N482 0.985 . S
C496 C497 1.363 . S
C496 C502 1.379 . S
C496 N504 1.356 . S
C497 C496 1.363 . S
C497 C503 1.363 . S
C498 C499 1.363 . S
C498 C503 1.379 . S
C498 N505 1.356 . S
C499 C498 1.363 . S
C499 C502 1.363 . S
N500 C502 1.356 . S
N500 H512 0.984 . S
N500 H513 0.985 . S
N501 C503 1.356 . S
N501 H506 0.984 . S
N501 H507 0.985 . S
C502 C496 1.379 . S
C502 C499 1.363 . S
C502 N500 1.356 . S
C503 C497 1.363 . S
C503 C498 1.379 . S
C503 N501 1.356 . S
N504 C496 1.356 . S
N504 H510 0.984 . S
N504 H511 0.984 . S
N505 C498 1.356 . S
N505 H508 0.984 . S
N505 H509 0.985 . S
H506 N501 0.984 . S
H507 N501 0.985 . S
H508 N505 0.984 . S
H509 N505 0.985 . S
H510 N504 0.984 . S
H511 N504 0.984 . S
H512 N500 0.984 . S
H513 N500 0.985 . S
C514 C515 1.363 . S
C514 C520 1.379 . S
C514 N522 1.356 . S
C515 C514 1.363 . S
C515 C521 1.363 . S
C516 C517 1.363 . S
C516 C521 1.379 . S
C516 N523 1.356 . S
C517 C516 1.363 . S
C517 C520 1.363 . S
N518 C520 1.356 . S
N518 H530 0.984 . S
N518 H531 0.985 . S
N519 C521 1.356 . S
N519 H524 0.984 . S
N519 H525 0.985 . S
C520 C514 1.379 . S
C520 C517 1.363 . S
C520 N518 1.356 . S
C521 C515 1.363 . S
C521 C516 1.379 . S
C521 N519 1.356 . S
N522 C514 1.356 . S
N522 H528 0.984 . S
N522 H529 0.984 . S
N523 C516 1.356 . S
N523 H526 0.984 . S
N523 H527 0.985 . S
H524 N519 0.984 . S
H525 N519 0.985 . S
H526 N523 0.984 . S
H527 N523 0.985 . S
H528 N522 0.984 . S
H529 N522 0.984 . S
H530 N518 0.984 . S
H531 N518 0.985 . S
C532 C533 1.363 . S
C532 C538 1.379 . S
C532 N540 1.356 . S
C533 C532 1.363 . S
C533 C539 1.363 . S
C534 C535 1.363 . S
C534 C539 1.379 . S
C534 N541 1.356 . S
C535 C534 1.363 . S
C535 C538 1.363 . S
N536 C538 1.356 . S
N536 H548 0.984 . S
N536 H549 0.985 . S
N537 C539 1.356 . S
N537 H542 0.984 . S
N537 H543 0.985 . S
C538 C532 1.379 . S
C538 C535 1.363 . S
C538 N536 1.356 . S
C539 C533 1.363 . S
C539 C534 1.379 . S
C539 N537 1.356 . S
N540 C532 1.356 . S
N540 H546 0.984 . S
N540 H547 0.984 . S
N541 C534 1.356 . S
N541 H544 0.984 . S
N541 H545 0.985 . S
H542 N537 0.984 . S
H543 N537 0.985 . S
H544 N541 0.984 . S
H545 N541 0.985 . S
H546 N540 0.984 . S
H547 N540 0.984 . S
H548 N536 0.984 . S
H549 N536 0.985 . S
C550 C551 1.363 . S
C550 C556 1.379 . S
C550 N558 1.356 . S
C551 C550 1.363 . S
C551 C557 1.363 . S
C552 C553 1.363 . S
C552 C557 1.379 . S
C552 N559 1.356 . S
C553 C552 1.363 . S
C553 C556 1.363 . S
N554 C556 1.356 . S
N554 H566 0.984 . S
N554 H567 0.985 . S
N555 C557 1.356 . S
N555 H560 0.984 . S
N555 H561 0.985 . S
C556 C550 1.379 . S
C556 C553 1.363 . S
C556 N554 1.356 . S
C557 C551 1.363 . S
C557 C552 1.379 . S
C557 N555 1.356 . S
N558 C550 1.356 . S
N558 H564 0.984 . S
N558 H565 0.984 . S
N559 C552 1.356 . S
N559 H562 0.984 . S
N559 H563 0.985 . S
H560 N555 0.984 . S
H561 N555 0.985 . S
H562 N559 0.984 . S
H563 N559 0.985 . S
H564 N558 0.984 . S
H565 N558 0.984 . S
H566 N554 0.984 . S
H567 N554 0.985 . S
C568 C569 1.363 . S
C568 C574 1.379 . S
C568 N576 1.356 . S
C569 C568 1.363 . S
C569 C575 1.363 . S
C570 C571 1.363 . S
C570 C575 1.379 . S
C570 N577 1.356 . S
C571 C570 1.363 . S
C571 C574 1.363 . S
N572 C574 1.356 . S
N572 H584 0.984 . S
N572 H585 0.985 . S
N573 C575 1.356 . S
N573 H578 0.984 . S
N573 H579 0.985 . S
C574 C568 1.379 . S
C574 C571 1.363 . S
C574 N572 1.356 . S
C575 C569 1.363 . S
C575 C570 1.379 . S
C575 N573 1.356 . S
N576 C568 1.356 . S
N576 H582 0.984 . S
N576 H583 0.984 . S
N577 C570 1.356 . S
N577 H580 0.984 . S
N577 H581 0.985 . S
H578 N573 0.984 . S
H579 N573 0.985 . S
H580 N577 0.984 . S
H581 N577 0.985 . S
H582 N576 0.984 . S
H583 N576 0.984 . S
H584 N572 0.984 . S
H585 N572 0.985 . S
C586 C587 1.363 . S
C586 C592 1.379 . S
C586 N594 1.356 . S
C587 C586 1.363 . S
C587 C593 1.363 . S
C588 C589 1.363 . S
C588 C593 1.379 . S
C588 N595 1.356 . S
C589 C588 1.363 . S
C589 C592 1.363 . S
N590 C592 1.356 . S
N590 H602 0.984 . S
N590 H603 0.985 . S
N591 C593 1.356 . S
N591 H596 0.984 . S
N591 H597 0.985 . S
C592 C586 1.379 . S
C592 C589 1.363 . S
C592 N590 1.356 . S
C593 C587 1.363 . S
C593 C588 1.379 . S
C593 N591 1.356 . S
N594 C586 1.356 . S
N594 H600 0.984 . S
N594 H601 0.984 . S
N595 C588 1.356 . S
N595 H598 0.984 . S
N595 H599 0.985 . S
H596 N591 0.984 . S
H597 N591 0.985 . S
H598 N595 0.984 . S
H599 N595 0.985 . S
H600 N594 0.984 . S
H601 N594 0.984 . S
H602 N590 0.984 . S
H603 N590 0.985 . S
C604 C605 1.363 . S
C604 C610 1.379 . S
C604 N612 1.356 . S
C605 C604 1.363 . S
C605 C611 1.363 . S
C606 C607 1.363 . S
C606 C611 1.379 . S
C606 N613 1.356 . S
C607 C606 1.363 . S
C607 C610 1.363 . S
N608 C610 1.356 . S
N608 H620 0.984 . S
N608 H621 0.985 . S
N609 C611 1.356 . S
N609 H614 0.984 . S
N609 H615 0.985 . S
C610 C604 1.379 . S
C610 C607 1.363 . S
C610 N608 1.356 . S
C611 C605 1.363 . S
C611 C606 1.379 . S
C611 N609 1.356 . S
N612 C604 1.356 . S
N612 H618 0.984 . S
N612 H619 0.984 . S
N613 C606 1.356 . S
N613 H616 0.984 . S
N613 H617 0.985 . S
H614 N609 0.984 . S
H615 N609 0.985 . S
H616 N613 0.984 . S
H617 N613 0.985 . S
H618 N612 0.984 . S
H619 N612 0.984 . S
H620 N608 0.984 . S
H621 N608 0.985 . S
C622 C623 1.363 . S
C622 C628 1.379 . S
C622 N630 1.356 . S
C623 C622 1.363 . S
C623 C629 1.363 . S
C624 C625 1.363 . S
C624 C629 1.379 . S
C624 N631 1.356 . S
C625 C624 1.363 . S
C625 C628 1.363 . S
N626 C628 1.356 . S
N626 H638 0.984 . S
N626 H639 0.985 . S
N627 C629 1.356 . S
N627 H632 0.984 . S
N627 H633 0.985 . S
C628 C622 1.379 . S
C628 C625 1.363 . S
C628 N626 1.356 . S
C629 C623 1.363 . S
C629 C624 1.379 . S
C629 N627 1.356 . S
N630 C622 1.356 . S
N630 H636 0.984 . S
N630 H637 0.984 . S
N631 C624 1.356 . S
N631 H634 0.984 . S
N631 H635 0.985 . S
H632 N627 0.984 . S
H633 N627 0.985 . S
H634 N631 0.984 . S
H635 N631 0.985 . S
H636 N630 0.984 . S
H637 N630 0.984 . S
H638 N626 0.984 . S
H639 N626 0.985 . S
C640 C641 1.363 . S
C640 C646 1.379 . S
C640 N648 1.356 . S
C641 C640 1.363 . S
C641 C647 1.363 1_545 S
C642 C643 1.363 . S
C642 C647 1.379 . S
C642 N649 1.356 . S
C643 C642 1.363 . S
C643 C646 1.363 1_565 S
N644 C646 1.356 . S
N644 H656 0.984 . S
N644 H657 0.985 . S
N645 C647 1.356 . S
N645 H650 0.984 . S
N645 H651 0.985 . S
C646 C640 1.379 . S
C646 C643 1.363 1_545 S
C646 N644 1.356 . S
C647 C641 1.363 1_565 S
C647 C642 1.379 . S
C647 N645 1.356 . S
N648 C640 1.356 . S
N648 H654 0.984 . S
N648 H655 0.984 . S
N649 C642 1.356 . S
N649 H652 0.984 . S
N649 H653 0.985 . S
H650 N645 0.984 . S
H651 N645 0.985 . S
H652 N649 0.984 . S
H653 N649 0.985 . S
H654 N648 0.984 . S
H655 N648 0.984 . S
H656 N644 0.984 . S
H657 N644 0.985 . S
C658 C659 1.363 1_565 S
C658 C664 1.379 . S
C658 N666 1.356 . S
C659 C658 1.363 1_545 S
C659 C665 1.363 . S
C660 C661 1.363 1_545 S
C660 C665 1.379 . S
C660 N667 1.356 . S
C661 C660 1.363 1_565 S
C661 C664 1.363 . S
N662 C664 1.356 . S
N662 H674 0.984 . S
N662 H675 0.985 . S
N663 C665 1.356 . S
N663 H668 0.984 . S
N663 H669 0.985 . S
C664 C658 1.379 . S
C664 C661 1.363 . S
C664 N662 1.356 . S
C665 C659 1.363 . S
C665 C660 1.379 . S
C665 N663 1.356 . S
N666 C658 1.356 . S
N666 H672 0.984 . S
N666 H673 0.984 . S
N667 C660 1.356 . S
N667 H670 0.984 . S
N667 H671 0.985 . S
H668 N663 0.984 . S
H669 N663 0.985 . S
H670 N667 0.984 . S
H671 N667 0.985 . S
H672 N666 0.984 . S
H673 N666 0.984 . S
H674 N662 0.984 . S
H675 N662 0.985 . S
C676 C677 1.363 . S
C676 C682 1.379 . S
C676 N684 1.356 . S
C677 C676 1.363 . S
C677 C683 1.363 1_545 S
C678 C679 1.363 . S
C678 C683 1.379 . S
C678 N685 1.356 . S
C679 C678 1.363 . S
C679 C682 1.363 1_565 S
N680 C682 1.356 . S
N680 H692 0.984 . S
N680 H693 0.985 . S
N681 C683 1.356 . S
N681 H686 0.984 . S
N681 H687 0.985 . S
C682 C676 1.379 . S
C682 C679 1.363 1_545 S
C682 N680 1.356 . S
C683 C677 1.363 1_565 S
C683 C678 1.379 . S
C683 N681 1.356 . S
N684 C676 1.356 . S
N684 H690 0.984 . S
N684 H691 0.984 . S
N685 C678 1.356 . S
N685 H688 0.984 . S
N685 H689 0.985 . S
H686 N681 0.984 . S
H687 N681 0.985 . S
H688 N685 0.984 . S
H689 N685 0.985 . S
H690 N684 0.984 . S
H691 N684 0.984 . S
H692 N680 0.984 . S
H693 N680 0.985 . S
C694 C695 1.363 1_545 S
C694 C700 1.379 . S
C694 N702 1.356 . S
C695 C694 1.363 1_565 S
C695 C701 1.363 . S
C696 C697 1.363 1_565 S
C696 C701 1.379 . S
C696 N703 1.356 . S
C697 C696 1.363 1_545 S
C697 C700 1.363 . S
N698 C700 1.356 . S
N698 H710 0.984 . S
N698 H711 0.985 . S
N699 C701 1.356 . S
N699 H704 0.984 . S
N699 H705 0.985 . S
C700 C694 1.379 . S
C700 C697 1.363 . S
C700 N698 1.356 . S
C701 C695 1.363 . S
C701 C696 1.379 . S
C701 N699 1.356 . S
N702 C694 1.356 . S
N702 H708 0.984 . S
N702 H709 0.984 . S
N703 C696 1.356 . S
N703 H706 0.984 . S
N703 H707 0.985 . S
H704 N699 0.984 . S
H705 N699 0.985 . S
H706 N703 0.984 . S
H707 N703 0.985 . S
H708 N702 0.984 . S
H709 N702 0.984 . S
H710 N698 0.984 . S
H711 N698 0.985 . S
C712 C713 1.363 . S
C712 C718 1.379 . S
C712 N720 1.356 . S
C713 C712 1.363 . S
C713 C719 1.363 . S
C714 C715 1.363 . S
C714 C719 1.379 . S
C714 N721 1.356 . S
C715 C714 1.363 . S
C715 C718 1.363 . S
N716 C718 1.356 . S
N716 H728 0.984 . S
N716 H729 0.985 . S
N717 C719 1.356 . S
N717 H722 0.984 . S
N717 H723 0.985 . S
C718 C712 1.379 . S
C718 C715 1.363 . S
C718 N716 1.356 . S
C719 C713 1.363 . S
C719 C714 1.379 . S
C719 N717 1.356 . S
N720 C712 1.356 . S
N720 H726 0.984 . S
N720 H727 0.984 . S
N721 C714 1.356 . S
N721 H724 0.984 . S
N721 H725 0.985 . S
H722 N717 0.984 . S
H723 N717 0.985 . S
H724 N721 0.984 . S
H725 N721 0.985 . S
H726 N720 0.984 . S
H727 N720 0.984 . S
H728 N716 0.984 . S
H729 N716 0.985 . S
C730 C731 1.363 . S
C730 C736 1.379 . S
C730 N738 1.356 . S
C731 C730 1.363 . S
C731 C737 1.363 . S
C732 C733 1.363 . S
C732 C737 1.379 . S
C732 N739 1.356 . S
C733 C732 1.363 . S
C733 C736 1.363 . S
N734 C736 1.356 . S
N734 H746 0.984 . S
N734 H747 0.985 . S
N735 C737 1.356 . S
N735 H740 0.984 . S
N735 H741 0.985 . S
C736 C730 1.379 . S
C736 C733 1.363 . S
C736 N734 1.356 . S
C737 C731 1.363 . S
C737 C732 1.379 . S
C737 N735 1.356 . S
N738 C730 1.356 . S
N738 H744 0.984 . S
N738 H745 0.984 . S
N739 C732 1.356 . S
N739 H742 0.984 . S
N739 H743 0.985 . S
H740 N735 0.984 . S
H741 N735 0.985 . S
H742 N739 0.984 . S
H743 N739 0.985 . S
H744 N738 0.984 . S
H745 N738 0.984 . S
H746 N734 0.984 . S
H747 N734 0.985 . S
C748 C749 1.363 . S
C748 C754 1.379 . S
C748 N756 1.356 . S
C749 C748 1.363 . S
C749 C755 1.363 . S
C750 C751 1.363 . S
C750 C755 1.379 . S
C750 N757 1.356 . S
C751 C750 1.363 . S
C751 C754 1.363 . S
N752 C754 1.356 . S
N752 H764 0.984 . S
N752 H765 0.985 . S
N753 C755 1.356 . S
N753 H758 0.984 . S
N753 H759 0.985 . S
C754 C748 1.379 . S
C754 C751 1.363 . S
C754 N752 1.356 . S
C755 C749 1.363 . S
C755 C750 1.379 . S
C755 N753 1.356 . S
N756 C748 1.356 . S
N756 H762 0.984 . S
N756 H763 0.984 . S
N757 C750 1.356 . S
N757 H760 0.984 . S
N757 H761 0.985 . S
H758 N753 0.984 . S
H759 N753 0.985 . S
H760 N757 0.984 . S
H761 N757 0.985 . S
H762 N756 0.984 . S
H763 N756 0.984 . S
H764 N752 0.984 . S
H765 N752 0.985 . S
C766 C767 1.363 . S
C766 C772 1.379 . S
C766 N774 1.356 . S
C767 C766 1.363 . S
C767 C773 1.363 . S
C768 C769 1.363 . S
C768 C773 1.379 . S
C768 N775 1.356 . S
C769 C768 1.363 . S
C769 C772 1.363 . S
N770 C772 1.356 . S
N770 H782 0.984 . S
N770 H783 0.985 . S
N771 C773 1.356 . S
N771 H776 0.984 . S
N771 H777 0.985 . S
C772 C766 1.379 . S
C772 C769 1.363 . S
C772 N770 1.356 . S
C773 C767 1.363 . S
C773 C768 1.379 . S
C773 N771 1.356 . S
N774 C766 1.356 . S
N774 H780 0.984 . S
N774 H781 0.984 . S
N775 C768 1.356 . S
N775 H778 0.984 . S
N775 H779 0.985 . S
H776 N771 0.984 . S
H777 N771 0.985 . S
H778 N775 0.984 . S
H779 N775 0.985 . S
H780 N774 0.984 . S
H781 N774 0.984 . S
H782 N770 0.984 . S
H783 N770 0.985 . S
C209 C4 1.444 . S
C211 C69 1.444 . S
C227 C62 1.444 . S
C229 C23 1.444 . S
C245 C30 1.444 . S
C247 C101 1.444 . S
C263 C82 1.444 . S
C265 C43 1.444 . S
C281 C179 1.444 . S
C283 C114 1.444 . S
C299 C160 1.444 . S
C301 C121 1.444 . S
C317 C205 1.444 . S
C319 C134 1.444 . S
C335 C153 1.444 . S
C337 C186 1.444 . S
C353 C18 1.515 . S
C355 C3 1.515 . S
C371 C29 1.515 . S
C373 C42 1.515 . S
C389 C57 1.515 . S
C391 C68 1.515 . S
C407 C81 1.515 . S
C409 C96 1.515 . S
C425 C109 1.514 . S
C427 C120 1.514 . S
C443 C148 1.514 . S
C445 C133 1.514 . S
C461 C174 1.514 . S
C463 C159 1.514 . S
C479 C185 1.514 . S
C481 C200 1.514 . S
C497 C127 1.503 . S
C499 C10 1.503 . S
C515 C17 1.503 . S
C517 C108 1.503 . S
C533 C147 1.503 . S
C535 C36 1.503 . S
C551 C49 1.503 . S
C553 C140 1.503 . S
C569 C56 1.503 . S
C571 C173 1.503 . S
C587 C166 1.503 . S
C589 C75 1.503 . S
C605 C88 1.503 . S
C607 C199 1.503 . S
C623 C192 1.503 . S
C625 C95 1.503 . S
C641 C5 1.390 . S
C643 C31 1.390 . S
C659 C44 1.390 . S
C661 C16 1.390 . S
C677 C83 1.390 . S
C679 C55 1.390 . S
C695 C94 1.390 . S
C697 C70 1.390 . S
C713 C135 1.390 . S
C715 C107 1.390 . S
C731 C122 1.390 . S
C733 C146 1.390 . S
C749 C187 1.390 . S
C751 C161 1.390 . S
C767 C172 1.390 . S
C769 C198 1.390 . S
