# Generated by pormake.
# Topology upc, (4)-cn, num edge types: 1
# Building blocks:
#     Node 0, Type 0, BuildingBlock: KOZSID_clean_sbu_0, # of connection points: 4
#     Node 1, Type 0, BuildingBlock: KOZSID_clean_sbu_0, # of connection points: 4
#     Node 2, Type 0, BuildingBlock: KOZSID_clean_sbu_0, # of connection points: 4
#     Node 3, Type 0, BuildingBlock: KOZSID_clean_sbu_0, # of connection points: 4
#     Node 4, Type 0, BuildingBlock: KOZSID_clean_sbu_0, # of connection points: 4
#     Node 5, Type 0, BuildingBlock: KOZSID_clean_sbu_0, # of connection points: 4
#     Node 6, Type 0, BuildingBlock: KOZSID_clean_sbu_0, # of connection points: 4
#     Node 7, Type 0, BuildingBlock: KOZSID_clean_sbu_0, # of connection points: 4
#     Node 8, Type 0, BuildingBlock: KOZSID_clean_sbu_0, # of connection points: 4
#     Node 9, Type 0, BuildingBlock: KOZSID_clean_sbu_0, # of connection points: 4
#     Node 10, Type 0, BuildingBlock: KOZSID_clean_sbu_0, # of connection points: 4
#     Node 11, Type 0, BuildingBlock: KOZSID_clean_sbu_0, # of connection points: 4
#     Node 12, Type 0, BuildingBlock: KOZSID_clean_sbu_0, # of connection points: 4
#     Node 13, Type 0, BuildingBlock: KOZSID_clean_sbu_0, # of connection points: 4
#     Node 14, Type 0, BuildingBlock: KOZSID_clean_sbu_0, # of connection points: 4
#     Node 15, Type 0, BuildingBlock: KOZSID_clean_sbu_0, # of connection points: 4
#     Edge 16, Type (0, 0), BuildingBlock: KIFKEQ_clean_linker_1, # of connection points: 2
#     Edge 17, Type (0, 0), BuildingBlock: KIFKEQ_clean_linker_1, # of connection points: 2
#     Edge 18, Type (0, 0), BuildingBlock: KIFKEQ_clean_linker_1, # of connection points: 2
#     Edge 19, Type (0, 0), BuildingBlock: KIFKEQ_clean_linker_1, # of connection points: 2
#     Edge 20, Type (0, 0), BuildingBlock: KIFKEQ_clean_linker_1, # of connection points: 2
#     Edge 21, Type (0, 0), BuildingBlock: KIFKEQ_clean_linker_1, # of connection points: 2
#     Edge 22, Type (0, 0), BuildingBlock: KIFKEQ_clean_linker_1, # of connection points: 2
#     Edge 23, Type (0, 0), BuildingBlock: KIFKEQ_clean_linker_1, # of connection points: 2
#     Edge 24, Type (0, 0), BuildingBlock: KIFKEQ_clean_linker_1, # of connection points: 2
#     Edge 25, Type (0, 0), BuildingBlock: KIFKEQ_clean_linker_1, # of connection points: 2
#     Edge 26, Type (0, 0), BuildingBlock: KIFKEQ_clean_linker_1, # of connection points: 2
#     Edge 27, Type (0, 0), BuildingBlock: KIFKEQ_clean_linker_1, # of connection points: 2
#     Edge 28, Type (0, 0), BuildingBlock: KIFKEQ_clean_linker_1, # of connection points: 2
#     Edge 29, Type (0, 0), BuildingBlock: KIFKEQ_clean_linker_1, # of connection points: 2
#     Edge 30, Type (0, 0), BuildingBlock: KIFKEQ_clean_linker_1, # of connection points: 2
#     Edge 31, Type (0, 0), BuildingBlock: KIFKEQ_clean_linker_1, # of connection points: 2
#     Edge 32, Type (0, 0), BuildingBlock: KIFKEQ_clean_linker_1, # of connection points: 2
#     Edge 33, Type (0, 0), BuildingBlock: KIFKEQ_clean_linker_1, # of connection points: 2
#     Edge 34, Type (0, 0), BuildingBlock: KIFKEQ_clean_linker_1, # of connection points: 2
#     Edge 35, Type (0, 0), BuildingBlock: KIFKEQ_clean_linker_1, # of connection points: 2
#     Edge 36, Type (0, 0), BuildingBlock: KIFKEQ_clean_linker_1, # of connection points: 2
#     Edge 37, Type (0, 0), BuildingBlock: KIFKEQ_clean_linker_1, # of connection points: 2
#     Edge 38, Type (0, 0), BuildingBlock: KIFKEQ_clean_linker_1, # of connection points: 2
#     Edge 39, Type (0, 0), BuildingBlock: KIFKEQ_clean_linker_1, # of connection points: 2
#     Edge 40, Type (0, 0), BuildingBlock: KIFKEQ_clean_linker_1, # of connection points: 2
#     Edge 41, Type (0, 0), BuildingBlock: KIFKEQ_clean_linker_1, # of connection points: 2
#     Edge 42, Type (0, 0), BuildingBlock: KIFKEQ_clean_linker_1, # of connection points: 2
#     Edge 43, Type (0, 0), BuildingBlock: KIFKEQ_clean_linker_1, # of connection points: 2
#     Edge 44, Type (0, 0), BuildingBlock: KIFKEQ_clean_linker_1, # of connection points: 2
#     Edge 45, Type (0, 0), BuildingBlock: KIFKEQ_clean_linker_1, # of connection points: 2
#     Edge 46, Type (0, 0), BuildingBlock: KIFKEQ_clean_linker_1, # of connection points: 2
#     Edge 47, Type (0, 0), BuildingBlock: KIFKEQ_clean_linker_1, # of connection points: 2
# Relax obj value: 0.175
# Max RMSD: 0.237
# Mean RMSD: 0.232
data_MOF--net-upc--node1-KOZSID_clean_sbu_0--edge1-KIFKEQ_clean_linker_1
_symmetry_space_group_name_H-M    P1
_symmetry_Int_Tables_number       1
_symmetry_cell_setting            triclinic
loop_
_symmetry_equiv_pos_as_xyz
'x, y, z'
_cell_length_a     45.303637
_cell_length_b     45.353849
_cell_length_c     46.401296
_cell_angle_alpha  90.043628
_cell_angle_beta   90.035446
_cell_angle_gamma 90.029036
loop_
_atom_site_label
_atom_site_type_symbol
_atom_site_fract_x
_atom_site_fract_y
_atom_site_fract_z
_atom_type_partial_charge
C0 C 0.206 0.64754 0.13002 0.0
C1 C 0.23499 0.63891 0.12544 0.0
C2 C 0.23556 0.6088 0.12718 0.0
C3 C 0.20707 0.60046 0.13294 0.0
N4 N 0.18812 0.62338 0.1343 0.0
Co5 Co 0.14555 0.6206 0.14688 0.0
N6 N 0.14892 0.57836 0.15977 0.0
C7 C 0.17277 0.56108 0.15529 0.0
C8 C 0.16755 0.53189 0.16071 0.0
C9 C 0.13891 0.5306 0.16985 0.0
C10 C 0.12839 0.55937 0.17108 0.0
N11 N 0.10309 0.61847 0.1591 0.0
C12 C 0.08658 0.59482 0.16777 0.0
C13 C 0.05695 0.59979 0.16176 0.0
C14 C 0.05432 0.62846 0.15321 0.0
C15 C 0.0826 0.63896 0.15232 0.0
N16 N 0.14288 0.66343 0.13538 0.0
C17 C 0.11788 0.67959 0.13486 0.0
C18 C 0.12255 0.70893 0.12936 0.0
C19 C 0.15248 0.71197 0.12713 0.0
C20 C 0.16456 0.68425 0.13151 0.0
N21 N 0.13257 0.60632 0.10732 0.0
C22 C 0.09975 0.57352 0.06539 0.0
C23 C 0.09188 0.60244 0.07304 0.0
C24 C 0.10888 0.61852 0.09317 0.0
C25 C 0.12673 0.56329 0.07631 0.0
C26 C 0.14291 0.58019 0.09625 0.0
N27 N 0.15753 0.6336 0.18549 0.0
C28 C 0.15534 0.67202 0.22097 0.0
C29 C 0.18441 0.66585 0.22922 0.0
C30 C 0.19801 0.64063 0.21835 0.0
C31 C 0.18375 0.62429 0.19703 0.0
C32 C 0.14225 0.65551 0.19908 0.0
H33 H 0.1953 0.60571 0.18841 0.0
H34 H 0.12087 0.66227 0.19163 0.0
H35 H 0.10205 0.64058 0.0972 0.0
H36 H 0.16339 0.57109 0.10284 0.0
C37 C 0.19867 0.57257 0.14305 0.0
C38 C 0.19683 0.67899 0.13186 0.0
C39 C 0.09838 0.56764 0.18166 0.0
C40 C 0.0908 0.66694 0.1424 0.0
H41 H 0.25413 0.65284 0.12264 0.0
H42 H 0.25494 0.59485 0.12662 0.0
H43 H 0.18229 0.51351 0.15693 0.0
H44 H 0.12688 0.51039 0.17356 0.0
H45 H 0.03901 0.58409 0.16213 0.0
H46 H 0.03434 0.63973 0.14673 0.0
H47 H 0.10621 0.72631 0.12837 0.0
H48 H 0.16414 0.73244 0.12336 0.0
H49 H 0.07253 0.61272 0.06375 0.0
H50 H 0.13508 0.54174 0.07052 0.0
H51 H 0.14397 0.69132 0.22911 0.0
H52 H 0.22031 0.63489 0.22466 0.0
C53 C 0.88162 0.19507 0.12738 0.0
C54 C 0.89022 0.22371 0.12117 0.0
C55 C 0.92028 0.22465 0.12378 0.0
C56 C 0.92862 0.1967 0.13163 0.0
N57 N 0.90574 0.17764 0.13324 0.0
Co58 Co 0.90786 0.13627 0.14916 0.0
N59 N 0.94966 0.14082 0.16308 0.0
C60 C 0.96658 0.16507 0.15939 0.0
C61 C 0.99402 0.1627 0.1716 0.0
C62 C 0.99479 0.1352 0.18366 0.0
C63 C 0.96777 0.12199 0.17786 0.0
N64 N 0.90915 0.09509 0.16517 0.0
C65 C 0.93114 0.07984 0.17875 0.0
C66 C 0.92283 0.05076 0.18355 0.0
C67 C 0.89478 0.04766 0.17323 0.0
C68 C 0.88749 0.07475 0.16235 0.0
N69 N 0.86557 0.13242 0.1361 0.0
C70 C 0.84929 0.10748 0.1367 0.0
C71 C 0.82019 0.1118 0.12966 0.0
C72 C 0.81739 0.14147 0.12531 0.0
C73 C 0.84498 0.15373 0.13011 0.0
N74 N 0.92364 0.12021 0.11151 0.0
C75 C 0.95722 0.08786 0.06991 0.0
C76 C 0.92959 0.07791 0.07957 0.0
C77 C 0.91321 0.0944 0.09977 0.0
C78 C 0.96597 0.1159 0.07941 0.0
C79 C 0.94882 0.13165 0.09944 0.0
N80 N 0.8932 0.15166 0.18622 0.0
C81 C 0.85322 0.15315 0.22021 0.0
C82 C 0.86001 0.18245 0.22691 0.0
C83 C 0.88593 0.19459 0.216 0.0
C84 C 0.90263 0.17847 0.1963 0.0
C85 C 0.87018 0.13811 0.19991 0.0
H86 H 0.92178 0.18904 0.18781 0.0
H87 H 0.86299 0.1165 0.19385 0.0
H88 H 0.89252 0.08536 0.10602 0.0
H89 H 0.95713 0.15265 0.10554 0.0
C90 C 0.95583 0.18976 0.14444 0.0
C91 C 0.85021 0.1859 0.12967 0.0
C92 C 0.96052 0.09147 0.18662 0.0
C93 C 0.86058 0.08177 0.14919 0.0
H94 H 0.87623 0.24251 0.11697 0.0
H95 H 0.93406 0.24413 0.12281 0.0
H96 H 1.01142 0.17907 0.17182 0.0
H97 H 1.01324 0.12603 0.1954 0.0
H98 H 0.9358 0.03326 0.19301 0.0
H99 H 0.88144 0.02786 0.17327 0.0
H100 H 0.80261 0.09563 0.12977 0.0
H101 H 0.79707 0.15295 0.12039 0.0
H102 H 0.92061 0.05722 0.0719 0.0
H103 H 0.98668 0.12543 0.07248 0.0
H104 H 0.83335 0.14284 0.22843 0.0
H105 H 0.89219 0.21704 0.22118 0.0
C106 C 0.34056 0.88623 0.13075 0.0
C107 C 0.31452 0.89522 0.11779 0.0
C108 C 0.31462 0.92558 0.11809 0.0
C109 C 0.34078 0.93365 0.13097 0.0
N110 N 0.35725 0.91022 0.13835 0.0
Co111 Co 0.39521 0.91221 0.15988 0.0
N112 N 0.38744 0.9525 0.1753 0.0
C113 C 0.36689 0.97094 0.16463 0.0
C114 C 0.36683 0.99789 0.17815 0.0
C115 C 0.38912 0.99655 0.19819 0.0
C116 C 0.4018 0.96881 0.19579 0.0
N117 N 0.43337 0.9133 0.18133 0.0
C118 C 0.44413 0.93263 0.20131 0.0
C119 C 0.47297 0.92539 0.20866 0.0
C120 C 0.48058 0.90126 0.19249 0.0
C121 C 0.45616 0.89502 0.1761 0.0
N122 N 0.40191 0.87155 0.14474 0.0
C123 C 0.42823 0.85791 0.14396 0.0
C124 C 0.42584 0.82866 0.13672 0.0
C125 C 0.39622 0.82349 0.13298 0.0
C126 C 0.38179 0.8501 0.13757 0.0
N127 N 0.41579 0.93037 0.12622 0.0
C128 C 0.44804 0.95842 0.08116 0.0
C129 C 0.42884 0.93448 0.07548 0.0
C130 C 0.41295 0.92075 0.09831 0.0
C131 C 0.44971 0.96806 0.10973 0.0
C132 C 0.43405 0.95387 0.13145 0.0
N133 N 0.37548 0.89512 0.19328 0.0
C134 C 0.37264 0.85545 0.22726 0.0
C135 C 0.34267 0.86138 0.23187 0.0
C136 C 0.33026 0.88636 0.21902 0.0
C137 C 0.34731 0.90336 0.20023 0.0
C138 C 0.38859 0.87247 0.2078 0.0
H139 H 0.337 0.92187 0.18976 0.0
H140 H 0.41086 0.86588 0.20295 0.0
H141 H 0.3986 0.90233 0.0935 0.0
H142 H 0.43723 0.96235 0.15269 0.0
C143 C 0.34676 0.96126 0.14349 0.0
C144 C 0.3492 0.85477 0.13468 0.0
C145 C 0.42974 0.96042 0.21044 0.0
C146 C 0.45258 0.87044 0.15806 0.0
H147 H 0.29698 0.88132 0.10964 0.0
H148 H 0.2967 0.93993 0.11169 0.0
H149 H 0.3523 0.01634 0.17398 0.0
H150 H 0.39594 0.01434 0.21225 0.0
H151 H 0.48744 0.93696 0.22339 0.0
H152 H 0.50141 0.88958 0.1928 0.0
H153 H 0.44321 0.81228 0.13688 0.0
H154 H 0.38677 0.8021 0.1288 0.0
H155 H 0.42648 0.92607 0.05376 0.0
H156 H 0.4631 0.9869 0.11565 0.0
H157 H 0.38303 0.83614 0.23651 0.0
H158 H 0.30718 0.89169 0.22217 0.0
C159 C 0.64153 0.32689 0.13239 0.0
C160 C 0.63279 0.29935 0.12259 0.0
C161 C 0.60284 0.29778 0.12614 0.0
C162 C 0.59469 0.32451 0.13751 0.0
N163 N 0.61753 0.34341 0.14054 0.0
Co164 Co 0.61502 0.3839 0.15826 0.0
N165 N 0.57357 0.37791 0.17264 0.0
C166 C 0.55717 0.35338 0.1685 0.0
C167 C 0.52977 0.35489 0.18098 0.0
C168 C 0.52863 0.38198 0.19397 0.0
C169 C 0.55542 0.3957 0.18854 0.0
N170 N 0.61283 0.42454 0.1755 0.0
C171 C 0.59104 0.43847 0.1906 0.0
C172 C 0.59881 0.46737 0.19695 0.0
C173 C 0.62628 0.47183 0.18562 0.0
C174 C 0.63373 0.44561 0.17287 0.0
N175 N 0.6573 0.3888 0.14529 0.0
C176 C 0.67331 0.41382 0.14806 0.0
C177 C 0.70282 0.40999 0.14305 0.0
C178 C 0.7062 0.38065 0.13751 0.0
C179 C 0.67833 0.36792 0.13876 0.0
N180 N 0.59885 0.40103 0.12126 0.0
C181 C 0.56669 0.43495 0.08001 0.0
C182 C 0.59536 0.4429 0.08843 0.0
C183 C 0.61098 0.42565 0.10867 0.0
C184 C 0.55592 0.40809 0.09043 0.0
C185 C 0.57234 0.39148 0.11029 0.0
N186 N 0.63025 0.36761 0.19474 0.0
C187 C 0.66867 0.36865 0.23048 0.0
C188 C 0.66537 0.33837 0.23498 0.0
C189 C 0.64142 0.32402 0.22229 0.0
C190 C 0.62363 0.33931 0.20281 0.0
C191 C 0.65092 0.38282 0.21028 0.0
H192 H 0.60616 0.3272 0.1928 0.0
H193 H 0.65589 0.40541 0.20585 0.0
H194 H 0.63246 0.43324 0.11438 0.0
H195 H 0.56249 0.37141 0.11706 0.0
C196 C 0.56781 0.32997 0.1516 0.0
C197 C 0.67302 0.33572 0.13486 0.0
C198 C 0.5624 0.42571 0.1988 0.0
C199 C 0.66105 0.43914 0.16044 0.0
H200 H 0.64677 0.28167 0.11493 0.0
H201 H 0.58903 0.27857 0.12294 0.0
H202 H 0.51253 0.33836 0.18048 0.0
H203 H 0.51009 0.39075 0.20592 0.0
H204 H 0.58593 0.4836 0.20851 0.0
H205 H 0.63943 0.49172 0.1869 0.0
H206 H 0.72023 0.42616 0.14552 0.0
H207 H 0.72727 0.36998 0.13465 0.0
H208 H 0.60528 0.46302 0.08045 0.0
H209 H 0.53452 0.39999 0.08363 0.0
H210 H 0.68693 0.38066 0.24001 0.0
H211 H 0.63789 0.30063 0.22562 0.0
C212 C 0.1924 0.88308 0.37859 0.0
C213 C 0.21997 0.89252 0.38783 0.0
C214 C 0.21909 0.92287 0.38865 0.0
C215 C 0.19121 0.93058 0.37966 0.0
N216 N 0.17458 0.90697 0.3734 0.0
Co217 Co 0.13451 0.9089 0.35586 0.0
N218 N 0.14025 0.94933 0.33992 0.0
C219 C 0.15996 0.96838 0.35119 0.0
C220 C 0.15559 0.99672 0.34218 0.0
C221 C 0.13157 0.99551 0.32423 0.0
C222 C 0.12309 0.96603 0.32176 0.0
N223 N 0.09411 0.90975 0.3391 0.0
C224 C 0.08019 0.93089 0.32306 0.0
C225 C 0.0498 0.92882 0.32746 0.0
C226 C 0.04463 0.90436 0.34392 0.0
C227 C 0.07197 0.89357 0.35045 0.0
N228 N 0.12998 0.86819 0.3711 0.0
C229 C 0.10409 0.85501 0.37642 0.0
C230 C 0.10741 0.82618 0.38505 0.0
C231 C 0.13737 0.82099 0.38496 0.0
C232 C 0.15078 0.84694 0.37617 0.0
N233 N 0.11731 0.92668 0.39176 0.0
C234 C 0.08598 0.9522 0.43889 0.0
C235 C 0.10491 0.92772 0.44293 0.0
C236 C 0.12041 0.91528 0.41902 0.0
C237 C 0.08462 0.96402 0.41125 0.0
C238 C 0.09974 0.95109 0.38855 0.0
N239 N 0.15063 0.8925 0.32056 0.0
C240 C 0.15183 0.85213 0.28737 0.0
C241 C 0.18113 0.859 0.28035 0.0
C242 C 0.19362 0.88483 0.2913 0.0
C243 C 0.17764 0.90171 0.31096 0.0
C244 C 0.13693 0.86919 0.30764 0.0
H245 H 0.18818 0.9208 0.32025 0.0
H246 H 0.11536 0.86213 0.31468 0.0
H247 H 0.13426 0.8962 0.42245 0.0
H248 H 0.0959 0.96101 0.36815 0.0
C249 C 0.1825 0.95853 0.36978 0.0
C250 C 0.18328 0.85153 0.37541 0.0
C251 C 0.09503 0.95581 0.30749 0.0
C252 C 0.07784 0.86869 0.36764 0.0
H253 H 0.23908 0.87917 0.39265 0.0
H254 H 0.23739 0.93753 0.39312 0.0
H255 H 0.16744 0.01624 0.34902 0.0
H256 H 0.12009 0.01488 0.31679 0.0
H257 H 0.0329 0.94449 0.32158 0.0
H258 H 0.02351 0.89642 0.35157 0.0
H259 H 0.09012 0.81036 0.38952 0.0
H260 H 0.14812 0.80053 0.39075 0.0
H261 H 0.10709 0.9178 0.46403 0.0
H262 H 0.07129 0.98331 0.40674 0.0
H263 H 0.14153 0.83213 0.27944 0.0
H264 H 0.21618 0.8908 0.28621 0.0
C265 C 0.64929 0.20411 0.37974 0.0
C266 C 0.64069 0.23265 0.38642 0.0
C267 C 0.61058 0.23347 0.38444 0.0
C268 C 0.60217 0.20557 0.37645 0.0
N269 N 0.62508 0.18664 0.3741 0.0
Co270 Co 0.62265 0.14547 0.35756 0.0
N271 N 0.58055 0.15005 0.34467 0.0
C272 C 0.56349 0.17397 0.34947 0.0
C273 C 0.53553 0.17132 0.3384 0.0
C274 C 0.53466 0.14402 0.32582 0.0
C275 C 0.56218 0.13134 0.33002 0.0
N276 N 0.62112 0.10457 0.3408 0.0
C277 C 0.59926 0.08989 0.32645 0.0
C278 C 0.60781 0.06129 0.31978 0.0
C279 C 0.63584 0.0578 0.33012 0.0
C280 C 0.64289 0.08427 0.34262 0.0
N281 N 0.66525 0.14162 0.36961 0.0
C282 C 0.68149 0.11668 0.36835 0.0
C283 C 0.71071 0.12095 0.37496 0.0
C284 C 0.71361 0.15055 0.37977 0.0
C285 C 0.68596 0.1629 0.37562 0.0
N286 N 0.60773 0.1287 0.39529 0.0
C287 C 0.57436 0.09564 0.43662 0.0
C288 C 0.60147 0.08541 0.42589 0.0
C289 C 0.61776 0.10224 0.40587 0.0
C290 C 0.56615 0.12425 0.42837 0.0
C291 C 0.58321 0.14032 0.40847 0.0
N292 N 0.6363 0.16141 0.32039 0.0
C293 C 0.67413 0.1621 0.28415 0.0
C294 C 0.66757 0.1915 0.27784 0.0
C295 C 0.64273 0.20427 0.29035 0.0
C296 C 0.62688 0.18846 0.31097 0.0
C297 C 0.65828 0.1475 0.30549 0.0
H298 H 0.60845 0.19935 0.32053 0.0
H299 H 0.66557 0.12587 0.31118 0.0
H300 H 0.63804 0.09294 0.39877 0.0
H301 H 0.57534 0.16174 0.40339 0.0
C302 C 0.57459 0.19856 0.36437 0.0
C303 C 0.68077 0.19512 0.37691 0.0
C304 C 0.56973 0.10151 0.31962 0.0
C305 C 0.67002 0.09115 0.35552 0.0
H306 H 0.65464 0.25151 0.39052 0.0
H307 H 0.59674 0.25285 0.38597 0.0
H308 H 0.51787 0.18735 0.33931 0.0
H309 H 0.51586 0.13452 0.31481 0.0
H310 H 0.595 0.04452 0.30887 0.0
H311 H 0.64946 0.03825 0.3287 0.0
H312 H 0.72828 0.1048 0.3743 0.0
H313 H 0.73402 0.16194 0.3846 0.0
H314 H 0.61012 0.06425 0.43258 0.0
H315 H 0.54592 0.13406 0.43618 0.0
H316 H 0.69329 0.15141 0.27485 0.0
H317 H 0.63681 0.22692 0.2857 0.0
C318 C 0.32504 0.64265 0.37918 0.0
C319 C 0.29733 0.63403 0.38865 0.0
C320 C 0.29595 0.60403 0.38568 0.0
C321 C 0.32293 0.59573 0.37495 0.0
N322 N 0.34183 0.61855 0.37184 0.0
Co323 Co 0.38248 0.6159 0.35444 0.0
N324 N 0.37666 0.57437 0.34035 0.0
C325 C 0.35223 0.55788 0.3447 0.0
C326 C 0.35386 0.53039 0.33244 0.0
C327 C 0.38094 0.52929 0.3194 0.0
C328 C 0.39453 0.55619 0.32456 0.0
N329 N 0.42319 0.61375 0.3373 0.0
C330 C 0.43717 0.59198 0.32222 0.0
C331 C 0.46605 0.59983 0.31584 0.0
C332 C 0.47045 0.62732 0.32711 0.0
C333 C 0.44419 0.63472 0.33986 0.0
N334 N 0.38721 0.65825 0.36721 0.0
C335 C 0.41231 0.67419 0.36477 0.0
C336 C 0.4084 0.70372 0.36954 0.0
C337 C 0.37892 0.70717 0.37448 0.0
C338 C 0.36617 0.67934 0.37314 0.0
N339 N 0.39966 0.59991 0.39164 0.0
C340 C 0.43344 0.56762 0.43337 0.0
C341 C 0.44202 0.59581 0.42399 0.0
C342 C 0.42484 0.61152 0.40372 0.0
C343 C 0.40612 0.55741 0.42322 0.0
C344 C 0.38968 0.57384 0.40313 0.0
N345 N 0.36625 0.63079 0.31779 0.0
C346 C 0.36709 0.66881 0.2817 0.0
C347 C 0.33697 0.66471 0.27653 0.0
C348 C 0.32288 0.64068 0.2893 0.0
C349 C 0.33818 0.62354 0.30932 0.0
C350 C 0.38127 0.65166 0.30238 0.0
H351 H 0.32624 0.60598 0.31932 0.0
H352 H 0.40368 0.65717 0.3072 0.0
H353 H 0.43279 0.63275 0.39775 0.0
H354 H 0.36936 0.56429 0.3966 0.0
C355 C 0.32863 0.56867 0.36128 0.0
C356 C 0.3338 0.67411 0.37626 0.0
C357 C 0.42447 0.56328 0.31413 0.0
C358 C 0.43768 0.66199 0.35238 0.0
H359 H 0.27944 0.6481 0.39566 0.0
H360 H 0.27669 0.59025 0.38874 0.0
H361 H 0.33739 0.51311 0.33306 0.0
H362 H 0.38977 0.51072 0.30755 0.0
H363 H 0.48233 0.58697 0.3043 0.0
H364 H 0.49032 0.64051 0.32581 0.0
H365 H 0.4246 0.72109 0.36712 0.0
H366 H 0.3682 0.72825 0.37692 0.0
H367 H 0.4621 0.60582 0.43201 0.0
H368 H 0.39766 0.53612 0.42974 0.0
H369 H 0.37892 0.68715 0.27218 0.0
H370 H 0.29964 0.63654 0.28549 0.0
C371 C 0.88865 0.33842 0.37884 0.0
C372 C 0.89772 0.31183 0.39056 0.0
C373 C 0.9281 0.31184 0.38991 0.0
C374 C 0.93611 0.33848 0.37809 0.0
N375 N 0.91264 0.35534 0.37171 0.0
Co376 Co 0.91459 0.39422 0.35186 0.0
N377 N 0.95472 0.387 0.33568 0.0
C378 C 0.97304 0.36562 0.34489 0.0
C379 C 0.99939 0.36534 0.3303 0.0
C380 C 0.99783 0.38838 0.31116 0.0
C381 C 0.97064 0.40187 0.31527 0.0
N382 N 0.91568 0.43333 0.33228 0.0
C383 C 0.93517 0.4452 0.31306 0.0
C384 C 0.9284 0.47466 0.308 0.0
C385 C 0.90431 0.48137 0.32458 0.0
C386 C 0.89766 0.4559 0.33906 0.0
N387 N 0.87398 0.40024 0.36754 0.0
C388 C 0.86042 0.42649 0.36967 0.0
C389 C 0.8312 0.42387 0.37703 0.0
C390 C 0.82597 0.39416 0.37947 0.0
C391 C 0.85251 0.3799 0.37401 0.0
N392 N 0.93304 0.41329 0.38623 0.0
C393 C 0.96002 0.44571 0.43176 0.0
C394 C 0.9357 0.42688 0.43695 0.0
C395 C 0.92251 0.41086 0.41385 0.0
C396 C 0.97083 0.44665 0.40361 0.0
C397 C 0.95714 0.43094 0.38163 0.0
N398 N 0.89724 0.37617 0.31772 0.0
C399 C 0.8576 0.3751 0.28355 0.0
C400 C 0.86366 0.34547 0.2774 0.0
C401 C 0.88871 0.33248 0.28957 0.0
C402 C 0.90558 0.34848 0.30932 0.0
C403 C 0.87457 0.39 0.30387 0.0
H404 H 0.92409 0.33763 0.31928 0.0
H405 H 0.86795 0.41195 0.30987 0.0
H406 H 0.90364 0.39696 0.4182 0.0
H407 H 0.96628 0.43395 0.36065 0.0
C408 C 0.96354 0.34472 0.3653 0.0
C409 C 0.85712 0.34725 0.37561 0.0
C410 C 0.96255 0.43087 0.30244 0.0
C411 C 0.8731 0.45147 0.35692 0.0
H412 H 0.88384 0.294 0.39808 0.0
H413 H 0.94246 0.29359 0.3953 0.0
H414 H 0.01751 0.35006 0.33303 0.0
H415 H 0.01516 0.39498 0.2965 0.0
H416 H 0.94022 0.49021 0.29465 0.0
H417 H 0.89302 0.50235 0.32588 0.0
H418 H 0.81489 0.44128 0.37789 0.0
H419 H 0.80459 0.38457 0.3835 0.0
H420 H 0.92649 0.42506 0.45839 0.0
H421 H 0.99001 0.45979 0.3982 0.0
H422 H 0.83821 0.38587 0.27484 0.0
H423 H 0.8941 0.30964 0.28525 0.0
C424 C 0.92617 0.35582 0.84631 0.0
C425 C 0.90183 0.36082 0.82877 0.0
C426 C 0.88377 0.38008 0.84332 0.0
C427 C 0.89795 0.38577 0.8689 0.0
N428 N 0.92394 0.37151 0.87108 0.0
Co429 Co 0.94996 0.37209 0.90529 0.0
N430 N 0.93124 0.40832 0.92088 0.0
C431 C 0.90477 0.41916 0.91327 0.0
C432 C 0.89894 0.4458 0.92631 0.0
C433 C 0.9234 0.45202 0.94294 0.0
C434 C 0.94283 0.42876 0.93916 0.0
N435 N 0.97551 0.37265 0.9399 0.0
C436 C 0.98309 0.39572 0.95694 0.0
C437 C 1.00252 0.38701 0.97837 0.0
C438 C 1.00755 0.35744 0.9742 0.0
C439 C 0.99088 0.34978 0.95057 0.0
N440 N 0.97018 0.33664 0.88988 0.0
C441 C 0.98739 0.31809 0.9051 0.0
C442 C 0.99886 0.29576 0.8886 0.0
C443 C 0.98779 0.30029 0.86145 0.0
C444 C 0.9699 0.32514 0.86292 0.0
N445 N 0.97822 0.39686 0.88419 0.0
C446 C 1.0145 0.42512 0.84351 0.0
C447 C 0.02582 0.403 0.86161 0.0
C448 C 1.0074 0.38938 0.88203 0.0
C449 C 0.98516 0.4339 0.84767 0.0
C450 C 0.96758 0.41967 0.86799 0.0
N451 N 0.92005 0.34655 0.92489 0.0
C452 C 0.88741 0.30456 0.91952 0.0
C453 C 0.86742 0.31576 0.9397 0.0
C454 C 0.87616 0.34136 0.95476 0.0
C455 C 0.9028 0.35609 0.94739 0.0
C456 C 0.91263 0.32031 0.91202 0.0
H457 H 0.9084 0.37605 0.95886 0.0
H458 H 0.92463 0.3116 0.8941 0.0
H459 H 0.01639 0.37188 0.89509 0.0
H460 H 0.94479 0.42613 0.86933 0.0
C461 C 0.88975 0.40714 0.88945 0.0
C462 C 0.94962 0.33434 0.83981 0.0
C463 C 0.97176 0.42582 0.95353 0.0
C464 C 0.99524 0.32456 0.93365 0.0
H465 H 0.89742 0.35126 0.80783 0.0
H466 H 0.86314 0.38932 0.83581 0.0
H467 H 0.88006 0.45995 0.92278 0.0
H468 H 0.92672 0.47156 0.95593 0.0
H469 H 1.0125 0.40072 0.99481 0.0
H470 H 0.02321 0.34379 0.98569 0.0
H471 H 1.0139 0.27855 0.89532 0.0
H472 H 0.99174 0.28634 0.84292 0.0
H473 H 0.04852 0.39583 0.85963 0.0
H474 H 0.97516 0.45064 0.8342 0.0
H475 H 0.88298 0.28419 0.90813 0.0
H476 H 0.86198 0.35081 0.9711 0.0
C477 C 0.17947 0.92155 0.84824 0.0
C478 C 0.17398 0.89757 0.83037 0.0
C479 C 0.15492 0.87933 0.8449 0.0
C480 C 0.14951 0.89317 0.87068 0.0
N481 N 0.16378 0.91914 0.87301 0.0
Co482 Co 0.16205 0.94574 0.90676 0.0
N483 N 0.12571 0.92674 0.92191 0.0
C484 C 0.11529 0.90008 0.91437 0.0
C485 C 0.08865 0.89386 0.92727 0.0
C486 C 0.08198 0.91824 0.94375 0.0
C487 C 0.10496 0.93802 0.94 0.0
N488 N 0.16048 0.97187 0.94092 0.0
C489 C 0.13712 0.97912 0.95771 0.0
C490 C 0.1453 0.99893 0.97903 0.0
C491 C 0.17484 1.00444 0.97514 0.0
C492 C 0.18302 0.98769 0.95176 0.0
N493 N 0.19753 0.96626 0.89167 0.0
C494 C 0.21582 0.98354 0.90716 0.0
C495 C 0.23898 0.99422 0.89126 0.0
C496 C 0.23521 0.98266 0.8642 0.0
C497 C 0.20973 0.96554 0.86501 0.0
N498 N 0.13732 0.97319 0.88461 0.0
C499 C 0.11124 1.00729 0.84103 0.0
C500 C 0.13189 0.0198 0.86004 0.0
C501 C 0.1446 1.00236 0.88183 0.0
C502 C 0.10198 0.97835 0.8462 0.0
C503 C 0.11511 0.96182 0.868 0.0
N504 N 0.1876 0.9166 0.92746 0.0
C505 C 0.23067 0.88515 0.92405 0.0
C506 C 0.21866 0.86439 0.94302 0.0
C507 C 0.19208 0.87234 0.95683 0.0
C508 C 0.17734 0.89885 0.94927 0.0
C509 C 0.21473 0.91003 0.91598 0.0
H510 H 0.15682 0.90388 0.95998 0.0
H511 H 0.22422 0.92244 0.89874 0.0
H512 H 0.16154 1.01194 0.89526 0.0
H513 H 0.10849 0.93916 0.87007 0.0
C514 C 0.12782 0.88502 0.8909 0.0
C515 C 0.20061 0.94542 0.84171 0.0
C516 C 0.10731 0.96696 0.95435 0.0
C517 C 0.20865 0.99183 0.9354 0.0
H518 H 0.18274 0.8936 0.80904 0.0
H519 H 0.14529 0.85899 0.83709 0.0
H520 H 0.07485 0.8747 0.9238 0.0
H521 H 0.06234 0.92127 0.95667 0.0
H522 H 0.13129 1.00872 0.99531 0.0
H523 H 0.18819 0.0203 0.98673 0.0
H524 H 0.25638 1.00889 0.89837 0.0
H525 H 0.25017 0.98568 0.84629 0.0
H526 H 0.13941 0.04226 0.85711 0.0
H527 H 0.08542 0.96802 0.83269 0.0
H528 H 0.25189 0.88161 0.91392 0.0
H529 H 0.18193 0.8577 0.97234 0.0
C530 C 0.60385 0.17777 0.84707 0.0
C531 C 0.6279 0.17437 0.8288 0.0
C532 C 0.64666 0.15468 0.8418 0.0
C533 C 0.6332 0.14719 0.86727 0.0
N534 N 0.60699 0.16071 0.87085 0.0
Co535 Co 0.58204 0.1577 0.90568 0.0
N536 N 0.60193 0.12106 0.91894 0.0
C537 C 0.62819 0.11104 0.90966 0.0
C538 C 0.63459 0.0835 0.92028 0.0
C539 C 0.61084 0.07578 0.93714 0.0
C540 C 0.59122 0.09925 0.93625 0.0
N541 N 0.55765 0.15485 0.94094 0.0
C542 C 0.55154 0.13102 0.95752 0.0
C543 C 0.53336 0.13869 0.98038 0.0
C544 C 0.52742 0.16821 0.97747 0.0
C545 C 0.54242 0.17698 0.95322 0.0
N546 N 0.56056 0.19342 0.89255 0.0
C547 C 0.54323 0.21064 0.90909 0.0
C548 C 0.53056 0.23336 0.89401 0.0
C549 C 0.54098 0.23055 0.86641 0.0
C550 C 0.55981 0.20635 0.86623 0.0
N551 N 0.55371 0.13335 0.88413 0.0
C552 C 0.51658 0.10504 0.84414 0.0
C553 C 0.50539 0.12637 0.8632 0.0
C554 C 0.52425 0.14001 0.88328 0.0
C555 C 0.54636 0.09725 0.8467 0.0
C556 C 0.56437 0.11154 0.86665 0.0
N557 N 0.61201 0.18287 0.92579 0.0
C558 C 0.64314 0.22619 0.92222 0.0
C559 C 0.66448 0.21411 0.94054 0.0
C560 C 0.65718 0.18718 0.954 0.0
C561 C 0.63059 0.17228 0.94679 0.0
C562 C 0.61804 0.21024 0.91462 0.0
H563 H 0.6261 0.15144 0.9571 0.0
H564 H 0.60492 0.21994 0.89799 0.0
H565 H 0.51528 0.15675 0.89729 0.0
H566 H 0.58739 0.1058 0.86682 0.0
C567 C 0.64225 0.12478 0.88626 0.0
C568 C 0.57983 0.1991 0.84226 0.0
C569 C 0.56302 0.10114 0.95242 0.0
C570 C 0.53671 0.20272 0.93756 0.0
H571 H 0.6317 0.18527 0.8084 0.0
H572 H 0.6673 0.14634 0.83336 0.0
H573 H 0.65326 0.06971 0.91479 0.0
H574 H 0.60818 0.05492 0.94805 0.0
H575 H 0.5248 0.12433 0.99701 0.0
H576 H 0.51229 0.18115 0.99034 0.0
H577 H 0.51519 0.24971 0.90196 0.0
H578 H 0.53597 0.24523 0.8487 0.0
H579 H 0.48238 0.13278 0.86234 0.0
H580 H 0.55621 0.08116 0.83239 0.0
H581 H 0.6463 0.24756 0.91232 0.0
H582 H 0.67238 0.17693 0.96894 0.0
C583 C 0.35591 0.60219 0.84833 0.0
C584 C 0.3612 0.62667 0.83113 0.0
C585 C 0.3804 0.64447 0.84608 0.0
C586 C 0.38576 0.63 0.87154 0.0
N587 N 0.37134 0.60407 0.8733 0.0
Co588 Co 0.37162 0.57755 0.90715 0.0
N589 N 0.40787 0.59596 0.92322 0.0
C590 C 0.41883 0.62249 0.91596 0.0
C591 C 0.445 0.62858 0.92981 0.0
C592 C 0.45079 0.60429 0.94668 0.0
C593 C 0.4278 0.58465 0.94215 0.0
N594 N 0.37173 0.55152 0.94149 0.0
C595 C 0.39426 0.54434 0.95944 0.0
C596 C 0.38499 0.5243 0.98016 0.0
C597 C 0.35568 0.51896 0.97496 0.0
C598 C 0.34867 0.53578 0.95135 0.0
N599 N 0.33613 0.55772 0.89108 0.0
C600 C 0.31741 0.54021 0.90574 0.0
C601 C 0.29525 0.52898 0.88882 0.0
C602 C 0.30008 0.54049 0.86194 0.0
C603 C 0.32491 0.55841 0.86402 0.0
N604 N 0.39639 0.54958 0.88563 0.0
C605 C 0.42135 0.51557 0.84137 0.0
C606 C 0.40062 0.50321 0.86033 0.0
C607 C 0.38847 0.52061 0.88247 0.0
C608 C 0.43144 0.54415 0.84702 0.0
C609 C 0.41892 0.5606 0.86925 0.0
N610 N 0.34612 0.60716 0.92709 0.0
C611 C 0.30442 0.64013 0.92201 0.0
C612 C 0.31584 0.6598 0.9424 0.0
C613 C 0.34127 0.65066 0.95749 0.0
C614 C 0.35571 0.62399 0.94989 0.0
C615 C 0.31996 0.61489 0.91425 0.0
H616 H 0.37554 0.61805 0.96141 0.0
H617 H 0.3112 0.60316 0.89616 0.0
H618 H 0.3713 0.51126 0.89574 0.0
H619 H 0.42609 0.58307 0.87168 0.0
C620 C 0.40703 0.63783 0.89231 0.0
C621 C 0.33445 0.57889 0.84128 0.0
C622 C 0.42436 0.55635 0.95742 0.0
C623 C 0.32368 0.53176 0.93408 0.0
H624 H 0.3519 0.63133 0.81014 0.0
H625 H 0.38985 0.66511 0.8389 0.0
H626 H 0.45899 0.6477 0.92692 0.0
H627 H 0.46971 0.60129 0.96063 0.0
H628 H 0.39805 0.514 0.99685 0.0
H629 H 0.34178 0.50306 0.98583 0.0
H630 H 0.27803 0.51373 0.89508 0.0
H631 H 0.28638 0.53675 0.84318 0.0
H632 H 0.39252 0.481 0.85701 0.0
H633 H 0.44804 0.5543 0.83346 0.0
H634 H 0.2841 0.64487 0.91062 0.0
H635 H 0.35084 0.66456 0.97401 0.0
C636 C 0.9244 0.17459 0.6644 0.0
C637 C 0.90027 0.17171 0.68265 0.0
C638 C 0.88155 0.15164 0.67009 0.0
C639 C 0.89512 0.14343 0.64488 0.0
N640 N 0.92135 0.15686 0.64106 0.0
Co641 Co 0.9464 0.15296 0.6064 0.0
N642 N 0.92662 0.1159 0.59404 0.0
C643 C 0.90044 0.10595 0.60361 0.0
C644 C 0.89439 0.07791 0.59402 0.0
C645 C 0.91833 0.06977 0.5776 0.0
C646 C 0.93769 0.0935 0.57767 0.0
N647 N 0.97082 0.14919 0.57128 0.0
C648 C 0.97718 0.12484 0.55552 0.0
C649 C 0.99546 0.13182 0.53254 0.0
C650 C 1.00126 0.16146 0.53457 0.0
C651 C 0.98608 0.17098 0.55846 0.0
N652 N 0.96801 0.1889 0.61878 0.0
C653 C 0.98548 0.20564 0.60192 0.0
C654 C 0.99809 0.22876 0.61651 0.0
C655 C 0.98749 0.22672 0.64411 0.0
C656 C 0.96864 0.20254 0.64478 0.0
N657 N 0.97472 0.12916 0.6285 0.0
C658 C 1.0123 0.10129 0.6683 0.0
C659 C 0.02335 0.12212 0.64868 0.0
C660 C 1.00426 0.13554 0.62872 0.0
C661 C 0.98236 0.09385 0.66654 0.0
C662 C 0.96411 0.10794 0.64668 0.0
N663 N 0.9164 0.17773 0.58568 0.0
C664 C 0.88658 0.22213 0.58737 0.0
C665 C 0.86421 0.20948 0.57063 0.0
C666 C 0.87032 0.18148 0.55872 0.0
C667 C 0.89677 0.16636 0.56596 0.0
C668 C 0.91146 0.20597 0.59523 0.0
H669 H 0.90033 0.14484 0.55668 0.0
H670 H 0.92534 0.21655 0.61072 0.0
H671 H 1.01317 0.15184 0.6142 0.0
H672 H 0.94103 0.10243 0.647 0.0
C673 C 0.88622 0.12037 0.62655 0.0
C674 C 0.94853 0.19588 0.66883 0.0
C675 C 0.96607 0.09503 0.56174 0.0
C676 C 0.99193 0.19707 0.57358 0.0
H677 H 0.89642 0.18316 0.70277 0.0
H678 H 0.8609 0.14351 0.67869 0.0
H679 H 0.8759 0.06411 0.60002 0.0
H680 H 0.9213 0.04845 0.56765 0.0
H681 H 1.00428 0.11693 0.51648 0.0
H682 H 0.01653 0.17401 0.52148 0.0
H683 H 1.01348 0.24492 0.60823 0.0
H684 H 0.99239 0.24189 0.66147 0.0
H685 H 0.04646 0.12823 0.64895 0.0
H686 H 0.97265 0.07813 0.68131 0.0
H687 H 0.88451 0.24426 0.59585 0.0
H688 H 0.85435 0.17067 0.54495 0.0
C689 C 0.35687 0.92579 0.66064 0.0
C690 C 0.36317 0.90175 0.67814 0.0
C691 C 0.38214 0.88395 0.66298 0.0
C692 C 0.38669 0.8981 0.63722 0.0
N693 N 0.37198 0.92387 0.63549 0.0
Co694 Co 0.37242 0.95071 0.60193 0.0
N695 N 0.40854 0.93232 0.58561 0.0
C696 C 0.41953 0.90577 0.59266 0.0
C697 C 0.44588 0.90001 0.57902 0.0
C698 C 0.45179 0.92459 0.56258 0.0
C699 C 0.42867 0.94403 0.56709 0.0
N700 N 0.37274 0.97709 0.56792 0.0
C701 C 0.39557 0.98483 0.55062 0.0
C702 C 0.38657 1.00473 0.52974 0.0
C703 C 0.35709 1.00981 0.53446 0.0
C704 C 0.34974 0.99272 0.55785 0.0
N705 N 0.33717 0.9707 0.61817 0.0
C706 C 0.3183 0.98794 0.60334 0.0
C707 C 0.2955 0.99825 0.61994 0.0
C708 C 0.3001 0.98648 0.64677 0.0
C709 C 0.32568 0.96959 0.64513 0.0
N710 N 0.39741 0.97836 0.62363 0.0
C711 C 0.42295 1.01217 0.66777 0.0
C712 C 0.40209 0.02463 0.64899 0.0
C713 C 0.38967 1.00735 0.6269 0.0
C714 C 0.43284 0.98356 0.66196 0.0
C715 C 0.42 0.96719 0.63983 0.0
N716 N 0.34652 0.92132 0.58178 0.0
C717 C 0.3038 0.88948 0.58647 0.0
C718 C 0.31526 0.86891 0.56702 0.0
C719 C 0.34133 0.87704 0.55241 0.0
C720 C 0.35623 0.90362 0.55966 0.0
C721 C 0.31981 0.9145 0.59406 0.0
H722 H 0.37643 0.90876 0.54843 0.0
H723 H 0.31076 0.92675 0.61161 0.0
H724 H 0.37246 0.01682 0.61376 0.0
H725 H 0.42704 0.9447 0.63729 0.0
C726 C 0.40789 0.8904 0.61636 0.0
C727 C 0.33544 0.94916 0.6679 0.0
C728 C 0.42564 0.97307 0.55309 0.0
C729 C 0.32458 0.99648 0.57497 0.0
H730 H 0.35497 0.89743 0.69961 0.0
H731 H 0.39224 0.86369 0.67034 0.0
H732 H 0.46003 0.88103 0.58199 0.0
H733 H 0.47104 0.92801 0.5492 0.0
H734 H 0.40003 0.01489 0.51323 0.0
H735 H 0.34325 0.02563 0.52341 0.0
H736 H 0.27777 1.01279 0.61343 0.0
H737 H 0.28556 0.98916 0.66507 0.0
H738 H 0.39411 0.04687 0.6524 0.0
H739 H 0.44959 0.97332 0.6753 0.0
H740 H 0.28303 0.88563 0.59735 0.0
H741 H 0.35098 0.86245 0.53653 0.0
C742 C 0.60241 0.35737 0.66335 0.0
C743 C 0.62618 0.36334 0.68136 0.0
C744 C 0.64429 0.38251 0.66677 0.0
C745 C 0.63072 0.38719 0.64069 0.0
N746 N 0.60505 0.37241 0.63824 0.0
Co747 Co 0.57988 0.37166 0.60341 0.0
N748 N 0.59847 0.40772 0.58732 0.0
C749 C 0.62465 0.41908 0.59521 0.0
C750 C 0.63053 0.44538 0.58156 0.0
C751 C 0.60644 0.45081 0.56421 0.0
C752 C 0.58713 0.42748 0.56821 0.0
N753 N 0.55511 0.37098 0.56824 0.0
C754 C 0.54763 0.39347 0.55045 0.0
C755 C 0.52882 0.38387 0.52882 0.0
C756 C 0.52412 0.35436 0.53361 0.0
C757 C 0.54033 0.34759 0.55778 0.0
N758 N 0.55991 0.33622 0.61916 0.0
C759 C 0.54342 0.31699 0.60395 0.0
C760 C 0.5319 0.29486 0.62067 0.0
C761 C 0.54218 0.30027 0.64796 0.0
C762 C 0.55971 0.32539 0.64637 0.0
N763 N 0.55078 0.39648 0.62337 0.0
C764 C 0.51351 0.42454 0.66335 0.0
C765 C 0.5029 0.40175 0.6456 0.0
C766 C 0.52179 0.38827 0.62549 0.0
C767 C 0.54258 0.43414 0.65912 0.0
C768 C 0.56068 0.41997 0.63915 0.0
N769 N 0.61056 0.34609 0.58508 0.0
C770 C 0.64403 0.30511 0.59233 0.0
C771 C 0.6633 0.31519 0.57098 0.0
C772 C 0.65395 0.33977 0.55472 0.0
C773 C 0.62731 0.35466 0.56187 0.0
C774 C 0.61869 0.32088 0.59935 0.0
H775 H 0.62124 0.37393 0.54958 0.0
H776 H 0.60711 0.31317 0.61795 0.0
H777 H 0.51335 0.37026 0.61271 0.0
H778 H 0.58331 0.42702 0.63783 0.0
C779 C 0.63917 0.40802 0.61973 0.0
C780 C 0.57928 0.33547 0.66975 0.0
C781 C 0.5586 0.4238 0.55322 0.0
C782 C 0.53608 0.32269 0.57513 0.0
H783 H 0.63022 0.35443 0.70263 0.0
H784 H 0.66458 0.39232 0.67453 0.0
H785 H 0.64919 0.45985 0.58513 0.0
H786 H 0.60324 0.4699 0.55059 0.0
H787 H 0.51909 0.39697 0.5118 0.0
H788 H 0.50898 0.34013 0.52207 0.0
H789 H 0.51729 0.27725 0.61398 0.0
H790 H 0.53798 0.28671 0.6667 0.0
H791 H 0.4804 0.39397 0.64763 0.0
H792 H 0.55199 0.45149 0.67229 0.0
H793 H 0.64912 0.28564 0.60488 0.0
H794 H 0.66767 0.34833 0.53756 0.0
C795 C 0.1773 0.60542 0.66363 0.0
C796 C 0.17376 0.62928 0.6821 0.0
C797 C 0.15411 0.64812 0.66911 0.0
C798 C 0.14678 0.63488 0.64346 0.0
N799 N 0.16037 0.60875 0.63977 0.0
Co800 Co 0.15747 0.58396 0.60483 0.0
N801 N 0.1207 0.60368 0.59171 0.0
C802 C 0.11064 0.62991 0.60098 0.0
C803 C 0.08296 0.63613 0.59047 0.0
C804 C 0.07523 0.61228 0.57371 0.0
C805 C 0.09882 0.5928 0.57456 0.0
N806 N 0.15469 0.55971 0.56951 0.0
C807 C 0.13076 0.55338 0.55311 0.0
C808 C 0.13842 0.53535 0.53014 0.0
C809 C 0.16807 0.52975 0.5328 0.0
C810 C 0.17692 0.5448 0.55704 0.0
N811 N 0.19341 0.56274 0.61775 0.0
C812 C 0.21086 0.54583 0.60103 0.0
C813 C 0.23377 0.53333 0.61601 0.0
C814 C 0.23081 0.5434 0.64373 0.0
C815 C 0.20632 0.56185 0.64409 0.0
N816 N 0.13332 0.55544 0.62627 0.0
C817 C 0.10547 0.51823 0.66641 0.0
C818 C 0.12681 0.50717 0.64727 0.0
C819 C 0.14024 0.52607 0.62713 0.0
C820 C 0.0974 0.5479 0.66378 0.0
C821 C 0.11144 0.56594 0.64376 0.0
N822 N 0.18239 0.61405 0.58483 0.0
C823 C 0.22528 0.64574 0.58859 0.0
C824 C 0.21336 0.66635 0.56942 0.0
C825 C 0.18674 0.65843 0.55562 0.0
C826 C 0.17193 0.63194 0.56323 0.0
C827 C 0.20943 0.62071 0.59648 0.0
H828 H 0.15126 0.62695 0.55273 0.0
H829 H 0.21885 0.60815 0.61368 0.0
H830 H 0.15705 0.51724 0.61311 0.0
H831 H 0.10551 0.58889 0.64358 0.0
C832 C 0.12436 0.64396 0.62445 0.0
C833 C 0.19865 0.58139 0.66831 0.0
C834 C 0.1008 0.56454 0.55854 0.0
C835 C 0.20289 0.53936 0.57252 0.0
H836 H 0.18453 0.63289 0.70262 0.0
H837 H 0.14567 0.66864 0.67771 0.0
H838 H 0.06909 0.6547 0.59602 0.0
H839 H 0.05428 0.60947 0.56293 0.0
H840 H 0.12397 0.52665 0.51361 0.0
H841 H 0.18108 0.5148 0.51979 0.0
H842 H 0.25032 0.51824 0.60792 0.0
H843 H 0.24555 0.53839 0.66141 0.0
H844 H 0.13346 0.48426 0.64816 0.0
H845 H 0.08135 0.55772 0.67816 0.0
H846 H 0.2464 0.64947 0.5989 0.0
H847 H 0.17663 0.6731 0.54011 0.0
H848 H 0.23969 0.69427 0.09105 0.0
H849 H 0.20376 0.7246 0.1714 0.0
H850 H 0.27419 0.73547 0.09063 0.0
H851 H 0.23871 0.7656 0.17186 0.0
H852 H 0.29523 0.84941 0.1621 0.0
H853 H 0.25937 0.80916 0.1617 0.0
H854 H 0.31386 0.76234 0.10056 0.0
H855 H 0.348 0.8035 0.09987 0.0
C856 C 0.2395 0.7094 0.1091 0.0
C857 C 0.21908 0.705 0.13171 0.0
C858 C 0.25967 0.73351 0.10899 0.0
C859 C 0.26062 0.7548 0.1315 0.0
C860 C 0.2396 0.75052 0.15385 0.0
C861 C 0.21934 0.72647 0.15382 0.0
C862 C 0.29983 0.83022 0.14901 0.0
C863 C 0.32621 0.82941 0.13281 0.0
C864 C 0.27897 0.80666 0.14866 0.0
C865 C 0.28305 0.78091 0.13163 0.0
C866 C 0.30898 0.78086 0.11441 0.0
C867 C 0.32959 0.80457 0.11464 0.0
H868 H 0.80627 0.19353 0.17054 0.0
H869 H 0.83324 0.22742 0.08823 0.0
H870 H 0.7648 0.22786 0.17136 0.0
H871 H 0.79151 0.26134 0.08826 0.0
H872 H 0.72342 0.33516 0.09927 0.0
H873 H 0.76501 0.30137 0.09896 0.0
H874 H 0.72028 0.24655 0.16126 0.0
H875 H 0.67959 0.28164 0.16245 0.0
C876 C 0.80351 0.2085 0.15258 0.0
C877 C 0.82415 0.20792 0.12978 0.0
C878 C 0.77921 0.22837 0.15284 0.0
C879 C 0.77387 0.2486 0.13007 0.0
C880 C 0.79436 0.24737 0.10691 0.0
C881 C 0.81875 0.22759 0.10677 0.0
C882 C 0.72278 0.31649 0.11375 0.0
C883 C 0.6984 0.3128 0.13246 0.0
C884 C 0.74677 0.29626 0.11311 0.0
C885 C 0.74745 0.2705 0.13048 0.0
C886 C 0.72216 0.26608 0.14807 0.0
C887 C 0.69833 0.28652 0.14882 0.0
H888 H 0.22514 0.83585 0.41733 0.0
H889 H 0.18966 0.80522 0.33683 0.0
H890 H 0.25913 0.7944 0.41846 0.0
H891 H 0.22389 0.76369 0.33728 0.0
H892 H 0.28023 0.68006 0.34736 0.0
H893 H 0.24485 0.72052 0.34712 0.0
H894 H 0.29824 0.76658 0.40985 0.0
H895 H 0.33219 0.72525 0.41093 0.0
C896 C 0.22506 0.8207 0.39929 0.0
C897 C 0.20499 0.82517 0.37637 0.0
C898 C 0.24487 0.79632 0.3999 0.0
C899 C 0.24577 0.77476 0.37764 0.0
C900 C 0.22492 0.779 0.35509 0.0
C901 C 0.20501 0.80332 0.35463 0.0
C902 C 0.28473 0.69906 0.36076 0.0
C903 C 0.3107 0.6995 0.37768 0.0
C904 C 0.26409 0.72279 0.36072 0.0
C905 C 0.26794 0.74841 0.378 0.0
C906 C 0.29345 0.74814 0.39586 0.0
C907 C 0.31384 0.72425 0.39603 0.0
H908 H 0.85078 0.29444 0.34619 0.0
H909 H 0.8066 0.34488 0.4114 0.0
H910 H 0.81049 0.25868 0.34626 0.0
H911 H 0.76537 0.31079 0.41053 0.0
H912 H 0.69715 0.2366 0.41887 0.0
H913 H 0.73837 0.27105 0.4195 0.0
H914 H 0.76695 0.23783 0.33686 0.0
H915 H 0.72564 0.20324 0.33682 0.0
C916 C 0.83195 0.29856 0.35992 0.0
C917 C 0.83167 0.32428 0.37713 0.0
C918 C 0.80836 0.27774 0.36009 0.0
C919 C 0.78306 0.28113 0.37793 0.0
C920 C 0.78352 0.30641 0.39606 0.0
C921 C 0.80727 0.32701 0.39599 0.0
C922 C 0.71185 0.23698 0.40049 0.0
C923 C 0.70688 0.21731 0.37734 0.0
C924 C 0.73602 0.2571 0.40076 0.0
C925 C 0.75689 0.25872 0.3779 0.0
C926 C 0.75212 0.23833 0.35507 0.0
C927 C 0.72795 0.2182 0.35488 0.0
H928 H 0.83465 0.28973 0.89712 0.0
H929 H 0.8307 0.30962 0.98809 0.0
H930 H 0.78865 0.26392 0.9001 0.0
H931 H 0.78209 0.28543 0.99056 0.0
H932 H 0.70433 0.21574 0.98697 0.0
H933 H 0.75276 0.24021 0.98897 0.0
H934 H 0.73954 0.27223 0.9023 0.0
H935 H 0.69378 0.24609 0.89931 0.0
C936 C 0.8241 0.2886 0.91801 0.0
C937 C 0.83729 0.30152 0.94249 0.0
C938 C 0.79692 0.27413 0.91958 0.0
C939 C 0.78084 0.27267 0.94549 0.0
C940 C 0.79367 0.28579 0.97017 0.0
C941 C 0.82149 0.30005 0.96868 0.0
C942 C 0.71199 0.2277 0.96823 0.0
C943 C 0.69438 0.22897 0.94311 0.0
C944 C 0.73972 0.24213 0.96951 0.0
C945 C 0.75068 0.25822 0.94571 0.0
C946 C 0.73274 0.25966 0.92097 0.0
C947 C 0.70566 0.245 0.91951 0.0
H948 H 0.29035 0.69302 0.89995 0.0
H949 H 0.31044 0.69646 0.99092 0.0
H950 H 0.26558 0.73948 0.90305 0.0
H951 H 0.28744 0.74557 0.99349 0.0
H952 H 0.21959 0.82493 0.98973 0.0
H953 H 0.24292 0.77603 0.99189 0.0
H954 H 0.27553 0.78821 0.90528 0.0
H955 H 0.25031 0.83429 0.90202 0.0
C956 C 0.28946 0.70354 0.92087 0.0
C957 C 0.30212 0.69009 0.94532 0.0
C958 C 0.27564 0.73098 0.92251 0.0
C959 C 0.27467 0.74708 0.94844 0.0
C960 C 0.28748 0.73398 0.97309 0.0
C961 C 0.30106 0.70587 0.97155 0.0
C962 C 0.23142 0.81696 0.97103 0.0
C963 C 0.2331 0.83437 0.94584 0.0
C964 C 0.2452 0.78895 0.97241 0.0
C965 C 0.26107 0.77756 0.94866 0.0
C966 C 0.26305 0.79534 0.9239 0.0
C967 C 0.24896 0.82265 0.92231 0.0
H968 H 0.6976 0.304 0.52179 0.0
H969 H 0.69817 0.29402 0.61431 0.0
H970 H 0.74576 0.27888 0.51938 0.0
H971 H 0.74381 0.26743 0.61178 0.0
H972 H 0.83785 0.24656 0.60985 0.0
H973 H 0.79286 0.27377 0.60638 0.0
H974 H 0.7743 0.23353 0.52397 0.0
H975 H 0.82207 0.2079 0.52606 0.0
C976 C 0.70778 0.29647 0.54157 0.0
C977 C 0.69339 0.30092 0.5682 0.0
C978 C 0.73532 0.28167 0.54018 0.0
C979 C 0.74929 0.27102 0.56539 0.0
C980 C 0.73466 0.27563 0.59179 0.0
C981 C 0.70774 0.29058 0.5932 0.0
C982 C 0.82502 0.24382 0.59037 0.0
C983 C 0.83467 0.22511 0.56795 0.0
C984 C 0.79833 0.25916 0.58872 0.0
C985 C 0.77908 0.25578 0.56512 0.0
C986 C 0.78838 0.23702 0.54252 0.0
C987 C 0.81576 0.22193 0.5439 0.0
H988 H 0.21634 0.70438 0.52173 0.0
H989 H 0.24356 0.69737 0.61072 0.0
H990 H 0.2408 0.75276 0.51885 0.0
H991 H 0.2697 0.74304 0.60705 0.0
H992 H 0.28727 0.83787 0.6096 0.0
H993 H 0.2612 0.79208 0.60715 0.0
H994 H 0.28619 0.78204 0.51787 0.0
H995 H 0.31056 0.83056 0.5196 0.0
C996 C 0.2276 0.71282 0.54059 0.0
C997 C 0.22803 0.69623 0.56635 0.0
C998 C 0.24202 0.74052 0.53883 0.0
C999 C 0.25725 0.75242 0.56278 0.0
C1000 C 0.25781 0.7355 0.58819 0.0
C1001 C 0.24315 0.70848 0.5901 0.0
C1002 C 0.28683 0.82665 0.58902 0.0
C1003 C 0.30078 0.83887 0.56462 0.0
C1004 C 0.27222 0.79957 0.58781 0.0
C1005 C 0.2717 0.78254 0.56244 0.0
C1006 C 0.28582 0.79438 0.53785 0.0
C1007 C 0.30019 0.82215 0.53893 0.0
H1008 H 0.01952 0.44813 0.31687 0.0
H1009 H 0.95526 0.45622 0.2489 0.0
H1010 H 0.05341 0.48034 0.29013 0.0
H1011 H 0.98855 0.48948 0.22275 0.0
H1012 H 0.04114 0.57684 0.20752 0.0
H1013 H 1.01009 0.54212 0.23174 0.0
H1014 H 0.08445 0.48495 0.24408 0.0
H1015 H 0.11545 0.51933 0.21816 0.0
C1016 C 1.01275 0.45633 0.29598 0.0
C1017 C 0.98462 0.44897 0.28496 0.0
C1018 C 0.0322 0.47505 0.28066 0.0
C1019 C 0.02392 0.4878 0.25412 0.0
C1020 C 0.99581 0.48037 0.24312 0.0
C1021 C 0.9767 0.46111 0.25808 0.0
C1022 C 0.05078 0.5557 0.21182 0.0
C1023 C 0.08024 0.54874 0.20371 0.0
C1024 C 0.03276 0.53596 0.22741 0.0
C1025 C 0.04388 0.50928 0.23823 0.0
C1026 C 0.07431 0.50424 0.23455 0.0
C1027 C 0.09212 0.52379 0.21824 0.0
H1028 H 0.95376 0.06313 0.23877 0.0
H1029 H 0.01745 0.07518 0.17088 0.0
H1030 H 0.98757 0.02918 0.26328 0.0
H1031 H 0.05205 0.04238 0.1963 0.0
H1032 H 0.1135 1.00493 0.27232 0.0
H1033 H 0.08234 0.03855 0.24517 0.0
H1034 H 1.01118 0.9762 0.24963 0.0
H1035 H 0.0428 0.9424 0.27544 0.0
C1036 C 0.97508 0.05875 0.22913 0.0
C1037 C 0.98264 0.07208 0.20269 0.0
C1038 C 0.99453 0.03919 0.24322 0.0
C1039 C 0.0227 0.03281 0.23188 0.0
C1040 C 0.03069 0.04677 0.20586 0.0
C1041 C 1.01084 0.06573 0.19131 0.0
C1042 C 0.09054 0.99921 0.27017 0.0
C1043 C 0.0789 0.97335 0.28318 0.0
C1044 C 0.07284 0.01823 0.25317 0.0
C1045 C 0.04312 1.01146 0.24722 0.0
C1046 C 0.03305 0.98353 0.25582 0.0
C1047 C 0.05109 0.96439 0.27206 0.0
H1048 H 0.51825 0.07609 0.33969 0.0
H1049 H 0.57114 0.08319 0.26304 0.0
H1050 H 0.4836 0.04362 0.31416 0.0
H1051 H 0.53689 0.05056 0.23738 0.0
H1052 H 0.45691 1.01067 0.1903 0.0
H1053 H 0.48904 0.04526 0.21613 0.0
H1054 H 0.47698 0.99503 0.29422 0.0
H1055 H 0.44459 0.96073 0.26816 0.0
C1056 C 0.52238 0.07084 0.31728 0.0
C1057 C 0.54747 0.08252 0.30344 0.0
C1058 C 0.50259 0.05192 0.30259 0.0
C1059 C 0.50704 0.04408 0.2734 0.0
C1060 C 0.53212 0.05612 0.25958 0.0
C1061 C 0.55198 0.07485 0.27436 0.0
C1062 C 0.46081 1.00727 0.21309 0.0
C1063 C 0.44772 0.98306 0.22717 0.0
C1064 C 0.4796 0.02699 0.22796 0.0
C1065 C 0.48603 0.02331 0.25757 0.0
C1066 C 0.47253 0.99917 0.27167 0.0
C1067 C 0.45389 0.97934 0.2567 0.0
H1068 H 0.56473 0.44155 0.25607 0.0
H1069 H 0.51061 0.45173 0.18053 0.0
H1070 H 0.53097 0.47323 0.28345 0.0
H1071 H 0.47661 0.48344 0.20771 0.0
H1072 H 0.45074 0.51167 0.33242 0.0
H1073 H 0.48254 0.47775 0.30523 0.0
H1074 H 0.47196 0.53185 0.22946 0.0
H1075 H 0.44018 0.56553 0.25684 0.0
C1076 C 0.5454 0.45035 0.24537 0.0
C1077 C 0.54037 0.44383 0.21609 0.0
C1078 C 0.52586 0.46854 0.26112 0.0
C1079 C 0.50069 0.48126 0.24809 0.0
C1080 C 0.49571 0.47455 0.21871 0.0
C1081 C 0.51511 0.45609 0.20306 0.0
C1082 C 0.45503 0.51613 0.30988 0.0
C1083 C 0.44263 0.54128 0.29684 0.0
C1084 C 0.47354 0.49677 0.29423 0.0
C1085 C 0.48019 0.50171 0.26484 0.0
C1086 C 0.46733 0.52678 0.2518 0.0
C1087 C 0.44908 0.54626 0.26754 0.0
H1088 H 0.04833 0.51745 0.68561 0.0
H1089 H 0.13359 0.47811 0.70157 0.0
H1090 H 0.02899 0.49417 0.72891 0.0
H1091 H 0.11387 0.45424 0.74488 0.0
H1092 H 0.0528 0.39684 0.80656 0.0
H1093 H 0.07595 0.41682 0.76302 0.0
H1094 H 0.03818 0.5021 0.78145 0.0
H1095 H 0.01567 0.4825 0.82502 0.0
C1096 C 0.06296 0.5037 0.69826 0.0
C1097 C 0.09268 0.50006 0.69023 0.0
C1098 C 0.05185 0.49038 0.72315 0.0
C1099 C 0.07003 0.47279 0.74068 0.0
C1100 C 0.0993 0.46769 0.73186 0.0
C1101 C 0.11054 0.48125 0.70695 0.0
C1102 C 0.04997 0.42001 0.80167 0.0
C1103 C 0.03202 0.43794 0.81923 0.0
C1104 C 0.06312 0.4314 0.77661 0.0
C1105 C 0.05843 0.4609 0.76846 0.0
C1106 C 0.04163 0.47908 0.7867 0.0
C1107 C 0.02873 0.46782 0.81175 0.0
H1108 H 0.09184 0.06477 0.83574 0.0
H1109 H 0.10718 0.98543 0.7866 0.0
H1110 H 0.07095 0.08837 0.79275 0.0
H1111 H 0.08694 1.00887 0.74387 0.0
H1112 H 1.01343 0.04388 0.6861 0.0
H1113 H 0.03926 0.02301 0.72718 0.0
H1114 H 0.07998 0.10742 0.7441 0.0
H1115 H 0.0531 0.12866 0.70323 0.0
C1116 C 0.09108 0.05252 0.81571 0.0
C1117 C 0.10062 0.02303 0.81476 0.0
C1118 C 0.0792 0.06604 0.79103 0.0
C1119 C 0.07681 0.05041 0.76484 0.0
C1120 C 0.08764 0.02138 0.76375 0.0
C1121 C 0.09929 1.00791 0.78831 0.0
C1122 C 0.02794 0.05803 0.69849 0.0
C1123 C 0.03106 0.08799 0.69137 0.0
C1124 C 0.04302 0.04598 0.72199 0.0
C1125 C 0.0618 0.06348 0.7391 0.0
C1126 C 0.06549 0.09335 0.73162 0.0
C1127 C 0.05039 0.10543 0.70795 0.0
H1128 H 0.51552 0.04754 0.82639 0.0
H1129 H 0.47669 0.13243 0.80826 0.0
H1130 H 0.4911 0.02682 0.78444 0.0
H1131 H 0.45103 0.11129 0.76661 0.0
H1132 H 0.44151 0.06976 0.67455 0.0
H1133 H 0.46097 0.0929 0.71843 0.0
H1134 H 0.44496 1.01227 0.76544 0.0
H1135 H 0.42634 0.98925 0.72177 0.0
C1136 C 0.50146 0.06175 0.81361 0.0
C1137 C 0.49825 0.09173 0.82069 0.0
C1138 C 0.48715 0.04976 0.7896 0.0
C1139 C 0.469 0.06731 0.77193 0.0
C1140 C 0.46508 0.09716 0.77946 0.0
C1141 C 0.47947 0.1092 0.8036 0.0
C1142 C 0.44202 0.05715 0.69436 0.0
C1143 C 0.43293 0.0275 0.69452 0.0
C1144 C 0.45305 0.07041 0.71957 0.0
C1145 C 0.45498 0.05437 0.74554 0.0
C1146 C 0.44464 0.02513 0.74579 0.0
C1147 C 0.4339 1.01189 0.72069 0.0
H1148 H 0.51005 0.48231 0.6803 0.0
H1149 H 0.47653 0.39579 0.70114 0.0
H1150 H 0.48608 0.50245 0.7227 0.0
H1151 H 0.45115 0.4163 0.74314 0.0
H1152 H 0.44159 0.45858 0.83465 0.0
H1153 H 0.46086 0.43577 0.79055 0.0
H1154 H 0.44046 0.51521 0.74318 0.0
H1155 H 0.42224 0.53796 0.78714 0.0
C1156 C 0.49727 0.46758 0.69378 0.0
C1157 C 0.49544 0.43735 0.68727 0.0
C1158 C 0.48317 0.47923 0.71806 0.0
C1159 C 0.46656 0.46108 0.73658 0.0
C1160 C 0.46401 0.43093 0.72965 0.0
C1161 C 0.47822 0.41923 0.70528 0.0
C1162 C 0.44111 0.47098 0.81472 0.0
C1163 C 0.43093 0.50025 0.8145 0.0
C1164 C 0.45203 0.45791 0.78937 0.0
C1165 C 0.4527 0.47374 0.7632 0.0
C1166 C 0.44118 0.50254 0.76294 0.0
C1167 C 0.43061 0.51561 0.78819 0.0
H1168 H 0.23341 0.69159 0.20789 0.0
H1169 H 0.17358 0.69399 0.28018 0.0
H1170 H 0.24866 0.74209 0.21832 0.0
H1171 H 0.19031 0.74394 0.29163 0.0
H1172 H 0.23 0.83453 0.30351 0.0
H1173 H 0.24695 0.7845 0.29361 0.0
H1174 H 0.19122 0.78108 0.21834 0.0
H1175 H 0.17288 0.83058 0.22916 0.0
C1176 C 0.22488 0.70229 0.22704 0.0
C1177 C 0.20196 0.68929 0.243 0.0
C1178 C 0.2336 0.73118 0.23289 0.0
C1179 C 0.22048 0.74672 0.25557 0.0
C1180 C 0.20086 0.73212 0.27413 0.0
C1181 C 0.19129 0.70364 0.26764 0.0
C1182 C 0.22243 0.8236 0.28409 0.0
C1183 C 0.19975 0.83597 0.26734 0.0
C1184 C 0.23212 0.79497 0.27852 0.0
C1185 C 0.22012 0.77908 0.25546 0.0
C1186 C 0.20083 0.79316 0.2362 0.0
C1187 C 0.19035 0.82138 0.24233 0.0
H1188 H 0.83687 0.23216 0.2041 0.0
H1189 H 0.83053 0.17418 0.27755 0.0
H1190 H 0.7876 0.25123 0.21439 0.0
H1191 H 0.78182 0.19444 0.28865 0.0
H1192 H 0.69322 0.18436 0.2251 0.0
H1193 H 0.74378 0.19935 0.21409 0.0
H1194 H 0.74602 0.25169 0.29163 0.0
H1195 H 0.69504 0.23815 0.3018 0.0
C1196 C 0.82561 0.22472 0.22336 0.0
C1197 C 0.83708 0.20135 0.2398 0.0
C1198 C 0.79743 0.23562 0.22914 0.0
C1199 C 0.78104 0.22404 0.25207 0.0
C1200 C 0.79428 0.20375 0.27091 0.0
C1201 C 0.82203 0.19214 0.26459 0.0
C1202 C 0.70391 0.2006 0.2387 0.0
C1203 C 0.69061 0.20979 0.26446 0.0
C1204 C 0.73278 0.20916 0.23247 0.0
C1205 C 0.74871 0.22632 0.25231 0.0
C1206 C 0.73415 0.23844 0.27613 0.0
C1207 C 0.70494 0.23077 0.28181 0.0
H1208 H 0.29095 0.69219 0.30133 0.0
H1209 H 0.34569 0.69392 0.22552 0.0
H1210 H 0.27842 0.74383 0.29422 0.0
H1211 H 0.33077 0.745 0.21662 0.0
H1212 H 0.35101 0.83212 0.28273 0.0
H1213 H 0.33343 0.78213 0.29235 0.0
H1214 H 0.27739 0.78651 0.2173 0.0
H1215 H 0.29288 0.83736 0.20936 0.0
C1216 C 0.29889 0.70316 0.28227 0.0
C1217 C 0.3198 0.68943 0.26444 0.0
C1218 C 0.29158 0.73268 0.27812 0.0
C1219 C 0.30362 0.7482 0.25488 0.0
C1220 C 0.32105 0.73322 0.23458 0.0
C1221 C 0.32951 0.70406 0.23957 0.0
C1222 C 0.33365 0.823 0.26934 0.0
C1223 C 0.32401 0.8381 0.24469 0.0
C1224 C 0.32364 0.79446 0.27478 0.0
C1225 C 0.30449 0.78055 0.25524 0.0
C1226 C 0.29218 0.79683 0.23261 0.0
C1227 C 0.30124 0.82584 0.22796 0.0
H1228 H 0.69515 0.34544 0.28597 0.0
H1229 H 0.69405 0.2951 0.20731 0.0
H1230 H 0.74684 0.33161 0.29355 0.0
H1231 H 0.7462 0.28359 0.21327 0.0
H1232 H 0.83381 0.35565 0.22713 0.0
H1233 H 0.78372 0.3382 0.2173 0.0
H1234 H 0.78911 0.27985 0.29049 0.0
H1235 H 0.83993 0.2952 0.29852 0.0
C1236 C 0.7056 0.3304 0.27098 0.0
C1237 C 0.69089 0.32154 0.24583 0.0
C1238 C 0.7351 0.32259 0.2752 0.0
C1239 C 0.7503 0.30671 0.25385 0.0
C1240 C 0.73484 0.29557 0.23013 0.0
C1241 C 0.70505 0.3022 0.22668 0.0
C1242 C 0.82487 0.33782 0.23997 0.0
C1243 C 0.84027 0.32734 0.26412 0.0
C1244 C 0.79628 0.3279 0.23445 0.0
C1245 C 0.78265 0.30804 0.25344 0.0
C1246 C 0.79919 0.2951 0.27554 0.0
C1247 C 0.82822 0.30406 0.28023 0.0
H1248 H 0.93159 0.2535 0.66897 0.0
H1249 H 0.96171 0.184 0.725 0.0
H1250 H 0.93025 0.28771 0.70985 0.0
H1251 H 0.96032 0.21806 0.76611 0.0
H1252 H 0.92588 0.27944 0.83709 0.0
H1253 H 0.9243 0.24596 0.79568 0.0
H1254 H 0.96553 0.31277 0.74296 0.0
H1255 H 0.96701 0.34617 0.78465 0.0
C1256 C 0.93803 0.24568 0.69012 0.0
C1257 C 0.94719 0.21635 0.69392 0.0
C1258 C 0.93734 0.26521 0.71347 0.0
C1259 C 0.94534 0.25569 0.74123 0.0
C1260 C 0.95385 0.22606 0.74506 0.0
C1261 C 0.95479 0.2066 0.7216 0.0
C1262 C 0.93443 0.28688 0.81654 0.0
C1263 C 0.94676 0.31516 0.81392 0.0
C1264 C 0.93372 0.26773 0.79292 0.0
C1265 C 0.94503 0.27657 0.76606 0.0
C1266 C 0.95651 0.30533 0.7633 0.0
C1267 C 0.95743 0.32442 0.78707 0.0
H1268 H 0.33012 0.9901 0.71071 0.0
H1269 H 0.29875 0.90445 0.68439 0.0
H1270 H 0.29655 0.98897 0.75229 0.0
H1271 H 0.26596 0.90281 0.72633 0.0
H1272 H 0.23823 0.90188 0.82415 0.0
H1273 H 0.27122 0.90207 0.78232 0.0
H1274 H 0.23923 0.98837 0.75875 0.0
H1275 H 0.20548 0.98767 0.80018 0.0
C1276 C 0.3164 0.97086 0.71418 0.0
C1277 C 0.31742 0.94712 0.69475 0.0
C1278 C 0.29707 0.97028 0.73775 0.0
C1279 C 0.27866 0.94578 0.74254 0.0
C1280 C 0.28009 0.92184 0.72334 0.0
C1281 C 0.29898 0.92267 0.69949 0.0
C1282 C 0.23774 0.92053 0.80958 0.0
C1283 C 0.21882 0.94446 0.81492 0.0
C1284 C 0.25674 0.92074 0.7858 0.0
C1285 C 0.25782 0.94525 0.76731 0.0
C1286 C 0.23898 0.96926 0.77274 0.0
C1287 C 0.21954 0.96879 0.79622 0.0
H1288 H 0.59675 0.25676 0.84154 0.0
H1289 H 0.56708 0.18647 0.78608 0.0
H1290 H 0.59811 0.2905 0.80035 0.0
H1291 H 0.5686 0.22006 0.74462 0.0
H1292 H 0.6037 0.28094 0.67336 0.0
H1293 H 0.60509 0.24795 0.71511 0.0
H1294 H 0.56251 0.31487 0.76669 0.0
H1295 H 0.56114 0.34776 0.72464 0.0
C1296 C 0.59043 0.24865 0.82045 0.0
C1297 C 0.58137 0.21923 0.81691 0.0
C1298 C 0.59114 0.26792 0.79691 0.0
C1299 C 0.5833 0.25804 0.76921 0.0
C1300 C 0.57493 0.22833 0.76564 0.0
C1301 C 0.57393 0.20913 0.78928 0.0
C1302 C 0.5948 0.28852 0.69374 0.0
C1303 C 0.58211 0.31668 0.69591 0.0
C1304 C 0.59541 0.26964 0.71755 0.0
C1305 C 0.58367 0.27865 0.74418 0.0
C1306 C 0.57185 0.3073 0.74653 0.0
C1307 C 0.571 0.32612 0.72255 0.0
H1308 H 0.34728 0.56259 0.78601 0.0
H1309 H 0.27935 0.60215 0.83821 0.0
H1310 H 0.31444 0.56446 0.74388 0.0
H1311 H 0.2464 0.60404 0.79637 0.0
H1312 H 0.18597 0.56684 0.724 0.0
H1313 H 0.21938 0.56788 0.76568 0.0
H1314 H 0.28946 0.60052 0.71124 0.0
H1315 H 0.2559 0.59957 0.66982 0.0
C1316 C 0.32539 0.57191 0.78828 0.0
C1317 C 0.31563 0.58203 0.81517 0.0
C1318 C 0.30661 0.57304 0.76427 0.0
C1319 C 0.27768 0.58416 0.76685 0.0
C1320 C 0.26833 0.59492 0.79376 0.0
C1321 C 0.28717 0.59402 0.81762 0.0
C1322 C 0.2085 0.57428 0.72114 0.0
C1323 C 0.21859 0.58271 0.69381 0.0
C1324 C 0.2276 0.57501 0.74491 0.0
C1325 C 0.25716 0.58411 0.74173 0.0
C1326 C 0.267 0.59297 0.71434 0.0
C1327 C 0.24784 0.59251 0.69069 0.0
H1328 H 0.0387 0.57277 0.06147 0.0
H1329 H 0.11577 0.52966 0.02658 0.0
H1330 H 1.00714 0.54032 0.03315 0.0
H1331 H 0.08434 0.49609 0.99987 0.0
H1332 H 0.02344 0.45093 0.93648 0.0
H1333 H 0.05317 0.4881 0.96125 0.0
H1334 H 0.98759 0.49284 0.02873 0.0
H1335 H 0.95755 0.45641 1.003 0.0
C1336 C 0.0491 0.55655 0.0477 0.0
C1337 C 0.08016 0.55421 0.04669 0.0
C1338 C 0.0308 0.53743 0.03165 0.0
C1339 C 0.04279 0.51508 0.01399 0.0
C1340 C 0.07386 0.51302 0.01272 0.0
C1341 C 0.09212 0.53222 0.0286 0.0
C1342 C 0.01519 0.46041 0.95635 0.0
C1343 C 0.98788 0.45114 0.96746 0.0
C1344 C 0.03245 0.48153 0.97089 0.0
C1345 C 0.02324 0.49376 0.99742 0.0
C1346 C 0.99553 0.48461 0.00826 0.0
C1347 C 0.97816 0.46364 0.99351 0.0
H1348 H 0.07757 0.01595 0.93686 0.0
H1349 H 0.08078 0.95263 0.00577 0.0
H1350 H 0.03977 0.04388 0.96269 0.0
H1351 H 0.04386 0.98096 0.03253 0.0
H1352 H 0.96253 0.02701 0.06807 0.0
H1353 H 0.99546 0.99698 0.0389 0.0
H1354 H 0.03173 0.07586 1.00066 0.0
H1355 H 0.99747 0.10566 0.02826 0.0
C1356 C 0.06987 1.00787 0.9575 0.0
C1357 C 0.08174 0.98182 0.96902 0.0
C1358 C 0.04842 0.02411 0.97262 0.0
C1359 C 0.03847 0.01511 1.00011 0.0
C1360 C 0.05026 0.98864 0.01137 0.0
C1361 C 0.07154 0.97227 0.99604 0.0
C1362 C 0.97705 0.03807 0.05305 0.0
C1363 C 0.97695 0.06912 0.05088 0.0
C1364 C 0.99648 0.02069 0.0365 0.0
C1365 C 0.01676 0.03363 0.01719 0.0
C1366 C 0.01641 0.06466 0.0148 0.0
C1367 C 0.99685 0.082 0.03118 0.0
H1368 H 0.43493 0.97145 0.02372 0.0
H1369 H 0.50405 0.98087 0.08703 0.0
H1370 H 0.46363 1.00145 0.99004 0.0
H1371 H 0.53108 1.01262 0.05514 0.0
H1372 H 0.5859 0.06163 0.99225 0.0
H1373 H 0.56038 0.02293 0.01829 0.0
H1374 H 0.47876 0.04719 0.97609 0.0
H1375 H 0.50548 0.08375 0.94781 0.0
C1376 C 0.45622 0.97977 0.03053 0.0
C1377 C 0.4666 0.97392 0.05858 0.0
C1378 C 0.47267 0.99756 0.01127 0.0
C1379 C 0.50001 1.01032 0.01945 0.0
C1380 C 0.51064 1.00338 0.0472 0.0
C1381 C 0.49457 0.98533 0.06606 0.0
C1382 C 0.56284 0.05778 0.98749 0.0
C1383 C 0.54813 0.07527 0.96703 0.0
C1384 C 0.5477 0.03596 1.00323 0.0
C1385 C 0.5169 0.03154 1.00005 0.0
C1386 C 0.50234 0.04903 0.97925 0.0
C1387 C 0.5177 0.07032 0.963 0.0
H1388 H 0.47134 0.52354 0.93853 0.0
H1389 H 0.43236 0.55843 0.01595 0.0
H1390 H 0.50734 0.49596 0.96762 0.0
H1391 H 0.46797 0.53085 0.04515 0.0
H1392 H 0.50787 0.4474 0.08655 0.0
H1393 H 0.47624 0.47864 0.05704 0.0
H1394 H 0.55013 0.49908 1.00195 0.0
H1395 H 0.58198 0.46748 0.03161 0.0
C1396 C 0.47083 0.52568 0.96177 0.0
C1397 C 0.44892 0.54301 0.97495 0.0
C1398 C 0.49143 0.50986 0.9785 0.0
C1399 C 0.49048 0.51074 0.00889 0.0
C1400 C 0.46919 0.52911 0.0219 0.0
C1401 C 0.44888 0.54514 0.00519 0.0
C1402 C 0.51748 0.45838 0.06807 0.0
C1403 C 0.54762 0.45461 0.06152 0.0
C1404 C 0.49931 0.47664 0.05125 0.0
C1405 C 0.51048 0.49164 0.02701 0.0
C1406 C 0.54061 0.48784 0.02031 0.0
C1407 C 0.55897 0.46983 0.03747 0.0
H1408 H 0.02856 0.96931 0.43369 0.0
H1409 H 0.09913 0.9671 0.49596 0.0
H1410 H 1.00009 1.00075 0.46466 0.0
H1411 H 0.06921 0.99696 0.52894 0.0
H1412 H 0.02406 0.07954 0.56743 0.0
H1413 H 0.05189 0.04218 0.54128 0.0
H1414 H 0.97102 1.01286 0.50066 0.0
H1415 H 0.94447 0.05246 0.52415 0.0
C1416 C 0.03786 0.9751 0.45446 0.0
C1417 C 0.06664 0.96595 0.46183 0.0
C1418 C 0.02109 0.99308 0.47274 0.0
C1419 C 0.03184 1.00221 0.49986 0.0
C1420 C 0.06 0.99139 0.50814 0.0
C1421 C 0.07716 0.97366 0.48937 0.0
C1422 C 1.01227 0.06487 0.55302 0.0
C1423 C 0.98172 0.06872 0.54866 0.0
C1424 C 0.02828 0.04307 0.53802 0.0
C1425 C 1.01427 0.0239 0.51825 0.0
C1426 C 0.98335 0.02718 0.51488 0.0
C1427 C 0.96758 0.04955 0.52925 0.0
H1428 H 0.53523 0.11287 0.47963 0.0
H1429 H 0.56786 0.03481 0.4369 0.0
H1430 H 0.50112 0.08287 0.50717 0.0
H1431 H 0.53514 1.00452 0.466 0.0
H1432 H 0.45067 0.95987 0.50061 0.0
H1433 H 0.487 0.98861 0.47349 0.0
H1434 H 0.49309 0.05022 0.5444 0.0
H1435 H 0.45583 0.02191 0.57059 0.0
C1436 C 0.53538 0.0893 0.47603 0.0
C1437 C 0.55463 0.07668 0.45554 0.0
C1438 C 0.5159 0.07181 0.49238 0.0
C1439 C 0.51495 0.04086 0.48921 0.0
C1440 C 0.53456 0.02817 0.46907 0.0
C1441 C 0.5539 0.0457 0.45254 0.0
C1442 C 0.46019 0.97933 0.51046 0.0
C1443 C 0.4507 0.98838 0.53791 0.0
C1444 C 0.48116 0.99594 0.49493 0.0
C1445 C 0.49339 0.02216 0.5064 0.0
C1446 C 0.4841 0.03068 0.53427 0.0
C1447 C 0.46295 0.01421 0.5496 0.0
H1448 H 0.57364 0.45164 0.50247 0.0
H1449 H 0.50695 0.45032 0.56839 0.0
H1450 H 0.54437 0.48702 0.47467 0.0
H1451 H 0.47801 0.48654 0.54158 0.0
H1452 H 0.41662 0.52621 0.47432 0.0
H1453 H 0.44728 0.4935 0.50271 0.0
H1454 H 0.52544 0.53415 0.46725 0.0
H1455 H 0.49462 0.56561 0.43724 0.0
C1456 C 0.55301 0.45955 0.51135 0.0
C1457 C 0.54285 0.44849 0.53786 0.0
C1458 C 0.53607 0.47995 0.49541 0.0
C1459 C 0.50836 0.49001 0.50548 0.0
C1460 C 0.49872 0.47922 0.53246 0.0
C1461 C 0.51554 0.45866 0.54819 0.0
C1462 C 0.44032 0.52814 0.47214 0.0
C1463 C 0.45273 0.54883 0.45292 0.0
C1464 C 0.45816 0.50945 0.48901 0.0
C1465 C 0.48927 0.51076 0.4877 0.0
C1466 C 0.50172 0.53183 0.46887 0.0
C1467 C 0.48385 0.55041 0.45181 0.0
H1468 H 0.97256 0.43371 0.48951 0.0
H1469 H 0.98101 0.50197 0.42539 0.0
H1470 H 1.00193 0.46346 0.52303 0.0
H1471 H 1.01204 0.53012 0.45715 0.0
H1472 H 0.06024 0.58642 0.51917 0.0
H1473 H 0.02153 0.56003 0.49386 0.0
H1474 H 0.04784 0.47933 0.53635 0.0
H1475 H 0.08439 0.50691 0.56396 0.0
C1476 C 0.98049 0.45507 0.48254 0.0
C1477 C 0.97464 0.46493 0.45433 0.0
C1478 C 0.99789 0.47211 0.50167 0.0
C1479 C 1.01019 0.49952 0.49318 0.0
C1480 C 1.00313 0.50965 0.4653 0.0
C1481 C 0.98548 0.49299 0.44656 0.0
C1482 C 0.05682 0.56338 0.52419 0.0
C1483 C 0.07489 0.54916 0.5445 0.0
C1484 C 0.03501 0.54774 0.50887 0.0
C1485 C 0.03121 0.51695 0.51232 0.0
C1486 C 0.04922 0.50288 0.53302 0.0
C1487 C 0.07051 0.51873 0.54887 0.0
loop_
_geom_bond_atom_site_label_1
_geom_bond_atom_site_label_2
_geom_bond_distance
_geom_bond_site_symmetry_2
_ccdc_geom_bond_type
C0 C1 1.443 . S
C0 N4 1.376 . S
C0 C38 1.389 . S
C1 C0 1.443 . S
C1 C2 1.340 . S
C1 H41 0.951 . S
C2 C1 1.340 . S
C2 C3 1.439 . S
C2 H42 0.950 . S
C3 C2 1.439 . S
C3 N4 1.374 . S
C3 C37 1.395 . S
N4 C0 1.376 . S
N4 C3 1.374 . S
N4 Co5 2.008 . S
Co5 N4 2.008 . S
Co5 N6 1.995 . S
Co5 N11 2.008 . S
Co5 N16 1.995 . S
Co5 N21 2.282 . S
Co5 N27 2.282 . S
N6 Co5 1.995 . S
N6 C7 1.376 . S
N6 C10 1.383 . S
C7 N6 1.376 . S
C7 C8 1.446 . S
C7 C37 1.391 . S
C8 C7 1.446 . S
C8 C9 1.339 . S
C8 H43 0.949 . S
C9 C8 1.339 . S
C9 C10 1.439 . S
C9 H44 0.950 . S
C10 N6 1.383 . S
C10 C9 1.439 . S
C10 C39 1.392 . S
N11 Co5 2.008 . S
N11 C12 1.376 . S
N11 C15 1.374 . S
C12 N11 1.376 . S
C12 C13 1.443 . S
C12 C39 1.389 . S
C13 C12 1.443 . S
C13 C14 1.340 . S
C13 H45 0.951 . S
C14 C13 1.340 . S
C14 C15 1.439 . S
C14 H46 0.950 . S
C15 N11 1.374 . S
C15 C14 1.439 . S
C15 C40 1.395 . S
N16 Co5 1.995 . S
N16 C17 1.376 . S
N16 C20 1.383 . S
C17 N16 1.376 . S
C17 C18 1.446 . S
C17 C40 1.391 . S
C18 C17 1.446 . S
C18 C19 1.339 . S
C18 H47 0.949 . S
C19 C18 1.339 . S
C19 C20 1.439 . S
C19 H48 0.950 . S
C20 N16 1.383 . S
C20 C19 1.439 . S
C20 C38 1.392 . S
N21 Co5 2.282 . S
N21 C24 1.332 . S
N21 C26 1.332 . S
C22 C23 1.386 . S
C22 C25 1.388 . S
C23 C22 1.386 . S
C23 C24 1.382 . S
C23 H49 0.950 . S
C24 N21 1.332 . S
C24 C23 1.382 . S
C24 H35 0.952 . S
C25 C22 1.388 . S
C25 C26 1.382 . S
C25 H50 0.950 . S
C26 N21 1.332 . S
C26 C25 1.382 . S
C26 H36 0.948 . S
N27 Co5 2.282 . S
N27 C31 1.332 . S
N27 C32 1.332 . S
C28 C29 1.388 . S
C28 C32 1.382 . S
C28 H51 0.950 . S
C29 C28 1.388 . S
C29 C30 1.386 . S
C30 C29 1.386 . S
C30 C31 1.382 . S
C30 H52 0.950 . S
C31 N27 1.332 . S
C31 C30 1.382 . S
C31 H33 0.952 . S
C32 N27 1.332 . S
C32 C28 1.382 . S
C32 H34 0.948 . S
H33 C31 0.952 . S
H34 C32 0.948 . S
H35 C24 0.952 . S
H36 C26 0.948 . S
C37 C3 1.395 . S
C37 C7 1.391 . S
C38 C0 1.389 . S
C38 C20 1.392 . S
C39 C10 1.392 . S
C39 C12 1.389 . S
C40 C15 1.395 . S
C40 C17 1.391 . S
H41 C1 0.951 . S
H42 C2 0.950 . S
H43 C8 0.949 . S
H44 C9 0.950 . S
H45 C13 0.951 . S
H46 C14 0.950 . S
H47 C18 0.949 . S
H48 C19 0.950 . S
H49 C23 0.950 . S
H50 C25 0.950 . S
H51 C28 0.950 . S
H52 C30 0.950 . S
C53 C54 1.443 . S
C53 N57 1.376 . S
C53 C91 1.389 . S
C54 C53 1.443 . S
C54 C55 1.340 . S
C54 H94 0.951 . S
C55 C54 1.340 . S
C55 C56 1.439 . S
C55 H95 0.950 . S
C56 C55 1.439 . S
C56 N57 1.374 . S
C56 C90 1.395 . S
N57 C53 1.376 . S
N57 C56 1.374 . S
N57 Co58 2.008 . S
Co58 N57 2.008 . S
Co58 N59 1.995 . S
Co58 N64 2.008 . S
Co58 N69 1.995 . S
Co58 N74 2.282 . S
Co58 N80 2.282 . S
N59 Co58 1.995 . S
N59 C60 1.376 . S
N59 C63 1.383 . S
C60 N59 1.376 . S
C60 C61 1.446 . S
C60 C90 1.391 . S
C61 C60 1.446 . S
C61 C62 1.339 . S
C61 H96 0.949 . S
C62 C61 1.339 . S
C62 C63 1.439 . S
C62 H97 0.950 . S
C63 N59 1.383 . S
C63 C62 1.439 . S
C63 C92 1.392 . S
N64 Co58 2.008 . S
N64 C65 1.376 . S
N64 C68 1.374 . S
C65 N64 1.376 . S
C65 C66 1.443 . S
C65 C92 1.389 . S
C66 C65 1.443 . S
C66 C67 1.340 . S
C66 H98 0.951 . S
C67 C66 1.340 . S
C67 C68 1.439 . S
C67 H99 0.950 . S
C68 N64 1.374 . S
C68 C67 1.439 . S
C68 C93 1.395 . S
N69 Co58 1.995 . S
N69 C70 1.376 . S
N69 C73 1.383 . S
C70 N69 1.376 . S
C70 C71 1.446 . S
C70 C93 1.391 . S
C71 C70 1.446 . S
C71 C72 1.339 . S
C71 H100 0.949 . S
C72 C71 1.339 . S
C72 C73 1.439 . S
C72 H101 0.950 . S
C73 N69 1.383 . S
C73 C72 1.439 . S
C73 C91 1.392 . S
N74 Co58 2.282 . S
N74 C77 1.332 . S
N74 C79 1.332 . S
C75 C76 1.386 . S
C75 C78 1.388 . S
C76 C75 1.386 . S
C76 C77 1.382 . S
C76 H102 0.950 . S
C77 N74 1.332 . S
C77 C76 1.382 . S
C77 H88 0.952 . S
C78 C75 1.388 . S
C78 C79 1.382 . S
C78 H103 0.917 1_655 S
C79 N74 1.332 . S
C79 C78 1.382 . S
C79 H89 0.948 . S
N80 Co58 2.282 . S
N80 C84 1.332 . S
N80 C85 1.332 . S
C81 C82 1.388 . S
C81 C85 1.382 . S
C81 H104 0.950 . S
C82 C81 1.388 . S
C82 C83 1.386 . S
C83 C82 1.386 . S
C83 C84 1.382 . S
C83 H105 0.950 . S
C84 N80 1.332 . S
C84 C83 1.382 . S
C84 H86 0.952 . S
C85 N80 1.332 . S
C85 C81 1.382 . S
C85 H87 0.948 . S
H86 C84 0.952 . S
H87 C85 0.948 . S
H88 C77 0.952 . S
H89 C79 0.948 . S
C90 C56 1.395 . S
C90 C60 1.391 . S
C91 C53 1.389 . S
C91 C73 1.392 . S
C92 C63 1.392 . S
C92 C65 1.389 . S
C93 C68 1.395 . S
C93 C70 1.391 . S
H94 C54 0.951 . S
H95 C55 0.950 . S
H96 C61 0.949 . S
H97 C62 0.950 . S
H98 C66 0.951 . S
H99 C67 0.950 . S
H100 C71 0.949 . S
H101 C72 0.950 . S
H102 C76 0.950 . S
H103 C78 0.917 1_455 S
H104 C81 0.950 . S
H105 C83 0.950 . S
C106 C107 1.443 . S
C106 N110 1.376 . S
C106 C144 1.389 . S
C107 C106 1.443 . S
C107 C108 1.340 . S
C107 H147 0.951 . S
C108 C107 1.340 . S
C108 C109 1.439 . S
C108 H148 0.950 . S
C109 C108 1.439 . S
C109 N110 1.374 . S
C109 C143 1.395 . S
N110 C106 1.376 . S
N110 C109 1.374 . S
N110 Co111 2.008 . S
Co111 N110 2.008 . S
Co111 N112 1.995 . S
Co111 N117 2.008 . S
Co111 N122 1.995 . S
Co111 N127 2.282 . S
Co111 N133 2.282 . S
N112 Co111 1.995 . S
N112 C113 1.376 . S
N112 C116 1.383 . S
C113 N112 1.376 . S
C113 C114 1.446 . S
C113 C143 1.391 . S
C114 C113 1.446 . S
C114 C115 1.339 . S
C114 H149 0.949 . S
C115 C114 1.339 . S
C115 C116 1.439 . S
C115 H150 0.950 . S
C116 N112 1.383 . S
C116 C115 1.439 . S
C116 C145 1.392 . S
N117 Co111 2.008 . S
N117 C118 1.376 . S
N117 C121 1.374 . S
C118 N117 1.376 . S
C118 C119 1.443 . S
C118 C145 1.389 . S
C119 C118 1.443 . S
C119 C120 1.340 . S
C119 H151 0.951 . S
C120 C119 1.340 . S
C120 C121 1.439 . S
C120 H152 0.950 . S
C121 N117 1.374 . S
C121 C120 1.439 . S
C121 C146 1.395 . S
N122 Co111 1.995 . S
N122 C123 1.376 . S
N122 C126 1.383 . S
C123 N122 1.376 . S
C123 C124 1.446 . S
C123 C146 1.391 . S
C124 C123 1.446 . S
C124 C125 1.339 . S
C124 H153 0.949 . S
C125 C124 1.339 . S
C125 C126 1.439 . S
C125 H154 0.950 . S
C126 N122 1.383 . S
C126 C125 1.439 . S
C126 C144 1.392 . S
N127 Co111 2.282 . S
N127 C130 1.332 . S
N127 C132 1.332 . S
C128 C129 1.386 . S
C128 C131 1.388 . S
C129 C128 1.386 . S
C129 C130 1.382 . S
C129 H155 0.950 . S
C130 N127 1.332 . S
C130 C129 1.382 . S
C130 H141 0.952 . S
C131 C128 1.388 . S
C131 C132 1.382 . S
C131 H156 0.917 1_565 S
C132 N127 1.332 . S
C132 C131 1.382 . S
C132 H142 0.948 . S
N133 Co111 2.282 . S
N133 C137 1.332 . S
N133 C138 1.332 . S
C134 C135 1.388 . S
C134 C138 1.382 . S
C134 H157 0.950 . S
C135 C134 1.388 . S
C135 C136 1.386 . S
C136 C135 1.386 . S
C136 C137 1.382 . S
C136 H158 0.950 . S
C137 N133 1.332 . S
C137 C136 1.382 . S
C137 H139 0.952 . S
C138 N133 1.332 . S
C138 C134 1.382 . S
C138 H140 0.948 . S
H139 C137 0.952 . S
H140 C138 0.948 . S
H141 C130 0.952 . S
H142 C132 0.948 . S
C143 C109 1.395 . S
C143 C113 1.391 . S
C144 C106 1.389 . S
C144 C126 1.392 . S
C145 C116 1.392 . S
C145 C118 1.389 . S
C146 C121 1.395 . S
C146 C123 1.391 . S
H147 C107 0.951 . S
H148 C108 0.950 . S
H149 C114 0.949 . S
H150 C115 0.950 . S
H151 C119 0.951 . S
H152 C120 0.950 . S
H153 C124 0.949 . S
H154 C125 0.950 . S
H155 C129 0.950 . S
H156 C131 0.917 1_545 S
H157 C134 0.950 . S
H158 C136 0.950 . S
C159 C160 1.443 . S
C159 N163 1.376 . S
C159 C197 1.389 . S
C160 C159 1.443 . S
C160 C161 1.340 . S
C160 H200 0.951 . S
C161 C160 1.340 . S
C161 C162 1.439 . S
C161 H201 0.950 . S
C162 C161 1.439 . S
C162 N163 1.374 . S
C162 C196 1.395 . S
N163 C159 1.376 . S
N163 C162 1.374 . S
N163 Co164 2.008 . S
Co164 N163 2.008 . S
Co164 N165 1.995 . S
Co164 N170 2.008 . S
Co164 N175 1.995 . S
Co164 N180 2.282 . S
Co164 N186 2.282 . S
N165 Co164 1.995 . S
N165 C166 1.376 . S
N165 C169 1.383 . S
C166 N165 1.376 . S
C166 C167 1.446 . S
C166 C196 1.391 . S
C167 C166 1.446 . S
C167 C168 1.339 . S
C167 H202 0.949 . S
C168 C167 1.339 . S
C168 C169 1.439 . S
C168 H203 0.950 . S
C169 N165 1.383 . S
C169 C168 1.439 . S
C169 C198 1.392 . S
N170 Co164 2.008 . S
N170 C171 1.376 . S
N170 C174 1.374 . S
C171 N170 1.376 . S
C171 C172 1.443 . S
C171 C198 1.389 . S
C172 C171 1.443 . S
C172 C173 1.340 . S
C172 H204 0.951 . S
C173 C172 1.340 . S
C173 C174 1.439 . S
C173 H205 0.950 . S
C174 N170 1.374 . S
C174 C173 1.439 . S
C174 C199 1.395 . S
N175 Co164 1.995 . S
N175 C176 1.376 . S
N175 C179 1.383 . S
C176 N175 1.376 . S
C176 C177 1.446 . S
C176 C199 1.391 . S
C177 C176 1.446 . S
C177 C178 1.339 . S
C177 H206 0.949 . S
C178 C177 1.339 . S
C178 C179 1.439 . S
C178 H207 0.950 . S
C179 N175 1.383 . S
C179 C178 1.439 . S
C179 C197 1.392 . S
N180 Co164 2.282 . S
N180 C183 1.332 . S
N180 C185 1.332 . S
C181 C182 1.386 . S
C181 C184 1.388 . S
C182 C181 1.386 . S
C182 C183 1.382 . S
C182 H208 0.950 . S
C183 N180 1.332 . S
C183 C182 1.382 . S
C183 H194 0.952 . S
C184 C181 1.388 . S
C184 C185 1.382 . S
C184 H209 0.950 . S
C185 N180 1.332 . S
C185 C184 1.382 . S
C185 H195 0.948 . S
N186 Co164 2.282 . S
N186 C190 1.332 . S
N186 C191 1.332 . S
C187 C188 1.388 . S
C187 C191 1.382 . S
C187 H210 0.950 . S
C188 C187 1.388 . S
C188 C189 1.386 . S
C189 C188 1.386 . S
C189 C190 1.382 . S
C189 H211 0.950 . S
C190 N186 1.332 . S
C190 C189 1.382 . S
C190 H192 0.952 . S
C191 N186 1.332 . S
C191 C187 1.382 . S
C191 H193 0.948 . S
H192 C190 0.952 . S
H193 C191 0.948 . S
H194 C183 0.952 . S
H195 C185 0.948 . S
C196 C162 1.395 . S
C196 C166 1.391 . S
C197 C159 1.389 . S
C197 C179 1.392 . S
C198 C169 1.392 . S
C198 C171 1.389 . S
C199 C174 1.395 . S
C199 C176 1.391 . S
H200 C160 0.951 . S
H201 C161 0.950 . S
H202 C167 0.949 . S
H203 C168 0.950 . S
H204 C172 0.951 . S
H205 C173 0.950 . S
H206 C177 0.949 . S
H207 C178 0.950 . S
H208 C182 0.950 . S
H209 C184 0.950 . S
H210 C187 0.950 . S
H211 C189 0.950 . S
C212 C213 1.443 . S
C212 N216 1.376 . S
C212 C250 1.389 . S
C213 C212 1.443 . S
C213 C214 1.340 . S
C213 H253 0.951 . S
C214 C213 1.340 . S
C214 C215 1.439 . S
C214 H254 0.950 . S
C215 C214 1.439 . S
C215 N216 1.374 . S
C215 C249 1.395 . S
N216 C212 1.376 . S
N216 C215 1.374 . S
N216 Co217 2.008 . S
Co217 N216 2.008 . S
Co217 N218 1.995 . S
Co217 N223 2.008 . S
Co217 N228 1.995 . S
Co217 N233 2.282 . S
Co217 N239 2.282 . S
N218 Co217 1.995 . S
N218 C219 1.376 . S
N218 C222 1.383 . S
C219 N218 1.376 . S
C219 C220 1.446 . S
C219 C249 1.391 . S
C220 C219 1.446 . S
C220 C221 1.339 . S
C220 H255 0.949 . S
C221 C220 1.339 . S
C221 C222 1.439 . S
C221 H256 0.950 . S
C222 N218 1.383 . S
C222 C221 1.439 . S
C222 C251 1.392 . S
N223 Co217 2.008 . S
N223 C224 1.376 . S
N223 C227 1.374 . S
C224 N223 1.376 . S
C224 C225 1.443 . S
C224 C251 1.389 . S
C225 C224 1.443 . S
C225 C226 1.340 . S
C225 H257 0.951 . S
C226 C225 1.340 . S
C226 C227 1.439 . S
C226 H258 0.950 . S
C227 N223 1.374 . S
C227 C226 1.439 . S
C227 C252 1.395 . S
N228 Co217 1.995 . S
N228 C229 1.376 . S
N228 C232 1.383 . S
C229 N228 1.376 . S
C229 C230 1.446 . S
C229 C252 1.391 . S
C230 C229 1.446 . S
C230 C231 1.339 . S
C230 H259 0.949 . S
C231 C230 1.339 . S
C231 C232 1.439 . S
C231 H260 0.950 . S
C232 N228 1.383 . S
C232 C231 1.439 . S
C232 C250 1.392 . S
N233 Co217 2.282 . S
N233 C236 1.332 . S
N233 C238 1.332 . S
C234 C235 1.386 . S
C234 C237 1.388 . S
C235 C234 1.386 . S
C235 C236 1.382 . S
C235 H261 0.950 . S
C236 N233 1.332 . S
C236 C235 1.382 . S
C236 H247 0.952 . S
C237 C234 1.388 . S
C237 C238 1.382 . S
C237 H262 0.917 1_565 S
C238 N233 1.332 . S
C238 C237 1.382 . S
C238 H248 0.948 . S
N239 Co217 2.282 . S
N239 C243 1.332 . S
N239 C244 1.332 . S
C240 C241 1.388 . S
C240 C244 1.382 . S
C240 H263 0.950 . S
C241 C240 1.388 . S
C241 C242 1.386 . S
C242 C241 1.386 . S
C242 C243 1.382 . S
C242 H264 0.950 . S
C243 N239 1.332 . S
C243 C242 1.382 . S
C243 H245 0.952 . S
C244 N239 1.332 . S
C244 C240 1.382 . S
C244 H246 0.948 . S
H245 C243 0.952 . S
H246 C244 0.948 . S
H247 C236 0.952 . S
H248 C238 0.948 . S
C249 C215 1.395 . S
C249 C219 1.391 . S
C250 C212 1.389 . S
C250 C232 1.392 . S
C251 C222 1.392 . S
C251 C224 1.389 . S
C252 C227 1.395 . S
C252 C229 1.391 . S
H253 C213 0.951 . S
H254 C214 0.950 . S
H255 C220 0.949 . S
H256 C221 0.950 . S
H257 C225 0.951 . S
H258 C226 0.950 . S
H259 C230 0.949 . S
H260 C231 0.950 . S
H261 C235 0.950 . S
H262 C237 0.917 1_545 S
H263 C240 0.950 . S
H264 C242 0.950 . S
C265 C266 1.443 . S
C265 N269 1.376 . S
C265 C303 1.389 . S
C266 C265 1.443 . S
C266 C267 1.340 . S
C266 H306 0.951 . S
C267 C266 1.340 . S
C267 C268 1.439 . S
C267 H307 0.950 . S
C268 C267 1.439 . S
C268 N269 1.374 . S
C268 C302 1.395 . S
N269 C265 1.376 . S
N269 C268 1.374 . S
N269 Co270 2.008 . S
Co270 N269 2.008 . S
Co270 N271 1.995 . S
Co270 N276 2.008 . S
Co270 N281 1.995 . S
Co270 N286 2.282 . S
Co270 N292 2.282 . S
N271 Co270 1.995 . S
N271 C272 1.376 . S
N271 C275 1.383 . S
C272 N271 1.376 . S
C272 C273 1.446 . S
C272 C302 1.391 . S
C273 C272 1.446 . S
C273 C274 1.339 . S
C273 H308 0.949 . S
C274 C273 1.339 . S
C274 C275 1.439 . S
C274 H309 0.950 . S
C275 N271 1.383 . S
C275 C274 1.439 . S
C275 C304 1.392 . S
N276 Co270 2.008 . S
N276 C277 1.376 . S
N276 C280 1.374 . S
C277 N276 1.376 . S
C277 C278 1.443 . S
C277 C304 1.389 . S
C278 C277 1.443 . S
C278 C279 1.340 . S
C278 H310 0.951 . S
C279 C278 1.340 . S
C279 C280 1.439 . S
C279 H311 0.950 . S
C280 N276 1.374 . S
C280 C279 1.439 . S
C280 C305 1.395 . S
N281 Co270 1.995 . S
N281 C282 1.376 . S
N281 C285 1.383 . S
C282 N281 1.376 . S
C282 C283 1.446 . S
C282 C305 1.391 . S
C283 C282 1.446 . S
C283 C284 1.339 . S
C283 H312 0.949 . S
C284 C283 1.339 . S
C284 C285 1.439 . S
C284 H313 0.950 . S
C285 N281 1.383 . S
C285 C284 1.439 . S
C285 C303 1.392 . S
N286 Co270 2.282 . S
N286 C289 1.332 . S
N286 C291 1.332 . S
C287 C288 1.386 . S
C287 C290 1.388 . S
C288 C287 1.386 . S
C288 C289 1.382 . S
C288 H314 0.950 . S
C289 N286 1.332 . S
C289 C288 1.382 . S
C289 H300 0.952 . S
C290 C287 1.388 . S
C290 C291 1.382 . S
C290 H315 0.950 . S
C291 N286 1.332 . S
C291 C290 1.382 . S
C291 H301 0.948 . S
N292 Co270 2.282 . S
N292 C296 1.332 . S
N292 C297 1.332 . S
C293 C294 1.388 . S
C293 C297 1.382 . S
C293 H316 0.950 . S
C294 C293 1.388 . S
C294 C295 1.386 . S
C295 C294 1.386 . S
C295 C296 1.382 . S
C295 H317 0.950 . S
C296 N292 1.332 . S
C296 C295 1.382 . S
C296 H298 0.952 . S
C297 N292 1.332 . S
C297 C293 1.382 . S
C297 H299 0.948 . S
H298 C296 0.952 . S
H299 C297 0.948 . S
H300 C289 0.952 . S
H301 C291 0.948 . S
C302 C268 1.395 . S
C302 C272 1.391 . S
C303 C265 1.389 . S
C303 C285 1.392 . S
C304 C275 1.392 . S
C304 C277 1.389 . S
C305 C280 1.395 . S
C305 C282 1.391 . S
H306 C266 0.951 . S
H307 C267 0.950 . S
H308 C273 0.949 . S
H309 C274 0.950 . S
H310 C278 0.951 . S
H311 C279 0.950 . S
H312 C283 0.949 . S
H313 C284 0.950 . S
H314 C288 0.950 . S
H315 C290 0.950 . S
H316 C293 0.950 . S
H317 C295 0.950 . S
C318 C319 1.443 . S
C318 N322 1.376 . S
C318 C356 1.389 . S
C319 C318 1.443 . S
C319 C320 1.340 . S
C319 H359 0.951 . S
C320 C319 1.340 . S
C320 C321 1.439 . S
C320 H360 0.950 . S
C321 C320 1.439 . S
C321 N322 1.374 . S
C321 C355 1.395 . S
N322 C318 1.376 . S
N322 C321 1.374 . S
N322 Co323 2.008 . S
Co323 N322 2.008 . S
Co323 N324 1.995 . S
Co323 N329 2.008 . S
Co323 N334 1.995 . S
Co323 N339 2.282 . S
Co323 N345 2.282 . S
N324 Co323 1.995 . S
N324 C325 1.376 . S
N324 C328 1.383 . S
C325 N324 1.376 . S
C325 C326 1.446 . S
C325 C355 1.391 . S
C326 C325 1.446 . S
C326 C327 1.339 . S
C326 H361 0.949 . S
C327 C326 1.339 . S
C327 C328 1.439 . S
C327 H362 0.950 . S
C328 N324 1.383 . S
C328 C327 1.439 . S
C328 C357 1.392 . S
N329 Co323 2.008 . S
N329 C330 1.376 . S
N329 C333 1.374 . S
C330 N329 1.376 . S
C330 C331 1.443 . S
C330 C357 1.389 . S
C331 C330 1.443 . S
C331 C332 1.340 . S
C331 H363 0.951 . S
C332 C331 1.340 . S
C332 C333 1.439 . S
C332 H364 0.950 . S
C333 N329 1.374 . S
C333 C332 1.439 . S
C333 C358 1.395 . S
N334 Co323 1.995 . S
N334 C335 1.376 . S
N334 C338 1.383 . S
C335 N334 1.376 . S
C335 C336 1.446 . S
C335 C358 1.391 . S
C336 C335 1.446 . S
C336 C337 1.339 . S
C336 H365 0.949 . S
C337 C336 1.339 . S
C337 C338 1.439 . S
C337 H366 0.950 . S
C338 N334 1.383 . S
C338 C337 1.439 . S
C338 C356 1.392 . S
N339 Co323 2.282 . S
N339 C342 1.332 . S
N339 C344 1.332 . S
C340 C341 1.386 . S
C340 C343 1.388 . S
C341 C340 1.386 . S
C341 C342 1.382 . S
C341 H367 0.950 . S
C342 N339 1.332 . S
C342 C341 1.382 . S
C342 H353 0.952 . S
C343 C340 1.388 . S
C343 C344 1.382 . S
C343 H368 0.950 . S
C344 N339 1.332 . S
C344 C343 1.382 . S
C344 H354 0.948 . S
N345 Co323 2.282 . S
N345 C349 1.332 . S
N345 C350 1.332 . S
C346 C347 1.388 . S
C346 C350 1.382 . S
C346 H369 0.950 . S
C347 C346 1.388 . S
C347 C348 1.386 . S
C348 C347 1.386 . S
C348 C349 1.382 . S
C348 H370 0.950 . S
C349 N345 1.332 . S
C349 C348 1.382 . S
C349 H351 0.952 . S
C350 N345 1.332 . S
C350 C346 1.382 . S
C350 H352 0.948 . S
H351 C349 0.952 . S
H352 C350 0.948 . S
H353 C342 0.952 . S
H354 C344 0.948 . S
C355 C321 1.395 . S
C355 C325 1.391 . S
C356 C318 1.389 . S
C356 C338 1.392 . S
C357 C328 1.392 . S
C357 C330 1.389 . S
C358 C333 1.395 . S
C358 C335 1.391 . S
H359 C319 0.951 . S
H360 C320 0.950 . S
H361 C326 0.949 . S
H362 C327 0.950 . S
H363 C331 0.951 . S
H364 C332 0.950 . S
H365 C336 0.949 . S
H366 C337 0.950 . S
H367 C341 0.950 . S
H368 C343 0.950 . S
H369 C346 0.950 . S
H370 C348 0.950 . S
C371 C372 1.443 . S
C371 N375 1.376 . S
C371 C409 1.389 . S
C372 C371 1.443 . S
C372 C373 1.340 . S
C372 H412 0.951 . S
C373 C372 1.340 . S
C373 C374 1.439 . S
C373 H413 0.950 . S
C374 C373 1.439 . S
C374 N375 1.374 . S
C374 C408 1.395 . S
N375 C371 1.376 . S
N375 C374 1.374 . S
N375 Co376 2.008 . S
Co376 N375 2.008 . S
Co376 N377 1.995 . S
Co376 N382 2.008 . S
Co376 N387 1.995 . S
Co376 N392 2.282 . S
Co376 N398 2.282 . S
N377 Co376 1.995 . S
N377 C378 1.376 . S
N377 C381 1.383 . S
C378 N377 1.376 . S
C378 C379 1.446 . S
C378 C408 1.391 . S
C379 C378 1.446 . S
C379 C380 1.339 . S
C379 H414 0.949 . S
C380 C379 1.339 . S
C380 C381 1.439 . S
C380 H415 0.950 . S
C381 N377 1.383 . S
C381 C380 1.439 . S
C381 C410 1.392 . S
N382 Co376 2.008 . S
N382 C383 1.376 . S
N382 C386 1.374 . S
C383 N382 1.376 . S
C383 C384 1.443 . S
C383 C410 1.389 . S
C384 C383 1.443 . S
C384 C385 1.340 . S
C384 H416 0.951 . S
C385 C384 1.340 . S
C385 C386 1.439 . S
C385 H417 0.950 . S
C386 N382 1.374 . S
C386 C385 1.439 . S
C386 C411 1.395 . S
N387 Co376 1.995 . S
N387 C388 1.376 . S
N387 C391 1.383 . S
C388 N387 1.376 . S
C388 C389 1.446 . S
C388 C411 1.391 . S
C389 C388 1.446 . S
C389 C390 1.339 . S
C389 H418 0.949 . S
C390 C389 1.339 . S
C390 C391 1.439 . S
C390 H419 0.950 . S
C391 N387 1.383 . S
C391 C390 1.439 . S
C391 C409 1.392 . S
N392 Co376 2.282 . S
N392 C395 1.332 . S
N392 C397 1.332 . S
C393 C394 1.386 . S
C393 C396 1.388 . S
C394 C393 1.386 . S
C394 C395 1.382 . S
C394 H420 0.950 . S
C395 N392 1.332 . S
C395 C394 1.382 . S
C395 H406 0.952 . S
C396 C393 1.388 . S
C396 C397 1.382 . S
C396 H421 0.917 1_655 S
C397 N392 1.332 . S
C397 C396 1.382 . S
C397 H407 0.948 . S
N398 Co376 2.282 . S
N398 C402 1.332 . S
N398 C403 1.332 . S
C399 C400 1.388 . S
C399 C403 1.382 . S
C399 H422 0.950 . S
C400 C399 1.388 . S
C400 C401 1.386 . S
C401 C400 1.386 . S
C401 C402 1.382 . S
C401 H423 0.950 . S
C402 N398 1.332 . S
C402 C401 1.382 . S
C402 H404 0.952 . S
C403 N398 1.332 . S
C403 C399 1.382 . S
C403 H405 0.948 . S
H404 C402 0.952 . S
H405 C403 0.948 . S
H406 C395 0.952 . S
H407 C397 0.948 . S
C408 C374 1.395 . S
C408 C378 1.391 . S
C409 C371 1.389 . S
C409 C391 1.392 . S
C410 C381 1.392 . S
C410 C383 1.389 . S
C411 C386 1.395 . S
C411 C388 1.391 . S
H412 C372 0.951 . S
H413 C373 0.950 . S
H414 C379 0.949 . S
H415 C380 0.950 . S
H416 C384 0.951 . S
H417 C385 0.950 . S
H418 C389 0.949 . S
H419 C390 0.950 . S
H420 C394 0.950 . S
H421 C396 0.917 1_455 S
H422 C399 0.950 . S
H423 C401 0.950 . S
C424 C425 1.443 . S
C424 N428 1.376 . S
C424 C462 1.389 . S
C425 C424 1.443 . S
C425 C426 1.340 . S
C425 H465 0.951 . S
C426 C425 1.340 . S
C426 C427 1.439 . S
C426 H466 0.950 . S
C427 C426 1.439 . S
C427 N428 1.374 . S
C427 C461 1.395 . S
N428 C424 1.376 . S
N428 C427 1.374 . S
N428 Co429 2.008 . S
Co429 N428 2.008 . S
Co429 N430 1.995 . S
Co429 N435 2.008 . S
Co429 N440 1.995 . S
Co429 N445 2.282 . S
Co429 N451 2.282 . S
N430 Co429 1.995 . S
N430 C431 1.376 . S
N430 C434 1.383 . S
C431 N430 1.376 . S
C431 C432 1.446 . S
C431 C461 1.391 . S
C432 C431 1.446 . S
C432 C433 1.339 . S
C432 H467 0.949 . S
C433 C432 1.339 . S
C433 C434 1.439 . S
C433 H468 0.950 . S
C434 N430 1.383 . S
C434 C433 1.439 . S
C434 C463 1.392 . S
N435 Co429 2.008 . S
N435 C436 1.376 . S
N435 C439 1.374 . S
C436 N435 1.376 . S
C436 C437 1.443 . S
C436 C463 1.389 . S
C437 C436 1.443 . S
C437 C438 1.340 . S
C437 H469 0.951 . S
C438 C437 1.340 . S
C438 C439 1.439 . S
C438 H470 0.950 . S
C439 N435 1.374 . S
C439 C438 1.439 . S
C439 C464 1.395 . S
N440 Co429 1.995 . S
N440 C441 1.376 . S
N440 C444 1.383 . S
C441 N440 1.376 . S
C441 C442 1.446 . S
C441 C464 1.391 . S
C442 C441 1.446 . S
C442 C443 1.339 . S
C442 H471 0.949 . S
C443 C442 1.339 . S
C443 C444 1.439 . S
C443 H472 0.950 . S
C444 N440 1.383 . S
C444 C443 1.439 . S
C444 C462 1.392 . S
N445 Co429 2.282 . S
N445 C448 1.332 . S
N445 C450 1.332 . S
C446 C447 1.386 . S
C446 C449 1.388 . S
C447 C446 1.386 . S
C447 C448 1.382 . S
C447 H473 0.965 . S
C448 N445 1.332 . S
C448 C447 1.382 . S
C448 H459 0.952 . S
C449 C446 1.388 . S
C449 C450 1.382 . S
C449 H474 0.950 . S
C450 N445 1.332 . S
C450 C449 1.382 . S
C450 H460 0.948 . S
N451 Co429 2.282 . S
N451 C455 1.332 . S
N451 C456 1.332 . S
C452 C453 1.388 . S
C452 C456 1.382 . S
C452 H475 0.950 . S
C453 C452 1.388 . S
C453 C454 1.386 . S
C454 C453 1.386 . S
C454 C455 1.382 . S
C454 H476 0.950 . S
C455 N451 1.332 . S
C455 C454 1.382 . S
C455 H457 0.952 . S
C456 N451 1.332 . S
C456 C452 1.382 . S
C456 H458 0.948 . S
H457 C455 0.952 . S
H458 C456 0.948 . S
H459 C448 0.952 . S
H460 C450 0.948 . S
C461 C427 1.395 . S
C461 C431 1.391 . S
C462 C424 1.389 . S
C462 C444 1.392 . S
C463 C434 1.392 . S
C463 C436 1.389 . S
C464 C439 1.395 . S
C464 C441 1.391 . S
H465 C425 0.951 . S
H466 C426 0.950 . S
H467 C432 0.949 . S
H468 C433 0.950 . S
H469 C437 0.951 . S
H470 C438 0.950 . S
H471 C442 0.949 . S
H472 C443 0.950 . S
H473 C447 0.965 . S
H474 C449 0.950 . S
H475 C452 0.950 . S
H476 C454 0.950 . S
C477 C478 1.443 . S
C477 N481 1.376 . S
C477 C515 1.389 . S
C478 C477 1.443 . S
C478 C479 1.340 . S
C478 H518 0.951 . S
C479 C478 1.340 . S
C479 C480 1.439 . S
C479 H519 0.950 . S
C480 C479 1.439 . S
C480 N481 1.374 . S
C480 C514 1.395 . S
N481 C477 1.376 . S
N481 C480 1.374 . S
N481 Co482 2.008 . S
Co482 N481 2.008 . S
Co482 N483 1.995 . S
Co482 N488 2.008 . S
Co482 N493 1.995 . S
Co482 N498 2.282 . S
Co482 N504 2.282 . S
N483 Co482 1.995 . S
N483 C484 1.376 . S
N483 C487 1.383 . S
C484 N483 1.376 . S
C484 C485 1.446 . S
C484 C514 1.391 . S
C485 C484 1.446 . S
C485 C486 1.339 . S
C485 H520 0.949 . S
C486 C485 1.339 . S
C486 C487 1.439 . S
C486 H521 0.950 . S
C487 N483 1.383 . S
C487 C486 1.439 . S
C487 C516 1.392 . S
N488 Co482 2.008 . S
N488 C489 1.376 . S
N488 C492 1.374 . S
C489 N488 1.376 . S
C489 C490 1.443 . S
C489 C516 1.389 . S
C490 C489 1.443 . S
C490 C491 1.340 . S
C490 H522 0.951 . S
C491 C490 1.340 . S
C491 C492 1.439 . S
C491 H523 0.950 . S
C492 N488 1.374 . S
C492 C491 1.439 . S
C492 C517 1.395 . S
N493 Co482 1.995 . S
N493 C494 1.376 . S
N493 C497 1.383 . S
C494 N493 1.376 . S
C494 C495 1.446 . S
C494 C517 1.391 . S
C495 C494 1.446 . S
C495 C496 1.339 . S
C495 H524 0.949 . S
C496 C495 1.339 . S
C496 C497 1.439 . S
C496 H525 0.950 . S
C497 N493 1.383 . S
C497 C496 1.439 . S
C497 C515 1.392 . S
N498 Co482 2.282 . S
N498 C501 1.332 . S
N498 C503 1.332 . S
C499 C500 1.386 . S
C499 C502 1.388 . S
C500 C499 1.386 . S
C500 C501 1.382 . S
C500 H526 0.965 . S
C501 N498 1.332 . S
C501 C500 1.382 . S
C501 H512 0.952 . S
C502 C499 1.388 . S
C502 C503 1.382 . S
C502 H527 0.950 . S
C503 N498 1.332 . S
C503 C502 1.382 . S
C503 H513 0.948 . S
N504 Co482 2.282 . S
N504 C508 1.332 . S
N504 C509 1.332 . S
C505 C506 1.388 . S
C505 C509 1.382 . S
C505 H528 0.950 . S
C506 C505 1.388 . S
C506 C507 1.386 . S
C507 C506 1.386 . S
C507 C508 1.382 . S
C507 H529 0.950 . S
C508 N504 1.332 . S
C508 C507 1.382 . S
C508 H510 0.952 . S
C509 N504 1.332 . S
C509 C505 1.382 . S
C509 H511 0.948 . S
H510 C508 0.952 . S
H511 C509 0.948 . S
H512 C501 0.952 . S
H513 C503 0.948 . S
C514 C480 1.395 . S
C514 C484 1.391 . S
C515 C477 1.389 . S
C515 C497 1.392 . S
C516 C487 1.392 . S
C516 C489 1.389 . S
C517 C492 1.395 . S
C517 C494 1.391 . S
H518 C478 0.951 . S
H519 C479 0.950 . S
H520 C485 0.949 . S
H521 C486 0.950 . S
H522 C490 0.951 . S
H523 C491 0.950 . S
H524 C495 0.949 . S
H525 C496 0.950 . S
H526 C500 0.965 . S
H527 C502 0.950 . S
H528 C505 0.950 . S
H529 C507 0.950 . S
C530 C531 1.443 . S
C530 N534 1.376 . S
C530 C568 1.389 . S
C531 C530 1.443 . S
C531 C532 1.340 . S
C531 H571 0.951 . S
C532 C531 1.340 . S
C532 C533 1.439 . S
C532 H572 0.950 . S
C533 C532 1.439 . S
C533 N534 1.374 . S
C533 C567 1.395 . S
N534 C530 1.376 . S
N534 C533 1.374 . S
N534 Co535 2.008 . S
Co535 N534 2.008 . S
Co535 N536 1.995 . S
Co535 N541 2.008 . S
Co535 N546 1.995 . S
Co535 N551 2.282 . S
Co535 N557 2.282 . S
N536 Co535 1.995 . S
N536 C537 1.376 . S
N536 C540 1.383 . S
C537 N536 1.376 . S
C537 C538 1.446 . S
C537 C567 1.391 . S
C538 C537 1.446 . S
C538 C539 1.339 . S
C538 H573 0.949 . S
C539 C538 1.339 . S
C539 C540 1.439 . S
C539 H574 0.950 . S
C540 N536 1.383 . S
C540 C539 1.439 . S
C540 C569 1.392 . S
N541 Co535 2.008 . S
N541 C542 1.376 . S
N541 C545 1.374 . S
C542 N541 1.376 . S
C542 C543 1.443 . S
C542 C569 1.389 . S
C543 C542 1.443 . S
C543 C544 1.340 . S
C543 H575 0.951 . S
C544 C543 1.340 . S
C544 C545 1.439 . S
C544 H576 0.950 . S
C545 N541 1.374 . S
C545 C544 1.439 . S
C545 C570 1.395 . S
N546 Co535 1.995 . S
N546 C547 1.376 . S
N546 C550 1.383 . S
C547 N546 1.376 . S
C547 C548 1.446 . S
C547 C570 1.391 . S
C548 C547 1.446 . S
C548 C549 1.339 . S
C548 H577 0.949 . S
C549 C548 1.339 . S
C549 C550 1.439 . S
C549 H578 0.950 . S
C550 N546 1.383 . S
C550 C549 1.439 . S
C550 C568 1.392 . S
N551 Co535 2.282 . S
N551 C554 1.332 . S
N551 C556 1.332 . S
C552 C553 1.386 . S
C552 C555 1.388 . S
C553 C552 1.386 . S
C553 C554 1.382 . S
C553 H579 0.950 . S
C554 N551 1.332 . S
C554 C553 1.382 . S
C554 H565 0.952 . S
C555 C552 1.388 . S
C555 C556 1.382 . S
C555 H580 0.950 . S
C556 N551 1.332 . S
C556 C555 1.382 . S
C556 H566 0.948 . S
N557 Co535 2.282 . S
N557 C561 1.332 . S
N557 C562 1.332 . S
C558 C559 1.388 . S
C558 C562 1.382 . S
C558 H581 0.950 . S
C559 C558 1.388 . S
C559 C560 1.386 . S
C560 C559 1.386 . S
C560 C561 1.382 . S
C560 H582 0.950 . S
C561 N557 1.332 . S
C561 C560 1.382 . S
C561 H563 0.952 . S
C562 N557 1.332 . S
C562 C558 1.382 . S
C562 H564 0.948 . S
H563 C561 0.952 . S
H564 C562 0.948 . S
H565 C554 0.952 . S
H566 C556 0.948 . S
C567 C533 1.395 . S
C567 C537 1.391 . S
C568 C530 1.389 . S
C568 C550 1.392 . S
C569 C540 1.392 . S
C569 C542 1.389 . S
C570 C545 1.395 . S
C570 C547 1.391 . S
H571 C531 0.951 . S
H572 C532 0.950 . S
H573 C538 0.949 . S
H574 C539 0.950 . S
H575 C543 0.951 . S
H576 C544 0.950 . S
H577 C548 0.949 . S
H578 C549 0.950 . S
H579 C553 0.950 . S
H580 C555 0.950 . S
H581 C558 0.950 . S
H582 C560 0.950 . S
C583 C584 1.443 . S
C583 N587 1.376 . S
C583 C621 1.389 . S
C584 C583 1.443 . S
C584 C585 1.340 . S
C584 H624 0.951 . S
C585 C584 1.340 . S
C585 C586 1.439 . S
C585 H625 0.950 . S
C586 C585 1.439 . S
C586 N587 1.374 . S
C586 C620 1.395 . S
N587 C583 1.376 . S
N587 C586 1.374 . S
N587 Co588 2.008 . S
Co588 N587 2.008 . S
Co588 N589 1.995 . S
Co588 N594 2.008 . S
Co588 N599 1.995 . S
Co588 N604 2.282 . S
Co588 N610 2.282 . S
N589 Co588 1.995 . S
N589 C590 1.376 . S
N589 C593 1.383 . S
C590 N589 1.376 . S
C590 C591 1.446 . S
C590 C620 1.391 . S
C591 C590 1.446 . S
C591 C592 1.339 . S
C591 H626 0.949 . S
C592 C591 1.339 . S
C592 C593 1.439 . S
C592 H627 0.950 . S
C593 N589 1.383 . S
C593 C592 1.439 . S
C593 C622 1.392 . S
N594 Co588 2.008 . S
N594 C595 1.376 . S
N594 C598 1.374 . S
C595 N594 1.376 . S
C595 C596 1.443 . S
C595 C622 1.389 . S
C596 C595 1.443 . S
C596 C597 1.340 . S
C596 H628 0.951 . S
C597 C596 1.340 . S
C597 C598 1.439 . S
C597 H629 0.950 . S
C598 N594 1.374 . S
C598 C597 1.439 . S
C598 C623 1.395 . S
N599 Co588 1.995 . S
N599 C600 1.376 . S
N599 C603 1.383 . S
C600 N599 1.376 . S
C600 C601 1.446 . S
C600 C623 1.391 . S
C601 C600 1.446 . S
C601 C602 1.339 . S
C601 H630 0.949 . S
C602 C601 1.339 . S
C602 C603 1.439 . S
C602 H631 0.950 . S
C603 N599 1.383 . S
C603 C602 1.439 . S
C603 C621 1.392 . S
N604 Co588 2.282 . S
N604 C607 1.332 . S
N604 C609 1.332 . S
C605 C606 1.386 . S
C605 C608 1.388 . S
C606 C605 1.386 . S
C606 C607 1.382 . S
C606 H632 0.950 . S
C607 N604 1.332 . S
C607 C606 1.382 . S
C607 H618 0.952 . S
C608 C605 1.388 . S
C608 C609 1.382 . S
C608 H633 0.950 . S
C609 N604 1.332 . S
C609 C608 1.382 . S
C609 H619 0.948 . S
N610 Co588 2.282 . S
N610 C614 1.332 . S
N610 C615 1.332 . S
C611 C612 1.388 . S
C611 C615 1.382 . S
C611 H634 0.950 . S
C612 C611 1.388 . S
C612 C613 1.386 . S
C613 C612 1.386 . S
C613 C614 1.382 . S
C613 H635 0.950 . S
C614 N610 1.332 . S
C614 C613 1.382 . S
C614 H616 0.952 . S
C615 N610 1.332 . S
C615 C611 1.382 . S
C615 H617 0.948 . S
H616 C614 0.952 . S
H617 C615 0.948 . S
H618 C607 0.952 . S
H619 C609 0.948 . S
C620 C586 1.395 . S
C620 C590 1.391 . S
C621 C583 1.389 . S
C621 C603 1.392 . S
C622 C593 1.392 . S
C622 C595 1.389 . S
C623 C598 1.395 . S
C623 C600 1.391 . S
H624 C584 0.951 . S
H625 C585 0.950 . S
H626 C591 0.949 . S
H627 C592 0.950 . S
H628 C596 0.951 . S
H629 C597 0.950 . S
H630 C601 0.949 . S
H631 C602 0.950 . S
H632 C606 0.950 . S
H633 C608 0.950 . S
H634 C611 0.950 . S
H635 C613 0.950 . S
C636 C637 1.443 . S
C636 N640 1.376 . S
C636 C674 1.389 . S
C637 C636 1.443 . S
C637 C638 1.340 . S
C637 H677 0.951 . S
C638 C637 1.340 . S
C638 C639 1.439 . S
C638 H678 0.950 . S
C639 C638 1.439 . S
C639 N640 1.374 . S
C639 C673 1.395 . S
N640 C636 1.376 . S
N640 C639 1.374 . S
N640 Co641 2.008 . S
Co641 N640 2.008 . S
Co641 N642 1.995 . S
Co641 N647 2.008 . S
Co641 N652 1.995 . S
Co641 N657 2.282 . S
Co641 N663 2.282 . S
N642 Co641 1.995 . S
N642 C643 1.376 . S
N642 C646 1.383 . S
C643 N642 1.376 . S
C643 C644 1.446 . S
C643 C673 1.391 . S
C644 C643 1.446 . S
C644 C645 1.339 . S
C644 H679 0.949 . S
C645 C644 1.339 . S
C645 C646 1.439 . S
C645 H680 0.950 . S
C646 N642 1.383 . S
C646 C645 1.439 . S
C646 C675 1.392 . S
N647 Co641 2.008 . S
N647 C648 1.376 . S
N647 C651 1.374 . S
C648 N647 1.376 . S
C648 C649 1.443 . S
C648 C675 1.389 . S
C649 C648 1.443 . S
C649 C650 1.340 . S
C649 H681 0.951 . S
C650 C649 1.340 . S
C650 C651 1.439 . S
C650 H682 0.950 . S
C651 N647 1.374 . S
C651 C650 1.439 . S
C651 C676 1.395 . S
N652 Co641 1.995 . S
N652 C653 1.376 . S
N652 C656 1.383 . S
C653 N652 1.376 . S
C653 C654 1.446 . S
C653 C676 1.391 . S
C654 C653 1.446 . S
C654 C655 1.339 . S
C654 H683 0.949 . S
C655 C654 1.339 . S
C655 C656 1.439 . S
C655 H684 0.950 . S
C656 N652 1.383 . S
C656 C655 1.439 . S
C656 C674 1.392 . S
N657 Co641 2.282 . S
N657 C660 1.332 . S
N657 C662 1.332 . S
C658 C659 1.386 . S
C658 C661 1.388 . S
C659 C658 1.386 . S
C659 C660 1.382 . S
C659 H685 0.965 . S
C660 N657 1.332 . S
C660 C659 1.382 . S
C660 H671 0.952 . S
C661 C658 1.388 . S
C661 C662 1.382 . S
C661 H686 0.950 . S
C662 N657 1.332 . S
C662 C661 1.382 . S
C662 H672 0.948 . S
N663 Co641 2.282 . S
N663 C667 1.332 . S
N663 C668 1.332 . S
C664 C665 1.388 . S
C664 C668 1.382 . S
C664 H687 0.950 . S
C665 C664 1.388 . S
C665 C666 1.386 . S
C666 C665 1.386 . S
C666 C667 1.382 . S
C666 H688 0.950 . S
C667 N663 1.332 . S
C667 C666 1.382 . S
C667 H669 0.952 . S
C668 N663 1.332 . S
C668 C664 1.382 . S
C668 H670 0.948 . S
H669 C667 0.952 . S
H670 C668 0.948 . S
H671 C660 0.952 . S
H672 C662 0.948 . S
C673 C639 1.395 . S
C673 C643 1.391 . S
C674 C636 1.389 . S
C674 C656 1.392 . S
C675 C646 1.392 . S
C675 C648 1.389 . S
C676 C651 1.395 . S
C676 C653 1.391 . S
H677 C637 0.951 . S
H678 C638 0.950 . S
H679 C644 0.949 . S
H680 C645 0.950 . S
H681 C649 0.951 . S
H682 C650 0.950 . S
H683 C654 0.949 . S
H684 C655 0.950 . S
H685 C659 0.965 . S
H686 C661 0.950 . S
H687 C664 0.950 . S
H688 C666 0.950 . S
C689 C690 1.443 . S
C689 N693 1.376 . S
C689 C727 1.389 . S
C690 C689 1.443 . S
C690 C691 1.340 . S
C690 H730 0.951 . S
C691 C690 1.340 . S
C691 C692 1.439 . S
C691 H731 0.950 . S
C692 C691 1.439 . S
C692 N693 1.374 . S
C692 C726 1.395 . S
N693 C689 1.376 . S
N693 C692 1.374 . S
N693 Co694 2.008 . S
Co694 N693 2.008 . S
Co694 N695 1.995 . S
Co694 N700 2.008 . S
Co694 N705 1.995 . S
Co694 N710 2.282 . S
Co694 N716 2.282 . S
N695 Co694 1.995 . S
N695 C696 1.376 . S
N695 C699 1.383 . S
C696 N695 1.376 . S
C696 C697 1.446 . S
C696 C726 1.391 . S
C697 C696 1.446 . S
C697 C698 1.339 . S
C697 H732 0.949 . S
C698 C697 1.339 . S
C698 C699 1.439 . S
C698 H733 0.950 . S
C699 N695 1.383 . S
C699 C698 1.439 . S
C699 C728 1.392 . S
N700 Co694 2.008 . S
N700 C701 1.376 . S
N700 C704 1.374 . S
C701 N700 1.376 . S
C701 C702 1.443 . S
C701 C728 1.389 . S
C702 C701 1.443 . S
C702 C703 1.340 . S
C702 H734 0.951 . S
C703 C702 1.340 . S
C703 C704 1.439 . S
C703 H735 0.950 . S
C704 N700 1.374 . S
C704 C703 1.439 . S
C704 C729 1.395 . S
N705 Co694 1.995 . S
N705 C706 1.376 . S
N705 C709 1.383 . S
C706 N705 1.376 . S
C706 C707 1.446 . S
C706 C729 1.391 . S
C707 C706 1.446 . S
C707 C708 1.339 . S
C707 H736 0.949 . S
C708 C707 1.339 . S
C708 C709 1.439 . S
C708 H737 0.950 . S
C709 N705 1.383 . S
C709 C708 1.439 . S
C709 C727 1.392 . S
N710 Co694 2.282 . S
N710 C713 1.332 . S
N710 C715 1.332 . S
C711 C712 1.386 . S
C711 C714 1.388 . S
C712 C711 1.386 . S
C712 C713 1.382 . S
C712 H738 0.965 . S
C713 N710 1.332 . S
C713 C712 1.382 . S
C713 H724 0.952 . S
C714 C711 1.388 . S
C714 C715 1.382 . S
C714 H739 0.950 . S
C715 N710 1.332 . S
C715 C714 1.382 . S
C715 H725 0.948 . S
N716 Co694 2.282 . S
N716 C720 1.332 . S
N716 C721 1.332 . S
C717 C718 1.388 . S
C717 C721 1.382 . S
C717 H740 0.950 . S
C718 C717 1.388 . S
C718 C719 1.386 . S
C719 C718 1.386 . S
C719 C720 1.382 . S
C719 H741 0.950 . S
C720 N716 1.332 . S
C720 C719 1.382 . S
C720 H722 0.952 . S
C721 N716 1.332 . S
C721 C717 1.382 . S
C721 H723 0.948 . S
H722 C720 0.952 . S
H723 C721 0.948 . S
H724 C713 0.952 . S
H725 C715 0.948 . S
C726 C692 1.395 . S
C726 C696 1.391 . S
C727 C689 1.389 . S
C727 C709 1.392 . S
C728 C699 1.392 . S
C728 C701 1.389 . S
C729 C704 1.395 . S
C729 C706 1.391 . S
H730 C690 0.951 . S
H731 C691 0.950 . S
H732 C697 0.949 . S
H733 C698 0.950 . S
H734 C702 0.951 . S
H735 C703 0.950 . S
H736 C707 0.949 . S
H737 C708 0.950 . S
H738 C712 0.965 . S
H739 C714 0.950 . S
H740 C717 0.950 . S
H741 C719 0.950 . S
C742 C743 1.443 . S
C742 N746 1.376 . S
C742 C780 1.389 . S
C743 C742 1.443 . S
C743 C744 1.340 . S
C743 H783 0.951 . S
C744 C743 1.340 . S
C744 C745 1.439 . S
C744 H784 0.950 . S
C745 C744 1.439 . S
C745 N746 1.374 . S
C745 C779 1.395 . S
N746 C742 1.376 . S
N746 C745 1.374 . S
N746 Co747 2.008 . S
Co747 N746 2.008 . S
Co747 N748 1.995 . S
Co747 N753 2.008 . S
Co747 N758 1.995 . S
Co747 N763 2.282 . S
Co747 N769 2.282 . S
N748 Co747 1.995 . S
N748 C749 1.376 . S
N748 C752 1.383 . S
C749 N748 1.376 . S
C749 C750 1.446 . S
C749 C779 1.391 . S
C750 C749 1.446 . S
C750 C751 1.339 . S
C750 H785 0.949 . S
C751 C750 1.339 . S
C751 C752 1.439 . S
C751 H786 0.950 . S
C752 N748 1.383 . S
C752 C751 1.439 . S
C752 C781 1.392 . S
N753 Co747 2.008 . S
N753 C754 1.376 . S
N753 C757 1.374 . S
C754 N753 1.376 . S
C754 C755 1.443 . S
C754 C781 1.389 . S
C755 C754 1.443 . S
C755 C756 1.340 . S
C755 H787 0.951 . S
C756 C755 1.340 . S
C756 C757 1.439 . S
C756 H788 0.950 . S
C757 N753 1.374 . S
C757 C756 1.439 . S
C757 C782 1.395 . S
N758 Co747 1.995 . S
N758 C759 1.376 . S
N758 C762 1.383 . S
C759 N758 1.376 . S
C759 C760 1.446 . S
C759 C782 1.391 . S
C760 C759 1.446 . S
C760 C761 1.339 . S
C760 H789 0.949 . S
C761 C760 1.339 . S
C761 C762 1.439 . S
C761 H790 0.950 . S
C762 N758 1.383 . S
C762 C761 1.439 . S
C762 C780 1.392 . S
N763 Co747 2.282 . S
N763 C766 1.332 . S
N763 C768 1.332 . S
C764 C765 1.386 . S
C764 C767 1.388 . S
C765 C764 1.386 . S
C765 C766 1.382 . S
C765 H791 0.950 . S
C766 N763 1.332 . S
C766 C765 1.382 . S
C766 H777 0.952 . S
C767 C764 1.388 . S
C767 C768 1.382 . S
C767 H792 0.950 . S
C768 N763 1.332 . S
C768 C767 1.382 . S
C768 H778 0.948 . S
N769 Co747 2.282 . S
N769 C773 1.332 . S
N769 C774 1.332 . S
C770 C771 1.388 . S
C770 C774 1.382 . S
C770 H793 0.950 . S
C771 C770 1.388 . S
C771 C772 1.386 . S
C772 C771 1.386 . S
C772 C773 1.382 . S
C772 H794 0.950 . S
C773 N769 1.332 . S
C773 C772 1.382 . S
C773 H775 0.952 . S
C774 N769 1.332 . S
C774 C770 1.382 . S
C774 H776 0.948 . S
H775 C773 0.952 . S
H776 C774 0.948 . S
H777 C766 0.952 . S
H778 C768 0.948 . S
C779 C745 1.395 . S
C779 C749 1.391 . S
C780 C742 1.389 . S
C780 C762 1.392 . S
C781 C752 1.392 . S
C781 C754 1.389 . S
C782 C757 1.395 . S
C782 C759 1.391 . S
H783 C743 0.951 . S
H784 C744 0.950 . S
H785 C750 0.949 . S
H786 C751 0.950 . S
H787 C755 0.951 . S
H788 C756 0.950 . S
H789 C760 0.949 . S
H790 C761 0.950 . S
H791 C765 0.950 . S
H792 C767 0.950 . S
H793 C770 0.950 . S
H794 C772 0.950 . S
C795 C796 1.443 . S
C795 N799 1.376 . S
C795 C833 1.389 . S
C796 C795 1.443 . S
C796 C797 1.340 . S
C796 H836 0.951 . S
C797 C796 1.340 . S
C797 C798 1.439 . S
C797 H837 0.950 . S
C798 C797 1.439 . S
C798 N799 1.374 . S
C798 C832 1.395 . S
N799 C795 1.376 . S
N799 C798 1.374 . S
N799 Co800 2.008 . S
Co800 N799 2.008 . S
Co800 N801 1.995 . S
Co800 N806 2.008 . S
Co800 N811 1.995 . S
Co800 N816 2.282 . S
Co800 N822 2.282 . S
N801 Co800 1.995 . S
N801 C802 1.376 . S
N801 C805 1.383 . S
C802 N801 1.376 . S
C802 C803 1.446 . S
C802 C832 1.391 . S
C803 C802 1.446 . S
C803 C804 1.339 . S
C803 H838 0.949 . S
C804 C803 1.339 . S
C804 C805 1.439 . S
C804 H839 0.950 . S
C805 N801 1.383 . S
C805 C804 1.439 . S
C805 C834 1.392 . S
N806 Co800 2.008 . S
N806 C807 1.376 . S
N806 C810 1.374 . S
C807 N806 1.376 . S
C807 C808 1.443 . S
C807 C834 1.389 . S
C808 C807 1.443 . S
C808 C809 1.340 . S
C808 H840 0.951 . S
C809 C808 1.340 . S
C809 C810 1.439 . S
C809 H841 0.950 . S
C810 N806 1.374 . S
C810 C809 1.439 . S
C810 C835 1.395 . S
N811 Co800 1.995 . S
N811 C812 1.376 . S
N811 C815 1.383 . S
C812 N811 1.376 . S
C812 C813 1.446 . S
C812 C835 1.391 . S
C813 C812 1.446 . S
C813 C814 1.339 . S
C813 H842 0.949 . S
C814 C813 1.339 . S
C814 C815 1.439 . S
C814 H843 0.950 . S
C815 N811 1.383 . S
C815 C814 1.439 . S
C815 C833 1.392 . S
N816 Co800 2.282 . S
N816 C819 1.332 . S
N816 C821 1.332 . S
C817 C818 1.386 . S
C817 C820 1.388 . S
C818 C817 1.386 . S
C818 C819 1.382 . S
C818 H844 0.950 . S
C819 N816 1.332 . S
C819 C818 1.382 . S
C819 H830 0.952 . S
C820 C817 1.388 . S
C820 C821 1.382 . S
C820 H845 0.950 . S
C821 N816 1.332 . S
C821 C820 1.382 . S
C821 H831 0.948 . S
N822 Co800 2.282 . S
N822 C826 1.332 . S
N822 C827 1.332 . S
C823 C824 1.388 . S
C823 C827 1.382 . S
C823 H846 0.950 . S
C824 C823 1.388 . S
C824 C825 1.386 . S
C825 C824 1.386 . S
C825 C826 1.382 . S
C825 H847 0.950 . S
C826 N822 1.332 . S
C826 C825 1.382 . S
C826 H828 0.952 . S
C827 N822 1.332 . S
C827 C823 1.382 . S
C827 H829 0.948 . S
H828 C826 0.952 . S
H829 C827 0.948 . S
H830 C819 0.952 . S
H831 C821 0.948 . S
C832 C798 1.395 . S
C832 C802 1.391 . S
C833 C795 1.389 . S
C833 C815 1.392 . S
C834 C805 1.392 . S
C834 C807 1.389 . S
C835 C810 1.395 . S
C835 C812 1.391 . S
H836 C796 0.951 . S
H837 C797 0.950 . S
H838 C803 0.949 . S
H839 C804 0.950 . S
H840 C808 0.951 . S
H841 C809 0.950 . S
H842 C813 0.949 . S
H843 C814 0.950 . S
H844 C818 0.950 . S
H845 C820 0.950 . S
H846 C823 0.950 . S
H847 C825 0.950 . S
H848 C856 0.950 . S
H849 C861 0.950 . S
H850 C858 0.950 . S
H851 C860 0.950 . S
H852 C862 0.950 . S
H853 C864 0.950 . S
H854 C866 0.950 . S
H855 C867 0.950 . S
C856 H848 0.950 . S
C856 C857 1.386 . S
C856 C858 1.391 . S
C857 C856 1.386 . S
C857 C861 1.393 . S
C858 H850 0.950 . S
C858 C856 1.391 . S
C858 C859 1.400 . S
C859 C858 1.400 . S
C859 C860 1.398 . S
C859 C865 1.491 . S
C860 H851 0.950 . S
C860 C859 1.398 . S
C860 C861 1.391 . S
C861 H849 0.950 . S
C861 C857 1.393 . S
C861 C860 1.391 . S
C862 H852 0.950 . S
C862 C863 1.386 . S
C862 C864 1.391 . S
C863 C862 1.386 . S
C863 C867 1.393 . S
C864 H853 0.950 . S
C864 C862 1.391 . S
C864 C865 1.400 . S
C865 C859 1.491 . S
C865 C864 1.400 . S
C865 C866 1.398 . S
C866 H854 0.950 . S
C866 C865 1.398 . S
C866 C867 1.391 . S
C867 H855 0.950 . S
C867 C863 1.393 . S
C867 C866 1.391 . S
H868 C876 0.950 . S
H869 C881 0.950 . S
H870 C878 0.950 . S
H871 C880 0.950 . S
H872 C882 0.950 . S
H873 C884 0.950 . S
H874 C886 0.950 . S
H875 C887 0.950 . S
C876 H868 0.950 . S
C876 C877 1.386 . S
C876 C878 1.391 . S
C877 C876 1.386 . S
C877 C881 1.393 . S
C878 H870 0.950 . S
C878 C876 1.391 . S
C878 C879 1.400 . S
C879 C878 1.400 . S
C879 C880 1.398 . S
C879 C885 1.491 . S
C880 H871 0.950 . S
C880 C879 1.398 . S
C880 C881 1.391 . S
C881 H869 0.950 . S
C881 C877 1.393 . S
C881 C880 1.391 . S
C882 H872 0.950 . S
C882 C883 1.386 . S
C882 C884 1.391 . S
C883 C882 1.386 . S
C883 C887 1.393 . S
C884 H873 0.950 . S
C884 C882 1.391 . S
C884 C885 1.400 . S
C885 C879 1.491 . S
C885 C884 1.400 . S
C885 C886 1.398 . S
C886 H874 0.950 . S
C886 C885 1.398 . S
C886 C887 1.391 . S
C887 H875 0.950 . S
C887 C883 1.393 . S
C887 C886 1.391 . S
H888 C896 0.950 . S
H889 C901 0.950 . S
H890 C898 0.950 . S
H891 C900 0.950 . S
H892 C902 0.950 . S
H893 C904 0.950 . S
H894 C906 0.950 . S
H895 C907 0.950 . S
C896 H888 0.950 . S
C896 C897 1.386 . S
C896 C898 1.391 . S
C897 C896 1.386 . S
C897 C901 1.393 . S
C898 H890 0.950 . S
C898 C896 1.391 . S
C898 C899 1.400 . S
C899 C898 1.400 . S
C899 C900 1.398 . S
C899 C905 1.491 . S
C900 H891 0.950 . S
C900 C899 1.398 . S
C900 C901 1.391 . S
C901 H889 0.950 . S
C901 C897 1.393 . S
C901 C900 1.391 . S
C902 H892 0.950 . S
C902 C903 1.386 . S
C902 C904 1.391 . S
C903 C902 1.386 . S
C903 C907 1.393 . S
C904 H893 0.950 . S
C904 C902 1.391 . S
C904 C905 1.400 . S
C905 C899 1.491 . S
C905 C904 1.400 . S
C905 C906 1.398 . S
C906 H894 0.950 . S
C906 C905 1.398 . S
C906 C907 1.391 . S
C907 H895 0.950 . S
C907 C903 1.393 . S
C907 C906 1.391 . S
H908 C916 0.950 . S
H909 C921 0.950 . S
H910 C918 0.950 . S
H911 C920 0.950 . S
H912 C922 0.950 . S
H913 C924 0.950 . S
H914 C926 0.950 . S
H915 C927 0.950 . S
C916 H908 0.950 . S
C916 C917 1.386 . S
C916 C918 1.391 . S
C917 C916 1.386 . S
C917 C921 1.393 . S
C918 H910 0.950 . S
C918 C916 1.391 . S
C918 C919 1.400 . S
C919 C918 1.400 . S
C919 C920 1.398 . S
C919 C925 1.491 . S
C920 H911 0.950 . S
C920 C919 1.398 . S
C920 C921 1.391 . S
C921 H909 0.950 . S
C921 C917 1.393 . S
C921 C920 1.391 . S
C922 H912 0.950 . S
C922 C923 1.386 . S
C922 C924 1.391 . S
C923 C922 1.386 . S
C923 C927 1.393 . S
C924 H913 0.950 . S
C924 C922 1.391 . S
C924 C925 1.400 . S
C925 C919 1.491 . S
C925 C924 1.400 . S
C925 C926 1.398 . S
C926 H914 0.950 . S
C926 C925 1.398 . S
C926 C927 1.391 . S
C927 H915 0.950 . S
C927 C923 1.393 . S
C927 C926 1.391 . S
H928 C936 0.950 . S
H929 C941 0.950 . S
H930 C938 0.950 . S
H931 C940 0.950 . S
H932 C942 0.950 . S
H933 C944 0.950 . S
H934 C946 0.950 . S
H935 C947 0.950 . S
C936 H928 0.950 . S
C936 C937 1.386 . S
C936 C938 1.391 . S
C937 C936 1.386 . S
C937 C941 1.393 . S
C938 H930 0.950 . S
C938 C936 1.391 . S
C938 C939 1.400 . S
C939 C938 1.400 . S
C939 C940 1.398 . S
C939 C945 1.491 . S
C940 H931 0.950 . S
C940 C939 1.398 . S
C940 C941 1.391 . S
C941 H929 0.950 . S
C941 C937 1.393 . S
C941 C940 1.391 . S
C942 H932 0.950 . S
C942 C943 1.386 . S
C942 C944 1.391 . S
C943 C942 1.386 . S
C943 C947 1.393 . S
C944 H933 0.950 . S
C944 C942 1.391 . S
C944 C945 1.400 . S
C945 C939 1.491 . S
C945 C944 1.400 . S
C945 C946 1.398 . S
C946 H934 0.950 . S
C946 C945 1.398 . S
C946 C947 1.391 . S
C947 H935 0.950 . S
C947 C943 1.393 . S
C947 C946 1.391 . S
H948 C956 0.950 . S
H949 C961 0.950 . S
H950 C958 0.950 . S
H951 C960 0.950 . S
H952 C962 0.950 . S
H953 C964 0.950 . S
H954 C966 0.950 . S
H955 C967 0.950 . S
C956 H948 0.950 . S
C956 C957 1.386 . S
C956 C958 1.391 . S
C957 C956 1.386 . S
C957 C961 1.393 . S
C958 H950 0.950 . S
C958 C956 1.391 . S
C958 C959 1.400 . S
C959 C958 1.400 . S
C959 C960 1.398 . S
C959 C965 1.491 . S
C960 H951 0.950 . S
C960 C959 1.398 . S
C960 C961 1.391 . S
C961 H949 0.950 . S
C961 C957 1.393 . S
C961 C960 1.391 . S
C962 H952 0.950 . S
C962 C963 1.386 . S
C962 C964 1.391 . S
C963 C962 1.386 . S
C963 C967 1.393 . S
C964 H953 0.950 . S
C964 C962 1.391 . S
C964 C965 1.400 . S
C965 C959 1.491 . S
C965 C964 1.400 . S
C965 C966 1.398 . S
C966 H954 0.950 . S
C966 C965 1.398 . S
C966 C967 1.391 . S
C967 H955 0.950 . S
C967 C963 1.393 . S
C967 C966 1.391 . S
H968 C976 0.950 . S
H969 C981 0.950 . S
H970 C978 0.950 . S
H971 C980 0.950 . S
H972 C982 0.950 . S
H973 C984 0.950 . S
H974 C986 0.950 . S
H975 C987 0.950 . S
C976 H968 0.950 . S
C976 C977 1.386 . S
C976 C978 1.391 . S
C977 C976 1.386 . S
C977 C981 1.393 . S
C978 H970 0.950 . S
C978 C976 1.391 . S
C978 C979 1.400 . S
C979 C978 1.400 . S
C979 C980 1.398 . S
C979 C985 1.491 . S
C980 H971 0.950 . S
C980 C979 1.398 . S
C980 C981 1.391 . S
C981 H969 0.950 . S
C981 C977 1.393 . S
C981 C980 1.391 . S
C982 H972 0.950 . S
C982 C983 1.386 . S
C982 C984 1.391 . S
C983 C982 1.386 . S
C983 C987 1.393 . S
C984 H973 0.950 . S
C984 C982 1.391 . S
C984 C985 1.400 . S
C985 C979 1.491 . S
C985 C984 1.400 . S
C985 C986 1.398 . S
C986 H974 0.950 . S
C986 C985 1.398 . S
C986 C987 1.391 . S
C987 H975 0.950 . S
C987 C983 1.393 . S
C987 C986 1.391 . S
H988 C996 0.950 . S
H989 C1001 0.950 . S
H990 C998 0.950 . S
H991 C1000 0.950 . S
H992 C1002 0.950 . S
H993 C1004 0.950 . S
H994 C1006 0.950 . S
H995 C1007 0.950 . S
C996 H988 0.950 . S
C996 C997 1.386 . S
C996 C998 1.391 . S
C997 C996 1.386 . S
C997 C1001 1.393 . S
C998 H990 0.950 . S
C998 C996 1.391 . S
C998 C999 1.400 . S
C999 C998 1.400 . S
C999 C1000 1.398 . S
C999 C1005 1.491 . S
C1000 H991 0.950 . S
C1000 C999 1.398 . S
C1000 C1001 1.391 . S
C1001 H989 0.950 . S
C1001 C997 1.393 . S
C1001 C1000 1.391 . S
C1002 H992 0.950 . S
C1002 C1003 1.386 . S
C1002 C1004 1.391 . S
C1003 C1002 1.386 . S
C1003 C1007 1.393 . S
C1004 H993 0.950 . S
C1004 C1002 1.391 . S
C1004 C1005 1.400 . S
C1005 C999 1.491 . S
C1005 C1004 1.400 . S
C1005 C1006 1.398 . S
C1006 H994 0.950 . S
C1006 C1005 1.398 . S
C1006 C1007 1.391 . S
C1007 H995 0.950 . S
C1007 C1003 1.393 . S
C1007 C1006 1.391 . S
H1008 C1016 0.950 . S
H1009 C1021 0.950 . S
H1010 C1018 0.950 . S
H1011 C1020 0.950 . S
H1012 C1022 0.950 . S
H1013 C1024 0.950 1_655 S
H1014 C1026 0.950 . S
H1015 C1027 0.950 . S
C1016 H1008 0.950 . S
C1016 C1017 1.386 1_455 S
C1016 C1018 1.391 . S
C1017 C1016 1.386 1_655 S
C1017 C1021 1.393 . S
C1018 H1010 0.950 . S
C1018 C1016 1.391 . S
C1018 C1019 1.400 . S
C1019 C1018 1.400 . S
C1019 C1020 1.398 1_455 S
C1019 C1025 1.491 . S
C1020 H1011 0.950 . S
C1020 C1019 1.398 1_655 S
C1020 C1021 1.391 . S
C1021 H1009 0.950 . S
C1021 C1017 1.393 . S
C1021 C1020 1.391 . S
C1022 H1012 0.950 . S
C1022 C1023 1.386 . S
C1022 C1024 1.391 . S
C1023 C1022 1.386 . S
C1023 C1027 1.393 . S
C1024 H1013 0.950 1_455 S
C1024 C1022 1.391 . S
C1024 C1025 1.400 . S
C1025 C1019 1.491 . S
C1025 C1024 1.400 . S
C1025 C1026 1.398 . S
C1026 H1014 0.950 . S
C1026 C1025 1.398 . S
C1026 C1027 1.391 . S
C1027 H1015 0.950 . S
C1027 C1023 1.393 . S
C1027 C1026 1.391 . S
H1028 C1036 0.950 . S
H1029 C1041 0.950 . S
H1030 C1038 0.950 . S
H1031 C1040 0.950 . S
H1032 C1042 0.950 . S
H1033 C1044 0.950 . S
H1034 C1046 0.950 1_655 S
H1035 C1047 0.950 . S
C1036 H1028 0.950 . S
C1036 C1037 1.386 . S
C1036 C1038 1.391 . S
C1037 C1036 1.386 . S
C1037 C1041 1.393 1_655 S
C1038 H1030 0.950 . S
C1038 C1036 1.391 . S
C1038 C1039 1.400 1_655 S
C1039 C1038 1.400 1_455 S
C1039 C1040 1.398 . S
C1039 C1045 1.491 . S
C1040 H1031 0.950 . S
C1040 C1039 1.398 . S
C1040 C1041 1.391 . S
C1041 H1029 0.950 . S
C1041 C1037 1.393 1_455 S
C1041 C1040 1.391 . S
C1042 H1032 0.950 . S
C1042 C1043 1.386 1_545 S
C1042 C1044 1.391 . S
C1043 C1042 1.386 1_565 S
C1043 C1047 1.393 . S
C1044 H1033 0.950 . S
C1044 C1042 1.391 . S
C1044 C1045 1.400 . S
C1045 C1039 1.491 . S
C1045 C1044 1.400 . S
C1045 C1046 1.398 1_545 S
C1046 H1034 0.950 1_455 S
C1046 C1045 1.398 1_565 S
C1046 C1047 1.391 . S
C1047 H1035 0.950 . S
C1047 C1043 1.393 . S
C1047 C1046 1.391 . S
H1048 C1056 0.950 . S
H1049 C1061 0.950 . S
H1050 C1058 0.950 . S
H1051 C1060 0.950 . S
H1052 C1062 0.950 . S
H1053 C1064 0.950 . S
H1054 C1066 0.950 . S
H1055 C1067 0.950 . S
C1056 H1048 0.950 . S
C1056 C1057 1.386 . S
C1056 C1058 1.391 . S
C1057 C1056 1.386 . S
C1057 C1061 1.393 . S
C1058 H1050 0.950 . S
C1058 C1056 1.391 . S
C1058 C1059 1.400 . S
C1059 C1058 1.400 . S
C1059 C1060 1.398 . S
C1059 C1065 1.491 . S
C1060 H1051 0.950 . S
C1060 C1059 1.398 . S
C1060 C1061 1.391 . S
C1061 H1049 0.950 . S
C1061 C1057 1.393 . S
C1061 C1060 1.391 . S
C1062 H1052 0.950 . S
C1062 C1063 1.386 . S
C1062 C1064 1.391 . S
C1063 C1062 1.386 . S
C1063 C1067 1.393 . S
C1064 H1053 0.950 . S
C1064 C1062 1.391 . S
C1064 C1065 1.400 1_565 S
C1065 C1059 1.491 . S
C1065 C1064 1.400 1_545 S
C1065 C1066 1.398 . S
C1066 H1054 0.950 . S
C1066 C1065 1.398 . S
C1066 C1067 1.391 1_545 S
C1067 H1055 0.950 . S
C1067 C1063 1.393 . S
C1067 C1066 1.391 1_565 S
H1068 C1076 0.950 . S
H1069 C1081 0.950 . S
H1070 C1078 0.950 . S
H1071 C1080 0.950 . S
H1072 C1082 0.950 . S
H1073 C1084 0.950 . S
H1074 C1086 0.950 . S
H1075 C1087 0.950 . S
C1076 H1068 0.950 . S
C1076 C1077 1.386 . S
C1076 C1078 1.391 . S
C1077 C1076 1.386 . S
C1077 C1081 1.393 . S
C1078 H1070 0.950 . S
C1078 C1076 1.391 . S
C1078 C1079 1.400 . S
C1079 C1078 1.400 . S
C1079 C1080 1.398 . S
C1079 C1085 1.491 . S
C1080 H1071 0.950 . S
C1080 C1079 1.398 . S
C1080 C1081 1.391 . S
C1081 H1069 0.950 . S
C1081 C1077 1.393 . S
C1081 C1080 1.391 . S
C1082 H1072 0.950 . S
C1082 C1083 1.386 . S
C1082 C1084 1.391 . S
C1083 C1082 1.386 . S
C1083 C1087 1.393 . S
C1084 H1073 0.950 . S
C1084 C1082 1.391 . S
C1084 C1085 1.400 . S
C1085 C1079 1.491 . S
C1085 C1084 1.400 . S
C1085 C1086 1.398 . S
C1086 H1074 0.950 . S
C1086 C1085 1.398 . S
C1086 C1087 1.391 . S
C1087 H1075 0.950 . S
C1087 C1083 1.393 . S
C1087 C1086 1.391 . S
H1088 C1096 0.950 . S
H1089 C1101 0.950 . S
H1090 C1098 0.950 1_655 S
H1091 C1100 0.950 . S
H1092 C1102 0.950 . S
H1093 C1104 0.950 . S
H1094 C1106 0.950 . S
H1095 C1107 0.950 . S
C1096 H1088 0.950 . S
C1096 C1097 1.386 . S
C1096 C1098 1.391 . S
C1097 C1096 1.386 . S
C1097 C1101 1.393 . S
C1098 H1090 0.950 1_455 S
C1098 C1096 1.391 . S
C1098 C1099 1.400 . S
C1099 C1098 1.400 . S
C1099 C1100 1.398 . S
C1099 C1105 1.491 . S
C1100 H1091 0.950 . S
C1100 C1099 1.398 . S
C1100 C1101 1.391 . S
C1101 H1089 0.950 . S
C1101 C1097 1.393 . S
C1101 C1100 1.391 . S
C1102 H1092 0.950 . S
C1102 C1103 1.386 1_455 S
C1102 C1104 1.391 . S
C1103 C1102 1.386 1_655 S
C1103 C1107 1.393 . S
C1104 H1093 0.950 . S
C1104 C1102 1.391 . S
C1104 C1105 1.400 . S
C1105 C1099 1.491 . S
C1105 C1104 1.400 . S
C1105 C1106 1.398 1_455 S
C1106 H1094 0.950 . S
C1106 C1105 1.398 1_655 S
C1106 C1107 1.391 . S
C1107 H1095 0.950 . S
C1107 C1103 1.393 . S
C1107 C1106 1.391 . S
H1108 C1116 0.950 . S
H1109 C1121 0.950 . S
H1110 C1118 0.950 . S
H1111 C1120 0.950 . S
H1112 C1122 0.950 . S
H1113 C1124 0.950 1_565 S
H1114 C1126 0.950 . S
H1115 C1127 0.950 . S
C1116 H1108 0.950 . S
C1116 C1117 1.386 1_545 S
C1116 C1118 1.391 . S
C1117 C1116 1.386 1_565 S
C1117 C1121 1.393 . S
C1118 H1110 0.950 . S
C1118 C1116 1.391 . S
C1118 C1119 1.400 . S
C1119 C1118 1.400 . S
C1119 C1120 1.398 1_545 S
C1119 C1125 1.491 . S
C1120 H1111 0.950 . S
C1120 C1119 1.398 1_565 S
C1120 C1121 1.391 . S
C1121 H1109 0.950 . S
C1121 C1117 1.393 . S
C1121 C1120 1.391 . S
C1122 H1112 0.950 . S
C1122 C1123 1.386 1_455 S
C1122 C1124 1.391 . S
C1123 C1122 1.386 1_655 S
C1123 C1127 1.393 . S
C1124 H1113 0.950 1_545 S
C1124 C1122 1.391 . S
C1124 C1125 1.400 . S
C1125 C1119 1.491 . S
C1125 C1124 1.400 . S
C1125 C1126 1.398 1_455 S
C1126 H1114 0.950 . S
C1126 C1125 1.398 1_655 S
C1126 C1127 1.391 . S
C1127 H1115 0.950 . S
C1127 C1123 1.393 . S
C1127 C1126 1.391 . S
H1128 C1136 0.950 . S
H1129 C1141 0.950 . S
H1130 C1138 0.950 1_565 S
H1131 C1140 0.950 . S
H1132 C1142 0.950 . S
H1133 C1144 0.950 . S
H1134 C1146 0.950 . S
H1135 C1147 0.950 . S
C1136 H1128 0.950 . S
C1136 C1137 1.386 . S
C1136 C1138 1.391 . S
C1137 C1136 1.386 . S
C1137 C1141 1.393 . S
C1138 H1130 0.950 1_545 S
C1138 C1136 1.391 . S
C1138 C1139 1.400 . S
C1139 C1138 1.400 . S
C1139 C1140 1.398 . S
C1139 C1145 1.491 . S
C1140 H1131 0.950 . S
C1140 C1139 1.398 . S
C1140 C1141 1.391 . S
C1141 H1129 0.950 . S
C1141 C1137 1.393 . S
C1141 C1140 1.391 . S
C1142 H1132 0.950 . S
C1142 C1143 1.386 1_545 S
C1142 C1144 1.391 . S
C1143 C1142 1.386 1_565 S
C1143 C1147 1.393 . S
C1144 H1133 0.950 . S
C1144 C1142 1.391 . S
C1144 C1145 1.400 . S
C1145 C1139 1.491 . S
C1145 C1144 1.400 . S
C1145 C1146 1.398 1_545 S
C1146 H1134 0.950 . S
C1146 C1145 1.398 1_565 S
C1146 C1147 1.391 . S
C1147 H1135 0.950 . S
C1147 C1143 1.393 . S
C1147 C1146 1.391 . S
H1148 C1156 0.950 . S
H1149 C1161 0.950 . S
H1150 C1158 0.950 . S
H1151 C1160 0.950 . S
H1152 C1162 0.950 . S
H1153 C1164 0.950 . S
H1154 C1166 0.950 . S
H1155 C1167 0.950 . S
C1156 H1148 0.950 . S
C1156 C1157 1.386 . S
C1156 C1158 1.391 . S
C1157 C1156 1.386 . S
C1157 C1161 1.393 . S
C1158 H1150 0.950 . S
C1158 C1156 1.391 . S
C1158 C1159 1.400 . S
C1159 C1158 1.400 . S
C1159 C1160 1.398 . S
C1159 C1165 1.491 . S
C1160 H1151 0.950 . S
C1160 C1159 1.398 . S
C1160 C1161 1.391 . S
C1161 H1149 0.950 . S
C1161 C1157 1.393 . S
C1161 C1160 1.391 . S
C1162 H1152 0.950 . S
C1162 C1163 1.386 . S
C1162 C1164 1.391 . S
C1163 C1162 1.386 . S
C1163 C1167 1.393 . S
C1164 H1153 0.950 . S
C1164 C1162 1.391 . S
C1164 C1165 1.400 . S
C1165 C1159 1.491 . S
C1165 C1164 1.400 . S
C1165 C1166 1.398 . S
C1166 H1154 0.950 . S
C1166 C1165 1.398 . S
C1166 C1167 1.391 . S
C1167 H1155 0.950 . S
C1167 C1163 1.393 . S
C1167 C1166 1.391 . S
H1168 C1176 0.950 . S
H1169 C1181 0.950 . S
H1170 C1178 0.950 . S
H1171 C1180 0.950 . S
H1172 C1182 0.950 . S
H1173 C1184 0.950 . S
H1174 C1186 0.950 . S
H1175 C1187 0.950 . S
C1176 H1168 0.950 . S
C1176 C1177 1.386 . S
C1176 C1178 1.391 . S
C1177 C1176 1.386 . S
C1177 C1181 1.393 . S
C1178 H1170 0.950 . S
C1178 C1176 1.391 . S
C1178 C1179 1.400 . S
C1179 C1178 1.400 . S
C1179 C1180 1.398 . S
C1179 C1185 1.491 . S
C1180 H1171 0.950 . S
C1180 C1179 1.398 . S
C1180 C1181 1.391 . S
C1181 H1169 0.950 . S
C1181 C1177 1.393 . S
C1181 C1180 1.391 . S
C1182 H1172 0.950 . S
C1182 C1183 1.386 . S
C1182 C1184 1.391 . S
C1183 C1182 1.386 . S
C1183 C1187 1.393 . S
C1184 H1173 0.950 . S
C1184 C1182 1.391 . S
C1184 C1185 1.400 . S
C1185 C1179 1.491 . S
C1185 C1184 1.400 . S
C1185 C1186 1.398 . S
C1186 H1174 0.950 . S
C1186 C1185 1.398 . S
C1186 C1187 1.391 . S
C1187 H1175 0.950 . S
C1187 C1183 1.393 . S
C1187 C1186 1.391 . S
H1188 C1196 0.950 . S
H1189 C1201 0.950 . S
H1190 C1198 0.950 . S
H1191 C1200 0.950 . S
H1192 C1202 0.950 . S
H1193 C1204 0.950 . S
H1194 C1206 0.950 . S
H1195 C1207 0.950 . S
C1196 H1188 0.950 . S
C1196 C1197 1.386 . S
C1196 C1198 1.391 . S
C1197 C1196 1.386 . S
C1197 C1201 1.393 . S
C1198 H1190 0.950 . S
C1198 C1196 1.391 . S
C1198 C1199 1.400 . S
C1199 C1198 1.400 . S
C1199 C1200 1.398 . S
C1199 C1205 1.491 . S
C1200 H1191 0.950 . S
C1200 C1199 1.398 . S
C1200 C1201 1.391 . S
C1201 H1189 0.950 . S
C1201 C1197 1.393 . S
C1201 C1200 1.391 . S
C1202 H1192 0.950 . S
C1202 C1203 1.386 . S
C1202 C1204 1.391 . S
C1203 C1202 1.386 . S
C1203 C1207 1.393 . S
C1204 H1193 0.950 . S
C1204 C1202 1.391 . S
C1204 C1205 1.400 . S
C1205 C1199 1.491 . S
C1205 C1204 1.400 . S
C1205 C1206 1.398 . S
C1206 H1194 0.950 . S
C1206 C1205 1.398 . S
C1206 C1207 1.391 . S
C1207 H1195 0.950 . S
C1207 C1203 1.393 . S
C1207 C1206 1.391 . S
H1208 C1216 0.950 . S
H1209 C1221 0.950 . S
H1210 C1218 0.950 . S
H1211 C1220 0.950 . S
H1212 C1222 0.950 . S
H1213 C1224 0.950 . S
H1214 C1226 0.950 . S
H1215 C1227 0.950 . S
C1216 H1208 0.950 . S
C1216 C1217 1.386 . S
C1216 C1218 1.391 . S
C1217 C1216 1.386 . S
C1217 C1221 1.393 . S
C1218 H1210 0.950 . S
C1218 C1216 1.391 . S
C1218 C1219 1.400 . S
C1219 C1218 1.400 . S
C1219 C1220 1.398 . S
C1219 C1225 1.491 . S
C1220 H1211 0.950 . S
C1220 C1219 1.398 . S
C1220 C1221 1.391 . S
C1221 H1209 0.950 . S
C1221 C1217 1.393 . S
C1221 C1220 1.391 . S
C1222 H1212 0.950 . S
C1222 C1223 1.386 . S
C1222 C1224 1.391 . S
C1223 C1222 1.386 . S
C1223 C1227 1.393 . S
C1224 H1213 0.950 . S
C1224 C1222 1.391 . S
C1224 C1225 1.400 . S
C1225 C1219 1.491 . S
C1225 C1224 1.400 . S
C1225 C1226 1.398 . S
C1226 H1214 0.950 . S
C1226 C1225 1.398 . S
C1226 C1227 1.391 . S
C1227 H1215 0.950 . S
C1227 C1223 1.393 . S
C1227 C1226 1.391 . S
H1228 C1236 0.950 . S
H1229 C1241 0.950 . S
H1230 C1238 0.950 . S
H1231 C1240 0.950 . S
H1232 C1242 0.950 . S
H1233 C1244 0.950 . S
H1234 C1246 0.950 . S
H1235 C1247 0.950 . S
C1236 H1228 0.950 . S
C1236 C1237 1.386 . S
C1236 C1238 1.391 . S
C1237 C1236 1.386 . S
C1237 C1241 1.393 . S
C1238 H1230 0.950 . S
C1238 C1236 1.391 . S
C1238 C1239 1.400 . S
C1239 C1238 1.400 . S
C1239 C1240 1.398 . S
C1239 C1245 1.491 . S
C1240 H1231 0.950 . S
C1240 C1239 1.398 . S
C1240 C1241 1.391 . S
C1241 H1229 0.950 . S
C1241 C1237 1.393 . S
C1241 C1240 1.391 . S
C1242 H1232 0.950 . S
C1242 C1243 1.386 . S
C1242 C1244 1.391 . S
C1243 C1242 1.386 . S
C1243 C1247 1.393 . S
C1244 H1233 0.950 . S
C1244 C1242 1.391 . S
C1244 C1245 1.400 . S
C1245 C1239 1.491 . S
C1245 C1244 1.400 . S
C1245 C1246 1.398 . S
C1246 H1234 0.950 . S
C1246 C1245 1.398 . S
C1246 C1247 1.391 . S
C1247 H1235 0.950 . S
C1247 C1243 1.393 . S
C1247 C1246 1.391 . S
H1248 C1256 0.950 . S
H1249 C1261 0.950 . S
H1250 C1258 0.950 . S
H1251 C1260 0.950 . S
H1252 C1262 0.950 . S
H1253 C1264 0.950 . S
H1254 C1266 0.950 . S
H1255 C1267 0.950 . S
C1256 H1248 0.950 . S
C1256 C1257 1.386 . S
C1256 C1258 1.391 . S
C1257 C1256 1.386 . S
C1257 C1261 1.393 . S
C1258 H1250 0.950 . S
C1258 C1256 1.391 . S
C1258 C1259 1.400 . S
C1259 C1258 1.400 . S
C1259 C1260 1.398 . S
C1259 C1265 1.491 . S
C1260 H1251 0.950 . S
C1260 C1259 1.398 . S
C1260 C1261 1.391 . S
C1261 H1249 0.950 . S
C1261 C1257 1.393 . S
C1261 C1260 1.391 . S
C1262 H1252 0.950 . S
C1262 C1263 1.386 . S
C1262 C1264 1.391 . S
C1263 C1262 1.386 . S
C1263 C1267 1.393 . S
C1264 H1253 0.950 . S
C1264 C1262 1.391 . S
C1264 C1265 1.400 . S
C1265 C1259 1.491 . S
C1265 C1264 1.400 . S
C1265 C1266 1.398 . S
C1266 H1254 0.950 . S
C1266 C1265 1.398 . S
C1266 C1267 1.391 . S
C1267 H1255 0.950 . S
C1267 C1263 1.393 . S
C1267 C1266 1.391 . S
H1268 C1276 0.950 . S
H1269 C1281 0.950 . S
H1270 C1278 0.950 . S
H1271 C1280 0.950 . S
H1272 C1282 0.950 . S
H1273 C1284 0.950 . S
H1274 C1286 0.950 . S
H1275 C1287 0.950 . S
C1276 H1268 0.950 . S
C1276 C1277 1.386 . S
C1276 C1278 1.391 . S
C1277 C1276 1.386 . S
C1277 C1281 1.393 . S
C1278 H1270 0.950 . S
C1278 C1276 1.391 . S
C1278 C1279 1.400 . S
C1279 C1278 1.400 . S
C1279 C1280 1.398 . S
C1279 C1285 1.491 . S
C1280 H1271 0.950 . S
C1280 C1279 1.398 . S
C1280 C1281 1.391 . S
C1281 H1269 0.950 . S
C1281 C1277 1.393 . S
C1281 C1280 1.391 . S
C1282 H1272 0.950 . S
C1282 C1283 1.386 . S
C1282 C1284 1.391 . S
C1283 C1282 1.386 . S
C1283 C1287 1.393 . S
C1284 H1273 0.950 . S
C1284 C1282 1.391 . S
C1284 C1285 1.400 . S
C1285 C1279 1.491 . S
C1285 C1284 1.400 . S
C1285 C1286 1.398 . S
C1286 H1274 0.950 . S
C1286 C1285 1.398 . S
C1286 C1287 1.391 . S
C1287 H1275 0.950 . S
C1287 C1283 1.393 . S
C1287 C1286 1.391 . S
H1288 C1296 0.950 . S
H1289 C1301 0.950 . S
H1290 C1298 0.950 . S
H1291 C1300 0.950 . S
H1292 C1302 0.950 . S
H1293 C1304 0.950 . S
H1294 C1306 0.950 . S
H1295 C1307 0.950 . S
C1296 H1288 0.950 . S
C1296 C1297 1.386 . S
C1296 C1298 1.391 . S
C1297 C1296 1.386 . S
C1297 C1301 1.393 . S
C1298 H1290 0.950 . S
C1298 C1296 1.391 . S
C1298 C1299 1.400 . S
C1299 C1298 1.400 . S
C1299 C1300 1.398 . S
C1299 C1305 1.491 . S
C1300 H1291 0.950 . S
C1300 C1299 1.398 . S
C1300 C1301 1.391 . S
C1301 H1289 0.950 . S
C1301 C1297 1.393 . S
C1301 C1300 1.391 . S
C1302 H1292 0.950 . S
C1302 C1303 1.386 . S
C1302 C1304 1.391 . S
C1303 C1302 1.386 . S
C1303 C1307 1.393 . S
C1304 H1293 0.950 . S
C1304 C1302 1.391 . S
C1304 C1305 1.400 . S
C1305 C1299 1.491 . S
C1305 C1304 1.400 . S
C1305 C1306 1.398 . S
C1306 H1294 0.950 . S
C1306 C1305 1.398 . S
C1306 C1307 1.391 . S
C1307 H1295 0.950 . S
C1307 C1303 1.393 . S
C1307 C1306 1.391 . S
H1308 C1316 0.950 . S
H1309 C1321 0.950 . S
H1310 C1318 0.950 . S
H1311 C1320 0.950 . S
H1312 C1322 0.950 . S
H1313 C1324 0.950 . S
H1314 C1326 0.950 . S
H1315 C1327 0.950 . S
C1316 H1308 0.950 . S
C1316 C1317 1.386 . S
C1316 C1318 1.391 . S
C1317 C1316 1.386 . S
C1317 C1321 1.393 . S
C1318 H1310 0.950 . S
C1318 C1316 1.391 . S
C1318 C1319 1.400 . S
C1319 C1318 1.400 . S
C1319 C1320 1.398 . S
C1319 C1325 1.491 . S
C1320 H1311 0.950 . S
C1320 C1319 1.398 . S
C1320 C1321 1.391 . S
C1321 H1309 0.950 . S
C1321 C1317 1.393 . S
C1321 C1320 1.391 . S
C1322 H1312 0.950 . S
C1322 C1323 1.386 . S
C1322 C1324 1.391 . S
C1323 C1322 1.386 . S
C1323 C1327 1.393 . S
C1324 H1313 0.950 . S
C1324 C1322 1.391 . S
C1324 C1325 1.400 . S
C1325 C1319 1.491 . S
C1325 C1324 1.400 . S
C1325 C1326 1.398 . S
C1326 H1314 0.950 . S
C1326 C1325 1.398 . S
C1326 C1327 1.391 . S
C1327 H1315 0.950 . S
C1327 C1323 1.393 . S
C1327 C1326 1.391 . S
H1328 C1336 0.950 . S
H1329 C1341 0.950 . S
H1330 C1338 0.950 . S
H1331 C1340 0.950 . S
H1332 C1342 0.950 . S
H1333 C1344 0.926 1_455 S
H1334 C1346 0.950 . S
H1335 C1347 0.950 . S
C1336 H1328 0.950 . S
C1336 C1337 1.386 . S
C1336 C1338 1.391 . S
C1337 C1336 1.386 . S
C1337 C1341 1.393 . S
C1338 H1330 0.950 . S
C1338 C1336 1.391 . S
C1338 C1339 1.400 1_554 S
C1339 C1338 1.400 1_556 S
C1339 C1340 1.398 . S
C1339 C1345 1.491 1_455 S
C1340 H1331 0.950 . S
C1340 C1339 1.398 . S
C1340 C1341 1.391 1_556 S
C1341 H1329 0.950 . S
C1341 C1337 1.393 . S
C1341 C1340 1.391 1_554 S
C1342 H1332 0.950 . S
C1342 C1343 1.386 . S
C1342 C1344 1.413 . S
C1343 C1342 1.386 . S
C1343 C1347 1.393 . S
C1344 H1333 0.926 1_655 S
C1344 C1342 1.413 . S
C1344 C1345 1.401 . S
C1345 C1339 1.491 1_655 S
C1345 C1344 1.401 . S
C1345 C1346 1.398 . S
C1346 H1334 0.950 . S
C1346 C1345 1.398 . S
C1346 C1347 1.391 . S
C1347 H1335 0.950 . S
C1347 C1343 1.393 . S
C1347 C1346 1.391 . S
H1348 C1356 0.950 . S
H1349 C1361 0.950 . S
H1350 C1358 0.950 . S
H1351 C1360 0.950 1_554 S
H1352 C1362 0.950 . S
H1353 C1364 0.950 1_655 S
H1354 C1366 0.950 . S
H1355 C1367 0.950 1_556 S
C1356 H1348 0.950 . S
C1356 C1357 1.386 . S
C1356 C1358 1.391 1_565 S
C1357 C1356 1.386 . S
C1357 C1361 1.393 . S
C1358 H1350 0.950 . S
C1358 C1356 1.391 1_545 S
C1358 C1359 1.400 1_545 S
C1359 C1358 1.400 1_565 S
C1359 C1360 1.398 . S
C1359 C1365 1.491 1_565 S
C1360 H1351 0.950 1_556 S
C1360 C1359 1.398 . S
C1360 C1361 1.391 . S
C1361 H1349 0.950 . S
C1361 C1357 1.393 . S
C1361 C1360 1.391 . S
C1362 H1352 0.950 . S
C1362 C1363 1.388 . S
C1362 C1364 1.391 1_655 S
C1363 C1362 1.388 . S
C1363 C1367 1.386 1_655 S
C1364 H1353 0.950 1_455 S
C1364 C1362 1.391 1_455 S
C1364 C1365 1.400 1_554 S
C1365 C1359 1.491 1_545 S
C1365 C1364 1.400 1_556 S
C1365 C1366 1.398 . S
C1366 H1354 0.950 . S
C1366 C1365 1.398 . S
C1366 C1367 1.391 1_556 S
C1367 H1355 0.950 1_554 S
C1367 C1363 1.386 1_455 S
C1367 C1366 1.391 1_554 S
H1368 C1376 0.950 . S
H1369 C1381 0.939 1_565 S
H1370 C1378 0.950 . S
H1371 C1380 0.950 . S
H1372 C1382 0.950 . S
H1373 C1384 0.950 1_554 S
H1374 C1386 0.950 . S
H1375 C1387 0.950 . S
C1376 H1368 0.950 . S
C1376 C1377 1.383 1_546 S
C1376 C1378 1.391 . S
C1377 C1376 1.383 1_564 S
C1377 C1381 1.392 1_565 S
C1378 H1370 0.950 . S
C1378 C1376 1.391 . S
C1378 C1379 1.400 . S
C1379 C1378 1.400 . S
C1379 C1380 1.398 1_556 S
C1379 C1385 1.491 . S
C1380 H1371 0.950 . S
C1380 C1379 1.398 1_554 S
C1380 C1381 1.404 . S
C1381 H1369 0.939 1_545 S
C1381 C1377 1.392 1_545 S
C1381 C1380 1.404 . S
C1382 H1372 0.950 . S
C1382 C1383 1.386 . S
C1382 C1384 1.391 . S
C1383 C1382 1.386 . S
C1383 C1387 1.393 . S
C1384 H1373 0.950 1_556 S
C1384 C1382 1.391 . S
C1384 C1385 1.400 . S
C1385 C1379 1.491 . S
C1385 C1384 1.400 . S
C1385 C1386 1.398 . S
C1386 H1374 0.950 . S
C1386 C1385 1.398 . S
C1386 C1387 1.391 . S
C1387 H1375 0.950 . S
C1387 C1383 1.393 . S
C1387 C1386 1.391 . S
H1388 C1396 0.950 . S
H1389 C1401 0.950 . S
H1390 C1398 0.950 . S
H1391 C1400 0.950 . S
H1392 C1402 0.950 . S
H1393 C1404 0.950 . S
H1394 C1406 0.950 . S
H1395 C1407 0.950 . S
C1396 H1388 0.950 . S
C1396 C1397 1.386 . S
C1396 C1398 1.391 . S
C1397 C1396 1.386 . S
C1397 C1401 1.393 . S
C1398 H1390 0.950 . S
C1398 C1396 1.391 . S
C1398 C1399 1.400 . S
C1399 C1398 1.400 . S
C1399 C1400 1.398 . S
C1399 C1405 1.491 . S
C1400 H1391 0.950 . S
C1400 C1399 1.398 . S
C1400 C1401 1.391 . S
C1401 H1389 0.950 . S
C1401 C1397 1.393 . S
C1401 C1400 1.391 . S
C1402 H1392 0.950 . S
C1402 C1403 1.386 . S
C1402 C1404 1.391 . S
C1403 C1402 1.386 . S
C1403 C1407 1.393 . S
C1404 H1393 0.950 . S
C1404 C1402 1.391 . S
C1404 C1405 1.400 1_554 S
C1405 C1399 1.491 . S
C1405 C1404 1.400 1_556 S
C1405 C1406 1.398 . S
C1406 H1394 0.950 . S
C1406 C1405 1.398 . S
C1406 C1407 1.391 1_556 S
C1407 H1395 0.950 . S
C1407 C1403 1.393 . S
C1407 C1406 1.391 1_554 S
H1408 C1416 0.950 . S
H1409 C1421 0.950 . S
H1410 C1418 0.950 . S
H1411 C1420 0.950 . S
H1412 C1422 0.950 . S
H1413 C1424 0.950 1_455 S
H1414 C1426 0.950 . S
H1415 C1427 0.950 . S
C1416 H1408 0.950 . S
C1416 C1417 1.386 1_545 S
C1416 C1418 1.391 . S
C1417 C1416 1.386 1_565 S
C1417 C1421 1.393 . S
C1418 H1410 0.950 . S
C1418 C1416 1.391 . S
C1418 C1419 1.400 . S
C1419 C1418 1.400 . S
C1419 C1420 1.398 . S
C1419 C1425 1.491 1_455 S
C1420 H1411 0.950 . S
C1420 C1419 1.398 . S
C1420 C1421 1.391 1_545 S
C1421 H1409 0.950 . S
C1421 C1417 1.393 . S
C1421 C1420 1.391 1_565 S
C1422 H1412 0.950 . S
C1422 C1423 1.386 . S
C1422 C1424 1.391 . S
C1423 C1422 1.386 . S
C1423 C1427 1.393 . S
C1424 H1413 0.950 1_655 S
C1424 C1422 1.391 . S
C1424 C1425 1.400 . S
C1425 C1419 1.491 1_655 S
C1425 C1424 1.400 . S
C1425 C1426 1.398 . S
C1426 H1414 0.950 . S
C1426 C1425 1.398 . S
C1426 C1427 1.391 . S
C1427 H1415 0.950 . S
C1427 C1423 1.393 . S
C1427 C1426 1.391 . S
H1428 C1436 0.950 . S
H1429 C1441 0.950 . S
H1430 C1438 0.950 . S
H1431 C1440 0.950 . S
H1432 C1442 0.950 . S
H1433 C1444 0.950 . S
H1434 C1446 0.948 . S
H1435 C1447 0.950 . S
C1436 H1428 0.950 . S
C1436 C1437 1.386 . S
C1436 C1438 1.391 . S
C1437 C1436 1.386 . S
C1437 C1441 1.393 . S
C1438 H1430 0.950 . S
C1438 C1436 1.391 . S
C1438 C1439 1.400 . S
C1439 C1438 1.400 . S
C1439 C1440 1.398 . S
C1439 C1445 1.491 1_545 S
C1440 H1431 0.950 . S
C1440 C1439 1.398 . S
C1440 C1441 1.391 . S
C1441 H1429 0.950 . S
C1441 C1437 1.393 . S
C1441 C1440 1.391 . S
C1442 H1432 0.950 . S
C1442 C1443 1.386 . S
C1442 C1444 1.391 . S
C1443 C1442 1.386 . S
C1443 C1447 1.393 . S
C1444 H1433 0.950 . S
C1444 C1442 1.391 . S
C1444 C1445 1.400 . S
C1445 C1439 1.491 1_565 S
C1445 C1444 1.400 . S
C1445 C1446 1.398 1_565 S
C1446 H1434 0.948 . S
C1446 C1445 1.398 1_545 S
C1446 C1447 1.393 1_545 S
C1447 H1435 0.950 . S
C1447 C1443 1.393 . S
C1447 C1446 1.393 1_565 S
H1448 C1456 0.950 . S
H1449 C1461 0.950 . S
H1450 C1458 0.950 . S
H1451 C1460 0.950 . S
H1452 C1462 0.950 . S
H1453 C1464 0.950 . S
H1454 C1466 0.950 . S
H1455 C1467 0.950 . S
C1456 H1448 0.950 . S
C1456 C1457 1.386 . S
C1456 C1458 1.391 . S
C1457 C1456 1.386 . S
C1457 C1461 1.393 . S
C1458 H1450 0.950 . S
C1458 C1456 1.391 . S
C1458 C1459 1.400 . S
C1459 C1458 1.400 . S
C1459 C1460 1.398 . S
C1459 C1465 1.491 . S
C1460 H1451 0.950 . S
C1460 C1459 1.398 . S
C1460 C1461 1.391 . S
C1461 H1449 0.950 . S
C1461 C1457 1.393 . S
C1461 C1460 1.391 . S
C1462 H1452 0.950 . S
C1462 C1463 1.386 . S
C1462 C1464 1.391 . S
C1463 C1462 1.386 . S
C1463 C1467 1.393 . S
C1464 H1453 0.950 . S
C1464 C1462 1.391 . S
C1464 C1465 1.400 . S
C1465 C1459 1.491 . S
C1465 C1464 1.400 . S
C1465 C1466 1.398 . S
C1466 H1454 0.950 . S
C1466 C1465 1.398 . S
C1466 C1467 1.391 . S
C1467 H1455 0.950 . S
C1467 C1463 1.393 . S
C1467 C1466 1.391 . S
H1468 C1476 0.950 . S
H1469 C1481 0.950 1_655 S
H1470 C1478 0.950 . S
H1471 C1480 0.950 . S
H1472 C1482 0.950 . S
H1473 C1484 0.950 . S
H1474 C1486 0.950 . S
H1475 C1487 0.950 . S
C1476 H1468 0.950 . S
C1476 C1477 1.383 1_455 S
C1476 C1478 1.391 . S
C1477 C1476 1.383 1_655 S
C1477 C1481 1.392 1_655 S
C1478 H1470 0.950 . S
C1478 C1476 1.391 . S
C1478 C1479 1.400 . S
C1479 C1478 1.400 . S
C1479 C1480 1.398 . S
C1479 C1485 1.491 . S
C1480 H1471 0.950 . S
C1480 C1479 1.398 . S
C1480 C1481 1.391 . S
C1481 H1469 0.950 1_455 S
C1481 C1477 1.392 1_455 S
C1481 C1480 1.391 . S
C1482 H1472 0.950 . S
C1482 C1483 1.386 . S
C1482 C1484 1.391 . S
C1483 C1482 1.386 . S
C1483 C1487 1.393 . S
C1484 H1473 0.950 . S
C1484 C1482 1.391 . S
C1484 C1485 1.400 . S
C1485 C1479 1.491 . S
C1485 C1484 1.400 . S
C1485 C1486 1.398 . S
C1486 H1474 0.950 . S
C1486 C1485 1.398 . S
C1486 C1487 1.391 . S
C1487 H1475 0.950 . S
C1487 C1483 1.393 . S
C1487 C1486 1.391 . S
C857 C38 2.513 . S
C863 C144 2.506 . S
C877 C91 2.507 . S
C883 C197 2.515 . S
C897 C250 2.511 . S
C903 C356 2.507 . S
C917 C409 2.516 . S
C923 C303 2.506 . S
C937 C453 0.993 . S
C943 C559 1.007 . S
C957 C612 0.989 . S
C963 C506 1.009 . S
C977 C771 1.005 . S
C983 C665 0.987 . S
C997 C824 1.006 . S
C1003 C718 0.987 . S
C1017 C410 2.415 . S
C1023 C39 2.414 . S
C1037 C92 2.427 . S
C1043 C251 2.427 . S
C1057 C304 2.416 . S
C1063 C145 2.415 . S
C1077 C198 2.427 . S
C1083 C357 2.427 . S
C1097 C817 1.046 . S
C1103 C446 1.046 . S
C1117 C499 1.020 . S
C1123 C658 1.016 . S
C1137 C552 1.024 . S
C1143 C711 1.020 . S
C1157 C764 1.028 . S
C1163 C605 1.025 . S
C1177 C29 0.743 . S
C1183 C241 0.766 . S
C1197 C82 0.745 . S
C1203 C294 0.743 . S
C1217 C347 0.754 . S
C1223 C135 0.740 . S
C1237 C188 0.764 . S
C1243 C400 0.742 . S
C1257 C674 1.340 . S
C1263 C462 1.329 . S
C1277 C727 1.334 . S
C1283 C515 1.334 . S
C1297 C568 1.342 . S
C1303 C780 1.329 . S
C1317 C621 1.333 . S
C1323 C833 1.344 . S
C1337 C22 2.304 . S
C1343 C463 2.304 . S
C1357 C516 2.305 . S
C1363 C75 2.310 . S
C1377 C128 2.310 . S
C1383 C569 2.305 . S
C1397 C622 2.309 . S
C1403 C181 2.309 . S
C1417 C234 2.293 . S
C1423 C675 2.293 . S
C1437 C287 2.297 . S
C1443 C728 2.297 . S
C1457 C781 2.298 . S
C1463 C340 2.299 . S
C1477 C393 2.310 . S
C1483 C834 2.305 . S
