# Generated by pormake.
# Topology wjx, (5)-cn, num edge types: 1
# Building blocks:
#     Node 0, Type 0, BuildingBlock: XOMCOT_clean_sbu_1, # of connection points: 5
#     Node 1, Type 0, BuildingBlock: XOMCOT_clean_sbu_1, # of connection points: 5
#     Node 2, Type 0, BuildingBlock: XOMCOT_clean_sbu_1, # of connection points: 5
#     Node 3, Type 0, BuildingBlock: XOMCOT_clean_sbu_1, # of connection points: 5
#     Node 4, Type 0, BuildingBlock: XOMCOT_clean_sbu_1, # of connection points: 5
#     Node 5, Type 0, BuildingBlock: XOMCOT_clean_sbu_1, # of connection points: 5
#     Node 6, Type 0, BuildingBlock: XOMCOT_clean_sbu_1, # of connection points: 5
#     Node 7, Type 0, BuildingBlock: XOMCOT_clean_sbu_1, # of connection points: 5
#     Node 8, Type 0, BuildingBlock: XOMCOT_clean_sbu_1, # of connection points: 5
#     Node 9, Type 0, BuildingBlock: XOMCOT_clean_sbu_1, # of connection points: 5
#     Node 10, Type 0, BuildingBlock: XOMCOT_clean_sbu_1, # of connection points: 5
#     Node 11, Type 0, BuildingBlock: XOMCOT_clean_sbu_1, # of connection points: 5
#     Edge 12, Type (0, 0), BuildingBlock: OJICUG_clean_linker_0, # of connection points: 2
#     Edge 13, Type (0, 0), BuildingBlock: OJICUG_clean_linker_0, # of connection points: 2
#     Edge 14, Type (0, 0), BuildingBlock: OJICUG_clean_linker_0, # of connection points: 2
#     Edge 15, Type (0, 0), BuildingBlock: OJICUG_clean_linker_0, # of connection points: 2
#     Edge 16, Type (0, 0), BuildingBlock: OJICUG_clean_linker_0, # of connection points: 2
#     Edge 17, Type (0, 0), BuildingBlock: OJICUG_clean_linker_0, # of connection points: 2
#     Edge 18, Type (0, 0), BuildingBlock: OJICUG_clean_linker_0, # of connection points: 2
#     Edge 19, Type (0, 0), BuildingBlock: OJICUG_clean_linker_0, # of connection points: 2
#     Edge 20, Type (0, 0), BuildingBlock: OJICUG_clean_linker_0, # of connection points: 2
#     Edge 21, Type (0, 0), BuildingBlock: OJICUG_clean_linker_0, # of connection points: 2
#     Edge 22, Type (0, 0), BuildingBlock: OJICUG_clean_linker_0, # of connection points: 2
#     Edge 23, Type (0, 0), BuildingBlock: OJICUG_clean_linker_0, # of connection points: 2
#     Edge 24, Type (0, 0), BuildingBlock: OJICUG_clean_linker_0, # of connection points: 2
#     Edge 25, Type (0, 0), BuildingBlock: OJICUG_clean_linker_0, # of connection points: 2
#     Edge 26, Type (0, 0), BuildingBlock: OJICUG_clean_linker_0, # of connection points: 2
#     Edge 27, Type (0, 0), BuildingBlock: OJICUG_clean_linker_0, # of connection points: 2
#     Edge 28, Type (0, 0), BuildingBlock: OJICUG_clean_linker_0, # of connection points: 2
#     Edge 29, Type (0, 0), BuildingBlock: OJICUG_clean_linker_0, # of connection points: 2
#     Edge 30, Type (0, 0), BuildingBlock: OJICUG_clean_linker_0, # of connection points: 2
#     Edge 31, Type (0, 0), BuildingBlock: OJICUG_clean_linker_0, # of connection points: 2
#     Edge 32, Type (0, 0), BuildingBlock: OJICUG_clean_linker_0, # of connection points: 2
#     Edge 33, Type (0, 0), BuildingBlock: OJICUG_clean_linker_0, # of connection points: 2
#     Edge 34, Type (0, 0), BuildingBlock: OJICUG_clean_linker_0, # of connection points: 2
#     Edge 35, Type (0, 0), BuildingBlock: OJICUG_clean_linker_0, # of connection points: 2
#     Edge 36, Type (0, 0), BuildingBlock: OJICUG_clean_linker_0, # of connection points: 2
#     Edge 37, Type (0, 0), BuildingBlock: OJICUG_clean_linker_0, # of connection points: 2
#     Edge 38, Type (0, 0), BuildingBlock: OJICUG_clean_linker_0, # of connection points: 2
#     Edge 39, Type (0, 0), BuildingBlock: OJICUG_clean_linker_0, # of connection points: 2
#     Edge 40, Type (0, 0), BuildingBlock: OJICUG_clean_linker_0, # of connection points: 2
#     Edge 41, Type (0, 0), BuildingBlock: OJICUG_clean_linker_0, # of connection points: 2
# Relax obj value: 0.116
# Max RMSD: 0.102
# Mean RMSD: 0.102
data_MOF--net-wjx--node1-XOMCOT_clean_sbu_1--edge1-OJICUG_clean_linker_0
_symmetry_space_group_name_H-M    P1
_symmetry_Int_Tables_number       1
_symmetry_cell_setting            triclinic
loop_
_symmetry_equiv_pos_as_xyz
'x, y, z'
_cell_length_a     53.855023
_cell_length_b     53.799737
_cell_length_c     13.518508
_cell_angle_alpha  90.209111
_cell_angle_beta   90.140232
_cell_angle_gamma 119.91779
loop_
_atom_site_label
_atom_site_type_symbol
_atom_site_fract_x
_atom_site_fract_y
_atom_site_fract_z
_atom_type_partial_charge
C0 C 0.16403 0.45614 0.27413 0.0
C1 C 0.16593 0.45643 0.37555 0.0
N2 N 0.14093 0.43535 0.41142 0.0
N3 N 0.13805 0.43488 0.24551 0.0
C4 C 0.1245 0.42248 0.33074 0.0
H5 H 0.17997 0.47161 0.22483 0.0
Co6 Co 0.12429 0.43011 0.11622 0.0
C7 C 0.07244 0.3729 0.11193 0.0
O8 O 0.08092 0.36669 0.02912 0.0
N9 N 0.11073 0.42613 0.98509 0.0
C10 C 0.08365 0.42173 0.85428 0.0
C11 C 0.08522 0.42274 0.9559 0.0
C12 C 0.1243 0.42735 0.89968 0.0
N13 N 0.10832 0.42463 0.81871 0.0
O14 O 0.14108 0.40641 0.08762 0.0
H15 H 0.06884 0.42133 1.00548 0.0
H16 H 0.14555 0.43022 0.89653 0.0
O17 O 0.08817 0.39697 0.15471 0.0
C18 C 0.1671 0.42176 0.0608 0.0
O19 O 0.17778 0.44954 0.05159 0.0
N20 N 0.11041 0.45507 0.14473 0.0
C21 C 0.09952 0.49906 0.19524 0.0
C22 C 0.08392 0.47192 0.23885 0.0
C23 C 0.08963 0.4501 0.21233 0.0
C24 C 0.1255 0.48114 0.10076 0.0
C25 C 0.12023 0.50337 0.12418 0.0
H26 H 0.07803 0.42965 0.24898 0.0
H27 H 0.14235 0.48492 0.0492 0.0
H28 H 0.10257 0.40517 0.33388 0.0
H29 H 0.18371 0.47219 0.41938 0.0
H30 H 0.06592 0.41974 0.81041 0.0
H31 H 0.06774 0.46773 0.29393 0.0
H32 H 0.13308 0.5241 0.08988 0.0
C33 C 0.73798 0.16473 0.5717 0.0
C34 C 0.73927 0.16576 0.67319 0.0
N35 N 0.72089 0.13944 0.70747 0.0
N36 N 0.71918 0.13777 0.54161 0.0
C37 C 0.70894 0.12293 0.62648 0.0
H38 H 0.74946 0.18292 0.52375 0.0
Co39 Co 0.70805 0.12578 0.41087 0.0
C40 C 0.71139 0.07413 0.48455 0.0
O41 O 0.73491 0.08831 0.53741 0.0
N42 N 0.6964 0.11359 0.27975 0.0
C43 C 0.67203 0.08608 0.1513 0.0
C44 C 0.67366 0.0882 0.25266 0.0
C45 C 0.70796 0.12665 0.19305 0.0
N46 N 0.69375 0.11031 0.11376 0.0
O47 O 0.74762 0.13885 0.37734 0.0
H48 H 0.65915 0.07203 0.3034 0.0
H49 H 0.72629 0.14785 0.18727 0.0
O50 O 0.70097 0.08747 0.43827 0.0
C51 C 0.75975 0.16466 0.34647 0.0
O52 O 0.74441 0.17739 0.33854 0.0
N53 N 0.6704 0.11577 0.44315 0.0
C54 C 0.61798 0.1107 0.49639 0.0
C55 C 0.62387 0.08853 0.51647 0.0
C56 C 0.65026 0.09144 0.48912 0.0
C57 C 0.66484 0.13715 0.421 0.0
C58 C 0.63878 0.13503 0.44641 0.0
H59 H 0.65455 0.07441 0.50717 0.0
H60 H 0.68105 0.15623 0.38456 0.0
H61 H 0.69285 0.10048 0.62917 0.0
H62 H 0.75189 0.18466 0.71827 0.0
H63 H 0.65636 0.06785 0.10894 0.0
H64 H 0.60859 0.06944 0.55543 0.0
H65 H 0.63506 0.15243 0.42721 0.0
C66 C 0.57016 0.71359 0.90211 0.0
C67 C 0.56972 0.71517 1.00361 0.0
N68 N 0.59183 0.71295 0.04044 0.0
N69 N 0.59247 0.71048 0.87454 0.0
C70 C 0.60542 0.71042 0.9603 0.0
H71 H 0.55433 0.7132 0.85176 0.0
Co72 Co 0.59867 0.70274 0.74527 0.0
C73 C 0.65511 0.70586 0.7654 0.0
O74 O 0.66652 0.72649 0.69977 0.0
N75 N 0.60442 0.69465 0.6147 0.0
C76 C 0.61072 0.67338 0.48362 0.0
C77 C 0.60957 0.67367 0.58518 0.0
C78 C 0.60229 0.70662 0.52964 0.0
N79 N 0.60611 0.69416 0.44842 0.0
O80 O 0.62507 0.74309 0.72617 0.0
H81 H 0.6116 0.65896 0.63436 0.0
H82 H 0.59767 0.72394 0.52707 0.0
O83 O 0.62891 0.69553 0.78973 0.0
C84 C 0.61127 0.75538 0.69785 0.0
O85 O 0.58342 0.73977 0.68523 0.0
N86 N 0.57091 0.66413 0.76341 0.0
C87 C 0.52314 0.61041 0.79957 0.0
C88 C 0.54852 0.62005 0.85443 0.0
C89 C 0.57217 0.64705 0.83544 0.0
C90 C 0.54666 0.65498 0.70826 0.0
C91 C 0.52261 0.62812 0.72451 0.0
H92 H 0.59088 0.65468 0.8819 0.0
H93 H 0.54564 0.6691 0.65368 0.0
H94 H 0.62384 0.70748 0.96414 0.0
H95 H 0.55334 0.71617 0.04677 0.0
H96 H 0.6137 0.65827 0.43943 0.0
H97 H 0.54992 0.60711 0.91298 0.0
H98 H 0.50336 0.62187 0.68159 0.0
C99 C 0.86969 0.54859 0.21845 0.0
C100 C 0.86826 0.54689 0.32004 0.0
N101 N 0.88612 0.57314 0.35806 0.0
N102 N 0.88853 0.57571 0.19223 0.0
C103 C 0.89777 0.59025 0.27855 0.0
H104 H 0.85848 0.53098 0.16694 0.0
Co105 Co 0.90048 0.58824 0.06399 0.0
C106 C 0.96257 0.6314 0.08225 0.0
O107 O 0.96711 0.62172 0.99883 0.0
N108 N 0.91175 0.60109 0.93251 0.0
C109 C 0.92464 0.63048 0.80307 0.0
C110 C 0.92358 0.6288 0.90444 0.0
C111 C 0.905 0.58631 0.84592 0.0
N112 N 0.91271 0.60369 0.76632 0.0
O113 O 0.88175 0.61096 0.07109 0.0
H114 H 0.92977 0.64666 0.95466 0.0
H115 H 0.89324 0.56327 0.84023 0.0
O116 O 0.93696 0.62041 0.11572 0.0
C117 C 0.85976 0.60205 1.01512 0.0
O118 O 0.85278 0.5799 0.95693 0.0
N119 N 0.91611 0.56344 0.0591 0.0
C120 C 0.92588 0.51724 0.08354 0.0
C121 C 0.94232 0.54302 0.1353 0.0
C122 C 0.9368 0.56561 0.1235 0.0
C123 C 0.89985 0.53839 1.00865 0.0
C124 C 0.90478 0.5153 1.01794 0.0
H125 H 0.94755 0.58363 0.1732 0.0
H126 H 0.88115 0.53514 0.96828 0.0
H127 H 0.91287 0.61295 0.28279 0.0
H128 H 0.85578 0.52752 0.36218 0.0
H129 H 0.93192 0.64977 0.75981 0.0
H130 H 0.95837 0.54523 0.18856 0.0
H131 H 0.89068 0.49537 0.97989 0.0
C132 C 0.33099 0.86344 0.63389 0.0
C133 C 0.32648 0.8585 0.73355 0.0
N134 N 0.31119 0.87047 0.76585 0.0
N135 N 0.31927 0.87912 0.60267 0.0
C136 C 0.30605 0.88173 0.684 0.0
H137 H 0.34319 0.85701 0.58767 0.0
Co138 Co 0.32302 0.89197 0.47056 0.0
C139 C 0.33289 0.94757 0.57981 0.0
O140 O 0.33477 0.94018 0.67056 0.0
N141 N 0.32635 0.90335 0.33719 0.0
C142 C 0.3413 0.9294 0.2 0.0
C143 C 0.34432 0.92968 0.30112 0.0
C144 C 0.31315 0.88723 0.25593 0.0
N145 N 0.32169 0.90265 0.1715 0.0
O146 O 0.28217 0.87576 0.46284 0.0
H147 H 0.35968 0.94766 0.34503 0.0
H148 H 0.29796 0.86451 0.25799 0.0
O149 O 0.32861 0.93028 0.50771 0.0
C150 C 0.27048 0.84921 0.44061 0.0
O151 O 0.28685 0.83778 0.42836 0.0
N152 N 0.36294 0.90579 0.47646 0.0
C153 C 0.41825 0.91391 0.49975 0.0
C154 C 0.40816 0.92779 0.56238 0.0
C155 C 0.38052 0.92349 0.54939 0.0
C156 C 0.37272 0.89304 0.41231 0.0
C157 C 0.40038 0.89715 0.42162 0.0
H158 H 0.37274 0.93264 0.6031 0.0
H159 H 0.35852 0.87844 0.35626 0.0
H160 H 0.29346 0.89233 0.68402 0.0
H161 H 0.33549 0.84856 0.77979 0.0
H162 H 0.35366 0.94716 0.15073 0.0
H163 H 0.42072 0.94047 0.62499 0.0
H164 H 0.40723 0.88639 0.36987 0.0
C165 C 0.46264 0.31153 0.86989 0.0
C166 C 0.46474 0.31214 0.97152 0.0
N167 N 0.4457 0.31901 1.00882 0.0
N168 N 0.44239 0.31794 0.84335 0.0
C169 C 0.43248 0.32238 0.92924 0.0
H170 H 0.47489 0.30652 0.81844 0.0
Co171 Co 0.43177 0.31959 0.71451 0.0
C172 C 0.39228 0.34244 0.72373 0.0
O173 O 0.40637 0.35829 0.64753 0.0
N174 N 0.42059 0.31998 0.58203 0.0
C175 C 0.39158 0.30485 0.4509 0.0
C176 C 0.39299 0.30454 0.55191 0.0
C177 C 0.43562 0.329 0.49684 0.0
N178 N 0.41843 0.32011 0.41599 0.0
O179 O 0.4078 0.27835 0.71439 0.0
H180 H 0.375 0.29246 0.60044 0.0
H181 H 0.45867 0.34056 0.49315 0.0
O182 O 0.39983 0.32525 0.7608 0.0
C183 C 0.41882 0.26675 0.66098 0.0
O184 O 0.44278 0.28339 0.61402 0.0
N185 N 0.45823 0.35947 0.71635 0.0
C186 C 0.50714 0.41307 0.75063 0.0
C187 C 0.48113 0.40563 0.79732 0.0
C188 C 0.45712 0.37863 0.7806 0.0
C189 C 0.48333 0.36642 0.67028 0.0
C190 C 0.50775 0.39324 0.68426 0.0
H191 H 0.4386 0.3726 0.82612 0.0
H192 H 0.48518 0.35027 0.62865 0.0
H193 H 0.41613 0.32837 0.93332 0.0
H194 H 0.47878 0.30728 1.01424 0.0
H195 H 0.37237 0.29308 0.40657 0.0
H196 H 0.47979 0.41964 0.85213 0.0
H197 H 0.52732 0.39777 0.64696 0.0
C198 C 0.56504 0.86379 0.45453 0.0
C199 C 0.56536 0.86016 0.35403 0.0
N200 N 0.59212 0.87756 0.3211 0.0
N201 N 0.5913 0.884 0.48606 0.0
C202 C 0.60763 0.89074 0.40338 0.0
H203 H 0.54642 0.85245 0.50062 0.0
Co204 Co 0.60139 0.89836 0.61806 0.0
C205 C 0.63342 0.95209 0.49676 0.0
O206 O 0.61161 0.94302 0.43527 0.0
N207 N 0.61093 0.91141 0.74912 0.0
C208 C 0.62619 0.93871 0.88428 0.0
C209 C 0.624 0.93868 0.78288 0.0
C210 C 0.60518 0.89527 0.8316 0.0
N211 N 0.61438 0.91135 0.91532 0.0
O212 O 0.62786 0.88417 0.62212 0.0
H213 H 0.63093 0.95744 0.73736 0.0
H214 H 0.59429 0.87212 0.83012 0.0
O215 O 0.63189 0.93643 0.57041 0.0
C216 C 0.61369 0.85769 0.64492 0.0
O217 O 0.58597 0.84584 0.65889 0.0
N218 N 0.57298 0.90938 0.61909 0.0
C219 C 0.5236 0.91377 0.59943 0.0
C220 C 0.55095 0.93816 0.59138 0.0
C221 C 0.57544 0.93566 0.60463 0.0
C222 C 0.5469 0.88656 0.64101 0.0
C223 C 0.52194 0.88811 0.63044 0.0
H224 H 0.59605 0.95485 0.60164 0.0
H225 H 0.54536 0.8665 0.6625 0.0
H226 H 0.63037 0.90593 0.40284 0.0
H227 H 0.54686 0.8468 0.30831 0.0
H228 H 0.63497 0.95752 0.93144 0.0
H229 H 0.55358 0.95883 0.57187 0.0
H230 H 0.50152 0.8691 0.64437 0.0
C231 C 0.72666 0.57001 0.80441 0.0
C232 C 0.72765 0.56934 0.70277 0.0
N233 N 0.71293 0.58146 0.66632 0.0
N234 N 0.7117 0.58282 0.83222 0.0
C235 C 0.70346 0.58936 0.74618 0.0
H236 H 0.73583 0.56112 0.85442 0.0
Co237 Co 0.70299 0.58772 0.96218 0.0
C238 C 0.71306 0.64405 0.88308 0.0
O239 O 0.73955 0.65241 0.85698 0.0
N240 N 0.69389 0.59231 0.09272 0.0
C241 C 0.67425 0.60173 0.22179 0.0
C242 C 0.67557 0.60131 0.1203 0.0
C243 C 0.70299 0.58692 0.1791 0.0
N244 N 0.69162 0.59272 0.25886 0.0
O245 O 0.74337 0.61286 0.98839 0.0
H246 H 0.66358 0.60693 0.06997 0.0
H247 H 0.71715 0.57824 0.18418 0.0
O248 O 0.69789 0.61962 0.92324 0.0
C249 C 0.75532 0.59946 0.02403 0.0
O250 O 0.73951 0.57182 0.04029 0.0
N251 N 0.66441 0.56128 0.93722 0.0
C252 C 0.61148 0.51445 0.88406 0.0
C253 C 0.61891 0.54236 0.85495 0.0
C254 C 0.64552 0.56558 0.88252 0.0
C255 C 0.65707 0.53463 0.97002 0.0
C256 C 0.63069 0.51096 0.94498 0.0
H257 H 0.65123 0.58662 0.85569 0.0
H258 H 0.67234 0.53163 1.01302 0.0
H259 H 0.69066 0.59966 0.7418 0.0
H260 H 0.7377 0.55989 0.65921 0.0
H261 H 0.66162 0.60841 0.26461 0.0
H262 H 0.60492 0.54614 0.80751 0.0
H263 H 0.6257 0.49001 0.97148 0.0
C264 C 0.15429 0.68855 0.19953 0.0
C265 C 0.15581 0.68821 0.09793 0.0
N266 N 0.13787 0.69647 0.05998 0.0
N267 N 0.13534 0.69675 0.22581 0.0
C268 C 0.12612 0.70195 0.13953 0.0
H269 H 0.16539 0.68208 0.251 0.0
Co270 Co 0.1229 0.69659 0.35418 0.0
C271 C 0.06137 0.67936 0.33451 0.0
O272 O 0.0564 0.66415 0.41545 0.0
N273 N 0.1113 0.6975 0.48597 0.0
C274 C 0.09873 0.71414 0.61657 0.0
C275 C 0.09976 0.71362 0.51522 0.0
C276 C 0.11807 0.68936 0.57199 0.0
N277 N 0.11049 0.69906 0.65227 0.0
O278 O 0.14298 0.73799 0.35398 0.0
H279 H 0.09389 0.72565 0.46591 0.0
H280 H 0.12988 0.67809 0.57676 0.0
O281 O 0.08713 0.69406 0.3024 0.0
C282 C 0.16563 0.74778 0.40697 0.0
O283 O 0.17144 0.72953 0.45097 0.0
N284 N 0.10603 0.65608 0.35323 0.0
C285 C 0.09561 0.6003 0.31752 0.0
C286 C 0.07998 0.61082 0.26751 0.0
C287 C 0.08585 0.63885 0.28493 0.0
C288 C 0.12126 0.64601 0.40294 0.0
C289 C 0.11601 0.61806 0.38787 0.0
H290 H 0.07595 0.6472 0.23616 0.0
H291 H 0.13962 0.66053 0.44679 0.0
H292 H 0.11085 0.70934 0.13529 0.0
H293 H 0.1683 0.68125 0.05573 0.0
H294 H 0.09172 0.72633 0.66058 0.0
H295 H 0.06447 0.59808 0.21096 0.0
H296 H 0.12948 0.6113 0.425 0.0
C297 C 0.47195 0.15367 0.45521 0.0
C298 C 0.47222 0.15849 0.35545 0.0
N299 N 0.44496 0.14614 0.32294 0.0
N300 N 0.44466 0.13772 0.48629 0.0
C301 C 0.4287 0.13476 0.40472 0.0
H302 H 0.49065 0.16047 0.5016 0.0
Co303 Co 0.43542 0.12492 0.61827 0.0
C304 C 0.39191 0.06881 0.50695 0.0
O305 O 0.40185 0.0765 0.41716 0.0
N306 N 0.42717 0.11348 0.75154 0.0
C307 C 0.41647 0.08737 0.88859 0.0
C308 C 0.41926 0.08721 0.78753 0.0
C309 C 0.42978 0.12945 0.83286 0.0
N310 N 0.42315 0.114 0.91717 0.0
O311 O 0.40959 0.1398 0.62263 0.0
H312 H 0.41707 0.06938 0.74371 0.0
H313 H 0.43702 0.15213 0.83105 0.0
O314 O 0.40387 0.08613 0.57986 0.0
C315 C 0.42347 0.1662 0.64741 0.0
O316 O 0.45116 0.17823 0.6636 0.0
N317 N 0.46269 0.11258 0.61607 0.0
C318 C 0.5113 0.10668 0.59951 0.0
C319 C 0.48729 0.09081 0.53845 0.0
C320 C 0.46325 0.0941 0.5478 0.0
C321 C 0.4853 0.12725 0.67894 0.0
C322 C 0.50965 0.1244 0.67266 0.0
H323 H 0.44618 0.08331 0.49517 0.0
H324 H 0.48504 0.14239 0.7312 0.0
H325 H 0.40553 0.12371 0.40446 0.0
H326 H 0.4911 0.16866 0.30935 0.0
H327 H 0.41144 0.06966 0.9378 0.0
H328 H 0.48766 0.07729 0.47961 0.0
H329 H 0.52742 0.13681 0.72254 0.0
C330 C 0.31579 0.46751 0.79026 0.0
C331 C 0.31391 0.46797 0.68878 0.0
N332 N 0.31167 0.44359 0.65207 0.0
N333 N 0.31469 0.44297 0.81801 0.0
C334 C 0.31176 0.42865 0.73231 0.0
H335 H 0.31936 0.48471 0.84041 0.0
Co336 Co 0.3218 0.43566 0.94731 0.0
C337 C 0.32214 0.37987 0.92499 0.0
O338 O 0.30752 0.36821 1.00586 0.0
N339 N 0.32922 0.42912 0.0779 0.0
C340 C 0.34979 0.42265 0.2106 0.0
C341 C 0.35008 0.42401 0.10896 0.0
C342 C 0.31687 0.43123 0.16221 0.0
N343 N 0.32887 0.42725 0.24433 0.0
O344 O 0.28136 0.40998 0.96532 0.0
H345 H 0.36512 0.42218 0.06086 0.0
H346 H 0.29969 0.43609 0.16356 0.0
O347 O 0.3276 0.40489 0.89931 0.0
C348 C 0.26913 0.42426 0.98849 0.0
O349 O 0.28483 0.45222 0.99819 0.0
N350 N 0.36082 0.46236 0.92978 0.0
C351 C 0.41605 0.50789 0.89516 0.0
C352 C 0.40513 0.48227 0.84065 0.0
C353 C 0.37742 0.4598 0.8587 0.0
C354 C 0.37117 0.48685 0.98468 0.0
C355 C 0.3988 0.50981 0.96911 0.0
H356 H 0.36904 0.4409 0.8125 0.0
H357 H 0.35751 0.4889 0.03876 0.0
H358 H 0.31055 0.40805 0.7284 0.0
H359 H 0.31592 0.48573 0.64533 0.0
H360 H 0.36465 0.41966 0.25605 0.0
H361 H 0.41769 0.47976 0.78313 0.0
H362 H 0.40608 0.52932 1.01182 0.0
C363 C 0.86289 0.30547 0.08516 0.0
C364 C 0.86084 0.30366 0.98372 0.0
N365 N 0.88551 0.30671 0.94748 0.0
N366 N 0.88864 0.30948 0.11331 0.0
C367 C 0.90189 0.30996 0.0279 0.0
H368 H 0.8472 0.30543 0.13496 0.0
Co369 Co 0.90237 0.31775 0.24273 0.0
C370 C 0.95502 0.31386 0.24109 0.0
O371 O 0.9465 0.29802 0.32109 0.0
N372 N 0.91583 0.32651 0.37396 0.0
C373 C 0.94274 0.34885 0.50555 0.0
C374 C 0.94127 0.34856 0.40402 0.0
C375 C 0.90215 0.3139 0.45875 0.0
N376 N 0.91806 0.32699 0.54021 0.0
O377 O 0.88707 0.27725 0.2656 0.0
H378 H 0.9576 0.3638 0.35509 0.0
H379 H 0.88083 0.29557 0.46097 0.0
O380 O 0.93914 0.32251 0.20168 0.0
C381 C 0.86082 0.2652 0.29103 0.0
O382 O 0.84882 0.28109 0.30276 0.0
N383 N 0.91485 0.35658 0.21978 0.0
C384 C 0.92406 0.41141 0.17952 0.0
C385 C 0.93957 0.40068 0.1294 0.0
C386 C 0.93472 0.37316 0.15084 0.0
C387 C 0.89976 0.36672 0.26959 0.0
C388 C 0.90424 0.39418 0.25144 0.0
H389 H 0.94621 0.36491 0.10945 0.0
H390 H 0.88357 0.35305 0.32201 0.0
H391 H 0.92354 0.31374 0.02447 0.0
H392 H 0.8432 0.30201 0.94014 0.0
H393 H 0.96034 0.36457 0.55011 0.0
H394 H 0.95506 0.4133 0.07334 0.0
H395 H 0.89146 0.40141 0.29066 0.0
C396 C 0.03594 0.351 0.24601 0.0
C397 C 0.04253 0.35494 0.14484 0.0
H398 H 1.00284 0.33392 0.35555 0.0
C399 C 0.02007 0.3438 0.07518 0.0
H400 H 0.05289 0.35962 0.30105 0.0
C401 C 0.99151 0.32996 0.10631 0.0
C402 C 0.98493 0.32614 0.20749 0.0
H403 H 0.02461 0.34696 0.99675 0.0
H404 H 0.97458 0.32252 0.05138 0.0
C405 C 1.00737 0.33625 0.27702 0.0
C406 C 0.69525 0.02615 0.56469 0.0
C407 C 0.69501 0.04232 0.48354 0.0
H408 H 0.67599 0.98464 0.63293 0.0
C409 C 0.67691 0.02794 0.40301 0.0
H410 H 0.70904 0.03665 0.62778 0.0
C411 C 0.65816 0.99842 0.40574 0.0
C412 C 0.65687 0.98237 0.48934 0.0
H413 H 0.67675 0.03962 0.3383 0.0
H414 H 0.64394 0.98836 0.34322 0.0
C415 C 0.67628 0.99638 0.56766 0.0
C416 C 0.71319 0.68566 0.79671 0.0
C417 C 0.69954 0.66156 0.85852 0.0
H418 H 0.70997 0.71863 0.71867 0.0
C419 C 0.67202 0.65346 0.89391 0.0
H420 H 0.7344 0.69254 0.76807 0.0
C421 C 0.65819 0.66851 0.86654 0.0
C422 C 0.67129 0.69194 0.80189 0.0
H423 H 0.66079 0.63513 0.94181 0.0
H424 H 0.63691 0.66127 0.89473 0.0
C425 C 0.69917 0.70064 0.76843 0.0
C426 C 0.03951 0.67631 0.16744 0.0
C427 C 0.03658 0.67352 0.27062 0.0
H428 H 0.01828 0.66522 0.02663 0.0
C429 C 1.0089 0.66082 0.31121 0.0
H430 H 0.06042 0.6859 0.13371 0.0
C431 C 0.98468 0.64918 0.24985 0.0
C432 C 0.98758 0.64962 0.14656 0.0
H433 H 1.00589 0.65848 0.39054 0.0
H434 H 0.96376 0.63807 0.28359 0.0
C435 C 0.01528 0.66431 0.10603 0.0
C436 C 0.36092 0.01829 0.44597 0.0
C437 C 0.37129 0.03799 0.52533 0.0
H438 H 0.33934 0.9743 0.40056 0.0
C439 C 0.36414 0.02736 0.62204 0.0
H440 H 0.36523 0.02564 0.37016 0.0
C441 C 0.35004 0.99781 0.63942 0.0
C442 C 0.34218 0.97817 0.56029 0.0
H443 H 0.37056 0.04179 0.68476 0.0
H444 H 0.34648 0.99049 0.71531 0.0
C445 C 0.34626 0.98873 0.46331 0.0
C446 C 0.34246 0.3465 0.91506 0.0
C447 C 0.33626 0.36638 0.87009 0.0
H448 H 0.36525 0.32318 0.90444 0.0
C449 C 0.34623 0.37564 0.77391 0.0
H450 H 0.33518 0.33902 0.9894 0.0
C451 C 0.36305 0.3665 0.72547 0.0
C452 C 0.3708 0.34804 0.77206 0.0
H453 H 0.34185 0.39077 0.73661 0.0
H454 H 0.37084 0.37487 0.65232 0.0
C455 C 0.35971 0.33747 0.86654 0.0
C456 C 0.09553 0.41549 0.64048 0.0
C457 C 0.1164 0.42583 0.71602 0.0
H458 H 0.08677 0.41053 0.48525 0.0
C459 C 0.14536 0.43788 0.68907 0.0
H460 H 0.07299 0.40563 0.65782 0.0
C461 C 0.15324 0.44016 0.58967 0.0
C462 C 0.13245 0.43065 0.51412 0.0
H463 H 0.16219 0.44626 0.74427 0.0
H464 H 0.17574 0.44969 0.57212 0.0
C465 C 0.10344 0.41793 0.54094 0.0
C466 C 0.7352 0.14498 0.88309 0.0
C467 C 0.71421 0.13133 0.80942 0.0
H468 H 0.74547 0.14858 0.03681 0.0
C469 C 0.68647 0.11027 0.83708 0.0
H470 H 0.75686 0.16097 0.86372 0.0
C471 C 0.67976 0.10336 0.93666 0.0
C472 C 0.7007 0.1172 1.01076 0.0
H473 H 0.66975 0.09968 0.782 0.0
H474 H 0.658 0.08756 0.95545 0.0
C475 C 0.72858 0.13792 0.98248 0.0
C476 C 0.61554 0.69116 0.2704 0.0
C477 C 0.604 0.70045 0.3457 0.0
H478 H 0.62058 0.68747 0.11541 0.0
C479 C 0.58972 0.71532 0.31837 0.0
H480 H 0.62709 0.68008 0.28804 0.0
C481 C 0.58646 0.72008 0.21874 0.0
C482 C 0.59723 0.71001 0.14343 0.0
H483 H 0.58038 0.72275 0.37348 0.0
H484 H 0.57522 0.73147 0.20086 0.0
C485 C 0.61214 0.6958 0.17077 0.0
C486 C 0.9247 0.61321 0.58928 0.0
C487 C 0.90633 0.5955 0.66371 0.0
H488 H 0.93316 0.61991 0.43483 0.0
C489 C 0.88119 0.57029 0.63616 0.0
H490 H 0.94436 0.63262 0.60838 0.0
C491 C 0.87445 0.5631 0.53628 0.0
C492 C 0.89281 0.58082 0.46138 0.0
H493 H 0.86632 0.55647 0.69173 0.0
H494 H 0.8546 0.54383 0.51813 0.0
C495 C 0.91812 0.60592 0.48949 0.0
C496 C 0.30952 0.86526 0.04306 0.0
C497 C 0.31428 0.89251 0.07072 0.0
H498 H 0.30444 0.83671 0.92364 0.0
C499 C 0.31397 0.91067 0.99679 0.0
H500 H 0.30965 0.85078 0.09817 0.0
C501 C 0.31066 0.9025 0.897 0.0
C502 C 0.30811 0.87616 0.86847 0.0
H503 H 0.31715 0.93162 1.01606 0.0
H504 H 0.31184 0.91759 0.84208 0.0
C505 C 0.30666 0.85726 0.94303 0.0
C506 C 0.41369 0.3192 0.13953 0.0
C507 C 0.43976 0.32117 0.11166 0.0
H508 H 0.38694 0.3182 0.2574 0.0
C509 C 0.45956 0.32467 0.18621 0.0
H510 H 0.39771 0.31628 0.0851 0.0
C511 C 0.45305 0.32525 0.286 0.0
C512 C 0.42661 0.32244 0.31351 0.0
H513 H 0.48004 0.32673 0.16784 0.0
H514 H 0.46837 0.32697 0.34137 0.0
C515 C 0.4073 0.31997 0.23893 0.0
C516 C 0.58947 0.87376 0.04282 0.0
C517 C 0.6108 0.90166 1.017 0.0
H518 H 0.56732 0.84398 0.15908 0.0
C519 C 0.6278 0.92042 0.09328 0.0
H520 H 0.57591 0.85862 0.98684 0.0
C521 C 0.62264 0.91208 0.19256 0.0
C522 C 0.60037 0.88467 0.21863 0.0
H523 H 0.64485 0.94185 0.07671 0.0
H524 H 0.63536 0.92764 0.24888 0.0
C525 C 0.58436 0.8654 0.14215 0.0
C526 C 0.68253 0.58446 0.53477 0.0
C527 C 0.70762 0.58446 0.56367 0.0
H528 H 0.65745 0.58644 0.41561 0.0
C529 C 0.72736 0.58726 0.49067 0.0
H530 H 0.66667 0.58188 0.58896 0.0
C531 C 0.72217 0.59004 0.39108 0.0
C532 C 0.697 0.58989 0.36186 0.0
H533 H 0.74707 0.58777 0.51069 0.0
H534 H 0.73817 0.59273 0.33735 0.0
C535 C 0.67725 0.58707 0.43512 0.0
C536 C 0.09864 0.6967 0.82937 0.0
C537 C 0.117 0.69734 0.75463 0.0
H538 H 0.0904 0.69535 0.98387 0.0
C539 C 0.14232 0.6976 0.7817 0.0
H540 H 0.07885 0.69622 0.81059 0.0
C541 C 0.14928 0.69755 0.88151 0.0
C542 C 0.13095 0.69699 0.95673 0.0
H543 H 0.15716 0.69862 0.72581 0.0
H544 H 0.16927 0.69839 0.89939 0.0
C545 C 0.10543 0.69639 0.92901 0.0
C546 C 0.41259 0.11391 0.1917 0.0
C547 C 0.43615 0.14037 0.22028 0.0
H548 H 0.39012 0.08474 0.07255 0.0
C549 C 0.4533 0.15939 0.14578 0.0
H550 H 0.3989 0.09872 0.2466 0.0
C551 C 0.44812 0.15141 0.04574 0.0
C552 C 0.42588 0.12408 1.018 0.0
H553 H 0.47144 0.18004 0.16521 0.0
H554 H 0.46252 0.166 0.99066 0.0
C555 C 0.40769 0.10576 0.09188 0.0
C556 C 0.3053 0.44971 0.47366 0.0
C557 C 0.31356 0.43731 0.54904 0.0
H558 H 0.30373 0.45646 0.31845 0.0
C559 C 0.32543 0.42018 0.52172 0.0
H560 H 0.2958 0.46275 0.49178 0.0
C561 C 0.32979 0.41637 0.42206 0.0
C562 C 0.3224 0.42955 0.34675 0.0
H563 H 0.33231 0.41047 0.57726 0.0
H564 H 0.33924 0.40329 0.4042 0.0
C565 C 0.30962 0.44586 0.3739 0.0
C566 C 0.93079 0.33028 0.71811 0.0
C567 C 0.90989 0.3202 0.64272 0.0
H568 H 0.93964 0.33422 0.87318 0.0
C569 C 0.88088 0.3041 0.66972 0.0
H570 H 0.95335 0.34229 0.70059 0.0
C571 C 0.87299 0.29897 0.76925 0.0
C572 C 0.89385 0.30989 0.84467 0.0
H573 H 0.86407 0.29603 0.61443 0.0
H574 H 0.85045 0.28668 0.78699 0.0
C575 C 0.92289 0.32526 0.81765 0.0
C576 C 0.09463 0.52919 0.32789 0.0
C577 C 0.09552 0.52331 0.22689 0.0
H578 H 0.09392 0.55816 0.43597 0.0
C579 C 0.09448 0.54189 0.15639 0.0
H580 H 0.09566 0.5154 0.38396 0.0
C581 C 0.0934 0.56624 0.18607 0.0
C582 C 0.09355 0.57273 0.28706 0.0
H583 H 0.09498 0.53783 0.07807 0.0
H584 H 0.09359 0.58059 0.12972 0.0
C585 C 0.09385 0.55376 0.35768 0.0
C586 C 0.56447 0.08299 0.52289 0.0
C587 C 0.59068 0.10894 0.52847 0.0
H588 H 0.51898 0.06169 0.54268 0.0
C589 C 0.59061 0.13357 0.56326 0.0
H590 H 0.56366 0.0636 0.49612 0.0
C591 C 0.56501 0.13258 0.58846 0.0
C592 C 0.53868 0.10685 0.58059 0.0
H593 H 0.61041 0.15382 0.57048 0.0
H594 H 0.56589 0.15232 0.61125 0.0
C595 C 0.53878 0.08196 0.54868 0.0
C596 C 0.48883 0.57535 0.92331 0.0
C597 C 0.4968 0.58298 0.82417 0.0
H598 H 0.45733 0.54563 0.02354 0.0
C599 C 0.47862 0.56495 0.74885 0.0
H600 H 0.50217 0.58889 0.98319 0.0
C601 C 0.45281 0.54028 0.772 0.0
C602 C 0.44448 0.53304 0.87109 0.0
H603 H 0.48421 0.57007 0.67177 0.0
H604 H 0.43898 0.52735 0.712 0.0
C605 C 0.46296 0.55071 0.94647 0.0
C606 C 0.92695 0.44739 0.05496 0.0
C607 C 0.92729 0.43976 0.15418 0.0
H608 H 0.92622 0.47787 0.95466 0.0
C609 C 0.92891 0.45864 0.22931 0.0
H610 H 0.92545 0.43316 0.99546 0.0
C611 C 0.92948 0.48421 0.206 0.0
C612 C 0.92817 0.49143 0.10695 0.0
H613 H 0.92935 0.45342 0.30639 0.0
H614 H 0.92987 0.49783 0.2659 0.0
C615 C 0.92718 0.47286 0.03161 0.0
C616 C 0.47377 0.89038 0.52832 0.0
C617 C 0.49701 0.9145 0.57274 0.0
H618 H 0.431 0.87097 0.47313 0.0
C619 C 0.49455 0.93903 0.58936 0.0
H620 H 0.47493 0.87128 0.51187 0.0
C621 C 0.4694 0.93921 0.56354 0.0
C622 C 0.44594 0.9148 0.52113 0.0
H623 H 0.51185 0.95801 0.62374 0.0
H624 H 0.46839 0.95853 0.57712 0.0
C625 C 0.44861 0.89043 0.5038 0.0
C626 C 0.55904 0.48955 0.83624 0.0
C627 C 0.58471 0.48892 0.84734 0.0
H628 H 0.51461 0.46645 0.79538 0.0
C629 C 0.58479 0.46356 0.82236 0.0
H630 H 0.55811 0.50865 0.85508 0.0
C631 C 0.55984 0.43931 0.78961 0.0
C632 C 0.53404 0.43972 0.77963 0.0
H633 H 0.60423 0.46236 0.82786 0.0
H634 H 0.56074 0.42 0.77444 0.0
C635 C 0.53401 0.46525 0.80278 0.0
C636 C 0.22158 0.41225 0.92307 0.0
C637 C 0.23799 0.41112 1.00177 0.0
H638 H 0.18504 0.41572 0.88073 0.0
C639 C 0.22684 0.40659 0.09803 0.0
H640 H 0.23017 0.41661 0.84872 0.0
C641 C 0.20085 0.40585 0.11634 0.0
C642 C 0.18592 0.40993 0.03868 0.0
H643 H 0.23958 0.40658 0.16018 0.0
H644 H 0.19414 0.4053 0.19219 0.0
C645 C 0.19578 0.41177 0.94143 0.0
C646 C 0.83473 0.22192 0.39526 0.0
C647 C 0.84252 0.23394 0.30051 0.0
H648 H 0.80205 0.18877 0.48389 0.0
C649 C 0.82577 0.21836 0.21889 0.0
H650 H 0.84688 0.23399 0.45955 0.0
C651 C 0.79997 0.19272 0.23291 0.0
C652 C 0.79075 0.18213 0.32861 0.0
H653 H 0.83091 0.22763 0.14556 0.0
H654 H 0.78582 0.18284 0.17005 0.0
C655 C 0.80909 0.19602 0.40915 0.0
C656 C 0.62393 0.82185 0.5706 0.0
C657 C 0.62644 0.83912 0.65225 0.0
H658 H 0.61784 0.78122 0.52164 0.0
C659 C 0.63115 0.83127 0.7465 0.0
H660 H 0.61937 0.82701 0.49778 0.0
C661 C 0.63051 0.80512 0.76015 0.0
C662 C 0.62481 0.78641 0.6798 0.0
H663 H 0.63219 0.84381 0.81094 0.0
H664 H 0.63111 0.79812 0.83473 0.0
C665 C 0.62298 0.79562 0.58434 0.0
C666 C 0.82788 0.61749 0.93719 0.0
C667 C 0.83929 0.6126 0.02378 0.0
H668 H 0.79227 0.61868 0.87059 0.0
C669 C 0.82569 0.61037 0.11435 0.0
H670 H 0.8378 0.61883 0.86628 0.0
C671 C 0.79928 0.60958 0.11637 0.0
C672 C 0.78663 0.61193 0.02839 0.0
H673 H 0.83374 0.60599 0.18169 0.0
H674 H 0.78754 0.60458 0.18527 0.0
C675 C 0.80191 0.61756 0.93967 0.0
C676 C 0.22619 0.82065 0.34112 0.0
C677 C 0.23928 0.83021 0.43429 0.0
H678 H 0.19129 0.78688 0.25926 0.0
C679 C 0.22466 0.8152 0.51903 0.0
H680 H 0.23753 0.83153 0.27459 0.0
C681 C 0.19863 0.78951 0.51016 0.0
C682 C 0.18666 0.77862 0.41651 0.0
H683 H 0.2347 0.82178 0.59125 0.0
H684 H 0.18903 0.77696 0.57603 0.0
C685 C 0.19979 0.79513 0.33231 0.0
C686 C 0.40791 0.22174 0.74752 0.0
C687 C 0.40821 0.23567 0.65965 0.0
H688 H 0.41239 0.18776 0.81202 0.0
C689 C 0.40654 0.22223 0.56853 0.0
H690 H 0.40991 0.23204 0.81845 0.0
C691 C 0.40736 0.19665 0.5649 0.0
C692 C 0.41037 0.18447 0.65232 0.0
H693 H 0.40726 0.23287 0.49981 0.0
H694 H 0.40884 0.1882 0.49362 0.0
C695 C 0.40937 0.19645 0.74378 0.0
loop_
_geom_bond_atom_site_label_1
_geom_bond_atom_site_label_2
_geom_bond_distance
_geom_bond_site_symmetry_2
_ccdc_geom_bond_type
C0 C1 1.351 . S
C0 N3 1.368 . S
C0 H5 0.931 . S
C1 C0 1.351 . S
C1 N2 1.373 . S
C1 H29 0.930 . S
N2 C1 1.373 . S
N2 C4 1.340 . S
N3 C0 1.368 . S
N3 C4 1.321 . S
N3 Co6 2.135 . S
C4 N2 1.340 . S
C4 N3 1.321 . S
C4 H28 0.930 . S
H5 C0 0.931 . S
Co6 N3 2.135 . S
Co6 N9 2.121 1_554 S
Co6 O14 2.055 . S
Co6 O17 2.039 . S
Co6 N20 2.140 . S
C7 O8 1.227 . S
C7 O17 1.265 . S
O8 C7 1.227 . S
N9 Co6 2.121 1_556 S
N9 C11 1.375 . S
N9 C12 1.313 . S
C10 C11 1.338 . S
C10 N13 1.377 . S
C10 H30 0.930 . S
C11 N9 1.375 . S
C11 C10 1.338 . S
C11 H15 0.931 . S
C12 N9 1.313 . S
C12 N13 1.344 . S
C12 H16 0.930 . S
N13 C10 1.377 . S
N13 C12 1.344 . S
O14 Co6 2.055 . S
O14 C18 1.253 . S
H15 C11 0.931 . S
H16 C12 0.930 . S
O17 Co6 2.039 . S
O17 C7 1.265 . S
C18 O14 1.253 . S
C18 O19 1.227 . S
O19 C18 1.227 . S
N20 Co6 2.140 . S
N20 C23 1.346 . S
N20 C24 1.345 . S
C21 C22 1.387 . S
C21 C25 1.391 . S
C22 C21 1.387 . S
C22 C23 1.369 . S
C22 H31 0.929 . S
C23 N20 1.346 . S
C23 C22 1.369 . S
C23 H26 0.928 . S
C24 N20 1.345 . S
C24 C25 1.371 . S
C24 H27 0.931 . S
C25 C21 1.391 . S
C25 C24 1.371 . S
C25 H32 0.930 . S
H26 C23 0.928 . S
H27 C24 0.931 . S
H28 C4 0.930 . S
H29 C1 0.930 . S
H30 C10 0.930 . S
H31 C22 0.929 . S
H32 C25 0.930 . S
C33 C34 1.351 . S
C33 N36 1.368 . S
C33 H38 0.931 . S
C34 C33 1.351 . S
C34 N35 1.373 . S
C34 H62 0.930 . S
N35 C34 1.373 . S
N35 C37 1.340 . S
N36 C33 1.368 . S
N36 C37 1.321 . S
N36 Co39 2.135 . S
C37 N35 1.340 . S
C37 N36 1.321 . S
C37 H61 0.930 . S
H38 C33 0.931 . S
Co39 N36 2.135 . S
Co39 N42 2.121 . S
Co39 O47 2.055 . S
Co39 O50 2.039 . S
Co39 N53 2.140 . S
C40 O41 1.227 . S
C40 O50 1.265 . S
O41 C40 1.227 . S
N42 Co39 2.121 . S
N42 C44 1.375 . S
N42 C45 1.313 . S
C43 C44 1.338 . S
C43 N46 1.377 . S
C43 H63 0.930 . S
C44 N42 1.375 . S
C44 C43 1.338 . S
C44 H48 0.931 . S
C45 N42 1.313 . S
C45 N46 1.344 . S
C45 H49 0.930 . S
N46 C43 1.377 . S
N46 C45 1.344 . S
O47 Co39 2.055 . S
O47 C51 1.253 . S
H48 C44 0.931 . S
H49 C45 0.930 . S
O50 Co39 2.039 . S
O50 C40 1.265 . S
C51 O47 1.253 . S
C51 O52 1.227 . S
O52 C51 1.227 . S
N53 Co39 2.140 . S
N53 C56 1.346 . S
N53 C57 1.345 . S
C54 C55 1.387 . S
C54 C58 1.391 . S
C55 C54 1.387 . S
C55 C56 1.369 . S
C55 H64 0.929 . S
C56 N53 1.346 . S
C56 C55 1.369 . S
C56 H59 0.928 . S
C57 N53 1.345 . S
C57 C58 1.371 . S
C57 H60 0.931 . S
C58 C54 1.391 . S
C58 C57 1.371 . S
C58 H65 0.930 . S
H59 C56 0.928 . S
H60 C57 0.931 . S
H61 C37 0.930 . S
H62 C34 0.930 . S
H63 C43 0.930 . S
H64 C55 0.929 . S
H65 C58 0.930 . S
C66 C67 1.351 1_556 S
C66 N69 1.368 . S
C66 H71 0.931 . S
C67 C66 1.351 1_554 S
C67 N68 1.373 . S
C67 H95 0.930 . S
N68 C67 1.373 . S
N68 C70 1.340 . S
N69 C66 1.368 . S
N69 C70 1.321 1_556 S
N69 Co72 2.135 . S
C70 N68 1.340 . S
C70 N69 1.321 1_554 S
C70 H94 0.931 . S
H71 C66 0.931 . S
Co72 N69 2.135 . S
Co72 N75 2.121 . S
Co72 O80 2.055 . S
Co72 O83 2.039 . S
Co72 N86 2.140 . S
C73 O74 1.227 . S
C73 O83 1.265 . S
O74 C73 1.227 . S
N75 Co72 2.121 . S
N75 C77 1.375 . S
N75 C78 1.313 . S
C76 C77 1.338 . S
C76 N79 1.377 . S
C76 H96 0.930 . S
C77 N75 1.375 . S
C77 C76 1.338 . S
C77 H81 0.931 . S
C78 N75 1.313 . S
C78 N79 1.344 . S
C78 H82 0.930 . S
N79 C76 1.377 . S
N79 C78 1.344 . S
O80 Co72 2.055 . S
O80 C84 1.253 . S
H81 C77 0.931 . S
H82 C78 0.930 . S
O83 Co72 2.039 . S
O83 C73 1.265 . S
C84 O80 1.253 . S
C84 O85 1.227 . S
O85 C84 1.227 . S
N86 Co72 2.140 . S
N86 C89 1.346 . S
N86 C90 1.345 . S
C87 C88 1.387 . S
C87 C91 1.391 . S
C88 C87 1.387 . S
C88 C89 1.369 . S
C88 H97 0.929 . S
C89 N86 1.346 . S
C89 C88 1.369 . S
C89 H92 0.928 . S
C90 N86 1.345 . S
C90 C91 1.371 . S
C90 H93 0.931 . S
C91 C87 1.391 . S
C91 C90 1.371 . S
C91 H98 0.930 . S
H92 C89 0.928 . S
H93 C90 0.931 . S
H94 C70 0.931 . S
H95 C67 0.930 . S
H96 C76 0.930 . S
H97 C88 0.929 . S
H98 C91 0.930 . S
C99 C100 1.351 . S
C99 N102 1.368 . S
C99 H104 0.931 . S
C100 C99 1.351 . S
C100 N101 1.373 . S
C100 H128 0.930 . S
N101 C100 1.373 . S
N101 C103 1.340 . S
N102 C99 1.368 . S
N102 C103 1.321 . S
N102 Co105 2.135 . S
C103 N101 1.340 . S
C103 N102 1.321 . S
C103 H127 0.930 . S
H104 C99 0.931 . S
Co105 N102 2.135 . S
Co105 N108 2.121 1_554 S
Co105 O113 2.055 . S
Co105 O116 2.039 . S
Co105 N119 2.140 . S
C106 O107 1.227 . S
C106 O116 1.265 . S
O107 C106 1.227 . S
N108 Co105 2.121 1_556 S
N108 C110 1.375 . S
N108 C111 1.313 . S
C109 C110 1.338 . S
C109 N112 1.377 . S
C109 H129 0.930 . S
C110 N108 1.375 . S
C110 C109 1.338 . S
C110 H114 0.931 . S
C111 N108 1.313 . S
C111 N112 1.344 . S
C111 H115 0.930 . S
N112 C109 1.377 . S
N112 C111 1.344 . S
O113 Co105 2.055 . S
O113 C117 1.253 . S
H114 C110 0.931 . S
H115 C111 0.930 . S
O116 Co105 2.039 . S
O116 C106 1.265 . S
C117 O113 1.253 . S
C117 O118 1.227 . S
O118 C117 1.227 . S
N119 Co105 2.140 . S
N119 C122 1.346 . S
N119 C123 1.345 . S
C120 C121 1.387 . S
C120 C124 1.391 . S
C121 C120 1.387 . S
C121 C122 1.369 . S
C121 H130 0.929 . S
C122 N119 1.346 . S
C122 C121 1.369 . S
C122 H125 0.928 . S
C123 N119 1.345 . S
C123 C124 1.371 . S
C123 H126 0.931 . S
C124 C120 1.391 . S
C124 C123 1.371 . S
C124 H131 0.930 . S
H125 C122 0.928 . S
H126 C123 0.931 . S
H127 C103 0.930 . S
H128 C100 0.930 . S
H129 C109 0.930 . S
H130 C121 0.929 . S
H131 C124 0.930 . S
C132 C133 1.351 . S
C132 N135 1.368 . S
C132 H137 0.931 . S
C133 C132 1.351 . S
C133 N134 1.373 . S
C133 H161 0.930 . S
N134 C133 1.373 . S
N134 C136 1.340 . S
N135 C132 1.368 . S
N135 C136 1.321 . S
N135 Co138 2.135 . S
C136 N134 1.340 . S
C136 N135 1.321 . S
C136 H160 0.930 . S
H137 C132 0.931 . S
Co138 N135 2.135 . S
Co138 N141 2.121 . S
Co138 O146 2.055 . S
Co138 O149 2.039 . S
Co138 N152 2.140 . S
C139 O140 1.227 . S
C139 O149 1.265 . S
O140 C139 1.227 . S
N141 Co138 2.121 . S
N141 C143 1.375 . S
N141 C144 1.313 . S
C142 C143 1.338 . S
C142 N145 1.377 . S
C142 H162 0.930 . S
C143 N141 1.375 . S
C143 C142 1.338 . S
C143 H147 0.931 . S
C144 N141 1.313 . S
C144 N145 1.344 . S
C144 H148 0.930 . S
N145 C142 1.377 . S
N145 C144 1.344 . S
O146 Co138 2.055 . S
O146 C150 1.253 . S
H147 C143 0.931 . S
H148 C144 0.930 . S
O149 Co138 2.039 . S
O149 C139 1.265 . S
C150 O146 1.253 . S
C150 O151 1.227 . S
O151 C150 1.227 . S
N152 Co138 2.140 . S
N152 C155 1.346 . S
N152 C156 1.345 . S
C153 C154 1.387 . S
C153 C157 1.391 . S
C154 C153 1.387 . S
C154 C155 1.369 . S
C154 H163 0.929 . S
C155 N152 1.346 . S
C155 C154 1.369 . S
C155 H158 0.928 . S
C156 N152 1.345 . S
C156 C157 1.371 . S
C156 H159 0.931 . S
C157 C153 1.391 . S
C157 C156 1.371 . S
C157 H164 0.930 . S
H158 C155 0.928 . S
H159 C156 0.931 . S
H160 C136 0.930 . S
H161 C133 0.930 . S
H162 C142 0.930 . S
H163 C154 0.929 . S
H164 C157 0.930 . S
C165 C166 1.351 1_556 S
C165 N168 1.368 . S
C165 H170 0.931 . S
C166 C165 1.351 1_554 S
C166 N167 1.373 . S
C166 H194 0.930 . S
N167 C166 1.373 . S
N167 C169 1.340 . S
N168 C165 1.368 . S
N168 C169 1.321 1_556 S
N168 Co171 2.135 . S
C169 N167 1.340 . S
C169 N168 1.321 1_554 S
C169 H193 0.931 . S
H170 C165 0.931 . S
Co171 N168 2.135 . S
Co171 N174 2.121 . S
Co171 O179 2.055 . S
Co171 O182 2.039 . S
Co171 N185 2.140 . S
C172 O173 1.227 . S
C172 O182 1.265 . S
O173 C172 1.227 . S
N174 Co171 2.121 . S
N174 C176 1.375 . S
N174 C177 1.313 . S
C175 C176 1.338 . S
C175 N178 1.377 . S
C175 H195 0.930 . S
C176 N174 1.375 . S
C176 C175 1.338 . S
C176 H180 0.931 . S
C177 N174 1.313 . S
C177 N178 1.344 . S
C177 H181 0.930 . S
N178 C175 1.377 . S
N178 C177 1.344 . S
O179 Co171 2.055 . S
O179 C183 1.253 . S
H180 C176 0.931 . S
H181 C177 0.930 . S
O182 Co171 2.039 . S
O182 C172 1.265 . S
C183 O179 1.253 . S
C183 O184 1.227 . S
O184 C183 1.227 . S
N185 Co171 2.140 . S
N185 C188 1.346 . S
N185 C189 1.345 . S
C186 C187 1.387 . S
C186 C190 1.391 . S
C187 C186 1.387 . S
C187 C188 1.369 . S
C187 H196 0.929 . S
C188 N185 1.346 . S
C188 C187 1.369 . S
C188 H191 0.928 . S
C189 N185 1.345 . S
C189 C190 1.371 . S
C189 H192 0.931 . S
C190 C186 1.391 . S
C190 C189 1.371 . S
C190 H197 0.930 . S
H191 C188 0.928 . S
H192 C189 0.931 . S
H193 C169 0.931 . S
H194 C166 0.930 . S
H195 C175 0.930 . S
H196 C187 0.929 . S
H197 C190 0.930 . S
C198 C199 1.351 . S
C198 N201 1.368 . S
C198 H203 0.931 . S
C199 C198 1.351 . S
C199 N200 1.373 . S
C199 H227 0.930 . S
N200 C199 1.373 . S
N200 C202 1.340 . S
N201 C198 1.368 . S
N201 C202 1.321 . S
N201 Co204 2.135 . S
C202 N200 1.340 . S
C202 N201 1.321 . S
C202 H226 0.930 . S
H203 C198 0.931 . S
Co204 N201 2.135 . S
Co204 N207 2.121 . S
Co204 O212 2.055 . S
Co204 O215 2.039 . S
Co204 N218 2.140 . S
C205 O206 1.227 . S
C205 O215 1.265 . S
O206 C205 1.227 . S
N207 Co204 2.121 . S
N207 C209 1.375 . S
N207 C210 1.313 . S
C208 C209 1.338 . S
C208 N211 1.377 . S
C208 H228 0.930 . S
C209 N207 1.375 . S
C209 C208 1.338 . S
C209 H213 0.931 . S
C210 N207 1.313 . S
C210 N211 1.344 . S
C210 H214 0.930 . S
N211 C208 1.377 . S
N211 C210 1.344 . S
O212 Co204 2.055 . S
O212 C216 1.253 . S
H213 C209 0.931 . S
H214 C210 0.930 . S
O215 Co204 2.039 . S
O215 C205 1.265 . S
C216 O212 1.253 . S
C216 O217 1.227 . S
O217 C216 1.227 . S
N218 Co204 2.140 . S
N218 C221 1.346 . S
N218 C222 1.345 . S
C219 C220 1.387 . S
C219 C223 1.391 . S
C220 C219 1.387 . S
C220 C221 1.369 . S
C220 H229 0.929 . S
C221 N218 1.346 . S
C221 C220 1.369 . S
C221 H224 0.928 . S
C222 N218 1.345 . S
C222 C223 1.371 . S
C222 H225 0.931 . S
C223 C219 1.391 . S
C223 C222 1.371 . S
C223 H230 0.930 . S
H224 C221 0.928 . S
H225 C222 0.931 . S
H226 C202 0.930 . S
H227 C199 0.930 . S
H228 C208 0.930 . S
H229 C220 0.929 . S
H230 C223 0.930 . S
C231 C232 1.351 . S
C231 N234 1.368 . S
C231 H236 0.931 . S
C232 C231 1.351 . S
C232 N233 1.373 . S
C232 H260 0.930 . S
N233 C232 1.373 . S
N233 C235 1.340 . S
N234 C231 1.368 . S
N234 C235 1.321 . S
N234 Co237 2.135 . S
C235 N233 1.340 . S
C235 N234 1.321 . S
C235 H259 0.930 . S
H236 C231 0.931 . S
Co237 N234 2.135 . S
Co237 N240 2.121 1_556 S
Co237 O245 2.055 . S
Co237 O248 2.039 . S
Co237 N251 2.140 . S
C238 O239 1.227 . S
C238 O248 1.265 . S
O239 C238 1.227 . S
N240 Co237 2.121 1_554 S
N240 C242 1.375 . S
N240 C243 1.313 . S
C241 C242 1.338 . S
C241 N244 1.377 . S
C241 H261 0.930 . S
C242 N240 1.375 . S
C242 C241 1.338 . S
C242 H246 0.931 . S
C243 N240 1.313 . S
C243 N244 1.344 . S
C243 H247 0.930 . S
N244 C241 1.377 . S
N244 C243 1.344 . S
O245 Co237 2.055 . S
O245 C249 1.253 . S
H246 C242 0.931 . S
H247 C243 0.930 . S
O248 Co237 2.039 . S
O248 C238 1.265 . S
C249 O245 1.253 . S
C249 O250 1.227 . S
O250 C249 1.227 . S
N251 Co237 2.140 . S
N251 C254 1.346 . S
N251 C255 1.345 . S
C252 C253 1.387 . S
C252 C256 1.391 . S
C253 C252 1.387 . S
C253 C254 1.369 . S
C253 H262 0.929 . S
C254 N251 1.346 . S
C254 C253 1.369 . S
C254 H257 0.928 . S
C255 N251 1.345 . S
C255 C256 1.371 . S
C255 H258 0.931 . S
C256 C252 1.391 . S
C256 C255 1.371 . S
C256 H263 0.930 . S
H257 C254 0.928 . S
H258 C255 0.931 . S
H259 C235 0.930 . S
H260 C232 0.930 . S
H261 C241 0.930 . S
H262 C253 0.929 . S
H263 C256 0.930 . S
C264 C265 1.351 1_554 S
C264 N267 1.368 . S
C264 H269 0.931 . S
C265 C264 1.351 1_556 S
C265 N266 1.373 . S
C265 H293 0.930 . S
N266 C265 1.373 . S
N266 C268 1.340 . S
N267 C264 1.368 . S
N267 C268 1.321 1_554 S
N267 Co270 2.135 . S
C268 N266 1.340 . S
C268 N267 1.321 1_556 S
C268 H292 0.931 . S
H269 C264 0.931 . S
Co270 N267 2.135 . S
Co270 N273 2.121 . S
Co270 O278 2.055 . S
Co270 O281 2.039 . S
Co270 N284 2.140 . S
C271 O272 1.227 . S
C271 O281 1.265 . S
O272 C271 1.227 . S
N273 Co270 2.121 . S
N273 C275 1.375 . S
N273 C276 1.313 . S
C274 C275 1.338 . S
C274 N277 1.377 . S
C274 H294 0.930 . S
C275 N273 1.375 . S
C275 C274 1.338 . S
C275 H279 0.931 . S
C276 N273 1.313 . S
C276 N277 1.344 . S
C276 H280 0.930 . S
N277 C274 1.377 . S
N277 C276 1.344 . S
O278 Co270 2.055 . S
O278 C282 1.253 . S
H279 C275 0.931 . S
H280 C276 0.930 . S
O281 Co270 2.039 . S
O281 C271 1.265 . S
C282 O278 1.253 . S
C282 O283 1.227 . S
O283 C282 1.227 . S
N284 Co270 2.140 . S
N284 C287 1.346 . S
N284 C288 1.345 . S
C285 C286 1.387 . S
C285 C289 1.391 . S
C286 C285 1.387 . S
C286 C287 1.369 . S
C286 H295 0.929 . S
C287 N284 1.346 . S
C287 C286 1.369 . S
C287 H290 0.928 . S
C288 N284 1.345 . S
C288 C289 1.371 . S
C288 H291 0.931 . S
C289 C285 1.391 . S
C289 C288 1.371 . S
C289 H296 0.930 . S
H290 C287 0.928 . S
H291 C288 0.931 . S
H292 C268 0.931 . S
H293 C265 0.930 . S
H294 C274 0.930 . S
H295 C286 0.929 . S
H296 C289 0.930 . S
C297 C298 1.351 . S
C297 N300 1.368 . S
C297 H302 0.931 . S
C298 C297 1.351 . S
C298 N299 1.373 . S
C298 H326 0.930 . S
N299 C298 1.373 . S
N299 C301 1.340 . S
N300 C297 1.368 . S
N300 C301 1.321 . S
N300 Co303 2.135 . S
C301 N299 1.340 . S
C301 N300 1.321 . S
C301 H325 0.930 . S
H302 C297 0.931 . S
Co303 N300 2.135 . S
Co303 N306 2.121 . S
Co303 O311 2.055 . S
Co303 O314 2.039 . S
Co303 N317 2.140 . S
C304 O305 1.227 . S
C304 O314 1.265 . S
O305 C304 1.227 . S
N306 Co303 2.121 . S
N306 C308 1.375 . S
N306 C309 1.313 . S
C307 C308 1.338 . S
C307 N310 1.377 . S
C307 H327 0.930 . S
C308 N306 1.375 . S
C308 C307 1.338 . S
C308 H312 0.931 . S
C309 N306 1.313 . S
C309 N310 1.344 . S
C309 H313 0.930 . S
N310 C307 1.377 . S
N310 C309 1.344 . S
O311 Co303 2.055 . S
O311 C315 1.253 . S
H312 C308 0.931 . S
H313 C309 0.930 . S
O314 Co303 2.039 . S
O314 C304 1.265 . S
C315 O311 1.253 . S
C315 O316 1.227 . S
O316 C315 1.227 . S
N317 Co303 2.140 . S
N317 C320 1.346 . S
N317 C321 1.345 . S
C318 C319 1.387 . S
C318 C322 1.391 . S
C319 C318 1.387 . S
C319 C320 1.369 . S
C319 H328 0.929 . S
C320 N317 1.346 . S
C320 C319 1.369 . S
C320 H323 0.928 . S
C321 N317 1.345 . S
C321 C322 1.371 . S
C321 H324 0.931 . S
C322 C318 1.391 . S
C322 C321 1.371 . S
C322 H329 0.930 . S
H323 C320 0.928 . S
H324 C321 0.931 . S
H325 C301 0.930 . S
H326 C298 0.930 . S
H327 C307 0.930 . S
H328 C319 0.929 . S
H329 C322 0.930 . S
C330 C331 1.351 . S
C330 N333 1.368 . S
C330 H335 0.931 . S
C331 C330 1.351 . S
C331 N332 1.373 . S
C331 H359 0.930 . S
N332 C331 1.373 . S
N332 C334 1.340 . S
N333 C330 1.368 . S
N333 C334 1.321 . S
N333 Co336 2.135 . S
C334 N332 1.340 . S
C334 N333 1.321 . S
C334 H358 0.930 . S
H335 C330 0.931 . S
Co336 N333 2.135 . S
Co336 N339 2.121 1_556 S
Co336 O344 2.055 . S
Co336 O347 2.039 . S
Co336 N350 2.140 . S
C337 O338 1.227 . S
C337 O347 1.265 . S
O338 C337 1.227 . S
N339 Co336 2.121 1_554 S
N339 C341 1.375 . S
N339 C342 1.313 . S
C340 C341 1.338 . S
C340 N343 1.377 . S
C340 H360 0.930 . S
C341 N339 1.375 . S
C341 C340 1.338 . S
C341 H345 0.931 . S
C342 N339 1.313 . S
C342 N343 1.344 . S
C342 H346 0.930 . S
N343 C340 1.377 . S
N343 C342 1.344 . S
O344 Co336 2.055 . S
O344 C348 1.253 . S
H345 C341 0.931 . S
H346 C342 0.930 . S
O347 Co336 2.039 . S
O347 C337 1.265 . S
C348 O344 1.253 . S
C348 O349 1.227 . S
O349 C348 1.227 . S
N350 Co336 2.140 . S
N350 C353 1.346 . S
N350 C354 1.345 . S
C351 C352 1.387 . S
C351 C355 1.391 . S
C352 C351 1.387 . S
C352 C353 1.369 . S
C352 H361 0.929 . S
C353 N350 1.346 . S
C353 C352 1.369 . S
C353 H356 0.928 . S
C354 N350 1.345 . S
C354 C355 1.371 . S
C354 H357 0.931 . S
C355 C351 1.391 . S
C355 C354 1.371 . S
C355 H362 0.930 . S
H356 C353 0.928 . S
H357 C354 0.931 . S
H358 C334 0.930 . S
H359 C331 0.930 . S
H360 C340 0.930 . S
H361 C352 0.929 . S
H362 C355 0.930 . S
C363 C364 1.351 1_554 S
C363 N366 1.368 . S
C363 H368 0.931 . S
C364 C363 1.351 1_556 S
C364 N365 1.373 . S
C364 H392 0.930 . S
N365 C364 1.373 . S
N365 C367 1.340 . S
N366 C363 1.368 . S
N366 C367 1.321 1_554 S
N366 Co369 2.135 . S
C367 N365 1.340 . S
C367 N366 1.321 1_556 S
C367 H391 0.931 . S
H368 C363 0.931 . S
Co369 N366 2.135 . S
Co369 N372 2.121 . S
Co369 O377 2.055 . S
Co369 O380 2.039 . S
Co369 N383 2.140 . S
C370 O371 1.227 . S
C370 O380 1.265 . S
O371 C370 1.227 . S
N372 Co369 2.121 . S
N372 C374 1.375 . S
N372 C375 1.313 . S
C373 C374 1.338 . S
C373 N376 1.377 . S
C373 H393 0.930 . S
C374 N372 1.375 . S
C374 C373 1.338 . S
C374 H378 0.931 . S
C375 N372 1.313 . S
C375 N376 1.344 . S
C375 H379 0.930 . S
N376 C373 1.377 . S
N376 C375 1.344 . S
O377 Co369 2.055 . S
O377 C381 1.253 . S
H378 C374 0.931 . S
H379 C375 0.930 . S
O380 Co369 2.039 . S
O380 C370 1.265 . S
C381 O377 1.253 . S
C381 O382 1.227 . S
O382 C381 1.227 . S
N383 Co369 2.140 . S
N383 C386 1.346 . S
N383 C387 1.345 . S
C384 C385 1.387 . S
C384 C388 1.391 . S
C385 C384 1.387 . S
C385 C386 1.369 . S
C385 H394 0.929 . S
C386 N383 1.346 . S
C386 C385 1.369 . S
C386 H389 0.928 . S
C387 N383 1.345 . S
C387 C388 1.371 . S
C387 H390 0.931 . S
C388 C384 1.391 . S
C388 C387 1.371 . S
C388 H395 0.930 . S
H389 C386 0.928 . S
H390 C387 0.931 . S
H391 C367 0.931 . S
H392 C364 0.930 . S
H393 C373 0.930 . S
H394 C385 0.929 . S
H395 C388 0.930 . S
C396 C397 1.387 . S
C396 H400 0.950 . S
C396 C405 1.390 1_455 S
C397 C396 1.387 . S
C397 C399 1.387 . S
H398 C405 0.950 . S
C399 C397 1.387 . S
C399 C401 1.390 1_455 S
C399 H403 0.950 . S
H400 C396 0.950 . S
C401 C399 1.390 1_655 S
C401 C402 1.387 . S
C401 H404 0.950 . S
C402 C401 1.387 . S
C402 C405 1.387 . S
H403 C399 0.950 . S
H404 C401 0.950 . S
C405 C396 1.390 1_655 S
C405 H398 0.950 . S
C405 C402 1.387 . S
C406 C407 1.387 . S
C406 H410 0.950 . S
C406 C415 1.390 1_545 S
C407 C406 1.387 . S
C407 C409 1.387 . S
H408 C415 0.950 . S
C409 C407 1.387 . S
C409 C411 1.390 1_545 S
C409 H413 0.950 . S
H410 C406 0.950 . S
C411 C409 1.390 1_565 S
C411 C412 1.387 . S
C411 H414 0.950 . S
C412 C411 1.387 . S
C412 C415 1.387 . S
H413 C409 0.950 . S
H414 C411 0.950 . S
C415 C406 1.390 1_565 S
C415 H408 0.950 . S
C415 C412 1.387 . S
C416 C417 1.387 . S
C416 H420 0.950 . S
C416 C425 1.390 . S
C417 C416 1.387 . S
C417 C419 1.387 . S
H418 C425 0.950 . S
C419 C417 1.387 . S
C419 C421 1.390 . S
C419 H423 0.950 . S
H420 C416 0.950 . S
C421 C419 1.390 . S
C421 C422 1.387 . S
C421 H424 0.950 . S
C422 C421 1.387 . S
C422 C425 1.387 . S
H423 C419 0.950 . S
H424 C421 0.950 . S
C425 C416 1.390 . S
C425 H418 0.950 . S
C425 C422 1.387 . S
C426 C427 1.387 . S
C426 H430 0.950 . S
C426 C435 1.390 1_455 S
C427 C426 1.387 . S
C427 C429 1.387 . S
H428 C435 0.950 . S
C429 C427 1.387 . S
C429 C431 1.390 1_455 S
C429 H433 0.950 . S
H430 C426 0.950 . S
C431 C429 1.390 1_655 S
C431 C432 1.387 . S
C431 H434 0.950 . S
C432 C431 1.387 . S
C432 C435 1.387 . S
H433 C429 0.950 . S
H434 C431 0.950 . S
C435 C426 1.390 1_655 S
C435 H428 0.950 . S
C435 C432 1.387 . S
C436 C437 1.387 . S
C436 H440 0.950 . S
C436 C445 1.390 1_545 S
C437 C436 1.387 . S
C437 C439 1.387 . S
H438 C445 0.950 . S
C439 C437 1.387 . S
C439 C441 1.390 1_545 S
C439 H443 0.950 . S
H440 C436 0.950 . S
C441 C439 1.390 1_565 S
C441 C442 1.387 . S
C441 H444 0.950 . S
C442 C441 1.387 . S
C442 C445 1.387 . S
H443 C439 0.950 . S
H444 C441 0.950 . S
C445 C436 1.390 1_565 S
C445 H438 0.950 . S
C445 C442 1.387 . S
C446 C447 1.387 . S
C446 H450 0.950 . S
C446 C455 1.390 . S
C447 C446 1.387 . S
C447 C449 1.387 . S
H448 C455 0.950 . S
C449 C447 1.387 . S
C449 C451 1.390 . S
C449 H453 0.950 . S
H450 C446 0.950 . S
C451 C449 1.390 . S
C451 C452 1.387 . S
C451 H454 0.950 . S
C452 C451 1.387 . S
C452 C455 1.387 . S
H453 C449 0.950 . S
H454 C451 0.950 . S
C455 C446 1.390 . S
C455 H448 0.950 . S
C455 C452 1.387 . S
C456 C457 1.387 . S
C456 H460 0.950 . S
C456 C465 1.390 . S
C457 C456 1.387 . S
C457 C459 1.387 . S
H458 C465 0.950 . S
C459 C457 1.387 . S
C459 C461 1.390 . S
C459 H463 0.950 . S
H460 C456 0.950 . S
C461 C459 1.390 . S
C461 C462 1.387 . S
C461 H464 0.950 . S
C462 C461 1.387 . S
C462 C465 1.387 . S
H463 C459 0.950 . S
H464 C461 0.950 . S
C465 C456 1.390 . S
C465 H458 0.950 . S
C465 C462 1.387 . S
C466 C467 1.387 . S
C466 H470 0.950 . S
C466 C475 1.385 1_556 S
C467 C466 1.387 . S
C467 C469 1.387 . S
H468 C475 0.952 . S
C469 C467 1.387 . S
C469 C471 1.390 . S
C469 H473 0.950 . S
H470 C466 0.950 . S
C471 C469 1.390 . S
C471 C472 1.387 1_556 S
C471 H474 0.950 1_556 S
C472 C471 1.387 1_554 S
C472 C475 1.390 . S
H473 C469 0.950 . S
H474 C471 0.950 1_554 S
C475 C466 1.385 1_554 S
C475 H468 0.952 . S
C475 C472 1.390 . S
C476 C477 1.387 . S
C476 H480 0.950 . S
C476 C485 1.390 . S
C477 C476 1.387 . S
C477 C479 1.387 . S
H478 C485 0.950 . S
C479 C477 1.387 . S
C479 C481 1.390 . S
C479 H483 0.950 . S
H480 C476 0.950 . S
C481 C479 1.390 . S
C481 C482 1.387 . S
C481 H484 0.950 . S
C482 C481 1.387 . S
C482 C485 1.387 . S
H483 C479 0.950 . S
H484 C481 0.950 . S
C485 C476 1.390 . S
C485 H478 0.950 . S
C485 C482 1.387 . S
C486 C487 1.387 . S
C486 H490 0.950 . S
C486 C495 1.390 . S
C487 C486 1.387 . S
C487 C489 1.387 . S
H488 C495 0.950 . S
C489 C487 1.387 . S
C489 C491 1.390 . S
C489 H493 0.950 . S
H490 C486 0.950 . S
C491 C489 1.390 . S
C491 C492 1.387 . S
C491 H494 0.950 . S
C492 C491 1.387 . S
C492 C495 1.387 . S
H493 C489 0.950 . S
H494 C491 0.950 . S
C495 C486 1.390 . S
C495 H488 0.950 . S
C495 C492 1.387 . S
C496 C497 1.387 . S
C496 H500 0.950 . S
C496 C505 1.390 1_554 S
C497 C496 1.387 . S
C497 C499 1.387 1_554 S
H498 C505 0.950 . S
C499 C497 1.387 1_556 S
C499 C501 1.390 . S
C499 H503 0.950 1_556 S
H500 C496 0.950 . S
C501 C499 1.390 . S
C501 C502 1.387 . S
C501 H504 0.950 . S
C502 C501 1.387 . S
C502 C505 1.387 . S
H503 C499 0.950 1_554 S
H504 C501 0.950 . S
C505 C496 1.390 1_556 S
C505 H498 0.950 . S
C505 C502 1.387 . S
C506 C507 1.387 . S
C506 H510 0.950 . S
C506 C515 1.390 . S
C507 C506 1.387 . S
C507 C509 1.387 . S
H508 C515 0.950 . S
C509 C507 1.387 . S
C509 C511 1.390 . S
C509 H513 0.950 . S
H510 C506 0.950 . S
C511 C509 1.390 . S
C511 C512 1.387 . S
C511 H514 0.950 . S
C512 C511 1.387 . S
C512 C515 1.387 . S
H513 C509 0.950 . S
H514 C511 0.950 . S
C515 C506 1.390 . S
C515 H508 0.950 . S
C515 C512 1.387 . S
C516 C517 1.387 . S
C516 H520 0.950 . S
C516 C525 1.390 1_556 S
C517 C516 1.387 . S
C517 C519 1.387 1_556 S
H518 C525 0.950 . S
C519 C517 1.387 1_554 S
C519 C521 1.390 . S
C519 H523 0.950 1_554 S
H520 C516 0.950 . S
C521 C519 1.390 . S
C521 C522 1.387 . S
C521 H524 0.950 . S
C522 C521 1.387 . S
C522 C525 1.387 . S
H523 C519 0.950 1_556 S
H524 C521 0.950 . S
C525 C516 1.390 1_554 S
C525 H518 0.950 . S
C525 C522 1.387 . S
C526 C527 1.387 . S
C526 H530 0.950 . S
C526 C535 1.390 . S
C527 C526 1.387 . S
C527 C529 1.387 . S
H528 C535 0.950 . S
C529 C527 1.387 . S
C529 C531 1.390 . S
C529 H533 0.950 . S
H530 C526 0.950 . S
C531 C529 1.390 . S
C531 C532 1.387 . S
C531 H534 0.950 . S
C532 C531 1.387 . S
C532 C535 1.387 . S
H533 C529 0.950 . S
H534 C531 0.950 . S
C535 C526 1.390 . S
C535 H528 0.950 . S
C535 C532 1.387 . S
C536 C537 1.387 . S
C536 H540 0.950 . S
C536 C545 1.390 . S
C537 C536 1.387 . S
C537 C539 1.387 . S
H538 C545 0.950 . S
C539 C537 1.387 . S
C539 C541 1.390 . S
C539 H543 0.950 . S
H540 C536 0.950 . S
C541 C539 1.390 . S
C541 C542 1.387 . S
C541 H544 0.950 . S
C542 C541 1.387 . S
C542 C545 1.387 . S
H543 C539 0.950 . S
H544 C541 0.950 . S
C545 C536 1.390 . S
C545 H538 0.950 . S
C545 C542 1.387 . S
C546 C547 1.387 . S
C546 H550 0.950 . S
C546 C555 1.390 1_554 S
C547 C546 1.387 . S
C547 C549 1.387 . S
H548 C555 0.950 . S
C549 C547 1.387 . S
C549 C551 1.390 . S
C549 H553 0.950 . S
H550 C546 0.950 . S
C551 C549 1.390 . S
C551 C552 1.387 1_554 S
C551 H554 0.950 1_554 S
C552 C551 1.387 1_556 S
C552 C555 1.387 . S
H553 C549 0.950 . S
H554 C551 0.950 1_556 S
C555 C546 1.390 1_556 S
C555 H548 0.950 . S
C555 C552 1.387 . S
C556 C557 1.387 . S
C556 H560 0.950 . S
C556 C565 1.390 . S
C557 C556 1.387 . S
C557 C559 1.387 . S
H558 C565 0.950 . S
C559 C557 1.387 . S
C559 C561 1.390 . S
C559 H563 0.950 . S
H560 C556 0.950 . S
C561 C559 1.390 . S
C561 C562 1.387 . S
C561 H564 0.950 . S
C562 C561 1.387 . S
C562 C565 1.387 . S
H563 C559 0.950 . S
H564 C561 0.950 . S
C565 C556 1.390 . S
C565 H558 0.950 . S
C565 C562 1.387 . S
C566 C567 1.387 . S
C566 H570 0.950 . S
C566 C575 1.390 . S
C567 C566 1.387 . S
C567 C569 1.387 . S
H568 C575 0.950 . S
C569 C567 1.387 . S
C569 C571 1.390 . S
C569 H573 0.950 . S
H570 C566 0.950 . S
C571 C569 1.390 . S
C571 C572 1.387 . S
C571 H574 0.950 . S
C572 C571 1.387 . S
C572 C575 1.387 . S
H573 C569 0.950 . S
H574 C571 0.950 . S
C575 C566 1.390 . S
C575 H568 0.950 . S
C575 C572 1.387 . S
C576 C577 1.387 . S
C576 H580 0.950 . S
C576 C585 1.390 . S
C577 C576 1.387 . S
C577 C579 1.387 . S
H578 C585 0.950 . S
C579 C577 1.387 . S
C579 C581 1.390 . S
C579 H583 0.950 . S
H580 C576 0.950 . S
C581 C579 1.390 . S
C581 C582 1.387 . S
C581 H584 0.950 . S
C582 C581 1.387 . S
C582 C585 1.387 . S
H583 C579 0.950 . S
H584 C581 0.950 . S
C585 C576 1.390 . S
C585 H578 0.950 . S
C585 C582 1.387 . S
C586 C587 1.387 . S
C586 H590 0.950 . S
C586 C595 1.390 . S
C587 C586 1.387 . S
C587 C589 1.387 . S
H588 C595 0.950 . S
C589 C587 1.387 . S
C589 C591 1.390 . S
C589 H593 0.950 . S
H590 C586 0.950 . S
C591 C589 1.390 . S
C591 C592 1.387 . S
C591 H594 0.950 . S
C592 C591 1.387 . S
C592 C595 1.387 . S
H593 C589 0.950 . S
H594 C591 0.950 . S
C595 C586 1.390 . S
C595 H588 0.950 . S
C595 C592 1.387 . S
C596 C597 1.387 . S
C596 H600 0.950 . S
C596 C605 1.390 . S
C597 C596 1.387 . S
C597 C599 1.387 . S
H598 C605 0.950 . S
C599 C597 1.387 . S
C599 C601 1.390 . S
C599 H603 0.950 . S
H600 C596 0.950 . S
C601 C599 1.390 . S
C601 C602 1.387 . S
C601 H604 0.950 . S
C602 C601 1.387 . S
C602 C605 1.387 . S
H603 C599 0.950 . S
H604 C601 0.950 . S
C605 C596 1.390 . S
C605 H598 0.950 . S
C605 C602 1.387 . S
C606 C607 1.387 . S
C606 H610 0.950 . S
C606 C615 1.390 . S
C607 C606 1.387 . S
C607 C609 1.387 . S
H608 C615 0.950 . S
C609 C607 1.387 . S
C609 C611 1.390 . S
C609 H613 0.950 . S
H610 C606 0.950 . S
C611 C609 1.390 . S
C611 C612 1.387 . S
C611 H614 0.950 . S
C612 C611 1.387 . S
C612 C615 1.387 . S
H613 C609 0.950 . S
H614 C611 0.950 . S
C615 C606 1.390 . S
C615 H608 0.950 . S
C615 C612 1.387 . S
C616 C617 1.387 . S
C616 H620 0.950 . S
C616 C625 1.390 . S
C617 C616 1.387 . S
C617 C619 1.387 . S
H618 C625 0.950 . S
C619 C617 1.387 . S
C619 C621 1.390 . S
C619 H623 0.950 . S
H620 C616 0.950 . S
C621 C619 1.390 . S
C621 C622 1.387 . S
C621 H624 0.950 . S
C622 C621 1.387 . S
C622 C625 1.387 . S
H623 C619 0.950 . S
H624 C621 0.950 . S
C625 C616 1.390 . S
C625 H618 0.950 . S
C625 C622 1.387 . S
C626 C627 1.387 . S
C626 H630 0.950 . S
C626 C635 1.390 . S
C627 C626 1.387 . S
C627 C629 1.387 . S
H628 C635 0.950 . S
C629 C627 1.387 . S
C629 C631 1.390 . S
C629 H633 0.950 . S
H630 C626 0.950 . S
C631 C629 1.390 . S
C631 C632 1.387 . S
C631 H634 0.950 . S
C632 C631 1.387 . S
C632 C635 1.387 . S
H633 C629 0.950 . S
H634 C631 0.950 . S
C635 C626 1.390 . S
C635 H628 0.950 . S
C635 C632 1.387 . S
C636 C637 1.387 . S
C636 H640 0.950 . S
C636 C645 1.390 1_556 S
C637 C636 1.387 . S
C637 C639 1.387 . S
H638 C645 0.950 . S
C639 C637 1.387 . S
C639 C641 1.390 1_556 S
C639 H643 0.950 . S
H640 C636 0.950 . S
C641 C639 1.390 1_554 S
C641 C642 1.387 . S
C641 H644 0.950 . S
C642 C641 1.387 . S
C642 C645 1.387 . S
H643 C639 0.950 . S
H644 C641 0.950 . S
C645 C636 1.390 1_554 S
C645 H638 0.950 . S
C645 C642 1.387 . S
C646 C647 1.387 . S
C646 H650 0.950 . S
C646 C655 1.390 . S
C647 C646 1.387 . S
C647 C649 1.387 . S
H648 C655 0.950 . S
C649 C647 1.387 . S
C649 C651 1.390 . S
C649 H653 0.950 . S
H650 C646 0.950 . S
C651 C649 1.390 . S
C651 C652 1.387 . S
C651 H654 0.950 . S
C652 C651 1.387 . S
C652 C655 1.387 . S
H653 C649 0.950 . S
H654 C651 0.950 . S
C655 C646 1.390 . S
C655 H648 0.950 . S
C655 C652 1.387 . S
C656 C657 1.387 . S
C656 H660 0.950 . S
C656 C665 1.390 . S
C657 C656 1.387 . S
C657 C659 1.387 . S
H658 C665 0.950 . S
C659 C657 1.387 . S
C659 C661 1.390 . S
C659 H663 0.950 . S
H660 C656 0.950 . S
C661 C659 1.390 . S
C661 C662 1.387 . S
C661 H664 0.950 . S
C662 C661 1.387 . S
C662 C665 1.387 . S
H663 C659 0.950 . S
H664 C661 0.950 . S
C665 C656 1.390 . S
C665 H658 0.950 . S
C665 C662 1.387 . S
C666 C667 1.387 . S
C666 H670 0.950 . S
C666 C675 1.390 1_554 S
C667 C666 1.387 . S
C667 C669 1.387 . S
H668 C675 0.950 . S
C669 C667 1.387 . S
C669 C671 1.390 1_554 S
C669 H673 0.950 . S
H670 C666 0.950 . S
C671 C669 1.390 1_556 S
C671 C672 1.387 . S
C671 H674 0.950 . S
C672 C671 1.387 . S
C672 C675 1.387 . S
H673 C669 0.950 . S
H674 C671 0.950 . S
C675 C666 1.390 1_556 S
C675 H668 0.950 . S
C675 C672 1.387 . S
C676 C677 1.387 . S
C676 H680 0.950 . S
C676 C685 1.390 . S
C677 C676 1.387 . S
C677 C679 1.387 . S
H678 C685 0.950 . S
C679 C677 1.387 . S
C679 C681 1.390 . S
C679 H683 0.950 . S
H680 C676 0.950 . S
C681 C679 1.390 . S
C681 C682 1.387 . S
C681 H684 0.950 . S
C682 C681 1.387 . S
C682 C685 1.387 . S
H683 C679 0.950 . S
H684 C681 0.950 . S
C685 C676 1.390 . S
C685 H678 0.950 . S
C685 C682 1.387 . S
C686 C687 1.387 . S
C686 H690 0.950 . S
C686 C695 1.390 . S
C687 C686 1.387 . S
C687 C689 1.387 . S
H688 C695 0.950 . S
C689 C687 1.387 . S
C689 C691 1.390 . S
C689 H693 0.950 . S
H690 C686 0.950 . S
C691 C689 1.390 . S
C691 C692 1.387 . S
C691 H694 0.950 . S
C692 C691 1.387 . S
C692 C695 1.387 . S
H693 C689 0.950 . S
H694 C691 0.950 . S
C695 C686 1.390 . S
C695 H688 0.950 . S
C695 C692 1.387 . S
C397 C7 1.360 . S
C402 C370 1.357 . S
C407 C40 1.359 . S
C412 C205 1.359 . S
C417 C238 1.359 . S
C422 C73 1.358 . S
C427 C271 1.360 . S
C432 C106 1.357 . S
C437 C304 1.358 . S
C442 C139 1.358 . S
C447 C337 1.357 . S
C452 C172 1.360 . S
C457 N13 1.427 . S
C462 N2 1.425 . S
C467 N35 1.424 . S
C472 N46 1.425 . S
C477 N79 1.425 . S
C482 N68 1.423 . S
C487 N112 1.427 . S
C492 N101 1.425 . S
C497 N145 1.426 . S
C502 N134 1.424 . S
C507 N167 1.425 . S
C512 N178 1.427 . S
C517 N211 1.426 . S
C522 N200 1.424 . S
C527 N233 1.425 . S
C532 N244 1.427 . S
C537 N277 1.427 . S
C542 N266 1.425 . S
C547 N299 1.425 . S
C552 N310 1.426 . S
C557 N332 1.423 . S
C562 N343 1.425 . S
C567 N376 1.425 . S
C572 N365 1.423 . S
C577 C21 1.569 . S
C582 C285 1.570 . S
C587 C54 1.569 . S
C592 C318 1.569 . S
C597 C87 1.569 . S
C602 C351 1.569 . S
C607 C384 1.569 . S
C612 C120 1.570 . S
C617 C219 1.569 . S
C622 C153 1.569 . S
C627 C252 1.570 . S
C632 C186 1.569 . S
C637 C348 1.318 . S
C642 C18 1.318 . S
C647 C381 1.318 . S
C652 C51 1.318 . S
C657 C216 1.316 . S
C662 C84 1.317 . S
C667 C117 1.318 . S
C672 C249 1.318 . S
C677 C150 1.318 . S
C682 C282 1.317 . S
C687 C183 1.316 . S
C692 C315 1.316 . S
