# Generated by pormake.
# Topology zff, (5)-cn, num edge types: 1
# Building blocks:
#     Node 0, Type 0, BuildingBlock: XOMCOT_clean_sbu_1, # of connection points: 5
#     Node 1, Type 0, BuildingBlock: XOMCOT_clean_sbu_1, # of connection points: 5
#     Node 2, Type 0, BuildingBlock: XOMCOT_clean_sbu_1, # of connection points: 5
#     Node 3, Type 0, BuildingBlock: XOMCOT_clean_sbu_1, # of connection points: 5
#     Node 4, Type 0, BuildingBlock: XOMCOT_clean_sbu_1, # of connection points: 5
#     Node 5, Type 0, BuildingBlock: XOMCOT_clean_sbu_1, # of connection points: 5
#     Node 6, Type 0, BuildingBlock: XOMCOT_clean_sbu_1, # of connection points: 5
#     Node 7, Type 0, BuildingBlock: XOMCOT_clean_sbu_1, # of connection points: 5
#     Node 8, Type 0, BuildingBlock: XOMCOT_clean_sbu_1, # of connection points: 5
#     Node 9, Type 0, BuildingBlock: XOMCOT_clean_sbu_1, # of connection points: 5
#     Node 10, Type 0, BuildingBlock: XOMCOT_clean_sbu_1, # of connection points: 5
#     Node 11, Type 0, BuildingBlock: XOMCOT_clean_sbu_1, # of connection points: 5
#     Node 12, Type 0, BuildingBlock: XOMCOT_clean_sbu_1, # of connection points: 5
#     Node 13, Type 0, BuildingBlock: XOMCOT_clean_sbu_1, # of connection points: 5
#     Node 14, Type 0, BuildingBlock: XOMCOT_clean_sbu_1, # of connection points: 5
#     Node 15, Type 0, BuildingBlock: XOMCOT_clean_sbu_1, # of connection points: 5
#     Edge 16, Type (0, 0), BuildingBlock: ZUJKAS_clean_linker_0, # of connection points: 2
#     Edge 17, Type (0, 0), BuildingBlock: ZUJKAS_clean_linker_0, # of connection points: 2
#     Edge 18, Type (0, 0), BuildingBlock: ZUJKAS_clean_linker_0, # of connection points: 2
#     Edge 19, Type (0, 0), BuildingBlock: ZUJKAS_clean_linker_0, # of connection points: 2
#     Edge 20, Type (0, 0), BuildingBlock: ZUJKAS_clean_linker_0, # of connection points: 2
#     Edge 21, Type (0, 0), BuildingBlock: ZUJKAS_clean_linker_0, # of connection points: 2
#     Edge 22, Type (0, 0), BuildingBlock: ZUJKAS_clean_linker_0, # of connection points: 2
#     Edge 23, Type (0, 0), BuildingBlock: ZUJKAS_clean_linker_0, # of connection points: 2
#     Edge 24, Type (0, 0), BuildingBlock: ZUJKAS_clean_linker_0, # of connection points: 2
#     Edge 25, Type (0, 0), BuildingBlock: ZUJKAS_clean_linker_0, # of connection points: 2
#     Edge 26, Type (0, 0), BuildingBlock: ZUJKAS_clean_linker_0, # of connection points: 2
#     Edge 27, Type (0, 0), BuildingBlock: ZUJKAS_clean_linker_0, # of connection points: 2
#     Edge 28, Type (0, 0), BuildingBlock: ZUJKAS_clean_linker_0, # of connection points: 2
#     Edge 29, Type (0, 0), BuildingBlock: ZUJKAS_clean_linker_0, # of connection points: 2
#     Edge 30, Type (0, 0), BuildingBlock: ZUJKAS_clean_linker_0, # of connection points: 2
#     Edge 31, Type (0, 0), BuildingBlock: ZUJKAS_clean_linker_0, # of connection points: 2
#     Edge 32, Type (0, 0), BuildingBlock: ZUJKAS_clean_linker_0, # of connection points: 2
#     Edge 33, Type (0, 0), BuildingBlock: ZUJKAS_clean_linker_0, # of connection points: 2
#     Edge 34, Type (0, 0), BuildingBlock: ZUJKAS_clean_linker_0, # of connection points: 2
#     Edge 35, Type (0, 0), BuildingBlock: ZUJKAS_clean_linker_0, # of connection points: 2
#     Edge 36, Type (0, 0), BuildingBlock: ZUJKAS_clean_linker_0, # of connection points: 2
#     Edge 37, Type (0, 0), BuildingBlock: ZUJKAS_clean_linker_0, # of connection points: 2
#     Edge 38, Type (0, 0), BuildingBlock: ZUJKAS_clean_linker_0, # of connection points: 2
#     Edge 39, Type (0, 0), BuildingBlock: ZUJKAS_clean_linker_0, # of connection points: 2
#     Edge 40, Type (0, 0), BuildingBlock: ZUJKAS_clean_linker_0, # of connection points: 2
#     Edge 41, Type (0, 0), BuildingBlock: ZUJKAS_clean_linker_0, # of connection points: 2
#     Edge 42, Type (0, 0), BuildingBlock: ZUJKAS_clean_linker_0, # of connection points: 2
#     Edge 43, Type (0, 0), BuildingBlock: ZUJKAS_clean_linker_0, # of connection points: 2
#     Edge 44, Type (0, 0), BuildingBlock: ZUJKAS_clean_linker_0, # of connection points: 2
#     Edge 45, Type (0, 0), BuildingBlock: ZUJKAS_clean_linker_0, # of connection points: 2
#     Edge 46, Type (0, 0), BuildingBlock: ZUJKAS_clean_linker_0, # of connection points: 2
#     Edge 47, Type (0, 0), BuildingBlock: ZUJKAS_clean_linker_0, # of connection points: 2
#     Edge 48, Type (0, 0), BuildingBlock: ZUJKAS_clean_linker_0, # of connection points: 2
#     Edge 49, Type (0, 0), BuildingBlock: ZUJKAS_clean_linker_0, # of connection points: 2
#     Edge 50, Type (0, 0), BuildingBlock: ZUJKAS_clean_linker_0, # of connection points: 2
#     Edge 51, Type (0, 0), BuildingBlock: ZUJKAS_clean_linker_0, # of connection points: 2
#     Edge 52, Type (0, 0), BuildingBlock: ZUJKAS_clean_linker_0, # of connection points: 2
#     Edge 53, Type (0, 0), BuildingBlock: ZUJKAS_clean_linker_0, # of connection points: 2
#     Edge 54, Type (0, 0), BuildingBlock: ZUJKAS_clean_linker_0, # of connection points: 2
#     Edge 55, Type (0, 0), BuildingBlock: ZUJKAS_clean_linker_0, # of connection points: 2
# Relax obj value: 0.163
# Max RMSD: 0.198
# Mean RMSD: 0.198
data_MOF--net-zff--node1-XOMCOT_clean_sbu_1--edge1-ZUJKAS_clean_linker_0
_symmetry_space_group_name_H-M    P1
_symmetry_Int_Tables_number       1
_symmetry_cell_setting            triclinic
loop_
_symmetry_equiv_pos_as_xyz
'x, y, z'
_cell_length_a     47.209079
_cell_length_b     47.221128
_cell_length_c     82.690677
_cell_angle_alpha  89.945974
_cell_angle_beta   89.845148
_cell_angle_gamma 89.962114
loop_
_atom_site_label
_atom_site_type_symbol
_atom_site_fract_x
_atom_site_fract_y
_atom_site_fract_z
_atom_type_partial_charge
C0 C 0.96847 0.30913 0.41149 0.0
C1 C 0.96165 0.31151 0.42757 0.0
N2 N 0.98577 0.31334 0.43615 0.0
N3 N 0.99691 0.30883 0.40969 0.0
C4 C 0.0068 0.31248 0.42496 0.0
H5 H 0.95329 0.30847 0.40179 0.0
Co6 Co 0.01704 0.30739 0.38976 0.0
C7 C 0.0506 0.26558 0.41014 0.0
O8 O 0.02958 0.25849 0.41976 0.0
N9 N 0.037 0.30654 0.36983 0.0
C10 C 0.06338 0.29048 0.34944 0.0
C11 C 0.05113 0.28384 0.36403 0.0
C12 C 0.04087 0.32676 0.35833 0.0
N13 N 0.05707 0.31757 0.34581 0.0
O14 O 0.03705 0.34003 0.39634 0.0
H15 H 0.05252 0.26351 0.36998 0.0
H16 H 0.03237 0.34795 0.35919 0.0
O17 O 0.04663 0.28372 0.39892 0.0
C18 C 0.02278 0.36168 0.39228 0.0
O19 O -0.00017 0.35818 0.38356 0.0
N20 N 0.99524 0.27632 0.38291 0.0
C21 C 0.95209 0.2375 0.37694 0.0
C22 C 0.97864 0.22838 0.38252 0.0
C23 C 2e-05 0.24812 0.38538 0.0
C24 C 0.97112 0.28498 0.37539 0.0
C25 C 0.94897 0.26608 0.37261 0.0
H26 H 0.01995 0.24042 0.38979 0.0
H27 H 0.9681 0.30726 0.37285 0.0
H28 H 0.02909 0.31401 0.42782 0.0
H29 H 0.94041 0.31241 0.4325 0.0
H30 H 0.0757 0.2762 0.342 0.0
H31 H 0.98265 0.20627 0.38515 0.0
H32 H 0.92909 0.27426 0.36809 0.0
C33 C 0.6463 0.98622 0.41302 0.0
C34 C 0.64602 0.98506 0.42957 0.0
N35 N 0.66888 -0.00102 0.43515 0.0
N36 N 0.66907 0.00097 0.40798 0.0
C37 C 0.68273 0.00839 0.42177 0.0
H38 H 0.63066 0.97712 0.40503 0.0
Co39 Co 0.67345 0.00654 0.38578 0.0
C40 C 0.72749 0.03465 0.38014 0.0
O41 O 0.73241 0.01582 0.3688 0.0
N42 N 0.67614 0.0119 0.36263 0.0
C43 C 0.68071 0.005 0.336 0.0
C44 C 0.68453 0.99336 0.35107 0.0
C45 C 0.66756 0.03489 0.35397 0.0
N46 N 0.66974 0.03108 0.33777 0.0
O47 O 0.64783 0.03731 0.38755 0.0
H48 H 0.69288 0.97245 0.35313 0.0
H49 H 0.65941 0.05407 0.35938 0.0
O50 O 0.70497 0.03302 0.38875 0.0
C51 C 0.62277 0.03236 0.3828 0.0
O52 O 0.6181 0.00971 0.37398 0.0
N53 N 0.69684 0.97435 0.3854 0.0
C54 C 0.72343 0.92197 0.38885 0.0
C55 C 0.73646 0.94674 0.39441 0.0
C56 C 0.72241 0.97258 0.39306 0.0
C57 C 0.68322 0.95023 0.38073 0.0
C58 C 0.6963 0.92379 0.38213 0.0
H59 H 0.73167 0.99077 0.39886 0.0
H60 H 0.66192 0.9516 0.376 0.0
H61 H 0.70198 0.0208 0.42204 0.0
H62 H 0.63023 0.9746 0.43698 0.0
H63 H 0.68465 0.99451 0.32458 0.0
H64 H 0.75682 0.94594 0.4004 0.0
H65 H 0.68528 0.90498 0.37808 0.0
C66 C 0.01666 0.66509 0.4126 0.0
C67 C 0.02288 0.66237 0.42873 0.0
N68 N 0.00083 0.67233 0.43745 0.0
N69 N 0.99085 0.67684 0.41097 0.0
C70 C 0.98158 0.68094 0.42632 0.0
H71 H 0.03025 0.65921 0.4026 0.0
Co72 Co 0.97529 0.68395 0.39055 0.0
C73 C 0.93771 0.73317 0.39939 0.0
O74 O 0.95354 0.75176 0.39182 0.0
N75 N 0.95955 0.69025 0.36939 0.0
C76 C 0.94663 0.71039 0.34609 0.0
C77 C 0.95803 0.71493 0.36113 0.0
C78 C 0.94876 0.67099 0.35884 0.0
N79 N 0.94085 0.68263 0.34456 0.0
O80 O 0.95224 0.65169 0.39361 0.0
H81 H 0.96589 0.73505 0.36529 0.0
H82 H 0.94739 0.64862 0.3613 0.0
O83 O 0.9448 0.70705 0.39984 0.0
C84 C 0.96542 0.62957 0.38917 0.0
O85 O 0.98904 0.63242 0.38088 0.0
N86 N 0.00086 0.71417 0.38805 0.0
C87 C 0.04819 0.74932 0.38634 0.0
C88 C 0.02929 0.75126 0.39937 0.0
C89 C 0.00616 0.73303 0.4002 0.0
C90 C 0.01925 0.71179 0.37536 0.0
C91 C 0.04291 0.72941 0.37417 0.0
H92 H 0.99305 0.73339 0.41092 0.0
H93 H 0.01622 0.69533 0.36645 0.0
H94 H 0.96114 0.68999 0.42926 0.0
H95 H 0.04251 0.65424 0.43361 0.0
H96 H 0.94319 0.72644 0.33696 0.0
H97 H 0.0332 0.76566 0.40931 0.0
H98 H 0.05732 0.72696 0.36405 0.0
C99 C 0.30522 0.02683 0.40914 0.0
C100 C 0.30665 0.03547 0.42498 0.0
N101 N 0.31457 0.01324 0.43411 0.0
N102 N 0.31151 -0.00102 0.40815 0.0
C103 C 0.3182 0.99162 0.42354 0.0
H104 H 0.29973 0.04019 0.39902 0.0
Co105 Co 0.31174 0.97752 0.38876 0.0
C106 C 0.27681 0.93774 0.41073 0.0
O107 O 0.27318 0.95435 0.42328 0.0
N108 N 0.31225 0.95643 0.3692 0.0
C109 C 0.29625 0.92981 0.34898 0.0
C110 C 0.28936 0.94286 0.36328 0.0
C111 C 0.33287 0.95144 0.35805 0.0
N112 N 0.32368 0.93508 0.34563 0.0
O113 O 0.34595 0.96053 0.3956 0.0
H114 H 0.26869 0.94266 0.36895 0.0
H115 H 0.35425 0.95937 0.35902 0.0
O116 O 0.29044 0.94647 0.39834 0.0
C117 C 0.36673 0.97566 0.39108 0.0
O118 O 0.36194 0.99732 0.38148 0.0
N119 N 0.27887 0.99619 0.38188 0.0
C120 C 0.23884 0.03813 0.37588 0.0
C121 C 0.23303 0.01618 0.38682 0.0
C122 C 0.25341 0.99543 0.38972 0.0
C123 C 0.2838 0.01572 0.37006 0.0
C124 C 0.26404 0.03702 0.36688 0.0
H125 H 0.24938 0.98048 0.39922 0.0
H126 H 0.3042 0.01623 0.36408 0.0
H127 H 0.32468 0.9705 0.42702 0.0
H128 H 0.30219 0.05657 0.42941 0.0
H129 H 0.28187 0.9178 0.34148 0.0
H130 H 0.21399 0.01634 0.39416 0.0
H131 H 0.26921 0.05341 0.35819 0.0
C132 C 0.98744 0.64884 0.63425 0.0
C133 C 0.98462 0.64609 0.61785 0.0
N134 N 0.00204 0.66479 0.61057 0.0
N135 N 0.00661 0.6691 0.63751 0.0
C136 C 0.01518 0.67866 0.62282 0.0
H137 H 0.97626 0.63673 0.64335 0.0
Co138 Co 0.0149 0.67645 0.65912 0.0
C139 C 0.05015 0.72698 0.66059 0.0
O140 O 0.03353 0.73573 0.67231 0.0
N141 N 0.02274 0.68217 0.68188 0.0
C142 C 0.01879 0.69215 0.70823 0.0
C143 C 0.00708 0.69587 0.6932 0.0
C144 C 0.0442 0.67058 0.69066 0.0
N145 N 0.04205 0.67595 0.70671 0.0
O146 O 0.04192 0.64692 0.65805 0.0
H147 H 0.98814 0.70798 0.69099 0.0
H148 H 0.06097 0.65791 0.68546 0.0
O149 O 0.04471 0.70362 0.6534 0.0
C150 C 0.03333 0.62336 0.66359 0.0
O151 O 0.01103 0.62319 0.67314 0.0
N152 N 0.98611 0.70393 0.65886 0.0
C153 C 0.93691 0.73534 0.65361 0.0
C154 C 0.96255 0.74336 0.64641 0.0
C155 C 0.98678 0.7271 0.64893 0.0
C156 C 0.96106 0.6952 0.66543 0.0
C157 C 0.93633 0.71102 0.66334 0.0
H158 H 0.00551 0.73237 0.64208 0.0
H159 H 0.96023 0.67548 0.67208 0.0
H160 H 0.03085 0.69512 0.62113 0.0
H161 H 0.97042 0.63165 0.61175 0.0
H162 H 0.01005 0.69985 0.71952 0.0
H163 H 0.96374 0.76169 0.63855 0.0
H164 H 0.91672 0.70366 0.66872 0.0
C165 C 0.33917 0.98519 0.63158 0.0
C166 C 0.3428 0.98223 0.61522 0.0
N167 N 0.32925 0.00364 0.60769 0.0
N168 N 0.32325 0.00824 0.63458 0.0
C169 C 0.31741 0.01917 0.61978 0.0
H170 H 0.34766 0.97141 0.64083 0.0
Co171 Co 0.31576 0.01809 0.65601 0.0
C172 C 0.26487 0.05335 0.65577 0.0
O173 O 0.25441 0.03679 0.66704 0.0
N174 N 0.30959 0.02767 0.67859 0.0
C175 C 0.29689 0.02641 0.70469 0.0
C176 C 0.29282 0.0147 0.68969 0.0
C177 C 0.32341 0.0476 0.68749 0.0
N178 N 0.3164 0.04699 0.70339 0.0
O179 O 0.34555 0.04459 0.65441 0.0
H180 H 0.27821 -0.00231 0.68731 0.0
H181 H 0.33868 0.06225 0.68253 0.0
O182 O 0.28909 0.04782 0.64956 0.0
C183 C 0.36896 0.03517 0.65967 0.0
O184 O 0.3688 0.01232 0.66876 0.0
N185 N 0.28806 0.98957 0.65634 0.0
C186 C 0.2567 0.94007 0.65217 0.0
C187 C 0.24982 0.96472 0.6436 0.0
C188 C 0.26607 0.98908 0.64562 0.0
C189 C 0.29566 0.96546 0.66434 0.0
C190 C 0.27981 0.94065 0.66277 0.0
H191 H 0.26186 0.00695 0.63785 0.0
H192 H 0.31456 0.96538 0.67171 0.0
H193 H 0.30519 0.03829 0.61793 0.0
H194 H 0.3543 0.96527 0.60936 0.0
H195 H 0.28698 0.01945 0.71582 0.0
H196 H 0.23241 0.96501 0.63509 0.0
H197 H 0.2863 0.9218 0.66925 0.0
C198 C 0.01187 0.35107 0.63366 0.0
C199 C 0.01641 0.3538 0.61734 0.0
N200 N -0.00078 0.33562 0.60951 0.0
N201 N 0.99181 0.33138 0.63631 0.0
C202 C 0.98425 0.32239 0.62136 0.0
H203 H 0.02246 0.36282 0.64309 0.0
Co204 Co 0.981 0.32264 0.65749 0.0
C205 C 0.9488 0.26972 0.65539 0.0
O206 O 0.96517 0.25922 0.6667 0.0
N207 N 0.97022 0.3152 0.6798 0.0
C208 C 0.96938 0.3003 0.70554 0.0
C209 C 0.98209 0.29724 0.69067 0.0
C210 C 0.95014 0.32889 0.68873 0.0
N211 N 0.94946 0.32047 0.70436 0.0
O212 O 0.95312 0.35121 0.65567 0.0
H213 H -0.00095 0.28254 0.68819 0.0
H214 H 0.93618 0.34502 0.68403 0.0
O215 O 0.95311 0.2948 0.65008 0.0
C216 C 0.96149 0.37495 0.66103 0.0
O217 O 0.9836 0.37542 0.67065 0.0
N218 N 0.0109 0.29628 0.65808 0.0
C219 C 0.06204 0.26734 0.65433 0.0
C220 C 0.03846 0.26021 0.64497 0.0
C221 C 0.01327 0.27519 0.64684 0.0
C222 C 0.0339 0.30397 0.66703 0.0
C223 C 0.05953 0.28926 0.66566 0.0
H224 H 0.99626 0.27077 0.63853 0.0
H225 H 0.03251 0.32213 0.67496 0.0
H226 H 0.96856 0.30615 0.61923 0.0
H227 H 0.03108 0.36841 0.61171 0.0
H228 H 0.9751 0.28925 0.71654 0.0
H229 H 0.03967 0.24363 0.63595 0.0
H230 H 0.07753 0.29578 0.67285 0.0
C231 C 0.65707 0.01199 0.62977 0.0
C232 C 0.65594 0.01495 0.61331 0.0
N233 N 0.67427 0.99652 0.60657 0.0
N234 N 0.67592 0.9917 0.63362 0.0
C235 C 0.68638 0.98268 0.6192 0.0
H236 H 0.64471 0.02375 0.63851 0.0
Co237 Co 0.68043 0.98299 0.65547 0.0
C238 C 0.72531 0.94078 0.65891 0.0
O239 O 0.73402 0.95442 0.67179 0.0
N240 N 0.68332 0.97502 0.67834 0.0
C241 C 0.69118 0.97893 0.70488 0.0
C242 C 0.69594 0.99077 0.68995 0.0
C243 C 0.67103 0.95353 0.68682 0.0
N244 N 0.67529 0.95557 0.70298 0.0
O245 O 0.64854 0.95899 0.65374 0.0
H246 H 0.70791 0.00989 0.68801 0.0
H247 H 0.65881 0.93678 0.68129 0.0
O248 O 0.70493 0.95067 0.65045 0.0
C249 C 0.62568 0.96904 0.65947 0.0
O250 O 0.62695 0.99138 0.6689 0.0
N251 N 0.71036 0.00887 0.65603 0.0
C252 C 0.74546 0.05574 0.6515 0.0
C253 C 0.75408 0.02872 0.64644 0.0
C254 C 0.73597 0.00562 0.64851 0.0
C255 C 0.70151 0.03506 0.66077 0.0
C256 C 0.71887 0.0587 0.65889 0.0
H257 H 0.74196 0.98576 0.64307 0.0
H258 H 0.68041 0.03764 0.66571 0.0
H259 H 0.70205 0.96608 0.61796 0.0
H260 H 0.64274 0.02981 0.60679 0.0
H261 H 0.69802 0.98758 0.71634 0.0
H262 H 0.77399 0.0257 0.64013 0.0
H263 H 0.71129 0.07918 0.6629 0.0
C264 C 0.48156 0.84022 0.9124 0.0
C265 C 0.47754 0.83911 0.9288 0.0
N266 N 0.49548 0.81981 0.93502 0.0
N267 N 0.50198 0.82179 0.90809 0.0
C268 C 0.51036 0.80967 0.92218 0.0
H269 H 0.47005 0.85346 0.90399 0.0
Co270 Co 0.50981 0.81766 0.88607 0.0
C271 C 0.55025 0.77147 0.88182 0.0
O272 O 0.53505 0.76279 0.86952 0.0
N273 N 0.51675 0.8151 0.86303 0.0
C274 C 0.51121 0.80708 0.83661 0.0
C275 C 0.5008 0.80172 0.85179 0.0
C276 C 0.53705 0.82832 0.85403 0.0
N277 N 0.53388 0.82417 0.83789 0.0
O278 O 0.53465 0.84878 0.88777 0.0
H279 H 0.4827 0.78848 0.85419 0.0
H280 H 0.55335 0.84161 0.85915 0.0
O281 O 0.54178 0.79243 0.89035 0.0
C282 C 0.52432 0.87217 0.88306 0.0
O283 O 0.50147 0.87181 0.87403 0.0
N284 N 0.48319 0.78833 0.8857 0.0
C285 C 0.43576 0.75439 0.89112 0.0
C286 C 0.46275 0.7454 0.89598 0.0
C287 C 0.48612 0.76294 0.89347 0.0
C288 C 0.45704 0.79755 0.88112 0.0
C289 C 0.43311 0.78074 0.88346 0.0
H290 H 0.50598 0.75678 0.89882 0.0
H291 H 0.45474 0.81853 0.87601 0.0
H292 H 0.52628 0.79322 0.92298 0.0
H293 H 0.46254 0.85167 0.93565 0.0
H294 H 0.50252 0.79892 0.82545 0.0
H295 H 0.46556 0.72569 0.90249 0.0
H296 H 0.41265 0.78859 0.87959 0.0
C297 C 0.15584 0.47997 0.91523 0.0
C298 C 0.15685 0.47527 0.93156 0.0
N299 N 0.1758 0.49323 0.93805 0.0
N300 N 0.17405 0.50078 0.91125 0.0
C301 C 0.18587 0.50876 0.92548 0.0
H302 H 0.14295 0.46856 0.90662 0.0
Co303 Co 0.17859 0.50936 0.8894 0.0
C304 C 0.22424 0.55056 0.88587 0.0
O305 O 0.23324 0.53594 0.87338 0.0
N306 N 0.1816 0.51709 0.86647 0.0
C307 C 0.19013 0.51262 0.84002 0.0
C308 C 0.19524 0.50161 0.85507 0.0
C309 C 0.1685 0.53773 0.85772 0.0
N310 N 0.17295 0.5352 0.84157 0.0
O311 O 0.14688 0.53352 0.89114 0.0
H312 H 0.20849 0.48344 0.85726 0.0
H313 H 0.15509 0.5538 0.86302 0.0
O314 O 0.20323 0.54159 0.89422 0.0
C315 C 0.124 0.5228 0.88597 0.0
O316 O 0.12531 0.4999 0.87698 0.0
N317 N 0.2084 0.48327 0.88888 0.0
C318 C 0.24338 0.43634 0.8934 0.0
C319 C 0.25171 0.4632 0.8988 0.0
C320 C 0.23365 0.48632 0.89673 0.0
C321 C 0.19973 0.45719 0.88389 0.0
C322 C 0.21707 0.43352 0.88575 0.0
H323 H 0.23935 0.50602 0.90243 0.0
H324 H 0.17883 0.45473 0.87874 0.0
H325 H 0.20215 0.52478 0.92653 0.0
H326 H 0.14457 0.45974 0.93819 0.0
H327 H 0.1985 0.5044 0.82877 0.0
H328 H 0.27135 0.46608 0.90533 0.0
H329 H 0.20972 0.41315 0.88148 0.0
C330 C 0.50869 0.14626 0.91462 0.0
C331 C 0.51332 0.14775 0.93095 0.0
N332 N 0.49886 0.17004 0.93685 0.0
N333 N 0.49138 0.16748 0.91008 0.0
C334 C 0.48547 0.18167 0.92395 0.0
H335 H 0.51787 0.13096 0.90641 0.0
Co336 Co 0.48431 0.17215 0.88807 0.0
C337 C 0.44701 0.22116 0.88358 0.0
O338 O 0.46163 0.22798 0.87063 0.0
N339 N 0.47812 0.17521 0.86506 0.0
C340 C 0.48542 0.18201 0.83866 0.0
C341 C 0.49592 0.18637 0.85389 0.0
C342 C 0.45665 0.16436 0.856 0.0
N343 N 0.46083 0.16777 0.83988 0.0
O344 O 0.45653 0.14351 0.88979 0.0
H345 H 0.51554 0.19716 0.85637 0.0
H346 H 0.43876 0.15315 0.86108 0.0
O347 O 0.45475 0.20018 0.89231 0.0
C348 C 0.46401 0.11923 0.88481 0.0
O349 O 0.48668 0.11718 0.87563 0.0
N350 N 0.51355 0.19884 0.88759 0.0
C351 C 0.5636 0.22942 0.89171 0.0
C352 C 0.53724 0.24146 0.89558 0.0
C353 C 0.51254 0.22558 0.89384 0.0
C354 C 0.53897 0.18665 0.88398 0.0
C355 C 0.56422 0.20161 0.88577 0.0
H356 H 0.49309 0.2345 0.89836 0.0
H357 H 0.53958 0.16481 0.88004 0.0
H358 H 0.47266 0.20067 0.9245 0.0
H359 H 0.52652 0.13359 0.93797 0.0
H360 H 0.49544 0.18873 0.82752 0.0
H361 H 0.53563 0.26279 0.90028 0.0
H362 H 0.58405 0.19109 0.88306 0.0
C363 C 0.83736 0.51817 0.91248 0.0
C364 C 0.83854 0.52417 0.92869 0.0
N365 N 0.82375 0.50426 0.93677 0.0
N366 N 0.82178 0.49465 0.91019 0.0
C367 C 0.814 0.48632 0.92526 0.0
H368 H 0.84689 0.53043 0.90285 0.0
Co369 Co 0.81452 0.48202 0.88918 0.0
C370 C 0.7622 0.44848 0.89249 0.0
O371 O 0.74957 0.46521 0.8821 0.0
N372 N 0.80834 0.46939 0.86714 0.0
C373 C 0.79205 0.46448 0.84186 0.0
C374 C 0.78797 0.47747 0.85655 0.0
C375 C 0.82463 0.45136 0.85821 0.0
N376 N 0.81529 0.4482 0.84287 0.0
O377 O 0.84391 0.45545 0.89201 0.0
H378 H 0.77111 0.4923 0.85904 0.0
H379 H 0.84315 0.44054 0.86271 0.0
O380 O 0.78767 0.45341 0.89686 0.0
C381 C 0.86758 0.46531 0.88738 0.0
O382 O 0.86778 0.48813 0.87827 0.0
N383 N 0.7872 0.51079 0.88746 0.0
C384 C 0.75752 0.56175 0.8894 0.0
C385 C 0.75116 0.53933 0.89989 0.0
C386 C 0.76655 0.51425 0.89891 0.0
C387 C 0.79394 0.53254 0.87729 0.0
C388 C 0.77891 0.55803 0.8778 0.0
H389 H 0.76282 0.4982 0.90798 0.0
H390 H 0.81178 0.53044 0.86914 0.0
H391 H 0.80075 0.46812 0.92772 0.0
H392 H 0.84951 0.54186 0.93414 0.0
H393 H 0.77945 0.46759 0.83108 0.0
H394 H 0.73494 0.54143 0.90911 0.0
H395 H 0.7849 0.57512 0.86975 0.0
C396 C 0.47939 0.16169 0.13189 0.0
C397 C 0.47515 0.16227 0.1155 0.0
N398 N 0.49457 0.17957 0.10879 0.0
N399 N 0.50135 0.17856 0.13569 0.0
C400 C 0.5105 0.18907 0.12131 0.0
H401 H 0.467 0.14992 0.14062 0.0
Co402 Co 0.5105 0.18315 0.15747 0.0
C403 C 0.54869 0.23156 0.15985 0.0
O404 O 0.53257 0.24132 0.17153 0.0
N405 N 0.51908 0.18633 0.18036 0.0
C406 C 0.51629 0.19629 0.20674 0.0
C407 C 0.50545 0.20192 0.19171 0.0
C408 C 0.53851 0.17153 0.18915 0.0
N409 N 0.53693 0.1768 0.20526 0.0
O410 O 0.53594 0.15267 0.15525 0.0
H411 H 0.48876 0.217 0.18948 0.0
H412 H 0.55305 0.15639 0.18394 0.0
O413 O 0.54156 0.209 0.15236 0.0
C414 C 0.52561 0.12917 0.15975 0.0
O415 O 0.50225 0.12919 0.16843 0.0
N416 N 0.48312 0.21179 0.15841 0.0
C417 C 0.43465 0.24495 0.15472 0.0
C418 C 0.46042 0.2532 0.1477 0.0
C419 C 0.48425 0.23601 0.14937 0.0
C420 C 0.45806 0.20308 0.16496 0.0
C421 C 0.43367 0.21958 0.16353 0.0
H422 H 0.50298 0.24141 0.14254 0.0
H423 H 0.45693 0.1828 0.17103 0.0
H424 H 0.52783 0.20391 0.12008 0.0
H425 H 0.45902 0.15069 0.10899 0.0
H426 H 0.50928 0.20595 0.21791 0.0
H427 H 0.4618 0.27202 0.14024 0.0
H428 H 0.41414 0.21228 0.16902 0.0
C429 C 0.84679 0.48029 0.13361 0.0
C430 C 0.84901 0.47714 0.1172 0.0
N431 N 0.83249 0.49672 0.11 0.0
N432 N 0.82889 0.50167 0.13698 0.0
C433 C 0.82032 0.51136 0.12233 0.0
H434 H 0.85761 0.46778 0.14265 0.0
Co435 Co 0.82272 0.51086 0.15861 0.0
C436 C 0.77085 0.54477 0.1602 0.0
O437 O 0.76263 0.52893 0.17237 0.0
N438 N 0.81809 0.51948 0.18142 0.0
C439 C 0.80756 0.5159 0.20773 0.0
C440 C 0.80288 0.505 0.19262 0.0
C441 C 0.8317 0.53947 0.19039 0.0
N442 N 0.82605 0.53742 0.20645 0.0
O443 O 0.85074 0.53909 0.15637 0.0
H444 H 0.78867 0.48766 0.19023 0.0
H445 H 0.84634 0.55472 0.1854 0.0
O446 O 0.79417 0.53927 0.15296 0.0
C447 C 0.87545 0.5316 0.16057 0.0
O448 O 0.87831 0.5089 0.16963 0.0
N449 N 0.79644 0.48112 0.15947 0.0
C450 C 0.76499 0.43138 0.15671 0.0
C451 C 0.75641 0.45619 0.1488 0.0
C452 C 0.77272 0.48061 0.15004 0.0
C453 C 0.8059 0.45683 0.16659 0.0
C454 C 0.79021 0.4318 0.16564 0.0
H455 H 0.76695 0.49854 0.14266 0.0
H456 H 0.8259 0.4569 0.17294 0.0
H457 H 0.80593 0.52898 0.12075 0.0
H458 H 0.86165 0.46131 0.11106 0.0
H459 H 0.798 0.50835 0.21882 0.0
H460 H 0.73786 0.45642 0.14112 0.0
H461 H 0.79785 0.41298 0.17172 0.0
C462 C 0.51615 0.84069 0.12979 0.0
C463 C 0.52062 0.83936 0.11343 0.0
N464 N 0.50265 0.8202 0.10715 0.0
N465 N 0.49548 0.82246 0.134 0.0
C466 C 0.48735 0.81032 0.11988 0.0
H467 H 0.52768 0.85375 0.13825 0.0
Co468 Co 0.48756 0.81821 0.156 0.0
C469 C 0.44637 0.77279 0.16014 0.0
O470 O 0.46155 0.76379 0.17239 0.0
N471 N 0.48048 0.81556 0.17904 0.0
C472 C 0.48536 0.80744 0.20552 0.0
C473 C 0.49636 0.80241 0.19043 0.0
C474 C 0.45973 0.82845 0.18786 0.0
N475 N 0.46237 0.82402 0.20399 0.0
O476 O 0.46347 0.84994 0.15445 0.0
H477 H 0.5149 0.78969 0.18823 0.0
H478 H 0.44304 0.84113 0.1826 0.0
O479 O 0.45503 0.79374 0.15165 0.0
C480 C 0.47414 0.87287 0.15956 0.0
O481 O 0.49718 0.87173 0.16842 0.0
N482 N 0.51348 0.78822 0.15628 0.0
C483 C 0.55982 0.7528 0.15099 0.0
C484 C 0.53279 0.74507 0.14562 0.0
C485 C 0.50995 0.76328 0.14815 0.0
C486 C 0.5398 0.79639 0.16115 0.0
C487 C 0.56318 0.7787 0.159 0.0
H488 H 0.49002 0.75795 0.14261 0.0
H489 H 0.54271 0.81716 0.1664 0.0
H490 H 0.47146 0.79388 0.11901 0.0
H491 H 0.53606 0.85149 0.10665 0.0
H492 H 0.49427 0.80014 0.21683 0.0
H493 H 0.52947 0.72544 0.13913 0.0
H494 H 0.58387 0.78577 0.16292 0.0
C495 C 0.15552 0.51961 0.13239 0.0
C496 C 0.15756 0.5236 0.11602 0.0
N497 N 0.17568 0.50426 0.10998 0.0
N498 N 0.17229 0.49791 0.13684 0.0
C499 C 0.18424 0.48867 0.12287 0.0
H500 H 0.1428 0.53197 0.14068 0.0
Co501 Co 0.17497 0.48947 0.1588 0.0
C502 C 0.22144 0.44946 0.16351 0.0
O503 O 0.22905 0.46429 0.1762 0.0
N504 N 0.17607 0.48183 0.18175 0.0
C505 C 0.18251 0.4861 0.20839 0.0
C506 C 0.18801 0.49775 0.19352 0.0
C507 C 0.16335 0.46042 0.1901 0.0
N508 N 0.16683 0.46265 0.20632 0.0
O509 O 0.14434 0.46426 0.15614 0.0
H510 H 0.20025 0.51673 0.19175 0.0
H511 H 0.15155 0.44351 0.18444 0.0
O512 O 0.20086 0.45793 0.15471 0.0
C513 C 0.12028 0.47334 0.16062 0.0
O514 O 0.11909 0.49573 0.17001 0.0
N515 N 0.20402 0.51639 0.16007 0.0
C516 C 0.23828 0.56398 0.15585 0.0
C517 C 0.24747 0.53719 0.15075 0.0
C518 C 0.2298 0.51377 0.15266 0.0
C519 C 0.19454 0.54238 0.1648 0.0
C520 C 0.2115 0.56638 0.16309 0.0
H521 H 0.23623 0.49417 0.14708 0.0
H522 H 0.17327 0.54452 0.16956 0.0
H523 H 0.19942 0.47152 0.1222 0.0
H524 H 0.1464 0.53946 0.10904 0.0
H525 H 0.18889 0.49483 0.21992 0.0
H526 H 0.26749 0.53459 0.14449 0.0
H527 H 0.20345 0.58668 0.16709 0.0
H528 H 0.95571 0.618 0.42087 0.0
H529 H 0.96268 0.5715 0.43369 0.0
H530 H 0.97031 0.5331 0.38658 0.0
H531 H 0.96417 0.57938 0.37382 0.0
H532 H 0.9388 0.50112 0.41656 0.0
H533 H 0.04963 0.54 0.42336 0.0
H534 H 0.01953 0.56159 0.42888 0.0
H535 H 0.02748 0.55547 0.40796 0.0
C536 C 0.95751 0.59935 0.4133 0.0
C537 C 0.95929 0.60196 0.39639 0.0
C538 C 0.96168 0.57295 0.42063 0.0
C539 C 0.9671 0.5491 0.41103 0.0
C540 C 0.966 0.55136 0.39414 0.0
H541 H 0.02754 0.41143 0.37681 0.0
H542 H 0.01862 0.45795 0.38869 0.0
C543 C 0.96241 0.57768 0.38686 0.0
C544 C 0.97871 0.52284 0.41796 0.0
H545 H 0.04314 0.49053 0.42063 0.0
C546 C 0.96145 0.49877 0.41829 0.0
C547 C 0.00828 0.52005 0.42015 0.0
C548 C 0.02748 0.54558 0.42015 0.0
C549 C 0.97341 0.47162 0.41901 0.0
C550 C 0.00324 0.46881 0.41913 0.0
C551 C 0.02028 0.4929 0.42059 0.0
C552 C 0.01637 0.44244 0.41329 0.0
C553 C 0.95437 0.44609 0.41773 0.0
C554 C 0.01964 0.41879 0.42338 0.0
C555 C 0.02543 0.39225 0.41659 0.0
C556 C 0.02745 0.38933 0.39972 0.0
C557 C 0.02644 0.4134 0.38985 0.0
C558 C 0.02125 0.43986 0.39662 0.0
H559 H 0.93167 0.4517 0.41931 0.0
H560 H 0.95714 0.43613 0.40566 0.0
H561 H 0.96024 0.43014 0.427 0.0
H562 H 0.01571 0.4205 0.43625 0.0
H563 H 0.02557 0.37375 0.42435 0.0
H564 H 0.57188 0.04653 0.37033 0.0
H565 H 0.52771 0.04753 0.38563 0.0
H566 H 0.57459 0.04323 0.43027 0.0
H567 H 0.61902 0.04359 0.41495 0.0
H568 H 0.54189 0.99376 0.42134 0.0
H569 H 0.47652 0.09065 0.41857 0.0
H570 H 0.49517 0.08437 0.39997 0.0
H571 H 0.51487 0.09142 0.41814 0.0
C572 C 0.57277 0.0476 0.38341 0.0
C573 C 0.59865 0.04475 0.39147 0.0
C574 C 0.54755 0.04822 0.39218 0.0
C575 C 0.54793 0.04539 0.40908 0.0
C576 C 0.57391 0.04574 0.41725 0.0
H577 H 0.37725 0.97717 0.42337 0.0
H578 H 0.42239 0.99145 0.43561 0.0
C579 C 0.59925 0.04595 0.40846 0.0
C580 C 0.52222 0.03432 0.41703 0.0
H581 H 0.4511 0.04546 0.41554 0.0
C582 C 0.52204 0.00532 0.42088 0.0
C583 C 0.49646 0.04942 0.41652 0.0
C584 C 0.49576 0.08079 0.41323 0.0
C585 C 0.49651 0.99028 0.42177 0.0
C586 C 0.47092 0.00477 0.41899 0.0
C587 C 0.47094 0.03439 0.41755 0.0
C588 C 0.44576 0.98963 0.41312 0.0
C589 C 0.49713 0.95857 0.4238 0.0
C590 C 0.44448 0.98303 0.39661 0.0
C591 C 0.4188 0.97554 0.38959 0.0
C592 C 0.39426 0.9739 0.39907 0.0
C593 C 0.39607 0.97785 0.41589 0.0
C594 C 0.42172 0.98613 0.42288 0.0
H595 H 0.51718 0.95136 0.42949 0.0
H596 H 0.47892 0.95136 0.43127 0.0
H597 H 0.49537 0.94844 0.41173 0.0
H598 H 0.46288 0.9859 0.38891 0.0
H599 H 0.41769 0.97298 0.37658 0.0
H600 H 0.95431 0.38132 0.62857 0.0
H601 H 0.96503 0.42514 0.6139 0.0
H602 H 0.96522 0.47099 0.65898 0.0
H603 H 0.95564 0.42725 0.67368 0.0
H604 H 0.94628 0.50213 0.62738 0.0
H605 H 0.05087 0.44706 0.62709 0.0
H606 H 0.01956 0.43037 0.61907 0.0
H607 H 0.02336 0.43464 0.6405 0.0
C608 C 0.95518 0.40103 0.63524 0.0
C609 C 0.9546 0.40104 0.65226 0.0
C610 C 0.9614 0.42598 0.62683 0.0
C611 C 0.96627 0.45106 0.63542 0.0
C612 C 0.9615 0.45175 0.65217 0.0
H613 H 0.0356 0.57056 0.67608 0.0
H614 H 0.02722 0.52727 0.66076 0.0
C615 C 0.95596 0.42681 0.66057 0.0
C616 C 0.98251 0.47462 0.62829 0.0
H617 H 0.05113 0.49677 0.62986 0.0
C618 C 0.96922 0.50102 0.62697 0.0
C619 C 0.01243 0.47289 0.62771 0.0
C620 C 0.02759 0.44477 0.62861 0.0
C621 C 0.98516 0.52604 0.62732 0.0
C622 C 0.01488 0.52427 0.62932 0.0
C623 C 0.02834 0.49791 0.62837 0.0
C624 C 0.02998 0.54762 0.63734 0.0
C625 C 0.96992 0.55415 0.62776 0.0
C626 C 0.03647 0.57276 0.62913 0.0
C627 C 0.04195 0.59743 0.63791 0.0
C628 C 0.04018 0.59713 0.65492 0.0
C629 C 0.03705 0.57125 0.663 0.0
C630 C 0.03221 0.54658 0.65425 0.0
H631 H 0.94699 0.55195 0.62506 0.0
H632 H 0.97221 0.56384 0.63992 0.0
H633 H 0.97948 0.56888 0.61882 0.0
H634 H 0.03479 0.57386 0.61608 0.0
H635 H 0.04425 0.6172 0.63139 0.0
H636 H 0.57432 0.96391 0.6736 0.0
H637 H 0.52905 0.97192 0.66008 0.0
H638 H 0.57141 0.9728 0.61381 0.0
H639 H 0.61663 0.96323 0.62725 0.0
H640 H 0.54378 0.02764 0.62889 0.0
H641 H 0.47357 0.93401 0.62367 0.0
H642 H 0.49502 0.93481 0.64163 0.0
H643 H 0.51179 0.93175 0.62217 0.0
C644 C 0.57367 0.96418 0.6605 0.0
C645 C 0.59875 0.96303 0.65145 0.0
C646 C 0.54791 0.96879 0.65278 0.0
C647 C 0.54708 0.97298 0.63598 0.0
C648 C 0.57171 0.96929 0.62676 0.0
H649 H 0.3771 0.03998 0.62734 0.0
H650 H 0.42243 0.03159 0.61368 0.0
C651 C 0.59744 0.96377 0.63446 0.0
C652 C 0.52218 0.98742 0.62921 0.0
H653 H 0.45071 0.97917 0.6285 0.0
C654 C 0.52344 0.01707 0.62805 0.0
C655 C 0.4959 0.97351 0.62806 0.0
C656 C 0.49388 0.9417 0.6288 0.0
C657 C 0.4986 0.03332 0.62804 0.0
C658 C 0.47227 0.01941 0.62899 0.0
C659 C 0.47107 0.98976 0.62782 0.0
C660 C 0.44715 0.0338 0.63561 0.0
C661 C 0.50063 0.06513 0.62873 0.0
C662 C 0.44641 0.039 0.65231 0.0
C663 C 0.42059 0.04294 0.66018 0.0
C664 C 0.39536 0.04241 0.65134 0.0
C665 C 0.39641 0.04079 0.63437 0.0
C666 C 0.42223 0.03594 0.62654 0.0
H667 H 0.5209 0.07277 0.62344 0.0
H668 H 0.48266 0.07511 0.62221 0.0
H669 H 0.49971 0.07203 0.64155 0.0
H670 H 0.46547 0.03701 0.65951 0.0
H671 H 0.42014 0.04383 0.67327 0.0
H672 H 0.53513 0.87677 0.91527 0.0
H673 H 0.52572 0.91928 0.93143 0.0
H674 H 0.51664 0.96806 0.88763 0.0
H675 H 0.52489 0.9256 0.87149 0.0
H676 H 0.54328 0.99557 0.91996 0.0
H677 H 0.43706 0.94454 0.92283 0.0
H678 H 0.46915 0.92563 0.9278 0.0
H679 H 0.46107 0.93338 0.90708 0.0
C680 C 0.53246 0.89686 0.90913 0.0
C681 C 0.53042 0.89807 0.89215 0.0
C682 C 0.52702 0.92104 0.91839 0.0
C683 C 0.52028 0.94655 0.91067 0.0
C684 C 0.52189 0.94844 0.89375 0.0
H685 H 0.45748 0.06649 0.87286 0.0
H686 H 0.46259 0.0232 0.88866 0.0
C687 C 0.52665 0.92427 0.88453 0.0
C688 C 0.50588 0.96971 0.91928 0.0
H689 H 0.43822 0.99463 0.91984 0.0
C690 C 0.52036 0.99536 0.92096 0.0
C691 C 0.47603 0.96913 0.92072 0.0
C692 C 0.45975 0.94171 0.91961 0.0
C693 C 0.50546 0.02102 0.9215 0.0
C694 C 0.47559 0.02059 0.91998 0.0
C695 C 0.46111 0.99478 0.9209 0.0
C696 C 0.46141 0.04442 0.91185 0.0
C697 C 0.52185 0.04845 0.92121 0.0
C698 C 0.45673 0.0702 0.91978 0.0
C699 C 0.45314 0.09494 0.91071 0.0
C700 C 0.45496 0.09395 0.89372 0.0
C701 C 0.45604 0.06768 0.88592 0.0
C702 C 0.45897 0.043 0.89496 0.0
H703 H 0.54471 0.04516 0.92375 0.0
H704 H 0.5198 0.05856 0.90913 0.0
H705 H 0.51309 0.06333 0.93032 0.0
H706 H 0.4586 0.0716 0.93281 0.0
H707 H 0.4524 0.11505 0.917 0.0
H708 H 0.87388 0.45899 0.9198 0.0
H709 H 0.91843 0.46692 0.93432 0.0
H710 H 0.96391 0.46504 0.88903 0.0
H711 H 0.91953 0.45812 0.8745 0.0
H712 H 0.99305 0.44202 0.92089 0.0
H713 H 0.94799 0.55123 0.92114 0.0
H714 H 0.92815 0.52134 0.9287 0.0
H715 H 0.9336 0.52546 0.90735 0.0
C716 C 0.89361 0.4588 0.91307 0.0
C717 C 0.89354 0.45807 0.89606 0.0
C718 C 0.91894 0.46345 0.92138 0.0
C719 C 0.94424 0.46677 0.91269 0.0
C720 C 0.94451 0.4624 0.89591 0.0
H721 H 0.07201 0.52369 0.87254 0.0
H722 H 0.02749 0.51713 0.88717 0.0
C723 C 0.91924 0.45839 0.88761 0.0
C724 C 0.96908 0.48069 0.91986 0.0
H725 H -0.00238 0.54688 0.91817 0.0
C726 C 0.99409 0.46496 0.92126 0.0
C727 C 0.97016 0.51062 0.92037 0.0
C728 C 0.9436 0.52833 0.91938 0.0
C729 C 0.0205 0.47847 0.92092 0.0
C730 C 0.02154 0.50818 0.91885 0.0
C731 C 0.99658 0.52409 0.91971 0.0
C732 C 0.04632 0.52099 0.9109 0.0
C733 C 0.04707 0.4607 0.92055 0.0
C734 C 0.07109 0.52712 0.91949 0.0
C735 C 0.09647 0.53153 0.91109 0.0
C736 C 0.09717 0.52917 0.89413 0.0
C737 C 0.07185 0.52574 0.8856 0.0
C738 C 0.04651 0.52195 0.89394 0.0
H739 H 0.04287 0.43833 0.92397 0.0
H740 H 0.05629 0.46107 0.90819 0.0
H741 H 0.06306 0.46959 0.92895 0.0
H742 H 0.07123 0.52628 0.93258 0.0
H743 H 0.11588 0.5338 0.91793 0.0
H744 H 0.46276 0.88055 0.12764 0.0
H745 H 0.46986 0.92506 0.11284 0.0
H746 H 0.47913 0.96936 0.1581 0.0
H747 H 0.47306 0.92497 0.17287 0.0
H748 H 0.44844 -0.00199 0.1263 0.0
H749 H 0.55807 0.95507 0.12197 0.0
H750 H 0.52725 0.93394 0.11733 0.0
H751 H 0.53569 0.94185 0.13798 0.0
C752 C 0.46498 0.90005 0.13442 0.0
C753 C 0.46754 0.89955 0.15137 0.0
C754 C 0.46913 0.92534 0.12594 0.0
C755 C 0.47517 0.95022 0.13444 0.0
C756 C 0.47439 0.95023 0.1514 0.0
H757 H 0.5303 0.07689 0.17256 0.0
H758 H 0.52523 0.03274 0.15752 0.0
C759 C 0.47087 0.92497 0.15983 0.0
C760 C 0.48772 0.97498 0.12639 0.0
H761 H 0.5533 0.00488 0.12574 0.0
C762 C 0.47129 -0.00045 0.12518 0.0
C763 C 0.5175 0.97667 0.12483 0.0
C764 C 0.53581 0.9505 0.12549 0.0
C765 C 0.48421 0.02623 0.12483 0.0
C766 C 0.51404 0.02796 0.12608 0.0
C767 C 0.53043 0.00336 0.12485 0.0
C768 C 0.52671 0.05277 0.13397 0.0
C769 C 0.46587 0.05239 0.12551 0.0
C770 C 0.53112 0.07816 0.12557 0.0
C771 C 0.53471 0.10334 0.1342 0.0
C772 C 0.53324 0.10317 0.1512 0.0
C773 C 0.53168 0.07737 0.15948 0.0
C774 C 0.52875 0.05225 0.15089 0.0
H775 H 0.44338 0.04764 0.12269 0.0
H776 H 0.4669 0.06176 0.13781 0.0
H777 H 0.47377 0.06848 0.11681 0.0
H778 H 0.52939 0.07884 0.11252 0.0
H779 H 0.53551 0.12315 0.12759 0.0
H780 H 0.92837 0.54257 0.1712 0.0
H781 H 0.97118 0.53833 0.15481 0.0
H782 H 0.9204 0.53222 0.11167 0.0
H783 H 0.87749 0.5382 0.12799 0.0
H784 H 0.9511 0.48095 0.12324 0.0
H785 H 0.02133 0.57394 0.11741 0.0
H786 H 0.0029 0.57314 0.13644 0.0
H787 H 0.98305 0.57673 0.11799 0.0
C788 C 0.92648 0.54214 0.15814 0.0
C789 C 0.89983 0.54054 0.15084 0.0
C790 C 0.95089 0.53975 0.14875 0.0
C791 C 0.94886 0.53494 0.13203 0.0
C792 C 0.92235 0.53628 0.12451 0.0
H793 H 0.11758 0.46793 0.128 0.0
H794 H 0.07485 0.47586 0.11187 0.0
C795 C 0.8979 0.53967 0.13387 0.0
C796 C 0.97301 0.52101 0.12402 0.0
H797 H 0.04452 0.52865 0.12385 0.0
C798 C 0.97152 0.49141 0.12251 0.0
C799 C -0.00056 0.53468 0.12284 0.0
C800 C 0.00179 0.56645 0.12359 0.0
C801 C 0.9962 0.47495 0.12278 0.0
C802 C 0.02257 0.48861 0.1243 0.0
C803 C 0.02413 0.51821 0.12287 0.0
C804 C 0.04644 0.47446 0.13239 0.0
C805 C 0.99383 0.44317 0.12349 0.0
C806 C 0.04428 0.46994 0.14913 0.0
C807 C 0.0686 0.46635 0.15841 0.0
C808 C 0.09525 0.46649 0.15096 0.0
C809 C 0.09714 0.46748 0.13398 0.0
C810 C 0.07282 0.47202 0.12474 0.0
H811 H 0.97433 0.4357 0.11733 0.0
H812 H 0.01261 0.43294 0.11785 0.0
H813 H 0.99272 0.43639 0.13634 0.0
H814 H 0.02407 0.4722 0.15526 0.0
H815 H 0.06676 0.46588 0.17147 0.0
H816 H 0.03136 0.36287 0.33147 0.0
H817 H 0.04637 0.38726 0.30664 0.0
H818 H 0.11865 0.33182 0.30301 0.0
H819 H 0.104 0.30759 0.32764 0.0
H820 H 0.09526 0.4161 0.29919 0.0
H821 H 0.08448 0.3242 0.25823 0.0
H822 H 0.06962 0.32458 0.27837 0.0
H823 H 0.10654 0.31662 0.27533 0.0
C824 C 0.0505 0.35594 0.32542 0.0
C825 C 0.06619 0.33293 0.33152 0.0
C826 C 0.05899 0.36983 0.31117 0.0
C827 C 0.08328 0.36095 0.30267 0.0
C828 C 0.09935 0.33853 0.30899 0.0
H829 H 0.18921 0.45294 0.23591 0.0
H830 H 0.16702 0.42844 0.25863 0.0
C831 C 0.0909 0.32467 0.32316 0.0
C832 C 0.09252 0.37551 0.2875 0.0
H833 H 0.11152 0.36339 0.24811 0.0
C834 C 0.09854 0.40461 0.28799 0.0
C835 C 0.09641 0.36071 0.27274 0.0
C836 C 0.08865 0.32987 0.27105 0.0
C837 C 0.1094 0.41899 0.2744 0.0
C838 C 0.11489 0.40381 0.25994 0.0
C839 C 0.10774 0.37498 0.25923 0.0
C840 C 0.12887 0.41736 0.24567 0.0
C841 C 0.11483 0.45039 0.27568 0.0
C842 C 0.1155 0.4182 0.23049 0.0
C843 C 0.12832 0.43215 0.21734 0.0
C844 C 0.15479 0.4455 0.21914 0.0
C845 C 0.16857 0.44349 0.23418 0.0
C846 C 0.15584 0.42953 0.24723 0.0
H847 H 0.10185 0.46019 0.28541 0.0
H848 H 0.13745 0.45394 0.27865 0.0
H849 H 0.11014 0.46134 0.2641 0.0
H850 H 0.09481 0.40872 0.22892 0.0
H851 H 0.11707 0.43339 0.20598 0.0
H852 H 0.5872 0.14796 0.20374 0.0
H853 H 0.61151 0.12377 0.226 0.0
H854 H 0.54616 0.15096 0.25899 0.0
H855 H 0.5213 0.174 0.23697 0.0
H856 H 0.63329 0.14412 0.255 0.0
H857 H 0.548 0.06662 0.26748 0.0
H858 H 0.5488 0.08786 0.24933 0.0
H859 H 0.5357 0.10256 0.26799 0.0
C860 C 0.5778 0.14858 0.21567 0.0
C861 C 0.55208 0.16304 0.21838 0.0
C862 C 0.59187 0.13486 0.22845 0.0
C863 C 0.58045 0.13507 0.24418 0.0
C864 C 0.55516 0.14991 0.24695 0.0
H865 H 0.62547 0.06794 0.33893 0.0
H866 H 0.60535 0.09477 0.31629 0.0
C867 C 0.5411 0.1635 0.23426 0.0
C868 C 0.59486 0.12007 0.2578 0.0
H869 H 0.58411 0.07054 0.28742 0.0
C870 C 0.62262 0.12787 0.262 0.0
C871 C 0.581 0.09883 0.267 0.0
C872 C 0.55184 0.08825 0.26264 0.0
C873 C 0.63651 0.11559 0.27535 0.0
C874 C 0.62244 0.0947 0.28468 0.0
C875 C 0.59482 0.08674 0.28039 0.0
C876 C 0.63613 0.08027 0.29872 0.0
C877 C 0.6659 0.12557 0.27961 0.0
C878 C 0.66024 0.0633 0.29645 0.0
C879 C 0.67178 0.04798 0.30938 0.0
C880 C 0.65949 0.0492 0.3249 0.0
C881 C 0.63573 0.06677 0.32723 0.0
C882 C 0.62407 0.08197 0.31426 0.0
H883 H 0.67085 0.14636 0.27397 0.0
H884 H 0.66841 0.12743 0.29292 0.0
H885 H 0.68162 0.10991 0.27515 0.0
H886 H 0.66971 0.06125 0.28457 0.0
H887 H 0.69016 0.03482 0.30716 0.0
H888 H 0.85004 0.59008 0.20567 0.0
H889 H 0.87153 0.61565 0.22838 0.0
H890 H 0.85143 0.54611 0.26018 0.0
H891 H 0.83104 0.5202 0.23769 0.0
H892 H 0.84756 0.63326 0.25749 0.0
H893 H 0.93479 0.55778 0.26949 0.0
H894 H 0.91426 0.55686 0.25112 0.0
H895 H 0.90069 0.54104 0.26937 0.0
C896 C 0.85048 0.58009 0.21744 0.0
C897 C 0.83868 0.55298 0.21973 0.0
C898 C 0.86265 0.59481 0.23046 0.0
C899 C 0.86355 0.58264 0.24598 0.0
C900 C 0.85157 0.55577 0.24829 0.0
H901 H 0.91443 0.63127 0.34306 0.0
H902 H 0.89592 0.60773 0.31894 0.0
C903 C 0.83948 0.54109 0.23537 0.0
C904 C 0.87624 0.59809 0.25994 0.0
H905 H 0.92525 0.5918 0.29016 0.0
C906 C 0.86475 0.62434 0.26453 0.0
C907 C 0.89866 0.58646 0.26919 0.0
C908 C 0.91302 0.55912 0.26447 0.0
C909 C 0.87443 0.63879 0.27834 0.0
C910 C 0.89648 0.62689 0.28775 0.0
C911 C 0.90821 0.60083 0.28305 0.0
C912 C 0.90783 0.64124 0.30242 0.0
C913 C 0.86041 0.66632 0.28303 0.0
C914 C 0.92113 0.66771 0.30118 0.0
C915 C 0.93194 0.68115 0.31493 0.0
C916 C 0.9298 0.66845 0.33033 0.0
C917 C 0.91673 0.6417 0.33148 0.0
C918 C 0.90598 0.62823 0.31768 0.0
H919 H 0.83957 0.66905 0.27701 0.0
H920 H 0.85726 0.66752 0.29633 0.0
H921 H 0.87421 0.68421 0.27934 0.0
H922 H 0.92344 0.6779 0.28951 0.0
H923 H 0.94235 0.70136 0.31337 0.0
H924 H 0.45363 0.80094 0.23359 0.0
H925 H 0.43012 0.82264 0.25679 0.0
H926 H 0.41069 0.89627 0.22801 0.0
H927 H 0.43434 0.87452 0.20463 0.0
H928 H 0.44399 0.8719 0.27241 0.0
H929 H 0.33427 0.8784 0.24865 0.0
H930 H 0.36136 0.85718 0.23911 0.0
H931 H 0.3607 0.89488 0.23613 0.0
C932 C 0.44431 0.82172 0.23213 0.0
C933 C 0.446 0.83597 0.21719 0.0
C934 C 0.43081 0.83412 0.24545 0.0
C935 C 0.41845 0.86108 0.24422 0.0
C936 C 0.41961 0.87525 0.22925 0.0
H937 H 0.36945 0.95963 0.33102 0.0
H938 H 0.39358 0.94364 0.30631 0.0
C939 C 0.43311 0.86277 0.21585 0.0
C940 C 0.40523 0.87439 0.25882 0.0
H941 H 0.34258 0.89906 0.27422 0.0
C942 C 0.42183 0.87795 0.27277 0.0
C943 C 0.37626 0.88211 0.2594 0.0
C944 C 0.35697 0.87777 0.24509 0.0
C945 C 0.41027 0.8887 0.28725 0.0
C946 C 0.38134 0.89658 0.2878 0.0
C947 C 0.3648 0.89326 0.2738 0.0
C948 C 0.36731 0.90653 0.30301 0.0
C949 C 0.42893 0.89057 0.302 0.0
C950 C 0.34435 0.89128 0.30939 0.0
C951 C 0.33055 0.90038 0.32345 0.0
C952 C 0.33918 0.92516 0.33155 0.0
C953 C 0.36241 0.94033 0.32525 0.0
C954 C 0.37623 0.93118 0.31109 0.0
H955 H 0.44851 0.87771 0.30064 0.0
H956 H 0.43529 0.91293 0.30388 0.0
H957 H 0.41742 0.88331 0.31297 0.0
H958 H 0.3371 0.87214 0.30349 0.0
H959 H 0.31312 0.88782 0.32802 0.0
H960 H 0.1652 0.51806 0.81052 0.0
H961 H 0.14477 0.5448 0.78832 0.0
H962 H 0.12981 0.61538 0.82024 0.0
H963 H 0.1514 0.58895 0.84261 0.0
H964 H 0.09137 0.56548 0.78524 0.0
H965 H 0.16878 0.65385 0.7821 0.0
H966 H 0.17546 0.62191 0.79348 0.0
H967 H 0.15252 0.64882 0.80155 0.0
C968 C 0.15814 0.53944 0.81289 0.0
C969 C 0.16043 0.55135 0.82846 0.0
C970 C 0.14616 0.55468 0.80012 0.0
C971 C 0.13608 0.58232 0.80246 0.0
C972 C 0.13795 0.59431 0.818 0.0
H973 H 0.05047 0.69873 0.73645 0.0
H974 H 0.07365 0.6764 0.75962 0.0
C975 C 0.15004 0.57902 0.83085 0.0
C976 C 0.12288 0.59785 0.78865 0.0
H977 H 0.12914 0.65669 0.76468 0.0
C978 C 0.09969 0.58541 0.78075 0.0
C979 C 0.13363 0.62391 0.78276 0.0
C980 C 0.15911 0.63786 0.79029 0.0
C981 C 0.08693 0.59825 0.76725 0.0
C982 C 0.09791 0.6241 0.76121 0.0
C983 C 0.12083 0.6368 0.76923 0.0
C984 C 0.08554 0.63836 0.74674 0.0
C985 C 0.06146 0.58423 0.75972 0.0
C986 C 0.08518 0.62483 0.7316 0.0
C987 C 0.07183 0.63754 0.7183 0.0
C988 C 0.05856 0.66412 0.71984 0.0
C989 C 0.06003 0.67808 0.73486 0.0
C990 C 0.07342 0.6654 0.74813 0.0
H991 H 0.05139 0.5688 0.7681 0.0
H992 H 0.04537 0.6002 0.75613 0.0
H993 H 0.0682 0.5726 0.74871 0.0
H994 H 0.09485 0.60419 0.73013 0.0
H995 H 0.07104 0.62606 0.70699 0.0
H996 H 0.47937 0.15625 0.80943 0.0
H997 H 0.45218 0.13779 0.7869 0.0
H998 H 0.37784 0.13326 0.81716 0.0
H999 H 0.40486 0.15289 0.83985 0.0
H1000 H 0.42548 0.08693 0.78422 0.0
H1001 H 0.34749 0.17422 0.77735 0.0
H1002 H 0.3791 0.17776 0.78941 0.0
H1003 H 0.34903 0.15878 0.7972 0.0
C1004 C 0.45713 0.15192 0.81135 0.0
C1005 C 0.44435 0.15653 0.82655 0.0
C1006 C 0.44161 0.14105 0.79839 0.0
C1007 C 0.41281 0.13447 0.80017 0.0
C1008 C 0.39989 0.1387 0.81534 0.0
H1009 H 0.29235 0.05992 0.73235 0.0
H1010 H 0.31542 0.08142 0.75577 0.0
C1011 C 0.41548 0.14965 0.82839 0.0
C1012 C 0.39694 0.12234 0.78619 0.0
H1013 H 0.34139 0.13417 0.76052 0.0
C1014 C 0.40711 0.09731 0.77904 0.0
C1015 C 0.37291 0.13579 0.7794 0.0
C1016 C 0.36155 0.16325 0.78611 0.0
C1017 C 0.39395 0.08534 0.76542 0.0
C1018 C 0.37018 0.09899 0.75849 0.0
C1019 C 0.35971 0.12379 0.76576 0.0
C1020 C 0.35576 0.08755 0.74384 0.0
C1021 C 0.40537 0.05786 0.75875 0.0
C1022 C 0.37046 0.08451 0.72912 0.0
C1023 C 0.35733 0.07209 0.71568 0.0
C1024 C 0.32915 0.06247 0.71664 0.0
C1025 C 0.31419 0.06661 0.73122 0.0
C1026 C 0.32731 0.07907 0.74462 0.0
H1027 H 0.41865 0.04651 0.76773 0.0
H1028 H 0.38788 0.04366 0.75494 0.0
H1029 H 0.41874 0.06242 0.748 0.0
H1030 H 0.39227 0.09137 0.7281 0.0
H1031 H 0.3696 0.06917 0.70474 0.0
H1032 H 0.7888 0.4195 0.81902 0.0
H1033 H 0.81069 0.39557 0.79589 0.0
H1034 H 0.89335 0.41973 0.81321 0.0
H1035 H 0.87143 0.4425 0.83673 0.0
H1036 H 0.83921 0.41445 0.7719 0.0
H1037 H 0.90951 0.33945 0.80376 0.0
H1038 H 0.88287 0.35976 0.81424 0.0
H1039 H 0.91681 0.37525 0.80954 0.0
C1040 C 0.81166 0.41935 0.81797 0.0
C1041 C 0.8284 0.43266 0.82977 0.0
C1042 C 0.82421 0.40571 0.80472 0.0
C1043 C 0.85383 0.4053 0.80279 0.0
C1044 C 0.87057 0.41878 0.81457 0.0
H1045 H 0.93593 0.37563 0.70902 0.0
H1046 H 0.91225 0.39626 0.73262 0.0
C1047 C 0.85802 0.43195 0.82801 0.0
C1048 C 0.86691 0.39194 0.78812 0.0
H1049 H 0.91868 0.34615 0.77559 0.0
C1050 C 0.85645 0.39933 0.77276 0.0
C1051 C 0.88914 0.3718 0.78907 0.0
C1052 C 0.90001 0.36087 0.80505 0.0
C1053 C 0.86767 0.38756 0.75846 0.0
C1054 C 0.89092 0.3686 0.75938 0.0
C1055 C 0.90113 0.36091 0.77474 0.0
C1056 C 0.90477 0.35615 0.74467 0.0
C1057 C 0.85384 0.39507 0.74259 0.0
C1058 C 0.9094 0.32677 0.7436 0.0
C1059 C 0.92357 0.31507 0.73027 0.0
C1060 C 0.93318 0.33238 0.71755 0.0
C1061 C 0.92824 0.3617 0.71846 0.0
C1062 C 0.91456 0.37348 0.73196 0.0
H1063 H 0.83138 0.40146 0.74436 0.0
H1064 H 0.86514 0.4133 0.73709 0.0
H1065 H 0.85448 0.37705 0.73399 0.0
H1066 H 0.90218 0.31281 0.75316 0.0
H1067 H 0.92705 0.29241 0.72989 0.0
H1068 H 0.58774 0.84551 0.83821 0.0
H1069 H 0.61336 0.86732 0.81549 0.0
H1070 H 0.54158 0.85272 0.78453 0.0
H1071 H 0.51567 0.83208 0.80702 0.0
H1072 H 0.62863 0.84513 0.7853 0.0
H1073 H 0.55621 0.93632 0.77726 0.0
H1074 H 0.55544 0.91422 0.79507 0.0
H1075 H 0.53816 0.90291 0.77681 0.0
C1076 C 0.57729 0.84721 0.82662 0.0
C1077 C 0.54951 0.8369 0.82459 0.0
C1078 C 0.59205 0.85954 0.8136 0.0
C1079 C 0.57927 0.86211 0.79831 0.0
C1080 C 0.55176 0.85155 0.79623 0.0
H1081 H 0.62497 0.92746 0.70297 0.0
H1082 H 0.60275 0.90294 0.72591 0.0
C1083 C 0.53706 0.83931 0.80916 0.0
C1084 C 0.59456 0.87539 0.78438 0.0
H1085 H 0.58905 0.92771 0.75589 0.0
C1086 C 0.6201 0.86333 0.77896 0.0
C1087 C 0.58346 0.89914 0.77602 0.0
C1088 C 0.55696 0.91409 0.78166 0.0
C1089 C 0.63437 0.87387 0.76521 0.0
C1090 C 0.62302 0.89736 0.75674 0.0
C1091 C 0.59764 0.90955 0.76225 0.0
C1092 C 0.63749 0.91021 0.74241 0.0
C1093 C 0.6611 0.85931 0.75964 0.0
C1094 C 0.66449 0.92234 0.74395 0.0
C1095 C 0.67722 0.93629 0.73086 0.0
C1096 C 0.66326 0.93858 0.71588 0.0
C1097 C 0.63648 0.92581 0.71423 0.0
C1098 C 0.62367 0.91196 0.72739 0.0
H1099 H 0.66282 0.83751 0.76461 0.0
H1100 H 0.66205 0.85817 0.74623 0.0
H1101 H 0.67971 0.87155 0.76387 0.0
H1102 H 0.67544 0.92173 0.75544 0.0
H1103 H 0.6979 0.94568 0.73255 0.0
H1104 H 0.09694 0.27228 0.39059 0.0
H1105 H 0.13284 0.23665 0.3843 0.0
H1106 H 0.0971 0.18094 0.42027 0.0
H1107 H 0.06099 0.21638 0.42668 0.0
H1108 H 0.15904 0.18228 0.41843 0.0
H1109 H 0.10615 0.16437 0.35923 0.0
H1110 H 0.11591 0.20032 0.3637 0.0
H1111 H 0.08921 0.18309 0.37566 0.0
C1112 C 0.09696 0.25266 0.39739 0.0
C1113 C 0.07574 0.24696 0.40894 0.0
C1114 C 0.11744 0.23232 0.39372 0.0
C1115 C 0.11713 0.20602 0.40158 0.0
C1116 C 0.09746 0.20109 0.414 0.0
H1117 H 0.18083 0.04136 0.37631 0.0
H1118 H 0.15206 0.08364 0.38148 0.0
C1119 C 0.07689 0.2214 0.41766 0.0
C1120 C 0.13589 0.18289 0.39606 0.0
H1121 H 0.14724 0.13751 0.36456 0.0
C1122 C 0.15664 0.17257 0.40663 0.0
C1123 C 0.13232 0.17012 0.38073 0.0
C1124 C 0.10958 0.1798 0.36917 0.0
C1125 C 0.17405 0.14973 0.40223 0.0
C1126 C 0.17067 0.13714 0.38683 0.0
C1127 C 0.14988 0.14744 0.37628 0.0
C1128 C 0.18772 0.11238 0.38182 0.0
C1129 C 0.19544 0.13874 0.41423 0.0
C1130 C 0.21707 0.11485 0.37969 0.0
C1131 C 0.23351 0.09081 0.37674 0.0
C1132 C 0.22083 0.06389 0.37585 0.0
C1133 C 0.19119 0.06177 0.37707 0.0
C1134 C 0.17476 0.08586 0.37999 0.0
H1135 H 0.19156 0.14708 0.4266 0.0
H1136 H 0.19503 0.11523 0.41469 0.0
H1137 H 0.21699 0.14536 0.4104 0.0
H1138 H 0.22736 0.13524 0.38086 0.0
H1139 H 0.2563 0.09316 0.37606 0.0
H1140 H 0.90747 0.23569 0.35551 0.0
H1141 H 0.86506 0.20621 0.35722 0.0
H1142 H 0.89888 0.16454 0.39941 0.0
H1143 H 0.94022 0.19514 0.39853 0.0
H1144 H 0.85834 0.15177 0.35474 0.0
H1145 H 0.82141 0.18299 0.41554 0.0
H1146 H 0.84901 0.20196 0.40499 0.0
H1147 H 0.85719 0.17039 0.41634 0.0
C1148 C 0.90573 0.22057 0.36531 0.0
C1149 C 0.92734 0.21798 0.37692 0.0
C1150 C 0.8815 0.20362 0.36622 0.0
C1151 C 0.87842 0.18366 0.3787 0.0
C1152 C 0.90032 0.1804 0.38998 0.0
H1153 H 0.78398 0.03065 0.37551 0.0
H1154 H 0.81865 0.06886 0.37586 0.0
C1155 C 0.92432 0.19756 0.38922 0.0
C1156 C 0.85309 0.16514 0.37947 0.0
H1157 H 0.80323 0.13856 0.40537 0.0
C1158 C 0.84606 0.14922 0.36575 0.0
C1159 C 0.83656 0.16225 0.39371 0.0
C1160 C 0.84124 0.18058 0.4084 0.0
C1161 C 0.82395 0.12946 0.36612 0.0
C1162 C 0.80911 0.12475 0.38078 0.0
C1163 C 0.81504 0.14174 0.39425 0.0
C1164 C 0.78841 0.10137 0.38246 0.0
C1165 C 0.81682 0.11377 0.35076 0.0
C1166 C 0.76027 0.1066 0.3872 0.0
C1167 C 0.74044 0.08452 0.38739 0.0
C1168 C 0.74859 0.0571 0.38273 0.0
C1169 C 0.77707 0.05172 0.3789 0.0
C1170 C 0.79684 0.07356 0.37897 0.0
H1171 H 0.82286 0.12625 0.33988 0.0
H1172 H 0.82887 0.0936 0.35039 0.0
H1173 H 0.79386 0.10884 0.35008 0.0
H1174 H 0.75344 0.12789 0.39015 0.0
H1175 H 0.71857 0.08915 0.39038 0.0
H1176 H 0.92413 0.78447 0.41161 0.0
H1177 H 0.87671 0.80401 0.41501 0.0
H1178 H 0.84038 0.72305 0.40275 0.0
H1179 H 0.88818 0.70318 0.39949 0.0
H1180 H 0.82488 0.768 0.3822 0.0
H1181 H 0.80882 0.79872 0.446 0.0
H1182 H 0.84335 0.80857 0.43885 0.0
H1183 H 0.83385 0.77169 0.43994 0.0
C1184 C 0.90605 0.77057 0.4102 0.0
C1185 C 0.90973 0.7424 0.40524 0.0
C1186 C 0.87895 0.78169 0.41226 0.0
C1187 C 0.85502 0.76491 0.40928 0.0
C1188 C 0.85861 0.73622 0.40529 0.0
H1189 H 0.70247 0.87338 0.40239 0.0
H1190 H 0.72844 0.82905 0.40755 0.0
C1191 C 0.88586 0.72491 0.40348 0.0
C1192 C 0.82723 0.77902 0.40746 0.0
H1193 H 0.78562 0.82863 0.4258 0.0
C1194 C 0.81563 0.78051 0.39186 0.0
C1195 C 0.81511 0.79522 0.42006 0.0
C1196 C 0.82578 0.79326 0.43719 0.0
C1197 C 0.79411 0.79994 0.38822 0.0
C1198 C 0.78406 0.81817 0.40047 0.0
C1199 C 0.79363 0.81474 0.4164 0.0
C1200 C 0.76734 0.84363 0.39649 0.0
C1201 C 0.78357 0.80222 0.37107 0.0
C1202 C 0.78075 0.86625 0.38858 0.0
C1203 C 0.7662 0.89147 0.3858 0.0
C1204 C 0.7379 0.89441 0.39076 0.0
C1205 C 0.72422 0.87147 0.39832 0.0
C1206 C 0.73898 0.84628 0.40132 0.0
H1207 H 0.78789 0.78256 0.36411 0.0
H1208 H 0.76046 0.80662 0.37086 0.0
H1209 H 0.79455 0.82004 0.36494 0.0
H1210 H 0.80274 0.86461 0.38492 0.0
H1211 H 0.77715 0.90882 0.37991 0.0
H1212 H 0.05343 0.80577 0.39253 0.0
H1213 H 0.09733 0.83301 0.39505 0.0
H1214 H 0.14601 0.75862 0.38301 0.0
H1215 H 0.10215 0.73116 0.38054 0.0
H1216 H 0.16223 0.78937 0.41269 0.0
H1217 H 0.15381 0.85792 0.35826 0.0
H1218 H 0.12229 0.85581 0.37047 0.0
H1219 H 0.13499 0.82477 0.36021 0.0
C1220 C 0.07348 0.79532 0.39027 0.0
C1221 C 0.07443 0.76642 0.38629 0.0
C1222 C 0.09847 0.81089 0.39164 0.0
C1223 C 0.12477 0.79779 0.3891 0.0
C1224 C 0.12583 0.76906 0.38491 0.0
H1225 H 0.27975 0.89769 0.38694 0.0
H1226 H 0.24604 0.85951 0.38191 0.0
C1227 C 0.10081 0.75351 0.3834 0.0
C1228 C 0.15112 0.8139 0.39167 0.0
H1229 H 0.18776 0.87136 0.37805 0.0
C1230 C 0.16809 0.80709 0.40503 0.0
C1231 C 0.1587 0.83677 0.38154 0.0
C1232 C 0.14167 0.84421 0.36672 0.0
C1233 C 0.19192 0.82343 0.40893 0.0
C1234 C 0.19869 0.84715 0.39924 0.0
C1235 C 0.1824 0.85319 0.38549 0.0
C1236 C 0.2215 0.8671 0.40359 0.0
C1237 C 0.20947 0.81543 0.42345 0.0
C1238 C 0.21917 0.88356 0.41765 0.0
C1239 C 0.23826 0.90557 0.42051 0.0
C1240 C 0.25984 0.91157 0.40928 0.0
C1241 C 0.26308 0.89393 0.3957 0.0
C1242 C 0.24393 0.87202 0.39282 0.0
H1243 H 0.20624 0.79291 0.4269 0.0
H1244 H 0.23235 0.81901 0.42108 0.0
H1245 H 0.20311 0.82881 0.43387 0.0
H1246 H 0.20173 0.88033 0.42599 0.0
H1247 H 0.23517 0.91872 0.4311 0.0
H1248 H 0.23997 0.91706 0.62344 0.0
H1249 H 0.21009 0.87532 0.61933 0.0
H1250 H 0.20663 0.86196 0.67091 0.0
H1251 H 0.23678 0.90347 0.67509 0.0
H1252 H 0.21287 0.81161 0.65312 0.0
H1253 H 0.12541 0.87892 0.62933 0.0
H1254 H 0.1586 0.88123 0.61875 0.0
H1255 H 0.156 0.89375 0.63921 0.0
C1256 C 0.23284 0.90518 0.63389 0.0
C1257 C 0.24032 0.91371 0.64961 0.0
C1258 C 0.21585 0.88134 0.63152 0.0
C1259 C 0.2058 0.86586 0.64483 0.0
C1260 C 0.21419 0.87365 0.66048 0.0
H1261 H 0.06283 0.77906 0.6722 0.0
H1262 H 0.10231 0.80937 0.66495 0.0
C1263 C 0.23136 0.89735 0.66286 0.0
C1264 C 0.18501 0.84273 0.64269 0.0
H1265 H 0.11591 0.83069 0.63287 0.0
C1266 C 0.19181 0.81557 0.64843 0.0
C1267 C 0.15755 0.84809 0.63657 0.0
C1268 C 0.14875 0.87708 0.63071 0.0
C1269 C 0.17138 0.79397 0.64896 0.0
C1270 C 0.14365 0.79975 0.64349 0.0
C1271 C 0.13733 0.82639 0.63692 0.0
C1272 C 0.11978 0.7806 0.64721 0.0
C1273 C 0.17896 0.76575 0.65633 0.0
C1274 C 0.11645 0.75431 0.63952 0.0
C1275 C 0.09363 0.73668 0.64365 0.0
C1276 C 0.07402 0.74522 0.65554 0.0
C1277 C 0.07749 0.77171 0.66303 0.0
C1278 C 0.10006 0.78916 0.65888 0.0
H1279 H 0.20105 0.76527 0.66093 0.0
H1280 H 0.1643 0.76082 0.66647 0.0
H1281 H 0.17657 0.74885 0.64712 0.0
H1282 H 0.13142 0.74749 0.63037 0.0
H1283 H 0.09146 0.71641 0.63767 0.0
H1284 H 0.20891 0.06211 0.66092 0.0
H1285 H 0.18135 0.10423 0.65485 0.0
H1286 H 0.25461 0.14304 0.63283 0.0
H1287 H 0.28276 0.10045 0.63898 0.0
H1288 H 0.22599 0.17726 0.65639 0.0
H1289 H 0.15106 0.13405 0.61156 0.0
H1290 H 0.15395 0.11154 0.62896 0.0
H1291 H 0.1844 0.11709 0.61618 0.0
C1292 C 0.2192 0.0794 0.65461 0.0
C1293 C 0.24804 0.07799 0.65045 0.0
C1294 C 0.20333 0.10342 0.65105 0.0
C1295 C 0.21585 0.12657 0.64322 0.0
C1296 C 0.24455 0.12522 0.63877 0.0
H1297 H 0.0884 0.257 0.62561 0.0
H1298 H 0.13065 0.22812 0.62089 0.0
C1299 C 0.26053 0.10092 0.64224 0.0
C1300 C 0.19892 0.1526 0.64091 0.0
H1301 H 0.13431 0.17393 0.6273 0.0
C1302 C 0.20625 0.1769 0.64971 0.0
C1303 C 0.17345 0.15224 0.63199 0.0
C1304 C 0.16539 0.12741 0.6215 0.0
C1305 C 0.18763 0.20003 0.65083 0.0
C1306 C 0.16088 0.19844 0.64321 0.0
C1307 C 0.15463 0.17504 0.63337 0.0
C1308 C 0.13808 0.21942 0.64623 0.0
C1309 C 0.19656 0.22559 0.66047 0.0
C1310 C 0.12842 0.22448 0.66206 0.0
C1311 C 0.10437 0.24112 0.66479 0.0
C1312 C 0.08928 0.25249 0.6517 0.0
C1313 C 0.09947 0.24816 0.6359 0.0
C1314 C 0.12366 0.2318 0.6332 0.0
H1315 H 0.21996 0.22809 0.66032 0.0
H1316 H 0.18675 0.24529 0.65573 0.0
H1317 H 0.1899 0.22276 0.67325 0.0
H1318 H 0.13868 0.21452 0.67229 0.0
H1319 H 0.09679 0.24396 0.67706 0.0
H1320 H 0.80279 0.06037 0.65511 0.0
H1321 H 0.83242 0.10185 0.64984 0.0
H1322 H 0.75867 0.14929 0.63527 0.0
H1323 H 0.72885 0.10784 0.64045 0.0
H1324 H 0.83912 0.13353 0.62054 0.0
H1325 H 0.7948 0.19866 0.67081 0.0
H1326 H 0.78925 0.16091 0.66962 0.0
H1327 H 0.77006 0.18432 0.6565 0.0
C1328 C 0.79289 0.07957 0.6507 0.0
C1329 C 0.76346 0.0809 0.64833 0.0
C1330 C 0.80982 0.10324 0.64771 0.0
C1331 C 0.79765 0.12867 0.64233 0.0
C1332 C 0.76837 0.13 0.63969 0.0
H1333 H 0.89891 0.28588 0.64103 0.0
H1334 H 0.85935 0.25459 0.63346 0.0
C1335 C 0.75139 0.10633 0.64271 0.0
C1336 C 0.81587 0.15375 0.63978 0.0
H1337 H 0.83329 0.21746 0.65645 0.0
C1338 C 0.83759 0.15211 0.6282 0.0
C1339 C 0.81356 0.17809 0.64966 0.0
C1340 C 0.79081 0.18073 0.66243 0.0
C1341 C 0.85802 0.17352 0.62685 0.0
C1342 C 0.85686 0.19689 0.63749 0.0
C1343 C 0.83403 0.1995 0.64828 0.0
C1344 C 0.88141 0.21589 0.63966 0.0
C1345 C 0.88132 0.17043 0.61446 0.0
C1346 C 0.90675 0.20442 0.64553 0.0
C1347 C 0.92897 0.22207 0.65 0.0
C1348 C 0.92636 0.2516 0.64865 0.0
C1349 C 0.90146 0.26315 0.6421 0.0
C1350 C 0.87892 0.24537 0.6378 0.0
H1351 H 0.87425 0.15752 0.604 0.0
H1352 H 0.88858 0.19141 0.61 0.0
H1353 H 0.89962 0.15946 0.62007 0.0
H1354 H 0.90891 0.1818 0.64737 0.0
H1355 H 0.94797 0.21254 0.65493 0.0
H1356 H 0.91722 0.75446 0.62456 0.0
H1357 H 0.87522 0.78365 0.61961 0.0
H1358 H 0.85591 0.78263 0.67063 0.0
H1359 H 0.89755 0.75298 0.6756 0.0
H1360 H 0.80844 0.77558 0.65173 0.0
H1361 H 0.87243 0.86733 0.63021 0.0
H1362 H 0.87711 0.83496 0.61916 0.0
H1363 H 0.88829 0.837 0.63988 0.0
C1364 C 0.90399 0.76052 0.63471 0.0
C1365 C 0.91078 0.75179 0.6505 0.0
C1366 C 0.88005 0.77718 0.63186 0.0
C1367 C 0.86276 0.78573 0.64478 0.0
C1368 C 0.86902 0.77628 0.66049 0.0
H1369 H 0.75082 0.90397 0.67907 0.0
H1370 H 0.77949 0.86287 0.67202 0.0
C1371 C 0.89278 0.75938 0.66332 0.0
C1372 C 0.83875 0.80542 0.64224 0.0
H1373 H 0.82345 0.87408 0.63261 0.0
C1374 C 0.81163 0.79698 0.6473 0.0
C1375 C 0.84293 0.83329 0.63635 0.0
C1376 C 0.87176 0.84387 0.63119 0.0
C1377 C 0.78891 0.81612 0.64744 0.0
C1378 C 0.79351 0.84434 0.64242 0.0
C1379 C 0.82007 0.8523 0.63633 0.0
C1380 C 0.773 0.86697 0.64624 0.0
C1381 C 0.76044 0.80646 0.65362 0.0
C1382 C 0.75977 0.88282 0.63402 0.0
C1383 C 0.74302 0.90633 0.63805 0.0
C1384 C 0.74008 0.91453 0.6543 0.0
C1385 C 0.7529 0.8982 0.66644 0.0
C1386 C 0.76909 0.8746 0.66245 0.0
H1387 H 0.75805 0.78311 0.65265 0.0
H1388 H 0.75835 0.81234 0.66656 0.0
H1389 H 0.74299 0.81686 0.64686 0.0
H1390 H 0.76289 0.87735 0.62142 0.0
H1391 H 0.73343 0.91871 0.62848 0.0
H1392 H 0.57868 0.73505 0.86245 0.0
H1393 H 0.62091 0.7077 0.86874 0.0
H1394 H 0.62409 0.74537 0.91618 0.0
H1395 H 0.58135 0.77327 0.90994 0.0
H1396 H 0.67779 0.72956 0.881 0.0
H1397 H 0.61939 0.65487 0.92143 0.0
H1398 H 0.60087 0.67576 0.90652 0.0
H1399 H 0.61541 0.69257 0.92405 0.0
C1400 C 0.5883 0.73767 0.87424 0.0
C1401 C 0.57655 0.75611 0.88577 0.0
C1402 C 0.61254 0.72214 0.87775 0.0
C1403 C 0.62546 0.72455 0.89289 0.0
C1404 C 0.61426 0.7433 0.90442 0.0
H1405 H 0.74615 0.59053 0.91728 0.0
H1406 H 0.71878 0.63422 0.92034 0.0
C1407 C 0.58995 0.75916 0.90085 0.0
C1408 C 0.64972 0.70595 0.89652 0.0
H1409 H 0.66437 0.641 0.91239 0.0
C1410 C 0.67522 0.71048 0.88818 0.0
C1411 C 0.6462 0.68125 0.90593 0.0
C1412 C 0.61904 0.67556 0.91503 0.0
C1413 C 0.69683 0.6901 0.88831 0.0
C1414 C 0.69237 0.66431 0.89665 0.0
C1415 C 0.66765 0.6607 0.90591 0.0
C1416 C 0.71158 0.63974 0.8947 0.0
C1417 C 0.72387 0.69609 0.87918 0.0
C1418 C 0.71664 0.62838 0.87926 0.0
C1419 C 0.73224 0.60344 0.87747 0.0
C1420 C 0.74265 0.58919 0.89113 0.0
C1421 C 0.73801 0.60088 0.90655 0.0
C1422 C 0.72257 0.6259 0.90832 0.0
H1423 H 0.72818 0.7192 0.87862 0.0
H1424 H 0.74228 0.68533 0.88483 0.0
H1425 H 0.72171 0.68835 0.86657 0.0
H1426 H 0.70766 0.63825 0.86861 0.0
H1427 H 0.73526 0.59475 0.86547 0.0
H1428 H 0.38432 0.77235 0.90256 0.0
H1429 H 0.34235 0.74354 0.90823 0.0
H1430 H 0.38799 0.66855 0.89371 0.0
H1431 H 0.42992 0.69714 0.88801 0.0
H1432 H 0.3127 0.71191 0.88699 0.0
H1433 H 0.35223 0.6429 0.93588 0.0
H1434 H 0.37018 0.67507 0.92993 0.0
H1435 H 0.376 0.64264 0.91894 0.0
C1436 C 0.38538 0.74971 0.90056 0.0
C1437 C 0.41041 0.73699 0.89479 0.0
C1438 C 0.36148 0.73328 0.90396 0.0
C1439 C 0.36225 0.70385 0.90174 0.0
C1440 C 0.38721 0.69112 0.896 0.0
H1441 H 0.25884 0.58113 0.86655 0.0
H1442 H 0.28679 0.62247 0.87355 0.0
C1443 C 0.4111 0.70749 0.89264 0.0
C1444 C 0.33638 0.68657 0.90394 0.0
H1445 H 0.31365 0.62374 0.91968 0.0
C1446 C 0.31261 0.69302 0.89447 0.0
C1447 C 0.33594 0.66229 0.91397 0.0
C1448 C 0.35987 0.65551 0.92539 0.0
C1449 C 0.28957 0.6744 0.89361 0.0
C1450 C 0.2906 0.64859 0.90225 0.0
C1451 C 0.31308 0.64342 0.9129 0.0
C1452 C 0.2715 0.6249 0.8982 0.0
C1453 C 0.26497 0.68179 0.88279 0.0
C1454 C 0.25386 0.61229 0.90986 0.0
C1455 C 0.23767 0.58841 0.90586 0.0
C1456 C 0.23951 0.57665 0.89027 0.0
C1457 C 0.25705 0.58958 0.87869 0.0
C1458 C 0.27286 0.6134 0.88261 0.0
H1459 H 0.26253 0.70511 0.88161 0.0
H1460 H 0.26892 0.67307 0.87053 0.0
H1461 H 0.24486 0.67271 0.88747 0.0
H1462 H 0.25285 0.62073 0.92202 0.0
H1463 H 0.22438 0.57876 0.91504 0.0
H1464 H 0.41747 0.22161 0.91234 0.0
H1465 H 0.3769 0.25206 0.91935 0.0
H1466 H 0.38087 0.29044 0.87206 0.0
H1467 H 0.42091 0.26051 0.86499 0.0
H1468 H 0.37631 0.31393 0.91842 0.0
H1469 H 0.2967 0.26663 0.87758 0.0
H1470 H 0.32821 0.24793 0.88391 0.0
H1471 H 0.3299 0.27319 0.86763 0.0
C1472 C 0.4095 0.23644 0.90343 0.0
C1473 C 0.42237 0.2387 0.88812 0.0
C1474 C 0.38641 0.25375 0.90745 0.0
C1475 C 0.37572 0.27309 0.89611 0.0
C1476 C 0.38852 0.27525 0.88086 0.0
H1477 H 0.30079 0.43226 0.89005 0.0
H1478 H 0.33048 0.39058 0.89437 0.0
C1479 C 0.41157 0.25825 0.8769 0.0
C1480 C 0.35216 0.29241 0.90012 0.0
H1481 H 0.28916 0.31555 0.88501 0.0
C1482 C 0.35689 0.31396 0.91144 0.0
C1483 C 0.32672 0.29212 0.89116 0.0
C1484 C 0.31991 0.26854 0.8795 0.0
C1485 C 0.33779 0.33657 0.91307 0.0
C1486 C 0.31372 0.33768 0.90293 0.0
C1487 C 0.30786 0.31489 0.89261 0.0
C1488 C 0.29586 0.36333 0.90168 0.0
C1489 C 0.34402 0.35946 0.92525 0.0
C1490 C 0.26648 0.36166 0.90403 0.0
C1491 C 0.24944 0.38543 0.90146 0.0
C1492 C 0.26148 0.41121 0.89639 0.0
C1493 C 0.29095 0.41282 0.89416 0.0
C1494 C 0.30795 0.38906 0.89671 0.0
H1495 H 0.35689 0.35115 0.93544 0.0
H1496 H 0.35638 0.37654 0.9193 0.0
H1497 H 0.3242 0.36879 0.93018 0.0
H1498 H 0.25674 0.34192 0.90774 0.0
H1499 H 0.22684 0.38363 0.90351 0.0
H1500 H 0.7846 0.39697 0.90093 0.0
H1501 H 0.75811 0.35234 0.90379 0.0
H1502 H 0.67953 0.39815 0.89895 0.0
H1503 H 0.70564 0.44238 0.89584 0.0
H1504 H 0.70881 0.33282 0.92437 0.0
H1505 H 0.68582 0.34338 0.85895 0.0
H1506 H 0.71369 0.36298 0.86881 0.0
H1507 H 0.67752 0.37469 0.87033 0.0
C1508 C 0.76166 0.39751 0.90093 0.0
C1509 C 0.74709 0.42294 0.89793 0.0
C1510 C 0.74661 0.37208 0.90252 0.0
C1511 C 0.71697 0.37206 0.90125 0.0
C1512 C 0.70244 0.39779 0.8997 0.0
H1513 H 0.5761 0.26626 0.91631 0.0
H1514 H 0.61784 0.29601 0.91902 0.0
C1515 C 0.71737 0.42299 0.89794 0.0
C1516 C 0.70098 0.34537 0.89975 0.0
H1517 H 0.65617 0.31178 0.87392 0.0
C1518 C 0.69763 0.3278 0.91329 0.0
C1519 C 0.68708 0.33856 0.88515 0.0
C1520 C 0.69139 0.35572 0.86992 0.0
C1521 C 0.6791 0.30453 0.91288 0.0
C1522 C 0.66317 0.29931 0.89869 0.0
C1523 C 0.66811 0.31585 0.88486 0.0
C1524 C 0.63954 0.27867 0.89815 0.0
C1525 C 0.67658 0.28606 0.9277 0.0
C1526 C 0.63744 0.25935 0.88531 0.0
C1527 C 0.61304 0.243 0.88336 0.0
C1528 C 0.59027 0.24554 0.89427 0.0
C1529 C 0.59292 0.26414 0.90746 0.0
C1530 C 0.61713 0.28075 0.90927 0.0
H1531 H 0.69679 0.28563 0.93455 0.0
H1532 H 0.66006 0.29489 0.93583 0.0
H1533 H 0.67067 0.264 0.92451 0.0
H1534 H 0.65435 0.25758 0.87648 0.0
H1535 H 0.61168 0.22913 0.87297 0.0
H1536 H 0.56705 0.28086 0.17289 0.0
H1537 H 0.61146 0.30525 0.16781 0.0
H1538 H 0.63502 0.24187 0.13277 0.0
H1539 H 0.59006 0.21685 0.1378 0.0
H1540 H 0.66981 0.27576 0.17038 0.0
H1541 H 0.64244 0.32604 0.11139 0.0
H1542 H 0.61478 0.31626 0.12544 0.0
H1543 H 0.63456 0.28923 0.11524 0.0
C1544 C 0.58149 0.272 0.16403 0.0
C1545 C 0.57504 0.24684 0.15577 0.0
C1546 C 0.60691 0.28598 0.16119 0.0
C1547 C 0.62642 0.27523 0.15001 0.0
C1548 C 0.62009 0.25039 0.14146 0.0
H1549 H 0.78394 0.37707 0.15168 0.0
H1550 H 0.75509 0.33431 0.14796 0.0
C1551 C 0.59446 0.23622 0.14433 0.0
C1552 C 0.65327 0.29062 0.14769 0.0
H1553 H 0.68069 0.34544 0.12589 0.0
C1554 C 0.67286 0.2904 0.16041 0.0
C1555 C 0.65683 0.30968 0.1347 0.0
C1556 C 0.63615 0.31052 0.12084 0.0
C1557 C 0.6948 0.31037 0.1611 0.0
C1558 C 0.69708 0.33082 0.14869 0.0
C1559 C 0.67878 0.32963 0.13536 0.0
C1560 C 0.71506 0.35615 0.15063 0.0
C1561 C 0.71388 0.31098 0.1757 0.0
C1562 C 0.702 0.38237 0.15337 0.0
C1563 C 0.71828 0.40662 0.15561 0.0
C1564 C 0.748 0.40516 0.15506 0.0
C1565 C 0.76109 0.37877 0.15239 0.0
C1566 C 0.7447 0.35441 0.15016 0.0
H1567 H 0.70787 0.29482 0.18486 0.0
H1568 H 0.73607 0.30696 0.17188 0.0
H1569 H 0.71317 0.33222 0.18145 0.0
H1570 H 0.67912 0.38402 0.15392 0.0
H1571 H 0.70758 0.42654 0.15785 0.0
H1572 H 0.57418 0.72733 0.12249 0.0
H1573 H 0.61421 0.69547 0.11738 0.0
H1574 H 0.64104 0.70505 0.16691 0.0
H1575 H 0.60141 0.73729 0.17199 0.0
H1576 H 0.68591 0.70587 0.14513 0.0
H1577 H 0.61414 0.6144 0.1339 0.0
H1578 H 0.60939 0.64461 0.12098 0.0
H1579 H 0.6015 0.64738 0.14219 0.0
C1580 C 0.58864 0.72257 0.13227 0.0
C1581 C 0.58455 0.73443 0.1477 0.0
C1582 C 0.61148 0.70445 0.12933 0.0
C1583 C 0.6303 0.69759 0.14183 0.0
C1584 C 0.62674 0.71012 0.1571 0.0
H1585 H 0.721 0.56071 0.17371 0.0
H1586 H 0.6896 0.59861 0.16535 0.0
C1587 C 0.6041 0.72845 0.16 0.0
C1588 C 0.65281 0.67616 0.13949 0.0
H1589 H 0.66277 0.60512 0.13466 0.0
C1590 C 0.68101 0.68389 0.14255 0.0
C1591 C 0.64621 0.64755 0.13612 0.0
C1592 C 0.61619 0.63781 0.13322 0.0
C1593 C 0.70258 0.66346 0.14327 0.0
C1594 C 0.69569 0.63473 0.14066 0.0
C1595 C 0.66787 0.62727 0.13656 0.0
C1596 C 0.71543 0.61171 0.14504 0.0
C1597 C 0.73213 0.6724 0.14792 0.0
C1598 C 0.74046 0.6065 0.13633 0.0
C1599 C 0.75874 0.58465 0.14113 0.0
C1600 C 0.75206 0.56782 0.15467 0.0
C1601 C 0.72685 0.57317 0.16322 0.0
C1602 C 0.70878 0.59483 0.15845 0.0
H1603 H 0.73338 0.69532 0.15086 0.0
H1604 H 0.73944 0.66004 0.15855 0.0
H1605 H 0.74688 0.66797 0.13776 0.0
H1606 H 0.74577 0.61921 0.12584 0.0
H1607 H 0.77798 0.58094 0.13429 0.0
H1608 H 0.22104 0.61616 0.14515 0.0
H1609 H 0.25049 0.6579 0.14001 0.0
H1610 H 0.3247 0.61091 0.1543 0.0
H1611 H 0.29548 0.56926 0.15958 0.0
H1612 H 0.28353 0.68665 0.16169 0.0
H1613 H 0.34988 0.64629 0.11163 0.0
H1614 H 0.31723 0.62935 0.11772 0.0
H1615 H 0.34964 0.62225 0.12844 0.0
C1616 C 0.24362 0.61477 0.14726 0.0
C1617 C 0.25596 0.5894 0.15279 0.0
C1618 C 0.26042 0.63854 0.14417 0.0
C1619 C 0.28982 0.63728 0.14642 0.0
C1620 C 0.30215 0.61206 0.15201 0.0
H1621 H 0.41669 0.73816 0.17992 0.0
H1622 H 0.37456 0.71082 0.17368 0.0
C1623 C 0.28541 0.58832 0.1551 0.0
C1624 C 0.3076 0.66278 0.14419 0.0
H1625 H 0.37015 0.68446 0.12758 0.0
C1626 C 0.30209 0.68648 0.15392 0.0
C1627 C 0.33144 0.66285 0.13379 0.0
C1628 C 0.33723 0.63892 0.12217 0.0
C1629 C 0.32124 0.70911 0.15463 0.0
C1630 C 0.34659 0.70772 0.14553 0.0
C1631 C 0.35082 0.6853 0.13468 0.0
C1632 C 0.37079 0.72643 0.14917 0.0
C1633 C 0.31489 0.73365 0.16572 0.0
C1634 C 0.3829 0.74405 0.13734 0.0
C1635 C 0.40722 0.75989 0.14089 0.0
C1636 C 0.41992 0.75774 0.15621 0.0
C1637 C 0.40751 0.74019 0.16798 0.0
C1638 C 0.38324 0.72473 0.1645 0.0
H1639 H 0.2917 0.73643 0.16742 0.0
H1640 H 0.32434 0.72942 0.17776 0.0
H1641 H 0.32399 0.75368 0.16095 0.0
H1642 H 0.37371 0.74531 0.12537 0.0
H1643 H 0.41644 0.77318 0.13159 0.0
H1644 H 0.21978 0.41812 0.13545 0.0
H1645 H 0.2484 0.37598 0.12902 0.0
H1646 H 0.2881 0.38117 0.17583 0.0
H1647 H 0.25992 0.42266 0.18234 0.0
H1648 H 0.30867 0.37306 0.12852 0.0
H1649 H 0.26398 0.29779 0.1729 0.0
H1650 H 0.24545 0.32944 0.16661 0.0
H1651 H 0.27214 0.33118 0.1821 0.0
C1652 C 0.23445 0.41005 0.14439 0.0
C1653 C 0.23763 0.42371 0.15939 0.0
C1654 C 0.25071 0.38604 0.14071 0.0
C1655 C 0.26992 0.37522 0.15209 0.0
C1656 C 0.27292 0.3888 0.16704 0.0
H1657 H 0.42956 0.30245 0.15607 0.0
H1658 H 0.38694 0.33082 0.15196 0.0
C1659 C 0.25695 0.41272 0.17067 0.0
C1660 C 0.28862 0.35103 0.14829 0.0
H1661 H 0.31297 0.28973 0.16504 0.0
C1662 C 0.30922 0.35443 0.1362 0.0
C1663 C 0.28898 0.32652 0.15812 0.0
C1664 C 0.26623 0.32085 0.17054 0.0
C1665 C 0.3317 0.33516 0.13467 0.0
C1666 C 0.33373 0.31233 0.14569 0.0
C1667 C 0.31169 0.30755 0.15678 0.0
C1668 C 0.35971 0.29496 0.14708 0.0
C1669 C 0.35354 0.33999 0.12161 0.0
C1670 C 0.35838 0.26533 0.14615 0.0
C1671 C 0.38271 0.24903 0.14864 0.0
C1672 C 0.40873 0.26212 0.15219 0.0
C1673 C 0.40993 0.29179 0.15312 0.0
C1674 C 0.38563 0.30803 0.15067 0.0
H1675 H 0.34421 0.35127 0.1111 0.0
H1676 H 0.37083 0.3534 0.12648 0.0
H1677 H 0.36284 0.3197 0.11736 0.0
H1678 H 0.33851 0.25484 0.14355 0.0
H1679 H 0.38119 0.22622 0.14764 0.0
H1680 H 0.02929 0.33492 0.45398 0.0
H1681 H 0.03248 0.33695 0.48359 0.0
H1682 H 0.95028 0.29785 0.48755 0.0
H1683 H 0.94735 0.29483 0.45824 0.0
H1684 H 0.99741 0.36424 0.50552 0.0
H1685 H 0.99684 0.24885 0.51768 0.0
H1686 H 0.00293 0.26326 0.49775 0.0
H1687 H 0.96746 0.26026 0.50559 0.0
C1688 C 0.01207 0.32642 0.46115 0.0
C1689 C 0.98806 0.31472 0.45361 0.0
C1690 C 0.01384 0.32773 0.47809 0.0
C1691 C 0.99182 0.31713 0.48786 0.0
C1692 C 0.96783 0.30563 0.48035 0.0
H1693 H 0.95517 0.31479 0.59179 0.0
H1694 H 0.95301 0.31003 0.56223 0.0
C1695 C 0.96603 0.30431 0.4635 0.0
C1696 C 0.99332 0.31886 0.50585 0.0
H1697 H 0.9897 0.27904 0.54042 0.0
C1698 C 0.99595 0.34558 0.51313 0.0
C1699 C 0.99124 0.29453 0.51585 0.0
C1700 C 0.98973 0.26508 0.50884 0.0
C1701 C 0.99603 0.34869 0.53006 0.0
C1702 C 0.99381 0.32439 0.54004 0.0
C1703 C 0.9912 0.29767 0.53279 0.0
C1704 C 0.99522 0.32631 0.55801 0.0
C1705 C -0.00206 0.37807 0.53714 0.0
C1706 C 0.01986 0.33631 0.56549 0.0
C1707 C 0.02123 0.33886 0.58231 0.0
C1708 C -0.00205 0.33147 0.59216 0.0
C1709 C 0.9735 0.32065 0.58465 0.0
C1710 C 0.9722 0.31802 0.56774 0.0
H1711 H 0.99219 0.3946 0.52816 0.0
H1712 H 0.98385 0.38023 0.54785 0.0
H1713 H 0.02002 0.38206 0.5411 0.0
H1714 H 0.03816 0.34215 0.55829 0.0
H1715 H 0.04071 0.34653 0.58757 0.0
H1716 H 0.63517 0.00165 0.58307 0.0
H1717 H 0.64317 0.0024 0.55396 0.0
H1718 H 0.73182 0.98498 0.56149 0.0
H1719 H 0.72378 0.98423 0.59097 0.0
H1720 H 0.67941 0.04055 0.53802 0.0
H1721 H 0.70948 0.92869 0.5253 0.0
H1722 H 0.69168 0.93893 0.54376 0.0
H1723 H 0.72856 0.94676 0.54102 0.0
C1724 C 0.65638 -0.00219 0.57858 0.0
C1725 C 0.6789 0.99316 0.58937 0.0
C1726 C 0.66092 -0.00181 0.56189 0.0
C1727 C 0.68808 0.9938 0.55545 0.0
C1728 C 0.71059 0.98812 0.56612 0.0
H1729 H 0.72088 0.99669 0.44928 0.0
H1730 H 0.73082 -0.00244 0.4786 0.0
C1731 C 0.70599 0.98765 0.58297 0.0
C1732 C 0.69243 0.99684 0.53764 0.0
H1733 H 0.70563 0.95943 0.50299 0.0
C1734 C 0.68551 0.02287 0.53039 0.0
C1735 C 0.70062 0.9739 0.52764 0.0
C1736 C 0.70788 0.94538 0.53472 0.0
C1737 C 0.68545 0.02627 0.5135 0.0
C1738 C 0.69211 0.00294 0.50347 0.0
C1739 C 0.70052 0.97731 0.51068 0.0
C1740 C 0.6871 0.00388 0.48567 0.0
C1741 C 0.67754 0.0547 0.50651 0.0
C1742 C 0.65938 0.00729 0.47992 0.0
C1743 C 0.65376 0.00671 0.46335 0.0
C1744 C 0.6757 0.00275 0.45204 0.0
C1745 C 0.70364 8e-05 0.45772 0.0
C1746 C 0.70927 0.00035 0.47443 0.0
H1747 H 0.68137 0.07208 0.51528 0.0
H1748 H 0.68968 0.05914 0.49527 0.0
H1749 H 0.65464 0.05472 0.50349 0.0
H1750 H 0.64188 0.00973 0.48831 0.0
H1751 H 0.63205 0.00897 0.45935 0.0
H1752 H 0.99598 0.62472 0.58755 0.0
H1753 H 0.99563 0.63146 0.55833 0.0
H1754 H 0.01415 0.72013 0.56471 0.0
H1755 H 0.0143 0.71348 0.59425 0.0
H1756 H 0.9592 0.66759 0.54092 0.0
H1757 H 0.07263 0.69402 0.53042 0.0
H1758 H 0.06035 0.67767 0.54891 0.0
H1759 H 0.05425 0.71468 0.5454 0.0
C1760 C -1e-05 0.64571 0.58279 0.0
C1761 C 0.00491 0.66863 0.59328 0.0
C1762 C -0.00015 0.6495 0.56604 0.0
C1763 C 0.00483 0.67628 0.55927 0.0
C1764 C 0.01054 0.69919 0.56964 0.0
H1765 H 0.96887 0.70842 0.45574 0.0
H1766 H 0.96843 0.71218 0.48535 0.0
C1767 C 0.01069 0.69537 0.58651 0.0
C1768 C 0.0031 0.67985 0.54138 0.0
H1769 H 0.04296 0.69272 0.50758 0.0
C1770 C 0.97744 0.67339 0.53363 0.0
C1771 C 0.02694 0.68721 0.53187 0.0
C1772 C 0.05521 0.69363 0.53948 0.0
C1773 C 0.97512 0.67349 0.51666 0.0
C1774 C -0.00094 0.68049 0.50714 0.0
C1775 C 0.02457 0.68752 0.51489 0.0
C1776 C -0.00129 0.67842 0.48916 0.0
C1777 C 0.94743 0.66496 0.50902 0.0
C1778 C 0.01583 0.65826 0.48143 0.0
C1779 C 0.01599 0.65593 0.46458 0.0
C1780 C -0.00079 0.67393 0.45493 0.0
C1781 C 0.98182 0.694 0.46272 0.0
C1782 C 0.98161 0.69625 0.47967 0.0
H1783 H 0.93258 0.65545 0.51795 0.0
H1784 H 0.93714 0.68393 0.50371 0.0
H1785 H 0.95111 0.6495 0.49912 0.0
H1786 H 0.02902 0.64412 0.48848 0.0
H1787 H 0.02926 0.63987 0.45913 0.0
H1788 H 0.36726 0.98556 0.58528 0.0
H1789 H 0.36343 0.98873 0.55598 0.0
H1790 H 0.28544 0.03541 0.56085 0.0
H1791 H 0.28867 0.03168 0.59046 0.0
H1792 H 0.31424 0.96786 0.53709 0.0
H1793 H 0.33736 0.0825 0.52859 0.0
H1794 H 0.34813 0.06336 0.54649 0.0
H1795 H 0.31168 0.0729 0.54378 0.0
C1796 C 0.34912 0.99638 0.58023 0.0
C1797 C 0.32804 0.00802 0.59035 0.0
C1798 C 0.34709 -0.0017 0.56341 0.0
C1799 C 0.32418 0.01226 0.5562 0.0
C1800 C 0.30344 0.02469 0.56617 0.0
H1801 H 0.28373 0.04443 0.45524 0.0
H1802 H 0.28592 0.04342 0.4847 0.0
C1803 C 0.30536 0.02262 0.5831 0.0
C1804 C 0.32177 0.01273 0.53826 0.0
H1805 H 0.32716 0.05595 0.50523 0.0
C1806 C 0.317 0.98711 0.53009 0.0
C1807 C 0.32533 0.03785 0.52918 0.0
C1808 C 0.33108 0.06578 0.53736 0.0
C1809 C 0.31539 0.98597 0.51311 0.0
C1810 C 0.31953 0.01102 0.50395 0.0
C1811 C 0.32412 0.03669 0.51218 0.0
C1812 C 0.31851 0.01127 0.48588 0.0
C1813 C 0.30853 0.95801 0.50522 0.0
C1814 C 0.3363 0.99371 0.47656 0.0
C1815 C 0.33496 0.99413 0.45959 0.0
C1816 C 0.31618 0.01251 0.45158 0.0
C1817 C 0.29872 0.03029 0.46096 0.0
C1818 C 0.29987 0.02967 0.47786 0.0
H1819 H 0.29784 0.94332 0.51378 0.0
H1820 H 0.29467 0.96098 0.49452 0.0
H1821 H 0.32848 0.94777 0.50117 0.0
H1822 H 0.35143 0.97985 0.48238 0.0
H1823 H 0.34893 0.98045 0.45274 0.0
H1824 H 0.45215 0.81683 0.9563 0.0
H1825 H 0.4551 0.81026 0.98555 0.0
H1826 H 0.54544 0.79864 0.98165 0.0
H1827 H 0.54256 0.80558 0.95215 0.0
H1828 H 0.47708 0.76545 1.00548 0.0
H1829 H 0.53553 0.86682 1.01297 0.0
H1830 H 0.51727 0.85786 0.99453 0.0
H1831 H 0.55077 0.84176 0.99909 0.0
C1832 C 0.47266 0.81275 0.96164 0.0
C1833 C 0.4972 0.81213 0.95192 0.0
C1834 C 0.47428 0.80882 0.97837 0.0
C1835 C 0.50051 0.80438 0.98587 0.0
C1836 C 0.52498 0.80242 0.97615 0.0
H1837 H 0.54734 0.81279 0.08732 0.0
H1838 H 0.54656 0.8055 0.0581 0.0
C1839 C 0.52333 0.80615 0.9593 0.0
C1840 C 0.50207 0.80346 1.00388 0.0
H1841 H 0.5256 0.84085 0.03654 0.0
C1842 C 0.48783 0.78183 1.0123 0.0
C1843 C 0.51588 0.82494 1.01278 0.0
C1844 C 0.53058 0.84933 1.00446 0.0
C1845 C 0.48736 0.78091 0.02935 0.0
C1846 C 0.5009 0.80263 0.03826 0.0
C1847 C 0.51523 0.82415 0.02978 0.0
C1848 C 0.50088 0.80362 0.05635 0.0
C1849 C 0.4728 0.75641 0.03761 0.0
C1850 C 0.47546 0.8044 0.06534 0.0
C1851 C 0.47593 0.80827 0.08221 0.0
C1852 C 0.50178 0.81198 0.09033 0.0
C1853 C 0.5271 0.81028 0.08138 0.0
C1854 C 0.52666 0.80611 0.06465 0.0
H1855 H 0.47108 0.73779 0.02946 0.0
H1856 H 0.48428 0.74993 0.04871 0.0
H1857 H 0.45102 0.76286 0.04109 0.0
H1858 H 0.45523 0.80317 0.05927 0.0
H1859 H 0.45613 0.80982 0.08879 0.0
H1860 H 0.18501 0.45605 0.09283 0.0
H1861 H 0.19215 0.45257 0.06335 0.0
H1862 H 0.19061 0.54365 0.05971 0.0
H1863 H 0.18372 0.54713 0.08892 0.0
H1864 H 0.15286 0.4749 0.04039 0.0
H1865 H 0.25933 0.52205 0.03156 0.0
H1866 H 0.24728 0.50874 0.05088 0.0
H1867 H 0.23587 0.54292 0.04386 0.0
C1868 C 0.18687 0.47526 0.08574 0.0
C1869 C 0.18368 0.50184 0.09316 0.0
C1870 C 0.19081 0.47329 0.06892 0.0
C1871 C 0.19219 0.49788 0.05931 0.0
C1872 C 0.19009 0.5244 0.06684 0.0
H1873 H 0.18656 0.53976 0.9564 0.0
H1874 H 0.19241 0.54078 0.98602 0.0
C1875 C 0.18589 0.52635 0.08354 0.0
C1876 C 0.19313 0.49608 0.04132 0.0
H1877 H 0.23079 0.51701 1.00796 0.0
C1878 C 0.17007 0.48378 0.0333 0.0
C1879 C 0.21536 0.50811 0.03206 0.0
C1880 C 0.241 0.52101 0.04 0.0
C1881 C 0.16826 0.48375 1.01633 0.0
C1882 C 0.19054 0.49567 1.00702 0.0
C1883 C 0.21372 0.50787 1.01504 0.0
C1884 C 0.19009 0.49526 0.98897 0.0
C1885 C 0.14197 0.47176 1.00856 0.0
C1886 C 0.18807 0.46941 0.98071 0.0
C1887 C 0.18456 0.46887 0.96394 0.0
C1888 C 0.18344 0.49414 0.95494 0.0
C1889 C 0.18737 0.52 0.96303 0.0
C1890 C 0.1906 0.52056 0.97994 0.0
H1891 H 0.12384 0.47122 1.01715 0.0
H1892 H 0.13569 0.48433 0.9978 0.0
H1893 H 0.14623 0.4497 1.00463 0.0
H1894 H 0.1885 0.44958 0.98729 0.0
H1895 H 0.18216 0.4486 0.958 0.0
H1896 H 0.45141 0.18525 0.0877 0.0
H1897 H 0.45462 0.1902 0.05833 0.0
H1898 H 0.54567 0.19367 0.06157 0.0
H1899 H 0.54252 0.18848 0.09118 0.0
H1900 H 0.48165 0.23261 0.03765 0.0
H1901 H 0.52781 0.12468 0.03144 0.0
H1902 H 0.51027 0.13631 0.04969 0.0
H1903 H 0.54542 0.14841 0.04512 0.0
C1904 C 0.47214 0.18722 0.08219 0.0
C1905 C 0.49675 0.18611 0.09175 0.0
C1906 C 0.47392 0.19022 0.06539 0.0
C1907 C 0.50036 0.19195 0.05771 0.0
C1908 C 0.52502 0.19208 0.06724 0.0
H1909 H 0.54442 0.17224 0.95625 0.0
H1910 H 0.54509 0.18123 0.98532 0.0
C1911 C 0.52323 0.18932 0.08415 0.0
C1912 C 0.50183 0.1919 0.0397 0.0
H1913 H 0.52032 0.15041 1.00755 0.0
C1914 C 0.49027 0.21475 0.03103 0.0
C1915 C 0.51287 0.1685 0.03108 0.0
C1916 C 0.52464 0.14292 0.03973 0.0
C1917 C 0.4898 0.21497 1.01398 0.0
C1918 C 0.50049 0.19134 1.00534 0.0
C1919 C 0.51215 0.16858 1.01408 0.0
C1920 C 0.50011 0.18949 0.98728 0.0
C1921 C 0.47834 0.24075 1.00543 0.0
C1922 C 0.47471 0.19175 0.97844 0.0
C1923 C 0.47442 0.18698 0.96165 0.0
C1924 C 0.49939 0.17929 0.95348 0.0
C1925 C 0.52483 0.17792 0.96226 0.0
C1926 C 0.52521 0.18304 0.9789 0.0
H1927 H 0.47925 0.25983 1.01327 0.0
H1928 H 0.49029 0.24514 0.99412 0.0
H1929 H 0.45583 0.23705 1.00226 0.0
H1930 H 0.4549 0.19603 0.98459 0.0
H1931 H 0.4545 0.18782 0.9552 0.0
H1932 H 0.8165 0.54918 0.95648 0.0
H1933 H 0.81374 0.54898 0.98597 0.0
H1934 H 0.81821 0.45777 0.98601 0.0
H1935 H 0.82048 0.45793 0.95625 0.0
H1936 H 0.78034 0.47845 1.00902 0.0
H1937 H 0.88301 0.53469 1.01356 0.0
H1938 H 0.85729 0.55354 1.00179 0.0
H1939 H 0.8704 0.51987 0.99483 0.0
C1940 C 0.81684 0.52906 0.96275 0.0
C1941 C 0.81918 0.50358 0.95405 0.0
C1942 C 0.81531 0.52897 0.97963 0.0
C1943 C 0.81653 0.50342 0.98828 0.0
C1944 C 0.81746 0.47779 0.97962 0.0
H1945 H 0.87092 0.48377 0.08681 0.0
H1946 H 0.86469 0.48575 0.05768 0.0
C1947 C 0.8187 0.47786 0.96263 0.0
C1948 C 0.81797 0.50372 1.00631 0.0
H1949 H 0.857 0.52919 0.03788 0.0
C1950 C 0.7971 0.48951 1.01535 0.0
C1951 C 0.84003 0.5179 1.01461 0.0
C1952 C 0.86411 0.53213 1.00572 0.0
C1953 C 0.79762 0.48922 0.0324 0.0
C1954 C 0.81931 0.504 0.04068 0.0
C1955 C 0.84015 0.51816 0.0316 0.0
C1956 C 0.82235 0.50322 0.05865 0.0
C1957 C 0.77545 0.47236 0.04137 0.0
C1958 C 0.80082 0.51288 0.0691 0.0
C1959 C 0.80423 0.51145 0.08598 0.0
C1960 C 0.82928 0.50043 0.09271 0.0
C1961 C 0.85106 0.49172 0.08215 0.0
C1962 C 0.84761 0.49304 0.0654 0.0
H1963 H 0.76461 0.45696 0.03334 0.0
H1964 H 0.78497 0.46064 0.05166 0.0
H1965 H 0.75919 0.48703 0.04627 0.0
H1966 H 0.78138 0.5215 0.06422 0.0
H1967 H 0.78706 0.51837 0.09373 0.0
loop_
_geom_bond_atom_site_label_1
_geom_bond_atom_site_label_2
_geom_bond_distance
_geom_bond_site_symmetry_2
_ccdc_geom_bond_type
C0 C1 1.351 . S
C0 N3 1.368 1_655 S
C0 H5 0.931 . S
C1 C0 1.351 . S
C1 N2 1.373 1_655 S
C1 H29 0.930 . S
N2 C1 1.373 1_455 S
N2 C4 1.340 . S
N3 C0 1.368 1_455 S
N3 C4 1.321 . S
N3 Co6 2.135 . S
C4 N2 1.340 . S
C4 N3 1.321 . S
C4 H28 0.930 . S
H5 C0 0.931 . S
Co6 N3 2.135 . S
Co6 N9 2.121 . S
Co6 O14 2.055 . S
Co6 O17 2.039 . S
Co6 N20 2.140 1_455 S
C7 O8 1.227 . S
C7 O17 1.265 . S
O8 C7 1.227 . S
N9 Co6 2.121 . S
N9 C11 1.375 . S
N9 C12 1.313 . S
C10 C11 1.338 . S
C10 N13 1.377 . S
C10 H30 0.930 . S
C11 N9 1.375 . S
C11 C10 1.338 . S
C11 H15 0.931 . S
C12 N9 1.313 . S
C12 N13 1.344 . S
C12 H16 0.930 . S
N13 C10 1.377 . S
N13 C12 1.344 . S
O14 Co6 2.055 . S
O14 C18 1.253 . S
H15 C11 0.931 . S
H16 C12 0.930 . S
O17 Co6 2.039 . S
O17 C7 1.265 . S
C18 O14 1.253 . S
C18 O19 1.227 1_455 S
O19 C18 1.227 1_655 S
N20 Co6 2.140 1_655 S
N20 C23 1.346 . S
N20 C24 1.345 . S
C21 C22 1.387 . S
C21 C25 1.391 . S
C22 C21 1.387 . S
C22 C23 1.369 . S
C22 H31 0.929 . S
C23 N20 1.346 . S
C23 C22 1.369 . S
C23 H26 0.928 . S
C24 N20 1.345 . S
C24 C25 1.371 . S
C24 H27 0.931 . S
C25 C21 1.391 . S
C25 C24 1.371 . S
C25 H32 0.930 . S
H26 C23 0.928 . S
H27 C24 0.931 . S
H28 C4 0.930 . S
H29 C1 0.930 . S
H30 C10 0.930 . S
H31 C22 0.929 . S
H32 C25 0.930 . S
C33 C34 1.351 . S
C33 N36 1.368 1_565 S
C33 H38 0.931 . S
C34 C33 1.351 . S
C34 N35 1.373 1_565 S
C34 H62 0.930 . S
N35 C34 1.373 1_545 S
N35 C37 1.340 . S
N36 C33 1.368 1_545 S
N36 C37 1.321 . S
N36 Co39 2.135 . S
C37 N35 1.340 . S
C37 N36 1.321 . S
C37 H61 0.930 . S
H38 C33 0.931 . S
Co39 N36 2.135 . S
Co39 N42 2.121 . S
Co39 O47 2.055 . S
Co39 O50 2.039 . S
Co39 N53 2.140 1_545 S
C40 O41 1.227 . S
C40 O50 1.265 . S
O41 C40 1.227 . S
N42 Co39 2.121 . S
N42 C44 1.375 . S
N42 C45 1.313 . S
C43 C44 1.338 . S
C43 N46 1.377 . S
C43 H63 0.930 . S
C44 N42 1.375 . S
C44 C43 1.338 . S
C44 H48 0.931 . S
C45 N42 1.313 . S
C45 N46 1.344 . S
C45 H49 0.930 . S
N46 C43 1.377 . S
N46 C45 1.344 . S
O47 Co39 2.055 . S
O47 C51 1.253 . S
H48 C44 0.931 . S
H49 C45 0.930 . S
O50 Co39 2.039 . S
O50 C40 1.265 . S
C51 O47 1.253 . S
C51 O52 1.227 1_545 S
O52 C51 1.227 1_565 S
N53 Co39 2.140 1_565 S
N53 C56 1.346 . S
N53 C57 1.345 . S
C54 C55 1.387 . S
C54 C58 1.391 . S
C55 C54 1.387 . S
C55 C56 1.369 . S
C55 H64 0.929 . S
C56 N53 1.346 . S
C56 C55 1.369 . S
C56 H59 0.928 . S
C57 N53 1.345 . S
C57 C58 1.371 . S
C57 H60 0.931 . S
C58 C54 1.391 . S
C58 C57 1.371 . S
C58 H65 0.930 . S
H59 C56 0.928 . S
H60 C57 0.931 . S
H61 C37 0.930 . S
H62 C34 0.930 . S
H63 C43 0.930 . S
H64 C55 0.929 . S
H65 C58 0.930 . S
C66 C67 1.351 . S
C66 N69 1.368 1_455 S
C66 H71 0.931 . S
C67 C66 1.351 . S
C67 N68 1.373 1_455 S
C67 H95 0.930 . S
N68 C67 1.373 1_655 S
N68 C70 1.340 . S
N69 C66 1.368 1_655 S
N69 C70 1.321 . S
N69 Co72 2.135 . S
C70 N68 1.340 . S
C70 N69 1.321 . S
C70 H94 0.930 . S
H71 C66 0.931 . S
Co72 N69 2.135 . S
Co72 N75 2.121 . S
Co72 O80 2.055 . S
Co72 O83 2.039 . S
Co72 N86 2.140 1_655 S
C73 O74 1.227 . S
C73 O83 1.265 . S
O74 C73 1.227 . S
N75 Co72 2.121 . S
N75 C77 1.375 . S
N75 C78 1.313 . S
C76 C77 1.338 . S
C76 N79 1.377 . S
C76 H96 0.930 . S
C77 N75 1.375 . S
C77 C76 1.338 . S
C77 H81 0.931 . S
C78 N75 1.313 . S
C78 N79 1.344 . S
C78 H82 0.930 . S
N79 C76 1.377 . S
N79 C78 1.344 . S
O80 Co72 2.055 . S
O80 C84 1.253 . S
H81 C77 0.931 . S
H82 C78 0.930 . S
O83 Co72 2.039 . S
O83 C73 1.265 . S
C84 O80 1.253 . S
C84 O85 1.227 1_655 S
O85 C84 1.227 1_455 S
N86 Co72 2.140 1_455 S
N86 C89 1.346 . S
N86 C90 1.345 . S
C87 C88 1.387 . S
C87 C91 1.391 . S
C88 C87 1.387 . S
C88 C89 1.369 . S
C88 H97 0.929 . S
C89 N86 1.346 . S
C89 C88 1.369 . S
C89 H92 0.928 . S
C90 N86 1.345 . S
C90 C91 1.371 . S
C90 H93 0.931 . S
C91 C87 1.391 . S
C91 C90 1.371 . S
C91 H98 0.930 . S
H92 C89 0.928 . S
H93 C90 0.931 . S
H94 C70 0.930 . S
H95 C67 0.930 . S
H96 C76 0.930 . S
H97 C88 0.929 . S
H98 C91 0.930 . S
C99 C100 1.351 . S
C99 N102 1.368 1_545 S
C99 H104 0.931 . S
C100 C99 1.351 . S
C100 N101 1.373 1_545 S
C100 H128 0.930 . S
N101 C100 1.373 1_565 S
N101 C103 1.340 . S
N102 C99 1.368 1_565 S
N102 C103 1.321 . S
N102 Co105 2.135 . S
C103 N101 1.340 . S
C103 N102 1.321 . S
C103 H127 0.930 . S
H104 C99 0.931 . S
Co105 N102 2.135 . S
Co105 N108 2.121 . S
Co105 O113 2.055 . S
Co105 O116 2.039 . S
Co105 N119 2.140 1_565 S
C106 O107 1.227 . S
C106 O116 1.265 . S
O107 C106 1.227 . S
N108 Co105 2.121 . S
N108 C110 1.375 . S
N108 C111 1.313 . S
C109 C110 1.338 . S
C109 N112 1.377 . S
C109 H129 0.930 . S
C110 N108 1.375 . S
C110 C109 1.338 . S
C110 H114 0.931 . S
C111 N108 1.313 . S
C111 N112 1.344 . S
C111 H115 0.930 . S
N112 C109 1.377 . S
N112 C111 1.344 . S
O113 Co105 2.055 . S
O113 C117 1.253 . S
H114 C110 0.931 . S
H115 C111 0.930 . S
O116 Co105 2.039 . S
O116 C106 1.265 . S
C117 O113 1.253 . S
C117 O118 1.227 1_565 S
O118 C117 1.227 1_545 S
N119 Co105 2.140 1_545 S
N119 C122 1.346 . S
N119 C123 1.345 . S
C120 C121 1.387 . S
C120 C124 1.391 . S
C121 C120 1.387 . S
C121 C122 1.369 . S
C121 H130 0.929 . S
C122 N119 1.346 . S
C122 C121 1.369 . S
C122 H125 0.928 . S
C123 N119 1.345 . S
C123 C124 1.371 . S
C123 H126 0.931 . S
C124 C120 1.391 . S
C124 C123 1.371 . S
C124 H131 0.930 . S
H125 C122 0.928 . S
H126 C123 0.931 . S
H127 C103 0.930 . S
H128 C100 0.930 . S
H129 C109 0.930 . S
H130 C121 0.929 . S
H131 C124 0.930 . S
C132 C133 1.351 . S
C132 N135 1.368 1_655 S
C132 H137 0.931 . S
C133 C132 1.351 . S
C133 N134 1.373 1_655 S
C133 H161 0.930 . S
N134 C133 1.373 1_455 S
N134 C136 1.340 . S
N135 C132 1.368 1_455 S
N135 C136 1.321 . S
N135 Co138 2.135 . S
C136 N134 1.340 . S
C136 N135 1.321 . S
C136 H160 0.930 . S
H137 C132 0.931 . S
Co138 N135 2.135 . S
Co138 N141 2.121 . S
Co138 O146 2.055 . S
Co138 O149 2.039 . S
Co138 N152 2.140 1_455 S
C139 O140 1.227 . S
C139 O149 1.265 . S
O140 C139 1.227 . S
N141 Co138 2.121 . S
N141 C143 1.375 . S
N141 C144 1.313 . S
C142 C143 1.338 . S
C142 N145 1.377 . S
C142 H162 0.930 . S
C143 N141 1.375 . S
C143 C142 1.338 . S
C143 H147 0.931 . S
C144 N141 1.313 . S
C144 N145 1.344 . S
C144 H148 0.930 . S
N145 C142 1.377 . S
N145 C144 1.344 . S
O146 Co138 2.055 . S
O146 C150 1.253 . S
H147 C143 0.931 . S
H148 C144 0.930 . S
O149 Co138 2.039 . S
O149 C139 1.265 . S
C150 O146 1.253 . S
C150 O151 1.227 1_455 S
O151 C150 1.227 1_655 S
N152 Co138 2.140 1_655 S
N152 C155 1.346 . S
N152 C156 1.345 . S
C153 C154 1.387 . S
C153 C157 1.391 . S
C154 C153 1.387 . S
C154 C155 1.369 . S
C154 H163 0.929 . S
C155 N152 1.346 . S
C155 C154 1.369 . S
C155 H158 0.928 . S
C156 N152 1.345 . S
C156 C157 1.371 . S
C156 H159 0.931 . S
C157 C153 1.391 . S
C157 C156 1.371 . S
C157 H164 0.930 . S
H158 C155 0.928 . S
H159 C156 0.931 . S
H160 C136 0.930 . S
H161 C133 0.930 . S
H162 C142 0.930 . S
H163 C154 0.929 . S
H164 C157 0.930 . S
C165 C166 1.351 . S
C165 N168 1.368 1_565 S
C165 H170 0.931 . S
C166 C165 1.351 . S
C166 N167 1.373 1_565 S
C166 H194 0.930 . S
N167 C166 1.373 1_545 S
N167 C169 1.340 . S
N168 C165 1.368 1_545 S
N168 C169 1.321 . S
N168 Co171 2.135 . S
C169 N167 1.340 . S
C169 N168 1.321 . S
C169 H193 0.930 . S
H170 C165 0.931 . S
Co171 N168 2.135 . S
Co171 N174 2.121 . S
Co171 O179 2.055 . S
Co171 O182 2.039 . S
Co171 N185 2.140 1_545 S
C172 O173 1.227 . S
C172 O182 1.265 . S
O173 C172 1.227 . S
N174 Co171 2.121 . S
N174 C176 1.375 . S
N174 C177 1.313 . S
C175 C176 1.338 . S
C175 N178 1.377 . S
C175 H195 0.930 . S
C176 N174 1.375 . S
C176 C175 1.338 . S
C176 H180 0.931 . S
C177 N174 1.313 . S
C177 N178 1.344 . S
C177 H181 0.930 . S
N178 C175 1.377 . S
N178 C177 1.344 . S
O179 Co171 2.055 . S
O179 C183 1.253 . S
H180 C176 0.931 . S
H181 C177 0.930 . S
O182 Co171 2.039 . S
O182 C172 1.265 . S
C183 O179 1.253 . S
C183 O184 1.227 1_545 S
O184 C183 1.227 1_565 S
N185 Co171 2.140 1_565 S
N185 C188 1.346 . S
N185 C189 1.345 . S
C186 C187 1.387 . S
C186 C190 1.391 . S
C187 C186 1.387 . S
C187 C188 1.369 . S
C187 H196 0.929 . S
C188 N185 1.346 . S
C188 C187 1.369 . S
C188 H191 0.928 . S
C189 N185 1.345 . S
C189 C190 1.371 . S
C189 H192 0.931 . S
C190 C186 1.391 . S
C190 C189 1.371 . S
C190 H197 0.930 . S
H191 C188 0.928 . S
H192 C189 0.931 . S
H193 C169 0.930 . S
H194 C166 0.930 . S
H195 C175 0.930 . S
H196 C187 0.929 . S
H197 C190 0.930 . S
C198 C199 1.351 . S
C198 N201 1.368 1_455 S
C198 H203 0.931 . S
C199 C198 1.351 . S
C199 N200 1.373 1_455 S
C199 H227 0.930 . S
N200 C199 1.373 1_655 S
N200 C202 1.340 . S
N201 C198 1.368 1_655 S
N201 C202 1.321 . S
N201 Co204 2.135 . S
C202 N200 1.340 . S
C202 N201 1.321 . S
C202 H226 0.930 . S
H203 C198 0.931 . S
Co204 N201 2.135 . S
Co204 N207 2.121 . S
Co204 O212 2.055 . S
Co204 O215 2.039 . S
Co204 N218 2.140 1_655 S
C205 O206 1.227 . S
C205 O215 1.265 . S
O206 C205 1.227 . S
N207 Co204 2.121 . S
N207 C209 1.375 . S
N207 C210 1.313 . S
C208 C209 1.338 . S
C208 N211 1.377 . S
C208 H228 0.930 . S
C209 N207 1.375 . S
C209 C208 1.338 . S
C209 H213 0.931 . S
C210 N207 1.313 . S
C210 N211 1.344 . S
C210 H214 0.930 . S
N211 C208 1.377 . S
N211 C210 1.344 . S
O212 Co204 2.055 . S
O212 C216 1.253 . S
H213 C209 0.931 . S
H214 C210 0.930 . S
O215 Co204 2.039 . S
O215 C205 1.265 . S
C216 O212 1.253 . S
C216 O217 1.227 1_655 S
O217 C216 1.227 1_455 S
N218 Co204 2.140 1_455 S
N218 C221 1.346 . S
N218 C222 1.345 . S
C219 C220 1.387 . S
C219 C223 1.391 . S
C220 C219 1.387 . S
C220 C221 1.369 . S
C220 H229 0.929 . S
C221 N218 1.346 . S
C221 C220 1.369 . S
C221 H224 0.928 . S
C222 N218 1.345 . S
C222 C223 1.371 . S
C222 H225 0.931 . S
C223 C219 1.391 . S
C223 C222 1.371 . S
C223 H230 0.930 . S
H224 C221 0.928 . S
H225 C222 0.931 . S
H226 C202 0.930 . S
H227 C199 0.930 . S
H228 C208 0.930 . S
H229 C220 0.929 . S
H230 C223 0.930 . S
C231 C232 1.351 . S
C231 N234 1.368 1_545 S
C231 H236 0.931 . S
C232 C231 1.351 . S
C232 N233 1.373 1_545 S
C232 H260 0.930 . S
N233 C232 1.373 1_565 S
N233 C235 1.340 . S
N234 C231 1.368 1_565 S
N234 C235 1.321 . S
N234 Co237 2.135 . S
C235 N233 1.340 . S
C235 N234 1.321 . S
C235 H259 0.930 . S
H236 C231 0.931 . S
Co237 N234 2.135 . S
Co237 N240 2.121 . S
Co237 O245 2.055 . S
Co237 O248 2.039 . S
Co237 N251 2.140 1_565 S
C238 O239 1.227 . S
C238 O248 1.265 . S
O239 C238 1.227 . S
N240 Co237 2.121 . S
N240 C242 1.375 . S
N240 C243 1.313 . S
C241 C242 1.338 . S
C241 N244 1.377 . S
C241 H261 0.930 . S
C242 N240 1.375 . S
C242 C241 1.338 . S
C242 H246 0.931 . S
C243 N240 1.313 . S
C243 N244 1.344 . S
C243 H247 0.930 . S
N244 C241 1.377 . S
N244 C243 1.344 . S
O245 Co237 2.055 . S
O245 C249 1.253 . S
H246 C242 0.931 . S
H247 C243 0.930 . S
O248 Co237 2.039 . S
O248 C238 1.265 . S
C249 O245 1.253 . S
C249 O250 1.227 1_565 S
O250 C249 1.227 1_545 S
N251 Co237 2.140 1_545 S
N251 C254 1.346 . S
N251 C255 1.345 . S
C252 C253 1.387 . S
C252 C256 1.391 . S
C253 C252 1.387 . S
C253 C254 1.369 . S
C253 H262 0.929 . S
C254 N251 1.346 . S
C254 C253 1.369 . S
C254 H257 0.928 . S
C255 N251 1.345 . S
C255 C256 1.371 . S
C255 H258 0.931 . S
C256 C252 1.391 . S
C256 C255 1.371 . S
C256 H263 0.930 . S
H257 C254 0.928 . S
H258 C255 0.931 . S
H259 C235 0.930 . S
H260 C232 0.930 . S
H261 C241 0.930 . S
H262 C253 0.929 . S
H263 C256 0.930 . S
C264 C265 1.351 . S
C264 N267 1.368 . S
C264 H269 0.931 . S
C265 C264 1.351 . S
C265 N266 1.373 . S
C265 H293 0.930 . S
N266 C265 1.373 . S
N266 C268 1.340 . S
N267 C264 1.368 . S
N267 C268 1.321 . S
N267 Co270 2.135 . S
C268 N266 1.340 . S
C268 N267 1.321 . S
C268 H292 0.930 . S
H269 C264 0.931 . S
Co270 N267 2.135 . S
Co270 N273 2.121 . S
Co270 O278 2.055 . S
Co270 O281 2.039 . S
Co270 N284 2.140 . S
C271 O272 1.227 . S
C271 O281 1.265 . S
O272 C271 1.227 . S
N273 Co270 2.121 . S
N273 C275 1.375 . S
N273 C276 1.313 . S
C274 C275 1.338 . S
C274 N277 1.377 . S
C274 H294 0.930 . S
C275 N273 1.375 . S
C275 C274 1.338 . S
C275 H279 0.931 . S
C276 N273 1.313 . S
C276 N277 1.344 . S
C276 H280 0.930 . S
N277 C274 1.377 . S
N277 C276 1.344 . S
O278 Co270 2.055 . S
O278 C282 1.253 . S
H279 C275 0.931 . S
H280 C276 0.930 . S
O281 Co270 2.039 . S
O281 C271 1.265 . S
C282 O278 1.253 . S
C282 O283 1.227 . S
O283 C282 1.227 . S
N284 Co270 2.140 . S
N284 C287 1.346 . S
N284 C288 1.345 . S
C285 C286 1.387 . S
C285 C289 1.391 . S
C286 C285 1.387 . S
C286 C287 1.369 . S
C286 H295 0.929 . S
C287 N284 1.346 . S
C287 C286 1.369 . S
C287 H290 0.928 . S
C288 N284 1.345 . S
C288 C289 1.371 . S
C288 H291 0.931 . S
C289 C285 1.391 . S
C289 C288 1.371 . S
C289 H296 0.930 . S
H290 C287 0.928 . S
H291 C288 0.931 . S
H292 C268 0.930 . S
H293 C265 0.930 . S
H294 C274 0.930 . S
H295 C286 0.929 . S
H296 C289 0.930 . S
C297 C298 1.351 . S
C297 N300 1.368 . S
C297 H302 0.931 . S
C298 C297 1.351 . S
C298 N299 1.373 . S
C298 H326 0.930 . S
N299 C298 1.373 . S
N299 C301 1.340 . S
N300 C297 1.368 . S
N300 C301 1.321 . S
N300 Co303 2.135 . S
C301 N299 1.340 . S
C301 N300 1.321 . S
C301 H325 0.930 . S
H302 C297 0.931 . S
Co303 N300 2.135 . S
Co303 N306 2.121 . S
Co303 O311 2.055 . S
Co303 O314 2.039 . S
Co303 N317 2.140 . S
C304 O305 1.227 . S
C304 O314 1.265 . S
O305 C304 1.227 . S
N306 Co303 2.121 . S
N306 C308 1.375 . S
N306 C309 1.313 . S
C307 C308 1.338 . S
C307 N310 1.377 . S
C307 H327 0.930 . S
C308 N306 1.375 . S
C308 C307 1.338 . S
C308 H312 0.931 . S
C309 N306 1.313 . S
C309 N310 1.344 . S
C309 H313 0.930 . S
N310 C307 1.377 . S
N310 C309 1.344 . S
O311 Co303 2.055 . S
O311 C315 1.253 . S
H312 C308 0.931 . S
H313 C309 0.930 . S
O314 Co303 2.039 . S
O314 C304 1.265 . S
C315 O311 1.253 . S
C315 O316 1.227 . S
O316 C315 1.227 . S
N317 Co303 2.140 . S
N317 C320 1.346 . S
N317 C321 1.345 . S
C318 C319 1.387 . S
C318 C322 1.391 . S
C319 C318 1.387 . S
C319 C320 1.369 . S
C319 H328 0.929 . S
C320 N317 1.346 . S
C320 C319 1.369 . S
C320 H323 0.928 . S
C321 N317 1.345 . S
C321 C322 1.371 . S
C321 H324 0.931 . S
C322 C318 1.391 . S
C322 C321 1.371 . S
C322 H329 0.930 . S
H323 C320 0.928 . S
H324 C321 0.931 . S
H325 C301 0.930 . S
H326 C298 0.930 . S
H327 C307 0.930 . S
H328 C319 0.929 . S
H329 C322 0.930 . S
C330 C331 1.351 . S
C330 N333 1.368 . S
C330 H335 0.931 . S
C331 C330 1.351 . S
C331 N332 1.373 . S
C331 H359 0.930 . S
N332 C331 1.373 . S
N332 C334 1.340 . S
N333 C330 1.368 . S
N333 C334 1.321 . S
N333 Co336 2.135 . S
C334 N332 1.340 . S
C334 N333 1.321 . S
C334 H358 0.930 . S
H335 C330 0.931 . S
Co336 N333 2.135 . S
Co336 N339 2.121 . S
Co336 O344 2.055 . S
Co336 O347 2.039 . S
Co336 N350 2.140 . S
C337 O338 1.227 . S
C337 O347 1.265 . S
O338 C337 1.227 . S
N339 Co336 2.121 . S
N339 C341 1.375 . S
N339 C342 1.313 . S
C340 C341 1.338 . S
C340 N343 1.377 . S
C340 H360 0.930 . S
C341 N339 1.375 . S
C341 C340 1.338 . S
C341 H345 0.931 . S
C342 N339 1.313 . S
C342 N343 1.344 . S
C342 H346 0.930 . S
N343 C340 1.377 . S
N343 C342 1.344 . S
O344 Co336 2.055 . S
O344 C348 1.253 . S
H345 C341 0.931 . S
H346 C342 0.930 . S
O347 Co336 2.039 . S
O347 C337 1.265 . S
C348 O344 1.253 . S
C348 O349 1.227 . S
O349 C348 1.227 . S
N350 Co336 2.140 . S
N350 C353 1.346 . S
N350 C354 1.345 . S
C351 C352 1.387 . S
C351 C355 1.391 . S
C352 C351 1.387 . S
C352 C353 1.369 . S
C352 H361 0.929 . S
C353 N350 1.346 . S
C353 C352 1.369 . S
C353 H356 0.928 . S
C354 N350 1.345 . S
C354 C355 1.371 . S
C354 H357 0.931 . S
C355 C351 1.391 . S
C355 C354 1.371 . S
C355 H362 0.930 . S
H356 C353 0.928 . S
H357 C354 0.931 . S
H358 C334 0.930 . S
H359 C331 0.930 . S
H360 C340 0.930 . S
H361 C352 0.929 . S
H362 C355 0.930 . S
C363 C364 1.351 . S
C363 N366 1.368 . S
C363 H368 0.931 . S
C364 C363 1.351 . S
C364 N365 1.373 . S
C364 H392 0.930 . S
N365 C364 1.373 . S
N365 C367 1.340 . S
N366 C363 1.368 . S
N366 C367 1.321 . S
N366 Co369 2.135 . S
C367 N365 1.340 . S
C367 N366 1.321 . S
C367 H391 0.930 . S
H368 C363 0.931 . S
Co369 N366 2.135 . S
Co369 N372 2.121 . S
Co369 O377 2.055 . S
Co369 O380 2.039 . S
Co369 N383 2.140 . S
C370 O371 1.227 . S
C370 O380 1.265 . S
O371 C370 1.227 . S
N372 Co369 2.121 . S
N372 C374 1.375 . S
N372 C375 1.313 . S
C373 C374 1.338 . S
C373 N376 1.377 . S
C373 H393 0.930 . S
C374 N372 1.375 . S
C374 C373 1.338 . S
C374 H378 0.931 . S
C375 N372 1.313 . S
C375 N376 1.344 . S
C375 H379 0.930 . S
N376 C373 1.377 . S
N376 C375 1.344 . S
O377 Co369 2.055 . S
O377 C381 1.253 . S
H378 C374 0.931 . S
H379 C375 0.930 . S
O380 Co369 2.039 . S
O380 C370 1.265 . S
C381 O377 1.253 . S
C381 O382 1.227 . S
O382 C381 1.227 . S
N383 Co369 2.140 . S
N383 C386 1.346 . S
N383 C387 1.345 . S
C384 C385 1.387 . S
C384 C388 1.391 . S
C385 C384 1.387 . S
C385 C386 1.369 . S
C385 H394 0.929 . S
C386 N383 1.346 . S
C386 C385 1.369 . S
C386 H389 0.928 . S
C387 N383 1.345 . S
C387 C388 1.371 . S
C387 H390 0.931 . S
C388 C384 1.391 . S
C388 C387 1.371 . S
C388 H395 0.930 . S
H389 C386 0.928 . S
H390 C387 0.931 . S
H391 C367 0.930 . S
H392 C364 0.930 . S
H393 C373 0.930 . S
H394 C385 0.929 . S
H395 C388 0.930 . S
C396 C397 1.351 . S
C396 N399 1.368 . S
C396 H401 0.931 . S
C397 C396 1.351 . S
C397 N398 1.373 . S
C397 H425 0.930 . S
N398 C397 1.373 . S
N398 C400 1.340 . S
N399 C396 1.368 . S
N399 C400 1.321 . S
N399 Co402 2.135 . S
C400 N398 1.340 . S
C400 N399 1.321 . S
C400 H424 0.930 . S
H401 C396 0.931 . S
Co402 N399 2.135 . S
Co402 N405 2.121 . S
Co402 O410 2.055 . S
Co402 O413 2.039 . S
Co402 N416 2.140 . S
C403 O404 1.227 . S
C403 O413 1.265 . S
O404 C403 1.227 . S
N405 Co402 2.121 . S
N405 C407 1.375 . S
N405 C408 1.313 . S
C406 C407 1.338 . S
C406 N409 1.377 . S
C406 H426 0.930 . S
C407 N405 1.375 . S
C407 C406 1.338 . S
C407 H411 0.931 . S
C408 N405 1.313 . S
C408 N409 1.344 . S
C408 H412 0.930 . S
N409 C406 1.377 . S
N409 C408 1.344 . S
O410 Co402 2.055 . S
O410 C414 1.253 . S
H411 C407 0.931 . S
H412 C408 0.930 . S
O413 Co402 2.039 . S
O413 C403 1.265 . S
C414 O410 1.253 . S
C414 O415 1.227 . S
O415 C414 1.227 . S
N416 Co402 2.140 . S
N416 C419 1.346 . S
N416 C420 1.345 . S
C417 C418 1.387 . S
C417 C421 1.391 . S
C418 C417 1.387 . S
C418 C419 1.369 . S
C418 H427 0.929 . S
C419 N416 1.346 . S
C419 C418 1.369 . S
C419 H422 0.928 . S
C420 N416 1.345 . S
C420 C421 1.371 . S
C420 H423 0.931 . S
C421 C417 1.391 . S
C421 C420 1.371 . S
C421 H428 0.930 . S
H422 C419 0.928 . S
H423 C420 0.931 . S
H424 C400 0.930 . S
H425 C397 0.930 . S
H426 C406 0.930 . S
H427 C418 0.929 . S
H428 C421 0.930 . S
C429 C430 1.351 . S
C429 N432 1.368 . S
C429 H434 0.931 . S
C430 C429 1.351 . S
C430 N431 1.373 . S
C430 H458 0.930 . S
N431 C430 1.373 . S
N431 C433 1.340 . S
N432 C429 1.368 . S
N432 C433 1.321 . S
N432 Co435 2.135 . S
C433 N431 1.340 . S
C433 N432 1.321 . S
C433 H457 0.930 . S
H434 C429 0.931 . S
Co435 N432 2.135 . S
Co435 N438 2.121 . S
Co435 O443 2.055 . S
Co435 O446 2.039 . S
Co435 N449 2.140 . S
C436 O437 1.227 . S
C436 O446 1.265 . S
O437 C436 1.227 . S
N438 Co435 2.121 . S
N438 C440 1.375 . S
N438 C441 1.313 . S
C439 C440 1.338 . S
C439 N442 1.377 . S
C439 H459 0.930 . S
C440 N438 1.375 . S
C440 C439 1.338 . S
C440 H444 0.931 . S
C441 N438 1.313 . S
C441 N442 1.344 . S
C441 H445 0.930 . S
N442 C439 1.377 . S
N442 C441 1.344 . S
O443 Co435 2.055 . S
O443 C447 1.253 . S
H444 C440 0.931 . S
H445 C441 0.930 . S
O446 Co435 2.039 . S
O446 C436 1.265 . S
C447 O443 1.253 . S
C447 O448 1.227 . S
O448 C447 1.227 . S
N449 Co435 2.140 . S
N449 C452 1.346 . S
N449 C453 1.345 . S
C450 C451 1.387 . S
C450 C454 1.391 . S
C451 C450 1.387 . S
C451 C452 1.369 . S
C451 H460 0.929 . S
C452 N449 1.346 . S
C452 C451 1.369 . S
C452 H455 0.928 . S
C453 N449 1.345 . S
C453 C454 1.371 . S
C453 H456 0.931 . S
C454 C450 1.391 . S
C454 C453 1.371 . S
C454 H461 0.930 . S
H455 C452 0.928 . S
H456 C453 0.931 . S
H457 C433 0.930 . S
H458 C430 0.930 . S
H459 C439 0.930 . S
H460 C451 0.929 . S
H461 C454 0.930 . S
C462 C463 1.351 . S
C462 N465 1.368 . S
C462 H467 0.931 . S
C463 C462 1.351 . S
C463 N464 1.373 . S
C463 H491 0.930 . S
N464 C463 1.373 . S
N464 C466 1.340 . S
N465 C462 1.368 . S
N465 C466 1.321 . S
N465 Co468 2.135 . S
C466 N464 1.340 . S
C466 N465 1.321 . S
C466 H490 0.930 . S
H467 C462 0.931 . S
Co468 N465 2.135 . S
Co468 N471 2.121 . S
Co468 O476 2.055 . S
Co468 O479 2.039 . S
Co468 N482 2.140 . S
C469 O470 1.227 . S
C469 O479 1.265 . S
O470 C469 1.227 . S
N471 Co468 2.121 . S
N471 C473 1.375 . S
N471 C474 1.313 . S
C472 C473 1.338 . S
C472 N475 1.377 . S
C472 H492 0.930 . S
C473 N471 1.375 . S
C473 C472 1.338 . S
C473 H477 0.931 . S
C474 N471 1.313 . S
C474 N475 1.344 . S
C474 H478 0.930 . S
N475 C472 1.377 . S
N475 C474 1.344 . S
O476 Co468 2.055 . S
O476 C480 1.253 . S
H477 C473 0.931 . S
H478 C474 0.930 . S
O479 Co468 2.039 . S
O479 C469 1.265 . S
C480 O476 1.253 . S
C480 O481 1.227 . S
O481 C480 1.227 . S
N482 Co468 2.140 . S
N482 C485 1.346 . S
N482 C486 1.345 . S
C483 C484 1.387 . S
C483 C487 1.391 . S
C484 C483 1.387 . S
C484 C485 1.369 . S
C484 H493 0.929 . S
C485 N482 1.346 . S
C485 C484 1.369 . S
C485 H488 0.928 . S
C486 N482 1.345 . S
C486 C487 1.371 . S
C486 H489 0.931 . S
C487 C483 1.391 . S
C487 C486 1.371 . S
C487 H494 0.930 . S
H488 C485 0.928 . S
H489 C486 0.931 . S
H490 C466 0.930 . S
H491 C463 0.930 . S
H492 C472 0.930 . S
H493 C484 0.929 . S
H494 C487 0.930 . S
C495 C496 1.351 . S
C495 N498 1.368 . S
C495 H500 0.931 . S
C496 C495 1.351 . S
C496 N497 1.373 . S
C496 H524 0.930 . S
N497 C496 1.373 . S
N497 C499 1.340 . S
N498 C495 1.368 . S
N498 C499 1.321 . S
N498 Co501 2.135 . S
C499 N497 1.340 . S
C499 N498 1.321 . S
C499 H523 0.930 . S
H500 C495 0.931 . S
Co501 N498 2.135 . S
Co501 N504 2.121 . S
Co501 O509 2.055 . S
Co501 O512 2.039 . S
Co501 N515 2.140 . S
C502 O503 1.227 . S
C502 O512 1.265 . S
O503 C502 1.227 . S
N504 Co501 2.121 . S
N504 C506 1.375 . S
N504 C507 1.313 . S
C505 C506 1.338 . S
C505 N508 1.377 . S
C505 H525 0.930 . S
C506 N504 1.375 . S
C506 C505 1.338 . S
C506 H510 0.931 . S
C507 N504 1.313 . S
C507 N508 1.344 . S
C507 H511 0.930 . S
N508 C505 1.377 . S
N508 C507 1.344 . S
O509 Co501 2.055 . S
O509 C513 1.253 . S
H510 C506 0.931 . S
H511 C507 0.930 . S
O512 Co501 2.039 . S
O512 C502 1.265 . S
C513 O509 1.253 . S
C513 O514 1.227 . S
O514 C513 1.227 . S
N515 Co501 2.140 . S
N515 C518 1.346 . S
N515 C519 1.345 . S
C516 C517 1.387 . S
C516 C520 1.391 . S
C517 C516 1.387 . S
C517 C518 1.369 . S
C517 H526 0.929 . S
C518 N515 1.346 . S
C518 C517 1.369 . S
C518 H521 0.928 . S
C519 N515 1.345 . S
C519 C520 1.371 . S
C519 H522 0.931 . S
C520 C516 1.391 . S
C520 C519 1.371 . S
C520 H527 0.930 . S
H521 C518 0.928 . S
H522 C519 0.931 . S
H523 C499 0.930 . S
H524 C496 0.930 . S
H525 C505 0.930 . S
H526 C517 0.929 . S
H527 C520 0.930 . S
H528 C536 0.929 . S
H529 C538 0.930 . S
H530 C540 0.930 . S
H531 C543 0.929 . S
H532 C546 0.930 . S
H533 C548 0.960 . S
H534 C548 0.960 . S
H535 C548 0.960 . S
C536 H528 0.929 . S
C536 C537 1.377 1_455 S
C536 C538 1.384 . S
C537 C536 1.377 1_655 S
C537 C543 1.390 . S
C538 H529 0.930 . S
C538 C536 1.384 . S
C538 C539 1.372 1_455 S
C539 C538 1.372 1_655 S
C539 C540 1.400 . S
C539 C544 1.490 . S
C540 H530 0.930 . S
C540 C539 1.400 . S
C540 C543 1.386 . S
H541 C557 0.930 . S
H542 C558 0.931 . S
C543 H531 0.929 . S
C543 C537 1.390 . S
C543 C540 1.386 . S
C544 C539 1.490 . S
C544 C546 1.395 1_655 S
C544 C547 1.403 . S
H545 C551 0.930 . S
C546 H532 0.930 . S
C546 C544 1.395 1_455 S
C546 C549 1.403 . S
C547 C544 1.403 . S
C547 C548 1.524 . S
C547 C551 1.400 . S
C548 H533 0.960 . S
C548 H534 0.960 . S
C548 H535 0.960 . S
C548 C547 1.524 . S
C549 C546 1.403 . S
C549 C550 1.392 . S
C549 C553 1.495 . S
C550 C549 1.392 . S
C550 C551 1.385 1_455 S
C550 C552 1.478 . S
C551 H545 0.930 . S
C551 C547 1.400 . S
C551 C550 1.385 1_655 S
C552 C550 1.478 . S
C552 C554 1.381 . S
C552 C558 1.383 1_455 S
C553 C549 1.495 . S
C553 H559 0.959 . S
C553 H560 0.961 . S
C553 H561 0.960 . S
C554 C552 1.381 . S
C554 C555 1.394 . S
C554 H562 0.930 . S
C555 C554 1.394 . S
C555 C556 1.383 . S
C555 H563 0.929 . S
C556 C555 1.383 . S
C556 C557 1.377 1_455 S
C557 H541 0.930 . S
C557 C556 1.377 1_655 S
C557 C558 1.379 . S
C558 H542 0.931 . S
C558 C552 1.383 1_655 S
C558 C557 1.379 . S
H559 C553 0.959 . S
H560 C553 0.961 . S
H561 C553 0.960 . S
H562 C554 0.930 . S
H563 C555 0.929 . S
H564 C572 0.929 . S
H565 C574 0.930 1_565 S
H566 C576 0.930 . S
H567 C579 0.929 . S
H568 C582 0.930 . S
H569 C584 0.960 . S
H570 C584 0.960 . S
H571 C584 0.960 . S
C572 H564 0.929 . S
C572 C573 1.377 . S
C572 C574 1.384 . S
C573 C572 1.377 . S
C573 C579 1.390 . S
C574 H565 0.930 1_545 S
C574 C572 1.384 . S
C574 C575 1.372 . S
C575 C574 1.372 . S
C575 C576 1.400 . S
C575 C580 1.490 . S
C576 H566 0.930 . S
C576 C575 1.400 . S
C576 C579 1.386 . S
H577 C593 0.930 . S
H578 C594 0.931 . S
C579 H567 0.929 . S
C579 C573 1.390 . S
C579 C576 1.386 . S
C580 C575 1.490 . S
C580 C582 1.395 1_545 S
C580 C583 1.403 . S
H581 C587 0.930 . S
C582 H568 0.930 . S
C582 C580 1.395 1_565 S
C582 C585 1.403 . S
C583 C580 1.403 . S
C583 C584 1.524 . S
C583 C587 1.400 . S
C584 H569 0.960 . S
C584 H570 0.960 . S
C584 H571 0.960 . S
C584 C583 1.524 . S
C585 C582 1.403 . S
C585 C586 1.392 . S
C585 C589 1.495 . S
C586 C585 1.392 . S
C586 C587 1.385 1_565 S
C586 C588 1.478 . S
C587 H581 0.930 . S
C587 C583 1.400 . S
C587 C586 1.385 1_545 S
C588 C586 1.478 . S
C588 C590 1.381 . S
C588 C594 1.383 . S
C589 C585 1.495 . S
C589 H595 0.959 . S
C589 H596 0.961 . S
C589 H597 0.960 . S
C590 C588 1.381 . S
C590 C591 1.394 . S
C590 H598 0.930 . S
C591 C590 1.394 . S
C591 C592 1.383 . S
C591 H599 0.929 . S
C592 C591 1.383 . S
C592 C593 1.377 . S
C593 H577 0.930 . S
C593 C592 1.377 . S
C593 C594 1.379 . S
C594 H578 0.931 . S
C594 C588 1.383 . S
C594 C593 1.379 . S
H595 C589 0.959 . S
H596 C589 0.961 . S
H597 C589 0.960 . S
H598 C590 0.930 . S
H599 C591 0.929 . S
H600 C608 0.929 . S
H601 C610 0.930 . S
H602 C612 0.930 . S
H603 C615 0.929 . S
H604 C618 0.930 . S
H605 C620 0.960 . S
H606 C620 0.960 . S
H607 C620 0.960 . S
C608 H600 0.929 . S
C608 C609 1.377 1_455 S
C608 C610 1.384 . S
C609 C608 1.377 1_655 S
C609 C615 1.390 . S
C610 H601 0.930 . S
C610 C608 1.384 . S
C610 C611 1.372 1_455 S
C611 C610 1.372 1_655 S
C611 C612 1.400 . S
C611 C616 1.490 . S
C612 H602 0.930 . S
C612 C611 1.400 . S
C612 C615 1.386 . S
H613 C629 0.930 . S
H614 C630 0.931 . S
C615 H603 0.929 . S
C615 C609 1.390 . S
C615 C612 1.386 . S
C616 C611 1.490 . S
C616 C618 1.395 . S
C616 C619 1.403 1_655 S
H617 C623 0.930 . S
C618 H604 0.930 . S
C618 C616 1.395 . S
C618 C621 1.403 . S
C619 C616 1.403 1_455 S
C619 C620 1.524 . S
C619 C623 1.400 . S
C620 H605 0.960 . S
C620 H606 0.960 . S
C620 H607 0.960 . S
C620 C619 1.524 . S
C621 C618 1.403 . S
C621 C622 1.392 1_655 S
C621 C625 1.495 . S
C622 C621 1.392 1_455 S
C622 C623 1.385 . S
C622 C624 1.478 . S
C623 H617 0.930 . S
C623 C619 1.400 . S
C623 C622 1.385 . S
C624 C622 1.478 . S
C624 C626 1.381 . S
C624 C630 1.383 1_455 S
C625 C621 1.495 . S
C625 H631 0.959 . S
C625 H632 0.961 . S
C625 H633 0.960 . S
C626 C624 1.381 . S
C626 C627 1.394 . S
C626 H634 0.930 . S
C627 C626 1.394 . S
C627 C628 1.383 . S
C627 H635 0.929 . S
C628 C627 1.383 . S
C628 C629 1.377 1_455 S
C629 H613 0.930 . S
C629 C628 1.377 1_655 S
C629 C630 1.379 . S
C630 H614 0.931 . S
C630 C624 1.383 1_655 S
C630 C629 1.379 . S
H631 C625 0.959 . S
H632 C625 0.961 . S
H633 C625 0.960 . S
H634 C626 0.930 . S
H635 C627 0.929 . S
H636 C644 0.929 . S
H637 C646 0.930 1_545 S
H638 C648 0.930 . S
H639 C651 0.929 . S
H640 C654 0.930 . S
H641 C656 0.960 . S
H642 C656 0.960 . S
H643 C656 0.960 . S
C644 H636 0.929 . S
C644 C645 1.377 . S
C644 C646 1.384 . S
C645 C644 1.377 . S
C645 C651 1.390 . S
C646 H637 0.930 1_565 S
C646 C644 1.384 . S
C646 C647 1.372 . S
C647 C646 1.372 . S
C647 C648 1.400 . S
C647 C652 1.490 . S
C648 H638 0.930 . S
C648 C647 1.400 . S
C648 C651 1.386 . S
H649 C665 0.930 . S
H650 C666 0.931 . S
C651 H639 0.929 . S
C651 C645 1.390 . S
C651 C648 1.386 . S
C652 C647 1.490 . S
C652 C654 1.395 1_565 S
C652 C655 1.403 . S
H653 C659 0.930 . S
C654 H640 0.930 . S
C654 C652 1.395 1_545 S
C654 C657 1.403 . S
C655 C652 1.403 . S
C655 C656 1.524 . S
C655 C659 1.400 . S
C656 H641 0.960 . S
C656 H642 0.960 . S
C656 H643 0.960 . S
C656 C655 1.524 . S
C657 C654 1.403 . S
C657 C658 1.392 . S
C657 C661 1.495 . S
C658 C657 1.392 . S
C658 C659 1.385 1_545 S
C658 C660 1.478 . S
C659 H653 0.930 . S
C659 C655 1.400 . S
C659 C658 1.385 1_565 S
C660 C658 1.478 . S
C660 C662 1.381 . S
C660 C666 1.383 . S
C661 C657 1.495 . S
C661 H667 0.959 . S
C661 H668 0.961 . S
C661 H669 0.960 . S
C662 C660 1.381 . S
C662 C663 1.394 . S
C662 H670 0.930 . S
C663 C662 1.394 . S
C663 C664 1.383 . S
C663 H671 0.929 . S
C664 C663 1.383 . S
C664 C665 1.377 . S
C665 H649 0.930 . S
C665 C664 1.377 . S
C665 C666 1.379 . S
C666 H650 0.931 . S
C666 C660 1.383 . S
C666 C665 1.379 . S
H667 C661 0.959 . S
H668 C661 0.961 . S
H669 C661 0.960 . S
H670 C662 0.930 . S
H671 C663 0.929 . S
H672 C680 0.929 . S
H673 C682 0.930 . S
H674 C684 0.930 . S
H675 C687 0.929 . S
H676 C690 0.930 . S
H677 C692 0.960 . S
H678 C692 0.960 . S
H679 C692 0.960 . S
C680 H672 0.929 . S
C680 C681 1.377 . S
C680 C682 1.384 . S
C681 C680 1.377 . S
C681 C687 1.390 . S
C682 H673 0.930 . S
C682 C680 1.384 . S
C682 C683 1.372 . S
C683 C682 1.372 . S
C683 C684 1.400 . S
C683 C688 1.490 . S
C684 H674 0.930 . S
C684 C683 1.400 . S
C684 C687 1.386 . S
H685 C701 0.930 . S
H686 C702 0.931 . S
C687 H675 0.929 . S
C687 C681 1.390 . S
C687 C684 1.386 . S
C688 C683 1.490 . S
C688 C690 1.395 . S
C688 C691 1.403 . S
H689 C695 0.930 . S
C690 H676 0.930 . S
C690 C688 1.395 . S
C690 C693 1.403 1_565 S
C691 C688 1.403 . S
C691 C692 1.524 . S
C691 C695 1.400 1_565 S
C692 H677 0.960 . S
C692 H678 0.960 . S
C692 H679 0.960 . S
C692 C691 1.524 . S
C693 C690 1.403 1_545 S
C693 C694 1.392 . S
C693 C697 1.495 . S
C694 C693 1.392 . S
C694 C695 1.385 . S
C694 C696 1.478 . S
C695 H689 0.930 . S
C695 C691 1.400 1_545 S
C695 C694 1.385 . S
C696 C694 1.478 . S
C696 C698 1.381 . S
C696 C702 1.383 . S
C697 C693 1.495 . S
C697 H703 0.959 . S
C697 H704 0.961 . S
C697 H705 0.960 . S
C698 C696 1.381 . S
C698 C699 1.394 . S
C698 H706 0.930 . S
C699 C698 1.394 . S
C699 C700 1.383 . S
C699 H707 0.929 . S
C700 C699 1.383 . S
C700 C701 1.377 . S
C701 H685 0.930 . S
C701 C700 1.377 . S
C701 C702 1.379 . S
C702 H686 0.931 . S
C702 C696 1.383 . S
C702 C701 1.379 . S
H703 C697 0.959 . S
H704 C697 0.961 . S
H705 C697 0.960 . S
H706 C698 0.930 . S
H707 C699 0.929 . S
H708 C716 0.929 . S
H709 C718 0.930 . S
H710 C720 0.930 . S
H711 C723 0.929 . S
H712 C726 0.930 . S
H713 C728 0.960 . S
H714 C728 0.960 . S
H715 C728 0.960 . S
C716 H708 0.929 . S
C716 C717 1.377 . S
C716 C718 1.384 . S
C717 C716 1.377 . S
C717 C723 1.390 . S
C718 H709 0.930 . S
C718 C716 1.384 . S
C718 C719 1.372 . S
C719 C718 1.372 . S
C719 C720 1.400 . S
C719 C724 1.490 . S
C720 H710 0.930 . S
C720 C719 1.400 . S
C720 C723 1.386 . S
H721 C737 0.930 . S
H722 C738 0.931 . S
C723 H711 0.929 . S
C723 C717 1.390 . S
C723 C720 1.386 . S
C724 C719 1.490 . S
C724 C726 1.395 . S
C724 C727 1.403 . S
H725 C731 0.930 . S
C726 H712 0.930 . S
C726 C724 1.395 . S
C726 C729 1.403 1_655 S
C727 C724 1.403 . S
C727 C728 1.524 . S
C727 C731 1.400 1_655 S
C728 H713 0.960 . S
C728 H714 0.960 . S
C728 H715 0.960 . S
C728 C727 1.524 . S
C729 C726 1.403 1_455 S
C729 C730 1.392 . S
C729 C733 1.495 . S
C730 C729 1.392 . S
C730 C731 1.385 . S
C730 C732 1.478 . S
C731 H725 0.930 . S
C731 C727 1.400 1_455 S
C731 C730 1.385 . S
C732 C730 1.478 . S
C732 C734 1.381 . S
C732 C738 1.383 . S
C733 C729 1.495 . S
C733 H739 0.959 . S
C733 H740 0.961 . S
C733 H741 0.960 . S
C734 C732 1.381 . S
C734 C735 1.394 . S
C734 H742 0.930 . S
C735 C734 1.394 . S
C735 C736 1.383 . S
C735 H743 0.929 . S
C736 C735 1.383 . S
C736 C737 1.377 . S
C737 H721 0.930 . S
C737 C736 1.377 . S
C737 C738 1.379 . S
C738 H722 0.931 . S
C738 C732 1.383 . S
C738 C737 1.379 . S
H739 C733 0.959 . S
H740 C733 0.961 . S
H741 C733 0.960 . S
H742 C734 0.930 . S
H743 C735 0.929 . S
H744 C752 0.929 . S
H745 C754 0.930 . S
H746 C756 0.930 . S
H747 C759 0.929 . S
H748 C762 0.930 . S
H749 C764 0.960 . S
H750 C764 0.960 . S
H751 C764 0.960 . S
C752 H744 0.929 . S
C752 C753 1.377 . S
C752 C754 1.384 . S
C753 C752 1.377 . S
C753 C759 1.390 . S
C754 H745 0.930 . S
C754 C752 1.384 . S
C754 C755 1.372 . S
C755 C754 1.372 . S
C755 C756 1.400 . S
C755 C760 1.490 . S
C756 H746 0.930 . S
C756 C755 1.400 . S
C756 C759 1.386 . S
H757 C773 0.930 . S
H758 C774 0.931 . S
C759 H747 0.929 . S
C759 C753 1.390 . S
C759 C756 1.386 . S
C760 C755 1.490 . S
C760 C762 1.395 . S
C760 C763 1.403 . S
H761 C767 0.930 . S
C762 H748 0.930 . S
C762 C760 1.395 . S
C762 C765 1.403 1_565 S
C763 C760 1.403 . S
C763 C764 1.524 . S
C763 C767 1.400 1_565 S
C764 H749 0.960 . S
C764 H750 0.960 . S
C764 H751 0.960 . S
C764 C763 1.524 . S
C765 C762 1.403 1_545 S
C765 C766 1.392 . S
C765 C769 1.495 . S
C766 C765 1.392 . S
C766 C767 1.385 . S
C766 C768 1.478 . S
C767 H761 0.930 . S
C767 C763 1.400 1_545 S
C767 C766 1.385 . S
C768 C766 1.478 . S
C768 C770 1.381 . S
C768 C774 1.383 . S
C769 C765 1.495 . S
C769 H775 0.959 . S
C769 H776 0.961 . S
C769 H777 0.960 . S
C770 C768 1.381 . S
C770 C771 1.394 . S
C770 H778 0.930 . S
C771 C770 1.394 . S
C771 C772 1.383 . S
C771 H779 0.929 . S
C772 C771 1.383 . S
C772 C773 1.377 . S
C773 H757 0.930 . S
C773 C772 1.377 . S
C773 C774 1.379 . S
C774 H758 0.931 . S
C774 C768 1.383 . S
C774 C773 1.379 . S
H775 C769 0.959 . S
H776 C769 0.961 . S
H777 C769 0.960 . S
H778 C770 0.930 . S
H779 C771 0.929 . S
H780 C788 0.929 . S
H781 C790 0.930 . S
H782 C792 0.930 . S
H783 C795 0.929 . S
H784 C798 0.930 . S
H785 C800 0.960 . S
H786 C800 0.960 . S
H787 C800 0.960 . S
C788 H780 0.929 . S
C788 C789 1.377 . S
C788 C790 1.384 . S
C789 C788 1.377 . S
C789 C795 1.390 . S
C790 H781 0.930 . S
C790 C788 1.384 . S
C790 C791 1.372 . S
C791 C790 1.372 . S
C791 C792 1.400 . S
C791 C796 1.490 . S
C792 H782 0.930 . S
C792 C791 1.400 . S
C792 C795 1.386 . S
H793 C809 0.930 . S
H794 C810 0.931 . S
C795 H783 0.929 . S
C795 C789 1.390 . S
C795 C792 1.386 . S
C796 C791 1.490 . S
C796 C798 1.395 . S
C796 C799 1.403 . S
H797 C803 0.930 . S
C798 H784 0.930 . S
C798 C796 1.395 . S
C798 C801 1.403 1_655 S
C799 C796 1.403 . S
C799 C800 1.524 . S
C799 C803 1.400 1_655 S
C800 H785 0.960 . S
C800 H786 0.960 . S
C800 H787 0.960 . S
C800 C799 1.524 . S
C801 C798 1.403 1_455 S
C801 C802 1.392 . S
C801 C805 1.495 . S
C802 C801 1.392 . S
C802 C803 1.385 . S
C802 C804 1.478 . S
C803 H797 0.930 . S
C803 C799 1.400 1_455 S
C803 C802 1.385 . S
C804 C802 1.478 . S
C804 C806 1.381 . S
C804 C810 1.383 . S
C805 C801 1.495 . S
C805 H811 0.959 . S
C805 H812 0.961 . S
C805 H813 0.960 . S
C806 C804 1.381 . S
C806 C807 1.394 . S
C806 H814 0.930 . S
C807 C806 1.394 . S
C807 C808 1.383 . S
C807 H815 0.929 . S
C808 C807 1.383 . S
C808 C809 1.377 . S
C809 H793 0.930 . S
C809 C808 1.377 . S
C809 C810 1.379 . S
C810 H794 0.931 . S
C810 C804 1.383 . S
C810 C809 1.379 . S
H811 C805 0.959 . S
H812 C805 0.961 . S
H813 C805 0.960 . S
H814 C806 0.930 . S
H815 C807 0.929 . S
H816 C824 0.929 . S
H817 C826 0.930 . S
H818 C828 0.930 . S
H819 C831 0.929 . S
H820 C834 0.930 . S
H821 C836 0.960 . S
H822 C836 0.960 . S
H823 C836 0.960 . S
C824 H816 0.929 . S
C824 C825 1.377 . S
C824 C826 1.384 . S
C825 C824 1.377 . S
C825 C831 1.390 . S
C826 H817 0.930 . S
C826 C824 1.384 . S
C826 C827 1.372 . S
C827 C826 1.372 . S
C827 C828 1.400 . S
C827 C832 1.490 . S
C828 H818 0.930 . S
C828 C827 1.400 . S
C828 C831 1.386 . S
H829 C845 0.930 . S
H830 C846 0.931 . S
C831 H819 0.929 . S
C831 C825 1.390 . S
C831 C828 1.386 . S
C832 C827 1.490 . S
C832 C834 1.395 . S
C832 C835 1.403 . S
H833 C839 0.930 . S
C834 H820 0.930 . S
C834 C832 1.395 . S
C834 C837 1.403 . S
C835 C832 1.403 . S
C835 C836 1.524 . S
C835 C839 1.400 . S
C836 H821 0.960 . S
C836 H822 0.960 . S
C836 H823 0.960 . S
C836 C835 1.524 . S
C837 C834 1.403 . S
C837 C838 1.392 . S
C837 C841 1.495 . S
C838 C837 1.392 . S
C838 C839 1.385 . S
C838 C840 1.478 . S
C839 H833 0.930 . S
C839 C835 1.400 . S
C839 C838 1.385 . S
C840 C838 1.478 . S
C840 C842 1.381 . S
C840 C846 1.383 . S
C841 C837 1.495 . S
C841 H847 0.959 . S
C841 H848 0.961 . S
C841 H849 0.960 . S
C842 C840 1.381 . S
C842 C843 1.394 . S
C842 H850 0.930 . S
C843 C842 1.394 . S
C843 C844 1.383 . S
C843 H851 0.929 . S
C844 C843 1.383 . S
C844 C845 1.377 . S
C845 H829 0.930 . S
C845 C844 1.377 . S
C845 C846 1.379 . S
C846 H830 0.931 . S
C846 C840 1.383 . S
C846 C845 1.379 . S
H847 C841 0.959 . S
H848 C841 0.961 . S
H849 C841 0.960 . S
H850 C842 0.930 . S
H851 C843 0.929 . S
H852 C860 0.929 . S
H853 C862 0.930 . S
H854 C864 0.930 . S
H855 C867 0.929 . S
H856 C870 0.930 . S
H857 C872 0.960 . S
H858 C872 0.960 . S
H859 C872 0.960 . S
C860 H852 0.929 . S
C860 C861 1.377 . S
C860 C862 1.384 . S
C861 C860 1.377 . S
C861 C867 1.390 . S
C862 H853 0.930 . S
C862 C860 1.384 . S
C862 C863 1.372 . S
C863 C862 1.372 . S
C863 C864 1.400 . S
C863 C868 1.490 . S
C864 H854 0.930 . S
C864 C863 1.400 . S
C864 C867 1.386 . S
H865 C881 0.930 . S
H866 C882 0.931 . S
C867 H855 0.929 . S
C867 C861 1.390 . S
C867 C864 1.386 . S
C868 C863 1.490 . S
C868 C870 1.395 . S
C868 C871 1.403 . S
H869 C875 0.930 . S
C870 H856 0.930 . S
C870 C868 1.395 . S
C870 C873 1.403 . S
C871 C868 1.403 . S
C871 C872 1.524 . S
C871 C875 1.400 . S
C872 H857 0.960 . S
C872 H858 0.960 . S
C872 H859 0.960 . S
C872 C871 1.524 . S
C873 C870 1.403 . S
C873 C874 1.392 . S
C873 C877 1.495 . S
C874 C873 1.392 . S
C874 C875 1.385 . S
C874 C876 1.478 . S
C875 H869 0.930 . S
C875 C871 1.400 . S
C875 C874 1.385 . S
C876 C874 1.478 . S
C876 C878 1.381 . S
C876 C882 1.383 . S
C877 C873 1.495 . S
C877 H883 0.959 . S
C877 H884 0.961 . S
C877 H885 0.960 . S
C878 C876 1.381 . S
C878 C879 1.394 . S
C878 H886 0.930 . S
C879 C878 1.394 . S
C879 C880 1.383 . S
C879 H887 0.929 . S
C880 C879 1.383 . S
C880 C881 1.377 . S
C881 H865 0.930 . S
C881 C880 1.377 . S
C881 C882 1.379 . S
C882 H866 0.931 . S
C882 C876 1.383 . S
C882 C881 1.379 . S
H883 C877 0.959 . S
H884 C877 0.961 . S
H885 C877 0.960 . S
H886 C878 0.930 . S
H887 C879 0.929 . S
H888 C896 0.929 . S
H889 C898 0.930 . S
H890 C900 0.930 . S
H891 C903 0.929 . S
H892 C906 0.930 . S
H893 C908 0.960 . S
H894 C908 0.960 . S
H895 C908 0.960 . S
C896 H888 0.929 . S
C896 C897 1.377 . S
C896 C898 1.384 . S
C897 C896 1.377 . S
C897 C903 1.390 . S
C898 H889 0.930 . S
C898 C896 1.384 . S
C898 C899 1.372 . S
C899 C898 1.372 . S
C899 C900 1.400 . S
C899 C904 1.490 . S
C900 H890 0.930 . S
C900 C899 1.400 . S
C900 C903 1.386 . S
H901 C917 0.930 . S
H902 C918 0.931 . S
C903 H891 0.929 . S
C903 C897 1.390 . S
C903 C900 1.386 . S
C904 C899 1.490 . S
C904 C906 1.395 . S
C904 C907 1.403 . S
H905 C911 0.930 . S
C906 H892 0.930 . S
C906 C904 1.395 . S
C906 C909 1.403 . S
C907 C904 1.403 . S
C907 C908 1.524 . S
C907 C911 1.400 . S
C908 H893 0.960 . S
C908 H894 0.960 . S
C908 H895 0.960 . S
C908 C907 1.524 . S
C909 C906 1.403 . S
C909 C910 1.392 . S
C909 C913 1.495 . S
C910 C909 1.392 . S
C910 C911 1.385 . S
C910 C912 1.478 . S
C911 H905 0.930 . S
C911 C907 1.400 . S
C911 C910 1.385 . S
C912 C910 1.478 . S
C912 C914 1.381 . S
C912 C918 1.383 . S
C913 C909 1.495 . S
C913 H919 0.959 . S
C913 H920 0.961 . S
C913 H921 0.960 . S
C914 C912 1.381 . S
C914 C915 1.394 . S
C914 H922 0.930 . S
C915 C914 1.394 . S
C915 C916 1.383 . S
C915 H923 0.929 . S
C916 C915 1.383 . S
C916 C917 1.377 . S
C917 H901 0.930 . S
C917 C916 1.377 . S
C917 C918 1.379 . S
C918 H902 0.931 . S
C918 C912 1.383 . S
C918 C917 1.379 . S
H919 C913 0.959 . S
H920 C913 0.961 . S
H921 C913 0.960 . S
H922 C914 0.930 . S
H923 C915 0.929 . S
H924 C932 0.929 . S
H925 C934 0.930 . S
H926 C936 0.930 . S
H927 C939 0.929 . S
H928 C942 0.930 . S
H929 C944 0.960 . S
H930 C944 0.960 . S
H931 C944 0.960 . S
C932 H924 0.929 . S
C932 C933 1.377 . S
C932 C934 1.384 . S
C933 C932 1.377 . S
C933 C939 1.390 . S
C934 H925 0.930 . S
C934 C932 1.384 . S
C934 C935 1.372 . S
C935 C934 1.372 . S
C935 C936 1.400 . S
C935 C940 1.490 . S
C936 H926 0.930 . S
C936 C935 1.400 . S
C936 C939 1.386 . S
H937 C953 0.930 . S
H938 C954 0.931 . S
C939 H927 0.929 . S
C939 C933 1.390 . S
C939 C936 1.386 . S
C940 C935 1.490 . S
C940 C942 1.395 . S
C940 C943 1.403 . S
H941 C947 0.930 . S
C942 H928 0.930 . S
C942 C940 1.395 . S
C942 C945 1.403 . S
C943 C940 1.403 . S
C943 C944 1.524 . S
C943 C947 1.400 . S
C944 H929 0.960 . S
C944 H930 0.960 . S
C944 H931 0.960 . S
C944 C943 1.524 . S
C945 C942 1.403 . S
C945 C946 1.392 . S
C945 C949 1.495 . S
C946 C945 1.392 . S
C946 C947 1.385 . S
C946 C948 1.478 . S
C947 H941 0.930 . S
C947 C943 1.400 . S
C947 C946 1.385 . S
C948 C946 1.478 . S
C948 C950 1.381 . S
C948 C954 1.383 . S
C949 C945 1.495 . S
C949 H955 0.959 . S
C949 H956 0.961 . S
C949 H957 0.960 . S
C950 C948 1.381 . S
C950 C951 1.394 . S
C950 H958 0.930 . S
C951 C950 1.394 . S
C951 C952 1.383 . S
C951 H959 0.929 . S
C952 C951 1.383 . S
C952 C953 1.377 . S
C953 H937 0.930 . S
C953 C952 1.377 . S
C953 C954 1.379 . S
C954 H938 0.931 . S
C954 C948 1.383 . S
C954 C953 1.379 . S
H955 C949 0.959 . S
H956 C949 0.961 . S
H957 C949 0.960 . S
H958 C950 0.930 . S
H959 C951 0.929 . S
H960 C968 0.929 . S
H961 C970 0.930 . S
H962 C972 0.930 . S
H963 C975 0.929 . S
H964 C978 0.930 . S
H965 C980 0.960 . S
H966 C980 0.960 . S
H967 C980 0.960 . S
C968 H960 0.929 . S
C968 C969 1.377 . S
C968 C970 1.384 . S
C969 C968 1.377 . S
C969 C975 1.390 . S
C970 H961 0.930 . S
C970 C968 1.384 . S
C970 C971 1.372 . S
C971 C970 1.372 . S
C971 C972 1.400 . S
C971 C976 1.490 . S
C972 H962 0.930 . S
C972 C971 1.400 . S
C972 C975 1.386 . S
H973 C989 0.930 . S
H974 C990 0.931 . S
C975 H963 0.929 . S
C975 C969 1.390 . S
C975 C972 1.386 . S
C976 C971 1.490 . S
C976 C978 1.395 . S
C976 C979 1.403 . S
H977 C983 0.930 . S
C978 H964 0.930 . S
C978 C976 1.395 . S
C978 C981 1.403 . S
C979 C976 1.403 . S
C979 C980 1.524 . S
C979 C983 1.400 . S
C980 H965 0.960 . S
C980 H966 0.960 . S
C980 H967 0.960 . S
C980 C979 1.524 . S
C981 C978 1.403 . S
C981 C982 1.392 . S
C981 C985 1.495 . S
C982 C981 1.392 . S
C982 C983 1.385 . S
C982 C984 1.478 . S
C983 H977 0.930 . S
C983 C979 1.400 . S
C983 C982 1.385 . S
C984 C982 1.478 . S
C984 C986 1.381 . S
C984 C990 1.383 . S
C985 C981 1.495 . S
C985 H991 0.959 . S
C985 H992 0.961 . S
C985 H993 0.960 . S
C986 C984 1.381 . S
C986 C987 1.394 . S
C986 H994 0.930 . S
C987 C986 1.394 . S
C987 C988 1.383 . S
C987 H995 0.929 . S
C988 C987 1.383 . S
C988 C989 1.377 . S
C989 H973 0.930 . S
C989 C988 1.377 . S
C989 C990 1.379 . S
C990 H974 0.931 . S
C990 C984 1.383 . S
C990 C989 1.379 . S
H991 C985 0.959 . S
H992 C985 0.961 . S
H993 C985 0.960 . S
H994 C986 0.930 . S
H995 C987 0.929 . S
H996 C1004 0.929 . S
H997 C1006 0.930 . S
H998 C1008 0.930 . S
H999 C1011 0.929 . S
H1000 C1014 0.930 . S
H1001 C1016 0.960 . S
H1002 C1016 0.960 . S
H1003 C1016 0.960 . S
C1004 H996 0.929 . S
C1004 C1005 1.377 . S
C1004 C1006 1.384 . S
C1005 C1004 1.377 . S
C1005 C1011 1.390 . S
C1006 H997 0.930 . S
C1006 C1004 1.384 . S
C1006 C1007 1.372 . S
C1007 C1006 1.372 . S
C1007 C1008 1.400 . S
C1007 C1012 1.490 . S
C1008 H998 0.930 . S
C1008 C1007 1.400 . S
C1008 C1011 1.386 . S
H1009 C1025 0.930 . S
H1010 C1026 0.931 . S
C1011 H999 0.929 . S
C1011 C1005 1.390 . S
C1011 C1008 1.386 . S
C1012 C1007 1.490 . S
C1012 C1014 1.395 . S
C1012 C1015 1.403 . S
H1013 C1019 0.930 . S
C1014 H1000 0.930 . S
C1014 C1012 1.395 . S
C1014 C1017 1.403 . S
C1015 C1012 1.403 . S
C1015 C1016 1.524 . S
C1015 C1019 1.400 . S
C1016 H1001 0.960 . S
C1016 H1002 0.960 . S
C1016 H1003 0.960 . S
C1016 C1015 1.524 . S
C1017 C1014 1.403 . S
C1017 C1018 1.392 . S
C1017 C1021 1.495 . S
C1018 C1017 1.392 . S
C1018 C1019 1.385 . S
C1018 C1020 1.478 . S
C1019 H1013 0.930 . S
C1019 C1015 1.400 . S
C1019 C1018 1.385 . S
C1020 C1018 1.478 . S
C1020 C1022 1.381 . S
C1020 C1026 1.383 . S
C1021 C1017 1.495 . S
C1021 H1027 0.959 . S
C1021 H1028 0.961 . S
C1021 H1029 0.960 . S
C1022 C1020 1.381 . S
C1022 C1023 1.394 . S
C1022 H1030 0.930 . S
C1023 C1022 1.394 . S
C1023 C1024 1.383 . S
C1023 H1031 0.929 . S
C1024 C1023 1.383 . S
C1024 C1025 1.377 . S
C1025 H1009 0.930 . S
C1025 C1024 1.377 . S
C1025 C1026 1.379 . S
C1026 H1010 0.931 . S
C1026 C1020 1.383 . S
C1026 C1025 1.379 . S
H1027 C1021 0.959 . S
H1028 C1021 0.961 . S
H1029 C1021 0.960 . S
H1030 C1022 0.930 . S
H1031 C1023 0.929 . S
H1032 C1040 0.929 . S
H1033 C1042 0.930 . S
H1034 C1044 0.930 . S
H1035 C1047 0.929 . S
H1036 C1050 0.930 . S
H1037 C1052 0.960 . S
H1038 C1052 0.960 . S
H1039 C1052 0.960 . S
C1040 H1032 0.929 . S
C1040 C1041 1.377 . S
C1040 C1042 1.384 . S
C1041 C1040 1.377 . S
C1041 C1047 1.390 . S
C1042 H1033 0.930 . S
C1042 C1040 1.384 . S
C1042 C1043 1.372 . S
C1043 C1042 1.372 . S
C1043 C1044 1.400 . S
C1043 C1048 1.490 . S
C1044 H1034 0.930 . S
C1044 C1043 1.400 . S
C1044 C1047 1.386 . S
H1045 C1061 0.930 . S
H1046 C1062 0.931 . S
C1047 H1035 0.929 . S
C1047 C1041 1.390 . S
C1047 C1044 1.386 . S
C1048 C1043 1.490 . S
C1048 C1050 1.395 . S
C1048 C1051 1.403 . S
H1049 C1055 0.930 . S
C1050 H1036 0.930 . S
C1050 C1048 1.395 . S
C1050 C1053 1.403 . S
C1051 C1048 1.403 . S
C1051 C1052 1.524 . S
C1051 C1055 1.400 . S
C1052 H1037 0.960 . S
C1052 H1038 0.960 . S
C1052 H1039 0.960 . S
C1052 C1051 1.524 . S
C1053 C1050 1.403 . S
C1053 C1054 1.392 . S
C1053 C1057 1.495 . S
C1054 C1053 1.392 . S
C1054 C1055 1.385 . S
C1054 C1056 1.478 . S
C1055 H1049 0.930 . S
C1055 C1051 1.400 . S
C1055 C1054 1.385 . S
C1056 C1054 1.478 . S
C1056 C1058 1.381 . S
C1056 C1062 1.383 . S
C1057 C1053 1.495 . S
C1057 H1063 0.959 . S
C1057 H1064 0.961 . S
C1057 H1065 0.960 . S
C1058 C1056 1.381 . S
C1058 C1059 1.394 . S
C1058 H1066 0.930 . S
C1059 C1058 1.394 . S
C1059 C1060 1.383 . S
C1059 H1067 0.929 . S
C1060 C1059 1.383 . S
C1060 C1061 1.377 . S
C1061 H1045 0.930 . S
C1061 C1060 1.377 . S
C1061 C1062 1.379 . S
C1062 H1046 0.931 . S
C1062 C1056 1.383 . S
C1062 C1061 1.379 . S
H1063 C1057 0.959 . S
H1064 C1057 0.961 . S
H1065 C1057 0.960 . S
H1066 C1058 0.930 . S
H1067 C1059 0.929 . S
H1068 C1076 0.929 . S
H1069 C1078 0.930 . S
H1070 C1080 0.930 . S
H1071 C1083 0.929 . S
H1072 C1086 0.930 . S
H1073 C1088 0.960 . S
H1074 C1088 0.960 . S
H1075 C1088 0.960 . S
C1076 H1068 0.929 . S
C1076 C1077 1.377 . S
C1076 C1078 1.384 . S
C1077 C1076 1.377 . S
C1077 C1083 1.390 . S
C1078 H1069 0.930 . S
C1078 C1076 1.384 . S
C1078 C1079 1.372 . S
C1079 C1078 1.372 . S
C1079 C1080 1.400 . S
C1079 C1084 1.490 . S
C1080 H1070 0.930 . S
C1080 C1079 1.400 . S
C1080 C1083 1.386 . S
H1081 C1097 0.930 . S
H1082 C1098 0.931 . S
C1083 H1071 0.929 . S
C1083 C1077 1.390 . S
C1083 C1080 1.386 . S
C1084 C1079 1.490 . S
C1084 C1086 1.395 . S
C1084 C1087 1.403 . S
H1085 C1091 0.930 . S
C1086 H1072 0.930 . S
C1086 C1084 1.395 . S
C1086 C1089 1.403 . S
C1087 C1084 1.403 . S
C1087 C1088 1.524 . S
C1087 C1091 1.400 . S
C1088 H1073 0.960 . S
C1088 H1074 0.960 . S
C1088 H1075 0.960 . S
C1088 C1087 1.524 . S
C1089 C1086 1.403 . S
C1089 C1090 1.392 . S
C1089 C1093 1.495 . S
C1090 C1089 1.392 . S
C1090 C1091 1.385 . S
C1090 C1092 1.478 . S
C1091 H1085 0.930 . S
C1091 C1087 1.400 . S
C1091 C1090 1.385 . S
C1092 C1090 1.478 . S
C1092 C1094 1.381 . S
C1092 C1098 1.383 . S
C1093 C1089 1.495 . S
C1093 H1099 0.959 . S
C1093 H1100 0.961 . S
C1093 H1101 0.960 . S
C1094 C1092 1.381 . S
C1094 C1095 1.394 . S
C1094 H1102 0.930 . S
C1095 C1094 1.394 . S
C1095 C1096 1.383 . S
C1095 H1103 0.929 . S
C1096 C1095 1.383 . S
C1096 C1097 1.377 . S
C1097 H1081 0.930 . S
C1097 C1096 1.377 . S
C1097 C1098 1.379 . S
C1098 H1082 0.931 . S
C1098 C1092 1.383 . S
C1098 C1097 1.379 . S
H1099 C1093 0.959 . S
H1100 C1093 0.961 . S
H1101 C1093 0.960 . S
H1102 C1094 0.930 . S
H1103 C1095 0.929 . S
H1104 C1112 0.929 . S
H1105 C1114 0.930 . S
H1106 C1116 0.930 . S
H1107 C1119 0.929 . S
H1108 C1122 0.930 . S
H1109 C1124 0.960 . S
H1110 C1124 0.960 . S
H1111 C1124 0.960 . S
C1112 H1104 0.929 . S
C1112 C1113 1.377 . S
C1112 C1114 1.384 . S
C1113 C1112 1.377 . S
C1113 C1119 1.390 . S
C1114 H1105 0.930 . S
C1114 C1112 1.384 . S
C1114 C1115 1.372 . S
C1115 C1114 1.372 . S
C1115 C1116 1.400 . S
C1115 C1120 1.490 . S
C1116 H1106 0.930 . S
C1116 C1115 1.400 . S
C1116 C1119 1.386 . S
H1117 C1133 0.930 . S
H1118 C1134 0.931 . S
C1119 H1107 0.929 . S
C1119 C1113 1.390 . S
C1119 C1116 1.386 . S
C1120 C1115 1.490 . S
C1120 C1122 1.395 . S
C1120 C1123 1.403 . S
H1121 C1127 0.930 . S
C1122 H1108 0.930 . S
C1122 C1120 1.395 . S
C1122 C1125 1.403 . S
C1123 C1120 1.403 . S
C1123 C1124 1.524 . S
C1123 C1127 1.400 . S
C1124 H1109 0.960 . S
C1124 H1110 0.960 . S
C1124 H1111 0.960 . S
C1124 C1123 1.524 . S
C1125 C1122 1.403 . S
C1125 C1126 1.392 . S
C1125 C1129 1.495 . S
C1126 C1125 1.392 . S
C1126 C1127 1.385 . S
C1126 C1128 1.478 . S
C1127 H1121 0.930 . S
C1127 C1123 1.400 . S
C1127 C1126 1.385 . S
C1128 C1126 1.478 . S
C1128 C1130 1.381 . S
C1128 C1134 1.383 . S
C1129 C1125 1.495 . S
C1129 H1135 0.959 . S
C1129 H1136 0.961 . S
C1129 H1137 0.960 . S
C1130 C1128 1.381 . S
C1130 C1131 1.394 . S
C1130 H1138 0.930 . S
C1131 C1130 1.394 . S
C1131 C1132 1.383 . S
C1131 H1139 0.929 . S
C1132 C1131 1.383 . S
C1132 C1133 1.377 . S
C1133 H1117 0.930 . S
C1133 C1132 1.377 . S
C1133 C1134 1.379 . S
C1134 H1118 0.931 . S
C1134 C1128 1.383 . S
C1134 C1133 1.379 . S
H1135 C1129 0.959 . S
H1136 C1129 0.961 . S
H1137 C1129 0.960 . S
H1138 C1130 0.930 . S
H1139 C1131 0.929 . S
H1140 C1148 0.929 . S
H1141 C1150 0.930 . S
H1142 C1152 0.930 . S
H1143 C1155 0.929 . S
H1144 C1158 0.930 . S
H1145 C1160 0.960 . S
H1146 C1160 0.960 . S
H1147 C1160 0.960 . S
C1148 H1140 0.929 . S
C1148 C1149 1.377 . S
C1148 C1150 1.384 . S
C1149 C1148 1.377 . S
C1149 C1155 1.390 . S
C1150 H1141 0.930 . S
C1150 C1148 1.384 . S
C1150 C1151 1.372 . S
C1151 C1150 1.372 . S
C1151 C1152 1.400 . S
C1151 C1156 1.490 . S
C1152 H1142 0.930 . S
C1152 C1151 1.400 . S
C1152 C1155 1.386 . S
H1153 C1169 0.930 . S
H1154 C1170 0.931 . S
C1155 H1143 0.929 . S
C1155 C1149 1.390 . S
C1155 C1152 1.386 . S
C1156 C1151 1.490 . S
C1156 C1158 1.395 . S
C1156 C1159 1.403 . S
H1157 C1163 0.930 . S
C1158 H1144 0.930 . S
C1158 C1156 1.395 . S
C1158 C1161 1.403 . S
C1159 C1156 1.403 . S
C1159 C1160 1.524 . S
C1159 C1163 1.400 . S
C1160 H1145 0.960 . S
C1160 H1146 0.960 . S
C1160 H1147 0.960 . S
C1160 C1159 1.524 . S
C1161 C1158 1.403 . S
C1161 C1162 1.392 . S
C1161 C1165 1.495 . S
C1162 C1161 1.392 . S
C1162 C1163 1.385 . S
C1162 C1164 1.478 . S
C1163 H1157 0.930 . S
C1163 C1159 1.400 . S
C1163 C1162 1.385 . S
C1164 C1162 1.478 . S
C1164 C1166 1.381 . S
C1164 C1170 1.383 . S
C1165 C1161 1.495 . S
C1165 H1171 0.959 . S
C1165 H1172 0.961 . S
C1165 H1173 0.960 . S
C1166 C1164 1.381 . S
C1166 C1167 1.394 . S
C1166 H1174 0.930 . S
C1167 C1166 1.394 . S
C1167 C1168 1.383 . S
C1167 H1175 0.929 . S
C1168 C1167 1.383 . S
C1168 C1169 1.377 . S
C1169 H1153 0.930 . S
C1169 C1168 1.377 . S
C1169 C1170 1.379 . S
C1170 H1154 0.931 . S
C1170 C1164 1.383 . S
C1170 C1169 1.379 . S
H1171 C1165 0.959 . S
H1172 C1165 0.961 . S
H1173 C1165 0.960 . S
H1174 C1166 0.930 . S
H1175 C1167 0.929 . S
H1176 C1184 0.929 . S
H1177 C1186 0.930 . S
H1178 C1188 0.930 . S
H1179 C1191 0.929 . S
H1180 C1194 0.930 . S
H1181 C1196 0.960 . S
H1182 C1196 0.960 . S
H1183 C1196 0.960 . S
C1184 H1176 0.929 . S
C1184 C1185 1.377 . S
C1184 C1186 1.384 . S
C1185 C1184 1.377 . S
C1185 C1191 1.390 . S
C1186 H1177 0.930 . S
C1186 C1184 1.384 . S
C1186 C1187 1.372 . S
C1187 C1186 1.372 . S
C1187 C1188 1.400 . S
C1187 C1192 1.490 . S
C1188 H1178 0.930 . S
C1188 C1187 1.400 . S
C1188 C1191 1.386 . S
H1189 C1205 0.930 . S
H1190 C1206 0.931 . S
C1191 H1179 0.929 . S
C1191 C1185 1.390 . S
C1191 C1188 1.386 . S
C1192 C1187 1.490 . S
C1192 C1194 1.395 . S
C1192 C1195 1.403 . S
H1193 C1199 0.930 . S
C1194 H1180 0.930 . S
C1194 C1192 1.395 . S
C1194 C1197 1.403 . S
C1195 C1192 1.403 . S
C1195 C1196 1.524 . S
C1195 C1199 1.400 . S
C1196 H1181 0.960 . S
C1196 H1182 0.960 . S
C1196 H1183 0.960 . S
C1196 C1195 1.524 . S
C1197 C1194 1.403 . S
C1197 C1198 1.392 . S
C1197 C1201 1.495 . S
C1198 C1197 1.392 . S
C1198 C1199 1.385 . S
C1198 C1200 1.478 . S
C1199 H1193 0.930 . S
C1199 C1195 1.400 . S
C1199 C1198 1.385 . S
C1200 C1198 1.478 . S
C1200 C1202 1.381 . S
C1200 C1206 1.383 . S
C1201 C1197 1.495 . S
C1201 H1207 0.959 . S
C1201 H1208 0.961 . S
C1201 H1209 0.960 . S
C1202 C1200 1.381 . S
C1202 C1203 1.394 . S
C1202 H1210 0.930 . S
C1203 C1202 1.394 . S
C1203 C1204 1.383 . S
C1203 H1211 0.929 . S
C1204 C1203 1.383 . S
C1204 C1205 1.377 . S
C1205 H1189 0.930 . S
C1205 C1204 1.377 . S
C1205 C1206 1.379 . S
C1206 H1190 0.931 . S
C1206 C1200 1.383 . S
C1206 C1205 1.379 . S
H1207 C1201 0.959 . S
H1208 C1201 0.961 . S
H1209 C1201 0.960 . S
H1210 C1202 0.930 . S
H1211 C1203 0.929 . S
H1212 C1220 0.929 . S
H1213 C1222 0.930 . S
H1214 C1224 0.930 . S
H1215 C1227 0.929 . S
H1216 C1230 0.930 . S
H1217 C1232 0.960 . S
H1218 C1232 0.960 . S
H1219 C1232 0.960 . S
C1220 H1212 0.929 . S
C1220 C1221 1.377 . S
C1220 C1222 1.384 . S
C1221 C1220 1.377 . S
C1221 C1227 1.390 . S
C1222 H1213 0.930 . S
C1222 C1220 1.384 . S
C1222 C1223 1.372 . S
C1223 C1222 1.372 . S
C1223 C1224 1.400 . S
C1223 C1228 1.490 . S
C1224 H1214 0.930 . S
C1224 C1223 1.400 . S
C1224 C1227 1.386 . S
H1225 C1241 0.930 . S
H1226 C1242 0.931 . S
C1227 H1215 0.929 . S
C1227 C1221 1.390 . S
C1227 C1224 1.386 . S
C1228 C1223 1.490 . S
C1228 C1230 1.395 . S
C1228 C1231 1.403 . S
H1229 C1235 0.930 . S
C1230 H1216 0.930 . S
C1230 C1228 1.395 . S
C1230 C1233 1.403 . S
C1231 C1228 1.403 . S
C1231 C1232 1.524 . S
C1231 C1235 1.400 . S
C1232 H1217 0.960 . S
C1232 H1218 0.960 . S
C1232 H1219 0.960 . S
C1232 C1231 1.524 . S
C1233 C1230 1.403 . S
C1233 C1234 1.392 . S
C1233 C1237 1.495 . S
C1234 C1233 1.392 . S
C1234 C1235 1.385 . S
C1234 C1236 1.478 . S
C1235 H1229 0.930 . S
C1235 C1231 1.400 . S
C1235 C1234 1.385 . S
C1236 C1234 1.478 . S
C1236 C1238 1.381 . S
C1236 C1242 1.383 . S
C1237 C1233 1.495 . S
C1237 H1243 0.959 . S
C1237 H1244 0.961 . S
C1237 H1245 0.960 . S
C1238 C1236 1.381 . S
C1238 C1239 1.394 . S
C1238 H1246 0.930 . S
C1239 C1238 1.394 . S
C1239 C1240 1.383 . S
C1239 H1247 0.929 . S
C1240 C1239 1.383 . S
C1240 C1241 1.377 . S
C1241 H1225 0.930 . S
C1241 C1240 1.377 . S
C1241 C1242 1.379 . S
C1242 H1226 0.931 . S
C1242 C1236 1.383 . S
C1242 C1241 1.379 . S
H1243 C1237 0.959 . S
H1244 C1237 0.961 . S
H1245 C1237 0.960 . S
H1246 C1238 0.930 . S
H1247 C1239 0.929 . S
H1248 C1256 0.929 . S
H1249 C1258 0.930 . S
H1250 C1260 0.930 . S
H1251 C1263 0.929 . S
H1252 C1266 0.930 . S
H1253 C1268 0.960 . S
H1254 C1268 0.960 . S
H1255 C1268 0.960 . S
C1256 H1248 0.929 . S
C1256 C1257 1.377 . S
C1256 C1258 1.384 . S
C1257 C1256 1.377 . S
C1257 C1263 1.390 . S
C1258 H1249 0.930 . S
C1258 C1256 1.384 . S
C1258 C1259 1.372 . S
C1259 C1258 1.372 . S
C1259 C1260 1.400 . S
C1259 C1264 1.490 . S
C1260 H1250 0.930 . S
C1260 C1259 1.400 . S
C1260 C1263 1.386 . S
H1261 C1277 0.930 . S
H1262 C1278 0.931 . S
C1263 H1251 0.929 . S
C1263 C1257 1.390 . S
C1263 C1260 1.386 . S
C1264 C1259 1.490 . S
C1264 C1266 1.395 . S
C1264 C1267 1.403 . S
H1265 C1271 0.930 . S
C1266 H1252 0.930 . S
C1266 C1264 1.395 . S
C1266 C1269 1.403 . S
C1267 C1264 1.403 . S
C1267 C1268 1.524 . S
C1267 C1271 1.400 . S
C1268 H1253 0.960 . S
C1268 H1254 0.960 . S
C1268 H1255 0.960 . S
C1268 C1267 1.524 . S
C1269 C1266 1.403 . S
C1269 C1270 1.392 . S
C1269 C1273 1.495 . S
C1270 C1269 1.392 . S
C1270 C1271 1.385 . S
C1270 C1272 1.478 . S
C1271 H1265 0.930 . S
C1271 C1267 1.400 . S
C1271 C1270 1.385 . S
C1272 C1270 1.478 . S
C1272 C1274 1.381 . S
C1272 C1278 1.383 . S
C1273 C1269 1.495 . S
C1273 H1279 0.959 . S
C1273 H1280 0.961 . S
C1273 H1281 0.960 . S
C1274 C1272 1.381 . S
C1274 C1275 1.394 . S
C1274 H1282 0.930 . S
C1275 C1274 1.394 . S
C1275 C1276 1.383 . S
C1275 H1283 0.929 . S
C1276 C1275 1.383 . S
C1276 C1277 1.377 . S
C1277 H1261 0.930 . S
C1277 C1276 1.377 . S
C1277 C1278 1.379 . S
C1278 H1262 0.931 . S
C1278 C1272 1.383 . S
C1278 C1277 1.379 . S
H1279 C1273 0.959 . S
H1280 C1273 0.961 . S
H1281 C1273 0.960 . S
H1282 C1274 0.930 . S
H1283 C1275 0.929 . S
H1284 C1292 0.929 . S
H1285 C1294 0.930 . S
H1286 C1296 0.930 . S
H1287 C1299 0.929 . S
H1288 C1302 0.930 . S
H1289 C1304 0.960 . S
H1290 C1304 0.960 . S
H1291 C1304 0.960 . S
C1292 H1284 0.929 . S
C1292 C1293 1.377 . S
C1292 C1294 1.384 . S
C1293 C1292 1.377 . S
C1293 C1299 1.390 . S
C1294 H1285 0.930 . S
C1294 C1292 1.384 . S
C1294 C1295 1.372 . S
C1295 C1294 1.372 . S
C1295 C1296 1.400 . S
C1295 C1300 1.490 . S
C1296 H1286 0.930 . S
C1296 C1295 1.400 . S
C1296 C1299 1.386 . S
H1297 C1313 0.930 . S
H1298 C1314 0.931 . S
C1299 H1287 0.929 . S
C1299 C1293 1.390 . S
C1299 C1296 1.386 . S
C1300 C1295 1.490 . S
C1300 C1302 1.395 . S
C1300 C1303 1.403 . S
H1301 C1307 0.930 . S
C1302 H1288 0.930 . S
C1302 C1300 1.395 . S
C1302 C1305 1.403 . S
C1303 C1300 1.403 . S
C1303 C1304 1.524 . S
C1303 C1307 1.400 . S
C1304 H1289 0.960 . S
C1304 H1290 0.960 . S
C1304 H1291 0.960 . S
C1304 C1303 1.524 . S
C1305 C1302 1.403 . S
C1305 C1306 1.392 . S
C1305 C1309 1.495 . S
C1306 C1305 1.392 . S
C1306 C1307 1.385 . S
C1306 C1308 1.478 . S
C1307 H1301 0.930 . S
C1307 C1303 1.400 . S
C1307 C1306 1.385 . S
C1308 C1306 1.478 . S
C1308 C1310 1.381 . S
C1308 C1314 1.383 . S
C1309 C1305 1.495 . S
C1309 H1315 0.959 . S
C1309 H1316 0.961 . S
C1309 H1317 0.960 . S
C1310 C1308 1.381 . S
C1310 C1311 1.394 . S
C1310 H1318 0.930 . S
C1311 C1310 1.394 . S
C1311 C1312 1.383 . S
C1311 H1319 0.929 . S
C1312 C1311 1.383 . S
C1312 C1313 1.377 . S
C1313 H1297 0.930 . S
C1313 C1312 1.377 . S
C1313 C1314 1.379 . S
C1314 H1298 0.931 . S
C1314 C1308 1.383 . S
C1314 C1313 1.379 . S
H1315 C1309 0.959 . S
H1316 C1309 0.961 . S
H1317 C1309 0.960 . S
H1318 C1310 0.930 . S
H1319 C1311 0.929 . S
H1320 C1328 0.929 . S
H1321 C1330 0.930 . S
H1322 C1332 0.930 . S
H1323 C1335 0.929 . S
H1324 C1338 0.930 . S
H1325 C1340 0.960 . S
H1326 C1340 0.960 . S
H1327 C1340 0.960 . S
C1328 H1320 0.929 . S
C1328 C1329 1.377 . S
C1328 C1330 1.384 . S
C1329 C1328 1.377 . S
C1329 C1335 1.390 . S
C1330 H1321 0.930 . S
C1330 C1328 1.384 . S
C1330 C1331 1.372 . S
C1331 C1330 1.372 . S
C1331 C1332 1.400 . S
C1331 C1336 1.490 . S
C1332 H1322 0.930 . S
C1332 C1331 1.400 . S
C1332 C1335 1.386 . S
H1333 C1349 0.930 . S
H1334 C1350 0.931 . S
C1335 H1323 0.929 . S
C1335 C1329 1.390 . S
C1335 C1332 1.386 . S
C1336 C1331 1.490 . S
C1336 C1338 1.395 . S
C1336 C1339 1.403 . S
H1337 C1343 0.930 . S
C1338 H1324 0.930 . S
C1338 C1336 1.395 . S
C1338 C1341 1.403 . S
C1339 C1336 1.403 . S
C1339 C1340 1.524 . S
C1339 C1343 1.400 . S
C1340 H1325 0.960 . S
C1340 H1326 0.960 . S
C1340 H1327 0.960 . S
C1340 C1339 1.524 . S
C1341 C1338 1.403 . S
C1341 C1342 1.392 . S
C1341 C1345 1.495 . S
C1342 C1341 1.392 . S
C1342 C1343 1.385 . S
C1342 C1344 1.478 . S
C1343 H1337 0.930 . S
C1343 C1339 1.400 . S
C1343 C1342 1.385 . S
C1344 C1342 1.478 . S
C1344 C1346 1.381 . S
C1344 C1350 1.383 . S
C1345 C1341 1.495 . S
C1345 H1351 0.959 . S
C1345 H1352 0.961 . S
C1345 H1353 0.960 . S
C1346 C1344 1.381 . S
C1346 C1347 1.394 . S
C1346 H1354 0.930 . S
C1347 C1346 1.394 . S
C1347 C1348 1.383 . S
C1347 H1355 0.929 . S
C1348 C1347 1.383 . S
C1348 C1349 1.377 . S
C1349 H1333 0.930 . S
C1349 C1348 1.377 . S
C1349 C1350 1.379 . S
C1350 H1334 0.931 . S
C1350 C1344 1.383 . S
C1350 C1349 1.379 . S
H1351 C1345 0.959 . S
H1352 C1345 0.961 . S
H1353 C1345 0.960 . S
H1354 C1346 0.930 . S
H1355 C1347 0.929 . S
H1356 C1364 0.929 . S
H1357 C1366 0.930 . S
H1358 C1368 0.930 . S
H1359 C1371 0.929 . S
H1360 C1374 0.930 . S
H1361 C1376 0.960 . S
H1362 C1376 0.960 . S
H1363 C1376 0.960 . S
C1364 H1356 0.929 . S
C1364 C1365 1.377 . S
C1364 C1366 1.384 . S
C1365 C1364 1.377 . S
C1365 C1371 1.390 . S
C1366 H1357 0.930 . S
C1366 C1364 1.384 . S
C1366 C1367 1.372 . S
C1367 C1366 1.372 . S
C1367 C1368 1.400 . S
C1367 C1372 1.490 . S
C1368 H1358 0.930 . S
C1368 C1367 1.400 . S
C1368 C1371 1.386 . S
H1369 C1385 0.930 . S
H1370 C1386 0.931 . S
C1371 H1359 0.929 . S
C1371 C1365 1.390 . S
C1371 C1368 1.386 . S
C1372 C1367 1.490 . S
C1372 C1374 1.395 . S
C1372 C1375 1.403 . S
H1373 C1379 0.930 . S
C1374 H1360 0.930 . S
C1374 C1372 1.395 . S
C1374 C1377 1.403 . S
C1375 C1372 1.403 . S
C1375 C1376 1.524 . S
C1375 C1379 1.400 . S
C1376 H1361 0.960 . S
C1376 H1362 0.960 . S
C1376 H1363 0.960 . S
C1376 C1375 1.524 . S
C1377 C1374 1.403 . S
C1377 C1378 1.392 . S
C1377 C1381 1.495 . S
C1378 C1377 1.392 . S
C1378 C1379 1.385 . S
C1378 C1380 1.478 . S
C1379 H1373 0.930 . S
C1379 C1375 1.400 . S
C1379 C1378 1.385 . S
C1380 C1378 1.478 . S
C1380 C1382 1.381 . S
C1380 C1386 1.383 . S
C1381 C1377 1.495 . S
C1381 H1387 0.959 . S
C1381 H1388 0.961 . S
C1381 H1389 0.960 . S
C1382 C1380 1.381 . S
C1382 C1383 1.394 . S
C1382 H1390 0.930 . S
C1383 C1382 1.394 . S
C1383 C1384 1.383 . S
C1383 H1391 0.929 . S
C1384 C1383 1.383 . S
C1384 C1385 1.377 . S
C1385 H1369 0.930 . S
C1385 C1384 1.377 . S
C1385 C1386 1.379 . S
C1386 H1370 0.931 . S
C1386 C1380 1.383 . S
C1386 C1385 1.379 . S
H1387 C1381 0.959 . S
H1388 C1381 0.961 . S
H1389 C1381 0.960 . S
H1390 C1382 0.930 . S
H1391 C1383 0.929 . S
H1392 C1400 0.929 . S
H1393 C1402 0.930 . S
H1394 C1404 0.930 . S
H1395 C1407 0.929 . S
H1396 C1410 0.930 . S
H1397 C1412 0.960 . S
H1398 C1412 0.960 . S
H1399 C1412 0.960 . S
C1400 H1392 0.929 . S
C1400 C1401 1.377 . S
C1400 C1402 1.384 . S
C1401 C1400 1.377 . S
C1401 C1407 1.390 . S
C1402 H1393 0.930 . S
C1402 C1400 1.384 . S
C1402 C1403 1.372 . S
C1403 C1402 1.372 . S
C1403 C1404 1.400 . S
C1403 C1408 1.490 . S
C1404 H1394 0.930 . S
C1404 C1403 1.400 . S
C1404 C1407 1.386 . S
H1405 C1421 0.930 . S
H1406 C1422 0.931 . S
C1407 H1395 0.929 . S
C1407 C1401 1.390 . S
C1407 C1404 1.386 . S
C1408 C1403 1.490 . S
C1408 C1410 1.395 . S
C1408 C1411 1.403 . S
H1409 C1415 0.930 . S
C1410 H1396 0.930 . S
C1410 C1408 1.395 . S
C1410 C1413 1.403 . S
C1411 C1408 1.403 . S
C1411 C1412 1.524 . S
C1411 C1415 1.400 . S
C1412 H1397 0.960 . S
C1412 H1398 0.960 . S
C1412 H1399 0.960 . S
C1412 C1411 1.524 . S
C1413 C1410 1.403 . S
C1413 C1414 1.392 . S
C1413 C1417 1.495 . S
C1414 C1413 1.392 . S
C1414 C1415 1.385 . S
C1414 C1416 1.478 . S
C1415 H1409 0.930 . S
C1415 C1411 1.400 . S
C1415 C1414 1.385 . S
C1416 C1414 1.478 . S
C1416 C1418 1.381 . S
C1416 C1422 1.383 . S
C1417 C1413 1.495 . S
C1417 H1423 0.959 . S
C1417 H1424 0.961 . S
C1417 H1425 0.960 . S
C1418 C1416 1.381 . S
C1418 C1419 1.394 . S
C1418 H1426 0.930 . S
C1419 C1418 1.394 . S
C1419 C1420 1.383 . S
C1419 H1427 0.929 . S
C1420 C1419 1.383 . S
C1420 C1421 1.377 . S
C1421 H1405 0.930 . S
C1421 C1420 1.377 . S
C1421 C1422 1.379 . S
C1422 H1406 0.931 . S
C1422 C1416 1.383 . S
C1422 C1421 1.379 . S
H1423 C1417 0.959 . S
H1424 C1417 0.961 . S
H1425 C1417 0.960 . S
H1426 C1418 0.930 . S
H1427 C1419 0.929 . S
H1428 C1436 0.929 . S
H1429 C1438 0.930 . S
H1430 C1440 0.930 . S
H1431 C1443 0.929 . S
H1432 C1446 0.930 . S
H1433 C1448 0.960 . S
H1434 C1448 0.960 . S
H1435 C1448 0.960 . S
C1436 H1428 0.929 . S
C1436 C1437 1.377 . S
C1436 C1438 1.384 . S
C1437 C1436 1.377 . S
C1437 C1443 1.390 . S
C1438 H1429 0.930 . S
C1438 C1436 1.384 . S
C1438 C1439 1.372 . S
C1439 C1438 1.372 . S
C1439 C1440 1.400 . S
C1439 C1444 1.490 . S
C1440 H1430 0.930 . S
C1440 C1439 1.400 . S
C1440 C1443 1.386 . S
H1441 C1457 0.930 . S
H1442 C1458 0.931 . S
C1443 H1431 0.929 . S
C1443 C1437 1.390 . S
C1443 C1440 1.386 . S
C1444 C1439 1.490 . S
C1444 C1446 1.395 . S
C1444 C1447 1.403 . S
H1445 C1451 0.930 . S
C1446 H1432 0.930 . S
C1446 C1444 1.395 . S
C1446 C1449 1.403 . S
C1447 C1444 1.403 . S
C1447 C1448 1.524 . S
C1447 C1451 1.400 . S
C1448 H1433 0.960 . S
C1448 H1434 0.960 . S
C1448 H1435 0.960 . S
C1448 C1447 1.524 . S
C1449 C1446 1.403 . S
C1449 C1450 1.392 . S
C1449 C1453 1.495 . S
C1450 C1449 1.392 . S
C1450 C1451 1.385 . S
C1450 C1452 1.478 . S
C1451 H1445 0.930 . S
C1451 C1447 1.400 . S
C1451 C1450 1.385 . S
C1452 C1450 1.478 . S
C1452 C1454 1.381 . S
C1452 C1458 1.383 . S
C1453 C1449 1.495 . S
C1453 H1459 0.959 . S
C1453 H1460 0.961 . S
C1453 H1461 0.960 . S
C1454 C1452 1.381 . S
C1454 C1455 1.394 . S
C1454 H1462 0.930 . S
C1455 C1454 1.394 . S
C1455 C1456 1.383 . S
C1455 H1463 0.929 . S
C1456 C1455 1.383 . S
C1456 C1457 1.377 . S
C1457 H1441 0.930 . S
C1457 C1456 1.377 . S
C1457 C1458 1.379 . S
C1458 H1442 0.931 . S
C1458 C1452 1.383 . S
C1458 C1457 1.379 . S
H1459 C1453 0.959 . S
H1460 C1453 0.961 . S
H1461 C1453 0.960 . S
H1462 C1454 0.930 . S
H1463 C1455 0.929 . S
H1464 C1472 0.929 . S
H1465 C1474 0.930 . S
H1466 C1476 0.930 . S
H1467 C1479 0.929 . S
H1468 C1482 0.930 . S
H1469 C1484 0.960 . S
H1470 C1484 0.960 . S
H1471 C1484 0.960 . S
C1472 H1464 0.929 . S
C1472 C1473 1.377 . S
C1472 C1474 1.384 . S
C1473 C1472 1.377 . S
C1473 C1479 1.390 . S
C1474 H1465 0.930 . S
C1474 C1472 1.384 . S
C1474 C1475 1.372 . S
C1475 C1474 1.372 . S
C1475 C1476 1.400 . S
C1475 C1480 1.490 . S
C1476 H1466 0.930 . S
C1476 C1475 1.400 . S
C1476 C1479 1.386 . S
H1477 C1493 0.930 . S
H1478 C1494 0.931 . S
C1479 H1467 0.929 . S
C1479 C1473 1.390 . S
C1479 C1476 1.386 . S
C1480 C1475 1.490 . S
C1480 C1482 1.395 . S
C1480 C1483 1.403 . S
H1481 C1487 0.930 . S
C1482 H1468 0.930 . S
C1482 C1480 1.395 . S
C1482 C1485 1.403 . S
C1483 C1480 1.403 . S
C1483 C1484 1.524 . S
C1483 C1487 1.400 . S
C1484 H1469 0.960 . S
C1484 H1470 0.960 . S
C1484 H1471 0.960 . S
C1484 C1483 1.524 . S
C1485 C1482 1.403 . S
C1485 C1486 1.392 . S
C1485 C1489 1.495 . S
C1486 C1485 1.392 . S
C1486 C1487 1.385 . S
C1486 C1488 1.478 . S
C1487 H1481 0.930 . S
C1487 C1483 1.400 . S
C1487 C1486 1.385 . S
C1488 C1486 1.478 . S
C1488 C1490 1.381 . S
C1488 C1494 1.383 . S
C1489 C1485 1.495 . S
C1489 H1495 0.959 . S
C1489 H1496 0.961 . S
C1489 H1497 0.960 . S
C1490 C1488 1.381 . S
C1490 C1491 1.394 . S
C1490 H1498 0.930 . S
C1491 C1490 1.394 . S
C1491 C1492 1.383 . S
C1491 H1499 0.929 . S
C1492 C1491 1.383 . S
C1492 C1493 1.377 . S
C1493 H1477 0.930 . S
C1493 C1492 1.377 . S
C1493 C1494 1.379 . S
C1494 H1478 0.931 . S
C1494 C1488 1.383 . S
C1494 C1493 1.379 . S
H1495 C1489 0.959 . S
H1496 C1489 0.961 . S
H1497 C1489 0.960 . S
H1498 C1490 0.930 . S
H1499 C1491 0.929 . S
H1500 C1508 0.929 . S
H1501 C1510 0.930 . S
H1502 C1512 0.930 . S
H1503 C1515 0.929 . S
H1504 C1518 0.930 . S
H1505 C1520 0.960 . S
H1506 C1520 0.960 . S
H1507 C1520 0.960 . S
C1508 H1500 0.929 . S
C1508 C1509 1.377 . S
C1508 C1510 1.384 . S
C1509 C1508 1.377 . S
C1509 C1515 1.390 . S
C1510 H1501 0.930 . S
C1510 C1508 1.384 . S
C1510 C1511 1.372 . S
C1511 C1510 1.372 . S
C1511 C1512 1.400 . S
C1511 C1516 1.490 . S
C1512 H1502 0.930 . S
C1512 C1511 1.400 . S
C1512 C1515 1.386 . S
H1513 C1529 0.930 . S
H1514 C1530 0.931 . S
C1515 H1503 0.929 . S
C1515 C1509 1.390 . S
C1515 C1512 1.386 . S
C1516 C1511 1.490 . S
C1516 C1518 1.395 . S
C1516 C1519 1.403 . S
H1517 C1523 0.930 . S
C1518 H1504 0.930 . S
C1518 C1516 1.395 . S
C1518 C1521 1.403 . S
C1519 C1516 1.403 . S
C1519 C1520 1.524 . S
C1519 C1523 1.400 . S
C1520 H1505 0.960 . S
C1520 H1506 0.960 . S
C1520 H1507 0.960 . S
C1520 C1519 1.524 . S
C1521 C1518 1.403 . S
C1521 C1522 1.392 . S
C1521 C1525 1.495 . S
C1522 C1521 1.392 . S
C1522 C1523 1.385 . S
C1522 C1524 1.478 . S
C1523 H1517 0.930 . S
C1523 C1519 1.400 . S
C1523 C1522 1.385 . S
C1524 C1522 1.478 . S
C1524 C1526 1.381 . S
C1524 C1530 1.383 . S
C1525 C1521 1.495 . S
C1525 H1531 0.959 . S
C1525 H1532 0.961 . S
C1525 H1533 0.960 . S
C1526 C1524 1.381 . S
C1526 C1527 1.394 . S
C1526 H1534 0.930 . S
C1527 C1526 1.394 . S
C1527 C1528 1.383 . S
C1527 H1535 0.929 . S
C1528 C1527 1.383 . S
C1528 C1529 1.377 . S
C1529 H1513 0.930 . S
C1529 C1528 1.377 . S
C1529 C1530 1.379 . S
C1530 H1514 0.931 . S
C1530 C1524 1.383 . S
C1530 C1529 1.379 . S
H1531 C1525 0.959 . S
H1532 C1525 0.961 . S
H1533 C1525 0.960 . S
H1534 C1526 0.930 . S
H1535 C1527 0.929 . S
H1536 C1544 0.929 . S
H1537 C1546 0.930 . S
H1538 C1548 0.930 . S
H1539 C1551 0.929 . S
H1540 C1554 0.930 . S
H1541 C1556 0.960 . S
H1542 C1556 0.960 . S
H1543 C1556 0.960 . S
C1544 H1536 0.929 . S
C1544 C1545 1.377 . S
C1544 C1546 1.384 . S
C1545 C1544 1.377 . S
C1545 C1551 1.390 . S
C1546 H1537 0.930 . S
C1546 C1544 1.384 . S
C1546 C1547 1.372 . S
C1547 C1546 1.372 . S
C1547 C1548 1.400 . S
C1547 C1552 1.490 . S
C1548 H1538 0.930 . S
C1548 C1547 1.400 . S
C1548 C1551 1.386 . S
H1549 C1565 0.930 . S
H1550 C1566 0.931 . S
C1551 H1539 0.929 . S
C1551 C1545 1.390 . S
C1551 C1548 1.386 . S
C1552 C1547 1.490 . S
C1552 C1554 1.395 . S
C1552 C1555 1.403 . S
H1553 C1559 0.930 . S
C1554 H1540 0.930 . S
C1554 C1552 1.395 . S
C1554 C1557 1.403 . S
C1555 C1552 1.403 . S
C1555 C1556 1.524 . S
C1555 C1559 1.400 . S
C1556 H1541 0.960 . S
C1556 H1542 0.960 . S
C1556 H1543 0.960 . S
C1556 C1555 1.524 . S
C1557 C1554 1.403 . S
C1557 C1558 1.392 . S
C1557 C1561 1.495 . S
C1558 C1557 1.392 . S
C1558 C1559 1.385 . S
C1558 C1560 1.478 . S
C1559 H1553 0.930 . S
C1559 C1555 1.400 . S
C1559 C1558 1.385 . S
C1560 C1558 1.478 . S
C1560 C1562 1.381 . S
C1560 C1566 1.383 . S
C1561 C1557 1.495 . S
C1561 H1567 0.959 . S
C1561 H1568 0.961 . S
C1561 H1569 0.960 . S
C1562 C1560 1.381 . S
C1562 C1563 1.394 . S
C1562 H1570 0.930 . S
C1563 C1562 1.394 . S
C1563 C1564 1.383 . S
C1563 H1571 0.929 . S
C1564 C1563 1.383 . S
C1564 C1565 1.377 . S
C1565 H1549 0.930 . S
C1565 C1564 1.377 . S
C1565 C1566 1.379 . S
C1566 H1550 0.931 . S
C1566 C1560 1.383 . S
C1566 C1565 1.379 . S
H1567 C1561 0.959 . S
H1568 C1561 0.961 . S
H1569 C1561 0.960 . S
H1570 C1562 0.930 . S
H1571 C1563 0.929 . S
H1572 C1580 0.929 . S
H1573 C1582 0.930 . S
H1574 C1584 0.930 . S
H1575 C1587 0.929 . S
H1576 C1590 0.930 . S
H1577 C1592 0.960 . S
H1578 C1592 0.960 . S
H1579 C1592 0.960 . S
C1580 H1572 0.929 . S
C1580 C1581 1.377 . S
C1580 C1582 1.384 . S
C1581 C1580 1.377 . S
C1581 C1587 1.390 . S
C1582 H1573 0.930 . S
C1582 C1580 1.384 . S
C1582 C1583 1.372 . S
C1583 C1582 1.372 . S
C1583 C1584 1.400 . S
C1583 C1588 1.490 . S
C1584 H1574 0.930 . S
C1584 C1583 1.400 . S
C1584 C1587 1.386 . S
H1585 C1601 0.930 . S
H1586 C1602 0.931 . S
C1587 H1575 0.929 . S
C1587 C1581 1.390 . S
C1587 C1584 1.386 . S
C1588 C1583 1.490 . S
C1588 C1590 1.395 . S
C1588 C1591 1.403 . S
H1589 C1595 0.930 . S
C1590 H1576 0.930 . S
C1590 C1588 1.395 . S
C1590 C1593 1.403 . S
C1591 C1588 1.403 . S
C1591 C1592 1.524 . S
C1591 C1595 1.400 . S
C1592 H1577 0.960 . S
C1592 H1578 0.960 . S
C1592 H1579 0.960 . S
C1592 C1591 1.524 . S
C1593 C1590 1.403 . S
C1593 C1594 1.392 . S
C1593 C1597 1.495 . S
C1594 C1593 1.392 . S
C1594 C1595 1.385 . S
C1594 C1596 1.478 . S
C1595 H1589 0.930 . S
C1595 C1591 1.400 . S
C1595 C1594 1.385 . S
C1596 C1594 1.478 . S
C1596 C1598 1.381 . S
C1596 C1602 1.383 . S
C1597 C1593 1.495 . S
C1597 H1603 0.959 . S
C1597 H1604 0.961 . S
C1597 H1605 0.960 . S
C1598 C1596 1.381 . S
C1598 C1599 1.394 . S
C1598 H1606 0.930 . S
C1599 C1598 1.394 . S
C1599 C1600 1.383 . S
C1599 H1607 0.929 . S
C1600 C1599 1.383 . S
C1600 C1601 1.377 . S
C1601 H1585 0.930 . S
C1601 C1600 1.377 . S
C1601 C1602 1.379 . S
C1602 H1586 0.931 . S
C1602 C1596 1.383 . S
C1602 C1601 1.379 . S
H1603 C1597 0.959 . S
H1604 C1597 0.961 . S
H1605 C1597 0.960 . S
H1606 C1598 0.930 . S
H1607 C1599 0.929 . S
H1608 C1616 0.929 . S
H1609 C1618 0.930 . S
H1610 C1620 0.930 . S
H1611 C1623 0.929 . S
H1612 C1626 0.930 . S
H1613 C1628 0.960 . S
H1614 C1628 0.960 . S
H1615 C1628 0.960 . S
C1616 H1608 0.929 . S
C1616 C1617 1.377 . S
C1616 C1618 1.384 . S
C1617 C1616 1.377 . S
C1617 C1623 1.390 . S
C1618 H1609 0.930 . S
C1618 C1616 1.384 . S
C1618 C1619 1.372 . S
C1619 C1618 1.372 . S
C1619 C1620 1.400 . S
C1619 C1624 1.490 . S
C1620 H1610 0.930 . S
C1620 C1619 1.400 . S
C1620 C1623 1.386 . S
H1621 C1637 0.930 . S
H1622 C1638 0.931 . S
C1623 H1611 0.929 . S
C1623 C1617 1.390 . S
C1623 C1620 1.386 . S
C1624 C1619 1.490 . S
C1624 C1626 1.395 . S
C1624 C1627 1.403 . S
H1625 C1631 0.930 . S
C1626 H1612 0.930 . S
C1626 C1624 1.395 . S
C1626 C1629 1.403 . S
C1627 C1624 1.403 . S
C1627 C1628 1.524 . S
C1627 C1631 1.400 . S
C1628 H1613 0.960 . S
C1628 H1614 0.960 . S
C1628 H1615 0.960 . S
C1628 C1627 1.524 . S
C1629 C1626 1.403 . S
C1629 C1630 1.392 . S
C1629 C1633 1.495 . S
C1630 C1629 1.392 . S
C1630 C1631 1.385 . S
C1630 C1632 1.478 . S
C1631 H1625 0.930 . S
C1631 C1627 1.400 . S
C1631 C1630 1.385 . S
C1632 C1630 1.478 . S
C1632 C1634 1.381 . S
C1632 C1638 1.383 . S
C1633 C1629 1.495 . S
C1633 H1639 0.959 . S
C1633 H1640 0.961 . S
C1633 H1641 0.960 . S
C1634 C1632 1.381 . S
C1634 C1635 1.394 . S
C1634 H1642 0.930 . S
C1635 C1634 1.394 . S
C1635 C1636 1.383 . S
C1635 H1643 0.929 . S
C1636 C1635 1.383 . S
C1636 C1637 1.377 . S
C1637 H1621 0.930 . S
C1637 C1636 1.377 . S
C1637 C1638 1.379 . S
C1638 H1622 0.931 . S
C1638 C1632 1.383 . S
C1638 C1637 1.379 . S
H1639 C1633 0.959 . S
H1640 C1633 0.961 . S
H1641 C1633 0.960 . S
H1642 C1634 0.930 . S
H1643 C1635 0.929 . S
H1644 C1652 0.929 . S
H1645 C1654 0.930 . S
H1646 C1656 0.930 . S
H1647 C1659 0.929 . S
H1648 C1662 0.930 . S
H1649 C1664 0.960 . S
H1650 C1664 0.960 . S
H1651 C1664 0.960 . S
C1652 H1644 0.929 . S
C1652 C1653 1.377 . S
C1652 C1654 1.384 . S
C1653 C1652 1.377 . S
C1653 C1659 1.390 . S
C1654 H1645 0.930 . S
C1654 C1652 1.384 . S
C1654 C1655 1.372 . S
C1655 C1654 1.372 . S
C1655 C1656 1.400 . S
C1655 C1660 1.490 . S
C1656 H1646 0.930 . S
C1656 C1655 1.400 . S
C1656 C1659 1.386 . S
H1657 C1673 0.930 . S
H1658 C1674 0.931 . S
C1659 H1647 0.929 . S
C1659 C1653 1.390 . S
C1659 C1656 1.386 . S
C1660 C1655 1.490 . S
C1660 C1662 1.395 . S
C1660 C1663 1.403 . S
H1661 C1667 0.930 . S
C1662 H1648 0.930 . S
C1662 C1660 1.395 . S
C1662 C1665 1.403 . S
C1663 C1660 1.403 . S
C1663 C1664 1.524 . S
C1663 C1667 1.400 . S
C1664 H1649 0.960 . S
C1664 H1650 0.960 . S
C1664 H1651 0.960 . S
C1664 C1663 1.524 . S
C1665 C1662 1.403 . S
C1665 C1666 1.392 . S
C1665 C1669 1.495 . S
C1666 C1665 1.392 . S
C1666 C1667 1.385 . S
C1666 C1668 1.478 . S
C1667 H1661 0.930 . S
C1667 C1663 1.400 . S
C1667 C1666 1.385 . S
C1668 C1666 1.478 . S
C1668 C1670 1.381 . S
C1668 C1674 1.383 . S
C1669 C1665 1.495 . S
C1669 H1675 0.959 . S
C1669 H1676 0.961 . S
C1669 H1677 0.960 . S
C1670 C1668 1.381 . S
C1670 C1671 1.394 . S
C1670 H1678 0.930 . S
C1671 C1670 1.394 . S
C1671 C1672 1.383 . S
C1671 H1679 0.929 . S
C1672 C1671 1.383 . S
C1672 C1673 1.377 . S
C1673 H1657 0.930 . S
C1673 C1672 1.377 . S
C1673 C1674 1.379 . S
C1674 H1658 0.931 . S
C1674 C1668 1.383 . S
C1674 C1673 1.379 . S
H1675 C1669 0.959 . S
H1676 C1669 0.961 . S
H1677 C1669 0.960 . S
H1678 C1670 0.930 . S
H1679 C1671 0.929 . S
H1680 C1688 0.929 . S
H1681 C1690 0.930 . S
H1682 C1692 0.930 . S
H1683 C1695 0.929 . S
H1684 C1698 0.930 . S
H1685 C1700 0.960 . S
H1686 C1700 0.960 . S
H1687 C1700 0.960 1_655 S
C1688 H1680 0.929 . S
C1688 C1689 1.377 . S
C1688 C1690 1.384 . S
C1689 C1688 1.377 . S
C1689 C1695 1.390 1_455 S
C1690 H1681 0.930 . S
C1690 C1688 1.384 . S
C1690 C1691 1.372 . S
C1691 C1690 1.372 . S
C1691 C1692 1.400 1_455 S
C1691 C1696 1.490 . S
C1692 H1682 0.930 . S
C1692 C1691 1.400 1_655 S
C1692 C1695 1.386 . S
H1693 C1709 0.930 . S
H1694 C1710 0.931 . S
C1695 H1683 0.929 . S
C1695 C1689 1.390 1_655 S
C1695 C1692 1.386 . S
C1696 C1691 1.490 . S
C1696 C1698 1.395 . S
C1696 C1699 1.403 . S
H1697 C1703 0.930 . S
C1698 H1684 0.930 . S
C1698 C1696 1.395 . S
C1698 C1701 1.408 . S
C1699 C1696 1.403 . S
C1699 C1700 1.524 . S
C1699 C1703 1.400 1_455 S
C1700 H1685 0.960 . S
C1700 H1686 0.960 . S
C1700 H1687 0.960 1_455 S
C1700 C1699 1.524 . S
C1701 C1698 1.408 . S
C1701 C1702 1.390 1_455 S
C1701 C1705 1.495 . S
C1702 C1701 1.390 1_655 S
C1702 C1703 1.385 . S
C1702 C1704 1.478 . S
C1703 H1697 0.930 . S
C1703 C1699 1.400 1_655 S
C1703 C1702 1.385 . S
C1704 C1702 1.478 . S
C1704 C1706 1.381 1_655 S
C1704 C1710 1.383 . S
C1705 C1701 1.495 . S
C1705 H1711 0.959 . S
C1705 H1712 0.960 1_455 S
C1705 H1713 0.961 . S
C1706 C1704 1.381 1_455 S
C1706 C1707 1.394 . S
C1706 H1714 0.930 . S
C1707 C1706 1.394 . S
C1707 C1708 1.383 1_455 S
C1707 H1715 0.929 . S
C1708 C1707 1.383 1_655 S
C1708 C1709 1.377 . S
C1709 H1693 0.930 . S
C1709 C1708 1.377 . S
C1709 C1710 1.379 . S
C1710 H1694 0.931 . S
C1710 C1704 1.383 . S
C1710 C1709 1.379 . S
H1711 C1705 0.959 . S
H1712 C1705 0.960 1_655 S
H1713 C1705 0.961 . S
H1714 C1706 0.930 . S
H1715 C1707 0.929 . S
H1716 C1724 0.930 1_545 S
H1717 C1726 0.930 . S
H1718 C1728 0.930 . S
H1719 C1731 0.929 . S
H1720 C1734 0.930 . S
H1721 C1736 0.960 . S
H1722 C1736 0.960 . S
H1723 C1736 0.960 . S
C1724 H1716 0.930 1_565 S
C1724 C1725 1.376 . S
C1724 C1726 1.384 1_565 S
C1725 C1724 1.376 . S
C1725 C1731 1.390 . S
C1726 H1717 0.930 . S
C1726 C1724 1.384 1_545 S
C1726 C1727 1.372 1_545 S
C1727 C1726 1.372 1_565 S
C1727 C1728 1.400 . S
C1727 C1732 1.490 . S
C1728 H1718 0.930 . S
C1728 C1727 1.400 . S
C1728 C1731 1.386 . S
H1729 C1745 0.934 . S
H1730 C1746 0.925 1_565 S
C1731 H1719 0.929 . S
C1731 C1725 1.390 . S
C1731 C1728 1.386 . S
C1732 C1727 1.490 . S
C1732 C1734 1.395 1_565 S
C1732 C1735 1.403 . S
H1733 C1739 0.930 . S
C1734 H1720 0.930 . S
C1734 C1732 1.395 1_545 S
C1734 C1737 1.403 . S
C1735 C1732 1.403 . S
C1735 C1736 1.524 . S
C1735 C1739 1.400 . S
C1736 H1721 0.960 . S
C1736 H1722 0.960 . S
C1736 H1723 0.960 . S
C1736 C1735 1.524 . S
C1737 C1734 1.403 . S
C1737 C1738 1.392 . S
C1737 C1741 1.495 . S
C1738 C1737 1.392 . S
C1738 C1739 1.385 1_545 S
C1738 C1740 1.478 . S
C1739 H1733 0.930 . S
C1739 C1735 1.400 . S
C1739 C1738 1.385 1_565 S
C1740 C1738 1.478 . S
C1740 C1742 1.381 . S
C1740 C1746 1.383 . S
C1741 C1737 1.495 . S
C1741 H1747 0.959 . S
C1741 H1748 0.961 . S
C1741 H1749 0.960 . S
C1742 C1740 1.381 . S
C1742 C1743 1.394 . S
C1742 H1750 0.930 . S
C1743 C1742 1.394 . S
C1743 C1744 1.383 . S
C1743 H1751 0.929 . S
C1744 C1743 1.383 . S
C1744 C1745 1.377 . S
C1745 H1729 0.934 . S
C1745 C1744 1.377 . S
C1745 C1746 1.379 . S
C1746 H1730 0.925 1_545 S
C1746 C1740 1.383 . S
C1746 C1745 1.379 . S
H1747 C1741 0.959 . S
H1748 C1741 0.961 . S
H1749 C1741 0.960 . S
H1750 C1742 0.930 . S
H1751 C1743 0.929 . S
H1752 C1760 0.929 . S
H1753 C1762 0.930 . S
H1754 C1764 0.930 . S
H1755 C1767 0.929 . S
H1756 C1770 0.930 . S
H1757 C1772 0.960 . S
H1758 C1772 0.960 . S
H1759 C1772 0.960 . S
C1760 H1752 0.929 . S
C1760 C1761 1.377 . S
C1760 C1762 1.384 . S
C1761 C1760 1.377 . S
C1761 C1767 1.390 1_455 S
C1762 H1753 0.930 . S
C1762 C1760 1.384 . S
C1762 C1763 1.372 . S
C1763 C1762 1.372 . S
C1763 C1764 1.400 1_455 S
C1763 C1768 1.490 . S
C1764 H1754 0.930 . S
C1764 C1763 1.400 1_655 S
C1764 C1767 1.386 . S
H1765 C1781 0.930 . S
H1766 C1782 0.931 . S
C1767 H1755 0.929 . S
C1767 C1761 1.390 1_655 S
C1767 C1764 1.386 . S
C1768 C1763 1.490 . S
C1768 C1770 1.395 1_455 S
C1768 C1771 1.403 . S
H1769 C1775 0.930 . S
C1770 H1756 0.930 . S
C1770 C1768 1.395 1_655 S
C1770 C1773 1.403 . S
C1771 C1768 1.403 . S
C1771 C1772 1.524 . S
C1771 C1775 1.400 . S
C1772 H1757 0.960 . S
C1772 H1758 0.960 . S
C1772 H1759 0.960 . S
C1772 C1771 1.524 . S
C1773 C1770 1.403 . S
C1773 C1774 1.392 . S
C1773 C1777 1.495 . S
C1774 C1773 1.392 . S
C1774 C1775 1.385 1_655 S
C1774 C1776 1.478 . S
C1775 H1769 0.930 . S
C1775 C1771 1.400 . S
C1775 C1774 1.385 1_455 S
C1776 C1774 1.478 . S
C1776 C1778 1.381 1_655 S
C1776 C1782 1.383 . S
C1777 C1773 1.495 . S
C1777 H1783 0.959 . S
C1777 H1784 0.961 . S
C1777 H1785 0.960 . S
C1778 C1776 1.381 1_455 S
C1778 C1779 1.394 . S
C1778 H1786 0.930 . S
C1779 C1778 1.394 . S
C1779 C1780 1.383 1_455 S
C1779 H1787 0.929 . S
C1780 C1779 1.383 1_655 S
C1780 C1781 1.377 . S
C1781 H1765 0.930 . S
C1781 C1780 1.377 . S
C1781 C1782 1.379 . S
C1782 H1766 0.931 . S
C1782 C1776 1.383 . S
C1782 C1781 1.379 . S
H1783 C1777 0.959 . S
H1784 C1777 0.961 . S
H1785 C1777 0.960 . S
H1786 C1778 0.930 . S
H1787 C1779 0.929 . S
H1788 C1796 0.929 . S
H1789 C1798 0.930 . S
H1790 C1800 0.930 . S
H1791 C1803 0.929 . S
H1792 C1806 0.930 . S
H1793 C1808 0.960 . S
H1794 C1808 0.960 . S
H1795 C1808 0.960 . S
C1796 H1788 0.929 . S
C1796 C1797 1.377 1_565 S
C1796 C1798 1.384 . S
C1797 C1796 1.377 1_545 S
C1797 C1803 1.390 . S
C1798 H1789 0.930 . S
C1798 C1796 1.384 . S
C1798 C1799 1.372 1_565 S
C1799 C1798 1.372 1_545 S
C1799 C1800 1.400 . S
C1799 C1804 1.490 . S
C1800 H1790 0.930 . S
C1800 C1799 1.400 . S
C1800 C1803 1.386 . S
H1801 C1817 0.930 1_545 S
H1802 C1818 0.922 1_545 S
C1803 H1791 0.929 . S
C1803 C1797 1.390 . S
C1803 C1800 1.386 . S
C1804 C1799 1.490 . S
C1804 C1806 1.395 1_545 S
C1804 C1807 1.403 . S
H1805 C1811 0.930 . S
C1806 H1792 0.930 . S
C1806 C1804 1.395 1_565 S
C1806 C1809 1.403 . S
C1807 C1804 1.403 . S
C1807 C1808 1.524 . S
C1807 C1811 1.400 . S
C1808 H1793 0.960 . S
C1808 H1794 0.960 . S
C1808 H1795 0.960 . S
C1808 C1807 1.524 . S
C1809 C1806 1.403 . S
C1809 C1810 1.392 . S
C1809 C1813 1.495 . S
C1810 C1809 1.392 . S
C1810 C1811 1.385 1_565 S
C1810 C1812 1.478 . S
C1811 H1805 0.930 . S
C1811 C1807 1.400 . S
C1811 C1810 1.385 1_545 S
C1812 C1810 1.478 . S
C1812 C1814 1.381 . S
C1812 C1818 1.391 . S
C1813 C1809 1.495 . S
C1813 H1819 0.959 . S
C1813 H1820 0.961 . S
C1813 H1821 0.960 . S
C1814 C1812 1.381 . S
C1814 C1815 1.394 . S
C1814 H1822 0.930 . S
C1815 C1814 1.394 . S
C1815 C1816 1.383 . S
C1815 H1823 0.929 . S
C1816 C1815 1.383 . S
C1816 C1817 1.377 . S
C1817 H1801 0.930 1_565 S
C1817 C1816 1.377 . S
C1817 C1818 1.380 . S
C1818 H1802 0.922 1_565 S
C1818 C1812 1.391 . S
C1818 C1817 1.380 . S
H1819 C1813 0.959 . S
H1820 C1813 0.961 . S
H1821 C1813 0.960 . S
H1822 C1814 0.930 . S
H1823 C1815 0.929 . S
H1824 C1832 0.929 . S
H1825 C1834 0.930 . S
H1826 C1836 0.930 . S
H1827 C1839 0.929 . S
H1828 C1842 0.930 . S
H1829 C1844 0.960 . S
H1830 C1844 0.960 . S
H1831 C1844 0.960 . S
C1832 H1824 0.929 . S
C1832 C1833 1.377 . S
C1832 C1834 1.384 . S
C1833 C1832 1.377 . S
C1833 C1839 1.390 . S
C1834 H1825 0.930 . S
C1834 C1832 1.384 . S
C1834 C1835 1.372 . S
C1835 C1834 1.372 . S
C1835 C1836 1.400 . S
C1835 C1840 1.490 . S
C1836 H1826 0.930 . S
C1836 C1835 1.400 . S
C1836 C1839 1.386 . S
H1837 C1853 0.930 . S
H1838 C1854 0.931 . S
C1839 H1827 0.929 . S
C1839 C1833 1.390 . S
C1839 C1836 1.386 . S
C1840 C1835 1.490 . S
C1840 C1842 1.395 . S
C1840 C1843 1.403 . S
H1841 C1847 0.930 . S
C1842 H1828 0.930 . S
C1842 C1840 1.395 . S
C1842 C1845 1.403 1_556 S
C1843 C1840 1.403 . S
C1843 C1844 1.524 . S
C1843 C1847 1.400 1_556 S
C1844 H1829 0.960 . S
C1844 H1830 0.960 . S
C1844 H1831 0.960 . S
C1844 C1843 1.524 . S
C1845 C1842 1.403 1_554 S
C1845 C1846 1.392 . S
C1845 C1849 1.495 . S
C1846 C1845 1.392 . S
C1846 C1847 1.385 . S
C1846 C1848 1.478 . S
C1847 H1841 0.930 . S
C1847 C1843 1.400 1_554 S
C1847 C1846 1.385 . S
C1848 C1846 1.478 . S
C1848 C1850 1.381 . S
C1848 C1854 1.383 . S
C1849 C1845 1.495 . S
C1849 H1855 0.959 . S
C1849 H1856 0.961 . S
C1849 H1857 0.960 . S
C1850 C1848 1.381 . S
C1850 C1851 1.394 . S
C1850 H1858 0.930 . S
C1851 C1850 1.394 . S
C1851 C1852 1.383 . S
C1851 H1859 0.929 . S
C1852 C1851 1.383 . S
C1852 C1853 1.377 . S
C1853 H1837 0.930 . S
C1853 C1852 1.377 . S
C1853 C1854 1.379 . S
C1854 H1838 0.931 . S
C1854 C1848 1.383 . S
C1854 C1853 1.379 . S
H1855 C1849 0.959 . S
H1856 C1849 0.961 . S
H1857 C1849 0.960 . S
H1858 C1850 0.930 . S
H1859 C1851 0.929 . S
H1860 C1868 0.929 . S
H1861 C1870 0.930 . S
H1862 C1872 0.930 . S
H1863 C1875 0.929 . S
H1864 C1878 0.930 . S
H1865 C1880 0.960 . S
H1866 C1880 0.960 . S
H1867 C1880 0.960 . S
C1868 H1860 0.929 . S
C1868 C1869 1.377 . S
C1868 C1870 1.384 . S
C1869 C1868 1.377 . S
C1869 C1875 1.390 . S
C1870 H1861 0.930 . S
C1870 C1868 1.384 . S
C1870 C1871 1.372 . S
C1871 C1870 1.372 . S
C1871 C1872 1.400 . S
C1871 C1876 1.490 . S
C1872 H1862 0.930 . S
C1872 C1871 1.400 . S
C1872 C1875 1.386 . S
H1873 C1889 0.930 . S
H1874 C1890 0.931 . S
C1875 H1863 0.929 . S
C1875 C1869 1.390 . S
C1875 C1872 1.386 . S
C1876 C1871 1.490 . S
C1876 C1878 1.395 . S
C1876 C1879 1.403 . S
H1877 C1883 0.930 . S
C1878 H1864 0.930 . S
C1878 C1876 1.395 . S
C1878 C1881 1.403 1_554 S
C1879 C1876 1.403 . S
C1879 C1880 1.524 . S
C1879 C1883 1.400 1_554 S
C1880 H1865 0.960 . S
C1880 H1866 0.960 . S
C1880 H1867 0.960 . S
C1880 C1879 1.524 . S
C1881 C1878 1.403 1_556 S
C1881 C1882 1.392 . S
C1881 C1885 1.495 . S
C1882 C1881 1.392 . S
C1882 C1883 1.385 . S
C1882 C1884 1.478 . S
C1883 H1877 0.930 . S
C1883 C1879 1.400 1_556 S
C1883 C1882 1.385 . S
C1884 C1882 1.478 . S
C1884 C1886 1.381 . S
C1884 C1890 1.383 . S
C1885 C1881 1.495 . S
C1885 H1891 0.959 . S
C1885 H1892 0.961 . S
C1885 H1893 0.960 . S
C1886 C1884 1.381 . S
C1886 C1887 1.394 . S
C1886 H1894 0.930 . S
C1887 C1886 1.394 . S
C1887 C1888 1.383 . S
C1887 H1895 0.929 . S
C1888 C1887 1.383 . S
C1888 C1889 1.377 . S
C1889 H1873 0.930 . S
C1889 C1888 1.377 . S
C1889 C1890 1.379 . S
C1890 H1874 0.931 . S
C1890 C1884 1.383 . S
C1890 C1889 1.379 . S
H1891 C1885 0.959 . S
H1892 C1885 0.961 . S
H1893 C1885 0.960 . S
H1894 C1886 0.930 . S
H1895 C1887 0.929 . S
H1896 C1904 0.929 . S
H1897 C1906 0.930 . S
H1898 C1908 0.930 . S
H1899 C1911 0.929 . S
H1900 C1914 0.930 . S
H1901 C1916 0.960 . S
H1902 C1916 0.960 . S
H1903 C1916 0.960 . S
C1904 H1896 0.929 . S
C1904 C1905 1.377 . S
C1904 C1906 1.384 . S
C1905 C1904 1.377 . S
C1905 C1911 1.390 . S
C1906 H1897 0.930 . S
C1906 C1904 1.384 . S
C1906 C1907 1.372 . S
C1907 C1906 1.372 . S
C1907 C1908 1.400 . S
C1907 C1912 1.490 . S
C1908 H1898 0.930 . S
C1908 C1907 1.400 . S
C1908 C1911 1.386 . S
H1909 C1925 0.930 . S
H1910 C1926 0.931 . S
C1911 H1899 0.929 . S
C1911 C1905 1.390 . S
C1911 C1908 1.386 . S
C1912 C1907 1.490 . S
C1912 C1914 1.395 . S
C1912 C1915 1.403 . S
H1913 C1919 0.930 . S
C1914 H1900 0.930 . S
C1914 C1912 1.395 . S
C1914 C1917 1.403 1_554 S
C1915 C1912 1.403 . S
C1915 C1916 1.524 . S
C1915 C1919 1.400 1_554 S
C1916 H1901 0.960 . S
C1916 H1902 0.960 . S
C1916 H1903 0.960 . S
C1916 C1915 1.524 . S
C1917 C1914 1.403 1_556 S
C1917 C1918 1.392 . S
C1917 C1921 1.495 . S
C1918 C1917 1.392 . S
C1918 C1919 1.385 . S
C1918 C1920 1.478 . S
C1919 H1913 0.930 . S
C1919 C1915 1.400 1_556 S
C1919 C1918 1.385 . S
C1920 C1918 1.478 . S
C1920 C1922 1.381 . S
C1920 C1926 1.383 . S
C1921 C1917 1.495 . S
C1921 H1927 0.959 . S
C1921 H1928 0.961 . S
C1921 H1929 0.960 . S
C1922 C1920 1.381 . S
C1922 C1923 1.394 . S
C1922 H1930 0.930 . S
C1923 C1922 1.394 . S
C1923 C1924 1.383 . S
C1923 H1931 0.929 . S
C1924 C1923 1.383 . S
C1924 C1925 1.377 . S
C1925 H1909 0.930 . S
C1925 C1924 1.377 . S
C1925 C1926 1.379 . S
C1926 H1910 0.931 . S
C1926 C1920 1.383 . S
C1926 C1925 1.379 . S
H1927 C1921 0.959 . S
H1928 C1921 0.961 . S
H1929 C1921 0.960 . S
H1930 C1922 0.930 . S
H1931 C1923 0.929 . S
H1932 C1940 0.929 . S
H1933 C1942 0.930 . S
H1934 C1944 0.930 . S
H1935 C1947 0.929 . S
H1936 C1950 0.930 . S
H1937 C1952 0.960 . S
H1938 C1952 0.960 . S
H1939 C1952 0.960 . S
C1940 H1932 0.929 . S
C1940 C1941 1.377 . S
C1940 C1942 1.384 . S
C1941 C1940 1.377 . S
C1941 C1947 1.390 . S
C1942 H1933 0.930 . S
C1942 C1940 1.384 . S
C1942 C1943 1.372 . S
C1943 C1942 1.372 . S
C1943 C1944 1.400 . S
C1943 C1948 1.490 . S
C1944 H1934 0.930 . S
C1944 C1943 1.400 . S
C1944 C1947 1.386 . S
H1945 C1961 0.930 . S
H1946 C1962 0.931 . S
C1947 H1935 0.929 . S
C1947 C1941 1.390 . S
C1947 C1944 1.386 . S
C1948 C1943 1.490 . S
C1948 C1950 1.395 . S
C1948 C1951 1.403 . S
H1949 C1955 0.930 . S
C1950 H1936 0.930 . S
C1950 C1948 1.395 . S
C1950 C1953 1.403 1_556 S
C1951 C1948 1.403 . S
C1951 C1952 1.524 . S
C1951 C1955 1.400 1_556 S
C1952 H1937 0.960 . S
C1952 H1938 0.960 . S
C1952 H1939 0.960 . S
C1952 C1951 1.524 . S
C1953 C1950 1.403 1_554 S
C1953 C1954 1.392 . S
C1953 C1957 1.495 . S
C1954 C1953 1.392 . S
C1954 C1955 1.385 . S
C1954 C1956 1.478 . S
C1955 H1949 0.930 . S
C1955 C1951 1.400 1_554 S
C1955 C1954 1.385 . S
C1956 C1954 1.478 . S
C1956 C1958 1.381 . S
C1956 C1962 1.383 . S
C1957 C1953 1.495 . S
C1957 H1963 0.959 . S
C1957 H1964 0.961 . S
C1957 H1965 0.960 . S
C1958 C1956 1.381 . S
C1958 C1959 1.394 . S
C1958 H1966 0.930 . S
C1959 C1958 1.394 . S
C1959 C1960 1.383 . S
C1959 H1967 0.929 . S
C1960 C1959 1.383 . S
C1960 C1961 1.377 . S
C1961 H1945 0.930 . S
C1961 C1960 1.377 . S
C1961 C1962 1.379 . S
C1962 H1946 0.931 . S
C1962 C1956 1.383 . S
C1962 C1961 1.379 . S
H1963 C1957 0.959 . S
H1964 C1957 0.961 . S
H1965 C1957 0.960 . S
H1966 C1958 0.930 . S
H1967 C1959 0.929 . S
C537 C84 0.177 . S
C556 C18 0.238 . S
C573 C51 0.191 . S
C592 C117 0.249 . S
C609 C216 0.178 . S
C628 C150 0.201 . S
C645 C249 0.192 . S
C664 C183 0.247 . S
C681 C282 0.177 . S
C700 C348 0.211 . S
C717 C381 0.189 . S
C736 C315 0.151 . S
C753 C480 0.186 . S
C772 C414 0.158 . S
C789 C447 0.188 . S
C808 C513 0.253 . S
C825 N13 1.795 . S
C844 N508 1.804 . S
C861 N409 1.792 . S
C880 N46 1.773 . S
C897 N442 1.789 . S
C916 N79 1.767 . S
C933 N475 1.787 . S
C952 N112 1.780 . S
C969 N310 1.792 . S
C988 N145 1.807 . S
C1005 N343 1.792 . S
C1024 N178 1.806 . S
C1041 N376 1.787 . S
C1060 N211 1.770 . S
C1077 N277 1.792 . S
C1096 N244 1.773 . S
C1113 C7 1.273 . S
C1132 C120 1.264 . S
C1149 C21 1.278 . S
C1168 C40 1.252 . S
C1185 C73 1.271 . S
C1204 C54 1.278 . S
C1221 C87 1.276 . S
C1240 C106 1.263 . S
C1257 C186 1.271 . S
C1276 C139 1.289 . S
C1293 C172 1.267 . S
C1312 C219 1.290 . S
C1329 C252 1.273 . S
C1348 C205 1.278 . S
C1365 C153 1.271 . S
C1384 C238 1.288 . S
C1401 C271 1.268 . S
C1420 C384 1.289 . S
C1437 C285 1.276 . S
C1456 C304 1.264 . S
C1473 C337 1.270 . S
C1492 C318 1.277 . S
C1509 C370 1.270 . S
C1528 C351 1.280 . S
C1545 C403 1.272 . S
C1564 C450 1.272 . S
C1581 C483 1.271 . S
C1600 C436 1.289 . S
C1617 C516 1.277 . S
C1636 C469 1.257 . S
C1653 C502 1.270 . S
C1672 C417 1.278 . S
C1689 N2 1.607 . S
C1708 N200 1.574 . S
C1725 N233 1.599 . S
C1744 N35 1.606 . S
C1761 N134 1.604 . S
C1780 N68 1.583 . S
C1797 N167 1.599 . S
C1816 N101 1.610 . S
C1833 N266 1.598 . S
C1852 N464 1.618 . S
C1869 N497 1.609 . S
C1888 N299 1.580 . S
C1905 N398 1.598 . S
C1924 N332 1.626 . S
C1941 N365 1.602 . S
C1960 N431 1.619 . S
