# Generated by pormake.
# Topology lcs, (4)-cn, num edge types: 1
# Building blocks:
#     Node 0, Type 0, BuildingBlock: AZAVOO_clean_sbu_0, # of connection points: 4
#     Node 1, Type 0, BuildingBlock: AZAVOO_clean_sbu_0, # of connection points: 4
#     Node 2, Type 0, BuildingBlock: AZAVOO_clean_sbu_0, # of connection points: 4
#     Node 3, Type 0, BuildingBlock: AZAVOO_clean_sbu_0, # of connection points: 4
#     Node 4, Type 0, BuildingBlock: AZAVOO_clean_sbu_0, # of connection points: 4
#     Node 5, Type 0, BuildingBlock: AZAVOO_clean_sbu_0, # of connection points: 4
#     Node 6, Type 0, BuildingBlock: AZAVOO_clean_sbu_0, # of connection points: 4
#     Node 7, Type 0, BuildingBlock: AZAVOO_clean_sbu_0, # of connection points: 4
#     Node 8, Type 0, BuildingBlock: AZAVOO_clean_sbu_0, # of connection points: 4
#     Node 9, Type 0, BuildingBlock: AZAVOO_clean_sbu_0, # of connection points: 4
#     Node 10, Type 0, BuildingBlock: AZAVOO_clean_sbu_0, # of connection points: 4
#     Node 11, Type 0, BuildingBlock: AZAVOO_clean_sbu_0, # of connection points: 4
#     Node 12, Type 0, BuildingBlock: AZAVOO_clean_sbu_0, # of connection points: 4
#     Node 13, Type 0, BuildingBlock: AZAVOO_clean_sbu_0, # of connection points: 4
#     Node 14, Type 0, BuildingBlock: AZAVOO_clean_sbu_0, # of connection points: 4
#     Node 15, Type 0, BuildingBlock: AZAVOO_clean_sbu_0, # of connection points: 4
#     Node 16, Type 0, BuildingBlock: AZAVOO_clean_sbu_0, # of connection points: 4
#     Node 17, Type 0, BuildingBlock: AZAVOO_clean_sbu_0, # of connection points: 4
#     Node 18, Type 0, BuildingBlock: AZAVOO_clean_sbu_0, # of connection points: 4
#     Node 19, Type 0, BuildingBlock: AZAVOO_clean_sbu_0, # of connection points: 4
#     Node 20, Type 0, BuildingBlock: AZAVOO_clean_sbu_0, # of connection points: 4
#     Node 21, Type 0, BuildingBlock: AZAVOO_clean_sbu_0, # of connection points: 4
#     Node 22, Type 0, BuildingBlock: AZAVOO_clean_sbu_0, # of connection points: 4
#     Node 23, Type 0, BuildingBlock: AZAVOO_clean_sbu_0, # of connection points: 4
#     Edge 24, Type (0, 0), BuildingBlock: OJICUG_clean_linker_0, # of connection points: 2
#     Edge 25, Type (0, 0), BuildingBlock: OJICUG_clean_linker_0, # of connection points: 2
#     Edge 26, Type (0, 0), BuildingBlock: OJICUG_clean_linker_0, # of connection points: 2
#     Edge 27, Type (0, 0), BuildingBlock: OJICUG_clean_linker_0, # of connection points: 2
#     Edge 28, Type (0, 0), BuildingBlock: OJICUG_clean_linker_0, # of connection points: 2
#     Edge 29, Type (0, 0), BuildingBlock: OJICUG_clean_linker_0, # of connection points: 2
#     Edge 30, Type (0, 0), BuildingBlock: OJICUG_clean_linker_0, # of connection points: 2
#     Edge 31, Type (0, 0), BuildingBlock: OJICUG_clean_linker_0, # of connection points: 2
#     Edge 32, Type (0, 0), BuildingBlock: OJICUG_clean_linker_0, # of connection points: 2
#     Edge 33, Type (0, 0), BuildingBlock: OJICUG_clean_linker_0, # of connection points: 2
#     Edge 34, Type (0, 0), BuildingBlock: OJICUG_clean_linker_0, # of connection points: 2
#     Edge 35, Type (0, 0), BuildingBlock: OJICUG_clean_linker_0, # of connection points: 2
#     Edge 36, Type (0, 0), BuildingBlock: OJICUG_clean_linker_0, # of connection points: 2
#     Edge 37, Type (0, 0), BuildingBlock: OJICUG_clean_linker_0, # of connection points: 2
#     Edge 38, Type (0, 0), BuildingBlock: OJICUG_clean_linker_0, # of connection points: 2
#     Edge 39, Type (0, 0), BuildingBlock: OJICUG_clean_linker_0, # of connection points: 2
#     Edge 40, Type (0, 0), BuildingBlock: OJICUG_clean_linker_0, # of connection points: 2
#     Edge 41, Type (0, 0), BuildingBlock: OJICUG_clean_linker_0, # of connection points: 2
#     Edge 42, Type (0, 0), BuildingBlock: OJICUG_clean_linker_0, # of connection points: 2
#     Edge 43, Type (0, 0), BuildingBlock: OJICUG_clean_linker_0, # of connection points: 2
#     Edge 44, Type (0, 0), BuildingBlock: OJICUG_clean_linker_0, # of connection points: 2
#     Edge 45, Type (0, 0), BuildingBlock: OJICUG_clean_linker_0, # of connection points: 2
#     Edge 46, Type (0, 0), BuildingBlock: OJICUG_clean_linker_0, # of connection points: 2
#     Edge 47, Type (0, 0), BuildingBlock: OJICUG_clean_linker_0, # of connection points: 2
#     Edge 48, Type (0, 0), BuildingBlock: OJICUG_clean_linker_0, # of connection points: 2
#     Edge 49, Type (0, 0), BuildingBlock: OJICUG_clean_linker_0, # of connection points: 2
#     Edge 50, Type (0, 0), BuildingBlock: OJICUG_clean_linker_0, # of connection points: 2
#     Edge 51, Type (0, 0), BuildingBlock: OJICUG_clean_linker_0, # of connection points: 2
#     Edge 52, Type (0, 0), BuildingBlock: OJICUG_clean_linker_0, # of connection points: 2
#     Edge 53, Type (0, 0), BuildingBlock: OJICUG_clean_linker_0, # of connection points: 2
#     Edge 54, Type (0, 0), BuildingBlock: OJICUG_clean_linker_0, # of connection points: 2
#     Edge 55, Type (0, 0), BuildingBlock: OJICUG_clean_linker_0, # of connection points: 2
#     Edge 56, Type (0, 0), BuildingBlock: OJICUG_clean_linker_0, # of connection points: 2
#     Edge 57, Type (0, 0), BuildingBlock: OJICUG_clean_linker_0, # of connection points: 2
#     Edge 58, Type (0, 0), BuildingBlock: OJICUG_clean_linker_0, # of connection points: 2
#     Edge 59, Type (0, 0), BuildingBlock: OJICUG_clean_linker_0, # of connection points: 2
#     Edge 60, Type (0, 0), BuildingBlock: OJICUG_clean_linker_0, # of connection points: 2
#     Edge 61, Type (0, 0), BuildingBlock: OJICUG_clean_linker_0, # of connection points: 2
#     Edge 62, Type (0, 0), BuildingBlock: OJICUG_clean_linker_0, # of connection points: 2
#     Edge 63, Type (0, 0), BuildingBlock: OJICUG_clean_linker_0, # of connection points: 2
#     Edge 64, Type (0, 0), BuildingBlock: OJICUG_clean_linker_0, # of connection points: 2
#     Edge 65, Type (0, 0), BuildingBlock: OJICUG_clean_linker_0, # of connection points: 2
#     Edge 66, Type (0, 0), BuildingBlock: OJICUG_clean_linker_0, # of connection points: 2
#     Edge 67, Type (0, 0), BuildingBlock: OJICUG_clean_linker_0, # of connection points: 2
#     Edge 68, Type (0, 0), BuildingBlock: OJICUG_clean_linker_0, # of connection points: 2
#     Edge 69, Type (0, 0), BuildingBlock: OJICUG_clean_linker_0, # of connection points: 2
#     Edge 70, Type (0, 0), BuildingBlock: OJICUG_clean_linker_0, # of connection points: 2
#     Edge 71, Type (0, 0), BuildingBlock: OJICUG_clean_linker_0, # of connection points: 2
# Relax obj value: 0.143
# Max RMSD: 0.194
# Mean RMSD: 0.182
data_MOF--net-lcs--node1-AZAVOO_clean_sbu_0--edge1-OJICUG_clean_linker_0
_symmetry_space_group_name_H-M    P1
_symmetry_Int_Tables_number       1
_symmetry_cell_setting            triclinic
loop_
_symmetry_equiv_pos_as_xyz
'x, y, z'
_cell_length_a     35.952061
_cell_length_b     35.155278
_cell_length_c     35.089862
_cell_angle_alpha  94.951016
_cell_angle_beta   94.578636
_cell_angle_gamma 94.44773
loop_
_atom_site_label
_atom_site_type_symbol
_atom_site_fract_x
_atom_site_fract_y
_atom_site_fract_z
_atom_type_partial_charge
Mg0 Mg 0.0252 0.28139 0.48679 0.0
O1 O 0.99456 0.24157 0.43721 0.0
O2 O 0.93757 0.26082 0.42427 0.0
Mg3 Mg 0.93244 0.31422 0.46558 0.0
C4 C 0.96258 0.23768 0.41808 0.0
C5 C 0.0977 0.23933 0.49731 0.0
O6 O 0.08469 0.2362 0.53095 0.0
O7 O 0.03553 0.32859 0.44717 0.0
O8 O 0.97822 0.34856 0.43797 0.0
O9 O -0.00164 0.24262 0.52628 0.0
O10 O 0.97443 0.29451 0.50691 0.0
C11 C 0.01309 0.3511 0.43293 0.0
C12 C 0.97072 0.2641 0.52457 0.0
O13 O 0.0795 0.25661 0.4726 0.0
Mg14 Mg 0.98251 0.76253 0.56014 0.0
O15 O 0.00806 0.80109 0.61281 0.0
O16 O 0.96355 0.81211 0.6523 0.0
Mg17 Mg 0.90866 0.78143 0.62334 0.0
C18 C 0.99747 0.81641 0.64397 0.0
C19 C 0.05338 0.7554 0.51382 0.0
O20 O 0.03076 0.76659 0.48648 0.0
O21 O 0.97918 0.71121 0.59565 0.0
O22 O 0.93193 0.7232 0.63125 0.0
O23 O 0.96941 0.81405 0.5302 0.0
O24 O 0.93111 0.7848 0.56677 0.0
C25 C 0.95699 0.70174 0.62051 0.0
C26 C 0.93846 0.8131 0.54673 0.0
O27 O 0.04136 0.75063 0.54628 0.0
Mg28 Mg 0.51788 0.77859 0.9826 0.0
O29 O 0.48887 0.73794 0.93268 0.0
O30 O 0.43218 0.75685 0.91736 0.0
Mg31 Mg 0.4256 0.81067 0.9575 0.0
C32 C 0.45745 0.73371 0.91249 0.0
C33 C 0.59286 0.74159 0.99743 0.0
O34 O 0.58108 0.74221 0.03196 0.0
O35 O 0.52945 0.8251 0.94271 0.0
O36 O 0.47233 0.84478 0.93101 0.0
O37 O 0.48994 0.74032 0.02179 0.0
O38 O 0.46639 0.79166 0.00054 0.0
C39 C 0.50746 0.84732 0.92727 0.0
C40 C 0.46223 0.7616 0.01865 0.0
O41 O 0.57287 0.75435 0.97075 0.0
Mg42 Mg 0.47561 0.26333 0.07414 0.0
O43 O 0.50382 0.30448 0.12388 0.0
O44 O 0.46135 0.32072 0.16406 0.0
Mg45 Mg 0.40513 0.2902 0.13918 0.0
C46 C 0.49489 0.32258 0.15443 0.0
C47 C 0.55631 0.27757 0.05154 0.0
O48 O 0.545 0.31228 0.05364 0.0
O49 O 0.47255 0.21508 0.11387 0.0
O50 O 0.42835 0.23307 0.15139 0.0
O51 O 0.46187 0.31241 0.04067 0.0
O52 O 0.42496 0.28736 0.08109 0.0
C53 C 0.45191 0.20959 0.14124 0.0
C54 C 0.4316 0.31343 0.05825 0.0
O55 O 0.53367 0.24967 0.05797 0.0
Mg56 Mg 0.00017 0.79853 0.17921 0.0
O57 O 0.95512 0.77351 0.13129 0.0
O58 O 0.94674 0.81978 0.0924 0.0
Mg59 Mg 0.98238 0.87451 0.11775 0.0
C60 C 0.93977 0.78549 0.10094 0.0
C61 C 0.98792 0.718 0.21144 0.0
O62 O 0.95429 0.72909 0.21558 0.0
O63 O 0.04332 0.79514 0.13671 0.0
O64 O 0.03532 0.84462 0.10191 0.0
O65 O 0.95819 0.81796 0.21693 0.0
O66 O 0.98374 0.85393 0.17569 0.0
C67 C 0.05288 0.81577 0.11046 0.0
C68 C 0.96072 0.85033 0.20183 0.0
O69 O 0.01147 0.73932 0.1961 0.0
Mg70 Mg 0.53929 0.74197 0.35047 0.0
O71 O 0.52284 0.77401 0.29858 0.0
O72 O 0.57472 0.79065 0.27087 0.0
Mg73 Mg 0.62414 0.76755 0.304 0.0
C74 C 0.53944 0.7907 0.27296 0.0
C75 C 0.45451 0.74725 0.36115 0.0
O76 O 0.46374 0.78292 0.35484 0.0
O77 O 0.54749 0.68785 0.3135 0.0
O78 O 0.6017 0.70436 0.28977 0.0
O79 O 0.54879 0.79723 0.38633 0.0
O80 O 0.59261 0.77028 0.35527 0.0
C81 C 0.57484 0.67953 0.29419 0.0
C82 C 0.58284 0.79883 0.37663 0.0
O83 O 0.47867 0.72286 0.35801 0.0
Mg84 Mg 0.50043 0.29374 0.67608 0.0
O85 O 0.45603 0.26887 0.62751 0.0
O86 O 0.4485 0.31516 0.58849 0.0
Mg87 Mg 0.48401 0.36979 0.61454 0.0
C88 C 0.44122 0.28089 0.59693 0.0
C89 C 0.48769 0.21253 0.70703 0.0
O90 O 0.45367 0.22293 0.71023 0.0
O91 O 0.54427 0.29033 0.63443 0.0
O92 O 0.53734 0.33993 0.59959 0.0
O93 O 0.45789 0.31293 0.71311 0.0
O94 O 0.48413 0.34924 0.67255 0.0
C95 C 0.55453 0.31093 0.60845 0.0
C96 C 0.46071 0.34545 0.69832 0.0
O97 O 0.51149 0.23452 0.6928 0.0
Mg98 Mg 0.02772 0.24226 0.84951 0.0
O99 O 0.01426 0.2767 0.79834 0.0
O100 O 0.0679 0.29255 0.77324 0.0
Mg101 Mg 0.11513 0.26632 0.8065 0.0
C102 C 0.03259 0.29379 0.7741 0.0
C103 C 0.94319 0.25038 0.86041 0.0
O104 O 0.95409 0.28631 0.85664 0.0
O105 O 0.03508 0.18844 0.81128 0.0
O106 O 0.0904 0.2043 0.78948 0.0
O107 O 0.03844 0.29653 0.88715 0.0
O108 O 0.08193 0.26863 0.85647 0.0
C109 C 0.06263 0.18001 0.7923 0.0
C110 C 0.07273 0.29714 0.87825 0.0
O111 O 0.96615 0.22502 0.85532 0.0
Mg112 Mg 0.44107 0.98427 0.23015 0.0
O113 O 0.39642 0.95859 0.1825 0.0
O114 O 0.36517 0.90917 0.20518 0.0
Mg115 Mg 0.39206 0.90035 0.26484 0.0
C116 C 0.37087 0.93086 0.17847 0.0
C117 C 0.45105 0.07145 0.21917 0.0
O118 O 0.44982 0.07305 0.25659 0.0
O119 O 0.39818 0.01011 0.26852 0.0
O120 O 0.37652 0.95711 0.29312 0.0
O121 O 0.48183 0.94517 0.20587 0.0
O122 O 0.44416 0.93013 0.24986 0.0
C123 C 0.37917 0.99346 0.29252 0.0
C124 C 0.4688 0.91996 0.22729 0.0
O125 O 0.44841 0.03893 0.19984 0.0
Mg126 Mg 0.28373 0.09779 0.47604 0.0
O127 O 0.32927 0.14498 0.50005 0.0
O128 O 0.33713 0.18436 0.45426 0.0
Mg129 Mg 0.30041 0.15895 0.39985 0.0
C130 C 0.3446 0.1753 0.48836 0.0
C131 C 0.24884 0.05758 0.54028 0.0
O132 O 0.22854 0.04156 0.50942 0.0
O133 O 0.24055 0.14043 0.48013 0.0
O134 O 0.24757 0.17473 0.43011 0.0
O135 O 0.32518 0.05991 0.45566 0.0
O136 O 0.29851 0.1005 0.4196 0.0
C137 C 0.23046 0.16636 0.45931 0.0
C138 C 0.32162 0.07437 0.42294 0.0
O139 O 0.27524 0.0828 0.53652 0.0
Mg140 Mg 0.1795 0.97825 0.75532 0.0
O141 O 0.13223 0.93213 0.73327 0.0
O142 O 0.09851 0.92052 0.78251 0.0
Mg143 Mg 0.12569 0.95689 0.83599 0.0
C144 C 0.10463 0.91473 0.74722 0.0
C145 C 0.21572 0.01629 0.69068 0.0
O146 O 0.23417 0.03438 0.72167 0.0
O147 O 0.13743 0.02261 0.7573 0.0
O148 O 0.10714 0.01087 0.80873 0.0
O149 O 0.2177 0.93439 0.76985 0.0
O150 O 0.17971 0.95936 0.80994 0.0
C151 C 0.11293 0.0305 0.78041 0.0
C152 C 0.20411 0.93517 0.80299 0.0
O153 O 0.1902 0.99013 0.69443 0.0
Mg154 Mg 0.25251 0.78684 0.98719 0.0
O155 O 0.2828 0.83609 0.02758 0.0
O156 O 0.33921 0.85064 0.00784 0.0
Mg157 Mg 0.34405 0.81064 0.95337 0.0
C158 C 0.31443 0.85577 0.0315 0.0
C159 C 0.18308 0.77674 0.03375 0.0
O160 O 0.19833 0.74474 0.0396 0.0
O161 O 0.24051 0.82697 0.941 0.0
O162 O 0.29708 0.83818 0.92008 0.0
O163 O 0.28028 0.74722 0.02496 0.0
O164 O 0.30348 0.76789 0.97317 0.0
C165 C 0.26201 0.84235 0.91837 0.0
C166 C 0.30771 0.74977 0.00331 0.0
O167 O 0.19864 0.79998 0.01297 0.0
Mg168 Mg 0.22926 0.42298 0.02591 0.0
O169 O 0.24617 0.47241 0.99088 0.0
O170 O 0.19459 0.50029 0.97321 0.0
Mg171 Mg 0.14496 0.46938 0.99809 0.0
C172 C 0.22976 0.49745 0.97304 0.0
C173 C 0.31396 0.40961 0.02223 0.0
O174 O 0.30536 0.41358 0.98577 0.0
O175 O 0.22201 0.46281 0.07828 0.0
O176 O 0.16767 0.48607 0.06115 0.0
O177 O 0.21884 0.38428 0.97244 0.0
O178 O 0.17576 0.41763 0.99788 0.0
C179 C 0.19482 0.48253 0.0861 0.0
C180 C 0.18489 0.39433 0.97049 0.0
O181 O 0.28961 0.4152 0.04599 0.0
Mg182 Mg 0.77959 0.20866 0.00691 0.0
O183 O 0.754 0.15645 0.96777 0.0
O184 O 0.79882 0.11743 0.95645 0.0
Mg185 Mg 0.85397 0.14636 0.98677 0.0
C186 C 0.7648 0.12556 0.95219 0.0
C187 C 0.7086 0.25452 0.01854 0.0
O188 O 0.731 0.28297 0.00932 0.0
O189 O 0.78411 0.17279 0.05803 0.0
O190 O 0.83215 0.13843 0.04566 0.0
O191 O 0.79246 0.23935 0.95541 0.0
O192 O 0.83087 0.20257 0.98424 0.0
C193 C 0.80717 0.14866 0.06743 0.0
C194 C 0.82349 0.2229 0.95619 0.0
O195 O 0.72068 0.22165 0.02011 0.0
Mg196 Mg 0.08257 0.51546 0.29272 0.0
O197 O 0.13173 0.53929 0.33673 0.0
O198 O 0.16659 0.49038 0.3465 0.0
Mg199 Mg 0.13968 0.4364 0.3113 0.0
C200 C 0.16032 0.52553 0.35279 0.0
C201 C 0.03368 0.57984 0.27284 0.0
O202 O 0.00856 0.5515 0.27653 0.0
O203 O 0.12208 0.51442 0.24599 0.0
O204 O 0.1547 0.46425 0.2565 0.0
O205 O 0.04744 0.50029 0.33901 0.0
O206 O 0.08542 0.46148 0.31215 0.0
C207 C 0.14699 0.4922 0.23704 0.0
C208 C 0.06226 0.46782 0.33775 0.0
O209 O 0.06818 0.57495 0.27951 0.0
Mg210 Mg 0.73729 0.92455 0.52548 0.0
O211 O 0.75233 0.97622 0.49254 0.0
O212 O 0.69944 0.00245 0.47595 0.0
Mg213 Mg 0.65101 0.96885 0.49991 0.0
C214 C 0.7348 0.00119 0.47568 0.0
C215 C 0.82173 0.91277 0.51971 0.0
O216 O 0.81201 0.91784 0.48372 0.0
O217 O 0.72909 0.96189 0.57943 0.0
O218 O 0.67412 0.98424 0.56291 0.0
O219 O 0.7277 0.88781 0.47064 0.0
O220 O 0.6837 0.9185 0.49761 0.0
C221 C 0.70142 0.98073 0.58768 0.0
C222 C 0.69339 0.89677 0.46929 0.0
O223 O 0.79815 0.91763 0.54445 0.0
Mg224 Mg 0.83611 0.04228 0.28411 0.0
O225 O 0.88089 0.08906 0.31134 0.0
O226 O 0.90919 0.06601 0.36248 0.0
Mg227 Mg 0.88043 0.00714 0.37056 0.0
C228 C 0.90524 0.09263 0.34028 0.0
C229 C 0.8058 0.08865 0.21607 0.0
O230 O 0.7776 0.09268 0.23726 0.0
O231 O 0.87908 0.00281 0.26094 0.0
O232 O 0.89832 0.97841 0.31505 0.0
O233 O 0.79408 0.06806 0.32104 0.0
O234 O 0.83032 0.02358 0.33819 0.0
C235 C 0.89721 0.97887 0.27867 0.0
C236 C 0.80587 0.04682 0.34708 0.0
O237 O 0.83303 0.07057 0.22806 0.0
Mg238 Mg 0.28844 0.70852 0.50591 0.0
O239 O 0.26105 0.65724 0.46645 0.0
O240 O 0.30397 0.61597 0.45538 0.0
Mg241 Mg 0.35966 0.64217 0.48662 0.0
C242 C 0.27054 0.62574 0.45086 0.0
C243 C 0.20708 0.73023 0.48926 0.0
O244 O 0.21791 0.72725 0.45432 0.0
O245 O 0.28993 0.67239 0.55706 0.0
O246 O 0.33603 0.63529 0.54481 0.0
O247 O 0.30369 0.73849 0.45494 0.0
O248 O 0.33978 0.69987 0.4842 0.0
C249 C 0.31139 0.64679 0.5664 0.0
C250 C 0.33391 0.7207 0.4562 0.0
O251 O 0.23022 0.72521 0.51734 0.0
Mg252 Mg 0.33376 0.53541 0.78072 0.0
O253 O 0.37781 0.58297 0.80776 0.0
O254 O 0.40671 0.56071 0.85901 0.0
Mg255 Mg 0.37892 0.50146 0.86731 0.0
C256 C 0.40223 0.58711 0.83665 0.0
C257 C 0.30591 0.58568 0.71426 0.0
O258 O 0.28014 0.59429 0.73731 0.0
O259 O 0.37747 0.49674 0.75769 0.0
O260 O 0.39736 0.47292 0.81189 0.0
O261 O 0.29124 0.56042 0.81749 0.0
O262 O 0.32815 0.51663 0.83494 0.0
C263 C 0.39617 0.47327 0.77549 0.0
C264 C 0.30318 0.53937 0.84363 0.0
O265 O 0.33043 0.56357 0.72458 0.0
Mg266 Mg 0.58315 0.01095 0.7895 0.0
O267 O 0.63037 0.03545 0.83536 0.0
O268 O 0.66559 0.98723 0.84691 0.0
Mg269 Mg 0.64029 0.93281 0.81121 0.0
C270 C 0.65861 0.02223 0.85264 0.0
C271 C 0.5341 0.07446 0.76802 0.0
O272 O 0.5092 0.04582 0.77134 0.0
O273 O 0.62487 0.01027 0.74498 0.0
O274 O 0.65742 0.96039 0.75688 0.0
O275 O 0.54598 0.99574 0.83392 0.0
O276 O 0.58556 0.9572 0.8094 0.0
C277 C 0.6503 0.9883 0.73712 0.0
C278 C 0.56108 0.96344 0.83366 0.0
O279 O 0.56863 0.07008 0.77536 0.0
Mg280 Mg 0.78076 0.60279 0.98191 0.0
O281 O 0.82679 0.64959 0.00551 0.0
O282 O 0.8348 0.68844 0.95928 0.0
Mg283 Mg 0.79817 0.66268 0.90492 0.0
C284 C 0.84226 0.67966 0.99349 0.0
C285 C 0.75133 0.55816 0.04569 0.0
O286 O 0.73668 0.53724 0.01448 0.0
O287 O 0.73812 0.64601 0.98553 0.0
O288 O 0.74524 0.67898 0.93457 0.0
O289 O 0.82157 0.56397 0.96199 0.0
O290 O 0.79554 0.60472 0.92559 0.0
C291 C 0.72811 0.6714 0.96399 0.0
C292 C 0.81817 0.57819 0.92913 0.0
O293 O 0.77215 0.58836 0.04235 0.0
Mg294 Mg 0.93761 0.49021 0.73629 0.0
O295 O 0.89308 0.4634 0.68911 0.0
O296 O 0.8641 0.41254 0.71167 0.0
Mg297 Mg 0.89179 0.40478 0.77131 0.0
C298 C 0.86871 0.4346 0.68503 0.0
C299 C 0.96426 0.55547 0.68414 0.0
O300 O 0.98939 0.53196 0.67469 0.0
O301 O 0.89488 0.51424 0.77549 0.0
O302 O 0.87434 0.46065 0.7997 0.0
O303 O 0.97907 0.45247 0.71068 0.0
O304 O 0.94264 0.43613 0.75529 0.0
C305 C 0.87615 0.49699 0.79926 0.0
C306 C 0.96675 0.42668 0.73186 0.0
O307 O 0.94075 0.54589 0.70752 0.0
Mg308 Mg 0.75967 0.28391 0.49378 0.0
O309 O 0.78741 0.33447 0.53402 0.0
O310 O 0.84383 0.35126 0.51552 0.0
Mg311 Mg 0.85149 0.31085 0.46204 0.0
C312 C 0.81823 0.35553 0.53839 0.0
C313 C 0.68745 0.27176 0.53665 0.0
O314 O 0.70176 0.23916 0.54201 0.0
O315 O 0.74728 0.32288 0.4467 0.0
O316 O 0.80411 0.33586 0.42695 0.0
O317 O 0.78848 0.24577 0.53271 0.0
O318 O 0.81173 0.26694 0.48119 0.0
C319 C 0.76879 0.33864 0.42432 0.0
C320 C 0.81618 0.24913 0.51148 0.0
O321 O 0.70461 0.2957 0.5178 0.0
Mg322 Mg 0.68809 0.47353 0.26007 0.0
O323 O 0.63831 0.42998 0.23897 0.0
O324 O 0.60528 0.42087 0.2893 0.0
Mg325 Mg 0.63517 0.45582 0.34225 0.0
C326 C 0.6102 0.41449 0.25375 0.0
C327 C 0.71838 0.51546 0.19549 0.0
O328 O 0.73134 0.53765 0.22651 0.0
O329 O 0.64858 0.52019 0.26281 0.0
O330 O 0.61866 0.51043 0.31496 0.0
O331 O 0.72409 0.42758 0.27382 0.0
O332 O 0.68822 0.455 0.31467 0.0
C333 C 0.62489 0.52948 0.28632 0.0
C334 C 0.7112 0.42945 0.30731 0.0
O335 O 0.69834 0.48482 0.19909 0.0
C336 C 0.02002 0.44282 0.38437 0.0
C337 C 0.0518 0.43891 0.36403 0.0
H338 H 0.98283 0.41804 0.4217 0.0
C339 C 0.07185 0.40644 0.36769 0.0
H340 H 0.00388 0.46742 0.38212 0.0
C341 C 0.05998 0.37819 0.39091 0.0
C342 C 0.02744 0.38162 0.41018 0.0
H343 H 0.09644 0.4026 0.35238 0.0
H344 H 0.07565 0.35322 0.39292 0.0
C345 C 0.00781 0.41437 0.4069 0.0
C346 C 0.9104 0.86277 0.5092 0.0
C347 C 0.91227 0.84315 0.54244 0.0
H348 H 0.88015 0.90046 0.47584 0.0
C349 C 0.8872 0.85071 0.57026 0.0
H350 H 0.92953 0.85765 0.48734 0.0
C351 C 0.85941 0.87564 0.56405 0.0
C352 C 0.85568 0.89308 0.52953 0.0
H353 H 0.88841 0.83681 0.59653 0.0
H354 H 0.83965 0.8796 0.58551 0.0
C355 C 0.88215 0.88729 0.50264 0.0
C356 C 0.45413 0.62962 0.87391 0.0
C357 C 0.42134 0.62561 0.84879 0.0
H358 H 0.4918 0.66711 0.91302 0.0
C359 C 0.4037 0.65865 0.8405 0.0
H360 H 0.4684 0.60471 0.88077 0.0
C361 C 0.41669 0.69442 0.85956 0.0
C362 C 0.448 0.69797 0.8867 0.0
H363 H 0.37826 0.65653 0.82142 0.0
H364 H 0.40116 0.71894 0.85436 0.0
C365 C 0.46754 0.66546 0.89236 0.0
C366 C 0.61959 0.30246 0.03488 0.0
C367 C 0.59511 0.27146 0.04267 0.0
H368 H 0.67451 0.32149 0.02114 0.0
C369 C 0.60824 0.23484 0.04236 0.0
H370 H 0.61038 0.33108 0.03492 0.0
C371 C 0.64509 0.22937 0.03456 0.0
C372 C 0.66959 0.2604 0.02681 0.0
H373 H 0.59013 0.21036 0.04829 0.0
H374 H 0.65432 0.20077 0.0346 0.0
C375 C 0.6564 0.29698 0.02698 0.0
C376 C 0.98405 0.62298 0.25509 0.0
C377 C 0.02202 0.61566 0.25817 0.0
H378 H 0.94343 0.66108 0.23794 0.0
C379 C 0.04857 0.64215 0.2456 0.0
H380 H 0.96291 0.60307 0.26449 0.0
C381 C 0.03735 0.67507 0.22995 0.0
C382 C -0.00061 0.68245 0.22692 0.0
H383 H 0.07801 0.63725 0.24737 0.0
H384 H 0.05855 0.69487 0.2205 0.0
C385 C 0.97287 0.65616 0.23981 0.0
C386 C 0.64866 0.82808 0.38758 0.0
C387 C 0.61057 0.83014 0.39308 0.0
H388 H 0.70509 0.84828 0.4073 0.0
C389 C 0.59998 0.85936 0.41881 0.0
H390 H 0.65767 0.80611 0.36767 0.0
C391 C 0.62717 0.88354 0.44156 0.0
C392 C 0.66533 0.87879 0.4389 0.0
H393 H 0.57077 0.86196 0.42329 0.0
H394 H 0.61819 0.90402 0.46304 0.0
C395 C 0.67585 0.85225 0.41034 0.0
C396 C 0.4413 0.41329 0.69873 0.0
C397 C 0.44172 0.37807 0.71505 0.0
H398 H 0.42596 0.4715 0.70481 0.0
C399 C 0.42645 0.37477 0.75032 0.0
H400 H 0.453 0.4167 0.67162 0.0
C401 C 0.41231 0.40596 0.76954 0.0
C402 C 0.41218 0.44135 0.7538 0.0
H403 H 0.42636 0.34825 0.76392 0.0
H404 H 0.40113 0.40214 0.79686 0.0
C405 C 0.42607 0.44462 0.71775 0.0
C406 C 0.88307 0.26886 0.88577 0.0
C407 C 0.90828 0.24091 0.87867 0.0
H408 H 0.83596 0.28476 0.91563 0.0
C409 C 0.90224 0.20526 0.89347 0.0
H410 H 0.88679 0.29655 0.87459 0.0
C411 C 0.87355 0.19882 0.9173 0.0
C412 C 0.84993 0.22761 0.92644 0.0
H413 H 0.92087 0.18294 0.88834 0.0
H414 H 0.87052 0.17154 0.92921 0.0
C415 C 0.85395 0.26213 0.90923 0.0
C416 C 0.33886 0.07268 0.35409 0.0
C417 C 0.33896 0.05664 0.38955 0.0
H418 H 0.35215 0.06556 0.29511 0.0
C419 C 0.35304 0.02078 0.39243 0.0
H420 H 0.32806 0.10026 0.35098 0.0
C421 C 0.36545 0.00074 0.36066 0.0
C422 C 0.36501 0.01618 0.32503 0.0
H423 H 0.35349 0.00736 0.41911 0.0
H424 H 0.37572 0.97298 0.36422 0.0
C425 C 0.35239 0.05281 0.32213 0.0
C426 C 0.20398 0.00813 0.61896 0.0
C427 C 0.2244 0.02654 0.65216 0.0
H428 H 0.19568 0.00349 0.55764 0.0
C429 C 0.25313 0.05505 0.64825 0.0
H430 H 0.18167 0.98604 0.62098 0.0
C431 C 0.2612 0.06502 0.61193 0.0
C432 C 0.24067 0.04674 0.57874 0.0
H433 H 0.2694 0.06978 0.67325 0.0
H434 H 0.28345 0.08719 0.60992 0.0
C435 C 0.21201 0.01815 0.58264 0.0
C436 C 0.19827 0.90475 0.86477 0.0
C437 C 0.21731 0.90996 0.8319 0.0
H438 H 0.19722 0.87878 0.91786 0.0
C439 C 0.25051 0.8921 0.82743 0.0
H440 H 0.17266 0.91817 0.86905 0.0
C441 C 0.26488 0.87024 0.85557 0.0
C442 C 0.24606 0.86516 0.88857 0.0
H443 H 0.26595 0.89566 0.80252 0.0
H444 H 0.29076 0.85722 0.85137 0.0
C445 C 0.21232 0.88219 0.89269 0.0
C446 C 0.35655 0.90748 0.07095 0.0
C447 C 0.32454 0.88136 0.06732 0.0
H448 H 0.39573 0.94465 0.10897 0.0
C449 C 0.30468 0.8766 0.0998 0.0
H450 H 0.37234 0.912 0.04647 0.0
C451 C 0.31833 0.89492 0.1357 0.0
C452 C 0.35174 0.91899 0.13981 0.0
H453 H 0.27985 0.85678 0.0981 0.0
H454 H 0.3037 0.88875 0.16057 0.0
C455 C 0.36981 0.9264 0.10677 0.0
C456 C 0.35089 0.37513 0.06961 0.0
C457 C 0.34789 0.39079 0.03408 0.0
H458 H 0.37948 0.33846 0.10504 0.0
C459 C 0.3753 0.38421 0.00841 0.0
H460 H 0.33038 0.37973 0.09017 0.0
C461 C 0.40384 0.36065 0.01723 0.0
C462 C 0.4051 0.34278 0.05157 0.0
H463 H 0.37388 0.39603 0.98087 0.0
H464 H 0.42372 0.35487 0.99627 0.0
C465 C 0.37897 0.35114 0.07809 0.0
C466 C 0.92589 0.87976 0.25332 0.0
C467 C 0.94171 0.88302 0.21834 0.0
H468 H 0.9004 0.90738 0.29961 0.0
C469 C 0.94195 0.91833 0.20214 0.0
H470 H 0.92523 0.85314 0.26677 0.0
C471 C 0.927 0.94986 0.22109 0.0
C472 C 0.91268 0.94665 0.25693 0.0
H473 H 0.95408 0.92171 0.17524 0.0
H474 H 0.92752 0.97684 0.20831 0.0
C475 C 0.91197 0.91113 0.27246 0.0
C476 C 0.14283 0.74502 0.46492 0.0
C477 C 0.16797 0.73751 0.49562 0.0
H478 H 0.08693 0.75663 0.44656 0.0
C479 C 0.15513 0.73609 0.53229 0.0
H480 H 0.15185 0.74628 0.4363 0.0
C481 C 0.11791 0.74176 0.53809 0.0
C482 C 0.09273 0.74921 0.50741 0.0
H483 H 0.17373 0.73027 0.55653 0.0
H484 H 0.10893 0.74038 0.56672 0.0
C485 C 0.10562 0.75094 0.47079 0.0
C486 C 0.93477 0.65334 0.66384 0.0
C487 C 0.95966 0.66451 0.63711 0.0
H488 H 0.91667 0.61046 0.69943 0.0
C489 C 0.98648 0.63952 0.62616 0.0
H490 H 0.91374 0.67175 0.673 0.0
C491 C 0.98815 0.60412 0.64145 0.0
C492 C 0.96304 0.59296 0.66796 0.0
H493 H 0.0061 0.64719 0.60566 0.0
H494 H 0.00903 0.58547 0.63236 0.0
C495 C 0.93642 0.61805 0.67902 0.0
C496 C 0.18022 0.21002 0.44389 0.0
C497 C 0.19744 0.18663 0.46935 0.0
H498 H 0.13505 0.24491 0.43263 0.0
C499 C 0.18215 0.18175 0.50447 0.0
H500 H 0.19125 0.21437 0.41661 0.0
C501 C 0.15014 0.19932 0.5137 0.0
C502 C 0.13246 0.22203 0.48795 0.0
H503 H 0.19477 0.16411 0.52491 0.0
H504 H 0.139 0.19462 0.54085 0.0
C505 C 0.14796 0.22743 0.45304 0.0
C506 C 0.58795 0.37681 0.19097 0.0
C507 C 0.58126 0.38993 0.22858 0.0
H508 H 0.56603 0.34512 0.13809 0.0
C509 C 0.54601 0.38051 0.2416 0.0
H510 H 0.6148 0.38354 0.18005 0.0
C511 C 0.51794 0.35891 0.21744 0.0
C512 C 0.52458 0.34583 0.17983 0.0
H513 H 0.53982 0.39031 0.27034 0.0
H514 H 0.49108 0.35232 0.22838 0.0
C515 C 0.55998 0.35479 0.16692 0.0
C516 C 0.36509 0.76673 0.04673 0.0
C517 C 0.34566 0.74195 0.01701 0.0
H518 H 0.41885 0.79249 0.07066 0.0
C519 C 0.36548 0.71735 0.99416 0.0
H520 H 0.35027 0.78652 0.06409 0.0
C521 C 0.40458 0.71973 0.99892 0.0
C522 C 0.42414 0.74774 0.02559 0.0
H523 H 0.35096 0.69862 0.97058 0.0
H524 H 0.41948 0.70283 0.97883 0.0
C525 C 0.40422 0.77009 0.05056 0.0
C526 C 0.01882 0.38404 0.72584 0.0
C527 C 0.98118 0.38849 0.73156 0.0
H528 H 0.06488 0.34977 0.73436 0.0
C529 C 0.95899 0.35754 0.74294 0.0
H530 H 0.03649 0.40734 0.71671 0.0
C531 C 0.97507 0.32462 0.75313 0.0
C532 C 0.01375 0.32201 0.75205 0.0
H533 H 0.92954 0.35942 0.74601 0.0
H534 H 0.95766 0.30249 0.76448 0.0
C535 C 0.03503 0.351 0.73601 0.0
C536 C 0.38215 0.23856 0.50628 0.0
C537 C 0.37017 0.20182 0.51585 0.0
H538 H 0.41337 0.29226 0.52424 0.0
C539 C 0.38162 0.19137 0.55254 0.0
H540 H 0.37376 0.24775 0.47843 0.0
C541 C 0.40448 0.21699 0.57893 0.0
C542 C 0.41621 0.25384 0.56942 0.0
H543 H 0.3729 0.16336 0.56099 0.0
H544 H 0.41284 0.2079 0.60684 0.0
C545 C 0.40473 0.26425 0.53274 0.0
C546 C 0.56331 0.61039 0.30454 0.0
C547 C 0.58013 0.63875 0.284 0.0
H548 H 0.56456 0.55353 0.32172 0.0
C549 C 0.6076 0.62874 0.25953 0.0
H550 H 0.54202 0.61711 0.32364 0.0
C551 C 0.62043 0.59223 0.25835 0.0
C552 C 0.60633 0.56515 0.28197 0.0
H553 H 0.62089 0.64987 0.24313 0.0
H554 H 0.64309 0.58616 0.24079 0.0
C555 C 0.5765 0.57402 0.30376 0.0
C556 C 0.1006 0.82964 0.0638 0.0
C557 C 0.0855 0.80559 0.08966 0.0
H558 H 0.14338 0.83944 0.02583 0.0
C559 C 0.10221 0.77154 0.09609 0.0
H560 H 0.0884 0.85603 0.05816 0.0
C561 C 0.13355 0.762 0.07754 0.0
C562 C 0.14903 0.7863 0.05219 0.0
H563 H 0.09123 0.75217 0.11566 0.0
H564 H 0.14583 0.73571 0.08343 0.0
C565 C 0.13213 0.82013 0.04531 0.0
C566 C 0.71314 0.97096 0.65709 0.0
C567 C 0.69629 0.99129 0.62849 0.0
H568 H 0.71156 0.95376 0.71402 0.0
C569 C 0.66872 0.0157 0.63826 0.0
H570 H 0.73453 0.95192 0.65054 0.0
C571 C 0.65564 0.01683 0.67469 0.0
C572 C 0.66959 0.99322 0.70193 0.0
H573 H 0.65544 0.03199 0.61695 0.0
H574 H 0.63281 0.03426 0.68048 0.0
C575 C 0.69971 0.9717 0.69341 0.0
C576 C 0.75227 0.05218 0.38776 0.0
C577 C 0.79012 0.04643 0.38462 0.0
H578 H 0.70477 0.04277 0.41984 0.0
C579 C 0.81113 0.03403 0.41596 0.0
H580 H 0.73548 0.06205 0.36414 0.0
C581 C 0.7937 0.02289 0.4478 0.0
C582 C 0.75485 0.02402 0.44892 0.0
H583 H 0.84066 0.03079 0.41509 0.0
H584 H 0.81024 0.01078 0.47018 0.0
C585 C 0.73471 0.04106 0.41973 0.0
C586 C 0.83405 0.10996 0.11794 0.0
C587 C 0.80599 0.13281 0.10521 0.0
H588 H 0.85612 0.07845 0.1627 0.0
C589 C 0.77761 0.14094 0.12933 0.0
H590 H 0.85643 0.10314 0.10026 0.0
C591 C 0.77741 0.12659 0.16533 0.0
C592 C 0.8057 0.10402 0.17806 0.0
H593 H 0.75556 0.15845 0.12046 0.0
H594 H 0.7552 0.13337 0.18324 0.0
C595 C 0.83397 0.09586 0.15391 0.0
C596 C 0.72016 0.03671 0.89189 0.0
C597 C 0.68508 0.0484 0.87919 0.0
H598 H 0.7728 0.0518 0.92461 0.0
C599 C 0.67612 0.08544 0.89143 0.0
H600 H 0.72808 0.00841 0.88296 0.0
C601 C 0.70177 0.11028 0.91561 0.0
C602 C 0.7371 0.09877 0.92774 0.0
H603 H 0.64933 0.09532 0.88227 0.0
H604 H 0.69408 0.13873 0.9243 0.0
C605 C 0.74592 0.06165 0.9157 0.0
C606 C 0.64329 0.72863 0.9538 0.0
C607 C 0.62845 0.72536 0.9894 0.0
H608 H 0.68668 0.71454 0.91791 0.0
C609 C 0.64759 0.70582 0.01705 0.0
H610 H 0.62927 0.74374 0.93196 0.0
C611 C 0.6803 0.68897 0.00893 0.0
C612 C 0.69481 0.69156 0.97308 0.0
H613 H 0.63699 0.70288 0.04478 0.0
H614 H 0.69401 0.67359 0.03074 0.0
C615 C 0.67626 0.71206 0.94579 0.0
C616 C 0.0641 0.07412 0.79919 0.0
C617 C 0.09344 0.06574 0.77649 0.0
H618 H 0.03018 0.11694 0.82098 0.0
C619 C 0.10665 0.09324 0.75284 0.0
H620 H 0.05284 0.05333 0.81722 0.0
C621 C 0.09375 0.12974 0.75509 0.0
C622 C 0.06708 0.13931 0.78065 0.0
H623 H 0.12886 0.08759 0.73456 0.0
H624 H 0.10656 0.15124 0.73877 0.0
C625 C 0.05083 0.11051 0.80103 0.0
C626 C 0.91291 0.27316 0.55676 0.0
C627 C 0.9329 0.25014 0.53247 0.0
H628 H 0.85883 0.28911 0.57038 0.0
C629 C 0.91352 0.22063 0.5074 0.0
H630 H 0.92737 0.29664 0.57563 0.0
C631 C 0.87437 0.21721 0.50344 0.0
C632 C 0.85436 0.24236 0.52549 0.0
H633 H 0.92843 0.20321 0.48775 0.0
H634 H 0.85985 0.19721 0.48088 0.0
C635 C 0.87378 0.26885 0.55374 0.0
C636 C 0.51645 0.93843 0.87799 0.0
C637 C 0.54934 0.9346 0.85947 0.0
H638 H 0.47739 0.91375 0.91352 0.0
C639 C 0.56932 0.9023 0.86446 0.0
H640 H 0.50033 0.9629 0.87466 0.0
C641 C 0.55632 0.87417 0.88726 0.0
C642 C 0.52275 0.87756 0.90475 0.0
H643 H 0.59474 0.89854 0.85054 0.0
H644 H 0.57199 0.84935 0.89038 0.0
C645 C 0.50315 0.91011 0.90009 0.0
C646 C 0.97177 0.16957 0.39645 0.0
C647 C 0.95241 0.20238 0.39183 0.0
H648 H 0.97203 0.10891 0.38355 0.0
C649 C 0.92074 0.19958 0.3652 0.0
H650 H 0.99628 0.17067 0.41671 0.0
C651 C 0.90729 0.16421 0.34557 0.0
C652 C 0.92481 0.13082 0.35282 0.0
H653 H 0.90534 0.22436 0.36081 0.0
H654 H 0.88161 0.1626 0.32691 0.0
C655 C 0.95789 0.13411 0.37746 0.0
C656 C 0.54873 0.13722 0.74159 0.0
C657 C 0.52221 0.11015 0.75327 0.0
H658 H 0.55858 0.19041 0.71736 0.0
C659 C 0.48409 0.11685 0.7494 0.0
H660 H 0.57828 0.1328 0.74398 0.0
C661 C 0.47275 0.15004 0.73425 0.0
C662 C 0.49928 0.17695 0.72231 0.0
H663 H 0.46297 0.09649 0.75811 0.0
H664 H 0.44322 0.1545 0.73177 0.0
C665 C 0.53738 0.17014 0.72609 0.0
C666 C 0.11847 0.38143 0.94317 0.0
C667 C 0.15652 0.37598 0.94059 0.0
H668 H 0.0618 0.36071 0.92495 0.0
C669 C 0.16661 0.34864 0.91256 0.0
H670 H 0.10983 0.4025 0.9643 0.0
C671 C 0.13909 0.32467 0.89005 0.0
C672 C 0.10106 0.32767 0.89525 0.0
H673 H 0.19574 0.34407 0.90963 0.0
H674 H 0.14778 0.30225 0.87043 0.0
C675 C 0.09094 0.35741 0.92068 0.0
C676 C 0.41569 0.70335 0.39745 0.0
C677 C 0.41987 0.73754 0.37966 0.0
H678 H 0.38538 0.67122 0.43544 0.0
C679 C 0.39288 0.76416 0.38378 0.0
H680 H 0.43582 0.68209 0.39474 0.0
C681 C 0.36361 0.75768 0.40708 0.0
C682 C 0.36117 0.72477 0.42711 0.0
H683 H 0.3952 0.79071 0.37027 0.0
H684 H 0.34409 0.77938 0.41098 0.0
C685 C 0.38685 0.6972 0.42114 0.0
C686 C 0.85975 0.50306 0.86666 0.0
C687 C 0.8611 0.51923 0.83151 0.0
H688 H 0.84649 0.50933 0.92473 0.0
C689 C 0.84994 0.55648 0.82895 0.0
H690 H 0.86879 0.47474 0.86997 0.0
C691 C 0.83643 0.57648 0.86079 0.0
C692 C 0.83508 0.55989 0.89584 0.0
H693 H 0.85104 0.56979 0.8023 0.0
H694 H 0.82696 0.60468 0.85797 0.0
C695 C 0.84735 0.52319 0.89837 0.0
C696 C 0.71259 0.50294 0.12382 0.0
C697 C 0.72697 0.52615 0.15714 0.0
H698 H 0.70903 0.49484 0.06248 0.0
C699 C 0.74963 0.55984 0.15353 0.0
H700 H 0.69504 0.4768 0.12564 0.0
C701 C 0.75769 0.57015 0.11735 0.0
C702 C 0.74321 0.54702 0.08401 0.0
H703 H 0.76117 0.57834 0.17865 0.0
H704 H 0.77518 0.59635 0.11555 0.0
C705 C 0.72061 0.51328 0.08762 0.0
C706 C 0.7713 0.3646 0.36062 0.0
C707 C 0.75262 0.36043 0.39385 0.0
H708 H 0.77235 0.38895 0.307 0.0
C709 C 0.71897 0.37767 0.39771 0.0
H710 H 0.79711 0.35134 0.35666 0.0
C711 C 0.70498 0.39978 0.36937 0.0
C712 C 0.72399 0.40425 0.33635 0.0
H713 H 0.70399 0.37492 0.42306 0.0
H714 H 0.67952 0.41352 0.37349 0.0
C715 C 0.75696 0.38594 0.33204 0.0
C716 C 0.86881 0.4297 0.61348 0.0
C717 C 0.85045 0.42176 0.64621 0.0
H718 H 0.87322 0.41473 0.55357 0.0
C719 C 0.81818 0.39604 0.64178 0.0
H720 H 0.8939 0.44922 0.61593 0.0
C721 C 0.80607 0.37664 0.60594 0.0
C722 C 0.82641 0.38198 0.57389 0.0
H723 H 0.8034 0.38938 0.66642 0.0
H724 H 0.78219 0.35558 0.60403 0.0
C725 C 0.85713 0.40972 0.57774 0.0
C726 C 0.4645 0.1071 0.16213 0.0
C727 C 0.45346 0.1071 0.19969 0.0
H728 H 0.47345 0.13987 0.11432 0.0
C729 C 0.44375 0.1414 0.21835 0.0
H730 H 0.47232 0.08108 0.14712 0.0
C731 C 0.44386 0.17474 0.19944 0.0
C732 C 0.45437 0.17472 0.16171 0.0
H733 H 0.43511 0.14232 0.24727 0.0
H734 H 0.43547 0.20055 0.21436 0.0
C735 C 0.46534 0.14075 0.14344 0.0
C736 C 0.01692 0.85221 0.70827 0.0
C737 C 0.02537 0.84045 0.67088 0.0
H738 H 0.03539 0.88447 0.76178 0.0
C739 C 0.06061 0.85236 0.65921 0.0
H740 H 0.99012 0.8434 0.71825 0.0
C741 C 0.08652 0.87613 0.68409 0.0
C742 C 0.07793 0.88819 0.72136 0.0
H743 H 0.06805 0.84385 0.63058 0.0
H744 H 0.11321 0.88517 0.67401 0.0
C745 C 0.04298 0.87564 0.73329 0.0
C746 C 0.53779 0.84474 0.23073 0.0
C747 C 0.51855 0.81728 0.25058 0.0
H748 H 0.53678 0.89909 0.20741 0.0
C749 C 0.48036 0.82026 0.25498 0.0
H750 H 0.56715 0.84315 0.22643 0.0
C751 C 0.46316 0.85237 0.24424 0.0
C752 C 0.48364 0.88203 0.22865 0.0
H753 H 0.46441 0.79929 0.2694 0.0
H754 H 0.43443 0.8548 0.25025 0.0
C755 C 0.52041 0.87688 0.21981 0.0
C756 C 0.87993 0.74291 0.01091 0.0
C757 C 0.86802 0.70625 0.02072 0.0
H758 H 0.9113 0.7966 0.02842 0.0
C759 C 0.87976 0.69593 0.05739 0.0
H760 H 0.87132 0.75199 0.98307 0.0
C761 C 0.90285 0.7216 0.08351 0.0
C762 C 0.9145 0.75838 0.07376 0.0
H763 H 0.8711 0.66797 0.066 0.0
H764 H 0.91144 0.71262 0.1114 0.0
C765 C 0.90272 0.76866 0.03711 0.0
C766 C 0.6033 0.26588 0.59456 0.0
C767 C 0.58764 0.30059 0.58853 0.0
H768 H 0.64676 0.22953 0.58283 0.0
C769 C 0.60442 0.32521 0.56417 0.0
H770 H 0.59098 0.24605 0.61293 0.0
C771 C 0.63664 0.31567 0.54693 0.0
C772 C 0.65256 0.28123 0.55355 0.0
H773 H 0.59307 0.35211 0.55889 0.0
H774 H 0.64924 0.33547 0.5287 0.0
C775 C 0.6353 0.2563 0.57722 0.0
C776 C 0.20853 0.4754 0.15588 0.0
C777 C 0.19002 0.49397 0.12686 0.0
H778 H 0.20918 0.45996 0.21358 0.0
C779 C 0.16151 0.51728 0.1365 0.0
H780 H 0.23073 0.45732 0.14954 0.0
C781 C 0.14927 0.51889 0.17334 0.0
C782 C 0.16503 0.49688 0.2011 0.0
H783 H 0.14692 0.53223 0.1149 0.0
H784 H 0.12573 0.53531 0.17913 0.0
C785 C 0.19594 0.47659 0.19257 0.0
C786 C 0.24979 0.54671 0.88449 0.0
C787 C 0.2871 0.53876 0.88106 0.0
H788 H 0.20213 0.54027 0.91695 0.0
C789 C 0.30718 0.52478 0.91211 0.0
H790 H 0.2337 0.55781 0.86113 0.0
C791 C 0.28928 0.51479 0.94408 0.0
C792 C 0.25081 0.51849 0.94562 0.0
H793 H 0.33627 0.51959 0.91103 0.0
H794 H 0.30508 0.50169 0.96629 0.0
C795 C 0.23173 0.53662 0.91654 0.0
C796 C 0.28226 0.64189 0.62901 0.0
C797 C 0.30881 0.63056 0.60388 0.0
H798 H 0.26043 0.63665 0.68361 0.0
C799 C 0.33389 0.60406 0.61531 0.0
H800 H 0.26252 0.66224 0.62115 0.0
C801 C 0.33279 0.5896 0.65103 0.0
C802 C 0.3065 0.6011 0.67629 0.0
H803 H 0.35475 0.59462 0.59682 0.0
H804 H 0.35271 0.56939 0.65881 0.0
C805 C 0.28108 0.62726 0.66483 0.0
C806 C 0.22277 0.53838 0.39054 0.0
C807 C 0.18792 0.55113 0.37867 0.0
H808 H 0.27608 0.55182 0.42232 0.0
C809 C 0.18024 0.58853 0.39122 0.0
H810 H 0.22973 0.50979 0.38136 0.0
C811 C 0.20688 0.61264 0.41501 0.0
C812 C 0.24192 0.59999 0.42643 0.0
H813 H 0.15367 0.59923 0.38269 0.0
H814 H 0.20013 0.64135 0.42407 0.0
C815 C 0.24948 0.56256 0.41397 0.0
loop_
_geom_bond_atom_site_label_1
_geom_bond_atom_site_label_2
_geom_bond_distance
_geom_bond_site_symmetry_2
_ccdc_geom_bond_type
Mg0 O1 2.028 . S
Mg0 O7 1.986 . S
Mg0 O9 2.114 1_455 S
Mg0 O10 2.251 1_455 S
Mg0 O13 2.010 . S
O1 Mg0 2.028 . S
O1 C4 1.250 1_455 S
O2 Mg3 2.028 . S
O2 C4 1.248 . S
Mg3 O2 2.028 . S
Mg3 O8 2.032 . S
Mg3 O10 2.079 . S
C4 O1 1.250 1_655 S
C4 O2 1.248 . S
C5 O6 1.264 . S
C5 O13 1.249 . S
O6 C5 1.264 . S
O7 Mg0 1.986 . S
O7 C11 1.246 . S
O8 Mg3 2.032 . S
O8 C11 1.259 1_655 S
O9 Mg0 2.114 1_655 S
O9 C12 1.252 . S
O10 Mg0 2.251 1_655 S
O10 Mg3 2.079 . S
O10 C12 1.273 . S
C11 O7 1.246 . S
C11 O8 1.259 1_455 S
C12 O9 1.252 . S
C12 O10 1.273 . S
O13 Mg0 2.010 . S
O13 C5 1.249 . S
Mg14 O15 2.028 . S
Mg14 O21 1.987 . S
Mg14 O23 2.114 1_455 S
Mg14 O24 2.251 1_455 S
Mg14 O27 2.010 . S
O15 Mg14 2.028 . S
O15 C18 1.250 . S
O16 Mg17 2.028 1_455 S
O16 C18 1.248 . S
Mg17 O16 2.028 1_655 S
Mg17 O22 2.032 . S
Mg17 O24 2.079 . S
C18 O15 1.250 . S
C18 O16 1.248 . S
C19 O20 1.264 . S
C19 O27 1.249 . S
O20 C19 1.264 . S
O21 Mg14 1.987 . S
O21 C25 1.239 1_455 S
O22 Mg17 2.032 . S
O22 C25 1.259 . S
O23 Mg14 2.114 1_655 S
O23 C26 1.252 . S
O24 Mg14 2.251 1_655 S
O24 Mg17 2.079 . S
O24 C26 1.273 . S
C25 O21 1.239 1_655 S
C25 O22 1.259 . S
C26 O23 1.252 . S
C26 O24 1.273 . S
O27 Mg14 2.010 . S
O27 C19 1.249 . S
Mg28 O29 2.028 . S
Mg28 O35 1.986 . S
Mg28 O37 2.114 . S
Mg28 O38 2.251 . S
Mg28 O41 2.010 . S
O29 Mg28 2.028 . S
O29 C32 1.250 . S
O30 Mg31 2.028 . S
O30 C32 1.248 . S
Mg31 O30 2.028 . S
Mg31 O36 2.032 . S
Mg31 O38 2.079 . S
C32 O29 1.250 . S
C32 O30 1.248 . S
C33 O34 1.264 . S
C33 O41 1.249 . S
O34 C33 1.264 . S
O35 Mg28 1.986 . S
O35 C39 1.246 . S
O36 Mg31 2.032 . S
O36 C39 1.259 . S
O37 Mg28 2.114 . S
O37 C40 1.252 . S
O38 Mg28 2.251 . S
O38 Mg31 2.079 . S
O38 C40 1.273 . S
C39 O35 1.246 . S
C39 O36 1.259 . S
C40 O37 1.252 . S
C40 O38 1.273 . S
O41 Mg28 2.010 . S
O41 C33 1.249 . S
Mg42 O43 2.028 . S
Mg42 O49 1.986 . S
Mg42 O51 2.114 . S
Mg42 O52 2.251 . S
Mg42 O55 2.010 . S
O43 Mg42 2.028 . S
O43 C46 1.250 . S
O44 Mg45 2.028 . S
O44 C46 1.248 . S
Mg45 O44 2.028 . S
Mg45 O50 2.032 . S
Mg45 O52 2.079 . S
C46 O43 1.250 . S
C46 O44 1.248 . S
C47 O48 1.264 . S
C47 O55 1.249 . S
O48 C47 1.264 . S
O49 Mg42 1.986 . S
O49 C53 1.246 . S
O50 Mg45 2.032 . S
O50 C53 1.259 . S
O51 Mg42 2.114 . S
O51 C54 1.252 . S
O52 Mg42 2.251 . S
O52 Mg45 2.079 . S
O52 C54 1.273 . S
C53 O49 1.246 . S
C53 O50 1.259 . S
C54 O51 1.252 . S
C54 O52 1.273 . S
O55 Mg42 2.010 . S
O55 C47 1.249 . S
Mg56 O57 2.028 1_455 S
Mg56 O63 1.986 . S
Mg56 O65 2.114 1_455 S
Mg56 O66 2.251 1_455 S
Mg56 O69 2.010 . S
O57 Mg56 2.028 1_655 S
O57 C60 1.250 . S
O58 Mg59 2.028 . S
O58 C60 1.248 . S
Mg59 O58 2.028 . S
Mg59 O64 2.032 1_655 S
Mg59 O66 2.079 . S
C60 O57 1.250 . S
C60 O58 1.248 . S
C61 O62 1.264 . S
C61 O69 1.249 . S
O62 C61 1.264 . S
O63 Mg56 1.986 . S
O63 C67 1.246 . S
O64 Mg59 2.032 1_455 S
O64 C67 1.259 . S
O65 Mg56 2.114 1_655 S
O65 C68 1.252 . S
O66 Mg56 2.251 1_655 S
O66 Mg59 2.079 . S
O66 C68 1.273 . S
C67 O63 1.246 . S
C67 O64 1.259 . S
C68 O65 1.252 . S
C68 O66 1.273 . S
O69 Mg56 2.010 . S
O69 C61 1.249 . S
Mg70 O71 2.028 . S
Mg70 O77 1.986 . S
Mg70 O79 2.114 . S
Mg70 O80 2.251 . S
Mg70 O83 2.010 . S
O71 Mg70 2.028 . S
O71 C74 1.250 . S
O72 Mg73 2.028 . S
O72 C74 1.248 . S
Mg73 O72 2.028 . S
Mg73 O78 2.032 . S
Mg73 O80 2.079 . S
C74 O71 1.250 . S
C74 O72 1.248 . S
C75 O76 1.264 . S
C75 O83 1.249 . S
O76 C75 1.264 . S
O77 Mg70 1.986 . S
O77 C81 1.246 . S
O78 Mg73 2.032 . S
O78 C81 1.259 . S
O79 Mg70 2.114 . S
O79 C82 1.252 . S
O80 Mg70 2.251 . S
O80 Mg73 2.079 . S
O80 C82 1.273 . S
C81 O77 1.246 . S
C81 O78 1.259 . S
C82 O79 1.252 . S
C82 O80 1.273 . S
O83 Mg70 2.010 . S
O83 C75 1.249 . S
Mg84 O85 2.028 . S
Mg84 O91 1.986 . S
Mg84 O93 2.114 . S
Mg84 O94 2.251 . S
Mg84 O97 2.010 . S
O85 Mg84 2.028 . S
O85 C88 1.250 . S
O86 Mg87 2.028 . S
O86 C88 1.248 . S
Mg87 O86 2.028 . S
Mg87 O92 2.032 . S
Mg87 O94 2.079 . S
C88 O85 1.250 . S
C88 O86 1.248 . S
C89 O90 1.264 . S
C89 O97 1.249 . S
O90 C89 1.264 . S
O91 Mg84 1.986 . S
O91 C95 1.246 . S
O92 Mg87 2.032 . S
O92 C95 1.259 . S
O93 Mg84 2.114 . S
O93 C96 1.252 . S
O94 Mg84 2.251 . S
O94 Mg87 2.079 . S
O94 C96 1.273 . S
C95 O91 1.246 . S
C95 O92 1.259 . S
C96 O93 1.252 . S
C96 O94 1.273 . S
O97 Mg84 2.010 . S
O97 C89 1.249 . S
Mg98 O99 2.028 1_455 S
Mg98 O105 1.986 . S
Mg98 O107 2.114 . S
Mg98 O108 2.251 . S
Mg98 O111 2.010 1_455 S
O99 Mg98 2.028 1_655 S
O99 C102 1.250 . S
O100 Mg101 2.028 . S
O100 C102 1.248 1_455 S
Mg101 O100 2.028 . S
Mg101 O106 2.032 . S
Mg101 O108 2.079 . S
C102 O99 1.250 . S
C102 O100 1.248 1_655 S
C103 O104 1.264 . S
C103 O111 1.249 . S
O104 C103 1.264 . S
O105 Mg98 1.986 . S
O105 C109 1.246 . S
O106 Mg101 2.032 . S
O106 C109 1.259 . S
O107 Mg98 2.114 . S
O107 C110 1.252 . S
O108 Mg98 2.251 . S
O108 Mg101 2.079 . S
O108 C110 1.273 . S
C109 O105 1.246 . S
C109 O106 1.259 . S
C110 O107 1.252 . S
C110 O108 1.273 . S
O111 Mg98 2.010 1_655 S
O111 C103 1.249 . S
Mg112 O113 2.028 1_545 S
Mg112 O119 1.986 . S
Mg112 O121 2.114 1_545 S
Mg112 O122 2.251 1_545 S
Mg112 O125 2.010 . S
O113 Mg112 2.028 1_565 S
O113 C116 1.250 . S
O114 Mg115 2.028 . S
O114 C116 1.248 . S
Mg115 O114 2.028 . S
Mg115 O120 2.032 . S
Mg115 O122 2.079 . S
C116 O113 1.250 . S
C116 O114 1.248 . S
C117 O118 1.264 . S
C117 O125 1.249 . S
O118 C117 1.264 . S
O119 Mg112 1.986 . S
O119 C123 1.246 . S
O120 Mg115 2.032 . S
O120 C123 1.259 1_565 S
O121 Mg112 2.114 1_565 S
O121 C124 1.252 . S
O122 Mg112 2.251 1_565 S
O122 Mg115 2.079 . S
O122 C124 1.273 . S
C123 O119 1.246 . S
C123 O120 1.259 1_545 S
C124 O121 1.252 . S
C124 O122 1.273 . S
O125 Mg112 2.010 . S
O125 C117 1.249 . S
Mg126 O127 2.028 . S
Mg126 O133 1.986 . S
Mg126 O135 2.114 . S
Mg126 O136 2.251 . S
Mg126 O139 2.010 . S
O127 Mg126 2.028 . S
O127 C130 1.250 . S
O128 Mg129 2.028 . S
O128 C130 1.248 . S
Mg129 O128 2.028 . S
Mg129 O134 2.032 . S
Mg129 O136 2.079 . S
C130 O127 1.250 . S
C130 O128 1.248 . S
C131 O132 1.264 . S
C131 O139 1.249 . S
O132 C131 1.264 . S
O133 Mg126 1.986 . S
O133 C137 1.246 . S
O134 Mg129 2.032 . S
O134 C137 1.259 . S
O135 Mg126 2.114 . S
O135 C138 1.252 . S
O136 Mg126 2.251 . S
O136 Mg129 2.079 . S
O136 C138 1.273 . S
C137 O133 1.246 . S
C137 O134 1.259 . S
C138 O135 1.252 . S
C138 O136 1.273 . S
O139 Mg126 2.010 . S
O139 C131 1.249 . S
Mg140 O141 2.028 1_545 S
Mg140 O147 1.986 . S
Mg140 O149 2.114 1_545 S
Mg140 O150 2.251 1_545 S
Mg140 O153 2.010 . S
O141 Mg140 2.028 1_565 S
O141 C144 1.250 . S
O142 Mg143 2.028 . S
O142 C144 1.248 . S
Mg143 O142 2.028 . S
Mg143 O148 2.032 1_565 S
Mg143 O150 2.079 . S
C144 O141 1.250 . S
C144 O142 1.248 . S
C145 O146 1.264 . S
C145 O153 1.249 . S
O146 C145 1.264 . S
O147 Mg140 1.986 . S
O147 C151 1.246 . S
O148 Mg143 2.032 1_545 S
O148 C151 1.259 . S
O149 Mg140 2.114 1_565 S
O149 C152 1.252 . S
O150 Mg140 2.251 1_565 S
O150 Mg143 2.079 . S
O150 C152 1.273 . S
C151 O147 1.246 . S
C151 O148 1.259 . S
C152 O149 1.252 . S
C152 O150 1.273 . S
O153 Mg140 2.010 . S
O153 C145 1.249 . S
Mg154 O155 2.028 1_556 S
Mg154 O161 1.986 . S
Mg154 O163 2.114 1_556 S
Mg154 O164 2.251 . S
Mg154 O167 2.010 1_556 S
O155 Mg154 2.028 1_554 S
O155 C158 1.250 . S
O156 Mg157 2.028 1_554 S
O156 C158 1.248 . S
Mg157 O156 2.028 1_556 S
Mg157 O162 2.032 . S
Mg157 O164 2.079 . S
C158 O155 1.250 . S
C158 O156 1.248 . S
C159 O160 1.264 . S
C159 O167 1.249 . S
O160 C159 1.264 . S
O161 Mg154 1.986 . S
O161 C165 1.246 . S
O162 Mg157 2.032 . S
O162 C165 1.259 . S
O163 Mg154 2.114 1_554 S
O163 C166 1.252 1_554 S
O164 Mg154 2.251 . S
O164 Mg157 2.079 . S
O164 C166 1.273 . S
C165 O161 1.246 . S
C165 O162 1.259 . S
C166 O163 1.252 1_556 S
C166 O164 1.273 . S
O167 Mg154 2.010 1_554 S
O167 C159 1.249 . S
Mg168 O169 2.028 1_554 S
Mg168 O175 1.986 . S
Mg168 O177 2.114 1_554 S
Mg168 O178 2.251 1_554 S
Mg168 O181 2.010 . S
O169 Mg168 2.028 1_556 S
O169 C172 1.250 . S
O170 Mg171 2.028 . S
O170 C172 1.248 . S
Mg171 O170 2.028 . S
Mg171 O176 2.032 1_556 S
Mg171 O178 2.079 . S
C172 O169 1.250 . S
C172 O170 1.248 . S
C173 O174 1.264 . S
C173 O181 1.249 . S
O174 C173 1.264 . S
O175 Mg168 1.986 . S
O175 C179 1.246 . S
O176 Mg171 2.032 1_554 S
O176 C179 1.259 . S
O177 Mg168 2.114 1_556 S
O177 C180 1.252 . S
O178 Mg168 2.251 1_556 S
O178 Mg171 2.079 . S
O178 C180 1.273 . S
C179 O175 1.246 . S
C179 O176 1.259 . S
C180 O177 1.252 . S
C180 O178 1.273 . S
O181 Mg168 2.010 . S
O181 C173 1.249 . S
Mg182 O183 2.028 1_554 S
Mg182 O189 1.986 . S
Mg182 O191 2.114 1_554 S
Mg182 O192 2.251 1_554 S
Mg182 O195 2.010 . S
O183 Mg182 2.028 1_556 S
O183 C186 1.250 . S
O184 Mg185 2.028 . S
O184 C186 1.248 . S
Mg185 O184 2.028 . S
Mg185 O190 2.032 1_556 S
Mg185 O192 2.079 . S
C186 O183 1.250 . S
C186 O184 1.248 . S
C187 O188 1.264 . S
C187 O195 1.249 . S
O188 C187 1.264 . S
O189 Mg182 1.986 . S
O189 C193 1.246 . S
O190 Mg185 2.032 1_554 S
O190 C193 1.259 . S
O191 Mg182 2.114 1_556 S
O191 C194 1.252 . S
O192 Mg182 2.251 1_556 S
O192 Mg185 2.079 . S
O192 C194 1.273 . S
C193 O189 1.246 . S
C193 O190 1.259 . S
C194 O191 1.252 . S
C194 O192 1.273 . S
O195 Mg182 2.010 . S
O195 C187 1.249 . S
Mg196 O197 2.028 . S
Mg196 O203 1.986 . S
Mg196 O205 2.114 . S
Mg196 O206 2.251 . S
Mg196 O209 2.010 . S
O197 Mg196 2.028 . S
O197 C200 1.250 . S
O198 Mg199 2.028 . S
O198 C200 1.248 . S
Mg199 O198 2.028 . S
Mg199 O204 2.032 . S
Mg199 O206 2.079 . S
C200 O197 1.250 . S
C200 O198 1.248 . S
C201 O202 1.264 . S
C201 O209 1.249 . S
O202 C201 1.264 . S
O203 Mg196 1.986 . S
O203 C207 1.246 . S
O204 Mg199 2.032 . S
O204 C207 1.259 . S
O205 Mg196 2.114 . S
O205 C208 1.252 . S
O206 Mg196 2.251 . S
O206 Mg199 2.079 . S
O206 C208 1.273 . S
C207 O203 1.246 . S
C207 O204 1.259 . S
C208 O205 1.252 . S
C208 O206 1.273 . S
O209 Mg196 2.010 . S
O209 C201 1.249 . S
Mg210 O211 2.028 . S
Mg210 O217 1.986 . S
Mg210 O219 2.114 . S
Mg210 O220 2.251 . S
Mg210 O223 2.010 . S
O211 Mg210 2.028 . S
O211 C214 1.250 . S
O212 Mg213 2.028 . S
O212 C214 1.248 . S
Mg213 O212 2.028 . S
Mg213 O218 2.032 . S
Mg213 O220 2.079 . S
C214 O211 1.250 . S
C214 O212 1.248 . S
C215 O216 1.264 . S
C215 O223 1.249 . S
O216 C215 1.264 . S
O217 Mg210 1.986 . S
O217 C221 1.246 . S
O218 Mg213 2.032 . S
O218 C221 1.259 . S
O219 Mg210 2.114 . S
O219 C222 1.252 . S
O220 Mg210 2.251 . S
O220 Mg213 2.079 . S
O220 C222 1.273 . S
C221 O217 1.246 . S
C221 O218 1.259 . S
C222 O219 1.252 . S
C222 O220 1.273 . S
O223 Mg210 2.010 . S
O223 C215 1.249 . S
Mg224 O225 2.028 . S
Mg224 O231 1.986 1_545 S
Mg224 O233 2.114 . S
Mg224 O234 2.251 1_545 S
Mg224 O237 2.010 . S
O225 Mg224 2.028 . S
O225 C228 1.250 . S
O226 Mg227 2.028 1_545 S
O226 C228 1.248 . S
Mg227 O226 2.028 1_565 S
Mg227 O232 2.032 . S
Mg227 O234 2.079 . S
C228 O225 1.250 . S
C228 O226 1.248 . S
C229 O230 1.264 . S
C229 O237 1.249 . S
O230 C229 1.264 . S
O231 Mg224 1.986 1_565 S
O231 C235 1.246 . S
O232 Mg227 2.032 . S
O232 C235 1.259 . S
O233 Mg224 2.114 . S
O233 C236 1.252 1_545 S
O234 Mg224 2.251 1_565 S
O234 Mg227 2.079 . S
O234 C236 1.273 . S
C235 O231 1.246 . S
C235 O232 1.259 . S
C236 O233 1.252 1_565 S
C236 O234 1.273 . S
O237 Mg224 2.010 . S
O237 C229 1.249 . S
Mg238 O239 2.028 . S
Mg238 O245 1.986 . S
Mg238 O247 2.114 . S
Mg238 O248 2.251 . S
Mg238 O251 2.010 . S
O239 Mg238 2.028 . S
O239 C242 1.250 . S
O240 Mg241 2.028 . S
O240 C242 1.248 . S
Mg241 O240 2.028 . S
Mg241 O246 2.032 . S
Mg241 O248 2.079 . S
C242 O239 1.250 . S
C242 O240 1.248 . S
C243 O244 1.264 . S
C243 O251 1.249 . S
O244 C243 1.264 . S
O245 Mg238 1.986 . S
O245 C249 1.246 . S
O246 Mg241 2.032 . S
O246 C249 1.259 . S
O247 Mg238 2.114 . S
O247 C250 1.252 . S
O248 Mg238 2.251 . S
O248 Mg241 2.079 . S
O248 C250 1.273 . S
C249 O245 1.246 . S
C249 O246 1.259 . S
C250 O247 1.252 . S
C250 O248 1.273 . S
O251 Mg238 2.010 . S
O251 C243 1.249 . S
Mg252 O253 2.028 . S
Mg252 O259 1.986 . S
Mg252 O261 2.114 . S
Mg252 O262 2.251 . S
Mg252 O265 2.010 . S
O253 Mg252 2.028 . S
O253 C256 1.250 . S
O254 Mg255 2.028 . S
O254 C256 1.248 . S
Mg255 O254 2.028 . S
Mg255 O260 2.032 . S
Mg255 O262 2.079 . S
C256 O253 1.250 . S
C256 O254 1.248 . S
C257 O258 1.264 . S
C257 O265 1.249 . S
O258 C257 1.264 . S
O259 Mg252 1.986 . S
O259 C263 1.246 . S
O260 Mg255 2.032 . S
O260 C263 1.259 . S
O261 Mg252 2.114 . S
O261 C264 1.252 . S
O262 Mg252 2.251 . S
O262 Mg255 2.079 . S
O262 C264 1.273 . S
C263 O259 1.246 . S
C263 O260 1.259 . S
C264 O261 1.252 . S
C264 O262 1.273 . S
O265 Mg252 2.010 . S
O265 C257 1.249 . S
Mg266 O267 2.028 . S
Mg266 O273 1.986 . S
Mg266 O275 2.114 1_545 S
Mg266 O276 2.251 1_545 S
Mg266 O279 2.010 . S
O267 Mg266 2.028 . S
O267 C270 1.250 . S
O268 Mg269 2.028 1_545 S
O268 C270 1.248 . S
Mg269 O268 2.028 1_565 S
Mg269 O274 2.032 . S
Mg269 O276 2.079 . S
C270 O267 1.250 . S
C270 O268 1.248 . S
C271 O272 1.264 . S
C271 O279 1.249 . S
O272 C271 1.264 . S
O273 Mg266 1.986 . S
O273 C277 1.246 1_545 S
O274 Mg269 2.032 . S
O274 C277 1.259 . S
O275 Mg266 2.114 1_565 S
O275 C278 1.252 . S
O276 Mg266 2.251 1_565 S
O276 Mg269 2.079 . S
O276 C278 1.273 . S
C277 O273 1.246 1_565 S
C277 O274 1.259 . S
C278 O275 1.252 . S
C278 O276 1.273 . S
O279 Mg266 2.010 . S
O279 C271 1.249 . S
Mg280 O281 2.028 1_556 S
Mg280 O287 1.986 . S
Mg280 O289 2.114 . S
Mg280 O290 2.251 . S
Mg280 O293 2.010 1_556 S
O281 Mg280 2.028 1_554 S
O281 C284 1.250 . S
O282 Mg283 2.028 . S
O282 C284 1.248 1_556 S
Mg283 O282 2.028 . S
Mg283 O288 2.032 . S
Mg283 O290 2.079 . S
C284 O281 1.250 . S
C284 O282 1.248 1_554 S
C285 O286 1.264 . S
C285 O293 1.249 . S
O286 C285 1.264 . S
O287 Mg280 1.986 . S
O287 C291 1.246 . S
O288 Mg283 2.032 . S
O288 C291 1.259 . S
O289 Mg280 2.114 . S
O289 C292 1.252 . S
O290 Mg280 2.251 . S
O290 Mg283 2.079 . S
O290 C292 1.273 . S
C291 O287 1.246 . S
C291 O288 1.259 . S
C292 O289 1.252 . S
C292 O290 1.273 . S
O293 Mg280 2.010 1_554 S
O293 C285 1.249 . S
Mg294 O295 2.028 . S
Mg294 O301 1.986 . S
Mg294 O303 2.114 . S
Mg294 O304 2.251 . S
Mg294 O307 2.010 . S
O295 Mg294 2.028 . S
O295 C298 1.250 . S
O296 Mg297 2.028 . S
O296 C298 1.248 . S
Mg297 O296 2.028 . S
Mg297 O302 2.032 . S
Mg297 O304 2.079 . S
C298 O295 1.250 . S
C298 O296 1.248 . S
C299 O300 1.264 . S
C299 O307 1.249 . S
O300 C299 1.264 . S
O301 Mg294 1.986 . S
O301 C305 1.246 . S
O302 Mg297 2.032 . S
O302 C305 1.259 . S
O303 Mg294 2.114 . S
O303 C306 1.252 . S
O304 Mg294 2.251 . S
O304 Mg297 2.079 . S
O304 C306 1.273 . S
C305 O301 1.246 . S
C305 O302 1.259 . S
C306 O303 1.252 . S
C306 O304 1.273 . S
O307 Mg294 2.010 . S
O307 C299 1.249 . S
Mg308 O309 2.028 . S
Mg308 O315 1.986 . S
Mg308 O317 2.114 . S
Mg308 O318 2.251 . S
Mg308 O321 2.010 . S
O309 Mg308 2.028 . S
O309 C312 1.250 . S
O310 Mg311 2.028 . S
O310 C312 1.248 . S
Mg311 O310 2.028 . S
Mg311 O316 2.032 . S
Mg311 O318 2.079 . S
C312 O309 1.250 . S
C312 O310 1.248 . S
C313 O314 1.264 . S
C313 O321 1.249 . S
O314 C313 1.264 . S
O315 Mg308 1.986 . S
O315 C319 1.246 . S
O316 Mg311 2.032 . S
O316 C319 1.259 . S
O317 Mg308 2.114 . S
O317 C320 1.252 . S
O318 Mg308 2.251 . S
O318 Mg311 2.079 . S
O318 C320 1.273 . S
C319 O315 1.246 . S
C319 O316 1.259 . S
C320 O317 1.252 . S
C320 O318 1.273 . S
O321 Mg308 2.010 . S
O321 C313 1.249 . S
Mg322 O323 2.028 . S
Mg322 O329 1.986 . S
Mg322 O331 2.114 . S
Mg322 O332 2.251 . S
Mg322 O335 2.010 . S
O323 Mg322 2.028 . S
O323 C326 1.250 . S
O324 Mg325 2.028 . S
O324 C326 1.248 . S
Mg325 O324 2.028 . S
Mg325 O330 2.032 . S
Mg325 O332 2.079 . S
C326 O323 1.250 . S
C326 O324 1.248 . S
C327 O328 1.264 . S
C327 O335 1.249 . S
O328 C327 1.264 . S
O329 Mg322 1.986 . S
O329 C333 1.246 . S
O330 Mg325 2.032 . S
O330 C333 1.259 . S
O331 Mg322 2.114 . S
O331 C334 1.252 . S
O332 Mg322 2.251 . S
O332 Mg325 2.079 . S
O332 C334 1.273 . S
C333 O329 1.246 . S
C333 O330 1.259 . S
C334 O331 1.252 . S
C334 O332 1.273 . S
O335 Mg322 2.010 . S
O335 C327 1.249 . S
C336 C337 1.387 . S
C336 H340 0.950 . S
C336 C345 1.390 . S
C337 C336 1.387 . S
C337 C339 1.387 . S
H338 C345 0.950 . S
C339 C337 1.387 . S
C339 C341 1.390 . S
C339 H343 0.950 . S
H340 C336 0.950 . S
C341 C339 1.390 . S
C341 C342 1.387 . S
C341 H344 0.950 . S
C342 C341 1.387 . S
C342 C345 1.387 . S
H343 C339 0.950 . S
H344 C341 0.950 . S
C345 C336 1.390 . S
C345 H338 0.950 . S
C345 C342 1.387 . S
C346 C347 1.387 . S
C346 H350 0.950 . S
C346 C355 1.390 . S
C347 C346 1.387 . S
C347 C349 1.387 . S
H348 C355 0.950 . S
C349 C347 1.387 . S
C349 C351 1.390 . S
C349 H353 0.950 . S
H350 C346 0.950 . S
C351 C349 1.390 . S
C351 C352 1.387 . S
C351 H354 0.950 . S
C352 C351 1.387 . S
C352 C355 1.387 . S
H353 C349 0.950 . S
H354 C351 0.950 . S
C355 C346 1.390 . S
C355 H348 0.950 . S
C355 C352 1.387 . S
C356 C357 1.387 . S
C356 H360 0.950 . S
C356 C365 1.390 . S
C357 C356 1.387 . S
C357 C359 1.387 . S
H358 C365 0.950 . S
C359 C357 1.387 . S
C359 C361 1.390 . S
C359 H363 0.950 . S
H360 C356 0.950 . S
C361 C359 1.390 . S
C361 C362 1.387 . S
C361 H364 0.950 . S
C362 C361 1.387 . S
C362 C365 1.387 . S
H363 C359 0.950 . S
H364 C361 0.950 . S
C365 C356 1.390 . S
C365 H358 0.950 . S
C365 C362 1.387 . S
C366 C367 1.387 . S
C366 H370 0.950 . S
C366 C375 1.390 . S
C367 C366 1.387 . S
C367 C369 1.387 . S
H368 C375 0.950 . S
C369 C367 1.387 . S
C369 C371 1.390 . S
C369 H373 0.950 . S
H370 C366 0.950 . S
C371 C369 1.390 . S
C371 C372 1.387 . S
C371 H374 0.950 . S
C372 C371 1.387 . S
C372 C375 1.387 . S
H373 C369 0.950 . S
H374 C371 0.950 . S
C375 C366 1.390 . S
C375 H368 0.950 . S
C375 C372 1.387 . S
C376 C377 1.387 . S
C376 H380 0.950 . S
C376 C385 1.390 . S
C377 C376 1.387 . S
C377 C379 1.387 . S
H378 C385 0.950 . S
C379 C377 1.387 . S
C379 C381 1.390 . S
C379 H383 0.950 . S
H380 C376 0.950 . S
C381 C379 1.390 . S
C381 C382 1.387 . S
C381 H384 0.950 . S
C382 C381 1.387 . S
C382 C385 1.387 . S
H383 C379 0.950 . S
H384 C381 0.950 . S
C385 C376 1.390 . S
C385 H378 0.950 . S
C385 C382 1.387 . S
C386 C387 1.387 . S
C386 H390 0.950 . S
C386 C395 1.390 . S
C387 C386 1.387 . S
C387 C389 1.387 . S
H388 C395 0.950 . S
C389 C387 1.387 . S
C389 C391 1.390 . S
C389 H393 0.950 . S
H390 C386 0.950 . S
C391 C389 1.390 . S
C391 C392 1.387 . S
C391 H394 0.950 . S
C392 C391 1.387 . S
C392 C395 1.387 . S
H393 C389 0.950 . S
H394 C391 0.950 . S
C395 C386 1.390 . S
C395 H388 0.950 . S
C395 C392 1.387 . S
C396 C397 1.387 . S
C396 H400 0.950 . S
C396 C405 1.390 . S
C397 C396 1.387 . S
C397 C399 1.387 . S
H398 C405 0.950 . S
C399 C397 1.387 . S
C399 C401 1.390 . S
C399 H403 0.950 . S
H400 C396 0.950 . S
C401 C399 1.390 . S
C401 C402 1.387 . S
C401 H404 0.950 . S
C402 C401 1.387 . S
C402 C405 1.387 . S
H403 C399 0.950 . S
H404 C401 0.950 . S
C405 C396 1.390 . S
C405 H398 0.950 . S
C405 C402 1.387 . S
C406 C407 1.387 . S
C406 H410 0.950 . S
C406 C415 1.390 . S
C407 C406 1.387 . S
C407 C409 1.387 . S
H408 C415 0.950 . S
C409 C407 1.387 . S
C409 C411 1.390 . S
C409 H413 0.950 . S
H410 C406 0.950 . S
C411 C409 1.390 . S
C411 C412 1.387 . S
C411 H414 0.950 . S
C412 C411 1.387 . S
C412 C415 1.387 . S
H413 C409 0.950 . S
H414 C411 0.950 . S
C415 C406 1.390 . S
C415 H408 0.950 . S
C415 C412 1.387 . S
C416 C417 1.387 . S
C416 H420 0.950 . S
C416 C425 1.390 . S
C417 C416 1.387 . S
C417 C419 1.387 . S
H418 C425 0.950 . S
C419 C417 1.387 . S
C419 C421 1.390 . S
C419 H423 0.950 . S
H420 C416 0.950 . S
C421 C419 1.390 . S
C421 C422 1.387 . S
C421 H424 0.950 1_545 S
C422 C421 1.387 . S
C422 C425 1.387 . S
H423 C419 0.950 . S
H424 C421 0.950 1_565 S
C425 C416 1.390 . S
C425 H418 0.950 . S
C425 C422 1.387 . S
C426 C427 1.387 . S
C426 H430 0.950 1_545 S
C426 C435 1.390 . S
C427 C426 1.387 . S
C427 C429 1.387 . S
H428 C435 0.950 . S
C429 C427 1.387 . S
C429 C431 1.390 . S
C429 H433 0.950 . S
H430 C426 0.950 1_565 S
C431 C429 1.390 . S
C431 C432 1.387 . S
C431 H434 0.950 . S
C432 C431 1.387 . S
C432 C435 1.387 . S
H433 C429 0.950 . S
H434 C431 0.950 . S
C435 C426 1.390 . S
C435 H428 0.950 . S
C435 C432 1.387 . S
C436 C437 1.387 . S
C436 H440 0.950 1_565 S
C436 C445 1.390 . S
C437 C436 1.387 . S
C437 C439 1.387 . S
H438 C445 0.950 . S
C439 C437 1.387 . S
C439 C441 1.390 . S
C439 H443 0.950 . S
H440 C436 0.950 1_545 S
C441 C439 1.390 . S
C441 C442 1.387 . S
C441 H444 0.950 . S
C442 C441 1.387 . S
C442 C445 1.387 . S
H443 C439 0.950 . S
H444 C441 0.950 . S
C445 C436 1.390 . S
C445 H438 0.950 . S
C445 C442 1.387 . S
C446 C447 1.387 . S
C446 H450 0.950 . S
C446 C455 1.390 . S
C447 C446 1.387 . S
C447 C449 1.387 . S
H448 C455 0.950 1_545 S
C449 C447 1.387 . S
C449 C451 1.390 . S
C449 H453 0.950 . S
H450 C446 0.950 . S
C451 C449 1.390 . S
C451 C452 1.387 . S
C451 H454 0.950 . S
C452 C451 1.387 . S
C452 C455 1.387 . S
H453 C449 0.950 . S
H454 C451 0.950 . S
C455 C446 1.390 . S
C455 H448 0.950 1_565 S
C455 C452 1.387 . S
C456 C457 1.387 . S
C456 H460 0.950 . S
C456 C465 1.390 . S
C457 C456 1.387 . S
C457 C459 1.387 . S
H458 C465 0.950 . S
C459 C457 1.387 . S
C459 C461 1.390 . S
C459 H463 0.950 1_554 S
H460 C456 0.950 . S
C461 C459 1.390 . S
C461 C462 1.387 . S
C461 H464 0.950 . S
C462 C461 1.387 . S
C462 C465 1.387 . S
H463 C459 0.950 1_556 S
H464 C461 0.950 . S
C465 C456 1.390 . S
C465 H458 0.950 . S
C465 C462 1.387 . S
C466 C467 1.387 . S
C466 H470 0.950 . S
C466 C475 1.390 . S
C467 C466 1.387 . S
C467 C469 1.387 . S
H468 C475 0.950 . S
C469 C467 1.387 . S
C469 C471 1.390 . S
C469 H473 0.950 . S
H470 C466 0.950 . S
C471 C469 1.390 . S
C471 C472 1.387 . S
C471 H474 0.950 . S
C472 C471 1.387 . S
C472 C475 1.387 . S
H473 C469 0.950 . S
H474 C471 0.950 . S
C475 C466 1.390 . S
C475 H468 0.950 . S
C475 C472 1.387 . S
C476 C477 1.387 . S
C476 H480 0.950 . S
C476 C485 1.390 . S
C477 C476 1.387 . S
C477 C479 1.387 . S
H478 C485 0.950 . S
C479 C477 1.387 . S
C479 C481 1.390 . S
C479 H483 0.950 . S
H480 C476 0.950 . S
C481 C479 1.390 . S
C481 C482 1.387 . S
C481 H484 0.950 . S
C482 C481 1.387 . S
C482 C485 1.387 . S
H483 C479 0.950 . S
H484 C481 0.950 . S
C485 C476 1.390 . S
C485 H478 0.950 . S
C485 C482 1.387 . S
C486 C487 1.387 . S
C486 H490 0.950 . S
C486 C495 1.390 . S
C487 C486 1.387 . S
C487 C489 1.387 . S
H488 C495 0.950 . S
C489 C487 1.387 . S
C489 C491 1.390 . S
C489 H493 0.947 1_655 S
H490 C486 0.950 . S
C491 C489 1.390 . S
C491 C492 1.387 . S
C491 H494 0.950 . S
C492 C491 1.387 . S
C492 C495 1.387 . S
H493 C489 0.947 1_455 S
H494 C491 0.950 . S
C495 C486 1.390 . S
C495 H488 0.950 . S
C495 C492 1.387 . S
C496 C497 1.387 . S
C496 H500 0.950 . S
C496 C505 1.390 . S
C497 C496 1.387 . S
C497 C499 1.387 . S
H498 C505 0.950 . S
C499 C497 1.387 . S
C499 C501 1.390 . S
C499 H503 0.950 . S
H500 C496 0.950 . S
C501 C499 1.390 . S
C501 C502 1.387 . S
C501 H504 0.950 . S
C502 C501 1.387 . S
C502 C505 1.387 . S
H503 C499 0.950 . S
H504 C501 0.950 . S
C505 C496 1.390 . S
C505 H498 0.950 . S
C505 C502 1.387 . S
C506 C507 1.387 . S
C506 H510 0.950 . S
C506 C515 1.390 . S
C507 C506 1.387 . S
C507 C509 1.387 . S
H508 C515 0.950 . S
C509 C507 1.387 . S
C509 C511 1.390 . S
C509 H513 0.950 . S
H510 C506 0.950 . S
C511 C509 1.390 . S
C511 C512 1.387 . S
C511 H514 0.950 . S
C512 C511 1.387 . S
C512 C515 1.387 . S
H513 C509 0.950 . S
H514 C511 0.950 . S
C515 C506 1.390 . S
C515 H508 0.950 . S
C515 C512 1.387 . S
C516 C517 1.387 . S
C516 H520 0.950 1_556 S
C516 C525 1.390 . S
C517 C516 1.387 . S
C517 C519 1.387 . S
H518 C525 0.950 . S
C519 C517 1.387 . S
C519 C521 1.390 . S
C519 H523 0.950 . S
H520 C516 0.950 1_554 S
C521 C519 1.390 . S
C521 C522 1.387 . S
C521 H524 0.950 . S
C522 C521 1.387 . S
C522 C525 1.387 . S
H523 C519 0.950 . S
H524 C521 0.950 . S
C525 C516 1.390 . S
C525 H518 0.950 . S
C525 C522 1.387 . S
C526 C527 1.387 . S
C526 H530 0.950 . S
C526 C535 1.390 . S
C527 C526 1.387 . S
C527 C529 1.387 . S
H528 C535 0.950 . S
C529 C527 1.387 . S
C529 C531 1.390 . S
C529 H533 0.950 . S
H530 C526 0.950 . S
C531 C529 1.390 . S
C531 C532 1.387 . S
C531 H534 0.950 . S
C532 C531 1.387 . S
C532 C535 1.387 . S
H533 C529 0.950 . S
H534 C531 0.950 . S
C535 C526 1.390 . S
C535 H528 0.950 . S
C535 C532 1.387 . S
C536 C537 1.387 . S
C536 H540 0.950 . S
C536 C545 1.390 . S
C537 C536 1.387 . S
C537 C539 1.387 . S
H538 C545 0.950 . S
C539 C537 1.387 . S
C539 C541 1.390 . S
C539 H543 0.950 . S
H540 C536 0.950 . S
C541 C539 1.390 . S
C541 C542 1.387 . S
C541 H544 0.950 . S
C542 C541 1.387 . S
C542 C545 1.387 . S
H543 C539 0.950 . S
H544 C541 0.950 . S
C545 C536 1.390 . S
C545 H538 0.950 . S
C545 C542 1.387 . S
C546 C547 1.387 . S
C546 H550 0.950 . S
C546 C555 1.390 . S
C547 C546 1.387 . S
C547 C549 1.387 . S
H548 C555 0.950 . S
C549 C547 1.387 . S
C549 C551 1.390 . S
C549 H553 0.950 . S
H550 C546 0.950 . S
C551 C549 1.390 . S
C551 C552 1.387 . S
C551 H554 0.950 . S
C552 C551 1.387 . S
C552 C555 1.387 . S
H553 C549 0.950 . S
H554 C551 0.950 . S
C555 C546 1.390 . S
C555 H548 0.950 . S
C555 C552 1.387 . S
C556 C557 1.387 . S
C556 H560 0.950 . S
C556 C565 1.390 . S
C557 C556 1.387 . S
C557 C559 1.387 . S
H558 C565 0.950 . S
C559 C557 1.387 . S
C559 C561 1.390 . S
C559 H563 0.950 . S
H560 C556 0.950 . S
C561 C559 1.390 . S
C561 C562 1.387 . S
C561 H564 0.950 . S
C562 C561 1.387 . S
C562 C565 1.387 . S
H563 C559 0.950 . S
H564 C561 0.950 . S
C565 C556 1.390 . S
C565 H558 0.950 . S
C565 C562 1.387 . S
C566 C567 1.387 . S
C566 H570 0.950 . S
C566 C575 1.390 . S
C567 C566 1.387 . S
C567 C569 1.387 . S
H568 C575 0.950 . S
C569 C567 1.387 . S
C569 C571 1.391 . S
C569 H573 0.950 1_565 S
H570 C566 0.950 . S
C571 C569 1.391 . S
C571 C572 1.400 . S
C571 H574 0.937 1_565 S
C572 C571 1.400 . S
C572 C575 1.387 . S
H573 C569 0.950 1_545 S
H574 C571 0.937 1_545 S
C575 C566 1.390 . S
C575 H568 0.950 . S
C575 C572 1.387 . S
C576 C577 1.387 1_545 S
C576 H580 0.950 . S
C576 C585 1.398 . S
C577 C576 1.387 1_565 S
C577 C579 1.387 . S
H578 C585 0.965 . S
C579 C577 1.387 . S
C579 C581 1.390 . S
C579 H583 0.950 . S
H580 C576 0.950 . S
C581 C579 1.390 . S
C581 C582 1.387 . S
C581 H584 0.950 . S
C582 C581 1.387 . S
C582 C585 1.365 1_565 S
H583 C579 0.950 . S
H584 C581 0.950 . S
C585 C576 1.398 . S
C585 H578 0.965 . S
C585 C582 1.365 1_545 S
C586 C587 1.387 . S
C586 H590 0.950 . S
C586 C595 1.390 . S
C587 C586 1.387 . S
C587 C589 1.387 . S
H588 C595 0.950 . S
C589 C587 1.387 . S
C589 C591 1.390 . S
C589 H593 0.950 . S
H590 C586 0.950 . S
C591 C589 1.390 . S
C591 C592 1.387 . S
C591 H594 0.950 . S
C592 C591 1.387 . S
C592 C595 1.387 . S
H593 C589 0.950 . S
H594 C591 0.950 . S
C595 C586 1.390 . S
C595 H588 0.950 . S
C595 C592 1.387 . S
C596 C597 1.387 . S
C596 H600 0.950 . S
C596 C605 1.390 . S
C597 C596 1.387 . S
C597 C599 1.387 . S
H598 C605 0.950 . S
C599 C597 1.387 . S
C599 C601 1.390 . S
C599 H603 0.950 . S
H600 C596 0.950 . S
C601 C599 1.390 . S
C601 C602 1.387 . S
C601 H604 0.950 . S
C602 C601 1.387 . S
C602 C605 1.387 . S
H603 C599 0.950 . S
H604 C601 0.950 . S
C605 C596 1.390 . S
C605 H598 0.950 . S
C605 C602 1.387 . S
C606 C607 1.387 . S
C606 H610 0.950 . S
C606 C615 1.390 . S
C607 C606 1.387 . S
C607 C609 1.387 . S
H608 C615 0.950 . S
C609 C607 1.387 . S
C609 C611 1.390 . S
C609 H613 0.950 1_556 S
H610 C606 0.950 . S
C611 C609 1.390 . S
C611 C612 1.387 . S
C611 H614 0.950 1_556 S
C612 C611 1.387 . S
C612 C615 1.387 . S
H613 C609 0.950 1_554 S
H614 C611 0.950 1_554 S
C615 C606 1.390 . S
C615 H608 0.950 . S
C615 C612 1.387 . S
C616 C617 1.387 . S
C616 H620 0.950 . S
C616 C625 1.390 . S
C617 C616 1.387 . S
C617 C619 1.387 . S
H618 C625 0.950 . S
C619 C617 1.387 . S
C619 C621 1.390 . S
C619 H623 0.950 . S
H620 C616 0.950 . S
C621 C619 1.390 . S
C621 C622 1.387 . S
C621 H624 0.950 . S
C622 C621 1.387 . S
C622 C625 1.387 . S
H623 C619 0.950 . S
H624 C621 0.950 . S
C625 C616 1.390 . S
C625 H618 0.950 . S
C625 C622 1.387 . S
C626 C627 1.387 . S
C626 H630 0.950 . S
C626 C635 1.390 . S
C627 C626 1.387 . S
C627 C629 1.387 . S
H628 C635 0.950 . S
C629 C627 1.387 . S
C629 C631 1.390 . S
C629 H633 0.950 . S
H630 C626 0.950 . S
C631 C629 1.390 . S
C631 C632 1.387 . S
C631 H634 0.950 . S
C632 C631 1.387 . S
C632 C635 1.387 . S
H633 C629 0.950 . S
H634 C631 0.950 . S
C635 C626 1.390 . S
C635 H628 0.950 . S
C635 C632 1.387 . S
C636 C637 1.387 . S
C636 H640 0.950 . S
C636 C645 1.390 . S
C637 C636 1.387 . S
C637 C639 1.387 . S
H638 C645 0.950 . S
C639 C637 1.387 . S
C639 C641 1.390 . S
C639 H643 0.950 . S
H640 C636 0.950 . S
C641 C639 1.390 . S
C641 C642 1.387 . S
C641 H644 0.950 . S
C642 C641 1.387 . S
C642 C645 1.387 . S
H643 C639 0.950 . S
H644 C641 0.950 . S
C645 C636 1.390 . S
C645 H638 0.950 . S
C645 C642 1.387 . S
C646 C647 1.387 . S
C646 H650 0.950 . S
C646 C655 1.390 . S
C647 C646 1.387 . S
C647 C649 1.387 . S
H648 C655 0.950 . S
C649 C647 1.387 . S
C649 C651 1.390 . S
C649 H653 0.950 . S
H650 C646 0.950 . S
C651 C649 1.390 . S
C651 C652 1.387 . S
C651 H654 0.950 . S
C652 C651 1.387 . S
C652 C655 1.387 . S
H653 C649 0.950 . S
H654 C651 0.950 . S
C655 C646 1.390 . S
C655 H648 0.950 . S
C655 C652 1.387 . S
C656 C657 1.387 . S
C656 H660 0.950 . S
C656 C665 1.390 . S
C657 C656 1.387 . S
C657 C659 1.387 . S
H658 C665 0.950 . S
C659 C657 1.387 . S
C659 C661 1.390 . S
C659 H663 0.950 . S
H660 C656 0.950 . S
C661 C659 1.390 . S
C661 C662 1.387 . S
C661 H664 0.950 . S
C662 C661 1.387 . S
C662 C665 1.387 . S
H663 C659 0.950 . S
H664 C661 0.950 . S
C665 C656 1.390 . S
C665 H658 0.950 . S
C665 C662 1.387 . S
C666 C667 1.387 . S
C666 H670 0.950 . S
C666 C675 1.390 . S
C667 C666 1.387 . S
C667 C669 1.387 . S
H668 C675 0.950 . S
C669 C667 1.387 . S
C669 C671 1.390 . S
C669 H673 0.950 . S
H670 C666 0.950 . S
C671 C669 1.390 . S
C671 C672 1.387 . S
C671 H674 0.950 . S
C672 C671 1.387 . S
C672 C675 1.387 . S
H673 C669 0.950 . S
H674 C671 0.950 . S
C675 C666 1.390 . S
C675 H668 0.950 . S
C675 C672 1.387 . S
C676 C677 1.387 . S
C676 H680 0.950 . S
C676 C685 1.390 . S
C677 C676 1.387 . S
C677 C679 1.387 . S
H678 C685 0.950 . S
C679 C677 1.387 . S
C679 C681 1.390 . S
C679 H683 0.950 . S
H680 C676 0.950 . S
C681 C679 1.390 . S
C681 C682 1.387 . S
C681 H684 0.950 . S
C682 C681 1.387 . S
C682 C685 1.387 . S
H683 C679 0.950 . S
H684 C681 0.950 . S
C685 C676 1.390 . S
C685 H678 0.950 . S
C685 C682 1.387 . S
C686 C687 1.387 . S
C686 H690 0.950 . S
C686 C695 1.390 . S
C687 C686 1.387 . S
C687 C689 1.387 . S
H688 C695 0.950 . S
C689 C687 1.387 . S
C689 C691 1.390 . S
C689 H693 0.950 . S
H690 C686 0.950 . S
C691 C689 1.390 . S
C691 C692 1.387 . S
C691 H694 0.950 . S
C692 C691 1.387 . S
C692 C695 1.387 . S
H693 C689 0.950 . S
H694 C691 0.950 . S
C695 C686 1.390 . S
C695 H688 0.950 . S
C695 C692 1.387 . S
C696 C697 1.387 . S
C696 H700 0.950 . S
C696 C705 1.390 . S
C697 C696 1.387 . S
C697 C699 1.387 . S
H698 C705 0.950 . S
C699 C697 1.387 . S
C699 C701 1.390 . S
C699 H703 0.950 . S
H700 C696 0.950 . S
C701 C699 1.390 . S
C701 C702 1.387 . S
C701 H704 0.950 . S
C702 C701 1.387 . S
C702 C705 1.387 . S
H703 C699 0.950 . S
H704 C701 0.950 . S
C705 C696 1.390 . S
C705 H698 0.950 . S
C705 C702 1.387 . S
C706 C707 1.387 . S
C706 H710 0.950 . S
C706 C715 1.390 . S
C707 C706 1.387 . S
C707 C709 1.387 . S
H708 C715 0.950 . S
C709 C707 1.387 . S
C709 C711 1.390 . S
C709 H713 0.950 . S
H710 C706 0.950 . S
C711 C709 1.390 . S
C711 C712 1.387 . S
C711 H714 0.950 . S
C712 C711 1.387 . S
C712 C715 1.387 . S
H713 C709 0.950 . S
H714 C711 0.950 . S
C715 C706 1.390 . S
C715 H708 0.950 . S
C715 C712 1.387 . S
C716 C717 1.387 . S
C716 H720 0.950 . S
C716 C725 1.390 . S
C717 C716 1.387 . S
C717 C719 1.387 . S
H718 C725 0.950 . S
C719 C717 1.387 . S
C719 C721 1.390 . S
C719 H723 0.950 . S
H720 C716 0.950 . S
C721 C719 1.390 . S
C721 C722 1.387 . S
C721 H724 0.950 . S
C722 C721 1.387 . S
C722 C725 1.387 . S
H723 C719 0.950 . S
H724 C721 0.950 . S
C725 C716 1.390 . S
C725 H718 0.950 . S
C725 C722 1.387 . S
C726 C727 1.387 . S
C726 H730 0.950 . S
C726 C735 1.390 . S
C727 C726 1.387 . S
C727 C729 1.387 . S
H728 C735 0.950 . S
C729 C727 1.387 . S
C729 C731 1.390 . S
C729 H733 0.950 . S
H730 C726 0.950 . S
C731 C729 1.390 . S
C731 C732 1.387 . S
C731 H734 0.950 . S
C732 C731 1.387 . S
C732 C735 1.387 . S
H733 C729 0.950 . S
H734 C731 0.950 . S
C735 C726 1.390 . S
C735 H728 0.950 . S
C735 C732 1.387 . S
C736 C737 1.387 . S
C736 H740 0.950 . S
C736 C745 1.390 . S
C737 C736 1.387 . S
C737 C739 1.387 . S
H738 C745 0.950 . S
C739 C737 1.387 . S
C739 C741 1.390 . S
C739 H743 0.950 . S
H740 C736 0.950 . S
C741 C739 1.390 . S
C741 C742 1.387 . S
C741 H744 0.950 . S
C742 C741 1.387 . S
C742 C745 1.387 . S
H743 C739 0.950 . S
H744 C741 0.950 . S
C745 C736 1.390 . S
C745 H738 0.950 . S
C745 C742 1.387 . S
C746 C747 1.387 . S
C746 H750 0.950 . S
C746 C755 1.390 . S
C747 C746 1.387 . S
C747 C749 1.387 . S
H748 C755 0.950 . S
C749 C747 1.387 . S
C749 C751 1.390 . S
C749 H753 0.950 . S
H750 C746 0.950 . S
C751 C749 1.390 . S
C751 C752 1.387 . S
C751 H754 0.950 . S
C752 C751 1.387 . S
C752 C755 1.387 . S
H753 C749 0.950 . S
H754 C751 0.950 . S
C755 C746 1.390 . S
C755 H748 0.950 . S
C755 C752 1.387 . S
C756 C757 1.387 . S
C756 H760 0.950 . S
C756 C765 1.390 . S
C757 C756 1.387 . S
C757 C759 1.387 . S
H758 C765 0.950 . S
C759 C757 1.387 . S
C759 C761 1.390 . S
C759 H763 0.950 . S
H760 C756 0.950 . S
C761 C759 1.390 . S
C761 C762 1.387 . S
C761 H764 0.950 . S
C762 C761 1.387 . S
C762 C765 1.387 . S
H763 C759 0.950 . S
H764 C761 0.950 . S
C765 C756 1.390 . S
C765 H758 0.950 . S
C765 C762 1.387 . S
C766 C767 1.387 . S
C766 H770 0.950 . S
C766 C775 1.390 . S
C767 C766 1.387 . S
C767 C769 1.387 . S
H768 C775 0.950 . S
C769 C767 1.387 . S
C769 C771 1.390 . S
C769 H773 0.950 . S
H770 C766 0.950 . S
C771 C769 1.390 . S
C771 C772 1.387 . S
C771 H774 0.950 . S
C772 C771 1.387 . S
C772 C775 1.387 . S
H773 C769 0.950 . S
H774 C771 0.950 . S
C775 C766 1.390 . S
C775 H768 0.950 . S
C775 C772 1.387 . S
C776 C777 1.387 . S
C776 H780 0.950 . S
C776 C785 1.390 . S
C777 C776 1.387 . S
C777 C779 1.387 . S
H778 C785 0.950 . S
C779 C777 1.387 . S
C779 C781 1.390 . S
C779 H783 0.950 . S
H780 C776 0.950 . S
C781 C779 1.390 . S
C781 C782 1.387 . S
C781 H784 0.950 . S
C782 C781 1.387 . S
C782 C785 1.387 . S
H783 C779 0.950 . S
H784 C781 0.950 . S
C785 C776 1.390 . S
C785 H778 0.950 . S
C785 C782 1.387 . S
C786 C787 1.387 . S
C786 H790 0.950 . S
C786 C795 1.390 . S
C787 C786 1.387 . S
C787 C789 1.387 . S
H788 C795 0.950 . S
C789 C787 1.387 . S
C789 C791 1.390 . S
C789 H793 0.950 . S
H790 C786 0.950 . S
C791 C789 1.390 . S
C791 C792 1.387 . S
C791 H794 0.950 . S
C792 C791 1.387 . S
C792 C795 1.387 . S
H793 C789 0.950 . S
H794 C791 0.950 . S
C795 C786 1.390 . S
C795 H788 0.950 . S
C795 C792 1.387 . S
C796 C797 1.387 . S
C796 H800 0.950 . S
C796 C805 1.390 . S
C797 C796 1.387 . S
C797 C799 1.387 . S
H798 C805 0.950 . S
C799 C797 1.387 . S
C799 C801 1.390 . S
C799 H803 0.950 . S
H800 C796 0.950 . S
C801 C799 1.390 . S
C801 C802 1.387 . S
C801 H804 0.950 . S
C802 C801 1.387 . S
C802 C805 1.387 . S
H803 C799 0.950 . S
H804 C801 0.950 . S
C805 C796 1.390 . S
C805 H798 0.950 . S
C805 C802 1.387 . S
C806 C807 1.387 . S
C806 H810 0.950 . S
C806 C815 1.390 . S
C807 C806 1.387 . S
C807 C809 1.387 . S
H808 C815 0.950 . S
C809 C807 1.387 . S
C809 C811 1.390 . S
C809 H813 0.950 . S
H810 C806 0.950 . S
C811 C809 1.390 . S
C811 C812 1.387 . S
C811 H814 0.950 . S
C812 C811 1.387 . S
C812 C815 1.387 . S
H813 C809 0.950 . S
H814 C811 0.950 . S
C815 C806 1.390 . S
C815 H808 0.950 . S
C815 C812 1.387 . S
C337 C208 1.403 . S
C342 C11 1.381 . S
C347 C26 1.319 . S
C352 C215 1.167 . S
C357 C256 1.448 . S
C362 C32 1.442 . S
C367 C47 1.082 . S
C372 C187 1.082 . S
C377 C201 1.100 . S
C382 C61 1.094 . S
C387 C82 1.338 . S
C392 C222 1.338 . S
C397 C96 1.406 . S
C402 C263 1.387 . S
C407 C103 1.168 . S
C412 C194 1.319 . S
C417 C138 1.405 . S
C422 C123 1.386 . S
C427 C145 1.102 . S
C432 C131 1.096 . S
C437 C152 1.404 . S
C442 C165 1.382 . S
C447 C158 1.440 . S
C452 C116 1.449 . S
C457 C173 1.173 . S
C462 C54 1.318 . S
C467 C68 1.406 . S
C472 C235 1.387 . S
C477 C243 1.083 . S
C482 C19 1.082 . S
C487 C25 1.515 . S
C492 C299 1.280 . S
C497 C137 1.500 . S
C502 C5 1.273 . S
C507 C326 1.374 . S
C512 C46 1.374 . S
C517 C166 1.550 . S
C522 C40 1.550 . S
C527 C306 1.570 . S
C532 C102 1.524 . S
C537 C130 1.476 . S
C542 C88 1.477 . S
C547 C81 1.483 . S
C552 C333 1.515 . S
C557 C67 1.500 . S
C562 C159 1.274 . S
C567 C221 1.482 . S
C572 C277 1.515 . S
C577 C236 1.570 . S
C582 C214 1.525 . S
C587 C193 1.516 . S
C592 C229 1.281 . S
C597 C270 1.375 . S
C602 C186 1.371 . S
C607 C33 1.274 . S
C612 C291 1.500 . S
C617 C151 1.515 . S
C622 C109 1.483 . S
C627 C12 1.550 . S
C632 C320 1.550 . S
C637 C278 1.403 . S
C642 C39 1.381 . S
C647 C4 1.442 . S
C652 C228 1.448 . S
C657 C271 1.105 . S
C662 C89 1.101 . S
C667 C180 1.338 . S
C672 C110 1.338 . S
C677 C75 1.173 . S
C682 C250 1.318 . S
C687 C305 1.387 . S
C692 C292 1.406 . S
C697 C327 1.101 . S
C702 C285 1.095 . S
C707 C319 1.381 . S
C712 C334 1.403 . S
C717 C298 1.448 . S
C722 C312 1.440 . S
C727 C117 1.280 . S
C732 C53 1.515 . S
C737 C18 1.371 . S
C742 C144 1.374 . S
C747 C74 1.524 . S
C752 C124 1.570 . S
C757 C284 1.477 . S
C762 C60 1.477 . S
C767 C95 1.499 . S
C772 C313 1.269 . S
C777 C179 1.482 . S
C782 C207 1.515 . S
C787 C264 1.570 . S
C792 C172 1.524 . S
C797 C249 1.515 . S
C802 C257 1.277 . S
C807 C200 1.374 . S
C812 C242 1.371 . S
