# Generated by pormake.
# Topology ume, (4)-cn, num edge types: 1
# Building blocks:
#     Node 0, Type 0, BuildingBlock: MUDLON_clean_sbu_0, # of connection points: 4
#     Node 1, Type 0, BuildingBlock: MUDLON_clean_sbu_0, # of connection points: 4
#     Node 2, Type 0, BuildingBlock: MUDLON_clean_sbu_0, # of connection points: 4
#     Node 3, Type 0, BuildingBlock: MUDLON_clean_sbu_0, # of connection points: 4
#     Node 4, Type 0, BuildingBlock: MUDLON_clean_sbu_0, # of connection points: 4
#     Node 5, Type 0, BuildingBlock: MUDLON_clean_sbu_0, # of connection points: 4
#     Node 6, Type 0, BuildingBlock: MUDLON_clean_sbu_0, # of connection points: 4
#     Node 7, Type 0, BuildingBlock: MUDLON_clean_sbu_0, # of connection points: 4
#     Node 8, Type 0, BuildingBlock: MUDLON_clean_sbu_0, # of connection points: 4
#     Node 9, Type 0, BuildingBlock: MUDLON_clean_sbu_0, # of connection points: 4
#     Node 10, Type 0, BuildingBlock: MUDLON_clean_sbu_0, # of connection points: 4
#     Node 11, Type 0, BuildingBlock: MUDLON_clean_sbu_0, # of connection points: 4
#     Node 12, Type 0, BuildingBlock: MUDLON_clean_sbu_0, # of connection points: 4
#     Node 13, Type 0, BuildingBlock: MUDLON_clean_sbu_0, # of connection points: 4
#     Node 14, Type 0, BuildingBlock: MUDLON_clean_sbu_0, # of connection points: 4
#     Node 15, Type 0, BuildingBlock: MUDLON_clean_sbu_0, # of connection points: 4
#     Edge 16, Type (0, 0), BuildingBlock: OJICUG_clean_linker_0, # of connection points: 2
#     Edge 17, Type (0, 0), BuildingBlock: OJICUG_clean_linker_0, # of connection points: 2
#     Edge 18, Type (0, 0), BuildingBlock: OJICUG_clean_linker_0, # of connection points: 2
#     Edge 19, Type (0, 0), BuildingBlock: OJICUG_clean_linker_0, # of connection points: 2
#     Edge 20, Type (0, 0), BuildingBlock: OJICUG_clean_linker_0, # of connection points: 2
#     Edge 21, Type (0, 0), BuildingBlock: OJICUG_clean_linker_0, # of connection points: 2
#     Edge 22, Type (0, 0), BuildingBlock: OJICUG_clean_linker_0, # of connection points: 2
#     Edge 23, Type (0, 0), BuildingBlock: OJICUG_clean_linker_0, # of connection points: 2
#     Edge 24, Type (0, 0), BuildingBlock: OJICUG_clean_linker_0, # of connection points: 2
#     Edge 25, Type (0, 0), BuildingBlock: OJICUG_clean_linker_0, # of connection points: 2
#     Edge 26, Type (0, 0), BuildingBlock: OJICUG_clean_linker_0, # of connection points: 2
#     Edge 27, Type (0, 0), BuildingBlock: OJICUG_clean_linker_0, # of connection points: 2
#     Edge 28, Type (0, 0), BuildingBlock: OJICUG_clean_linker_0, # of connection points: 2
#     Edge 29, Type (0, 0), BuildingBlock: OJICUG_clean_linker_0, # of connection points: 2
#     Edge 30, Type (0, 0), BuildingBlock: OJICUG_clean_linker_0, # of connection points: 2
#     Edge 31, Type (0, 0), BuildingBlock: OJICUG_clean_linker_0, # of connection points: 2
#     Edge 32, Type (0, 0), BuildingBlock: OJICUG_clean_linker_0, # of connection points: 2
#     Edge 33, Type (0, 0), BuildingBlock: OJICUG_clean_linker_0, # of connection points: 2
#     Edge 34, Type (0, 0), BuildingBlock: OJICUG_clean_linker_0, # of connection points: 2
#     Edge 35, Type (0, 0), BuildingBlock: OJICUG_clean_linker_0, # of connection points: 2
#     Edge 36, Type (0, 0), BuildingBlock: OJICUG_clean_linker_0, # of connection points: 2
#     Edge 37, Type (0, 0), BuildingBlock: OJICUG_clean_linker_0, # of connection points: 2
#     Edge 38, Type (0, 0), BuildingBlock: OJICUG_clean_linker_0, # of connection points: 2
#     Edge 39, Type (0, 0), BuildingBlock: OJICUG_clean_linker_0, # of connection points: 2
#     Edge 40, Type (0, 0), BuildingBlock: OJICUG_clean_linker_0, # of connection points: 2
#     Edge 41, Type (0, 0), BuildingBlock: OJICUG_clean_linker_0, # of connection points: 2
#     Edge 42, Type (0, 0), BuildingBlock: OJICUG_clean_linker_0, # of connection points: 2
#     Edge 43, Type (0, 0), BuildingBlock: OJICUG_clean_linker_0, # of connection points: 2
#     Edge 44, Type (0, 0), BuildingBlock: OJICUG_clean_linker_0, # of connection points: 2
#     Edge 45, Type (0, 0), BuildingBlock: OJICUG_clean_linker_0, # of connection points: 2
#     Edge 46, Type (0, 0), BuildingBlock: OJICUG_clean_linker_0, # of connection points: 2
#     Edge 47, Type (0, 0), BuildingBlock: OJICUG_clean_linker_0, # of connection points: 2
# Relax obj value: 0.085
# Max RMSD: 0.263
# Mean RMSD: 0.263
data_MOF--net-ume--node1-MUDLON_clean_sbu_0--edge1-OJICUG_clean_linker_0
_symmetry_space_group_name_H-M    P1
_symmetry_Int_Tables_number       1
_symmetry_cell_setting            triclinic
loop_
_symmetry_equiv_pos_as_xyz
'x, y, z'
_cell_length_a     21.234931
_cell_length_b     20.820825
_cell_length_c     84.815684
_cell_angle_alpha  90.002902
_cell_angle_beta   90.013865
_cell_angle_gamma 91.27251
loop_
_atom_site_label
_atom_site_type_symbol
_atom_site_fract_x
_atom_site_fract_y
_atom_site_fract_z
_atom_type_partial_charge
Mg0 Mg 0.27633 0.14094 0.34486 0.0
C1 C 0.38803 0.06116 0.35477 0.0
O2 O 0.35828 0.06258 0.36835 0.0
C3 C 0.13955 0.10557 0.33854 0.0
O4 O 0.13936 0.1671 0.3351 0.0
C5 C 0.26368 0.18439 0.31189 0.0
O6 O 0.24198 0.12484 0.31134 0.0
O7 O 0.28019 0.20773 0.32517 0.0
O8 O 0.36309 0.08721 0.34281 0.0
O9 O 0.27818 0.18435 0.36829 0.0
C10 C 0.228 0.19756 0.37569 0.0
O11 O 0.17367 0.19116 0.3684 0.0
O12 O 0.19104 0.08054 0.34283 0.0
Mg13 Mg 0.89763 0.76892 0.59422 0.0
C14 C 0.81694 0.81701 0.62169 0.0
O15 O 0.81965 0.87148 0.61387 0.0
C16 C 0.79549 0.79736 0.5697 0.0
O17 O 0.76935 0.82799 0.58146 0.0
C18 C 0.95385 0.64632 0.6067 0.0
O19 O 0.92607 0.66652 0.61956 0.0
O20 O 0.953 0.68145 0.59441 0.0
O21 O 0.84008 0.76716 0.61549 0.0
O22 O 0.9519 0.85972 0.59421 0.0
C23 C 0.96848 0.88804 0.60691 0.0
O24 O 0.95884 0.85867 0.62043 0.0
O25 O 0.84596 0.7673 0.57212 0.0
Mg26 Mg 0.26685 0.435 0.83895 0.0
C27 C 0.13622 0.46461 0.84899 0.0
O28 O 0.14911 0.4144 0.85769 0.0
C29 C 0.40344 0.46861 0.83677 0.0
O30 O 0.40349 0.40801 0.8411 0.0
C31 C 0.28054 0.37546 0.80714 0.0
O32 O 0.31771 0.42643 0.80577 0.0
O33 O 0.25506 0.36359 0.82044 0.0
O34 O 0.1784 0.48685 0.83966 0.0
O35 O 0.28061 0.39851 0.86272 0.0
C36 C 0.29946 0.44356 0.8718 0.0
O37 O 0.30837 0.50121 0.86579 0.0
O38 O 0.35074 0.49489 0.83428 0.0
Mg39 Mg 0.62004 0.77481 0.09175 0.0
C40 C 0.68103 0.71883 0.1212 0.0
O41 O 0.67053 0.66443 0.1137 0.0
C42 C 0.72012 0.73206 0.06895 0.0
O43 O 0.72907 0.69004 0.08025 0.0
C44 C 0.5944 0.91168 0.09878 0.0
O45 O 0.6488 0.90294 0.10574 0.0
O46 O 0.568 0.86439 0.09165 0.0
O47 O 0.66896 0.77138 0.1143 0.0
O48 O 0.56331 0.68617 0.08995 0.0
C49 C 0.52861 0.6655 0.10115 0.0
O50 O 0.52209 0.70128 0.11378 0.0
O51 O 0.68015 0.7757 0.07106 0.0
Mg52 Mg 0.27262 0.41547 0.97235 0.0
C53 C 0.40784 0.44983 0.97475 0.0
O54 O 0.40731 0.38998 0.96983 0.0
C55 C 0.13957 0.44273 0.96399 0.0
O56 O 0.15274 0.39533 0.9544 0.0
C57 C 0.24649 0.35201 1.00293 0.0
O58 O 0.21213 0.40359 1.00383 0.0
O59 O 0.27501 0.34054 0.99008 0.0
O60 O 0.35534 0.47634 0.97738 0.0
O61 O 0.28478 0.38596 0.94794 0.0
C62 C 0.30189 0.43382 0.93954 0.0
O63 O 0.31018 0.48983 0.94646 0.0
O64 O 0.18217 0.46348 0.97338 0.0
Mg65 Mg 0.63203 0.77511 0.21928 0.0
C66 C 0.68552 0.71821 0.18899 0.0
O67 O 0.67507 0.66381 0.1965 0.0
C68 C 0.6815 0.76143 0.25206 0.0
O69 O 0.62924 0.72663 0.25288 0.0
C70 C 0.536 0.6669 0.21265 0.0
O71 O 0.52226 0.70445 0.20074 0.0
O72 O 0.57757 0.6857 0.22251 0.0
O73 O 0.67597 0.77084 0.19612 0.0
O74 O 0.57792 0.8636 0.21932 0.0
C75 C 0.60221 0.91061 0.21165 0.0
O76 O 0.6552 0.90194 0.20403 0.0
O77 O 0.69755 0.78574 0.23885 0.0
Mg78 Mg 0.27873 0.13434 0.4736 0.0
C79 C 0.14442 0.09533 0.47995 0.0
O80 O 0.14589 0.15485 0.48511 0.0
C81 C 0.3909 0.05783 0.46247 0.0
O82 O 0.36004 0.05992 0.44906 0.0
C83 C 0.30179 0.17189 0.50676 0.0
O84 O 0.33447 0.11939 0.5053 0.0
O85 O 0.27446 0.19407 0.49463 0.0
O86 O 0.19482 0.07179 0.47447 0.0
O87 O 0.27937 0.18341 0.45089 0.0
C88 C 0.22867 0.19508 0.44354 0.0
O89 O 0.17455 0.18471 0.45069 0.0
O90 O 0.36669 0.08252 0.47469 0.0
Mg91 Mg 0.89495 0.78053 0.71793 0.0
C92 C 0.81727 0.8238 0.68922 0.0
O93 O 0.81631 0.87912 0.69666 0.0
C94 C 0.84961 0.79921 0.75135 0.0
O95 O 0.89781 0.83988 0.75136 0.0
C96 C 0.9651 0.90052 0.70629 0.0
O97 O 0.95887 0.86953 0.69286 0.0
O98 O 0.94591 0.8733 0.71889 0.0
O99 O 0.8423 0.776 0.6959 0.0
O100 O 0.95357 0.69496 0.71805 0.0
C101 C 0.96076 0.66316 0.70537 0.0
O102 O 0.93846 0.68635 0.69214 0.0
O103 O 0.83516 0.77009 0.73861 0.0
Mg104 Mg 0.77484 0.6514 0.84346 0.0
C105 C 0.88631 0.57022 0.85287 0.0
O106 O 0.8568 0.57031 0.86648 0.0
C107 C 0.63806 0.61662 0.83692 0.0
O108 O 0.63803 0.67834 0.83369 0.0
C109 C 0.76354 0.6945 0.81052 0.0
O110 O 0.74231 0.63477 0.81008 0.0
O111 O 0.77924 0.71854 0.82379 0.0
O112 O 0.86124 0.5975 0.84109 0.0
O113 O 0.77734 0.69267 0.86717 0.0
C114 C 0.72722 0.70269 0.87493 0.0
O115 O 0.67259 0.69484 0.86785 0.0
O116 O 0.68942 0.5913 0.8412 0.0
Mg117 Mg 0.39194 0.26952 0.09336 0.0
C118 C 0.33624 0.21122 0.12347 0.0
O119 O 0.34493 0.15707 0.1159 0.0
C120 C 0.34107 0.24906 0.06084 0.0
O121 O 0.39198 0.21441 0.06031 0.0
C122 C 0.48541 0.16459 0.10094 0.0
O123 O 0.49649 0.20181 0.11319 0.0
O124 O 0.44656 0.18259 0.09051 0.0
O125 O 0.34762 0.2641 0.11642 0.0
O126 O 0.44588 0.36053 0.09314 0.0
C127 C 0.42076 0.40689 0.10046 0.0
O128 O 0.36703 0.39618 0.10779 0.0
O129 O 0.32639 0.2757 0.07379 0.0
Mg130 Mg 0.76854 0.92339 0.34174 0.0
C131 C 0.63792 0.9547 0.35188 0.0
O132 O 0.65088 0.90603 0.36109 0.0
C133 C 0.90513 0.9573 0.33924 0.0
O134 O 0.90557 0.89627 0.34318 0.0
C135 C 0.78308 0.86788 0.30953 0.0
O136 O 0.81755 0.92085 0.30842 0.0
O137 O 0.75856 0.85335 0.3228 0.0
O138 O 0.67994 0.97518 0.34228 0.0
O139 O 0.78191 0.88553 0.36549 0.0
C140 C 0.80434 0.92875 0.37463 0.0
O141 O 0.81655 0.98608 0.36876 0.0
O142 O 0.85223 0.9838 0.3372 0.0
Mg143 Mg 0.12305 0.27432 0.59313 0.0
C144 C 0.20316 0.23236 0.62135 0.0
O145 O 0.20143 0.1763 0.61424 0.0
C146 C 0.22474 0.23964 0.56954 0.0
O147 O 0.24423 0.20481 0.58142 0.0
C148 C 0.05529 0.38977 0.60575 0.0
O149 O 0.07324 0.36367 0.61907 0.0
O150 O 0.06623 0.36061 0.59287 0.0
O151 O 0.17928 0.28046 0.61453 0.0
O152 O 0.07056 0.18248 0.59347 0.0
C153 C 0.05361 0.15523 0.60627 0.0
O154 O 0.06199 0.1861 0.61964 0.0
O155 O 0.17749 0.27513 0.57147 0.0
Mg156 Mg 0.77091 0.91959 0.47496 0.0
C157 C 0.90688 0.95281 0.47726 0.0
O158 O 0.90626 0.89189 0.47319 0.0
C159 C 0.64081 0.9519 0.46437 0.0
O160 O 0.65406 0.90444 0.45481 0.0
C161 C 0.73216 0.86784 0.50617 0.0
O162 O 0.69464 0.91666 0.50445 0.0
O163 O 0.76788 0.85295 0.49474 0.0
O164 O 0.85444 0.98017 0.47936 0.0
O165 O 0.78466 0.88147 0.45126 0.0
C166 C 0.80519 0.92587 0.44218 0.0
O167 O 0.81543 0.98335 0.44817 0.0
O168 O 0.68229 0.97101 0.47426 0.0
Mg169 Mg 0.1255 0.2865 0.71699 0.0
C170 C 0.20346 0.24032 0.6888 0.0
O171 O 0.20677 0.18708 0.69705 0.0
C172 C 0.17207 0.27141 0.75022 0.0
O173 O 0.11917 0.23763 0.75105 0.0
C174 C 0.05506 0.16619 0.70585 0.0
O175 O 0.0626 0.1959 0.69229 0.0
O176 O 0.0734 0.19446 0.7184 0.0
O177 O 0.17642 0.28847 0.69476 0.0
O178 O 0.06852 0.37327 0.71743 0.0
C179 C 0.06282 0.40649 0.70492 0.0
O180 O 0.08598 0.38439 0.69167 0.0
O181 O 0.18858 0.29549 0.73703 0.0
Mg182 Mg 0.77998 0.63139 0.97279 0.0
C183 C 0.64543 0.59179 0.97892 0.0
O184 O 0.64674 0.65077 0.98444 0.0
C185 C 0.88999 0.54994 0.96224 0.0
O186 O 0.85722 0.54767 0.94909 0.0
C187 C 0.79808 0.66331 1.00629 0.0
O188 O 0.82562 0.6078 1.00469 0.0
O189 O 0.77539 0.68978 0.99407 0.0
O190 O 0.69594 0.56887 0.97334 0.0
O191 O 0.78109 0.68109 0.9501 0.0
C192 C 0.7303 0.69334 0.94284 0.0
O193 O 0.67631 0.68306 0.95006 0.0
O194 O 0.86785 0.57933 0.97406 0.0
Mg195 Mg 0.40378 0.26962 0.22071 0.0
C196 C 0.34217 0.2125 0.1912 0.0
O197 O 0.34882 0.15845 0.19895 0.0
C198 C 0.35197 0.29074 0.25322 0.0
O199 O 0.40049 0.33099 0.25355 0.0
C200 C 0.42614 0.40933 0.21513 0.0
O201 O 0.37138 0.39813 0.20834 0.0
O202 O 0.45377 0.36274 0.22173 0.0
O203 O 0.35747 0.26524 0.19788 0.0
O204 O 0.46205 0.1846 0.22238 0.0
C205 C 0.49444 0.16435 0.21086 0.0
O206 O 0.49811 0.19895 0.19793 0.0
O207 O 0.33923 0.26106 0.24046 0.0
C208 C 0.02273 0.96543 0.34169 0.0
C209 C 0.96525 0.99483 0.33826 0.0
H210 H 0.12259 0.97703 0.34448 0.0
C211 C 0.96593 0.0605 0.33445 0.0
H212 H 0.02402 0.9149 0.34467 0.0
C213 C 0.02264 0.09613 0.33432 0.0
C214 C 0.07996 0.06696 0.33803 0.0
H215 H 0.92258 0.08463 0.33174 0.0
H216 H 0.02133 0.14681 0.33149 0.0
C217 C 0.07937 1.00107 0.3416 0.0
C218 C 0.98719 0.54585 0.62034 0.0
C219 C 0.98114 0.58125 0.60632 0.0
H220 H 1.01487 0.458 0.63113 0.0
C221 C 0.99869 0.55263 0.592 0.0
H222 H 0.97398 0.56625 0.63158 0.0
C223 C 0.02151 0.48995 0.59172 0.0
C224 C 0.02784 0.45477 0.60578 0.0
H225 H 0.99421 0.57838 0.58097 0.0
H226 H 0.03487 0.46939 0.58051 0.0
C227 C 1.01048 0.48357 0.62008 0.0
C228 C 0.52142 0.60727 0.83219 0.0
C229 C 0.57847 0.57807 0.83616 0.0
H230 H 0.42152 0.59585 0.82922 0.0
C231 C 0.57758 0.51218 0.83973 0.0
H232 H 0.52034 0.65794 0.82935 0.0
C233 C 0.5209 0.47661 0.83961 0.0
C234 C 0.46368 0.50603 0.83595 0.0
H235 H 0.62059 0.4881 0.84279 0.0
H236 H 0.52197 0.42609 0.84262 0.0
C237 C 0.46467 0.57168 0.8321 0.0
C238 C 0.49063 0.05341 0.08939 0.0
C239 C 0.51406 0.10032 0.09996 0.0
H240 H 0.49684 0.95664 0.08085 0.0
C241 C 0.56371 0.08442 0.11007 0.0
H242 H 0.45209 0.06398 0.0815 0.0
C243 C 0.58949 1.02326 0.10962 0.0
C244 C 0.5658 0.97608 0.09918 0.0
H245 H 0.58282 0.11928 0.11836 0.0
H246 H 0.62783 1.01285 0.11758 0.0
C247 C 0.51596 0.99177 0.08908 0.0
C248 C 0.0343 0.45573 0.95126 0.0
C249 C 0.07586 0.47051 0.96372 0.0
H250 H 0.94347 0.4692 0.941 0.0
C251 C 0.05547 0.51102 0.97586 0.0
H252 H 0.04848 0.42474 0.9417 0.0
C253 C 0.99471 0.53597 0.97555 0.0
C254 C 0.95342 0.52159 0.96298 0.0
H255 H 0.08625 0.52308 0.98566 0.0
H256 H 0.98041 0.56716 0.98506 0.0
C257 C 0.974 0.48125 0.95084 0.0
C258 C 0.42883 0.52218 0.20493 0.0
C259 C 0.4544 0.47523 0.21483 0.0
H260 H 0.43438 0.61897 0.19646 0.0
C261 C 0.50633 0.49229 0.22435 0.0
H262 H 0.38885 0.51078 0.19742 0.0
C263 C 0.53206 0.55493 0.22394 0.0
C264 C 0.50689 0.60155 0.21384 0.0
H265 H 0.52696 0.45736 0.23216 0.0
H266 H 0.57231 0.56649 0.23134 0.0
C267 C 0.45494 0.58437 0.20437 0.0
C268 C 0.47705 0.9936 0.4505 0.0
C269 C 0.45465 0.03028 0.46313 0.0
H270 H 0.55315 0.94013 0.44103 0.0
C271 C 0.49441 0.04184 0.47615 0.0
H272 H 0.44772 0.98388 0.44029 0.0
C273 C 0.55537 1.01748 0.47648 0.0
C274 C 0.57746 0.9803 0.4639 0.0
H275 H 0.4787 0.07026 0.48604 0.0
H276 H 0.58484 0.02706 0.48668 0.0
C277 C 0.53756 0.96854 0.45093 0.0
C278 C 0.02071 0.06498 0.69201 0.0
C279 C 0.03082 0.09863 0.7062 0.0
H280 H 0.99302 0.97655 0.68093 0.0
C281 C 0.0198 0.06623 0.72053 0.0
H282 H 0.02902 0.08812 0.68074 0.0
C283 C 0.9989 1.00178 0.72064 0.0
C284 C 0.98911 0.96818 0.70641 0.0
H285 H 0.02731 0.09061 0.73168 0.0
H286 H 0.99048 0.97832 0.73186 0.0
C287 C 1.00037 1.00065 0.69212 0.0
C288 C 0.55239 1.02209 0.34027 0.0
C289 C 0.57448 0.98311 0.35252 0.0
H290 H 0.4757 0.07641 0.3312 0.0
C291 C 0.53446 0.96952 0.36537 0.0
H292 H 0.58193 0.03313 0.33017 0.0
C293 C 0.47399 0.99459 0.36602 0.0
C294 C 0.45159 0.03316 0.35374 0.0
H295 H 0.54997 0.93971 0.37502 0.0
H296 H 0.44469 0.98348 0.37615 0.0
C297 C 0.49138 0.04647 0.34081 0.0
C298 C 1.00213 0.98839 0.59227 0.0
C299 C 0.99192 0.95588 0.60662 0.0
H300 H 0.02919 0.07668 0.58086 0.0
C301 C 1.0014 0.98985 0.62079 0.0
H302 H 0.99502 0.96384 0.58113 0.0
C303 C 0.02036 0.05465 0.62063 0.0
C304 C 0.03064 0.08722 0.6063 0.0
H305 H 0.99364 0.96659 0.63207 0.0
H306 H 0.02735 0.07907 0.63179 0.0
C307 C 0.02143 0.05324 0.59211 0.0
C308 C 0.03281 0.47732 0.86262 0.0
C309 C 0.07276 0.49278 0.84989 0.0
H310 H 0.94305 0.48964 0.87356 0.0
C311 C 0.05061 0.53343 0.83798 0.0
H312 H 0.04839 0.44617 0.87201 0.0
C313 C 0.98957 0.55761 0.83875 0.0
C314 C 0.94985 0.54243 0.85158 0.0
H315 H 0.08011 0.54594 0.82798 0.0
H316 H 0.97383 0.58887 0.82941 0.0
C317 C 0.97232 0.5022 0.86351 0.0
C318 C 0.45378 0.58092 0.11153 0.0
C319 C 0.50033 0.59964 0.1006 0.0
H320 H 0.39236 0.50584 0.12001 0.0
C321 C 0.52128 0.55403 0.08963 0.0
H322 H 0.43669 0.61468 0.12016 0.0
C323 C 0.49648 0.49099 0.08969 0.0
C324 C 0.44955 0.47256 0.10057 0.0
H325 H 0.5575 0.56676 0.08112 0.0
H326 H 0.51352 0.45698 0.08112 0.0
C327 C 0.42842 0.51837 0.11144 0.0
C328 C 0.52535 0.4569 0.97197 0.0
C329 C 0.46866 0.48575 0.9764 0.0
H330 H 0.62537 0.46744 0.96927 0.0
C331 C 0.47092 0.54917 0.98204 0.0
H332 H 0.52543 0.40808 0.96756 0.0
C333 C 0.52845 0.58312 0.98308 0.0
C334 C 0.58501 0.55456 0.97842 0.0
H335 H 0.42823 0.57279 0.98557 0.0
H336 H 0.52838 0.63212 0.98737 0.0
C337 C 0.58278 0.49093 0.97293 0.0
C338 C 0.52845 0.99228 0.22281 0.0
C339 C 0.57343 0.97497 0.21151 0.0
H340 H 0.46909 0.06611 0.23168 0.0
C341 C 0.59276 1.02079 0.20021 0.0
H342 H 0.51286 0.95824 0.23172 0.0
C343 C 0.56748 0.08223 0.20011 0.0
C344 C 0.52289 0.09986 0.21145 0.0
H345 H 0.6273 1.0091 0.19133 0.0
H346 H 0.58309 0.11602 0.19114 0.0
C347 C 0.5038 0.05426 0.22285 0.0
C348 C 0.02437 0.95936 0.47435 0.0
C349 C 0.96772 0.98893 0.4785 0.0
H350 H 0.12436 0.9695 0.47151 0.0
C351 C 0.96999 0.05327 0.48348 0.0
H352 H 0.02441 0.90983 0.47045 0.0
C353 C 0.0275 0.08737 0.48416 0.0
C354 C 0.08402 0.05807 0.47978 0.0
H355 H 0.92732 0.07746 0.48677 0.0
H356 H 0.02744 0.13706 0.48794 0.0
C357 C 0.08179 0.99356 0.47494 0.0
C358 C 0.02287 0.50286 0.71963 0.0
C359 C 0.03533 0.47156 0.70529 0.0
H360 H 0.99056 0.5883 0.73096 0.0
C361 C 0.02416 0.50441 0.69111 0.0
H362 H 0.03138 0.47916 0.73077 0.0
C363 C 1.0009 0.5667 0.69122 0.0
C364 C 0.98858 0.59822 0.70551 0.0
H365 H 0.03334 0.48199 0.67984 0.0
H366 H 0.99253 0.59012 0.68003 0.0
C367 C 0.99999 0.56563 0.71974 0.0
C368 C 0.28677 0.20578 0.40135 0.0
C369 C 0.22976 0.20883 0.39296 0.0
H370 H 0.33136 0.19981 0.42394 0.0
C371 C 0.17347 0.21598 0.40145 0.0
H372 H 0.33105 0.20061 0.3952 0.0
C373 C 0.17364 0.21548 0.41794 0.0
C374 C 0.2301 0.20791 0.42633 0.0
H375 H 0.12875 0.21898 0.39538 0.0
H376 H 0.12905 0.21808 0.42408 0.0
C377 C 0.28695 0.20538 0.41786 0.0
C378 C 0.80693 0.75979 0.64758 0.0
C379 C 0.80227 0.81678 0.63879 0.0
H380 H 0.81446 0.71717 0.67041 0.0
C381 C 0.79235 0.8747 0.64687 0.0
H382 H 0.81401 0.7142 0.64176 0.0
C383 C 0.79257 0.8764 0.66337 0.0
C384 C 0.80278 0.82021 0.67212 0.0
H385 H 0.78824 0.91945 0.64048 0.0
H386 H 0.7886 0.92239 0.66921 0.0
C387 C 0.80724 0.7615 0.66405 0.0
C388 C 0.33777 0.48287 0.89777 0.0
C389 C 0.30696 0.43447 0.88898 0.0
H390 H 0.361 0.51981 0.92051 0.0
C391 C 0.27985 0.38141 0.89694 0.0
H392 H 0.35999 0.52392 0.89201 0.0
C393 C 0.28048 0.379 0.91349 0.0
C394 C 0.30819 0.42966 0.92222 0.0
H395 H 0.25586 0.34335 0.89044 0.0
H396 H 0.25694 0.33915 0.91942 0.0
C397 C 0.33836 0.4805 0.91415 0.0
C398 C 0.6962 0.66045 0.14675 0.0
C399 C 0.69448 0.71866 0.13837 0.0
H400 H 0.69536 0.61457 0.16934 0.0
C401 C 0.69846 0.77671 0.14682 0.0
H402 H 0.69358 0.61484 0.14062 0.0
C403 C 0.69951 0.77655 0.16331 0.0
C404 C 0.69655 0.71833 0.17172 0.0
H405 H 0.69771 0.82246 0.14075 0.0
H406 H 0.69955 0.82218 0.16945 0.0
C407 C 0.6972 0.66029 0.16325 0.0
C408 C 0.67379 0.71811 0.90097 0.0
C409 C 0.72973 0.71186 0.89229 0.0
H410 H 0.63017 0.71806 0.9237 0.0
C411 C 0.78703 0.70769 0.90053 0.0
H412 H 0.62886 0.72192 0.89503 0.0
C413 C 0.78778 0.7055 0.91704 0.0
C414 C 0.73126 0.70741 0.92567 0.0
H415 H 0.83106 0.70305 0.89423 0.0
H416 H 0.83238 0.6992 0.92298 0.0
C417 C 0.67454 0.71592 0.91745 0.0
C418 C 0.32532 0.26954 0.16559 0.0
C419 C 0.32852 0.21166 0.17406 0.0
H420 H 0.32432 0.31483 0.14297 0.0
C421 C 0.32549 0.1533 0.16572 0.0
H422 H 0.32698 0.31537 0.17164 0.0
C423 C 0.32403 0.15298 0.14922 0.0
C424 C 0.32547 0.21101 0.14074 0.0
H425 H 0.3275 0.10782 0.17187 0.0
H426 H 0.32494 0.10726 0.14314 0.0
C427 C 0.32376 0.26922 0.14912 0.0
C428 C 0.7778 0.87074 0.4 0.0
C429 C 0.81222 0.91852 0.39176 0.0
H430 H 0.74854 0.8351 0.42274 0.0
C431 C 0.85035 0.96213 0.40027 0.0
H432 H 0.74804 0.83648 0.39371 0.0
C433 C 0.85064 0.96133 0.41667 0.0
C434 C 0.81285 0.91688 0.42501 0.0
H435 H 0.87826 0.99884 0.39428 0.0
H436 H 0.87872 0.99747 0.42282 0.0
C437 C 0.77812 0.86991 0.41658 0.0
C438 C 0.22916 0.18264 0.66371 0.0
C439 C 0.21785 0.24042 0.67171 0.0
H440 H 0.23413 0.13476 0.64142 0.0
C441 C 0.21218 0.29716 0.66288 0.0
H442 H 0.23409 0.13812 0.67015 0.0
C443 C 0.21234 0.29527 0.64642 0.0
C444 C 0.21801 0.23656 0.63841 0.0
H445 H 0.20415 0.34264 0.66866 0.0
H446 H 0.20431 0.33936 0.64002 0.0
C447 C 0.22919 0.18072 0.64722 0.0
C448 C 0.31697 0.27406 0.29683 0.0
C449 C 0.27727 0.21917 0.297 0.0
H450 H 0.37148 0.3402 0.28279 0.0
C451 C 0.25575 0.19359 0.28259 0.0
H452 H 0.33414 0.2951 0.30774 0.0
C453 C 0.27691 0.2195 0.2683 0.0
C454 C 0.32036 0.27139 0.26811 0.0
H455 H 0.22454 0.15174 0.28231 0.0
H456 H 0.26158 0.19674 0.25743 0.0
C457 C 0.33843 0.29983 0.28252 0.0
C458 C 0.79041 0.79754 0.52502 0.0
C459 C 0.74115 0.83984 0.52206 0.0
H460 H 0.84594 0.75038 0.5424 0.0
C461 C 0.70493 0.86128 0.53484 0.0
H462 H 0.81906 0.77989 0.51546 0.0
C463 C 0.72045 0.8446 0.5503 0.0
C464 C 0.77246 0.80598 0.55334 0.0
H465 H 0.66626 0.89349 0.53298 0.0
H466 H 0.69331 0.86435 0.55989 0.0
C467 C 0.80588 0.78075 0.5405 0.0
C468 C 0.18387 0.2693 0.77964 0.0
C469 C 0.20657 0.28938 0.76482 0.0
H470 H 0.18987 0.28015 0.80471 0.0
C471 C 0.25905 0.33162 0.76419 0.0
H472 H 0.14382 0.23638 0.78056 0.0
C473 C 0.28547 0.35663 0.77804 0.0
C474 C 0.26004 0.33997 0.79283 0.0
H475 H 0.2781 0.34764 0.75298 0.0
H476 H 0.32413 0.39124 0.77709 0.0
C477 C 0.21036 0.29431 0.79351 0.0
C478 C 0.74586 0.74038 1.02473 0.0
C479 C 0.78596 0.6885 1.02233 0.0
H480 H 0.69399 0.79548 0.04142 0.0
C481 C 0.80999 0.65642 0.03555 0.0
H482 H 0.72672 0.76624 1.0148 0.0
C483 C 0.79116 0.67294 0.05076 0.0
C484 C 0.74798 0.72211 0.05314 0.0
H485 H 0.84151 0.61662 0.03415 0.0
H486 H 0.8086 0.6454 0.06061 0.0
C487 C 0.72713 0.7571 0.04 0.0
C488 C 0.25908 0.30992 0.04615 0.0
C489 C 0.30834 0.26598 0.04603 0.0
H490 H 0.20015 0.37085 0.03257 0.0
C491 C 0.3306 0.24366 1.03144 0.0
H492 H 0.24044 0.32766 0.05717 0.0
C493 C 0.30756 0.26851 1.01731 0.0
C494 C 0.26171 0.31614 1.01748 0.0
H495 H 0.36812 0.20933 1.03092 0.0
H496 H 0.32806 0.2528 1.00631 0.0
C497 C 0.23598 0.33469 1.03202 0.0
C498 C 0.71792 0.7837 0.29546 0.0
C499 C 0.76475 0.83241 0.29503 0.0
H500 H 0.65528 0.72258 0.2822 0.0
C501 C 0.78939 0.85166 0.28033 0.0
H502 H 0.69816 0.76749 0.30658 0.0
C503 C 0.7648 0.82596 0.26634 0.0
C504 C 0.71497 0.78046 0.26674 0.0
H505 H 0.82591 0.88869 0.27956 0.0
H506 H 0.78295 0.84396 0.25521 0.0
C507 C 0.69328 0.75802 0.28146 0.0
C508 C 0.31875 0.17086 0.53592 0.0
C509 C 0.28913 0.19764 0.5227 0.0
H510 H 0.32214 0.16352 0.56105 0.0
C511 C 0.2431 0.24411 0.52508 0.0
H512 H 0.35481 0.13532 0.53451 0.0
C513 C 0.22434 0.26035 0.54036 0.0
C514 C 0.25123 0.23042 0.55356 0.0
H515 H 0.21951 0.26579 0.51515 0.0
H516 H 0.18686 0.29431 0.54179 0.0
C517 C 0.30002 0.18705 0.55116 0.0
C518 C 0.83863 0.80823 0.78075 0.0
C519 C 0.81942 0.77976 0.76643 0.0
H520 H 0.83545 0.80415 0.806 0.0
C521 C 0.7756 0.72823 0.76683 0.0
H522 H 0.87201 0.84832 0.78086 0.0
C523 C 0.75489 0.70288 0.78122 0.0
C524 C 0.7772 0.72867 0.79554 0.0
H525 H 0.75942 0.70543 0.75604 0.0
H526 H 0.72321 0.66139 0.78109 0.0
C527 C 0.81757 0.78304 0.79517 0.0
loop_
_geom_bond_atom_site_label_1
_geom_bond_atom_site_label_2
_geom_bond_distance
_geom_bond_site_symmetry_2
_ccdc_geom_bond_type
Mg0 O7 2.141 . S
Mg0 O8 2.048 . S
Mg0 O9 2.048 . S
Mg0 O12 2.141 . S
C1 O2 1.313 . S
C1 O8 1.195 . S
O2 C1 1.313 . S
C3 O4 1.245 . S
C3 O12 1.289 . S
O4 C3 1.245 . S
C5 O6 1.245 . S
C5 O7 1.289 . S
O6 C5 1.245 . S
O7 Mg0 2.141 . S
O7 C5 1.289 . S
O8 Mg0 2.048 . S
O8 C1 1.195 . S
O9 Mg0 2.048 . S
O9 C10 1.195 . S
C10 O9 1.195 . S
C10 O11 1.313 . S
O11 C10 1.313 . S
O12 Mg0 2.141 . S
O12 C3 1.289 . S
Mg13 O20 2.141 . S
Mg13 O21 2.048 . S
Mg13 O22 2.048 . S
Mg13 O25 2.141 . S
C14 O15 1.313 . S
C14 O21 1.195 . S
O15 C14 1.313 . S
C16 O17 1.245 . S
C16 O25 1.289 . S
O17 C16 1.245 . S
C18 O19 1.245 . S
C18 O20 1.289 . S
O19 C18 1.245 . S
O20 Mg13 2.141 . S
O20 C18 1.289 . S
O21 Mg13 2.048 . S
O21 C14 1.195 . S
O22 Mg13 2.048 . S
O22 C23 1.195 . S
C23 O22 1.195 . S
C23 O24 1.313 . S
O24 C23 1.313 . S
O25 Mg13 2.141 . S
O25 C16 1.289 . S
Mg26 O33 2.141 . S
Mg26 O34 2.048 . S
Mg26 O35 2.048 . S
Mg26 O38 2.141 . S
C27 O28 1.313 . S
C27 O34 1.195 . S
O28 C27 1.313 . S
C29 O30 1.245 . S
C29 O38 1.289 . S
O30 C29 1.245 . S
C31 O32 1.245 . S
C31 O33 1.289 . S
O32 C31 1.245 . S
O33 Mg26 2.141 . S
O33 C31 1.289 . S
O34 Mg26 2.048 . S
O34 C27 1.195 . S
O35 Mg26 2.048 . S
O35 C36 1.195 . S
C36 O35 1.195 . S
C36 O37 1.313 . S
O37 C36 1.313 . S
O38 Mg26 2.141 . S
O38 C29 1.289 . S
Mg39 O46 2.141 . S
Mg39 O47 2.048 . S
Mg39 O48 2.048 . S
Mg39 O51 2.141 . S
C40 O41 1.313 . S
C40 O47 1.195 . S
O41 C40 1.313 . S
C42 O43 1.245 . S
C42 O51 1.289 . S
O43 C42 1.245 . S
C44 O45 1.245 . S
C44 O46 1.289 . S
O45 C44 1.245 . S
O46 Mg39 2.141 . S
O46 C44 1.289 . S
O47 Mg39 2.048 . S
O47 C40 1.195 . S
O48 Mg39 2.048 . S
O48 C49 1.195 . S
C49 O48 1.195 . S
C49 O50 1.313 . S
O50 C49 1.313 . S
O51 Mg39 2.141 . S
O51 C42 1.289 . S
Mg52 O59 2.141 . S
Mg52 O60 2.048 . S
Mg52 O61 2.048 . S
Mg52 O64 2.141 . S
C53 O54 1.313 . S
C53 O60 1.195 . S
O54 C53 1.313 . S
C55 O56 1.245 . S
C55 O64 1.289 . S
O56 C55 1.245 . S
C57 O58 1.245 . S
C57 O59 1.289 . S
O58 C57 1.245 . S
O59 Mg52 2.141 . S
O59 C57 1.289 . S
O60 Mg52 2.048 . S
O60 C53 1.195 . S
O61 Mg52 2.048 . S
O61 C62 1.195 . S
C62 O61 1.195 . S
C62 O63 1.313 . S
O63 C62 1.313 . S
O64 Mg52 2.141 . S
O64 C55 1.289 . S
Mg65 O72 2.141 . S
Mg65 O73 2.048 . S
Mg65 O74 2.048 . S
Mg65 O77 2.141 . S
C66 O67 1.313 . S
C66 O73 1.195 . S
O67 C66 1.313 . S
C68 O69 1.245 . S
C68 O77 1.289 . S
O69 C68 1.245 . S
C70 O71 1.245 . S
C70 O72 1.289 . S
O71 C70 1.245 . S
O72 Mg65 2.141 . S
O72 C70 1.289 . S
O73 Mg65 2.048 . S
O73 C66 1.195 . S
O74 Mg65 2.048 . S
O74 C75 1.195 . S
C75 O74 1.195 . S
C75 O76 1.313 . S
O76 C75 1.313 . S
O77 Mg65 2.141 . S
O77 C68 1.289 . S
Mg78 O85 2.141 . S
Mg78 O86 2.048 . S
Mg78 O87 2.048 . S
Mg78 O90 2.141 . S
C79 O80 1.313 . S
C79 O86 1.195 . S
O80 C79 1.313 . S
C81 O82 1.245 . S
C81 O90 1.289 . S
O82 C81 1.245 . S
C83 O84 1.245 . S
C83 O85 1.289 . S
O84 C83 1.245 . S
O85 Mg78 2.141 . S
O85 C83 1.289 . S
O86 Mg78 2.048 . S
O86 C79 1.195 . S
O87 Mg78 2.048 . S
O87 C88 1.195 . S
C88 O87 1.195 . S
C88 O89 1.313 . S
O89 C88 1.313 . S
O90 Mg78 2.141 . S
O90 C81 1.289 . S
Mg91 O98 2.141 . S
Mg91 O99 2.048 . S
Mg91 O100 2.048 . S
Mg91 O103 2.141 . S
C92 O93 1.313 . S
C92 O99 1.195 . S
O93 C92 1.313 . S
C94 O95 1.245 . S
C94 O103 1.289 . S
O95 C94 1.245 . S
C96 O97 1.245 . S
C96 O98 1.289 . S
O97 C96 1.245 . S
O98 Mg91 2.141 . S
O98 C96 1.289 . S
O99 Mg91 2.048 . S
O99 C92 1.195 . S
O100 Mg91 2.048 . S
O100 C101 1.195 . S
C101 O100 1.195 . S
C101 O102 1.313 . S
O102 C101 1.313 . S
O103 Mg91 2.141 . S
O103 C94 1.289 . S
Mg104 O111 2.141 . S
Mg104 O112 2.048 . S
Mg104 O113 2.048 . S
Mg104 O116 2.141 . S
C105 O106 1.313 . S
C105 O112 1.195 . S
O106 C105 1.313 . S
C107 O108 1.245 . S
C107 O116 1.289 . S
O108 C107 1.245 . S
C109 O110 1.245 . S
C109 O111 1.289 . S
O110 C109 1.245 . S
O111 Mg104 2.141 . S
O111 C109 1.289 . S
O112 Mg104 2.048 . S
O112 C105 1.195 . S
O113 Mg104 2.048 . S
O113 C114 1.195 . S
C114 O113 1.195 . S
C114 O115 1.313 . S
O115 C114 1.313 . S
O116 Mg104 2.141 . S
O116 C107 1.289 . S
Mg117 O124 2.141 . S
Mg117 O125 2.048 . S
Mg117 O126 2.048 . S
Mg117 O129 2.141 . S
C118 O119 1.313 . S
C118 O125 1.195 . S
O119 C118 1.313 . S
C120 O121 1.245 . S
C120 O129 1.289 . S
O121 C120 1.245 . S
C122 O123 1.245 . S
C122 O124 1.289 . S
O123 C122 1.245 . S
O124 Mg117 2.141 . S
O124 C122 1.289 . S
O125 Mg117 2.048 . S
O125 C118 1.195 . S
O126 Mg117 2.048 . S
O126 C127 1.195 . S
C127 O126 1.195 . S
C127 O128 1.313 . S
O128 C127 1.313 . S
O129 Mg117 2.141 . S
O129 C120 1.289 . S
Mg130 O137 2.141 . S
Mg130 O138 2.048 . S
Mg130 O139 2.048 . S
Mg130 O142 2.141 . S
C131 O132 1.313 . S
C131 O138 1.195 . S
O132 C131 1.313 . S
C133 O134 1.245 . S
C133 O142 1.289 . S
O134 C133 1.245 . S
C135 O136 1.245 . S
C135 O137 1.289 . S
O136 C135 1.245 . S
O137 Mg130 2.141 . S
O137 C135 1.289 . S
O138 Mg130 2.048 . S
O138 C131 1.195 . S
O139 Mg130 2.048 . S
O139 C140 1.195 . S
C140 O139 1.195 . S
C140 O141 1.313 . S
O141 C140 1.313 . S
O142 Mg130 2.141 . S
O142 C133 1.289 . S
Mg143 O150 2.141 . S
Mg143 O151 2.048 . S
Mg143 O152 2.048 . S
Mg143 O155 2.141 . S
C144 O145 1.313 . S
C144 O151 1.195 . S
O145 C144 1.313 . S
C146 O147 1.245 . S
C146 O155 1.289 . S
O147 C146 1.245 . S
C148 O149 1.245 . S
C148 O150 1.289 . S
O149 C148 1.245 . S
O150 Mg143 2.141 . S
O150 C148 1.289 . S
O151 Mg143 2.048 . S
O151 C144 1.195 . S
O152 Mg143 2.048 . S
O152 C153 1.195 . S
C153 O152 1.195 . S
C153 O154 1.313 . S
O154 C153 1.313 . S
O155 Mg143 2.141 . S
O155 C146 1.289 . S
Mg156 O163 2.141 . S
Mg156 O164 2.048 . S
Mg156 O165 2.048 . S
Mg156 O168 2.141 . S
C157 O158 1.313 . S
C157 O164 1.195 . S
O158 C157 1.313 . S
C159 O160 1.245 . S
C159 O168 1.289 . S
O160 C159 1.245 . S
C161 O162 1.245 . S
C161 O163 1.289 . S
O162 C161 1.245 . S
O163 Mg156 2.141 . S
O163 C161 1.289 . S
O164 Mg156 2.048 . S
O164 C157 1.195 . S
O165 Mg156 2.048 . S
O165 C166 1.195 . S
C166 O165 1.195 . S
C166 O167 1.313 . S
O167 C166 1.313 . S
O168 Mg156 2.141 . S
O168 C159 1.289 . S
Mg169 O176 2.141 . S
Mg169 O177 2.048 . S
Mg169 O178 2.048 . S
Mg169 O181 2.141 . S
C170 O171 1.313 . S
C170 O177 1.195 . S
O171 C170 1.313 . S
C172 O173 1.245 . S
C172 O181 1.289 . S
O173 C172 1.245 . S
C174 O175 1.245 . S
C174 O176 1.289 . S
O175 C174 1.245 . S
O176 Mg169 2.141 . S
O176 C174 1.289 . S
O177 Mg169 2.048 . S
O177 C170 1.195 . S
O178 Mg169 2.048 . S
O178 C179 1.195 . S
C179 O178 1.195 . S
C179 O180 1.313 . S
O180 C179 1.313 . S
O181 Mg169 2.141 . S
O181 C172 1.289 . S
Mg182 O189 2.141 . S
Mg182 O190 2.048 . S
Mg182 O191 2.048 . S
Mg182 O194 2.141 . S
C183 O184 1.313 . S
C183 O190 1.195 . S
O184 C183 1.313 . S
C185 O186 1.245 . S
C185 O194 1.289 . S
O186 C185 1.245 . S
C187 O188 1.245 . S
C187 O189 1.289 . S
O188 C187 1.245 . S
O189 Mg182 2.141 . S
O189 C187 1.289 . S
O190 Mg182 2.048 . S
O190 C183 1.195 . S
O191 Mg182 2.048 . S
O191 C192 1.195 . S
C192 O191 1.195 . S
C192 O193 1.313 . S
O193 C192 1.313 . S
O194 Mg182 2.141 . S
O194 C185 1.289 . S
Mg195 O202 2.141 . S
Mg195 O203 2.048 . S
Mg195 O204 2.048 . S
Mg195 O207 2.141 . S
C196 O197 1.313 . S
C196 O203 1.195 . S
O197 C196 1.313 . S
C198 O199 1.245 . S
C198 O207 1.289 . S
O199 C198 1.245 . S
C200 O201 1.245 . S
C200 O202 1.289 . S
O201 C200 1.245 . S
O202 Mg195 2.141 . S
O202 C200 1.289 . S
O203 Mg195 2.048 . S
O203 C196 1.195 . S
O204 Mg195 2.048 . S
O204 C205 1.195 . S
C205 O204 1.195 . S
C205 O206 1.313 . S
O206 C205 1.313 . S
O207 Mg195 2.141 . S
O207 C198 1.289 . S
C208 C209 1.387 . S
C208 H212 0.950 . S
C208 C217 1.390 1_665 S
C209 C208 1.387 . S
C209 C211 1.387 . S
H210 C217 0.950 . S
C211 C209 1.387 . S
C211 C213 1.390 1_665 S
C211 H215 0.950 . S
H212 C208 0.950 . S
C213 C211 1.390 1_445 S
C213 C214 1.387 . S
C213 H216 0.950 . S
C214 C213 1.387 . S
C214 C217 1.387 . S
H215 C211 0.950 . S
H216 C213 0.950 . S
C217 C208 1.390 1_445 S
C217 H210 0.950 . S
C217 C214 1.387 . S
C218 C219 1.387 . S
C218 H222 0.950 . S
C218 C227 1.390 1_655 S
C219 C218 1.387 . S
C219 C221 1.387 . S
H220 C227 0.950 . S
C221 C219 1.387 . S
C221 C223 1.390 1_655 S
C221 H225 0.950 . S
H222 C218 0.950 . S
C223 C221 1.390 1_455 S
C223 C224 1.387 . S
C223 H226 0.950 . S
C224 C223 1.387 . S
C224 C227 1.387 . S
H225 C221 0.950 . S
H226 C223 0.950 . S
C227 C218 1.390 1_455 S
C227 H220 0.950 . S
C227 C224 1.387 . S
C228 C229 1.387 . S
C228 H232 0.950 . S
C228 C237 1.390 . S
C229 C228 1.387 . S
C229 C231 1.387 . S
H230 C237 0.950 . S
C231 C229 1.387 . S
C231 C233 1.390 . S
C231 H235 0.950 . S
H232 C228 0.950 . S
C233 C231 1.390 . S
C233 C234 1.387 . S
C233 H236 0.950 . S
C234 C233 1.387 . S
C234 C237 1.387 . S
H235 C231 0.950 . S
H236 C233 0.950 . S
C237 C228 1.390 . S
C237 H230 0.950 . S
C237 C234 1.387 . S
C238 C239 1.387 . S
C238 H242 0.950 . S
C238 C247 1.390 1_545 S
C239 C238 1.387 . S
C239 C241 1.387 . S
H240 C247 0.950 . S
C241 C239 1.387 . S
C241 C243 1.390 1_545 S
C241 H245 0.950 . S
H242 C238 0.950 . S
C243 C241 1.390 1_565 S
C243 C244 1.387 . S
C243 H246 0.950 . S
C244 C243 1.387 . S
C244 C247 1.387 . S
H245 C241 0.950 . S
H246 C243 0.950 . S
C247 C238 1.390 1_565 S
C247 H240 0.950 . S
C247 C244 1.387 . S
C248 C249 1.387 . S
C248 H252 0.950 . S
C248 C257 1.390 1_455 S
C249 C248 1.387 . S
C249 C251 1.387 . S
H250 C257 0.950 . S
C251 C249 1.387 . S
C251 C253 1.390 1_455 S
C251 H255 0.950 . S
H252 C248 0.950 . S
C253 C251 1.390 1_655 S
C253 C254 1.387 . S
C253 H256 0.950 . S
C254 C253 1.387 . S
C254 C257 1.387 . S
H255 C251 0.950 . S
H256 C253 0.950 . S
C257 C248 1.390 1_655 S
C257 H250 0.950 . S
C257 C254 1.387 . S
C258 C259 1.387 . S
C258 H262 0.950 . S
C258 C267 1.390 . S
C259 C258 1.387 . S
C259 C261 1.387 . S
H260 C267 0.950 . S
C261 C259 1.387 . S
C261 C263 1.390 . S
C261 H265 0.950 . S
H262 C258 0.950 . S
C263 C261 1.390 . S
C263 C264 1.387 . S
C263 H266 0.950 . S
C264 C263 1.387 . S
C264 C267 1.387 . S
H265 C261 0.950 . S
H266 C263 0.950 . S
C267 C258 1.390 . S
C267 H260 0.950 . S
C267 C264 1.387 . S
C268 C269 1.387 . S
C268 H272 0.950 . S
C268 C277 1.390 1_545 S
C269 C268 1.387 . S
C269 C271 1.387 . S
H270 C277 0.950 . S
C271 C269 1.387 . S
C271 C273 1.390 1_545 S
C271 H275 0.950 . S
H272 C268 0.950 . S
C273 C271 1.390 1_565 S
C273 C274 1.387 . S
C273 H276 0.950 . S
C274 C273 1.387 . S
C274 C277 1.387 . S
H275 C271 0.950 . S
H276 C273 0.950 . S
C277 C268 1.390 1_565 S
C277 H270 0.950 . S
C277 C274 1.387 . S
C278 C279 1.387 . S
C278 H282 0.950 . S
C278 C287 1.390 1_445 S
C279 C278 1.387 . S
C279 C281 1.387 . S
H280 C287 0.950 . S
C281 C279 1.387 . S
C281 C283 1.390 1_445 S
C281 H285 0.950 . S
H282 C278 0.950 . S
C283 C281 1.390 1_665 S
C283 C284 1.387 . S
C283 H286 0.950 . S
C284 C283 1.387 . S
C284 C287 1.387 . S
H285 C281 0.950 . S
H286 C283 0.950 . S
C287 C278 1.390 1_665 S
C287 H280 0.950 . S
C287 C284 1.387 . S
C288 C289 1.387 . S
C288 H292 0.950 . S
C288 C297 1.390 1_565 S
C289 C288 1.387 . S
C289 C291 1.387 . S
H290 C297 0.950 . S
C291 C289 1.387 . S
C291 C293 1.390 1_565 S
C291 H295 0.950 . S
H292 C288 0.950 . S
C293 C291 1.390 1_545 S
C293 C294 1.387 . S
C293 H296 0.950 . S
C294 C293 1.387 . S
C294 C297 1.387 . S
H295 C291 0.950 . S
H296 C293 0.950 . S
C297 C288 1.390 1_545 S
C297 H290 0.950 . S
C297 C294 1.387 . S
C298 C299 1.387 . S
C298 H302 0.950 . S
C298 C307 1.390 1_665 S
C299 C298 1.387 . S
C299 C301 1.387 . S
H300 C307 0.950 . S
C301 C299 1.387 . S
C301 C303 1.390 1_665 S
C301 H305 0.950 . S
H302 C298 0.950 . S
C303 C301 1.390 1_445 S
C303 C304 1.387 . S
C303 H306 0.950 . S
C304 C303 1.387 . S
C304 C307 1.387 . S
H305 C301 0.950 . S
H306 C303 0.950 . S
C307 C298 1.390 1_445 S
C307 H300 0.950 . S
C307 C304 1.387 . S
C308 C309 1.387 . S
C308 H312 0.950 . S
C308 C317 1.390 1_455 S
C309 C308 1.387 . S
C309 C311 1.387 . S
H310 C317 0.950 . S
C311 C309 1.387 . S
C311 C313 1.390 1_455 S
C311 H315 0.950 . S
H312 C308 0.950 . S
C313 C311 1.390 1_655 S
C313 C314 1.387 . S
C313 H316 0.950 . S
C314 C313 1.387 . S
C314 C317 1.387 . S
H315 C311 0.950 . S
H316 C313 0.950 . S
C317 C308 1.390 1_655 S
C317 H310 0.950 . S
C317 C314 1.387 . S
C318 C319 1.387 . S
C318 H322 0.950 . S
C318 C327 1.390 . S
C319 C318 1.387 . S
C319 C321 1.387 . S
H320 C327 0.950 . S
C321 C319 1.387 . S
C321 C323 1.390 . S
C321 H325 0.950 . S
H322 C318 0.950 . S
C323 C321 1.390 . S
C323 C324 1.387 . S
C323 H326 0.950 . S
C324 C323 1.387 . S
C324 C327 1.387 . S
H325 C321 0.950 . S
H326 C323 0.950 . S
C327 C318 1.390 . S
C327 H320 0.950 . S
C327 C324 1.387 . S
C328 C329 1.387 . S
C328 H332 0.950 . S
C328 C337 1.390 . S
C329 C328 1.387 . S
C329 C331 1.387 . S
H330 C337 0.950 . S
C331 C329 1.387 . S
C331 C333 1.390 . S
C331 H335 0.950 . S
H332 C328 0.950 . S
C333 C331 1.390 . S
C333 C334 1.387 . S
C333 H336 0.950 . S
C334 C333 1.387 . S
C334 C337 1.387 . S
H335 C331 0.950 . S
H336 C333 0.950 . S
C337 C328 1.390 . S
C337 H330 0.950 . S
C337 C334 1.387 . S
C338 C339 1.387 . S
C338 H342 0.950 . S
C338 C347 1.390 1_565 S
C339 C338 1.387 . S
C339 C341 1.387 . S
H340 C347 0.950 . S
C341 C339 1.387 . S
C341 C343 1.390 1_565 S
C341 H345 0.950 . S
H342 C338 0.950 . S
C343 C341 1.390 1_545 S
C343 C344 1.387 . S
C343 H346 0.950 . S
C344 C343 1.387 . S
C344 C347 1.387 . S
H345 C341 0.950 . S
H346 C343 0.950 . S
C347 C338 1.390 1_545 S
C347 H340 0.950 . S
C347 C344 1.387 . S
C348 C349 1.387 . S
C348 H352 0.950 . S
C348 C357 1.390 1_665 S
C349 C348 1.387 . S
C349 C351 1.387 . S
H350 C357 0.950 . S
C351 C349 1.387 . S
C351 C353 1.390 1_665 S
C351 H355 0.950 . S
H352 C348 0.950 . S
C353 C351 1.390 1_445 S
C353 C354 1.387 . S
C353 H356 0.950 . S
C354 C353 1.387 . S
C354 C357 1.387 . S
H355 C351 0.950 . S
H356 C353 0.950 . S
C357 C348 1.390 1_445 S
C357 H350 0.950 . S
C357 C354 1.387 . S
C358 C359 1.387 . S
C358 H362 0.950 . S
C358 C367 1.390 1_455 S
C359 C358 1.387 . S
C359 C361 1.387 . S
H360 C367 0.950 . S
C361 C359 1.387 . S
C361 C363 1.390 1_455 S
C361 H365 0.950 . S
H362 C358 0.950 . S
C363 C361 1.390 1_655 S
C363 C364 1.387 . S
C363 H366 0.950 . S
C364 C363 1.387 . S
C364 C367 1.387 . S
H365 C361 0.950 . S
H366 C363 0.950 . S
C367 C358 1.390 1_655 S
C367 H360 0.950 . S
C367 C364 1.387 . S
C368 C369 1.387 . S
C368 H372 0.950 . S
C368 C377 1.390 . S
C369 C368 1.387 . S
C369 C371 1.387 . S
H370 C377 0.950 . S
C371 C369 1.387 . S
C371 C373 1.390 . S
C371 H375 0.950 1_545 S
H372 C368 0.950 . S
C373 C371 1.390 . S
C373 C374 1.387 . S
C373 H376 0.950 1_545 S
C374 C373 1.387 . S
C374 C377 1.387 . S
H375 C371 0.950 1_565 S
H376 C373 0.950 1_565 S
C377 C368 1.390 . S
C377 H370 0.950 . S
C377 C374 1.387 . S
C378 C379 1.387 . S
C378 H382 0.950 1_655 S
C378 C387 1.390 . S
C379 C378 1.387 . S
C379 C381 1.387 . S
H380 C387 0.950 1_455 S
C381 C379 1.387 . S
C381 C383 1.390 . S
C381 H385 0.950 . S
H382 C378 0.950 1_455 S
C383 C381 1.390 . S
C383 C384 1.387 . S
C383 H386 0.950 . S
C384 C383 1.387 . S
C384 C387 1.387 . S
H385 C381 0.950 . S
H386 C383 0.950 . S
C387 C378 1.390 . S
C387 H380 0.950 1_655 S
C387 C384 1.387 . S
C388 C389 1.387 . S
C388 H392 0.950 . S
C388 C397 1.390 . S
C389 C388 1.387 . S
C389 C391 1.387 . S
H390 C397 0.950 . S
C391 C389 1.387 . S
C391 C393 1.390 . S
C391 H395 0.950 . S
H392 C388 0.950 . S
C393 C391 1.390 . S
C393 C394 1.387 . S
C393 H396 0.950 . S
C394 C393 1.387 . S
C394 C397 1.387 . S
H395 C391 0.950 . S
H396 C393 0.950 . S
C397 C388 1.390 . S
C397 H390 0.950 . S
C397 C394 1.387 . S
C398 C399 1.387 . S
C398 H402 0.950 . S
C398 C407 1.390 . S
C399 C398 1.387 . S
C399 C401 1.387 . S
H400 C407 0.950 . S
C401 C399 1.387 . S
C401 C403 1.390 . S
C401 H405 0.950 . S
H402 C398 0.950 . S
C403 C401 1.390 . S
C403 C404 1.387 . S
C403 H406 0.950 . S
C404 C403 1.387 . S
C404 C407 1.387 . S
H405 C401 0.950 . S
H406 C403 0.950 . S
C407 C398 1.390 . S
C407 H400 0.950 . S
C407 C404 1.387 . S
C408 C409 1.387 . S
C408 H412 0.950 . S
C408 C417 1.390 . S
C409 C408 1.387 . S
C409 C411 1.387 . S
H410 C417 0.950 . S
C411 C409 1.387 . S
C411 C413 1.390 . S
C411 H415 0.950 . S
H412 C408 0.950 . S
C413 C411 1.390 . S
C413 C414 1.387 . S
C413 H416 0.950 . S
C414 C413 1.387 . S
C414 C417 1.387 . S
H415 C411 0.950 . S
H416 C413 0.950 . S
C417 C408 1.390 . S
C417 H410 0.950 . S
C417 C414 1.387 . S
C418 C419 1.387 . S
C418 H422 0.950 . S
C418 C427 1.390 . S
C419 C418 1.387 . S
C419 C421 1.387 . S
H420 C427 0.950 . S
C421 C419 1.387 . S
C421 C423 1.390 . S
C421 H425 0.950 . S
H422 C418 0.950 . S
C423 C421 1.390 . S
C423 C424 1.387 . S
C423 H426 0.950 . S
C424 C423 1.387 . S
C424 C427 1.387 . S
H425 C421 0.950 . S
H426 C423 0.950 . S
C427 C418 1.390 . S
C427 H420 0.950 . S
C427 C424 1.387 . S
C428 C429 1.387 . S
C428 H432 0.950 . S
C428 C437 1.390 . S
C429 C428 1.387 . S
C429 C431 1.387 . S
H430 C437 0.950 . S
C431 C429 1.387 . S
C431 C433 1.390 . S
C431 H435 0.950 1_565 S
H432 C428 0.950 . S
C433 C431 1.390 . S
C433 C434 1.387 . S
C433 H436 0.950 1_565 S
C434 C433 1.387 . S
C434 C437 1.387 . S
H435 C431 0.950 1_545 S
H436 C433 0.950 1_545 S
C437 C428 1.390 . S
C437 H430 0.950 . S
C437 C434 1.387 . S
C438 C439 1.387 . S
C438 H442 0.950 . S
C438 C447 1.390 . S
C439 C438 1.387 . S
C439 C441 1.387 . S
H440 C447 0.950 . S
C441 C439 1.387 . S
C441 C443 1.390 . S
C441 H445 0.950 1_455 S
H442 C438 0.950 . S
C443 C441 1.390 . S
C443 C444 1.387 . S
C443 H446 0.950 1_455 S
C444 C443 1.387 . S
C444 C447 1.387 . S
H445 C441 0.950 1_655 S
H446 C443 0.950 1_655 S
C447 C438 1.390 . S
C447 H440 0.950 . S
C447 C444 1.387 . S
C448 C449 1.387 . S
C448 H452 0.950 . S
C448 C457 1.390 . S
C449 C448 1.387 . S
C449 C451 1.387 . S
H450 C457 0.950 . S
C451 C449 1.387 . S
C451 C453 1.390 . S
C451 H455 0.950 . S
H452 C448 0.950 . S
C453 C451 1.390 . S
C453 C454 1.387 . S
C453 H456 0.950 . S
C454 C453 1.387 . S
C454 C457 1.387 . S
H455 C451 0.950 . S
H456 C453 0.950 . S
C457 C448 1.390 . S
C457 H450 0.950 . S
C457 C454 1.387 . S
C458 C459 1.387 . S
C458 H462 0.950 . S
C458 C467 1.390 . S
C459 C458 1.387 . S
C459 C461 1.387 . S
H460 C467 0.950 . S
C461 C459 1.387 . S
C461 C463 1.390 . S
C461 H465 0.950 . S
H462 C458 0.950 . S
C463 C461 1.390 . S
C463 C464 1.387 . S
C463 H466 0.950 . S
C464 C463 1.387 . S
C464 C467 1.387 . S
H465 C461 0.950 . S
H466 C463 0.950 . S
C467 C458 1.390 . S
C467 H460 0.950 . S
C467 C464 1.387 . S
C468 C469 1.387 . S
C468 H472 0.950 . S
C468 C477 1.390 . S
C469 C468 1.387 . S
C469 C471 1.387 . S
H470 C477 0.950 . S
C471 C469 1.387 . S
C471 C473 1.390 . S
C471 H475 0.950 . S
H472 C468 0.950 . S
C473 C471 1.390 . S
C473 C474 1.387 . S
C473 H476 0.950 . S
C474 C473 1.387 . S
C474 C477 1.387 . S
H475 C471 0.950 . S
H476 C473 0.950 . S
C477 C468 1.390 . S
C477 H470 0.950 . S
C477 C474 1.387 . S
C478 C479 1.387 . S
C478 H482 0.950 . S
C478 C487 1.390 . S
C479 C478 1.387 . S
C479 C481 1.387 1_556 S
H480 C487 0.950 . S
C481 C479 1.387 1_554 S
C481 C483 1.390 . S
C481 H485 0.950 . S
H482 C478 0.950 . S
C483 C481 1.390 . S
C483 C484 1.387 . S
C483 H486 0.950 . S
C484 C483 1.387 . S
C484 C487 1.387 1_554 S
H485 C481 0.950 . S
H486 C483 0.950 . S
C487 C478 1.390 . S
C487 H480 0.950 . S
C487 C484 1.387 1_556 S
C488 C489 1.387 . S
C488 H492 0.950 . S
C488 C497 1.390 . S
C489 C488 1.387 . S
C489 C491 1.387 1_554 S
H490 C497 0.950 . S
C491 C489 1.387 1_556 S
C491 C493 1.390 . S
C491 H495 0.950 . S
H492 C488 0.950 . S
C493 C491 1.390 . S
C493 C494 1.387 . S
C493 H496 0.950 . S
C494 C493 1.387 . S
C494 C497 1.387 1_556 S
H495 C491 0.950 . S
H496 C493 0.950 . S
C497 C488 1.390 . S
C497 H490 0.950 . S
C497 C494 1.387 1_554 S
C498 C499 1.387 . S
C498 H502 0.950 . S
C498 C507 1.390 . S
C499 C498 1.387 . S
C499 C501 1.387 . S
H500 C507 0.950 . S
C501 C499 1.387 . S
C501 C503 1.390 . S
C501 H505 0.950 . S
H502 C498 0.950 . S
C503 C501 1.390 . S
C503 C504 1.387 . S
C503 H506 0.950 . S
C504 C503 1.387 . S
C504 C507 1.387 . S
H505 C501 0.950 . S
H506 C503 0.950 . S
C507 C498 1.390 . S
C507 H500 0.950 . S
C507 C504 1.387 . S
C508 C509 1.387 . S
C508 H512 0.950 . S
C508 C517 1.390 . S
C509 C508 1.387 . S
C509 C511 1.387 . S
H510 C517 0.950 . S
C511 C509 1.387 . S
C511 C513 1.390 . S
C511 H515 0.950 . S
H512 C508 0.950 . S
C513 C511 1.390 . S
C513 C514 1.387 . S
C513 H516 0.950 . S
C514 C513 1.387 . S
C514 C517 1.387 . S
H515 C511 0.950 . S
H516 C513 0.950 . S
C517 C508 1.390 . S
C517 H510 0.950 . S
C517 C514 1.387 . S
C518 C519 1.387 . S
C518 H522 0.950 . S
C518 C527 1.390 . S
C519 C518 1.387 . S
C519 C521 1.387 . S
H520 C527 0.950 . S
C521 C519 1.387 . S
C521 C523 1.390 . S
C521 H525 0.950 . S
H522 C518 0.950 . S
C523 C521 1.390 . S
C523 C524 1.387 . S
C523 H526 0.950 . S
C524 C523 1.387 . S
C524 C527 1.387 . S
H525 C521 0.950 . S
H526 C523 0.950 . S
C527 C518 1.390 . S
C527 H520 0.950 . S
C527 C524 1.387 . S
C209 C133 1.984 . S
C214 C3 1.984 . S
C219 C18 2.179 . S
C224 C148 2.179 . S
C229 C107 1.984 . S
C234 C29 1.984 . S
C239 C122 2.182 . S
C244 C44 2.182 . S
C249 C55 1.984 . S
C254 C185 1.984 . S
C259 C200 2.180 . S
C264 C70 2.180 . S
C269 C81 1.984 . S
C274 C159 1.984 . S
C279 C174 2.179 . S
C284 C96 2.179 . S
C289 C131 1.741 . S
C294 C1 1.741 . S
C299 C23 1.876 . S
C304 C153 1.876 . S
C309 C27 1.745 . S
C314 C105 1.745 . S
C319 C49 1.879 . S
C324 C127 1.879 . S
C329 C53 1.745 . S
C334 C183 1.745 . S
C339 C75 1.876 . S
C344 C205 1.876 . S
C349 C157 1.745 . S
C354 C79 1.745 . S
C359 C179 1.876 . S
C364 C101 1.876 . S
C369 C10 1.596 . S
C374 C88 1.596 . S
C379 C14 1.577 . S
C384 C92 1.577 . S
C389 C36 1.597 . S
C394 C62 1.597 . S
C399 C40 1.576 . S
C404 C66 1.576 . S
C409 C114 1.597 . S
C414 C192 1.597 . S
C419 C196 1.577 . S
C424 C118 1.577 . S
C429 C140 1.596 . S
C434 C166 1.596 . S
C439 C170 1.576 . S
C444 C144 1.576 . S
C449 C5 1.760 . S
C454 C198 1.682 . S
C459 C161 1.759 . S
C464 C16 1.681 . S
C469 C172 1.681 . S
C474 C31 1.760 . S
C479 C187 1.759 . S
C484 C42 1.680 . S
C489 C120 1.679 . S
C494 C57 1.758 . S
C499 C135 1.760 . S
C504 C68 1.682 . S
C509 C83 1.759 . S
C514 C146 1.680 . S
C519 C94 1.682 . S
C524 C109 1.760 . S
