# Generated by pormake.
# Topology tfs, (6)-cn, num edge types: 1
# Building blocks:
#     Node 0, Type 0, BuildingBlock: BETDIP_clean_sbu_0, # of connection points: 6
#     Node 1, Type 0, BuildingBlock: BETDIP_clean_sbu_0, # of connection points: 6
#     Node 2, Type 0, BuildingBlock: BETDIP_clean_sbu_0, # of connection points: 6
#     Node 3, Type 0, BuildingBlock: BETDIP_clean_sbu_0, # of connection points: 6
#     Node 4, Type 0, BuildingBlock: BETDIP_clean_sbu_0, # of connection points: 6
#     Node 5, Type 0, BuildingBlock: BETDIP_clean_sbu_0, # of connection points: 6
#     Edge 6, Type (0, 0), BuildingBlock: ZUJKAS_clean_linker_0, # of connection points: 2
#     Edge 7, Type (0, 0), BuildingBlock: ZUJKAS_clean_linker_0, # of connection points: 2
#     Edge 8, Type (0, 0), BuildingBlock: ZUJKAS_clean_linker_0, # of connection points: 2
#     Edge 9, Type (0, 0), BuildingBlock: ZUJKAS_clean_linker_0, # of connection points: 2
#     Edge 10, Type (0, 0), BuildingBlock: ZUJKAS_clean_linker_0, # of connection points: 2
#     Edge 11, Type (0, 0), BuildingBlock: ZUJKAS_clean_linker_0, # of connection points: 2
#     Edge 12, Type (0, 0), BuildingBlock: ZUJKAS_clean_linker_0, # of connection points: 2
#     Edge 13, Type (0, 0), BuildingBlock: ZUJKAS_clean_linker_0, # of connection points: 2
#     Edge 14, Type (0, 0), BuildingBlock: ZUJKAS_clean_linker_0, # of connection points: 2
#     Edge 15, Type (0, 0), BuildingBlock: ZUJKAS_clean_linker_0, # of connection points: 2
#     Edge 16, Type (0, 0), BuildingBlock: ZUJKAS_clean_linker_0, # of connection points: 2
#     Edge 17, Type (0, 0), BuildingBlock: ZUJKAS_clean_linker_0, # of connection points: 2
#     Edge 18, Type (0, 0), BuildingBlock: ZUJKAS_clean_linker_0, # of connection points: 2
#     Edge 19, Type (0, 0), BuildingBlock: ZUJKAS_clean_linker_0, # of connection points: 2
#     Edge 20, Type (0, 0), BuildingBlock: ZUJKAS_clean_linker_0, # of connection points: 2
#     Edge 21, Type (0, 0), BuildingBlock: ZUJKAS_clean_linker_0, # of connection points: 2
#     Edge 22, Type (0, 0), BuildingBlock: ZUJKAS_clean_linker_0, # of connection points: 2
#     Edge 23, Type (0, 0), BuildingBlock: ZUJKAS_clean_linker_0, # of connection points: 2
# Relax obj value: 0.556
# Max RMSD: 0.297
# Mean RMSD: 0.297
data_MOF--net-tfs--node1-BETDIP_clean_sbu_0--edge1-ZUJKAS_clean_linker_0
_symmetry_space_group_name_H-M    P1
_symmetry_Int_Tables_number       1
_symmetry_cell_setting            triclinic
loop_
_symmetry_equiv_pos_as_xyz
'x, y, z'
_cell_length_a     66.857157
_cell_length_b     66.858929
_cell_length_c     18.788365
_cell_angle_alpha  90.013954
_cell_angle_beta   89.9478
_cell_angle_gamma 120.01273
loop_
_atom_site_label
_atom_site_type_symbol
_atom_site_fract_x
_atom_site_fract_y
_atom_site_fract_z
_atom_type_partial_charge
Tb0 Tb 0.19356 0.4368 0.03776 0.0
Tb1 Tb 0.21561 0.40881 1.00016 0.0
C2 C 0.18121 0.46333 0.09242 0.0
C3 C 0.18593 0.48707 0.08145 0.0
C4 C 0.17025 0.49333 0.10788 0.0
C5 C 0.17371 0.51545 0.09562 0.0
C6 C 0.19299 0.53177 0.05665 0.0
C7 C 0.20885 0.52548 0.03078 0.0
C8 C 0.20529 0.50325 0.04282 0.0
C9 C 0.19406 0.42863 0.89959 0.0
C10 C 0.24741 0.46227 1.00952 0.0
C11 C 0.22864 0.38303 0.94328 0.0
C12 C 0.23055 0.36226 0.95678 0.0
C13 C 0.22409 0.34558 0.90305 0.0
C14 C 0.22938 0.32787 0.90887 0.0
C15 C 0.24145 0.32656 0.96842 0.0
C16 C 0.24678 0.34259 0.02399 0.0
C17 C 0.24136 0.36022 0.0183 0.0
C18 C 0.21476 0.41632 0.13872 0.0
C19 C 0.16139 0.38423 0.02645 0.0
O20 O 0.19823 0.46093 0.1169 0.0
O21 O 0.17006 0.44886 0.04091 0.0
O22 O 0.20975 0.43289 0.94372 0.0
O23 O 0.17833 0.43127 0.93082 0.0
O24 O 0.23033 0.4627 0.04353 0.0
O25 O 0.24392 0.44345 0.9755 0.0
O26 O 0.20805 0.38034 0.93395 0.0
O27 O 0.24197 0.40139 0.98085 0.0
O28 O 0.1994 0.41256 0.09394 0.0
O29 O 0.23001 0.41281 0.10799 0.0
O30 O 0.17819 0.38381 0.98996 0.0
O31 O 0.16551 0.40267 0.06359 0.0
H32 H 0.15519 0.48103 0.13768 0.0
H33 H 0.16136 0.51984 0.11717 0.0
H34 H 0.22376 0.53758 1.00009 0.0
H35 H 0.21749 0.49862 0.02143 0.0
H36 H 0.21577 0.3468 0.85509 0.0
H37 H 0.22459 0.31559 0.86567 0.0
H38 H 0.25623 0.34231 0.07036 0.0
H39 H 0.24657 0.37284 0.06068 0.0
Tb40 Tb 0.76007 0.19302 0.02914 0.0
Tb41 Tb 0.80998 0.21445 0.99134 0.0
C42 C 0.72138 0.18191 0.08283 0.0
C43 C 0.70267 0.18729 0.07085 0.0
C44 C 0.69816 0.19975 0.12234 0.0
C45 C 0.67978 0.20391 0.11373 0.0
C46 C 0.66535 0.19555 0.05361 0.0
C47 C 0.67008 0.18331 1.00167 0.0
C48 C 0.68851 0.17924 1.01014 0.0
C49 C 0.76858 0.1934 0.89085 0.0
C50 C 0.78916 0.2469 1.00176 0.0
C51 C 0.84855 0.22696 0.93335 0.0
C52 C 0.871 0.22868 0.94778 0.0
C53 C 0.88561 0.23159 0.89041 0.0
C54 C 0.9085 0.23726 0.90226 0.0
C55 C 0.91725 0.24019 0.97194 0.0
C56 C 0.90211 0.23599 0.0295 0.0
C57 C 0.87918 0.2303 0.01753 0.0
C58 C 0.80183 0.21386 0.12998 0.0
C59 C 0.77973 0.16025 0.01839 0.0
O60 O 0.74095 0.1986 0.10767 0.0
O61 O 0.7245 0.1699 0.0336 0.0
O62 O 0.78019 0.20904 0.93496 0.0
O63 O 0.75014 0.17781 0.92222 0.0
O64 O 0.77153 0.22989 0.03556 0.0
O65 O 0.8043 0.24321 0.96739 0.0
O66 O 0.83054 0.20638 0.92536 0.0
O67 O 0.84385 0.24049 0.97111 0.0
O68 O 0.79001 0.19851 0.0854 0.0
O69 O 0.82067 0.22888 0.09903 0.0
O70 O 0.79707 0.17689 0.98179 0.0
O71 O 0.76557 0.16466 0.05536 0.0
H72 H 0.70874 0.20609 0.16975 0.0
H73 H 0.67686 0.21368 0.15432 0.0
H74 H 0.65916 0.17632 0.95522 0.0
H75 H 0.69138 0.16945 0.96952 0.0
H76 H 0.87965 0.23057 0.8362 0.0
H77 H 0.91965 0.2406 0.85665 0.0
H78 H 0.90819 0.23778 0.08382 0.0
H79 H 0.86814 0.2281 0.06261 0.0
Tb80 Tb 0.56973 0.75807 0.03267 0.0
Tb81 Tb 0.59794 0.80814 0.99531 0.0
C82 C 0.54286 0.71923 0.08684 0.0
C83 C 0.5189 0.70045 0.07659 0.0
C84 C 0.50127 0.70483 0.05576 0.0
C85 C 0.4788 0.68648 0.0446 0.0
C86 C 0.47368 0.66348 0.05328 0.0
C87 C 0.49143 0.65927 0.07424 0.0
C88 C 0.51378 0.67758 0.08586 0.0
C89 C 0.57784 0.76681 0.89454 0.0
C90 C 0.54453 0.78673 1.00554 0.0
C91 C 0.62343 0.84684 0.93743 0.0
C92 C 0.64444 0.86926 0.94983 0.0
C93 C 0.65532 0.88373 0.89147 0.0
C94 C 0.6726 0.90668 0.90183 0.0
C95 C 0.67934 0.91565 0.97098 0.0
C96 C 0.6693 0.90065 0.02938 0.0
C97 C 0.65197 0.87765 0.0189 0.0
C98 C 0.59044 0.79971 0.13374 0.0
C99 C 0.62239 0.7782 0.02104 0.0
O100 O 0.54589 0.73875 0.11268 0.0
O101 O 0.55704 0.72237 0.03458 0.0
O102 O 0.57369 0.77827 0.93893 0.0
O103 O 0.57509 0.74837 0.92551 0.0
O104 O 0.54407 0.76923 0.0396 0.0
O105 O 0.56331 0.80189 0.97097 0.0
O106 O 0.62571 0.82876 0.92643 0.0
O107 O 0.60585 0.84217 0.97849 0.0
O108 O 0.59414 0.78807 0.08885 0.0
O109 O 0.59393 0.81848 0.10315 0.0
O110 O 0.62322 0.796 0.9869 0.0
O111 O 0.60371 0.76353 0.05672 0.0
H112 H 0.50489 0.72237 0.04759 0.0
H113 H 0.46553 0.69026 0.02792 0.0
H114 H 0.48799 0.64179 0.08234 0.0
H115 H 0.52716 0.67386 0.10179 0.0
H116 H 0.64961 0.87761 0.83778 0.0
H117 H 0.6797 0.91772 0.85562 0.0
H118 H 0.67431 0.90687 0.0833 0.0
H119 H 0.64378 0.86673 0.06474 0.0
Tb120 Tb 0.8115 0.56712 0.0366 0.0
Tb121 Tb 0.78939 0.59494 0.99771 0.0
C122 C 0.8237 0.54072 0.09282 0.0
C123 C 0.81889 0.51691 0.08281 0.0
C124 C 0.82616 0.5069 0.13462 0.0
C125 C 0.82316 0.48487 0.12417 0.0
C126 C 0.81288 0.47244 0.06143 0.0
C127 C 0.80509 0.48238 1.01026 0.0
C128 C 0.80807 0.50444 0.02089 0.0
C129 C 0.81062 0.57453 0.89804 0.0
C130 C 0.7575 0.54154 1.01038 0.0
C131 C 0.77587 0.61983 0.9376 0.0
C132 C 0.77506 0.64135 0.94452 0.0
C133 C 0.77051 0.65045 0.8835 0.0
C134 C 0.76518 0.6681 0.88915 0.0
C135 C 0.76431 0.67704 0.9561 0.0
C136 C 0.77032 0.6689 0.01693 0.0
C137 C 0.77555 0.65109 0.01123 0.0
C138 C 0.79041 0.58798 0.13659 0.0
C139 C 0.8437 0.61987 0.02456 0.0
O140 O 0.80667 0.54318 0.11677 0.0
O141 O 0.83492 0.55505 0.04101 0.0
O142 O 0.79503 0.5705 0.9425 0.0
O143 O 0.82645 0.57208 0.92936 0.0
O144 O 0.77474 0.54125 0.04374 0.0
O145 O 0.76085 0.5602 0.97571 0.0
O146 O 0.79576 0.6213 0.92387 0.0
O147 O 0.76368 0.6036 0.98366 0.0
O148 O 0.80575 0.59159 0.09174 0.0
O149 O 0.77507 0.59128 0.10558 0.0
O150 O 0.82678 0.62041 0.98922 0.0
O151 O 0.83972 0.60133 0.06092 0.0
H152 H 0.83447 0.51627 0.18285 0.0
H153 H 0.82894 0.47759 0.16532 0.0
H154 H 0.79726 0.47339 0.96115 0.0
H155 H 0.80234 0.51195 0.98027 0.0
H156 H 0.76999 0.64312 0.83159 0.0
H157 H 0.76096 0.67422 0.84127 0.0
H158 H 0.76969 0.67537 0.06925 0.0
H159 H 0.77891 0.64421 0.05908 0.0
Tb160 Tb 0.24662 0.81142 0.02943 0.0
Tb161 Tb 0.19644 0.78993 0.99374 0.0
C162 C 0.28533 0.82229 0.08222 0.0
C163 C 0.30389 0.81677 0.06965 0.0
C164 C 0.31101 0.80784 0.12546 0.0
C165 C 0.32944 0.80378 0.11608 0.0
C166 C 0.34131 0.80874 0.05071 0.0
C167 C 0.33383 0.81729 0.99445 0.0
C168 C 0.31531 0.8212 1.00372 0.0
C169 C 0.23764 0.81135 0.89186 0.0
C170 C 0.21754 0.75758 1.00044 0.0
C171 C 0.1576 0.77738 0.93787 0.0
C172 C 0.13498 0.77555 0.95196 0.0
C173 C 0.1239 0.78032 0.89674 0.0
C174 C 0.10078 0.77461 0.90354 0.0
C175 C 0.08819 0.76381 0.96565 0.0
C176 C 0.0998 0.76032 0.0226 0.0
C177 C 0.12296 0.76615 0.01587 0.0
C178 C 0.20516 0.79033 0.13169 0.0
C179 C 0.22686 0.84425 0.02084 0.0
O180 O 0.26577 0.80567 0.10743 0.0
O181 O 0.28224 0.83435 0.03309 0.0
O182 O 0.22613 0.79562 0.93589 0.0
O183 O 0.25627 0.82678 0.92274 0.0
O184 O 0.23544 0.77459 0.03319 0.0
O185 O 0.20199 0.76116 0.96841 0.0
O186 O 0.1756 0.79793 0.92865 0.0
O187 O 0.1625 0.76389 0.97502 0.0
O188 O 0.21681 0.80576 0.08706 0.0
O189 O 0.18619 0.77535 0.10132 0.0
O190 O 0.209 0.82746 0.98636 0.0
O191 O 0.24149 0.84002 0.05569 0.0
H192 H 0.30246 0.80424 0.17674 0.0
H193 H 0.33442 0.7968 0.16022 0.0
H194 H 0.34269 0.82159 0.94366 0.0
H195 H 0.31024 0.82809 0.95951 0.0
H196 H 0.13281 0.78754 0.84696 0.0
H197 H 0.09257 0.77798 0.85915 0.0
H198 H 0.09068 0.7519 0.07102 0.0
H199 H 0.13108 0.76226 0.0594 0.0
Tb200 Tb 0.4358 0.24479 0.03683 0.0
Tb201 Tb 0.40812 0.19484 0.99772 0.0
C202 C 0.4622 0.28336 0.09342 0.0
C203 C 0.4862 0.30213 0.08459 0.0
C204 C 0.49608 0.31938 0.13659 0.0
C205 C 0.51835 0.33816 0.12734 0.0
C206 C 0.53116 0.34011 0.06562 0.0
C207 C 0.52133 0.32242 0.01425 0.0
C208 C 0.49903 0.30358 0.0237 0.0
C209 C 0.42848 0.23655 0.89822 0.0
C210 C 0.46149 0.21654 1.01007 0.0
C211 C 0.38335 0.15631 0.938 0.0
C212 C 0.36219 0.13369 0.94609 0.0
C213 C 0.35248 0.12019 0.88514 0.0
C214 C 0.33513 0.09708 0.89117 0.0
C215 C 0.3271 0.087 0.95845 0.0
C216 C 0.3359 0.10096 0.01946 0.0
C217 C 0.35339 0.12414 0.01335 0.0
C218 C 0.41488 0.20282 0.13667 0.0
C219 C 0.38316 0.22426 0.02321 0.0
O220 O 0.45929 0.26378 0.11813 0.0
O221 O 0.44828 0.28038 0.04055 0.0
O222 O 0.43252 0.22499 0.94258 0.0
O223 O 0.43088 0.2548 0.92966 0.0
O224 O 0.46167 0.23392 0.04405 0.0
O225 O 0.44292 0.20132 0.97495 0.0
O226 O 0.38127 0.17445 0.92579 0.0
O227 O 0.40011 0.16071 0.9822 0.0
O228 O 0.41128 0.21452 0.09176 0.0
O229 O 0.4117 0.18422 0.10565 0.0
O230 O 0.38278 0.20685 0.98797 0.0
O231 O 0.40154 0.23879 0.06021 0.0
H232 H 0.48644 0.31847 0.18407 0.0
H233 H 0.52552 0.35119 0.16863 0.0
H234 H 0.53061 0.32342 0.96589 0.0
H235 H 0.49163 0.29036 0.98295 0.0
H236 H 0.35908 0.12722 0.83279 0.0
H237 H 0.32847 0.08689 0.84315 0.0
H238 H 0.33015 0.09368 0.07203 0.0
H239 H 0.36075 0.13425 0.06115 0.0
H240 H 0.34556 0.20479 0.93341 0.0
H241 H 0.31617 0.2164 0.91964 0.0
H242 H 0.34691 0.26478 0.09232 0.0
H243 H 0.37607 0.25343 0.1066 0.0
H244 H 0.28405 0.22107 0.03177 0.0
H245 H 0.3505 0.30233 0.90351 0.0
H246 H 0.3532 0.2768 0.90877 0.0
H247 H 0.35901 0.29487 0.98558 0.0
C248 C 0.34576 0.21757 0.96929 0.0
C249 C 0.36332 0.22835 0.02057 0.0
C250 C 0.32899 0.22418 0.96133 0.0
C251 C 0.32958 0.24162 1.00453 0.0
C252 C 0.34629 0.25144 0.05812 0.0
H253 H 0.2444 0.30236 0.08282 0.0
H254 H 0.26335 0.27917 0.08687 0.0
C255 C 0.36298 0.24491 0.06606 0.0
C256 C 0.31412 0.25112 0.99076 0.0
H257 H 0.31538 0.30041 0.93628 0.0
C258 C 0.29075 0.2383 1.01019 0.0
C259 C 0.32292 0.27351 0.962 0.0
C260 C 0.34774 0.28769 0.93814 0.0
C261 C 0.27609 0.24768 1.00369 0.0
C262 C 0.28519 0.27053 0.97793 0.0
C263 C 0.3084 0.28295 0.95634 0.0
C264 C 0.27135 0.28233 0.97434 0.0
C265 C 0.25103 0.23306 0.02434 0.0
C266 C 0.26965 0.29201 0.90995 0.0
C267 C 0.2592 0.30561 0.90768 0.0
C268 C 0.25021 0.30993 0.96989 0.0
C269 C 0.25129 0.2996 0.03399 0.0
C270 C 0.26185 0.28604 0.03623 0.0
H271 H 0.24531 0.21435 0.02223 0.0
H272 H 0.2487 0.23727 0.07975 0.0
H273 H 0.23976 0.23646 0.98899 0.0
H274 H 0.27703 0.28957 0.86162 0.0
H275 H 0.25909 0.31355 0.85758 0.0
H276 H 0.1422 0.34722 0.93431 0.0
H277 H 0.10104 0.31784 0.92403 0.0
H278 H 0.08561 0.3473 0.10536 0.0
H279 H 0.12627 0.3765 0.11596 0.0
H280 H 0.066 0.28472 0.03371 0.0
H281 H 0.04874 0.35243 0.93016 0.0
H282 H 0.07722 0.35566 0.93002 0.0
H283 H 0.06542 0.35994 1.01074 0.0
C284 C 0.13007 0.34714 0.97271 0.0
C285 C 0.13747 0.36437 0.02537 0.0
C286 C 0.1066 0.33038 0.96674 0.0
C287 C 0.09031 0.33066 0.01338 0.0
C288 C 0.09789 0.34699 0.06835 0.0
H289 H 0.94492 0.27298 0.06852 0.0
H290 H 0.98688 0.29221 0.07871 0.0
C291 C 0.12117 0.36368 0.07422 0.0
C292 C 0.06518 0.31524 1.00231 0.0
H293 H 0.01612 0.31682 0.96374 0.0
C294 C 0.05505 0.29159 0.01759 0.0
C295 C 0.05102 0.32433 0.98114 0.0
C296 C 0.0611 0.34944 0.96142 0.0
C297 C 0.03091 0.27695 0.01508 0.0
C298 C 0.01673 0.28625 0.99614 0.0
C299 C 0.027 0.30976 0.97886 0.0
C300 C 0.99112 0.27227 0.99551 0.0
C301 C 0.02068 0.25187 0.03519 0.0
C302 C 0.97949 0.25436 0.94607 0.0
C303 C 0.95538 0.24318 0.94036 0.0
C304 C 0.94246 0.24976 0.98384 0.0
C305 C 0.95419 0.26717 0.03495 0.0
C306 C 0.97824 0.27833 0.04051 0.0
H307 H 0.03349 0.24846 0.0619 0.0
H308 H 0.00559 0.24637 0.07103 0.0
H309 H 0.01456 0.24111 0.9864 0.0
H310 H 0.9891 0.24962 0.91011 0.0
H311 H 0.9469 0.22974 0.90078 0.0
H312 H 0.75091 0.12503 0.10545 0.0
H313 H 0.7396 0.08441 0.09646 0.0
H314 H 0.78671 0.09978 0.92104 0.0
H315 H 0.79835 0.1409 0.92981 0.0
H316 H 0.71958 0.05892 0.96839 0.0
H317 H 0.79759 0.05534 0.05252 0.0
H318 H 0.79311 0.07896 0.07696 0.0
H319 H 0.80143 0.07684 0.98777 0.0
C320 C 0.75918 0.11994 0.06546 0.0
C321 C 0.77545 0.13624 0.01796 0.0
C322 C 0.75269 0.09666 0.06055 0.0
C323 C 0.76233 0.08907 1.00829 0.0
C324 C 0.77927 0.10534 0.96239 0.0
H325 H 0.71818 0.94548 0.89461 0.0
H326 H 0.74001 0.98778 0.90214 0.0
C327 C 0.78586 0.1288 0.96735 0.0
C328 C 0.75282 0.06388 0.99849 0.0
H329 H 0.76484 0.02014 0.01861 0.0
C330 C 0.72952 0.05046 0.97908 0.0
C331 C 0.76587 0.05294 0.0119 0.0
C332 C 0.79087 0.06663 0.03386 0.0
C333 C 0.71876 0.02635 0.97387 0.0
C334 C 0.73153 0.01527 0.98981 0.0
C335 C 0.75506 0.0287 1.00702 0.0
C336 C 0.72029 0.9897 0.99047 0.0
C337 C 0.69376 0.01292 0.95131 0.0
C338 C 0.70249 0.97676 0.03912 0.0
C339 C 0.6899 0.95268 0.03473 0.0
C340 C 0.69493 0.94096 0.9817 0.0
C341 C 0.71362 0.95395 0.9354 0.0
C342 C 0.72622 0.97811 0.93988 0.0
H343 H 0.6883 0.02409 0.92364 0.0
H344 H 0.69065 0.99844 0.91544 0.0
H345 H 0.68272 0.00555 0.99916 0.0
H346 H 0.69781 0.98538 0.07911 0.0
H347 H 0.67553 0.94335 0.07084 0.0
H348 H 0.78136 0.71697 0.03505 0.0
H349 H 0.76459 0.74215 0.04784 0.0
H350 H 0.70903 0.69769 0.90688 0.0
H351 H 0.72597 0.67304 0.89253 0.0
H352 H 0.72374 0.74176 0.87708 0.0
H353 H 0.70969 0.72814 0.16891 0.0
H354 H 0.73921 0.74066 0.14081 0.0
H355 H 0.71852 0.7116 0.11503 0.0
C356 C 0.7656 0.71267 1.00676 0.0
C357 C 0.75502 0.69305 0.96268 0.0
C358 C 0.75597 0.727 0.01432 0.0
C359 C 0.73532 0.72166 0.97917 0.0
C360 C 0.725 0.70227 0.93439 0.0
H361 H 0.62337 0.74068 0.07204 0.0
H362 H 0.65416 0.73163 0.06273 0.0
C363 C 0.73473 0.68818 0.92612 0.0
C364 C 0.72382 0.73564 0.98951 0.0
H365 H 0.69673 0.75106 0.11397 0.0
C366 C 0.71802 0.74402 0.92898 0.0
C367 C 0.71631 0.73854 0.05725 0.0
C368 C 0.72104 0.72912 0.12422 0.0
C369 C 0.70396 0.75408 0.93374 0.0
C370 C 0.69603 0.75652 1.00133 0.0
C371 C 0.70288 0.74927 0.06222 0.0
C372 C 0.67815 0.76345 1.00946 0.0
C373 C 0.69658 0.76065 0.8659 0.0
C374 C 0.68137 0.78461 0.98353 0.0
C375 C 0.66346 0.78978 0.98794 0.0
C376 C 0.6422 0.77403 0.01942 0.0
C377 C 0.63946 0.75329 0.04746 0.0
C378 C 0.65714 0.74807 0.04234 0.0
H379 H 0.70029 0.75327 0.81807 0.0
H380 H 0.67781 0.75467 0.86694 0.0
H381 H 0.70612 0.77973 0.86035 0.0
H382 H 0.69761 0.79702 0.95938 0.0
H383 H 0.66619 0.80597 0.96626 0.0
H384 H 0.06167 0.76296 0.07934 0.0
H385 H 0.0194 0.7427 0.08699 0.0
H386 H 0.01466 0.7231 0.86644 0.0
H387 H 0.05667 0.74252 0.85876 0.0
H388 H 0.98364 0.7455 1.0055 0.0
H389 H 0.98062 0.66127 0.97695 0.0
H390 H 0.00695 0.68773 0.99707 0.0
H391 H 0.99598 0.68185 0.90765 0.0
C392 C 0.05165 0.75441 0.03235 0.0
C393 C 0.06267 0.75426 0.9686 0.0
C394 C 0.02749 0.74301 0.03669 0.0
C395 C 0.01391 0.73117 0.97751 0.0
C396 C 0.02482 0.73195 0.91294 0.0
H397 H 0.86281 0.65704 0.93292 0.0
H398 H 0.9039 0.6864 0.92224 0.0
C399 C 0.04891 0.74328 0.90855 0.0
C400 C 0.98845 0.71653 0.98457 0.0
H401 H 0.94493 0.66033 0.98005 0.0
C402 C 0.97511 0.72688 0.99983 0.0
C403 C 0.97743 0.69222 0.97789 0.0
C404 C 0.99093 0.68001 0.96459 0.0
C405 C 0.95096 0.71351 1.00813 0.0
C406 C 0.93998 0.68924 1.00058 0.0
C407 C 0.95337 0.67896 0.98538 0.0
C408 C 0.91478 0.67378 0.01175 0.0
C409 C 0.93743 0.7253 0.02658 0.0
C410 C 0.90724 0.65717 0.06595 0.0
C411 C 0.88396 0.64041 0.07186 0.0
C412 C 0.8676 0.63981 0.02355 0.0
C413 C 0.87496 0.65712 0.97117 0.0
C414 C 0.89842 0.67393 0.96512 0.0
H415 H 0.94886 0.74348 0.04363 0.0
H416 H 0.92758 0.72534 0.97914 0.0
H417 H 0.92484 0.71583 0.06974 0.0
H418 H 0.91954 0.65673 0.10254 0.0
H419 H 0.87893 0.62748 0.11322 0.0
H420 H 0.26403 0.88245 0.0752 0.0
H421 H 0.27296 0.9223 0.06875 0.0
H422 H 0.20852 0.90105 0.96052 0.0
H423 H 0.19967 0.86068 0.96474 0.0
H424 H 0.24249 0.93694 0.89554 0.0
H425 H 0.25049 0.95755 0.18132 0.0
H426 H 0.2687 0.94592 0.1593 0.0
H427 H 0.23781 0.92823 0.14946 0.0
C428 C 0.25151 0.88606 0.05075 0.0
C429 C 0.23102 0.86825 0.02079 0.0
C430 C 0.2566 0.90897 0.04771 0.0
C431 C 0.24119 0.91474 0.01584 0.0
C432 C 0.22059 0.89702 0.98615 0.0
H433 H 0.2887 0.06379 0.04386 0.0
H434 H 0.26355 0.02179 0.05564 0.0
C435 C 0.21553 0.87395 0.98863 0.0
C436 C 0.24777 0.93949 1.00907 0.0
H437 H 0.27247 0.99021 0.10193 0.0
C438 C 0.24861 0.94851 0.94092 0.0
C439 C 0.25522 0.95467 0.06825 0.0
C440 C 0.25274 0.946 0.1437 0.0
C441 C 0.25822 0.97237 0.92982 0.0
C442 C 0.26794 0.98774 0.98808 0.0
C443 C 0.26553 0.97858 0.05686 0.0
C444 C 0.28214 0.01323 0.97829 0.0
C445 C 0.25804 0.98081 0.85548 0.0
C446 C 0.30112 0.02247 0.9317 0.0
C447 C 0.3153 0.04634 0.92453 0.0
C448 C 0.31114 0.06163 0.96472 0.0
C449 C 0.29232 0.05244 0.01213 0.0
C450 C 0.27793 0.02846 0.01873 0.0
H451 H 0.24296 0.96766 0.82482 0.0
H452 H 0.25749 0.99713 0.85608 0.0
H453 H 0.27387 0.98387 0.827 0.0
H454 H 0.30535 0.01121 0.90193 0.0
H455 H 0.32999 0.05282 0.88889 0.0
H456 H 0.25016 0.74636 0.03813 0.0
H457 H 0.2466 0.70823 0.03836 0.0
H458 H 0.17694 0.67829 0.95901 0.0
H459 H 0.18056 0.71658 0.95686 0.0
H460 H 0.21716 0.67111 0.11467 0.0
H461 H 0.20305 0.64931 0.82754 0.0
H462 H 0.21297 0.67815 0.8603 0.0
H463 H 0.18282 0.65666 0.86461 0.0
C464 C 0.23413 0.73173 0.01999 0.0
C465 C 0.21564 0.73454 0.99727 0.0
C466 C 0.23214 0.70991 0.02018 0.0
C467 C 0.21163 0.6904 0.99781 0.0
C468 C 0.19315 0.69314 0.97483 0.0
H469 H 0.1605 0.54311 0.01744 0.0
H470 H 0.16563 0.58175 1.00171 0.0
C471 C 0.19519 0.71504 0.97404 0.0
C472 C 0.20926 0.66712 1.00266 0.0
H473 H 0.19682 0.61882 0.90655 0.0
C474 C 0.21289 0.65977 0.069 0.0
C475 C 0.20363 0.65227 0.94308 0.0
C476 C 0.20061 0.65955 0.86972 0.0
C477 C 0.21069 0.63791 0.07769 0.0
C478 C 0.20492 0.62304 0.0183 0.0
C479 C 0.20125 0.6303 0.95194 0.0
C480 C 0.20222 0.59972 0.02464 0.0
C481 C 0.21406 0.63066 0.15069 0.0
C482 C 0.2212 0.59704 0.04151 0.0
C483 C 0.21833 0.57498 0.05072 0.0
C484 C 0.19639 0.55521 0.04332 0.0
C485 C 0.17754 0.55799 0.02467 0.0
C486 C 0.18046 0.58004 0.01517 0.0
H487 H 0.21366 0.64201 0.19316 0.0
H488 H 0.20053 0.61256 0.16211 0.0
H489 H 0.23109 0.63158 0.15278 0.0
H490 H 0.2382 0.61204 0.04823 0.0
H491 H 0.23316 0.57344 0.06534 0.0
H492 H 0.46904 0.18514 0.93848 0.0
H493 H 0.50396 0.18197 0.93993 0.0
H494 H 0.53677 0.24058 0.08099 0.0
H495 H 0.50221 0.24419 0.0788 0.0
H496 H 0.56562 0.24265 0.9736 0.0
H497 H 0.52417 0.15673 0.10489 0.0
H498 H 0.51037 0.15759 0.02395 0.0
H499 H 0.51045 0.17405 0.09976 0.0
C500 C 0.4837 0.19739 0.96974 0.0
C501 C 0.48276 0.21484 1.00886 0.0
C502 C 0.5036 0.19546 0.9708 0.0
C503 C 0.52283 0.21079 0.01154 0.0
C504 C 0.5221 0.2285 0.04942 0.0
H505 H 0.63542 0.19294 0.15774 0.0
H506 H 0.60167 0.19767 0.1452 0.0
C507 C 0.50228 0.23051 0.04819 0.0
C508 C 0.54373 0.20843 0.01521 0.0
H509 H 0.5628 0.17182 0.06633 0.0
C510 C 0.56503 0.22716 0.99379 0.0
C511 C 0.54295 0.18832 0.04246 0.0
C512 C 0.52082 0.16809 0.06973 0.0
C513 C 0.58556 0.22631 0.99871 0.0
C514 C 0.58469 0.20601 0.02456 0.0
C515 C 0.5634 0.18731 0.04607 0.0
C516 C 0.60572 0.20399 0.03174 0.0
C517 C 0.60805 0.24738 0.978 0.0
C518 C 0.61924 0.20593 0.97207 0.0
C519 C 0.63876 0.20353 0.97921 0.0
C520 C 0.64505 0.19891 0.04611 0.0
C521 C 0.63138 0.19691 0.10567 0.0
C522 C 0.61193 0.19939 0.0985 0.0
H523 H 0.60658 0.26322 0.97746 0.0
H524 H 0.62213 0.25013 0.01507 0.0
H525 H 0.61297 0.24491 0.92368 0.0
H526 H 0.61454 0.20905 0.9198 0.0
H527 H 0.64895 0.20535 0.93229 0.0
H528 H 0.46126 0.62332 0.98191 0.0
H529 H 0.42248 0.59007 0.96667 0.0
H530 H 0.39378 0.6257 0.08185 0.0
H531 H 0.43255 0.65912 0.09685 0.0
H532 H 0.39284 0.56349 0.0713 0.0
H533 H 0.35216 0.60264 0.90841 0.0
H534 H 0.38301 0.61648 0.92133 0.0
H535 H 0.36488 0.61804 0.98935 0.0
C536 C 0.44668 0.6241 1.0038 0.0
C537 C 0.44997 0.64384 0.04069 0.0
C538 C 0.42452 0.60513 0.99479 0.0
C539 C 0.40518 0.60548 0.0223 0.0
C540 C 0.40837 0.62523 0.05865 0.0
H541 H 0.26024 0.50424 0.06973 0.0
H542 H 0.29856 0.53873 0.07018 0.0
C543 C 0.43055 0.6443 0.06736 0.0
C544 C 0.38189 0.58465 0.0165 0.0
H545 H 0.327 0.56529 0.95634 0.0
C546 C 0.37849 0.56384 0.04567 0.0
C547 C 0.36316 0.58516 0.98323 0.0
C548 C 0.36597 0.60672 0.94819 0.0
C549 C 0.35679 0.54364 0.04381 0.0
C550 C 0.33803 0.54416 1.0109 0.0
C551 C 0.34142 0.56494 0.9815 0.0
C552 C 0.31466 0.52341 1.00786 0.0
C553 C 0.35398 0.52206 0.07879 0.0
C554 C 0.3109 0.50347 0.97151 0.0
C555 C 0.289 0.48366 0.97127 0.0
C556 C 0.27042 0.48349 1.00703 0.0
C557 C 0.27415 0.50371 0.04188 0.0
C558 C 0.29605 0.52348 0.0421 0.0
H559 H 0.36834 0.52594 0.11617 0.0
H560 H 0.3374 0.5129 0.10841 0.0
H561 H 0.35387 0.51021 0.03722 0.0
H562 H 0.32493 0.5032 0.9436 0.0
H563 H 0.2867 0.46844 0.94353 0.0
H564 H 0.84454 0.45915 0.09228 0.0
H565 H 0.84081 0.4212 0.07535 0.0
H566 H 0.77307 0.39574 0.98506 0.0
H567 H 0.7765 0.43364 1.00267 0.0
H568 H 0.80705 0.37935 0.13389 0.0
H569 H 0.80589 0.37602 0.8385 0.0
H570 H 0.8156 0.40255 0.88745 0.0
H571 H 0.78525 0.38253 0.8775 0.0
C572 C 0.82877 0.44547 0.06916 0.0
C573 C 0.81077 0.44945 0.04911 0.0
C574 C 0.82675 0.42383 0.05908 0.0
C575 C 0.80679 0.40573 0.02821 0.0
C576 C 0.78882 0.40961 1.00768 0.0
H577 H 0.75989 0.25965 0.0611 0.0
H578 H 0.7643 0.29814 0.06498 0.0
C579 C 0.79081 0.43128 0.01784 0.0
C580 C 0.80443 0.38256 0.02075 0.0
H581 H 0.79738 0.34146 0.8993 0.0
C582 C 0.80499 0.37108 0.0826 0.0
C583 C 0.80203 0.37195 0.9537 0.0
C584 C 0.80235 0.38393 0.88534 0.0
C585 C 0.80282 0.34911 0.07938 0.0
C586 C 0.7997 0.33818 0.01255 0.0
C587 C 0.79957 0.34981 0.9505 0.0
C588 C 0.79648 0.31463 1.00641 0.0
C589 C 0.80418 0.3379 0.14752 0.0
C590 C 0.81275 0.31098 0.97017 0.0
C591 C 0.81025 0.28891 0.96753 0.0
C592 C 0.79135 0.27009 1.00082 0.0
C593 C 0.77476 0.27375 0.03531 0.0
C594 C 0.77727 0.29578 0.03787 0.0
H595 H 0.81236 0.35071 0.19109 0.0
H596 H 0.78647 0.32495 0.16478 0.0
H597 H 0.81414 0.32886 0.13956 0.0
H598 H 0.82764 0.32531 0.94524 0.0
H599 H 0.82331 0.28668 0.94038 0.0
H600 H 0.37527 0.81758 0.14826 0.0
H601 H 0.40922 0.81338 0.13322 0.0
H602 H 0.38872 0.79011 0.91755 0.0
H603 H 0.354 0.79312 0.93324 0.0
H604 H 0.40326 0.76416 0.98536 0.0
H605 H 0.46711 0.85669 0.02506 0.0
H606 H 0.44746 0.84467 0.09852 0.0
H607 H 0.43674 0.84639 0.01219 0.0
C608 C 0.37776 0.81128 0.09784 0.0
C609 C 0.36185 0.80577 0.04189 0.0
C610 C 0.39742 0.80923 0.08898 0.0
C611 C 0.40183 0.80195 0.02372 0.0
C612 C 0.38581 0.79601 0.96815 0.0
H613 H 0.53649 0.8164 0.92607 0.0
H614 H 0.50147 0.81943 0.9242 0.0
C615 C 0.36604 0.79791 0.97708 0.0
C616 C 0.42293 0.80013 0.01401 0.0
H617 H 0.4817 0.83057 0.02926 0.0
C618 C 0.42043 0.77873 0.99441 0.0
C619 C 0.44537 0.81924 0.02441 0.0
C620 C 0.44939 0.84309 0.04045 0.0
C621 C 0.43968 0.77573 0.98723 0.0
C622 C 0.46202 0.7945 1.00173 0.0
C623 C 0.46457 0.81609 0.01902 0.0
C624 C 0.48293 0.79205 1.00079 0.0
C625 C 0.43588 0.75252 0.96347 0.0
C626 C 0.48426 0.77582 0.04491 0.0
C627 C 0.50416 0.77394 0.0457 0.0
C628 C 0.52331 0.78849 1.00312 0.0
C629 C 0.52204 0.8049 0.95941 0.0
C630 C 0.50204 0.80665 0.9583 0.0
H631 H 0.41951 0.74276 0.93314 0.0
H632 H 0.45036 0.75439 0.92967 0.0
H633 H 0.43468 0.74211 1.01098 0.0
H634 H 0.47003 0.76481 0.07968 0.0
H635 H 0.50461 0.76128 0.08063 0.0
H636 H 0.71761 0.53528 0.94852 0.0
H637 H 0.67918 0.50076 0.95343 0.0
H638 H 0.70674 0.46537 0.07504 0.0
H639 H 0.7451 0.49973 0.07104 0.0
H640 H 0.66362 0.4545 0.90813 0.0
H641 H 0.65355 0.46024 0.19963 0.0
H642 H 0.6754 0.48396 0.1483 0.0
H643 H 0.67946 0.46032 0.17372 0.0
C644 C 0.71553 0.52014 0.97613 0.0
C645 C 0.73443 0.52036 1.00985 0.0
C646 C 0.69356 0.50042 0.97879 0.0
C647 C 0.69006 0.48064 0.0155 0.0
C648 C 0.70899 0.48059 0.04752 0.0
H649 H 0.57002 0.34182 1.00974 0.0
H650 H 0.60833 0.37587 0.99378 0.0
C651 C 0.73093 0.50026 0.04491 0.0
C652 C 0.66657 0.46015 0.02136 0.0
H653 H 0.62492 0.4265 0.14185 0.0
C654 C 0.65512 0.44837 0.95916 0.0
C655 C 0.65543 0.45238 0.08796 0.0
C656 C 0.66645 0.46496 0.15624 0.0
C657 C 0.63292 0.42875 0.96193 0.0
C658 C 0.62204 0.42064 0.02873 0.0
C659 C 0.63338 0.43264 0.09076 0.0
C660 C 0.59867 0.40002 0.03562 0.0
C661 C 0.62111 0.41711 0.89336 0.0
C662 C 0.58062 0.40224 0.06522 0.0
C663 C 0.55873 0.38286 0.07431 0.0
C664 C 0.55445 0.36075 0.05454 0.0
C665 C 0.5726 0.35859 0.02464 0.0
C666 C 0.59451 0.37804 0.01546 0.0
H667 H 0.62934 0.42845 0.8465 0.0
H668 H 0.62224 0.40123 0.8862 0.0
H669 H 0.60256 0.41201 0.89468 0.0
H670 H 0.58345 0.41904 0.08115 0.0
H671 H 0.5451 0.38525 0.09637 0.0
H672 H 0.16329 0.42451 0.79754 0.0
H673 H 0.16665 0.42182 0.66841 0.0
H674 H 0.23228 0.4252 0.69689 0.0
H675 H 0.22883 0.42758 0.82617 0.0
H676 H 0.20076 0.45345 0.57828 0.0
H677 H 0.19788 0.36911 0.56754 0.0
H678 H 0.18956 0.37888 0.64578 0.0
H679 H 0.21959 0.38981 0.62606 0.0
C680 C 0.17835 0.42452 0.77625 0.0
C681 C 0.1958 0.42625 0.82184 0.0
C682 C 0.18027 0.42302 0.70247 0.0
C683 C 0.19958 0.42304 0.67286 0.0
C684 C 0.21701 0.42471 0.71846 0.0
H685 H 0.24503 0.41967 0.24128 0.0
H686 H 0.2414 0.42202 0.3704 0.0
C687 C 0.2151 0.4262 0.7923 0.0
C688 C 0.20179 0.4221 0.59423 0.0
H689 H 0.20737 0.39065 0.46015 0.0
C690 C 0.20209 0.43966 0.55239 0.0
C691 C 0.20359 0.40413 0.56045 0.0
C692 C 0.20244 0.38429 0.60209 0.0
C693 C 0.20455 0.43998 0.47797 0.0
C694 C 0.20633 0.422 0.44418 0.0
C695 C 0.20603 0.40444 0.48602 0.0
C696 C 0.20862 0.42112 0.36554 0.0
C697 C 0.20579 0.45988 0.43641 0.0
C698 C 0.19135 0.41971 0.31969 0.0
C699 C 0.19344 0.41843 0.24583 0.0
C700 C 0.21273 0.41832 0.21652 0.0
C701 C 0.22997 0.41972 0.26239 0.0
C702 C 0.2279 0.42103 0.33616 0.0
H703 H 0.21041 0.47507 0.47101 0.0
H704 H 0.21865 0.46525 0.3927 0.0
H705 H 0.18865 0.45444 0.4125 0.0
H706 H 0.1761 0.41928 0.34107 0.0
H707 H 0.17983 0.41727 0.21177 0.0
H708 H 0.74151 0.16279 0.78901 0.0
H709 H 0.7473 0.16611 0.65987 0.0
H710 H 0.81051 0.23094 0.68764 0.0
H711 H 0.80464 0.22782 0.81705 0.0
H712 H 0.78178 0.23256 0.58294 0.0
H713 H 0.79322 0.15672 0.54191 0.0
H714 H 0.76725 0.15023 0.58885 0.0
H715 H 0.79489 0.16905 0.6287 0.0
C716 C 0.75671 0.17768 0.76759 0.0
C717 C 0.77262 0.19505 0.81304 0.0
C718 C 0.76007 0.1795 0.69378 0.0
C719 C 0.7795 0.19862 0.66397 0.0
C720 C 0.79544 0.21599 0.7094 0.0
H721 H 0.82923 0.24404 0.23207 0.0
H722 H 0.82351 0.24061 0.36122 0.0
C723 C 0.79209 0.21418 0.78329 0.0
C724 C 0.78276 0.20088 0.58536 0.0
H725 H 0.78882 0.17437 0.43792 0.0
C726 C 0.78345 0.21991 0.55127 0.0
C727 C 0.78485 0.18432 0.54395 0.0
C728 C 0.78524 0.16403 0.57765 0.0
C729 C 0.78576 0.22262 0.47693 0.0
C730 C 0.78784 0.20605 0.43553 0.0
C731 C 0.78714 0.18702 0.4696 0.0
C732 C 0.79109 0.20832 0.35694 0.0
C733 C 0.78545 0.24294 0.44321 0.0
C734 C 0.775 0.19111 0.31142 0.0
C735 C 0.7783 0.19299 0.2375 0.0
C736 C 0.79787 0.21203 0.20784 0.0
C737 C 0.81395 0.22921 0.25342 0.0
C738 C 0.81063 0.22734 0.32723 0.0
H739 H 0.77762 0.25038 0.47906 0.0
H740 H 0.80344 0.25666 0.43163 0.0
H741 H 0.7757 0.23791 0.39234 0.0
H742 H 0.75984 0.17623 0.33313 0.0
H743 H 0.76562 0.17948 0.20366 0.0
H744 H 0.58196 0.74019 0.79236 0.0
H745 H 0.58465 0.74625 0.66327 0.0
H746 H 0.58123 0.80847 0.69202 0.0
H747 H 0.57886 0.80265 0.82131 0.0
H748 H 0.55304 0.74866 0.57332 0.0
H749 H 0.63735 0.83022 0.56252 0.0
H750 H 0.62756 0.81214 0.64076 0.0
H751 H 0.6166 0.83119 0.62103 0.0
C752 C 0.58194 0.75525 0.77114 0.0
C753 C 0.58021 0.77095 0.81682 0.0
C754 C 0.58345 0.75867 0.69739 0.0
C755 C 0.58341 0.77795 0.66786 0.0
C756 C 0.58174 0.79371 0.71353 0.0
H757 H 0.58697 0.8266 0.23622 0.0
H758 H 0.58453 0.82064 0.36531 0.0
C759 C 0.58024 0.79029 0.78737 0.0
C760 C 0.58437 0.78109 0.58923 0.0
H761 H 0.61588 0.81807 0.4551 0.0
C762 C 0.56684 0.76379 0.54741 0.0
C763 C 0.60234 0.80085 0.55544 0.0
C764 C 0.62216 0.81959 0.59706 0.0
C765 C 0.56656 0.76588 0.47298 0.0
C766 C 0.58455 0.78563 0.43916 0.0
C767 C 0.60208 0.80294 0.48099 0.0
C768 C 0.58548 0.78878 0.36053 0.0
C769 C 0.5467 0.74718 0.43142 0.0
C770 C 0.58694 0.77293 0.31472 0.0
C771 C 0.58827 0.77628 0.24086 0.0
C772 C 0.58838 0.79567 0.21152 0.0
C773 C 0.58693 0.81151 0.25735 0.0
C774 C 0.58556 0.80814 0.33111 0.0
H775 H 0.5315 0.73661 0.466 0.0
H776 H 0.54134 0.75464 0.38766 0.0
H777 H 0.55218 0.7355 0.40758 0.0
H778 H 0.58736 0.75811 0.33613 0.0
H779 H 0.58947 0.76385 0.20681 0.0
H780 H 0.77586 0.5755 0.82414 0.0
H781 H 0.77244 0.57759 0.69458 0.0
H782 H 0.83805 0.58085 0.66691 0.0
H783 H 0.84139 0.57848 0.79606 0.0
H784 H 0.8014 0.61141 0.59744 0.0
H785 H 0.79583 0.52763 0.53566 0.0
H786 H 0.79227 0.53553 0.62468 0.0
H787 H 0.82069 0.54687 0.58733 0.0
C788 C 0.78951 0.57661 0.79033 0.0
C789 C 0.80878 0.5766 0.82011 0.0
C790 C 0.78756 0.57783 0.71635 0.0
C791 C 0.80477 0.57893 0.67079 0.0
C792 C 0.82428 0.57945 0.70072 0.0
H793 H 0.8252 0.58698 0.21043 0.0
H794 H 0.82876 0.58515 0.34002 0.0
C795 C 0.82624 0.57824 0.7746 0.0
C796 C 0.8025 0.57983 0.5921 0.0
H797 H 0.79998 0.5517 0.43733 0.0
C798 C 0.80097 0.5983 0.56246 0.0
C799 C 0.802 0.56274 0.54634 0.0
C800 C 0.80257 0.54195 0.57499 0.0
C801 C 0.7994 0.60038 0.48842 0.0
C802 C 0.79889 0.58329 0.44265 0.0
C803 C 0.80042 0.56482 0.4723 0.0
C804 C 0.7966 0.58416 0.36395 0.0
C805 C 0.79884 0.62118 0.4598 0.0
C806 C 0.77715 0.58376 0.33407 0.0
C807 C 0.77511 0.58484 0.26018 0.0
C808 C 0.79242 0.58619 0.21457 0.0
C809 C 0.81165 0.58608 0.2443 0.0
C810 C 0.81368 0.58501 0.31831 0.0
H811 H 0.8057 0.63554 0.49902 0.0
H812 H 0.80903 0.62754 0.4099 0.0
H813 H 0.78071 0.61631 0.44787 0.0
H814 H 0.76346 0.58254 0.36793 0.0
H815 H 0.76 0.58468 0.23877 0.0
H816 H 0.2414 0.82477 0.20488 0.0
H817 H 0.24715 0.82813 0.33434 0.0
H818 H 0.18359 0.76367 0.36297 0.0
H819 H 0.1779 0.76012 0.23389 0.0
H820 H 0.2179 0.82997 0.43847 0.0
H821 H 0.22952 0.75431 0.48163 0.0
H822 H 0.2315 0.76665 0.39465 0.0
H823 H 0.20373 0.74782 0.4338 0.0
C824 C 0.22876 0.81126 0.23886 0.0
C825 C 0.20921 0.79217 0.20941 0.0
C826 C 0.23204 0.81321 0.31274 0.0
C827 C 0.21595 0.79601 0.35837 0.0
C828 C 0.19646 0.77693 0.32886 0.0
H829 H 0.20155 0.77694 0.81833 0.0
H830 H 0.19582 0.77373 0.68888 0.0
C831 C 0.19316 0.77498 0.2551 0.0
C832 C 0.21909 0.79839 0.43689 0.0
H833 H 0.22496 0.77209 0.58502 0.0
C834 C 0.21959 0.8174 0.47049 0.0
C835 C 0.22116 0.78191 0.47869 0.0
C836 C 0.22167 0.76162 0.44544 0.0
C837 C 0.22169 0.82016 0.54481 0.0
C838 C 0.22377 0.80368 0.58662 0.0
C839 C 0.22328 0.78467 0.553 0.0
C840 C 0.22687 0.80602 0.66517 0.0
C841 C 0.22112 0.84041 0.57806 0.0
C842 C 0.24626 0.82518 0.69489 0.0
C843 C 0.24954 0.82704 0.76867 0.0
C844 C 0.23358 0.8097 0.81415 0.0
C845 C 0.21413 0.79056 0.7845 0.0
C846 C 0.21086 0.7887 0.71062 0.0
H847 H 0.21319 0.84766 0.54191 0.0
H848 H 0.21133 0.83538 0.62891 0.0
H849 H 0.23905 0.85427 0.58953 0.0
H850 H 0.25908 0.83853 0.66092 0.0
H851 H 0.26474 0.84194 0.79004 0.0
H852 H 0.42759 0.20087 0.82404 0.0
H853 H 0.42548 0.19539 0.69445 0.0
H854 H 0.42203 0.25765 0.66731 0.0
H855 H 0.42443 0.26334 0.79648 0.0
H856 H 0.3916 0.19041 0.59771 0.0
H857 H 0.47521 0.26883 0.53543 0.0
H858 H 0.46738 0.25737 0.62448 0.0
H859 H 0.45594 0.27436 0.58735 0.0
C860 C 0.42644 0.21341 0.79033 0.0
C861 C 0.42641 0.23266 0.82027 0.0
C862 C 0.42521 0.21025 0.71634 0.0
C863 C 0.42405 0.22634 0.67091 0.0
C864 C 0.42348 0.24529 0.70101 0.0
H865 H 0.41571 0.23855 0.21057 0.0
H866 H 0.41756 0.24398 0.34017 0.0
C867 C 0.42471 0.24845 0.77489 0.0
C868 C 0.42311 0.22317 0.5922 0.0
H869 H 0.45111 0.24884 0.43726 0.0
C870 C 0.40467 0.20313 0.56265 0.0
C871 C 0.44014 0.2398 0.54634 0.0
C872 C 0.46091 0.26121 0.57488 0.0
C873 C 0.40256 0.19946 0.48861 0.0
C874 C 0.41959 0.21609 0.44274 0.0
C875 C 0.43803 0.23613 0.4723 0.0
C876 C 0.4187 0.2129 0.36403 0.0
C877 C 0.38179 0.17805 0.46011 0.0
C878 C 0.41918 0.19388 0.33412 0.0
C879 C 0.4181 0.19075 0.26024 0.0
C880 C 0.41666 0.20665 0.21465 0.0
C881 C 0.41668 0.22595 0.24441 0.0
C882 C 0.41776 0.22907 0.31842 0.0
H883 H 0.36745 0.17051 0.49944 0.0
H884 H 0.37539 0.18184 0.41028 0.0
H885 H 0.38672 0.16484 0.44809 0.0
H886 H 0.42048 0.18146 0.36794 0.0
H887 H 0.41833 0.17583 0.2388 0.0
loop_
_geom_bond_atom_site_label_1
_geom_bond_atom_site_label_2
_geom_bond_distance
_geom_bond_site_symmetry_2
_ccdc_geom_bond_type
Tb0 C2 2.809 1_556 S
Tb0 O20 2.484 1_556 S
Tb0 O21 2.440 . S
Tb0 O22 2.658 . S
Tb0 O23 2.409 . S
Tb0 O24 2.378 . S
Tb0 O28 2.325 1_556 S
Tb0 O31 2.341 . S
Tb1 C11 2.809 1_554 S
Tb1 O22 2.325 1_554 S
Tb1 O25 2.341 . S
Tb1 O26 2.484 1_554 S
Tb1 O27 2.440 . S
Tb1 O28 2.658 . S
Tb1 O29 2.409 . S
Tb1 O30 2.378 . S
C2 Tb0 2.809 1_554 S
C2 C3 1.514 . S
C2 O20 1.248 . S
C2 O21 1.266 1_554 S
C3 C2 1.514 . S
C3 C4 1.359 . S
C3 C8 1.348 1_554 S
C4 C3 1.359 . S
C4 C5 1.380 . S
C4 H32 0.929 . S
C5 C4 1.380 . S
C5 C6 1.347 . S
C5 H33 0.931 . S
C6 C5 1.347 . S
C6 C7 1.369 1_554 S
C7 C6 1.369 1_556 S
C7 C8 1.408 . S
C7 H34 0.930 . S
C8 C3 1.348 1_556 S
C8 C7 1.408 . S
C8 H35 0.930 . S
C9 O22 1.281 . S
C9 O23 1.254 . S
C10 O24 1.236 . S
C10 O25 1.266 1_556 S
C11 Tb1 2.809 1_556 S
C11 C12 1.514 . S
C11 O26 1.248 . S
C11 O27 1.266 1_556 S
C12 C11 1.514 . S
C12 C13 1.359 . S
C12 C17 1.348 1_556 S
C13 C12 1.359 . S
C13 C14 1.380 . S
C13 H36 0.929 . S
C14 C13 1.380 . S
C14 C15 1.347 . S
C14 H37 0.931 . S
C15 C14 1.347 . S
C15 C16 1.369 1_556 S
C16 C15 1.369 1_554 S
C16 C17 1.408 . S
C16 H38 0.930 . S
C17 C12 1.348 1_554 S
C17 C16 1.408 . S
C17 H39 0.930 . S
C18 O28 1.281 . S
C18 O29 1.254 . S
C19 O30 1.236 . S
C19 O31 1.266 1_554 S
O20 Tb0 2.484 1_554 S
O20 C2 1.248 . S
O21 Tb0 2.440 . S
O21 C2 1.266 1_556 S
O22 Tb0 2.658 . S
O22 Tb1 2.325 1_556 S
O22 C9 1.281 . S
O23 Tb0 2.409 . S
O23 C9 1.254 . S
O24 Tb0 2.378 . S
O24 C10 1.236 . S
O25 Tb1 2.341 . S
O25 C10 1.266 1_554 S
O26 Tb1 2.484 1_556 S
O26 C11 1.248 . S
O27 Tb1 2.440 . S
O27 C11 1.266 1_554 S
O28 Tb0 2.325 1_554 S
O28 Tb1 2.658 . S
O28 C18 1.281 . S
O29 Tb1 2.409 . S
O29 C18 1.254 . S
O30 Tb1 2.378 . S
O30 C19 1.236 . S
O31 Tb0 2.341 . S
O31 C19 1.266 1_556 S
H32 C4 0.929 . S
H33 C5 0.931 . S
H34 C7 0.930 . S
H35 C8 0.930 . S
H36 C13 0.929 . S
H37 C14 0.931 . S
H38 C16 0.930 . S
H39 C17 0.930 . S
Tb40 C42 2.809 1_556 S
Tb40 O60 2.484 1_556 S
Tb40 O61 2.440 . S
Tb40 O62 2.658 . S
Tb40 O63 2.409 . S
Tb40 O64 2.378 . S
Tb40 O68 2.325 1_556 S
Tb40 O71 2.341 . S
Tb41 C51 2.809 1_554 S
Tb41 O62 2.325 1_554 S
Tb41 O65 2.341 . S
Tb41 O66 2.484 1_554 S
Tb41 O67 2.440 . S
Tb41 O68 2.658 . S
Tb41 O69 2.409 . S
Tb41 O70 2.378 . S
C42 Tb40 2.809 1_554 S
C42 C43 1.514 . S
C42 O60 1.248 . S
C42 O61 1.266 1_554 S
C43 C42 1.514 . S
C43 C44 1.359 . S
C43 C48 1.348 1_554 S
C44 C43 1.359 . S
C44 C45 1.380 . S
C44 H72 0.929 . S
C45 C44 1.380 . S
C45 C46 1.347 . S
C45 H73 0.931 . S
C46 C45 1.347 . S
C46 C47 1.369 1_554 S
C47 C46 1.369 1_556 S
C47 C48 1.408 . S
C47 H74 0.930 . S
C48 C43 1.348 1_556 S
C48 C47 1.408 . S
C48 H75 0.930 . S
C49 O62 1.281 . S
C49 O63 1.254 . S
C50 O64 1.236 . S
C50 O65 1.266 1_556 S
C51 Tb41 2.809 1_556 S
C51 C52 1.514 . S
C51 O66 1.248 . S
C51 O67 1.266 1_556 S
C52 C51 1.514 . S
C52 C53 1.359 . S
C52 C57 1.348 1_556 S
C53 C52 1.359 . S
C53 C54 1.380 . S
C53 H76 0.929 . S
C54 C53 1.380 . S
C54 C55 1.347 . S
C54 H77 0.931 . S
C55 C54 1.347 . S
C55 C56 1.369 1_556 S
C56 C55 1.369 1_554 S
C56 C57 1.408 . S
C56 H78 0.930 . S
C57 C52 1.348 1_554 S
C57 C56 1.408 . S
C57 H79 0.930 . S
C58 O68 1.281 . S
C58 O69 1.254 . S
C59 O70 1.236 . S
C59 O71 1.266 1_554 S
O60 Tb40 2.484 1_554 S
O60 C42 1.248 . S
O61 Tb40 2.440 . S
O61 C42 1.266 1_556 S
O62 Tb40 2.658 . S
O62 Tb41 2.325 1_556 S
O62 C49 1.281 . S
O63 Tb40 2.409 . S
O63 C49 1.254 . S
O64 Tb40 2.378 . S
O64 C50 1.236 . S
O65 Tb41 2.341 . S
O65 C50 1.266 1_554 S
O66 Tb41 2.484 1_556 S
O66 C51 1.248 . S
O67 Tb41 2.440 . S
O67 C51 1.266 1_554 S
O68 Tb40 2.325 1_554 S
O68 Tb41 2.658 . S
O68 C58 1.281 . S
O69 Tb41 2.409 . S
O69 C58 1.254 . S
O70 Tb41 2.378 . S
O70 C59 1.236 . S
O71 Tb40 2.341 . S
O71 C59 1.266 1_556 S
H72 C44 0.929 . S
H73 C45 0.931 . S
H74 C47 0.930 . S
H75 C48 0.930 . S
H76 C53 0.929 . S
H77 C54 0.931 . S
H78 C56 0.930 . S
H79 C57 0.930 . S
Tb80 C82 2.809 1_556 S
Tb80 O100 2.484 1_556 S
Tb80 O101 2.440 . S
Tb80 O102 2.658 . S
Tb80 O103 2.409 . S
Tb80 O104 2.378 . S
Tb80 O108 2.325 1_556 S
Tb80 O111 2.341 . S
Tb81 C91 2.809 1_554 S
Tb81 O102 2.325 1_554 S
Tb81 O105 2.341 . S
Tb81 O106 2.484 1_554 S
Tb81 O107 2.440 . S
Tb81 O108 2.658 . S
Tb81 O109 2.409 . S
Tb81 O110 2.378 . S
C82 Tb80 2.809 1_554 S
C82 C83 1.514 . S
C82 O100 1.248 . S
C82 O101 1.266 1_554 S
C83 C82 1.514 . S
C83 C84 1.359 . S
C83 C88 1.348 1_554 S
C84 C83 1.359 . S
C84 C85 1.380 . S
C84 H112 0.929 . S
C85 C84 1.380 . S
C85 C86 1.347 . S
C85 H113 0.931 . S
C86 C85 1.347 . S
C86 C87 1.369 1_554 S
C87 C86 1.369 1_556 S
C87 C88 1.408 . S
C87 H114 0.930 . S
C88 C83 1.348 1_556 S
C88 C87 1.408 . S
C88 H115 0.930 . S
C89 O102 1.281 . S
C89 O103 1.254 . S
C90 O104 1.236 . S
C90 O105 1.266 1_556 S
C91 Tb81 2.809 1_556 S
C91 C92 1.514 . S
C91 O106 1.248 . S
C91 O107 1.266 1_556 S
C92 C91 1.514 . S
C92 C93 1.359 . S
C92 C97 1.348 1_556 S
C93 C92 1.359 . S
C93 C94 1.380 . S
C93 H116 0.929 . S
C94 C93 1.380 . S
C94 C95 1.347 . S
C94 H117 0.931 . S
C95 C94 1.347 . S
C95 C96 1.369 1_556 S
C96 C95 1.369 1_554 S
C96 C97 1.408 . S
C96 H118 0.930 . S
C97 C92 1.348 1_554 S
C97 C96 1.408 . S
C97 H119 0.930 . S
C98 O108 1.281 . S
C98 O109 1.254 . S
C99 O110 1.236 . S
C99 O111 1.266 1_554 S
O100 Tb80 2.484 1_554 S
O100 C82 1.248 . S
O101 Tb80 2.440 . S
O101 C82 1.266 1_556 S
O102 Tb80 2.658 . S
O102 Tb81 2.325 1_556 S
O102 C89 1.281 . S
O103 Tb80 2.409 . S
O103 C89 1.254 . S
O104 Tb80 2.378 . S
O104 C90 1.236 . S
O105 Tb81 2.341 . S
O105 C90 1.266 1_554 S
O106 Tb81 2.484 1_556 S
O106 C91 1.248 . S
O107 Tb81 2.440 . S
O107 C91 1.266 1_554 S
O108 Tb80 2.325 1_554 S
O108 Tb81 2.658 . S
O108 C98 1.281 . S
O109 Tb81 2.409 . S
O109 C98 1.254 . S
O110 Tb81 2.378 . S
O110 C99 1.236 . S
O111 Tb80 2.341 . S
O111 C99 1.266 1_556 S
H112 C84 0.929 . S
H113 C85 0.931 . S
H114 C87 0.930 . S
H115 C88 0.930 . S
H116 C93 0.929 . S
H117 C94 0.931 . S
H118 C96 0.930 . S
H119 C97 0.930 . S
Tb120 C122 2.809 1_556 S
Tb120 O140 2.484 1_556 S
Tb120 O141 2.440 . S
Tb120 O142 2.658 . S
Tb120 O143 2.409 . S
Tb120 O144 2.378 . S
Tb120 O148 2.325 1_556 S
Tb120 O151 2.341 . S
Tb121 C131 2.809 1_554 S
Tb121 O142 2.325 1_554 S
Tb121 O145 2.341 . S
Tb121 O146 2.484 1_554 S
Tb121 O147 2.440 . S
Tb121 O148 2.658 . S
Tb121 O149 2.409 . S
Tb121 O150 2.378 . S
C122 Tb120 2.809 1_554 S
C122 C123 1.514 . S
C122 O140 1.248 . S
C122 O141 1.266 1_554 S
C123 C122 1.514 . S
C123 C124 1.359 . S
C123 C128 1.348 1_554 S
C124 C123 1.359 . S
C124 C125 1.380 . S
C124 H152 0.929 . S
C125 C124 1.380 . S
C125 C126 1.347 . S
C125 H153 0.931 . S
C126 C125 1.347 . S
C126 C127 1.369 1_554 S
C127 C126 1.369 1_556 S
C127 C128 1.408 . S
C127 H154 0.930 . S
C128 C123 1.348 1_556 S
C128 C127 1.408 . S
C128 H155 0.930 . S
C129 O142 1.281 . S
C129 O143 1.254 . S
C130 O144 1.236 . S
C130 O145 1.266 1_556 S
C131 Tb121 2.809 1_556 S
C131 C132 1.514 . S
C131 O146 1.248 . S
C131 O147 1.266 1_556 S
C132 C131 1.514 . S
C132 C133 1.359 . S
C132 C137 1.348 1_556 S
C133 C132 1.359 . S
C133 C134 1.380 . S
C133 H156 0.929 . S
C134 C133 1.380 . S
C134 C135 1.347 . S
C134 H157 0.931 . S
C135 C134 1.347 . S
C135 C136 1.369 1_556 S
C136 C135 1.369 1_554 S
C136 C137 1.408 . S
C136 H158 0.930 . S
C137 C132 1.348 1_554 S
C137 C136 1.408 . S
C137 H159 0.930 . S
C138 O148 1.281 . S
C138 O149 1.254 . S
C139 O150 1.236 . S
C139 O151 1.266 1_554 S
O140 Tb120 2.484 1_554 S
O140 C122 1.248 . S
O141 Tb120 2.440 . S
O141 C122 1.266 1_556 S
O142 Tb120 2.658 . S
O142 Tb121 2.325 1_556 S
O142 C129 1.281 . S
O143 Tb120 2.409 . S
O143 C129 1.254 . S
O144 Tb120 2.378 . S
O144 C130 1.236 . S
O145 Tb121 2.341 . S
O145 C130 1.266 1_554 S
O146 Tb121 2.484 1_556 S
O146 C131 1.248 . S
O147 Tb121 2.440 . S
O147 C131 1.266 1_554 S
O148 Tb120 2.325 1_554 S
O148 Tb121 2.658 . S
O148 C138 1.281 . S
O149 Tb121 2.409 . S
O149 C138 1.254 . S
O150 Tb121 2.378 . S
O150 C139 1.236 . S
O151 Tb120 2.341 . S
O151 C139 1.266 1_556 S
H152 C124 0.929 . S
H153 C125 0.931 . S
H154 C127 0.930 . S
H155 C128 0.930 . S
H156 C133 0.929 . S
H157 C134 0.931 . S
H158 C136 0.930 . S
H159 C137 0.930 . S
Tb160 C162 2.809 1_556 S
Tb160 O180 2.484 1_556 S
Tb160 O181 2.440 . S
Tb160 O182 2.658 . S
Tb160 O183 2.409 . S
Tb160 O184 2.378 . S
Tb160 O188 2.325 1_556 S
Tb160 O191 2.341 . S
Tb161 C171 2.809 1_554 S
Tb161 O182 2.325 1_554 S
Tb161 O185 2.341 . S
Tb161 O186 2.484 1_554 S
Tb161 O187 2.440 . S
Tb161 O188 2.658 . S
Tb161 O189 2.409 . S
Tb161 O190 2.378 . S
C162 Tb160 2.809 1_554 S
C162 C163 1.514 . S
C162 O180 1.248 . S
C162 O181 1.266 1_554 S
C163 C162 1.514 . S
C163 C164 1.359 . S
C163 C168 1.348 1_554 S
C164 C163 1.359 . S
C164 C165 1.380 . S
C164 H192 0.929 . S
C165 C164 1.380 . S
C165 C166 1.347 . S
C165 H193 0.931 . S
C166 C165 1.347 . S
C166 C167 1.369 1_554 S
C167 C166 1.369 1_556 S
C167 C168 1.408 . S
C167 H194 0.930 . S
C168 C163 1.348 1_556 S
C168 C167 1.408 . S
C168 H195 0.930 . S
C169 O182 1.281 . S
C169 O183 1.254 . S
C170 O184 1.236 . S
C170 O185 1.266 1_556 S
C171 Tb161 2.809 1_556 S
C171 C172 1.514 . S
C171 O186 1.248 . S
C171 O187 1.266 1_556 S
C172 C171 1.514 . S
C172 C173 1.359 . S
C172 C177 1.348 1_556 S
C173 C172 1.359 . S
C173 C174 1.380 . S
C173 H196 0.929 . S
C174 C173 1.380 . S
C174 C175 1.347 . S
C174 H197 0.931 . S
C175 C174 1.347 . S
C175 C176 1.369 1_556 S
C176 C175 1.369 1_554 S
C176 C177 1.408 . S
C176 H198 0.930 . S
C177 C172 1.348 1_554 S
C177 C176 1.408 . S
C177 H199 0.930 . S
C178 O188 1.281 . S
C178 O189 1.254 . S
C179 O190 1.236 . S
C179 O191 1.266 1_554 S
O180 Tb160 2.484 1_554 S
O180 C162 1.248 . S
O181 Tb160 2.440 . S
O181 C162 1.266 1_556 S
O182 Tb160 2.658 . S
O182 Tb161 2.325 1_556 S
O182 C169 1.281 . S
O183 Tb160 2.409 . S
O183 C169 1.254 . S
O184 Tb160 2.378 . S
O184 C170 1.236 . S
O185 Tb161 2.341 . S
O185 C170 1.266 1_554 S
O186 Tb161 2.484 1_556 S
O186 C171 1.248 . S
O187 Tb161 2.440 . S
O187 C171 1.266 1_554 S
O188 Tb160 2.325 1_554 S
O188 Tb161 2.658 . S
O188 C178 1.281 . S
O189 Tb161 2.409 . S
O189 C178 1.254 . S
O190 Tb161 2.378 . S
O190 C179 1.236 . S
O191 Tb160 2.341 . S
O191 C179 1.266 1_556 S
H192 C164 0.929 . S
H193 C165 0.931 . S
H194 C167 0.930 . S
H195 C168 0.930 . S
H196 C173 0.929 . S
H197 C174 0.931 . S
H198 C176 0.930 . S
H199 C177 0.930 . S
Tb200 C202 2.809 1_556 S
Tb200 O220 2.484 1_556 S
Tb200 O221 2.440 . S
Tb200 O222 2.658 . S
Tb200 O223 2.409 . S
Tb200 O224 2.378 . S
Tb200 O228 2.325 1_556 S
Tb200 O231 2.341 . S
Tb201 C211 2.809 1_554 S
Tb201 O222 2.325 1_554 S
Tb201 O225 2.341 . S
Tb201 O226 2.484 1_554 S
Tb201 O227 2.440 . S
Tb201 O228 2.658 . S
Tb201 O229 2.409 . S
Tb201 O230 2.378 . S
C202 Tb200 2.809 1_554 S
C202 C203 1.514 . S
C202 O220 1.248 . S
C202 O221 1.266 1_554 S
C203 C202 1.514 . S
C203 C204 1.359 . S
C203 C208 1.348 1_554 S
C204 C203 1.359 . S
C204 C205 1.380 . S
C204 H232 0.929 . S
C205 C204 1.380 . S
C205 C206 1.347 . S
C205 H233 0.931 . S
C206 C205 1.347 . S
C206 C207 1.369 1_554 S
C207 C206 1.369 1_556 S
C207 C208 1.408 . S
C207 H234 0.930 . S
C208 C203 1.348 1_556 S
C208 C207 1.408 . S
C208 H235 0.930 . S
C209 O222 1.281 . S
C209 O223 1.254 . S
C210 O224 1.236 . S
C210 O225 1.266 1_556 S
C211 Tb201 2.809 1_556 S
C211 C212 1.514 . S
C211 O226 1.248 . S
C211 O227 1.266 1_556 S
C212 C211 1.514 . S
C212 C213 1.359 . S
C212 C217 1.348 1_556 S
C213 C212 1.359 . S
C213 C214 1.380 . S
C213 H236 0.929 . S
C214 C213 1.380 . S
C214 C215 1.347 . S
C214 H237 0.931 . S
C215 C214 1.347 . S
C215 C216 1.369 1_556 S
C216 C215 1.369 1_554 S
C216 C217 1.408 . S
C216 H238 0.930 . S
C217 C212 1.348 1_554 S
C217 C216 1.408 . S
C217 H239 0.930 . S
C218 O228 1.281 . S
C218 O229 1.254 . S
C219 O230 1.236 . S
C219 O231 1.266 1_554 S
O220 Tb200 2.484 1_554 S
O220 C202 1.248 . S
O221 Tb200 2.440 . S
O221 C202 1.266 1_556 S
O222 Tb200 2.658 . S
O222 Tb201 2.325 1_556 S
O222 C209 1.281 . S
O223 Tb200 2.409 . S
O223 C209 1.254 . S
O224 Tb200 2.378 . S
O224 C210 1.236 . S
O225 Tb201 2.341 . S
O225 C210 1.266 1_554 S
O226 Tb201 2.484 1_556 S
O226 C211 1.248 . S
O227 Tb201 2.440 . S
O227 C211 1.266 1_554 S
O228 Tb200 2.325 1_554 S
O228 Tb201 2.658 . S
O228 C218 1.281 . S
O229 Tb201 2.409 . S
O229 C218 1.254 . S
O230 Tb201 2.378 . S
O230 C219 1.236 . S
O231 Tb200 2.341 . S
O231 C219 1.266 1_556 S
H232 C204 0.929 . S
H233 C205 0.931 . S
H234 C207 0.930 . S
H235 C208 0.930 . S
H236 C213 0.929 . S
H237 C214 0.931 . S
H238 C216 0.930 . S
H239 C217 0.930 . S
H240 C248 0.929 . S
H241 C250 0.930 . S
H242 C252 0.930 . S
H243 C255 0.929 . S
H244 C258 0.930 . S
H245 C260 0.959 1_554 S
H246 C260 0.974 . S
H247 C260 0.946 1_554 S
C248 H240 0.929 . S
C248 C249 1.377 . S
C248 C250 1.384 . S
C249 C248 1.377 . S
C249 C255 1.390 1_556 S
C250 H241 0.930 . S
C250 C248 1.384 . S
C250 C251 1.372 . S
C251 C250 1.372 . S
C251 C252 1.400 1_556 S
C251 C256 1.490 . S
C252 H242 0.930 . S
C252 C251 1.400 1_554 S
C252 C255 1.386 . S
H253 C269 0.930 . S
H254 C270 0.931 . S
C255 H243 0.929 . S
C255 C249 1.390 1_554 S
C255 C252 1.386 . S
C256 C251 1.490 . S
C256 C258 1.395 . S
C256 C259 1.403 . S
H257 C263 0.930 . S
C258 H244 0.930 . S
C258 C256 1.395 . S
C258 C261 1.403 . S
C259 C256 1.403 . S
C259 C260 1.525 . S
C259 C263 1.400 . S
C260 H245 0.959 1_556 S
C260 H246 0.974 . S
C260 H247 0.946 1_556 S
C260 C259 1.525 . S
C261 C258 1.403 . S
C261 C262 1.392 . S
C261 C265 1.495 . S
C262 C261 1.392 . S
C262 C263 1.385 . S
C262 C264 1.478 . S
C263 H257 0.930 . S
C263 C259 1.400 . S
C263 C262 1.385 . S
C264 C262 1.478 . S
C264 C266 1.381 . S
C264 C270 1.383 1_556 S
C265 C261 1.495 . S
C265 H271 0.959 . S
C265 H272 0.961 1_556 S
C265 H273 0.960 . S
C266 C264 1.381 . S
C266 C267 1.394 . S
C266 H274 0.930 . S
C267 C266 1.394 . S
C267 C268 1.383 . S
C267 H275 0.929 . S
C268 C267 1.383 . S
C268 C269 1.377 1_556 S
C269 H253 0.930 . S
C269 C268 1.377 1_554 S
C269 C270 1.379 . S
C270 H254 0.931 . S
C270 C264 1.383 1_554 S
C270 C269 1.379 . S
H271 C265 0.959 . S
H272 C265 0.961 1_554 S
H273 C265 0.960 . S
H274 C266 0.930 . S
H275 C267 0.929 . S
H276 C284 0.929 . S
H277 C286 0.930 . S
H278 C288 0.930 . S
H279 C291 0.929 . S
H280 C294 0.930 . S
H281 C296 0.960 . S
H282 C296 0.960 . S
H283 C296 0.960 1_554 S
C284 H276 0.929 . S
C284 C285 1.377 . S
C284 C286 1.384 . S
C285 C284 1.377 . S
C285 C291 1.390 1_556 S
C286 H277 0.930 . S
C286 C284 1.384 . S
C286 C287 1.372 . S
C287 C286 1.372 . S
C287 C288 1.400 1_556 S
C287 C292 1.490 . S
C288 H278 0.930 . S
C288 C287 1.400 1_554 S
C288 C291 1.386 . S
H289 C305 0.930 . S
H290 C306 0.931 . S
C291 H279 0.929 . S
C291 C285 1.390 1_554 S
C291 C288 1.386 . S
C292 C287 1.490 . S
C292 C294 1.395 . S
C292 C295 1.403 . S
H293 C299 0.930 . S
C294 H280 0.930 . S
C294 C292 1.395 . S
C294 C297 1.403 . S
C295 C292 1.403 . S
C295 C296 1.524 . S
C295 C299 1.400 . S
C296 H281 0.960 . S
C296 H282 0.960 . S
C296 H283 0.960 1_556 S
C296 C295 1.524 . S
C297 C294 1.403 . S
C297 C298 1.392 . S
C297 C301 1.495 . S
C298 C297 1.392 . S
C298 C299 1.385 . S
C298 C300 1.478 1_455 S
C299 H293 0.930 . S
C299 C295 1.400 . S
C299 C298 1.385 . S
C300 C298 1.478 1_655 S
C300 C302 1.381 . S
C300 C306 1.383 1_556 S
C301 C297 1.495 . S
C301 H307 0.959 . S
C301 H308 0.961 1_556 S
C301 H309 0.960 . S
C302 C300 1.381 . S
C302 C303 1.394 . S
C302 H310 0.930 . S
C303 C302 1.394 . S
C303 C304 1.383 . S
C303 H311 0.929 . S
C304 C303 1.383 . S
C304 C305 1.377 1_556 S
C305 H289 0.930 . S
C305 C304 1.377 1_554 S
C305 C306 1.379 . S
C306 H290 0.931 . S
C306 C300 1.383 1_554 S
C306 C305 1.379 . S
H307 C301 0.959 . S
H308 C301 0.961 1_554 S
H309 C301 0.960 . S
H310 C302 0.930 . S
H311 C303 0.929 . S
H312 C320 0.929 . S
H313 C322 0.930 . S
H314 C324 0.930 . S
H315 C327 0.929 . S
H316 C330 0.930 . S
H317 C332 0.960 . S
H318 C332 0.960 . S
H319 C332 0.960 1_556 S
C320 H312 0.929 . S
C320 C321 1.387 . S
C320 C322 1.384 . S
C321 C320 1.387 . S
C321 C327 1.379 1_554 S
C322 H313 0.930 . S
C322 C320 1.384 . S
C322 C323 1.372 1_554 S
C323 C322 1.372 1_556 S
C323 C324 1.400 . S
C323 C328 1.490 . S
C324 H314 0.930 . S
C324 C323 1.400 . S
C324 C327 1.386 . S
H325 C341 0.930 . S
H326 C342 0.931 . S
C327 H315 0.929 . S
C327 C321 1.379 1_556 S
C327 C324 1.386 . S
C328 C323 1.490 . S
C328 C330 1.395 . S
C328 C331 1.403 1_556 S
H329 C335 0.930 . S
C330 H316 0.930 . S
C330 C328 1.395 . S
C330 C333 1.403 . S
C331 C328 1.403 1_554 S
C331 C332 1.524 . S
C331 C335 1.400 . S
C332 H317 0.960 . S
C332 H318 0.960 . S
C332 H319 0.960 1_554 S
C332 C331 1.524 . S
C333 C330 1.403 . S
C333 C334 1.392 . S
C333 C337 1.495 . S
C334 C333 1.392 . S
C334 C335 1.385 1_556 S
C334 C336 1.478 1_545 S
C335 H329 0.930 . S
C335 C331 1.400 . S
C335 C334 1.385 1_554 S
C336 C334 1.478 1_565 S
C336 C338 1.381 1_556 S
C336 C342 1.383 . S
C337 C333 1.495 . S
C337 H343 0.959 . S
C337 H344 0.961 . S
C337 H345 0.960 1_545 S
C338 C336 1.381 1_554 S
C338 C339 1.394 . S
C338 H346 0.930 . S
C339 C338 1.394 . S
C339 C340 1.383 1_554 S
C339 H347 0.929 . S
C340 C339 1.383 1_556 S
C340 C341 1.377 . S
C341 H325 0.930 . S
C341 C340 1.377 . S
C341 C342 1.379 . S
C342 H326 0.931 . S
C342 C336 1.383 . S
C342 C341 1.379 . S
H343 C337 0.959 . S
H344 C337 0.961 . S
H345 C337 0.960 1_565 S
H346 C338 0.930 . S
H347 C339 0.929 . S
H348 C356 0.929 . S
H349 C358 0.930 . S
H350 C360 0.930 . S
H351 C363 0.929 . S
H352 C366 0.930 . S
H353 C368 0.960 . S
H354 C368 0.960 . S
H355 C368 0.960 . S
C356 H348 0.929 . S
C356 C357 1.377 1_554 S
C356 C358 1.384 . S
C357 C356 1.377 1_556 S
C357 C363 1.390 . S
C358 H349 0.930 . S
C358 C356 1.384 . S
C358 C359 1.372 1_554 S
C359 C358 1.372 1_556 S
C359 C360 1.400 . S
C359 C364 1.490 . S
C360 H350 0.930 . S
C360 C359 1.400 . S
C360 C363 1.386 . S
H361 C377 0.930 . S
H362 C378 0.931 . S
C363 H351 0.929 . S
C363 C357 1.390 . S
C363 C360 1.386 . S
C364 C359 1.490 . S
C364 C366 1.395 . S
C364 C367 1.403 1_556 S
H365 C371 0.930 . S
C366 H352 0.930 . S
C366 C364 1.395 . S
C366 C369 1.403 . S
C367 C364 1.403 1_554 S
C367 C368 1.524 . S
C367 C371 1.400 . S
C368 H353 0.960 . S
C368 H354 0.960 . S
C368 H355 0.960 . S
C368 C367 1.524 . S
C369 C366 1.403 . S
C369 C370 1.392 . S
C369 C373 1.495 . S
C370 C369 1.392 . S
C370 C371 1.385 1_556 S
C370 C372 1.478 . S
C371 H365 0.930 . S
C371 C367 1.400 . S
C371 C370 1.385 1_554 S
C372 C370 1.478 . S
C372 C374 1.381 1_556 S
C372 C378 1.383 . S
C373 C369 1.495 . S
C373 H379 0.959 . S
C373 H380 0.961 . S
C373 H381 0.960 . S
C374 C372 1.381 1_554 S
C374 C375 1.394 . S
C374 H382 0.930 . S
C375 C374 1.394 . S
C375 C376 1.383 1_554 S
C375 H383 0.929 . S
C376 C375 1.383 1_556 S
C376 C377 1.377 . S
C377 H361 0.930 . S
C377 C376 1.377 . S
C377 C378 1.379 . S
C378 H362 0.931 . S
C378 C372 1.383 . S
C378 C377 1.379 . S
H379 C373 0.959 . S
H380 C373 0.961 . S
H381 C373 0.960 . S
H382 C374 0.930 . S
H383 C375 0.929 . S
H384 C392 0.929 . S
H385 C394 0.930 . S
H386 C396 0.930 . S
H387 C399 0.929 . S
H388 C402 0.930 . S
H389 C404 0.960 . S
H390 C404 0.960 . S
H391 C404 0.960 . S
C392 H384 0.929 . S
C392 C393 1.377 1_554 S
C392 C394 1.384 . S
C393 C392 1.377 1_556 S
C393 C399 1.390 . S
C394 H385 0.930 . S
C394 C392 1.384 . S
C394 C395 1.372 1_554 S
C395 C394 1.372 1_556 S
C395 C396 1.400 . S
C395 C400 1.490 1_455 S
C396 H386 0.930 . S
C396 C395 1.400 . S
C396 C399 1.386 . S
H397 C413 0.930 . S
H398 C414 0.931 . S
C399 H387 0.929 . S
C399 C393 1.390 . S
C399 C396 1.386 . S
C400 C395 1.490 1_655 S
C400 C402 1.395 1_556 S
C400 C403 1.403 . S
H401 C407 0.930 . S
C402 H388 0.930 . S
C402 C400 1.395 1_554 S
C402 C405 1.403 . S
C403 C400 1.403 . S
C403 C404 1.524 . S
C403 C407 1.400 . S
C404 H389 0.960 . S
C404 H390 0.960 . S
C404 H391 0.960 . S
C404 C403 1.524 . S
C405 C402 1.403 . S
C405 C406 1.392 1_554 S
C405 C409 1.495 . S
C406 C405 1.392 1_556 S
C406 C407 1.385 . S
C406 C408 1.478 . S
C407 H401 0.930 . S
C407 C403 1.400 . S
C407 C406 1.385 . S
C408 C406 1.478 . S
C408 C410 1.373 1_556 S
C408 C414 1.391 . S
C409 C405 1.495 . S
C409 H415 0.959 . S
C409 H416 0.961 . S
C409 H417 0.960 . S
C410 C408 1.373 1_554 S
C410 C411 1.394 . S
C410 H418 0.930 . S
C411 C410 1.394 . S
C411 C412 1.383 . S
C411 H419 0.929 . S
C412 C411 1.383 . S
C412 C413 1.377 1_554 S
C413 H397 0.930 . S
C413 C412 1.377 1_556 S
C413 C414 1.379 . S
C414 H398 0.931 . S
C414 C408 1.391 . S
C414 C413 1.379 . S
H415 C409 0.959 . S
H416 C409 0.961 . S
H417 C409 0.960 . S
H418 C410 0.930 . S
H419 C411 0.929 . S
H420 C428 0.929 . S
H421 C430 0.930 . S
H422 C432 0.930 . S
H423 C435 0.929 . S
H424 C438 0.930 . S
H425 C440 0.960 . S
H426 C440 0.960 . S
H427 C440 0.960 . S
C428 H420 0.929 . S
C428 C429 1.382 . S
C428 C430 1.384 . S
C429 C428 1.382 . S
C429 C435 1.385 1_556 S
C430 H421 0.930 . S
C430 C428 1.384 . S
C430 C431 1.372 . S
C431 C430 1.372 . S
C431 C432 1.400 1_556 S
C431 C436 1.490 . S
C432 H422 0.930 . S
C432 C431 1.400 1_554 S
C432 C435 1.386 . S
H433 C449 0.930 . S
H434 C450 0.931 . S
C435 H423 0.929 . S
C435 C429 1.385 1_554 S
C435 C432 1.386 . S
C436 C431 1.490 . S
C436 C438 1.395 . S
C436 C439 1.403 1_556 S
H437 C443 0.930 . S
C438 H424 0.930 . S
C438 C436 1.395 . S
C438 C441 1.403 . S
C439 C436 1.403 1_554 S
C439 C440 1.524 . S
C439 C443 1.400 . S
C440 H425 0.960 . S
C440 H426 0.960 . S
C440 H427 0.960 . S
C440 C439 1.524 . S
C441 C438 1.403 . S
C441 C442 1.392 . S
C441 C445 1.495 . S
C442 C441 1.392 . S
C442 C443 1.385 1_556 S
C442 C444 1.478 1_565 S
C443 H437 0.930 . S
C443 C439 1.400 . S
C443 C442 1.385 1_554 S
C444 C442 1.478 1_545 S
C444 C446 1.381 . S
C444 C450 1.383 1_556 S
C445 C441 1.495 . S
C445 H451 0.959 . S
C445 H452 0.961 . S
C445 H453 0.960 . S
C446 C444 1.381 . S
C446 C447 1.394 . S
C446 H454 0.930 . S
C447 C446 1.394 . S
C447 C448 1.383 . S
C447 H455 0.929 . S
C448 C447 1.383 . S
C448 C449 1.377 1_556 S
C449 H433 0.930 . S
C449 C448 1.377 1_554 S
C449 C450 1.379 . S
C450 H434 0.931 . S
C450 C444 1.383 1_554 S
C450 C449 1.379 . S
H451 C445 0.959 . S
H452 C445 0.961 . S
H453 C445 0.960 . S
H454 C446 0.930 . S
H455 C447 0.929 . S
H456 C464 0.929 . S
H457 C466 0.930 . S
H458 C468 0.930 . S
H459 C471 0.929 . S
H460 C474 0.930 . S
H461 C476 0.960 . S
H462 C476 0.960 . S
H463 C476 0.960 1_554 S
C464 H456 0.929 . S
C464 C465 1.377 . S
C464 C466 1.384 . S
C465 C464 1.377 . S
C465 C471 1.390 1_556 S
C466 H457 0.930 . S
C466 C464 1.384 . S
C466 C467 1.372 1_556 S
C467 C466 1.372 1_554 S
C467 C468 1.400 . S
C467 C472 1.490 . S
C468 H458 0.930 . S
C468 C467 1.400 . S
C468 C471 1.386 . S
H469 C485 0.930 . S
H470 C486 0.931 . S
C471 H459 0.929 . S
C471 C465 1.390 1_554 S
C471 C468 1.386 . S
C472 C467 1.490 . S
C472 C474 1.395 . S
C472 C475 1.403 1_554 S
H473 C479 0.931 . S
C474 H460 0.930 . S
C474 C472 1.395 . S
C474 C477 1.403 . S
C475 C472 1.403 1_556 S
C475 C476 1.524 . S
C475 C479 1.400 . S
C476 H461 0.960 . S
C476 H462 0.960 . S
C476 H463 0.960 1_556 S
C476 C475 1.524 . S
C477 C474 1.403 . S
C477 C478 1.392 . S
C477 C481 1.495 . S
C478 C477 1.392 . S
C478 C479 1.384 1_554 S
C478 C480 1.478 . S
C479 H473 0.931 . S
C479 C475 1.400 . S
C479 C478 1.384 1_556 S
C480 C478 1.478 . S
C480 C482 1.381 1_554 S
C480 C486 1.383 . S
C481 C477 1.495 . S
C481 H487 0.959 . S
C481 H488 0.961 . S
C481 H489 0.960 . S
C482 C480 1.381 1_556 S
C482 C483 1.394 . S
C482 H490 0.930 . S
C483 C482 1.394 . S
C483 C484 1.383 1_556 S
C483 H491 0.929 . S
C484 C483 1.383 1_554 S
C484 C485 1.377 . S
C485 H469 0.930 . S
C485 C484 1.377 . S
C485 C486 1.379 . S
C486 H470 0.931 . S
C486 C480 1.383 . S
C486 C485 1.379 . S
H487 C481 0.959 . S
H488 C481 0.961 . S
H489 C481 0.960 . S
H490 C482 0.930 . S
H491 C483 0.929 . S
H492 C500 0.929 . S
H493 C502 0.930 . S
H494 C504 0.930 . S
H495 C507 0.929 . S
H496 C510 0.930 . S
H497 C512 0.960 . S
H498 C512 0.960 1_556 S
H499 C512 0.960 . S
C500 H492 0.929 . S
C500 C501 1.377 1_556 S
C500 C502 1.384 . S
C501 C500 1.377 1_554 S
C501 C507 1.390 . S
C502 H493 0.930 . S
C502 C500 1.384 . S
C502 C503 1.372 1_556 S
C503 C502 1.372 1_554 S
C503 C504 1.400 . S
C503 C508 1.490 . S
C504 H494 0.930 . S
C504 C503 1.400 . S
C504 C507 1.386 . S
H505 C521 0.930 . S
H506 C522 0.931 . S
C507 H495 0.929 . S
C507 C501 1.390 . S
C507 C504 1.386 . S
C508 C503 1.490 . S
C508 C510 1.395 1_554 S
C508 C511 1.403 . S
H509 C515 0.930 . S
C510 H496 0.930 . S
C510 C508 1.395 1_556 S
C510 C513 1.403 . S
C511 C508 1.403 . S
C511 C512 1.524 . S
C511 C515 1.400 . S
C512 H497 0.960 . S
C512 H498 0.960 1_554 S
C512 H499 0.960 . S
C512 C511 1.524 . S
C513 C510 1.403 . S
C513 C514 1.392 1_556 S
C513 C517 1.495 . S
C514 C513 1.392 1_554 S
C514 C515 1.385 . S
C514 C516 1.478 . S
C515 H509 0.930 . S
C515 C511 1.400 . S
C515 C514 1.385 . S
C516 C514 1.478 . S
C516 C518 1.381 1_554 S
C516 C522 1.383 . S
C517 C513 1.495 . S
C517 H523 0.959 . S
C517 H524 0.961 1_556 S
C517 H525 0.960 . S
C518 C516 1.381 1_556 S
C518 C519 1.394 . S
C518 H526 0.930 . S
C519 C518 1.394 . S
C519 C520 1.383 1_556 S
C519 H527 0.929 . S
C520 C519 1.383 1_554 S
C520 C521 1.377 . S
C521 H505 0.930 . S
C521 C520 1.377 . S
C521 C522 1.379 . S
C522 H506 0.931 . S
C522 C516 1.383 . S
C522 C521 1.379 . S
H523 C517 0.959 . S
H524 C517 0.961 1_554 S
H525 C517 0.960 . S
H526 C518 0.930 . S
H527 C519 0.929 . S
H528 C536 0.929 . S
H529 C538 0.930 . S
H530 C540 0.930 . S
H531 C543 0.929 . S
H532 C546 0.930 . S
H533 C548 0.960 . S
H534 C548 0.960 . S
H535 C548 0.960 . S
C536 H528 0.929 . S
C536 C537 1.377 1_556 S
C536 C538 1.384 . S
C537 C536 1.377 1_554 S
C537 C543 1.390 . S
C538 H529 0.930 . S
C538 C536 1.384 . S
C538 C539 1.372 1_556 S
C539 C538 1.372 1_554 S
C539 C540 1.400 . S
C539 C544 1.490 . S
C540 H530 0.930 . S
C540 C539 1.400 . S
C540 C543 1.386 . S
H541 C557 0.930 . S
H542 C558 0.931 . S
C543 H531 0.929 . S
C543 C537 1.390 . S
C543 C540 1.386 . S
C544 C539 1.490 . S
C544 C546 1.395 1_554 S
C544 C547 1.403 . S
H545 C551 0.930 . S
C546 H532 0.930 . S
C546 C544 1.395 1_556 S
C546 C549 1.403 . S
C547 C544 1.403 . S
C547 C548 1.524 . S
C547 C551 1.400 . S
C548 H533 0.960 . S
C548 H534 0.960 . S
C548 H535 0.960 . S
C548 C547 1.524 . S
C549 C546 1.403 . S
C549 C550 1.398 . S
C549 C553 1.495 . S
C550 C549 1.398 . S
C550 C551 1.378 1_556 S
C550 C552 1.478 . S
C551 H545 0.930 . S
C551 C547 1.400 . S
C551 C550 1.378 1_554 S
C552 C550 1.478 . S
C552 C554 1.381 . S
C552 C558 1.383 1_556 S
C553 C549 1.495 . S
C553 H559 0.959 . S
C553 H560 0.961 . S
C553 H561 0.960 . S
C554 C552 1.381 . S
C554 C555 1.394 . S
C554 H562 0.930 . S
C555 C554 1.394 . S
C555 C556 1.383 . S
C555 H563 0.929 . S
C556 C555 1.383 . S
C556 C557 1.377 1_556 S
C557 H541 0.930 . S
C557 C556 1.377 1_554 S
C557 C558 1.379 . S
C558 H542 0.931 . S
C558 C552 1.383 1_554 S
C558 C557 1.379 . S
H559 C553 0.959 . S
H560 C553 0.961 . S
H561 C553 0.960 . S
H562 C554 0.930 . S
H563 C555 0.929 . S
H564 C572 0.929 . S
H565 C574 0.930 . S
H566 C576 0.930 . S
H567 C579 0.929 . S
H568 C582 0.930 . S
H569 C584 0.960 . S
H570 C584 0.960 . S
H571 C584 0.960 . S
C572 H564 0.929 . S
C572 C573 1.377 . S
C572 C574 1.384 . S
C573 C572 1.377 . S
C573 C579 1.390 1_554 S
C574 H565 0.930 . S
C574 C572 1.384 . S
C574 C575 1.372 . S
C575 C574 1.372 . S
C575 C576 1.400 1_554 S
C575 C580 1.490 . S
C576 H566 0.930 . S
C576 C575 1.400 1_556 S
C576 C579 1.386 . S
H577 C593 0.930 . S
H578 C594 0.931 . S
C579 H567 0.929 . S
C579 C573 1.390 1_556 S
C579 C576 1.386 . S
C580 C575 1.490 . S
C580 C582 1.395 . S
C580 C583 1.403 1_554 S
H581 C587 0.930 . S
C582 H568 0.930 . S
C582 C580 1.395 . S
C582 C585 1.403 . S
C583 C580 1.403 1_556 S
C583 C584 1.524 . S
C583 C587 1.400 . S
C584 H569 0.960 . S
C584 H570 0.960 . S
C584 H571 0.960 . S
C584 C583 1.524 . S
C585 C582 1.403 . S
C585 C586 1.392 . S
C585 C589 1.495 . S
C586 C585 1.392 . S
C586 C587 1.385 1_554 S
C586 C588 1.478 . S
C587 H581 0.930 . S
C587 C583 1.400 . S
C587 C586 1.385 1_556 S
C588 C586 1.478 . S
C588 C590 1.381 . S
C588 C594 1.383 1_554 S
C589 C585 1.495 . S
C589 H595 0.959 . S
C589 H596 0.961 . S
C589 H597 0.960 . S
C590 C588 1.381 . S
C590 C591 1.394 . S
C590 H598 0.930 . S
C591 C590 1.394 . S
C591 C592 1.383 . S
C591 H599 0.929 . S
C592 C591 1.383 . S
C592 C593 1.377 1_554 S
C593 H577 0.930 . S
C593 C592 1.377 1_556 S
C593 C594 1.379 . S
C594 H578 0.931 . S
C594 C588 1.383 1_556 S
C594 C593 1.379 . S
H595 C589 0.959 . S
H596 C589 0.961 . S
H597 C589 0.960 . S
H598 C590 0.930 . S
H599 C591 0.929 . S
H600 C608 0.929 . S
H601 C610 0.930 . S
H602 C612 0.930 . S
H603 C615 0.929 . S
H604 C618 0.930 . S
H605 C620 0.960 . S
H606 C620 0.960 . S
H607 C620 0.960 . S
C608 H600 0.929 . S
C608 C609 1.377 . S
C608 C610 1.384 . S
C609 C608 1.377 . S
C609 C615 1.390 1_554 S
C610 H601 0.930 . S
C610 C608 1.384 . S
C610 C611 1.372 . S
C611 C610 1.372 . S
C611 C612 1.400 1_554 S
C611 C616 1.490 . S
C612 H602 0.930 . S
C612 C611 1.400 1_556 S
C612 C615 1.386 . S
H613 C629 0.930 . S
H614 C630 0.931 . S
C615 H603 0.929 . S
C615 C609 1.390 1_556 S
C615 C612 1.386 . S
C616 C611 1.490 . S
C616 C618 1.395 . S
C616 C619 1.403 1_554 S
H617 C623 0.930 . S
C618 H604 0.930 . S
C618 C616 1.395 . S
C618 C621 1.403 . S
C619 C616 1.403 1_556 S
C619 C620 1.524 . S
C619 C623 1.400 . S
C620 H605 0.960 . S
C620 H606 0.960 . S
C620 H607 0.960 . S
C620 C619 1.524 . S
C621 C618 1.403 . S
C621 C622 1.392 . S
C621 C625 1.495 . S
C622 C621 1.392 . S
C622 C623 1.385 1_554 S
C622 C624 1.478 . S
C623 H617 0.930 . S
C623 C619 1.400 . S
C623 C622 1.385 1_556 S
C624 C622 1.478 . S
C624 C626 1.381 . S
C624 C630 1.383 1_554 S
C625 C621 1.495 . S
C625 H631 0.959 . S
C625 H632 0.961 . S
C625 H633 0.960 . S
C626 C624 1.381 . S
C626 C627 1.394 . S
C626 H634 0.930 . S
C627 C626 1.394 . S
C627 C628 1.383 . S
C627 H635 0.929 . S
C628 C627 1.383 . S
C628 C629 1.377 1_554 S
C629 H613 0.930 . S
C629 C628 1.377 1_556 S
C629 C630 1.379 . S
C630 H614 0.931 . S
C630 C624 1.383 1_556 S
C630 C629 1.379 . S
H631 C625 0.959 . S
H632 C625 0.961 . S
H633 C625 0.960 . S
H634 C626 0.930 . S
H635 C627 0.929 . S
H636 C644 0.929 . S
H637 C646 0.930 . S
H638 C648 0.930 . S
H639 C651 0.929 . S
H640 C654 0.930 . S
H641 C656 0.960 . S
H642 C656 0.960 . S
H643 C656 0.960 . S
C644 H636 0.929 . S
C644 C645 1.377 . S
C644 C646 1.384 . S
C645 C644 1.377 . S
C645 C651 1.390 1_554 S
C646 H637 0.930 . S
C646 C644 1.384 . S
C646 C647 1.372 . S
C647 C646 1.372 . S
C647 C648 1.400 1_554 S
C647 C652 1.490 . S
C648 H638 0.930 . S
C648 C647 1.400 1_556 S
C648 C651 1.386 . S
H649 C665 0.930 . S
H650 C666 0.931 . S
C651 H639 0.929 . S
C651 C645 1.390 1_556 S
C651 C648 1.386 . S
C652 C647 1.490 . S
C652 C654 1.395 1_554 S
C652 C655 1.403 . S
H653 C659 0.930 . S
C654 H640 0.930 . S
C654 C652 1.395 1_556 S
C654 C657 1.403 . S
C655 C652 1.403 . S
C655 C656 1.524 . S
C655 C659 1.400 . S
C656 H641 0.960 . S
C656 H642 0.960 . S
C656 H643 0.960 . S
C656 C655 1.524 . S
C657 C654 1.403 . S
C657 C658 1.392 1_556 S
C657 C661 1.495 . S
C658 C657 1.392 1_554 S
C658 C659 1.385 . S
C658 C660 1.478 . S
C659 H653 0.930 . S
C659 C655 1.400 . S
C659 C658 1.385 . S
C660 C658 1.478 . S
C660 C662 1.381 . S
C660 C666 1.383 1_554 S
C661 C657 1.495 . S
C661 H667 0.959 . S
C661 H668 0.961 . S
C661 H669 0.960 . S
C662 C660 1.381 . S
C662 C663 1.394 . S
C662 H670 0.930 . S
C663 C662 1.394 . S
C663 C664 1.383 . S
C663 H671 0.929 . S
C664 C663 1.383 . S
C664 C665 1.377 1_554 S
C665 H649 0.930 . S
C665 C664 1.377 1_556 S
C665 C666 1.379 . S
C666 H650 0.931 . S
C666 C660 1.383 1_556 S
C666 C665 1.379 . S
H667 C661 0.959 . S
H668 C661 0.961 . S
H669 C661 0.960 . S
H670 C662 0.930 . S
H671 C663 0.929 . S
H672 C680 0.929 . S
H673 C682 0.930 . S
H674 C684 0.930 . S
H675 C687 0.929 . S
H676 C690 0.930 . S
H677 C692 0.960 . S
H678 C692 0.960 . S
H679 C692 0.960 . S
C680 H672 0.929 . S
C680 C681 1.377 . S
C680 C682 1.384 . S
C681 C680 1.377 . S
C681 C687 1.390 . S
C682 H673 0.930 . S
C682 C680 1.384 . S
C682 C683 1.372 . S
C683 C682 1.372 . S
C683 C684 1.400 . S
C683 C688 1.490 . S
C684 H674 0.930 . S
C684 C683 1.400 . S
C684 C687 1.386 . S
H685 C701 0.930 . S
H686 C702 0.931 . S
C687 H675 0.929 . S
C687 C681 1.390 . S
C687 C684 1.386 . S
C688 C683 1.490 . S
C688 C690 1.395 . S
C688 C691 1.403 . S
H689 C695 0.930 . S
C690 H676 0.930 . S
C690 C688 1.395 . S
C690 C693 1.403 . S
C691 C688 1.403 . S
C691 C692 1.524 . S
C691 C695 1.400 . S
C692 H677 0.960 . S
C692 H678 0.960 . S
C692 H679 0.960 . S
C692 C691 1.524 . S
C693 C690 1.403 . S
C693 C694 1.392 . S
C693 C697 1.495 . S
C694 C693 1.392 . S
C694 C695 1.385 . S
C694 C696 1.478 . S
C695 H689 0.930 . S
C695 C691 1.400 . S
C695 C694 1.385 . S
C696 C694 1.478 . S
C696 C698 1.381 . S
C696 C702 1.383 . S
C697 C693 1.495 . S
C697 H703 0.959 . S
C697 H704 0.961 . S
C697 H705 0.960 . S
C698 C696 1.381 . S
C698 C699 1.394 . S
C698 H706 0.930 . S
C699 C698 1.394 . S
C699 C700 1.383 . S
C699 H707 0.929 . S
C700 C699 1.383 . S
C700 C701 1.377 . S
C701 H685 0.930 . S
C701 C700 1.377 . S
C701 C702 1.379 . S
C702 H686 0.931 . S
C702 C696 1.383 . S
C702 C701 1.379 . S
H703 C697 0.959 . S
H704 C697 0.961 . S
H705 C697 0.960 . S
H706 C698 0.930 . S
H707 C699 0.929 . S
H708 C716 0.929 . S
H709 C718 0.930 . S
H710 C720 0.930 . S
H711 C723 0.929 . S
H712 C726 0.930 . S
H713 C728 0.960 . S
H714 C728 0.960 . S
H715 C728 0.960 . S
C716 H708 0.929 . S
C716 C717 1.377 . S
C716 C718 1.384 . S
C717 C716 1.377 . S
C717 C723 1.390 . S
C718 H709 0.930 . S
C718 C716 1.384 . S
C718 C719 1.372 . S
C719 C718 1.372 . S
C719 C720 1.400 . S
C719 C724 1.490 . S
C720 H710 0.930 . S
C720 C719 1.400 . S
C720 C723 1.386 . S
H721 C737 0.930 . S
H722 C738 0.931 . S
C723 H711 0.929 . S
C723 C717 1.390 . S
C723 C720 1.386 . S
C724 C719 1.490 . S
C724 C726 1.395 . S
C724 C727 1.403 . S
H725 C731 0.930 . S
C726 H712 0.930 . S
C726 C724 1.395 . S
C726 C729 1.403 . S
C727 C724 1.403 . S
C727 C728 1.524 . S
C727 C731 1.400 . S
C728 H713 0.960 . S
C728 H714 0.960 . S
C728 H715 0.960 . S
C728 C727 1.524 . S
C729 C726 1.403 . S
C729 C730 1.392 . S
C729 C733 1.495 . S
C730 C729 1.392 . S
C730 C731 1.385 . S
C730 C732 1.478 . S
C731 H725 0.930 . S
C731 C727 1.400 . S
C731 C730 1.385 . S
C732 C730 1.478 . S
C732 C734 1.381 . S
C732 C738 1.383 . S
C733 C729 1.495 . S
C733 H739 0.959 . S
C733 H740 0.961 . S
C733 H741 0.960 . S
C734 C732 1.381 . S
C734 C735 1.394 . S
C734 H742 0.930 . S
C735 C734 1.394 . S
C735 C736 1.383 . S
C735 H743 0.929 . S
C736 C735 1.383 . S
C736 C737 1.377 . S
C737 H721 0.930 . S
C737 C736 1.377 . S
C737 C738 1.379 . S
C738 H722 0.931 . S
C738 C732 1.383 . S
C738 C737 1.379 . S
H739 C733 0.959 . S
H740 C733 0.961 . S
H741 C733 0.960 . S
H742 C734 0.930 . S
H743 C735 0.929 . S
H744 C752 0.929 . S
H745 C754 0.930 . S
H746 C756 0.930 . S
H747 C759 0.929 . S
H748 C762 0.930 . S
H749 C764 0.960 . S
H750 C764 0.960 . S
H751 C764 0.960 . S
C752 H744 0.929 . S
C752 C753 1.377 . S
C752 C754 1.384 . S
C753 C752 1.377 . S
C753 C759 1.390 . S
C754 H745 0.930 . S
C754 C752 1.384 . S
C754 C755 1.372 . S
C755 C754 1.372 . S
C755 C756 1.400 . S
C755 C760 1.490 . S
C756 H746 0.930 . S
C756 C755 1.400 . S
C756 C759 1.386 . S
H757 C773 0.930 . S
H758 C774 0.931 . S
C759 H747 0.929 . S
C759 C753 1.390 . S
C759 C756 1.386 . S
C760 C755 1.490 . S
C760 C762 1.395 . S
C760 C763 1.403 . S
H761 C767 0.930 . S
C762 H748 0.930 . S
C762 C760 1.395 . S
C762 C765 1.403 . S
C763 C760 1.403 . S
C763 C764 1.524 . S
C763 C767 1.400 . S
C764 H749 0.960 . S
C764 H750 0.960 . S
C764 H751 0.960 . S
C764 C763 1.524 . S
C765 C762 1.403 . S
C765 C766 1.392 . S
C765 C769 1.495 . S
C766 C765 1.392 . S
C766 C767 1.385 . S
C766 C768 1.478 . S
C767 H761 0.930 . S
C767 C763 1.400 . S
C767 C766 1.385 . S
C768 C766 1.478 . S
C768 C770 1.381 . S
C768 C774 1.383 . S
C769 C765 1.495 . S
C769 H775 0.959 . S
C769 H776 0.961 . S
C769 H777 0.960 . S
C770 C768 1.381 . S
C770 C771 1.394 . S
C770 H778 0.930 . S
C771 C770 1.394 . S
C771 C772 1.383 . S
C771 H779 0.929 . S
C772 C771 1.383 . S
C772 C773 1.377 . S
C773 H757 0.930 . S
C773 C772 1.377 . S
C773 C774 1.379 . S
C774 H758 0.931 . S
C774 C768 1.383 . S
C774 C773 1.379 . S
H775 C769 0.959 . S
H776 C769 0.961 . S
H777 C769 0.960 . S
H778 C770 0.930 . S
H779 C771 0.929 . S
H780 C788 0.929 . S
H781 C790 0.930 . S
H782 C792 0.930 . S
H783 C795 0.929 . S
H784 C798 0.930 . S
H785 C800 0.960 . S
H786 C800 0.960 . S
H787 C800 0.960 . S
C788 H780 0.929 . S
C788 C789 1.377 . S
C788 C790 1.384 . S
C789 C788 1.377 . S
C789 C795 1.390 . S
C790 H781 0.930 . S
C790 C788 1.384 . S
C790 C791 1.372 . S
C791 C790 1.372 . S
C791 C792 1.400 . S
C791 C796 1.490 . S
C792 H782 0.930 . S
C792 C791 1.400 . S
C792 C795 1.386 . S
H793 C809 0.930 . S
H794 C810 0.931 . S
C795 H783 0.929 . S
C795 C789 1.390 . S
C795 C792 1.386 . S
C796 C791 1.490 . S
C796 C798 1.395 . S
C796 C799 1.403 . S
H797 C803 0.930 . S
C798 H784 0.930 . S
C798 C796 1.395 . S
C798 C801 1.403 . S
C799 C796 1.403 . S
C799 C800 1.524 . S
C799 C803 1.400 . S
C800 H785 0.960 . S
C800 H786 0.960 . S
C800 H787 0.960 . S
C800 C799 1.524 . S
C801 C798 1.403 . S
C801 C802 1.392 . S
C801 C805 1.495 . S
C802 C801 1.392 . S
C802 C803 1.385 . S
C802 C804 1.478 . S
C803 H797 0.930 . S
C803 C799 1.400 . S
C803 C802 1.385 . S
C804 C802 1.478 . S
C804 C806 1.381 . S
C804 C810 1.383 . S
C805 C801 1.495 . S
C805 H811 0.959 . S
C805 H812 0.961 . S
C805 H813 0.960 . S
C806 C804 1.381 . S
C806 C807 1.394 . S
C806 H814 0.930 . S
C807 C806 1.394 . S
C807 C808 1.383 . S
C807 H815 0.929 . S
C808 C807 1.383 . S
C808 C809 1.377 . S
C809 H793 0.930 . S
C809 C808 1.377 . S
C809 C810 1.379 . S
C810 H794 0.931 . S
C810 C804 1.383 . S
C810 C809 1.379 . S
H811 C805 0.959 . S
H812 C805 0.961 . S
H813 C805 0.960 . S
H814 C806 0.930 . S
H815 C807 0.929 . S
H816 C824 0.929 . S
H817 C826 0.930 . S
H818 C828 0.930 . S
H819 C831 0.929 . S
H820 C834 0.930 . S
H821 C836 0.960 . S
H822 C836 0.960 . S
H823 C836 0.960 . S
C824 H816 0.929 . S
C824 C825 1.377 . S
C824 C826 1.384 . S
C825 C824 1.377 . S
C825 C831 1.390 . S
C826 H817 0.930 . S
C826 C824 1.384 . S
C826 C827 1.372 . S
C827 C826 1.372 . S
C827 C828 1.400 . S
C827 C832 1.490 . S
C828 H818 0.930 . S
C828 C827 1.400 . S
C828 C831 1.386 . S
H829 C845 0.930 . S
H830 C846 0.931 . S
C831 H819 0.929 . S
C831 C825 1.390 . S
C831 C828 1.386 . S
C832 C827 1.490 . S
C832 C834 1.395 . S
C832 C835 1.403 . S
H833 C839 0.930 . S
C834 H820 0.930 . S
C834 C832 1.395 . S
C834 C837 1.403 . S
C835 C832 1.403 . S
C835 C836 1.524 . S
C835 C839 1.400 . S
C836 H821 0.960 . S
C836 H822 0.960 . S
C836 H823 0.960 . S
C836 C835 1.524 . S
C837 C834 1.403 . S
C837 C838 1.392 . S
C837 C841 1.495 . S
C838 C837 1.392 . S
C838 C839 1.385 . S
C838 C840 1.478 . S
C839 H833 0.930 . S
C839 C835 1.400 . S
C839 C838 1.385 . S
C840 C838 1.478 . S
C840 C842 1.381 . S
C840 C846 1.383 . S
C841 C837 1.495 . S
C841 H847 0.959 . S
C841 H848 0.961 . S
C841 H849 0.960 . S
C842 C840 1.381 . S
C842 C843 1.394 . S
C842 H850 0.930 . S
C843 C842 1.394 . S
C843 C844 1.383 . S
C843 H851 0.929 . S
C844 C843 1.383 . S
C844 C845 1.377 . S
C845 H829 0.930 . S
C845 C844 1.377 . S
C845 C846 1.379 . S
C846 H830 0.931 . S
C846 C840 1.383 . S
C846 C845 1.379 . S
H847 C841 0.959 . S
H848 C841 0.961 . S
H849 C841 0.960 . S
H850 C842 0.930 . S
H851 C843 0.929 . S
H852 C860 0.929 . S
H853 C862 0.930 . S
H854 C864 0.930 . S
H855 C867 0.929 . S
H856 C870 0.930 . S
H857 C872 0.960 . S
H858 C872 0.960 . S
H859 C872 0.960 . S
C860 H852 0.929 . S
C860 C861 1.377 . S
C860 C862 1.384 . S
C861 C860 1.377 . S
C861 C867 1.390 . S
C862 H853 0.930 . S
C862 C860 1.384 . S
C862 C863 1.372 . S
C863 C862 1.372 . S
C863 C864 1.400 . S
C863 C868 1.490 . S
C864 H854 0.930 . S
C864 C863 1.400 . S
C864 C867 1.386 . S
H865 C881 0.930 . S
H866 C882 0.931 . S
C867 H855 0.929 . S
C867 C861 1.390 . S
C867 C864 1.386 . S
C868 C863 1.490 . S
C868 C870 1.395 . S
C868 C871 1.403 . S
H869 C875 0.930 . S
C870 H856 0.930 . S
C870 C868 1.395 . S
C870 C873 1.403 . S
C871 C868 1.403 . S
C871 C872 1.524 . S
C871 C875 1.400 . S
C872 H857 0.960 . S
C872 H858 0.960 . S
C872 H859 0.960 . S
C872 C871 1.524 . S
C873 C870 1.403 . S
C873 C874 1.392 . S
C873 C877 1.495 . S
C874 C873 1.392 . S
C874 C875 1.385 . S
C874 C876 1.478 . S
C875 H869 0.930 . S
C875 C871 1.400 . S
C875 C874 1.385 . S
C876 C874 1.478 . S
C876 C878 1.381 . S
C876 C882 1.383 . S
C877 C873 1.495 . S
C877 H883 0.959 . S
C877 H884 0.961 . S
C877 H885 0.960 . S
C878 C876 1.381 . S
C878 C879 1.394 . S
C878 H886 0.930 . S
C879 C878 1.394 . S
C879 C880 1.383 . S
C879 H887 0.929 . S
C880 C879 1.383 . S
C880 C881 1.377 . S
C881 H865 0.930 . S
C881 C880 1.377 . S
C881 C882 1.379 . S
C882 H866 0.931 . S
C882 C876 1.383 . S
C882 C881 1.379 . S
H883 C877 0.959 . S
H884 C877 0.961 . S
H885 C877 0.960 . S
H886 C878 0.930 . S
H887 C879 0.929 . S
C249 C219 1.616 1_556 S
C268 C15 1.528 . S
C285 C19 1.616 1_556 S
C304 C55 1.527 . S
C321 C59 1.617 . S
C340 C95 1.453 . S
C357 C135 1.491 . S
C376 C99 1.632 1_556 S
C393 C175 1.485 . S
C412 C139 1.628 . S
C429 C179 1.612 1_556 S
C448 C215 1.520 . S
C465 C170 2.025 . S
C484 C6 2.030 . S
C501 C210 2.025 1_554 S
C520 C46 2.028 . S
C537 C86 2.028 . S
C556 C10 2.015 . S
C573 C126 2.027 . S
C592 C50 2.029 1_554 S
C609 C166 2.027 . S
C628 C90 2.029 1_554 S
C645 C130 2.027 1_554 S
C664 C206 2.017 . S
C681 C9 1.437 . S
C700 C18 1.446 . S
C717 C49 1.436 . S
C736 C58 1.427 . S
C753 C89 1.446 . S
C772 C98 1.467 . S
C789 C129 1.436 . S
C808 C138 1.414 . S
C825 C178 1.442 . S
C844 C169 1.414 . S
C861 C209 1.436 . S
C880 C218 1.415 . S
