# Generated by pormake.
# Topology ukl, (4)-cn, num edge types: 1
# Building blocks:
#     Node 0, Type 0, BuildingBlock: MUDLON_clean_sbu_0, # of connection points: 4
#     Node 1, Type 0, BuildingBlock: MUDLON_clean_sbu_0, # of connection points: 4
#     Node 2, Type 0, BuildingBlock: MUDLON_clean_sbu_0, # of connection points: 4
#     Node 3, Type 0, BuildingBlock: MUDLON_clean_sbu_0, # of connection points: 4
#     Node 4, Type 0, BuildingBlock: MUDLON_clean_sbu_0, # of connection points: 4
#     Node 5, Type 0, BuildingBlock: MUDLON_clean_sbu_0, # of connection points: 4
#     Node 6, Type 0, BuildingBlock: MUDLON_clean_sbu_0, # of connection points: 4
#     Node 7, Type 0, BuildingBlock: MUDLON_clean_sbu_0, # of connection points: 4
#     Node 8, Type 0, BuildingBlock: MUDLON_clean_sbu_0, # of connection points: 4
#     Node 9, Type 0, BuildingBlock: MUDLON_clean_sbu_0, # of connection points: 4
#     Node 10, Type 0, BuildingBlock: MUDLON_clean_sbu_0, # of connection points: 4
#     Node 11, Type 0, BuildingBlock: MUDLON_clean_sbu_0, # of connection points: 4
#     Node 12, Type 0, BuildingBlock: MUDLON_clean_sbu_0, # of connection points: 4
#     Node 13, Type 0, BuildingBlock: MUDLON_clean_sbu_0, # of connection points: 4
#     Node 14, Type 0, BuildingBlock: MUDLON_clean_sbu_0, # of connection points: 4
#     Node 15, Type 0, BuildingBlock: MUDLON_clean_sbu_0, # of connection points: 4
#     Edge 16, Type (0, 0), BuildingBlock: ZUJKAS_clean_linker_0, # of connection points: 2
#     Edge 17, Type (0, 0), BuildingBlock: ZUJKAS_clean_linker_0, # of connection points: 2
#     Edge 18, Type (0, 0), BuildingBlock: ZUJKAS_clean_linker_0, # of connection points: 2
#     Edge 19, Type (0, 0), BuildingBlock: ZUJKAS_clean_linker_0, # of connection points: 2
#     Edge 20, Type (0, 0), BuildingBlock: ZUJKAS_clean_linker_0, # of connection points: 2
#     Edge 21, Type (0, 0), BuildingBlock: ZUJKAS_clean_linker_0, # of connection points: 2
#     Edge 22, Type (0, 0), BuildingBlock: ZUJKAS_clean_linker_0, # of connection points: 2
#     Edge 23, Type (0, 0), BuildingBlock: ZUJKAS_clean_linker_0, # of connection points: 2
#     Edge 24, Type (0, 0), BuildingBlock: ZUJKAS_clean_linker_0, # of connection points: 2
#     Edge 25, Type (0, 0), BuildingBlock: ZUJKAS_clean_linker_0, # of connection points: 2
#     Edge 26, Type (0, 0), BuildingBlock: ZUJKAS_clean_linker_0, # of connection points: 2
#     Edge 27, Type (0, 0), BuildingBlock: ZUJKAS_clean_linker_0, # of connection points: 2
#     Edge 28, Type (0, 0), BuildingBlock: ZUJKAS_clean_linker_0, # of connection points: 2
#     Edge 29, Type (0, 0), BuildingBlock: ZUJKAS_clean_linker_0, # of connection points: 2
#     Edge 30, Type (0, 0), BuildingBlock: ZUJKAS_clean_linker_0, # of connection points: 2
#     Edge 31, Type (0, 0), BuildingBlock: ZUJKAS_clean_linker_0, # of connection points: 2
#     Edge 32, Type (0, 0), BuildingBlock: ZUJKAS_clean_linker_0, # of connection points: 2
#     Edge 33, Type (0, 0), BuildingBlock: ZUJKAS_clean_linker_0, # of connection points: 2
#     Edge 34, Type (0, 0), BuildingBlock: ZUJKAS_clean_linker_0, # of connection points: 2
#     Edge 35, Type (0, 0), BuildingBlock: ZUJKAS_clean_linker_0, # of connection points: 2
#     Edge 36, Type (0, 0), BuildingBlock: ZUJKAS_clean_linker_0, # of connection points: 2
#     Edge 37, Type (0, 0), BuildingBlock: ZUJKAS_clean_linker_0, # of connection points: 2
#     Edge 38, Type (0, 0), BuildingBlock: ZUJKAS_clean_linker_0, # of connection points: 2
#     Edge 39, Type (0, 0), BuildingBlock: ZUJKAS_clean_linker_0, # of connection points: 2
#     Edge 40, Type (0, 0), BuildingBlock: ZUJKAS_clean_linker_0, # of connection points: 2
#     Edge 41, Type (0, 0), BuildingBlock: ZUJKAS_clean_linker_0, # of connection points: 2
#     Edge 42, Type (0, 0), BuildingBlock: ZUJKAS_clean_linker_0, # of connection points: 2
#     Edge 43, Type (0, 0), BuildingBlock: ZUJKAS_clean_linker_0, # of connection points: 2
#     Edge 44, Type (0, 0), BuildingBlock: ZUJKAS_clean_linker_0, # of connection points: 2
#     Edge 45, Type (0, 0), BuildingBlock: ZUJKAS_clean_linker_0, # of connection points: 2
#     Edge 46, Type (0, 0), BuildingBlock: ZUJKAS_clean_linker_0, # of connection points: 2
#     Edge 47, Type (0, 0), BuildingBlock: ZUJKAS_clean_linker_0, # of connection points: 2
# Relax obj value: 0.113
# Max RMSD: 0.134
# Mean RMSD: 0.134
data_MOF--net-ukl--node1-MUDLON_clean_sbu_0--edge1-ZUJKAS_clean_linker_0
_symmetry_space_group_name_H-M    P1
_symmetry_Int_Tables_number       1
_symmetry_cell_setting            triclinic
loop_
_symmetry_equiv_pos_as_xyz
'x, y, z'
_cell_length_a     42.1908
_cell_length_b     42.215658
_cell_length_c     11.070082
_cell_angle_alpha  90.106945
_cell_angle_beta   89.964277
_cell_angle_gamma 90.390949
loop_
_atom_site_label
_atom_site_type_symbol
_atom_site_fract_x
_atom_site_fract_y
_atom_site_fract_z
_atom_type_partial_charge
Mg0 Mg 0.33002 0.17391 0.12108 0.0
C1 C 0.36329 0.18078 0.37786 0.0
O2 O 0.36381 0.17379 0.49343 0.0
C3 C 0.26724 0.14118 0.18624 0.0
O4 O 0.27563 0.15317 0.29083 0.0
C5 C 0.37412 0.12014 0.07822 0.0
O6 O 0.35846 0.11295 0.17706 0.0
O7 O 0.36668 0.1456 0.02327 0.0
O8 O 0.34156 0.1685 0.31247 0.0
O9 O 0.32775 0.22719 0.0933 0.0
C10 C 0.32344 0.24587 0.18359 0.0
O11 O 0.32072 0.23332 0.2914 0.0
O12 O 0.28474 0.14686 0.09462 0.0
Mg13 Mg 0.61414 0.55611 0.34459 0.0
C14 C 0.5538 0.52168 0.30261 0.0
O15 O 0.56963 0.50286 0.3747 0.0
C16 C 0.64536 0.61654 0.26009 0.0
O17 O 0.61626 0.62667 0.27516 0.0
C18 C 0.65318 0.49613 0.30251 0.0
O19 O 0.65549 0.50925 0.19529 0.0
O20 O 0.63685 0.51017 0.38324 0.0
O21 O 0.56757 0.54653 0.26257 0.0
O22 O 0.60322 0.58917 0.49126 0.0
C23 C 0.57496 0.59862 0.50814 0.0
O24 O 0.55153 0.58253 0.45927 0.0
O25 O 0.65056 0.58685 0.2641 0.0
Mg26 Mg 0.20193 0.82664 0.56281 0.0
C27 C 0.18302 0.82444 0.84013 0.0
O28 O 0.19084 0.82937 0.95349 0.0
C29 C 0.24593 0.87447 0.41937 0.0
O30 O 0.21997 0.88666 0.37415 0.0
C31 C 0.15728 0.87925 0.58035 0.0
O32 O 0.17998 0.88649 0.65698 0.0
O33 O 0.16004 0.85424 0.51662 0.0
O34 O 0.20393 0.83005 0.7595 0.0
O35 O 0.20272 0.77494 0.52302 0.0
C36 C 0.20927 0.75555 0.60789 0.0
O37 O 0.21479 0.76663 0.7167 0.0
O38 O 0.24399 0.85088 0.49118 0.0
Mg39 Mg 0.91114 0.45273 0.86451 0.0
C40 C 0.98455 0.45314 0.82206 0.0
O41 O 0.98222 0.42704 0.88562 0.0
C42 C 0.84747 0.41967 0.72862 0.0
O43 O 0.84455 0.43878 0.63581 0.0
C44 C 0.86423 0.5037 0.88728 0.0
O45 O 0.8586 0.49079 0.78157 0.0
O46 O 0.88761 0.49357 0.94862 0.0
O47 O 0.95902 0.4674 0.79109 0.0
O48 O 0.92295 0.41243 0.97361 0.0
C49 C 0.92428 0.38793 0.90625 0.0
O50 O 0.92271 0.39155 0.78849 0.0
O51 O 0.86991 0.42392 0.80358 0.0
Mg52 Mg 0.68871 0.86696 0.83406 0.0
C53 C 0.70045 0.7943 0.81741 0.0
O54 O 0.69241 0.79879 0.70417 0.0
C55 C 0.6382 0.91353 0.83584 0.0
O56 O 0.66022 0.92416 0.7622 0.0
C57 C 0.75468 0.89253 0.90782 0.0
O58 O 0.76024 0.86249 0.92955 0.0
O59 O 0.72708 0.90064 0.87415 0.0
O60 O 0.70076 0.81785 0.89026 0.0
O61 O 0.6864 0.87023 0.63887 0.0
C62 C 0.6625 0.86877 0.56895 0.0
O63 O 0.66653 0.87572 0.45433 0.0
O64 O 0.6436 0.88795 0.89315 0.0
Mg65 Mg 0.42614 0.44188 0.65413 0.0
C66 C 0.50195 0.45587 0.66473 0.0
O67 O 0.50572 0.42626 0.63179 0.0
C68 C 0.37803 0.39107 0.67525 0.0
O69 O 0.36955 0.40886 0.58375 0.0
C70 C 0.36262 0.47665 0.7228 0.0
O71 O 0.35378 0.45022 0.77534 0.0
O72 O 0.39027 0.47915 0.67665 0.0
O73 O 0.47384 0.46581 0.68608 0.0
O74 O 0.42304 0.43245 0.46236 0.0
C75 C 0.43457 0.40999 0.40007 0.0
O76 O 0.42734 0.40796 0.28504 0.0
O77 O 0.40374 0.39816 0.73127 0.0
Mg78 Mg 0.84775 0.14149 0.38346 0.0
C79 C 0.82336 0.20659 0.36079 0.0
O80 O 0.8182 0.19321 0.25548 0.0
C81 C 0.89013 0.08835 0.42144 0.0
O82 O 0.86615 0.07755 0.35777 0.0
C83 C 0.77843 0.11647 0.36566 0.0
O84 O 0.77283 0.14571 0.33196 0.0
O85 O 0.8066 0.10885 0.3945 0.0
O86 O 0.83608 0.18999 0.44362 0.0
O87 O 0.85955 0.1458 0.19338 0.0
C88 C 0.8791 0.16511 0.14521 0.0
O89 O 0.88195 0.16539 0.02712 0.0
O90 O 0.88915 0.117 0.45787 0.0
Mg91 Mg 0.09573 0.5871 0.13272 0.0
C92 C 0.03666 0.55145 0.13106 0.0
O93 O 0.04931 0.54763 0.02388 0.0
C94 C 0.1328 0.64903 0.12377 0.0
O95 O 0.12948 0.64283 0.00876 0.0
C96 C 0.12765 0.51883 0.10042 0.0
O97 O 0.09851 0.51001 0.07537 0.0
O98 O 0.13275 0.5477 0.13081 0.0
O99 O 0.0512 0.56866 0.20843 0.0
O100 O 0.07744 0.6002 0.95267 0.0
C101 C 0.06564 0.62566 0.91146 0.0
O102 O 0.05836 0.62687 0.79619 0.0
O103 O 0.11988 0.63063 0.20158 0.0
Mg104 Mg 0.84059 0.70341 0.66144 0.0
C105 C 0.86964 0.72775 0.91463 0.0
O106 O 0.8673 0.72708 0.03294 0.0
C107 C 0.78979 0.65076 0.62 0.0
O108 O 0.81552 0.6344 0.5977 0.0
C109 C 0.8971 0.65676 0.66883 0.0
O110 O 0.89677 0.66545 0.78269 0.0
O111 O 0.87804 0.67008 0.59483 0.0
O112 O 0.84928 0.71203 0.85385 0.0
O113 O 0.83737 0.75279 0.59658 0.0
C114 C 0.81763 0.76829 0.66064 0.0
O115 O 0.8022 0.75307 0.7461 0.0
O116 O 0.79272 0.68024 0.6439 0.0
Mg117 Mg 0.11658 0.08261 0.86943 0.0
C118 C 0.04341 0.07891 0.87677 0.0
O119 O 0.04758 0.10058 0.96065 0.0
C120 C 0.13467 0.14941 0.78599 0.0
O121 O 0.10599 0.15565 0.82533 0.0
C122 C 0.17458 0.03911 0.86729 0.0
O123 O 0.18906 0.06597 0.84225 0.0
O124 O 0.14473 0.0392 0.88409 0.0
O125 O 0.0675 0.06925 0.81718 0.0
O126 O 0.11115 0.10534 0.04172 0.0
C127 C 0.13011 0.12697 0.07725 0.0
O128 O 0.15805 0.12969 0.02583 0.0
O129 O 0.14302 0.12049 0.77564 0.0
Mg130 Mg 0.68578 0.35028 0.05388 0.0
C131 C 0.64535 0.36762 0.27741 0.0
O132 O 0.64068 0.38097 0.38296 0.0
C133 C 0.75253 0.36876 0.0723 0.0
O134 O 0.74932 0.34257 0.13474 0.0
C135 C 0.64388 0.39906 0.97996 0.0
O136 O 0.66929 0.41222 0.02741 0.0
O137 O 0.64446 0.36934 0.95918 0.0
O138 O 0.6734 0.36526 0.23584 0.0
O139 O 0.7009 0.29977 0.05219 0.0
C140 C 0.68524 0.274 0.04051 0.0
O141 O 0.65455 0.27521 0.02199 0.0
O142 O 0.72835 0.37895 0.01658 0.0
Mg143 Mg 0.42149 0.92796 0.379 0.0
C144 C 0.48954 0.94789 0.33344 0.0
O145 O 0.47373 0.96036 0.24362 0.0
C146 C 0.3858 0.86647 0.32786 0.0
O147 O 0.38187 0.88377 0.23094 0.0
C148 C 0.36209 0.01846 0.4158 0.0
O149 O 0.36858 0.02401 0.30157 0.0
O150 O 0.37319 0.99338 0.46789 0.0
O151 O 0.47405 0.93254 0.41434 0.0
O152 O 0.42804 0.92234 0.17784 0.0
C153 C 0.44287 0.90101 0.11805 0.0
O154 O 0.44254 0.90201 -0.00042 0.0
O155 O 0.40161 0.87861 0.41555 0.0
Mg156 Mg 0.17294 0.3606 0.38254 0.0
C157 C 0.18939 0.29195 0.36469 0.0
O158 O 0.19785 0.30403 0.26052 0.0
C159 C 0.12803 0.41467 0.38106 0.0
O160 O 0.14627 0.41905 0.28619 0.0
C161 C 0.22952 0.41324 0.37626 0.0
O162 O 0.22429 0.38273 0.37905 0.0
O163 O 0.22302 0.38343 0.37907 0.0
O164 O 0.17703 0.31045 0.44306 0.0
O165 O 0.15596 0.35628 0.19951 0.0
C166 C 0.12756 0.34863 0.17328 0.0
O167 O 0.11836 0.34988 0.06013 0.0
O168 O 0.1345 0.39166 0.4518 0.0
Mg169 Mg 0.91421 0.93236 0.1501 0.0
C170 C 0.97592 0.96357 0.14656 0.0
O171 O 0.95815 0.97639 0.06268 0.0
C172 C 0.87659 0.86906 0.13317 0.0
O173 O 0.88932 0.8699 0.02496 0.0
C174 C 0.85606 0.97794 0.15902 0.0
O175 O 0.84128 0.95177 0.19105 0.0
O176 O 0.88591 0.97693 0.13966 0.0
O177 O 0.96293 0.9431 0.21614 0.0
O178 O 0.92976 0.9209 0.96941 0.0
C179 C 0.95332 0.90456 0.93367 0.0
O180 O 0.9593 0.90368 0.8172 0.0
O181 O 0.88344 0.89129 0.20815 0.0
Mg182 Mg 0.33775 0.66438 0.81085 0.0
C183 C 0.32123 0.73362 0.7814 0.0
O184 O 0.31619 0.72153 0.67395 0.0
C185 C 0.3882 0.61547 0.82027 0.0
O186 O 0.3813 0.61664 0.70495 0.0
C187 C 0.29231 0.60781 0.86019 0.0
O188 O 0.31814 0.59368 0.89745 0.0
O189 O 0.29365 0.63695 0.82946 0.0
O190 O 0.33173 0.71529 0.86387 0.0
O191 O 0.34516 0.66277 0.61649 0.0
C192 C 0.36377 0.67839 0.54828 0.0
O193 O 0.36378 0.67214 0.43206 0.0
O194 O 0.37469 0.63466 0.89274 0.0
Mg195 Mg 0.59848 0.09612 0.59421 0.0
C196 C 0.52971 0.07371 0.51843 0.0
O197 O 0.53698 0.08932 0.41969 0.0
C198 C 0.63997 0.15229 0.6139 0.0
O199 O 0.65294 0.13377 0.53248 0.0
C200 C 0.66232 0.06196 0.68316 0.0
O201 O 0.67436 0.09017 0.70443 0.0
O202 O 0.63327 0.05937 0.65101 0.0
O203 O 0.54901 0.07476 0.60815 0.0
O204 O 0.60628 0.10004 0.39963 0.0
C205 C 0.60434 0.12341 0.32772 0.0
O206 O 0.6128 0.11919 0.21461 0.0
O207 O 0.61438 0.14285 0.66477 0.0
H208 H 0.61736 0.96003 0.68908 0.0
H209 H 0.57139 0.9937 0.71306 0.0
H210 H 0.54156 0.93818 0.01937 0.0
H211 H 0.58912 0.90546 0.0 0.0
H212 H 0.4923 0.95611 0.9074 0.0
H213 H 0.56634 0.06436 0.94335 0.0
H214 H 0.57321 0.04397 0.80395 0.0
H215 H 0.58302 0.0252 0.94493 0.0
C216 C 0.60162 0.95564 0.76416 0.0
C217 C 0.60797 0.93123 0.84665 0.0
C218 C 0.57509 0.97489 0.77743 0.0
C219 C 0.55391 0.97023 0.87354 0.0
C220 C 0.55846 0.94376 0.94909 0.0
H221 H 0.40271 0.07427 0.20962 0.0
H222 H 0.44544 0.039 0.15086 0.0
C223 C 0.58552 0.92475 0.93721 0.0
C224 C 0.52748 0.99313 0.89505 0.0
H225 H 0.51094 0.07223 0.92466 0.0
C226 C 0.49652 0.98146 0.91114 0.0
C227 C 0.53273 0.02641 0.90207 0.0
C228 C 0.56564 0.04072 0.89907 0.0
C229 C 0.47095 1.0019 0.93361 0.0
C230 C 0.47604 0.03509 0.93689 0.0
C231 C 0.50684 0.04687 0.91916 0.0
C232 C 0.45025 0.05758 0.97047 0.0
C233 C 0.43873 0.98773 0.95735 0.0
C234 C 0.43938 0.08088 0.88985 0.0
C235 C 0.4148 0.1016 0.92369 0.0
C236 C 0.40071 0.09931 0.0388 0.0
C237 C 0.41233 0.07638 0.11942 0.0
C238 C 0.4368 0.05601 0.08601 0.0
H239 H 0.43707 0.96277 0.9266 0.0
H240 H 0.43454 0.98787 0.05572 0.0
H241 H 0.41978 1.00181 0.91383 0.0
H242 H 0.44965 0.08281 0.80043 0.0
H243 H 0.40662 0.11907 0.85958 0.0
H244 H 0.86329 0.81618 -0.00168 0.0
H245 H 0.8259 0.77339 0.04243 0.0
H246 H 0.80152 0.81816 0.37849 0.0
H247 H 0.83826 0.86219 0.3325 0.0
H248 H 0.82507 0.72987 0.21996 0.0
H249 H 0.71639 0.80159 0.24832 0.0
H250 H 0.75406 0.81919 0.21073 0.0
H251 H 0.74398 0.81054 0.36644 0.0
C252 C 0.85026 0.81697 0.08259 0.0
C253 C 0.8544 0.84247 0.16373 0.0
C254 C 0.82903 0.79216 0.10816 0.0
C255 C 0.81142 0.79189 0.21585 0.0
C256 C 0.81524 0.81747 0.29627 0.0
H257 H 0.70603 0.60963 0.3457 0.0
H258 H 0.74742 0.65 0.35901 0.0
C259 C 0.83635 0.84252 0.27035 0.0
C260 C 0.78893 0.76501 0.24197 0.0
H261 H 0.71166 0.74804 0.30644 0.0
C262 C 0.80007 0.73371 0.23655 0.0
C263 C 0.75641 0.76976 0.26637 0.0
C264 C 0.74199 0.80219 0.27196 0.0
C265 C 0.77943 0.70727 0.24594 0.0
C266 C 0.74645 0.71215 0.26725 0.0
C267 C 0.73623 0.74358 0.28377 0.0
C268 C 0.7213 0.68638 0.26353 0.0
C269 C 0.79354 0.67497 0.22529 0.0
C270 C 0.69135 0.69297 0.21262 0.0
C271 C 0.6668 0.67052 0.21351 0.0
C272 C 0.67189 0.63988 0.25761 0.0
C273 C 0.7017 0.63275 0.307 0.0
C274 C 0.72573 0.65595 0.31303 0.0
H275 H 0.81594 0.6764 0.17265 0.0
H276 H 0.79928 0.66418 0.31388 0.0
H277 H 0.77703 0.65911 0.17606 0.0
H278 H 0.68668 0.71562 0.17074 0.0
H279 H 0.64407 0.67686 0.17541 0.0
H280 H 0.10688 0.87422 0.42432 0.0
H281 H 0.06147 0.90957 0.40938 0.0
H282 H 0.09704 0.96437 0.71011 0.0
H283 H 0.14275 0.92972 0.72318 0.0
H284 H 0.01502 0.92676 0.55169 0.0
H285 H 0.10515 0.99634 0.47435 0.0
H286 H 0.0958 0.0133 0.61932 0.0
H287 H 0.08834 0.03544 0.48592 0.0
C288 C 0.10519 0.89402 0.4863 0.0
C289 C 0.12895 0.89969 0.57253 0.0
C290 C 0.07916 0.91427 0.47795 0.0
C291 C 0.07655 0.94085 0.5544 0.0
C292 C 0.09931 0.94531 0.64528 0.0
H293 H 0.94441 0.10035 0.55411 0.0
H294 H 0.98984 0.06555 0.58015 0.0
C295 C 0.12537 0.92519 0.65338 0.0
C296 C 0.05004 0.96368 0.53829 0.0
H297 H 0.03324 0.04139 0.48345 0.0
C298 C 0.01899 0.95183 0.53569 0.0
C299 C 0.05513 0.99659 0.52057 0.0
C300 C 0.08788 0.0112 0.52414 0.0
C301 C 0.99289 0.97161 0.51547 0.0
C302 C 0.99786 1.00446 0.49225 0.0
C303 C 0.02909 0.01632 0.49696 0.0
C304 C 0.97107 0.02708 0.46987 0.0
C305 C 0.96042 0.95691 0.52939 0.0
C306 C 0.9457 0.0185 0.39444 0.0
C307 C 0.91932 0.03798 0.38303 0.0
C308 C 0.91816 0.06774 0.44019 0.0
C309 C 0.94426 0.07744 0.50997 0.0
C310 C 0.9704 0.05737 0.52447 0.0
H311 H 0.96121 0.93646 0.59215 0.0
H312 H 0.94285 0.97407 0.5641 0.0
H313 H 0.95212 0.94763 0.44131 0.0
H314 H 0.94585 0.99642 0.34516 0.0
H315 H 0.89978 0.02946 0.32893 0.0
H316 H 0.61843 0.2023 0.75415 0.0
H317 H 0.64739 0.25087 0.80658 0.0
H318 H 0.72655 0.22012 0.58994 0.0
H319 H 0.69805 0.17202 0.53854 0.0
H320 H 0.7485 0.23581 0.7892 0.0
H321 H 0.66657 0.33302 0.6734 0.0
H322 H 0.65132 0.30696 0.78736 0.0
H323 H 0.65749 0.29249 0.63595 0.0
C324 C 0.64198 0.20602 0.71768 0.0
C325 C 0.65603 0.18287 0.64402 0.0
C326 C 0.65855 0.23411 0.74668 0.0
C327 C 0.68972 0.23939 0.70448 0.0
C328 C 0.70296 0.2167 0.62669 0.0
H329 H 0.78835 0.41373 0.63393 0.0
H330 H 0.75089 0.37062 0.65565 0.0
C331 C 0.68646 0.18899 0.59701 0.0
C332 C 0.71001 0.2668 0.74589 0.0
H333 H 0.71409 0.34727 0.77082 0.0
C334 C 0.74125 0.26034 0.78211 0.0
C335 C 0.70018 0.2988 0.7442 0.0
C336 C 0.66714 0.30828 0.70741 0.0
C337 C 0.7637 0.28443 0.80546 0.0
C338 C 0.75468 0.31682 0.79387 0.0
C339 C 0.72226 0.323 0.77175 0.0
C340 C 0.77809 0.34437 0.78816 0.0
C341 C 0.79687 0.27388 0.83698 0.0
C342 C 0.80616 0.34611 0.85746 0.0
C343 C 0.82885 0.37017 0.8377 0.0
C344 C 0.82351 0.39419 0.75215 0.0
C345 C 0.79432 0.39434 0.69258 0.0
C346 C 0.77234 0.36973 0.70837 0.0
H347 H 0.80078 0.24852 0.81512 0.0
H348 H 0.8152 0.28767 0.7879 0.0
H349 H 0.80057 0.27665 0.9357 0.0
H350 H 0.8107 0.3294 0.9288 0.0
H351 H 0.85045 0.37007 0.89054 0.0
H352 H 0.19924 0.14359 0.791 0.0
H353 H 0.23909 0.18547 0.79534 0.0
H354 H 0.16565 0.25607 0.78882 0.0
H355 H 0.12537 0.21388 0.78311 0.0
H356 H 0.20834 0.27483 0.64251 0.0
H357 H 0.27657 0.20857 0.95532 0.0
H358 H 0.23632 0.21785 -0.00064 0.0
H359 H 0.26823 0.2419 0.05104 0.0
C360 C 0.19145 0.16798 0.7896 0.0
C361 C 0.15901 0.17523 0.78361 0.0
C362 C 0.21438 0.19211 0.79378 0.0
C363 C 0.20571 0.22429 0.79281 0.0
C364 C 0.17322 0.23161 0.78926 0.0
H365 H 0.31582 0.39875 0.72071 0.0
H366 H 0.27533 0.35828 0.75304 0.0
C367 C 0.15016 0.20739 0.78532 0.0
C368 C 0.23078 0.24977 0.78799 0.0
H369 H 0.30456 0.2677 0.89355 0.0
C370 C 0.22912 0.27347 0.69897 0.0
C371 C 0.25784 0.24916 0.86324 0.0
C372 C 0.25959 0.22802 0.97273 0.0
C373 C 0.25433 0.29493 0.67839 0.0
C374 C 0.28171 0.2939 0.75243 0.0
C375 C 0.28337 0.27002 0.84053 0.0
C376 C 0.30758 0.31859 0.74403 0.0
C377 C 0.25198 0.31712 0.57202 0.0
C378 C 0.33996 0.31046 0.73792 0.0
C379 C 0.3636 0.33406 0.72433 0.0
C380 C 0.35524 0.36618 0.71592 0.0
C381 C 0.32309 0.37425 0.72711 0.0
C382 C 0.29975 0.35095 0.74321 0.0
H383 H 0.23675 0.33749 0.59639 0.0
H384 H 0.27538 0.32597 0.54061 0.0
H385 H 0.24095 0.30484 0.49448 0.0
H386 H 0.3469 0.28582 0.73986 0.0
H387 H 0.38811 0.32708 0.71405 0.0
H388 H 0.3674 0.82967 0.52875 0.0
H389 H 0.32378 0.79023 0.52802 0.0
H390 H 0.31886 0.79516 0.14286 0.0
H391 H 0.36227 0.83358 0.13984 0.0
H392 H 0.2589 0.81431 0.29902 0.0
H393 H 0.31387 0.69581 0.31577 0.0
H394 H 0.32079 0.72128 0.44372 0.0
H395 H 0.33686 0.73158 0.29802 0.0
C396 C 0.35749 0.82188 0.44346 0.0
C397 C 0.36724 0.83617 0.33444 0.0
C398 C 0.33224 0.79963 0.44344 0.0
C399 C 0.3169 0.79137 0.33471 0.0
C400 C 0.32956 0.80251 0.22667 0.0
H401 H 0.19355 0.64948 0.05432 0.0
H402 H 0.23446 0.6886 0.09925 0.0
C403 C 0.35441 0.82436 0.22599 0.0
C404 C 0.28677 0.77269 0.32779 0.0
H405 H 0.25942 0.69728 0.29043 0.0
C406 C 0.25868 0.78869 0.29834 0.0
C407 C 0.28676 0.73938 0.32257 0.0
C408 C 0.31627 0.72084 0.34549 0.0
C409 C 0.23122 0.77236 0.25898 0.0
C410 C 0.23136 0.73875 0.25398 0.0
C411 C 0.25902 0.72295 0.29065 0.0
C412 C 0.20425 0.7188 0.20804 0.0
C413 C 0.2032 0.79152 0.21753 0.0
C414 C 0.17267 0.7232 0.24657 0.0
C415 C 0.14928 0.70011 0.22329 0.0
C416 C 0.15685 0.67287 0.15716 0.0
C417 C 0.18749 0.66979 0.10962 0.0
C418 C 0.21084 0.69235 0.13478 0.0
H419 H 0.21021 0.81596 0.19234 0.0
H420 H 0.19127 0.78026 0.13893 0.0
H421 H 0.18592 0.79363 0.29258 0.0
H422 H 0.16634 0.74315 0.30253 0.0
H423 H 0.12541 0.70353 0.25681 0.0
H424 H 0.92231 0.6442 0.44427 0.0
H425 H 0.95883 0.60178 0.38965 0.0
H426 H 0.95585 0.56643 0.75452 0.0
H427 H 0.91999 0.60941 0.81056 0.0
H428 H 0.02223 0.58752 0.53083 0.0
H429 H 0.93533 0.48796 0.51557 0.0
H430 H 0.92305 0.52883 0.50648 0.0
H431 H 0.93551 0.51295 0.64777 0.0
C432 C 0.9293 0.6273 0.51258 0.0
C433 C 0.91828 0.63034 0.6317 0.0
C434 C 0.95027 0.60288 0.48132 0.0
C435 C 0.96 0.58043 0.56749 0.0
C436 C 0.94859 0.58319 0.68605 0.0
H437 H 0.07497 0.40736 0.5285 0.0
H438 H 0.03314 0.44635 0.56561 0.0
C439 C 0.92818 0.60793 0.71796 0.0
C440 C 0.98301 0.5549 0.53557 0.0
H441 H 0.9891 0.47528 0.48362 0.0
C442 C 0.01501 0.563 0.5192 0.0
C443 C 0.97385 0.52268 0.52575 0.0
C444 C 0.94008 0.51236 0.5491 0.0
C445 C 0.03813 0.53991 0.49408 0.0
C446 C 0.0288 0.50769 0.47628 0.0
C447 C 0.99659 0.49972 0.49367 0.0
C448 C 0.05225 0.48206 0.44469 0.0
C449 C 0.07253 0.55026 0.49842 0.0
C450 C 0.07583 0.48745 0.35736 0.0
C451 C 0.09993 0.46543 0.33771 0.0
C452 C 0.10083 0.43665 0.40121 0.0
C453 C 0.07566 0.4297 0.48055 0.0
C454 C 0.05168 0.45217 0.50197 0.0
H455 H 0.07581 0.5712 0.55823 0.0
H456 H 0.08809 0.53113 0.53216 0.0
H457 H 0.08064 0.55727 0.4071 0.0
H458 H 0.07605 0.50908 0.30538 0.0
H459 H 0.11839 0.47129 0.274 0.0
H460 H 0.38573 0.57555 0.01594 0.0
H461 H 0.42369 0.53345 0.06515 0.0
H462 H 0.4814 0.56163 0.76167 0.0
H463 H 0.44306 0.60193 0.70897 0.0
H464 H 0.44912 0.48106 0.94505 0.0
H465 H 0.54248 0.56924 0.04047 0.0
H466 H 0.50116 0.57915 0.03091 0.0
H467 H 0.52453 0.57639 0.89572 0.0
C468 C 0.40681 0.57281 0.96114 0.0
C469 C 0.41198 0.59238 0.86042 0.0
C470 C 0.42835 0.54863 -0.0113 0.0
C471 C 0.45584 0.54454 0.91859 0.0
C472 C 0.4606 0.56411 0.81766 0.0
H473 H 0.58755 0.38664 0.85918 0.0
H474 H 0.53929 0.41831 0.86424 0.0
C475 C 0.4388 0.58747 0.78823 0.0
C476 C 0.48068 0.52122 0.95211 0.0
H477 H 0.5604 0.51697 -0.00993 0.0
C478 C 0.47345 0.48874 0.95793 0.0
C479 C 0.51216 0.53124 0.97276 0.0
C480 C 0.52057 0.56589 -0.01375 0.0
C481 C 0.49725 0.46597 0.97847 0.0
C482 C 0.52955 0.47581 -0.01515 0.0
C483 C 0.53616 0.50862 0.98346 0.0
C484 C 0.55714 0.45336 -0.00824 0.0
C485 C 0.48711 0.43198 -0.00345 0.0
C486 C 0.58388 0.46174 0.06086 0.0
C487 C 0.61184 0.44449 0.05311 0.0
C488 C 0.61392 0.41742 0.97956 0.0
C489 C 0.58689 0.40767 0.9153 0.0
C490 C 0.55889 0.42556 0.92075 0.0
H491 H 0.46319 0.43053 0.03807 0.0
H492 H 0.48556 0.41994 0.90755 0.0
H493 H 0.50387 0.41901 0.05546 0.0
H494 H 0.58356 0.48217 0.11998 0.0
H495 H 0.63179 0.45216 0.1073 0.0
H496 H 0.19011 0.52062 0.18336 0.0
H497 H 0.23026 0.47948 0.16214 0.0
H498 H 0.16537 0.4242 0.94435 0.0
H499 H 0.12486 0.46304 0.97928 0.0
H500 H 0.18827 0.38437 0.03608 0.0
H501 H 0.29545 0.45066 0.95394 0.0
H502 H 0.28242 0.46757 0.09329 0.0
H503 H 0.25802 0.47043 0.95976 0.0
C504 C 0.18449 0.49953 0.13162 0.0
C505 C 0.15395 0.49533 0.08305 0.0
C506 C 0.20777 0.47581 0.11822 0.0
C507 C 0.20172 0.44761 0.05216 0.0
C508 C 0.17146 0.44457 -0.0008 0.0
H509 H 0.34479 0.29033 0.01438 0.0
H510 H 0.32091 0.34253 0.97301 0.0
C511 C 0.14799 0.46741 0.01728 0.0
C512 C 0.22512 0.42018 0.04769 0.0
H513 H 0.30388 0.40082 0.07332 0.0
C514 C 0.21339 0.38874 0.04524 0.0
C515 C 0.25872 0.42401 0.04542 0.0
C516 C 0.27427 0.45496 0.01115 0.0
C517 C 0.23345 0.36226 0.05278 0.0
C518 C 0.26605 0.36673 0.07708 0.0
C519 C 0.27853 0.39753 0.06627 0.0
C520 C 0.28643 0.33953 0.11664 0.0
C521 C 0.22015 0.33004 0.01979 0.0
C522 C 0.27841 0.32268 0.22177 0.0
C523 C 0.29301 0.29383 0.24875 0.0
C524 C 0.31477 0.28008 0.16815 0.0
C525 C 0.32617 0.29902 0.07282 0.0
C526 C 0.31234 0.32873 0.04824 0.0
H527 H 0.19423 0.32856 0.03609 0.0
H528 H 0.224 0.32625 0.92161 0.0
H529 H 0.23202 0.31028 0.06669 0.0
H530 H 0.25973 0.33113 0.28039 0.0
H531 H 0.28572 0.28136 0.32952 0.0
H532 H 0.24668 0.4747 0.36434 0.0
H533 H 0.29916 0.498 0.32681 0.0
H534 H 0.34032 0.40489 0.33672 0.0
H535 H 0.28762 0.38148 0.36795 0.0
H536 H 0.35207 0.5008 0.44962 0.0
H537 H 0.37996 0.4359 0.02836 0.0
H538 H 0.34021 0.44156 0.08272 0.0
H539 H 0.3646 0.41098 0.14613 0.0
C540 C 0.26688 0.45914 0.35659 0.0
C541 C 0.26259 0.42618 0.36493 0.0
C542 C 0.29702 0.47253 0.33599 0.0
C543 C 0.32398 0.45335 0.3248 0.0
C544 C 0.31999 0.42037 0.33958 0.0
H545 H 0.52511 0.46429 0.28952 0.0
H546 H 0.46885 0.45259 0.27682 0.0
C547 C 0.28972 0.40693 0.35889 0.0
C548 C 0.3562 0.46793 0.30216 0.0
H549 H 0.42214 0.4625 0.12348 0.0
C550 C 0.36742 0.49211 0.37918 0.0
C551 C 0.376 0.45828 0.20547 0.0
C552 C 0.36462 0.43546 0.10999 0.0
C553 C 0.39851 0.50455 0.36948 0.0
C554 C 0.41902 0.49306 0.27819 0.0
C555 C 0.40694 0.47081 0.19539 0.0
C556 C 0.4537 0.50137 0.27356 0.0
C557 C 0.40954 0.529 0.46004 0.0
C558 C 0.46479 0.53292 0.26802 0.0
C559 C 0.49746 0.53975 0.27178 0.0
C560 C 0.51964 0.51518 0.28176 0.0
C561 C 0.50861 0.48378 0.2832 0.0
C562 C 0.47622 0.47703 0.27702 0.0
H563 H 0.39295 0.53131 0.53676 0.0
H564 H 0.43331 0.52297 0.49594 0.0
H565 H 0.41105 0.55249 0.41568 0.0
H566 H 0.4483 0.55232 0.26101 0.0
H567 H 0.50527 0.56423 0.27067 0.0
H568 H 0.17545 0.71258 0.47324 0.0
H569 H 0.19426 0.66083 0.39841 0.0
H570 H 0.27443 0.66875 0.63891 0.0
H571 H 0.2563 0.72056 0.70354 0.0
H572 H 0.29468 0.64824 0.42378 0.0
H573 H 0.18664 0.57559 0.51053 0.0
H574 H 0.18932 0.60341 0.38813 0.0
H575 H 0.18506 0.61767 0.53919 0.0
C576 C 0.19799 0.70366 0.50291 0.0
C577 C 0.21652 0.72197 0.58167 0.0
C578 C 0.20821 0.67362 0.46453 0.0
C579 C 0.23644 0.6608 0.51044 0.0
C580 C 0.25324 0.67826 0.59813 0.0
H581 H 0.36861 0.54032 0.74859 0.0
H582 H 0.33414 0.58058 0.66341 0.0
C583 C 0.24308 0.70811 0.63468 0.0
C584 C 0.24909 0.62913 0.4748 0.0
H585 H 0.23592 0.55195 0.55021 0.0
C586 C 0.28163 0.62708 0.44937 0.0
C587 C 0.23194 0.60055 0.49242 0.0
C588 C 0.19629 0.59908 0.48332 0.0
C589 C 0.29804 0.59865 0.46518 0.0
C590 C 0.28225 0.57268 0.52015 0.0
C591 C 0.24886 0.57278 0.52074 0.0
C592 C 0.30032 0.54757 0.58602 0.0
C593 C 0.33201 0.59683 0.42291 0.0
C594 C 0.29065 0.51561 0.58699 0.0
C595 C 0.30974 0.49247 0.64109 0.0
C596 C 0.33882 0.50101 0.69459 0.0
C597 C 0.34678 0.53309 0.70474 0.0
C598 C 0.32746 0.55604 0.65298 0.0
H599 H 0.33505 0.61004 0.33693 0.0
H600 H 0.34788 0.60815 0.49012 0.0
H601 H 0.33958 0.57195 0.40843 0.0
H602 H 0.26919 0.50823 0.54134 0.0
H603 H 0.30291 0.46777 0.63315 0.0
H604 H 1.00156 0.51463 0.76565 0.0
H605 H 0.05463 0.53677 0.74421 0.0
H606 H 0.09443 0.44506 0.82273 0.0
H607 H 0.04155 0.42309 0.83964 0.0
H608 H 0.0963 0.54976 0.86318 0.0
H609 H 0.15805 0.46051 0.5919 0.0
H610 H 0.11658 0.45691 0.62536 0.0
H611 H 0.14558 0.44242 0.73043 0.0
C612 C 0.02166 0.49901 0.77435 0.0
C613 C 0.01696 0.46682 0.80043 0.0
C614 C 0.05245 0.51173 0.76305 0.0
C615 C 0.07982 0.49283 0.77719 0.0
C616 C 0.07478 0.46064 0.80576 0.0
H617 H 0.28065 0.54437 0.90752 0.0
H618 H 0.23087 0.51487 0.87472 0.0
C619 C 0.04404 0.44792 0.81687 0.0
C620 C 0.11286 0.50775 0.77456 0.0
H621 H 0.19167 0.4967 0.70377 0.0
C622 C 0.11662 0.53807 0.82519 0.0
C623 C 0.14078 0.4929 0.72858 0.0
C624 C 0.14002 0.46147 0.66504 0.0
C625 C 0.14633 0.55303 0.83632 0.0
C626 C 0.17387 0.53834 0.79168 0.0
C627 C 0.17069 0.50821 0.73899 0.0
C628 C 0.2056 0.55464 0.7999 0.0
C629 C 0.14799 0.58409 0.90226 0.0
C630 C 0.20852 0.58678 0.76829 0.0
C631 C 0.23612 0.60397 0.79155 0.0
C632 C 0.26257 0.58926 0.84228 0.0
C633 C 0.26053 0.55664 0.86953 0.0
C634 C 0.23224 0.53955 0.84907 0.0
H635 H 0.12971 0.5851 0.9712 0.0
H636 H 0.17066 0.58788 0.95103 0.0
H637 H 0.14359 0.60366 0.83778 0.0
H638 H 0.18884 0.59916 0.72906 0.0
H639 H 0.23667 0.62886 0.76841 0.0
H640 H 0.80207 0.5099 0.83511 0.0
H641 H 0.76801 0.55464 0.87694 0.0
H642 H 0.84237 0.59886 0.08504 0.0
H643 H 0.87716 0.55377 0.04162 0.0
H644 H 0.74005 0.59194 0.00872 0.0
H645 H 0.83821 0.65694 0.80978 0.0
H646 H 0.8424 0.61663 0.8469 0.0
H647 H 0.85119 0.64678 0.95935 0.0
C648 C 0.81125 0.52915 0.88999 0.0
C649 C 0.84275 0.52889 0.93112 0.0
C650 C 0.79157 0.55483 0.91425 0.0
C651 C 0.80306 0.58141 0.97689 0.0
C652 C 0.83325 0.57936 0.03141 0.0
H653 H 0.74708 0.77969 0.9789 0.0
H654 H 0.7692 0.72764 0.0195 0.0
C655 C 0.85317 0.55354 0.00702 0.0
C656 C 0.78575 0.61233 0.96781 0.0
H657 H 0.79676 0.68966 0.88769 0.0
C658 C 0.75262 0.6134 0.98341 0.0
C659 C 0.80134 0.64012 0.92743 0.0
C660 C 0.83517 0.63987 0.88415 0.0
C661 C 0.73521 0.64136 0.96161 0.0
C662 C 0.75144 0.66984 0.93091 0.0
C663 C 0.78439 0.66851 0.91614 0.0
C664 C 0.73567 0.70133 0.91026 0.0
C665 C 0.69965 0.63926 0.96678 0.0
C666 C 0.71022 0.70482 0.82938 0.0
C667 C 0.69833 0.73493 0.8016 0.0
C668 C 0.71114 0.76237 0.8557 0.0
C669 C 0.73609 0.75901 0.93816 0.0
C670 C 0.74858 0.72902 0.96258 0.0
H671 H 0.69161 0.62047 0.02991 0.0
H672 H 0.68877 0.6621 -0.00882 0.0
H673 H 0.69077 0.63271 0.87628 0.0
H674 H 0.70002 0.68449 0.78434 0.0
H675 H 0.67927 0.73679 0.73652 0.0
H676 H 0.50483 0.52114 0.66335 0.0
H677 H 0.55128 0.55559 0.6785 0.0
H678 H 0.61079 0.47304 0.7077 0.0
H679 H 0.56475 0.43945 0.67729 0.0
H680 H 0.64309 0.50414 0.60201 0.0
H681 H 0.60326 0.59747 0.90631 0.0
H682 H 0.58071 0.56181 0.88243 0.0
H683 H 0.57535 0.59582 0.78508 0.0
C684 C 0.52786 0.51056 0.67469 0.0
C685 C 0.53055 0.47739 0.67508 0.0
C686 C 0.55488 0.5304 0.68403 0.0
C687 C 0.58575 0.51786 0.69693 0.0
C688 C 0.58808 0.48444 0.69687 0.0
H689 H 0.72819 0.67167 0.57984 0.0
H690 H 0.67864 0.64049 0.59872 0.0
C691 C 0.56129 0.4648 0.68176 0.0
C692 C 0.61564 0.53875 0.69774 0.0
H693 H 0.64599 0.61203 0.77401 0.0
C694 C 0.64307 0.5277 0.63887 0.0
C695 C 0.61781 0.56941 0.75188 0.0
C696 C 0.59281 0.58167 0.83627 0.0
C697 C 0.67061 0.5464 0.62327 0.0
C698 C 0.6719 0.57757 0.67098 0.0
C699 C 0.64518 0.58858 0.73422 0.0
C700 C 0.70152 0.59783 0.66215 0.0
C701 C 0.69795 0.53248 0.55302 0.0
C702 C 0.73104 0.58509 0.69346 0.0
C703 C 0.75923 0.6021 0.67612 0.0
C704 C 0.75892 0.63352 0.63512 0.0
C705 C 0.72933 0.64739 0.61083 0.0
C706 C 0.70094 0.62957 0.62225 0.0
H707 H 0.69023 0.51327 0.4924 0.0
H708 H 0.71033 0.55068 0.49783 0.0
H709 H 0.71499 0.52153 0.61635 0.0
H710 H 0.73238 0.56155 0.73058 0.0
H711 H 0.78145 0.59076 0.69759 0.0
H712 H 0.81679 0.24049 0.57436 0.0
H713 H 0.79461 0.29429 0.59545 0.0
H714 H 0.78463 0.30066 0.21093 0.0
H715 H 0.80828 0.24903 0.1869 0.0
H716 H 0.80943 0.36156 0.40671 0.0
H717 H 0.69248 0.30094 0.4554 0.0
H718 H 0.72878 0.2824 0.50496 0.0
H719 H 0.72069 0.28625 0.34729 0.0
C720 C 0.81041 0.25369 0.49428 0.0
C721 C 0.81354 0.24003 0.37892 0.0
C722 C 0.79762 0.28421 0.50701 0.0
C723 C 0.78746 0.30128 0.40582 0.0
C724 C 0.79215 0.28826 0.29085 0.0
H725 H 0.69821 0.46812 0.16195 0.0
H726 H 0.73128 0.42294 0.20899 0.0
C727 C 0.80533 0.25825 0.27747 0.0
C728 C 0.76875 0.33083 0.41973 0.0
H729 H 0.6928 0.35647 0.45019 0.0
C730 C 0.7838 0.36052 0.41214 0.0
C731 C 0.73551 0.32949 0.4333 0.0
C732 C 0.71814 0.29816 0.43628 0.0
C733 C 0.76606 0.38873 0.40585 0.0
C734 C 0.73259 0.38725 0.41361 0.0
C735 C 0.7181 0.35776 0.43626 0.0
C736 C 0.71231 0.41546 0.38828 0.0
C737 C 0.78313 0.4201 0.39399 0.0
C738 C 0.68926 0.42581 0.47088 0.0
C739 C 0.66921 0.4512 0.44206 0.0
C740 C 0.67231 0.46738 0.33128 0.0
C741 C 0.69517 0.45662 0.24861 0.0
C742 C 0.71461 0.43093 0.27629 0.0
H743 H 0.80868 0.4182 0.41692 0.0
H744 H 0.78118 0.42872 0.3002 0.0
H745 H 0.77205 0.43829 0.45267 0.0
H746 H 0.68645 0.41395 0.55695 0.0
H747 H 0.65127 0.458 0.5065 0.0
H748 H 0.98724 0.57046 0.27211 0.0
H749 H 0.93654 0.54223 0.30586 0.0
H750 H 0.96802 0.46812 0.06669 0.0
H751 H 0.0183 0.49516 0.04048 0.0
H752 H 0.88795 0.52258 0.22351 0.0
H753 H 0.9446 0.41118 0.31941 0.0
H754 H 0.96747 0.44724 0.30918 0.0
H755 H 0.96203 0.42217 0.17841 0.0
C756 C 0.98328 0.54758 0.2312 0.0
C757 C 1.00684 0.53447 0.15791 0.0
C758 C 0.95436 0.53147 0.24924 0.0
C759 C 0.94902 0.50158 0.19597 0.0
C760 C 0.97211 0.48977 0.11649 0.0
H761 H 0.80713 0.35068 0.17936 0.0
H762 H 0.85059 0.3834 0.24301 0.0
C763 C 1.00078 0.5056 0.09961 0.0
C764 C 0.91947 0.48254 0.21737 0.0
H765 H 0.89545 0.40597 0.19637 0.0
C766 C 0.88953 0.49703 0.21844 0.0
C767 C 0.92058 0.44914 0.2261 0.0
C768 C 0.95041 0.43171 0.26055 0.0
C769 C 0.86141 0.47884 0.20886 0.0
C770 C 0.86348 0.44577 0.18575 0.0
C771 C 0.89311 0.43136 0.20328 0.0
C772 C 0.83577 0.4256 0.14586 0.0
C773 C 0.83014 0.49503 0.2306 0.0
C774 C 0.81224 0.43704 0.06649 0.0
C775 C 0.78538 0.41853 0.03805 0.0
C776 C 0.78236 0.38755 0.08313 0.0
C777 C 0.80774 0.37492 0.14854 0.0
C778 C 0.83339 0.39379 0.18291 0.0
H779 H 0.82058 0.50434 0.14491 0.0
H780 H 0.81245 0.47846 0.27005 0.0
H781 H 0.83309 0.51551 0.29286 0.0
H782 H 0.81424 0.46038 0.02731 0.0
H783 H 0.76682 0.42865 0.98308 0.0
H784 H 0.85612 0.81778 0.58017 0.0
H785 H 0.83994 0.87311 0.54326 0.0
H786 H 0.74527 0.84963 0.66121 0.0
H787 H 0.76106 0.79541 0.69636 0.0
H788 H 0.81926 0.92451 0.61444 0.0
H789 H 0.72156 0.88473 0.34264 0.0
H790 H 0.72561 0.85623 0.46228 0.0
H791 H 0.75858 0.8646 0.36427 0.0
C792 C 0.83178 0.82456 0.59654 0.0
C793 C 0.80951 0.80195 0.63715 0.0
C794 C 0.82254 0.85622 0.57587 0.0
C795 C 0.79072 0.86535 0.59187 0.0
C796 C 0.7694 0.84306 0.64047 0.0
H797 H 0.64624 1.00153 0.62419 0.0
H798 H 0.67983 0.95873 0.56922 0.0
C799 C 0.77856 0.81194 0.66203 0.0
C800 C 0.77848 0.89747 0.55844 0.0
H801 H 0.7095 0.92989 0.46444 0.0
C802 C 0.79474 0.92554 0.58743 0.0
C803 C 0.74946 0.90059 0.49666 0.0
C804 C 0.73801 0.87517 0.41167 0.0
C805 C 0.77981 0.95526 0.57492 0.0
C806 C 0.74619 0.9561 0.56101 0.0
C807 C 0.73267 0.92905 0.50553 0.0
C808 C 0.72497 0.98319 0.60358 0.0
C809 C 0.8008 0.98328 0.54511 0.0
C810 C 0.73689 0.01143 0.65686 0.0
C811 C 0.71671 0.03667 0.68736 0.0
C812 C 0.68372 0.034 0.67198 0.0
C813 C 0.67151 1.00479 0.63385 0.0
C814 C 0.6915 0.9801 0.59938 0.0
H815 H 0.81264 0.99289 0.62626 0.0
H816 H 0.82013 0.97577 0.48331 0.0
H817 H 0.78755 1.00226 0.49907 0.0
H818 H 0.76173 0.01486 0.67442 0.0
H819 H 0.72712 0.05853 0.7206 0.0
H820 H 0.75312 0.95567 0.84634 0.0
H821 H 0.79803 0.99141 0.81847 0.0
H822 H 0.86071 0.91972 0.95213 0.0
H823 H 0.81635 0.88314 0.9735 0.0
H824 H 0.84015 0.02238 0.87331 0.0
H825 H 0.91101 0.93044 0.66954 0.0
H826 H 0.86888 0.92856 0.68309 0.0
H827 H 0.89343 0.91209 0.79764 0.0
C828 C 0.77666 0.94722 0.86727 0.0
C829 C 0.78123 0.91591 0.90655 0.0
C830 C 0.80264 0.96765 0.84913 0.0
C831 C 0.83386 0.95728 0.86913 0.0
C832 C 0.83768 0.92726 0.92215 0.0
H833 H 0.98778 0.09265 -0.00466 0.0
H834 H 0.93772 0.06394 -0.01276 0.0
C835 C 0.81198 0.90659 0.93805 0.0
C836 C 0.86258 0.97743 0.84019 0.0
H837 H 0.94138 0.96843 0.79071 0.0
C838 C 0.86229 1.01054 0.85511 0.0
C839 C 0.89109 0.96369 0.79899 0.0
C840 C 0.89113 0.93208 0.73417 0.0
C841 C 0.89029 0.02899 0.84653 0.0
C842 C 0.9202 0.01373 0.83501 0.0
C843 C 0.91962 0.98102 0.80741 0.0
C844 C 0.95183 0.03102 0.84624 0.0
C845 C 0.88678 0.06454 0.84295 0.0
C846 C 0.97865 0.02078 0.78126 0.0
C847 C 1.00801 0.03637 0.79017 0.0
C848 C 0.01175 0.06316 0.8637 0.0
C849 C 0.98556 0.07292 0.93314 0.0
C850 C 0.95637 0.05668 0.92661 0.0
H851 H 0.86384 0.07123 0.80107 0.0
H852 H 0.88663 0.07413 0.93622 0.0
H853 H 0.90614 0.07596 0.79053 0.0
H854 H 0.97727 1.00052 0.72301 0.0
H855 H 0.028 0.02707 0.74076 0.0
H856 H 0.87554 0.04067 0.15421 0.0
H857 H 0.84386 0.08712 0.11411 0.0
H858 H 0.76638 0.02515 0.01042 0.0
H859 H 0.79416 0.98103 0.0928 0.0
H860 H 0.82314 0.11696 0.96849 0.0
H861 H 0.73403 0.05105 0.13344 0.0
H862 H 0.72453 0.05378 0.97449 0.0
H863 H 0.70125 0.07416 0.08269 0.0
C864 C 0.8508 0.03742 0.13225 0.0
C865 C 0.83723 1.007 0.1318 0.0
C866 C 0.83257 0.06423 0.10419 0.0
C867 C 0.80084 0.06153 0.06296 0.0
C868 C 0.78853 0.03036 0.05385 0.0
H869 H 0.66113 0.21541 0.98236 0.0
H870 H 0.68955 0.16618 0.95544 0.0
C871 C 0.80544 1.00412 0.09618 0.0
C872 C 0.78185 0.09134 0.03251 0.0
H873 H 0.7096 0.12673 0.06997 0.0
C874 C 0.79837 0.11875 -0.00686 0.0
C875 C 0.74833 0.09449 0.04784 0.0
C876 C 0.72587 0.06689 0.06132 0.0
C877 C 0.78364 0.14858 0.98119 0.0
C878 C 0.75152 0.15231 0.01679 0.0
C879 C 0.73443 0.12475 0.04646 0.0
C880 C 0.73476 0.18393 0.02252 0.0
C881 C 0.80264 0.1752 0.92529 0.0
C882 C 0.74988 0.21138 0.06777 0.0
C883 C 0.734 0.24052 0.07373 0.0
C884 C 0.70192 0.24282 0.04054 0.0
C885 C 0.68613 0.21501 0.00386 0.0
C886 C 0.70247 0.1864 -0.00927 0.0
H887 H 0.82026 0.16591 0.8598 0.0
H888 H 0.78723 0.19222 0.8772 0.0
H889 H 0.81608 0.18789 -0.0032 0.0
H890 H 0.77398 0.21043 0.09945 0.0
H891 H 0.74684 0.26124 0.10495 0.0
H892 H 0.53448 0.92775 0.50154 0.0
H893 H 0.59169 0.94067 0.49959 0.0
H894 H 0.5806 0.98837 0.15897 0.0
H895 H 0.52439 0.97777 0.16359 0.0
H896 H 0.64988 0.94935 0.24856 0.0
H897 H 0.572 0.03086 0.36901 0.0
H898 H 0.59251 0.04755 0.49547 0.0
H899 H 0.57736 1.00815 0.50443 0.0
C900 C 0.54444 0.94046 0.42542 0.0
C901 C 0.52466 0.95185 0.33316 0.0
C902 C 0.57723 0.94719 0.42301 0.0
C903 C 0.59061 0.96478 0.32729 0.0
C904 C 0.57114 0.97397 0.23173 0.0
H905 H 0.71543 0.12653 0.3268 0.0
H906 H 0.67326 0.08781 0.30835 0.0
C907 C 0.53866 0.96824 0.23593 0.0
C908 C 0.62072 0.98274 0.34298 0.0
H909 H 0.6444 0.05611 0.43107 0.0
C910 C 0.64923 0.9725 0.29105 0.0
C911 C 0.61927 0.0133 0.39271 0.0
C912 C 0.58869 0.02572 0.44378 0.0
C913 C 0.67645 0.99241 0.28825 0.0
C914 C 0.67511 0.02328 0.34117 0.0
C915 C 0.64609 0.03294 0.39087 0.0
C916 C 0.70238 0.04668 0.34692 0.0
C917 C 0.70526 0.98047 0.22206 0.0
C918 C 0.73366 0.03753 0.37388 0.0
C919 C 0.75831 0.06006 0.38148 0.0
C920 C 0.75232 0.09247 0.36437 0.0
C921 C 0.72106 0.10181 0.34088 0.0
C922 C 0.69664 0.07937 0.33147 0.0
H923 H 0.69868 0.9627 0.15209 0.0
H924 H 0.71843 0.99993 0.17732 0.0
H925 H 0.72125 0.96857 0.28689 0.0
H926 H 0.7393 0.01301 0.38888 0.0
H927 H 0.78217 0.05205 0.39918 0.0
H928 H 0.31572 0.01217 0.59616 0.0
H929 H 0.27949 0.05433 0.66515 0.0
H930 H 0.32823 0.12067 0.43348 0.0
H931 H 0.36558 0.0806 0.37735 0.0
H932 H 0.31438 0.1502 0.6225 0.0
H933 H 0.20256 0.08532 0.51174 0.0
H934 H 0.22914 0.06983 0.62217 0.0
H935 H 0.24005 0.06898 0.46495 0.0
C936 C 0.31906 0.03613 0.56349 0.0
C937 C 0.34324 0.04299 0.4795 0.0
C938 C 0.29783 0.06015 0.60053 0.0
C939 C 0.3002 0.09106 0.55187 0.0
C940 C 0.32549 0.09754 0.47322 0.0
H941 H 0.23869 0.25963 0.27125 0.0
H942 H 0.26213 0.21106 0.34668 0.0
C943 C 0.34682 0.07427 0.43961 0.0
C944 C 0.27706 0.11741 0.575 0.0
H945 H 0.20137 0.14065 0.50848 0.0
C946 C 0.28972 0.14785 0.59617 0.0
C947 C 0.2441 0.11481 0.55064 0.0
C948 C 0.22797 0.08307 0.53594 0.0
C949 C 0.27239 0.17538 0.57191 0.0
C950 C 0.24087 0.17272 0.52856 0.0
C951 C 0.22626 0.14265 0.53139 0.0
C952 C 0.22426 0.20051 0.47273 0.0
C953 C 0.28867 0.20694 0.59057 0.0
C954 C 0.1936 0.20977 0.5076 0.0
C955 C 0.18139 0.23932 0.47225 0.0
C956 C 0.19871 0.25883 0.3931 0.0
C957 C 0.22641 0.24663 0.34105 0.0
C958 C 0.23956 0.21844 0.38293 0.0
H959 H 0.30379 0.2064 0.67268 0.0
H960 H 0.30443 0.21184 0.51255 0.0
H961 H 0.27165 0.22663 0.59972 0.0
H962 H 0.17967 0.19484 0.56584 0.0
H963 H 0.15889 0.24713 0.50832 0.0
H964 H 0.02505 0.9385 0.28433 0.0
H965 H 0.07999 0.95978 0.30096 0.0
H966 H 0.05879 0.02965 0.03271 0.0
H967 H 1.00472 1.00992 0.01965 0.0
H968 H 0.1344 0.97601 0.17244 0.0
H969 H 0.0729 0.07992 0.34108 0.0
H970 H 0.05098 0.0466 0.28493 0.0
H971 H 0.06294 0.07746 0.18347 0.0
C972 C 0.03217 0.95863 0.2303 0.0
C973 C 1.00999 0.97343 0.15453 0.0
C974 C 0.06356 0.97044 0.2387 0.0
C975 C 0.07312 0.99716 0.17196 0.0
C976 C 0.05184 1.00965 0.08776 0.0
H977 H 0.25819 0.08526 0.05832 0.0
H978 H 0.21372 0.04825 0.07699 0.0
C979 C 0.02074 0.99835 0.08075 0.0
C980 C 0.10292 0.01528 0.20024 0.0
H981 H 0.12683 0.08987 0.27105 0.0
C982 C 0.13294 1.00116 0.19145 0.0
C983 C 0.1014 0.04736 0.23611 0.0
C984 C 0.07029 0.06349 0.26323 0.0
C985 C 0.16122 0.01915 0.20685 0.0
C986 C 0.15959 0.05266 0.22284 0.0
C987 C 0.12937 0.0653 0.24697 0.0
C988 C 0.18789 0.07522 0.21146 0.0
C989 C 0.192 1.00137 0.21671 0.0
C990 C 0.18832 0.10465 0.2726 0.0
C991 C 0.21269 0.12683 0.2543 0.0
C992 C 0.23881 0.11996 0.18113 0.0
C993 C 0.23854 0.09126 0.11685 0.0
C994 C 0.21323 0.06951 0.13049 0.0
H995 H 0.18818 0.97829 0.26278 0.0
H996 H 0.20124 0.99595 0.1255 0.0
H997 H 0.21014 0.01496 0.2681 0.0
H998 H 0.17 0.11095 0.33629 0.0
H999 H 0.21133 0.14954 0.299 0.0
H1000 H 0.34295 0.77602 0.95547 0.0
H1001 H 0.32555 0.83151 -0.01479 0.0
H1002 H 0.2612 0.82186 0.68762 0.0
H1003 H 0.27948 0.76851 0.65159 0.0
H1004 H 0.28985 0.87748 0.68663 0.0
H1005 H 0.24515 0.85941 0.15142 0.0
H1006 H 0.28658 0.85255 0.12798 0.0
H1007 H 0.25792 0.8266 0.0585 0.0
C1008 C 0.32466 0.78566 0.89795 0.0
C1009 C 0.31161 0.76712 0.80454 0.0
C1010 C 0.31457 0.81718 0.916 0.0
C1011 C 0.29055 0.83032 0.84435 0.0
C1012 C 0.27872 0.81218 0.74798 0.0
H1013 H 0.15205 0.97805 0.88804 0.0
H1014 H 0.18299 0.92904 0.89641 0.0
C1015 C 0.28915 0.78127 0.7281 0.0
C1016 C 0.27799 0.86309 0.86539 0.0
H1017 H 0.23615 0.90924 0.06376 0.0
C1018 C 0.27816 0.88437 0.76845 0.0
C1019 C 0.2633 0.87261 0.97467 0.0
C1020 C 0.26296 0.85157 0.08411 0.0
C1021 C 0.26302 0.91386 0.77392 0.0
C1022 C 0.24714 0.92276 0.88113 0.0
C1023 C 0.24796 0.90224 0.98095 0.0
C1024 C 0.2286 0.95262 0.88863 0.0
C1025 C 0.26244 0.93375 0.66061 0.0
C1026 C 0.24395 0.98222 0.8846 0.0
C1027 C 0.22639 1.01015 0.87618 0.0
C1028 C 0.19302 1.00925 0.87649 0.0
C1029 C 0.17768 0.97964 0.88651 0.0
C1030 C 0.19532 0.9516 0.8922 0.0
H1031 H 0.24318 0.92486 0.60109 0.0
H1032 H 0.25823 0.95918 0.67683 0.0
H1033 H 0.28518 0.93167 0.61106 0.0
H1034 H 0.2696 0.9836 0.88312 0.0
H1035 H 0.23905 0.0325 0.86974 0.0
H1036 H 0.26055 0.92971 0.29381 0.0
H1037 H 0.3113 0.95808 0.29348 0.0
H1038 H 0.35037 0.88554 0.52214 0.0
H1039 H 0.30209 0.85587 0.50828 0.0
H1040 H 0.37446 0.9282 0.60025 0.0
H1041 H 0.35628 0.93568 0.1578 0.0
H1042 H 0.35019 0.97756 0.17157 0.0
H1043 H 0.38616 0.96351 0.10831 0.0
C1044 C 0.28069 0.91912 0.33844 0.0
C1045 C 0.27723 0.89025 0.40091 0.0
C1046 C 0.31008 0.93531 0.33742 0.0
C1047 C 0.33659 0.92308 0.39932 0.0
C1048 C 0.33197 0.89502 0.46543 0.0
H1049 H 0.52388 0.01489 0.62299 0.0
H1050 H 0.48348 0.97486 0.58495 0.0
C1051 C 0.30371 0.87799 0.45954 0.0
C1052 C 0.36832 0.93991 0.40538 0.0
H1053 H 0.42145 0.9927 0.25289 0.0
C1054 C 0.38488 0.94048 0.5241 0.0
C1055 C 0.38258 0.95862 0.30296 0.0
C1056 C 0.36809 0.95858 0.17841 0.0
C1057 C 0.4137 0.95997 0.54606 0.0
C1058 C 0.42759 0.97987 0.44717 0.0
C1059 C 0.41212 0.97829 0.32516 0.0
C1060 C 0.45355 1.00434 0.47178 0.0
C1061 C 0.42526 0.96201 0.67416 0.0
C1062 C 0.45178 0.03483 0.42081 0.0
C1063 C 0.47584 0.05756 0.43974 0.0
C1064 C 0.50218 0.05106 0.51365 0.0
C1065 C 0.50366 0.0211 0.56812 0.0
C1066 C 0.48009 0.99801 0.54609 0.0
H1067 H 0.44604 0.94636 0.68569 0.0
H1068 H 0.43197 0.98669 0.69772 0.0
H1069 H 0.4068 0.95399 0.73899 0.0
H1070 H 0.43167 0.04128 0.36585 0.0
H1071 H 0.47392 0.08032 0.39538 0.0
H1072 H 0.3991 0.2234 0.50346 0.0
H1073 H 0.44097 0.25806 0.4256 0.0
H1074 H 0.42437 0.22292 0.06553 0.0
H1075 H 0.38278 0.18846 0.14302 0.0
H1076 H 0.49181 0.21921 0.09905 0.0
H1077 H 0.42851 0.34447 0.25888 0.0
H1078 H 0.41787 0.30823 0.33928 0.0
H1079 H 0.41155 0.31091 0.18107 0.0
C1080 C 0.40411 0.22319 0.40749 0.0
C1081 C 0.38736 0.20297 0.32886 0.0
C1082 C 0.42781 0.24324 0.36309 0.0
C1083 C 0.43516 0.24334 0.2397 0.0
C1084 C 0.41872 0.22332 0.16102 0.0
H1085 H 0.59041 0.39622 0.21502 0.0
H1086 H 0.54284 0.37089 0.13369 0.0
C1087 C 0.39481 0.20356 0.20537 0.0
C1088 C 0.46142 0.26287 0.19569 0.0
H1089 H 0.47763 0.31933 0.21411 0.0
C1090 C 0.4933 0.24418 0.1207 0.0
C1091 C 0.46215 0.30452 0.22792 0.0
C1092 C 0.42778 0.31827 0.25494 0.0
C1093 C 0.52853 0.26628 0.08312 0.0
C1094 C 0.5315 0.30739 0.1219 0.0
C1095 C 0.49869 0.32754 0.18963 0.0
C1096 C 0.56264 0.32354 0.13144 0.0
C1097 C 0.55316 0.24999 0.00874 0.0
C1098 C 0.59024 0.30599 0.15432 0.0
C1099 C 0.618 0.32095 0.19269 0.0
C1100 C 0.61831 0.35348 0.21463 0.0
C1101 C 0.59095 0.37121 0.19343 0.0
C1102 C 0.5637 0.35656 0.14777 0.0
H1103 H 0.54138 0.23411 0.94232 0.0
H1104 H 0.56829 0.26743 0.96039 0.0
H1105 H 0.5679 0.23488 0.06783 0.0
H1106 H 0.59016 0.28053 0.15377 0.0
H1107 H 0.63838 0.30674 0.21591 0.0
H1108 H 0.421 0.84049 0.14076 0.0
H1109 H 0.44457 0.79757 0.25974 0.0
H1110 H 0.5273 0.8557 0.32128 0.0
H1111 H 0.50333 0.89839 0.20355 0.0
H1112 H 0.52109 0.77129 0.21419 0.0
H1113 H 0.49368 0.84671 0.63473 0.0
H1114 H 0.45725 0.82391 0.63978 0.0
H1115 H 0.46838 0.8442 0.50871 0.0
C1116 C 0.44361 0.84444 0.18435 0.0
C1117 C 0.45861 0.87417 0.17799 0.0
C1118 C 0.4573 0.81979 0.25019 0.0
C1119 C 0.48693 0.82418 0.30495 0.0
C1120 C 0.5036 0.85256 0.28609 0.0
H1121 H 0.61655 0.64895 0.51446 0.0
H1122 H 0.60181 0.70503 0.51701 0.0
C1123 C 0.48966 0.87723 0.22138 0.0
C1124 C 0.50039 0.79926 0.38186 0.0
H1125 H 0.52803 0.74315 0.72628 0.0
C1126 C 0.52015 0.76967 0.31168 0.0
C1127 C 0.4968 0.80079 0.53758 0.0
C1128 C 0.47816 0.83012 0.58377 0.0
C1129 C 0.53873 0.73776 0.37459 0.0
C1130 C 0.54131 0.72805 0.52347 0.0
C1131 C 0.5254 0.75138 0.63305 0.0
C1132 C 0.55234 0.69606 0.5557 0.0
C1133 C 0.55365 0.71535 0.28632 0.0
C1134 C 0.52969 0.67267 0.58256 0.0
C1135 C 0.53785 0.64062 0.57886 0.0
C1136 C 0.56891 0.63148 0.54949 0.0
C1137 C 0.59235 0.65516 0.53649 0.0
C1138 C 0.584 0.68726 0.53788 0.0
H1139 H 0.54828 0.722 0.19165 0.0
H1140 H 0.57972 0.71562 0.29924 0.0
H1141 H 0.54501 0.69087 0.30314 0.0
H1142 H 0.50509 0.67902 0.5963 0.0
H1143 H 0.51933 0.62297 0.59044 0.0
H1144 H 0.15852 0.80096 0.62413 0.0
H1145 H 0.10398 0.78759 0.5769 0.0
H1146 H 0.07827 0.80461 0.94688 0.0
H1147 H 0.13258 0.82086 -0.0067 0.0
H1148 H 0.061 0.73875 0.73958 0.0
H1149 H 0.02139 0.86326 0.68252 0.0
H1150 H 0.05822 0.84853 0.62188 0.0
H1151 H 0.0549 0.85583 0.78023 0.0
C1152 C 0.14151 0.80308 0.69484 0.0
C1153 C 0.15021 0.81367 0.81086 0.0
C1154 C 0.11017 0.79488 0.66783 0.0
C1155 C 0.08704 0.7963 0.75776 0.0
C1156 C 0.09573 0.8048 0.87552 0.0
H1157 H 0.90967 0.76956 0.0238 0.0
H1158 H 0.95994 0.78999 0.94659 0.0
C1159 C 0.1269 0.81372 0.90178 0.0
C1160 C 0.05358 0.78897 0.73107 0.0
H1161 H 0.9814 0.82471 0.72347 0.0
C1162 C 0.04348 0.75736 0.73399 0.0
C1163 C 0.03119 0.8134 0.71857 0.0
C1164 C 0.04168 0.84726 0.69983 0.0
C1165 C 1.01111 0.74967 0.73796 0.0
C1166 C 0.98858 0.77438 0.73839 0.0
C1167 C 0.99877 0.80589 0.72487 0.0
C1168 C 0.95523 0.76798 0.77136 0.0
C1169 C 1.00124 0.71538 0.75013 0.0
C1170 C 0.93508 0.75063 0.69504 0.0
C1171 C 0.90596 0.73932 0.73818 0.0
C1172 C 0.89693 0.74458 0.85878 0.0
C1173 C 0.91614 0.76428 0.93124 0.0
C1174 C 0.94488 0.77606 0.88748 0.0
H1175 H 0.02186 0.69924 0.75544 0.0
H1176 H 0.98645 0.71213 0.83215 0.0
H1177 H 0.98671 0.70829 0.67094 0.0
H1178 H 0.9425 0.74462 0.6042 0.0
H1179 H 0.89156 0.72515 0.67872 0.0
H1180 H 0.14277 0.18916 0.03293 0.0
H1181 H 0.10197 0.2296 0.03946 0.0
H1182 H 0.04435 0.16929 0.26593 0.0
H1183 H 0.08393 0.12786 0.24968 0.0
H1184 H 0.07327 0.27345 0.12633 0.0
H1185 H 0.99528 0.16102 0.17947 0.0
H1186 H 0.01623 0.16133 0.03818 0.0
H1187 H 0.97376 0.16806 0.0421 0.0
C1188 C 0.12169 0.18478 0.08615 0.0
C1189 C 0.11549 0.15467 0.13447 0.0
C1190 C 0.09823 0.20789 0.08955 0.0
C1191 C 0.06906 0.20134 0.14551 0.0
C1192 C 0.06557 0.17368 0.21359 0.0
H1193 H 0.92552 0.33204 0.78269 0.0
H1194 H 0.94746 0.28213 0.8542 0.0
C1195 C 0.08859 0.1503 0.20712 0.0
C1196 C 0.04203 0.22243 0.12667 0.0
H1197 H 0.9481 0.22456 0.04247 0.0
C1198 C 0.04942 0.26421 0.11751 0.0
C1199 C 1.00254 0.20714 0.10304 0.0
C1200 C 0.99656 0.17234 0.08945 0.0
C1201 C 0.01761 0.29058 0.09022 0.0
C1202 C 0.97859 0.27569 0.0658 0.0
C1203 C 0.97105 0.23378 0.06907 0.0
C1204 C 0.95413 0.29862 0.0373 0.0
C1205 C 0.02483 0.32466 0.06619 0.0
C1206 C 0.94921 0.32356 0.11863 0.0
C1207 C 0.93731 0.35224 0.07804 0.0
C1208 C 0.93022 0.35622 0.95554 0.0
C1209 C 0.93155 0.32988 0.87741 0.0
C1210 C 0.94353 0.30113 0.91831 0.0
H1211 H 0.05077 0.32893 0.0658 0.0
H1212 H 0.0148 0.33137 0.97727 0.0
H1213 H 0.01331 0.33968 0.13526 0.0
H1214 H 0.95766 0.32212 0.21064 0.0
H1215 H 0.93613 0.37181 0.14061 0.0
H1216 H 0.37232 0.7379 0.46261 0.0
H1217 H 0.41747 0.77248 0.49849 0.0
H1218 H 0.45297 0.7072 0.76398 0.0
H1219 H 0.40636 0.67324 0.73354 0.0
H1220 H 0.46887 0.78042 0.81389 0.0
H1221 H 0.46168 0.71006 0.44265 0.0
H1222 H 0.48652 0.71912 0.31944 0.0
H1223 H 0.45415 0.74417 0.35299 0.0
C1224 C 0.38874 0.73151 0.53277 0.0
C1225 C 0.38583 0.70264 0.59471 0.0
C1226 C 0.41463 0.75135 0.55312 0.0
C1227 C 0.4386 0.74192 0.63198 0.0
C1228 C 0.43447 0.71475 0.70283 0.0
H1229 H 0.64658 0.8316 0.76565 0.0
H1230 H 0.59686 0.80236 0.79129 0.0
C1231 C 0.40789 0.69529 0.68505 0.0
C1232 C 0.46997 0.7565 0.62021 0.0
H1233 H 0.56355 0.78751 0.43549 0.0
C1234 C 0.48406 0.77899 0.73529 0.0
C1235 C 0.49106 0.75135 0.48771 0.0
C1236 C 0.47329 0.73005 0.39473 0.0
C1237 C 0.51865 0.80016 0.74186 0.0
C1238 C 0.54703 0.80331 0.63367 0.0
C1239 C 0.54411 0.78383 0.49981 0.0
C1240 C 0.57328 0.82597 0.64385 0.0
C1241 C 0.52403 0.81874 0.85557 0.0
C1242 C 0.5758 0.84972 0.55641 0.0
C1243 C 0.60439 0.86562 0.53899 0.0
C1244 C 0.63085 0.85824 0.61002 0.0
C1245 C 0.62706 0.83712 0.70715 0.0
C1246 C 0.59846 0.82069 0.72318 0.0
H1247 H 0.50259 0.81879 0.91373 0.0
H1248 H 0.54393 0.80809 0.9064 0.0
H1249 H 0.53082 0.84349 0.8332 0.0
H1250 H 0.55628 0.8544 0.496 0.0
H1251 H 0.60631 0.8822 0.46472 0.0
H1252 H 0.6204 0.18028 0.23218 0.0
H1253 H 0.59591 0.23141 0.27198 0.0
H1254 H 0.53707 0.1889 0.54685 0.0
H1255 H 0.56244 0.13787 0.5108 0.0
H1256 H 0.51668 0.26619 0.27919 0.0
H1257 H 0.56367 0.27677 0.68907 0.0
H1258 H 0.58688 0.24872 0.60429 0.0
H1259 H 0.55081 0.23621 0.67626 0.0
C1260 C 0.6027 0.18191 0.30283 0.0
C1261 C 0.59289 0.15485 0.36668 0.0
C1262 C 0.58881 0.21117 0.32575 0.0
C1263 C 0.56457 0.21393 0.41195 0.0
C1264 C 0.55598 0.18739 0.48092 0.0
H1265 H 0.41979 0.35695 0.52809 0.0
H1266 H 0.45167 0.30862 0.52513 0.0
C1267 C 0.57025 0.15809 0.45904 0.0
C1268 C 0.54519 0.24294 0.41411 0.0
H1269 H 0.52434 0.30449 0.59127 0.0
C1270 C 0.5292 0.24903 0.30762 0.0
C1271 C 0.54375 0.26311 0.51367 0.0
C1272 C 0.56236 0.25606 0.62711 0.0
C1273 C 0.50934 0.27892 0.27988 0.0
C1274 C 0.50814 0.30021 0.40687 0.0
C1275 C 0.52511 0.29015 0.50959 0.0
C1276 C 0.49168 0.33077 0.43588 0.0
C1277 C 0.48274 0.2931 0.0398 0.0
C1278 C 0.50626 0.36008 0.41103 0.0
C1279 C 0.48819 0.38766 0.41247 0.0
C1280 C 0.45642 0.38655 0.44974 0.0
C1281 C 0.44427 0.35846 0.49954 0.0
C1282 C 0.46218 0.33067 0.49475 0.0
H1283 H 0.48637 0.27769 0.95712 0.0
H1284 H 0.45635 0.29521 0.02383 0.0
H1285 H 0.48852 0.31585 -0.00985 0.0
H1286 H 0.53031 0.36104 0.37694 0.0
H1287 H 0.49826 0.4092 0.37526 0.0
H1288 H 0.07217 0.37582 0.24245 0.0
H1289 H 0.02825 0.3491 0.34193 0.0
H1290 H 0.08873 0.26929 0.41755 0.0
H1291 H 0.13048 0.29432 0.30167 0.0
H1292 H 0.04885 0.2444 0.32702 0.0
H1293 H 0.9732 0.3154 0.58432 0.0
H1294 H 0.98066 0.34298 0.46529 0.0
H1295 H 0.01313 0.32955 0.55871 0.0
C1296 C 0.07621 0.35296 0.28387 0.0
C1297 C 0.10501 0.33731 0.26594 0.0
C1298 C 0.05107 0.33765 0.34309 0.0
C1299 C 0.05425 0.30626 0.38491 0.0
C1300 C 0.08477 0.29292 0.38322 0.0
H1301 H 0.9309 0.15213 0.28229 0.0
H1302 H 0.97149 0.19073 0.34701 0.0
C1303 C 0.1094 0.30771 0.31985 0.0
C1304 C 0.02551 0.28504 0.39078 0.0
H1305 H 0.94625 0.28187 0.42807 0.0
C1306 C 0.02629 0.25628 0.32617 0.0
C1307 C 0.99538 0.29554 0.42579 0.0
C1308 C 0.99067 0.32235 0.51386 0.0
C1309 C 1.00343 0.25131 0.22684 0.0
C1310 C 0.97271 0.25429 0.29617 0.0
C1311 C 0.96922 0.27777 0.38696 0.0
C1312 C 0.94515 0.23169 0.28876 0.0
C1313 C 0.01655 0.2462 0.96656 0.0
C1314 C 0.91564 0.24217 0.24578 0.0
C1315 C 0.89279 0.2202 0.20704 0.0
C1316 C 0.89834 0.18755 0.21702 0.0
C1317 C 0.92606 0.17721 0.27437 0.0
C1318 C 0.94932 0.19919 0.31034 0.0
H1319 H 0.03385 0.26241 0.9182 0.0
H1320 H 0.027 0.22408 0.92505 0.0
H1321 H 0.9975 0.24875 0.89532 0.0
H1322 H 0.91163 0.26714 0.23021 0.0
H1323 H 0.87169 0.22869 0.16207 0.0
H1324 H 0.9398 0.8823 0.16419 0.0
H1325 H 0.96629 0.83907 0.26768 0.0
H1326 H 0.03899 0.83994 -0.00593 0.0
H1327 H 0.01246 0.88304 0.89163 0.0
H1328 H 0.96906 0.78389 0.16118 0.0
H1329 H 0.09175 0.81458 0.27836 0.0
H1330 H 0.06072 0.84383 0.26841 0.0
H1331 H 0.08245 0.83223 0.13589 0.0
C1332 C 0.96158 0.87374 0.12712 0.0
C1333 C 0.97304 0.88511 0.01609 0.0
C1334 C 0.97703 0.84912 0.18738 0.0
C1335 C 1.00471 0.83592 0.13879 0.0
C1336 C 0.01797 0.84969 0.0349 0.0
H1337 H 0.08026 0.68539 0.84591 0.0
H1338 H 0.06979 0.73431 0.95654 0.0
C1339 C 1.00241 0.87407 0.97477 0.0
C1340 C 0.01582 0.80417 0.17771 0.0
H1341 H 0.08395 0.76123 0.18847 0.0
C1342 C 0.99409 0.77889 0.17099 0.0
C1343 C 0.04827 0.79754 0.1957 0.0
C1344 C 0.07203 0.82353 0.22164 0.0
C1345 C 1.00439 0.74745 0.162 0.0
C1346 C 0.0373 0.74116 0.16241 0.0
C1347 C 0.05875 0.76609 0.18559 0.0
C1348 C 0.0496 0.71101 0.11239 0.0
C1349 C 0.98012 0.72164 0.1397 0.0
C1350 C 0.04325 0.6815 0.16644 0.0
C1351 C 0.04969 0.65331 0.10375 0.0
C1352 C 0.06214 0.65445 -0.01395 0.0
C1353 C 0.07008 0.68392 0.93563 0.0
C1354 C 0.06431 0.71184 -0.00107 0.0
H1355 H 0.95567 0.73103 0.13191 0.0
H1356 H 0.98583 0.70855 0.05552 0.0
H1357 H 0.98054 0.70451 0.21555 0.0
H1358 H 0.03223 0.68031 0.25469 0.0
H1359 H 0.04356 0.63082 0.14466 0.0
loop_
_geom_bond_atom_site_label_1
_geom_bond_atom_site_label_2
_geom_bond_distance
_geom_bond_site_symmetry_2
_ccdc_geom_bond_type
Mg0 O7 2.141 . S
Mg0 O8 2.048 . S
Mg0 O9 2.048 . S
Mg0 O12 2.141 . S
C1 O2 1.313 . S
C1 O8 1.195 . S
O2 C1 1.313 . S
C3 O4 1.245 . S
C3 O12 1.289 . S
O4 C3 1.245 . S
C5 O6 1.245 . S
C5 O7 1.289 . S
O6 C5 1.245 . S
O7 Mg0 2.141 . S
O7 C5 1.289 . S
O8 Mg0 2.048 . S
O8 C1 1.195 . S
O9 Mg0 2.048 . S
O9 C10 1.195 . S
C10 O9 1.195 . S
C10 O11 1.313 . S
O11 C10 1.313 . S
O12 Mg0 2.141 . S
O12 C3 1.289 . S
Mg13 O20 2.141 . S
Mg13 O21 2.048 . S
Mg13 O22 2.048 . S
Mg13 O25 2.141 . S
C14 O15 1.313 . S
C14 O21 1.195 . S
O15 C14 1.313 . S
C16 O17 1.245 . S
C16 O25 1.289 . S
O17 C16 1.245 . S
C18 O19 1.245 . S
C18 O20 1.289 . S
O19 C18 1.245 . S
O20 Mg13 2.141 . S
O20 C18 1.289 . S
O21 Mg13 2.048 . S
O21 C14 1.195 . S
O22 Mg13 2.048 . S
O22 C23 1.195 . S
C23 O22 1.195 . S
C23 O24 1.313 . S
O24 C23 1.313 . S
O25 Mg13 2.141 . S
O25 C16 1.289 . S
Mg26 O33 2.141 . S
Mg26 O34 2.048 . S
Mg26 O35 2.048 . S
Mg26 O38 2.141 . S
C27 O28 1.313 . S
C27 O34 1.195 . S
O28 C27 1.313 . S
C29 O30 1.245 . S
C29 O38 1.289 . S
O30 C29 1.245 . S
C31 O32 1.245 . S
C31 O33 1.289 . S
O32 C31 1.245 . S
O33 Mg26 2.141 . S
O33 C31 1.289 . S
O34 Mg26 2.048 . S
O34 C27 1.195 . S
O35 Mg26 2.048 . S
O35 C36 1.195 . S
C36 O35 1.195 . S
C36 O37 1.313 . S
O37 C36 1.313 . S
O38 Mg26 2.141 . S
O38 C29 1.289 . S
Mg39 O46 2.141 . S
Mg39 O47 2.048 . S
Mg39 O48 2.048 . S
Mg39 O51 2.141 . S
C40 O41 1.313 1_554 S
C40 O47 1.195 . S
O41 C40 1.313 1_556 S
C42 O43 1.245 . S
C42 O51 1.289 1_556 S
O43 C42 1.245 . S
C44 O45 1.245 . S
C44 O46 1.289 1_556 S
O45 C44 1.245 . S
O46 Mg39 2.141 . S
O46 C44 1.289 1_554 S
O47 Mg39 2.048 . S
O47 C40 1.195 . S
O48 Mg39 2.048 . S
O48 C49 1.195 . S
C49 O48 1.195 . S
C49 O50 1.313 1_554 S
O50 C49 1.313 1_556 S
O51 Mg39 2.141 . S
O51 C42 1.289 1_554 S
Mg52 O59 2.141 . S
Mg52 O60 2.048 . S
Mg52 O61 2.048 . S
Mg52 O64 2.141 . S
C53 O54 1.313 . S
C53 O60 1.195 . S
O54 C53 1.313 . S
C55 O56 1.245 . S
C55 O64 1.289 . S
O56 C55 1.245 . S
C57 O58 1.245 . S
C57 O59 1.289 . S
O58 C57 1.245 . S
O59 Mg52 2.141 . S
O59 C57 1.289 . S
O60 Mg52 2.048 . S
O60 C53 1.195 . S
O61 Mg52 2.048 . S
O61 C62 1.195 . S
C62 O61 1.195 . S
C62 O63 1.313 . S
O63 C62 1.313 . S
O64 Mg52 2.141 . S
O64 C55 1.289 . S
Mg65 O72 2.141 . S
Mg65 O73 2.048 . S
Mg65 O74 2.048 . S
Mg65 O77 2.141 . S
C66 O67 1.313 . S
C66 O73 1.195 . S
O67 C66 1.313 . S
C68 O69 1.245 . S
C68 O77 1.289 . S
O69 C68 1.245 . S
C70 O71 1.245 . S
C70 O72 1.289 . S
O71 C70 1.245 . S
O72 Mg65 2.141 . S
O72 C70 1.289 . S
O73 Mg65 2.048 . S
O73 C66 1.195 . S
O74 Mg65 2.048 . S
O74 C75 1.195 . S
C75 O74 1.195 . S
C75 O76 1.313 . S
O76 C75 1.313 . S
O77 Mg65 2.141 . S
O77 C68 1.289 . S
Mg78 O85 2.141 . S
Mg78 O86 2.048 . S
Mg78 O87 2.048 . S
Mg78 O90 2.141 . S
C79 O80 1.313 . S
C79 O86 1.195 . S
O80 C79 1.313 . S
C81 O82 1.245 . S
C81 O90 1.289 . S
O82 C81 1.245 . S
C83 O84 1.245 . S
C83 O85 1.289 . S
O84 C83 1.245 . S
O85 Mg78 2.141 . S
O85 C83 1.289 . S
O86 Mg78 2.048 . S
O86 C79 1.195 . S
O87 Mg78 2.048 . S
O87 C88 1.195 . S
C88 O87 1.195 . S
C88 O89 1.313 . S
O89 C88 1.313 . S
O90 Mg78 2.141 . S
O90 C81 1.289 . S
Mg91 O98 2.141 . S
Mg91 O99 2.048 . S
Mg91 O100 2.048 . S
Mg91 O103 2.141 . S
C92 O93 1.313 . S
C92 O99 1.195 1_556 S
O93 C92 1.313 . S
C94 O95 1.245 1_554 S
C94 O103 1.289 . S
O95 C94 1.245 1_556 S
C96 O97 1.245 1_554 S
C96 O98 1.289 . S
O97 C96 1.245 1_556 S
O98 Mg91 2.141 . S
O98 C96 1.289 . S
O99 Mg91 2.048 . S
O99 C92 1.195 1_554 S
O100 Mg91 2.048 . S
O100 C101 1.195 1_554 S
C101 O100 1.195 1_556 S
C101 O102 1.313 . S
O102 C101 1.313 . S
O103 Mg91 2.141 . S
O103 C94 1.289 . S
Mg104 O111 2.141 . S
Mg104 O112 2.048 . S
Mg104 O113 2.048 . S
Mg104 O116 2.141 . S
C105 O106 1.313 . S
C105 O112 1.195 . S
O106 C105 1.313 . S
C107 O108 1.245 . S
C107 O116 1.289 . S
O108 C107 1.245 . S
C109 O110 1.245 . S
C109 O111 1.289 . S
O110 C109 1.245 . S
O111 Mg104 2.141 . S
O111 C109 1.289 . S
O112 Mg104 2.048 . S
O112 C105 1.195 . S
O113 Mg104 2.048 . S
O113 C114 1.195 . S
C114 O113 1.195 . S
C114 O115 1.313 . S
O115 C114 1.313 . S
O116 Mg104 2.141 . S
O116 C107 1.289 . S
Mg117 O124 2.141 . S
Mg117 O125 2.048 . S
Mg117 O126 2.048 . S
Mg117 O129 2.141 . S
C118 O119 1.313 1_554 S
C118 O125 1.195 . S
O119 C118 1.313 1_556 S
C120 O121 1.245 . S
C120 O129 1.289 1_556 S
O121 C120 1.245 . S
C122 O123 1.245 . S
C122 O124 1.289 1_556 S
O123 C122 1.245 . S
O124 Mg117 2.141 . S
O124 C122 1.289 1_554 S
O125 Mg117 2.048 . S
O125 C118 1.195 . S
O126 Mg117 2.048 . S
O126 C127 1.195 . S
C127 O126 1.195 . S
C127 O128 1.313 1_554 S
O128 C127 1.313 1_556 S
O129 Mg117 2.141 . S
O129 C120 1.289 1_554 S
Mg130 O137 2.141 . S
Mg130 O138 2.048 . S
Mg130 O139 2.048 . S
Mg130 O142 2.141 . S
C131 O132 1.313 . S
C131 O138 1.195 . S
O132 C131 1.313 . S
C133 O134 1.245 . S
C133 O142 1.289 . S
O134 C133 1.245 . S
C135 O136 1.245 . S
C135 O137 1.289 . S
O136 C135 1.245 . S
O137 Mg130 2.141 . S
O137 C135 1.289 . S
O138 Mg130 2.048 . S
O138 C131 1.195 . S
O139 Mg130 2.048 . S
O139 C140 1.195 . S
C140 O139 1.195 . S
C140 O141 1.313 . S
O141 C140 1.313 . S
O142 Mg130 2.141 . S
O142 C133 1.289 . S
Mg143 O150 2.141 . S
Mg143 O151 2.048 . S
Mg143 O152 2.048 . S
Mg143 O155 2.141 . S
C144 O145 1.313 . S
C144 O151 1.195 . S
O145 C144 1.313 . S
C146 O147 1.245 . S
C146 O155 1.289 . S
O147 C146 1.245 . S
C148 O149 1.245 . S
C148 O150 1.289 . S
O149 C148 1.245 . S
O150 Mg143 2.141 . S
O150 C148 1.289 . S
O151 Mg143 2.048 . S
O151 C144 1.195 . S
O152 Mg143 2.048 . S
O152 C153 1.195 . S
C153 O152 1.195 . S
C153 O154 1.313 . S
O154 C153 1.313 . S
O155 Mg143 2.141 . S
O155 C146 1.289 . S
Mg156 O163 2.141 . S
Mg156 O164 2.048 . S
Mg156 O165 2.048 . S
Mg156 O168 2.141 . S
C157 O158 1.313 . S
C157 O164 1.195 . S
O158 C157 1.313 . S
C159 O160 1.245 . S
C159 O168 1.289 . S
O160 C159 1.245 . S
C161 O162 1.245 . S
C161 O163 1.289 . S
O162 C161 1.245 . S
O163 Mg156 2.141 . S
O163 C161 1.289 . S
O164 Mg156 2.048 . S
O164 C157 1.195 . S
O165 Mg156 2.048 . S
O165 C166 1.195 . S
C166 O165 1.195 . S
C166 O167 1.313 . S
O167 C166 1.313 . S
O168 Mg156 2.141 . S
O168 C159 1.289 . S
Mg169 O176 2.141 . S
Mg169 O177 2.048 . S
Mg169 O178 2.048 . S
Mg169 O181 2.141 . S
C170 O171 1.313 . S
C170 O177 1.195 1_556 S
O171 C170 1.313 . S
C172 O173 1.245 1_554 S
C172 O181 1.289 . S
O173 C172 1.245 1_556 S
C174 O175 1.245 1_554 S
C174 O176 1.289 . S
O175 C174 1.245 1_556 S
O176 Mg169 2.141 . S
O176 C174 1.289 . S
O177 Mg169 2.048 . S
O177 C170 1.195 1_554 S
O178 Mg169 2.048 . S
O178 C179 1.195 1_554 S
C179 O178 1.195 1_556 S
C179 O180 1.313 . S
O180 C179 1.313 . S
O181 Mg169 2.141 . S
O181 C172 1.289 . S
Mg182 O189 2.141 . S
Mg182 O190 2.048 . S
Mg182 O191 2.048 . S
Mg182 O194 2.141 . S
C183 O184 1.313 . S
C183 O190 1.195 . S
O184 C183 1.313 . S
C185 O186 1.245 . S
C185 O194 1.289 . S
O186 C185 1.245 . S
C187 O188 1.245 . S
C187 O189 1.289 . S
O188 C187 1.245 . S
O189 Mg182 2.141 . S
O189 C187 1.289 . S
O190 Mg182 2.048 . S
O190 C183 1.195 . S
O191 Mg182 2.048 . S
O191 C192 1.195 . S
C192 O191 1.195 . S
C192 O193 1.313 . S
O193 C192 1.313 . S
O194 Mg182 2.141 . S
O194 C185 1.289 . S
Mg195 O202 2.141 . S
Mg195 O203 2.048 . S
Mg195 O204 2.048 . S
Mg195 O207 2.141 . S
C196 O197 1.313 . S
C196 O203 1.195 . S
O197 C196 1.313 . S
C198 O199 1.245 . S
C198 O207 1.289 . S
O199 C198 1.245 . S
C200 O201 1.245 . S
C200 O202 1.289 . S
O201 C200 1.245 . S
O202 Mg195 2.141 . S
O202 C200 1.289 . S
O203 Mg195 2.048 . S
O203 C196 1.195 . S
O204 Mg195 2.048 . S
O204 C205 1.195 . S
C205 O204 1.195 . S
C205 O206 1.313 . S
O206 C205 1.313 . S
O207 Mg195 2.141 . S
O207 C198 1.289 . S
H208 C216 0.929 . S
H209 C218 0.930 . S
H210 C220 0.930 1_554 S
H211 C223 0.929 . S
H212 C226 0.930 . S
H213 C228 0.960 . S
H214 C228 0.960 1_556 S
H215 C228 0.960 . S
C216 H208 0.929 . S
C216 C217 1.377 . S
C216 C218 1.384 . S
C217 C216 1.377 . S
C217 C223 1.390 . S
C218 H209 0.930 . S
C218 C216 1.384 . S
C218 C219 1.372 . S
C219 C218 1.372 . S
C219 C220 1.400 . S
C219 C224 1.490 . S
C220 H210 0.930 1_556 S
C220 C219 1.400 . S
C220 C223 1.386 . S
H221 C237 0.930 . S
H222 C238 0.931 . S
C223 H211 0.929 . S
C223 C217 1.390 . S
C223 C220 1.386 . S
C224 C219 1.490 . S
C224 C226 1.395 . S
C224 C227 1.403 1_566 S
H225 C231 0.930 . S
C226 H212 0.930 . S
C226 C224 1.395 . S
C226 C229 1.403 . S
C227 C224 1.403 1_544 S
C227 C228 1.524 . S
C227 C231 1.400 . S
C228 H213 0.960 . S
C228 H214 0.960 1_554 S
C228 H215 0.960 . S
C228 C227 1.524 . S
C229 C226 1.403 . S
C229 C230 1.392 1_566 S
C229 C233 1.495 . S
C230 C229 1.392 1_544 S
C230 C231 1.385 . S
C230 C232 1.478 . S
C231 H225 0.930 . S
C231 C227 1.400 . S
C231 C230 1.385 . S
C232 C230 1.478 . S
C232 C234 1.381 . S
C232 C238 1.383 . S
C233 C229 1.495 . S
C233 H239 0.959 . S
C233 H240 0.961 1_556 S
C233 H241 0.960 . S
C234 C232 1.381 . S
C234 C235 1.394 . S
C234 H242 0.930 1_554 S
C235 C234 1.394 . S
C235 C236 1.383 . S
C235 H243 0.929 . S
C236 C235 1.383 . S
C236 C237 1.377 . S
C237 H221 0.930 . S
C237 C236 1.377 . S
C237 C238 1.379 . S
C238 H222 0.931 . S
C238 C232 1.383 . S
C238 C237 1.379 . S
H239 C233 0.959 . S
H240 C233 0.961 1_554 S
H241 C233 0.960 . S
H242 C234 0.930 1_556 S
H243 C235 0.929 . S
H244 C252 0.929 . S
H245 C254 0.930 1_556 S
H246 C256 0.930 . S
H247 C259 0.929 . S
H248 C262 0.930 . S
H249 C264 0.960 . S
H250 C264 0.960 . S
H251 C264 0.960 . S
C252 H244 0.929 . S
C252 C253 1.377 1_556 S
C252 C254 1.384 1_556 S
C253 C252 1.377 1_554 S
C253 C259 1.390 . S
C254 H245 0.930 1_554 S
C254 C252 1.384 1_554 S
C254 C255 1.372 . S
C255 C254 1.372 . S
C255 C256 1.400 . S
C255 C260 1.490 . S
C256 H246 0.930 . S
C256 C255 1.400 . S
C256 C259 1.386 . S
H257 C273 0.930 . S
H258 C274 0.931 . S
C259 H247 0.929 . S
C259 C253 1.390 . S
C259 C256 1.386 . S
C260 C255 1.490 . S
C260 C262 1.395 . S
C260 C263 1.403 . S
H261 C267 0.930 . S
C262 H248 0.930 . S
C262 C260 1.395 . S
C262 C265 1.403 . S
C263 C260 1.403 . S
C263 C264 1.524 . S
C263 C267 1.400 . S
C264 H249 0.960 . S
C264 H250 0.960 . S
C264 H251 0.960 . S
C264 C263 1.524 . S
C265 C262 1.403 . S
C265 C266 1.392 . S
C265 C269 1.495 . S
C266 C265 1.392 . S
C266 C267 1.385 . S
C266 C268 1.478 . S
C267 H261 0.930 . S
C267 C263 1.400 . S
C267 C266 1.385 . S
C268 C266 1.478 . S
C268 C270 1.381 . S
C268 C274 1.383 . S
C269 C265 1.495 . S
C269 H275 0.959 . S
C269 H276 0.961 . S
C269 H277 0.960 . S
C270 C268 1.381 . S
C270 C271 1.394 . S
C270 H278 0.930 . S
C271 C270 1.394 . S
C271 C272 1.383 . S
C271 H279 0.929 . S
C272 C271 1.383 . S
C272 C273 1.377 . S
C273 H257 0.930 . S
C273 C272 1.377 . S
C273 C274 1.379 . S
C274 H258 0.931 . S
C274 C268 1.383 . S
C274 C273 1.379 . S
H275 C269 0.959 . S
H276 C269 0.961 . S
H277 C269 0.960 . S
H278 C270 0.930 . S
H279 C271 0.929 . S
H280 C288 0.929 . S
H281 C290 0.930 . S
H282 C292 0.913 1_545 S
H283 C295 0.929 . S
H284 C298 0.930 . S
H285 C300 0.960 . S
H286 C300 0.960 1_565 S
H287 C300 0.960 . S
C288 H280 0.929 . S
C288 C289 1.377 . S
C288 C290 1.384 . S
C289 C288 1.377 . S
C289 C295 1.390 . S
C290 H281 0.930 . S
C290 C288 1.384 . S
C290 C291 1.372 . S
C291 C290 1.372 . S
C291 C292 1.400 . S
C291 C296 1.490 . S
C292 H282 0.913 1_565 S
C292 C291 1.400 . S
C292 C295 1.386 . S
H293 C309 0.930 . S
H294 C310 0.931 . S
C295 H283 0.929 . S
C295 C289 1.390 . S
C295 C292 1.386 . S
C296 C291 1.490 . S
C296 C298 1.395 1_455 S
C296 C299 1.403 1_565 S
H297 C303 0.929 1_455 S
C298 H284 0.930 . S
C298 C296 1.395 1_655 S
C298 C301 1.403 . S
C299 C296 1.403 1_545 S
C299 C300 1.524 . S
C299 C303 1.370 1_455 S
C300 H285 0.960 . S
C300 H286 0.960 1_545 S
C300 H287 0.960 . S
C300 C299 1.524 . S
C301 C298 1.403 . S
C301 C302 1.392 1_565 S
C301 C305 1.495 . S
C302 C301 1.392 1_545 S
C302 C303 1.417 . S
C302 C304 1.478 . S
C303 H297 0.929 1_655 S
C303 C299 1.370 1_655 S
C303 C302 1.417 . S
C304 C302 1.478 . S
C304 C306 1.381 . S
C304 C310 1.383 . S
C305 C301 1.495 . S
C305 H311 0.959 . S
C305 H312 0.961 1_565 S
C305 H313 0.960 . S
C306 C304 1.381 . S
C306 C307 1.394 . S
C306 H314 0.930 1_545 S
C307 C306 1.394 . S
C307 C308 1.383 . S
C307 H315 0.929 . S
C308 C307 1.383 . S
C308 C309 1.377 . S
C309 H293 0.930 . S
C309 C308 1.377 . S
C309 C310 1.379 . S
C310 H294 0.931 . S
C310 C304 1.383 . S
C310 C309 1.379 . S
H311 C305 0.959 . S
H312 C305 0.961 1_545 S
H313 C305 0.960 . S
H314 C306 0.930 1_565 S
H315 C307 0.929 . S
H316 C324 0.929 . S
H317 C326 0.930 . S
H318 C328 0.930 . S
H319 C331 0.929 . S
H320 C334 0.930 . S
H321 C336 0.960 . S
H322 C336 0.960 . S
H323 C336 0.960 . S
C324 H316 0.929 . S
C324 C325 1.377 . S
C324 C326 1.384 . S
C325 C324 1.377 . S
C325 C331 1.390 . S
C326 H317 0.930 . S
C326 C324 1.384 . S
C326 C327 1.372 . S
C327 C326 1.372 . S
C327 C328 1.400 . S
C327 C332 1.490 . S
C328 H318 0.930 . S
C328 C327 1.400 . S
C328 C331 1.386 . S
H329 C345 0.930 . S
H330 C346 0.931 . S
C331 H319 0.929 . S
C331 C325 1.390 . S
C331 C328 1.386 . S
C332 C327 1.490 . S
C332 C334 1.395 . S
C332 C335 1.403 . S
H333 C339 0.930 . S
C334 H320 0.930 . S
C334 C332 1.395 . S
C334 C337 1.403 . S
C335 C332 1.403 . S
C335 C336 1.524 . S
C335 C339 1.400 . S
C336 H321 0.960 . S
C336 H322 0.960 . S
C336 H323 0.960 . S
C336 C335 1.524 . S
C337 C334 1.403 . S
C337 C338 1.392 . S
C337 C341 1.495 . S
C338 C337 1.392 . S
C338 C339 1.385 . S
C338 C340 1.478 . S
C339 H333 0.930 . S
C339 C335 1.400 . S
C339 C338 1.385 . S
C340 C338 1.478 . S
C340 C342 1.381 . S
C340 C346 1.383 . S
C341 C337 1.495 . S
C341 H347 0.959 . S
C341 H348 0.961 . S
C341 H349 0.960 . S
C342 C340 1.381 . S
C342 C343 1.394 . S
C342 H350 0.930 . S
C343 C342 1.394 . S
C343 C344 1.383 . S
C343 H351 0.929 1_556 S
C344 C343 1.383 . S
C344 C345 1.377 . S
C345 H329 0.930 . S
C345 C344 1.377 . S
C345 C346 1.379 . S
C346 H330 0.931 . S
C346 C340 1.383 . S
C346 C345 1.379 . S
H347 C341 0.959 . S
H348 C341 0.961 . S
H349 C341 0.960 . S
H350 C342 0.930 . S
H351 C343 0.929 1_554 S
H352 C360 0.929 . S
H353 C362 0.930 . S
H354 C364 0.930 1_554 S
H355 C367 0.929 . S
H356 C370 0.930 . S
H357 C372 0.960 . S
H358 C372 0.960 . S
H359 C372 0.960 1_554 S
C360 H352 0.929 . S
C360 C361 1.377 . S
C360 C362 1.384 . S
C361 C360 1.377 . S
C361 C367 1.390 1_556 S
C362 H353 0.930 . S
C362 C360 1.384 . S
C362 C363 1.372 . S
C363 C362 1.372 . S
C363 C364 1.400 . S
C363 C368 1.490 . S
C364 H354 0.930 1_556 S
C364 C363 1.400 . S
C364 C367 1.386 1_556 S
H365 C381 0.930 . S
H366 C382 0.931 . S
C367 H355 0.929 . S
C367 C361 1.390 1_554 S
C367 C364 1.386 1_554 S
C368 C363 1.490 . S
C368 C370 1.395 . S
C368 C371 1.403 . S
H369 C375 0.930 . S
C370 H356 0.930 . S
C370 C368 1.395 . S
C370 C373 1.403 . S
C371 C368 1.403 . S
C371 C372 1.524 . S
C371 C375 1.400 . S
C372 H357 0.960 . S
C372 H358 0.960 . S
C372 H359 0.960 1_556 S
C372 C371 1.524 . S
C373 C370 1.403 . S
C373 C374 1.392 . S
C373 C377 1.495 . S
C374 C373 1.392 . S
C374 C375 1.385 . S
C374 C376 1.478 . S
C375 H369 0.930 . S
C375 C371 1.400 . S
C375 C374 1.385 . S
C376 C374 1.478 . S
C376 C378 1.381 . S
C376 C382 1.383 . S
C377 C373 1.495 . S
C377 H383 0.959 . S
C377 H384 0.961 . S
C377 H385 0.960 . S
C378 C376 1.381 . S
C378 C379 1.394 . S
C378 H386 0.930 . S
C379 C378 1.394 . S
C379 C380 1.383 . S
C379 H387 0.929 . S
C380 C379 1.383 . S
C380 C381 1.377 . S
C381 H365 0.930 . S
C381 C380 1.377 . S
C381 C382 1.379 . S
C382 H366 0.931 . S
C382 C376 1.383 . S
C382 C381 1.379 . S
H383 C377 0.959 . S
H384 C377 0.961 . S
H385 C377 0.960 . S
H386 C378 0.930 . S
H387 C379 0.929 . S
H388 C396 0.929 . S
H389 C398 0.930 . S
H390 C400 0.930 . S
H391 C403 0.929 . S
H392 C406 0.930 . S
H393 C408 0.960 . S
H394 C408 0.960 . S
H395 C408 0.960 . S
C396 H388 0.929 . S
C396 C397 1.377 . S
C396 C398 1.384 . S
C397 C396 1.377 . S
C397 C403 1.390 . S
C398 H389 0.930 . S
C398 C396 1.384 . S
C398 C399 1.372 . S
C399 C398 1.372 . S
C399 C400 1.400 . S
C399 C404 1.490 . S
C400 H390 0.930 . S
C400 C399 1.400 . S
C400 C403 1.386 . S
H401 C417 0.930 1_556 S
H402 C418 0.931 . S
C403 H391 0.929 . S
C403 C397 1.390 . S
C403 C400 1.386 . S
C404 C399 1.490 . S
C404 C406 1.395 . S
C404 C407 1.403 . S
H405 C411 0.930 . S
C406 H392 0.930 . S
C406 C404 1.395 . S
C406 C409 1.403 . S
C407 C404 1.403 . S
C407 C408 1.524 . S
C407 C411 1.400 . S
C408 H393 0.960 . S
C408 H394 0.960 . S
C408 H395 0.960 . S
C408 C407 1.524 . S
C409 C406 1.403 . S
C409 C410 1.392 . S
C409 C413 1.495 . S
C410 C409 1.392 . S
C410 C411 1.385 . S
C410 C412 1.478 . S
C411 H405 0.930 . S
C411 C407 1.400 . S
C411 C410 1.385 . S
C412 C410 1.478 . S
C412 C414 1.381 . S
C412 C418 1.383 . S
C413 C409 1.495 . S
C413 H419 0.959 . S
C413 H420 0.961 . S
C413 H421 0.960 . S
C414 C412 1.381 . S
C414 C415 1.394 . S
C414 H422 0.930 . S
C415 C414 1.394 . S
C415 C416 1.383 . S
C415 H423 0.929 . S
C416 C415 1.383 . S
C416 C417 1.377 . S
C417 H401 0.930 1_554 S
C417 C416 1.377 . S
C417 C418 1.379 . S
C418 H402 0.931 . S
C418 C412 1.383 . S
C418 C417 1.379 . S
H419 C413 0.959 . S
H420 C413 0.961 . S
H421 C413 0.960 . S
H422 C414 0.930 . S
H423 C415 0.929 . S
H424 C432 0.929 . S
H425 C434 0.930 . S
H426 C436 0.930 . S
H427 C439 0.929 . S
H428 C442 0.930 . S
H429 C444 0.960 . S
H430 C444 0.960 . S
H431 C444 0.960 . S
C432 H424 0.929 . S
C432 C433 1.377 . S
C432 C434 1.384 . S
C433 C432 1.377 . S
C433 C439 1.390 . S
C434 H425 0.930 . S
C434 C432 1.384 . S
C434 C435 1.372 . S
C435 C434 1.372 . S
C435 C436 1.400 . S
C435 C440 1.490 . S
C436 H426 0.930 . S
C436 C435 1.400 . S
C436 C439 1.386 . S
H437 C453 0.930 . S
H438 C454 0.931 . S
C439 H427 0.929 . S
C439 C433 1.390 . S
C439 C436 1.386 . S
C440 C435 1.490 . S
C440 C442 1.395 1_655 S
C440 C443 1.403 . S
H441 C447 0.931 . S
C442 H428 0.930 . S
C442 C440 1.395 1_455 S
C442 C445 1.403 . S
C443 C440 1.403 . S
C443 C444 1.524 . S
C443 C447 1.406 . S
C444 H429 0.960 . S
C444 H430 0.960 . S
C444 H431 0.960 . S
C444 C443 1.524 . S
C445 C442 1.403 . S
C445 C446 1.392 . S
C445 C449 1.495 . S
C446 C445 1.392 . S
C446 C447 1.378 1_455 S
C446 C448 1.478 . S
C447 H441 0.931 . S
C447 C443 1.406 . S
C447 C446 1.378 1_655 S
C448 C446 1.478 . S
C448 C450 1.381 . S
C448 C454 1.383 . S
C449 C445 1.495 . S
C449 H455 0.959 . S
C449 H456 0.961 . S
C449 H457 0.960 . S
C450 C448 1.381 . S
C450 C451 1.394 . S
C450 H458 0.930 . S
C451 C450 1.394 . S
C451 C452 1.383 . S
C451 H459 0.929 . S
C452 C451 1.383 . S
C452 C453 1.377 . S
C453 H437 0.930 . S
C453 C452 1.377 . S
C453 C454 1.379 . S
C454 H438 0.931 . S
C454 C448 1.383 . S
C454 C453 1.379 . S
H455 C449 0.959 . S
H456 C449 0.961 . S
H457 C449 0.960 . S
H458 C450 0.930 . S
H459 C451 0.929 . S
H460 C468 0.929 . S
H461 C470 0.930 . S
H462 C472 0.930 . S
H463 C475 0.929 . S
H464 C478 0.930 . S
H465 C480 0.960 . S
H466 C480 0.960 . S
H467 C480 0.957 1_556 S
C468 H460 0.929 . S
C468 C469 1.377 . S
C468 C470 1.384 . S
C469 C468 1.377 . S
C469 C475 1.390 . S
C470 H461 0.930 . S
C470 C468 1.384 . S
C470 C471 1.372 . S
C471 C470 1.372 . S
C471 C472 1.400 . S
C471 C476 1.490 . S
C472 H462 0.930 . S
C472 C471 1.400 . S
C472 C475 1.386 . S
H473 C489 0.930 . S
H474 C490 0.931 1_556 S
C475 H463 0.929 . S
C475 C469 1.390 . S
C475 C472 1.386 . S
C476 C471 1.490 . S
C476 C478 1.395 . S
C476 C479 1.403 1_556 S
H477 C483 0.930 . S
C478 H464 0.930 . S
C478 C476 1.395 . S
C478 C481 1.403 . S
C479 C476 1.403 1_554 S
C479 C480 1.524 . S
C479 C483 1.400 . S
C480 H465 0.960 . S
C480 H466 0.960 . S
C480 H467 0.957 1_554 S
C480 C479 1.524 . S
C481 C478 1.403 . S
C481 C482 1.392 1_556 S
C481 C485 1.495 . S
C482 C481 1.392 1_554 S
C482 C483 1.385 . S
C482 C484 1.478 . S
C483 H477 0.930 . S
C483 C479 1.400 . S
C483 C482 1.385 . S
C484 C482 1.478 . S
C484 C486 1.381 . S
C484 C490 1.383 . S
C485 C481 1.495 . S
C485 H491 0.959 . S
C485 H492 0.961 . S
C485 H493 0.960 1_556 S
C486 C484 1.381 . S
C486 C487 1.394 . S
C486 H494 0.930 . S
C487 C486 1.394 . S
C487 C488 1.383 . S
C487 H495 0.929 . S
C488 C487 1.383 . S
C488 C489 1.377 . S
C489 H473 0.930 . S
C489 C488 1.377 . S
C489 C490 1.379 . S
C490 H474 0.931 1_554 S
C490 C484 1.383 . S
C490 C489 1.379 . S
H491 C485 0.959 . S
H492 C485 0.961 . S
H493 C485 0.960 1_554 S
H494 C486 0.930 . S
H495 C487 0.929 . S
H496 C504 0.929 . S
H497 C506 0.930 . S
H498 C508 0.930 . S
H499 C511 0.929 . S
H500 C514 0.930 . S
H501 C516 0.960 . S
H502 C516 0.960 . S
H503 C516 0.960 1_556 S
C504 H496 0.929 . S
C504 C505 1.377 . S
C504 C506 1.384 . S
C505 C504 1.377 . S
C505 C511 1.390 1_554 S
C506 H497 0.930 . S
C506 C504 1.384 . S
C506 C507 1.372 . S
C507 C506 1.372 . S
C507 C508 1.400 1_554 S
C507 C512 1.490 . S
C508 H498 0.930 . S
C508 C507 1.400 1_556 S
C508 C511 1.386 . S
H509 C525 0.930 . S
H510 C526 0.931 . S
C511 H499 0.929 . S
C511 C505 1.390 1_556 S
C511 C508 1.386 . S
C512 C507 1.490 . S
C512 C514 1.395 . S
C512 C515 1.403 . S
H513 C519 0.930 . S
C514 H500 0.930 . S
C514 C512 1.395 . S
C514 C517 1.403 . S
C515 C512 1.403 . S
C515 C516 1.524 . S
C515 C519 1.400 . S
C516 H501 0.960 . S
C516 H502 0.960 . S
C516 H503 0.960 1_554 S
C516 C515 1.524 . S
C517 C514 1.403 . S
C517 C518 1.392 . S
C517 C521 1.495 . S
C518 C517 1.392 . S
C518 C519 1.385 . S
C518 C520 1.478 . S
C519 H513 0.930 . S
C519 C515 1.400 . S
C519 C518 1.385 . S
C520 C518 1.478 . S
C520 C522 1.381 . S
C520 C526 1.383 . S
C521 C517 1.495 . S
C521 H527 0.959 . S
C521 H528 0.961 . S
C521 H529 0.960 . S
C522 C520 1.381 . S
C522 C523 1.394 . S
C522 H530 0.930 . S
C523 C522 1.394 . S
C523 C524 1.383 . S
C523 H531 0.929 . S
C524 C523 1.383 . S
C524 C525 1.377 . S
C525 H509 0.930 . S
C525 C524 1.377 . S
C525 C526 1.379 . S
C526 H510 0.931 . S
C526 C520 1.383 . S
C526 C525 1.379 . S
H527 C521 0.959 . S
H528 C521 0.961 . S
H529 C521 0.960 . S
H530 C522 0.930 . S
H531 C523 0.929 . S
H532 C540 0.929 . S
H533 C542 0.930 . S
H534 C544 0.930 . S
H535 C547 0.929 . S
H536 C550 0.930 . S
H537 C552 0.960 . S
H538 C552 0.960 . S
H539 C552 0.960 . S
C540 H532 0.929 . S
C540 C541 1.377 . S
C540 C542 1.384 . S
C541 C540 1.377 . S
C541 C547 1.390 . S
C542 H533 0.930 . S
C542 C540 1.384 . S
C542 C543 1.372 . S
C543 C542 1.372 . S
C543 C544 1.400 . S
C543 C548 1.490 . S
C544 H534 0.930 . S
C544 C543 1.400 . S
C544 C547 1.386 . S
H545 C561 0.930 . S
H546 C562 0.931 . S
C547 H535 0.929 . S
C547 C541 1.390 . S
C547 C544 1.386 . S
C548 C543 1.490 . S
C548 C550 1.395 . S
C548 C551 1.403 . S
H549 C555 0.930 . S
C550 H536 0.930 . S
C550 C548 1.395 . S
C550 C553 1.403 . S
C551 C548 1.403 . S
C551 C552 1.524 . S
C551 C555 1.400 . S
C552 H537 0.960 . S
C552 H538 0.960 . S
C552 H539 0.960 . S
C552 C551 1.524 . S
C553 C550 1.403 . S
C553 C554 1.392 . S
C553 C557 1.495 . S
C554 C553 1.392 . S
C554 C555 1.385 . S
C554 C556 1.478 . S
C555 H549 0.930 . S
C555 C551 1.400 . S
C555 C554 1.385 . S
C556 C554 1.478 . S
C556 C558 1.381 . S
C556 C562 1.383 . S
C557 C553 1.495 . S
C557 H563 0.959 . S
C557 H564 0.961 . S
C557 H565 0.960 . S
C558 C556 1.381 . S
C558 C559 1.394 . S
C558 H566 0.930 . S
C559 C558 1.394 . S
C559 C560 1.383 . S
C559 H567 0.929 . S
C560 C559 1.383 . S
C560 C561 1.377 . S
C561 H545 0.930 . S
C561 C560 1.377 . S
C561 C562 1.379 . S
C562 H546 0.931 . S
C562 C556 1.383 . S
C562 C561 1.379 . S
H563 C557 0.959 . S
H564 C557 0.961 . S
H565 C557 0.960 . S
H566 C558 0.930 . S
H567 C559 0.929 . S
H568 C576 0.929 . S
H569 C578 0.930 . S
H570 C580 0.930 . S
H571 C583 0.929 . S
H572 C586 0.930 . S
H573 C588 0.960 . S
H574 C588 0.960 . S
H575 C588 0.960 . S
C576 H568 0.929 . S
C576 C577 1.377 . S
C576 C578 1.384 . S
C577 C576 1.377 . S
C577 C583 1.390 . S
C578 H569 0.930 . S
C578 C576 1.384 . S
C578 C579 1.372 . S
C579 C578 1.372 . S
C579 C580 1.400 . S
C579 C584 1.490 . S
C580 H570 0.930 . S
C580 C579 1.400 . S
C580 C583 1.386 . S
H581 C597 0.930 . S
H582 C598 0.931 . S
C583 H571 0.929 . S
C583 C577 1.390 . S
C583 C580 1.386 . S
C584 C579 1.490 . S
C584 C586 1.395 . S
C584 C587 1.403 . S
H585 C591 0.930 . S
C586 H572 0.930 . S
C586 C584 1.395 . S
C586 C589 1.403 . S
C587 C584 1.403 . S
C587 C588 1.524 . S
C587 C591 1.400 . S
C588 H573 0.960 . S
C588 H574 0.960 . S
C588 H575 0.960 . S
C588 C587 1.524 . S
C589 C586 1.403 . S
C589 C590 1.392 . S
C589 C593 1.495 . S
C590 C589 1.392 . S
C590 C591 1.385 . S
C590 C592 1.478 . S
C591 H585 0.930 . S
C591 C587 1.400 . S
C591 C590 1.385 . S
C592 C590 1.478 . S
C592 C594 1.381 . S
C592 C598 1.383 . S
C593 C589 1.495 . S
C593 H599 0.959 . S
C593 H600 0.961 . S
C593 H601 0.960 . S
C594 C592 1.381 . S
C594 C595 1.394 . S
C594 H602 0.930 . S
C595 C594 1.394 . S
C595 C596 1.383 . S
C595 H603 0.929 . S
C596 C595 1.383 . S
C596 C597 1.377 . S
C597 H581 0.930 . S
C597 C596 1.377 . S
C597 C598 1.379 . S
C598 H582 0.931 . S
C598 C592 1.383 . S
C598 C597 1.379 . S
H599 C593 0.959 . S
H600 C593 0.961 . S
H601 C593 0.960 . S
H602 C594 0.930 . S
H603 C595 0.929 . S
H604 C612 0.929 1_655 S
H605 C614 0.930 . S
H606 C616 0.930 . S
H607 C619 0.929 . S
H608 C622 0.930 . S
H609 C624 0.960 . S
H610 C624 0.960 . S
H611 C624 0.960 . S
C612 H604 0.929 1_455 S
C612 C613 1.377 1_455 S
C612 C614 1.384 . S
C613 C612 1.377 1_655 S
C613 C619 1.390 1_654 S
C614 H605 0.930 . S
C614 C612 1.384 . S
C614 C615 1.372 1_554 S
C615 C614 1.372 1_556 S
C615 C616 1.400 . S
C615 C620 1.490 . S
C616 H606 0.930 . S
C616 C615 1.400 . S
C616 C619 1.386 . S
H617 C633 0.930 . S
H618 C634 0.931 . S
C619 H607 0.929 . S
C619 C613 1.390 1_456 S
C619 C616 1.386 . S
C620 C615 1.490 . S
C620 C622 1.395 1_556 S
C620 C623 1.403 . S
H621 C627 0.930 . S
C622 H608 0.930 . S
C622 C620 1.395 1_554 S
C622 C625 1.403 . S
C623 C620 1.403 . S
C623 C624 1.524 . S
C623 C627 1.400 . S
C624 H609 0.960 . S
C624 H610 0.960 . S
C624 H611 0.960 . S
C624 C623 1.524 . S
C625 C622 1.403 . S
C625 C626 1.392 1_554 S
C625 C629 1.495 . S
C626 C625 1.392 1_556 S
C626 C627 1.385 . S
C626 C628 1.478 . S
C627 H621 0.930 . S
C627 C623 1.400 . S
C627 C626 1.385 . S
C628 C626 1.478 . S
C628 C630 1.381 . S
C628 C634 1.383 . S
C629 C625 1.495 . S
C629 H635 0.959 . S
C629 H636 0.961 . S
C629 H637 0.960 . S
C630 C628 1.381 . S
C630 C631 1.394 . S
C630 H638 0.930 . S
C631 C630 1.394 . S
C631 C632 1.383 . S
C631 H639 0.929 . S
C632 C631 1.383 . S
C632 C633 1.377 . S
C633 H617 0.930 . S
C633 C632 1.377 . S
C633 C634 1.379 . S
C634 H618 0.931 . S
C634 C628 1.383 . S
C634 C633 1.379 . S
H635 C629 0.959 . S
H636 C629 0.961 . S
H637 C629 0.960 . S
H638 C630 0.930 . S
H639 C631 0.929 . S
H640 C648 0.929 . S
H641 C650 0.930 . S
H642 C652 0.930 . S
H643 C655 0.929 . S
H644 C658 0.930 . S
H645 C660 0.960 . S
H646 C660 0.960 . S
H647 C660 0.960 . S
C648 H640 0.929 . S
C648 C649 1.377 . S
C648 C650 1.384 . S
C649 C648 1.377 . S
C649 C655 1.390 . S
C650 H641 0.930 . S
C650 C648 1.384 . S
C650 C651 1.372 . S
C651 C650 1.372 . S
C651 C652 1.400 . S
C651 C656 1.490 . S
C652 H642 0.930 . S
C652 C651 1.400 . S
C652 C655 1.386 . S
H653 C669 0.930 . S
H654 C670 0.931 . S
C655 H643 0.929 . S
C655 C649 1.390 . S
C655 C652 1.386 . S
C656 C651 1.490 . S
C656 C658 1.395 . S
C656 C659 1.403 . S
H657 C663 0.930 . S
C658 H644 0.930 . S
C658 C656 1.395 . S
C658 C661 1.403 . S
C659 C656 1.403 . S
C659 C660 1.524 . S
C659 C663 1.400 . S
C660 H645 0.960 . S
C660 H646 0.960 . S
C660 H647 0.960 . S
C660 C659 1.524 . S
C661 C658 1.403 . S
C661 C662 1.392 . S
C661 C665 1.495 . S
C662 C661 1.392 . S
C662 C663 1.385 . S
C662 C664 1.478 . S
C663 H657 0.930 . S
C663 C659 1.400 . S
C663 C662 1.385 . S
C664 C662 1.478 . S
C664 C666 1.381 . S
C664 C670 1.383 . S
C665 C661 1.495 . S
C665 H671 0.959 1_556 S
C665 H672 0.961 1_556 S
C665 H673 0.960 . S
C666 C664 1.381 . S
C666 C667 1.394 . S
C666 H674 0.930 . S
C667 C666 1.394 . S
C667 C668 1.383 . S
C667 H675 0.929 . S
C668 C667 1.383 . S
C668 C669 1.377 . S
C669 H653 0.930 . S
C669 C668 1.377 . S
C669 C670 1.379 . S
C670 H654 0.931 . S
C670 C664 1.383 . S
C670 C669 1.379 . S
H671 C665 0.959 1_554 S
H672 C665 0.961 1_554 S
H673 C665 0.960 . S
H674 C666 0.930 . S
H675 C667 0.929 . S
H676 C684 0.929 . S
H677 C686 0.930 . S
H678 C688 0.930 . S
H679 C691 0.929 . S
H680 C694 0.930 . S
H681 C696 0.960 . S
H682 C696 0.960 . S
H683 C696 0.960 . S
C684 H676 0.929 . S
C684 C685 1.377 . S
C684 C686 1.384 . S
C685 C684 1.377 . S
C685 C691 1.390 . S
C686 H677 0.930 . S
C686 C684 1.384 . S
C686 C687 1.372 . S
C687 C686 1.372 . S
C687 C688 1.400 . S
C687 C692 1.490 . S
C688 H678 0.930 . S
C688 C687 1.400 . S
C688 C691 1.386 . S
H689 C705 0.930 . S
H690 C706 0.931 . S
C691 H679 0.929 . S
C691 C685 1.390 . S
C691 C688 1.386 . S
C692 C687 1.490 . S
C692 C694 1.395 . S
C692 C695 1.403 . S
H693 C699 0.930 . S
C694 H680 0.930 . S
C694 C692 1.395 . S
C694 C697 1.403 . S
C695 C692 1.403 . S
C695 C696 1.524 . S
C695 C699 1.400 . S
C696 H681 0.960 . S
C696 H682 0.960 . S
C696 H683 0.960 . S
C696 C695 1.524 . S
C697 C694 1.403 . S
C697 C698 1.392 . S
C697 C701 1.495 . S
C698 C697 1.392 . S
C698 C699 1.385 . S
C698 C700 1.478 . S
C699 H693 0.930 . S
C699 C695 1.400 . S
C699 C698 1.385 . S
C700 C698 1.478 . S
C700 C702 1.381 . S
C700 C706 1.383 . S
C701 C697 1.495 . S
C701 H707 0.959 . S
C701 H708 0.961 . S
C701 H709 0.960 . S
C702 C700 1.381 . S
C702 C703 1.394 . S
C702 H710 0.930 . S
C703 C702 1.394 . S
C703 C704 1.383 . S
C703 H711 0.929 . S
C704 C703 1.383 . S
C704 C705 1.377 . S
C705 H689 0.930 . S
C705 C704 1.377 . S
C705 C706 1.379 . S
C706 H690 0.931 . S
C706 C700 1.383 . S
C706 C705 1.379 . S
H707 C701 0.959 . S
H708 C701 0.961 . S
H709 C701 0.960 . S
H710 C702 0.930 . S
H711 C703 0.929 . S
H712 C720 0.929 . S
H713 C722 0.930 . S
H714 C724 0.930 . S
H715 C727 0.929 . S
H716 C730 0.930 . S
H717 C732 0.960 . S
H718 C732 0.960 . S
H719 C732 0.960 . S
C720 H712 0.929 . S
C720 C721 1.377 . S
C720 C722 1.384 . S
C721 C720 1.377 . S
C721 C727 1.390 . S
C722 H713 0.930 . S
C722 C720 1.384 . S
C722 C723 1.372 . S
C723 C722 1.372 . S
C723 C724 1.400 . S
C723 C728 1.490 . S
C724 H714 0.930 . S
C724 C723 1.400 . S
C724 C727 1.386 . S
H725 C741 0.930 . S
H726 C742 0.931 . S
C727 H715 0.929 . S
C727 C721 1.390 . S
C727 C724 1.386 . S
C728 C723 1.490 . S
C728 C730 1.395 . S
C728 C731 1.403 . S
H729 C735 0.930 . S
C730 H716 0.930 . S
C730 C728 1.395 . S
C730 C733 1.403 . S
C731 C728 1.403 . S
C731 C732 1.524 . S
C731 C735 1.400 . S
C732 H717 0.960 . S
C732 H718 0.960 . S
C732 H719 0.960 . S
C732 C731 1.524 . S
C733 C730 1.403 . S
C733 C734 1.392 . S
C733 C737 1.495 . S
C734 C733 1.392 . S
C734 C735 1.385 . S
C734 C736 1.478 . S
C735 H729 0.930 . S
C735 C731 1.400 . S
C735 C734 1.385 . S
C736 C734 1.478 . S
C736 C738 1.381 . S
C736 C742 1.383 . S
C737 C733 1.495 . S
C737 H743 0.959 . S
C737 H744 0.961 . S
C737 H745 0.960 . S
C738 C736 1.381 . S
C738 C739 1.394 . S
C738 H746 0.930 . S
C739 C738 1.394 . S
C739 C740 1.383 . S
C739 H747 0.929 . S
C740 C739 1.383 . S
C740 C741 1.377 . S
C741 H725 0.930 . S
C741 C740 1.377 . S
C741 C742 1.379 . S
C742 H726 0.931 . S
C742 C736 1.383 . S
C742 C741 1.379 . S
H743 C737 0.959 . S
H744 C737 0.961 . S
H745 C737 0.960 . S
H746 C738 0.930 . S
H747 C739 0.929 . S
H748 C756 0.929 . S
H749 C758 0.930 . S
H750 C760 0.930 . S
H751 C763 0.929 1_455 S
H752 C766 0.930 . S
H753 C768 0.960 . S
H754 C768 0.960 . S
H755 C768 0.960 . S
C756 H748 0.929 . S
C756 C757 1.377 1_654 S
C756 C758 1.384 . S
C757 C756 1.377 1_456 S
C757 C763 1.390 1_455 S
C758 H749 0.930 . S
C758 C756 1.384 . S
C758 C759 1.372 . S
C759 C758 1.372 . S
C759 C760 1.400 . S
C759 C764 1.490 . S
C760 H750 0.930 . S
C760 C759 1.400 . S
C760 C763 1.386 1_554 S
H761 C777 0.930 . S
H762 C778 0.931 . S
C763 H751 0.929 1_655 S
C763 C757 1.390 1_655 S
C763 C760 1.386 1_556 S
C764 C759 1.490 . S
C764 C766 1.395 1_554 S
C764 C767 1.403 . S
H765 C771 0.930 . S
C766 H752 0.930 . S
C766 C764 1.395 1_556 S
C766 C769 1.403 1_556 S
C767 C764 1.403 . S
C767 C768 1.524 . S
C767 C771 1.400 . S
C768 H753 0.960 . S
C768 H754 0.960 . S
C768 H755 0.960 . S
C768 C767 1.524 . S
C769 C766 1.403 1_554 S
C769 C770 1.392 . S
C769 C773 1.495 1_554 S
C770 C769 1.392 . S
C770 C771 1.385 . S
C770 C772 1.478 . S
C771 H765 0.930 . S
C771 C767 1.400 . S
C771 C770 1.385 . S
C772 C770 1.478 . S
C772 C774 1.381 . S
C772 C778 1.383 . S
C773 C769 1.495 1_556 S
C773 H779 0.959 . S
C773 H780 0.961 . S
C773 H781 0.960 . S
C774 C772 1.381 . S
C774 C775 1.394 . S
C774 H782 0.930 . S
C775 C774 1.394 . S
C775 C776 1.383 . S
C775 H783 0.929 . S
C776 C775 1.383 . S
C776 C777 1.377 . S
C777 H761 0.930 . S
C777 C776 1.377 . S
C777 C778 1.379 . S
C778 H762 0.931 . S
C778 C772 1.383 . S
C778 C777 1.379 . S
H779 C773 0.959 . S
H780 C773 0.961 . S
H781 C773 0.960 . S
H782 C774 0.930 . S
H783 C775 0.929 . S
H784 C792 0.929 . S
H785 C794 0.930 . S
H786 C796 0.930 . S
H787 C799 0.929 . S
H788 C802 0.930 . S
H789 C804 0.960 . S
H790 C804 0.960 . S
H791 C804 0.960 . S
C792 H784 0.929 . S
C792 C793 1.377 . S
C792 C794 1.384 . S
C793 C792 1.377 . S
C793 C799 1.390 . S
C794 H785 0.930 . S
C794 C792 1.384 . S
C794 C795 1.372 . S
C795 C794 1.372 . S
C795 C796 1.400 . S
C795 C800 1.490 . S
C796 H786 0.930 . S
C796 C795 1.400 . S
C796 C799 1.386 . S
H797 C813 0.930 . S
H798 C814 0.931 . S
C799 H787 0.929 . S
C799 C793 1.390 . S
C799 C796 1.386 . S
C800 C795 1.490 . S
C800 C802 1.395 . S
C800 C803 1.403 . S
H801 C807 0.930 . S
C802 H788 0.930 . S
C802 C800 1.395 . S
C802 C805 1.403 . S
C803 C800 1.403 . S
C803 C804 1.524 . S
C803 C807 1.400 . S
C804 H789 0.960 . S
C804 H790 0.960 . S
C804 H791 0.960 . S
C804 C803 1.524 . S
C805 C802 1.403 . S
C805 C806 1.392 . S
C805 C809 1.495 . S
C806 C805 1.392 . S
C806 C807 1.385 . S
C806 C808 1.478 . S
C807 H801 0.930 . S
C807 C803 1.400 . S
C807 C806 1.385 . S
C808 C806 1.478 . S
C808 C810 1.381 . S
C808 C814 1.383 . S
C809 C805 1.495 . S
C809 H815 0.959 . S
C809 H816 0.961 . S
C809 H817 0.960 . S
C810 C808 1.381 . S
C810 C811 1.394 . S
C810 H818 0.930 . S
C811 C810 1.394 . S
C811 C812 1.383 . S
C811 H819 0.929 . S
C812 C811 1.383 . S
C812 C813 1.377 . S
C813 H797 0.930 . S
C813 C812 1.377 . S
C813 C814 1.379 . S
C814 H798 0.931 . S
C814 C808 1.383 . S
C814 C813 1.379 . S
H815 C809 0.959 . S
H816 C809 0.961 . S
H817 C809 0.960 . S
H818 C810 0.930 . S
H819 C811 0.929 . S
H820 C828 0.929 . S
H821 C830 0.930 . S
H822 C832 0.930 . S
H823 C835 0.929 . S
H824 C838 0.930 . S
H825 C840 0.960 . S
H826 C840 0.960 . S
H827 C840 0.960 . S
C828 H820 0.929 . S
C828 C829 1.377 . S
C828 C830 1.384 . S
C829 C828 1.377 . S
C829 C835 1.390 . S
C830 H821 0.930 . S
C830 C828 1.384 . S
C830 C831 1.372 . S
C831 C830 1.372 . S
C831 C832 1.400 . S
C831 C836 1.490 . S
C832 H822 0.930 . S
C832 C831 1.400 . S
C832 C835 1.386 . S
H833 C849 0.930 1_455 S
H834 C850 0.931 . S
C835 H823 0.929 . S
C835 C829 1.390 . S
C835 C832 1.386 . S
C836 C831 1.490 . S
C836 C838 1.395 . S
C836 C839 1.403 . S
H837 C843 0.930 . S
C838 H824 0.930 . S
C838 C836 1.395 . S
C838 C841 1.403 . S
C839 C836 1.403 . S
C839 C840 1.524 . S
C839 C843 1.400 . S
C840 H825 0.960 . S
C840 H826 0.960 . S
C840 H827 0.960 . S
C840 C839 1.524 . S
C841 C838 1.403 . S
C841 C842 1.392 . S
C841 C845 1.495 1_566 S
C842 C841 1.392 . S
C842 C843 1.385 . S
C842 C844 1.478 . S
C843 H837 0.930 . S
C843 C839 1.400 . S
C843 C842 1.385 . S
C844 C842 1.478 . S
C844 C846 1.381 1_565 S
C844 C850 1.383 1_556 S
C845 C841 1.495 1_544 S
C845 H851 0.959 . S
C845 H852 0.961 . S
C845 H853 0.960 1_554 S
C846 C844 1.381 1_545 S
C846 C847 1.394 . S
C846 H854 0.930 . S
C847 C846 1.394 . S
C847 C848 1.382 1_656 S
C847 H855 0.929 . S
C848 C847 1.382 1_454 S
C848 C849 1.376 1_445 S
C849 H833 0.930 1_655 S
C849 C848 1.376 1_665 S
C849 C850 1.379 . S
C850 H834 0.931 . S
C850 C844 1.383 1_554 S
C850 C849 1.379 . S
H851 C845 0.959 . S
H852 C845 0.961 . S
H853 C845 0.960 1_556 S
H854 C846 0.930 . S
H855 C847 0.929 . S
H856 C864 0.929 1_556 S
H857 C866 0.930 . S
H858 C868 0.930 . S
H859 C871 0.929 . S
H860 C874 0.930 1_556 S
H861 C876 0.960 . S
H862 C876 0.960 . S
H863 C876 0.960 . S
C864 H856 0.929 1_554 S
C864 C865 1.377 . S
C864 C866 1.384 . S
C865 C864 1.377 . S
C865 C871 1.390 . S
C866 H857 0.930 . S
C866 C864 1.384 . S
C866 C867 1.372 . S
C867 C866 1.372 . S
C867 C868 1.400 . S
C867 C872 1.490 . S
C868 H858 0.930 . S
C868 C867 1.400 . S
C868 C871 1.386 . S
H869 C885 0.930 . S
H870 C886 0.931 . S
C871 H859 0.929 . S
C871 C865 1.390 . S
C871 C868 1.386 . S
C872 C867 1.490 . S
C872 C874 1.395 . S
C872 C875 1.403 . S
H873 C879 0.930 . S
C874 H860 0.930 1_554 S
C874 C872 1.395 . S
C874 C877 1.403 . S
C875 C872 1.403 . S
C875 C876 1.524 . S
C875 C879 1.400 . S
C876 H861 0.960 . S
C876 H862 0.960 . S
C876 H863 0.960 . S
C876 C875 1.524 . S
C877 C874 1.403 . S
C877 C878 1.392 . S
C877 C881 1.495 1_554 S
C878 C877 1.392 . S
C878 C879 1.385 . S
C878 C880 1.478 . S
C879 H873 0.930 . S
C879 C875 1.400 . S
C879 C878 1.385 . S
C880 C878 1.478 . S
C880 C882 1.381 . S
C880 C886 1.383 . S
C881 C877 1.495 1_556 S
C881 H887 0.959 . S
C881 H888 0.961 . S
C881 H889 0.960 . S
C882 C880 1.381 . S
C882 C883 1.394 . S
C882 H890 0.930 . S
C883 C882 1.394 . S
C883 C884 1.383 . S
C883 H891 0.929 . S
C884 C883 1.383 . S
C884 C885 1.377 . S
C885 H869 0.930 . S
C885 C884 1.377 . S
C885 C886 1.379 . S
C886 H870 0.931 . S
C886 C880 1.383 . S
C886 C885 1.379 . S
H887 C881 0.959 . S
H888 C881 0.961 . S
H889 C881 0.960 . S
H890 C882 0.930 . S
H891 C883 0.929 . S
H892 C900 0.929 . S
H893 C902 0.930 . S
H894 C904 0.930 . S
H895 C907 0.929 . S
H896 C910 0.930 1_565 S
H897 C912 0.960 . S
H898 C912 0.960 . S
H899 C912 0.960 . S
C900 H892 0.929 . S
C900 C901 1.377 . S
C900 C902 1.384 1_565 S
C901 C900 1.377 . S
C901 C907 1.390 . S
C902 H893 0.930 . S
C902 C900 1.384 1_545 S
C902 C903 1.372 . S
C903 C902 1.372 . S
C903 C904 1.400 1_545 S
C903 C908 1.490 . S
C904 H894 0.930 . S
C904 C903 1.400 1_565 S
C904 C907 1.386 . S
H905 C921 0.930 . S
H906 C922 0.931 . S
C907 H895 0.929 . S
C907 C901 1.390 . S
C907 C904 1.386 . S
C908 C903 1.490 . S
C908 C910 1.395 . S
C908 C911 1.403 . S
H909 C915 0.930 . S
C910 H896 0.930 1_545 S
C910 C908 1.395 . S
C910 C913 1.403 . S
C911 C908 1.403 . S
C911 C912 1.524 . S
C911 C915 1.400 . S
C912 H897 0.960 . S
C912 H898 0.960 . S
C912 H899 0.960 . S
C912 C911 1.524 . S
C913 C910 1.403 . S
C913 C914 1.392 . S
C913 C917 1.495 . S
C914 C913 1.392 . S
C914 C915 1.385 . S
C914 C916 1.478 . S
C915 H909 0.930 . S
C915 C911 1.400 . S
C915 C914 1.385 . S
C916 C914 1.478 . S
C916 C918 1.381 . S
C916 C922 1.383 . S
C917 C913 1.495 . S
C917 H923 0.959 1_545 S
C917 H924 0.961 . S
C917 H925 0.960 . S
C918 C916 1.381 . S
C918 C919 1.394 . S
C918 H926 0.930 . S
C919 C918 1.394 . S
C919 C920 1.383 . S
C919 H927 0.929 . S
C920 C919 1.383 . S
C920 C921 1.377 . S
C921 H905 0.930 . S
C921 C920 1.377 . S
C921 C922 1.379 . S
C922 H906 0.931 . S
C922 C916 1.383 . S
C922 C921 1.379 . S
H923 C917 0.959 1_565 S
H924 C917 0.961 . S
H925 C917 0.960 . S
H926 C918 0.930 . S
H927 C919 0.929 . S
H928 C936 0.929 . S
H929 C938 0.930 . S
H930 C940 0.930 . S
H931 C943 0.929 . S
H932 C946 0.930 . S
H933 C948 0.960 . S
H934 C948 0.960 . S
H935 C948 0.960 . S
C936 H928 0.929 . S
C936 C937 1.377 . S
C936 C938 1.384 . S
C937 C936 1.377 . S
C937 C943 1.390 . S
C938 H929 0.930 . S
C938 C936 1.384 . S
C938 C939 1.372 . S
C939 C938 1.372 . S
C939 C940 1.400 . S
C939 C944 1.490 . S
C940 H930 0.930 . S
C940 C939 1.400 . S
C940 C943 1.386 . S
H941 C957 0.930 . S
H942 C958 0.931 . S
C943 H931 0.929 . S
C943 C937 1.390 . S
C943 C940 1.386 . S
C944 C939 1.490 . S
C944 C946 1.395 . S
C944 C947 1.403 . S
H945 C951 0.930 . S
C946 H932 0.930 . S
C946 C944 1.395 . S
C946 C949 1.403 . S
C947 C944 1.403 . S
C947 C948 1.524 . S
C947 C951 1.400 . S
C948 H933 0.960 . S
C948 H934 0.960 . S
C948 H935 0.960 . S
C948 C947 1.524 . S
C949 C946 1.403 . S
C949 C950 1.392 . S
C949 C953 1.495 . S
C950 C949 1.392 . S
C950 C951 1.385 . S
C950 C952 1.478 . S
C951 H945 0.930 . S
C951 C947 1.400 . S
C951 C950 1.385 . S
C952 C950 1.478 . S
C952 C954 1.381 . S
C952 C958 1.383 . S
C953 C949 1.495 . S
C953 H959 0.959 . S
C953 H960 0.961 . S
C953 H961 0.960 . S
C954 C952 1.381 . S
C954 C955 1.394 . S
C954 H962 0.930 . S
C955 C954 1.394 . S
C955 C956 1.383 . S
C955 H963 0.929 . S
C956 C955 1.383 . S
C956 C957 1.377 . S
C957 H941 0.930 . S
C957 C956 1.377 . S
C957 C958 1.379 . S
C958 H942 0.931 . S
C958 C952 1.383 . S
C958 C957 1.379 . S
H959 C953 0.959 . S
H960 C953 0.961 . S
H961 C953 0.960 . S
H962 C954 0.930 . S
H963 C955 0.929 . S
H964 C972 0.929 . S
H965 C974 0.930 . S
H966 C976 0.930 . S
H967 C979 0.929 1_655 S
H968 C982 0.930 1_565 S
H969 C984 0.960 . S
H970 C984 0.960 . S
H971 C984 0.960 . S
C972 H964 0.929 . S
C972 C973 1.372 1_454 S
C972 C974 1.384 . S
C973 C972 1.372 1_656 S
C973 C979 1.393 1_665 S
C974 H965 0.930 . S
C974 C972 1.384 . S
C974 C975 1.372 1_565 S
C975 C974 1.372 1_545 S
C975 C976 1.400 1_554 S
C975 C980 1.490 . S
C976 H966 0.930 . S
C976 C975 1.400 1_556 S
C976 C979 1.386 . S
H977 C993 0.930 . S
H978 C994 0.931 . S
C979 H967 0.929 1_455 S
C979 C973 1.393 1_445 S
C979 C976 1.386 . S
C980 C975 1.490 . S
C980 C982 1.395 . S
C980 C983 1.403 . S
H981 C987 0.930 . S
C982 H968 0.930 1_545 S
C982 C980 1.395 . S
C982 C985 1.403 . S
C983 C980 1.403 . S
C983 C984 1.524 . S
C983 C987 1.400 . S
C984 H969 0.960 . S
C984 H970 0.960 . S
C984 H971 0.960 . S
C984 C983 1.524 . S
C985 C982 1.403 . S
C985 C986 1.392 . S
C985 C989 1.513 . S
C986 C985 1.392 . S
C986 C987 1.385 . S
C986 C988 1.478 . S
C987 H981 0.930 . S
C987 C983 1.400 . S
C987 C986 1.385 . S
C988 C986 1.478 . S
C988 C990 1.381 . S
C988 C994 1.383 . S
C989 C985 1.513 . S
C989 H995 0.931 1_544 S
C989 H996 0.979 1_554 S
C989 H997 0.954 1_545 S
C990 C988 1.381 . S
C990 C991 1.394 . S
C990 H998 0.930 . S
C991 C990 1.394 . S
C991 C992 1.383 . S
C991 H999 0.929 . S
C992 C991 1.383 . S
C992 C993 1.377 . S
C993 H977 0.930 . S
C993 C992 1.377 . S
C993 C994 1.379 . S
C994 H978 0.931 . S
C994 C988 1.383 . S
C994 C993 1.379 . S
H995 C989 0.931 1_566 S
H996 C989 0.979 1_556 S
H997 C989 0.954 1_565 S
H998 C990 0.930 . S
H999 C991 0.929 . S
H1000 C1008 0.929 . S
H1001 C1010 0.930 . S
H1002 C1012 0.930 . S
H1003 C1015 0.929 . S
H1004 C1018 0.930 . S
H1005 C1020 0.960 . S
H1006 C1020 0.960 . S
H1007 C1020 0.960 1_556 S
C1008 H1000 0.929 . S
C1008 C1009 1.377 . S
C1008 C1010 1.384 . S
C1009 C1008 1.377 . S
C1009 C1015 1.390 . S
C1010 H1001 0.930 . S
C1010 C1008 1.384 . S
C1010 C1011 1.372 . S
C1011 C1010 1.372 . S
C1011 C1012 1.400 . S
C1011 C1016 1.490 . S
C1012 H1002 0.930 . S
C1012 C1011 1.400 . S
C1012 C1015 1.386 . S
H1013 C1029 0.930 . S
H1014 C1030 0.931 . S
C1015 H1003 0.929 . S
C1015 C1009 1.390 . S
C1015 C1012 1.386 . S
C1016 C1011 1.490 . S
C1016 C1018 1.395 . S
C1016 C1019 1.403 . S
H1017 C1023 0.930 1_554 S
C1018 H1004 0.930 . S
C1018 C1016 1.395 . S
C1018 C1021 1.403 . S
C1019 C1016 1.403 . S
C1019 C1020 1.524 1_556 S
C1019 C1023 1.400 . S
C1020 H1005 0.960 . S
C1020 H1006 0.960 . S
C1020 H1007 0.960 1_554 S
C1020 C1019 1.524 1_554 S
C1021 C1018 1.403 . S
C1021 C1022 1.392 . S
C1021 C1025 1.495 . S
C1022 C1021 1.392 . S
C1022 C1023 1.385 . S
C1022 C1024 1.478 . S
C1023 H1017 0.930 1_556 S
C1023 C1019 1.400 . S
C1023 C1022 1.385 . S
C1024 C1022 1.478 . S
C1024 C1026 1.381 . S
C1024 C1030 1.383 . S
C1025 C1021 1.495 . S
C1025 H1031 0.959 . S
C1025 H1032 0.961 . S
C1025 H1033 0.960 . S
C1026 C1024 1.381 . S
C1026 C1027 1.394 . S
C1026 H1034 0.930 . S
C1027 C1026 1.394 . S
C1027 C1028 1.383 . S
C1027 H1035 0.929 . S
C1028 C1027 1.383 . S
C1028 C1029 1.377 . S
C1029 H1013 0.930 . S
C1029 C1028 1.377 . S
C1029 C1030 1.379 . S
C1030 H1014 0.931 . S
C1030 C1024 1.383 . S
C1030 C1029 1.379 . S
H1031 C1025 0.959 . S
H1032 C1025 0.961 . S
H1033 C1025 0.960 . S
H1034 C1026 0.930 . S
H1035 C1027 0.929 . S
H1036 C1044 0.929 . S
H1037 C1046 0.930 . S
H1038 C1048 0.930 . S
H1039 C1051 0.929 . S
H1040 C1054 0.930 . S
H1041 C1056 0.960 . S
H1042 C1056 0.960 . S
H1043 C1056 0.960 . S
C1044 H1036 0.929 . S
C1044 C1045 1.377 . S
C1044 C1046 1.384 . S
C1045 C1044 1.377 . S
C1045 C1051 1.390 . S
C1046 H1037 0.930 . S
C1046 C1044 1.384 . S
C1046 C1047 1.372 . S
C1047 C1046 1.372 . S
C1047 C1048 1.400 . S
C1047 C1052 1.490 . S
C1048 H1038 0.930 . S
C1048 C1047 1.400 . S
C1048 C1051 1.386 . S
H1049 C1065 0.930 1_565 S
H1050 C1066 0.931 . S
C1051 H1039 0.929 . S
C1051 C1045 1.390 . S
C1051 C1048 1.386 . S
C1052 C1047 1.490 . S
C1052 C1054 1.395 . S
C1052 C1055 1.403 . S
H1053 C1059 0.930 . S
C1054 H1040 0.930 . S
C1054 C1052 1.395 . S
C1054 C1057 1.403 . S
C1055 C1052 1.403 . S
C1055 C1056 1.524 . S
C1055 C1059 1.400 . S
C1056 H1041 0.960 . S
C1056 H1042 0.960 . S
C1056 H1043 0.960 . S
C1056 C1055 1.524 . S
C1057 C1054 1.403 . S
C1057 C1058 1.392 . S
C1057 C1061 1.495 1_565 S
C1058 C1057 1.392 . S
C1058 C1059 1.385 . S
C1058 C1060 1.478 . S
C1059 H1053 0.930 . S
C1059 C1055 1.400 . S
C1059 C1058 1.385 . S
C1060 C1058 1.478 . S
C1060 C1062 1.381 1_565 S
C1060 C1066 1.383 . S
C1061 C1057 1.495 1_545 S
C1061 H1067 0.959 . S
C1061 H1068 0.961 . S
C1061 H1069 0.960 . S
C1062 C1060 1.381 1_545 S
C1062 C1063 1.394 . S
C1062 H1070 0.930 . S
C1063 C1062 1.394 . S
C1063 C1064 1.383 . S
C1063 H1071 0.929 . S
C1064 C1063 1.383 . S
C1064 C1065 1.377 . S
C1065 H1049 0.930 1_545 S
C1065 C1064 1.377 . S
C1065 C1066 1.379 1_545 S
C1066 H1050 0.931 . S
C1066 C1060 1.383 . S
C1066 C1065 1.379 1_565 S
H1067 C1061 0.959 . S
H1068 C1061 0.961 . S
H1069 C1061 0.960 . S
H1070 C1062 0.930 . S
H1071 C1063 0.929 . S
H1072 C1080 0.929 . S
H1073 C1082 0.930 . S
H1074 C1084 0.930 . S
H1075 C1087 0.929 . S
H1076 C1090 0.930 . S
H1077 C1092 0.960 . S
H1078 C1092 0.960 . S
H1079 C1092 0.960 . S
C1080 H1072 0.929 . S
C1080 C1081 1.377 . S
C1080 C1082 1.384 . S
C1081 C1080 1.377 . S
C1081 C1087 1.390 . S
C1082 H1073 0.930 . S
C1082 C1080 1.384 . S
C1082 C1083 1.372 . S
C1083 C1082 1.372 . S
C1083 C1084 1.400 . S
C1083 C1088 1.490 . S
C1084 H1074 0.930 . S
C1084 C1083 1.400 . S
C1084 C1087 1.386 . S
H1085 C1101 0.930 . S
H1086 C1102 0.931 . S
C1087 H1075 0.929 . S
C1087 C1081 1.390 . S
C1087 C1084 1.386 . S
C1088 C1083 1.490 . S
C1088 C1090 1.395 . S
C1088 C1091 1.403 . S
H1089 C1095 0.930 . S
C1090 H1076 0.930 . S
C1090 C1088 1.395 . S
C1090 C1093 1.403 . S
C1091 C1088 1.403 . S
C1091 C1092 1.524 . S
C1091 C1095 1.400 . S
C1092 H1077 0.960 . S
C1092 H1078 0.960 . S
C1092 H1079 0.960 . S
C1092 C1091 1.524 . S
C1093 C1090 1.403 . S
C1093 C1094 1.392 . S
C1093 C1097 1.495 . S
C1094 C1093 1.392 . S
C1094 C1095 1.385 . S
C1094 C1096 1.478 . S
C1095 H1089 0.930 . S
C1095 C1091 1.400 . S
C1095 C1094 1.385 . S
C1096 C1094 1.478 . S
C1096 C1098 1.381 . S
C1096 C1102 1.383 . S
C1097 C1093 1.495 . S
C1097 H1103 0.959 . S
C1097 H1104 0.961 . S
C1097 H1105 0.960 . S
C1098 C1096 1.381 . S
C1098 C1099 1.394 . S
C1098 H1106 0.930 . S
C1099 C1098 1.394 . S
C1099 C1100 1.383 . S
C1099 H1107 0.929 . S
C1100 C1099 1.383 . S
C1100 C1101 1.377 . S
C1101 H1085 0.930 . S
C1101 C1100 1.377 . S
C1101 C1102 1.379 . S
C1102 H1086 0.931 . S
C1102 C1096 1.383 . S
C1102 C1101 1.379 . S
H1103 C1097 0.959 . S
H1104 C1097 0.961 . S
H1105 C1097 0.960 . S
H1106 C1098 0.930 . S
H1107 C1099 0.929 . S
H1108 C1116 0.929 . S
H1109 C1118 0.930 . S
H1110 C1120 0.930 . S
H1111 C1123 0.929 . S
H1112 C1126 0.930 . S
H1113 C1128 0.960 . S
H1114 C1128 0.960 . S
H1115 C1128 0.960 . S
C1116 H1108 0.929 . S
C1116 C1117 1.377 . S
C1116 C1118 1.384 . S
C1117 C1116 1.377 . S
C1117 C1123 1.390 . S
C1118 H1109 0.930 . S
C1118 C1116 1.384 . S
C1118 C1119 1.372 . S
C1119 C1118 1.372 . S
C1119 C1120 1.400 . S
C1119 C1124 1.490 . S
C1120 H1110 0.930 . S
C1120 C1119 1.400 . S
C1120 C1123 1.386 . S
H1121 C1137 0.930 . S
H1122 C1138 0.931 . S
C1123 H1111 0.929 . S
C1123 C1117 1.390 . S
C1123 C1120 1.386 . S
C1124 C1119 1.490 . S
C1124 C1126 1.395 . S
C1124 C1127 1.403 . S
H1125 C1131 0.930 . S
C1126 H1112 0.930 . S
C1126 C1124 1.395 . S
C1126 C1129 1.403 . S
C1127 C1124 1.403 . S
C1127 C1128 1.524 . S
C1127 C1131 1.400 . S
C1128 H1113 0.960 . S
C1128 H1114 0.960 . S
C1128 H1115 0.960 . S
C1128 C1127 1.524 . S
C1129 C1126 1.403 . S
C1129 C1130 1.392 . S
C1129 C1133 1.495 . S
C1130 C1129 1.392 . S
C1130 C1131 1.385 . S
C1130 C1132 1.478 . S
C1131 H1125 0.930 . S
C1131 C1127 1.400 . S
C1131 C1130 1.385 . S
C1132 C1130 1.478 . S
C1132 C1134 1.381 . S
C1132 C1138 1.383 . S
C1133 C1129 1.495 . S
C1133 H1139 0.959 . S
C1133 H1140 0.961 . S
C1133 H1141 0.960 . S
C1134 C1132 1.381 . S
C1134 C1135 1.394 . S
C1134 H1142 0.930 . S
C1135 C1134 1.394 . S
C1135 C1136 1.383 . S
C1135 H1143 0.929 . S
C1136 C1135 1.383 . S
C1136 C1137 1.377 . S
C1137 H1121 0.930 . S
C1137 C1136 1.377 . S
C1137 C1138 1.379 . S
C1138 H1122 0.931 . S
C1138 C1132 1.383 . S
C1138 C1137 1.379 . S
H1139 C1133 0.959 . S
H1140 C1133 0.961 . S
H1141 C1133 0.960 . S
H1142 C1134 0.930 . S
H1143 C1135 0.929 . S
H1144 C1152 0.929 . S
H1145 C1154 0.930 . S
H1146 C1156 0.930 . S
H1147 C1159 0.929 . S
H1148 C1162 0.930 . S
H1149 C1164 0.924 1_655 S
H1150 C1164 0.979 . S
H1151 C1164 0.978 . S
C1152 H1144 0.929 . S
C1152 C1153 1.377 . S
C1152 C1154 1.384 . S
C1153 C1152 1.377 . S
C1153 C1159 1.390 . S
C1154 H1145 0.930 . S
C1154 C1152 1.384 . S
C1154 C1155 1.372 . S
C1155 C1154 1.372 . S
C1155 C1156 1.400 . S
C1155 C1160 1.490 . S
C1156 H1146 0.930 . S
C1156 C1155 1.400 . S
C1156 C1159 1.386 . S
H1157 C1173 0.930 . S
H1158 C1174 0.931 . S
C1159 H1147 0.929 . S
C1159 C1153 1.390 . S
C1159 C1156 1.386 . S
C1160 C1155 1.490 . S
C1160 C1162 1.395 . S
C1160 C1163 1.403 . S
H1161 C1167 0.930 . S
C1162 H1148 0.930 . S
C1162 C1160 1.395 . S
C1162 C1165 1.425 . S
C1163 C1160 1.403 . S
C1163 C1164 1.525 . S
C1163 C1167 1.400 1_455 S
C1164 H1149 0.924 1_455 S
C1164 H1150 0.979 . S
C1164 H1151 0.978 . S
C1164 C1163 1.525 . S
C1165 C1162 1.425 . S
C1165 C1166 1.371 1_455 S
C1165 C1169 1.496 . S
C1166 C1165 1.371 1_655 S
C1166 C1167 1.385 . S
C1166 C1168 1.478 . S
C1167 H1161 0.930 . S
C1167 C1163 1.400 1_655 S
C1167 C1166 1.385 . S
C1168 C1166 1.478 . S
C1168 C1170 1.381 . S
C1168 C1174 1.383 . S
C1169 C1165 1.496 . S
C1169 H1175 0.959 . S
C1169 H1176 0.961 1_455 S
C1169 H1177 0.960 1_455 S
C1170 C1168 1.381 . S
C1170 C1171 1.394 . S
C1170 H1178 0.930 . S
C1171 C1170 1.394 . S
C1171 C1172 1.383 . S
C1171 H1179 0.929 . S
C1172 C1171 1.383 . S
C1172 C1173 1.377 . S
C1173 H1157 0.930 . S
C1173 C1172 1.377 . S
C1173 C1174 1.379 . S
C1174 H1158 0.931 . S
C1174 C1168 1.383 . S
C1174 C1173 1.379 . S
H1175 C1169 0.959 . S
H1176 C1169 0.961 1_655 S
H1177 C1169 0.960 1_655 S
H1178 C1170 0.930 . S
H1179 C1171 0.929 . S
H1180 C1188 0.929 . S
H1181 C1190 0.930 . S
H1182 C1192 0.930 1_655 S
H1183 C1195 0.929 . S
H1184 C1198 0.930 . S
H1185 C1200 0.960 . S
H1186 C1200 0.960 . S
H1187 C1200 0.960 . S
C1188 H1180 0.929 . S
C1188 C1189 1.377 . S
C1188 C1190 1.384 . S
C1189 C1188 1.377 . S
C1189 C1195 1.390 1_554 S
C1190 H1181 0.930 . S
C1190 C1188 1.384 . S
C1190 C1191 1.372 . S
C1191 C1190 1.372 . S
C1191 C1192 1.400 1_554 S
C1191 C1196 1.490 . S
C1192 H1182 0.930 1_455 S
C1192 C1191 1.400 1_556 S
C1192 C1195 1.386 . S
H1193 C1209 0.930 . S
H1194 C1210 0.931 . S
C1195 H1183 0.929 . S
C1195 C1189 1.390 1_556 S
C1195 C1192 1.386 . S
C1196 C1191 1.490 . S
C1196 C1198 1.395 1_554 S
C1196 C1199 1.403 1_455 S
H1197 C1203 0.930 . S
C1198 H1184 0.930 . S
C1198 C1196 1.395 1_556 S
C1198 C1201 1.403 . S
C1199 C1196 1.403 1_655 S
C1199 C1200 1.524 . S
C1199 C1203 1.400 . S
C1200 H1185 0.960 . S
C1200 H1186 0.960 . S
C1200 H1187 0.960 . S
C1200 C1199 1.524 . S
C1201 C1198 1.403 . S
C1201 C1202 1.392 1_456 S
C1201 C1205 1.495 . S
C1202 C1201 1.392 1_654 S
C1202 C1203 1.385 . S
C1202 C1204 1.478 . S
C1203 H1197 0.930 . S
C1203 C1199 1.400 . S
C1203 C1202 1.385 . S
C1204 C1202 1.478 . S
C1204 C1206 1.381 . S
C1204 C1210 1.383 1_554 S
C1205 C1201 1.495 . S
C1205 H1211 0.959 . S
C1205 H1212 0.961 . S
C1205 H1213 0.960 . S
C1206 C1204 1.381 . S
C1206 C1207 1.394 . S
C1206 H1214 0.930 1_655 S
C1207 C1206 1.394 . S
C1207 C1208 1.383 . S
C1207 H1215 0.929 . S
C1208 C1207 1.383 . S
C1208 C1209 1.377 1_554 S
C1209 H1193 0.930 . S
C1209 C1208 1.377 1_556 S
C1209 C1210 1.379 . S
C1210 H1194 0.931 . S
C1210 C1204 1.383 1_556 S
C1210 C1209 1.379 . S
H1211 C1205 0.959 . S
H1212 C1205 0.961 . S
H1213 C1205 0.960 . S
H1214 C1206 0.930 1_455 S
H1215 C1207 0.929 . S
H1216 C1224 0.929 . S
H1217 C1226 0.930 . S
H1218 C1228 0.930 . S
H1219 C1231 0.929 . S
H1220 C1234 0.930 . S
H1221 C1236 0.960 . S
H1222 C1236 0.960 . S
H1223 C1236 0.960 . S
C1224 H1216 0.929 . S
C1224 C1225 1.377 . S
C1224 C1226 1.384 . S
C1225 C1224 1.377 . S
C1225 C1231 1.390 . S
C1226 H1217 0.930 . S
C1226 C1224 1.384 . S
C1226 C1227 1.372 . S
C1227 C1226 1.372 . S
C1227 C1228 1.400 . S
C1227 C1232 1.490 . S
C1228 H1218 0.930 . S
C1228 C1227 1.400 . S
C1228 C1231 1.386 . S
H1229 C1245 0.930 . S
H1230 C1246 0.931 . S
C1231 H1219 0.929 . S
C1231 C1225 1.390 . S
C1231 C1228 1.386 . S
C1232 C1227 1.490 . S
C1232 C1234 1.395 . S
C1232 C1235 1.403 . S
H1233 C1239 0.930 . S
C1234 H1220 0.930 . S
C1234 C1232 1.395 . S
C1234 C1237 1.403 . S
C1235 C1232 1.403 . S
C1235 C1236 1.524 . S
C1235 C1239 1.400 . S
C1236 H1221 0.960 . S
C1236 H1222 0.960 . S
C1236 H1223 0.960 . S
C1236 C1235 1.524 . S
C1237 C1234 1.403 . S
C1237 C1238 1.392 . S
C1237 C1241 1.495 . S
C1238 C1237 1.392 . S
C1238 C1239 1.385 . S
C1238 C1240 1.478 . S
C1239 H1233 0.930 . S
C1239 C1235 1.400 . S
C1239 C1238 1.385 . S
C1240 C1238 1.478 . S
C1240 C1242 1.381 . S
C1240 C1246 1.383 . S
C1241 C1237 1.495 . S
C1241 H1247 0.959 1_556 S
C1241 H1248 0.961 . S
C1241 H1249 0.960 . S
C1242 C1240 1.381 . S
C1242 C1243 1.394 . S
C1242 H1250 0.930 . S
C1243 C1242 1.394 . S
C1243 C1244 1.383 . S
C1243 H1251 0.929 . S
C1244 C1243 1.383 . S
C1244 C1245 1.377 . S
C1245 H1229 0.930 . S
C1245 C1244 1.377 . S
C1245 C1246 1.379 . S
C1246 H1230 0.931 . S
C1246 C1240 1.383 . S
C1246 C1245 1.379 . S
H1247 C1241 0.959 1_554 S
H1248 C1241 0.961 . S
H1249 C1241 0.960 . S
H1250 C1242 0.930 . S
H1251 C1243 0.929 . S
H1252 C1260 0.929 . S
H1253 C1262 0.930 . S
H1254 C1264 0.930 . S
H1255 C1267 0.929 . S
H1256 C1270 0.930 . S
H1257 C1272 0.960 . S
H1258 C1272 0.960 . S
H1259 C1272 0.960 . S
C1260 H1252 0.929 . S
C1260 C1261 1.377 . S
C1260 C1262 1.384 . S
C1261 C1260 1.377 . S
C1261 C1267 1.390 . S
C1262 H1253 0.930 . S
C1262 C1260 1.384 . S
C1262 C1263 1.372 . S
C1263 C1262 1.372 . S
C1263 C1264 1.400 . S
C1263 C1268 1.490 . S
C1264 H1254 0.930 . S
C1264 C1263 1.400 . S
C1264 C1267 1.386 . S
H1265 C1281 0.930 . S
H1266 C1282 0.931 . S
C1267 H1255 0.929 . S
C1267 C1261 1.390 . S
C1267 C1264 1.386 . S
C1268 C1263 1.490 . S
C1268 C1270 1.395 . S
C1268 C1271 1.403 . S
H1269 C1275 0.930 . S
C1270 H1256 0.930 . S
C1270 C1268 1.395 . S
C1270 C1273 1.403 . S
C1271 C1268 1.403 . S
C1271 C1272 1.524 . S
C1271 C1275 1.400 . S
C1272 H1257 0.960 . S
C1272 H1258 0.960 . S
C1272 H1259 0.960 . S
C1272 C1271 1.524 . S
C1273 C1270 1.403 . S
C1273 C1274 1.392 . S
C1273 C1277 1.495 . S
C1274 C1273 1.392 . S
C1274 C1275 1.385 . S
C1274 C1276 1.478 . S
C1275 H1269 0.930 . S
C1275 C1271 1.400 . S
C1275 C1274 1.385 . S
C1276 C1274 1.478 . S
C1276 C1278 1.381 . S
C1276 C1282 1.383 . S
C1277 C1273 1.495 . S
C1277 H1283 0.959 . S
C1277 H1284 0.961 . S
C1277 H1285 0.960 . S
C1278 C1276 1.381 . S
C1278 C1279 1.394 . S
C1278 H1286 0.930 . S
C1279 C1278 1.394 . S
C1279 C1280 1.383 . S
C1279 H1287 0.929 . S
C1280 C1279 1.383 . S
C1280 C1281 1.377 . S
C1281 H1265 0.930 . S
C1281 C1280 1.377 . S
C1281 C1282 1.379 . S
C1282 H1266 0.931 . S
C1282 C1276 1.383 . S
C1282 C1281 1.379 . S
H1283 C1277 0.959 . S
H1284 C1277 0.961 . S
H1285 C1277 0.960 . S
H1286 C1278 0.930 . S
H1287 C1279 0.929 . S
H1288 C1296 0.929 . S
H1289 C1298 0.930 . S
H1290 C1300 0.930 . S
H1291 C1303 0.929 . S
H1292 C1306 0.930 . S
H1293 C1308 0.960 1_655 S
H1294 C1308 0.960 . S
H1295 C1308 0.960 . S
C1296 H1288 0.929 . S
C1296 C1297 1.377 . S
C1296 C1298 1.384 . S
C1297 C1296 1.377 . S
C1297 C1303 1.390 . S
C1298 H1289 0.930 . S
C1298 C1296 1.384 . S
C1298 C1299 1.372 . S
C1299 C1298 1.372 . S
C1299 C1300 1.400 . S
C1299 C1304 1.490 . S
C1300 H1290 0.930 . S
C1300 C1299 1.400 . S
C1300 C1303 1.386 . S
H1301 C1317 0.930 . S
H1302 C1318 0.931 . S
C1303 H1291 0.929 . S
C1303 C1297 1.390 . S
C1303 C1300 1.386 . S
C1304 C1299 1.490 . S
C1304 C1306 1.395 . S
C1304 C1307 1.403 . S
H1305 C1311 0.930 . S
C1306 H1292 0.930 . S
C1306 C1304 1.395 . S
C1306 C1309 1.403 1_455 S
C1307 C1304 1.403 . S
C1307 C1308 1.524 . S
C1307 C1311 1.400 1_455 S
C1308 H1293 0.960 1_455 S
C1308 H1294 0.960 . S
C1308 H1295 0.960 . S
C1308 C1307 1.524 . S
C1309 C1306 1.403 1_655 S
C1309 C1310 1.392 . S
C1309 C1313 1.495 1_554 S
C1310 C1309 1.392 . S
C1310 C1311 1.385 . S
C1310 C1312 1.478 . S
C1311 H1305 0.930 . S
C1311 C1307 1.400 1_655 S
C1311 C1310 1.385 . S
C1312 C1310 1.478 . S
C1312 C1314 1.381 . S
C1312 C1318 1.383 . S
C1313 C1309 1.495 1_556 S
C1313 H1319 0.959 1_655 S
C1313 H1320 0.961 1_556 S
C1313 H1321 0.960 . S
C1314 C1312 1.381 . S
C1314 C1315 1.394 . S
C1314 H1322 0.930 . S
C1315 C1314 1.394 . S
C1315 C1316 1.383 . S
C1315 H1323 0.929 . S
C1316 C1315 1.383 . S
C1316 C1317 1.377 . S
C1317 H1301 0.930 . S
C1317 C1316 1.377 . S
C1317 C1318 1.379 . S
C1318 H1302 0.931 . S
C1318 C1312 1.383 . S
C1318 C1317 1.379 . S
H1319 C1313 0.959 1_455 S
H1320 C1313 0.961 1_554 S
H1321 C1313 0.960 . S
H1322 C1314 0.930 . S
H1323 C1315 0.929 . S
H1324 C1332 0.929 . S
H1325 C1334 0.930 . S
H1326 C1336 0.930 . S
H1327 C1339 0.929 . S
H1328 C1342 0.930 . S
H1329 C1344 0.960 1_554 S
H1330 C1344 0.957 1_554 S
H1331 C1344 0.963 . S
C1332 H1324 0.929 . S
C1332 C1333 1.377 1_554 S
C1332 C1334 1.384 . S
C1333 C1332 1.377 1_556 S
C1333 C1339 1.390 . S
C1334 H1325 0.930 . S
C1334 C1332 1.384 . S
C1334 C1335 1.372 1_554 S
C1335 C1334 1.372 1_556 S
C1335 C1336 1.400 . S
C1335 C1340 1.490 . S
C1336 H1326 0.930 . S
C1336 C1335 1.400 . S
C1336 C1339 1.386 . S
H1337 C1353 0.930 . S
H1338 C1354 0.931 . S
C1339 H1327 0.929 . S
C1339 C1333 1.390 . S
C1339 C1336 1.386 . S
C1340 C1335 1.490 . S
C1340 C1342 1.395 . S
C1340 C1343 1.403 1_655 S
H1341 C1347 0.930 . S
C1342 H1328 0.930 . S
C1342 C1340 1.395 . S
C1342 C1345 1.403 . S
C1343 C1340 1.403 1_455 S
C1343 C1344 1.524 . S
C1343 C1347 1.400 . S
C1344 H1329 0.960 1_556 S
C1344 H1330 0.957 1_556 S
C1344 H1331 0.963 . S
C1344 C1343 1.524 . S
C1345 C1342 1.403 . S
C1345 C1346 1.392 1_655 S
C1345 C1349 1.495 . S
C1346 C1345 1.392 1_455 S
C1346 C1347 1.385 . S
C1346 C1348 1.478 . S
C1347 H1341 0.930 . S
C1347 C1343 1.400 . S
C1347 C1346 1.385 . S
C1348 C1346 1.478 . S
C1348 C1350 1.381 1_556 S
C1348 C1354 1.383 . S
C1349 C1345 1.495 . S
C1349 H1355 0.959 . S
C1349 H1356 0.961 . S
C1349 H1357 0.960 1_556 S
C1350 C1348 1.381 1_554 S
C1350 C1351 1.394 . S
C1350 H1358 0.930 . S
C1351 C1350 1.394 . S
C1351 C1352 1.383 1_554 S
C1351 H1359 0.929 . S
C1352 C1351 1.383 1_556 S
C1352 C1353 1.377 . S
C1353 H1337 0.930 . S
C1353 C1352 1.377 . S
C1353 C1354 1.379 . S
C1354 H1338 0.931 . S
C1354 C1348 1.383 . S
C1354 C1353 1.379 . S
H1355 C1349 0.959 . S
H1356 C1349 0.961 . S
H1357 C1349 0.960 1_554 S
H1358 C1350 0.930 . S
H1359 C1351 0.929 . S
C217 C55 1.950 . S
C236 C5 1.954 . S
C253 C172 1.944 . S
C272 C16 1.871 . S
C289 C31 1.942 . S
C308 C81 1.945 . S
C325 C198 1.942 . S
C344 C42 1.844 . S
C361 C120 1.871 . S
C380 C68 1.947 . S
C397 C146 1.873 . S
C416 C94 1.927 . S
C433 C109 1.943 . S
C452 C159 1.948 . S
C469 C185 1.948 . S
C488 C135 1.934 . S
C505 C96 1.978 . S
C524 C10 1.975 . S
C541 C161 1.976 . S
C560 C14 1.920 . S
C577 C36 1.970 . S
C596 C70 1.970 . S
C613 C40 1.923 . S
C632 C187 1.975 . S
C649 C44 1.949 . S
C668 C53 1.961 . S
C685 C66 1.971 . S
C704 C107 1.977 . S
C721 C79 1.972 . S
C740 C18 1.953 . S
C757 C92 1.969 . S
C776 C133 1.975 . S
C793 C114 1.973 . S
C812 C200 1.974 1_565 S
C829 C57 1.974 . S
C848 C118 1.924 . S
C865 C174 1.977 1_545 S
C884 C140 1.964 . S
C901 C144 1.928 . S
C920 C83 1.977 . S
C937 C148 1.952 1_545 S
C956 C157 1.971 . S
C973 C170 1.971 . S
C992 C3 1.974 . S
C1009 C183 1.971 . S
C1028 C122 1.937 1_565 S
C1045 C29 1.978 . S
C1064 C196 1.961 . S
C1081 C1 0.087 . S
C1100 C131 0.186 . S
C1117 C153 0.206 . S
C1136 C23 0.103 . S
C1153 C27 0.110 . S
C1172 C105 0.068 . S
C1189 C127 0.216 . S
C1208 C49 0.159 . S
C1225 C192 0.099 . S
C1244 C62 0.174 . S
C1261 C205 0.093 . S
C1280 C75 0.061 . S
C1297 C166 0.085 . S
C1316 C88 0.031 . S
C1333 C179 0.117 . S
C1352 C101 0.170 . S
