# Generated by pormake.
# Topology vby, (6)-cn, num edge types: 1
# Building blocks:
#     Node 0, Type 0, BuildingBlock: KUMBUR_clean_sbu_1, # of connection points: 6
#     Node 1, Type 0, BuildingBlock: KUMBUR_clean_sbu_1, # of connection points: 6
#     Node 2, Type 0, BuildingBlock: KUMBUR_clean_sbu_1, # of connection points: 6
#     Node 3, Type 0, BuildingBlock: KUMBUR_clean_sbu_1, # of connection points: 6
#     Node 4, Type 0, BuildingBlock: KUMBUR_clean_sbu_1, # of connection points: 6
#     Node 5, Type 0, BuildingBlock: KUMBUR_clean_sbu_1, # of connection points: 6
#     Node 6, Type 0, BuildingBlock: KUMBUR_clean_sbu_1, # of connection points: 6
#     Node 7, Type 0, BuildingBlock: KUMBUR_clean_sbu_1, # of connection points: 6
#     Edge 8, Type (0, 0), BuildingBlock: UVAHIK_clean_linker_0, # of connection points: 2
#     Edge 9, Type (0, 0), BuildingBlock: UVAHIK_clean_linker_0, # of connection points: 2
#     Edge 10, Type (0, 0), BuildingBlock: UVAHIK_clean_linker_0, # of connection points: 2
#     Edge 11, Type (0, 0), BuildingBlock: UVAHIK_clean_linker_0, # of connection points: 2
#     Edge 12, Type (0, 0), BuildingBlock: UVAHIK_clean_linker_0, # of connection points: 2
#     Edge 13, Type (0, 0), BuildingBlock: UVAHIK_clean_linker_0, # of connection points: 2
#     Edge 14, Type (0, 0), BuildingBlock: UVAHIK_clean_linker_0, # of connection points: 2
#     Edge 15, Type (0, 0), BuildingBlock: UVAHIK_clean_linker_0, # of connection points: 2
#     Edge 16, Type (0, 0), BuildingBlock: UVAHIK_clean_linker_0, # of connection points: 2
#     Edge 17, Type (0, 0), BuildingBlock: UVAHIK_clean_linker_0, # of connection points: 2
#     Edge 18, Type (0, 0), BuildingBlock: UVAHIK_clean_linker_0, # of connection points: 2
#     Edge 19, Type (0, 0), BuildingBlock: UVAHIK_clean_linker_0, # of connection points: 2
#     Edge 20, Type (0, 0), BuildingBlock: UVAHIK_clean_linker_0, # of connection points: 2
#     Edge 21, Type (0, 0), BuildingBlock: UVAHIK_clean_linker_0, # of connection points: 2
#     Edge 22, Type (0, 0), BuildingBlock: UVAHIK_clean_linker_0, # of connection points: 2
#     Edge 23, Type (0, 0), BuildingBlock: UVAHIK_clean_linker_0, # of connection points: 2
#     Edge 24, Type (0, 0), BuildingBlock: UVAHIK_clean_linker_0, # of connection points: 2
#     Edge 25, Type (0, 0), BuildingBlock: UVAHIK_clean_linker_0, # of connection points: 2
#     Edge 26, Type (0, 0), BuildingBlock: UVAHIK_clean_linker_0, # of connection points: 2
#     Edge 27, Type (0, 0), BuildingBlock: UVAHIK_clean_linker_0, # of connection points: 2
#     Edge 28, Type (0, 0), BuildingBlock: UVAHIK_clean_linker_0, # of connection points: 2
#     Edge 29, Type (0, 0), BuildingBlock: UVAHIK_clean_linker_0, # of connection points: 2
#     Edge 30, Type (0, 0), BuildingBlock: UVAHIK_clean_linker_0, # of connection points: 2
#     Edge 31, Type (0, 0), BuildingBlock: UVAHIK_clean_linker_0, # of connection points: 2
# Relax obj value: 0.187
# Max RMSD: 0.306
# Mean RMSD: 0.213
data_MOF--net-vby--node1-KUMBUR_clean_sbu_1--edge1-UVAHIK_clean_linker_0
_symmetry_space_group_name_H-M    P1
_symmetry_Int_Tables_number       1
_symmetry_cell_setting            triclinic
loop_
_symmetry_equiv_pos_as_xyz
'x, y, z'
_cell_length_a     19.393682
_cell_length_b     115.85099
_cell_length_c     38.283925
_cell_angle_alpha  101.47273
_cell_angle_beta   94.289778
_cell_angle_gamma 89.958935
loop_
_atom_site_label
_atom_site_type_symbol
_atom_site_fract_x
_atom_site_fract_y
_atom_site_fract_z
_atom_type_partial_charge
Tb0 Tb 0.09835 0.39993 0.03932 0.0
C1 C 1.01927 0.35169 0.08343 0.0
N2 N 0.08045 0.35677 0.07974 0.0
C3 C 0.12607 0.35263 0.13585 0.0
C4 C 1.00782 0.34727 0.11424 0.0
C5 C 0.13504 0.35671 0.10441 0.0
C6 C 0.06165 0.34813 0.14117 0.0
C7 C 0.90997 0.34332 0.05508 0.0
C8 C 0.97101 0.34983 0.05452 0.0
C9 C 0.8958 0.33957 0.08658 0.0
C10 C 0.94461 0.34159 0.11622 0.0
Tb11 Tb 0.08795 0.36396 0.02879 0.0
N12 N 0.98722 0.35347 0.02459 0.0
C13 C 0.86685 0.34034 0.0235 0.0
C14 C 0.94821 0.34987 0.99304 0.0
C15 C 0.88675 0.34344 0.99217 0.0
H16 H 0.18501 0.36012 0.10024 0.0
H17 H 0.85484 0.34089 0.96739 0.0
H18 H 0.15753 0.40432 0.96489 0.0
H19 H 0.2128 0.40854 0.17651 0.0
H20 H 0.96387 0.35226 0.96886 0.0
H21 H 0.81946 0.33532 0.02274 0.0
H22 H 0.11713 0.40496 0.13031 0.0
H23 H 0.16877 0.35296 0.15593 0.0
H24 H 0.84862 0.33471 0.08783 0.0
H25 H 0.93432 0.33825 0.13985 0.0
H26 H 0.26857 0.41017 0.94485 0.0
H27 H 0.05496 0.34489 0.16539 0.0
H28 H 0.33128 0.4118 0.16043 0.0
N29 N 0.19831 0.40494 0.01833 0.0
C30 C 0.25315 0.40769 0.04274 0.0
C31 C 0.26501 0.40944 0.97241 0.0
C32 C 0.31746 0.41098 0.03255 0.0
C33 C 0.2024 0.40612 0.98376 0.0
C34 C 0.32299 0.41178 0.99684 0.0
N35 N 0.18117 0.40403 0.08669 0.0
C36 C 0.16874 0.40537 0.12201 0.0
C37 C 0.30084 0.40971 0.10395 0.0
C38 C 0.24476 0.40696 0.07788 0.0
C39 C 0.2896 0.40976 0.1396 0.0
C40 C 0.22291 0.40784 0.14874 0.0
H41 H 0.37157 0.41426 0.98792 0.0
H42 H 0.42413 0.41566 0.05079 0.0
H43 H 0.40951 0.41462 0.11339 0.0
O44 O 0.09222 0.4177 0.06504 0.0
O45 O 0.17318 0.38698 0.01458 0.0
O46 O 0.18272 0.37366 0.0506 0.0
O47 O 0.05266 0.4121 0.01069 0.0
O48 O 0.05173 0.39335 0.08224 0.0
O49 O 0.11601 0.37692 0.07731 0.0
O50 O 0.16024 0.3574 0.99132 0.0
O51 O 0.98759 0.37239 0.0199 0.0
O52 O 0.99271 0.39305 0.04014 0.0
O53 O 0.10827 0.34583 0.01847 0.0
O54 O 0.06719 0.37034 0.9784 0.0
O55 O 0.06388 0.3911 0.98519 0.0
C56 C 0.2119 0.38056 0.03267 0.0
C57 C 1.00286 0.42894 0.04418 0.0
C58 C 0.95538 0.44864 0.04641 0.0
C59 C 0.89291 0.44457 0.05657 0.0
C60 C 0.94075 0.42514 0.0549 0.0
C61 C 0.8859 0.43293 0.06085 0.0
C62 C 1.01015 0.44066 0.04019 0.0
C63 C 0.0695 0.38371 0.09347 0.0
C64 C 0.06129 0.42094 0.03744 0.0
C65 C 0.37399 0.41328 0.05817 0.0
C66 C 0.36572 0.41263 0.09378 0.0
C67 C 0.95879 0.38287 0.02883 0.0
C68 C 0.22222 0.34091 0.00596 0.0
C69 C 0.28171 0.32296 0.01577 0.0
C70 C 0.34304 0.32969 0.02597 0.0
C71 C 0.28433 0.34732 0.01581 0.0
C72 C 0.22146 0.32872 0.00559 0.0
C73 C 0.34427 0.34173 0.0257 0.0
C74 C 0.05814 0.38023 0.96611 0.0
C75 C 0.15692 0.34677 0.99773 0.0
H76 H 0.84915 0.45035 0.06096 0.0
H77 H 0.93492 0.4162 0.05876 0.0
H78 H 0.83775 0.42993 0.06884 0.0
H79 H 0.05914 0.44358 0.03283 0.0
H80 H 0.39007 0.32574 0.03481 0.0
H81 H 0.28654 0.35665 0.01621 0.0
H82 H 0.17363 0.32376 0.99739 0.0
H83 H 0.39177 0.34679 0.03364 0.0
Tb84 Tb 0.92247 0.61882 0.02239 0.0
C85 C 0.02906 0.66867 0.11646 0.0
N86 N 0.96456 0.66433 0.10544 0.0
C87 C 0.92722 0.67147 0.16406 0.0
C88 C 0.04611 0.67429 0.1522 0.0
C89 C 0.91281 0.6661 0.12813 0.0
C90 C 0.9945 0.67541 0.17631 0.0
C91 C 0.14216 0.67361 0.10047 0.0
C92 C 0.07624 0.66831 0.09105 0.0
C93 C 0.16104 0.67867 0.13642 0.0
C94 C 0.11309 0.67899 0.16228 0.0
Tb95 Tb 0.94748 0.65479 0.04736 0.0
N96 N 0.05561 0.66345 0.05664 0.0
C97 C 0.18604 0.67402 0.07332 0.0
C98 C 0.09652 0.66454 0.02975 0.0
C99 C 0.16269 0.66962 0.03775 0.0
H100 H 0.86068 0.66312 0.1186 0.0
H101 H 0.19578 0.67006 0.01649 0.0
H102 H 0.86201 0.61247 0.93808 0.0
H103 H 0.80721 0.61519 0.14516 0.0
H104 H 0.07977 0.66079 1.00231 0.0
H105 H 0.23722 0.67799 0.07943 0.0
H106 H 0.90326 0.6168 0.10845 0.0
H107 H 0.88649 0.67258 0.18223 0.0
H108 H 0.21177 0.68266 0.14431 0.0
H109 H 0.12754 0.68324 0.18971 0.0
H110 H 0.75098 0.60572 0.90407 0.0
H111 H 1.00545 0.67964 0.20407 0.0
H112 H 0.68847 0.61146 0.11679 0.0
N113 N 0.82202 0.61338 0.98877 0.0
C114 C 0.76723 0.61135 0.0069 0.0
C115 C 0.75479 0.60732 0.93298 0.0
C116 C 0.70295 0.60751 0.98864 0.0
C117 C 0.81741 0.6112 0.95228 0.0
C118 C 0.69719 0.60553 0.95123 0.0
N119 N 0.83919 0.61664 0.06049 0.0
C120 C 0.85152 0.61643 0.09603 0.0
C121 C 0.71926 0.6115 0.06363 0.0
C122 C 0.77553 0.61335 0.04395 0.0
C123 C 0.73033 0.61277 0.1007 0.0
C124 C 0.79713 0.61498 0.11684 0.0
H125 H 0.64863 0.60261 0.93622 0.0
H126 H 0.59635 0.6032 0.99472 0.0
H127 H 0.61057 0.60671 0.06039 0.0
O128 O 0.9286 0.60215 0.0365 0.0
O129 O 0.84699 0.63166 0.00669 0.0
O130 O 0.85041 0.64655 0.05534 0.0
O131 O 0.95706 0.60443 0.9854 0.0
O132 O 0.97332 0.62671 0.07491 0.0
O133 O 0.91467 0.64387 0.08363 0.0
O134 O 0.88395 0.66087 0.0079 0.0
O135 O 0.04379 0.64497 0.04047 0.0
O136 O 0.0322 0.6243 0.02937 0.0
O137 O 0.92294 0.67281 0.05547 0.0
O138 O 0.9611 0.64646 0.99132 0.0
O139 O 0.95557 0.62566 0.97723 0.0
C140 C 0.81467 0.63943 0.02948 0.0
C141 C 1.01294 0.58939 0.01013 0.0
C142 C 0.05663 0.56994 0.01541 0.0
C143 C 0.12446 0.57423 0.01531 0.0
C144 C 0.08101 0.59351 0.0104 0.0
C145 C 0.13641 0.58594 0.01295 0.0
C146 C 1.00104 0.57765 0.01289 0.0
C147 C 0.95715 0.63659 0.09594 0.0
C148 C 0.95345 0.59711 0.00686 0.0
C149 C 0.64644 0.60598 0.00824 0.0
C150 C 0.65447 0.60804 0.04564 0.0
C151 C 0.06894 0.63422 0.03471 0.0
C152 C 0.9137 0.68024 1.00258 0.0
C153 C 0.91027 0.69975 0.98668 0.0
C154 C 0.96353 0.69624 0.96388 0.0
C155 C 0.96596 0.67703 0.97928 0.0
C156 C 0.88583 0.69164 0.00626 0.0
C157 C 0.99069 0.68497 0.96013 0.0
C158 C 0.96422 0.63611 0.96913 0.0
C159 C 0.89074 0.67188 0.02405 0.0
H160 H 0.16835 0.56856 0.01755 0.0
H161 H 0.09131 0.60254 0.00852 0.0
H162 H 0.18884 0.58916 0.01312 0.0
H163 H 0.94836 0.57446 0.01249 0.0
H164 H 0.98519 0.70227 0.94921 0.0
H165 H 0.98807 0.66839 0.97605 0.0
H166 H 0.84514 0.69412 0.0241 0.0
H167 H 0.03153 0.6824 0.94248 0.0
Tb168 Tb 0.08818 0.65199 0.5517 0.0
C169 C 0.25195 0.60832 0.51267 0.0
N170 N 0.19289 0.61036 0.49362 0.0
C171 C 0.24668 0.60417 0.43877 0.0
C172 C 0.31185 0.60443 0.49536 0.0
C173 C 0.18871 0.60811 0.45714 0.0
C174 C 0.30863 0.60238 0.45795 0.0
C175 C 0.31376 0.60868 0.5703 0.0
C176 C 0.25263 0.61045 0.54973 0.0
C177 C 0.37415 0.60512 0.55322 0.0
C178 C 0.3731 0.60294 0.51586 0.0
Tb179 Tb 0.10085 0.61602 0.52582 0.0
N180 N 0.19315 0.61393 0.56544 0.0
C181 C 0.31197 0.61022 0.60736 0.0
C182 C 0.18981 0.61415 0.60114 0.0
C183 C 0.24936 0.61272 0.62273 0.0
H184 H 0.14071 0.60937 0.44222 0.0
H185 H 0.24645 0.61321 0.65111 0.0
H186 H 0.18345 0.65997 0.62759 0.0
H187 H 0.84191 0.66838 0.50754 0.0
H188 H 0.14137 0.61486 0.61326 0.0
H189 H 0.35781 0.60897 0.62411 0.0
H190 H 0.95497 0.65871 0.49948 0.0
H191 H 0.24355 0.6025 0.40986 0.0
H192 H 0.42167 0.60384 0.56866 0.0
H193 H 0.41994 0.60012 0.50308 0.0
H194 H 0.16541 0.66964 0.69003 0.0
H195 H 0.3536 0.59942 0.44366 0.0
H196 H 0.8072 0.67641 0.56847 0.0
N197 N 0.07864 0.6616 0.60903 0.0
C198 C 1.01609 0.66623 0.61666 0.0
C199 C 0.1228 0.66868 0.66969 0.0
C200 C 1.0034 0.67194 0.65159 0.0
C201 C 0.13284 0.66319 0.63444 0.0
C202 C 0.05741 0.67288 0.67846 0.0
N203 N 0.98332 0.66113 0.55526 0.0
C204 C 0.9408 0.66242 0.5261 0.0
C205 C 0.90288 0.67165 0.59463 0.0
C206 C 0.96673 0.66608 0.58868 0.0
C207 C 0.85693 0.67224 0.56505 0.0
C208 C 0.87647 0.66776 0.53061 0.0
H209 H 0.04983 0.67717 0.7057 0.0
H210 H 0.92719 0.68122 0.6849 0.0
H211 H 0.83901 0.68098 0.63492 0.0
O212 O 0.14874 0.65787 0.51512 0.0
O213 O 0.9881 0.64267 0.54114 0.0
O214 O 0.9937 0.62197 0.53149 0.0
O215 O 0.11926 0.66988 0.56164 0.0
O216 O 0.06656 0.64393 0.49484 0.0
O217 O 0.06019 0.62314 0.47987 0.0
O218 O 0.09959 0.59926 0.53923 0.0
O219 O 0.17522 0.62871 0.51249 0.0
O220 O 0.18408 0.64309 0.5624 0.0
O221 O 0.05386 0.60175 0.48876 0.0
O222 O 0.06023 0.62368 0.57717 0.0
O223 O 0.12246 0.64083 0.58921 0.0
C224 C 0.9598 0.63203 0.53537 0.0
C225 C 0.12647 0.67753 0.50943 0.0
C226 C 0.13843 0.69704 0.49458 0.0
C227 C 0.08507 0.69395 0.46729 0.0
C228 C 0.07331 0.67475 0.48208 0.0
C229 C 0.05287 0.68289 0.46117 0.0
C230 C 0.1587 0.68874 0.51578 0.0
C231 C 0.05585 0.63375 0.472 0.0
C232 C 0.14772 0.66885 0.53156 0.0
C233 C 0.93835 0.67691 0.65816 0.0
C234 C 0.88815 0.67678 0.62969 0.0
C235 C 0.21339 0.63625 0.53639 0.0
C236 C 1.00693 0.58659 0.51376 0.0
C237 C 0.96602 0.56719 0.5205 0.0
C238 C 0.89877 0.5717 0.52324 0.0
C239 C 0.93959 0.59089 0.51675 0.0
C240 C 1.01988 0.57476 0.51561 0.0
C241 C 0.88584 0.58345 0.52135 0.0
C242 C 0.07947 0.63357 0.59906 0.0
C243 C 0.06492 0.59432 0.50982 0.0
H244 H 0.06736 0.70015 0.45095 0.0
H245 H 0.04754 0.66626 0.47682 0.0
H246 H 1.0117 0.68064 0.44019 0.0
H247 H 0.19987 0.69093 0.53684 0.0
H248 H 0.85591 0.56612 0.52649 0.0
H249 H 0.92861 0.59998 0.51565 0.0
H250 H 0.07226 0.57153 0.51394 0.0
H251 H 0.83389 0.5868 0.52351 0.0
Tb252 Tb 0.94002 0.39708 0.53064 0.0
C253 C 0.08911 0.3532 0.46766 0.0
N254 N 1.02115 0.35536 0.46078 0.0
C255 C 0.03357 0.34953 0.3978 0.0
C256 C 0.13307 0.34979 0.43984 0.0
C257 C 0.99202 0.35268 0.42646 0.0
C258 C 0.10478 0.34835 0.4045 0.0
C259 C 0.18145 0.35025 0.51111 0.0
C260 C 0.11301 0.35339 0.50262 0.0
C261 C 0.22695 0.34761 0.48382 0.0
C262 C 0.2028 0.3474 0.44821 0.0
Tb263 Tb 0.96033 0.3618 0.50999 0.0
N264 N 0.06783 0.35622 0.52826 0.0
C265 C 0.20132 0.3496 0.5466 0.0
C266 C 0.08526 0.35483 0.56244 0.0
C267 C 0.15262 0.35169 0.57224 0.0
H268 H 0.93666 0.35307 0.42105 0.0
H269 H 0.16701 0.35093 0.59955 0.0
H270 H 0.88686 0.4025 0.61193 0.0
H271 H 0.81934 0.40504 0.40494 0.0
H272 H 0.04764 0.35652 0.58224 0.0
H273 H 0.25351 0.34722 0.55428 0.0
H274 H 0.91741 0.40203 0.44631 0.0
H275 H 1.01052 0.34787 0.3706 0.0
H276 H 0.28022 0.34539 0.48983 0.0
H277 H 0.23774 0.34495 0.42725 0.0
H278 H 0.77739 0.40782 0.64019 0.0
H279 H 0.13674 0.34577 0.3823 0.0
H280 H 0.7018 0.40765 0.42605 0.0
N281 N 0.84237 0.40216 0.55927 0.0
C282 C 0.78602 0.40445 0.53859 0.0
C283 C 0.77902 0.40681 0.61155 0.0
C284 C 0.72253 0.40743 0.55341 0.0
C285 C 0.84077 0.40376 0.59552 0.0
C286 C 0.7194 0.4085 0.59035 0.0
N287 N 0.85534 0.40108 0.4895 0.0
C288 C 0.86609 0.40234 0.45551 0.0
C289 C 0.735 0.4059 0.47999 0.0
C290 C 0.79232 0.40361 0.50237 0.0
C291 C 0.7445 0.40593 0.44416 0.0
C292 C 0.81068 0.40441 0.4321 0.0
H293 H 0.67154 0.41077 0.6028 0.0
H294 H 0.61494 0.41133 0.5417 0.0
H295 H 0.62589 0.41004 0.47739 0.0
O296 O 0.94123 0.41478 0.52504 0.0
O297 O 0.8609 0.38468 0.54104 0.0
O298 O 0.85945 0.36886 0.49491 0.0
O299 O 0.99929 0.4095 0.56885 0.0
O300 O 0.97437 0.38874 0.47834 0.0
O301 O 0.91948 0.37056 0.46678 0.0
O302 O 0.90429 0.35165 0.53836 0.0
O303 O 0.0476 0.3737 0.53452 0.0
O304 O 0.0399 0.39042 0.51103 0.0
O305 O 0.94621 0.34361 0.48941 0.0
O306 O 0.94232 0.36995 0.56565 0.0
O307 O 0.97911 0.38972 0.57702 0.0
C308 C 0.82626 0.3768 0.51664 0.0
C309 C 0.04309 0.42559 0.54668 0.0
C310 C 0.0848 0.44485 0.53907 0.0
C311 C 0.15093 0.44004 0.53422 0.0
C312 C 0.1093 0.42099 0.54144 0.0
C313 C 0.16288 0.42822 0.53539 0.0
C314 C 0.03112 0.4375 0.54543 0.0
C315 C 0.94961 0.37927 0.45597 0.0
C316 C 0.98515 0.41811 0.55239 0.0
C317 C 0.66455 0.40921 0.53095 0.0
C318 C 0.67074 0.40843 0.49429 0.0
C319 C 0.07677 0.38192 0.52114 0.0
C320 C 0.84531 0.3349 0.50387 0.0
C321 C 0.78416 0.31599 0.49677 0.0
C322 C 0.72438 0.32118 0.48382 0.0
C323 C 0.78523 0.33987 0.49082 0.0
C324 C 0.84466 0.32298 0.50671 0.0
C325 C 0.72509 0.33302 0.48088 0.0
C326 C 0.96388 0.37985 0.58756 0.0
C327 C 0.9091 0.34197 0.51482 0.0
H328 H 0.19375 0.44545 0.52986 0.0
H329 H 0.11956 0.41183 0.54194 0.0
H330 H 0.21396 0.42464 0.53154 0.0
H331 H 0.97952 0.44095 0.54873 0.0
H332 H 0.67723 0.31605 0.47549 0.0
H333 H 0.78476 0.34901 0.48836 0.0
H334 H 0.89106 0.31922 0.51718 0.0
H335 H 0.67885 0.33689 0.47079 0.0
Tb336 Tb 0.61266 0.90049 0.03509 0.0
C337 C 0.49396 0.85195 0.06364 0.0
N338 N 0.55757 0.85714 0.07047 0.0
C339 C 0.56739 0.85204 0.12837 0.0
C340 C 0.46328 0.84695 0.08947 0.0
C341 C 0.59604 0.85668 0.10153 0.0
C342 C 0.50026 0.84732 0.12253 0.0
C343 C 0.3971 0.84516 0.02066 0.0
C344 C 0.46137 0.85106 0.02979 0.0
C345 C 0.36491 0.84054 0.0467 0.0
C346 C 0.39788 0.84146 0.08106 0.0
Tb347 Tb 0.59713 0.86495 0.02537 0.0
N348 N 0.49328 0.85589 0.00566 0.0
C349 C 0.36769 0.844 0.98557 0.0
C350 C 0.46718 0.85414 0.97081 0.0
C351 C 0.40336 0.84837 0.96042 0.0
H352 H 0.64883 0.85994 0.10571 0.0
H353 H 0.38183 0.84726 0.93304 0.0
H354 H 0.65879 0.90218 0.95526 0.0
H355 H 0.75002 0.91071 0.16701 0.0
H356 H 0.49495 0.85744 0.95131 0.0
H357 H 0.31828 0.83954 0.97747 0.0
H358 H 0.64758 0.90611 0.12535 0.0
H359 H 0.59732 0.85201 0.15337 0.0
H360 H 0.31513 0.83608 0.04036 0.0
H361 H 0.37312 0.83765 0.10065 0.0
H362 H 0.76471 0.90723 0.92879 0.0
H363 H 0.47845 0.84362 0.1432 0.0
H364 H 0.86288 0.91427 0.14477 0.0
N365 N 0.70753 0.90439 0.00779 0.0
C366 C 0.76522 0.90787 0.02974 0.0
C367 C 0.76563 0.90737 0.95716 0.0
C368 C 0.82673 0.91078 0.01586 0.0
C369 C 0.70595 0.90447 0.97212 0.0
C370 C 0.82645 0.91044 0.97907 0.0
N371 N 0.70235 0.90522 0.07843 0.0
C372 C 0.69671 0.90676 0.11449 0.0
C373 C 0.82262 0.9113 0.0894 0.0
C374 C 0.76296 0.90807 0.06605 0.0
C375 C 0.8182 0.91186 0.12597 0.0
C376 C 0.75471 0.90976 0.13859 0.0
H377 H 0.87274 0.91259 0.96736 0.0
H378 H 0.93453 0.91588 0.02877 0.0
H379 H 0.93092 0.91638 0.09314 0.0
O380 O 0.60769 0.91826 0.06106 0.0
O381 O 0.68819 0.88733 0.01217 0.0
O382 O 0.69334 0.87403 0.04829 0.0
O383 O 0.56925 0.91283 0.0064 0.0
O384 O 0.57405 0.89435 0.08087 0.0
O385 O 0.63142 0.87691 0.0755 0.0
O386 O 0.65786 0.85611 0.98531 0.0
O387 O 0.498 0.87405 0.01993 0.0
O388 O 0.50801 0.89448 0.04223 0.0
O389 O 0.62532 0.84744 0.02612 0.0
O390 O 0.59861 0.87173 0.9755 0.0
O391 O 0.56217 0.89134 0.98422 0.0
C392 C 0.72479 0.88081 0.03078 0.0
C393 C 0.52004 0.92976 0.03978 0.0
C394 C 0.47417 0.94959 0.04225 0.0
C395 C 0.41124 0.94564 0.05223 0.0
C396 C 0.45734 0.92607 0.05018 0.0
C397 C 0.40309 0.93398 0.05617 0.0
C398 C 0.52835 0.94149 0.03592 0.0
C399 C 0.59151 0.88481 0.093 0.0
C400 C 0.57798 0.92161 0.03333 0.0
C401 C 0.8865 0.91375 0.03897 0.0
C402 C 0.88448 0.914 0.07562 0.0
C403 C 0.47175 0.88455 0.03144 0.0
C404 C 0.72993 0.84103 1.00159 0.0
C405 C 0.79627 0.82318 0.00366 0.0
C406 C 0.85748 0.82956 0.00276 0.0
C407 C 0.79174 0.84727 1.00103 0.0
C408 C 0.73264 0.82901 0.00338 0.0
C409 C 0.85513 0.84155 1.00179 0.0
C410 C 0.57421 0.88106 0.9637 0.0
C411 C 0.66187 0.84661 0.99874 0.0
H412 H 0.36801 0.95153 0.05674 0.0
H413 H 0.45057 0.91712 0.0538 0.0
H414 H 0.35453 0.93107 0.06396 0.0
H415 H 0.5776 0.94433 0.02865 0.0
H416 H 0.9071 0.82526 0.00297 0.0
H417 H 0.79105 0.85649 0.99955 0.0
H418 H 0.68504 0.82411 0.00347 0.0
H419 H 0.90257 0.84641 1.00122 0.0
Tb420 Tb 0.43566 0.11898 0.02026 0.0
C421 C 0.6045 0.1623 0.08444 0.0
N422 N 0.53737 0.16056 0.09015 0.0
C423 C 0.56426 0.1667 0.15339 0.0
C424 C 0.65514 0.16557 0.11308 0.0
C425 C 0.51595 0.16364 0.12393 0.0
C426 C 0.63448 0.16738 0.14798 0.0
C427 C 0.68859 0.16452 0.04241 0.0
C428 C 0.62104 0.16185 0.04976 0.0
C429 C 0.74052 0.16697 0.07058 0.0
C430 C 0.72382 0.16749 0.1059 0.0
Tb431 Tb 0.46488 0.15417 0.03981 0.0
N432 N 0.56972 0.15921 0.02325 0.0
C433 C 0.70123 0.16492 0.00712 0.0
C434 C 0.58034 0.16041 0.98924 0.0
C435 C 0.64654 0.16308 0.98054 0.0
H436 H 0.46153 0.1637 0.12825 0.0
H437 H 0.6554 0.16366 0.95337 0.0
H438 H 0.3637 0.11371 0.93781 0.0
H439 H 0.34336 0.11062 0.14354 0.0
H440 H 0.53811 0.15894 0.96875 0.0
H441 H 0.75247 0.16694 1.0003 0.0
H442 H 0.43212 0.11371 0.10366 0.0
H443 H 0.54719 0.16869 0.18018 0.0
H444 H 0.79318 0.16882 0.06547 0.0
H445 H 0.76378 0.16981 0.12752 0.0
H446 H 0.24766 0.10832 0.90745 0.0
H447 H 0.67172 0.1699 0.17079 0.0
H448 H 0.22061 0.10807 0.1204 0.0
N449 N 0.33107 0.11399 0.98976 0.0
C450 C 0.27924 0.11163 0.00938 0.0
C451 C 0.25574 0.10932 0.93618 0.0
C452 C 0.2123 0.10857 0.99332 0.0
C453 C 0.32124 0.11242 0.95341 0.0
C454 C 0.2008 0.10753 0.95626 0.0
N455 N 0.3599 0.11489 0.05973 0.0
C456 C 0.37852 0.1135 0.09381 0.0
C457 C 0.24146 0.10999 0.06706 0.0
C458 C 0.29376 0.1124 0.04573 0.0
C459 C 0.25923 0.10986 0.10307 0.0
C460 C 0.32838 0.11136 0.11627 0.0
H461 H 0.15005 0.1052 0.94288 0.0
H462 H 0.10719 0.1045 0.00299 0.0
H463 H 0.13277 0.1057 0.0676 0.0
O464 O 0.43769 0.10129 0.02617 0.0
O465 O 0.35533 0.13156 0.00849 0.0
O466 O 0.36633 0.14756 0.054 0.0
O467 O 0.48552 0.10651 0.983 0.0
O468 O 0.48159 0.12747 0.07332 0.0
O469 O 0.43286 0.14594 0.08332 0.0
O470 O 0.39976 0.16426 0.01131 0.0
O471 O 0.54465 0.14187 0.01706 0.0
O472 O 0.54073 0.12548 0.04183 0.0
O473 O 0.46218 0.17252 0.05794 0.0
O474 O 0.43426 0.14587 0.98378 0.0
O475 O 0.46511 0.12598 0.97408 0.0
C476 C 0.32719 0.13947 0.03256 0.0
C477 C 0.53465 0.09053 0.00619 0.0
C478 C 0.5783 0.07138 0.01522 0.0
C479 C 0.64587 0.07617 0.0201 0.0
C480 C 0.6024 0.09512 0.0115 0.0
C481 C 0.65763 0.08794 0.01828 0.0
C482 C 0.5229 0.07869 0.00813 0.0
C483 C 0.46199 0.137 0.09502 0.0
C484 C 0.47522 0.09794 0.99948 0.0
C485 C 0.15931 0.10667 0.01471 0.0
C486 C 0.17382 0.10741 0.05153 0.0
C487 C 0.57625 0.13379 0.0317 0.0
C488 C 0.3576 0.18166 0.04596 0.0
C489 C 0.30085 0.2008 0.05209 0.0
C490 C 0.25266 0.19676 0.07291 0.0
C491 C 0.30884 0.17784 0.06655 0.0
C492 C 0.35316 0.19306 0.03853 0.0
C493 C 0.25651 0.18536 0.07981 0.0
C494 C 0.45011 0.13584 0.96268 0.0
C495 C 0.41536 0.1741 0.03345 0.0
H496 H 0.68988 0.0708 0.02501 0.0
H497 H 0.61266 0.10423 0.01045 0.0
H498 H 0.70983 0.09151 0.02216 0.0
H499 H 0.47032 0.07525 0.00476 0.0
H500 H 0.21263 0.20246 0.08455 0.0
H501 H 0.31174 0.16912 0.07272 0.0
H502 H 0.39067 0.19585 0.02219 0.0
H503 H 0.21927 0.18241 0.09595 0.0
Tb504 Tb 0.58563 0.15275 0.54656 0.0
C505 C 0.75612 0.11006 0.53587 0.0
N506 N 0.70797 0.11098 0.5091 0.0
C507 C 0.79059 0.105 0.46572 0.0
C508 C 0.82476 0.10702 0.52875 0.0
C509 C 0.72315 0.10805 0.47421 0.0
C510 C 0.84192 0.10465 0.49315 0.0
C511 C 0.7829 0.11006 0.59855 0.0
C512 C 0.73539 0.1117 0.57025 0.0
C513 C 0.8525 0.10777 0.5921 0.0
C514 C 0.87339 0.10624 0.55722 0.0
Tb515 Tb 0.60082 0.11675 0.52519 0.0
N516 N 0.66728 0.11366 0.57517 0.0
C517 C 0.7582 0.11002 0.63191 0.0
C518 C 0.64208 0.11185 0.60622 0.0
C519 C 0.68715 0.11056 0.63544 0.0
H520 H 0.68339 0.10835 0.45308 0.0
H521 H 0.66685 0.10969 0.66039 0.0
H522 H 0.70504 0.16124 0.61284 0.0
H523 H 0.33788 0.17203 0.52201 0.0
H524 H 0.58715 0.11135 0.60886 0.0
H525 H 0.79291 0.1088 0.65436 0.0
H526 H 0.44502 0.16131 0.50525 0.0
H527 H 0.803 0.10296 0.4381 0.0
H528 H 0.88993 0.10668 0.61363 0.0
H529 H 0.92674 0.10413 0.55242 0.0
H530 H 0.70955 0.17174 0.67598 0.0
H531 H 0.89416 0.10232 0.48655 0.0
H532 H 0.3225 0.18048 0.58564 0.0
N533 N 0.59658 0.16329 0.60387 0.0
C534 C 0.53877 0.16843 0.61702 0.0
C535 C 0.66097 0.1708 0.65975 0.0
C536 C 0.53872 0.17462 0.6526 0.0
C537 C 0.65824 0.16485 0.62404 0.0
C538 C 0.60059 0.1755 0.67434 0.0
N539 N 0.48749 0.16324 0.55895 0.0
C540 C 0.43831 0.16496 0.53305 0.0
C541 C 0.42238 0.17473 0.60441 0.0
C542 C 0.48177 0.16844 0.59349 0.0
C543 C 0.36913 0.17572 0.57842 0.0
C544 C 0.37776 0.17101 0.54245 0.0
H545 H 0.60289 0.18018 0.70189 0.0
H546 H 0.47644 0.1849 0.69197 0.0
H547 H 0.37429 0.18502 0.6496 0.0
O548 O 0.65023 0.15616 0.50766 0.0
O549 O 0.48555 0.1433 0.5358 0.0
O550 O 0.49291 0.1227 0.5311 0.0
O551 O 0.60323 0.17032 0.5427 0.0
O552 O 0.54047 0.14325 0.49431 0.0
O553 O 0.59586 0.12519 0.47864 0.0
O554 O 0.60533 0.09858 0.52472 0.0
O555 O 0.67472 0.12918 0.51111 0.0
O556 O 0.68209 0.14425 0.55916 0.0
O557 O 0.53906 0.10498 0.48598 0.0
O558 O 0.55535 0.12532 0.57423 0.0
O559 O 0.61794 0.14246 0.5867 0.0
C560 C 0.45786 0.13265 0.53263 0.0
C561 C 0.71156 0.17449 0.52436 0.0
C562 C 0.77179 0.19319 0.5257 0.0
C563 C 0.83308 0.18831 0.5382 0.0
C564 C 0.77311 0.1699 0.53721 0.0
C565 C 0.83356 0.17676 0.54384 0.0
C566 C 0.71115 0.18613 0.51868 0.0
C567 C 0.56144 0.13429 0.47054 0.0
C568 C 0.64648 0.16755 0.51818 0.0
C569 C 0.47799 0.1802 0.66458 0.0
C570 C 0.41982 0.18027 0.64046 0.0
C571 C 0.7121 0.13668 0.53525 0.0
C572 C 0.50321 0.08773 0.50533 0.0
C573 C 0.46885 0.06814 0.51363 0.0
C574 C 0.40227 0.07245 0.52045 0.0
C575 C 0.43708 0.09184 0.51322 0.0
C576 C 0.51892 0.07587 0.50562 0.0
C577 C 0.38673 0.08421 0.5203 0.0
C578 C 0.57491 0.13517 0.5962 0.0
C579 C 0.55773 0.09579 0.49892 0.0
H580 H 0.88042 0.1935 0.54439 0.0
H581 H 0.77439 0.16107 0.54244 0.0
H582 H 0.88086 0.17315 0.55381 0.0
H583 H 0.66347 0.18966 0.50877 0.0
H584 H 0.36201 0.06674 0.52595 0.0
H585 H 0.42465 0.10097 0.51434 0.0
H586 H 0.57078 0.07279 0.50071 0.0
H587 H 0.33561 0.08745 0.52606 0.0
Tb588 Tb 0.45838 0.89826 0.53123 0.0
C589 C 0.55141 0.84807 0.44491 0.0
N590 N 0.48801 0.85286 0.449 0.0
C591 C 0.45664 0.84627 0.38644 0.0
C592 C 0.57095 0.84247 0.41105 0.0
C593 C 0.4395 0.85161 0.42073 0.0
C594 C 0.52302 0.84183 0.38147 0.0
C595 C 0.65971 0.84262 0.47264 0.0
C596 C 0.59508 0.84816 0.47517 0.0
C597 C 0.68094 0.83746 0.43882 0.0
C598 C 0.63666 0.8374 0.40806 0.0
Tb599 Tb 0.46792 0.86232 0.50533 0.0
N600 N 0.57285 0.8533 0.50729 0.0
C601 C 0.70024 0.84223 0.50422 0.0
C602 C 0.61031 0.85233 0.53833 0.0
C603 C 0.67498 0.84697 0.53722 0.0
H604 H 0.38789 0.85492 0.4246 0.0
H605 H 0.70548 0.84657 0.56179 0.0
H606 H 0.4254 0.90424 0.61609 0.0
H607 H 0.30315 0.90159 0.40929 0.0
H608 H 0.5919 0.85628 0.56386 0.0
H609 H 0.75036 0.83809 0.50344 0.0
H610 H 0.41058 0.89917 0.44448 0.0
H611 H 0.41864 0.84555 0.3639 0.0
H612 H 0.73077 0.83327 0.43624 0.0
H613 H 0.65298 0.83314 0.38223 0.0
H614 H 0.32623 0.91135 0.65108 0.0
H615 H 0.53604 0.83763 0.35494 0.0
H616 H 0.19564 0.90672 0.43931 0.0
N617 N 0.36988 0.904 0.5659 0.0
C618 C 0.31006 0.90653 0.54833 0.0
C619 C 0.32093 0.90998 0.6222 0.0
C620 C 0.25219 0.91059 0.56719 0.0
C621 C 0.3768 0.90588 0.60234 0.0
C622 C 0.25826 0.91229 0.60456 0.0
N623 N 0.3636 0.90079 0.49389 0.0
C624 C 0.36369 0.90037 0.45794 0.0
C625 C 0.24402 0.90675 0.49213 0.0
C626 C 0.30627 0.90461 0.51119 0.0
C627 C 0.24245 0.90519 0.45493 0.0
C628 C 0.30288 0.9022 0.43786 0.0
H629 H 0.21492 0.91538 0.62001 0.0
H630 H 0.14472 0.91555 0.56218 0.0
H631 H 0.13747 0.91218 0.49652 0.0
O632 O 0.46129 0.91489 0.51708 0.0
O633 O 0.38216 0.88575 0.54403 0.0
O634 O 0.37349 0.87148 0.49391 0.0
O635 O 0.50579 0.91254 0.568 0.0
O636 O 0.49636 0.89062 0.47921 0.0
O637 O 0.43417 0.87346 0.46769 0.0
O638 O 0.40482 0.85611 0.54017 0.0
O639 O 0.5687 0.87142 0.51592 0.0
O640 O 0.5645 0.89207 0.5239 0.0
O641 O 0.43411 0.84454 0.49273 0.0
O642 O 0.48393 0.87037 0.56247 0.0
O643 O 0.50382 0.89093 0.57582 0.0
C644 C 0.34399 0.87829 0.5199 0.0
C645 C 0.55502 0.92733 0.54233 0.0
C646 C 0.5985 0.94649 0.53507 0.0
C647 C 0.66504 0.9417 0.53205 0.0
C648 C 0.6217 0.92274 0.53913 0.0
C649 C 0.67639 0.92993 0.53414 0.0
C650 C 0.54369 0.93918 0.54034 0.0
C651 C 0.47715 0.88067 0.45765 0.0
C652 C 0.49597 0.91986 0.54647 0.0
C653 C 0.18999 0.91256 0.54819 0.0
C654 C 0.18581 0.91058 0.51078 0.0
C655 C 0.59767 0.88196 0.52052 0.0
C656 C 0.42358 0.83617 0.54355 0.0
C657 C 0.40926 0.8163 0.55535 0.0
C658 C 0.46001 0.81909 0.58411 0.0
C659 C 0.4732 0.83871 0.57273 0.0
C660 C 0.39181 0.82491 0.53482 0.0
C661 C 0.49153 0.83021 0.59268 0.0
C662 C 0.50102 0.88046 0.58458 0.0
C663 C 0.40471 0.84527 0.52247 0.0
H664 H 0.70852 0.94709 0.52845 0.0
H665 H 0.63141 0.91362 0.54036 0.0
H666 H 0.72781 0.92636 0.53179 0.0
H667 H 0.49182 0.94263 0.54217 0.0
H668 H 0.47579 0.81264 0.59995 0.0
H669 H 0.49761 0.84731 0.5803 0.0
H670 H 0.35277 0.82296 0.51261 0.0
H671 H 0.53021 0.83225 0.61498 0.0
C672 C 0.33021 0.38022 0.06315 0.0
C673 C 0.28808 0.38084 0.0322 0.0
C674 C 0.40224 0.38105 0.06335 0.0
C675 C 0.54358 0.38953 0.01087 0.0
H676 H 0.65626 0.37258 0.07111 0.0
C677 C 0.84468 0.39314 0.02309 0.0
C678 C 0.88196 0.38314 0.02845 0.0
C679 C 0.77237 0.39337 0.02405 0.0
C680 C 0.62598 0.37726 0.05363 0.0
H681 H 0.2878 0.38234 0.97677 0.0
H682 H 0.41345 0.3832 0.97636 0.0
H683 H 0.53178 0.37144 0.07037 0.0
H684 H 0.8719 0.36584 0.04049 0.0
H685 H 0.74745 0.3657 0.03921 0.0
H686 H 0.63808 0.39477 0.99255 0.0
C687 C 0.39139 0.38257 1.00106 0.0
C688 C 0.55393 0.37679 0.05376 0.0
C689 C 0.31926 0.38197 1.00112 0.0
C690 C 0.84512 0.37345 0.0348 0.0
C691 C 0.77319 0.37355 0.03509 0.0
C692 C 0.6158 0.38983 0.01023 0.0
C693 C 0.43414 0.38221 0.03228 0.0
C694 C 0.51141 0.38289 0.03235 0.0
C695 C 0.73541 0.38355 0.0301 0.0
C696 C 0.65823 0.38363 0.03146 0.0
H697 H 0.3073 0.37945 0.08756 0.0
H698 H 0.43268 0.38098 0.08818 0.0
H699 H 0.51309 0.39457 0.9945 0.0
H700 H 0.87131 0.40077 0.018 0.0
H701 H 0.74578 0.40133 0.02055 0.0
C702 C 0.17687 0.62598 0.00716 0.0
C703 C 0.14533 0.63344 0.03484 0.0
C704 C 0.24908 0.62619 0.00573 0.0
C705 C 0.41242 0.633 0.06042 0.0
H706 H 0.48854 0.63939 0.97536 0.0
C707 C 0.7046 0.6429 0.06032 0.0
C708 C 0.73776 0.63938 0.0286 0.0
C709 C 0.63249 0.64209 0.06028 0.0
C710 C 0.46874 0.63737 0.99917 0.0
H711 H 0.16449 0.64663 0.08329 0.0
H712 H 0.29043 0.64674 0.08143 0.0
H713 H 0.36366 0.63728 0.97677 0.0
H714 H 0.72076 0.63293 0.9716 0.0
H715 H 0.59552 0.631 0.97148 0.0
H716 H 0.5166 0.63261 0.0826 0.0
C717 C 0.2595 0.64086 0.06059 0.0
C718 C 0.39681 0.63622 0.99995 0.0
C719 C 0.18744 0.64083 0.06158 0.0
C720 C 0.69678 0.63552 0.99657 0.0
C721 C 0.62459 0.63455 0.99654 0.0
C722 C 0.48434 0.63388 0.05941 0.0
C723 C 0.29119 0.63366 0.03242 0.0
C724 C 0.36778 0.63417 0.03075 0.0
C725 C 0.59112 0.63767 0.02852 0.0
C726 C 0.51392 0.63627 0.02896 0.0
H727 H 0.14555 0.62029 0.98601 0.0
H728 H 0.27206 0.62052 0.98377 0.0
H729 H 0.39161 0.63129 0.08442 0.0
H730 H 0.73457 0.64604 0.08546 0.0
H731 H 0.60942 0.64496 0.08537 0.0
C732 C 0.85012 0.63917 0.56213 0.0
C733 C 0.88344 0.63154 0.53555 0.0
C734 C 0.7779 0.63922 0.5619 0.0
C735 C 0.62054 0.63405 0.50339 0.0
H736 H 0.5298 0.63079 0.58779 0.0
C737 C 0.32076 0.63261 0.50299 0.0
C738 C 0.28988 0.63656 0.53517 0.0
C739 C 0.39286 0.63183 0.50247 0.0
C740 C 0.55391 0.63197 0.56413 0.0
H741 H 0.86746 0.6179 0.48797 0.0
H742 H 0.74034 0.61819 0.48692 0.0
H743 H 0.6553 0.62965 0.58817 0.0
H744 H 0.31078 0.64356 0.59177 0.0
H745 H 0.43605 0.64286 0.59078 0.0
H746 H 0.52031 0.63696 0.47972 0.0
C747 C 0.77047 0.62407 0.50812 0.0
C748 C 0.62609 0.63118 0.56431 0.0
C749 C 0.84302 0.62385 0.50882 0.0
C750 C 0.3329 0.64037 0.56654 0.0
C751 C 0.40504 0.63977 0.56599 0.0
C752 C 0.54844 0.63511 0.50342 0.0
C753 C 0.73716 0.63177 0.53468 0.0
C754 C 0.66023 0.63221 0.53396 0.0
C755 C 0.4364 0.63527 0.53406 0.0
C756 C 0.51373 0.63411 0.53383 0.0
H757 H 0.88006 0.64508 0.58332 0.0
H758 H 0.75378 0.64526 0.58264 0.0
H759 H 0.64555 0.63501 0.47973 0.0
H760 H 0.28902 0.62979 0.47825 0.0
H761 H 0.41401 0.62819 0.47733 0.0
C762 C 0.71622 0.37809 0.54785 0.0
C763 C 0.74933 0.37633 0.51581 0.0
C764 C 0.64379 0.37842 0.54751 0.0
C765 C 0.48769 0.38543 0.49599 0.0
H766 H 0.39012 0.36661 0.55007 0.0
C767 C 0.18566 0.38436 0.49096 0.0
C768 C 0.15362 0.38219 0.52077 0.0
C769 C 0.25788 0.38356 0.48954 0.0
C770 C 0.41608 0.37214 0.53531 0.0
H771 H 0.73238 0.37362 0.45826 0.0
H772 H 0.60551 0.37453 0.45763 0.0
H773 H 0.51544 0.36544 0.5495 0.0
H774 H 0.17261 0.37802 0.57319 0.0
H775 H 0.29784 0.37718 0.57177 0.0
H776 H 0.3893 0.39252 0.48283 0.0
C777 C 0.63571 0.37549 0.48303 0.0
C778 C 0.48834 0.37137 0.53479 0.0
C779 C 0.70826 0.37487 0.48334 0.0
C780 C 0.19567 0.3796 0.54963 0.0
C781 C 0.26783 0.37901 0.54856 0.0
C782 C 0.41546 0.38638 0.49703 0.0
C783 C 0.60248 0.37727 0.51514 0.0
C784 C 0.5252 0.37799 0.5151 0.0
C785 C 0.30049 0.38081 0.51828 0.0
C786 C 0.37811 0.37976 0.51677 0.0
H787 H 0.74651 0.37929 0.57329 0.0
H788 H 0.62009 0.37989 0.57273 0.0
H789 H 0.51451 0.39075 0.48087 0.0
H790 H 0.15468 0.38628 0.46818 0.0
H791 H 0.27987 0.38485 0.46542 0.0
C792 C 0.83413 0.8815 1.0005 0.0
C793 C 0.80109 0.88097 0.03151 0.0
C794 C 0.90632 0.88227 1.00154 0.0
C795 C 0.06725 0.87894 0.05966 0.0
H796 H 0.15168 0.89453 0.99263 0.0
C797 C 0.36064 0.87624 0.04547 0.0
C798 C 0.39566 0.88511 0.03353 0.0
C799 C 0.28874 0.87623 0.046 0.0
C800 C 0.12943 0.89031 0.01204 0.0
H801 H 0.81692 0.88083 0.0879 0.0
H802 H 0.94233 0.8828 0.09048 0.0
H803 H 0.02686 0.89391 0.99296 0.0
H804 H 0.38281 0.90143 0.01458 0.0
H805 H 0.25742 0.90201 0.01787 0.0
H806 H 0.16938 0.87605 0.0805 0.0
C807 C 0.91351 0.88218 0.06485 0.0
C808 C 0.05715 0.88973 0.01172 0.0
C809 C 0.8414 0.88109 0.06353 0.0
C810 C 0.35723 0.89441 0.02379 0.0
C811 C 0.28501 0.89461 0.02514 0.0
C812 C 0.13937 0.87978 0.0606 0.0
C813 C 0.94735 0.88278 0.03385 0.0
C814 C 1.02474 0.88386 0.03515 0.0
C815 C 0.24937 0.88543 0.03589 0.0
C816 C 0.17191 0.88528 0.03637 0.0
H817 H 0.80402 0.88132 0.97539 0.0
H818 H 0.92968 0.8824 0.97683 0.0
H819 H 0.04518 0.87422 0.07795 0.0
H820 H 0.38892 0.86937 0.05515 0.0
H821 H 0.26439 0.86889 0.05406 0.0
C822 C 0.20717 0.13746 1.00192 0.0
C823 C 0.25036 0.13974 0.03372 0.0
C824 C 0.13497 0.1368 1.00265 0.0
C825 C 0.98938 0.14343 0.06389 0.0
H826 H 0.88604 0.12272 0.98552 0.0
C827 C 0.69375 0.13217 0.06349 0.0
C828 C 0.65319 0.13323 0.0323 0.0
C829 C 0.76651 0.13284 0.06474 0.0
C830 C 0.91399 0.12859 0.00757 0.0
H831 H 0.25137 0.14325 0.09135 0.0
H832 H 0.12581 0.14175 0.09292 0.0
H833 H 1.01141 0.12409 0.98611 0.0
H834 H 0.65717 0.13557 0.97783 0.0
H835 H 0.78359 0.13629 0.9795 0.0
H836 H 0.89112 0.14759 0.08568 0.0
C837 C 0.14707 0.14074 0.06717 0.0
C838 C 0.98635 0.12947 0.00785 0.0
C839 C 0.21941 0.14159 0.06637 0.0
C840 C 0.687 0.13466 1.00218 0.0
C841 C 0.75953 0.13506 0.00315 0.0
C842 C 0.91697 0.14239 0.06387 0.0
C843 C 0.10333 0.13823 0.03526 0.0
C844 C 1.02559 0.13703 0.03578 0.0
C845 C 0.80049 0.13428 0.03453 0.0
C846 C 0.87811 0.13504 0.03552 0.0
H847 H 0.22939 0.13608 0.97631 0.0
H848 H 0.10411 0.13516 0.97738 0.0
H849 H 1.01662 0.14949 0.08572 0.0
H850 H 0.66913 0.13121 0.08726 0.0
H851 H 0.79627 0.13216 0.08932 0.0
C852 C 0.3484 0.1415 0.55503 0.0
C853 C 0.3817 0.1322 0.5338 0.0
C854 C 0.27653 0.14163 0.5554 0.0
C855 C 0.11477 0.1268 0.50645 0.0
H856 H 0.0334 0.14493 0.58901 0.0
C857 C 0.82063 0.13496 0.50351 0.0
C858 C 0.78817 0.1366 0.53558 0.0
C859 C 0.89271 0.13436 0.50374 0.0
C860 C 0.05455 0.13961 0.56586 0.0
H861 H 0.36532 0.11569 0.4962 0.0
H862 H 0.24034 0.1152 0.49942 0.0
H863 H 0.157 0.14296 0.58991 0.0
H864 H 0.80463 0.13889 0.59302 0.0
H865 H 0.92958 0.13705 0.59362 0.0
H866 H 1.01181 0.12264 0.48366 0.0
C867 C 0.26925 0.12273 0.51481 0.0
C868 C 0.12646 0.1387 0.56603 0.0
C869 C 0.3414 0.12281 0.51362 0.0
C870 C 0.82877 0.13774 0.56795 0.0
C871 C 0.90068 0.13675 0.56817 0.0
C872 C 0.04266 0.1274 0.50675 0.0
C873 C 0.23543 0.13221 0.53551 0.0
C874 C 0.15806 0.13248 0.53607 0.0
C875 C 0.93405 0.13504 0.53604 0.0
C876 C 1.01124 0.13398 0.53622 0.0
H877 H 0.378 0.14874 0.57156 0.0
H878 H 0.25361 0.14928 0.57106 0.0
H879 H 0.13618 0.12201 0.48258 0.0
H880 H 0.79019 0.13419 0.47822 0.0
H881 H 0.91567 0.13339 0.47845 0.0
C882 C 0.70634 0.87454 0.4934 0.0
C883 C 0.67391 0.88229 0.51997 0.0
C884 C 0.77847 0.87429 0.49342 0.0
C885 C 0.94069 0.89095 0.53509 0.0
H886 H 1.02602 0.86126 0.4972 0.0
C887 C 0.23619 0.88214 0.55289 0.0
C888 C 0.2675 0.87798 0.52091 0.0
C889 C 0.16402 0.88274 0.55317 0.0
C890 C 1.00287 0.86962 0.50774 0.0
H891 H 0.69123 0.89597 0.56728 0.0
H892 H 0.81739 0.89528 0.56844 0.0
H893 H 0.90072 0.86227 0.49772 0.0
H894 H 0.24733 0.87058 0.46444 0.0
H895 H 0.12121 0.87117 0.46524 0.0
H896 H 0.04411 0.89808 0.54638 0.0
C897 C 0.78752 0.88956 0.54683 0.0
C898 C 0.93073 0.87027 0.50781 0.0
C899 C 0.71506 0.88995 0.54636 0.0
C900 C 0.22489 0.87386 0.48953 0.0
C901 C 0.1527 0.87423 0.48994 0.0
C902 C 1.013 0.89023 0.53569 0.0
C903 C 0.82057 0.88166 0.52046 0.0
C904 C 0.89817 0.88097 0.52117 0.0
C905 C 0.12149 0.87885 0.52165 0.0
C906 C 0.04482 0.87958 0.52178 0.0
H907 H 0.67572 0.86874 0.47223 0.0
H908 H 0.80095 0.86833 0.47193 0.0
H909 H 0.91834 0.89942 0.54505 0.0
H910 H 0.26757 0.88513 0.57766 0.0
H911 H 0.1414 0.8862 0.57808 0.0
C912 C 0.07991 0.54829 0.99766 0.0
C913 C 0.04403 0.55748 0.01808 0.0
C914 C 0.06851 0.53657 1.0003 0.0
C915 C 1.00752 0.51833 0.06056 0.0
H916 H 0.98574 0.49392 0.97491 0.0
C917 C 0.93355 0.47037 0.0661 0.0
C918 C 0.96365 0.46116 0.04264 0.0
C919 C 0.94183 0.4821 0.06281 0.0
C920 C 0.99267 0.50058 0.99917 0.0
H921 H 0.96846 0.56156 0.05751 0.0
H922 H 0.94872 0.54109 0.06222 0.0
H923 H 1.00361 0.51433 0.96982 0.0
H924 H 1.02544 0.45722 0.99687 0.0
H925 H 0.0421 0.47762 0.99204 0.0
H926 H 0.99808 0.50461 0.09004 0.0
C927 C 0.98567 0.54296 0.04416 0.0
C928 C 1.0027 0.5123 0.9962 0.0
C929 C 0.99652 0.55467 0.04123 0.0
C930 C 1.00222 0.46404 0.01577 0.0
C931 C 1.01093 0.47578 0.01265 0.0
C932 C 0.99813 0.50659 0.06357 0.0
C933 C 1.02148 0.53377 0.02369 0.0
C934 C 1.01023 0.52131 0.02685 0.0
C935 C 0.98088 0.48499 0.03613 0.0
C936 C 0.99054 0.49754 0.03291 0.0
H937 H 0.11644 0.55015 0.97936 0.0
H938 H 0.09732 0.52971 0.98437 0.0
H939 H 1.01406 0.52504 0.08471 0.0
H940 H 0.90421 0.46856 0.08742 0.0
H941 H 0.91705 0.4889 0.08111 0.0
C942 C 0.02884 0.46442 0.56065 0.0
C943 C 0.07199 0.45745 0.53719 0.0
C944 C 1.01754 0.47626 0.55903 0.0
C945 C 0.09217 0.50132 0.52655 0.0
H946 H 0.9089 0.51431 0.5371 0.0
C947 C 1.02463 0.5478 0.50036 0.0
C948 C 0.9797 0.55467 0.52295 0.0
C949 C 0.03633 0.53599 0.5023 0.0
C950 C 0.96064 0.51089 0.53454 0.0
H951 H 0.13572 0.45753 0.49301 0.0
H952 H 0.11627 0.47812 0.49031 0.0
H953 H 0.92804 0.49373 0.54018 0.0
H954 H 0.91332 0.55452 0.566 0.0
H955 H 0.93387 0.53402 0.56951 0.0
H956 H 0.12486 0.51848 0.52101 0.0
C957 C 0.09203 0.47449 0.51039 0.0
C958 C 0.97161 0.49906 0.53629 0.0
C959 C 0.10322 0.46265 0.51196 0.0
C960 C 0.94729 0.54945 0.54774 0.0
C961 C 0.95905 0.53767 0.54973 0.0
C962 C 0.08125 0.51316 0.52486 0.0
C963 C 0.04914 0.48146 0.53393 0.0
C964 C 0.0375 0.4941 0.53228 0.0
C965 C 1.00352 0.53075 0.52695 0.0
C966 C 1.0153 0.51812 0.52881 0.0
H967 H 1.0047 0.46079 0.58077 0.0
H968 H 0.98495 0.48139 0.57791 0.0
H969 H 0.14385 0.49788 0.5239 0.0
H970 H 0.04978 0.55147 0.48062 0.0
H971 H 0.07012 0.53092 0.48396 0.0
C972 C 0.45541 0.97133 0.06324 0.0
C973 C 0.48344 0.96212 0.03891 0.0
C974 C 0.46434 0.98309 0.06034 0.0
C975 C 0.5243 1.00738 0.06128 0.0
H976 H 0.51825 0.01581 0.96806 0.0
C977 C 0.60408 0.05385 0.04367 0.0
C978 C 0.56586 0.05886 0.01786 0.0
C979 C 0.59312 0.0421 0.04603 0.0
C980 C 0.5195 0.01364 0.99434 0.0
H981 H 0.54229 0.95817 0.99208 0.0
H982 H 0.55933 0.97866 0.98757 0.0
H983 H 0.49946 0.99536 0.97241 0.0
H984 H 0.48611 0.05529 0.97412 0.0
H985 H 0.46582 0.03489 0.97879 0.0
H986 H 0.54277 0.02568 0.08325 0.0
C987 C 0.52962 0.97678 0.00868 0.0
C988 C 0.5096 1.00186 0.99682 0.0
C989 C 0.52059 0.96501 0.01155 0.0
C990 C 0.51607 0.05179 0.99457 0.0
C991 C 0.50504 0.04002 0.99696 0.0
C992 C 0.5341 0.01915 0.05879 0.0
C993 C 0.50173 0.98599 0.03309 0.0
C994 C 0.51195 0.99856 0.03034 0.0
C995 C 0.54346 0.03501 0.02271 0.0
C996 C 0.53203 0.02246 0.02529 0.0
H997 H 0.42718 0.96949 0.08491 0.0
H998 H 0.44135 0.9899 0.07937 0.0
H999 H 0.52729 1.00518 0.08754 0.0
H1000 H 0.64225 0.05905 0.06238 0.0
H1001 H 0.62431 0.03854 0.06593 0.0
C1002 C 0.45969 0.05054 0.5425 0.0
C1003 C 0.48593 0.05571 0.51585 0.0
C1004 C 0.47415 0.03885 0.54442 0.0
C1005 C 0.53136 0.0107 0.49057 0.0
H1006 H 0.56147 1.002 0.58317 0.0
C1007 C 0.61808 0.96401 0.50701 0.0
C1008 C 0.58637 0.95902 0.53252 0.0
C1009 C 0.60711 0.9758 0.50473 0.0
C1010 C 0.55249 1.00425 0.55709 0.0
H1011 H 0.54859 0.05254 0.47039 0.0
H1012 H 0.57522 0.0322 0.47425 0.0
H1013 H 0.54191 0.02254 0.57979 0.0
H1014 H 0.51854 0.96261 0.5758 0.0
H1015 H 0.49886 0.98312 0.5716 0.0
H1016 H 0.54228 0.99239 0.46793 0.0
C1017 C 0.54245 0.03717 0.49338 0.0
C1018 C 0.54123 0.01605 0.55513 0.0
C1019 C 0.52785 0.04889 0.49141 0.0
C1020 C 0.54332 0.96613 0.55565 0.0
C1021 C 0.53263 0.97793 0.55349 0.0
C1022 C 0.5429 0.9989 0.49254 0.0
C1023 C 0.51562 0.03198 0.51987 0.0
C1024 C 0.53004 0.01944 0.52185 0.0
C1025 C 0.56443 0.98292 0.52802 0.0
C1026 C 0.55321 0.99551 0.52584 0.0
H1027 H 0.42811 0.05555 0.56215 0.0
H1028 H 0.45185 0.03515 0.56494 0.0
H1029 H 0.52195 0.01293 0.46448 0.0
H1030 H 0.65097 0.95877 0.48852 0.0
H1031 H 0.63287 0.97937 0.485 0.0
C1032 C 0.22197 0.30466 0.02615 0.0
C1033 C 0.28066 0.31008 0.01651 0.0
C1034 C 0.22199 0.29269 0.02787 0.0
C1035 C 0.32068 0.26482 1.00114 0.0
H1036 H 0.21944 0.25464 0.07347 0.0
C1037 C 0.35791 0.21953 0.04312 0.0
C1038 C 0.29726 0.21311 0.04536 0.0
C1039 C 0.35447 0.23114 0.03779 0.0
C1040 C 0.24755 0.25734 0.05297 0.0
H1041 H 0.38498 0.30686 1.00023 0.0
H1042 H 0.38641 0.28634 0.00521 0.0
H1043 H 0.21648 0.27523 0.06803 0.0
H1044 H 0.18508 0.21399 0.04261 0.0
H1045 H 0.17968 0.23435 0.03478 0.0
H1046 H 0.35373 0.24691 0.98723 0.0
C1047 C 0.3395 0.29121 0.01064 0.0
C1048 C 0.24561 0.26916 0.04964 0.0
C1049 C 0.33911 0.30312 0.00839 0.0
C1050 C 0.2331 0.21866 0.04189 0.0
C1051 C 0.22982 0.23033 0.03719 0.0
C1052 C 0.32355 0.25305 0.00493 0.0
C1053 C 0.28102 0.28579 0.0205 0.0
C1054 C 0.28214 0.2731 0.02365 0.0
C1055 C 0.29044 0.23671 0.03514 0.0
C1056 C 0.28696 0.24918 0.03085 0.0
H1057 H 0.17616 0.30968 0.03307 0.0
H1058 H 0.1754 0.28886 0.03495 0.0
H1059 H 0.34835 0.26737 0.98028 0.0
H1060 H 0.4084 0.21572 0.04632 0.0
H1061 H 0.40211 0.23589 0.03667 0.0
C1062 C 0.83115 0.80273 0.97671 0.0
C1063 C 0.7988 0.81037 0.00362 0.0
C1064 C 0.83344 0.79064 0.97631 0.0
C1065 C 0.83964 0.76902 0.03233 0.0
H1066 H 0.77251 0.74686 0.94683 0.0
C1067 C 0.86531 0.71857 0.02299 0.0
C1068 C 0.88211 0.71191 0.98989 0.0
C1069 C 0.84532 0.73036 0.02609 0.0
C1070 C 0.79249 0.75288 0.97082 0.0
H1071 H 0.74419 0.81144 0.05144 0.0
H1072 H 0.75041 0.79023 0.05146 0.0
H1073 H 0.75975 0.76793 0.94943 0.0
H1074 H 0.88675 0.71234 0.93369 0.0
H1075 H 0.85611 0.73279 0.93932 0.0
H1076 H 0.87612 0.75412 0.05314 0.0
C1077 C 0.773 0.79362 0.03044 0.0
C1078 C 0.78458 0.76496 0.97231 0.0
C1079 C 0.76925 0.80571 0.03035 0.0
C1080 C 0.87581 0.71722 0.95983 0.0
C1081 C 0.85687 0.72899 0.96298 0.0
C1082 C 0.84895 0.75692 0.03059 0.0
C1083 C 0.80477 0.78597 0.00327 0.0
C1084 C 0.80877 0.77315 0.00289 0.0
C1085 C 0.84205 0.73582 0.9962 0.0
C1086 C 0.82645 0.74866 0.99955 0.0
H1087 H 0.85403 0.80611 0.95572 0.0
H1088 H 0.85854 0.78493 0.95519 0.0
H1089 H 0.85906 0.77518 0.05617 0.0
H1090 H 0.8697 0.71482 0.04679 0.0
H1091 H 0.83314 0.73521 0.05204 0.0
C1092 C 0.18434 0.71568 0.53554 0.0
C1093 C 0.17145 0.70897 0.50078 0.0
C1094 C 0.21003 0.72726 0.54092 0.0
C1095 C 0.29911 0.74819 0.49658 0.0
H1096 H 0.21862 0.77193 0.56747 0.0
C1097 C 0.36373 0.79799 0.5123 0.0
C1098 C 0.3751 0.80443 0.54751 0.0
C1099 C 0.3365 0.78647 0.50564 0.0
C1100 C 0.24221 0.76541 0.54778 0.0
H1101 H 0.17833 0.70903 0.44453 0.0
H1102 H 0.22231 0.72919 0.45388 0.0
H1103 H 0.17971 0.7515 0.55865 0.0
H1104 H 0.36368 0.80396 0.60315 0.0
H1105 H 0.31773 0.78395 0.59167 0.0
H1106 H 0.36191 0.7621 0.48585 0.0
C1107 C 0.21275 0.72553 0.47703 0.0
C1108 C 0.21994 0.75367 0.54278 0.0
C1109 C 0.18687 0.714 0.47165 0.0
C1110 C 0.35658 0.79921 0.57572 0.0
C1111 C 0.3294 0.78775 0.56909 0.0
C1112 C 0.32151 0.75995 0.50163 0.0
C1113 C 0.22386 0.73238 0.5117 0.0
C1114 C 0.24824 0.74489 0.51721 0.0
C1115 C 0.31962 0.78116 0.53401 0.0
C1116 C 0.2936 0.76871 0.52743 0.0
H1117 H 0.17267 0.71211 0.55854 0.0
H1118 H 0.21886 0.73223 0.56803 0.0
H1119 H 0.32261 0.74166 0.4769 0.0
H1120 H 0.37767 0.80172 0.48997 0.0
H1121 H 0.32884 0.78172 0.47824 0.0
C1122 C 0.8393 0.29602 0.49006 0.0
C1123 C 0.78316 0.30335 0.49986 0.0
C1124 C 0.8377 0.28411 0.49242 0.0
C1125 C 0.7509 0.26296 0.53648 0.0
H1126 H 0.81982 0.23948 0.46075 0.0
C1127 C 0.71517 0.21301 0.53099 0.0
C1128 C 0.77109 0.20567 0.52087 0.0
C1129 C 0.71581 0.22484 0.52776 0.0
C1130 C 0.80105 0.24593 0.48235 0.0
H1131 H 0.68177 0.30387 0.52044 0.0
H1132 H 0.67861 0.28311 0.5241 0.0
H1133 H 0.82348 0.26023 0.45692 0.0
H1134 H 0.87088 0.20505 0.49852 0.0
H1135 H 0.87264 0.22569 0.49357 0.0
H1136 H 0.72877 0.24869 0.56201 0.0
C1137 C 0.72413 0.28658 0.51478 0.0
C1138 C 0.80317 0.25784 0.48015 0.0
C1139 C 0.72562 0.29847 0.51231 0.0
C1140 C 0.82725 0.21046 0.50698 0.0
C1141 C 0.82789 0.22228 0.50374 0.0
C1142 C 0.74889 0.25105 0.53871 0.0
C1143 C 0.78006 0.27923 0.50479 0.0
C1144 C 0.77811 0.26652 0.50718 0.0
C1145 C 0.77238 0.22967 0.51429 0.0
C1146 C 0.77392 0.24236 0.51168 0.0
H1147 H 0.88419 0.29945 0.48005 0.0
H1148 H 0.88201 0.27875 0.48484 0.0
H1149 H 0.73212 0.26941 0.55807 0.0
H1150 H 0.67135 0.20969 0.54213 0.0
H1151 H 0.67173 0.2302 0.53573 0.0
C1152 C 0.98302 0.38154 0.13694 0.0
C1153 C 0.05212 0.38241 0.12927 0.0
C1154 C 0.96697 0.37994 0.17077 0.0
C1155 C 0.0484 0.37188 0.25453 0.0
H1156 H 0.8878 0.38706 0.29692 0.0
C1157 C 1.01651 0.38282 0.40601 0.0
C1158 C 0.95603 0.37859 0.41741 0.0
C1159 C 1.02415 0.3821 0.36967 0.0
C1160 C 0.93238 0.38268 0.2852 0.0
H1161 H 0.15865 0.38256 0.15049 0.0
H1162 H 0.1313 0.38044 0.20992 0.0
H1163 H 0.90923 0.38823 0.23562 0.0
H1164 H 0.85511 0.37062 0.40007 0.0
H1165 H 0.86746 0.36977 0.33605 0.0
H1166 H 0.07321 0.36693 0.30504 0.0
C1167 C 0.08904 0.3805 0.18983 0.0
C1168 C 0.94465 0.38329 0.25 0.0
C1169 C 0.10493 0.38186 0.15589 0.0
C1170 C 0.90248 0.37384 0.39183 0.0
C1171 C 0.90943 0.37339 0.35538 0.0
C1172 C 0.03679 0.37148 0.28987 0.0
C1173 C 1.01984 0.37943 0.19778 0.0
C1174 C 1.0035 0.37805 0.23432 0.0
C1175 C 0.97064 0.37743 0.34403 0.0
C1176 C 0.97918 0.37699 0.30565 0.0
H1177 H 0.94157 0.38184 0.11654 0.0
H1178 H 0.91317 0.37898 0.17555 0.0
H1179 H 0.0931 0.36742 0.24322 0.0
H1180 H 0.05835 0.38655 0.4252 0.0
H1181 H 0.07157 0.38536 0.36159 0.0
C1182 C 0.03063 0.63317 0.14942 0.0
C1183 C 0.96922 0.63739 0.13502 0.0
C1184 C 0.03999 0.63309 0.18601 0.0
C1185 C 0.94148 0.63285 0.26499 0.0
H1186 H 0.11771 0.64168 0.31831 0.0
C1187 C 0.06791 0.64383 0.4206 0.0
C1188 C 0.04171 0.63435 0.43373 0.0
C1189 C 0.05798 0.64426 0.38434 0.0
C1190 C 0.06799 0.63925 0.30389 0.0
H1191 H 0.86858 0.64451 0.14736 0.0
H1192 H 0.88529 0.6446 0.21125 0.0
H1193 H 0.10308 0.64271 0.25516 0.0
H1194 H 0.98494 0.61778 0.4188 0.0
H1195 H 0.96768 0.61849 0.35523 0.0
H1196 H 0.90621 0.62951 0.31385 0.0
C1197 C 0.92641 0.64137 0.19439 0.0
C1198 C 0.05984 0.63973 0.26756 0.0
C1199 C 0.91728 0.64151 0.15788 0.0
C1200 C 1.00536 0.62525 0.40959 0.0
C1201 C 0.99516 0.6257 0.37322 0.0
C1202 C 0.94975 0.63231 0.3013 0.0
C1203 C 0.98769 0.63708 0.20892 0.0
C1204 C 0.99642 0.63657 0.24765 0.0
C1205 C 1.0218 0.63517 0.3601 0.0
C1206 C 1.01304 0.63555 0.32127 0.0
H1207 H 0.07116 0.62983 0.13228 0.0
H1208 H 0.0875 0.6296 0.1962 0.0
H1209 H 0.89216 0.63022 0.25038 0.0
H1210 H 0.09805 0.65079 0.43816 0.0
H1211 H 0.0788 0.65173 0.3753 0.0
C1212 C 1.00557 0.62625 0.9099 0.0
C1213 C 0.97834 0.63621 0.93153 0.0
C1214 C 1.01695 0.62622 0.87417 0.0
C1215 C 0.99341 0.62614 0.79426 0.0
H1216 H 0.07418 0.65351 0.76792 0.0
C1217 C 1.0039 0.63061 0.64674 0.0
C1218 C 0.06654 0.63473 0.63724 0.0
C1219 C 0.99254 0.63109 0.68269 0.0
C1220 C 0.05178 0.64578 0.77486 0.0
H1221 H 0.93902 0.65373 0.93178 0.0
H1222 H 0.96074 0.65383 0.86995 0.0
H1223 H 0.05727 0.65365 0.83067 0.0
H1224 H 0.16759 0.64207 0.65775 0.0
H1225 H 0.1472 0.64324 0.72059 0.0
H1226 H 0.98818 0.61825 0.73851 0.0
C1227 C 0.97447 0.64611 0.88082 0.0
C1228 C 0.04158 0.6459 0.81078 0.0
C1229 C 0.96258 0.64611 0.91644 0.0
C1230 C 0.11779 0.63926 0.66436 0.0
C1231 C 0.10627 0.63985 0.70034 0.0
C1232 C 1.00301 0.62606 0.75833 0.0
C1233 C 1.00153 0.63616 0.85917 0.0
C1234 C 1.01246 0.63606 0.82095 0.0
C1235 C 0.04367 0.63569 0.70995 0.0
C1236 C 0.03247 0.63587 0.74818 0.0
H1237 H 1.01834 0.61847 0.92058 0.0
H1238 H 0.03843 0.61844 0.85835 0.0
H1239 H 0.97023 0.61845 0.80109 0.0
H1240 H 0.96367 0.62701 0.62631 0.0
H1241 H 0.94356 0.6279 0.68917 0.0
C1242 C 1.0144 0.3881 0.64986 0.0
C1243 C 0.97171 0.37977 0.62635 0.0
C1244 C 1.02279 0.38783 0.68632 0.0
C1245 C 1.00506 0.3896 0.76506 0.0
H1246 H 0.99946 0.35977 0.79609 0.0
C1247 C 1.00478 0.38822 0.91445 0.0
C1248 C 0.04116 0.37921 0.92721 0.0
C1249 C 0.99344 0.38786 0.87778 0.0
C1250 C 1.00195 0.36819 0.788 0.0
H1251 H 0.90322 0.36472 0.62286 0.0
H1252 H 0.91555 0.36451 0.68638 0.0
H1253 H 0.98929 0.36004 0.73263 0.0
H1254 H 0.09333 0.36267 0.91142 0.0
H1255 H 0.07578 0.36221 0.84737 0.0
H1256 H 1.02131 0.39772 0.82023 0.0
C1257 C 0.94455 0.37105 0.6767 0.0
C1258 C 0.99497 0.36836 0.75143 0.0
C1259 C 0.93703 0.37122 0.64018 0.0
C1260 C 0.06463 0.36969 0.9024 0.0
C1261 C 0.05431 0.36943 0.86561 0.0
C1262 C 1.01301 0.38942 0.80155 0.0
C1263 C 0.98782 0.37931 0.70035 0.0
C1264 C 0.99612 0.37908 0.73939 0.0
C1265 C 1.01929 0.3786 0.85276 0.0
C1266 C 1.01116 0.37871 0.81364 0.0
H1267 H 0.04238 0.39474 0.64001 0.0
H1268 H 0.05762 0.39421 0.70338 0.0
H1269 H 1.00528 0.39806 0.75709 0.0
H1270 H 0.98521 0.39561 0.93288 0.0
H1271 H 0.9645 0.39492 0.86913 0.0
C1272 C 0.6339 0.88277 0.15457 0.0
C1273 C 0.57886 0.88436 0.13017 0.0
C1274 C 0.6217 0.88187 0.18947 0.0
C1275 C 0.48679 0.88731 0.25566 0.0
H1276 H 0.60643 0.86789 0.30506 0.0
C1277 C 0.43328 0.87677 0.39318 0.0
C1278 C 0.48853 0.87951 0.41944 0.0
C1279 C 0.44321 0.87665 0.35728 0.0
C1280 C 0.57273 0.87336 0.29156 0.0
H1281 H 0.46814 0.88612 0.12244 0.0
H1282 H 0.44588 0.88406 0.18293 0.0
H1283 H 0.62438 0.86896 0.24339 0.0
H1284 H 0.59743 0.88404 0.42904 0.0
H1285 H 0.61546 0.88349 0.36595 0.0
H1286 H 0.43406 0.89137 0.30382 0.0
C1287 C 0.49889 0.88389 0.17581 0.0
C1288 C 0.58323 0.87406 0.25626 0.0
C1289 C 0.51139 0.88504 0.14109 0.0
C1290 C 0.55417 0.88187 0.40916 0.0
C1291 C 0.56446 0.88151 0.37317 0.0
C1292 C 0.47555 0.88641 0.29073 0.0
C1293 C 0.55391 0.8823 0.2006 0.0
C1294 C 0.54095 0.88117 0.23786 0.0
C1295 C 0.50884 0.87908 0.34694 0.0
C1296 C 0.51884 0.87953 0.30915 0.0
H1297 H 0.68648 0.88229 0.14664 0.0
H1298 H 0.66572 0.88093 0.20775 0.0
H1299 H 0.4538 0.89304 0.24288 0.0
H1300 H 0.38197 0.87507 0.40058 0.0
H1301 H 0.39956 0.87471 0.33758 0.0
C1302 C 0.52236 0.13066 0.14789 0.0
C1303 C 0.47047 0.13731 0.13396 0.0
C1304 C 0.52922 0.1305 0.18436 0.0
C1305 C 0.49047 0.14704 0.27265 0.0
H1306 H 0.51461 0.1169 0.30112 0.0
C1307 C 0.49962 0.14262 0.42114 0.0
C1308 C 0.54664 0.13456 0.43211 0.0
C1309 C 0.48705 0.14299 0.38488 0.0
C1310 C 0.50882 0.12542 0.29373 0.0
H1311 H 0.38495 0.14901 0.14731 0.0
H1312 H 0.39796 0.14894 0.21141 0.0
H1313 H 0.50025 0.11768 0.23789 0.0
H1314 H 0.61787 0.12064 0.41334 0.0
H1315 H 0.59725 0.12145 0.35057 0.0
H1316 H 0.50062 0.15484 0.32841 0.0
C1317 C 0.4334 0.14388 0.19401 0.0
C1318 C 0.50037 0.12585 0.25744 0.0
C1319 C 0.42605 0.14393 0.15738 0.0
C1320 C 0.58073 0.12688 0.40593 0.0
C1321 C 0.56861 0.12731 0.36978 0.0
C1322 C 0.49958 0.14663 0.30901 0.0
C1323 C 0.48469 0.13707 0.20782 0.0
C1324 C 0.49154 0.13666 0.24648 0.0
C1325 C 0.52157 0.13536 0.3587 0.0
C1326 C 0.50935 0.13581 0.32004 0.0
H1327 H 0.55763 0.12552 0.13052 0.0
H1328 H 0.5698 0.12529 0.19428 0.0
H1329 H 0.48436 0.15552 0.26498 0.0
H1330 H 0.47214 0.14864 0.44053 0.0
H1331 H 0.44973 0.14919 0.37738 0.0
C1332 C 0.43998 0.14609 0.91053 0.0
C1333 C 0.45588 0.13592 0.92425 0.0
C1334 C 0.44935 0.14641 0.87486 0.0
C1335 C 0.51609 0.14707 0.8057 0.0
H1336 H 0.46826 0.1199 0.73067 0.0
C1337 C 0.60425 0.14191 0.66199 0.0
C1338 C 0.55704 0.13675 0.63364 0.0
C1339 C 0.58884 0.14248 0.69742 0.0
C1340 C 0.48132 0.12761 0.75123 0.0
H1341 H 0.49295 0.11802 0.91071 0.0
H1342 H 0.50931 0.11861 0.84866 0.0
H1343 H 0.44541 0.11945 0.79211 0.0
H1344 H 0.45641 0.1283 0.61983 0.0
H1345 H 0.42914 0.12933 0.68161 0.0
H1346 H 0.55145 0.15527 0.76467 0.0
C1347 C 0.48916 0.12632 0.86546 0.0
C1348 C 0.46896 0.1273 0.78654 0.0
C1349 C 0.47998 0.126 0.90115 0.0
C1350 C 0.49378 0.13231 0.64128 0.0
C1351 C 0.47837 0.13285 0.67663 0.0
C1352 C 0.52863 0.14738 0.77036 0.0
C1353 C 0.47453 0.13656 0.85195 0.0
C1354 C 0.48637 0.13701 0.81424 0.0
C1355 C 0.52607 0.1378 0.70515 0.0
C1356 C 0.5115 0.13764 0.7427 0.0
H1357 H 0.4209 0.15389 0.92739 0.0
H1358 H 0.43657 0.15438 0.86519 0.0
H1359 H 0.53079 0.15466 0.82642 0.0
H1360 H 0.65429 0.14505 0.65682 0.0
H1361 H 0.62719 0.14619 0.71872 0.0
C1362 C 0.55439 0.88883 0.64635 0.0
C1363 C 0.51459 0.88002 0.62294 0.0
C1364 C 0.56402 0.88863 0.68287 0.0
C1365 C 0.5421 0.89037 0.76144 0.0
H1366 H 0.55055 0.86071 0.79376 0.0
C1367 C 0.5248 0.8886 0.91015 0.0
C1368 C 0.56471 0.88027 0.92445 0.0
C1369 C 0.5192 0.88831 0.87335 0.0
C1370 C 0.54907 0.8691 0.78534 0.0
H1371 H 0.45235 0.86426 0.61979 0.0
H1372 H 0.46797 0.864 0.68311 0.0
H1373 H 0.54506 0.86071 0.73015 0.0
H1374 H 0.62994 0.86506 0.91107 0.0
H1375 H 0.62179 0.86473 0.84714 0.0
H1376 H 0.54883 0.89878 0.81662 0.0
C1377 C 0.49378 0.87088 0.67335 0.0
C1378 C 0.54489 0.86909 0.74867 0.0
C1379 C 0.48477 0.87102 0.63687 0.0
C1380 C 0.59821 0.87155 0.90097 0.0
C1381 C 0.59332 0.87135 0.86417 0.0
C1382 C 0.54702 0.89038 0.79811 0.0
C1383 C 0.53331 0.87971 0.69697 0.0
C1384 C 0.54076 0.87973 0.73615 0.0
C1385 C 0.55407 0.87977 0.84982 0.0
C1386 C 0.55001 0.87974 0.81063 0.0
H1387 H 0.57824 0.89588 0.63646 0.0
H1388 H 0.59576 0.89548 0.70001 0.0
H1389 H 0.53816 0.89875 0.753 0.0
H1390 H 0.49784 0.89539 0.92742 0.0
H1391 H 0.48719 0.89479 0.86337 0.0
loop_
_geom_bond_atom_site_label_1
_geom_bond_atom_site_label_2
_geom_bond_distance
_geom_bond_site_symmetry_2
_ccdc_geom_bond_type
Tb0 N29 2.617 1_554 S
Tb0 N35 2.572 . S
Tb0 O44 2.465 . S
Tb0 O45 2.387 . S
Tb0 O47 2.428 . S
Tb0 O48 2.308 . S
Tb0 O52 2.349 1_455 S
Tb0 O55 2.393 1_554 S
Tb0 C64 2.802 . S
C1 N2 1.379 . S
C1 C4 1.416 . S
C1 C8 1.424 . S
N2 C1 1.379 . S
N2 C5 1.334 . S
N2 Tb11 2.617 1_655 S
C3 C5 1.390 . S
C3 C6 1.339 . S
C3 H23 0.930 . S
C4 C1 1.416 . S
C4 C6 1.416 . S
C4 C10 1.448 . S
C5 N2 1.334 . S
C5 C3 1.390 . S
C5 H16 0.930 1_655 S
C6 C3 1.339 . S
C6 C4 1.416 . S
C6 H27 0.930 . S
C7 C8 1.413 . S
C7 C9 1.427 . S
C7 C13 1.416 1_554 S
C8 C1 1.424 . S
C8 C7 1.413 . S
C8 N12 1.361 . S
C9 C7 1.427 . S
C9 C10 1.328 . S
C9 H24 0.929 . S
C10 C4 1.448 . S
C10 C9 1.328 . S
C10 H25 0.930 . S
Tb11 N2 2.617 1_455 S
Tb11 N12 2.572 1_455 S
Tb11 O46 2.349 . S
Tb11 O49 2.393 . S
Tb11 O50 2.465 1_554 S
Tb11 O51 2.387 1_455 S
Tb11 O53 2.428 . S
Tb11 O54 2.308 1_554 S
Tb11 C75 2.802 . S
N12 C8 1.361 . S
N12 Tb11 2.572 1_655 S
N12 C14 1.340 1_554 S
C13 C7 1.416 1_556 S
C13 C15 1.332 . S
C13 H21 0.931 . S
C14 N12 1.340 1_556 S
C14 C15 1.407 . S
C14 H20 0.930 . S
C15 C13 1.332 . S
C15 C14 1.407 . S
C15 H17 0.929 . S
H16 C5 0.930 1_455 S
H17 C15 0.929 . S
H18 C33 0.930 . S
H19 C40 0.929 . S
H20 C14 0.930 . S
H21 C13 0.931 . S
H22 C36 0.930 . S
H23 C3 0.930 . S
H24 C9 0.929 . S
H25 C10 0.930 . S
H26 C31 0.930 . S
H27 C6 0.930 . S
H28 C39 0.931 . S
N29 Tb0 2.617 1_556 S
N29 C30 1.379 . S
N29 C33 1.334 . S
C30 N29 1.379 . S
C30 C32 1.416 . S
C30 C38 1.424 1_556 S
C31 H26 0.930 . S
C31 C33 1.390 . S
C31 C34 1.339 . S
C32 C30 1.416 . S
C32 C34 1.416 . S
C32 C65 1.448 . S
C33 H18 0.930 . S
C33 N29 1.334 . S
C33 C31 1.390 . S
C34 C31 1.339 . S
C34 C32 1.416 . S
C34 H41 0.930 . S
N35 Tb0 2.572 . S
N35 C36 1.340 . S
N35 C38 1.361 . S
C36 H22 0.930 . S
C36 N35 1.340 . S
C36 C40 1.407 . S
C37 C38 1.413 . S
C37 C39 1.416 . S
C37 C66 1.427 . S
C38 C30 1.424 1_554 S
C38 N35 1.361 . S
C38 C37 1.413 . S
C39 H28 0.931 . S
C39 C37 1.416 . S
C39 C40 1.332 . S
C40 H19 0.929 . S
C40 C36 1.407 . S
C40 C39 1.332 . S
H41 C34 0.930 . S
H42 C65 0.930 . S
H43 C66 0.929 . S
O44 Tb0 2.465 . S
O44 C64 1.264 . S
O45 Tb0 2.387 . S
O45 C56 1.264 . S
O46 Tb11 2.349 . S
O46 C56 1.243 . S
O47 Tb0 2.428 . S
O47 C64 1.256 . S
O48 Tb0 2.308 . S
O48 C63 1.266 . S
O49 Tb11 2.393 . S
O49 C63 1.248 . S
O50 Tb11 2.465 1_556 S
O50 C75 1.264 1_556 S
O51 Tb11 2.387 1_655 S
O51 C67 1.264 . S
O52 Tb0 2.349 1_655 S
O52 C67 1.243 . S
O53 Tb11 2.428 . S
O53 C75 1.256 . S
O54 Tb11 2.308 1_556 S
O54 C74 1.266 . S
O55 Tb0 2.393 1_556 S
O55 C74 1.248 . S
C56 O45 1.264 . S
C56 O46 1.243 . S
C57 C60 1.399 . S
C57 C62 1.383 . S
C57 C64 1.496 1_655 S
C58 C59 1.399 . S
C58 C62 1.389 . S
C59 C58 1.399 . S
C59 C61 1.380 . S
C59 H76 0.929 . S
C60 C57 1.399 . S
C60 C61 1.392 . S
C60 H77 0.929 1_554 S
C61 C59 1.380 . S
C61 C60 1.392 . S
C61 H78 0.907 1_554 S
C62 C57 1.383 . S
C62 C58 1.389 . S
C62 H79 0.931 . S
C63 O48 1.266 . S
C63 O49 1.248 . S
C64 Tb0 2.802 . S
C64 O44 1.264 . S
C64 O47 1.256 . S
C64 C57 1.496 1_455 S
C65 C32 1.448 . S
C65 H42 0.930 . S
C65 C66 1.328 1_556 S
C66 C37 1.427 . S
C66 H43 0.929 . S
C66 C65 1.328 1_554 S
C67 O51 1.264 . S
C67 O52 1.243 . S
C68 C71 1.399 . S
C68 C72 1.383 1_554 S
C68 C75 1.496 . S
C69 C70 1.399 1_556 S
C69 C72 1.389 . S
C70 C69 1.399 1_554 S
C70 C73 1.380 . S
C70 H80 0.929 . S
C71 C68 1.399 . S
C71 C73 1.392 . S
C71 H81 0.929 . S
C72 C68 1.383 1_556 S
C72 C69 1.389 . S
C72 H82 0.931 . S
C73 C70 1.380 . S
C73 C71 1.392 . S
C73 H83 0.929 . S
C74 O54 1.266 . S
C74 O55 1.248 . S
C75 Tb11 2.802 . S
C75 O50 1.264 1_554 S
C75 O53 1.256 . S
C75 C68 1.496 . S
H76 C59 0.929 . S
H77 C60 0.929 1_556 S
H78 C61 0.907 1_556 S
H79 C62 0.931 . S
H80 C70 0.929 . S
H81 C71 0.929 . S
H82 C72 0.931 . S
H83 C73 0.929 . S
Tb84 N113 2.617 1_554 S
Tb84 N119 2.572 . S
Tb84 O128 2.465 . S
Tb84 O129 2.387 . S
Tb84 O131 2.428 1_554 S
Tb84 O132 2.308 . S
Tb84 O136 2.349 1_655 S
Tb84 O139 2.393 1_554 S
Tb84 C148 2.802 . S
C85 N86 1.379 . S
C85 C88 1.416 . S
C85 C92 1.424 . S
N86 C85 1.379 . S
N86 C89 1.334 . S
N86 Tb95 2.617 1_455 S
C87 C89 1.390 . S
C87 C90 1.339 . S
C87 H107 0.930 . S
C88 C85 1.416 . S
C88 C90 1.416 . S
C88 C94 1.448 . S
C89 N86 1.334 . S
C89 C87 1.390 . S
C89 H100 0.930 1_455 S
C90 C87 1.339 . S
C90 C88 1.416 . S
C90 H111 0.930 . S
C91 C92 1.413 . S
C91 C93 1.427 . S
C91 C97 1.416 . S
C92 C85 1.424 . S
C92 C91 1.413 . S
C92 N96 1.361 . S
C93 C91 1.427 . S
C93 C94 1.328 . S
C93 H108 0.929 . S
C94 C88 1.448 . S
C94 C93 1.328 . S
C94 H109 0.930 . S
Tb95 N86 2.617 1_655 S
Tb95 N96 2.572 1_655 S
Tb95 O130 2.349 . S
Tb95 O133 2.393 . S
Tb95 O134 2.465 . S
Tb95 O135 2.387 1_655 S
Tb95 O137 2.428 . S
Tb95 O138 2.308 1_554 S
Tb95 C159 2.802 . S
N96 C92 1.361 . S
N96 Tb95 2.572 1_455 S
N96 C98 1.349 . S
C97 C91 1.416 . S
C97 C99 1.332 1_554 S
C97 H105 0.931 . S
C98 N96 1.349 . S
C98 C99 1.404 1_554 S
C98 H104 0.924 1_554 S
C99 C97 1.332 1_556 S
C99 C98 1.404 1_556 S
C99 H101 0.929 . S
H100 C89 0.930 1_655 S
H101 C99 0.929 . S
H102 C117 0.930 . S
H103 C124 0.929 . S
H104 C98 0.924 1_556 S
H105 C97 0.931 . S
H106 C120 0.930 . S
H107 C87 0.930 . S
H108 C93 0.929 . S
H109 C94 0.930 . S
H110 C115 0.930 . S
H111 C90 0.930 . S
H112 C123 0.931 . S
N113 Tb84 2.617 1_556 S
N113 C114 1.379 . S
N113 C117 1.334 . S
C114 N113 1.379 . S
C114 C116 1.416 . S
C114 C122 1.447 . S
C115 H110 0.930 . S
C115 C117 1.390 . S
C115 C118 1.339 . S
C116 C114 1.416 . S
C116 C118 1.416 . S
C116 C149 1.448 . S
C117 H102 0.930 . S
C117 N113 1.334 . S
C117 C115 1.390 . S
C118 C115 1.339 . S
C118 C116 1.416 . S
C118 H125 0.930 . S
N119 Tb84 2.572 . S
N119 C120 1.340 . S
N119 C122 1.348 1_554 S
C120 H106 0.930 . S
C120 N119 1.340 . S
C120 C124 1.407 . S
C121 C122 1.404 1_554 S
C121 C123 1.416 . S
C121 C150 1.427 1_554 S
C122 C114 1.447 . S
C122 N119 1.348 1_556 S
C122 C121 1.404 1_556 S
C123 H112 0.931 . S
C123 C121 1.416 . S
C123 C124 1.332 . S
C124 H103 0.929 . S
C124 C120 1.407 . S
C124 C123 1.332 . S
H125 C118 0.930 . S
H126 C149 0.930 . S
H127 C150 0.929 . S
O128 Tb84 2.465 . S
O128 C148 1.264 . S
O129 Tb84 2.387 . S
O129 C140 1.264 . S
O130 Tb95 2.349 . S
O130 C140 1.243 . S
O131 Tb84 2.428 1_556 S
O131 C148 1.256 1_556 S
O132 Tb84 2.308 . S
O132 C147 1.266 . S
O133 Tb95 2.393 . S
O133 C147 1.248 . S
O134 Tb95 2.465 . S
O134 C159 1.264 . S
O135 Tb95 2.387 1_455 S
O135 C151 1.264 . S
O136 Tb84 2.349 1_455 S
O136 C151 1.243 . S
O137 Tb95 2.428 . S
O137 C159 1.256 . S
O138 Tb95 2.308 1_556 S
O138 C158 1.266 . S
O139 Tb84 2.393 1_556 S
O139 C158 1.248 . S
C140 O129 1.264 . S
C140 O130 1.243 . S
C141 C144 1.399 1_554 S
C141 C146 1.383 . S
C141 C148 1.496 1_455 S
C142 C143 1.399 . S
C142 C146 1.389 . S
C143 C142 1.399 . S
C143 C145 1.380 1_554 S
C143 H160 0.929 . S
C144 C141 1.399 1_556 S
C144 C145 1.392 . S
C144 H161 0.929 . S
C145 C143 1.380 1_556 S
C145 C144 1.392 . S
C145 H162 0.929 . S
C146 C141 1.383 . S
C146 C142 1.389 . S
C146 H163 0.931 . S
C147 O132 1.266 . S
C147 O133 1.248 . S
C148 Tb84 2.802 . S
C148 O128 1.264 . S
C148 O131 1.256 1_554 S
C148 C141 1.496 1_655 S
C149 C116 1.448 . S
C149 H126 0.930 . S
C149 C150 1.328 . S
C150 C121 1.427 1_556 S
C150 H127 0.929 . S
C150 C149 1.328 . S
C151 O135 1.264 . S
C151 O136 1.243 . S
C152 C155 1.399 . S
C152 C156 1.383 . S
C152 C159 1.496 . S
C153 C154 1.399 . S
C153 C156 1.389 . S
C154 C153 1.399 . S
C154 C157 1.380 . S
C154 H164 0.929 . S
C155 C152 1.399 . S
C155 C157 1.392 . S
C155 H165 0.929 . S
C156 C152 1.383 . S
C156 C153 1.389 . S
C156 H166 0.931 1_554 S
C157 C154 1.380 . S
C157 C155 1.392 . S
C157 H167 0.929 . S
C158 O138 1.266 . S
C158 O139 1.248 . S
C159 Tb95 2.802 . S
C159 O134 1.264 . S
C159 O137 1.256 . S
C159 C152 1.496 . S
H160 C143 0.929 . S
H161 C144 0.929 . S
H162 C145 0.929 . S
H163 C146 0.931 . S
H164 C154 0.929 . S
H165 C155 0.929 . S
H166 C156 0.931 1_556 S
H167 C157 0.929 . S
Tb168 N197 2.617 1_455 S
Tb168 N203 2.572 1_455 S
Tb168 O212 2.465 . S
Tb168 O213 2.387 1_455 S
Tb168 O215 2.428 . S
Tb168 O216 2.308 . S
Tb168 O220 2.349 . S
Tb168 O223 2.393 . S
Tb168 C232 2.802 . S
C169 N170 1.379 . S
C169 C172 1.416 . S
C169 C176 1.424 . S
N170 C169 1.379 . S
N170 C173 1.334 . S
N170 Tb179 2.617 . S
C171 C173 1.390 . S
C171 C174 1.339 . S
C171 H191 0.930 . S
C172 C169 1.416 . S
C172 C174 1.416 . S
C172 C178 1.448 . S
C173 N170 1.334 . S
C173 C171 1.390 . S
C173 H184 0.930 . S
C174 C171 1.339 . S
C174 C172 1.416 . S
C174 H195 0.930 . S
C175 C176 1.413 . S
C175 C177 1.427 . S
C175 C181 1.416 . S
C176 C169 1.424 . S
C176 C175 1.413 . S
C176 N180 1.361 . S
C177 C175 1.427 . S
C177 C178 1.328 . S
C177 H192 0.929 . S
C178 C172 1.448 . S
C178 C177 1.328 . S
C178 H193 0.930 . S
Tb179 N170 2.617 . S
Tb179 N180 2.572 . S
Tb179 O214 2.349 1_455 S
Tb179 O217 2.393 . S
Tb179 O218 2.465 . S
Tb179 O219 2.387 . S
Tb179 O221 2.428 . S
Tb179 O222 2.308 . S
Tb179 C243 2.802 . S
N180 C176 1.361 . S
N180 Tb179 2.572 . S
N180 C182 1.340 . S
C181 C175 1.416 . S
C181 C183 1.332 . S
C181 H189 0.931 . S
C182 N180 1.340 . S
C182 C183 1.407 . S
C182 H188 0.930 . S
C183 C181 1.332 . S
C183 C182 1.407 . S
C183 H185 0.929 . S
H184 C173 0.930 . S
H185 C183 0.929 . S
H186 C201 0.930 1_455 S
H187 C208 0.929 . S
H188 C182 0.930 . S
H189 C181 0.931 . S
H190 C204 0.930 . S
H191 C171 0.930 . S
H192 C177 0.929 . S
H193 C178 0.930 . S
H194 C199 0.930 . S
H195 C174 0.930 . S
H196 C207 0.931 . S
N197 Tb168 2.617 1_655 S
N197 C198 1.379 . S
N197 C201 1.334 . S
C198 N197 1.379 . S
C198 C200 1.416 . S
C198 C206 1.424 . S
C199 H194 0.930 . S
C199 C201 1.390 . S
C199 C202 1.339 . S
C200 C198 1.416 . S
C200 C202 1.416 . S
C200 C233 1.448 . S
C201 H186 0.930 1_655 S
C201 N197 1.334 . S
C201 C199 1.390 . S
C202 C199 1.339 . S
C202 C200 1.416 . S
C202 H209 0.930 . S
N203 Tb168 2.572 1_655 S
N203 C204 1.340 . S
N203 C206 1.361 . S
C204 H190 0.930 . S
C204 N203 1.340 . S
C204 C208 1.407 . S
C205 C206 1.413 . S
C205 C207 1.416 . S
C205 C234 1.427 . S
C206 C198 1.424 . S
C206 N203 1.361 . S
C206 C205 1.413 . S
C207 H196 0.931 . S
C207 C205 1.416 . S
C207 C208 1.332 . S
C208 H187 0.929 . S
C208 C204 1.407 . S
C208 C207 1.332 . S
H209 C202 0.930 . S
H210 C233 0.930 . S
H211 C234 0.929 . S
O212 Tb168 2.465 . S
O212 C232 1.264 . S
O213 Tb168 2.387 1_655 S
O213 C224 1.264 . S
O214 Tb179 2.349 1_655 S
O214 C224 1.243 . S
O215 Tb168 2.428 . S
O215 C232 1.256 . S
O216 Tb168 2.308 . S
O216 C231 1.266 . S
O217 Tb179 2.393 . S
O217 C231 1.248 . S
O218 Tb179 2.465 . S
O218 C243 1.264 . S
O219 Tb179 2.387 . S
O219 C235 1.264 . S
O220 Tb168 2.349 . S
O220 C235 1.243 . S
O221 Tb179 2.428 . S
O221 C243 1.256 . S
O222 Tb179 2.308 . S
O222 C242 1.266 . S
O223 Tb168 2.393 . S
O223 C242 1.248 . S
C224 O213 1.264 . S
C224 O214 1.243 . S
C225 C228 1.399 . S
C225 C230 1.383 . S
C225 C232 1.496 . S
C226 C227 1.399 . S
C226 C230 1.389 . S
C227 C226 1.399 . S
C227 C229 1.380 . S
C227 H244 0.929 . S
C228 C225 1.399 . S
C228 C229 1.392 . S
C228 H245 0.929 . S
C229 C227 1.380 . S
C229 C228 1.392 . S
C229 H246 0.929 . S
C230 C225 1.383 . S
C230 C226 1.389 . S
C230 H247 0.931 . S
C231 O216 1.266 . S
C231 O217 1.248 . S
C232 Tb168 2.802 . S
C232 O212 1.264 . S
C232 O215 1.256 . S
C232 C225 1.496 . S
C233 C200 1.448 . S
C233 H210 0.930 . S
C233 C234 1.328 . S
C234 C205 1.427 . S
C234 H211 0.929 . S
C234 C233 1.328 . S
C235 O219 1.264 . S
C235 O220 1.243 . S
C236 C239 1.399 . S
C236 C240 1.383 . S
C236 C243 1.496 1_655 S
C237 C238 1.399 . S
C237 C240 1.389 . S
C238 C237 1.399 . S
C238 C241 1.380 . S
C238 H248 0.929 . S
C239 C236 1.399 . S
C239 C241 1.392 . S
C239 H249 0.929 . S
C240 C236 1.383 . S
C240 C237 1.389 . S
C240 H250 0.931 . S
C241 C238 1.380 . S
C241 C239 1.392 . S
C241 H251 0.929 . S
C242 O222 1.266 . S
C242 O223 1.248 . S
C243 Tb179 2.802 . S
C243 O218 1.264 . S
C243 O221 1.256 . S
C243 C236 1.496 1_455 S
H244 C227 0.929 . S
H245 C228 0.929 . S
H246 C229 0.929 . S
H247 C230 0.931 . S
H248 C238 0.929 . S
H249 C239 0.929 . S
H250 C240 0.931 . S
H251 C241 0.929 . S
Tb252 N281 2.617 . S
Tb252 N287 2.572 . S
Tb252 O296 2.465 . S
Tb252 O297 2.387 . S
Tb252 O299 2.428 . S
Tb252 O300 2.308 . S
Tb252 O304 2.349 1_655 S
Tb252 O307 2.393 . S
Tb252 C316 2.802 . S
C253 N254 1.379 . S
C253 C256 1.416 . S
C253 C260 1.424 . S
N254 C253 1.379 . S
N254 C257 1.334 . S
N254 Tb263 2.617 1_455 S
C255 C257 1.390 . S
C255 C258 1.339 . S
C255 H275 0.930 . S
C256 C253 1.416 . S
C256 C258 1.416 . S
C256 C262 1.448 . S
C257 N254 1.334 . S
C257 C255 1.390 . S
C257 H268 0.930 1_455 S
C258 C255 1.339 . S
C258 C256 1.416 . S
C258 H279 0.930 . S
C259 C260 1.413 . S
C259 C261 1.427 . S
C259 C265 1.416 . S
C260 C253 1.424 . S
C260 C259 1.413 . S
C260 N264 1.361 . S
C261 C259 1.427 . S
C261 C262 1.328 . S
C261 H276 0.929 . S
C262 C256 1.448 . S
C262 C261 1.328 . S
C262 H277 0.930 . S
Tb263 N254 2.617 1_655 S
Tb263 N264 2.572 1_655 S
Tb263 O298 2.349 . S
Tb263 O301 2.393 . S
Tb263 O302 2.465 . S
Tb263 O303 2.387 1_655 S
Tb263 O305 2.428 . S
Tb263 O306 2.308 . S
Tb263 C327 2.802 . S
N264 C260 1.361 . S
N264 Tb263 2.572 1_455 S
N264 C266 1.340 . S
C265 C259 1.416 . S
C265 C267 1.332 . S
C265 H273 0.931 . S
C266 N264 1.340 . S
C266 C267 1.407 . S
C266 H272 0.930 . S
C267 C265 1.332 . S
C267 C266 1.407 . S
C267 H269 0.929 . S
H268 C257 0.930 1_655 S
H269 C267 0.929 . S
H270 C285 0.930 . S
H271 C292 0.929 . S
H272 C266 0.930 . S
H273 C265 0.931 . S
H274 C288 0.930 . S
H275 C255 0.930 . S
H276 C261 0.929 . S
H277 C262 0.930 . S
H278 C283 0.930 . S
H279 C258 0.930 . S
H280 C291 0.931 . S
N281 Tb252 2.617 . S
N281 C282 1.379 . S
N281 C285 1.334 . S
C282 N281 1.379 . S
C282 C284 1.416 . S
C282 C290 1.424 . S
C283 H278 0.930 . S
C283 C285 1.390 . S
C283 C286 1.339 . S
C284 C282 1.416 . S
C284 C286 1.416 . S
C284 C317 1.448 . S
C285 H270 0.930 . S
C285 N281 1.334 . S
C285 C283 1.390 . S
C286 C283 1.339 . S
C286 C284 1.416 . S
C286 H293 0.930 . S
N287 Tb252 2.572 . S
N287 C288 1.340 . S
N287 C290 1.361 . S
C288 H274 0.930 . S
C288 N287 1.340 . S
C288 C292 1.407 . S
C289 C290 1.413 . S
C289 C291 1.416 . S
C289 C318 1.427 . S
C290 C282 1.424 . S
C290 N287 1.361 . S
C290 C289 1.413 . S
C291 H280 0.931 . S
C291 C289 1.416 . S
C291 C292 1.332 . S
C292 H271 0.929 . S
C292 C288 1.407 . S
C292 C291 1.332 . S
H293 C286 0.930 . S
H294 C317 0.930 . S
H295 C318 0.929 . S
O296 Tb252 2.465 . S
O296 C316 1.264 . S
O297 Tb252 2.387 . S
O297 C308 1.264 . S
O298 Tb263 2.349 . S
O298 C308 1.243 . S
O299 Tb252 2.428 . S
O299 C316 1.256 . S
O300 Tb252 2.308 . S
O300 C315 1.266 . S
O301 Tb263 2.393 . S
O301 C315 1.248 . S
O302 Tb263 2.465 . S
O302 C327 1.264 . S
O303 Tb263 2.387 1_455 S
O303 C319 1.264 . S
O304 Tb252 2.349 1_455 S
O304 C319 1.243 . S
O305 Tb263 2.428 . S
O305 C327 1.256 . S
O306 Tb263 2.308 . S
O306 C326 1.266 . S
O307 Tb252 2.393 . S
O307 C326 1.248 . S
C308 O297 1.264 . S
C308 O298 1.243 . S
C309 C312 1.399 . S
C309 C314 1.383 . S
C309 C316 1.496 1_455 S
C310 C311 1.399 . S
C310 C314 1.389 . S
C311 C310 1.399 . S
C311 C313 1.380 . S
C311 H328 0.929 . S
C312 C309 1.399 . S
C312 C313 1.392 . S
C312 H329 0.929 . S
C313 C311 1.380 . S
C313 C312 1.392 . S
C313 H330 0.929 . S
C314 C309 1.383 . S
C314 C310 1.389 . S
C314 H331 0.931 . S
C315 O300 1.266 . S
C315 O301 1.248 . S
C316 Tb252 2.802 . S
C316 O296 1.264 . S
C316 O299 1.256 . S
C316 C309 1.496 1_655 S
C317 C284 1.448 . S
C317 H294 0.930 . S
C317 C318 1.328 . S
C318 C289 1.427 . S
C318 H295 0.929 . S
C318 C317 1.328 . S
C319 O303 1.264 . S
C319 O304 1.243 . S
C320 C323 1.399 . S
C320 C324 1.383 . S
C320 C327 1.496 . S
C321 C322 1.399 . S
C321 C324 1.389 . S
C322 C321 1.399 . S
C322 C325 1.380 . S
C322 H332 0.929 . S
C323 C320 1.399 . S
C323 C325 1.392 . S
C323 H333 0.929 . S
C324 C320 1.383 . S
C324 C321 1.389 . S
C324 H334 0.931 . S
C325 C322 1.380 . S
C325 C323 1.392 . S
C325 H335 0.929 . S
C326 O306 1.266 . S
C326 O307 1.248 . S
C327 Tb263 2.802 . S
C327 O302 1.264 . S
C327 O305 1.256 . S
C327 C320 1.496 . S
H328 C311 0.929 . S
H329 C312 0.929 . S
H330 C313 0.929 . S
H331 C314 0.931 . S
H332 C322 0.929 . S
H333 C323 0.929 . S
H334 C324 0.931 . S
H335 C325 0.929 . S
Tb336 N365 2.617 1_554 S
Tb336 N371 2.572 . S
Tb336 O380 2.465 . S
Tb336 O381 2.387 . S
Tb336 O383 2.428 . S
Tb336 O384 2.308 . S
Tb336 O388 2.349 . S
Tb336 O391 2.393 1_554 S
Tb336 C400 2.802 . S
C337 N338 1.379 . S
C337 C340 1.416 . S
C337 C344 1.424 . S
N338 C337 1.379 . S
N338 C341 1.334 . S
N338 Tb347 2.617 . S
C339 C341 1.390 . S
C339 C342 1.339 . S
C339 H359 0.930 . S
C340 C337 1.416 . S
C340 C342 1.416 . S
C340 C346 1.448 . S
C341 N338 1.334 . S
C341 C339 1.390 . S
C341 H352 0.930 . S
C342 C339 1.339 . S
C342 C340 1.416 . S
C342 H363 0.930 . S
C343 C344 1.413 . S
C343 C345 1.427 . S
C343 C349 1.416 1_554 S
C344 C337 1.424 . S
C344 C343 1.413 . S
C344 N348 1.361 . S
C345 C343 1.427 . S
C345 C346 1.328 . S
C345 H360 0.929 . S
C346 C340 1.448 . S
C346 C345 1.328 . S
C346 H361 0.930 . S
Tb347 N338 2.617 . S
Tb347 N348 2.572 . S
Tb347 O382 2.349 . S
Tb347 O385 2.393 . S
Tb347 O386 2.465 1_554 S
Tb347 O387 2.387 . S
Tb347 O389 2.428 . S
Tb347 O390 2.308 1_554 S
Tb347 C411 2.802 . S
N348 C344 1.361 . S
N348 Tb347 2.572 . S
N348 C350 1.340 1_554 S
C349 C343 1.416 1_556 S
C349 C351 1.332 . S
C349 H357 0.931 . S
C350 N348 1.340 1_556 S
C350 C351 1.407 . S
C350 H356 0.930 . S
C351 C349 1.332 . S
C351 C350 1.407 . S
C351 H353 0.929 . S
H352 C341 0.930 . S
H353 C351 0.929 . S
H354 C369 0.930 . S
H355 C376 0.929 . S
H356 C350 0.930 . S
H357 C349 0.931 . S
H358 C372 0.930 . S
H359 C339 0.930 . S
H360 C345 0.929 . S
H361 C346 0.930 . S
H362 C367 0.930 . S
H363 C342 0.930 . S
H364 C375 0.931 . S
N365 Tb336 2.617 1_556 S
N365 C366 1.379 . S
N365 C369 1.334 . S
C366 N365 1.379 . S
C366 C368 1.416 . S
C366 C374 1.424 1_556 S
C367 H362 0.930 . S
C367 C369 1.390 . S
C367 C370 1.339 . S
C368 C366 1.416 . S
C368 C370 1.416 . S
C368 C401 1.448 . S
C369 H354 0.930 . S
C369 N365 1.334 . S
C369 C367 1.390 . S
C370 C367 1.339 . S
C370 C368 1.416 . S
C370 H377 0.930 . S
N371 Tb336 2.572 . S
N371 C372 1.340 . S
N371 C374 1.361 . S
C372 H358 0.930 . S
C372 N371 1.340 . S
C372 C376 1.407 . S
C373 C374 1.413 . S
C373 C375 1.416 . S
C373 C402 1.427 . S
C374 C366 1.424 1_554 S
C374 N371 1.361 . S
C374 C373 1.413 . S
C375 H364 0.931 . S
C375 C373 1.416 . S
C375 C376 1.332 . S
C376 H355 0.929 . S
C376 C372 1.407 . S
C376 C375 1.332 . S
H377 C370 0.930 . S
H378 C401 0.930 . S
H379 C402 0.929 . S
O380 Tb336 2.465 . S
O380 C400 1.264 . S
O381 Tb336 2.387 . S
O381 C392 1.264 . S
O382 Tb347 2.349 . S
O382 C392 1.243 . S
O383 Tb336 2.428 . S
O383 C400 1.256 . S
O384 Tb336 2.308 . S
O384 C399 1.266 . S
O385 Tb347 2.393 . S
O385 C399 1.248 . S
O386 Tb347 2.465 1_556 S
O386 C411 1.264 1_556 S
O387 Tb347 2.387 . S
O387 C403 1.264 . S
O388 Tb336 2.349 . S
O388 C403 1.243 . S
O389 Tb347 2.428 . S
O389 C411 1.256 . S
O390 Tb347 2.308 1_556 S
O390 C410 1.266 . S
O391 Tb336 2.393 1_556 S
O391 C410 1.248 . S
C392 O381 1.264 . S
C392 O382 1.243 . S
C393 C396 1.399 . S
C393 C398 1.383 . S
C393 C400 1.496 . S
C394 C395 1.399 . S
C394 C398 1.389 . S
C395 C394 1.399 . S
C395 C397 1.380 . S
C395 H412 0.929 . S
C396 C393 1.399 . S
C396 C397 1.392 . S
C396 H413 0.929 1_554 S
C397 C395 1.380 . S
C397 C396 1.392 . S
C397 H414 0.907 1_554 S
C398 C393 1.383 . S
C398 C394 1.389 . S
C398 H415 0.931 . S
C399 O384 1.266 . S
C399 O385 1.248 . S
C400 Tb336 2.802 . S
C400 O380 1.264 . S
C400 O383 1.256 . S
C400 C393 1.496 . S
C401 C368 1.448 . S
C401 H378 0.930 . S
C401 C402 1.328 1_556 S
C402 C373 1.427 . S
C402 H379 0.929 . S
C402 C401 1.328 1_554 S
C403 O387 1.264 . S
C403 O388 1.243 . S
C404 C407 1.399 . S
C404 C408 1.383 1_554 S
C404 C411 1.496 . S
C405 C406 1.399 1_556 S
C405 C408 1.389 . S
C406 C405 1.399 1_554 S
C406 C409 1.380 . S
C406 H416 0.929 . S
C407 C404 1.399 . S
C407 C409 1.392 . S
C407 H417 0.929 . S
C408 C404 1.383 1_556 S
C408 C405 1.389 . S
C408 H418 0.931 . S
C409 C406 1.380 . S
C409 C407 1.392 . S
C409 H419 0.929 . S
C410 O390 1.266 . S
C410 O391 1.248 . S
C411 Tb347 2.802 . S
C411 O386 1.264 1_554 S
C411 O389 1.256 . S
C411 C404 1.496 . S
H412 C395 0.929 . S
H413 C396 0.929 1_556 S
H414 C397 0.907 1_556 S
H415 C398 0.931 . S
H416 C406 0.929 . S
H417 C407 0.929 . S
H418 C408 0.931 . S
H419 C409 0.929 . S
Tb420 N449 2.617 1_554 S
Tb420 N455 2.572 . S
Tb420 O464 2.465 . S
Tb420 O465 2.387 . S
Tb420 O467 2.428 1_554 S
Tb420 O468 2.308 . S
Tb420 O472 2.349 . S
Tb420 O475 2.393 1_554 S
Tb420 C484 2.802 . S
C421 N422 1.379 . S
C421 C424 1.416 . S
C421 C428 1.424 . S
N422 C421 1.379 . S
N422 C425 1.334 . S
N422 Tb431 2.617 . S
C423 C425 1.390 . S
C423 C426 1.339 . S
C423 H443 0.930 . S
C424 C421 1.416 . S
C424 C426 1.416 . S
C424 C430 1.448 . S
C425 N422 1.334 . S
C425 C423 1.390 . S
C425 H436 0.930 . S
C426 C423 1.339 . S
C426 C424 1.416 . S
C426 H447 0.930 . S
C427 C428 1.413 . S
C427 C429 1.427 . S
C427 C433 1.416 . S
C428 C421 1.424 . S
C428 C427 1.413 . S
C428 N432 1.361 . S
C429 C427 1.427 . S
C429 C430 1.328 . S
C429 H444 0.929 . S
C430 C424 1.448 . S
C430 C429 1.328 . S
C430 H445 0.930 . S
Tb431 N422 2.617 . S
Tb431 N432 2.572 . S
Tb431 O466 2.349 . S
Tb431 O469 2.393 . S
Tb431 O470 2.465 . S
Tb431 O471 2.387 . S
Tb431 O473 2.428 . S
Tb431 O474 2.308 1_554 S
Tb431 C495 2.802 . S
N432 C428 1.361 . S
N432 Tb431 2.572 . S
N432 C434 1.349 . S
C433 C427 1.416 . S
C433 C435 1.332 1_554 S
C433 H441 0.931 . S
C434 N432 1.349 . S
C434 C435 1.403 1_554 S
C434 H440 0.924 1_554 S
C435 C433 1.332 1_556 S
C435 C434 1.403 1_556 S
C435 H437 0.929 . S
H436 C425 0.930 . S
H437 C435 0.929 . S
H438 C453 0.930 . S
H439 C460 0.929 . S
H440 C434 0.924 1_556 S
H441 C433 0.931 . S
H442 C456 0.930 . S
H443 C423 0.930 . S
H444 C429 0.929 . S
H445 C430 0.930 . S
H446 C451 0.930 . S
H447 C426 0.930 . S
H448 C459 0.931 . S
N449 Tb420 2.617 1_556 S
N449 C450 1.379 . S
N449 C453 1.334 . S
C450 N449 1.379 . S
C450 C452 1.416 . S
C450 C458 1.446 . S
C451 H446 0.930 . S
C451 C453 1.390 . S
C451 C454 1.339 . S
C452 C450 1.416 . S
C452 C454 1.416 . S
C452 C485 1.448 . S
C453 H438 0.930 . S
C453 N449 1.334 . S
C453 C451 1.390 . S
C454 C451 1.339 . S
C454 C452 1.416 . S
C454 H461 0.930 . S
N455 Tb420 2.572 . S
N455 C456 1.340 . S
N455 C458 1.348 1_554 S
C456 H442 0.930 . S
C456 N455 1.340 . S
C456 C460 1.407 . S
C457 C458 1.404 1_554 S
C457 C459 1.416 . S
C457 C486 1.427 1_554 S
C458 C450 1.446 . S
C458 N455 1.348 1_556 S
C458 C457 1.404 1_556 S
C459 H448 0.931 . S
C459 C457 1.416 . S
C459 C460 1.332 . S
C460 H439 0.929 . S
C460 C456 1.407 . S
C460 C459 1.332 . S
H461 C454 0.930 . S
H462 C485 0.930 . S
H463 C486 0.929 . S
O464 Tb420 2.465 . S
O464 C484 1.264 . S
O465 Tb420 2.387 . S
O465 C476 1.264 . S
O466 Tb431 2.349 . S
O466 C476 1.243 . S
O467 Tb420 2.428 1_556 S
O467 C484 1.256 1_556 S
O468 Tb420 2.308 . S
O468 C483 1.266 . S
O469 Tb431 2.393 . S
O469 C483 1.248 . S
O470 Tb431 2.465 . S
O470 C495 1.264 . S
O471 Tb431 2.387 . S
O471 C487 1.264 . S
O472 Tb420 2.349 . S
O472 C487 1.243 . S
O473 Tb431 2.428 . S
O473 C495 1.256 . S
O474 Tb431 2.308 1_556 S
O474 C494 1.266 . S
O475 Tb420 2.393 1_556 S
O475 C494 1.248 . S
C476 O465 1.264 . S
C476 O466 1.243 . S
C477 C480 1.399 1_554 S
C477 C482 1.383 . S
C477 C484 1.496 . S
C478 C479 1.399 . S
C478 C482 1.389 . S
C479 C478 1.399 . S
C479 C481 1.380 1_554 S
C479 H496 0.929 . S
C480 C477 1.399 1_556 S
C480 C481 1.392 . S
C480 H497 0.929 . S
C481 C479 1.380 1_556 S
C481 C480 1.392 . S
C481 H498 0.929 . S
C482 C477 1.383 . S
C482 C478 1.389 . S
C482 H499 0.931 . S
C483 O468 1.266 . S
C483 O469 1.248 . S
C484 Tb420 2.802 . S
C484 O464 1.264 . S
C484 O467 1.256 1_554 S
C484 C477 1.496 . S
C485 C452 1.448 . S
C485 H462 0.930 . S
C485 C486 1.328 . S
C486 C457 1.427 1_556 S
C486 H463 0.929 . S
C486 C485 1.328 . S
C487 O471 1.264 . S
C487 O472 1.243 . S
C488 C491 1.399 . S
C488 C492 1.383 . S
C488 C495 1.496 . S
C489 C490 1.399 . S
C489 C492 1.389 . S
C490 C489 1.399 . S
C490 C493 1.380 . S
C490 H500 0.929 . S
C491 C488 1.399 . S
C491 C493 1.392 . S
C491 H501 0.929 . S
C492 C488 1.383 . S
C492 C489 1.389 . S
C492 H502 0.931 1_554 S
C493 C490 1.380 . S
C493 C491 1.392 . S
C493 H503 0.929 . S
C494 O474 1.266 . S
C494 O475 1.248 . S
C495 Tb431 2.802 . S
C495 O470 1.264 . S
C495 O473 1.256 . S
C495 C488 1.496 . S
H496 C479 0.929 . S
H497 C480 0.929 . S
H498 C481 0.929 . S
H499 C482 0.931 . S
H500 C490 0.929 . S
H501 C491 0.929 . S
H502 C492 0.931 1_556 S
H503 C493 0.929 . S
Tb504 N533 2.617 . S
Tb504 N539 2.572 . S
Tb504 O548 2.465 . S
Tb504 O549 2.387 . S
Tb504 O551 2.428 . S
Tb504 O552 2.308 . S
Tb504 O556 2.349 . S
Tb504 O559 2.393 . S
Tb504 C568 2.802 . S
C505 N506 1.379 . S
C505 C508 1.416 . S
C505 C512 1.424 . S
N506 C505 1.379 . S
N506 C509 1.334 . S
N506 Tb515 2.617 . S
C507 C509 1.390 . S
C507 C510 1.339 . S
C507 H527 0.930 . S
C508 C505 1.416 . S
C508 C510 1.416 . S
C508 C514 1.448 . S
C509 N506 1.334 . S
C509 C507 1.390 . S
C509 H520 0.930 . S
C510 C507 1.339 . S
C510 C508 1.416 . S
C510 H531 0.930 . S
C511 C512 1.413 . S
C511 C513 1.427 . S
C511 C517 1.416 . S
C512 C505 1.424 . S
C512 C511 1.413 . S
C512 N516 1.361 . S
C513 C511 1.427 . S
C513 C514 1.328 . S
C513 H528 0.929 . S
C514 C508 1.448 . S
C514 C513 1.328 . S
C514 H529 0.930 . S
Tb515 N506 2.617 . S
Tb515 N516 2.572 . S
Tb515 O550 2.349 . S
Tb515 O553 2.393 . S
Tb515 O554 2.465 . S
Tb515 O555 2.387 . S
Tb515 O557 2.428 . S
Tb515 O558 2.308 . S
Tb515 C579 2.802 . S
N516 C512 1.361 . S
N516 Tb515 2.572 . S
N516 C518 1.340 . S
C517 C511 1.416 . S
C517 C519 1.332 . S
C517 H525 0.931 . S
C518 N516 1.340 . S
C518 C519 1.407 . S
C518 H524 0.930 . S
C519 C517 1.332 . S
C519 C518 1.407 . S
C519 H521 0.929 . S
H520 C509 0.930 . S
H521 C519 0.929 . S
H522 C537 0.930 . S
H523 C544 0.929 . S
H524 C518 0.930 . S
H525 C517 0.931 . S
H526 C540 0.930 . S
H527 C507 0.930 . S
H528 C513 0.929 . S
H529 C514 0.930 . S
H530 C535 0.930 . S
H531 C510 0.930 . S
H532 C543 0.931 . S
N533 Tb504 2.617 . S
N533 C534 1.379 . S
N533 C537 1.334 . S
C534 N533 1.379 . S
C534 C536 1.416 . S
C534 C542 1.424 . S
C535 H530 0.930 . S
C535 C537 1.390 . S
C535 C538 1.339 . S
C536 C534 1.416 . S
C536 C538 1.416 . S
C536 C569 1.448 . S
C537 H522 0.930 . S
C537 N533 1.334 . S
C537 C535 1.390 . S
C538 C535 1.339 . S
C538 C536 1.416 . S
C538 H545 0.930 . S
N539 Tb504 2.572 . S
N539 C540 1.340 . S
N539 C542 1.361 . S
C540 H526 0.930 . S
C540 N539 1.340 . S
C540 C544 1.407 . S
C541 C542 1.413 . S
C541 C543 1.416 . S
C541 C570 1.427 . S
C542 C534 1.424 . S
C542 N539 1.361 . S
C542 C541 1.413 . S
C543 H532 0.931 . S
C543 C541 1.416 . S
C543 C544 1.332 . S
C544 H523 0.929 . S
C544 C540 1.407 . S
C544 C543 1.332 . S
H545 C538 0.930 . S
H546 C569 0.930 . S
H547 C570 0.929 . S
O548 Tb504 2.465 . S
O548 C568 1.264 . S
O549 Tb504 2.387 . S
O549 C560 1.264 . S
O550 Tb515 2.349 . S
O550 C560 1.243 . S
O551 Tb504 2.428 . S
O551 C568 1.256 . S
O552 Tb504 2.308 . S
O552 C567 1.266 . S
O553 Tb515 2.393 . S
O553 C567 1.248 . S
O554 Tb515 2.465 . S
O554 C579 1.264 . S
O555 Tb515 2.387 . S
O555 C571 1.264 . S
O556 Tb504 2.349 . S
O556 C571 1.243 . S
O557 Tb515 2.428 . S
O557 C579 1.256 . S
O558 Tb515 2.308 . S
O558 C578 1.266 . S
O559 Tb504 2.393 . S
O559 C578 1.248 . S
C560 O549 1.264 . S
C560 O550 1.243 . S
C561 C564 1.399 . S
C561 C566 1.383 . S
C561 C568 1.496 . S
C562 C563 1.399 . S
C562 C566 1.389 . S
C563 C562 1.399 . S
C563 C565 1.380 . S
C563 H580 0.929 . S
C564 C561 1.399 . S
C564 C565 1.392 . S
C564 H581 0.929 . S
C565 C563 1.380 . S
C565 C564 1.392 . S
C565 H582 0.929 . S
C566 C561 1.383 . S
C566 C562 1.389 . S
C566 H583 0.931 . S
C567 O552 1.266 . S
C567 O553 1.248 . S
C568 Tb504 2.802 . S
C568 O548 1.264 . S
C568 O551 1.256 . S
C568 C561 1.496 . S
C569 C536 1.448 . S
C569 H546 0.930 . S
C569 C570 1.328 . S
C570 C541 1.427 . S
C570 H547 0.929 . S
C570 C569 1.328 . S
C571 O555 1.264 . S
C571 O556 1.243 . S
C572 C575 1.399 . S
C572 C576 1.383 . S
C572 C579 1.496 . S
C573 C574 1.399 . S
C573 C576 1.389 . S
C574 C573 1.399 . S
C574 C577 1.380 . S
C574 H584 0.929 . S
C575 C572 1.399 . S
C575 C577 1.392 . S
C575 H585 0.929 . S
C576 C572 1.383 . S
C576 C573 1.389 . S
C576 H586 0.931 . S
C577 C574 1.380 . S
C577 C575 1.392 . S
C577 H587 0.929 . S
C578 O558 1.266 . S
C578 O559 1.248 . S
C579 Tb515 2.802 . S
C579 O554 1.264 . S
C579 O557 1.256 . S
C579 C572 1.496 . S
H580 C563 0.929 . S
H581 C564 0.929 . S
H582 C565 0.929 . S
H583 C566 0.931 . S
H584 C574 0.929 . S
H585 C575 0.929 . S
H586 C576 0.931 . S
H587 C577 0.929 . S
Tb588 N617 2.617 . S
Tb588 N623 2.572 . S
Tb588 O632 2.465 . S
Tb588 O633 2.387 . S
Tb588 O635 2.428 . S
Tb588 O636 2.308 . S
Tb588 O640 2.349 . S
Tb588 O643 2.393 . S
Tb588 C652 2.802 . S
C589 N590 1.379 . S
C589 C592 1.416 . S
C589 C596 1.424 . S
N590 C589 1.379 . S
N590 C593 1.334 . S
N590 Tb599 2.617 . S
C591 C593 1.390 . S
C591 C594 1.339 . S
C591 H611 0.930 . S
C592 C589 1.416 . S
C592 C594 1.416 . S
C592 C598 1.448 . S
C593 N590 1.334 . S
C593 C591 1.390 . S
C593 H604 0.930 . S
C594 C591 1.339 . S
C594 C592 1.416 . S
C594 H615 0.930 . S
C595 C596 1.413 . S
C595 C597 1.427 . S
C595 C601 1.416 . S
C596 C589 1.424 . S
C596 C595 1.413 . S
C596 N600 1.361 . S
C597 C595 1.427 . S
C597 C598 1.328 . S
C597 H612 0.929 . S
C598 C592 1.448 . S
C598 C597 1.328 . S
C598 H613 0.930 . S
Tb599 N590 2.617 . S
Tb599 N600 2.572 . S
Tb599 O634 2.349 . S
Tb599 O637 2.393 . S
Tb599 O638 2.465 . S
Tb599 O639 2.387 . S
Tb599 O641 2.428 . S
Tb599 O642 2.308 . S
Tb599 C663 2.802 . S
N600 C596 1.361 . S
N600 Tb599 2.572 . S
N600 C602 1.340 . S
C601 C595 1.416 . S
C601 C603 1.332 . S
C601 H609 0.931 . S
C602 N600 1.340 . S
C602 C603 1.407 . S
C602 H608 0.930 . S
C603 C601 1.332 . S
C603 C602 1.407 . S
C603 H605 0.929 . S
H604 C593 0.930 . S
H605 C603 0.929 . S
H606 C621 0.930 . S
H607 C628 0.929 . S
H608 C602 0.930 . S
H609 C601 0.931 . S
H610 C624 0.930 . S
H611 C591 0.930 . S
H612 C597 0.929 . S
H613 C598 0.930 . S
H614 C619 0.930 . S
H615 C594 0.930 . S
H616 C627 0.931 . S
N617 Tb588 2.617 . S
N617 C618 1.379 . S
N617 C621 1.334 . S
C618 N617 1.379 . S
C618 C620 1.416 . S
C618 C626 1.424 . S
C619 H614 0.930 . S
C619 C621 1.390 . S
C619 C622 1.339 . S
C620 C618 1.416 . S
C620 C622 1.416 . S
C620 C653 1.448 . S
C621 H606 0.930 . S
C621 N617 1.334 . S
C621 C619 1.390 . S
C622 C619 1.339 . S
C622 C620 1.416 . S
C622 H629 0.930 . S
N623 Tb588 2.572 . S
N623 C624 1.340 . S
N623 C626 1.361 . S
C624 H610 0.930 . S
C624 N623 1.340 . S
C624 C628 1.407 . S
C625 C626 1.413 . S
C625 C627 1.416 . S
C625 C654 1.427 . S
C626 C618 1.424 . S
C626 N623 1.361 . S
C626 C625 1.413 . S
C627 H616 0.931 . S
C627 C625 1.416 . S
C627 C628 1.332 . S
C628 H607 0.929 . S
C628 C624 1.407 . S
C628 C627 1.332 . S
H629 C622 0.930 . S
H630 C653 0.930 . S
H631 C654 0.929 . S
O632 Tb588 2.465 . S
O632 C652 1.264 . S
O633 Tb588 2.387 . S
O633 C644 1.264 . S
O634 Tb599 2.349 . S
O634 C644 1.243 . S
O635 Tb588 2.428 . S
O635 C652 1.256 . S
O636 Tb588 2.308 . S
O636 C651 1.266 . S
O637 Tb599 2.393 . S
O637 C651 1.248 . S
O638 Tb599 2.465 . S
O638 C663 1.264 . S
O639 Tb599 2.387 . S
O639 C655 1.264 . S
O640 Tb588 2.349 . S
O640 C655 1.243 . S
O641 Tb599 2.428 . S
O641 C663 1.256 . S
O642 Tb599 2.308 . S
O642 C662 1.266 . S
O643 Tb588 2.393 . S
O643 C662 1.248 . S
C644 O633 1.264 . S
C644 O634 1.243 . S
C645 C648 1.399 . S
C645 C650 1.383 . S
C645 C652 1.496 . S
C646 C647 1.399 . S
C646 C650 1.389 . S
C647 C646 1.399 . S
C647 C649 1.380 . S
C647 H664 0.929 . S
C648 C645 1.399 . S
C648 C649 1.392 . S
C648 H665 0.929 . S
C649 C647 1.380 . S
C649 C648 1.392 . S
C649 H666 0.929 . S
C650 C645 1.383 . S
C650 C646 1.389 . S
C650 H667 0.931 . S
C651 O636 1.266 . S
C651 O637 1.248 . S
C652 Tb588 2.802 . S
C652 O632 1.264 . S
C652 O635 1.256 . S
C652 C645 1.496 . S
C653 C620 1.448 . S
C653 H630 0.930 . S
C653 C654 1.328 . S
C654 C625 1.427 . S
C654 H631 0.929 . S
C654 C653 1.328 . S
C655 O639 1.264 . S
C655 O640 1.243 . S
C656 C659 1.399 . S
C656 C660 1.383 . S
C656 C663 1.496 . S
C657 C658 1.399 . S
C657 C660 1.389 . S
C658 C657 1.399 . S
C658 C661 1.380 . S
C658 H668 0.929 . S
C659 C656 1.399 . S
C659 C661 1.392 . S
C659 H669 0.929 . S
C660 C656 1.383 . S
C660 C657 1.389 . S
C660 H670 0.931 . S
C661 C658 1.380 . S
C661 C659 1.392 . S
C661 H671 0.929 . S
C662 O642 1.266 . S
C662 O643 1.248 . S
C663 Tb599 2.802 . S
C663 O638 1.264 . S
C663 O641 1.256 . S
C663 C656 1.496 . S
H664 C647 0.929 . S
H665 C648 0.929 . S
H666 C649 0.929 . S
H667 C650 0.931 . S
H668 C658 0.929 . S
H669 C659 0.929 . S
H670 C660 0.931 . S
H671 C661 0.929 . S
C672 C673 1.349 . S
C672 C674 1.327 . S
C672 H697 0.950 . S
C673 C672 1.349 . S
C673 C689 1.349 . S
C674 C672 1.327 . S
C674 C693 1.429 . S
C674 H698 0.950 . S
C675 C692 1.574 . S
C675 C694 1.368 1_556 S
C675 H699 0.949 . S
H676 C680 0.949 . S
C677 C678 1.349 1_556 S
C677 C679 1.327 . S
C677 H700 0.950 . S
C678 C677 1.349 1_554 S
C678 C690 1.349 . S
C679 C677 1.327 . S
C679 C695 1.429 1_556 S
C679 H701 0.950 . S
C680 H676 0.949 . S
C680 C688 1.574 . S
C680 C696 1.368 . S
H681 C689 0.950 1_556 S
H682 C687 0.948 . S
H683 C688 0.949 . S
H684 C690 0.950 . S
H685 C691 0.950 . S
H686 C692 0.949 . S
C687 H682 0.948 . S
C687 C689 1.327 1_556 S
C687 C693 1.429 1_556 S
C688 C680 1.574 . S
C688 H683 0.949 . S
C688 C694 1.368 . S
C689 C673 1.349 . S
C689 H681 0.950 1_554 S
C689 C687 1.327 1_554 S
C690 C678 1.349 . S
C690 H684 0.950 . S
C690 C691 1.327 . S
C691 H685 0.950 . S
C691 C690 1.327 . S
C691 C695 1.429 . S
C692 C675 1.574 . S
C692 H686 0.949 . S
C692 C696 1.368 1_556 S
C693 C674 1.429 . S
C693 C687 1.429 1_554 S
C693 C694 1.523 . S
C694 C675 1.368 1_554 S
C694 C688 1.368 . S
C694 C693 1.523 . S
C695 C679 1.429 1_554 S
C695 C691 1.429 . S
C695 C696 1.523 . S
C696 C680 1.368 . S
C696 C692 1.368 1_554 S
C696 C695 1.523 . S
H697 C672 0.950 . S
H698 C674 0.950 . S
H699 C675 0.949 . S
H700 C677 0.950 . S
H701 C679 0.950 . S
C702 C703 1.323 1_556 S
C702 C704 1.331 . S
C702 H727 0.972 . S
C703 C702 1.323 1_554 S
C703 C719 1.349 . S
C704 C702 1.331 . S
C704 C723 1.429 1_556 S
C704 H728 0.950 . S
C705 C722 1.574 . S
C705 C724 1.368 . S
C705 H729 0.949 . S
H706 C710 0.949 . S
C707 C708 1.349 . S
C707 C709 1.327 . S
C707 H730 0.950 . S
C708 C707 1.349 . S
C708 C720 1.349 1_554 S
C709 C707 1.327 . S
C709 C725 1.429 . S
C709 H731 0.950 . S
C710 H706 0.949 . S
C710 C718 1.574 . S
C710 C726 1.368 1_556 S
H711 C719 0.950 . S
H712 C717 0.950 . S
H713 C718 0.949 . S
H714 C720 0.950 . S
H715 C721 0.950 . S
H716 C722 0.949 . S
C717 H712 0.950 . S
C717 C719 1.327 . S
C717 C723 1.429 . S
C718 C710 1.574 . S
C718 H713 0.949 . S
C718 C724 1.368 1_556 S
C719 C703 1.349 . S
C719 H711 0.950 . S
C719 C717 1.327 . S
C720 C708 1.349 1_556 S
C720 H714 0.950 . S
C720 C721 1.327 . S
C721 H715 0.950 . S
C721 C720 1.327 . S
C721 C725 1.429 1_556 S
C722 C705 1.574 . S
C722 H716 0.949 . S
C722 C726 1.368 . S
C723 C704 1.429 1_554 S
C723 C717 1.429 . S
C723 C724 1.523 . S
C724 C705 1.368 . S
C724 C718 1.368 1_554 S
C724 C723 1.523 . S
C725 C709 1.429 . S
C725 C721 1.429 1_554 S
C725 C726 1.523 . S
C726 C710 1.368 1_554 S
C726 C722 1.368 . S
C726 C725 1.523 . S
H727 C702 0.972 . S
H728 C704 0.950 . S
H729 C705 0.949 . S
H730 C707 0.950 . S
H731 C709 0.950 . S
C732 C733 1.349 . S
C732 C734 1.327 . S
C732 H757 0.950 . S
C733 C732 1.349 . S
C733 C749 1.349 . S
C734 C732 1.327 . S
C734 C753 1.429 . S
C734 H758 0.950 . S
C735 C752 1.574 . S
C735 C754 1.368 . S
C735 H759 0.949 . S
H736 C740 0.949 . S
C737 C738 1.349 . S
C737 C739 1.327 . S
C737 H760 0.950 . S
C738 C737 1.349 . S
C738 C750 1.349 . S
C739 C737 1.327 . S
C739 C755 1.429 . S
C739 H761 0.950 . S
C740 H736 0.949 . S
C740 C748 1.574 . S
C740 C756 1.368 . S
H741 C749 0.950 . S
H742 C747 0.950 . S
H743 C748 0.949 . S
H744 C750 0.950 . S
H745 C751 0.950 . S
H746 C752 0.949 . S
C747 H742 0.950 . S
C747 C749 1.327 . S
C747 C753 1.429 . S
C748 C740 1.574 . S
C748 H743 0.949 . S
C748 C754 1.368 . S
C749 C733 1.349 . S
C749 H741 0.950 . S
C749 C747 1.327 . S
C750 C738 1.349 . S
C750 H744 0.950 . S
C750 C751 1.327 . S
C751 H745 0.950 . S
C751 C750 1.327 . S
C751 C755 1.429 . S
C752 C735 1.574 . S
C752 H746 0.949 . S
C752 C756 1.368 . S
C753 C734 1.429 . S
C753 C747 1.429 . S
C753 C754 1.523 . S
C754 C735 1.368 . S
C754 C748 1.368 . S
C754 C753 1.523 . S
C755 C739 1.429 . S
C755 C751 1.429 . S
C755 C756 1.523 . S
C756 C740 1.368 . S
C756 C752 1.368 . S
C756 C755 1.523 . S
H757 C732 0.950 . S
H758 C734 0.950 . S
H759 C735 0.949 . S
H760 C737 0.950 . S
H761 C739 0.950 . S
C762 C763 1.349 . S
C762 C764 1.327 . S
C762 H787 0.950 . S
C763 C762 1.349 . S
C763 C779 1.349 . S
C764 C762 1.327 . S
C764 C783 1.429 . S
C764 H788 0.950 . S
C765 C782 1.574 . S
C765 C784 1.368 . S
C765 H789 0.949 . S
H766 C770 0.949 . S
C767 C768 1.349 . S
C767 C769 1.327 . S
C767 H790 0.950 . S
C768 C767 1.349 . S
C768 C780 1.349 . S
C769 C767 1.327 . S
C769 C785 1.429 . S
C769 H791 0.950 . S
C770 H766 0.949 . S
C770 C778 1.574 . S
C770 C786 1.368 . S
H771 C779 0.950 . S
H772 C777 0.950 . S
H773 C778 0.949 . S
H774 C780 0.950 . S
H775 C781 0.950 . S
H776 C782 0.949 . S
C777 H772 0.950 . S
C777 C779 1.327 . S
C777 C783 1.429 . S
C778 C770 1.574 . S
C778 H773 0.949 . S
C778 C784 1.368 . S
C779 C763 1.349 . S
C779 H771 0.950 . S
C779 C777 1.327 . S
C780 C768 1.349 . S
C780 H774 0.950 . S
C780 C781 1.327 . S
C781 H775 0.950 . S
C781 C780 1.327 . S
C781 C785 1.429 . S
C782 C765 1.574 . S
C782 H776 0.949 . S
C782 C786 1.368 . S
C783 C764 1.429 . S
C783 C777 1.429 . S
C783 C784 1.523 . S
C784 C765 1.368 . S
C784 C778 1.368 . S
C784 C783 1.523 . S
C785 C769 1.429 . S
C785 C781 1.429 . S
C785 C786 1.523 . S
C786 C770 1.368 . S
C786 C782 1.368 . S
C786 C785 1.523 . S
H787 C762 0.950 . S
H788 C764 0.950 . S
H789 C765 0.949 . S
H790 C767 0.950 . S
H791 C769 0.950 . S
C792 C793 1.349 . S
C792 C794 1.327 . S
C792 H817 0.950 1_554 S
C793 C792 1.349 . S
C793 C809 1.349 . S
C794 C792 1.327 . S
C794 C813 1.429 . S
C794 H818 0.950 1_554 S
C795 C812 1.574 . S
C795 C814 1.368 1_455 S
C795 H819 0.949 . S
H796 C800 0.949 . S
C797 C798 1.349 . S
C797 C799 1.327 . S
C797 H820 0.950 . S
C798 C797 1.349 . S
C798 C810 1.349 1_554 S
C799 C797 1.327 . S
C799 C815 1.429 . S
C799 H821 0.950 . S
C800 H796 0.949 . S
C800 C808 1.574 1_556 S
C800 C816 1.368 1_556 S
H801 C809 0.950 . S
H802 C807 0.950 . S
H803 C808 0.949 1_656 S
H804 C810 0.950 . S
H805 C811 0.950 . S
H806 C812 0.949 . S
C807 H802 0.950 . S
C807 C809 1.327 . S
C807 C813 1.429 . S
C808 C800 1.574 1_554 S
C808 H803 0.949 1_454 S
C808 C814 1.369 1_455 S
C809 C793 1.349 . S
C809 H801 0.950 . S
C809 C807 1.327 . S
C810 C798 1.349 1_556 S
C810 H804 0.950 . S
C810 C811 1.327 . S
C811 H805 0.950 . S
C811 C810 1.327 . S
C811 C815 1.429 1_556 S
C812 C795 1.574 . S
C812 H806 0.949 . S
C812 C816 1.368 . S
C813 C794 1.429 . S
C813 C807 1.429 . S
C813 C814 1.523 . S
C814 C795 1.368 1_655 S
C814 C808 1.369 1_655 S
C814 C813 1.523 . S
C815 C799 1.429 . S
C815 C811 1.429 1_554 S
C815 C816 1.523 . S
C816 C800 1.368 1_554 S
C816 C812 1.368 . S
C816 C815 1.523 . S
H817 C792 0.950 1_556 S
H818 C794 0.950 1_556 S
H819 C795 0.949 . S
H820 C797 0.950 . S
H821 C799 0.950 . S
C822 C823 1.349 . S
C822 C824 1.327 . S
C822 H847 0.950 . S
C823 C822 1.349 . S
C823 C839 1.349 . S
C824 C822 1.327 . S
C824 C843 1.429 . S
C824 H848 0.950 . S
C825 C842 1.574 . S
C825 C844 1.368 1_655 S
C825 H849 0.949 . S
H826 C830 0.949 . S
C827 C828 1.349 . S
C827 C829 1.327 . S
C827 H850 0.950 . S
C828 C827 1.349 . S
C828 C840 1.349 . S
C829 C827 1.327 . S
C829 C845 1.429 . S
C829 H851 0.950 . S
C830 H826 0.949 . S
C830 C838 1.574 . S
C830 C846 1.368 . S
H831 C839 0.950 . S
H832 C837 0.950 . S
H833 C838 0.949 1_455 S
H834 C840 0.950 . S
H835 C841 0.950 . S
H836 C842 0.949 . S
C837 H832 0.950 . S
C837 C839 1.327 . S
C837 C843 1.429 . S
C838 C830 1.574 . S
C838 H833 0.949 1_655 S
C838 C844 1.368 1_655 S
C839 C823 1.349 . S
C839 H831 0.950 . S
C839 C837 1.327 . S
C840 C828 1.349 . S
C840 H834 0.950 . S
C840 C841 1.327 . S
C841 H835 0.950 . S
C841 C840 1.327 . S
C841 C845 1.429 . S
C842 C825 1.574 . S
C842 H836 0.949 . S
C842 C846 1.368 . S
C843 C824 1.429 . S
C843 C837 1.429 . S
C843 C844 1.523 . S
C844 C825 1.368 1_455 S
C844 C838 1.368 1_455 S
C844 C843 1.523 . S
C845 C829 1.429 . S
C845 C841 1.429 . S
C845 C846 1.523 . S
C846 C830 1.368 . S
C846 C842 1.368 . S
C846 C845 1.523 . S
H847 C822 0.950 . S
H848 C824 0.950 . S
H849 C825 0.949 . S
H850 C827 0.950 . S
H851 C829 0.950 . S
C852 C853 1.349 . S
C852 C854 1.327 . S
C852 H877 0.950 . S
C853 C852 1.349 . S
C853 C869 1.349 . S
C854 C852 1.327 . S
C854 C873 1.429 . S
C854 H878 0.950 . S
C855 C872 1.574 . S
C855 C874 1.368 . S
C855 H879 0.949 . S
H856 C860 0.949 . S
C857 C858 1.349 . S
C857 C859 1.327 . S
C857 H880 0.950 . S
C858 C857 1.349 . S
C858 C870 1.349 . S
C859 C857 1.327 . S
C859 C875 1.429 . S
C859 H881 0.950 . S
C860 H856 0.949 . S
C860 C868 1.574 . S
C860 C876 1.368 1_455 S
H861 C869 0.950 . S
H862 C867 0.950 . S
H863 C868 0.949 . S
H864 C870 0.950 . S
H865 C871 0.950 . S
H866 C872 0.949 1_655 S
C867 H862 0.950 . S
C867 C869 1.327 . S
C867 C873 1.429 . S
C868 C860 1.574 . S
C868 H863 0.949 . S
C868 C874 1.368 . S
C869 C853 1.349 . S
C869 H861 0.950 . S
C869 C867 1.327 . S
C870 C858 1.349 . S
C870 H864 0.950 . S
C870 C871 1.327 . S
C871 H865 0.950 . S
C871 C870 1.327 . S
C871 C875 1.429 . S
C872 C855 1.574 . S
C872 H866 0.949 1_455 S
C872 C876 1.368 1_455 S
C873 C854 1.429 . S
C873 C867 1.429 . S
C873 C874 1.523 . S
C874 C855 1.368 . S
C874 C868 1.368 . S
C874 C873 1.523 . S
C875 C859 1.429 . S
C875 C871 1.429 . S
C875 C876 1.523 . S
C876 C860 1.368 1_655 S
C876 C872 1.368 1_655 S
C876 C875 1.523 . S
H877 C852 0.950 . S
H878 C854 0.950 . S
H879 C855 0.949 . S
H880 C857 0.950 . S
H881 C859 0.950 . S
C882 C883 1.349 . S
C882 C884 1.327 . S
C882 H907 0.950 . S
C883 C882 1.349 . S
C883 C899 1.349 . S
C884 C882 1.327 . S
C884 C903 1.429 . S
C884 H908 0.950 . S
C885 C902 1.574 . S
C885 C904 1.368 . S
C885 H909 0.949 . S
H886 C890 0.949 . S
C887 C888 1.349 . S
C887 C889 1.327 . S
C887 H910 0.950 . S
C888 C887 1.349 . S
C888 C900 1.349 . S
C889 C887 1.327 . S
C889 C905 1.429 . S
C889 H911 0.950 . S
C890 H886 0.949 . S
C890 C898 1.574 . S
C890 C906 1.368 1_655 S
H891 C899 0.950 . S
H892 C897 0.950 . S
H893 C898 0.949 . S
H894 C900 0.950 . S
H895 C901 0.950 . S
H896 C902 0.949 1_455 S
C897 H892 0.950 . S
C897 C899 1.327 . S
C897 C903 1.429 . S
C898 C890 1.574 . S
C898 H893 0.949 . S
C898 C904 1.368 . S
C899 C883 1.349 . S
C899 H891 0.950 . S
C899 C897 1.327 . S
C900 C888 1.349 . S
C900 H894 0.950 . S
C900 C901 1.327 . S
C901 H895 0.950 . S
C901 C900 1.327 . S
C901 C905 1.429 . S
C902 C885 1.574 . S
C902 H896 0.949 1_655 S
C902 C906 1.368 1_655 S
C903 C884 1.429 . S
C903 C897 1.429 . S
C903 C904 1.523 . S
C904 C885 1.368 . S
C904 C898 1.368 . S
C904 C903 1.523 . S
C905 C889 1.429 . S
C905 C901 1.429 . S
C905 C906 1.523 . S
C906 C890 1.368 1_455 S
C906 C902 1.368 1_455 S
C906 C905 1.523 . S
H907 C882 0.950 . S
H908 C884 0.950 . S
H909 C885 0.949 . S
H910 C887 0.950 . S
H911 C889 0.950 . S
C912 C913 1.349 . S
C912 C914 1.327 . S
C912 H937 0.950 . S
C913 C912 1.349 . S
C913 C929 1.349 . S
C914 C912 1.327 . S
C914 C933 1.429 . S
C914 H938 0.950 . S
C915 C932 1.574 . S
C915 C934 1.368 1_655 S
C915 H939 0.949 . S
H916 C920 0.949 . S
C917 C918 1.349 . S
C917 C919 1.327 . S
C917 H940 0.950 . S
C918 C917 1.349 . S
C918 C930 1.349 . S
C919 C917 1.327 . S
C919 C935 1.429 . S
C919 H941 0.950 . S
C920 H916 0.949 . S
C920 C928 1.574 . S
C920 C936 1.368 1_455 S
H921 C929 0.950 . S
H922 C927 0.950 1_655 S
H923 C928 0.949 . S
H924 C930 0.950 . S
H925 C931 0.950 1_455 S
H926 C932 0.949 . S
C927 H922 0.950 1_455 S
C927 C929 1.327 . S
C927 C933 1.429 . S
C928 C920 1.574 . S
C928 H923 0.949 . S
C928 C934 1.368 . S
C929 C913 1.349 . S
C929 H921 0.950 . S
C929 C927 1.327 . S
C930 C918 1.349 . S
C930 H924 0.950 . S
C930 C931 1.327 . S
C931 H925 0.950 1_655 S
C931 C930 1.327 . S
C931 C935 1.429 . S
C932 C915 1.574 . S
C932 H926 0.949 . S
C932 C936 1.368 . S
C933 C914 1.429 . S
C933 C927 1.429 . S
C933 C934 1.523 . S
C934 C915 1.368 1_455 S
C934 C928 1.368 . S
C934 C933 1.523 . S
C935 C919 1.429 . S
C935 C931 1.429 . S
C935 C936 1.523 . S
C936 C920 1.368 1_655 S
C936 C932 1.368 . S
C936 C935 1.523 . S
H937 C912 0.950 . S
H938 C914 0.950 . S
H939 C915 0.949 . S
H940 C917 0.950 . S
H941 C919 0.950 . S
C942 C943 1.349 . S
C942 C944 1.327 . S
C942 H967 0.950 1_455 S
C943 C942 1.349 . S
C943 C959 1.349 . S
C944 C942 1.327 . S
C944 C963 1.429 . S
C944 H968 0.950 1_455 S
C945 C962 1.574 . S
C945 C964 1.368 . S
C945 H969 0.949 . S
H946 C950 0.949 . S
C947 C948 1.349 . S
C947 C949 1.327 . S
C947 H970 0.950 1_655 S
C948 C947 1.349 . S
C948 C960 1.349 . S
C949 C947 1.327 . S
C949 C965 1.429 . S
C949 H971 0.950 1_655 S
C950 H946 0.949 . S
C950 C958 1.574 . S
C950 C966 1.368 . S
H951 C959 0.950 . S
H952 C957 0.950 . S
H953 C958 0.949 . S
H954 C960 0.950 . S
H955 C961 0.950 . S
H956 C962 0.949 . S
C957 H952 0.950 . S
C957 C959 1.327 . S
C957 C963 1.429 . S
C958 C950 1.574 . S
C958 H953 0.949 . S
C958 C964 1.368 1_655 S
C959 C943 1.349 . S
C959 H951 0.950 . S
C959 C957 1.327 . S
C960 C948 1.349 . S
C960 H954 0.950 . S
C960 C961 1.327 . S
C961 H955 0.950 . S
C961 C960 1.327 . S
C961 C965 1.429 . S
C962 C945 1.574 . S
C962 H956 0.949 . S
C962 C966 1.368 1_455 S
C963 C944 1.429 . S
C963 C957 1.429 . S
C963 C964 1.523 . S
C964 C945 1.368 . S
C964 C958 1.368 1_455 S
C964 C963 1.523 . S
C965 C949 1.429 . S
C965 C961 1.429 . S
C965 C966 1.523 . S
C966 C950 1.368 . S
C966 C962 1.368 1_655 S
C966 C965 1.523 . S
H967 C942 0.950 1_655 S
H968 C944 0.950 1_655 S
H969 C945 0.949 . S
H970 C947 0.950 1_455 S
H971 C949 0.950 1_455 S
C972 C973 1.349 . S
C972 C974 1.327 . S
C972 H997 0.950 . S
C973 C972 1.349 . S
C973 C989 1.349 . S
C974 C972 1.327 . S
C974 C993 1.429 . S
C974 H998 0.950 . S
C975 C992 1.574 1_565 S
C975 C994 1.368 . S
C975 H999 0.949 . S
H976 C980 0.949 . S
C977 C978 1.349 . S
C977 C979 1.327 . S
C977 H1000 0.950 . S
C978 C977 1.349 . S
C978 C990 1.349 . S
C979 C977 1.327 . S
C979 C995 1.429 . S
C979 H1001 0.950 . S
C980 H976 0.949 . S
C980 C988 1.574 1_545 S
C980 C996 1.368 . S
H981 C989 0.950 . S
H982 C987 0.950 . S
H983 C988 0.949 . S
H984 C990 0.950 . S
H985 C991 0.950 . S
H986 C992 0.949 . S
C987 H982 0.950 . S
C987 C989 1.327 . S
C987 C993 1.429 . S
C988 C980 1.574 1_565 S
C988 H983 0.949 . S
C988 C994 1.368 . S
C989 C973 1.349 . S
C989 H981 0.950 . S
C989 C987 1.327 . S
C990 C978 1.349 . S
C990 H984 0.950 . S
C990 C991 1.327 . S
C991 H985 0.950 . S
C991 C990 1.327 . S
C991 C995 1.429 . S
C992 C975 1.574 1_545 S
C992 H986 0.949 . S
C992 C996 1.368 . S
C993 C974 1.429 . S
C993 C987 1.429 . S
C993 C994 1.523 . S
C994 C975 1.368 . S
C994 C988 1.368 . S
C994 C993 1.523 . S
C995 C979 1.429 . S
C995 C991 1.429 . S
C995 C996 1.523 . S
C996 C980 1.368 . S
C996 C992 1.368 . S
C996 C995 1.523 . S
H997 C972 0.950 . S
H998 C974 0.950 . S
H999 C975 0.949 . S
H1000 C977 0.950 . S
H1001 C979 0.950 . S
C1002 C1003 1.349 . S
C1002 C1004 1.327 . S
C1002 H1027 0.950 . S
C1003 C1002 1.349 . S
C1003 C1019 1.349 . S
C1004 C1002 1.327 . S
C1004 C1023 1.429 . S
C1004 H1028 0.950 . S
C1005 C1022 1.574 1_545 S
C1005 C1024 1.368 . S
C1005 H1029 0.949 . S
H1006 C1010 0.949 . S
C1007 C1008 1.349 . S
C1007 C1009 1.327 . S
C1007 H1030 0.950 . S
C1008 C1007 1.349 . S
C1008 C1020 1.349 . S
C1009 C1007 1.327 . S
C1009 C1025 1.429 . S
C1009 H1031 0.950 . S
C1010 H1006 0.949 . S
C1010 C1018 1.574 1_565 S
C1010 C1026 1.368 . S
H1011 C1019 0.950 . S
H1012 C1017 0.950 . S
H1013 C1018 0.949 . S
H1014 C1020 0.950 . S
H1015 C1021 0.950 . S
H1016 C1022 0.949 . S
C1017 H1012 0.950 . S
C1017 C1019 1.327 . S
C1017 C1023 1.429 . S
C1018 C1010 1.574 1_545 S
C1018 H1013 0.949 . S
C1018 C1024 1.368 . S
C1019 C1003 1.349 . S
C1019 H1011 0.950 . S
C1019 C1017 1.327 . S
C1020 C1008 1.349 . S
C1020 H1014 0.950 . S
C1020 C1021 1.327 . S
C1021 H1015 0.950 . S
C1021 C1020 1.327 . S
C1021 C1025 1.429 . S
C1022 C1005 1.574 1_565 S
C1022 H1016 0.949 . S
C1022 C1026 1.368 . S
C1023 C1004 1.429 . S
C1023 C1017 1.429 . S
C1023 C1024 1.523 . S
C1024 C1005 1.368 . S
C1024 C1018 1.368 . S
C1024 C1023 1.523 . S
C1025 C1009 1.429 . S
C1025 C1021 1.429 . S
C1025 C1026 1.523 . S
C1026 C1010 1.368 . S
C1026 C1022 1.368 . S
C1026 C1025 1.523 . S
H1027 C1002 0.950 . S
H1028 C1004 0.950 . S
H1029 C1005 0.949 . S
H1030 C1007 0.950 . S
H1031 C1009 0.950 . S
C1032 C1033 1.349 . S
C1032 C1034 1.327 . S
C1032 H1057 0.950 1_556 S
C1033 C1032 1.349 . S
C1033 C1049 1.349 . S
C1034 C1032 1.327 . S
C1034 C1053 1.429 . S
C1034 H1058 0.950 1_556 S
C1035 C1052 1.574 . S
C1035 C1054 1.368 . S
C1035 H1059 0.949 . S
H1036 C1040 0.949 . S
C1037 C1038 1.349 . S
C1037 C1039 1.327 . S
C1037 H1060 0.950 . S
C1038 C1037 1.349 . S
C1038 C1050 1.349 1_556 S
C1039 C1037 1.327 . S
C1039 C1055 1.429 . S
C1039 H1061 0.950 . S
C1040 H1036 0.949 . S
C1040 C1048 1.574 . S
C1040 C1056 1.368 1_554 S
H1041 C1049 0.950 . S
H1042 C1047 0.950 . S
H1043 C1048 0.949 . S
H1044 C1050 0.950 . S
H1045 C1051 0.950 . S
H1046 C1052 0.949 . S
C1047 H1042 0.950 . S
C1047 C1049 1.327 . S
C1047 C1053 1.429 . S
C1048 C1040 1.574 . S
C1048 H1043 0.949 . S
C1048 C1054 1.368 1_554 S
C1049 C1033 1.349 . S
C1049 H1041 0.950 . S
C1049 C1047 1.327 . S
C1050 C1038 1.349 1_554 S
C1050 H1044 0.950 . S
C1050 C1051 1.327 . S
C1051 H1045 0.950 . S
C1051 C1050 1.327 . S
C1051 C1055 1.429 1_554 S
C1052 C1035 1.574 . S
C1052 H1046 0.949 . S
C1052 C1056 1.368 . S
C1053 C1034 1.429 . S
C1053 C1047 1.429 . S
C1053 C1054 1.523 . S
C1054 C1035 1.368 . S
C1054 C1048 1.368 1_556 S
C1054 C1053 1.523 . S
C1055 C1039 1.429 . S
C1055 C1051 1.429 1_556 S
C1055 C1056 1.523 . S
C1056 C1040 1.368 1_556 S
C1056 C1052 1.368 . S
C1056 C1055 1.523 . S
H1057 C1032 0.950 1_554 S
H1058 C1034 0.950 1_554 S
H1059 C1035 0.949 . S
H1060 C1037 0.950 . S
H1061 C1039 0.950 . S
C1062 C1063 1.349 . S
C1062 C1064 1.327 . S
C1062 H1087 0.950 . S
C1063 C1062 1.349 . S
C1063 C1079 1.349 . S
C1064 C1062 1.327 . S
C1064 C1083 1.429 . S
C1064 H1088 0.950 . S
C1065 C1082 1.574 . S
C1065 C1084 1.368 1_554 S
C1065 H1089 0.949 . S
H1066 C1070 0.949 . S
C1067 C1068 1.349 1_554 S
C1067 C1069 1.327 . S
C1067 H1090 0.950 . S
C1068 C1067 1.349 1_556 S
C1068 C1080 1.349 . S
C1069 C1067 1.327 . S
C1069 C1085 1.429 1_554 S
C1069 H1091 0.950 . S
C1070 H1066 0.949 . S
C1070 C1078 1.574 . S
C1070 C1086 1.368 . S
H1071 C1079 0.950 1_554 S
H1072 C1077 0.950 1_554 S
H1073 C1078 0.949 . S
H1074 C1080 0.950 . S
H1075 C1081 0.950 . S
H1076 C1082 0.949 . S
C1077 H1072 0.950 1_556 S
C1077 C1079 1.327 . S
C1077 C1083 1.429 . S
C1078 C1070 1.574 . S
C1078 H1073 0.949 . S
C1078 C1084 1.368 . S
C1079 C1063 1.349 . S
C1079 H1071 0.950 1_556 S
C1079 C1077 1.327 . S
C1080 C1068 1.349 . S
C1080 H1074 0.950 . S
C1080 C1081 1.327 . S
C1081 H1075 0.950 . S
C1081 C1080 1.327 . S
C1081 C1085 1.429 . S
C1082 C1065 1.574 . S
C1082 H1076 0.949 . S
C1082 C1086 1.368 1_554 S
C1083 C1064 1.429 . S
C1083 C1077 1.429 . S
C1083 C1084 1.523 . S
C1084 C1065 1.368 1_556 S
C1084 C1078 1.368 . S
C1084 C1083 1.523 . S
C1085 C1069 1.429 1_556 S
C1085 C1081 1.429 . S
C1085 C1086 1.523 . S
C1086 C1070 1.368 . S
C1086 C1082 1.368 1_556 S
C1086 C1085 1.523 . S
H1087 C1062 0.950 . S
H1088 C1064 0.950 . S
H1089 C1065 0.949 . S
H1090 C1067 0.950 . S
H1091 C1069 0.950 . S
C1092 C1093 1.349 . S
C1092 C1094 1.327 . S
C1092 H1117 0.950 . S
C1093 C1092 1.349 . S
C1093 C1109 1.349 . S
C1094 C1092 1.327 . S
C1094 C1113 1.429 . S
C1094 H1118 0.950 . S
C1095 C1112 1.574 . S
C1095 C1114 1.368 . S
C1095 H1119 0.949 . S
H1096 C1100 0.949 . S
C1097 C1098 1.349 . S
C1097 C1099 1.327 . S
C1097 H1120 0.950 . S
C1098 C1097 1.349 . S
C1098 C1110 1.349 . S
C1099 C1097 1.327 . S
C1099 C1115 1.429 . S
C1099 H1121 0.950 . S
C1100 H1096 0.949 . S
C1100 C1108 1.574 . S
C1100 C1116 1.368 . S
H1101 C1109 0.950 . S
H1102 C1107 0.950 . S
H1103 C1108 0.949 . S
H1104 C1110 0.950 . S
H1105 C1111 0.950 . S
H1106 C1112 0.949 . S
C1107 H1102 0.950 . S
C1107 C1109 1.327 . S
C1107 C1113 1.429 . S
C1108 C1100 1.574 . S
C1108 H1103 0.949 . S
C1108 C1114 1.368 . S
C1109 C1093 1.349 . S
C1109 H1101 0.950 . S
C1109 C1107 1.327 . S
C1110 C1098 1.349 . S
C1110 H1104 0.950 . S
C1110 C1111 1.327 . S
C1111 H1105 0.950 . S
C1111 C1110 1.327 . S
C1111 C1115 1.429 . S
C1112 C1095 1.574 . S
C1112 H1106 0.949 . S
C1112 C1116 1.368 . S
C1113 C1094 1.429 . S
C1113 C1107 1.429 . S
C1113 C1114 1.523 . S
C1114 C1095 1.368 . S
C1114 C1108 1.368 . S
C1114 C1113 1.523 . S
C1115 C1099 1.429 . S
C1115 C1111 1.429 . S
C1115 C1116 1.523 . S
C1116 C1100 1.368 . S
C1116 C1112 1.368 . S
C1116 C1115 1.523 . S
H1117 C1092 0.950 . S
H1118 C1094 0.950 . S
H1119 C1095 0.949 . S
H1120 C1097 0.950 . S
H1121 C1099 0.950 . S
C1122 C1123 1.349 . S
C1122 C1124 1.327 . S
C1122 H1147 0.950 . S
C1123 C1122 1.349 . S
C1123 C1139 1.349 . S
C1124 C1122 1.327 . S
C1124 C1143 1.429 . S
C1124 H1148 0.950 . S
C1125 C1142 1.574 . S
C1125 C1144 1.368 . S
C1125 H1149 0.949 . S
H1126 C1130 0.949 . S
C1127 C1128 1.349 . S
C1127 C1129 1.327 . S
C1127 H1150 0.950 . S
C1128 C1127 1.349 . S
C1128 C1140 1.349 . S
C1129 C1127 1.327 . S
C1129 C1145 1.429 . S
C1129 H1151 0.950 . S
C1130 H1126 0.949 . S
C1130 C1138 1.574 . S
C1130 C1146 1.368 . S
H1131 C1139 0.950 . S
H1132 C1137 0.950 . S
H1133 C1138 0.949 . S
H1134 C1140 0.950 . S
H1135 C1141 0.950 . S
H1136 C1142 0.949 . S
C1137 H1132 0.950 . S
C1137 C1139 1.327 . S
C1137 C1143 1.429 . S
C1138 C1130 1.574 . S
C1138 H1133 0.949 . S
C1138 C1144 1.368 . S
C1139 C1123 1.349 . S
C1139 H1131 0.950 . S
C1139 C1137 1.327 . S
C1140 C1128 1.349 . S
C1140 H1134 0.950 . S
C1140 C1141 1.327 . S
C1141 H1135 0.950 . S
C1141 C1140 1.327 . S
C1141 C1145 1.429 . S
C1142 C1125 1.574 . S
C1142 H1136 0.949 . S
C1142 C1146 1.368 . S
C1143 C1124 1.429 . S
C1143 C1137 1.429 . S
C1143 C1144 1.523 . S
C1144 C1125 1.368 . S
C1144 C1138 1.368 . S
C1144 C1143 1.523 . S
C1145 C1129 1.429 . S
C1145 C1141 1.429 . S
C1145 C1146 1.523 . S
C1146 C1130 1.368 . S
C1146 C1142 1.368 . S
C1146 C1145 1.523 . S
H1147 C1122 0.950 . S
H1148 C1124 0.950 . S
H1149 C1125 0.949 . S
H1150 C1127 0.950 . S
H1151 C1129 0.950 . S
C1152 C1153 1.349 . S
C1152 C1154 1.327 1_455 S
C1152 H1177 0.950 1_455 S
C1153 C1152 1.349 . S
C1153 C1169 1.349 . S
C1154 C1152 1.327 1_655 S
C1154 C1173 1.429 1_655 S
C1154 H1178 0.950 . S
C1155 C1172 1.574 . S
C1155 C1174 1.368 . S
C1155 H1179 0.949 . S
H1156 C1160 0.949 . S
C1157 C1158 1.349 . S
C1157 C1159 1.327 . S
C1157 H1180 0.950 1_655 S
C1158 C1157 1.349 . S
C1158 C1170 1.349 . S
C1159 C1157 1.327 . S
C1159 C1175 1.429 . S
C1159 H1181 0.950 1_655 S
C1160 H1156 0.949 . S
C1160 C1168 1.574 . S
C1160 C1176 1.368 . S
H1161 C1169 0.950 . S
H1162 C1167 0.950 . S
H1163 C1168 0.949 . S
H1164 C1170 0.950 . S
H1165 C1171 0.950 . S
H1166 C1172 0.949 . S
C1167 H1162 0.950 . S
C1167 C1169 1.327 . S
C1167 C1173 1.429 . S
C1168 C1160 1.574 . S
C1168 H1163 0.949 . S
C1168 C1174 1.368 1_655 S
C1169 C1153 1.349 . S
C1169 H1161 0.950 . S
C1169 C1167 1.327 . S
C1170 C1158 1.349 . S
C1170 H1164 0.950 . S
C1170 C1171 1.327 . S
C1171 H1165 0.950 . S
C1171 C1170 1.327 . S
C1171 C1175 1.429 . S
C1172 C1155 1.574 . S
C1172 H1166 0.949 . S
C1172 C1176 1.368 1_455 S
C1173 C1154 1.429 1_455 S
C1173 C1167 1.429 . S
C1173 C1174 1.523 . S
C1174 C1155 1.368 . S
C1174 C1168 1.368 1_455 S
C1174 C1173 1.523 . S
C1175 C1159 1.429 . S
C1175 C1171 1.429 . S
C1175 C1176 1.523 . S
C1176 C1160 1.368 . S
C1176 C1172 1.368 1_655 S
C1176 C1175 1.523 . S
H1177 C1152 0.950 1_655 S
H1178 C1154 0.950 . S
H1179 C1155 0.949 . S
H1180 C1157 0.950 1_455 S
H1181 C1159 0.950 1_455 S
C1182 C1183 1.349 . S
C1182 C1184 1.327 . S
C1182 H1207 0.950 . S
C1183 C1182 1.349 . S
C1183 C1199 1.349 . S
C1184 C1182 1.327 . S
C1184 C1203 1.429 . S
C1184 H1208 0.950 . S
C1185 C1202 1.574 . S
C1185 C1204 1.368 1_455 S
C1185 H1209 0.949 . S
H1186 C1190 0.949 . S
C1187 C1188 1.349 . S
C1187 C1189 1.327 . S
C1187 H1210 0.950 . S
C1188 C1187 1.349 . S
C1188 C1200 1.349 . S
C1189 C1187 1.327 . S
C1189 C1205 1.429 . S
C1189 H1211 0.950 . S
C1190 H1186 0.949 . S
C1190 C1198 1.574 . S
C1190 C1206 1.368 1_655 S
H1191 C1199 0.950 . S
H1192 C1197 0.946 1_455 S
H1193 C1198 0.949 . S
H1194 C1200 0.950 . S
H1195 C1201 0.950 1_655 S
H1196 C1202 0.949 . S
C1197 H1192 0.946 1_655 S
C1197 C1199 1.327 . S
C1197 C1203 1.429 . S
C1198 C1190 1.574 . S
C1198 H1193 0.949 . S
C1198 C1204 1.368 . S
C1199 C1183 1.349 . S
C1199 H1191 0.950 . S
C1199 C1197 1.327 . S
C1200 C1188 1.349 . S
C1200 H1194 0.950 . S
C1200 C1201 1.327 . S
C1201 H1195 0.950 1_455 S
C1201 C1200 1.327 . S
C1201 C1205 1.429 . S
C1202 C1185 1.574 . S
C1202 H1196 0.949 . S
C1202 C1206 1.368 . S
C1203 C1184 1.429 . S
C1203 C1197 1.429 . S
C1203 C1204 1.523 . S
C1204 C1185 1.368 1_655 S
C1204 C1198 1.368 . S
C1204 C1203 1.523 . S
C1205 C1189 1.429 . S
C1205 C1201 1.429 . S
C1205 C1206 1.523 . S
C1206 C1190 1.368 1_455 S
C1206 C1202 1.368 . S
C1206 C1205 1.523 . S
H1207 C1182 0.950 . S
H1208 C1184 0.950 . S
H1209 C1185 0.949 . S
H1210 C1187 0.950 . S
H1211 C1189 0.950 . S
C1212 C1213 1.349 . S
C1212 C1214 1.327 . S
C1212 H1237 0.950 1_655 S
C1213 C1212 1.349 . S
C1213 C1229 1.349 . S
C1214 C1212 1.327 . S
C1214 C1233 1.429 . S
C1214 H1238 0.950 1_655 S
C1215 C1232 1.574 . S
C1215 C1234 1.368 . S
C1215 H1239 0.949 . S
H1216 C1220 0.949 . S
C1217 C1218 1.349 . S
C1217 C1219 1.327 . S
C1217 H1240 0.946 1_455 S
C1218 C1217 1.349 . S
C1218 C1230 1.349 . S
C1219 C1217 1.327 . S
C1219 C1235 1.429 . S
C1219 H1241 0.950 1_455 S
C1220 H1216 0.949 . S
C1220 C1228 1.574 . S
C1220 C1236 1.368 . S
H1221 C1229 0.950 . S
H1222 C1227 0.950 . S
H1223 C1228 0.949 . S
H1224 C1230 0.950 . S
H1225 C1231 0.950 . S
H1226 C1232 0.949 . S
C1227 H1222 0.950 . S
C1227 C1229 1.327 . S
C1227 C1233 1.429 . S
C1228 C1220 1.574 . S
C1228 H1223 0.949 . S
C1228 C1234 1.368 1_455 S
C1229 C1213 1.349 . S
C1229 H1221 0.950 . S
C1229 C1227 1.327 . S
C1230 C1218 1.349 . S
C1230 H1224 0.950 . S
C1230 C1231 1.327 . S
C1231 H1225 0.950 . S
C1231 C1230 1.327 . S
C1231 C1235 1.429 . S
C1232 C1215 1.574 . S
C1232 H1226 0.949 . S
C1232 C1236 1.368 1_655 S
C1233 C1214 1.429 . S
C1233 C1227 1.429 . S
C1233 C1234 1.523 . S
C1234 C1215 1.368 . S
C1234 C1228 1.368 1_655 S
C1234 C1233 1.523 . S
C1235 C1219 1.429 . S
C1235 C1231 1.429 . S
C1235 C1236 1.523 . S
C1236 C1220 1.368 . S
C1236 C1232 1.368 1_455 S
C1236 C1235 1.523 . S
H1237 C1212 0.950 1_455 S
H1238 C1214 0.950 1_455 S
H1239 C1215 0.949 . S
H1240 C1217 0.946 1_655 S
H1241 C1219 0.950 1_655 S
C1242 C1243 1.349 1_455 S
C1242 C1244 1.327 . S
C1242 H1267 0.950 . S
C1243 C1242 1.349 1_655 S
C1243 C1259 1.349 . S
C1244 C1242 1.327 . S
C1244 C1263 1.429 1_455 S
C1244 H1268 0.950 . S
C1245 C1262 1.574 . S
C1245 C1264 1.368 . S
C1245 H1269 0.949 . S
H1246 C1250 0.949 . S
C1247 C1248 1.349 . S
C1247 C1249 1.327 1_455 S
C1247 H1270 0.950 1_455 S
C1248 C1247 1.349 . S
C1248 C1260 1.349 . S
C1249 C1247 1.327 1_655 S
C1249 C1265 1.429 1_655 S
C1249 H1271 0.950 . S
C1250 H1246 0.949 . S
C1250 C1258 1.574 . S
C1250 C1266 1.368 . S
H1251 C1259 0.950 . S
H1252 C1257 0.950 . S
H1253 C1258 0.949 . S
H1254 C1260 0.950 . S
H1255 C1261 0.950 . S
H1256 C1262 0.949 . S
C1257 H1252 0.950 . S
C1257 C1259 1.327 . S
C1257 C1263 1.429 . S
C1258 C1250 1.574 . S
C1258 H1253 0.949 . S
C1258 C1264 1.368 1_455 S
C1259 C1243 1.349 . S
C1259 H1251 0.950 . S
C1259 C1257 1.327 . S
C1260 C1248 1.349 . S
C1260 H1254 0.950 . S
C1260 C1261 1.327 . S
C1261 H1255 0.950 . S
C1261 C1260 1.327 . S
C1261 C1265 1.429 . S
C1262 C1245 1.574 . S
C1262 H1256 0.949 . S
C1262 C1266 1.368 1_655 S
C1263 C1244 1.429 1_655 S
C1263 C1257 1.429 . S
C1263 C1264 1.523 . S
C1264 C1245 1.368 . S
C1264 C1258 1.368 1_655 S
C1264 C1263 1.523 . S
C1265 C1249 1.429 1_455 S
C1265 C1261 1.429 . S
C1265 C1266 1.523 . S
C1266 C1250 1.368 . S
C1266 C1262 1.368 1_455 S
C1266 C1265 1.523 . S
H1267 C1242 0.950 . S
H1268 C1244 0.950 . S
H1269 C1245 0.949 . S
H1270 C1247 0.950 1_655 S
H1271 C1249 0.950 . S
C1272 C1273 1.349 . S
C1272 C1274 1.327 . S
C1272 H1297 0.950 . S
C1273 C1272 1.349 . S
C1273 C1289 1.349 . S
C1274 C1272 1.327 . S
C1274 C1293 1.429 . S
C1274 H1298 0.950 . S
C1275 C1292 1.574 . S
C1275 C1294 1.368 . S
C1275 H1299 0.949 . S
H1276 C1280 0.949 . S
C1277 C1278 1.349 . S
C1277 C1279 1.327 . S
C1277 H1300 0.950 . S
C1278 C1277 1.349 . S
C1278 C1290 1.349 . S
C1279 C1277 1.327 . S
C1279 C1295 1.429 . S
C1279 H1301 0.950 . S
C1280 H1276 0.949 . S
C1280 C1288 1.574 . S
C1280 C1296 1.368 . S
H1281 C1289 0.950 . S
H1282 C1287 0.950 . S
H1283 C1288 0.949 . S
H1284 C1290 0.950 . S
H1285 C1291 0.950 . S
H1286 C1292 0.949 . S
C1287 H1282 0.950 . S
C1287 C1289 1.327 . S
C1287 C1293 1.429 . S
C1288 C1280 1.574 . S
C1288 H1283 0.949 . S
C1288 C1294 1.368 . S
C1289 C1273 1.349 . S
C1289 H1281 0.950 . S
C1289 C1287 1.327 . S
C1290 C1278 1.349 . S
C1290 H1284 0.950 . S
C1290 C1291 1.327 . S
C1291 H1285 0.950 . S
C1291 C1290 1.327 . S
C1291 C1295 1.429 . S
C1292 C1275 1.574 . S
C1292 H1286 0.949 . S
C1292 C1296 1.368 . S
C1293 C1274 1.429 . S
C1293 C1287 1.429 . S
C1293 C1294 1.523 . S
C1294 C1275 1.368 . S
C1294 C1288 1.368 . S
C1294 C1293 1.523 . S
C1295 C1279 1.429 . S
C1295 C1291 1.429 . S
C1295 C1296 1.523 . S
C1296 C1280 1.368 . S
C1296 C1292 1.368 . S
C1296 C1295 1.523 . S
H1297 C1272 0.950 . S
H1298 C1274 0.950 . S
H1299 C1275 0.949 . S
H1300 C1277 0.950 . S
H1301 C1279 0.950 . S
C1302 C1303 1.349 . S
C1302 C1304 1.327 . S
C1302 H1327 0.950 . S
C1303 C1302 1.349 . S
C1303 C1319 1.349 . S
C1304 C1302 1.327 . S
C1304 C1323 1.429 . S
C1304 H1328 0.950 . S
C1305 C1322 1.574 . S
C1305 C1324 1.368 . S
C1305 H1329 0.949 . S
H1306 C1310 0.949 . S
C1307 C1308 1.349 . S
C1307 C1309 1.327 . S
C1307 H1330 0.950 . S
C1308 C1307 1.349 . S
C1308 C1320 1.349 . S
C1309 C1307 1.327 . S
C1309 C1325 1.429 . S
C1309 H1331 0.950 . S
C1310 H1306 0.949 . S
C1310 C1318 1.574 . S
C1310 C1326 1.368 . S
H1311 C1319 0.950 . S
H1312 C1317 0.950 . S
H1313 C1318 0.949 . S
H1314 C1320 0.950 . S
H1315 C1321 0.950 . S
H1316 C1322 0.949 . S
C1317 H1312 0.950 . S
C1317 C1319 1.327 . S
C1317 C1323 1.429 . S
C1318 C1310 1.574 . S
C1318 H1313 0.949 . S
C1318 C1324 1.368 . S
C1319 C1303 1.349 . S
C1319 H1311 0.950 . S
C1319 C1317 1.327 . S
C1320 C1308 1.349 . S
C1320 H1314 0.950 . S
C1320 C1321 1.327 . S
C1321 H1315 0.950 . S
C1321 C1320 1.327 . S
C1321 C1325 1.429 . S
C1322 C1305 1.574 . S
C1322 H1316 0.949 . S
C1322 C1326 1.368 . S
C1323 C1304 1.429 . S
C1323 C1317 1.429 . S
C1323 C1324 1.523 . S
C1324 C1305 1.368 . S
C1324 C1318 1.368 . S
C1324 C1323 1.523 . S
C1325 C1309 1.429 . S
C1325 C1321 1.429 . S
C1325 C1326 1.523 . S
C1326 C1310 1.368 . S
C1326 C1322 1.368 . S
C1326 C1325 1.523 . S
H1327 C1302 0.950 . S
H1328 C1304 0.950 . S
H1329 C1305 0.949 . S
H1330 C1307 0.950 . S
H1331 C1309 0.950 . S
C1332 C1333 1.349 . S
C1332 C1334 1.327 . S
C1332 H1357 0.950 . S
C1333 C1332 1.349 . S
C1333 C1349 1.349 . S
C1334 C1332 1.327 . S
C1334 C1353 1.429 . S
C1334 H1358 0.950 . S
C1335 C1352 1.574 . S
C1335 C1354 1.368 . S
C1335 H1359 0.949 . S
H1336 C1340 0.949 . S
C1337 C1338 1.349 . S
C1337 C1339 1.327 . S
C1337 H1360 0.950 . S
C1338 C1337 1.349 . S
C1338 C1350 1.349 . S
C1339 C1337 1.327 . S
C1339 C1355 1.429 . S
C1339 H1361 0.950 . S
C1340 H1336 0.949 . S
C1340 C1348 1.574 . S
C1340 C1356 1.368 . S
H1341 C1349 0.950 . S
H1342 C1347 0.950 . S
H1343 C1348 0.949 . S
H1344 C1350 0.950 . S
H1345 C1351 0.950 . S
H1346 C1352 0.949 . S
C1347 H1342 0.950 . S
C1347 C1349 1.327 . S
C1347 C1353 1.429 . S
C1348 C1340 1.574 . S
C1348 H1343 0.949 . S
C1348 C1354 1.368 . S
C1349 C1333 1.349 . S
C1349 H1341 0.950 . S
C1349 C1347 1.327 . S
C1350 C1338 1.349 . S
C1350 H1344 0.950 . S
C1350 C1351 1.327 . S
C1351 H1345 0.950 . S
C1351 C1350 1.327 . S
C1351 C1355 1.429 . S
C1352 C1335 1.574 . S
C1352 H1346 0.949 . S
C1352 C1356 1.368 . S
C1353 C1334 1.429 . S
C1353 C1347 1.429 . S
C1353 C1354 1.523 . S
C1354 C1335 1.368 . S
C1354 C1348 1.368 . S
C1354 C1353 1.523 . S
C1355 C1339 1.429 . S
C1355 C1351 1.429 . S
C1355 C1356 1.523 . S
C1356 C1340 1.368 . S
C1356 C1352 1.368 . S
C1356 C1355 1.523 . S
H1357 C1332 0.950 . S
H1358 C1334 0.950 . S
H1359 C1335 0.949 . S
H1360 C1337 0.950 . S
H1361 C1339 0.950 . S
C1362 C1363 1.349 . S
C1362 C1364 1.327 . S
C1362 H1387 0.950 . S
C1363 C1362 1.349 . S
C1363 C1379 1.349 . S
C1364 C1362 1.327 . S
C1364 C1383 1.429 . S
C1364 H1388 0.950 . S
C1365 C1382 1.574 . S
C1365 C1384 1.368 . S
C1365 H1389 0.949 . S
H1366 C1370 0.949 . S
C1367 C1368 1.349 . S
C1367 C1369 1.327 . S
C1367 H1390 0.950 . S
C1368 C1367 1.349 . S
C1368 C1380 1.349 . S
C1369 C1367 1.327 . S
C1369 C1385 1.429 . S
C1369 H1391 0.950 . S
C1370 H1366 0.949 . S
C1370 C1378 1.574 . S
C1370 C1386 1.368 . S
H1371 C1379 0.950 . S
H1372 C1377 0.950 . S
H1373 C1378 0.949 . S
H1374 C1380 0.950 . S
H1375 C1381 0.950 . S
H1376 C1382 0.949 . S
C1377 H1372 0.950 . S
C1377 C1379 1.327 . S
C1377 C1383 1.429 . S
C1378 C1370 1.574 . S
C1378 H1373 0.949 . S
C1378 C1384 1.368 . S
C1379 C1363 1.349 . S
C1379 H1371 0.950 . S
C1379 C1377 1.327 . S
C1380 C1368 1.349 . S
C1380 H1374 0.950 . S
C1380 C1381 1.327 . S
C1381 H1375 0.950 . S
C1381 C1380 1.327 . S
C1381 C1385 1.429 . S
C1382 C1365 1.574 . S
C1382 H1376 0.949 . S
C1382 C1386 1.368 . S
C1383 C1364 1.429 . S
C1383 C1377 1.429 . S
C1383 C1384 1.523 . S
C1384 C1365 1.368 . S
C1384 C1378 1.368 . S
C1384 C1383 1.523 . S
C1385 C1369 1.429 . S
C1385 C1381 1.429 . S
C1385 C1386 1.523 . S
C1386 C1370 1.368 . S
C1386 C1382 1.368 . S
C1386 C1385 1.523 . S
H1387 C1362 0.950 . S
H1388 C1364 0.950 . S
H1389 C1365 0.949 . S
H1390 C1367 0.950 . S
H1391 C1369 0.950 . S
C673 C56 1.972 . S
C678 C67 1.972 . S
C703 C151 1.976 . S
C708 C140 1.976 . S
C733 C224 1.968 . S
C738 C235 1.968 . S
C763 C308 1.968 . S
C768 C319 1.968 . S
C793 C392 1.972 . S
C798 C403 1.972 . S
C823 C476 1.976 . S
C828 C487 1.976 . S
C853 C560 1.968 . S
C858 C571 1.968 . S
C883 C655 1.968 . S
C888 C644 1.968 . S
C913 C142 2.151 . S
C918 C58 1.896 . S
C943 C310 1.878 . S
C948 C237 1.878 . S
C973 C394 1.896 . S
C978 C478 2.151 . S
C1003 C573 1.878 . S
C1008 C646 1.878 . S
C1033 C69 1.497 . S
C1038 C489 1.713 1_556 S
C1063 C405 1.497 . S
C1068 C153 1.713 1_556 S
C1093 C226 1.438 . S
C1098 C657 1.438 . S
C1123 C321 1.438 . S
C1128 C562 1.438 . S
C1153 C63 1.694 . S
C1158 C315 1.753 . S
C1183 C147 1.501 . S
C1188 C231 1.484 . S
C1213 C158 1.641 . S
C1218 C242 1.684 . S
C1243 C326 1.569 . S
C1248 C74 1.507 . S
C1273 C399 1.694 . S
C1278 C651 1.753 . S
C1303 C483 1.501 . S
C1308 C567 1.484 . S
C1333 C494 1.641 . S
C1338 C578 1.684 . S
C1363 C662 1.569 . S
C1368 C410 1.507 . S
