# Generated by pormake.
# Topology lhb, (8)-cn, num edge types: 1
# Building blocks:
#     Node 0, Type 0, BuildingBlock: LIZSOE_clean_sbu_0, # of connection points: 8
#     Node 1, Type 0, BuildingBlock: LIZSOE_clean_sbu_0, # of connection points: 8
#     Node 2, Type 0, BuildingBlock: LIZSOE_clean_sbu_0, # of connection points: 8
#     Node 3, Type 0, BuildingBlock: LIZSOE_clean_sbu_0, # of connection points: 8
#     Node 4, Type 0, BuildingBlock: LIZSOE_clean_sbu_0, # of connection points: 8
#     Node 5, Type 0, BuildingBlock: LIZSOE_clean_sbu_0, # of connection points: 8
#     Node 6, Type 0, BuildingBlock: LIZSOE_clean_sbu_0, # of connection points: 8
#     Node 7, Type 0, BuildingBlock: LIZSOE_clean_sbu_0, # of connection points: 8
#     Edge 8, Type (0, 0), BuildingBlock: CIFDUS_clean_linker_0, # of connection points: 2
#     Edge 9, Type (0, 0), BuildingBlock: CIFDUS_clean_linker_0, # of connection points: 2
#     Edge 10, Type (0, 0), BuildingBlock: CIFDUS_clean_linker_0, # of connection points: 2
#     Edge 11, Type (0, 0), BuildingBlock: CIFDUS_clean_linker_0, # of connection points: 2
#     Edge 12, Type (0, 0), BuildingBlock: CIFDUS_clean_linker_0, # of connection points: 2
#     Edge 13, Type (0, 0), BuildingBlock: CIFDUS_clean_linker_0, # of connection points: 2
#     Edge 14, Type (0, 0), BuildingBlock: CIFDUS_clean_linker_0, # of connection points: 2
#     Edge 15, Type (0, 0), BuildingBlock: CIFDUS_clean_linker_0, # of connection points: 2
#     Edge 16, Type (0, 0), BuildingBlock: CIFDUS_clean_linker_0, # of connection points: 2
#     Edge 17, Type (0, 0), BuildingBlock: CIFDUS_clean_linker_0, # of connection points: 2
#     Edge 18, Type (0, 0), BuildingBlock: CIFDUS_clean_linker_0, # of connection points: 2
#     Edge 19, Type (0, 0), BuildingBlock: CIFDUS_clean_linker_0, # of connection points: 2
#     Edge 20, Type (0, 0), BuildingBlock: CIFDUS_clean_linker_0, # of connection points: 2
#     Edge 21, Type (0, 0), BuildingBlock: CIFDUS_clean_linker_0, # of connection points: 2
#     Edge 22, Type (0, 0), BuildingBlock: CIFDUS_clean_linker_0, # of connection points: 2
#     Edge 23, Type (0, 0), BuildingBlock: CIFDUS_clean_linker_0, # of connection points: 2
#     Edge 24, Type (0, 0), BuildingBlock: CIFDUS_clean_linker_0, # of connection points: 2
#     Edge 25, Type (0, 0), BuildingBlock: CIFDUS_clean_linker_0, # of connection points: 2
#     Edge 26, Type (0, 0), BuildingBlock: CIFDUS_clean_linker_0, # of connection points: 2
#     Edge 27, Type (0, 0), BuildingBlock: CIFDUS_clean_linker_0, # of connection points: 2
#     Edge 28, Type (0, 0), BuildingBlock: CIFDUS_clean_linker_0, # of connection points: 2
#     Edge 29, Type (0, 0), BuildingBlock: CIFDUS_clean_linker_0, # of connection points: 2
#     Edge 30, Type (0, 0), BuildingBlock: CIFDUS_clean_linker_0, # of connection points: 2
#     Edge 31, Type (0, 0), BuildingBlock: CIFDUS_clean_linker_0, # of connection points: 2
#     Edge 32, Type (0, 0), BuildingBlock: CIFDUS_clean_linker_0, # of connection points: 2
#     Edge 33, Type (0, 0), BuildingBlock: CIFDUS_clean_linker_0, # of connection points: 2
#     Edge 34, Type (0, 0), BuildingBlock: CIFDUS_clean_linker_0, # of connection points: 2
#     Edge 35, Type (0, 0), BuildingBlock: CIFDUS_clean_linker_0, # of connection points: 2
#     Edge 36, Type (0, 0), BuildingBlock: CIFDUS_clean_linker_0, # of connection points: 2
#     Edge 37, Type (0, 0), BuildingBlock: CIFDUS_clean_linker_0, # of connection points: 2
#     Edge 38, Type (0, 0), BuildingBlock: CIFDUS_clean_linker_0, # of connection points: 2
#     Edge 39, Type (0, 0), BuildingBlock: CIFDUS_clean_linker_0, # of connection points: 2
# Relax obj value: 0.136
# Max RMSD: 0.217
# Mean RMSD: 0.217
data_MOF--net-lhb--node1-LIZSOE_clean_sbu_0--edge1-CIFDUS_clean_linker_0
_symmetry_space_group_name_H-M    P1
_symmetry_Int_Tables_number       1
_symmetry_cell_setting            triclinic
loop_
_symmetry_equiv_pos_as_xyz
'x, y, z'
_cell_length_a     39.586811
_cell_length_b     13.687328
_cell_length_c     37.202649
_cell_angle_alpha  90.406838
_cell_angle_beta   90.145641
_cell_angle_gamma 89.931182
loop_
_atom_site_label
_atom_site_type_symbol
_atom_site_fract_x
_atom_site_fract_y
_atom_site_fract_z
_atom_type_partial_charge
Co0 Co 0.07273 0.20377 1.0234 0.0
N1 N 0.1154 0.24688 1.01681 0.0
C2 C 0.12839 0.25339 0.98348 0.0
N3 N 0.16758 0.30594 1.02061 0.0
C4 C 0.13941 0.28306 0.039 0.0
C5 C 0.16053 0.28774 0.98577 0.0
Co6 Co 0.9504 0.8729 1.02465 0.0
N7 N 0.90801 0.82755 1.01873 0.0
N8 N 0.85818 0.75393 1.0234 0.0
C9 C 0.86854 0.74502 0.98918 0.0
C10 C 0.89938 0.78935 0.98651 0.0
C11 C 0.88247 0.80388 0.04091 0.0
Co12 Co 1.01199 1.03762 0.0353 0.0
C13 C 0.99077 0.81717 0.05225 0.0
H14 H 0.91487 0.7931 0.96265 0.0
O15 O 0.02853 0.17968 1.03132 0.0
O16 O 0.97713 0.06739 0.0764 0.0
O17 O 0.04781 1.01064 0.07561 0.0
O18 O 0.0442 0.98848 0.99524 0.0
O19 O 0.08229 0.10355 0.9891 0.0
O20 O 0.93735 0.95672 0.062 0.0
O21 O 0.99507 0.8957 1.0318 0.0
O22 O 0.9399 0.97142 0.98986 0.0
O23 O 0.08689 0.12221 0.06078 0.0
O24 O 0.06327 0.28995 0.0561 0.0
O25 O 0.97895 0.08465 0.99663 0.0
O26 O 0.96011 0.78928 0.05761 0.0
C27 C 0.07648 0.05546 0.08146 0.0
C28 C 0.88144 0.82626 0.08036 0.0
H29 H 0.90625 0.81124 0.09289 0.0
H30 H 0.87513 0.90448 0.08409 0.0
H31 H 0.86196 0.78202 0.09416 0.0
C32 C 0.94838 1.02376 0.08258 0.0
C33 C 0.07112 1.02053 0.98036 0.0
H34 H 0.11544 0.23283 0.95894 0.0
H35 H 0.15655 0.33706 0.09142 0.0
H36 H 0.12208 0.25052 0.09268 0.0
H37 H 0.11526 0.37347 0.07845 0.0
C38 C 0.13334 0.31156 0.07762 0.0
C39 C 0.03282 0.25879 0.05173 0.0
C40 C 0.95165 0.05445 0.9819 0.0
H41 H 0.1781 0.29343 0.96362 0.0
H42 H 0.85398 0.71316 0.96739 0.0
Co43 Co 0.2025 0.45016 0.27591 0.0
N44 N 0.1598 0.49527 0.27041 0.0
C45 C 0.15016 0.5304 0.23821 0.0
N46 N 0.10861 0.56133 0.2754 0.0
C47 C 0.13405 0.51656 0.2928 0.0
C48 C 0.11848 0.56998 0.24108 0.0
Co49 Co 0.32657 0.12087 0.27222 0.0
N50 N 0.36921 0.07662 0.26495 0.0
N51 N 0.41973 1.0049 0.26623 0.0
C52 C 0.40895 1.00536 0.232 0.0
C53 C 0.37777 0.04845 0.23137 0.0
C54 C 0.39524 0.04775 0.28588 0.0
Co55 Co 0.26436 0.28452 0.28513 0.0
C56 C 0.28672 0.06398 0.30011 0.0
H57 H 0.36198 0.05814 0.20789 0.0
O58 O 0.24706 0.42667 0.28273 0.0
O59 O 0.29934 0.30933 0.3265 0.0
O60 O 0.22872 0.25231 0.32533 0.0
O61 O 0.23189 0.2398 0.24486 0.0
O62 O 0.19238 0.35296 0.24019 0.0
O63 O 0.34017 0.20242 0.31069 0.0
O64 O 0.28195 0.14342 0.2803 0.0
O65 O 0.33623 0.22203 0.23889 0.0
O66 O 0.18944 0.36531 0.31237 0.0
O67 O 0.21229 0.53284 0.30974 0.0
O68 O 0.29738 0.33555 0.24649 0.0
O69 O 0.31731 1.03291 0.30384 0.0
C70 C 0.20003 0.29648 0.33202 0.0
C71 C 0.39647 0.05593 0.32604 0.0
H72 H 0.37104 0.06169 0.33809 0.0
H73 H 0.41139 0.12143 0.33327 0.0
H74 H 0.4097 0.99174 0.33753 0.0
C75 C 0.32836 0.26622 0.3323 0.0
C76 C 0.20445 0.27115 0.23062 0.0
H77 H 0.16533 0.52678 0.21409 0.0
H78 H 0.11493 0.54279 0.3464 0.0
H79 H 0.12612 0.41872 0.33604 0.0
H80 H 0.15877 0.50796 0.34443 0.0
C81 C 0.13359 0.4958 0.33228 0.0
C82 C 0.24294 0.50553 0.30349 0.0
C83 C 0.3246 0.30541 0.23137 0.0
H84 H 0.10309 0.59805 0.21936 0.0
H85 H 0.42327 0.97984 0.209 0.0
Co86 Co 0.70698 0.94969 0.27043 0.0
N87 N 0.66424 0.99404 0.26322 0.0
C88 C 0.6537 1.01649 0.2298 0.0
N89 N 0.61168 0.05147 0.26596 0.0
C90 C 0.63814 1.01782 0.28492 0.0
C91 C 0.62114 0.05005 0.23133 0.0
Co92 Co 0.82563 0.61071 0.27968 0.0
N93 N 0.86759 0.55811 0.27546 0.0
N94 N 0.91768 0.4852 0.28127 0.0
C95 C 0.90715 0.47207 0.24727 0.0
C96 C 0.87613 0.51534 0.24398 0.0
C97 C 0.89323 0.53631 0.298 0.0
Co98 Co 0.76776 0.78242 0.2846 0.0
C99 C 0.78604 0.56619 0.30744 0.0
H100 H 0.86076 0.51675 0.2199 0.0
O101 O 0.75157 0.92487 0.27898 0.0
O102 O 0.80007 0.81123 0.32731 0.0
O103 O 0.73002 0.75562 0.32271 0.0
O104 O 0.73739 0.73551 0.24266 0.0
O105 O 0.69722 0.84648 0.23727 0.0
O106 O 0.8424 0.71255 0.31042 0.0
O107 O 0.78252 0.63941 0.28442 0.0
O108 O 0.83452 0.68817 0.23853 0.0
O109 O 0.69274 0.8722 0.30855 0.0
O110 O 0.71661 1.03863 0.30179 0.0
O111 O 0.8052 0.8235 0.24822 0.0
O112 O 0.8161 0.54734 0.31897 0.0
C113 C 0.70197 0.8028 0.32858 0.0
C114 C 0.89485 0.56198 0.33712 0.0
H115 H 0.87003 0.58209 0.34833 0.0
H116 H 0.91284 0.62312 0.34052 0.0
H117 H 0.90522 0.49937 0.35243 0.0
C118 C 0.83005 0.77472 0.33234 0.0
C119 C 0.70973 0.76487 0.22824 0.0
H120 H 0.66858 1.00622 0.20572 0.0
H121 H 0.61984 0.05902 0.33749 0.0
H122 H 0.62875 0.9318 0.33128 0.0
H123 H 0.66304 1.01752 0.33688 0.0
C124 C 0.63769 1.00631 0.32499 0.0
C125 C 0.747 1.0051 0.29877 0.0
C126 C 0.82905 0.77767 0.23165 0.0
H127 H 0.60491 0.06658 0.20869 0.0
H128 H 0.92188 0.43927 0.22585 0.0
Co129 Co 0.07881 0.71321 0.53208 0.0
N130 N 0.12177 0.7607 0.52864 0.0
C131 C 0.12872 0.81367 0.49916 0.0
N132 N 0.17483 0.8153 0.5319 0.0
C133 C 0.15041 0.76396 0.54843 0.0
C134 C 0.16136 0.84659 0.5009 0.0
Co135 Co 0.95233 0.38959 0.52151 0.0
N136 N 0.90746 0.35846 0.51443 0.0
N137 N 0.85173 0.33239 0.51579 0.0
C138 C 0.86169 0.33069 0.48131 0.0
C139 C 0.8959 0.34501 0.48061 0.0
C140 C 0.87988 0.34793 0.53554 0.0
Co141 Co 0.01796 0.54387 0.53599 0.0
C142 C 0.99125 0.32272 0.54866 0.0
H143 H 0.91138 0.34943 0.45675 0.0
O144 O 0.0354 0.686 0.53595 0.0
O145 O 0.9821 0.57393 0.57621 0.0
O146 O 0.05178 0.50792 0.57753 0.0
O147 O 0.05357 0.49808 0.49741 0.0
O148 O 0.08985 0.62054 0.49646 0.0
O149 O 0.94142 0.46779 0.56098 0.0
O150 O 0.99832 0.40283 0.52973 0.0
O151 O 0.94519 0.49451 0.49018 0.0
O152 O 0.09062 0.6247 0.56803 0.0
O153 O 0.06747 0.79341 0.56646 0.0
O154 O 0.98716 0.59864 0.49563 0.0
O155 O 0.95983 0.2975 0.5513 0.0
C156 C 0.07994 0.55263 0.58599 0.0
C157 C 0.88016 0.35585 0.57567 0.0
H158 H 0.87756 0.43379 0.58341 0.0
H159 H 0.85882 0.31551 0.58775 0.0
H160 H 0.90411 0.32633 0.58653 0.0
C161 C 0.95307 0.53211 0.58222 0.0
C162 C 0.08102 0.53662 0.48528 0.0
H163 H 0.11109 0.82582 0.47738 0.0
H164 H 0.17708 0.74867 0.59889 0.0
H165 H 0.15771 0.63961 0.58113 0.0
H166 H 0.13186 0.73479 0.60114 0.0
C167 C 0.15454 0.71941 0.58468 0.0
C168 C 0.03758 0.76358 0.55758 0.0
C169 C 0.95876 0.57401 0.48154 0.0
H170 H 0.1748 0.88579 0.4802 0.0
H171 H 0.8451 0.32309 0.45826 0.0
Co172 Co 0.21647 0.96358 0.77489 0.0
N173 N 0.17559 1.02209 0.76405 0.0
C174 C 0.16092 1.02344 0.73135 0.0
N175 N 0.12483 0.0919 0.76891 0.0
C176 C 0.15365 0.06744 0.78619 0.0
C177 C 0.12966 0.06514 0.73433 0.0
Co178 Co 0.32362 0.60155 0.76817 0.0
N179 N 0.36525 0.54755 0.76087 0.0
N180 N 0.4175 0.48621 0.76138 0.0
C181 C 0.40571 0.48125 0.72755 0.0
C182 C 0.37343 0.51728 0.72744 0.0
C183 C 0.39253 0.526 0.78118 0.0
Co184 Co 0.26668 0.77937 0.78217 0.0
C185 C 0.28163 0.555 0.79595 0.0
H186 H 0.35726 0.52497 0.70416 0.0
O187 O 0.25641 0.92311 0.78518 0.0
O188 O 0.3029 0.79547 0.82326 0.0
O189 O 0.22861 0.76492 0.82264 0.0
O190 O 0.2331 0.74017 0.74204 0.0
O191 O 0.19658 0.85368 0.75129 0.0
O192 O 0.33923 0.6769 0.80732 0.0
O193 O 0.27966 0.63546 0.77638 0.0
O194 O 0.33661 0.70162 0.73515 0.0
O195 O 0.20024 0.91085 0.81763 0.0
O196 O 0.23586 0.99564 0.7332 0.0
O197 O 0.30048 0.82207 0.74312 0.0
O198 O 0.31117 0.51516 0.79926 0.0
C199 C 0.20563 0.82966 0.83372 0.0
C200 C 0.39509 0.54327 0.82081 0.0
H201 H 0.37101 0.5225 0.8337 0.0
H202 H 0.40036 0.62167 0.82596 0.0
H203 H 0.41585 0.49965 0.8328 0.0
C204 C 0.33042 0.74491 0.82876 0.0
C205 C 0.20349 0.77271 0.73716 0.0
H206 H 0.17153 0.99104 0.70729 0.0
H207 H 0.14698 0.15991 0.83292 0.0
H208 H 0.15607 1.03381 0.84247 0.0
H209 H 0.18926 0.11139 0.82699 0.0
C210 C 0.16193 0.09524 0.82431 0.0
C211 C 0.24549 1.00063 0.76667 0.0
C212 C 0.32682 0.78711 0.72772 0.0
H213 H 0.11083 0.06812 0.71321 0.0
H214 H 0.42034 0.45971 0.70423 0.0
Co215 Co 0.83045 0.12811 0.78368 0.0
N216 N 0.87493 0.09225 0.78534 0.0
C217 C 0.88415 0.99733 0.78518 0.0
N218 N 0.9311 0.0821 0.78377 0.0
C219 C 0.90434 0.14275 0.78453 0.0
C220 C 0.91874 0.99082 0.78445 0.0
Co221 Co 0.70586 0.4539 0.76777 0.0
N222 N 0.66286 0.49344 0.75811 0.0
N223 N 0.61047 0.55307 0.75608 0.0
C224 C 0.62249 0.55034 0.72239 0.0
C225 C 0.65477 0.51471 0.72379 0.0
C226 C 0.63536 0.51924 0.77744 0.0
Co227 Co 0.76878 0.29433 0.78421 0.0
C228 C 0.74422 0.51584 0.7972 0.0
H229 H 0.6715 0.50452 0.70112 0.0
O230 O 0.78591 0.15002 0.78431 0.0
O231 O 0.73121 0.26761 0.82243 0.0
O232 O 0.79961 0.33102 0.82797 0.0
O233 O 0.80548 0.33816 0.74677 0.0
O234 O 0.84126 0.215 0.74724 0.0
O235 O 0.69132 0.37571 0.80628 0.0
O236 O 0.75067 0.43517 0.77805 0.0
O237 O 0.69863 0.34963 0.73522 0.0
O238 O 0.8388 0.21684 0.81957 0.0
O239 O 0.81827 0.05096 0.81811 0.0
O240 O 0.7394 0.24165 0.74233 0.0
O241 O 0.71317 0.54483 0.7987 0.0
C242 C 0.8274 0.28758 0.83752 0.0
C243 C 0.63304 0.51829 0.81766 0.0
H244 H 0.65811 0.51515 0.83077 0.0
H245 H 0.61781 0.45452 0.8258 0.0
H246 H 0.61949 0.58454 0.82725 0.0
C247 C 0.70219 0.31081 0.82763 0.0
C248 C 0.83248 0.29676 0.73465 0.0
H249 H 0.86664 0.93668 0.78488 0.0
H250 H 0.91901 0.27847 0.76015 0.0
H251 H 0.88396 0.292 0.7895 0.0
H252 H 0.92594 0.27307 0.80711 0.0
C253 C 0.90787 0.25241 0.78553 0.0
C254 C 0.78846 0.07542 0.80697 0.0
C255 C 0.71193 0.26881 0.72701 0.0
H256 H 0.93369 0.92457 0.78333 0.0
H257 H 0.60837 0.56907 0.69844 0.0
Co258 Co 0.56929 0.21101 0.52187 0.0
N259 N 0.60998 0.26964 0.50887 0.0
C260 C 0.62037 0.27925 0.47453 0.0
N261 N 0.65883 0.3512 0.50812 0.0
C262 C 0.63382 0.31535 0.5288 0.0
C263 C 0.6504 0.32866 0.47405 0.0
Co264 Co 0.46014 0.85356 0.51647 0.0
N265 N 0.41792 0.80148 0.51039 0.0
N266 N 0.36652 0.73496 0.51363 0.0
C267 C 0.37533 0.73894 0.47885 0.0
C268 C 0.40706 0.77848 0.477 0.0
C269 C 0.39279 0.77199 0.53234 0.0
Co270 Co 0.51869 1.02769 0.52997 0.0
C271 C 0.50288 0.8041 0.54302 0.0
H272 H 0.42116 0.79219 0.45268 0.0
O273 O 0.52967 0.17119 0.53394 0.0
O274 O 0.48424 0.04086 0.57257 0.0
O275 O 0.55796 1.00991 0.56865 0.0
O276 O 0.5507 0.99019 0.4883 0.0
O277 O 0.58765 0.10285 0.49679 0.0
O278 O 0.4456 0.9287 0.55637 0.0
O279 O 0.50477 0.88488 0.52362 0.0
O280 O 0.44674 0.95602 0.48436 0.0
O281 O 0.58726 0.15458 0.56341 0.0
O282 O 0.54779 0.24512 0.48139 0.0
O283 O 0.48376 0.07399 0.49278 0.0
O284 O 0.47331 0.7651 0.5466 0.0
C285 C 0.58164 0.0729 0.57923 0.0
C286 C 0.39369 0.77565 0.57259 0.0
H287 H 0.41964 0.78247 0.58337 0.0
H288 H 0.37808 0.838 0.58174 0.0
H289 H 0.38196 0.7086 0.58358 0.0
C290 C 0.45613 0.99347 0.57829 0.0
C291 C 0.5801 1.02282 0.48244 0.0
H292 H 0.60725 0.25021 0.45128 0.0
H293 H 0.64504 0.39771 0.57691 0.0
H294 H 0.64398 0.26752 0.58224 0.0
H295 H 0.60488 0.33392 0.57731 0.0
C296 C 0.63166 0.32992 0.56866 0.0
C297 C 0.54001 0.24915 0.51536 0.0
C298 C 0.4569 0.04159 0.47768 0.0
H299 H 0.66587 0.34228 0.45065 0.0
H300 H 0.35907 0.72047 0.45636 0.0
Co301 Co 0.57488 0.69579 1.01976 0.0
N302 N 0.61705 0.74216 1.01183 0.0
C303 C 0.62755 0.76101 0.97811 0.0
N304 N 0.66761 0.81292 1.01419 0.0
C305 C 0.64192 0.77648 1.03338 0.0
C306 C 0.65895 0.80257 0.97947 0.0
Co307 Co 0.4582 0.35165 1.03247 0.0
N308 N 0.41572 0.30459 1.03073 0.0
N309 N 0.36101 0.27835 1.02256 0.0
C310 C 0.37629 0.19092 1.02391 0.0
C311 C 0.41018 0.20746 1.02854 0.0
C312 C 0.38506 0.34647 1.02708 0.0
Co313 Co 0.51516 0.52771 0.03525 0.0
C314 C 0.49929 0.30926 0.05915 0.0
H315 H 0.42975 0.15236 1.02964 0.0
O316 O 0.53021 0.67088 1.0291 0.0
O317 O 0.4822 0.55984 0.07768 0.0
O318 O 0.55223 0.50714 0.07448 0.0
O319 O 0.54657 0.47899 0.99435 0.0
O320 O 0.58397 0.59561 0.98553 0.0
O321 O 0.44454 0.44296 0.06658 0.0
O322 O 0.5015 0.38191 0.03572 0.0
O323 O 0.44736 0.43185 0.99334 0.0
O324 O 0.59101 0.61575 0.05711 0.0
O325 O 0.56616 0.78118 0.05203 0.0
O326 O 0.47852 0.5647 0.99676 0.0
O327 O 0.4696 0.283 0.06966 0.0
C328 C 0.58104 0.55133 0.07897 0.0
C329 C 0.3775 0.45442 1.0297 0.0
H330 H 0.36057 0.46733 0.05295 0.0
H331 H 0.39995 0.50124 1.03207 0.0
H332 H 0.36347 0.47924 1.00573 0.0
C333 C 0.45421 0.5148 0.08529 0.0
C334 C 0.57281 0.51145 0.9781 0.0
H335 H 0.61337 0.74393 0.95399 0.0
H336 H 0.64915 0.85031 0.08374 0.0
H337 H 0.66192 0.72585 0.0832 0.0
H338 H 0.61762 0.75626 0.08583 0.0
C339 C 0.642 0.77653 0.07378 0.0
C340 C 0.53552 0.75026 0.04929 0.0
C341 C 0.45394 0.51698 0.98223 0.0
H342 H 0.67517 0.81808 0.95681 0.0
H343 H 0.36383 0.12086 1.02125 0.0
H344 H 0.14497 1.03708 0.09419 0.0
H345 H 0.05095 0.09458 0.14826 0.0
H346 H 0.08181 0.1685 0.19874 0.0
H347 H 0.13556 0.23584 0.22477 0.0
H348 H 0.22988 0.16788 0.17273 0.0
H349 H 0.1993 0.08004 0.125 0.0
C350 C 0.13119 0.06093 0.11783 0.0
C351 C 0.09517 0.05667 0.11721 0.0
C352 C 0.14938 0.10518 0.14696 0.0
C353 C 0.07831 0.09258 0.14791 0.0
C354 C 0.09612 0.13745 0.17664 0.0
C355 C 0.14954 0.20116 0.20314 0.0
C356 C 0.18539 0.21055 0.20253 0.0
C357 C 0.13162 0.14743 0.17599 0.0
C358 C 0.20262 0.1631 0.17428 0.0
C359 C 0.18496 0.11253 0.1468 0.0
H360 H 0.95793 0.90334 0.13874 0.0
H361 H 0.89216 0.13254 0.1028 0.0
H362 H 0.8491 0.08144 0.14641 0.0
H363 H 0.82673 0.95531 0.19054 0.0
H364 H 0.8933 0.718 0.21957 0.0
H365 H 0.93782 0.78653 0.18344 0.0
C366 C 0.93493 0.9458 0.14168 0.0
C367 C 0.92961 1.02557 0.11815 0.0
C368 C 0.90916 0.91104 0.1651 0.0
C369 C 0.89826 0.07441 0.12131 0.0
C370 C 0.87304 0.04308 0.14586 0.0
C371 C 0.85097 0.91869 0.18916 0.0
C372 C 0.85555 0.82912 0.20814 0.0
C373 C 0.87755 0.95879 0.16718 0.0
C374 C 0.88779 0.7849 0.20534 0.0
C375 C 0.91388 0.82491 0.18467 0.0
H376 H 0.07678 0.36462 0.43908 0.0
H377 H 0.14664 0.58638 0.47628 0.0
H378 H 0.19055 0.51837 0.43921 0.0
H379 H 0.20983 0.40772 0.39149 0.0
H380 H 0.14199 0.19189 0.34856 0.0
H381 H 0.09864 0.24187 0.39234 0.0
C382 C 0.10158 0.39795 0.43933 0.0
C383 C 0.10708 0.4834 0.46103 0.0
C384 C 0.12814 0.35775 0.41688 0.0
C385 C 0.14018 0.52289 0.46015 0.0
C386 C 0.16603 0.48317 0.43883 0.0
C387 C 0.18626 0.36759 0.39285 0.0
C388 C 0.18053 0.29195 0.36725 0.0
C389 C 0.16046 0.40154 0.41671 0.0
C390 C 0.14846 0.24652 0.3686 0.0
C391 C 0.12307 0.27734 0.39333 0.0
H392 H 0.8973 0.814 0.34864 0.0
H393 H 0.80407 0.72098 0.39686 0.0
H394 H 0.83548 0.65246 0.44748 0.0
H395 H 0.88996 0.59773 0.47423 0.0
H396 H 0.98363 0.69557 0.42811 0.0
H397 H 0.95194 0.78259 0.38121 0.0
C398 C 0.88364 0.78344 0.37113 0.0
C399 C 0.84778 0.7751 0.36864 0.0
C400 C 0.90227 0.74215 0.40042 0.0
C401 C 0.83117 0.73166 0.3979 0.0
C402 C 0.84938 0.69021 0.42672 0.0
C403 C 0.90362 0.63927 0.45426 0.0
C404 C 0.93962 0.63834 0.45496 0.0
C405 C 0.88501 0.69141 0.42762 0.0
C406 C 0.95629 0.69406 0.42873 0.0
C407 C 0.93798 0.7442 0.40174 0.0
H408 H 0.07092 0.65622 0.64748 0.0
H409 H 0.13659 0.44051 0.60068 0.0
H410 H 0.18127 0.48524 0.64377 0.0
H411 H 0.20515 0.60551 0.68978 0.0
H412 H 0.13723 0.82272 0.73367 0.0
H413 H 0.0916 0.75974 0.69706 0.0
C414 C 0.0943 0.61482 0.64787 0.0
C415 C 0.09924 0.54173 0.6211 0.0
C416 C 0.12073 0.64514 0.67164 0.0
C417 C 0.13087 0.49368 0.62149 0.0
C418 C 0.15701 0.52153 0.64578 0.0
C419 C 0.18034 0.63856 0.69172 0.0
C420 C 0.17577 0.72171 0.71471 0.0
C421 C 0.1529 0.60045 0.67015 0.0
C422 C 0.14274 0.76117 0.71622 0.0
C423 C 0.11604 0.72428 0.69526 0.0
H424 H 0.8363 0.48704 0.70017 0.0
H425 H 0.88658 0.20632 0.70505 0.0
H426 H 0.93143 0.26554 0.66809 0.0
H427 H 0.95675 0.38914 0.63047 0.0
H428 H 0.90429 0.65869 0.61179 0.0
H429 H 0.86202 0.61444 0.65763 0.0
C430 C 0.85691 0.43855 0.69311 0.0
C431 C 0.85732 0.34137 0.70725 0.0
C432 C 0.8834 0.47231 0.66941 0.0
C433 C 0.88469 0.28139 0.69627 0.0
C434 C 0.91104 0.31537 0.67479 0.0
C435 C 0.93694 0.44073 0.63748 0.0
C436 C 0.93529 0.52991 0.61844 0.0
C437 C 0.91093 0.41035 0.66123 0.0
C438 C 0.90775 0.59188 0.62677 0.0
C439 C 0.88286 0.56493 0.65256 0.0
H440 H 0.13643 0.81603 0.84075 0.0
H441 H 0.22734 0.84814 0.90331 0.0
H442 H 0.1941 0.91043 0.95407 0.0
H443 H 0.13949 0.97566 0.97869 0.0
H444 H 0.04795 0.93271 0.91783 0.0
H445 H 0.08062 0.85569 0.86918 0.0
C446 C 0.14891 0.83133 0.86614 0.0
C447 C 0.18486 0.8227 0.86797 0.0
C448 C 0.1293 0.86867 0.89553 0.0
C449 C 0.20006 0.84887 0.90096 0.0
C450 C 0.1809 0.88707 0.92996 0.0
C451 C 0.12649 0.9479 0.95506 0.0
C452 C 0.09082 0.9611 0.95238 0.0
C453 C 0.14558 0.90039 0.92728 0.0
C454 C 0.07496 0.92387 0.92125 0.0
C455 C 0.09384 0.87971 0.89319 0.0
H456 H 0.89318 0.32747 0.85667 0.0
H457 H 0.79841 0.23358 0.90068 0.0
H458 H 0.82842 0.14894 0.949 0.0
H459 H 0.88231 0.08047 0.97415 0.0
H460 H 0.97716 0.17765 0.93054 0.0
H461 H 0.94686 0.27763 0.88648 0.0
C462 C 0.87894 0.29184 0.8776 0.0
C463 C 0.84306 0.28936 0.87464 0.0
C464 C 0.89672 0.23933 0.90477 0.0
C465 C 0.82562 0.24099 0.90232 0.0
C466 C 0.84301 0.18957 0.92958 0.0
C467 C 0.89645 0.12388 0.95513 0.0
C468 C 0.9324 0.11918 0.95565 0.0
C469 C 0.87864 0.18457 0.93027 0.0
C470 C 0.9498 0.17824 0.93099 0.0
C471 C 0.93234 0.23614 0.90572 0.0
H472 H 0.64557 0.20781 0.72599 0.0
H473 H 0.73696 0.19208 0.66364 0.0
H474 H 0.70564 0.1141 0.61407 0.0
H475 H 0.65067 0.06718 0.58566 0.0
H476 H 0.55987 0.07599 0.64896 0.0
H477 H 0.59238 0.13554 0.70084 0.0
C478 C 0.65887 0.18529 0.70187 0.0
C479 C 0.69396 0.20634 0.69894 0.0
C480 C 0.64064 0.13779 0.67354 0.0
C481 C 0.71035 0.17655 0.66717 0.0
C482 C 0.69226 0.13197 0.63863 0.0
C483 C 0.63819 0.07699 0.61136 0.0
C484 C 0.60254 0.06343 0.61316 0.0
C485 C 0.65724 0.11353 0.64119 0.0
C486 C 0.58707 0.08143 0.6466 0.0
C487 C 0.60573 0.11799 0.67624 0.0
H488 H 0.38887 1.02895 0.59537 0.0
H489 H 0.48233 0.92915 0.64169 0.0
H490 H 0.45121 0.85494 0.69132 0.0
H491 H 0.3965 0.80082 0.71858 0.0
H492 H 0.30309 0.90983 0.67467 0.0
H493 H 0.33459 0.99601 0.62781 0.0
C494 C 0.40269 0.99544 0.61726 0.0
C495 C 0.43856 0.98814 0.61463 0.0
C496 C 0.38423 0.95119 0.64601 0.0
C497 C 0.45525 0.93997 0.64299 0.0
C498 C 0.43718 0.89517 0.67122 0.0
C499 C 0.38292 0.84429 0.69902 0.0
C500 C 0.34692 0.84689 0.70044 0.0
C501 C 0.40154 0.89728 0.67251 0.0
C502 C 0.3304 0.9053 0.67473 0.0
C503 C 0.3486 0.95514 0.64775 0.0
H504 H 0.64183 0.48521 0.97134 0.0
H505 H 0.54798 0.3996 0.92157 0.0
H506 H 0.5794 0.31639 0.87331 0.0
H507 H 0.6341 0.2812 0.84165 0.0
H508 H 0.72766 0.35846 0.89364 0.0
H509 H 0.69628 0.42735 0.94452 0.0
C510 C 0.62812 0.44713 0.95024 0.0
C511 C 0.59212 0.45022 0.95041 0.0
C512 C 0.64659 0.39628 0.92286 0.0
C513 C 0.57532 0.39918 0.92265 0.0
C514 C 0.59347 0.3513 0.89486 0.0
C515 C 0.64776 0.30894 0.86485 0.0
C516 C 0.68375 0.31186 0.8635 0.0
C517 C 0.62918 0.35026 0.89429 0.0
C518 C 0.7004 0.35151 0.89378 0.0
C519 C 0.68224 0.39326 0.92278 0.0
H520 H 0.4488 0.7057 0.94699 0.0
H521 H 0.40048 0.42269 0.9525 0.0
H522 H 0.35531 0.47877 0.91488 0.0
H523 H 0.32895 0.60087 0.87701 0.0
H524 H 0.37993 0.8718 0.8573 0.0
H525 H 0.42259 0.83033 0.90344 0.0
C526 C 0.42853 0.65601 0.93994 0.0
C527 C 0.42873 0.55923 0.9545 0.0
C528 C 0.40201 0.68769 0.91571 0.0
C529 C 0.40184 0.49758 0.94348 0.0
C530 C 0.37534 0.52972 0.92158 0.0
C531 C 0.3487 0.65299 0.8836 0.0
C532 C 0.34981 0.74167 0.86422 0.0
C533 C 0.37491 0.62427 0.90758 0.0
C534 C 0.37701 0.80498 0.87237 0.0
C535 C 0.40207 0.77974 0.89839 0.0
H536 H 0.64975 0.53202 0.09171 0.0
H537 H 0.55594 0.59436 0.1455 0.0
H538 H 0.58706 0.66641 0.19612 0.0
H539 H 0.64098 0.73081 0.22233 0.0
H540 H 0.73519 0.65876 0.17081 0.0
H541 H 0.7043 0.57289 0.12273 0.0
C542 C 0.63606 0.55685 0.11528 0.0
C543 C 0.60004 0.55475 0.11454 0.0
C544 C 0.65443 0.59968 0.1446 0.0
C545 C 0.58329 0.59125 0.1452 0.0
C546 C 0.60125 0.63478 0.17405 0.0
C547 C 0.6549 0.69527 0.20084 0.0
C548 C 0.69079 0.70308 0.20043 0.0
C549 C 0.6368 0.64263 0.17359 0.0
C550 C 0.7079 0.65492 0.17226 0.0
C551 C 0.69008 0.6054 0.1446 0.0
H552 H 0.39387 0.332 0.22552 0.0
H553 H 0.30025 0.42247 0.17667 0.0
H554 H 0.3319 0.51097 0.13042 0.0
H555 H 0.38673 0.55133 0.10032 0.0
H556 H 0.48004 0.46703 0.15084 0.0
H557 H 0.44847 0.39334 0.20025 0.0
C558 C 0.38025 0.37203 0.20503 0.0
C559 C 0.34423 0.36859 0.20482 0.0
C560 C 0.39885 0.42608 0.17885 0.0
C561 C 0.32759 0.42266 0.17796 0.0
C562 C 0.34587 0.47367 0.15133 0.0
C563 C 0.40029 0.52 0.12274 0.0
C564 C 0.43632 0.51741 0.12143 0.0
C565 C 0.38158 0.47503 0.15109 0.0
C566 C 0.45279 0.47459 0.15107 0.0
C567 C 0.4345 0.4297 0.17913 0.0
H568 H 0.57654 0.86083 0.43292 0.0
H569 H 0.64627 0.07132 0.47816 0.0
H570 H 0.69094 1.00945 0.44022 0.0
H571 H 0.71059 0.90758 0.38986 0.0
H572 H 0.64291 0.70058 0.34095 0.0
H573 H 0.59875 0.74544 0.38449 0.0
C574 C 0.60153 0.89266 0.4348 0.0
C575 C 0.60699 0.97305 0.4588 0.0
C576 C 0.62832 0.85579 0.41221 0.0
C577 C 0.64017 1.01138 0.46014 0.0
C578 C 0.6663 0.97534 0.43834 0.0
C579 C 0.68679 0.86835 0.38979 0.0
C580 C 0.68122 0.79674 0.36271 0.0
C581 C 0.66078 0.89861 0.41389 0.0
C582 C 0.64905 0.7521 0.3622 0.0
C583 C 0.6233 0.77983 0.3868 0.0
H584 H 0.3872 0.05806 0.46902 0.0
H585 H 0.48066 0.1709 0.42728 0.0
H586 H 0.44918 0.26551 0.38252 0.0
H587 H 0.395 0.30373 0.3507 0.0
H588 H 0.30148 0.19904 0.39464 0.0
H589 H 0.33251 0.11806 0.44304 0.0
C590 C 0.40077 0.10402 0.45036 0.0
C591 C 0.43675 0.10517 0.45163 0.0
C592 C 0.3822 0.16174 0.42511 0.0
C593 C 0.45333 0.16715 0.42727 0.0
C594 C 0.43516 0.22194 0.40155 0.0
C595 C 0.38115 0.2678 0.37194 0.0
C596 C 0.34534 0.2608 0.3689 0.0
C597 C 0.39954 0.21921 0.39981 0.0
C598 C 0.32856 0.20967 0.39636 0.0
C599 C 0.34657 0.16082 0.42379 0.0
H600 H 0.99496 0.67516 0.1021 0.0
H601 H 0.02828 0.74529 0.99521 0.0
H602 H 0.03527 0.5704 0.98193 0.0
H603 H 0.02878 0.39594 0.99976 0.0
H604 H 0.99352 0.32823 0.10606 0.0
H605 H 0.98713 0.50277 0.11919 0.0
C606 C 1.0051 0.6526 0.07626 0.0
C607 C 1.01172 0.72545 0.05001 0.0
C608 C 1.00604 0.55149 0.06775 0.0
C609 C 0.02392 0.69312 1.01645 0.0
C610 C 0.02673 0.59229 1.00844 0.0
C611 C 0.01788 0.41912 1.02515 0.0
C612 C 1.01046 0.34687 0.05143 0.0
C613 C 0.01662 0.52073 1.03341 0.0
C614 C 0.99808 0.38007 0.08474 0.0
C615 C 0.99566 0.4806 0.09271 0.0
H616 H 0.24685 0.6524 0.35237 0.0
H617 H 0.28003 0.57348 0.24581 0.0
H618 H 0.28766 0.74715 0.23182 0.0
H619 H 0.28206 0.92302 0.24897 0.0
H620 H 0.24751 0.99976 0.35511 0.0
H621 H 0.24006 0.82642 0.36887 0.0
C622 C 0.25702 0.67274 0.32642 0.0
C623 C 0.26348 0.59777 0.30051 0.0
C624 C 0.25853 0.77324 0.31755 0.0
C625 C 0.27577 0.6273 0.26682 0.0
C626 C 0.279 0.72744 0.2584 0.0
C627 C 0.2711 0.90214 0.27448 0.0
C628 C 0.26411 0.97656 0.30048 0.0
C629 C 0.26927 0.80116 0.2831 0.0
C630 C 0.2517 0.94626 0.33397 0.0
C631 C 0.24866 0.84637 0.34228 0.0
H632 H 0.75522 0.14221 0.24765 0.0
H633 H 0.78468 0.0681 0.35554 0.0
H634 H 0.79132 0.24167 0.37013 0.0
H635 H 0.78372 0.41484 0.35413 0.0
H636 H 0.75524 0.49159 0.24599 0.0
H637 H 0.75013 0.31743 0.23062 0.0
C638 C 0.76498 0.16374 0.2738 0.0
C639 C 0.77046 0.09019 0.30013 0.0
C640 C 0.7662 0.26479 0.28278 0.0
C641 C 0.78152 0.12111 0.33429 0.0
C642 C 0.78406 0.22108 0.34301 0.0
C643 C 0.77542 0.39388 0.32735 0.0
C644 C 0.76929 0.46829 0.30152 0.0
C645 C 0.77511 0.29344 0.31794 0.0
C646 C 0.75923 0.43802 0.26687 0.0
C647 C 0.75735 0.33777 0.25777 0.0
H648 H 0.04189 0.90224 0.50612 0.0
H649 H 0.99102 0.83412 0.60496 0.0
H650 H 0.98036 1.00833 0.61546 0.0
H651 H 0.98815 0.18077 0.59852 0.0
H652 H 0.03729 0.2514 0.49884 0.0
H653 H 0.04869 0.07689 0.48833 0.0
C654 C 0.02687 0.92508 0.52904 0.0
C655 C 0.01599 0.85293 0.55397 0.0
C656 C 0.0228 1.02676 0.53607 0.0
C657 C 0.99833 0.88578 0.58448 0.0
C658 C 0.99328 0.98622 0.59107 0.0
C659 C 1.00248 0.15858 0.575 0.0
C660 C 1.01244 0.23129 0.54993 0.0
C661 C 1.00636 0.05741 0.56769 0.0
C662 C 0.0302 0.19939 0.51928 0.0
C663 C 0.03569 0.09867 0.5127 0.0
H664 H 0.22557 0.17254 0.73543 0.0
H665 H 0.27327 0.06352 0.83168 0.0
H666 H 0.27808 0.23153 0.85469 0.0
H667 H 0.27486 0.40937 0.84416 0.0
H668 H 0.23273 0.5164 0.74502 0.0
H669 H 0.2171 0.34952 0.72782 0.0
C670 C 0.2373 0.1847 0.76143 0.0
C671 C 0.25004 0.10405 0.78124 0.0
C672 C 0.23991 0.28164 0.77447 0.0
C673 C 0.26408 0.12305 0.81531 0.0
C674 C 0.26644 0.21939 0.82865 0.0
C675 C 0.26082 0.39677 0.81947 0.0
C676 C 0.25534 0.47653 0.79581 0.0
C677 C 0.25498 0.29935 0.80818 0.0
C678 C 0.23718 0.45808 0.76398 0.0
C679 C 0.22918 0.36169 0.75363 0.0
H680 H 0.74187 0.65685 0.84799 0.0
H681 H 0.79163 0.58343 0.74855 0.0
H682 H 0.80328 0.75755 0.73855 0.0
H683 H 0.79571 0.93307 0.75631 0.0
H684 H 0.74235 1.00351 0.85382 0.0
H685 H 0.733 0.82938 0.86462 0.0
C686 C 0.75644 0.67833 0.82467 0.0
C687 C 0.76637 0.605 0.79945 0.0
C688 C 0.76003 0.77923 0.81738 0.0
C689 C 0.78448 0.63596 0.76908 0.0
C690 C 0.79007 0.73647 0.76275 0.0
C691 C 0.78046 0.91056 0.77896 0.0
C692 C 0.76837 0.98331 0.80339 0.0
C693 C 0.77676 0.80904 0.78599 0.0
C694 C 0.75049 0.95113 0.83365 0.0
C695 C 0.74617 0.85087 0.84043 0.0
H696 H 0.50988 0.65926 0.59165 0.0
H697 H 0.55163 0.76428 0.49228 0.0
H698 H 0.56789 0.59724 0.47589 0.0
H699 H 0.55996 0.42057 0.48415 0.0
H700 H 0.51335 0.31277 0.58088 0.0
H701 H 0.50793 0.48145 0.60321 0.0
C702 C 0.52398 0.64626 0.5671 0.0
C703 C 0.52921 0.72547 0.54315 0.0
C704 C 0.53041 0.5486 0.55638 0.0
C705 C 0.54741 0.70645 0.51148 0.0
C706 C 0.5558 0.60994 0.50161 0.0
C707 C 0.54844 0.43303 0.51018 0.0
C708 C 0.53607 0.35253 0.53025 0.0
C709 C 0.5455 0.53027 0.5228 0.0
C710 C 0.5223 0.37207 0.56433 0.0
C711 C 0.51953 0.46884 0.57724 0.0
H712 H 0.53356 0.88563 0.10191 0.0
H713 H 0.49292 0.82336 0.99675 0.0
H714 H 0.48571 0.99933 0.98639 0.0
H715 H 0.49532 0.1728 1.00573 0.0
H716 H 0.54128 0.2308 0.10871 0.0
H717 H 0.54543 0.05534 0.11977 0.0
C718 C 0.52177 0.91017 0.07719 0.0
C719 C 0.51335 0.83933 0.05043 0.0
C720 C 0.52148 1.0115 0.06979 0.0
C721 C 0.49887 0.87406 1.01834 0.0
C722 C 0.496 0.97545 1.01188 0.0
C723 C 0.508 0.14701 1.02975 0.0
C724 C 0.51911 0.21675 0.05584 0.0
C725 C 0.50864 0.04493 0.03676 0.0
C726 C 0.53383 0.18054 0.0875 0.0
C727 C 0.53503 0.07971 0.09439 0.0
H728 H 0.31374 0.21793 0.06708 0.0
H729 H 0.33111 0.37732 0.96965 0.0
H730 H 0.27184 0.42755 0.96763 0.0
H731 H 0.21496 0.41391 0.99103 0.0
H732 H 0.19542 0.21588 0.078 0.0
H733 H 0.25566 0.19864 0.08919 0.0
C734 C 0.3041 0.26287 0.04544 0.0
C735 C 0.32597 0.2961 1.01895 0.0
C736 C 0.27002 0.28715 0.04369 0.0
C737 C 0.31414 0.35361 0.99061 0.0
C738 C 0.28058 0.38228 0.98958 0.0
C739 C 0.2241 0.36871 1.01285 0.0
C740 C 0.20106 0.31797 1.03402 0.0
C741 C 0.25833 0.34877 1.01587 0.0
C742 C 0.21272 0.25902 0.06227 0.0
C743 C 0.24715 0.24664 0.06793 0.0
H744 H 0.81809 0.89873 0.04205 0.0
H745 H 0.8229 0.58749 1.0264 0.0
H746 H 0.76107 0.57692 1.02939 0.0
H747 H 0.70682 0.66175 1.02447 0.0
H748 H 0.70245 0.97506 1.03082 0.0
H749 H 0.76338 0.9819 0.04394 0.0
C750 C 0.80534 0.82867 0.04071 0.0
C751 C 0.82409 0.7438 1.03424 0.0
C752 C 0.77029 0.82483 0.04006 0.0
C753 C 0.80822 0.65289 1.03156 0.0
C754 C 0.77319 0.64731 1.03298 0.0
C755 C 0.7195 0.73078 1.0295 0.0
C756 C 0.70141 0.81788 1.02648 0.0
C757 C 0.75412 0.73343 0.03533 0.0
C758 C 0.71684 0.90799 1.03285 0.0
C759 C 0.7513 0.91148 0.0403 0.0
H760 H 0.07083 0.41167 0.29359 0.0
H761 H 0.07108 0.7236 0.28076 0.0
H762 H 1.00958 0.72865 0.28934 0.0
H763 H 0.9561 0.63978 0.28978 0.0
H764 H 0.95543 0.32599 0.29361 0.0
H765 H 0.01729 0.32387 0.29983 0.0
C766 C 0.05723 0.48054 0.29388 0.0
C767 C 0.07455 0.56729 0.28692 0.0
C768 C 0.02223 0.48147 0.29683 0.0
C769 C 0.05752 0.65672 0.28629 0.0
C770 C 0.02268 0.65922 0.29101 0.0
C771 C 0.96972 0.57162 0.29322 0.0
C772 C 0.95216 0.48319 0.29168 0.0
C773 C 1.00478 0.57157 0.2948 0.0
C774 C 0.96918 0.39425 0.29503 0.0
C775 C 1.00422 0.39337 0.29839 0.0
H776 H 0.32936 0.88121 0.53788 0.0
H777 H 0.32819 0.5735 0.51403 0.0
H778 H 0.2669 0.56825 0.52435 0.0
H779 H 0.21338 0.65764 0.53135 0.0
H780 H 0.21425 0.96906 0.54707 0.0
H781 H 0.27629 0.96834 0.54947 0.0
C782 C 0.31556 0.8129 0.53611 0.0
C783 C 0.33255 0.72755 0.52576 0.0
C784 C 0.28057 0.81214 0.54032 0.0
C785 C 0.31504 0.63928 0.52233 0.0
C786 C 0.28026 0.63669 0.52803 0.0
C787 C 0.22744 0.72439 0.53629 0.0
C788 C 0.21009 0.81315 0.5394 0.0
C789 C 0.26269 0.72339 0.5358 0.0
C790 C 0.22775 0.90042 0.5449 0.0
C791 C 0.26293 0.89978 0.54609 0.0
H792 H 0.80802 0.47181 0.50008 0.0
H793 H 0.81919 0.19971 0.55587 0.0
H794 H 0.75796 0.19323 0.56631 0.0
H795 H 0.70127 0.251 0.54935 0.0
H796 H 0.6904 0.51451 0.48808 0.0
H797 H 0.75157 0.54115 0.49039 0.0
C798 C 0.79682 0.41263 0.51519 0.0
C799 C 0.81737 0.33631 0.52725 0.0
C800 C 0.76187 0.40836 0.51988 0.0
C801 C 0.80336 0.25916 0.5467 0.0
C802 C 0.76854 0.25543 0.55242 0.0
C803 C 0.71236 0.31622 0.53797 0.0
C804 C 0.69188 0.3814 0.51881 0.0
C805 C 0.74748 0.32775 0.53788 0.0
C806 C 0.70611 0.46444 0.50313 0.0
C807 C 0.74093 0.47885 0.50416 0.0
H808 H 0.98078 1.03398 0.82821 0.0
H809 H 0.95817 0.18507 0.73003 0.0
H810 H 0.01772 0.22634 0.72236 0.0
H811 H 0.07647 0.19949 0.73941 0.0
H812 H 0.09923 1.01953 0.83094 0.0
H813 H 0.03997 1.01404 0.84692 0.0
C814 C 0.98921 0.0767 0.80549 0.0
C815 C 0.96569 0.1084 0.78008 0.0
C816 C 0.02349 0.09614 0.80055 0.0
C817 C 0.97615 0.16295 0.75037 0.0
C818 C 1.01007 0.18578 0.7459 0.0
C819 C 0.06836 0.16117 0.7633 0.0
C820 C 0.09223 0.11115 0.78405 0.0
C821 C 0.034 0.15059 0.77037 0.0
C822 C 0.08169 0.06153 0.81506 0.0
C823 C 0.04758 0.05616 0.82375 0.0
H824 H 0.57072 0.41904 0.78448 0.0
H825 H 0.57328 0.71331 0.74482 0.0
H826 H 0.51144 0.72309 0.74795 0.0
H827 H 0.45719 0.63829 0.75394 0.0
H828 H 0.45455 0.33905 0.78792 0.0
H829 H 0.51631 0.33928 0.79593 0.0
C830 C 0.55757 0.48613 0.77788 0.0
C831 C 0.57582 0.56597 0.76495 0.0
C832 C 0.52237 0.48901 0.7783 0.0
C833 C 0.55913 0.65194 0.75512 0.0
C834 C 0.52406 0.65703 0.75671 0.0
C835 C 0.47046 0.57424 0.76366 0.0
C836 C 0.45239 0.48864 0.7702 0.0
C837 C 0.50549 0.57474 0.76698 0.0
C838 C 0.46876 0.40498 0.78271 0.0
C839 C 0.50374 0.4054 0.78718 0.0
H840 H 0.57072 0.90094 0.26358 0.0
H841 H 0.57781 0.20382 0.29369 0.0
H842 H 0.5166 0.20974 0.30487 0.0
H843 H 0.46114 0.13513 0.29493 0.0
H844 H 0.45383 0.83731 0.25814 0.0
H845 H 0.51548 0.82022 0.26108 0.0
C846 C 0.55856 0.96709 0.2733 0.0
C847 C 0.5776 0.05215 0.27756 0.0
C848 C 0.52376 0.97003 0.27826 0.0
C849 C 0.56276 0.13842 0.29014 0.0
C850 C 0.5281 0.14146 0.29642 0.0
C851 C 0.47318 0.0656 0.28914 0.0
C852 C 0.45371 0.98707 0.27671 0.0
C853 C 0.50828 0.0587 0.28913 0.0
C854 C 0.46896 0.89779 0.26797 0.0
C855 C 0.50393 0.88857 0.26939 0.0
loop_
_geom_bond_atom_site_label_1
_geom_bond_atom_site_label_2
_geom_bond_distance
_geom_bond_site_symmetry_2
_ccdc_geom_bond_type
Co0 N1 2.034 . S
Co0 O15 2.262 . S
Co0 O19 1.958 . S
Co0 O23 1.950 1_556 S
Co0 O24 2.057 . S
N1 Co0 2.034 . S
N1 C2 1.366 . S
N1 C4 1.332 1_556 S
C2 N1 1.366 . S
C2 C5 1.377 . S
C2 H34 0.931 . S
N3 C4 1.346 . S
N3 C5 1.337 1_554 S
C4 N1 1.332 1_554 S
C4 N3 1.346 . S
C4 C38 1.361 . S
C5 C2 1.377 . S
C5 N3 1.337 1_556 S
C5 H41 0.930 . S
Co6 N7 2.034 . S
Co6 O20 1.950 1_556 S
Co6 O21 2.262 . S
Co6 O22 1.958 . S
Co6 O26 2.057 . S
N7 Co6 2.034 . S
N7 C10 1.366 . S
N7 C11 1.332 1_556 S
N8 C9 1.337 1_554 S
N8 C11 1.346 . S
C9 N8 1.337 1_556 S
C9 C10 1.377 . S
C9 H42 0.930 . S
C10 N7 1.366 . S
C10 C9 1.377 . S
C10 H14 0.931 . S
C11 N7 1.332 1_554 S
C11 N8 1.346 . S
C11 C28 1.361 . S
Co12 O15 2.101 . S
Co12 O16 2.059 1_456 S
Co12 O17 2.072 1_546 S
Co12 O18 2.048 1_545 S
Co12 O21 2.093 1_445 S
Co12 O25 2.035 1_455 S
C13 O21 1.253 . S
C13 O26 1.263 . S
H14 C10 0.931 . S
O15 Co0 2.262 . S
O15 Co12 2.101 . S
O15 C39 1.253 . S
O16 Co12 2.059 1_654 S
O16 C32 1.225 . S
O17 Co12 2.072 1_564 S
O17 C27 1.224 . S
O18 Co12 2.048 1_565 S
O18 C33 1.237 . S
O19 Co0 1.958 . S
O19 C33 1.278 1_545 S
O20 Co6 1.950 1_554 S
O20 C32 1.269 1_565 S
O21 Co6 2.262 . S
O21 Co12 2.093 1_665 S
O21 C13 1.253 . S
O22 Co6 1.958 . S
O22 C40 1.278 1_565 S
O23 Co0 1.950 1_554 S
O23 C27 1.271 1_545 S
O24 Co0 2.057 . S
O24 C39 1.263 . S
O25 Co12 2.035 1_655 S
O25 C40 1.237 . S
O26 Co6 2.057 . S
O26 C13 1.263 . S
C27 O17 1.224 . S
C27 O23 1.271 1_565 S
C28 C11 1.361 . S
C28 H29 0.960 . S
C28 H30 0.961 . S
C28 H31 0.961 . S
H29 C28 0.960 . S
H30 C28 0.961 . S
H31 C28 0.961 . S
C32 O16 1.225 . S
C32 O20 1.269 1_545 S
C33 O18 1.237 . S
C33 O19 1.278 1_565 S
H34 C2 0.931 . S
H35 C38 0.961 . S
H36 C38 0.961 . S
H37 C38 0.960 . S
C38 C4 1.361 . S
C38 H35 0.961 . S
C38 H36 0.961 . S
C38 H37 0.960 . S
C39 O15 1.253 . S
C39 O24 1.263 . S
C40 O22 1.278 1_545 S
C40 O25 1.237 . S
H41 C5 0.930 . S
H42 C9 0.930 . S
Co43 N44 2.034 . S
Co43 O58 2.262 . S
Co43 O62 1.958 . S
Co43 O66 1.950 . S
Co43 O67 2.057 . S
N44 Co43 2.034 . S
N44 C45 1.366 . S
N44 C47 1.332 . S
C45 N44 1.366 . S
C45 C48 1.377 . S
C45 H77 0.931 . S
N46 C47 1.346 . S
N46 C48 1.337 . S
C47 N44 1.332 . S
C47 N46 1.346 . S
C47 C81 1.361 . S
C48 C45 1.377 . S
C48 N46 1.337 . S
C48 H84 0.930 . S
Co49 N50 2.034 . S
Co49 O63 1.950 . S
Co49 O64 2.262 . S
Co49 O65 1.958 . S
Co49 O69 2.049 1_545 S
N50 Co49 2.034 . S
N50 C53 1.366 . S
N50 C54 1.332 . S
N51 C52 1.337 1_565 S
N51 C54 1.346 1_565 S
C52 N51 1.337 1_545 S
C52 C53 1.377 . S
C52 H85 0.930 . S
C53 N50 1.366 . S
C53 C52 1.377 . S
C53 H57 0.931 . S
C54 N50 1.332 . S
C54 N51 1.346 1_545 S
C54 C71 1.358 1_545 S
Co55 O58 2.097 . S
Co55 O59 2.065 . S
Co55 O60 2.065 . S
Co55 O61 2.042 . S
Co55 O64 2.097 . S
Co55 O68 2.042 . S
C56 O64 1.253 . S
C56 O69 1.259 1_545 S
H57 C53 0.931 . S
O58 Co43 2.262 . S
O58 Co55 2.097 . S
O58 C82 1.253 . S
O59 Co55 2.065 . S
O59 C75 1.221 . S
O60 Co55 2.065 . S
O60 C70 1.221 . S
O61 Co55 2.042 . S
O61 C76 1.237 . S
O62 Co43 1.958 . S
O62 C76 1.278 . S
O63 Co49 1.950 . S
O63 C75 1.277 . S
O64 Co49 2.262 . S
O64 Co55 2.097 . S
O64 C56 1.253 . S
O65 Co49 1.958 . S
O65 C83 1.278 . S
O66 Co43 1.950 . S
O66 C70 1.277 . S
O67 Co43 2.057 . S
O67 C82 1.263 . S
O68 Co55 2.042 . S
O68 C83 1.237 . S
O69 Co49 2.049 1_565 S
O69 C56 1.259 1_565 S
C70 O60 1.221 . S
C70 O66 1.277 . S
C71 C54 1.358 1_565 S
C71 H72 0.956 1_565 S
C71 H73 0.957 1_565 S
C71 H74 0.973 . S
H72 C71 0.956 1_545 S
H73 C71 0.957 1_545 S
H74 C71 0.973 . S
C75 O59 1.221 . S
C75 O63 1.277 . S
C76 O61 1.237 . S
C76 O62 1.278 . S
H77 C45 0.931 . S
H78 C81 0.961 . S
H79 C81 0.961 . S
H80 C81 0.960 . S
C81 C47 1.361 . S
C81 H78 0.961 . S
C81 H79 0.961 . S
C81 H80 0.960 . S
C82 O58 1.253 . S
C82 O67 1.263 . S
C83 O65 1.278 . S
C83 O68 1.237 . S
H84 C48 0.930 . S
H85 C52 0.930 . S
Co86 N87 2.034 . S
Co86 O101 2.262 . S
Co86 O105 1.958 . S
Co86 O109 1.950 . S
Co86 O110 2.048 1_565 S
N87 Co86 2.034 . S
N87 C88 1.366 . S
N87 C90 1.332 . S
C88 N87 1.366 . S
C88 C91 1.377 . S
C88 H120 0.931 . S
N89 C90 1.346 1_545 S
N89 C91 1.337 1_545 S
C90 N87 1.332 . S
C90 N89 1.346 1_565 S
C90 C124 1.358 1_565 S
C91 C88 1.377 . S
C91 N89 1.337 1_565 S
C91 H127 0.930 . S
Co92 N93 2.034 . S
Co92 O106 1.950 . S
Co92 O107 2.262 . S
Co92 O108 1.958 . S
Co92 O112 2.057 . S
N93 Co92 2.034 . S
N93 C96 1.366 . S
N93 C97 1.332 . S
N94 C95 1.337 . S
N94 C97 1.346 . S
C95 N94 1.337 . S
C95 C96 1.377 . S
C95 H128 0.930 . S
C96 N93 1.366 . S
C96 C95 1.377 . S
C96 H100 0.931 . S
C97 N93 1.332 . S
C97 N94 1.346 . S
C97 C114 1.361 . S
Co98 O101 2.097 . S
Co98 O102 2.065 . S
Co98 O103 2.065 . S
Co98 O104 2.042 . S
Co98 O107 2.097 . S
Co98 O111 2.042 . S
C99 O107 1.253 . S
C99 O112 1.263 . S
H100 C96 0.931 . S
O101 Co86 2.262 . S
O101 Co98 2.097 . S
O101 C125 1.253 . S
O102 Co98 2.065 . S
O102 C118 1.221 . S
O103 Co98 2.065 . S
O103 C113 1.221 . S
O104 Co98 2.042 . S
O104 C119 1.237 . S
O105 Co86 1.958 . S
O105 C119 1.278 . S
O106 Co92 1.950 . S
O106 C118 1.277 . S
O107 Co92 2.262 . S
O107 Co98 2.097 . S
O107 C99 1.253 . S
O108 Co92 1.958 . S
O108 C126 1.278 . S
O109 Co86 1.950 . S
O109 C113 1.277 . S
O110 Co86 2.048 1_545 S
O110 C125 1.259 1_545 S
O111 Co98 2.042 . S
O111 C126 1.237 . S
O112 Co92 2.057 . S
O112 C99 1.263 . S
C113 O103 1.221 . S
C113 O109 1.277 . S
C114 C97 1.361 . S
C114 H115 0.960 . S
C114 H116 0.961 . S
C114 H117 0.961 . S
H115 C114 0.960 . S
H116 C114 0.961 . S
H117 C114 0.961 . S
C118 O102 1.221 . S
C118 O106 1.277 . S
C119 O104 1.237 . S
C119 O105 1.278 . S
H120 C88 0.931 . S
H121 C124 0.973 . S
H122 C124 0.957 1_565 S
H123 C124 0.955 1_565 S
C124 C90 1.358 1_545 S
C124 H121 0.973 . S
C124 H122 0.957 1_545 S
C124 H123 0.955 1_545 S
C125 O101 1.253 . S
C125 O110 1.259 1_565 S
C126 O108 1.278 . S
C126 O111 1.237 . S
H127 C91 0.930 . S
H128 C95 0.930 . S
Co129 N130 2.034 . S
Co129 O144 2.262 . S
Co129 O148 1.958 . S
Co129 O152 1.950 . S
Co129 O153 2.057 . S
N130 Co129 2.034 . S
N130 C131 1.366 . S
N130 C133 1.332 . S
C131 N130 1.366 . S
C131 C134 1.377 . S
C131 H163 0.931 . S
N132 C133 1.346 . S
N132 C134 1.337 . S
C133 N130 1.332 . S
C133 N132 1.346 . S
C133 C167 1.361 . S
C134 C131 1.377 . S
C134 N132 1.337 . S
C134 H170 0.930 . S
Co135 N136 2.034 . S
Co135 O149 1.950 . S
Co135 O150 2.262 . S
Co135 O151 1.958 . S
Co135 O155 2.057 . S
N136 Co135 2.034 . S
N136 C139 1.366 . S
N136 C140 1.332 . S
N137 C138 1.337 . S
N137 C140 1.346 . S
C138 N137 1.337 . S
C138 C139 1.377 . S
C138 H171 0.930 . S
C139 N136 1.366 . S
C139 C138 1.377 . S
C139 H143 0.931 . S
C140 N136 1.332 . S
C140 N137 1.346 . S
C140 C157 1.361 . S
Co141 O144 2.101 . S
Co141 O145 2.059 1_455 S
Co141 O146 2.072 . S
Co141 O147 2.049 . S
Co141 O150 2.093 1_455 S
Co141 O154 2.035 1_455 S
C142 O150 1.253 . S
C142 O155 1.263 . S
H143 C139 0.931 . S
O144 Co129 2.262 . S
O144 Co141 2.101 . S
O144 C168 1.253 . S
O145 Co141 2.059 1_655 S
O145 C161 1.221 . S
O146 Co141 2.072 . S
O146 C156 1.221 . S
O147 Co141 2.049 . S
O147 C162 1.237 . S
O148 Co129 1.958 . S
O148 C162 1.278 . S
O149 Co135 1.950 . S
O149 C161 1.277 . S
O150 Co135 2.262 . S
O150 Co141 2.093 1_655 S
O150 C142 1.253 . S
O151 Co135 1.958 . S
O151 C169 1.278 . S
O152 Co129 1.950 . S
O152 C156 1.277 . S
O153 Co129 2.057 . S
O153 C168 1.263 . S
O154 Co141 2.035 1_655 S
O154 C169 1.237 . S
O155 Co135 2.057 . S
O155 C142 1.263 . S
C156 O146 1.221 . S
C156 O152 1.277 . S
C157 C140 1.361 . S
C157 H158 0.960 . S
C157 H159 0.961 . S
C157 H160 0.961 . S
H158 C157 0.960 . S
H159 C157 0.961 . S
H160 C157 0.961 . S
C161 O145 1.221 . S
C161 O149 1.277 . S
C162 O147 1.237 . S
C162 O148 1.278 . S
H163 C131 0.931 . S
H164 C167 0.961 . S
H165 C167 0.961 . S
H166 C167 0.960 . S
C167 C133 1.361 . S
C167 H164 0.961 . S
C167 H165 0.961 . S
C167 H166 0.960 . S
C168 O144 1.253 . S
C168 O153 1.263 . S
C169 O151 1.278 . S
C169 O154 1.237 . S
H170 C134 0.930 . S
H171 C138 0.930 . S
Co172 N173 2.034 . S
Co172 O187 2.262 . S
Co172 O191 1.958 . S
Co172 O195 1.950 . S
Co172 O196 2.048 1_565 S
N173 Co172 2.034 . S
N173 C174 1.366 . S
N173 C176 1.332 . S
C174 N173 1.366 . S
C174 C177 1.377 . S
C174 H206 0.931 . S
N175 C176 1.346 1_545 S
N175 C177 1.337 1_545 S
C176 N173 1.332 . S
C176 N175 1.346 1_565 S
C176 C210 1.358 1_565 S
C177 C174 1.377 . S
C177 N175 1.337 1_565 S
C177 H213 0.930 . S
Co178 N179 2.034 . S
Co178 O192 1.950 . S
Co178 O193 2.262 . S
Co178 O194 1.958 . S
Co178 O198 2.057 . S
N179 Co178 2.034 . S
N179 C182 1.366 . S
N179 C183 1.332 . S
N180 C181 1.337 . S
N180 C183 1.346 . S
C181 N180 1.337 . S
C181 C182 1.377 . S
C181 H214 0.930 . S
C182 N179 1.366 . S
C182 C181 1.377 . S
C182 H186 0.931 . S
C183 N179 1.332 . S
C183 N180 1.346 . S
C183 C200 1.361 . S
Co184 O187 2.097 . S
Co184 O188 2.065 . S
Co184 O189 2.065 . S
Co184 O190 2.042 . S
Co184 O193 2.097 . S
Co184 O197 2.042 . S
C185 O193 1.253 . S
C185 O198 1.263 . S
H186 C182 0.931 . S
O187 Co172 2.262 . S
O187 Co184 2.097 . S
O187 C211 1.253 . S
O188 Co184 2.065 . S
O188 C204 1.221 . S
O189 Co184 2.065 . S
O189 C199 1.221 . S
O190 Co184 2.042 . S
O190 C205 1.237 . S
O191 Co172 1.958 . S
O191 C205 1.278 . S
O192 Co178 1.950 . S
O192 C204 1.277 . S
O193 Co178 2.262 . S
O193 Co184 2.097 . S
O193 C185 1.253 . S
O194 Co178 1.958 . S
O194 C212 1.278 . S
O195 Co172 1.950 . S
O195 C199 1.277 . S
O196 Co172 2.048 1_545 S
O196 C211 1.259 1_545 S
O197 Co184 2.042 . S
O197 C212 1.237 . S
O198 Co178 2.057 . S
O198 C185 1.263 . S
C199 O189 1.221 . S
C199 O195 1.277 . S
C200 C183 1.361 . S
C200 H201 0.960 . S
C200 H202 0.961 . S
C200 H203 0.961 . S
H201 C200 0.960 . S
H202 C200 0.961 . S
H203 C200 0.961 . S
C204 O188 1.221 . S
C204 O192 1.277 . S
C205 O190 1.237 . S
C205 O191 1.278 . S
H206 C174 0.931 . S
H207 C210 0.973 . S
H208 C210 0.957 1_565 S
H209 C210 0.955 1_565 S
C210 C176 1.358 1_545 S
C210 H207 0.973 . S
C210 H208 0.957 1_545 S
C210 H209 0.955 1_545 S
C211 O187 1.253 . S
C211 O196 1.259 1_565 S
C212 O194 1.278 . S
C212 O197 1.237 . S
H213 C177 0.930 . S
H214 C181 0.930 . S
Co215 N216 2.034 . S
Co215 O230 2.262 . S
Co215 O234 1.958 . S
Co215 O238 1.950 . S
Co215 O239 2.049 1_545 S
N216 Co215 2.034 . S
N216 C217 1.366 . S
N216 C219 1.332 . S
C217 N216 1.366 . S
C217 C220 1.377 . S
C217 H249 0.931 . S
N218 C219 1.346 1_565 S
N218 C220 1.337 1_565 S
C219 N216 1.332 . S
C219 N218 1.346 1_545 S
C219 C253 1.358 1_545 S
C220 C217 1.377 . S
C220 N218 1.337 1_545 S
C220 H256 0.930 . S
Co221 N222 2.034 . S
Co221 O235 1.950 . S
Co221 O236 2.262 . S
Co221 O237 1.958 . S
Co221 O241 2.057 . S
N222 Co221 2.034 . S
N222 C225 1.366 . S
N222 C226 1.332 . S
N223 C224 1.337 . S
N223 C226 1.346 . S
C224 N223 1.337 . S
C224 C225 1.377 . S
C224 H257 0.930 . S
C225 N222 1.366 . S
C225 C224 1.377 . S
C225 H229 0.931 . S
C226 N222 1.332 . S
C226 N223 1.346 . S
C226 C243 1.361 . S
Co227 O230 2.097 . S
Co227 O231 2.065 . S
Co227 O232 2.065 . S
Co227 O233 2.042 . S
Co227 O236 2.097 . S
Co227 O240 2.042 . S
C228 O236 1.253 . S
C228 O241 1.263 . S
H229 C225 0.931 . S
O230 Co215 2.262 . S
O230 Co227 2.097 . S
O230 C254 1.253 . S
O231 Co227 2.065 . S
O231 C247 1.221 . S
O232 Co227 2.065 . S
O232 C242 1.221 . S
O233 Co227 2.042 . S
O233 C248 1.237 . S
O234 Co215 1.958 . S
O234 C248 1.278 . S
O235 Co221 1.950 . S
O235 C247 1.277 . S
O236 Co221 2.262 . S
O236 Co227 2.097 . S
O236 C228 1.253 . S
O237 Co221 1.958 . S
O237 C255 1.278 . S
O238 Co215 1.950 . S
O238 C242 1.277 . S
O239 Co215 2.049 1_565 S
O239 C254 1.259 1_565 S
O240 Co227 2.042 . S
O240 C255 1.237 . S
O241 Co221 2.057 . S
O241 C228 1.263 . S
C242 O232 1.221 . S
C242 O238 1.277 . S
C243 C226 1.361 . S
C243 H244 0.960 . S
C243 H245 0.961 . S
C243 H246 0.961 . S
H244 C243 0.960 . S
H245 C243 0.961 . S
H246 C243 0.961 . S
C247 O231 1.221 . S
C247 O235 1.277 . S
C248 O233 1.237 . S
C248 O234 1.278 . S
H249 C217 0.931 . S
H250 C253 0.973 . S
H251 C253 0.957 1_545 S
H252 C253 0.956 1_545 S
C253 C219 1.358 1_565 S
C253 H250 0.973 . S
C253 H251 0.957 1_565 S
C253 H252 0.956 1_565 S
C254 O230 1.253 . S
C254 O239 1.259 1_545 S
C255 O237 1.278 . S
C255 O240 1.237 . S
H256 C220 0.930 . S
H257 C224 0.930 . S
Co258 N259 2.034 . S
Co258 O273 2.262 . S
Co258 O277 1.958 . S
Co258 O281 1.950 . S
Co258 O282 2.057 . S
N259 Co258 2.034 . S
N259 C260 1.366 . S
N259 C262 1.332 . S
C260 N259 1.366 . S
C260 C263 1.377 . S
C260 H292 0.931 . S
N261 C262 1.346 . S
N261 C263 1.337 . S
C262 N259 1.332 . S
C262 N261 1.346 . S
C262 C296 1.361 . S
C263 C260 1.377 . S
C263 N261 1.337 . S
C263 H299 0.930 . S
Co264 N265 2.034 . S
Co264 O278 1.950 . S
Co264 O279 2.262 . S
Co264 O280 1.958 . S
Co264 O284 2.057 . S
N265 Co264 2.034 . S
N265 C268 1.366 . S
N265 C269 1.332 . S
N266 C267 1.337 . S
N266 C269 1.346 . S
C267 N266 1.337 . S
C267 C268 1.377 . S
C267 H300 0.930 . S
C268 N265 1.366 . S
C268 C267 1.377 . S
C268 H272 0.931 . S
C269 N265 1.332 . S
C269 N266 1.346 . S
C269 C286 1.361 . S
Co270 O273 2.097 . S
Co270 O274 2.066 . S
Co270 O275 2.065 1_545 S
Co270 O276 2.042 1_545 S
Co270 O279 2.097 1_545 S
Co270 O283 2.042 . S
C271 O279 1.253 . S
C271 O284 1.263 . S
H272 C268 0.931 . S
O273 Co258 2.262 . S
O273 Co270 2.097 . S
O273 C297 1.253 . S
O274 Co270 2.066 . S
O274 C290 1.225 . S
O275 Co270 2.065 1_565 S
O275 C285 1.224 . S
O276 Co270 2.042 1_565 S
O276 C291 1.237 . S
O277 Co258 1.958 . S
O277 C291 1.278 1_545 S
O278 Co264 1.950 . S
O278 C290 1.269 1_565 S
O279 Co264 2.262 . S
O279 Co270 2.097 1_565 S
O279 C271 1.253 . S
O280 Co264 1.958 . S
O280 C298 1.278 1_565 S
O281 Co258 1.950 . S
O281 C285 1.271 1_545 S
O282 Co258 2.057 . S
O282 C297 1.263 . S
O283 Co270 2.042 . S
O283 C298 1.237 . S
O284 Co264 2.057 . S
O284 C271 1.263 . S
C285 O275 1.224 . S
C285 O281 1.271 1_565 S
C286 C269 1.361 . S
C286 H287 0.960 . S
C286 H288 0.961 . S
C286 H289 0.961 . S
H287 C286 0.960 . S
H288 C286 0.961 . S
H289 C286 0.961 . S
C290 O274 1.225 . S
C290 O278 1.269 1_545 S
C291 O276 1.237 . S
C291 O277 1.278 1_565 S
H292 C260 0.931 . S
H293 C296 0.961 . S
H294 C296 0.961 . S
H295 C296 0.960 . S
C296 C262 1.361 . S
C296 H293 0.961 . S
C296 H294 0.961 . S
C296 H295 0.960 . S
C297 O273 1.253 . S
C297 O282 1.263 . S
C298 O280 1.278 1_545 S
C298 O283 1.237 . S
H299 C263 0.930 . S
H300 C267 0.930 . S
Co301 N302 2.034 . S
Co301 O316 2.262 . S
Co301 O320 1.958 . S
Co301 O324 1.950 1_556 S
Co301 O325 2.057 . S
N302 Co301 2.034 . S
N302 C303 1.366 . S
N302 C305 1.332 1_556 S
C303 N302 1.366 . S
C303 C306 1.377 . S
C303 H335 0.931 . S
N304 C305 1.346 . S
N304 C306 1.337 1_554 S
C305 N302 1.332 1_554 S
C305 N304 1.346 . S
C305 C339 1.361 . S
C306 C303 1.377 . S
C306 N304 1.337 1_556 S
C306 H342 0.930 . S
Co307 N308 2.034 . S
Co307 O321 1.950 1_556 S
Co307 O322 2.262 . S
Co307 O323 1.958 . S
Co307 O327 2.057 . S
N308 Co307 2.034 . S
N308 C311 1.366 . S
N308 C312 1.332 1_556 S
N309 C310 1.337 1_554 S
N309 C312 1.346 . S
C310 N309 1.337 1_556 S
C310 C311 1.377 . S
C310 H343 0.930 . S
C311 N308 1.366 . S
C311 C310 1.377 . S
C311 H315 0.931 . S
C312 N308 1.332 1_554 S
C312 N309 1.346 . S
C312 C329 1.361 . S
Co313 O316 2.097 . S
Co313 O317 2.065 1_556 S
Co313 O318 2.065 1_556 S
Co313 O319 2.042 . S
Co313 O322 2.097 . S
Co313 O326 2.042 . S
C314 O322 1.253 . S
C314 O327 1.263 . S
H315 C311 0.931 . S
O316 Co301 2.262 . S
O316 Co313 2.097 . S
O316 C340 1.253 . S
O317 Co313 2.065 1_554 S
O317 C333 1.221 . S
O318 Co313 2.065 1_554 S
O318 C328 1.221 . S
O319 Co313 2.042 . S
O319 C334 1.237 . S
O320 Co301 1.958 . S
O320 C334 1.278 . S
O321 Co307 1.950 1_554 S
O321 C333 1.277 . S
O322 Co307 2.262 . S
O322 Co313 2.097 . S
O322 C314 1.253 . S
O323 Co307 1.958 . S
O323 C341 1.278 . S
O324 Co301 1.950 1_554 S
O324 C328 1.277 . S
O325 Co301 2.057 . S
O325 C340 1.263 . S
O326 Co313 2.042 . S
O326 C341 1.237 . S
O327 Co307 2.057 . S
O327 C314 1.263 . S
C328 O318 1.221 . S
C328 O324 1.277 . S
C329 C312 1.361 . S
C329 H330 0.960 . S
C329 H331 0.961 . S
C329 H332 0.961 . S
H330 C329 0.960 . S
H331 C329 0.961 . S
H332 C329 0.961 . S
C333 O317 1.221 . S
C333 O321 1.277 . S
C334 O319 1.237 . S
C334 O320 1.278 . S
H335 C303 0.931 . S
H336 C339 0.961 . S
H337 C339 0.961 . S
H338 C339 0.960 . S
C339 C305 1.361 . S
C339 H336 0.961 . S
C339 H337 0.961 . S
C339 H338 0.960 . S
C340 O316 1.253 . S
C340 O325 1.263 . S
C341 O323 1.278 . S
C341 O326 1.237 . S
H342 C306 0.930 . S
H343 C310 0.930 . S
H344 C350 0.930 . S
H345 C353 0.930 . S
H346 C354 0.930 . S
H347 C355 0.930 . S
H348 C358 0.930 . S
H349 C359 0.930 . S
C350 H344 0.930 . S
C350 C351 1.355 . S
C350 C352 1.415 . S
C351 C350 1.355 . S
C351 C353 1.419 . S
C352 C350 1.415 . S
C352 C357 1.425 . S
C352 C359 1.409 . S
C353 H345 0.930 . S
C353 C351 1.419 . S
C353 C354 1.362 . S
C354 H346 0.930 . S
C354 C353 1.362 . S
C354 C357 1.409 . S
C355 H347 0.930 . S
C355 C356 1.355 . S
C355 C357 1.415 . S
C356 C355 1.355 . S
C356 C358 1.419 . S
C357 C352 1.425 . S
C357 C354 1.409 . S
C357 C355 1.415 . S
C358 H348 0.930 . S
C358 C356 1.419 . S
C358 C359 1.362 . S
C359 H349 0.930 . S
C359 C352 1.409 . S
C359 C358 1.362 . S
H360 C366 0.930 . S
H361 C369 0.930 . S
H362 C370 0.930 . S
H363 C371 0.930 . S
H364 C374 0.930 . S
H365 C375 0.930 . S
C366 H360 0.930 . S
C366 C367 1.355 . S
C366 C368 1.415 . S
C367 C366 1.355 . S
C367 C369 1.419 . S
C368 C366 1.415 . S
C368 C373 1.425 . S
C368 C375 1.409 . S
C369 H361 0.930 . S
C369 C367 1.419 . S
C369 C370 1.362 . S
C370 H362 0.930 . S
C370 C369 1.362 . S
C370 C373 1.409 . S
C371 H363 0.930 . S
C371 C372 1.355 . S
C371 C373 1.415 . S
C372 C371 1.355 . S
C372 C374 1.419 . S
C373 C368 1.425 . S
C373 C370 1.409 . S
C373 C371 1.415 . S
C374 H364 0.930 . S
C374 C372 1.419 . S
C374 C375 1.362 . S
C375 H365 0.930 . S
C375 C368 1.409 . S
C375 C374 1.362 . S
H376 C382 0.930 . S
H377 C385 0.930 . S
H378 C386 0.930 . S
H379 C387 0.930 . S
H380 C390 0.930 . S
H381 C391 0.930 . S
C382 H376 0.930 . S
C382 C383 1.355 . S
C382 C384 1.415 . S
C383 C382 1.355 . S
C383 C385 1.419 . S
C384 C382 1.415 . S
C384 C389 1.425 . S
C384 C391 1.409 . S
C385 H377 0.930 . S
C385 C383 1.419 . S
C385 C386 1.362 . S
C386 H378 0.930 . S
C386 C385 1.362 . S
C386 C389 1.409 . S
C387 H379 0.930 . S
C387 C388 1.355 . S
C387 C389 1.415 . S
C388 C387 1.355 . S
C388 C390 1.419 . S
C389 C384 1.425 . S
C389 C386 1.409 . S
C389 C387 1.415 . S
C390 H380 0.930 . S
C390 C388 1.419 . S
C390 C391 1.362 . S
C391 H381 0.930 . S
C391 C384 1.409 . S
C391 C390 1.362 . S
H392 C398 0.930 . S
H393 C401 0.930 . S
H394 C402 0.930 . S
H395 C403 0.930 . S
H396 C406 0.930 . S
H397 C407 0.930 . S
C398 H392 0.930 . S
C398 C399 1.355 . S
C398 C400 1.415 . S
C399 C398 1.355 . S
C399 C401 1.419 . S
C400 C398 1.415 . S
C400 C405 1.425 . S
C400 C407 1.409 . S
C401 H393 0.930 . S
C401 C399 1.419 . S
C401 C402 1.362 . S
C402 H394 0.930 . S
C402 C401 1.362 . S
C402 C405 1.409 . S
C403 H395 0.930 . S
C403 C404 1.355 . S
C403 C405 1.415 . S
C404 C403 1.355 . S
C404 C406 1.419 . S
C405 C400 1.425 . S
C405 C402 1.409 . S
C405 C403 1.415 . S
C406 H396 0.930 . S
C406 C404 1.419 . S
C406 C407 1.362 . S
C407 H397 0.930 . S
C407 C400 1.409 . S
C407 C406 1.362 . S
H408 C414 0.930 . S
H409 C417 0.930 . S
H410 C418 0.930 . S
H411 C419 0.930 . S
H412 C422 0.930 . S
H413 C423 0.930 . S
C414 H408 0.930 . S
C414 C415 1.355 . S
C414 C416 1.415 . S
C415 C414 1.355 . S
C415 C417 1.419 . S
C416 C414 1.415 . S
C416 C421 1.425 . S
C416 C423 1.409 . S
C417 H409 0.930 . S
C417 C415 1.419 . S
C417 C418 1.362 . S
C418 H410 0.930 . S
C418 C417 1.362 . S
C418 C421 1.409 . S
C419 H411 0.930 . S
C419 C420 1.355 . S
C419 C421 1.415 . S
C420 C419 1.355 . S
C420 C422 1.419 . S
C421 C416 1.425 . S
C421 C418 1.409 . S
C421 C419 1.415 . S
C422 H412 0.930 . S
C422 C420 1.419 . S
C422 C423 1.362 . S
C423 H413 0.930 . S
C423 C416 1.409 . S
C423 C422 1.362 . S
H424 C430 0.930 . S
H425 C433 0.930 . S
H426 C434 0.930 . S
H427 C435 0.930 . S
H428 C438 0.930 . S
H429 C439 0.930 . S
C430 H424 0.930 . S
C430 C431 1.355 . S
C430 C432 1.415 . S
C431 C430 1.355 . S
C431 C433 1.419 . S
C432 C430 1.415 . S
C432 C437 1.425 . S
C432 C439 1.409 . S
C433 H425 0.930 . S
C433 C431 1.419 . S
C433 C434 1.362 . S
C434 H426 0.930 . S
C434 C433 1.362 . S
C434 C437 1.409 . S
C435 H427 0.930 . S
C435 C436 1.355 . S
C435 C437 1.415 . S
C436 C435 1.355 . S
C436 C438 1.419 . S
C437 C432 1.425 . S
C437 C434 1.409 . S
C437 C435 1.415 . S
C438 H428 0.930 . S
C438 C436 1.419 . S
C438 C439 1.362 . S
C439 H429 0.930 . S
C439 C432 1.409 . S
C439 C438 1.362 . S
H440 C446 0.930 . S
H441 C449 0.930 . S
H442 C450 0.930 . S
H443 C451 0.930 1_545 S
H444 C454 0.930 . S
H445 C455 0.930 . S
C446 H440 0.930 . S
C446 C447 1.355 . S
C446 C448 1.415 . S
C447 C446 1.355 . S
C447 C449 1.419 . S
C448 C446 1.415 . S
C448 C453 1.425 . S
C448 C455 1.409 . S
C449 H441 0.930 . S
C449 C447 1.419 . S
C449 C450 1.362 . S
C450 H442 0.930 . S
C450 C449 1.362 . S
C450 C453 1.409 . S
C451 H443 0.930 1_565 S
C451 C452 1.355 . S
C451 C453 1.415 . S
C452 C451 1.355 . S
C452 C454 1.419 . S
C453 C448 1.425 . S
C453 C450 1.409 . S
C453 C451 1.415 . S
C454 H444 0.930 . S
C454 C452 1.419 . S
C454 C455 1.362 . S
C455 H445 0.930 . S
C455 C448 1.409 . S
C455 C454 1.362 . S
H456 C462 0.930 . S
H457 C465 0.930 . S
H458 C466 0.930 . S
H459 C467 0.930 . S
H460 C470 0.930 . S
H461 C471 0.930 . S
C462 H456 0.930 . S
C462 C463 1.355 . S
C462 C464 1.415 . S
C463 C462 1.355 . S
C463 C465 1.419 . S
C464 C462 1.415 . S
C464 C469 1.425 . S
C464 C471 1.409 . S
C465 H457 0.930 . S
C465 C463 1.419 . S
C465 C466 1.362 . S
C466 H458 0.930 . S
C466 C465 1.362 . S
C466 C469 1.409 . S
C467 H459 0.930 . S
C467 C468 1.355 . S
C467 C469 1.415 . S
C468 C467 1.355 . S
C468 C470 1.419 . S
C469 C464 1.425 . S
C469 C466 1.409 . S
C469 C467 1.415 . S
C470 H460 0.930 . S
C470 C468 1.419 . S
C470 C471 1.362 . S
C471 H461 0.930 . S
C471 C464 1.409 . S
C471 C470 1.362 . S
H472 C478 0.930 . S
H473 C481 0.930 . S
H474 C482 0.930 . S
H475 C483 0.930 . S
H476 C486 0.930 . S
H477 C487 0.930 . S
C478 H472 0.930 . S
C478 C479 1.355 . S
C478 C480 1.415 . S
C479 C478 1.355 . S
C479 C481 1.419 . S
C480 C478 1.415 . S
C480 C485 1.425 . S
C480 C487 1.409 . S
C481 H473 0.930 . S
C481 C479 1.419 . S
C481 C482 1.362 . S
C482 H474 0.930 . S
C482 C481 1.362 . S
C482 C485 1.409 . S
C483 H475 0.930 . S
C483 C484 1.355 . S
C483 C485 1.415 . S
C484 C483 1.355 . S
C484 C486 1.419 . S
C485 C480 1.425 . S
C485 C482 1.409 . S
C485 C483 1.415 . S
C486 H476 0.930 . S
C486 C484 1.419 . S
C486 C487 1.362 . S
C487 H477 0.930 . S
C487 C480 1.409 . S
C487 C486 1.362 . S
H488 C494 0.930 . S
H489 C497 0.930 . S
H490 C498 0.930 . S
H491 C499 0.930 . S
H492 C502 0.930 . S
H493 C503 0.930 . S
C494 H488 0.930 . S
C494 C495 1.355 . S
C494 C496 1.415 . S
C495 C494 1.355 . S
C495 C497 1.419 . S
C496 C494 1.415 . S
C496 C501 1.425 . S
C496 C503 1.409 . S
C497 H489 0.930 . S
C497 C495 1.419 . S
C497 C498 1.362 . S
C498 H490 0.930 . S
C498 C497 1.362 . S
C498 C501 1.409 . S
C499 H491 0.930 . S
C499 C500 1.355 . S
C499 C501 1.415 . S
C500 C499 1.355 . S
C500 C502 1.419 . S
C501 C496 1.425 . S
C501 C498 1.409 . S
C501 C499 1.415 . S
C502 H492 0.930 . S
C502 C500 1.419 . S
C502 C503 1.362 . S
C503 H493 0.930 . S
C503 C496 1.409 . S
C503 C502 1.362 . S
H504 C510 0.930 . S
H505 C513 0.930 . S
H506 C514 0.930 . S
H507 C515 0.930 . S
H508 C518 0.930 . S
H509 C519 0.930 . S
C510 H504 0.930 . S
C510 C511 1.355 . S
C510 C512 1.415 . S
C511 C510 1.355 . S
C511 C513 1.419 . S
C512 C510 1.415 . S
C512 C517 1.425 . S
C512 C519 1.409 . S
C513 H505 0.930 . S
C513 C511 1.419 . S
C513 C514 1.362 . S
C514 H506 0.930 . S
C514 C513 1.362 . S
C514 C517 1.409 . S
C515 H507 0.930 . S
C515 C516 1.355 . S
C515 C517 1.415 . S
C516 C515 1.355 . S
C516 C518 1.419 . S
C517 C512 1.425 . S
C517 C514 1.409 . S
C517 C515 1.415 . S
C518 H508 0.930 . S
C518 C516 1.419 . S
C518 C519 1.362 . S
C519 H509 0.930 . S
C519 C512 1.409 . S
C519 C518 1.362 . S
H520 C526 0.930 . S
H521 C529 0.930 . S
H522 C530 0.930 . S
H523 C531 0.930 . S
H524 C534 0.930 . S
H525 C535 0.930 . S
C526 H520 0.930 . S
C526 C527 1.355 . S
C526 C528 1.415 . S
C527 C526 1.355 . S
C527 C529 1.419 . S
C528 C526 1.415 . S
C528 C533 1.425 . S
C528 C535 1.409 . S
C529 H521 0.930 . S
C529 C527 1.419 . S
C529 C530 1.362 . S
C530 H522 0.930 . S
C530 C529 1.362 . S
C530 C533 1.409 . S
C531 H523 0.930 . S
C531 C532 1.355 . S
C531 C533 1.415 . S
C532 C531 1.355 . S
C532 C534 1.419 . S
C533 C528 1.425 . S
C533 C530 1.409 . S
C533 C531 1.415 . S
C534 H524 0.930 . S
C534 C532 1.419 . S
C534 C535 1.362 . S
C535 H525 0.930 . S
C535 C528 1.409 . S
C535 C534 1.362 . S
H536 C542 0.930 . S
H537 C545 0.930 . S
H538 C546 0.930 . S
H539 C547 0.930 . S
H540 C550 0.930 . S
H541 C551 0.930 . S
C542 H536 0.930 . S
C542 C543 1.355 . S
C542 C544 1.415 . S
C543 C542 1.355 . S
C543 C545 1.419 . S
C544 C542 1.415 . S
C544 C549 1.425 . S
C544 C551 1.409 . S
C545 H537 0.930 . S
C545 C543 1.419 . S
C545 C546 1.362 . S
C546 H538 0.930 . S
C546 C545 1.362 . S
C546 C549 1.409 . S
C547 H539 0.930 . S
C547 C548 1.355 . S
C547 C549 1.415 . S
C548 C547 1.355 . S
C548 C550 1.419 . S
C549 C544 1.425 . S
C549 C546 1.409 . S
C549 C547 1.415 . S
C550 H540 0.930 . S
C550 C548 1.419 . S
C550 C551 1.362 . S
C551 H541 0.930 . S
C551 C544 1.409 . S
C551 C550 1.362 . S
H552 C558 0.930 . S
H553 C561 0.930 . S
H554 C562 0.930 . S
H555 C563 0.930 . S
H556 C566 0.930 . S
H557 C567 0.930 . S
C558 H552 0.930 . S
C558 C559 1.355 . S
C558 C560 1.415 . S
C559 C558 1.355 . S
C559 C561 1.419 . S
C560 C558 1.415 . S
C560 C565 1.425 . S
C560 C567 1.409 . S
C561 H553 0.930 . S
C561 C559 1.419 . S
C561 C562 1.362 . S
C562 H554 0.930 . S
C562 C561 1.362 . S
C562 C565 1.409 . S
C563 H555 0.930 . S
C563 C564 1.355 . S
C563 C565 1.415 . S
C564 C563 1.355 . S
C564 C566 1.419 . S
C565 C560 1.425 . S
C565 C562 1.409 . S
C565 C563 1.415 . S
C566 H556 0.930 . S
C566 C564 1.419 . S
C566 C567 1.362 . S
C567 H557 0.930 . S
C567 C560 1.409 . S
C567 C566 1.362 . S
H568 C574 0.930 . S
H569 C577 0.930 . S
H570 C578 0.930 . S
H571 C579 0.930 . S
H572 C582 0.930 . S
H573 C583 0.930 . S
C574 H568 0.930 . S
C574 C575 1.355 . S
C574 C576 1.415 . S
C575 C574 1.355 . S
C575 C577 1.419 . S
C576 C574 1.415 . S
C576 C581 1.425 . S
C576 C583 1.409 . S
C577 H569 0.930 . S
C577 C575 1.419 . S
C577 C578 1.362 . S
C578 H570 0.930 . S
C578 C577 1.362 . S
C578 C581 1.409 . S
C579 H571 0.930 . S
C579 C580 1.355 . S
C579 C581 1.415 . S
C580 C579 1.355 . S
C580 C582 1.419 . S
C581 C576 1.425 . S
C581 C578 1.409 . S
C581 C579 1.415 . S
C582 H572 0.930 . S
C582 C580 1.419 . S
C582 C583 1.362 . S
C583 H573 0.930 . S
C583 C576 1.409 . S
C583 C582 1.362 . S
H584 C590 0.930 . S
H585 C593 0.930 . S
H586 C594 0.930 . S
H587 C595 0.930 . S
H588 C598 0.930 . S
H589 C599 0.930 . S
C590 H584 0.930 . S
C590 C591 1.355 . S
C590 C592 1.415 . S
C591 C590 1.355 . S
C591 C593 1.419 . S
C592 C590 1.415 . S
C592 C597 1.425 . S
C592 C599 1.409 . S
C593 H585 0.930 . S
C593 C591 1.419 . S
C593 C594 1.362 . S
C594 H586 0.930 . S
C594 C593 1.362 . S
C594 C597 1.409 . S
C595 H587 0.930 . S
C595 C596 1.355 . S
C595 C597 1.415 . S
C596 C595 1.355 . S
C596 C598 1.419 . S
C597 C592 1.425 . S
C597 C594 1.409 . S
C597 C595 1.415 . S
C598 H588 0.930 . S
C598 C596 1.419 . S
C598 C599 1.362 . S
C599 H589 0.930 . S
C599 C592 1.409 . S
C599 C598 1.362 . S
H600 C606 0.930 . S
H601 C609 0.930 . S
H602 C610 0.930 . S
H603 C611 0.930 . S
H604 C614 0.930 . S
H605 C615 0.930 . S
C606 H600 0.930 . S
C606 C607 1.355 1_454 S
C606 C608 1.415 . S
C607 C606 1.355 1_656 S
C607 C609 1.419 . S
C608 C606 1.415 . S
C608 C613 1.425 1_454 S
C608 C615 1.409 . S
C609 H601 0.930 . S
C609 C607 1.419 . S
C609 C610 1.362 . S
C610 H602 0.930 . S
C610 C609 1.362 . S
C610 C613 1.409 . S
C611 H603 0.930 . S
C611 C612 1.355 1_656 S
C611 C613 1.415 . S
C612 C611 1.355 1_454 S
C612 C614 1.419 . S
C613 C608 1.425 1_656 S
C613 C610 1.409 . S
C613 C611 1.415 . S
C614 H604 0.930 . S
C614 C612 1.419 . S
C614 C615 1.362 . S
C615 H605 0.930 . S
C615 C608 1.409 . S
C615 C614 1.362 . S
H616 C622 0.930 . S
H617 C625 0.930 . S
H618 C626 0.930 . S
H619 C627 0.930 . S
H620 C630 0.930 . S
H621 C631 0.930 . S
C622 H616 0.930 . S
C622 C623 1.355 . S
C622 C624 1.415 . S
C623 C622 1.355 . S
C623 C625 1.419 . S
C624 C622 1.415 . S
C624 C629 1.425 . S
C624 C631 1.409 . S
C625 H617 0.930 . S
C625 C623 1.419 . S
C625 C626 1.362 . S
C626 H618 0.930 . S
C626 C625 1.362 . S
C626 C629 1.409 . S
C627 H619 0.930 . S
C627 C628 1.355 . S
C627 C629 1.415 . S
C628 C627 1.355 . S
C628 C630 1.419 . S
C629 C624 1.425 . S
C629 C626 1.409 . S
C629 C627 1.415 . S
C630 H620 0.930 . S
C630 C628 1.419 . S
C630 C631 1.362 . S
C631 H621 0.930 . S
C631 C624 1.409 . S
C631 C630 1.362 . S
H632 C638 0.930 . S
H633 C641 0.930 . S
H634 C642 0.930 . S
H635 C643 0.930 . S
H636 C646 0.930 . S
H637 C647 0.930 . S
C638 H632 0.930 . S
C638 C639 1.355 . S
C638 C640 1.415 . S
C639 C638 1.355 . S
C639 C641 1.419 . S
C640 C638 1.415 . S
C640 C645 1.425 . S
C640 C647 1.409 . S
C641 H633 0.930 . S
C641 C639 1.419 . S
C641 C642 1.362 . S
C642 H634 0.930 . S
C642 C641 1.362 . S
C642 C645 1.409 . S
C643 H635 0.930 . S
C643 C644 1.355 . S
C643 C645 1.415 . S
C644 C643 1.355 . S
C644 C646 1.419 . S
C645 C640 1.425 . S
C645 C642 1.409 . S
C645 C643 1.415 . S
C646 H636 0.930 . S
C646 C644 1.419 . S
C646 C647 1.362 . S
C647 H637 0.930 . S
C647 C640 1.409 . S
C647 C646 1.362 . S
H648 C654 0.930 . S
H649 C657 0.930 . S
H650 C658 0.930 . S
H651 C659 0.930 . S
H652 C662 0.930 . S
H653 C663 0.930 . S
C654 H648 0.930 . S
C654 C655 1.355 . S
C654 C656 1.415 . S
C655 C654 1.355 . S
C655 C657 1.419 1_455 S
C656 C654 1.415 . S
C656 C661 1.425 1_465 S
C656 C663 1.409 1_565 S
C657 H649 0.930 . S
C657 C655 1.419 1_655 S
C657 C658 1.362 . S
C658 H650 0.930 . S
C658 C657 1.362 . S
C658 C661 1.409 1_565 S
C659 H651 0.930 . S
C659 C660 1.355 . S
C659 C661 1.415 . S
C660 C659 1.355 . S
C660 C662 1.419 1_655 S
C661 C656 1.425 1_645 S
C661 C658 1.409 1_545 S
C661 C659 1.415 . S
C662 H652 0.930 . S
C662 C660 1.419 1_455 S
C662 C663 1.362 . S
C663 H653 0.930 . S
C663 C656 1.409 1_545 S
C663 C662 1.362 . S
H664 C670 0.930 . S
H665 C673 0.930 . S
H666 C674 0.930 . S
H667 C675 0.930 . S
H668 C678 0.930 . S
H669 C679 0.930 . S
C670 H664 0.930 . S
C670 C671 1.355 . S
C670 C672 1.415 . S
C671 C670 1.355 . S
C671 C673 1.419 . S
C672 C670 1.415 . S
C672 C677 1.425 . S
C672 C679 1.409 . S
C673 H665 0.930 . S
C673 C671 1.419 . S
C673 C674 1.362 . S
C674 H666 0.930 . S
C674 C673 1.362 . S
C674 C677 1.409 . S
C675 H667 0.930 . S
C675 C676 1.355 . S
C675 C677 1.415 . S
C676 C675 1.355 . S
C676 C678 1.419 . S
C677 C672 1.425 . S
C677 C674 1.409 . S
C677 C675 1.415 . S
C678 H668 0.930 . S
C678 C676 1.419 . S
C678 C679 1.362 . S
C679 H669 0.930 . S
C679 C672 1.409 . S
C679 C678 1.362 . S
H680 C686 0.930 . S
H681 C689 0.930 . S
H682 C690 0.930 . S
H683 C691 0.930 . S
H684 C694 0.930 . S
H685 C695 0.930 . S
C686 H680 0.930 . S
C686 C687 1.355 . S
C686 C688 1.415 . S
C687 C686 1.355 . S
C687 C689 1.419 . S
C688 C686 1.415 . S
C688 C693 1.425 . S
C688 C695 1.409 . S
C689 H681 0.930 . S
C689 C687 1.419 . S
C689 C690 1.362 . S
C690 H682 0.930 . S
C690 C689 1.362 . S
C690 C693 1.409 . S
C691 H683 0.930 . S
C691 C692 1.355 . S
C691 C693 1.415 . S
C692 C691 1.355 . S
C692 C694 1.419 . S
C693 C688 1.425 . S
C693 C690 1.409 . S
C693 C691 1.415 . S
C694 H684 0.930 . S
C694 C692 1.419 . S
C694 C695 1.362 . S
C695 H685 0.930 . S
C695 C688 1.409 . S
C695 C694 1.362 . S
H696 C702 0.930 . S
H697 C705 0.930 . S
H698 C706 0.930 . S
H699 C707 0.930 . S
H700 C710 0.930 . S
H701 C711 0.930 . S
C702 H696 0.930 . S
C702 C703 1.355 . S
C702 C704 1.415 . S
C703 C702 1.355 . S
C703 C705 1.419 . S
C704 C702 1.415 . S
C704 C709 1.425 . S
C704 C711 1.409 . S
C705 H697 0.930 . S
C705 C703 1.419 . S
C705 C706 1.362 . S
C706 H698 0.930 . S
C706 C705 1.362 . S
C706 C709 1.409 . S
C707 H699 0.930 . S
C707 C708 1.355 . S
C707 C709 1.415 . S
C708 C707 1.355 . S
C708 C710 1.419 . S
C709 C704 1.425 . S
C709 C706 1.409 . S
C709 C707 1.415 . S
C710 H700 0.930 . S
C710 C708 1.419 . S
C710 C711 1.362 . S
C711 H701 0.930 . S
C711 C704 1.409 . S
C711 C710 1.362 . S
H712 C718 0.930 . S
H713 C721 0.930 . S
H714 C722 0.930 . S
H715 C723 0.930 . S
H716 C726 0.930 . S
H717 C727 0.930 . S
C718 H712 0.930 . S
C718 C719 1.355 1_554 S
C718 C720 1.415 . S
C719 C718 1.355 1_556 S
C719 C721 1.419 . S
C720 C718 1.415 . S
C720 C725 1.425 1_564 S
C720 C727 1.409 1_565 S
C721 H713 0.930 . S
C721 C719 1.419 . S
C721 C722 1.362 . S
C722 H714 0.930 . S
C722 C721 1.362 . S
C722 C725 1.409 1_565 S
C723 H715 0.930 . S
C723 C724 1.355 . S
C723 C725 1.415 . S
C724 C723 1.355 . S
C724 C726 1.419 1_556 S
C725 C720 1.425 1_546 S
C725 C722 1.409 1_545 S
C725 C723 1.415 . S
C726 H716 0.930 . S
C726 C724 1.419 1_554 S
C726 C727 1.362 . S
C727 H717 0.930 . S
C727 C720 1.409 1_545 S
C727 C726 1.362 . S
H728 C734 0.930 . S
H729 C737 0.930 . S
H730 C738 0.930 . S
H731 C739 0.930 . S
H732 C742 0.930 . S
H733 C743 0.930 . S
C734 H728 0.930 . S
C734 C735 1.355 . S
C734 C736 1.415 . S
C735 C734 1.355 . S
C735 C737 1.419 . S
C736 C734 1.415 . S
C736 C741 1.425 . S
C736 C743 1.409 . S
C737 H729 0.930 . S
C737 C735 1.419 . S
C737 C738 1.362 . S
C738 H730 0.930 . S
C738 C737 1.362 . S
C738 C741 1.409 . S
C739 H731 0.930 . S
C739 C740 1.355 . S
C739 C741 1.415 . S
C740 C739 1.355 . S
C740 C742 1.419 . S
C741 C736 1.425 . S
C741 C738 1.409 . S
C741 C739 1.415 . S
C742 H732 0.930 . S
C742 C740 1.419 . S
C742 C743 1.362 . S
C743 H733 0.930 . S
C743 C736 1.409 . S
C743 C742 1.362 . S
H744 C750 0.930 . S
H745 C753 0.930 1_556 S
H746 C754 0.930 1_556 S
H747 C755 0.930 1_556 S
H748 C758 0.930 . S
H749 C759 0.930 . S
C750 H744 0.930 . S
C750 C751 1.355 . S
C750 C752 1.415 . S
C751 C750 1.355 . S
C751 C753 1.419 . S
C752 C750 1.415 . S
C752 C757 1.425 . S
C752 C759 1.409 . S
C753 H745 0.930 1_554 S
C753 C751 1.419 . S
C753 C754 1.362 . S
C754 H746 0.930 1_554 S
C754 C753 1.362 . S
C754 C757 1.409 . S
C755 H747 0.930 1_554 S
C755 C756 1.355 . S
C755 C757 1.415 . S
C756 C755 1.355 . S
C756 C758 1.419 . S
C757 C752 1.425 . S
C757 C754 1.409 . S
C757 C755 1.415 . S
C758 H748 0.930 . S
C758 C756 1.419 . S
C758 C759 1.362 . S
C759 H749 0.930 . S
C759 C752 1.409 . S
C759 C758 1.362 . S
H760 C766 0.930 . S
H761 C769 0.930 . S
H762 C770 0.930 1_655 S
H763 C771 0.930 . S
H764 C774 0.930 . S
H765 C775 0.930 1_455 S
C766 H760 0.930 . S
C766 C767 1.355 . S
C766 C768 1.415 . S
C767 C766 1.355 . S
C767 C769 1.419 . S
C768 C766 1.415 . S
C768 C773 1.425 1_455 S
C768 C775 1.409 1_455 S
C769 H761 0.930 . S
C769 C767 1.419 . S
C769 C770 1.362 . S
C770 H762 0.930 1_455 S
C770 C769 1.362 . S
C770 C773 1.409 1_455 S
C771 H763 0.930 . S
C771 C772 1.355 . S
C771 C773 1.415 . S
C772 C771 1.355 . S
C772 C774 1.419 . S
C773 C768 1.425 1_655 S
C773 C770 1.409 1_655 S
C773 C771 1.415 . S
C774 H764 0.930 . S
C774 C772 1.419 . S
C774 C775 1.362 . S
C775 H765 0.930 1_655 S
C775 C768 1.409 1_655 S
C775 C774 1.362 . S
H776 C782 0.930 . S
H777 C785 0.930 . S
H778 C786 0.930 . S
H779 C787 0.930 . S
H780 C790 0.930 . S
H781 C791 0.930 . S
C782 H776 0.930 . S
C782 C783 1.355 . S
C782 C784 1.415 . S
C783 C782 1.355 . S
C783 C785 1.419 . S
C784 C782 1.415 . S
C784 C789 1.425 . S
C784 C791 1.409 . S
C785 H777 0.930 . S
C785 C783 1.419 . S
C785 C786 1.362 . S
C786 H778 0.930 . S
C786 C785 1.362 . S
C786 C789 1.409 . S
C787 H779 0.930 . S
C787 C788 1.355 . S
C787 C789 1.415 . S
C788 C787 1.355 . S
C788 C790 1.419 . S
C789 C784 1.425 . S
C789 C786 1.409 . S
C789 C787 1.415 . S
C790 H780 0.930 . S
C790 C788 1.419 . S
C790 C791 1.362 . S
C791 H781 0.930 . S
C791 C784 1.409 . S
C791 C790 1.362 . S
H792 C798 0.930 . S
H793 C801 0.930 . S
H794 C802 0.930 . S
H795 C803 0.930 . S
H796 C806 0.930 . S
H797 C807 0.930 . S
C798 H792 0.930 . S
C798 C799 1.355 . S
C798 C800 1.415 . S
C799 C798 1.355 . S
C799 C801 1.419 . S
C800 C798 1.415 . S
C800 C805 1.425 . S
C800 C807 1.409 . S
C801 H793 0.930 . S
C801 C799 1.419 . S
C801 C802 1.362 . S
C802 H794 0.930 . S
C802 C801 1.362 . S
C802 C805 1.409 . S
C803 H795 0.930 . S
C803 C804 1.355 . S
C803 C805 1.415 . S
C804 C803 1.355 . S
C804 C806 1.419 . S
C805 C800 1.425 . S
C805 C802 1.409 . S
C805 C803 1.415 . S
C806 H796 0.930 . S
C806 C804 1.419 . S
C806 C807 1.362 . S
C807 H797 0.930 . S
C807 C800 1.409 . S
C807 C806 1.362 . S
H808 C814 0.930 . S
H809 C817 0.930 . S
H810 C818 0.930 . S
H811 C819 0.930 . S
H812 C822 0.930 . S
H813 C823 0.930 . S
C814 H808 0.930 . S
C814 C815 1.355 . S
C814 C816 1.415 . S
C815 C814 1.355 . S
C815 C817 1.419 1_565 S
C816 C814 1.415 . S
C816 C821 1.425 1_665 S
C816 C823 1.409 1_655 S
C817 H809 0.930 . S
C817 C815 1.419 1_545 S
C817 C818 1.362 . S
C818 H810 0.930 . S
C818 C817 1.362 . S
C818 C821 1.409 1_655 S
C819 H811 0.930 . S
C819 C820 1.355 . S
C819 C821 1.415 . S
C820 C819 1.355 . S
C820 C822 1.419 1_545 S
C821 C816 1.425 1_445 S
C821 C818 1.409 1_455 S
C821 C819 1.415 . S
C822 H812 0.930 . S
C822 C820 1.419 1_565 S
C822 C823 1.362 . S
C823 H813 0.930 . S
C823 C816 1.409 1_455 S
C823 C822 1.362 . S
H824 C830 0.930 . S
H825 C833 0.930 . S
H826 C834 0.930 . S
H827 C835 0.930 . S
H828 C838 0.930 . S
H829 C839 0.930 . S
C830 H824 0.930 . S
C830 C831 1.355 . S
C830 C832 1.415 . S
C831 C830 1.355 . S
C831 C833 1.419 . S
C832 C830 1.415 . S
C832 C837 1.425 . S
C832 C839 1.409 . S
C833 H825 0.930 . S
C833 C831 1.419 . S
C833 C834 1.362 . S
C834 H826 0.930 . S
C834 C833 1.362 . S
C834 C837 1.409 . S
C835 H827 0.930 . S
C835 C836 1.355 . S
C835 C837 1.415 . S
C836 C835 1.355 . S
C836 C838 1.419 . S
C837 C832 1.425 . S
C837 C834 1.409 . S
C837 C835 1.415 . S
C838 H828 0.930 . S
C838 C836 1.419 . S
C838 C839 1.362 . S
C839 H829 0.930 . S
C839 C832 1.409 . S
C839 C838 1.362 . S
H840 C846 0.930 . S
H841 C849 0.930 . S
H842 C850 0.930 . S
H843 C851 0.930 . S
H844 C854 0.930 . S
H845 C855 0.930 . S
C846 H840 0.930 . S
C846 C847 1.355 1_565 S
C846 C848 1.415 . S
C847 C846 1.355 1_545 S
C847 C849 1.419 . S
C848 C846 1.415 . S
C848 C853 1.425 1_565 S
C848 C855 1.409 . S
C849 H841 0.930 . S
C849 C847 1.419 . S
C849 C850 1.362 . S
C850 H842 0.930 . S
C850 C849 1.362 . S
C850 C853 1.409 . S
C851 H843 0.930 . S
C851 C852 1.355 1_545 S
C851 C853 1.415 . S
C852 C851 1.355 1_565 S
C852 C854 1.419 . S
C853 C848 1.425 1_545 S
C853 C850 1.409 . S
C853 C851 1.415 . S
C854 H844 0.930 . S
C854 C852 1.419 . S
C854 C855 1.362 . S
C855 H845 0.930 . S
C855 C848 1.409 . S
C855 C854 1.362 . S
C351 C27 1.884 1_545 S
C356 C76 2.067 . S
C367 C32 1.801 1_565 S
C372 C126 2.031 . S
C383 C162 2.025 . S
C388 C70 1.836 . S
C399 C118 1.883 . S
C404 C169 2.071 . S
C415 C156 1.819 . S
C420 C205 2.025 . S
C431 C248 2.025 . S
C436 C161 1.835 . S
C447 C199 1.810 . S
C452 C33 2.052 . S
C463 C242 1.867 . S
C468 C40 2.073 . S
C479 C255 2.070 . S
C484 C285 1.861 1_545 S
C495 C290 1.886 1_565 S
C500 C212 2.070 . S
C511 C334 2.071 . S
C516 C247 1.883 . S
C527 C341 2.032 . S
C532 C204 1.868 . S
C543 C328 1.893 . S
C548 C119 2.065 . S
C559 C83 2.054 . S
C564 C333 1.893 . S
C575 C291 2.027 . S
C580 C113 1.810 . S
C591 C298 2.071 . S
C596 C75 1.869 . S
C607 C13 1.782 . S
C612 C39 1.788 1_554 S
C623 C82 1.762 . S
C628 C56 1.764 1_565 S
C639 C125 1.844 1_545 S
C644 C99 1.842 . S
C655 C168 1.806 . S
C660 C142 1.800 . S
C671 C211 1.769 1_545 S
C676 C185 1.765 . S
C687 C228 1.812 . S
C692 C254 1.818 1_565 S
C703 C271 1.772 . S
C708 C297 1.777 . S
C719 C340 1.843 . S
C724 C314 1.845 . S
C735 N309 1.110 . S
C740 N3 1.122 . S
C751 N8 1.271 . S
C756 N304 1.267 . S
C767 N46 1.245 . S
C772 N94 1.267 . S
C783 N266 1.271 . S
C788 N132 1.258 . S
C799 N137 1.164 . S
C804 N261 1.130 . S
C815 N218 1.113 . S
C820 N175 1.113 . S
C831 N223 1.213 . S
C836 N180 1.247 . S
C847 N89 1.258 . S
C852 N51 1.271 . S
