# Generated by pormake.
# Topology yfx, (5)-cn, num edge types: 1
# Building blocks:
#     Node 0, Type 0, BuildingBlock: XOMCOT_clean_sbu_0, # of connection points: 5
#     Node 1, Type 0, BuildingBlock: XOMCOT_clean_sbu_0, # of connection points: 5
#     Node 2, Type 0, BuildingBlock: XOMCOT_clean_sbu_0, # of connection points: 5
#     Node 3, Type 0, BuildingBlock: XOMCOT_clean_sbu_0, # of connection points: 5
#     Node 4, Type 0, BuildingBlock: XOMCOT_clean_sbu_0, # of connection points: 5
#     Node 5, Type 0, BuildingBlock: XOMCOT_clean_sbu_0, # of connection points: 5
#     Node 6, Type 0, BuildingBlock: XOMCOT_clean_sbu_0, # of connection points: 5
#     Node 7, Type 0, BuildingBlock: XOMCOT_clean_sbu_0, # of connection points: 5
#     Edge 8, Type (0, 0), BuildingBlock: AJUNOK_clean_linker_0, # of connection points: 2
#     Edge 9, Type (0, 0), BuildingBlock: AJUNOK_clean_linker_0, # of connection points: 2
#     Edge 10, Type (0, 0), BuildingBlock: AJUNOK_clean_linker_0, # of connection points: 2
#     Edge 11, Type (0, 0), BuildingBlock: AJUNOK_clean_linker_0, # of connection points: 2
#     Edge 12, Type (0, 0), BuildingBlock: AJUNOK_clean_linker_0, # of connection points: 2
#     Edge 13, Type (0, 0), BuildingBlock: AJUNOK_clean_linker_0, # of connection points: 2
#     Edge 14, Type (0, 0), BuildingBlock: AJUNOK_clean_linker_0, # of connection points: 2
#     Edge 15, Type (0, 0), BuildingBlock: AJUNOK_clean_linker_0, # of connection points: 2
#     Edge 16, Type (0, 0), BuildingBlock: AJUNOK_clean_linker_0, # of connection points: 2
#     Edge 17, Type (0, 0), BuildingBlock: AJUNOK_clean_linker_0, # of connection points: 2
#     Edge 18, Type (0, 0), BuildingBlock: AJUNOK_clean_linker_0, # of connection points: 2
#     Edge 19, Type (0, 0), BuildingBlock: AJUNOK_clean_linker_0, # of connection points: 2
#     Edge 20, Type (0, 0), BuildingBlock: AJUNOK_clean_linker_0, # of connection points: 2
#     Edge 21, Type (0, 0), BuildingBlock: AJUNOK_clean_linker_0, # of connection points: 2
#     Edge 22, Type (0, 0), BuildingBlock: AJUNOK_clean_linker_0, # of connection points: 2
#     Edge 23, Type (0, 0), BuildingBlock: AJUNOK_clean_linker_0, # of connection points: 2
#     Edge 24, Type (0, 0), BuildingBlock: AJUNOK_clean_linker_0, # of connection points: 2
#     Edge 25, Type (0, 0), BuildingBlock: AJUNOK_clean_linker_0, # of connection points: 2
#     Edge 26, Type (0, 0), BuildingBlock: AJUNOK_clean_linker_0, # of connection points: 2
#     Edge 27, Type (0, 0), BuildingBlock: AJUNOK_clean_linker_0, # of connection points: 2
# Relax obj value: 0.097
# Max RMSD: 0.107
# Mean RMSD: 0.107
data_MOF--net-yfx--node1-XOMCOT_clean_sbu_0--edge1-AJUNOK_clean_linker_0
_symmetry_space_group_name_H-M    P1
_symmetry_Int_Tables_number       1
_symmetry_cell_setting            triclinic
loop_
_symmetry_equiv_pos_as_xyz
'x, y, z'
_cell_length_a     26.800114
_cell_length_b     26.851576
_cell_length_c     22.100142
_cell_angle_alpha  89.514508
_cell_angle_beta   89.77753
_cell_angle_gamma 90.088864
loop_
_atom_site_label
_atom_site_type_symbol
_atom_site_fract_x
_atom_site_fract_y
_atom_site_fract_z
_atom_type_partial_charge
Co0 Co 0.23025 0.38035 0.06385 0.0
C1 C 0.33352 0.33937 0.04896 0.0
C2 C 0.32977 0.40477 0.10424 0.0
C3 C 0.37897 0.39242 0.09656 0.0
N4 N 0.30127 0.372 0.07401 0.0
N5 N 0.38119 0.35147 0.062 0.0
H6 H 0.32279 0.3091 1.01973 0.0
H7 H 0.31569 0.43683 0.12815 0.0
C8 C 0.22746 0.48438 1.00599 0.0
O9 O 0.18857 0.47568 0.9717 0.0
N10 N 0.15879 0.39176 0.05554 0.0
C11 C 0.12381 0.36241 0.03044 0.0
C12 C 0.07889 0.38746 0.03019 0.0
C13 C 0.13404 0.43345 0.07219 0.0
N14 N 0.08554 0.43253 0.05553 0.0
C15 C 0.22351 0.30808 0.97068 0.0
C16 C 0.27254 0.36032 0.88028 0.0
C17 C 0.25987 0.31034 0.87011 0.0
C18 C 0.23571 0.28424 0.91697 0.0
C19 C 0.26145 0.38236 0.9361 0.0
N20 N 0.23633 0.35659 0.98047 0.0
H21 H 0.20596 0.28603 1.00569 0.0
H22 H 0.27562 0.41911 0.94387 0.0
H23 H 0.13001 0.32564 1.01275 0.0
H24 H 0.15186 0.46504 0.09325 0.0
O25 O 0.21884 0.31709 0.10341 0.0
O26 O 0.22439 0.38888 0.15089 0.0
O27 O 0.2452 0.4512 0.04132 0.0
C28 C 0.22049 0.34057 0.15437 0.0
H29 H 0.41088 0.4126 0.11369 0.0
H30 H 0.0441 0.37358 1.01217 0.0
H31 H 0.29201 0.38202 0.84606 0.0
H32 H 0.22776 0.24485 0.91362 0.0
Co33 Co 0.66619 0.22501 0.06009 0.0
C34 C 0.7133 0.32574 0.03961 0.0
C35 C 0.65512 0.32565 0.10658 0.0
C36 C 0.67267 0.37343 0.09992 0.0
N37 N 0.6801 0.29567 0.06832 0.0
N38 N 0.70917 0.37328 0.05789 0.0
H39 H 0.73882 0.31438 1.00477 0.0
H40 H 0.62514 0.3137 0.13624 0.0
C41 C 0.57783 0.27952 1.01034 0.0
O42 O 0.60906 0.30991 0.98264 0.0
N43 N 0.65131 0.15486 0.05381 0.0
C44 C 0.68355 0.11752 0.04334 0.0
C45 C 0.65725 0.07331 0.04216 0.0
C46 C 0.60612 0.13301 0.0591 0.0
N47 N 0.60837 0.08319 0.05141 0.0
C48 C 0.7395 0.22682 0.96686 0.0
C49 C 0.67703 0.23638 0.86859 0.0
C50 C 0.72844 0.24487 0.86065 0.0
C51 C 0.75971 0.23773 0.91046 0.0
C52 C 0.65815 0.22562 0.92674 0.0
N53 N 0.68907 0.22562 0.97584 0.0
H54 H 0.76505 0.22423 1.00416 0.0
H55 H 0.61873 0.21863 0.93201 0.0
H56 H 0.72335 0.12207 0.03721 0.0
H57 H 0.57211 0.15312 0.06784 0.0
O58 O 0.72915 0.21053 0.09789 0.0
O59 O 0.65873 0.22132 0.14785 0.0
O60 O 0.5945 0.24159 0.03921 0.0
C61 C 0.70694 0.21514 0.1496 0.0
H62 H 0.65934 0.40593 0.12367 0.0
H63 H 0.67328 0.03675 0.03603 0.0
H64 H 0.65171 0.23842 0.83061 0.0
H65 H 0.79969 0.24306 0.90692 0.0
Co66 Co 0.80872 0.65766 0.05939 0.0
C67 C 0.70931 0.70448 0.0373 0.0
C68 C 0.70541 0.63655 0.08918 0.0
C69 C 0.65778 0.65283 0.07879 0.0
N70 N 0.7377 0.66878 0.06329 0.0
N71 N 0.6602 0.69496 0.04525 0.0
H72 H 0.72396 0.73561 1.01138 0.0
H73 H 0.71591 0.60305 0.11348 0.0
C74 C 0.81085 0.55462 1.00182 0.0
O75 O 0.84988 0.56378 0.96743 0.0
N76 N 0.88012 0.64345 0.05684 0.0
C77 C 0.91788 0.67158 0.03466 0.0
C78 C 0.96155 0.64436 0.03723 0.0
C79 C 0.90189 0.60014 0.07425 0.0
N80 N 0.95131 0.59959 0.06217 0.0
C81 C 0.8237 0.72998 0.96542 0.0
C82 C 0.76917 0.68223 0.87739 0.0
C83 C 0.78254 0.73223 0.86779 0.0
C84 C 0.81139 0.75554 0.91219 0.0
C85 C 0.78107 0.65841 0.93202 0.0
N86 N 0.80801 0.68219 0.97569 0.0
H87 H 0.84252 0.75041 1.00038 0.0
H88 H 0.76474 0.62238 0.94029 0.0
H89 H 0.91436 0.70863 1.01609 0.0
H90 H 0.88158 0.56856 0.09265 0.0
O91 O 0.8201 0.72011 0.1009 0.0
O92 O 0.80832 0.64711 0.14601 0.0
O93 O 0.79276 0.5876 0.03654 0.0
C94 C 0.81372 0.69504 0.15092 0.0
H95 H 0.62395 0.63502 0.09493 0.0
H96 H 0.99759 0.65567 1.01954 0.0
H97 H 0.74801 0.66196 0.84403 0.0
H98 H 0.82222 0.79425 0.90755 0.0
Co99 Co 0.37949 0.80859 0.05577 0.0
C100 C 0.33068 0.71015 0.03763 0.0
C101 C 0.39397 0.70685 0.09701 0.0
C102 C 0.37636 0.65941 0.08901 0.0
N103 N 0.36566 0.73853 0.06452 0.0
N104 N 0.33712 0.66152 0.05107 0.0
H105 H 0.30236 0.72426 1.00729 0.0
H106 H 0.42598 0.71754 0.12362 0.0
C107 C 0.48292 0.80518 0.99822 0.0
O108 O 0.47349 0.84143 0.95977 0.0
N109 N 0.39558 0.87912 0.04871 0.0
C110 C 0.36623 0.91741 0.03122 0.0
C111 C 0.39381 0.96094 0.03255 0.0
C112 C 0.43995 0.90027 0.06224 0.0
N113 N 0.44018 0.94976 0.05142 0.0
C114 C 0.3102 0.82251 0.95991 0.0
C115 C 0.35889 0.76719 0.87324 0.0
C116 C 0.31 0.78317 0.8614 0.0
C117 C 0.28566 0.81063 0.9065 0.0
C118 C 0.38099 0.7772 0.92917 0.0
N119 N 0.35715 0.80544 0.97164 0.0
H120 H 0.2893 0.8421 0.99387 0.0
H121 H 0.41571 0.75909 0.93899 0.0
H122 H 0.32763 0.91442 1.01814 0.0
H123 H 0.47187 0.87991 0.0791 0.0
O124 O 0.3162 0.82317 0.09376 0.0
O125 O 0.38711 0.81245 0.14284 0.0
O126 O 0.45002 0.78964 0.03565 0.0
C127 C 0.33906 0.81929 0.14525 0.0
H128 H 0.39146 0.62585 0.10927 0.0
H129 H 0.38129 0.99767 1.01895 0.0
H130 H 0.37946 0.74533 0.84069 0.0
H131 H 0.24683 0.82096 0.90272 0.0
Co132 Co 0.73041 0.87857 0.55835 0.0
C133 C 0.82708 0.82588 0.54298 0.0
C134 C 0.83465 0.89621 0.58798 0.0
C135 C 0.88099 0.87481 0.58353 0.0
N136 N 0.80097 0.86558 0.56265 0.0
N137 N 0.87601 0.83083 0.55526 0.0
H138 H 0.81084 0.79368 0.52154 0.0
H139 H 0.82595 0.93153 0.60866 0.0
C140 C 0.72755 0.98409 0.50402 0.0
O141 O 0.68348 0.97931 0.47901 0.0
N142 N 0.6593 0.8931 0.55497 0.0
C143 C 0.62365 0.86876 0.52411 0.0
C144 C 0.57949 0.89451 0.52906 0.0
C145 C 0.63571 0.93264 0.57973 0.0
N146 N 0.58693 0.93483 0.56396 0.0
C147 C 0.71869 0.80419 0.46834 0.0
C148 C 0.76489 0.85447 0.37415 0.0
C149 C 0.75379 0.80374 0.36704 0.0
C150 C 0.73041 0.7788 0.41545 0.0
C151 C 0.75418 0.87818 0.42897 0.0
N152 N 0.73121 0.85311 0.47557 0.0
H153 H 0.70207 0.7832 0.50502 0.0
H154 H 0.76723 0.91575 0.43423 0.0
H155 H 0.62913 0.83572 0.49759 0.0
H156 H 0.65463 0.96065 0.60613 0.0
O157 O 0.71733 0.81695 0.60212 0.0
O158 O 0.73061 0.89001 0.64475 0.0
O159 O 0.74798 0.94827 0.53285 0.0
C160 C 0.72368 0.84234 0.65124 0.0
H161 H 0.91575 0.89017 0.59986 0.0
H162 H 0.54543 0.88573 0.50527 0.0
H163 H 0.78316 0.87548 0.33834 0.0
H164 H 0.72312 0.73919 0.4141 0.0
Co165 Co 0.1618 0.72942 0.55513 0.0
C166 C 0.21436 0.82629 0.54112 0.0
C167 C 0.14087 0.8343 0.57938 0.0
C168 C 0.16235 0.88067 0.57461 0.0
N169 N 0.17354 0.80028 0.55876 0.0
N170 N 0.20823 0.87545 0.55041 0.0
H171 H 0.24793 0.80971 0.52292 0.0
H172 H 0.1043 0.82589 0.59768 0.0
C173 C 0.05571 0.72572 0.50523 0.0
O174 O 0.06494 0.69155 0.46453 0.0
N175 N 0.1481 0.65803 0.55207 0.0
C176 C 0.17425 0.62175 0.52459 0.0
C177 C 0.14779 0.57784 0.52853 0.0
C178 C 0.10664 0.63497 0.57376 0.0
N179 N 0.10512 0.58601 0.55948 0.0
C180 C 0.23012 0.71663 0.45744 0.0
C181 C 0.18112 0.77778 0.37608 0.0
C182 C 0.23019 0.76315 0.36323 0.0
C183 C 0.25391 0.73062 0.40368 0.0
C184 C 0.15832 0.7624 0.43022 0.0
N185 N 0.18293 0.73248 0.47065 0.0
H186 H 0.25152 0.69614 0.49046 0.0
H187 H 0.12279 0.77862 0.44163 0.0
H188 H 0.2093 0.62622 0.50133 0.0
H189 H 0.07727 0.65409 0.59787 0.0
O190 O 0.22595 0.71801 0.5936 0.0
O191 O 0.15408 0.72807 0.64173 0.0
O192 O 0.0903 0.74401 0.53747 0.0
C193 C 0.20221 0.7232 0.64466 0.0
H194 H 0.14587 0.9156 0.58838 0.0
H195 H 0.15809 0.54333 0.50694 0.0
H196 H 0.16162 0.80337 0.34636 0.0
H197 H 0.29151 0.71764 0.39516 0.0
Co198 Co 0.31045 0.16214 0.56319 0.0
C199 C 0.21375 0.2148 0.54993 0.0
C200 C 0.20556 0.142 0.59029 0.0
C201 C 0.15919 0.16338 0.58586 0.0
N202 N 0.23967 0.1743 0.56815 0.0
N203 N 0.16452 0.20886 0.56043 0.0
H204 H 0.2304 0.2479 0.53016 0.0
H205 H 0.21393 0.10566 0.6091 0.0
C206 C 0.31329 0.05751 0.51088 0.0
O207 O 0.3468 0.0686 0.46938 0.0
N208 N 0.38167 0.14753 0.55902 0.0
C209 C 0.41841 0.17071 0.52778 0.0
C210 C 0.46115 0.14237 0.53125 0.0
C211 C 0.4033 0.10609 0.58226 0.0
N212 N 0.45155 0.10122 0.56479 0.0
C213 C 0.32462 0.23031 0.4651 0.0
C214 C 0.26097 0.18345 0.38567 0.0
C215 C 0.27699 0.23205 0.37234 0.0
C216 C 0.31066 0.25471 0.41182 0.0
C217 C 0.27626 0.16006 0.4393 0.0
N218 N 0.30748 0.18359 0.47876 0.0
H219 H 0.34636 0.25083 0.49745 0.0
H220 H 0.25894 0.12508 0.4513 0.0
H221 H 0.41492 0.20472 0.5021 0.0
H222 H 0.38328 0.07937 0.61003 0.0
O223 O 0.32271 0.22608 0.60109 0.0
O224 O 0.31181 0.15455 0.64997 0.0
O225 O 0.29524 0.09075 0.54539 0.0
C226 C 0.31728 0.20258 0.65244 0.0
H227 H 0.12413 0.14695 0.60025 0.0
H228 H 0.49592 0.15025 0.50798 0.0
H229 H 0.23443 0.16478 0.35676 0.0
H230 H 0.32469 0.29191 0.40287 0.0
Co231 Co 0.87643 0.31006 0.55919 0.0
C232 C 0.82926 0.21068 0.54072 0.0
C233 C 0.89394 0.20761 0.59788 0.0
C234 C 0.87676 0.15998 0.58959 0.0
N235 N 0.86454 0.23929 0.56684 0.0
N236 N 0.83663 0.16192 0.55298 0.0
H237 H 0.80007 0.22486 0.51166 0.0
H238 H 0.9262 0.21845 0.62397 0.0
C239 C 0.98336 0.31242 0.51172 0.0
O240 O 0.97416 0.34533 0.46892 0.0
N241 N 0.89104 0.38119 0.55309 0.0
C242 C 0.8691 0.41718 0.51964 0.0
C243 C 0.89757 0.45989 0.5225 0.0
C244 C 0.9318 0.4033 0.57706 0.0
N245 N 0.93755 0.45106 0.55786 0.0
C246 C 0.81201 0.32249 0.45807 0.0
C247 C 0.86224 0.25864 0.38188 0.0
C248 C 0.81448 0.27515 0.3655 0.0
C249 C 0.78993 0.30844 0.40378 0.0
C250 C 0.88341 0.27423 0.43633 0.0
N251 N 0.85819 0.30557 0.47413 0.0
H252 H 0.7901 0.34425 0.48916 0.0
H253 H 0.91781 0.257 0.45038 0.0
H254 H 0.83595 0.41316 0.49284 0.0
H255 H 0.95746 0.38395 0.60653 0.0
O256 O 0.81091 0.3221 0.59383 0.0
O257 O 0.88099 0.31331 0.64566 0.0
O258 O 0.94852 0.2948 0.54492 0.0
C259 C 0.83266 0.31721 0.6461 0.0
H260 H 0.89269 0.12642 0.60885 0.0
H261 H 0.89066 0.49405 0.49757 0.0
H262 H 0.88189 0.2315 0.35482 0.0
H263 H 0.75294 0.32205 0.39309 0.0
C264 C 0.50962 0.34185 0.99736 0.0
C265 C 0.52427 0.29346 1.01486 0.0
C266 C 0.46171 0.35963 1.01011 0.0
C267 C 0.42629 0.32952 0.03972 0.0
H268 H 0.53601 0.36731 0.9764 0.0
H269 H 0.4527 0.39789 0.99877 0.0
S270 S 0.44289 0.19881 0.08953 0.0
N271 N 0.49728 0.2145 0.05949 0.0
N272 N 0.40695 0.24844 0.08249 0.0
C273 C 0.43891 0.28028 0.05403 0.0
C274 C 0.488 0.26212 0.04183 0.0
C275 C 0.70885 0.46079 1.02549 0.0
C276 C 0.73512 0.4162 0.03448 0.0
C277 C 0.73372 0.50475 1.00989 0.0
C278 C 0.78587 0.50582 1.00267 0.0
H279 H 0.66884 0.46194 0.03233 0.0
H280 H 0.71214 0.53874 1.00611 0.0
S281 S 0.8717 0.39853 1.01774 0.0
N282 N 0.81583 0.37493 0.03198 0.0
N283 N 0.86283 0.45822 1.00254 0.0
C284 C 0.81243 0.46102 1.00798 0.0
C285 C 0.78696 0.41597 1.02401 0.0
C286 C 0.61884 0.77538 1.02358 0.0
C287 C 0.61842 0.72296 1.02261 0.0
C288 C 0.57538 0.80275 1.01094 0.0
C289 C 0.53057 0.77834 0.99682 0.0
H290 H 0.65201 0.7951 0.03775 0.0
H291 H 0.57601 0.84276 1.01631 0.0
S292 S 0.51211 0.64254 0.97846 0.0
N293 N 0.57122 0.64843 0.99798 0.0
N294 N 0.48949 0.69965 0.97649 0.0
C295 C 0.53065 0.72633 0.99175 0.0
C296 C 0.57468 0.69865 1.00395 0.0
C297 C 0.22982 0.57719 1.01358 0.0
C298 C 0.25453 0.53197 1.00287 0.0
C299 C 0.25712 0.62067 1.02613 0.0
C300 C 0.30962 0.61977 1.0283 0.0
H301 H 0.18947 0.57817 1.01644 0.0
H302 H 0.23717 0.65429 0.03785 0.0
S303 S 0.39129 0.51277 0.99189 0.0
N304 N 0.33403 0.49043 0.98742 0.0
N305 N 0.38494 0.57205 1.00948 0.0
C306 C 0.33441 0.57577 1.01247 0.0
C307 C 0.3069 0.53181 1.00015 0.0
C308 C 0.97104 0.75509 0.47154 0.0
C309 C 1.00461 0.74311 0.5182 0.0
C310 C 0.92679 0.78139 0.48418 0.0
C311 C 0.9154 0.79618 0.5436 0.0
H312 H 0.98044 0.74695 0.42496 0.0
H313 H 0.90294 0.79282 0.44715 0.0
S314 S 0.98623 0.76589 0.68231 0.0
N315 N 1.01966 0.74198 0.62683 0.0
N316 N 0.93719 0.79158 0.64967 0.0
C317 C 0.94666 0.781 0.59071 0.0
C318 C 0.99113 0.75432 0.5782 0.0
C319 C 0.28422 0.97442 0.47217 0.0
C320 C 0.29573 1.0059 0.52081 0.0
C321 C 0.25824 0.92938 0.48219 0.0
C322 C 0.24354 0.91492 0.54096 0.0
H323 H 0.29245 0.98607 0.42616 0.0
H324 H 0.24696 0.9073 0.44379 0.0
S325 S 0.27295 0.97927 0.68368 0.0
N326 N 0.29654 1.01568 0.63021 0.0
N327 N 0.24782 0.93166 0.64813 0.0
C328 C 0.25839 0.94405 0.58979 0.0
C329 C 0.28455 0.98942 0.57993 0.0
C330 C 0.11352 0.2593 0.49006 0.0
C331 C 0.12493 0.24351 0.54929 0.0
C332 C 0.06874 0.28485 0.47778 0.0
C333 C 0.03452 0.29498 0.52456 0.0
H334 H 0.13782 0.24919 0.45289 0.0
H335 H 0.05953 0.29393 0.43131 0.0
S336 S 0.05283 0.26951 0.6884 0.0
N337 N 0.10251 0.2455 0.65535 0.0
N338 N 1.01905 0.29371 0.63324 0.0
C339 C 0.04799 0.28287 0.58441 0.0
C340 C 0.09306 0.257 0.59654 0.0
C341 C 0.75664 0.1203 0.52928 0.0
C342 C 0.80917 0.11999 0.53026 0.0
C343 C 0.72959 0.07682 0.51581 0.0
C344 C 0.75447 0.03204 0.5029 0.0
H345 H 0.7365 0.15345 0.54238 0.0
H346 H 0.68927 0.07747 0.51945 0.0
S347 S 0.8912 1.01475 0.48777 0.0
N348 N 0.88459 0.07339 0.50813 0.0
N349 N 0.83411 0.99192 0.48364 0.0
C350 C 0.8068 0.03258 0.49898 0.0
C351 C 0.8341 0.07652 0.5125 0.0
C352 C 0.25641 0.23607 0.26187 0.0
C353 C 0.25768 0.25947 0.31846 0.0
C354 C 0.24158 0.26205 0.20971 0.0
C355 C 0.22762 0.31261 0.21188 0.0
H356 H 0.26863 0.19783 0.2574 0.0
H357 H 0.2432 0.24272 0.16693 0.0
S358 S 0.2174 0.38895 0.35041 0.0
N359 N 0.23799 0.33446 0.37482 0.0
N360 N 0.21151 0.38369 0.27637 0.0
C361 C 0.22639 0.33581 0.26861 0.0
C362 C 0.24111 0.30918 0.32193 0.0
C363 C 0.7126 0.22563 0.26205 0.0
C364 C 0.73637 0.22381 0.20533 0.0
C365 C 0.73845 0.24108 0.31378 0.0
C366 C 0.78892 0.25591 0.31069 0.0
H367 H 0.67345 0.21612 0.26634 0.0
H368 H 0.71849 0.24199 0.35647 0.0
S369 S 0.86825 0.25881 0.17284 0.0
N370 N 0.81387 0.2377 0.14941 0.0
N371 N 0.86152 0.26801 0.24613 0.0
C372 C 0.81338 0.25337 0.25451 0.0
C373 C 0.78734 0.23706 0.202 0.0
C374 C 0.82965 0.75963 0.23026 0.0
C375 C 0.80035 0.72065 0.20767 0.0
C376 C 0.81452 0.78631 0.28175 0.0
C377 C 0.7686 0.77619 0.31111 0.0
H378 H 0.86465 0.76922 0.20838 0.0
H379 H 0.83928 0.81476 0.29886 0.0
S380 S 0.67523 0.68207 0.26303 0.0
N381 N 0.72257 0.67478 0.21607 0.0
N382 N 0.69185 0.72753 0.30851 0.0
C383 C 0.73821 0.73846 0.2869 0.0
C384 C 0.75462 0.71012 0.23629 0.0
C385 C 0.2601 0.79777 0.19983 0.0
C386 C 0.31047 0.81276 0.20232 0.0
C387 C 0.23403 0.78301 0.25215 0.0
C388 C 0.25721 0.7829 0.3091 0.0
H389 H 0.24118 0.79509 0.15675 0.0
H390 H 0.19603 0.76981 0.24759 0.0
S391 S 0.38582 0.82673 0.34151 0.0
N392 N 0.3809 0.83144 0.26721 0.0
N393 N 0.33151 0.80522 0.36585 0.0
C394 C 0.3066 0.80077 0.31272 0.0
C395 C 0.33329 0.81533 0.25931 0.0
C396 C 0.78288 0.82295 0.73397 0.0
C397 C 0.73528 0.81679 0.70876 0.0
C398 C 0.79784 0.79519 0.78474 0.0
C399 C 0.76543 0.76075 0.81317 0.0
H400 H 0.80949 0.84821 0.71298 0.0
H401 H 0.83554 0.80021 0.8011 0.0
S402 S 0.63453 0.73504 0.76717 0.0
N403 N 0.65507 0.7755 0.71611 0.0
N404 N 0.6814 0.72556 0.81418 0.0
C405 C 0.71689 0.75557 0.78913 0.0
C406 C 0.70227 0.78302 0.73631 0.0
C407 C 0.26645 0.70714 0.72508 0.0
C408 C 0.22885 0.73718 0.70029 0.0
C409 C 0.2925 0.72212 0.77705 0.0
C410 C 0.2834 0.76871 0.80452 0.0
H411 H 0.27502 0.67149 0.70497 0.0
H412 H 0.3194 0.69648 0.79615 0.0
S413 S 0.19193 0.8632 0.75077 0.0
N414 N 0.1844 0.8156 0.70508 0.0
N415 N 0.23693 0.84659 0.79737 0.0
C416 C 0.2472 0.79986 0.77768 0.0
C417 C 0.21915 0.78342 0.72694 0.0
C418 C 0.33425 0.26741 0.73148 0.0
C419 C 0.30385 0.2296 0.7081 0.0
C420 C 0.31978 0.2938 0.78352 0.0
C421 C 0.27357 0.28446 0.81262 0.0
H422 H 0.36975 0.27593 0.71017 0.0
H423 H 0.34541 0.32106 0.80155 0.0
S424 S 0.17748 0.19399 0.76211 0.0
N425 N 0.22467 0.18605 0.71511 0.0
N426 N 0.19521 0.23848 0.80835 0.0
C427 C 0.24191 0.24839 0.78709 0.0
C428 C 0.2576 0.22031 0.73603 0.0
C429 C 0.79719 0.24194 0.78423 0.0
C430 C 0.75088 0.26173 0.80213 0.0
C431 C 0.82359 0.26166 0.73503 0.0
C432 C 0.80433 0.30115 0.70023 0.0
H433 H 0.81373 0.21121 0.80904 0.0
H434 H 0.85913 0.24497 0.7235 0.0
S435 S 0.68384 0.36519 0.72515 0.0
N436 N 0.68658 0.32326 0.78022 0.0
N437 N 0.73531 0.35815 0.6847 0.0
C438 C 0.75724 0.32014 0.71553 0.0
C439 C 0.73067 0.30087 0.76705 0.0
C440 C 1.01652 0.54696 0.10935 0.0
C441 C 0.98347 0.55665 0.06149 0.0
C442 C 0.04951 0.5061 0.10749 0.0
C443 C 0.05027 0.47338 0.05785 0.0
H444 H 1.01705 0.57138 0.14808 0.0
H445 H 0.0745 0.49993 0.14517 0.0
S446 S 0.97321 0.48583 0.91918 0.0
N447 N 0.95507 0.53246 0.96222 0.0
N448 N 1.01633 0.45586 0.95825 0.0
C449 C 1.01738 0.48328 1.0096 0.0
C450 C 0.98423 0.5249 1.01153 0.0
C451 C 0.52387 0.05823 0.0872 0.0
C452 C 0.56676 0.04866 0.05182 0.0
C453 C 0.48252 0.02589 0.08694 0.0
C454 C 0.4828 0.98247 0.052 0.0
H455 H 0.5223 0.09082 0.11562 0.0
H456 H 0.45029 0.03452 0.11459 0.0
S457 S 0.58246 0.94267 0.94652 0.0
N458 N 0.60433 0.99419 0.97692 0.0
N459 N 0.52736 0.93318 0.97824 0.0
C460 C 0.52482 0.97269 1.01603 0.0
C461 C 0.56663 1.00577 1.01554 0.0
C462 C 0.53677 0.06584 0.57255 0.0
C463 C 0.4846 0.05882 0.57229 0.0
C464 C 0.56995 0.02532 0.57261 0.0
C465 C 0.55247 0.97584 0.57232 0.0
H466 H 0.5522 0.10312 0.57138 0.0
H467 H 0.60957 0.03296 0.57028 0.0
S468 S 0.41957 0.93641 0.57664 0.0
N469 N 0.41732 0.99779 0.57436 0.0
N470 N 0.47945 0.9221 0.57701 0.0
C471 C 0.50047 0.96817 0.57499 0.0
C472 C 0.46664 1.00944 0.57449 0.0
C473 C 1.01404 0.56927 0.56368 0.0
C474 C 0.06351 0.55177 0.56652 0.0
C475 C 0.97327 0.53624 0.56319 0.0
C476 C 0.97997 0.48415 0.56558 0.0
H477 H 1.00671 0.60878 0.55937 0.0
H478 H 0.93612 0.55168 0.55971 0.0
S479 S 0.10195 0.41916 0.57841 0.0
N480 N 0.11663 0.47888 0.57684 0.0
N481 N 0.04059 0.41698 0.57335 0.0
C482 C 0.02923 0.46622 0.57075 0.0
C483 C 0.07074 0.49991 0.5717 0.0
loop_
_geom_bond_atom_site_label_1
_geom_bond_atom_site_label_2
_geom_bond_distance
_geom_bond_site_symmetry_2
_ccdc_geom_bond_type
Co0 N4 2.148 . S
Co0 N10 2.128 . S
Co0 N20 2.194 1_554 S
Co0 O25 2.351 . S
Co0 O26 2.155 . S
Co0 O27 2.096 . S
C1 N4 1.301 . S
C1 N5 1.328 . S
C1 H6 0.930 . S
C2 C3 1.333 . S
C2 N4 1.317 . S
C2 H7 0.930 . S
C3 C2 1.333 . S
C3 N5 1.350 . S
C3 H29 0.931 . S
N4 Co0 2.148 . S
N4 C1 1.301 . S
N4 C2 1.317 . S
N5 C1 1.328 . S
N5 C3 1.350 . S
H6 C1 0.930 . S
H7 C2 0.930 . S
C8 O9 1.224 1_554 S
C8 O27 1.247 . S
O9 C8 1.224 1_556 S
N10 Co0 2.128 . S
N10 C11 1.355 . S
N10 C13 1.311 . S
C11 N10 1.355 . S
C11 C12 1.363 1_554 S
C11 H23 0.929 1_554 S
C12 C11 1.363 1_556 S
C12 N14 1.375 1_556 S
C12 H30 0.931 . S
C13 N10 1.311 . S
C13 N14 1.347 . S
C13 H24 0.929 . S
N14 C12 1.375 1_554 S
N14 C13 1.347 . S
C15 C18 1.365 . S
C15 N20 1.328 . S
C15 H21 0.929 . S
C16 C17 1.362 . S
C16 C19 1.378 . S
C16 H31 0.929 . S
C17 C16 1.362 . S
C17 C18 1.366 . S
C18 C15 1.365 . S
C18 C17 1.366 . S
C18 H32 0.930 . S
C19 C16 1.378 . S
C19 N20 1.315 . S
C19 H22 0.930 . S
N20 Co0 2.194 1_556 S
N20 C15 1.328 . S
N20 C19 1.315 . S
H21 C15 0.929 . S
H22 C19 0.930 . S
H23 C11 0.929 1_556 S
H24 C13 0.929 . S
O25 Co0 2.351 . S
O25 C28 1.244 . S
O26 Co0 2.155 . S
O26 C28 1.240 . S
O27 Co0 2.096 . S
O27 C8 1.247 . S
C28 O25 1.244 . S
C28 O26 1.240 . S
H29 C3 0.931 . S
H30 C12 0.931 . S
H31 C16 0.929 . S
H32 C18 0.930 . S
Co33 N37 2.148 . S
Co33 N43 2.128 . S
Co33 N53 2.194 1_554 S
Co33 O58 2.351 . S
Co33 O59 2.155 . S
Co33 O60 2.096 . S
C34 N37 1.301 . S
C34 N38 1.328 . S
C34 H39 0.930 . S
C35 C36 1.333 . S
C35 N37 1.317 . S
C35 H40 0.930 . S
C36 C35 1.333 . S
C36 N38 1.350 . S
C36 H62 0.931 . S
N37 Co33 2.148 . S
N37 C34 1.301 . S
N37 C35 1.317 . S
N38 C34 1.328 . S
N38 C36 1.350 . S
H39 C34 0.930 . S
H40 C35 0.930 . S
C41 O42 1.224 1_554 S
C41 O60 1.247 . S
O42 C41 1.224 1_556 S
N43 Co33 2.128 . S
N43 C44 1.355 . S
N43 C46 1.311 . S
C44 N43 1.355 . S
C44 C45 1.363 1_554 S
C44 H56 0.929 1_554 S
C45 C44 1.363 1_556 S
C45 N47 1.375 1_556 S
C45 H63 0.931 . S
C46 N43 1.311 . S
C46 N47 1.347 . S
C46 H57 0.929 . S
N47 C45 1.375 1_554 S
N47 C46 1.347 . S
C48 C51 1.365 . S
C48 N53 1.328 . S
C48 H54 0.929 . S
C49 C50 1.362 . S
C49 C52 1.378 . S
C49 H64 0.929 . S
C50 C49 1.362 . S
C50 C51 1.366 . S
C51 C48 1.365 . S
C51 C50 1.366 . S
C51 H65 0.930 . S
C52 C49 1.378 . S
C52 N53 1.315 . S
C52 H55 0.930 . S
N53 Co33 2.194 1_556 S
N53 C48 1.328 . S
N53 C52 1.315 . S
H54 C48 0.929 . S
H55 C52 0.930 . S
H56 C44 0.929 1_556 S
H57 C46 0.929 . S
O58 Co33 2.351 . S
O58 C61 1.244 . S
O59 Co33 2.155 . S
O59 C61 1.240 . S
O60 Co33 2.096 . S
O60 C41 1.247 . S
C61 O58 1.244 . S
C61 O59 1.240 . S
H62 C36 0.931 . S
H63 C45 0.931 . S
H64 C49 0.929 . S
H65 C51 0.930 . S
Co66 N70 2.148 . S
Co66 N76 2.128 . S
Co66 N86 2.194 1_554 S
Co66 O91 2.351 . S
Co66 O92 2.155 . S
Co66 O93 2.096 . S
C67 N70 1.301 . S
C67 N71 1.328 . S
C67 H72 0.930 . S
C68 C69 1.333 . S
C68 N70 1.317 . S
C68 H73 0.930 . S
C69 C68 1.333 . S
C69 N71 1.350 . S
C69 H95 0.931 . S
N70 Co66 2.148 . S
N70 C67 1.301 . S
N70 C68 1.317 . S
N71 C67 1.328 . S
N71 C69 1.350 . S
H72 C67 0.930 . S
H73 C68 0.930 . S
C74 O75 1.224 1_554 S
C74 O93 1.247 . S
O75 C74 1.224 1_556 S
N76 Co66 2.128 . S
N76 C77 1.355 . S
N76 C79 1.311 . S
C77 N76 1.355 . S
C77 C78 1.363 1_554 S
C77 H89 0.929 1_554 S
C78 C77 1.363 1_556 S
C78 N80 1.375 1_556 S
C78 H96 0.931 . S
C79 N76 1.311 . S
C79 N80 1.347 . S
C79 H90 0.929 . S
N80 C78 1.375 1_554 S
N80 C79 1.347 . S
C81 C84 1.365 . S
C81 N86 1.328 . S
C81 H87 0.929 . S
C82 C83 1.362 . S
C82 C85 1.378 . S
C82 H97 0.929 . S
C83 C82 1.362 . S
C83 C84 1.366 . S
C84 C81 1.365 . S
C84 C83 1.366 . S
C84 H98 0.930 . S
C85 C82 1.378 . S
C85 N86 1.315 . S
C85 H88 0.930 . S
N86 Co66 2.194 1_556 S
N86 C81 1.328 . S
N86 C85 1.315 . S
H87 C81 0.929 . S
H88 C85 0.930 . S
H89 C77 0.929 1_556 S
H90 C79 0.929 . S
O91 Co66 2.351 . S
O91 C94 1.244 . S
O92 Co66 2.155 . S
O92 C94 1.240 . S
O93 Co66 2.096 . S
O93 C74 1.247 . S
C94 O91 1.244 . S
C94 O92 1.240 . S
H95 C69 0.931 . S
H96 C78 0.931 . S
H97 C82 0.929 . S
H98 C84 0.930 . S
Co99 N103 2.148 . S
Co99 N109 2.128 . S
Co99 N119 2.194 1_554 S
Co99 O124 2.351 . S
Co99 O125 2.155 . S
Co99 O126 2.096 . S
C100 N103 1.301 . S
C100 N104 1.328 . S
C100 H105 0.930 . S
C101 C102 1.333 . S
C101 N103 1.317 . S
C101 H106 0.930 . S
C102 C101 1.333 . S
C102 N104 1.350 . S
C102 H128 0.931 . S
N103 Co99 2.148 . S
N103 C100 1.301 . S
N103 C101 1.317 . S
N104 C100 1.328 . S
N104 C102 1.350 . S
H105 C100 0.930 . S
H106 C101 0.930 . S
C107 O108 1.224 1_554 S
C107 O126 1.247 . S
O108 C107 1.224 1_556 S
N109 Co99 2.128 . S
N109 C110 1.355 . S
N109 C112 1.311 . S
C110 N109 1.355 . S
C110 C111 1.363 1_554 S
C110 H122 0.929 1_554 S
C111 C110 1.363 1_556 S
C111 N113 1.375 1_556 S
C111 H129 0.931 . S
C112 N109 1.311 . S
C112 N113 1.347 . S
C112 H123 0.929 . S
N113 C111 1.375 1_554 S
N113 C112 1.347 . S
C114 C117 1.365 . S
C114 N119 1.328 . S
C114 H120 0.929 . S
C115 C116 1.362 . S
C115 C118 1.378 . S
C115 H130 0.929 . S
C116 C115 1.362 . S
C116 C117 1.366 . S
C117 C114 1.365 . S
C117 C116 1.366 . S
C117 H131 0.930 . S
C118 C115 1.378 . S
C118 N119 1.315 . S
C118 H121 0.930 . S
N119 Co99 2.194 1_556 S
N119 C114 1.328 . S
N119 C118 1.315 . S
H120 C114 0.929 . S
H121 C118 0.930 . S
H122 C110 0.929 1_556 S
H123 C112 0.929 . S
O124 Co99 2.351 . S
O124 C127 1.244 . S
O125 Co99 2.155 . S
O125 C127 1.240 . S
O126 Co99 2.096 . S
O126 C107 1.247 . S
C127 O124 1.244 . S
C127 O125 1.240 . S
H128 C102 0.931 . S
H129 C111 0.931 . S
H130 C115 0.929 . S
H131 C117 0.930 . S
Co132 N136 2.148 . S
Co132 N142 2.128 . S
Co132 N152 2.194 . S
Co132 O157 2.351 . S
Co132 O158 2.155 . S
Co132 O159 2.096 . S
C133 N136 1.301 . S
C133 N137 1.328 . S
C133 H138 0.930 . S
C134 C135 1.333 . S
C134 N136 1.317 . S
C134 H139 0.930 . S
C135 C134 1.333 . S
C135 N137 1.350 . S
C135 H161 0.931 . S
N136 Co132 2.148 . S
N136 C133 1.301 . S
N136 C134 1.317 . S
N137 C133 1.328 . S
N137 C135 1.350 . S
H138 C133 0.930 . S
H139 C134 0.930 . S
C140 O141 1.224 . S
C140 O159 1.247 . S
O141 C140 1.224 . S
N142 Co132 2.128 . S
N142 C143 1.355 . S
N142 C145 1.311 . S
C143 N142 1.355 . S
C143 C144 1.363 . S
C143 H155 0.929 . S
C144 C143 1.363 . S
C144 N146 1.375 . S
C144 H162 0.931 . S
C145 N142 1.311 . S
C145 N146 1.347 . S
C145 H156 0.929 . S
N146 C144 1.375 . S
N146 C145 1.347 . S
C147 C150 1.365 . S
C147 N152 1.328 . S
C147 H153 0.929 . S
C148 C149 1.362 . S
C148 C151 1.378 . S
C148 H163 0.929 . S
C149 C148 1.362 . S
C149 C150 1.366 . S
C150 C147 1.365 . S
C150 C149 1.366 . S
C150 H164 0.930 . S
C151 C148 1.378 . S
C151 N152 1.315 . S
C151 H154 0.930 . S
N152 Co132 2.194 . S
N152 C147 1.328 . S
N152 C151 1.315 . S
H153 C147 0.929 . S
H154 C151 0.930 . S
H155 C143 0.929 . S
H156 C145 0.929 . S
O157 Co132 2.351 . S
O157 C160 1.244 . S
O158 Co132 2.155 . S
O158 C160 1.240 . S
O159 Co132 2.096 . S
O159 C140 1.247 . S
C160 O157 1.244 . S
C160 O158 1.240 . S
H161 C135 0.931 . S
H162 C144 0.931 . S
H163 C148 0.929 . S
H164 C150 0.930 . S
Co165 N169 2.148 . S
Co165 N175 2.128 . S
Co165 N185 2.194 . S
Co165 O190 2.351 . S
Co165 O191 2.155 . S
Co165 O192 2.096 . S
C166 N169 1.301 . S
C166 N170 1.328 . S
C166 H171 0.930 . S
C167 C168 1.333 . S
C167 N169 1.317 . S
C167 H172 0.930 . S
C168 C167 1.333 . S
C168 N170 1.350 . S
C168 H194 0.931 . S
N169 Co165 2.148 . S
N169 C166 1.301 . S
N169 C167 1.317 . S
N170 C166 1.328 . S
N170 C168 1.350 . S
H171 C166 0.930 . S
H172 C167 0.930 . S
C173 O174 1.224 . S
C173 O192 1.247 . S
O174 C173 1.224 . S
N175 Co165 2.128 . S
N175 C176 1.355 . S
N175 C178 1.311 . S
C176 N175 1.355 . S
C176 C177 1.363 . S
C176 H188 0.929 . S
C177 C176 1.363 . S
C177 N179 1.375 . S
C177 H195 0.931 . S
C178 N175 1.311 . S
C178 N179 1.347 . S
C178 H189 0.929 . S
N179 C177 1.375 . S
N179 C178 1.347 . S
C180 C183 1.365 . S
C180 N185 1.328 . S
C180 H186 0.929 . S
C181 C182 1.362 . S
C181 C184 1.378 . S
C181 H196 0.929 . S
C182 C181 1.362 . S
C182 C183 1.366 . S
C183 C180 1.365 . S
C183 C182 1.366 . S
C183 H197 0.930 . S
C184 C181 1.378 . S
C184 N185 1.315 . S
C184 H187 0.930 . S
N185 Co165 2.194 . S
N185 C180 1.328 . S
N185 C184 1.315 . S
H186 C180 0.929 . S
H187 C184 0.930 . S
H188 C176 0.929 . S
H189 C178 0.929 . S
O190 Co165 2.351 . S
O190 C193 1.244 . S
O191 Co165 2.155 . S
O191 C193 1.240 . S
O192 Co165 2.096 . S
O192 C173 1.247 . S
C193 O190 1.244 . S
C193 O191 1.240 . S
H194 C168 0.931 . S
H195 C177 0.931 . S
H196 C181 0.929 . S
H197 C183 0.930 . S
Co198 N202 2.148 . S
Co198 N208 2.128 . S
Co198 N218 2.194 . S
Co198 O223 2.351 . S
Co198 O224 2.155 . S
Co198 O225 2.096 . S
C199 N202 1.301 . S
C199 N203 1.328 . S
C199 H204 0.930 . S
C200 C201 1.333 . S
C200 N202 1.317 . S
C200 H205 0.930 . S
C201 C200 1.333 . S
C201 N203 1.350 . S
C201 H227 0.931 . S
N202 Co198 2.148 . S
N202 C199 1.301 . S
N202 C200 1.317 . S
N203 C199 1.328 . S
N203 C201 1.350 . S
H204 C199 0.930 . S
H205 C200 0.930 . S
C206 O207 1.224 . S
C206 O225 1.247 . S
O207 C206 1.224 . S
N208 Co198 2.128 . S
N208 C209 1.355 . S
N208 C211 1.311 . S
C209 N208 1.355 . S
C209 C210 1.363 . S
C209 H221 0.929 . S
C210 C209 1.363 . S
C210 N212 1.375 . S
C210 H228 0.931 . S
C211 N208 1.311 . S
C211 N212 1.347 . S
C211 H222 0.929 . S
N212 C210 1.375 . S
N212 C211 1.347 . S
C213 C216 1.365 . S
C213 N218 1.328 . S
C213 H219 0.929 . S
C214 C215 1.362 . S
C214 C217 1.378 . S
C214 H229 0.929 . S
C215 C214 1.362 . S
C215 C216 1.366 . S
C216 C213 1.365 . S
C216 C215 1.366 . S
C216 H230 0.930 . S
C217 C214 1.378 . S
C217 N218 1.315 . S
C217 H220 0.930 . S
N218 Co198 2.194 . S
N218 C213 1.328 . S
N218 C217 1.315 . S
H219 C213 0.929 . S
H220 C217 0.930 . S
H221 C209 0.929 . S
H222 C211 0.929 . S
O223 Co198 2.351 . S
O223 C226 1.244 . S
O224 Co198 2.155 . S
O224 C226 1.240 . S
O225 Co198 2.096 . S
O225 C206 1.247 . S
C226 O223 1.244 . S
C226 O224 1.240 . S
H227 C201 0.931 . S
H228 C210 0.931 . S
H229 C214 0.929 . S
H230 C216 0.930 . S
Co231 N235 2.148 . S
Co231 N241 2.128 . S
Co231 N251 2.194 . S
Co231 O256 2.351 . S
Co231 O257 2.155 . S
Co231 O258 2.096 . S
C232 N235 1.301 . S
C232 N236 1.328 . S
C232 H237 0.930 . S
C233 C234 1.333 . S
C233 N235 1.317 . S
C233 H238 0.930 . S
C234 C233 1.333 . S
C234 N236 1.350 . S
C234 H260 0.931 . S
N235 Co231 2.148 . S
N235 C232 1.301 . S
N235 C233 1.317 . S
N236 C232 1.328 . S
N236 C234 1.350 . S
H237 C232 0.930 . S
H238 C233 0.930 . S
C239 O240 1.224 . S
C239 O258 1.247 . S
O240 C239 1.224 . S
N241 Co231 2.128 . S
N241 C242 1.355 . S
N241 C244 1.311 . S
C242 N241 1.355 . S
C242 C243 1.363 . S
C242 H254 0.929 . S
C243 C242 1.363 . S
C243 N245 1.375 . S
C243 H261 0.931 . S
C244 N241 1.311 . S
C244 N245 1.347 . S
C244 H255 0.929 . S
N245 C243 1.375 . S
N245 C244 1.347 . S
C246 C249 1.365 . S
C246 N251 1.328 . S
C246 H252 0.929 . S
C247 C248 1.362 . S
C247 C250 1.378 . S
C247 H262 0.929 . S
C248 C247 1.362 . S
C248 C249 1.366 . S
C249 C246 1.365 . S
C249 C248 1.366 . S
C249 H263 0.930 . S
C250 C247 1.378 . S
C250 N251 1.315 . S
C250 H253 0.930 . S
N251 Co231 2.194 . S
N251 C246 1.328 . S
N251 C250 1.315 . S
H252 C246 0.929 . S
H253 C250 0.930 . S
H254 C242 0.929 . S
H255 C244 0.929 . S
O256 Co231 2.351 . S
O256 C259 1.244 . S
O257 Co231 2.155 . S
O257 C259 1.240 . S
O258 Co231 2.096 . S
O258 C239 1.247 . S
C259 O256 1.244 . S
C259 O257 1.240 . S
H260 C234 0.931 . S
H261 C243 0.931 . S
H262 C247 0.929 . S
H263 C249 0.930 . S
C264 C265 1.369 1_556 S
C264 C266 1.419 . S
C264 H268 0.930 . S
C265 C264 1.369 1_554 S
C265 C274 1.429 . S
C266 C264 1.419 . S
C266 C267 1.363 1_556 S
C266 H269 0.929 . S
C267 C266 1.363 1_554 S
C267 C273 1.428 . S
H268 C264 0.930 . S
H269 C266 0.929 . S
S270 N271 1.613 . S
S270 N272 1.610 . S
N271 S270 1.613 . S
N271 C274 1.350 . S
N272 S270 1.610 . S
N272 C273 1.351 . S
C273 C267 1.428 . S
C273 N272 1.351 . S
C273 C274 1.434 . S
C274 C265 1.429 . S
C274 N271 1.350 . S
C274 C273 1.434 . S
C275 C276 1.370 . S
C275 C277 1.418 1_554 S
C275 H279 0.930 1_554 S
C276 C275 1.370 . S
C276 C285 1.429 . S
C277 C275 1.418 1_556 S
C277 C278 1.363 1_556 S
C277 H280 0.929 . S
C278 C277 1.363 1_554 S
C278 C284 1.428 . S
H279 C275 0.930 1_556 S
H280 C277 0.929 . S
S281 N282 1.613 . S
S281 N283 1.610 . S
N282 S281 1.613 . S
N282 C285 1.350 . S
N283 S281 1.610 . S
N283 C284 1.351 . S
C284 C278 1.428 . S
C284 N283 1.351 . S
C284 C285 1.434 . S
C285 C276 1.429 . S
C285 N282 1.350 . S
C285 C284 1.434 . S
C286 C287 1.369 . S
C286 C288 1.419 . S
C286 H290 0.930 . S
C287 C286 1.369 . S
C287 C296 1.429 . S
C288 C286 1.419 . S
C288 C289 1.363 . S
C288 H291 0.929 . S
C289 C288 1.363 . S
C289 C295 1.428 . S
H290 C286 0.930 . S
H291 C288 0.929 . S
S292 N293 1.613 1_556 S
S292 N294 1.610 . S
N293 S292 1.613 1_554 S
N293 C296 1.350 . S
N294 S292 1.610 . S
N294 C295 1.351 1_556 S
C295 C289 1.428 . S
C295 N294 1.351 1_554 S
C295 C296 1.434 . S
C296 C287 1.429 . S
C296 N293 1.350 . S
C296 C295 1.434 . S
C297 C298 1.369 . S
C297 C299 1.419 . S
C297 H301 0.930 . S
C298 C297 1.369 . S
C298 C307 1.429 1_554 S
C299 C297 1.419 . S
C299 C300 1.363 . S
C299 H302 0.929 . S
C300 C299 1.363 . S
C300 C306 1.428 1_554 S
H301 C297 0.930 . S
H302 C299 0.929 . S
S303 N304 1.613 . S
S303 N305 1.610 . S
N304 S303 1.613 . S
N304 C307 1.350 . S
N305 S303 1.610 . S
N305 C306 1.351 . S
C306 C300 1.428 1_556 S
C306 N305 1.351 . S
C306 C307 1.434 . S
C307 C298 1.429 1_556 S
C307 N304 1.350 . S
C307 C306 1.434 . S
C308 C309 1.369 1_655 S
C308 C310 1.419 . S
C308 H312 0.930 . S
C309 C308 1.369 1_455 S
C309 C318 1.429 1_455 S
C310 C308 1.419 . S
C310 C311 1.363 . S
C310 H313 0.929 . S
C311 C310 1.363 . S
C311 C317 1.428 . S
H312 C308 0.930 . S
H313 C310 0.929 . S
S314 N315 1.614 1_655 S
S314 N316 1.609 . S
N315 S314 1.614 1_455 S
N315 C318 1.350 1_455 S
N316 S314 1.609 . S
N316 C317 1.351 . S
C317 C311 1.428 . S
C317 N316 1.351 . S
C317 C318 1.434 . S
C318 C309 1.429 1_655 S
C318 N315 1.350 1_655 S
C318 C317 1.434 . S
C319 C320 1.369 1_565 S
C319 C321 1.419 . S
C319 H323 0.930 . S
C320 C319 1.369 1_545 S
C320 C329 1.429 1_545 S
C321 C319 1.419 . S
C321 C322 1.363 . S
C321 H324 0.929 . S
C322 C321 1.363 . S
C322 C328 1.428 . S
H323 C319 0.930 . S
H324 C321 0.929 . S
S325 N326 1.613 1_565 S
S325 N327 1.610 . S
N326 S325 1.613 1_545 S
N326 C329 1.350 1_545 S
N327 S325 1.610 . S
N327 C328 1.351 . S
C328 C322 1.428 . S
C328 N327 1.351 . S
C328 C329 1.434 . S
C329 C320 1.429 1_565 S
C329 N326 1.350 1_565 S
C329 C328 1.434 . S
C330 C331 1.369 . S
C330 C332 1.419 . S
C330 H334 0.930 . S
C331 C330 1.369 . S
C331 C340 1.429 . S
C332 C330 1.419 . S
C332 C333 1.363 1_455 S
C332 H335 0.929 . S
C333 C332 1.363 1_655 S
C333 C339 1.428 1_655 S
H334 C330 0.930 . S
H335 C332 0.929 . S
S336 N337 1.613 . S
S336 N338 1.610 1_455 S
N337 S336 1.613 . S
N337 C340 1.350 . S
N338 S336 1.610 1_655 S
N338 C339 1.351 1_655 S
C339 C333 1.428 1_455 S
C339 N338 1.351 1_455 S
C339 C340 1.434 . S
C340 C331 1.429 . S
C340 N337 1.350 . S
C340 C339 1.434 . S
C341 C342 1.369 . S
C341 C343 1.419 . S
C341 H345 0.930 . S
C342 C341 1.369 . S
C342 C351 1.429 . S
C343 C341 1.419 . S
C343 C344 1.363 1_545 S
C343 H346 0.929 . S
C344 C343 1.363 1_565 S
C344 C350 1.428 1_565 S
H345 C341 0.930 . S
H346 C343 0.929 . S
S347 N348 1.613 . S
S347 N349 1.610 1_545 S
N348 S347 1.613 . S
N348 C351 1.350 . S
N349 S347 1.610 1_565 S
N349 C350 1.351 1_565 S
C350 C344 1.428 1_545 S
C350 N349 1.351 1_545 S
C350 C351 1.434 . S
C351 C342 1.429 . S
C351 N348 1.350 . S
C351 C350 1.434 . S
C352 C353 1.369 . S
C352 C354 1.419 . S
C352 H356 0.930 . S
C353 C352 1.369 . S
C353 C362 1.429 . S
C354 C352 1.419 . S
C354 C355 1.363 . S
C354 H357 0.929 . S
C355 C354 1.363 . S
C355 C361 1.428 . S
H356 C352 0.930 . S
H357 C354 0.929 . S
S358 N359 1.613 . S
S358 N360 1.610 . S
N359 S358 1.613 . S
N359 C362 1.350 . S
N360 S358 1.610 . S
N360 C361 1.351 . S
C361 C355 1.428 . S
C361 N360 1.351 . S
C361 C362 1.434 . S
C362 C353 1.429 . S
C362 N359 1.350 . S
C362 C361 1.434 . S
C363 C364 1.369 . S
C363 C365 1.419 . S
C363 H367 0.930 . S
C364 C363 1.369 . S
C364 C373 1.429 . S
C365 C363 1.419 . S
C365 C366 1.363 . S
C365 H368 0.929 . S
C366 C365 1.363 . S
C366 C372 1.428 . S
H367 C363 0.930 . S
H368 C365 0.929 . S
S369 N370 1.613 . S
S369 N371 1.610 . S
N370 S369 1.613 . S
N370 C373 1.350 . S
N371 S369 1.610 . S
N371 C372 1.351 . S
C372 C366 1.428 . S
C372 N371 1.351 . S
C372 C373 1.434 . S
C373 C364 1.429 . S
C373 N370 1.350 . S
C373 C372 1.434 . S
C374 C375 1.369 . S
C374 C376 1.419 . S
C374 H378 0.930 . S
C375 C374 1.369 . S
C375 C384 1.429 . S
C376 C374 1.419 . S
C376 C377 1.363 . S
C376 H379 0.929 . S
C377 C376 1.363 . S
C377 C383 1.428 . S
H378 C374 0.930 . S
H379 C376 0.929 . S
S380 N381 1.613 . S
S380 N382 1.610 . S
N381 S380 1.613 . S
N381 C384 1.350 . S
N382 S380 1.610 . S
N382 C383 1.351 . S
C383 C377 1.428 . S
C383 N382 1.351 . S
C383 C384 1.434 . S
C384 C375 1.429 . S
C384 N381 1.350 . S
C384 C383 1.434 . S
C385 C386 1.369 . S
C385 C387 1.419 . S
C385 H389 0.930 . S
C386 C385 1.369 . S
C386 C395 1.429 . S
C387 C385 1.419 . S
C387 C388 1.363 . S
C387 H390 0.929 . S
C388 C387 1.363 . S
C388 C394 1.428 . S
H389 C385 0.930 . S
H390 C387 0.929 . S
S391 N392 1.613 . S
S391 N393 1.610 . S
N392 S391 1.613 . S
N392 C395 1.350 . S
N393 S391 1.610 . S
N393 C394 1.351 . S
C394 C388 1.428 . S
C394 N393 1.351 . S
C394 C395 1.434 . S
C395 C386 1.429 . S
C395 N392 1.350 . S
C395 C394 1.434 . S
C396 C397 1.369 . S
C396 C398 1.419 . S
C396 H400 0.930 . S
C397 C396 1.369 . S
C397 C406 1.429 . S
C398 C396 1.419 . S
C398 C399 1.363 . S
C398 H401 0.929 . S
C399 C398 1.363 . S
C399 C405 1.428 . S
H400 C396 0.930 . S
H401 C398 0.929 . S
S402 N403 1.613 . S
S402 N404 1.610 . S
N403 S402 1.613 . S
N403 C406 1.350 . S
N404 S402 1.610 . S
N404 C405 1.351 . S
C405 C399 1.428 . S
C405 N404 1.351 . S
C405 C406 1.434 . S
C406 C397 1.429 . S
C406 N403 1.350 . S
C406 C405 1.434 . S
C407 C408 1.369 . S
C407 C409 1.419 . S
C407 H411 0.930 . S
C408 C407 1.369 . S
C408 C417 1.429 . S
C409 C407 1.419 . S
C409 C410 1.363 . S
C409 H412 0.929 . S
C410 C409 1.363 . S
C410 C416 1.428 . S
H411 C407 0.930 . S
H412 C409 0.929 . S
S413 N414 1.613 . S
S413 N415 1.610 . S
N414 S413 1.613 . S
N414 C417 1.350 . S
N415 S413 1.610 . S
N415 C416 1.351 . S
C416 C410 1.428 . S
C416 N415 1.351 . S
C416 C417 1.434 . S
C417 C408 1.429 . S
C417 N414 1.350 . S
C417 C416 1.434 . S
C418 C419 1.369 . S
C418 C420 1.419 . S
C418 H422 0.930 . S
C419 C418 1.369 . S
C419 C428 1.429 . S
C420 C418 1.419 . S
C420 C421 1.363 . S
C420 H423 0.929 . S
C421 C420 1.363 . S
C421 C427 1.428 . S
H422 C418 0.930 . S
H423 C420 0.929 . S
S424 N425 1.613 . S
S424 N426 1.610 . S
N425 S424 1.613 . S
N425 C428 1.350 . S
N426 S424 1.610 . S
N426 C427 1.351 . S
C427 C421 1.428 . S
C427 N426 1.351 . S
C427 C428 1.434 . S
C428 C419 1.429 . S
C428 N425 1.350 . S
C428 C427 1.434 . S
C429 C430 1.369 . S
C429 C431 1.419 . S
C429 H433 0.930 . S
C430 C429 1.369 . S
C430 C439 1.429 . S
C431 C429 1.419 . S
C431 C432 1.363 . S
C431 H434 0.929 . S
C432 C431 1.363 . S
C432 C438 1.428 . S
H433 C429 0.930 . S
H434 C431 0.929 . S
S435 N436 1.613 . S
S435 N437 1.610 . S
N436 S435 1.613 . S
N436 C439 1.350 . S
N437 S435 1.610 . S
N437 C438 1.351 . S
C438 C432 1.428 . S
C438 N437 1.351 . S
C438 C439 1.434 . S
C439 C430 1.429 . S
C439 N436 1.350 . S
C439 C438 1.434 . S
C440 C441 1.369 1_455 S
C440 C442 1.419 . S
C440 H444 0.930 . S
C441 C440 1.369 1_655 S
C441 C450 1.429 1_554 S
C442 C440 1.419 . S
C442 C443 1.363 . S
C442 H445 0.929 . S
C443 C442 1.363 . S
C443 C449 1.428 1_454 S
H444 C440 0.930 . S
H445 C442 0.929 . S
S446 N447 1.613 . S
S446 N448 1.610 . S
N447 S446 1.613 . S
N447 C450 1.350 . S
N448 S446 1.610 . S
N448 C449 1.351 . S
C449 C443 1.428 1_656 S
C449 N448 1.351 . S
C449 C450 1.434 . S
C450 C441 1.429 1_556 S
C450 N447 1.350 . S
C450 C449 1.434 . S
C451 C452 1.369 . S
C451 C453 1.418 1_545 S
C451 H455 0.930 . S
C452 C451 1.369 . S
C452 C461 1.414 1_544 S
C453 C451 1.418 1_565 S
C453 C454 1.363 . S
C453 H456 0.929 1_565 S
C454 C453 1.363 . S
C454 C460 1.428 1_554 S
H455 C451 0.930 . S
H456 C453 0.929 1_545 S
S457 N458 1.613 . S
S457 N459 1.610 . S
N458 S457 1.613 . S
N458 C461 1.352 . S
N459 S457 1.610 . S
N459 C460 1.351 . S
C460 C454 1.428 1_556 S
C460 N459 1.351 . S
C460 C461 1.449 . S
C461 C452 1.414 1_566 S
C461 N458 1.352 . S
C461 C460 1.449 . S
C462 C463 1.369 . S
C462 C464 1.419 . S
C462 H466 0.930 . S
C463 C462 1.369 . S
C463 C472 1.429 1_545 S
C464 C462 1.419 . S
C464 C465 1.363 1_545 S
C464 H467 0.929 . S
C465 C464 1.363 1_565 S
C465 C471 1.428 . S
H466 C462 0.930 . S
H467 C464 0.929 . S
S468 N469 1.613 . S
S468 N470 1.610 . S
N469 S468 1.613 . S
N469 C472 1.350 . S
N470 S468 1.610 . S
N470 C471 1.351 . S
C471 C465 1.428 . S
C471 N470 1.351 . S
C471 C472 1.434 . S
C472 C463 1.429 1_565 S
C472 N469 1.350 . S
C472 C471 1.434 . S
C473 C474 1.369 1_655 S
C473 C475 1.419 . S
C473 H477 0.930 . S
C474 C473 1.369 1_455 S
C474 C483 1.429 . S
C475 C473 1.419 . S
C475 C476 1.363 . S
C475 H478 0.929 . S
C476 C475 1.363 . S
C476 C482 1.428 1_655 S
H477 C473 0.930 . S
H478 C475 0.929 . S
S479 N480 1.613 . S
S479 N481 1.610 . S
N480 S479 1.613 . S
N480 C483 1.350 . S
N481 S479 1.610 . S
N481 C482 1.351 . S
C482 C476 1.428 1_455 S
C482 N481 1.351 . S
C482 C483 1.434 . S
C483 C474 1.429 . S
C483 N480 1.350 . S
C483 C482 1.434 . S
C265 C41 1.022 . S
C267 N5 1.000 . S
C276 N38 1.005 . S
C278 C74 1.024 . S
C287 N71 0.992 . S
C289 C107 1.024 . S
C298 C8 1.023 . S
C300 N104 0.994 . S
C309 C173 1.022 . S
C311 N137 0.997 . S
C320 C206 1.023 . S
C322 N170 1.003 . S
C331 N203 0.992 . S
C333 C239 1.023 . S
C342 N236 0.993 . S
C344 C140 1.024 . S
C353 C215 1.559 . S
C355 C28 1.606 . S
C364 C61 1.606 . S
C366 C248 1.564 . S
C375 C94 1.603 . S
C377 C149 1.564 . S
C386 C127 1.605 . S
C388 C182 1.562 . S
C397 C160 1.609 . S
C399 C83 1.563 . S
C408 C193 1.602 . S
C410 C116 1.570 . S
C419 C226 1.604 . S
C421 C17 1.570 . S
C430 C50 1.561 . S
C432 C259 1.611 . S
C441 N80 2.031 . S
C443 N14 2.031 . S
C452 N47 2.031 . S
C454 N113 2.031 . S
C463 N212 2.031 . S
C465 N146 2.031 . S
C474 N179 2.030 . S
C476 N245 2.031 . S
