# Generated by pormake.
# Topology smu, (6)-cn, num edge types: 1
# Building blocks:
#     Node 0, Type 0, BuildingBlock: BETGAK_clean_sbu_0, # of connection points: 6
#     Node 1, Type 0, BuildingBlock: BETGAK_clean_sbu_0, # of connection points: 6
#     Node 2, Type 0, BuildingBlock: BETGAK_clean_sbu_0, # of connection points: 6
#     Node 3, Type 0, BuildingBlock: BETGAK_clean_sbu_0, # of connection points: 6
#     Node 4, Type 0, BuildingBlock: BETGAK_clean_sbu_0, # of connection points: 6
#     Node 5, Type 0, BuildingBlock: BETGAK_clean_sbu_0, # of connection points: 6
#     Edge 6, Type (0, 0), BuildingBlock: OJICUG_clean_linker_0, # of connection points: 2
#     Edge 7, Type (0, 0), BuildingBlock: OJICUG_clean_linker_0, # of connection points: 2
#     Edge 8, Type (0, 0), BuildingBlock: OJICUG_clean_linker_0, # of connection points: 2
#     Edge 9, Type (0, 0), BuildingBlock: OJICUG_clean_linker_0, # of connection points: 2
#     Edge 10, Type (0, 0), BuildingBlock: OJICUG_clean_linker_0, # of connection points: 2
#     Edge 11, Type (0, 0), BuildingBlock: OJICUG_clean_linker_0, # of connection points: 2
#     Edge 12, Type (0, 0), BuildingBlock: OJICUG_clean_linker_0, # of connection points: 2
#     Edge 13, Type (0, 0), BuildingBlock: OJICUG_clean_linker_0, # of connection points: 2
#     Edge 14, Type (0, 0), BuildingBlock: OJICUG_clean_linker_0, # of connection points: 2
#     Edge 15, Type (0, 0), BuildingBlock: OJICUG_clean_linker_0, # of connection points: 2
#     Edge 16, Type (0, 0), BuildingBlock: OJICUG_clean_linker_0, # of connection points: 2
#     Edge 17, Type (0, 0), BuildingBlock: OJICUG_clean_linker_0, # of connection points: 2
#     Edge 18, Type (0, 0), BuildingBlock: OJICUG_clean_linker_0, # of connection points: 2
#     Edge 19, Type (0, 0), BuildingBlock: OJICUG_clean_linker_0, # of connection points: 2
#     Edge 20, Type (0, 0), BuildingBlock: OJICUG_clean_linker_0, # of connection points: 2
#     Edge 21, Type (0, 0), BuildingBlock: OJICUG_clean_linker_0, # of connection points: 2
#     Edge 22, Type (0, 0), BuildingBlock: OJICUG_clean_linker_0, # of connection points: 2
#     Edge 23, Type (0, 0), BuildingBlock: OJICUG_clean_linker_0, # of connection points: 2
# Relax obj value: 0.230
# Max RMSD: 0.335
# Mean RMSD: 0.335
data_MOF--net-smu--node1-BETGAK_clean_sbu_0--edge1-OJICUG_clean_linker_0
_symmetry_space_group_name_H-M    P1
_symmetry_Int_Tables_number       1
_symmetry_cell_setting            triclinic
loop_
_symmetry_equiv_pos_as_xyz
'x, y, z'
_cell_length_a     31.081284
_cell_length_b     31.186049
_cell_length_c     18.027387
_cell_angle_alpha  89.197637
_cell_angle_beta   90.288667
_cell_angle_gamma 119.78442
loop_
_atom_site_label
_atom_site_type_symbol
_atom_site_fract_x
_atom_site_fract_y
_atom_site_fract_z
_atom_type_partial_charge
La0 La 0.41791 0.09871 0.32322 0.0
La1 La 0.345 0.13682 0.32525 0.0
C2 C 0.48266 0.07303 0.29837 0.0
C3 C 0.53844 0.09924 0.30033 0.0
C4 C 0.56636 0.14047 0.34566 0.0
C5 C 0.61866 0.16361 0.34838 0.0
C6 C 0.64498 0.14638 0.30582 0.0
C7 C 0.61663 0.10551 0.25961 0.0
C8 C 0.56445 0.08242 0.25704 0.0
C9 C 0.38964 0.10806 0.46097 0.0
C10 C 0.45821 0.21208 0.33538 0.0
C11 C 0.30395 0.18794 0.34727 0.0
C12 C 0.26757 0.20482 0.33256 0.0
C13 C 0.27627 0.24011 0.27632 0.0
C14 C 0.24836 0.26426 0.27284 0.0
C15 C 0.21137 0.25407 0.32591 0.0
C16 C 0.20129 0.21713 0.37998 0.0
C17 C 0.22916 0.19308 0.38348 0.0
C18 C 0.3535 0.10394 0.19471 0.0
C19 C 0.29893 1.02304 0.32748 0.0
O20 O 0.45963 0.06626 0.36156 0.0
O21 O 0.46203 0.08644 0.2466 0.0
O22 O 0.43367 0.1173 0.44192 0.0
O23 O 0.3654 0.09701 0.40174 0.0
O24 O 0.46722 0.17881 0.30602 0.0
O25 O 0.41465 0.19782 0.36521 0.0
O26 O 0.33941 0.19929 0.29881 0.0
O27 O 0.29086 0.14606 0.38258 0.0
O28 O 0.31473 0.10532 0.21716 0.0
O29 O 0.38832 0.1273 0.24114 0.0
O30 O 0.29231 0.0603 0.34655 0.0
O31 O 0.34383 1.02932 0.30957 0.0
H32 H 0.54766 0.1546 0.37967 0.0
H33 H 0.63833 0.19447 0.38527 0.0
H34 H 0.63473 0.09131 0.22455 0.0
H35 H 0.54429 0.05104 0.22114 0.0
H36 H 0.30615 0.25081 0.23684 0.0
H37 H 0.25722 0.29238 0.23044 0.0
H38 H 0.17221 0.20722 0.42066 0.0
H39 H 0.22192 0.1667 0.4281 0.0
La40 La 0.7425 0.65899 0.30732 0.0
La41 La 0.84954 0.73584 0.33883 0.0
C42 C 0.66721 0.5857 0.25075 0.0
C43 C 0.63947 0.53094 0.26506 0.0
C44 C 0.58781 0.50625 0.27495 0.0
C45 C 0.56083 0.45495 0.2882 0.0
C46 C 0.58458 0.42637 0.29215 0.0
C47 C 0.63643 0.45117 0.28163 0.0
C48 C 0.66344 0.50262 0.26833 0.0
C49 C 0.75415 0.68435 0.44623 0.0
C50 C 0.82048 0.62276 0.32716 0.0
C51 C 0.93821 0.77775 0.3851 0.0
C52 C 0.99102 0.81637 0.37931 0.0
C53 C 1.01094 0.84574 0.31519 0.0
C54 C 0.06263 0.87502 0.30615 0.0
C55 C 0.09555 0.87486 0.36044 0.0
C56 C 0.0749 0.84551 0.42474 0.0
C57 C 1.0235 0.81702 0.43408 0.0
C58 C 0.81916 0.74207 0.20273 0.0
C59 C 0.77444 0.77258 0.33404 0.0
O60 O 0.66455 0.6137 0.30169 0.0
O61 O 0.71217 0.60512 0.22396 0.0
O62 O 0.71269 0.66441 0.41053 0.0
O63 O 0.78777 0.68275 0.40677 0.0
O64 O 0.77305 0.60968 0.33154 0.0
O65 O 0.85486 0.66958 0.32497 0.0
O66 O 0.92098 0.74628 0.33111 0.0
O67 O 0.90472 0.78728 0.41184 0.0
O68 O 0.85505 0.77861 0.23735 0.0
O69 O 0.80635 0.70352 0.24161 0.0
O70 O 0.81371 0.77691 0.36941 0.0
O71 O 0.74443 0.73203 0.29469 0.0
H72 H 0.56809 0.52673 0.27216 0.0
H73 H 0.521 0.4376 0.29437 0.0
H74 H 0.65642 0.43099 0.28475 0.0
H75 H 0.70317 0.52018 0.26071 0.0
H76 H 0.98664 0.84505 0.27136 0.0
H77 H 0.07667 0.89764 0.25645 0.0
H78 H 0.09835 0.84322 0.46735 0.0
H79 H 1.00908 0.79358 0.48305 0.0
La80 La 0.97346 0.3263 0.3086 0.0
La81 La 0.95746 0.22381 0.33623 0.0
C82 C 0.96763 0.39829 0.25078 0.0
C83 C 0.94045 0.42581 0.26267 0.0
C84 C 0.90837 0.41607 0.32337 0.0
C85 C 0.88517 0.44464 0.33435 0.0
C86 C 0.89392 0.48379 0.2852 0.0
C87 C 0.925 0.49218 0.22354 0.0
C88 C 0.94784 0.46366 0.21253 0.0
C89 C 0.99511 0.31795 0.44762 0.0
C90 C 0.86345 0.23603 0.31913 0.0
C91 C 0.93003 0.13693 0.38609 0.0
C92 C 0.89484 0.08308 0.37547 0.0
C93 C 0.86968 0.0636 0.30841 0.0
C94 C 0.84054 1.01196 0.29895 0.0
C95 C 0.83592 0.97838 0.35619 0.0
C96 C 0.86078 0.99864 0.42349 0.0
C97 C 0.88948 0.04993 0.43289 0.0
C98 C 0.99112 0.25903 0.19918 0.0
C99 C 0.06399 0.30886 0.33384 0.0
O100 O 1.00013 0.40299 0.3008 0.0
O101 O 0.94186 0.35264 0.22882 0.0
O102 O 1.00848 0.35885 0.41191 0.0
O103 O 0.9624 0.28203 0.4084 0.0
O104 O 0.89304 0.28355 0.33386 0.0
O105 O 0.88244 0.20713 0.30625 0.0
O106 O 0.91283 0.16487 0.41024 0.0
O107 O 0.96428 0.15992 0.33582 0.0
O108 O 0.99646 0.22533 0.23373 0.0
O109 O 0.96204 0.26698 0.23869 0.0
O110 O 1.03269 0.26917 0.37217 0.0
O111 O 1.04804 0.33388 0.29179 0.0
H112 H 0.90189 0.38696 0.36285 0.0
H113 H 0.86174 0.43714 0.38257 0.0
H114 H 0.93208 0.5213 0.18371 0.0
H115 H 0.97199 0.47172 0.16499 0.0
H116 H 0.87322 0.08823 0.26294 0.0
H117 H 0.8219 0.99846 0.24647 0.0
H118 H 0.85975 0.97493 0.46867 0.0
H119 H 0.90886 0.06375 0.48488 0.0
La120 La 0.15875 0.32714 0.82728 0.0
La121 La 0.12694 0.40505 0.81807 0.0
C122 C 0.20461 0.28124 0.8577 0.0
C123 C 0.22168 0.24549 0.84124 0.0
C124 C 0.25581 0.25453 0.78364 0.0
C125 C 0.28055 0.22726 0.77927 0.0
C126 C 0.27206 0.19055 0.83269 0.0
C127 C 0.23601 0.17996 0.88788 0.0
C128 C 0.21139 0.2072 0.89227 0.0
C129 C 0.12817 0.33533 0.69302 0.0
C130 C 1.04598 0.2892 0.82184 0.0
C131 C 0.10468 0.47152 0.7851 0.0
C132 C 0.12895 0.52648 0.79313 0.0
C133 C 0.1107 0.55301 0.75307 0.0
C134 C 0.13309 0.60471 0.75861 0.0
C135 C 0.17465 0.63195 0.80465 0.0
C136 C 0.19313 0.6051 0.84441 0.0
C137 C 0.17064 0.5532 0.83869 0.0
C138 C 0.13009 0.3738 0.95874 0.0
C139 C 0.23948 0.43917 0.84013 0.0
O140 O 0.22251 0.32159 0.81698 0.0
O141 O 0.15929 0.2663 0.8811 0.0
O142 O 0.12992 0.29719 0.71813 0.0
O143 O 0.15162 0.37058 0.73874 0.0
O144 O 0.08065 0.28024 0.84874 0.0
O145 O 0.0561 0.33432 0.79811 0.0
O146 O 0.09017 0.44441 0.84561 0.0
O147 O 0.12582 0.45537 0.73964 0.0
O148 O 0.14034 0.41816 0.93921 0.0
O149 O 0.12065 0.35116 0.89872 0.0
O150 O 0.20841 0.45147 0.80934 0.0
O151 O 0.22222 0.39458 0.86859 0.0
H152 H 0.2652 0.2842 0.74379 0.0
H153 H 0.30788 0.23646 0.73594 0.0
H154 H 0.22733 0.15105 0.92885 0.0
H155 H 0.18586 0.19972 0.93777 0.0
H156 H 0.07901 0.53366 0.7169 0.0
H157 H 0.11798 0.62337 0.72564 0.0
H158 H 0.2246 0.62402 0.88101 0.0
H159 H 0.18582 0.53391 0.87003 0.0
La160 La 0.24911 0.94096 0.84551 0.0
La161 La 0.35237 0.95911 0.81203 0.0
C162 C 0.16393 0.91194 0.9016 0.0
C163 C 0.11038 0.87826 0.88738 0.0
C164 C 0.09261 0.85591 0.81834 0.0
C165 C 1.04127 0.82791 0.805 0.0
C166 C 1.00651 0.8217 0.86035 0.0
C167 C 1.02494 0.84318 0.93002 0.0
C168 C 0.07605 0.87095 0.94322 0.0
C169 C 0.2796 0.97348 0.70679 0.0
C170 C 0.33306 0.04752 0.84003 0.0
C171 C 0.42452 0.95559 0.75263 0.0
C172 C 0.45429 0.93085 0.76823 0.0
C173 C 0.50624 0.95919 0.76944 0.0
C174 C 0.53535 0.93697 0.78241 0.0
C175 C 0.51342 0.88555 0.79451 0.0
C176 C 0.46124 0.85709 0.79296 0.0
C177 C 0.43207 0.87943 0.78014 0.0
C178 C 0.34475 0.97629 0.95316 0.0
C179 C 0.26267 0.84865 0.82327 0.0
O180 O 0.19141 0.89212 0.91736 0.0
O181 O 0.1869 0.95014 0.85718 0.0
O182 O 0.24585 0.97782 0.74213 0.0
O183 O 0.2899 0.94585 0.74637 0.0
O184 O 0.29531 1.01568 0.88098 0.0
O185 O 0.35725 0.03247 0.79571 0.0
O186 O 0.4297 0.99 0.79824 0.0
O187 O 0.37819 0.92772 0.73347 0.0
O188 O 0.38572 0.99122 0.91723 0.0
O189 O 0.3094 0.94498 0.91229 0.0
O190 O 0.31083 0.87844 0.83508 0.0
O191 O 0.23259 0.86692 0.81408 0.0
H192 H 0.11839 0.86097 0.77433 0.0
H193 H 1.02886 0.81167 0.75091 0.0
H194 H 0.99995 0.84041 0.97381 0.0
H195 H 0.08881 0.88805 0.99678 0.0
H196 H 0.52448 0.99876 0.75981 0.0
H197 H 0.57529 0.96021 0.78173 0.0
H198 H 0.44283 0.81754 0.80259 0.0
H199 H 0.39214 0.85639 0.77947 0.0
La200 La 0.76013 0.8413 0.82248 0.0
La201 La 0.68604 0.731 0.82047 0.0
C202 C 0.80165 0.93257 0.8472 0.0
C203 C 0.83865 0.98482 0.83049 0.0
C204 C 0.82823 1.01208 0.77755 0.0
C205 C 0.85717 0.06364 0.77327 0.0
C206 C 0.897 0.08919 0.82218 0.0
C207 C 0.90882 0.06164 0.87255 0.0
C208 C 0.87983 1.01016 0.87696 0.0
C209 C 0.75062 0.80106 0.69172 0.0
C210 C 0.8047 0.77153 0.82193 0.0
C211 C 0.61945 0.64151 0.79919 0.0
C212 C 0.56382 0.61412 0.8054 0.0
C213 C 0.53742 0.56221 0.80756 0.0
C214 C 0.48531 0.53583 0.81417 0.0
C215 C 0.45753 0.56041 0.81898 0.0
C216 C 0.48421 0.6126 0.8162 0.0
C217 C 0.53644 0.63896 0.80976 0.0
C218 C 0.71347 0.77004 0.95685 0.0
C219 C 0.64672 0.80485 0.83169 0.0
O220 O 0.76531 0.90944 0.80009 0.0
O221 O 0.81496 0.90312 0.88019 0.0
O222 O 0.78957 0.84086 0.71334 0.0
O223 O 0.71602 0.78942 0.73888 0.0
O224 O 0.81243 0.81581 0.8407 0.0
O225 O 0.75933 0.73373 0.8054 0.0
O226 O 0.64445 0.65741 0.86078 0.0
O227 O 0.63918 0.67502 0.74667 0.0
O228 O 0.66931 0.73604 0.93813 0.0
O229 O 0.73829 0.7812 0.89832 0.0
O230 O 0.63787 0.76291 0.80205 0.0
O231 O 0.69031 0.83404 0.86101 0.0
H232 H 0.79622 0.99389 0.74166 0.0
H233 H 0.84697 0.08357 0.73385 0.0
H234 H 0.94008 0.07994 0.90976 0.0
H235 H 0.88847 0.99043 0.91898 0.0
H236 H 0.55718 0.54184 0.80409 0.0
H237 H 0.46677 0.49587 0.81465 0.0
H238 H 0.46486 0.6333 0.82041 0.0
H239 H 0.55538 0.67888 0.80859 0.0
C240 C 0.30108 1.00161 1.04912 0.0
C241 C 0.34419 1.00452 1.01971 0.0
H242 H 0.27055 0.0314 0.12626 0.0
C243 C 0.39032 0.03996 1.04978 0.0
H244 H 0.26508 0.97544 1.02714 0.0
C245 C 0.39361 0.07218 0.10588 0.0
C246 C 0.35085 0.06976 0.13491 0.0
H247 H 0.42464 0.04391 1.02841 0.0
H248 H 0.4298 0.09994 0.1249 0.0
C249 C 0.30447 0.03407 0.10567 0.0
C250 C 0.70973 0.72818 0.6073 0.0
C251 C 0.75267 0.76969 0.6317 0.0
H252 H 0.67753 0.66767 0.53321 0.0
C253 C 0.79835 0.78127 0.59813 0.0
H254 H 0.67397 0.7194 0.62921 0.0
C255 C 0.80079 0.75184 0.54139 0.0
C256 C 0.75736 0.71065 0.51634 0.0
H257 H 0.83223 0.81381 0.61462 0.0
H258 H 0.83598 0.76263 0.51516 0.0
C259 C 0.7121 0.69881 0.55142 0.0
C260 C 1.03733 0.33883 0.12075 0.0
C261 C 1.02515 0.28965 0.13654 0.0
H262 H 0.08109 0.40476 1.05476 0.0
C263 C 1.04986 0.27009 0.09559 0.0
H264 H 1.01963 0.35549 0.15124 0.0
C265 C 0.08533 0.29832 1.04102 0.0
C266 C 0.098 0.34753 1.02532 0.0
H267 H 1.04189 0.23255 0.10602 0.0
H268 H 0.10244 0.2812 1.01003 0.0
C269 C 0.07342 0.36744 1.06621 0.0
C270 C 0.38515 0.05345 0.57037 0.0
C271 C 0.36477 0.07804 0.52946 0.0
H272 H 0.37429 1.00028 0.65642 0.0
C273 C 0.31616 0.06678 0.54679 0.0
H274 H 0.422 0.06011 0.55763 0.0
C275 C 0.28879 0.03224 0.60299 0.0
C276 C 0.30881 1.00729 0.64351 0.0
H277 H 0.29877 0.084 0.51558 0.0
H278 H 0.25161 1.025 0.61473 0.0
C279 C 0.35742 1.01832 0.62625 0.0
C280 C 0.71414 0.72273 1.07124 0.0
C281 C 0.73715 0.76572 1.02652 0.0
H282 H 0.72195 0.68098 0.16043 0.0
C283 C 0.78701 0.80057 1.04079 0.0
H284 H 0.67611 0.6946 1.06106 0.0
C285 C 0.81337 0.79238 0.09737 0.0
C286 C 0.79083 0.74887 0.14087 0.0
H287 H 0.80615 0.83362 1.00655 0.0
H288 H 0.85174 0.82001 0.10659 0.0
C289 C 0.74079 0.71431 0.12732 0.0
C290 C 1.02705 0.27797 0.54284 0.0
C291 C 1.0242 0.31883 0.5155 0.0
H292 H 0.06273 0.25161 0.6185 0.0
C293 C 0.05582 0.36529 0.54806 0.0
H294 H 1.00417 0.24185 0.51911 0.0
C295 C 0.08964 0.37113 0.60452 0.0
C296 C 0.093 0.33067 0.63153 0.0
H297 H 0.05546 0.39809 0.52841 0.0
H298 H 0.11396 0.40761 0.62552 0.0
C299 C 0.06128 0.28397 0.5995 0.0
C300 C 0.72459 0.1414 0.30204 0.0
C301 C 0.70122 0.17002 0.3101 0.0
H302 H 0.7923 0.13895 0.29866 0.0
C303 C 0.7324 0.22118 0.32222 0.0
H304 H 0.7027 0.10191 0.29422 0.0
C305 C 0.78461 0.24268 0.32547 0.0
C306 C 0.80768 0.21387 0.31677 0.0
H307 H 0.7166 0.24503 0.32802 0.0
H308 H 0.80691 0.28207 0.3343 0.0
C309 C 0.77655 0.16282 0.30518 0.0
C310 C 0.56671 0.33775 0.27308 0.0
C311 C 0.55512 0.37128 0.30736 0.0
H312 H 0.54598 0.26167 0.25498 0.0
C313 C 0.51387 0.35144 0.3554 0.0
H314 H 0.59791 0.35118 0.23542 0.0
C315 C 0.48418 0.30023 0.36644 0.0
C316 C 0.49454 0.2666 0.33018 0.0
H317 H 0.5041 0.37553 0.38452 0.0
H318 H 0.45224 0.287 0.40261 0.0
C319 C 0.53685 0.28619 0.28428 0.0
C320 C 0.90481 0.56921 0.28924 0.0
C321 C 0.87378 0.51805 0.29941 0.0
H322 H 0.91288 0.6411 0.2902 0.0
C323 C 0.82429 0.50098 0.32176 0.0
H324 H 0.94324 0.5841 0.27334 0.0
C325 C 0.80628 0.53429 0.33146 0.0
C326 C 0.8376 0.58553 0.32023 0.0
H327 H 0.79922 0.46181 0.33015 0.0
H328 H 0.768 0.51993 0.34763 0.0
C329 C 0.88721 0.60217 0.29963 0.0
C330 C 0.24942 0.71889 0.82129 0.0
C331 C 0.19787 0.68766 0.81114 0.0
H332 H 0.31024 0.79318 0.83308 0.0
C333 C 0.16844 0.71044 0.80655 0.0
H334 H 0.27379 0.70343 0.82451 0.0
C335 C 0.18952 0.76204 0.81074 0.0
C336 C 0.24098 0.79329 0.82004 0.0
H337 H 0.12864 0.68836 0.80046 0.0
H338 H 0.16506 0.77741 0.80674 0.0
C339 C 0.27057 0.77076 0.82571 0.0
C340 C 0.58871 0.88683 0.85091 0.0
C341 C 0.54515 0.86224 0.80845 0.0
H342 H 0.65392 0.88806 0.89223 0.0
C343 C 0.53334 0.81622 0.778 0.0
H344 H 0.59873 0.92171 0.87672 0.0
C345 C 0.56514 0.79645 0.78749 0.0
C346 C 0.60954 0.82209 0.82789 0.0
H347 H 0.50034 0.79618 0.74463 0.0
H348 H 0.55561 0.7618 0.76134 0.0
C349 C 0.62032 0.86716 0.86039 0.0
C350 C 0.31792 0.51871 0.8 0.0
C351 C 0.29501 0.47344 0.83967 0.0
H352 H 0.38612 0.58115 0.76153 0.0
C353 C 0.3263 0.45861 0.87476 0.0
H354 H 0.29546 0.53147 0.77171 0.0
C355 C 0.37822 0.48698 0.86895 0.0
C356 C 0.40142 0.53155 0.82763 0.0
H357 H 0.31067 0.42425 0.90615 0.0
H358 H 0.40022 0.47368 0.89721 0.0
C359 C 0.37023 0.54732 0.79422 0.0
C360 C 0.16986 0.29376 0.39365 0.0
C361 C 0.1833 0.2816 0.32603 0.0
H362 H 0.12252 0.31488 0.44863 0.0
C363 C 0.16662 0.29288 0.25962 0.0
H364 H 0.18335 0.28743 0.44583 0.0
C365 C 0.13282 0.31043 0.26144 0.0
C366 C 0.1147 0.31632 0.32947 0.0
H367 H 0.17657 0.28459 0.2064 0.0
H368 H 0.11716 0.3144 0.20996 0.0
C369 C 0.13587 0.31071 0.3953 0.0
C370 C 0.18137 0.92713 0.41394 0.0
C371 C 0.15092 0.90595 0.35154 0.0
H372 H 0.25334 0.97894 0.45462 0.0
C373 C 0.17391 0.9167 0.28106 0.0
H374 H 0.16572 0.92079 0.46917 0.0
C375 C 0.22488 0.95057 0.27305 0.0
C376 C 0.2541 0.97396 0.3353 0.0
H377 H 0.15226 0.90042 0.23163 0.0
H378 H 0.24051 0.96114 0.21787 0.0
C379 C 0.23208 0.96041 0.40583 0.0
C380 C 0.80741 0.90173 0.27628 0.0
C381 C 0.80819 0.92282 0.34551 0.0
H382 H 0.79352 0.83658 0.21743 0.0
C383 C 0.78604 0.89004 0.40629 0.0
H384 H 0.82416 0.92505 0.22791 0.0
C385 C 0.7687 0.83915 0.39992 0.0
C386 C 0.77148 0.81883 0.33219 0.0
H387 H 0.78424 0.90389 0.46022 0.0
H388 H 0.75643 0.81614 0.44957 0.0
C389 C 0.78925 0.85052 0.26982 0.0
C390 C 0.31459 0.15056 0.89963 0.0
C391 C 0.30063 0.16348 0.83225 0.0
H392 H 0.3386 0.10479 0.95435 0.0
C393 C 0.31138 0.14741 0.7657 0.0
H394 H 0.30871 0.16361 0.9519 0.0
C395 C 0.33035 0.11479 0.76725 0.0
C396 C 0.33827 0.09725 0.83519 0.0
H397 H 0.30171 0.15697 0.71264 0.0
H398 H 0.33402 0.09961 0.71575 0.0
C399 C 0.33295 0.11775 0.90105 0.0
C400 C 0.91622 0.77101 0.90054 0.0
C401 C 0.95173 0.7969 0.84444 0.0
H402 H 0.84059 0.7409 0.93637 0.0
C403 C 0.93447 0.80362 0.77523 0.0
H404 H 0.92758 0.76421 0.95423 0.0
C405 C 0.88426 0.78893 0.76473 0.0
C406 C 0.84971 0.76664 0.82255 0.0
H407 H 0.96022 0.82381 0.73075 0.0
H408 H 0.87334 0.79899 0.7133 0.0
C409 C 0.86596 0.75646 0.88989 0.0
C410 C 0.97438 0.22259 0.75516 0.0
C411 C 0.99563 0.24633 0.82196 0.0
H412 H 0.92723 0.15361 0.70219 0.0
C413 C 0.97779 0.22004 0.889 0.0
H414 H 0.98773 0.242 0.70287 0.0
C415 C 0.94317 0.16967 0.88905 0.0
C416 C 0.9261 0.14428 0.82187 0.0
H417 H 0.99395 0.23749 0.94128 0.0
H418 H 0.93197 0.15007 0.94175 0.0
C419 C 0.93996 0.17181 0.75497 0.0
loop_
_geom_bond_atom_site_label_1
_geom_bond_atom_site_label_2
_geom_bond_distance
_geom_bond_site_symmetry_2
_ccdc_geom_bond_type
La0 C2 2.928 . S
La0 O20 2.521 . S
La0 O21 2.628 . S
La0 O22 2.554 . S
La0 O23 2.757 . S
La0 O24 2.470 . S
La0 O29 2.482 . S
La0 O31 2.503 . S
La1 C11 2.928 . S
La1 O23 2.482 . S
La1 O25 2.503 . S
La1 O26 2.521 . S
La1 O27 2.628 . S
La1 O28 2.554 . S
La1 O29 2.757 . S
La1 O30 2.470 . S
C2 La0 2.928 . S
C2 C3 1.503 . S
C2 O20 1.261 . S
C2 O21 1.243 . S
C3 C2 1.503 . S
C3 C4 1.394 . S
C3 C8 1.373 . S
C4 C3 1.394 . S
C4 C5 1.380 . S
C4 H32 0.930 . S
C5 C4 1.380 . S
C5 C6 1.376 . S
C5 H33 0.930 . S
C6 C5 1.376 . S
C6 C7 1.370 . S
C7 C6 1.370 . S
C7 C8 1.396 . S
C7 H34 0.929 . S
C8 C3 1.373 . S
C8 C7 1.396 . S
C8 H35 0.929 . S
C9 O22 1.240 . S
C9 O23 1.289 . S
C10 O24 1.258 . S
C10 O25 1.256 . S
C11 La1 2.928 . S
C11 C12 1.503 . S
C11 O26 1.261 . S
C11 O27 1.243 . S
C12 C11 1.503 . S
C12 C13 1.394 . S
C12 C17 1.373 . S
C13 C12 1.394 . S
C13 C14 1.380 . S
C13 H36 0.930 . S
C14 C13 1.380 . S
C14 C15 1.376 . S
C14 H37 0.930 . S
C15 C14 1.376 . S
C15 C16 1.370 . S
C16 C15 1.370 . S
C16 C17 1.396 . S
C16 H38 0.929 . S
C17 C12 1.373 . S
C17 C16 1.396 . S
C17 H39 0.929 . S
C18 O28 1.240 . S
C18 O29 1.289 . S
C19 O30 1.258 . S
C19 O31 1.256 . S
O20 La0 2.521 . S
O20 C2 1.261 . S
O21 La0 2.628 . S
O21 C2 1.243 . S
O22 La0 2.554 . S
O22 C9 1.240 . S
O23 La0 2.757 . S
O23 La1 2.482 . S
O23 C9 1.289 . S
O24 La0 2.470 . S
O24 C10 1.258 . S
O25 La1 2.503 . S
O25 C10 1.256 . S
O26 La1 2.521 . S
O26 C11 1.261 . S
O27 La1 2.628 . S
O27 C11 1.243 . S
O28 La1 2.554 . S
O28 C18 1.240 . S
O29 La0 2.482 . S
O29 La1 2.757 . S
O29 C18 1.289 . S
O30 La1 2.470 . S
O30 C19 1.258 . S
O31 La0 2.503 . S
O31 C19 1.256 . S
H32 C4 0.930 . S
H33 C5 0.930 . S
H34 C7 0.929 . S
H35 C8 0.929 . S
H36 C13 0.930 . S
H37 C14 0.930 . S
H38 C16 0.929 . S
H39 C17 0.929 . S
La40 C42 2.928 . S
La40 O60 2.521 . S
La40 O61 2.628 . S
La40 O62 2.554 . S
La40 O63 2.757 . S
La40 O64 2.470 . S
La40 O69 2.482 . S
La40 O71 2.503 . S
La41 C51 2.928 . S
La41 O63 2.482 . S
La41 O65 2.503 . S
La41 O66 2.521 . S
La41 O67 2.628 . S
La41 O68 2.554 . S
La41 O69 2.757 . S
La41 O70 2.470 . S
C42 La40 2.928 . S
C42 C43 1.503 . S
C42 O60 1.261 . S
C42 O61 1.243 . S
C43 C42 1.503 . S
C43 C44 1.394 . S
C43 C48 1.373 . S
C44 C43 1.394 . S
C44 C45 1.380 . S
C44 H72 0.930 . S
C45 C44 1.380 . S
C45 C46 1.376 . S
C45 H73 0.930 . S
C46 C45 1.376 . S
C46 C47 1.370 . S
C47 C46 1.370 . S
C47 C48 1.396 . S
C47 H74 0.929 . S
C48 C43 1.373 . S
C48 C47 1.396 . S
C48 H75 0.929 . S
C49 O62 1.240 . S
C49 O63 1.289 . S
C50 O64 1.258 . S
C50 O65 1.256 . S
C51 La41 2.928 . S
C51 C52 1.503 . S
C51 O66 1.261 . S
C51 O67 1.243 . S
C52 C51 1.503 . S
C52 C53 1.384 1_655 S
C52 C57 1.373 . S
C53 C52 1.384 1_455 S
C53 C54 1.387 . S
C53 H76 0.934 1_455 S
C54 C53 1.387 . S
C54 C55 1.376 . S
C54 H77 0.930 . S
C55 C54 1.376 . S
C55 C56 1.370 . S
C56 C55 1.370 . S
C56 C57 1.396 1_455 S
C56 H78 0.929 . S
C57 C52 1.373 . S
C57 C56 1.396 1_655 S
C57 H79 0.929 . S
C58 O68 1.240 . S
C58 O69 1.289 . S
C59 O70 1.258 . S
C59 O71 1.256 . S
O60 La40 2.521 . S
O60 C42 1.261 . S
O61 La40 2.628 . S
O61 C42 1.243 . S
O62 La40 2.554 . S
O62 C49 1.240 . S
O63 La40 2.757 . S
O63 La41 2.482 . S
O63 C49 1.289 . S
O64 La40 2.470 . S
O64 C50 1.258 . S
O65 La41 2.503 . S
O65 C50 1.256 . S
O66 La41 2.521 . S
O66 C51 1.261 . S
O67 La41 2.628 . S
O67 C51 1.243 . S
O68 La41 2.554 . S
O68 C58 1.240 . S
O69 La40 2.482 . S
O69 La41 2.757 . S
O69 C58 1.289 . S
O70 La41 2.470 . S
O70 C59 1.258 . S
O71 La40 2.503 . S
O71 C59 1.256 . S
H72 C44 0.930 . S
H73 C45 0.930 . S
H74 C47 0.929 . S
H75 C48 0.929 . S
H76 C53 0.934 1_655 S
H77 C54 0.930 . S
H78 C56 0.929 . S
H79 C57 0.929 . S
La80 C82 2.928 . S
La80 O100 2.521 . S
La80 O101 2.628 . S
La80 O102 2.554 . S
La80 O103 2.757 . S
La80 O104 2.470 . S
La80 O109 2.482 . S
La80 O111 2.503 . S
La81 C91 2.928 . S
La81 O103 2.482 . S
La81 O105 2.503 . S
La81 O106 2.521 . S
La81 O107 2.628 . S
La81 O108 2.554 . S
La81 O109 2.757 . S
La81 O110 2.470 . S
C82 La80 2.928 . S
C82 C83 1.503 . S
C82 O100 1.261 . S
C82 O101 1.243 . S
C83 C82 1.503 . S
C83 C84 1.394 . S
C83 C88 1.373 . S
C84 C83 1.394 . S
C84 C85 1.380 . S
C84 H112 0.930 . S
C85 C84 1.380 . S
C85 C86 1.376 . S
C85 H113 0.930 . S
C86 C85 1.376 . S
C86 C87 1.370 . S
C87 C86 1.370 . S
C87 C88 1.396 . S
C87 H114 0.929 . S
C88 C83 1.373 . S
C88 C87 1.396 . S
C88 H115 0.929 . S
C89 O102 1.240 . S
C89 O103 1.289 . S
C90 O104 1.258 . S
C90 O105 1.256 . S
C91 La81 2.928 . S
C91 C92 1.503 . S
C91 O106 1.261 . S
C91 O107 1.243 . S
C92 C91 1.503 . S
C92 C93 1.382 1_545 S
C92 C97 1.373 . S
C93 C92 1.382 1_565 S
C93 C94 1.399 . S
C93 H116 0.923 1_565 S
C94 C93 1.399 . S
C94 C95 1.376 . S
C94 H117 0.930 . S
C95 C94 1.376 . S
C95 C96 1.370 . S
C96 C95 1.370 . S
C96 C97 1.396 1_565 S
C96 H118 0.929 . S
C97 C92 1.373 . S
C97 C96 1.396 1_545 S
C97 H119 0.929 . S
C98 O108 1.240 . S
C98 O109 1.289 . S
C99 O110 1.258 . S
C99 O111 1.256 . S
O100 La80 2.521 . S
O100 C82 1.261 . S
O101 La80 2.628 . S
O101 C82 1.243 . S
O102 La80 2.554 . S
O102 C89 1.240 . S
O103 La80 2.757 . S
O103 La81 2.482 . S
O103 C89 1.289 . S
O104 La80 2.470 . S
O104 C90 1.258 . S
O105 La81 2.503 . S
O105 C90 1.256 . S
O106 La81 2.521 . S
O106 C91 1.261 . S
O107 La81 2.628 . S
O107 C91 1.243 . S
O108 La81 2.554 . S
O108 C98 1.240 . S
O109 La80 2.482 . S
O109 La81 2.757 . S
O109 C98 1.289 . S
O110 La81 2.470 . S
O110 C99 1.258 . S
O111 La80 2.503 . S
O111 C99 1.256 . S
H112 C84 0.930 . S
H113 C85 0.930 . S
H114 C87 0.929 . S
H115 C88 0.929 . S
H116 C93 0.923 1_545 S
H117 C94 0.930 . S
H118 C96 0.929 . S
H119 C97 0.929 . S
La120 C122 2.928 . S
La120 O140 2.521 . S
La120 O141 2.628 . S
La120 O142 2.554 . S
La120 O143 2.757 . S
La120 O144 2.470 . S
La120 O149 2.482 . S
La120 O151 2.503 . S
La121 C131 2.928 . S
La121 O143 2.482 . S
La121 O145 2.503 . S
La121 O146 2.521 . S
La121 O147 2.628 . S
La121 O148 2.554 . S
La121 O149 2.757 . S
La121 O150 2.470 . S
C122 La120 2.928 . S
C122 C123 1.503 . S
C122 O140 1.261 . S
C122 O141 1.243 . S
C123 C122 1.503 . S
C123 C124 1.394 . S
C123 C128 1.373 . S
C124 C123 1.394 . S
C124 C125 1.380 . S
C124 H152 0.930 . S
C125 C124 1.380 . S
C125 C126 1.376 . S
C125 H153 0.930 . S
C126 C125 1.376 . S
C126 C127 1.370 . S
C127 C126 1.370 . S
C127 C128 1.396 . S
C127 H154 0.929 . S
C128 C123 1.373 . S
C128 C127 1.396 . S
C128 H155 0.929 . S
C129 O142 1.240 . S
C129 O143 1.289 . S
C130 O144 1.258 . S
C130 O145 1.256 . S
C131 La121 2.928 . S
C131 C132 1.503 . S
C131 O146 1.261 . S
C131 O147 1.243 . S
C132 C131 1.503 . S
C132 C133 1.394 . S
C132 C137 1.373 . S
C133 C132 1.394 . S
C133 C134 1.380 . S
C133 H156 0.930 . S
C134 C133 1.380 . S
C134 C135 1.376 . S
C134 H157 0.930 . S
C135 C134 1.376 . S
C135 C136 1.370 . S
C136 C135 1.370 . S
C136 C137 1.396 . S
C136 H158 0.929 . S
C137 C132 1.373 . S
C137 C136 1.396 . S
C137 H159 0.929 . S
C138 O148 1.240 . S
C138 O149 1.289 . S
C139 O150 1.258 . S
C139 O151 1.256 . S
O140 La120 2.521 . S
O140 C122 1.261 . S
O141 La120 2.628 . S
O141 C122 1.243 . S
O142 La120 2.554 . S
O142 C129 1.240 . S
O143 La120 2.757 . S
O143 La121 2.482 . S
O143 C129 1.289 . S
O144 La120 2.470 . S
O144 C130 1.258 . S
O145 La121 2.503 . S
O145 C130 1.256 . S
O146 La121 2.521 . S
O146 C131 1.261 . S
O147 La121 2.628 . S
O147 C131 1.243 . S
O148 La121 2.554 . S
O148 C138 1.240 . S
O149 La120 2.482 . S
O149 La121 2.757 . S
O149 C138 1.289 . S
O150 La121 2.470 . S
O150 C139 1.258 . S
O151 La120 2.503 . S
O151 C139 1.256 . S
H152 C124 0.930 . S
H153 C125 0.930 . S
H154 C127 0.929 . S
H155 C128 0.929 . S
H156 C133 0.930 . S
H157 C134 0.930 . S
H158 C136 0.929 . S
H159 C137 0.929 . S
La160 C162 2.928 . S
La160 O180 2.521 . S
La160 O181 2.628 . S
La160 O182 2.554 . S
La160 O183 2.757 . S
La160 O184 2.470 . S
La160 O189 2.482 . S
La160 O191 2.503 . S
La161 C171 2.928 . S
La161 O183 2.482 . S
La161 O185 2.503 . S
La161 O186 2.521 . S
La161 O187 2.628 . S
La161 O188 2.554 . S
La161 O189 2.757 . S
La161 O190 2.470 . S
C162 La160 2.928 . S
C162 C163 1.503 . S
C162 O180 1.261 . S
C162 O181 1.243 . S
C163 C162 1.503 . S
C163 C164 1.382 1_455 S
C163 C168 1.373 . S
C164 C163 1.382 1_655 S
C164 C165 1.399 . S
C164 H192 0.923 1_655 S
C165 C164 1.399 . S
C165 C166 1.376 . S
C165 H193 0.930 . S
C166 C165 1.376 . S
C166 C167 1.370 . S
C167 C166 1.370 . S
C167 C168 1.396 1_655 S
C167 H194 0.929 . S
C168 C163 1.373 . S
C168 C167 1.396 1_455 S
C168 H195 0.929 . S
C169 O182 1.240 . S
C169 O183 1.289 . S
C170 O184 1.258 . S
C170 O185 1.256 . S
C171 La161 2.928 . S
C171 C172 1.503 . S
C171 O186 1.261 . S
C171 O187 1.243 . S
C172 C171 1.503 . S
C172 C173 1.394 . S
C172 C177 1.373 . S
C173 C172 1.394 . S
C173 C174 1.380 . S
C173 H196 0.930 . S
C174 C173 1.380 . S
C174 C175 1.376 . S
C174 H197 0.930 . S
C175 C174 1.376 . S
C175 C176 1.370 . S
C176 C175 1.370 . S
C176 C177 1.396 . S
C176 H198 0.929 . S
C177 C172 1.373 . S
C177 C176 1.396 . S
C177 H199 0.929 . S
C178 O188 1.240 . S
C178 O189 1.289 . S
C179 O190 1.258 . S
C179 O191 1.256 . S
O180 La160 2.521 . S
O180 C162 1.261 . S
O181 La160 2.628 . S
O181 C162 1.243 . S
O182 La160 2.554 . S
O182 C169 1.240 . S
O183 La160 2.757 . S
O183 La161 2.482 . S
O183 C169 1.289 . S
O184 La160 2.470 . S
O184 C170 1.258 . S
O185 La161 2.503 . S
O185 C170 1.256 . S
O186 La161 2.521 . S
O186 C171 1.261 . S
O187 La161 2.628 . S
O187 C171 1.243 . S
O188 La161 2.554 . S
O188 C178 1.240 . S
O189 La160 2.482 . S
O189 La161 2.757 . S
O189 C178 1.289 . S
O190 La161 2.470 . S
O190 C179 1.258 . S
O191 La160 2.503 . S
O191 C179 1.256 . S
H192 C164 0.923 1_455 S
H193 C165 0.930 . S
H194 C167 0.929 . S
H195 C168 0.929 . S
H196 C173 0.930 . S
H197 C174 0.930 . S
H198 C176 0.929 . S
H199 C177 0.929 . S
La200 C202 2.928 . S
La200 O220 2.521 . S
La200 O221 2.628 . S
La200 O222 2.554 . S
La200 O223 2.757 . S
La200 O224 2.470 . S
La200 O229 2.482 . S
La200 O231 2.503 . S
La201 C211 2.928 . S
La201 O223 2.482 . S
La201 O225 2.503 . S
La201 O226 2.521 . S
La201 O227 2.628 . S
La201 O228 2.554 . S
La201 O229 2.757 . S
La201 O230 2.470 . S
C202 La200 2.928 . S
C202 C203 1.503 . S
C202 O220 1.261 . S
C202 O221 1.243 . S
C203 C202 1.503 . S
C203 C204 1.384 1_565 S
C203 C208 1.373 . S
C204 C203 1.384 1_545 S
C204 C205 1.387 . S
C204 H232 0.934 1_545 S
C205 C204 1.387 . S
C205 C206 1.376 . S
C205 H233 0.930 . S
C206 C205 1.376 . S
C206 C207 1.370 . S
C207 C206 1.370 . S
C207 C208 1.396 1_545 S
C207 H234 0.929 . S
C208 C203 1.373 . S
C208 C207 1.396 1_565 S
C208 H235 0.929 . S
C209 O222 1.240 . S
C209 O223 1.289 . S
C210 O224 1.258 . S
C210 O225 1.256 . S
C211 La201 2.928 . S
C211 C212 1.503 . S
C211 O226 1.261 . S
C211 O227 1.243 . S
C212 C211 1.503 . S
C212 C213 1.394 . S
C212 C217 1.373 . S
C213 C212 1.394 . S
C213 C214 1.380 . S
C213 H236 0.930 . S
C214 C213 1.380 . S
C214 C215 1.376 . S
C214 H237 0.930 . S
C215 C214 1.376 . S
C215 C216 1.370 . S
C216 C215 1.370 . S
C216 C217 1.396 . S
C216 H238 0.929 . S
C217 C212 1.373 . S
C217 C216 1.396 . S
C217 H239 0.929 . S
C218 O228 1.240 . S
C218 O229 1.289 . S
C219 O230 1.258 . S
C219 O231 1.256 . S
O220 La200 2.521 . S
O220 C202 1.261 . S
O221 La200 2.628 . S
O221 C202 1.243 . S
O222 La200 2.554 . S
O222 C209 1.240 . S
O223 La200 2.757 . S
O223 La201 2.482 . S
O223 C209 1.289 . S
O224 La200 2.470 . S
O224 C210 1.258 . S
O225 La201 2.503 . S
O225 C210 1.256 . S
O226 La201 2.521 . S
O226 C211 1.261 . S
O227 La201 2.628 . S
O227 C211 1.243 . S
O228 La201 2.554 . S
O228 C218 1.240 . S
O229 La200 2.482 . S
O229 La201 2.757 . S
O229 C218 1.289 . S
O230 La201 2.470 . S
O230 C219 1.258 . S
O231 La200 2.503 . S
O231 C219 1.256 . S
H232 C204 0.934 1_565 S
H233 C205 0.930 . S
H234 C207 0.929 . S
H235 C208 0.929 . S
H236 C213 0.930 . S
H237 C214 0.930 . S
H238 C216 0.929 . S
H239 C217 0.929 . S
C240 C241 1.387 1_554 S
C240 H244 0.950 . S
C240 C249 1.383 1_565 S
C241 C240 1.387 1_556 S
C241 C243 1.387 1_565 S
H242 C249 0.951 1_565 S
C243 C241 1.387 1_545 S
C243 C245 1.390 . S
C243 H247 0.950 . S
H244 C240 0.950 . S
C245 C243 1.390 . S
C245 C246 1.387 1_556 S
C245 H248 0.950 . S
C246 C245 1.387 1_554 S
C246 C249 1.395 . S
H247 C243 0.950 . S
H248 C245 0.950 . S
C249 C240 1.383 1_545 S
C249 H242 0.951 1_545 S
C249 C246 1.395 . S
C250 C251 1.387 . S
C250 H254 0.950 . S
C250 C259 1.390 . S
C251 C250 1.387 . S
C251 C253 1.387 . S
H252 C259 0.950 . S
C253 C251 1.387 . S
C253 C255 1.390 . S
C253 H257 0.950 . S
H254 C250 0.950 . S
C255 C253 1.390 . S
C255 C256 1.387 . S
C255 H258 0.950 . S
C256 C255 1.387 . S
C256 C259 1.387 . S
H257 C253 0.950 . S
H258 C255 0.950 . S
C259 C250 1.390 . S
C259 H252 0.950 . S
C259 C256 1.387 . S
C260 C261 1.387 . S
C260 H264 0.950 . S
C260 C269 1.390 1_655 S
C261 C260 1.387 . S
C261 C263 1.387 1_554 S
H262 C269 0.950 . S
C263 C261 1.387 1_556 S
C263 C265 1.390 1_655 S
C263 H267 0.950 . S
H264 C260 0.950 . S
C265 C263 1.390 1_455 S
C265 C266 1.387 . S
C265 H268 0.950 . S
C266 C265 1.387 . S
C266 C269 1.387 1_556 S
H267 C263 0.950 . S
H268 C265 0.950 . S
C269 C260 1.390 1_455 S
C269 H262 0.950 . S
C269 C266 1.387 1_554 S
C270 C271 1.387 . S
C270 H274 0.950 . S
C270 C279 1.390 1_545 S
C271 C270 1.387 . S
C271 C273 1.387 . S
H272 C279 0.950 . S
C273 C271 1.387 . S
C273 C275 1.390 1_545 S
C273 H277 0.950 . S
H274 C270 0.950 . S
C275 C273 1.390 1_565 S
C275 C276 1.387 . S
C275 H278 0.950 . S
C276 C275 1.387 . S
C276 C279 1.387 . S
H277 C273 0.950 . S
H278 C275 0.950 . S
C279 C270 1.390 1_565 S
C279 H272 0.950 . S
C279 C276 1.387 . S
C280 C281 1.387 . S
C280 H284 0.950 . S
C280 C289 1.390 . S
C281 C280 1.387 . S
C281 C283 1.387 1_556 S
H282 C289 0.950 . S
C283 C281 1.387 1_554 S
C283 C285 1.390 . S
C283 H287 0.950 . S
H284 C280 0.950 . S
C285 C283 1.390 . S
C285 C286 1.387 . S
C285 H288 0.950 . S
C286 C285 1.387 . S
C286 C289 1.387 1_554 S
H287 C283 0.950 . S
H288 C285 0.950 . S
C289 C280 1.390 . S
C289 H282 0.950 . S
C289 C286 1.387 1_556 S
C290 C291 1.387 . S
C290 H294 0.950 . S
C290 C299 1.390 1_655 S
C291 C290 1.387 . S
C291 C293 1.387 . S
H292 C299 0.950 . S
C293 C291 1.387 . S
C293 C295 1.390 1_655 S
C293 H297 0.950 . S
H294 C290 0.950 . S
C295 C293 1.390 1_455 S
C295 C296 1.387 . S
C295 H298 0.950 . S
C296 C295 1.387 . S
C296 C299 1.387 . S
H297 C293 0.950 . S
H298 C295 0.950 . S
C299 C290 1.390 1_455 S
C299 H292 0.950 . S
C299 C296 1.387 . S
C300 C301 1.387 . S
C300 H304 0.950 . S
C300 C309 1.390 . S
C301 C300 1.387 . S
C301 C303 1.387 . S
H302 C309 0.950 . S
C303 C301 1.387 . S
C303 C305 1.390 . S
C303 H307 0.950 . S
H304 C300 0.950 . S
C305 C303 1.390 . S
C305 C306 1.387 . S
C305 H308 0.950 . S
C306 C305 1.387 . S
C306 C309 1.387 . S
H307 C303 0.950 . S
H308 C305 0.950 . S
C309 C300 1.390 . S
C309 H302 0.950 . S
C309 C306 1.387 . S
C310 C311 1.387 . S
C310 H314 0.950 . S
C310 C319 1.390 . S
C311 C310 1.387 . S
C311 C313 1.387 . S
H312 C319 0.950 . S
C313 C311 1.387 . S
C313 C315 1.390 . S
C313 H317 0.950 . S
H314 C310 0.950 . S
C315 C313 1.390 . S
C315 C316 1.387 . S
C315 H318 0.950 . S
C316 C315 1.387 . S
C316 C319 1.387 . S
H317 C313 0.950 . S
H318 C315 0.950 . S
C319 C310 1.390 . S
C319 H312 0.950 . S
C319 C316 1.387 . S
C320 C321 1.387 . S
C320 H324 0.950 . S
C320 C329 1.390 . S
C321 C320 1.387 . S
C321 C323 1.387 . S
H322 C329 0.950 . S
C323 C321 1.387 . S
C323 C325 1.390 . S
C323 H327 0.950 . S
H324 C320 0.950 . S
C325 C323 1.390 . S
C325 C326 1.387 . S
C325 H328 0.950 . S
C326 C325 1.387 . S
C326 C329 1.387 . S
H327 C323 0.950 . S
H328 C325 0.950 . S
C329 C320 1.390 . S
C329 H322 0.950 . S
C329 C326 1.387 . S
C330 C331 1.387 . S
C330 H334 0.950 . S
C330 C339 1.390 . S
C331 C330 1.387 . S
C331 C333 1.387 . S
H332 C339 0.950 . S
C333 C331 1.387 . S
C333 C335 1.390 . S
C333 H337 0.950 . S
H334 C330 0.950 . S
C335 C333 1.390 . S
C335 C336 1.387 . S
C335 H338 0.950 . S
C336 C335 1.387 . S
C336 C339 1.387 . S
H337 C333 0.950 . S
H338 C335 0.950 . S
C339 C330 1.390 . S
C339 H332 0.950 . S
C339 C336 1.387 . S
C340 C341 1.387 . S
C340 H344 0.950 . S
C340 C349 1.390 . S
C341 C340 1.387 . S
C341 C343 1.387 . S
H342 C349 0.950 . S
C343 C341 1.387 . S
C343 C345 1.390 . S
C343 H347 0.950 . S
H344 C340 0.950 . S
C345 C343 1.390 . S
C345 C346 1.387 . S
C345 H348 0.950 . S
C346 C345 1.387 . S
C346 C349 1.387 . S
H347 C343 0.950 . S
H348 C345 0.950 . S
C349 C340 1.390 . S
C349 H342 0.950 . S
C349 C346 1.387 . S
C350 C351 1.387 . S
C350 H354 0.950 . S
C350 C359 1.390 . S
C351 C350 1.387 . S
C351 C353 1.387 . S
H352 C359 0.950 . S
C353 C351 1.387 . S
C353 C355 1.390 . S
C353 H357 0.950 . S
H354 C350 0.950 . S
C355 C353 1.390 . S
C355 C356 1.387 . S
C355 H358 0.950 . S
C356 C355 1.387 . S
C356 C359 1.387 . S
H357 C353 0.950 . S
H358 C355 0.950 . S
C359 C350 1.390 . S
C359 H352 0.950 . S
C359 C356 1.387 . S
C360 C361 1.387 . S
C360 H364 0.950 . S
C360 C369 1.390 . S
C361 C360 1.387 . S
C361 C363 1.387 . S
H362 C369 0.950 . S
C363 C361 1.387 . S
C363 C365 1.390 . S
C363 H367 0.950 . S
H364 C360 0.950 . S
C365 C363 1.390 . S
C365 C366 1.387 . S
C365 H368 0.950 1_455 S
C366 C365 1.387 . S
C366 C369 1.387 . S
H367 C363 0.950 . S
H368 C365 0.950 1_655 S
C369 C360 1.390 . S
C369 H362 0.950 . S
C369 C366 1.387 . S
C370 C371 1.387 1_545 S
C370 H374 0.950 . S
C370 C379 1.390 . S
C371 C370 1.387 1_565 S
C371 C373 1.387 . S
H372 C379 0.950 . S
C373 C371 1.387 . S
C373 C375 1.390 . S
C373 H377 0.950 . S
H374 C370 0.950 . S
C375 C373 1.390 . S
C375 C376 1.387 . S
C375 H378 0.950 . S
C376 C375 1.387 . S
C376 C379 1.387 1_565 S
H377 C373 0.950 . S
H378 C375 0.950 . S
C379 C370 1.390 . S
C379 H372 0.950 . S
C379 C376 1.387 1_545 S
C380 C381 1.387 . S
C380 H384 0.950 . S
C380 C389 1.390 . S
C381 C380 1.387 . S
C381 C383 1.387 . S
H382 C389 0.950 . S
C383 C381 1.387 . S
C383 C385 1.390 . S
C383 H387 0.950 . S
H384 C380 0.950 . S
C385 C383 1.390 . S
C385 C386 1.387 . S
C385 H388 0.950 . S
C386 C385 1.387 . S
C386 C389 1.387 . S
H387 C383 0.950 . S
H388 C385 0.950 . S
C389 C380 1.390 . S
C389 H382 0.950 . S
C389 C386 1.387 . S
C390 C391 1.387 . S
C390 H394 0.950 1_545 S
C390 C399 1.390 1_545 S
C391 C390 1.387 . S
C391 C393 1.387 . S
H392 C399 0.950 . S
C393 C391 1.387 . S
C393 C395 1.390 . S
C393 H397 0.950 . S
H394 C390 0.950 1_565 S
C395 C393 1.390 . S
C395 C396 1.387 . S
C395 H398 0.950 . S
C396 C395 1.387 . S
C396 C399 1.387 1_545 S
H397 C393 0.950 . S
H398 C395 0.950 . S
C399 C390 1.390 1_565 S
C399 H392 0.950 . S
C399 C396 1.387 1_565 S
C400 C401 1.387 . S
C400 H404 0.950 . S
C400 C409 1.390 . S
C401 C400 1.387 . S
C401 C403 1.387 . S
H402 C409 0.950 . S
C403 C401 1.387 . S
C403 C405 1.390 . S
C403 H407 0.950 . S
H404 C400 0.950 . S
C405 C403 1.390 . S
C405 C406 1.387 . S
C405 H408 0.950 . S
C406 C405 1.387 . S
C406 C409 1.387 . S
H407 C403 0.950 . S
H408 C405 0.950 . S
C409 C400 1.390 . S
C409 H402 0.950 . S
C409 C406 1.387 . S
C410 C411 1.387 . S
C410 H414 0.950 . S
C410 C419 1.390 . S
C411 C410 1.387 . S
C411 C413 1.387 1_655 S
H412 C419 0.950 . S
C413 C411 1.387 1_455 S
C413 C415 1.390 1_455 S
C413 H417 0.950 . S
H414 C410 0.950 . S
C415 C413 1.390 1_655 S
C415 C416 1.387 . S
C415 H418 0.950 1_655 S
C416 C415 1.387 . S
C416 C419 1.387 . S
H417 C413 0.950 . S
H418 C415 0.950 1_455 S
C419 C410 1.390 . S
C419 H412 0.950 . S
C419 C416 1.387 . S
C241 C178 2.381 . S
C246 C18 2.652 . S
C251 C209 2.650 . S
C256 C49 2.378 . S
C261 C98 2.652 . S
C266 C138 2.382 . S
C271 C9 2.379 . S
C276 C169 2.650 . S
C281 C218 2.380 . S
C286 C58 2.651 . S
C291 C89 2.382 . S
C296 C129 2.652 . S
C301 C6 1.949 . S
C306 C90 1.858 . S
C311 C46 1.949 . S
C316 C10 1.858 . S
C321 C86 1.949 . S
C326 C50 1.859 . S
C331 C135 1.946 . S
C336 C179 1.855 . S
C341 C175 1.949 . S
C346 C219 1.859 . S
C351 C139 1.855 . S
C356 C215 1.946 . S
C361 C15 1.431 . S
C366 C99 1.515 1_455 S
C371 C55 1.428 . S
C376 C19 1.513 1_565 S
C381 C95 1.426 . S
C386 C59 1.511 . S
C391 C126 1.426 . S
C396 C170 1.511 1_545 S
C401 C166 1.426 . S
C406 C210 1.511 . S
C411 C130 1.515 1_655 S
C416 C206 1.431 . S
