# Generated by pormake.
# Topology dia, (4)-cn, num edge types: 1
# Building blocks:
#     Node 0, Type 0, BuildingBlock: AZAVOO_clean_sbu_0, # of connection points: 4
#     Node 1, Type 0, BuildingBlock: AZAVOO_clean_sbu_0, # of connection points: 4
#     Node 2, Type 0, BuildingBlock: AZAVOO_clean_sbu_0, # of connection points: 4
#     Node 3, Type 0, BuildingBlock: AZAVOO_clean_sbu_0, # of connection points: 4
#     Node 4, Type 0, BuildingBlock: AZAVOO_clean_sbu_0, # of connection points: 4
#     Node 5, Type 0, BuildingBlock: AZAVOO_clean_sbu_0, # of connection points: 4
#     Node 6, Type 0, BuildingBlock: AZAVOO_clean_sbu_0, # of connection points: 4
#     Node 7, Type 0, BuildingBlock: AZAVOO_clean_sbu_0, # of connection points: 4
#     Edge 8, Type (0, 0), BuildingBlock: TEMPAE_clean_linker_10, # of connection points: 2
#     Edge 9, Type (0, 0), BuildingBlock: TEMPAE_clean_linker_10, # of connection points: 2
#     Edge 10, Type (0, 0), BuildingBlock: TEMPAE_clean_linker_10, # of connection points: 2
#     Edge 11, Type (0, 0), BuildingBlock: TEMPAE_clean_linker_10, # of connection points: 2
#     Edge 12, Type (0, 0), BuildingBlock: TEMPAE_clean_linker_10, # of connection points: 2
#     Edge 13, Type (0, 0), BuildingBlock: TEMPAE_clean_linker_10, # of connection points: 2
#     Edge 14, Type (0, 0), BuildingBlock: TEMPAE_clean_linker_10, # of connection points: 2
#     Edge 15, Type (0, 0), BuildingBlock: TEMPAE_clean_linker_10, # of connection points: 2
#     Edge 16, Type (0, 0), BuildingBlock: TEMPAE_clean_linker_10, # of connection points: 2
#     Edge 17, Type (0, 0), BuildingBlock: TEMPAE_clean_linker_10, # of connection points: 2
#     Edge 18, Type (0, 0), BuildingBlock: TEMPAE_clean_linker_10, # of connection points: 2
#     Edge 19, Type (0, 0), BuildingBlock: TEMPAE_clean_linker_10, # of connection points: 2
#     Edge 20, Type (0, 0), BuildingBlock: TEMPAE_clean_linker_10, # of connection points: 2
#     Edge 21, Type (0, 0), BuildingBlock: TEMPAE_clean_linker_10, # of connection points: 2
#     Edge 22, Type (0, 0), BuildingBlock: TEMPAE_clean_linker_10, # of connection points: 2
#     Edge 23, Type (0, 0), BuildingBlock: TEMPAE_clean_linker_10, # of connection points: 2
# Relax obj value: 0.001
# Max RMSD: 0.026
# Mean RMSD: 0.026
data_MOF--net-dia--node1-AZAVOO_clean_sbu_0--edge1-TEMPAE_clean_linker_10
_symmetry_space_group_name_H-M    P1
_symmetry_Int_Tables_number       1
_symmetry_cell_setting            triclinic
loop_
_symmetry_equiv_pos_as_xyz
'x, y, z'
_cell_length_a     35.811134
_cell_length_b     35.895972
_cell_length_c     35.785906
_cell_angle_alpha  95.964032
_cell_angle_beta   96.764196
_cell_angle_gamma 95.918846
loop_
_atom_site_label
_atom_site_type_symbol
_atom_site_fract_x
_atom_site_fract_y
_atom_site_fract_z
_atom_type_partial_charge
Mg0 Mg 0.11222 0.14884 0.62369 0.0
O1 O 0.07289 0.10471 0.58164 0.0
O2 O 0.03856 0.13608 0.54188 0.0
Mg3 Mg 0.05206 0.19932 0.56129 0.0
C4 C 0.0482 0.10538 0.55297 0.0
C5 C 0.17312 0.11452 0.67132 0.0
O6 O 0.17612 0.14973 0.68678 0.0
O7 O 0.14907 0.16435 0.57867 0.0
O8 O 0.11147 0.19764 0.544 0.0
O9 O 0.06858 0.15037 0.66323 0.0
O10 O 0.07378 0.18797 0.61855 0.0
C11 C 0.14289 0.18439 0.5516 0.0
C12 C 0.05642 0.17756 0.64585 0.0
O13 O 0.14873 0.10399 0.64236 0.0
Mg14 Mg 0.83707 0.36533 0.83882 0.0
O15 O 0.88341 0.40016 0.88279 0.0
O16 O 0.91069 0.35985 0.91786 0.0
Mg17 Mg 0.88546 0.29985 0.8941 0.0
C18 C 0.90719 0.39331 0.91006 0.0
C19 C 0.79253 0.41751 0.79632 0.0
O20 O 0.76799 0.38961 0.80225 0.0
O21 O 0.88106 0.34701 0.80207 0.0
O22 O 0.90841 0.30691 0.83765 0.0
O23 O 0.7959 0.36572 0.88121 0.0
O24 O 0.83332 0.32134 0.872 0.0
C25 C 0.90517 0.3237 0.80783 0.0
C26 C 0.80786 0.33459 0.89021 0.0
O27 O 0.82731 0.41682 0.80821 0.0
Mg28 Mg 0.64923 0.15921 0.14258 0.0
O29 O 0.59926 0.12272 0.10433 0.0
O30 O 0.55876 0.16157 0.08295 0.0
Mg31 Mg 0.58308 0.22219 0.10494 0.0
C32 C 0.5684 0.12852 0.08507 0.0
C33 C 0.71793 0.11336 0.15692 0.0
O34 O 0.73558 0.14781 0.16192 0.0
O35 O 0.67403 0.17721 0.09078 0.0
O36 O 0.63316 0.21652 0.07094 0.0
O37 O 0.61865 0.15871 0.1933 0.0
O38 O 0.61473 0.20131 0.15304 0.0
C39 C 0.66296 0.20023 0.06809 0.0
C40 C 0.60414 0.18804 0.18262 0.0
O41 O 0.68249 0.10851 0.14602 0.0
Mg42 Mg 0.82877 0.84103 0.33501 0.0
O43 O 0.87053 0.8782 0.38068 0.0
O44 O 0.89372 0.84125 0.42223 0.0
Mg45 Mg 0.86155 0.7817 0.40701 0.0
C46 C 0.89253 0.87338 0.41008 0.0
C47 C 0.81927 0.91898 0.30897 0.0
O48 O 0.81178 0.92332 0.34413 0.0
O49 O 0.87738 0.81387 0.31069 0.0
O50 O 0.88958 0.77355 0.3533 0.0
O51 O 0.78069 0.85063 0.3687 0.0
O52 O 0.81586 0.80397 0.37334 0.0
C53 C 0.89418 0.78652 0.32206 0.0
C54 C 0.78876 0.8211 0.38447 0.0
O55 O 0.82962 0.88781 0.29622 0.0
Mg56 Mg 0.13441 0.64156 0.14848 0.0
O57 O 0.09162 0.60465 0.10254 0.0
O58 O 0.04928 0.64228 0.0821 0.0
Mg59 Mg 0.06359 0.70169 0.11404 0.0
C60 C 0.06191 0.61022 0.08121 0.0
C61 C 0.20443 0.60684 0.17546 0.0
O62 O 0.20909 0.64131 0.19308 0.0
O63 O 0.16165 0.67032 0.1029 0.0
O64 O 0.11948 0.71067 0.08932 0.0
O65 O 0.0987 0.62967 0.19453 0.0
O66 O 0.09351 0.67631 0.15932 0.0
C67 C 0.15114 0.69799 0.08623 0.0
C68 C 0.08147 0.65795 0.18521 0.0
O69 O 0.17549 0.59709 0.15085 0.0
Mg70 Mg 0.35597 0.35383 0.35852 0.0
O71 O 0.39538 0.39393 0.40402 0.0
O72 O 0.42184 0.35893 0.44568 0.0
Mg73 Mg 0.40008 0.29653 0.42692 0.0
C74 C 0.41729 0.39085 0.43411 0.0
C75 C 0.31346 0.4072 0.31405 0.0
O76 O 0.28739 0.38626 0.32792 0.0
O77 O 0.40679 0.33571 0.33131 0.0
O78 O 0.42744 0.29659 0.37218 0.0
O79 O 0.30833 0.35442 0.39436 0.0
O80 O 0.34984 0.31327 0.39552 0.0
C81 C 0.42859 0.31148 0.34136 0.0
C82 C 0.32075 0.32541 0.40808 0.0
O83 O 0.34787 0.40135 0.32132 0.0
Mg84 Mg 0.32937 0.87131 0.86675 0.0
O85 O 0.37285 0.91135 0.90974 0.0
O86 O 0.3997 0.8757 0.95066 0.0
Mg87 Mg 0.37638 0.81402 0.93333 0.0
C88 C 0.39584 0.90768 0.939 0.0
C89 C 0.2849 0.92082 0.81985 0.0
O90 O 0.25972 0.89802 0.83287 0.0
O91 O 0.37668 0.85042 0.83628 0.0
O92 O 0.40269 0.81479 0.87785 0.0
O93 O 0.28416 0.87496 0.90451 0.0
O94 O 0.32498 0.83285 0.90595 0.0
C95 C 0.40085 0.82833 0.84613 0.0
C96 C 0.29708 0.8468 0.91947 0.0
O97 O 0.31982 0.91758 0.82844 0.0
Mg98 Mg 0.61994 0.67575 0.64811 0.0
O99 O 0.57769 0.63198 0.60868 0.0
O100 O 0.53174 0.66181 0.58162 0.0
Mg101 Mg 0.54631 0.72498 0.60108 0.0
C102 C 0.54679 0.63172 0.58677 0.0
C103 C 0.6778 0.63456 0.69073 0.0
O104 O 0.67248 0.66296 0.71505 0.0
O105 O 0.64578 0.69513 0.59746 0.0
O106 O 0.59967 0.72563 0.57109 0.0
O107 O 0.58425 0.67241 0.69516 0.0
O108 O 0.57972 0.71286 0.65278 0.0
C109 C 0.63252 0.7145 0.57204 0.0
C110 C 0.5681 0.69986 0.682 0.0
O111 O 0.66028 0.63146 0.65732 0.0
C112 C 0.27373 0.32099 0.45432 0.0
C113 C 0.30092 0.30482 0.43494 0.0
C114 C 0.25168 0.29966 0.47623 0.0
C115 C 0.25639 0.2611 0.47784 0.0
C116 C 0.28479 0.24509 0.45947 0.0
C117 C 0.30702 0.26729 0.43858 0.0
C118 C 0.2223 0.31795 0.49635 0.0
C119 C 0.29017 0.20394 0.4599 0.0
C120 C 0.20973 0.21103 0.55163 0.0
C121 C 0.17426 0.19733 0.53133 0.0
C122 C 0.2373 0.23124 0.53441 0.0
C123 C 0.22935 0.23684 0.49583 0.0
C124 C 0.19449 0.22072 0.47462 0.0
C125 C 0.16709 0.20166 0.49283 0.0
C126 C 0.27384 0.24863 0.55808 0.0
C127 C 0.18546 0.22501 0.43309 0.0
H128 H 0.26915 0.35005 0.45175 0.0
H129 H 0.3279 0.25456 0.42347 0.0
H130 H 0.19357 0.30606 0.48255 0.0
H131 H 0.22459 0.31188 0.52626 0.0
H132 H 0.22517 0.349 0.49588 0.0
H133 H 0.31569 0.19672 0.44711 0.0
H134 H 0.29265 0.19639 0.48928 0.0
H135 H 0.265 0.18628 0.44373 0.0
H136 H 0.21496 0.20817 0.58161 0.0
H137 H 0.13958 0.19104 0.47724 0.0
H138 H 0.27448 0.27978 0.56165 0.0
H139 H 0.29851 0.24193 0.54367 0.0
H140 H 0.27709 0.23881 0.5866 0.0
H141 H 0.18264 0.255 0.42967 0.0
H142 H 0.15874 0.20769 0.41993 0.0
H143 H 0.20884 0.21671 0.41742 0.0
C144 C 0.70746 0.57489 0.67782 0.0
C145 C 0.70071 0.60501 0.70345 0.0
C146 C 0.72617 0.54508 0.6905 0.0
C147 C 0.73796 0.54524 0.72972 0.0
C148 C 0.73254 0.57629 0.75547 0.0
C149 C 0.7142 0.60586 0.742 0.0
C150 C 0.73193 0.51271 0.66212 0.0
C151 C 0.74435 0.57742 0.79756 0.0
C152 C 0.74018 0.45197 0.7703 0.0
C153 C 0.77915 0.44952 0.77758 0.0
C154 C 0.72652 0.48261 0.75408 0.0
C155 C 0.75243 0.51145 0.74445 0.0
C156 C 0.79181 0.50876 0.75078 0.0
C157 C 0.80476 0.47789 0.76751 0.0
C158 C 0.68432 0.48458 0.74819 0.0
C159 C 0.82022 0.53877 0.74044 0.0
H160 H 0.69739 0.57416 0.64795 0.0
H161 H 0.70925 0.62905 0.76203 0.0
H162 H 0.76161 0.5061 0.66655 0.0
H163 H 0.71341 0.48711 0.6662 0.0
H164 H 0.72525 0.51885 0.63243 0.0
H165 H 0.74068 0.60479 0.81345 0.0
H166 H 0.72714 0.5546 0.8087 0.0
H167 H 0.77443 0.5724 0.80324 0.0
H168 H 0.72015 0.43023 0.77798 0.0
H169 H 0.8349 0.47608 0.77286 0.0
H170 H 0.67477 0.48721 0.71804 0.0
H171 H 0.67749 0.50998 0.7653 0.0
H172 H 0.66793 0.45935 0.75631 0.0
H173 H 0.81316 0.54343 0.71038 0.0
H174 H 0.84962 0.53124 0.74473 0.0
H175 H 0.81905 0.56587 0.75798 0.0
C176 C 0.55728 0.06351 0.04974 0.0
C177 C 0.54281 0.09609 0.06412 0.0
C178 C 0.53326 0.03334 0.02841 0.0
C179 C 0.49373 0.0354 0.02228 0.0
C180 C 0.47894 0.068 0.03735 0.0
C181 C 0.50371 0.09814 0.05762 0.0
C182 C 0.5502 0.9994 0.01213 0.0
C183 C 0.43691 0.07089 0.03241 0.0
C184 C 0.43247 0.97148 0.94152 0.0
C185 C 0.41936 0.94127 0.96023 0.0
C186 C 0.45701 1.00219 0.96128 0.0
C187 C 0.46773 1.00314 0.00082 0.0
C188 C 0.45364 0.97317 0.01996 0.0
C189 C 0.43008 0.94239 -0.00065 0.0
C190 C 0.47209 0.03321 0.93972 0.0
C191 C 0.46347 0.97359 0.06223 0.0
H192 H 0.58753 0.06197 0.0544 0.0
H193 H 0.49236 0.12318 0.06893 0.0
H194 H 0.53895 0.97385 0.02402 0.0
H195 H 0.54201 0.99445 0.98097 0.0
H196 H 0.58159 1.00281 0.01818 0.0
H197 H 0.42992 0.09788 0.04651 0.0
H198 H 0.42597 0.06856 0.00185 0.0
H199 H 0.4218 0.04722 0.04432 0.0
H200 H 0.4245 0.97053 0.91123 0.0
H201 H 0.41975 0.9192 0.01396 0.0
H202 H 0.5035 0.03577 0.94322 0.0
H203 H 0.46395 0.06064 0.95133 0.0
H204 H 0.46142 0.02803 0.90899 0.0
H205 H 0.49444 0.97358 0.06946 0.0
H206 H 0.4488 0.94891 0.07306 0.0
H207 H 0.45567 0.99974 0.07722 0.0
C208 C 0.94607 0.78671 0.28115 0.0
C209 C 0.91799 0.76685 0.29775 0.0
C210 C 0.97139 0.76731 0.2616 0.0
C211 C 0.96749 0.72731 0.2578 0.0
C212 C 0.93788 0.70727 0.27298 0.0
C213 C 0.91384 0.72734 0.29329 0.0
C214 C 0.00313 0.78955 0.24633 0.0
C215 C 0.93207 0.66467 0.26847 0.0
C216 C 0.0176 0.67903 0.18225 0.0
C217 C 0.04985 0.6701 0.20397 0.0
C218 C -0.01018 0.69659 0.19952 0.0
C219 C -0.00477 0.70637 0.23927 0.0
C220 C 0.02739 0.69644 0.2614 0.0
C221 C 0.05415 0.67783 0.24342 0.0
C222 C 0.95521 0.70546 0.17519 0.0
C223 C 0.03435 0.70692 0.30381 0.0
H224 H 0.94926 0.81728 0.28492 0.0
H225 H 0.89175 0.71209 0.30593 0.0
H226 H 0.03079 0.78332 0.26025 0.0
H227 H 0.00215 0.78106 0.21551 0.0
H228 H 0.00183 0.82045 0.25109 0.0
H229 H 0.90577 0.6535 0.2792 0.0
H230 H 0.93064 0.65343 0.23819 0.0
H231 H 0.95644 0.65377 0.28414 0.0
H232 H 0.01436 0.67268 0.15168 0.0
H233 H 0.0795 0.6713 0.25997 0.0
H234 H 0.95526 0.73645 0.17623 0.0
H235 H 0.92914 0.69429 0.18623 0.0
H236 H 0.95396 0.69336 0.14514 0.0
H237 H 0.03655 0.73803 0.31049 0.0
H238 H 0.06069 0.69699 0.31685 0.0
H239 H 0.0102 0.6947 0.31713 0.0
C240 C 0.29629 0.96817 0.77412 0.0
C241 C 0.27213 0.94985 0.79634 0.0
C242 C 0.28352 0.99515 0.7513 0.0
C243 C 0.24598 1.00437 0.75131 0.0
C244 C 0.22168 0.98616 0.77399 0.0
C245 C 0.23495 0.95899 0.79594 0.0
C246 C 0.31004 0.01365 0.72708 0.0
C247 C 0.18165 0.99559 0.77533 0.0
C248 C 0.21724 0.09794 0.72493 0.0
C249 C 0.19532 0.08711 0.68956 0.0
C250 C 0.23538 0.0716 0.74459 0.0
C251 C 0.23186 0.03354 0.72835 0.0
C252 C 0.21144 0.02281 0.69179 0.0
C253 C 0.19323 0.04969 0.6729 0.0
C254 C 0.2566 0.08415 0.78364 0.0
C255 C 0.20744 0.98258 0.67333 0.0
H256 H 0.32499 0.96107 0.77417 0.0
H257 H 0.21615 0.94514 0.81322 0.0
H258 H 0.29737 1.00873 0.69691 0.0
H259 H 0.31432 0.0446 0.7353 0.0
H260 H 0.33808 1.00283 0.72967 0.0
H261 H 0.16651 0.97909 0.79472 0.0
H262 H 0.18198 0.02605 0.78489 0.0
H263 H 0.16539 0.98992 0.74657 0.0
H264 H 0.21917 0.12682 0.738 0.0
H265 H 0.17663 0.04115 0.64544 0.0
H266 H 0.28524 0.07475 0.78585 0.0
H267 H 0.24132 0.07097 0.80506 0.0
H268 H 0.25956 0.11526 0.79082 0.0
H269 H 0.23548 0.97186 0.67467 0.0
H270 H 0.19452 0.97973 0.64324 0.0
H271 H 0.18934 0.96437 0.68889 0.0
C272 C 0.94244 0.42206 0.97246 0.0
C273 C 0.93101 0.42509 0.93414 0.0
C274 C 0.96436 0.45204 -0.00389 0.0
C275 C 0.97609 0.48551 0.98084 0.0
C276 C 0.96533 0.48843 0.94195 0.0
C277 C 0.94239 0.45838 0.91918 0.0
C278 C 0.97425 0.44818 0.03763 0.0
C279 C 0.97807 0.52325 0.92439 0.0
C280 C 0.0009 0.5765 0.04759 0.0
C281 C 0.0404 0.57835 0.05531 0.0
C282 C 0.97967 0.54635 0.02361 0.0
C283 C -0.00151 0.51789 0.00596 0.0
C284 C 0.03849 0.51997 0.0131 0.0
C285 C 0.05894 0.54989 0.03822 0.0
C286 C 0.93704 0.54463 0.0177 0.0
C287 C 0.05965 0.49072 -0.00594 0.0
H288 H 0.93344 0.39648 0.98423 0.0
H289 H 0.93387 0.46069 0.8895 0.0
H290 H 0.00542 0.4517 0.04533 0.0
H291 H 0.96297 0.47074 0.05511 0.0
H292 H 0.96266 0.42041 0.04511 0.0
H293 H 0.96914 0.52021 0.89332 0.0
H294 H 0.96616 0.54796 0.9376 0.0
H295 H 0.00937 0.52939 0.92981 0.0
H296 H 0.98644 0.59829 0.06105 0.0
H297 H 0.0895 0.55142 0.04392 0.0
H298 H 0.92416 0.51794 0.02638 0.0
H299 H 0.92682 0.54477 0.98724 0.0
H300 H 0.92674 0.56864 0.03408 0.0
H301 H 0.05113 0.46264 0.00274 0.0
H302 H 0.09084 0.49739 0.00115 0.0
H303 H 0.0523 0.4886 0.96284 0.0
C304 C 0.48071 0.31862 0.30106 0.0
C305 C 0.45247 0.29581 0.31458 0.0
C306 C 0.50545 0.3024 0.27811 0.0
C307 C 0.50075 0.2628 0.26778 0.0
C308 C 0.47105 0.24006 0.28012 0.0
C309 C 0.44766 0.25682 0.30391 0.0
C310 C 0.53739 0.32733 0.26614 0.0
C311 C 0.46441 0.19792 0.26885 0.0
C312 C 0.54647 0.22108 0.18518 0.0
C313 C 0.57705 0.20625 0.20404 0.0
C314 C 0.5214 0.23984 0.20555 0.0
C315 C 0.52784 0.24461 0.24563 0.0
C316 C 0.55904 0.23002 0.26476 0.0
C317 C 0.58296 0.21045 0.24366 0.0
C318 C 0.48768 0.25384 0.18425 0.0
C319 C 0.56718 0.23513 0.30748 0.0
H320 H 0.48432 0.34877 0.30965 0.0
H321 H 0.42546 0.2394 0.3143 0.0
H322 H 0.56492 0.31923 0.27836 0.0
H323 H 0.53644 0.32338 0.23487 0.0
H324 H 0.53637 0.35767 0.27548 0.0
H325 H 0.4381 0.18489 0.2782 0.0
H326 H 0.46248 0.19149 0.23763 0.0
H327 H 0.48863 0.18451 0.28157 0.0
H328 H 0.54164 0.21732 0.15452 0.0
H329 H 0.60694 0.19927 0.25814 0.0
H330 H 0.48797 0.28458 0.19215 0.0
H331 H 0.46114 0.23979 0.19215 0.0
H332 H 0.48708 0.24836 0.15304 0.0
H333 H 0.56894 0.26545 0.31835 0.0
H334 H 0.59403 0.22435 0.31781 0.0
H335 H 0.54374 0.22005 0.31968 0.0
C336 C 0.74787 0.82978 0.43608 0.0
C337 C 0.76754 0.80643 0.41366 0.0
C338 C 0.72711 0.81509 0.46326 0.0
C339 C 0.72522 0.77604 0.46705 0.0
C340 C 0.745 0.75243 0.44433 0.0
C341 C 0.76634 0.76803 0.41828 0.0
C342 C 0.7071 0.84122 0.48777 0.0
C343 C 0.74283 0.7105 0.44681 0.0
C344 C 0.69551 0.73843 0.55558 0.0
C345 C 0.6568 0.7274 0.54442 0.0
C346 C 0.71808 0.75499 0.53087 0.0
C347 C 0.70164 0.75946 0.49389 0.0
C348 C 0.66278 0.74724 0.48214 0.0
C349 C 0.64068 0.73186 0.50781 0.0
C350 C 0.75924 0.76848 0.54459 0.0
C351 C 0.64457 0.75043 0.44251 0.0
H352 H 0.749 0.85951 0.43261 0.0
H353 H 0.78127 0.74984 0.40067 0.0
H354 H 0.67606 0.83312 0.48186 0.0
H355 H 0.71567 0.83866 0.51814 0.0
H356 H 0.71332 0.87117 0.48292 0.0
H357 H 0.7599 0.6961 0.42701 0.0
H358 H 0.75299 0.70518 0.47605 0.0
H359 H 0.71295 0.69756 0.44018 0.0
H360 H 0.70781 0.73551 0.58415 0.0
H361 H 0.6107 0.72325 0.49924 0.0
H362 H 0.76501 0.79905 0.54218 0.0
H363 H 0.77757 0.75367 0.52657 0.0
H364 H 0.76741 0.76373 0.57449 0.0
H365 H 0.64641 0.78046 0.43735 0.0
H366 H 0.61431 0.73839 0.43752 0.0
H367 H 0.65992 0.73556 0.42142 0.0
C368 C 0.22254 0.54092 0.17239 0.0
C369 C 0.22859 0.57854 0.18904 0.0
C370 C 0.24103 0.51289 0.18909 0.0
C371 C 0.26573 0.52269 0.22345 0.0
C372 C 0.27388 0.56098 0.23891 0.0
C373 C 0.25542 0.58844 0.22139 0.0
C374 C 0.2322 0.47246 0.17129 0.0
C375 C 0.29978 0.57267 0.27563 0.0
C376 C 0.26707 0.45034 0.29339 0.0
C377 C 0.30225 0.43705 0.29089 0.0
C378 C 0.25508 0.47816 0.27162 0.0
C379 C 0.27853 0.49271 0.24606 0.0
C380 C 0.31403 0.47925 0.2431 0.0
C381 C 0.32569 0.45179 0.26589 0.0
C382 C 0.21733 0.4922 0.27625 0.0
C383 C 0.33947 0.49366 0.2157 0.0
H384 H 0.20218 0.53305 0.14718 0.0
H385 H 0.26057 0.61747 0.23435 0.0
H386 H 0.25852 0.45868 0.17085 0.0
H387 H 0.21368 0.45657 0.18841 0.0
H388 H 0.2175 0.47026 0.14188 0.0
H389 H 0.30685 0.60377 0.28138 0.0
H390 H 0.28577 0.56268 0.29942 0.0
H391 H 0.32647 0.55957 0.27523 0.0
H392 H 0.24892 0.43925 0.31283 0.0
H393 H 0.3528 0.44139 0.26367 0.0
H394 H 0.19855 0.487 0.24884 0.0
H395 H 0.22139 0.5231 0.28488 0.0
H396 H 0.20275 0.4783 0.29775 0.0
H397 H 0.3242 0.48866 0.18647 0.0
H398 H 0.36587 0.47985 0.21629 0.0
H399 H 0.34719 0.52455 0.22251 0.0
C400 C 0.77304 0.33171 0.94657 0.0
C401 C 0.79178 0.31364 0.919 0.0
C402 C 0.7551 0.31106 0.97199 0.0
C403 C 0.75502 0.27136 0.96885 0.0
C404 C 0.77457 0.25313 0.94151 0.0
C405 C 0.79317 0.27459 0.91724 0.0
C406 C 0.73539 0.33158 0.00154 0.0
C407 C 0.77431 0.21079 0.93667 0.0
C408 C 0.72651 0.22086 0.05097 0.0
C409 C 0.6874 0.21236 0.0403 0.0
C410 C 0.7492 0.23952 0.02766 0.0
C411 C 0.73237 0.24877 0.99251 0.0
C412 C 0.69328 0.23798 0.98062 0.0
C413 C 0.67111 0.22046 0.005 0.0
C414 C 0.7906 0.25132 0.04162 0.0
C415 C 0.67457 0.24622 0.94277 0.0
H416 H 0.77217 0.36193 0.94809 0.0
H417 H 0.80742 0.26049 0.8957 0.0
H418 H 0.70436 0.32355 -0.0048 0.0
H419 H 0.74453 0.32336 0.02995 0.0
H420 H 0.74122 0.3627 0.00263 0.0
H421 H 0.7927 0.20122 0.91552 0.0
H422 H 0.78388 0.20071 0.96406 0.0
H423 H 0.74496 0.19722 0.92726 0.0
H424 H 0.73894 0.21507 0.07858 0.0
H425 H 0.64082 0.2138 -0.00316 0.0
H426 H 0.79586 0.28256 0.04678 0.0
H427 H 0.8084 0.24203 0.01988 0.0
H428 H 0.79986 0.23966 0.06831 0.0
H429 H 0.67452 0.27711 0.9427 0.0
H430 H 0.64486 0.23265 0.93625 0.0
H431 H 0.69068 0.23623 0.91978 0.0
C432 C 0.79638 0.98076 0.29769 0.0
C433 C 0.81117 0.94819 0.28365 0.0
C434 C 0.78454 1.00688 0.27361 0.0
C435 C 0.78779 1.00055 0.23447 0.0
C436 C 0.80423 0.96862 0.22032 0.0
C437 C 0.81563 0.94271 0.24507 0.0
C438 C 0.76718 0.04057 0.28991 0.0
C439 C 0.80863 0.96118 0.17887 0.0
C440 C 0.71651 0.04735 0.17393 0.0
C441 C 0.73743 0.08183 0.17052 0.0
C442 C 0.73318 0.01966 0.19286 0.0
C443 C 0.77183 0.02641 0.20844 0.0
C444 C 0.79378 0.05994 0.20266 0.0
C445 C 0.77628 0.08734 0.18391 0.0
C446 C 0.70874 0.9843 0.19839 0.0
C447 C 0.83521 0.0679 0.21822 0.0
H448 H 0.79297 0.98539 0.32744 0.0
H449 H 0.82716 0.91771 0.23398 0.0
H450 H 0.78227 0.06701 0.28295 0.0
H451 H 0.73722 0.03906 0.27708 0.0
H452 H 0.76804 0.0422 0.32118 0.0
H453 H 0.82544 0.93738 0.17308 0.0
H454 H 0.7803 0.95437 0.16191 0.0
H455 H 0.82258 0.98674 0.16898 0.0
H456 H 0.68653 0.04269 0.16352 0.0
H457 H 0.79279 0.11372 0.18109 0.0
H458 H 0.70496 0.98468 0.22876 0.0
H459 H 0.72264 0.95895 0.19043 0.0
H460 H 0.68033 0.9816 0.18145 0.0
H461 H 0.83815 0.07415 0.24952 0.0
H462 H 0.84948 0.09233 0.20666 0.0
H463 H 0.85008 0.04286 0.21167 0.0
C464 C 0.90231 0.94095 0.43724 0.0
C465 C 0.91684 0.90638 0.43121 0.0
C466 C 0.92467 0.97247 0.45797 0.0
C467 C 0.96294 0.96972 0.47166 0.0
C468 C 0.97796 0.93499 0.46492 0.0
C469 C 0.95445 0.90347 0.44542 0.0
C470 C 0.90718 1.00858 0.46559 0.0
C471 C 0.01897 0.9313 0.47775 0.0
C472 C 0.02541 0.06361 0.49287 0.0
C473 C 0.02896 0.06951 0.53248 0.0
C474 C 0.00542 0.03043 0.4728 0.0
C475 C 0.98717 1.00335 0.4928 0.0
C476 C -0.0092 0.00926 0.53292 0.0
C477 C 0.01233 0.04199 0.55233 0.0
C478 C 0.00346 0.02457 0.43018 0.0
C479 C 0.97071 0.98178 0.55522 0.0
H480 H 0.87309 0.94306 0.42647 0.0
H481 H 0.96574 0.87676 0.44043 0.0
H482 H 0.91082 0.01779 0.49652 0.0
H483 H 0.92174 0.03134 0.45202 0.0
H484 H 0.8765 1.00542 0.45477 0.0
H485 H 0.02656 0.9027 0.46913 0.0
H486 H 0.03751 0.95232 0.46562 0.0
H487 H 0.02505 0.93732 0.50903 0.0
H488 H 0.0385 0.08493 0.47762 0.0
H489 H 0.01482 0.04687 0.58299 0.0
H490 H 0.97398 0.02528 0.41695 0.0
H491 H 0.01174 0.99644 0.42097 0.0
H492 H 0.02216 0.04648 0.41932 0.0
H493 H 0.93969 0.97963 0.54657 0.0
H494 H 0.97662 0.99038 0.58626 0.0
H495 H 0.97938 0.95325 0.54903 0.0
C496 C 0.9646 0.30523 0.78635 0.0
C497 C 0.92685 0.31142 0.77737 0.0
C498 C 0.98353 0.28609 0.7596 0.0
C499 C 0.96369 0.27173 0.72353 0.0
C500 C 0.92608 0.27958 0.71369 0.0
C501 C 0.9082 0.29987 0.74072 0.0
C502 C 0.02408 0.2794 0.77076 0.0
C503 C 0.9038 0.26416 0.67582 0.0
C504 C 0.02577 0.2366 0.65212 0.0
C505 C 0.02699 0.19916 0.6598 0.0
C506 C 0.00361 0.26029 0.6712 0.0
C507 C 0.98154 0.24582 0.69784 0.0
C508 C 0.98017 0.20716 0.70321 0.0
C509 C 0.00337 0.18437 0.68447 0.0
C510 C 0.00627 0.30142 0.66509 0.0
C511 C 0.95601 0.19043 0.73053 0.0
H512 H 0.97888 0.31422 0.81478 0.0
H513 H 0.87874 0.30422 0.73408 0.0
H514 H 0.02535 0.24909 0.77378 0.0
H515 H 0.04164 0.28669 0.74841 0.0
H516 H 0.03669 0.29617 0.79799 0.0
H517 H 0.87711 0.27715 0.67056 0.0
H518 H 0.92084 0.26882 0.65243 0.0
H519 H 0.89654 0.23325 0.67505 0.0
H520 H 0.04409 0.24821 0.6331 0.0
H521 H 0.004 0.15534 0.69016 0.0
H522 H 0.023 0.31855 0.69029 0.0
H523 H 0.9778 0.31116 0.66182 0.0
H524 H 0.02021 0.30699 0.63976 0.0
H525 H 0.96833 0.20134 0.76002 0.0
H526 H 0.95404 0.15914 0.72752 0.0
H527 H 0.927 0.19883 0.72604 0.0
C528 C 0.53521 0.75587 0.69751 0.0
C529 C 0.53932 0.71794 0.70119 0.0
C530 C 0.51159 0.77543 0.71893 0.0
C531 C 0.49073 0.75622 0.74372 0.0
C532 C 0.49321 0.71736 0.74604 0.0
C533 C 0.51806 0.69877 0.72517 0.0
C534 C 0.51053 0.81708 0.71648 0.0
C535 C 0.47041 0.6957 0.77133 0.0
C536 C 0.46272 0.80992 0.83086 0.0
C537 C 0.42505 0.8144 0.81867 0.0
C538 C 0.48483 0.79219 0.80621 0.0
C539 C 0.46828 0.77737 0.76904 0.0
C540 C 0.43032 0.78229 0.75645 0.0
C541 C 0.40928 0.80138 0.78133 0.0
C542 C 0.52563 0.78866 0.8202 0.0
C543 C 0.41146 0.76595 0.71739 0.0
H544 H 0.5519 0.77086 0.6792 0.0
H545 H 0.52109 0.66939 0.72783 0.0
H546 H 0.48093 0.82332 0.71002 0.0
H547 H 0.52223 0.83322 0.74426 0.0
H548 H 0.52711 0.82739 0.69449 0.0
H549 H 0.4725 0.66493 0.76686 0.0
H550 H 0.48062 0.70608 0.80145 0.0
H551 H 0.44016 0.70032 0.76608 0.0
H552 H 0.47474 0.82002 0.85983 0.0
H553 H 0.37986 0.80433 0.77225 0.0
H554 H 0.54438 0.79954 0.80022 0.0
H555 H 0.52949 0.75854 0.82149 0.0
H556 H 0.53492 0.80428 0.8488 0.0
H557 H 0.42799 0.77627 0.69544 0.0
H558 H 0.38207 0.77319 0.71163 0.0
H559 H 0.41063 0.73478 0.71447 0.0
C560 C 0.19219 0.70129 0.0348 0.0
C561 C 0.17757 0.71899 0.06559 0.0
C562 C 0.21397 0.72266 0.01267 0.0
C563 C 0.22202 0.76222 0.02257 0.0
C564 C 0.20895 0.7797 0.05502 0.0
C565 C 0.18628 0.7579 0.07578 0.0
C566 C 0.22678 0.70325 0.97773 0.0
C567 C 0.21792 0.82157 0.06715 0.0
C568 C 0.29968 0.81328 0.97709 0.0
C569 C 0.27846 0.8289 0.94854 0.0
C570 C 0.28171 0.79221 0.00213 0.0
C571 C 0.24169 0.78578 -0.00244 0.0
C572 C 0.22019 0.80204 0.96905 0.0
C573 C 0.23891 0.82397 0.94523 0.0
C574 C 0.30546 0.77651 0.03315 0.0
C575 C 0.17745 0.79526 0.9629 0.0
H576 H 0.18511 0.67116 0.02706 0.0
H577 H 0.17505 0.77132 0.09994 0.0
H578 H 0.21314 0.71399 0.95215 0.0
H579 H 0.25782 0.70972 0.9784 0.0
H580 H 0.21958 0.67214 0.97491 0.0
H581 H 0.20919 0.82992 0.09532 0.0
H582 H 0.24872 0.83028 0.06834 0.0
H583 H 0.20304 0.83736 0.04609 0.0
H584 H 0.3303 0.81753 0.97983 0.0
H585 H 0.22259 0.83573 0.92277 0.0
H586 H 0.3011 0.74525 0.02872 0.0
H587 H 0.29654 0.7854 0.06106 0.0
H588 H 0.33614 0.78592 0.03418 0.0
H589 H 0.16809 0.76453 0.95709 0.0
H590 H 0.16503 0.8093 0.93892 0.0
H591 H 0.16588 0.80584 0.98887 0.0
C592 C 0.44772 0.45747 0.4392 0.0
C593 C 0.43748 0.42549 0.45678 0.0
C594 C 0.46661 0.49059 0.46045 0.0
C595 C 0.47441 0.49213 0.50036 0.0
C596 C 0.46387 0.45998 0.51827 0.0
C597 C 0.44603 0.42687 0.4962 0.0
C598 C 0.47827 0.52391 0.44017 0.0
C599 C 0.47076 0.46079 0.56081 0.0
C600 C 0.54996 0.56702 0.55459 0.0
C601 C 0.52825 0.59554 0.56582 0.0
C602 C 0.53287 0.53334 0.53301 0.0
C603 C 0.49301 0.5276 0.52341 0.0
C604 C 0.47089 0.55596 0.53552 0.0
C605 C 0.48883 0.58981 0.55608 0.0
C606 C 0.55753 0.50424 0.51981 0.0
C607 C 0.42826 0.55053 0.52678 0.0
H608 H 0.44142 0.45641 0.40869 0.0
H609 H 0.43785 0.40232 0.50994 0.0
H610 H 0.46339 0.54818 0.44942 0.0
H611 H 0.5091 0.5328 0.44759 0.0
H612 H 0.47184 0.51751 0.40888 0.0
H613 H 0.46047 0.43355 0.57038 0.0
H614 H 0.50143 0.46742 0.57097 0.0
H615 H 0.45622 0.4834 0.57443 0.0
H616 H 0.58048 0.5715 0.56177 0.0
H617 H 0.47193 0.61169 0.56496 0.0
H618 H 0.55308 0.4989 0.48841 0.0
H619 H 0.54952 0.47712 0.53071 0.0
H620 H 0.5881 0.5132 0.52928 0.0
H621 H 0.4198 0.54739 0.49569 0.0
H622 H 0.41508 0.57452 0.53982 0.0
H623 H 0.41667 0.52425 0.53726 0.0
loop_
_geom_bond_atom_site_label_1
_geom_bond_atom_site_label_2
_geom_bond_distance
_geom_bond_site_symmetry_2
_ccdc_geom_bond_type
Mg0 O1 2.028 . S
Mg0 O7 1.986 . S
Mg0 O9 2.114 . S
Mg0 O10 2.251 . S
Mg0 O13 2.010 . S
O1 Mg0 2.028 . S
O1 C4 1.250 . S
O2 Mg3 2.028 . S
O2 C4 1.248 . S
Mg3 O2 2.028 . S
Mg3 O8 2.032 . S
Mg3 O10 2.079 . S
C4 O1 1.250 . S
C4 O2 1.248 . S
C5 O6 1.264 . S
C5 O13 1.249 . S
O6 C5 1.264 . S
O7 Mg0 1.986 . S
O7 C11 1.246 . S
O8 Mg3 2.032 . S
O8 C11 1.259 . S
O9 Mg0 2.114 . S
O9 C12 1.252 . S
O10 Mg0 2.251 . S
O10 Mg3 2.079 . S
O10 C12 1.273 . S
C11 O7 1.246 . S
C11 O8 1.259 . S
C12 O9 1.252 . S
C12 O10 1.273 . S
O13 Mg0 2.010 . S
O13 C5 1.249 . S
Mg14 O15 2.028 . S
Mg14 O21 1.986 . S
Mg14 O23 2.114 . S
Mg14 O24 2.251 . S
Mg14 O27 2.010 . S
O15 Mg14 2.028 . S
O15 C18 1.250 . S
O16 Mg17 2.028 . S
O16 C18 1.248 . S
Mg17 O16 2.028 . S
Mg17 O22 2.032 . S
Mg17 O24 2.079 . S
C18 O15 1.250 . S
C18 O16 1.248 . S
C19 O20 1.264 . S
C19 O27 1.249 . S
O20 C19 1.264 . S
O21 Mg14 1.986 . S
O21 C25 1.246 . S
O22 Mg17 2.032 . S
O22 C25 1.259 . S
O23 Mg14 2.114 . S
O23 C26 1.252 . S
O24 Mg14 2.251 . S
O24 Mg17 2.079 . S
O24 C26 1.273 . S
C25 O21 1.246 . S
C25 O22 1.259 . S
C26 O23 1.252 . S
C26 O24 1.273 . S
O27 Mg14 2.010 . S
O27 C19 1.249 . S
Mg28 O29 2.028 . S
Mg28 O35 1.986 . S
Mg28 O37 2.114 . S
Mg28 O38 2.251 . S
Mg28 O41 2.010 . S
O29 Mg28 2.028 . S
O29 C32 1.250 . S
O30 Mg31 2.028 . S
O30 C32 1.248 . S
Mg31 O30 2.028 . S
Mg31 O36 2.032 . S
Mg31 O38 2.079 . S
C32 O29 1.250 . S
C32 O30 1.248 . S
C33 O34 1.264 . S
C33 O41 1.249 . S
O34 C33 1.264 . S
O35 Mg28 1.986 . S
O35 C39 1.246 . S
O36 Mg31 2.032 . S
O36 C39 1.259 . S
O37 Mg28 2.114 . S
O37 C40 1.252 . S
O38 Mg28 2.251 . S
O38 Mg31 2.079 . S
O38 C40 1.273 . S
C39 O35 1.246 . S
C39 O36 1.259 . S
C40 O37 1.252 . S
C40 O38 1.273 . S
O41 Mg28 2.010 . S
O41 C33 1.249 . S
Mg42 O43 2.028 . S
Mg42 O49 1.986 . S
Mg42 O51 2.114 . S
Mg42 O52 2.251 . S
Mg42 O55 2.010 . S
O43 Mg42 2.028 . S
O43 C46 1.250 . S
O44 Mg45 2.028 . S
O44 C46 1.248 . S
Mg45 O44 2.028 . S
Mg45 O50 2.032 . S
Mg45 O52 2.079 . S
C46 O43 1.250 . S
C46 O44 1.248 . S
C47 O48 1.264 . S
C47 O55 1.249 . S
O48 C47 1.264 . S
O49 Mg42 1.986 . S
O49 C53 1.246 . S
O50 Mg45 2.032 . S
O50 C53 1.259 . S
O51 Mg42 2.114 . S
O51 C54 1.252 . S
O52 Mg42 2.251 . S
O52 Mg45 2.079 . S
O52 C54 1.273 . S
C53 O49 1.246 . S
C53 O50 1.259 . S
C54 O51 1.252 . S
C54 O52 1.273 . S
O55 Mg42 2.010 . S
O55 C47 1.249 . S
Mg56 O57 2.028 . S
Mg56 O63 1.986 . S
Mg56 O65 2.114 . S
Mg56 O66 2.251 . S
Mg56 O69 2.010 . S
O57 Mg56 2.028 . S
O57 C60 1.250 . S
O58 Mg59 2.028 . S
O58 C60 1.248 . S
Mg59 O58 2.028 . S
Mg59 O64 2.032 . S
Mg59 O66 2.079 . S
C60 O57 1.250 . S
C60 O58 1.248 . S
C61 O62 1.264 . S
C61 O69 1.249 . S
O62 C61 1.264 . S
O63 Mg56 1.986 . S
O63 C67 1.246 . S
O64 Mg59 2.032 . S
O64 C67 1.259 . S
O65 Mg56 2.114 . S
O65 C68 1.252 . S
O66 Mg56 2.251 . S
O66 Mg59 2.079 . S
O66 C68 1.273 . S
C67 O63 1.246 . S
C67 O64 1.259 . S
C68 O65 1.252 . S
C68 O66 1.273 . S
O69 Mg56 2.010 . S
O69 C61 1.249 . S
Mg70 O71 2.028 . S
Mg70 O77 1.986 . S
Mg70 O79 2.114 . S
Mg70 O80 2.251 . S
Mg70 O83 2.010 . S
O71 Mg70 2.028 . S
O71 C74 1.250 . S
O72 Mg73 2.028 . S
O72 C74 1.248 . S
Mg73 O72 2.028 . S
Mg73 O78 2.032 . S
Mg73 O80 2.079 . S
C74 O71 1.250 . S
C74 O72 1.248 . S
C75 O76 1.264 . S
C75 O83 1.249 . S
O76 C75 1.264 . S
O77 Mg70 1.986 . S
O77 C81 1.246 . S
O78 Mg73 2.032 . S
O78 C81 1.259 . S
O79 Mg70 2.114 . S
O79 C82 1.252 . S
O80 Mg70 2.251 . S
O80 Mg73 2.079 . S
O80 C82 1.273 . S
C81 O77 1.246 . S
C81 O78 1.259 . S
C82 O79 1.252 . S
C82 O80 1.273 . S
O83 Mg70 2.010 . S
O83 C75 1.249 . S
Mg84 O85 2.028 . S
Mg84 O91 1.986 . S
Mg84 O93 2.114 . S
Mg84 O94 2.251 . S
Mg84 O97 2.010 . S
O85 Mg84 2.028 . S
O85 C88 1.250 . S
O86 Mg87 2.028 . S
O86 C88 1.248 . S
Mg87 O86 2.028 . S
Mg87 O92 2.032 . S
Mg87 O94 2.079 . S
C88 O85 1.250 . S
C88 O86 1.248 . S
C89 O90 1.264 . S
C89 O97 1.249 . S
O90 C89 1.264 . S
O91 Mg84 1.986 . S
O91 C95 1.246 . S
O92 Mg87 2.032 . S
O92 C95 1.259 . S
O93 Mg84 2.114 . S
O93 C96 1.252 . S
O94 Mg84 2.251 . S
O94 Mg87 2.079 . S
O94 C96 1.273 . S
C95 O91 1.246 . S
C95 O92 1.259 . S
C96 O93 1.252 . S
C96 O94 1.273 . S
O97 Mg84 2.010 . S
O97 C89 1.249 . S
Mg98 O99 2.028 . S
Mg98 O105 1.986 . S
Mg98 O107 2.114 . S
Mg98 O108 2.251 . S
Mg98 O111 2.010 . S
O99 Mg98 2.028 . S
O99 C102 1.250 . S
O100 Mg101 2.028 . S
O100 C102 1.248 . S
Mg101 O100 2.028 . S
Mg101 O106 2.032 . S
Mg101 O108 2.079 . S
C102 O99 1.250 . S
C102 O100 1.248 . S
C103 O104 1.264 . S
C103 O111 1.249 . S
O104 C103 1.264 . S
O105 Mg98 1.986 . S
O105 C109 1.246 . S
O106 Mg101 2.032 . S
O106 C109 1.259 . S
O107 Mg98 2.114 . S
O107 C110 1.252 . S
O108 Mg98 2.251 . S
O108 Mg101 2.079 . S
O108 C110 1.273 . S
C109 O105 1.246 . S
C109 O106 1.259 . S
C110 O107 1.252 . S
C110 O108 1.273 . S
O111 Mg98 2.010 . S
O111 C103 1.249 . S
C112 C113 1.391 . S
C112 C114 1.394 . S
C112 H128 0.931 . S
C113 C112 1.391 . S
C113 C117 1.376 . S
C114 C112 1.394 . S
C114 C115 1.369 . S
C114 C118 1.531 . S
C115 C114 1.369 . S
C115 C116 1.410 . S
C115 C123 1.503 . S
C116 C115 1.410 . S
C116 C117 1.392 . S
C116 C119 1.511 . S
C117 C113 1.376 . S
C117 C116 1.392 . S
C117 H129 0.929 . S
C118 C114 1.531 . S
C118 H130 0.960 . S
C118 H131 0.962 . S
C118 H132 0.960 . S
C119 C116 1.511 . S
C119 H133 0.961 . S
C119 H134 0.961 . S
C119 H135 0.961 . S
C120 C121 1.370 . S
C120 C122 1.363 . S
C120 H136 0.931 . S
C121 C120 1.370 . S
C121 C125 1.408 . S
C122 C120 1.363 . S
C122 C123 1.370 . S
C122 C126 1.524 . S
C123 C115 1.503 . S
C123 C122 1.370 . S
C123 C124 1.403 . S
C124 C123 1.403 . S
C124 C125 1.404 . S
C124 C127 1.539 . S
C125 C121 1.408 . S
C125 C124 1.404 . S
C125 H137 0.930 . S
C126 C122 1.524 . S
C126 H138 0.956 . S
C126 H139 0.961 . S
C126 H140 0.961 . S
C127 C124 1.539 . S
C127 H141 0.958 . S
C127 H142 0.961 . S
C127 H143 0.960 . S
H128 C112 0.931 . S
H129 C117 0.929 . S
H130 C118 0.960 . S
H131 C118 0.962 . S
H132 C118 0.960 . S
H133 C119 0.961 . S
H134 C119 0.961 . S
H135 C119 0.961 . S
H136 C120 0.931 . S
H137 C125 0.930 . S
H138 C126 0.956 . S
H139 C126 0.961 . S
H140 C126 0.961 . S
H141 C127 0.958 . S
H142 C127 0.961 . S
H143 C127 0.960 . S
C144 C145 1.391 . S
C144 C146 1.394 . S
C144 H160 0.931 . S
C145 C144 1.391 . S
C145 C149 1.376 . S
C146 C144 1.394 . S
C146 C147 1.369 . S
C146 C150 1.531 . S
C147 C146 1.369 . S
C147 C148 1.410 . S
C147 C155 1.503 . S
C148 C147 1.410 . S
C148 C149 1.392 . S
C148 C151 1.511 . S
C149 C145 1.376 . S
C149 C148 1.392 . S
C149 H161 0.929 . S
C150 C146 1.531 . S
C150 H162 0.960 . S
C150 H163 0.962 . S
C150 H164 0.960 . S
C151 C148 1.511 . S
C151 H165 0.961 . S
C151 H166 0.961 . S
C151 H167 0.961 . S
C152 C153 1.370 . S
C152 C154 1.363 . S
C152 H168 0.931 . S
C153 C152 1.370 . S
C153 C157 1.408 . S
C154 C152 1.363 . S
C154 C155 1.370 . S
C154 C158 1.524 . S
C155 C147 1.503 . S
C155 C154 1.370 . S
C155 C156 1.403 . S
C156 C155 1.403 . S
C156 C157 1.404 . S
C156 C159 1.539 . S
C157 C153 1.408 . S
C157 C156 1.404 . S
C157 H169 0.930 . S
C158 C154 1.524 . S
C158 H170 0.956 . S
C158 H171 0.961 . S
C158 H172 0.961 . S
C159 C156 1.539 . S
C159 H173 0.958 . S
C159 H174 0.961 . S
C159 H175 0.960 . S
H160 C144 0.931 . S
H161 C149 0.929 . S
H162 C150 0.960 . S
H163 C150 0.962 . S
H164 C150 0.960 . S
H165 C151 0.961 . S
H166 C151 0.961 . S
H167 C151 0.961 . S
H168 C152 0.931 . S
H169 C157 0.930 . S
H170 C158 0.956 . S
H171 C158 0.961 . S
H172 C158 0.961 . S
H173 C159 0.958 . S
H174 C159 0.961 . S
H175 C159 0.960 . S
C176 C177 1.391 . S
C176 C178 1.394 . S
C176 H192 0.931 . S
C177 C176 1.391 . S
C177 C181 1.376 . S
C178 C176 1.394 . S
C178 C179 1.369 . S
C178 C182 1.531 1_544 S
C179 C178 1.369 . S
C179 C180 1.410 . S
C179 C187 1.503 1_544 S
C180 C179 1.410 . S
C180 C181 1.392 . S
C180 C183 1.511 . S
C181 C177 1.376 . S
C181 C180 1.392 . S
C181 H193 0.929 . S
C182 C178 1.531 1_566 S
C182 H194 0.960 . S
C182 H195 0.955 1_565 S
C182 H196 0.960 . S
C183 C180 1.511 . S
C183 H197 0.961 . S
C183 H198 0.961 . S
C183 H199 0.961 . S
C184 C185 1.370 . S
C184 C186 1.363 . S
C184 H200 0.931 . S
C185 C184 1.370 . S
C185 C189 1.408 . S
C186 C184 1.363 . S
C186 C187 1.370 . S
C186 C190 1.524 1_565 S
C187 C179 1.503 1_566 S
C187 C186 1.370 . S
C187 C188 1.403 . S
C188 C187 1.403 . S
C188 C189 1.404 . S
C188 C191 1.539 1_556 S
C189 C185 1.408 . S
C189 C188 1.404 . S
C189 H201 0.930 . S
C190 C186 1.524 1_545 S
C190 H202 0.956 . S
C190 H203 0.961 . S
C190 H204 0.961 . S
C191 C188 1.539 1_554 S
C191 H205 0.958 . S
C191 H206 0.961 . S
C191 H207 0.960 . S
H192 C176 0.931 . S
H193 C181 0.929 . S
H194 C182 0.960 . S
H195 C182 0.955 1_545 S
H196 C182 0.960 . S
H197 C183 0.961 . S
H198 C183 0.961 . S
H199 C183 0.961 . S
H200 C184 0.931 . S
H201 C189 0.930 . S
H202 C190 0.956 . S
H203 C190 0.961 . S
H204 C190 0.961 . S
H205 C191 0.958 . S
H206 C191 0.961 . S
H207 C191 0.960 . S
C208 C209 1.391 . S
C208 C210 1.394 . S
C208 H224 0.931 . S
C209 C208 1.391 . S
C209 C213 1.376 . S
C210 C208 1.394 . S
C210 C211 1.369 . S
C210 C214 1.531 1_655 S
C211 C210 1.369 . S
C211 C212 1.410 . S
C211 C219 1.503 1_655 S
C212 C211 1.410 . S
C212 C213 1.392 . S
C212 C215 1.511 . S
C213 C209 1.376 . S
C213 C212 1.392 . S
C213 H225 0.929 . S
C214 C210 1.531 1_455 S
C214 H226 0.960 . S
C214 H227 0.962 . S
C214 H228 0.960 . S
C215 C212 1.511 . S
C215 H229 0.961 . S
C215 H230 0.961 . S
C215 H231 0.961 . S
C216 C217 1.370 . S
C216 C218 1.382 . S
C216 H232 0.931 . S
C217 C216 1.370 . S
C217 C221 1.408 . S
C218 C216 1.382 . S
C218 C219 1.381 . S
C218 C222 1.495 1_455 S
C219 C211 1.503 1_455 S
C219 C218 1.381 . S
C219 C220 1.403 . S
C220 C219 1.403 . S
C220 C221 1.404 . S
C220 C223 1.539 . S
C221 C217 1.408 . S
C221 C220 1.404 . S
C221 H233 0.930 . S
C222 C218 1.495 1_655 S
C222 H234 0.956 . S
C222 H235 0.961 . S
C222 H236 0.961 . S
C223 C220 1.539 . S
C223 H237 0.958 . S
C223 H238 0.961 . S
C223 H239 0.960 . S
H224 C208 0.931 . S
H225 C213 0.929 . S
H226 C214 0.960 . S
H227 C214 0.962 . S
H228 C214 0.960 . S
H229 C215 0.961 . S
H230 C215 0.961 . S
H231 C215 0.961 . S
H232 C216 0.931 . S
H233 C221 0.930 . S
H234 C222 0.956 . S
H235 C222 0.961 . S
H236 C222 0.961 . S
H237 C223 0.958 . S
H238 C223 0.961 . S
H239 C223 0.960 . S
C240 C241 1.391 . S
C240 C242 1.394 . S
C240 H256 0.931 . S
C241 C240 1.391 . S
C241 C245 1.376 . S
C242 C240 1.394 . S
C242 C243 1.369 . S
C242 C246 1.531 . S
C243 C242 1.369 . S
C243 C244 1.410 . S
C243 C251 1.503 1_565 S
C244 C243 1.410 . S
C244 C245 1.392 . S
C244 C247 1.527 . S
C245 C241 1.376 . S
C245 C244 1.392 . S
C245 H257 0.929 . S
C246 C242 1.531 . S
C246 H258 0.960 . S
C246 H259 0.962 . S
C246 H260 0.960 . S
C247 C244 1.527 . S
C247 H261 0.958 1_565 S
C247 H262 0.933 1_565 S
C247 H263 0.976 . S
C248 C249 1.370 . S
C248 C250 1.363 . S
C248 H264 0.931 . S
C249 C248 1.370 . S
C249 C253 1.408 . S
C250 C248 1.363 . S
C250 C251 1.370 . S
C250 C254 1.524 . S
C251 C243 1.503 1_545 S
C251 C250 1.370 . S
C251 C252 1.403 1_545 S
C252 C251 1.403 1_565 S
C252 C253 1.404 1_565 S
C252 C255 1.539 . S
C253 C249 1.408 . S
C253 C252 1.404 1_545 S
C253 H265 0.930 . S
C254 C250 1.524 . S
C254 H266 0.956 . S
C254 H267 0.961 . S
C254 H268 0.961 . S
C255 C252 1.539 . S
C255 H269 0.958 . S
C255 H270 0.961 . S
C255 H271 0.960 . S
H256 C240 0.931 . S
H257 C245 0.929 . S
H258 C246 0.960 . S
H259 C246 0.962 . S
H260 C246 0.960 . S
H261 C247 0.958 1_545 S
H262 C247 0.933 1_545 S
H263 C247 0.976 . S
H264 C248 0.931 . S
H265 C253 0.930 . S
H266 C254 0.956 . S
H267 C254 0.961 . S
H268 C254 0.961 . S
H269 C255 0.958 . S
H270 C255 0.961 . S
H271 C255 0.960 . S
C272 C273 1.391 . S
C272 C274 1.394 . S
C272 H288 0.931 . S
C273 C272 1.391 . S
C273 C277 1.376 . S
C274 C272 1.394 . S
C274 C275 1.369 . S
C274 C278 1.531 1_655 S
C275 C274 1.369 . S
C275 C276 1.410 . S
C275 C283 1.503 1_656 S
C276 C275 1.410 . S
C276 C277 1.392 . S
C276 C279 1.511 . S
C277 C273 1.376 . S
C277 C276 1.392 . S
C277 H289 0.929 . S
C278 C274 1.531 1_455 S
C278 H290 0.960 . S
C278 H291 0.962 1_556 S
C278 H292 0.960 . S
C279 C276 1.511 . S
C279 H293 0.961 . S
C279 H294 0.961 . S
C279 H295 0.961 . S
C280 C281 1.370 . S
C280 C282 1.363 . S
C280 H296 0.931 . S
C281 C280 1.370 . S
C281 C285 1.408 . S
C282 C280 1.363 . S
C282 C283 1.370 . S
C282 C286 1.524 1_455 S
C283 C275 1.503 1_454 S
C283 C282 1.370 . S
C283 C284 1.403 1_554 S
C284 C283 1.403 1_556 S
C284 C285 1.404 1_556 S
C284 C287 1.539 . S
C285 C281 1.408 . S
C285 C284 1.404 1_554 S
C285 H297 0.930 . S
C286 C282 1.524 1_655 S
C286 H298 0.956 . S
C286 H299 0.961 . S
C286 H300 0.961 . S
C287 C284 1.539 . S
C287 H301 0.958 . S
C287 H302 0.961 . S
C287 H303 0.960 . S
H288 C272 0.931 . S
H289 C277 0.929 . S
H290 C278 0.960 . S
H291 C278 0.962 1_554 S
H292 C278 0.960 . S
H293 C279 0.961 . S
H294 C279 0.961 . S
H295 C279 0.961 . S
H296 C280 0.931 . S
H297 C285 0.930 . S
H298 C286 0.956 . S
H299 C286 0.961 . S
H300 C286 0.961 . S
H301 C287 0.958 . S
H302 C287 0.961 . S
H303 C287 0.960 . S
C304 C305 1.391 . S
C304 C306 1.394 . S
C304 H320 0.931 . S
C305 C304 1.391 . S
C305 C309 1.376 . S
C306 C304 1.394 . S
C306 C307 1.369 . S
C306 C310 1.531 . S
C307 C306 1.369 . S
C307 C308 1.410 . S
C307 C315 1.503 . S
C308 C307 1.410 . S
C308 C309 1.392 . S
C308 C311 1.511 . S
C309 C305 1.376 . S
C309 C308 1.392 . S
C309 H321 0.929 . S
C310 C306 1.531 . S
C310 H322 0.960 . S
C310 H323 0.962 . S
C310 H324 0.960 . S
C311 C308 1.511 . S
C311 H325 0.961 . S
C311 H326 0.961 . S
C311 H327 0.961 . S
C312 C313 1.370 . S
C312 C314 1.363 . S
C312 H328 0.931 . S
C313 C312 1.370 . S
C313 C317 1.408 . S
C314 C312 1.363 . S
C314 C315 1.370 . S
C314 C318 1.524 . S
C315 C307 1.503 . S
C315 C314 1.370 . S
C315 C316 1.403 . S
C316 C315 1.403 . S
C316 C317 1.404 . S
C316 C319 1.539 . S
C317 C313 1.408 . S
C317 C316 1.404 . S
C317 H329 0.930 . S
C318 C314 1.524 . S
C318 H330 0.956 . S
C318 H331 0.961 . S
C318 H332 0.961 . S
C319 C316 1.539 . S
C319 H333 0.958 . S
C319 H334 0.961 . S
C319 H335 0.960 . S
H320 C304 0.931 . S
H321 C309 0.929 . S
H322 C310 0.960 . S
H323 C310 0.962 . S
H324 C310 0.960 . S
H325 C311 0.961 . S
H326 C311 0.961 . S
H327 C311 0.961 . S
H328 C312 0.931 . S
H329 C317 0.930 . S
H330 C318 0.956 . S
H331 C318 0.961 . S
H332 C318 0.961 . S
H333 C319 0.958 . S
H334 C319 0.961 . S
H335 C319 0.960 . S
C336 C337 1.391 . S
C336 C338 1.394 . S
C336 H352 0.931 . S
C337 C336 1.391 . S
C337 C341 1.376 . S
C338 C336 1.394 . S
C338 C339 1.369 . S
C338 C342 1.531 . S
C339 C338 1.369 . S
C339 C340 1.410 . S
C339 C347 1.503 . S
C340 C339 1.410 . S
C340 C341 1.392 . S
C340 C343 1.511 . S
C341 C337 1.376 . S
C341 C340 1.392 . S
C341 H353 0.929 . S
C342 C338 1.531 . S
C342 H354 0.960 . S
C342 H355 0.962 . S
C342 H356 0.960 . S
C343 C340 1.511 . S
C343 H357 0.961 . S
C343 H358 0.961 . S
C343 H359 0.961 . S
C344 C345 1.370 . S
C344 C346 1.363 . S
C344 H360 0.931 . S
C345 C344 1.370 . S
C345 C349 1.408 . S
C346 C344 1.363 . S
C346 C347 1.370 . S
C346 C350 1.524 . S
C347 C339 1.503 . S
C347 C346 1.370 . S
C347 C348 1.403 . S
C348 C347 1.403 . S
C348 C349 1.404 . S
C348 C351 1.539 . S
C349 C345 1.408 . S
C349 C348 1.404 . S
C349 H361 0.930 . S
C350 C346 1.524 . S
C350 H362 0.956 . S
C350 H363 0.961 . S
C350 H364 0.961 . S
C351 C348 1.539 . S
C351 H365 0.958 . S
C351 H366 0.961 . S
C351 H367 0.960 . S
H352 C336 0.931 . S
H353 C341 0.929 . S
H354 C342 0.960 . S
H355 C342 0.962 . S
H356 C342 0.960 . S
H357 C343 0.961 . S
H358 C343 0.961 . S
H359 C343 0.961 . S
H360 C344 0.931 . S
H361 C349 0.930 . S
H362 C350 0.956 . S
H363 C350 0.961 . S
H364 C350 0.961 . S
H365 C351 0.958 . S
H366 C351 0.961 . S
H367 C351 0.960 . S
C368 C369 1.391 . S
C368 C370 1.394 . S
C368 H384 0.931 . S
C369 C368 1.391 . S
C369 C373 1.376 . S
C370 C368 1.394 . S
C370 C371 1.369 . S
C370 C374 1.531 . S
C371 C370 1.369 . S
C371 C372 1.410 . S
C371 C379 1.503 . S
C372 C371 1.410 . S
C372 C373 1.392 . S
C372 C375 1.511 . S
C373 C369 1.376 . S
C373 C372 1.392 . S
C373 H385 0.929 . S
C374 C370 1.531 . S
C374 H386 0.960 . S
C374 H387 0.962 . S
C374 H388 0.960 . S
C375 C372 1.511 . S
C375 H389 0.961 . S
C375 H390 0.961 . S
C375 H391 0.961 . S
C376 C377 1.370 . S
C376 C378 1.363 . S
C376 H392 0.931 . S
C377 C376 1.370 . S
C377 C381 1.408 . S
C378 C376 1.363 . S
C378 C379 1.370 . S
C378 C382 1.524 . S
C379 C371 1.503 . S
C379 C378 1.370 . S
C379 C380 1.403 . S
C380 C379 1.403 . S
C380 C381 1.404 . S
C380 C383 1.539 . S
C381 C377 1.408 . S
C381 C380 1.404 . S
C381 H393 0.930 . S
C382 C378 1.524 . S
C382 H394 0.956 . S
C382 H395 0.961 . S
C382 H396 0.961 . S
C383 C380 1.539 . S
C383 H397 0.958 . S
C383 H398 0.961 . S
C383 H399 0.960 . S
H384 C368 0.931 . S
H385 C373 0.929 . S
H386 C374 0.960 . S
H387 C374 0.962 . S
H388 C374 0.960 . S
H389 C375 0.961 . S
H390 C375 0.961 . S
H391 C375 0.961 . S
H392 C376 0.931 . S
H393 C381 0.930 . S
H394 C382 0.956 . S
H395 C382 0.961 . S
H396 C382 0.961 . S
H397 C383 0.958 . S
H398 C383 0.961 . S
H399 C383 0.960 . S
C400 C401 1.391 . S
C400 C402 1.394 . S
C400 H416 0.931 . S
C401 C400 1.391 . S
C401 C405 1.376 . S
C402 C400 1.394 . S
C402 C403 1.369 . S
C402 C406 1.531 1_556 S
C403 C402 1.369 . S
C403 C404 1.410 . S
C403 C411 1.503 1_556 S
C404 C403 1.410 . S
C404 C405 1.392 . S
C404 C407 1.511 . S
C405 C401 1.376 . S
C405 C404 1.392 . S
C405 H417 0.929 . S
C406 C402 1.531 1_554 S
C406 H418 0.960 . S
C406 H419 0.962 . S
C406 H420 0.960 1_554 S
C407 C404 1.511 . S
C407 H421 0.961 . S
C407 H422 0.961 . S
C407 H423 0.961 . S
C408 C409 1.370 . S
C408 C410 1.363 . S
C408 H424 0.931 . S
C409 C408 1.370 . S
C409 C413 1.408 . S
C410 C408 1.363 . S
C410 C411 1.370 . S
C410 C414 1.524 . S
C411 C403 1.503 1_554 S
C411 C410 1.370 . S
C411 C412 1.403 1_554 S
C412 C411 1.403 1_556 S
C412 C413 1.404 1_556 S
C412 C415 1.539 . S
C413 C409 1.408 . S
C413 C412 1.404 1_554 S
C413 H425 0.930 . S
C414 C410 1.524 . S
C414 H426 0.956 . S
C414 H427 0.961 . S
C414 H428 0.961 . S
C415 C412 1.539 . S
C415 H429 0.958 . S
C415 H430 0.961 . S
C415 H431 0.960 . S
H416 C400 0.931 . S
H417 C405 0.929 . S
H418 C406 0.960 . S
H419 C406 0.962 . S
H420 C406 0.960 1_556 S
H421 C407 0.961 . S
H422 C407 0.961 . S
H423 C407 0.961 . S
H424 C408 0.931 . S
H425 C413 0.930 . S
H426 C414 0.956 . S
H427 C414 0.961 . S
H428 C414 0.961 . S
H429 C415 0.958 . S
H430 C415 0.961 . S
H431 C415 0.960 . S
C432 C433 1.391 . S
C432 C434 1.394 . S
C432 H448 0.931 . S
C433 C432 1.391 . S
C433 C437 1.376 . S
C434 C432 1.394 . S
C434 C435 1.369 . S
C434 C438 1.531 1_565 S
C435 C434 1.369 . S
C435 C436 1.410 . S
C435 C443 1.503 1_565 S
C436 C435 1.410 . S
C436 C437 1.392 . S
C436 C439 1.511 . S
C437 C433 1.376 . S
C437 C436 1.392 . S
C437 H449 0.929 . S
C438 C434 1.531 1_545 S
C438 H450 0.960 . S
C438 H451 0.962 . S
C438 H452 0.960 . S
C439 C436 1.511 . S
C439 H453 0.961 . S
C439 H454 0.961 . S
C439 H455 0.961 . S
C440 C441 1.370 . S
C440 C442 1.363 . S
C440 H456 0.931 . S
C441 C440 1.370 . S
C441 C445 1.408 . S
C442 C440 1.363 . S
C442 C443 1.370 . S
C442 C446 1.524 1_545 S
C443 C435 1.503 1_545 S
C443 C442 1.370 . S
C443 C444 1.403 . S
C444 C443 1.403 . S
C444 C445 1.404 . S
C444 C447 1.539 . S
C445 C441 1.408 . S
C445 C444 1.404 . S
C445 H457 0.930 . S
C446 C442 1.524 1_565 S
C446 H458 0.956 . S
C446 H459 0.961 . S
C446 H460 0.961 . S
C447 C444 1.539 . S
C447 H461 0.958 . S
C447 H462 0.961 . S
C447 H463 0.960 . S
H448 C432 0.931 . S
H449 C437 0.929 . S
H450 C438 0.960 . S
H451 C438 0.962 . S
H452 C438 0.960 . S
H453 C439 0.961 . S
H454 C439 0.961 . S
H455 C439 0.961 . S
H456 C440 0.931 . S
H457 C445 0.930 . S
H458 C446 0.956 . S
H459 C446 0.961 . S
H460 C446 0.961 . S
H461 C447 0.958 . S
H462 C447 0.961 . S
H463 C447 0.960 . S
C464 C465 1.391 . S
C464 C466 1.394 . S
C464 H480 0.931 . S
C465 C464 1.391 . S
C465 C469 1.376 . S
C466 C464 1.394 . S
C466 C467 1.369 . S
C466 C470 1.531 1_565 S
C467 C466 1.369 . S
C467 C468 1.410 . S
C467 C475 1.503 1_665 S
C468 C467 1.410 . S
C468 C469 1.392 . S
C468 C471 1.511 1_655 S
C469 C465 1.376 . S
C469 C468 1.392 . S
C469 H481 0.929 . S
C470 C466 1.531 1_545 S
C470 H482 0.960 . S
C470 H483 0.962 . S
C470 H484 0.960 . S
C471 C468 1.511 1_455 S
C471 H485 0.961 . S
C471 H486 0.961 . S
C471 H487 0.961 . S
C472 C473 1.370 . S
C472 C474 1.363 . S
C472 H488 0.931 . S
C473 C472 1.370 . S
C473 C477 1.408 . S
C474 C472 1.363 . S
C474 C475 1.370 . S
C474 C478 1.524 . S
C475 C467 1.503 1_445 S
C475 C474 1.370 . S
C475 C476 1.403 . S
C476 C475 1.403 . S
C476 C477 1.404 . S
C476 C479 1.539 1_445 S
C477 C473 1.408 . S
C477 C476 1.404 . S
C477 H489 0.930 . S
C478 C474 1.524 . S
C478 H490 0.956 . S
C478 H491 0.961 . S
C478 H492 0.961 . S
C479 C476 1.539 1_665 S
C479 H493 0.959 1_565 S
C479 H494 0.961 . S
C479 H495 0.960 . S
H480 C464 0.931 . S
H481 C469 0.929 . S
H482 C470 0.960 . S
H483 C470 0.962 . S
H484 C470 0.960 . S
H485 C471 0.961 . S
H486 C471 0.961 . S
H487 C471 0.961 . S
H488 C472 0.931 . S
H489 C477 0.930 . S
H490 C478 0.956 . S
H491 C478 0.961 . S
H492 C478 0.961 . S
H493 C479 0.959 1_545 S
H494 C479 0.961 . S
H495 C479 0.960 . S
C496 C497 1.391 . S
C496 C498 1.394 . S
C496 H512 0.931 . S
C497 C496 1.391 . S
C497 C501 1.376 . S
C498 C496 1.394 . S
C498 C499 1.369 . S
C498 C502 1.531 1_655 S
C499 C498 1.369 . S
C499 C500 1.410 . S
C499 C507 1.503 1_655 S
C500 C499 1.410 . S
C500 C501 1.392 . S
C500 C503 1.511 . S
C501 C497 1.376 . S
C501 C500 1.392 . S
C501 H513 0.929 . S
C502 C498 1.531 1_455 S
C502 H514 0.960 . S
C502 H515 0.962 . S
C502 H516 0.960 . S
C503 C500 1.511 . S
C503 H517 0.961 . S
C503 H518 0.961 . S
C503 H519 0.961 . S
C504 C505 1.370 . S
C504 C506 1.363 . S
C504 H520 0.931 . S
C505 C504 1.370 . S
C505 C509 1.408 . S
C506 C504 1.363 . S
C506 C507 1.370 . S
C506 C510 1.524 . S
C507 C499 1.503 1_455 S
C507 C506 1.370 . S
C507 C508 1.403 1_455 S
C508 C507 1.403 1_655 S
C508 C509 1.404 1_655 S
C508 C511 1.539 . S
C509 C505 1.408 . S
C509 C508 1.404 1_455 S
C509 H521 0.930 . S
C510 C506 1.524 . S
C510 H522 0.956 . S
C510 H523 0.961 . S
C510 H524 0.961 . S
C511 C508 1.539 . S
C511 H525 0.958 . S
C511 H526 0.961 . S
C511 H527 0.960 . S
H512 C496 0.931 . S
H513 C501 0.929 . S
H514 C502 0.960 . S
H515 C502 0.962 . S
H516 C502 0.960 . S
H517 C503 0.961 . S
H518 C503 0.961 . S
H519 C503 0.961 . S
H520 C504 0.931 . S
H521 C509 0.930 . S
H522 C510 0.956 . S
H523 C510 0.961 . S
H524 C510 0.961 . S
H525 C511 0.958 . S
H526 C511 0.961 . S
H527 C511 0.960 . S
C528 C529 1.391 . S
C528 C530 1.394 . S
C528 H544 0.931 . S
C529 C528 1.391 . S
C529 C533 1.376 . S
C530 C528 1.394 . S
C530 C531 1.369 . S
C530 C534 1.531 . S
C531 C530 1.369 . S
C531 C532 1.410 . S
C531 C539 1.503 . S
C532 C531 1.410 . S
C532 C533 1.392 . S
C532 C535 1.511 . S
C533 C529 1.376 . S
C533 C532 1.392 . S
C533 H545 0.929 . S
C534 C530 1.531 . S
C534 H546 0.960 . S
C534 H547 0.962 . S
C534 H548 0.960 . S
C535 C532 1.511 . S
C535 H549 0.961 . S
C535 H550 0.961 . S
C535 H551 0.961 . S
C536 C537 1.370 . S
C536 C538 1.363 . S
C536 H552 0.931 . S
C537 C536 1.370 . S
C537 C541 1.408 . S
C538 C536 1.363 . S
C538 C539 1.370 . S
C538 C542 1.524 . S
C539 C531 1.503 . S
C539 C538 1.370 . S
C539 C540 1.403 . S
C540 C539 1.403 . S
C540 C541 1.404 . S
C540 C543 1.539 . S
C541 C537 1.408 . S
C541 C540 1.404 . S
C541 H553 0.930 . S
C542 C538 1.524 . S
C542 H554 0.956 . S
C542 H555 0.961 . S
C542 H556 0.961 . S
C543 C540 1.539 . S
C543 H557 0.958 . S
C543 H558 0.961 . S
C543 H559 0.960 . S
H544 C528 0.931 . S
H545 C533 0.929 . S
H546 C534 0.960 . S
H547 C534 0.962 . S
H548 C534 0.960 . S
H549 C535 0.961 . S
H550 C535 0.961 . S
H551 C535 0.961 . S
H552 C536 0.931 . S
H553 C541 0.930 . S
H554 C542 0.956 . S
H555 C542 0.961 . S
H556 C542 0.961 . S
H557 C543 0.958 . S
H558 C543 0.961 . S
H559 C543 0.960 . S
C560 C561 1.391 . S
C560 C562 1.394 1_554 S
C560 H576 0.931 . S
C561 C560 1.391 . S
C561 C565 1.376 . S
C562 C560 1.394 1_556 S
C562 C563 1.369 1_556 S
C562 C566 1.531 . S
C563 C562 1.369 1_554 S
C563 C564 1.410 . S
C563 C571 1.503 1_554 S
C564 C563 1.410 . S
C564 C565 1.392 . S
C564 C567 1.511 . S
C565 C561 1.376 . S
C565 C564 1.392 . S
C565 H577 0.929 . S
C566 C562 1.531 . S
C566 H578 0.960 . S
C566 H579 0.962 . S
C566 H580 0.960 . S
C567 C564 1.511 . S
C567 H581 0.961 . S
C567 H582 0.961 . S
C567 H583 0.961 . S
C568 C569 1.370 . S
C568 C570 1.363 . S
C568 H584 0.931 . S
C569 C568 1.370 . S
C569 C573 1.408 . S
C570 C568 1.363 . S
C570 C571 1.370 . S
C570 C574 1.524 1_556 S
C571 C563 1.503 1_556 S
C571 C570 1.370 . S
C571 C572 1.403 . S
C572 C571 1.403 . S
C572 C573 1.404 . S
C572 C575 1.539 . S
C573 C569 1.408 . S
C573 C572 1.404 . S
C573 H585 0.930 . S
C574 C570 1.524 1_554 S
C574 H586 0.956 . S
C574 H587 0.961 . S
C574 H588 0.961 . S
C575 C572 1.539 . S
C575 H589 0.958 . S
C575 H590 0.961 . S
C575 H591 0.960 . S
H576 C560 0.931 . S
H577 C565 0.929 . S
H578 C566 0.960 . S
H579 C566 0.962 . S
H580 C566 0.960 . S
H581 C567 0.961 . S
H582 C567 0.961 . S
H583 C567 0.961 . S
H584 C568 0.931 . S
H585 C573 0.930 . S
H586 C574 0.956 . S
H587 C574 0.961 . S
H588 C574 0.961 . S
H589 C575 0.958 . S
H590 C575 0.961 . S
H591 C575 0.960 . S
C592 C593 1.391 . S
C592 C594 1.394 . S
C592 H608 0.931 . S
C593 C592 1.391 . S
C593 C597 1.376 . S
C594 C592 1.394 . S
C594 C595 1.369 . S
C594 C598 1.531 . S
C595 C594 1.369 . S
C595 C596 1.410 . S
C595 C603 1.503 . S
C596 C595 1.410 . S
C596 C597 1.392 . S
C596 C599 1.511 . S
C597 C593 1.376 . S
C597 C596 1.392 . S
C597 H609 0.929 . S
C598 C594 1.531 . S
C598 H610 0.960 . S
C598 H611 0.962 . S
C598 H612 0.960 . S
C599 C596 1.511 . S
C599 H613 0.961 . S
C599 H614 0.961 . S
C599 H615 0.961 . S
C600 C601 1.370 . S
C600 C602 1.363 . S
C600 H616 0.931 . S
C601 C600 1.370 . S
C601 C605 1.408 . S
C602 C600 1.363 . S
C602 C603 1.370 . S
C602 C606 1.524 . S
C603 C595 1.503 . S
C603 C602 1.370 . S
C603 C604 1.403 . S
C604 C603 1.403 . S
C604 C605 1.404 . S
C604 C607 1.539 . S
C605 C601 1.408 . S
C605 C604 1.404 . S
C605 H617 0.930 . S
C606 C602 1.524 . S
C606 H618 0.956 . S
C606 H619 0.961 . S
C606 H620 0.961 . S
C607 C604 1.539 . S
C607 H621 0.958 . S
C607 H622 0.961 . S
C607 H623 0.960 . S
H608 C592 0.931 . S
H609 C597 0.929 . S
H610 C598 0.960 . S
H611 C598 0.962 . S
H612 C598 0.960 . S
H613 C599 0.961 . S
H614 C599 0.961 . S
H615 C599 0.961 . S
H616 C600 0.931 . S
H617 C605 0.930 . S
H618 C606 0.956 . S
H619 C606 0.961 . S
H620 C606 0.961 . S
H621 C607 0.958 . S
H622 C607 0.961 . S
H623 C607 0.960 . S
C113 C82 1.495 . S
C121 C11 1.479 . S
C145 C103 1.205 . S
C153 C19 1.288 . S
C177 C32 1.482 . S
C185 C88 1.450 . S
C209 C53 1.453 . S
C217 C68 1.498 . S
C241 C89 1.198 . S
C249 C5 1.286 . S
C273 C18 1.463 . S
C281 C60 1.455 . S
C305 C81 1.448 . S
C313 C40 1.499 . S
C337 C54 1.494 . S
C345 C109 1.465 . S
C369 C61 1.246 . S
C377 C75 1.275 . S
C401 C26 1.494 . S
C409 C39 1.467 . S
C433 C47 1.316 . S
C441 C33 1.243 . S
C465 C46 1.445 . S
C473 C4 1.467 . S
C497 C25 1.468 . S
C505 C12 1.500 . S
C529 C110 1.497 . S
C537 C95 1.482 . S
C561 C67 1.448 . S
C569 C96 1.499 . S
C593 C74 1.450 . S
C601 C102 1.465 . S
