# Generated by pormake.
# Topology wiv, (6)-cn, num edge types: 1
# Building blocks:
#     Node 0, Type 0, BuildingBlock: BETGAK_clean_sbu_0, # of connection points: 6
#     Node 1, Type 0, BuildingBlock: BETGAK_clean_sbu_0, # of connection points: 6
#     Node 2, Type 0, BuildingBlock: BETGAK_clean_sbu_0, # of connection points: 6
#     Node 3, Type 0, BuildingBlock: BETGAK_clean_sbu_0, # of connection points: 6
#     Node 4, Type 0, BuildingBlock: BETGAK_clean_sbu_0, # of connection points: 6
#     Node 5, Type 0, BuildingBlock: BETGAK_clean_sbu_0, # of connection points: 6
#     Node 6, Type 0, BuildingBlock: BETGAK_clean_sbu_0, # of connection points: 6
#     Node 7, Type 0, BuildingBlock: BETGAK_clean_sbu_0, # of connection points: 6
#     Node 8, Type 0, BuildingBlock: BETGAK_clean_sbu_0, # of connection points: 6
#     Node 9, Type 0, BuildingBlock: BETGAK_clean_sbu_0, # of connection points: 6
#     Node 10, Type 0, BuildingBlock: BETGAK_clean_sbu_0, # of connection points: 6
#     Node 11, Type 0, BuildingBlock: BETGAK_clean_sbu_0, # of connection points: 6
#     Node 12, Type 0, BuildingBlock: BETGAK_clean_sbu_0, # of connection points: 6
#     Node 13, Type 0, BuildingBlock: BETGAK_clean_sbu_0, # of connection points: 6
#     Node 14, Type 0, BuildingBlock: BETGAK_clean_sbu_0, # of connection points: 6
#     Node 15, Type 0, BuildingBlock: BETGAK_clean_sbu_0, # of connection points: 6
#     Edge 16, Type (0, 0), BuildingBlock: TEMPAE_clean_linker_10, # of connection points: 2
#     Edge 17, Type (0, 0), BuildingBlock: TEMPAE_clean_linker_10, # of connection points: 2
#     Edge 18, Type (0, 0), BuildingBlock: TEMPAE_clean_linker_10, # of connection points: 2
#     Edge 19, Type (0, 0), BuildingBlock: TEMPAE_clean_linker_10, # of connection points: 2
#     Edge 20, Type (0, 0), BuildingBlock: TEMPAE_clean_linker_10, # of connection points: 2
#     Edge 21, Type (0, 0), BuildingBlock: TEMPAE_clean_linker_10, # of connection points: 2
#     Edge 22, Type (0, 0), BuildingBlock: TEMPAE_clean_linker_10, # of connection points: 2
#     Edge 23, Type (0, 0), BuildingBlock: TEMPAE_clean_linker_10, # of connection points: 2
#     Edge 24, Type (0, 0), BuildingBlock: TEMPAE_clean_linker_10, # of connection points: 2
#     Edge 25, Type (0, 0), BuildingBlock: TEMPAE_clean_linker_10, # of connection points: 2
#     Edge 26, Type (0, 0), BuildingBlock: TEMPAE_clean_linker_10, # of connection points: 2
#     Edge 27, Type (0, 0), BuildingBlock: TEMPAE_clean_linker_10, # of connection points: 2
#     Edge 28, Type (0, 0), BuildingBlock: TEMPAE_clean_linker_10, # of connection points: 2
#     Edge 29, Type (0, 0), BuildingBlock: TEMPAE_clean_linker_10, # of connection points: 2
#     Edge 30, Type (0, 0), BuildingBlock: TEMPAE_clean_linker_10, # of connection points: 2
#     Edge 31, Type (0, 0), BuildingBlock: TEMPAE_clean_linker_10, # of connection points: 2
#     Edge 32, Type (0, 0), BuildingBlock: TEMPAE_clean_linker_10, # of connection points: 2
#     Edge 33, Type (0, 0), BuildingBlock: TEMPAE_clean_linker_10, # of connection points: 2
#     Edge 34, Type (0, 0), BuildingBlock: TEMPAE_clean_linker_10, # of connection points: 2
#     Edge 35, Type (0, 0), BuildingBlock: TEMPAE_clean_linker_10, # of connection points: 2
#     Edge 36, Type (0, 0), BuildingBlock: TEMPAE_clean_linker_10, # of connection points: 2
#     Edge 37, Type (0, 0), BuildingBlock: TEMPAE_clean_linker_10, # of connection points: 2
#     Edge 38, Type (0, 0), BuildingBlock: TEMPAE_clean_linker_10, # of connection points: 2
#     Edge 39, Type (0, 0), BuildingBlock: TEMPAE_clean_linker_10, # of connection points: 2
#     Edge 40, Type (0, 0), BuildingBlock: TEMPAE_clean_linker_10, # of connection points: 2
#     Edge 41, Type (0, 0), BuildingBlock: TEMPAE_clean_linker_10, # of connection points: 2
#     Edge 42, Type (0, 0), BuildingBlock: TEMPAE_clean_linker_10, # of connection points: 2
#     Edge 43, Type (0, 0), BuildingBlock: TEMPAE_clean_linker_10, # of connection points: 2
#     Edge 44, Type (0, 0), BuildingBlock: TEMPAE_clean_linker_10, # of connection points: 2
#     Edge 45, Type (0, 0), BuildingBlock: TEMPAE_clean_linker_10, # of connection points: 2
#     Edge 46, Type (0, 0), BuildingBlock: TEMPAE_clean_linker_10, # of connection points: 2
#     Edge 47, Type (0, 0), BuildingBlock: TEMPAE_clean_linker_10, # of connection points: 2
#     Edge 48, Type (0, 0), BuildingBlock: TEMPAE_clean_linker_10, # of connection points: 2
#     Edge 49, Type (0, 0), BuildingBlock: TEMPAE_clean_linker_10, # of connection points: 2
#     Edge 50, Type (0, 0), BuildingBlock: TEMPAE_clean_linker_10, # of connection points: 2
#     Edge 51, Type (0, 0), BuildingBlock: TEMPAE_clean_linker_10, # of connection points: 2
#     Edge 52, Type (0, 0), BuildingBlock: TEMPAE_clean_linker_10, # of connection points: 2
#     Edge 53, Type (0, 0), BuildingBlock: TEMPAE_clean_linker_10, # of connection points: 2
#     Edge 54, Type (0, 0), BuildingBlock: TEMPAE_clean_linker_10, # of connection points: 2
#     Edge 55, Type (0, 0), BuildingBlock: TEMPAE_clean_linker_10, # of connection points: 2
#     Edge 56, Type (0, 0), BuildingBlock: TEMPAE_clean_linker_10, # of connection points: 2
#     Edge 57, Type (0, 0), BuildingBlock: TEMPAE_clean_linker_10, # of connection points: 2
#     Edge 58, Type (0, 0), BuildingBlock: TEMPAE_clean_linker_10, # of connection points: 2
#     Edge 59, Type (0, 0), BuildingBlock: TEMPAE_clean_linker_10, # of connection points: 2
#     Edge 60, Type (0, 0), BuildingBlock: TEMPAE_clean_linker_10, # of connection points: 2
#     Edge 61, Type (0, 0), BuildingBlock: TEMPAE_clean_linker_10, # of connection points: 2
#     Edge 62, Type (0, 0), BuildingBlock: TEMPAE_clean_linker_10, # of connection points: 2
#     Edge 63, Type (0, 0), BuildingBlock: TEMPAE_clean_linker_10, # of connection points: 2
# Relax obj value: 0.128
# Max RMSD: 0.182
# Mean RMSD: 0.182
data_MOF--net-wiv--node1-BETGAK_clean_sbu_0--edge1-TEMPAE_clean_linker_10
_symmetry_space_group_name_H-M    P1
_symmetry_Int_Tables_number       1
_symmetry_cell_setting            triclinic
loop_
_symmetry_equiv_pos_as_xyz
'x, y, z'
_cell_length_a     51.610025
_cell_length_b     51.603501
_cell_length_c     24.929515
_cell_angle_alpha  90.028101
_cell_angle_beta   89.951137
_cell_angle_gamma 89.969694
loop_
_atom_site_label
_atom_site_type_symbol
_atom_site_fract_x
_atom_site_fract_y
_atom_site_fract_z
_atom_type_partial_charge
La0 La 0.35148 0.10983 0.18558 0.0
La1 La 0.38767 0.11832 0.08757 0.0
C2 C 0.33302 0.08817 0.26764 0.0
C3 C 0.33636 0.09189 0.32645 0.0
C4 C 0.31863 0.10679 0.35626 0.0
C5 C 0.32225 0.11073 0.41141 0.0
C6 C 0.34364 0.09977 0.43816 0.0
C7 C 0.36106 0.08446 0.40843 0.0
C8 C 0.35746 0.08055 0.35343 0.0
C9 C 0.35854 0.16038 0.17074 0.0
C10 C 0.41239 0.12414 0.2008 0.0
C11 C 0.40583 0.13268 0.99848 0.0
C12 C 0.39682 0.13028 0.94243 0.0
C13 C 0.37938 0.11067 0.9274 0.0
C14 C 0.37141 0.1082 0.87397 0.0
C15 C 0.38074 0.12525 0.83436 0.0
C16 C 0.3979 0.14511 0.84983 0.0
C17 C 0.40584 0.14758 0.90333 0.0
C18 C 0.38704 0.07139 0.13036 0.0
C19 C 0.32658 0.10824 0.0682 0.0
O20 O 0.32079 0.10641 0.24099 0.0
O21 O 0.35337 0.07971 0.24151 0.0
O22 O 0.34399 0.15031 0.20757 0.0
O23 O 0.36779 0.14179 0.14386 0.0
O24 O 0.39095 0.11329 0.22062 0.0
O25 O 0.4141 0.13141 0.14985 0.0
O26 O 0.41226 0.111 1.02229 0.0
O27 O 0.39204 0.14775 1.02979 0.0
O28 O 0.40739 0.08217 0.10937 0.0
O29 O 0.36788 0.08638 0.12412 0.0
O30 O 0.35007 0.11217 0.0484 0.0
O31 O 0.32222 0.106 0.12078 0.0
H32 H 0.30207 0.11563 0.33687 0.0
H33 H 0.30853 0.12277 0.43289 0.0
H34 H 0.37745 0.07527 0.42776 0.0
H35 H 0.37138 0.06869 0.33205 0.0
H36 H 0.3721 0.09708 0.95683 0.0
H37 H 0.35789 0.09293 0.86369 0.0
H38 H 0.40569 0.15841 0.82034 0.0
H39 H 0.41928 0.16285 0.91407 0.0
La40 La 0.11959 0.62869 0.98487 0.0
La41 La 0.1185 0.66555 0.89506 0.0
C42 C 0.12948 0.60688 0.07319 0.0
C43 C 0.1271 0.614 0.13041 0.0
C44 C 0.10793 0.63135 0.1482 0.0
C45 C 0.10595 0.6378 0.20267 0.0
C46 C 0.12308 0.62699 0.24054 0.0
C47 C 0.14242 0.60984 0.22226 0.0
C48 C 0.14438 0.60344 0.16782 0.0
C49 C 0.07425 0.6324 0.93626 0.0
C50 C 0.11209 0.68961 1.01003 0.0
C51 C 0.10808 0.68708 0.8065 0.0
C52 C 0.10877 0.67948 0.74929 0.0
C53 C 0.1286 0.6636 0.72881 0.0
C54 C 0.12948 0.65752 0.67406 0.0
C55 C 0.11046 0.66702 0.63868 0.0
C56 C 0.09028 0.68234 0.65966 0.0
C57 C 0.0895 0.68854 0.71436 0.0
C58 C 0.16522 0.65938 0.93782 0.0
C59 C 0.12751 0.60398 0.87299 0.0
O60 O 0.10783 0.60372 0.04671 0.0
O61 O 0.14661 0.6199 0.04538 0.0
O62 O 0.08367 0.61117 0.95605 0.0
O63 O 0.0894 0.65098 0.94712 0.0
O64 O 0.11674 0.66591 1.02772 0.0
O65 O 0.10977 0.69437 0.95791 0.0
O66 O 0.13038 0.6891 0.83096 0.0
O67 O 0.09081 0.67548 0.83643 0.0
O68 O 0.15572 0.68119 0.92117 0.0
O69 O 0.14852 0.64196 0.92924 0.0
O70 O 0.12068 0.62712 0.85393 0.0
O71 O 0.13165 0.60067 0.92485 0.0
H72 H 0.09436 0.63975 0.12003 0.0
H73 H 0.09069 0.65089 0.21522 0.0
H74 H 0.15624 0.6015 0.24999 0.0
H75 H 0.15944 0.59019 0.15491 0.0
H76 H 0.14353 0.65604 0.75503 0.0
H77 H 0.14502 0.6453 0.6594 0.0
H78 H 0.0754 0.69008 0.63355 0.0
H79 H 0.07396 0.70069 0.72932 0.0
La80 La 0.66709 0.90247 0.16623 0.0
La81 La 0.62962 0.90127 0.07819 0.0
C82 C 0.68896 0.9122 0.25489 0.0
C83 C 0.68175 0.9108 0.31262 0.0
C84 C 0.69553 0.89418 0.34692 0.0
C85 C 0.68938 0.89267 0.40158 0.0
C86 C 0.66938 0.90791 0.42352 0.0
C87 C 0.65559 0.92462 0.38918 0.0
C88 C 0.66165 0.92601 0.33436 0.0
C89 C 0.66064 0.85546 0.1247 0.0
C90 C 0.60561 0.89359 0.1903 0.0
C91 C 0.60655 0.89429 0.98981 0.0
C92 C 0.6136 0.89488 0.93203 0.0
C93 C 0.59909 0.91033 0.89674 0.0
C94 C 0.60542 0.9116 0.84215 0.0
C95 C 0.62649 0.89744 0.82138 0.0
C96 C 0.64101 0.88192 0.85682 0.0
C97 C 0.6346 0.88059 0.91147 0.0
C98 C 0.63376 0.94662 0.12771 0.0
C99 C 0.69025 0.90669 0.05067 0.0
O100 O 0.69119 0.89016 0.22949 0.0
O101 O 0.67735 0.92965 0.22542 0.0
O102 O 0.68259 0.86524 0.13971 0.0
O103 O 0.64317 0.87217 0.13331 0.0
O104 O 0.62886 0.90068 0.20835 0.0
O105 O 0.60191 0.88917 0.13865 0.0
O106 O 0.60738 0.9165 1.01492 0.0
O107 O 0.61599 0.87548 1.01918 0.0
O108 O 0.61233 0.93682 0.11005 0.0
O109 O 0.65221 0.93164 0.11498 0.0
O110 O 0.66686 0.89933 0.03549 0.0
O111 O 0.6948 0.91253 0.10173 0.0
H112 H 0.71121 0.88238 0.33143 0.0
H113 H 0.70061 0.87984 0.42688 0.0
H114 H 0.63991 0.93643 0.40458 0.0
H115 H 0.65057 0.93903 0.30914 0.0
H116 H 0.58284 0.92156 0.91152 0.0
H117 H 0.59398 0.92398 0.81631 0.0
H118 H 0.6571 0.87047 0.84212 0.0
H119 H 0.64604 0.86833 0.93752 0.0
La120 La 0.90433 0.39051 0.9895 0.0
La121 La 0.90607 0.35323 0.90077 0.0
C122 C 0.89667 0.41324 0.07812 0.0
C123 C 0.89724 0.40593 0.13569 0.0
C124 C 0.90987 0.4222 0.17242 0.0
C125 C 0.91141 0.41554 0.22678 0.0
C126 C 0.90034 0.39237 0.24588 0.0
C127 C 0.88754 0.37612 0.20898 0.0
C128 C 0.88601 0.38283 0.15451 0.0
C129 C 0.94996 0.38663 0.94109 0.0
C130 C 0.91012 0.32991 1.0162 0.0
C131 C 0.91607 0.33099 0.81247 0.0
C132 C 0.91482 0.3378 0.75471 0.0
C133 C 0.90472 0.3198 0.71811 0.0
C134 C 0.90332 0.32564 0.66331 0.0
C135 C 0.912 0.34972 0.6437 0.0
C136 C 0.92211 0.36778 0.68056 0.0
C137 C 0.92356 0.36188 0.73541 0.0
C138 C 0.85888 0.35976 0.94183 0.0
C139 C 0.89748 0.41482 0.87731 0.0
O140 O 0.91897 0.41281 0.05331 0.0
O141 O 0.87812 0.40356 0.0484 0.0
O142 O 0.94012 0.40792 0.95944 0.0
O143 O 0.93491 0.36809 0.95276 0.0
O144 O 0.9022 0.3531 1.03156 0.0
O145 O 0.91646 0.32564 0.96528 0.0
O146 O 0.89395 0.32891 0.83757 0.0
O147 O 0.9333 0.34305 0.84164 0.0
O148 O 0.86869 0.33779 0.92687 0.0
O149 O 0.87566 0.37713 0.93334 0.0
O150 O 0.90461 0.39158 0.85912 0.0
O151 O 0.89268 0.4184 0.92891 0.0
H152 H 0.91865 0.44013 0.15897 0.0
H153 H 0.92108 0.42872 0.25401 0.0
H154 H 0.87902 0.35801 0.22204 0.0
H155 H 0.87615 0.3699 0.12714 0.0
H156 H 0.89782 0.30113 0.73197 0.0
H157 H 0.89511 0.31139 0.63636 0.0
H158 H 0.92926 0.38638 0.66694 0.0
H159 H 0.9316 0.37613 0.76262 0.0
La160 La 0.35209 0.40609 0.13128 0.0
La161 La 0.38826 0.39776 0.22909 0.0
C162 C 0.33323 0.42773 0.04953 0.0
C163 C 0.33655 0.42391 0.99093 0.0
C164 C 0.31483 0.42285 0.95713 0.0
C165 C 0.31784 0.41919 0.90168 0.0
C166 C 0.34268 0.41643 0.87889 0.0
C167 C 0.36438 0.41763 0.91293 0.0
C168 C 0.36136 0.42134 0.96816 0.0
C169 C 0.35931 0.35554 0.14568 0.0
C170 C 0.41303 0.39144 0.11596 0.0
C171 C 0.40615 0.38354 0.31849 0.0
C172 C 0.39751 0.38614 0.37492 0.0
C173 C 0.4159 0.39089 0.41507 0.0
C174 C 0.40818 0.39449 0.46841 0.0
C175 C 0.3818 0.39358 0.48287 0.0
C176 C 0.36338 0.38862 0.4425 0.0
C177 C 0.37115 0.38488 0.38916 0.0
C178 C 0.38778 0.44455 0.1858 0.0
C179 C 0.32727 0.40813 0.24892 0.0
O180 O 0.32132 0.40922 0.07591 0.0
O181 O 0.35357 0.43631 0.07545 0.0
O182 O 0.3449 0.36572 0.10879 0.0
O183 O 0.36839 0.37406 0.17308 0.0
O184 O 0.39158 0.40229 0.09602 0.0
O185 O 0.41477 0.38447 0.16706 0.0
O186 O 0.41283 0.40512 0.29461 0.0
O187 O 0.39231 0.36855 0.28717 0.0
O188 O 0.40813 0.43373 0.2067 0.0
O189 O 0.36856 0.42967 0.19233 0.0
O190 O 0.3509 0.4048 0.26834 0.0
O191 O 0.32273 0.40963 0.19628 0.0
H192 H 0.2955 0.42479 0.97365 0.0
H193 H 0.30069 0.41816 0.87676 0.0
H194 H 0.38381 0.41604 0.89681 0.0
H195 H 0.37853 0.4223 0.99296 0.0
H196 H 0.43631 0.39192 0.40512 0.0
H197 H 0.42296 0.3978 0.49844 0.0
H198 H 0.3429 0.38803 0.45192 0.0
H199 H 0.35649 0.38115 0.35917 0.0
La200 La 0.40374 0.62818 0.83213 0.0
La201 La 0.40623 0.66505 0.9218 0.0
C202 C 0.39528 0.60559 0.74375 0.0
C203 C 0.3955 0.61282 0.68626 0.0
C204 C 0.4055 0.59528 0.64856 0.0
C205 C 0.40673 0.60184 0.59413 0.0
C206 C 0.39802 0.62618 0.57605 0.0
C207 C 0.38799 0.64377 0.61402 0.0
C208 C 0.38667 0.63712 0.66851 0.0
C209 C 0.44959 0.63153 0.87936 0.0
C210 C 0.41016 0.68887 0.80714 0.0
C211 C 0.41664 0.68693 1.01012 0.0
C212 C 0.41495 0.68024 0.06788 0.0
C213 C 0.40274 0.69751 0.10332 0.0
C214 C 0.40089 0.69181 0.15809 0.0
C215 C 0.41132 0.6687 0.17888 0.0
C216 C 0.42364 0.65141 0.1433 0.0
C217 C 0.42541 0.65709 0.08839 0.0
C218 C 0.35896 0.65919 0.88107 0.0
C219 C 0.39733 0.60354 0.94419 0.0
O220 O 0.41776 0.60586 0.76774 0.0
O221 O 0.37704 0.61558 0.77394 0.0
O222 O 0.43956 0.61037 0.86086 0.0
O223 O 0.43458 0.65021 0.86853 0.0
O224 O 0.40182 0.66591 0.79122 0.0
O225 O 0.41691 0.69269 0.8579 0.0
O226 O 0.39468 0.68976 0.98478 0.0
O227 O 0.43361 0.67435 0.98112 0.0
O228 O 0.36888 0.68098 0.89673 0.0
O229 O 0.37554 0.64162 0.88916 0.0
O230 O 0.40475 0.6266 0.96274 0.0
O231 O 0.39218 0.60026 0.89268 0.0
H232 H 0.41258 0.5765 0.66133 0.0
H233 H 0.41493 0.58795 0.56629 0.0
H234 H 0.38086 0.66257 0.60157 0.0
H235 H 0.37875 0.65095 0.6967 0.0
H236 H 0.39464 0.71553 0.08858 0.0
H237 H 0.39158 0.70572 0.18434 0.0
H238 H 0.43165 0.63331 0.15777 0.0
H239 H 0.43491 0.64332 0.0621 0.0
La240 La 0.66737 0.61497 0.15187 0.0
La241 La 0.63018 0.61695 0.24074 0.0
C242 C 0.68926 0.60475 0.06336 0.0
C243 C 0.68246 0.60654 1.00561 0.0
C244 C 0.69946 0.61912 0.97021 0.0
C245 C 0.69369 0.62096 0.91544 0.0
C246 C 0.67078 0.61013 0.89459 0.0
C247 C 0.65374 0.59749 0.93015 0.0
C248 C 0.65947 0.59575 0.98504 0.0
C249 C 0.66123 0.66224 0.19256 0.0
C250 C 0.60589 0.62417 0.12866 0.0
C251 C 0.60735 0.62458 0.32929 0.0
C252 C 0.61462 0.62449 0.38681 0.0
C253 C 0.59735 0.61411 0.42455 0.0
C254 C 0.60394 0.61305 0.47899 0.0
C255 C 0.62807 0.6223 0.49708 0.0
C256 C 0.64541 0.63271 0.45906 0.0
C257 C 0.6387 0.63387 0.40456 0.0
C258 C 0.63374 0.57134 0.19198 0.0
C259 C 0.69072 0.6109 0.26705 0.0
O260 O 0.69211 0.62663 0.08901 0.0
O261 O 0.67676 0.58771 0.09226 0.0
O262 O 0.6831 0.6523 0.17732 0.0
O263 O 0.64371 0.64557 0.1846 0.0
O264 O 0.62906 0.61692 0.11033 0.0
O265 O 0.60234 0.62883 0.18031 0.0
O266 O 0.60832 0.60216 0.30505 0.0
O267 O 0.61672 0.64316 0.29922 0.0
O268 O 0.6125 0.58136 0.21017 0.0
O269 O 0.65235 0.58624 0.20397 0.0
O270 O 0.66766 0.6192 0.28237 0.0
O271 O 0.69485 0.60427 0.21626 0.0
H272 H 0.71735 0.62748 0.98494 0.0
H273 H 0.70742 0.63054 0.88923 0.0
H274 H 0.63578 0.58919 0.91566 0.0
H275 H 0.64588 0.58598 1.01127 0.0
H276 H 0.57873 0.60661 0.41182 0.0
H277 H 0.59025 0.60456 0.50684 0.0
H278 H 0.66404 0.64026 0.47148 0.0
H279 H 0.65233 0.64211 0.37637 0.0
La280 La 0.61959 0.39088 0.82904 0.0
La281 La 0.61877 0.35335 0.91684 0.0
C282 C 0.62656 0.41388 0.74059 0.0
C283 C 0.62577 0.40675 0.68284 0.0
C284 C 0.60907 0.42023 0.64825 0.0
C285 C 0.60771 0.41388 0.59369 0.0
C286 C 0.6231 0.39388 0.57215 0.0
C287 C 0.63987 0.38039 0.60689 0.0
C288 C 0.64122 0.38675 0.66156 0.0
C289 C 0.57429 0.38651 0.87852 0.0
C290 C 0.61437 0.33021 0.80109 0.0
C291 C 0.60947 0.3313 1.00553 0.0
C292 C 0.61071 0.33857 0.06327 0.0
C293 C 0.62905 0.32664 0.0968 0.0
C294 C 0.6304 0.33285 0.15144 0.0
C295 C 0.61328 0.35104 0.17418 0.0
C296 C 0.59484 0.36295 0.14065 0.0
C297 C 0.59358 0.35684 0.08585 0.0
C298 C 0.66566 0.36024 0.87478 0.0
C299 C 0.62712 0.41493 0.94123 0.0
O300 O 0.60442 0.41331 0.76599 0.0
O301 O 0.64538 0.40436 0.76983 0.0
O302 O 0.58392 0.40797 0.8606 0.0
O303 O 0.58938 0.3681 0.86601 0.0
O304 O 0.62141 0.35372 0.78592 0.0
O305 O 0.60886 0.32554 0.85229 0.0
O306 O 0.63153 0.32948 0.98008 0.0
O307 O 0.59179 0.34253 0.97602 0.0
O308 O 0.65604 0.33816 0.88952 0.0
O309 O 0.64884 0.37752 0.884 0.0
O310 O 0.62022 0.39159 0.95917 0.0
O311 O 0.6315 0.4187 0.88956 0.0
H312 H 0.59693 0.4357 0.66354 0.0
H313 H 0.59431 0.42448 0.56847 0.0
H314 H 0.65231 0.36517 0.59165 0.0
H315 H 0.6544 0.37604 0.68703 0.0
H316 H 0.64233 0.31233 0.08075 0.0
H317 H 0.6446 0.32303 0.17611 0.0
H318 H 0.58152 0.37722 0.15666 0.0
H319 H 0.57916 0.36643 0.06132 0.0
La320 La 0.85205 0.61068 0.68476 0.0
La321 La 0.8891 0.6197 0.58843 0.0
C322 C 0.83362 0.58888 0.76684 0.0
C323 C 0.83544 0.59384 0.82517 0.0
C324 C 0.84072 0.61874 0.84508 0.0
C325 C 0.84421 0.62279 0.90023 0.0
C326 C 0.84275 0.60198 0.93673 0.0
C327 C 0.83734 0.57707 0.91639 0.0
C328 C 0.83373 0.57308 0.86128 0.0
C329 C 0.85838 0.6614 0.6702 0.0
C330 C 0.91269 0.62656 0.70155 0.0
C331 C 0.90735 0.63277 0.49858 0.0
C332 C 0.89839 0.62965 0.44221 0.0
C333 C 0.89371 0.60497 0.42018 0.0
C334 C 0.88603 0.60226 0.36659 0.0
C335 C 0.88265 0.62413 0.33365 0.0
C336 C 0.88672 0.64884 0.35607 0.0
C337 C 0.8946 0.65155 0.40965 0.0
C338 C 0.88824 0.57255 0.63112 0.0
C339 C 0.82819 0.6098 0.56634 0.0
O340 O 0.82074 0.60583 0.73793 0.0
O341 O 0.8554 0.582 0.74392 0.0
O342 O 0.8434 0.65104 0.70594 0.0
O343 O 0.86823 0.64297 0.64373 0.0
O344 O 0.89139 0.61506 0.72061 0.0
O345 O 0.91459 0.63394 0.65077 0.0
O346 O 0.91405 0.61163 0.52411 0.0
O347 O 0.89386 0.64846 0.52913 0.0
O348 O 0.90872 0.58356 0.61136 0.0
O349 O 0.86912 0.58746 0.6239 0.0
O350 O 0.85165 0.61559 0.54855 0.0
O351 O 0.82366 0.60519 0.61831 0.0
H352 H 0.84245 0.63504 0.81793 0.0
H353 H 0.84803 0.64228 0.91423 0.0
H354 H 0.83653 0.56047 0.94289 0.0
H355 H 0.83006 0.55364 0.8467 0.0
H356 H 0.89612 0.58765 0.44416 0.0
H357 H 0.88268 0.58297 0.35092 0.0
H358 H 0.88445 0.66609 0.3318 0.0
H359 H 0.89798 0.67079 0.42554 0.0
La360 La 0.62146 0.13137 0.47912 0.0
La361 La 0.61342 0.16842 0.38294 0.0
C362 C 0.63214 0.11099 0.56853 0.0
C363 C 0.63202 0.11939 0.6255 0.0
C364 C 0.61872 0.10431 0.66338 0.0
C365 C 0.61709 0.11215 0.71701 0.0
C366 C 0.62879 0.13533 0.73436 0.0
C367 C 0.64225 0.15042 0.69634 0.0
C368 C 0.64391 0.14249 0.64252 0.0
C369 C 0.57472 0.13256 0.43449 0.0
C370 C 0.61376 0.19262 0.50074 0.0
C371 C 0.59225 0.18691 0.30022 0.0
C372 C 0.5963 0.18429 0.24121 0.0
C373 C 0.61359 0.20051 0.21329 0.0
C374 C 0.6173 0.19765 0.15778 0.0
C375 C 0.60372 0.17859 0.12867 0.0
C376 C 0.58627 0.16257 0.15667 0.0
C377 C 0.58255 0.16545 0.21198 0.0
C378 C 0.66403 0.16193 0.39885 0.0
C379 C 0.62857 0.10753 0.36596 0.0
O380 O 0.60938 0.10966 0.54575 0.0
O381 O 0.64964 0.12094 0.53635 0.0
O382 O 0.58585 0.11187 0.45285 0.0
O383 O 0.58949 0.15167 0.44295 0.0
O384 O 0.62067 0.1694 0.51834 0.0
O385 O 0.60763 0.19672 0.44935 0.0
O386 O 0.60987 0.19937 0.32818 0.0
O387 O 0.58415 0.16606 0.32508 0.0
O388 O 0.65389 0.17693 0.36292 0.0
O389 O 0.64546 0.15206 0.42489 0.0
O390 O 0.61769 0.12911 0.34669 0.0
O391 O 0.63535 0.10538 0.41705 0.0
H392 H 0.60925 0.08651 0.65128 0.0
H393 H 0.60621 0.10022 0.74474 0.0
H394 H 0.65173 0.16822 0.70826 0.0
H395 H 0.65442 0.15444 0.6143 0.0
H396 H 0.62429 0.21544 0.23428 0.0
H397 H 0.63062 0.21059 0.13758 0.0
H398 H 0.57571 0.14744 0.136 0.0
H399 H 0.56894 0.1527 0.23194 0.0
La400 La 0.16815 0.40074 0.66733 0.0
La401 La 0.13082 0.40065 0.57834 0.0
C402 C 0.19072 0.40969 0.7556 0.0
C403 C 0.18382 0.40978 0.81328 0.0
C404 C 0.20137 0.39943 0.85046 0.0
C405 C 0.19529 0.39868 0.90516 0.0
C406 C 0.17144 0.40828 0.92409 0.0
C407 C 0.15391 0.41888 0.88672 0.0
C408 C 0.16001 0.41959 0.83186 0.0
C409 C 0.16123 0.3543 0.62374 0.0
C410 C 0.10654 0.39278 0.69067 0.0
C411 C 0.10874 0.39183 0.48973 0.0
C412 C 0.11592 0.39394 0.43231 0.0
C413 C 0.09728 0.40204 0.39501 0.0
C414 C 0.10351 0.40416 0.34048 0.0
C415 C 0.1286 0.39822 0.32187 0.0
C416 C 0.14735 0.39031 0.35953 0.0
C417 C 0.14107 0.38815 0.41409 0.0
C418 C 0.13473 0.44548 0.62895 0.0
C419 C 0.19174 0.40732 0.55191 0.0
O420 O 0.19059 0.38712 0.73193 0.0
O421 O 0.18049 0.42767 0.72532 0.0
O422 O 0.18328 0.36364 0.63927 0.0
O423 O 0.14401 0.37118 0.63284 0.0
O424 O 0.12987 0.39932 0.70917 0.0
O425 O 0.10287 0.38878 0.63881 0.0
O426 O 0.10655 0.41366 0.51603 0.0
O427 O 0.12071 0.37409 0.518 0.0
O428 O 0.11348 0.43632 0.60884 0.0
O429 O 0.1533 0.43043 0.61701 0.0
O430 O 0.16784 0.40334 0.5349 0.0
O431 O 0.1969 0.40908 0.60397 0.0
H432 H 0.21987 0.39184 0.83711 0.0
H433 H 0.20943 0.39075 0.93274 0.0
H434 H 0.13527 0.42622 0.89973 0.0
H435 H 0.14607 0.42765 0.80403 0.0
H436 H 0.07782 0.40677 0.4081 0.0
H437 H 0.08868 0.41073 0.31295 0.0
H438 H 0.1668 0.38533 0.34678 0.0
H439 H 0.15587 0.38176 0.44183 0.0
La440 La 0.40335 0.88904 0.48669 0.0
La441 La 0.40617 0.85185 0.39764 0.0
C442 C 0.39376 0.91102 0.57521 0.0
C443 C 0.39484 0.90318 0.63225 0.0
C444 C 0.41138 0.88323 0.64956 0.0
C445 C 0.41279 0.87662 0.70402 0.0
C446 C 0.3977 0.88983 0.74245 0.0
C447 C 0.3808 0.90947 0.72457 0.0
C448 C 0.37942 0.91606 0.67013 0.0
C449 C 0.44936 0.88569 0.44021 0.0
C450 C 0.41039 0.82837 0.51281 0.0
C451 C 0.41673 0.83017 0.30915 0.0
C452 C 0.41513 0.83714 0.25141 0.0
C453 C 0.39929 0.82246 0.21718 0.0
C454 C 0.3975 0.82841 0.16252 0.0
C455 C 0.4117 0.84912 0.14053 0.0
C456 C 0.42768 0.86379 0.17478 0.0
C457 C 0.42935 0.85792 0.22962 0.0
C458 C 0.35879 0.85778 0.43787 0.0
C459 C 0.39707 0.91332 0.37448 0.0
O460 O 0.41598 0.91255 0.5502 0.0
O461 O 0.37608 0.89976 0.5457 0.0
O462 O 0.43931 0.90684 0.45887 0.0
O463 O 0.43435 0.86697 0.45087 0.0
O464 O 0.40265 0.85158 0.52845 0.0
O465 O 0.41638 0.82409 0.46173 0.0
O466 O 0.39474 0.82729 0.33443 0.0
O467 O 0.43373 0.84245 0.33856 0.0
O468 O 0.36881 0.83595 0.42267 0.0
O469 O 0.37536 0.87534 0.42963 0.0
O470 O 0.40471 0.89024 0.35635 0.0
O471 O 0.39167 0.91671 0.42586 0.0
H472 H 0.42348 0.87296 0.62109 0.0
H473 H 0.42618 0.86155 0.71608 0.0
H474 H 0.3685 0.91974 0.75265 0.0
H475 H 0.3664 0.93139 0.65763 0.0
H476 H 0.38828 0.80624 0.23274 0.0
H477 H 0.38527 0.81651 0.13724 0.0
H478 H 0.43869 0.88001 0.15929 0.0
H479 H 0.44174 0.86969 0.25482 0.0
La480 La 0.85232 0.90759 0.63382 0.0
La481 La 0.88915 0.89901 0.73028 0.0
C482 C 0.83399 0.92911 0.55137 0.0
C483 C 0.83656 0.92508 0.49236 0.0
C484 C 0.82041 0.90772 0.4645 0.0
C485 C 0.82329 0.90399 0.40901 0.0
C486 C 0.8423 0.91762 0.37987 0.0
C487 C 0.85825 0.93516 0.40779 0.0
C488 C 0.85537 0.93888 0.4631 0.0
C489 C 0.85887 0.85692 0.64851 0.0
C490 C 0.91308 0.89217 0.61723 0.0
C491 C 0.90935 0.88788 0.81963 0.0
C492 C 0.90103 0.88842 0.87666 0.0
C493 C 0.91598 0.90223 0.91396 0.0
C494 C 0.90825 0.90409 0.96764 0.0
C495 C 0.88533 0.89212 0.98561 0.0
C496 C 0.87038 0.87815 0.9482 0.0
C497 C 0.87819 0.87624 0.89436 0.0
C498 C 0.88795 0.94597 0.68653 0.0
C499 C 0.82795 0.90696 0.75144 0.0
O500 O 0.82137 0.91157 0.57926 0.0
O501 O 0.85493 0.93698 0.57623 0.0
O502 O 0.844 0.86726 0.6126 0.0
O503 O 0.86856 0.87533 0.67528 0.0
O504 O 0.89169 0.9034 0.59797 0.0
O505 O 0.91504 0.88509 0.66817 0.0
O506 O 0.91144 0.91053 0.79653 0.0
O507 O 0.89878 0.87066 0.78772 0.0
O508 O 0.90864 0.93482 0.70481 0.0
O509 O 0.86892 0.93109 0.69464 0.0
O510 O 0.85112 0.90007 0.76924 0.0
O511 O 0.82391 0.91311 0.70005 0.0
H512 H 0.80553 0.89696 0.48553 0.0
H513 H 0.81042 0.8906 0.38885 0.0
H514 H 0.87333 0.94577 0.38706 0.0
H515 H 0.86809 0.9525 0.48304 0.0
H516 H 0.9336 0.91189 0.90138 0.0
H517 H 0.92008 0.91535 0.99492 0.0
H518 H 0.85279 0.86842 0.96066 0.0
H519 H 0.86635 0.86529 0.86665 0.0
La520 La 0.90158 0.13152 0.33854 0.0
La521 La 0.91042 0.16856 0.43465 0.0
C522 C 0.88849 0.11316 0.24877 0.0
C523 C 0.89148 0.12217 0.19245 0.0
C524 C 0.91573 0.12991 0.17217 0.0
C525 C 0.91844 0.1375 0.1185 0.0
C526 C 0.89694 0.13782 0.08384 0.0
C527 C 0.87256 0.13077 0.10456 0.0
C528 C 0.8699 0.12293 0.15819 0.0
C529 C 0.9488 0.13262 0.38075 0.0
C530 C 0.91103 0.1925 0.31623 0.0
C531 C 0.93211 0.18709 0.51676 0.0
C532 C 0.92717 0.18495 0.57505 0.0
C533 C 0.90278 0.17744 0.5946 0.0
C534 C 0.89883 0.1737 0.64972 0.0
C535 C 0.91925 0.17717 0.68656 0.0
C536 C 0.94365 0.18479 0.66659 0.0
C537 C 0.94754 0.1886 0.61148 0.0
C538 C 0.85968 0.16164 0.42111 0.0
C539 C 0.89542 0.10775 0.45169 0.0
O540 O 0.90973 0.10665 0.27412 0.0
O541 O 0.87278 0.12656 0.27939 0.0
O542 O 0.93783 0.1121 0.36106 0.0
O543 O 0.9338 0.15171 0.37377 0.0
O544 O 0.90536 0.169 0.29851 0.0
O545 O 0.91563 0.19704 0.36819 0.0
O546 O 0.91494 0.1998 0.48813 0.0
O547 O 0.93927 0.1655 0.4935 0.0
O548 O 0.87008 0.17664 0.45669 0.0
O549 O 0.87807 0.15205 0.39408 0.0
O550 O 0.9068 0.12916 0.47045 0.0
O551 O 0.88779 0.10581 0.40107 0.0
H552 H 0.93273 0.12993 0.19763 0.0
H553 H 0.93741 0.14319 0.10411 0.0
H554 H 0.85563 0.13067 0.07893 0.0
H555 H 0.85097 0.1172 0.1728 0.0
H556 H 0.88684 0.17417 0.56719 0.0
H557 H 0.87973 0.16811 0.66345 0.0
H558 H 0.95996 0.1872 0.69341 0.0
H559 H 0.96664 0.19394 0.59717 0.0
La560 La 0.16811 0.1152 0.65037 0.0
La561 La 0.13073 0.11549 0.73954 0.0
C562 C 0.19073 0.10614 0.56209 0.0
C563 C 0.18387 0.1059 0.50441 0.0
C564 C 0.20143 0.11622 0.46714 0.0
C565 C 0.1954 0.11685 0.41243 0.0
C566 C 0.1716 0.10715 0.39355 0.0
C567 C 0.15407 0.09657 0.43102 0.0
C568 C 0.16013 0.09598 0.48589 0.0
C569 C 0.16118 0.1617 0.69375 0.0
C570 C 0.10649 0.1231 0.62723 0.0
C571 C 0.10873 0.12444 0.82826 0.0
C572 C 0.11593 0.12213 0.88562 0.0
C573 C 0.09728 0.114 0.92292 0.0
C574 C 0.10353 0.11167 0.97738 0.0
C575 C 0.12866 0.1174 0.99592 0.0
C576 C 0.14743 0.12532 0.95826 0.0
C577 C 0.14112 0.12771 0.90378 0.0
C578 C 0.13465 0.0706 0.68919 0.0
C579 C 0.19163 0.1086 0.76579 0.0
O580 O 0.19049 0.12875 0.58556 0.0
O581 O 0.18055 0.08819 0.59256 0.0
O582 O 0.18323 0.15231 0.67821 0.0
O583 O 0.14396 0.14483 0.68477 0.0
O584 O 0.1298 0.11642 0.60874 0.0
O585 O 0.10284 0.12735 0.67903 0.0
O586 O 0.10629 0.10269 0.8018 0.0
O587 O 0.12087 0.14209 0.80005 0.0
O588 O 0.11339 0.07979 0.70939 0.0
O589 O 0.15321 0.08566 0.70097 0.0
O590 O 0.16773 0.1127 0.78282 0.0
O591 O 0.19682 0.10679 0.71373 0.0
H592 H 0.21988 0.12389 0.48043 0.0
H593 H 0.20954 0.12475 0.38481 0.0
H594 H 0.13548 0.08915 0.41807 0.0
H595 H 0.1462 0.08792 0.51377 0.0
H596 H 0.07778 0.10944 0.90989 0.0
H597 H 0.08868 0.10511 1.00492 0.0
H598 H 0.1669 0.13014 0.97096 0.0
H599 H 0.15593 0.13411 0.87604 0.0
La600 La 0.11958 0.88783 0.33197 0.0
La601 La 0.11857 0.85117 0.42216 0.0
C602 C 0.12946 0.90948 0.24347 0.0
C603 C 0.12703 0.9023 0.1863 0.0
C604 C 0.10768 0.88514 0.16863 0.0
C605 C 0.10556 0.87881 0.11413 0.0
C606 C 0.12289 0.88933 0.07631 0.0
C607 C 0.14244 0.9062 0.0944 0.0
C608 C 0.14443 0.91264 0.1488 0.0
C609 C 0.07432 0.88442 0.38103 0.0
C610 C 0.11222 0.82687 0.30755 0.0
C611 C 0.10836 0.82949 0.5107 0.0
C612 C 0.10849 0.83719 0.5678 0.0
C613 C 0.12613 0.85563 0.58737 0.0
C614 C 0.12656 0.86198 0.64201 0.0
C615 C 0.10937 0.85001 0.67825 0.0
C616 C 0.09139 0.83194 0.65812 0.0
C617 C 0.09097 0.82563 0.60348 0.0
C618 C 0.16525 0.85727 0.37898 0.0
C619 C 0.12736 0.91272 0.44373 0.0
O620 O 0.10783 0.91275 0.27006 0.0
O621 O 0.14659 0.89646 0.27126 0.0
O622 O 0.08374 0.90554 0.3608 0.0
O623 O 0.0894 0.86574 0.37028 0.0
O624 O 0.11664 0.85052 0.28938 0.0
O625 O 0.11004 0.82223 0.35969 0.0
O626 O 0.13088 0.82827 0.48685 0.0
O627 O 0.0909 0.84049 0.48033 0.0
O628 O 0.15575 0.83547 0.39568 0.0
O629 O 0.14853 0.87469 0.38757 0.0
O630 O 0.1204 0.88966 0.46292 0.0
O631 O 0.13168 0.91591 0.39187 0.0
H632 H 0.09417 0.87668 0.19691 0.0
H633 H 0.09051 0.86549 0.10162 0.0
H634 H 0.15595 0.9148 0.0663 0.0
H635 H 0.15954 0.92584 0.16159 0.0
H636 H 0.13982 0.86488 0.56057 0.0
H637 H 0.1408 0.87582 0.65604 0.0
H638 H 0.07757 0.82268 0.6846 0.0
H639 H 0.07706 0.81151 0.58914 0.0
C640 C 0.39779 0.93264 0.28115 0.0
C641 C 0.39433 0.93575 0.33671 0.0
C642 C 0.39578 0.95389 0.24564 0.0
C643 C 0.39039 0.97904 0.26595 0.0
C644 C 0.38674 0.98223 0.32194 0.0
C645 C 0.38864 0.96066 0.3564 0.0
C646 C 0.39963 0.94943 0.18634 0.0
C647 C 0.3812 1.0086 0.34568 0.0
C648 C 0.41118 0.0386 0.18517 0.0
C649 C 0.38764 0.04735 0.16356 0.0
C650 C 0.41234 0.01642 0.21804 0.0
C651 C 0.38946 1.00219 0.22918 0.0
C652 C 0.36567 0.01068 0.20658 0.0
C653 C 0.36504 0.03316 0.17424 0.0
C654 C 0.43807 1.00847 0.24169 0.0
C655 C 0.34082 0.99613 0.21695 0.0
H656 H 0.40215 0.91358 0.26525 0.0
H657 H 0.38598 0.96346 0.39913 0.0
H658 H 0.38251 0.95653 0.1638 0.0
H659 H 0.41666 0.96059 0.17207 0.0
H660 H 0.4027 0.92863 0.17658 0.0
H661 H 0.37859 1.0079 0.38989 0.0
H662 H 0.39738 0.02204 0.3364 0.0
H663 H 0.36343 0.01689 0.32749 0.0
H664 H 0.42874 0.04948 0.17725 0.0
H665 H 0.34681 0.03971 0.15742 0.0
H666 H 0.44277 0.98828 0.2299 0.0
H667 H 0.43694 1.00897 0.28613 0.0
H668 H 0.45415 0.02131 0.2286 0.0
H669 H 0.34313 0.9755 0.20533 0.0
H670 H 0.32418 1.00445 0.19455 0.0
H671 H 0.33623 0.99657 0.26042 0.0
C672 C 0.93372 0.62709 0.79335 0.0
C673 C 0.93573 0.63013 0.73748 0.0
C674 C 0.95564 0.62929 0.82699 0.0
C675 C 0.98045 0.63419 0.80444 0.0
C676 C 0.98252 0.63758 0.74815 0.0
C677 C 0.96024 0.63572 0.71561 0.0
C678 C 0.95231 0.62594 0.88673 0.0
C679 C 1.00848 0.64235 0.72194 0.0
C680 C 0.03741 0.6569 0.89216 0.0
C681 C 0.05031 0.6335 0.9027 0.0
C682 C 0.01449 0.65744 0.86102 0.0
C683 C 1.00442 0.63412 0.83902 0.0
C684 C 0.01763 0.61054 0.84924 0.0
C685 C 0.04014 0.61051 0.88118 0.0
C686 C 1.00098 0.68298 0.85185 0.0
C687 C 1.00814 0.58525 0.82593 0.0
H688 H 0.91496 0.62289 0.81092 0.0
H689 H 0.96222 0.63799 0.67259 0.0
H690 H 0.96257 0.60818 0.90007 0.0
H691 H 0.96109 0.64255 0.90835 0.0
H692 H 0.93161 0.62434 0.89854 0.0
H693 H 1.00678 0.64559 0.67803 0.0
H694 H 0.01801 0.65947 0.74019 0.0
H695 H 0.02137 0.62546 0.72881 0.0
H696 H 0.04505 0.67473 0.90881 0.0
H697 H 0.05004 0.59234 0.88879 0.0
H698 H 0.98061 0.68176 0.86592 0.0
H699 H 1.00043 0.6874 0.80833 0.0
H700 H 0.0107 0.69925 0.87296 0.0
H701 H 0.9882 0.58117 0.84025 0.0
H702 H 0.02078 0.56864 0.83691 0.0
H703 H 1.00732 0.58663 0.78155 0.0
C704 C 0.61227 0.97992 0.18578 0.0
C705 C 0.63509 0.97025 0.16238 0.0
C706 C 0.6124 1.00223 0.21842 0.0
C707 C 0.63588 0.01577 0.22758 0.0
C708 C 0.65905 1.00613 0.20393 0.0
C709 C 0.65842 0.98341 0.17201 0.0
C710 C 0.58728 0.01124 0.24339 0.0
C711 C 0.68449 0.01994 0.21204 0.0
C712 C 0.6284 0.08641 0.27407 0.0
C713 C 0.63206 0.08446 0.3298 0.0
C714 C 0.63048 0.06449 0.24024 0.0
C715 C 0.63599 0.03974 0.26239 0.0
C716 C 0.64001 0.03771 0.31851 0.0
C717 C 0.63818 0.05998 0.35126 0.0
C718 C 0.62632 0.06778 0.18072 0.0
C719 C 0.64546 0.01181 0.34433 0.0
H720 H 0.59415 0.96983 0.17895 0.0
H721 H 0.67612 0.97615 0.15401 0.0
H722 H 0.58927 0.012 0.28768 0.0
H723 H 0.58265 0.03113 0.22956 0.0
H724 H 0.57077 0.99834 0.23326 0.0
H725 H 0.70069 0.01035 0.19037 0.0
H726 H 0.68288 0.04026 0.19783 0.0
H727 H 0.68928 0.02067 0.25538 0.0
H728 H 0.62374 0.10509 0.25674 0.0
H729 H 0.64095 0.05801 0.39415 0.0
H730 H 0.60871 0.05706 0.1682 0.0
H731 H 0.64292 0.05947 0.15821 0.0
H732 H 0.62401 0.08845 0.16914 0.0
H733 H 0.62868 0.99869 0.33831 0.0
H734 H 0.64921 0.01353 0.38805 0.0
H735 H 0.66247 1.00249 0.3251 0.0
C736 C 0.98575 0.36232 0.89238 0.0
C737 C 0.97334 0.38568 0.90557 0.0
C738 C 1.00786 0.36195 0.85868 0.0
C739 C 0.01778 0.38547 0.83724 0.0
C740 C 1.0052 0.40905 0.85052 0.0
C741 C 0.98337 0.40886 0.88453 0.0
C742 C 0.02062 0.33638 0.84598 0.0
C743 C 0.01464 0.43459 0.82834 0.0
C744 C 0.08754 0.3914 0.78447 0.0
C745 C 0.08411 0.38972 0.72863 0.0
C746 C 0.06636 0.38931 0.82023 0.0
C747 C 0.04089 0.38563 0.80003 0.0
C748 C 0.03738 0.38359 0.74376 0.0
C749 C 0.0589 0.38557 0.70899 0.0
C750 C 0.07122 0.39148 0.87975 0.0
C751 C 0.0107 0.37996 0.72006 0.0
H752 H 0.97826 0.34434 0.90864 0.0
H753 H 0.97391 0.42703 0.89421 0.0
H754 H 0.0201 0.33284 0.8021 0.0
H755 H 0.0413 0.33693 0.85806 0.0
H756 H 0.01104 0.31989 0.86663 0.0
H757 H 1.0028 0.45123 0.84249 0.0
H758 H 0.03508 0.43788 0.84031 0.0
H759 H 0.01409 0.43414 0.78386 0.0
H760 H 0.10681 0.39447 0.80041 0.0
H761 H 0.05582 0.38426 0.66608 0.0
H762 H 0.06278 0.37456 0.9009 0.0
H763 H 0.06152 0.40907 0.89568 0.0
H764 H 0.0922 0.39263 0.88939 0.0
H765 H 1.00123 0.36267 0.73779 0.0
H766 H 0.01123 0.37763 0.67577 0.0
H767 H 0.99838 0.39694 0.72988 0.0
C768 C 0.36563 0.4828 0.14234 0.0
C769 C 0.38832 0.46875 0.15307 0.0
C770 C 0.36619 0.5054 0.11036 0.0
C771 C 0.38999 0.51417 0.08824 0.0
C772 C 0.41297 0.50012 0.09955 0.0
C773 C 0.41187 0.47778 0.132 0.0
C774 C 0.34124 0.51975 0.09976 0.0
C775 C 0.43873 0.5084 0.07653 0.0
C776 C 0.38935 0.55605 0.96152 0.0
C777 C 0.39462 0.58097 0.98162 0.0
C778 C 0.38751 0.53436 0.99569 0.0
C779 C 0.39084 0.53743 0.05178 0.0
C780 C 0.39579 0.56258 0.07249 0.0
C781 C 0.39772 0.58395 0.03729 0.0
C782 C 0.38243 0.50799 0.97154 0.0
C783 C 0.3993 0.56691 0.13192 0.0
H784 H 0.3474 0.47605 0.1588 0.0
H785 H 0.4295 0.46703 0.14002 0.0
H786 H 0.34326 0.54036 0.11177 0.0
H787 H 0.33688 0.51944 0.0562 0.0
H788 H 0.32457 0.51119 0.12171 0.0
H789 H 0.45489 0.4957 0.08979 0.0
H790 H 0.43786 0.50803 1.03206 0.0
H791 H 0.44312 0.52862 0.08865 0.0
H792 H 0.38696 0.55334 0.9187 0.0
H793 H 0.40172 0.60301 0.05351 0.0
H794 H 0.36488 0.49925 0.9898 0.0
H795 H 0.39891 0.49483 0.98034 0.0
H796 H 0.37971 0.50885 0.92738 0.0
H797 H 0.38227 0.55937 0.15413 0.0
H798 H 0.40187 0.58773 0.14202 0.0
H799 H 0.41652 0.55607 0.14624 0.0
C800 C 0.58699 0.62527 0.035 0.0
C801 C 0.58355 0.62731 0.09077 0.0
C802 C 0.56586 0.62751 0.99928 0.0
C803 C 0.54046 0.63165 1.01955 0.0
C804 C 0.53693 0.63401 0.07576 0.0
C805 C 0.55841 0.63193 0.11046 0.0
C806 C 0.57069 0.62502 0.93979 0.0
C807 C 0.51029 0.63809 0.09946 0.0
C808 C 0.48565 0.65544 0.92741 0.0
C809 C 0.47298 0.6322 0.91459 0.0
C810 C 0.50779 0.6556 0.96086 0.0
C811 C 0.5174 0.632 0.98248 0.0
C812 C 0.50454 0.60855 0.96961 0.0
C813 C 0.48272 0.60894 0.93575 0.0
C814 C 0.52091 0.68103 0.97311 0.0
C815 C 0.51365 0.58295 0.99214 0.0
H816 H 0.60623 0.62182 1.01909 0.0
H817 H 0.55536 0.63349 0.15335 0.0
H818 H 0.56066 0.60757 0.92414 0.0
H819 H 0.56257 0.64204 0.91841 0.0
H820 H 0.59165 0.62342 0.93011 0.0
H821 H 0.51084 0.64054 0.14372 0.0
H822 H 0.50106 0.65547 0.08154 0.0
H823 H 0.49775 0.62126 0.08987 0.0
H824 H 0.47835 0.67347 0.91104 0.0
H825 H 0.47301 0.59087 0.92634 0.0
H826 H 0.54159 0.68011 0.96107 0.0
H827 H 0.52038 0.68476 1.01693 0.0
H828 H 0.51158 0.69758 0.95215 0.0
H829 H 0.53403 0.57933 0.98012 0.0
H830 H 0.50158 0.56643 0.97831 0.0
H831 H 0.51313 0.58356 0.03662 0.0
C832 C 0.61141 0.5382 0.13499 0.0
C833 C 0.63459 0.54794 0.15653 0.0
C834 C 0.61111 0.51634 0.10107 0.0
C835 C 0.63458 0.50341 0.08845 0.0
C836 C 0.65811 0.51303 0.11043 0.0
C837 C 0.65785 0.5352 0.14396 0.0
C838 C 0.58559 0.50727 0.07823 0.0
C839 C 0.68357 0.49988 0.09847 0.0
C840 C 0.62794 0.43377 0.03522 0.0
C841 C 0.63014 0.43725 0.97946 0.0
C842 C 0.6301 0.45489 0.07114 0.0
C843 C 0.63434 0.48032 0.05117 0.0
C844 C 0.63684 0.48388 0.99499 0.0
C845 C 0.63483 0.46242 0.96009 0.0
C846 C 0.62745 0.45 0.13057 0.0
C847 C 0.64102 0.51053 0.97151 0.0
H848 H 0.59331 0.54792 0.14417 0.0
H849 H 0.67583 0.54247 0.16059 0.0
H850 H 0.58632 0.50781 1.03376 0.0
H851 H 0.58193 0.48688 0.09011 0.0
H852 H 0.56903 0.51935 0.09193 0.0
H853 H 0.70005 0.50918 0.11968 0.0
H854 H 0.68261 0.47919 0.11042 0.0
H855 H 0.68744 0.50041 0.0547 0.0
H856 H 0.62439 0.41452 0.05093 0.0
H857 H 0.63653 0.46554 0.91725 0.0
H858 H 0.61007 0.46017 0.14619 0.0
H859 H 0.6445 0.45793 0.15213 0.0
H860 H 0.62567 0.42904 0.14006 0.0
H861 H 0.62418 0.52311 0.981 0.0
H862 H 0.64359 0.51002 0.92727 0.0
H863 H 0.65836 0.51971 0.98968 0.0
C864 C 0.43435 0.3903 1.02434 0.0
C865 C 0.43631 0.38796 0.08036 0.0
C866 C 0.45636 0.38824 0.9908 0.0
C867 C 0.48123 0.38399 1.01351 0.0
C868 C 0.48328 0.38119 0.06996 0.0
C869 C 0.46091 0.38304 0.10247 0.0
C870 C 0.45302 0.39111 0.93096 0.0
C871 C 0.50928 0.37699 0.09631 0.0
C872 C 0.53812 0.36161 0.92456 0.0
C873 C 0.55064 0.38512 0.91319 0.0
C874 C 0.5155 0.36088 0.95677 0.0
C875 C 0.50523 0.38416 0.97875 0.0
C876 C 0.51807 0.40785 0.96771 0.0
C877 C 0.54035 0.40804 0.935 0.0
C878 C 0.50247 0.3352 0.967 0.0
C879 C 0.50831 0.43313 0.99068 0.0
H880 H 0.41555 0.39379 1.00649 0.0
H881 H 0.46287 0.38127 0.14558 0.0
H882 H 0.46322 0.40878 0.91697 0.0
H883 H 0.46186 0.37434 0.90991 0.0
H884 H 0.43232 0.39256 0.91914 0.0
H885 H 0.50758 0.37395 0.14028 0.0
H886 H 0.51915 0.35994 0.07843 0.0
H887 H 0.52189 0.39405 0.08909 0.0
H888 H 0.54584 0.34383 0.9078 0.0
H889 H 0.54992 0.42631 0.92681 0.0
H890 H 0.48213 0.3359 0.95267 0.0
H891 H 0.50186 0.33124 1.01071 0.0
H892 H 0.51258 0.3189 0.94672 0.0
H893 H 0.48827 0.43688 0.97659 0.0
H894 H 0.52068 0.44983 0.97915 0.0
H895 H 0.50764 0.43195 0.0351 0.0
C896 C 0.89036 0.46243 0.85899 0.0
C897 C 0.89467 0.43723 0.83934 0.0
C898 C 0.88845 0.48393 0.82426 0.0
C899 C 0.89073 0.4804 0.76802 0.0
C900 C 0.89465 0.45496 0.7478 0.0
C901 C 0.89666 0.4338 0.78354 0.0
C902 C 0.88447 0.51058 0.84795 0.0
C903 C 0.89699 0.4501 0.68829 0.0
C904 C 0.86571 0.53511 0.67713 0.0
C905 C 0.88859 0.54846 0.66445 0.0
C906 C 0.8661 0.51278 0.70998 0.0
C907 C 0.88996 0.50345 0.73083 0.0
C908 C 0.91313 0.51675 0.71744 0.0
C909 C 0.91217 0.53889 0.68435 0.0
C910 C 0.84092 0.49934 0.72294 0.0
C911 C 0.93899 0.50784 0.7389 0.0
H912 H 0.88884 0.4655 0.90188 0.0
H913 H 0.89981 0.41452 0.76763 0.0
H914 H 0.90147 0.52297 0.83874 0.0
H915 H 0.86728 0.51997 0.82968 0.0
H916 H 0.88178 0.51003 0.89215 0.0
H917 H 0.89855 0.42913 0.67866 0.0
H918 H 0.87992 0.4582 0.66707 0.0
H919 H 0.91439 0.46012 0.67239 0.0
H920 H 0.84743 0.54227 0.66169 0.0
H921 H 0.92997 0.54905 0.67484 0.0
H922 H 0.83717 0.50042 0.76672 0.0
H923 H 0.84218 0.47851 0.71214 0.0
H924 H 0.82421 0.50809 0.70149 0.0
H925 H 0.93884 0.50857 0.78339 0.0
H926 H 0.95529 0.51994 0.72407 0.0
H927 H 0.94259 0.48742 0.72715 0.0
C928 C 0.53621 0.15527 0.39276 0.0
C929 C 0.55056 0.13253 0.40136 0.0
C930 C 0.51335 0.15507 0.36148 0.0
C931 C 0.50466 0.13164 0.33753 0.0
C932 C 0.51924 0.10869 0.34603 0.0
C933 C 0.54175 0.10938 0.37807 0.0
C934 C 0.49844 0.17997 0.35413 0.0
C935 C 0.5112 0.08335 0.32076 0.0
C936 C 0.43407 0.12286 0.29196 0.0
C937 C 0.43567 0.12731 0.2364 0.0
C938 C 0.4561 0.12483 0.32539 0.0
C939 C 0.48063 0.13106 0.30299 0.0
C940 C 0.48233 0.13575 0.24703 0.0
C941 C 0.45994 0.13399 0.21467 0.0
C942 C 0.45315 0.11995 0.38477 0.0
C943 C 0.50798 0.14211 0.22099 0.0
H944 H 0.54281 0.17322 0.41075 0.0
H945 H 0.55275 0.09173 0.38424 0.0
H946 H 0.4977 0.18511 0.31096 0.0
H947 H 0.47816 0.17738 0.36792 0.0
H948 H 0.50722 0.19637 0.37653 0.0
H949 H 0.5247 0.06728 0.33071 0.0
H950 H 0.49147 0.07796 0.33447 0.0
H951 H 0.51041 0.08546 0.2765 0.0
H952 H 0.41555 0.11774 0.30951 0.0
H953 H 0.46163 0.13737 0.17192 0.0
H954 H 0.46074 0.1367 0.40782 0.0
H955 H 0.46471 0.10273 0.39649 0.0
H956 H 0.43264 0.11661 0.39651 0.0
H957 H 0.51654 0.15959 0.23987 0.0
H958 H 0.50611 0.14561 0.1772 0.0
H959 H 0.5218 0.12592 0.2273 0.0
C960 C 0.13483 0.55628 0.85646 0.0
C961 C 0.1309 0.58135 0.8358 0.0
C962 C 0.13708 0.5345 0.82254 0.0
C963 C 0.13564 0.53762 0.76611 0.0
C964 C 0.13228 0.56294 0.74488 0.0
C965 C 0.12981 0.58439 0.77983 0.0
C966 C 0.14031 0.50798 0.8473 0.0
C967 C 0.13081 0.56735 0.68513 0.0
C968 C 0.15913 0.48128 0.67718 0.0
C969 C 0.13573 0.46909 0.66367 0.0
C970 C 0.15946 0.50376 0.70979 0.0
C971 C 0.13587 0.51421 0.72983 0.0
C972 C 0.11227 0.50181 0.71631 0.0
C973 C 0.1125 0.47964 0.68336 0.0
C974 C 0.18507 0.51634 0.72281 0.0
C975 C 0.08665 0.51181 0.73713 0.0
H976 H 0.13567 0.55351 0.89951 0.0
H977 H 0.1269 0.60357 0.76317 0.0
H978 H 0.1233 0.49575 0.83737 0.0
H979 H 0.15766 0.49821 0.83048 0.0
H980 H 0.14228 0.50885 0.89163 0.0
H981 H 0.13002 0.58828 0.67473 0.0
H982 H 0.14786 0.55853 0.66501 0.0
H983 H 0.11328 0.55776 0.66876 0.0
H984 H 0.17715 0.47339 0.6619 0.0
H985 H 0.0943 0.47033 0.67343 0.0
H986 H 0.18823 0.51619 0.76682 0.0
H987 H 0.18484 0.53691 0.70986 0.0
H988 H 0.20162 0.50636 0.70311 0.0
H989 H 0.08668 0.51171 0.78164 0.0
H990 H 0.07 0.50004 0.72291 0.0
H991 H 0.08372 0.53216 0.72414 0.0
C992 C 0.5582 0.88567 0.20895 0.0
C993 C 0.58334 0.89038 0.22843 0.0
C994 C 0.53677 0.88349 0.24382 0.0
C995 C 0.54035 0.88584 0.3 0.0
C996 C 0.56575 0.89009 0.32006 0.0
C997 C 0.58683 0.89243 0.28418 0.0
C998 C 0.51012 0.87931 0.22031 0.0
C999 C 0.57062 0.89257 0.37952 0.0
C1000 C 0.4825 0.90838 0.38399 0.0
C1001 C 0.47281 0.88508 0.40507 0.0
C1002 C 0.50436 0.90884 0.35014 0.0
C1003 C 0.51731 0.88543 0.33721 0.0
C1004 C 0.50776 0.86179 0.35879 0.0
C1005 C 0.48558 0.86188 0.3922 0.0
C1006 C 0.51338 0.93446 0.32764 0.0
C1007 C 0.52098 0.8364 0.34647 0.0
H1008 H 0.5551 0.88409 0.16609 0.0
H1009 H 0.60608 0.89599 0.29992 0.0
H1010 H 0.50101 0.86188 0.23822 0.0
H1011 H 0.4975 0.89608 0.23008 0.0
H1012 H 0.51063 0.87691 0.17604 0.0
H1013 H 0.59158 0.8944 0.38902 0.0
H1014 H 0.56039 0.90986 0.39538 0.0
H1015 H 0.56276 0.87542 0.40086 0.0
H1016 H 0.47273 0.92641 0.39342 0.0
H1017 H 0.47831 0.84382 0.4085 0.0
H1018 H 0.51282 0.93388 0.28316 0.0
H1019 H 0.53376 0.93812 0.33952 0.0
H1020 H 0.50128 0.95095 0.34159 0.0
H1021 H 0.5204 0.83264 0.30267 0.0
H1022 H 0.51175 0.81983 0.36756 0.0
H1023 H 0.54167 0.83739 0.3583 0.0
C1024 C 0.91099 0.97929 0.63079 0.0
C1025 C 0.88787 0.97023 0.6538 0.0
C1026 C 0.91152 1.00184 0.59884 0.0
C1027 C 0.88843 0.01616 0.59015 0.0
C1028 C 0.86505 1.00726 0.61395 0.0
C1029 C 0.86503 0.98439 0.64517 0.0
C1030 C 0.93683 0.01014 0.57375 0.0
C1031 C 0.84002 0.02191 0.60637 0.0
C1032 C 0.89658 0.08663 0.54339 0.0
C1033 C 0.89229 0.0847 0.48784 0.0
C1034 C 0.89471 0.06474 0.57725 0.0
C1035 C 0.8888 0.04005 0.55526 0.0
C1036 C 0.88422 0.03804 0.49931 0.0
C1037 C 0.88584 0.06028 0.46655 0.0
C1038 C 0.8994 0.06801 0.63661 0.0
C1039 C 0.87816 0.01222 0.47373 0.0
H1040 H 0.92873 0.96845 0.63703 0.0
H1041 H 0.84711 0.97759 0.66298 0.0
H1042 H 0.93484 0.01071 0.52945 0.0
H1043 H 0.94189 0.03 0.58715 0.0
H1044 H 0.95305 0.99691 0.58414 0.0
H1045 H 0.82372 0.01309 0.62904 0.0
H1046 H 0.84243 0.04229 0.61967 0.0
H1047 H 0.83484 0.02236 0.56321 0.0
H1048 H 0.90148 0.10529 0.56056 0.0
H1049 H 0.88259 0.05836 0.4238 0.0
H1050 H 0.91689 0.05694 0.64858 0.0
H1051 H 0.88282 0.06005 0.6597 0.0
H1052 H 0.90217 0.08863 0.64807 0.0
H1053 H 0.89445 0.99856 0.48053 0.0
H1054 H 0.87477 0.01385 0.42987 0.0
H1055 H 0.8607 1.00361 0.49258 0.0
C1056 C 0.08736 0.12365 0.53358 0.0
C1057 C 0.08404 0.12598 0.58936 0.0
C1058 C 0.06616 0.1257 0.49793 0.0
C1059 C 0.04079 0.13002 0.51821 0.0
C1060 C 0.03737 0.13265 0.57441 0.0
C1061 C 0.05891 0.13067 0.60906 0.0
C1062 C 0.07091 0.12296 0.43846 0.0
C1063 C 0.0108 0.13708 0.59817 0.0
C1064 C 0.9863 0.15509 0.42671 0.0
C1065 C 0.97279 0.13225 0.41436 0.0
C1066 C 1.0086 0.15466 0.45966 0.0
C1067 C 0.0177 0.13083 0.4811 0.0
C1068 C 1.0042 0.10771 0.4682 0.0
C1069 C 0.98213 0.1087 0.4349 0.0
C1070 C 0.02227 0.17979 0.47202 0.0
C1071 C 0.01281 0.08189 0.49036 0.0
H1072 H 0.10657 0.12015 0.5176 0.0
H1073 H 0.05591 0.13248 0.65193 0.0
H1074 H 0.06055 0.10567 0.42301 0.0
H1075 H 0.06309 0.14008 0.41693 0.0
H1076 H 0.09183 0.12097 0.42874 0.0
H1077 H 0.01141 0.13965 0.6424 0.0
H1078 H 1.00176 0.15451 0.5801 0.0
H1079 H 0.99807 0.12036 0.58879 0.0
H1080 H 0.97932 0.17336 0.41082 0.0
H1081 H 0.97184 0.09093 0.42573 0.0
H1082 H 0.04307 0.17829 0.46108 0.0
H1083 H 0.0213 0.18376 0.51572 0.0
H1084 H 0.01364 0.19648 0.45029 0.0
H1085 H 0.03317 0.07797 0.47858 0.0
H1086 H 1.0005 0.06564 0.47607 0.0
H1087 H 0.01214 0.08234 0.53484 0.0
C1088 C 0.12925 0.93234 0.53682 0.0
C1089 C 0.13071 0.93536 0.48087 0.0
C1090 C 0.13173 0.95374 0.57182 0.0
C1091 C 0.13544 0.97902 0.55066 0.0
C1092 C 0.13722 0.98213 0.49426 0.0
C1093 C 0.13498 0.96038 0.46028 0.0
C1094 C 0.1299 0.94933 0.63155 0.0
C1095 C 0.1408 1.00863 0.4696 0.0
C1096 C 0.11239 0.03697 0.63367 0.0
C1097 C 0.13562 0.04719 0.65397 0.0
C1098 C 0.11214 0.01495 0.6003 0.0
C1099 C 0.1357 1.00238 0.587 0.0
C1100 C 0.15929 0.01253 0.6076 0.0
C1101 C 0.15898 0.03486 0.6406 0.0
C1102 C 0.08654 1.00527 0.57887 0.0
C1103 C 0.18484 0.99973 0.59485 0.0
H1104 H 0.12602 0.91322 0.55343 0.0
H1105 H 0.1361 0.96313 0.41725 0.0
H1106 H 0.14689 0.95801 0.65204 0.0
H1107 H 0.11234 0.95905 0.64758 0.0
H1108 H 0.12891 0.92841 0.6419 0.0
H1109 H 0.14296 1.00775 0.4253 0.0
H1110 H 0.12385 0.02103 0.47928 0.0
H1111 H 0.15815 0.01822 0.48672 0.0
H1112 H 0.09422 0.0464 0.64349 0.0
H1113 H 0.17699 0.04252 0.65634 0.0
H1114 H 0.0833 0.98496 0.59177 0.0
H1115 H 0.08685 1.00538 0.53436 0.0
H1116 H 0.06993 0.01724 0.59272 0.0
H1117 H 0.18442 0.97917 0.60779 0.0
H1118 H 0.2014 1.00956 0.61476 0.0
H1119 H 0.18817 0.99985 0.55089 0.0
C1120 C 0.04076 0.90672 0.43698 0.0
C1121 C 0.05053 0.88359 0.41516 0.0
C1122 C 0.01835 0.90701 0.46927 0.0
C1123 C 1.0048 0.88363 0.4795 0.0
C1124 C 0.01449 0.86017 0.45728 0.0
C1125 C 0.03734 0.86039 0.42582 0.0
C1126 C 1.00929 0.93241 0.49285 0.0
C1127 C 1.0006 0.83484 0.46645 0.0
C1128 C 0.96057 0.88254 0.60304 0.0
C1129 C 0.93614 0.88849 0.58127 0.0
C1130 C 0.98284 0.88042 0.57044 0.0
C1131 C 0.98083 0.88392 0.51418 0.0
C1132 C 0.95611 0.88925 0.49173 0.0
C1133 C 0.9342 0.89168 0.52542 0.0
C1134 C 1.00872 0.87521 0.59654 0.0
C1135 C 0.95286 0.89279 0.43203 0.0
H1136 H 0.05089 0.92474 0.42931 0.0
H1137 H 0.04468 0.84246 0.40895 0.0
H1138 H 0.98943 0.93688 0.47864 0.0
H1139 H 1.00845 0.93095 0.53722 0.0
H1140 H 0.02221 0.94881 0.48197 0.0
H1141 H 0.01012 0.81843 0.44536 0.0
H1142 H 0.99993 0.83044 0.50997 0.0
H1143 H 0.98027 0.83638 0.45233 0.0
H1144 H 0.96251 0.88015 0.64603 0.0
H1145 H 0.91552 0.89618 0.5079 0.0
H1146 H 0.02187 0.89189 0.58966 0.0
H1147 H 0.01799 0.85795 0.57822 0.0
H1148 H 1.00698 0.87198 0.64045 0.0
H1149 H 0.9636 0.91025 0.41871 0.0
H1150 H 0.9322 0.89499 0.42032 0.0
H1151 H 0.96117 0.87595 0.4103 0.0
C1152 C 0.34664 0.20543 0.19494 0.0
C1153 C 0.3627 0.18879 0.16521 0.0
C1154 C 0.34955 0.23243 0.19306 0.0
C1155 C 0.36928 0.24346 0.16092 0.0
C1156 C 0.38604 0.22678 0.13153 0.0
C1157 C 0.38248 0.19958 0.13377 0.0
C1158 C 0.33084 0.2492 0.2243 0.0
C1159 C 0.40749 0.2377 0.09723 0.0
C1160 C 0.35178 0.31092 0.11219 0.0
C1161 C 0.36413 0.32713 0.14955 0.0
C1162 C 0.35449 0.28389 0.11386 0.0
C1163 C 0.37004 0.27237 0.154 0.0
C1164 C 0.3834 0.28862 0.19086 0.0
C1165 C 0.38028 0.31588 0.18826 0.0
C1166 C 0.33961 0.26761 0.07398 0.0
C1167 C 0.40035 0.27717 0.23402 0.0
H1168 H 0.33134 0.19731 0.21956 0.0
H1169 H 0.3952 0.18684 0.11137 0.0
H1170 H 0.34158 0.26281 0.25056 0.0
H1171 H 0.31911 0.26101 0.19614 0.0
H1172 H 0.31744 0.2376 0.24959 0.0
H1173 H 0.4203 0.22229 0.08085 0.0
H1174 H 0.39906 0.2487 0.06323 0.0
H1175 H 0.41938 0.25146 0.12093 0.0
H1176 H 0.33942 0.31936 0.08172 0.0
H1177 H 0.39015 0.32824 0.21677 0.0
H1178 H 0.32451 0.25628 0.09529 0.0
H1179 H 0.35271 0.25358 0.05395 0.0
H1180 H 0.33002 0.27956 0.04269 0.0
H1181 H 0.3881 0.26693 0.26382 0.0
H1182 H 0.41181 0.29222 0.25526 0.0
H1183 H 0.4138 0.26267 0.21652 0.0
C1184 C 0.32036 0.63593 0.91881 0.0
C1185 C 0.33055 0.65492 0.8845 0.0
C1186 C 0.29352 0.63441 0.92904 0.0
C1187 C 0.27629 0.65176 0.90299 0.0
C1188 C 0.2865 0.67013 0.86624 0.0
C1189 C 0.3135 0.67183 0.85835 0.0
C1190 C 0.28375 0.61511 0.96975 0.0
C1191 C 0.26895 0.68843 0.83611 0.0
C1192 C 0.20366 0.63673 0.89793 0.0
C1193 C 0.19357 0.65479 0.93452 0.0
C1194 C 0.23051 0.63525 0.88769 0.0
C1195 C 0.24782 0.65167 0.91593 0.0
C1196 C 0.23771 0.66903 0.95488 0.0
C1197 C 0.21072 0.67076 0.96283 0.0
C1198 C 0.24017 0.61708 0.84464 0.0
C1199 C 0.25536 0.6863 0.98729 0.0
H1200 H 0.33353 0.62311 0.93988 0.0
H1201 H 0.32134 0.6866 0.83203 0.0
H1202 H 0.27515 0.62561 1.00433 0.0
H1203 H 0.26824 0.60293 0.95214 0.0
H1204 H 0.2994 0.60224 0.9848 0.0
H1205 H 0.27955 0.69963 0.80501 0.0
H1206 H 0.25305 0.67749 0.81648 0.0
H1207 H 0.25991 0.7023 0.86451 0.0
H1208 H 0.19041 0.62469 0.87515 0.0
H1209 H 0.20294 0.68486 0.99081 0.0
H1210 H 0.25566 0.60436 0.86064 0.0
H1211 H 0.24876 0.62851 0.81137 0.0
H1212 H 0.22445 0.60473 0.82811 0.0
H1213 H 0.2712 0.67471 1.00546 0.0
H1214 H 0.24481 0.69662 1.01977 0.0
H1215 H 0.26447 0.70092 0.9607 0.0
C1216 C 0.63804 0.81734 0.16623 0.0
C1217 C 0.65627 0.82707 0.12961 0.0
C1218 C 0.63673 0.79062 0.17803 0.0
C1219 C 0.6535 0.77301 0.15135 0.0
C1220 C 0.67106 0.78273 0.11236 0.0
C1221 C 0.67259 0.80963 0.10284 0.0
C1222 C 0.61832 0.78144 0.22105 0.0
C1223 C 0.6887 0.76476 0.08152 0.0
C1224 C 0.67351 0.70812 0.21321 0.0
C1225 C 0.65687 0.69064 0.18752 0.0
C1226 C 0.67177 0.73501 0.20372 0.0
C1227 C 0.65366 0.74468 0.16582 0.0
C1228 C 0.6366 0.72702 0.1402 0.0
C1229 C 0.63814 0.70032 0.15198 0.0
C1230 C 0.68976 0.75304 0.23346 0.0
C1231 C 0.61758 0.73616 0.09831 0.0
H1232 H 0.62572 0.8308 0.18785 0.0
H1233 H 0.68682 0.8171 0.07482 0.0
H1234 H 0.60578 0.7657 0.20547 0.0
H1235 H 0.62955 0.7733 0.25507 0.0
H1236 H 0.60579 0.79731 0.23642 0.0
H1237 H 0.69922 0.77493 0.04883 0.0
H1238 H 0.70317 0.7561 0.10909 0.0
H1239 H 0.67737 0.7486 0.06384 0.0
H1240 H 0.68811 0.70069 0.24043 0.0
H1241 H 0.62554 0.68683 0.13121 0.0
H1242 H 0.6786 0.76914 0.25187 0.0
H1243 H 0.70379 0.76175 0.205 0.0
H1244 H 0.70077 0.74289 0.26546 0.0
H1245 H 0.60516 0.75181 0.11469 0.0
H1246 H 0.60495 0.72024 0.08363 0.0
H1247 H 0.62831 0.74438 0.06368 0.0
C1248 C 0.81301 0.34755 0.96264 0.0
C1249 C 0.8305 0.36423 0.93702 0.0
C1250 C 0.78612 0.34933 0.95326 0.0
C1251 C 0.77644 0.36753 0.91556 0.0
C1252 C 0.79408 0.38465 0.89006 0.0
C1253 C 0.8208 0.38307 0.90172 0.0
C1254 C 0.76811 0.33125 0.98285 0.0
C1255 C 0.78493 0.40378 0.84841 0.0
C1256 C 0.71152 0.34857 0.85253 0.0
C1257 C 0.69403 0.36475 0.87956 0.0
C1258 C 0.73842 0.35019 0.86196 0.0
C1259 C 0.7481 0.36767 0.9011 0.0
C1260 C 0.73045 0.38431 0.92801 0.0
C1261 C 0.70372 0.38293 0.91632 0.0
C1262 C 0.75643 0.33267 0.83089 0.0
C1263 C 0.7396 0.40266 0.97117 0.0
H1264 H 0.82045 0.33288 0.98968 0.0
H1265 H 0.83428 0.3957 0.881 0.0
H1266 H 0.752 0.34235 1.00138 0.0
H1267 H 0.75941 0.31727 0.95427 0.0
H1268 H 0.77827 0.32017 1.01473 0.0
H1269 H 0.80082 0.41651 0.83393 0.0
H1270 H 0.77677 0.39314 0.81362 0.0
H1271 H 0.76923 0.41611 0.86491 0.0
H1272 H 0.70408 0.33438 0.8244 0.0
H1273 H 0.69024 0.39514 0.93814 0.0
H1274 H 0.76512 0.31815 0.85828 0.0
H1275 H 0.77255 0.34409 0.81332 0.0
H1276 H 0.74627 0.32223 0.79809 0.0
H1277 H 0.74772 0.39137 1.00512 0.0
H1278 H 0.72371 0.41515 0.98661 0.0
H1279 H 0.75533 0.41523 0.95572 0.0
C1280 C 0.88161 0.70099 0.63291 0.0
C1281 C 0.8625 0.68988 0.66562 0.0
C1282 C 0.88498 0.72823 0.63111 0.0
C1283 C 0.86876 0.74465 0.6624 0.0
C1284 C 0.8498 0.73329 0.69599 0.0
C1285 C 0.84701 0.70626 0.69725 0.0
C1286 C 0.90558 0.73949 0.59508 0.0
C1287 C 0.83172 0.74975 0.72946 0.0
C1288 C 0.88023 0.81707 0.68958 0.0
C1289 C 0.86332 0.82843 0.65239 0.0
C1290 C 0.88333 0.7898 0.69175 0.0
C1291 C 0.86917 0.77362 0.65604 0.0
C1292 C 0.85272 0.78524 0.61759 0.0
C1293 C 0.85006 0.81228 0.61629 0.0
C1294 C 0.90122 0.77826 0.73313 0.0
C1295 C 0.83696 0.76905 0.57902 0.0
H1296 H 0.8939 0.68848 0.60896 0.0
H1297 H 0.83226 0.6979 0.72293 0.0
H1298 H 0.89632 0.75049 0.56202 0.0
H1299 H 0.91781 0.75332 0.61788 0.0
H1300 H 0.91819 0.72427 0.57737 0.0
H1301 H 0.81906 0.73791 0.75589 0.0
H1302 H 0.84296 0.76336 0.7548 0.0
H1303 H 0.81921 0.76156 0.70277 0.0
H1304 H 0.89077 0.82939 0.71715 0.0
H1305 H 0.83708 0.82081 0.58702 0.0
H1306 H 0.91446 0.76401 0.71408 0.0
H1307 H 0.88968 0.76768 0.76364 0.0
H1308 H 0.91295 0.79328 0.75382 0.0
H1309 H 0.84965 0.7552 0.55733 0.0
H1310 H 0.82652 0.78106 0.54905 0.0
H1311 H 0.8225 0.7575 0.60166 0.0
C1312 C 0.8151 0.1699 0.45459 0.0
C1313 C 0.83119 0.15702 0.4177 0.0
C1314 C 0.78804 0.16724 0.45348 0.0
C1315 C 0.77633 0.15118 0.4144 0.0
C1316 C 0.79247 0.13735 0.37794 0.0
C1317 C 0.81975 0.14043 0.37998 0.0
C1318 C 0.77193 0.18262 0.49289 0.0
C1319 C 0.78086 0.1199 0.33584 0.0
C1320 C 0.70358 0.13857 0.43632 0.0
C1321 C 0.69253 0.15794 0.40419 0.0
C1322 C 0.73084 0.13525 0.43843 0.0
C1323 C 0.74734 0.15178 0.40808 0.0
C1324 C 0.73605 0.17107 0.37524 0.0
C1325 C 0.70901 0.1738 0.37363 0.0
C1326 C 0.74202 0.1143 0.47364 0.0
C1327 C 0.75257 0.18949 0.34281 0.0
H1328 H 0.82367 0.18261 0.48431 0.0
H1329 H 0.832 0.13016 0.35179 0.0
H1330 H 0.76046 0.19743 0.47103 0.0
H1331 H 0.75801 0.16976 0.51388 0.0
H1332 H 0.78399 0.19262 0.52342 0.0
H1333 H 0.79583 0.1083 0.31461 0.0
H1334 H 0.76658 0.10654 0.35435 0.0
H1335 H 0.77031 0.13177 0.30586 0.0
H1336 H 0.69101 0.12602 0.45946 0.0
H1337 H 0.70072 0.18879 0.34845 0.0
H1338 H 0.75314 0.12322 0.50693 0.0
H1339 H 0.75573 0.10215 0.45029 0.0
H1340 H 0.72676 0.10165 0.49102 0.0
H1341 H 0.76442 0.20161 0.37018 0.0
H1342 H 0.74079 0.20253 0.31707 0.0
H1343 H 0.76614 0.1785 0.31685 0.0
C1344 C 0.13783 0.31656 0.66462 0.0
C1345 C 0.15644 0.326 0.6285 0.0
C1346 C 0.13621 0.28991 0.6768 0.0
C1347 C 0.15309 0.2721 0.65105 0.0
C1348 C 0.171 0.28151 0.61243 0.0
C1349 C 0.17281 0.30834 0.6025 0.0
C1350 C 0.11741 0.28103 0.71938 0.0
C1351 C 0.18879 0.26328 0.58258 0.0
C1352 C 0.17273 0.20765 0.71497 0.0
C1353 C 0.15641 0.19 0.68892 0.0
C1354 C 0.17093 0.23449 0.705 0.0
C1355 C 0.15309 0.2439 0.66631 0.0
C1356 C 0.13626 0.2261 0.6405 0.0
C1357 C 0.13785 0.19945 0.65271 0.0
C1358 C 0.18866 0.2527 0.73491 0.0
C1359 C 0.11752 0.23498 0.59784 0.0
H1360 H 0.12546 0.33019 0.68566 0.0
H1361 H 0.18733 0.3156 0.57489 0.0
H1362 H 0.10506 0.26513 0.70388 0.0
H1363 H 0.12833 0.27323 0.75414 0.0
H1364 H 0.1047 0.297 0.73365 0.0
H1365 H 0.19955 0.27322 0.54993 0.0
H1366 H 0.20304 0.25476 0.6108 0.0
H1367 H 0.17752 0.24705 0.56501 0.0
H1368 H 0.1872 0.20039 0.74264 0.0
H1369 H 0.12552 0.18583 0.63164 0.0
H1370 H 0.17736 0.26894 0.75244 0.0
H1371 H 0.20295 0.26121 0.70674 0.0
H1372 H 0.19938 0.24276 0.76761 0.0
H1373 H 0.10514 0.2509 0.61328 0.0
H1374 H 0.10484 0.21902 0.58353 0.0
H1375 H 0.1285 0.24277 0.56312 0.0
C1376 C 0.31327 0.84515 0.46014 0.0
C1377 C 0.33039 0.862 0.43398 0.0
C1378 C 0.2863 0.84679 0.45185 0.0
C1379 C 0.2762 0.86502 0.4147 0.0
C1380 C 0.29349 0.8823 0.38862 0.0
C1381 C 0.3203 0.88085 0.39924 0.0
C1382 C 0.26867 0.82858 0.48203 0.0
C1383 C 0.28384 0.90145 0.34748 0.0
C1384 C 0.21083 0.8458 0.35452 0.0
C1385 C 0.19359 0.86187 0.38244 0.0
C1386 C 0.2378 0.84756 0.36269 0.0
C1387 C 0.24778 0.86506 0.40147 0.0
C1388 C 0.23036 0.88158 0.42929 0.0
C1389 C 0.20355 0.88006 0.41883 0.0
C1390 C 0.25557 0.83019 0.3307 0.0
C1391 C 0.23987 0.8999 0.47217 0.0
H1392 H 0.32104 0.83048 0.48678 0.0
H1393 H 0.33352 0.89362 0.37816 0.0
H1394 H 0.25269 0.83957 0.50134 0.0
H1395 H 0.25975 0.81462 0.45371 0.0
H1396 H 0.27918 0.81748 0.51339 0.0
H1397 H 0.29953 0.91425 0.3324 0.0
H1398 H 0.27537 0.89081 0.31299 0.0
H1399 H 0.26825 0.91369 0.36473 0.0
H1400 H 0.20315 0.8316 0.32669 0.0
H1401 H 0.19022 0.89217 0.44132 0.0
H1402 H 0.2646 0.81565 0.35758 0.0
H1403 H 0.27146 0.84172 0.31253 0.0
H1404 H 0.24513 0.81976 0.29826 0.0
H1405 H 0.24839 0.8886 0.50568 0.0
H1406 H 0.22409 0.9123 0.48838 0.0
H1407 H 0.25539 0.91258 0.45611 0.0
C1408 C 0.20677 0.0938 0.85701 0.0
C1409 C 0.21243 0.10608 0.80797 0.0
C1410 C 0.22485 0.09291 0.89962 0.0
C1411 C 0.24918 0.10555 0.89471 0.0
C1412 C 0.25499 0.11814 0.84527 0.0
C1413 C 0.23684 0.11784 0.80239 0.0
C1414 C 0.21789 0.07822 0.94996 0.0
C1415 C 0.28009 0.13274 0.83823 0.0
C1416 C 0.28439 0.12358 1.02667 0.0
C1417 C 0.30499 0.10579 1.02802 0.0
C1418 C 0.26643 0.12397 0.98352 0.0
C1419 C 0.26837 0.10553 0.94115 0.0
C1420 C 0.28869 0.08697 0.94357 0.0
C1421 C 0.30697 0.08777 0.98589 0.0
C1422 C 0.24592 0.14481 0.98228 0.0
C1423 C 0.29135 0.06626 0.90117 0.0
H1424 H 0.188 0.08469 0.86208 0.0
H1425 H 0.24133 0.12781 0.76527 0.0
H1426 H 0.23307 0.0636 0.95882 0.0
H1427 H 0.21703 0.09163 0.98466 0.0
H1428 H 0.19891 0.06821 0.94656 0.0
H1429 H 0.28117 0.14281 0.79891 0.0
H1430 H 0.28222 0.14731 0.87071 0.0
H1431 H 0.29674 0.11926 0.84133 0.0
H1432 H 0.28306 0.13804 0.05811 0.0
H1433 H 0.32302 0.0742 0.98598 0.0
H1434 H 0.22635 0.13597 0.98329 0.0
H1435 H 0.24743 0.15594 0.94431 0.0
H1436 H 0.24765 0.15846 1.01655 0.0
H1437 H 0.27236 0.05685 0.89362 0.0
H1438 H 0.30561 0.05113 0.91273 0.0
H1439 H 0.29785 0.07511 0.86294 0.0
C1440 C 0.0971 0.70576 0.1004 0.0
C1441 C 0.10952 0.71081 0.05126 0.0
C1442 C 0.09622 0.72435 0.14211 0.0
C1443 C 0.10896 0.74855 0.13601 0.0
C1444 C 0.1216 0.75377 0.08636 0.0
C1445 C 0.12133 0.73511 0.04446 0.0
C1446 C 0.08163 0.71793 0.19291 0.0
C1447 C 0.13627 0.77873 0.07814 0.0
C1448 C 0.09176 0.80725 0.2252 0.0
C1449 C 0.10992 0.80548 0.267 0.0
C1450 C 0.09074 0.7886 0.18356 0.0
C1451 C 0.10921 0.76817 0.18158 0.0
C1452 C 0.12783 0.76654 0.22352 0.0
C1453 C 0.12764 0.78484 0.26603 0.0
C1454 C 0.06978 0.7908 0.14164 0.0
C1455 C 0.14856 0.74592 0.22267 0.0
H1456 H 0.08784 0.68714 0.10623 0.0
H1457 H 0.13138 0.73911 1.00717 0.0
H1458 H 0.09537 0.71602 0.22683 0.0
H1459 H 0.06798 0.73383 0.20303 0.0
H1460 H 0.07055 0.69956 0.1894 0.0
H1461 H 0.14568 0.77969 0.03809 0.0
H1462 H 0.12303 0.79553 0.08233 0.0
H1463 H 0.15141 0.78072 0.10949 0.0
H1464 H 0.07818 0.82329 0.22522 0.0
H1465 H 0.14213 0.78364 0.29739 0.0
H1466 H 0.05948 0.77203 0.13742 0.0
H1467 H 0.07851 0.79542 0.10215 0.0
H1468 H 0.05541 0.8061 0.1516 0.0
H1469 H 0.13962 0.72646 0.22597 0.0
H1470 H 0.1627 0.74826 0.2559 0.0
H1471 H 0.15918 0.74655 0.18395 0.0
C1472 C 0.7075 0.89398 0.95954 0.0
C1473 C 0.71114 0.90757 1.00801 0.0
C1474 C 0.7259 0.89454 0.91756 0.0
C1475 C 0.74877 0.90956 0.92272 0.0
C1476 C 0.75268 0.92343 0.97151 0.0
C1477 C 0.73404 0.92209 1.01355 0.0
C1478 C 0.72089 0.87868 0.8677 0.0
C1479 C 0.77654 0.93985 0.97921 0.0
C1480 C 0.80783 0.89049 0.83696 0.0
C1481 C 0.80646 0.90739 0.7927 0.0
C1482 C 0.78946 0.89109 0.87899 0.0
C1483 C 0.769 0.90944 0.87821 0.0
C1484 C 0.76734 0.92657 0.8335 0.0
C1485 C 0.78584 0.92518 0.79118 0.0
C1486 C 0.79194 0.87177 0.92419 0.0
C1487 C 0.74616 0.94665 0.8307 0.0
H1488 H 0.69021 0.88239 0.95444 0.0
H1489 H 0.73722 0.93279 0.05037 0.0
H1490 H 0.71787 0.89174 0.83295 0.0
H1491 H 0.73789 0.86628 0.85844 0.0
H1492 H 0.70358 0.86606 0.87187 0.0
H1493 H 0.77604 0.95087 1.01749 0.0
H1494 H 0.79406 0.92739 0.97909 0.0
H1495 H 0.77852 0.95372 0.94544 0.0
H1496 H 0.82333 0.87638 0.83859 0.0
H1497 H 0.78456 0.93852 0.75773 0.0
H1498 H 0.77347 0.86106 0.92948 0.0
H1499 H 0.79597 0.88207 0.96233 0.0
H1500 H 0.80771 0.85752 0.91707 0.0
H1501 H 0.72704 0.93697 0.82764 0.0
H1502 H 0.7485 0.95981 0.79578 0.0
H1503 H 0.74599 0.9584 0.86801 0.0
C1504 C 0.89331 0.30963 0.10145 0.0
C1505 C 0.91098 0.30889 0.0584 0.0
C1506 C 0.89406 0.2914 0.14377 0.0
C1507 C 0.9134 0.27184 0.14465 0.0
C1508 C 0.93147 0.27101 0.1014 0.0
C1509 C 0.92985 0.28923 0.05866 0.0
C1510 C 0.87379 0.29295 0.18734 0.0
C1511 C 0.9528 0.25103 0.10064 0.0
C1512 C 0.92504 0.23726 0.28096 0.0
C1513 C 0.91187 0.21364 0.274 0.0
C1514 C 0.92629 0.25604 0.23912 0.0
C1515 C 0.91363 0.25156 0.18913 0.0
C1516 C 0.90011 0.22787 0.18238 0.0
C1517 C 0.8996 0.20939 0.22417 0.0
C1518 C 0.94142 0.28063 0.24824 0.0
C1519 C 0.88568 0.22207 0.13105 0.0
H1520 H 0.87843 0.32444 0.10172 0.0
H1521 H 0.94383 0.28851 1.02623 0.0
H1522 H 0.86291 0.27443 0.18943 0.0
H1523 H 0.88318 0.29589 0.22686 0.0
H1524 H 0.8598 0.30899 0.18064 0.0
H1525 H 0.96625 0.25375 0.06629 0.0
H1526 H 0.96405 0.25205 0.13851 0.0
H1527 H 0.94436 0.23131 0.09816 0.0
H1528 H 0.9348 0.2409 0.31868 0.0
H1529 H 0.88914 0.19145 0.21767 0.0
H1530 H 0.92827 0.29761 0.24627 0.0
H1531 H 0.95611 0.28304 0.21607 0.0
H1532 H 0.95139 0.28075 0.28772 0.0
H1533 H 0.87066 0.23711 0.12415 0.0
H1534 H 0.87613 0.20278 0.13179 0.0
H1535 H 0.89914 0.22265 0.09639 0.0
C1536 C 0.31015 0.4248 0.33717 0.0
C1537 C 0.30584 0.41065 0.28977 0.0
C1538 C 0.29182 0.4255 0.37939 0.0
C1539 C 0.26877 0.41046 0.37635 0.0
C1540 C 0.26439 0.39591 0.32841 0.0
C1541 C 0.28259 0.39669 0.28558 0.0
C1542 C 0.29773 0.44226 0.42748 0.0
C1543 C 0.24092 0.37877 0.32166 0.0
C1544 C 0.23671 0.39738 0.51478 0.0
C1545 C 0.2126 0.40977 0.50976 0.0
C1546 C 0.25484 0.39689 0.47181 0.0
C1547 C 0.24946 0.41021 0.42284 0.0
C1548 C 0.22547 0.42367 0.41883 0.0
C1549 C 0.20726 0.42262 0.46128 0.0
C1550 C 0.27945 0.38153 0.47963 0.0
C1551 C 0.21862 0.4392 0.36956 0.0
H1552 H 0.3281 0.43553 0.34136 0.0
H1553 H 0.27914 0.38524 0.24982 0.0
H1554 H 0.27986 0.44959 0.4471 0.0
H1555 H 0.30885 0.43074 0.45713 0.0
H1556 H 0.30991 0.45913 0.41602 0.0
H1557 H 0.24659 0.36011 0.30277 0.0
H1558 H 0.23089 0.37451 0.36 0.0
H1559 H 0.22706 0.38831 0.29397 0.0
H1560 H 0.24101 0.387 0.55152 0.0
H1561 H 0.18869 0.43218 0.45654 0.0
H1562 H 0.29317 0.39306 0.50422 0.0
H1563 H 0.28903 0.37631 0.44127 0.0
H1564 H 0.2754 0.36342 0.50221 0.0
H1565 H 0.23595 0.44867 0.35192 0.0
H1566 H 0.20398 0.45437 0.37874 0.0
H1567 H 0.21016 0.42611 0.339 0.0
C1568 C 0.43013 0.72962 0.76622 0.0
C1569 C 0.41103 0.71023 0.76595 0.0
C1570 C 0.43167 0.74835 0.72453 0.0
C1571 C 0.41329 0.74826 0.68193 0.0
C1572 C 0.39371 0.72898 0.6823 0.0
C1573 C 0.393 0.71026 0.72362 0.0
C1574 C 0.45322 0.76806 0.7257 0.0
C1575 C 0.37316 0.72823 0.63926 0.0
C1576 C 0.39976 0.81149 0.6053 0.0
C1577 C 0.41166 0.80738 0.55506 0.0
C1578 C 0.4004 0.79273 0.6465 0.0
C1579 C 0.4136 0.76892 0.63847 0.0
C1580 C 0.42594 0.76465 0.58809 0.0
C1581 C 0.42464 0.78372 0.54702 0.0
C1582 C 0.38635 0.79826 0.69844 0.0
C1583 C 0.44063 0.73988 0.57759 0.0
H1584 H 0.44432 0.72975 0.79824 0.0
H1585 H 0.37789 0.69571 0.72317 0.0
H1586 H 0.46419 0.76745 0.68739 0.0
H1587 H 0.44502 0.78784 0.72964 0.0
H1588 H 0.46689 0.76472 0.75939 0.0
H1589 H 0.35894 0.71238 0.64569 0.0
H1590 H 0.36259 0.74696 0.63826 0.0
H1591 H 0.38228 0.72551 0.59937 0.0
H1592 H 0.38945 0.82945 0.61251 0.0
H1593 H 0.43405 0.7802 0.50883 0.0
H1594 H 0.39983 0.79658 0.73286 0.0
H1595 H 0.37078 0.78372 0.70448 0.0
H1596 H 0.37755 0.81792 0.69914 0.0
H1597 H 0.45513 0.73664 0.60976 0.0
H1598 H 0.45076 0.74014 0.53825 0.0
H1599 H 0.42712 0.72318 0.57819 0.0
C1600 C 0.71155 0.62817 0.3512 0.0
C1601 C 0.71175 0.60997 0.3091 0.0
C1602 C 0.72971 0.62731 0.3936 0.0
C1603 C 0.74866 0.6074 0.39542 0.0
C1604 C 0.74895 0.58882 0.35309 0.0
C1605 C 0.7308 0.59051 0.31029 0.0
C1606 C 0.72874 0.64807 0.43624 0.0
C1607 C 0.76828 0.5669 0.35338 0.0
C1608 C 0.81153 0.62041 0.4737 0.0
C1609 C 0.80704 0.60883 0.52417 0.0
C1610 C 0.79299 0.6199 0.4321 0.0
C1611 C 0.76897 0.60711 0.43973 0.0
C1612 C 0.76422 0.59516 0.49038 0.0
C1613 C 0.7831 0.59637 0.53198 0.0
C1614 C 0.79909 0.63358 0.38 0.0
C1615 C 0.7392 0.58089 0.5005 0.0
H1616 H 0.69724 0.64352 0.35065 0.0
H1617 H 0.73107 0.57614 0.27858 0.0
H1618 H 0.72544 0.63918 0.47615 0.0
H1619 H 0.74759 0.65838 0.43798 0.0
H1620 H 0.71316 0.66249 0.4288 0.0
H1621 H 0.76515 0.55315 0.31971 0.0
H1622 H 0.78824 0.57472 0.35048 0.0
H1623 H 0.76694 0.55612 0.39181 0.0
H1624 H 0.82971 0.63034 0.46653 0.0
H1625 H 0.77924 0.5872 0.57025 0.0
H1626 H 0.81861 0.64264 0.38015 0.0
H1627 H 0.78443 0.64888 0.3724 0.0
H1628 H 0.79813 0.61972 0.34605 0.0
H1629 H 0.72266 0.59457 0.49854 0.0
H1630 H 0.73897 0.5712 0.54029 0.0
H1631 H 0.73613 0.56607 0.46885 0.0
C1632 C 0.59515 0.23434 0.54173 0.0
C1633 C 0.6134 0.21409 0.54214 0.0
C1634 C 0.59384 0.25275 0.58426 0.0
C1635 C 0.61153 0.25146 0.62809 0.0
C1636 C 0.63032 0.23138 0.62775 0.0
C1637 C 0.63083 0.21306 0.58556 0.0
C1638 C 0.5732 0.27342 0.5827 0.0
C1639 C 0.65021 0.22927 0.67194 0.0
C1640 C 0.62634 0.31337 0.709 0.0
C1641 C 0.61345 0.30935 0.75821 0.0
C1642 C 0.62578 0.29495 0.66699 0.0
C1643 C 0.61146 0.27166 0.6728 0.0
C1644 C 0.59827 0.2674 0.72229 0.0
C1645 C 0.5996 0.28605 0.76435 0.0
C1646 C 0.64094 0.30037 0.61639 0.0
C1647 C 0.58251 0.24313 0.7307 0.0
H1648 H 0.58138 0.23535 0.50901 0.0
H1649 H 0.64528 0.19785 0.58636 0.0
H1650 H 0.56179 0.27307 0.62045 0.0
H1651 H 0.58234 0.29281 0.57974 0.0
H1652 H 0.55979 0.27092 0.54824 0.0
H1653 H 0.66458 0.21367 0.66422 0.0
H1654 H 0.66071 0.2479 0.67648 0.0
H1655 H 0.64043 0.22518 0.71066 0.0
H1656 H 0.63736 0.331 0.70331 0.0
H1657 H 0.58943 0.28256 0.80168 0.0
H1658 H 0.6275 0.30237 0.58198 0.0
H1659 H 0.65413 0.28394 0.60737 0.0
H1660 H 0.65267 0.31834 0.61947 0.0
H1661 H 0.57242 0.24305 0.77008 0.0
H1662 H 0.59523 0.22585 0.72846 0.0
H1663 H 0.56788 0.24125 0.69832 0.0
C1664 C 0.32717 0.10417 0.53306 0.0
C1665 C 0.34797 0.10436 0.49668 0.0
C1666 C 0.33119 0.10799 0.58835 0.0
C1667 C 0.35663 0.11205 0.60792 0.0
C1668 C 0.37766 0.11251 0.57138 0.0
C1669 C 0.37308 0.10873 0.51637 0.0
C1670 C 0.30823 0.10737 0.62592 0.0
C1671 C 0.40509 0.11685 0.59044 0.0
C1672 C 0.36759 0.14339 0.7446 0.0
C1673 C 0.3733 0.12185 0.77691 0.0
C1674 C 0.36163 0.14046 0.68987 0.0
C1675 C 0.36143 0.1154 0.66666 0.0
C1676 C 0.36673 0.09355 0.69925 0.0
C1677 C 0.37256 0.09703 0.75386 0.0
C1678 C 0.35588 0.16424 0.6567 0.0
C1679 C 0.36683 0.0665 0.67614 0.0
H1680 H 0.30774 0.10054 0.51845 0.0
H1681 H 0.38924 0.10939 0.48861 0.0
H1682 H 0.31046 0.09122 0.65491 0.0
H1683 H 0.30732 0.12559 0.64951 0.0
H1684 H 0.2896 0.10486 0.60424 0.0
H1685 H 0.41927 0.11687 0.5569 0.0
H1686 H 0.40646 0.13564 0.61189 0.0
H1687 H 0.41063 0.10146 0.61929 0.0
H1688 H 0.36775 0.1626 0.76219 0.0
H1689 H 0.37723 0.08029 0.77826 0.0
H1690 H 0.3367 0.16227 0.63706 0.0
H1691 H 0.37054 0.16622 0.62439 0.0
H1692 H 0.35591 0.18226 0.68111 0.0
H1693 H 0.34803 0.06239 0.65632 0.0
H1694 H 0.37034 0.05147 0.70719 0.0
H1695 H 0.38213 0.06488 0.64503 0.0
C1696 C 0.13564 0.66336 0.55263 0.0
C1697 C 0.11194 0.66141 0.58001 0.0
C1698 C 0.13735 0.65843 0.49724 0.0
C1699 C 0.11486 0.65117 0.46836 0.0
C1700 C 0.09087 0.64918 0.49575 0.0
C1701 C 0.08969 0.6544 0.55112 0.0
C1702 C 0.16327 0.66095 0.46962 0.0
C1703 C 0.06648 0.6413 0.46665 0.0
C1704 C 0.11506 0.65861 0.31599 0.0
C1705 C 0.12069 0.63328 0.29889 0.0
C1706 C 0.11296 0.66471 0.37087 0.0
C1707 C 0.1166 0.64503 0.40981 0.0
C1708 C 0.12217 0.61943 0.39283 0.0
C1709 C 0.1241 0.61388 0.33776 0.0
C1710 C 0.10705 0.69226 0.38718 0.0
C1711 C 0.12614 0.59785 0.4329 0.0
H1712 H 0.15286 0.66912 0.57445 0.0
H1713 H 0.07135 0.65261 0.57203 0.0
H1714 H 0.16893 0.64209 0.45172 0.0
H1715 H 0.16191 0.67517 0.43636 0.0
H1716 H 0.17882 0.66727 0.4975 0.0
H1717 H 0.04928 0.64104 0.49348 0.0
H1718 H 0.06265 0.65485 0.43303 0.0
H1719 H 0.06897 0.6217 0.44904 0.0
H1720 H 0.11269 0.67383 0.28643 0.0
H1721 H 0.12802 0.59417 0.32509 0.0
H1722 H 0.12301 0.69996 0.41236 0.0
H1723 H 0.08914 0.69283 0.4118 0.0
H1724 H 0.10447 0.70524 0.35204 0.0
H1725 H 0.14254 0.60264 0.45987 0.0
H1726 H 0.13022 0.57896 0.41323 0.0
H1727 H 0.10864 0.59573 0.45838 0.0
C1728 C 0.66205 0.88238 0.50832 0.0
C1729 C 0.66313 0.90643 0.48205 0.0
C1730 C 0.65643 0.88066 0.56348 0.0
C1731 C 0.65193 0.90355 0.59352 0.0
C1732 C 0.65308 0.9279 0.56729 0.0
C1733 C 0.65854 0.92903 0.51197 0.0
C1734 C 0.65514 0.8543 0.58956 0.0
C1735 C 0.6486 0.9528 0.59775 0.0
C1736 C 0.61349 0.89858 0.724 0.0
C1737 C 0.63313 0.89882 0.76299 0.0
C1738 C 0.61935 0.90009 0.66894 0.0
C1739 C 0.6455 0.90198 0.65208 0.0
C1740 C 0.66544 0.90223 0.6912 0.0
C1741 C 0.65903 0.90058 0.74604 0.0
C1742 C 0.59748 0.89956 0.62874 0.0
C1743 C 0.69357 0.90437 0.67516 0.0
H1744 H 0.66525 0.86478 0.4855 0.0
H1745 H 0.65965 0.94772 0.49226 0.0
H1746 H 0.66925 0.85318 0.62302 0.0
H1747 H 0.63559 0.85117 0.60693 0.0
H1748 H 0.65931 0.83837 0.56081 0.0
H1749 H 0.65056 0.97017 0.57178 0.0
H1750 H 0.62891 0.95277 0.61566 0.0
H1751 H 0.66266 0.95437 0.63124 0.0
H1752 H 0.59346 0.89686 0.73652 0.0
H1753 H 0.67433 0.90111 0.77577 0.0
H1754 H 0.59997 0.8829 0.60107 0.0
H1755 H 0.59785 0.91742 0.604 0.0
H1756 H 0.57819 0.89802 0.64827 0.0
H1757 H 0.69895 0.8879 0.64878 0.0
H1758 H 0.70675 0.90449 0.71039 0.0
H1759 H 0.6967 0.92242 0.65186 0.0
C1760 C 0.88082 0.37481 0.33132 0.0
C1761 C 0.90217 0.38535 0.30403 0.0
C1762 C 0.88213 0.36881 0.38638 0.0
C1763 C 0.9054 0.37332 0.41508 0.0
C1764 C 0.92711 0.38367 0.38765 0.0
C1765 C 0.92523 0.38957 0.33267 0.0
C1766 C 0.85851 0.35787 0.41398 0.0
C1767 C 0.95236 0.38857 0.41643 0.0
C1768 C 0.90266 0.38052 0.56753 0.0
C1769 C 0.91047 0.35586 0.58508 0.0
C1770 C 0.90085 0.38642 0.51251 0.0
C1771 C 0.90706 0.36727 0.47377 0.0
C1772 C 0.91504 0.34238 0.49119 0.0
C1773 C 0.91662 0.33699 0.54645 0.0
C1774 C 0.89216 0.41316 0.49583 0.0
C1775 C 0.92202 0.32143 0.4514 0.0
H1776 H 0.86283 0.37172 0.30985 0.0
H1777 H 0.94198 0.3973 0.3119 0.0
H1778 H 0.86321 0.33884 0.43222 0.0
H1779 H 0.8524 0.37095 0.44699 0.0
H1780 H 0.84196 0.3553 0.38603 0.0
H1781 H 0.9675 0.39653 0.38936 0.0
H1782 H 0.94925 0.40244 0.44985 0.0
H1783 H 0.95965 0.37028 0.43427 0.0
H1784 H 0.89753 0.39514 0.59689 0.0
H1785 H 0.92303 0.318 0.55943 0.0
H1786 H 0.8744 0.41176 0.47096 0.0
H1787 H 0.90732 0.42245 0.47081 0.0
H1788 H 0.88806 0.42589 0.53079 0.0
H1789 H 0.90532 0.31748 0.42463 0.0
H1790 H 0.92774 0.30305 0.47134 0.0
H1791 H 0.93828 0.32801 0.42566 0.0
C1792 C 0.35403 0.38258 0.56306 0.0
C1793 C 0.3737 0.3977 0.53986 0.0
C1794 C 0.34714 0.38553 0.61738 0.0
C1795 C 0.36022 0.40402 0.64948 0.0
C1796 C 0.3796 0.4198 0.62597 0.0
C1797 C 0.38606 0.41647 0.57162 0.0
C1798 C 0.32633 0.36836 0.64073 0.0
C1799 C 0.39386 0.43994 0.65851 0.0
C1800 C 0.33147 0.4266 0.78271 0.0
C1801 C 0.34614 0.4124 0.81995 0.0
C1802 C 0.33545 0.42374 0.72713 0.0
C1803 C 0.35454 0.40622 0.70817 0.0
C1804 C 0.369 0.39144 0.74552 0.0
C1805 C 0.36465 0.39471 0.80077 0.0
C1806 C 0.31966 0.43991 0.68872 0.0
C1807 C 0.3894 0.37241 0.72713 0.0
H1808 H 0.34446 0.36789 0.53913 0.0
H1809 H 0.40086 0.42866 0.55392 0.0
H1810 H 0.33493 0.35537 0.67137 0.0
H1811 H 0.31137 0.38026 0.66116 0.0
H1812 H 0.31673 0.35626 0.60968 0.0
H1813 H 0.40766 0.45136 0.63381 0.0
H1814 H 0.37985 0.45345 0.67748 0.0
H1815 H 0.4048 0.43038 0.69129 0.0
H1816 H 0.3173 0.44049 0.79704 0.0
H1817 H 0.37577 0.38333 0.82911 0.0
H1818 H 0.30996 0.42727 0.65884 0.0
H1819 H 0.33261 0.45319 0.66624 0.0
H1820 H 0.30468 0.45164 0.70963 0.0
H1821 H 0.38078 0.35815 0.69902 0.0
H1822 H 0.39835 0.36175 0.76111 0.0
H1823 H 0.40491 0.38281 0.70506 0.0
C1824 C 0.38627 0.66769 0.2656 0.0
C1825 C 0.40934 0.66277 0.23744 0.0
C1826 C 0.38413 0.66236 0.32078 0.0
C1827 C 0.4056 0.65192 0.34882 0.0
C1828 C 0.42898 0.647 0.3207 0.0
C1829 C 0.43054 0.6524 0.26544 0.0
C1830 C 0.35878 0.6677 0.34899 0.0
C1831 C 0.45237 0.63602 0.34903 0.0
C1832 C 0.40745 0.65788 0.50152 0.0
C1833 C 0.3995 0.63307 0.51786 0.0
C1834 C 0.4095 0.66431 0.44679 0.0
C1835 C 0.40338 0.64554 0.40722 0.0
C1836 C 0.39513 0.62057 0.42347 0.0
C1837 C 0.39331 0.61466 0.4784 0.0
C1838 C 0.41844 0.69114 0.43132 0.0
C1839 C 0.38822 0.60003 0.38275 0.0
H1840 H 0.36968 0.67538 0.24426 0.0
H1841 H 0.44854 0.64885 0.24427 0.0
H1842 H 0.35093 0.64944 0.36595 0.0
H1843 H 0.36194 0.68121 0.38298 0.0
H1844 H 0.34405 0.67622 0.32173 0.0
H1845 H 0.46925 0.63373 0.32175 0.0
H1846 H 0.45802 0.64886 0.38275 0.0
H1847 H 0.44758 0.61681 0.3664 0.0
H1848 H 0.41256 0.67217 0.53158 0.0
H1849 H 0.38675 0.59558 0.4905 0.0
H1850 H 0.40364 0.70065 0.40577 0.0
H1851 H 0.43651 0.68982 0.40735 0.0
H1852 H 0.42212 0.70362 0.46684 0.0
H1853 H 0.37234 0.60708 0.35655 0.0
H1854 H 0.38199 0.58161 0.40186 0.0
H1855 H 0.40514 0.59598 0.35657 0.0
C1856 C 0.66926 0.63515 0.80784 0.0
C1857 C 0.66482 0.61199 0.83599 0.0
C1858 C 0.66389 0.63717 0.75264 0.0
C1859 C 0.65393 0.61549 0.72452 0.0
C1860 C 0.64952 0.59202 0.75262 0.0
C1861 C 0.65492 0.59059 0.80791 0.0
C1862 C 0.66867 0.66262 0.72449 0.0
C1863 C 0.63908 0.56839 0.72424 0.0
C1864 C 0.61643 0.62684 0.5948 0.0
C1865 C 0.63499 0.62104 0.55532 0.0
C1866 C 0.62237 0.62522 0.64976 0.0
C1867 C 0.64753 0.61755 0.66606 0.0
C1868 C 0.66644 0.61185 0.62647 0.0
C1869 C 0.65998 0.61369 0.57171 0.0
C1870 C 0.60167 0.63171 0.69045 0.0
C1871 C 0.69346 0.60351 0.64196 0.0
H1872 H 0.6766 0.6519 0.82921 0.0
H1873 H 0.65174 0.57252 0.82905 0.0
H1874 H 0.68229 0.65975 0.69054 0.0
H1875 H 0.65026 0.67007 0.70748 0.0
H1876 H 0.67683 0.67755 0.75181 0.0
H1877 H 0.63717 0.55147 0.75149 0.0
H1878 H 0.61978 0.57276 0.70686 0.0
H1879 H 0.65207 0.56301 0.69053 0.0
H1880 H 0.59721 0.63294 0.58269 0.0
H1881 H 0.6744 0.60888 0.54167 0.0
H1882 H 0.60835 0.64774 0.7167 0.0
H1883 H 0.59797 0.61471 0.71659 0.0
H1884 H 0.58314 0.63755 0.67132 0.0
H1885 H 0.70251 0.61835 0.66815 0.0
H1886 H 0.70613 0.60042 0.60647 0.0
H1887 H 0.69256 0.58522 0.66527 0.0
C1888 C 0.61978 0.40696 0.47497 0.0
C1889 C 0.62171 0.38729 0.51371 0.0
C1890 C 0.61826 0.40114 0.41991 0.0
C1891 C 0.6187 0.37496 0.40275 0.0
C1892 C 0.62067 0.35498 0.44158 0.0
C1893 C 0.62217 0.36137 0.49644 0.0
C1894 C 0.61629 0.42306 0.38001 0.0
C1895 C 0.62111 0.32682 0.42521 0.0
C1896 C 0.59192 0.35955 0.26349 0.0
C1897 C 0.61461 0.35733 0.23271 0.0
C1898 C 0.59296 0.36503 0.31881 0.0
C1899 C 0.61728 0.36857 0.34417 0.0
C1900 C 0.64024 0.36644 0.31328 0.0
C1901 C 0.63864 0.36081 0.25812 0.0
C1902 C 0.568 0.36697 0.35018 0.0
C1903 C 0.66656 0.37029 0.33845 0.0
H1904 H 0.61979 0.42705 0.48765 0.0
H1905 H 0.62331 0.346 0.52593 0.0
H1906 H 0.63292 0.42235 0.35182 0.0
H1907 H 0.59838 0.42095 0.3558 0.0
H1908 H 0.61601 0.44236 0.39977 0.0
H1909 H 0.62255 0.31359 0.46024 0.0
H1910 H 0.60327 0.32202 0.40248 0.0
H1911 H 0.63781 0.32313 0.3982 0.0
H1912 H 0.57328 0.35658 0.24446 0.0
H1913 H 0.65627 0.35946 0.23464 0.0
H1914 H 0.56627 0.3865 0.36845 0.0
H1915 H 0.56807 0.3527 0.38346 0.0
H1916 H 0.55069 0.36342 0.32477 0.0
H1917 H 0.66788 0.39002 0.35592 0.0
H1918 H 0.68258 0.36777 0.30911 0.0
H1919 H 0.66933 0.35628 0.37171 0.0
C1920 C 0.83292 0.59251 0.03409 0.0
C1921 C 0.8474 0.6061 0.99549 0.0
C1922 C 0.83764 0.59563 0.08935 0.0
C1923 C 0.85726 0.61287 0.10683 0.0
C1924 C 0.87169 0.62693 0.0682 0.0
C1925 C 0.86667 0.62332 1.01321 0.0
C1926 C 0.82181 0.58022 0.12906 0.0
C1927 C 0.89276 0.64553 0.08495 0.0
C1928 C 0.85703 0.63712 0.25178 0.0
C1929 C 0.87567 0.62106 0.2758 0.0
C1930 C 0.85066 0.63455 0.19708 0.0
C1931 C 0.86332 0.61555 0.16536 0.0
C1932 C 0.88206 0.59922 0.18948 0.0
C1933 C 0.88795 0.60214 0.24423 0.0
C1934 C 0.83044 0.65224 0.17316 0.0
C1935 C 0.8961 0.57878 0.15728 0.0
H1936 H 0.81772 0.57946 1.02113 0.0
H1937 H 0.87829 0.63365 0.98399 0.0
H1938 H 0.83471 0.56739 0.15273 0.0
H1939 H 0.81207 0.59347 0.15777 0.0
H1940 H 0.80685 0.5681 0.10917 0.0
H1941 H 0.90155 0.65574 0.05019 0.0
H1942 H 0.88484 0.66019 0.11311 0.0
H1943 H 0.90826 0.63487 0.10649 0.0
H1944 H 0.84721 0.65157 0.27596 0.0
H1945 H 0.90261 0.58985 0.26219 0.0
H1946 H 0.8145 0.64059 0.1556 0.0
H1947 H 0.8391 0.66376 0.14014 0.0
H1948 H 0.82211 0.66576 0.20329 0.0
H1949 H 0.88194 0.56526 0.13894 0.0
H1950 H 0.90989 0.5674 0.18208 0.0
H1951 H 0.90701 0.58801 0.12403 0.0
C1952 C 0.62227 0.1696 0.80565 0.0
C1953 C 0.62673 0.14356 0.79184 0.0
C1954 C 0.61911 0.17721 0.85959 0.0
C1955 C 0.62041 0.15837 0.90092 0.0
C1956 C 0.62536 0.13217 0.88726 0.0
C1957 C 0.62852 0.12514 0.83314 0.0
C1958 C 0.61391 0.20535 0.87222 0.0
C1959 C 0.62698 0.11142 0.92984 0.0
C1960 C 0.63277 0.1769 0.04707 0.0
C1961 C 0.60785 0.17511 0.06956 0.0
C1962 C 0.63703 0.17233 0.99203 0.0
C1963 C 0.61593 0.16569 0.95839 0.0
C1964 C 0.59066 0.16448 0.98053 0.0
C1965 C 0.58694 0.16924 0.0356 0.0
C1966 C 0.66427 0.1739 0.97017 0.0
C1967 C 0.56758 0.15753 0.94627 0.0
H1968 H 0.62059 0.18398 0.77417 0.0
H1969 H 0.63244 0.10508 0.82317 0.0
H1970 H 0.59433 0.20739 0.89015 0.0
H1971 H 0.62806 0.21253 0.90222 0.0
H1972 H 0.615 0.21783 0.83598 0.0
H1973 H 0.63143 0.09204 0.91277 0.0
H1974 H 0.64219 0.11643 0.9595 0.0
H1975 H 0.60833 0.11024 0.95186 0.0
H1976 H 0.64914 0.18116 0.07279 0.0
H1977 H 0.56754 0.16828 0.05213 0.0
H1978 H 0.66488 0.18695 0.93484 0.0
H1979 H 0.67062 0.15445 0.95648 0.0
H1980 H 0.67829 0.18106 1.00054 0.0
H1981 H 0.56637 0.17072 0.91123 0.0
H1982 H 0.54905 0.15861 0.96889 0.0
H1983 H 0.56989 0.13755 0.93048 0.0
C1984 C 0.11711 0.39195 0.22446 0.0
C1985 C 0.13504 0.40002 0.26341 0.0
C1986 C 0.1228 0.39353 0.16936 0.0
C1987 C 0.14709 0.40335 0.15241 0.0
C1988 C 0.16532 0.41148 0.19143 0.0
C1989 C 0.15908 0.40975 0.24631 0.0
C1990 C 0.10285 0.38447 0.12924 0.0
C1991 C 0.19145 0.42207 0.17525 0.0
C1992 C 0.17114 0.38492 1.01276 0.0
C1993 C 0.16498 0.40705 0.98254 0.0
C1994 C 0.16555 0.38353 0.06792 0.0
C1995 C 0.15348 0.40477 0.09387 0.0
C1996 C 0.14717 0.42717 0.06366 0.0
C1997 C 0.15293 0.42802 1.00845 0.0
C1998 C 0.17245 0.3592 0.09841 0.0
C1999 C 0.13439 0.45029 0.08972 0.0
H2000 H 0.09865 0.38399 0.23706 0.0
H2001 H 0.17296 0.41636 0.27586 0.0
H2002 H 0.0979 0.40047 0.10137 0.0
H2003 H 0.11093 0.36843 0.10471 0.0
H2004 H 0.08477 0.37761 0.14883 0.0
H2005 H 0.20354 0.42736 0.21044 0.0
H2006 H 0.20208 0.4075 0.15098 0.0
H2007 H 0.18887 0.4395 0.14977 0.0
H2008 H 0.1801 0.36846 0.99308 0.0
H2009 H 0.14835 0.44531 0.9857 0.0
H2010 H 0.1547 0.35053 0.11598 0.0
H2011 H 0.18562 0.36398 0.13214 0.0
H2012 H 0.18201 0.34449 0.07254 0.0
H2013 H 0.11557 0.44447 0.10757 0.0
H2014 H 0.1309 0.46631 0.06085 0.0
H2015 H 0.14671 0.45766 0.12283 0.0
C2016 C 0.38572 0.85517 0.05604 0.0
C2017 C 0.40984 0.8552 0.08205 0.0
C2018 C 0.38365 0.86052 1.00087 0.0
C2019 C 0.40627 0.86589 0.97059 0.0
C2020 C 0.43069 0.86591 0.99657 0.0
C2021 C 0.43217 0.86069 0.05193 0.0
C2022 C 0.3572 0.8606 0.97504 0.0
C2023 C 0.4553 0.87132 0.9658 0.0
C2024 C 0.40301 0.85785 0.81839 0.0
C2025 C 0.39991 0.88356 0.80094 0.0
C2026 C 0.40529 0.85183 0.87328 0.0
C2027 C 0.40428 0.87194 0.91199 0.0
C2028 C 0.40114 0.8979 0.89471 0.0
C2029 C 0.39911 0.90338 0.8396 0.0
C2030 C 0.40868 0.8239 0.88984 0.0
C2031 C 0.39991 0.91994 0.9345 0.0
H2032 H 0.36833 0.85127 0.07908 0.0
H2033 H 0.45092 0.86047 0.0715 0.0
H2034 H 0.35321 0.87994 0.95742 0.0
H2035 H 0.35662 0.84632 0.9418 0.0
H2036 H 0.34153 0.85589 1.00401 0.0
H2037 H 0.47279 0.87032 0.99168 0.0
H2038 H 0.45747 0.85712 0.93266 0.0
H2039 H 0.45434 0.89086 0.94739 0.0
H2040 H 0.40334 0.84232 0.78914 0.0
H2041 H 0.39721 0.92335 0.82677 0.0
H2042 H 0.39227 0.81786 0.91574 0.0
H2043 H 0.42666 0.82171 0.91379 0.0
H2044 H 0.40971 0.8106 0.85484 0.0
H2045 H 0.38369 0.91678 0.96301 0.0
H2046 H 0.39716 0.93902 0.91468 0.0
H2047 H 0.41802 0.92061 0.95838 0.0
C2048 C 0.8443 0.88849 0.29849 0.0
C2049 C 0.84581 0.91346 0.32081 0.0
C2050 C 0.84891 0.88421 0.24349 0.0
C2051 C 0.85528 0.90535 0.20969 0.0
C2052 C 0.8562 0.93066 0.23166 0.0
C2053 C 0.85144 0.9344 0.28672 0.0
C2054 C 0.84769 0.85691 0.22183 0.0
C2055 C 0.86284 0.95378 0.19721 0.0
C2056 C 0.89575 0.89299 0.08424 0.0
C2057 C 0.87722 0.89438 0.04311 0.0
C2058 C 0.88879 0.89622 0.13837 0.0
C2059 C 0.86257 0.90088 0.15221 0.0
C2060 C 0.84363 0.90184 0.11105 0.0
C2061 C 0.85117 0.89859 0.05709 0.0
C2062 C 0.90964 0.89497 0.18079 0.0
C2063 C 0.81546 0.90674 0.12388 0.0
H2064 H 0.84024 0.87211 0.32435 0.0
H2065 H 0.85219 0.95383 0.30314 0.0
H2066 H 0.83459 0.85607 0.18661 0.0
H2067 H 0.8672 0.85082 0.20801 0.0
H2068 H 0.84078 0.84284 0.25235 0.0
H2069 H 0.86155 0.97233 0.21972 0.0
H2070 H 0.88284 0.9517 0.18137 0.0
H2071 H 0.84962 0.95478 0.16221 0.0
H2072 H 0.91584 0.8893 0.07411 0.0
H2073 H 0.83671 0.89997 1.02572 0.0
H2074 H 0.90489 0.87975 0.21062 0.0
H2075 H 0.91061 0.91368 0.20265 0.0
H2076 H 0.92905 0.89075 0.16358 0.0
H2077 H 0.8084 0.89222 0.15324 0.0
H2078 H 0.80299 0.90593 0.0876 0.0
H2079 H 0.81326 0.9261 0.1427 0.0
C2080 C 0.88249 0.16128 1.00028 0.0
C2081 C 0.90014 0.14472 1.02596 0.0
C2082 C 0.88515 0.16749 0.94551 0.0
C2083 C 0.90584 0.15672 0.91537 0.0
C2084 C 0.92376 0.14007 0.94118 0.0
C2085 C 0.92075 0.13436 0.99603 0.0
C2086 C 0.86576 0.18551 0.91983 0.0
C2087 C 0.94601 0.12802 0.91068 0.0
C2088 C 0.90003 0.1515 0.76302 0.0
C2089 C 0.91528 0.17237 0.74531 0.0
C2090 C 0.89652 0.14643 0.81804 0.0
C2091 C 0.90861 0.16252 0.85671 0.0
C2092 C 0.92387 0.18372 0.83921 0.0
C2093 C 0.92699 0.18839 0.78392 0.0
C2094 C 0.88012 0.1236 0.83478 0.0
C2095 C 0.93709 0.20139 0.87896 0.0
H2096 H 0.86669 0.16961 1.02322 0.0
H2097 H 0.93431 0.12131 1.01532 0.0
H2098 H 0.87589 0.20243 0.9021 0.0
H2099 H 0.85561 0.17539 0.88667 0.0
H2100 H 0.85107 0.19266 0.9489 0.0
H2101 H 0.95844 0.11573 0.93666 0.0
H2102 H 0.93843 0.11592 0.87741 0.0
H2103 H 0.95818 0.14339 0.89246 0.0
H2104 H 0.89119 0.13872 0.73379 0.0
H2105 H 0.93851 0.20478 0.77091 0.0
H2106 H 0.86427 0.13016 0.86166 0.0
H2107 H 0.89208 0.1096 0.85773 0.0
H2108 H 0.87145 0.11339 0.79991 0.0
H2109 H 0.92257 0.20995 0.90662 0.0
H2110 H 0.94786 0.21734 0.85902 0.0
H2111 H 0.95089 0.19008 0.90379 0.0
C2112 C 0.11725 0.12357 0.09342 0.0
C2113 C 0.13511 0.11542 0.05433 0.0
C2114 C 0.12296 0.1219 0.14848 0.0
C2115 C 0.1472 0.11189 0.16526 0.0
C2116 C 0.16535 0.10363 0.12609 0.0
C2117 C 0.1591 0.10547 0.07124 0.0
C2118 C 0.1031 0.13108 0.18875 0.0
C2119 C 0.19141 0.09284 0.1421 0.0
C2120 C 0.1714 0.13036 0.30468 0.0
C2121 C 0.16516 0.10831 0.33508 0.0
C2122 C 0.16582 0.1317 0.24953 0.0
C2123 C 0.15365 0.11048 0.22375 0.0
C2124 C 0.14726 0.08816 0.25414 0.0
C2125 C 0.15304 0.08736 0.30933 0.0
C2126 C 0.17283 0.15594 0.21887 0.0
C2127 C 0.13436 0.06508 0.22829 0.0
H2128 H 0.09884 0.13168 0.08097 0.0
H2129 H 0.17293 0.09881 0.04155 0.0
H2130 H 0.09813 0.11513 0.21675 0.0
H2131 H 0.11126 0.14711 0.21313 0.0
H2132 H 0.08501 0.13799 0.1693 0.0
H2133 H 0.20337 0.08728 0.10684 0.0
H2134 H 0.20223 0.1074 0.16596 0.0
H2135 H 0.18874 0.07554 0.16793 0.0
H2136 H 0.18041 0.14681 0.32422 0.0
H2137 H 0.1484 0.07011 0.3322 0.0
H2138 H 0.15511 0.16473 0.20143 0.0
H2139 H 0.18592 0.15104 0.18503 0.0
H2140 H 0.18251 0.17061 0.24457 0.0
H2141 H 0.11554 0.07098 0.21058 0.0
H2142 H 0.13084 0.04911 0.25725 0.0
H2143 H 0.1466 0.05762 0.19509 0.0
C2144 C 0.10815 0.83589 0.77486 0.0
C2145 C 0.11058 0.85586 0.73691 0.0
C2146 C 0.10974 0.84096 0.83019 0.0
C2147 C 0.11389 0.86664 0.8483 0.0
C2148 C 0.11622 0.88692 0.81029 0.0
C2149 C 0.11455 0.8813 0.75516 0.0
C2150 C 0.10725 0.81875 0.86929 0.0
C2151 C 0.12055 0.91459 0.82784 0.0
C2152 C 0.0962 0.88334 0.99285 0.0
C2153 C 0.12048 0.883 1.01813 0.0
C2154 C 0.09377 0.87814 0.93767 0.0
C2155 C 0.11612 0.87222 0.90698 0.0
C2156 C 0.14065 0.87156 0.93243 0.0
C2157 C 0.14254 0.87705 0.98755 0.0
C2158 C 0.06728 0.87922 0.9121 0.0
C2159 C 0.16494 0.86504 0.9014 0.0
H2160 H 0.10548 0.81612 0.76127 0.0
H2161 H 0.11612 0.89692 0.7263 0.0
H2162 H 0.12522 0.81705 0.89344 0.0
H2163 H 0.09109 0.8225 0.89763 0.0
H2164 H 0.10368 0.79996 0.84883 0.0
H2165 H 0.12169 0.92817 0.79335 0.0
H2166 H 0.10456 0.92089 0.85463 0.0
H2167 H 0.13879 0.916 0.85115 0.0
H2168 H 0.0791 0.88819 1.01606 0.0
H2169 H 0.16133 0.87644 1.00692 0.0
H2170 H 0.06262 0.86027 0.89343 0.0
H2171 H 0.06713 0.89393 0.87966 0.0
H2172 H 0.05182 0.8841 0.94145 0.0
H2173 H 0.16302 0.84561 0.88278 0.0
H2174 H 0.1825 0.86515 0.92714 0.0
H2175 H 0.16772 0.87919 0.86841 0.0
loop_
_geom_bond_atom_site_label_1
_geom_bond_atom_site_label_2
_geom_bond_distance
_geom_bond_site_symmetry_2
_ccdc_geom_bond_type
La0 C2 2.928 . S
La0 O20 2.521 . S
La0 O21 2.628 . S
La0 O22 2.554 . S
La0 O23 2.757 . S
La0 O24 2.470 . S
La0 O29 2.482 . S
La0 O31 2.503 . S
La1 C11 2.928 1_554 S
La1 O23 2.482 . S
La1 O25 2.503 . S
La1 O26 2.521 1_554 S
La1 O27 2.628 1_554 S
La1 O28 2.554 . S
La1 O29 2.757 . S
La1 O30 2.470 . S
C2 La0 2.928 . S
C2 C3 1.503 . S
C2 O20 1.261 . S
C2 O21 1.243 . S
C3 C2 1.503 . S
C3 C4 1.394 . S
C3 C8 1.373 . S
C4 C3 1.394 . S
C4 C5 1.380 . S
C4 H32 0.930 . S
C5 C4 1.380 . S
C5 C6 1.376 . S
C5 H33 0.930 . S
C6 C5 1.376 . S
C6 C7 1.370 . S
C7 C6 1.370 . S
C7 C8 1.396 . S
C7 H34 0.929 . S
C8 C3 1.373 . S
C8 C7 1.396 . S
C8 H35 0.929 . S
C9 O22 1.240 . S
C9 O23 1.289 . S
C10 O24 1.258 . S
C10 O25 1.256 . S
C11 La1 2.928 1_556 S
C11 C12 1.503 . S
C11 O26 1.261 . S
C11 O27 1.243 . S
C12 C11 1.503 . S
C12 C13 1.394 . S
C12 C17 1.373 . S
C13 C12 1.394 . S
C13 C14 1.380 . S
C13 H36 0.930 . S
C14 C13 1.380 . S
C14 C15 1.376 . S
C14 H37 0.930 . S
C15 C14 1.376 . S
C15 C16 1.370 . S
C16 C15 1.370 . S
C16 C17 1.396 . S
C16 H38 0.929 . S
C17 C12 1.373 . S
C17 C16 1.396 . S
C17 H39 0.929 . S
C18 O28 1.240 . S
C18 O29 1.289 . S
C19 O30 1.258 . S
C19 O31 1.256 . S
O20 La0 2.521 . S
O20 C2 1.261 . S
O21 La0 2.628 . S
O21 C2 1.243 . S
O22 La0 2.554 . S
O22 C9 1.240 . S
O23 La0 2.757 . S
O23 La1 2.482 . S
O23 C9 1.289 . S
O24 La0 2.470 . S
O24 C10 1.258 . S
O25 La1 2.503 . S
O25 C10 1.256 . S
O26 La1 2.521 1_556 S
O26 C11 1.261 . S
O27 La1 2.628 1_556 S
O27 C11 1.243 . S
O28 La1 2.554 . S
O28 C18 1.240 . S
O29 La0 2.482 . S
O29 La1 2.757 . S
O29 C18 1.289 . S
O30 La1 2.470 . S
O30 C19 1.258 . S
O31 La0 2.503 . S
O31 C19 1.256 . S
H32 C4 0.930 . S
H33 C5 0.930 . S
H34 C7 0.929 . S
H35 C8 0.929 . S
H36 C13 0.930 . S
H37 C14 0.930 . S
H38 C16 0.929 . S
H39 C17 0.929 . S
La40 C42 2.928 1_556 S
La40 O60 2.521 1_556 S
La40 O61 2.628 1_556 S
La40 O62 2.554 . S
La40 O63 2.757 . S
La40 O64 2.470 . S
La40 O69 2.482 . S
La40 O71 2.503 . S
La41 C51 2.928 . S
La41 O63 2.482 . S
La41 O65 2.503 . S
La41 O66 2.521 . S
La41 O67 2.628 . S
La41 O68 2.554 . S
La41 O69 2.757 . S
La41 O70 2.470 . S
C42 La40 2.928 1_554 S
C42 C43 1.503 . S
C42 O60 1.261 . S
C42 O61 1.243 . S
C43 C42 1.503 . S
C43 C44 1.394 . S
C43 C48 1.373 . S
C44 C43 1.394 . S
C44 C45 1.380 . S
C44 H72 0.930 . S
C45 C44 1.380 . S
C45 C46 1.376 . S
C45 H73 0.930 . S
C46 C45 1.376 . S
C46 C47 1.370 . S
C47 C46 1.370 . S
C47 C48 1.396 . S
C47 H74 0.929 . S
C48 C43 1.373 . S
C48 C47 1.396 . S
C48 H75 0.929 . S
C49 O62 1.240 . S
C49 O63 1.289 . S
C50 O64 1.258 . S
C50 O65 1.256 . S
C51 La41 2.928 . S
C51 C52 1.503 . S
C51 O66 1.261 . S
C51 O67 1.243 . S
C52 C51 1.503 . S
C52 C53 1.394 . S
C52 C57 1.373 . S
C53 C52 1.394 . S
C53 C54 1.380 . S
C53 H76 0.930 . S
C54 C53 1.380 . S
C54 C55 1.376 . S
C54 H77 0.930 . S
C55 C54 1.376 . S
C55 C56 1.370 . S
C56 C55 1.370 . S
C56 C57 1.396 . S
C56 H78 0.929 . S
C57 C52 1.373 . S
C57 C56 1.396 . S
C57 H79 0.929 . S
C58 O68 1.240 . S
C58 O69 1.289 . S
C59 O70 1.258 . S
C59 O71 1.256 . S
O60 La40 2.521 1_554 S
O60 C42 1.261 . S
O61 La40 2.628 1_554 S
O61 C42 1.243 . S
O62 La40 2.554 . S
O62 C49 1.240 . S
O63 La40 2.757 . S
O63 La41 2.482 . S
O63 C49 1.289 . S
O64 La40 2.470 . S
O64 C50 1.258 . S
O65 La41 2.503 . S
O65 C50 1.256 . S
O66 La41 2.521 . S
O66 C51 1.261 . S
O67 La41 2.628 . S
O67 C51 1.243 . S
O68 La41 2.554 . S
O68 C58 1.240 . S
O69 La40 2.482 . S
O69 La41 2.757 . S
O69 C58 1.289 . S
O70 La41 2.470 . S
O70 C59 1.258 . S
O71 La40 2.503 . S
O71 C59 1.256 . S
H72 C44 0.930 . S
H73 C45 0.930 . S
H74 C47 0.929 . S
H75 C48 0.929 . S
H76 C53 0.930 . S
H77 C54 0.930 . S
H78 C56 0.929 . S
H79 C57 0.929 . S
La80 C82 2.928 . S
La80 O100 2.521 . S
La80 O101 2.628 . S
La80 O102 2.554 . S
La80 O103 2.757 . S
La80 O104 2.470 . S
La80 O109 2.482 . S
La80 O111 2.503 . S
La81 C91 2.928 1_554 S
La81 O103 2.482 . S
La81 O105 2.503 . S
La81 O106 2.521 1_554 S
La81 O107 2.628 1_554 S
La81 O108 2.554 . S
La81 O109 2.757 . S
La81 O110 2.470 . S
C82 La80 2.928 . S
C82 C83 1.503 . S
C82 O100 1.261 . S
C82 O101 1.243 . S
C83 C82 1.503 . S
C83 C84 1.394 . S
C83 C88 1.373 . S
C84 C83 1.394 . S
C84 C85 1.380 . S
C84 H112 0.930 . S
C85 C84 1.380 . S
C85 C86 1.376 . S
C85 H113 0.930 . S
C86 C85 1.376 . S
C86 C87 1.370 . S
C87 C86 1.370 . S
C87 C88 1.396 . S
C87 H114 0.929 . S
C88 C83 1.373 . S
C88 C87 1.396 . S
C88 H115 0.929 . S
C89 O102 1.240 . S
C89 O103 1.289 . S
C90 O104 1.258 . S
C90 O105 1.256 . S
C91 La81 2.928 1_556 S
C91 C92 1.503 . S
C91 O106 1.261 . S
C91 O107 1.243 . S
C92 C91 1.503 . S
C92 C93 1.394 . S
C92 C97 1.373 . S
C93 C92 1.394 . S
C93 C94 1.380 . S
C93 H116 0.930 . S
C94 C93 1.380 . S
C94 C95 1.376 . S
C94 H117 0.930 . S
C95 C94 1.376 . S
C95 C96 1.370 . S
C96 C95 1.370 . S
C96 C97 1.396 . S
C96 H118 0.929 . S
C97 C92 1.373 . S
C97 C96 1.396 . S
C97 H119 0.929 . S
C98 O108 1.240 . S
C98 O109 1.289 . S
C99 O110 1.258 . S
C99 O111 1.256 . S
O100 La80 2.521 . S
O100 C82 1.261 . S
O101 La80 2.628 . S
O101 C82 1.243 . S
O102 La80 2.554 . S
O102 C89 1.240 . S
O103 La80 2.757 . S
O103 La81 2.482 . S
O103 C89 1.289 . S
O104 La80 2.470 . S
O104 C90 1.258 . S
O105 La81 2.503 . S
O105 C90 1.256 . S
O106 La81 2.521 1_556 S
O106 C91 1.261 . S
O107 La81 2.628 1_556 S
O107 C91 1.243 . S
O108 La81 2.554 . S
O108 C98 1.240 . S
O109 La80 2.482 . S
O109 La81 2.757 . S
O109 C98 1.289 . S
O110 La81 2.470 . S
O110 C99 1.258 . S
O111 La80 2.503 . S
O111 C99 1.256 . S
H112 C84 0.930 . S
H113 C85 0.930 . S
H114 C87 0.929 . S
H115 C88 0.929 . S
H116 C93 0.930 . S
H117 C94 0.930 . S
H118 C96 0.929 . S
H119 C97 0.929 . S
La120 C122 2.928 1_556 S
La120 O140 2.521 1_556 S
La120 O141 2.628 1_556 S
La120 O142 2.554 . S
La120 O143 2.757 . S
La120 O144 2.470 . S
La120 O149 2.482 . S
La120 O151 2.503 . S
La121 C131 2.928 . S
La121 O143 2.482 . S
La121 O145 2.503 . S
La121 O146 2.521 . S
La121 O147 2.628 . S
La121 O148 2.554 . S
La121 O149 2.757 . S
La121 O150 2.470 . S
C122 La120 2.928 1_554 S
C122 C123 1.503 . S
C122 O140 1.261 . S
C122 O141 1.243 . S
C123 C122 1.503 . S
C123 C124 1.394 . S
C123 C128 1.373 . S
C124 C123 1.394 . S
C124 C125 1.380 . S
C124 H152 0.930 . S
C125 C124 1.380 . S
C125 C126 1.376 . S
C125 H153 0.930 . S
C126 C125 1.376 . S
C126 C127 1.370 . S
C127 C126 1.370 . S
C127 C128 1.396 . S
C127 H154 0.929 . S
C128 C123 1.373 . S
C128 C127 1.396 . S
C128 H155 0.929 . S
C129 O142 1.240 . S
C129 O143 1.289 . S
C130 O144 1.258 . S
C130 O145 1.256 . S
C131 La121 2.928 . S
C131 C132 1.503 . S
C131 O146 1.261 . S
C131 O147 1.243 . S
C132 C131 1.503 . S
C132 C133 1.394 . S
C132 C137 1.373 . S
C133 C132 1.394 . S
C133 C134 1.380 . S
C133 H156 0.930 . S
C134 C133 1.380 . S
C134 C135 1.376 . S
C134 H157 0.930 . S
C135 C134 1.376 . S
C135 C136 1.370 . S
C136 C135 1.370 . S
C136 C137 1.396 . S
C136 H158 0.929 . S
C137 C132 1.373 . S
C137 C136 1.396 . S
C137 H159 0.929 . S
C138 O148 1.240 . S
C138 O149 1.289 . S
C139 O150 1.258 . S
C139 O151 1.256 . S
O140 La120 2.521 1_554 S
O140 C122 1.261 . S
O141 La120 2.628 1_554 S
O141 C122 1.243 . S
O142 La120 2.554 . S
O142 C129 1.240 . S
O143 La120 2.757 . S
O143 La121 2.482 . S
O143 C129 1.289 . S
O144 La120 2.470 . S
O144 C130 1.258 . S
O145 La121 2.503 . S
O145 C130 1.256 . S
O146 La121 2.521 . S
O146 C131 1.261 . S
O147 La121 2.628 . S
O147 C131 1.243 . S
O148 La121 2.554 . S
O148 C138 1.240 . S
O149 La120 2.482 . S
O149 La121 2.757 . S
O149 C138 1.289 . S
O150 La121 2.470 . S
O150 C139 1.258 . S
O151 La120 2.503 . S
O151 C139 1.256 . S
H152 C124 0.930 . S
H153 C125 0.930 . S
H154 C127 0.929 . S
H155 C128 0.929 . S
H156 C133 0.930 . S
H157 C134 0.930 . S
H158 C136 0.929 . S
H159 C137 0.929 . S
La160 C162 2.928 1_554 S
La160 O180 2.521 1_554 S
La160 O181 2.628 1_554 S
La160 O182 2.554 . S
La160 O183 2.757 . S
La160 O184 2.470 . S
La160 O189 2.482 . S
La160 O191 2.503 . S
La161 C171 2.928 . S
La161 O183 2.482 . S
La161 O185 2.503 . S
La161 O186 2.521 . S
La161 O187 2.628 . S
La161 O188 2.554 . S
La161 O189 2.757 . S
La161 O190 2.470 . S
C162 La160 2.928 1_556 S
C162 C163 1.503 . S
C162 O180 1.261 . S
C162 O181 1.243 . S
C163 C162 1.503 . S
C163 C164 1.394 . S
C163 C168 1.373 . S
C164 C163 1.394 . S
C164 C165 1.380 . S
C164 H192 0.930 . S
C165 C164 1.380 . S
C165 C166 1.376 . S
C165 H193 0.930 . S
C166 C165 1.376 . S
C166 C167 1.370 . S
C167 C166 1.370 . S
C167 C168 1.396 . S
C167 H194 0.929 . S
C168 C163 1.373 . S
C168 C167 1.396 . S
C168 H195 0.929 . S
C169 O182 1.240 . S
C169 O183 1.289 . S
C170 O184 1.258 . S
C170 O185 1.256 . S
C171 La161 2.928 . S
C171 C172 1.503 . S
C171 O186 1.261 . S
C171 O187 1.243 . S
C172 C171 1.503 . S
C172 C173 1.394 . S
C172 C177 1.373 . S
C173 C172 1.394 . S
C173 C174 1.380 . S
C173 H196 0.930 . S
C174 C173 1.380 . S
C174 C175 1.376 . S
C174 H197 0.930 . S
C175 C174 1.376 . S
C175 C176 1.370 . S
C176 C175 1.370 . S
C176 C177 1.396 . S
C176 H198 0.929 . S
C177 C172 1.373 . S
C177 C176 1.396 . S
C177 H199 0.929 . S
C178 O188 1.240 . S
C178 O189 1.289 . S
C179 O190 1.258 . S
C179 O191 1.256 . S
O180 La160 2.521 1_556 S
O180 C162 1.261 . S
O181 La160 2.628 1_556 S
O181 C162 1.243 . S
O182 La160 2.554 . S
O182 C169 1.240 . S
O183 La160 2.757 . S
O183 La161 2.482 . S
O183 C169 1.289 . S
O184 La160 2.470 . S
O184 C170 1.258 . S
O185 La161 2.503 . S
O185 C170 1.256 . S
O186 La161 2.521 . S
O186 C171 1.261 . S
O187 La161 2.628 . S
O187 C171 1.243 . S
O188 La161 2.554 . S
O188 C178 1.240 . S
O189 La160 2.482 . S
O189 La161 2.757 . S
O189 C178 1.289 . S
O190 La161 2.470 . S
O190 C179 1.258 . S
O191 La160 2.503 . S
O191 C179 1.256 . S
H192 C164 0.930 . S
H193 C165 0.930 . S
H194 C167 0.929 . S
H195 C168 0.929 . S
H196 C173 0.930 . S
H197 C174 0.930 . S
H198 C176 0.929 . S
H199 C177 0.929 . S
La200 C202 2.928 . S
La200 O220 2.521 . S
La200 O221 2.628 . S
La200 O222 2.554 . S
La200 O223 2.757 . S
La200 O224 2.470 . S
La200 O229 2.482 . S
La200 O231 2.503 . S
La201 C211 2.928 1_556 S
La201 O223 2.482 . S
La201 O225 2.503 . S
La201 O226 2.521 1_556 S
La201 O227 2.628 1_556 S
La201 O228 2.554 . S
La201 O229 2.757 . S
La201 O230 2.470 . S
C202 La200 2.928 . S
C202 C203 1.503 . S
C202 O220 1.261 . S
C202 O221 1.243 . S
C203 C202 1.503 . S
C203 C204 1.394 . S
C203 C208 1.373 . S
C204 C203 1.394 . S
C204 C205 1.380 . S
C204 H232 0.930 . S
C205 C204 1.380 . S
C205 C206 1.376 . S
C205 H233 0.930 . S
C206 C205 1.376 . S
C206 C207 1.370 . S
C207 C206 1.370 . S
C207 C208 1.396 . S
C207 H234 0.929 . S
C208 C203 1.373 . S
C208 C207 1.396 . S
C208 H235 0.929 . S
C209 O222 1.240 . S
C209 O223 1.289 . S
C210 O224 1.258 . S
C210 O225 1.256 . S
C211 La201 2.928 1_554 S
C211 C212 1.503 . S
C211 O226 1.261 . S
C211 O227 1.243 . S
C212 C211 1.503 . S
C212 C213 1.394 . S
C212 C217 1.373 . S
C213 C212 1.394 . S
C213 C214 1.380 . S
C213 H236 0.930 . S
C214 C213 1.380 . S
C214 C215 1.376 . S
C214 H237 0.930 . S
C215 C214 1.376 . S
C215 C216 1.370 . S
C216 C215 1.370 . S
C216 C217 1.396 . S
C216 H238 0.929 . S
C217 C212 1.373 . S
C217 C216 1.396 . S
C217 H239 0.929 . S
C218 O228 1.240 . S
C218 O229 1.289 . S
C219 O230 1.258 . S
C219 O231 1.256 . S
O220 La200 2.521 . S
O220 C202 1.261 . S
O221 La200 2.628 . S
O221 C202 1.243 . S
O222 La200 2.554 . S
O222 C209 1.240 . S
O223 La200 2.757 . S
O223 La201 2.482 . S
O223 C209 1.289 . S
O224 La200 2.470 . S
O224 C210 1.258 . S
O225 La201 2.503 . S
O225 C210 1.256 . S
O226 La201 2.521 1_554 S
O226 C211 1.261 . S
O227 La201 2.628 1_554 S
O227 C211 1.243 . S
O228 La201 2.554 . S
O228 C218 1.240 . S
O229 La200 2.482 . S
O229 La201 2.757 . S
O229 C218 1.289 . S
O230 La201 2.470 . S
O230 C219 1.258 . S
O231 La200 2.503 . S
O231 C219 1.256 . S
H232 C204 0.930 . S
H233 C205 0.930 . S
H234 C207 0.929 . S
H235 C208 0.929 . S
H236 C213 0.930 . S
H237 C214 0.930 . S
H238 C216 0.929 . S
H239 C217 0.929 . S
La240 C242 2.928 1_554 S
La240 O260 2.521 1_554 S
La240 O261 2.628 1_554 S
La240 O262 2.554 . S
La240 O263 2.757 . S
La240 O264 2.470 . S
La240 O269 2.482 . S
La240 O271 2.503 . S
La241 C251 2.928 . S
La241 O263 2.482 . S
La241 O265 2.503 . S
La241 O266 2.521 . S
La241 O267 2.628 . S
La241 O268 2.554 . S
La241 O269 2.757 . S
La241 O270 2.470 . S
C242 La240 2.928 1_556 S
C242 C243 1.503 . S
C242 O260 1.261 . S
C242 O261 1.243 . S
C243 C242 1.503 . S
C243 C244 1.394 . S
C243 C248 1.373 . S
C244 C243 1.394 . S
C244 C245 1.380 . S
C244 H272 0.930 . S
C245 C244 1.380 . S
C245 C246 1.376 . S
C245 H273 0.930 . S
C246 C245 1.376 . S
C246 C247 1.370 . S
C247 C246 1.370 . S
C247 C248 1.396 . S
C247 H274 0.929 . S
C248 C243 1.373 . S
C248 C247 1.396 . S
C248 H275 0.929 . S
C249 O262 1.240 . S
C249 O263 1.289 . S
C250 O264 1.258 . S
C250 O265 1.256 . S
C251 La241 2.928 . S
C251 C252 1.503 . S
C251 O266 1.261 . S
C251 O267 1.243 . S
C252 C251 1.503 . S
C252 C253 1.394 . S
C252 C257 1.373 . S
C253 C252 1.394 . S
C253 C254 1.380 . S
C253 H276 0.930 . S
C254 C253 1.380 . S
C254 C255 1.376 . S
C254 H277 0.930 . S
C255 C254 1.376 . S
C255 C256 1.370 . S
C256 C255 1.370 . S
C256 C257 1.396 . S
C256 H278 0.929 . S
C257 C252 1.373 . S
C257 C256 1.396 . S
C257 H279 0.929 . S
C258 O268 1.240 . S
C258 O269 1.289 . S
C259 O270 1.258 . S
C259 O271 1.256 . S
O260 La240 2.521 1_556 S
O260 C242 1.261 . S
O261 La240 2.628 1_556 S
O261 C242 1.243 . S
O262 La240 2.554 . S
O262 C249 1.240 . S
O263 La240 2.757 . S
O263 La241 2.482 . S
O263 C249 1.289 . S
O264 La240 2.470 . S
O264 C250 1.258 . S
O265 La241 2.503 . S
O265 C250 1.256 . S
O266 La241 2.521 . S
O266 C251 1.261 . S
O267 La241 2.628 . S
O267 C251 1.243 . S
O268 La241 2.554 . S
O268 C258 1.240 . S
O269 La240 2.482 . S
O269 La241 2.757 . S
O269 C258 1.289 . S
O270 La241 2.470 . S
O270 C259 1.258 . S
O271 La240 2.503 . S
O271 C259 1.256 . S
H272 C244 0.930 . S
H273 C245 0.930 . S
H274 C247 0.929 . S
H275 C248 0.929 . S
H276 C253 0.930 . S
H277 C254 0.930 . S
H278 C256 0.929 . S
H279 C257 0.929 . S
La280 C282 2.928 . S
La280 O300 2.521 . S
La280 O301 2.628 . S
La280 O302 2.554 . S
La280 O303 2.757 . S
La280 O304 2.470 . S
La280 O309 2.482 . S
La280 O311 2.503 . S
La281 C291 2.928 1_556 S
La281 O303 2.482 . S
La281 O305 2.503 . S
La281 O306 2.521 1_556 S
La281 O307 2.628 1_556 S
La281 O308 2.554 . S
La281 O309 2.757 . S
La281 O310 2.470 . S
C282 La280 2.928 . S
C282 C283 1.503 . S
C282 O300 1.261 . S
C282 O301 1.243 . S
C283 C282 1.503 . S
C283 C284 1.394 . S
C283 C288 1.373 . S
C284 C283 1.394 . S
C284 C285 1.380 . S
C284 H312 0.930 . S
C285 C284 1.380 . S
C285 C286 1.376 . S
C285 H313 0.930 . S
C286 C285 1.376 . S
C286 C287 1.370 . S
C287 C286 1.370 . S
C287 C288 1.396 . S
C287 H314 0.929 . S
C288 C283 1.373 . S
C288 C287 1.396 . S
C288 H315 0.929 . S
C289 O302 1.240 . S
C289 O303 1.289 . S
C290 O304 1.258 . S
C290 O305 1.256 . S
C291 La281 2.928 1_554 S
C291 C292 1.503 . S
C291 O306 1.261 . S
C291 O307 1.243 . S
C292 C291 1.503 . S
C292 C293 1.394 . S
C292 C297 1.373 . S
C293 C292 1.394 . S
C293 C294 1.380 . S
C293 H316 0.930 . S
C294 C293 1.380 . S
C294 C295 1.376 . S
C294 H317 0.930 . S
C295 C294 1.376 . S
C295 C296 1.370 . S
C296 C295 1.370 . S
C296 C297 1.396 . S
C296 H318 0.929 . S
C297 C292 1.373 . S
C297 C296 1.396 . S
C297 H319 0.929 . S
C298 O308 1.240 . S
C298 O309 1.289 . S
C299 O310 1.258 . S
C299 O311 1.256 . S
O300 La280 2.521 . S
O300 C282 1.261 . S
O301 La280 2.628 . S
O301 C282 1.243 . S
O302 La280 2.554 . S
O302 C289 1.240 . S
O303 La280 2.757 . S
O303 La281 2.482 . S
O303 C289 1.289 . S
O304 La280 2.470 . S
O304 C290 1.258 . S
O305 La281 2.503 . S
O305 C290 1.256 . S
O306 La281 2.521 1_554 S
O306 C291 1.261 . S
O307 La281 2.628 1_554 S
O307 C291 1.243 . S
O308 La281 2.554 . S
O308 C298 1.240 . S
O309 La280 2.482 . S
O309 La281 2.757 . S
O309 C298 1.289 . S
O310 La281 2.470 . S
O310 C299 1.258 . S
O311 La280 2.503 . S
O311 C299 1.256 . S
H312 C284 0.930 . S
H313 C285 0.930 . S
H314 C287 0.929 . S
H315 C288 0.929 . S
H316 C293 0.930 . S
H317 C294 0.930 . S
H318 C296 0.929 . S
H319 C297 0.929 . S
La320 C322 2.928 . S
La320 O340 2.521 . S
La320 O341 2.628 . S
La320 O342 2.554 . S
La320 O343 2.757 . S
La320 O344 2.470 . S
La320 O349 2.482 . S
La320 O351 2.503 . S
La321 C331 2.928 . S
La321 O343 2.482 . S
La321 O345 2.503 . S
La321 O346 2.521 . S
La321 O347 2.628 . S
La321 O348 2.554 . S
La321 O349 2.757 . S
La321 O350 2.470 . S
C322 La320 2.928 . S
C322 C323 1.503 . S
C322 O340 1.261 . S
C322 O341 1.243 . S
C323 C322 1.503 . S
C323 C324 1.394 . S
C323 C328 1.373 . S
C324 C323 1.394 . S
C324 C325 1.380 . S
C324 H352 0.930 . S
C325 C324 1.380 . S
C325 C326 1.376 . S
C325 H353 0.930 . S
C326 C325 1.376 . S
C326 C327 1.370 . S
C327 C326 1.370 . S
C327 C328 1.396 . S
C327 H354 0.929 . S
C328 C323 1.373 . S
C328 C327 1.396 . S
C328 H355 0.929 . S
C329 O342 1.240 . S
C329 O343 1.289 . S
C330 O344 1.258 . S
C330 O345 1.256 . S
C331 La321 2.928 . S
C331 C332 1.503 . S
C331 O346 1.261 . S
C331 O347 1.243 . S
C332 C331 1.503 . S
C332 C333 1.394 . S
C332 C337 1.373 . S
C333 C332 1.394 . S
C333 C334 1.380 . S
C333 H356 0.930 . S
C334 C333 1.380 . S
C334 C335 1.376 . S
C334 H357 0.930 . S
C335 C334 1.376 . S
C335 C336 1.370 . S
C336 C335 1.370 . S
C336 C337 1.396 . S
C336 H358 0.929 . S
C337 C332 1.373 . S
C337 C336 1.396 . S
C337 H359 0.929 . S
C338 O348 1.240 . S
C338 O349 1.289 . S
C339 O350 1.258 . S
C339 O351 1.256 . S
O340 La320 2.521 . S
O340 C322 1.261 . S
O341 La320 2.628 . S
O341 C322 1.243 . S
O342 La320 2.554 . S
O342 C329 1.240 . S
O343 La320 2.757 . S
O343 La321 2.482 . S
O343 C329 1.289 . S
O344 La320 2.470 . S
O344 C330 1.258 . S
O345 La321 2.503 . S
O345 C330 1.256 . S
O346 La321 2.521 . S
O346 C331 1.261 . S
O347 La321 2.628 . S
O347 C331 1.243 . S
O348 La321 2.554 . S
O348 C338 1.240 . S
O349 La320 2.482 . S
O349 La321 2.757 . S
O349 C338 1.289 . S
O350 La321 2.470 . S
O350 C339 1.258 . S
O351 La320 2.503 . S
O351 C339 1.256 . S
H352 C324 0.930 . S
H353 C325 0.930 . S
H354 C327 0.929 . S
H355 C328 0.929 . S
H356 C333 0.930 . S
H357 C334 0.930 . S
H358 C336 0.929 . S
H359 C337 0.929 . S
La360 C362 2.928 . S
La360 O380 2.521 . S
La360 O381 2.628 . S
La360 O382 2.554 . S
La360 O383 2.757 . S
La360 O384 2.470 . S
La360 O389 2.482 . S
La360 O391 2.503 . S
La361 C371 2.928 . S
La361 O383 2.482 . S
La361 O385 2.503 . S
La361 O386 2.521 . S
La361 O387 2.628 . S
La361 O388 2.554 . S
La361 O389 2.757 . S
La361 O390 2.470 . S
C362 La360 2.928 . S
C362 C363 1.503 . S
C362 O380 1.261 . S
C362 O381 1.243 . S
C363 C362 1.503 . S
C363 C364 1.394 . S
C363 C368 1.373 . S
C364 C363 1.394 . S
C364 C365 1.380 . S
C364 H392 0.930 . S
C365 C364 1.380 . S
C365 C366 1.376 . S
C365 H393 0.930 . S
C366 C365 1.376 . S
C366 C367 1.370 . S
C367 C366 1.370 . S
C367 C368 1.396 . S
C367 H394 0.929 . S
C368 C363 1.373 . S
C368 C367 1.396 . S
C368 H395 0.929 . S
C369 O382 1.240 . S
C369 O383 1.289 . S
C370 O384 1.258 . S
C370 O385 1.256 . S
C371 La361 2.928 . S
C371 C372 1.503 . S
C371 O386 1.261 . S
C371 O387 1.243 . S
C372 C371 1.503 . S
C372 C373 1.394 . S
C372 C377 1.373 . S
C373 C372 1.394 . S
C373 C374 1.380 . S
C373 H396 0.930 . S
C374 C373 1.380 . S
C374 C375 1.376 . S
C374 H397 0.930 . S
C375 C374 1.376 . S
C375 C376 1.370 . S
C376 C375 1.370 . S
C376 C377 1.396 . S
C376 H398 0.929 . S
C377 C372 1.373 . S
C377 C376 1.396 . S
C377 H399 0.929 . S
C378 O388 1.240 . S
C378 O389 1.289 . S
C379 O390 1.258 . S
C379 O391 1.256 . S
O380 La360 2.521 . S
O380 C362 1.261 . S
O381 La360 2.628 . S
O381 C362 1.243 . S
O382 La360 2.554 . S
O382 C369 1.240 . S
O383 La360 2.757 . S
O383 La361 2.482 . S
O383 C369 1.289 . S
O384 La360 2.470 . S
O384 C370 1.258 . S
O385 La361 2.503 . S
O385 C370 1.256 . S
O386 La361 2.521 . S
O386 C371 1.261 . S
O387 La361 2.628 . S
O387 C371 1.243 . S
O388 La361 2.554 . S
O388 C378 1.240 . S
O389 La360 2.482 . S
O389 La361 2.757 . S
O389 C378 1.289 . S
O390 La361 2.470 . S
O390 C379 1.258 . S
O391 La360 2.503 . S
O391 C379 1.256 . S
H392 C364 0.930 . S
H393 C365 0.930 . S
H394 C367 0.929 . S
H395 C368 0.929 . S
H396 C373 0.930 . S
H397 C374 0.930 . S
H398 C376 0.929 . S
H399 C377 0.929 . S
La400 C402 2.928 . S
La400 O420 2.521 . S
La400 O421 2.628 . S
La400 O422 2.554 . S
La400 O423 2.757 . S
La400 O424 2.470 . S
La400 O429 2.482 . S
La400 O431 2.503 . S
La401 C411 2.928 . S
La401 O423 2.482 . S
La401 O425 2.503 . S
La401 O426 2.521 . S
La401 O427 2.628 . S
La401 O428 2.554 . S
La401 O429 2.757 . S
La401 O430 2.470 . S
C402 La400 2.928 . S
C402 C403 1.503 . S
C402 O420 1.261 . S
C402 O421 1.243 . S
C403 C402 1.503 . S
C403 C404 1.394 . S
C403 C408 1.373 . S
C404 C403 1.394 . S
C404 C405 1.380 . S
C404 H432 0.930 . S
C405 C404 1.380 . S
C405 C406 1.376 . S
C405 H433 0.930 . S
C406 C405 1.376 . S
C406 C407 1.370 . S
C407 C406 1.370 . S
C407 C408 1.396 . S
C407 H434 0.929 . S
C408 C403 1.373 . S
C408 C407 1.396 . S
C408 H435 0.929 . S
C409 O422 1.240 . S
C409 O423 1.289 . S
C410 O424 1.258 . S
C410 O425 1.256 . S
C411 La401 2.928 . S
C411 C412 1.503 . S
C411 O426 1.261 . S
C411 O427 1.243 . S
C412 C411 1.503 . S
C412 C413 1.394 . S
C412 C417 1.373 . S
C413 C412 1.394 . S
C413 C414 1.380 . S
C413 H436 0.930 . S
C414 C413 1.380 . S
C414 C415 1.376 . S
C414 H437 0.930 . S
C415 C414 1.376 . S
C415 C416 1.370 . S
C416 C415 1.370 . S
C416 C417 1.396 . S
C416 H438 0.929 . S
C417 C412 1.373 . S
C417 C416 1.396 . S
C417 H439 0.929 . S
C418 O428 1.240 . S
C418 O429 1.289 . S
C419 O430 1.258 . S
C419 O431 1.256 . S
O420 La400 2.521 . S
O420 C402 1.261 . S
O421 La400 2.628 . S
O421 C402 1.243 . S
O422 La400 2.554 . S
O422 C409 1.240 . S
O423 La400 2.757 . S
O423 La401 2.482 . S
O423 C409 1.289 . S
O424 La400 2.470 . S
O424 C410 1.258 . S
O425 La401 2.503 . S
O425 C410 1.256 . S
O426 La401 2.521 . S
O426 C411 1.261 . S
O427 La401 2.628 . S
O427 C411 1.243 . S
O428 La401 2.554 . S
O428 C418 1.240 . S
O429 La400 2.482 . S
O429 La401 2.757 . S
O429 C418 1.289 . S
O430 La401 2.470 . S
O430 C419 1.258 . S
O431 La400 2.503 . S
O431 C419 1.256 . S
H432 C404 0.930 . S
H433 C405 0.930 . S
H434 C407 0.929 . S
H435 C408 0.929 . S
H436 C413 0.930 . S
H437 C414 0.930 . S
H438 C416 0.929 . S
H439 C417 0.929 . S
La440 C442 2.928 . S
La440 O460 2.521 . S
La440 O461 2.628 . S
La440 O462 2.554 . S
La440 O463 2.757 . S
La440 O464 2.470 . S
La440 O469 2.482 . S
La440 O471 2.503 . S
La441 C451 2.928 . S
La441 O463 2.482 . S
La441 O465 2.503 . S
La441 O466 2.521 . S
La441 O467 2.628 . S
La441 O468 2.554 . S
La441 O469 2.757 . S
La441 O470 2.470 . S
C442 La440 2.928 . S
C442 C443 1.503 . S
C442 O460 1.261 . S
C442 O461 1.243 . S
C443 C442 1.503 . S
C443 C444 1.394 . S
C443 C448 1.373 . S
C444 C443 1.394 . S
C444 C445 1.380 . S
C444 H472 0.930 . S
C445 C444 1.380 . S
C445 C446 1.376 . S
C445 H473 0.930 . S
C446 C445 1.376 . S
C446 C447 1.370 . S
C447 C446 1.370 . S
C447 C448 1.396 . S
C447 H474 0.929 . S
C448 C443 1.373 . S
C448 C447 1.396 . S
C448 H475 0.929 . S
C449 O462 1.240 . S
C449 O463 1.289 . S
C450 O464 1.258 . S
C450 O465 1.256 . S
C451 La441 2.928 . S
C451 C452 1.503 . S
C451 O466 1.261 . S
C451 O467 1.243 . S
C452 C451 1.503 . S
C452 C453 1.394 . S
C452 C457 1.373 . S
C453 C452 1.394 . S
C453 C454 1.380 . S
C453 H476 0.930 . S
C454 C453 1.380 . S
C454 C455 1.376 . S
C454 H477 0.930 . S
C455 C454 1.376 . S
C455 C456 1.370 . S
C456 C455 1.370 . S
C456 C457 1.396 . S
C456 H478 0.929 . S
C457 C452 1.373 . S
C457 C456 1.396 . S
C457 H479 0.929 . S
C458 O468 1.240 . S
C458 O469 1.289 . S
C459 O470 1.258 . S
C459 O471 1.256 . S
O460 La440 2.521 . S
O460 C442 1.261 . S
O461 La440 2.628 . S
O461 C442 1.243 . S
O462 La440 2.554 . S
O462 C449 1.240 . S
O463 La440 2.757 . S
O463 La441 2.482 . S
O463 C449 1.289 . S
O464 La440 2.470 . S
O464 C450 1.258 . S
O465 La441 2.503 . S
O465 C450 1.256 . S
O466 La441 2.521 . S
O466 C451 1.261 . S
O467 La441 2.628 . S
O467 C451 1.243 . S
O468 La441 2.554 . S
O468 C458 1.240 . S
O469 La440 2.482 . S
O469 La441 2.757 . S
O469 C458 1.289 . S
O470 La441 2.470 . S
O470 C459 1.258 . S
O471 La440 2.503 . S
O471 C459 1.256 . S
H472 C444 0.930 . S
H473 C445 0.930 . S
H474 C447 0.929 . S
H475 C448 0.929 . S
H476 C453 0.930 . S
H477 C454 0.930 . S
H478 C456 0.929 . S
H479 C457 0.929 . S
La480 C482 2.928 . S
La480 O500 2.521 . S
La480 O501 2.628 . S
La480 O502 2.554 . S
La480 O503 2.757 . S
La480 O504 2.470 . S
La480 O509 2.482 . S
La480 O511 2.503 . S
La481 C491 2.928 . S
La481 O503 2.482 . S
La481 O505 2.503 . S
La481 O506 2.521 . S
La481 O507 2.628 . S
La481 O508 2.554 . S
La481 O509 2.757 . S
La481 O510 2.470 . S
C482 La480 2.928 . S
C482 C483 1.503 . S
C482 O500 1.261 . S
C482 O501 1.243 . S
C483 C482 1.503 . S
C483 C484 1.394 . S
C483 C488 1.373 . S
C484 C483 1.394 . S
C484 C485 1.380 . S
C484 H512 0.930 . S
C485 C484 1.380 . S
C485 C486 1.376 . S
C485 H513 0.930 . S
C486 C485 1.376 . S
C486 C487 1.370 . S
C487 C486 1.370 . S
C487 C488 1.396 . S
C487 H514 0.929 . S
C488 C483 1.373 . S
C488 C487 1.396 . S
C488 H515 0.929 . S
C489 O502 1.240 . S
C489 O503 1.289 . S
C490 O504 1.258 . S
C490 O505 1.256 . S
C491 La481 2.928 . S
C491 C492 1.503 . S
C491 O506 1.261 . S
C491 O507 1.243 . S
C492 C491 1.503 . S
C492 C493 1.394 . S
C492 C497 1.373 . S
C493 C492 1.394 . S
C493 C494 1.380 . S
C493 H516 0.930 . S
C494 C493 1.380 . S
C494 C495 1.376 . S
C494 H517 0.930 . S
C495 C494 1.376 . S
C495 C496 1.370 . S
C496 C495 1.370 . S
C496 C497 1.396 . S
C496 H518 0.929 . S
C497 C492 1.373 . S
C497 C496 1.396 . S
C497 H519 0.929 . S
C498 O508 1.240 . S
C498 O509 1.289 . S
C499 O510 1.258 . S
C499 O511 1.256 . S
O500 La480 2.521 . S
O500 C482 1.261 . S
O501 La480 2.628 . S
O501 C482 1.243 . S
O502 La480 2.554 . S
O502 C489 1.240 . S
O503 La480 2.757 . S
O503 La481 2.482 . S
O503 C489 1.289 . S
O504 La480 2.470 . S
O504 C490 1.258 . S
O505 La481 2.503 . S
O505 C490 1.256 . S
O506 La481 2.521 . S
O506 C491 1.261 . S
O507 La481 2.628 . S
O507 C491 1.243 . S
O508 La481 2.554 . S
O508 C498 1.240 . S
O509 La480 2.482 . S
O509 La481 2.757 . S
O509 C498 1.289 . S
O510 La481 2.470 . S
O510 C499 1.258 . S
O511 La480 2.503 . S
O511 C499 1.256 . S
H512 C484 0.930 . S
H513 C485 0.930 . S
H514 C487 0.929 . S
H515 C488 0.929 . S
H516 C493 0.930 . S
H517 C494 0.930 . S
H518 C496 0.929 . S
H519 C497 0.929 . S
La520 C522 2.928 . S
La520 O540 2.521 . S
La520 O541 2.628 . S
La520 O542 2.554 . S
La520 O543 2.757 . S
La520 O544 2.470 . S
La520 O549 2.482 . S
La520 O551 2.503 . S
La521 C531 2.928 . S
La521 O543 2.482 . S
La521 O545 2.503 . S
La521 O546 2.521 . S
La521 O547 2.628 . S
La521 O548 2.554 . S
La521 O549 2.757 . S
La521 O550 2.470 . S
C522 La520 2.928 . S
C522 C523 1.503 . S
C522 O540 1.261 . S
C522 O541 1.243 . S
C523 C522 1.503 . S
C523 C524 1.394 . S
C523 C528 1.373 . S
C524 C523 1.394 . S
C524 C525 1.380 . S
C524 H552 0.930 . S
C525 C524 1.380 . S
C525 C526 1.376 . S
C525 H553 0.930 . S
C526 C525 1.376 . S
C526 C527 1.370 . S
C527 C526 1.370 . S
C527 C528 1.396 . S
C527 H554 0.929 . S
C528 C523 1.373 . S
C528 C527 1.396 . S
C528 H555 0.929 . S
C529 O542 1.240 . S
C529 O543 1.289 . S
C530 O544 1.258 . S
C530 O545 1.256 . S
C531 La521 2.928 . S
C531 C532 1.503 . S
C531 O546 1.261 . S
C531 O547 1.243 . S
C532 C531 1.503 . S
C532 C533 1.394 . S
C532 C537 1.373 . S
C533 C532 1.394 . S
C533 C534 1.380 . S
C533 H556 0.930 . S
C534 C533 1.380 . S
C534 C535 1.376 . S
C534 H557 0.930 . S
C535 C534 1.376 . S
C535 C536 1.370 . S
C536 C535 1.370 . S
C536 C537 1.396 . S
C536 H558 0.929 . S
C537 C532 1.373 . S
C537 C536 1.396 . S
C537 H559 0.929 . S
C538 O548 1.240 . S
C538 O549 1.289 . S
C539 O550 1.258 . S
C539 O551 1.256 . S
O540 La520 2.521 . S
O540 C522 1.261 . S
O541 La520 2.628 . S
O541 C522 1.243 . S
O542 La520 2.554 . S
O542 C529 1.240 . S
O543 La520 2.757 . S
O543 La521 2.482 . S
O543 C529 1.289 . S
O544 La520 2.470 . S
O544 C530 1.258 . S
O545 La521 2.503 . S
O545 C530 1.256 . S
O546 La521 2.521 . S
O546 C531 1.261 . S
O547 La521 2.628 . S
O547 C531 1.243 . S
O548 La521 2.554 . S
O548 C538 1.240 . S
O549 La520 2.482 . S
O549 La521 2.757 . S
O549 C538 1.289 . S
O550 La521 2.470 . S
O550 C539 1.258 . S
O551 La520 2.503 . S
O551 C539 1.256 . S
H552 C524 0.930 . S
H553 C525 0.930 . S
H554 C527 0.929 . S
H555 C528 0.929 . S
H556 C533 0.930 . S
H557 C534 0.930 . S
H558 C536 0.929 . S
H559 C537 0.929 . S
La560 C562 2.928 . S
La560 O580 2.521 . S
La560 O581 2.628 . S
La560 O582 2.554 . S
La560 O583 2.757 . S
La560 O584 2.470 . S
La560 O589 2.482 . S
La560 O591 2.503 . S
La561 C571 2.928 . S
La561 O583 2.482 . S
La561 O585 2.503 . S
La561 O586 2.521 . S
La561 O587 2.628 . S
La561 O588 2.554 . S
La561 O589 2.757 . S
La561 O590 2.470 . S
C562 La560 2.928 . S
C562 C563 1.503 . S
C562 O580 1.261 . S
C562 O581 1.243 . S
C563 C562 1.503 . S
C563 C564 1.394 . S
C563 C568 1.373 . S
C564 C563 1.394 . S
C564 C565 1.380 . S
C564 H592 0.930 . S
C565 C564 1.380 . S
C565 C566 1.376 . S
C565 H593 0.930 . S
C566 C565 1.376 . S
C566 C567 1.370 . S
C567 C566 1.370 . S
C567 C568 1.396 . S
C567 H594 0.929 . S
C568 C563 1.373 . S
C568 C567 1.396 . S
C568 H595 0.929 . S
C569 O582 1.240 . S
C569 O583 1.289 . S
C570 O584 1.258 . S
C570 O585 1.256 . S
C571 La561 2.928 . S
C571 C572 1.503 . S
C571 O586 1.261 . S
C571 O587 1.243 . S
C572 C571 1.503 . S
C572 C573 1.394 . S
C572 C577 1.373 . S
C573 C572 1.394 . S
C573 C574 1.380 . S
C573 H596 0.930 . S
C574 C573 1.380 . S
C574 C575 1.376 . S
C574 H597 0.930 . S
C575 C574 1.376 . S
C575 C576 1.370 . S
C576 C575 1.370 . S
C576 C577 1.396 . S
C576 H598 0.929 . S
C577 C572 1.373 . S
C577 C576 1.396 . S
C577 H599 0.929 . S
C578 O588 1.240 . S
C578 O589 1.289 . S
C579 O590 1.258 . S
C579 O591 1.256 . S
O580 La560 2.521 . S
O580 C562 1.261 . S
O581 La560 2.628 . S
O581 C562 1.243 . S
O582 La560 2.554 . S
O582 C569 1.240 . S
O583 La560 2.757 . S
O583 La561 2.482 . S
O583 C569 1.289 . S
O584 La560 2.470 . S
O584 C570 1.258 . S
O585 La561 2.503 . S
O585 C570 1.256 . S
O586 La561 2.521 . S
O586 C571 1.261 . S
O587 La561 2.628 . S
O587 C571 1.243 . S
O588 La561 2.554 . S
O588 C578 1.240 . S
O589 La560 2.482 . S
O589 La561 2.757 . S
O589 C578 1.289 . S
O590 La561 2.470 . S
O590 C579 1.258 . S
O591 La560 2.503 . S
O591 C579 1.256 . S
H592 C564 0.930 . S
H593 C565 0.930 . S
H594 C567 0.929 . S
H595 C568 0.929 . S
H596 C573 0.930 . S
H597 C574 0.930 . S
H598 C576 0.929 . S
H599 C577 0.929 . S
La600 C602 2.928 . S
La600 O620 2.521 . S
La600 O621 2.628 . S
La600 O622 2.554 . S
La600 O623 2.757 . S
La600 O624 2.470 . S
La600 O629 2.482 . S
La600 O631 2.503 . S
La601 C611 2.928 . S
La601 O623 2.482 . S
La601 O625 2.503 . S
La601 O626 2.521 . S
La601 O627 2.628 . S
La601 O628 2.554 . S
La601 O629 2.757 . S
La601 O630 2.470 . S
C602 La600 2.928 . S
C602 C603 1.503 . S
C602 O620 1.261 . S
C602 O621 1.243 . S
C603 C602 1.503 . S
C603 C604 1.394 . S
C603 C608 1.373 . S
C604 C603 1.394 . S
C604 C605 1.380 . S
C604 H632 0.930 . S
C605 C604 1.380 . S
C605 C606 1.376 . S
C605 H633 0.930 . S
C606 C605 1.376 . S
C606 C607 1.370 . S
C607 C606 1.370 . S
C607 C608 1.396 . S
C607 H634 0.929 . S
C608 C603 1.373 . S
C608 C607 1.396 . S
C608 H635 0.929 . S
C609 O622 1.240 . S
C609 O623 1.289 . S
C610 O624 1.258 . S
C610 O625 1.256 . S
C611 La601 2.928 . S
C611 C612 1.503 . S
C611 O626 1.261 . S
C611 O627 1.243 . S
C612 C611 1.503 . S
C612 C613 1.394 . S
C612 C617 1.373 . S
C613 C612 1.394 . S
C613 C614 1.380 . S
C613 H636 0.930 . S
C614 C613 1.380 . S
C614 C615 1.376 . S
C614 H637 0.930 . S
C615 C614 1.376 . S
C615 C616 1.370 . S
C616 C615 1.370 . S
C616 C617 1.396 . S
C616 H638 0.929 . S
C617 C612 1.373 . S
C617 C616 1.396 . S
C617 H639 0.929 . S
C618 O628 1.240 . S
C618 O629 1.289 . S
C619 O630 1.258 . S
C619 O631 1.256 . S
O620 La600 2.521 . S
O620 C602 1.261 . S
O621 La600 2.628 . S
O621 C602 1.243 . S
O622 La600 2.554 . S
O622 C609 1.240 . S
O623 La600 2.757 . S
O623 La601 2.482 . S
O623 C609 1.289 . S
O624 La600 2.470 . S
O624 C610 1.258 . S
O625 La601 2.503 . S
O625 C610 1.256 . S
O626 La601 2.521 . S
O626 C611 1.261 . S
O627 La601 2.628 . S
O627 C611 1.243 . S
O628 La601 2.554 . S
O628 C618 1.240 . S
O629 La600 2.482 . S
O629 La601 2.757 . S
O629 C618 1.289 . S
O630 La601 2.470 . S
O630 C619 1.258 . S
O631 La600 2.503 . S
O631 C619 1.256 . S
H632 C604 0.930 . S
H633 C605 0.930 . S
H634 C607 0.929 . S
H635 C608 0.929 . S
H636 C613 0.930 . S
H637 C614 0.930 . S
H638 C616 0.929 . S
H639 C617 0.929 . S
C640 C641 1.391 . S
C640 C642 1.394 . S
C640 H656 0.931 . S
C641 C640 1.391 . S
C641 C645 1.376 . S
C642 C640 1.394 . S
C642 C643 1.369 . S
C642 C646 1.531 . S
C643 C642 1.369 . S
C643 C644 1.410 . S
C643 C651 1.503 . S
C644 C643 1.410 . S
C644 C645 1.392 . S
C644 C647 1.511 . S
C645 C641 1.376 . S
C645 C644 1.392 . S
C645 H657 0.929 . S
C646 C642 1.531 . S
C646 H658 0.960 . S
C646 H659 0.962 . S
C646 H660 0.960 . S
C647 C644 1.511 . S
C647 H661 0.961 . S
C647 H662 0.961 . S
C647 H663 0.961 . S
C648 C649 1.370 . S
C648 C650 1.363 1_545 S
C648 H664 0.931 . S
C649 C648 1.370 . S
C649 C653 1.408 . S
C650 C648 1.363 1_565 S
C650 C651 1.370 . S
C650 C654 1.524 . S
C651 C643 1.503 . S
C651 C650 1.370 . S
C651 C652 1.403 1_565 S
C652 C651 1.403 1_545 S
C652 C653 1.404 . S
C652 C655 1.539 1_545 S
C653 C649 1.408 . S
C653 C652 1.404 . S
C653 H665 0.930 . S
C654 C650 1.524 . S
C654 H666 0.956 . S
C654 H667 0.961 . S
C654 H668 0.961 . S
C655 C652 1.539 1_565 S
C655 H669 0.958 . S
C655 H670 0.961 1_565 S
C655 H671 0.960 . S
H656 C640 0.931 . S
H657 C645 0.929 . S
H658 C646 0.960 . S
H659 C646 0.962 . S
H660 C646 0.960 . S
H661 C647 0.961 . S
H662 C647 0.961 . S
H663 C647 0.961 . S
H664 C648 0.931 . S
H665 C653 0.930 . S
H666 C654 0.956 . S
H667 C654 0.961 . S
H668 C654 0.961 . S
H669 C655 0.958 . S
H670 C655 0.961 1_545 S
H671 C655 0.960 . S
C672 C673 1.391 . S
C672 C674 1.394 . S
C672 H688 0.931 . S
C673 C672 1.391 . S
C673 C677 1.376 . S
C674 C672 1.394 . S
C674 C675 1.369 . S
C674 C678 1.531 . S
C675 C674 1.369 . S
C675 C676 1.410 . S
C675 C683 1.503 . S
C676 C675 1.410 . S
C676 C677 1.392 . S
C676 C679 1.511 . S
C677 C673 1.376 . S
C677 C676 1.392 . S
C677 H689 0.929 . S
C678 C674 1.531 . S
C678 H690 0.960 . S
C678 H691 0.962 . S
C678 H692 0.960 . S
C679 C676 1.511 . S
C679 H693 0.961 . S
C679 H694 0.961 . S
C679 H695 0.961 . S
C680 C681 1.370 . S
C680 C682 1.363 1_455 S
C680 H696 0.931 . S
C681 C680 1.370 . S
C681 C685 1.408 . S
C682 C680 1.363 1_655 S
C682 C683 1.370 . S
C682 C686 1.524 . S
C683 C675 1.503 . S
C683 C682 1.370 . S
C683 C684 1.403 . S
C684 C683 1.403 . S
C684 C685 1.404 1_655 S
C684 C687 1.539 . S
C685 C681 1.408 . S
C685 C684 1.404 1_455 S
C685 H697 0.930 . S
C686 C682 1.524 . S
C686 H698 0.956 . S
C686 H699 0.961 . S
C686 H700 0.961 . S
C687 C684 1.539 . S
C687 H701 0.958 . S
C687 H702 0.961 1_655 S
C687 H703 0.960 . S
H688 C672 0.931 . S
H689 C677 0.929 . S
H690 C678 0.960 . S
H691 C678 0.962 . S
H692 C678 0.960 . S
H693 C679 0.961 . S
H694 C679 0.961 . S
H695 C679 0.961 . S
H696 C680 0.931 . S
H697 C685 0.930 . S
H698 C686 0.956 . S
H699 C686 0.961 . S
H700 C686 0.961 . S
H701 C687 0.958 . S
H702 C687 0.961 1_455 S
H703 C687 0.960 . S
C704 C705 1.391 . S
C704 C706 1.394 . S
C704 H720 0.931 . S
C705 C704 1.391 . S
C705 C709 1.376 . S
C706 C704 1.394 . S
C706 C707 1.369 1_565 S
C706 C710 1.531 . S
C707 C706 1.369 1_545 S
C707 C708 1.410 . S
C707 C715 1.503 . S
C708 C707 1.410 . S
C708 C709 1.392 1_545 S
C708 C711 1.511 . S
C709 C705 1.376 . S
C709 C708 1.392 1_565 S
C709 H721 0.929 . S
C710 C706 1.531 . S
C710 H722 0.960 1_565 S
C710 H723 0.962 1_565 S
C710 H724 0.960 . S
C711 C708 1.511 . S
C711 H725 0.961 . S
C711 H726 0.961 . S
C711 H727 0.961 . S
C712 C713 1.370 . S
C712 C714 1.363 . S
C712 H728 0.931 . S
C713 C712 1.370 . S
C713 C717 1.408 . S
C714 C712 1.363 . S
C714 C715 1.370 . S
C714 C718 1.524 . S
C715 C707 1.503 . S
C715 C714 1.370 . S
C715 C716 1.403 . S
C716 C715 1.403 . S
C716 C717 1.404 . S
C716 C719 1.539 . S
C717 C713 1.408 . S
C717 C716 1.404 . S
C717 H729 0.930 . S
C718 C714 1.524 . S
C718 H730 0.956 . S
C718 H731 0.961 . S
C718 H732 0.961 . S
C719 C716 1.539 . S
C719 H733 0.958 . S
C719 H734 0.961 . S
C719 H735 0.960 . S
H720 C704 0.931 . S
H721 C709 0.929 . S
H722 C710 0.960 1_545 S
H723 C710 0.962 1_545 S
H724 C710 0.960 . S
H725 C711 0.961 . S
H726 C711 0.961 . S
H727 C711 0.961 . S
H728 C712 0.931 . S
H729 C717 0.930 . S
H730 C718 0.956 . S
H731 C718 0.961 . S
H732 C718 0.961 . S
H733 C719 0.958 . S
H734 C719 0.961 . S
H735 C719 0.960 . S
C736 C737 1.391 . S
C736 C738 1.394 1_655 S
C736 H752 0.931 . S
C737 C736 1.391 . S
C737 C741 1.376 . S
C738 C736 1.394 1_455 S
C738 C739 1.369 . S
C738 C742 1.531 . S
C739 C738 1.369 . S
C739 C740 1.410 1_455 S
C739 C747 1.503 . S
C740 C739 1.410 1_655 S
C740 C741 1.392 . S
C740 C743 1.511 . S
C741 C737 1.376 . S
C741 C740 1.392 . S
C741 H753 0.929 . S
C742 C738 1.531 . S
C742 H754 0.960 . S
C742 H755 0.962 . S
C742 H756 0.960 . S
C743 C740 1.511 . S
C743 H757 0.961 . S
C743 H758 0.961 1_655 S
C743 H759 0.961 . S
C744 C745 1.370 . S
C744 C746 1.363 . S
C744 H760 0.931 . S
C745 C744 1.370 . S
C745 C749 1.408 . S
C746 C744 1.363 . S
C746 C747 1.370 . S
C746 C750 1.524 . S
C747 C739 1.503 . S
C747 C746 1.370 . S
C747 C748 1.403 . S
C748 C747 1.403 . S
C748 C749 1.404 . S
C748 C751 1.539 . S
C749 C745 1.408 . S
C749 C748 1.404 . S
C749 H761 0.930 . S
C750 C746 1.524 . S
C750 H762 0.956 . S
C750 H763 0.961 . S
C750 H764 0.961 . S
C751 C748 1.539 . S
C751 H765 0.958 . S
C751 H766 0.961 . S
C751 H767 0.960 . S
H752 C736 0.931 . S
H753 C741 0.929 . S
H754 C742 0.960 . S
H755 C742 0.962 . S
H756 C742 0.960 . S
H757 C743 0.961 . S
H758 C743 0.961 1_455 S
H759 C743 0.961 . S
H760 C744 0.931 . S
H761 C749 0.930 . S
H762 C750 0.956 . S
H763 C750 0.961 . S
H764 C750 0.961 . S
H765 C751 0.958 . S
H766 C751 0.961 . S
H767 C751 0.960 . S
C768 C769 1.391 . S
C768 C770 1.394 . S
C768 H784 0.931 . S
C769 C768 1.391 . S
C769 C773 1.376 . S
C770 C768 1.394 . S
C770 C771 1.369 . S
C770 C774 1.531 1_554 S
C771 C770 1.369 . S
C771 C772 1.410 . S
C771 C779 1.503 . S
C772 C771 1.410 . S
C772 C773 1.392 . S
C772 C775 1.511 . S
C773 C769 1.376 . S
C773 C772 1.392 . S
C773 H785 0.929 . S
C774 C770 1.531 1_556 S
C774 H786 0.960 . S
C774 H787 0.962 . S
C774 H788 0.960 . S
C775 C772 1.511 . S
C775 H789 0.961 . S
C775 H790 0.961 . S
C775 H791 0.961 . S
C776 C777 1.370 . S
C776 C778 1.363 . S
C776 H792 0.931 . S
C777 C776 1.370 . S
C777 C781 1.408 . S
C778 C776 1.363 . S
C778 C779 1.370 1_556 S
C778 C782 1.524 . S
C779 C771 1.503 . S
C779 C778 1.370 1_554 S
C779 C780 1.403 . S
C780 C779 1.403 . S
C780 C781 1.404 1_554 S
C780 C783 1.539 . S
C781 C777 1.408 . S
C781 C780 1.404 1_556 S
C781 H793 0.930 . S
C782 C778 1.524 . S
C782 H794 0.956 . S
C782 H795 0.961 1_556 S
C782 H796 0.961 . S
C783 C780 1.539 . S
C783 H797 0.958 . S
C783 H798 0.961 . S
C783 H799 0.960 . S
H784 C768 0.931 . S
H785 C773 0.929 . S
H786 C774 0.960 . S
H787 C774 0.962 . S
H788 C774 0.960 . S
H789 C775 0.961 . S
H790 C775 0.961 . S
H791 C775 0.961 . S
H792 C776 0.931 . S
H793 C781 0.930 . S
H794 C782 0.956 . S
H795 C782 0.961 1_554 S
H796 C782 0.961 . S
H797 C783 0.958 . S
H798 C783 0.961 . S
H799 C783 0.960 . S
C800 C801 1.391 1_556 S
C800 C802 1.394 . S
C800 H816 0.931 . S
C801 C800 1.391 1_554 S
C801 C805 1.376 . S
C802 C800 1.394 . S
C802 C803 1.369 . S
C802 C806 1.531 . S
C803 C802 1.369 . S
C803 C804 1.410 1_556 S
C803 C811 1.503 . S
C804 C803 1.410 1_554 S
C804 C805 1.392 . S
C804 C807 1.511 . S
C805 C801 1.376 . S
C805 C804 1.392 . S
C805 H817 0.929 . S
C806 C802 1.531 . S
C806 H818 0.960 . S
C806 H819 0.962 . S
C806 H820 0.960 . S
C807 C804 1.511 . S
C807 H821 0.961 . S
C807 H822 0.961 . S
C807 H823 0.961 . S
C808 C809 1.370 . S
C808 C810 1.363 . S
C808 H824 0.931 . S
C809 C808 1.370 . S
C809 C813 1.408 . S
C810 C808 1.363 . S
C810 C811 1.370 . S
C810 C814 1.524 . S
C811 C803 1.503 . S
C811 C810 1.370 . S
C811 C812 1.403 . S
C812 C811 1.403 . S
C812 C813 1.404 . S
C812 C815 1.539 . S
C813 C809 1.408 . S
C813 C812 1.404 . S
C813 H825 0.930 . S
C814 C810 1.524 . S
C814 H826 0.956 . S
C814 H827 0.961 1_556 S
C814 H828 0.961 . S
C815 C812 1.539 . S
C815 H829 0.958 . S
C815 H830 0.961 . S
C815 H831 0.960 . S
H816 C800 0.931 . S
H817 C805 0.929 . S
H818 C806 0.960 . S
H819 C806 0.962 . S
H820 C806 0.960 . S
H821 C807 0.961 . S
H822 C807 0.961 . S
H823 C807 0.961 . S
H824 C808 0.931 . S
H825 C813 0.930 . S
H826 C814 0.956 . S
H827 C814 0.961 1_554 S
H828 C814 0.961 . S
H829 C815 0.958 . S
H830 C815 0.961 . S
H831 C815 0.960 . S
C832 C833 1.391 . S
C832 C834 1.394 . S
C832 H848 0.931 . S
C833 C832 1.391 . S
C833 C837 1.376 . S
C834 C832 1.394 . S
C834 C835 1.369 . S
C834 C838 1.531 1_554 S
C835 C834 1.369 . S
C835 C836 1.410 . S
C835 C843 1.503 . S
C836 C835 1.410 . S
C836 C837 1.392 . S
C836 C839 1.511 . S
C837 C833 1.376 . S
C837 C836 1.392 . S
C837 H849 0.929 . S
C838 C834 1.531 1_556 S
C838 H850 0.960 . S
C838 H851 0.962 . S
C838 H852 0.960 . S
C839 C836 1.511 . S
C839 H853 0.961 . S
C839 H854 0.961 . S
C839 H855 0.961 . S
C840 C841 1.370 1_554 S
C840 C842 1.363 . S
C840 H856 0.931 . S
C841 C840 1.370 1_556 S
C841 C845 1.408 . S
C842 C840 1.363 . S
C842 C843 1.370 . S
C842 C846 1.524 . S
C843 C835 1.503 . S
C843 C842 1.370 . S
C843 C844 1.403 1_554 S
C844 C843 1.403 1_556 S
C844 C845 1.404 . S
C844 C847 1.539 . S
C845 C841 1.408 . S
C845 C844 1.404 . S
C845 H857 0.930 . S
C846 C842 1.524 . S
C846 H858 0.956 . S
C846 H859 0.961 . S
C846 H860 0.961 . S
C847 C844 1.539 . S
C847 H861 0.958 . S
C847 H862 0.961 . S
C847 H863 0.960 . S
H848 C832 0.931 . S
H849 C837 0.929 . S
H850 C838 0.960 . S
H851 C838 0.962 . S
H852 C838 0.960 . S
H853 C839 0.961 . S
H854 C839 0.961 . S
H855 C839 0.961 . S
H856 C840 0.931 . S
H857 C845 0.930 . S
H858 C846 0.956 . S
H859 C846 0.961 . S
H860 C846 0.961 . S
H861 C847 0.958 . S
H862 C847 0.961 . S
H863 C847 0.960 . S
C864 C865 1.391 1_556 S
C864 C866 1.394 . S
C864 H880 0.931 . S
C865 C864 1.391 1_554 S
C865 C869 1.376 . S
C866 C864 1.394 . S
C866 C867 1.369 . S
C866 C870 1.531 . S
C867 C866 1.369 . S
C867 C868 1.410 1_556 S
C867 C875 1.503 . S
C868 C867 1.410 1_554 S
C868 C869 1.392 . S
C868 C871 1.511 . S
C869 C865 1.376 . S
C869 C868 1.392 . S
C869 H881 0.929 . S
C870 C866 1.531 . S
C870 H882 0.960 . S
C870 H883 0.962 . S
C870 H884 0.960 . S
C871 C868 1.511 . S
C871 H885 0.961 . S
C871 H886 0.961 . S
C871 H887 0.961 . S
C872 C873 1.370 . S
C872 C874 1.363 . S
C872 H888 0.931 . S
C873 C872 1.370 . S
C873 C877 1.408 . S
C874 C872 1.363 . S
C874 C875 1.370 . S
C874 C878 1.524 . S
C875 C867 1.503 . S
C875 C874 1.370 . S
C875 C876 1.403 . S
C876 C875 1.403 . S
C876 C877 1.404 . S
C876 C879 1.539 . S
C877 C873 1.408 . S
C877 C876 1.404 . S
C877 H889 0.930 . S
C878 C874 1.524 . S
C878 H890 0.956 . S
C878 H891 0.961 . S
C878 H892 0.961 . S
C879 C876 1.539 . S
C879 H893 0.958 . S
C879 H894 0.961 . S
C879 H895 0.960 . S
H880 C864 0.931 . S
H881 C869 0.929 . S
H882 C870 0.960 . S
H883 C870 0.962 . S
H884 C870 0.960 . S
H885 C871 0.961 . S
H886 C871 0.961 . S
H887 C871 0.961 . S
H888 C872 0.931 . S
H889 C877 0.930 . S
H890 C878 0.956 . S
H891 C878 0.961 . S
H892 C878 0.961 . S
H893 C879 0.958 . S
H894 C879 0.961 . S
H895 C879 0.960 . S
C896 C897 1.391 . S
C896 C898 1.394 . S
C896 H912 0.931 . S
C897 C896 1.391 . S
C897 C901 1.376 . S
C898 C896 1.394 . S
C898 C899 1.369 . S
C898 C902 1.531 . S
C899 C898 1.369 . S
C899 C900 1.410 . S
C899 C907 1.503 . S
C900 C899 1.410 . S
C900 C901 1.392 . S
C900 C903 1.511 . S
C901 C897 1.376 . S
C901 C900 1.392 . S
C901 H913 0.929 . S
C902 C898 1.531 . S
C902 H914 0.960 . S
C902 H915 0.962 . S
C902 H916 0.960 . S
C903 C900 1.511 . S
C903 H917 0.961 . S
C903 H918 0.961 . S
C903 H919 0.961 . S
C904 C905 1.370 . S
C904 C906 1.363 . S
C904 H920 0.931 . S
C905 C904 1.370 . S
C905 C909 1.408 . S
C906 C904 1.363 . S
C906 C907 1.370 . S
C906 C910 1.524 . S
C907 C899 1.503 . S
C907 C906 1.370 . S
C907 C908 1.403 . S
C908 C907 1.403 . S
C908 C909 1.404 . S
C908 C911 1.539 . S
C909 C905 1.408 . S
C909 C908 1.404 . S
C909 H921 0.930 . S
C910 C906 1.524 . S
C910 H922 0.956 . S
C910 H923 0.961 . S
C910 H924 0.961 . S
C911 C908 1.539 . S
C911 H925 0.958 . S
C911 H926 0.961 . S
C911 H927 0.960 . S
H912 C896 0.931 . S
H913 C901 0.929 . S
H914 C902 0.960 . S
H915 C902 0.962 . S
H916 C902 0.960 . S
H917 C903 0.961 . S
H918 C903 0.961 . S
H919 C903 0.961 . S
H920 C904 0.931 . S
H921 C909 0.930 . S
H922 C910 0.956 . S
H923 C910 0.961 . S
H924 C910 0.961 . S
H925 C911 0.958 . S
H926 C911 0.961 . S
H927 C911 0.960 . S
C928 C929 1.391 . S
C928 C930 1.394 . S
C928 H944 0.931 . S
C929 C928 1.391 . S
C929 C933 1.376 . S
C930 C928 1.394 . S
C930 C931 1.369 . S
C930 C934 1.531 . S
C931 C930 1.369 . S
C931 C932 1.410 . S
C931 C939 1.503 . S
C932 C931 1.410 . S
C932 C933 1.392 . S
C932 C935 1.511 . S
C933 C929 1.376 . S
C933 C932 1.392 . S
C933 H945 0.929 . S
C934 C930 1.531 . S
C934 H946 0.960 . S
C934 H947 0.962 . S
C934 H948 0.960 . S
C935 C932 1.511 . S
C935 H949 0.961 . S
C935 H950 0.961 . S
C935 H951 0.961 . S
C936 C937 1.370 . S
C936 C938 1.363 . S
C936 H952 0.931 . S
C937 C936 1.370 . S
C937 C941 1.408 . S
C938 C936 1.363 . S
C938 C939 1.370 . S
C938 C942 1.524 . S
C939 C931 1.503 . S
C939 C938 1.370 . S
C939 C940 1.403 . S
C940 C939 1.403 . S
C940 C941 1.404 . S
C940 C943 1.539 . S
C941 C937 1.408 . S
C941 C940 1.404 . S
C941 H953 0.930 . S
C942 C938 1.524 . S
C942 H954 0.956 . S
C942 H955 0.961 . S
C942 H956 0.961 . S
C943 C940 1.539 . S
C943 H957 0.958 . S
C943 H958 0.961 . S
C943 H959 0.960 . S
H944 C928 0.931 . S
H945 C933 0.929 . S
H946 C934 0.960 . S
H947 C934 0.962 . S
H948 C934 0.960 . S
H949 C935 0.961 . S
H950 C935 0.961 . S
H951 C935 0.961 . S
H952 C936 0.931 . S
H953 C941 0.930 . S
H954 C942 0.956 . S
H955 C942 0.961 . S
H956 C942 0.961 . S
H957 C943 0.958 . S
H958 C943 0.961 . S
H959 C943 0.960 . S
C960 C961 1.391 . S
C960 C962 1.394 . S
C960 H976 0.931 . S
C961 C960 1.391 . S
C961 C965 1.376 . S
C962 C960 1.394 . S
C962 C963 1.369 . S
C962 C966 1.531 . S
C963 C962 1.369 . S
C963 C964 1.410 . S
C963 C971 1.503 . S
C964 C963 1.410 . S
C964 C965 1.392 . S
C964 C967 1.511 . S
C965 C961 1.376 . S
C965 C964 1.392 . S
C965 H977 0.929 . S
C966 C962 1.531 . S
C966 H978 0.960 . S
C966 H979 0.962 . S
C966 H980 0.960 . S
C967 C964 1.511 . S
C967 H981 0.961 . S
C967 H982 0.961 . S
C967 H983 0.961 . S
C968 C969 1.370 . S
C968 C970 1.363 . S
C968 H984 0.931 . S
C969 C968 1.370 . S
C969 C973 1.408 . S
C970 C968 1.363 . S
C970 C971 1.370 . S
C970 C974 1.524 . S
C971 C963 1.503 . S
C971 C970 1.370 . S
C971 C972 1.403 . S
C972 C971 1.403 . S
C972 C973 1.404 . S
C972 C975 1.539 . S
C973 C969 1.408 . S
C973 C972 1.404 . S
C973 H985 0.930 . S
C974 C970 1.524 . S
C974 H986 0.956 . S
C974 H987 0.961 . S
C974 H988 0.961 . S
C975 C972 1.539 . S
C975 H989 0.958 . S
C975 H990 0.961 . S
C975 H991 0.960 . S
H976 C960 0.931 . S
H977 C965 0.929 . S
H978 C966 0.960 . S
H979 C966 0.962 . S
H980 C966 0.960 . S
H981 C967 0.961 . S
H982 C967 0.961 . S
H983 C967 0.961 . S
H984 C968 0.931 . S
H985 C973 0.930 . S
H986 C974 0.956 . S
H987 C974 0.961 . S
H988 C974 0.961 . S
H989 C975 0.958 . S
H990 C975 0.961 . S
H991 C975 0.960 . S
C992 C993 1.391 . S
C992 C994 1.394 . S
C992 H1008 0.931 . S
C993 C992 1.391 . S
C993 C997 1.376 . S
C994 C992 1.394 . S
C994 C995 1.369 . S
C994 C998 1.531 . S
C995 C994 1.369 . S
C995 C996 1.410 . S
C995 C1003 1.503 . S
C996 C995 1.410 . S
C996 C997 1.392 . S
C996 C999 1.511 . S
C997 C993 1.376 . S
C997 C996 1.392 . S
C997 H1009 0.929 . S
C998 C994 1.531 . S
C998 H1010 0.960 . S
C998 H1011 0.962 . S
C998 H1012 0.960 . S
C999 C996 1.511 . S
C999 H1013 0.961 . S
C999 H1014 0.961 . S
C999 H1015 0.961 . S
C1000 C1001 1.370 . S
C1000 C1002 1.363 . S
C1000 H1016 0.931 . S
C1001 C1000 1.370 . S
C1001 C1005 1.408 . S
C1002 C1000 1.363 . S
C1002 C1003 1.370 . S
C1002 C1006 1.524 . S
C1003 C995 1.503 . S
C1003 C1002 1.370 . S
C1003 C1004 1.403 . S
C1004 C1003 1.403 . S
C1004 C1005 1.404 . S
C1004 C1007 1.539 . S
C1005 C1001 1.408 . S
C1005 C1004 1.404 . S
C1005 H1017 0.930 . S
C1006 C1002 1.524 . S
C1006 H1018 0.956 . S
C1006 H1019 0.961 . S
C1006 H1020 0.961 . S
C1007 C1004 1.539 . S
C1007 H1021 0.958 . S
C1007 H1022 0.961 . S
C1007 H1023 0.960 . S
H1008 C992 0.931 . S
H1009 C997 0.929 . S
H1010 C998 0.960 . S
H1011 C998 0.962 . S
H1012 C998 0.960 . S
H1013 C999 0.961 . S
H1014 C999 0.961 . S
H1015 C999 0.961 . S
H1016 C1000 0.931 . S
H1017 C1005 0.930 . S
H1018 C1006 0.956 . S
H1019 C1006 0.961 . S
H1020 C1006 0.961 . S
H1021 C1007 0.958 . S
H1022 C1007 0.961 . S
H1023 C1007 0.960 . S
C1024 C1025 1.391 . S
C1024 C1026 1.394 . S
C1024 H1040 0.931 . S
C1025 C1024 1.391 . S
C1025 C1029 1.376 . S
C1026 C1024 1.394 . S
C1026 C1027 1.369 1_565 S
C1026 C1030 1.531 . S
C1027 C1026 1.369 1_545 S
C1027 C1028 1.410 . S
C1027 C1035 1.503 . S
C1028 C1027 1.410 . S
C1028 C1029 1.392 1_545 S
C1028 C1031 1.511 . S
C1029 C1025 1.376 . S
C1029 C1028 1.392 1_565 S
C1029 H1041 0.929 . S
C1030 C1026 1.531 . S
C1030 H1042 0.960 1_565 S
C1030 H1043 0.962 . S
C1030 H1044 0.960 . S
C1031 C1028 1.511 . S
C1031 H1045 0.961 . S
C1031 H1046 0.961 . S
C1031 H1047 0.961 . S
C1032 C1033 1.370 . S
C1032 C1034 1.363 . S
C1032 H1048 0.931 . S
C1033 C1032 1.370 . S
C1033 C1037 1.408 . S
C1034 C1032 1.363 . S
C1034 C1035 1.370 . S
C1034 C1038 1.524 . S
C1035 C1027 1.503 . S
C1035 C1034 1.370 . S
C1035 C1036 1.403 . S
C1036 C1035 1.403 . S
C1036 C1037 1.404 . S
C1036 C1039 1.539 . S
C1037 C1033 1.408 . S
C1037 C1036 1.404 . S
C1037 H1049 0.930 . S
C1038 C1034 1.524 . S
C1038 H1050 0.956 . S
C1038 H1051 0.961 . S
C1038 H1052 0.961 . S
C1039 C1036 1.539 . S
C1039 H1053 0.958 . S
C1039 H1054 0.961 . S
C1039 H1055 0.960 . S
H1040 C1024 0.931 . S
H1041 C1029 0.929 . S
H1042 C1030 0.960 1_545 S
H1043 C1030 0.962 . S
H1044 C1030 0.960 . S
H1045 C1031 0.961 . S
H1046 C1031 0.961 . S
H1047 C1031 0.961 . S
H1048 C1032 0.931 . S
H1049 C1037 0.930 . S
H1050 C1038 0.956 . S
H1051 C1038 0.961 . S
H1052 C1038 0.961 . S
H1053 C1039 0.958 . S
H1054 C1039 0.961 . S
H1055 C1039 0.960 . S
C1056 C1057 1.391 . S
C1056 C1058 1.394 . S
C1056 H1072 0.931 . S
C1057 C1056 1.391 . S
C1057 C1061 1.376 . S
C1058 C1056 1.394 . S
C1058 C1059 1.369 . S
C1058 C1062 1.531 . S
C1059 C1058 1.369 . S
C1059 C1060 1.410 . S
C1059 C1067 1.503 . S
C1060 C1059 1.410 . S
C1060 C1061 1.392 . S
C1060 C1063 1.511 . S
C1061 C1057 1.376 . S
C1061 C1060 1.392 . S
C1061 H1073 0.929 . S
C1062 C1058 1.531 . S
C1062 H1074 0.960 . S
C1062 H1075 0.962 . S
C1062 H1076 0.960 . S
C1063 C1060 1.511 . S
C1063 H1077 0.961 . S
C1063 H1078 0.961 . S
C1063 H1079 0.961 . S
C1064 C1065 1.370 . S
C1064 C1066 1.363 1_655 S
C1064 H1080 0.931 . S
C1065 C1064 1.370 . S
C1065 C1069 1.408 . S
C1066 C1064 1.363 1_455 S
C1066 C1067 1.370 . S
C1066 C1070 1.524 . S
C1067 C1059 1.503 . S
C1067 C1066 1.370 . S
C1067 C1068 1.403 1_455 S
C1068 C1067 1.403 1_655 S
C1068 C1069 1.404 . S
C1068 C1071 1.539 1_655 S
C1069 C1065 1.408 . S
C1069 C1068 1.404 . S
C1069 H1081 0.930 . S
C1070 C1066 1.524 . S
C1070 H1082 0.956 . S
C1070 H1083 0.961 . S
C1070 H1084 0.961 . S
C1071 C1068 1.539 1_455 S
C1071 H1085 0.958 . S
C1071 H1086 0.961 1_455 S
C1071 H1087 0.960 . S
H1072 C1056 0.931 . S
H1073 C1061 0.929 . S
H1074 C1062 0.960 . S
H1075 C1062 0.962 . S
H1076 C1062 0.960 . S
H1077 C1063 0.961 . S
H1078 C1063 0.961 . S
H1079 C1063 0.961 . S
H1080 C1064 0.931 . S
H1081 C1069 0.930 . S
H1082 C1070 0.956 . S
H1083 C1070 0.961 . S
H1084 C1070 0.961 . S
H1085 C1071 0.958 . S
H1086 C1071 0.961 1_655 S
H1087 C1071 0.960 . S
C1088 C1089 1.391 . S
C1088 C1090 1.394 . S
C1088 H1104 0.931 . S
C1089 C1088 1.391 . S
C1089 C1093 1.376 . S
C1090 C1088 1.394 . S
C1090 C1091 1.369 . S
C1090 C1094 1.531 . S
C1091 C1090 1.369 . S
C1091 C1092 1.410 . S
C1091 C1099 1.503 . S
C1092 C1091 1.410 . S
C1092 C1093 1.392 . S
C1092 C1095 1.511 . S
C1093 C1089 1.376 . S
C1093 C1092 1.392 . S
C1093 H1105 0.929 . S
C1094 C1090 1.531 . S
C1094 H1106 0.960 . S
C1094 H1107 0.962 . S
C1094 H1108 0.960 . S
C1095 C1092 1.511 . S
C1095 H1109 0.961 . S
C1095 H1110 0.961 . S
C1095 H1111 0.961 . S
C1096 C1097 1.370 . S
C1096 C1098 1.361 . S
C1096 H1112 0.931 . S
C1097 C1096 1.370 . S
C1097 C1101 1.408 . S
C1098 C1096 1.361 . S
C1098 C1099 1.372 1_545 S
C1098 C1102 1.525 1_545 S
C1099 C1091 1.503 . S
C1099 C1098 1.372 1_565 S
C1099 C1100 1.403 . S
C1100 C1099 1.403 . S
C1100 C1101 1.404 1_565 S
C1100 C1103 1.539 . S
C1101 C1097 1.408 . S
C1101 C1100 1.404 1_545 S
C1101 H1113 0.930 . S
C1102 C1098 1.525 1_565 S
C1102 H1114 0.956 . S
C1102 H1115 0.961 . S
C1102 H1116 0.961 1_565 S
C1103 C1100 1.539 . S
C1103 H1117 0.958 . S
C1103 H1118 0.961 . S
C1103 H1119 0.960 . S
H1104 C1088 0.931 . S
H1105 C1093 0.929 . S
H1106 C1094 0.960 . S
H1107 C1094 0.962 . S
H1108 C1094 0.960 . S
H1109 C1095 0.961 . S
H1110 C1095 0.961 . S
H1111 C1095 0.961 . S
H1112 C1096 0.931 . S
H1113 C1101 0.930 . S
H1114 C1102 0.956 . S
H1115 C1102 0.961 . S
H1116 C1102 0.961 1_545 S
H1117 C1103 0.958 . S
H1118 C1103 0.961 . S
H1119 C1103 0.960 . S
C1120 C1121 1.391 . S
C1120 C1122 1.394 . S
C1120 H1136 0.931 . S
C1121 C1120 1.391 . S
C1121 C1125 1.376 . S
C1122 C1120 1.394 . S
C1122 C1123 1.369 1_455 S
C1122 C1126 1.531 . S
C1123 C1122 1.369 1_655 S
C1123 C1124 1.410 . S
C1123 C1131 1.503 . S
C1124 C1123 1.410 . S
C1124 C1125 1.392 1_655 S
C1124 C1127 1.511 . S
C1125 C1121 1.376 . S
C1125 C1124 1.392 1_455 S
C1125 H1137 0.929 . S
C1126 C1122 1.531 . S
C1126 H1138 0.960 1_455 S
C1126 H1139 0.962 . S
C1126 H1140 0.960 . S
C1127 C1124 1.511 . S
C1127 H1141 0.961 . S
C1127 H1142 0.961 . S
C1127 H1143 0.961 . S
C1128 C1129 1.370 . S
C1128 C1130 1.363 . S
C1128 H1144 0.931 . S
C1129 C1128 1.370 . S
C1129 C1133 1.408 . S
C1130 C1128 1.363 . S
C1130 C1131 1.370 . S
C1130 C1134 1.524 . S
C1131 C1123 1.503 . S
C1131 C1130 1.370 . S
C1131 C1132 1.403 . S
C1132 C1131 1.403 . S
C1132 C1133 1.404 . S
C1132 C1135 1.539 . S
C1133 C1129 1.408 . S
C1133 C1132 1.404 . S
C1133 H1145 0.930 . S
C1134 C1130 1.524 . S
C1134 H1146 0.956 . S
C1134 H1147 0.961 . S
C1134 H1148 0.961 . S
C1135 C1132 1.539 . S
C1135 H1149 0.958 . S
C1135 H1150 0.961 . S
C1135 H1151 0.960 . S
H1136 C1120 0.931 . S
H1137 C1125 0.929 . S
H1138 C1126 0.960 1_655 S
H1139 C1126 0.962 . S
H1140 C1126 0.960 . S
H1141 C1127 0.961 . S
H1142 C1127 0.961 . S
H1143 C1127 0.961 . S
H1144 C1128 0.931 . S
H1145 C1133 0.930 . S
H1146 C1134 0.956 . S
H1147 C1134 0.961 . S
H1148 C1134 0.961 . S
H1149 C1135 0.958 . S
H1150 C1135 0.961 . S
H1151 C1135 0.960 . S
C1152 C1153 1.391 . S
C1152 C1154 1.394 . S
C1152 H1168 0.931 . S
C1153 C1152 1.391 . S
C1153 C1157 1.376 . S
C1154 C1152 1.394 . S
C1154 C1155 1.369 . S
C1154 C1158 1.531 . S
C1155 C1154 1.369 . S
C1155 C1156 1.410 . S
C1155 C1163 1.503 . S
C1156 C1155 1.410 . S
C1156 C1157 1.392 . S
C1156 C1159 1.511 . S
C1157 C1153 1.376 . S
C1157 C1156 1.392 . S
C1157 H1169 0.929 . S
C1158 C1154 1.531 . S
C1158 H1170 0.960 . S
C1158 H1171 0.962 . S
C1158 H1172 0.960 . S
C1159 C1156 1.511 . S
C1159 H1173 0.961 . S
C1159 H1174 0.961 . S
C1159 H1175 0.961 . S
C1160 C1161 1.370 . S
C1160 C1162 1.363 . S
C1160 H1176 0.931 . S
C1161 C1160 1.370 . S
C1161 C1165 1.408 . S
C1162 C1160 1.363 . S
C1162 C1163 1.370 . S
C1162 C1166 1.524 . S
C1163 C1155 1.503 . S
C1163 C1162 1.370 . S
C1163 C1164 1.403 . S
C1164 C1163 1.403 . S
C1164 C1165 1.404 . S
C1164 C1167 1.539 . S
C1165 C1161 1.408 . S
C1165 C1164 1.404 . S
C1165 H1177 0.930 . S
C1166 C1162 1.524 . S
C1166 H1178 0.956 . S
C1166 H1179 0.961 . S
C1166 H1180 0.961 . S
C1167 C1164 1.539 . S
C1167 H1181 0.958 . S
C1167 H1182 0.961 . S
C1167 H1183 0.960 . S
H1168 C1152 0.931 . S
H1169 C1157 0.929 . S
H1170 C1158 0.960 . S
H1171 C1158 0.962 . S
H1172 C1158 0.960 . S
H1173 C1159 0.961 . S
H1174 C1159 0.961 . S
H1175 C1159 0.961 . S
H1176 C1160 0.931 . S
H1177 C1165 0.930 . S
H1178 C1166 0.956 . S
H1179 C1166 0.961 . S
H1180 C1166 0.961 . S
H1181 C1167 0.958 . S
H1182 C1167 0.961 . S
H1183 C1167 0.960 . S
C1184 C1185 1.391 . S
C1184 C1186 1.394 . S
C1184 H1200 0.931 . S
C1185 C1184 1.391 . S
C1185 C1189 1.376 . S
C1186 C1184 1.394 . S
C1186 C1187 1.369 . S
C1186 C1190 1.531 . S
C1187 C1186 1.369 . S
C1187 C1188 1.410 . S
C1187 C1195 1.503 . S
C1188 C1187 1.410 . S
C1188 C1189 1.392 . S
C1188 C1191 1.511 . S
C1189 C1185 1.376 . S
C1189 C1188 1.392 . S
C1189 H1201 0.929 . S
C1190 C1186 1.531 . S
C1190 H1202 0.960 . S
C1190 H1203 0.962 . S
C1190 H1204 0.960 . S
C1191 C1188 1.511 . S
C1191 H1205 0.961 . S
C1191 H1206 0.961 . S
C1191 H1207 0.961 . S
C1192 C1193 1.370 . S
C1192 C1194 1.363 . S
C1192 H1208 0.931 . S
C1193 C1192 1.370 . S
C1193 C1197 1.408 . S
C1194 C1192 1.363 . S
C1194 C1195 1.370 . S
C1194 C1198 1.524 . S
C1195 C1187 1.503 . S
C1195 C1194 1.370 . S
C1195 C1196 1.403 . S
C1196 C1195 1.403 . S
C1196 C1197 1.404 . S
C1196 C1199 1.539 . S
C1197 C1193 1.408 . S
C1197 C1196 1.404 . S
C1197 H1209 0.930 . S
C1198 C1194 1.524 . S
C1198 H1210 0.956 . S
C1198 H1211 0.961 . S
C1198 H1212 0.961 . S
C1199 C1196 1.539 . S
C1199 H1213 0.958 . S
C1199 H1214 0.961 1_556 S
C1199 H1215 0.960 . S
H1200 C1184 0.931 . S
H1201 C1189 0.929 . S
H1202 C1190 0.960 . S
H1203 C1190 0.962 . S
H1204 C1190 0.960 . S
H1205 C1191 0.961 . S
H1206 C1191 0.961 . S
H1207 C1191 0.961 . S
H1208 C1192 0.931 . S
H1209 C1197 0.930 . S
H1210 C1198 0.956 . S
H1211 C1198 0.961 . S
H1212 C1198 0.961 . S
H1213 C1199 0.958 . S
H1214 C1199 0.961 1_554 S
H1215 C1199 0.960 . S
C1216 C1217 1.391 . S
C1216 C1218 1.394 . S
C1216 H1232 0.931 . S
C1217 C1216 1.391 . S
C1217 C1221 1.376 . S
C1218 C1216 1.394 . S
C1218 C1219 1.369 . S
C1218 C1222 1.531 . S
C1219 C1218 1.369 . S
C1219 C1220 1.410 . S
C1219 C1227 1.503 . S
C1220 C1219 1.410 . S
C1220 C1221 1.392 . S
C1220 C1223 1.511 . S
C1221 C1217 1.376 . S
C1221 C1220 1.392 . S
C1221 H1233 0.929 . S
C1222 C1218 1.531 . S
C1222 H1234 0.960 . S
C1222 H1235 0.962 . S
C1222 H1236 0.960 . S
C1223 C1220 1.511 . S
C1223 H1237 0.961 . S
C1223 H1238 0.961 . S
C1223 H1239 0.961 . S
C1224 C1225 1.370 . S
C1224 C1226 1.363 . S
C1224 H1240 0.931 . S
C1225 C1224 1.370 . S
C1225 C1229 1.408 . S
C1226 C1224 1.363 . S
C1226 C1227 1.370 . S
C1226 C1230 1.524 . S
C1227 C1219 1.503 . S
C1227 C1226 1.370 . S
C1227 C1228 1.403 . S
C1228 C1227 1.403 . S
C1228 C1229 1.404 . S
C1228 C1231 1.539 . S
C1229 C1225 1.408 . S
C1229 C1228 1.404 . S
C1229 H1241 0.930 . S
C1230 C1226 1.524 . S
C1230 H1242 0.956 . S
C1230 H1243 0.961 . S
C1230 H1244 0.961 . S
C1231 C1228 1.539 . S
C1231 H1245 0.958 . S
C1231 H1246 0.961 . S
C1231 H1247 0.960 . S
H1232 C1216 0.931 . S
H1233 C1221 0.929 . S
H1234 C1222 0.960 . S
H1235 C1222 0.962 . S
H1236 C1222 0.960 . S
H1237 C1223 0.961 . S
H1238 C1223 0.961 . S
H1239 C1223 0.961 . S
H1240 C1224 0.931 . S
H1241 C1229 0.930 . S
H1242 C1230 0.956 . S
H1243 C1230 0.961 . S
H1244 C1230 0.961 . S
H1245 C1231 0.958 . S
H1246 C1231 0.961 . S
H1247 C1231 0.960 . S
C1248 C1249 1.391 . S
C1248 C1250 1.394 . S
C1248 H1264 0.931 . S
C1249 C1248 1.391 . S
C1249 C1253 1.376 . S
C1250 C1248 1.394 . S
C1250 C1251 1.369 . S
C1250 C1254 1.531 . S
C1251 C1250 1.369 . S
C1251 C1252 1.410 . S
C1251 C1259 1.503 . S
C1252 C1251 1.410 . S
C1252 C1253 1.392 . S
C1252 C1255 1.511 . S
C1253 C1249 1.376 . S
C1253 C1252 1.392 . S
C1253 H1265 0.929 . S
C1254 C1250 1.531 . S
C1254 H1266 0.960 . S
C1254 H1267 0.962 . S
C1254 H1268 0.960 . S
C1255 C1252 1.511 . S
C1255 H1269 0.961 . S
C1255 H1270 0.961 . S
C1255 H1271 0.961 . S
C1256 C1257 1.370 . S
C1256 C1258 1.363 . S
C1256 H1272 0.931 . S
C1257 C1256 1.370 . S
C1257 C1261 1.408 . S
C1258 C1256 1.363 . S
C1258 C1259 1.370 . S
C1258 C1262 1.524 . S
C1259 C1251 1.503 . S
C1259 C1258 1.370 . S
C1259 C1260 1.403 . S
C1260 C1259 1.403 . S
C1260 C1261 1.404 . S
C1260 C1263 1.539 . S
C1261 C1257 1.408 . S
C1261 C1260 1.404 . S
C1261 H1273 0.930 . S
C1262 C1258 1.524 . S
C1262 H1274 0.956 . S
C1262 H1275 0.961 . S
C1262 H1276 0.961 . S
C1263 C1260 1.539 . S
C1263 H1277 0.958 . S
C1263 H1278 0.961 . S
C1263 H1279 0.960 . S
H1264 C1248 0.931 . S
H1265 C1253 0.929 . S
H1266 C1254 0.960 . S
H1267 C1254 0.962 . S
H1268 C1254 0.960 . S
H1269 C1255 0.961 . S
H1270 C1255 0.961 . S
H1271 C1255 0.961 . S
H1272 C1256 0.931 . S
H1273 C1261 0.930 . S
H1274 C1262 0.956 . S
H1275 C1262 0.961 . S
H1276 C1262 0.961 . S
H1277 C1263 0.958 . S
H1278 C1263 0.961 . S
H1279 C1263 0.960 . S
C1280 C1281 1.391 . S
C1280 C1282 1.394 . S
C1280 H1296 0.931 . S
C1281 C1280 1.391 . S
C1281 C1285 1.376 . S
C1282 C1280 1.394 . S
C1282 C1283 1.369 . S
C1282 C1286 1.531 . S
C1283 C1282 1.369 . S
C1283 C1284 1.410 . S
C1283 C1291 1.503 . S
C1284 C1283 1.410 . S
C1284 C1285 1.392 . S
C1284 C1287 1.511 . S
C1285 C1281 1.376 . S
C1285 C1284 1.392 . S
C1285 H1297 0.929 . S
C1286 C1282 1.531 . S
C1286 H1298 0.960 . S
C1286 H1299 0.962 . S
C1286 H1300 0.960 . S
C1287 C1284 1.511 . S
C1287 H1301 0.961 . S
C1287 H1302 0.961 . S
C1287 H1303 0.961 . S
C1288 C1289 1.370 . S
C1288 C1290 1.363 . S
C1288 H1304 0.931 . S
C1289 C1288 1.370 . S
C1289 C1293 1.408 . S
C1290 C1288 1.363 . S
C1290 C1291 1.370 . S
C1290 C1294 1.524 . S
C1291 C1283 1.503 . S
C1291 C1290 1.370 . S
C1291 C1292 1.403 . S
C1292 C1291 1.403 . S
C1292 C1293 1.404 . S
C1292 C1295 1.539 . S
C1293 C1289 1.408 . S
C1293 C1292 1.404 . S
C1293 H1305 0.930 . S
C1294 C1290 1.524 . S
C1294 H1306 0.956 . S
C1294 H1307 0.961 . S
C1294 H1308 0.961 . S
C1295 C1292 1.539 . S
C1295 H1309 0.958 . S
C1295 H1310 0.961 . S
C1295 H1311 0.960 . S
H1296 C1280 0.931 . S
H1297 C1285 0.929 . S
H1298 C1286 0.960 . S
H1299 C1286 0.962 . S
H1300 C1286 0.960 . S
H1301 C1287 0.961 . S
H1302 C1287 0.961 . S
H1303 C1287 0.961 . S
H1304 C1288 0.931 . S
H1305 C1293 0.930 . S
H1306 C1294 0.956 . S
H1307 C1294 0.961 . S
H1308 C1294 0.961 . S
H1309 C1295 0.958 . S
H1310 C1295 0.961 . S
H1311 C1295 0.960 . S
C1312 C1313 1.391 . S
C1312 C1314 1.394 . S
C1312 H1328 0.931 . S
C1313 C1312 1.391 . S
C1313 C1317 1.376 . S
C1314 C1312 1.394 . S
C1314 C1315 1.369 . S
C1314 C1318 1.531 . S
C1315 C1314 1.369 . S
C1315 C1316 1.410 . S
C1315 C1323 1.503 . S
C1316 C1315 1.410 . S
C1316 C1317 1.392 . S
C1316 C1319 1.511 . S
C1317 C1313 1.376 . S
C1317 C1316 1.392 . S
C1317 H1329 0.929 . S
C1318 C1314 1.531 . S
C1318 H1330 0.960 . S
C1318 H1331 0.962 . S
C1318 H1332 0.960 . S
C1319 C1316 1.511 . S
C1319 H1333 0.961 . S
C1319 H1334 0.961 . S
C1319 H1335 0.961 . S
C1320 C1321 1.370 . S
C1320 C1322 1.363 . S
C1320 H1336 0.931 . S
C1321 C1320 1.370 . S
C1321 C1325 1.408 . S
C1322 C1320 1.363 . S
C1322 C1323 1.370 . S
C1322 C1326 1.524 . S
C1323 C1315 1.503 . S
C1323 C1322 1.370 . S
C1323 C1324 1.403 . S
C1324 C1323 1.403 . S
C1324 C1325 1.404 . S
C1324 C1327 1.539 . S
C1325 C1321 1.408 . S
C1325 C1324 1.404 . S
C1325 H1337 0.930 . S
C1326 C1322 1.524 . S
C1326 H1338 0.956 . S
C1326 H1339 0.961 . S
C1326 H1340 0.961 . S
C1327 C1324 1.539 . S
C1327 H1341 0.958 . S
C1327 H1342 0.961 . S
C1327 H1343 0.960 . S
H1328 C1312 0.931 . S
H1329 C1317 0.929 . S
H1330 C1318 0.960 . S
H1331 C1318 0.962 . S
H1332 C1318 0.960 . S
H1333 C1319 0.961 . S
H1334 C1319 0.961 . S
H1335 C1319 0.961 . S
H1336 C1320 0.931 . S
H1337 C1325 0.930 . S
H1338 C1326 0.956 . S
H1339 C1326 0.961 . S
H1340 C1326 0.961 . S
H1341 C1327 0.958 . S
H1342 C1327 0.961 . S
H1343 C1327 0.960 . S
C1344 C1345 1.391 . S
C1344 C1346 1.394 . S
C1344 H1360 0.931 . S
C1345 C1344 1.391 . S
C1345 C1349 1.376 . S
C1346 C1344 1.394 . S
C1346 C1347 1.369 . S
C1346 C1350 1.531 . S
C1347 C1346 1.369 . S
C1347 C1348 1.410 . S
C1347 C1355 1.503 . S
C1348 C1347 1.410 . S
C1348 C1349 1.392 . S
C1348 C1351 1.511 . S
C1349 C1345 1.376 . S
C1349 C1348 1.392 . S
C1349 H1361 0.929 . S
C1350 C1346 1.531 . S
C1350 H1362 0.960 . S
C1350 H1363 0.962 . S
C1350 H1364 0.960 . S
C1351 C1348 1.511 . S
C1351 H1365 0.961 . S
C1351 H1366 0.961 . S
C1351 H1367 0.961 . S
C1352 C1353 1.370 . S
C1352 C1354 1.363 . S
C1352 H1368 0.931 . S
C1353 C1352 1.370 . S
C1353 C1357 1.408 . S
C1354 C1352 1.363 . S
C1354 C1355 1.370 . S
C1354 C1358 1.524 . S
C1355 C1347 1.503 . S
C1355 C1354 1.370 . S
C1355 C1356 1.403 . S
C1356 C1355 1.403 . S
C1356 C1357 1.404 . S
C1356 C1359 1.539 . S
C1357 C1353 1.408 . S
C1357 C1356 1.404 . S
C1357 H1369 0.930 . S
C1358 C1354 1.524 . S
C1358 H1370 0.956 . S
C1358 H1371 0.961 . S
C1358 H1372 0.961 . S
C1359 C1356 1.539 . S
C1359 H1373 0.958 . S
C1359 H1374 0.961 . S
C1359 H1375 0.960 . S
H1360 C1344 0.931 . S
H1361 C1349 0.929 . S
H1362 C1350 0.960 . S
H1363 C1350 0.962 . S
H1364 C1350 0.960 . S
H1365 C1351 0.961 . S
H1366 C1351 0.961 . S
H1367 C1351 0.961 . S
H1368 C1352 0.931 . S
H1369 C1357 0.930 . S
H1370 C1358 0.956 . S
H1371 C1358 0.961 . S
H1372 C1358 0.961 . S
H1373 C1359 0.958 . S
H1374 C1359 0.961 . S
H1375 C1359 0.960 . S
C1376 C1377 1.391 . S
C1376 C1378 1.394 . S
C1376 H1392 0.931 . S
C1377 C1376 1.391 . S
C1377 C1381 1.376 . S
C1378 C1376 1.394 . S
C1378 C1379 1.369 . S
C1378 C1382 1.531 . S
C1379 C1378 1.369 . S
C1379 C1380 1.410 . S
C1379 C1387 1.503 . S
C1380 C1379 1.410 . S
C1380 C1381 1.392 . S
C1380 C1383 1.511 . S
C1381 C1377 1.376 . S
C1381 C1380 1.392 . S
C1381 H1393 0.929 . S
C1382 C1378 1.531 . S
C1382 H1394 0.960 . S
C1382 H1395 0.962 . S
C1382 H1396 0.960 . S
C1383 C1380 1.511 . S
C1383 H1397 0.961 . S
C1383 H1398 0.961 . S
C1383 H1399 0.961 . S
C1384 C1385 1.370 . S
C1384 C1386 1.363 . S
C1384 H1400 0.931 . S
C1385 C1384 1.370 . S
C1385 C1389 1.408 . S
C1386 C1384 1.363 . S
C1386 C1387 1.370 . S
C1386 C1390 1.524 . S
C1387 C1379 1.503 . S
C1387 C1386 1.370 . S
C1387 C1388 1.403 . S
C1388 C1387 1.403 . S
C1388 C1389 1.404 . S
C1388 C1391 1.539 . S
C1389 C1385 1.408 . S
C1389 C1388 1.404 . S
C1389 H1401 0.930 . S
C1390 C1386 1.524 . S
C1390 H1402 0.956 . S
C1390 H1403 0.961 . S
C1390 H1404 0.961 . S
C1391 C1388 1.539 . S
C1391 H1405 0.958 . S
C1391 H1406 0.961 . S
C1391 H1407 0.960 . S
H1392 C1376 0.931 . S
H1393 C1381 0.929 . S
H1394 C1382 0.960 . S
H1395 C1382 0.962 . S
H1396 C1382 0.960 . S
H1397 C1383 0.961 . S
H1398 C1383 0.961 . S
H1399 C1383 0.961 . S
H1400 C1384 0.931 . S
H1401 C1389 0.930 . S
H1402 C1390 0.956 . S
H1403 C1390 0.961 . S
H1404 C1390 0.961 . S
H1405 C1391 0.958 . S
H1406 C1391 0.961 . S
H1407 C1391 0.960 . S
C1408 C1409 1.391 . S
C1408 C1410 1.394 . S
C1408 H1424 0.931 . S
C1409 C1408 1.391 . S
C1409 C1413 1.376 . S
C1410 C1408 1.394 . S
C1410 C1411 1.369 . S
C1410 C1414 1.531 . S
C1411 C1410 1.369 . S
C1411 C1412 1.410 . S
C1411 C1419 1.503 . S
C1412 C1411 1.410 . S
C1412 C1413 1.392 . S
C1412 C1415 1.511 . S
C1413 C1409 1.376 . S
C1413 C1412 1.392 . S
C1413 H1425 0.929 . S
C1414 C1410 1.531 . S
C1414 H1426 0.960 . S
C1414 H1427 0.962 . S
C1414 H1428 0.960 . S
C1415 C1412 1.511 . S
C1415 H1429 0.961 . S
C1415 H1430 0.961 . S
C1415 H1431 0.961 . S
C1416 C1417 1.370 . S
C1416 C1418 1.363 . S
C1416 H1432 0.931 . S
C1417 C1416 1.370 . S
C1417 C1421 1.408 . S
C1418 C1416 1.363 . S
C1418 C1419 1.370 . S
C1418 C1422 1.524 . S
C1419 C1411 1.503 . S
C1419 C1418 1.370 . S
C1419 C1420 1.403 . S
C1420 C1419 1.403 . S
C1420 C1421 1.404 . S
C1420 C1423 1.539 . S
C1421 C1417 1.408 . S
C1421 C1420 1.404 . S
C1421 H1433 0.930 . S
C1422 C1418 1.524 . S
C1422 H1434 0.956 . S
C1422 H1435 0.961 . S
C1422 H1436 0.961 . S
C1423 C1420 1.539 . S
C1423 H1437 0.958 . S
C1423 H1438 0.961 . S
C1423 H1439 0.960 . S
H1424 C1408 0.931 . S
H1425 C1413 0.929 . S
H1426 C1414 0.960 . S
H1427 C1414 0.962 . S
H1428 C1414 0.960 . S
H1429 C1415 0.961 . S
H1430 C1415 0.961 . S
H1431 C1415 0.961 . S
H1432 C1416 0.931 . S
H1433 C1421 0.930 . S
H1434 C1422 0.956 . S
H1435 C1422 0.961 . S
H1436 C1422 0.961 . S
H1437 C1423 0.958 . S
H1438 C1423 0.961 . S
H1439 C1423 0.960 . S
C1440 C1441 1.391 . S
C1440 C1442 1.394 . S
C1440 H1456 0.931 . S
C1441 C1440 1.391 . S
C1441 C1445 1.376 . S
C1442 C1440 1.394 . S
C1442 C1443 1.369 . S
C1442 C1446 1.531 . S
C1443 C1442 1.369 . S
C1443 C1444 1.410 . S
C1443 C1451 1.503 . S
C1444 C1443 1.410 . S
C1444 C1445 1.392 . S
C1444 C1447 1.511 . S
C1445 C1441 1.376 . S
C1445 C1444 1.392 . S
C1445 H1457 0.929 1_554 S
C1446 C1442 1.531 . S
C1446 H1458 0.960 . S
C1446 H1459 0.962 . S
C1446 H1460 0.960 . S
C1447 C1444 1.511 . S
C1447 H1461 0.961 . S
C1447 H1462 0.961 . S
C1447 H1463 0.961 . S
C1448 C1449 1.370 . S
C1448 C1450 1.363 . S
C1448 H1464 0.931 . S
C1449 C1448 1.370 . S
C1449 C1453 1.408 . S
C1450 C1448 1.363 . S
C1450 C1451 1.370 . S
C1450 C1454 1.524 . S
C1451 C1443 1.503 . S
C1451 C1450 1.370 . S
C1451 C1452 1.403 . S
C1452 C1451 1.403 . S
C1452 C1453 1.404 . S
C1452 C1455 1.539 . S
C1453 C1449 1.408 . S
C1453 C1452 1.404 . S
C1453 H1465 0.930 . S
C1454 C1450 1.524 . S
C1454 H1466 0.956 . S
C1454 H1467 0.961 . S
C1454 H1468 0.961 . S
C1455 C1452 1.539 . S
C1455 H1469 0.958 . S
C1455 H1470 0.961 . S
C1455 H1471 0.960 . S
H1456 C1440 0.931 . S
H1457 C1445 0.929 1_556 S
H1458 C1446 0.960 . S
H1459 C1446 0.962 . S
H1460 C1446 0.960 . S
H1461 C1447 0.961 . S
H1462 C1447 0.961 . S
H1463 C1447 0.961 . S
H1464 C1448 0.931 . S
H1465 C1453 0.930 . S
H1466 C1454 0.956 . S
H1467 C1454 0.961 . S
H1468 C1454 0.961 . S
H1469 C1455 0.958 . S
H1470 C1455 0.961 . S
H1471 C1455 0.960 . S
C1472 C1473 1.391 . S
C1472 C1474 1.394 . S
C1472 H1488 0.931 . S
C1473 C1472 1.391 . S
C1473 C1477 1.376 . S
C1474 C1472 1.394 . S
C1474 C1475 1.369 . S
C1474 C1478 1.531 . S
C1475 C1474 1.369 . S
C1475 C1476 1.410 . S
C1475 C1483 1.503 . S
C1476 C1475 1.410 . S
C1476 C1477 1.392 . S
C1476 C1479 1.511 . S
C1477 C1473 1.376 . S
C1477 C1476 1.392 . S
C1477 H1489 0.929 1_556 S
C1478 C1474 1.531 . S
C1478 H1490 0.960 . S
C1478 H1491 0.962 . S
C1478 H1492 0.960 . S
C1479 C1476 1.511 . S
C1479 H1493 0.961 . S
C1479 H1494 0.961 . S
C1479 H1495 0.961 . S
C1480 C1481 1.370 . S
C1480 C1482 1.363 . S
C1480 H1496 0.931 . S
C1481 C1480 1.370 . S
C1481 C1485 1.408 . S
C1482 C1480 1.363 . S
C1482 C1483 1.370 . S
C1482 C1486 1.524 . S
C1483 C1475 1.503 . S
C1483 C1482 1.370 . S
C1483 C1484 1.403 . S
C1484 C1483 1.403 . S
C1484 C1485 1.404 . S
C1484 C1487 1.539 . S
C1485 C1481 1.408 . S
C1485 C1484 1.404 . S
C1485 H1497 0.930 . S
C1486 C1482 1.524 . S
C1486 H1498 0.956 . S
C1486 H1499 0.961 . S
C1486 H1500 0.961 . S
C1487 C1484 1.539 . S
C1487 H1501 0.958 . S
C1487 H1502 0.961 . S
C1487 H1503 0.960 . S
H1488 C1472 0.931 . S
H1489 C1477 0.929 1_554 S
H1490 C1478 0.960 . S
H1491 C1478 0.962 . S
H1492 C1478 0.960 . S
H1493 C1479 0.961 . S
H1494 C1479 0.961 . S
H1495 C1479 0.961 . S
H1496 C1480 0.931 . S
H1497 C1485 0.930 . S
H1498 C1486 0.956 . S
H1499 C1486 0.961 . S
H1500 C1486 0.961 . S
H1501 C1487 0.958 . S
H1502 C1487 0.961 . S
H1503 C1487 0.960 . S
C1504 C1505 1.391 . S
C1504 C1506 1.394 . S
C1504 H1520 0.931 . S
C1505 C1504 1.391 . S
C1505 C1509 1.376 . S
C1506 C1504 1.394 . S
C1506 C1507 1.369 . S
C1506 C1510 1.531 . S
C1507 C1506 1.369 . S
C1507 C1508 1.410 . S
C1507 C1515 1.503 . S
C1508 C1507 1.410 . S
C1508 C1509 1.392 . S
C1508 C1511 1.511 . S
C1509 C1505 1.376 . S
C1509 C1508 1.392 . S
C1509 H1521 0.929 . S
C1510 C1506 1.531 . S
C1510 H1522 0.960 . S
C1510 H1523 0.962 . S
C1510 H1524 0.960 . S
C1511 C1508 1.511 . S
C1511 H1525 0.961 . S
C1511 H1526 0.961 . S
C1511 H1527 0.961 . S
C1512 C1513 1.370 . S
C1512 C1514 1.363 . S
C1512 H1528 0.931 . S
C1513 C1512 1.370 . S
C1513 C1517 1.408 . S
C1514 C1512 1.363 . S
C1514 C1515 1.370 . S
C1514 C1518 1.524 . S
C1515 C1507 1.503 . S
C1515 C1514 1.370 . S
C1515 C1516 1.403 . S
C1516 C1515 1.403 . S
C1516 C1517 1.404 . S
C1516 C1519 1.539 . S
C1517 C1513 1.408 . S
C1517 C1516 1.404 . S
C1517 H1529 0.930 . S
C1518 C1514 1.524 . S
C1518 H1530 0.956 . S
C1518 H1531 0.961 . S
C1518 H1532 0.961 . S
C1519 C1516 1.539 . S
C1519 H1533 0.958 . S
C1519 H1534 0.961 . S
C1519 H1535 0.960 . S
H1520 C1504 0.931 . S
H1521 C1509 0.929 . S
H1522 C1510 0.960 . S
H1523 C1510 0.962 . S
H1524 C1510 0.960 . S
H1525 C1511 0.961 . S
H1526 C1511 0.961 . S
H1527 C1511 0.961 . S
H1528 C1512 0.931 . S
H1529 C1517 0.930 . S
H1530 C1518 0.956 . S
H1531 C1518 0.961 . S
H1532 C1518 0.961 . S
H1533 C1519 0.958 . S
H1534 C1519 0.961 . S
H1535 C1519 0.960 . S
C1536 C1537 1.391 . S
C1536 C1538 1.394 . S
C1536 H1552 0.931 . S
C1537 C1536 1.391 . S
C1537 C1541 1.376 . S
C1538 C1536 1.394 . S
C1538 C1539 1.369 . S
C1538 C1542 1.531 . S
C1539 C1538 1.369 . S
C1539 C1540 1.410 . S
C1539 C1547 1.503 . S
C1540 C1539 1.410 . S
C1540 C1541 1.392 . S
C1540 C1543 1.511 . S
C1541 C1537 1.376 . S
C1541 C1540 1.392 . S
C1541 H1553 0.929 . S
C1542 C1538 1.531 . S
C1542 H1554 0.960 . S
C1542 H1555 0.962 . S
C1542 H1556 0.960 . S
C1543 C1540 1.511 . S
C1543 H1557 0.961 . S
C1543 H1558 0.961 . S
C1543 H1559 0.961 . S
C1544 C1545 1.370 . S
C1544 C1546 1.363 . S
C1544 H1560 0.931 . S
C1545 C1544 1.370 . S
C1545 C1549 1.408 . S
C1546 C1544 1.363 . S
C1546 C1547 1.370 . S
C1546 C1550 1.524 . S
C1547 C1539 1.503 . S
C1547 C1546 1.370 . S
C1547 C1548 1.403 . S
C1548 C1547 1.403 . S
C1548 C1549 1.404 . S
C1548 C1551 1.539 . S
C1549 C1545 1.408 . S
C1549 C1548 1.404 . S
C1549 H1561 0.930 . S
C1550 C1546 1.524 . S
C1550 H1562 0.956 . S
C1550 H1563 0.961 . S
C1550 H1564 0.961 . S
C1551 C1548 1.539 . S
C1551 H1565 0.958 . S
C1551 H1566 0.961 . S
C1551 H1567 0.960 . S
H1552 C1536 0.931 . S
H1553 C1541 0.929 . S
H1554 C1542 0.960 . S
H1555 C1542 0.962 . S
H1556 C1542 0.960 . S
H1557 C1543 0.961 . S
H1558 C1543 0.961 . S
H1559 C1543 0.961 . S
H1560 C1544 0.931 . S
H1561 C1549 0.930 . S
H1562 C1550 0.956 . S
H1563 C1550 0.961 . S
H1564 C1550 0.961 . S
H1565 C1551 0.958 . S
H1566 C1551 0.961 . S
H1567 C1551 0.960 . S
C1568 C1569 1.391 . S
C1568 C1570 1.394 . S
C1568 H1584 0.931 . S
C1569 C1568 1.391 . S
C1569 C1573 1.376 . S
C1570 C1568 1.394 . S
C1570 C1571 1.369 . S
C1570 C1574 1.531 . S
C1571 C1570 1.369 . S
C1571 C1572 1.410 . S
C1571 C1579 1.503 . S
C1572 C1571 1.410 . S
C1572 C1573 1.392 . S
C1572 C1575 1.511 . S
C1573 C1569 1.376 . S
C1573 C1572 1.392 . S
C1573 H1585 0.929 . S
C1574 C1570 1.531 . S
C1574 H1586 0.960 . S
C1574 H1587 0.962 . S
C1574 H1588 0.960 . S
C1575 C1572 1.511 . S
C1575 H1589 0.961 . S
C1575 H1590 0.961 . S
C1575 H1591 0.961 . S
C1576 C1577 1.370 . S
C1576 C1578 1.363 . S
C1576 H1592 0.931 . S
C1577 C1576 1.370 . S
C1577 C1581 1.408 . S
C1578 C1576 1.363 . S
C1578 C1579 1.370 . S
C1578 C1582 1.524 . S
C1579 C1571 1.503 . S
C1579 C1578 1.370 . S
C1579 C1580 1.403 . S
C1580 C1579 1.403 . S
C1580 C1581 1.404 . S
C1580 C1583 1.539 . S
C1581 C1577 1.408 . S
C1581 C1580 1.404 . S
C1581 H1593 0.930 . S
C1582 C1578 1.524 . S
C1582 H1594 0.956 . S
C1582 H1595 0.961 . S
C1582 H1596 0.961 . S
C1583 C1580 1.539 . S
C1583 H1597 0.958 . S
C1583 H1598 0.961 . S
C1583 H1599 0.960 . S
H1584 C1568 0.931 . S
H1585 C1573 0.929 . S
H1586 C1574 0.960 . S
H1587 C1574 0.962 . S
H1588 C1574 0.960 . S
H1589 C1575 0.961 . S
H1590 C1575 0.961 . S
H1591 C1575 0.961 . S
H1592 C1576 0.931 . S
H1593 C1581 0.930 . S
H1594 C1582 0.956 . S
H1595 C1582 0.961 . S
H1596 C1582 0.961 . S
H1597 C1583 0.958 . S
H1598 C1583 0.961 . S
H1599 C1583 0.960 . S
C1600 C1601 1.391 . S
C1600 C1602 1.394 . S
C1600 H1616 0.931 . S
C1601 C1600 1.391 . S
C1601 C1605 1.376 . S
C1602 C1600 1.394 . S
C1602 C1603 1.369 . S
C1602 C1606 1.531 . S
C1603 C1602 1.369 . S
C1603 C1604 1.410 . S
C1603 C1611 1.503 . S
C1604 C1603 1.410 . S
C1604 C1605 1.392 . S
C1604 C1607 1.511 . S
C1605 C1601 1.376 . S
C1605 C1604 1.392 . S
C1605 H1617 0.929 . S
C1606 C1602 1.531 . S
C1606 H1618 0.960 . S
C1606 H1619 0.962 . S
C1606 H1620 0.960 . S
C1607 C1604 1.511 . S
C1607 H1621 0.961 . S
C1607 H1622 0.961 . S
C1607 H1623 0.961 . S
C1608 C1609 1.370 . S
C1608 C1610 1.363 . S
C1608 H1624 0.931 . S
C1609 C1608 1.370 . S
C1609 C1613 1.408 . S
C1610 C1608 1.363 . S
C1610 C1611 1.370 . S
C1610 C1614 1.524 . S
C1611 C1603 1.503 . S
C1611 C1610 1.370 . S
C1611 C1612 1.403 . S
C1612 C1611 1.403 . S
C1612 C1613 1.404 . S
C1612 C1615 1.539 . S
C1613 C1609 1.408 . S
C1613 C1612 1.404 . S
C1613 H1625 0.930 . S
C1614 C1610 1.524 . S
C1614 H1626 0.956 . S
C1614 H1627 0.961 . S
C1614 H1628 0.961 . S
C1615 C1612 1.539 . S
C1615 H1629 0.958 . S
C1615 H1630 0.961 . S
C1615 H1631 0.960 . S
H1616 C1600 0.931 . S
H1617 C1605 0.929 . S
H1618 C1606 0.960 . S
H1619 C1606 0.962 . S
H1620 C1606 0.960 . S
H1621 C1607 0.961 . S
H1622 C1607 0.961 . S
H1623 C1607 0.961 . S
H1624 C1608 0.931 . S
H1625 C1613 0.930 . S
H1626 C1614 0.956 . S
H1627 C1614 0.961 . S
H1628 C1614 0.961 . S
H1629 C1615 0.958 . S
H1630 C1615 0.961 . S
H1631 C1615 0.960 . S
C1632 C1633 1.391 . S
C1632 C1634 1.394 . S
C1632 H1648 0.931 . S
C1633 C1632 1.391 . S
C1633 C1637 1.376 . S
C1634 C1632 1.394 . S
C1634 C1635 1.369 . S
C1634 C1638 1.531 . S
C1635 C1634 1.369 . S
C1635 C1636 1.410 . S
C1635 C1643 1.503 . S
C1636 C1635 1.410 . S
C1636 C1637 1.392 . S
C1636 C1639 1.511 . S
C1637 C1633 1.376 . S
C1637 C1636 1.392 . S
C1637 H1649 0.929 . S
C1638 C1634 1.531 . S
C1638 H1650 0.960 . S
C1638 H1651 0.962 . S
C1638 H1652 0.960 . S
C1639 C1636 1.511 . S
C1639 H1653 0.961 . S
C1639 H1654 0.961 . S
C1639 H1655 0.961 . S
C1640 C1641 1.370 . S
C1640 C1642 1.363 . S
C1640 H1656 0.931 . S
C1641 C1640 1.370 . S
C1641 C1645 1.408 . S
C1642 C1640 1.363 . S
C1642 C1643 1.370 . S
C1642 C1646 1.524 . S
C1643 C1635 1.503 . S
C1643 C1642 1.370 . S
C1643 C1644 1.403 . S
C1644 C1643 1.403 . S
C1644 C1645 1.404 . S
C1644 C1647 1.539 . S
C1645 C1641 1.408 . S
C1645 C1644 1.404 . S
C1645 H1657 0.930 . S
C1646 C1642 1.524 . S
C1646 H1658 0.956 . S
C1646 H1659 0.961 . S
C1646 H1660 0.961 . S
C1647 C1644 1.539 . S
C1647 H1661 0.958 . S
C1647 H1662 0.961 . S
C1647 H1663 0.960 . S
H1648 C1632 0.931 . S
H1649 C1637 0.929 . S
H1650 C1638 0.960 . S
H1651 C1638 0.962 . S
H1652 C1638 0.960 . S
H1653 C1639 0.961 . S
H1654 C1639 0.961 . S
H1655 C1639 0.961 . S
H1656 C1640 0.931 . S
H1657 C1645 0.930 . S
H1658 C1646 0.956 . S
H1659 C1646 0.961 . S
H1660 C1646 0.961 . S
H1661 C1647 0.958 . S
H1662 C1647 0.961 . S
H1663 C1647 0.960 . S
C1664 C1665 1.391 . S
C1664 C1666 1.394 . S
C1664 H1680 0.931 . S
C1665 C1664 1.391 . S
C1665 C1669 1.376 . S
C1666 C1664 1.394 . S
C1666 C1667 1.369 . S
C1666 C1670 1.531 . S
C1667 C1666 1.369 . S
C1667 C1668 1.410 . S
C1667 C1675 1.503 . S
C1668 C1667 1.410 . S
C1668 C1669 1.392 . S
C1668 C1671 1.511 . S
C1669 C1665 1.376 . S
C1669 C1668 1.392 . S
C1669 H1681 0.929 . S
C1670 C1666 1.531 . S
C1670 H1682 0.960 . S
C1670 H1683 0.962 . S
C1670 H1684 0.960 . S
C1671 C1668 1.511 . S
C1671 H1685 0.961 . S
C1671 H1686 0.961 . S
C1671 H1687 0.961 . S
C1672 C1673 1.370 . S
C1672 C1674 1.363 . S
C1672 H1688 0.931 . S
C1673 C1672 1.370 . S
C1673 C1677 1.408 . S
C1674 C1672 1.363 . S
C1674 C1675 1.370 . S
C1674 C1678 1.524 . S
C1675 C1667 1.503 . S
C1675 C1674 1.370 . S
C1675 C1676 1.403 . S
C1676 C1675 1.403 . S
C1676 C1677 1.404 . S
C1676 C1679 1.539 . S
C1677 C1673 1.408 . S
C1677 C1676 1.404 . S
C1677 H1689 0.930 . S
C1678 C1674 1.524 . S
C1678 H1690 0.956 . S
C1678 H1691 0.961 . S
C1678 H1692 0.961 . S
C1679 C1676 1.539 . S
C1679 H1693 0.958 . S
C1679 H1694 0.961 . S
C1679 H1695 0.960 . S
H1680 C1664 0.931 . S
H1681 C1669 0.929 . S
H1682 C1670 0.960 . S
H1683 C1670 0.962 . S
H1684 C1670 0.960 . S
H1685 C1671 0.961 . S
H1686 C1671 0.961 . S
H1687 C1671 0.961 . S
H1688 C1672 0.931 . S
H1689 C1677 0.930 . S
H1690 C1678 0.956 . S
H1691 C1678 0.961 . S
H1692 C1678 0.961 . S
H1693 C1679 0.958 . S
H1694 C1679 0.961 . S
H1695 C1679 0.960 . S
C1696 C1697 1.391 . S
C1696 C1698 1.394 . S
C1696 H1712 0.931 . S
C1697 C1696 1.391 . S
C1697 C1701 1.376 . S
C1698 C1696 1.394 . S
C1698 C1699 1.369 . S
C1698 C1702 1.531 . S
C1699 C1698 1.369 . S
C1699 C1700 1.410 . S
C1699 C1707 1.503 . S
C1700 C1699 1.410 . S
C1700 C1701 1.392 . S
C1700 C1703 1.511 . S
C1701 C1697 1.376 . S
C1701 C1700 1.392 . S
C1701 H1713 0.929 . S
C1702 C1698 1.531 . S
C1702 H1714 0.960 . S
C1702 H1715 0.962 . S
C1702 H1716 0.960 . S
C1703 C1700 1.511 . S
C1703 H1717 0.961 . S
C1703 H1718 0.961 . S
C1703 H1719 0.961 . S
C1704 C1705 1.370 . S
C1704 C1706 1.363 . S
C1704 H1720 0.931 . S
C1705 C1704 1.370 . S
C1705 C1709 1.408 . S
C1706 C1704 1.363 . S
C1706 C1707 1.370 . S
C1706 C1710 1.524 . S
C1707 C1699 1.503 . S
C1707 C1706 1.370 . S
C1707 C1708 1.403 . S
C1708 C1707 1.403 . S
C1708 C1709 1.404 . S
C1708 C1711 1.539 . S
C1709 C1705 1.408 . S
C1709 C1708 1.404 . S
C1709 H1721 0.930 . S
C1710 C1706 1.524 . S
C1710 H1722 0.956 . S
C1710 H1723 0.961 . S
C1710 H1724 0.961 . S
C1711 C1708 1.539 . S
C1711 H1725 0.958 . S
C1711 H1726 0.961 . S
C1711 H1727 0.960 . S
H1712 C1696 0.931 . S
H1713 C1701 0.929 . S
H1714 C1702 0.960 . S
H1715 C1702 0.962 . S
H1716 C1702 0.960 . S
H1717 C1703 0.961 . S
H1718 C1703 0.961 . S
H1719 C1703 0.961 . S
H1720 C1704 0.931 . S
H1721 C1709 0.930 . S
H1722 C1710 0.956 . S
H1723 C1710 0.961 . S
H1724 C1710 0.961 . S
H1725 C1711 0.958 . S
H1726 C1711 0.961 . S
H1727 C1711 0.960 . S
C1728 C1729 1.391 . S
C1728 C1730 1.394 . S
C1728 H1744 0.931 . S
C1729 C1728 1.391 . S
C1729 C1733 1.376 . S
C1730 C1728 1.394 . S
C1730 C1731 1.369 . S
C1730 C1734 1.531 . S
C1731 C1730 1.369 . S
C1731 C1732 1.410 . S
C1731 C1739 1.503 . S
C1732 C1731 1.410 . S
C1732 C1733 1.392 . S
C1732 C1735 1.511 . S
C1733 C1729 1.376 . S
C1733 C1732 1.392 . S
C1733 H1745 0.929 . S
C1734 C1730 1.531 . S
C1734 H1746 0.960 . S
C1734 H1747 0.962 . S
C1734 H1748 0.960 . S
C1735 C1732 1.511 . S
C1735 H1749 0.961 . S
C1735 H1750 0.961 . S
C1735 H1751 0.961 . S
C1736 C1737 1.370 . S
C1736 C1738 1.363 . S
C1736 H1752 0.931 . S
C1737 C1736 1.370 . S
C1737 C1741 1.408 . S
C1738 C1736 1.363 . S
C1738 C1739 1.370 . S
C1738 C1742 1.524 . S
C1739 C1731 1.503 . S
C1739 C1738 1.370 . S
C1739 C1740 1.403 . S
C1740 C1739 1.403 . S
C1740 C1741 1.404 . S
C1740 C1743 1.539 . S
C1741 C1737 1.408 . S
C1741 C1740 1.404 . S
C1741 H1753 0.930 . S
C1742 C1738 1.524 . S
C1742 H1754 0.956 . S
C1742 H1755 0.961 . S
C1742 H1756 0.961 . S
C1743 C1740 1.539 . S
C1743 H1757 0.958 . S
C1743 H1758 0.961 . S
C1743 H1759 0.960 . S
H1744 C1728 0.931 . S
H1745 C1733 0.929 . S
H1746 C1734 0.960 . S
H1747 C1734 0.962 . S
H1748 C1734 0.960 . S
H1749 C1735 0.961 . S
H1750 C1735 0.961 . S
H1751 C1735 0.961 . S
H1752 C1736 0.931 . S
H1753 C1741 0.930 . S
H1754 C1742 0.956 . S
H1755 C1742 0.961 . S
H1756 C1742 0.961 . S
H1757 C1743 0.958 . S
H1758 C1743 0.961 . S
H1759 C1743 0.960 . S
C1760 C1761 1.391 . S
C1760 C1762 1.394 . S
C1760 H1776 0.931 . S
C1761 C1760 1.391 . S
C1761 C1765 1.376 . S
C1762 C1760 1.394 . S
C1762 C1763 1.369 . S
C1762 C1766 1.531 . S
C1763 C1762 1.369 . S
C1763 C1764 1.410 . S
C1763 C1771 1.503 . S
C1764 C1763 1.410 . S
C1764 C1765 1.392 . S
C1764 C1767 1.511 . S
C1765 C1761 1.376 . S
C1765 C1764 1.392 . S
C1765 H1777 0.929 . S
C1766 C1762 1.531 . S
C1766 H1778 0.960 . S
C1766 H1779 0.962 . S
C1766 H1780 0.960 . S
C1767 C1764 1.511 . S
C1767 H1781 0.961 . S
C1767 H1782 0.961 . S
C1767 H1783 0.961 . S
C1768 C1769 1.370 . S
C1768 C1770 1.363 . S
C1768 H1784 0.931 . S
C1769 C1768 1.370 . S
C1769 C1773 1.408 . S
C1770 C1768 1.363 . S
C1770 C1771 1.370 . S
C1770 C1774 1.524 . S
C1771 C1763 1.503 . S
C1771 C1770 1.370 . S
C1771 C1772 1.403 . S
C1772 C1771 1.403 . S
C1772 C1773 1.404 . S
C1772 C1775 1.539 . S
C1773 C1769 1.408 . S
C1773 C1772 1.404 . S
C1773 H1785 0.930 . S
C1774 C1770 1.524 . S
C1774 H1786 0.956 . S
C1774 H1787 0.961 . S
C1774 H1788 0.961 . S
C1775 C1772 1.539 . S
C1775 H1789 0.958 . S
C1775 H1790 0.961 . S
C1775 H1791 0.960 . S
H1776 C1760 0.931 . S
H1777 C1765 0.929 . S
H1778 C1766 0.960 . S
H1779 C1766 0.962 . S
H1780 C1766 0.960 . S
H1781 C1767 0.961 . S
H1782 C1767 0.961 . S
H1783 C1767 0.961 . S
H1784 C1768 0.931 . S
H1785 C1773 0.930 . S
H1786 C1774 0.956 . S
H1787 C1774 0.961 . S
H1788 C1774 0.961 . S
H1789 C1775 0.958 . S
H1790 C1775 0.961 . S
H1791 C1775 0.960 . S
C1792 C1793 1.391 . S
C1792 C1794 1.394 . S
C1792 H1808 0.931 . S
C1793 C1792 1.391 . S
C1793 C1797 1.376 . S
C1794 C1792 1.394 . S
C1794 C1795 1.369 . S
C1794 C1798 1.531 . S
C1795 C1794 1.369 . S
C1795 C1796 1.410 . S
C1795 C1803 1.503 . S
C1796 C1795 1.410 . S
C1796 C1797 1.392 . S
C1796 C1799 1.511 . S
C1797 C1793 1.376 . S
C1797 C1796 1.392 . S
C1797 H1809 0.929 . S
C1798 C1794 1.531 . S
C1798 H1810 0.960 . S
C1798 H1811 0.962 . S
C1798 H1812 0.960 . S
C1799 C1796 1.511 . S
C1799 H1813 0.961 . S
C1799 H1814 0.961 . S
C1799 H1815 0.961 . S
C1800 C1801 1.370 . S
C1800 C1802 1.363 . S
C1800 H1816 0.931 . S
C1801 C1800 1.370 . S
C1801 C1805 1.408 . S
C1802 C1800 1.363 . S
C1802 C1803 1.370 . S
C1802 C1806 1.524 . S
C1803 C1795 1.503 . S
C1803 C1802 1.370 . S
C1803 C1804 1.403 . S
C1804 C1803 1.403 . S
C1804 C1805 1.404 . S
C1804 C1807 1.539 . S
C1805 C1801 1.408 . S
C1805 C1804 1.404 . S
C1805 H1817 0.930 . S
C1806 C1802 1.524 . S
C1806 H1818 0.956 . S
C1806 H1819 0.961 . S
C1806 H1820 0.961 . S
C1807 C1804 1.539 . S
C1807 H1821 0.958 . S
C1807 H1822 0.961 . S
C1807 H1823 0.960 . S
H1808 C1792 0.931 . S
H1809 C1797 0.929 . S
H1810 C1798 0.960 . S
H1811 C1798 0.962 . S
H1812 C1798 0.960 . S
H1813 C1799 0.961 . S
H1814 C1799 0.961 . S
H1815 C1799 0.961 . S
H1816 C1800 0.931 . S
H1817 C1805 0.930 . S
H1818 C1806 0.956 . S
H1819 C1806 0.961 . S
H1820 C1806 0.961 . S
H1821 C1807 0.958 . S
H1822 C1807 0.961 . S
H1823 C1807 0.960 . S
C1824 C1825 1.391 . S
C1824 C1826 1.394 . S
C1824 H1840 0.931 . S
C1825 C1824 1.391 . S
C1825 C1829 1.376 . S
C1826 C1824 1.394 . S
C1826 C1827 1.369 . S
C1826 C1830 1.531 . S
C1827 C1826 1.369 . S
C1827 C1828 1.410 . S
C1827 C1835 1.503 . S
C1828 C1827 1.410 . S
C1828 C1829 1.392 . S
C1828 C1831 1.511 . S
C1829 C1825 1.376 . S
C1829 C1828 1.392 . S
C1829 H1841 0.929 . S
C1830 C1826 1.531 . S
C1830 H1842 0.960 . S
C1830 H1843 0.962 . S
C1830 H1844 0.960 . S
C1831 C1828 1.511 . S
C1831 H1845 0.961 . S
C1831 H1846 0.961 . S
C1831 H1847 0.961 . S
C1832 C1833 1.370 . S
C1832 C1834 1.363 . S
C1832 H1848 0.931 . S
C1833 C1832 1.370 . S
C1833 C1837 1.408 . S
C1834 C1832 1.363 . S
C1834 C1835 1.370 . S
C1834 C1838 1.524 . S
C1835 C1827 1.503 . S
C1835 C1834 1.370 . S
C1835 C1836 1.403 . S
C1836 C1835 1.403 . S
C1836 C1837 1.404 . S
C1836 C1839 1.539 . S
C1837 C1833 1.408 . S
C1837 C1836 1.404 . S
C1837 H1849 0.930 . S
C1838 C1834 1.524 . S
C1838 H1850 0.956 . S
C1838 H1851 0.961 . S
C1838 H1852 0.961 . S
C1839 C1836 1.539 . S
C1839 H1853 0.958 . S
C1839 H1854 0.961 . S
C1839 H1855 0.960 . S
H1840 C1824 0.931 . S
H1841 C1829 0.929 . S
H1842 C1830 0.960 . S
H1843 C1830 0.962 . S
H1844 C1830 0.960 . S
H1845 C1831 0.961 . S
H1846 C1831 0.961 . S
H1847 C1831 0.961 . S
H1848 C1832 0.931 . S
H1849 C1837 0.930 . S
H1850 C1838 0.956 . S
H1851 C1838 0.961 . S
H1852 C1838 0.961 . S
H1853 C1839 0.958 . S
H1854 C1839 0.961 . S
H1855 C1839 0.960 . S
C1856 C1857 1.391 . S
C1856 C1858 1.394 . S
C1856 H1872 0.931 . S
C1857 C1856 1.391 . S
C1857 C1861 1.376 . S
C1858 C1856 1.394 . S
C1858 C1859 1.369 . S
C1858 C1862 1.531 . S
C1859 C1858 1.369 . S
C1859 C1860 1.410 . S
C1859 C1867 1.503 . S
C1860 C1859 1.410 . S
C1860 C1861 1.392 . S
C1860 C1863 1.511 . S
C1861 C1857 1.376 . S
C1861 C1860 1.392 . S
C1861 H1873 0.929 . S
C1862 C1858 1.531 . S
C1862 H1874 0.960 . S
C1862 H1875 0.962 . S
C1862 H1876 0.960 . S
C1863 C1860 1.511 . S
C1863 H1877 0.961 . S
C1863 H1878 0.961 . S
C1863 H1879 0.961 . S
C1864 C1865 1.370 . S
C1864 C1866 1.363 . S
C1864 H1880 0.931 . S
C1865 C1864 1.370 . S
C1865 C1869 1.408 . S
C1866 C1864 1.363 . S
C1866 C1867 1.370 . S
C1866 C1870 1.524 . S
C1867 C1859 1.503 . S
C1867 C1866 1.370 . S
C1867 C1868 1.403 . S
C1868 C1867 1.403 . S
C1868 C1869 1.404 . S
C1868 C1871 1.539 . S
C1869 C1865 1.408 . S
C1869 C1868 1.404 . S
C1869 H1881 0.930 . S
C1870 C1866 1.524 . S
C1870 H1882 0.956 . S
C1870 H1883 0.961 . S
C1870 H1884 0.961 . S
C1871 C1868 1.539 . S
C1871 H1885 0.958 . S
C1871 H1886 0.961 . S
C1871 H1887 0.960 . S
H1872 C1856 0.931 . S
H1873 C1861 0.929 . S
H1874 C1862 0.960 . S
H1875 C1862 0.962 . S
H1876 C1862 0.960 . S
H1877 C1863 0.961 . S
H1878 C1863 0.961 . S
H1879 C1863 0.961 . S
H1880 C1864 0.931 . S
H1881 C1869 0.930 . S
H1882 C1870 0.956 . S
H1883 C1870 0.961 . S
H1884 C1870 0.961 . S
H1885 C1871 0.958 . S
H1886 C1871 0.961 . S
H1887 C1871 0.960 . S
C1888 C1889 1.391 . S
C1888 C1890 1.394 . S
C1888 H1904 0.931 . S
C1889 C1888 1.391 . S
C1889 C1893 1.376 . S
C1890 C1888 1.394 . S
C1890 C1891 1.369 . S
C1890 C1894 1.531 . S
C1891 C1890 1.369 . S
C1891 C1892 1.410 . S
C1891 C1899 1.503 . S
C1892 C1891 1.410 . S
C1892 C1893 1.392 . S
C1892 C1895 1.511 . S
C1893 C1889 1.376 . S
C1893 C1892 1.392 . S
C1893 H1905 0.929 . S
C1894 C1890 1.531 . S
C1894 H1906 0.960 . S
C1894 H1907 0.962 . S
C1894 H1908 0.960 . S
C1895 C1892 1.511 . S
C1895 H1909 0.961 . S
C1895 H1910 0.961 . S
C1895 H1911 0.961 . S
C1896 C1897 1.370 . S
C1896 C1898 1.363 . S
C1896 H1912 0.931 . S
C1897 C1896 1.370 . S
C1897 C1901 1.408 . S
C1898 C1896 1.363 . S
C1898 C1899 1.370 . S
C1898 C1902 1.524 . S
C1899 C1891 1.503 . S
C1899 C1898 1.370 . S
C1899 C1900 1.403 . S
C1900 C1899 1.403 . S
C1900 C1901 1.404 . S
C1900 C1903 1.539 . S
C1901 C1897 1.408 . S
C1901 C1900 1.404 . S
C1901 H1913 0.930 . S
C1902 C1898 1.524 . S
C1902 H1914 0.956 . S
C1902 H1915 0.961 . S
C1902 H1916 0.961 . S
C1903 C1900 1.539 . S
C1903 H1917 0.958 . S
C1903 H1918 0.961 . S
C1903 H1919 0.960 . S
H1904 C1888 0.931 . S
H1905 C1893 0.929 . S
H1906 C1894 0.960 . S
H1907 C1894 0.962 . S
H1908 C1894 0.960 . S
H1909 C1895 0.961 . S
H1910 C1895 0.961 . S
H1911 C1895 0.961 . S
H1912 C1896 0.931 . S
H1913 C1901 0.930 . S
H1914 C1902 0.956 . S
H1915 C1902 0.961 . S
H1916 C1902 0.961 . S
H1917 C1903 0.958 . S
H1918 C1903 0.961 . S
H1919 C1903 0.960 . S
C1920 C1921 1.391 1_554 S
C1920 C1922 1.394 . S
C1920 H1936 0.931 . S
C1921 C1920 1.391 1_556 S
C1921 C1925 1.376 1_556 S
C1922 C1920 1.394 . S
C1922 C1923 1.369 . S
C1922 C1926 1.531 . S
C1923 C1922 1.369 . S
C1923 C1924 1.410 . S
C1923 C1931 1.503 . S
C1924 C1923 1.410 . S
C1924 C1925 1.392 . S
C1924 C1927 1.511 . S
C1925 C1921 1.376 1_554 S
C1925 C1924 1.392 . S
C1925 H1937 0.929 . S
C1926 C1922 1.531 . S
C1926 H1938 0.960 . S
C1926 H1939 0.962 . S
C1926 H1940 0.960 . S
C1927 C1924 1.511 . S
C1927 H1941 0.961 . S
C1927 H1942 0.961 . S
C1927 H1943 0.961 . S
C1928 C1929 1.370 . S
C1928 C1930 1.363 . S
C1928 H1944 0.931 . S
C1929 C1928 1.370 . S
C1929 C1933 1.408 . S
C1930 C1928 1.363 . S
C1930 C1931 1.370 . S
C1930 C1934 1.524 . S
C1931 C1923 1.503 . S
C1931 C1930 1.370 . S
C1931 C1932 1.403 . S
C1932 C1931 1.403 . S
C1932 C1933 1.404 . S
C1932 C1935 1.539 . S
C1933 C1929 1.408 . S
C1933 C1932 1.404 . S
C1933 H1945 0.930 . S
C1934 C1930 1.524 . S
C1934 H1946 0.956 . S
C1934 H1947 0.961 . S
C1934 H1948 0.961 . S
C1935 C1932 1.539 . S
C1935 H1949 0.958 . S
C1935 H1950 0.961 . S
C1935 H1951 0.960 . S
H1936 C1920 0.931 . S
H1937 C1925 0.929 . S
H1938 C1926 0.960 . S
H1939 C1926 0.962 . S
H1940 C1926 0.960 . S
H1941 C1927 0.961 . S
H1942 C1927 0.961 . S
H1943 C1927 0.961 . S
H1944 C1928 0.931 . S
H1945 C1933 0.930 . S
H1946 C1934 0.956 . S
H1947 C1934 0.961 . S
H1948 C1934 0.961 . S
H1949 C1935 0.958 . S
H1950 C1935 0.961 . S
H1951 C1935 0.960 . S
C1952 C1953 1.391 . S
C1952 C1954 1.394 . S
C1952 H1968 0.931 . S
C1953 C1952 1.391 . S
C1953 C1957 1.376 . S
C1954 C1952 1.394 . S
C1954 C1955 1.369 . S
C1954 C1958 1.531 . S
C1955 C1954 1.369 . S
C1955 C1956 1.410 . S
C1955 C1963 1.503 . S
C1956 C1955 1.410 . S
C1956 C1957 1.392 . S
C1956 C1959 1.511 . S
C1957 C1953 1.376 . S
C1957 C1956 1.392 . S
C1957 H1969 0.929 . S
C1958 C1954 1.531 . S
C1958 H1970 0.960 . S
C1958 H1971 0.962 . S
C1958 H1972 0.960 . S
C1959 C1956 1.511 . S
C1959 H1973 0.961 . S
C1959 H1974 0.961 . S
C1959 H1975 0.961 . S
C1960 C1961 1.370 1_556 S
C1960 C1962 1.363 . S
C1960 H1976 0.931 . S
C1961 C1960 1.370 1_554 S
C1961 C1965 1.408 1_554 S
C1962 C1960 1.363 . S
C1962 C1963 1.370 . S
C1962 C1966 1.524 . S
C1963 C1955 1.503 . S
C1963 C1962 1.370 . S
C1963 C1964 1.403 . S
C1964 C1963 1.403 . S
C1964 C1965 1.404 . S
C1964 C1967 1.539 . S
C1965 C1961 1.408 1_556 S
C1965 C1964 1.404 . S
C1965 H1977 0.930 1_556 S
C1966 C1962 1.524 . S
C1966 H1978 0.956 . S
C1966 H1979 0.961 . S
C1966 H1980 0.961 . S
C1967 C1964 1.539 . S
C1967 H1981 0.958 . S
C1967 H1982 0.961 . S
C1967 H1983 0.960 . S
H1968 C1952 0.931 . S
H1969 C1957 0.929 . S
H1970 C1958 0.960 . S
H1971 C1958 0.962 . S
H1972 C1958 0.960 . S
H1973 C1959 0.961 . S
H1974 C1959 0.961 . S
H1975 C1959 0.961 . S
H1976 C1960 0.931 . S
H1977 C1965 0.930 1_554 S
H1978 C1966 0.956 . S
H1979 C1966 0.961 . S
H1980 C1966 0.961 . S
H1981 C1967 0.958 . S
H1982 C1967 0.961 . S
H1983 C1967 0.960 . S
C1984 C1985 1.391 . S
C1984 C1986 1.394 . S
C1984 H2000 0.931 . S
C1985 C1984 1.391 . S
C1985 C1989 1.376 . S
C1986 C1984 1.394 . S
C1986 C1987 1.369 . S
C1986 C1990 1.531 . S
C1987 C1986 1.369 . S
C1987 C1988 1.410 . S
C1987 C1995 1.503 . S
C1988 C1987 1.410 . S
C1988 C1989 1.392 . S
C1988 C1991 1.511 . S
C1989 C1985 1.376 . S
C1989 C1988 1.392 . S
C1989 H2001 0.929 . S
C1990 C1986 1.531 . S
C1990 H2002 0.960 . S
C1990 H2003 0.962 . S
C1990 H2004 0.960 . S
C1991 C1988 1.511 . S
C1991 H2005 0.961 . S
C1991 H2006 0.961 . S
C1991 H2007 0.961 . S
C1992 C1993 1.370 1_554 S
C1992 C1994 1.363 . S
C1992 H2008 0.931 . S
C1993 C1992 1.370 1_556 S
C1993 C1997 1.408 1_556 S
C1994 C1992 1.363 . S
C1994 C1995 1.370 . S
C1994 C1998 1.524 . S
C1995 C1987 1.503 . S
C1995 C1994 1.370 . S
C1995 C1996 1.403 . S
C1996 C1995 1.403 . S
C1996 C1997 1.404 . S
C1996 C1999 1.539 . S
C1997 C1993 1.408 1_554 S
C1997 C1996 1.404 . S
C1997 H2009 0.930 1_554 S
C1998 C1994 1.524 . S
C1998 H2010 0.956 . S
C1998 H2011 0.961 . S
C1998 H2012 0.961 . S
C1999 C1996 1.539 . S
C1999 H2013 0.958 . S
C1999 H2014 0.961 . S
C1999 H2015 0.960 . S
H2000 C1984 0.931 . S
H2001 C1989 0.929 . S
H2002 C1990 0.960 . S
H2003 C1990 0.962 . S
H2004 C1990 0.960 . S
H2005 C1991 0.961 . S
H2006 C1991 0.961 . S
H2007 C1991 0.961 . S
H2008 C1992 0.931 . S
H2009 C1997 0.930 1_556 S
H2010 C1998 0.956 . S
H2011 C1998 0.961 . S
H2012 C1998 0.961 . S
H2013 C1999 0.958 . S
H2014 C1999 0.961 . S
H2015 C1999 0.960 . S
C2016 C2017 1.391 1_556 S
C2016 C2018 1.394 . S
C2016 H2032 0.931 . S
C2017 C2016 1.391 1_554 S
C2017 C2021 1.376 1_554 S
C2018 C2016 1.394 . S
C2018 C2019 1.369 . S
C2018 C2022 1.531 . S
C2019 C2018 1.369 . S
C2019 C2020 1.410 . S
C2019 C2027 1.503 . S
C2020 C2019 1.410 . S
C2020 C2021 1.392 . S
C2020 C2023 1.511 . S
C2021 C2017 1.376 1_556 S
C2021 C2020 1.392 . S
C2021 H2033 0.929 1_556 S
C2022 C2018 1.531 . S
C2022 H2034 0.960 . S
C2022 H2035 0.962 . S
C2022 H2036 0.960 . S
C2023 C2020 1.511 . S
C2023 H2037 0.961 . S
C2023 H2038 0.961 . S
C2023 H2039 0.961 . S
C2024 C2025 1.370 . S
C2024 C2026 1.363 . S
C2024 H2040 0.931 . S
C2025 C2024 1.370 . S
C2025 C2029 1.408 . S
C2026 C2024 1.363 . S
C2026 C2027 1.370 . S
C2026 C2030 1.524 . S
C2027 C2019 1.503 . S
C2027 C2026 1.370 . S
C2027 C2028 1.403 . S
C2028 C2027 1.403 . S
C2028 C2029 1.404 . S
C2028 C2031 1.539 . S
C2029 C2025 1.408 . S
C2029 C2028 1.404 . S
C2029 H2041 0.930 . S
C2030 C2026 1.524 . S
C2030 H2042 0.956 . S
C2030 H2043 0.961 . S
C2030 H2044 0.961 . S
C2031 C2028 1.539 . S
C2031 H2045 0.958 . S
C2031 H2046 0.961 . S
C2031 H2047 0.960 . S
H2032 C2016 0.931 . S
H2033 C2021 0.929 1_554 S
H2034 C2022 0.960 . S
H2035 C2022 0.962 . S
H2036 C2022 0.960 . S
H2037 C2023 0.961 . S
H2038 C2023 0.961 . S
H2039 C2023 0.961 . S
H2040 C2024 0.931 . S
H2041 C2029 0.930 . S
H2042 C2030 0.956 . S
H2043 C2030 0.961 . S
H2044 C2030 0.961 . S
H2045 C2031 0.958 . S
H2046 C2031 0.961 . S
H2047 C2031 0.960 . S
C2048 C2049 1.391 . S
C2048 C2050 1.394 . S
C2048 H2064 0.931 . S
C2049 C2048 1.391 . S
C2049 C2053 1.376 . S
C2050 C2048 1.394 . S
C2050 C2051 1.369 . S
C2050 C2054 1.531 . S
C2051 C2050 1.369 . S
C2051 C2052 1.410 . S
C2051 C2059 1.503 . S
C2052 C2051 1.410 . S
C2052 C2053 1.392 . S
C2052 C2055 1.511 . S
C2053 C2049 1.376 . S
C2053 C2052 1.392 . S
C2053 H2065 0.929 . S
C2054 C2050 1.531 . S
C2054 H2066 0.960 . S
C2054 H2067 0.962 . S
C2054 H2068 0.960 . S
C2055 C2052 1.511 . S
C2055 H2069 0.961 . S
C2055 H2070 0.961 . S
C2055 H2071 0.961 . S
C2056 C2057 1.370 1_554 S
C2056 C2058 1.363 . S
C2056 H2072 0.931 . S
C2057 C2056 1.370 1_556 S
C2057 C2061 1.408 1_556 S
C2058 C2056 1.363 . S
C2058 C2059 1.370 . S
C2058 C2062 1.524 . S
C2059 C2051 1.503 . S
C2059 C2058 1.370 . S
C2059 C2060 1.403 . S
C2060 C2059 1.403 . S
C2060 C2061 1.404 . S
C2060 C2063 1.539 . S
C2061 C2057 1.408 1_554 S
C2061 C2060 1.404 . S
C2061 H2073 0.930 1_554 S
C2062 C2058 1.524 . S
C2062 H2074 0.956 . S
C2062 H2075 0.961 . S
C2062 H2076 0.961 . S
C2063 C2060 1.539 . S
C2063 H2077 0.958 . S
C2063 H2078 0.961 . S
C2063 H2079 0.960 . S
H2064 C2048 0.931 . S
H2065 C2053 0.929 . S
H2066 C2054 0.960 . S
H2067 C2054 0.962 . S
H2068 C2054 0.960 . S
H2069 C2055 0.961 . S
H2070 C2055 0.961 . S
H2071 C2055 0.961 . S
H2072 C2056 0.931 . S
H2073 C2061 0.930 1_556 S
H2074 C2062 0.956 . S
H2075 C2062 0.961 . S
H2076 C2062 0.961 . S
H2077 C2063 0.958 . S
H2078 C2063 0.961 . S
H2079 C2063 0.960 . S
C2080 C2081 1.391 1_556 S
C2080 C2082 1.394 . S
C2080 H2096 0.931 1_556 S
C2081 C2080 1.391 1_554 S
C2081 C2085 1.376 1_554 S
C2082 C2080 1.394 . S
C2082 C2083 1.369 . S
C2082 C2086 1.531 . S
C2083 C2082 1.369 . S
C2083 C2084 1.410 . S
C2083 C2091 1.503 . S
C2084 C2083 1.410 . S
C2084 C2085 1.392 . S
C2084 C2087 1.511 . S
C2085 C2081 1.376 1_556 S
C2085 C2084 1.392 . S
C2085 H2097 0.929 . S
C2086 C2082 1.531 . S
C2086 H2098 0.960 . S
C2086 H2099 0.962 . S
C2086 H2100 0.960 . S
C2087 C2084 1.511 . S
C2087 H2101 0.961 . S
C2087 H2102 0.961 . S
C2087 H2103 0.961 . S
C2088 C2089 1.370 . S
C2088 C2090 1.363 . S
C2088 H2104 0.931 . S
C2089 C2088 1.370 . S
C2089 C2093 1.408 . S
C2090 C2088 1.363 . S
C2090 C2091 1.370 . S
C2090 C2094 1.524 . S
C2091 C2083 1.503 . S
C2091 C2090 1.370 . S
C2091 C2092 1.403 . S
C2092 C2091 1.403 . S
C2092 C2093 1.404 . S
C2092 C2095 1.539 . S
C2093 C2089 1.408 . S
C2093 C2092 1.404 . S
C2093 H2105 0.930 . S
C2094 C2090 1.524 . S
C2094 H2106 0.956 . S
C2094 H2107 0.961 . S
C2094 H2108 0.961 . S
C2095 C2092 1.539 . S
C2095 H2109 0.958 . S
C2095 H2110 0.961 . S
C2095 H2111 0.960 . S
H2096 C2080 0.931 1_554 S
H2097 C2085 0.929 . S
H2098 C2086 0.960 . S
H2099 C2086 0.962 . S
H2100 C2086 0.960 . S
H2101 C2087 0.961 . S
H2102 C2087 0.961 . S
H2103 C2087 0.961 . S
H2104 C2088 0.931 . S
H2105 C2093 0.930 . S
H2106 C2094 0.956 . S
H2107 C2094 0.961 . S
H2108 C2094 0.961 . S
H2109 C2095 0.958 . S
H2110 C2095 0.961 . S
H2111 C2095 0.960 . S
C2112 C2113 1.391 1_554 S
C2112 C2114 1.394 . S
C2112 H2128 0.931 . S
C2113 C2112 1.391 1_556 S
C2113 C2117 1.376 1_556 S
C2114 C2112 1.394 . S
C2114 C2115 1.369 . S
C2114 C2118 1.531 . S
C2115 C2114 1.369 . S
C2115 C2116 1.410 . S
C2115 C2123 1.503 . S
C2116 C2115 1.410 . S
C2116 C2117 1.392 . S
C2116 C2119 1.511 . S
C2117 C2113 1.376 1_554 S
C2117 C2116 1.392 . S
C2117 H2129 0.929 1_554 S
C2118 C2114 1.531 . S
C2118 H2130 0.960 . S
C2118 H2131 0.962 . S
C2118 H2132 0.960 . S
C2119 C2116 1.511 . S
C2119 H2133 0.961 . S
C2119 H2134 0.961 . S
C2119 H2135 0.961 . S
C2120 C2121 1.370 . S
C2120 C2122 1.363 . S
C2120 H2136 0.931 . S
C2121 C2120 1.370 . S
C2121 C2125 1.408 . S
C2122 C2120 1.363 . S
C2122 C2123 1.370 . S
C2122 C2126 1.524 . S
C2123 C2115 1.503 . S
C2123 C2122 1.370 . S
C2123 C2124 1.403 . S
C2124 C2123 1.403 . S
C2124 C2125 1.404 . S
C2124 C2127 1.539 . S
C2125 C2121 1.408 . S
C2125 C2124 1.404 . S
C2125 H2137 0.930 . S
C2126 C2122 1.524 . S
C2126 H2138 0.956 . S
C2126 H2139 0.961 . S
C2126 H2140 0.961 . S
C2127 C2124 1.539 . S
C2127 H2141 0.958 . S
C2127 H2142 0.961 . S
C2127 H2143 0.960 . S
H2128 C2112 0.931 . S
H2129 C2117 0.929 1_556 S
H2130 C2118 0.960 . S
H2131 C2118 0.962 . S
H2132 C2118 0.960 . S
H2133 C2119 0.961 . S
H2134 C2119 0.961 . S
H2135 C2119 0.961 . S
H2136 C2120 0.931 . S
H2137 C2125 0.930 . S
H2138 C2126 0.956 . S
H2139 C2126 0.961 . S
H2140 C2126 0.961 . S
H2141 C2127 0.958 . S
H2142 C2127 0.961 . S
H2143 C2127 0.960 . S
C2144 C2145 1.391 . S
C2144 C2146 1.394 . S
C2144 H2160 0.931 . S
C2145 C2144 1.391 . S
C2145 C2149 1.376 . S
C2146 C2144 1.394 . S
C2146 C2147 1.369 . S
C2146 C2150 1.531 . S
C2147 C2146 1.369 . S
C2147 C2148 1.410 . S
C2147 C2155 1.503 . S
C2148 C2147 1.410 . S
C2148 C2149 1.392 . S
C2148 C2151 1.511 . S
C2149 C2145 1.376 . S
C2149 C2148 1.392 . S
C2149 H2161 0.929 . S
C2150 C2146 1.531 . S
C2150 H2162 0.960 . S
C2150 H2163 0.962 . S
C2150 H2164 0.960 . S
C2151 C2148 1.511 . S
C2151 H2165 0.961 . S
C2151 H2166 0.961 . S
C2151 H2167 0.961 . S
C2152 C2153 1.370 1_556 S
C2152 C2154 1.363 . S
C2152 H2168 0.931 . S
C2153 C2152 1.370 1_554 S
C2153 C2157 1.408 1_554 S
C2154 C2152 1.363 . S
C2154 C2155 1.370 . S
C2154 C2158 1.524 . S
C2155 C2147 1.503 . S
C2155 C2154 1.370 . S
C2155 C2156 1.403 . S
C2156 C2155 1.403 . S
C2156 C2157 1.404 . S
C2156 C2159 1.539 . S
C2157 C2153 1.408 1_556 S
C2157 C2156 1.404 . S
C2157 H2169 0.930 1_556 S
C2158 C2154 1.524 . S
C2158 H2170 0.956 . S
C2158 H2171 0.961 . S
C2158 H2172 0.961 . S
C2159 C2156 1.539 . S
C2159 H2173 0.958 . S
C2159 H2174 0.961 . S
C2159 H2175 0.960 . S
H2160 C2144 0.931 . S
H2161 C2149 0.929 . S
H2162 C2150 0.960 . S
H2163 C2150 0.962 . S
H2164 C2150 0.960 . S
H2165 C2151 0.961 . S
H2166 C2151 0.961 . S
H2167 C2151 0.961 . S
H2168 C2152 0.931 . S
H2169 C2157 0.930 1_554 S
H2170 C2158 0.956 . S
H2171 C2158 0.961 . S
H2172 C2158 0.961 . S
H2173 C2159 0.958 . S
H2174 C2159 0.961 . S
H2175 C2159 0.960 . S
C641 C459 1.682 . S
C649 C18 1.727 . S
C673 C330 1.730 . S
C681 C49 1.710 . S
C705 C98 1.731 . S
C713 C379 1.701 . S
C737 C129 1.726 . S
C745 C410 1.703 . S
C769 C178 1.732 . S
C777 C219 1.708 . S
C801 C250 1.727 . S
C809 C209 1.710 . S
C833 C258 1.737 . S
C841 C299 1.702 . S
C865 C170 1.721 . S
C873 C289 1.712 . S
C897 C139 1.725 . S
C905 C338 1.710 . S
C929 C369 1.708 . S
C937 C10 1.711 . S
C961 C59 1.722 . S
C969 C418 1.710 . S
C993 C90 1.692 . S
C1001 C449 1.727 . S
C1025 C498 1.733 . S
C1033 C539 1.700 . S
C1057 C570 1.724 . S
C1065 C529 1.711 . S
C1089 C619 1.687 . S
C1097 C578 1.729 . S
C1121 C609 1.693 . S
C1129 C490 1.720 . S
C1153 C9 1.142 . S
C1161 C169 1.184 . S
C1185 C218 1.115 . S
C1193 C58 1.183 . S
C1217 C89 1.212 . S
C1225 C249 1.147 . S
C1249 C138 1.213 . S
C1257 C298 1.153 . S
C1281 C329 1.187 . S
C1289 C489 1.148 . S
C1313 C538 1.174 . S
C1321 C378 1.148 . S
C1345 C409 1.203 . S
C1353 C569 1.146 . S
C1377 C458 1.210 . S
C1385 C618 1.149 . S
C1409 C579 2.312 . S
C1417 C19 2.316 1_556 S
C1441 C50 2.311 1_554 S
C1449 C610 2.326 . S
C1473 C99 2.312 1_556 S
C1481 C499 2.317 . S
C1505 C130 2.327 1_554 S
C1513 C530 2.315 . S
C1537 C179 2.314 . S
C1545 C419 2.316 . S
C1569 C210 2.302 . S
C1577 C450 2.326 . S
C1601 C259 2.302 . S
C1609 C339 2.325 . S
C1633 C370 2.304 . S
C1641 C290 2.327 . S
C1665 C6 1.043 . S
C1673 C15 1.067 . S
C1697 C55 1.070 . S
C1705 C46 1.057 . S
C1729 C86 1.074 . S
C1737 C95 1.055 . S
C1761 C126 1.056 . S
C1769 C135 1.061 . S
C1793 C175 1.060 . S
C1801 C166 1.059 . S
C1825 C215 1.051 . S
C1833 C206 1.065 . S
C1857 C246 1.067 . S
C1865 C255 1.058 . S
C1889 C286 1.056 . S
C1897 C295 1.063 . S
C1921 C326 1.044 . S
C1929 C335 1.067 . S
C1953 C366 1.068 . S
C1961 C375 1.056 . S
C1985 C415 1.074 . S
C1993 C406 1.054 . S
C2017 C455 1.057 . S
C2025 C446 1.063 . S
C2049 C486 1.072 . S
C2057 C495 1.056 . S
C2081 C526 1.064 . S
C2089 C535 1.058 . S
C2113 C575 1.073 . S
C2121 C566 1.056 . S
C2145 C615 1.074 . S
C2153 C606 1.054 . S
