# Generated by pormake.
# Topology umu, (4)-cn, num edge types: 1
# Building blocks:
#     Node 0, Type 0, BuildingBlock: QUQFOY_clean_sbu_1, # of connection points: 4
#     Node 1, Type 0, BuildingBlock: QUQFOY_clean_sbu_1, # of connection points: 4
#     Node 2, Type 0, BuildingBlock: QUQFOY_clean_sbu_1, # of connection points: 4
#     Node 3, Type 0, BuildingBlock: QUQFOY_clean_sbu_1, # of connection points: 4
#     Node 4, Type 0, BuildingBlock: QUQFOY_clean_sbu_1, # of connection points: 4
#     Node 5, Type 0, BuildingBlock: QUQFOY_clean_sbu_1, # of connection points: 4
#     Node 6, Type 0, BuildingBlock: QUQFOY_clean_sbu_1, # of connection points: 4
#     Node 7, Type 0, BuildingBlock: QUQFOY_clean_sbu_1, # of connection points: 4
#     Node 8, Type 0, BuildingBlock: QUQFOY_clean_sbu_1, # of connection points: 4
#     Node 9, Type 0, BuildingBlock: QUQFOY_clean_sbu_1, # of connection points: 4
#     Node 10, Type 0, BuildingBlock: QUQFOY_clean_sbu_1, # of connection points: 4
#     Node 11, Type 0, BuildingBlock: QUQFOY_clean_sbu_1, # of connection points: 4
#     Node 12, Type 0, BuildingBlock: QUQFOY_clean_sbu_1, # of connection points: 4
#     Node 13, Type 0, BuildingBlock: QUQFOY_clean_sbu_1, # of connection points: 4
#     Node 14, Type 0, BuildingBlock: QUQFOY_clean_sbu_1, # of connection points: 4
#     Node 15, Type 0, BuildingBlock: QUQFOY_clean_sbu_1, # of connection points: 4
#     Node 16, Type 0, BuildingBlock: QUQFOY_clean_sbu_1, # of connection points: 4
#     Node 17, Type 0, BuildingBlock: QUQFOY_clean_sbu_1, # of connection points: 4
#     Node 18, Type 0, BuildingBlock: QUQFOY_clean_sbu_1, # of connection points: 4
#     Node 19, Type 0, BuildingBlock: QUQFOY_clean_sbu_1, # of connection points: 4
#     Node 20, Type 0, BuildingBlock: QUQFOY_clean_sbu_1, # of connection points: 4
#     Node 21, Type 0, BuildingBlock: QUQFOY_clean_sbu_1, # of connection points: 4
#     Node 22, Type 0, BuildingBlock: QUQFOY_clean_sbu_1, # of connection points: 4
#     Node 23, Type 0, BuildingBlock: QUQFOY_clean_sbu_1, # of connection points: 4
#     Node 24, Type 0, BuildingBlock: QUQFOY_clean_sbu_1, # of connection points: 4
#     Node 25, Type 0, BuildingBlock: QUQFOY_clean_sbu_1, # of connection points: 4
#     Node 26, Type 0, BuildingBlock: QUQFOY_clean_sbu_1, # of connection points: 4
#     Node 27, Type 0, BuildingBlock: QUQFOY_clean_sbu_1, # of connection points: 4
#     Node 28, Type 0, BuildingBlock: QUQFOY_clean_sbu_1, # of connection points: 4
#     Node 29, Type 0, BuildingBlock: QUQFOY_clean_sbu_1, # of connection points: 4
#     Node 30, Type 0, BuildingBlock: QUQFOY_clean_sbu_1, # of connection points: 4
#     Node 31, Type 0, BuildingBlock: QUQFOY_clean_sbu_1, # of connection points: 4
#     Edge 32, Type (0, 0), BuildingBlock: MIFKUJ_clean_linker_0, # of connection points: 2
#     Edge 33, Type (0, 0), BuildingBlock: MIFKUJ_clean_linker_0, # of connection points: 2
#     Edge 34, Type (0, 0), BuildingBlock: MIFKUJ_clean_linker_0, # of connection points: 2
#     Edge 35, Type (0, 0), BuildingBlock: MIFKUJ_clean_linker_0, # of connection points: 2
#     Edge 36, Type (0, 0), BuildingBlock: MIFKUJ_clean_linker_0, # of connection points: 2
#     Edge 37, Type (0, 0), BuildingBlock: MIFKUJ_clean_linker_0, # of connection points: 2
#     Edge 38, Type (0, 0), BuildingBlock: MIFKUJ_clean_linker_0, # of connection points: 2
#     Edge 39, Type (0, 0), BuildingBlock: MIFKUJ_clean_linker_0, # of connection points: 2
#     Edge 40, Type (0, 0), BuildingBlock: MIFKUJ_clean_linker_0, # of connection points: 2
#     Edge 41, Type (0, 0), BuildingBlock: MIFKUJ_clean_linker_0, # of connection points: 2
#     Edge 42, Type (0, 0), BuildingBlock: MIFKUJ_clean_linker_0, # of connection points: 2
#     Edge 43, Type (0, 0), BuildingBlock: MIFKUJ_clean_linker_0, # of connection points: 2
#     Edge 44, Type (0, 0), BuildingBlock: MIFKUJ_clean_linker_0, # of connection points: 2
#     Edge 45, Type (0, 0), BuildingBlock: MIFKUJ_clean_linker_0, # of connection points: 2
#     Edge 46, Type (0, 0), BuildingBlock: MIFKUJ_clean_linker_0, # of connection points: 2
#     Edge 47, Type (0, 0), BuildingBlock: MIFKUJ_clean_linker_0, # of connection points: 2
#     Edge 48, Type (0, 0), BuildingBlock: MIFKUJ_clean_linker_0, # of connection points: 2
#     Edge 49, Type (0, 0), BuildingBlock: MIFKUJ_clean_linker_0, # of connection points: 2
#     Edge 50, Type (0, 0), BuildingBlock: MIFKUJ_clean_linker_0, # of connection points: 2
#     Edge 51, Type (0, 0), BuildingBlock: MIFKUJ_clean_linker_0, # of connection points: 2
#     Edge 52, Type (0, 0), BuildingBlock: MIFKUJ_clean_linker_0, # of connection points: 2
#     Edge 53, Type (0, 0), BuildingBlock: MIFKUJ_clean_linker_0, # of connection points: 2
#     Edge 54, Type (0, 0), BuildingBlock: MIFKUJ_clean_linker_0, # of connection points: 2
#     Edge 55, Type (0, 0), BuildingBlock: MIFKUJ_clean_linker_0, # of connection points: 2
#     Edge 56, Type (0, 0), BuildingBlock: MIFKUJ_clean_linker_0, # of connection points: 2
#     Edge 57, Type (0, 0), BuildingBlock: MIFKUJ_clean_linker_0, # of connection points: 2
#     Edge 58, Type (0, 0), BuildingBlock: MIFKUJ_clean_linker_0, # of connection points: 2
#     Edge 59, Type (0, 0), BuildingBlock: MIFKUJ_clean_linker_0, # of connection points: 2
#     Edge 60, Type (0, 0), BuildingBlock: MIFKUJ_clean_linker_0, # of connection points: 2
#     Edge 61, Type (0, 0), BuildingBlock: MIFKUJ_clean_linker_0, # of connection points: 2
#     Edge 62, Type (0, 0), BuildingBlock: MIFKUJ_clean_linker_0, # of connection points: 2
#     Edge 63, Type (0, 0), BuildingBlock: MIFKUJ_clean_linker_0, # of connection points: 2
#     Edge 64, Type (0, 0), BuildingBlock: MIFKUJ_clean_linker_0, # of connection points: 2
#     Edge 65, Type (0, 0), BuildingBlock: MIFKUJ_clean_linker_0, # of connection points: 2
#     Edge 66, Type (0, 0), BuildingBlock: MIFKUJ_clean_linker_0, # of connection points: 2
#     Edge 67, Type (0, 0), BuildingBlock: MIFKUJ_clean_linker_0, # of connection points: 2
#     Edge 68, Type (0, 0), BuildingBlock: MIFKUJ_clean_linker_0, # of connection points: 2
#     Edge 69, Type (0, 0), BuildingBlock: MIFKUJ_clean_linker_0, # of connection points: 2
#     Edge 70, Type (0, 0), BuildingBlock: MIFKUJ_clean_linker_0, # of connection points: 2
#     Edge 71, Type (0, 0), BuildingBlock: MIFKUJ_clean_linker_0, # of connection points: 2
#     Edge 72, Type (0, 0), BuildingBlock: MIFKUJ_clean_linker_0, # of connection points: 2
#     Edge 73, Type (0, 0), BuildingBlock: MIFKUJ_clean_linker_0, # of connection points: 2
#     Edge 74, Type (0, 0), BuildingBlock: MIFKUJ_clean_linker_0, # of connection points: 2
#     Edge 75, Type (0, 0), BuildingBlock: MIFKUJ_clean_linker_0, # of connection points: 2
#     Edge 76, Type (0, 0), BuildingBlock: MIFKUJ_clean_linker_0, # of connection points: 2
#     Edge 77, Type (0, 0), BuildingBlock: MIFKUJ_clean_linker_0, # of connection points: 2
#     Edge 78, Type (0, 0), BuildingBlock: MIFKUJ_clean_linker_0, # of connection points: 2
#     Edge 79, Type (0, 0), BuildingBlock: MIFKUJ_clean_linker_0, # of connection points: 2
#     Edge 80, Type (0, 0), BuildingBlock: MIFKUJ_clean_linker_0, # of connection points: 2
#     Edge 81, Type (0, 0), BuildingBlock: MIFKUJ_clean_linker_0, # of connection points: 2
#     Edge 82, Type (0, 0), BuildingBlock: MIFKUJ_clean_linker_0, # of connection points: 2
#     Edge 83, Type (0, 0), BuildingBlock: MIFKUJ_clean_linker_0, # of connection points: 2
#     Edge 84, Type (0, 0), BuildingBlock: MIFKUJ_clean_linker_0, # of connection points: 2
#     Edge 85, Type (0, 0), BuildingBlock: MIFKUJ_clean_linker_0, # of connection points: 2
#     Edge 86, Type (0, 0), BuildingBlock: MIFKUJ_clean_linker_0, # of connection points: 2
#     Edge 87, Type (0, 0), BuildingBlock: MIFKUJ_clean_linker_0, # of connection points: 2
#     Edge 88, Type (0, 0), BuildingBlock: MIFKUJ_clean_linker_0, # of connection points: 2
#     Edge 89, Type (0, 0), BuildingBlock: MIFKUJ_clean_linker_0, # of connection points: 2
#     Edge 90, Type (0, 0), BuildingBlock: MIFKUJ_clean_linker_0, # of connection points: 2
#     Edge 91, Type (0, 0), BuildingBlock: MIFKUJ_clean_linker_0, # of connection points: 2
#     Edge 92, Type (0, 0), BuildingBlock: MIFKUJ_clean_linker_0, # of connection points: 2
#     Edge 93, Type (0, 0), BuildingBlock: MIFKUJ_clean_linker_0, # of connection points: 2
#     Edge 94, Type (0, 0), BuildingBlock: MIFKUJ_clean_linker_0, # of connection points: 2
#     Edge 95, Type (0, 0), BuildingBlock: MIFKUJ_clean_linker_0, # of connection points: 2
# Relax obj value: 0.038
# Max RMSD: 0.069
# Mean RMSD: 0.069
data_MOF--net-umu--node1-QUQFOY_clean_sbu_1--edge1-MIFKUJ_clean_linker_0
_symmetry_space_group_name_H-M    P1
_symmetry_Int_Tables_number       1
_symmetry_cell_setting            triclinic
loop_
_symmetry_equiv_pos_as_xyz
'x, y, z'
_cell_length_a     110.00189
_cell_length_b     110.01816
_cell_length_c     36.409243
_cell_angle_alpha  89.998557
_cell_angle_beta   89.998386
_cell_angle_gamma 89.997074
loop_
_atom_site_label
_atom_site_type_symbol
_atom_site_fract_x
_atom_site_fract_y
_atom_site_fract_z
_atom_type_partial_charge
O0 O 0.20983 0.16836 0.01234 0.0
Cd1 Cd 0.1986 0.16826 0.05748 0.0
Cd2 Cd 0.22156 0.16896 0.09116 0.0
O3 O 0.22738 0.16416 0.03884 0.0
O4 O 0.18237 0.1653 0.0348 0.0
O5 O 0.1915 0.1519 0.07066 0.0
C6 C 0.18252 0.15464 0.04936 0.0
C7 C 0.23016 0.16059 0.14444 0.0
C8 C 0.22102 0.16559 0.00994 0.0
C9 C 0.20493 0.19087 0.09769 0.0
O10 O 0.21565 0.18658 0.09907 0.0
O11 O 0.19624 0.18442 0.08545 0.0
O12 O 0.23605 0.16817 0.12415 0.0
O13 O 0.21957 0.15712 0.13326 0.0
O14 O 0.08965 0.96753 0.27812 0.0
Cd15 Cd 0.08749 0.95479 0.3188 0.0
Cd16 Cd 0.08679 0.97755 0.35877 0.0
O17 O 0.09274 0.9845 0.30899 0.0
O18 O 0.08842 0.93979 0.28823 0.0
O19 O 0.10222 0.94437 0.3299 0.0
C20 C 0.09863 0.93731 0.30372 0.0
C21 C 0.09508 0.98427 0.41447 0.0
C22 C 0.09235 0.97874 0.27874 0.0
C23 C 0.06427 0.9616 0.357 0.0
O24 O 0.06886 0.97205 0.36257 0.0
O25 O 0.07061 0.95311 0.34304 0.0
O26 O 0.08821 0.99117 0.39483 0.0
O27 O 0.09772 0.97362 0.40171 0.0
O28 O 0.29101 0.84341 0.51752 0.0
Cd29 Cd 0.30167 0.84281 0.56378 0.0
Cd30 Cd 0.27873 0.84241 0.5951 0.0
O31 O 0.27347 0.84811 0.54308 0.0
O32 O 0.31815 0.84539 0.54252 0.0
O33 O 0.30916 0.85888 0.57833 0.0
C34 C 0.31819 0.856 0.55738 0.0
C35 C 0.27119 0.85139 0.64874 0.0
C36 C 0.28 0.84669 0.51453 0.0
C37 C 0.29427 0.81991 0.60093 0.0
O38 O 0.28362 0.82439 0.60163 0.0
O39 O 0.30323 0.82634 0.59046 0.0
O40 O 0.2644 0.84471 0.62809 0.0
O41 O 0.28219 0.85351 0.63795 0.0
O42 O 0.40902 0.04138 0.77353 0.0
Cd43 Cd 0.4122 0.05435 0.81301 0.0
Cd44 Cd 0.41261 0.03146 0.85384 0.0
O45 O 0.40644 0.02436 0.80455 0.0
O46 O 0.41152 0.06885 0.78026 0.0
O47 O 0.39842 0.06593 0.82523 0.0
C48 C 0.40186 0.07226 0.79725 0.0
C49 C 0.40423 0.02513 0.90982 0.0
C50 C 0.40642 0.03015 0.77433 0.0
C51 C 0.43551 0.04695 0.8503 0.0
O52 O 0.43063 0.0367 0.8571 0.0
O53 O 0.42939 0.05547 0.83561 0.0
O54 O 0.41102 0.01805 0.89051 0.0
O55 O 0.40176 0.03576 0.89664 0.0
O56 O 0.21519 0.84956 0.15731 0.0
Cd57 Cd 0.20211 0.84612 0.11838 0.0
Cd58 Cd 0.22492 0.84468 0.07665 0.0
O59 O 0.23234 0.85049 0.12594 0.0
O60 O 0.18753 0.84727 0.15072 0.0
O61 O 0.19069 0.85992 0.10483 0.0
C62 C 0.1842 0.85675 0.13276 0.0
C63 C 0.23159 0.85271 0.02051 0.0
C64 C 0.22658 0.85135 0.15611 0.0
C65 C 0.20885 0.82225 0.08239 0.0
O66 O 0.21904 0.82689 0.07369 0.0
O67 O 0.2007 0.82862 0.09806 0.0
O68 O 0.2384 0.84569 0.03998 0.0
O69 O 0.22107 0.85562 0.03361 0.0
O70 O 0.40806 0.96613 0.41404 0.0
Cd71 Cd 0.41026 0.95535 0.3685 0.0
Cd72 Cd 0.41083 0.97854 0.3365 0.0
O73 O 0.40459 0.98387 0.3878 0.0
O74 O 0.4082 0.93889 0.39032 0.0
O75 O 0.39498 0.94688 0.35152 0.0
C76 C 0.39794 0.93816 0.37355 0.0
C77 C 0.40227 0.98583 0.28199 0.0
C78 C 0.40504 0.97723 0.41639 0.0
C79 C 0.43365 0.96337 0.33411 0.0
O80 O 0.42895 0.9739 0.33171 0.0
O81 O 0.42732 0.95439 0.34491 0.0
O82 O 0.40864 0.99276 0.3031 0.0
O83 O 0.40022 0.97482 0.29273 0.0
O84 O 0.28665 0.16345 0.65213 0.0
Cd85 Cd 0.30037 0.16671 0.61511 0.0
Cd86 Cd 0.27719 0.16948 0.57192 0.0
O87 O 0.26934 0.16441 0.62146 0.0
O88 O 0.31423 0.1653 0.65014 0.0
O89 O 0.31195 0.15287 0.60323 0.0
C90 C 0.31787 0.15587 0.63245 0.0
C91 C 0.26931 0.16223 0.51605 0.0
C92 C 0.27514 0.16267 0.65124 0.0
C93 C 0.29496 0.19085 0.57854 0.0
O94 O 0.2847 0.18665 0.56862 0.0
O95 O 0.30258 0.1842 0.59549 0.0
O96 O 0.26368 0.17029 0.53528 0.0
O97 O 0.27929 0.15784 0.52927 0.0
O98 O 0.08964 0.0434 0.91879 0.0
Cd99 Cd 0.08786 0.05425 0.87301 0.0
Cd100 Cd 0.08695 0.03125 0.84174 0.0
O101 O 0.09351 0.02578 0.89239 0.0
O102 O 0.09039 0.0707 0.89461 0.0
O103 O 0.10341 0.06227 0.85607 0.0
C104 C 0.10069 0.07112 0.87789 0.0
C105 C 0.09519 0.02411 0.78656 0.0
C106 C 0.09281 0.03232 0.92111 0.0
C107 C 0.06432 0.04655 0.83975 0.0
O108 O 0.0688 0.03591 0.83882 0.0
O109 O 0.07092 0.05559 0.84854 0.0
O110 O 0.08892 0.01714 0.80778 0.0
O111 O 0.09729 0.0351 0.79745 0.0
O112 O 0.78542 0.84954 0.15611 0.0
Cd113 Cd 0.79759 0.84599 0.11459 0.0
Cd114 Cd 0.77391 0.84492 0.0777 0.0
O115 O 0.76777 0.8514 0.12774 0.0
O116 O 0.81297 0.84667 0.1435 0.0
O117 O 0.80862 0.85998 0.10023 0.0
C118 C 0.8158 0.85644 0.12617 0.0
C119 C 0.76619 0.85248 0.02223 0.0
C120 C 0.77414 0.85196 0.15683 0.0
C121 C 0.78962 0.82226 0.08043 0.0
O122 O 0.77921 0.82697 0.07512 0.0
O123 O 0.79836 0.82861 0.09292 0.0
O124 O 0.75966 0.84587 0.04378 0.0
O125 O 0.77704 0.85529 0.03291 0.0
O126 O 0.90973 0.04481 0.9081 0.0
Cd127 Cd 0.91143 0.05722 0.86637 0.0
Cd128 Cd 0.91345 0.03426 0.82752 0.0
O129 O 0.90884 0.02725 0.87875 0.0
O130 O 0.90879 0.07275 0.89347 0.0
O131 O 0.89591 0.06587 0.85186 0.0
C132 C 0.89859 0.07386 0.87653 0.0
C133 C 0.90555 0.02591 0.77314 0.0
C134 C 0.90834 0.03336 0.90843 0.0
C135 C 0.93504 0.05172 0.82848 0.0
O136 O 0.93074 0.04127 0.8212 0.0
O137 O 0.92855 0.05971 0.84433 0.0
O138 O 0.91355 0.02026 0.79255 0.0
O139 O 0.90149 0.03613 0.78559 0.0
O140 O 0.71069 0.16746 0.66128 0.0
Cd141 Cd 0.69868 0.16873 0.61824 0.0
Cd142 Cd 0.72127 0.1689 0.5808 0.0
O143 O 0.72791 0.16397 0.63193 0.0
O144 O 0.6828 0.16618 0.64345 0.0
O145 O 0.69044 0.15304 0.60376 0.0
C146 C 0.68208 0.15582 0.6272 0.0
C147 C 0.72948 0.16071 0.52671 0.0
C148 C 0.72194 0.16484 0.66175 0.0
C149 C 0.70533 0.19157 0.57947 0.0
O150 O 0.71565 0.18666 0.57446 0.0
O151 O 0.69667 0.18555 0.59375 0.0
O152 O 0.73545 0.1683 0.54669 0.0
O153 O 0.71898 0.15717 0.53847 0.0
O154 O 0.5908 0.96958 0.40131 0.0
Cd155 Cd 0.58708 0.95658 0.36234 0.0
Cd156 Cd 0.58599 0.97966 0.32066 0.0
O157 O 0.59227 0.98669 0.36989 0.0
O158 O 0.58768 0.94194 0.39456 0.0
O159 O 0.60075 0.94493 0.34964 0.0
C160 C 0.59725 0.93846 0.37726 0.0
C161 C 0.59363 0.98704 0.2648 0.0
C162 C 0.593 0.98089 0.40004 0.0
C163 C 0.56334 0.96387 0.32655 0.0
O164 O 0.5681 0.97405 0.31837 0.0
O165 O 0.56962 0.95552 0.34155 0.0
O166 O 0.58673 0.99357 0.28548 0.0
O167 O 0.5966 0.97635 0.27641 0.0
O168 O 0.78815 0.16755 0.0216 0.0
Cd169 Cd 0.79965 0.16786 0.06614 0.0
Cd170 Cd 0.77663 0.16862 0.10059 0.0
O171 O 0.77053 0.16402 0.04858 0.0
O172 O 0.81575 0.16521 0.0423 0.0
O173 O 0.80729 0.15172 0.07927 0.0
C174 C 0.81601 0.1546 0.05718 0.0
C175 C 0.76797 0.16023 0.15368 0.0
C176 C 0.77688 0.16511 0.01955 0.0
C177 C 0.79327 0.19058 0.10611 0.0
O178 O 0.7826 0.18621 0.1084 0.0
O179 O 0.80192 0.18419 0.09332 0.0
O180 O 0.76218 0.16796 0.13365 0.0
O181 O 0.77852 0.15665 0.14241 0.0
O182 O 0.5887 0.04552 0.76066 0.0
Cd183 Cd 0.58778 0.05606 0.80715 0.0
Cd184 Cd 0.58769 0.03329 0.83772 0.0
O185 O 0.59374 0.02807 0.78615 0.0
O186 O 0.59042 0.07266 0.78684 0.0
O187 O 0.6037 0.0635 0.82304 0.0
C188 C 0.60092 0.07264 0.8024 0.0
C189 C 0.59658 0.0266 0.89232 0.0
C190 C 0.59224 0.03457 0.75764 0.0
C191 C 0.56489 0.0482 0.84328 0.0
O192 O 0.56953 0.03761 0.8434 0.0
O193 O 0.57122 0.05731 0.83355 0.0
O194 O 0.59035 0.01935 0.87183 0.0
O195 O 0.59841 0.03755 0.88065 0.0
O196 O 0.70973 0.84582 0.5138 0.0
Cd197 Cd 0.69754 0.84298 0.55565 0.0
Cd198 Cd 0.72031 0.84329 0.5936 0.0
O199 O 0.72667 0.84983 0.54381 0.0
O200 O 0.68213 0.84391 0.52704 0.0
O201 O 0.6869 0.85723 0.56995 0.0
C202 C 0.67959 0.85381 0.54419 0.0
C203 C 0.72661 0.85172 0.64944 0.0
C204 C 0.72077 0.84916 0.51384 0.0
C205 C 0.70566 0.81997 0.5923 0.0
O206 O 0.71591 0.82507 0.5972 0.0
O207 O 0.69675 0.82592 0.57912 0.0
O208 O 0.73391 0.84542 0.62932 0.0
O209 O 0.71579 0.85375 0.63702 0.0
O210 O 0.91136 0.96728 0.26786 0.0
Cd211 Cd 0.91235 0.95499 0.31023 0.0
Cd212 Cd 0.91318 0.97819 0.34792 0.0
O213 O 0.90841 0.98475 0.29639 0.0
O214 O 0.91083 0.9395 0.28215 0.0
O215 O 0.89697 0.94559 0.32186 0.0
C216 C 0.90042 0.93782 0.29741 0.0
C217 C 0.90508 0.98662 0.40192 0.0
C218 C 0.90912 0.9786 0.26684 0.0
C219 C 0.93518 0.96131 0.35049 0.0
O220 O 0.93072 0.97187 0.35483 0.0
O221 O 0.92888 0.95286 0.33619 0.0
O222 O 0.91285 0.99242 0.38205 0.0
O223 O 0.90132 0.97621 0.39007 0.0
O224 O 0.71168 0.66512 0.52251 0.0
Cd225 Cd 0.69964 0.66725 0.56517 0.0
Cd226 Cd 0.72267 0.66769 0.60231 0.0
O227 O 0.72894 0.66179 0.55169 0.0
O228 O 0.68398 0.66608 0.53779 0.0
O229 O 0.68965 0.65243 0.57869 0.0
C230 C 0.68195 0.65591 0.55407 0.0
C231 C 0.73013 0.65931 0.65701 0.0
C232 C 0.72288 0.66232 0.52199 0.0
C233 C 0.70712 0.69043 0.60242 0.0
O234 O 0.71756 0.6857 0.60691 0.0
O235 O 0.6984 0.68419 0.58938 0.0
O236 O 0.73681 0.66608 0.63637 0.0
O237 O 0.71926 0.65682 0.64583 0.0
O238 O 0.59087 0.46603 0.7704 0.0
Cd239 Cd 0.5885 0.4544 0.81392 0.0
Cd240 Cd 0.58881 0.47777 0.84858 0.0
O241 O 0.59494 0.48348 0.79753 0.0
O242 O 0.58904 0.43869 0.7867 0.0
O243 O 0.60297 0.44389 0.82728 0.0
C244 C 0.59921 0.43635 0.80259 0.0
C245 C 0.59748 0.48484 0.9033 0.0
C246 C 0.59408 0.47709 0.76853 0.0
C247 C 0.56562 0.46294 0.85042 0.0
O248 O 0.57063 0.47331 0.85337 0.0
O249 O 0.57162 0.45385 0.83866 0.0
O250 O 0.59111 0.49186 0.88251 0.0
O251 O 0.59946 0.47386 0.89217 0.0
O252 O 0.79058 0.3401 0.0167 0.0
Cd253 Cd 0.80139 0.34128 0.06254 0.0
Cd254 Cd 0.77919 0.34206 0.09438 0.0
O255 O 0.77414 0.34782 0.0421 0.0
O256 O 0.81781 0.34432 0.04141 0.0
O257 O 0.80778 0.35804 0.07392 0.0
C258 C 0.8171 0.35522 0.05408 0.0
C259 C 0.77188 0.35127 0.14797 0.0
C260 C 0.78001 0.3446 0.0136 0.0
C261 C 0.79421 0.3194 0.10316 0.0
O262 O 0.78356 0.32389 0.10162 0.0
O263 O 0.80331 0.32574 0.0934 0.0
O264 O 0.7649 0.34484 0.1272 0.0
O265 O 0.78294 0.35307 0.13724 0.0
O266 O 0.90857 0.54328 0.26695 0.0
Cd267 Cd 0.91056 0.55626 0.30712 0.0
Cd268 Cd 0.91232 0.53316 0.34793 0.0
O269 O 0.90756 0.52593 0.29738 0.0
O270 O 0.90924 0.57119 0.27635 0.0
O271 O 0.89574 0.56652 0.31879 0.0
C272 C 0.89916 0.57365 0.2926 0.0
C273 C 0.90476 0.52475 0.40263 0.0
C274 C 0.9071 0.53183 0.26736 0.0
C275 C 0.93397 0.55055 0.34645 0.0
O276 O 0.92965 0.54008 0.35349 0.0
O277 O 0.9275 0.55856 0.33056 0.0
O278 O 0.91267 0.51915 0.38278 0.0
O279 O 0.9006 0.53498 0.3905 0.0
O280 O 0.71503 0.34773 0.65612 0.0
Cd281 Cd 0.70216 0.34486 0.61615 0.0
Cd282 Cd 0.72517 0.34411 0.57601 0.0
O283 O 0.73221 0.3501 0.62567 0.0
O284 O 0.68742 0.34553 0.64795 0.0
O285 O 0.69082 0.35886 0.60401 0.0
C286 C 0.68419 0.35529 0.6312 0.0
C287 C 0.73189 0.35215 0.51989 0.0
C288 C 0.72631 0.35013 0.65573 0.0
C289 C 0.70941 0.32138 0.57975 0.0
O290 O 0.71971 0.32615 0.57305 0.0
O291 O 0.70089 0.32763 0.5939 0.0
O292 O 0.73879 0.34534 0.53978 0.0
O293 O 0.72127 0.35488 0.53261 0.0
O294 O 0.91101 0.46529 0.90874 0.0
Cd295 Cd 0.91173 0.45358 0.86489 0.0
Cd296 Cd 0.91308 0.47659 0.82942 0.0
O297 O 0.90827 0.48294 0.88111 0.0
O298 O 0.90888 0.43768 0.88965 0.0
O299 O 0.89579 0.44573 0.85065 0.0
C300 C 0.89846 0.43722 0.8737 0.0
C301 C 0.90518 0.48534 0.77574 0.0
C302 C 0.90886 0.47662 0.91034 0.0
C303 C 0.93491 0.45955 0.82659 0.0
O304 O 0.93059 0.47019 0.82263 0.0
O305 O 0.92841 0.4511 0.84003 0.0
O306 O 0.91297 0.49096 0.79599 0.0
O307 O 0.90128 0.47492 0.78705 0.0
O308 O 0.78735 0.66679 0.16161 0.0
Cd309 Cd 0.79878 0.66937 0.11761 0.0
Cd310 Cd 0.77569 0.66957 0.08353 0.0
O311 O 0.76976 0.66348 0.13429 0.0
O312 O 0.81478 0.66815 0.14295 0.0
O313 O 0.80864 0.65471 0.10201 0.0
C314 C 0.81663 0.65807 0.12593 0.0
C315 C 0.76932 0.66054 0.02866 0.0
C316 C 0.7762 0.66387 0.16329 0.0
C317 C 0.79061 0.6926 0.08222 0.0
O318 O 0.78019 0.68772 0.07881 0.0
O319 O 0.79957 0.68644 0.09402 0.0
O320 O 0.76203 0.66704 0.04825 0.0
O321 O 0.78016 0.65868 0.04113 0.0
O322 O 0.59148 0.54184 0.41126 0.0
Cd323 Cd 0.58834 0.55454 0.371 0.0
Cd324 Cd 0.58786 0.53168 0.33021 0.0
O325 O 0.59362 0.52472 0.38023 0.0
O326 O 0.58933 0.56968 0.40095 0.0
O327 O 0.60259 0.56533 0.35749 0.0
C328 C 0.59918 0.57241 0.38382 0.0
C329 C 0.59629 0.52474 0.27485 0.0
C330 C 0.59385 0.53055 0.4104 0.0
C331 C 0.565 0.54726 0.33346 0.0
O332 O 0.56995 0.53712 0.32586 0.0
O333 O 0.57104 0.55567 0.34902 0.0
O334 O 0.58928 0.51796 0.29446 0.0
O335 O 0.59897 0.5354 0.28743 0.0
O336 O 0.28992 0.34585 0.66423 0.0
Cd337 Cd 0.30209 0.34379 0.62194 0.0
Cd338 Cd 0.27882 0.34163 0.5849 0.0
O339 O 0.27227 0.34718 0.63566 0.0
O340 O 0.31759 0.34611 0.64931 0.0
O341 O 0.31126 0.35898 0.60699 0.0
C342 C 0.31907 0.3562 0.63209 0.0
C343 C 0.27015 0.34891 0.53028 0.0
C344 C 0.27852 0.34766 0.66501 0.0
C345 C 0.29609 0.31996 0.586 0.0
O346 O 0.28548 0.32414 0.58027 0.0
O347 O 0.30433 0.32665 0.59982 0.0
O348 O 0.26443 0.34149 0.5515 0.0
O349 O 0.28068 0.35273 0.54094 0.0
O350 O 0.40911 0.54303 0.41231 0.0
Cd351 Cd 0.41166 0.55504 0.3698 0.0
Cd352 Cd 0.41208 0.5324 0.33217 0.0
O353 O 0.40637 0.52576 0.38257 0.0
O354 O 0.40955 0.57091 0.39549 0.0
O355 O 0.39659 0.56415 0.35392 0.0
C356 C 0.39944 0.57223 0.37817 0.0
C357 C 0.40334 0.52577 0.27707 0.0
C358 C 0.4065 0.53179 0.41236 0.0
C359 C 0.43499 0.54772 0.33317 0.0
O360 O 0.43007 0.53745 0.32727 0.0
O361 O 0.42888 0.55636 0.34728 0.0
O362 O 0.41015 0.51874 0.29652 0.0
O363 O 0.40099 0.53648 0.28977 0.0
O364 O 0.21398 0.66506 0.15543 0.0
Cd365 Cd 0.20073 0.66875 0.1173 0.0
Cd366 Cd 0.22372 0.66992 0.07441 0.0
O367 O 0.23103 0.66384 0.12363 0.0
O368 O 0.18642 0.66812 0.15085 0.0
O369 O 0.18889 0.65513 0.10544 0.0
C370 C 0.18274 0.65858 0.13378 0.0
C371 C 0.23092 0.66217 0.01837 0.0
C372 C 0.22533 0.66302 0.15391 0.0
C373 C 0.20775 0.6925 0.08095 0.0
O374 O 0.21787 0.68775 0.07194 0.0
O375 O 0.19956 0.68622 0.09677 0.0
O376 O 0.2375 0.66916 0.03863 0.0
O377 O 0.22029 0.65918 0.03047 0.0
O378 O 0.09094 0.46913 0.90877 0.0
Cd379 Cd 0.08799 0.45631 0.86872 0.0
Cd380 Cd 0.08604 0.47927 0.82873 0.0
O381 O 0.09191 0.48645 0.87836 0.0
O382 O 0.08956 0.44147 0.89974 0.0
O383 O 0.1022 0.44553 0.85444 0.0
C384 C 0.0992 0.43865 0.8817 0.0
C385 C 0.09379 0.48623 0.77257 0.0
C386 C 0.09269 0.48053 0.90827 0.0
C387 C 0.06402 0.46264 0.83307 0.0
O388 O 0.06835 0.47308 0.82565 0.0
O389 O 0.07063 0.45449 0.84778 0.0
O390 O 0.0868 0.49291 0.79254 0.0
O391 O 0.09688 0.4757 0.78526 0.0
O392 O 0.29037 0.66732 0.5146 0.0
Cd393 Cd 0.30111 0.6679 0.56074 0.0
Cd394 Cd 0.27815 0.66834 0.59218 0.0
O395 O 0.27281 0.6627 0.5402 0.0
O396 O 0.31763 0.66524 0.53971 0.0
O397 O 0.30847 0.65179 0.57536 0.0
C398 C 0.31757 0.65463 0.55463 0.0
C399 C 0.27095 0.65943 0.64632 0.0
C400 C 0.27933 0.6641 0.51164 0.0
C401 C 0.29371 0.69078 0.5982 0.0
O402 O 0.28304 0.68634 0.59867 0.0
O403 O 0.30266 0.68434 0.58773 0.0
O404 O 0.26401 0.66602 0.62591 0.0
O405 O 0.28187 0.65727 0.63485 0.0
O406 O 0.08868 0.54655 0.26718 0.0
Cd407 Cd 0.08651 0.55839 0.31029 0.0
Cd408 Cd 0.08524 0.53487 0.34571 0.0
O409 O 0.09112 0.52884 0.29462 0.0
O410 O 0.08803 0.57405 0.28315 0.0
O411 O 0.10128 0.56826 0.32505 0.0
C412 C 0.09807 0.576 0.30023 0.0
C413 C 0.09322 0.52699 0.40048 0.0
C414 C 0.09103 0.53527 0.26557 0.0
C415 C 0.06299 0.55122 0.34619 0.0
O416 O 0.06742 0.54063 0.35034 0.0
O417 O 0.06948 0.55983 0.33362 0.0
O418 O 0.08636 0.52055 0.37938 0.0
O419 O 0.09607 0.5378 0.38964 0.0
O420 O 0.21215 0.3446 0.02128 0.0
Cd421 Cd 0.1994 0.34272 0.06214 0.0
Cd422 Cd 0.22252 0.34161 0.10149 0.0
O423 O 0.2294 0.34716 0.05126 0.0
O424 O 0.18442 0.34374 0.03155 0.0
O425 O 0.1891 0.35755 0.07305 0.0
C426 C 0.182 0.35396 0.04697 0.0
C427 C 0.23051 0.34915 0.15671 0.0
C428 C 0.22345 0.34693 0.02132 0.0
C429 C 0.20581 0.31953 0.10089 0.0
O430 O 0.21636 0.32395 0.106 0.0
O431 O 0.19741 0.32595 0.08685 0.0
O432 O 0.23659 0.34181 0.13612 0.0
O433 O 0.22003 0.35277 0.145 0.0
O434 O 0.41153 0.46761 0.77276 0.0
Cd435 Cd 0.41303 0.45625 0.81723 0.0
Cd436 Cd 0.41308 0.47913 0.85133 0.0
O437 O 0.40697 0.48485 0.80028 0.0
O438 O 0.41135 0.44029 0.79205 0.0
O439 O 0.39775 0.44716 0.83147 0.0
C440 C 0.40097 0.43901 0.80785 0.0
C441 C 0.40433 0.4864 0.90566 0.0
C442 C 0.40816 0.47862 0.77107 0.0
C443 C 0.436 0.46396 0.85382 0.0
O444 O 0.43122 0.47446 0.85635 0.0
O445 O 0.42977 0.45499 0.84241 0.0
O446 O 0.41091 0.49329 0.88503 0.0
O447 O 0.40225 0.47543 0.89465 0.0
H448 H 0.0959 0.09381 0.90391 0.0
H449 H 0.11044 0.10817 0.93062 0.0
H450 H 0.13994 0.08404 0.90302 0.0
H451 H 0.12545 0.06975 0.87533 0.0
H452 H 0.13747 0.0918 0.98162 0.0
H453 H 0.13984 0.10785 0.85845 0.0
H454 H 0.1313 0.11597 0.80086 0.0
H455 H 0.1151 0.14556 0.8602 0.0
H456 H 0.1234 0.13751 0.91825 0.0
H457 H 0.18556 0.13016 0.04278 0.0
H458 H 0.17183 0.11586 0.01256 0.0
H459 H 0.14506 0.1443 1.00066 0.0
H460 H 0.15912 0.15877 0.02876 0.0
H461 H 0.14649 0.13376 0.9401 0.0
H462 H 0.14239 0.11851 0.06239 0.0
H463 H 0.14912 0.1107 0.12253 0.0
H464 H 0.16612 0.08022 0.06973 0.0
H465 H 0.15962 0.08793 0.0092 0.0
C466 C 0.10551 0.09171 0.90271 0.0
C467 C 0.10956 0.08069 0.88745 0.0
C468 C 0.11379 0.09989 0.91805 0.0
C469 C 0.12623 0.09711 0.91894 0.0
C470 C 0.13036 0.08632 0.90258 0.0
C471 C 0.1221 0.07823 0.88651 0.0
C472 C 0.13473 0.10511 0.93915 0.0
C473 C 0.13964 0.10092 0.97237 0.0
C474 C 0.13711 0.11713 0.92765 0.0
C475 C 0.13215 0.122 0.89275 0.0
C476 C 0.13436 0.11602 0.85927 0.0
C477 C 0.12958 0.12063 0.82653 0.0
C478 C 0.12263 0.13126 0.82689 0.0
C479 C 0.12047 0.13732 0.85997 0.0
C480 C 0.12523 0.13275 0.8928 0.0
C481 C 0.17663 0.13327 0.03445 0.0
C482 C 0.17337 0.14555 0.03821 0.0
C483 C 0.16876 0.12508 0.01717 0.0
C484 C 0.1573 0.12892 0.00441 0.0
C485 C 0.15384 0.14109 0.00993 0.0
C486 C 0.16184 0.14934 0.02629 0.0
C487 C 0.14927 0.12055 0.98317 0.0
C488 C 0.1444 0.12466 0.94963 0.0
C489 C 0.14669 0.10853 0.99488 0.0
C490 C 0.15063 0.10387 0.03123 0.0
C491 C 0.14765 0.1102 0.06358 0.0
C492 C 0.1514 0.10578 0.09774 0.0
C493 C 0.15807 0.09499 0.09994 0.0
C494 C 0.16097 0.08858 0.06798 0.0
C495 C 0.15724 0.09297 0.03374 0.0
H496 H 0.16097 0.09158 0.12642 0.0
H497 H 0.11894 0.13481 0.80151 0.0
H498 H 0.12241 0.93225 0.32056 0.0
H499 H 0.13588 0.91791 0.28899 0.0
H500 H 0.10602 0.90622 0.2208 0.0
H501 H 0.09252 0.92035 0.25242 0.0
H502 H 0.11934 0.88735 0.23933 0.0
H503 H 0.12638 0.9263 0.18786 0.0
H504 H 0.13093 0.94824 0.18728 0.0
H505 H 0.16595 0.94129 0.23498 0.0
H506 H 0.16153 0.9193 0.2363 0.0
H507 H 0.17366 0.8767 0.10005 0.0
H508 H 0.1576 0.88969 0.12549 0.0
H509 H 0.15606 0.86701 0.22209 0.0
H510 H 0.17161 0.85384 0.1964 0.0
H511 H 0.15702 0.90351 0.18253 0.0
H512 H 0.12888 0.86683 0.26122 0.0
H513 H 0.12262 0.84546 0.25332 0.0
H514 H 0.12685 0.84874 0.1365 0.0
H515 H 0.13297 0.87016 0.14364 0.0
C516 C 0.11867 0.92647 0.29931 0.0
C517 C 0.10641 0.92748 0.28891 0.0
C518 C 0.1264 0.91835 0.28106 0.0
C519 C 0.122 0.91114 0.25208 0.0
C520 C 0.10963 0.91172 0.24294 0.0
C521 C 0.10192 0.91982 0.26108 0.0
C522 C 0.13033 0.90326 0.23049 0.0
C523 C 0.12759 0.89086 0.22699 0.0
C524 C 0.14086 0.90794 0.21314 0.0
C525 C 0.14357 0.92116 0.21252 0.0
C526 C 0.13501 0.92945 0.19852 0.0
C527 C 0.13757 0.9419 0.19799 0.0
C528 C 0.14871 0.94616 0.21117 0.0
C529 C 0.15732 0.93798 0.22483 0.0
C530 C 0.15479 0.92552 0.22544 0.0
C531 C 0.16973 0.87439 0.12642 0.0
C532 C 0.17385 0.86418 0.14604 0.0
C533 C 0.16061 0.88186 0.14104 0.0
C534 C 0.15549 0.87928 0.17558 0.0
C535 C 0.1596 0.86906 0.19504 0.0
C536 C 0.16857 0.86154 0.1803 0.0
C537 C 0.14623 0.88747 0.19226 0.0
C538 C 0.14877 0.89996 0.19483 0.0
C539 C 0.13528 0.88294 0.20762 0.0
C540 C 0.13149 0.87008 0.20303 0.0
C541 C 0.12842 0.86301 0.23384 0.0
C542 C 0.1249 0.85088 0.22949 0.0
C543 C 0.12437 0.84574 0.19444 0.0
C544 C 0.12731 0.85272 0.16365 0.0
C545 C 0.13082 0.86485 0.16783 0.0
H546 H 0.12165 0.83634 0.19114 0.0
H547 H 0.15069 0.9558 0.21072 0.0
H548 H 0.3732 0.93945 0.37451 0.0
H549 H 0.3593 0.92522 0.40501 0.0
H550 H 0.38924 0.90101 0.4269 0.0
H551 H 0.40324 0.91535 0.39752 0.0
H552 H 0.36483 0.89013 0.40145 0.0
H553 H 0.38406 0.91695 0.49132 0.0
H554 H 0.38962 0.9373 0.5142 0.0
H555 H 0.35191 0.94724 0.51881 0.0
H556 H 0.34614 0.927 0.49529 0.0
H557 H 0.34133 0.8515 0.5349 0.0
H558 H 0.3551 0.86566 0.50425 0.0
H559 H 0.3293 0.89471 0.52082 0.0
H560 H 0.31577 0.88066 0.55322 0.0
H561 H 0.35091 0.90377 0.52449 0.0
H562 H 0.33081 0.87799 0.4386 0.0
H563 H 0.32389 0.85865 0.41151 0.0
H564 H 0.36096 0.8478 0.39432 0.0
H565 H 0.3681 0.86702 0.4218 0.0
C566 C 0.37675 0.93094 0.38489 0.0
C567 C 0.38928 0.92848 0.38368 0.0
C568 C 0.36882 0.92287 0.40249 0.0
C569 C 0.3733 0.91214 0.41838 0.0
C570 C 0.38565 0.90925 0.41478 0.0
C571 C 0.39361 0.91743 0.39797 0.0
C572 C 0.36536 0.90446 0.44151 0.0
C573 C 0.36186 0.89301 0.4285 0.0
C574 C 0.36123 0.90846 0.47625 0.0
C575 C 0.36468 0.92052 0.49115 0.0
C576 C 0.37696 0.92351 0.4969 0.0
C577 C 0.38015 0.93502 0.51004 0.0
C578 C 0.37113 0.94357 0.51784 0.0
C579 C 0.35889 0.94061 0.51268 0.0
C580 C 0.35565 0.92912 0.49947 0.0
C581 C 0.33875 0.86098 0.53283 0.0
C582 C 0.32746 0.86498 0.54624 0.0
C583 C 0.34656 0.86905 0.51496 0.0
C584 C 0.34307 0.88118 0.50904 0.0
C585 C 0.33216 0.88538 0.5247 0.0
C586 C 0.32445 0.87735 0.54335 0.0
C587 C 0.35043 0.88922 0.48479 0.0
C588 C 0.35381 0.9008 0.49747 0.0
C589 C 0.35424 0.88544 0.44932 0.0
C590 C 0.34999 0.8739 0.43257 0.0
C591 C 0.33749 0.87145 0.42926 0.0
C592 C 0.33352 0.86051 0.41381 0.0
C593 C 0.34198 0.85199 0.40128 0.0
C594 C 0.35442 0.8544 0.40408 0.0
C595 C 0.35843 0.86532 0.41957 0.0
H596 H 0.3389 0.84353 0.38933 0.0
H597 H 0.37362 0.95248 0.52797 0.0
H598 H 0.40248 0.08139 0.72813 0.0
H599 H 0.38907 0.09641 0.70083 0.0
H600 H 0.37113 0.10131 0.80529 0.0
H601 H 0.38418 0.08558 0.83231 0.0
H602 H 0.35488 0.10054 0.75691 0.0
H603 H 0.39155 0.12328 0.76398 0.0
H604 H 0.41336 0.12777 0.75619 0.0
H605 H 0.40955 0.12509 0.6391 0.0
H606 H 0.38774 0.12042 0.6462 0.0
H607 H 0.3273 0.1567 0.70135 0.0
H608 H 0.34239 0.14317 0.72861 0.0
H609 H 0.34626 0.12443 0.62533 0.0
H610 H 0.3308 0.1378 0.59778 0.0
H611 H 0.36955 0.1331 0.67363 0.0
H612 H 0.33195 0.10927 0.67183 0.0
H613 H 0.31006 0.10669 0.68426 0.0
H614 H 0.31613 0.11399 0.79867 0.0
H615 H 0.33804 0.1168 0.78676 0.0
C616 C 0.39579 0.08577 0.7455 0.0
C617 C 0.39444 0.08236 0.78249 0.0
C618 C 0.38814 0.09445 0.72984 0.0
C619 C 0.3792 0.10025 0.75104 0.0
C620 C 0.37797 0.09701 0.78827 0.0
C621 C 0.38546 0.08807 0.80379 0.0
C622 C 0.37075 0.10917 0.73369 0.0
C623 C 0.35818 0.10774 0.73916 0.0
C624 C 0.37491 0.11857 0.71008 0.0
C625 C 0.38803 0.12139 0.70566 0.0
C626 C 0.39538 0.12356 0.73658 0.0
C627 C 0.40774 0.12615 0.73229 0.0
C628 C 0.41284 0.12669 0.69718 0.0
C629 C 0.40559 0.12466 0.66628 0.0
C630 C 0.39322 0.12205 0.67043 0.0
C631 C 0.33143 0.1498 0.6842 0.0
C632 C 0.32786 0.14832 0.64735 0.0
C633 C 0.34003 0.14206 0.69991 0.0
C634 C 0.34538 0.13283 0.67898 0.0
C635 C 0.3422 0.13155 0.64183 0.0
C636 C 0.33338 0.13916 0.62619 0.0
C637 C 0.3539 0.12425 0.69667 0.0
C638 C 0.36641 0.12583 0.6914 0.0
C639 C 0.34973 0.1152 0.72112 0.0
C640 C 0.3366 0.11338 0.72833 0.0
C641 C 0.32859 0.11044 0.69956 0.0
C642 C 0.31619 0.10891 0.70653 0.0
C643 C 0.3117 0.11021 0.74222 0.0
C644 C 0.31961 0.113 0.77103 0.0
C645 C 0.33202 0.11456 0.76419 0.0
H646 H 0.30209 0.10902 0.74756 0.0
H647 H 0.42241 0.1287 0.69391 0.0
H648 H 0.8213 0.88001 0.1079 0.0
H649 H 0.83666 0.89303 0.13664 0.0
H650 H 0.84906 0.86273 0.20187 0.0
H651 H 0.83365 0.84977 0.17386 0.0
H652 H 0.84567 0.88166 0.24426 0.0
H653 H 0.8661 0.87424 0.13026 0.0
H654 H 0.86839 0.87353 0.06292 0.0
H655 H 0.86258 0.91207 0.05677 0.0
H656 H 0.8601 0.91299 0.12407 0.0
H657 H 0.90656 0.91868 0.2538 0.0
H658 H 0.893 0.90386 0.22551 0.0
H659 H 0.86243 0.92006 0.28137 0.0
H660 H 0.87605 0.9348 0.3105 0.0
H661 H 0.87547 0.90755 0.17852 0.0
H662 H 0.84027 0.89882 0.29374 0.0
H663 H 0.83936 0.89804 0.36142 0.0
H664 H 0.8773 0.88896 0.36572 0.0
H665 H 0.8784 0.88954 0.29809 0.0
C666 C 0.82746 0.87607 0.12784 0.0
C667 C 0.82624 0.86387 0.13864 0.0
C668 C 0.83623 0.88353 0.1443 0.0
C669 C 0.84401 0.87887 0.17152 0.0
C670 C 0.8431 0.86656 0.18118 0.0
C671 C 0.83432 0.85914 0.16495 0.0
C672 C 0.8527 0.88689 0.19129 0.0
C673 C 0.85219 0.88732 0.22985 0.0
C674 C 0.86131 0.89418 0.17263 0.0
C675 C 0.8628 0.89366 0.13217 0.0
C676 C 0.86522 0.88255 0.11452 0.0
C677 C 0.86656 0.88211 0.07636 0.0
C678 C 0.8656 0.89274 0.05557 0.0
C679 C 0.86331 0.90384 0.0729 0.0
C680 C 0.86194 0.90432 0.11106 0.0
C681 C 0.89698 0.91898 0.26057 0.0
C682 C 0.89238 0.92792 0.28444 0.0
C683 C 0.88922 0.91053 0.24417 0.0
C684 C 0.87668 0.91083 0.25119 0.0
C685 C 0.87209 0.91954 0.27583 0.0
C686 C 0.87988 0.92796 0.29251 0.0
C687 C 0.86843 0.90234 0.23148 0.0
C688 C 0.86896 0.90188 0.19293 0.0
C689 C 0.86002 0.89483 0.25019 0.0
C690 C 0.85943 0.89435 0.29087 0.0
C691 C 0.84841 0.89662 0.30914 0.0
C692 C 0.84786 0.89622 0.34748 0.0
C693 C 0.85828 0.89349 0.36786 0.0
C694 C 0.86925 0.89112 0.34992 0.0
C695 C 0.86984 0.8915 0.31158 0.0
H696 H 0.85783 0.89319 0.39754 0.0
H697 H 0.86665 0.89238 0.02603 0.0
H698 H 0.87384 0.07252 0.87584 0.0
H699 H 0.85965 0.08616 0.90699 0.0
H700 H 0.88939 0.11002 0.93522 0.0
H701 H 0.90364 0.09599 0.90602 0.0
H702 H 0.87703 0.10715 0.99215 0.0
H703 H 0.86586 0.11699 0.8689 0.0
H704 H 0.85944 0.11323 0.80501 0.0
H705 H 0.82635 0.09691 0.84346 0.0
H706 H 0.83264 0.10044 0.90763 0.0
H707 H 0.83886 0.15932 0.03235 0.0
H708 H 0.85296 0.14499 0.00339 0.0
H709 H 0.82789 0.11566 0.02398 0.0
H710 H 0.81388 0.12991 0.05412 0.0
H711 H 0.83721 0.12101 0.94398 0.0
H712 H 0.84955 0.11242 0.06911 0.0
H713 H 0.85652 0.11817 0.13109 0.0
H714 H 0.88837 0.1348 0.08498 0.0
H715 H 0.88149 0.1293 0.02264 0.0
C716 C 0.87729 0.08082 0.88797 0.0
C717 C 0.88982 0.08323 0.88844 0.0
C718 C 0.86916 0.08864 0.9058 0.0
C719 C 0.87338 0.09922 0.92343 0.0
C720 C 0.88587 0.1019 0.92216 0.0
C721 C 0.89401 0.09394 0.90519 0.0
C722 C 0.86499 0.10705 0.94528 0.0
C723 C 0.86841 0.11029 0.98123 0.0
C724 C 0.85359 0.11102 0.93164 0.0
C725 C 0.84978 0.10887 0.89308 0.0
C726 C 0.85726 0.11251 0.86374 0.0
C727 C 0.85364 0.11044 0.82748 0.0
C728 C 0.84251 0.10481 0.82018 0.0
C729 C 0.83497 0.10126 0.84915 0.0
C730 C 0.83855 0.1033 0.88547 0.0
C731 C 0.83648 0.14977 0.03148 0.0
C732 C 0.82531 0.14571 0.04561 0.0
C733 C 0.84452 0.14162 0.01484 0.0
C734 C 0.8414 0.12932 0.01143 0.0
C735 C 0.83042 0.12514 0.02641 0.0
C736 C 0.82249 0.13326 0.04386 0.0
C737 C 0.84935 0.12103 0.99026 0.0
C738 C 0.84584 0.11778 0.95457 0.0
C739 C 0.86077 0.11729 0.00374 0.0
C740 C 0.86494 0.12056 0.04119 0.0
C741 C 0.85798 0.11741 0.07216 0.0
C742 C 0.86192 0.1206 0.10736 0.0
C743 C 0.87286 0.12688 0.11196 0.0
C744 C 0.87989 0.12995 0.08137 0.0
C745 C 0.87597 0.12679 0.0461 0.0
H746 H 0.8759 0.12933 0.13924 0.0
H747 H 0.83972 0.10321 0.79209 0.0
H748 H 0.6837 0.13109 0.62724 0.0
H749 H 0.67002 0.11685 0.65795 0.0
H750 H 0.64563 0.14638 0.68395 0.0
H751 H 0.65967 0.16071 0.65513 0.0
H752 H 0.64842 0.13418 0.74153 0.0
H753 H 0.6393 0.1227 0.61802 0.0
H754 H 0.64345 0.11621 0.55442 0.0
H755 H 0.65989 0.08335 0.59418 0.0
H756 H 0.65598 0.08972 0.65807 0.0
H757 H 0.59644 0.0959 0.78085 0.0
H758 H 0.61093 0.11018 0.75346 0.0
H759 H 0.64 0.08459 0.77149 0.0
H760 H 0.6256 0.07038 0.80001 0.0
H761 H 0.63518 0.09415 0.69338 0.0
H762 H 0.64291 0.10659 0.81851 0.0
H763 H 0.63691 0.11356 0.88026 0.0
H764 H 0.62061 0.14548 0.83356 0.0
H765 H 0.62635 0.1386 0.77144 0.0
C766 C 0.67528 0.13448 0.63877 0.0
C767 C 0.67272 0.14699 0.63874 0.0
C768 C 0.66744 0.12633 0.65635 0.0
C769 C 0.6567 0.13048 0.67324 0.0
C770 C 0.65387 0.14292 0.67146 0.0
C771 C 0.66185 0.1511 0.6547 0.0
C772 C 0.64885 0.12207 0.69486 0.0
C773 C 0.64541 0.12551 0.73062 0.0
C774 C 0.64506 0.1106 0.68123 0.0
C775 C 0.64745 0.10675 0.64285 0.0
C776 C 0.64389 0.11414 0.61321 0.0
C777 C 0.64618 0.11047 0.57711 0.0
C778 C 0.65196 0.09939 0.57027 0.0
C779 C 0.65543 0.09194 0.59952 0.0
C780 C 0.65317 0.09557 0.63569 0.0
C781 C 0.60597 0.09345 0.77986 0.0
C782 C 0.60992 0.08206 0.79267 0.0
C783 C 0.61421 0.10159 0.76412 0.0
C784 C 0.62648 0.09838 0.76032 0.0
C785 C 0.63055 0.0872 0.77423 0.0
C786 C 0.62234 0.07916 0.79077 0.0
C787 C 0.63481 0.10637 0.73948 0.0
C788 C 0.63828 0.10283 0.70399 0.0
C789 C 0.63839 0.11785 0.75296 0.0
C790 C 0.63495 0.12201 0.79029 0.0
C791 C 0.63794 0.11503 0.82137 0.0
C792 C 0.63461 0.11898 0.85645 0.0
C793 C 0.62835 0.12994 0.86083 0.0
C794 C 0.62544 0.13699 0.83013 0.0
C795 C 0.62874 0.13307 0.79498 0.0
H796 H 0.62579 0.13299 0.88801 0.0
H797 H 0.65373 0.09657 0.5423 0.0
H798 H 0.59177 0.92372 0.435 0.0
H799 H 0.60482 0.90869 0.46425 0.0
H800 H 0.63214 0.91454 0.38109 0.0
H801 H 0.61919 0.92991 0.35201 0.0
H802 H 0.61454 0.88791 0.44694 0.0
H803 H 0.66019 0.91258 0.42033 0.0
H804 H 0.66781 0.93339 0.40978 0.0
H805 H 0.63723 0.94803 0.46829 0.0
H806 H 0.62953 0.92732 0.4796 0.0
H807 H 0.66424 0.84949 0.48699 0.0
H808 H 0.64921 0.86319 0.46083 0.0
H809 H 0.65651 0.8893 0.5465 0.0
H810 H 0.67195 0.87569 0.57233 0.0
H811 H 0.65619 0.90034 0.48328 0.0
H812 H 0.62949 0.87258 0.54312 0.0
H813 H 0.62102 0.85261 0.56019 0.0
H814 H 0.61213 0.84558 0.44734 0.0
H815 H 0.62069 0.86545 0.42951 0.0
C816 C 0.6005 0.92174 0.42259 0.0
C817 C 0.60448 0.9281 0.3913 0.0
C818 C 0.60795 0.9131 0.43938 0.0
C819 C 0.61955 0.91062 0.42529 0.0
C820 C 0.62331 0.91648 0.39288 0.0
C821 C 0.61587 0.92519 0.37611 0.0
C822 C 0.62782 0.90229 0.44555 0.0
C823 C 0.62366 0.89061 0.45477 0.0
C824 C 0.63961 0.90591 0.45675 0.0
C825 C 0.64423 0.9184 0.45043 0.0
C826 C 0.65512 0.92024 0.43103 0.0
C827 C 0.65945 0.93202 0.42492 0.0
C828 C 0.65299 0.94203 0.43825 0.0
C829 C 0.64221 0.94028 0.45785 0.0
C830 C 0.63785 0.92852 0.46409 0.0
C831 C 0.66255 0.85807 0.50069 0.0
C832 C 0.66931 0.86149 0.53182 0.0
C833 C 0.65389 0.86589 0.4857 0.0
C834 C 0.65162 0.87726 0.5018 0.0
C835 C 0.65811 0.88058 0.53354 0.0
C836 C 0.66687 0.87276 0.54844 0.0
C837 C 0.64298 0.88588 0.48424 0.0
C838 C 0.64707 0.89762 0.47545 0.0
C839 C 0.63101 0.88242 0.47433 0.0
C840 C 0.62582 0.87047 0.48495 0.0
C841 C 0.62581 0.86674 0.5219 0.0
C842 C 0.62098 0.85545 0.53172 0.0
C843 C 0.61607 0.84782 0.50485 0.0
C844 C 0.61595 0.8515 0.46812 0.0
C845 C 0.62077 0.86278 0.45815 0.0
H846 H 0.61234 0.83908 0.51251 0.0
H847 H 0.65634 0.95114 0.43345 0.0
H848 H 0.66285 0.66231 0.51066 0.0
H849 H 0.64771 0.64895 0.48299 0.0
H850 H 0.66327 0.6183 0.54005 0.0
H851 H 0.67831 0.63172 0.56858 0.0
H852 H 0.65114 0.63124 0.43662 0.0
H853 H 0.64169 0.59649 0.55258 0.0
H854 H 0.64078 0.59578 0.62026 0.0
H855 H 0.63231 0.63386 0.62351 0.0
H856 H 0.63301 0.63477 0.55586 0.0
H857 H 0.62289 0.5775 0.36616 0.0
H858 H 0.63612 0.59262 0.3952 0.0
H859 H 0.60592 0.60543 0.46018 0.0
H860 H 0.59277 0.59023 0.43194 0.0
H861 H 0.62473 0.602 0.50271 0.0
H862 H 0.6178 0.62224 0.38804 0.0
H863 H 0.61725 0.62432 0.32062 0.0
H864 H 0.65571 0.6179 0.31532 0.0
H865 H 0.65646 0.61562 0.38271 0.0
C866 C 0.66293 0.65276 0.51786 0.0
C867 C 0.67178 0.64807 0.54185 0.0
C868 C 0.6543 0.64512 0.50182 0.0
C869 C 0.65434 0.6326 0.5093 0.0
C870 C 0.66295 0.62794 0.53416 0.0
C871 C 0.67154 0.63562 0.5505 0.0
C872 C 0.64574 0.62443 0.48969 0.0
C873 C 0.64536 0.62486 0.45112 0.0
C874 C 0.63808 0.61618 0.50849 0.0
C875 C 0.63753 0.61571 0.54917 0.0
C876 C 0.63959 0.6047 0.56775 0.0
C877 C 0.63912 0.60426 0.6061 0.0
C878 C 0.63653 0.61477 0.62618 0.0
C879 C 0.63437 0.62574 0.60793 0.0
C880 C 0.63482 0.62622 0.56959 0.0
C881 C 0.61903 0.58369 0.38615 0.0
C882 C 0.60678 0.58266 0.39677 0.0
C883 C 0.6266 0.59232 0.40277 0.0
C884 C 0.62203 0.60018 0.42994 0.0
C885 C 0.60969 0.59943 0.43952 0.0
C886 C 0.60216 0.59077 0.42316 0.0
C887 C 0.63014 0.6088 0.44965 0.0
C888 C 0.63049 0.6084 0.48823 0.0
C889 C 0.63758 0.61726 0.43089 0.0
C890 C 0.63716 0.61864 0.39038 0.0
C891 C 0.62612 0.62117 0.37247 0.0
C892 C 0.62578 0.62241 0.33427 0.0
C893 C 0.63643 0.62121 0.31369 0.0
C894 C 0.64746 0.61881 0.33129 0.0
C895 C 0.64786 0.61756 0.36949 0.0
H896 H 0.63615 0.62217 0.28412 0.0
H897 H 0.63618 0.61442 0.65586 0.0
H898 H 0.62225 0.43003 0.82471 0.0
H899 H 0.63575 0.41515 0.79561 0.0
H900 H 0.6071 0.4052 0.72048 0.0
H901 H 0.59353 0.41972 0.74992 0.0
H902 H 0.61914 0.38581 0.73805 0.0
H903 H 0.62953 0.42566 0.69617 0.0
H904 H 0.63543 0.44719 0.70239 0.0
H905 H 0.66856 0.43663 0.75595 0.0
H906 H 0.66278 0.41503 0.75049 0.0
H907 H 0.67453 0.37629 0.60247 0.0
H908 H 0.65871 0.38914 0.62979 0.0
H909 H 0.65536 0.36397 0.72011 0.0
H910 H 0.67073 0.35098 0.69252 0.0
H911 H 0.65854 0.40122 0.69082 0.0
H912 H 0.62759 0.36431 0.75701 0.0
H913 H 0.62045 0.34351 0.7437 0.0
H914 H 0.62622 0.34939 0.62842 0.0
H915 H 0.63325 0.37027 0.64098 0.0
C916 C 0.61876 0.42449 0.80248 0.0
C917 C 0.60684 0.42613 0.78949 0.0
C918 C 0.62652 0.41607 0.78566 0.0
C919 C 0.62252 0.40923 0.75531 0.0
C920 C 0.61042 0.41039 0.7437 0.0
C921 C 0.60266 0.41872 0.7606 0.0
C922 C 0.63103 0.40131 0.73443 0.0
C923 C 0.62777 0.38917 0.72785 0.0
C924 C 0.64214 0.40577 0.72004 0.0
C925 C 0.64567 0.41874 0.72325 0.0
C926 C 0.63804 0.42794 0.70951 0.0
C927 C 0.64136 0.44015 0.71287 0.0
C928 C 0.65235 0.44328 0.72964 0.0
C929 C 0.66005 0.4342 0.74301 0.0
C930 C 0.65676 0.42197 0.73978 0.0
C931 C 0.67025 0.37341 0.6278 0.0
C932 C 0.67385 0.36258 0.64519 0.0
C933 C 0.66127 0.38079 0.64351 0.0
C934 C 0.65574 0.37749 0.6769 0.0
C935 C 0.65926 0.36661 0.69399 0.0
C936 C 0.66811 0.35919 0.67817 0.0
C937 C 0.64674 0.38564 0.69495 0.0
C938 C 0.64991 0.39784 0.70103 0.0
C939 C 0.63538 0.38133 0.70788 0.0
C940 C 0.63105 0.36882 0.70001 0.0
C941 C 0.62729 0.36118 0.72881 0.0
C942 C 0.62327 0.34938 0.7214 0.0
C943 C 0.62292 0.34512 0.68525 0.0
C944 C 0.62655 0.35268 0.65642 0.0
C945 C 0.63056 0.36449 0.66368 0.0
H946 H 0.61981 0.33598 0.67957 0.0
H947 H 0.65491 0.45274 0.73221 0.0
H948 H 0.90307 0.415 0.90339 0.0
H949 H 0.88843 0.40113 0.93176 0.0
H950 H 0.85907 0.42491 0.90038 0.0
H951 H 0.87367 0.43875 0.87112 0.0
H952 H 0.86065 0.41825 0.97888 0.0
H953 H 0.85976 0.40008 0.85859 0.0
H954 H 0.86889 0.39118 0.8029 0.0
H955 H 0.88511 0.36289 0.8677 0.0
H956 H 0.87622 0.37173 0.92388 0.0
H957 H 0.81322 0.37941 0.04311 0.0
H958 H 0.82667 0.39364 0.01143 0.0
H959 H 0.85458 0.36608 0.00653 0.0
H960 H 0.84084 0.35164 0.03615 0.0
H961 H 0.85306 0.37536 0.94386 0.0
H962 H 0.85573 0.39305 0.06376 0.0
H963 H 0.84817 0.40179 0.12181 0.0
H964 H 0.83067 0.43057 0.06219 0.0
H965 H 0.83801 0.42192 0.00373 0.0
C966 C 0.89347 0.41715 0.90181 0.0
C967 C 0.8895 0.42794 0.88497 0.0
C968 C 0.88513 0.40923 0.91808 0.0
C969 C 0.8727 0.41204 0.91827 0.0
C970 C 0.86864 0.42261 0.9005 0.0
C971 C 0.87697 0.43044 0.88356 0.0
C972 C 0.86411 0.40425 0.93897 0.0
C973 C 0.85879 0.40892 0.97101 0.0
C974 C 0.8621 0.39199 0.92927 0.0
C975 C 0.86741 0.38663 0.89549 0.0
C976 C 0.86536 0.39202 0.86101 0.0
C977 C 0.87048 0.38698 0.82934 0.0
C978 C 0.8776 0.37649 0.83177 0.0
C979 C 0.8796 0.37102 0.86586 0.0
C980 C 0.87451 0.37603 0.89762 0.0
C981 C 0.82233 0.3765 0.03602 0.0
C982 C 0.82602 0.36445 0.04218 0.0
C983 C 0.83004 0.38465 0.01789 0.0
C984 C 0.84173 0.38101 0.00665 0.0
C985 C 0.8456 0.36912 0.01459 0.0
C986 C 0.83779 0.36089 0.03182 0.0
C987 C 0.84961 0.38924 0.98445 0.0
C988 C 0.85483 0.38468 0.95197 0.0
C989 C 0.85174 0.40154 0.99423 0.0
C990 C 0.84732 0.40676 0.02934 0.0
C991 C 0.85019 0.40119 0.06301 0.0
C992 C 0.84596 0.40614 0.09599 0.0
C993 C 0.83892 0.41671 0.09568 0.0
C994 C 0.83612 0.42237 0.06239 0.0
C995 C 0.84032 0.41746 0.02932 0.0
H996 H 0.83565 0.42052 0.12124 0.0
H997 H 0.88155 0.3726 0.80722 0.0
H998 H 0.83606 0.66416 0.16839 0.0
H999 H 0.85119 0.65053 0.19486 0.0
H1000 H 0.83522 0.62032 0.13671 0.0
H1001 H 0.82014 0.634 0.10949 0.0
H1002 H 0.84735 0.63255 0.24054 0.0
H1003 H 0.85681 0.59847 0.1227 0.0
H1004 H 0.85787 0.5982 0.05502 0.0
H1005 H 0.86658 0.63624 0.05425 0.0
H1006 H 0.86573 0.6367 0.12191 0.0
H1007 H 0.87528 0.57838 0.30902 0.0
H1008 H 0.86206 0.5935 0.27996 0.0
H1009 H 0.89242 0.60673 0.21644 0.0
H1010 H 0.90556 0.59153 0.2447 0.0
H1011 H 0.87368 0.60352 0.17327 0.0
H1012 H 0.88048 0.62304 0.28925 0.0
H1013 H 0.88089 0.62468 0.3568 0.0
H1014 H 0.84239 0.61837 0.36092 0.0
H1015 H 0.84178 0.61653 0.2934 0.0
C1016 C 0.83589 0.65465 0.16065 0.0
C1017 C 0.82689 0.65016 0.13686 0.0
C1018 C 0.84452 0.64686 0.17601 0.0
C1019 C 0.84433 0.63439 0.16795 0.0
C1020 C 0.83563 0.62993 0.14307 0.0
C1021 C 0.82702 0.63776 0.12747 0.0
C1022 C 0.85283 0.62603 0.1872 0.0
C1023 C 0.85311 0.62621 0.22579 0.0
C1024 C 0.86045 0.61783 0.16806 0.0
C1025 C 0.86108 0.61764 0.12736 0.0
C1026 C 0.85899 0.60677 0.10808 0.0
C1027 C 0.85955 0.60658 0.06972 0.0
C1028 C 0.86225 0.6172 0.05034 0.0
C1029 C 0.86444 0.62803 0.06928 0.0
C1030 C 0.8639 0.62826 0.10764 0.0
C1031 C 0.87916 0.58464 0.28929 0.0
C1032 C 0.89146 0.58375 0.27914 0.0
C1033 C 0.8716 0.59328 0.27267 0.0
C1034 C 0.87624 0.60127 0.24597 0.0
C1035 C 0.8886 0.60061 0.23673 0.0
C1036 C 0.89613 0.59195 0.2531 0.0
C1037 C 0.86819 0.61003 0.2266 0.0
C1038 C 0.86792 0.60987 0.188 0.0
C1039 C 0.86078 0.61842 0.24571 0.0
C1040 C 0.86111 0.61953 0.2863 0.0
C1041 C 0.87212 0.62191 0.30459 0.0
C1042 C 0.87238 0.62289 0.34286 0.0
C1043 C 0.86168 0.6216 0.36314 0.0
C1044 C 0.85068 0.61935 0.34518 0.0
C1045 C 0.85037 0.61835 0.30691 0.0
H1046 H 0.8619 0.62236 0.39277 0.0
H1047 H 0.86267 0.61704 0.02064 0.0
H1048 H 0.33864 0.35127 0.67527 0.0
H1049 H 0.3523 0.36583 0.70434 0.0
H1050 H 0.33454 0.39519 0.64703 0.0
H1051 H 0.32093 0.38057 0.61711 0.0
H1052 H 0.35836 0.39943 0.65189 0.0
H1053 H 0.32679 0.38879 0.73473 0.0
H1054 H 0.31329 0.3751 0.76951 0.0
H1055 H 0.34406 0.36036 0.82681 0.0
H1056 H 0.35778 0.37384 0.79194 0.0
H1057 H 0.37687 0.43604 0.82536 0.0
H1058 H 0.36238 0.42226 0.79556 0.0
H1059 H 0.39153 0.40659 0.73205 0.0
H1060 H 0.40599 0.42028 0.76139 0.0
H1061 H 0.35972 0.39774 0.78814 0.0
H1062 H 0.38166 0.40335 0.64306 0.0
H1063 H 0.39333 0.4188 0.60886 0.0
H1064 H 0.37851 0.4469 0.67733 0.0
H1065 H 0.36649 0.43169 0.71121 0.0
C1066 C 0.33777 0.3608 0.6683 0.0
C1067 C 0.32863 0.36478 0.64412 0.0
C1068 C 0.34554 0.36913 0.68515 0.0
C1069 C 0.34424 0.38163 0.67861 0.0
C1070 C 0.33564 0.38559 0.6527 0.0
C1071 C 0.32789 0.37722 0.63554 0.0
C1072 C 0.35147 0.39051 0.70024 0.0
C1073 C 0.35867 0.39905 0.68164 0.0
C1074 C 0.35155 0.39031 0.73918 0.0
C1075 C 0.34333 0.38226 0.76049 0.0
C1076 C 0.33069 0.38257 0.75457 0.0
C1077 C 0.323 0.37486 0.77432 0.0
C1078 C 0.32782 0.36685 0.8003 0.0
C1079 C 0.34034 0.36656 0.80665 0.0
C1080 C 0.34808 0.37425 0.78692 0.0
C1081 C 0.38022 0.42949 0.80561 0.0
C1082 C 0.39256 0.42933 0.79552 0.0
C1083 C 0.37193 0.42165 0.78854 0.0
C1084 C 0.37585 0.41359 0.76104 0.0
C1085 C 0.38827 0.41291 0.75267 0.0
C1086 C 0.39654 0.4207 0.76966 0.0
C1087 C 0.36698 0.40628 0.73971 0.0
C1088 C 0.35942 0.3981 0.75838 0.0
C1089 C 0.3663 0.40707 0.7009 0.0
C1090 C 0.37327 0.41634 0.67996 0.0
C1091 C 0.38082 0.41283 0.65064 0.0
C1092 C 0.38749 0.42156 0.63128 0.0
C1093 C 0.38667 0.43382 0.64093 0.0
C1094 C 0.37913 0.4374 0.66986 0.0
C1095 C 0.37239 0.42873 0.68915 0.0
H1096 H 0.39187 0.44056 0.62599 0.0
H1097 H 0.32184 0.36088 0.81556 0.0
H1098 H 0.31466 0.63024 0.5461 0.0
H1099 H 0.32868 0.61622 0.51593 0.0
H1100 H 0.35561 0.64471 0.5093 0.0
H1101 H 0.34123 0.65893 0.53717 0.0
H1102 H 0.35492 0.63493 0.44792 0.0
H1103 H 0.3576 0.61796 0.56832 0.0
H1104 H 0.35024 0.60941 0.62686 0.0
H1105 H 0.33343 0.57986 0.56893 0.0
H1106 H 0.34056 0.58831 0.50998 0.0
H1107 H 0.40487 0.59394 0.41008 0.0
H1108 H 0.39065 0.60824 0.43865 0.0
H1109 H 0.3605 0.58617 0.40301 0.0
H1110 H 0.37467 0.57198 0.3734 0.0
H1111 H 0.36285 0.59224 0.48445 0.0
H1112 H 0.36165 0.61031 0.3633 0.0
H1113 H 0.37089 0.61912 0.30765 0.0
H1114 H 0.38749 0.64715 0.37259 0.0
H1115 H 0.37849 0.63839 0.42874 0.0
C1116 C 0.32368 0.63341 0.539 0.0
C1117 C 0.3269 0.64564 0.54411 0.0
C1118 C 0.33173 0.62537 0.52175 0.0
C1119 C 0.34332 0.62932 0.51043 0.0
C1120 C 0.34673 0.64142 0.51743 0.0
C1121 C 0.33855 0.64952 0.53368 0.0
C1122 C 0.35152 0.62116 0.48896 0.0
C1123 C 0.35677 0.62566 0.45642 0.0
C1124 C 0.35382 0.60895 0.49929 0.0
C1125 C 0.34951 0.60384 0.5347 0.0
C1126 C 0.35225 0.60969 0.56804 0.0
C1127 C 0.34814 0.60485 0.6013 0.0
C1128 C 0.34134 0.59412 0.60161 0.0
C1129 C 0.33868 0.58818 0.56865 0.0
C1130 C 0.34277 0.59298 0.53531 0.0
C1131 C 0.3952 0.59229 0.40757 0.0
C1132 C 0.39087 0.58188 0.38941 0.0
C1133 C 0.3871 0.60044 0.42399 0.0
C1134 C 0.37456 0.59819 0.42308 0.0
C1135 C 0.37017 0.58802 0.40398 0.0
C1136 C 0.37826 0.58 0.38684 0.0
C1137 C 0.36616 0.6061 0.44401 0.0
C1138 C 0.36093 0.60153 0.47631 0.0
C1139 C 0.36412 0.61832 0.43402 0.0
C1140 C 0.36949 0.62362 0.40026 0.0
C1141 C 0.36736 0.61828 0.36577 0.0
C1142 C 0.37254 0.62328 0.33412 0.0
C1143 C 0.3798 0.63367 0.33659 0.0
C1144 C 0.38188 0.6391 0.37072 0.0
C1145 C 0.37673 0.63412 0.40246 0.0
H1146 H 0.3838 0.63753 0.31206 0.0
H1147 H 0.33817 0.59039 0.62739 0.0
H1148 H 0.12119 0.58123 0.32403 0.0
H1149 H 0.13511 0.5965 0.29879 0.0
H1150 H 0.10714 0.60849 0.22404 0.0
H1151 H 0.09318 0.59352 0.24948 0.0
H1152 H 0.14396 0.59816 0.23159 0.0
H1153 H 0.11056 0.63809 0.2032 0.0
H1154 H 0.09234 0.64735 0.23108 0.0
H1155 H 0.10271 0.63343 0.3367 0.0
H1156 H 0.12107 0.62422 0.30958 0.0
H1157 H 0.1723 0.63794 0.10504 0.0
H1158 H 0.15708 0.62488 0.13443 0.0
H1159 H 0.15552 0.64943 0.22676 0.0
H1160 H 0.17028 0.66266 0.19713 0.0
H1161 H 0.13398 0.64176 0.21416 0.0
H1162 H 0.17292 0.62257 0.22738 0.0
H1163 H 0.19232 0.61382 0.20603 0.0
H1164 H 0.17292 0.58718 0.14285 0.0
H1165 H 0.1534 0.59587 0.16348 0.0
C1166 C 0.11794 0.58728 0.30272 0.0
C1167 C 0.10607 0.58616 0.28882 0.0
C1168 C 0.12593 0.59595 0.28814 0.0
C1169 C 0.12217 0.60368 0.25958 0.0
C1170 C 0.11022 0.60277 0.2464 0.0
C1171 C 0.10224 0.59416 0.26096 0.0
C1172 C 0.13085 0.61229 0.24213 0.0
C1173 C 0.14179 0.6077 0.2279 0.0
C1174 C 0.12811 0.62477 0.23762 0.0
C1175 C 0.11713 0.63037 0.25425 0.0
C1176 C 0.10898 0.63704 0.2324 0.0
C1177 C 0.09862 0.64227 0.24807 0.0
C1178 C 0.09635 0.64095 0.28561 0.0
C1179 C 0.10445 0.63441 0.3076 0.0
C1180 C 0.11482 0.62917 0.29208 0.0
C1181 C 0.16856 0.64064 0.13133 0.0
C1182 C 0.17255 0.65131 0.14879 0.0
C1183 C 0.15994 0.63312 0.14826 0.0
C1184 C 0.15532 0.63603 0.18322 0.0
C1185 C 0.15894 0.64694 0.19988 0.0
C1186 C 0.16742 0.65451 0.18285 0.0
C1187 C 0.14704 0.62761 0.20322 0.0
C1188 C 0.13616 0.63222 0.21784 0.0
C1189 C 0.14999 0.61522 0.20898 0.0
C1190 C 0.16171 0.60994 0.19669 0.0
C1191 C 0.1728 0.61489 0.20875 0.0
C1192 C 0.18381 0.60994 0.1968 0.0
C1193 C 0.18385 0.59997 0.17302 0.0
C1194 C 0.17288 0.59491 0.16122 0.0
C1195 C 0.16183 0.59984 0.17305 0.0
H1196 H 0.19239 0.59615 0.1638 0.0
H1197 H 0.08832 0.645 0.29768 0.0
H1198 H 0.11968 0.42929 0.84884 0.0
H1199 H 0.1332 0.41349 0.87325 0.0
H1200 H 0.11013 0.40993 0.96851 0.0
H1201 H 0.09646 0.42523 0.94381 0.0
H1202 H 0.14673 0.41288 0.93107 0.0
H1203 H 0.11085 0.38228 0.00456 0.0
H1204 H 0.08982 0.37522 0.99482 0.0
H1205 H 0.09354 0.38101 0.87874 0.0
H1206 H 0.11465 0.38794 0.8877 0.0
H1207 H 0.17639 0.37748 0.06575 0.0
H1208 H 0.16177 0.39091 0.03519 0.0
H1209 H 0.1511 0.36154 0.9636 0.0
H1210 H 0.16545 0.34807 0.99428 0.0
H1211 H 0.13187 0.37386 0.98265 0.0
H1212 H 0.17077 0.38323 0.93375 0.0
H1213 H 0.19249 0.38874 0.93476 0.0
H1214 H 0.18381 0.42269 0.98668 0.0
H1215 H 0.16203 0.41731 0.98639 0.0
C1216 C 0.11741 0.42497 0.87467 0.0
C1217 C 0.10695 0.42846 0.89422 0.0
C1218 C 0.12517 0.416 0.88871 0.0
C1219 C 0.12264 0.4104 0.92258 0.0
C1220 C 0.11217 0.41387 0.94195 0.0
C1221 C 0.10436 0.42268 0.92779 0.0
C1222 C 0.13112 0.4013 0.93869 0.0
C1223 C 0.14347 0.40433 0.94222 0.0
C1224 C 0.12697 0.39 0.95257 0.0
C1225 C 0.11431 0.38573 0.94688 0.0
C1226 C 0.1072 0.38199 0.97694 0.0
C1227 C 0.09526 0.37802 0.97155 0.0
C1228 C 0.09033 0.3777 0.9362 0.0
C1229 C 0.09735 0.38131 0.90613 0.0
C1230 C 0.1093 0.38527 0.91135 0.0
C1231 C 0.17078 0.37384 0.04391 0.0
C1232 C 0.17212 0.36172 0.03236 0.0
C1233 C 0.16251 0.38155 0.02625 0.0
C1234 C 0.15549 0.37729 0.99666 0.0
C1235 C 0.15644 0.36505 0.98625 0.0
C1236 C 0.16467 0.35736 0.00385 0.0
C1237 C 0.14737 0.3856 0.97585 0.0
C1238 C 0.13511 0.38241 0.97145 0.0
C1239 C 0.15169 0.39654 0.96001 0.0
C1240 C 0.16478 0.39981 0.96038 0.0
C1241 C 0.1735 0.39182 0.94566 0.0
C1242 C 0.18582 0.39493 0.94604 0.0
C1243 C 0.18953 0.40604 0.96086 0.0
C1244 C 0.18092 0.41408 0.97526 0.0
C1245 C 0.16858 0.41101 0.97496 0.0
H1246 H 0.19908 0.40843 0.9611 0.0
H1247 H 0.08109 0.37463 0.93209 0.0
H1248 H 0.24452 0.15933 0.99232 0.0
H1249 H 0.2533 0.15724 0.9308 0.0
H1250 H 0.21871 0.16653 0.88256 0.0
H1251 H 0.20984 0.16842 0.94357 0.0
H1252 H 0.2288 0.14819 0.84594 0.0
H1253 H 0.24157 0.18744 0.88886 0.0
H1254 H 0.25106 0.20198 0.93173 0.0
H1255 H 0.28531 0.18364 0.92027 0.0
H1256 H 0.27598 0.16889 0.87769 0.0
H1257 H 0.25073 0.16537 0.66645 0.0
H1258 H 0.24097 0.16414 0.72696 0.0
H1259 H 0.27519 0.15381 0.77561 0.0
H1260 H 0.28498 0.15509 0.71584 0.0
H1261 H 0.26511 0.17241 0.81182 0.0
H1262 H 0.25216 0.13343 0.76675 0.0
H1263 H 0.24244 0.11929 0.72319 0.0
H1264 H 0.20828 0.13758 0.7376 0.0
H1265 H 0.21785 0.15195 0.78088 0.0
C1266 C 0.23878 0.1609 0.96861 0.0
C1267 C 0.22649 0.16411 0.97296 0.0
C1268 C 0.24381 0.15973 0.93347 0.0
C1269 C 0.23668 0.16185 0.90205 0.0
C1270 C 0.22438 0.16484 0.90635 0.0
C1271 C 0.21934 0.16597 0.94136 0.0
C1272 C 0.24205 0.16123 0.86464 0.0
C1273 C 0.23667 0.15358 0.83835 0.0
C1274 C 0.25241 0.16812 0.85485 0.0
C1275 C 0.25805 0.17699 0.8804 0.0
C1276 C 0.2511 0.18645 0.89571 0.0
C1277 C 0.25645 0.19474 0.91992 0.0
C1278 C 0.26877 0.19371 0.9288 0.0
C1279 C 0.27577 0.18441 0.91342 0.0
C1280 C 0.27045 0.17609 0.88923 0.0
C1281 C 0.25612 0.16264 0.68995 0.0
C1282 C 0.26865 0.16044 0.68632 0.0
C1283 C 0.25053 0.16193 0.72451 0.0
C1284 C 0.25737 0.15892 0.75584 0.0
C1285 C 0.26976 0.15624 0.7519 0.0
C1286 C 0.27533 0.15696 0.7176 0.0
C1287 C 0.25194 0.1593 0.79316 0.0
C1288 C 0.25728 0.16697 0.81942 0.0
C1289 C 0.24152 0.15247 0.80278 0.0
C1290 C 0.23575 0.14384 0.77676 0.0
C1291 C 0.2426 0.13451 0.76038 0.0
C1292 C 0.23711 0.12644 0.73579 0.0
C1293 C 0.22476 0.12756 0.72755 0.0
C1294 C 0.21786 0.13674 0.74396 0.0
C1295 C 0.2233 0.14484 0.76855 0.0
H1296 H 0.22053 0.1213 0.70852 0.0
H1297 H 0.2729 0.20014 0.94754 0.0
H1298 H 0.09364 0.96844 0.21083 0.0
H1299 H 0.09636 0.9785 0.15201 0.0
H1300 H 0.09938 0.01313 0.20678 0.0
H1301 H 0.09644 0.00309 0.26633 0.0
H1302 H 0.08372 0.01401 0.14976 0.0
H1303 H 0.12432 0.99966 0.16796 0.0
H1304 H 0.14003 0.98443 0.18271 0.0
H1305 H 0.12905 0.96296 0.09002 0.0
H1306 H 0.11315 0.97797 0.07499 0.0
H1307 H 0.09671 0.04462 0.985 0.0
H1308 H 0.09929 0.03623 0.04646 0.0
H1309 H 0.09694 -0.0001 0.00241 0.0
H1310 H 0.09464 0.00826 0.94039 0.0
H1311 H 0.11377 0.00105 0.05591 0.0
H1312 H 0.07219 0.01367 0.0415 0.0
H1313 H 0.05563 0.028 0.02706 0.0
H1314 H 0.06781 0.05184 0.11288 0.0
H1315 H 0.08454 0.03771 0.12751 0.0
C1316 C 0.09497 0.97819 0.2106 0.0
C1317 C 0.09479 0.98497 0.2434 0.0
C1318 C 0.09661 0.98392 0.17683 0.0
C1319 C 0.09824 0.99654 0.17499 0.0
C1320 C 0.0982 0.00336 0.20764 0.0
C1321 C 0.09655 0.99761 0.24161 0.0
C1322 C 0.09919 0.00259 0.13868 0.0
C1323 C 0.09047 0.01138 0.12952 0.0
C1324 C 0.10776 0.99886 0.11191 0.0
C1325 C 0.11748 0.98992 0.12047 0.0
C1326 C 0.1252 0.99166 0.15082 0.0
C1327 C 0.13415 0.98307 0.15923 0.0
C1328 C 0.13552 0.97273 0.13734 0.0
C1329 C 0.12797 0.97098 0.10694 0.0
C1330 C 0.11901 0.97953 0.09843 0.0
C1331 C 0.09682 0.03483 0.98826 0.0
C1332 C 0.09532 0.0271 0.95782 0.0
C1333 C 0.09828 0.03005 0.02348 0.0
C1334 C 0.09807 0.01744 0.02915 0.0
C1335 C 0.09708 0.00967 0.99868 0.0
C1336 C 0.09574 0.01445 0.96327 0.0
C1337 C 0.09827 0.01242 0.06701 0.0
C1338 C 0.10715 0.0038 0.07637 0.0
C1339 C 0.08978 0.01622 0.09396 0.0
C1340 C 0.07969 0.0247 0.08533 0.0
C1341 C 0.07139 0.02201 0.05711 0.0
C1342 C 0.06196 0.03009 0.04892 0.0
C1343 C 0.06069 0.04084 0.06897 0.0
C1344 C 0.06882 0.04352 0.09733 0.0
C1345 C 0.07827 0.03548 0.1056 0.0
H1346 H 0.05338 0.04709 0.06259 0.0
H1347 H 0.14245 0.96609 0.14391 0.0
H1348 H 0.25121 0.85074 0.16924 0.0
H1349 H 0.26138 0.85212 0.22904 0.0
H1350 H 0.22679 0.85832 0.28165 0.0
H1351 H 0.21662 0.85712 0.22236 0.0
H1352 H 0.24429 0.87228 0.31207 0.0
H1353 H 0.23884 0.83017 0.27908 0.0
H1354 H 0.24098 0.81212 0.23942 0.0
H1355 H 0.27986 0.81498 0.24566 0.0
H1356 H 0.27794 0.83315 0.28499 0.0
H1357 H 0.25653 0.85263 0.49544 0.0
H1358 H 0.24836 0.8554 0.43338 0.0
H1359 H 0.28383 0.84833 0.38763 0.0
H1360 H 0.29201 0.84541 0.44913 0.0
H1361 H 0.26688 0.83562 0.3525 0.0
H1362 H 0.27213 0.87709 0.38982 0.0
H1363 H 0.26966 0.89492 0.43017 0.0
H1364 H 0.23092 0.89315 0.41671 0.0
H1365 H 0.23315 0.87519 0.37667 0.0
C1366 C 0.2458 0.8526 0.19347 0.0
C1367 C 0.23309 0.85368 0.19105 0.0
C1368 C 0.25161 0.85333 0.22763 0.0
C1369 C 0.24481 0.85515 0.25985 0.0
C1370 C 0.23222 0.85688 0.25719 0.0
C1371 C 0.22642 0.85613 0.22321 0.0
C1372 C 0.25057 0.85446 0.29664 0.0
C1373 C 0.24917 0.86425 0.32103 0.0
C1374 C 0.25708 0.84404 0.30814 0.0
C1375 C 0.25825 0.8331 0.2846 0.0
C1376 C 0.24785 0.827 0.27175 0.0
C1377 C 0.24902 0.81674 0.24937 0.0
C1378 C 0.26055 0.81243 0.23993 0.0
C1379 C 0.27093 0.81835 0.25293 0.0
C1380 C 0.26981 0.82862 0.27528 0.0
C1381 C 0.26259 0.85172 0.47217 0.0
C1382 C 0.27491 0.84876 0.47732 0.0
C1383 C 0.25793 0.85336 0.43672 0.0
C1384 C 0.26551 0.85216 0.40586 0.0
C1385 C 0.27781 0.84929 0.411 0.0
C1386 C 0.28247 0.84763 0.44628 0.0
C1387 C 0.26061 0.85345 0.36806 0.0
C1388 C 0.26212 0.84373 0.3435 0.0
C1389 C 0.25417 0.86391 0.35652 0.0
C1390 C 0.25281 0.87473 0.38052 0.0
C1391 C 0.26308 0.88044 0.3957 0.0
C1392 C 0.26172 0.89058 0.41847 0.0
C1393 C 0.25014 0.89515 0.42608 0.0
C1394 C 0.23989 0.88959 0.41084 0.0
C1395 C 0.24119 0.87944 0.38807 0.0
H1396 H 0.24911 0.903 0.44371 0.0
H1397 H 0.26144 0.80448 0.22261 0.0
H1398 H 0.40567 0.04027 0.70611 0.0
H1399 H 0.40261 0.03019 0.64757 0.0
H1400 H 0.39794 0.99587 0.70314 0.0
H1401 H 0.40129 0.00593 0.76248 0.0
H1402 H 0.4132 0.99375 0.64643 0.0
H1403 H 0.3736 0.01056 0.66284 0.0
H1404 H 0.35854 0.02652 0.67662 0.0
H1405 H 0.37109 0.04739 0.58446 0.0
H1406 H 0.38635 0.03164 0.57041 0.0
H1407 H 0.39951 0.96478 0.47885 0.0
H1408 H 0.39684 0.97288 0.54065 0.0
H1409 H 0.40211 0.00927 0.49941 0.0
H1410 H 0.4045 0.00122 0.43704 0.0
H1411 H 0.38464 0.00878 0.55119 0.0
H1412 H 0.42554 0.99333 0.53941 0.0
H1413 H 0.44097 0.97772 0.52556 0.0
H1414 H 0.4261 0.95461 0.60934 0.0
H1415 H 0.41048 0.97003 0.62336 0.0
C1416 C 0.4039 0.03058 0.70614 0.0
C1417 C 0.40374 0.02391 0.73913 0.0
C1418 C 0.40206 0.02484 0.6725 0.0
C1419 C 0.39985 0.0123 0.67092 0.0
C1420 C 0.39956 0.00558 0.70376 0.0
C1421 C 0.40145 0.01134 0.73762 0.0
C1422 C 0.39862 0.00623 0.63469 0.0
C1423 C 0.40676 0.99685 0.6259 0.0
C1424 C 0.39042 0.01048 0.60754 0.0
C1425 C 0.38118 0.01994 0.61571 0.0
C1426 C 0.3732 0.01859 0.64564 0.0
C1427 C 0.36462 0.02759 0.65348 0.0
C1428 C 0.36387 0.03797 0.63147 0.0
C1429 C 0.37168 0.03934 0.6015 0.0
C1430 C 0.38029 0.03037 0.59354 0.0
C1431 C 0.40003 0.97452 0.48283 0.0
C1432 C 0.40238 0.98236 0.45311 0.0
C1433 C 0.39851 0.97913 0.51822 0.0
C1434 C 0.39954 0.99166 0.52479 0.0
C1435 C 0.40135 0.99956 0.49497 0.0
C1436 C 0.40273 0.99496 0.45938 0.0
C1437 C 0.39931 0.99644 0.56292 0.0
C1438 C 0.39093 0.00557 0.57197 0.0
C1439 C 0.40731 0.992 0.59032 0.0
C1440 C 0.41677 0.98278 0.58217 0.0
C1441 C 0.42551 0.98488 0.55471 0.0
C1442 C 0.4343 0.97608 0.54685 0.0
C1443 C 0.43449 0.96516 0.56649 0.0
C1444 C 0.42593 0.96306 0.59411 0.0
C1445 C 0.41711 0.97183 0.60205 0.0
H1446 H 0.4413 0.95835 0.56036 0.0
H1447 H 0.35722 0.04493 0.63759 0.0
H1448 H 0.78558 0.85935 0.21922 0.0
H1449 H 0.77684 0.86187 0.28025 0.0
H1450 H 0.74129 0.85339 0.23729 0.0
H1451 H 0.74997 0.85112 0.17561 0.0
H1452 H 0.7401 0.87113 0.28898 0.0
H1453 H 0.75862 0.83153 0.27846 0.0
H1454 H 0.77534 0.81723 0.2654 0.0
H1455 H 0.79704 0.83387 0.34956 0.0
H1456 H 0.7805 0.84838 0.36279 0.0
H1457 H 0.71039 0.84863 0.44593 0.0
H1458 H 0.72003 0.85208 0.38683 0.0
H1459 H 0.75408 0.85962 0.44102 0.0
H1460 H 0.74449 0.85592 0.50083 0.0
H1461 H 0.7571 0.84412 0.38536 0.0
H1462 H 0.73752 0.8825 0.40007 0.0
H1463 H 0.72054 0.89646 0.41327 0.0
H1464 H 0.70057 0.88198 0.32187 0.0
H1465 H 0.71736 0.86781 0.3084 0.0
C1466 C 0.77587 0.85814 0.2226 0.0
C1467 C 0.76848 0.85487 0.19265 0.0
C1468 C 0.7709 0.85957 0.25756 0.0
C1469 C 0.75846 0.85755 0.26348 0.0
C1470 C 0.75093 0.85492 0.23334 0.0
C1471 C 0.7559 0.85362 0.19814 0.0
C1472 C 0.7535 0.85747 0.30138 0.0
C1473 C 0.74374 0.86516 0.31001 0.0
C1474 C 0.75846 0.8499 0.32906 0.0
C1475 C 0.76837 0.84111 0.32135 0.0
C1476 C 0.76699 0.83219 0.29401 0.0
C1477 C 0.77643 0.82404 0.2866 0.0
C1478 C 0.78726 0.82466 0.30657 0.0
C1479 C 0.78865 0.83341 0.33407 0.0
C1480 C 0.77925 0.84159 0.34156 0.0
C1481 C 0.71992 0.8511 0.4455 0.0
C1482 C 0.72667 0.85197 0.47823 0.0
C1483 C 0.7254 0.85317 0.41157 0.0
C1484 C 0.73774 0.85629 0.40947 0.0
C1485 C 0.74452 0.85728 0.44204 0.0
C1486 C 0.73903 0.85518 0.47617 0.0
C1487 C 0.74362 0.85772 0.37303 0.0
C1488 C 0.75354 0.85023 0.36457 0.0
C1489 C 0.73877 0.86545 0.34555 0.0
C1490 C 0.72868 0.87403 0.35338 0.0
C1491 C 0.72948 0.88223 0.38292 0.0
C1492 C 0.71989 0.89019 0.39043 0.0
C1493 C 0.70947 0.89009 0.36847 0.0
C1494 C 0.70864 0.88205 0.33888 0.0
C1495 C 0.7182 0.87406 0.33125 0.0
H1496 H 0.70206 0.89626 0.37434 0.0
H1497 H 0.79455 0.81835 0.30079 0.0
H1498 H 0.91029 0.00902 0.92521 0.0
H1499 H 0.9088 0.99968 0.98621 0.0
H1500 H 0.90046 0.03467 0.03343 0.0
H1501 H 0.90217 0.04405 0.97314 0.0
H1502 H 0.91748 0.02397 0.07194 0.0
H1503 H 0.87865 0.01209 0.02324 0.0
H1504 H 0.86467 0.00276 0.97844 0.0
H1505 H 0.88181 0.9681 0.99451 0.0
H1506 H 0.89601 0.97726 0.03906 0.0
H1507 H 0.90336 0.00245 0.25149 0.0
H1508 H 0.90148 0.01189 0.19073 0.0
H1509 H 0.90983 0.97754 0.13946 0.0
H1510 H 0.91144 0.96803 0.19952 0.0
H1511 H 0.89203 0.98827 0.10355 0.0
H1512 H 0.93141 0.00023 0.14942 0.0
H1513 H 0.94565 0.00942 0.19375 0.0
H1514 H 0.92765 0.04384 0.18232 0.0
H1515 H 0.91319 0.03481 0.13825 0.0
C1516 C 0.90801 0.01468 0.94855 0.0
C1517 C 0.90643 0.02729 0.94431 0.0
C1518 C 0.90712 0.00933 0.9834 0.0
C1519 C 0.90447 0.01647 0.01444 0.0
C1520 C 0.90258 0.02899 0.00998 0.0
C1521 C 0.90355 0.03433 0.97539 0.0
C1522 C 0.90425 0.01112 0.05192 0.0
C1523 C 0.91176 0.01628 0.07897 0.0
C1524 C 0.89702 0.00091 0.06095 0.0
C1525 C 0.88847 0.99539 0.03423 0.0
C1526 C 0.8795 0.0025 0.01701 0.0
C1527 C 0.87152 0.99724 0.99169 0.0
C1528 C 0.87237 0.98485 0.98356 0.0
C1529 C 0.88118 0.9777 1.0008 0.0
C1530 C 0.88919 0.98291 0.02611 0.0
C1531 C 0.90474 0.99691 0.22725 0.0
C1532 C 0.90761 0.9845 0.23047 0.0
C1533 C 0.90371 0.00232 0.19255 0.0
C1534 C 0.90565 0.99544 0.16049 0.0
C1535 C 0.90827 0.98303 0.16372 0.0
C1536 C 0.90924 0.97762 0.19822 0.0
C1537 C 0.90525 0.00113 0.12349 0.0
C1538 C 0.89767 0.99602 0.09654 0.0
C1539 C 0.91244 0.01137 0.11446 0.0
C1540 C 0.92114 0.01681 0.14086 0.0
C1541 C 0.93043 0.00973 0.15658 0.0
C1542 C 0.93855 0.01492 0.18162 0.0
C1543 C 0.93753 0.0272 0.19093 0.0
C1544 C 0.92841 0.03433 0.17514 0.0
C1545 C 0.92026 0.02918 0.15011 0.0
H1546 H 0.94383 0.03119 0.21032 0.0
H1547 H 0.86619 0.9808 0.96396 0.0
H1548 H 0.7527 0.16236 0.00236 0.0
H1549 H 0.74369 0.1609 0.94098 0.0
H1550 H 0.77941 0.16304 0.89245 0.0
H1551 H 0.78843 0.16471 0.9533 0.0
H1552 H 0.76431 0.1779 0.85834 0.0
H1553 H 0.76352 0.1361 0.89605 0.0
H1554 H 0.75867 0.11886 0.93677 0.0
H1555 H 0.72056 0.12649 0.92593 0.0
H1556 H 0.72519 0.14389 0.88553 0.0
H1557 H 0.74639 0.16294 0.67614 0.0
H1558 H 0.75616 0.16147 0.73651 0.0
H1559 H 0.72097 0.1615 0.78875 0.0
H1560 H 0.71116 0.16288 0.72889 0.0
H1561 H 0.73625 0.14495 0.82008 0.0
H1562 H 0.73706 0.18714 0.78475 0.0
H1563 H 0.74177 0.20439 0.74391 0.0
H1564 H 0.77982 0.19599 0.75053 0.0
H1565 H 0.77532 0.17856 0.791 0.0
C1566 C 0.75863 0.16245 0.97862 0.0
C1567 C 0.77128 0.16369 0.98279 0.0
C1568 C 0.75348 0.16157 0.94355 0.0
C1569 C 0.76089 0.16178 0.9121 0.0
C1570 C 0.77351 0.16289 0.91628 0.0
C1571 C 0.77865 0.16382 0.95118 0.0
C1572 C 0.75553 0.16124 0.87471 0.0
C1573 C 0.75832 0.17059 0.84983 0.0
C1574 C 0.74752 0.15184 0.8638 0.0
C1575 C 0.74471 0.14137 0.88805 0.0
C1576 C 0.75411 0.13416 0.90259 0.0
C1577 C 0.7514 0.12435 0.92556 0.0
C1578 C 0.73932 0.1216 0.93401 0.0
C1579 C 0.72992 0.12864 0.91941 0.0
C1580 C 0.73258 0.13847 0.89644 0.0
C1581 C 0.74074 0.16253 0.70046 0.0
C1582 C 0.72801 0.16313 0.69769 0.0
C1583 C 0.74633 0.16173 0.73492 0.0
C1584 C 0.73928 0.1615 0.76709 0.0
C1585 C 0.72658 0.16167 0.76428 0.0
C1586 C 0.721 0.16252 0.72999 0.0
C1587 C 0.74506 0.16159 0.80386 0.0
C1588 C 0.74231 0.1522 0.82861 0.0
C1589 C 0.75311 0.17095 0.8147 0.0
C1590 C 0.75584 0.18147 0.79056 0.0
C1591 C 0.74642 0.18891 0.77725 0.0
C1592 C 0.74905 0.19873 0.75422 0.0
C1593 C 0.76108 0.20126 0.74455 0.0
C1594 C 0.77051 0.194 0.75799 0.0
C1595 C 0.76792 0.18415 0.78099 0.0
H1596 H 0.7631 0.20887 0.72671 0.0
H1597 H 0.73724 0.114 0.95179 0.0
H1598 H 0.59779 0.01104 0.73844 0.0
H1599 H 0.60024 0.00284 0.67631 0.0
H1600 H 0.59407 0.03852 0.63085 0.0
H1601 H 0.59145 0.04673 0.69244 0.0
H1602 H 0.58058 0.02213 0.59668 0.0
H1603 H 0.62245 0.02568 0.63118 0.0
H1604 H 0.64049 0.02256 0.67023 0.0
H1605 H 0.63714 0.98391 0.65721 0.0
H1606 H 0.61896 0.9868 0.61848 0.0
H1607 H 0.59365 0.00552 0.41283 0.0
H1608 H 0.59598 0.0157 0.47232 0.0
H1609 H 0.60076 0.98094 0.52518 0.0
H1610 H 0.59859 0.97074 0.46617 0.0
H1611 H 0.6159 0.99789 0.55414 0.0
H1612 H 0.5733 0.99427 0.5243 0.0
H1613 H 0.55507 0.99716 0.48587 0.0
H1614 H 0.55976 0.03587 0.49102 0.0
H1615 H 0.57814 0.0332 0.5291 0.0
C1616 C 0.59704 0.01715 0.71522 0.0
C1617 C 0.59437 0.02953 0.72045 0.0
C1618 C 0.5985 0.01246 0.67973 0.0
C1619 C 0.59741 0.02009 0.64893 0.0
C1620 C 0.59493 0.03246 0.65418 0.0
C1621 C 0.59344 0.03714 0.68949 0.0
C1622 C 0.59824 0.01513 0.61111 0.0
C1623 C 0.58841 0.01702 0.58721 0.0
C1624 C 0.60834 0.00823 0.59897 0.0
C1625 C 0.61928 0.00646 0.6222 0.0
C1626 C 0.6255 0.01651 0.63689 0.0
C1627 C 0.63576 0.01479 0.65892 0.0
C1628 C 0.63994 0.00304 0.66627 0.0
C1629 C 0.63388 0.993 0.65153 0.0
C1630 C 0.62361 0.99468 0.6295 0.0
C1631 C 0.59538 7e-05 0.43704 0.0
C1632 C 0.59579 0.98731 0.4348 0.0
C1633 C 0.59667 0.00589 0.47101 0.0
C1634 C 0.59838 0.99905 0.50322 0.0
C1635 C 0.59942 0.98639 0.50071 0.0
C1636 C 0.5981 0.98057 0.46691 0.0
C1637 C 0.59825 0.00491 0.53989 0.0
C1638 C 0.60816 0.00314 0.56358 0.0
C1639 C 0.58822 0.01191 0.55195 0.0
C1640 C 0.57717 0.01353 0.52916 0.0
C1641 C 0.5705 0.00339 0.51698 0.0
C1642 C 0.56013 0.00499 0.49531 0.0
C1643 C 0.55628 0.01669 0.48591 0.0
C1644 C 0.56277 0.02681 0.49826 0.0
C1645 C 0.57316 0.02526 0.51989 0.0
H1646 H 0.54825 0.01791 0.46914 0.0
H1647 H 0.64789 0.00172 0.68333 0.0
H1648 H 0.7471 0.65828 0.50762 0.0
H1649 H 0.75674 0.65612 0.44727 0.0
H1650 H 0.72171 0.65938 0.39492 0.0
H1651 H 0.71203 0.66135 0.45473 0.0
H1652 H 0.73521 0.64222 0.36179 0.0
H1653 H 0.74059 0.68373 0.40185 0.0
H1654 H 0.74726 0.69987 0.4443 0.0
H1655 H 0.78413 0.68734 0.43587 0.0
H1656 H 0.77764 0.67101 0.39372 0.0
H1657 H 0.75203 0.66179 0.18157 0.0
H1658 H 0.74343 0.6592 0.24315 0.0
H1659 H 0.7796 0.65739 0.28873 0.0
H1660 H 0.78822 0.66022 0.22773 0.0
H1661 H 0.76632 0.6727 0.3265 0.0
H1662 H 0.7611 0.63199 0.28239 0.0
H1663 H 0.7543 0.61603 0.23954 0.0
H1664 H 0.71719 0.62702 0.25489 0.0
H1665 H 0.72378 0.64317 0.29747 0.0
C1666 C 0.74145 0.65842 0.48328 0.0
C1667 C 0.72881 0.66011 0.48604 0.0
C1668 C 0.74697 0.65722 0.44881 0.0
C1669 C 0.73995 0.65774 0.41658 0.0
C1670 C 0.72731 0.65896 0.41939 0.0
C1671 C 0.72179 0.66015 0.45369 0.0
C1672 C 0.74574 0.65762 0.37976 0.0
C1673 C 0.74197 0.64892 0.35394 0.0
C1674 C 0.75469 0.66624 0.36976 0.0
C1675 C 0.75861 0.67607 0.39499 0.0
C1676 C 0.7501 0.68436 0.40928 0.0
C1677 C 0.75385 0.69355 0.43324 0.0
C1678 C 0.76611 0.69461 0.44286 0.0
C1679 C 0.77464 0.68649 0.42845 0.0
C1680 C 0.77093 0.67727 0.40451 0.0
C1681 C 0.75814 0.66071 0.20467 0.0
C1682 C 0.7708 0.66129 0.19974 0.0
C1683 C 0.75322 0.65918 0.23985 0.0
C1684 C 0.76088 0.65804 0.27059 0.0
C1685 C 0.77351 0.6583 0.26549 0.0
C1686 C 0.77842 0.65991 0.23052 0.0
C1687 C 0.75581 0.65729 0.30833 0.0
C1688 C 0.75968 0.66588 0.33434 0.0
C1689 C 0.74694 0.64858 0.31842 0.0
C1690 C 0.74295 0.63886 0.29287 0.0
C1691 C 0.7515 0.63107 0.27641 0.0
C1692 C 0.74768 0.62197 0.25221 0.0
C1693 C 0.73533 0.62053 0.24443 0.0
C1694 C 0.72676 0.62816 0.26091 0.0
C1695 C 0.73053 0.63728 0.28511 0.0
H1696 H 0.73239 0.61348 0.22568 0.0
H1697 H 0.769 0.70173 0.46141 0.0
H1698 H 0.59921 0.54095 0.4763 0.0
H1699 H 0.60162 0.53098 0.53554 0.0
H1700 H 0.5967 0.49601 0.4841 0.0
H1701 H 0.59419 0.50598 0.42426 0.0
H1702 H 0.58215 0.49898 0.54406 0.0
H1703 H 0.62425 0.50398 0.5165 0.0
H1704 H 0.64274 0.51499 0.49758 0.0
H1705 H 0.63908 0.53897 0.58996 0.0
H1706 H 0.62046 0.52821 0.60917 0.0
H1707 H 0.59479 0.4652 0.70295 0.0
H1708 H 0.59686 0.47387 0.64182 0.0
H1709 H 0.60056 0.50967 0.68876 0.0
H1710 H 0.59856 0.50101 0.75065 0.0
H1711 H 0.61649 0.50557 0.63023 0.0
H1712 H 0.57387 0.50142 0.65556 0.0
H1713 H 0.55529 0.4906 0.67463 0.0
H1714 H 0.55985 0.46525 0.586 0.0
H1715 H 0.57858 0.47583 0.56672 0.0
C1716 C 0.59876 0.53112 0.47739 0.0
C1717 C 0.59645 0.52425 0.44551 0.0
C1718 C 0.60022 0.52543 0.51133 0.0
C1719 C 0.59943 0.51275 0.51422 0.0
C1720 C 0.59738 0.50582 0.4824 0.0
C1721 C 0.59599 0.51151 0.44825 0.0
C1722 C 0.5999 0.50691 0.55092 0.0
C1723 C 0.58977 0.50022 0.56262 0.0
C1724 C 0.60968 0.50885 0.57553 0.0
C1725 C 0.62089 0.51535 0.5641 0.0
C1726 C 0.62733 0.51167 0.53262 0.0
C1727 C 0.63785 0.51785 0.52187 0.0
C1728 C 0.64207 0.52769 0.5425 0.0
C1729 C 0.63579 0.53135 0.57398 0.0
C1730 C 0.62526 0.5252 0.58484 0.0
C1731 C 0.59611 0.47492 0.70049 0.0
C1732 C 0.59636 0.48244 0.73179 0.0
C1733 C 0.59729 0.47986 0.66542 0.0
C1734 C 0.59867 0.49242 0.66074 0.0
C1735 C 0.59945 0.49994 0.69185 0.0
C1736 C 0.59828 0.49499 0.72715 0.0
C1737 C 0.59874 0.49767 0.62323 0.0
C1738 C 0.60893 0.50427 0.61149 0.0
C1739 C 0.589 0.49568 0.59853 0.0
C1740 C 0.5777 0.48934 0.60993 0.0
C1741 C 0.57097 0.49348 0.64031 0.0
C1742 C 0.5604 0.4874 0.65113 0.0
C1743 C 0.55641 0.47722 0.6316 0.0
C1744 C 0.56296 0.47313 0.60114 0.0
C1745 C 0.57355 0.47916 0.59024 0.0
H1746 H 0.54823 0.47253 0.64002 0.0
H1747 H 0.65021 0.53246 0.53414 0.0
H1748 H 0.75074 0.35384 0.66878 0.0
H1749 H 0.76088 0.35462 0.72889 0.0
H1750 H 0.72616 0.3515 0.78294 0.0
H1751 H 0.71599 0.35082 0.72368 0.0
H1752 H 0.75731 0.36996 0.79569 0.0
H1753 H 0.73006 0.3287 0.84632 0.0
H1754 H 0.71944 0.31082 0.82089 0.0
H1755 H 0.74366 0.31061 0.72838 0.0
H1756 H 0.75452 0.32836 0.75354 0.0
H1757 H 0.76155 0.35979 0.99176 0.0
H1758 H 0.75344 0.36229 0.92929 0.0
H1759 H 0.77833 0.33501 0.88965 0.0
H1760 H 0.7866 0.33261 0.95144 0.0
H1761 H 0.75353 0.33179 0.86759 0.0
H1762 H 0.78519 0.36197 0.87041 0.0
H1763 H 0.79602 0.37976 0.89539 0.0
H1764 H 0.76418 0.40176 0.87992 0.0
H1765 H 0.7531 0.38403 0.85537 0.0
C1766 C 0.74526 0.35353 0.69347 0.0
C1767 C 0.73256 0.35212 0.69133 0.0
C1768 C 0.75106 0.35402 0.72774 0.0
C1769 C 0.74425 0.353 0.76021 0.0
C1770 C 0.73157 0.35221 0.75814 0.0
C1771 C 0.72578 0.3518 0.72413 0.0
C1772 C 0.75031 0.35169 0.79629 0.0
C1773 C 0.75652 0.36163 0.81143 0.0
C1774 C 0.74931 0.34078 0.81664 0.0
C1775 C 0.74302 0.32992 0.80166 0.0
C1776 C 0.73315 0.32479 0.82064 0.0
C1777 C 0.72709 0.31469 0.80627 0.0
C1778 C 0.73085 0.3096 0.77298 0.0
C1779 C 0.74072 0.31458 0.75409 0.0
C1780 C 0.74683 0.32467 0.76837 0.0
C1781 C 0.76527 0.35432 0.96971 0.0
C1782 C 0.77471 0.34601 0.97649 0.0
C1783 C 0.76068 0.3558 0.93409 0.0
C1784 C 0.76535 0.34887 0.90495 0.0
C1785 C 0.77464 0.34046 0.91179 0.0
C1786 C 0.77936 0.33912 0.94711 0.0
C1787 C 0.76041 0.35011 0.86733 0.0
C1788 C 0.75435 0.34014 0.85191 0.0
C1789 C 0.76162 0.36097 0.84679 0.0
C1790 C 0.76827 0.37164 0.86143 0.0
C1791 C 0.78046 0.37057 0.87267 0.0
C1792 C 0.78665 0.38065 0.88668 0.0
C1793 C 0.78078 0.39188 0.88934 0.0
C1794 C 0.76871 0.39305 0.8779 0.0
C1795 C 0.76247 0.38299 0.86391 0.0
H1796 H 0.78559 0.39967 0.90018 0.0
H1797 H 0.72613 0.30179 0.76187 0.0
H1798 H 0.9028 0.54209 0.20051 0.0
H1799 H 0.90143 0.53204 0.14115 0.0
H1800 H 0.90593 0.49718 0.19361 0.0
H1801 H 0.90745 0.50723 0.2536 0.0
H1802 H 0.92098 0.49989 0.13504 0.0
H1803 H 0.87858 0.50532 0.15845 0.0
H1804 H 0.86003 0.51659 0.17527 0.0
H1805 H 0.86497 0.54026 0.08272 0.0
H1806 H 0.88366 0.52924 0.06561 0.0
H1807 H 0.90881 0.46529 0.97689 0.0
H1808 H 0.90708 0.47443 0.03748 0.0
H1809 H 0.90363 0.50991 0.98824 0.0
H1810 H 0.90526 0.50079 0.92691 0.0
H1811 H 0.88752 0.50639 0.04572 0.0
H1812 H 0.93023 0.50156 0.0238 0.0
H1813 H 0.94881 0.49038 0.00666 0.0
H1814 H 0.94331 0.46574 0.0966 0.0
H1815 H 0.92458 0.47668 0.11395 0.0
C1816 C 0.9034 0.53227 0.19963 0.0
C1817 C 0.90527 0.52547 0.23189 0.0
C1818 C 0.90254 0.52653 0.16559 0.0
C1819 C 0.90347 0.51386 0.16295 0.0
C1820 C 0.90515 0.50698 0.19509 0.0
C1821 C 0.90598 0.51273 0.22933 0.0
C1822 C 0.90337 0.50794 0.12633 0.0
C1823 C 0.91356 0.50112 0.11577 0.0
C1824 C 0.89384 0.50987 0.1008 0.0
C1825 C 0.88258 0.51651 0.11093 0.0
C1826 C 0.87577 0.51299 0.14185 0.0
C1827 C 0.86521 0.51932 0.1514 0.0
C1828 C 0.86134 0.52915 0.13012 0.0
C1829 C 0.86799 0.53265 0.09919 0.0
C1830 C 0.87856 0.52635 0.08953 0.0
C1831 C 0.90765 0.47504 0.97873 0.0
C1832 C 0.90728 0.48232 0.94693 0.0
C1833 C 0.90669 0.48025 0.0135 0.0
C1834 C 0.9054 0.49286 0.01738 0.0
C1835 C 0.90466 0.50016 0.98579 0.0
C1836 C 0.90563 0.49493 0.95081 0.0
C1837 C 0.90512 0.49835 0.05455 0.0
C1838 C 0.89489 0.50512 0.06513 0.0
C1839 C 0.91461 0.4964 0.08013 0.0
C1840 C 0.92594 0.48987 0.06996 0.0
C1841 C 0.93293 0.49371 0.03976 0.0
C1842 C 0.9435 0.48742 0.03003 0.0
C1843 C 0.94722 0.47734 0.05046 0.0
C1844 C 0.9404 0.47355 0.08076 0.0
C1845 C 0.92982 0.47979 0.09057 0.0
H1846 H 0.9554 0.47248 0.04288 0.0
H1847 H 0.85316 0.53404 0.13756 0.0
H1848 H 0.28975 0.35232 0.73017 0.0
H1849 H 0.28052 0.3544 0.79058 0.0
H1850 H 0.2449 0.35025 0.74272 0.0
H1851 H 0.2541 0.34827 0.68158 0.0
H1852 H 0.24542 0.36779 0.79762 0.0
H1853 H 0.25807 0.32633 0.78179 0.0
H1854 H 0.27249 0.30988 0.76702 0.0
H1855 H 0.29594 0.32154 0.85447 0.0
H1856 H 0.28173 0.33818 0.86945 0.0
H1857 H 0.21286 0.34824 0.95378 0.0
H1858 H 0.2227 0.35063 0.89448 0.0
H1859 H 0.25764 0.35306 0.94778 0.0
H1860 H 0.24782 0.35045 0.00778 0.0
H1861 H 0.25807 0.33742 0.89093 0.0
H1862 H 0.24438 0.37818 0.90957 0.0
H1863 H 0.22944 0.39411 0.92488 0.0
H1864 H 0.2075 0.38352 0.83276 0.0
H1865 H 0.22222 0.36741 0.81718 0.0
C1866 C 0.27994 0.35192 0.73228 0.0
C1867 C 0.27267 0.34996 0.70102 0.0
C1868 C 0.27468 0.35311 0.76692 0.0
C1869 C 0.26205 0.35227 0.77121 0.0
C1870 C 0.25469 0.35088 0.73997 0.0
C1871 C 0.25995 0.34972 0.70509 0.0
C1872 C 0.25667 0.3522 0.80857 0.0
C1873 C 0.24807 0.36109 0.81795 0.0
C1874 C 0.26037 0.34361 0.8353 0.0
C1875 C 0.2689 0.33357 0.82649 0.0
C1876 C 0.26635 0.32544 0.79769 0.0
C1877 C 0.27448 0.31608 0.78931 0.0
C1878 C 0.28514 0.31469 0.80973 0.0
C1879 C 0.28768 0.32264 0.83865 0.0
C1880 C 0.27959 0.33204 0.84711 0.0
C1881 C 0.22264 0.34936 0.95311 0.0
C1882 C 0.22956 0.34912 0.98564 0.0
C1883 C 0.22825 0.35081 0.91908 0.0
C1884 C 0.24089 0.35218 0.91669 0.0
C1885 C 0.24785 0.35207 0.94905 0.0
C1886 C 0.24223 0.3506 0.98329 0.0
C1887 C 0.2468 0.35302 0.88015 0.0
C1888 C 0.25549 0.34422 0.87081 0.0
C1889 C 0.24314 0.36168 0.85352 0.0
C1890 C 0.23438 0.37152 0.86236 0.0
C1891 C 0.23634 0.3792 0.89269 0.0
C1892 C 0.22791 0.38827 0.9014 0.0
C1893 C 0.21751 0.3898 0.87986 0.0
C1894 C 0.21555 0.38231 0.84944 0.0
C1895 C 0.22395 0.37322 0.84062 0.0
H1896 H 0.21099 0.39681 0.88669 0.0
H1897 H 0.29142 0.30743 0.80321 0.0
H1898 H 0.39953 0.54261 0.47607 0.0
H1899 H 0.3974 0.53332 0.53646 0.0
H1900 H 0.40606 0.49825 0.49031 0.0
H1901 H 0.40786 0.50749 0.42921 0.0
H1902 H 0.38882 0.49616 0.54223 0.0
H1903 H 0.42787 0.51535 0.53328 0.0
H1904 H 0.4421 0.53219 0.52107 0.0
H1905 H 0.42528 0.55342 0.60598 0.0
H1906 H 0.41083 0.53676 0.61836 0.0
H1907 H 0.40988 0.46752 0.70432 0.0
H1908 H 0.40721 0.4765 0.64385 0.0
H1909 H 0.39844 0.51098 0.69373 0.0
H1910 H 0.40135 0.50207 0.75483 0.0
H1911 H 0.41482 0.5136 0.64037 0.0
H1912 H 0.37642 0.49321 0.65147 0.0
H1913 H 0.36278 0.47584 0.66319 0.0
H1914 H 0.3792 0.4561 0.57438 0.0
H1915 H 0.39304 0.4733 0.56237 0.0
C1916 C 0.40088 0.5329 0.47864 0.0
C1917 C 0.40403 0.5258 0.44796 0.0
C1918 C 0.39968 0.5276 0.51323 0.0
C1919 C 0.40185 0.51514 0.51808 0.0
C1920 C 0.40441 0.5079 0.48722 0.0
C1921 C 0.40545 0.51319 0.45236 0.0
C1922 C 0.40208 0.50986 0.5556 0.0
C1923 C 0.39459 0.49988 0.56362 0.0
C1924 C 0.40945 0.51486 0.58369 0.0
C1925 C 0.41819 0.52486 0.57649 0.0
C1926 C 0.42715 0.52365 0.54917 0.0
C1927 C 0.43527 0.53315 0.54225 0.0
C1928 C 0.43458 0.54388 0.56267 0.0
C1929 C 0.42579 0.54511 0.59015 0.0
C1930 C 0.41764 0.53564 0.59715 0.0
C1931 C 0.4073 0.477 0.70261 0.0
C1932 C 0.40587 0.48409 0.73452 0.0
C1933 C 0.40569 0.4821 0.6679 0.0
C1934 C 0.40246 0.49437 0.66422 0.0
C1935 C 0.40088 0.50147 0.69597 0.0
C1936 C 0.40254 0.49637 0.73084 0.0
C1937 C 0.40151 0.49992 0.62718 0.0
C1938 C 0.40894 0.50993 0.61915 0.0
C1939 C 0.39417 0.49486 0.59909 0.0
C1940 C 0.38581 0.48452 0.60616 0.0
C1941 C 0.37717 0.48514 0.63457 0.0
C1942 C 0.36939 0.47533 0.64123 0.0
C1943 C 0.37011 0.46488 0.61951 0.0
C1944 C 0.37863 0.46421 0.59112 0.0
C1945 C 0.38643 0.47399 0.58434 0.0
H1946 H 0.36408 0.45731 0.62469 0.0
H1947 H 0.44086 0.55123 0.55727 0.0
H1948 H 0.25564 0.65919 0.49241 0.0
H1949 H 0.24739 0.65687 0.43029 0.0
H1950 H 0.28322 0.66214 0.38482 0.0
H1951 H 0.29147 0.66465 0.44639 0.0
H1952 H 0.26719 0.67575 0.34978 0.0
H1953 H 0.26971 0.63397 0.38636 0.0
H1954 H 0.26609 0.61623 0.42629 0.0
H1955 H 0.22755 0.6205 0.4127 0.0
H1956 H 0.23094 0.63838 0.37308 0.0
H1957 H 0.25001 0.66238 0.16628 0.0
H1958 H 0.26031 0.66022 0.22569 0.0
H1959 H 0.22562 0.65577 0.27929 0.0
H1960 H 0.21533 0.65771 0.22044 0.0
H1961 H 0.2422 0.64077 0.30871 0.0
H1962 H 0.23957 0.6833 0.27688 0.0
H1963 H 0.24292 0.70127 0.23763 0.0
H1964 H 0.28151 0.69566 0.2432 0.0
H1965 H 0.27837 0.67756 0.28211 0.0
C1966 C 0.26176 0.65979 0.46919 0.0
C1967 C 0.2742 0.66215 0.47443 0.0
C1968 C 0.25705 0.6584 0.4337 0.0
C1969 C 0.26471 0.65925 0.40288 0.0
C1970 C 0.27713 0.66147 0.40814 0.0
C1971 C 0.28183 0.66289 0.44346 0.0
C1972 C 0.25975 0.65834 0.36502 0.0
C1973 C 0.2619 0.66799 0.34064 0.0
C1974 C 0.25265 0.64834 0.35327 0.0
C1975 C 0.25058 0.63758 0.37702 0.0
C1976 C 0.26046 0.63119 0.39212 0.0
C1977 C 0.25845 0.6211 0.41466 0.0
C1978 C 0.24659 0.61726 0.4221 0.0
C1979 C 0.23672 0.62349 0.40695 0.0
C1980 C 0.23869 0.6336 0.38442 0.0
C1981 C 0.2446 0.66075 0.19065 0.0
C1982 C 0.23184 0.66036 0.18863 0.0
C1983 C 0.25049 0.65957 0.22459 0.0
C1984 C 0.24371 0.65801 0.257 0.0
C1985 C 0.23104 0.65699 0.25471 0.0
C1986 C 0.22517 0.65818 0.22096 0.0
C1987 C 0.24963 0.65818 0.29364 0.0
C1988 C 0.24762 0.64844 0.3178 0.0
C1989 C 0.25684 0.66811 0.3053 0.0
C1990 C 0.25873 0.679 0.28202 0.0
C1991 C 0.24877 0.68585 0.26949 0.0
C1992 C 0.25062 0.69606 0.24735 0.0
C1993 C 0.26242 0.69958 0.23784 0.0
C1994 C 0.27238 0.69291 0.25053 0.0
C1995 C 0.27057 0.68268 0.27263 0.0
H1996 H 0.26384 0.7075 0.2207 0.0
H1997 H 0.24505 0.60945 0.43955 0.0
H1998 H 0.09494 0.51117 0.24841 0.0
H1999 H 0.0973 0.50233 0.18695 0.0
H2000 H 0.09451 0.53805 0.13885 0.0
H2001 H 0.09208 0.54691 0.1996 0.0
H2002 H 0.07972 0.52226 0.10509 0.0
H2003 H 0.12158 0.52341 0.14226 0.0
H2004 H 0.13906 0.51924 0.18273 0.0
H2005 H 0.13325 0.48086 0.17054 0.0
H2006 H 0.11562 0.4848 0.13037 0.0
H2007 H 0.09347 0.50513 0.92202 0.0
H2008 H 0.09536 0.51508 0.98202 0.0
H2009 H 0.09884 0.48006 0.03427 0.0
H2010 H 0.09717 0.4701 0.97481 0.0
H2011 H 0.11398 0.49607 0.06525 0.0
H2012 H 0.07164 0.49468 0.03183 0.0
H2013 H 0.05385 0.49847 0.99223 0.0
H2014 H 0.06024 0.53692 0.99861 0.0
H2015 H 0.07818 0.53334 0.03787 0.0
C2016 C 0.09493 0.51714 0.22476 0.0
C2017 C 0.09326 0.52974 0.22901 0.0
C2018 C 0.09632 0.51209 0.18967 0.0
C2019 C 0.09611 0.51955 0.15831 0.0
C2020 C 0.09466 0.53212 0.16261 0.0
C2021 C 0.09329 0.53716 0.19749 0.0
C2022 C 0.09684 0.5143 0.12081 0.0
C2023 C 0.08731 0.51668 0.09622 0.0
C2024 C 0.1066 0.50681 0.10949 0.0
C2025 C 0.11721 0.50441 0.1336 0.0
C2026 C 0.12397 0.51408 0.14846 0.0
C2027 C 0.13391 0.51176 0.17129 0.0
C2028 C 0.13725 0.49979 0.17928 0.0
C2029 C 0.13065 0.49012 0.16437 0.0
C2030 C 0.12069 0.4924 0.14154 0.0
C2031 C 0.0948 0.49956 0.94623 0.0
C2032 C 0.09504 0.48682 0.9436 0.0
C2033 C 0.09583 0.50525 0.98052 0.0
C2034 C 0.09707 0.49829 0.0127 0.0
C2035 C 0.09787 0.48562 0.00987 0.0
C2036 C 0.09684 0.47994 0.97577 0.0
C2037 C 0.09687 0.50406 0.04957 0.0
C2038 C 0.10645 0.50173 0.07408 0.0
C2039 C 0.08712 0.51156 0.06096 0.0
C2040 C 0.07633 0.51373 0.03742 0.0
C2041 C 0.06931 0.50394 0.02454 0.0
C2042 C 0.05919 0.50605 1.0022 0.0
C2043 C 0.05594 0.51792 0.99282 0.0
C2044 C 0.06278 0.52772 0.00584 0.0
C2045 C 0.07292 0.52566 0.02815 0.0
H2046 H 0.0481 0.51954 0.97553 0.0
H2047 H 0.14495 0.49801 0.19696 0.0
H2048 H 0.18352 0.2037 0.09536 0.0
H2049 H 0.18076 0.22551 0.10572 0.0
H2050 H 0.2188 0.22899 0.1325 0.0
H2051 H 0.2216 0.20725 0.12298 0.0
H2052 H 0.20534 0.24336 0.17597 0.0
H2053 H 0.20827 0.23477 0.04569 0.0
H2054 H 0.20213 0.22488 0.98779 0.0
H2055 H 0.16651 0.24055 0.99713 0.0
H2056 H 0.1724 0.25042 0.05537 0.0
H2057 H 0.22219 0.30277 0.12576 0.0
H2058 H 0.21907 0.28106 0.13435 0.0
H2059 H 0.18132 0.28503 0.10449 0.0
H2060 H 0.18443 0.30682 0.09489 0.0
H2061 H 0.19133 0.26696 0.06782 0.0
H2062 H 0.19006 0.27845 0.19404 0.0
H2063 H 0.19713 0.28887 0.25007 0.0
H2064 H 0.23024 0.26822 0.24779 0.0
H2065 H 0.22345 0.25779 0.19144 0.0
C2066 C 0.19127 0.20907 0.10398 0.0
C2067 C 0.20282 0.20374 0.10791 0.0
C2068 C 0.18967 0.22155 0.1098 0.0
C2069 C 0.19962 0.22891 0.11933 0.0
C2070 C 0.211 0.2235 0.12511 0.0
C2071 C 0.21259 0.21105 0.11946 0.0
C2072 C 0.19849 0.24235 0.12064 0.0
C2073 C 0.20229 0.24854 0.15235 0.0
C2074 C 0.19426 0.2491 0.0901 0.0
C2075 C 0.19072 0.2432 0.05508 0.0
C2076 C 0.1991 0.23603 0.03553 0.0
C2077 C 0.19567 0.23044 0.00264 0.0
C2078 C 0.18393 0.23205 0.98885 0.0
C2079 C 0.1756 0.23929 0.00788 0.0
C2080 C 0.17897 0.24488 0.04082 0.0
C2081 C 0.21317 0.29909 0.12142 0.0
C2082 C 0.20357 0.30656 0.1095 0.0
C2083 C 0.21138 0.28665 0.1266 0.0
C2084 C 0.19992 0.28141 0.12052 0.0
C2085 C 0.19024 0.28888 0.10945 0.0
C2086 C 0.19203 0.30134 0.10404 0.0
C2087 C 0.19837 0.26803 0.12296 0.0
C2088 C 0.19411 0.26183 0.09185 0.0
C2089 C 0.20224 0.2613 0.154 0.0
C2090 C 0.20626 0.26738 0.18836 0.0
C2091 C 0.19887 0.27617 0.20537 0.0
C2092 C 0.20283 0.28208 0.2372 0.0
C2093 C 0.21413 0.27922 0.25245 0.0
C2094 C 0.22148 0.27042 0.23595 0.0
C2095 C 0.21757 0.26449 0.2041 0.0
H2096 H 0.21718 0.28382 0.27706 0.0
H2097 H 0.18129 0.22772 0.96338 0.0
H2098 H 0.05116 0.9406 0.34797 0.0
H2099 H 0.02922 0.93791 0.35509 0.0
H2100 H 0.02579 0.97526 0.38961 0.0
H2101 H 0.0477 0.97799 0.38323 0.0
H2102 H 0.01106 0.96073 0.42925 0.0
H2103 H 0.02042 0.96694 0.30078 0.0
H2104 H 0.03069 0.96236 0.24218 0.0
H2105 H 0.01505 0.9266 0.24195 0.0
H2106 H 0.0048 0.93092 0.30085 0.0
H2107 H 0.95134 0.97745 0.37998 0.0
H2108 H 0.97309 0.97468 0.38919 0.0
H2109 H 0.97025 0.93759 0.35167 0.0
H2110 H 0.94842 0.94035 0.34167 0.0
H2111 H 0.98812 0.94909 0.31731 0.0
H2112 H 0.97637 0.94423 0.44244 0.0
H2113 H 0.96587 0.94936 0.50022 0.0
H2114 H 0.98569 0.98291 0.50662 0.0
H2115 H 0.99618 0.97807 0.44859 0.0
C2116 C 0.04576 0.94821 0.35749 0.0
C2117 C 0.05119 0.95955 0.36467 0.0
C2118 C 0.03322 0.94666 0.36145 0.0
C2119 C 0.02585 0.95644 0.37234 0.0
C2120 C 0.0313 0.9676 0.38112 0.0
C2121 C 0.04384 0.96915 0.3773 0.0
C2122 C 0.0124 0.95533 0.37256 0.0
C2123 C 0.00602 0.95824 0.40477 0.0
C2124 C 0.00585 0.95178 0.34085 0.0
C2125 C 0.01197 0.9492 0.30541 0.0
C2126 C 0.01925 0.95807 0.28837 0.0
C2127 C 0.02505 0.95553 0.25508 0.0
C2128 C 0.02355 0.94418 0.23841 0.0
C2129 C 0.01622 0.93537 0.25494 0.0
C2130 C 0.01041 0.93786 0.28826 0.0
C2131 C 0.95528 0.96863 0.37412 0.0
C2132 C 0.94812 0.95914 0.35992 0.0
C2133 C 0.96773 0.96704 0.37964 0.0
C2134 C 0.9733 0.95589 0.37145 0.0
C2135 C 0.96613 0.94627 0.35824 0.0
C2136 C 0.95365 0.94786 0.35263 0.0
C2137 C 0.98672 0.95466 0.3739 0.0
C2138 C 0.99312 0.95135 0.34208 0.0
C2139 C 0.99326 0.95788 0.40594 0.0
C2140 C 0.98701 0.96081 0.441 0.0
C2141 C 0.97843 0.95274 0.45602 0.0
C2142 C 0.97249 0.95559 0.48885 0.0
C2143 C 0.9751 0.96646 0.50705 0.0
C2144 C 0.98367 0.9745 0.49249 0.0
C2145 C 0.98964 0.97169 0.45965 0.0
H2146 H 0.97048 0.96866 0.53245 0.0
H2147 H 0.02805 0.94224 0.21264 0.0
H2148 H 0.27744 0.80377 0.627 0.0
H2149 H 0.27983 0.7819 0.63529 0.0
H2150 H 0.31748 0.78455 0.60318 0.0
H2151 H 0.31515 0.80648 0.59446 0.0
H2152 H 0.30584 0.76714 0.56532 0.0
H2153 H 0.30997 0.77793 0.69142 0.0
H2154 H 0.30456 0.78802 0.74963 0.0
H2155 H 0.27084 0.76838 0.75279 0.0
H2156 H 0.27597 0.75831 0.6943 0.0
H2157 H 0.31472 0.7041 0.59339 0.0
H2158 H 0.31708 0.726 0.60247 0.0
H2159 H 0.27925 0.72881 0.63241 0.0
H2160 H 0.27682 0.70694 0.62383 0.0
H2161 H 0.29345 0.74345 0.67508 0.0
H2162 H 0.28808 0.73488 0.54604 0.0
H2163 H 0.29297 0.725 0.48706 0.0
H2164 H 0.32866 0.74079 0.48923 0.0
H2165 H 0.32403 0.75063 0.54853 0.0
C2166 C 0.28628 0.79975 0.62215 0.0
C2167 C 0.29609 0.80689 0.60988 0.0
C2168 C 0.28765 0.78724 0.62712 0.0
C2169 C 0.29886 0.78159 0.62008 0.0
C2170 C 0.30876 0.78873 0.60882 0.0
C2171 C 0.30741 0.80126 0.60394 0.0
C2172 C 0.29992 0.76815 0.62164 0.0
C2173 C 0.3034 0.76197 0.58961 0.0
C2174 C 0.29645 0.76141 0.65304 0.0
C2175 C 0.29332 0.76743 0.68829 0.0
C2176 C 0.30136 0.77583 0.70436 0.0
C2177 C 0.29835 0.78154 0.73745 0.0
C2178 C 0.28735 0.77886 0.75486 0.0
C2179 C 0.27935 0.77045 0.73926 0.0
C2180 C 0.28232 0.76473 0.70616 0.0
C2181 C 0.30693 0.70934 0.60238 0.0
C2182 C 0.29554 0.70377 0.60748 0.0
C2183 C 0.3083 0.72186 0.60746 0.0
C2184 C 0.2983 0.72905 0.61761 0.0
C2185 C 0.28708 0.72343 0.62451 0.0
C2186 C 0.2857 0.71093 0.61941 0.0
C2187 C 0.29926 0.7425 0.61868 0.0
C2188 C 0.2961 0.74865 0.65107 0.0
C2189 C 0.30298 0.74926 0.58757 0.0
C2190 C 0.30576 0.74337 0.55191 0.0
C2191 C 0.29701 0.73616 0.53408 0.0
C2192 C 0.29972 0.73058 0.50058 0.0
C2193 C 0.31113 0.73223 0.48447 0.0
C2194 C 0.31984 0.7395 0.50178 0.0
C2195 C 0.31717 0.74508 0.53533 0.0
H2196 H 0.31322 0.72791 0.45852 0.0
H2197 H 0.28504 0.78329 0.78047 0.0
H2198 H 0.44886 0.06788 0.84347 0.0
H2199 H 0.47082 0.07025 0.85078 0.0
H2200 H 0.47391 0.0324 0.88036 0.0
H2201 H 0.45195 0.03001 0.87399 0.0
H2202 H 0.48898 0.0458 0.92115 0.0
H2203 H 0.47935 0.04219 0.79229 0.0
H2204 H 0.46901 0.04779 0.7346 0.0
H2205 H 0.48472 0.08348 0.73984 0.0
H2206 H 0.49502 0.07814 0.79786 0.0
H2207 H 0.54894 0.03083 0.86698 0.0
H2208 H 0.5271 0.03292 0.87634 0.0
H2209 H 0.52935 0.07105 0.8496 0.0
H2210 H 0.55126 0.06902 0.83968 0.0
H2211 H 0.51168 0.05986 0.81132 0.0
H2212 H 0.52369 0.06194 0.93721 0.0
H2213 H 0.53461 0.05528 0.99281 0.0
H2214 H 0.51494 0.02158 0.99201 0.0
H2215 H 0.50403 0.02794 0.93604 0.0
C2216 C 0.45418 0.06008 0.8519 0.0
C2217 C 0.44865 0.04872 0.85775 0.0
C2218 C 0.46675 0.06145 0.85599 0.0
C2219 C 0.47404 0.05145 0.86553 0.0
C2220 C 0.46847 0.04024 0.87293 0.0
C2221 C 0.45591 0.03888 0.86911 0.0
C2222 C 0.4875 0.05243 0.86564 0.0
C2223 C 0.49396 0.04882 0.89711 0.0
C2224 C 0.494 0.0566 0.83451 0.0
C2225 C 0.48783 0.05982 0.79961 0.0
C2226 C 0.48052 0.05127 0.78128 0.0
C2227 C 0.47468 0.05439 0.74851 0.0
C2228 C 0.47618 0.066 0.73363 0.0
C2229 C 0.48355 0.0745 0.75144 0.0
C2230 C 0.48939 0.07143 0.78426 0.0
C2231 C 0.54484 0.03971 0.86347 0.0
C2232 C 0.55186 0.04975 0.85241 0.0
C2233 C 0.53234 0.0409 0.86905 0.0
C2234 C 0.5266 0.05217 0.86395 0.0
C2235 C 0.53361 0.06228 0.85376 0.0
C2236 C 0.54613 0.0611 0.84819 0.0
C2237 C 0.51318 0.05313 0.86669 0.0
C2238 C 0.50673 0.05705 0.83566 0.0
C2239 C 0.50672 0.04916 0.89811 0.0
C2240 C 0.51309 0.04539 0.93224 0.0
C2241 C 0.52174 0.05307 0.94875 0.0
C2242 C 0.52792 0.04935 0.98035 0.0
C2243 C 0.52549 0.038 0.99589 0.0
C2244 C 0.51682 0.03037 0.97994 0.0
C2245 C 0.51062 0.03403 0.94829 0.0
H2246 H 0.5303 0.03513 0.02032 0.0
H2247 H 0.47165 0.0684 0.70825 0.0
H2248 H 0.18911 0.80859 0.10281 0.0
H2249 H 0.18661 0.78659 0.09709 0.0
H2250 H 0.22134 0.7841 0.04262 0.0
H2251 H 0.22388 0.80607 0.04781 0.0
H2252 H 0.20461 0.76922 0.01084 0.0
H2253 H 0.21906 0.77808 0.13294 0.0
H2254 H 0.21853 0.78805 0.19359 0.0
H2255 H 0.1837 0.77198 0.21554 0.0
H2256 H 0.18396 0.76204 0.15476 0.0
H2257 H 0.22283 0.70855 0.04602 0.0
H2258 H 0.22048 0.73052 0.04084 0.0
H2259 H 0.186 0.72842 0.09689 0.0
H2260 H 0.18832 0.70639 0.10257 0.0
H2261 H 0.20038 0.74563 0.1263 0.0
H2262 H 0.18714 0.73494 0.00572 0.0
H2263 H 0.18822 0.72482 0.94541 0.0
H2264 H 0.22117 0.74406 0.92059 0.0
H2265 H 0.22038 0.75418 0.981 0.0
C2266 C 0.19617 0.80339 0.08925 0.0
C2267 C 0.20675 0.8091 0.07607 0.0
C2268 C 0.19473 0.79081 0.08611 0.0
C2269 C 0.20386 0.78369 0.06987 0.0
C2270 C 0.21419 0.78941 0.0553 0.0
C2271 C 0.21564 0.80198 0.05845 0.0
C2272 C 0.203 0.77023 0.06969 0.0
C2273 C 0.20376 0.76404 0.03607 0.0
C2274 C 0.20163 0.7635 0.10257 0.0
C2275 C 0.20147 0.76944 0.13915 0.0
C2276 C 0.21125 0.77676 0.15058 0.0
C2277 C 0.211 0.78238 0.18499 0.0
C2278 C 0.20107 0.78068 0.20836 0.0
C2279 C 0.19138 0.77331 0.19739 0.0
C2280 C 0.19157 0.76768 0.16297 0.0
C2281 C 0.21468 0.71271 0.05691 0.0
C2282 C 0.20578 0.70568 0.07482 0.0
C2283 C 0.21332 0.72529 0.05375 0.0
C2284 C 0.20302 0.73111 0.06823 0.0
C2285 C 0.19401 0.72411 0.08546 0.0
C2286 C 0.19534 0.71151 0.08859 0.0
C2287 C 0.20209 0.74457 0.06744 0.0
C2288 C 0.20105 0.75078 0.10096 0.0
C2289 C 0.20325 0.75129 0.03447 0.0
C2290 C 0.20375 0.74525 0.99804 0.0
C2291 C 0.19467 0.73695 0.98753 0.0
C2292 C 0.19522 0.73122 0.9533 0.0
C2293 C 0.20477 0.73378 0.92921 0.0
C2294 C 0.21378 0.74209 0.93929 0.0
C2295 C 0.21328 0.74783 0.9735 0.0
H2296 H 0.20519 0.72933 0.90272 0.0
H2297 H 0.20089 0.78504 0.235 0.0
H2298 H 0.44749 0.94292 0.34414 0.0
H2299 H 0.46949 0.94092 0.33645 0.0
H2300 H 0.47154 0.97809 0.2993 0.0
H2301 H 0.44957 0.98017 0.30661 0.0
H2302 H 0.48633 0.96298 0.25904 0.0
H2303 H 0.47789 0.97143 0.38666 0.0
H2304 H 0.46816 0.96782 0.44671 0.0
H2305 H 0.48462 0.93247 0.45233 0.0
H2306 H 0.49432 0.93581 0.39202 0.0
H2307 H 0.54697 0.97996 0.29769 0.0
H2308 H 0.52501 0.97758 0.29265 0.0
H2309 H 0.52772 0.94123 0.33631 0.0
H2310 H 0.54975 0.9436 0.34209 0.0
H2311 H 0.51047 0.95368 0.37068 0.0
H2312 H 0.52073 0.94619 0.24546 0.0
H2313 H 0.53057 0.95006 0.18575 0.0
H2314 H 0.51091 0.9836 0.17532 0.0
H2315 H 0.50108 0.98002 0.23524 0.0
C2316 C 0.45259 0.95064 0.33393 0.0
C2317 C 0.44677 0.96174 0.3263 0.0
C2318 C 0.46517 0.94948 0.32966 0.0
C2319 C 0.47215 0.9594 0.31773 0.0
C2320 C 0.46632 0.97032 0.30858 0.0
C2321 C 0.45376 0.9715 0.31294 0.0
C2322 C 0.48561 0.95866 0.31665 0.0
C2323 C 0.49163 0.96102 0.28345 0.0
C2324 C 0.49249 0.95581 0.34835 0.0
C2325 C 0.48671 0.95381 0.38465 0.0
C2326 C 0.47935 0.96285 0.40057 0.0
C2327 C 0.47386 0.96086 0.43467 0.0
C2328 C 0.47574 0.94991 0.45327 0.0
C2329 C 0.48315 0.94094 0.43785 0.0
C2330 C 0.48865 0.94288 0.40372 0.0
C2331 C 0.54295 0.9714 0.30586 0.0
C2332 C 0.55015 0.96199 0.3204 0.0
C2333 C 0.53037 0.97003 0.30277 0.0
C2334 C 0.52472 0.95918 0.31378 0.0
C2335 C 0.53189 0.94967 0.32759 0.0
C2336 C 0.54449 0.95104 0.33079 0.0
C2337 C 0.51126 0.95812 0.31307 0.0
C2338 C 0.50521 0.95546 0.34605 0.0
C2339 C 0.50438 0.9607 0.28115 0.0
C2340 C 0.51024 0.96287 0.245 0.0
C2341 C 0.51857 0.95444 0.23058 0.0
C2342 C 0.52414 0.95657 0.19666 0.0
C2343 C 0.52139 0.96708 0.17679 0.0
C2344 C 0.51304 0.97547 0.19076 0.0
C2345 C 0.50746 0.97338 0.22467 0.0
H2346 H 0.52571 0.96872 0.15054 0.0
H2347 H 0.47148 0.94839 0.47967 0.0
H2348 H 0.31504 0.20372 0.60079 0.0
H2349 H 0.31834 0.22565 0.59596 0.0
H2350 H 0.28429 0.22947 0.53834 0.0
H2351 H 0.28098 0.2076 0.54254 0.0
H2352 H 0.30146 0.24412 0.50914 0.0
H2353 H 0.28601 0.23465 0.62992 0.0
H2354 H 0.28601 0.22428 0.68998 0.0
H2355 H 0.32096 0.23962 0.71478 0.0
H2356 H 0.32123 0.24995 0.65459 0.0
H2357 H 0.28163 0.30379 0.54945 0.0
H2358 H 0.28477 0.28198 0.54207 0.0
H2359 H 0.31919 0.28472 0.59821 0.0
H2360 H 0.3161 0.30662 0.60591 0.0
H2361 H 0.30493 0.26682 0.62645 0.0
H2362 H 0.3187 0.2787 0.50767 0.0
H2363 H 0.31787 0.28933 0.44812 0.0
H2364 H 0.2854 0.26982 0.41973 0.0
H2365 H 0.28593 0.25919 0.47935 0.0
C2366 C 0.30832 0.2092 0.58666 0.0
C2367 C 0.29768 0.2039 0.57238 0.0
C2368 C 0.31021 0.22174 0.58403 0.0
C2369 C 0.30148 0.22922 0.56725 0.0
C2370 C 0.29114 0.22388 0.55146 0.0
C2371 C 0.28924 0.21136 0.55404 0.0
C2372 C 0.30266 0.24265 0.56801 0.0
C2373 C 0.30217 0.2491 0.53477 0.0
C2374 C 0.30386 0.24913 0.60141 0.0
C2375 C 0.30371 0.24294 0.63759 0.0
C2376 C 0.29374 0.23573 0.64806 0.0
C2377 C 0.29368 0.22987 0.68213 0.0
C2378 C 0.3035 0.23126 0.70613 0.0
C2379 C 0.31338 0.23853 0.69613 0.0
C2380 C 0.31349 0.24439 0.66204 0.0
C2381 C 0.28994 0.2998 0.55987 0.0
C2382 C 0.29859 0.30696 0.5784 0.0
C2383 C 0.29176 0.28733 0.55544 0.0
C2384 C 0.30226 0.28173 0.56936 0.0
C2385 C 0.31104 0.28887 0.58717 0.0
C2386 C 0.30927 0.30139 0.59144 0.0
C2387 C 0.30356 0.26832 0.56761 0.0
C2388 C 0.30446 0.26186 0.60072 0.0
C2389 C 0.30265 0.26186 0.5341 0.0
C2390 C 0.30231 0.26821 0.49813 0.0
C2391 C 0.31133 0.27674 0.48886 0.0
C2392 C 0.31092 0.28276 0.45506 0.0
C2393 C 0.30157 0.28027 0.43018 0.0
C2394 C 0.29263 0.27174 0.43903 0.0
C2395 C 0.29299 0.2657 0.47281 0.0
H2396 H 0.30127 0.28494 0.40403 0.0
H2397 H 0.30344 0.22672 0.73251 0.0
H2398 H 0.95013 0.03964 0.78141 0.0
H2399 H 0.97226 0.0413 0.77747 0.0
H2400 H 0.97172 0.07037 0.85686 0.0
H2401 H 0.94954 0.0689 0.86063 0.0
H2402 H 0.98955 0.06095 0.76338 0.0
H2403 H 0.99416 0.06183 0.91974 0.0
H2404 H 0.98242 0.05632 0.97509 0.0
H2405 H 0.9643 0.02804 0.91499 0.0
H2406 H 0.97606 0.03327 0.85952 0.0
H2407 H 0.05218 0.06783 0.82545 0.0
H2408 H 0.03017 0.07058 0.81773 0.0
H2409 H 0.02478 0.03205 0.83172 0.0
H2410 H 0.04667 0.02917 0.83877 0.0
H2411 H 0.00999 0.0474 0.87784 0.0
H2412 H 0.02194 0.04196 0.75102 0.0
H2413 H 0.03365 0.04684 0.69519 0.0
H2414 H 0.01877 0.08293 0.69478 0.0
H2415 H 0.0071 0.07831 0.75097 0.0
C2416 C 0.95469 0.04656 0.79745 0.0
C2417 C 0.94809 0.05407 0.82157 0.0
C2418 C 0.96732 0.04754 0.79501 0.0
C2419 C 0.9736 0.05589 0.81705 0.0
C2420 C 0.96701 0.06385 0.83967 0.0
C2421 C 0.95434 0.063 0.84174 0.0
C2422 C 0.98702 0.05527 0.81947 0.0
C2423 C 0.99404 0.0581 0.78846 0.0
C2424 C 0.99284 0.05143 0.8521 0.0
C2425 C 0.98588 0.04804 0.88542 0.0
C2426 C 0.9877 0.05441 0.91842 0.0
C2427 C 0.98104 0.05134 0.94979 0.0
C2428 C 0.97259 0.04187 0.94851 0.0
C2429 C 0.97081 0.03541 0.9159 0.0
C2430 C 0.97746 0.03843 0.88448 0.0
C2431 C 0.04631 0.05994 0.82656 0.0
C2432 C 0.05117 0.04828 0.83276 0.0
C2433 C 0.03376 0.06153 0.8221 0.0
C2434 C 0.0259 0.05152 0.82425 0.0
C2435 C 0.03073 0.03988 0.83005 0.0
C2436 C 0.04325 0.03826 0.83391 0.0
C2437 C 0.01257 0.05312 0.8218 0.0
C2438 C 0.00554 0.05045 0.85289 0.0
C2439 C 0.00678 0.05707 0.78922 0.0
C2440 C 0.01377 0.05984 0.75543 0.0
C2441 C 0.02126 0.05098 0.73924 0.0
C2442 C 0.02787 0.05368 0.70748 0.0
C2443 C 0.02699 0.0652 0.69151 0.0
C2444 C 0.01947 0.07402 0.70722 0.0
C2445 C 0.01285 0.07136 0.739 0.0
H2446 H 0.03211 0.06728 0.66691 0.0
H2447 H 0.96743 0.03951 0.97282 0.0
H2448 H 0.81152 0.70616 0.08528 0.0
H2449 H 0.81351 0.72814 0.0775 0.0
H2450 H 0.77512 0.73082 0.05476 0.0
H2451 H 0.77307 0.70886 0.0617 0.0
H2452 H 0.78775 0.74561 0.01065 0.0
H2453 H 0.78675 0.73666 0.14083 0.0
H2454 H 0.79383 0.72673 0.19768 0.0
H2455 H 0.82899 0.74313 0.18456 0.0
H2456 H 0.82215 0.75303 0.12734 0.0
H2457 H 0.77248 0.80565 0.05965 0.0
H2458 H 0.77491 0.78377 0.05285 0.0
H2459 H 0.81307 0.78699 0.07851 0.0
H2460 H 0.81065 0.80896 0.08625 0.0
H2461 H 0.80316 0.76926 0.11692 0.0
H2462 H 0.80314 0.78033 0.99025 0.0
H2463 H 0.7957 0.79046 0.93417 0.0
H2464 H 0.76233 0.77033 0.94061 0.0
H2465 H 0.76949 0.7602 0.99703 0.0
C2466 C 0.80351 0.7114 0.07825 0.0
C2467 C 0.79211 0.70574 0.07446 0.0
C2468 C 0.80467 0.72398 0.07394 0.0
C2469 C 0.79443 0.73115 0.06613 0.0
C2470 C 0.78314 0.72547 0.06085 0.0
C2471 C 0.78199 0.71291 0.06497 0.0
C2472 C 0.79527 0.74462 0.06515 0.0
C2473 C 0.79105 0.7508 0.03393 0.0
C2474 C 0.79989 0.75137 0.09516 0.0
C2475 C 0.80399 0.74547 0.12962 0.0
C2476 C 0.79602 0.73807 0.14994 0.0
C2477 C 0.79998 0.73246 0.18224 0.0
C2478 C 0.81187 0.73426 0.19466 0.0
C2479 C 0.8198 0.74172 0.17486 0.0
C2480 C 0.81588 0.74734 0.14251 0.0
C2481 C 0.78143 0.80176 0.0635 0.0
C2482 C 0.79137 0.80909 0.07355 0.0
C2483 C 0.78282 0.78922 0.05938 0.0
C2484 C 0.79421 0.78373 0.06469 0.0
C2485 C 0.8042 0.79103 0.07416 0.0
C2486 C 0.80281 0.80359 0.07851 0.0
C2487 C 0.79544 0.7703 0.06261 0.0
C2488 C 0.80003 0.76411 0.09332 0.0
C2489 C 0.79114 0.76355 0.03215 0.0
C2490 C 0.78683 0.76956 0.99804 0.0
C2491 C 0.79418 0.77812 0.97985 0.0
C2492 C 0.79002 0.78385 0.94798 0.0
C2493 C 0.77854 0.78105 0.93387 0.0
C2494 C 0.77121 0.77249 0.95157 0.0
C2495 C 0.77533 0.76674 0.98347 0.0
H2496 H 0.77533 0.78551 0.9092 0.0
H2497 H 0.81492 0.72991 0.21968 0.0
H2498 H 0.72194 0.20686 0.54849 0.0
H2499 H 0.72082 0.22892 0.54367 0.0
H2500 H 0.68451 0.22833 0.58817 0.0
H2501 H 0.6855 0.20612 0.59313 0.0
H2502 H 0.68775 0.24556 0.53056 0.0
H2503 H 0.70616 0.23421 0.64468 0.0
H2504 H 0.72051 0.22315 0.68457 0.0
H2505 H 0.7506 0.24006 0.62956 0.0
H2506 H 0.73643 0.25108 0.58891 0.0
H2507 H 0.6888 0.30783 0.59116 0.0
H2508 H 0.68659 0.28578 0.5856 0.0
H2509 H 0.7237 0.28303 0.54825 0.0
H2510 H 0.72603 0.305 0.55389 0.0
H2511 H 0.71895 0.26739 0.60371 0.0
H2512 H 0.70034 0.27878 0.48933 0.0
H2513 H 0.68585 0.28972 0.44962 0.0
H2514 H 0.65595 0.27292 0.50592 0.0
H2515 H 0.67027 0.262 0.54633 0.0
C2516 C 0.71363 0.21136 0.55681 0.0
C2517 C 0.70386 0.20471 0.57166 0.0
C2518 C 0.71302 0.22398 0.55405 0.0
C2519 C 0.70266 0.23025 0.56611 0.0
C2520 C 0.6926 0.22364 0.57884 0.0
C2521 C 0.6932 0.21096 0.58171 0.0
C2522 C 0.70281 0.2437 0.5679 0.0
C2523 C 0.69445 0.25036 0.5469 0.0
C2524 C 0.71167 0.24992 0.58892 0.0
C2525 C 0.72023 0.24338 0.6135 0.0
C2526 C 0.71584 0.23549 0.64088 0.0
C2527 C 0.72394 0.22925 0.66366 0.0
C2528 C 0.73646 0.23088 0.65954 0.0
C2529 C 0.7409 0.23879 0.63269 0.0
C2530 C 0.73284 0.24505 0.60978 0.0
C2531 C 0.69646 0.30256 0.58135 0.0
C2532 C 0.70762 0.3082 0.57313 0.0
C2533 C 0.69516 0.28996 0.57808 0.0
C2534 C 0.70498 0.28277 0.56644 0.0
C2535 C 0.71601 0.28841 0.55736 0.0
C2536 C 0.71732 0.30099 0.56051 0.0
C2537 C 0.70403 0.26932 0.56581 0.0
C2538 C 0.71223 0.26262 0.5873 0.0
C2539 C 0.695 0.26313 0.54538 0.0
C2540 C 0.68638 0.26968 0.52112 0.0
C2541 C 0.69068 0.27751 0.49347 0.0
C2542 C 0.68249 0.28368 0.47079 0.0
C2543 C 0.66999 0.28204 0.47531 0.0
C2544 C 0.66564 0.2742 0.50248 0.0
C2545 C 0.67378 0.268 0.52526 0.0
H2546 H 0.66367 0.28683 0.45771 0.0
H2547 H 0.74272 0.22603 0.67721 0.0
H2548 H 0.77681 0.30318 0.12495 0.0
H2549 H 0.77921 0.2814 0.13525 0.0
H2550 H 0.81773 0.28447 0.11501 0.0
H2551 H 0.81539 0.30628 0.10416 0.0
H2552 H 0.80779 0.26664 0.07492 0.0
H2553 H 0.80703 0.27829 0.20126 0.0
H2554 H 0.79915 0.28874 0.25623 0.0
H2555 H 0.76583 0.26857 0.2484 0.0
H2556 H 0.77344 0.25812 0.19306 0.0
H2557 H 0.8147 0.20342 0.10463 0.0
H2558 H 0.81738 0.22527 0.11418 0.0
H2559 H 0.77911 0.22889 0.13779 0.0
H2560 H 0.77641 0.20711 0.12929 0.0
H2561 H 0.79177 0.24344 0.18125 0.0
H2562 H 0.79084 0.23445 0.05126 0.0
H2563 H 0.79771 0.22438 0.99441 0.0
H2564 H 0.83324 0.23995 0.00773 0.0
H2565 H 0.82661 0.24999 0.06495 0.0
C2566 C 0.78583 0.29927 0.12317 0.0
C2567 C 0.7959 0.30648 0.11354 0.0
C2568 C 0.7872 0.28681 0.12928 0.0
C2569 C 0.79867 0.28131 0.12616 0.0
C2570 C 0.8088 0.28853 0.11761 0.0
C2571 C 0.80744 0.30101 0.1115 0.0
C2572 C 0.79986 0.2679 0.12889 0.0
C2573 C 0.80455 0.26158 0.09856 0.0
C2574 C 0.79536 0.26129 0.15934 0.0
C2575 C 0.79079 0.26747 0.19284 0.0
C2576 C 0.79799 0.27614 0.21111 0.0
C2577 C 0.79358 0.28205 0.24236 0.0
C2578 C 0.78199 0.27933 0.25576 0.0
C2579 C 0.77481 0.27067 0.23799 0.0
C2580 C 0.77918 0.26473 0.20671 0.0
C2581 C 0.80689 0.20884 0.11236 0.0
C2582 C 0.79531 0.20351 0.11578 0.0
C2583 C 0.80843 0.22134 0.11769 0.0
C2584 C 0.7984 0.22876 0.12607 0.0
C2585 C 0.78698 0.22337 0.13128 0.0
C2586 C 0.78545 0.21089 0.12623 0.0
C2587 C 0.79953 0.24221 0.12706 0.0
C2588 C 0.79524 0.24853 0.15798 0.0
C2589 C 0.80429 0.24885 0.097 0.0
C2590 C 0.80827 0.24285 0.06259 0.0
C2591 C 0.80014 0.23565 0.0422 0.0
C2592 C 0.80399 0.22996 0.0099 0.0
C2593 C 0.81592 0.23149 0.99753 0.0
C2594 C 0.82401 0.23875 0.01739 0.0
C2595 C 0.82021 0.24444 0.04975 0.0
H2596 H 0.81888 0.22708 0.97251 0.0
H2597 H 0.77858 0.28393 0.27995 0.0
H2598 H 0.68631 0.7039 0.59446 0.0
H2599 H 0.68412 0.72591 0.60066 0.0
H2600 H 0.72175 0.72875 0.63289 0.0
H2601 H 0.72398 0.70675 0.62737 0.0
H2602 H 0.7077 0.74429 0.67207 0.0
H2603 H 0.71344 0.73367 0.54476 0.0
H2604 H 0.70877 0.72289 0.48707 0.0
H2605 H 0.67314 0.73881 0.4855 0.0
H2606 H 0.67754 0.74957 0.5435 0.0
H2607 H 0.72288 0.80435 0.61894 0.0
H2608 H 0.72107 0.78247 0.62802 0.0
H2609 H 0.68357 0.78389 0.59358 0.0
H2610 H 0.68535 0.80581 0.58378 0.0
H2611 H 0.69558 0.76624 0.55878 0.0
H2612 H 0.6912 0.77895 0.68365 0.0
H2613 H 0.69681 0.79019 0.73974 0.0
H2614 H 0.73062 0.77077 0.74519 0.0
H2615 H 0.72531 0.75954 0.68878 0.0
C2616 C 0.69409 0.70917 0.60333 0.0
C2617 C 0.70536 0.70356 0.61 0.0
C2618 C 0.69282 0.72177 0.60678 0.0
C2619 C 0.70282 0.72899 0.61667 0.0
C2620 C 0.71391 0.72336 0.62515 0.0
C2621 C 0.71518 0.71077 0.62182 0.0
C2622 C 0.70201 0.74245 0.61574 0.0
C2623 C 0.70511 0.74911 0.64728 0.0
C2624 C 0.69842 0.74873 0.58357 0.0
C2625 C 0.69577 0.7423 0.54867 0.0
C2626 C 0.70457 0.73479 0.53226 0.0
C2627 C 0.70198 0.7287 0.49949 0.0
C2628 C 0.69065 0.73013 0.4827 0.0
C2629 C 0.6819 0.73769 0.49859 0.0
C2630 C 0.68444 0.74379 0.53139 0.0
C2631 C 0.7142 0.80006 0.61361 0.0
C2632 C 0.70427 0.80685 0.60051 0.0
C2633 C 0.71316 0.78754 0.61903 0.0
C2634 C 0.70215 0.78155 0.61183 0.0
C2635 C 0.69215 0.78833 0.59938 0.0
C2636 C 0.69318 0.80086 0.59386 0.0
C2637 C 0.70133 0.76813 0.61506 0.0
C2638 C 0.69797 0.76146 0.58382 0.0
C2639 C 0.70476 0.76188 0.64745 0.0
C2640 C 0.70789 0.76846 0.6818 0.0
C2641 C 0.69987 0.77712 0.69667 0.0
C2642 C 0.70299 0.78349 0.72854 0.0
C2643 C 0.71407 0.78121 0.74597 0.0
C2644 C 0.72204 0.77253 0.73165 0.0
C2645 C 0.71897 0.76615 0.69975 0.0
H2646 H 0.71648 0.78616 0.77061 0.0
H2647 H 0.68866 0.72541 0.45732 0.0
H2648 H 0.55165 0.44234 0.84626 0.0
H2649 H 0.52965 0.44072 0.85457 0.0
H2650 H 0.52782 0.47892 0.88069 0.0
H2651 H 0.5498 0.4806 0.87308 0.0
H2652 H 0.5128 0.46597 0.92419 0.0
H2653 H 0.52144 0.46884 0.79462 0.0
H2654 H 0.53119 0.46275 0.73646 0.0
H2655 H 0.51461 0.42751 0.7441 0.0
H2656 H 0.50488 0.43334 0.8026 0.0
H2657 H 0.45222 0.48125 0.87655 0.0
H2658 H 0.47416 0.47911 0.88367 0.0
H2659 H 0.47154 0.44105 0.85637 0.0
H2660 H 0.44956 0.44313 0.8486 0.0
H2661 H 0.4888 0.45196 0.81687 0.0
H2662 H 0.47826 0.45026 0.94411 0.0
H2663 H 0.46833 0.45698 1.00131 0.0
H2664 H 0.48817 0.49056 0.99751 0.0
H2665 H 0.49811 0.48412 0.93999 0.0
C2666 C 0.54659 0.45038 0.85416 0.0
C2667 C 0.55249 0.46163 0.85865 0.0
C2668 C 0.53401 0.44943 0.8588 0.0
C2669 C 0.52708 0.45974 0.86771 0.0
C2670 C 0.53299 0.47085 0.87375 0.0
C2671 C 0.54556 0.4718 0.86923 0.0
C2672 C 0.51361 0.45913 0.86883 0.0
C2673 C 0.50753 0.46297 0.90068 0.0
C2674 C 0.50675 0.45499 0.8384 0.0
C2675 C 0.51255 0.45148 0.80318 0.0
C2676 C 0.51995 0.45976 0.78404 0.0
C2677 C 0.52546 0.45636 0.751 0.0
C2678 C 0.52355 0.44474 0.73666 0.0
C2679 C 0.5161 0.4365 0.75528 0.0
C2680 C 0.51058 0.43985 0.78837 0.0
C2681 C 0.45626 0.47238 0.87249 0.0
C2682 C 0.44911 0.46237 0.86186 0.0
C2683 C 0.46882 0.47116 0.87677 0.0
C2684 C 0.47449 0.4599 0.87083 0.0
C2685 C 0.46735 0.44982 0.86113 0.0
C2686 C 0.45478 0.45103 0.85679 0.0
C2687 C 0.48794 0.45888 0.87217 0.0
C2688 C 0.49403 0.45478 0.84066 0.0
C2689 C 0.49478 0.46285 0.90284 0.0
C2690 C 0.48887 0.46673 0.93756 0.0
C2691 C 0.48045 0.45911 0.95532 0.0
C2692 C 0.47482 0.46287 0.98783 0.0
C2693 C 0.4776 0.4742 0.003 0.0
C2694 C 0.48603 0.48179 0.98572 0.0
C2695 C 0.49167 0.47808 0.95319 0.0
H2696 H 0.47323 0.47709 0.02816 0.0
H2697 H 0.52782 0.44212 0.71107 0.0
H2698 H 0.95039 0.53546 0.37948 0.0
H2699 H 0.97215 0.53864 0.38693 0.0
H2700 H 0.96882 0.57445 0.3397 0.0
H2701 H 0.94698 0.57125 0.33147 0.0
H2702 H 0.98661 0.56213 0.30772 0.0
H2703 H 0.97551 0.57064 0.43137 0.0
H2704 H 0.96534 0.56731 0.49086 0.0
H2705 H 0.98534 0.53416 0.50581 0.0
H2706 H 0.9955 0.5372 0.44615 0.0
H2707 H 0.04973 0.57196 0.33435 0.0
H2708 H 0.02781 0.57468 0.34194 0.0
H2709 H 0.02473 0.53801 0.38281 0.0
H2710 H 0.04663 0.53523 0.37567 0.0
H2711 H 0.01021 0.55382 0.42112 0.0
H2712 H 0.01889 0.544 0.29425 0.0
H2713 H 0.02885 0.54695 0.23422 0.0
H2714 H 0.01307 0.58254 0.22563 0.0
H2715 H 0.00315 0.57985 0.28589 0.0
C2716 C 0.95422 0.54409 0.37108 0.0
C2717 C 0.94692 0.55308 0.35469 0.0
C2718 C 0.96669 0.54593 0.3756 0.0
C2719 C 0.97212 0.55683 0.36419 0.0
C2720 C 0.96481 0.56597 0.34877 0.0
C2721 C 0.95232 0.56414 0.34417 0.0
C2722 C 0.98554 0.55821 0.36563 0.0
C2723 C 0.99175 0.5606 0.33274 0.0
C2724 C 0.99227 0.55596 0.39809 0.0
C2725 C 0.98622 0.55411 0.43412 0.0
C2726 C 0.97768 0.5626 0.4472 0.0
C2727 C 0.97192 0.56076 0.48099 0.0
C2728 C 0.97468 0.55052 0.50207 0.0
C2729 C 0.98321 0.54209 0.48945 0.0
C2730 C 0.98899 0.54387 0.45567 0.0
C2731 C 0.04443 0.56451 0.34537 0.0
C2732 C 0.04993 0.55333 0.35405 0.0
C2733 C 0.03189 0.56608 0.34962 0.0
C2734 C 0.02463 0.55649 0.36251 0.0
C2735 C 0.03017 0.54552 0.37278 0.0
C2736 C 0.04269 0.54393 0.3685 0.0
C2737 C 0.0112 0.55756 0.36317 0.0
C2738 C 0.00502 0.55558 0.39635 0.0
C2739 C 0.00447 0.56018 0.331 0.0
C2740 C 0.0104 0.56179 0.29475 0.0
C2741 C 0.01763 0.55249 0.27969 0.0
C2742 C 0.02325 0.55411 0.24561 0.0
C2743 C 0.02163 0.56494 0.22617 0.0
C2744 C 0.01435 0.57417 0.24075 0.0
C2745 C 0.00872 0.5726 0.27485 0.0
H2746 H 0.02599 0.56618 0.19979 0.0
H2747 H 0.97021 0.54911 0.52821 0.0
H2748 H 0.94849 0.43926 0.84205 0.0
H2749 H 0.97052 0.43697 0.83598 0.0
H2750 H 0.97286 0.47264 0.78739 0.0
H2751 H 0.95088 0.47499 0.79299 0.0
H2752 H 0.98849 0.45674 0.75442 0.0
H2753 H 0.97779 0.46919 0.87731 0.0
H2754 H 0.96713 0.46751 0.93668 0.0
H2755 H 0.98382 0.43279 0.95573 0.0
H2756 H 0.99446 0.4342 0.89617 0.0
H2757 H 0.04748 0.4775 0.79946 0.0
H2758 H 0.02573 0.47406 0.79171 0.0
H2759 H 0.02917 0.43883 0.84262 0.0
H2760 H 0.05098 0.44223 0.8509 0.0
H2761 H 0.01076 0.45178 0.87201 0.0
H2762 H 0.02378 0.44112 0.75109 0.0
H2763 H 0.03486 0.44395 0.69284 0.0
H2764 H 0.01417 0.47622 0.67054 0.0
H2765 H 0.00309 0.47368 0.72893 0.0
C2766 C 0.95365 0.44654 0.82948 0.0
C2767 C 0.94793 0.45737 0.8184 0.0
C2768 C 0.96625 0.44522 0.82614 0.0
C2769 C 0.97334 0.45471 0.81172 0.0
C2770 C 0.96757 0.46522 0.79866 0.0
C2771 C 0.95499 0.46656 0.80206 0.0
C2772 C 0.98681 0.45416 0.81283 0.0
C2773 C 0.99338 0.45569 0.7801 0.0
C2774 C 0.99317 0.45258 0.84629 0.0
C2775 C 0.9868 0.45172 0.8821 0.0
C2776 C 0.9791 0.46115 0.89402 0.0
C2777 C 0.97308 0.46026 0.92772 0.0
C2778 C 0.97476 0.45003 0.94991 0.0
C2779 C 0.9825 0.44069 0.93847 0.0
C2780 C 0.98853 0.44153 0.90476 0.0
C2781 C 0.04366 0.46896 0.80874 0.0
C2782 C 0.05099 0.46016 0.8259 0.0
C2783 C 0.03122 0.46698 0.80408 0.0
C2784 C 0.02584 0.45614 0.81627 0.0
C2785 C 0.03315 0.44725 0.83292 0.0
C2786 C 0.04561 0.44921 0.83754 0.0
C2787 C 0.01249 0.45446 0.81363 0.0
C2788 C 0.00591 0.45258 0.84616 0.0
C2789 C 0.00615 0.4558 0.78002 0.0
C2790 C 0.01266 0.45725 0.74455 0.0
C2791 C 0.02164 0.44886 0.73388 0.0
C2792 C 0.02792 0.45041 0.70081 0.0
C2793 C 0.02524 0.46027 0.67804 0.0
C2794 C 0.01624 0.46858 0.68822 0.0
C2795 C 0.00995 0.46709 0.72127 0.0
H2796 H 0.03012 0.46147 0.65248 0.0
H2797 H 0.9701 0.44936 0.976 0.0
H2798 H 0.44969 0.56684 0.35255 0.0
H2799 H 0.47178 0.56815 0.34623 0.0
H2800 H 0.47217 0.53351 0.29072 0.0
H2801 H 0.45016 0.53202 0.29745 0.0
H2802 H 0.48822 0.53382 0.34473 0.0
H2803 H 0.47791 0.56045 0.24497 0.0
H2804 H 0.46785 0.57793 0.21543 0.0
H2805 H 0.48645 0.60237 0.28822 0.0
H2806 H 0.4965 0.58501 0.31854 0.0
H2807 H 0.54975 0.53208 0.29588 0.0
H2808 H 0.52773 0.53369 0.28973 0.0
H2809 H 0.52825 0.56762 0.34903 0.0
H2810 H 0.55038 0.56619 0.35486 0.0
H2811 H 0.51184 0.56816 0.2926 0.0
H2812 H 0.5215 0.54176 0.39349 0.0
H2813 H 0.53153 0.52443 0.42393 0.0
H2814 H 0.51386 0.49971 0.3499 0.0
H2815 H 0.50385 0.51693 0.31867 0.0
C2816 C 0.45445 0.55958 0.33852 0.0
C2817 C 0.44815 0.54928 0.32572 0.0
C2818 C 0.46709 0.56037 0.33481 0.0
C2819 C 0.47364 0.55094 0.31789 0.0
C2820 C 0.46731 0.54087 0.30398 0.0
C2821 C 0.45471 0.54005 0.30782 0.0
C2822 C 0.48714 0.5511 0.31703 0.0
C2823 C 0.49336 0.54125 0.33274 0.0
C2824 C 0.49388 0.56096 0.3025 0.0
C2825 C 0.48787 0.57142 0.28426 0.0
C2826 C 0.47978 0.56954 0.25488 0.0
C2827 C 0.47409 0.57943 0.23796 0.0
C2828 C 0.47649 0.59125 0.25 0.0
C2829 C 0.4846 0.5932 0.27895 0.0
C2830 C 0.4903 0.58335 0.29599 0.0
C2831 C 0.54523 0.53996 0.3073 0.0
C2832 C 0.55183 0.54893 0.32627 0.0
C2833 C 0.53262 0.54086 0.3038 0.0
C2834 C 0.52633 0.55066 0.31951 0.0
C2835 C 0.53293 0.55995 0.33683 0.0
C2836 C 0.54557 0.5591 0.34021 0.0
C2837 C 0.51283 0.5508 0.3198 0.0
C2838 C 0.50665 0.56072 0.30431 0.0
C2839 C 0.50608 0.54102 0.33465 0.0
C2840 C 0.51202 0.53064 0.35352 0.0
C2841 C 0.51982 0.53264 0.38353 0.0
C2842 C 0.52549 0.52284 0.40095 0.0
C2843 C 0.52336 0.51098 0.38879 0.0
C2844 C 0.51552 0.5089 0.35925 0.0
C2845 C 0.50984 0.51868 0.3417 0.0
H2846 H 0.52775 0.5034 0.40232 0.0
H2847 H 0.47208 0.59889 0.23686 0.0
H2848 H 0.24958 0.17026 0.18035 0.0
H2849 H 0.2562 0.16634 0.2429 0.0
H2850 H 0.22861 0.13869 0.25406 0.0
H2851 H 0.22153 0.14304 0.19155 0.0
H2852 H 0.22817 0.15128 0.31165 0.0
H2853 H 0.26049 0.13202 0.24984 0.0
H2854 H 0.27692 0.12925 0.20456 0.0
H2855 H 0.29634 0.1594 0.25105 0.0
H2856 H 0.27995 0.16247 0.29631 0.0
H2857 H 0.27672 0.14331 0.47201 0.0
H2858 H 0.2697 0.13855 0.40969 0.0
H2859 H 0.24525 0.1692 0.41366 0.0
H2860 H 0.25178 0.17361 0.47605 0.0
H2861 H 0.27148 0.14961 0.34915 0.0
H2862 H 0.22114 0.16634 0.36116 0.0
H2863 H 0.20457 0.16612 0.40679 0.0
H2864 H 0.22086 0.13542 0.46041 0.0
H2865 H 0.23743 0.13533 0.41483 0.0
C2866 C 0.24502 0.16321 0.19582 0.0
C2867 C 0.23503 0.15695 0.18085 0.0
C2868 C 0.24888 0.1609 0.2317 0.0
C2869 C 0.24307 0.15206 0.25333 0.0
C2870 C 0.23328 0.14555 0.23806 0.0
C2871 C 0.22927 0.148 0.20223 0.0
C2872 C 0.24668 0.15035 0.29256 0.0
C2873 C 0.23764 0.1508 0.31977 0.0
C2874 C 0.25902 0.14932 0.30349 0.0
C2875 C 0.26894 0.14751 0.27637 0.0
C2876 C 0.26822 0.13811 0.25027 0.0
C2877 C 0.27754 0.13648 0.22462 0.0
C2878 C 0.28766 0.14415 0.2249 0.0
C2879 C 0.2885 0.15346 0.25088 0.0
C2880 C 0.2792 0.15514 0.27658 0.0
C2881 C 0.26971 0.1489 0.45972 0.0
C2882 C 0.26475 0.15878 0.47912 0.0
C2883 C 0.26573 0.1462 0.42403 0.0
C2884 C 0.25678 0.15338 0.40693 0.0
C2885 C 0.25188 0.16326 0.42638 0.0
C2886 C 0.2557 0.16584 0.46213 0.0
C2887 C 0.25299 0.15106 0.36814 0.0
C2888 C 0.262 0.14988 0.34102 0.0
C2889 C 0.2406 0.15097 0.35734 0.0
C2890 C 0.23058 0.15088 0.38467 0.0
C2891 C 0.22115 0.15949 0.38255 0.0
C2892 C 0.21177 0.15944 0.40845 0.0
C2893 C 0.21168 0.15078 0.43653 0.0
C2894 C 0.22096 0.14214 0.43872 0.0
C2895 C 0.23036 0.14215 0.41289 0.0
H2896 H 0.20441 0.15076 0.45656 0.0
H2897 H 0.29486 0.14287 0.20501 0.0
H2898 H 0.09567 0.00734 0.44188 0.0
H2899 H 0.09929 0.01354 0.50549 0.0
H2900 H 0.10621 0.97625 0.5353 0.0
H2901 H 0.1028 0.96999 0.47146 0.0
H2902 H 0.08793 0.9883 0.57785 0.0
H2903 H 0.12902 0.99473 0.53758 0.0
H2904 H 0.14501 0.00303 0.49729 0.0
H2905 H 0.13376 0.03936 0.5238 0.0
H2906 H 0.11759 0.03128 0.56386 0.0
H2907 H 0.09816 0.0007 0.76378 0.0
H2908 H 0.1016 0.99348 0.70121 0.0
H2909 H 0.10327 0.03056 0.66284 0.0
H2910 H 0.10043 0.03782 0.72586 0.0
H2911 H 0.11838 0.01778 0.62446 0.0
H2912 H 0.07663 0.01273 0.65778 0.0
H2913 H 0.0593 0.00579 0.69533 0.0
H2914 H 0.06993 0.96865 0.67849 0.0
H2915 H 0.08742 0.97539 0.64122 0.0
C2916 C 0.09819 0.00048 0.46182 0.0
C2917 C 0.09893 0.98817 0.45166 0.0
C2918 C 0.10029 0.00405 0.49814 0.0
C2919 C 0.10303 0.99536 0.5251 0.0
C2920 C 0.10413 0.9831 0.51487 0.0
C2921 C 0.10223 0.97955 0.47837 0.0
C2922 C 0.10369 0.99897 0.56436 0.0
C2923 C 0.09474 0.99455 0.58828 0.0
C2924 C 0.11227 0.00751 0.57748 0.0
C2925 C 0.12202 0.01239 0.55349 0.0
C2926 C 0.12989 0.00449 0.53458 0.0
C2927 C 0.139 0.00916 0.51183 0.0
C2928 C 0.14038 0.02171 0.50792 0.0
C2929 C 0.13267 0.02963 0.52683 0.0
C2930 C 0.12354 0.02501 0.5496 0.0
C2931 C 0.09947 0.00732 0.7421 0.0
C2932 C 0.09893 0.01983 0.74968 0.0
C2933 C 0.10135 0.00318 0.70624 0.0
C2934 C 0.10235 0.01145 0.67698 0.0
C2935 C 0.10246 0.02397 0.68481 0.0
C2936 C 0.10082 0.02812 0.72087 0.0
C2937 C 0.10261 0.00707 0.63819 0.0
C2938 C 0.11165 0.01141 0.61425 0.0
C2939 C 0.09392 0.99865 0.62469 0.0
C2940 C 0.08341 0.99457 0.64707 0.0
C2941 C 0.07532 0.00309 0.66232 0.0
C2942 C 0.06547 0.9992 0.68352 0.0
C2943 C 0.06354 0.98679 0.68938 0.0
C2944 C 0.07145 0.97826 0.67398 0.0
C2945 C 0.08133 0.98211 0.6528 0.0
H2946 H 0.0559 0.98379 0.70579 0.0
H2947 H 0.14745 0.02531 0.4903 0.0
H2948 H 0.2173 0.86052 0.96365 0.0
H2949 H 0.22349 0.86369 0.89961 0.0
H2950 H 0.26075 0.85639 0.92893 0.0
H2951 H 0.25462 0.853 0.99275 0.0
H2952 H 0.25717 0.87642 0.87661 0.0
H2953 H 0.24628 0.83416 0.8971 0.0
H2954 H 0.23249 0.81779 0.91721 0.0
H2955 H 0.20557 0.8298 0.83987 0.0
H2956 H 0.21915 0.84637 0.8197 0.0
H2957 H 0.28464 0.85797 0.70871 0.0
H2958 H 0.27728 0.86149 0.77114 0.0
H2959 H 0.24027 0.85775 0.73329 0.0
H2960 H 0.24766 0.85365 0.67125 0.0
H2961 H 0.24254 0.84485 0.78997 0.0
H2962 H 0.25347 0.88589 0.76437 0.0
H2963 H 0.26653 0.90283 0.74421 0.0
H2964 H 0.29218 0.89444 0.82941 0.0
H2965 H 0.27935 0.87734 0.8498 0.0
C2966 C 0.22684 0.85982 0.95659 0.0
C2967 C 0.23547 0.85644 0.98319 0.0
C2968 C 0.23035 0.86161 0.92 0.0
C2969 C 0.24257 0.86022 0.90954 0.0
C2970 C 0.25129 0.85754 0.93645 0.0
C2971 C 0.24776 0.85555 0.97287 0.0
C2972 C 0.24612 0.86044 0.87021 0.0
C2973 C 0.25405 0.86951 0.85757 0.0
C2974 C 0.24179 0.85159 0.8453 0.0
C2975 C 0.23367 0.84158 0.85722 0.0
C2976 C 0.23738 0.83338 0.88463 0.0
C2977 C 0.22961 0.82405 0.89599 0.0
C2978 C 0.21814 0.82278 0.87991 0.0
C2979 C 0.21444 0.83081 0.85236 0.0
C2980 C 0.22217 0.84017 0.84094 0.0
C2981 C 0.27493 0.85814 0.71359 0.0
C2982 C 0.26673 0.85551 0.68507 0.0
C2983 C 0.2707 0.8602 0.74935 0.0
C2984 C 0.25817 0.85999 0.75716 0.0
C2985 C 0.24997 0.85791 0.72821 0.0
C2986 C 0.2542 0.85562 0.69266 0.0
C2987 C 0.25366 0.8609 0.79576 0.0
C2988 C 0.24557 0.85194 0.80852 0.0
C2989 C 0.25774 0.86998 0.82056 0.0
C2990 C 0.26549 0.88026 0.80841 0.0
C2991 C 0.26194 0.8876 0.77864 0.0
C2992 C 0.26929 0.89724 0.7672 0.0
C2993 C 0.28019 0.89969 0.78546 0.0
C2994 C 0.28374 0.89252 0.81527 0.0
C2995 C 0.27642 0.88286 0.82681 0.0
H2996 H 0.28588 0.90716 0.77656 0.0
H2997 H 0.21214 0.81555 0.88874 0.0
H2998 H 0.40345 0.00218 0.93811 0.0
H2999 H 0.39942 0.99625 1.00169 0.0
H3000 H 0.39248 0.03367 0.02984 0.0
H3001 H 0.39633 0.03968 0.96599 0.0
H3002 H 0.41022 0.02184 0.07421 0.0
H3003 H 0.36953 0.01509 0.03105 0.0
H3004 H 0.35392 0.00663 0.98973 0.0
H3005 H 0.3651 0.97041 0.01785 0.0
H3006 H 0.3809 0.97866 0.05895 0.0
H3007 H 0.39908 0.00927 0.25964 0.0
H3008 H 0.39579 0.01658 0.19705 0.0
H3009 H 0.39454 0.97954 0.1581 0.0
H3010 H 0.3972 0.9722 0.22107 0.0
H3011 H 0.37962 0.99224 0.11913 0.0
H3012 H 0.42115 0.99764 0.15498 0.0
H3013 H 0.43813 0.00477 0.19359 0.0
H3014 H 0.42722 0.04179 0.176 0.0
H3015 H 0.41006 0.03486 0.13766 0.0
C3016 C 0.40085 0.00913 0.95766 0.0
C3017 C 0.40023 0.02141 0.94704 0.0
C3018 C 0.39852 0.00571 0.99398 0.0
C3019 C 0.39563 0.01451 0.02047 0.0
C3020 C 0.39466 0.02674 0.00976 0.0
C3021 C 0.39682 0.03015 0.97327 0.0
C3022 C 0.39465 0.01103 0.05978 0.0
C3023 C 0.40337 0.01557 0.08426 0.0
C3024 C 0.38601 0.00248 0.07245 0.0
C3025 C 0.37647 0.9975 0.04786 0.0
C3026 C 0.36873 0.00532 0.02819 0.0
C3027 C 0.35983 0.00056 0.00486 0.0
C3028 C 0.35854 0.98799 1.00111 0.0
C3029 C 0.36612 0.98015 0.02076 0.0
C3030 C 0.37504 0.98486 0.04412 0.0
C3031 C 0.39788 0.00268 0.23781 0.0
C3032 C 0.39849 0.99016 0.24521 0.0
C3033 C 0.39609 0.00687 0.20196 0.0
C3034 C 0.39527 0.99863 0.17253 0.0
C3035 C 0.39521 0.98611 0.18019 0.0
C3036 C 0.39674 0.98191 0.21623 0.0
C3037 C 0.39522 0.00306 0.13378 0.0
C3038 C 0.38637 0.99864 0.1093 0.0
C3039 C 0.40394 0.01153 0.12078 0.0
C3040 C 0.41425 0.01573 0.1438 0.0
C3041 C 0.42232 0.0073 0.15957 0.0
C3042 C 0.43198 0.0113 0.18137 0.0
C3043 C 0.43373 0.02373 0.18733 0.0
C3044 C 0.42584 0.03217 0.17142 0.0
C3045 C 0.41615 0.02821 0.14964 0.0
H3046 H 0.44122 0.02681 0.20421 0.0
H3047 H 0.35164 0.98433 0.98303 0.0
H3048 H 0.77931 0.85989 0.96236 0.0
H3049 H 0.77193 0.86261 0.89954 0.0
H3050 H 0.73527 0.85554 0.93599 0.0
H3051 H 0.74269 0.85233 0.99845 0.0
H3052 H 0.7392 0.8428 0.87888 0.0
H3053 H 0.74575 0.88469 0.90687 0.0
H3054 H 0.75706 0.90271 0.92817 0.0
H3055 H 0.78357 0.89735 0.84313 0.0
H3056 H 0.77251 0.87919 0.8216 0.0
H3057 H 0.71193 0.85756 0.70746 0.0
H3058 H 0.7181 0.86059 0.77155 0.0
H3059 H 0.75575 0.85731 0.74015 0.0
H3060 H 0.74966 0.85403 0.67622 0.0
H3061 H 0.75037 0.87638 0.79445 0.0
H3062 H 0.74403 0.83351 0.7705 0.0
H3063 H 0.73215 0.81584 0.74922 0.0
H3064 H 0.70427 0.82394 0.82804 0.0
H3065 H 0.71591 0.84177 0.84942 0.0
C3066 C 0.76966 0.85912 0.95707 0.0
C3067 C 0.76159 0.85587 0.98536 0.0
C3068 C 0.76542 0.86073 0.9211 0.0
C3069 C 0.75299 0.85937 0.91285 0.0
C3070 C 0.74489 0.85658 0.94147 0.0
C3071 C 0.74914 0.8548 0.97725 0.0
C3072 C 0.74855 0.85998 0.87417 0.0
C3073 C 0.74148 0.85029 0.86078 0.0
C3074 C 0.75167 0.86959 0.84999 0.0
C3075 C 0.75835 0.88051 0.86283 0.0
C3076 C 0.75405 0.8873 0.89288 0.0
C3077 C 0.7604 0.89755 0.90496 0.0
C3078 C 0.77105 0.90115 0.88707 0.0
C3079 C 0.77533 0.89454 0.85699 0.0
C3080 C 0.76901 0.88427 0.8448 0.0
C3081 C 0.72153 0.85772 0.71409 0.0
C3082 C 0.73031 0.8555 0.68684 0.0
C3083 C 0.72503 0.85942 0.7507 0.0
C3084 C 0.73738 0.8591 0.76055 0.0
C3085 C 0.74618 0.8576 0.73308 0.0
C3086 C 0.74268 0.85569 0.69661 0.0
C3087 C 0.74106 0.85928 0.79974 0.0
C3088 C 0.74802 0.86903 0.81298 0.0
C3089 C 0.73775 0.8498 0.82396 0.0
C3090 C 0.73077 0.83906 0.81124 0.0
C3091 C 0.73531 0.83159 0.78305 0.0
C3092 C 0.72864 0.82153 0.77102 0.0
C3093 C 0.71745 0.81879 0.78718 0.0
C3094 C 0.71293 0.82609 0.81549 0.0
C3095 C 0.71956 0.83617 0.82759 0.0
H3096 H 0.71229 0.811 0.77783 0.0
H3097 H 0.77595 0.90909 0.89647 0.0
H3098 H 0.88705 0.03379 0.72815 0.0
H3099 H 0.88234 0.02672 0.66585 0.0
H3100 H 0.91181 0.00091 0.67246 0.0
H3101 H 0.91615 0.00751 0.7348 0.0
H3102 H 0.89398 0.02796 0.60631 0.0
H3103 H 0.90843 0.97694 0.61976 0.0
H3104 H 0.90705 0.96041 0.66532 0.0
H3105 H 0.87657 0.97805 0.71621 0.0
H3106 H 0.87766 0.99459 0.67066 0.0
H3107 H 0.91538 0.00539 0.43936 0.0
H3108 H 0.9112 0.012 0.50178 0.0
H3109 H 0.88233 0.98557 0.51005 0.0
H3110 H 0.88692 0.97848 0.44769 0.0
H3111 H 0.89426 0.98461 0.56891 0.0
H3112 H 0.87701 0.01768 0.50537 0.0
H3113 H 0.87539 0.03421 0.45988 0.0
H3114 H 0.90582 0.05237 0.50929 0.0
H3115 H 0.90774 0.03588 0.55478 0.0
C3116 C 0.89237 0.02645 0.71649 0.0
C3117 C 0.90192 0.02116 0.73657 0.0
C3118 C 0.88971 0.02245 0.68079 0.0
C3119 C 0.89659 0.01313 0.66437 0.0
C3120 C 0.9061 0.00784 0.68461 0.0
C3121 C 0.90863 0.0117 0.72036 0.0
C3122 C 0.89447 0.00943 0.62541 0.0
C3123 C 0.89394 0.01847 0.59821 0.0
C3124 C 0.89397 0.99706 0.61458 0.0
C3125 C 0.89319 0.98705 0.64188 0.0
C3126 C 0.90139 0.97726 0.64053 0.0
C3127 C 0.90067 0.96789 0.66639 0.0
C3128 C 0.89174 0.96819 0.69369 0.0
C3129 C 0.8835 0.97784 0.69512 0.0
C3130 C 0.88418 0.98723 0.66931 0.0
C3131 C 0.90802 0.00107 0.45419 0.0
C3132 C 0.90146 0.99142 0.43843 0.0
C3133 C 0.90557 0.00493 0.48997 0.0
C3134 C 0.89629 0.99946 0.51072 0.0
C3135 C 0.88952 0.98998 0.49473 0.0
C3136 C 0.89211 0.98596 0.45899 0.0
C3137 C 0.89431 0.00314 0.54978 0.0
C3138 C 0.89409 0.99409 0.57701 0.0
C3139 C 0.89366 0.01551 0.56064 0.0
C3140 C 0.89255 0.02549 0.53339 0.0
C3141 C 0.8834 0.02516 0.5064 0.0
C3142 C 0.88243 0.03453 0.48063 0.0
C3143 C 0.8905 0.04432 0.48167 0.0
C3144 C 0.89956 0.04478 0.50853 0.0
C3145 C 0.90059 0.03543 0.53435 0.0
H3146 H 0.88973 0.05157 0.46169 0.0
H3147 H 0.89121 0.96094 0.7137 0.0
H3148 H 0.74904 0.17046 0.19043 0.0
H3149 H 0.7426 0.16664 0.25322 0.0
H3150 H 0.76893 0.13769 0.26211 0.0
H3151 H 0.77588 0.14195 0.19942 0.0
H3152 H 0.7329 0.15018 0.29094 0.0
H3153 H 0.77938 0.13566 0.34942 0.0
H3154 H 0.80125 0.13817 0.33628 0.0
H3155 H 0.79399 0.17205 0.28197 0.0
H3156 H 0.77211 0.1698 0.29517 0.0
H3157 H 0.72165 0.14216 0.48176 0.0
H3158 H 0.72845 0.13777 0.41897 0.0
H3159 H 0.75406 0.16743 0.42559 0.0
H3160 H 0.74781 0.17136 0.48847 0.0
H3161 H 0.76414 0.15106 0.38905 0.0
H3162 H 0.72427 0.16935 0.38353 0.0
H3163 H 0.70232 0.17094 0.39661 0.0
H3164 H 0.69624 0.13642 0.34472 0.0
H3165 H 0.71819 0.13458 0.3317 0.0
C3166 C 0.75341 0.16319 0.20553 0.0
C3167 C 0.76307 0.15658 0.19 0.0
C3168 C 0.74967 0.16097 0.24155 0.0
C3169 C 0.75538 0.152 0.26289 0.0
C3170 C 0.76455 0.14487 0.24666 0.0
C3171 C 0.76848 0.14725 0.21071 0.0
C3172 C 0.7521 0.15074 0.30251 0.0
C3173 C 0.73975 0.15027 0.31235 0.0
C3174 C 0.76097 0.151 0.33074 0.0
C3175 C 0.77411 0.15247 0.32284 0.0
C3176 C 0.78247 0.14365 0.33472 0.0
C3177 C 0.79486 0.14503 0.32727 0.0
C3178 C 0.799 0.15524 0.30817 0.0
C3179 C 0.79076 0.16412 0.29662 0.0
C3180 C 0.77837 0.16279 0.30405 0.0
C3181 C 0.72885 0.14761 0.46992 0.0
C3182 C 0.73415 0.15713 0.49006 0.0
C3183 C 0.73268 0.14515 0.43391 0.0
C3184 C 0.74163 0.15241 0.41705 0.0
C3185 C 0.74717 0.16165 0.43775 0.0
C3186 C 0.74355 0.16392 0.47383 0.0
C3187 C 0.74492 0.15093 0.37749 0.0
C3188 C 0.75728 0.15077 0.36766 0.0
C3189 C 0.73605 0.15067 0.34927 0.0
C3190 C 0.72287 0.15176 0.35707 0.0
C3191 C 0.71826 0.16207 0.37515 0.0
C3192 C 0.70582 0.16302 0.38251 0.0
C3193 C 0.6979 0.15377 0.37162 0.0
C3194 C 0.70239 0.14356 0.35323 0.0
C3195 C 0.71483 0.14256 0.34584 0.0
H3196 H 0.68827 0.15452 0.37733 0.0
H3197 H 0.8086 0.15628 0.3024 0.0
H3198 H 0.60163 0.97373 0.20598 0.0
H3199 H 0.60502 0.98093 0.14323 0.0
H3200 H 0.59743 0.01767 0.17793 0.0
H3201 H 0.59354 0.01043 0.2402 0.0
H3202 H 0.58543 0.01361 0.11964 0.0
H3203 H 0.62697 0.00707 0.15242 0.0
H3204 H 0.6447 0.99576 0.17586 0.0
H3205 H 0.64034 0.96916 0.09058 0.0
H3206 H 0.62248 0.98022 0.0669 0.0
H3207 H 0.60226 0.04107 0.95089 0.0
H3208 H 0.60476 0.03472 0.01498 0.0
H3209 H 0.60162 0.99718 0.98244 0.0
H3210 H 0.59889 0.00345 0.91842 0.0
H3211 H 0.62008 0.00239 0.03925 0.0
H3212 H 0.57754 0.00887 0.0102 0.0
H3213 H 0.5602 0.02082 0.98691 0.0
H3214 H 0.56737 0.04861 0.06682 0.0
H3215 H 0.58487 0.03689 0.09023 0.0
C3216 C 0.60087 0.98336 0.20031 0.0
C3217 C 0.59729 0.9915 0.22802 0.0
C3218 C 0.60286 0.98749 0.1644 0.0
C3219 C 0.60158 -0.00011 0.15568 0.0
C3220 C 0.59843 0.00807 0.18376 0.0
C3221 C 0.59625 0.00392 0.21944 0.0
C3222 C 0.60265 0.00425 0.11699 0.0
C3223 C 0.59315 0.01132 0.10244 0.0
C3224 C 0.61257 0.0011 0.09396 0.0
C3225 C 0.62331 0.99442 0.10809 0.0
C3226 C 0.62973 0.99876 0.13883 0.0
C3227 C 0.63982 0.9924 0.15213 0.0
C3228 C 0.64363 0.98173 0.13477 0.0
C3229 C 0.63737 0.97742 0.10402 0.0
C3230 C 0.62728 0.98373 0.09062 0.0
C3231 C 0.60238 0.03145 0.95725 0.0
C3232 C 0.60032 0.02276 0.92964 0.0
C3233 C 0.60377 0.02785 0.99388 0.0
C3234 C 0.60329 0.01549 0.00342 0.0
C3235 C 0.60203 0.00676 0.97562 0.0
C3236 C 0.60044 0.01036 0.93909 0.0
C3237 C 0.60294 0.01173 0.04253 0.0
C3238 C 0.61249 0.00475 0.0569 0.0
C3239 C 0.59315 0.01505 0.0656 0.0
C3240 C 0.5826 0.02208 0.05166 0.0
C3241 C 0.57549 0.01758 0.02257 0.0
C3242 C 0.56562 0.0243 0.00939 0.0
C3243 C 0.56271 0.03549 0.02529 0.0
C3244 C 0.56964 0.03996 0.05448 0.0
C3245 C 0.57954 0.03328 0.06772 0.0
H3246 H 0.55507 0.04068 0.01506 0.0
H3247 H 0.65144 0.97682 0.14511 0.0
H3248 H 0.78391 0.65305 0.97211 0.0
H3249 H 0.77783 0.64929 0.90832 0.0
H3250 H 0.74028 0.6549 0.93769 0.0
H3251 H 0.74628 0.65884 1.00131 0.0
H3252 H 0.74443 0.63524 0.88572 0.0
H3253 H 0.75419 0.67779 0.90531 0.0
H3254 H 0.76751 0.69459 0.92507 0.0
H3255 H 0.79474 0.6832 0.84791 0.0
H3256 H 0.78164 0.66621 0.82809 0.0
H3257 H 0.71668 0.65265 0.71694 0.0
H3258 H 0.72401 0.64945 0.7796 0.0
H3259 H 0.76099 0.65385 0.74221 0.0
H3260 H 0.75364 0.65762 0.67996 0.0
H3261 H 0.75827 0.66695 0.79836 0.0
H3262 H 0.74838 0.62556 0.77377 0.0
H3263 H 0.73572 0.60827 0.75398 0.0
H3264 H 0.70983 0.61631 0.83883 0.0
H3265 H 0.72225 0.63376 0.85884 0.0
C3266 C 0.77434 0.65324 0.96515 0.0
C3267 C 0.76558 0.65633 0.99169 0.0
C3268 C 0.77088 0.65111 0.92869 0.0
C3269 C 0.75861 0.6519 0.91827 0.0
C3270 C 0.74979 0.65423 0.94517 0.0
C3271 C 0.75324 0.65653 0.98148 0.0
C3272 C 0.75507 0.65148 0.87895 0.0
C3273 C 0.74738 0.64218 0.86652 0.0
C3274 C 0.75916 0.66039 0.85385 0.0
C3275 C 0.767 0.67065 0.86554 0.0
C3276 C 0.76306 0.67881 0.89279 0.0
C3277 C 0.77056 0.68838 0.90396 0.0
C3278 C 0.78198 0.68994 0.88784 0.0
C3279 C 0.78591 0.68196 0.86043 0.0
C3280 C 0.77845 0.67237 0.84921 0.0
C3281 C 0.72638 0.6527 0.722 0.0
C3282 C 0.73458 0.65542 0.69356 0.0
C3283 C 0.73059 0.65082 0.75788 0.0
C3284 C 0.7431 0.65131 0.76585 0.0
C3285 C 0.7513 0.65347 0.73699 0.0
C3286 C 0.74709 0.65558 0.70133 0.0
C3287 C 0.74758 0.65063 0.80451 0.0
C3288 C 0.75541 0.65983 0.81708 0.0
C3289 C 0.74371 0.64153 0.82952 0.0
C3290 C 0.73621 0.63104 0.8176 0.0
C3291 C 0.73994 0.6237 0.78804 0.0
C3292 C 0.73281 0.61386 0.77681 0.0
C3293 C 0.72196 0.61121 0.79508 0.0
C3294 C 0.71823 0.61838 0.82468 0.0
C3295 C 0.72532 0.62824 0.83601 0.0
H3296 H 0.71646 0.60359 0.78635 0.0
H3297 H 0.78778 0.69736 0.89652 0.0
H3298 H 0.60537 0.53862 0.21868 0.0
H3299 H 0.60907 0.53221 0.15513 0.0
H3300 H 0.59975 0.49536 0.18385 0.0
H3301 H 0.59591 0.50169 0.2472 0.0
H3302 H 0.62002 0.49734 0.13434 0.0
H3303 H 0.57861 0.51184 0.14863 0.0
H3304 H 0.56312 0.527 0.16602 0.0
H3305 H 0.57845 0.55252 0.08975 0.0
H3306 H 0.59415 0.53756 0.0723 0.0
H3307 H 0.6022 0.47106 0.96411 0.0
H3308 H 0.60531 0.47826 0.02691 0.0
H3309 H 0.60494 0.51536 0.98825 0.0
H3310 H 0.60115 0.50817 0.92581 0.0
H3311 H 0.59122 0.51434 0.04298 0.0
H3312 H 0.63158 0.49982 0.02364 0.0
H3313 H 0.64758 0.48522 0.00622 0.0
H3314 H 0.63555 0.4607 0.09043 0.0
H3315 H 0.61936 0.47508 0.10806 0.0
C3316 C 0.60432 0.52911 0.21162 0.0
C3317 C 0.60026 0.52068 0.23792 0.0
C3318 C 0.60641 0.52547 0.17529 0.0
C3319 C 0.60459 0.51332 0.16474 0.0
C3320 C 0.60122 0.50477 0.19141 0.0
C3321 C 0.59898 0.50842 0.22758 0.0
C3322 C 0.60516 0.5097 0.12546 0.0
C3323 C 0.61372 0.50099 0.11426 0.0
C3324 C 0.59711 0.51468 0.0992 0.0
C3325 C 0.58763 0.52364 0.10948 0.0
C3326 C 0.57874 0.52072 0.1358 0.0
C3327 C 0.56991 0.52927 0.14562 0.0
C3328 C 0.56983 0.54073 0.12908 0.0
C3329 C 0.57855 0.54365 0.10259 0.0
C3330 C 0.5874 0.53514 0.09271 0.0
C3331 C 0.60302 0.48074 0.96895 0.0
C3332 C 0.60142 0.48905 0.94006 0.0
C3333 C 0.60486 0.48487 0.00492 0.0
C3334 C 0.60549 0.4974 0.01259 0.0
C3335 C 0.60444 0.50567 0.9833 0.0
C3336 C 0.60233 0.50155 0.94753 0.0
C3337 C 0.60616 0.50192 0.05124 0.0
C3338 C 0.59773 0.51077 0.06257 0.0
C3339 C 0.61445 0.49716 0.07742 0.0
C3340 C 0.62419 0.48849 0.06697 0.0
C3341 C 0.63229 0.49128 0.03828 0.0
C3342 C 0.6414 0.48305 0.02839 0.0
C3343 C 0.64256 0.47203 0.04715 0.0
C3344 C 0.63463 0.46923 0.0759 0.0
C3345 C 0.6255 0.47743 0.08589 0.0
H3346 H 0.64963 0.46567 0.03945 0.0
H3347 H 0.56299 0.54734 0.13672 0.0
H3348 H 0.75494 0.35233 0.49213 0.0
H3349 H 0.76112 0.35581 0.42844 0.0
H3350 H 0.7239 0.3632 0.39891 0.0
H3351 H 0.71765 0.35992 0.46284 0.0
H3352 H 0.73559 0.34493 0.35587 0.0
H3353 H 0.74285 0.38581 0.39691 0.0
H3354 H 0.75149 0.40153 0.43749 0.0
H3355 H 0.78758 0.38961 0.41061 0.0
H3356 H 0.77915 0.37369 0.37025 0.0
H3357 H 0.74846 0.35487 0.17003 0.0
H3358 H 0.74116 0.35856 0.23241 0.0
H3359 H 0.77819 0.35967 0.27146 0.0
H3360 H 0.78553 0.35659 0.20866 0.0
H3361 H 0.76566 0.37489 0.30975 0.0
H3362 H 0.75982 0.33325 0.27605 0.0
H3363 H 0.75256 0.31612 0.23826 0.0
H3364 H 0.71563 0.32754 0.25469 0.0
H3365 H 0.72268 0.34483 0.29223 0.0
C3366 C 0.74809 0.35491 0.47223 0.0
C3367 C 0.7358 0.35584 0.48253 0.0
C3368 C 0.75165 0.35693 0.43585 0.0
C3369 C 0.74298 0.35978 0.40894 0.0
C3370 C 0.73074 0.36104 0.41929 0.0
C3371 C 0.72719 0.35921 0.45584 0.0
C3372 C 0.74658 0.36045 0.36965 0.0
C3373 C 0.74197 0.35164 0.34556 0.0
C3374 C 0.75527 0.36889 0.35663 0.0
C3375 C 0.76036 0.37849 0.38078 0.0
C3376 C 0.75263 0.38647 0.39988 0.0
C3377 C 0.75749 0.39543 0.4228 0.0
C3378 C 0.77007 0.39655 0.42669 0.0
C3379 C 0.77783 0.38873 0.40759 0.0
C3380 C 0.77302 0.37974 0.38466 0.0
C3381 C 0.75505 0.35613 0.19181 0.0
C3382 C 0.76757 0.35535 0.18449 0.0
C3383 C 0.75087 0.35815 0.22757 0.0
C3384 C 0.75909 0.35904 0.257 0.0
C3385 C 0.77163 0.35895 0.24938 0.0
C3386 C 0.77583 0.35719 0.21343 0.0
C3387 C 0.75465 0.35936 0.29574 0.0
C3388 C 0.75915 0.36827 0.31984 0.0
C3389 C 0.74606 0.35081 0.30912 0.0
C3390 C 0.74179 0.34041 0.28659 0.0
C3391 C 0.75016 0.33216 0.27138 0.0
C3392 C 0.74608 0.32241 0.25004 0.0
C3393 C 0.73365 0.32077 0.24398 0.0
C3394 C 0.72526 0.32884 0.25935 0.0
C3395 C 0.72929 0.33861 0.28067 0.0
H3396 H 0.73051 0.31321 0.22746 0.0
H3397 H 0.77382 0.4035 0.44444 0.0
H3398 H 0.88646 0.47827 0.73036 0.0
H3399 H 0.88236 0.48541 0.66774 0.0
H3400 H 0.91276 0.5101 0.67553 0.0
H3401 H 0.91641 0.50351 0.73828 0.0
H3402 H 0.89671 0.52077 0.63894 0.0
H3403 H 0.91392 0.48044 0.63266 0.0
H3404 H 0.91488 0.45842 0.64526 0.0
H3405 H 0.88027 0.45342 0.59283 0.0
H3406 H 0.87905 0.47544 0.58029 0.0
H3407 H 0.91528 0.50594 0.43927 0.0
H3408 H 0.91175 0.49951 0.50225 0.0
H3409 H 0.88297 0.52596 0.5125 0.0
H3410 H 0.88687 0.53285 0.44952 0.0
H3411 H 0.89503 0.48982 0.54005 0.0
H3412 H 0.8817 0.53648 0.60015 0.0
H3413 H 0.88468 0.55832 0.58742 0.0
H3414 H 0.91817 0.55039 0.53177 0.0
H3415 H 0.91545 0.52853 0.54455 0.0
C3416 C 0.89213 0.48535 0.71882 0.0
C3417 C 0.90179 0.49028 0.73925 0.0
C3418 C 0.88984 0.48937 0.68291 0.0
C3419 C 0.89739 0.49815 0.6664 0.0
C3420 C 0.90676 0.50335 0.6874 0.0
C3421 C 0.90887 0.49953 0.7234 0.0
C3422 C 0.89608 0.50159 0.62691 0.0
C3423 C 0.89624 0.51398 0.61738 0.0
C3424 C 0.89561 0.4928 0.59846 0.0
C3425 C 0.89632 0.47958 0.60596 0.0
C3426 C 0.90648 0.47464 0.62405 0.0
C3427 C 0.90708 0.46217 0.63115 0.0
C3428 C 0.89763 0.45453 0.61997 0.0
C3429 C 0.88757 0.45935 0.60156 0.0
C3430 C 0.88692 0.47182 0.59444 0.0
C3431 C 0.90812 0.51034 0.45472 0.0
C3432 C 0.90143 0.51999 0.43941 0.0
C3433 C 0.90607 0.50661 0.49084 0.0
C3434 C 0.8972 0.51233 0.51255 0.0
C3435 C 0.89005 0.52156 0.49669 0.0
C3436 C 0.89223 0.52544 0.46059 0.0
C3437 C 0.89602 0.50897 0.55211 0.0
C3438 C 0.8953 0.49662 0.56164 0.0
C3439 C 0.89652 0.51776 0.58054 0.0
C3440 C 0.89828 0.53088 0.57288 0.0
C3441 C 0.8897 0.53941 0.58525 0.0
C3442 C 0.89135 0.55178 0.57803 0.0
C3443 C 0.90158 0.55573 0.55866 0.0
C3444 C 0.91022 0.54731 0.54662 0.0
C3445 C 0.90863 0.53494 0.55381 0.0
H3446 H 0.90284 0.56531 0.55308 0.0
H3447 H 0.89811 0.44488 0.62548 0.0
H3448 H 0.25169 0.34184 0.18875 0.0
H3449 H 0.2579 0.3445 0.25256 0.0
H3450 H 0.2259 0.36606 0.27327 0.0
H3451 H 0.21954 0.36342 0.20913 0.0
H3452 H 0.24733 0.37486 0.30956 0.0
H3453 H 0.22438 0.33794 0.29557 0.0
H3454 H 0.21928 0.31822 0.26725 0.0
H3455 H 0.2546 0.30445 0.29535 0.0
H3456 H 0.25997 0.32416 0.32337 0.0
H3457 H 0.24791 0.34287 0.50278 0.0
H3458 H 0.24045 0.34572 0.44031 0.0
H3459 H 0.27351 0.36455 0.41177 0.0
H3460 H 0.28102 0.36184 0.47464 0.0
H3461 H 0.25002 0.33635 0.38009 0.0
H3462 H 0.26733 0.38424 0.33989 0.0
H3463 H 0.27125 0.40411 0.369 0.0
H3464 H 0.24478 0.39619 0.45232 0.0
H3465 H 0.24059 0.37636 0.42345 0.0
C3466 C 0.24603 0.34732 0.20662 0.0
C3467 C 0.23504 0.35233 0.19387 0.0
C3468 C 0.24961 0.34882 0.24314 0.0
C3469 C 0.24229 0.35536 0.26774 0.0
C3470 C 0.23167 0.36097 0.2547 0.0
C3471 C 0.22804 0.35943 0.21808 0.0
C3472 C 0.24528 0.35541 0.30752 0.0
C3473 C 0.24793 0.36646 0.32506 0.0
C3474 C 0.24585 0.34446 0.32783 0.0
C3475 C 0.24261 0.33256 0.31126 0.0
C3476 C 0.23109 0.33074 0.29546 0.0
C3477 C 0.22815 0.31956 0.2795 0.0
C3478 C 0.23662 0.3101 0.27941 0.0
C3479 C 0.24805 0.31179 0.29539 0.0
C3480 C 0.25104 0.32296 0.31134 0.0
C3481 C 0.25354 0.34779 0.48344 0.0
C3482 C 0.2651 0.35208 0.49371 0.0
C3483 C 0.24926 0.34938 0.44764 0.0
C3484 C 0.2564 0.35534 0.42125 0.0
C3485 C 0.26777 0.36004 0.43172 0.0
C3486 C 0.27207 0.35846 0.46767 0.0
C3487 C 0.25228 0.3558 0.38233 0.0
C3488 C 0.24943 0.34479 0.36479 0.0
C3489 C 0.25138 0.3668 0.3623 0.0
C3490 C 0.25374 0.37876 0.37969 0.0
C3491 C 0.26232 0.38676 0.36435 0.0
C3492 C 0.26459 0.39801 0.38082 0.0
C3493 C 0.2583 0.40139 0.41256 0.0
C3494 C 0.24969 0.39354 0.42782 0.0
C3495 C 0.24737 0.38229 0.41145 0.0
H3496 H 0.26008 0.41011 0.42527 0.0
H3497 H 0.23433 0.30145 0.26703 0.0
H3498 H 0.39811 0.47283 0.96573 0.0
H3499 H 0.3945 0.48014 0.02818 0.0
H3500 H 0.39748 0.51719 0.99021 0.0
H3501 H 0.40169 0.50988 0.92817 0.0
H3502 H 0.4105 0.51516 0.04673 0.0
H3503 H 0.36963 0.50347 0.02148 0.0
H3504 H 0.35294 0.49005 1.00149 0.0
H3505 H 0.3619 0.46463 0.08677 0.0
H3506 H 0.37876 0.47781 0.10699 0.0
H3507 H 0.39535 0.54013 0.22058 0.0
H3508 H 0.39192 0.53398 0.15666 0.0
H3509 H 0.39896 0.49665 0.18573 0.0
H3510 H 0.40256 0.50272 0.24947 0.0
H3511 H 0.37926 0.50002 0.13367 0.0
H3512 H 0.42134 0.51161 0.15379 0.0
H3513 H 0.43753 0.52565 0.1737 0.0
H3514 H 0.42507 0.55234 0.09631 0.0
H3515 H 0.40868 0.53851 0.07634 0.0
C3516 C 0.39777 0.48253 0.97061 0.0
C3517 C 0.40021 0.49078 0.94207 0.0
C3518 C 0.39564 0.48673 0.00637 0.0
C3519 C 0.39561 0.49926 0.01413 0.0
C3520 C 0.39751 0.50749 0.98516 0.0
C3521 C 0.39987 0.5033 0.94961 0.0
C3522 C 0.39465 0.50377 0.0527 0.0
C3523 C 0.40348 0.51201 0.06535 0.0
C3524 C 0.38566 0.49955 0.07758 0.0
C3525 C 0.37553 0.49159 0.06555 0.0
C3526 C 0.3681 0.49497 0.03581 0.0
C3527 C 0.3586 0.48742 0.02447 0.0
C3528 C 0.35638 0.47648 0.0428 0.0
C3529 C 0.36364 0.47309 0.07257 0.0
C3530 C 0.37316 0.48061 0.08402 0.0
C3531 C 0.39592 0.53058 0.21352 0.0
C3532 C 0.39931 0.52192 0.24001 0.0
C3533 C 0.39399 0.52709 0.17698 0.0
C3534 C 0.39527 0.51487 0.16645 0.0
C3535 C 0.39791 0.50612 0.1933 0.0
C3536 C 0.40001 0.50962 0.22967 0.0
C3537 C 0.39504 0.51135 0.1271 0.0
C3538 C 0.38609 0.50326 0.11457 0.0
C3539 C 0.40381 0.51581 0.1021 0.0
C3540 C 0.41371 0.52409 0.1139 0.0
C3541 C 0.42199 0.52051 0.14125 0.0
C3542 C 0.43121 0.52842 0.1525 0.0
C3543 C 0.4323 0.53989 0.13636 0.0
C3544 C 0.42419 0.54346 0.10884 0.0
C3545 C 0.41494 0.53559 0.09754 0.0
H3546 H 0.43945 0.54601 0.1451 0.0
H3547 H 0.34902 0.47064 0.03397 0.0
H3548 H 0.21733 0.65489 0.9593 0.0
H3549 H 0.22442 0.65143 0.89647 0.0
H3550 H 0.26144 0.65731 0.93162 0.0
H3551 H 0.2543 0.66136 0.99393 0.0
H3552 H 0.25821 0.66952 0.87403 0.0
H3553 H 0.24926 0.62825 0.90437 0.0
H3554 H 0.23696 0.61103 0.92663 0.0
H3555 H 0.21078 0.61738 0.84129 0.0
H3556 H 0.22285 0.63475 0.81879 0.0
H3557 H 0.28498 0.65246 0.70469 0.0
H3558 H 0.27837 0.64973 0.76845 0.0
H3559 H 0.24112 0.6552 0.73569 0.0
H3560 H 0.24765 0.65816 0.67201 0.0
H3561 H 0.24513 0.6361 0.79153 0.0
H3562 H 0.25422 0.67839 0.76519 0.0
H3563 H 0.26735 0.695 0.74292 0.0
H3564 H 0.29451 0.68551 0.82263 0.0
H3565 H 0.2816 0.6687 0.84498 0.0
C3566 C 0.227 0.65525 0.95369 0.0
C3567 C 0.23526 0.65842 0.98153 0.0
C3568 C 0.23107 0.65322 0.91773 0.0
C3569 C 0.24352 0.654 0.90908 0.0
C3570 C 0.25179 0.65671 0.93734 0.0
C3571 C 0.24771 0.65898 0.97305 0.0
C3572 C 0.24787 0.65289 0.87034 0.0
C3573 C 0.2555 0.66205 0.8564 0.0
C3574 C 0.24419 0.64332 0.84668 0.0
C3575 C 0.23691 0.63288 0.86011 0.0
C3576 C 0.24084 0.62604 0.89051 0.0
C3577 C 0.23391 0.61624 0.90315 0.0
C3578 C 0.22308 0.61313 0.88544 0.0
C3579 C 0.21916 0.6198 0.855 0.0
C3580 C 0.22605 0.62962 0.84227 0.0
C3581 C 0.27535 0.65281 0.7109 0.0
C3582 C 0.26684 0.65559 0.68334 0.0
C3583 C 0.2716 0.65128 0.74736 0.0
C3584 C 0.25926 0.65234 0.75679 0.0
C3585 C 0.25067 0.65432 0.72897 0.0
C3586 C 0.25443 0.65605 0.69262 0.0
C3587 C 0.25546 0.65263 0.79592 0.0
C3588 C 0.2479 0.64342 0.80965 0.0
C3589 C 0.25931 0.66205 0.81963 0.0
C3590 C 0.26702 0.67221 0.80645 0.0
C3591 C 0.26304 0.67978 0.77774 0.0
C3592 C 0.27043 0.68924 0.76514 0.0
C3593 C 0.28177 0.69129 0.78127 0.0
C3594 C 0.28573 0.6839 0.81012 0.0
C3595 C 0.27838 0.67441 0.82277 0.0
H3596 H 0.28748 0.69862 0.77149 0.0
H3597 H 0.21773 0.60554 0.89526 0.0
H3598 H 0.09998 0.54014 0.46088 0.0
H3599 H 0.10286 0.53264 0.52347 0.0
H3600 H 0.09754 0.49584 0.48555 0.0
H3601 H 0.09406 0.50339 0.42333 0.0
H3602 H 0.08484 0.49853 0.54241 0.0
H3603 H 0.12628 0.50796 0.51645 0.0
H3604 H 0.14366 0.52044 0.49624 0.0
H3605 H 0.13623 0.5463 0.58167 0.0
H3606 H 0.11871 0.53405 0.60212 0.0
H3607 H 0.10097 0.4721 0.71463 0.0
H3608 H 0.10374 0.47853 0.65063 0.0
H3609 H 0.09715 0.51574 0.68188 0.0
H3610 H 0.09411 0.50937 0.74569 0.0
H3611 H 0.11714 0.51179 0.62865 0.0
H3612 H 0.07463 0.50224 0.65027 0.0
H3613 H 0.05786 0.48894 0.67043 0.0
H3614 H 0.06859 0.46199 0.59152 0.0
H3615 H 0.08555 0.47507 0.57128 0.0
C3616 C 0.09964 0.53043 0.4658 0.0
C3617 C 0.09679 0.52236 0.43717 0.0
C3618 C 0.10134 0.52613 0.50166 0.0
C3619 C 0.10055 0.51362 0.50947 0.0
C3620 C 0.09816 0.50553 0.48047 0.0
C3621 C 0.09623 0.50985 0.44482 0.0
C3622 C 0.1013 0.50905 0.54807 0.0
C3623 C 0.09208 0.50127 0.56088 0.0
C3624 C 0.11057 0.51274 0.57278 0.0
C3625 C 0.12111 0.52013 0.56061 0.0
C3626 C 0.1283 0.51635 0.53076 0.0
C3627 C 0.13818 0.52337 0.51929 0.0
C3628 C 0.14103 0.53417 0.53761 0.0
C3629 C 0.13401 0.53794 0.56749 0.0
C3630 C 0.12411 0.53095 0.57906 0.0
C3631 C 0.10033 0.48168 0.70798 0.0
C3632 C 0.09727 0.49023 0.73516 0.0
C3633 C 0.10188 0.48533 0.67141 0.0
C3634 C 0.1006 0.4976 0.66155 0.0
C3635 C 0.09821 0.50623 0.68896 0.0
C3636 C 0.09644 0.50257 0.72536 0.0
C3637 C 0.10075 0.50134 0.62237 0.0
C3638 C 0.11006 0.50898 0.60971 0.0
C3639 C 0.09168 0.4974 0.59759 0.0
C3640 C 0.08144 0.48957 0.60958 0.0
C3641 C 0.07348 0.49343 0.63746 0.0
C3642 C 0.06393 0.48594 0.64885 0.0
C3643 C 0.06218 0.47461 0.63235 0.0
C3644 C 0.06997 0.47076 0.60433 0.0
C3645 C 0.07955 0.47821 0.59288 0.0
H3646 H 0.05478 0.46883 0.6412 0.0
H3647 H 0.14869 0.53959 0.52868 0.0
loop_
_geom_bond_atom_site_label_1
_geom_bond_atom_site_label_2
_geom_bond_distance
_geom_bond_site_symmetry_2
_ccdc_geom_bond_type
O0 Cd1 2.223 1_556 S
O0 C8 1.315 . S
Cd1 O0 2.223 1_554 S
Cd1 O4 2.297 . S
Cd1 O5 2.439 . S
Cd1 O11 2.240 . S
Cd2 O3 2.240 . S
Cd2 O10 2.223 . S
Cd2 O12 2.297 . S
Cd2 O13 2.439 . S
O3 Cd2 2.240 . S
O3 C8 1.279 1_554 S
O4 Cd1 2.297 . S
O4 C6 1.247 . S
O5 Cd1 2.439 . S
O5 C6 1.208 . S
C6 O4 1.247 . S
C6 O5 1.208 . S
C7 O12 1.247 . S
C7 O13 1.208 . S
C8 O0 1.315 . S
C8 O3 1.279 1_556 S
C9 O10 1.315 . S
C9 O11 1.279 . S
O10 Cd2 2.223 . S
O10 C9 1.315 . S
O11 Cd1 2.240 . S
O11 C9 1.279 . S
O12 Cd2 2.297 . S
O12 C7 1.247 . S
O13 Cd2 2.439 . S
O13 C7 1.208 . S
O14 Cd15 2.223 . S
O14 C22 1.315 . S
Cd15 O14 2.223 . S
Cd15 O18 2.297 . S
Cd15 O19 2.439 . S
Cd15 O25 2.240 . S
Cd16 O17 2.240 . S
Cd16 O24 2.223 . S
Cd16 O26 2.297 . S
Cd16 O27 2.439 . S
O17 Cd16 2.240 . S
O17 C22 1.279 . S
O18 Cd15 2.297 . S
O18 C20 1.247 . S
O19 Cd15 2.439 . S
O19 C20 1.208 . S
C20 O18 1.247 . S
C20 O19 1.208 . S
C21 O26 1.247 . S
C21 O27 1.208 . S
C22 O14 1.315 . S
C22 O17 1.279 . S
C23 O24 1.315 . S
C23 O25 1.279 . S
O24 Cd16 2.223 . S
O24 C23 1.315 . S
O25 Cd15 2.240 . S
O25 C23 1.279 . S
O26 Cd16 2.297 . S
O26 C21 1.247 . S
O27 Cd16 2.439 . S
O27 C21 1.208 . S
O28 Cd29 2.223 . S
O28 C36 1.315 . S
Cd29 O28 2.223 . S
Cd29 O32 2.297 . S
Cd29 O33 2.439 . S
Cd29 O39 2.240 . S
Cd30 O31 2.240 . S
Cd30 O38 2.223 . S
Cd30 O40 2.297 . S
Cd30 O41 2.439 . S
O31 Cd30 2.240 . S
O31 C36 1.279 . S
O32 Cd29 2.297 . S
O32 C34 1.247 . S
O33 Cd29 2.439 . S
O33 C34 1.208 . S
C34 O32 1.247 . S
C34 O33 1.208 . S
C35 O40 1.247 . S
C35 O41 1.208 . S
C36 O28 1.315 . S
C36 O31 1.279 . S
C37 O38 1.315 . S
C37 O39 1.279 . S
O38 Cd30 2.223 . S
O38 C37 1.315 . S
O39 Cd29 2.240 . S
O39 C37 1.279 . S
O40 Cd30 2.297 . S
O40 C35 1.247 . S
O41 Cd30 2.439 . S
O41 C35 1.208 . S
O42 Cd43 2.223 . S
O42 C50 1.315 . S
Cd43 O42 2.223 . S
Cd43 O46 2.297 . S
Cd43 O47 2.439 . S
Cd43 O53 2.240 . S
Cd44 O45 2.240 . S
Cd44 O52 2.223 . S
Cd44 O54 2.297 . S
Cd44 O55 2.439 . S
O45 Cd44 2.240 . S
O45 C50 1.279 . S
O46 Cd43 2.297 . S
O46 C48 1.247 . S
O47 Cd43 2.439 . S
O47 C48 1.208 . S
C48 O46 1.247 . S
C48 O47 1.208 . S
C49 O54 1.247 . S
C49 O55 1.208 . S
C50 O42 1.315 . S
C50 O45 1.279 . S
C51 O52 1.315 . S
C51 O53 1.279 . S
O52 Cd44 2.223 . S
O52 C51 1.315 . S
O53 Cd43 2.240 . S
O53 C51 1.279 . S
O54 Cd44 2.297 . S
O54 C49 1.247 . S
O55 Cd44 2.439 . S
O55 C49 1.208 . S
O56 Cd57 2.223 . S
O56 C64 1.315 . S
Cd57 O56 2.223 . S
Cd57 O60 2.297 . S
Cd57 O61 2.439 . S
Cd57 O67 2.240 . S
Cd58 O59 2.240 . S
Cd58 O66 2.223 . S
Cd58 O68 2.297 . S
Cd58 O69 2.439 . S
O59 Cd58 2.240 . S
O59 C64 1.279 . S
O60 Cd57 2.297 . S
O60 C62 1.247 . S
O61 Cd57 2.439 . S
O61 C62 1.208 . S
C62 O60 1.247 . S
C62 O61 1.208 . S
C63 O68 1.247 . S
C63 O69 1.208 . S
C64 O56 1.315 . S
C64 O59 1.279 . S
C65 O66 1.315 . S
C65 O67 1.279 . S
O66 Cd58 2.223 . S
O66 C65 1.315 . S
O67 Cd57 2.240 . S
O67 C65 1.279 . S
O68 Cd58 2.297 . S
O68 C63 1.247 . S
O69 Cd58 2.439 . S
O69 C63 1.208 . S
O70 Cd71 2.223 . S
O70 C78 1.315 . S
Cd71 O70 2.223 . S
Cd71 O74 2.297 . S
Cd71 O75 2.439 . S
Cd71 O81 2.240 . S
Cd72 O73 2.240 . S
Cd72 O80 2.223 . S
Cd72 O82 2.297 . S
Cd72 O83 2.439 . S
O73 Cd72 2.240 . S
O73 C78 1.279 . S
O74 Cd71 2.297 . S
O74 C76 1.247 . S
O75 Cd71 2.439 . S
O75 C76 1.208 . S
C76 O74 1.247 . S
C76 O75 1.208 . S
C77 O82 1.247 . S
C77 O83 1.208 . S
C78 O70 1.315 . S
C78 O73 1.279 . S
C79 O80 1.315 . S
C79 O81 1.279 . S
O80 Cd72 2.223 . S
O80 C79 1.315 . S
O81 Cd71 2.240 . S
O81 C79 1.279 . S
O82 Cd72 2.297 . S
O82 C77 1.247 . S
O83 Cd72 2.439 . S
O83 C77 1.208 . S
O84 Cd85 2.223 . S
O84 C92 1.315 . S
Cd85 O84 2.223 . S
Cd85 O88 2.297 . S
Cd85 O89 2.439 . S
Cd85 O95 2.240 . S
Cd86 O87 2.240 . S
Cd86 O94 2.223 . S
Cd86 O96 2.297 . S
Cd86 O97 2.439 . S
O87 Cd86 2.240 . S
O87 C92 1.279 . S
O88 Cd85 2.297 . S
O88 C90 1.247 . S
O89 Cd85 2.439 . S
O89 C90 1.208 . S
C90 O88 1.247 . S
C90 O89 1.208 . S
C91 O96 1.247 . S
C91 O97 1.208 . S
C92 O84 1.315 . S
C92 O87 1.279 . S
C93 O94 1.315 . S
C93 O95 1.279 . S
O94 Cd86 2.223 . S
O94 C93 1.315 . S
O95 Cd85 2.240 . S
O95 C93 1.279 . S
O96 Cd86 2.297 . S
O96 C91 1.247 . S
O97 Cd86 2.439 . S
O97 C91 1.208 . S
O98 Cd99 2.223 . S
O98 C106 1.315 . S
Cd99 O98 2.223 . S
Cd99 O102 2.297 . S
Cd99 O103 2.439 . S
Cd99 O109 2.240 . S
Cd100 O101 2.240 . S
Cd100 O108 2.223 . S
Cd100 O110 2.297 . S
Cd100 O111 2.439 . S
O101 Cd100 2.240 . S
O101 C106 1.279 . S
O102 Cd99 2.297 . S
O102 C104 1.247 . S
O103 Cd99 2.439 . S
O103 C104 1.208 . S
C104 O102 1.247 . S
C104 O103 1.208 . S
C105 O110 1.247 . S
C105 O111 1.208 . S
C106 O98 1.315 . S
C106 O101 1.279 . S
C107 O108 1.315 . S
C107 O109 1.279 . S
O108 Cd100 2.223 . S
O108 C107 1.315 . S
O109 Cd99 2.240 . S
O109 C107 1.279 . S
O110 Cd100 2.297 . S
O110 C105 1.247 . S
O111 Cd100 2.439 . S
O111 C105 1.208 . S
O112 Cd113 2.223 . S
O112 C120 1.315 . S
Cd113 O112 2.223 . S
Cd113 O116 2.297 . S
Cd113 O117 2.439 . S
Cd113 O123 2.240 . S
Cd114 O115 2.240 . S
Cd114 O122 2.223 . S
Cd114 O124 2.297 . S
Cd114 O125 2.439 . S
O115 Cd114 2.240 . S
O115 C120 1.279 . S
O116 Cd113 2.297 . S
O116 C118 1.247 . S
O117 Cd113 2.439 . S
O117 C118 1.208 . S
C118 O116 1.247 . S
C118 O117 1.208 . S
C119 O124 1.247 . S
C119 O125 1.208 . S
C120 O112 1.315 . S
C120 O115 1.279 . S
C121 O122 1.315 . S
C121 O123 1.279 . S
O122 Cd114 2.223 . S
O122 C121 1.315 . S
O123 Cd113 2.240 . S
O123 C121 1.279 . S
O124 Cd114 2.297 . S
O124 C119 1.247 . S
O125 Cd114 2.439 . S
O125 C119 1.208 . S
O126 Cd127 2.223 . S
O126 C134 1.315 . S
Cd127 O126 2.223 . S
Cd127 O130 2.297 . S
Cd127 O131 2.439 . S
Cd127 O137 2.240 . S
Cd128 O129 2.240 . S
Cd128 O136 2.223 . S
Cd128 O138 2.297 . S
Cd128 O139 2.439 . S
O129 Cd128 2.240 . S
O129 C134 1.279 . S
O130 Cd127 2.297 . S
O130 C132 1.247 . S
O131 Cd127 2.439 . S
O131 C132 1.208 . S
C132 O130 1.247 . S
C132 O131 1.208 . S
C133 O138 1.247 . S
C133 O139 1.208 . S
C134 O126 1.315 . S
C134 O129 1.279 . S
C135 O136 1.315 . S
C135 O137 1.279 . S
O136 Cd128 2.223 . S
O136 C135 1.315 . S
O137 Cd127 2.240 . S
O137 C135 1.279 . S
O138 Cd128 2.297 . S
O138 C133 1.247 . S
O139 Cd128 2.439 . S
O139 C133 1.208 . S
O140 Cd141 2.223 . S
O140 C148 1.315 . S
Cd141 O140 2.223 . S
Cd141 O144 2.297 . S
Cd141 O145 2.439 . S
Cd141 O151 2.240 . S
Cd142 O143 2.240 . S
Cd142 O150 2.223 . S
Cd142 O152 2.297 . S
Cd142 O153 2.439 . S
O143 Cd142 2.240 . S
O143 C148 1.279 . S
O144 Cd141 2.297 . S
O144 C146 1.247 . S
O145 Cd141 2.439 . S
O145 C146 1.208 . S
C146 O144 1.247 . S
C146 O145 1.208 . S
C147 O152 1.247 . S
C147 O153 1.208 . S
C148 O140 1.315 . S
C148 O143 1.279 . S
C149 O150 1.315 . S
C149 O151 1.279 . S
O150 Cd142 2.223 . S
O150 C149 1.315 . S
O151 Cd141 2.240 . S
O151 C149 1.279 . S
O152 Cd142 2.297 . S
O152 C147 1.247 . S
O153 Cd142 2.439 . S
O153 C147 1.208 . S
O154 Cd155 2.223 . S
O154 C162 1.315 . S
Cd155 O154 2.223 . S
Cd155 O158 2.297 . S
Cd155 O159 2.439 . S
Cd155 O165 2.240 . S
Cd156 O157 2.240 . S
Cd156 O164 2.223 . S
Cd156 O166 2.297 . S
Cd156 O167 2.439 . S
O157 Cd156 2.240 . S
O157 C162 1.279 . S
O158 Cd155 2.297 . S
O158 C160 1.247 . S
O159 Cd155 2.439 . S
O159 C160 1.208 . S
C160 O158 1.247 . S
C160 O159 1.208 . S
C161 O166 1.247 . S
C161 O167 1.208 . S
C162 O154 1.315 . S
C162 O157 1.279 . S
C163 O164 1.315 . S
C163 O165 1.279 . S
O164 Cd156 2.223 . S
O164 C163 1.315 . S
O165 Cd155 2.240 . S
O165 C163 1.279 . S
O166 Cd156 2.297 . S
O166 C161 1.247 . S
O167 Cd156 2.439 . S
O167 C161 1.208 . S
O168 Cd169 2.223 1_556 S
O168 C176 1.315 . S
Cd169 O168 2.223 1_554 S
Cd169 O172 2.297 . S
Cd169 O173 2.439 . S
Cd169 O179 2.240 . S
Cd170 O171 2.240 . S
Cd170 O178 2.223 . S
Cd170 O180 2.297 . S
Cd170 O181 2.439 . S
O171 Cd170 2.240 . S
O171 C176 1.279 1_554 S
O172 Cd169 2.297 . S
O172 C174 1.247 . S
O173 Cd169 2.439 . S
O173 C174 1.208 . S
C174 O172 1.247 . S
C174 O173 1.208 . S
C175 O180 1.247 . S
C175 O181 1.208 . S
C176 O168 1.315 . S
C176 O171 1.279 1_556 S
C177 O178 1.315 . S
C177 O179 1.279 . S
O178 Cd170 2.223 . S
O178 C177 1.315 . S
O179 Cd169 2.240 . S
O179 C177 1.279 . S
O180 Cd170 2.297 . S
O180 C175 1.247 . S
O181 Cd170 2.439 . S
O181 C175 1.208 . S
O182 Cd183 2.223 . S
O182 C190 1.315 . S
Cd183 O182 2.223 . S
Cd183 O186 2.297 . S
Cd183 O187 2.439 . S
Cd183 O193 2.240 . S
Cd184 O185 2.240 . S
Cd184 O192 2.223 . S
Cd184 O194 2.297 . S
Cd184 O195 2.439 . S
O185 Cd184 2.240 . S
O185 C190 1.279 . S
O186 Cd183 2.297 . S
O186 C188 1.247 . S
O187 Cd183 2.439 . S
O187 C188 1.208 . S
C188 O186 1.247 . S
C188 O187 1.208 . S
C189 O194 1.247 . S
C189 O195 1.208 . S
C190 O182 1.315 . S
C190 O185 1.279 . S
C191 O192 1.315 . S
C191 O193 1.279 . S
O192 Cd184 2.223 . S
O192 C191 1.315 . S
O193 Cd183 2.240 . S
O193 C191 1.279 . S
O194 Cd184 2.297 . S
O194 C189 1.247 . S
O195 Cd184 2.439 . S
O195 C189 1.208 . S
O196 Cd197 2.223 . S
O196 C204 1.315 . S
Cd197 O196 2.223 . S
Cd197 O200 2.297 . S
Cd197 O201 2.439 . S
Cd197 O207 2.240 . S
Cd198 O199 2.240 . S
Cd198 O206 2.223 . S
Cd198 O208 2.297 . S
Cd198 O209 2.439 . S
O199 Cd198 2.240 . S
O199 C204 1.279 . S
O200 Cd197 2.297 . S
O200 C202 1.247 . S
O201 Cd197 2.439 . S
O201 C202 1.208 . S
C202 O200 1.247 . S
C202 O201 1.208 . S
C203 O208 1.247 . S
C203 O209 1.208 . S
C204 O196 1.315 . S
C204 O199 1.279 . S
C205 O206 1.315 . S
C205 O207 1.279 . S
O206 Cd198 2.223 . S
O206 C205 1.315 . S
O207 Cd197 2.240 . S
O207 C205 1.279 . S
O208 Cd198 2.297 . S
O208 C203 1.247 . S
O209 Cd198 2.439 . S
O209 C203 1.208 . S
O210 Cd211 2.223 . S
O210 C218 1.315 . S
Cd211 O210 2.223 . S
Cd211 O214 2.297 . S
Cd211 O215 2.439 . S
Cd211 O221 2.240 . S
Cd212 O213 2.240 . S
Cd212 O220 2.223 . S
Cd212 O222 2.297 . S
Cd212 O223 2.439 . S
O213 Cd212 2.240 . S
O213 C218 1.279 . S
O214 Cd211 2.297 . S
O214 C216 1.247 . S
O215 Cd211 2.439 . S
O215 C216 1.208 . S
C216 O214 1.247 . S
C216 O215 1.208 . S
C217 O222 1.247 . S
C217 O223 1.208 . S
C218 O210 1.315 . S
C218 O213 1.279 . S
C219 O220 1.315 . S
C219 O221 1.279 . S
O220 Cd212 2.223 . S
O220 C219 1.315 . S
O221 Cd211 2.240 . S
O221 C219 1.279 . S
O222 Cd212 2.297 . S
O222 C217 1.247 . S
O223 Cd212 2.439 . S
O223 C217 1.208 . S
O224 Cd225 2.223 . S
O224 C232 1.315 . S
Cd225 O224 2.223 . S
Cd225 O228 2.297 . S
Cd225 O229 2.439 . S
Cd225 O235 2.240 . S
Cd226 O227 2.240 . S
Cd226 O234 2.223 . S
Cd226 O236 2.297 . S
Cd226 O237 2.439 . S
O227 Cd226 2.240 . S
O227 C232 1.279 . S
O228 Cd225 2.297 . S
O228 C230 1.247 . S
O229 Cd225 2.439 . S
O229 C230 1.208 . S
C230 O228 1.247 . S
C230 O229 1.208 . S
C231 O236 1.247 . S
C231 O237 1.208 . S
C232 O224 1.315 . S
C232 O227 1.279 . S
C233 O234 1.315 . S
C233 O235 1.279 . S
O234 Cd226 2.223 . S
O234 C233 1.315 . S
O235 Cd225 2.240 . S
O235 C233 1.279 . S
O236 Cd226 2.297 . S
O236 C231 1.247 . S
O237 Cd226 2.439 . S
O237 C231 1.208 . S
O238 Cd239 2.223 . S
O238 C246 1.315 . S
Cd239 O238 2.223 . S
Cd239 O242 2.297 . S
Cd239 O243 2.439 . S
Cd239 O249 2.240 . S
Cd240 O241 2.240 . S
Cd240 O248 2.223 . S
Cd240 O250 2.297 . S
Cd240 O251 2.439 . S
O241 Cd240 2.240 . S
O241 C246 1.279 . S
O242 Cd239 2.297 . S
O242 C244 1.247 . S
O243 Cd239 2.439 . S
O243 C244 1.208 . S
C244 O242 1.247 . S
C244 O243 1.208 . S
C245 O250 1.247 . S
C245 O251 1.208 . S
C246 O238 1.315 . S
C246 O241 1.279 . S
C247 O248 1.315 . S
C247 O249 1.279 . S
O248 Cd240 2.223 . S
O248 C247 1.315 . S
O249 Cd239 2.240 . S
O249 C247 1.279 . S
O250 Cd240 2.297 . S
O250 C245 1.247 . S
O251 Cd240 2.439 . S
O251 C245 1.208 . S
O252 Cd253 2.223 1_556 S
O252 C260 1.315 . S
Cd253 O252 2.223 1_554 S
Cd253 O256 2.297 . S
Cd253 O257 2.439 . S
Cd253 O263 2.240 . S
Cd254 O255 2.240 . S
Cd254 O262 2.223 . S
Cd254 O264 2.297 . S
Cd254 O265 2.439 . S
O255 Cd254 2.240 . S
O255 C260 1.279 1_554 S
O256 Cd253 2.297 . S
O256 C258 1.247 . S
O257 Cd253 2.439 . S
O257 C258 1.208 . S
C258 O256 1.247 . S
C258 O257 1.208 . S
C259 O264 1.247 . S
C259 O265 1.208 . S
C260 O252 1.315 . S
C260 O255 1.279 1_556 S
C261 O262 1.315 . S
C261 O263 1.279 . S
O262 Cd254 2.223 . S
O262 C261 1.315 . S
O263 Cd253 2.240 . S
O263 C261 1.279 . S
O264 Cd254 2.297 . S
O264 C259 1.247 . S
O265 Cd254 2.439 . S
O265 C259 1.208 . S
O266 Cd267 2.223 . S
O266 C274 1.315 . S
Cd267 O266 2.223 . S
Cd267 O270 2.297 . S
Cd267 O271 2.439 . S
Cd267 O277 2.240 . S
Cd268 O269 2.240 . S
Cd268 O276 2.223 . S
Cd268 O278 2.297 . S
Cd268 O279 2.439 . S
O269 Cd268 2.240 . S
O269 C274 1.279 . S
O270 Cd267 2.297 . S
O270 C272 1.247 . S
O271 Cd267 2.439 . S
O271 C272 1.208 . S
C272 O270 1.247 . S
C272 O271 1.208 . S
C273 O278 1.247 . S
C273 O279 1.208 . S
C274 O266 1.315 . S
C274 O269 1.279 . S
C275 O276 1.315 . S
C275 O277 1.279 . S
O276 Cd268 2.223 . S
O276 C275 1.315 . S
O277 Cd267 2.240 . S
O277 C275 1.279 . S
O278 Cd268 2.297 . S
O278 C273 1.247 . S
O279 Cd268 2.439 . S
O279 C273 1.208 . S
O280 Cd281 2.223 . S
O280 C288 1.315 . S
Cd281 O280 2.223 . S
Cd281 O284 2.297 . S
Cd281 O285 2.439 . S
Cd281 O291 2.240 . S
Cd282 O283 2.240 . S
Cd282 O290 2.223 . S
Cd282 O292 2.297 . S
Cd282 O293 2.439 . S
O283 Cd282 2.240 . S
O283 C288 1.279 . S
O284 Cd281 2.297 . S
O284 C286 1.247 . S
O285 Cd281 2.439 . S
O285 C286 1.208 . S
C286 O284 1.247 . S
C286 O285 1.208 . S
C287 O292 1.247 . S
C287 O293 1.208 . S
C288 O280 1.315 . S
C288 O283 1.279 . S
C289 O290 1.315 . S
C289 O291 1.279 . S
O290 Cd282 2.223 . S
O290 C289 1.315 . S
O291 Cd281 2.240 . S
O291 C289 1.279 . S
O292 Cd282 2.297 . S
O292 C287 1.247 . S
O293 Cd282 2.439 . S
O293 C287 1.208 . S
O294 Cd295 2.223 . S
O294 C302 1.315 . S
Cd295 O294 2.223 . S
Cd295 O298 2.297 . S
Cd295 O299 2.439 . S
Cd295 O305 2.240 . S
Cd296 O297 2.240 . S
Cd296 O304 2.223 . S
Cd296 O306 2.297 . S
Cd296 O307 2.439 . S
O297 Cd296 2.240 . S
O297 C302 1.279 . S
O298 Cd295 2.297 . S
O298 C300 1.247 . S
O299 Cd295 2.439 . S
O299 C300 1.208 . S
C300 O298 1.247 . S
C300 O299 1.208 . S
C301 O306 1.247 . S
C301 O307 1.208 . S
C302 O294 1.315 . S
C302 O297 1.279 . S
C303 O304 1.315 . S
C303 O305 1.279 . S
O304 Cd296 2.223 . S
O304 C303 1.315 . S
O305 Cd295 2.240 . S
O305 C303 1.279 . S
O306 Cd296 2.297 . S
O306 C301 1.247 . S
O307 Cd296 2.439 . S
O307 C301 1.208 . S
O308 Cd309 2.223 . S
O308 C316 1.315 . S
Cd309 O308 2.223 . S
Cd309 O312 2.297 . S
Cd309 O313 2.439 . S
Cd309 O319 2.240 . S
Cd310 O311 2.240 . S
Cd310 O318 2.223 . S
Cd310 O320 2.297 . S
Cd310 O321 2.439 . S
O311 Cd310 2.240 . S
O311 C316 1.279 . S
O312 Cd309 2.297 . S
O312 C314 1.247 . S
O313 Cd309 2.439 . S
O313 C314 1.208 . S
C314 O312 1.247 . S
C314 O313 1.208 . S
C315 O320 1.247 . S
C315 O321 1.208 . S
C316 O308 1.315 . S
C316 O311 1.279 . S
C317 O318 1.315 . S
C317 O319 1.279 . S
O318 Cd310 2.223 . S
O318 C317 1.315 . S
O319 Cd309 2.240 . S
O319 C317 1.279 . S
O320 Cd310 2.297 . S
O320 C315 1.247 . S
O321 Cd310 2.439 . S
O321 C315 1.208 . S
O322 Cd323 2.223 . S
O322 C330 1.315 . S
Cd323 O322 2.223 . S
Cd323 O326 2.297 . S
Cd323 O327 2.439 . S
Cd323 O333 2.240 . S
Cd324 O325 2.240 . S
Cd324 O332 2.223 . S
Cd324 O334 2.297 . S
Cd324 O335 2.439 . S
O325 Cd324 2.240 . S
O325 C330 1.279 . S
O326 Cd323 2.297 . S
O326 C328 1.247 . S
O327 Cd323 2.439 . S
O327 C328 1.208 . S
C328 O326 1.247 . S
C328 O327 1.208 . S
C329 O334 1.247 . S
C329 O335 1.208 . S
C330 O322 1.315 . S
C330 O325 1.279 . S
C331 O332 1.315 . S
C331 O333 1.279 . S
O332 Cd324 2.223 . S
O332 C331 1.315 . S
O333 Cd323 2.240 . S
O333 C331 1.279 . S
O334 Cd324 2.297 . S
O334 C329 1.247 . S
O335 Cd324 2.439 . S
O335 C329 1.208 . S
O336 Cd337 2.223 . S
O336 C344 1.315 . S
Cd337 O336 2.223 . S
Cd337 O340 2.297 . S
Cd337 O341 2.439 . S
Cd337 O347 2.240 . S
Cd338 O339 2.240 . S
Cd338 O346 2.223 . S
Cd338 O348 2.297 . S
Cd338 O349 2.439 . S
O339 Cd338 2.240 . S
O339 C344 1.279 . S
O340 Cd337 2.297 . S
O340 C342 1.247 . S
O341 Cd337 2.439 . S
O341 C342 1.208 . S
C342 O340 1.247 . S
C342 O341 1.208 . S
C343 O348 1.247 . S
C343 O349 1.208 . S
C344 O336 1.315 . S
C344 O339 1.279 . S
C345 O346 1.315 . S
C345 O347 1.279 . S
O346 Cd338 2.223 . S
O346 C345 1.315 . S
O347 Cd337 2.240 . S
O347 C345 1.279 . S
O348 Cd338 2.297 . S
O348 C343 1.247 . S
O349 Cd338 2.439 . S
O349 C343 1.208 . S
O350 Cd351 2.223 . S
O350 C358 1.315 . S
Cd351 O350 2.223 . S
Cd351 O354 2.297 . S
Cd351 O355 2.439 . S
Cd351 O361 2.240 . S
Cd352 O353 2.240 . S
Cd352 O360 2.223 . S
Cd352 O362 2.297 . S
Cd352 O363 2.439 . S
O353 Cd352 2.240 . S
O353 C358 1.279 . S
O354 Cd351 2.297 . S
O354 C356 1.247 . S
O355 Cd351 2.439 . S
O355 C356 1.208 . S
C356 O354 1.247 . S
C356 O355 1.208 . S
C357 O362 1.247 . S
C357 O363 1.208 . S
C358 O350 1.315 . S
C358 O353 1.279 . S
C359 O360 1.315 . S
C359 O361 1.279 . S
O360 Cd352 2.223 . S
O360 C359 1.315 . S
O361 Cd351 2.240 . S
O361 C359 1.279 . S
O362 Cd352 2.297 . S
O362 C357 1.247 . S
O363 Cd352 2.439 . S
O363 C357 1.208 . S
O364 Cd365 2.223 . S
O364 C372 1.315 . S
Cd365 O364 2.223 . S
Cd365 O368 2.297 . S
Cd365 O369 2.439 . S
Cd365 O375 2.240 . S
Cd366 O367 2.240 . S
Cd366 O374 2.223 . S
Cd366 O376 2.297 . S
Cd366 O377 2.439 . S
O367 Cd366 2.240 . S
O367 C372 1.279 . S
O368 Cd365 2.297 . S
O368 C370 1.247 . S
O369 Cd365 2.439 . S
O369 C370 1.208 . S
C370 O368 1.247 . S
C370 O369 1.208 . S
C371 O376 1.247 . S
C371 O377 1.208 . S
C372 O364 1.315 . S
C372 O367 1.279 . S
C373 O374 1.315 . S
C373 O375 1.279 . S
O374 Cd366 2.223 . S
O374 C373 1.315 . S
O375 Cd365 2.240 . S
O375 C373 1.279 . S
O376 Cd366 2.297 . S
O376 C371 1.247 . S
O377 Cd366 2.439 . S
O377 C371 1.208 . S
O378 Cd379 2.223 . S
O378 C386 1.315 . S
Cd379 O378 2.223 . S
Cd379 O382 2.297 . S
Cd379 O383 2.439 . S
Cd379 O389 2.240 . S
Cd380 O381 2.240 . S
Cd380 O388 2.223 . S
Cd380 O390 2.297 . S
Cd380 O391 2.439 . S
O381 Cd380 2.240 . S
O381 C386 1.279 . S
O382 Cd379 2.297 . S
O382 C384 1.247 . S
O383 Cd379 2.439 . S
O383 C384 1.208 . S
C384 O382 1.247 . S
C384 O383 1.208 . S
C385 O390 1.247 . S
C385 O391 1.208 . S
C386 O378 1.315 . S
C386 O381 1.279 . S
C387 O388 1.315 . S
C387 O389 1.279 . S
O388 Cd380 2.223 . S
O388 C387 1.315 . S
O389 Cd379 2.240 . S
O389 C387 1.279 . S
O390 Cd380 2.297 . S
O390 C385 1.247 . S
O391 Cd380 2.439 . S
O391 C385 1.208 . S
O392 Cd393 2.223 . S
O392 C400 1.315 . S
Cd393 O392 2.223 . S
Cd393 O396 2.297 . S
Cd393 O397 2.439 . S
Cd393 O403 2.240 . S
Cd394 O395 2.240 . S
Cd394 O402 2.223 . S
Cd394 O404 2.297 . S
Cd394 O405 2.439 . S
O395 Cd394 2.240 . S
O395 C400 1.279 . S
O396 Cd393 2.297 . S
O396 C398 1.247 . S
O397 Cd393 2.439 . S
O397 C398 1.208 . S
C398 O396 1.247 . S
C398 O397 1.208 . S
C399 O404 1.247 . S
C399 O405 1.208 . S
C400 O392 1.315 . S
C400 O395 1.279 . S
C401 O402 1.315 . S
C401 O403 1.279 . S
O402 Cd394 2.223 . S
O402 C401 1.315 . S
O403 Cd393 2.240 . S
O403 C401 1.279 . S
O404 Cd394 2.297 . S
O404 C399 1.247 . S
O405 Cd394 2.439 . S
O405 C399 1.208 . S
O406 Cd407 2.223 . S
O406 C414 1.315 . S
Cd407 O406 2.223 . S
Cd407 O410 2.297 . S
Cd407 O411 2.439 . S
Cd407 O417 2.240 . S
Cd408 O409 2.240 . S
Cd408 O416 2.223 . S
Cd408 O418 2.297 . S
Cd408 O419 2.439 . S
O409 Cd408 2.240 . S
O409 C414 1.279 . S
O410 Cd407 2.297 . S
O410 C412 1.247 . S
O411 Cd407 2.439 . S
O411 C412 1.208 . S
C412 O410 1.247 . S
C412 O411 1.208 . S
C413 O418 1.247 . S
C413 O419 1.208 . S
C414 O406 1.315 . S
C414 O409 1.279 . S
C415 O416 1.315 . S
C415 O417 1.279 . S
O416 Cd408 2.223 . S
O416 C415 1.315 . S
O417 Cd407 2.240 . S
O417 C415 1.279 . S
O418 Cd408 2.297 . S
O418 C413 1.247 . S
O419 Cd408 2.439 . S
O419 C413 1.208 . S
O420 Cd421 2.223 1_556 S
O420 C428 1.315 . S
Cd421 O420 2.223 1_554 S
Cd421 O424 2.297 . S
Cd421 O425 2.439 . S
Cd421 O431 2.240 . S
Cd422 O423 2.240 . S
Cd422 O430 2.223 . S
Cd422 O432 2.297 . S
Cd422 O433 2.439 . S
O423 Cd422 2.240 . S
O423 C428 1.279 1_554 S
O424 Cd421 2.297 . S
O424 C426 1.247 . S
O425 Cd421 2.439 . S
O425 C426 1.208 . S
C426 O424 1.247 . S
C426 O425 1.208 . S
C427 O432 1.247 . S
C427 O433 1.208 . S
C428 O420 1.315 . S
C428 O423 1.279 1_556 S
C429 O430 1.315 . S
C429 O431 1.279 . S
O430 Cd422 2.223 . S
O430 C429 1.315 . S
O431 Cd421 2.240 . S
O431 C429 1.279 . S
O432 Cd422 2.297 . S
O432 C427 1.247 . S
O433 Cd422 2.439 . S
O433 C427 1.208 . S
O434 Cd435 2.223 . S
O434 C442 1.315 . S
Cd435 O434 2.223 . S
Cd435 O438 2.297 . S
Cd435 O439 2.439 . S
Cd435 O445 2.240 . S
Cd436 O437 2.240 . S
Cd436 O444 2.223 . S
Cd436 O446 2.297 . S
Cd436 O447 2.439 . S
O437 Cd436 2.240 . S
O437 C442 1.279 . S
O438 Cd435 2.297 . S
O438 C440 1.247 . S
O439 Cd435 2.439 . S
O439 C440 1.208 . S
C440 O438 1.247 . S
C440 O439 1.208 . S
C441 O446 1.247 . S
C441 O447 1.208 . S
C442 O434 1.315 . S
C442 O437 1.279 . S
C443 O444 1.315 . S
C443 O445 1.279 . S
O444 Cd436 2.223 . S
O444 C443 1.315 . S
O445 Cd435 2.240 . S
O445 C443 1.279 . S
O446 Cd436 2.297 . S
O446 C441 1.247 . S
O447 Cd436 2.439 . S
O447 C441 1.208 . S
H448 C466 0.951 . S
H449 C468 0.951 . S
H450 C470 0.950 . S
H451 C471 0.950 . S
H452 C473 0.950 . S
H453 C476 0.950 . S
H454 C477 0.950 . S
H455 C479 0.950 . S
H456 C480 0.950 . S
H457 C481 0.951 1_556 S
H458 C483 0.951 . S
H459 C485 0.950 . S
H460 C486 0.950 . S
H461 C488 0.950 . S
H462 C491 0.950 . S
H463 C492 0.950 . S
H464 C494 0.943 1_556 S
H465 C495 0.950 . S
C466 H448 0.951 . S
C466 C467 1.366 . S
C466 C468 1.388 . S
C467 C466 1.366 . S
C467 C471 1.385 . S
C468 H449 0.951 . S
C468 C466 1.388 . S
C468 C469 1.366 . S
C469 C468 1.366 . S
C469 C470 1.414 . S
C469 C472 1.499 . S
C470 H450 0.950 . S
C470 C469 1.414 . S
C470 C471 1.374 . S
C471 H451 0.950 . S
C471 C467 1.385 . S
C471 C470 1.374 . S
C472 C469 1.499 . S
C472 C473 1.373 . S
C472 C474 1.389 . S
C473 H452 0.950 . S
C473 C472 1.373 . S
C473 C489 1.377 . S
C474 C472 1.389 . S
C474 C475 1.524 . S
C474 C488 1.377 . S
C475 C474 1.524 . S
C475 C476 1.397 . S
C475 C480 1.363 . S
C476 H453 0.950 . S
C476 C475 1.397 . S
C476 C477 1.334 . S
C477 H454 0.950 . S
C477 C476 1.334 . S
C477 C478 1.287 . S
C478 C477 1.287 . S
C478 C479 1.524 . S
C478 H497 0.913 . S
C479 H455 0.950 . S
C479 C478 1.524 . S
C479 C480 1.415 . S
C480 H456 0.950 . S
C480 C475 1.363 . S
C480 C479 1.415 . S
C481 H457 0.951 1_554 S
C481 C482 1.366 . S
C481 C483 1.388 1_554 S
C482 C481 1.366 . S
C482 C486 1.385 . S
C483 H458 0.951 . S
C483 C481 1.388 1_556 S
C483 C484 1.366 . S
C484 C483 1.366 . S
C484 C485 1.414 1_556 S
C484 C487 1.499 . S
C485 H459 0.950 . S
C485 C484 1.414 1_554 S
C485 C486 1.374 . S
C486 H460 0.950 . S
C486 C482 1.385 . S
C486 C485 1.374 . S
C487 C484 1.499 . S
C487 C488 1.373 . S
C487 C489 1.389 . S
C488 H461 0.950 . S
C488 C474 1.377 . S
C488 C487 1.373 . S
C489 C473 1.377 . S
C489 C487 1.389 . S
C489 C490 1.524 . S
C490 C489 1.524 . S
C490 C491 1.397 1_556 S
C490 C495 1.363 . S
C491 H462 0.950 . S
C491 C490 1.397 1_554 S
C491 C492 1.334 . S
C492 H463 0.950 . S
C492 C491 1.334 . S
C492 C493 1.287 . S
C493 C492 1.287 . S
C493 C494 1.539 . S
C493 H496 0.999 . S
C494 H464 0.943 1_554 S
C494 C493 1.539 . S
C494 C495 1.407 1_554 S
C495 H465 0.950 . S
C495 C490 1.363 . S
C495 C494 1.407 1_556 S
H496 C493 0.999 . S
H497 C478 0.913 . S
H498 C516 0.951 . S
H499 C518 0.951 . S
H500 C520 0.950 . S
H501 C521 0.950 . S
H502 C523 0.950 . S
H503 C526 0.950 . S
H504 C527 0.950 . S
H505 C529 0.950 . S
H506 C530 0.950 . S
H507 C531 0.951 . S
H508 C533 0.951 . S
H509 C535 0.950 . S
H510 C536 0.950 . S
H511 C538 0.950 . S
H512 C541 0.950 . S
H513 C542 0.950 . S
H514 C544 0.950 . S
H515 C545 0.950 . S
C516 H498 0.951 . S
C516 C517 1.366 . S
C516 C518 1.388 . S
C517 C516 1.366 . S
C517 C521 1.385 . S
C518 H499 0.951 . S
C518 C516 1.388 . S
C518 C519 1.366 . S
C519 C518 1.366 . S
C519 C520 1.414 . S
C519 C522 1.499 . S
C520 H500 0.950 . S
C520 C519 1.414 . S
C520 C521 1.374 . S
C521 H501 0.950 . S
C521 C517 1.385 . S
C521 C520 1.374 . S
C522 C519 1.499 . S
C522 C523 1.373 . S
C522 C524 1.389 . S
C523 H502 0.950 . S
C523 C522 1.373 . S
C523 C539 1.377 . S
C524 C522 1.389 . S
C524 C525 1.524 . S
C524 C538 1.377 . S
C525 C524 1.524 . S
C525 C526 1.397 . S
C525 C530 1.363 . S
C526 H503 0.950 . S
C526 C525 1.397 . S
C526 C527 1.334 . S
C527 H504 0.950 . S
C527 C526 1.334 . S
C527 C528 1.287 . S
C528 C527 1.287 . S
C528 C529 1.524 . S
C528 H547 0.913 . S
C529 H505 0.950 . S
C529 C528 1.524 . S
C529 C530 1.415 . S
C530 H506 0.950 . S
C530 C525 1.363 . S
C530 C529 1.415 . S
C531 H507 0.951 . S
C531 C532 1.366 . S
C531 C533 1.388 . S
C532 C531 1.366 . S
C532 C536 1.385 . S
C533 H508 0.951 . S
C533 C531 1.388 . S
C533 C534 1.366 . S
C534 C533 1.366 . S
C534 C535 1.414 . S
C534 C537 1.499 . S
C535 H509 0.950 . S
C535 C534 1.414 . S
C535 C536 1.374 . S
C536 H510 0.950 . S
C536 C532 1.385 . S
C536 C535 1.374 . S
C537 C534 1.499 . S
C537 C538 1.373 . S
C537 C539 1.389 . S
C538 H511 0.950 . S
C538 C524 1.377 . S
C538 C537 1.373 . S
C539 C523 1.377 . S
C539 C537 1.389 . S
C539 C540 1.524 . S
C540 C539 1.524 . S
C540 C541 1.397 . S
C540 C545 1.363 . S
C541 H512 0.950 . S
C541 C540 1.397 . S
C541 C542 1.334 . S
C542 H513 0.950 . S
C542 C541 1.334 . S
C542 C543 1.287 . S
C543 C542 1.287 . S
C543 C544 1.524 . S
C543 H546 0.999 . S
C544 H514 0.950 . S
C544 C543 1.524 . S
C544 C545 1.415 . S
C545 H515 0.950 . S
C545 C540 1.363 . S
C545 C544 1.415 . S
H546 C543 0.999 . S
H547 C528 0.913 . S
H548 C566 0.951 . S
H549 C568 0.951 . S
H550 C570 0.950 . S
H551 C571 0.950 . S
H552 C573 0.950 . S
H553 C576 0.950 . S
H554 C577 0.950 . S
H555 C579 0.950 . S
H556 C580 0.950 . S
H557 C581 0.951 . S
H558 C583 0.951 . S
H559 C585 0.950 . S
H560 C586 0.950 . S
H561 C588 0.950 . S
H562 C591 0.950 . S
H563 C592 0.950 . S
H564 C594 0.950 . S
H565 C595 0.950 . S
C566 H548 0.951 . S
C566 C567 1.366 . S
C566 C568 1.388 . S
C567 C566 1.366 . S
C567 C571 1.385 . S
C568 H549 0.951 . S
C568 C566 1.388 . S
C568 C569 1.366 . S
C569 C568 1.366 . S
C569 C570 1.414 . S
C569 C572 1.499 . S
C570 H550 0.950 . S
C570 C569 1.414 . S
C570 C571 1.374 . S
C571 H551 0.950 . S
C571 C567 1.385 . S
C571 C570 1.374 . S
C572 C569 1.499 . S
C572 C573 1.373 . S
C572 C574 1.389 . S
C573 H552 0.950 . S
C573 C572 1.373 . S
C573 C589 1.377 . S
C574 C572 1.389 . S
C574 C575 1.524 . S
C574 C588 1.377 . S
C575 C574 1.524 . S
C575 C576 1.397 . S
C575 C580 1.363 . S
C576 H553 0.950 . S
C576 C575 1.397 . S
C576 C577 1.334 . S
C577 H554 0.950 . S
C577 C576 1.334 . S
C577 C578 1.287 . S
C578 C577 1.287 . S
C578 C579 1.524 . S
C578 H597 0.913 . S
C579 H555 0.950 . S
C579 C578 1.524 . S
C579 C580 1.415 . S
C580 H556 0.950 . S
C580 C575 1.363 . S
C580 C579 1.415 . S
C581 H557 0.951 . S
C581 C582 1.366 . S
C581 C583 1.388 . S
C582 C581 1.366 . S
C582 C586 1.385 . S
C583 H558 0.951 . S
C583 C581 1.388 . S
C583 C584 1.366 . S
C584 C583 1.366 . S
C584 C585 1.414 . S
C584 C587 1.499 . S
C585 H559 0.950 . S
C585 C584 1.414 . S
C585 C586 1.374 . S
C586 H560 0.950 . S
C586 C582 1.385 . S
C586 C585 1.374 . S
C587 C584 1.499 . S
C587 C588 1.373 . S
C587 C589 1.389 . S
C588 H561 0.950 . S
C588 C574 1.377 . S
C588 C587 1.373 . S
C589 C573 1.377 . S
C589 C587 1.389 . S
C589 C590 1.524 . S
C590 C589 1.524 . S
C590 C591 1.397 . S
C590 C595 1.363 . S
C591 H562 0.950 . S
C591 C590 1.397 . S
C591 C592 1.334 . S
C592 H563 0.950 . S
C592 C591 1.334 . S
C592 C593 1.287 . S
C593 C592 1.287 . S
C593 C594 1.524 . S
C593 H596 0.999 . S
C594 H564 0.950 . S
C594 C593 1.524 . S
C594 C595 1.415 . S
C595 H565 0.950 . S
C595 C590 1.363 . S
C595 C594 1.415 . S
H596 C593 0.999 . S
H597 C578 0.913 . S
H598 C616 0.951 . S
H599 C618 0.951 . S
H600 C620 0.950 . S
H601 C621 0.950 . S
H602 C623 0.950 . S
H603 C626 0.950 . S
H604 C627 0.950 . S
H605 C629 0.950 . S
H606 C630 0.950 . S
H607 C631 0.951 . S
H608 C633 0.951 . S
H609 C635 0.950 . S
H610 C636 0.950 . S
H611 C638 0.950 . S
H612 C641 0.950 . S
H613 C642 0.950 . S
H614 C644 0.950 . S
H615 C645 0.950 . S
C616 H598 0.951 . S
C616 C617 1.366 . S
C616 C618 1.388 . S
C617 C616 1.366 . S
C617 C621 1.385 . S
C618 H599 0.951 . S
C618 C616 1.388 . S
C618 C619 1.366 . S
C619 C618 1.366 . S
C619 C620 1.414 . S
C619 C622 1.499 . S
C620 H600 0.950 . S
C620 C619 1.414 . S
C620 C621 1.374 . S
C621 H601 0.950 . S
C621 C617 1.385 . S
C621 C620 1.374 . S
C622 C619 1.499 . S
C622 C623 1.373 . S
C622 C624 1.389 . S
C623 H602 0.950 . S
C623 C622 1.373 . S
C623 C639 1.377 . S
C624 C622 1.389 . S
C624 C625 1.524 . S
C624 C638 1.377 . S
C625 C624 1.524 . S
C625 C626 1.397 . S
C625 C630 1.363 . S
C626 H603 0.950 . S
C626 C625 1.397 . S
C626 C627 1.334 . S
C627 H604 0.950 . S
C627 C626 1.334 . S
C627 C628 1.287 . S
C628 C627 1.287 . S
C628 C629 1.524 . S
C628 H647 0.913 . S
C629 H605 0.950 . S
C629 C628 1.524 . S
C629 C630 1.415 . S
C630 H606 0.950 . S
C630 C625 1.363 . S
C630 C629 1.415 . S
C631 H607 0.951 . S
C631 C632 1.366 . S
C631 C633 1.388 . S
C632 C631 1.366 . S
C632 C636 1.385 . S
C633 H608 0.951 . S
C633 C631 1.388 . S
C633 C634 1.366 . S
C634 C633 1.366 . S
C634 C635 1.414 . S
C634 C637 1.499 . S
C635 H609 0.950 . S
C635 C634 1.414 . S
C635 C636 1.374 . S
C636 H610 0.950 . S
C636 C632 1.385 . S
C636 C635 1.374 . S
C637 C634 1.499 . S
C637 C638 1.373 . S
C637 C639 1.389 . S
C638 H611 0.950 . S
C638 C624 1.377 . S
C638 C637 1.373 . S
C639 C623 1.377 . S
C639 C637 1.389 . S
C639 C640 1.524 . S
C640 C639 1.524 . S
C640 C641 1.397 . S
C640 C645 1.363 . S
C641 H612 0.950 . S
C641 C640 1.397 . S
C641 C642 1.334 . S
C642 H613 0.950 . S
C642 C641 1.334 . S
C642 C643 1.287 . S
C643 C642 1.287 . S
C643 C644 1.524 . S
C643 H646 0.999 . S
C644 H614 0.950 . S
C644 C643 1.524 . S
C644 C645 1.415 . S
C645 H615 0.950 . S
C645 C640 1.363 . S
C645 C644 1.415 . S
H646 C643 0.999 . S
H647 C628 0.913 . S
H648 C666 0.951 . S
H649 C668 0.951 . S
H650 C670 0.950 . S
H651 C671 0.950 . S
H652 C673 0.950 . S
H653 C676 0.950 . S
H654 C677 0.950 . S
H655 C679 0.950 . S
H656 C680 0.950 . S
H657 C681 0.951 . S
H658 C683 0.951 . S
H659 C685 0.950 . S
H660 C686 0.950 . S
H661 C688 0.950 . S
H662 C691 0.950 . S
H663 C692 0.950 . S
H664 C694 0.950 . S
H665 C695 0.950 . S
C666 H648 0.951 . S
C666 C667 1.366 . S
C666 C668 1.388 . S
C667 C666 1.366 . S
C667 C671 1.385 . S
C668 H649 0.951 . S
C668 C666 1.388 . S
C668 C669 1.366 . S
C669 C668 1.366 . S
C669 C670 1.414 . S
C669 C672 1.499 . S
C670 H650 0.950 . S
C670 C669 1.414 . S
C670 C671 1.374 . S
C671 H651 0.950 . S
C671 C667 1.385 . S
C671 C670 1.374 . S
C672 C669 1.499 . S
C672 C673 1.373 . S
C672 C674 1.389 . S
C673 H652 0.950 . S
C673 C672 1.373 . S
C673 C689 1.377 . S
C674 C672 1.389 . S
C674 C675 1.524 . S
C674 C688 1.377 . S
C675 C674 1.524 . S
C675 C676 1.397 . S
C675 C680 1.363 . S
C676 H653 0.950 . S
C676 C675 1.397 . S
C676 C677 1.334 . S
C677 H654 0.950 . S
C677 C676 1.334 . S
C677 C678 1.287 . S
C678 C677 1.287 . S
C678 C679 1.524 . S
C678 H697 0.913 . S
C679 H655 0.950 . S
C679 C678 1.524 . S
C679 C680 1.415 . S
C680 H656 0.950 . S
C680 C675 1.363 . S
C680 C679 1.415 . S
C681 H657 0.951 . S
C681 C682 1.366 . S
C681 C683 1.388 . S
C682 C681 1.366 . S
C682 C686 1.385 . S
C683 H658 0.951 . S
C683 C681 1.388 . S
C683 C684 1.366 . S
C684 C683 1.366 . S
C684 C685 1.414 . S
C684 C687 1.499 . S
C685 H659 0.950 . S
C685 C684 1.414 . S
C685 C686 1.374 . S
C686 H660 0.950 . S
C686 C682 1.385 . S
C686 C685 1.374 . S
C687 C684 1.499 . S
C687 C688 1.373 . S
C687 C689 1.389 . S
C688 H661 0.950 . S
C688 C674 1.377 . S
C688 C687 1.373 . S
C689 C673 1.377 . S
C689 C687 1.389 . S
C689 C690 1.524 . S
C690 C689 1.524 . S
C690 C691 1.397 . S
C690 C695 1.363 . S
C691 H662 0.950 . S
C691 C690 1.397 . S
C691 C692 1.334 . S
C692 H663 0.950 . S
C692 C691 1.334 . S
C692 C693 1.287 . S
C693 C692 1.287 . S
C693 C694 1.524 . S
C693 H696 0.999 . S
C694 H664 0.950 . S
C694 C693 1.524 . S
C694 C695 1.415 . S
C695 H665 0.950 . S
C695 C690 1.363 . S
C695 C694 1.415 . S
H696 C693 0.999 . S
H697 C678 0.913 . S
H698 C716 0.951 . S
H699 C718 0.951 . S
H700 C720 0.950 . S
H701 C721 0.950 . S
H702 C723 0.950 . S
H703 C726 0.950 . S
H704 C727 0.950 . S
H705 C729 0.950 . S
H706 C730 0.950 . S
H707 C731 0.951 . S
H708 C733 0.949 1_556 S
H709 C735 0.946 1_556 S
H710 C736 0.950 . S
H711 C738 0.950 . S
H712 C741 0.950 . S
H713 C742 0.950 . S
H714 C744 0.950 . S
H715 C745 0.950 . S
C716 H698 0.951 . S
C716 C717 1.366 . S
C716 C718 1.388 . S
C717 C716 1.366 . S
C717 C721 1.385 . S
C718 H699 0.951 . S
C718 C716 1.388 . S
C718 C719 1.366 . S
C719 C718 1.366 . S
C719 C720 1.414 . S
C719 C722 1.499 . S
C720 H700 0.950 . S
C720 C719 1.414 . S
C720 C721 1.374 . S
C721 H701 0.950 . S
C721 C717 1.385 . S
C721 C720 1.374 . S
C722 C719 1.499 . S
C722 C723 1.373 . S
C722 C724 1.389 . S
C723 H702 0.950 . S
C723 C722 1.373 . S
C723 C739 1.377 . S
C724 C722 1.389 . S
C724 C725 1.524 . S
C724 C738 1.377 . S
C725 C724 1.524 . S
C725 C726 1.397 . S
C725 C730 1.363 . S
C726 H703 0.950 . S
C726 C725 1.397 . S
C726 C727 1.334 . S
C727 H704 0.950 . S
C727 C726 1.334 . S
C727 C728 1.287 . S
C728 C727 1.287 . S
C728 C729 1.524 . S
C728 H747 0.913 . S
C729 H705 0.950 . S
C729 C728 1.524 . S
C729 C730 1.415 . S
C730 H706 0.950 . S
C730 C725 1.363 . S
C730 C729 1.415 . S
C731 H707 0.951 . S
C731 C732 1.366 . S
C731 C733 1.388 . S
C732 C731 1.366 . S
C732 C736 1.385 . S
C733 H708 0.949 1_554 S
C733 C731 1.388 . S
C733 C734 1.366 1_554 S
C734 C733 1.366 1_556 S
C734 C735 1.411 1_556 S
C734 C737 1.499 . S
C735 H709 0.946 1_554 S
C735 C734 1.411 1_554 S
C735 C736 1.381 . S
C736 H710 0.950 . S
C736 C732 1.385 . S
C736 C735 1.381 . S
C737 C734 1.499 . S
C737 C738 1.373 . S
C737 C739 1.389 . S
C738 H711 0.950 . S
C738 C724 1.377 . S
C738 C737 1.373 . S
C739 C723 1.377 . S
C739 C737 1.389 . S
C739 C740 1.524 1_556 S
C740 C739 1.524 1_554 S
C740 C741 1.397 . S
C740 C745 1.363 . S
C741 H712 0.950 . S
C741 C740 1.397 . S
C741 C742 1.334 . S
C742 H713 0.950 . S
C742 C741 1.334 . S
C742 C743 1.287 . S
C743 C742 1.287 . S
C743 C744 1.524 . S
C743 H746 0.999 . S
C744 H714 0.950 . S
C744 C743 1.524 . S
C744 C745 1.415 . S
C745 H715 0.950 . S
C745 C740 1.363 . S
C745 C744 1.415 . S
H746 C743 0.999 . S
H747 C728 0.913 . S
H748 C766 0.951 . S
H749 C768 0.951 . S
H750 C770 0.950 . S
H751 C771 0.950 . S
H752 C773 0.950 . S
H753 C776 0.950 . S
H754 C777 0.950 . S
H755 C779 0.950 . S
H756 C780 0.950 . S
H757 C781 0.951 . S
H758 C783 0.951 . S
H759 C785 0.950 . S
H760 C786 0.950 . S
H761 C788 0.950 . S
H762 C791 0.950 . S
H763 C792 0.950 . S
H764 C794 0.950 . S
H765 C795 0.950 . S
C766 H748 0.951 . S
C766 C767 1.366 . S
C766 C768 1.388 . S
C767 C766 1.366 . S
C767 C771 1.385 . S
C768 H749 0.951 . S
C768 C766 1.388 . S
C768 C769 1.366 . S
C769 C768 1.366 . S
C769 C770 1.414 . S
C769 C772 1.499 . S
C770 H750 0.950 . S
C770 C769 1.414 . S
C770 C771 1.374 . S
C771 H751 0.950 . S
C771 C767 1.385 . S
C771 C770 1.374 . S
C772 C769 1.499 . S
C772 C773 1.373 . S
C772 C774 1.389 . S
C773 H752 0.950 . S
C773 C772 1.373 . S
C773 C789 1.377 . S
C774 C772 1.389 . S
C774 C775 1.524 . S
C774 C788 1.377 . S
C775 C774 1.524 . S
C775 C776 1.397 . S
C775 C780 1.363 . S
C776 H753 0.950 . S
C776 C775 1.397 . S
C776 C777 1.334 . S
C777 H754 0.950 . S
C777 C776 1.334 . S
C777 C778 1.287 . S
C778 C777 1.287 . S
C778 C779 1.524 . S
C778 H797 0.913 . S
C779 H755 0.950 . S
C779 C778 1.524 . S
C779 C780 1.415 . S
C780 H756 0.950 . S
C780 C775 1.363 . S
C780 C779 1.415 . S
C781 H757 0.951 . S
C781 C782 1.366 . S
C781 C783 1.388 . S
C782 C781 1.366 . S
C782 C786 1.385 . S
C783 H758 0.951 . S
C783 C781 1.388 . S
C783 C784 1.366 . S
C784 C783 1.366 . S
C784 C785 1.414 . S
C784 C787 1.499 . S
C785 H759 0.950 . S
C785 C784 1.414 . S
C785 C786 1.374 . S
C786 H760 0.950 . S
C786 C782 1.385 . S
C786 C785 1.374 . S
C787 C784 1.499 . S
C787 C788 1.373 . S
C787 C789 1.389 . S
C788 H761 0.950 . S
C788 C774 1.377 . S
C788 C787 1.373 . S
C789 C773 1.377 . S
C789 C787 1.389 . S
C789 C790 1.524 . S
C790 C789 1.524 . S
C790 C791 1.397 . S
C790 C795 1.363 . S
C791 H762 0.950 . S
C791 C790 1.397 . S
C791 C792 1.334 . S
C792 H763 0.950 . S
C792 C791 1.334 . S
C792 C793 1.287 . S
C793 C792 1.287 . S
C793 C794 1.524 . S
C793 H796 0.999 . S
C794 H764 0.950 . S
C794 C793 1.524 . S
C794 C795 1.415 . S
C795 H765 0.950 . S
C795 C790 1.363 . S
C795 C794 1.415 . S
H796 C793 0.999 . S
H797 C778 0.913 . S
H798 C816 0.951 . S
H799 C818 0.951 . S
H800 C820 0.950 . S
H801 C821 0.950 . S
H802 C823 0.950 . S
H803 C826 0.950 . S
H804 C827 0.950 . S
H805 C829 0.950 . S
H806 C830 0.950 . S
H807 C831 0.951 . S
H808 C833 0.951 . S
H809 C835 0.950 . S
H810 C836 0.950 . S
H811 C838 0.950 . S
H812 C841 0.950 . S
H813 C842 0.950 . S
H814 C844 0.950 . S
H815 C845 0.950 . S
C816 H798 0.951 . S
C816 C817 1.366 . S
C816 C818 1.388 . S
C817 C816 1.366 . S
C817 C821 1.385 . S
C818 H799 0.951 . S
C818 C816 1.388 . S
C818 C819 1.366 . S
C819 C818 1.366 . S
C819 C820 1.414 . S
C819 C822 1.499 . S
C820 H800 0.950 . S
C820 C819 1.414 . S
C820 C821 1.374 . S
C821 H801 0.950 . S
C821 C817 1.385 . S
C821 C820 1.374 . S
C822 C819 1.499 . S
C822 C823 1.373 . S
C822 C824 1.389 . S
C823 H802 0.950 . S
C823 C822 1.373 . S
C823 C839 1.377 . S
C824 C822 1.389 . S
C824 C825 1.524 . S
C824 C838 1.377 . S
C825 C824 1.524 . S
C825 C826 1.397 . S
C825 C830 1.363 . S
C826 H803 0.950 . S
C826 C825 1.397 . S
C826 C827 1.334 . S
C827 H804 0.950 . S
C827 C826 1.334 . S
C827 C828 1.287 . S
C828 C827 1.287 . S
C828 C829 1.524 . S
C828 H847 0.913 . S
C829 H805 0.950 . S
C829 C828 1.524 . S
C829 C830 1.415 . S
C830 H806 0.950 . S
C830 C825 1.363 . S
C830 C829 1.415 . S
C831 H807 0.951 . S
C831 C832 1.366 . S
C831 C833 1.388 . S
C832 C831 1.366 . S
C832 C836 1.385 . S
C833 H808 0.951 . S
C833 C831 1.388 . S
C833 C834 1.366 . S
C834 C833 1.366 . S
C834 C835 1.414 . S
C834 C837 1.499 . S
C835 H809 0.950 . S
C835 C834 1.414 . S
C835 C836 1.374 . S
C836 H810 0.950 . S
C836 C832 1.385 . S
C836 C835 1.374 . S
C837 C834 1.499 . S
C837 C838 1.373 . S
C837 C839 1.389 . S
C838 H811 0.950 . S
C838 C824 1.377 . S
C838 C837 1.373 . S
C839 C823 1.377 . S
C839 C837 1.389 . S
C839 C840 1.524 . S
C840 C839 1.524 . S
C840 C841 1.397 . S
C840 C845 1.363 . S
C841 H812 0.950 . S
C841 C840 1.397 . S
C841 C842 1.334 . S
C842 H813 0.950 . S
C842 C841 1.334 . S
C842 C843 1.287 . S
C843 C842 1.287 . S
C843 C844 1.524 . S
C843 H846 0.999 . S
C844 H814 0.950 . S
C844 C843 1.524 . S
C844 C845 1.415 . S
C845 H815 0.950 . S
C845 C840 1.363 . S
C845 C844 1.415 . S
H846 C843 0.999 . S
H847 C828 0.913 . S
H848 C866 0.951 . S
H849 C868 0.951 . S
H850 C870 0.950 . S
H851 C871 0.950 . S
H852 C873 0.950 . S
H853 C876 0.950 . S
H854 C877 0.950 . S
H855 C879 0.950 . S
H856 C880 0.950 . S
H857 C881 0.951 . S
H858 C883 0.951 . S
H859 C885 0.950 . S
H860 C886 0.950 . S
H861 C888 0.950 . S
H862 C891 0.950 . S
H863 C892 0.950 . S
H864 C894 0.950 . S
H865 C895 0.950 . S
C866 H848 0.951 . S
C866 C867 1.366 . S
C866 C868 1.388 . S
C867 C866 1.366 . S
C867 C871 1.385 . S
C868 H849 0.951 . S
C868 C866 1.388 . S
C868 C869 1.366 . S
C869 C868 1.366 . S
C869 C870 1.414 . S
C869 C872 1.499 . S
C870 H850 0.950 . S
C870 C869 1.414 . S
C870 C871 1.374 . S
C871 H851 0.950 . S
C871 C867 1.385 . S
C871 C870 1.374 . S
C872 C869 1.499 . S
C872 C873 1.373 . S
C872 C874 1.389 . S
C873 H852 0.950 . S
C873 C872 1.373 . S
C873 C889 1.377 . S
C874 C872 1.389 . S
C874 C875 1.524 . S
C874 C888 1.377 . S
C875 C874 1.524 . S
C875 C876 1.397 . S
C875 C880 1.363 . S
C876 H853 0.950 . S
C876 C875 1.397 . S
C876 C877 1.334 . S
C877 H854 0.950 . S
C877 C876 1.334 . S
C877 C878 1.287 . S
C878 C877 1.287 . S
C878 C879 1.524 . S
C878 H897 0.913 . S
C879 H855 0.950 . S
C879 C878 1.524 . S
C879 C880 1.415 . S
C880 H856 0.950 . S
C880 C875 1.363 . S
C880 C879 1.415 . S
C881 H857 0.951 . S
C881 C882 1.366 . S
C881 C883 1.388 . S
C882 C881 1.366 . S
C882 C886 1.385 . S
C883 H858 0.951 . S
C883 C881 1.388 . S
C883 C884 1.366 . S
C884 C883 1.366 . S
C884 C885 1.414 . S
C884 C887 1.499 . S
C885 H859 0.950 . S
C885 C884 1.414 . S
C885 C886 1.374 . S
C886 H860 0.950 . S
C886 C882 1.385 . S
C886 C885 1.374 . S
C887 C884 1.499 . S
C887 C888 1.373 . S
C887 C889 1.389 . S
C888 H861 0.950 . S
C888 C874 1.377 . S
C888 C887 1.373 . S
C889 C873 1.377 . S
C889 C887 1.389 . S
C889 C890 1.524 . S
C890 C889 1.524 . S
C890 C891 1.397 . S
C890 C895 1.363 . S
C891 H862 0.950 . S
C891 C890 1.397 . S
C891 C892 1.334 . S
C892 H863 0.950 . S
C892 C891 1.334 . S
C892 C893 1.287 . S
C893 C892 1.287 . S
C893 C894 1.524 . S
C893 H896 0.999 . S
C894 H864 0.950 . S
C894 C893 1.524 . S
C894 C895 1.415 . S
C895 H865 0.950 . S
C895 C890 1.363 . S
C895 C894 1.415 . S
H896 C893 0.999 . S
H897 C878 0.913 . S
H898 C916 0.951 . S
H899 C918 0.951 . S
H900 C920 0.950 . S
H901 C921 0.950 . S
H902 C923 0.950 . S
H903 C926 0.950 . S
H904 C927 0.950 . S
H905 C929 0.950 . S
H906 C930 0.950 . S
H907 C931 0.951 . S
H908 C933 0.951 . S
H909 C935 0.950 . S
H910 C936 0.950 . S
H911 C938 0.950 . S
H912 C941 0.950 . S
H913 C942 0.950 . S
H914 C944 0.950 . S
H915 C945 0.950 . S
C916 H898 0.951 . S
C916 C917 1.366 . S
C916 C918 1.388 . S
C917 C916 1.366 . S
C917 C921 1.385 . S
C918 H899 0.951 . S
C918 C916 1.388 . S
C918 C919 1.366 . S
C919 C918 1.366 . S
C919 C920 1.414 . S
C919 C922 1.499 . S
C920 H900 0.950 . S
C920 C919 1.414 . S
C920 C921 1.374 . S
C921 H901 0.950 . S
C921 C917 1.385 . S
C921 C920 1.374 . S
C922 C919 1.499 . S
C922 C923 1.373 . S
C922 C924 1.389 . S
C923 H902 0.950 . S
C923 C922 1.373 . S
C923 C939 1.377 . S
C924 C922 1.389 . S
C924 C925 1.524 . S
C924 C938 1.377 . S
C925 C924 1.524 . S
C925 C926 1.397 . S
C925 C930 1.363 . S
C926 H903 0.950 . S
C926 C925 1.397 . S
C926 C927 1.334 . S
C927 H904 0.950 . S
C927 C926 1.334 . S
C927 C928 1.287 . S
C928 C927 1.287 . S
C928 C929 1.524 . S
C928 H947 0.913 . S
C929 H905 0.950 . S
C929 C928 1.524 . S
C929 C930 1.415 . S
C930 H906 0.950 . S
C930 C925 1.363 . S
C930 C929 1.415 . S
C931 H907 0.951 . S
C931 C932 1.366 . S
C931 C933 1.388 . S
C932 C931 1.366 . S
C932 C936 1.385 . S
C933 H908 0.951 . S
C933 C931 1.388 . S
C933 C934 1.366 . S
C934 C933 1.366 . S
C934 C935 1.414 . S
C934 C937 1.499 . S
C935 H909 0.950 . S
C935 C934 1.414 . S
C935 C936 1.374 . S
C936 H910 0.950 . S
C936 C932 1.385 . S
C936 C935 1.374 . S
C937 C934 1.499 . S
C937 C938 1.373 . S
C937 C939 1.389 . S
C938 H911 0.950 . S
C938 C924 1.377 . S
C938 C937 1.373 . S
C939 C923 1.377 . S
C939 C937 1.389 . S
C939 C940 1.524 . S
C940 C939 1.524 . S
C940 C941 1.397 . S
C940 C945 1.363 . S
C941 H912 0.950 . S
C941 C940 1.397 . S
C941 C942 1.334 . S
C942 H913 0.950 . S
C942 C941 1.334 . S
C942 C943 1.287 . S
C943 C942 1.287 . S
C943 C944 1.524 . S
C943 H946 0.999 . S
C944 H914 0.950 . S
C944 C943 1.524 . S
C944 C945 1.415 . S
C945 H915 0.950 . S
C945 C940 1.363 . S
C945 C944 1.415 . S
H946 C943 0.999 . S
H947 C928 0.913 . S
H948 C966 0.951 . S
H949 C968 0.951 . S
H950 C970 0.950 . S
H951 C971 0.950 . S
H952 C973 0.950 . S
H953 C976 0.950 . S
H954 C977 0.950 . S
H955 C979 0.950 . S
H956 C980 0.950 . S
H957 C981 0.951 . S
H958 C983 0.951 . S
H959 C985 0.950 . S
H960 C986 0.950 . S
H961 C988 0.950 . S
H962 C991 0.950 . S
H963 C992 0.950 . S
H964 C994 0.950 . S
H965 C995 0.950 . S
C966 H948 0.951 . S
C966 C967 1.366 . S
C966 C968 1.388 . S
C967 C966 1.366 . S
C967 C971 1.385 . S
C968 H949 0.951 . S
C968 C966 1.388 . S
C968 C969 1.366 . S
C969 C968 1.366 . S
C969 C970 1.414 . S
C969 C972 1.499 . S
C970 H950 0.950 . S
C970 C969 1.414 . S
C970 C971 1.374 . S
C971 H951 0.950 . S
C971 C967 1.385 . S
C971 C970 1.374 . S
C972 C969 1.499 . S
C972 C973 1.373 . S
C972 C974 1.389 . S
C973 H952 0.950 . S
C973 C972 1.373 . S
C973 C989 1.377 . S
C974 C972 1.389 . S
C974 C975 1.524 . S
C974 C988 1.377 . S
C975 C974 1.524 . S
C975 C976 1.397 . S
C975 C980 1.363 . S
C976 H953 0.950 . S
C976 C975 1.397 . S
C976 C977 1.334 . S
C977 H954 0.950 . S
C977 C976 1.334 . S
C977 C978 1.287 . S
C978 C977 1.287 . S
C978 C979 1.524 . S
C978 H997 0.913 . S
C979 H955 0.950 . S
C979 C978 1.524 . S
C979 C980 1.415 . S
C980 H956 0.950 . S
C980 C975 1.363 . S
C980 C979 1.415 . S
C981 H957 0.951 . S
C981 C982 1.366 1_556 S
C981 C983 1.388 . S
C982 C981 1.366 1_554 S
C982 C986 1.385 . S
C983 H958 0.951 . S
C983 C981 1.388 . S
C983 C984 1.366 . S
C984 C983 1.366 . S
C984 C985 1.414 1_556 S
C984 C987 1.499 . S
C985 H959 0.950 . S
C985 C984 1.414 1_554 S
C985 C986 1.374 . S
C986 H960 0.950 . S
C986 C982 1.385 . S
C986 C985 1.374 . S
C987 C984 1.499 . S
C987 C988 1.373 . S
C987 C989 1.389 . S
C988 H961 0.950 . S
C988 C974 1.377 . S
C988 C987 1.373 . S
C989 C973 1.377 . S
C989 C987 1.389 . S
C989 C990 1.524 . S
C990 C989 1.524 . S
C990 C991 1.397 1_556 S
C990 C995 1.363 . S
C991 H962 0.950 . S
C991 C990 1.397 1_554 S
C991 C992 1.334 . S
C992 H963 0.950 . S
C992 C991 1.334 . S
C992 C993 1.287 . S
C993 C992 1.287 . S
C993 C994 1.524 1_554 S
C993 H996 0.999 . S
C994 H964 0.950 . S
C994 C993 1.524 1_556 S
C994 C995 1.415 . S
C995 H965 0.950 . S
C995 C990 1.363 . S
C995 C994 1.415 . S
H996 C993 0.999 . S
H997 C978 0.913 . S
H998 C1016 0.951 . S
H999 C1018 0.951 . S
H1000 C1020 0.950 . S
H1001 C1021 0.950 . S
H1002 C1023 0.950 . S
H1003 C1026 0.950 . S
H1004 C1027 0.950 . S
H1005 C1029 0.950 . S
H1006 C1030 0.950 . S
H1007 C1031 0.951 . S
H1008 C1033 0.951 . S
H1009 C1035 0.950 . S
H1010 C1036 0.950 . S
H1011 C1038 0.950 . S
H1012 C1041 0.950 . S
H1013 C1042 0.950 . S
H1014 C1044 0.950 . S
H1015 C1045 0.950 . S
C1016 H998 0.951 . S
C1016 C1017 1.366 . S
C1016 C1018 1.388 . S
C1017 C1016 1.366 . S
C1017 C1021 1.385 . S
C1018 H999 0.951 . S
C1018 C1016 1.388 . S
C1018 C1019 1.366 . S
C1019 C1018 1.366 . S
C1019 C1020 1.414 . S
C1019 C1022 1.499 . S
C1020 H1000 0.950 . S
C1020 C1019 1.414 . S
C1020 C1021 1.374 . S
C1021 H1001 0.950 . S
C1021 C1017 1.385 . S
C1021 C1020 1.374 . S
C1022 C1019 1.499 . S
C1022 C1023 1.373 . S
C1022 C1024 1.389 . S
C1023 H1002 0.950 . S
C1023 C1022 1.373 . S
C1023 C1039 1.377 . S
C1024 C1022 1.389 . S
C1024 C1025 1.524 . S
C1024 C1038 1.377 . S
C1025 C1024 1.524 . S
C1025 C1026 1.397 . S
C1025 C1030 1.363 . S
C1026 H1003 0.950 . S
C1026 C1025 1.397 . S
C1026 C1027 1.334 . S
C1027 H1004 0.950 . S
C1027 C1026 1.334 . S
C1027 C1028 1.287 . S
C1028 C1027 1.287 . S
C1028 C1029 1.524 . S
C1028 H1047 0.913 . S
C1029 H1005 0.950 . S
C1029 C1028 1.524 . S
C1029 C1030 1.415 . S
C1030 H1006 0.950 . S
C1030 C1025 1.363 . S
C1030 C1029 1.415 . S
C1031 H1007 0.951 . S
C1031 C1032 1.366 . S
C1031 C1033 1.388 . S
C1032 C1031 1.366 . S
C1032 C1036 1.385 . S
C1033 H1008 0.951 . S
C1033 C1031 1.388 . S
C1033 C1034 1.366 . S
C1034 C1033 1.366 . S
C1034 C1035 1.414 . S
C1034 C1037 1.499 . S
C1035 H1009 0.950 . S
C1035 C1034 1.414 . S
C1035 C1036 1.374 . S
C1036 H1010 0.950 . S
C1036 C1032 1.385 . S
C1036 C1035 1.374 . S
C1037 C1034 1.499 . S
C1037 C1038 1.373 . S
C1037 C1039 1.389 . S
C1038 H1011 0.950 . S
C1038 C1024 1.377 . S
C1038 C1037 1.373 . S
C1039 C1023 1.377 . S
C1039 C1037 1.389 . S
C1039 C1040 1.524 . S
C1040 C1039 1.524 . S
C1040 C1041 1.397 . S
C1040 C1045 1.363 . S
C1041 H1012 0.950 . S
C1041 C1040 1.397 . S
C1041 C1042 1.334 . S
C1042 H1013 0.950 . S
C1042 C1041 1.334 . S
C1042 C1043 1.287 . S
C1043 C1042 1.287 . S
C1043 C1044 1.524 . S
C1043 H1046 0.999 . S
C1044 H1014 0.950 . S
C1044 C1043 1.524 . S
C1044 C1045 1.415 . S
C1045 H1015 0.950 . S
C1045 C1040 1.363 . S
C1045 C1044 1.415 . S
H1046 C1043 0.999 . S
H1047 C1028 0.913 . S
H1048 C1066 0.951 . S
H1049 C1068 0.951 . S
H1050 C1070 0.950 . S
H1051 C1071 0.950 . S
H1052 C1073 0.950 . S
H1053 C1076 0.950 . S
H1054 C1077 0.950 . S
H1055 C1079 0.950 . S
H1056 C1080 0.950 . S
H1057 C1081 0.951 . S
H1058 C1083 0.951 . S
H1059 C1085 0.950 . S
H1060 C1086 0.950 . S
H1061 C1088 0.950 . S
H1062 C1091 0.950 . S
H1063 C1092 0.950 . S
H1064 C1094 0.950 . S
H1065 C1095 0.950 . S
C1066 H1048 0.951 . S
C1066 C1067 1.366 . S
C1066 C1068 1.388 . S
C1067 C1066 1.366 . S
C1067 C1071 1.385 . S
C1068 H1049 0.951 . S
C1068 C1066 1.388 . S
C1068 C1069 1.366 . S
C1069 C1068 1.366 . S
C1069 C1070 1.414 . S
C1069 C1072 1.499 . S
C1070 H1050 0.950 . S
C1070 C1069 1.414 . S
C1070 C1071 1.374 . S
C1071 H1051 0.950 . S
C1071 C1067 1.385 . S
C1071 C1070 1.374 . S
C1072 C1069 1.499 . S
C1072 C1073 1.373 . S
C1072 C1074 1.389 . S
C1073 H1052 0.950 . S
C1073 C1072 1.373 . S
C1073 C1089 1.377 . S
C1074 C1072 1.389 . S
C1074 C1075 1.524 . S
C1074 C1088 1.377 . S
C1075 C1074 1.524 . S
C1075 C1076 1.397 . S
C1075 C1080 1.363 . S
C1076 H1053 0.950 . S
C1076 C1075 1.397 . S
C1076 C1077 1.334 . S
C1077 H1054 0.950 . S
C1077 C1076 1.334 . S
C1077 C1078 1.287 . S
C1078 C1077 1.287 . S
C1078 C1079 1.524 . S
C1078 H1097 0.913 . S
C1079 H1055 0.950 . S
C1079 C1078 1.524 . S
C1079 C1080 1.415 . S
C1080 H1056 0.950 . S
C1080 C1075 1.363 . S
C1080 C1079 1.415 . S
C1081 H1057 0.951 . S
C1081 C1082 1.366 . S
C1081 C1083 1.388 . S
C1082 C1081 1.366 . S
C1082 C1086 1.385 . S
C1083 H1058 0.951 . S
C1083 C1081 1.388 . S
C1083 C1084 1.366 . S
C1084 C1083 1.366 . S
C1084 C1085 1.414 . S
C1084 C1087 1.499 . S
C1085 H1059 0.950 . S
C1085 C1084 1.414 . S
C1085 C1086 1.374 . S
C1086 H1060 0.950 . S
C1086 C1082 1.385 . S
C1086 C1085 1.374 . S
C1087 C1084 1.499 . S
C1087 C1088 1.373 . S
C1087 C1089 1.389 . S
C1088 H1061 0.950 . S
C1088 C1074 1.377 . S
C1088 C1087 1.373 . S
C1089 C1073 1.377 . S
C1089 C1087 1.389 . S
C1089 C1090 1.524 . S
C1090 C1089 1.524 . S
C1090 C1091 1.397 . S
C1090 C1095 1.363 . S
C1091 H1062 0.950 . S
C1091 C1090 1.397 . S
C1091 C1092 1.334 . S
C1092 H1063 0.950 . S
C1092 C1091 1.334 . S
C1092 C1093 1.287 . S
C1093 C1092 1.287 . S
C1093 C1094 1.524 . S
C1093 H1096 0.999 . S
C1094 H1064 0.950 . S
C1094 C1093 1.524 . S
C1094 C1095 1.415 . S
C1095 H1065 0.950 . S
C1095 C1090 1.363 . S
C1095 C1094 1.415 . S
H1096 C1093 0.999 . S
H1097 C1078 0.913 . S
H1098 C1116 0.951 . S
H1099 C1118 0.951 . S
H1100 C1120 0.950 . S
H1101 C1121 0.950 . S
H1102 C1123 0.950 . S
H1103 C1126 0.950 . S
H1104 C1127 0.950 . S
H1105 C1129 0.950 . S
H1106 C1130 0.950 . S
H1107 C1131 0.951 . S
H1108 C1133 0.951 . S
H1109 C1135 0.950 . S
H1110 C1136 0.950 . S
H1111 C1138 0.950 . S
H1112 C1141 0.950 . S
H1113 C1142 0.950 . S
H1114 C1144 0.950 . S
H1115 C1145 0.950 . S
C1116 H1098 0.951 . S
C1116 C1117 1.366 . S
C1116 C1118 1.388 . S
C1117 C1116 1.366 . S
C1117 C1121 1.385 . S
C1118 H1099 0.951 . S
C1118 C1116 1.388 . S
C1118 C1119 1.366 . S
C1119 C1118 1.366 . S
C1119 C1120 1.414 . S
C1119 C1122 1.499 . S
C1120 H1100 0.950 . S
C1120 C1119 1.414 . S
C1120 C1121 1.374 . S
C1121 H1101 0.950 . S
C1121 C1117 1.385 . S
C1121 C1120 1.374 . S
C1122 C1119 1.499 . S
C1122 C1123 1.373 . S
C1122 C1124 1.389 . S
C1123 H1102 0.950 . S
C1123 C1122 1.373 . S
C1123 C1139 1.377 . S
C1124 C1122 1.389 . S
C1124 C1125 1.524 . S
C1124 C1138 1.377 . S
C1125 C1124 1.524 . S
C1125 C1126 1.397 . S
C1125 C1130 1.363 . S
C1126 H1103 0.950 . S
C1126 C1125 1.397 . S
C1126 C1127 1.334 . S
C1127 H1104 0.950 . S
C1127 C1126 1.334 . S
C1127 C1128 1.287 . S
C1128 C1127 1.287 . S
C1128 C1129 1.524 . S
C1128 H1147 0.913 . S
C1129 H1105 0.950 . S
C1129 C1128 1.524 . S
C1129 C1130 1.415 . S
C1130 H1106 0.950 . S
C1130 C1125 1.363 . S
C1130 C1129 1.415 . S
C1131 H1107 0.951 . S
C1131 C1132 1.366 . S
C1131 C1133 1.388 . S
C1132 C1131 1.366 . S
C1132 C1136 1.385 . S
C1133 H1108 0.951 . S
C1133 C1131 1.388 . S
C1133 C1134 1.366 . S
C1134 C1133 1.366 . S
C1134 C1135 1.414 . S
C1134 C1137 1.499 . S
C1135 H1109 0.950 . S
C1135 C1134 1.414 . S
C1135 C1136 1.374 . S
C1136 H1110 0.950 . S
C1136 C1132 1.385 . S
C1136 C1135 1.374 . S
C1137 C1134 1.499 . S
C1137 C1138 1.373 . S
C1137 C1139 1.389 . S
C1138 H1111 0.950 . S
C1138 C1124 1.377 . S
C1138 C1137 1.373 . S
C1139 C1123 1.377 . S
C1139 C1137 1.389 . S
C1139 C1140 1.524 . S
C1140 C1139 1.524 . S
C1140 C1141 1.397 . S
C1140 C1145 1.363 . S
C1141 H1112 0.950 . S
C1141 C1140 1.397 . S
C1141 C1142 1.334 . S
C1142 H1113 0.950 . S
C1142 C1141 1.334 . S
C1142 C1143 1.287 . S
C1143 C1142 1.287 . S
C1143 C1144 1.524 . S
C1143 H1146 0.999 . S
C1144 H1114 0.950 . S
C1144 C1143 1.524 . S
C1144 C1145 1.415 . S
C1145 H1115 0.950 . S
C1145 C1140 1.363 . S
C1145 C1144 1.415 . S
H1146 C1143 0.999 . S
H1147 C1128 0.913 . S
H1148 C1166 0.951 . S
H1149 C1168 0.951 . S
H1150 C1170 0.950 . S
H1151 C1171 0.950 . S
H1152 C1173 0.950 . S
H1153 C1176 0.950 . S
H1154 C1177 0.950 . S
H1155 C1179 0.950 . S
H1156 C1180 0.950 . S
H1157 C1181 0.951 . S
H1158 C1183 0.951 . S
H1159 C1185 0.950 . S
H1160 C1186 0.950 . S
H1161 C1188 0.950 . S
H1162 C1191 0.950 . S
H1163 C1192 0.950 . S
H1164 C1194 0.950 . S
H1165 C1195 0.950 . S
C1166 H1148 0.951 . S
C1166 C1167 1.366 . S
C1166 C1168 1.388 . S
C1167 C1166 1.366 . S
C1167 C1171 1.385 . S
C1168 H1149 0.951 . S
C1168 C1166 1.388 . S
C1168 C1169 1.366 . S
C1169 C1168 1.366 . S
C1169 C1170 1.414 . S
C1169 C1172 1.499 . S
C1170 H1150 0.950 . S
C1170 C1169 1.414 . S
C1170 C1171 1.374 . S
C1171 H1151 0.950 . S
C1171 C1167 1.385 . S
C1171 C1170 1.374 . S
C1172 C1169 1.499 . S
C1172 C1173 1.373 . S
C1172 C1174 1.389 . S
C1173 H1152 0.950 . S
C1173 C1172 1.373 . S
C1173 C1189 1.377 . S
C1174 C1172 1.389 . S
C1174 C1175 1.524 . S
C1174 C1188 1.377 . S
C1175 C1174 1.524 . S
C1175 C1176 1.397 . S
C1175 C1180 1.363 . S
C1176 H1153 0.950 . S
C1176 C1175 1.397 . S
C1176 C1177 1.334 . S
C1177 H1154 0.950 . S
C1177 C1176 1.334 . S
C1177 C1178 1.287 . S
C1178 C1177 1.287 . S
C1178 C1179 1.524 . S
C1178 H1197 0.913 . S
C1179 H1155 0.950 . S
C1179 C1178 1.524 . S
C1179 C1180 1.415 . S
C1180 H1156 0.950 . S
C1180 C1175 1.363 . S
C1180 C1179 1.415 . S
C1181 H1157 0.951 . S
C1181 C1182 1.366 . S
C1181 C1183 1.388 . S
C1182 C1181 1.366 . S
C1182 C1186 1.385 . S
C1183 H1158 0.951 . S
C1183 C1181 1.388 . S
C1183 C1184 1.366 . S
C1184 C1183 1.366 . S
C1184 C1185 1.414 . S
C1184 C1187 1.499 . S
C1185 H1159 0.950 . S
C1185 C1184 1.414 . S
C1185 C1186 1.374 . S
C1186 H1160 0.950 . S
C1186 C1182 1.385 . S
C1186 C1185 1.374 . S
C1187 C1184 1.499 . S
C1187 C1188 1.373 . S
C1187 C1189 1.389 . S
C1188 H1161 0.950 . S
C1188 C1174 1.377 . S
C1188 C1187 1.373 . S
C1189 C1173 1.377 . S
C1189 C1187 1.389 . S
C1189 C1190 1.524 . S
C1190 C1189 1.524 . S
C1190 C1191 1.397 . S
C1190 C1195 1.363 . S
C1191 H1162 0.950 . S
C1191 C1190 1.397 . S
C1191 C1192 1.334 . S
C1192 H1163 0.950 . S
C1192 C1191 1.334 . S
C1192 C1193 1.287 . S
C1193 C1192 1.287 . S
C1193 C1194 1.524 . S
C1193 H1196 0.999 . S
C1194 H1164 0.950 . S
C1194 C1193 1.524 . S
C1194 C1195 1.415 . S
C1195 H1165 0.950 . S
C1195 C1190 1.363 . S
C1195 C1194 1.415 . S
H1196 C1193 0.999 . S
H1197 C1178 0.913 . S
H1198 C1216 0.951 . S
H1199 C1218 0.951 . S
H1200 C1220 0.950 . S
H1201 C1221 0.950 . S
H1202 C1223 0.950 . S
H1203 C1226 0.950 . S
H1204 C1227 0.950 . S
H1205 C1229 0.950 . S
H1206 C1230 0.950 . S
H1207 C1231 0.951 . S
H1208 C1233 0.951 . S
H1209 C1235 0.950 . S
H1210 C1236 0.950 . S
H1211 C1238 0.950 . S
H1212 C1241 0.950 . S
H1213 C1242 0.950 . S
H1214 C1244 0.950 1_554 S
H1215 C1245 0.950 1_554 S
C1216 H1198 0.951 . S
C1216 C1217 1.366 . S
C1216 C1218 1.388 . S
C1217 C1216 1.366 . S
C1217 C1221 1.385 . S
C1218 H1199 0.951 . S
C1218 C1216 1.388 . S
C1218 C1219 1.366 . S
C1219 C1218 1.366 . S
C1219 C1220 1.414 . S
C1219 C1222 1.499 . S
C1220 H1200 0.950 . S
C1220 C1219 1.414 . S
C1220 C1221 1.374 . S
C1221 H1201 0.950 . S
C1221 C1217 1.385 . S
C1221 C1220 1.374 . S
C1222 C1219 1.499 . S
C1222 C1223 1.373 . S
C1222 C1224 1.389 . S
C1223 H1202 0.950 . S
C1223 C1222 1.373 . S
C1223 C1239 1.377 . S
C1224 C1222 1.389 . S
C1224 C1225 1.524 . S
C1224 C1238 1.377 . S
C1225 C1224 1.524 . S
C1225 C1226 1.397 . S
C1225 C1230 1.363 . S
C1226 H1203 0.950 . S
C1226 C1225 1.397 . S
C1226 C1227 1.334 . S
C1227 H1204 0.950 . S
C1227 C1226 1.334 . S
C1227 C1228 1.287 . S
C1228 C1227 1.287 . S
C1228 C1229 1.524 . S
C1228 H1247 0.913 . S
C1229 H1205 0.950 . S
C1229 C1228 1.524 . S
C1229 C1230 1.415 . S
C1230 H1206 0.950 . S
C1230 C1225 1.363 . S
C1230 C1229 1.415 . S
C1231 H1207 0.951 . S
C1231 C1232 1.366 . S
C1231 C1233 1.388 . S
C1232 C1231 1.366 . S
C1232 C1236 1.385 1_554 S
C1233 H1208 0.951 . S
C1233 C1231 1.388 . S
C1233 C1234 1.366 1_554 S
C1234 C1233 1.366 1_556 S
C1234 C1235 1.414 . S
C1234 C1237 1.499 . S
C1235 H1209 0.950 . S
C1235 C1234 1.414 . S
C1235 C1236 1.374 . S
C1236 H1210 0.950 . S
C1236 C1232 1.385 1_556 S
C1236 C1235 1.374 . S
C1237 C1234 1.499 . S
C1237 C1238 1.373 . S
C1237 C1239 1.389 . S
C1238 H1211 0.950 . S
C1238 C1224 1.377 . S
C1238 C1237 1.373 . S
C1239 C1223 1.377 . S
C1239 C1237 1.389 . S
C1239 C1240 1.524 . S
C1240 C1239 1.524 . S
C1240 C1241 1.397 . S
C1240 C1245 1.363 . S
C1241 H1212 0.950 . S
C1241 C1240 1.397 . S
C1241 C1242 1.334 . S
C1242 H1213 0.950 . S
C1242 C1241 1.334 . S
C1242 C1243 1.287 . S
C1243 C1242 1.287 . S
C1243 C1244 1.524 . S
C1243 H1246 0.999 . S
C1244 H1214 0.950 1_556 S
C1244 C1243 1.524 . S
C1244 C1245 1.415 . S
C1245 H1215 0.950 1_556 S
C1245 C1240 1.363 . S
C1245 C1244 1.415 . S
H1246 C1243 0.999 . S
H1247 C1228 0.913 . S
H1248 C1266 0.951 . S
H1249 C1268 0.951 . S
H1250 C1270 0.950 . S
H1251 C1271 0.950 . S
H1252 C1273 0.950 . S
H1253 C1276 0.950 . S
H1254 C1277 0.950 . S
H1255 C1279 0.950 . S
H1256 C1280 0.950 . S
H1257 C1281 0.951 . S
H1258 C1283 0.951 . S
H1259 C1285 0.950 . S
H1260 C1286 0.950 . S
H1261 C1288 0.950 . S
H1262 C1291 0.950 . S
H1263 C1292 0.950 . S
H1264 C1294 0.950 . S
H1265 C1295 0.950 . S
C1266 H1248 0.951 . S
C1266 C1267 1.366 . S
C1266 C1268 1.388 . S
C1267 C1266 1.366 . S
C1267 C1271 1.385 . S
C1268 H1249 0.951 . S
C1268 C1266 1.388 . S
C1268 C1269 1.366 . S
C1269 C1268 1.366 . S
C1269 C1270 1.414 . S
C1269 C1272 1.499 . S
C1270 H1250 0.950 . S
C1270 C1269 1.414 . S
C1270 C1271 1.374 . S
C1271 H1251 0.950 . S
C1271 C1267 1.385 . S
C1271 C1270 1.374 . S
C1272 C1269 1.499 . S
C1272 C1273 1.373 . S
C1272 C1274 1.389 . S
C1273 H1252 0.950 . S
C1273 C1272 1.373 . S
C1273 C1289 1.377 . S
C1274 C1272 1.389 . S
C1274 C1275 1.524 . S
C1274 C1288 1.377 . S
C1275 C1274 1.524 . S
C1275 C1276 1.397 . S
C1275 C1280 1.363 . S
C1276 H1253 0.950 . S
C1276 C1275 1.397 . S
C1276 C1277 1.334 . S
C1277 H1254 0.950 . S
C1277 C1276 1.334 . S
C1277 C1278 1.287 . S
C1278 C1277 1.287 . S
C1278 C1279 1.524 . S
C1278 H1297 0.913 . S
C1279 H1255 0.950 . S
C1279 C1278 1.524 . S
C1279 C1280 1.415 . S
C1280 H1256 0.950 . S
C1280 C1275 1.363 . S
C1280 C1279 1.415 . S
C1281 H1257 0.951 . S
C1281 C1282 1.366 . S
C1281 C1283 1.388 . S
C1282 C1281 1.366 . S
C1282 C1286 1.385 . S
C1283 H1258 0.951 . S
C1283 C1281 1.388 . S
C1283 C1284 1.366 . S
C1284 C1283 1.366 . S
C1284 C1285 1.414 . S
C1284 C1287 1.499 . S
C1285 H1259 0.950 . S
C1285 C1284 1.414 . S
C1285 C1286 1.374 . S
C1286 H1260 0.950 . S
C1286 C1282 1.385 . S
C1286 C1285 1.374 . S
C1287 C1284 1.499 . S
C1287 C1288 1.373 . S
C1287 C1289 1.389 . S
C1288 H1261 0.950 . S
C1288 C1274 1.377 . S
C1288 C1287 1.373 . S
C1289 C1273 1.377 . S
C1289 C1287 1.389 . S
C1289 C1290 1.524 . S
C1290 C1289 1.524 . S
C1290 C1291 1.397 . S
C1290 C1295 1.363 . S
C1291 H1262 0.950 . S
C1291 C1290 1.397 . S
C1291 C1292 1.334 . S
C1292 H1263 0.950 . S
C1292 C1291 1.334 . S
C1292 C1293 1.287 . S
C1293 C1292 1.287 . S
C1293 C1294 1.524 . S
C1293 H1296 0.999 . S
C1294 H1264 0.950 . S
C1294 C1293 1.524 . S
C1294 C1295 1.415 . S
C1295 H1265 0.950 . S
C1295 C1290 1.363 . S
C1295 C1294 1.415 . S
H1296 C1293 0.999 . S
H1297 C1278 0.913 . S
H1298 C1316 0.951 . S
H1299 C1318 0.951 . S
H1300 C1320 0.950 . S
H1301 C1321 0.950 1_545 S
H1302 C1323 0.950 . S
H1303 C1326 0.950 . S
H1304 C1327 0.950 . S
H1305 C1329 0.950 . S
H1306 C1330 0.950 . S
H1307 C1331 0.951 . S
H1308 C1333 0.951 . S
H1309 C1335 0.924 1_565 S
H1310 C1336 0.950 . S
H1311 C1338 0.950 1_565 S
H1312 C1341 0.950 . S
H1313 C1342 0.950 . S
H1314 C1344 0.950 . S
H1315 C1345 0.950 . S
C1316 H1298 0.951 . S
C1316 C1317 1.366 . S
C1316 C1318 1.388 . S
C1317 C1316 1.366 . S
C1317 C1321 1.385 . S
C1318 H1299 0.951 . S
C1318 C1316 1.388 . S
C1318 C1319 1.366 . S
C1319 C1318 1.366 . S
C1319 C1320 1.414 1_565 S
C1319 C1322 1.499 1_565 S
C1320 H1300 0.950 . S
C1320 C1319 1.414 1_545 S
C1320 C1321 1.374 1_545 S
C1321 H1301 0.950 1_565 S
C1321 C1317 1.385 . S
C1321 C1320 1.374 1_565 S
C1322 C1319 1.499 1_545 S
C1322 C1323 1.373 . S
C1322 C1324 1.389 1_545 S
C1323 H1302 0.950 . S
C1323 C1322 1.373 . S
C1323 C1339 1.377 . S
C1324 C1322 1.389 1_565 S
C1324 C1325 1.524 . S
C1324 C1338 1.377 1_565 S
C1325 C1324 1.524 . S
C1325 C1326 1.397 . S
C1325 C1330 1.363 . S
C1326 H1303 0.950 . S
C1326 C1325 1.397 . S
C1326 C1327 1.334 . S
C1327 H1304 0.950 . S
C1327 C1326 1.334 . S
C1327 C1328 1.287 . S
C1328 C1327 1.287 . S
C1328 C1329 1.524 . S
C1328 H1347 0.913 . S
C1329 H1305 0.950 . S
C1329 C1328 1.524 . S
C1329 C1330 1.415 . S
C1330 H1306 0.950 . S
C1330 C1325 1.363 . S
C1330 C1329 1.415 . S
C1331 H1307 0.951 . S
C1331 C1332 1.366 . S
C1331 C1333 1.388 1_556 S
C1332 C1331 1.366 . S
C1332 C1336 1.385 . S
C1333 H1308 0.951 . S
C1333 C1331 1.388 1_554 S
C1333 C1334 1.366 . S
C1334 C1333 1.366 . S
C1334 C1335 1.414 1_554 S
C1334 C1337 1.499 . S
C1335 H1309 0.924 1_545 S
C1335 C1334 1.414 1_556 S
C1335 C1336 1.374 . S
C1336 H1310 0.950 . S
C1336 C1332 1.385 . S
C1336 C1335 1.374 . S
C1337 C1334 1.499 . S
C1337 C1338 1.373 . S
C1337 C1339 1.389 . S
C1338 H1311 0.950 1_545 S
C1338 C1324 1.377 1_545 S
C1338 C1337 1.373 . S
C1339 C1323 1.377 . S
C1339 C1337 1.389 . S
C1339 C1340 1.524 . S
C1340 C1339 1.524 . S
C1340 C1341 1.397 . S
C1340 C1345 1.363 . S
C1341 H1312 0.950 . S
C1341 C1340 1.397 . S
C1341 C1342 1.334 . S
C1342 H1313 0.950 . S
C1342 C1341 1.334 . S
C1342 C1343 1.287 . S
C1343 C1342 1.287 . S
C1343 C1344 1.524 . S
C1343 H1346 0.999 . S
C1344 H1314 0.950 . S
C1344 C1343 1.524 . S
C1344 C1345 1.415 . S
C1345 H1315 0.950 . S
C1345 C1340 1.363 . S
C1345 C1344 1.415 . S
H1346 C1343 0.999 . S
H1347 C1328 0.913 . S
H1348 C1366 0.951 . S
H1349 C1368 0.951 . S
H1350 C1370 0.950 . S
H1351 C1371 0.950 . S
H1352 C1373 0.950 . S
H1353 C1376 0.950 . S
H1354 C1377 0.950 . S
H1355 C1379 0.950 . S
H1356 C1380 0.950 . S
H1357 C1381 0.951 . S
H1358 C1383 0.951 . S
H1359 C1385 0.950 . S
H1360 C1386 0.950 . S
H1361 C1388 0.950 . S
H1362 C1391 0.950 . S
H1363 C1392 0.950 . S
H1364 C1394 0.950 . S
H1365 C1395 0.950 . S
C1366 H1348 0.951 . S
C1366 C1367 1.366 . S
C1366 C1368 1.388 . S
C1367 C1366 1.366 . S
C1367 C1371 1.385 . S
C1368 H1349 0.951 . S
C1368 C1366 1.388 . S
C1368 C1369 1.366 . S
C1369 C1368 1.366 . S
C1369 C1370 1.414 . S
C1369 C1372 1.499 . S
C1370 H1350 0.950 . S
C1370 C1369 1.414 . S
C1370 C1371 1.374 . S
C1371 H1351 0.950 . S
C1371 C1367 1.385 . S
C1371 C1370 1.374 . S
C1372 C1369 1.499 . S
C1372 C1373 1.373 . S
C1372 C1374 1.389 . S
C1373 H1352 0.950 . S
C1373 C1372 1.373 . S
C1373 C1389 1.377 . S
C1374 C1372 1.389 . S
C1374 C1375 1.524 . S
C1374 C1388 1.377 . S
C1375 C1374 1.524 . S
C1375 C1376 1.397 . S
C1375 C1380 1.363 . S
C1376 H1353 0.950 . S
C1376 C1375 1.397 . S
C1376 C1377 1.334 . S
C1377 H1354 0.950 . S
C1377 C1376 1.334 . S
C1377 C1378 1.287 . S
C1378 C1377 1.287 . S
C1378 C1379 1.524 . S
C1378 H1397 0.913 . S
C1379 H1355 0.950 . S
C1379 C1378 1.524 . S
C1379 C1380 1.415 . S
C1380 H1356 0.950 . S
C1380 C1375 1.363 . S
C1380 C1379 1.415 . S
C1381 H1357 0.951 . S
C1381 C1382 1.366 . S
C1381 C1383 1.388 . S
C1382 C1381 1.366 . S
C1382 C1386 1.385 . S
C1383 H1358 0.951 . S
C1383 C1381 1.388 . S
C1383 C1384 1.366 . S
C1384 C1383 1.366 . S
C1384 C1385 1.414 . S
C1384 C1387 1.499 . S
C1385 H1359 0.950 . S
C1385 C1384 1.414 . S
C1385 C1386 1.374 . S
C1386 H1360 0.950 . S
C1386 C1382 1.385 . S
C1386 C1385 1.374 . S
C1387 C1384 1.499 . S
C1387 C1388 1.373 . S
C1387 C1389 1.389 . S
C1388 H1361 0.950 . S
C1388 C1374 1.377 . S
C1388 C1387 1.373 . S
C1389 C1373 1.377 . S
C1389 C1387 1.389 . S
C1389 C1390 1.524 . S
C1390 C1389 1.524 . S
C1390 C1391 1.397 . S
C1390 C1395 1.363 . S
C1391 H1362 0.950 . S
C1391 C1390 1.397 . S
C1391 C1392 1.334 . S
C1392 H1363 0.950 . S
C1392 C1391 1.334 . S
C1392 C1393 1.287 . S
C1393 C1392 1.287 . S
C1393 C1394 1.524 . S
C1393 H1396 0.999 . S
C1394 H1364 0.950 . S
C1394 C1393 1.524 . S
C1394 C1395 1.415 . S
C1395 H1365 0.950 . S
C1395 C1390 1.363 . S
C1395 C1394 1.415 . S
H1396 C1393 0.999 . S
H1397 C1378 0.913 . S
H1398 C1416 0.951 . S
H1399 C1418 0.951 . S
H1400 C1420 0.950 . S
H1401 C1421 0.950 . S
H1402 C1423 0.950 . S
H1403 C1426 0.950 . S
H1404 C1427 0.950 . S
H1405 C1429 0.950 . S
H1406 C1430 0.950 . S
H1407 C1431 0.951 . S
H1408 C1433 0.951 . S
H1409 C1435 0.962 . S
H1410 C1436 0.950 . S
H1411 C1438 0.950 . S
H1412 C1441 0.950 . S
H1413 C1442 0.950 . S
H1414 C1444 0.950 . S
H1415 C1445 0.950 . S
C1416 H1398 0.951 . S
C1416 C1417 1.366 . S
C1416 C1418 1.388 . S
C1417 C1416 1.366 . S
C1417 C1421 1.385 . S
C1418 H1399 0.951 . S
C1418 C1416 1.388 . S
C1418 C1419 1.366 . S
C1419 C1418 1.366 . S
C1419 C1420 1.414 . S
C1419 C1422 1.499 . S
C1420 H1400 0.950 . S
C1420 C1419 1.414 . S
C1420 C1421 1.374 . S
C1421 H1401 0.950 . S
C1421 C1417 1.385 . S
C1421 C1420 1.374 . S
C1422 C1419 1.499 . S
C1422 C1423 1.373 1_545 S
C1422 C1424 1.389 . S
C1423 H1402 0.950 . S
C1423 C1422 1.373 1_565 S
C1423 C1439 1.377 . S
C1424 C1422 1.389 . S
C1424 C1425 1.524 . S
C1424 C1438 1.377 . S
C1425 C1424 1.524 . S
C1425 C1426 1.397 . S
C1425 C1430 1.363 . S
C1426 H1403 0.950 . S
C1426 C1425 1.397 . S
C1426 C1427 1.334 . S
C1427 H1404 0.950 . S
C1427 C1426 1.334 . S
C1427 C1428 1.287 . S
C1428 C1427 1.287 . S
C1428 C1429 1.524 . S
C1428 H1447 0.913 . S
C1429 H1405 0.950 . S
C1429 C1428 1.524 . S
C1429 C1430 1.415 . S
C1430 H1406 0.950 . S
C1430 C1425 1.363 . S
C1430 C1429 1.415 . S
C1431 H1407 0.951 . S
C1431 C1432 1.366 . S
C1431 C1433 1.388 . S
C1432 C1431 1.366 . S
C1432 C1436 1.385 . S
C1433 H1408 0.951 . S
C1433 C1431 1.388 . S
C1433 C1434 1.366 . S
C1434 C1433 1.366 . S
C1434 C1435 1.408 1_565 S
C1434 C1437 1.467 1_565 S
C1435 H1409 0.962 . S
C1435 C1434 1.408 1_545 S
C1435 C1436 1.368 1_545 S
C1436 H1410 0.950 . S
C1436 C1432 1.385 . S
C1436 C1435 1.368 1_565 S
C1437 C1434 1.467 1_545 S
C1437 C1438 1.458 . S
C1437 C1439 1.342 1_545 S
C1438 H1411 0.950 . S
C1438 C1424 1.377 . S
C1438 C1437 1.458 . S
C1439 C1423 1.377 . S
C1439 C1437 1.342 1_565 S
C1439 C1440 1.524 . S
C1440 C1439 1.524 . S
C1440 C1441 1.397 . S
C1440 C1445 1.363 . S
C1441 H1412 0.950 . S
C1441 C1440 1.397 . S
C1441 C1442 1.334 . S
C1442 H1413 0.950 . S
C1442 C1441 1.334 . S
C1442 C1443 1.287 . S
C1443 C1442 1.287 . S
C1443 C1444 1.524 . S
C1443 H1446 0.999 . S
C1444 H1414 0.950 . S
C1444 C1443 1.524 . S
C1444 C1445 1.415 . S
C1445 H1415 0.950 . S
C1445 C1440 1.363 . S
C1445 C1444 1.415 . S
H1446 C1443 0.999 . S
H1447 C1428 0.913 . S
H1448 C1466 0.951 . S
H1449 C1468 0.951 . S
H1450 C1470 0.950 . S
H1451 C1471 0.950 . S
H1452 C1473 0.950 . S
H1453 C1476 0.950 . S
H1454 C1477 0.950 . S
H1455 C1479 0.950 . S
H1456 C1480 0.950 . S
H1457 C1481 0.951 . S
H1458 C1483 0.951 . S
H1459 C1485 0.950 . S
H1460 C1486 0.950 . S
H1461 C1488 0.950 . S
H1462 C1491 0.950 . S
H1463 C1492 0.950 . S
H1464 C1494 0.950 . S
H1465 C1495 0.950 . S
C1466 H1448 0.951 . S
C1466 C1467 1.366 . S
C1466 C1468 1.388 . S
C1467 C1466 1.366 . S
C1467 C1471 1.385 . S
C1468 H1449 0.951 . S
C1468 C1466 1.388 . S
C1468 C1469 1.366 . S
C1469 C1468 1.366 . S
C1469 C1470 1.414 . S
C1469 C1472 1.499 . S
C1470 H1450 0.950 . S
C1470 C1469 1.414 . S
C1470 C1471 1.374 . S
C1471 H1451 0.950 . S
C1471 C1467 1.385 . S
C1471 C1470 1.374 . S
C1472 C1469 1.499 . S
C1472 C1473 1.373 . S
C1472 C1474 1.389 . S
C1473 H1452 0.950 . S
C1473 C1472 1.373 . S
C1473 C1489 1.377 . S
C1474 C1472 1.389 . S
C1474 C1475 1.524 . S
C1474 C1488 1.377 . S
C1475 C1474 1.524 . S
C1475 C1476 1.397 . S
C1475 C1480 1.363 . S
C1476 H1453 0.950 . S
C1476 C1475 1.397 . S
C1476 C1477 1.334 . S
C1477 H1454 0.950 . S
C1477 C1476 1.334 . S
C1477 C1478 1.287 . S
C1478 C1477 1.287 . S
C1478 C1479 1.524 . S
C1478 H1497 0.913 . S
C1479 H1455 0.950 . S
C1479 C1478 1.524 . S
C1479 C1480 1.415 . S
C1480 H1456 0.950 . S
C1480 C1475 1.363 . S
C1480 C1479 1.415 . S
C1481 H1457 0.951 . S
C1481 C1482 1.366 . S
C1481 C1483 1.388 . S
C1482 C1481 1.366 . S
C1482 C1486 1.385 . S
C1483 H1458 0.951 . S
C1483 C1481 1.388 . S
C1483 C1484 1.366 . S
C1484 C1483 1.366 . S
C1484 C1485 1.414 . S
C1484 C1487 1.499 . S
C1485 H1459 0.950 . S
C1485 C1484 1.414 . S
C1485 C1486 1.374 . S
C1486 H1460 0.950 . S
C1486 C1482 1.385 . S
C1486 C1485 1.374 . S
C1487 C1484 1.499 . S
C1487 C1488 1.373 . S
C1487 C1489 1.389 . S
C1488 H1461 0.950 . S
C1488 C1474 1.377 . S
C1488 C1487 1.373 . S
C1489 C1473 1.377 . S
C1489 C1487 1.389 . S
C1489 C1490 1.524 . S
C1490 C1489 1.524 . S
C1490 C1491 1.397 . S
C1490 C1495 1.363 . S
C1491 H1462 0.950 . S
C1491 C1490 1.397 . S
C1491 C1492 1.334 . S
C1492 H1463 0.950 . S
C1492 C1491 1.334 . S
C1492 C1493 1.287 . S
C1493 C1492 1.287 . S
C1493 C1494 1.524 . S
C1493 H1496 0.999 . S
C1494 H1464 0.950 . S
C1494 C1493 1.524 . S
C1494 C1495 1.415 . S
C1495 H1465 0.950 . S
C1495 C1490 1.363 . S
C1495 C1494 1.415 . S
H1496 C1493 0.999 . S
H1497 C1478 0.913 . S
H1498 C1516 0.951 . S
H1499 C1518 0.951 1_554 S
H1500 C1520 0.957 . S
H1501 C1521 0.950 . S
H1502 C1523 0.950 . S
H1503 C1526 0.950 . S
H1504 C1527 0.950 . S
H1505 C1529 0.950 . S
H1506 C1530 0.950 . S
H1507 C1531 0.951 . S
H1508 C1533 0.951 1_545 S
H1509 C1535 0.950 . S
H1510 C1536 0.950 . S
H1511 C1538 0.950 . S
H1512 C1541 0.950 . S
H1513 C1542 0.950 . S
H1514 C1544 0.950 . S
H1515 C1545 0.950 . S
C1516 H1498 0.951 . S
C1516 C1517 1.366 . S
C1516 C1518 1.388 . S
C1517 C1516 1.366 . S
C1517 C1521 1.385 . S
C1518 H1499 0.951 1_556 S
C1518 C1516 1.388 . S
C1518 C1519 1.366 1_556 S
C1519 C1518 1.366 1_554 S
C1519 C1520 1.418 . S
C1519 C1522 1.499 . S
C1520 H1500 0.957 . S
C1520 C1519 1.418 . S
C1520 C1521 1.364 1_554 S
C1521 H1501 0.950 . S
C1521 C1517 1.385 . S
C1521 C1520 1.364 1_556 S
C1522 C1519 1.499 . S
C1522 C1523 1.373 . S
C1522 C1524 1.389 1_545 S
C1523 H1502 0.950 . S
C1523 C1522 1.373 . S
C1523 C1539 1.377 . S
C1524 C1522 1.389 1_565 S
C1524 C1525 1.524 . S
C1524 C1538 1.377 . S
C1525 C1524 1.524 . S
C1525 C1526 1.397 . S
C1525 C1530 1.363 . S
C1526 H1503 0.950 . S
C1526 C1525 1.397 . S
C1526 C1527 1.334 1_554 S
C1527 H1504 0.950 . S
C1527 C1526 1.334 1_556 S
C1527 C1528 1.287 . S
C1528 C1527 1.287 . S
C1528 C1529 1.524 1_556 S
C1528 H1547 0.913 . S
C1529 H1505 0.950 . S
C1529 C1528 1.524 1_554 S
C1529 C1530 1.415 . S
C1530 H1506 0.950 . S
C1530 C1525 1.363 . S
C1530 C1529 1.415 . S
C1531 H1507 0.951 . S
C1531 C1532 1.366 . S
C1531 C1533 1.388 . S
C1532 C1531 1.366 . S
C1532 C1536 1.385 . S
C1533 H1508 0.951 1_565 S
C1533 C1531 1.388 . S
C1533 C1534 1.366 . S
C1534 C1533 1.366 . S
C1534 C1535 1.414 . S
C1534 C1537 1.499 1_565 S
C1535 H1509 0.950 . S
C1535 C1534 1.414 . S
C1535 C1536 1.374 . S
C1536 H1510 0.950 . S
C1536 C1532 1.385 . S
C1536 C1535 1.374 . S
C1537 C1534 1.499 1_545 S
C1537 C1538 1.373 1_545 S
C1537 C1539 1.389 . S
C1538 H1511 0.950 . S
C1538 C1524 1.377 . S
C1538 C1537 1.373 1_565 S
C1539 C1523 1.377 . S
C1539 C1537 1.389 . S
C1539 C1540 1.524 . S
C1540 C1539 1.524 . S
C1540 C1541 1.397 . S
C1540 C1545 1.363 . S
C1541 H1512 0.950 . S
C1541 C1540 1.397 . S
C1541 C1542 1.334 . S
C1542 H1513 0.950 . S
C1542 C1541 1.334 . S
C1542 C1543 1.287 . S
C1543 C1542 1.287 . S
C1543 C1544 1.524 . S
C1543 H1546 0.999 . S
C1544 H1514 0.950 . S
C1544 C1543 1.524 . S
C1544 C1545 1.415 . S
C1545 H1515 0.950 . S
C1545 C1540 1.363 . S
C1545 C1544 1.415 . S
H1546 C1543 0.999 . S
H1547 C1528 0.913 . S
H1548 C1566 0.951 . S
H1549 C1568 0.951 . S
H1550 C1570 0.950 . S
H1551 C1571 0.950 . S
H1552 C1573 0.950 . S
H1553 C1576 0.950 . S
H1554 C1577 0.950 . S
H1555 C1579 0.950 . S
H1556 C1580 0.950 . S
H1557 C1581 0.951 . S
H1558 C1583 0.951 . S
H1559 C1585 0.950 . S
H1560 C1586 0.950 . S
H1561 C1588 0.950 . S
H1562 C1591 0.950 . S
H1563 C1592 0.950 . S
H1564 C1594 0.950 . S
H1565 C1595 0.950 . S
C1566 H1548 0.951 . S
C1566 C1567 1.366 . S
C1566 C1568 1.388 . S
C1567 C1566 1.366 . S
C1567 C1571 1.385 . S
C1568 H1549 0.951 . S
C1568 C1566 1.388 . S
C1568 C1569 1.366 . S
C1569 C1568 1.366 . S
C1569 C1570 1.414 . S
C1569 C1572 1.499 . S
C1570 H1550 0.950 . S
C1570 C1569 1.414 . S
C1570 C1571 1.374 . S
C1571 H1551 0.950 . S
C1571 C1567 1.385 . S
C1571 C1570 1.374 . S
C1572 C1569 1.499 . S
C1572 C1573 1.373 . S
C1572 C1574 1.389 . S
C1573 H1552 0.950 . S
C1573 C1572 1.373 . S
C1573 C1589 1.377 . S
C1574 C1572 1.389 . S
C1574 C1575 1.524 . S
C1574 C1588 1.377 . S
C1575 C1574 1.524 . S
C1575 C1576 1.397 . S
C1575 C1580 1.363 . S
C1576 H1553 0.950 . S
C1576 C1575 1.397 . S
C1576 C1577 1.334 . S
C1577 H1554 0.950 . S
C1577 C1576 1.334 . S
C1577 C1578 1.287 . S
C1578 C1577 1.287 . S
C1578 C1579 1.524 . S
C1578 H1597 0.913 . S
C1579 H1555 0.950 . S
C1579 C1578 1.524 . S
C1579 C1580 1.415 . S
C1580 H1556 0.950 . S
C1580 C1575 1.363 . S
C1580 C1579 1.415 . S
C1581 H1557 0.951 . S
C1581 C1582 1.366 . S
C1581 C1583 1.388 . S
C1582 C1581 1.366 . S
C1582 C1586 1.385 . S
C1583 H1558 0.951 . S
C1583 C1581 1.388 . S
C1583 C1584 1.366 . S
C1584 C1583 1.366 . S
C1584 C1585 1.414 . S
C1584 C1587 1.499 . S
C1585 H1559 0.950 . S
C1585 C1584 1.414 . S
C1585 C1586 1.374 . S
C1586 H1560 0.950 . S
C1586 C1582 1.385 . S
C1586 C1585 1.374 . S
C1587 C1584 1.499 . S
C1587 C1588 1.373 . S
C1587 C1589 1.389 . S
C1588 H1561 0.950 . S
C1588 C1574 1.377 . S
C1588 C1587 1.373 . S
C1589 C1573 1.377 . S
C1589 C1587 1.389 . S
C1589 C1590 1.524 . S
C1590 C1589 1.524 . S
C1590 C1591 1.397 . S
C1590 C1595 1.363 . S
C1591 H1562 0.950 . S
C1591 C1590 1.397 . S
C1591 C1592 1.334 . S
C1592 H1563 0.950 . S
C1592 C1591 1.334 . S
C1592 C1593 1.287 . S
C1593 C1592 1.287 . S
C1593 C1594 1.524 . S
C1593 H1596 0.999 . S
C1594 H1564 0.950 . S
C1594 C1593 1.524 . S
C1594 C1595 1.415 . S
C1595 H1565 0.950 . S
C1595 C1590 1.363 . S
C1595 C1594 1.415 . S
H1596 C1593 0.999 . S
H1597 C1578 0.913 . S
H1598 C1616 0.951 . S
H1599 C1618 0.951 . S
H1600 C1620 0.950 . S
H1601 C1621 0.950 . S
H1602 C1623 0.950 . S
H1603 C1626 0.950 . S
H1604 C1627 0.950 . S
H1605 C1629 0.950 . S
H1606 C1630 0.950 . S
H1607 C1631 0.951 1_545 S
H1608 C1633 0.951 . S
H1609 C1635 0.950 . S
H1610 C1636 0.950 . S
H1611 C1638 0.939 1_565 S
H1612 C1641 0.950 . S
H1613 C1642 0.950 . S
H1614 C1644 0.950 . S
H1615 C1645 0.950 . S
C1616 H1598 0.951 . S
C1616 C1617 1.366 . S
C1616 C1618 1.388 . S
C1617 C1616 1.366 . S
C1617 C1621 1.385 . S
C1618 H1599 0.951 . S
C1618 C1616 1.388 . S
C1618 C1619 1.366 . S
C1619 C1618 1.366 . S
C1619 C1620 1.414 . S
C1619 C1622 1.499 . S
C1620 H1600 0.950 . S
C1620 C1619 1.414 . S
C1620 C1621 1.374 . S
C1621 H1601 0.950 . S
C1621 C1617 1.385 . S
C1621 C1620 1.374 . S
C1622 C1619 1.499 . S
C1622 C1623 1.373 . S
C1622 C1624 1.389 . S
C1623 H1602 0.950 . S
C1623 C1622 1.373 . S
C1623 C1639 1.377 . S
C1624 C1622 1.389 . S
C1624 C1625 1.524 . S
C1624 C1638 1.388 . S
C1625 C1624 1.524 . S
C1625 C1626 1.397 . S
C1625 C1630 1.363 1_545 S
C1626 H1603 0.950 . S
C1626 C1625 1.397 . S
C1626 C1627 1.334 . S
C1627 H1604 0.950 . S
C1627 C1626 1.334 . S
C1627 C1628 1.287 . S
C1628 C1627 1.287 . S
C1628 C1629 1.524 1_545 S
C1628 H1647 0.913 . S
C1629 H1605 0.950 . S
C1629 C1628 1.524 1_565 S
C1629 C1630 1.415 . S
C1630 H1606 0.950 . S
C1630 C1625 1.363 1_565 S
C1630 C1629 1.415 . S
C1631 H1607 0.951 1_565 S
C1631 C1632 1.366 . S
C1631 C1633 1.388 1_565 S
C1632 C1631 1.366 . S
C1632 C1636 1.385 . S
C1633 H1608 0.951 . S
C1633 C1631 1.388 1_545 S
C1633 C1634 1.366 1_545 S
C1634 C1633 1.366 1_565 S
C1634 C1635 1.414 . S
C1634 C1637 1.484 1_565 S
C1635 H1609 0.950 . S
C1635 C1634 1.414 . S
C1635 C1636 1.374 . S
C1636 H1610 0.950 . S
C1636 C1632 1.385 . S
C1636 C1635 1.374 . S
C1637 C1634 1.484 1_545 S
C1637 C1638 1.373 . S
C1637 C1639 1.408 . S
C1638 H1611 0.939 1_545 S
C1638 C1624 1.388 . S
C1638 C1637 1.373 . S
C1639 C1623 1.377 . S
C1639 C1637 1.408 . S
C1639 C1640 1.524 . S
C1640 C1639 1.524 . S
C1640 C1641 1.397 1_545 S
C1640 C1645 1.363 . S
C1641 H1612 0.950 . S
C1641 C1640 1.397 1_565 S
C1641 C1642 1.334 . S
C1642 H1613 0.950 . S
C1642 C1641 1.334 . S
C1642 C1643 1.287 1_565 S
C1643 C1642 1.287 1_545 S
C1643 C1644 1.524 . S
C1643 H1646 0.999 . S
C1644 H1614 0.950 . S
C1644 C1643 1.524 . S
C1644 C1645 1.415 . S
C1645 H1615 0.950 . S
C1645 C1640 1.363 . S
C1645 C1644 1.415 . S
H1646 C1643 0.999 . S
H1647 C1628 0.913 . S
H1648 C1666 0.951 . S
H1649 C1668 0.951 . S
H1650 C1670 0.950 . S
H1651 C1671 0.950 . S
H1652 C1673 0.950 . S
H1653 C1676 0.950 . S
H1654 C1677 0.950 . S
H1655 C1679 0.950 . S
H1656 C1680 0.950 . S
H1657 C1681 0.951 . S
H1658 C1683 0.951 . S
H1659 C1685 0.950 . S
H1660 C1686 0.950 . S
H1661 C1688 0.950 . S
H1662 C1691 0.950 . S
H1663 C1692 0.950 . S
H1664 C1694 0.950 . S
H1665 C1695 0.950 . S
C1666 H1648 0.951 . S
C1666 C1667 1.366 . S
C1666 C1668 1.388 . S
C1667 C1666 1.366 . S
C1667 C1671 1.385 . S
C1668 H1649 0.951 . S
C1668 C1666 1.388 . S
C1668 C1669 1.366 . S
C1669 C1668 1.366 . S
C1669 C1670 1.414 . S
C1669 C1672 1.499 . S
C1670 H1650 0.950 . S
C1670 C1669 1.414 . S
C1670 C1671 1.374 . S
C1671 H1651 0.950 . S
C1671 C1667 1.385 . S
C1671 C1670 1.374 . S
C1672 C1669 1.499 . S
C1672 C1673 1.373 . S
C1672 C1674 1.389 . S
C1673 H1652 0.950 . S
C1673 C1672 1.373 . S
C1673 C1689 1.377 . S
C1674 C1672 1.389 . S
C1674 C1675 1.524 . S
C1674 C1688 1.377 . S
C1675 C1674 1.524 . S
C1675 C1676 1.397 . S
C1675 C1680 1.363 . S
C1676 H1653 0.950 . S
C1676 C1675 1.397 . S
C1676 C1677 1.334 . S
C1677 H1654 0.950 . S
C1677 C1676 1.334 . S
C1677 C1678 1.287 . S
C1678 C1677 1.287 . S
C1678 C1679 1.524 . S
C1678 H1697 0.913 . S
C1679 H1655 0.950 . S
C1679 C1678 1.524 . S
C1679 C1680 1.415 . S
C1680 H1656 0.950 . S
C1680 C1675 1.363 . S
C1680 C1679 1.415 . S
C1681 H1657 0.951 . S
C1681 C1682 1.366 . S
C1681 C1683 1.388 . S
C1682 C1681 1.366 . S
C1682 C1686 1.385 . S
C1683 H1658 0.951 . S
C1683 C1681 1.388 . S
C1683 C1684 1.366 . S
C1684 C1683 1.366 . S
C1684 C1685 1.414 . S
C1684 C1687 1.499 . S
C1685 H1659 0.950 . S
C1685 C1684 1.414 . S
C1685 C1686 1.374 . S
C1686 H1660 0.950 . S
C1686 C1682 1.385 . S
C1686 C1685 1.374 . S
C1687 C1684 1.499 . S
C1687 C1688 1.373 . S
C1687 C1689 1.389 . S
C1688 H1661 0.950 . S
C1688 C1674 1.377 . S
C1688 C1687 1.373 . S
C1689 C1673 1.377 . S
C1689 C1687 1.389 . S
C1689 C1690 1.524 . S
C1690 C1689 1.524 . S
C1690 C1691 1.397 . S
C1690 C1695 1.363 . S
C1691 H1662 0.950 . S
C1691 C1690 1.397 . S
C1691 C1692 1.334 . S
C1692 H1663 0.950 . S
C1692 C1691 1.334 . S
C1692 C1693 1.287 . S
C1693 C1692 1.287 . S
C1693 C1694 1.524 . S
C1693 H1696 0.999 . S
C1694 H1664 0.950 . S
C1694 C1693 1.524 . S
C1694 C1695 1.415 . S
C1695 H1665 0.950 . S
C1695 C1690 1.363 . S
C1695 C1694 1.415 . S
H1696 C1693 0.999 . S
H1697 C1678 0.913 . S
H1698 C1716 0.951 . S
H1699 C1718 0.951 . S
H1700 C1720 0.950 . S
H1701 C1721 0.950 . S
H1702 C1723 0.950 . S
H1703 C1726 0.950 . S
H1704 C1727 0.950 . S
H1705 C1729 0.950 . S
H1706 C1730 0.950 . S
H1707 C1731 0.951 . S
H1708 C1733 0.951 . S
H1709 C1735 0.950 . S
H1710 C1736 0.950 . S
H1711 C1738 0.950 . S
H1712 C1741 0.950 . S
H1713 C1742 0.950 . S
H1714 C1744 0.950 . S
H1715 C1745 0.950 . S
C1716 H1698 0.951 . S
C1716 C1717 1.366 . S
C1716 C1718 1.388 . S
C1717 C1716 1.366 . S
C1717 C1721 1.385 . S
C1718 H1699 0.951 . S
C1718 C1716 1.388 . S
C1718 C1719 1.366 . S
C1719 C1718 1.366 . S
C1719 C1720 1.414 . S
C1719 C1722 1.499 . S
C1720 H1700 0.950 . S
C1720 C1719 1.414 . S
C1720 C1721 1.374 . S
C1721 H1701 0.950 . S
C1721 C1717 1.385 . S
C1721 C1720 1.374 . S
C1722 C1719 1.499 . S
C1722 C1723 1.373 . S
C1722 C1724 1.389 . S
C1723 H1702 0.950 . S
C1723 C1722 1.373 . S
C1723 C1739 1.377 . S
C1724 C1722 1.389 . S
C1724 C1725 1.524 . S
C1724 C1738 1.377 . S
C1725 C1724 1.524 . S
C1725 C1726 1.397 . S
C1725 C1730 1.363 . S
C1726 H1703 0.950 . S
C1726 C1725 1.397 . S
C1726 C1727 1.334 . S
C1727 H1704 0.950 . S
C1727 C1726 1.334 . S
C1727 C1728 1.287 . S
C1728 C1727 1.287 . S
C1728 C1729 1.524 . S
C1728 H1747 0.913 . S
C1729 H1705 0.950 . S
C1729 C1728 1.524 . S
C1729 C1730 1.415 . S
C1730 H1706 0.950 . S
C1730 C1725 1.363 . S
C1730 C1729 1.415 . S
C1731 H1707 0.951 . S
C1731 C1732 1.366 . S
C1731 C1733 1.388 . S
C1732 C1731 1.366 . S
C1732 C1736 1.385 . S
C1733 H1708 0.951 . S
C1733 C1731 1.388 . S
C1733 C1734 1.366 . S
C1734 C1733 1.366 . S
C1734 C1735 1.414 . S
C1734 C1737 1.499 . S
C1735 H1709 0.950 . S
C1735 C1734 1.414 . S
C1735 C1736 1.374 . S
C1736 H1710 0.950 . S
C1736 C1732 1.385 . S
C1736 C1735 1.374 . S
C1737 C1734 1.499 . S
C1737 C1738 1.373 . S
C1737 C1739 1.389 . S
C1738 H1711 0.950 . S
C1738 C1724 1.377 . S
C1738 C1737 1.373 . S
C1739 C1723 1.377 . S
C1739 C1737 1.389 . S
C1739 C1740 1.524 . S
C1740 C1739 1.524 . S
C1740 C1741 1.397 . S
C1740 C1745 1.363 . S
C1741 H1712 0.950 . S
C1741 C1740 1.397 . S
C1741 C1742 1.334 . S
C1742 H1713 0.950 . S
C1742 C1741 1.334 . S
C1742 C1743 1.287 . S
C1743 C1742 1.287 . S
C1743 C1744 1.524 . S
C1743 H1746 0.999 . S
C1744 H1714 0.950 . S
C1744 C1743 1.524 . S
C1744 C1745 1.415 . S
C1745 H1715 0.950 . S
C1745 C1740 1.363 . S
C1745 C1744 1.415 . S
H1746 C1743 0.999 . S
H1747 C1728 0.913 . S
H1748 C1766 0.951 . S
H1749 C1768 0.951 . S
H1750 C1770 0.950 . S
H1751 C1771 0.950 . S
H1752 C1773 0.950 . S
H1753 C1776 0.950 . S
H1754 C1777 0.950 . S
H1755 C1779 0.950 . S
H1756 C1780 0.950 . S
H1757 C1781 0.951 . S
H1758 C1783 0.951 . S
H1759 C1785 0.950 . S
H1760 C1786 0.950 . S
H1761 C1788 0.950 . S
H1762 C1791 0.950 . S
H1763 C1792 0.950 . S
H1764 C1794 0.950 . S
H1765 C1795 0.950 . S
C1766 H1748 0.951 . S
C1766 C1767 1.366 . S
C1766 C1768 1.388 . S
C1767 C1766 1.366 . S
C1767 C1771 1.385 . S
C1768 H1749 0.951 . S
C1768 C1766 1.388 . S
C1768 C1769 1.366 . S
C1769 C1768 1.366 . S
C1769 C1770 1.414 . S
C1769 C1772 1.499 . S
C1770 H1750 0.950 . S
C1770 C1769 1.414 . S
C1770 C1771 1.374 . S
C1771 H1751 0.950 . S
C1771 C1767 1.385 . S
C1771 C1770 1.374 . S
C1772 C1769 1.499 . S
C1772 C1773 1.373 . S
C1772 C1774 1.389 . S
C1773 H1752 0.950 . S
C1773 C1772 1.373 . S
C1773 C1789 1.377 . S
C1774 C1772 1.389 . S
C1774 C1775 1.524 . S
C1774 C1788 1.377 . S
C1775 C1774 1.524 . S
C1775 C1776 1.397 . S
C1775 C1780 1.363 . S
C1776 H1753 0.950 . S
C1776 C1775 1.397 . S
C1776 C1777 1.334 . S
C1777 H1754 0.950 . S
C1777 C1776 1.334 . S
C1777 C1778 1.287 . S
C1778 C1777 1.287 . S
C1778 C1779 1.524 . S
C1778 H1797 0.913 . S
C1779 H1755 0.950 . S
C1779 C1778 1.524 . S
C1779 C1780 1.415 . S
C1780 H1756 0.950 . S
C1780 C1775 1.363 . S
C1780 C1779 1.415 . S
C1781 H1757 0.951 . S
C1781 C1782 1.366 . S
C1781 C1783 1.388 . S
C1782 C1781 1.366 . S
C1782 C1786 1.385 . S
C1783 H1758 0.951 . S
C1783 C1781 1.388 . S
C1783 C1784 1.366 . S
C1784 C1783 1.366 . S
C1784 C1785 1.414 . S
C1784 C1787 1.499 . S
C1785 H1759 0.950 . S
C1785 C1784 1.414 . S
C1785 C1786 1.374 . S
C1786 H1760 0.950 . S
C1786 C1782 1.385 . S
C1786 C1785 1.374 . S
C1787 C1784 1.499 . S
C1787 C1788 1.373 . S
C1787 C1789 1.389 . S
C1788 H1761 0.950 . S
C1788 C1774 1.377 . S
C1788 C1787 1.373 . S
C1789 C1773 1.377 . S
C1789 C1787 1.389 . S
C1789 C1790 1.524 . S
C1790 C1789 1.524 . S
C1790 C1791 1.397 . S
C1790 C1795 1.363 . S
C1791 H1762 0.950 . S
C1791 C1790 1.397 . S
C1791 C1792 1.334 . S
C1792 H1763 0.950 . S
C1792 C1791 1.334 . S
C1792 C1793 1.287 . S
C1793 C1792 1.287 . S
C1793 C1794 1.524 . S
C1793 H1796 0.999 . S
C1794 H1764 0.950 . S
C1794 C1793 1.524 . S
C1794 C1795 1.415 . S
C1795 H1765 0.950 . S
C1795 C1790 1.363 . S
C1795 C1794 1.415 . S
H1796 C1793 0.999 . S
H1797 C1778 0.913 . S
H1798 C1816 0.951 . S
H1799 C1818 0.951 . S
H1800 C1820 0.950 . S
H1801 C1821 0.950 . S
H1802 C1823 0.950 . S
H1803 C1826 0.950 . S
H1804 C1827 0.950 . S
H1805 C1829 0.950 . S
H1806 C1830 0.950 . S
H1807 C1831 0.951 . S
H1808 C1833 0.951 . S
H1809 C1835 0.950 . S
H1810 C1836 0.950 . S
H1811 C1838 0.950 . S
H1812 C1841 0.950 . S
H1813 C1842 0.950 1_556 S
H1814 C1844 0.950 . S
H1815 C1845 0.950 . S
C1816 H1798 0.951 . S
C1816 C1817 1.366 . S
C1816 C1818 1.388 . S
C1817 C1816 1.366 . S
C1817 C1821 1.385 . S
C1818 H1799 0.951 . S
C1818 C1816 1.388 . S
C1818 C1819 1.366 . S
C1819 C1818 1.366 . S
C1819 C1820 1.414 . S
C1819 C1822 1.499 . S
C1820 H1800 0.950 . S
C1820 C1819 1.414 . S
C1820 C1821 1.374 . S
C1821 H1801 0.950 . S
C1821 C1817 1.385 . S
C1821 C1820 1.374 . S
C1822 C1819 1.499 . S
C1822 C1823 1.373 . S
C1822 C1824 1.389 . S
C1823 H1802 0.950 . S
C1823 C1822 1.373 . S
C1823 C1839 1.377 . S
C1824 C1822 1.389 . S
C1824 C1825 1.524 . S
C1824 C1838 1.377 . S
C1825 C1824 1.524 . S
C1825 C1826 1.397 . S
C1825 C1830 1.363 . S
C1826 H1803 0.950 . S
C1826 C1825 1.397 . S
C1826 C1827 1.334 . S
C1827 H1804 0.950 . S
C1827 C1826 1.334 . S
C1827 C1828 1.287 . S
C1828 C1827 1.287 . S
C1828 C1829 1.524 . S
C1828 H1847 0.913 . S
C1829 H1805 0.950 . S
C1829 C1828 1.524 . S
C1829 C1830 1.415 . S
C1830 H1806 0.950 . S
C1830 C1825 1.363 . S
C1830 C1829 1.415 . S
C1831 H1807 0.951 . S
C1831 C1832 1.366 . S
C1831 C1833 1.388 1_556 S
C1832 C1831 1.366 . S
C1832 C1836 1.385 . S
C1833 H1808 0.951 . S
C1833 C1831 1.388 1_554 S
C1833 C1834 1.366 . S
C1834 C1833 1.366 . S
C1834 C1835 1.414 1_554 S
C1834 C1837 1.499 . S
C1835 H1809 0.950 . S
C1835 C1834 1.414 1_556 S
C1835 C1836 1.374 . S
C1836 H1810 0.950 . S
C1836 C1832 1.385 . S
C1836 C1835 1.374 . S
C1837 C1834 1.499 . S
C1837 C1838 1.373 . S
C1837 C1839 1.389 . S
C1838 H1811 0.950 . S
C1838 C1824 1.377 . S
C1838 C1837 1.373 . S
C1839 C1823 1.377 . S
C1839 C1837 1.389 . S
C1839 C1840 1.524 . S
C1840 C1839 1.524 . S
C1840 C1841 1.397 . S
C1840 C1845 1.363 . S
C1841 H1812 0.950 . S
C1841 C1840 1.397 . S
C1841 C1842 1.334 . S
C1842 H1813 0.950 1_554 S
C1842 C1841 1.334 . S
C1842 C1843 1.287 . S
C1843 C1842 1.287 . S
C1843 C1844 1.524 . S
C1843 H1846 0.999 . S
C1844 H1814 0.950 . S
C1844 C1843 1.524 . S
C1844 C1845 1.415 . S
C1845 H1815 0.950 . S
C1845 C1840 1.363 . S
C1845 C1844 1.415 . S
H1846 C1843 0.999 . S
H1847 C1828 0.913 . S
H1848 C1866 0.951 . S
H1849 C1868 0.951 . S
H1850 C1870 0.950 . S
H1851 C1871 0.950 . S
H1852 C1873 0.950 . S
H1853 C1876 0.950 . S
H1854 C1877 0.950 . S
H1855 C1879 0.950 . S
H1856 C1880 0.950 . S
H1857 C1881 0.951 . S
H1858 C1883 0.951 . S
H1859 C1885 0.950 . S
H1860 C1886 0.950 . S
H1861 C1888 0.950 . S
H1862 C1891 0.950 . S
H1863 C1892 0.950 . S
H1864 C1894 0.950 . S
H1865 C1895 0.950 . S
C1866 H1848 0.951 . S
C1866 C1867 1.366 . S
C1866 C1868 1.388 . S
C1867 C1866 1.366 . S
C1867 C1871 1.385 . S
C1868 H1849 0.951 . S
C1868 C1866 1.388 . S
C1868 C1869 1.366 . S
C1869 C1868 1.366 . S
C1869 C1870 1.414 . S
C1869 C1872 1.499 . S
C1870 H1850 0.950 . S
C1870 C1869 1.414 . S
C1870 C1871 1.374 . S
C1871 H1851 0.950 . S
C1871 C1867 1.385 . S
C1871 C1870 1.374 . S
C1872 C1869 1.499 . S
C1872 C1873 1.373 . S
C1872 C1874 1.389 . S
C1873 H1852 0.950 . S
C1873 C1872 1.373 . S
C1873 C1889 1.377 . S
C1874 C1872 1.389 . S
C1874 C1875 1.524 . S
C1874 C1888 1.377 . S
C1875 C1874 1.524 . S
C1875 C1876 1.397 . S
C1875 C1880 1.363 . S
C1876 H1853 0.950 . S
C1876 C1875 1.397 . S
C1876 C1877 1.334 . S
C1877 H1854 0.950 . S
C1877 C1876 1.334 . S
C1877 C1878 1.287 . S
C1878 C1877 1.287 . S
C1878 C1879 1.524 . S
C1878 H1897 0.913 . S
C1879 H1855 0.950 . S
C1879 C1878 1.524 . S
C1879 C1880 1.415 . S
C1880 H1856 0.950 . S
C1880 C1875 1.363 . S
C1880 C1879 1.415 . S
C1881 H1857 0.951 . S
C1881 C1882 1.366 . S
C1881 C1883 1.388 . S
C1882 C1881 1.366 . S
C1882 C1886 1.385 . S
C1883 H1858 0.951 . S
C1883 C1881 1.388 . S
C1883 C1884 1.366 . S
C1884 C1883 1.366 . S
C1884 C1885 1.414 . S
C1884 C1887 1.499 . S
C1885 H1859 0.950 . S
C1885 C1884 1.414 . S
C1885 C1886 1.374 . S
C1886 H1860 0.950 . S
C1886 C1882 1.385 . S
C1886 C1885 1.374 . S
C1887 C1884 1.499 . S
C1887 C1888 1.373 . S
C1887 C1889 1.389 . S
C1888 H1861 0.950 . S
C1888 C1874 1.377 . S
C1888 C1887 1.373 . S
C1889 C1873 1.377 . S
C1889 C1887 1.389 . S
C1889 C1890 1.524 . S
C1890 C1889 1.524 . S
C1890 C1891 1.397 . S
C1890 C1895 1.363 . S
C1891 H1862 0.950 . S
C1891 C1890 1.397 . S
C1891 C1892 1.334 . S
C1892 H1863 0.950 . S
C1892 C1891 1.334 . S
C1892 C1893 1.287 . S
C1893 C1892 1.287 . S
C1893 C1894 1.524 . S
C1893 H1896 0.999 . S
C1894 H1864 0.950 . S
C1894 C1893 1.524 . S
C1894 C1895 1.415 . S
C1895 H1865 0.950 . S
C1895 C1890 1.363 . S
C1895 C1894 1.415 . S
H1896 C1893 0.999 . S
H1897 C1878 0.913 . S
H1898 C1916 0.951 . S
H1899 C1918 0.951 . S
H1900 C1920 0.950 . S
H1901 C1921 0.950 . S
H1902 C1923 0.950 . S
H1903 C1926 0.950 . S
H1904 C1927 0.950 . S
H1905 C1929 0.950 . S
H1906 C1930 0.950 . S
H1907 C1931 0.951 . S
H1908 C1933 0.951 . S
H1909 C1935 0.950 . S
H1910 C1936 0.950 . S
H1911 C1938 0.950 . S
H1912 C1941 0.950 . S
H1913 C1942 0.950 . S
H1914 C1944 0.950 . S
H1915 C1945 0.950 . S
C1916 H1898 0.951 . S
C1916 C1917 1.366 . S
C1916 C1918 1.388 . S
C1917 C1916 1.366 . S
C1917 C1921 1.385 . S
C1918 H1899 0.951 . S
C1918 C1916 1.388 . S
C1918 C1919 1.366 . S
C1919 C1918 1.366 . S
C1919 C1920 1.414 . S
C1919 C1922 1.499 . S
C1920 H1900 0.950 . S
C1920 C1919 1.414 . S
C1920 C1921 1.374 . S
C1921 H1901 0.950 . S
C1921 C1917 1.385 . S
C1921 C1920 1.374 . S
C1922 C1919 1.499 . S
C1922 C1923 1.373 . S
C1922 C1924 1.389 . S
C1923 H1902 0.950 . S
C1923 C1922 1.373 . S
C1923 C1939 1.377 . S
C1924 C1922 1.389 . S
C1924 C1925 1.524 . S
C1924 C1938 1.377 . S
C1925 C1924 1.524 . S
C1925 C1926 1.397 . S
C1925 C1930 1.363 . S
C1926 H1903 0.950 . S
C1926 C1925 1.397 . S
C1926 C1927 1.334 . S
C1927 H1904 0.950 . S
C1927 C1926 1.334 . S
C1927 C1928 1.287 . S
C1928 C1927 1.287 . S
C1928 C1929 1.524 . S
C1928 H1947 0.913 . S
C1929 H1905 0.950 . S
C1929 C1928 1.524 . S
C1929 C1930 1.415 . S
C1930 H1906 0.950 . S
C1930 C1925 1.363 . S
C1930 C1929 1.415 . S
C1931 H1907 0.951 . S
C1931 C1932 1.366 . S
C1931 C1933 1.388 . S
C1932 C1931 1.366 . S
C1932 C1936 1.385 . S
C1933 H1908 0.951 . S
C1933 C1931 1.388 . S
C1933 C1934 1.366 . S
C1934 C1933 1.366 . S
C1934 C1935 1.414 . S
C1934 C1937 1.499 . S
C1935 H1909 0.950 . S
C1935 C1934 1.414 . S
C1935 C1936 1.374 . S
C1936 H1910 0.950 . S
C1936 C1932 1.385 . S
C1936 C1935 1.374 . S
C1937 C1934 1.499 . S
C1937 C1938 1.373 . S
C1937 C1939 1.389 . S
C1938 H1911 0.950 . S
C1938 C1924 1.377 . S
C1938 C1937 1.373 . S
C1939 C1923 1.377 . S
C1939 C1937 1.389 . S
C1939 C1940 1.524 . S
C1940 C1939 1.524 . S
C1940 C1941 1.397 . S
C1940 C1945 1.363 . S
C1941 H1912 0.950 . S
C1941 C1940 1.397 . S
C1941 C1942 1.334 . S
C1942 H1913 0.950 . S
C1942 C1941 1.334 . S
C1942 C1943 1.287 . S
C1943 C1942 1.287 . S
C1943 C1944 1.524 . S
C1943 H1946 0.999 . S
C1944 H1914 0.950 . S
C1944 C1943 1.524 . S
C1944 C1945 1.415 . S
C1945 H1915 0.950 . S
C1945 C1940 1.363 . S
C1945 C1944 1.415 . S
H1946 C1943 0.999 . S
H1947 C1928 0.913 . S
H1948 C1966 0.951 . S
H1949 C1968 0.951 . S
H1950 C1970 0.950 . S
H1951 C1971 0.950 . S
H1952 C1973 0.950 . S
H1953 C1976 0.950 . S
H1954 C1977 0.950 . S
H1955 C1979 0.950 . S
H1956 C1980 0.950 . S
H1957 C1981 0.951 . S
H1958 C1983 0.951 . S
H1959 C1985 0.950 . S
H1960 C1986 0.950 . S
H1961 C1988 0.950 . S
H1962 C1991 0.950 . S
H1963 C1992 0.950 . S
H1964 C1994 0.950 . S
H1965 C1995 0.950 . S
C1966 H1948 0.951 . S
C1966 C1967 1.366 . S
C1966 C1968 1.388 . S
C1967 C1966 1.366 . S
C1967 C1971 1.385 . S
C1968 H1949 0.951 . S
C1968 C1966 1.388 . S
C1968 C1969 1.366 . S
C1969 C1968 1.366 . S
C1969 C1970 1.414 . S
C1969 C1972 1.499 . S
C1970 H1950 0.950 . S
C1970 C1969 1.414 . S
C1970 C1971 1.374 . S
C1971 H1951 0.950 . S
C1971 C1967 1.385 . S
C1971 C1970 1.374 . S
C1972 C1969 1.499 . S
C1972 C1973 1.373 . S
C1972 C1974 1.389 . S
C1973 H1952 0.950 . S
C1973 C1972 1.373 . S
C1973 C1989 1.377 . S
C1974 C1972 1.389 . S
C1974 C1975 1.524 . S
C1974 C1988 1.377 . S
C1975 C1974 1.524 . S
C1975 C1976 1.397 . S
C1975 C1980 1.363 . S
C1976 H1953 0.950 . S
C1976 C1975 1.397 . S
C1976 C1977 1.334 . S
C1977 H1954 0.950 . S
C1977 C1976 1.334 . S
C1977 C1978 1.287 . S
C1978 C1977 1.287 . S
C1978 C1979 1.524 . S
C1978 H1997 0.913 . S
C1979 H1955 0.950 . S
C1979 C1978 1.524 . S
C1979 C1980 1.415 . S
C1980 H1956 0.950 . S
C1980 C1975 1.363 . S
C1980 C1979 1.415 . S
C1981 H1957 0.951 . S
C1981 C1982 1.366 . S
C1981 C1983 1.388 . S
C1982 C1981 1.366 . S
C1982 C1986 1.385 . S
C1983 H1958 0.951 . S
C1983 C1981 1.388 . S
C1983 C1984 1.366 . S
C1984 C1983 1.366 . S
C1984 C1985 1.414 . S
C1984 C1987 1.499 . S
C1985 H1959 0.950 . S
C1985 C1984 1.414 . S
C1985 C1986 1.374 . S
C1986 H1960 0.950 . S
C1986 C1982 1.385 . S
C1986 C1985 1.374 . S
C1987 C1984 1.499 . S
C1987 C1988 1.373 . S
C1987 C1989 1.389 . S
C1988 H1961 0.950 . S
C1988 C1974 1.377 . S
C1988 C1987 1.373 . S
C1989 C1973 1.377 . S
C1989 C1987 1.389 . S
C1989 C1990 1.524 . S
C1990 C1989 1.524 . S
C1990 C1991 1.397 . S
C1990 C1995 1.363 . S
C1991 H1962 0.950 . S
C1991 C1990 1.397 . S
C1991 C1992 1.334 . S
C1992 H1963 0.950 . S
C1992 C1991 1.334 . S
C1992 C1993 1.287 . S
C1993 C1992 1.287 . S
C1993 C1994 1.524 . S
C1993 H1996 0.999 . S
C1994 H1964 0.950 . S
C1994 C1993 1.524 . S
C1994 C1995 1.415 . S
C1995 H1965 0.950 . S
C1995 C1990 1.363 . S
C1995 C1994 1.415 . S
H1996 C1993 0.999 . S
H1997 C1978 0.913 . S
H1998 C2016 0.951 . S
H1999 C2018 0.951 . S
H2000 C2020 0.950 . S
H2001 C2021 0.950 . S
H2002 C2023 0.950 . S
H2003 C2026 0.950 . S
H2004 C2027 0.950 . S
H2005 C2029 0.950 . S
H2006 C2030 0.950 . S
H2007 C2031 0.951 . S
H2008 C2033 0.951 . S
H2009 C2035 0.950 . S
H2010 C2036 0.950 . S
H2011 C2038 0.950 . S
H2012 C2041 0.950 . S
H2013 C2042 0.950 . S
H2014 C2044 0.950 . S
H2015 C2045 0.950 . S
C2016 H1998 0.951 . S
C2016 C2017 1.366 . S
C2016 C2018 1.388 . S
C2017 C2016 1.366 . S
C2017 C2021 1.385 . S
C2018 H1999 0.951 . S
C2018 C2016 1.388 . S
C2018 C2019 1.366 . S
C2019 C2018 1.366 . S
C2019 C2020 1.414 . S
C2019 C2022 1.499 . S
C2020 H2000 0.950 . S
C2020 C2019 1.414 . S
C2020 C2021 1.374 . S
C2021 H2001 0.950 . S
C2021 C2017 1.385 . S
C2021 C2020 1.374 . S
C2022 C2019 1.499 . S
C2022 C2023 1.373 . S
C2022 C2024 1.389 . S
C2023 H2002 0.950 . S
C2023 C2022 1.373 . S
C2023 C2039 1.377 . S
C2024 C2022 1.389 . S
C2024 C2025 1.524 . S
C2024 C2038 1.377 . S
C2025 C2024 1.524 . S
C2025 C2026 1.397 . S
C2025 C2030 1.363 . S
C2026 H2003 0.950 . S
C2026 C2025 1.397 . S
C2026 C2027 1.334 . S
C2027 H2004 0.950 . S
C2027 C2026 1.334 . S
C2027 C2028 1.287 . S
C2028 C2027 1.287 . S
C2028 C2029 1.524 . S
C2028 H2047 0.913 . S
C2029 H2005 0.950 . S
C2029 C2028 1.524 . S
C2029 C2030 1.415 . S
C2030 H2006 0.950 . S
C2030 C2025 1.363 . S
C2030 C2029 1.415 . S
C2031 H2007 0.951 . S
C2031 C2032 1.366 . S
C2031 C2033 1.388 . S
C2032 C2031 1.366 . S
C2032 C2036 1.385 . S
C2033 H2008 0.951 . S
C2033 C2031 1.388 . S
C2033 C2034 1.366 1_556 S
C2034 C2033 1.366 1_554 S
C2034 C2035 1.414 . S
C2034 C2037 1.499 . S
C2035 H2009 0.950 . S
C2035 C2034 1.414 . S
C2035 C2036 1.374 1_554 S
C2036 H2010 0.950 . S
C2036 C2032 1.385 . S
C2036 C2035 1.374 1_556 S
C2037 C2034 1.499 . S
C2037 C2038 1.373 . S
C2037 C2039 1.389 . S
C2038 H2011 0.950 . S
C2038 C2024 1.377 . S
C2038 C2037 1.373 . S
C2039 C2023 1.377 . S
C2039 C2037 1.389 . S
C2039 C2040 1.524 . S
C2040 C2039 1.524 . S
C2040 C2041 1.397 . S
C2040 C2045 1.363 . S
C2041 H2012 0.950 . S
C2041 C2040 1.397 . S
C2041 C2042 1.334 . S
C2042 H2013 0.950 . S
C2042 C2041 1.334 . S
C2042 C2043 1.287 . S
C2043 C2042 1.287 . S
C2043 C2044 1.524 . S
C2043 H2046 0.999 . S
C2044 H2014 0.950 . S
C2044 C2043 1.524 . S
C2044 C2045 1.415 . S
C2045 H2015 0.950 . S
C2045 C2040 1.363 . S
C2045 C2044 1.415 . S
H2046 C2043 0.999 . S
H2047 C2028 0.913 . S
H2048 C2066 0.951 . S
H2049 C2068 0.951 . S
H2050 C2070 0.950 . S
H2051 C2071 0.950 . S
H2052 C2073 0.950 . S
H2053 C2076 0.950 . S
H2054 C2077 0.950 . S
H2055 C2079 0.950 . S
H2056 C2080 0.950 . S
H2057 C2081 0.951 . S
H2058 C2083 0.951 . S
H2059 C2085 0.950 . S
H2060 C2086 0.950 . S
H2061 C2088 0.950 . S
H2062 C2091 0.950 . S
H2063 C2092 0.950 . S
H2064 C2094 0.950 . S
H2065 C2095 0.950 . S
C2066 H2048 0.951 . S
C2066 C2067 1.366 . S
C2066 C2068 1.388 . S
C2067 C2066 1.366 . S
C2067 C2071 1.385 . S
C2068 H2049 0.951 . S
C2068 C2066 1.388 . S
C2068 C2069 1.366 . S
C2069 C2068 1.366 . S
C2069 C2070 1.414 . S
C2069 C2072 1.499 . S
C2070 H2050 0.950 . S
C2070 C2069 1.414 . S
C2070 C2071 1.374 . S
C2071 H2051 0.950 . S
C2071 C2067 1.385 . S
C2071 C2070 1.374 . S
C2072 C2069 1.499 . S
C2072 C2073 1.373 . S
C2072 C2074 1.389 . S
C2073 H2052 0.950 . S
C2073 C2072 1.373 . S
C2073 C2089 1.377 . S
C2074 C2072 1.389 . S
C2074 C2075 1.524 . S
C2074 C2088 1.377 . S
C2075 C2074 1.524 . S
C2075 C2076 1.397 . S
C2075 C2080 1.363 . S
C2076 H2053 0.950 . S
C2076 C2075 1.397 . S
C2076 C2077 1.334 . S
C2077 H2054 0.950 . S
C2077 C2076 1.334 . S
C2077 C2078 1.287 . S
C2078 C2077 1.287 . S
C2078 C2079 1.524 . S
C2078 H2097 0.913 . S
C2079 H2055 0.950 . S
C2079 C2078 1.524 . S
C2079 C2080 1.415 . S
C2080 H2056 0.950 . S
C2080 C2075 1.363 . S
C2080 C2079 1.415 . S
C2081 H2057 0.951 . S
C2081 C2082 1.366 . S
C2081 C2083 1.388 . S
C2082 C2081 1.366 . S
C2082 C2086 1.385 . S
C2083 H2058 0.951 . S
C2083 C2081 1.388 . S
C2083 C2084 1.366 . S
C2084 C2083 1.366 . S
C2084 C2085 1.414 . S
C2084 C2087 1.499 . S
C2085 H2059 0.950 . S
C2085 C2084 1.414 . S
C2085 C2086 1.374 . S
C2086 H2060 0.950 . S
C2086 C2082 1.385 . S
C2086 C2085 1.374 . S
C2087 C2084 1.499 . S
C2087 C2088 1.373 . S
C2087 C2089 1.389 . S
C2088 H2061 0.950 . S
C2088 C2074 1.377 . S
C2088 C2087 1.373 . S
C2089 C2073 1.377 . S
C2089 C2087 1.389 . S
C2089 C2090 1.524 . S
C2090 C2089 1.524 . S
C2090 C2091 1.397 . S
C2090 C2095 1.363 . S
C2091 H2062 0.950 . S
C2091 C2090 1.397 . S
C2091 C2092 1.334 . S
C2092 H2063 0.950 . S
C2092 C2091 1.334 . S
C2092 C2093 1.287 . S
C2093 C2092 1.287 . S
C2093 C2094 1.524 . S
C2093 H2096 0.999 . S
C2094 H2064 0.950 . S
C2094 C2093 1.524 . S
C2094 C2095 1.415 . S
C2095 H2065 0.950 . S
C2095 C2090 1.363 . S
C2095 C2094 1.415 . S
H2096 C2093 0.999 . S
H2097 C2078 0.913 . S
H2098 C2116 0.951 . S
H2099 C2118 0.951 . S
H2100 C2120 0.950 . S
H2101 C2121 0.950 . S
H2102 C2123 0.950 . S
H2103 C2126 0.950 . S
H2104 C2127 0.950 . S
H2105 C2129 0.950 . S
H2106 C2130 0.950 . S
H2107 C2131 0.951 . S
H2108 C2133 0.951 . S
H2109 C2135 0.950 . S
H2110 C2136 0.950 . S
H2111 C2138 0.950 . S
H2112 C2141 0.950 . S
H2113 C2142 0.963 . S
H2114 C2144 0.950 . S
H2115 C2145 0.950 . S
C2116 H2098 0.951 . S
C2116 C2117 1.366 . S
C2116 C2118 1.388 . S
C2117 C2116 1.366 . S
C2117 C2121 1.385 . S
C2118 H2099 0.951 . S
C2118 C2116 1.388 . S
C2118 C2119 1.366 . S
C2119 C2118 1.366 . S
C2119 C2120 1.414 . S
C2119 C2122 1.499 . S
C2120 H2100 0.950 . S
C2120 C2119 1.414 . S
C2120 C2121 1.374 . S
C2121 H2101 0.950 . S
C2121 C2117 1.385 . S
C2121 C2120 1.374 . S
C2122 C2119 1.499 . S
C2122 C2123 1.373 . S
C2122 C2124 1.389 . S
C2123 H2102 0.950 . S
C2123 C2122 1.373 . S
C2123 C2139 1.377 1_455 S
C2124 C2122 1.389 . S
C2124 C2125 1.524 . S
C2124 C2138 1.377 1_455 S
C2125 C2124 1.524 . S
C2125 C2126 1.397 . S
C2125 C2130 1.363 . S
C2126 H2103 0.950 . S
C2126 C2125 1.397 . S
C2126 C2127 1.334 . S
C2127 H2104 0.950 . S
C2127 C2126 1.334 . S
C2127 C2128 1.287 . S
C2128 C2127 1.287 . S
C2128 C2129 1.524 . S
C2128 H2147 0.913 . S
C2129 H2105 0.950 . S
C2129 C2128 1.524 . S
C2129 C2130 1.415 . S
C2130 H2106 0.950 . S
C2130 C2125 1.363 . S
C2130 C2129 1.415 . S
C2131 H2107 0.951 . S
C2131 C2132 1.366 . S
C2131 C2133 1.388 . S
C2132 C2131 1.366 . S
C2132 C2136 1.385 . S
C2133 H2108 0.951 . S
C2133 C2131 1.388 . S
C2133 C2134 1.366 . S
C2134 C2133 1.366 . S
C2134 C2135 1.414 . S
C2134 C2137 1.499 . S
C2135 H2109 0.950 . S
C2135 C2134 1.414 . S
C2135 C2136 1.374 . S
C2136 H2110 0.950 . S
C2136 C2132 1.385 . S
C2136 C2135 1.374 . S
C2137 C2134 1.499 . S
C2137 C2138 1.373 . S
C2137 C2139 1.389 . S
C2138 H2111 0.950 . S
C2138 C2124 1.377 1_655 S
C2138 C2137 1.373 . S
C2139 C2123 1.377 1_655 S
C2139 C2137 1.389 . S
C2139 C2140 1.524 . S
C2140 C2139 1.524 . S
C2140 C2141 1.397 . S
C2140 C2145 1.363 1_565 S
C2141 H2112 0.950 . S
C2141 C2140 1.397 . S
C2141 C2142 1.365 . S
C2142 H2113 0.963 . S
C2142 C2141 1.365 . S
C2142 C2143 1.244 1_565 S
C2143 C2142 1.244 1_545 S
C2143 C2144 1.524 . S
C2143 H2146 0.999 . S
C2144 H2114 0.950 . S
C2144 C2143 1.524 . S
C2144 C2145 1.415 . S
C2145 H2115 0.950 . S
C2145 C2140 1.363 1_545 S
C2145 C2144 1.415 . S
H2146 C2143 0.999 . S
H2147 C2128 0.913 . S
H2148 C2166 0.951 . S
H2149 C2168 0.951 . S
H2150 C2170 0.950 . S
H2151 C2171 0.950 . S
H2152 C2173 0.950 . S
H2153 C2176 0.950 . S
H2154 C2177 0.950 . S
H2155 C2179 0.950 . S
H2156 C2180 0.950 . S
H2157 C2181 0.951 . S
H2158 C2183 0.951 . S
H2159 C2185 0.950 . S
H2160 C2186 0.950 . S
H2161 C2188 0.950 . S
H2162 C2191 0.950 . S
H2163 C2192 0.950 . S
H2164 C2194 0.950 . S
H2165 C2195 0.950 . S
C2166 H2148 0.951 . S
C2166 C2167 1.366 . S
C2166 C2168 1.388 . S
C2167 C2166 1.366 . S
C2167 C2171 1.385 . S
C2168 H2149 0.951 . S
C2168 C2166 1.388 . S
C2168 C2169 1.366 . S
C2169 C2168 1.366 . S
C2169 C2170 1.414 . S
C2169 C2172 1.499 . S
C2170 H2150 0.950 . S
C2170 C2169 1.414 . S
C2170 C2171 1.374 . S
C2171 H2151 0.950 . S
C2171 C2167 1.385 . S
C2171 C2170 1.374 . S
C2172 C2169 1.499 . S
C2172 C2173 1.373 . S
C2172 C2174 1.389 . S
C2173 H2152 0.950 . S
C2173 C2172 1.373 . S
C2173 C2189 1.377 . S
C2174 C2172 1.389 . S
C2174 C2175 1.524 . S
C2174 C2188 1.377 . S
C2175 C2174 1.524 . S
C2175 C2176 1.397 . S
C2175 C2180 1.363 . S
C2176 H2153 0.950 . S
C2176 C2175 1.397 . S
C2176 C2177 1.334 . S
C2177 H2154 0.950 . S
C2177 C2176 1.334 . S
C2177 C2178 1.287 . S
C2178 C2177 1.287 . S
C2178 C2179 1.524 . S
C2178 H2197 0.913 . S
C2179 H2155 0.950 . S
C2179 C2178 1.524 . S
C2179 C2180 1.415 . S
C2180 H2156 0.950 . S
C2180 C2175 1.363 . S
C2180 C2179 1.415 . S
C2181 H2157 0.951 . S
C2181 C2182 1.366 . S
C2181 C2183 1.388 . S
C2182 C2181 1.366 . S
C2182 C2186 1.385 . S
C2183 H2158 0.951 . S
C2183 C2181 1.388 . S
C2183 C2184 1.366 . S
C2184 C2183 1.366 . S
C2184 C2185 1.414 . S
C2184 C2187 1.499 . S
C2185 H2159 0.950 . S
C2185 C2184 1.414 . S
C2185 C2186 1.374 . S
C2186 H2160 0.950 . S
C2186 C2182 1.385 . S
C2186 C2185 1.374 . S
C2187 C2184 1.499 . S
C2187 C2188 1.373 . S
C2187 C2189 1.389 . S
C2188 H2161 0.950 . S
C2188 C2174 1.377 . S
C2188 C2187 1.373 . S
C2189 C2173 1.377 . S
C2189 C2187 1.389 . S
C2189 C2190 1.524 . S
C2190 C2189 1.524 . S
C2190 C2191 1.397 . S
C2190 C2195 1.363 . S
C2191 H2162 0.950 . S
C2191 C2190 1.397 . S
C2191 C2192 1.334 . S
C2192 H2163 0.950 . S
C2192 C2191 1.334 . S
C2192 C2193 1.287 . S
C2193 C2192 1.287 . S
C2193 C2194 1.524 . S
C2193 H2196 0.999 . S
C2194 H2164 0.950 . S
C2194 C2193 1.524 . S
C2194 C2195 1.415 . S
C2195 H2165 0.950 . S
C2195 C2190 1.363 . S
C2195 C2194 1.415 . S
H2196 C2193 0.999 . S
H2197 C2178 0.913 . S
H2198 C2216 0.951 . S
H2199 C2218 0.951 . S
H2200 C2220 0.950 . S
H2201 C2221 0.950 . S
H2202 C2223 0.950 . S
H2203 C2226 0.950 . S
H2204 C2227 0.950 . S
H2205 C2229 0.950 . S
H2206 C2230 0.950 . S
H2207 C2231 0.951 . S
H2208 C2233 0.951 . S
H2209 C2235 0.950 . S
H2210 C2236 0.950 . S
H2211 C2238 0.950 . S
H2212 C2241 0.950 . S
H2213 C2242 0.950 . S
H2214 C2244 0.950 . S
H2215 C2245 0.950 . S
C2216 H2198 0.951 . S
C2216 C2217 1.366 . S
C2216 C2218 1.388 . S
C2217 C2216 1.366 . S
C2217 C2221 1.385 . S
C2218 H2199 0.951 . S
C2218 C2216 1.388 . S
C2218 C2219 1.366 . S
C2219 C2218 1.366 . S
C2219 C2220 1.414 . S
C2219 C2222 1.499 . S
C2220 H2200 0.950 . S
C2220 C2219 1.414 . S
C2220 C2221 1.374 . S
C2221 H2201 0.950 . S
C2221 C2217 1.385 . S
C2221 C2220 1.374 . S
C2222 C2219 1.499 . S
C2222 C2223 1.373 . S
C2222 C2224 1.389 . S
C2223 H2202 0.950 . S
C2223 C2222 1.373 . S
C2223 C2239 1.377 . S
C2224 C2222 1.389 . S
C2224 C2225 1.524 . S
C2224 C2238 1.377 . S
C2225 C2224 1.524 . S
C2225 C2226 1.397 . S
C2225 C2230 1.363 . S
C2226 H2203 0.950 . S
C2226 C2225 1.397 . S
C2226 C2227 1.334 . S
C2227 H2204 0.950 . S
C2227 C2226 1.334 . S
C2227 C2228 1.287 . S
C2228 C2227 1.287 . S
C2228 C2229 1.524 . S
C2228 H2247 0.913 . S
C2229 H2205 0.950 . S
C2229 C2228 1.524 . S
C2229 C2230 1.415 . S
C2230 H2206 0.950 . S
C2230 C2225 1.363 . S
C2230 C2229 1.415 . S
C2231 H2207 0.951 . S
C2231 C2232 1.366 . S
C2231 C2233 1.388 . S
C2232 C2231 1.366 . S
C2232 C2236 1.385 . S
C2233 H2208 0.951 . S
C2233 C2231 1.388 . S
C2233 C2234 1.366 . S
C2234 C2233 1.366 . S
C2234 C2235 1.414 . S
C2234 C2237 1.499 . S
C2235 H2209 0.950 . S
C2235 C2234 1.414 . S
C2235 C2236 1.374 . S
C2236 H2210 0.950 . S
C2236 C2232 1.385 . S
C2236 C2235 1.374 . S
C2237 C2234 1.499 . S
C2237 C2238 1.373 . S
C2237 C2239 1.389 . S
C2238 H2211 0.950 . S
C2238 C2224 1.377 . S
C2238 C2237 1.373 . S
C2239 C2223 1.377 . S
C2239 C2237 1.389 . S
C2239 C2240 1.524 . S
C2240 C2239 1.524 . S
C2240 C2241 1.397 . S
C2240 C2245 1.363 . S
C2241 H2212 0.950 . S
C2241 C2240 1.397 . S
C2241 C2242 1.334 . S
C2242 H2213 0.950 . S
C2242 C2241 1.334 . S
C2242 C2243 1.287 . S
C2243 C2242 1.287 . S
C2243 C2244 1.524 . S
C2243 H2246 0.999 . S
C2244 H2214 0.950 . S
C2244 C2243 1.524 . S
C2244 C2245 1.415 . S
C2245 H2215 0.950 . S
C2245 C2240 1.363 . S
C2245 C2244 1.415 . S
H2246 C2243 0.999 . S
H2247 C2228 0.913 . S
H2248 C2266 0.951 . S
H2249 C2268 0.951 . S
H2250 C2270 0.950 . S
H2251 C2271 0.950 . S
H2252 C2273 0.950 . S
H2253 C2276 0.950 . S
H2254 C2277 0.950 . S
H2255 C2279 0.950 . S
H2256 C2280 0.950 . S
H2257 C2281 0.951 . S
H2258 C2283 0.951 . S
H2259 C2285 0.950 . S
H2260 C2286 0.950 . S
H2261 C2288 0.950 . S
H2262 C2291 0.950 . S
H2263 C2292 0.950 . S
H2264 C2294 0.950 . S
H2265 C2295 0.950 . S
C2266 H2248 0.951 . S
C2266 C2267 1.366 . S
C2266 C2268 1.388 . S
C2267 C2266 1.366 . S
C2267 C2271 1.385 . S
C2268 H2249 0.951 . S
C2268 C2266 1.388 . S
C2268 C2269 1.366 . S
C2269 C2268 1.366 . S
C2269 C2270 1.414 . S
C2269 C2272 1.499 . S
C2270 H2250 0.950 . S
C2270 C2269 1.414 . S
C2270 C2271 1.374 . S
C2271 H2251 0.950 . S
C2271 C2267 1.385 . S
C2271 C2270 1.374 . S
C2272 C2269 1.499 . S
C2272 C2273 1.373 . S
C2272 C2274 1.389 . S
C2273 H2252 0.950 . S
C2273 C2272 1.373 . S
C2273 C2289 1.377 . S
C2274 C2272 1.389 . S
C2274 C2275 1.524 . S
C2274 C2288 1.377 . S
C2275 C2274 1.524 . S
C2275 C2276 1.397 . S
C2275 C2280 1.363 . S
C2276 H2253 0.950 . S
C2276 C2275 1.397 . S
C2276 C2277 1.334 . S
C2277 H2254 0.950 . S
C2277 C2276 1.334 . S
C2277 C2278 1.287 . S
C2278 C2277 1.287 . S
C2278 C2279 1.524 . S
C2278 H2297 0.913 . S
C2279 H2255 0.950 . S
C2279 C2278 1.524 . S
C2279 C2280 1.415 . S
C2280 H2256 0.950 . S
C2280 C2275 1.363 . S
C2280 C2279 1.415 . S
C2281 H2257 0.951 . S
C2281 C2282 1.366 . S
C2281 C2283 1.388 . S
C2282 C2281 1.366 . S
C2282 C2286 1.385 . S
C2283 H2258 0.951 . S
C2283 C2281 1.388 . S
C2283 C2284 1.366 . S
C2284 C2283 1.366 . S
C2284 C2285 1.414 . S
C2284 C2287 1.499 . S
C2285 H2259 0.950 . S
C2285 C2284 1.414 . S
C2285 C2286 1.374 . S
C2286 H2260 0.950 . S
C2286 C2282 1.385 . S
C2286 C2285 1.374 . S
C2287 C2284 1.499 . S
C2287 C2288 1.373 . S
C2287 C2289 1.389 . S
C2288 H2261 0.950 . S
C2288 C2274 1.377 . S
C2288 C2287 1.373 . S
C2289 C2273 1.377 . S
C2289 C2287 1.389 . S
C2289 C2290 1.524 . S
C2290 C2289 1.524 . S
C2290 C2291 1.397 . S
C2290 C2295 1.363 . S
C2291 H2262 0.950 . S
C2291 C2290 1.397 . S
C2291 C2292 1.334 . S
C2292 H2263 0.950 . S
C2292 C2291 1.334 . S
C2292 C2293 1.287 1_554 S
C2293 C2292 1.287 1_556 S
C2293 C2294 1.524 . S
C2293 H2296 0.999 . S
C2294 H2264 0.950 . S
C2294 C2293 1.524 . S
C2294 C2295 1.415 1_556 S
C2295 H2265 0.950 . S
C2295 C2290 1.363 . S
C2295 C2294 1.415 1_554 S
H2296 C2293 0.999 . S
H2297 C2278 0.913 . S
H2298 C2316 0.951 . S
H2299 C2318 0.951 . S
H2300 C2320 0.950 . S
H2301 C2321 0.950 . S
H2302 C2323 0.950 . S
H2303 C2326 0.950 . S
H2304 C2327 0.950 . S
H2305 C2329 0.950 . S
H2306 C2330 0.950 . S
H2307 C2331 0.951 . S
H2308 C2333 0.951 . S
H2309 C2335 0.950 . S
H2310 C2336 0.950 . S
H2311 C2338 0.950 . S
H2312 C2341 0.950 . S
H2313 C2342 0.950 . S
H2314 C2344 0.950 1_545 S
H2315 C2345 0.950 . S
C2316 H2298 0.951 . S
C2316 C2317 1.366 . S
C2316 C2318 1.388 . S
C2317 C2316 1.366 . S
C2317 C2321 1.385 . S
C2318 H2299 0.951 . S
C2318 C2316 1.388 . S
C2318 C2319 1.366 . S
C2319 C2318 1.366 . S
C2319 C2320 1.414 . S
C2319 C2322 1.499 . S
C2320 H2300 0.950 . S
C2320 C2319 1.414 . S
C2320 C2321 1.374 . S
C2321 H2301 0.950 . S
C2321 C2317 1.385 . S
C2321 C2320 1.374 . S
C2322 C2319 1.499 . S
C2322 C2323 1.373 . S
C2322 C2324 1.389 . S
C2323 H2302 0.950 . S
C2323 C2322 1.373 . S
C2323 C2339 1.377 . S
C2324 C2322 1.389 . S
C2324 C2325 1.524 . S
C2324 C2338 1.377 . S
C2325 C2324 1.524 . S
C2325 C2326 1.397 . S
C2325 C2330 1.363 . S
C2326 H2303 0.950 . S
C2326 C2325 1.397 . S
C2326 C2327 1.334 . S
C2327 H2304 0.950 . S
C2327 C2326 1.334 . S
C2327 C2328 1.287 . S
C2328 C2327 1.287 . S
C2328 C2329 1.524 . S
C2328 H2347 0.913 . S
C2329 H2305 0.950 . S
C2329 C2328 1.524 . S
C2329 C2330 1.415 . S
C2330 H2306 0.950 . S
C2330 C2325 1.363 . S
C2330 C2329 1.415 . S
C2331 H2307 0.951 . S
C2331 C2332 1.366 . S
C2331 C2333 1.388 . S
C2332 C2331 1.366 . S
C2332 C2336 1.385 . S
C2333 H2308 0.951 . S
C2333 C2331 1.388 . S
C2333 C2334 1.366 . S
C2334 C2333 1.366 . S
C2334 C2335 1.414 . S
C2334 C2337 1.499 . S
C2335 H2309 0.950 . S
C2335 C2334 1.414 . S
C2335 C2336 1.374 . S
C2336 H2310 0.950 . S
C2336 C2332 1.385 . S
C2336 C2335 1.374 . S
C2337 C2334 1.499 . S
C2337 C2338 1.373 . S
C2337 C2339 1.389 . S
C2338 H2311 0.950 . S
C2338 C2324 1.377 . S
C2338 C2337 1.373 . S
C2339 C2323 1.377 . S
C2339 C2337 1.389 . S
C2339 C2340 1.524 . S
C2340 C2339 1.524 . S
C2340 C2341 1.397 . S
C2340 C2345 1.363 . S
C2341 H2312 0.950 . S
C2341 C2340 1.397 . S
C2341 C2342 1.334 . S
C2342 H2313 0.950 . S
C2342 C2341 1.334 . S
C2342 C2343 1.287 . S
C2343 C2342 1.287 . S
C2343 C2344 1.524 . S
C2343 H2346 0.999 . S
C2344 H2314 0.950 1_565 S
C2344 C2343 1.524 . S
C2344 C2345 1.415 . S
C2345 H2315 0.950 . S
C2345 C2340 1.363 . S
C2345 C2344 1.415 . S
H2346 C2343 0.999 . S
H2347 C2328 0.913 . S
H2348 C2366 0.951 . S
H2349 C2368 0.951 . S
H2350 C2370 0.950 . S
H2351 C2371 0.950 . S
H2352 C2373 0.950 . S
H2353 C2376 0.950 . S
H2354 C2377 0.950 . S
H2355 C2379 0.950 . S
H2356 C2380 0.950 . S
H2357 C2381 0.951 . S
H2358 C2383 0.951 . S
H2359 C2385 0.950 . S
H2360 C2386 0.950 . S
H2361 C2388 0.950 . S
H2362 C2391 0.950 . S
H2363 C2392 0.950 . S
H2364 C2394 0.950 . S
H2365 C2395 0.950 . S
C2366 H2348 0.951 . S
C2366 C2367 1.366 . S
C2366 C2368 1.388 . S
C2367 C2366 1.366 . S
C2367 C2371 1.385 . S
C2368 H2349 0.951 . S
C2368 C2366 1.388 . S
C2368 C2369 1.366 . S
C2369 C2368 1.366 . S
C2369 C2370 1.414 . S
C2369 C2372 1.499 . S
C2370 H2350 0.950 . S
C2370 C2369 1.414 . S
C2370 C2371 1.374 . S
C2371 H2351 0.950 . S
C2371 C2367 1.385 . S
C2371 C2370 1.374 . S
C2372 C2369 1.499 . S
C2372 C2373 1.373 . S
C2372 C2374 1.389 . S
C2373 H2352 0.950 . S
C2373 C2372 1.373 . S
C2373 C2389 1.377 . S
C2374 C2372 1.389 . S
C2374 C2375 1.524 . S
C2374 C2388 1.377 . S
C2375 C2374 1.524 . S
C2375 C2376 1.397 . S
C2375 C2380 1.363 . S
C2376 H2353 0.950 . S
C2376 C2375 1.397 . S
C2376 C2377 1.334 . S
C2377 H2354 0.950 . S
C2377 C2376 1.334 . S
C2377 C2378 1.287 . S
C2378 C2377 1.287 . S
C2378 C2379 1.524 . S
C2378 H2397 0.913 . S
C2379 H2355 0.950 . S
C2379 C2378 1.524 . S
C2379 C2380 1.415 . S
C2380 H2356 0.950 . S
C2380 C2375 1.363 . S
C2380 C2379 1.415 . S
C2381 H2357 0.951 . S
C2381 C2382 1.366 . S
C2381 C2383 1.388 . S
C2382 C2381 1.366 . S
C2382 C2386 1.385 . S
C2383 H2358 0.951 . S
C2383 C2381 1.388 . S
C2383 C2384 1.366 . S
C2384 C2383 1.366 . S
C2384 C2385 1.414 . S
C2384 C2387 1.499 . S
C2385 H2359 0.950 . S
C2385 C2384 1.414 . S
C2385 C2386 1.374 . S
C2386 H2360 0.950 . S
C2386 C2382 1.385 . S
C2386 C2385 1.374 . S
C2387 C2384 1.499 . S
C2387 C2388 1.373 . S
C2387 C2389 1.389 . S
C2388 H2361 0.950 . S
C2388 C2374 1.377 . S
C2388 C2387 1.373 . S
C2389 C2373 1.377 . S
C2389 C2387 1.389 . S
C2389 C2390 1.524 . S
C2390 C2389 1.524 . S
C2390 C2391 1.397 . S
C2390 C2395 1.363 . S
C2391 H2362 0.950 . S
C2391 C2390 1.397 . S
C2391 C2392 1.334 . S
C2392 H2363 0.950 . S
C2392 C2391 1.334 . S
C2392 C2393 1.287 . S
C2393 C2392 1.287 . S
C2393 C2394 1.524 . S
C2393 H2396 0.999 . S
C2394 H2364 0.950 . S
C2394 C2393 1.524 . S
C2394 C2395 1.415 . S
C2395 H2365 0.950 . S
C2395 C2390 1.363 . S
C2395 C2394 1.415 . S
H2396 C2393 0.999 . S
H2397 C2378 0.913 . S
H2398 C2416 0.951 . S
H2399 C2418 0.951 . S
H2400 C2420 0.950 . S
H2401 C2421 0.950 . S
H2402 C2423 0.950 . S
H2403 C2426 0.950 . S
H2404 C2427 0.950 . S
H2405 C2429 0.943 1_554 S
H2406 C2430 0.950 . S
H2407 C2431 0.951 . S
H2408 C2433 0.951 . S
H2409 C2435 0.950 . S
H2410 C2436 0.950 . S
H2411 C2438 0.950 . S
H2412 C2441 0.950 . S
H2413 C2442 0.950 . S
H2414 C2444 0.950 . S
H2415 C2445 0.950 . S
C2416 H2398 0.951 . S
C2416 C2417 1.366 . S
C2416 C2418 1.388 . S
C2417 C2416 1.366 . S
C2417 C2421 1.385 . S
C2418 H2399 0.951 . S
C2418 C2416 1.388 . S
C2418 C2419 1.366 . S
C2419 C2418 1.366 . S
C2419 C2420 1.414 . S
C2419 C2422 1.499 . S
C2420 H2400 0.950 . S
C2420 C2419 1.414 . S
C2420 C2421 1.374 . S
C2421 H2401 0.950 . S
C2421 C2417 1.385 . S
C2421 C2420 1.374 . S
C2422 C2419 1.499 . S
C2422 C2423 1.373 . S
C2422 C2424 1.389 . S
C2423 H2402 0.950 . S
C2423 C2422 1.373 . S
C2423 C2439 1.377 1_655 S
C2424 C2422 1.389 . S
C2424 C2425 1.524 . S
C2424 C2438 1.377 1_655 S
C2425 C2424 1.524 . S
C2425 C2426 1.397 . S
C2425 C2430 1.363 . S
C2426 H2403 0.950 . S
C2426 C2425 1.397 . S
C2426 C2427 1.334 . S
C2427 H2404 0.950 . S
C2427 C2426 1.334 . S
C2427 C2428 1.287 . S
C2428 C2427 1.287 . S
C2428 C2429 1.525 . S
C2428 H2447 0.913 1_556 S
C2429 H2405 0.943 1_556 S
C2429 C2428 1.525 . S
C2429 C2430 1.422 . S
C2430 H2406 0.950 . S
C2430 C2425 1.363 . S
C2430 C2429 1.422 . S
C2431 H2407 0.951 . S
C2431 C2432 1.366 . S
C2431 C2433 1.388 . S
C2432 C2431 1.366 . S
C2432 C2436 1.385 . S
C2433 H2408 0.951 . S
C2433 C2431 1.388 . S
C2433 C2434 1.366 . S
C2434 C2433 1.366 . S
C2434 C2435 1.414 . S
C2434 C2437 1.499 . S
C2435 H2409 0.950 . S
C2435 C2434 1.414 . S
C2435 C2436 1.374 . S
C2436 H2410 0.950 . S
C2436 C2432 1.385 . S
C2436 C2435 1.374 . S
C2437 C2434 1.499 . S
C2437 C2438 1.373 . S
C2437 C2439 1.389 . S
C2438 H2411 0.950 . S
C2438 C2424 1.377 1_455 S
C2438 C2437 1.373 . S
C2439 C2423 1.377 1_455 S
C2439 C2437 1.389 . S
C2439 C2440 1.524 . S
C2440 C2439 1.524 . S
C2440 C2441 1.397 . S
C2440 C2445 1.363 . S
C2441 H2412 0.950 . S
C2441 C2440 1.397 . S
C2441 C2442 1.334 . S
C2442 H2413 0.950 . S
C2442 C2441 1.334 . S
C2442 C2443 1.287 . S
C2443 C2442 1.287 . S
C2443 C2444 1.524 . S
C2443 H2446 0.999 . S
C2444 H2414 0.950 . S
C2444 C2443 1.524 . S
C2444 C2445 1.415 . S
C2445 H2415 0.950 . S
C2445 C2440 1.363 . S
C2445 C2444 1.415 . S
H2446 C2443 0.999 . S
H2447 C2428 0.913 1_554 S
H2448 C2466 0.951 . S
H2449 C2468 0.951 . S
H2450 C2470 0.950 . S
H2451 C2471 0.950 . S
H2452 C2473 0.950 . S
H2453 C2476 0.950 . S
H2454 C2477 0.950 . S
H2455 C2479 0.950 . S
H2456 C2480 0.950 . S
H2457 C2481 0.951 . S
H2458 C2483 0.951 . S
H2459 C2485 0.950 . S
H2460 C2486 0.950 . S
H2461 C2488 0.950 . S
H2462 C2491 0.950 . S
H2463 C2492 0.950 . S
H2464 C2494 0.950 . S
H2465 C2495 0.950 . S
C2466 H2448 0.951 . S
C2466 C2467 1.366 . S
C2466 C2468 1.388 . S
C2467 C2466 1.366 . S
C2467 C2471 1.385 . S
C2468 H2449 0.951 . S
C2468 C2466 1.388 . S
C2468 C2469 1.366 . S
C2469 C2468 1.366 . S
C2469 C2470 1.414 . S
C2469 C2472 1.499 . S
C2470 H2450 0.950 . S
C2470 C2469 1.414 . S
C2470 C2471 1.374 . S
C2471 H2451 0.950 . S
C2471 C2467 1.385 . S
C2471 C2470 1.374 . S
C2472 C2469 1.499 . S
C2472 C2473 1.373 . S
C2472 C2474 1.389 . S
C2473 H2452 0.950 . S
C2473 C2472 1.373 . S
C2473 C2489 1.377 . S
C2474 C2472 1.389 . S
C2474 C2475 1.524 . S
C2474 C2488 1.377 . S
C2475 C2474 1.524 . S
C2475 C2476 1.397 . S
C2475 C2480 1.363 . S
C2476 H2453 0.950 . S
C2476 C2475 1.397 . S
C2476 C2477 1.334 . S
C2477 H2454 0.950 . S
C2477 C2476 1.334 . S
C2477 C2478 1.287 . S
C2478 C2477 1.287 . S
C2478 C2479 1.524 . S
C2478 H2497 0.913 . S
C2479 H2455 0.950 . S
C2479 C2478 1.524 . S
C2479 C2480 1.415 . S
C2480 H2456 0.950 . S
C2480 C2475 1.363 . S
C2480 C2479 1.415 . S
C2481 H2457 0.951 . S
C2481 C2482 1.366 . S
C2481 C2483 1.388 . S
C2482 C2481 1.366 . S
C2482 C2486 1.385 . S
C2483 H2458 0.951 . S
C2483 C2481 1.388 . S
C2483 C2484 1.366 . S
C2484 C2483 1.366 . S
C2484 C2485 1.414 . S
C2484 C2487 1.499 . S
C2485 H2459 0.950 . S
C2485 C2484 1.414 . S
C2485 C2486 1.374 . S
C2486 H2460 0.950 . S
C2486 C2482 1.385 . S
C2486 C2485 1.374 . S
C2487 C2484 1.499 . S
C2487 C2488 1.373 . S
C2487 C2489 1.389 . S
C2488 H2461 0.950 . S
C2488 C2474 1.377 . S
C2488 C2487 1.373 . S
C2489 C2473 1.377 . S
C2489 C2487 1.389 . S
C2489 C2490 1.524 . S
C2490 C2489 1.524 . S
C2490 C2491 1.397 . S
C2490 C2495 1.363 . S
C2491 H2462 0.950 . S
C2491 C2490 1.397 . S
C2491 C2492 1.334 . S
C2492 H2463 0.950 . S
C2492 C2491 1.334 . S
C2492 C2493 1.287 . S
C2493 C2492 1.287 . S
C2493 C2494 1.524 . S
C2493 H2496 0.999 . S
C2494 H2464 0.950 . S
C2494 C2493 1.524 . S
C2494 C2495 1.415 . S
C2495 H2465 0.950 . S
C2495 C2490 1.363 . S
C2495 C2494 1.415 . S
H2496 C2493 0.999 . S
H2497 C2478 0.913 . S
H2498 C2516 0.951 . S
H2499 C2518 0.951 . S
H2500 C2520 0.950 . S
H2501 C2521 0.950 . S
H2502 C2523 0.950 . S
H2503 C2526 0.950 . S
H2504 C2527 0.950 . S
H2505 C2529 0.950 . S
H2506 C2530 0.950 . S
H2507 C2531 0.951 . S
H2508 C2533 0.951 . S
H2509 C2535 0.950 . S
H2510 C2536 0.950 . S
H2511 C2538 0.950 . S
H2512 C2541 0.950 . S
H2513 C2542 0.950 . S
H2514 C2544 0.950 . S
H2515 C2545 0.950 . S
C2516 H2498 0.951 . S
C2516 C2517 1.366 . S
C2516 C2518 1.388 . S
C2517 C2516 1.366 . S
C2517 C2521 1.385 . S
C2518 H2499 0.951 . S
C2518 C2516 1.388 . S
C2518 C2519 1.366 . S
C2519 C2518 1.366 . S
C2519 C2520 1.414 . S
C2519 C2522 1.499 . S
C2520 H2500 0.950 . S
C2520 C2519 1.414 . S
C2520 C2521 1.374 . S
C2521 H2501 0.950 . S
C2521 C2517 1.385 . S
C2521 C2520 1.374 . S
C2522 C2519 1.499 . S
C2522 C2523 1.373 . S
C2522 C2524 1.389 . S
C2523 H2502 0.950 . S
C2523 C2522 1.373 . S
C2523 C2539 1.377 . S
C2524 C2522 1.389 . S
C2524 C2525 1.524 . S
C2524 C2538 1.377 . S
C2525 C2524 1.524 . S
C2525 C2526 1.397 . S
C2525 C2530 1.363 . S
C2526 H2503 0.950 . S
C2526 C2525 1.397 . S
C2526 C2527 1.334 . S
C2527 H2504 0.950 . S
C2527 C2526 1.334 . S
C2527 C2528 1.287 . S
C2528 C2527 1.287 . S
C2528 C2529 1.524 . S
C2528 H2547 0.913 . S
C2529 H2505 0.950 . S
C2529 C2528 1.524 . S
C2529 C2530 1.415 . S
C2530 H2506 0.950 . S
C2530 C2525 1.363 . S
C2530 C2529 1.415 . S
C2531 H2507 0.951 . S
C2531 C2532 1.366 . S
C2531 C2533 1.388 . S
C2532 C2531 1.366 . S
C2532 C2536 1.385 . S
C2533 H2508 0.951 . S
C2533 C2531 1.388 . S
C2533 C2534 1.366 . S
C2534 C2533 1.366 . S
C2534 C2535 1.414 . S
C2534 C2537 1.499 . S
C2535 H2509 0.950 . S
C2535 C2534 1.414 . S
C2535 C2536 1.374 . S
C2536 H2510 0.950 . S
C2536 C2532 1.385 . S
C2536 C2535 1.374 . S
C2537 C2534 1.499 . S
C2537 C2538 1.373 . S
C2537 C2539 1.389 . S
C2538 H2511 0.950 . S
C2538 C2524 1.377 . S
C2538 C2537 1.373 . S
C2539 C2523 1.377 . S
C2539 C2537 1.389 . S
C2539 C2540 1.524 . S
C2540 C2539 1.524 . S
C2540 C2541 1.397 . S
C2540 C2545 1.363 . S
C2541 H2512 0.950 . S
C2541 C2540 1.397 . S
C2541 C2542 1.334 . S
C2542 H2513 0.950 . S
C2542 C2541 1.334 . S
C2542 C2543 1.287 . S
C2543 C2542 1.287 . S
C2543 C2544 1.524 . S
C2543 H2546 0.999 . S
C2544 H2514 0.950 . S
C2544 C2543 1.524 . S
C2544 C2545 1.415 . S
C2545 H2515 0.950 . S
C2545 C2540 1.363 . S
C2545 C2544 1.415 . S
H2546 C2543 0.999 . S
H2547 C2528 0.913 . S
H2548 C2566 0.951 . S
H2549 C2568 0.951 . S
H2550 C2570 0.950 . S
H2551 C2571 0.950 . S
H2552 C2573 0.950 . S
H2553 C2576 0.950 . S
H2554 C2577 0.950 . S
H2555 C2579 0.950 . S
H2556 C2580 0.950 . S
H2557 C2581 0.951 . S
H2558 C2583 0.951 . S
H2559 C2585 0.950 . S
H2560 C2586 0.950 . S
H2561 C2588 0.950 . S
H2562 C2591 0.950 . S
H2563 C2592 0.950 . S
H2564 C2594 0.950 . S
H2565 C2595 0.950 . S
C2566 H2548 0.951 . S
C2566 C2567 1.366 . S
C2566 C2568 1.388 . S
C2567 C2566 1.366 . S
C2567 C2571 1.385 . S
C2568 H2549 0.951 . S
C2568 C2566 1.388 . S
C2568 C2569 1.366 . S
C2569 C2568 1.366 . S
C2569 C2570 1.414 . S
C2569 C2572 1.499 . S
C2570 H2550 0.950 . S
C2570 C2569 1.414 . S
C2570 C2571 1.374 . S
C2571 H2551 0.950 . S
C2571 C2567 1.385 . S
C2571 C2570 1.374 . S
C2572 C2569 1.499 . S
C2572 C2573 1.373 . S
C2572 C2574 1.389 . S
C2573 H2552 0.950 . S
C2573 C2572 1.373 . S
C2573 C2589 1.377 . S
C2574 C2572 1.389 . S
C2574 C2575 1.524 . S
C2574 C2588 1.377 . S
C2575 C2574 1.524 . S
C2575 C2576 1.397 . S
C2575 C2580 1.363 . S
C2576 H2553 0.950 . S
C2576 C2575 1.397 . S
C2576 C2577 1.334 . S
C2577 H2554 0.950 . S
C2577 C2576 1.334 . S
C2577 C2578 1.287 . S
C2578 C2577 1.287 . S
C2578 C2579 1.524 . S
C2578 H2597 0.913 . S
C2579 H2555 0.950 . S
C2579 C2578 1.524 . S
C2579 C2580 1.415 . S
C2580 H2556 0.950 . S
C2580 C2575 1.363 . S
C2580 C2579 1.415 . S
C2581 H2557 0.951 . S
C2581 C2582 1.366 . S
C2581 C2583 1.388 . S
C2582 C2581 1.366 . S
C2582 C2586 1.385 . S
C2583 H2558 0.951 . S
C2583 C2581 1.388 . S
C2583 C2584 1.366 . S
C2584 C2583 1.366 . S
C2584 C2585 1.414 . S
C2584 C2587 1.499 . S
C2585 H2559 0.950 . S
C2585 C2584 1.414 . S
C2585 C2586 1.374 . S
C2586 H2560 0.950 . S
C2586 C2582 1.385 . S
C2586 C2585 1.374 . S
C2587 C2584 1.499 . S
C2587 C2588 1.373 . S
C2587 C2589 1.389 . S
C2588 H2561 0.950 . S
C2588 C2574 1.377 . S
C2588 C2587 1.373 . S
C2589 C2573 1.377 . S
C2589 C2587 1.389 . S
C2589 C2590 1.524 . S
C2590 C2589 1.524 . S
C2590 C2591 1.397 1_554 S
C2590 C2595 1.363 . S
C2591 H2562 0.950 . S
C2591 C2590 1.397 1_556 S
C2591 C2592 1.334 . S
C2592 H2563 0.950 . S
C2592 C2591 1.334 . S
C2592 C2593 1.287 . S
C2593 C2592 1.287 . S
C2593 C2594 1.524 1_556 S
C2593 H2596 0.999 . S
C2594 H2564 0.950 . S
C2594 C2593 1.524 1_554 S
C2594 C2595 1.415 . S
C2595 H2565 0.950 . S
C2595 C2590 1.363 . S
C2595 C2594 1.415 . S
H2596 C2593 0.999 . S
H2597 C2578 0.913 . S
H2598 C2616 0.951 . S
H2599 C2618 0.951 . S
H2600 C2620 0.950 . S
H2601 C2621 0.950 . S
H2602 C2623 0.950 . S
H2603 C2626 0.950 . S
H2604 C2627 0.950 . S
H2605 C2629 0.950 . S
H2606 C2630 0.950 . S
H2607 C2631 0.951 . S
H2608 C2633 0.951 . S
H2609 C2635 0.950 . S
H2610 C2636 0.950 . S
H2611 C2638 0.950 . S
H2612 C2641 0.950 . S
H2613 C2642 0.950 . S
H2614 C2644 0.950 . S
H2615 C2645 0.950 . S
C2616 H2598 0.951 . S
C2616 C2617 1.366 . S
C2616 C2618 1.388 . S
C2617 C2616 1.366 . S
C2617 C2621 1.385 . S
C2618 H2599 0.951 . S
C2618 C2616 1.388 . S
C2618 C2619 1.366 . S
C2619 C2618 1.366 . S
C2619 C2620 1.414 . S
C2619 C2622 1.499 . S
C2620 H2600 0.950 . S
C2620 C2619 1.414 . S
C2620 C2621 1.374 . S
C2621 H2601 0.950 . S
C2621 C2617 1.385 . S
C2621 C2620 1.374 . S
C2622 C2619 1.499 . S
C2622 C2623 1.373 . S
C2622 C2624 1.389 . S
C2623 H2602 0.950 . S
C2623 C2622 1.373 . S
C2623 C2639 1.377 . S
C2624 C2622 1.389 . S
C2624 C2625 1.524 . S
C2624 C2638 1.377 . S
C2625 C2624 1.524 . S
C2625 C2626 1.397 . S
C2625 C2630 1.363 . S
C2626 H2603 0.950 . S
C2626 C2625 1.397 . S
C2626 C2627 1.334 . S
C2627 H2604 0.950 . S
C2627 C2626 1.334 . S
C2627 C2628 1.287 . S
C2628 C2627 1.287 . S
C2628 C2629 1.524 . S
C2628 H2647 0.913 . S
C2629 H2605 0.950 . S
C2629 C2628 1.524 . S
C2629 C2630 1.415 . S
C2630 H2606 0.950 . S
C2630 C2625 1.363 . S
C2630 C2629 1.415 . S
C2631 H2607 0.951 . S
C2631 C2632 1.366 . S
C2631 C2633 1.388 . S
C2632 C2631 1.366 . S
C2632 C2636 1.385 . S
C2633 H2608 0.951 . S
C2633 C2631 1.388 . S
C2633 C2634 1.366 . S
C2634 C2633 1.366 . S
C2634 C2635 1.414 . S
C2634 C2637 1.499 . S
C2635 H2609 0.950 . S
C2635 C2634 1.414 . S
C2635 C2636 1.374 . S
C2636 H2610 0.950 . S
C2636 C2632 1.385 . S
C2636 C2635 1.374 . S
C2637 C2634 1.499 . S
C2637 C2638 1.373 . S
C2637 C2639 1.389 . S
C2638 H2611 0.950 . S
C2638 C2624 1.377 . S
C2638 C2637 1.373 . S
C2639 C2623 1.377 . S
C2639 C2637 1.389 . S
C2639 C2640 1.524 . S
C2640 C2639 1.524 . S
C2640 C2641 1.397 . S
C2640 C2645 1.363 . S
C2641 H2612 0.950 . S
C2641 C2640 1.397 . S
C2641 C2642 1.334 . S
C2642 H2613 0.950 . S
C2642 C2641 1.334 . S
C2642 C2643 1.287 . S
C2643 C2642 1.287 . S
C2643 C2644 1.524 . S
C2643 H2646 0.999 . S
C2644 H2614 0.950 . S
C2644 C2643 1.524 . S
C2644 C2645 1.415 . S
C2645 H2615 0.950 . S
C2645 C2640 1.363 . S
C2645 C2644 1.415 . S
H2646 C2643 0.999 . S
H2647 C2628 0.913 . S
H2648 C2666 0.951 . S
H2649 C2668 0.951 . S
H2650 C2670 0.950 . S
H2651 C2671 0.950 . S
H2652 C2673 0.950 . S
H2653 C2676 0.950 . S
H2654 C2677 0.950 . S
H2655 C2679 0.950 . S
H2656 C2680 0.950 . S
H2657 C2681 0.951 . S
H2658 C2683 0.951 . S
H2659 C2685 0.950 . S
H2660 C2686 0.950 . S
H2661 C2688 0.950 . S
H2662 C2691 0.950 . S
H2663 C2692 0.950 . S
H2664 C2694 0.950 . S
H2665 C2695 0.950 . S
C2666 H2648 0.951 . S
C2666 C2667 1.366 . S
C2666 C2668 1.388 . S
C2667 C2666 1.366 . S
C2667 C2671 1.385 . S
C2668 H2649 0.951 . S
C2668 C2666 1.388 . S
C2668 C2669 1.366 . S
C2669 C2668 1.366 . S
C2669 C2670 1.414 . S
C2669 C2672 1.499 . S
C2670 H2650 0.950 . S
C2670 C2669 1.414 . S
C2670 C2671 1.374 . S
C2671 H2651 0.950 . S
C2671 C2667 1.385 . S
C2671 C2670 1.374 . S
C2672 C2669 1.499 . S
C2672 C2673 1.373 . S
C2672 C2674 1.389 . S
C2673 H2652 0.950 . S
C2673 C2672 1.373 . S
C2673 C2689 1.377 . S
C2674 C2672 1.389 . S
C2674 C2675 1.524 . S
C2674 C2688 1.377 . S
C2675 C2674 1.524 . S
C2675 C2676 1.397 . S
C2675 C2680 1.363 . S
C2676 H2653 0.950 . S
C2676 C2675 1.397 . S
C2676 C2677 1.334 . S
C2677 H2654 0.950 . S
C2677 C2676 1.334 . S
C2677 C2678 1.287 . S
C2678 C2677 1.287 . S
C2678 C2679 1.524 . S
C2678 H2697 0.913 . S
C2679 H2655 0.950 . S
C2679 C2678 1.524 . S
C2679 C2680 1.415 . S
C2680 H2656 0.950 . S
C2680 C2675 1.363 . S
C2680 C2679 1.415 . S
C2681 H2657 0.951 . S
C2681 C2682 1.366 . S
C2681 C2683 1.388 . S
C2682 C2681 1.366 . S
C2682 C2686 1.385 . S
C2683 H2658 0.951 . S
C2683 C2681 1.388 . S
C2683 C2684 1.366 . S
C2684 C2683 1.366 . S
C2684 C2685 1.414 . S
C2684 C2687 1.499 . S
C2685 H2659 0.950 . S
C2685 C2684 1.414 . S
C2685 C2686 1.374 . S
C2686 H2660 0.950 . S
C2686 C2682 1.385 . S
C2686 C2685 1.374 . S
C2687 C2684 1.499 . S
C2687 C2688 1.373 . S
C2687 C2689 1.389 . S
C2688 H2661 0.950 . S
C2688 C2674 1.377 . S
C2688 C2687 1.373 . S
C2689 C2673 1.377 . S
C2689 C2687 1.389 . S
C2689 C2690 1.524 . S
C2690 C2689 1.524 . S
C2690 C2691 1.397 . S
C2690 C2695 1.363 . S
C2691 H2662 0.950 . S
C2691 C2690 1.397 . S
C2691 C2692 1.334 . S
C2692 H2663 0.950 . S
C2692 C2691 1.334 . S
C2692 C2693 1.287 . S
C2693 C2692 1.287 . S
C2693 C2694 1.524 . S
C2693 H2696 0.999 . S
C2694 H2664 0.950 . S
C2694 C2693 1.524 . S
C2694 C2695 1.415 . S
C2695 H2665 0.950 . S
C2695 C2690 1.363 . S
C2695 C2694 1.415 . S
H2696 C2693 0.999 . S
H2697 C2678 0.913 . S
H2698 C2716 0.951 . S
H2699 C2718 0.951 . S
H2700 C2720 0.950 . S
H2701 C2721 0.950 . S
H2702 C2723 0.950 . S
H2703 C2726 0.950 . S
H2704 C2727 0.950 . S
H2705 C2729 0.950 . S
H2706 C2730 0.950 . S
H2707 C2731 0.951 . S
H2708 C2733 0.951 . S
H2709 C2735 0.950 . S
H2710 C2736 0.950 . S
H2711 C2738 0.950 . S
H2712 C2741 0.950 . S
H2713 C2742 0.950 . S
H2714 C2744 0.950 . S
H2715 C2745 0.950 . S
C2716 H2698 0.951 . S
C2716 C2717 1.366 . S
C2716 C2718 1.388 . S
C2717 C2716 1.366 . S
C2717 C2721 1.385 . S
C2718 H2699 0.951 . S
C2718 C2716 1.388 . S
C2718 C2719 1.366 . S
C2719 C2718 1.366 . S
C2719 C2720 1.414 . S
C2719 C2722 1.499 . S
C2720 H2700 0.950 . S
C2720 C2719 1.414 . S
C2720 C2721 1.374 . S
C2721 H2701 0.950 . S
C2721 C2717 1.385 . S
C2721 C2720 1.374 . S
C2722 C2719 1.499 . S
C2722 C2723 1.373 . S
C2722 C2724 1.389 . S
C2723 H2702 0.950 . S
C2723 C2722 1.373 . S
C2723 C2739 1.377 1_655 S
C2724 C2722 1.389 . S
C2724 C2725 1.524 . S
C2724 C2738 1.377 1_655 S
C2725 C2724 1.524 . S
C2725 C2726 1.397 . S
C2725 C2730 1.363 . S
C2726 H2703 0.950 . S
C2726 C2725 1.397 . S
C2726 C2727 1.334 . S
C2727 H2704 0.950 . S
C2727 C2726 1.334 . S
C2727 C2728 1.287 . S
C2728 C2727 1.287 . S
C2728 C2729 1.524 . S
C2728 H2747 0.913 . S
C2729 H2705 0.950 . S
C2729 C2728 1.524 . S
C2729 C2730 1.415 . S
C2730 H2706 0.950 . S
C2730 C2725 1.363 . S
C2730 C2729 1.415 . S
C2731 H2707 0.951 . S
C2731 C2732 1.366 . S
C2731 C2733 1.388 . S
C2732 C2731 1.366 . S
C2732 C2736 1.385 . S
C2733 H2708 0.951 . S
C2733 C2731 1.388 . S
C2733 C2734 1.366 . S
C2734 C2733 1.366 . S
C2734 C2735 1.414 . S
C2734 C2737 1.499 . S
C2735 H2709 0.950 . S
C2735 C2734 1.414 . S
C2735 C2736 1.374 . S
C2736 H2710 0.950 . S
C2736 C2732 1.385 . S
C2736 C2735 1.374 . S
C2737 C2734 1.499 . S
C2737 C2738 1.373 . S
C2737 C2739 1.389 . S
C2738 H2711 0.950 . S
C2738 C2724 1.377 1_455 S
C2738 C2737 1.373 . S
C2739 C2723 1.377 1_455 S
C2739 C2737 1.389 . S
C2739 C2740 1.524 . S
C2740 C2739 1.524 . S
C2740 C2741 1.397 . S
C2740 C2745 1.363 . S
C2741 H2712 0.950 . S
C2741 C2740 1.397 . S
C2741 C2742 1.334 . S
C2742 H2713 0.950 . S
C2742 C2741 1.334 . S
C2742 C2743 1.287 . S
C2743 C2742 1.287 . S
C2743 C2744 1.524 . S
C2743 H2746 0.999 . S
C2744 H2714 0.950 . S
C2744 C2743 1.524 . S
C2744 C2745 1.415 . S
C2745 H2715 0.950 . S
C2745 C2740 1.363 . S
C2745 C2744 1.415 . S
H2746 C2743 0.999 . S
H2747 C2728 0.913 . S
H2748 C2766 0.951 . S
H2749 C2768 0.951 . S
H2750 C2770 0.950 . S
H2751 C2771 0.950 . S
H2752 C2773 0.950 . S
H2753 C2776 0.950 . S
H2754 C2777 0.950 . S
H2755 C2779 0.950 1_554 S
H2756 C2780 0.950 . S
H2757 C2781 0.951 . S
H2758 C2783 0.951 . S
H2759 C2785 0.950 . S
H2760 C2786 0.950 . S
H2761 C2788 0.950 . S
H2762 C2791 0.950 . S
H2763 C2792 0.950 . S
H2764 C2794 0.950 . S
H2765 C2795 0.950 . S
C2766 H2748 0.951 . S
C2766 C2767 1.366 . S
C2766 C2768 1.388 . S
C2767 C2766 1.366 . S
C2767 C2771 1.385 . S
C2768 H2749 0.951 . S
C2768 C2766 1.388 . S
C2768 C2769 1.366 . S
C2769 C2768 1.366 . S
C2769 C2770 1.414 . S
C2769 C2772 1.499 . S
C2770 H2750 0.950 . S
C2770 C2769 1.414 . S
C2770 C2771 1.374 . S
C2771 H2751 0.950 . S
C2771 C2767 1.385 . S
C2771 C2770 1.374 . S
C2772 C2769 1.499 . S
C2772 C2773 1.373 . S
C2772 C2774 1.389 . S
C2773 H2752 0.950 . S
C2773 C2772 1.373 . S
C2773 C2789 1.377 1_655 S
C2774 C2772 1.389 . S
C2774 C2775 1.524 . S
C2774 C2788 1.377 1_655 S
C2775 C2774 1.524 . S
C2775 C2776 1.397 . S
C2775 C2780 1.363 . S
C2776 H2753 0.950 . S
C2776 C2775 1.397 . S
C2776 C2777 1.334 . S
C2777 H2754 0.950 . S
C2777 C2776 1.334 . S
C2777 C2778 1.287 . S
C2778 C2777 1.287 . S
C2778 C2779 1.524 . S
C2778 H2797 0.913 . S
C2779 H2755 0.950 1_556 S
C2779 C2778 1.524 . S
C2779 C2780 1.415 . S
C2780 H2756 0.950 . S
C2780 C2775 1.363 . S
C2780 C2779 1.415 . S
C2781 H2757 0.951 . S
C2781 C2782 1.366 . S
C2781 C2783 1.388 . S
C2782 C2781 1.366 . S
C2782 C2786 1.385 . S
C2783 H2758 0.951 . S
C2783 C2781 1.388 . S
C2783 C2784 1.366 . S
C2784 C2783 1.366 . S
C2784 C2785 1.414 . S
C2784 C2787 1.499 . S
C2785 H2759 0.950 . S
C2785 C2784 1.414 . S
C2785 C2786 1.374 . S
C2786 H2760 0.950 . S
C2786 C2782 1.385 . S
C2786 C2785 1.374 . S
C2787 C2784 1.499 . S
C2787 C2788 1.373 . S
C2787 C2789 1.389 . S
C2788 H2761 0.950 . S
C2788 C2774 1.377 1_455 S
C2788 C2787 1.373 . S
C2789 C2773 1.377 1_455 S
C2789 C2787 1.389 . S
C2789 C2790 1.524 . S
C2790 C2789 1.524 . S
C2790 C2791 1.397 . S
C2790 C2795 1.363 . S
C2791 H2762 0.950 . S
C2791 C2790 1.397 . S
C2791 C2792 1.334 . S
C2792 H2763 0.950 . S
C2792 C2791 1.334 . S
C2792 C2793 1.287 . S
C2793 C2792 1.287 . S
C2793 C2794 1.524 . S
C2793 H2796 0.999 . S
C2794 H2764 0.950 . S
C2794 C2793 1.524 . S
C2794 C2795 1.415 . S
C2795 H2765 0.950 . S
C2795 C2790 1.363 . S
C2795 C2794 1.415 . S
H2796 C2793 0.999 . S
H2797 C2778 0.913 . S
H2798 C2816 0.951 . S
H2799 C2818 0.951 . S
H2800 C2820 0.950 . S
H2801 C2821 0.950 . S
H2802 C2823 0.950 . S
H2803 C2826 0.950 . S
H2804 C2827 0.950 . S
H2805 C2829 0.950 . S
H2806 C2830 0.950 . S
H2807 C2831 0.951 . S
H2808 C2833 0.951 . S
H2809 C2835 0.950 . S
H2810 C2836 0.950 . S
H2811 C2838 0.950 . S
H2812 C2841 0.950 . S
H2813 C2842 0.950 . S
H2814 C2844 0.950 . S
H2815 C2845 0.950 . S
C2816 H2798 0.951 . S
C2816 C2817 1.366 . S
C2816 C2818 1.388 . S
C2817 C2816 1.366 . S
C2817 C2821 1.385 . S
C2818 H2799 0.951 . S
C2818 C2816 1.388 . S
C2818 C2819 1.366 . S
C2819 C2818 1.366 . S
C2819 C2820 1.414 . S
C2819 C2822 1.499 . S
C2820 H2800 0.950 . S
C2820 C2819 1.414 . S
C2820 C2821 1.374 . S
C2821 H2801 0.950 . S
C2821 C2817 1.385 . S
C2821 C2820 1.374 . S
C2822 C2819 1.499 . S
C2822 C2823 1.373 . S
C2822 C2824 1.389 . S
C2823 H2802 0.950 . S
C2823 C2822 1.373 . S
C2823 C2839 1.377 . S
C2824 C2822 1.389 . S
C2824 C2825 1.524 . S
C2824 C2838 1.377 . S
C2825 C2824 1.524 . S
C2825 C2826 1.397 . S
C2825 C2830 1.363 . S
C2826 H2803 0.950 . S
C2826 C2825 1.397 . S
C2826 C2827 1.334 . S
C2827 H2804 0.950 . S
C2827 C2826 1.334 . S
C2827 C2828 1.287 . S
C2828 C2827 1.287 . S
C2828 C2829 1.524 . S
C2828 H2847 0.913 . S
C2829 H2805 0.950 . S
C2829 C2828 1.524 . S
C2829 C2830 1.415 . S
C2830 H2806 0.950 . S
C2830 C2825 1.363 . S
C2830 C2829 1.415 . S
C2831 H2807 0.951 . S
C2831 C2832 1.366 . S
C2831 C2833 1.388 . S
C2832 C2831 1.366 . S
C2832 C2836 1.385 . S
C2833 H2808 0.951 . S
C2833 C2831 1.388 . S
C2833 C2834 1.366 . S
C2834 C2833 1.366 . S
C2834 C2835 1.414 . S
C2834 C2837 1.499 . S
C2835 H2809 0.950 . S
C2835 C2834 1.414 . S
C2835 C2836 1.374 . S
C2836 H2810 0.950 . S
C2836 C2832 1.385 . S
C2836 C2835 1.374 . S
C2837 C2834 1.499 . S
C2837 C2838 1.373 . S
C2837 C2839 1.389 . S
C2838 H2811 0.950 . S
C2838 C2824 1.377 . S
C2838 C2837 1.373 . S
C2839 C2823 1.377 . S
C2839 C2837 1.389 . S
C2839 C2840 1.524 . S
C2840 C2839 1.524 . S
C2840 C2841 1.397 . S
C2840 C2845 1.363 . S
C2841 H2812 0.950 . S
C2841 C2840 1.397 . S
C2841 C2842 1.334 . S
C2842 H2813 0.950 . S
C2842 C2841 1.334 . S
C2842 C2843 1.287 . S
C2843 C2842 1.287 . S
C2843 C2844 1.524 . S
C2843 H2846 0.999 . S
C2844 H2814 0.950 . S
C2844 C2843 1.524 . S
C2844 C2845 1.415 . S
C2845 H2815 0.950 . S
C2845 C2840 1.363 . S
C2845 C2844 1.415 . S
H2846 C2843 0.999 . S
H2847 C2828 0.913 . S
H2848 C2866 0.951 . S
H2849 C2868 0.951 . S
H2850 C2870 0.950 . S
H2851 C2871 0.950 . S
H2852 C2873 0.950 . S
H2853 C2876 0.950 . S
H2854 C2877 0.950 . S
H2855 C2879 0.950 . S
H2856 C2880 0.950 . S
H2857 C2881 0.951 . S
H2858 C2883 0.951 . S
H2859 C2885 0.950 . S
H2860 C2886 0.950 . S
H2861 C2888 0.950 . S
H2862 C2891 0.950 . S
H2863 C2892 0.950 . S
H2864 C2894 0.950 . S
H2865 C2895 0.950 . S
C2866 H2848 0.951 . S
C2866 C2867 1.366 . S
C2866 C2868 1.388 . S
C2867 C2866 1.366 . S
C2867 C2871 1.385 . S
C2868 H2849 0.951 . S
C2868 C2866 1.388 . S
C2868 C2869 1.366 . S
C2869 C2868 1.366 . S
C2869 C2870 1.414 . S
C2869 C2872 1.499 . S
C2870 H2850 0.950 . S
C2870 C2869 1.414 . S
C2870 C2871 1.374 . S
C2871 H2851 0.950 . S
C2871 C2867 1.385 . S
C2871 C2870 1.374 . S
C2872 C2869 1.499 . S
C2872 C2873 1.373 . S
C2872 C2874 1.389 . S
C2873 H2852 0.950 . S
C2873 C2872 1.373 . S
C2873 C2889 1.377 . S
C2874 C2872 1.389 . S
C2874 C2875 1.524 . S
C2874 C2888 1.377 . S
C2875 C2874 1.524 . S
C2875 C2876 1.397 . S
C2875 C2880 1.363 . S
C2876 H2853 0.950 . S
C2876 C2875 1.397 . S
C2876 C2877 1.334 . S
C2877 H2854 0.950 . S
C2877 C2876 1.334 . S
C2877 C2878 1.287 . S
C2878 C2877 1.287 . S
C2878 C2879 1.524 . S
C2878 H2897 0.913 . S
C2879 H2855 0.950 . S
C2879 C2878 1.524 . S
C2879 C2880 1.415 . S
C2880 H2856 0.950 . S
C2880 C2875 1.363 . S
C2880 C2879 1.415 . S
C2881 H2857 0.951 . S
C2881 C2882 1.366 . S
C2881 C2883 1.388 . S
C2882 C2881 1.366 . S
C2882 C2886 1.385 . S
C2883 H2858 0.951 . S
C2883 C2881 1.388 . S
C2883 C2884 1.366 . S
C2884 C2883 1.366 . S
C2884 C2885 1.414 . S
C2884 C2887 1.499 . S
C2885 H2859 0.950 . S
C2885 C2884 1.414 . S
C2885 C2886 1.374 . S
C2886 H2860 0.950 . S
C2886 C2882 1.385 . S
C2886 C2885 1.374 . S
C2887 C2884 1.499 . S
C2887 C2888 1.373 . S
C2887 C2889 1.389 . S
C2888 H2861 0.950 . S
C2888 C2874 1.377 . S
C2888 C2887 1.373 . S
C2889 C2873 1.377 . S
C2889 C2887 1.389 . S
C2889 C2890 1.524 . S
C2890 C2889 1.524 . S
C2890 C2891 1.397 . S
C2890 C2895 1.363 . S
C2891 H2862 0.950 . S
C2891 C2890 1.397 . S
C2891 C2892 1.334 . S
C2892 H2863 0.950 . S
C2892 C2891 1.334 . S
C2892 C2893 1.287 . S
C2893 C2892 1.287 . S
C2893 C2894 1.524 . S
C2893 H2896 0.999 . S
C2894 H2864 0.950 . S
C2894 C2893 1.524 . S
C2894 C2895 1.415 . S
C2895 H2865 0.950 . S
C2895 C2890 1.363 . S
C2895 C2894 1.415 . S
H2896 C2893 0.999 . S
H2897 C2878 0.913 . S
H2898 C2916 0.937 1_545 S
H2899 C2918 0.951 . S
H2900 C2920 0.950 . S
H2901 C2921 0.950 . S
H2902 C2923 0.950 . S
H2903 C2926 0.950 . S
H2904 C2927 0.950 . S
H2905 C2929 0.950 . S
H2906 C2930 0.950 . S
H2907 C2931 0.951 . S
H2908 C2933 0.900 1_565 S
H2909 C2935 0.950 . S
H2910 C2936 0.950 . S
H2911 C2938 0.950 . S
H2912 C2941 0.950 1_545 S
H2913 C2942 0.950 . S
H2914 C2944 0.950 . S
H2915 C2945 0.950 . S
C2916 H2898 0.937 1_565 S
C2916 C2917 1.388 . S
C2916 C2918 1.380 1_565 S
C2917 C2916 1.388 . S
C2917 C2921 1.385 . S
C2918 H2899 0.951 . S
C2918 C2916 1.380 1_545 S
C2918 C2919 1.366 1_545 S
C2919 C2918 1.366 1_565 S
C2919 C2920 1.414 . S
C2919 C2922 1.499 1_565 S
C2920 H2900 0.950 . S
C2920 C2919 1.414 . S
C2920 C2921 1.374 . S
C2921 H2901 0.950 . S
C2921 C2917 1.385 . S
C2921 C2920 1.374 . S
C2922 C2919 1.499 1_545 S
C2922 C2923 1.373 1_545 S
C2922 C2924 1.389 . S
C2923 H2902 0.950 . S
C2923 C2922 1.373 1_565 S
C2923 C2939 1.388 . S
C2924 C2922 1.389 . S
C2924 C2925 1.524 . S
C2924 C2938 1.377 . S
C2925 C2924 1.524 . S
C2925 C2926 1.397 . S
C2925 C2930 1.363 . S
C2926 H2903 0.950 . S
C2926 C2925 1.397 . S
C2926 C2927 1.334 . S
C2927 H2904 0.950 . S
C2927 C2926 1.334 . S
C2927 C2928 1.287 . S
C2928 C2927 1.287 . S
C2928 C2929 1.524 . S
C2928 H2947 0.913 . S
C2929 H2905 0.950 . S
C2929 C2928 1.524 . S
C2929 C2930 1.415 . S
C2930 H2906 0.950 . S
C2930 C2925 1.363 . S
C2930 C2929 1.415 . S
C2931 H2907 0.951 . S
C2931 C2932 1.366 . S
C2931 C2933 1.388 . S
C2932 C2931 1.366 . S
C2932 C2936 1.385 . S
C2933 H2908 0.900 1_545 S
C2933 C2931 1.388 . S
C2933 C2934 1.366 . S
C2934 C2933 1.366 . S
C2934 C2935 1.414 . S
C2934 C2937 1.499 . S
C2935 H2909 0.950 . S
C2935 C2934 1.414 . S
C2935 C2936 1.374 . S
C2936 H2910 0.950 . S
C2936 C2932 1.385 . S
C2936 C2935 1.374 . S
C2937 C2934 1.499 . S
C2937 C2938 1.373 . S
C2937 C2939 1.362 1_545 S
C2938 H2911 0.950 . S
C2938 C2924 1.377 . S
C2938 C2937 1.373 . S
C2939 C2923 1.388 . S
C2939 C2937 1.362 1_565 S
C2939 C2940 1.541 . S
C2940 C2939 1.541 . S
C2940 C2941 1.397 . S
C2940 C2945 1.363 . S
C2941 H2912 0.950 1_565 S
C2941 C2940 1.397 . S
C2941 C2942 1.334 . S
C2942 H2913 0.950 . S
C2942 C2941 1.334 . S
C2942 C2943 1.287 . S
C2943 C2942 1.287 . S
C2943 C2944 1.524 . S
C2943 H2946 0.999 . S
C2944 H2914 0.950 . S
C2944 C2943 1.524 . S
C2944 C2945 1.415 . S
C2945 H2915 0.950 . S
C2945 C2940 1.363 . S
C2945 C2944 1.415 . S
H2946 C2943 0.999 . S
H2947 C2928 0.913 . S
H2948 C2966 0.951 . S
H2949 C2968 0.951 . S
H2950 C2970 0.950 . S
H2951 C2971 0.950 . S
H2952 C2973 0.950 . S
H2953 C2976 0.950 . S
H2954 C2977 0.950 . S
H2955 C2979 0.950 . S
H2956 C2980 0.950 . S
H2957 C2981 0.951 . S
H2958 C2983 0.951 . S
H2959 C2985 0.950 . S
H2960 C2986 0.950 . S
H2961 C2988 0.950 . S
H2962 C2991 0.950 . S
H2963 C2992 0.950 . S
H2964 C2994 0.950 . S
H2965 C2995 0.950 . S
C2966 H2948 0.951 . S
C2966 C2967 1.366 . S
C2966 C2968 1.388 . S
C2967 C2966 1.366 . S
C2967 C2971 1.385 . S
C2968 H2949 0.951 . S
C2968 C2966 1.388 . S
C2968 C2969 1.366 . S
C2969 C2968 1.366 . S
C2969 C2970 1.414 . S
C2969 C2972 1.499 . S
C2970 H2950 0.950 . S
C2970 C2969 1.414 . S
C2970 C2971 1.374 . S
C2971 H2951 0.950 . S
C2971 C2967 1.385 . S
C2971 C2970 1.374 . S
C2972 C2969 1.499 . S
C2972 C2973 1.373 . S
C2972 C2974 1.389 . S
C2973 H2952 0.950 . S
C2973 C2972 1.373 . S
C2973 C2989 1.377 . S
C2974 C2972 1.389 . S
C2974 C2975 1.524 . S
C2974 C2988 1.377 . S
C2975 C2974 1.524 . S
C2975 C2976 1.397 . S
C2975 C2980 1.363 . S
C2976 H2953 0.950 . S
C2976 C2975 1.397 . S
C2976 C2977 1.334 . S
C2977 H2954 0.950 . S
C2977 C2976 1.334 . S
C2977 C2978 1.287 . S
C2978 C2977 1.287 . S
C2978 C2979 1.524 . S
C2978 H2997 0.913 . S
C2979 H2955 0.950 . S
C2979 C2978 1.524 . S
C2979 C2980 1.415 . S
C2980 H2956 0.950 . S
C2980 C2975 1.363 . S
C2980 C2979 1.415 . S
C2981 H2957 0.951 . S
C2981 C2982 1.366 . S
C2981 C2983 1.388 . S
C2982 C2981 1.366 . S
C2982 C2986 1.385 . S
C2983 H2958 0.951 . S
C2983 C2981 1.388 . S
C2983 C2984 1.366 . S
C2984 C2983 1.366 . S
C2984 C2985 1.414 . S
C2984 C2987 1.499 . S
C2985 H2959 0.950 . S
C2985 C2984 1.414 . S
C2985 C2986 1.374 . S
C2986 H2960 0.950 . S
C2986 C2982 1.385 . S
C2986 C2985 1.374 . S
C2987 C2984 1.499 . S
C2987 C2988 1.373 . S
C2987 C2989 1.389 . S
C2988 H2961 0.950 . S
C2988 C2974 1.377 . S
C2988 C2987 1.373 . S
C2989 C2973 1.377 . S
C2989 C2987 1.389 . S
C2989 C2990 1.524 . S
C2990 C2989 1.524 . S
C2990 C2991 1.397 . S
C2990 C2995 1.363 . S
C2991 H2962 0.950 . S
C2991 C2990 1.397 . S
C2991 C2992 1.334 . S
C2992 H2963 0.950 . S
C2992 C2991 1.334 . S
C2992 C2993 1.287 . S
C2993 C2992 1.287 . S
C2993 C2994 1.524 . S
C2993 H2996 0.999 . S
C2994 H2964 0.950 . S
C2994 C2993 1.524 . S
C2994 C2995 1.415 . S
C2995 H2965 0.950 . S
C2995 C2990 1.363 . S
C2995 C2994 1.415 . S
H2996 C2993 0.999 . S
H2997 C2978 0.913 . S
H2998 C3016 0.951 . S
H2999 C3018 0.971 . S
H3000 C3020 0.950 . S
H3001 C3021 0.950 . S
H3002 C3023 0.950 . S
H3003 C3026 0.950 1_545 S
H3004 C3027 0.950 . S
H3005 C3029 0.950 . S
H3006 C3030 0.950 . S
H3007 C3031 0.907 1_545 S
H3008 C3033 0.951 . S
H3009 C3035 0.950 . S
H3010 C3036 0.950 . S
H3011 C3038 0.950 . S
H3012 C3041 0.950 . S
H3013 C3042 0.950 . S
H3014 C3044 0.950 . S
H3015 C3045 0.950 . S
C3016 H2998 0.951 . S
C3016 C3017 1.366 . S
C3016 C3018 1.388 . S
C3017 C3016 1.366 . S
C3017 C3021 1.385 . S
C3018 H2999 0.971 . S
C3018 C3016 1.388 . S
C3018 C3019 1.366 1_556 S
C3019 C3018 1.366 1_554 S
C3019 C3020 1.414 . S
C3019 C3022 1.499 . S
C3020 H3000 0.950 . S
C3020 C3019 1.414 . S
C3020 C3021 1.374 1_554 S
C3021 H3001 0.950 . S
C3021 C3017 1.385 . S
C3021 C3020 1.374 1_556 S
C3022 C3019 1.499 . S
C3022 C3023 1.373 . S
C3022 C3024 1.389 1_545 S
C3023 H3002 0.950 . S
C3023 C3022 1.373 . S
C3023 C3039 1.377 . S
C3024 C3022 1.389 1_565 S
C3024 C3025 1.524 . S
C3024 C3038 1.377 . S
C3025 C3024 1.524 . S
C3025 C3026 1.397 . S
C3025 C3030 1.363 . S
C3026 H3003 0.950 1_565 S
C3026 C3025 1.397 . S
C3026 C3027 1.334 1_554 S
C3027 H3004 0.950 . S
C3027 C3026 1.334 1_556 S
C3027 C3028 1.287 . S
C3028 C3027 1.287 . S
C3028 C3029 1.524 1_556 S
C3028 H3047 0.913 . S
C3029 H3005 0.950 . S
C3029 C3028 1.524 1_554 S
C3029 C3030 1.415 . S
C3030 H3006 0.950 . S
C3030 C3025 1.363 . S
C3030 C3029 1.415 . S
C3031 H3007 0.907 1_565 S
C3031 C3032 1.442 . S
C3031 C3033 1.360 1_565 S
C3032 C3031 1.442 . S
C3032 C3036 1.385 . S
C3033 H3008 0.951 . S
C3033 C3031 1.360 1_545 S
C3033 C3034 1.366 1_545 S
C3034 C3033 1.366 1_565 S
C3034 C3035 1.414 . S
C3034 C3037 1.499 1_565 S
C3035 H3009 0.950 . S
C3035 C3034 1.414 . S
C3035 C3036 1.374 . S
C3036 H3010 0.950 . S
C3036 C3032 1.385 . S
C3036 C3035 1.374 . S
C3037 C3034 1.499 1_545 S
C3037 C3038 1.373 1_545 S
C3037 C3039 1.389 . S
C3038 H3011 0.950 . S
C3038 C3024 1.377 . S
C3038 C3037 1.373 1_565 S
C3039 C3023 1.377 . S
C3039 C3037 1.389 . S
C3039 C3040 1.524 . S
C3040 C3039 1.524 . S
C3040 C3041 1.397 . S
C3040 C3045 1.363 . S
C3041 H3012 0.950 . S
C3041 C3040 1.397 . S
C3041 C3042 1.334 . S
C3042 H3013 0.950 . S
C3042 C3041 1.334 . S
C3042 C3043 1.287 . S
C3043 C3042 1.287 . S
C3043 C3044 1.524 . S
C3043 H3046 0.999 . S
C3044 H3014 0.950 . S
C3044 C3043 1.524 . S
C3044 C3045 1.415 . S
C3045 H3015 0.950 . S
C3045 C3040 1.363 . S
C3045 C3044 1.415 . S
H3046 C3043 0.999 . S
H3047 C3028 0.913 . S
H3048 C3066 0.951 . S
H3049 C3068 0.951 . S
H3050 C3070 0.950 . S
H3051 C3071 0.950 . S
H3052 C3073 0.950 . S
H3053 C3076 0.950 . S
H3054 C3077 0.950 . S
H3055 C3079 0.950 . S
H3056 C3080 0.950 . S
H3057 C3081 0.951 . S
H3058 C3083 0.951 . S
H3059 C3085 0.950 . S
H3060 C3086 0.950 . S
H3061 C3088 0.950 . S
H3062 C3091 0.950 . S
H3063 C3092 0.950 . S
H3064 C3094 0.950 . S
H3065 C3095 0.950 . S
C3066 H3048 0.951 . S
C3066 C3067 1.366 . S
C3066 C3068 1.388 . S
C3067 C3066 1.366 . S
C3067 C3071 1.385 . S
C3068 H3049 0.951 . S
C3068 C3066 1.388 . S
C3068 C3069 1.366 . S
C3069 C3068 1.366 . S
C3069 C3070 1.414 . S
C3069 C3072 1.499 . S
C3070 H3050 0.950 . S
C3070 C3069 1.414 . S
C3070 C3071 1.374 . S
C3071 H3051 0.950 . S
C3071 C3067 1.385 . S
C3071 C3070 1.374 . S
C3072 C3069 1.499 . S
C3072 C3073 1.373 . S
C3072 C3074 1.389 . S
C3073 H3052 0.950 . S
C3073 C3072 1.373 . S
C3073 C3089 1.377 . S
C3074 C3072 1.389 . S
C3074 C3075 1.524 . S
C3074 C3088 1.377 . S
C3075 C3074 1.524 . S
C3075 C3076 1.397 . S
C3075 C3080 1.363 . S
C3076 H3053 0.950 . S
C3076 C3075 1.397 . S
C3076 C3077 1.334 . S
C3077 H3054 0.950 . S
C3077 C3076 1.334 . S
C3077 C3078 1.287 . S
C3078 C3077 1.287 . S
C3078 C3079 1.524 . S
C3078 H3097 0.913 . S
C3079 H3055 0.950 . S
C3079 C3078 1.524 . S
C3079 C3080 1.415 . S
C3080 H3056 0.950 . S
C3080 C3075 1.363 . S
C3080 C3079 1.415 . S
C3081 H3057 0.951 . S
C3081 C3082 1.366 . S
C3081 C3083 1.388 . S
C3082 C3081 1.366 . S
C3082 C3086 1.385 . S
C3083 H3058 0.951 . S
C3083 C3081 1.388 . S
C3083 C3084 1.366 . S
C3084 C3083 1.366 . S
C3084 C3085 1.414 . S
C3084 C3087 1.499 . S
C3085 H3059 0.950 . S
C3085 C3084 1.414 . S
C3085 C3086 1.374 . S
C3086 H3060 0.950 . S
C3086 C3082 1.385 . S
C3086 C3085 1.374 . S
C3087 C3084 1.499 . S
C3087 C3088 1.373 . S
C3087 C3089 1.389 . S
C3088 H3061 0.950 . S
C3088 C3074 1.377 . S
C3088 C3087 1.373 . S
C3089 C3073 1.377 . S
C3089 C3087 1.389 . S
C3089 C3090 1.524 . S
C3090 C3089 1.524 . S
C3090 C3091 1.397 . S
C3090 C3095 1.363 . S
C3091 H3062 0.950 . S
C3091 C3090 1.397 . S
C3091 C3092 1.334 . S
C3092 H3063 0.950 . S
C3092 C3091 1.334 . S
C3092 C3093 1.287 . S
C3093 C3092 1.287 . S
C3093 C3094 1.524 . S
C3093 H3096 0.999 . S
C3094 H3064 0.950 . S
C3094 C3093 1.524 . S
C3094 C3095 1.415 . S
C3095 H3065 0.950 . S
C3095 C3090 1.363 . S
C3095 C3094 1.415 . S
H3096 C3093 0.999 . S
H3097 C3078 0.913 . S
H3098 C3116 0.951 . S
H3099 C3118 0.951 . S
H3100 C3120 0.950 . S
H3101 C3121 0.950 . S
H3102 C3123 0.950 . S
H3103 C3126 0.950 . S
H3104 C3127 0.950 . S
H3105 C3129 0.950 . S
H3106 C3130 0.950 . S
H3107 C3131 0.951 . S
H3108 C3133 0.947 1_545 S
H3109 C3135 0.950 . S
H3110 C3136 0.950 . S
H3111 C3138 0.950 . S
H3112 C3141 0.950 . S
H3113 C3142 0.950 . S
H3114 C3144 0.950 . S
H3115 C3145 0.950 . S
C3116 H3098 0.951 . S
C3116 C3117 1.366 . S
C3116 C3118 1.388 . S
C3117 C3116 1.366 . S
C3117 C3121 1.385 . S
C3118 H3099 0.951 . S
C3118 C3116 1.388 . S
C3118 C3119 1.366 . S
C3119 C3118 1.366 . S
C3119 C3120 1.414 . S
C3119 C3122 1.499 . S
C3120 H3100 0.950 . S
C3120 C3119 1.414 . S
C3120 C3121 1.374 . S
C3121 H3101 0.950 . S
C3121 C3117 1.385 . S
C3121 C3120 1.374 . S
C3122 C3119 1.499 . S
C3122 C3123 1.373 . S
C3122 C3124 1.389 1_545 S
C3123 H3102 0.950 . S
C3123 C3122 1.373 . S
C3123 C3139 1.377 . S
C3124 C3122 1.389 1_565 S
C3124 C3125 1.524 . S
C3124 C3138 1.377 . S
C3125 C3124 1.524 . S
C3125 C3126 1.397 . S
C3125 C3130 1.363 . S
C3126 H3103 0.950 . S
C3126 C3125 1.397 . S
C3126 C3127 1.334 . S
C3127 H3104 0.950 . S
C3127 C3126 1.334 . S
C3127 C3128 1.287 . S
C3128 C3127 1.287 . S
C3128 C3129 1.524 . S
C3128 H3147 0.913 . S
C3129 H3105 0.950 . S
C3129 C3128 1.524 . S
C3129 C3130 1.415 . S
C3130 H3106 0.950 . S
C3130 C3125 1.363 . S
C3130 C3129 1.415 . S
C3131 H3107 0.951 . S
C3131 C3132 1.366 . S
C3131 C3133 1.388 . S
C3132 C3131 1.366 . S
C3132 C3136 1.385 . S
C3133 H3108 0.947 1_565 S
C3133 C3131 1.388 . S
C3133 C3134 1.366 . S
C3134 C3133 1.366 . S
C3134 C3135 1.414 . S
C3134 C3137 1.499 1_565 S
C3135 H3109 0.950 . S
C3135 C3134 1.414 . S
C3135 C3136 1.374 . S
C3136 H3110 0.950 . S
C3136 C3132 1.385 . S
C3136 C3135 1.374 . S
C3137 C3134 1.499 1_545 S
C3137 C3138 1.373 1_545 S
C3137 C3139 1.389 . S
C3138 H3111 0.950 . S
C3138 C3124 1.377 . S
C3138 C3137 1.373 1_565 S
C3139 C3123 1.377 . S
C3139 C3137 1.389 . S
C3139 C3140 1.524 . S
C3140 C3139 1.524 . S
C3140 C3141 1.397 . S
C3140 C3145 1.363 . S
C3141 H3112 0.950 . S
C3141 C3140 1.397 . S
C3141 C3142 1.334 . S
C3142 H3113 0.950 . S
C3142 C3141 1.334 . S
C3142 C3143 1.287 . S
C3143 C3142 1.287 . S
C3143 C3144 1.524 . S
C3143 H3146 0.999 . S
C3144 H3114 0.950 . S
C3144 C3143 1.524 . S
C3144 C3145 1.415 . S
C3145 H3115 0.950 . S
C3145 C3140 1.363 . S
C3145 C3144 1.415 . S
H3146 C3143 0.999 . S
H3147 C3128 0.913 . S
H3148 C3166 0.951 . S
H3149 C3168 0.951 . S
H3150 C3170 0.950 . S
H3151 C3171 0.950 . S
H3152 C3173 0.950 . S
H3153 C3176 0.950 . S
H3154 C3177 0.950 . S
H3155 C3179 0.950 . S
H3156 C3180 0.950 . S
H3157 C3181 0.951 . S
H3158 C3183 0.951 . S
H3159 C3185 0.950 . S
H3160 C3186 0.950 . S
H3161 C3188 0.950 . S
H3162 C3191 0.950 . S
H3163 C3192 0.950 . S
H3164 C3194 0.950 . S
H3165 C3195 0.950 . S
C3166 H3148 0.951 . S
C3166 C3167 1.366 . S
C3166 C3168 1.388 . S
C3167 C3166 1.366 . S
C3167 C3171 1.385 . S
C3168 H3149 0.951 . S
C3168 C3166 1.388 . S
C3168 C3169 1.366 . S
C3169 C3168 1.366 . S
C3169 C3170 1.414 . S
C3169 C3172 1.499 . S
C3170 H3150 0.950 . S
C3170 C3169 1.414 . S
C3170 C3171 1.374 . S
C3171 H3151 0.950 . S
C3171 C3167 1.385 . S
C3171 C3170 1.374 . S
C3172 C3169 1.499 . S
C3172 C3173 1.373 . S
C3172 C3174 1.389 . S
C3173 H3152 0.950 . S
C3173 C3172 1.373 . S
C3173 C3189 1.377 . S
C3174 C3172 1.389 . S
C3174 C3175 1.524 . S
C3174 C3188 1.377 . S
C3175 C3174 1.524 . S
C3175 C3176 1.397 . S
C3175 C3180 1.363 . S
C3176 H3153 0.950 . S
C3176 C3175 1.397 . S
C3176 C3177 1.334 . S
C3177 H3154 0.950 . S
C3177 C3176 1.334 . S
C3177 C3178 1.287 . S
C3178 C3177 1.287 . S
C3178 C3179 1.524 . S
C3178 H3197 0.913 . S
C3179 H3155 0.950 . S
C3179 C3178 1.524 . S
C3179 C3180 1.415 . S
C3180 H3156 0.950 . S
C3180 C3175 1.363 . S
C3180 C3179 1.415 . S
C3181 H3157 0.951 . S
C3181 C3182 1.366 . S
C3181 C3183 1.388 . S
C3182 C3181 1.366 . S
C3182 C3186 1.385 . S
C3183 H3158 0.951 . S
C3183 C3181 1.388 . S
C3183 C3184 1.366 . S
C3184 C3183 1.366 . S
C3184 C3185 1.414 . S
C3184 C3187 1.499 . S
C3185 H3159 0.950 . S
C3185 C3184 1.414 . S
C3185 C3186 1.374 . S
C3186 H3160 0.950 . S
C3186 C3182 1.385 . S
C3186 C3185 1.374 . S
C3187 C3184 1.499 . S
C3187 C3188 1.373 . S
C3187 C3189 1.389 . S
C3188 H3161 0.950 . S
C3188 C3174 1.377 . S
C3188 C3187 1.373 . S
C3189 C3173 1.377 . S
C3189 C3187 1.389 . S
C3189 C3190 1.524 . S
C3190 C3189 1.524 . S
C3190 C3191 1.397 . S
C3190 C3195 1.363 . S
C3191 H3162 0.950 . S
C3191 C3190 1.397 . S
C3191 C3192 1.334 . S
C3192 H3163 0.950 . S
C3192 C3191 1.334 . S
C3192 C3193 1.287 . S
C3193 C3192 1.287 . S
C3193 C3194 1.524 . S
C3193 H3196 0.999 . S
C3194 H3164 0.950 . S
C3194 C3193 1.524 . S
C3194 C3195 1.415 . S
C3195 H3165 0.950 . S
C3195 C3190 1.363 . S
C3195 C3194 1.415 . S
H3196 C3193 0.999 . S
H3197 C3178 0.913 . S
H3198 C3216 0.951 . S
H3199 C3218 0.951 . S
H3200 C3220 0.950 . S
H3201 C3221 0.945 . S
H3202 C3223 0.950 . S
H3203 C3226 0.950 1_545 S
H3204 C3227 0.950 . S
H3205 C3229 0.950 . S
H3206 C3230 0.950 . S
H3207 C3231 0.951 . S
H3208 C3233 0.951 . S
H3209 C3235 0.950 1_565 S
H3210 C3236 0.950 . S
H3211 C3238 0.950 . S
H3212 C3241 0.950 . S
H3213 C3242 0.950 . S
H3214 C3244 0.950 . S
H3215 C3245 0.950 . S
C3216 H3198 0.951 . S
C3216 C3217 1.366 . S
C3216 C3218 1.388 . S
C3217 C3216 1.366 . S
C3217 C3221 1.392 1_565 S
C3218 H3199 0.951 . S
C3218 C3216 1.388 . S
C3218 C3219 1.366 . S
C3219 C3218 1.366 . S
C3219 C3220 1.414 1_565 S
C3219 C3222 1.499 1_565 S
C3220 H3200 0.950 . S
C3220 C3219 1.414 1_545 S
C3220 C3221 1.371 . S
C3221 H3201 0.945 . S
C3221 C3217 1.392 1_545 S
C3221 C3220 1.371 . S
C3222 C3219 1.499 1_545 S
C3222 C3223 1.373 . S
C3222 C3224 1.381 1_545 S
C3223 H3202 0.950 . S
C3223 C3222 1.373 . S
C3223 C3239 1.377 . S
C3224 C3222 1.381 1_565 S
C3224 C3225 1.545 . S
C3224 C3238 1.364 1_565 S
C3225 C3224 1.545 . S
C3225 C3226 1.397 . S
C3225 C3230 1.363 . S
C3226 H3203 0.950 1_565 S
C3226 C3225 1.397 . S
C3226 C3227 1.334 . S
C3227 H3204 0.950 . S
C3227 C3226 1.334 . S
C3227 C3228 1.287 . S
C3228 C3227 1.287 . S
C3228 C3229 1.524 . S
C3228 H3247 0.913 . S
C3229 H3205 0.950 . S
C3229 C3228 1.524 . S
C3229 C3230 1.415 . S
C3230 H3206 0.950 . S
C3230 C3225 1.363 . S
C3230 C3229 1.415 . S
C3231 H3207 0.951 . S
C3231 C3232 1.366 . S
C3231 C3233 1.388 1_556 S
C3232 C3231 1.366 . S
C3232 C3236 1.385 . S
C3233 H3208 0.951 . S
C3233 C3231 1.388 1_554 S
C3233 C3234 1.366 . S
C3234 C3233 1.366 . S
C3234 C3235 1.414 1_554 S
C3234 C3237 1.499 . S
C3235 H3209 0.950 1_545 S
C3235 C3234 1.414 1_556 S
C3235 C3236 1.374 . S
C3236 H3210 0.950 . S
C3236 C3232 1.385 . S
C3236 C3235 1.374 . S
C3237 C3234 1.499 . S
C3237 C3238 1.373 . S
C3237 C3239 1.389 . S
C3238 H3211 0.950 . S
C3238 C3224 1.364 1_545 S
C3238 C3237 1.373 . S
C3239 C3223 1.377 . S
C3239 C3237 1.389 . S
C3239 C3240 1.524 . S
C3240 C3239 1.524 . S
C3240 C3241 1.397 . S
C3240 C3245 1.363 . S
C3241 H3212 0.950 . S
C3241 C3240 1.397 . S
C3241 C3242 1.334 . S
C3242 H3213 0.950 . S
C3242 C3241 1.334 . S
C3242 C3243 1.287 . S
C3243 C3242 1.287 . S
C3243 C3244 1.524 . S
C3243 H3246 0.999 . S
C3244 H3214 0.950 . S
C3244 C3243 1.524 . S
C3244 C3245 1.415 . S
C3245 H3215 0.950 . S
C3245 C3240 1.363 . S
C3245 C3244 1.415 . S
H3246 C3243 0.999 . S
H3247 C3228 0.913 . S
H3248 C3266 0.951 . S
H3249 C3268 0.951 . S
H3250 C3270 0.950 . S
H3251 C3271 0.950 . S
H3252 C3273 0.950 . S
H3253 C3276 0.950 . S
H3254 C3277 0.950 . S
H3255 C3279 0.950 . S
H3256 C3280 0.950 . S
H3257 C3281 0.951 . S
H3258 C3283 0.951 . S
H3259 C3285 0.950 . S
H3260 C3286 0.950 . S
H3261 C3288 0.950 . S
H3262 C3291 0.950 . S
H3263 C3292 0.950 . S
H3264 C3294 0.950 . S
H3265 C3295 0.950 . S
C3266 H3248 0.951 . S
C3266 C3267 1.366 . S
C3266 C3268 1.388 . S
C3267 C3266 1.366 . S
C3267 C3271 1.385 . S
C3268 H3249 0.951 . S
C3268 C3266 1.388 . S
C3268 C3269 1.366 . S
C3269 C3268 1.366 . S
C3269 C3270 1.414 . S
C3269 C3272 1.499 . S
C3270 H3250 0.950 . S
C3270 C3269 1.414 . S
C3270 C3271 1.374 . S
C3271 H3251 0.950 . S
C3271 C3267 1.385 . S
C3271 C3270 1.374 . S
C3272 C3269 1.499 . S
C3272 C3273 1.373 . S
C3272 C3274 1.389 . S
C3273 H3252 0.950 . S
C3273 C3272 1.373 . S
C3273 C3289 1.377 . S
C3274 C3272 1.389 . S
C3274 C3275 1.524 . S
C3274 C3288 1.377 . S
C3275 C3274 1.524 . S
C3275 C3276 1.397 . S
C3275 C3280 1.363 . S
C3276 H3253 0.950 . S
C3276 C3275 1.397 . S
C3276 C3277 1.334 . S
C3277 H3254 0.950 . S
C3277 C3276 1.334 . S
C3277 C3278 1.287 . S
C3278 C3277 1.287 . S
C3278 C3279 1.524 . S
C3278 H3297 0.913 . S
C3279 H3255 0.950 . S
C3279 C3278 1.524 . S
C3279 C3280 1.415 . S
C3280 H3256 0.950 . S
C3280 C3275 1.363 . S
C3280 C3279 1.415 . S
C3281 H3257 0.951 . S
C3281 C3282 1.366 . S
C3281 C3283 1.388 . S
C3282 C3281 1.366 . S
C3282 C3286 1.385 . S
C3283 H3258 0.951 . S
C3283 C3281 1.388 . S
C3283 C3284 1.366 . S
C3284 C3283 1.366 . S
C3284 C3285 1.414 . S
C3284 C3287 1.499 . S
C3285 H3259 0.950 . S
C3285 C3284 1.414 . S
C3285 C3286 1.374 . S
C3286 H3260 0.950 . S
C3286 C3282 1.385 . S
C3286 C3285 1.374 . S
C3287 C3284 1.499 . S
C3287 C3288 1.373 . S
C3287 C3289 1.389 . S
C3288 H3261 0.950 . S
C3288 C3274 1.377 . S
C3288 C3287 1.373 . S
C3289 C3273 1.377 . S
C3289 C3287 1.389 . S
C3289 C3290 1.524 . S
C3290 C3289 1.524 . S
C3290 C3291 1.397 . S
C3290 C3295 1.363 . S
C3291 H3262 0.950 . S
C3291 C3290 1.397 . S
C3291 C3292 1.334 . S
C3292 H3263 0.950 . S
C3292 C3291 1.334 . S
C3292 C3293 1.287 . S
C3293 C3292 1.287 . S
C3293 C3294 1.524 . S
C3293 H3296 0.999 . S
C3294 H3264 0.950 . S
C3294 C3293 1.524 . S
C3294 C3295 1.415 . S
C3295 H3265 0.950 . S
C3295 C3290 1.363 . S
C3295 C3294 1.415 . S
H3296 C3293 0.999 . S
H3297 C3278 0.913 . S
H3298 C3316 0.951 . S
H3299 C3318 0.951 . S
H3300 C3320 0.950 . S
H3301 C3321 0.950 . S
H3302 C3323 0.950 . S
H3303 C3326 0.950 . S
H3304 C3327 0.950 . S
H3305 C3329 0.950 . S
H3306 C3330 0.950 . S
H3307 C3331 0.951 . S
H3308 C3333 0.951 . S
H3309 C3335 0.950 . S
H3310 C3336 0.950 . S
H3311 C3338 0.950 . S
H3312 C3341 0.950 . S
H3313 C3342 0.950 . S
H3314 C3344 0.950 . S
H3315 C3345 0.950 . S
C3316 H3298 0.951 . S
C3316 C3317 1.366 . S
C3316 C3318 1.388 . S
C3317 C3316 1.366 . S
C3317 C3321 1.385 . S
C3318 H3299 0.951 . S
C3318 C3316 1.388 . S
C3318 C3319 1.366 . S
C3319 C3318 1.366 . S
C3319 C3320 1.414 . S
C3319 C3322 1.499 . S
C3320 H3300 0.950 . S
C3320 C3319 1.414 . S
C3320 C3321 1.374 . S
C3321 H3301 0.950 . S
C3321 C3317 1.385 . S
C3321 C3320 1.374 . S
C3322 C3319 1.499 . S
C3322 C3323 1.373 . S
C3322 C3324 1.389 . S
C3323 H3302 0.950 . S
C3323 C3322 1.373 . S
C3323 C3339 1.377 . S
C3324 C3322 1.389 . S
C3324 C3325 1.524 . S
C3324 C3338 1.377 . S
C3325 C3324 1.524 . S
C3325 C3326 1.397 . S
C3325 C3330 1.363 . S
C3326 H3303 0.950 . S
C3326 C3325 1.397 . S
C3326 C3327 1.334 . S
C3327 H3304 0.950 . S
C3327 C3326 1.334 . S
C3327 C3328 1.287 . S
C3328 C3327 1.287 . S
C3328 C3329 1.524 . S
C3328 H3347 0.913 . S
C3329 H3305 0.950 . S
C3329 C3328 1.524 . S
C3329 C3330 1.415 . S
C3330 H3306 0.950 . S
C3330 C3325 1.363 . S
C3330 C3329 1.415 . S
C3331 H3307 0.951 . S
C3331 C3332 1.366 . S
C3331 C3333 1.388 1_556 S
C3332 C3331 1.366 . S
C3332 C3336 1.385 . S
C3333 H3308 0.951 . S
C3333 C3331 1.388 1_554 S
C3333 C3334 1.366 . S
C3334 C3333 1.366 . S
C3334 C3335 1.414 1_554 S
C3334 C3337 1.499 . S
C3335 H3309 0.950 . S
C3335 C3334 1.414 1_556 S
C3335 C3336 1.374 . S
C3336 H3310 0.950 . S
C3336 C3332 1.385 . S
C3336 C3335 1.374 . S
C3337 C3334 1.499 . S
C3337 C3338 1.373 . S
C3337 C3339 1.389 . S
C3338 H3311 0.950 . S
C3338 C3324 1.377 . S
C3338 C3337 1.373 . S
C3339 C3323 1.377 . S
C3339 C3337 1.389 . S
C3339 C3340 1.524 . S
C3340 C3339 1.524 . S
C3340 C3341 1.397 . S
C3340 C3345 1.363 . S
C3341 H3312 0.950 . S
C3341 C3340 1.397 . S
C3341 C3342 1.334 . S
C3342 H3313 0.950 . S
C3342 C3341 1.334 . S
C3342 C3343 1.287 . S
C3343 C3342 1.287 . S
C3343 C3344 1.524 . S
C3343 H3346 0.999 . S
C3344 H3314 0.950 . S
C3344 C3343 1.524 . S
C3344 C3345 1.415 . S
C3345 H3315 0.950 . S
C3345 C3340 1.363 . S
C3345 C3344 1.415 . S
H3346 C3343 0.999 . S
H3347 C3328 0.913 . S
H3348 C3366 0.951 . S
H3349 C3368 0.951 . S
H3350 C3370 0.950 . S
H3351 C3371 0.950 . S
H3352 C3373 0.950 . S
H3353 C3376 0.950 . S
H3354 C3377 0.950 . S
H3355 C3379 0.950 . S
H3356 C3380 0.950 . S
H3357 C3381 0.951 . S
H3358 C3383 0.951 . S
H3359 C3385 0.950 . S
H3360 C3386 0.950 . S
H3361 C3388 0.950 . S
H3362 C3391 0.950 . S
H3363 C3392 0.950 . S
H3364 C3394 0.950 . S
H3365 C3395 0.950 . S
C3366 H3348 0.951 . S
C3366 C3367 1.366 . S
C3366 C3368 1.388 . S
C3367 C3366 1.366 . S
C3367 C3371 1.385 . S
C3368 H3349 0.951 . S
C3368 C3366 1.388 . S
C3368 C3369 1.366 . S
C3369 C3368 1.366 . S
C3369 C3370 1.414 . S
C3369 C3372 1.499 . S
C3370 H3350 0.950 . S
C3370 C3369 1.414 . S
C3370 C3371 1.374 . S
C3371 H3351 0.950 . S
C3371 C3367 1.385 . S
C3371 C3370 1.374 . S
C3372 C3369 1.499 . S
C3372 C3373 1.373 . S
C3372 C3374 1.389 . S
C3373 H3352 0.950 . S
C3373 C3372 1.373 . S
C3373 C3389 1.377 . S
C3374 C3372 1.389 . S
C3374 C3375 1.524 . S
C3374 C3388 1.377 . S
C3375 C3374 1.524 . S
C3375 C3376 1.397 . S
C3375 C3380 1.363 . S
C3376 H3353 0.950 . S
C3376 C3375 1.397 . S
C3376 C3377 1.334 . S
C3377 H3354 0.950 . S
C3377 C3376 1.334 . S
C3377 C3378 1.287 . S
C3378 C3377 1.287 . S
C3378 C3379 1.524 . S
C3378 H3397 0.913 . S
C3379 H3355 0.950 . S
C3379 C3378 1.524 . S
C3379 C3380 1.415 . S
C3380 H3356 0.950 . S
C3380 C3375 1.363 . S
C3380 C3379 1.415 . S
C3381 H3357 0.951 . S
C3381 C3382 1.366 . S
C3381 C3383 1.388 . S
C3382 C3381 1.366 . S
C3382 C3386 1.385 . S
C3383 H3358 0.951 . S
C3383 C3381 1.388 . S
C3383 C3384 1.366 . S
C3384 C3383 1.366 . S
C3384 C3385 1.414 . S
C3384 C3387 1.499 . S
C3385 H3359 0.950 . S
C3385 C3384 1.414 . S
C3385 C3386 1.374 . S
C3386 H3360 0.950 . S
C3386 C3382 1.385 . S
C3386 C3385 1.374 . S
C3387 C3384 1.499 . S
C3387 C3388 1.373 . S
C3387 C3389 1.389 . S
C3388 H3361 0.950 . S
C3388 C3374 1.377 . S
C3388 C3387 1.373 . S
C3389 C3373 1.377 . S
C3389 C3387 1.389 . S
C3389 C3390 1.524 . S
C3390 C3389 1.524 . S
C3390 C3391 1.397 . S
C3390 C3395 1.363 . S
C3391 H3362 0.950 . S
C3391 C3390 1.397 . S
C3391 C3392 1.334 . S
C3392 H3363 0.950 . S
C3392 C3391 1.334 . S
C3392 C3393 1.287 . S
C3393 C3392 1.287 . S
C3393 C3394 1.524 . S
C3393 H3396 0.999 . S
C3394 H3364 0.950 . S
C3394 C3393 1.524 . S
C3394 C3395 1.415 . S
C3395 H3365 0.950 . S
C3395 C3390 1.363 . S
C3395 C3394 1.415 . S
H3396 C3393 0.999 . S
H3397 C3378 0.913 . S
H3398 C3416 0.951 . S
H3399 C3418 0.951 . S
H3400 C3420 0.950 . S
H3401 C3421 0.950 . S
H3402 C3423 0.950 . S
H3403 C3426 0.950 . S
H3404 C3427 0.950 . S
H3405 C3429 0.950 . S
H3406 C3430 0.950 . S
H3407 C3431 0.951 . S
H3408 C3433 0.951 . S
H3409 C3435 0.950 . S
H3410 C3436 0.950 . S
H3411 C3438 0.950 . S
H3412 C3441 0.950 . S
H3413 C3442 0.950 . S
H3414 C3444 0.950 . S
H3415 C3445 0.950 . S
C3416 H3398 0.951 . S
C3416 C3417 1.366 . S
C3416 C3418 1.388 . S
C3417 C3416 1.366 . S
C3417 C3421 1.385 . S
C3418 H3399 0.951 . S
C3418 C3416 1.388 . S
C3418 C3419 1.366 . S
C3419 C3418 1.366 . S
C3419 C3420 1.414 . S
C3419 C3422 1.499 . S
C3420 H3400 0.950 . S
C3420 C3419 1.414 . S
C3420 C3421 1.374 . S
C3421 H3401 0.950 . S
C3421 C3417 1.385 . S
C3421 C3420 1.374 . S
C3422 C3419 1.499 . S
C3422 C3423 1.373 . S
C3422 C3424 1.389 . S
C3423 H3402 0.950 . S
C3423 C3422 1.373 . S
C3423 C3439 1.377 . S
C3424 C3422 1.389 . S
C3424 C3425 1.524 . S
C3424 C3438 1.377 . S
C3425 C3424 1.524 . S
C3425 C3426 1.397 . S
C3425 C3430 1.363 . S
C3426 H3403 0.950 . S
C3426 C3425 1.397 . S
C3426 C3427 1.334 . S
C3427 H3404 0.950 . S
C3427 C3426 1.334 . S
C3427 C3428 1.287 . S
C3428 C3427 1.287 . S
C3428 C3429 1.524 . S
C3428 H3447 0.913 . S
C3429 H3405 0.950 . S
C3429 C3428 1.524 . S
C3429 C3430 1.415 . S
C3430 H3406 0.950 . S
C3430 C3425 1.363 . S
C3430 C3429 1.415 . S
C3431 H3407 0.951 . S
C3431 C3432 1.366 . S
C3431 C3433 1.388 . S
C3432 C3431 1.366 . S
C3432 C3436 1.385 . S
C3433 H3408 0.951 . S
C3433 C3431 1.388 . S
C3433 C3434 1.366 . S
C3434 C3433 1.366 . S
C3434 C3435 1.414 . S
C3434 C3437 1.499 . S
C3435 H3409 0.950 . S
C3435 C3434 1.414 . S
C3435 C3436 1.374 . S
C3436 H3410 0.950 . S
C3436 C3432 1.385 . S
C3436 C3435 1.374 . S
C3437 C3434 1.499 . S
C3437 C3438 1.373 . S
C3437 C3439 1.389 . S
C3438 H3411 0.950 . S
C3438 C3424 1.377 . S
C3438 C3437 1.373 . S
C3439 C3423 1.377 . S
C3439 C3437 1.389 . S
C3439 C3440 1.524 . S
C3440 C3439 1.524 . S
C3440 C3441 1.397 . S
C3440 C3445 1.363 . S
C3441 H3412 0.950 . S
C3441 C3440 1.397 . S
C3441 C3442 1.334 . S
C3442 H3413 0.950 . S
C3442 C3441 1.334 . S
C3442 C3443 1.287 . S
C3443 C3442 1.287 . S
C3443 C3444 1.524 . S
C3443 H3446 0.999 . S
C3444 H3414 0.950 . S
C3444 C3443 1.524 . S
C3444 C3445 1.415 . S
C3445 H3415 0.950 . S
C3445 C3440 1.363 . S
C3445 C3444 1.415 . S
H3446 C3443 0.999 . S
H3447 C3428 0.913 . S
H3448 C3466 0.951 . S
H3449 C3468 0.951 . S
H3450 C3470 0.950 . S
H3451 C3471 0.950 . S
H3452 C3473 0.950 . S
H3453 C3476 0.950 . S
H3454 C3477 0.950 . S
H3455 C3479 0.950 . S
H3456 C3480 0.950 . S
H3457 C3481 0.951 . S
H3458 C3483 0.951 . S
H3459 C3485 0.950 . S
H3460 C3486 0.950 . S
H3461 C3488 0.950 . S
H3462 C3491 0.950 . S
H3463 C3492 0.950 . S
H3464 C3494 0.950 . S
H3465 C3495 0.950 . S
C3466 H3448 0.951 . S
C3466 C3467 1.366 . S
C3466 C3468 1.388 . S
C3467 C3466 1.366 . S
C3467 C3471 1.385 . S
C3468 H3449 0.951 . S
C3468 C3466 1.388 . S
C3468 C3469 1.366 . S
C3469 C3468 1.366 . S
C3469 C3470 1.414 . S
C3469 C3472 1.499 . S
C3470 H3450 0.950 . S
C3470 C3469 1.414 . S
C3470 C3471 1.374 . S
C3471 H3451 0.950 . S
C3471 C3467 1.385 . S
C3471 C3470 1.374 . S
C3472 C3469 1.499 . S
C3472 C3473 1.373 . S
C3472 C3474 1.389 . S
C3473 H3452 0.950 . S
C3473 C3472 1.373 . S
C3473 C3489 1.377 . S
C3474 C3472 1.389 . S
C3474 C3475 1.524 . S
C3474 C3488 1.377 . S
C3475 C3474 1.524 . S
C3475 C3476 1.397 . S
C3475 C3480 1.363 . S
C3476 H3453 0.950 . S
C3476 C3475 1.397 . S
C3476 C3477 1.334 . S
C3477 H3454 0.950 . S
C3477 C3476 1.334 . S
C3477 C3478 1.287 . S
C3478 C3477 1.287 . S
C3478 C3479 1.524 . S
C3478 H3497 0.913 . S
C3479 H3455 0.950 . S
C3479 C3478 1.524 . S
C3479 C3480 1.415 . S
C3480 H3456 0.950 . S
C3480 C3475 1.363 . S
C3480 C3479 1.415 . S
C3481 H3457 0.951 . S
C3481 C3482 1.366 . S
C3481 C3483 1.388 . S
C3482 C3481 1.366 . S
C3482 C3486 1.385 . S
C3483 H3458 0.951 . S
C3483 C3481 1.388 . S
C3483 C3484 1.366 . S
C3484 C3483 1.366 . S
C3484 C3485 1.414 . S
C3484 C3487 1.499 . S
C3485 H3459 0.950 . S
C3485 C3484 1.414 . S
C3485 C3486 1.374 . S
C3486 H3460 0.950 . S
C3486 C3482 1.385 . S
C3486 C3485 1.374 . S
C3487 C3484 1.499 . S
C3487 C3488 1.373 . S
C3487 C3489 1.389 . S
C3488 H3461 0.950 . S
C3488 C3474 1.377 . S
C3488 C3487 1.373 . S
C3489 C3473 1.377 . S
C3489 C3487 1.389 . S
C3489 C3490 1.524 . S
C3490 C3489 1.524 . S
C3490 C3491 1.397 . S
C3490 C3495 1.363 . S
C3491 H3462 0.950 . S
C3491 C3490 1.397 . S
C3491 C3492 1.334 . S
C3492 H3463 0.950 . S
C3492 C3491 1.334 . S
C3492 C3493 1.287 . S
C3493 C3492 1.287 . S
C3493 C3494 1.524 . S
C3493 H3496 0.999 . S
C3494 H3464 0.950 . S
C3494 C3493 1.524 . S
C3494 C3495 1.415 . S
C3495 H3465 0.950 . S
C3495 C3490 1.363 . S
C3495 C3494 1.415 . S
H3496 C3493 0.999 . S
H3497 C3478 0.913 . S
H3498 C3516 0.951 . S
H3499 C3518 0.951 . S
H3500 C3520 0.950 . S
H3501 C3521 0.950 . S
H3502 C3523 0.950 . S
H3503 C3526 0.950 . S
H3504 C3527 0.950 . S
H3505 C3529 0.950 . S
H3506 C3530 0.950 . S
H3507 C3531 0.951 . S
H3508 C3533 0.951 . S
H3509 C3535 0.950 . S
H3510 C3536 0.950 . S
H3511 C3538 0.950 . S
H3512 C3541 0.950 . S
H3513 C3542 0.950 . S
H3514 C3544 0.950 . S
H3515 C3545 0.950 . S
C3516 H3498 0.951 . S
C3516 C3517 1.366 . S
C3516 C3518 1.388 1_556 S
C3517 C3516 1.366 . S
C3517 C3521 1.385 . S
C3518 H3499 0.951 . S
C3518 C3516 1.388 1_554 S
C3518 C3519 1.366 . S
C3519 C3518 1.366 . S
C3519 C3520 1.414 1_554 S
C3519 C3522 1.499 . S
C3520 H3500 0.950 . S
C3520 C3519 1.414 1_556 S
C3520 C3521 1.374 . S
C3521 H3501 0.950 . S
C3521 C3517 1.385 . S
C3521 C3520 1.374 . S
C3522 C3519 1.499 . S
C3522 C3523 1.373 . S
C3522 C3524 1.389 . S
C3523 H3502 0.950 . S
C3523 C3522 1.373 . S
C3523 C3539 1.377 . S
C3524 C3522 1.389 . S
C3524 C3525 1.524 . S
C3524 C3538 1.377 . S
C3525 C3524 1.524 . S
C3525 C3526 1.397 . S
C3525 C3530 1.363 . S
C3526 H3503 0.950 . S
C3526 C3525 1.397 . S
C3526 C3527 1.334 . S
C3527 H3504 0.950 . S
C3527 C3526 1.334 . S
C3527 C3528 1.287 . S
C3528 C3527 1.287 . S
C3528 C3529 1.524 . S
C3528 H3547 0.913 . S
C3529 H3505 0.950 . S
C3529 C3528 1.524 . S
C3529 C3530 1.415 . S
C3530 H3506 0.950 . S
C3530 C3525 1.363 . S
C3530 C3529 1.415 . S
C3531 H3507 0.951 . S
C3531 C3532 1.366 . S
C3531 C3533 1.388 . S
C3532 C3531 1.366 . S
C3532 C3536 1.385 . S
C3533 H3508 0.951 . S
C3533 C3531 1.388 . S
C3533 C3534 1.366 . S
C3534 C3533 1.366 . S
C3534 C3535 1.414 . S
C3534 C3537 1.499 . S
C3535 H3509 0.950 . S
C3535 C3534 1.414 . S
C3535 C3536 1.374 . S
C3536 H3510 0.950 . S
C3536 C3532 1.385 . S
C3536 C3535 1.374 . S
C3537 C3534 1.499 . S
C3537 C3538 1.373 . S
C3537 C3539 1.389 . S
C3538 H3511 0.950 . S
C3538 C3524 1.377 . S
C3538 C3537 1.373 . S
C3539 C3523 1.377 . S
C3539 C3537 1.389 . S
C3539 C3540 1.524 . S
C3540 C3539 1.524 . S
C3540 C3541 1.397 . S
C3540 C3545 1.363 . S
C3541 H3512 0.950 . S
C3541 C3540 1.397 . S
C3541 C3542 1.334 . S
C3542 H3513 0.950 . S
C3542 C3541 1.334 . S
C3542 C3543 1.287 . S
C3543 C3542 1.287 . S
C3543 C3544 1.524 . S
C3543 H3546 0.999 . S
C3544 H3514 0.950 . S
C3544 C3543 1.524 . S
C3544 C3545 1.415 . S
C3545 H3515 0.950 . S
C3545 C3540 1.363 . S
C3545 C3544 1.415 . S
H3546 C3543 0.999 . S
H3547 C3528 0.913 . S
H3548 C3566 0.951 . S
H3549 C3568 0.951 . S
H3550 C3570 0.950 . S
H3551 C3571 0.950 . S
H3552 C3573 0.950 . S
H3553 C3576 0.950 . S
H3554 C3577 0.950 . S
H3555 C3579 0.950 . S
H3556 C3580 0.950 . S
H3557 C3581 0.951 . S
H3558 C3583 0.951 . S
H3559 C3585 0.950 . S
H3560 C3586 0.950 . S
H3561 C3588 0.950 . S
H3562 C3591 0.950 . S
H3563 C3592 0.950 . S
H3564 C3594 0.950 . S
H3565 C3595 0.950 . S
C3566 H3548 0.951 . S
C3566 C3567 1.366 . S
C3566 C3568 1.388 . S
C3567 C3566 1.366 . S
C3567 C3571 1.385 . S
C3568 H3549 0.951 . S
C3568 C3566 1.388 . S
C3568 C3569 1.366 . S
C3569 C3568 1.366 . S
C3569 C3570 1.414 . S
C3569 C3572 1.499 . S
C3570 H3550 0.950 . S
C3570 C3569 1.414 . S
C3570 C3571 1.374 . S
C3571 H3551 0.950 . S
C3571 C3567 1.385 . S
C3571 C3570 1.374 . S
C3572 C3569 1.499 . S
C3572 C3573 1.373 . S
C3572 C3574 1.389 . S
C3573 H3552 0.950 . S
C3573 C3572 1.373 . S
C3573 C3589 1.377 . S
C3574 C3572 1.389 . S
C3574 C3575 1.524 . S
C3574 C3588 1.377 . S
C3575 C3574 1.524 . S
C3575 C3576 1.397 . S
C3575 C3580 1.363 . S
C3576 H3553 0.950 . S
C3576 C3575 1.397 . S
C3576 C3577 1.334 . S
C3577 H3554 0.950 . S
C3577 C3576 1.334 . S
C3577 C3578 1.287 . S
C3578 C3577 1.287 . S
C3578 C3579 1.524 . S
C3578 H3597 0.913 . S
C3579 H3555 0.950 . S
C3579 C3578 1.524 . S
C3579 C3580 1.415 . S
C3580 H3556 0.950 . S
C3580 C3575 1.363 . S
C3580 C3579 1.415 . S
C3581 H3557 0.951 . S
C3581 C3582 1.366 . S
C3581 C3583 1.388 . S
C3582 C3581 1.366 . S
C3582 C3586 1.385 . S
C3583 H3558 0.951 . S
C3583 C3581 1.388 . S
C3583 C3584 1.366 . S
C3584 C3583 1.366 . S
C3584 C3585 1.414 . S
C3584 C3587 1.499 . S
C3585 H3559 0.950 . S
C3585 C3584 1.414 . S
C3585 C3586 1.374 . S
C3586 H3560 0.950 . S
C3586 C3582 1.385 . S
C3586 C3585 1.374 . S
C3587 C3584 1.499 . S
C3587 C3588 1.373 . S
C3587 C3589 1.389 . S
C3588 H3561 0.950 . S
C3588 C3574 1.377 . S
C3588 C3587 1.373 . S
C3589 C3573 1.377 . S
C3589 C3587 1.389 . S
C3589 C3590 1.524 . S
C3590 C3589 1.524 . S
C3590 C3591 1.397 . S
C3590 C3595 1.363 . S
C3591 H3562 0.950 . S
C3591 C3590 1.397 . S
C3591 C3592 1.334 . S
C3592 H3563 0.950 . S
C3592 C3591 1.334 . S
C3592 C3593 1.287 . S
C3593 C3592 1.287 . S
C3593 C3594 1.524 . S
C3593 H3596 0.999 . S
C3594 H3564 0.950 . S
C3594 C3593 1.524 . S
C3594 C3595 1.415 . S
C3595 H3565 0.950 . S
C3595 C3590 1.363 . S
C3595 C3594 1.415 . S
H3596 C3593 0.999 . S
H3597 C3578 0.913 . S
H3598 C3616 0.951 . S
H3599 C3618 0.951 . S
H3600 C3620 0.950 . S
H3601 C3621 0.950 . S
H3602 C3623 0.950 . S
H3603 C3626 0.950 . S
H3604 C3627 0.950 . S
H3605 C3629 0.950 . S
H3606 C3630 0.950 . S
H3607 C3631 0.951 . S
H3608 C3633 0.951 . S
H3609 C3635 0.950 . S
H3610 C3636 0.950 . S
H3611 C3638 0.950 . S
H3612 C3641 0.950 . S
H3613 C3642 0.950 . S
H3614 C3644 0.950 . S
H3615 C3645 0.950 . S
C3616 H3598 0.951 . S
C3616 C3617 1.366 . S
C3616 C3618 1.388 . S
C3617 C3616 1.366 . S
C3617 C3621 1.385 . S
C3618 H3599 0.951 . S
C3618 C3616 1.388 . S
C3618 C3619 1.366 . S
C3619 C3618 1.366 . S
C3619 C3620 1.414 . S
C3619 C3622 1.499 . S
C3620 H3600 0.950 . S
C3620 C3619 1.414 . S
C3620 C3621 1.374 . S
C3621 H3601 0.950 . S
C3621 C3617 1.385 . S
C3621 C3620 1.374 . S
C3622 C3619 1.499 . S
C3622 C3623 1.373 . S
C3622 C3624 1.389 . S
C3623 H3602 0.950 . S
C3623 C3622 1.373 . S
C3623 C3639 1.377 . S
C3624 C3622 1.389 . S
C3624 C3625 1.524 . S
C3624 C3638 1.377 . S
C3625 C3624 1.524 . S
C3625 C3626 1.397 . S
C3625 C3630 1.363 . S
C3626 H3603 0.950 . S
C3626 C3625 1.397 . S
C3626 C3627 1.334 . S
C3627 H3604 0.950 . S
C3627 C3626 1.334 . S
C3627 C3628 1.287 . S
C3628 C3627 1.287 . S
C3628 C3629 1.524 . S
C3628 H3647 0.913 . S
C3629 H3605 0.950 . S
C3629 C3628 1.524 . S
C3629 C3630 1.415 . S
C3630 H3606 0.950 . S
C3630 C3625 1.363 . S
C3630 C3629 1.415 . S
C3631 H3607 0.951 . S
C3631 C3632 1.366 . S
C3631 C3633 1.388 . S
C3632 C3631 1.366 . S
C3632 C3636 1.385 . S
C3633 H3608 0.951 . S
C3633 C3631 1.388 . S
C3633 C3634 1.366 . S
C3634 C3633 1.366 . S
C3634 C3635 1.414 . S
C3634 C3637 1.499 . S
C3635 H3609 0.950 . S
C3635 C3634 1.414 . S
C3635 C3636 1.374 . S
C3636 H3610 0.950 . S
C3636 C3632 1.385 . S
C3636 C3635 1.374 . S
C3637 C3634 1.499 . S
C3637 C3638 1.373 . S
C3637 C3639 1.389 . S
C3638 H3611 0.950 . S
C3638 C3624 1.377 . S
C3638 C3637 1.373 . S
C3639 C3623 1.377 . S
C3639 C3637 1.389 . S
C3639 C3640 1.524 . S
C3640 C3639 1.524 . S
C3640 C3641 1.397 . S
C3640 C3645 1.363 . S
C3641 H3612 0.950 . S
C3641 C3640 1.397 . S
C3641 C3642 1.334 . S
C3642 H3613 0.950 . S
C3642 C3641 1.334 . S
C3642 C3643 1.287 . S
C3643 C3642 1.287 . S
C3643 C3644 1.524 . S
C3643 H3646 0.999 . S
C3644 H3614 0.950 . S
C3644 C3643 1.524 . S
C3644 C3645 1.415 . S
C3645 H3615 0.950 . S
C3645 C3640 1.363 . S
C3645 C3644 1.415 . S
H3646 C3643 0.999 . S
H3647 C3628 0.913 . S
C467 C104 1.535 . S
C482 C6 1.534 . S
C517 C20 1.534 . S
C532 C62 1.535 . S
C567 C76 1.534 . S
C582 C34 1.535 . S
C617 C48 1.535 . S
C632 C90 1.534 . S
C667 C118 1.534 . S
C682 C216 1.534 . S
C717 C132 1.534 . S
C732 C174 1.534 . S
C767 C146 1.534 . S
C782 C188 1.534 . S
C817 C160 1.534 . S
C832 C202 1.535 . S
C867 C230 1.534 . S
C882 C328 1.534 . S
C917 C244 1.534 . S
C932 C286 1.535 . S
C967 C300 1.535 . S
C982 C258 1.534 . S
C1017 C314 1.534 . S
C1032 C272 1.534 . S
C1067 C342 1.535 . S
C1082 C440 1.535 . S
C1117 C398 1.534 . S
C1132 C356 1.535 . S
C1167 C412 1.535 . S
C1182 C370 1.534 . S
C1217 C384 1.535 . S
C1232 C426 1.534 . S
C1267 C8 0.780 . S
C1282 C92 0.780 . S
C1317 C22 0.781 . S
C1332 C106 0.780 . S
C1367 C64 0.780 . S
C1382 C36 0.780 . S
C1417 C50 0.781 . S
C1432 C78 0.781 . S
C1467 C120 0.781 . S
C1482 C204 0.781 . S
C1517 C134 0.779 . S
C1532 C218 0.779 . S
C1567 C176 0.780 . S
C1582 C148 0.780 . S
C1617 C190 0.780 . S
C1632 C162 0.780 . S
C1667 C232 0.779 . S
C1682 C316 0.779 . S
C1717 C330 0.780 . S
C1732 C246 0.780 . S
C1767 C288 0.781 . S
C1782 C260 0.781 . S
C1817 C274 0.780 . S
C1832 C302 0.780 . S
C1867 C344 0.780 . S
C1882 C428 0.780 . S
C1917 C358 0.781 . S
C1932 C442 0.781 . S
C1967 C400 0.780 . S
C1982 C372 0.780 . S
C2017 C414 0.780 . S
C2032 C386 0.780 . S
C2067 C9 1.584 . S
C2082 C429 1.584 . S
C2117 C23 1.584 . S
C2132 C219 1.585 . S
C2167 C37 1.584 . S
C2182 C401 1.584 . S
C2217 C51 1.584 . S
C2232 C191 1.584 . S
C2267 C65 1.584 . S
C2282 C373 1.584 . S
C2317 C79 1.584 . S
C2332 C163 1.584 . S
C2367 C93 1.584 . S
C2382 C345 1.584 . S
C2417 C135 1.584 . S
C2432 C107 1.584 . S
C2467 C317 1.584 . S
C2482 C121 1.584 . S
C2517 C149 1.584 . S
C2532 C289 1.584 . S
C2567 C261 1.584 . S
C2582 C177 1.584 . S
C2617 C233 1.584 . S
C2632 C205 1.584 . S
C2667 C247 1.584 . S
C2682 C443 1.585 . S
C2717 C275 1.584 . S
C2732 C415 1.584 . S
C2767 C303 1.584 . S
C2782 C387 1.584 . S
C2817 C359 1.584 . S
C2832 C331 1.584 . S
C2867 C7 1.578 . S
C2882 C91 1.578 . S
C2917 C21 1.578 . S
C2932 C105 1.578 . S
C2967 C63 1.578 1_556 S
C2982 C35 1.577 . S
C3017 C49 1.578 . S
C3032 C77 1.578 . S
C3067 C119 1.577 1_556 S
C3082 C203 1.578 . S
C3117 C133 1.578 . S
C3132 C217 1.578 . S
C3167 C175 1.577 . S
C3182 C147 1.577 . S
C3217 C161 1.577 . S
C3232 C189 1.578 . S
C3267 C315 1.578 1_556 S
C3282 C231 1.577 . S
C3317 C329 1.577 . S
C3332 C245 1.577 . S
C3367 C287 1.578 . S
C3382 C259 1.578 . S
C3417 C301 1.577 . S
C3432 C273 1.577 . S
C3467 C427 1.577 . S
C3482 C343 1.577 . S
C3517 C441 1.577 . S
C3532 C357 1.578 . S
C3567 C371 1.577 1_556 S
C3582 C399 1.578 . S
C3617 C413 1.577 . S
C3632 C385 1.577 . S
