# Generated by pormake.
# Topology msp, (4)-cn, num edge types: 1
# Building blocks:
#     Node 0, Type 0, BuildingBlock: MUDLON_clean_sbu_0, # of connection points: 4
#     Node 1, Type 0, BuildingBlock: MUDLON_clean_sbu_0, # of connection points: 4
#     Node 2, Type 0, BuildingBlock: MUDLON_clean_sbu_0, # of connection points: 4
#     Node 3, Type 0, BuildingBlock: MUDLON_clean_sbu_0, # of connection points: 4
#     Node 4, Type 0, BuildingBlock: MUDLON_clean_sbu_0, # of connection points: 4
#     Node 5, Type 0, BuildingBlock: MUDLON_clean_sbu_0, # of connection points: 4
#     Node 6, Type 0, BuildingBlock: MUDLON_clean_sbu_0, # of connection points: 4
#     Node 7, Type 0, BuildingBlock: MUDLON_clean_sbu_0, # of connection points: 4
#     Edge 8, Type (0, 0), BuildingBlock: TEMPAE_clean_linker_10, # of connection points: 2
#     Edge 9, Type (0, 0), BuildingBlock: TEMPAE_clean_linker_10, # of connection points: 2
#     Edge 10, Type (0, 0), BuildingBlock: TEMPAE_clean_linker_10, # of connection points: 2
#     Edge 11, Type (0, 0), BuildingBlock: TEMPAE_clean_linker_10, # of connection points: 2
#     Edge 12, Type (0, 0), BuildingBlock: TEMPAE_clean_linker_10, # of connection points: 2
#     Edge 13, Type (0, 0), BuildingBlock: TEMPAE_clean_linker_10, # of connection points: 2
#     Edge 14, Type (0, 0), BuildingBlock: TEMPAE_clean_linker_10, # of connection points: 2
#     Edge 15, Type (0, 0), BuildingBlock: TEMPAE_clean_linker_10, # of connection points: 2
#     Edge 16, Type (0, 0), BuildingBlock: TEMPAE_clean_linker_10, # of connection points: 2
#     Edge 17, Type (0, 0), BuildingBlock: TEMPAE_clean_linker_10, # of connection points: 2
#     Edge 18, Type (0, 0), BuildingBlock: TEMPAE_clean_linker_10, # of connection points: 2
#     Edge 19, Type (0, 0), BuildingBlock: TEMPAE_clean_linker_10, # of connection points: 2
#     Edge 20, Type (0, 0), BuildingBlock: TEMPAE_clean_linker_10, # of connection points: 2
#     Edge 21, Type (0, 0), BuildingBlock: TEMPAE_clean_linker_10, # of connection points: 2
#     Edge 22, Type (0, 0), BuildingBlock: TEMPAE_clean_linker_10, # of connection points: 2
#     Edge 23, Type (0, 0), BuildingBlock: TEMPAE_clean_linker_10, # of connection points: 2
# Relax obj value: 0.165
# Max RMSD: 0.252
# Mean RMSD: 0.252
data_MOF--net-msp--node1-MUDLON_clean_sbu_0--edge1-TEMPAE_clean_linker_10
_symmetry_space_group_name_H-M    P1
_symmetry_Int_Tables_number       1
_symmetry_cell_setting            triclinic
loop_
_symmetry_equiv_pos_as_xyz
'x, y, z'
_cell_length_a     24.964027
_cell_length_b     24.548392
_cell_length_c     42.507062
_cell_angle_alpha  89.839796
_cell_angle_beta   101.22177
_cell_angle_gamma 89.968733
loop_
_atom_site_label
_atom_site_type_symbol
_atom_site_fract_x
_atom_site_fract_y
_atom_site_fract_z
_atom_type_partial_charge
Mg0 Mg 0.05443 0.31102 0.38435 0.0
C1 C 0.10393 0.30101 0.32497 0.0
O2 O 0.05681 0.27712 0.31452 0.0
C3 C 0.03893 0.36519 0.44395 0.0
O4 O 0.02685 0.31403 0.44841 0.0
C5 C 0.95302 0.25387 0.34511 0.0
O6 O 0.98425 0.21031 0.34929 0.0
O7 O 0.97192 0.29883 0.35726 0.0
O8 O 0.11295 0.32222 0.35279 0.0
O9 O 0.08771 0.24515 0.41634 0.0
C10 C 0.12483 0.21344 0.41049 0.0
O11 O 0.13434 0.21132 0.38119 0.0
O12 O 0.05205 0.37864 0.41748 0.0
Mg13 Mg 0.48044 0.29218 0.64236 0.0
C14 C 0.40885 0.25011 0.68483 0.0
O15 O 0.42677 0.20567 0.67312 0.0
C16 C 0.52566 0.3812 0.60534 0.0
O17 O 0.57129 0.35571 0.61757 0.0
C18 C 0.57222 0.27365 0.69897 0.0
O19 O 0.53225 0.28537 0.71385 0.0
O20 O 0.56249 0.27255 0.66845 0.0
O21 O 0.42467 0.29605 0.67605 0.0
O22 O 0.44545 0.23094 0.60753 0.0
C23 C 0.45209 0.23584 0.57877 0.0
O24 O 0.48735 0.27186 0.57233 0.0
O25 O 0.48151 0.36592 0.61345 0.0
Mg26 Mg 0.9858 0.71699 0.66221 0.0
C27 C 0.92393 0.75717 0.70977 0.0
O28 O 0.94644 0.80127 0.70049 0.0
C29 C 0.03212 0.63448 0.62291 0.0
O30 O 0.07426 0.66699 0.6312 0.0
C31 C 0.08297 0.71952 0.71432 0.0
O32 O 0.0483 0.68933 0.72627 0.0
O33 O 0.06789 0.73937 0.68631 0.0
O34 O 0.9348 0.71148 0.69837 0.0
O35 O 0.94351 0.77371 0.62632 0.0
C36 C 0.892 0.76697 0.62142 0.0
O37 O 0.87225 0.73147 0.63933 0.0
O38 O 0.98933 0.64321 0.63425 0.0
Mg39 Mg 0.55794 0.70337 0.36754 0.0
C40 C 0.62701 0.7414 0.32442 0.0
O41 O 0.60726 0.78538 0.33559 0.0
C42 C 0.53115 0.64554 0.4226 0.0
O43 O 0.52036 0.69708 0.42691 0.0
C44 C 0.45913 0.70423 0.31719 0.0
O45 O 0.48711 0.66227 0.30997 0.0
O46 O 0.479 0.73207 0.34191 0.0
O47 O 0.61147 0.69513 0.33289 0.0
O48 O 0.60414 0.75777 0.40295 0.0
C49 C 0.65041 0.73583 0.41336 0.0
O50 O 0.66151 0.68948 0.40058 0.0
O51 O 0.54711 0.63234 0.39693 0.0
Mg52 Mg 0.56296 0.7959 0.89097 0.0
C53 C 0.61745 0.79325 0.83249 0.0
O54 O 0.56752 0.78222 0.81751 0.0
C55 C 0.52086 0.88525 0.92918 0.0
O56 O 0.47391 0.86857 0.91242 0.0
C57 C 0.46496 0.7453 0.84612 0.0
O58 O 0.49716 0.70249 0.84867 0.0
O59 O 0.48199 0.78846 0.86125 0.0
O60 O 0.62619 0.80313 0.8624 0.0
O61 O 0.58784 0.72653 0.92199 0.0
C62 C 0.57776 0.72749 0.95015 0.0
O63 O 0.54338 0.76415 0.95691 0.0
O64 O 0.56482 0.86414 0.92391 0.0
Mg65 Mg 0.98119 0.79572 0.14077 0.0
C66 C 0.92904 0.78402 0.19864 0.0
O67 O 0.9749 0.75752 0.2088 0.0
C68 C 0.9987 0.85542 0.08261 0.0
O69 O 1.00207 0.80413 0.07448 0.0
C70 C 0.10223 0.79803 0.16946 0.0
O71 O 0.09969 0.8404 0.15028 0.0
O72 O 0.05913 0.77055 0.16968 0.0
O73 O 0.92182 0.80781 0.1715 0.0
O74 O 0.94261 0.73507 0.10691 0.0
C75 C 0.90821 0.7007 0.11338 0.0
O76 O 0.9036 0.69363 0.14337 0.0
O77 O 0.99091 0.8663 0.11068 0.0
Mg78 Mg 0.47863 0.21842 0.15733 0.0
C79 C 0.40022 0.26037 0.19463 0.0
O80 O 0.41723 0.30391 0.18143 0.0
C81 C 0.51603 0.15302 0.10882 0.0
O82 O 0.53396 0.2026 0.10542 0.0
C83 C 0.57051 0.22805 0.21315 0.0
O84 O 0.53419 0.20063 0.22536 0.0
O85 O 0.55801 0.24383 0.1841 0.0
O86 O 0.42005 0.21429 0.18925 0.0
O87 O 0.44008 0.27181 0.11847 0.0
C88 C 0.40072 0.24661 0.10101 0.0
O89 O 0.3897 0.19681 0.10922 0.0
O90 O 0.49101 0.14392 0.13172 0.0
Mg91 Mg 0.05834 0.22579 0.87331 0.0
C92 C 0.16322 0.21206 0.84711 0.0
O93 O 0.18459 0.20627 0.87773 0.0
C94 C 1.01429 0.14707 0.91584 0.0
O95 O 0.97562 0.18422 0.91101 0.0
C96 C 0.94969 0.20852 0.83127 0.0
O97 O 0.97157 0.1597 0.83209 0.0
O98 O 0.97697 0.24656 0.8472 0.0
O99 O 0.11183 0.21828 0.83866 0.0
O100 O 0.09375 0.28491 0.90928 0.0
C101 C 0.13177 0.3174 0.90565 0.0
O102 O 0.14376 0.32298 0.87707 0.0
O103 O 0.05438 0.15201 0.90155 0.0
C104 C 0.03831 0.46152 0.46408 0.0
C105 C 0.03814 0.40528 0.46994 0.0
C106 C 0.0365 0.49915 0.48879 0.0
C107 C 0.03538 0.48005 0.52018 0.0
C108 C 0.03579 0.42334 0.52624 0.0
C109 C 0.03679 0.38676 0.50106 0.0
C110 C 0.0355 0.55933 0.48131 0.0
C111 C 0.03551 0.40123 0.55941 0.0
C112 C 0.0825 0.57548 0.59052 0.0
C113 C 0.03276 0.59255 0.59791 0.0
C114 C 0.08393 0.53871 0.56543 0.0
C115 C 0.03438 0.51918 0.54686 0.0
C116 C 0.984 0.53615 0.55426 0.0
C117 C 0.9838 0.57223 0.57988 0.0
C118 C 0.13852 0.52084 0.55874 0.0
C119 C 0.93027 0.51678 0.53482 0.0
H120 H 0.03915 0.47612 0.44009 0.0
H121 H 0.03707 0.34338 0.50592 0.0
H122 H 0.99865 0.57829 0.48763 0.0
H123 H 0.0716 0.57947 0.49603 0.0
H124 H 0.03546 0.56758 0.4556 0.0
H125 H 0.03657 0.356 0.56021 0.0
H126 H 0.07133 0.41697 0.57661 0.0
H127 H 0.9984 0.41531 0.56772 0.0
H128 H 0.1205 0.59095 0.60437 0.0
H129 H 0.94519 0.58571 0.58521 0.0
H130 H 0.14184 0.53253 0.53397 0.0
H131 H 0.14208 0.47582 0.56042 0.0
H132 H 0.17332 0.53909 0.57571 0.0
H133 H 0.92748 0.52781 0.50922 0.0
H134 H 0.89465 0.53458 0.54325 0.0
H135 H 0.92774 0.47174 0.53613 0.0
C136 C 0.53376 0.54931 0.4439 0.0
C137 C 0.52792 0.60542 0.44845 0.0
C138 C 0.53188 0.51195 0.46891 0.0
C139 C 0.52467 0.53123 0.49924 0.0
C140 C 0.5186 0.58777 0.50386 0.0
C141 C 0.52001 0.62399 0.47845 0.0
C142 C 0.53798 0.45189 0.46296 0.0
C143 C 0.51145 0.61019 0.53585 0.0
C144 C 0.47565 0.43574 0.55865 0.0
C145 C 0.52484 0.42174 0.57922 0.0
C146 C 0.47504 0.47062 0.53226 0.0
C147 C 0.52471 0.49267 0.52651 0.0
C148 C 0.57437 0.4793 0.54747 0.0
C149 C 0.57386 0.4438 0.57341 0.0
C150 C 0.42128 0.48354 0.51037 0.0
C151 C 0.62812 0.50256 0.54252 0.0
H152 H 0.53979 0.53459 0.42083 0.0
H153 H 0.51571 0.66725 0.48235 0.0
H154 H 0.57498 0.4359 0.47913 0.0
H155 H 0.50245 0.4293 0.46851 0.0
H156 H 0.54132 0.44326 0.43777 0.0
H157 H 0.50676 0.65521 0.53544 0.0
H158 H 0.47497 0.59183 0.54295 0.0
H159 H 0.5473 0.59923 0.55463 0.0
H160 H 0.43764 0.41842 0.56271 0.0
H161 H 0.61205 0.43321 0.58916 0.0
H162 H 0.42293 0.47171 0.4854 0.0
H163 H 0.41348 0.52803 0.51029 0.0
H164 H 0.38642 0.46216 0.51769 0.0
H165 H 0.63548 0.491 0.51851 0.0
H166 H 0.66312 0.48818 0.56096 0.0
H167 H 0.62675 0.54771 0.54328 0.0
C168 C 0.50352 0.05723 0.08757 0.0
C169 C 0.52041 0.11109 0.08434 0.0
C170 C 0.50512 0.01859 0.06334 0.0
C171 C 0.52342 0.03442 0.03511 0.0
C172 C 0.54114 0.08853 0.03196 0.0
C173 C 0.53971 0.126 0.05662 0.0
C174 C 0.48652 0.96106 0.06772 0.0
C175 C 0.56044 0.10729 1.00216 0.0
C176 C 0.56884 0.92911 0.98012 0.0
C177 C 0.52208 0.92426 0.9559 0.0
C178 C 0.56948 0.96386 1.00641 0.0
C179 C 0.52254 0.99516 1.0083 0.0
C180 C 0.47535 0.99067 0.98382 0.0
C181 C 0.47557 0.955 0.95805 0.0
C182 C 0.62038 0.96707 0.03218 0.0
C183 C 0.42475 0.02396 0.98467 0.0
H184 H 0.48865 0.04534 0.1089 0.0
H185 H 0.55273 0.16753 0.05377 0.0
H186 H 0.45 0.95169 0.0491 0.0
H187 H 0.51893 0.93174 0.06462 0.0
H188 H 0.47617 0.95448 0.09171 0.0
H189 H 0.57385 0.1505 1.00371 0.0
H190 H 0.59496 0.08157 0.99805 0.0
H191 H 0.52701 0.1027 0.98093 0.0
H192 H 0.60474 0.905 0.97883 0.0
H193 H 0.43929 0.95147 0.93944 0.0
H194 H 0.61036 0.95776 0.05593 0.0
H195 H 0.63708 0.00904 0.03338 0.0
H196 H 0.65262 0.93839 0.02786 0.0
H197 H 0.40981 0.01543 1.00711 0.0
H198 H 0.39127 0.01536 0.96394 0.0
H199 H 0.43464 0.06802 0.98458 0.0
C200 C 1.01124 0.95343 0.06797 0.0
C201 C 1.00222 0.89888 0.05873 0.0
C202 C 1.01487 0.99425 0.04512 0.0
C203 C 1.00839 0.98028 1.01224 0.0
C204 C 0.99897 0.92533 1.00284 0.0
C205 C 0.99643 0.88536 0.02617 0.0
C206 C 0.02565 0.0523 0.05614 0.0
C207 C 0.99091 0.90875 0.96803 0.0
C208 C 0.96376 0.09058 0.94951 0.0
C209 C 1.01276 0.10285 0.93953 0.0
C210 C 0.96178 0.05079 0.97307 0.0
C211 C 1.01019 0.02312 0.98747 0.0
C212 C 0.05986 0.03537 0.97754 0.0
C213 C 0.06046 0.07473 0.95349 0.0
C214 C 0.90779 0.03823 0.98247 0.0
C215 C 0.11247 0.00724 0.99256 0.0
H216 H 1.01601 0.96414 0.09308 0.0
H217 H 0.98907 0.84338 0.01873 0.0
H218 H 0.06265 0.0679 0.04828 0.0
H219 H 0.99099 0.07867 0.04498 0.0
H220 H 0.03152 0.05622 0.08262 0.0
H221 H 0.98383 0.86429 0.96467 0.0
H222 H 0.95544 0.93085 0.95385 0.0
H223 H 0.02728 0.92009 0.95807 0.0
H224 H 0.92669 0.11202 0.93879 0.0
H225 H 0.09858 0.08436 0.94613 0.0
H226 H 0.91055 0.046 1.00843 0.0
H227 H 0.89776 0.99449 0.9783 0.0
H228 H 0.87379 0.06301 0.96879 0.0
H229 H 0.12094 0.01362 0.0189 0.0
H230 H 0.14787 0.02234 0.98277 0.0
H231 H 0.10863 0.9627 0.98841 0.0
C232 C 0.63732 0.22319 0.26519 0.0
C233 C 0.62618 0.2364 0.23242 0.0
C234 C 0.69033 0.22741 0.28354 0.0
C235 C 0.7335 0.24493 0.26877 0.0
C236 C 0.72247 0.25916 0.23581 0.0
C237 C 0.66888 0.25494 0.21804 0.0
C238 C 0.70026 0.21236 0.31868 0.0
C239 C 0.76746 0.27786 0.21919 0.0
C240 C 0.8627 0.29736 0.32275 0.0
C241 C 0.8969 0.25144 0.32554 0.0
C242 C 0.80965 0.29596 0.30417 0.0
C243 C 0.79027 0.24755 0.28782 0.0
C244 C 0.82465 0.20117 0.29035 0.0
C245 C 0.87747 0.20361 0.30924 0.0
C246 C 0.77415 0.34616 0.30224 0.0
C247 C 0.80553 0.14884 0.2732 0.0
H248 H 0.60459 0.20905 0.27656 0.0
H249 H 0.66069 0.26504 0.19272 0.0
H250 H 0.72905 0.17751 0.32336 0.0
H251 H 0.71944 0.24698 0.33343 0.0
H252 H 0.66201 0.20105 0.32676 0.0
H253 H 0.75199 0.28854 0.19362 0.0
H254 H 0.78832 0.31395 0.2316 0.0
H255 H 0.79857 0.24523 0.22038 0.0
H256 H 0.87727 0.33454 0.33523 0.0
H257 H 0.90361 0.16801 0.31113 0.0
H258 H 0.73678 0.33689 0.31173 0.0
H259 H 0.76082 0.35893 0.27687 0.0
H260 H 0.79559 0.38084 0.31599 0.0
H261 H 0.76931 0.13303 0.28181 0.0
H262 H 0.83768 0.11687 0.27695 0.0
H263 H 0.79285 0.15658 0.24708 0.0
C264 C 0.67328 0.26237 0.70281 0.0
C265 C 0.62791 0.26341 0.71776 0.0
C266 C 0.72629 0.25433 0.72075 0.0
C267 C 0.734 0.24651 0.75437 0.0
C268 C 0.6883 0.24702 0.76952 0.0
C269 C 0.63592 0.25574 0.75108 0.0
C270 C 0.77407 0.25448 0.70376 0.0
C271 C 0.69469 0.23818 0.80524 0.0
C272 C 0.86277 0.17492 0.79734 0.0
C273 C 0.89453 0.21865 0.8117 0.0
C274 C 0.81062 0.18345 0.77854 0.0
C275 C 0.78976 0.23709 0.77374 0.0
C276 C 0.82168 0.28149 0.78801 0.0
C277 C 0.87359 0.27173 0.80694 0.0
C278 C 0.77768 0.13496 0.76402 0.0
C279 C 0.80096 0.3393 0.78329 0.0
H280 H 0.66748 0.26856 0.67711 0.0
H281 H 0.6011 0.25626 0.76285 0.0
H282 H 0.80369 0.28647 0.71406 0.0
H283 H 0.79578 0.21485 0.70745 0.0
H284 H 0.7613 0.26191 0.67758 0.0
H285 H 0.65497 0.23946 0.81332 0.0
H286 H 0.71423 0.19812 0.81202 0.0
H287 H 0.72183 0.26984 0.81837 0.0
H288 H 0.87849 0.13374 0.80092 0.0
H289 H 0.89792 0.30576 0.81784 0.0
H290 H 0.76715 0.13938 0.73756 0.0
H291 H 0.73871 0.13298 0.77284 0.0
H292 H 0.7999 0.09589 0.76989 0.0
H293 H 0.7907 0.34917 0.75732 0.0
H294 H 0.83129 0.36941 0.79536 0.0
H295 H 0.76294 0.34377 0.7929 0.0
C296 C 0.18037 0.74935 0.7185 0.0
C297 C 0.13906 0.72771 0.73294 0.0
C298 C 0.23424 0.75419 0.7358 0.0
C299 C 0.24685 0.73743 0.76833 0.0
C300 C 0.20503 0.71664 0.78316 0.0
C301 C 0.15179 0.71187 0.76528 0.0
C302 C 0.27782 0.77634 0.71916 0.0
C303 C 0.21665 0.6988 0.81788 0.0
C304 C 0.39174 0.69736 0.80733 0.0
C305 C 0.40973 0.74381 0.82549 0.0
C306 C 0.33929 0.69525 0.78802 0.0
C307 C 0.30386 0.7406 0.78691 0.0
C308 C 0.322 0.78787 0.80483 0.0
C309 C 0.3747 0.78894 0.82386 0.0
C310 C 0.32145 0.64414 0.7692 0.0
C311 C 0.28537 0.83695 0.80439 0.0
H312 H 0.17088 0.76151 0.6935 0.0
H313 H 0.12008 0.69539 0.7767 0.0
H314 H 0.29792 0.81207 0.73239 0.0
H315 H 0.30983 0.745 0.71906 0.0
H316 H 0.26116 0.78875 0.694 0.0
H317 H 0.17926 0.68496 0.82607 0.0
H318 H 0.24669 0.66495 0.8213 0.0
H319 H 0.23499 0.73287 0.83341 0.0
H320 H 0.41855 0.6624 0.8083 0.0
H321 H 0.38823 0.82508 0.83774 0.0
H322 H 0.30745 0.6542 0.74345 0.0
H323 H 0.28638 0.62555 0.77777 0.0
H324 H 0.35472 0.61345 0.77145 0.0
H325 H 0.27067 0.85102 0.77938 0.0
H326 H 0.30639 0.87135 0.81862 0.0
H327 H 0.24886 0.82573 0.81427 0.0
C328 C 0.37419 0.76166 0.30428 0.0
C329 C 0.40595 0.71844 0.29647 0.0
C330 C 0.32399 0.77522 0.28444 0.0
C331 C 0.30529 0.74499 0.25608 0.0
C332 C 0.33709 0.70125 0.24817 0.0
C333 C 0.38688 0.68847 0.26845 0.0
C334 C 0.29104 0.82198 0.29374 0.0
C335 C 0.31874 0.66814 0.21809 0.0
C336 C 0.15484 0.74638 0.21649 0.0
C337 C 0.15413 0.78407 0.19152 0.0
C338 C 0.20356 0.73398 0.23802 0.0
C339 C 0.25287 0.75942 0.23431 0.0
C340 C 0.25242 0.79739 0.20913 0.0
C341 C 0.20305 0.80944 0.18815 0.0
C342 C 0.20231 0.69355 0.26471 0.0
C343 C 0.30423 0.82492 0.20415 0.0
H344 H 0.38854 0.78496 0.3259 0.0
H345 H 0.41105 0.65499 0.26216 0.0
H346 H 0.28568 0.85384 0.27483 0.0
H347 H 0.24969 0.80766 0.29576 0.0
H348 H 0.31067 0.8407 0.31689 0.0
H349 H 0.34807 0.6352 0.21548 0.0
H350 H 0.27835 0.64951 0.21832 0.0
H351 H 0.31386 0.69504 0.1967 0.0
H352 H 0.11717 0.72688 0.21942 0.0
H353 H 0.20291 0.83856 0.16892 0.0
H354 H 0.21897 0.71251 0.28824 0.0
H355 H 0.22861 0.65807 0.2621 0.0
H356 H 0.16037 0.67864 0.26493 0.0
H357 H 0.32325 0.84729 0.22613 0.0
H358 H 0.29685 0.854 0.18368 0.0
H359 H 0.33409 0.79385 0.19961 0.0
C360 C 0.34375 0.22172 0.23239 0.0
C361 C 0.35788 0.2658 0.21459 0.0
C362 C 0.30341 0.22723 0.25116 0.0
C363 C 0.27623 0.27781 0.25187 0.0
C364 C 0.29041 0.32236 0.23396 0.0
C365 C 0.33112 0.31589 0.2157 0.0
C366 C 0.28973 0.1789 0.27016 0.0
C367 C 0.26211 0.37681 0.23378 0.0
C368 C 0.13585 0.27932 0.27413 0.0
C369 C 0.14781 0.29767 0.30596 0.0
C370 C 0.17723 0.27262 0.25631 0.0
C371 C 0.23209 0.28407 0.27072 0.0
C372 C 0.24447 0.30279 0.30282 0.0
C373 C 0.20216 0.30964 0.32 0.0
C374 C 0.16221 0.25323 0.22204 0.0
C375 C 0.30248 0.31514 0.31909 0.0
H376 H 0.36434 0.18297 0.23176 0.0
H377 H 0.34155 0.35019 0.20197 0.0
H378 H 0.29509 0.18971 0.29591 0.0
H379 H 0.24629 0.16747 0.2619 0.0
H380 H 0.31563 0.1429 0.2678 0.0
H381 H 0.27818 0.40752 0.21876 0.0
H382 H 0.21765 0.37194 0.22452 0.0
H383 H 0.26716 0.39273 0.25858 0.0
H384 H 0.094 0.26997 0.26307 0.0
H385 H 0.21187 0.32336 0.34467 0.0
H386 H 0.184 0.21471 0.21919 0.0
H387 H 0.17522 0.28373 0.20573 0.0
H388 H 0.11763 0.24622 0.21433 0.0
H389 H 0.32839 0.27846 0.31887 0.0
H390 H 0.30544 0.32846 0.34433 0.0
H391 H 0.31954 0.34766 0.30578 0.0
C392 C 0.35549 0.29224 0.72307 0.0
C393 C 0.37199 0.24582 0.70827 0.0
C394 C 0.32131 0.28781 0.74568 0.0
C395 C 0.30312 0.23576 0.75359 0.0
C396 C 0.31941 0.18887 0.73858 0.0
C397 C 0.35361 0.19446 0.71619 0.0
C398 C 0.30487 0.33876 0.76121 0.0
C399 C 0.30083 0.13266 0.74625 0.0
C400 C 0.256 0.21533 0.83277 0.0
C401 C 0.19896 0.21659 0.82306 0.0
C402 C 0.29035 0.22201 0.81048 0.0
C403 C 0.26718 0.23005 0.77764 0.0
C404 C 0.20966 0.23115 0.76766 0.0
C405 C 0.17628 0.22443 0.79046 0.0
C406 C 0.35148 0.22049 0.82208 0.0
C407 C 0.18336 0.2394 0.73286 0.0
H408 H 0.36952 0.33206 0.71715 0.0
H409 H 0.36598 0.15829 0.70489 0.0
H410 H 0.25972 0.34251 0.75644 0.0
H411 H 0.31877 0.33621 0.78761 0.0
H412 H 0.32225 0.37616 0.75238 0.0
H413 H 0.3168 0.10034 0.7323 0.0
H414 H 0.31463 0.12384 0.77217 0.0
H415 H 0.25557 0.13068 0.74104 0.0
H416 H 0.27398 0.20955 0.85789 0.0
H417 H 0.13229 0.22562 0.7827 0.0
H418 H 0.36995 0.25898 0.81555 0.0
H419 H 0.36941 0.18682 0.81016 0.0
H420 H 0.36305 0.2147 0.84846 0.0
H421 H 0.19725 0.27844 0.72398 0.0
H422 H 0.13805 0.23984 0.72904 0.0
H423 H 0.19607 0.20639 0.7181 0.0
C424 C 0.71782 0.79163 0.83222 0.0
C425 C 0.66365 0.78985 0.81526 0.0
C426 C 0.76188 0.78552 0.81638 0.0
C427 C 0.75159 0.77795 0.78274 0.0
C428 C 0.69706 0.77674 0.76544 0.0
C429 C 0.65378 0.78248 0.78191 0.0
C430 C 0.81945 0.78678 0.83569 0.0
C431 C 0.68442 0.76937 0.72949 0.0
C432 C 0.86257 0.8136 0.73649 0.0
C433 C 0.88223 0.762 0.73014 0.0
C434 C 0.82049 0.81933 0.75381 0.0
C435 C 0.79782 0.77237 0.76547 0.0
C436 C 0.81837 0.72019 0.75988 0.0
C437 C 0.86014 0.71559 0.7421 0.0
C438 C 0.79941 0.87565 0.75899 0.0
C439 C 0.79568 0.66921 0.77228 0.0
H440 H 0.72589 0.797 0.85801 0.0
H441 H 0.6121 0.78108 0.76859 0.0
H442 H 0.84085 0.74829 0.8322 0.0
H443 H 0.84263 0.82049 0.82719 0.0
H444 H 0.82053 0.79228 0.86173 0.0
H445 H 0.63983 0.76963 0.71956 0.0
H446 H 0.70383 0.80238 0.71778 0.0
H447 H 0.7017 0.73024 0.72305 0.0
H448 H 0.87919 0.84973 0.72726 0.0
H449 H 0.87521 0.67561 0.73738 0.0
H450 H 0.80242 0.88329 0.78498 0.0
H451 H 0.75562 0.87874 0.7475 0.0
H452 H 0.82222 0.90811 0.74895 0.0
H453 H 0.79815 0.67222 0.79857 0.0
H454 H 0.81779 0.63197 0.7672 0.0
H455 H 0.75191 0.66475 0.76107 0.0
C456 C 0.8949 0.76293 0.24887 0.0
C457 C 0.88409 0.7802 0.21677 0.0
C458 C 0.85248 0.75577 0.26588 0.0
C459 C 0.79777 0.76528 0.25029 0.0
C460 C 0.78656 0.78265 0.21786 0.0
C461 C 0.82988 0.79034 0.20157 0.0
C462 C 0.86626 0.73817 0.3006 0.0
C463 C 0.72875 0.79267 0.2003 0.0
C464 C 0.68583 0.70217 0.28819 0.0
C465 C 0.66934 0.74685 0.30448 0.0
C466 C 0.72689 0.70772 0.26991 0.0
C467 C 0.75256 0.75891 0.26833 0.0
C468 C 0.73592 0.80406 0.28468 0.0
C469 C 0.69437 0.79758 0.30231 0.0
C470 C 0.74303 0.6588 0.25242 0.0
C471 C 0.76269 0.85914 0.28403 0.0
H472 H 0.93667 0.75502 0.26077 0.0
H473 H 0.82113 0.80306 0.17665 0.0
H474 H 0.85132 0.76901 0.31588 0.0
H475 H 0.8454 0.69926 0.30383 0.0
H476 H 0.91088 0.73261 0.30924 0.0
H477 H 0.72677 0.80442 0.17484 0.0
H478 H 0.70382 0.75545 0.20104 0.0
H479 H 0.70986 0.82555 0.21231 0.0
H480 H 0.66657 0.66293 0.28967 0.0
H481 H 0.68219 0.83233 0.31495 0.0
H482 H 0.78648 0.6485 0.26182 0.0
H483 H 0.73908 0.66834 0.22654 0.0
H484 H 0.71766 0.6225 0.25497 0.0
H485 H 0.80703 0.85578 0.29415 0.0
H486 H 0.74479 0.89023 0.29789 0.0
H487 H 0.75849 0.87366 0.25893 0.0
C488 C 0.39975 0.23994 0.52272 0.0
C489 C 0.41066 0.21308 0.55242 0.0
C490 C 0.35307 0.22759 0.49975 0.0
C491 C 0.31729 0.18604 0.5062 0.0
C492 C 0.33093 0.15518 0.53484 0.0
C493 C 0.37702 0.16973 0.55794 0.0
C494 C 0.3398 0.26222 0.46978 0.0
C495 C 0.29523 0.10901 0.542 0.0
C496 C 0.17132 0.21836 0.46785 0.0
C497 C 0.16722 0.1941 0.43762 0.0
C498 C 0.21881 0.2129 0.49139 0.0
C499 C 0.26261 0.18083 0.48497 0.0
C500 C 0.25613 0.15108 0.45599 0.0
C501 C 0.20877 0.15876 0.43237 0.0
C502 C 0.22404 0.24592 0.52179 0.0
C503 C 0.30074 0.11432 0.44892 0.0
H504 H 0.42548 0.27353 0.51826 0.0
H505 H 0.38558 0.14845 0.58076 0.0
H506 H 0.33209 0.23612 0.44814 0.0
H507 H 0.30199 0.28595 0.46997 0.0
H508 H 0.37313 0.29118 0.4677 0.0
H509 H 0.31773 0.08122 0.56068 0.0
H510 H 0.25968 0.12574 0.55089 0.0
H511 H 0.27934 0.08511 0.52004 0.0
H512 H 0.13934 0.2455 0.47229 0.0
H513 H 0.20557 0.13923 0.40923 0.0
H514 H 0.2552 0.27821 0.52191 0.0
H515 H 0.23794 0.21982 0.54313 0.0
H516 H 0.18494 0.26563 0.52413 0.0
H517 H 0.33288 0.1393 0.44118 0.0
H518 H 0.28492 0.08498 0.42948 0.0
H519 H 0.32013 0.09131 0.47069 0.0
C520 C 0.79921 0.77855 0.58829 0.0
C521 C 0.85541 0.78896 0.59257 0.0
C522 C 0.76508 0.78462 0.55822 0.0
C523 C 0.78753 0.8027 0.53194 0.0
C524 C 0.84254 0.82043 0.53713 0.0
C525 C 0.87623 0.8128 0.56744 0.0
C526 C 0.70662 0.7654 0.55392 0.0
C527 C 0.8671 0.8426 0.51 0.0
C528 C 0.73122 0.72339 0.457 0.0
C529 C 0.68885 0.75718 0.44153 0.0
C530 C 0.76513 0.73911 0.48566 0.0
C531 C 0.75752 0.7907 0.49894 0.0
C532 C 0.71721 0.82669 0.48238 0.0
C533 C 0.68262 0.80912 0.45401 0.0
C534 C 0.807 0.69889 0.50264 0.0
C535 C 0.70898 0.88273 0.49511 0.0
H536 H 0.78245 0.76149 0.60785 0.0
H537 H 0.91941 0.82203 0.57072 0.0
H538 H 0.67852 0.79539 0.53979 0.0
H539 H 0.7021 0.72645 0.54044 0.0
H540 H 0.6938 0.75862 0.57722 0.0
H541 H 0.87783 0.80832 0.49542 0.0
H542 H 0.83743 0.86901 0.494 0.0
H543 H 0.90483 0.8663 0.51906 0.0
H544 H 0.73656 0.68326 0.44749 0.0
H545 H 0.65033 0.8357 0.44194 0.0
H546 H 0.79728 0.6877 0.52622 0.0
H547 H 0.84824 0.71749 0.50723 0.0
H548 H 0.80849 0.66097 0.48863 0.0
H549 H 0.68152 0.87992 0.51266 0.0
H550 H 0.68971 0.91068 0.47555 0.0
H551 H 0.74822 0.90067 0.50751 0.0
C552 C 0.85623 0.70824 0.05726 0.0
C553 C 0.86392 0.68206 0.08718 0.0
C554 C 0.80741 0.70235 0.0349 0.0
C555 C 0.7659 0.66793 0.04214 0.0
C556 C 0.77589 0.63664 0.07072 0.0
C557 C 0.82454 0.64473 0.09322 0.0
C558 C 0.79846 0.73701 1.00487 0.0
C559 C 0.73384 0.59745 0.07859 0.0
C560 C 0.62692 0.7252 1.0069 0.0
C561 C 0.61684 0.7012 0.97644 0.0
C562 C 0.6736 0.71163 0.02964 0.0
C563 C 0.7101 0.67172 0.02209 0.0
C564 C 0.6966 0.64271 0.99289 0.0
C565 C 0.65052 0.65847 0.97009 0.0
C566 C 0.68658 0.74411 0.06033 0.0
C567 C 0.73293 0.59799 0.98464 0.0
H568 H 0.88654 0.73685 0.05221 0.0
H569 H 0.83051 0.62372 0.1161 0.0
H570 H 0.78513 0.71142 0.98333 0.0
H571 H 0.76558 0.76713 1.00571 0.0
H572 H 0.83587 0.75947 1.00203 0.0
H573 H 0.75265 0.5667 0.09663 0.0
H574 H 0.70274 0.62027 0.08867 0.0
H575 H 0.7125 0.57606 0.05675 0.0
H576 H 0.60102 0.75814 1.01206 0.0
H577 H 0.64247 0.63923 0.94672 0.0
H578 H 0.72282 0.77014 0.06 0.0
H579 H 0.69674 0.71659 0.08135 0.0
H580 H 0.65211 0.77077 0.06361 0.0
H581 H 0.76768 0.61623 0.97559 0.0
H582 H 0.71049 0.57081 0.96571 0.0
H583 H 0.74998 0.57317 1.00613 0.0
C584 C 0.34113 0.23596 0.04761 0.0
C585 C 0.36775 0.27081 0.07167 0.0
C586 C 0.30561 0.25625 0.02059 0.0
C587 C 0.29576 0.31303 0.01763 0.0
C588 C 0.32392 0.34883 0.04131 0.0
C589 C 0.36002 0.32723 0.0681 0.0
C590 C 0.2773 0.21649 0.9957 0.0
C591 C 0.31427 0.4095 0.03905 0.0
C592 C 0.22622 0.34379 0.93254 0.0
C593 C 0.17153 0.33432 0.93453 0.0
C594 C 0.2675 0.34303 0.9602 0.0
C595 C 0.2535 0.33315 0.99042 0.0
C596 C 0.19778 0.33068 0.99286 0.0
C597 C 0.15742 0.33099 0.96483 0.0
C598 C 0.32633 0.34637 0.95653 0.0
C599 C 0.18095 0.3214 0.02469 0.0
H600 H 0.34761 0.19234 0.05007 0.0
H601 H 0.3805 0.35423 0.08675 0.0
H602 H 0.23263 0.21737 0.99494 0.0
H603 H 0.28405 0.22826 0.97155 0.0
H604 H 0.29196 0.17402 1.00073 0.0
H605 H 0.34517 0.43223 0.05645 0.0
H606 H 0.31493 0.42456 1.0145 0.0
H607 H 0.27326 0.41869 0.0441 0.0
H608 H 0.23753 0.34685 0.90924 0.0
H609 H 0.11512 0.3246 0.96657 0.0
H610 H 0.34366 0.30463 0.95729 0.0
H611 H 0.35112 0.36986 0.97642 0.0
H612 H 0.33022 0.36549 0.93336 0.0
H613 H 0.18802 0.27806 0.03182 0.0
H614 H 0.13704 0.33078 0.02346 0.0
H615 H 0.20573 0.34673 0.04368 0.0
loop_
_geom_bond_atom_site_label_1
_geom_bond_atom_site_label_2
_geom_bond_distance
_geom_bond_site_symmetry_2
_ccdc_geom_bond_type
Mg0 O7 2.141 1_455 S
Mg0 O8 2.048 . S
Mg0 O9 2.048 . S
Mg0 O12 2.141 . S
C1 O2 1.313 . S
C1 O8 1.195 . S
O2 C1 1.313 . S
C3 O4 1.245 . S
C3 O12 1.289 1_655 S
O4 C3 1.245 . S
C5 O6 1.245 . S
C5 O7 1.289 . S
O6 C5 1.245 . S
O7 Mg0 2.141 1_655 S
O7 C5 1.289 . S
O8 Mg0 2.048 . S
O8 C1 1.195 . S
O9 Mg0 2.048 . S
O9 C10 1.195 . S
C10 O9 1.195 . S
C10 O11 1.313 . S
O11 C10 1.313 . S
O12 Mg0 2.141 . S
O12 C3 1.289 1_455 S
Mg13 O20 2.141 . S
Mg13 O21 2.048 . S
Mg13 O22 2.048 . S
Mg13 O25 2.141 . S
C14 O15 1.313 . S
C14 O21 1.195 . S
O15 C14 1.313 . S
C16 O17 1.245 . S
C16 O25 1.289 . S
O17 C16 1.245 . S
C18 O19 1.245 . S
C18 O20 1.289 . S
O19 C18 1.245 . S
O20 Mg13 2.141 . S
O20 C18 1.289 . S
O21 Mg13 2.048 . S
O21 C14 1.195 . S
O22 Mg13 2.048 . S
O22 C23 1.195 . S
C23 O22 1.195 . S
C23 O24 1.313 . S
O24 C23 1.313 . S
O25 Mg13 2.141 . S
O25 C16 1.289 . S
Mg26 O33 2.141 1_655 S
Mg26 O34 2.048 . S
Mg26 O35 2.048 . S
Mg26 O38 2.141 1_655 S
C27 O28 1.313 . S
C27 O34 1.195 . S
O28 C27 1.313 . S
C29 O30 1.245 1_455 S
C29 O38 1.289 . S
O30 C29 1.245 1_655 S
C31 O32 1.245 . S
C31 O33 1.289 . S
O32 C31 1.245 . S
O33 Mg26 2.141 1_455 S
O33 C31 1.289 . S
O34 Mg26 2.048 . S
O34 C27 1.195 . S
O35 Mg26 2.048 . S
O35 C36 1.195 . S
C36 O35 1.195 . S
C36 O37 1.313 . S
O37 C36 1.313 . S
O38 Mg26 2.141 1_455 S
O38 C29 1.289 . S
Mg39 O46 2.141 . S
Mg39 O47 2.048 . S
Mg39 O48 2.048 . S
Mg39 O51 2.141 . S
C40 O41 1.313 . S
C40 O47 1.195 . S
O41 C40 1.313 . S
C42 O43 1.245 . S
C42 O51 1.289 . S
O43 C42 1.245 . S
C44 O45 1.245 . S
C44 O46 1.289 . S
O45 C44 1.245 . S
O46 Mg39 2.141 . S
O46 C44 1.289 . S
O47 Mg39 2.048 . S
O47 C40 1.195 . S
O48 Mg39 2.048 . S
O48 C49 1.195 . S
C49 O48 1.195 . S
C49 O50 1.313 . S
O50 C49 1.313 . S
O51 Mg39 2.141 . S
O51 C42 1.289 . S
Mg52 O59 2.141 . S
Mg52 O60 2.048 . S
Mg52 O61 2.048 . S
Mg52 O64 2.141 . S
C53 O54 1.313 . S
C53 O60 1.195 . S
O54 C53 1.313 . S
C55 O56 1.245 . S
C55 O64 1.289 . S
O56 C55 1.245 . S
C57 O58 1.245 . S
C57 O59 1.289 . S
O58 C57 1.245 . S
O59 Mg52 2.141 . S
O59 C57 1.289 . S
O60 Mg52 2.048 . S
O60 C53 1.195 . S
O61 Mg52 2.048 . S
O61 C62 1.195 . S
C62 O61 1.195 . S
C62 O63 1.313 . S
O63 C62 1.313 . S
O64 Mg52 2.141 . S
O64 C55 1.289 . S
Mg65 O72 2.141 1_655 S
Mg65 O73 2.048 . S
Mg65 O74 2.048 . S
Mg65 O77 2.141 . S
C66 O67 1.313 . S
C66 O73 1.195 . S
O67 C66 1.313 . S
C68 O69 1.245 . S
C68 O77 1.289 1_455 S
O69 C68 1.245 . S
C70 O71 1.245 . S
C70 O72 1.289 . S
O71 C70 1.245 . S
O72 Mg65 2.141 1_455 S
O72 C70 1.289 . S
O73 Mg65 2.048 . S
O73 C66 1.195 . S
O74 Mg65 2.048 . S
O74 C75 1.195 . S
C75 O74 1.195 . S
C75 O76 1.313 . S
O76 C75 1.313 . S
O77 Mg65 2.141 . S
O77 C68 1.289 1_655 S
Mg78 O85 2.141 . S
Mg78 O86 2.048 . S
Mg78 O87 2.048 . S
Mg78 O90 2.141 . S
C79 O80 1.313 . S
C79 O86 1.195 . S
O80 C79 1.313 . S
C81 O82 1.245 . S
C81 O90 1.289 . S
O82 C81 1.245 . S
C83 O84 1.245 . S
C83 O85 1.289 . S
O84 C83 1.245 . S
O85 Mg78 2.141 . S
O85 C83 1.289 . S
O86 Mg78 2.048 . S
O86 C79 1.195 . S
O87 Mg78 2.048 . S
O87 C88 1.195 . S
C88 O87 1.195 . S
C88 O89 1.313 . S
O89 C88 1.313 . S
O90 Mg78 2.141 . S
O90 C81 1.289 . S
Mg91 O98 2.141 1_455 S
Mg91 O99 2.048 . S
Mg91 O100 2.048 . S
Mg91 O103 2.142 1_455 S
C92 O93 1.313 . S
C92 O99 1.195 . S
O93 C92 1.313 . S
C94 O95 1.245 1_655 S
C94 O103 1.289 . S
O95 C94 1.245 1_455 S
C96 O97 1.245 . S
C96 O98 1.289 . S
O97 C96 1.245 . S
O98 Mg91 2.141 1_655 S
O98 C96 1.289 . S
O99 Mg91 2.048 . S
O99 C92 1.195 . S
O100 Mg91 2.048 . S
O100 C101 1.195 . S
C101 O100 1.195 . S
C101 O102 1.313 . S
O102 C101 1.313 . S
O103 Mg91 2.142 1_655 S
O103 C94 1.289 . S
C104 C105 1.391 1_455 S
C104 C106 1.394 . S
C104 H120 0.931 . S
C105 C104 1.391 1_655 S
C105 C109 1.376 . S
C106 C104 1.394 . S
C106 C107 1.369 1_455 S
C106 C110 1.531 . S
C107 C106 1.369 1_655 S
C107 C108 1.410 . S
C107 C115 1.503 . S
C108 C107 1.410 . S
C108 C109 1.392 . S
C108 C111 1.511 . S
C109 C105 1.376 . S
C109 C108 1.392 . S
C109 H121 0.929 . S
C110 C106 1.531 . S
C110 H122 0.960 . S
C110 H123 0.962 . S
C110 H124 0.960 . S
C111 C108 1.511 . S
C111 H125 0.961 . S
C111 H126 0.961 . S
C111 H127 0.961 . S
C112 C113 1.370 . S
C112 C114 1.363 . S
C112 H128 0.931 . S
C113 C112 1.370 . S
C113 C117 1.408 1_455 S
C114 C112 1.363 . S
C114 C115 1.367 1_455 S
C114 C118 1.524 . S
C115 C107 1.503 . S
C115 C114 1.367 1_655 S
C115 C116 1.406 . S
C116 C115 1.406 . S
C116 C117 1.404 . S
C116 C119 1.539 . S
C117 C113 1.408 1_655 S
C117 C116 1.404 . S
C117 H129 0.930 . S
C118 C114 1.524 . S
C118 H130 0.956 . S
C118 H131 0.961 . S
C118 H132 0.961 . S
C119 C116 1.539 . S
C119 H133 0.958 . S
C119 H134 0.961 . S
C119 H135 0.960 . S
H120 C104 0.931 . S
H121 C109 0.929 . S
H122 C110 0.960 . S
H123 C110 0.962 . S
H124 C110 0.960 . S
H125 C111 0.961 . S
H126 C111 0.961 . S
H127 C111 0.961 . S
H128 C112 0.931 . S
H129 C117 0.930 . S
H130 C118 0.956 . S
H131 C118 0.961 . S
H132 C118 0.961 . S
H133 C119 0.958 . S
H134 C119 0.961 . S
H135 C119 0.960 . S
C136 C137 1.391 . S
C136 C138 1.394 . S
C136 H152 0.931 . S
C137 C136 1.391 . S
C137 C141 1.376 . S
C138 C136 1.394 . S
C138 C139 1.369 . S
C138 C142 1.531 . S
C139 C138 1.369 . S
C139 C140 1.410 . S
C139 C147 1.503 . S
C140 C139 1.410 . S
C140 C141 1.392 . S
C140 C143 1.511 . S
C141 C137 1.376 . S
C141 C140 1.392 . S
C141 H153 0.929 . S
C142 C138 1.531 . S
C142 H154 0.960 . S
C142 H155 0.962 . S
C142 H156 0.960 . S
C143 C140 1.511 . S
C143 H157 0.961 . S
C143 H158 0.961 . S
C143 H159 0.961 . S
C144 C145 1.370 . S
C144 C146 1.363 . S
C144 H160 0.931 . S
C145 C144 1.370 . S
C145 C149 1.408 . S
C146 C144 1.363 . S
C146 C147 1.370 . S
C146 C150 1.524 . S
C147 C139 1.503 . S
C147 C146 1.370 . S
C147 C148 1.403 . S
C148 C147 1.403 . S
C148 C149 1.404 . S
C148 C151 1.539 . S
C149 C145 1.408 . S
C149 C148 1.404 . S
C149 H161 0.930 . S
C150 C146 1.524 . S
C150 H162 0.956 . S
C150 H163 0.961 . S
C150 H164 0.961 . S
C151 C148 1.539 . S
C151 H165 0.958 . S
C151 H166 0.961 . S
C151 H167 0.960 . S
H152 C136 0.931 . S
H153 C141 0.929 . S
H154 C142 0.960 . S
H155 C142 0.962 . S
H156 C142 0.960 . S
H157 C143 0.961 . S
H158 C143 0.961 . S
H159 C143 0.961 . S
H160 C144 0.931 . S
H161 C149 0.930 . S
H162 C150 0.956 . S
H163 C150 0.961 . S
H164 C150 0.961 . S
H165 C151 0.958 . S
H166 C151 0.961 . S
H167 C151 0.960 . S
C168 C169 1.391 . S
C168 C170 1.394 . S
C168 H184 0.931 . S
C169 C168 1.391 . S
C169 C173 1.376 . S
C170 C168 1.394 . S
C170 C171 1.369 . S
C170 C174 1.531 1_545 S
C171 C170 1.369 . S
C171 C172 1.418 . S
C171 C179 1.503 1_544 S
C172 C171 1.418 . S
C172 C173 1.409 . S
C172 C175 1.488 1_554 S
C173 C169 1.376 . S
C173 C172 1.409 . S
C173 H185 0.929 . S
C174 C170 1.531 1_565 S
C174 H186 0.960 . S
C174 H187 0.962 . S
C174 H188 0.960 . S
C175 C172 1.488 1_556 S
C175 H189 0.961 . S
C175 H190 0.961 . S
C175 H191 0.961 . S
C176 C177 1.370 . S
C176 C178 1.363 . S
C176 H192 0.931 . S
C177 C176 1.370 . S
C177 C181 1.408 . S
C178 C176 1.363 . S
C178 C179 1.370 . S
C178 C182 1.524 1_556 S
C179 C171 1.503 1_566 S
C179 C178 1.370 . S
C179 C180 1.403 . S
C180 C179 1.403 . S
C180 C181 1.404 . S
C180 C183 1.539 1_565 S
C181 C177 1.408 . S
C181 C180 1.404 . S
C181 H193 0.930 . S
C182 C178 1.524 1_554 S
C182 H194 0.956 . S
C182 H195 0.961 . S
C182 H196 0.961 . S
C183 C180 1.539 1_545 S
C183 H197 0.958 . S
C183 H198 0.961 . S
C183 H199 0.960 . S
H184 C168 0.931 . S
H185 C173 0.929 . S
H186 C174 0.960 . S
H187 C174 0.962 . S
H188 C174 0.960 . S
H189 C175 0.961 . S
H190 C175 0.961 . S
H191 C175 0.961 . S
H192 C176 0.931 . S
H193 C181 0.930 . S
H194 C182 0.956 . S
H195 C182 0.961 . S
H196 C182 0.961 . S
H197 C183 0.958 . S
H198 C183 0.961 . S
H199 C183 0.960 . S
C200 C201 1.398 . S
C200 C202 1.397 1_455 S
C200 H216 0.922 1_455 S
C201 C200 1.398 . S
C201 C205 1.376 . S
C202 C200 1.397 1_655 S
C202 C203 1.362 1_655 S
C202 C206 1.536 1_565 S
C203 C202 1.362 1_455 S
C203 C204 1.410 . S
C203 C211 1.503 1_564 S
C204 C203 1.410 . S
C204 C205 1.392 . S
C204 C207 1.511 1_554 S
C205 C201 1.376 . S
C205 C204 1.392 . S
C205 H217 0.929 . S
C206 C202 1.536 1_545 S
C206 H218 0.960 . S
C206 H219 0.962 . S
C206 H220 0.960 . S
C207 C204 1.511 1_556 S
C207 H221 0.961 . S
C207 H222 0.961 . S
C207 H223 0.961 . S
C208 C209 1.370 . S
C208 C210 1.363 . S
C208 H224 0.931 . S
C209 C208 1.370 . S
C209 C213 1.408 1_655 S
C210 C208 1.363 . S
C210 C211 1.370 1_655 S
C210 C214 1.524 1_545 S
C211 C203 1.503 1_546 S
C211 C210 1.370 1_455 S
C211 C212 1.403 . S
C212 C211 1.403 . S
C212 C213 1.404 . S
C212 C215 1.539 1_556 S
C213 C209 1.408 1_455 S
C213 C212 1.404 . S
C213 H225 0.930 . S
C214 C210 1.524 1_565 S
C214 H226 0.956 . S
C214 H227 0.961 . S
C214 H228 0.958 1_565 S
C215 C212 1.539 1_554 S
C215 H229 0.958 . S
C215 H230 0.961 . S
C215 H231 0.960 . S
H216 C200 0.922 1_655 S
H217 C205 0.929 . S
H218 C206 0.960 . S
H219 C206 0.962 . S
H220 C206 0.960 . S
H221 C207 0.961 . S
H222 C207 0.961 . S
H223 C207 0.961 . S
H224 C208 0.931 . S
H225 C213 0.930 . S
H226 C214 0.956 . S
H227 C214 0.961 . S
H228 C214 0.958 1_545 S
H229 C215 0.958 . S
H230 C215 0.961 . S
H231 C215 0.960 . S
C232 C233 1.391 . S
C232 C234 1.394 . S
C232 H248 0.931 . S
C233 C232 1.391 . S
C233 C237 1.376 . S
C234 C232 1.394 . S
C234 C235 1.369 . S
C234 C238 1.531 . S
C235 C234 1.369 . S
C235 C236 1.410 . S
C235 C243 1.503 . S
C236 C235 1.410 . S
C236 C237 1.392 . S
C236 C239 1.511 . S
C237 C233 1.376 . S
C237 C236 1.392 . S
C237 H249 0.929 . S
C238 C234 1.531 . S
C238 H250 0.960 . S
C238 H251 0.962 . S
C238 H252 0.960 . S
C239 C236 1.511 . S
C239 H253 0.961 . S
C239 H254 0.961 . S
C239 H255 0.961 . S
C240 C241 1.370 . S
C240 C242 1.363 . S
C240 H256 0.931 . S
C241 C240 1.370 . S
C241 C245 1.408 . S
C242 C240 1.363 . S
C242 C243 1.370 . S
C242 C246 1.524 . S
C243 C235 1.503 . S
C243 C242 1.370 . S
C243 C244 1.403 . S
C244 C243 1.403 . S
C244 C245 1.404 . S
C244 C247 1.539 . S
C245 C241 1.408 . S
C245 C244 1.404 . S
C245 H257 0.930 . S
C246 C242 1.524 . S
C246 H258 0.956 . S
C246 H259 0.961 . S
C246 H260 0.961 . S
C247 C244 1.539 . S
C247 H261 0.958 . S
C247 H262 0.961 . S
C247 H263 0.960 . S
H248 C232 0.931 . S
H249 C237 0.929 . S
H250 C238 0.960 . S
H251 C238 0.962 . S
H252 C238 0.960 . S
H253 C239 0.961 . S
H254 C239 0.961 . S
H255 C239 0.961 . S
H256 C240 0.931 . S
H257 C245 0.930 . S
H258 C246 0.956 . S
H259 C246 0.961 . S
H260 C246 0.961 . S
H261 C247 0.958 . S
H262 C247 0.961 . S
H263 C247 0.960 . S
C264 C265 1.391 . S
C264 C266 1.394 . S
C264 H280 0.931 . S
C265 C264 1.391 . S
C265 C269 1.376 . S
C266 C264 1.394 . S
C266 C267 1.369 . S
C266 C270 1.531 . S
C267 C266 1.369 . S
C267 C268 1.410 . S
C267 C275 1.503 . S
C268 C267 1.410 . S
C268 C269 1.392 . S
C268 C271 1.511 . S
C269 C265 1.376 . S
C269 C268 1.392 . S
C269 H281 0.929 . S
C270 C266 1.531 . S
C270 H282 0.960 . S
C270 H283 0.962 . S
C270 H284 0.960 . S
C271 C268 1.511 . S
C271 H285 0.961 . S
C271 H286 0.961 . S
C271 H287 0.961 . S
C272 C273 1.370 . S
C272 C274 1.363 . S
C272 H288 0.931 . S
C273 C272 1.370 . S
C273 C277 1.408 . S
C274 C272 1.363 . S
C274 C275 1.370 . S
C274 C278 1.524 . S
C275 C267 1.503 . S
C275 C274 1.370 . S
C275 C276 1.403 . S
C276 C275 1.403 . S
C276 C277 1.404 . S
C276 C279 1.539 . S
C277 C273 1.408 . S
C277 C276 1.404 . S
C277 H289 0.930 . S
C278 C274 1.524 . S
C278 H290 0.956 . S
C278 H291 0.961 . S
C278 H292 0.961 . S
C279 C276 1.539 . S
C279 H293 0.958 . S
C279 H294 0.961 . S
C279 H295 0.960 . S
H280 C264 0.931 . S
H281 C269 0.929 . S
H282 C270 0.960 . S
H283 C270 0.962 . S
H284 C270 0.960 . S
H285 C271 0.961 . S
H286 C271 0.961 . S
H287 C271 0.961 . S
H288 C272 0.931 . S
H289 C277 0.930 . S
H290 C278 0.956 . S
H291 C278 0.961 . S
H292 C278 0.961 . S
H293 C279 0.958 . S
H294 C279 0.961 . S
H295 C279 0.960 . S
C296 C297 1.391 . S
C296 C298 1.394 . S
C296 H312 0.931 . S
C297 C296 1.391 . S
C297 C301 1.376 . S
C298 C296 1.394 . S
C298 C299 1.369 . S
C298 C302 1.531 . S
C299 C298 1.369 . S
C299 C300 1.410 . S
C299 C307 1.503 . S
C300 C299 1.410 . S
C300 C301 1.392 . S
C300 C303 1.511 . S
C301 C297 1.376 . S
C301 C300 1.392 . S
C301 H313 0.929 . S
C302 C298 1.531 . S
C302 H314 0.960 . S
C302 H315 0.962 . S
C302 H316 0.960 . S
C303 C300 1.511 . S
C303 H317 0.961 . S
C303 H318 0.961 . S
C303 H319 0.961 . S
C304 C305 1.370 . S
C304 C306 1.363 . S
C304 H320 0.931 . S
C305 C304 1.370 . S
C305 C309 1.408 . S
C306 C304 1.363 . S
C306 C307 1.370 . S
C306 C310 1.524 . S
C307 C299 1.503 . S
C307 C306 1.370 . S
C307 C308 1.403 . S
C308 C307 1.403 . S
C308 C309 1.404 . S
C308 C311 1.539 . S
C309 C305 1.408 . S
C309 C308 1.404 . S
C309 H321 0.930 . S
C310 C306 1.524 . S
C310 H322 0.956 . S
C310 H323 0.961 . S
C310 H324 0.961 . S
C311 C308 1.539 . S
C311 H325 0.958 . S
C311 H326 0.961 . S
C311 H327 0.960 . S
H312 C296 0.931 . S
H313 C301 0.929 . S
H314 C302 0.960 . S
H315 C302 0.962 . S
H316 C302 0.960 . S
H317 C303 0.961 . S
H318 C303 0.961 . S
H319 C303 0.961 . S
H320 C304 0.931 . S
H321 C309 0.930 . S
H322 C310 0.956 . S
H323 C310 0.961 . S
H324 C310 0.961 . S
H325 C311 0.958 . S
H326 C311 0.961 . S
H327 C311 0.960 . S
C328 C329 1.391 . S
C328 C330 1.394 . S
C328 H344 0.931 . S
C329 C328 1.391 . S
C329 C333 1.376 . S
C330 C328 1.394 . S
C330 C331 1.369 . S
C330 C334 1.531 . S
C331 C330 1.369 . S
C331 C332 1.410 . S
C331 C339 1.503 . S
C332 C331 1.410 . S
C332 C333 1.392 . S
C332 C335 1.511 . S
C333 C329 1.376 . S
C333 C332 1.392 . S
C333 H345 0.929 . S
C334 C330 1.531 . S
C334 H346 0.960 . S
C334 H347 0.962 . S
C334 H348 0.960 . S
C335 C332 1.511 . S
C335 H349 0.961 . S
C335 H350 0.961 . S
C335 H351 0.961 . S
C336 C337 1.370 . S
C336 C338 1.363 . S
C336 H352 0.931 . S
C337 C336 1.370 . S
C337 C341 1.408 . S
C338 C336 1.363 . S
C338 C339 1.370 . S
C338 C342 1.524 . S
C339 C331 1.503 . S
C339 C338 1.370 . S
C339 C340 1.403 . S
C340 C339 1.403 . S
C340 C341 1.404 . S
C340 C343 1.539 . S
C341 C337 1.408 . S
C341 C340 1.404 . S
C341 H353 0.930 . S
C342 C338 1.524 . S
C342 H354 0.956 . S
C342 H355 0.961 . S
C342 H356 0.961 . S
C343 C340 1.539 . S
C343 H357 0.958 . S
C343 H358 0.961 . S
C343 H359 0.960 . S
H344 C328 0.931 . S
H345 C333 0.929 . S
H346 C334 0.960 . S
H347 C334 0.962 . S
H348 C334 0.960 . S
H349 C335 0.961 . S
H350 C335 0.961 . S
H351 C335 0.961 . S
H352 C336 0.931 . S
H353 C341 0.930 . S
H354 C342 0.956 . S
H355 C342 0.961 . S
H356 C342 0.961 . S
H357 C343 0.958 . S
H358 C343 0.961 . S
H359 C343 0.960 . S
C360 C361 1.391 . S
C360 C362 1.394 . S
C360 H376 0.931 . S
C361 C360 1.391 . S
C361 C365 1.376 . S
C362 C360 1.394 . S
C362 C363 1.369 . S
C362 C366 1.531 . S
C363 C362 1.369 . S
C363 C364 1.410 . S
C363 C371 1.503 . S
C364 C363 1.410 . S
C364 C365 1.392 . S
C364 C367 1.511 . S
C365 C361 1.376 . S
C365 C364 1.392 . S
C365 H377 0.929 . S
C366 C362 1.531 . S
C366 H378 0.960 . S
C366 H379 0.962 . S
C366 H380 0.960 . S
C367 C364 1.511 . S
C367 H381 0.961 . S
C367 H382 0.961 . S
C367 H383 0.961 . S
C368 C369 1.370 . S
C368 C370 1.363 . S
C368 H384 0.931 . S
C369 C368 1.370 . S
C369 C373 1.408 . S
C370 C368 1.363 . S
C370 C371 1.370 . S
C370 C374 1.524 . S
C371 C363 1.503 . S
C371 C370 1.370 . S
C371 C372 1.403 . S
C372 C371 1.403 . S
C372 C373 1.404 . S
C372 C375 1.539 . S
C373 C369 1.408 . S
C373 C372 1.404 . S
C373 H385 0.930 . S
C374 C370 1.524 . S
C374 H386 0.956 . S
C374 H387 0.961 . S
C374 H388 0.961 . S
C375 C372 1.539 . S
C375 H389 0.958 . S
C375 H390 0.961 . S
C375 H391 0.960 . S
H376 C360 0.931 . S
H377 C365 0.929 . S
H378 C366 0.960 . S
H379 C366 0.962 . S
H380 C366 0.960 . S
H381 C367 0.961 . S
H382 C367 0.961 . S
H383 C367 0.961 . S
H384 C368 0.931 . S
H385 C373 0.930 . S
H386 C374 0.956 . S
H387 C374 0.961 . S
H388 C374 0.961 . S
H389 C375 0.958 . S
H390 C375 0.961 . S
H391 C375 0.960 . S
C392 C393 1.391 . S
C392 C394 1.394 . S
C392 H408 0.931 . S
C393 C392 1.391 . S
C393 C397 1.376 . S
C394 C392 1.394 . S
C394 C395 1.369 . S
C394 C398 1.531 . S
C395 C394 1.369 . S
C395 C396 1.410 . S
C395 C403 1.503 . S
C396 C395 1.410 . S
C396 C397 1.392 . S
C396 C399 1.511 . S
C397 C393 1.376 . S
C397 C396 1.392 . S
C397 H409 0.929 . S
C398 C394 1.531 . S
C398 H410 0.960 . S
C398 H411 0.962 . S
C398 H412 0.960 . S
C399 C396 1.511 . S
C399 H413 0.961 . S
C399 H414 0.961 . S
C399 H415 0.961 . S
C400 C401 1.370 . S
C400 C402 1.363 . S
C400 H416 0.931 . S
C401 C400 1.370 . S
C401 C405 1.408 . S
C402 C400 1.363 . S
C402 C403 1.370 . S
C402 C406 1.524 . S
C403 C395 1.503 . S
C403 C402 1.370 . S
C403 C404 1.403 . S
C404 C403 1.403 . S
C404 C405 1.404 . S
C404 C407 1.539 . S
C405 C401 1.408 . S
C405 C404 1.404 . S
C405 H417 0.930 . S
C406 C402 1.524 . S
C406 H418 0.956 . S
C406 H419 0.961 . S
C406 H420 0.961 . S
C407 C404 1.539 . S
C407 H421 0.958 . S
C407 H422 0.961 . S
C407 H423 0.960 . S
H408 C392 0.931 . S
H409 C397 0.929 . S
H410 C398 0.960 . S
H411 C398 0.962 . S
H412 C398 0.960 . S
H413 C399 0.961 . S
H414 C399 0.961 . S
H415 C399 0.961 . S
H416 C400 0.931 . S
H417 C405 0.930 . S
H418 C406 0.956 . S
H419 C406 0.961 . S
H420 C406 0.961 . S
H421 C407 0.958 . S
H422 C407 0.961 . S
H423 C407 0.960 . S
C424 C425 1.391 . S
C424 C426 1.394 . S
C424 H440 0.931 . S
C425 C424 1.391 . S
C425 C429 1.376 . S
C426 C424 1.394 . S
C426 C427 1.369 . S
C426 C430 1.531 . S
C427 C426 1.369 . S
C427 C428 1.410 . S
C427 C435 1.503 . S
C428 C427 1.410 . S
C428 C429 1.392 . S
C428 C431 1.511 . S
C429 C425 1.376 . S
C429 C428 1.392 . S
C429 H441 0.929 . S
C430 C426 1.531 . S
C430 H442 0.960 . S
C430 H443 0.962 . S
C430 H444 0.960 . S
C431 C428 1.511 . S
C431 H445 0.961 . S
C431 H446 0.961 . S
C431 H447 0.961 . S
C432 C433 1.370 . S
C432 C434 1.363 . S
C432 H448 0.931 . S
C433 C432 1.370 . S
C433 C437 1.408 . S
C434 C432 1.363 . S
C434 C435 1.370 . S
C434 C438 1.524 . S
C435 C427 1.503 . S
C435 C434 1.370 . S
C435 C436 1.403 . S
C436 C435 1.403 . S
C436 C437 1.404 . S
C436 C439 1.539 . S
C437 C433 1.408 . S
C437 C436 1.404 . S
C437 H449 0.930 . S
C438 C434 1.524 . S
C438 H450 0.956 . S
C438 H451 0.961 . S
C438 H452 0.961 . S
C439 C436 1.539 . S
C439 H453 0.958 . S
C439 H454 0.961 . S
C439 H455 0.960 . S
H440 C424 0.931 . S
H441 C429 0.929 . S
H442 C430 0.960 . S
H443 C430 0.962 . S
H444 C430 0.960 . S
H445 C431 0.961 . S
H446 C431 0.961 . S
H447 C431 0.961 . S
H448 C432 0.931 . S
H449 C437 0.930 . S
H450 C438 0.956 . S
H451 C438 0.961 . S
H452 C438 0.961 . S
H453 C439 0.958 . S
H454 C439 0.961 . S
H455 C439 0.960 . S
C456 C457 1.391 . S
C456 C458 1.394 . S
C456 H472 0.931 . S
C457 C456 1.391 . S
C457 C461 1.376 . S
C458 C456 1.394 . S
C458 C459 1.369 . S
C458 C462 1.531 . S
C459 C458 1.369 . S
C459 C460 1.410 . S
C459 C467 1.503 . S
C460 C459 1.410 . S
C460 C461 1.392 . S
C460 C463 1.511 . S
C461 C457 1.376 . S
C461 C460 1.392 . S
C461 H473 0.929 . S
C462 C458 1.531 . S
C462 H474 0.960 . S
C462 H475 0.962 . S
C462 H476 0.960 . S
C463 C460 1.511 . S
C463 H477 0.961 . S
C463 H478 0.961 . S
C463 H479 0.961 . S
C464 C465 1.370 . S
C464 C466 1.363 . S
C464 H480 0.931 . S
C465 C464 1.370 . S
C465 C469 1.408 . S
C466 C464 1.363 . S
C466 C467 1.370 . S
C466 C470 1.524 . S
C467 C459 1.503 . S
C467 C466 1.370 . S
C467 C468 1.403 . S
C468 C467 1.403 . S
C468 C469 1.404 . S
C468 C471 1.539 . S
C469 C465 1.408 . S
C469 C468 1.404 . S
C469 H481 0.930 . S
C470 C466 1.524 . S
C470 H482 0.956 . S
C470 H483 0.961 . S
C470 H484 0.961 . S
C471 C468 1.539 . S
C471 H485 0.958 . S
C471 H486 0.961 . S
C471 H487 0.960 . S
H472 C456 0.931 . S
H473 C461 0.929 . S
H474 C462 0.960 . S
H475 C462 0.962 . S
H476 C462 0.960 . S
H477 C463 0.961 . S
H478 C463 0.961 . S
H479 C463 0.961 . S
H480 C464 0.931 . S
H481 C469 0.930 . S
H482 C470 0.956 . S
H483 C470 0.961 . S
H484 C470 0.961 . S
H485 C471 0.958 . S
H486 C471 0.961 . S
H487 C471 0.960 . S
C488 C489 1.391 . S
C488 C490 1.394 . S
C488 H504 0.931 . S
C489 C488 1.391 . S
C489 C493 1.376 . S
C490 C488 1.394 . S
C490 C491 1.369 . S
C490 C494 1.531 . S
C491 C490 1.369 . S
C491 C492 1.410 . S
C491 C499 1.503 . S
C492 C491 1.410 . S
C492 C493 1.392 . S
C492 C495 1.511 . S
C493 C489 1.376 . S
C493 C492 1.392 . S
C493 H505 0.929 . S
C494 C490 1.531 . S
C494 H506 0.960 . S
C494 H507 0.962 . S
C494 H508 0.960 . S
C495 C492 1.511 . S
C495 H509 0.961 . S
C495 H510 0.961 . S
C495 H511 0.961 . S
C496 C497 1.370 . S
C496 C498 1.363 . S
C496 H512 0.931 . S
C497 C496 1.370 . S
C497 C501 1.408 . S
C498 C496 1.363 . S
C498 C499 1.370 . S
C498 C502 1.524 . S
C499 C491 1.503 . S
C499 C498 1.370 . S
C499 C500 1.403 . S
C500 C499 1.403 . S
C500 C501 1.404 . S
C500 C503 1.539 . S
C501 C497 1.408 . S
C501 C500 1.404 . S
C501 H513 0.930 . S
C502 C498 1.524 . S
C502 H514 0.956 . S
C502 H515 0.961 . S
C502 H516 0.961 . S
C503 C500 1.539 . S
C503 H517 0.958 . S
C503 H518 0.961 . S
C503 H519 0.960 . S
H504 C488 0.931 . S
H505 C493 0.929 . S
H506 C494 0.960 . S
H507 C494 0.962 . S
H508 C494 0.960 . S
H509 C495 0.961 . S
H510 C495 0.961 . S
H511 C495 0.961 . S
H512 C496 0.931 . S
H513 C501 0.930 . S
H514 C502 0.956 . S
H515 C502 0.961 . S
H516 C502 0.961 . S
H517 C503 0.958 . S
H518 C503 0.961 . S
H519 C503 0.960 . S
C520 C521 1.391 . S
C520 C522 1.394 . S
C520 H536 0.931 . S
C521 C520 1.391 . S
C521 C525 1.376 . S
C522 C520 1.394 . S
C522 C523 1.369 . S
C522 C526 1.531 . S
C523 C522 1.369 . S
C523 C524 1.410 . S
C523 C531 1.503 . S
C524 C523 1.410 . S
C524 C525 1.392 . S
C524 C527 1.511 . S
C525 C521 1.376 . S
C525 C524 1.392 . S
C525 H537 0.929 . S
C526 C522 1.531 . S
C526 H538 0.960 . S
C526 H539 0.962 . S
C526 H540 0.960 . S
C527 C524 1.511 . S
C527 H541 0.961 . S
C527 H542 0.961 . S
C527 H543 0.961 . S
C528 C529 1.370 . S
C528 C530 1.363 . S
C528 H544 0.931 . S
C529 C528 1.370 . S
C529 C533 1.408 . S
C530 C528 1.363 . S
C530 C531 1.370 . S
C530 C534 1.524 . S
C531 C523 1.503 . S
C531 C530 1.370 . S
C531 C532 1.403 . S
C532 C531 1.403 . S
C532 C533 1.404 . S
C532 C535 1.539 . S
C533 C529 1.408 . S
C533 C532 1.404 . S
C533 H545 0.930 . S
C534 C530 1.524 . S
C534 H546 0.956 . S
C534 H547 0.961 . S
C534 H548 0.961 . S
C535 C532 1.539 . S
C535 H549 0.958 . S
C535 H550 0.961 . S
C535 H551 0.960 . S
H536 C520 0.931 . S
H537 C525 0.929 . S
H538 C526 0.960 . S
H539 C526 0.962 . S
H540 C526 0.960 . S
H541 C527 0.961 . S
H542 C527 0.961 . S
H543 C527 0.961 . S
H544 C528 0.931 . S
H545 C533 0.930 . S
H546 C534 0.956 . S
H547 C534 0.961 . S
H548 C534 0.961 . S
H549 C535 0.958 . S
H550 C535 0.961 . S
H551 C535 0.960 . S
C552 C553 1.391 . S
C552 C554 1.394 . S
C552 H568 0.931 . S
C553 C552 1.391 . S
C553 C557 1.376 . S
C554 C552 1.394 . S
C554 C555 1.369 . S
C554 C558 1.531 . S
C555 C554 1.369 . S
C555 C556 1.410 . S
C555 C563 1.503 1_554 S
C556 C555 1.410 . S
C556 C557 1.392 . S
C556 C559 1.494 1_554 S
C557 C553 1.376 . S
C557 C556 1.392 . S
C557 H569 0.929 . S
C558 C554 1.531 . S
C558 H570 0.960 . S
C558 H571 0.962 . S
C558 H572 0.960 . S
C559 C556 1.494 1_556 S
C559 H573 0.950 1_556 S
C559 H574 0.973 . S
C559 H575 0.978 . S
C560 C561 1.370 . S
C560 C562 1.363 . S
C560 H576 0.931 . S
C561 C560 1.370 . S
C561 C565 1.408 . S
C562 C560 1.363 . S
C562 C563 1.370 . S
C562 C566 1.524 1_556 S
C563 C555 1.503 1_556 S
C563 C562 1.370 . S
C563 C564 1.403 . S
C564 C563 1.403 . S
C564 C565 1.404 . S
C564 C567 1.539 . S
C565 C561 1.408 . S
C565 C564 1.404 . S
C565 H577 0.930 . S
C566 C562 1.524 1_554 S
C566 H578 0.956 . S
C566 H579 0.961 . S
C566 H580 0.961 . S
C567 C564 1.539 . S
C567 H581 0.958 . S
C567 H582 0.961 . S
C567 H583 0.960 . S
H568 C552 0.931 . S
H569 C557 0.929 . S
H570 C558 0.960 . S
H571 C558 0.962 . S
H572 C558 0.960 . S
H573 C559 0.950 1_554 S
H574 C559 0.973 . S
H575 C559 0.978 . S
H576 C560 0.931 . S
H577 C565 0.930 . S
H578 C566 0.956 . S
H579 C566 0.961 . S
H580 C566 0.961 . S
H581 C567 0.958 . S
H582 C567 0.961 . S
H583 C567 0.960 . S
C584 C585 1.391 . S
C584 C586 1.394 . S
C584 H600 0.931 . S
C585 C584 1.391 . S
C585 C589 1.376 . S
C586 C584 1.394 . S
C586 C587 1.369 . S
C586 C590 1.531 . S
C587 C586 1.369 . S
C587 C588 1.410 . S
C587 C595 1.503 1_554 S
C588 C587 1.410 . S
C588 C589 1.392 . S
C588 C591 1.511 . S
C589 C585 1.376 . S
C589 C588 1.392 . S
C589 H601 0.929 . S
C590 C586 1.531 . S
C590 H602 0.960 . S
C590 H603 0.962 . S
C590 H604 0.960 . S
C591 C588 1.511 . S
C591 H605 0.961 . S
C591 H606 0.961 1_554 S
C591 H607 0.961 . S
C592 C593 1.370 . S
C592 C594 1.363 . S
C592 H608 0.931 . S
C593 C592 1.370 . S
C593 C597 1.408 . S
C594 C592 1.363 . S
C594 C595 1.370 . S
C594 C598 1.524 . S
C595 C587 1.503 1_556 S
C595 C594 1.370 . S
C595 C596 1.403 . S
C596 C595 1.403 . S
C596 C597 1.404 . S
C596 C599 1.539 1_556 S
C597 C593 1.408 . S
C597 C596 1.404 . S
C597 H609 0.930 . S
C598 C594 1.524 . S
C598 H610 0.956 . S
C598 H611 0.961 . S
C598 H612 0.961 . S
C599 C596 1.539 1_554 S
C599 H613 0.958 . S
C599 H614 0.961 . S
C599 H615 0.960 . S
H600 C584 0.931 . S
H601 C589 0.929 . S
H602 C590 0.960 . S
H603 C590 0.962 . S
H604 C590 0.960 . S
H605 C591 0.961 . S
H606 C591 0.961 1_556 S
H607 C591 0.961 . S
H608 C592 0.931 . S
H609 C597 0.930 . S
H610 C598 0.956 . S
H611 C598 0.961 . S
H612 C598 0.961 . S
H613 C599 0.958 . S
H614 C599 0.961 . S
H615 C599 0.960 . S
C105 C3 1.941 . S
C113 C29 1.825 . S
C137 C42 1.779 . S
C145 C16 1.953 . S
C169 C81 1.813 . S
C177 C55 1.948 . S
C201 C68 1.956 . S
C209 C94 1.813 . S
C233 C83 2.028 . S
C241 C5 1.993 . S
C265 C18 2.007 . S
C273 C96 2.038 . S
C297 C31 2.037 . S
C305 C57 1.996 . S
C329 C44 2.035 . S
C337 C70 1.985 . S
C361 C79 2.191 . S
C369 C1 2.262 . S
C393 C14 2.246 . S
C401 C92 2.178 . S
C425 C53 2.268 . S
C433 C27 2.160 . S
C457 C66 2.263 . S
C465 C40 2.172 . S
C489 C23 0.529 . S
C497 C10 0.518 . S
C521 C36 0.533 . S
C529 C49 0.538 . S
C553 C75 0.506 . S
C561 C62 0.569 . S
C585 C88 0.566 . S
C593 C101 0.506 . S
