# Generated by pormake.
# Topology upb, (4)-cn, num edge types: 1
# Building blocks:
#     Node 0, Type 0, BuildingBlock: QUQFOY_clean_sbu_1, # of connection points: 4
#     Node 1, Type 0, BuildingBlock: QUQFOY_clean_sbu_1, # of connection points: 4
#     Node 2, Type 0, BuildingBlock: QUQFOY_clean_sbu_1, # of connection points: 4
#     Node 3, Type 0, BuildingBlock: QUQFOY_clean_sbu_1, # of connection points: 4
#     Node 4, Type 0, BuildingBlock: QUQFOY_clean_sbu_1, # of connection points: 4
#     Node 5, Type 0, BuildingBlock: QUQFOY_clean_sbu_1, # of connection points: 4
#     Node 6, Type 0, BuildingBlock: QUQFOY_clean_sbu_1, # of connection points: 4
#     Node 7, Type 0, BuildingBlock: QUQFOY_clean_sbu_1, # of connection points: 4
#     Node 8, Type 0, BuildingBlock: QUQFOY_clean_sbu_1, # of connection points: 4
#     Node 9, Type 0, BuildingBlock: QUQFOY_clean_sbu_1, # of connection points: 4
#     Node 10, Type 0, BuildingBlock: QUQFOY_clean_sbu_1, # of connection points: 4
#     Node 11, Type 0, BuildingBlock: QUQFOY_clean_sbu_1, # of connection points: 4
#     Node 12, Type 0, BuildingBlock: QUQFOY_clean_sbu_1, # of connection points: 4
#     Node 13, Type 0, BuildingBlock: QUQFOY_clean_sbu_1, # of connection points: 4
#     Node 14, Type 0, BuildingBlock: QUQFOY_clean_sbu_1, # of connection points: 4
#     Node 15, Type 0, BuildingBlock: QUQFOY_clean_sbu_1, # of connection points: 4
#     Edge 16, Type (0, 0), BuildingBlock: CIFDUS_clean_linker_0, # of connection points: 2
#     Edge 17, Type (0, 0), BuildingBlock: CIFDUS_clean_linker_0, # of connection points: 2
#     Edge 18, Type (0, 0), BuildingBlock: CIFDUS_clean_linker_0, # of connection points: 2
#     Edge 19, Type (0, 0), BuildingBlock: CIFDUS_clean_linker_0, # of connection points: 2
#     Edge 20, Type (0, 0), BuildingBlock: CIFDUS_clean_linker_0, # of connection points: 2
#     Edge 21, Type (0, 0), BuildingBlock: CIFDUS_clean_linker_0, # of connection points: 2
#     Edge 22, Type (0, 0), BuildingBlock: CIFDUS_clean_linker_0, # of connection points: 2
#     Edge 23, Type (0, 0), BuildingBlock: CIFDUS_clean_linker_0, # of connection points: 2
#     Edge 24, Type (0, 0), BuildingBlock: CIFDUS_clean_linker_0, # of connection points: 2
#     Edge 25, Type (0, 0), BuildingBlock: CIFDUS_clean_linker_0, # of connection points: 2
#     Edge 26, Type (0, 0), BuildingBlock: CIFDUS_clean_linker_0, # of connection points: 2
#     Edge 27, Type (0, 0), BuildingBlock: CIFDUS_clean_linker_0, # of connection points: 2
#     Edge 28, Type (0, 0), BuildingBlock: CIFDUS_clean_linker_0, # of connection points: 2
#     Edge 29, Type (0, 0), BuildingBlock: CIFDUS_clean_linker_0, # of connection points: 2
#     Edge 30, Type (0, 0), BuildingBlock: CIFDUS_clean_linker_0, # of connection points: 2
#     Edge 31, Type (0, 0), BuildingBlock: CIFDUS_clean_linker_0, # of connection points: 2
#     Edge 32, Type (0, 0), BuildingBlock: CIFDUS_clean_linker_0, # of connection points: 2
#     Edge 33, Type (0, 0), BuildingBlock: CIFDUS_clean_linker_0, # of connection points: 2
#     Edge 34, Type (0, 0), BuildingBlock: CIFDUS_clean_linker_0, # of connection points: 2
#     Edge 35, Type (0, 0), BuildingBlock: CIFDUS_clean_linker_0, # of connection points: 2
#     Edge 36, Type (0, 0), BuildingBlock: CIFDUS_clean_linker_0, # of connection points: 2
#     Edge 37, Type (0, 0), BuildingBlock: CIFDUS_clean_linker_0, # of connection points: 2
#     Edge 38, Type (0, 0), BuildingBlock: CIFDUS_clean_linker_0, # of connection points: 2
#     Edge 39, Type (0, 0), BuildingBlock: CIFDUS_clean_linker_0, # of connection points: 2
#     Edge 40, Type (0, 0), BuildingBlock: CIFDUS_clean_linker_0, # of connection points: 2
#     Edge 41, Type (0, 0), BuildingBlock: CIFDUS_clean_linker_0, # of connection points: 2
#     Edge 42, Type (0, 0), BuildingBlock: CIFDUS_clean_linker_0, # of connection points: 2
#     Edge 43, Type (0, 0), BuildingBlock: CIFDUS_clean_linker_0, # of connection points: 2
#     Edge 44, Type (0, 0), BuildingBlock: CIFDUS_clean_linker_0, # of connection points: 2
#     Edge 45, Type (0, 0), BuildingBlock: CIFDUS_clean_linker_0, # of connection points: 2
#     Edge 46, Type (0, 0), BuildingBlock: CIFDUS_clean_linker_0, # of connection points: 2
#     Edge 47, Type (0, 0), BuildingBlock: CIFDUS_clean_linker_0, # of connection points: 2
# Relax obj value: 0.225
# Max RMSD: 0.125
# Mean RMSD: 0.125
data_MOF--net-upb--node1-QUQFOY_clean_sbu_1--edge1-CIFDUS_clean_linker_0
_symmetry_space_group_name_H-M    P1
_symmetry_Int_Tables_number       1
_symmetry_cell_setting            triclinic
loop_
_symmetry_equiv_pos_as_xyz
'x, y, z'
_cell_length_a     39.604542
_cell_length_b     39.537334
_cell_length_c     38.157862
_cell_angle_alpha  90.05937
_cell_angle_beta   89.975349
_cell_angle_gamma 90.032706
loop_
_atom_site_label
_atom_site_type_symbol
_atom_site_fract_x
_atom_site_fract_y
_atom_site_fract_z
_atom_type_partial_charge
O0 O 0.08566 0.20078 0.26797 0.0
Cd1 Cd 0.053 0.24091 0.27272 0.0
Cd2 Cd 0.04541 0.21489 0.34307 0.0
O3 O 0.08816 0.18977 0.32469 0.0
O4 O 0.06952 0.27831 0.24216 0.0
O5 O 0.07018 0.28047 0.30024 0.0
C6 C 0.07797 0.29414 0.2705 0.0
C7 C 0.03627 0.2133 0.40429 0.0
C8 C 0.09861 0.1848 0.2935 0.0
C9 C 0.9858 0.21479 0.28974 0.0
O10 O 0.99962 0.20713 0.31869 0.0
O11 O 1.00225 0.23047 0.26621 0.0
O12 O 0.03646 0.18651 0.38528 0.0
O13 O 0.04303 0.24159 0.38901 0.0
O14 O 0.8125 0.09036 0.27517 0.0
Cd15 Cd 0.77397 0.05554 0.2716 0.0
Cd16 Cd 0.78048 0.05288 0.3471 0.0
O17 O 0.80614 0.09643 0.33232 0.0
O18 O 0.74113 0.06963 0.23485 0.0
O19 O 0.73019 0.07148 0.29188 0.0
C20 C 0.72095 0.07804 0.26006 0.0
C21 C 0.77503 0.04695 0.40825 0.0
C22 C 0.81933 0.10585 0.30349 0.0
C23 C 0.79527 0.99017 0.29942 0.0
O24 O 0.79418 0.00606 0.3283 0.0
O25 O 0.78696 0.00477 0.27105 0.0
O26 O 0.80376 0.04797 0.39282 0.0
O27 O 0.74844 0.05085 0.3892 0.0
O28 O 0.92734 0.81265 0.26997 0.0
Cd29 Cd 0.95841 0.77139 0.27597 0.0
Cd30 Cd 0.96105 0.79302 0.34639 0.0
O31 O 0.92088 0.82144 0.32682 0.0
O32 O 0.94176 0.73302 0.24669 0.0
O33 O 0.93926 0.73377 0.30479 0.0
C34 C 0.93209 0.71881 0.27552 0.0
C35 C 0.96639 0.78647 0.40751 0.0
C36 C 0.913 0.82805 0.29515 0.0
C37 C 0.0249 0.79362 0.29891 0.0
O38 O 0.00906 0.80032 0.32699 0.0
O39 O 0.00981 0.78005 0.27312 0.0
O40 O 0.96879 0.81543 0.3925 0.0
O41 O 0.95813 0.76098 0.38816 0.0
O42 O 0.19839 0.92535 0.25977 0.0
Cd43 Cd 0.23826 0.9584 0.26521 0.0
Cd44 Cd 0.22319 0.95282 0.33703 0.0
O45 O 0.19837 0.91127 0.31572 0.0
O46 O 0.27378 0.94726 0.23005 0.0
O47 O 0.27951 0.9383 0.28714 0.0
C48 C 0.29133 0.93508 0.25567 0.0
C49 C 0.22986 0.95327 0.39828 0.0
C50 C 0.18804 0.90648 0.2845 0.0
C51 C 0.21288 0.02035 0.29711 0.0
O52 O 0.20888 1.00102 0.3233 0.0
O53 O 0.2267 0.00935 0.26928 0.0
O54 O 0.20074 0.95222 0.38361 0.0
O55 O 0.25607 0.95183 0.37827 0.0
O56 O 0.08124 0.81609 0.7408 0.0
Cd57 Cd 0.04875 0.77591 0.73463 0.0
Cd58 Cd 0.04369 0.80052 0.66499 0.0
O59 O 0.08694 0.82454 0.68386 0.0
O60 O 0.06526 0.73654 0.7624 0.0
O61 O 0.0657 0.73832 0.70427 0.0
C62 C 0.07346 0.72262 0.73292 0.0
C63 C 0.03605 0.80009 0.60366 0.0
C64 C 0.09595 0.83058 0.71532 0.0
C65 C 0.9824 0.8021 0.71601 0.0
O66 O 0.99736 0.80991 0.6877 0.0
O67 O 0.99785 0.78594 0.73988 0.0
O68 O 0.03671 0.8276 0.62155 0.0
O69 O 0.04165 0.77221 0.6202 0.0
O70 O 0.19882 0.08876 0.71638 0.0
Cd71 Cd 0.23841 0.0554 0.7218 0.0
Cd72 Cd 0.22956 0.04611 0.64796 0.0
O73 O 0.19932 0.08792 0.65844 0.0
O74 O 0.27242 0.07358 0.75545 0.0
O75 O 0.28108 0.06975 0.69811 0.0
C76 C 0.29152 0.0795 0.72864 0.0
C77 C 0.2403 0.03359 0.58865 0.0
C78 C 0.18814 0.09996 0.6872 0.0
C79 C 0.21852 0.98726 0.70137 0.0
O80 O 0.21874 1.00047 0.67111 0.0
O81 O 0.2265 0.0047 0.72809 0.0
O82 O 0.21052 0.0327 0.60184 0.0
O83 O 0.26443 0.04441 0.60839 0.0
O84 O 0.923 0.19439 0.73573 0.0
Cd85 Cd 0.95519 0.23483 0.72928 0.0
Cd86 Cd 0.95738 0.21197 0.66056 0.0
O87 O 0.91523 0.18588 0.67906 0.0
O88 O 0.93938 0.2732 0.75908 0.0
O89 O 0.93687 0.27324 0.701 0.0
C90 C 0.9299 0.28792 0.73048 0.0
C91 C 0.96416 0.22123 0.59998 0.0
C92 C 0.90759 0.17957 0.71086 0.0
C93 C 0.02047 0.20773 0.70813 0.0
O94 O 0.00415 0.20009 0.6806 0.0
O95 O 0.00637 0.22458 0.73246 0.0
O96 O 0.96414 0.19141 0.61335 0.0
O97 O 0.95746 0.24621 0.62064 0.0
O98 O 0.80494 0.92057 0.72896 0.0
Cd99 Cd 0.76607 0.9546 0.73514 0.0
Cd100 Cd 0.77062 0.95892 0.65972 0.0
O101 O 0.79967 0.91669 0.67143 0.0
O102 O 0.73574 0.93912 0.77356 0.0
O103 O 0.72125 0.93875 0.71738 0.0
C104 C 0.71406 0.93124 0.74955 0.0
C105 C 0.76081 0.96889 0.59976 0.0
C106 C 0.81292 0.90674 0.70004 0.0
C107 C 0.78563 0.02079 0.70875 0.0
O108 O 0.78357 0.00549 0.67961 0.0
O109 O 0.77869 0.00544 0.73708 0.0
O110 O 0.79048 0.9688 0.61316 0.0
O111 O 0.73602 0.96037 0.61981 0.0
O112 O 0.58524 0.69505 0.76227 0.0
Cd113 Cd 0.55199 0.73446 0.76971 0.0
Cd114 Cd 0.5575 0.71609 0.84044 0.0
O115 O 0.59892 0.69182 0.81822 0.0
O116 O 0.56201 0.77082 0.73515 0.0
O117 O 0.57146 0.77587 0.79223 0.0
C118 C 0.57392 0.78835 0.76098 0.0
C119 C 0.55776 0.72283 0.90174 0.0
C120 C 0.60386 0.68324 0.78644 0.0
C121 C 0.49017 0.70715 0.80018 0.0
O122 O 0.50932 0.70189 0.82629 0.0
O123 O 0.50129 0.72238 0.77324 0.0
O124 O 0.55844 0.69362 0.88706 0.0
O125 O 0.55899 0.74904 0.88168 0.0
O126 O 0.30615 0.5881 0.75907 0.0
Cd127 Cd 0.26565 0.55563 0.76165 0.0
Cd128 Cd 0.28673 0.54739 0.83335 0.0
O129 O 0.31419 0.58913 0.81634 0.0
O130 O 0.22771 0.57352 0.73275 0.0
O131 O 0.22692 0.57163 0.79087 0.0
C132 C 0.21257 0.58066 0.76187 0.0
C133 C 0.28738 0.53894 0.89463 0.0
C134 C 0.32109 0.6001 0.78579 0.0
C135 C 0.28844 0.48759 0.77992 0.0
O136 O 0.29379 0.50111 0.80961 0.0
O137 O 0.27578 0.5047 0.75501 0.0
O138 O 0.31421 0.53775 0.87585 0.0
O139 O 0.25949 0.54638 0.87901 0.0
O140 O 0.41262 0.31345 0.77944 0.0
Cd141 Cd 0.44778 0.27507 0.78129 0.0
Cd142 Cd 0.44803 0.28825 0.85446 0.0
O143 O 0.40446 0.3119 0.83664 0.0
O144 O 0.43443 0.23729 0.74945 0.0
O145 O 0.43206 0.23428 0.80748 0.0
C146 C 0.42595 0.22065 0.77728 0.0
C147 C 0.45192 0.28237 0.9157 0.0
C148 C 0.39595 0.32239 0.80635 0.0
C149 C 0.51184 0.30049 0.80844 0.0
O150 O 0.49501 0.30262 0.83668 0.0
O151 O 0.49841 0.28832 0.78094 0.0
O152 O 0.45041 0.31133 0.90067 0.0
O153 O 0.44953 0.25585 0.89615 0.0
O154 O 0.69508 0.42171 0.76702 0.0
Cd155 Cd 0.73662 0.45284 0.77071 0.0
Cd156 Cd 0.71791 0.45698 0.84347 0.0
O157 O 0.68871 0.41722 0.82435 0.0
O158 O 0.77399 0.43571 0.74035 0.0
O159 O 0.77521 0.4343 0.79846 0.0
C160 C 0.78924 0.42672 0.76883 0.0
C161 C 0.71962 0.4617 0.90506 0.0
C162 C 0.68059 0.40842 0.79335 0.0
C163 C 0.71711 0.5203 0.7948 0.0
O164 O 0.71216 0.50504 0.8236 0.0
O165 O 0.72804 0.50443 0.76814 0.0
O166 O 0.69212 0.46445 0.88757 0.0
O167 O 0.74675 0.45454 0.88789 0.0
O168 O 0.59094 0.31308 0.23168 0.0
Cd169 Cd 0.55734 0.27373 0.23834 0.0
Cd170 Cd 0.54658 0.28289 0.16474 0.0
O171 O 0.58954 0.31181 0.17378 0.0
O172 O 0.57468 0.2428 0.27534 0.0
O173 O 0.5721 0.22891 0.21907 0.0
C174 C 0.58099 0.22122 0.25071 0.0
C175 C 0.53285 0.27167 0.10579 0.0
C176 C 0.60205 0.32316 0.20222 0.0
C177 C 0.48942 0.29585 0.2194 0.0
O178 O 0.502 0.29596 0.18883 0.0
O179 O 0.50702 0.28631 0.24539 0.0
O180 O 0.53308 0.30169 0.11856 0.0
O181 O 0.54303 0.24744 0.12575 0.0
O182 O 0.69801 0.59247 0.22733 0.0
Cd183 Cd 0.73702 0.55821 0.2315 0.0
Cd184 Cd 0.72398 0.54697 0.15925 0.0
O185 O 0.69738 0.5912 0.16944 0.0
O186 O 0.77245 0.57628 0.26363 0.0
O187 O 0.77929 0.57109 0.20615 0.0
C188 C 0.79088 0.58121 0.2361 0.0
C189 C 0.73338 0.53383 0.09972 0.0
C190 C 0.68742 0.60404 0.19829 0.0
C191 C 0.71227 0.4905 0.21476 0.0
O192 O 0.71038 0.50281 0.18412 0.0
O193 O 0.72415 0.50809 0.23978 0.0
O194 O 0.70372 0.53475 0.11324 0.0
O195 O 0.75834 0.54251 0.11949 0.0
O196 O 0.41957 0.69798 0.21869 0.0
Cd197 Cd 0.45273 0.73743 0.22695 0.0
Cd198 Cd 0.46741 0.72626 0.1531 0.0
O199 O 0.42474 0.69662 0.161 0.0
O200 O 0.43425 0.7662 0.26534 0.0
O201 O 0.43804 0.78324 0.21017 0.0
C202 C 0.42842 0.78913 0.24202 0.0
C203 C 0.48257 0.73658 0.09422 0.0
C204 C 0.41054 0.68642 0.18904 0.0
C205 C 0.52185 0.71531 0.21108 0.0
O206 O 0.511 0.71468 0.1798 0.0
O207 O 0.50276 0.72492 0.23594 0.0
O208 O 0.48317 0.70691 0.10776 0.0
O209 O 0.47122 0.76091 0.11344 0.0
O210 O 0.31249 0.41843 0.22182 0.0
Cd211 Cd 0.27342 0.45289 0.22284 0.0
Cd212 Cd 0.28846 0.46022 0.1512 0.0
O213 O 0.31481 0.41652 0.16402 0.0
O214 O 0.23717 0.43665 0.25505 0.0
O215 O 0.23174 0.43866 0.19721 0.0
C216 C 0.2194 0.43023 0.22739 0.0
C217 C 0.27816 0.47015 0.09121 0.0
C218 C 0.32399 0.40532 0.19383 0.0
C219 C 0.29957 0.51943 0.20338 0.0
O220 O 0.30265 0.50546 0.17358 0.0
O221 O 0.28623 0.50337 0.2287 0.0
O222 O 0.30806 0.46949 0.10415 0.0
O223 O 0.25345 0.46297 0.11196 0.0
H224 H 0.13807 0.15312 0.34138 0.0
H225 H 0.1171 0.15684 0.2305 0.0
H226 H 0.1543 0.10839 0.22074 0.0
H227 H 0.18801 0.06095 0.24486 0.0
H228 H 0.20711 0.05756 0.35614 0.0
H229 H 0.17596 0.10998 0.36439 0.0
C230 C 0.14186 0.1436 0.31499 0.0
C231 C 0.12441 0.15834 0.28684 0.0
C232 C 0.16298 0.1156 0.3096 0.0
C233 C 0.13006 0.1459 0.25275 0.0
C234 C 0.15128 0.11809 0.24713 0.0
C235 C 0.18595 0.07216 0.27072 0.0
C236 C 0.19954 0.0552 0.29987 0.0
C237 C 0.16724 0.10216 0.27549 0.0
C238 C 0.19654 0.06992 0.33331 0.0
C239 C 0.17866 0.09988 0.33811 0.0
H240 H 0.93717 0.2065 0.33803 0.0
H241 H 0.95719 0.19411 0.22775 0.0
H242 H 0.90479 0.16152 0.22119 0.0
H243 H 0.85746 0.13029 0.24889 0.0
H244 H 0.83914 0.14319 0.35978 0.0
H245 H 0.88657 0.18192 0.36388 0.0
C246 C 0.92973 0.19721 0.3124 0.0
C247 C 0.95112 0.20231 0.2835 0.0
C248 C 0.90009 0.17816 0.30904 0.0
C249 C 0.94105 0.19055 0.25037 0.0
C250 C 0.91127 0.17164 0.24671 0.0
C251 C 0.86352 0.14198 0.27382 0.0
C252 C 0.84501 0.13323 0.30409 0.0
C253 C 0.89121 0.16427 0.27617 0.0
C254 C 0.85308 0.14897 0.3361 0.0
C255 C 0.88028 0.17119 0.33855 0.0
H256 H 0.82897 0.95589 0.24746 0.0
H257 H 0.79253 0.94634 0.35361 0.0
H258 H 0.82386 0.89393 0.3608 0.0
H259 H 0.86644 0.85428 0.3396 0.0
H260 H 0.90385 0.86287 0.23381 0.0
H261 H 0.86732 0.9118 0.22381 0.0
C262 C 0.8273 0.94187 0.27181 0.0
C263 C 0.80874 0.95524 0.30006 0.0
C264 C 0.84601 0.9118 0.27609 0.0
C265 C 0.80693 0.93683 0.33155 0.0
C266 C 0.82494 0.90687 0.33578 0.0
C267 C 0.86641 0.86665 0.31424 0.0
C268 C 0.88821 0.85522 0.28772 0.0
C269 C 0.84543 0.89473 0.30868 0.0
C270 C 0.88742 0.87124 0.2548 0.0
C271 C 0.86658 0.8993 0.24906 0.0
H272 H 0.0578 0.8233 0.24405 0.0
H273 H 0.07127 0.78877 0.35028 0.0
H274 H 0.12564 0.81751 0.35359 0.0
H275 H 0.16511 0.85873 0.32959 0.0
H276 H 0.15103 0.89643 0.22452 0.0
H277 H 0.10156 0.86003 0.21731 0.0
C278 C 0.0732 0.82131 0.26745 0.0
C279 C 0.06062 0.80407 0.29691 0.0
C280 C 0.10405 0.83899 0.26963 0.0
C281 C 0.08049 0.80202 0.32733 0.0
C282 C 0.11147 0.81859 0.32932 0.0
C283 C 0.15155 0.85871 0.3049 0.0
C284 C 0.1615 0.88073 0.27789 0.0
C285 C 0.12284 0.83823 0.30116 0.0
C286 C 0.14382 0.87994 0.24591 0.0
C287 C 0.11542 0.85918 0.24178 0.0
H288 H 0.14593 0.85018 0.67145 0.0
H289 H 0.10499 0.869 0.77434 0.0
H290 H 0.14334 0.91707 0.78181 0.0
H291 H 0.18353 0.95811 0.75562 0.0
H292 H 0.22362 0.93818 0.65247 0.0
H293 H 0.19126 0.88598 0.64897 0.0
C294 C 0.14568 0.86455 0.6957 0.0
C295 C 0.12229 0.8564 0.72202 0.0
C296 C 0.16772 0.89206 0.69978 0.0
C297 C 0.12268 0.87487 0.75356 0.0
C298 C 0.14454 0.90244 0.75781 0.0
C299 C 0.18589 0.9418 0.73289 0.0
C300 C 0.20564 0.95222 0.70419 0.0
C301 C 0.16655 0.91189 0.73067 0.0
C302 C 0.20832 0.9309 0.67478 0.0
C303 C 0.18969 0.90109 0.67263 0.0
H304 H 0.15453 0.12883 0.74261 0.0
H305 H 0.15989 0.12886 0.62947 0.0
H306 H 0.11069 0.16546 0.62664 0.0
H307 H 0.06303 0.19264 0.65548 0.0
H308 H 0.05586 0.19285 0.76823 0.0
H309 H 0.10927 0.16155 0.77203 0.0
C310 C 0.14519 0.13716 0.71735 0.0
C311 C 0.16073 0.12558 0.68628 0.0
C312 C 0.11651 0.15819 0.71581 0.0
C313 C 0.14837 0.13696 0.65382 0.0
C314 C 0.12015 0.15794 0.65212 0.0
C315 C 0.07334 0.18623 0.68096 0.0
C316 C 0.05533 0.19465 0.71152 0.0
C317 C 0.10356 0.16794 0.68284 0.0
C318 C 0.06927 0.18665 0.74433 0.0
C319 C 0.09965 0.16853 0.74646 0.0
H320 H 0.8588 0.15532 0.66773 0.0
H321 H 0.89895 0.14471 0.77218 0.0
H322 H 0.86122 0.09684 0.78299 0.0
H323 H 0.82116 0.05393 0.76015 0.0
H324 H 0.78171 0.06555 0.65543 0.0
H325 H 0.8142 0.11722 0.64772 0.0
C326 C 0.85908 0.14276 0.69299 0.0
C327 C 0.88202 0.15327 0.71887 0.0
C328 C 0.83735 0.1153 0.69904 0.0
C329 C 0.88165 0.13704 0.75168 0.0
C330 C 0.86012 0.10957 0.75788 0.0
C331 C 0.81904 0.0683 0.73606 0.0
C332 C 0.79933 0.05566 0.7083 0.0
C333 C 0.83839 0.09793 0.73144 0.0
C334 C 0.79697 0.0745 0.67711 0.0
C335 C 0.81566 0.10403 0.67256 0.0
H336 H 0.84961 0.8808 0.75474 0.0
H337 H 0.83722 0.87409 0.64241 0.0
H338 H 0.88643 0.8376 0.63844 0.0
H339 H 0.93641 0.81298 0.66551 0.0
H340 H 0.95034 0.81928 0.77737 0.0
H341 H 0.89673 0.84997 0.78295 0.0
C342 C 0.85739 0.87099 0.72945 0.0
C343 C 0.83995 0.88076 0.69886 0.0
C344 C 0.88607 0.85004 0.72722 0.0
C345 C 0.85026 0.86743 0.66638 0.0
C346 C 0.87848 0.84653 0.66401 0.0
C347 C 0.92747 0.82063 0.69122 0.0
C348 C 0.94744 0.81432 0.72093 0.0
C349 C 0.89709 0.83852 0.69408 0.0
C350 C 0.93536 0.82386 0.75411 0.0
C351 C 0.90487 0.84164 0.75724 0.0
H352 H 0.65409 0.6608 0.82873 0.0
H353 H 0.61107 0.64639 0.72593 0.0
H354 H 0.64714 0.597 0.71665 0.0
H355 H 0.685 0.55318 0.74143 0.0
H356 H 0.72549 0.56728 0.8453 0.0
H357 H 0.697 0.6217 0.85015 0.0
C358 C 0.6529 0.64718 0.80407 0.0
C359 C 0.62947 0.65697 0.77836 0.0
C360 C 0.67332 0.61858 0.79911 0.0
C361 C 0.6287 0.63929 0.74633 0.0
C362 C 0.64926 0.61093 0.74102 0.0
C363 C 0.68837 0.56874 0.76459 0.0
C364 C 0.70714 0.55624 0.79304 0.0
C365 C 0.6709 0.59966 0.7677 0.0
C366 C 0.71101 0.57638 0.82314 0.0
C367 C 0.69457 0.6074 0.82603 0.0
H368 H 0.44893 0.68793 0.74591 0.0
H369 H 0.45328 0.69609 0.85864 0.0
H370 H 0.39966 0.66652 0.8638 0.0
H371 H 0.3546 0.63353 0.83716 0.0
H372 H 0.35005 0.62282 0.72469 0.0
H373 H 0.40026 0.65843 0.71861 0.0
C374 C 0.43775 0.68376 0.77149 0.0
C375 C 0.45525 0.69391 0.80183 0.0
C376 C 0.40701 0.66596 0.77441 0.0
C377 C 0.44054 0.68819 0.83487 0.0
C378 C 0.40985 0.67125 0.83789 0.0
C379 C 0.3643 0.63921 0.81123 0.0
C380 C 0.34874 0.62513 0.78149 0.0
C381 C 0.39338 0.6592 0.80795 0.0
C382 C 0.36158 0.63315 0.74811 0.0
C383 C 0.39039 0.65345 0.74459 0.0
H384 H 0.29027 0.43837 0.82826 0.0
H385 H 0.31514 0.45897 0.72042 0.0
H386 H 0.34827 0.40657 0.7176 0.0
H387 H 0.37681 0.35964 0.74894 0.0
H388 H 0.35206 0.34124 0.85757 0.0
H389 H 0.31217 0.38789 0.85681 0.0
C390 C 0.30234 0.431 0.80388 0.0
C391 C 0.30064 0.45261 0.77473 0.0
C392 C 0.32185 0.40149 0.80279 0.0
C393 C 0.31603 0.44266 0.74319 0.0
C394 C 0.33527 0.4129 0.74173 0.0
C395 C 0.36227 0.36547 0.77225 0.0
C396 C 0.36803 0.34728 0.80347 0.0
C397 C 0.33944 0.39281 0.77183 0.0
C398 C 0.34867 0.35506 0.83333 0.0
C399 C 0.32576 0.38177 0.83297 0.0
H400 H 0.65022 0.37003 0.84296 0.0
H401 H 0.64705 0.39257 0.7324 0.0
H402 H 0.59611 0.35799 0.72612 0.0
H403 H 0.54916 0.3257 0.75352 0.0
H404 H 0.55307 0.30525 0.86458 0.0
H405 H 0.60697 0.33431 0.86896 0.0
C406 C 0.63864 0.36719 0.81736 0.0
C407 C 0.65228 0.38424 0.78832 0.0
C408 C 0.60925 0.34767 0.81402 0.0
C409 C 0.63706 0.37985 0.7553 0.0
C410 C 0.60782 0.36015 0.75168 0.0
C411 C 0.56219 0.3271 0.77847 0.0
C412 C 0.5469 0.31361 0.80871 0.0
C413 C 0.5932 0.34453 0.78105 0.0
C414 C 0.56403 0.31574 0.84094 0.0
C415 C 0.59491 0.33239 0.84354 0.0
H416 H 0.70009 0.443 0.16564 0.0
H417 H 0.69132 0.46147 0.27672 0.0
H418 H 0.65862 0.40912 0.28333 0.0
H419 H 0.62745 0.3615 0.25611 0.0
H420 H 0.63564 0.34539 0.14439 0.0
H421 H 0.67365 0.39349 0.1396 0.0
C422 C 0.69138 0.43547 0.19145 0.0
C423 C 0.69779 0.45636 0.22059 0.0
C424 C 0.67215 0.40591 0.19486 0.0
C425 C 0.68674 0.44588 0.25385 0.0
C426 C 0.66782 0.41607 0.25757 0.0
C427 C 0.63789 0.36824 0.23079 0.0
C428 C 0.62826 0.34999 0.20059 0.0
C429 C 0.65957 0.39639 0.22806 0.0
C430 C 0.64221 0.35908 0.16803 0.0
C431 C 0.66402 0.38663 0.16522 0.0
H432 H 0.57177 0.70712 0.16382 0.0
H433 H 0.54827 0.69102 0.27294 0.0
H434 H 0.60003 0.6576 0.27969 0.0
H435 H 0.64807 0.6272 0.25238 0.0
H436 H 0.66871 0.64209 0.14228 0.0
H437 H 0.6219 0.6817 0.13821 0.0
C438 C 0.57812 0.69671 0.18928 0.0
C439 C 0.55593 0.70119 0.21772 0.0
C440 C 0.60722 0.6769 0.19266 0.0
C441 C 0.56488 0.68796 0.2506 0.0
C442 C 0.59433 0.6686 0.25438 0.0
C443 C 0.64263 0.63951 0.22764 0.0
C444 C 0.66166 0.63126 0.19756 0.0
C445 C 0.61512 0.66198 0.22526 0.0
C446 C 0.65428 0.64755 0.16574 0.0
C447 C 0.6275 0.67028 0.16336 0.0
H448 H 0.38152 0.65098 0.24299 0.0
H449 H 0.38166 0.66029 0.13016 0.0
H450 H 0.34439 0.61159 0.12539 0.0
H451 H 0.31605 0.56364 0.15236 0.0
H452 H 0.31642 0.55209 0.26478 0.0
H453 H 0.34865 0.60481 0.2706 0.0
C454 C 0.37307 0.64262 0.21738 0.0
C455 C 0.3848 0.65916 0.18695 0.0
C456 C 0.35181 0.61415 0.21471 0.0
C457 C 0.37342 0.64797 0.15402 0.0
C458 C 0.35205 0.62006 0.15122 0.0
C459 C 0.32285 0.57274 0.17825 0.0
C460 C 0.31418 0.55369 0.20808 0.0
C461 C 0.34178 0.60253 0.18128 0.0
C462 C 0.32279 0.56621 0.24138 0.0
C463 C 0.34142 0.59624 0.24468 0.0
H464 H 0.36086 0.38457 0.25072 0.0
H465 H 0.34568 0.36532 0.14036 0.0
H466 H 0.39293 0.32606 0.14023 0.0
H467 H 0.44193 0.30206 0.16934 0.0
H468 H 0.45992 0.32229 0.27886 0.0
H469 H 0.40771 0.35561 0.28164 0.0
C470 C 0.36759 0.3714 0.22678 0.0
C471 C 0.34994 0.37831 0.19547 0.0
C472 C 0.39533 0.34909 0.2267 0.0
C473 C 0.35899 0.3609 0.16473 0.0
C474 C 0.38603 0.33837 0.1646 0.0
C475 C 0.43427 0.31336 0.19403 0.0
C476 C 0.45504 0.31007 0.22375 0.0
C477 C 0.40491 0.33305 0.19513 0.0
C478 C 0.44442 0.32444 0.2556 0.0
C479 C 0.41471 0.34372 0.25708 0.0
H480 H 0.09784 0.32864 0.21225 0.0
H481 H 0.10645 0.32889 0.32501 0.0
H482 H 0.14871 0.37376 0.32177 0.0
H483 H 0.18764 0.40842 0.28665 0.0
H484 H 0.17968 0.40735 0.17383 0.0
H485 H 0.13257 0.36767 0.17746 0.0
C486 C 0.10854 0.33885 0.23618 0.0
C487 C 0.09917 0.32509 0.26881 0.0
C488 C 0.13321 0.36438 0.23412 0.0
C489 C 0.11321 0.33885 0.29952 0.0
C490 C 0.13754 0.36445 0.29769 0.0
C491 C 0.17529 0.39994 0.26285 0.0
C492 C 0.1875 0.41063 0.22999 0.0
C493 C 0.14842 0.37673 0.26509 0.0
C494 C 0.17098 0.39948 0.19947 0.0
C495 C 0.14407 0.37665 0.20151 0.0
H496 H 0.6797 0.10914 0.30726 0.0
H497 H 0.69309 0.09257 0.19632 0.0
H498 H 0.64803 0.13286 0.18367 0.0
H499 H 0.60926 0.17742 0.20386 0.0
H500 H 0.59781 0.19566 0.31477 0.0
H501 H 0.63729 0.14997 0.32758 0.0
C502 C 0.67237 0.11384 0.28033 0.0
C503 C 0.68999 0.09798 0.2528 0.0
C504 C 0.64691 0.13766 0.27317 0.0
C505 C 0.68012 0.1045 0.21805 0.0
C506 C 0.65439 0.12766 0.21076 0.0
C507 C 0.61492 0.17102 0.23085 0.0
C508 C 0.60075 0.19018 0.25827 0.0
C509 C 0.63827 0.14511 0.23807 0.0
C510 C 0.60848 0.18152 0.2931 0.0
C511 C 0.63115 0.15541 0.30049 0.0
H512 H 0.82129 0.60604 0.29483 0.0
H513 H 0.83175 0.60144 0.18232 0.0
H514 H 0.87883 0.64124 0.18498 0.0
H515 H 0.91301 0.68183 0.21854 0.0
H516 H 0.90193 0.68711 0.33095 0.0
H517 H 0.85947 0.64236 0.32901 0.0
C518 C 0.83417 0.61332 0.27092 0.0
C519 C 0.8227 0.60097 0.23839 0.0
C520 C 0.86102 0.63659 0.27257 0.0
C521 C 0.83989 0.61059 0.20772 0.0
C522 C 0.86678 0.63349 0.20919 0.0
C523 C 0.9017 0.67286 0.2427 0.0
C524 C 0.91046 0.68812 0.27481 0.0
C525 C 0.87695 0.64735 0.24136 0.0
C526 C 0.89564 0.67598 0.30584 0.0
C527 C 0.87121 0.65044 0.30475 0.0
H528 H 0.3283 0.89839 0.30234 0.0
H529 H 0.32315 0.92537 0.1929 0.0
H530 H 0.36781 0.88486 0.17945 0.0
H531 H 0.40399 0.83748 0.19775 0.0
H532 H 0.4076 0.8093 0.30694 0.0
H533 H 0.36827 0.85466 0.32141 0.0
C534 C 0.33734 0.89587 0.27563 0.0
C535 C 0.32213 0.91476 0.24866 0.0
C536 C 0.36262 0.872 0.26792 0.0
C537 C 0.33422 0.91108 0.21419 0.0
C538 C 0.35973 0.8878 0.20642 0.0
C539 C 0.39662 0.8416 0.22479 0.0
C540 C 0.40857 0.81976 0.25113 0.0
C541 C 0.37346 0.86745 0.23292 0.0
C542 C 0.39869 0.82553 0.28605 0.0
C543 C 0.37609 0.85147 0.29438 0.0
H544 H 0.17853 0.60597 0.70564 0.0
H545 H 0.17694 0.60305 0.81871 0.0
H546 H 0.13116 0.64437 0.81955 0.0
H547 H 0.09572 0.68559 0.7885 0.0
H548 H 0.09831 0.68953 0.67548 0.0
H549 H 0.13921 0.64336 0.67437 0.0
C550 C 0.16785 0.61395 0.73048 0.0
C551 C 0.18144 0.60159 0.76208 0.0
C552 C 0.14182 0.63815 0.73081 0.0
C553 C 0.16713 0.61219 0.79398 0.0
C554 C 0.14099 0.63595 0.79451 0.0
C555 C 0.10482 0.67604 0.76357 0.0
C556 C 0.09413 0.69129 0.73213 0.0
C557 C 0.12876 0.64977 0.76312 0.0
C558 C 0.10615 0.67842 0.7001 0.0
C559 C 0.12967 0.65206 0.69944 0.0
H560 H 0.40946 0.18572 0.71804 0.0
H561 H 0.39768 0.18413 0.8305 0.0
H562 H 0.35744 0.1376 0.82557 0.0
H563 H 0.32081 0.10188 0.78899 0.0
H564 H 0.33205 0.10395 0.67649 0.0
H565 H 0.37747 0.14539 0.68188 0.0
C566 C 0.39854 0.17484 0.74154 0.0
C567 C 0.40635 0.18873 0.77456 0.0
C568 C 0.37504 0.1483 0.73851 0.0
C569 C 0.39208 0.17411 0.80472 0.0
C570 C 0.3689 0.14755 0.80193 0.0
C571 C 0.33354 0.11097 0.76566 0.0
C572 C 0.3227 0.10006 0.73237 0.0
C573 C 0.35944 0.13513 0.7689 0.0
C574 C 0.33971 0.11196 0.70246 0.0
C575 C 0.36564 0.13581 0.70549 0.0
H576 H 0.90757 0.32181 0.78825 0.0
H577 H 0.9037 0.32321 0.67521 0.0
H578 H 0.86201 0.36864 0.67711 0.0
H579 H 0.82261 0.40405 0.71084 0.0
H580 H 0.82548 0.40156 0.8239 0.0
H581 H 0.87172 0.3608 0.82193 0.0
C582 C 0.89802 0.33238 0.76399 0.0
C583 C 0.90864 0.31885 0.73164 0.0
C584 C 0.8736 0.35819 0.76526 0.0
C585 C 0.89597 0.33298 0.7005 0.0
C586 C 0.87198 0.35893 0.70155 0.0
C587 C 0.83364 0.39498 0.73508 0.0
C588 C 0.82031 0.40571 0.76748 0.0
C589 C 0.85998 0.37113 0.73378 0.0
C590 C 0.83507 0.3937 0.79858 0.0
C591 C 0.8615 0.37027 0.79749 0.0
H592 H 0.66735 0.90503 0.7046 0.0
H593 H 0.69293 0.91099 0.81438 0.0
H594 H 0.64899 0.86982 0.82818 0.0
H595 H 0.6078 0.82738 0.80835 0.0
H596 H 0.58339 0.82033 0.69835 0.0
H597 H 0.62197 0.86682 0.68555 0.0
C598 C 0.66294 0.8978 0.73162 0.0
C599 C 0.68371 0.91088 0.75833 0.0
C600 C 0.63796 0.87361 0.73936 0.0
C601 C 0.67751 0.90123 0.79322 0.0
C602 C 0.65242 0.87755 0.80117 0.0
C603 C 0.61046 0.83638 0.78165 0.0
C604 C 0.59293 0.82008 0.75434 0.0
C605 C 0.63317 0.86283 0.77434 0.0
C606 C 0.59667 0.8322 0.7199 0.0
C607 C 0.61885 0.85877 0.7125 0.0
H608 H 0.01316 0.26377 0.44775 0.0
H609 H 0.0364 0.15712 0.44461 0.0
H610 H 0.01489 0.15029 0.50386 0.0
H611 H 0.98853 0.17369 0.55596 0.0
H612 H 0.9651 0.28011 0.56131 0.0
H613 H 0.98713 0.28782 0.50171 0.0
C614 C 0.01387 0.23918 0.46027 0.0
C615 C 0.02645 0.21101 0.44171 0.0
C616 C 1.00094 0.23524 0.49452 0.0
C617 C 0.02685 0.17922 0.45818 0.0
C618 C 0.01442 0.17522 0.49207 0.0
C619 C 0.98792 0.19861 0.54412 0.0
C620 C 0.97487 0.22622 0.56304 0.0
C621 C 1.00107 0.2029 0.51029 0.0
C622 C 0.97475 0.25835 0.54726 0.0
C623 C 0.98753 0.26279 0.51324 0.0
H624 H 0.80508 0.00584 0.56315 0.0
H625 H 0.7055 0.96222 0.55601 0.0
H626 H 0.69937 0.98532 0.49648 0.0
H627 H 0.72415 0.01612 0.44543 0.0
H628 H 0.82383 0.05936 0.45555 0.0
H629 H 0.82777 0.03871 0.51533 0.0
C630 C 0.782 1.00112 0.54862 0.0
C631 C 0.75602 0.98181 0.56371 0.0
C632 C 0.77857 0.0148 0.51507 0.0
C633 C 0.72603 0.97671 0.54477 0.0
C634 C 0.72251 0.99002 0.51083 0.0
C635 C 0.74637 0.02153 0.46106 0.0
C636 C 0.77372 0.03916 0.44606 0.0
C637 C 0.74877 0.009 0.4956 0.0
C638 C 0.80252 0.04573 0.46643 0.0
C639 C 0.80489 0.03381 0.50058 0.0
H640 H 0.01156 0.74876 0.56225 0.0
H641 H 0.03888 0.85449 0.56089 0.0
H642 H 0.01833 0.8596 0.5011 0.0
H643 H 0.99179 0.83497 0.44973 0.0
H644 H 0.96422 0.7294 0.44894 0.0
H645 H 0.98514 0.72345 0.50916 0.0
C646 C 0.01339 0.77275 0.54863 0.0
C647 C 0.02686 0.80118 0.56604 0.0
C648 C 1.00098 0.77572 0.51409 0.0
C649 C 0.02866 0.83221 0.54819 0.0
C650 C 0.01677 0.83523 0.51399 0.0
C651 C 0.99005 0.81062 0.46269 0.0
C652 C 0.97619 0.78273 0.44486 0.0
C653 C 1.00257 0.80731 0.49687 0.0
C654 C 0.97452 0.75137 0.46212 0.0
C655 C 0.98668 0.74792 0.49649 0.0
H656 H 0.20018 0.99014 0.55438 0.0
H657 H 0.29398 0.04459 0.54386 0.0
H658 H 0.3015 0.02106 0.48466 0.0
H659 H 0.27874 0.98778 0.43439 0.0
H660 H 0.18458 0.93416 0.44713 0.0
H661 H 0.18026 0.954 0.50737 0.0
C662 C 0.2223 0.99702 0.53917 0.0
C663 C 0.24615 0.01962 0.55315 0.0
C664 C 0.22653 0.98318 0.5057 0.0
C665 C 0.27506 0.02754 0.53345 0.0
C666 C 0.27937 0.01401 0.49969 0.0
C667 C 0.25779 0.97981 0.45073 0.0
C668 C 0.23198 0.95955 0.43637 0.0
C669 C 0.25502 0.99206 0.48536 0.0
C670 C 0.20471 0.94977 0.45759 0.0
C671 C 0.20209 0.96127 0.49196 0.0
H672 H 0.52572 0.77287 0.93869 0.0
H673 H 0.57643 0.67694 0.95027 0.0
H674 H 0.5584 0.67366 0.01117 0.0
H675 H 0.52441 0.69509 0.05926 0.0
H676 H 0.47259 0.7905 0.04957 0.0
H677 H 0.49474 0.79697 0.98976 0.0
C678 C 0.53344 0.75172 0.95487 0.0
C679 C 0.55234 0.72513 0.94 0.0
C680 C 0.52223 0.74956 0.9899 0.0
C681 C 0.56182 0.69764 0.96108 0.0
C682 C 0.55137 0.69564 0.99586 0.0
C683 C 0.51787 0.71736 0.04413 0.0
C684 C 0.49638 0.74199 0.05858 0.0
C685 C 0.53079 0.72091 0.01017 0.0
C686 C 0.48883 0.77103 0.03888 0.0
C687 C 0.50154 0.77472 0.00473 0.0
H688 H 0.2363 0.51787 0.93836 0.0
H689 H 0.34317 0.53944 0.93519 0.0
H690 H 0.34943 0.51934 0.99496 0.0
H691 H 0.32562 0.49424 0.04729 0.0
H692 H 0.21908 0.47215 0.05288 0.0
H693 H 0.2117 0.49347 0.99293 0.0
C694 C 0.26081 0.51855 0.95101 0.0
C695 C 0.28923 0.53015 0.93228 0.0
C696 C 0.26442 0.50641 0.98559 0.0
C697 C 0.3209 0.53057 0.94889 0.0
C698 C 0.32457 0.51897 0.98309 0.0
C699 C 0.30071 0.49385 0.03548 0.0
C700 C 0.273 0.48131 0.05449 0.0
C701 C 0.29667 0.50644 0.00146 0.0
C702 C 0.24091 0.48143 0.03874 0.0
C703 C 0.23667 0.49377 0.00452 0.0
H704 H 0.49052 0.31268 0.07134 0.0
H705 H 0.54212 0.21716 0.06149 0.0
H706 H 0.51843 0.20981 0.00238 0.0
H707 H 0.48573 0.23306 0.95201 0.0
H708 H 0.43498 0.32896 0.96415 0.0
H709 H 0.45509 0.33329 0.02422 0.0
C710 C 0.49675 0.29022 0.0563 0.0
C711 C 0.51859 0.26581 0.07045 0.0
C712 C 0.48286 0.28613 0.02286 0.0
C713 C 0.52564 0.23648 0.05096 0.0
C714 C 0.51204 0.23229 0.01724 0.0
C715 C 0.47852 0.25446 0.96816 0.0
C716 C 0.45899 0.28073 0.95366 0.0
C717 C 0.49087 0.25719 0.00273 0.0
C718 C 0.4501 0.30851 0.97468 0.0
C719 C 0.46173 0.31111 0.00897 0.0
H720 H 0.7715 0.48535 0.94602 0.0
H721 H 0.66666 0.45556 0.94901 0.0
H722 H 0.66209 0.47524 0.00923 0.0
H723 H 0.68636 0.50354 0.05965 0.0
H724 H 0.79083 0.53441 0.05873 0.0
H725 H 0.79703 0.51195 0.99901 0.0
C726 C 0.74791 0.48265 0.96017 0.0
C727 C 0.71945 0.46901 0.94307 0.0
C728 C 0.74521 0.49473 0.99487 0.0
C729 C 0.68889 0.46603 0.96153 0.0
C730 C 0.68619 0.47742 0.99594 0.0
C731 C 0.71055 0.50554 0.04647 0.0
C732 C 0.73798 0.52103 0.06349 0.0
C733 C 0.71392 0.4924 0.01256 0.0
C734 C 0.76922 0.52285 0.0461 0.0
C735 C 0.77279 0.50991 0.01201 0.0
loop_
_geom_bond_atom_site_label_1
_geom_bond_atom_site_label_2
_geom_bond_distance
_geom_bond_site_symmetry_2
_ccdc_geom_bond_type
O0 Cd1 2.223 . S
O0 C8 1.315 . S
Cd1 O0 2.223 . S
Cd1 O4 2.297 . S
Cd1 O5 2.439 . S
Cd1 O11 2.240 1_455 S
Cd2 O3 2.240 . S
Cd2 O10 2.223 1_455 S
Cd2 O12 2.297 . S
Cd2 O13 2.439 . S
O3 Cd2 2.240 . S
O3 C8 1.279 . S
O4 Cd1 2.297 . S
O4 C6 1.247 . S
O5 Cd1 2.439 . S
O5 C6 1.208 . S
C6 O4 1.247 . S
C6 O5 1.208 . S
C7 O12 1.247 . S
C7 O13 1.208 . S
C8 O0 1.315 . S
C8 O3 1.279 . S
C9 O10 1.315 . S
C9 O11 1.279 . S
O10 Cd2 2.223 1_655 S
O10 C9 1.315 . S
O11 Cd1 2.240 1_655 S
O11 C9 1.279 . S
O12 Cd2 2.297 . S
O12 C7 1.247 . S
O13 Cd2 2.439 . S
O13 C7 1.208 . S
O14 Cd15 2.223 . S
O14 C22 1.315 . S
Cd15 O14 2.223 . S
Cd15 O18 2.297 . S
Cd15 O19 2.439 . S
Cd15 O25 2.240 1_545 S
Cd16 O17 2.240 . S
Cd16 O24 2.223 1_545 S
Cd16 O26 2.297 . S
Cd16 O27 2.439 . S
O17 Cd16 2.240 . S
O17 C22 1.279 . S
O18 Cd15 2.297 . S
O18 C20 1.247 . S
O19 Cd15 2.439 . S
O19 C20 1.208 . S
C20 O18 1.247 . S
C20 O19 1.208 . S
C21 O26 1.247 . S
C21 O27 1.208 . S
C22 O14 1.315 . S
C22 O17 1.279 . S
C23 O24 1.315 . S
C23 O25 1.279 . S
O24 Cd16 2.223 1_565 S
O24 C23 1.315 . S
O25 Cd15 2.240 1_565 S
O25 C23 1.279 . S
O26 Cd16 2.297 . S
O26 C21 1.247 . S
O27 Cd16 2.439 . S
O27 C21 1.208 . S
O28 Cd29 2.223 . S
O28 C36 1.315 . S
Cd29 O28 2.223 . S
Cd29 O32 2.297 . S
Cd29 O33 2.439 . S
Cd29 O39 2.240 1_655 S
Cd30 O31 2.240 . S
Cd30 O38 2.223 1_655 S
Cd30 O40 2.297 . S
Cd30 O41 2.439 . S
O31 Cd30 2.240 . S
O31 C36 1.279 . S
O32 Cd29 2.297 . S
O32 C34 1.247 . S
O33 Cd29 2.439 . S
O33 C34 1.208 . S
C34 O32 1.247 . S
C34 O33 1.208 . S
C35 O40 1.247 . S
C35 O41 1.208 . S
C36 O28 1.315 . S
C36 O31 1.279 . S
C37 O38 1.315 . S
C37 O39 1.279 . S
O38 Cd30 2.223 1_455 S
O38 C37 1.315 . S
O39 Cd29 2.240 1_455 S
O39 C37 1.279 . S
O40 Cd30 2.297 . S
O40 C35 1.247 . S
O41 Cd30 2.439 . S
O41 C35 1.208 . S
O42 Cd43 2.223 . S
O42 C50 1.315 . S
Cd43 O42 2.223 . S
Cd43 O46 2.297 . S
Cd43 O47 2.439 . S
Cd43 O53 2.240 1_565 S
Cd44 O45 2.240 . S
Cd44 O52 2.223 1_565 S
Cd44 O54 2.297 . S
Cd44 O55 2.439 . S
O45 Cd44 2.240 . S
O45 C50 1.279 . S
O46 Cd43 2.297 . S
O46 C48 1.247 . S
O47 Cd43 2.439 . S
O47 C48 1.208 . S
C48 O46 1.247 . S
C48 O47 1.208 . S
C49 O54 1.247 . S
C49 O55 1.208 . S
C50 O42 1.315 . S
C50 O45 1.279 . S
C51 O52 1.315 . S
C51 O53 1.279 . S
O52 Cd44 2.223 1_545 S
O52 C51 1.315 . S
O53 Cd43 2.240 1_545 S
O53 C51 1.279 . S
O54 Cd44 2.297 . S
O54 C49 1.247 . S
O55 Cd44 2.439 . S
O55 C49 1.208 . S
O56 Cd57 2.223 . S
O56 C64 1.315 . S
Cd57 O56 2.223 . S
Cd57 O60 2.297 . S
Cd57 O61 2.439 . S
Cd57 O67 2.240 1_455 S
Cd58 O59 2.240 . S
Cd58 O66 2.223 1_455 S
Cd58 O68 2.297 . S
Cd58 O69 2.439 . S
O59 Cd58 2.240 . S
O59 C64 1.279 . S
O60 Cd57 2.297 . S
O60 C62 1.247 . S
O61 Cd57 2.439 . S
O61 C62 1.208 . S
C62 O60 1.247 . S
C62 O61 1.208 . S
C63 O68 1.247 . S
C63 O69 1.208 . S
C64 O56 1.315 . S
C64 O59 1.279 . S
C65 O66 1.315 . S
C65 O67 1.279 . S
O66 Cd58 2.223 1_655 S
O66 C65 1.315 . S
O67 Cd57 2.240 1_655 S
O67 C65 1.279 . S
O68 Cd58 2.297 . S
O68 C63 1.247 . S
O69 Cd58 2.439 . S
O69 C63 1.208 . S
O70 Cd71 2.223 . S
O70 C78 1.315 . S
Cd71 O70 2.223 . S
Cd71 O74 2.297 . S
Cd71 O75 2.439 . S
Cd71 O81 2.240 1_545 S
Cd72 O73 2.240 . S
Cd72 O80 2.223 1_545 S
Cd72 O82 2.297 . S
Cd72 O83 2.439 . S
O73 Cd72 2.240 . S
O73 C78 1.279 . S
O74 Cd71 2.297 . S
O74 C76 1.247 . S
O75 Cd71 2.439 . S
O75 C76 1.208 . S
C76 O74 1.247 . S
C76 O75 1.208 . S
C77 O82 1.247 . S
C77 O83 1.208 . S
C78 O70 1.315 . S
C78 O73 1.279 . S
C79 O80 1.315 . S
C79 O81 1.279 . S
O80 Cd72 2.223 1_565 S
O80 C79 1.315 . S
O81 Cd71 2.240 1_565 S
O81 C79 1.279 . S
O82 Cd72 2.297 . S
O82 C77 1.247 . S
O83 Cd72 2.439 . S
O83 C77 1.208 . S
O84 Cd85 2.223 . S
O84 C92 1.315 . S
Cd85 O84 2.223 . S
Cd85 O88 2.297 . S
Cd85 O89 2.439 . S
Cd85 O95 2.240 1_655 S
Cd86 O87 2.240 . S
Cd86 O94 2.223 1_655 S
Cd86 O96 2.297 . S
Cd86 O97 2.439 . S
O87 Cd86 2.240 . S
O87 C92 1.279 . S
O88 Cd85 2.297 . S
O88 C90 1.247 . S
O89 Cd85 2.439 . S
O89 C90 1.208 . S
C90 O88 1.247 . S
C90 O89 1.208 . S
C91 O96 1.247 . S
C91 O97 1.208 . S
C92 O84 1.315 . S
C92 O87 1.279 . S
C93 O94 1.315 . S
C93 O95 1.279 . S
O94 Cd86 2.223 1_455 S
O94 C93 1.315 . S
O95 Cd85 2.240 1_455 S
O95 C93 1.279 . S
O96 Cd86 2.297 . S
O96 C91 1.247 . S
O97 Cd86 2.439 . S
O97 C91 1.208 . S
O98 Cd99 2.223 . S
O98 C106 1.315 . S
Cd99 O98 2.223 . S
Cd99 O102 2.297 . S
Cd99 O103 2.439 . S
Cd99 O109 2.240 1_565 S
Cd100 O101 2.240 . S
Cd100 O108 2.223 1_565 S
Cd100 O110 2.297 . S
Cd100 O111 2.439 . S
O101 Cd100 2.240 . S
O101 C106 1.279 . S
O102 Cd99 2.297 . S
O102 C104 1.247 . S
O103 Cd99 2.439 . S
O103 C104 1.208 . S
C104 O102 1.247 . S
C104 O103 1.208 . S
C105 O110 1.247 . S
C105 O111 1.208 . S
C106 O98 1.315 . S
C106 O101 1.279 . S
C107 O108 1.315 . S
C107 O109 1.279 . S
O108 Cd100 2.223 1_545 S
O108 C107 1.315 . S
O109 Cd99 2.240 1_545 S
O109 C107 1.279 . S
O110 Cd100 2.297 . S
O110 C105 1.247 . S
O111 Cd100 2.439 . S
O111 C105 1.208 . S
O112 Cd113 2.223 . S
O112 C120 1.315 . S
Cd113 O112 2.223 . S
Cd113 O116 2.297 . S
Cd113 O117 2.439 . S
Cd113 O123 2.240 . S
Cd114 O115 2.240 . S
Cd114 O122 2.223 . S
Cd114 O124 2.297 . S
Cd114 O125 2.439 . S
O115 Cd114 2.240 . S
O115 C120 1.279 . S
O116 Cd113 2.297 . S
O116 C118 1.247 . S
O117 Cd113 2.439 . S
O117 C118 1.208 . S
C118 O116 1.247 . S
C118 O117 1.208 . S
C119 O124 1.247 . S
C119 O125 1.208 . S
C120 O112 1.315 . S
C120 O115 1.279 . S
C121 O122 1.315 . S
C121 O123 1.279 . S
O122 Cd114 2.223 . S
O122 C121 1.315 . S
O123 Cd113 2.240 . S
O123 C121 1.279 . S
O124 Cd114 2.297 . S
O124 C119 1.247 . S
O125 Cd114 2.439 . S
O125 C119 1.208 . S
O126 Cd127 2.223 . S
O126 C134 1.315 . S
Cd127 O126 2.223 . S
Cd127 O130 2.297 . S
Cd127 O131 2.439 . S
Cd127 O137 2.240 . S
Cd128 O129 2.240 . S
Cd128 O136 2.223 . S
Cd128 O138 2.297 . S
Cd128 O139 2.439 . S
O129 Cd128 2.240 . S
O129 C134 1.279 . S
O130 Cd127 2.297 . S
O130 C132 1.247 . S
O131 Cd127 2.439 . S
O131 C132 1.208 . S
C132 O130 1.247 . S
C132 O131 1.208 . S
C133 O138 1.247 . S
C133 O139 1.208 . S
C134 O126 1.315 . S
C134 O129 1.279 . S
C135 O136 1.315 . S
C135 O137 1.279 . S
O136 Cd128 2.223 . S
O136 C135 1.315 . S
O137 Cd127 2.240 . S
O137 C135 1.279 . S
O138 Cd128 2.297 . S
O138 C133 1.247 . S
O139 Cd128 2.439 . S
O139 C133 1.208 . S
O140 Cd141 2.223 . S
O140 C148 1.315 . S
Cd141 O140 2.223 . S
Cd141 O144 2.297 . S
Cd141 O145 2.439 . S
Cd141 O151 2.240 . S
Cd142 O143 2.240 . S
Cd142 O150 2.223 . S
Cd142 O152 2.297 . S
Cd142 O153 2.439 . S
O143 Cd142 2.240 . S
O143 C148 1.279 . S
O144 Cd141 2.297 . S
O144 C146 1.247 . S
O145 Cd141 2.439 . S
O145 C146 1.208 . S
C146 O144 1.247 . S
C146 O145 1.208 . S
C147 O152 1.247 . S
C147 O153 1.208 . S
C148 O140 1.315 . S
C148 O143 1.279 . S
C149 O150 1.315 . S
C149 O151 1.279 . S
O150 Cd142 2.223 . S
O150 C149 1.315 . S
O151 Cd141 2.240 . S
O151 C149 1.279 . S
O152 Cd142 2.297 . S
O152 C147 1.247 . S
O153 Cd142 2.439 . S
O153 C147 1.208 . S
O154 Cd155 2.223 . S
O154 C162 1.315 . S
Cd155 O154 2.223 . S
Cd155 O158 2.297 . S
Cd155 O159 2.439 . S
Cd155 O165 2.240 . S
Cd156 O157 2.240 . S
Cd156 O164 2.223 . S
Cd156 O166 2.297 . S
Cd156 O167 2.439 . S
O157 Cd156 2.240 . S
O157 C162 1.279 . S
O158 Cd155 2.297 . S
O158 C160 1.247 . S
O159 Cd155 2.439 . S
O159 C160 1.208 . S
C160 O158 1.247 . S
C160 O159 1.208 . S
C161 O166 1.247 . S
C161 O167 1.208 . S
C162 O154 1.315 . S
C162 O157 1.279 . S
C163 O164 1.315 . S
C163 O165 1.279 . S
O164 Cd156 2.223 . S
O164 C163 1.315 . S
O165 Cd155 2.240 . S
O165 C163 1.279 . S
O166 Cd156 2.297 . S
O166 C161 1.247 . S
O167 Cd156 2.439 . S
O167 C161 1.208 . S
O168 Cd169 2.223 . S
O168 C176 1.315 . S
Cd169 O168 2.223 . S
Cd169 O172 2.297 . S
Cd169 O173 2.439 . S
Cd169 O179 2.240 . S
Cd170 O171 2.240 . S
Cd170 O178 2.223 . S
Cd170 O180 2.297 . S
Cd170 O181 2.439 . S
O171 Cd170 2.240 . S
O171 C176 1.279 . S
O172 Cd169 2.297 . S
O172 C174 1.247 . S
O173 Cd169 2.439 . S
O173 C174 1.208 . S
C174 O172 1.247 . S
C174 O173 1.208 . S
C175 O180 1.247 . S
C175 O181 1.208 . S
C176 O168 1.315 . S
C176 O171 1.279 . S
C177 O178 1.315 . S
C177 O179 1.279 . S
O178 Cd170 2.223 . S
O178 C177 1.315 . S
O179 Cd169 2.240 . S
O179 C177 1.279 . S
O180 Cd170 2.297 . S
O180 C175 1.247 . S
O181 Cd170 2.439 . S
O181 C175 1.208 . S
O182 Cd183 2.223 . S
O182 C190 1.315 . S
Cd183 O182 2.223 . S
Cd183 O186 2.297 . S
Cd183 O187 2.439 . S
Cd183 O193 2.240 . S
Cd184 O185 2.240 . S
Cd184 O192 2.223 . S
Cd184 O194 2.297 . S
Cd184 O195 2.439 . S
O185 Cd184 2.240 . S
O185 C190 1.279 . S
O186 Cd183 2.297 . S
O186 C188 1.247 . S
O187 Cd183 2.439 . S
O187 C188 1.208 . S
C188 O186 1.247 . S
C188 O187 1.208 . S
C189 O194 1.247 . S
C189 O195 1.208 . S
C190 O182 1.315 . S
C190 O185 1.279 . S
C191 O192 1.315 . S
C191 O193 1.279 . S
O192 Cd184 2.223 . S
O192 C191 1.315 . S
O193 Cd183 2.240 . S
O193 C191 1.279 . S
O194 Cd184 2.297 . S
O194 C189 1.247 . S
O195 Cd184 2.439 . S
O195 C189 1.208 . S
O196 Cd197 2.223 . S
O196 C204 1.315 . S
Cd197 O196 2.223 . S
Cd197 O200 2.297 . S
Cd197 O201 2.439 . S
Cd197 O207 2.240 . S
Cd198 O199 2.240 . S
Cd198 O206 2.223 . S
Cd198 O208 2.297 . S
Cd198 O209 2.439 . S
O199 Cd198 2.240 . S
O199 C204 1.279 . S
O200 Cd197 2.297 . S
O200 C202 1.247 . S
O201 Cd197 2.439 . S
O201 C202 1.208 . S
C202 O200 1.247 . S
C202 O201 1.208 . S
C203 O208 1.247 . S
C203 O209 1.208 . S
C204 O196 1.315 . S
C204 O199 1.279 . S
C205 O206 1.315 . S
C205 O207 1.279 . S
O206 Cd198 2.223 . S
O206 C205 1.315 . S
O207 Cd197 2.240 . S
O207 C205 1.279 . S
O208 Cd198 2.297 . S
O208 C203 1.247 . S
O209 Cd198 2.439 . S
O209 C203 1.208 . S
O210 Cd211 2.223 . S
O210 C218 1.315 . S
Cd211 O210 2.223 . S
Cd211 O214 2.297 . S
Cd211 O215 2.439 . S
Cd211 O221 2.240 . S
Cd212 O213 2.240 . S
Cd212 O220 2.223 . S
Cd212 O222 2.297 . S
Cd212 O223 2.439 . S
O213 Cd212 2.240 . S
O213 C218 1.279 . S
O214 Cd211 2.297 . S
O214 C216 1.247 . S
O215 Cd211 2.439 . S
O215 C216 1.208 . S
C216 O214 1.247 . S
C216 O215 1.208 . S
C217 O222 1.247 . S
C217 O223 1.208 . S
C218 O210 1.315 . S
C218 O213 1.279 . S
C219 O220 1.315 . S
C219 O221 1.279 . S
O220 Cd212 2.223 . S
O220 C219 1.315 . S
O221 Cd211 2.240 . S
O221 C219 1.279 . S
O222 Cd212 2.297 . S
O222 C217 1.247 . S
O223 Cd212 2.439 . S
O223 C217 1.208 . S
H224 C230 0.930 . S
H225 C233 0.930 . S
H226 C234 0.930 . S
H227 C235 0.930 . S
H228 C238 0.930 . S
H229 C239 0.930 . S
C230 H224 0.930 . S
C230 C231 1.355 . S
C230 C232 1.415 . S
C231 C230 1.355 . S
C231 C233 1.419 . S
C232 C230 1.415 . S
C232 C237 1.425 . S
C232 C239 1.409 . S
C233 H225 0.930 . S
C233 C231 1.419 . S
C233 C234 1.362 . S
C234 H226 0.930 . S
C234 C233 1.362 . S
C234 C237 1.409 . S
C235 H227 0.930 . S
C235 C236 1.355 . S
C235 C237 1.415 . S
C236 C235 1.355 . S
C236 C238 1.419 . S
C237 C232 1.425 . S
C237 C234 1.409 . S
C237 C235 1.415 . S
C238 H228 0.930 . S
C238 C236 1.419 . S
C238 C239 1.362 . S
C239 H229 0.930 . S
C239 C232 1.409 . S
C239 C238 1.362 . S
H240 C246 0.930 . S
H241 C249 0.930 . S
H242 C250 0.930 . S
H243 C251 0.930 . S
H244 C254 0.930 . S
H245 C255 0.930 . S
C246 H240 0.930 . S
C246 C247 1.355 . S
C246 C248 1.415 . S
C247 C246 1.355 . S
C247 C249 1.419 . S
C248 C246 1.415 . S
C248 C253 1.425 . S
C248 C255 1.409 . S
C249 H241 0.930 . S
C249 C247 1.419 . S
C249 C250 1.362 . S
C250 H242 0.930 . S
C250 C249 1.362 . S
C250 C253 1.409 . S
C251 H243 0.930 . S
C251 C252 1.355 . S
C251 C253 1.415 . S
C252 C251 1.355 . S
C252 C254 1.419 . S
C253 C248 1.425 . S
C253 C250 1.409 . S
C253 C251 1.415 . S
C254 H244 0.930 . S
C254 C252 1.419 . S
C254 C255 1.362 . S
C255 H245 0.930 . S
C255 C248 1.409 . S
C255 C254 1.362 . S
H256 C262 0.930 . S
H257 C265 0.930 . S
H258 C266 0.930 . S
H259 C267 0.930 . S
H260 C270 0.930 . S
H261 C271 0.930 . S
C262 H256 0.930 . S
C262 C263 1.355 . S
C262 C264 1.415 . S
C263 C262 1.355 . S
C263 C265 1.419 . S
C264 C262 1.415 . S
C264 C269 1.425 . S
C264 C271 1.409 . S
C265 H257 0.930 . S
C265 C263 1.419 . S
C265 C266 1.362 . S
C266 H258 0.930 . S
C266 C265 1.362 . S
C266 C269 1.409 . S
C267 H259 0.930 . S
C267 C268 1.355 . S
C267 C269 1.415 . S
C268 C267 1.355 . S
C268 C270 1.419 . S
C269 C264 1.425 . S
C269 C266 1.409 . S
C269 C267 1.415 . S
C270 H260 0.930 . S
C270 C268 1.419 . S
C270 C271 1.362 . S
C271 H261 0.930 . S
C271 C264 1.409 . S
C271 C270 1.362 . S
H272 C278 0.930 . S
H273 C281 0.930 . S
H274 C282 0.930 . S
H275 C283 0.930 . S
H276 C286 0.930 . S
H277 C287 0.930 . S
C278 H272 0.930 . S
C278 C279 1.355 . S
C278 C280 1.415 . S
C279 C278 1.355 . S
C279 C281 1.419 . S
C280 C278 1.415 . S
C280 C285 1.425 . S
C280 C287 1.409 . S
C281 H273 0.930 . S
C281 C279 1.419 . S
C281 C282 1.362 . S
C282 H274 0.930 . S
C282 C281 1.362 . S
C282 C285 1.409 . S
C283 H275 0.930 . S
C283 C284 1.355 . S
C283 C285 1.415 . S
C284 C283 1.355 . S
C284 C286 1.419 . S
C285 C280 1.425 . S
C285 C282 1.409 . S
C285 C283 1.415 . S
C286 H276 0.930 . S
C286 C284 1.419 . S
C286 C287 1.362 . S
C287 H277 0.930 . S
C287 C280 1.409 . S
C287 C286 1.362 . S
H288 C294 0.930 . S
H289 C297 0.930 . S
H290 C298 0.930 . S
H291 C299 0.930 . S
H292 C302 0.930 . S
H293 C303 0.930 . S
C294 H288 0.930 . S
C294 C295 1.355 . S
C294 C296 1.415 . S
C295 C294 1.355 . S
C295 C297 1.419 . S
C296 C294 1.415 . S
C296 C301 1.425 . S
C296 C303 1.409 . S
C297 H289 0.930 . S
C297 C295 1.419 . S
C297 C298 1.362 . S
C298 H290 0.930 . S
C298 C297 1.362 . S
C298 C301 1.409 . S
C299 H291 0.930 . S
C299 C300 1.355 . S
C299 C301 1.415 . S
C300 C299 1.355 . S
C300 C302 1.419 . S
C301 C296 1.425 . S
C301 C298 1.409 . S
C301 C299 1.415 . S
C302 H292 0.930 . S
C302 C300 1.419 . S
C302 C303 1.362 . S
C303 H293 0.930 . S
C303 C296 1.409 . S
C303 C302 1.362 . S
H304 C310 0.930 . S
H305 C313 0.930 . S
H306 C314 0.930 . S
H307 C315 0.930 . S
H308 C318 0.930 . S
H309 C319 0.930 . S
C310 H304 0.930 . S
C310 C311 1.355 . S
C310 C312 1.415 . S
C311 C310 1.355 . S
C311 C313 1.419 . S
C312 C310 1.415 . S
C312 C317 1.425 . S
C312 C319 1.409 . S
C313 H305 0.930 . S
C313 C311 1.419 . S
C313 C314 1.362 . S
C314 H306 0.930 . S
C314 C313 1.362 . S
C314 C317 1.409 . S
C315 H307 0.930 . S
C315 C316 1.355 . S
C315 C317 1.415 . S
C316 C315 1.355 . S
C316 C318 1.419 . S
C317 C312 1.425 . S
C317 C314 1.409 . S
C317 C315 1.415 . S
C318 H308 0.930 . S
C318 C316 1.419 . S
C318 C319 1.362 . S
C319 H309 0.930 . S
C319 C312 1.409 . S
C319 C318 1.362 . S
H320 C326 0.930 . S
H321 C329 0.930 . S
H322 C330 0.930 . S
H323 C331 0.930 . S
H324 C334 0.930 . S
H325 C335 0.930 . S
C326 H320 0.930 . S
C326 C327 1.355 . S
C326 C328 1.415 . S
C327 C326 1.355 . S
C327 C329 1.419 . S
C328 C326 1.415 . S
C328 C333 1.425 . S
C328 C335 1.409 . S
C329 H321 0.930 . S
C329 C327 1.419 . S
C329 C330 1.362 . S
C330 H322 0.930 . S
C330 C329 1.362 . S
C330 C333 1.409 . S
C331 H323 0.930 . S
C331 C332 1.355 . S
C331 C333 1.415 . S
C332 C331 1.355 . S
C332 C334 1.419 . S
C333 C328 1.425 . S
C333 C330 1.409 . S
C333 C331 1.415 . S
C334 H324 0.930 . S
C334 C332 1.419 . S
C334 C335 1.362 . S
C335 H325 0.930 . S
C335 C328 1.409 . S
C335 C334 1.362 . S
H336 C342 0.930 . S
H337 C345 0.930 . S
H338 C346 0.930 . S
H339 C347 0.930 . S
H340 C350 0.930 . S
H341 C351 0.930 . S
C342 H336 0.930 . S
C342 C343 1.355 . S
C342 C344 1.415 . S
C343 C342 1.355 . S
C343 C345 1.419 . S
C344 C342 1.415 . S
C344 C349 1.425 . S
C344 C351 1.409 . S
C345 H337 0.930 . S
C345 C343 1.419 . S
C345 C346 1.362 . S
C346 H338 0.930 . S
C346 C345 1.362 . S
C346 C349 1.409 . S
C347 H339 0.930 . S
C347 C348 1.355 . S
C347 C349 1.415 . S
C348 C347 1.355 . S
C348 C350 1.419 . S
C349 C344 1.425 . S
C349 C346 1.409 . S
C349 C347 1.415 . S
C350 H340 0.930 . S
C350 C348 1.419 . S
C350 C351 1.362 . S
C351 H341 0.930 . S
C351 C344 1.409 . S
C351 C350 1.362 . S
H352 C358 0.930 . S
H353 C361 0.930 . S
H354 C362 0.930 . S
H355 C363 0.930 . S
H356 C366 0.930 . S
H357 C367 0.930 . S
C358 H352 0.930 . S
C358 C359 1.355 . S
C358 C360 1.415 . S
C359 C358 1.355 . S
C359 C361 1.419 . S
C360 C358 1.415 . S
C360 C365 1.425 . S
C360 C367 1.409 . S
C361 H353 0.930 . S
C361 C359 1.419 . S
C361 C362 1.362 . S
C362 H354 0.930 . S
C362 C361 1.362 . S
C362 C365 1.409 . S
C363 H355 0.930 . S
C363 C364 1.355 . S
C363 C365 1.415 . S
C364 C363 1.355 . S
C364 C366 1.419 . S
C365 C360 1.425 . S
C365 C362 1.409 . S
C365 C363 1.415 . S
C366 H356 0.930 . S
C366 C364 1.419 . S
C366 C367 1.362 . S
C367 H357 0.930 . S
C367 C360 1.409 . S
C367 C366 1.362 . S
H368 C374 0.930 . S
H369 C377 0.930 . S
H370 C378 0.930 . S
H371 C379 0.930 . S
H372 C382 0.930 . S
H373 C383 0.930 . S
C374 H368 0.930 . S
C374 C375 1.355 . S
C374 C376 1.415 . S
C375 C374 1.355 . S
C375 C377 1.419 . S
C376 C374 1.415 . S
C376 C381 1.425 . S
C376 C383 1.409 . S
C377 H369 0.930 . S
C377 C375 1.419 . S
C377 C378 1.362 . S
C378 H370 0.930 . S
C378 C377 1.362 . S
C378 C381 1.409 . S
C379 H371 0.930 . S
C379 C380 1.355 . S
C379 C381 1.415 . S
C380 C379 1.355 . S
C380 C382 1.419 . S
C381 C376 1.425 . S
C381 C378 1.409 . S
C381 C379 1.415 . S
C382 H372 0.930 . S
C382 C380 1.419 . S
C382 C383 1.362 . S
C383 H373 0.930 . S
C383 C376 1.409 . S
C383 C382 1.362 . S
H384 C390 0.930 . S
H385 C393 0.930 . S
H386 C394 0.930 . S
H387 C395 0.930 . S
H388 C398 0.930 . S
H389 C399 0.930 . S
C390 H384 0.930 . S
C390 C391 1.355 . S
C390 C392 1.415 . S
C391 C390 1.355 . S
C391 C393 1.419 . S
C392 C390 1.415 . S
C392 C397 1.425 . S
C392 C399 1.409 . S
C393 H385 0.930 . S
C393 C391 1.419 . S
C393 C394 1.362 . S
C394 H386 0.930 . S
C394 C393 1.362 . S
C394 C397 1.409 . S
C395 H387 0.930 . S
C395 C396 1.355 . S
C395 C397 1.415 . S
C396 C395 1.355 . S
C396 C398 1.419 . S
C397 C392 1.425 . S
C397 C394 1.409 . S
C397 C395 1.415 . S
C398 H388 0.930 . S
C398 C396 1.419 . S
C398 C399 1.362 . S
C399 H389 0.930 . S
C399 C392 1.409 . S
C399 C398 1.362 . S
H400 C406 0.930 . S
H401 C409 0.930 . S
H402 C410 0.930 . S
H403 C411 0.930 . S
H404 C414 0.930 . S
H405 C415 0.930 . S
C406 H400 0.930 . S
C406 C407 1.355 . S
C406 C408 1.415 . S
C407 C406 1.355 . S
C407 C409 1.419 . S
C408 C406 1.415 . S
C408 C413 1.425 . S
C408 C415 1.409 . S
C409 H401 0.930 . S
C409 C407 1.419 . S
C409 C410 1.362 . S
C410 H402 0.930 . S
C410 C409 1.362 . S
C410 C413 1.409 . S
C411 H403 0.930 . S
C411 C412 1.355 . S
C411 C413 1.415 . S
C412 C411 1.355 . S
C412 C414 1.419 . S
C413 C408 1.425 . S
C413 C410 1.409 . S
C413 C411 1.415 . S
C414 H404 0.930 . S
C414 C412 1.419 . S
C414 C415 1.362 . S
C415 H405 0.930 . S
C415 C408 1.409 . S
C415 C414 1.362 . S
H416 C422 0.930 . S
H417 C425 0.930 . S
H418 C426 0.930 . S
H419 C427 0.930 . S
H420 C430 0.930 . S
H421 C431 0.930 . S
C422 H416 0.930 . S
C422 C423 1.355 . S
C422 C424 1.415 . S
C423 C422 1.355 . S
C423 C425 1.419 . S
C424 C422 1.415 . S
C424 C429 1.425 . S
C424 C431 1.409 . S
C425 H417 0.930 . S
C425 C423 1.419 . S
C425 C426 1.362 . S
C426 H418 0.930 . S
C426 C425 1.362 . S
C426 C429 1.409 . S
C427 H419 0.930 . S
C427 C428 1.355 . S
C427 C429 1.415 . S
C428 C427 1.355 . S
C428 C430 1.419 . S
C429 C424 1.425 . S
C429 C426 1.409 . S
C429 C427 1.415 . S
C430 H420 0.930 . S
C430 C428 1.419 . S
C430 C431 1.362 . S
C431 H421 0.930 . S
C431 C424 1.409 . S
C431 C430 1.362 . S
H432 C438 0.930 . S
H433 C441 0.930 . S
H434 C442 0.930 . S
H435 C443 0.930 . S
H436 C446 0.930 . S
H437 C447 0.930 . S
C438 H432 0.930 . S
C438 C439 1.355 . S
C438 C440 1.415 . S
C439 C438 1.355 . S
C439 C441 1.419 . S
C440 C438 1.415 . S
C440 C445 1.425 . S
C440 C447 1.409 . S
C441 H433 0.930 . S
C441 C439 1.419 . S
C441 C442 1.362 . S
C442 H434 0.930 . S
C442 C441 1.362 . S
C442 C445 1.409 . S
C443 H435 0.930 . S
C443 C444 1.355 . S
C443 C445 1.415 . S
C444 C443 1.355 . S
C444 C446 1.419 . S
C445 C440 1.425 . S
C445 C442 1.409 . S
C445 C443 1.415 . S
C446 H436 0.930 . S
C446 C444 1.419 . S
C446 C447 1.362 . S
C447 H437 0.930 . S
C447 C440 1.409 . S
C447 C446 1.362 . S
H448 C454 0.930 . S
H449 C457 0.930 . S
H450 C458 0.930 . S
H451 C459 0.930 . S
H452 C462 0.930 . S
H453 C463 0.930 . S
C454 H448 0.930 . S
C454 C455 1.355 . S
C454 C456 1.415 . S
C455 C454 1.355 . S
C455 C457 1.419 . S
C456 C454 1.415 . S
C456 C461 1.425 . S
C456 C463 1.409 . S
C457 H449 0.930 . S
C457 C455 1.419 . S
C457 C458 1.362 . S
C458 H450 0.930 . S
C458 C457 1.362 . S
C458 C461 1.409 . S
C459 H451 0.930 . S
C459 C460 1.355 . S
C459 C461 1.415 . S
C460 C459 1.355 . S
C460 C462 1.419 . S
C461 C456 1.425 . S
C461 C458 1.409 . S
C461 C459 1.415 . S
C462 H452 0.930 . S
C462 C460 1.419 . S
C462 C463 1.362 . S
C463 H453 0.930 . S
C463 C456 1.409 . S
C463 C462 1.362 . S
H464 C470 0.930 . S
H465 C473 0.930 . S
H466 C474 0.930 . S
H467 C475 0.930 . S
H468 C478 0.930 . S
H469 C479 0.930 . S
C470 H464 0.930 . S
C470 C471 1.355 . S
C470 C472 1.415 . S
C471 C470 1.355 . S
C471 C473 1.419 . S
C472 C470 1.415 . S
C472 C477 1.425 . S
C472 C479 1.409 . S
C473 H465 0.930 . S
C473 C471 1.419 . S
C473 C474 1.362 . S
C474 H466 0.930 . S
C474 C473 1.362 . S
C474 C477 1.409 . S
C475 H467 0.930 . S
C475 C476 1.355 . S
C475 C477 1.415 . S
C476 C475 1.355 . S
C476 C478 1.419 . S
C477 C472 1.425 . S
C477 C474 1.409 . S
C477 C475 1.415 . S
C478 H468 0.930 . S
C478 C476 1.419 . S
C478 C479 1.362 . S
C479 H469 0.930 . S
C479 C472 1.409 . S
C479 C478 1.362 . S
H480 C486 0.930 . S
H481 C489 0.930 . S
H482 C490 0.930 . S
H483 C491 0.930 . S
H484 C494 0.930 . S
H485 C495 0.930 . S
C486 H480 0.930 . S
C486 C487 1.355 . S
C486 C488 1.415 . S
C487 C486 1.355 . S
C487 C489 1.419 . S
C488 C486 1.415 . S
C488 C493 1.425 . S
C488 C495 1.409 . S
C489 H481 0.930 . S
C489 C487 1.419 . S
C489 C490 1.362 . S
C490 H482 0.930 . S
C490 C489 1.362 . S
C490 C493 1.409 . S
C491 H483 0.930 . S
C491 C492 1.355 . S
C491 C493 1.415 . S
C492 C491 1.355 . S
C492 C494 1.419 . S
C493 C488 1.425 . S
C493 C490 1.409 . S
C493 C491 1.415 . S
C494 H484 0.930 . S
C494 C492 1.419 . S
C494 C495 1.362 . S
C495 H485 0.930 . S
C495 C488 1.409 . S
C495 C494 1.362 . S
H496 C502 0.930 . S
H497 C505 0.930 . S
H498 C506 0.930 . S
H499 C507 0.930 . S
H500 C510 0.930 . S
H501 C511 0.930 . S
C502 H496 0.930 . S
C502 C503 1.355 . S
C502 C504 1.415 . S
C503 C502 1.355 . S
C503 C505 1.419 . S
C504 C502 1.415 . S
C504 C509 1.425 . S
C504 C511 1.409 . S
C505 H497 0.930 . S
C505 C503 1.419 . S
C505 C506 1.362 . S
C506 H498 0.930 . S
C506 C505 1.362 . S
C506 C509 1.409 . S
C507 H499 0.930 . S
C507 C508 1.355 . S
C507 C509 1.415 . S
C508 C507 1.355 . S
C508 C510 1.419 . S
C509 C504 1.425 . S
C509 C506 1.409 . S
C509 C507 1.415 . S
C510 H500 0.930 . S
C510 C508 1.419 . S
C510 C511 1.362 . S
C511 H501 0.930 . S
C511 C504 1.409 . S
C511 C510 1.362 . S
H512 C518 0.930 . S
H513 C521 0.930 . S
H514 C522 0.930 . S
H515 C523 0.930 . S
H516 C526 0.930 . S
H517 C527 0.930 . S
C518 H512 0.930 . S
C518 C519 1.355 . S
C518 C520 1.415 . S
C519 C518 1.355 . S
C519 C521 1.419 . S
C520 C518 1.415 . S
C520 C525 1.425 . S
C520 C527 1.409 . S
C521 H513 0.930 . S
C521 C519 1.419 . S
C521 C522 1.362 . S
C522 H514 0.930 . S
C522 C521 1.362 . S
C522 C525 1.409 . S
C523 H515 0.930 . S
C523 C524 1.355 . S
C523 C525 1.415 . S
C524 C523 1.355 . S
C524 C526 1.419 . S
C525 C520 1.425 . S
C525 C522 1.409 . S
C525 C523 1.415 . S
C526 H516 0.930 . S
C526 C524 1.419 . S
C526 C527 1.362 . S
C527 H517 0.930 . S
C527 C520 1.409 . S
C527 C526 1.362 . S
H528 C534 0.930 . S
H529 C537 0.930 . S
H530 C538 0.930 . S
H531 C539 0.930 . S
H532 C542 0.930 . S
H533 C543 0.930 . S
C534 H528 0.930 . S
C534 C535 1.355 . S
C534 C536 1.415 . S
C535 C534 1.355 . S
C535 C537 1.419 . S
C536 C534 1.415 . S
C536 C541 1.425 . S
C536 C543 1.409 . S
C537 H529 0.930 . S
C537 C535 1.419 . S
C537 C538 1.362 . S
C538 H530 0.930 . S
C538 C537 1.362 . S
C538 C541 1.409 . S
C539 H531 0.930 . S
C539 C540 1.355 . S
C539 C541 1.415 . S
C540 C539 1.355 . S
C540 C542 1.419 . S
C541 C536 1.425 . S
C541 C538 1.409 . S
C541 C539 1.415 . S
C542 H532 0.930 . S
C542 C540 1.419 . S
C542 C543 1.362 . S
C543 H533 0.930 . S
C543 C536 1.409 . S
C543 C542 1.362 . S
H544 C550 0.930 . S
H545 C553 0.930 . S
H546 C554 0.930 . S
H547 C555 0.930 . S
H548 C558 0.930 . S
H549 C559 0.930 . S
C550 H544 0.930 . S
C550 C551 1.355 . S
C550 C552 1.415 . S
C551 C550 1.355 . S
C551 C553 1.419 . S
C552 C550 1.415 . S
C552 C557 1.425 . S
C552 C559 1.409 . S
C553 H545 0.930 . S
C553 C551 1.419 . S
C553 C554 1.362 . S
C554 H546 0.930 . S
C554 C553 1.362 . S
C554 C557 1.409 . S
C555 H547 0.930 . S
C555 C556 1.355 . S
C555 C557 1.415 . S
C556 C555 1.355 . S
C556 C558 1.419 . S
C557 C552 1.425 . S
C557 C554 1.409 . S
C557 C555 1.415 . S
C558 H548 0.930 . S
C558 C556 1.419 . S
C558 C559 1.362 . S
C559 H549 0.930 . S
C559 C552 1.409 . S
C559 C558 1.362 . S
H560 C566 0.930 . S
H561 C569 0.930 . S
H562 C570 0.930 . S
H563 C571 0.930 . S
H564 C574 0.930 . S
H565 C575 0.930 . S
C566 H560 0.930 . S
C566 C567 1.355 . S
C566 C568 1.415 . S
C567 C566 1.355 . S
C567 C569 1.419 . S
C568 C566 1.415 . S
C568 C573 1.425 . S
C568 C575 1.409 . S
C569 H561 0.930 . S
C569 C567 1.419 . S
C569 C570 1.362 . S
C570 H562 0.930 . S
C570 C569 1.362 . S
C570 C573 1.409 . S
C571 H563 0.930 . S
C571 C572 1.355 . S
C571 C573 1.415 . S
C572 C571 1.355 . S
C572 C574 1.419 . S
C573 C568 1.425 . S
C573 C570 1.409 . S
C573 C571 1.415 . S
C574 H564 0.930 . S
C574 C572 1.419 . S
C574 C575 1.362 . S
C575 H565 0.930 . S
C575 C568 1.409 . S
C575 C574 1.362 . S
H576 C582 0.930 . S
H577 C585 0.930 . S
H578 C586 0.930 . S
H579 C587 0.930 . S
H580 C590 0.930 . S
H581 C591 0.930 . S
C582 H576 0.930 . S
C582 C583 1.355 . S
C582 C584 1.415 . S
C583 C582 1.355 . S
C583 C585 1.419 . S
C584 C582 1.415 . S
C584 C589 1.425 . S
C584 C591 1.409 . S
C585 H577 0.930 . S
C585 C583 1.419 . S
C585 C586 1.362 . S
C586 H578 0.930 . S
C586 C585 1.362 . S
C586 C589 1.409 . S
C587 H579 0.930 . S
C587 C588 1.355 . S
C587 C589 1.415 . S
C588 C587 1.355 . S
C588 C590 1.419 . S
C589 C584 1.425 . S
C589 C586 1.409 . S
C589 C587 1.415 . S
C590 H580 0.930 . S
C590 C588 1.419 . S
C590 C591 1.362 . S
C591 H581 0.930 . S
C591 C584 1.409 . S
C591 C590 1.362 . S
H592 C598 0.930 . S
H593 C601 0.930 . S
H594 C602 0.930 . S
H595 C603 0.930 . S
H596 C606 0.930 . S
H597 C607 0.930 . S
C598 H592 0.930 . S
C598 C599 1.355 . S
C598 C600 1.415 . S
C599 C598 1.355 . S
C599 C601 1.419 . S
C600 C598 1.415 . S
C600 C605 1.425 . S
C600 C607 1.409 . S
C601 H593 0.930 . S
C601 C599 1.419 . S
C601 C602 1.362 . S
C602 H594 0.930 . S
C602 C601 1.362 . S
C602 C605 1.409 . S
C603 H595 0.930 . S
C603 C604 1.355 . S
C603 C605 1.415 . S
C604 C603 1.355 . S
C604 C606 1.419 . S
C605 C600 1.425 . S
C605 C602 1.409 . S
C605 C603 1.415 . S
C606 H596 0.930 . S
C606 C604 1.419 . S
C606 C607 1.362 . S
C607 H597 0.930 . S
C607 C600 1.409 . S
C607 C606 1.362 . S
H608 C614 0.930 . S
H609 C617 0.930 . S
H610 C618 0.930 . S
H611 C619 0.930 . S
H612 C622 0.930 . S
H613 C623 0.930 . S
C614 H608 0.930 . S
C614 C615 1.358 . S
C614 C616 1.415 . S
C615 C614 1.358 . S
C615 C617 1.415 1_455 S
C616 C614 1.415 . S
C616 C621 1.425 1_455 S
C616 C623 1.409 . S
C617 H609 0.930 . S
C617 C615 1.415 1_655 S
C617 C618 1.362 . S
C618 H610 0.930 . S
C618 C617 1.362 . S
C618 C621 1.409 . S
C619 H611 0.930 . S
C619 C620 1.358 . S
C619 C621 1.415 . S
C620 C619 1.358 . S
C620 C622 1.415 1_655 S
C621 C616 1.425 1_655 S
C621 C618 1.409 . S
C621 C619 1.415 . S
C622 H612 0.930 . S
C622 C620 1.415 1_455 S
C622 C623 1.362 . S
C623 H613 0.930 . S
C623 C616 1.409 . S
C623 C622 1.362 . S
H624 C630 0.930 . S
H625 C633 0.930 . S
H626 C634 0.930 . S
H627 C635 0.930 . S
H628 C638 0.930 . S
H629 C639 0.930 . S
C630 H624 0.930 . S
C630 C631 1.355 1_565 S
C630 C632 1.415 . S
C631 C630 1.355 1_545 S
C631 C633 1.419 . S
C632 C630 1.415 . S
C632 C637 1.425 1_565 S
C632 C639 1.409 . S
C633 H625 0.930 . S
C633 C631 1.419 . S
C633 C634 1.362 . S
C634 H626 0.930 . S
C634 C633 1.362 . S
C634 C637 1.409 . S
C635 H627 0.930 . S
C635 C636 1.355 1_545 S
C635 C637 1.415 . S
C636 C635 1.355 1_565 S
C636 C638 1.419 . S
C637 C632 1.425 1_545 S
C637 C634 1.409 . S
C637 C635 1.415 . S
C638 H628 0.930 . S
C638 C636 1.419 . S
C638 C639 1.362 . S
C639 H629 0.930 . S
C639 C632 1.409 . S
C639 C638 1.362 . S
H640 C646 0.930 . S
H641 C649 0.930 . S
H642 C650 0.930 . S
H643 C651 0.930 . S
H644 C654 0.930 . S
H645 C655 0.930 . S
C646 H640 0.930 . S
C646 C647 1.355 1_655 S
C646 C648 1.415 . S
C647 C646 1.355 1_455 S
C647 C649 1.419 . S
C648 C646 1.415 . S
C648 C653 1.425 1_655 S
C648 C655 1.409 . S
C649 H641 0.930 . S
C649 C647 1.419 . S
C649 C650 1.362 . S
C650 H642 0.930 . S
C650 C649 1.362 . S
C650 C653 1.409 . S
C651 H643 0.930 . S
C651 C652 1.355 1_455 S
C651 C653 1.415 . S
C652 C651 1.355 1_655 S
C652 C654 1.419 . S
C653 C648 1.425 1_455 S
C653 C650 1.409 . S
C653 C651 1.415 . S
C654 H644 0.930 . S
C654 C652 1.419 . S
C654 C655 1.362 . S
C655 H645 0.930 . S
C655 C648 1.409 . S
C655 C654 1.362 . S
H656 C662 0.930 . S
H657 C665 0.930 . S
H658 C666 0.930 . S
H659 C667 0.930 . S
H660 C670 0.930 . S
H661 C671 0.930 . S
C662 H656 0.930 . S
C662 C663 1.355 . S
C662 C664 1.415 . S
C663 C662 1.355 . S
C663 C665 1.419 1_565 S
C664 C662 1.415 . S
C664 C669 1.424 1_565 S
C664 C671 1.410 . S
C665 H657 0.930 . S
C665 C663 1.419 1_545 S
C665 C666 1.362 . S
C666 H658 0.930 . S
C666 C665 1.362 . S
C666 C669 1.410 . S
C667 H659 0.930 . S
C667 C668 1.355 . S
C667 C669 1.415 . S
C668 C667 1.355 . S
C668 C670 1.419 1_545 S
C669 C664 1.424 1_545 S
C669 C666 1.410 . S
C669 C667 1.415 . S
C670 H660 0.930 . S
C670 C668 1.419 1_565 S
C670 C671 1.362 . S
C671 H661 0.930 . S
C671 C664 1.410 . S
C671 C670 1.362 . S
H672 C678 0.930 . S
H673 C681 0.930 . S
H674 C682 0.930 . S
H675 C683 0.930 . S
H676 C686 0.930 . S
H677 C687 0.930 . S
C678 H672 0.930 . S
C678 C679 1.355 . S
C678 C680 1.415 . S
C679 C678 1.355 . S
C679 C681 1.419 . S
C680 C678 1.415 . S
C680 C685 1.425 1_556 S
C680 C687 1.409 1_556 S
C681 H673 0.930 . S
C681 C679 1.419 . S
C681 C682 1.362 . S
C682 H674 0.930 . S
C682 C681 1.362 . S
C682 C685 1.409 1_556 S
C683 H675 0.930 . S
C683 C684 1.355 . S
C683 C685 1.415 . S
C684 C683 1.355 . S
C684 C686 1.419 . S
C685 C680 1.425 1_554 S
C685 C682 1.409 1_554 S
C685 C683 1.415 . S
C686 H676 0.930 . S
C686 C684 1.419 . S
C686 C687 1.362 . S
C687 H677 0.930 . S
C687 C680 1.409 1_554 S
C687 C686 1.362 . S
H688 C694 0.930 . S
H689 C697 0.930 . S
H690 C698 0.930 . S
H691 C699 0.930 . S
H692 C702 0.930 . S
H693 C703 0.930 . S
C694 H688 0.930 . S
C694 C695 1.355 . S
C694 C696 1.415 . S
C695 C694 1.355 . S
C695 C697 1.419 . S
C696 C694 1.415 . S
C696 C701 1.425 1_556 S
C696 C703 1.409 1_556 S
C697 H689 0.930 . S
C697 C695 1.419 . S
C697 C698 1.362 . S
C698 H690 0.930 . S
C698 C697 1.362 . S
C698 C701 1.409 1_556 S
C699 H691 0.930 . S
C699 C700 1.355 . S
C699 C701 1.415 . S
C700 C699 1.355 . S
C700 C702 1.419 . S
C701 C696 1.425 1_554 S
C701 C698 1.409 1_554 S
C701 C699 1.415 . S
C702 H692 0.930 . S
C702 C700 1.419 . S
C702 C703 1.362 . S
C703 H693 0.930 . S
C703 C696 1.409 1_554 S
C703 C702 1.362 . S
H704 C710 0.930 . S
H705 C713 0.930 . S
H706 C714 0.930 . S
H707 C715 0.930 . S
H708 C718 0.930 . S
H709 C719 0.930 . S
C710 H704 0.930 . S
C710 C711 1.355 . S
C710 C712 1.415 . S
C711 C710 1.355 . S
C711 C713 1.419 . S
C712 C710 1.415 . S
C712 C717 1.425 1_554 S
C712 C719 1.409 1_554 S
C713 H705 0.930 . S
C713 C711 1.419 . S
C713 C714 1.362 . S
C714 H706 0.930 . S
C714 C713 1.362 . S
C714 C717 1.409 1_554 S
C715 H707 0.930 . S
C715 C716 1.355 . S
C715 C717 1.415 . S
C716 C715 1.355 . S
C716 C718 1.419 . S
C717 C712 1.425 1_556 S
C717 C714 1.409 1_556 S
C717 C715 1.415 . S
C718 H708 0.930 . S
C718 C716 1.419 . S
C718 C719 1.362 . S
C719 H709 0.930 . S
C719 C712 1.409 1_556 S
C719 C718 1.362 . S
H720 C726 0.930 . S
H721 C729 0.930 . S
H722 C730 0.930 . S
H723 C731 0.930 . S
H724 C734 0.930 . S
H725 C735 0.930 . S
C726 H720 0.930 . S
C726 C727 1.355 . S
C726 C728 1.415 . S
C727 C726 1.355 . S
C727 C729 1.419 . S
C728 C726 1.415 . S
C728 C733 1.425 1_556 S
C728 C735 1.409 1_556 S
C729 H721 0.930 . S
C729 C727 1.419 . S
C729 C730 1.362 . S
C730 H722 0.930 . S
C730 C729 1.362 . S
C730 C733 1.409 1_556 S
C731 H723 0.930 . S
C731 C732 1.355 . S
C731 C733 1.415 . S
C732 C731 1.355 . S
C732 C734 1.419 . S
C733 C728 1.425 1_554 S
C733 C730 1.409 1_554 S
C733 C731 1.415 . S
C734 H724 0.930 . S
C734 C732 1.419 . S
C734 C735 1.362 . S
C735 H725 0.930 . S
C735 C728 1.409 1_554 S
C735 C734 1.362 . S
C231 C8 1.564 . S
C236 C51 1.483 . S
C247 C9 1.534 . S
C252 C22 1.576 . S
C263 C23 1.513 . S
C268 C36 1.579 . S
C279 C37 1.528 . S
C284 C50 1.577 . S
C295 C64 1.579 . S
C300 C79 1.504 . S
C311 C78 1.558 . S
C316 C93 1.544 . S
C327 C92 1.556 . S
C332 C107 1.506 . S
C343 C106 1.555 . S
C348 C65 1.523 . S
C359 C120 1.579 . S
C364 C163 1.510 . S
C375 C121 1.497 . S
C380 C134 1.579 . S
C391 C135 1.495 . S
C396 C148 1.559 . S
C407 C162 1.556 . S
C412 C149 1.504 . S
C423 C191 1.491 . S
C428 C176 1.560 . S
C439 C205 1.490 . S
C444 C190 1.560 . S
C455 C204 1.560 . S
C460 C219 1.548 . S
C471 C218 1.555 . S
C476 C177 1.534 . S
C487 C6 1.316 . S
C492 C216 1.323 . S
C503 C20 1.324 . S
C508 C174 1.316 . S
C519 C188 1.327 . S
C524 C34 1.323 . S
C535 C48 1.325 . S
C540 C202 1.317 . S
C551 C132 1.326 . S
C556 C62 1.321 . S
C567 C146 1.322 . S
C572 C76 1.327 . S
C583 C90 1.326 . S
C588 C160 1.321 . S
C599 C104 1.320 . S
C604 C118 1.312 . S
C615 C7 1.581 . S
C620 C91 1.657 . S
C631 C105 1.638 1_545 S
C636 C21 1.635 1_565 S
C647 C63 1.596 . S
C652 C35 1.590 . S
C663 C77 1.656 1_565 S
C668 C49 1.584 1_545 S
C679 C119 1.593 . S
C684 C203 1.592 . S
C695 C133 1.610 . S
C700 C217 1.655 . S
C711 C175 1.652 . S
C716 C147 1.615 . S
C727 C161 1.571 . S
C732 C189 1.641 . S
