# Generated by pormake.
# Topology unv, (4)-cn, num edge types: 1
# Building blocks:
#     Node 0, Type 0, BuildingBlock: ICAMEG_clean_sbu_1, # of connection points: 4
#     Node 1, Type 0, BuildingBlock: ICAMEG_clean_sbu_1, # of connection points: 4
#     Node 2, Type 0, BuildingBlock: ICAMEG_clean_sbu_1, # of connection points: 4
#     Node 3, Type 0, BuildingBlock: ICAMEG_clean_sbu_1, # of connection points: 4
#     Node 4, Type 0, BuildingBlock: ICAMEG_clean_sbu_1, # of connection points: 4
#     Node 5, Type 0, BuildingBlock: ICAMEG_clean_sbu_1, # of connection points: 4
#     Node 6, Type 0, BuildingBlock: ICAMEG_clean_sbu_1, # of connection points: 4
#     Node 7, Type 0, BuildingBlock: ICAMEG_clean_sbu_1, # of connection points: 4
#     Node 8, Type 0, BuildingBlock: ICAMEG_clean_sbu_1, # of connection points: 4
#     Node 9, Type 0, BuildingBlock: ICAMEG_clean_sbu_1, # of connection points: 4
#     Node 10, Type 0, BuildingBlock: ICAMEG_clean_sbu_1, # of connection points: 4
#     Node 11, Type 0, BuildingBlock: ICAMEG_clean_sbu_1, # of connection points: 4
#     Node 12, Type 0, BuildingBlock: ICAMEG_clean_sbu_1, # of connection points: 4
#     Node 13, Type 0, BuildingBlock: ICAMEG_clean_sbu_1, # of connection points: 4
#     Node 14, Type 0, BuildingBlock: ICAMEG_clean_sbu_1, # of connection points: 4
#     Node 15, Type 0, BuildingBlock: ICAMEG_clean_sbu_1, # of connection points: 4
#     Node 16, Type 0, BuildingBlock: ICAMEG_clean_sbu_1, # of connection points: 4
#     Node 17, Type 0, BuildingBlock: ICAMEG_clean_sbu_1, # of connection points: 4
#     Node 18, Type 0, BuildingBlock: ICAMEG_clean_sbu_1, # of connection points: 4
#     Node 19, Type 0, BuildingBlock: ICAMEG_clean_sbu_1, # of connection points: 4
#     Node 20, Type 0, BuildingBlock: ICAMEG_clean_sbu_1, # of connection points: 4
#     Node 21, Type 0, BuildingBlock: ICAMEG_clean_sbu_1, # of connection points: 4
#     Node 22, Type 0, BuildingBlock: ICAMEG_clean_sbu_1, # of connection points: 4
#     Node 23, Type 0, BuildingBlock: ICAMEG_clean_sbu_1, # of connection points: 4
#     Edge 24, Type (0, 0), BuildingBlock: XUDNAN_clean_linker_2, # of connection points: 2
#     Edge 25, Type (0, 0), BuildingBlock: XUDNAN_clean_linker_2, # of connection points: 2
#     Edge 26, Type (0, 0), BuildingBlock: XUDNAN_clean_linker_2, # of connection points: 2
#     Edge 27, Type (0, 0), BuildingBlock: XUDNAN_clean_linker_2, # of connection points: 2
#     Edge 28, Type (0, 0), BuildingBlock: XUDNAN_clean_linker_2, # of connection points: 2
#     Edge 29, Type (0, 0), BuildingBlock: XUDNAN_clean_linker_2, # of connection points: 2
#     Edge 30, Type (0, 0), BuildingBlock: XUDNAN_clean_linker_2, # of connection points: 2
#     Edge 31, Type (0, 0), BuildingBlock: XUDNAN_clean_linker_2, # of connection points: 2
#     Edge 32, Type (0, 0), BuildingBlock: XUDNAN_clean_linker_2, # of connection points: 2
#     Edge 33, Type (0, 0), BuildingBlock: XUDNAN_clean_linker_2, # of connection points: 2
#     Edge 34, Type (0, 0), BuildingBlock: XUDNAN_clean_linker_2, # of connection points: 2
#     Edge 35, Type (0, 0), BuildingBlock: XUDNAN_clean_linker_2, # of connection points: 2
#     Edge 36, Type (0, 0), BuildingBlock: XUDNAN_clean_linker_2, # of connection points: 2
#     Edge 37, Type (0, 0), BuildingBlock: XUDNAN_clean_linker_2, # of connection points: 2
#     Edge 38, Type (0, 0), BuildingBlock: XUDNAN_clean_linker_2, # of connection points: 2
#     Edge 39, Type (0, 0), BuildingBlock: XUDNAN_clean_linker_2, # of connection points: 2
#     Edge 40, Type (0, 0), BuildingBlock: XUDNAN_clean_linker_2, # of connection points: 2
#     Edge 41, Type (0, 0), BuildingBlock: XUDNAN_clean_linker_2, # of connection points: 2
#     Edge 42, Type (0, 0), BuildingBlock: XUDNAN_clean_linker_2, # of connection points: 2
#     Edge 43, Type (0, 0), BuildingBlock: XUDNAN_clean_linker_2, # of connection points: 2
#     Edge 44, Type (0, 0), BuildingBlock: XUDNAN_clean_linker_2, # of connection points: 2
#     Edge 45, Type (0, 0), BuildingBlock: XUDNAN_clean_linker_2, # of connection points: 2
#     Edge 46, Type (0, 0), BuildingBlock: XUDNAN_clean_linker_2, # of connection points: 2
#     Edge 47, Type (0, 0), BuildingBlock: XUDNAN_clean_linker_2, # of connection points: 2
#     Edge 48, Type (0, 0), BuildingBlock: XUDNAN_clean_linker_2, # of connection points: 2
#     Edge 49, Type (0, 0), BuildingBlock: XUDNAN_clean_linker_2, # of connection points: 2
#     Edge 50, Type (0, 0), BuildingBlock: XUDNAN_clean_linker_2, # of connection points: 2
#     Edge 51, Type (0, 0), BuildingBlock: XUDNAN_clean_linker_2, # of connection points: 2
#     Edge 52, Type (0, 0), BuildingBlock: XUDNAN_clean_linker_2, # of connection points: 2
#     Edge 53, Type (0, 0), BuildingBlock: XUDNAN_clean_linker_2, # of connection points: 2
#     Edge 54, Type (0, 0), BuildingBlock: XUDNAN_clean_linker_2, # of connection points: 2
#     Edge 55, Type (0, 0), BuildingBlock: XUDNAN_clean_linker_2, # of connection points: 2
#     Edge 56, Type (0, 0), BuildingBlock: XUDNAN_clean_linker_2, # of connection points: 2
#     Edge 57, Type (0, 0), BuildingBlock: XUDNAN_clean_linker_2, # of connection points: 2
#     Edge 58, Type (0, 0), BuildingBlock: XUDNAN_clean_linker_2, # of connection points: 2
#     Edge 59, Type (0, 0), BuildingBlock: XUDNAN_clean_linker_2, # of connection points: 2
#     Edge 60, Type (0, 0), BuildingBlock: XUDNAN_clean_linker_2, # of connection points: 2
#     Edge 61, Type (0, 0), BuildingBlock: XUDNAN_clean_linker_2, # of connection points: 2
#     Edge 62, Type (0, 0), BuildingBlock: XUDNAN_clean_linker_2, # of connection points: 2
#     Edge 63, Type (0, 0), BuildingBlock: XUDNAN_clean_linker_2, # of connection points: 2
#     Edge 64, Type (0, 0), BuildingBlock: XUDNAN_clean_linker_2, # of connection points: 2
#     Edge 65, Type (0, 0), BuildingBlock: XUDNAN_clean_linker_2, # of connection points: 2
#     Edge 66, Type (0, 0), BuildingBlock: XUDNAN_clean_linker_2, # of connection points: 2
#     Edge 67, Type (0, 0), BuildingBlock: XUDNAN_clean_linker_2, # of connection points: 2
#     Edge 68, Type (0, 0), BuildingBlock: XUDNAN_clean_linker_2, # of connection points: 2
#     Edge 69, Type (0, 0), BuildingBlock: XUDNAN_clean_linker_2, # of connection points: 2
#     Edge 70, Type (0, 0), BuildingBlock: XUDNAN_clean_linker_2, # of connection points: 2
#     Edge 71, Type (0, 0), BuildingBlock: XUDNAN_clean_linker_2, # of connection points: 2
# Relax obj value: 0.193
# Max RMSD: 0.147
# Mean RMSD: 0.124
data_MOF--net-unv--node1-ICAMEG_clean_sbu_1--edge1-XUDNAN_clean_linker_2
_symmetry_space_group_name_H-M    P1
_symmetry_Int_Tables_number       1
_symmetry_cell_setting            triclinic
loop_
_symmetry_equiv_pos_as_xyz
'x, y, z'
_cell_length_a     52.507394
_cell_length_b     52.490918
_cell_length_c     52.522308
_cell_angle_alpha  89.968841
_cell_angle_beta   89.97526
_cell_angle_gamma 89.972933
loop_
_atom_site_label
_atom_site_type_symbol
_atom_site_fract_x
_atom_site_fract_y
_atom_site_fract_z
_atom_type_partial_charge
Co0 Co 0.99871 0.08539 0.36764 0.0
Co1 Co 0.95423 0.11381 0.40712 0.0
O2 O 0.97089 0.10913 0.3741 0.0
C3 C 0.9588 0.06664 0.33274 0.0
O4 O 0.94209 0.07082 0.35086 0.0
C5 C 0.97662 0.16397 0.39532 0.0
O6 O 0.99788 0.15177 0.39041 0.0
O7 O 0.98731 0.1134 0.42592 0.0
O8 O 0.01615 0.09612 0.39945 0.0
H9 H 0.93646 0.0948 0.4992 0.0
H10 H 0.98315 0.12196 0.32769 0.0
O11 O 0.98192 0.07339 0.33566 0.0
H12 H 0.07313 0.1418 0.34579 0.0
H13 H 0.06228 0.03952 0.31241 0.0
H14 H 0.02835 0.04931 0.39943 0.0
H15 H 0.05148 0.10652 0.36804 0.0
H16 H 0.02801 0.07039 0.32135 0.0
O17 O 0.95697 0.15173 0.4027 0.0
H18 H 0.95757 0.08884 0.45769 0.0
H19 H 0.91478 0.1499 0.42625 0.0
H20 H 0.0629 0.01846 0.39141 0.0
H21 H 0.00409 0.15731 0.30482 0.0
H22 H 0.08004 0.01337 0.34762 0.0
H23 H 0.04938 0.16748 0.31393 0.0
O24 O 0.98084 0.0578 0.38651 0.0
H25 H 0.89345 0.14043 0.33813 0.0
H26 H 0.90475 0.08704 0.41459 0.0
H27 H 0.86375 0.08624 0.39171 0.0
H28 H 0.85789 0.11312 0.35322 0.0
H29 H 0.93422 0.14048 0.36145 0.0
H30 H 0.89332 0.15667 0.46751 0.0
H31 H 0.90407 0.12893 0.50431 0.0
O32 O 0.95143 0.07616 0.41175 0.0
C33 C 0.00982 0.10589 0.42072 0.0
C34 C 0.93156 0.10697 0.4833 0.0
C35 C 0.90738 0.14172 0.46551 0.0
N36 N 0.9373 0.1189 0.43954 0.0
C37 C 0.94341 0.10364 0.45973 0.0
C38 C 0.91963 0.13784 0.44222 0.0
C39 C 0.91341 0.12614 0.48616 0.0
C40 C 0.00292 0.12616 0.33157 0.0
N41 N 0.0161 0.1122 0.34914 0.0
C42 C 0.01465 0.14623 0.31864 0.0
C43 C 0.04005 0.15195 0.32378 0.0
C44 C 0.05339 0.13756 0.34167 0.0
C45 C 0.04102 0.11765 0.35425 0.0
C46 C 0.05502 0.04161 0.33158 0.0
C47 C 0.03589 0.04737 0.38038 0.0
C48 C 0.03558 0.05902 0.33675 0.0
N49 N 0.02632 0.06176 0.36092 0.0
C50 C 0.05538 0.02981 0.37593 0.0
C51 C 0.06498 0.02694 0.35135 0.0
C52 C 0.96287 0.05664 0.40284 0.0
C53 C 0.89575 0.12869 0.35492 0.0
C54 C 0.90237 0.09874 0.39781 0.0
C55 C 0.87909 0.09824 0.38497 0.0
C56 C 0.87581 0.11334 0.36338 0.0
N57 N 0.92181 0.1139 0.38944 0.0
C58 C 0.91876 0.12871 0.36826 0.0
Co59 Co 0.99922 0.43422 0.36772 0.0
Co60 Co 0.03971 0.3885 0.3928 0.0
O61 O 0.01968 0.40324 0.36495 0.0
C62 C 0.03515 0.44724 0.3263 0.0
O63 O 0.05343 0.43766 0.34042 0.0
C64 C 0.00252 0.34861 0.38033 0.0
O65 O 0.98572 0.3671 0.37942 0.0
O66 O 0.01147 0.39307 0.41763 0.0
O67 O 0.98592 0.42337 0.40159 0.0
H68 H 0.07591 0.3842 0.48125 0.0
H69 H 0.99488 0.40239 0.32141 0.0
O70 O 0.01212 0.44624 0.33387 0.0
H71 H 0.90871 0.40389 0.35876 0.0
H72 H 0.94166 0.50327 0.33425 0.0
H73 H 0.98813 0.47092 0.40918 0.0
H74 H 0.94389 0.42753 0.37895 0.0
H75 H 0.96721 0.46393 0.33138 0.0
O76 O 0.0259 0.35373 0.38449 0.0
H77 H 0.05086 0.40299 0.44623 0.0
H78 H 0.07084 0.3413 0.39789 0.0
H79 H 0.96247 0.51011 0.413 0.0
H80 H 0.96018 0.37865 0.30044 0.0
H81 H 0.93904 0.52655 0.37534 0.0
H82 H 0.91675 0.37925 0.3192 0.0
O83 O 0.02768 0.45253 0.38457 0.0
H84 H 0.07851 0.36111 0.30979 0.0
H85 H 0.09511 0.40089 0.39318 0.0
H86 H 0.13034 0.39601 0.36246 0.0
H87 H 0.12213 0.37595 0.32044 0.0
H88 H 0.04379 0.36656 0.34101 0.0
H89 H 0.09586 0.32166 0.43248 0.0
H90 H 0.09861 0.34322 0.47448 0.0
O91 O 0.05337 0.42292 0.40215 0.0
C92 C 0.99204 0.40754 0.41895 0.0
C93 C 0.07496 0.37468 0.463 0.0
C94 C 0.08613 0.33957 0.43564 0.0
N95 N 0.05967 0.37342 0.41996 0.0
C96 C 0.06091 0.3853 0.44307 0.0
C97 C 0.07191 0.35076 0.41614 0.0
C98 C 0.08767 0.35168 0.4592 0.0
C99 C 0.97597 0.40293 0.32952 0.0
N100 N 0.97139 0.41641 0.35128 0.0
C101 C 0.95642 0.38937 0.31764 0.0
C102 C 0.93207 0.38969 0.32819 0.0
C103 C 0.92755 0.4035 0.3504 0.0
C104 C 0.94756 0.4168 0.36177 0.0
C105 C 0.95173 0.49627 0.35081 0.0
C106 C 0.97782 0.47785 0.39276 0.0
C107 C 0.96629 0.47404 0.34928 0.0
N108 N 0.97897 0.46503 0.37015 0.0
C109 C 0.9634 0.50009 0.39502 0.0
C110 C 0.95027 0.50932 0.37387 0.0
C111 C 0.0471 0.446 0.39762 0.0
C112 C 0.08233 0.36982 0.32806 0.0
C113 C 0.09139 0.39222 0.3749 0.0
C114 C 0.11141 0.38946 0.35761 0.0
C115 C 0.1068 0.37818 0.33404 0.0
N116 N 0.06747 0.38391 0.36891 0.0
C117 C 0.06278 0.37288 0.34583 0.0
Co118 Co 0.99033 0.92829 0.15039 0.0
Co119 Co 0.94248 0.89368 0.12119 0.0
O120 O 0.96392 0.90213 0.15045 0.0
C121 C 0.95542 0.94559 0.19074 0.0
O122 O 0.93662 0.93907 0.17562 0.0
C123 C 0.96874 0.84526 0.13289 0.0
O124 O 0.99002 0.85836 0.13321 0.0
O125 O 0.9723 0.89313 0.09781 0.0
O126 O 0.00259 0.91703 0.11628 0.0
H127 H 0.91066 0.90172 0.03133 0.0
H128 H 0.98581 0.89364 0.19462 0.0
O129 O 0.97838 0.94096 0.18432 0.0
H130 H 0.07203 0.87907 0.16029 0.0
H131 H 0.05888 0.98198 0.19045 0.0
H132 H 0.01042 0.96453 0.11197 0.0
H133 H 0.0435 0.91081 0.1406 0.0
H134 H 0.02602 0.94841 0.18967 0.0
O135 O 0.94761 0.85647 0.12858 0.0
H136 H 0.93753 0.9127 0.06823 0.0
H137 H 0.90193 0.85498 0.11235 0.0
H138 H 0.0434 0.99796 0.11177 0.0
H139 H 0.01378 0.86182 0.21504 0.0
H140 H 0.06785 0.00692 0.15124 0.0
H141 H 0.0572 0.85433 0.1978 0.0
O142 O 0.96718 0.95309 0.13387 0.0
H143 H 0.89436 0.87231 0.20111 0.0
H144 H 0.89124 0.9181 0.11915 0.0
H145 H 0.85429 0.92 0.14811 0.0
H146 H 0.8557 0.89696 0.18941 0.0
H147 H 0.93097 0.87112 0.17168 0.0
H148 H 0.87484 0.84319 0.07584 0.0
H149 H 0.87904 0.86672 0.03501 0.0
O150 O 0.93714 0.93066 0.11313 0.0
C151 C 0.99414 0.90375 0.09781 0.0
C152 C 0.90857 0.89139 0.04905 0.0
C153 C 0.88849 0.85852 0.07403 0.0
N154 N 0.92109 0.88469 0.09249 0.0
C155 C 0.92366 0.8976 0.07004 0.0
C156 C 0.90391 0.86526 0.09462 0.0
C157 C 0.89086 0.87174 0.05112 0.0
C158 C 0.00477 0.89062 0.18719 0.0
N159 N 0.01307 0.90412 0.16656 0.0
C160 C 0.02048 0.87253 0.19875 0.0
C161 C 0.04483 0.86831 0.18905 0.0
C162 C 0.05316 0.88218 0.16799 0.0
C163 C 0.03691 0.90009 0.1569 0.0
C164 C 0.04842 0.9782 0.17311 0.0
C165 C 0.02117 0.96812 0.12914 0.0
C166 C 0.02976 0.95925 0.17257 0.0
N167 N 0.01653 0.95433 0.15071 0.0
C168 C 0.03975 0.98716 0.12894 0.0
C169 C 0.05344 0.99218 0.1511 0.0
C170 C 0.94768 0.95161 0.11953 0.0
C171 C 0.89349 0.88238 0.18314 0.0
C172 C 0.89202 0.90809 0.13713 0.0
C173 C 0.87102 0.90919 0.15342 0.0
C174 C 0.87182 0.89624 0.17658 0.0
N175 N 0.91319 0.89441 0.14368 0.0
C176 C 0.91412 0.88168 0.16636 0.0
Co177 Co 0.00238 0.57502 0.13524 0.0
Co178 Co 0.04157 0.62427 0.11537 0.0
O179 O 0.0219 0.60607 0.14141 0.0
C180 C 0.03817 0.55802 0.17555 0.0
O181 O 0.0568 0.56847 0.16253 0.0
C182 C 0.00319 0.66157 0.13206 0.0
O183 O 0.9869 0.64266 0.13102 0.0
O184 O 0.01369 0.62137 0.08968 0.0
O185 O 0.98895 0.58913 0.10286 0.0
H186 H 0.0788 0.63848 0.02835 0.0
H187 H 0.99714 0.60169 0.18463 0.0
O188 O 0.01531 0.55978 0.16769 0.0
H189 H 0.91097 0.60147 0.14731 0.0
H190 H 0.94685 0.50096 0.16047 0.0
H191 H 0.99258 0.54284 0.08992 0.0
H192 H 0.94682 0.58112 0.1248 0.0
H193 H 0.971 0.54057 0.16785 0.0
O194 O 0.02663 0.65758 0.12708 0.0
H195 H 0.0541 0.6154 0.06099 0.0
H196 H 0.071 0.67278 0.11541 0.0
H197 H 0.96844 0.50343 0.08164 0.0
H198 H 0.96176 0.62206 0.20794 0.0
H199 H 0.94537 0.4822 0.11708 0.0
H200 H 0.91833 0.62211 0.18922 0.0
O201 O 0.03131 0.55943 0.11637 0.0
H202 H 0.07876 0.64395 0.20124 0.0
H203 H 0.09736 0.61375 0.11429 0.0
H204 H 0.13215 0.61645 0.14573 0.0
H205 H 0.12294 0.63168 0.18955 0.0
H206 H 0.04451 0.64076 0.16924 0.0
H207 H 0.09567 0.69661 0.08329 0.0
H208 H 0.09978 0.6794 0.03943 0.0
O209 O 0.05639 0.59145 0.10281 0.0
C210 C 0.99466 0.60655 0.08698 0.0
C211 C 0.07723 0.64612 0.04742 0.0
C212 C 0.08667 0.67877 0.07824 0.0
N213 N 0.0613 0.64263 0.09012 0.0
C214 C 0.06334 0.6331 0.066 0.0
C215 C 0.07264 0.66522 0.09633 0.0
C216 C 0.08897 0.6691 0.05364 0.0
C217 C 0.97823 0.60144 0.1765 0.0
N218 N 0.97402 0.59016 0.15344 0.0
C219 C 0.9583 0.61308 0.18972 0.0
C220 C 0.93394 0.61313 0.17919 0.0
C221 C 0.9298 0.60157 0.15567 0.0
C222 C 0.95019 0.59013 0.14298 0.0
C223 C 0.95678 0.51006 0.14486 0.0
C224 C 0.98244 0.53382 0.1054 0.0
C225 C 0.97053 0.53246 0.14894 0.0
N226 N 0.98303 0.54411 0.12929 0.0
C227 C 0.96887 0.51146 0.10061 0.0
C228 C 0.95595 0.49955 0.12051 0.0
C229 C 0.05065 0.56784 0.10425 0.0
C230 C 0.08302 0.63734 0.18219 0.0
C231 C 0.0932 0.62033 0.13334 0.0
C232 C 0.11298 0.62187 0.15104 0.0
C233 C 0.1078 0.63043 0.17562 0.0
N234 N 0.06897 0.62721 0.13992 0.0
C235 C 0.06373 0.63559 0.16398 0.0
Co236 Co 0.36609 0.97489 0.06292 0.0
Co237 Co 0.40187 0.94334 0.10858 0.0
O238 O 0.36949 0.95459 0.09394 0.0
C239 C 0.33529 0.94291 0.02899 0.0
O240 O 0.35369 0.94615 0.01235 0.0
C241 C 0.38222 0.9745 0.15199 0.0
O242 O 0.38187 0.9948 0.13739 0.0
O243 O 0.41788 0.97771 0.10363 0.0
O244 O 0.39437 0.99748 0.07374 0.0
H245 H 0.49701 0.93346 0.11196 0.0
H246 H 0.32097 0.965 0.0953 0.0
O247 O 0.33737 0.95221 0.05137 0.0
H248 H 0.33018 0.05848 0.09353 0.0
H249 H 0.31734 0.02218 0.99493 0.0
H250 H 0.40238 0.99649 0.02547 0.0
H251 H 0.35979 0.03107 0.06948 0.0
H252 H 0.32197 0.9971 0.03438 0.0
O253 O 0.38956 0.95309 0.14331 0.0
H254 H 0.45615 0.94728 0.09341 0.0
H255 H 0.41602 0.9151 0.15587 0.0
H256 H 0.39863 0.02164 0.98597 0.0
H257 H 0.2907 0.99169 0.1194 0.0
H258 H 0.35587 0.03462 0.97043 0.0
H259 H 0.29526 0.03878 0.11866 0.0
O260 O 0.39106 0.9527 0.04463 0.0
H261 H 0.33324 0.88217 0.1353 0.0
H262 H 0.41867 0.89025 0.09713 0.0
H263 H 0.39961 0.84763 0.10228 0.0
H264 H 0.35663 0.84339 0.12158 0.0
H265 H 0.35291 0.92445 0.12956 0.0
H266 H 0.45647 0.90105 0.17517 0.0
H267 H 0.49734 0.91016 0.15314 0.0
O268 O 0.41438 0.93289 0.07454 0.0
C269 C 0.41314 0.99663 0.08905 0.0
C270 C 0.47932 0.92933 0.12172 0.0
C271 C 0.45657 0.91118 0.15721 0.0
N272 N 0.43371 0.93194 0.12349 0.0
C273 C 0.45612 0.93707 0.11128 0.0
C274 C 0.43373 0.91924 0.14622 0.0
C275 C 0.4795 0.91628 0.14483 0.0
C276 C 0.32295 0.98549 0.09474 0.0
N277 N 0.34211 0.99647 0.08097 0.0
C278 C 0.30581 0.0005 0.10849 0.0
C279 C 0.3084 0.02692 0.10809 0.0
C280 C 0.328 0.03798 0.09402 0.0
C281 C 0.3448 0.02236 0.08053 0.0
C282 C 0.33609 0.01671 0.00154 0.0
C283 C 0.38371 0.00217 0.0189 0.0
C284 C 0.33883 0.00254 0.02388 0.0
N285 N 0.36244 0.99537 0.03225 0.0
C286 C 0.38171 0.01639 0.9965 0.0
C287 C 0.35771 0.02365 0.98779 0.0
C288 C 0.40879 0.93751 0.05142 0.0
C289 C 0.352 0.88377 0.1269 0.0
C290 C 0.39989 0.88858 0.10538 0.0
C291 C 0.38923 0.86439 0.10833 0.0
C292 C 0.36512 0.86202 0.11918 0.0
N293 N 0.38695 0.90982 0.11308 0.0
C294 C 0.36326 0.90765 0.12365 0.0
Co295 Co 0.64166 0.5135 0.0844 0.0
Co296 Co 0.59658 0.55461 0.10917 0.0
O297 O 0.63089 0.54027 0.10764 0.0
C298 C 0.67599 0.5557 0.07018 0.0
O299 O 0.65643 0.5712 0.07186 0.0
C300 C 0.60531 0.5316 0.15926 0.0
O301 O 0.6123 0.51117 0.1467 0.0
O302 O 0.5801 0.52043 0.10626 0.0
O303 O 0.60989 0.49396 0.09073 0.0
H304 H 0.50586 0.56687 0.0813 0.0
H305 H 0.67604 0.53023 0.12576 0.0
O306 O 0.67373 0.53245 0.07677 0.0
H307 H 0.66038 0.439 0.14187 0.0
H308 H 0.70571 0.45445 0.04433 0.0
H309 H 0.61627 0.4832 0.04407 0.0
H310 H 0.6417 0.46024 0.10435 0.0
H311 H 0.69106 0.48727 0.07457 0.0
O312 O 0.5975 0.5512 0.14722 0.0
H313 H 0.54909 0.54864 0.07917 0.0
H314 H 0.57135 0.59183 0.14379 0.0
H315 H 0.63002 0.45006 0.01373 0.0
H316 H 0.69525 0.50973 0.16346 0.0
H317 H 0.67505 0.43553 0.0137 0.0
H318 H 0.68729 0.46383 0.17179 0.0
O319 O 0.62502 0.53103 0.05522 0.0
H320 H 0.65835 0.61914 0.14355 0.0
H321 H 0.58858 0.6041 0.08256 0.0
H322 H 0.60862 0.64653 0.08472 0.0
H323 H 0.64373 0.65427 0.11543 0.0
H324 H 0.63795 0.57693 0.14061 0.0
H325 H 0.52826 0.61042 0.14675 0.0
H326 H 0.49521 0.59802 0.11529 0.0
O327 O 0.59565 0.55788 0.07134 0.0
C328 C 0.58736 0.49861 0.09839 0.0
C329 C 0.52011 0.57249 0.09508 0.0
C330 C 0.53268 0.5969 0.13184 0.0
N331 N 0.56275 0.5693 0.11124 0.0
C332 C 0.54465 0.56228 0.09393 0.0
C333 C 0.55702 0.58627 0.13011 0.0
C334 C 0.51415 0.58994 0.11417 0.0
C335 C 0.67276 0.51018 0.12913 0.0
N336 N 0.65783 0.49643 0.11287 0.0
C337 C 0.68358 0.4987 0.15054 0.0
C338 C 0.67909 0.47295 0.15522 0.0
C339 C 0.66397 0.45902 0.13845 0.0
C340 C 0.65342 0.47114 0.11726 0.0
C341 C 0.68603 0.46057 0.0442 0.0
C342 C 0.63584 0.4768 0.04433 0.0
C343 C 0.67763 0.47919 0.06124 0.0
N344 N 0.6528 0.48701 0.06119 0.0
C345 C 0.64354 0.4581 0.02704 0.0
C346 C 0.66881 0.44997 0.02702 0.0
C347 C 0.60747 0.5477 0.05268 0.0
C348 C 0.64302 0.61602 0.13015 0.0
C349 C 0.6039 0.6073 0.09593 0.0
C350 C 0.61514 0.63138 0.0971 0.0
C351 C 0.63483 0.63572 0.11434 0.0
N352 N 0.61199 0.5881 0.11156 0.0
C353 C 0.63133 0.59218 0.12846 0.0
Co354 Co 0.36195 0.01066 0.42011 0.0
Co355 Co 0.39576 0.04308 0.3735 0.0
O356 O 0.36402 0.03014 0.38844 0.0
C357 C 0.33006 0.04305 0.45303 0.0
O358 O 0.34941 0.0433 0.46886 0.0
C359 C 0.37624 0.00694 0.33518 0.0
O360 O 0.37126 0.99149 0.35418 0.0
O361 O 0.41482 0.01097 0.38155 0.0
O362 O 0.39107 0.98908 0.40964 0.0
H363 H 0.4896 0.06173 0.37143 0.0
H364 H 0.31581 0.01725 0.38836 0.0
O365 O 0.33229 0.03215 0.43139 0.0
H366 H 0.32983 0.92446 0.39287 0.0
H367 H 0.31651 0.96394 0.49071 0.0
H368 H 0.39979 0.99207 0.45762 0.0
H369 H 0.35846 0.95406 0.41542 0.0
H370 H 0.31934 0.98772 0.45029 0.0
O371 O 0.38597 0.02874 0.33949 0.0
H372 H 0.44966 0.04567 0.39021 0.0
H373 H 0.40864 0.06842 0.32431 0.0
H374 H 0.39782 0.96836 0.4981 0.0
H375 H 0.2865 0.98833 0.36576 0.0
H376 H 0.35595 0.95414 0.51492 0.0
H377 H 0.2935 0.94157 0.36786 0.0
O378 O 0.38609 0.03445 0.43708 0.0
H379 H 0.32301 0.09486 0.33899 0.0
H380 H 0.40672 0.09824 0.38138 0.0
H381 H 0.38398 0.13825 0.37186 0.0
H382 H 0.34185 0.13671 0.35042 0.0
H383 H 0.34631 0.05529 0.34909 0.0
H384 H 0.44817 0.08456 0.30473 0.0
H385 H 0.48902 0.08134 0.32837 0.0
O386 O 0.40608 0.05742 0.40698 0.0
C387 C 0.41068 0.99158 0.39563 0.0
C388 C 0.47191 0.06331 0.36096 0.0
C389 C 0.44867 0.07609 0.32352 0.0
N390 N 0.42682 0.05623 0.35843 0.0
C391 C 0.44922 0.05431 0.37153 0.0
C392 C 0.42635 0.06686 0.33468 0.0
C393 C 0.47158 0.07429 0.33679 0.0
C394 C 0.31882 0.99692 0.38956 0.0
N395 N 0.33875 0.98735 0.40327 0.0
C396 C 0.30223 0.98064 0.37664 0.0
C397 C 0.30619 0.95441 0.3778 0.0
C398 C 0.32658 0.9448 0.39181 0.0
C399 C 0.34278 0.96165 0.40447 0.0
C400 C 0.33487 0.96999 0.48356 0.0
C401 C 0.3815 0.98586 0.46475 0.0
C402 C 0.3366 0.98343 0.46067 0.0
N403 N 0.35972 0.99122 0.45156 0.0
C404 C 0.38051 0.97246 0.48771 0.0
C405 C 0.35701 0.96451 0.49714 0.0
C406 C 0.40165 0.05177 0.43016 0.0
C407 C 0.34138 0.09578 0.34829 0.0
C408 C 0.38833 0.09741 0.37218 0.0
C409 C 0.37558 0.12013 0.36677 0.0
C410 C 0.35195 0.11925 0.35473 0.0
N411 N 0.37789 0.07447 0.36569 0.0
C412 C 0.35469 0.07344 0.35398 0.0
Co413 Co 0.6306 0.49452 0.42791 0.0
Co414 Co 0.60866 0.45727 0.3782 0.0
O415 O 0.63525 0.47685 0.39556 0.0
C416 C 0.67181 0.4582 0.44041 0.0
O417 O 0.65866 0.44036 0.42886 0.0
C418 C 0.62062 0.49835 0.34208 0.0
O419 O 0.62035 0.51375 0.36174 0.0
O420 O 0.58232 0.48396 0.38468 0.0
O421 O 0.59731 0.50817 0.41651 0.0
H422 H 0.52205 0.41789 0.36786 0.0
H423 H 0.67842 0.50198 0.39895 0.0
O424 O 0.66385 0.48111 0.44055 0.0
H425 H 0.63993 0.58742 0.40593 0.0
H426 H 0.65952 0.546 0.50345 0.0
H427 H 0.58715 0.50168 0.4633 0.0
H428 H 0.61898 0.55011 0.42534 0.0
H429 H 0.66475 0.5245 0.46202 0.0
O430 O 0.61736 0.4745 0.34528 0.0
H431 H 0.55542 0.44237 0.39004 0.0
H432 H 0.60622 0.43067 0.32817 0.0
H433 H 0.58101 0.52316 0.50458 0.0
H434 H 0.70016 0.53883 0.37943 0.0
H435 H 0.61737 0.54551 0.52495 0.0
H436 H 0.68084 0.5819 0.38281 0.0
O437 O 0.613 0.46459 0.44294 0.0
H438 H 0.69402 0.4245 0.34996 0.0
H439 H 0.61027 0.40095 0.38536 0.0
H440 H 0.64255 0.36756 0.37818 0.0
H441 H 0.68477 0.37926 0.3603 0.0
H442 H 0.66124 0.45731 0.35765 0.0
H443 H 0.5733 0.4063 0.3052 0.0
H444 H 0.53089 0.39968 0.32511 0.0
O445 O 0.59898 0.44014 0.41073 0.0
C446 C 0.58025 0.50242 0.40031 0.0
C447 C 0.54048 0.42056 0.35903 0.0
C448 C 0.56924 0.41408 0.32384 0.0
N449 N 0.58281 0.43772 0.36052 0.0
C450 C 0.55949 0.43432 0.37153 0.0
C451 C 0.58778 0.42793 0.33692 0.0
C452 C 0.54545 0.41037 0.33503 0.0
C453 C 0.67004 0.52072 0.40067 0.0
N454 N 0.64756 0.52393 0.41337 0.0
C455 C 0.68237 0.54148 0.38951 0.0
C456 C 0.67151 0.56564 0.39139 0.0
C457 C 0.64855 0.56875 0.40435 0.0
C458 C 0.63675 0.54755 0.41526 0.0
C459 C 0.64351 0.53639 0.49473 0.0
C460 C 0.60301 0.51155 0.47193 0.0
C461 C 0.64637 0.52415 0.4713 0.0
N462 N 0.62622 0.51204 0.46014 0.0
C463 C 0.59944 0.52361 0.49535 0.0
C464 C 0.61986 0.53611 0.50678 0.0
C465 C 0.60128 0.44512 0.43439 0.0
C466 C 0.67568 0.41916 0.3577 0.0
C467 C 0.62862 0.40619 0.37766 0.0
C468 C 0.64681 0.3872 0.37358 0.0
C469 C 0.67048 0.39378 0.36354 0.0
N470 N 0.63385 0.43102 0.37182 0.0
C471 C 0.65702 0.43764 0.36201 0.0
Co472 Co 0.07406 0.37816 0.98508 0.0
Co473 Co 0.1166 0.4064 0.94326 0.0
O474 O 0.10274 0.37691 0.96141 0.0
C475 C 0.03631 0.34382 0.96238 0.0
O476 O 0.02024 0.36273 0.96557 0.0
C477 C 0.16229 0.39045 0.97304 0.0
O478 O 0.14911 0.3929 0.99414 0.0
O479 O 0.11577 0.42809 0.97462 0.0
O480 O 0.08746 0.40972 0.00092 0.0
H481 H 0.12072 0.49836 0.91694 0.0
H482 H 0.10378 0.33043 0.98039 0.0
O483 O 0.05964 0.34642 0.96885 0.0
H484 H 0.11402 0.35733 0.06974 0.0
H485 H 0.01155 0.34095 0.04786 0.0
H486 H 0.0395 0.41888 0.00345 0.0
H487 H 0.08763 0.38249 0.04014 0.0
H488 H 0.04767 0.33965 0.01782 0.0
O489 O 0.15203 0.39485 0.9515 0.0
H490 H 0.10314 0.46117 0.93964 0.0
H491 H 0.16059 0.41373 0.90805 0.0
H492 H 0.00331 0.42103 0.03329 0.0
H493 H 0.13016 0.30455 0.00943 0.0
H494 H 0.98911 0.38187 0.05575 0.0
H495 H 0.13545 0.31801 0.05445 0.0
O496 O 0.05395 0.39935 0.9609 0.0
H497 H 0.13573 0.32763 0.89236 0.0
H498 H 0.09921 0.41416 0.88974 0.0
H499 H 0.09936 0.38795 0.85078 0.0
H500 H 0.1178 0.34438 0.85192 0.0
H501 H 0.13498 0.3544 0.93094 0.0
H502 H 0.17891 0.45046 0.88516 0.0
H503 H 0.15888 0.49312 0.88946 0.0
O504 O 0.0817 0.41825 0.93438 0.0
C505 C 0.10293 0.42754 0.99528 0.0
C506 C 0.12957 0.47985 0.91485 0.0
C507 C 0.16225 0.45297 0.89705 0.0
N508 N 0.13072 0.43528 0.92504 0.0
C509 C 0.11967 0.45871 0.92761 0.0
C510 C 0.15183 0.43226 0.9101 0.0
C511 C 0.151 0.4769 0.89946 0.0
C512 C 0.1058 0.33625 2e-05 0.0
N513 N 0.09401 0.35781 0.0086 0.0
C514 C 0.12084 0.32159 0.01635 0.0
C515 C 0.12383 0.32918 0.04159 0.0
C516 C 0.11183 0.35125 0.05018 0.0
C517 C 0.09696 0.36545 0.03331 0.0
C518 C 0.01761 0.35816 0.03825 0.0
C519 C 0.0335 0.40176 0.01321 0.0
C520 C 0.03807 0.35754 0.02127 0.0
N521 N 0.04578 0.37919 0.00898 0.0
C522 C 0.01297 0.4031 0.03007 0.0
C523 C 0.00502 0.38112 0.04265 0.0
C524 C 0.05915 0.41414 0.94235 0.0
C525 C 0.12769 0.3466 0.89161 0.0
C526 C 0.10714 0.39517 0.89043 0.0
C527 C 0.10724 0.38044 0.86829 0.0
C528 C 0.1176 0.356 0.86893 0.0
N529 N 0.11716 0.38585 0.91257 0.0
C530 C 0.12727 0.36187 0.91338 0.0
Co531 Co 0.06971 0.62463 0.52989 0.0
Co532 Co 0.11468 0.59156 0.56525 0.0
O533 O 0.09928 0.62313 0.55243 0.0
C534 C 0.03169 0.65211 0.56069 0.0
O535 O 0.01733 0.63188 0.55775 0.0
C536 C 0.15712 0.6139 0.53509 0.0
O537 O 0.14168 0.61571 0.51554 0.0
O538 O 0.11191 0.57435 0.53127 0.0
O539 O 0.08427 0.59748 0.50806 0.0
H540 H 0.12128 0.49694 0.57823 0.0
H541 H 0.09754 0.67207 0.54228 0.0
O542 O 0.05432 0.65231 0.55167 0.0
H543 H 0.10363 0.66347 0.44898 0.0
H544 H 0.00181 0.66888 0.47835 0.0
H545 H 0.03682 0.58595 0.50533 0.0
H546 H 0.08018 0.6317 0.47444 0.0
H547 H 0.03946 0.66683 0.50634 0.0
O548 O 0.14932 0.60478 0.55618 0.0
H549 H 0.10182 0.53663 0.56231 0.0
H550 H 0.1612 0.58013 0.5958 0.0
H551 H 0.99913 0.58713 0.47733 0.0
H552 H 0.12088 0.7045 0.51753 0.0
H553 H 0.98138 0.62882 0.46366 0.0
H554 H 0.1241 0.70025 0.47054 0.0
O555 O 0.0518 0.59821 0.55048 0.0
H556 H 0.13692 0.66273 0.62522 0.0
H557 H 0.10118 0.57616 0.61824 0.0
H558 H 0.10401 0.59663 0.6604 0.0
H559 H 0.12208 0.6402 0.66409 0.0
H560 H 0.13351 0.64164 0.5834 0.0
H561 H 0.1814 0.54088 0.61195 0.0
H562 H 0.16137 0.49892 0.60325 0.0
O563 O 0.08061 0.57808 0.57482 0.0
C564 C 0.09956 0.57886 0.51081 0.0
C565 C 0.13016 0.51512 0.5822 0.0
C566 C 0.16392 0.53978 0.60109 0.0
N567 N 0.13028 0.56068 0.57823 0.0
C568 C 0.11919 0.53766 0.57328 0.0
C569 C 0.15242 0.56193 0.59185 0.0
C570 C 0.15266 0.51624 0.59622 0.0
C571 C 0.09869 0.67022 0.52182 0.0
N572 N 0.08743 0.65008 0.50981 0.0
C573 C 0.112 0.68859 0.50791 0.0
C574 C 0.11383 0.68618 0.48155 0.0
C575 C 0.10236 0.66553 0.46945 0.0
C576 C 0.0892 0.64755 0.48397 0.0
C577 C 0.00939 0.65059 0.48413 0.0
C578 C 0.02926 0.60416 0.49938 0.0
C579 C 0.03072 0.64931 0.49995 0.0
N580 N 0.04039 0.62628 0.50737 0.0
C581 C 0.0079 0.60471 0.48355 0.0
C582 C 0.99794 0.62811 0.47591 0.0
C583 C 0.05784 0.58189 0.56743 0.0
C584 C 0.12906 0.64372 0.62386 0.0
C585 C 0.10893 0.59517 0.61967 0.0
C586 C 0.11055 0.60664 0.6436 0.0
C587 C 0.12071 0.63108 0.64566 0.0
N588 N 0.11726 0.60765 0.59839 0.0
C589 C 0.12714 0.63166 0.60025 0.0
Co590 Co 0.9323 0.85379 0.51639 0.0
Co591 Co 0.88483 0.88963 0.54488 0.0
O592 O 0.89924 0.85732 0.53308 0.0
C593 C 0.96174 0.82154 0.55137 0.0
O594 O 0.97917 0.83944 0.55033 0.0
C595 C 0.84908 0.87424 0.50423 0.0
O596 O 0.86908 0.86941 0.49006 0.0
O597 O 0.89701 0.90843 0.51397 0.0
O598 O 0.92476 0.88296 0.49364 0.0
H599 H 0.88578 0.9834 0.56411 0.0
H600 H 0.89877 0.80869 0.52123 0.0
O601 O 0.94068 0.82434 0.5395 0.0
H602 H 0.91045 0.82116 0.4289 0.0
H603 H 0.00437 0.80484 0.47582 0.0
H604 H 0.97272 0.88982 0.50037 0.0
H605 H 0.93149 0.8497 0.45966 0.0
H606 H 0.96239 0.80966 0.49634 0.0
O607 O 0.85183 0.88178 0.52712 0.0
H608 H 0.90392 0.94262 0.54945 0.0
H609 H 0.83422 0.90489 0.56566 0.0
H610 H 0.0148 0.88586 0.4799 0.0
H611 H 0.87759 0.77952 0.49114 0.0
H612 H 0.0309 0.84312 0.4675 0.0
H613 H 0.88333 0.78571 0.4446 0.0
O614 O 0.9483 0.87773 0.54108 0.0
H615 H 0.84151 0.81852 0.59207 0.0
H616 H 0.88808 0.89963 0.60066 0.0
H617 H 0.87355 0.87708 0.63924 0.0
H618 H 0.85001 0.83626 0.63507 0.0
H619 H 0.85659 0.84159 0.554 0.0
H620 H 0.81527 0.94531 0.58038 0.0
H621 H 0.84114 0.98491 0.57973 0.0
O622 O 0.91733 0.89813 0.56249 0.0
C623 C 0.91209 0.90355 0.49552 0.0
C624 C 0.87434 0.96625 0.56457 0.0
C625 C 0.83476 0.94488 0.57366 0.0
N626 N 0.87021 0.92137 0.55687 0.0
C627 C 0.88453 0.94309 0.55636 0.0
C628 C 0.84557 0.92207 0.56526 0.0
C629 C 0.84929 0.9671 0.5733 0.0
C630 C 0.90154 0.81136 0.50101 0.0
N631 N 0.91647 0.83078 0.49222 0.0
C632 C 0.88942 0.79485 0.48406 0.0
C633 C 0.89262 0.79836 0.45795 0.0
C634 C 0.90782 0.81825 0.44913 0.0
C635 C 0.91962 0.83441 0.46664 0.0
C636 C 0.99754 0.82357 0.48107 0.0
C637 C 0.97953 0.87117 0.49492 0.0
C638 C 0.97376 0.82643 0.49264 0.0
N639 N 0.96506 0.85002 0.49948 0.0
C640 C 0.00339 0.86904 0.48336 0.0
C641 C 0.01242 0.84506 0.47642 0.0
C642 C 0.94073 0.89323 0.5582 0.0
C643 C 0.8517 0.83631 0.59413 0.0
C644 C 0.87796 0.88181 0.5987 0.0
C645 C 0.86972 0.86916 0.62061 0.0
C646 C 0.8565 0.84627 0.61826 0.0
N647 N 0.87308 0.87197 0.57511 0.0
C648 C 0.86022 0.84949 0.57265 0.0
Co649 Co 0.42237 0.64199 0.49199 0.0
Co650 Co 0.37552 0.61256 0.45629 0.0
O651 O 0.39166 0.64288 0.47099 0.0
C652 C 0.4606 0.67 0.46246 0.0
O653 O 0.47493 0.64977 0.46574 0.0
C654 C 0.33794 0.63141 0.49369 0.0
O655 O 0.35734 0.63656 0.50853 0.0
O656 O 0.38292 0.59109 0.48702 0.0
O657 O 0.40803 0.61402 0.51289 0.0
H658 H 0.37049 0.52022 0.43157 0.0
H659 H 0.3961 0.69123 0.48383 0.0
O660 O 0.43776 0.67026 0.47091 0.0
H661 H 0.39306 0.67657 0.57654 0.0
H662 H 0.49386 0.68048 0.54333 0.0
H663 H 0.45524 0.60074 0.51218 0.0
H664 H 0.41431 0.64574 0.5482 0.0
H665 H 0.45485 0.68152 0.51722 0.0
O666 O 0.34175 0.62227 0.47154 0.0
H667 H 0.39053 0.55841 0.45014 0.0
H668 H 0.32592 0.60295 0.43037 0.0
H669 H 0.49422 0.59884 0.53827 0.0
H670 H 0.37489 0.72273 0.51152 0.0
H671 H 0.51383 0.63891 0.554 0.0
H672 H 0.37321 0.71544 0.55823 0.0
O673 O 0.43829 0.61627 0.46891 0.0
H674 H 0.34302 0.68955 0.40959 0.0
H675 H 0.38317 0.60508 0.40056 0.0
H676 H 0.3743 0.63071 0.36219 0.0
H677 H 0.354 0.67324 0.36658 0.0
H678 H 0.35244 0.66336 0.44747 0.0
H679 H 0.30509 0.56519 0.41177 0.0
H680 H 0.32745 0.52347 0.41221 0.0
O681 O 0.40873 0.60224 0.4413 0.0
C682 C 0.3948 0.59435 0.50795 0.0
C683 C 0.36059 0.53831 0.43119 0.0
C684 C 0.32386 0.56354 0.42011 0.0
N685 N 0.35947 0.58291 0.44121 0.0
C686 C 0.37187 0.56001 0.44161 0.0
C687 C 0.33573 0.58484 0.43072 0.0
C688 C 0.33642 0.54014 0.42036 0.0
C689 C 0.39567 0.68807 0.50417 0.0
N690 N 0.40658 0.66677 0.5144 0.0
C691 C 0.38354 0.70591 0.51974 0.0
C692 C 0.38257 0.70179 0.54594 0.0
C693 C 0.39369 0.67998 0.55622 0.0
C694 C 0.40564 0.66255 0.54007 0.0
C695 C 0.48546 0.66288 0.53666 0.0
C696 C 0.46357 0.61826 0.51907 0.0
C697 C 0.46334 0.66334 0.52192 0.0
N698 N 0.45271 0.6412 0.51324 0.0
C699 C 0.48567 0.61706 0.5338 0.0
C700 C 0.49666 0.63955 0.54262 0.0
C701 C 0.43159 0.60342 0.44938 0.0
C702 C 0.35181 0.67102 0.40743 0.0
C703 C 0.37445 0.62362 0.40262 0.0
C704 C 0.36941 0.63802 0.38083 0.0
C705 C 0.358 0.66187 0.3833 0.0
N706 N 0.3682 0.63269 0.42621 0.0
C707 C 0.35712 0.65609 0.4288 0.0
Co708 Co 0.5061 0.57116 0.84126 0.0
Co709 Co 0.47065 0.61284 0.87808 0.0
O710 O 0.48569 0.60186 0.84572 0.0
C711 C 0.46395 0.5607 0.80518 0.0
O712 O 0.44759 0.56806 0.82261 0.0
C713 C 0.50708 0.65302 0.86464 0.0
O714 O 0.52271 0.63422 0.85952 0.0
O715 O 0.50187 0.60409 0.89781 0.0
O716 O 0.52501 0.57788 0.87328 0.0
H717 H 0.44767 0.60504 0.97064 0.0
H718 H 0.5026 0.60861 0.7993 0.0
O719 O 0.48779 0.56299 0.80901 0.0
H720 H 0.59399 0.60341 0.8203 0.0
H721 H 0.55648 0.5072 0.79052 0.0
H722 H 0.52314 0.52952 0.87543 0.0
H723 H 0.56267 0.57684 0.84312 0.0
H724 H 0.53187 0.54671 0.79689 0.0
O725 O 0.48452 0.64818 0.8723 0.0
H726 H 0.46644 0.59091 0.92999 0.0
H727 H 0.44274 0.65953 0.89425 0.0
H728 H 0.54794 0.48997 0.86999 0.0
H729 H 0.53328 0.63538 0.7758 0.0
H730 H 0.56474 0.47856 0.82726 0.0
H731 H 0.57933 0.63294 0.78635 0.0
O732 O 0.48069 0.55071 0.86047 0.0
H733 H 0.42116 0.65257 0.80645 0.0
H734 H 0.4155 0.60156 0.88512 0.0
H735 H 0.37634 0.61151 0.86116 0.0
H736 H 0.37903 0.63725 0.82155 0.0
H737 H 0.45987 0.64198 0.83089 0.0
H738 H 0.42384 0.67452 0.93459 0.0
H739 H 0.42617 0.64715 0.97312 0.0
O740 O 0.45725 0.57764 0.88442 0.0
C741 C 0.52135 0.59018 0.89382 0.0
C742 C 0.44642 0.6171 0.95396 0.0
C743 C 0.43309 0.65611 0.93373 0.0
N744 N 0.45544 0.62426 0.90973 0.0
C745 C 0.45693 0.60915 0.93086 0.0
C746 C 0.44384 0.64754 0.91096 0.0
C747 C 0.43439 0.64073 0.95534 0.0
C748 C 0.52264 0.6073 0.80381 0.0
N749 N 0.53085 0.59117 0.82251 0.0
C750 C 0.53991 0.62256 0.79052 0.0
C751 C 0.56574 0.6212 0.79648 0.0
C752 C 0.57397 0.60465 0.81553 0.0
C753 C 0.55615 0.5897 0.82844 0.0
C754 C 0.54929 0.51198 0.80923 0.0
C755 C 0.53057 0.52479 0.85683 0.0
C756 C 0.53528 0.53429 0.81294 0.0
N757 N 0.52619 0.54049 0.83654 0.0
C758 C 0.54453 0.50233 0.85384 0.0
C759 C 0.55392 0.49592 0.82986 0.0
C760 C 0.46299 0.55534 0.8765 0.0
C761 C 0.41974 0.64139 0.82371 0.0
C762 C 0.41683 0.61269 0.86785 0.0
C763 C 0.39458 0.61831 0.8544 0.0
C764 C 0.39611 0.63277 0.83218 0.0
N765 N 0.43991 0.6213 0.85947 0.0
C766 C 0.44158 0.63541 0.83767 0.0
Co767 Co 0.52141 0.92001 0.85314 0.0
Co768 Co 0.56812 0.88483 0.88349 0.0
O769 O 0.54748 0.89352 0.85373 0.0
C770 C 0.55684 0.9372 0.81319 0.0
O771 O 0.57552 0.93144 0.82878 0.0
C772 C 0.54148 0.8368 0.87156 0.0
O773 O 0.52029 0.85007 0.87125 0.0
O774 O 0.53781 0.88467 0.90626 0.0
O775 O 0.5085 0.90921 0.88707 0.0
H776 H 0.59818 0.89262 0.97397 0.0
H777 H 0.52616 0.88481 0.80939 0.0
O778 O 0.53391 0.9321 0.81927 0.0
H779 H 0.43922 0.87183 0.8425 0.0
H780 H 0.45406 0.97417 0.81157 0.0
H781 H 0.50111 0.95676 0.89094 0.0
H782 H 0.46784 0.90338 0.86227 0.0
H783 H 0.48657 0.94026 0.81314 0.0
O784 O 0.5627 0.84775 0.876 0.0
H785 H 0.57219 0.90387 0.9365 0.0
H786 H 0.60798 0.8456 0.89327 0.0
H787 H 0.46844 0.99052 0.89036 0.0
H788 H 0.4981 0.85316 0.7889 0.0
H789 H 0.4447 0.99946 0.85043 0.0
H790 H 0.45432 0.84647 0.80554 0.0
O791 O 0.54472 0.94464 0.8698 0.0
H792 H 0.61772 0.86286 0.80465 0.0
H793 H 0.61959 0.9086 0.88661 0.0
H794 H 0.65718 0.91003 0.85847 0.0
H795 H 0.6564 0.887 0.81718 0.0
H796 H 0.58046 0.86213 0.83326 0.0
H797 H 0.63419 0.83354 0.93036 0.0
H798 H 0.62945 0.85721 0.97103 0.0
O799 O 0.5737 0.92168 0.89156 0.0
C800 C 0.51621 0.89576 0.90573 0.0
C801 C 0.6005 0.88223 0.95632 0.0
C802 C 0.62068 0.84905 0.93185 0.0
N803 N 0.58878 0.87559 0.91266 0.0
C804 C 0.58591 0.88858 0.93502 0.0
C805 C 0.60576 0.85593 0.91094 0.0
C806 C 0.61802 0.86234 0.95467 0.0
C807 C 0.50704 0.88214 0.81656 0.0
N808 N 0.49859 0.89599 0.83689 0.0
C809 C 0.49128 0.86414 0.80496 0.0
C810 C 0.46673 0.86038 0.81432 0.0
C811 C 0.45825 0.87459 0.83507 0.0
C812 C 0.47455 0.8924 0.84621 0.0
C813 C 0.46422 0.97041 0.8291 0.0
C814 C 0.49068 0.96036 0.87357 0.0
C815 C 0.48269 0.95128 0.83008 0.0
N816 N 0.49555 0.94638 0.85218 0.0
C817 C 0.47228 0.97958 0.87332 0.0
C818 C 0.45898 0.98459 0.85091 0.0
C819 C 0.5638 0.94279 0.88469 0.0
C820 C 0.61831 0.87291 0.82262 0.0
C821 C 0.61908 0.8986 0.86864 0.0
C822 C 0.64044 0.89943 0.85281 0.0
C823 C 0.64 0.88649 0.82965 0.0
N824 N 0.5979 0.88519 0.86163 0.0
C825 C 0.59731 0.87249 0.83894 0.0
Co826 Co 0.48835 0.41817 0.62812 0.0
Co827 Co 0.44177 0.38318 0.59745 0.0
O828 O 0.46251 0.39154 0.62728 0.0
C829 C 0.45296 0.43496 0.66841 0.0
O830 O 0.43402 0.42834 0.65352 0.0
C831 C 0.46995 0.3358 0.60842 0.0
O832 O 0.49056 0.34991 0.60935 0.0
O833 O 0.47175 0.38432 0.57416 0.0
O834 O 0.50131 0.40773 0.59419 0.0
H835 H 0.40998 0.39309 0.50777 0.0
H836 H 0.48393 0.38259 0.67158 0.0
O837 O 0.47585 0.43002 0.66203 0.0
H838 H 0.57092 0.37042 0.63826 0.0
H839 H 0.55542 0.47247 0.66985 0.0
H840 H 0.50816 0.45543 0.59055 0.0
H841 H 0.54208 0.40202 0.61882 0.0
H842 H 0.52329 0.43825 0.66811 0.0
O843 O 0.44837 0.34602 0.60384 0.0
H844 H 0.43616 0.40392 0.54521 0.0
H845 H 0.40305 0.34306 0.58699 0.0
H846 H 0.54048 0.4895 0.59128 0.0
H847 H 0.51222 0.35087 0.69174 0.0
H848 H 0.56431 0.49826 0.63118 0.0
H849 H 0.55602 0.34458 0.67499 0.0
O850 O 0.46474 0.44277 0.61184 0.0
H851 H 0.39388 0.35757 0.67627 0.0
H852 H 0.38963 0.40564 0.59568 0.0
H853 H 0.35241 0.40523 0.62434 0.0
H854 H 0.35438 0.38102 0.66495 0.0
H855 H 0.43075 0.35868 0.64717 0.0
H856 H 0.37667 0.33139 0.54991 0.0
H857 H 0.37998 0.35657 0.50998 0.0
O858 O 0.43505 0.4202 0.59066 0.0
C859 C 0.49351 0.39502 0.5751 0.0
C860 C 0.4083 0.38203 0.52509 0.0
C861 C 0.38964 0.34738 0.54873 0.0
N862 N 0.42095 0.37429 0.56832 0.0
C863 C 0.42301 0.38813 0.54638 0.0
C864 C 0.40465 0.35404 0.56964 0.0
C865 C 0.39149 0.36152 0.52634 0.0
C866 C 0.50306 0.3801 0.66437 0.0
N867 N 0.51139 0.39419 0.64416 0.0
C868 C 0.51895 0.36206 0.67579 0.0
C869 C 0.54351 0.35852 0.66636 0.0
C870 C 0.55188 0.373 0.64574 0.0
C871 C 0.53545 0.39083 0.63479 0.0
C872 C 0.54521 0.4688 0.65233 0.0
C873 C 0.51863 0.45896 0.6079 0.0
C874 C 0.52695 0.44949 0.65126 0.0
N875 N 0.51401 0.44472 0.62919 0.0
C876 C 0.53684 0.47835 0.60823 0.0
C877 C 0.55019 0.48326 0.63063 0.0
C878 C 0.44507 0.44121 0.59771 0.0
C879 C 0.39277 0.36813 0.65861 0.0
C880 C 0.39067 0.39513 0.61336 0.0
C881 C 0.36951 0.39492 0.62948 0.0
C882 C 0.37062 0.38132 0.65225 0.0
N883 N 0.4123 0.3821 0.6197 0.0
C884 C 0.41355 0.36875 0.64201 0.0
Co885 Co 0.51214 0.06984 0.62967 0.0
Co886 Co 0.55233 0.1158 0.60463 0.0
O887 O 0.53221 0.10098 0.63238 0.0
C888 C 0.54841 0.05754 0.6708 0.0
O889 O 0.56623 0.0685 0.65711 0.0
C890 C 0.51321 0.15394 0.61639 0.0
O891 O 0.4976 0.13448 0.61722 0.0
O892 O 0.52503 0.10964 0.57913 0.0
O893 O 0.4987 0.08046 0.59588 0.0
H894 H 0.59112 0.11924 0.51721 0.0
H895 H 0.50749 0.10156 0.67601 0.0
O896 O 0.52533 0.05789 0.66332 0.0
H897 H 0.42127 0.09913 0.63887 0.0
H898 H 0.45578 0.9999 0.66329 0.0
H899 H 0.50152 0.033 0.58822 0.0
H900 H 0.45669 0.0758 0.61864 0.0
H901 H 0.48061 0.03967 0.66606 0.0
O902 O 0.53684 0.15022 0.61197 0.0
H903 H 0.56585 0.1003 0.552 0.0
H904 H 0.58149 0.16413 0.59912 0.0
H905 H 0.47653 0.99341 0.58446 0.0
H906 H 0.47256 0.12501 0.69701 0.0
H907 H 0.45349 0.97657 0.62221 0.0
H908 H 0.42911 0.12395 0.67835 0.0
O909 O 0.54081 0.05198 0.61284 0.0
H910 H 0.58805 0.14644 0.68788 0.0
H911 H 0.60809 0.10539 0.60584 0.0
H912 H 0.64236 0.1122 0.63723 0.0
H913 H 0.63242 0.13291 0.67857 0.0
H914 H 0.55433 0.13905 0.65602 0.0
H915 H 0.60673 0.18389 0.56475 0.0
H916 H 0.61176 0.16135 0.52348 0.0
O917 O 0.56741 0.08155 0.59647 0.0
C918 C 0.50545 0.09538 0.57799 0.0
C919 C 0.58916 0.1292 0.53514 0.0
C920 C 0.59789 0.16551 0.56181 0.0
N921 N 0.57243 0.13098 0.57764 0.0
C922 C 0.57496 0.11853 0.55494 0.0
C923 C 0.58355 0.15425 0.58118 0.0
C924 C 0.60071 0.15284 0.53866 0.0
C925 C 0.48856 0.10082 0.66795 0.0
N926 N 0.48409 0.08725 0.64622 0.0
C927 C 0.46889 0.11421 0.67985 0.0
C928 C 0.44453 0.11363 0.66935 0.0
C929 C 0.44012 0.09972 0.64719 0.0
C930 C 0.46025 0.08658 0.6358 0.0
C931 C 0.46568 0.00707 0.64669 0.0
C932 C 0.49135 0.02592 0.60466 0.0
C933 C 0.47983 0.02955 0.64817 0.0
N934 N 0.49232 0.03876 0.62727 0.0
C935 C 0.47732 0.00344 0.60245 0.0
C936 C 0.46441 0.99399 0.62364 0.0
C937 C 0.56082 0.05848 0.60073 0.0
C938 C 0.59263 0.13746 0.66991 0.0
C939 C 0.60362 0.11434 0.62383 0.0
C940 C 0.62311 0.1182 0.6415 0.0
C941 C 0.61752 0.12983 0.66468 0.0
N942 N 0.57928 0.12193 0.62907 0.0
C943 C 0.57363 0.13331 0.65177 0.0
Co944 Co 0.85262 0.48716 0.58179 0.0
Co945 Co 0.87432 0.44133 0.62384 0.0
O946 O 0.84779 0.46347 0.60998 0.0
C947 C 0.81297 0.45264 0.56226 0.0
O948 O 0.82666 0.4337 0.57117 0.0
C949 C 0.85978 0.47315 0.66792 0.0
O950 O 0.86237 0.49307 0.65304 0.0
O951 O 0.89985 0.46949 0.62399 0.0
O952 O 0.8855 0.49883 0.59631 0.0
H953 H 0.96187 0.40296 0.62923 0.0
H954 H 0.80408 0.48782 0.61055 0.0
O955 O 0.81995 0.47557 0.56604 0.0
H956 H 0.84078 0.57357 0.62157 0.0
H957 H 0.82342 0.55182 0.51724 0.0
H958 H 0.89639 0.50206 0.54924 0.0
H959 H 0.8629 0.54128 0.59557 0.0
H960 H 0.81822 0.52249 0.55359 0.0
O961 O 0.86348 0.45079 0.65921 0.0
H962 H 0.92844 0.43074 0.61139 0.0
H963 H 0.87596 0.40473 0.6672 0.0
H964 H 0.90247 0.53125 0.51296 0.0
H965 H 0.78121 0.5196 0.63656 0.0
H966 H 0.86582 0.55641 0.49674 0.0
H967 H 0.79961 0.56281 0.64225 0.0
O968 O 0.87128 0.46123 0.56152 0.0
H969 H 0.78914 0.40104 0.6405 0.0
H970 H 0.87512 0.38774 0.60509 0.0
H971 H 0.84382 0.35275 0.60353 0.0
H972 H 0.80049 0.35928 0.62136 0.0
H973 H 0.82096 0.43559 0.64146 0.0
H974 H 0.90889 0.37681 0.68578 0.0
H975 H 0.95217 0.37574 0.6667 0.0
O976 O 0.88583 0.43171 0.5889 0.0
C977 C 0.90218 0.4904 0.61179 0.0
C978 C 0.94305 0.40319 0.63766 0.0
C979 C 0.91333 0.38854 0.66942 0.0
N980 N 0.90022 0.41919 0.63811 0.0
C981 C 0.92403 0.41883 0.62759 0.0
C982 C 0.89478 0.40442 0.65885 0.0
C983 C 0.93761 0.38794 0.6587 0.0
C984 C 0.81208 0.50666 0.61277 0.0
N985 N 0.8347 0.51275 0.60146 0.0
C986 C 0.7991 0.52454 0.62759 0.0
C987 C 0.80945 0.54877 0.6308 0.0
C988 C 0.83256 0.55482 0.61921 0.0
C989 C 0.84501 0.53644 0.60455 0.0
C990 C 0.83956 0.54104 0.5242 0.0
C991 C 0.88039 0.51309 0.54243 0.0
C992 C 0.83672 0.52439 0.54476 0.0
N993 N 0.85703 0.51077 0.5537 0.0
C994 C 0.88394 0.52953 0.52183 0.0
C995 C 0.86336 0.54361 0.51271 0.0
C996 C 0.88378 0.44103 0.56656 0.0
C997 C 0.80798 0.39794 0.63273 0.0
C998 C 0.85628 0.39075 0.61283 0.0
C999 C 0.83866 0.37085 0.61194 0.0
C1000 C 0.81435 0.37452 0.62196 0.0
N1001 N 0.8499 0.41364 0.62347 0.0
C1002 C 0.8261 0.41739 0.63331 0.0
Co1003 Co 0.13898 0.00088 0.57482 0.0
Co1004 Co 0.11628 0.04337 0.62005 0.0
O1005 O 0.14334 0.02229 0.60496 0.0
C1006 C 0.18038 0.03581 0.55928 0.0
O1007 O 0.16905 0.05418 0.57187 0.0
C1008 C 0.12962 0.00643 0.65998 0.0
O1009 O 0.12994 0.98948 0.64164 0.0
O1010 O 0.09019 0.01599 0.61627 0.0
O1011 O 0.10585 0.98825 0.58786 0.0
H1012 H 0.02935 0.08312 0.62508 0.0
H1013 H 0.18693 0.99735 0.60408 0.0
O1014 O 0.17186 0.01313 0.56006 0.0
H1015 H 0.1493 0.91136 0.60779 0.0
H1016 H 0.16781 0.94038 0.50619 0.0
H1017 H 0.09541 0.98913 0.54093 0.0
H1018 H 0.12798 0.9458 0.58398 0.0
H1019 H 0.17328 0.96741 0.54421 0.0
O1020 O 0.12486 0.0297 0.65483 0.0
H1021 H 0.06318 0.05665 0.60604 0.0
H1022 H 0.11297 0.07496 0.66705 0.0
H1023 H 0.08901 0.96206 0.50312 0.0
H1024 H 0.20904 0.96339 0.62796 0.0
H1025 H 0.12539 0.93746 0.48548 0.0
H1026 H 0.19014 0.92007 0.62999 0.0
O1027 O 0.12158 0.02897 0.55651 0.0
H1028 H 0.20109 0.07956 0.64549 0.0
H1029 H 0.11754 0.09865 0.60709 0.0
H1030 H 0.14949 0.13286 0.61104 0.0
H1031 H 0.1916 0.12341 0.6304 0.0
H1032 H 0.16865 0.04588 0.64097 0.0
H1033 H 0.07959 0.10142 0.68691 0.0
H1034 H 0.03746 0.10572 0.66583 0.0
O1035 O 0.10697 0.057 0.58562 0.0
C1036 C 0.08852 0.9957 0.60306 0.0
C1037 C 0.04766 0.08148 0.6344 0.0
C1038 C 0.07585 0.09172 0.66912 0.0
N1039 N 0.09009 0.06446 0.6353 0.0
C1040 C 0.06692 0.0666 0.62366 0.0
C1041 C 0.09465 0.07668 0.65782 0.0
C1042 C 0.05221 0.09413 0.65728 0.0
C1043 C 0.17875 0.97846 0.6047 0.0
N1044 N 0.15628 0.97352 0.59259 0.0
C1045 C 0.19129 0.95935 0.61832 0.0
C1046 C 0.18065 0.93505 0.61948 0.0
C1047 C 0.15773 0.93015 0.60704 0.0
C1048 C 0.14572 0.94974 0.59363 0.0
C1049 C 0.1518 0.95097 0.51373 0.0
C1050 C 0.11129 0.97834 0.53348 0.0
C1051 C 0.1548 0.96635 0.53521 0.0
N1052 N 0.13463 0.97965 0.54492 0.0
C1053 C 0.10757 0.96312 0.51201 0.0
C1054 C 0.12799 0.94934 0.50212 0.0
C1055 C 0.11019 0.04949 0.56272 0.0
C1056 C 0.18279 0.08393 0.63708 0.0
C1057 C 0.13585 0.09438 0.61546 0.0
C1058 C 0.15384 0.11384 0.6177 0.0
C1059 C 0.17746 0.10852 0.62858 0.0
N1060 N 0.1412 0.07033 0.6239 0.0
C1061 C 0.16432 0.06496 0.63456 0.0
Co1062 Co 0.8569 0.51754 0.93348 0.0
Co1063 Co 0.87701 0.55746 0.88498 0.0
O1064 O 0.85084 0.53777 0.90292 0.0
C1065 C 0.81794 0.55455 0.95056 0.0
O1066 O 0.83029 0.5724 0.93813 0.0
C1067 C 0.85979 0.51897 0.84831 0.0
O1068 O 0.86064 0.50308 0.86755 0.0
O1069 O 0.90269 0.52963 0.88816 0.0
O1070 O 0.88874 0.50337 0.91886 0.0
H1071 H 0.96412 0.5947 0.87134 0.0
H1072 H 0.80687 0.51414 0.90774 0.0
O1073 O 0.82533 0.53146 0.94947 0.0
H1074 H 0.84192 0.42697 0.90581 0.0
H1075 H 0.83101 0.46202 0.00732 0.0
H1076 H 0.90227 0.50643 0.96522 0.0
H1077 H 0.86576 0.46186 0.92632 0.0
H1078 H 0.82393 0.48644 0.9678 0.0
O1079 O 0.86545 0.54237 0.85169 0.0
H1080 H 0.93133 0.57001 0.89422 0.0
H1081 H 0.87731 0.58676 0.83642 0.0
H1082 H 0.91026 0.48204 0.00454 0.0
H1083 H 0.78227 0.47977 0.88719 0.0
H1084 H 0.87446 0.45963 0.02589 0.0
H1085 H 0.79986 0.43585 0.88606 0.0
O1086 O 0.87667 0.54559 0.94902 0.0
H1087 H 0.79127 0.59477 0.8646 0.0
H1088 H 0.87801 0.61322 0.89546 0.0
H1089 H 0.8466 0.64807 0.89251 0.0
H1090 H 0.80289 0.63893 0.87694 0.0
H1091 H 0.82322 0.56046 0.86805 0.0
H1092 H 0.90958 0.61143 0.81278 0.0
H1093 H 0.95331 0.6156 0.8303 0.0
O1094 O 0.88939 0.57226 0.91796 0.0
C1095 C 0.90505 0.50993 0.90218 0.0
C1096 C 0.9451 0.5931 0.86356 0.0
C1097 C 0.9145 0.60246 0.83067 0.0
N1098 N 0.90239 0.57716 0.86678 0.0
C1099 C 0.92644 0.57922 0.87647 0.0
C1100 C 0.89633 0.58844 0.84412 0.0
C1101 C 0.93903 0.6048 0.84052 0.0
C1102 C 0.81449 0.49501 0.90754 0.0
N1103 N 0.83763 0.48997 0.91832 0.0
C1104 C 0.80055 0.47566 0.89579 0.0
C1105 C 0.81044 0.45102 0.89513 0.0
C1106 C 0.83405 0.44603 0.90619 0.0
C1107 C 0.84747 0.46586 0.91775 0.0
C1108 C 0.84678 0.47163 0.99815 0.0
C1109 C 0.88663 0.49654 0.97426 0.0
C1110 C 0.84288 0.48551 0.97579 0.0
N1111 N 0.86271 0.49764 0.96408 0.0
C1112 C 0.89126 0.48283 0.99658 0.0
C1113 C 0.87116 0.4703 0.00856 0.0
C1114 C 0.88839 0.56542 0.9413 0.0
C1115 C 0.81028 0.599 0.87134 0.0
C1116 C 0.859 0.6091 0.88873 0.0
C1117 C 0.84132 0.62891 0.88705 0.0
C1118 C 0.8168 0.62377 0.8783 0.0
N1119 N 0.85247 0.58488 0.8818 0.0
C1120 C 0.82847 0.57968 0.87324 0.0
Co1121 Co 0.13496 0.9817 0.93116 0.0
Co1122 Co 0.0999 0.94587 0.88843 0.0
O1123 O 0.13194 0.9596 0.90148 0.0
C1124 C 0.16747 0.93927 0.95114 0.0
O1125 O 0.14767 0.92404 0.95143 0.0
C1126 C 0.11882 0.97474 0.84342 0.0
O1127 O 0.12016 0.99529 0.85759 0.0
O1128 O 0.0825 0.97974 0.89103 0.0
O1129 O 0.105 0.00197 0.91996 0.0
H1130 H 0.0053 0.93139 0.88755 0.0
H1131 H 0.17928 0.97291 0.8973 0.0
O1132 O 0.16558 0.96202 0.94287 0.0
H1133 H 0.16514 0.0658 0.89626 0.0
H1134 H 0.18331 0.0327 0.99638 0.0
H1135 H 0.09846 0.00443 0.96778 0.0
H1136 H 0.13794 0.03775 0.92237 0.0
H1137 H 0.17881 0.00557 0.95831 0.0
O1138 O 0.11116 0.95373 0.85284 0.0
H1139 H 0.0457 0.94854 0.90422 0.0
H1140 H 0.08647 0.91351 0.84376 0.0
H1141 H 0.10209 0.03166 0.00585 0.0
H1142 H 0.20714 1.00025 0.87113 0.0
H1143 H 0.14476 0.04599 0.02038 0.0
H1144 H 0.20008 0.04705 0.87044 0.0
O1145 O 0.11194 0.95939 0.9517 0.0
H1146 H 0.17107 0.8861 0.86546 0.0
H1147 H 0.08591 0.89315 0.90442 0.0
H1148 H 0.10708 0.85124 0.90257 0.0
H1149 H 0.14996 0.84752 0.88292 0.0
H1150 H 0.1493 0.92767 0.86792 0.0
H1151 H 0.04648 0.89609 0.82635 0.0
H1152 H 0.00553 0.90494 0.84834 0.0
O1153 O 0.08833 0.93753 0.92349 0.0
C1154 C 0.08635 0.99952 0.90464 0.0
C1155 C 0.02303 0.92735 0.87783 0.0
C1156 C 0.04613 0.90757 0.84346 0.0
N1157 N 0.06843 0.93195 0.87504 0.0
C1158 C 0.04597 0.93698 0.8872 0.0
C1159 C 0.06871 0.91754 0.85337 0.0
C1160 C 0.02317 0.91254 0.85581 0.0
C1161 C 0.17618 0.99328 0.89719 0.0
N1162 N 0.15698 0.00374 0.9113 0.0
C1163 C 0.19198 0.00865 0.8823 0.0
C1164 C 0.188 0.0349 0.8819 0.0
C1165 C 0.16838 0.04543 0.89636 0.0
C1166 C 0.15296 0.02946 0.91102 0.0
C1167 C 0.16461 0.02663 0.9902 0.0
C1168 C 0.11708 0.01073 0.97388 0.0
C1169 C 0.16194 0.01123 0.96869 0.0
N1170 N 0.13837 0.00358 0.96072 0.0
C1171 C 0.11902 0.02608 0.9955 0.0
C1172 C 0.14297 0.03408 0.00366 0.0
C1173 C 0.09431 0.94356 0.9462 0.0
C1174 C 0.15237 0.88746 0.87403 0.0
C1175 C 0.10461 0.89171 0.89596 0.0
C1176 C 0.11648 0.86791 0.8949 0.0
C1177 C 0.14053 0.86583 0.88385 0.0
N1178 N 0.11632 0.91283 0.88623 0.0
C1179 C 0.13992 0.91094 0.87542 0.0
Co1180 Co 0.58193 0.86045 0.49164 0.0
Co1181 Co 0.61634 0.89549 0.44706 0.0
O1182 O 0.60834 0.86369 0.46539 0.0
C1183 C 0.56329 0.82444 0.45248 0.0
O1184 O 0.56629 0.84259 0.43556 0.0
C1185 C 0.66677 0.87288 0.46356 0.0
O1186 O 0.65516 0.85403 0.47501 0.0
O1187 O 0.6162 0.91543 0.47947 0.0
O1188 O 0.59264 0.89313 0.50764 0.0
H1189 H 0.60479 0.98807 0.42555 0.0
H1190 H 0.5811 0.80908 0.51587 0.0
O1191 O 0.57018 0.82783 0.4755 0.0
H1192 H 0.66223 0.84755 0.54301 0.0
H1193 H 0.49385 0.8405 0.5234 0.0
H1194 H 0.57991 0.86902 0.54776 0.0
H1195 H 0.63304 0.87117 0.51524 0.0
H1196 H 0.52757 0.84494 0.49104 0.0
O1197 O 0.65425 0.88975 0.4513 0.0
H1198 H 0.59519 0.94787 0.44787 0.0
H1199 H 0.6547 0.91045 0.40781 0.0
H1200 H 0.54669 0.86504 0.5807 0.0
H1201 H 0.61013 0.7846 0.54321 0.0
H1202 H 0.50331 0.8506 0.56861 0.0
H1203 H 0.65106 0.80378 0.55706 0.0
O1204 O 0.55711 0.87962 0.4705 0.0
H1205 H 0.63754 0.8213 0.38992 0.0
H1206 H 0.59304 0.90378 0.39611 0.0
H1207 H 0.5916 0.87974 0.35587 0.0
H1208 H 0.61405 0.83823 0.35253 0.0
H1209 H 0.63825 0.84576 0.42981 0.0
H1210 H 0.6651 0.95032 0.3852 0.0
H1211 H 0.63998 0.98947 0.39395 0.0
O1212 O 0.57929 0.90278 0.4422 0.0
C1213 C 0.60575 0.91259 0.50124 0.0
C1214 C 0.61583 0.97113 0.42152 0.0
C1215 C 0.6497 0.94994 0.3989 0.0
N1216 N 0.62426 0.9268 0.42905 0.0
C1217 C 0.61044 0.94829 0.43406 0.0
C1218 C 0.64378 0.92745 0.41182 0.0
C1219 C 0.63559 0.9719 0.40381 0.0
C1220 C 0.59913 0.81745 0.52113 0.0
N1221 N 0.60557 0.84139 0.51305 0.0
C1222 C 0.61538 0.80354 0.53695 0.0
C1223 C 0.63829 0.81433 0.5448 0.0
C1224 C 0.64454 0.83889 0.53695 0.0
C1225 C 0.62779 0.85224 0.52117 0.0
C1226 C 0.51269 0.84675 0.52892 0.0
C1227 C 0.56107 0.86281 0.54231 0.0
C1228 C 0.5319 0.84923 0.51068 0.0
N1229 N 0.55575 0.85708 0.51749 0.0
C1230 C 0.54234 0.86054 0.56107 0.0
C1231 C 0.51801 0.85243 0.55428 0.0
C1232 C 0.55843 0.89543 0.45215 0.0
C1233 C 0.62785 0.83947 0.39107 0.0
C1234 C 0.60293 0.88576 0.39485 0.0
C1235 C 0.60203 0.87223 0.37198 0.0
C1236 C 0.61462 0.84894 0.37012 0.0
N1237 N 0.61617 0.87649 0.41528 0.0
C1238 C 0.62835 0.85354 0.41363 0.0
Co1239 Co 0.57837 0.14202 0.00121 0.0
Co1240 Co 0.6129 0.10423 0.04275 0.0
O1241 O 0.60468 0.13705 0.02696 0.0
C1242 C 0.55962 0.17753 0.04125 0.0
O1243 O 0.56339 0.1598 0.05848 0.0
C1244 C 0.6617 0.11837 0.01802 0.0
O1245 O 0.64903 0.12124 0.99668 0.0
O1246 O 0.61244 0.08599 0.00936 0.0
O1247 O 0.5891 0.11052 0.98322 0.0
H1248 H 0.60289 0.01047 0.05929 0.0
H1249 H 0.61462 0.18343 0.01317 0.0
O1250 O 0.5665 0.17393 0.01827 0.0
H1251 H 0.62643 0.16598 0.92168 0.0
H1252 H 0.52505 0.19381 0.94055 0.0
H1253 H 0.54122 0.10813 0.97559 0.0
H1254 H 0.59441 0.14232 0.94663 0.0
H1255 H 0.55912 0.18695 0.97211 0.0
O1256 O 0.65017 0.11173 0.03835 0.0
H1257 H 0.59237 0.0517 0.03937 0.0
H1258 H 0.65217 0.08764 0.08024 0.0
H1259 H 0.50722 0.11405 0.94373 0.0
H1260 H 0.64671 0.20777 0.98892 0.0
H1261 H 0.4989 0.15716 0.92605 0.0
H1262 H 0.65283 0.19901 0.94285 0.0
O1263 O 0.55333 0.12215 0.02172 0.0
H1264 H 0.6366 0.17444 0.10326 0.0
H1265 H 0.58937 0.09386 0.09338 0.0
H1266 H 0.5887 0.1161 0.13473 0.0
H1267 H 0.61248 0.15667 0.13988 0.0
H1268 H 0.63658 0.15169 0.06218 0.0
H1269 H 0.66349 0.04673 0.10047 0.0
H1270 H 0.63869 0.00781 0.09009 0.0
O1271 O 0.57598 0.09634 0.04739 0.0
C1272 C 0.60192 0.09048 0.98794 0.0
C1273 C 0.61379 0.02731 0.06403 0.0
C1274 C 0.64782 0.04766 0.08711 0.0
N1275 N 0.62152 0.07208 0.05878 0.0
C1276 C 0.60788 0.05073 0.05287 0.0
C1277 C 0.64137 0.07075 0.07556 0.0
C1278 C 0.6339 0.02583 0.08129 0.0
C1279 C 0.6171 0.17963 0.9931 0.0
N1280 N 0.60273 0.16142 0.98133 0.0
C1281 C 0.63533 0.19342 0.97948 0.0
C1282 C 0.63877 0.18848 0.95364 0.0
C1283 C 0.62398 0.16993 0.94175 0.0
C1284 C 0.60597 0.1565 0.95599 0.0
C1285 C 0.5285 0.17493 0.94809 0.0
C1286 C 0.53784 0.12691 0.96783 0.0
C1287 C 0.5477 0.17095 0.96605 0.0
N1288 N 0.55218 0.14716 0.97565 0.0
C1289 C 0.51851 0.13016 0.94986 0.0
C1290 C 0.51384 0.15436 0.93996 0.0
C1291 C 0.55493 0.10473 0.03863 0.0
C1292 C 0.62622 0.15675 0.10127 0.0
C1293 C 0.59971 0.11155 0.09545 0.0
C1294 C 0.5993 0.12403 0.11893 0.0
C1295 C 0.61266 0.14678 0.1218 0.0
N1296 N 0.61311 0.12141 0.07543 0.0
C1297 C 0.62621 0.14374 0.07809 0.0
Co1298 Co 0.42984 0.35998 0.99328 0.0
Co1299 Co 0.38966 0.39634 0.03103 0.0
O1300 O 0.40032 0.36399 0.01551 0.0
C1301 C 0.44328 0.32351 0.03466 0.0
O1302 O 0.43635 0.34044 0.05171 0.0
C1303 C 0.34716 0.38144 0.99792 0.0
O1304 O 0.36478 0.37641 0.98094 0.0
O1305 O 0.3958 0.41612 0.99908 0.0
O1306 O 0.42109 0.39176 0.97467 0.0
H1307 H 0.39743 0.48909 0.05332 0.0
H1308 H 0.39326 0.31758 0.99929 0.0
O1309 O 0.43992 0.32783 0.01103 0.0
H1310 H 0.39299 0.33778 0.90758 0.0
H1311 H 0.49168 0.31054 0.93907 0.0
H1312 H 0.46956 0.395 0.97375 0.0
H1313 H 0.4211 0.3611 0.9371 0.0
H1314 H 0.45355 0.3161 0.96592 0.0
O1315 O 0.35357 0.38979 0.0198 0.0
H1316 H 0.41089 0.44864 0.0336 0.0
H1317 H 0.34466 0.41185 0.06193 0.0
H1318 H 0.50767 0.39039 0.94663 0.0
H1319 H 0.365 0.29356 0.97043 0.0
H1320 H 0.51898 0.3479 0.92916 0.0
H1321 H 0.36468 0.30372 0.92424 0.0
O1322 O 0.45146 0.37956 0.01742 0.0
H1323 H 0.3552 0.32409 0.08353 0.0
H1324 H 0.40447 0.40403 0.08524 0.0
H1325 H 0.39784 0.38006 0.12511 0.0
H1326 H 0.37299 0.33981 0.12441 0.0
H1327 H 0.36247 0.34855 0.04407 0.0
H1328 H 0.33032 0.45199 0.08175 0.0
H1329 H 0.35685 0.49095 0.07759 0.0
O1330 O 0.42545 0.40334 0.04202 0.0
C1331 C 0.40843 0.41202 0.97877 0.0
C1332 C 0.38574 0.47223 0.05534 0.0
C1333 C 0.34806 0.45141 0.07127 0.0
N1334 N 0.37869 0.42788 0.04681 0.0
C1335 C 0.39332 0.44925 0.0443 0.0
C1336 C 0.35624 0.42876 0.05996 0.0
C1337 C 0.36296 0.47326 0.06894 0.0
C1338 C 0.39335 0.32194 0.97918 0.0
N1339 N 0.40875 0.34074 0.96988 0.0
C1340 C 0.37726 0.30834 0.96295 0.0
C1341 C 0.37707 0.31408 0.93703 0.0
C1342 C 0.39293 0.3332 0.92768 0.0
C1343 C 0.40873 0.34642 0.94448 0.0
C1344 C 0.48694 0.32916 0.94654 0.0
C1345 C 0.47426 0.3765 0.96604 0.0
C1346 C 0.46542 0.33241 0.96183 0.0
N1347 N 0.4593 0.35587 0.97134 0.0
C1348 C 0.49589 0.37398 0.95076 0.0
C1349 C 0.50224 0.35013 0.94098 0.0
C1350 C 0.44752 0.39563 0.03524 0.0
C1351 C 0.36599 0.34164 0.08409 0.0
C1352 C 0.3937 0.38649 0.08478 0.0
C1353 C 0.38996 0.37303 0.10742 0.0
C1354 C 0.37601 0.35045 0.10702 0.0
N1355 N 0.38374 0.37775 0.06239 0.0
C1356 C 0.3701 0.35561 0.06182 0.0
Co1357 Co 0.92967 0.14864 0.99398 0.0
Co1358 Co 0.88921 0.10934 0.95975 0.0
O1359 O 0.89994 0.14277 0.97251 0.0
C1360 C 0.94695 0.18178 0.95088 0.0
O1361 O 0.94708 0.16209 0.93553 0.0
C1362 C 0.8471 0.12594 0.99267 0.0
O1363 O 0.86502 0.13238 0.00882 0.0
O1364 O 0.89587 0.09221 0.99301 0.0
O1365 O 0.9215 0.11826 0.01514 0.0
H1366 H 0.89693 0.01508 0.94488 0.0
H1367 H 0.89263 0.19027 0.98521 0.0
O1368 O 0.93882 0.17972 0.97366 0.0
H1369 H 0.89399 0.17746 0.07823 0.0
H1370 H 0.99183 0.20288 0.04286 0.0
H1371 H 0.96965 0.11556 0.01631 0.0
H1372 H 0.9216 0.15182 0.05017 0.0
H1373 H 0.95374 0.19493 0.0166 0.0
O1374 O 0.8532 0.11659 0.97108 0.0
H1375 H 0.91054 0.057 0.9611 0.0
H1376 H 0.8439 0.09137 0.93076 0.0
H1377 H 0.00776 0.12265 0.04281 0.0
H1378 H 0.8649 0.21658 0.01257 0.0
H1379 H 0.01907 0.16657 0.05624 0.0
H1380 H 0.8654 0.21015 0.05943 0.0
O1381 O 0.95114 0.12699 0.97143 0.0
H1382 H 0.85337 0.17698 0.90228 0.0
H1383 H 0.90342 0.09754 0.9061 0.0
H1384 H 0.89599 0.11823 0.86457 0.0
H1385 H 0.87074 0.15821 0.86248 0.0
H1386 H 0.86146 0.15577 0.94343 0.0
H1387 H 0.82943 0.04977 0.91438 0.0
H1388 H 0.85609 0.01128 0.92133 0.0
O1389 O 0.92495 0.10149 0.94886 0.0
C1390 C 0.90886 0.09771 0.01274 0.0
C1391 C 0.8852 0.03173 0.94164 0.0
C1392 C 0.84729 0.0512 0.92456 0.0
N1393 N 0.87815 0.07663 0.94666 0.0
C1394 C 0.89285 0.05553 0.9507 0.0
C1395 C 0.85556 0.07468 0.93391 0.0
C1396 C 0.86226 0.02961 0.92845 0.0
C1397 C 0.89308 0.18752 0.00561 0.0
N1398 N 0.90869 0.16952 0.0161 0.0
C1399 C 0.87729 0.2024 0.02099 0.0
C1400 C 0.87756 0.19877 0.04728 0.0
C1401 C 0.89358 0.18041 0.05784 0.0
C1402 C 0.9091 0.16588 0.04186 0.0
C1403 C 0.98706 0.18365 0.03718 0.0
C1404 C 0.97434 0.13471 0.02224 0.0
C1405 C 0.96555 0.17902 0.02226 0.0
N1406 N 0.95935 0.15476 0.0151 0.0
C1407 C 0.99599 0.13861 0.03717 0.0
C1408 C 0.00234 0.16327 0.04468 0.0
C1409 C 0.9471 0.10948 0.95502 0.0
C1410 C 0.86435 0.15953 0.90293 0.0
C1411 C 0.8925 0.11499 0.90535 0.0
C1412 C 0.8883 0.12658 0.88178 0.0
C1413 C 0.87412 0.149 0.88062 0.0
N1414 N 0.88276 0.12538 0.92713 0.0
C1415 C 0.86891 0.1474 0.92616 0.0
H1416 H 0.06243 0.06953 0.55689 0.0
H1417 H 0.13645 0.06373 0.52087 0.0
H1418 H 0.11971 0.08537 0.48265 0.0
H1419 H 0.02848 0.05257 0.50386 0.0
H1420 H 0.00159 0.07327 0.50916 0.0
H1421 H 0.02039 0.06259 0.53569 0.0
H1422 H 0.02841 0.10943 0.54902 0.0
H1423 H 0.00953 0.12025 0.52245 0.0
H1424 H 0.04173 0.13148 0.52632 0.0
H1425 H 0.09425 0.10116 0.44666 0.0
H1426 H 0.06125 0.10838 0.4142 0.0
H1427 H 0.00279 0.10341 0.47242 0.0
C1428 C 0.07522 0.07376 0.54127 0.0
C1429 C 0.10078 0.06548 0.54179 0.0
C1430 C 0.11687 0.07024 0.52075 0.0
C1431 C 0.10756 0.08263 0.49907 0.0
C1432 C 0.08207 0.08998 0.49873 0.0
C1433 C 0.06604 0.08573 0.51922 0.0
C1434 C 0.03869 0.09219 0.5125 0.0
C1435 C 0.02128 0.06876 0.51547 0.0
C1436 C 0.02902 0.11468 0.52853 0.0
C1437 C 0.04175 0.0997 0.48478 0.0
C1438 C 0.06702 0.09879 0.47744 0.0
C1439 C 0.07446 0.10247 0.45225 0.0
C1440 C 0.05555 0.10647 0.43392 0.0
C1441 C 0.02948 0.10667 0.44081 0.0
C1442 C 0.0226 0.104 0.4667 0.0
H1443 H 0.95262 0.4392 0.4321 0.0
H1444 H 0.99483 0.37289 0.45808 0.0
H1445 H 0.96882 0.37186 0.49723 0.0
H1446 H 0.94906 0.46942 0.49158 0.0
H1447 H 0.91751 0.48205 0.48675 0.0
H1448 H 0.93786 0.4761 0.45983 0.0
H1449 H 0.90315 0.44722 0.43988 0.0
H1450 H 0.88269 0.45306 0.46682 0.0
H1451 H 0.89062 0.42085 0.45797 0.0
H1452 H 0.94017 0.37984 0.53482 0.0
H1453 H 0.91209 0.39698 0.56839 0.0
H1454 H 0.8889 0.458 0.51745 0.0
C1455 C 0.95623 0.42421 0.4458 0.0
C1456 C 0.97574 0.40606 0.44191 0.0
C1457 C 0.97997 0.38699 0.46057 0.0
C1458 C 0.96524 0.38618 0.48284 0.0
C1459 C 0.94634 0.40453 0.48615 0.0
C1460 C 0.94182 0.42319 0.46813 0.0
C1461 C 0.92149 0.44163 0.47692 0.0
C1462 C 0.93213 0.4689 0.47889 0.0
C1463 C 0.8981 0.44061 0.45935 0.0
C1464 C 0.91557 0.43068 0.50289 0.0
C1465 C 0.92992 0.40916 0.5078 0.0
C1466 C 0.92864 0.39652 0.5311 0.0
C1467 C 0.91261 0.40641 0.55005 0.0
C1468 C 0.89815 0.42881 0.54559 0.0
C1469 C 0.89941 0.44071 0.52147 0.0
H1470 H 0.03697 0.93134 0.08608 0.0
H1471 H 0.98614 0.87334 0.05611 0.0
H1472 H 0.009 0.87477 0.01512 0.0
H1473 H 0.03834 0.96854 0.03145 0.0
H1474 H 0.0713 0.97775 0.03413 0.0
H1475 H 0.05341 0.9698 0.06226 0.0
H1476 H 0.08687 0.93557 0.07425 0.0
H1477 H 0.10503 0.94354 0.04622 0.0
H1478 H 0.09501 0.91113 0.05155 0.0
H1479 H 0.03405 0.88558 0.97636 0.0
H1480 H 0.06019 0.90434 0.94239 0.0
H1481 H 0.09472 0.95575 0.99727 0.0
C1482 C 0.03096 0.91847 0.07114 0.0
C1483 C 0.00978 0.90213 0.07441 0.0
C1484 C 0.00235 0.88595 0.05414 0.0
C1485 C 0.01523 0.8866 0.03078 0.0
C1486 C 0.03553 0.90346 0.028 0.0
C1487 C 0.04347 0.91901 0.04765 0.0
C1488 C 0.06451 0.93683 0.03909 0.0
C1489 C 0.05639 0.96488 0.0419 0.0
C1490 C 0.08933 0.93143 0.05365 0.0
C1491 C 0.06677 0.92924 0.01137 0.0
C1492 C 0.05002 0.90982 0.00547 0.0
C1493 C 0.04752 0.90052 0.98081 0.0
C1494 C 0.06246 0.9114 0.96161 0.0
C1495 C 0.07973 0.93145 0.96711 0.0
C1496 C 0.082 0.94025 0.99245 0.0
H1497 H 0.95086 0.5806 0.07669 0.0
H1498 H 0.00258 0.63655 0.04448 0.0
H1499 H 0.97782 0.63598 0.00438 0.0
H1500 H 0.94548 0.5434 0.02294 0.0
H1501 H 0.91241 0.53556 0.02772 0.0
H1502 H 0.9322 0.54307 0.0546 0.0
H1503 H 0.90075 0.57876 0.068 0.0
H1504 H 0.88079 0.57131 0.04112 0.0
H1505 H 0.89238 0.60332 0.0455 0.0
H1506 H 0.94972 0.62533 0.96607 0.0
H1507 H 0.92151 0.60565 0.93384 0.0
H1508 H 0.88882 0.55743 0.9926 0.0
C1509 C 0.95681 0.59319 0.06149 0.0
C1510 C 0.97866 0.6087 0.06384 0.0
C1511 C 0.98581 0.62462 0.04323 0.0
C1512 C 0.97184 0.62444 0.02038 0.0
C1513 C 0.9507 0.60843 0.01858 0.0
C1514 C 0.94319 0.59325 0.03874 0.0
C1515 C 0.9211 0.57627 0.03167 0.0
C1516 C 0.92824 0.54791 0.03439 0.0
C1517 C 0.89735 0.58282 0.04751 0.0
C1518 C 0.91768 0.58373 0.00413 0.0
C1519 C 0.93469 0.60245 0.99685 0.0
C1520 C 0.93606 0.61096 0.9717 0.0
C1521 C 0.91995 0.59968 0.95351 0.0
C1522 C 0.90286 0.58001 0.96062 0.0
C1523 C 0.90147 0.57252 0.98642 0.0
H1524 H 0.46518 0.99559 0.0945 0.0
H1525 H 0.40163 0.04624 0.07957 0.0
H1526 H 0.43147 0.08073 0.06876 0.0
H1527 H 0.50995 0.04555 0.11996 0.0
H1528 H 0.537 0.03099 0.10461 0.0
H1529 H 0.51082 0.01153 0.11534 0.0
H1530 H 0.50619 0.99306 0.06987 0.0
H1531 H 0.53205 0.01269 0.05891 0.0
H1532 H 0.50148 0.01445 0.04341 0.0
H1533 H 0.46729 0.10747 0.05341 0.0
H1534 H 0.5074 0.126 0.03743 0.0
H1535 H 0.54832 0.05862 0.06259 0.0
C1536 C 0.45762 0.01423 0.08993 0.0
C1537 C 0.43108 0.0183 0.08806 0.0
C1538 C 0.42187 0.04272 0.08118 0.0
C1539 C 0.43869 0.06246 0.07503 0.0
C1540 C 0.46471 0.05756 0.07594 0.0
C1541 C 0.47423 0.03418 0.08355 0.0
C1542 C 0.50297 0.03331 0.08066 0.0
C1543 C 0.51595 0.03017 0.1067 0.0
C1544 C 0.51114 0.01213 0.06211 0.0
C1545 C 0.50793 0.05953 0.06956 0.0
C1546 C 0.4856 0.07322 0.06714 0.0
C1547 C 0.48499 0.09715 0.05565 0.0
C1548 C 0.50785 0.10744 0.04646 0.0
C1549 C 0.53103 0.09384 0.04887 0.0
C1550 C 0.53099 0.06966 0.0608 0.0
H1551 H 0.53522 0.50287 0.09613 0.0
H1552 H 0.59681 0.44768 0.09364 0.0
H1553 H 0.56635 0.4142 0.08164 0.0
H1554 H 0.48446 0.45786 0.11917 0.0
H1555 H 0.46064 0.4726 0.09932 0.0
H1556 H 0.48645 0.49138 0.11194 0.0
H1557 H 0.49817 0.5058 0.06626 0.0
H1558 H 0.47266 0.48688 0.05346 0.0
H1559 H 0.50477 0.48209 0.04231 0.0
H1560 H 0.53127 0.38853 0.06351 0.0
H1561 H 0.4927 0.37138 0.04293 0.0
H1562 H 0.45316 0.44248 0.05773 0.0
C1563 C 0.54216 0.48356 0.09396 0.0
C1564 C 0.56842 0.4779 0.09598 0.0
C1565 C 0.57681 0.4525 0.09229 0.0
C1566 C 0.55963 0.4333 0.0855 0.0
C1567 C 0.53408 0.43972 0.08263 0.0
C1568 C 0.52524 0.46414 0.08705 0.0
C1569 C 0.49723 0.46643 0.08034 0.0
C1570 C 0.48125 0.47241 0.10411 0.0
C1571 C 0.49298 0.48648 0.05935 0.0
C1572 C 0.49201 0.43973 0.07067 0.0
C1573 C 0.51351 0.42462 0.07234 0.0
C1574 C 0.51414 0.39996 0.0626 0.0
C1575 C 0.49222 0.39046 0.05079 0.0
C1576 C 0.46994 0.40555 0.04893 0.0
C1577 C 0.46978 0.43037 0.05934 0.0
H1578 H 0.54945 0.94078 0.42749 0.0
H1579 H 0.51289 0.87067 0.45174 0.0
H1580 H 0.47212 0.88585 0.43417 0.0
H1581 H 0.49883 0.98104 0.44471 0.0
H1582 H 0.50261 0.00273 0.41837 0.0
H1583 H 0.5296 0.98514 0.43004 0.0
H1584 H 0.53742 0.96712 0.38479 0.0
H1585 H 0.51026 0.98454 0.37302 0.0
H1586 H 0.51211 0.95054 0.36859 0.0
H1587 H 0.43499 0.90943 0.41749 0.0
H1588 H 0.40282 0.94135 0.40542 0.0
H1589 H 0.46259 0.99684 0.39211 0.0
C1590 C 0.53293 0.9285 0.42871 0.0
C1591 C 0.5343 0.90455 0.44095 0.0
C1592 C 0.51221 0.88917 0.44261 0.0
C1593 C 0.48903 0.89751 0.43247 0.0
C1594 C 0.48821 0.9213 0.42075 0.0
C1595 C 0.50948 0.93669 0.41894 0.0
C1596 C 0.50278 0.96239 0.40752 0.0
C1597 C 0.5088 0.9841 0.42628 0.0
C1598 C 0.51646 0.96637 0.38196 0.0
C1599 C 0.47432 0.95921 0.4038 0.0
C1600 C 0.46646 0.93519 0.4112 0.0
C1601 C 0.4409 0.92819 0.41131 0.0
C1602 C 0.42277 0.94647 0.40445 0.0
C1603 C 0.43023 0.97148 0.39764 0.0
C1604 C 0.4564 0.97769 0.39662 0.0
H1605 H 0.48183 0.5983 0.46241 0.0
H1606 H 0.42605 0.5739 0.40641 0.0
H1607 H 0.45882 0.54725 0.38567 0.0
H1608 H 0.53616 0.60107 0.41933 0.0
H1609 H 0.55791 0.58941 0.4432 0.0
H1610 H 0.53036 0.60764 0.45252 0.0
H1611 H 0.51621 0.57099 0.48247 0.0
H1612 H 0.54365 0.55266 0.47322 0.0
H1613 H 0.5122 0.53938 0.46969 0.0
H1614 H 0.49742 0.52103 0.3728 0.0
H1615 H 0.53827 0.49779 0.36907 0.0
H1616 H 0.56803 0.5409 0.43309 0.0
C1617 C 0.47647 0.58776 0.44553 0.0
C1618 C 0.45135 0.58842 0.43596 0.0
C1619 C 0.44519 0.57385 0.41407 0.0
C1620 C 0.46369 0.55867 0.40212 0.0
C1621 C 0.48823 0.5584 0.41219 0.0
C1622 C 0.49462 0.57267 0.43336 0.0
C1623 C 0.52196 0.56837 0.44117 0.0
C1624 C 0.53751 0.59309 0.43891 0.0
C1625 C 0.52359 0.55718 0.46823 0.0
C1626 C 0.52991 0.54913 0.42133 0.0
C1627 C 0.51031 0.54362 0.40469 0.0
C1628 C 0.51299 0.5254 0.38554 0.0
C1629 C 0.53626 0.51231 0.38357 0.0
C1630 C 0.55646 0.51755 0.40069 0.0
C1631 C 0.55316 0.53649 0.41951 0.0
H1632 H 0.07549 0.4344 0.03899 0.0
H1633 H 0.13177 0.47131 0.99085 0.0
H1634 H 0.12819 0.5103 0.01706 0.0
H1635 H 0.0354 0.48591 0.04342 0.0
H1636 H 0.02576 0.48017 0.07586 0.0
H1637 H 0.03589 0.45404 0.05621 0.0
H1638 H 0.07023 0.44176 0.0894 0.0
H1639 H 0.0601 0.46777 0.10939 0.0
H1640 H 0.09296 0.46532 0.09975 0.0
H1641 H 0.11455 0.54684 0.04567 0.0
H1642 H 0.09204 0.57742 0.07344 0.0
H1643 H 0.04415 0.5161 0.10162 0.0
C1644 C 0.08763 0.45038 0.03421 0.0
C1645 C 0.10406 0.44964 0.01286 0.0
C1646 C 0.1192 0.47127 0.00721 0.0
C1647 C 0.11729 0.49352 0.022 0.0
C1648 C 0.10024 0.49379 0.0424 0.0
C1649 C 0.08578 0.47268 0.04853 0.0
C1650 C 0.06707 0.4784 0.06969 0.0
C1651 C 0.03941 0.4744 0.06075 0.0
C1652 C 0.07296 0.46236 0.09347 0.0
C1653 C 0.07277 0.50626 0.07415 0.0
C1654 C 0.09216 0.51478 0.0585 0.0
C1655 C 0.0996 0.54027 0.05825 0.0
C1656 C 0.08666 0.55751 0.0741 0.0
C1657 C 0.06631 0.54923 0.08984 0.0
C1658 C 0.05973 0.52312 0.09007 0.0
H1659 H 0.06879 0.44777 0.44494 0.0
H1660 H 0.05891 0.4912 0.37543 0.0
H1661 H 0.07964 0.52826 0.39554 0.0
H1662 H 0.05089 0.49585 0.48484 0.0
H1663 H 0.07267 0.48857 0.51035 0.0
H1664 H 0.06251 0.4638 0.48906 0.0
H1665 H 0.10955 0.45354 0.47824 0.0
H1666 H 0.11989 0.47837 0.49959 0.0
H1667 H 0.13016 0.47852 0.46684 0.0
H1668 H 0.09458 0.56205 0.42438 0.0
H1669 H 0.10095 0.59109 0.46067 0.0
H1670 H 0.10073 0.52676 0.51243 0.0
C1671 C 0.07192 0.46479 0.43373 0.0
C1672 C 0.06267 0.46661 0.40855 0.0
C1673 C 0.06609 0.48946 0.39469 0.0
C1674 C 0.07798 0.51052 0.40591 0.0
C1675 C 0.08623 0.50845 0.43104 0.0
C1676 C 0.08337 0.48619 0.44485 0.0
C1677 C 0.09046 0.49018 0.47257 0.0
C1678 C 0.06778 0.48426 0.49023 0.0
C1679 C 0.11392 0.4742 0.47973 0.0
C1680 C 0.09669 0.51839 0.47239 0.0
C1681 C 0.09465 0.52837 0.44809 0.0
C1682 C 0.09681 0.5544 0.44339 0.0
C1683 C 0.10035 0.57076 0.4641 0.0
C1684 C 0.10165 0.56108 0.48921 0.0
C1685 C 0.10061 0.53451 0.49332 0.0
H1686 H 0.90301 0.95506 0.4987 0.0
H1687 H 0.93205 0.89644 0.44806 0.0
H1688 H 0.94524 0.92938 0.41747 0.0
H1689 H 0.88085 0.99964 0.4481 0.0
H1690 H 0.89073 0.02728 0.46589 0.0
H1691 H 0.88049 0.99896 0.48242 0.0
H1692 H 0.92315 0.99808 0.50714 0.0
H1693 H 0.93365 0.02617 0.49053 0.0
H1694 H 0.95273 0.99763 0.48971 0.0
H1695 H 0.9597 0.96819 0.39475 0.0
H1696 H 0.97273 0.01085 0.38013 0.0
H1697 H 0.93426 0.04473 0.4451 0.0
C1698 C 0.91146 0.94912 0.48085 0.0
C1699 C 0.91637 0.92313 0.47574 0.0
C1700 C 0.92805 0.9162 0.45241 0.0
C1701 C 0.93559 0.93477 0.43486 0.0
C1702 C 0.93125 0.96023 0.44083 0.0
C1703 C 0.91925 0.96747 0.46311 0.0
C1704 C 0.91859 0.99623 0.46567 0.0
C1705 C 0.89102 0.00611 0.4655 0.0
C1706 C 0.93288 0.00503 0.48968 0.0
C1707 C 0.93263 0.00391 0.44165 0.0
C1708 C 0.93962 0.98283 0.42756 0.0
C1709 C 0.95403 0.9849 0.4054 0.0
C1710 C 0.96148 0.00922 0.39735 0.0
C1711 C 0.95448 0.03116 0.41142 0.0
C1712 C 0.93968 0.02838 0.43376 0.0
H1713 H 0.39056 0.54291 0.49957 0.0
H1714 H 0.40142 0.59915 0.5591 0.0
H1715 H 0.41032 0.56489 0.58987 0.0
H1716 H 0.36284 0.49126 0.54144 0.0
H1717 H 0.37961 0.46668 0.5243 0.0
H1718 H 0.36941 0.49514 0.50796 0.0
H1719 H 0.41573 0.50297 0.49298 0.0
H1720 H 0.42615 0.4748 0.50947 0.0
H1721 H 0.44084 0.50507 0.5163 0.0
H1722 H 0.42492 0.52623 0.61213 0.0
H1723 H 0.44216 0.48463 0.62548 0.0
H1724 H 0.42143 0.45238 0.55232 0.0
C1725 C 0.39381 0.5479 0.51931 0.0
C1726 C 0.39507 0.57367 0.52703 0.0
C1727 C 0.40025 0.57954 0.55282 0.0
C1728 C 0.40527 0.5602 0.57045 0.0
C1729 C 0.40493 0.53505 0.56206 0.0
C1730 C 0.39904 0.52875 0.53719 0.0
C1731 C 0.40262 0.50042 0.53258 0.0
C1732 C 0.37709 0.48762 0.5262 0.0
C1733 C 0.42252 0.49555 0.5116 0.0
C1734 C 0.41232 0.49203 0.55846 0.0
C1735 C 0.41327 0.51234 0.57519 0.0
C1736 C 0.42375 0.51004 0.59943 0.0
C1737 C 0.43365 0.48641 0.60677 0.0
C1738 C 0.43292 0.46533 0.58998 0.0
C1739 C 0.42172 0.46808 0.56568 0.0
H1740 H 0.56508 0.57439 0.03765 0.0
H1741 H 0.6338 0.53846 0.00865 0.0
H1742 H 0.62104 0.54962 0.9649 0.0
H1743 H 0.52455 0.55222 0.98962 0.0
H1744 H 0.50544 0.5807 0.98798 0.0
H1745 H 0.52121 0.57235 0.01722 0.0
H1746 H 0.54347 0.61641 0.01786 0.0
H1747 H 0.52775 0.62488 0.98854 0.0
H1748 H 0.56198 0.62643 0.99073 0.0
H1749 H 0.59944 0.56122 0.92444 0.0
H1750 H 0.56985 0.57167 0.88964 0.0
H1751 H 0.51515 0.60031 0.94471 0.0
C1752 C 0.57768 0.56923 0.02216 0.0
C1753 C 0.60048 0.5556 0.02661 0.0
C1754 C 0.61622 0.54887 0.00573 0.0
C1755 C 0.60922 0.55524 0.98081 0.0
C1756 C 0.58648 0.56838 0.97709 0.0
C1757 C 0.57093 0.57531 0.99715 0.0
C1758 C 0.54661 0.5877 0.98779 0.0
C1759 C 0.52307 0.57232 0.99614 0.0
C1760 C 0.54486 0.61551 0.99676 0.0
C1761 C 0.55071 0.58614 0.9593 0.0
C1762 C 0.57394 0.57515 0.95358 0.0
C1763 C 0.58135 0.57016 0.92863 0.0
C1764 C 0.56436 0.57615 0.90899 0.0
C1765 C 0.54023 0.58699 0.91441 0.0
C1766 C 0.53361 0.59247 0.9399 0.0
H1767 H 0.41001 0.94773 -0.0 0.0
H1768 H 0.44354 0.8992 0.05808 0.0
H1769 H 0.47161 0.88002 0.02593 0.0
H1770 H 0.41337 0.90124 0.94729 0.0
H1771 H 0.4216 0.92535 0.92425 0.0
H1772 H 0.40203 0.93342 0.95129 0.0
H1773 H 0.43384 0.96905 0.96371 0.0
H1774 H 0.45345 0.96108 0.93676 0.0
H1775 H 0.46695 0.96118 0.96831 0.0
H1776 H 0.49876 0.8688 0.98867 0.0
H1777 H 0.5235 0.86694 0.94878 0.0
H1778 H 0.47217 0.92233 0.91482 0.0
C1779 C 0.42287 0.93271 0.00588 0.0
C1780 C 0.42436 0.92489 0.03159 0.0
C1781 C 0.44187 0.9055 0.03853 0.0
C1782 C 0.4579 0.89438 0.02038 0.0
C1783 C 0.45619 0.90276 0.99531 0.0
C1784 C 0.43912 0.92144 0.98801 0.0
C1785 C 0.44245 0.92829 0.96021 0.0
C1786 C 0.41843 0.92167 0.94485 0.0
C1787 C 0.44961 0.95657 0.95708 0.0
C1788 C 0.46445 0.91097 0.95327 0.0
C1789 C 0.47193 0.89623 0.97371 0.0
C1790 C 0.49288 0.87997 0.97238 0.0
C1791 C 0.50683 0.87906 0.94964 0.0
C1792 C 0.49978 0.89439 0.92857 0.0
C1793 C 0.47797 0.91013 0.9304 0.0
H1794 H 0.53855 0.42006 0.56815 0.0
H1795 H 0.48624 0.3682 0.53058 0.0
H1796 H 0.51242 0.37052 0.49151 0.0
H1797 H 0.54559 0.46068 0.51753 0.0
H1798 H 0.57867 0.4678 0.52325 0.0
H1799 H 0.55846 0.45853 0.54927 0.0
H1800 H 0.58937 0.42163 0.56038 0.0
H1801 H 0.60976 0.43082 0.53432 0.0
H1802 H 0.59779 0.39869 0.53626 0.0
H1803 H 0.54146 0.38264 0.45518 0.0
H1804 H 0.56938 0.40473 0.42449 0.0
H1805 H 0.60172 0.44914 0.48631 0.0
C1806 C 0.53282 0.40865 0.55198 0.0
C1807 C 0.51036 0.39383 0.55253 0.0
C1808 C 0.50343 0.37958 0.53069 0.0
C1809 C 0.51824 0.38071 0.50844 0.0
C1810 C 0.53992 0.39607 0.50841 0.0
C1811 C 0.54717 0.40974 0.52968 0.0
C1812 C 0.56954 0.42699 0.52411 0.0
C1813 C 0.56263 0.45515 0.52881 0.0
C1814 C 0.59301 0.41904 0.53969 0.0
C1815 C 0.57327 0.42154 0.49612 0.0
C1816 C 0.55634 0.40334 0.48746 0.0
C1817 C 0.55505 0.39662 0.46182 0.0
C1818 C 0.57101 0.4093 0.44453 0.0
C1819 C 0.58779 0.42872 0.45294 0.0
C1820 C 0.58931 0.43428 0.47921 0.0
H1821 H 0.46408 0.06561 0.5669 0.0
H1822 H 0.51218 0.12524 0.53551 0.0
H1823 H 0.48823 0.12311 0.49515 0.0
H1824 H 0.46144 0.02848 0.51193 0.0
H1825 H 0.42883 0.01866 0.51625 0.0
H1826 H 0.44796 0.02676 0.54347 0.0
H1827 H 0.41437 0.06024 0.55728 0.0
H1828 H 0.39509 0.0522 0.53006 0.0
H1829 H 0.40478 0.08473 0.53519 0.0
H1830 H 0.46145 0.11192 0.45711 0.0
H1831 H 0.43395 0.09253 0.42436 0.0
H1832 H 0.40364 0.04037 0.48105 0.0
C1833 C 0.46938 0.07857 0.55175 0.0
C1834 C 0.48999 0.09566 0.55446 0.0
C1835 C 0.49641 0.11203 0.53396 0.0
C1836 C 0.48289 0.11101 0.51096 0.0
C1837 C 0.46297 0.09363 0.50883 0.0
C1838 C 0.45618 0.07778 0.52872 0.0
C1839 C 0.43512 0.05967 0.5211 0.0
C1840 C 0.44387 0.03175 0.52331 0.0
C1841 C 0.4109 0.06452 0.53684 0.0
C1842 C 0.43148 0.06747 0.49363 0.0
C1843 C 0.44755 0.0872 0.48695 0.0
C1844 C 0.44854 0.09668 0.46219 0.0
C1845 C 0.43286 0.0855 0.44371 0.0
C1846 C 0.41646 0.06501 0.45011 0.0
C1847 C 0.41564 0.05621 0.47553 0.0
H1848 H 0.00694 0.58258 0.55572 0.0
H1849 H 0.06197 0.54657 0.60595 0.0
H1850 H 0.02734 0.52175 0.62585 0.0
H1851 H 0.9558 0.58754 0.60231 0.0
H1852 H 0.93144 0.58102 0.57902 0.0
H1853 H 0.96051 0.59662 0.56954 0.0
H1854 H 0.96839 0.56166 0.53552 0.0
H1855 H 0.9393 0.54616 0.54482 0.0
H1856 H 0.96883 0.52866 0.54508 0.0
H1857 H 0.98672 0.49894 0.63842 0.0
H1858 H 0.944 0.4794 0.64156 0.0
H1859 H 0.91605 0.53258 0.5846 0.0
C1860 C 0.0118 0.56982 0.57116 0.0
C1861 C 0.03722 0.56681 0.57941 0.0
C1862 C 0.04264 0.54936 0.59933 0.0
C1863 C 0.02308 0.53524 0.61084 0.0
C1864 C 0.99821 0.53892 0.60238 0.0
C1865 C 0.99257 0.55582 0.583 0.0
C1866 C 0.9645 0.55569 0.57669 0.0
C1867 C 0.95235 0.58177 0.58223 0.0
C1868 C 0.96001 0.54755 0.54889 0.0
C1869 C 0.95526 0.53567 0.5952 0.0
C1870 C 0.9749 0.52625 0.60996 0.0
C1871 C 0.97112 0.5064 0.62721 0.0
C1872 C 0.94677 0.49546 0.6289 0.0
C1873 C 0.92656 0.50446 0.61342 0.0
C1874 C 0.9309 0.52531 0.59693 0.0
H1875 H 0.99238 0.89223 0.5511 0.0
H1876 H 0.93337 0.92777 0.59696 0.0
H1877 H 0.96581 0.95523 0.61706 0.0
H1878 H 0.04364 0.89463 0.5992 0.0
H1879 H 0.06744 0.90162 0.57546 0.0
H1880 H 0.04005 0.88265 0.56723 0.0
H1881 H 0.02943 0.91396 0.53055 0.0
H1882 H 0.05665 0.93305 0.53871 0.0
H1883 H 0.02547 0.94736 0.53752 0.0
H1884 H 0.0042 0.98198 0.62872 0.0
H1885 H 0.04499 0.00542 0.6308 0.0
H1886 H 0.0781 0.9517 0.57726 0.0
C1887 C 0.98624 0.90529 0.56581 0.0
C1888 C 0.96028 0.90765 0.57253 0.0
C1889 C 0.95315 0.92545 0.59156 0.0
C1890 C 0.97144 0.94113 0.60313 0.0
C1891 C 0.99678 0.93867 0.59559 0.0
C1892 C 0.00416 0.92106 0.57746 0.0
C1893 C 0.03215 0.92343 0.57117 0.0
C1894 C 0.04668 0.89914 0.57873 0.0
C1895 C 0.03614 0.92984 0.54282 0.0
C1896 C 0.03927 0.94558 0.58809 0.0
C1897 C 0.01875 0.95401 0.60224 0.0
C1898 C 0.0205 0.97531 0.61801 0.0
C1899 C 0.04375 0.98851 0.61906 0.0
C1900 C 0.06485 0.9804 0.60429 0.0
C1901 C 0.06251 0.95837 0.58901 0.0
H1902 H 0.00884 0.41493 0.95651 0.0
H1903 H 0.06151 0.44511 0.90023 0.0
H1904 H 0.02657 0.46992 0.881 0.0
H1905 H 0.95308 0.41072 0.91453 0.0
H1906 H 0.93148 0.42035 0.93942 0.0
H1907 H 0.96015 0.40315 0.94726 0.0
H1908 H 0.97338 0.43925 0.97824 0.0
H1909 H 0.94478 0.45648 0.97051 0.0
H1910 H 0.97539 0.47151 0.96661 0.0
H1911 H 0.98668 0.49424 0.87015 0.0
H1912 H 0.9452 0.51645 0.86909 0.0
H1913 H 0.91895 0.46951 0.93202 0.0
C1914 C 0.01303 0.42636 0.93986 0.0
C1915 C 0.03795 0.42788 0.92982 0.0
C1916 C 0.04258 0.44349 0.90825 0.0
C1917 C 0.02283 0.45762 0.89712 0.0
C1918 C 0.99857 0.45586 0.90767 0.0
C1919 C 0.9936 0.44056 0.92852 0.0
C1920 C 0.96628 0.44319 0.93724 0.0
C1921 C 0.9519 0.41784 0.93444 0.0
C1922 C 0.96489 0.45321 0.96477 0.0
C1923 C 0.9568 0.46279 0.91838 0.0
C1924 C 0.9756 0.46974 0.90134 0.0
C1925 C 0.97168 0.48871 0.88317 0.0
C1926 C 0.94805 0.50121 0.88271 0.0
C1927 C 0.92871 0.4947 0.90039 0.0
C1928 C 0.93314 0.47484 0.91804 0.0
H1929 H 0.03424 0.99631 0.90403 0.0
H1930 H 0.09685 0.05007 0.90565 0.0
H1931 H 0.06671 0.08515 0.91364 0.0
H1932 H 0.98517 0.04103 0.87578 0.0
H1933 H 0.96028 0.02821 0.89566 0.0
H1934 H 0.98607 0.00803 0.88526 0.0
H1935 H 0.99571 0.99643 0.9322 0.0
H1936 H 0.97024 0.01676 0.94276 0.0
H1937 H 0.00205 0.02152 0.95476 0.0
H1938 H 0.03166 0.11278 0.92837 0.0
H1939 H 0.99305 0.1321 0.94676 0.0
H1940 H 0.95213 0.06118 0.9353 0.0
C1941 C 0.04139 0.01563 0.90502 0.0
C1942 C 0.06781 0.02061 0.90399 0.0
C1943 C 0.07667 0.04594 0.90632 0.0
C1944 C 0.05968 0.06599 0.91077 0.0
C1945 C 0.03385 0.06039 0.9128 0.0
C1946 C 0.02461 0.03591 0.90972 0.0
C1947 C 0.9963 0.03477 0.91553 0.0
C1948 C 0.98105 0.02759 0.89163 0.0
C1949 C 0.99077 0.01628 0.93763 0.0
C1950 C 0.99138 0.06219 0.92323 0.0
C1951 C 0.01328 0.07664 0.92127 0.0
C1952 C 0.01423 0.10186 0.92946 0.0
C1953 C 0.99224 0.11261 0.94003 0.0
C1954 C 0.96954 0.09821 0.94226 0.0
C1955 C 0.96905 0.07279 0.93336 0.0
H1956 H 0.57845 0.05142 0.55226 0.0
H1957 H 0.57711 0.01774 0.62756 0.0
H1958 H 0.59638 0.97842 0.61051 0.0
H1959 H 0.55738 0.99882 0.52143 0.0
H1960 H 0.57619 0.00221 0.49291 0.0
H1961 H 0.56832 0.02984 0.51151 0.0
H1962 H 0.61617 0.04103 0.51571 0.0
H1963 H 0.62421 0.01345 0.49687 0.0
H1964 H 0.63806 0.01758 0.52799 0.0
H1965 H 0.60761 0.94084 0.58499 0.0
H1966 H 0.61057 0.90714 0.55243 0.0
H1967 H 0.60476 0.9641 0.4929 0.0
C1968 C 0.58338 0.03614 0.56522 0.0
C1969 C 0.57689 0.03762 0.59125 0.0
C1970 C 0.58237 0.01695 0.60761 0.0
C1971 C 0.59336 0.99461 0.59811 0.0
C1972 C 0.59866 0.99323 0.57216 0.0
C1973 C 0.59404 0.01347 0.55589 0.0
C1974 C 0.59804 0.00568 0.52834 0.0
C1975 C 0.57352 0.00935 0.51265 0.0
C1976 C 0.62046 0.02031 0.51653 0.0
C1977 C 0.60442 0.97769 0.53165 0.0
C1978 C 0.60511 0.97107 0.55713 0.0
C1979 C 0.60779 0.94586 0.56501 0.0
C1980 C 0.60931 0.92684 0.54641 0.0
C1981 C 0.60818 0.93311 0.52023 0.0
C1982 C 0.60639 0.95891 0.51278 0.0
H1983 H 0.60739 0.03861 0.99301 0.0
H1984 H 0.59825 0.09861 0.93687 0.0
H1985 H 0.59311 0.06652 0.90327 0.0
H1986 H 0.64037 0.99152 0.94969 0.0
H1987 H 0.62363 0.96501 0.96371 0.0
H1988 H 0.63128 0.99252 0.98278 0.0
H1989 H 0.58369 0.99732 0.99484 0.0
H1990 H 0.57585 0.97005 0.97569 0.0
H1991 H 0.56022 1.00009 0.96994 0.0
H1992 H 0.58181 0.02919 0.8773 0.0
H1993 H 0.5671 0.9881 0.85991 0.0
H1994 H 0.58428 0.95136 0.9319 0.0
C1995 C 0.60524 0.04494 0.97351 0.0
C1996 C 0.60335 0.07114 0.96756 0.0
C1997 C 0.59977 0.07869 0.94191 0.0
C1998 C 0.59693 0.06058 0.92263 0.0
C1999 C 0.59786 0.03494 0.92921 0.0
C2000 C 0.60221 0.02702 0.95395 0.0
C2001 C 0.59968 0.99831 0.95623 0.0
C2002 C 0.62527 0.98612 0.96353 0.0
C2003 C 0.57861 0.99104 0.9753 0.0
C2004 C 0.59224 0.99157 0.92916 0.0
C2005 C 0.59157 0.013 0.91388 0.0
C2006 C 0.58284 0.01215 0.88885 0.0
C2007 C 0.57438 0.9888 0.8792 0.0
C2008 C 0.57484 0.96662 0.89451 0.0
C2009 C 0.58433 0.96795 0.91964 0.0
H2010 H 0.44332 0.5487 0.9245 0.0
H2011 H 0.45141 0.5119 0.851 0.0
H2012 H 0.43198 0.47283 0.86837 0.0
H2013 H 0.46218 0.4966 0.95999 0.0
H2014 H 0.44069 0.50163 0.98628 0.0
H2015 H 0.45086 0.52822 0.96723 0.0
H2016 H 0.40383 0.53981 0.9579 0.0
H2017 H 0.39347 0.51321 0.97703 0.0
H2018 H 0.3829 0.51613 0.94451 0.0
H2019 H 0.41741 0.43655 0.8943 0.0
H2020 H 0.40928 0.40458 0.92765 0.0
H2021 H 0.41072 0.46388 0.98509 0.0
C2022 C 0.44024 0.53265 0.91193 0.0
C2023 C 0.44862 0.53332 0.88636 0.0
C2024 C 0.44505 0.51174 0.87063 0.0
C2025 C 0.4339 0.48954 0.88028 0.0
C2026 C 0.42647 0.48919 0.90573 0.0
C2027 C 0.42943 0.51014 0.9214 0.0
C2028 C 0.42255 0.50369 0.94873 0.0
C2029 C 0.44543 0.50777 0.9666 0.0
C2030 C 0.3993 0.51913 0.95755 0.0
C2031 C 0.41609 0.47565 0.94606 0.0
C2032 C 0.41812 0.46786 0.92099 0.0
C2033 C 0.4153 0.44247 0.91392 0.0
C2034 C 0.41082 0.42442 0.933 0.0
C2035 C 0.4092 0.43181 0.95885 0.0
C2036 C 0.41125 0.45784 0.96538 0.0
H2037 H 0.90123 0.04594 0.01065 0.0
H2038 H 0.92007 0.1075 0.06249 0.0
H2039 H 0.92673 0.07647 0.09694 0.0
H2040 H 0.86979 0.00351 0.0584 0.0
H2041 H 0.88329 0.97518 0.04444 0.0
H2042 H 0.87616 0.00236 0.02468 0.0
H2043 H 0.92282 0.00298 0.00867 0.0
H2044 H 0.9301 0.97591 0.02839 0.0
H2045 H 0.94841 0.00478 0.03148 0.0
H2046 H 0.93663 0.03937 0.12405 0.0
H2047 H 0.94916 0.998 0.1424 0.0
H2048 H 0.92386 0.95976 0.07368 0.0
C2049 C 0.90604 0.05291 0.02944 0.0
C2050 C 0.90995 0.07919 0.03392 0.0
C2051 C 0.91693 0.08751 0.05859 0.0
C2052 C 0.92064 0.07002 0.07835 0.0
C2053 C 0.91728 0.04425 0.07318 0.0
C2054 C 0.91005 0.03564 0.04939 0.0
C2055 C 0.9102 0.00675 0.04833 0.0
C2056 C 0.88325 0.99634 0.04369 0.0
C2057 C 0.929 0.99705 0.02802 0.0
C2058 C 0.91935 0.00057 0.07501 0.0
C2059 C 0.92304 0.02253 0.08906 0.0
C2060 C 0.9334 0.022 0.11345 0.0
C2061 C 0.94056 0.99844 0.12366 0.0
C2062 C 0.93729 0.97572 0.10952 0.0
C2063 C 0.92605 0.97678 0.0851 0.0
H2064 H 0.01645 0.19739 0.39027 0.0
H2065 H 0.93387 0.19363 0.39233 0.0
H2066 H 0.93165 0.24022 0.38604 0.0
H2067 H 0.02181 0.25526 0.42543 0.0
H2068 H 0.04857 0.26704 0.40743 0.0
H2069 H 0.04363 0.23325 0.41063 0.0
H2070 H 0.04367 0.22854 0.36151 0.0
H2071 H 0.04854 0.26236 0.35816 0.0
H2072 H 0.02185 0.24727 0.34274 0.0
H2073 H 0.93837 0.28711 0.37995 0.0
H2074 H 0.95343 0.33152 0.37766 0.0
H2075 H 0.03175 0.30503 0.38108 0.0
C2076 C 0.99789 0.20634 0.38923 0.0
C2077 C 0.97531 0.19187 0.39169 0.0
C2078 C 0.95141 0.20434 0.39054 0.0
C2079 C 0.94995 0.23077 0.38684 0.0
C2080 C 0.97257 0.24446 0.3845 0.0
C2081 C 0.99609 0.23273 0.38585 0.0
C2082 C 0.0175 0.25201 0.38401 0.0
C2083 C 0.03383 0.25188 0.40833 0.0
C2084 C 0.03385 0.24725 0.36019 0.0
C2085 C 0.00233 0.27644 0.38161 0.0
C2086 C 0.97646 0.27161 0.38163 0.0
C2087 C 0.95858 0.29114 0.3799 0.0
C2088 C 0.96736 0.31632 0.37857 0.0
C2089 C 0.99378 0.32181 0.37923 0.0
C2090 C 0.01144 0.3015 0.38047 0.0
H2091 H 0.03053 0.70631 0.13072 0.0
H2092 H 0.95456 0.67624 0.14363 0.0
H2093 H 0.93799 0.72 0.14774 0.0
H2094 H 0.02506 0.76081 0.17461 0.0
H2095 H 0.04306 0.78159 0.15404 0.0
H2096 H 0.04936 0.74784 0.15411 0.0
H2097 H 0.04177 0.74632 0.10539 0.0
H2098 H 0.03535 0.78 0.10518 0.0
H2099 H 0.01215 0.75807 0.0926 0.0
H2100 H 0.92892 0.76689 0.14678 0.0
H2101 H 0.92837 0.81373 0.14249 0.0
H2102 H 0.01029 0.8135 0.13117 0.0
C2103 C 0.01049 0.70889 0.13484 0.0
C2104 C 0.99386 0.68779 0.13685 0.0
C2105 C 0.9677 0.69206 0.142 0.0
C2106 C 0.95809 0.71687 0.1444 0.0
C2107 C 0.97487 0.73724 0.1418 0.0
C2108 C 0.00056 0.73355 0.13736 0.0
C2109 C 0.01431 0.75876 0.13431 0.0
C2110 C 0.03412 0.76246 0.15554 0.0
C2111 C 0.02661 0.76091 0.10779 0.0
C2112 C 0.99225 0.77717 0.13722 0.0
C2113 C 0.96968 0.76435 0.1416 0.0
C2114 C 0.94652 0.77716 0.14367 0.0
C2115 C 0.94639 0.80376 0.14112 0.0
C2116 C 0.96929 0.81731 0.13663 0.0
C2117 C 0.99251 0.80375 0.13491 0.0
H2118 H 0.38645 0.01586 0.18377 0.0
H2119 H 0.36345 0.93651 0.18172 0.0
H2120 H 0.35579 0.93743 0.22805 0.0
H2121 H 0.42131 0.0111 0.24037 0.0
H2122 H 0.41285 0.04211 0.25243 0.0
H2123 H 0.41328 0.03647 0.21865 0.0
H2124 H 0.3664 0.05155 0.2153 0.0
H2125 H 0.36587 0.05737 0.24912 0.0
H2126 H 0.34243 0.03671 0.23492 0.0
H2127 H 0.35363 0.94579 0.27475 0.0
H2128 H 0.35838 0.96071 0.31902 0.0
H2129 H 0.38428 0.03424 0.29124 0.0
C2130 C 0.37918 0.99892 0.19302 0.0
C2131 C 0.37527 0.97619 0.17918 0.0
C2132 C 0.36646 0.95415 0.192 0.0
C2133 C 0.36197 0.9545 0.21828 0.0
C2134 C 0.36653 0.97701 0.23152 0.0
C2135 C 0.37496 0.99883 0.21938 0.0
C2136 C 0.38047 0.0198 0.23843 0.0
C2137 C 0.40865 0.02783 0.2374 0.0
C2138 C 0.36273 0.04271 0.23419 0.0
C2139 C 0.37428 0.00618 0.26312 0.0
C2140 C 0.36595 0.98164 0.25867 0.0
C2141 C 0.35994 0.96505 0.2785 0.0
C2142 C 0.36275 0.97369 0.30359 0.0
C2143 C 0.37173 0.99863 0.30864 0.0
C2144 C 0.37728 0.0151 0.28804 0.0
H2145 H 0.61435 0.49132 0.19097 0.0
H2146 H 0.60219 0.57314 0.19075 0.0
H2147 H 0.60777 0.57396 0.23749 0.0
H2148 H 0.57986 0.4788 0.24801 0.0
H2149 H 0.60109 0.45395 0.25855 0.0
H2150 H 0.59734 0.46017 0.22506 0.0
H2151 H 0.64612 0.46656 0.22071 0.0
H2152 H 0.65 0.46048 0.25426 0.0
H2153 H 0.66194 0.48963 0.24059 0.0
H2154 H 0.61437 0.56565 0.28429 0.0
H2155 H 0.61793 0.5485 0.32793 0.0
H2156 H 0.62463 0.47198 0.29725 0.0
C2157 C 0.61293 0.50944 0.2007 0.0
C2158 C 0.60788 0.53218 0.18724 0.0
C2159 C 0.60597 0.55547 0.20072 0.0
C2160 C 0.60926 0.55615 0.22722 0.0
C2161 C 0.61433 0.53336 0.2399 0.0
C2162 C 0.61593 0.51042 0.2271 0.0
C2163 C 0.62043 0.48848 0.24525 0.0
C2164 C 0.59836 0.46922 0.24415 0.0
C2165 C 0.64615 0.47553 0.23988 0.0
C2166 C 0.62083 0.50262 0.27033 0.0
C2167 C 0.61761 0.52852 0.26683 0.0
C2168 C 0.61693 0.54541 0.28727 0.0
C2169 C 0.61904 0.53548 0.31198 0.0
C2170 C 0.62151 0.5089 0.31601 0.0
C2171 C 0.6228 0.49239 0.29481 0.0
H2172 H 0.30469 0.39324 0.02662 0.0
H2173 H 0.32815 0.36206 0.95366 0.0
H2174 H 0.28323 0.35826 0.94088 0.0
H2175 H 0.24716 0.35374 0.03383 0.0
H2176 H 0.22896 0.37918 0.048 0.0
H2177 H 0.26299 0.37795 0.05232 0.0
H2178 H 0.26703 0.42366 0.03416 0.0
H2179 H 0.23305 0.42503 0.02979 0.0
H2180 H 0.254 0.4307 0.00319 0.0
H2181 H 0.23648 0.36094 0.9344 0.0
H2182 H 0.19025 0.36912 0.93501 0.0
H2183 H 0.19617 0.39736 0.01245 0.0
C2184 C 0.30035 0.38532 0.00808 0.0
C2185 C 0.32 0.37799 0.99114 0.0
C2186 C 0.31351 0.36787 0.96698 0.0
C2187 C 0.28801 0.36556 0.95954 0.0
C2188 C 0.26915 0.37324 0.97651 0.0
C2189 C 0.27492 0.38278 0.00033 0.0
C2190 C 0.25092 0.39057 0.01445 0.0
C2191 C 0.2473 0.37439 0.03858 0.0
C2192 C 0.25128 0.41919 0.02076 0.0
C2193 C 0.23087 0.3844 0.9946 0.0
C2194 C 0.24187 0.37434 0.97291 0.0
C2195 C 0.22757 0.36849 0.95138 0.0
C2196 C 0.20134 0.37326 0.9519 0.0
C2197 C 0.18961 0.38367 0.97384 0.0
C2198 C 0.20456 0.38896 0.99559 0.0
H2199 H 0.18687 0.61397 0.49212 0.0
H2200 H 0.18827 0.63031 0.57307 0.0
H2201 H 0.2341 0.64041 0.57026 0.0
H2202 H 0.24563 0.58179 0.49097 0.0
H2203 H 0.25526 0.59331 0.4601 0.0
H2204 H 0.22195 0.59044 0.46765 0.0
H2205 H 0.21513 0.63806 0.45655 0.0
H2206 H 0.24846 0.64107 0.4489 0.0
H2207 H 0.23422 0.66195 0.47213 0.0
H2208 H 0.27997 0.64637 0.55936 0.0
H2209 H 0.32345 0.64541 0.54169 0.0
H2210 H 0.29295 0.62329 0.46808 0.0
C2211 C 0.19675 0.62021 0.5091 0.0
C2212 C 0.18404 0.62164 0.53276 0.0
C2213 C 0.19768 0.62919 0.55475 0.0
C2214 C 0.22367 0.63506 0.55332 0.0
C2215 C 0.23578 0.63309 0.5298 0.0
C2216 C 0.22285 0.62573 0.50809 0.0
C2217 C 0.24088 0.62299 0.48569 0.0
C2218 C 0.24093 0.5955 0.47552 0.0
C2219 C 0.23427 0.64217 0.46457 0.0
C2220 C 0.26597 0.62958 0.49832 0.0
C2221 C 0.26252 0.63572 0.52367 0.0
C2222 C 0.28291 0.64175 0.5395 0.0
C2223 C 0.30756 0.64114 0.52927 0.0
C2224 C 0.31166 0.63425 0.5035 0.0
C2225 C 0.29047 0.62872 0.48782 0.0
H2226 H 0.69745 0.86185 0.50389 0.0
H2227 H 0.69897 0.88711 0.42531 0.0
H2228 H 0.74615 0.88813 0.42656 0.0
H2229 H 0.74839 0.90283 0.52445 0.0
H2230 H 0.76096 0.88019 0.547 0.0
H2231 H 0.72754 0.87994 0.5393 0.0
H2232 H 0.73081 0.83236 0.52663 0.0
H2233 H 0.76428 0.83248 0.53418 0.0
H2234 H 0.75379 0.82271 0.503 0.0
H2235 H 0.79313 0.88464 0.4361 0.0
H2236 H 0.83636 0.88279 0.45468 0.0
H2237 H 0.80391 0.86395 0.52829 0.0
C2238 C 0.7078 0.86743 0.48693 0.0
C2239 C 0.69478 0.87411 0.46439 0.0
C2240 C 0.70874 0.88188 0.4427 0.0
C2241 C 0.73547 0.88238 0.44323 0.0
C2242 C 0.7478 0.87558 0.46575 0.0
C2243 C 0.73441 0.86872 0.48736 0.0
C2244 C 0.75214 0.86394 0.50961 0.0
C2245 C 0.74694 0.88286 0.53137 0.0
C2246 C 0.75013 0.83622 0.51889 0.0
C2247 C 0.77764 0.869 0.49712 0.0
C2248 C 0.77474 0.87524 0.4717 0.0
C2249 C 0.79562 0.88 0.45602 0.0
C2250 C 0.82007 0.87877 0.4667 0.0
C2251 C 0.82339 0.87335 0.4929 0.0
C2252 C 0.80187 0.86832 0.50823 0.0
H2253 H 0.50013 0.80497 0.87489 0.0
H2254 H 0.58135 0.80571 0.85932 0.0
H2255 H 0.58068 0.75902 0.85379 0.0
H2256 H 0.50054 0.74822 0.91187 0.0
H2257 H 0.47029 0.73682 0.90035 0.0
H2258 H 0.47665 0.77051 0.90128 0.0
H2259 H 0.46641 0.77399 0.85315 0.0
H2260 H 0.45997 0.74029 0.85207 0.0
H2261 H 0.4832 0.75401 0.83084 0.0
H2262 H 0.57157 0.71249 0.85087 0.0
H2263 H 0.55516 0.66862 0.85268 0.0
H2264 H 0.47998 0.69753 0.87175 0.0
C2265 C 0.51771 0.79533 0.87002 0.0
C2266 C 0.54078 0.80897 0.86739 0.0
C2267 C 0.56346 0.79564 0.86141 0.0
C2268 C 0.56326 0.76914 0.85815 0.0
C2269 C 0.54026 0.75625 0.86109 0.0
C2270 C 0.51791 0.76883 0.867 0.0
C2271 C 0.49607 0.75023 0.87039 0.0
C2272 C 0.48526 0.75153 0.89759 0.0
C2273 C 0.47518 0.75491 0.85042 0.0
C2274 C 0.5097 0.72522 0.86567 0.0
C2275 C 0.53511 0.7292 0.86008 0.0
C2276 C 0.55171 0.70911 0.85521 0.0
C2277 C 0.54216 0.68423 0.8563 0.0
C2278 C 0.51628 0.67958 0.86245 0.0
C2279 C 0.49984 0.70044 0.86702 0.0
H2280 H 0.513 0.30609 0.60752 0.0
H2281 H 0.43105 0.30259 0.61809 0.0
H2282 H 0.43389 0.256 0.62391 0.0
H2283 H 0.51799 0.24936 0.57097 0.0
H2284 H 0.54803 0.23965 0.58443 0.0
H2285 H 0.5399 0.27293 0.58289 0.0
H2286 H 0.54692 0.277 0.63155 0.0
H2287 H 0.55507 0.24369 0.63324 0.0
H2288 H 0.52985 0.2562 0.65289 0.0
H2289 H 0.44525 0.21002 0.62741 0.0
H2290 H 0.46394 0.16705 0.62622 0.0
H2291 H 0.53859 0.19985 0.61209 0.0
C2292 C 0.49568 0.29556 0.61133 0.0
C2293 C 0.47179 0.30798 0.61247 0.0
C2294 C 0.44954 0.29348 0.61713 0.0
C2295 C 0.45097 0.26703 0.62056 0.0
C2296 C 0.47477 0.25536 0.61916 0.0
C2297 C 0.49673 0.26909 0.61454 0.0
C2298 C 0.51972 0.25167 0.61264 0.0
C2299 C 0.53213 0.25352 0.58616 0.0
C2300 C 0.53903 0.25749 0.63385 0.0
C2301 C 0.50719 0.22597 0.61664 0.0
C2302 C 0.4813 0.22863 0.62064 0.0
C2303 C 0.4655 0.20769 0.62435 0.0
C2304 C 0.47635 0.18333 0.62361 0.0
C2305 C 0.50275 0.18002 0.61899 0.0
C2306 C 0.51838 0.20172 0.61575 0.0
H2307 H 0.86506 0.54358 0.80225 0.0
H2308 H 0.8418 0.47179 0.8362 0.0
H2309 H 0.83577 0.45352 0.79344 0.0
H2310 H 0.82151 0.54073 0.74671 0.0
H2311 H 0.84477 0.55449 0.72554 0.0
H2312 H 0.84475 0.5629 0.75882 0.0
H2313 H 0.89198 0.54907 0.76236 0.0
H2314 H 0.89214 0.54055 0.72918 0.0
H2315 H 0.90101 0.51732 0.75286 0.0
H2316 H 0.83644 0.44157 0.74759 0.0
H2317 H 0.84276 0.43706 0.70126 0.0
H2318 H 0.86475 0.51665 0.69654 0.0
C2319 C 0.85819 0.52419 0.80068 0.0
C2320 C 0.85389 0.50912 0.82259 0.0
C2321 C 0.84528 0.4837 0.81972 0.0
C2322 C 0.8417 0.47316 0.7955 0.0
C2323 C 0.84664 0.4883 0.7743 0.0
C2324 C 0.85452 0.51332 0.77659 0.0
C2325 C 0.85997 0.52491 0.75071 0.0
C2326 C 0.84165 0.54707 0.74512 0.0
C2327 C 0.88794 0.53346 0.74867 0.0
C2328 C 0.85458 0.50229 0.73361 0.0
C2329 C 0.84675 0.48143 0.74763 0.0
C2330 C 0.84218 0.45786 0.73634 0.0
C2331 C 0.84591 0.45547 0.71003 0.0
C2332 C 0.85408 0.47653 0.69528 0.0
C2333 C 0.8581 0.50031 0.70725 0.0
H2334 H 0.12421 0.03481 0.70382 0.0
H2335 H 0.14257 0.95887 0.67655 0.0
H2336 H 0.14503 0.94356 0.7208 0.0
H2337 H 0.1651 0.03263 0.76118 0.0
H2338 H 0.14243 0.04998 0.78026 0.0
H2339 H 0.14431 0.05567 0.74646 0.0
H2340 H 0.0962 0.04568 0.74208 0.0
H2341 H 0.09418 0.03989 0.7758 0.0
H2342 H 0.08412 0.01568 0.75366 0.0
H2343 H 0.14142 0.93534 0.76725 0.0
H2344 H 0.13334 0.93503 0.81349 0.0
H2345 H 0.1185 0.01637 0.81148 0.0
C2346 C 0.12919 0.01507 0.70717 0.0
C2347 C 0.13319 0.99805 0.68667 0.0
C2348 C 0.13938 0.97229 0.69188 0.0
C2349 C 0.1409 0.9634 0.71698 0.0
C2350 C 0.13637 0.98051 0.73672 0.0
C2351 C 0.13084 0.00585 0.73218 0.0
C2352 C 0.12556 0.01989 0.75687 0.0
C2353 C 0.14555 0.04078 0.76146 0.0
C2354 C 0.0984 0.03093 0.75711 0.0
C2355 C 0.12837 0.99832 0.7759 0.0
C2356 C 0.13473 0.97582 0.76381 0.0
C2357 C 0.13682 0.9529 0.77701 0.0
C2358 C 0.13209 0.95291 0.80325 0.0
C2359 C 0.12548 0.9757 0.81609 0.0
C2360 C 0.12395 0.99876 0.80224 0.0
H2361 H 0.80402 0.11887 0.9633 0.0
H2362 H 0.82895 0.13791 0.03981 0.0
H2363 H 0.78432 0.13944 0.05402 0.0
H2364 H 0.74737 0.15979 0.96393 0.0
H2365 H 0.72841 0.13757 0.94593 0.0
H2366 H 0.76241 0.13874 0.94136 0.0
H2367 H 0.7655 0.09052 0.95145 0.0
H2368 H 0.73155 0.08921 0.95609 0.0
H2369 H 0.75267 0.07862 0.98099 0.0
H2370 H 0.73747 0.13582 0.06094 0.0
H2371 H 0.69084 0.13003 0.05935 0.0
H2372 H 0.69549 0.11558 0.97811 0.0
C2373 C 0.80006 0.12355 0.98298 0.0
C2374 C 0.82005 0.12818 0.00044 0.0
C2375 C 0.81404 0.13429 0.02604 0.0
C2376 C 0.78871 0.1352 0.03434 0.0
C2377 C 0.7695 0.13027 0.01679 0.0
C2378 C 0.77478 0.12485 0.99158 0.0
C2379 C 0.75045 0.12013 0.97674 0.0
C2380 C 0.74696 0.14026 0.95575 0.0
C2381 C 0.75003 0.09301 0.96567 0.0
C2382 C 0.73077 0.12329 0.99767 0.0
C2383 C 0.74223 0.12906 0.02062 0.0
C2384 C 0.72822 0.13163 0.04301 0.0
C2385 C 0.70177 0.12821 0.04195 0.0
C2386 C 0.68955 0.12255 0.0186 0.0
C2387 C 0.70428 0.12027 0.99616 0.0
H2388 H 0.99005 0.97251 0.21866 0.0
H2389 H 0.90928 0.95574 0.21325 0.0
H2390 H 0.90079 0.98587 0.2485 0.0
H2391 H 0.99312 0.97931 0.28706 0.0
H2392 H 0.01574 0.00507 0.28548 0.0
H2393 H 0.01516 0.98128 0.2608 0.0
H2394 H 0.00945 0.01677 0.22695 0.0
H2395 H 0.00966 0.04065 0.25155 0.0
H2396 H 0.98321 0.03875 0.22978 0.0
H2397 H 0.90144 0.01845 0.28446 0.0
H2398 H 0.91135 0.04964 0.31841 0.0
H2399 H 0.9914 0.04576 0.298 0.0
C2400 C 0.97059 0.97483 0.22508 0.0
C2401 C 0.95034 0.96163 0.21332 0.0
C2402 C 0.92511 0.96558 0.22207 0.0
C2403 C 0.9201 0.9827 0.24202 0.0
C2404 C 0.9405 0.9958 0.25284 0.0
C2405 C 0.96524 0.99197 0.24468 0.0
C2406 C 0.98378 0.00876 0.2589 0.0
C2407 C 0.00308 0.99264 0.27396 0.0
C2408 C 0.99731 0.02733 0.2407 0.0
C2409 C 0.96565 0.02262 0.27644 0.0
C2410 C 0.94077 0.01491 0.27278 0.0
C2411 C 0.92085 0.02469 0.28741 0.0
C2412 C 0.92664 0.04245 0.30658 0.0
C2413 C 0.95211 0.05031 0.31078 0.0
C2414 C 0.97169 0.04046 0.29516 0.0
H2415 H 0.00169 0.4695 0.29309 0.0
H2416 H 0.08248 0.4583 0.30677 0.0
H2417 H 0.09239 0.48576 0.26978 0.0
H2418 H 0.00501 0.46959 0.22412 0.0
H2419 H 0.98077 0.4937 0.22098 0.0
H2420 H 0.98034 0.47237 0.24785 0.0
H2421 H 0.98038 0.51106 0.27849 0.0
H2422 H 0.98103 0.53252 0.25173 0.0
H2423 H 0.00528 0.53457 0.27592 0.0
H2424 H 0.09323 0.51617 0.23198 0.0
H2425 H 0.08486 0.54471 0.19538 0.0
H2426 H 0.00354 0.53554 0.2073 0.0
C2427 C 0.0215 0.47256 0.28822 0.0
C2428 C 0.04131 0.46171 0.30286 0.0
C2429 C 0.06696 0.46632 0.2958 0.0
C2430 C 0.07278 0.48196 0.27487 0.0
C2431 C 0.05275 0.49276 0.26116 0.0
C2432 C 0.02763 0.48804 0.26746 0.0
C2433 C 0.00956 0.5021 0.24997 0.0
C2434 C 0.99295 0.48332 0.23483 0.0
C2435 C 0.9931 0.52119 0.26493 0.0
C2436 C 0.0284 0.51561 0.23289 0.0
C2437 C 0.05324 0.51006 0.2396 0.0
C2438 C 0.07385 0.52055 0.22651 0.0
C2439 C 0.06891 0.53682 0.20581 0.0
C2440 C 0.04356 0.54237 0.19841 0.0
C2441 C 0.02316 0.5317 0.21238 0.0
H2442 H 0.21527 0.95531 0.93916 0.0
H2443 H 0.17368 0.90669 0.99136 0.0
H2444 H 0.21325 0.89934 0.01598 0.0
H2445 H 0.27523 0.91784 0.94016 0.0
H2446 H 0.29456 0.94614 0.93805 0.0
H2447 H 0.26344 0.94553 0.9236 0.0
H2448 H 0.25078 0.98574 0.94931 0.0
H2449 H 0.28171 0.98635 0.964 0.0
H2450 H 0.25349 0.98536 0.98353 0.0
H2451 H 0.25607 0.90327 0.03852 0.0
H2452 H 0.29973 0.91352 0.05364 0.0
H2453 H 0.31356 0.95603 0.98428 0.0
C2454 C 0.21465 0.94265 0.95544 0.0
C2455 C 0.19153 0.93151 0.96339 0.0
C2456 C 0.19132 0.91516 0.98483 0.0
C2457 C 0.21366 0.91099 0.99898 0.0
C2458 C 0.23607 0.92284 0.99101 0.0
C2459 C 0.2368 0.93786 0.96937 0.0
C2460 C 0.263 0.94902 0.96515 0.0
C2461 C 0.27475 0.93902 0.94026 0.0
C2462 C 0.26218 0.97835 0.96553 0.0
C2463 C 0.27677 0.93856 0.98816 0.0
C2464 C 0.26095 0.92367 0.00304 0.0
C2465 C 0.26885 0.91425 0.02664 0.0
C2466 C 0.29356 0.92018 0.03512 0.0
C2467 C 0.31008 0.93488 0.01976 0.0
C2468 C 0.30158 0.94393 0.99595 0.0
H2469 H 0.71696 0.52599 0.05872 0.0
H2470 H 0.68633 0.60204 0.04774 0.0
H2471 H 0.72108 0.61139 0.01726 0.0
H2472 H 0.78495 0.5419 0.05174 0.0
H2473 H 0.7913 0.51267 0.03489 0.0
H2474 H 0.76641 0.51379 0.05849 0.0
H2475 H 0.73417 0.4973 0.02497 0.0
H2476 H 0.75878 0.49656 0.00116 0.0
H2477 H 0.7301 0.5146 0.99559 0.0
H2478 H 0.7574 0.61063 0.98474 0.0
H2479 H 0.79213 0.60013 0.95448 0.0
H2480 H 0.79625 0.5239 0.9863 0.0
C2481 C 0.71781 0.54488 0.05048 0.0
C2482 C 0.69894 0.56332 0.05572 0.0
C2483 C 0.70069 0.58766 0.04417 0.0
C2484 C 0.72032 0.59312 0.02678 0.0
C2485 C 0.73798 0.57403 0.02124 0.0
C2486 C 0.73695 0.55048 0.03298 0.0
C2487 C 0.75672 0.53243 0.02244 0.0
C2488 C 0.77599 0.52476 0.04312 0.0
C2489 C 0.74418 0.50884 0.01032 0.0
C2490 C 0.76881 0.5493 0.00257 0.0
C2491 C 0.75805 0.57333 0.00224 0.0
C2492 C 0.76606 0.59192 0.98499 0.0
C2493 C 0.7857 0.58578 0.96783 0.0
C2494 C 0.7968 0.56117 0.96792 0.0
C2495 C 0.7881 0.54284 0.98555 0.0
H2496 H 0.31726 0.05936 0.50092 0.0
H2497 H 0.28464 0.03962 0.42757 0.0
H2498 H 0.24168 0.04132 0.44638 0.0
H2499 H 0.27956 0.02105 0.53658 0.0
H2500 H 0.27585 0.04208 0.56345 0.0
H2501 H 0.30361 0.04454 0.54356 0.0
H2502 H 0.29402 0.0922 0.53517 0.0
H2503 H 0.26635 0.09007 0.5554 0.0
H2504 H 0.26321 0.10146 0.52317 0.0
H2505 H 0.20383 0.03687 0.47427 0.0
H2506 H 0.17282 0.03012 0.50902 0.0
H2507 H 0.22903 0.05414 0.56435 0.0
C2508 C 0.30105 0.0563 0.48856 0.0
C2509 C 0.30435 0.04943 0.46272 0.0
C2510 C 0.28263 0.04508 0.44736 0.0
C2511 C 0.25811 0.046 0.45789 0.0
C2512 C 0.25562 0.05164 0.4837 0.0
C2513 C 0.27645 0.05717 0.49877 0.0
C2514 C 0.2688 0.06018 0.52647 0.0
C2515 C 0.28278 0.04081 0.5435 0.0
C2516 C 0.27336 0.08762 0.53558 0.0
C2517 C 0.24061 0.05432 0.5248 0.0
C2518 C 0.2334 0.04966 0.49987 0.0
C2519 C 0.20904 0.04119 0.49373 0.0
C2520 C 0.19164 0.0373 0.51353 0.0
C2521 C 0.19861 0.04208 0.53908 0.0
C2522 C 0.22322 0.05104 0.54481 0.0
H2523 H 0.78212 0.48772 0.53931 0.0
H2524 H 0.7948 0.40625 0.54617 0.0
H2525 H 0.76077 0.39847 0.51456 0.0
H2526 H 0.71376 0.4849 0.53244 0.0
H2527 H 0.71291 0.5108 0.50991 0.0
H2528 H 0.73767 0.50952 0.53359 0.0
H2529 H 0.77178 0.51193 0.49796 0.0
H2530 H 0.74714 0.51293 0.47414 0.0
H2531 H 0.77144 0.48871 0.47268 0.0
H2532 H 0.72576 0.39997 0.48106 0.0
H2533 H 0.69113 0.41056 0.45086 0.0
H2534 H 0.70271 0.491 0.46625 0.0
C2535 C 0.77765 0.46819 0.53441 0.0
C2536 C 0.79114 0.44759 0.54523 0.0
C2537 C 0.78467 0.42235 0.53817 0.0
C2538 C 0.76545 0.41774 0.52016 0.0
C2539 C 0.75291 0.43857 0.50946 0.0
C2540 C 0.75864 0.46328 0.51652 0.0
C2541 C 0.74256 0.48241 0.50224 0.0
C2542 C 0.72573 0.49781 0.52064 0.0
C2543 C 0.75923 0.50002 0.48578 0.0
C2544 C 0.72684 0.46464 0.48598 0.0
C2545 C 0.73306 0.43943 0.4903 0.0
C2546 C 0.72073 0.41966 0.47755 0.0
C2547 C 0.70118 0.42585 0.46035 0.0
C2548 C 0.69419 0.45159 0.45617 0.0
C2549 C 0.70756 0.47113 0.46894 0.0
H2550 H 0.99017 0.32424 0.97447 0.0
H2551 H 0.06009 0.30661 0.93427 0.0
H2552 H 0.04239 0.26438 0.92232 0.0
H2553 H 0.98308 0.26313 0.00155 0.0
H2554 H 0.94879 0.26344 8e-05 0.0
H2555 H 0.96602 0.29293 0.00268 0.0
H2556 H 0.94359 0.30957 0.96192 0.0
H2557 H 0.92648 0.27995 0.95908 0.0
H2558 H 0.94559 0.29131 0.93292 0.0
H2559 H 0.01671 0.22369 0.91555 0.0
H2560 H 0.98862 0.18606 0.91996 0.0
H2561 H 0.93738 0.22995 0.96758 0.0
C2562 C 0.00159 0.31166 0.96276 0.0
C2563 C 0.02627 0.31873 0.95482 0.0
C2564 C 0.04103 0.3015 0.9403 0.0
C2565 C 0.03107 0.27762 0.93333 0.0
C2566 C 0.00653 0.27125 0.94143 0.0
C2567 C 0.99221 0.28767 0.95621 0.0
C2568 C 0.96754 0.2755 0.96476 0.0
C2569 C 0.9663 0.27364 0.99399 0.0
C2570 C 0.94444 0.28995 0.95402 0.0
C2571 C 0.97019 0.24953 0.95265 0.0
C2572 C 0.9925 0.24756 0.93879 0.0
C2573 C 0.99917 0.22508 0.92629 0.0
C2574 C 0.98301 0.20388 0.92872 0.0
C2575 C 0.9608 0.20523 0.94397 0.0
C2576 C 0.95416 0.22849 0.95564 0.0
H2577 H 0.05074 0.70074 0.55742 0.0
H2578 H 0.98461 0.65766 0.58204 0.0
H2579 H 0.96079 0.69763 0.58803 0.0
H2580 H 0.03971 0.75773 0.59998 0.0
H2581 H 0.0505 0.7793 0.57553 0.0
H2582 H 0.06379 0.74769 0.57765 0.0
H2583 H 0.05148 0.7395 0.53059 0.0
H2584 H 0.03793 0.77087 0.52837 0.0
H2585 H 0.01878 0.74339 0.52086 0.0
H2586 H 0.94167 0.74095 0.58311 0.0
H2587 H 0.9301 0.78515 0.57126 0.0
H2588 H 0.00897 0.80042 0.55215 0.0
C2589 C 0.03158 0.69976 0.565 0.0
C2590 C 0.01958 0.67606 0.5693 0.0
C2591 C 0.99425 0.67558 0.57864 0.0
C2592 C 0.98054 0.69821 0.58216 0.0
C2593 C 0.99252 0.72121 0.57664 0.0
C2594 C 0.01764 0.7222 0.56871 0.0
C2595 C 0.02529 0.74913 0.56175 0.0
C2596 C 0.04605 0.75905 0.57981 0.0
C2597 C 0.03386 0.7508 0.53374 0.0
C2598 C 0.00028 0.76288 0.56599 0.0
C2599 C 0.98162 0.74649 0.5747 0.0
C2600 C 0.95628 0.75418 0.57707 0.0
C2601 C 0.94984 0.77922 0.57022 0.0
C2602 C 0.96873 0.79626 0.56139 0.0
C2603 C 0.99429 0.78804 0.55971 0.0
H2604 H 0.56642 0.77703 0.47354 0.0
H2605 H 0.52395 0.82176 0.41863 0.0
H2606 H 0.4933 0.78631 0.41351 0.0
H2607 H 0.55722 0.71514 0.44121 0.0
H2608 H 0.55491 0.69816 0.47095 0.0
H2609 H 0.57416 0.72649 0.46881 0.0
H2610 H 0.54893 0.74629 0.50635 0.0
H2611 H 0.52942 0.71819 0.50842 0.0
H2612 H 0.51477 0.74896 0.50416 0.0
H2613 H 0.46404 0.74796 0.41927 0.0
H2614 H 0.44233 0.70741 0.4307 0.0
H2615 H 0.50634 0.68691 0.47856 0.0
C2616 C 0.55097 0.77911 0.46003 0.0
C2617 C 0.54756 0.802 0.44638 0.0
C2618 C 0.52706 0.80419 0.42899 0.0
C2619 C 0.50947 0.78424 0.4261 0.0
C2620 C 0.51303 0.76209 0.44033 0.0
C2621 C 0.53364 0.75922 0.45649 0.0
C2622 C 0.53308 0.73369 0.46982 0.0
C2623 C 0.55622 0.71741 0.46223 0.0
C2624 C 0.53145 0.737 0.49891 0.0
C2625 C 0.50865 0.72286 0.45912 0.0
C2626 C 0.49712 0.73957 0.44236 0.0
C2627 C 0.47321 0.73446 0.43186 0.0
C2628 C 0.46098 0.71154 0.43848 0.0
C2629 C 0.47301 0.69397 0.45495 0.0
C2630 C 0.49711 0.69975 0.46529 0.0
H2631 H 0.49407 0.53931 0.76882 0.0
H2632 H 0.41513 0.54581 0.79254 0.0
H2633 H 0.40296 0.51422 0.75964 0.0
H2634 H 0.48312 0.52976 0.70109 0.0
H2635 H 0.50888 0.50718 0.69862 0.0
H2636 H 0.51027 0.53229 0.72193 0.0
H2637 H 0.5169 0.49857 0.7574 0.0
H2638 H 0.51503 0.47334 0.7343 0.0
H2639 H 0.49386 0.47343 0.76133 0.0
H2640 H 0.40029 0.47988 0.72481 0.0
H2641 H 0.4073 0.44743 0.69119 0.0
H2642 H 0.48851 0.4626 0.69403 0.0
C2643 C 0.47411 0.53455 0.76694 0.0
C2644 C 0.45554 0.54514 0.78325 0.0
C2645 C 0.42968 0.5381 0.78012 0.0
C2646 C 0.42262 0.52008 0.76158 0.0
C2647 C 0.44168 0.50931 0.74648 0.0
C2648 C 0.46687 0.51647 0.74896 0.0
C2649 C 0.4841 0.50126 0.73168 0.0
C2650 C 0.49736 0.51866 0.71217 0.0
C2651 C 0.50361 0.48573 0.74711 0.0
C2652 C 0.46473 0.48421 0.7191 0.0
C2653 C 0.44031 0.48915 0.72759 0.0
C2654 C 0.41936 0.47586 0.71808 0.0
C2655 C 0.42352 0.45741 0.6991 0.0
C2656 C 0.44846 0.45228 0.69015 0.0
C2657 C 0.46922 0.46573 0.70063 0.0
H2658 H 0.52161 0.95666 0.78023 0.0
H2659 H 0.60285 0.95498 0.79557 0.0
H2660 H 0.60985 0.98618 0.76094 0.0
H2661 H 0.52592 0.9632 0.71148 0.0
H2662 H 0.49881 0.98423 0.70997 0.0
H2663 H 0.50081 0.9606 0.73476 0.0
H2664 H 0.49542 0.99602 0.76873 0.0
H2665 H 0.49377 0.0198 0.74407 0.0
H2666 H 0.51719 0.02257 0.76899 0.0
H2667 H 0.60743 0.01919 0.72551 0.0
H2668 H 0.59604 0.04918 0.69095 0.0
H2669 H 0.51631 0.02937 0.70053 0.0
C2670 C 0.54096 0.96249 0.77613 0.0
C2671 C 0.5617 0.9533 0.79059 0.0
C2672 C 0.58667 0.96166 0.78466 0.0
C2673 C 0.59082 0.97945 0.7651 0.0
C2674 C 0.56981 0.98864 0.75171 0.0
C2675 C 0.5454 0.98024 0.75687 0.0
C2676 C 0.52593 0.99346 0.7403 0.0
C2677 C 0.51206 0.97423 0.7231 0.0
C2678 C 0.50697 0.00887 0.7565 0.0
C2679 C 0.54314 0.01073 0.72503 0.0
C2680 C 0.56839 0.00773 0.73179 0.0
C2681 C 0.58771 0.02166 0.72003 0.0
C2682 C 0.58105 0.03872 0.70052 0.0
C2683 C 0.55528 0.04169 0.69305 0.0
C2684 C 0.53618 0.02769 0.7058 0.0
H2685 H 0.46984 0.29224 0.00305 0.0
H2686 H 0.45233 0.30426 0.08289 0.0
H2687 H 0.48105 0.26839 0.09424 0.0
H2688 H 0.47415 0.22412 0.00428 0.0
H2689 H 0.50021 0.22346 0.98194 0.0
H2690 H 0.47731 0.24896 0.98077 0.0
H2691 H 0.51385 0.28188 0.98496 0.0
H2692 H 0.53685 0.25648 0.98644 0.0
H2693 H 0.53544 0.27981 0.01157 0.0
H2694 H 0.51226 0.23011 0.09602 0.0
H2695 H 0.54228 0.19441 0.08805 0.0
H2696 H 0.54011 0.21143 0.00722 0.0
C2697 C 0.47166 0.28728 0.02295 0.0
C2698 C 0.4586 0.30097 0.04206 0.0
C2699 C 0.46202 0.29393 0.06789 0.0
C2700 C 0.47833 0.27364 0.0745 0.0
C2701 C 0.49125 0.26086 0.05506 0.0
C2702 C 0.48802 0.26756 0.02982 0.0
C2703 C 0.50447 0.25174 0.01234 0.0
C2704 C 0.48805 0.23615 0.99375 0.0
C2705 C 0.52379 0.26848 0.998 0.0
C2706 C 0.51747 0.23485 0.0316 0.0
C2707 C 0.50962 0.24011 0.05616 0.0
C2708 C 0.51862 0.22601 0.07686 0.0
C2709 C 0.53571 0.20582 0.07218 0.0
C2710 C 0.54376 0.20018 0.04704 0.0
C2711 C 0.53468 0.21527 0.02671 0.0
loop_
_geom_bond_atom_site_label_1
_geom_bond_atom_site_label_2
_geom_bond_distance
_geom_bond_site_symmetry_2
_ccdc_geom_bond_type
Co0 O2 2.162 . S
Co0 O8 2.074 . S
Co0 O11 2.093 . S
Co0 O24 2.097 1_455 S
Co0 N41 2.151 . S
Co0 N49 2.214 . S
Co1 O2 2.141 1_655 S
Co1 O7 2.058 1_655 S
Co1 O17 2.057 . S
Co1 O32 2.037 . S
Co1 N36 2.145 . S
Co1 N57 2.257 . S
O2 Co0 2.162 . S
O2 Co1 2.141 1_455 S
C3 O4 1.278 . S
C3 O11 1.224 1_655 S
O4 C3 1.278 . S
C5 O6 1.237 1_655 S
C5 O17 1.238 . S
O6 C5 1.237 1_455 S
O7 Co1 2.058 1_455 S
O7 C33 1.269 . S
O8 Co0 2.074 . S
O8 C33 1.257 . S
H9 C34 0.930 . S
H10 C40 0.930 . S
O11 Co0 2.093 . S
O11 C3 1.224 1_455 S
H12 C44 0.929 . S
H13 C46 0.930 . S
H14 C47 0.930 1_545 S
H15 C45 0.929 . S
H16 C48 0.913 1_545 S
O17 Co1 2.057 . S
O17 C5 1.238 . S
H18 C37 0.929 . S
H19 C38 0.929 . S
H20 C50 0.931 . S
H21 C42 0.929 . S
H22 C51 0.930 . S
H23 C43 0.931 . S
O24 Co0 2.097 1_655 S
O24 C52 1.214 . S
H25 C53 0.929 . S
H26 C54 0.929 . S
H27 C55 0.930 . S
H28 C56 0.929 . S
H29 C58 0.930 . S
H30 C35 0.930 . S
H31 C39 0.930 . S
O32 Co1 2.037 . S
O32 C52 1.234 . S
C33 O7 1.269 . S
C33 O8 1.257 . S
C34 H9 0.930 . S
C34 C37 1.388 . S
C34 C39 1.418 . S
C35 H30 0.930 . S
C35 C38 1.404 . S
C35 C39 1.353 . S
N36 Co1 2.145 . S
N36 C37 1.397 . S
N36 C38 1.334 . S
C37 H18 0.929 . S
C37 C34 1.388 . S
C37 N36 1.397 . S
C38 H19 0.929 . S
C38 C35 1.404 . S
C38 N36 1.334 . S
C39 H31 0.930 . S
C39 C34 1.418 . S
C39 C35 1.353 . S
C40 H10 0.930 . S
C40 N41 1.330 . S
C40 C42 1.446 . S
N41 Co0 2.151 . S
N41 C40 1.330 . S
N41 C45 1.418 . S
C42 H21 0.929 . S
C42 C40 1.446 . S
C42 C43 1.332 . S
C43 H23 0.931 . S
C43 C42 1.332 . S
C43 C44 1.267 . S
C44 H12 0.929 . S
C44 C43 1.267 . S
C44 C45 1.251 . S
C45 H15 0.929 . S
C45 N41 1.418 . S
C45 C44 1.251 . S
C46 H13 0.930 . S
C46 C48 1.438 . S
C46 C51 1.261 . S
C47 H14 0.930 1_565 S
C47 N49 1.325 1_565 S
C47 C50 1.357 . S
C48 H16 0.913 1_565 S
C48 C46 1.438 . S
C48 N49 1.244 1_565 S
N49 Co0 2.214 . S
N49 C47 1.325 1_545 S
N49 C48 1.244 1_545 S
C50 H20 0.931 . S
C50 C47 1.357 . S
C50 C51 1.312 . S
C51 H22 0.930 . S
C51 C46 1.261 . S
C51 C50 1.312 . S
C52 O24 1.214 . S
C52 O32 1.234 . S
C53 H25 0.929 . S
C53 C56 1.391 . S
C53 C58 1.391 . S
C54 H26 0.929 . S
C54 C55 1.390 . S
C54 N57 1.391 . S
C55 H27 0.930 . S
C55 C54 1.390 . S
C55 C56 1.392 . S
C56 H28 0.929 . S
C56 C53 1.391 . S
C56 C55 1.392 . S
N57 Co1 2.257 . S
N57 C54 1.391 . S
N57 C58 1.388 . S
C58 H29 0.930 . S
C58 C53 1.391 . S
C58 N57 1.388 . S
Co59 O61 2.162 . S
Co59 O67 2.074 . S
Co59 O70 2.093 . S
Co59 O83 2.097 1_655 S
Co59 N100 2.151 . S
Co59 N108 2.214 . S
Co60 O61 2.141 1_455 S
Co60 O66 2.058 1_455 S
Co60 O76 2.057 . S
Co60 O91 2.037 . S
Co60 N95 2.145 . S
Co60 N116 2.257 . S
O61 Co59 2.162 . S
O61 Co60 2.141 1_655 S
C62 O63 1.278 . S
C62 O70 1.224 1_455 S
O63 C62 1.278 . S
C64 O65 1.245 1_455 S
C64 O76 1.232 . S
O65 C64 1.245 1_655 S
O66 Co60 2.058 1_655 S
O66 C92 1.269 . S
O67 Co59 2.074 . S
O67 C92 1.257 . S
H68 C93 0.930 . S
H69 C99 0.930 . S
O70 Co59 2.093 . S
O70 C62 1.224 1_655 S
H71 C103 0.929 . S
H72 C105 0.930 . S
H73 C106 0.930 . S
H74 C104 0.929 . S
H75 C107 0.928 . S
O76 Co60 2.057 . S
O76 C64 1.232 . S
H77 C96 0.929 . S
H78 C97 0.929 . S
H79 C109 0.931 . S
H80 C101 0.929 . S
H81 C110 0.930 . S
H82 C102 0.931 . S
O83 Co59 2.097 1_455 S
O83 C111 1.214 . S
H84 C112 0.929 . S
H85 C113 0.929 . S
H86 C114 0.930 . S
H87 C115 0.929 . S
H88 C117 0.930 . S
H89 C94 0.930 . S
H90 C98 0.930 . S
O91 Co60 2.037 . S
O91 C111 1.234 . S
C92 O66 1.269 . S
C92 O67 1.257 . S
C93 H68 0.930 . S
C93 C96 1.388 . S
C93 C98 1.418 . S
C94 H89 0.930 . S
C94 C97 1.404 . S
C94 C98 1.353 . S
N95 Co60 2.145 . S
N95 C96 1.397 . S
N95 C97 1.334 . S
C96 H77 0.929 . S
C96 C93 1.388 . S
C96 N95 1.397 . S
C97 H78 0.929 . S
C97 C94 1.404 . S
C97 N95 1.334 . S
C98 H90 0.930 . S
C98 C93 1.418 . S
C98 C94 1.353 . S
C99 H69 0.930 . S
C99 N100 1.330 . S
C99 C101 1.446 . S
N100 Co59 2.151 . S
N100 C99 1.330 . S
N100 C104 1.418 . S
C101 H80 0.929 . S
C101 C99 1.446 . S
C101 C102 1.332 . S
C102 H82 0.931 . S
C102 C101 1.332 . S
C102 C103 1.267 . S
C103 H71 0.929 . S
C103 C102 1.267 . S
C103 C104 1.251 . S
C104 H74 0.929 . S
C104 N100 1.418 . S
C104 C103 1.251 . S
C105 H72 0.930 . S
C105 C107 1.406 . S
C105 C110 1.261 . S
C106 H73 0.930 . S
C106 N108 1.325 . S
C106 C109 1.357 . S
C107 H75 0.928 . S
C107 C105 1.406 . S
C107 N108 1.261 . S
N108 Co59 2.214 . S
N108 C106 1.325 . S
N108 C107 1.261 . S
C109 H79 0.931 . S
C109 C106 1.357 . S
C109 C110 1.312 . S
C110 H81 0.930 . S
C110 C105 1.261 . S
C110 C109 1.312 . S
C111 O83 1.214 . S
C111 O91 1.234 . S
C112 H84 0.929 . S
C112 C115 1.391 . S
C112 C117 1.391 . S
C113 H85 0.929 . S
C113 C114 1.390 . S
C113 N116 1.391 . S
C114 H86 0.930 . S
C114 C113 1.390 . S
C114 C115 1.392 . S
C115 H87 0.929 . S
C115 C112 1.391 . S
C115 C114 1.392 . S
N116 Co60 2.257 . S
N116 C113 1.391 . S
N116 C117 1.388 . S
C117 H88 0.930 . S
C117 C112 1.391 . S
C117 N116 1.388 . S
Co118 O120 2.143 . S
Co118 O126 2.074 . S
Co118 O129 2.093 . S
Co118 O142 2.097 1_455 S
Co118 N159 2.151 . S
Co118 N167 2.214 . S
Co119 O120 2.160 1_655 S
Co119 O125 2.058 1_655 S
Co119 O135 2.057 . S
Co119 O150 2.037 . S
Co119 N154 2.145 . S
Co119 N175 2.257 . S
O120 Co118 2.143 . S
O120 Co119 2.160 1_455 S
C121 O122 1.278 . S
C121 O129 1.224 1_655 S
O122 C121 1.278 . S
C123 O124 1.245 1_655 S
C123 O135 1.232 . S
O124 C123 1.245 1_455 S
O125 Co119 2.058 1_455 S
O125 C151 1.269 . S
O126 Co118 2.074 . S
O126 C151 1.257 . S
H127 C152 0.930 . S
H128 C158 0.930 . S
O129 Co118 2.093 . S
O129 C121 1.224 1_455 S
H130 C162 0.929 . S
H131 C164 0.930 . S
H132 C165 0.930 . S
H133 C163 0.929 . S
H134 C166 0.928 . S
O135 Co119 2.057 . S
O135 C123 1.232 . S
H136 C155 0.929 . S
H137 C156 0.929 . S
H138 C168 0.931 . S
H139 C160 0.929 . S
H140 C169 0.930 . S
H141 C161 0.931 . S
O142 Co118 2.097 1_655 S
O142 C170 1.214 . S
H143 C171 0.929 . S
H144 C172 0.929 . S
H145 C173 0.930 . S
H146 C174 0.929 . S
H147 C176 0.930 . S
H148 C153 0.930 . S
H149 C157 0.930 . S
O150 Co119 2.037 . S
O150 C170 1.234 . S
C151 O125 1.269 . S
C151 O126 1.257 . S
C152 H127 0.930 . S
C152 C155 1.388 . S
C152 C157 1.418 . S
C153 H148 0.930 . S
C153 C156 1.404 . S
C153 C157 1.353 . S
N154 Co119 2.145 . S
N154 C155 1.397 . S
N154 C156 1.334 . S
C155 H136 0.929 . S
C155 C152 1.388 . S
C155 N154 1.397 . S
C156 H137 0.929 . S
C156 C153 1.404 . S
C156 N154 1.334 . S
C157 H149 0.930 . S
C157 C152 1.418 . S
C157 C153 1.353 . S
C158 H128 0.930 . S
C158 N159 1.330 . S
C158 C160 1.446 . S
N159 Co118 2.151 . S
N159 C158 1.330 . S
N159 C163 1.418 . S
C160 H139 0.929 . S
C160 C158 1.446 . S
C160 C161 1.332 . S
C161 H141 0.931 . S
C161 C160 1.332 . S
C161 C162 1.267 . S
C162 H130 0.929 . S
C162 C161 1.267 . S
C162 C163 1.251 . S
C163 H133 0.929 . S
C163 N159 1.418 . S
C163 C162 1.251 . S
C164 H131 0.930 . S
C164 C166 1.406 1_545 S
C164 C169 1.261 . S
C165 H132 0.930 . S
C165 N167 1.325 . S
C165 C168 1.357 1_565 S
C166 H134 0.928 . S
C166 C164 1.406 1_565 S
C166 N167 1.261 . S
N167 Co118 2.214 . S
N167 C165 1.325 . S
N167 C166 1.261 . S
C168 H138 0.931 . S
C168 C165 1.357 1_545 S
C168 C169 1.312 . S
C169 H140 0.930 . S
C169 C164 1.261 . S
C169 C168 1.312 . S
C170 O142 1.214 . S
C170 O150 1.234 . S
C171 H143 0.929 . S
C171 C174 1.391 . S
C171 C176 1.391 . S
C172 H144 0.929 . S
C172 C173 1.390 . S
C172 N175 1.391 . S
C173 H145 0.930 . S
C173 C172 1.390 . S
C173 C174 1.392 . S
C174 H146 0.929 . S
C174 C171 1.391 . S
C174 C173 1.392 . S
N175 Co119 2.257 . S
N175 C172 1.391 . S
N175 C176 1.388 . S
C176 H147 0.930 . S
C176 C171 1.391 . S
C176 N175 1.388 . S
Co177 O179 2.143 . S
Co177 O185 2.074 . S
Co177 O188 2.093 . S
Co177 O201 2.097 1_655 S
Co177 N218 2.151 . S
Co177 N226 2.214 . S
Co178 O179 2.160 1_455 S
Co178 O184 2.058 1_455 S
Co178 O194 2.057 . S
Co178 O209 2.037 . S
Co178 N213 2.145 . S
Co178 N234 2.257 . S
O179 Co177 2.143 . S
O179 Co178 2.160 1_655 S
C180 O181 1.278 . S
C180 O188 1.224 1_455 S
O181 C180 1.278 . S
C182 O183 1.245 1_455 S
C182 O194 1.232 . S
O183 C182 1.245 1_655 S
O184 Co178 2.058 1_655 S
O184 C210 1.269 . S
O185 Co177 2.074 . S
O185 C210 1.257 . S
H186 C211 0.930 . S
H187 C217 0.930 . S
O188 Co177 2.093 . S
O188 C180 1.224 1_655 S
H189 C221 0.929 . S
H190 C223 0.930 . S
H191 C224 0.930 . S
H192 C222 0.929 . S
H193 C225 0.928 . S
O194 Co178 2.057 . S
O194 C182 1.232 . S
H195 C214 0.929 . S
H196 C215 0.929 . S
H197 C227 0.931 . S
H198 C219 0.929 . S
H199 C228 0.930 . S
H200 C220 0.931 . S
O201 Co177 2.097 1_455 S
O201 C229 1.214 . S
H202 C230 0.929 . S
H203 C231 0.929 . S
H204 C232 0.930 . S
H205 C233 0.929 . S
H206 C235 0.930 . S
H207 C212 0.930 . S
H208 C216 0.930 . S
O209 Co178 2.037 . S
O209 C229 1.234 . S
C210 O184 1.269 . S
C210 O185 1.257 . S
C211 H186 0.930 . S
C211 C214 1.388 . S
C211 C216 1.418 . S
C212 H207 0.930 . S
C212 C215 1.404 . S
C212 C216 1.353 . S
N213 Co178 2.145 . S
N213 C214 1.397 . S
N213 C215 1.334 . S
C214 H195 0.929 . S
C214 C211 1.388 . S
C214 N213 1.397 . S
C215 H196 0.929 . S
C215 C212 1.404 . S
C215 N213 1.334 . S
C216 H208 0.930 . S
C216 C211 1.418 . S
C216 C212 1.353 . S
C217 H187 0.930 . S
C217 N218 1.330 . S
C217 C219 1.446 . S
N218 Co177 2.151 . S
N218 C217 1.330 . S
N218 C222 1.418 . S
C219 H198 0.929 . S
C219 C217 1.446 . S
C219 C220 1.332 . S
C220 H200 0.931 . S
C220 C219 1.332 . S
C220 C221 1.267 . S
C221 H189 0.929 . S
C221 C220 1.267 . S
C221 C222 1.251 . S
C222 H192 0.929 . S
C222 N218 1.418 . S
C222 C221 1.251 . S
C223 H190 0.930 . S
C223 C225 1.406 . S
C223 C228 1.261 . S
C224 H191 0.930 . S
C224 N226 1.325 . S
C224 C227 1.357 . S
C225 H193 0.928 . S
C225 C223 1.406 . S
C225 N226 1.261 . S
N226 Co177 2.214 . S
N226 C224 1.325 . S
N226 C225 1.261 . S
C227 H197 0.931 . S
C227 C224 1.357 . S
C227 C228 1.312 . S
C228 H199 0.930 . S
C228 C223 1.261 . S
C228 C227 1.312 . S
C229 O201 1.214 . S
C229 O209 1.234 . S
C230 H202 0.929 . S
C230 C233 1.391 . S
C230 C235 1.391 . S
C231 H203 0.929 . S
C231 C232 1.390 . S
C231 N234 1.391 . S
C232 H204 0.930 . S
C232 C231 1.390 . S
C232 C233 1.392 . S
C233 H205 0.929 . S
C233 C230 1.391 . S
C233 C232 1.392 . S
N234 Co178 2.257 . S
N234 C231 1.391 . S
N234 C235 1.388 . S
C235 H206 0.930 . S
C235 C230 1.391 . S
C235 N234 1.388 . S
Co236 O238 2.162 . S
Co236 O244 2.074 . S
Co236 O247 2.093 . S
Co236 O260 2.097 1_545 S
Co236 N277 2.151 . S
Co236 N285 2.214 . S
Co237 O238 2.141 1_565 S
Co237 O243 2.058 1_565 S
Co237 O253 2.057 . S
Co237 O268 2.037 . S
Co237 N272 2.145 . S
Co237 N293 2.257 . S
O238 Co236 2.162 . S
O238 Co237 2.141 1_545 S
C239 O240 1.278 . S
C239 O247 1.224 1_565 S
O240 C239 1.278 . S
C241 O242 1.237 1_565 S
C241 O253 1.238 . S
O242 C241 1.237 1_545 S
O243 Co237 2.058 1_545 S
O243 C269 1.269 . S
O244 Co236 2.074 . S
O244 C269 1.257 . S
H245 C270 0.930 . S
H246 C276 0.930 . S
O247 Co236 2.093 . S
O247 C239 1.224 1_545 S
H248 C280 0.929 . S
H249 C282 0.930 . S
H250 C283 0.930 1_554 S
H251 C281 0.929 . S
H252 C284 0.913 1_554 S
O253 Co237 2.057 . S
O253 C241 1.238 . S
H254 C273 0.929 . S
H255 C274 0.929 . S
H256 C286 0.931 . S
H257 C278 0.929 . S
H258 C287 0.930 . S
H259 C279 0.931 . S
O260 Co236 2.097 1_565 S
O260 C288 1.214 . S
H261 C289 0.929 . S
H262 C290 0.929 . S
H263 C291 0.930 . S
H264 C292 0.929 . S
H265 C294 0.930 . S
H266 C271 0.930 . S
H267 C275 0.930 . S
O268 Co237 2.037 . S
O268 C288 1.234 . S
C269 O243 1.269 . S
C269 O244 1.257 . S
C270 H245 0.930 . S
C270 C273 1.388 . S
C270 C275 1.418 . S
C271 H266 0.930 . S
C271 C274 1.404 . S
C271 C275 1.353 . S
N272 Co237 2.145 . S
N272 C273 1.397 . S
N272 C274 1.334 . S
C273 H254 0.929 . S
C273 C270 1.388 . S
C273 N272 1.397 . S
C274 H255 0.929 . S
C274 C271 1.404 . S
C274 N272 1.334 . S
C275 H267 0.930 . S
C275 C270 1.418 . S
C275 C271 1.353 . S
C276 H246 0.930 . S
C276 N277 1.330 . S
C276 C278 1.446 . S
N277 Co236 2.151 . S
N277 C276 1.330 . S
N277 C281 1.418 . S
C278 H257 0.929 . S
C278 C276 1.446 . S
C278 C279 1.332 . S
C279 H259 0.931 . S
C279 C278 1.332 . S
C279 C280 1.267 . S
C280 H248 0.929 . S
C280 C279 1.267 . S
C280 C281 1.251 . S
C281 H251 0.929 . S
C281 N277 1.418 . S
C281 C280 1.251 . S
C282 H249 0.930 . S
C282 C284 1.438 . S
C282 C287 1.261 . S
C283 H250 0.930 1_556 S
C283 N285 1.325 1_556 S
C283 C286 1.357 . S
C284 H252 0.913 1_556 S
C284 C282 1.438 . S
C284 N285 1.244 1_556 S
N285 Co236 2.214 . S
N285 C283 1.325 1_554 S
N285 C284 1.244 1_554 S
C286 H256 0.931 . S
C286 C283 1.357 . S
C286 C287 1.312 . S
C287 H258 0.930 . S
C287 C282 1.261 . S
C287 C286 1.312 . S
C288 O260 1.214 . S
C288 O268 1.234 . S
C289 H261 0.929 . S
C289 C292 1.391 . S
C289 C294 1.391 . S
C290 H262 0.929 . S
C290 C291 1.390 . S
C290 N293 1.391 . S
C291 H263 0.930 . S
C291 C290 1.390 . S
C291 C292 1.392 . S
C292 H264 0.929 . S
C292 C289 1.391 . S
C292 C291 1.392 . S
N293 Co237 2.257 . S
N293 C290 1.391 . S
N293 C294 1.388 . S
C294 H265 0.930 . S
C294 C289 1.391 . S
C294 N293 1.388 . S
Co295 O297 2.143 . S
Co295 O303 2.074 . S
Co295 O306 2.093 . S
Co295 O319 2.097 . S
Co295 N336 2.151 . S
Co295 N344 2.214 . S
Co296 O297 2.160 . S
Co296 O302 2.058 . S
Co296 O312 2.057 . S
Co296 O327 2.037 . S
Co296 N331 2.145 . S
Co296 N352 2.257 . S
O297 Co295 2.143 . S
O297 Co296 2.160 . S
C298 O299 1.278 . S
C298 O306 1.224 . S
O299 C298 1.278 . S
C300 O301 1.245 . S
C300 O312 1.232 . S
O301 C300 1.245 . S
O302 Co296 2.058 . S
O302 C328 1.269 . S
O303 Co295 2.074 . S
O303 C328 1.257 . S
H304 C329 0.930 . S
H305 C335 0.930 . S
O306 Co295 2.093 . S
O306 C298 1.224 . S
H307 C339 0.929 . S
H308 C341 0.930 . S
H309 C342 0.942 . S
H310 C340 0.929 . S
H311 C343 0.914 1_554 S
O312 Co296 2.057 . S
O312 C300 1.232 . S
H313 C332 0.929 . S
H314 C333 0.929 . S
H315 C345 0.931 . S
H316 C337 0.929 . S
H317 C346 0.930 . S
H318 C338 0.931 . S
O319 Co295 2.097 . S
O319 C347 1.214 . S
H320 C348 0.929 . S
H321 C349 0.929 . S
H322 C350 0.930 . S
H323 C351 0.929 . S
H324 C353 0.930 . S
H325 C330 0.930 . S
H326 C334 0.930 . S
O327 Co296 2.037 . S
O327 C347 1.234 . S
C328 O302 1.269 . S
C328 O303 1.257 . S
C329 H304 0.930 . S
C329 C332 1.388 . S
C329 C334 1.418 . S
C330 H325 0.930 . S
C330 C333 1.404 . S
C330 C334 1.353 . S
N331 Co296 2.145 . S
N331 C332 1.397 . S
N331 C333 1.334 . S
C332 H313 0.929 . S
C332 C329 1.388 . S
C332 N331 1.397 . S
C333 H314 0.929 . S
C333 C330 1.404 . S
C333 N331 1.334 . S
C334 H326 0.930 . S
C334 C329 1.418 . S
C334 C330 1.353 . S
C335 H305 0.930 . S
C335 N336 1.330 . S
C335 C337 1.446 . S
N336 Co295 2.151 . S
N336 C335 1.330 . S
N336 C340 1.418 . S
C337 H316 0.929 . S
C337 C335 1.446 . S
C337 C338 1.332 . S
C338 H318 0.931 . S
C338 C337 1.332 . S
C338 C339 1.267 . S
C339 H307 0.929 . S
C339 C338 1.267 . S
C339 C340 1.251 . S
C340 H310 0.929 . S
C340 N336 1.418 . S
C340 C339 1.251 . S
C341 H308 0.930 . S
C341 C343 1.439 . S
C341 C346 1.261 . S
C342 H309 0.942 . S
C342 N344 1.337 . S
C342 C345 1.334 1_554 S
C343 H311 0.914 1_556 S
C343 C341 1.439 . S
C343 N344 1.242 1_556 S
N344 Co295 2.214 . S
N344 C342 1.337 . S
N344 C343 1.242 1_554 S
C345 H315 0.931 . S
C345 C342 1.334 1_556 S
C345 C346 1.312 . S
C346 H317 0.930 . S
C346 C341 1.261 . S
C346 C345 1.312 . S
C347 O319 1.214 . S
C347 O327 1.234 . S
C348 H320 0.929 . S
C348 C351 1.391 . S
C348 C353 1.391 . S
C349 H321 0.929 . S
C349 C350 1.390 . S
C349 N352 1.391 . S
C350 H322 0.930 . S
C350 C349 1.390 . S
C350 C351 1.392 . S
C351 H323 0.929 . S
C351 C348 1.391 . S
C351 C350 1.392 . S
N352 Co296 2.257 . S
N352 C349 1.391 . S
N352 C353 1.388 . S
C353 H324 0.930 . S
C353 C348 1.391 . S
C353 N352 1.388 . S
Co354 O356 2.162 . S
Co354 O362 2.074 . S
Co354 O365 2.093 . S
Co354 O378 2.097 1_565 S
Co354 N395 2.151 . S
Co354 N403 2.214 . S
Co355 O356 2.141 1_545 S
Co355 O361 2.058 1_545 S
Co355 O371 2.057 . S
Co355 O386 2.037 . S
Co355 N390 2.145 . S
Co355 N411 2.257 . S
O356 Co354 2.162 . S
O356 Co355 2.141 1_565 S
C357 O358 1.278 . S
C357 O365 1.224 1_545 S
O358 C357 1.278 . S
C359 O360 1.245 1_545 S
C359 O371 1.232 . S
O360 C359 1.245 1_565 S
O361 Co355 2.058 1_565 S
O361 C387 1.269 . S
O362 Co354 2.074 . S
O362 C387 1.257 . S
H363 C388 0.930 . S
H364 C394 0.930 . S
O365 Co354 2.093 . S
O365 C357 1.224 1_565 S
H366 C398 0.929 . S
H367 C400 0.930 . S
H368 C401 0.930 . S
H369 C399 0.929 . S
H370 C402 0.928 . S
O371 Co355 2.057 . S
O371 C359 1.232 . S
H372 C391 0.929 . S
H373 C392 0.929 . S
H374 C404 0.931 . S
H375 C396 0.929 . S
H376 C405 0.930 . S
H377 C397 0.931 . S
O378 Co354 2.097 1_545 S
O378 C406 1.214 . S
H379 C407 0.929 . S
H380 C408 0.929 . S
H381 C409 0.930 . S
H382 C410 0.929 . S
H383 C412 0.930 . S
H384 C389 0.930 . S
H385 C393 0.930 . S
O386 Co355 2.037 . S
O386 C406 1.234 . S
C387 O361 1.269 . S
C387 O362 1.257 . S
C388 H363 0.930 . S
C388 C391 1.388 . S
C388 C393 1.418 . S
C389 H384 0.930 . S
C389 C392 1.404 . S
C389 C393 1.353 . S
N390 Co355 2.145 . S
N390 C391 1.397 . S
N390 C392 1.334 . S
C391 H372 0.929 . S
C391 C388 1.388 . S
C391 N390 1.397 . S
C392 H373 0.929 . S
C392 C389 1.404 . S
C392 N390 1.334 . S
C393 H385 0.930 . S
C393 C388 1.418 . S
C393 C389 1.353 . S
C394 H364 0.930 . S
C394 N395 1.330 . S
C394 C396 1.446 . S
N395 Co354 2.151 . S
N395 C394 1.330 . S
N395 C399 1.418 . S
C396 H375 0.929 . S
C396 C394 1.446 . S
C396 C397 1.332 . S
C397 H377 0.931 . S
C397 C396 1.332 . S
C397 C398 1.267 . S
C398 H366 0.929 . S
C398 C397 1.267 . S
C398 C399 1.251 . S
C399 H369 0.929 . S
C399 N395 1.418 . S
C399 C398 1.251 . S
C400 H367 0.930 . S
C400 C402 1.406 . S
C400 C405 1.261 . S
C401 H368 0.930 . S
C401 N403 1.325 . S
C401 C404 1.357 . S
C402 H370 0.928 . S
C402 C400 1.406 . S
C402 N403 1.261 . S
N403 Co354 2.214 . S
N403 C401 1.325 . S
N403 C402 1.261 . S
C404 H374 0.931 . S
C404 C401 1.357 . S
C404 C405 1.312 . S
C405 H376 0.930 . S
C405 C400 1.261 . S
C405 C404 1.312 . S
C406 O378 1.214 . S
C406 O386 1.234 . S
C407 H379 0.929 . S
C407 C410 1.391 . S
C407 C412 1.391 . S
C408 H380 0.929 . S
C408 C409 1.390 . S
C408 N411 1.391 . S
C409 H381 0.930 . S
C409 C408 1.390 . S
C409 C410 1.392 . S
C410 H382 0.929 . S
C410 C407 1.391 . S
C410 C409 1.392 . S
N411 Co355 2.257 . S
N411 C408 1.391 . S
N411 C412 1.388 . S
C412 H383 0.930 . S
C412 C407 1.391 . S
C412 N411 1.388 . S
Co413 O415 2.143 . S
Co413 O421 2.074 . S
Co413 O424 2.093 . S
Co413 O437 2.097 . S
Co413 N454 2.151 . S
Co413 N462 2.214 . S
Co414 O415 2.160 . S
Co414 O420 2.058 . S
Co414 O430 2.057 . S
Co414 O445 2.037 . S
Co414 N449 2.145 . S
Co414 N470 2.257 . S
O415 Co413 2.143 . S
O415 Co414 2.160 . S
C416 O417 1.278 . S
C416 O424 1.224 . S
O417 C416 1.278 . S
C418 O419 1.245 . S
C418 O430 1.232 . S
O419 C418 1.245 . S
O420 Co414 2.058 . S
O420 C446 1.269 . S
O421 Co413 2.074 . S
O421 C446 1.257 . S
H422 C447 0.930 . S
H423 C453 0.930 . S
O424 Co413 2.093 . S
O424 C416 1.224 . S
H425 C457 0.929 . S
H426 C459 0.930 . S
H427 C460 0.930 . S
H428 C458 0.929 . S
H429 C461 0.928 . S
O430 Co414 2.057 . S
O430 C418 1.232 . S
H431 C450 0.929 . S
H432 C451 0.929 . S
H433 C463 0.931 . S
H434 C455 0.929 . S
H435 C464 0.930 . S
H436 C456 0.931 . S
O437 Co413 2.097 . S
O437 C465 1.214 . S
H438 C466 0.929 . S
H439 C467 0.929 . S
H440 C468 0.930 . S
H441 C469 0.929 . S
H442 C471 0.930 . S
H443 C448 0.930 . S
H444 C452 0.930 . S
O445 Co414 2.037 . S
O445 C465 1.234 . S
C446 O420 1.269 . S
C446 O421 1.257 . S
C447 H422 0.930 . S
C447 C450 1.388 . S
C447 C452 1.418 . S
C448 H443 0.930 . S
C448 C451 1.404 . S
C448 C452 1.353 . S
N449 Co414 2.145 . S
N449 C450 1.397 . S
N449 C451 1.334 . S
C450 H431 0.929 . S
C450 C447 1.388 . S
C450 N449 1.397 . S
C451 H432 0.929 . S
C451 C448 1.404 . S
C451 N449 1.334 . S
C452 H444 0.930 . S
C452 C447 1.418 . S
C452 C448 1.353 . S
C453 H423 0.930 . S
C453 N454 1.330 . S
C453 C455 1.446 . S
N454 Co413 2.151 . S
N454 C453 1.330 . S
N454 C458 1.418 . S
C455 H434 0.929 . S
C455 C453 1.446 . S
C455 C456 1.332 . S
C456 H436 0.931 . S
C456 C455 1.332 . S
C456 C457 1.267 . S
C457 H425 0.929 . S
C457 C456 1.267 . S
C457 C458 1.251 . S
C458 H428 0.929 . S
C458 N454 1.418 . S
C458 C457 1.251 . S
C459 H426 0.930 . S
C459 C461 1.406 . S
C459 C464 1.261 . S
C460 H427 0.930 . S
C460 N462 1.325 . S
C460 C463 1.357 . S
C461 H429 0.928 . S
C461 C459 1.406 . S
C461 N462 1.261 . S
N462 Co413 2.214 . S
N462 C460 1.325 . S
N462 C461 1.261 . S
C463 H433 0.931 . S
C463 C460 1.357 . S
C463 C464 1.312 . S
C464 H435 0.930 . S
C464 C459 1.261 . S
C464 C463 1.312 . S
C465 O437 1.214 . S
C465 O445 1.234 . S
C466 H438 0.929 . S
C466 C469 1.391 . S
C466 C471 1.391 . S
C467 H439 0.929 . S
C467 C468 1.390 . S
C467 N470 1.391 . S
C468 H440 0.930 . S
C468 C467 1.390 . S
C468 C469 1.392 . S
C469 H441 0.929 . S
C469 C466 1.391 . S
C469 C468 1.392 . S
N470 Co414 2.257 . S
N470 C467 1.391 . S
N470 C471 1.388 . S
C471 H442 0.930 . S
C471 C466 1.391 . S
C471 N470 1.388 . S
Co472 O474 2.162 . S
Co472 O480 2.074 . S
Co472 O483 2.093 . S
Co472 O496 2.097 1_554 S
Co472 N513 2.151 . S
Co472 N521 2.214 . S
Co473 O474 2.141 1_556 S
Co473 O479 2.058 1_556 S
Co473 O489 2.057 . S
Co473 O504 2.037 . S
Co473 N508 2.145 . S
Co473 N529 2.257 . S
O474 Co472 2.162 . S
O474 Co473 2.141 1_554 S
C475 O476 1.278 . S
C475 O483 1.224 1_556 S
O476 C475 1.278 . S
C477 O478 1.237 1_556 S
C477 O489 1.238 . S
O478 C477 1.237 1_554 S
O479 Co473 2.058 1_554 S
O479 C505 1.269 . S
O480 Co472 2.074 . S
O480 C505 1.257 . S
H481 C506 0.930 . S
H482 C512 0.930 . S
O483 Co472 2.093 . S
O483 C475 1.224 1_554 S
H484 C516 0.929 . S
H485 C518 0.930 . S
H486 C519 0.930 1_455 S
H487 C517 0.929 . S
H488 C520 0.913 1_455 S
O489 Co473 2.057 . S
O489 C477 1.238 . S
H490 C509 0.929 . S
H491 C510 0.929 . S
H492 C522 0.931 . S
H493 C514 0.929 . S
H494 C523 0.930 . S
H495 C515 0.931 . S
O496 Co472 2.097 1_556 S
O496 C524 1.214 . S
H497 C525 0.929 . S
H498 C526 0.929 . S
H499 C527 0.930 . S
H500 C528 0.929 . S
H501 C530 0.930 . S
H502 C507 0.930 . S
H503 C511 0.930 . S
O504 Co473 2.037 . S
O504 C524 1.234 . S
C505 O479 1.269 . S
C505 O480 1.257 . S
C506 H481 0.930 . S
C506 C509 1.388 . S
C506 C511 1.418 . S
C507 H502 0.930 . S
C507 C510 1.404 . S
C507 C511 1.353 . S
N508 Co473 2.145 . S
N508 C509 1.397 . S
N508 C510 1.334 . S
C509 H490 0.929 . S
C509 C506 1.388 . S
C509 N508 1.397 . S
C510 H491 0.929 . S
C510 C507 1.404 . S
C510 N508 1.334 . S
C511 H503 0.930 . S
C511 C506 1.418 . S
C511 C507 1.353 . S
C512 H482 0.930 . S
C512 N513 1.330 . S
C512 C514 1.446 . S
N513 Co472 2.151 . S
N513 C512 1.330 . S
N513 C517 1.418 . S
C514 H493 0.929 . S
C514 C512 1.446 . S
C514 C515 1.332 . S
C515 H495 0.931 . S
C515 C514 1.332 . S
C515 C516 1.267 . S
C516 H484 0.929 . S
C516 C515 1.267 . S
C516 C517 1.251 . S
C517 H487 0.929 . S
C517 N513 1.418 . S
C517 C516 1.251 . S
C518 H485 0.930 . S
C518 C520 1.438 . S
C518 C523 1.261 . S
C519 H486 0.930 1_655 S
C519 N521 1.325 1_655 S
C519 C522 1.357 . S
C520 H488 0.913 1_655 S
C520 C518 1.438 . S
C520 N521 1.244 1_655 S
N521 Co472 2.214 . S
N521 C519 1.325 1_455 S
N521 C520 1.244 1_455 S
C522 H492 0.931 . S
C522 C519 1.357 . S
C522 C523 1.312 . S
C523 H494 0.930 . S
C523 C518 1.261 . S
C523 C522 1.312 . S
C524 O496 1.214 . S
C524 O504 1.234 . S
C525 H497 0.929 . S
C525 C528 1.391 . S
C525 C530 1.391 . S
C526 H498 0.929 . S
C526 C527 1.390 . S
C526 N529 1.391 . S
C527 H499 0.930 . S
C527 C526 1.390 . S
C527 C528 1.392 . S
C528 H500 0.929 . S
C528 C525 1.391 . S
C528 C527 1.392 . S
N529 Co473 2.257 . S
N529 C526 1.391 . S
N529 C530 1.388 . S
C530 H501 0.930 . S
C530 C525 1.391 . S
C530 N529 1.388 . S
Co531 O533 2.143 . S
Co531 O539 2.074 . S
Co531 O542 2.093 . S
Co531 O555 2.097 . S
Co531 N572 2.151 . S
Co531 N580 2.214 . S
Co532 O533 2.160 . S
Co532 O538 2.058 . S
Co532 O548 2.057 . S
Co532 O563 2.037 . S
Co532 N567 2.145 . S
Co532 N588 2.257 . S
O533 Co531 2.143 . S
O533 Co532 2.160 . S
C534 O535 1.278 . S
C534 O542 1.224 . S
O535 C534 1.278 . S
C536 O537 1.245 . S
C536 O548 1.232 . S
O537 C536 1.245 . S
O538 Co532 2.058 . S
O538 C564 1.269 . S
O539 Co531 2.074 . S
O539 C564 1.257 . S
H540 C565 0.930 . S
H541 C571 0.930 . S
O542 Co531 2.093 . S
O542 C534 1.224 . S
H543 C575 0.929 . S
H544 C577 0.930 . S
H545 C578 0.942 . S
H546 C576 0.929 . S
H547 C579 0.914 1_455 S
O548 Co532 2.057 . S
O548 C536 1.232 . S
H549 C568 0.929 . S
H550 C569 0.929 . S
H551 C581 0.931 . S
H552 C573 0.929 . S
H553 C582 0.930 . S
H554 C574 0.931 . S
O555 Co531 2.097 . S
O555 C583 1.214 . S
H556 C584 0.929 . S
H557 C585 0.929 . S
H558 C586 0.930 . S
H559 C587 0.929 . S
H560 C589 0.930 . S
H561 C566 0.930 . S
H562 C570 0.930 . S
O563 Co532 2.037 . S
O563 C583 1.234 . S
C564 O538 1.269 . S
C564 O539 1.257 . S
C565 H540 0.930 . S
C565 C568 1.388 . S
C565 C570 1.418 . S
C566 H561 0.930 . S
C566 C569 1.404 . S
C566 C570 1.353 . S
N567 Co532 2.145 . S
N567 C568 1.397 . S
N567 C569 1.334 . S
C568 H549 0.929 . S
C568 C565 1.388 . S
C568 N567 1.397 . S
C569 H550 0.929 . S
C569 C566 1.404 . S
C569 N567 1.334 . S
C570 H562 0.930 . S
C570 C565 1.418 . S
C570 C566 1.353 . S
C571 H541 0.930 . S
C571 N572 1.330 . S
C571 C573 1.446 . S
N572 Co531 2.151 . S
N572 C571 1.330 . S
N572 C576 1.418 . S
C573 H552 0.929 . S
C573 C571 1.446 . S
C573 C574 1.332 . S
C574 H554 0.931 . S
C574 C573 1.332 . S
C574 C575 1.267 . S
C575 H543 0.929 . S
C575 C574 1.267 . S
C575 C576 1.251 . S
C576 H546 0.929 . S
C576 N572 1.418 . S
C576 C575 1.251 . S
C577 H544 0.930 . S
C577 C579 1.439 . S
C577 C582 1.261 . S
C578 H545 0.942 . S
C578 N580 1.337 . S
C578 C581 1.334 1_455 S
C579 H547 0.914 1_655 S
C579 C577 1.439 . S
C579 N580 1.242 1_655 S
N580 Co531 2.214 . S
N580 C578 1.337 . S
N580 C579 1.242 1_455 S
C581 H551 0.931 . S
C581 C578 1.334 1_655 S
C581 C582 1.312 . S
C582 H553 0.930 . S
C582 C577 1.261 . S
C582 C581 1.312 . S
C583 O555 1.214 . S
C583 O563 1.234 . S
C584 H556 0.929 . S
C584 C587 1.391 . S
C584 C589 1.391 . S
C585 H557 0.929 . S
C585 C586 1.390 . S
C585 N588 1.391 . S
C586 H558 0.930 . S
C586 C585 1.390 . S
C586 C587 1.392 . S
C587 H559 0.929 . S
C587 C584 1.391 . S
C587 C586 1.392 . S
N588 Co532 2.257 . S
N588 C585 1.391 . S
N588 C589 1.388 . S
C589 H560 0.930 . S
C589 C584 1.391 . S
C589 N588 1.388 . S
Co590 O592 2.143 . S
Co590 O598 2.074 . S
Co590 O601 2.093 . S
Co590 O614 2.097 . S
Co590 N631 2.151 . S
Co590 N639 2.214 . S
Co591 O592 2.160 . S
Co591 O597 2.058 . S
Co591 O607 2.057 . S
Co591 O622 2.037 . S
Co591 N626 2.145 . S
Co591 N647 2.257 . S
O592 Co590 2.143 . S
O592 Co591 2.160 . S
C593 O594 1.278 . S
C593 O601 1.224 . S
O594 C593 1.278 . S
C595 O596 1.245 . S
C595 O607 1.232 . S
O596 C595 1.245 . S
O597 Co591 2.058 . S
O597 C623 1.269 . S
O598 Co590 2.074 . S
O598 C623 1.257 . S
H599 C624 0.930 . S
H600 C630 0.930 . S
O601 Co590 2.093 . S
O601 C593 1.224 . S
H602 C634 0.929 . S
H603 C636 0.930 . S
H604 C637 0.930 . S
H605 C635 0.929 . S
H606 C638 0.928 . S
O607 Co591 2.057 . S
O607 C595 1.232 . S
H608 C627 0.929 . S
H609 C628 0.929 . S
H610 C640 0.931 . S
H611 C632 0.929 . S
H612 C641 0.930 . S
H613 C633 0.931 . S
O614 Co590 2.097 . S
O614 C642 1.214 . S
H615 C643 0.929 . S
H616 C644 0.929 . S
H617 C645 0.930 . S
H618 C646 0.929 . S
H619 C648 0.930 . S
H620 C625 0.930 . S
H621 C629 0.930 . S
O622 Co591 2.037 . S
O622 C642 1.234 . S
C623 O597 1.269 . S
C623 O598 1.257 . S
C624 H599 0.930 . S
C624 C627 1.388 . S
C624 C629 1.418 . S
C625 H620 0.930 . S
C625 C628 1.404 . S
C625 C629 1.353 . S
N626 Co591 2.145 . S
N626 C627 1.397 . S
N626 C628 1.334 . S
C627 H608 0.929 . S
C627 C624 1.388 . S
C627 N626 1.397 . S
C628 H609 0.929 . S
C628 C625 1.404 . S
C628 N626 1.334 . S
C629 H621 0.930 . S
C629 C624 1.418 . S
C629 C625 1.353 . S
C630 H600 0.930 . S
C630 N631 1.330 . S
C630 C632 1.446 . S
N631 Co590 2.151 . S
N631 C630 1.330 . S
N631 C635 1.418 . S
C632 H611 0.929 . S
C632 C630 1.446 . S
C632 C633 1.332 . S
C633 H613 0.931 . S
C633 C632 1.332 . S
C633 C634 1.267 . S
C634 H602 0.929 . S
C634 C633 1.267 . S
C634 C635 1.251 . S
C635 H605 0.929 . S
C635 N631 1.418 . S
C635 C634 1.251 . S
C636 H603 0.930 . S
C636 C638 1.406 1_455 S
C636 C641 1.261 . S
C637 H604 0.930 . S
C637 N639 1.325 . S
C637 C640 1.357 1_655 S
C638 H606 0.928 . S
C638 C636 1.406 1_655 S
C638 N639 1.261 . S
N639 Co590 2.214 . S
N639 C637 1.325 . S
N639 C638 1.261 . S
C640 H610 0.931 . S
C640 C637 1.357 1_455 S
C640 C641 1.312 . S
C641 H612 0.930 . S
C641 C636 1.261 . S
C641 C640 1.312 . S
C642 O614 1.214 . S
C642 O622 1.234 . S
C643 H615 0.929 . S
C643 C646 1.391 . S
C643 C648 1.391 . S
C644 H616 0.929 . S
C644 C645 1.390 . S
C644 N647 1.391 . S
C645 H617 0.930 . S
C645 C644 1.390 . S
C645 C646 1.392 . S
C646 H618 0.929 . S
C646 C643 1.391 . S
C646 C645 1.392 . S
N647 Co591 2.257 . S
N647 C644 1.391 . S
N647 C648 1.388 . S
C648 H619 0.930 . S
C648 C643 1.391 . S
C648 N647 1.388 . S
Co649 O651 2.143 . S
Co649 O657 2.074 . S
Co649 O660 2.093 . S
Co649 O673 2.097 . S
Co649 N690 2.151 . S
Co649 N698 2.214 . S
Co650 O651 2.160 . S
Co650 O656 2.058 . S
Co650 O666 2.057 . S
Co650 O681 2.037 . S
Co650 N685 2.145 . S
Co650 N706 2.257 . S
O651 Co649 2.143 . S
O651 Co650 2.160 . S
C652 O653 1.278 . S
C652 O660 1.224 . S
O653 C652 1.278 . S
C654 O655 1.245 . S
C654 O666 1.232 . S
O655 C654 1.245 . S
O656 Co650 2.058 . S
O656 C682 1.269 . S
O657 Co649 2.074 . S
O657 C682 1.257 . S
H658 C683 0.930 . S
H659 C689 0.930 . S
O660 Co649 2.093 . S
O660 C652 1.224 . S
H661 C693 0.929 . S
H662 C695 0.930 . S
H663 C696 0.930 . S
H664 C694 0.929 . S
H665 C697 0.928 . S
O666 Co650 2.057 . S
O666 C654 1.232 . S
H667 C686 0.929 . S
H668 C687 0.929 . S
H669 C699 0.931 . S
H670 C691 0.929 . S
H671 C700 0.930 . S
H672 C692 0.931 . S
O673 Co649 2.097 . S
O673 C701 1.214 . S
H674 C702 0.929 . S
H675 C703 0.929 . S
H676 C704 0.930 . S
H677 C705 0.929 . S
H678 C707 0.930 . S
H679 C684 0.930 . S
H680 C688 0.930 . S
O681 Co650 2.037 . S
O681 C701 1.234 . S
C682 O656 1.269 . S
C682 O657 1.257 . S
C683 H658 0.930 . S
C683 C686 1.388 . S
C683 C688 1.418 . S
C684 H679 0.930 . S
C684 C687 1.404 . S
C684 C688 1.353 . S
N685 Co650 2.145 . S
N685 C686 1.397 . S
N685 C687 1.334 . S
C686 H667 0.929 . S
C686 C683 1.388 . S
C686 N685 1.397 . S
C687 H668 0.929 . S
C687 C684 1.404 . S
C687 N685 1.334 . S
C688 H680 0.930 . S
C688 C683 1.418 . S
C688 C684 1.353 . S
C689 H659 0.930 . S
C689 N690 1.330 . S
C689 C691 1.446 . S
N690 Co649 2.151 . S
N690 C689 1.330 . S
N690 C694 1.418 . S
C691 H670 0.929 . S
C691 C689 1.446 . S
C691 C692 1.332 . S
C692 H672 0.931 . S
C692 C691 1.332 . S
C692 C693 1.267 . S
C693 H661 0.929 . S
C693 C692 1.267 . S
C693 C694 1.251 . S
C694 H664 0.929 . S
C694 N690 1.418 . S
C694 C693 1.251 . S
C695 H662 0.930 . S
C695 C697 1.406 . S
C695 C700 1.261 . S
C696 H663 0.930 . S
C696 N698 1.325 . S
C696 C699 1.357 . S
C697 H665 0.928 . S
C697 C695 1.406 . S
C697 N698 1.261 . S
N698 Co649 2.214 . S
N698 C696 1.325 . S
N698 C697 1.261 . S
C699 H669 0.931 . S
C699 C696 1.357 . S
C699 C700 1.312 . S
C700 H671 0.930 . S
C700 C695 1.261 . S
C700 C699 1.312 . S
C701 O673 1.214 . S
C701 O681 1.234 . S
C702 H674 0.929 . S
C702 C705 1.391 . S
C702 C707 1.391 . S
C703 H675 0.929 . S
C703 C704 1.390 . S
C703 N706 1.391 . S
C704 H676 0.930 . S
C704 C703 1.390 . S
C704 C705 1.392 . S
C705 H677 0.929 . S
C705 C702 1.391 . S
C705 C704 1.392 . S
N706 Co650 2.257 . S
N706 C703 1.391 . S
N706 C707 1.388 . S
C707 H678 0.930 . S
C707 C702 1.391 . S
C707 N706 1.388 . S
Co708 O710 2.143 . S
Co708 O716 2.074 . S
Co708 O719 2.093 . S
Co708 O732 2.097 . S
Co708 N749 2.151 . S
Co708 N757 2.214 . S
Co709 O710 2.160 . S
Co709 O715 2.058 . S
Co709 O725 2.057 . S
Co709 O740 2.037 . S
Co709 N744 2.145 . S
Co709 N765 2.257 . S
O710 Co708 2.143 . S
O710 Co709 2.160 . S
C711 O712 1.278 . S
C711 O719 1.224 . S
O712 C711 1.278 . S
C713 O714 1.245 . S
C713 O725 1.232 . S
O714 C713 1.245 . S
O715 Co709 2.058 . S
O715 C741 1.269 . S
O716 Co708 2.074 . S
O716 C741 1.257 . S
H717 C742 0.930 . S
H718 C748 0.930 . S
O719 Co708 2.093 . S
O719 C711 1.224 . S
H720 C752 0.929 . S
H721 C754 0.930 . S
H722 C755 0.930 . S
H723 C753 0.929 . S
H724 C756 0.928 . S
O725 Co709 2.057 . S
O725 C713 1.232 . S
H726 C745 0.929 . S
H727 C746 0.929 . S
H728 C758 0.931 . S
H729 C750 0.929 . S
H730 C759 0.930 . S
H731 C751 0.931 . S
O732 Co708 2.097 . S
O732 C760 1.214 . S
H733 C761 0.929 . S
H734 C762 0.929 . S
H735 C763 0.930 . S
H736 C764 0.929 . S
H737 C766 0.930 . S
H738 C743 0.930 . S
H739 C747 0.930 . S
O740 Co709 2.037 . S
O740 C760 1.234 . S
C741 O715 1.269 . S
C741 O716 1.257 . S
C742 H717 0.930 . S
C742 C745 1.388 . S
C742 C747 1.418 . S
C743 H738 0.930 . S
C743 C746 1.404 . S
C743 C747 1.353 . S
N744 Co709 2.145 . S
N744 C745 1.397 . S
N744 C746 1.334 . S
C745 H726 0.929 . S
C745 C742 1.388 . S
C745 N744 1.397 . S
C746 H727 0.929 . S
C746 C743 1.404 . S
C746 N744 1.334 . S
C747 H739 0.930 . S
C747 C742 1.418 . S
C747 C743 1.353 . S
C748 H718 0.930 . S
C748 N749 1.330 . S
C748 C750 1.446 . S
N749 Co708 2.151 . S
N749 C748 1.330 . S
N749 C753 1.418 . S
C750 H729 0.929 . S
C750 C748 1.446 . S
C750 C751 1.332 . S
C751 H731 0.931 . S
C751 C750 1.332 . S
C751 C752 1.267 . S
C752 H720 0.929 . S
C752 C751 1.267 . S
C752 C753 1.251 . S
C753 H723 0.929 . S
C753 N749 1.418 . S
C753 C752 1.251 . S
C754 H721 0.930 . S
C754 C756 1.406 . S
C754 C759 1.261 . S
C755 H722 0.930 . S
C755 N757 1.325 . S
C755 C758 1.357 . S
C756 H724 0.928 . S
C756 C754 1.406 . S
C756 N757 1.261 . S
N757 Co708 2.214 . S
N757 C755 1.325 . S
N757 C756 1.261 . S
C758 H728 0.931 . S
C758 C755 1.357 . S
C758 C759 1.312 . S
C759 H730 0.930 . S
C759 C754 1.261 . S
C759 C758 1.312 . S
C760 O732 1.214 . S
C760 O740 1.234 . S
C761 H733 0.929 . S
C761 C764 1.391 . S
C761 C766 1.391 . S
C762 H734 0.929 . S
C762 C763 1.390 . S
C762 N765 1.391 . S
C763 H735 0.930 . S
C763 C762 1.390 . S
C763 C764 1.392 . S
C764 H736 0.929 . S
C764 C761 1.391 . S
C764 C763 1.392 . S
N765 Co709 2.257 . S
N765 C762 1.391 . S
N765 C766 1.388 . S
C766 H737 0.930 . S
C766 C761 1.391 . S
C766 N765 1.388 . S
Co767 O769 2.143 . S
Co767 O775 2.074 . S
Co767 O778 2.093 . S
Co767 O791 2.097 . S
Co767 N808 2.151 . S
Co767 N816 2.214 . S
Co768 O769 2.160 . S
Co768 O774 2.058 . S
Co768 O784 2.057 . S
Co768 O799 2.037 . S
Co768 N803 2.145 . S
Co768 N824 2.257 . S
O769 Co767 2.143 . S
O769 Co768 2.160 . S
C770 O771 1.278 . S
C770 O778 1.224 . S
O771 C770 1.278 . S
C772 O773 1.245 . S
C772 O784 1.232 . S
O773 C772 1.245 . S
O774 Co768 2.058 . S
O774 C800 1.269 . S
O775 Co767 2.074 . S
O775 C800 1.257 . S
H776 C801 0.930 . S
H777 C807 0.930 . S
O778 Co767 2.093 . S
O778 C770 1.224 . S
H779 C811 0.929 . S
H780 C813 0.930 . S
H781 C814 0.930 . S
H782 C812 0.929 . S
H783 C815 0.928 . S
O784 Co768 2.057 . S
O784 C772 1.232 . S
H785 C804 0.929 . S
H786 C805 0.929 . S
H787 C817 0.931 . S
H788 C809 0.929 . S
H789 C818 0.930 . S
H790 C810 0.931 . S
O791 Co767 2.097 . S
O791 C819 1.214 . S
H792 C820 0.929 . S
H793 C821 0.929 . S
H794 C822 0.930 . S
H795 C823 0.929 . S
H796 C825 0.930 . S
H797 C802 0.930 . S
H798 C806 0.930 . S
O799 Co768 2.037 . S
O799 C819 1.234 . S
C800 O774 1.269 . S
C800 O775 1.257 . S
C801 H776 0.930 . S
C801 C804 1.388 . S
C801 C806 1.418 . S
C802 H797 0.930 . S
C802 C805 1.404 . S
C802 C806 1.353 . S
N803 Co768 2.145 . S
N803 C804 1.397 . S
N803 C805 1.334 . S
C804 H785 0.929 . S
C804 C801 1.388 . S
C804 N803 1.397 . S
C805 H786 0.929 . S
C805 C802 1.404 . S
C805 N803 1.334 . S
C806 H798 0.930 . S
C806 C801 1.418 . S
C806 C802 1.353 . S
C807 H777 0.930 . S
C807 N808 1.330 . S
C807 C809 1.446 . S
N808 Co767 2.151 . S
N808 C807 1.330 . S
N808 C812 1.418 . S
C809 H788 0.929 . S
C809 C807 1.446 . S
C809 C810 1.332 . S
C810 H790 0.931 . S
C810 C809 1.332 . S
C810 C811 1.267 . S
C811 H779 0.929 . S
C811 C810 1.267 . S
C811 C812 1.251 . S
C812 H782 0.929 . S
C812 N808 1.418 . S
C812 C811 1.251 . S
C813 H780 0.930 . S
C813 C815 1.406 1_545 S
C813 C818 1.261 . S
C814 H781 0.930 . S
C814 N816 1.325 . S
C814 C817 1.357 1_565 S
C815 H783 0.928 . S
C815 C813 1.406 1_565 S
C815 N816 1.261 . S
N816 Co767 2.214 . S
N816 C814 1.325 . S
N816 C815 1.261 . S
C817 H787 0.931 . S
C817 C814 1.357 1_545 S
C817 C818 1.312 . S
C818 H789 0.930 . S
C818 C813 1.261 . S
C818 C817 1.312 . S
C819 O791 1.214 . S
C819 O799 1.234 . S
C820 H792 0.929 . S
C820 C823 1.391 . S
C820 C825 1.391 . S
C821 H793 0.929 . S
C821 C822 1.390 . S
C821 N824 1.391 . S
C822 H794 0.930 . S
C822 C821 1.390 . S
C822 C823 1.392 . S
C823 H795 0.929 . S
C823 C820 1.391 . S
C823 C822 1.392 . S
N824 Co768 2.257 . S
N824 C821 1.391 . S
N824 C825 1.388 . S
C825 H796 0.930 . S
C825 C820 1.391 . S
C825 N824 1.388 . S
Co826 O828 2.143 . S
Co826 O834 2.074 . S
Co826 O837 2.093 . S
Co826 O850 2.097 . S
Co826 N867 2.151 . S
Co826 N875 2.214 . S
Co827 O828 2.160 . S
Co827 O833 2.058 . S
Co827 O843 2.057 . S
Co827 O858 2.037 . S
Co827 N862 2.145 . S
Co827 N883 2.257 . S
O828 Co826 2.143 . S
O828 Co827 2.160 . S
C829 O830 1.278 . S
C829 O837 1.224 . S
O830 C829 1.278 . S
C831 O832 1.245 . S
C831 O843 1.232 . S
O832 C831 1.245 . S
O833 Co827 2.058 . S
O833 C859 1.269 . S
O834 Co826 2.074 . S
O834 C859 1.257 . S
H835 C860 0.930 . S
H836 C866 0.930 . S
O837 Co826 2.093 . S
O837 C829 1.224 . S
H838 C870 0.929 . S
H839 C872 0.930 . S
H840 C873 0.930 . S
H841 C871 0.929 . S
H842 C874 0.928 . S
O843 Co827 2.057 . S
O843 C831 1.232 . S
H844 C863 0.929 . S
H845 C864 0.929 . S
H846 C876 0.931 . S
H847 C868 0.929 . S
H848 C877 0.930 . S
H849 C869 0.931 . S
O850 Co826 2.097 . S
O850 C878 1.214 . S
H851 C879 0.929 . S
H852 C880 0.929 . S
H853 C881 0.930 . S
H854 C882 0.929 . S
H855 C884 0.930 . S
H856 C861 0.930 . S
H857 C865 0.930 . S
O858 Co827 2.037 . S
O858 C878 1.234 . S
C859 O833 1.269 . S
C859 O834 1.257 . S
C860 H835 0.930 . S
C860 C863 1.388 . S
C860 C865 1.418 . S
C861 H856 0.930 . S
C861 C864 1.404 . S
C861 C865 1.353 . S
N862 Co827 2.145 . S
N862 C863 1.397 . S
N862 C864 1.334 . S
C863 H844 0.929 . S
C863 C860 1.388 . S
C863 N862 1.397 . S
C864 H845 0.929 . S
C864 C861 1.404 . S
C864 N862 1.334 . S
C865 H857 0.930 . S
C865 C860 1.418 . S
C865 C861 1.353 . S
C866 H836 0.930 . S
C866 N867 1.330 . S
C866 C868 1.446 . S
N867 Co826 2.151 . S
N867 C866 1.330 . S
N867 C871 1.418 . S
C868 H847 0.929 . S
C868 C866 1.446 . S
C868 C869 1.332 . S
C869 H849 0.931 . S
C869 C868 1.332 . S
C869 C870 1.267 . S
C870 H838 0.929 . S
C870 C869 1.267 . S
C870 C871 1.251 . S
C871 H841 0.929 . S
C871 N867 1.418 . S
C871 C870 1.251 . S
C872 H839 0.930 . S
C872 C874 1.406 . S
C872 C877 1.261 . S
C873 H840 0.930 . S
C873 N875 1.325 . S
C873 C876 1.357 . S
C874 H842 0.928 . S
C874 C872 1.406 . S
C874 N875 1.261 . S
N875 Co826 2.214 . S
N875 C873 1.325 . S
N875 C874 1.261 . S
C876 H846 0.931 . S
C876 C873 1.357 . S
C876 C877 1.312 . S
C877 H848 0.930 . S
C877 C872 1.261 . S
C877 C876 1.312 . S
C878 O850 1.214 . S
C878 O858 1.234 . S
C879 H851 0.929 . S
C879 C882 1.391 . S
C879 C884 1.391 . S
C880 H852 0.929 . S
C880 C881 1.390 . S
C880 N883 1.391 . S
C881 H853 0.930 . S
C881 C880 1.390 . S
C881 C882 1.392 . S
C882 H854 0.929 . S
C882 C879 1.391 . S
C882 C881 1.392 . S
N883 Co827 2.257 . S
N883 C880 1.391 . S
N883 C884 1.388 . S
C884 H855 0.930 . S
C884 C879 1.391 . S
C884 N883 1.388 . S
Co885 O887 2.143 . S
Co885 O893 2.074 . S
Co885 O896 2.093 . S
Co885 O909 2.097 . S
Co885 N926 2.151 . S
Co885 N934 2.214 . S
Co886 O887 2.160 . S
Co886 O892 2.058 . S
Co886 O902 2.057 . S
Co886 O917 2.037 . S
Co886 N921 2.145 . S
Co886 N942 2.257 . S
O887 Co885 2.143 . S
O887 Co886 2.160 . S
C888 O889 1.278 . S
C888 O896 1.224 . S
O889 C888 1.278 . S
C890 O891 1.245 . S
C890 O902 1.232 . S
O891 C890 1.245 . S
O892 Co886 2.058 . S
O892 C918 1.269 . S
O893 Co885 2.074 . S
O893 C918 1.257 . S
H894 C919 0.930 . S
H895 C925 0.930 . S
O896 Co885 2.093 . S
O896 C888 1.224 . S
H897 C929 0.929 . S
H898 C931 0.930 . S
H899 C932 0.942 . S
H900 C930 0.929 . S
H901 C933 0.914 1_545 S
O902 Co886 2.057 . S
O902 C890 1.232 . S
H903 C922 0.929 . S
H904 C923 0.929 . S
H905 C935 0.931 . S
H906 C927 0.929 . S
H907 C936 0.930 . S
H908 C928 0.931 . S
O909 Co885 2.097 . S
O909 C937 1.214 . S
H910 C938 0.929 . S
H911 C939 0.929 . S
H912 C940 0.930 . S
H913 C941 0.929 . S
H914 C943 0.930 . S
H915 C920 0.930 . S
H916 C924 0.930 . S
O917 Co886 2.037 . S
O917 C937 1.234 . S
C918 O892 1.269 . S
C918 O893 1.257 . S
C919 H894 0.930 . S
C919 C922 1.388 . S
C919 C924 1.418 . S
C920 H915 0.930 . S
C920 C923 1.404 . S
C920 C924 1.353 . S
N921 Co886 2.145 . S
N921 C922 1.397 . S
N921 C923 1.334 . S
C922 H903 0.929 . S
C922 C919 1.388 . S
C922 N921 1.397 . S
C923 H904 0.929 . S
C923 C920 1.404 . S
C923 N921 1.334 . S
C924 H916 0.930 . S
C924 C919 1.418 . S
C924 C920 1.353 . S
C925 H895 0.930 . S
C925 N926 1.330 . S
C925 C927 1.446 . S
N926 Co885 2.151 . S
N926 C925 1.330 . S
N926 C930 1.418 . S
C927 H906 0.929 . S
C927 C925 1.446 . S
C927 C928 1.332 . S
C928 H908 0.931 . S
C928 C927 1.332 . S
C928 C929 1.267 . S
C929 H897 0.929 . S
C929 C928 1.267 . S
C929 C930 1.251 . S
C930 H900 0.929 . S
C930 N926 1.418 . S
C930 C929 1.251 . S
C931 H898 0.930 . S
C931 C933 1.439 . S
C931 C936 1.261 . S
C932 H899 0.942 . S
C932 N934 1.337 . S
C932 C935 1.334 1_545 S
C933 H901 0.914 1_565 S
C933 C931 1.439 . S
C933 N934 1.242 1_565 S
N934 Co885 2.214 . S
N934 C932 1.337 . S
N934 C933 1.242 1_545 S
C935 H905 0.931 . S
C935 C932 1.334 1_565 S
C935 C936 1.312 . S
C936 H907 0.930 . S
C936 C931 1.261 . S
C936 C935 1.312 . S
C937 O909 1.214 . S
C937 O917 1.234 . S
C938 H910 0.929 . S
C938 C941 1.391 . S
C938 C943 1.391 . S
C939 H911 0.929 . S
C939 C940 1.390 . S
C939 N942 1.391 . S
C940 H912 0.930 . S
C940 C939 1.390 . S
C940 C941 1.392 . S
C941 H913 0.929 . S
C941 C938 1.391 . S
C941 C940 1.392 . S
N942 Co886 2.257 . S
N942 C939 1.391 . S
N942 C943 1.388 . S
C943 H914 0.930 . S
C943 C938 1.391 . S
C943 N942 1.388 . S
Co944 O946 2.143 . S
Co944 O952 2.074 . S
Co944 O955 2.093 . S
Co944 O968 2.097 . S
Co944 N985 2.151 . S
Co944 N993 2.214 . S
Co945 O946 2.160 . S
Co945 O951 2.058 . S
Co945 O961 2.057 . S
Co945 O976 2.037 . S
Co945 N980 2.145 . S
Co945 N1001 2.257 . S
O946 Co944 2.143 . S
O946 Co945 2.160 . S
C947 O948 1.278 . S
C947 O955 1.224 . S
O948 C947 1.278 . S
C949 O950 1.245 . S
C949 O961 1.232 . S
O950 C949 1.245 . S
O951 Co945 2.058 . S
O951 C977 1.269 . S
O952 Co944 2.074 . S
O952 C977 1.257 . S
H953 C978 0.930 . S
H954 C984 0.930 . S
O955 Co944 2.093 . S
O955 C947 1.224 . S
H956 C988 0.929 . S
H957 C990 0.930 . S
H958 C991 0.930 . S
H959 C989 0.929 . S
H960 C992 0.928 . S
O961 Co945 2.057 . S
O961 C949 1.232 . S
H962 C981 0.929 . S
H963 C982 0.929 . S
H964 C994 0.931 . S
H965 C986 0.929 . S
H966 C995 0.930 . S
H967 C987 0.931 . S
O968 Co944 2.097 . S
O968 C996 1.214 . S
H969 C997 0.929 . S
H970 C998 0.929 . S
H971 C999 0.930 . S
H972 C1000 0.929 . S
H973 C1002 0.930 . S
H974 C979 0.930 . S
H975 C983 0.930 . S
O976 Co945 2.037 . S
O976 C996 1.234 . S
C977 O951 1.269 . S
C977 O952 1.257 . S
C978 H953 0.930 . S
C978 C981 1.388 . S
C978 C983 1.418 . S
C979 H974 0.930 . S
C979 C982 1.404 . S
C979 C983 1.353 . S
N980 Co945 2.145 . S
N980 C981 1.397 . S
N980 C982 1.334 . S
C981 H962 0.929 . S
C981 C978 1.388 . S
C981 N980 1.397 . S
C982 H963 0.929 . S
C982 C979 1.404 . S
C982 N980 1.334 . S
C983 H975 0.930 . S
C983 C978 1.418 . S
C983 C979 1.353 . S
C984 H954 0.930 . S
C984 N985 1.330 . S
C984 C986 1.446 . S
N985 Co944 2.151 . S
N985 C984 1.330 . S
N985 C989 1.418 . S
C986 H965 0.929 . S
C986 C984 1.446 . S
C986 C987 1.332 . S
C987 H967 0.931 . S
C987 C986 1.332 . S
C987 C988 1.267 . S
C988 H956 0.929 . S
C988 C987 1.267 . S
C988 C989 1.251 . S
C989 H959 0.929 . S
C989 N985 1.418 . S
C989 C988 1.251 . S
C990 H957 0.930 . S
C990 C992 1.406 . S
C990 C995 1.261 . S
C991 H958 0.930 . S
C991 N993 1.325 . S
C991 C994 1.357 . S
C992 H960 0.928 . S
C992 C990 1.406 . S
C992 N993 1.261 . S
N993 Co944 2.214 . S
N993 C991 1.325 . S
N993 C992 1.261 . S
C994 H964 0.931 . S
C994 C991 1.357 . S
C994 C995 1.312 . S
C995 H966 0.930 . S
C995 C990 1.261 . S
C995 C994 1.312 . S
C996 O968 1.214 . S
C996 O976 1.234 . S
C997 H969 0.929 . S
C997 C1000 1.391 . S
C997 C1002 1.391 . S
C998 H970 0.929 . S
C998 C999 1.390 . S
C998 N1001 1.391 . S
C999 H971 0.930 . S
C999 C998 1.390 . S
C999 C1000 1.392 . S
C1000 H972 0.929 . S
C1000 C997 1.391 . S
C1000 C999 1.392 . S
N1001 Co945 2.257 . S
N1001 C998 1.391 . S
N1001 C1002 1.388 . S
C1002 H973 0.930 . S
C1002 C997 1.391 . S
C1002 N1001 1.388 . S
Co1003 O1005 2.143 . S
Co1003 O1011 2.074 . S
Co1003 O1014 2.093 . S
Co1003 O1027 2.097 1_565 S
Co1003 N1044 2.151 . S
Co1003 N1052 2.214 . S
Co1004 O1005 2.160 1_545 S
Co1004 O1010 2.058 1_545 S
Co1004 O1020 2.057 . S
Co1004 O1035 2.037 . S
Co1004 N1039 2.145 . S
Co1004 N1060 2.257 . S
O1005 Co1003 2.143 . S
O1005 Co1004 2.160 1_565 S
C1006 O1007 1.278 . S
C1006 O1014 1.224 1_545 S
O1007 C1006 1.278 . S
C1008 O1009 1.245 1_545 S
C1008 O1020 1.232 . S
O1009 C1008 1.245 1_565 S
O1010 Co1004 2.058 1_565 S
O1010 C1036 1.269 . S
O1011 Co1003 2.074 . S
O1011 C1036 1.257 . S
H1012 C1037 0.930 . S
H1013 C1043 0.930 . S
O1014 Co1003 2.093 . S
O1014 C1006 1.224 1_565 S
H1015 C1047 0.929 . S
H1016 C1049 0.930 . S
H1017 C1050 0.930 . S
H1018 C1048 0.929 . S
H1019 C1051 0.928 . S
O1020 Co1004 2.057 . S
O1020 C1008 1.232 . S
H1021 C1040 0.929 . S
H1022 C1041 0.929 . S
H1023 C1053 0.931 . S
H1024 C1045 0.929 . S
H1025 C1054 0.930 . S
H1026 C1046 0.931 . S
O1027 Co1003 2.097 1_545 S
O1027 C1055 1.214 . S
H1028 C1056 0.929 . S
H1029 C1057 0.929 . S
H1030 C1058 0.930 . S
H1031 C1059 0.929 . S
H1032 C1061 0.930 . S
H1033 C1038 0.930 . S
H1034 C1042 0.930 . S
O1035 Co1004 2.037 . S
O1035 C1055 1.234 . S
C1036 O1010 1.269 . S
C1036 O1011 1.257 . S
C1037 H1012 0.930 . S
C1037 C1040 1.388 . S
C1037 C1042 1.418 . S
C1038 H1033 0.930 . S
C1038 C1041 1.404 . S
C1038 C1042 1.353 . S
N1039 Co1004 2.145 . S
N1039 C1040 1.397 . S
N1039 C1041 1.334 . S
C1040 H1021 0.929 . S
C1040 C1037 1.388 . S
C1040 N1039 1.397 . S
C1041 H1022 0.929 . S
C1041 C1038 1.404 . S
C1041 N1039 1.334 . S
C1042 H1034 0.930 . S
C1042 C1037 1.418 . S
C1042 C1038 1.353 . S
C1043 H1013 0.930 . S
C1043 N1044 1.330 . S
C1043 C1045 1.446 . S
N1044 Co1003 2.151 . S
N1044 C1043 1.330 . S
N1044 C1048 1.418 . S
C1045 H1024 0.929 . S
C1045 C1043 1.446 . S
C1045 C1046 1.332 . S
C1046 H1026 0.931 . S
C1046 C1045 1.332 . S
C1046 C1047 1.267 . S
C1047 H1015 0.929 . S
C1047 C1046 1.267 . S
C1047 C1048 1.251 . S
C1048 H1018 0.929 . S
C1048 N1044 1.418 . S
C1048 C1047 1.251 . S
C1049 H1016 0.930 . S
C1049 C1051 1.406 . S
C1049 C1054 1.261 . S
C1050 H1017 0.930 . S
C1050 N1052 1.325 . S
C1050 C1053 1.357 . S
C1051 H1019 0.928 . S
C1051 C1049 1.406 . S
C1051 N1052 1.261 . S
N1052 Co1003 2.214 . S
N1052 C1050 1.325 . S
N1052 C1051 1.261 . S
C1053 H1023 0.931 . S
C1053 C1050 1.357 . S
C1053 C1054 1.312 . S
C1054 H1025 0.930 . S
C1054 C1049 1.261 . S
C1054 C1053 1.312 . S
C1055 O1027 1.214 . S
C1055 O1035 1.234 . S
C1056 H1028 0.929 . S
C1056 C1059 1.391 . S
C1056 C1061 1.391 . S
C1057 H1029 0.929 . S
C1057 C1058 1.390 . S
C1057 N1060 1.391 . S
C1058 H1030 0.930 . S
C1058 C1057 1.390 . S
C1058 C1059 1.392 . S
C1059 H1031 0.929 . S
C1059 C1056 1.391 . S
C1059 C1058 1.392 . S
N1060 Co1004 2.257 . S
N1060 C1057 1.391 . S
N1060 C1061 1.388 . S
C1061 H1032 0.930 . S
C1061 C1056 1.391 . S
C1061 N1060 1.388 . S
Co1062 O1064 2.143 . S
Co1062 O1070 2.074 . S
Co1062 O1073 2.093 . S
Co1062 O1086 2.097 . S
Co1062 N1103 2.151 . S
Co1062 N1111 2.214 . S
Co1063 O1064 2.160 . S
Co1063 O1069 2.058 . S
Co1063 O1079 2.057 . S
Co1063 O1094 2.037 . S
Co1063 N1098 2.145 . S
Co1063 N1119 2.257 . S
O1064 Co1062 2.143 . S
O1064 Co1063 2.160 . S
C1065 O1066 1.278 . S
C1065 O1073 1.224 . S
O1066 C1065 1.278 . S
C1067 O1068 1.245 . S
C1067 O1079 1.232 . S
O1068 C1067 1.245 . S
O1069 Co1063 2.058 . S
O1069 C1095 1.269 . S
O1070 Co1062 2.074 . S
O1070 C1095 1.257 . S
H1071 C1096 0.930 . S
H1072 C1102 0.930 . S
O1073 Co1062 2.093 . S
O1073 C1065 1.224 . S
H1074 C1106 0.929 . S
H1075 C1108 0.930 . S
H1076 C1109 0.930 . S
H1077 C1107 0.929 . S
H1078 C1110 0.928 . S
O1079 Co1063 2.057 . S
O1079 C1067 1.232 . S
H1080 C1099 0.929 . S
H1081 C1100 0.929 . S
H1082 C1112 0.931 . S
H1083 C1104 0.929 . S
H1084 C1113 0.930 . S
H1085 C1105 0.931 . S
O1086 Co1062 2.097 . S
O1086 C1114 1.214 . S
H1087 C1115 0.929 . S
H1088 C1116 0.929 . S
H1089 C1117 0.930 . S
H1090 C1118 0.929 . S
H1091 C1120 0.930 . S
H1092 C1097 0.930 . S
H1093 C1101 0.930 . S
O1094 Co1063 2.037 . S
O1094 C1114 1.234 . S
C1095 O1069 1.269 . S
C1095 O1070 1.257 . S
C1096 H1071 0.930 . S
C1096 C1099 1.388 . S
C1096 C1101 1.418 . S
C1097 H1092 0.930 . S
C1097 C1100 1.404 . S
C1097 C1101 1.353 . S
N1098 Co1063 2.145 . S
N1098 C1099 1.397 . S
N1098 C1100 1.334 . S
C1099 H1080 0.929 . S
C1099 C1096 1.388 . S
C1099 N1098 1.397 . S
C1100 H1081 0.929 . S
C1100 C1097 1.404 . S
C1100 N1098 1.334 . S
C1101 H1093 0.930 . S
C1101 C1096 1.418 . S
C1101 C1097 1.353 . S
C1102 H1072 0.930 . S
C1102 N1103 1.330 . S
C1102 C1104 1.446 . S
N1103 Co1062 2.151 . S
N1103 C1102 1.330 . S
N1103 C1107 1.418 . S
C1104 H1083 0.929 . S
C1104 C1102 1.446 . S
C1104 C1105 1.332 . S
C1105 H1085 0.931 . S
C1105 C1104 1.332 . S
C1105 C1106 1.267 . S
C1106 H1074 0.929 . S
C1106 C1105 1.267 . S
C1106 C1107 1.251 . S
C1107 H1077 0.929 . S
C1107 N1103 1.418 . S
C1107 C1106 1.251 . S
C1108 H1075 0.930 . S
C1108 C1110 1.406 1_554 S
C1108 C1113 1.261 . S
C1109 H1076 0.930 . S
C1109 N1111 1.325 . S
C1109 C1112 1.357 1_556 S
C1110 H1078 0.928 . S
C1110 C1108 1.406 1_556 S
C1110 N1111 1.261 . S
N1111 Co1062 2.214 . S
N1111 C1109 1.325 . S
N1111 C1110 1.261 . S
C1112 H1082 0.931 . S
C1112 C1109 1.357 1_554 S
C1112 C1113 1.312 . S
C1113 H1084 0.930 . S
C1113 C1108 1.261 . S
C1113 C1112 1.312 . S
C1114 O1086 1.214 . S
C1114 O1094 1.234 . S
C1115 H1087 0.929 . S
C1115 C1118 1.391 . S
C1115 C1120 1.391 . S
C1116 H1088 0.929 . S
C1116 C1117 1.390 . S
C1116 N1119 1.391 . S
C1117 H1089 0.930 . S
C1117 C1116 1.390 . S
C1117 C1118 1.392 . S
C1118 H1090 0.929 . S
C1118 C1115 1.391 . S
C1118 C1117 1.392 . S
N1119 Co1063 2.257 . S
N1119 C1116 1.391 . S
N1119 C1120 1.388 . S
C1120 H1091 0.930 . S
C1120 C1115 1.391 . S
C1120 N1119 1.388 . S
Co1121 O1123 2.143 . S
Co1121 O1129 2.074 . S
Co1121 O1132 2.093 . S
Co1121 O1145 2.097 1_545 S
Co1121 N1162 2.151 . S
Co1121 N1170 2.214 . S
Co1122 O1123 2.160 1_565 S
Co1122 O1128 2.058 1_565 S
Co1122 O1138 2.057 . S
Co1122 O1153 2.037 . S
Co1122 N1157 2.145 . S
Co1122 N1178 2.257 . S
O1123 Co1121 2.143 . S
O1123 Co1122 2.160 1_545 S
C1124 O1125 1.278 . S
C1124 O1132 1.224 1_565 S
O1125 C1124 1.278 . S
C1126 O1127 1.245 1_565 S
C1126 O1138 1.232 . S
O1127 C1126 1.245 1_545 S
O1128 Co1122 2.058 1_545 S
O1128 C1154 1.269 . S
O1129 Co1121 2.074 . S
O1129 C1154 1.257 . S
H1130 C1155 0.930 . S
H1131 C1161 0.930 . S
O1132 Co1121 2.093 . S
O1132 C1124 1.224 1_545 S
H1133 C1165 0.929 . S
H1134 C1167 0.930 . S
H1135 C1168 0.930 . S
H1136 C1166 0.929 . S
H1137 C1169 0.928 . S
O1138 Co1122 2.057 . S
O1138 C1126 1.232 . S
H1139 C1158 0.929 . S
H1140 C1159 0.929 . S
H1141 C1171 0.931 . S
H1142 C1163 0.929 . S
H1143 C1172 0.930 . S
H1144 C1164 0.931 . S
O1145 Co1121 2.097 1_565 S
O1145 C1173 1.214 . S
H1146 C1174 0.929 . S
H1147 C1175 0.929 . S
H1148 C1176 0.930 . S
H1149 C1177 0.929 . S
H1150 C1179 0.930 . S
H1151 C1156 0.930 . S
H1152 C1160 0.930 . S
O1153 Co1122 2.037 . S
O1153 C1173 1.234 . S
C1154 O1128 1.269 . S
C1154 O1129 1.257 . S
C1155 H1130 0.930 . S
C1155 C1158 1.388 . S
C1155 C1160 1.418 . S
C1156 H1151 0.930 . S
C1156 C1159 1.404 . S
C1156 C1160 1.353 . S
N1157 Co1122 2.145 . S
N1157 C1158 1.397 . S
N1157 C1159 1.334 . S
C1158 H1139 0.929 . S
C1158 C1155 1.388 . S
C1158 N1157 1.397 . S
C1159 H1140 0.929 . S
C1159 C1156 1.404 . S
C1159 N1157 1.334 . S
C1160 H1152 0.930 . S
C1160 C1155 1.418 . S
C1160 C1156 1.353 . S
C1161 H1131 0.930 . S
C1161 N1162 1.330 . S
C1161 C1163 1.446 . S
N1162 Co1121 2.151 . S
N1162 C1161 1.330 . S
N1162 C1166 1.418 . S
C1163 H1142 0.929 . S
C1163 C1161 1.446 . S
C1163 C1164 1.332 . S
C1164 H1144 0.931 . S
C1164 C1163 1.332 . S
C1164 C1165 1.267 . S
C1165 H1133 0.929 . S
C1165 C1164 1.267 . S
C1165 C1166 1.251 . S
C1166 H1136 0.929 . S
C1166 N1162 1.418 . S
C1166 C1165 1.251 . S
C1167 H1134 0.930 . S
C1167 C1169 1.406 1_554 S
C1167 C1172 1.261 . S
C1168 H1135 0.930 . S
C1168 N1170 1.325 . S
C1168 C1171 1.357 1_556 S
C1169 H1137 0.928 . S
C1169 C1167 1.406 1_556 S
C1169 N1170 1.261 . S
N1170 Co1121 2.214 . S
N1170 C1168 1.325 . S
N1170 C1169 1.261 . S
C1171 H1141 0.931 . S
C1171 C1168 1.357 1_554 S
C1171 C1172 1.312 . S
C1172 H1143 0.930 . S
C1172 C1167 1.261 . S
C1172 C1171 1.312 . S
C1173 O1145 1.214 . S
C1173 O1153 1.234 . S
C1174 H1146 0.929 . S
C1174 C1177 1.391 . S
C1174 C1179 1.391 . S
C1175 H1147 0.929 . S
C1175 C1176 1.390 . S
C1175 N1178 1.391 . S
C1176 H1148 0.930 . S
C1176 C1175 1.390 . S
C1176 C1177 1.392 . S
C1177 H1149 0.929 . S
C1177 C1174 1.391 . S
C1177 C1176 1.392 . S
N1178 Co1122 2.257 . S
N1178 C1175 1.391 . S
N1178 C1179 1.388 . S
C1179 H1150 0.930 . S
C1179 C1174 1.391 . S
C1179 N1178 1.388 . S
Co1180 O1182 2.143 . S
Co1180 O1188 2.074 . S
Co1180 O1191 2.093 . S
Co1180 O1204 2.097 . S
Co1180 N1221 2.151 . S
Co1180 N1229 2.214 . S
Co1181 O1182 2.160 . S
Co1181 O1187 2.058 . S
Co1181 O1197 2.057 . S
Co1181 O1212 2.037 . S
Co1181 N1216 2.145 . S
Co1181 N1237 2.257 . S
O1182 Co1180 2.143 . S
O1182 Co1181 2.160 . S
C1183 O1184 1.278 . S
C1183 O1191 1.224 . S
O1184 C1183 1.278 . S
C1185 O1186 1.245 . S
C1185 O1197 1.232 . S
O1186 C1185 1.245 . S
O1187 Co1181 2.058 . S
O1187 C1213 1.269 . S
O1188 Co1180 2.074 . S
O1188 C1213 1.257 . S
H1189 C1214 0.930 . S
H1190 C1220 0.930 . S
O1191 Co1180 2.093 . S
O1191 C1183 1.224 . S
H1192 C1224 0.929 . S
H1193 C1226 0.930 . S
H1194 C1227 0.930 . S
H1195 C1225 0.929 . S
H1196 C1228 0.928 . S
O1197 Co1181 2.057 . S
O1197 C1185 1.232 . S
H1198 C1217 0.929 . S
H1199 C1218 0.929 . S
H1200 C1230 0.931 . S
H1201 C1222 0.929 . S
H1202 C1231 0.930 . S
H1203 C1223 0.931 . S
O1204 Co1180 2.097 . S
O1204 C1232 1.214 . S
H1205 C1233 0.929 . S
H1206 C1234 0.929 . S
H1207 C1235 0.930 . S
H1208 C1236 0.929 . S
H1209 C1238 0.930 . S
H1210 C1215 0.930 . S
H1211 C1219 0.930 . S
O1212 Co1181 2.037 . S
O1212 C1232 1.234 . S
C1213 O1187 1.269 . S
C1213 O1188 1.257 . S
C1214 H1189 0.930 . S
C1214 C1217 1.388 . S
C1214 C1219 1.418 . S
C1215 H1210 0.930 . S
C1215 C1218 1.404 . S
C1215 C1219 1.353 . S
N1216 Co1181 2.145 . S
N1216 C1217 1.397 . S
N1216 C1218 1.334 . S
C1217 H1198 0.929 . S
C1217 C1214 1.388 . S
C1217 N1216 1.397 . S
C1218 H1199 0.929 . S
C1218 C1215 1.404 . S
C1218 N1216 1.334 . S
C1219 H1211 0.930 . S
C1219 C1214 1.418 . S
C1219 C1215 1.353 . S
C1220 H1190 0.930 . S
C1220 N1221 1.330 . S
C1220 C1222 1.446 . S
N1221 Co1180 2.151 . S
N1221 C1220 1.330 . S
N1221 C1225 1.418 . S
C1222 H1201 0.929 . S
C1222 C1220 1.446 . S
C1222 C1223 1.332 . S
C1223 H1203 0.931 . S
C1223 C1222 1.332 . S
C1223 C1224 1.267 . S
C1224 H1192 0.929 . S
C1224 C1223 1.267 . S
C1224 C1225 1.251 . S
C1225 H1195 0.929 . S
C1225 N1221 1.418 . S
C1225 C1224 1.251 . S
C1226 H1193 0.930 . S
C1226 C1228 1.406 . S
C1226 C1231 1.261 . S
C1227 H1194 0.930 . S
C1227 N1229 1.325 . S
C1227 C1230 1.357 . S
C1228 H1196 0.928 . S
C1228 C1226 1.406 . S
C1228 N1229 1.261 . S
N1229 Co1180 2.214 . S
N1229 C1227 1.325 . S
N1229 C1228 1.261 . S
C1230 H1200 0.931 . S
C1230 C1227 1.357 . S
C1230 C1231 1.312 . S
C1231 H1202 0.930 . S
C1231 C1226 1.261 . S
C1231 C1230 1.312 . S
C1232 O1204 1.214 . S
C1232 O1212 1.234 . S
C1233 H1205 0.929 . S
C1233 C1236 1.391 . S
C1233 C1238 1.391 . S
C1234 H1206 0.929 . S
C1234 C1235 1.390 . S
C1234 N1237 1.391 . S
C1235 H1207 0.930 . S
C1235 C1234 1.390 . S
C1235 C1236 1.392 . S
C1236 H1208 0.929 . S
C1236 C1233 1.391 . S
C1236 C1235 1.392 . S
N1237 Co1181 2.257 . S
N1237 C1234 1.391 . S
N1237 C1238 1.388 . S
C1238 H1209 0.930 . S
C1238 C1233 1.391 . S
C1238 N1237 1.388 . S
Co1239 O1241 2.143 . S
Co1239 O1247 2.074 . S
Co1239 O1250 2.093 . S
Co1239 O1263 2.097 1_556 S
Co1239 N1280 2.151 . S
Co1239 N1288 2.214 . S
Co1240 O1241 2.160 1_554 S
Co1240 O1246 2.058 1_554 S
Co1240 O1256 2.057 . S
Co1240 O1271 2.037 . S
Co1240 N1275 2.145 . S
Co1240 N1296 2.257 . S
O1241 Co1239 2.143 . S
O1241 Co1240 2.160 1_556 S
C1242 O1243 1.278 . S
C1242 O1250 1.224 1_554 S
O1243 C1242 1.278 . S
C1244 O1245 1.245 1_554 S
C1244 O1256 1.232 . S
O1245 C1244 1.245 1_556 S
O1246 Co1240 2.058 1_556 S
O1246 C1272 1.269 . S
O1247 Co1239 2.074 . S
O1247 C1272 1.257 . S
H1248 C1273 0.930 . S
H1249 C1279 0.930 . S
O1250 Co1239 2.093 . S
O1250 C1242 1.224 1_556 S
H1251 C1283 0.929 . S
H1252 C1285 0.930 . S
H1253 C1286 0.930 . S
H1254 C1284 0.929 . S
H1255 C1287 0.928 . S
O1256 Co1240 2.057 . S
O1256 C1244 1.232 . S
H1257 C1276 0.929 . S
H1258 C1277 0.929 . S
H1259 C1289 0.931 . S
H1260 C1281 0.929 . S
H1261 C1290 0.930 . S
H1262 C1282 0.931 . S
O1263 Co1239 2.097 1_554 S
O1263 C1291 1.214 . S
H1264 C1292 0.929 . S
H1265 C1293 0.929 . S
H1266 C1294 0.930 . S
H1267 C1295 0.929 . S
H1268 C1297 0.930 . S
H1269 C1274 0.930 . S
H1270 C1278 0.930 . S
O1271 Co1240 2.037 . S
O1271 C1291 1.234 . S
C1272 O1246 1.269 . S
C1272 O1247 1.257 . S
C1273 H1248 0.930 . S
C1273 C1276 1.388 . S
C1273 C1278 1.418 . S
C1274 H1269 0.930 . S
C1274 C1277 1.404 . S
C1274 C1278 1.353 . S
N1275 Co1240 2.145 . S
N1275 C1276 1.397 . S
N1275 C1277 1.334 . S
C1276 H1257 0.929 . S
C1276 C1273 1.388 . S
C1276 N1275 1.397 . S
C1277 H1258 0.929 . S
C1277 C1274 1.404 . S
C1277 N1275 1.334 . S
C1278 H1270 0.930 . S
C1278 C1273 1.418 . S
C1278 C1274 1.353 . S
C1279 H1249 0.930 . S
C1279 N1280 1.330 . S
C1279 C1281 1.446 . S
N1280 Co1239 2.151 . S
N1280 C1279 1.330 . S
N1280 C1284 1.418 . S
C1281 H1260 0.929 . S
C1281 C1279 1.446 . S
C1281 C1282 1.332 . S
C1282 H1262 0.931 . S
C1282 C1281 1.332 . S
C1282 C1283 1.267 . S
C1283 H1251 0.929 . S
C1283 C1282 1.267 . S
C1283 C1284 1.251 . S
C1284 H1254 0.929 . S
C1284 N1280 1.418 . S
C1284 C1283 1.251 . S
C1285 H1252 0.930 . S
C1285 C1287 1.406 . S
C1285 C1290 1.261 . S
C1286 H1253 0.930 . S
C1286 N1288 1.325 . S
C1286 C1289 1.357 . S
C1287 H1255 0.928 . S
C1287 C1285 1.406 . S
C1287 N1288 1.261 . S
N1288 Co1239 2.214 . S
N1288 C1286 1.325 . S
N1288 C1287 1.261 . S
C1289 H1259 0.931 . S
C1289 C1286 1.357 . S
C1289 C1290 1.312 . S
C1290 H1261 0.930 . S
C1290 C1285 1.261 . S
C1290 C1289 1.312 . S
C1291 O1263 1.214 . S
C1291 O1271 1.234 . S
C1292 H1264 0.929 . S
C1292 C1295 1.391 . S
C1292 C1297 1.391 . S
C1293 H1265 0.929 . S
C1293 C1294 1.390 . S
C1293 N1296 1.391 . S
C1294 H1266 0.930 . S
C1294 C1293 1.390 . S
C1294 C1295 1.392 . S
C1295 H1267 0.929 . S
C1295 C1292 1.391 . S
C1295 C1294 1.392 . S
N1296 Co1240 2.257 . S
N1296 C1293 1.391 . S
N1296 C1297 1.388 . S
C1297 H1268 0.930 . S
C1297 C1292 1.391 . S
C1297 N1296 1.388 . S
Co1298 O1300 2.162 . S
Co1298 O1306 2.074 . S
Co1298 O1309 2.093 . S
Co1298 O1322 2.097 1_556 S
Co1298 N1339 2.151 . S
Co1298 N1347 2.214 . S
Co1299 O1300 2.141 1_554 S
Co1299 O1305 2.058 1_554 S
Co1299 O1315 2.057 . S
Co1299 O1330 2.037 . S
Co1299 N1334 2.145 . S
Co1299 N1355 2.257 . S
O1300 Co1298 2.162 . S
O1300 Co1299 2.141 1_556 S
C1301 O1302 1.278 . S
C1301 O1309 1.224 1_554 S
O1302 C1301 1.278 . S
C1303 O1304 1.245 1_554 S
C1303 O1315 1.232 . S
O1304 C1303 1.245 1_556 S
O1305 Co1299 2.058 1_556 S
O1305 C1331 1.269 . S
O1306 Co1298 2.074 . S
O1306 C1331 1.257 . S
H1307 C1332 0.930 . S
H1308 C1338 0.930 . S
O1309 Co1298 2.093 . S
O1309 C1301 1.224 1_556 S
H1310 C1342 0.929 . S
H1311 C1344 0.930 . S
H1312 C1345 0.930 . S
H1313 C1343 0.929 . S
H1314 C1346 0.928 . S
O1315 Co1299 2.057 . S
O1315 C1303 1.232 . S
H1316 C1335 0.929 . S
H1317 C1336 0.929 . S
H1318 C1348 0.931 . S
H1319 C1340 0.929 . S
H1320 C1349 0.930 . S
H1321 C1341 0.931 . S
O1322 Co1298 2.097 1_554 S
O1322 C1350 1.214 . S
H1323 C1351 0.929 . S
H1324 C1352 0.929 . S
H1325 C1353 0.930 . S
H1326 C1354 0.929 . S
H1327 C1356 0.930 . S
H1328 C1333 0.930 . S
H1329 C1337 0.930 . S
O1330 Co1299 2.037 . S
O1330 C1350 1.234 . S
C1331 O1305 1.269 . S
C1331 O1306 1.257 . S
C1332 H1307 0.930 . S
C1332 C1335 1.388 . S
C1332 C1337 1.418 . S
C1333 H1328 0.930 . S
C1333 C1336 1.404 . S
C1333 C1337 1.353 . S
N1334 Co1299 2.145 . S
N1334 C1335 1.397 . S
N1334 C1336 1.334 . S
C1335 H1316 0.929 . S
C1335 C1332 1.388 . S
C1335 N1334 1.397 . S
C1336 H1317 0.929 . S
C1336 C1333 1.404 . S
C1336 N1334 1.334 . S
C1337 H1329 0.930 . S
C1337 C1332 1.418 . S
C1337 C1333 1.353 . S
C1338 H1308 0.930 . S
C1338 N1339 1.330 . S
C1338 C1340 1.446 . S
N1339 Co1298 2.151 . S
N1339 C1338 1.330 . S
N1339 C1343 1.418 . S
C1340 H1319 0.929 . S
C1340 C1338 1.446 . S
C1340 C1341 1.332 . S
C1341 H1321 0.931 . S
C1341 C1340 1.332 . S
C1341 C1342 1.267 . S
C1342 H1310 0.929 . S
C1342 C1341 1.267 . S
C1342 C1343 1.251 . S
C1343 H1313 0.929 . S
C1343 N1339 1.418 . S
C1343 C1342 1.251 . S
C1344 H1311 0.930 . S
C1344 C1346 1.406 . S
C1344 C1349 1.261 . S
C1345 H1312 0.930 . S
C1345 N1347 1.325 . S
C1345 C1348 1.357 . S
C1346 H1314 0.928 . S
C1346 C1344 1.406 . S
C1346 N1347 1.261 . S
N1347 Co1298 2.214 . S
N1347 C1345 1.325 . S
N1347 C1346 1.261 . S
C1348 H1318 0.931 . S
C1348 C1345 1.357 . S
C1348 C1349 1.312 . S
C1349 H1320 0.930 . S
C1349 C1344 1.261 . S
C1349 C1348 1.312 . S
C1350 O1322 1.214 . S
C1350 O1330 1.234 . S
C1351 H1323 0.929 . S
C1351 C1354 1.391 . S
C1351 C1356 1.391 . S
C1352 H1324 0.929 . S
C1352 C1353 1.390 . S
C1352 N1355 1.391 . S
C1353 H1325 0.930 . S
C1353 C1352 1.390 . S
C1353 C1354 1.392 . S
C1354 H1326 0.929 . S
C1354 C1351 1.391 . S
C1354 C1353 1.392 . S
N1355 Co1299 2.257 . S
N1355 C1352 1.391 . S
N1355 C1356 1.388 . S
C1356 H1327 0.930 . S
C1356 C1351 1.391 . S
C1356 N1355 1.388 . S
Co1357 O1359 2.143 . S
Co1357 O1365 2.074 . S
Co1357 O1368 2.093 . S
Co1357 O1381 2.097 1_554 S
Co1357 N1398 2.151 . S
Co1357 N1406 2.214 . S
Co1358 O1359 2.160 1_556 S
Co1358 O1364 2.058 1_556 S
Co1358 O1374 2.057 . S
Co1358 O1389 2.037 . S
Co1358 N1393 2.145 . S
Co1358 N1414 2.257 . S
O1359 Co1357 2.143 . S
O1359 Co1358 2.160 1_554 S
C1360 O1361 1.278 . S
C1360 O1368 1.224 1_556 S
O1361 C1360 1.278 . S
C1362 O1363 1.245 1_556 S
C1362 O1374 1.232 . S
O1363 C1362 1.245 1_554 S
O1364 Co1358 2.058 1_554 S
O1364 C1390 1.269 . S
O1365 Co1357 2.074 . S
O1365 C1390 1.257 . S
H1366 C1391 0.930 . S
H1367 C1397 0.930 . S
O1368 Co1357 2.093 . S
O1368 C1360 1.224 1_554 S
H1369 C1401 0.929 . S
H1370 C1403 0.930 . S
H1371 C1404 0.930 . S
H1372 C1402 0.929 . S
H1373 C1405 0.928 . S
O1374 Co1358 2.057 . S
O1374 C1362 1.232 . S
H1375 C1394 0.929 . S
H1376 C1395 0.929 . S
H1377 C1407 0.931 . S
H1378 C1399 0.929 . S
H1379 C1408 0.930 . S
H1380 C1400 0.931 . S
O1381 Co1357 2.097 1_556 S
O1381 C1409 1.214 . S
H1382 C1410 0.929 . S
H1383 C1411 0.929 . S
H1384 C1412 0.930 . S
H1385 C1413 0.929 . S
H1386 C1415 0.930 . S
H1387 C1392 0.930 . S
H1388 C1396 0.930 . S
O1389 Co1358 2.037 . S
O1389 C1409 1.234 . S
C1390 O1364 1.269 . S
C1390 O1365 1.257 . S
C1391 H1366 0.930 . S
C1391 C1394 1.388 . S
C1391 C1396 1.418 . S
C1392 H1387 0.930 . S
C1392 C1395 1.404 . S
C1392 C1396 1.353 . S
N1393 Co1358 2.145 . S
N1393 C1394 1.397 . S
N1393 C1395 1.334 . S
C1394 H1375 0.929 . S
C1394 C1391 1.388 . S
C1394 N1393 1.397 . S
C1395 H1376 0.929 . S
C1395 C1392 1.404 . S
C1395 N1393 1.334 . S
C1396 H1388 0.930 . S
C1396 C1391 1.418 . S
C1396 C1392 1.353 . S
C1397 H1367 0.930 . S
C1397 N1398 1.330 . S
C1397 C1399 1.446 . S
N1398 Co1357 2.151 . S
N1398 C1397 1.330 . S
N1398 C1402 1.418 . S
C1399 H1378 0.929 . S
C1399 C1397 1.446 . S
C1399 C1400 1.332 . S
C1400 H1380 0.931 . S
C1400 C1399 1.332 . S
C1400 C1401 1.267 . S
C1401 H1369 0.929 . S
C1401 C1400 1.267 . S
C1401 C1402 1.251 . S
C1402 H1372 0.929 . S
C1402 N1398 1.418 . S
C1402 C1401 1.251 . S
C1403 H1370 0.930 . S
C1403 C1405 1.406 1_455 S
C1403 C1408 1.261 . S
C1404 H1371 0.930 . S
C1404 N1406 1.325 . S
C1404 C1407 1.357 1_655 S
C1405 H1373 0.928 . S
C1405 C1403 1.406 1_655 S
C1405 N1406 1.261 . S
N1406 Co1357 2.214 . S
N1406 C1404 1.325 . S
N1406 C1405 1.261 . S
C1407 H1377 0.931 . S
C1407 C1404 1.357 1_455 S
C1407 C1408 1.312 . S
C1408 H1379 0.930 . S
C1408 C1403 1.261 . S
C1408 C1407 1.312 . S
C1409 O1381 1.214 . S
C1409 O1389 1.234 . S
C1410 H1382 0.929 . S
C1410 C1413 1.391 . S
C1410 C1415 1.391 . S
C1411 H1383 0.929 . S
C1411 C1412 1.390 . S
C1411 N1414 1.391 . S
C1412 H1384 0.930 . S
C1412 C1411 1.390 . S
C1412 C1413 1.392 . S
C1413 H1385 0.929 . S
C1413 C1410 1.391 . S
C1413 C1412 1.392 . S
N1414 Co1358 2.257 . S
N1414 C1411 1.391 . S
N1414 C1415 1.388 . S
C1415 H1386 0.930 . S
C1415 C1410 1.391 . S
C1415 N1414 1.388 . S
H1416 C1428 0.930 . S
H1417 C1430 0.930 . S
H1418 C1431 0.930 . S
H1419 C1435 0.959 . S
H1420 C1435 0.959 . S
H1421 C1435 0.961 . S
H1422 C1436 0.960 . S
H1423 C1436 0.961 . S
H1424 C1436 0.959 . S
H1425 C1439 0.929 . S
H1426 C1440 0.931 . S
H1427 C1442 0.930 . S
C1428 H1416 0.930 . S
C1428 C1429 1.399 . S
C1428 C1433 1.399 . S
C1429 C1428 1.399 . S
C1429 C1430 1.376 . S
C1430 H1417 0.930 . S
C1430 C1429 1.376 . S
C1430 C1431 1.388 . S
C1431 H1418 0.930 . S
C1431 C1430 1.388 . S
C1431 C1432 1.390 . S
C1432 C1431 1.390 . S
C1432 C1433 1.394 . S
C1432 C1438 1.465 . S
C1433 C1428 1.399 . S
C1433 C1432 1.394 . S
C1433 C1434 1.516 . S
C1434 C1433 1.516 . S
C1434 C1435 1.502 . S
C1434 C1436 1.561 . S
C1434 C1437 1.526 . S
C1435 H1419 0.959 . S
C1435 H1420 0.959 . S
C1435 H1421 0.961 . S
C1435 C1434 1.502 . S
C1436 H1422 0.960 . S
C1436 H1423 0.961 . S
C1436 H1424 0.959 . S
C1436 C1434 1.561 . S
C1437 C1434 1.526 . S
C1437 C1438 1.396 . S
C1437 C1442 1.390 . S
C1438 C1432 1.465 . S
C1438 C1437 1.396 . S
C1438 C1439 1.399 . S
C1439 H1425 0.929 . S
C1439 C1438 1.399 . S
C1439 C1440 1.385 . S
C1440 H1426 0.931 . S
C1440 C1439 1.385 . S
C1440 C1441 1.389 . S
C1441 C1440 1.389 . S
C1441 C1442 1.387 . S
C1442 H1427 0.930 . S
C1442 C1437 1.390 . S
C1442 C1441 1.387 . S
H1443 C1455 0.930 . S
H1444 C1457 0.930 . S
H1445 C1458 0.930 . S
H1446 C1462 0.959 . S
H1447 C1462 0.959 . S
H1448 C1462 0.961 . S
H1449 C1463 0.960 . S
H1450 C1463 0.961 . S
H1451 C1463 0.959 . S
H1452 C1466 0.929 . S
H1453 C1467 0.931 . S
H1454 C1469 0.930 . S
C1455 H1443 0.930 . S
C1455 C1456 1.399 . S
C1455 C1460 1.399 . S
C1456 C1455 1.399 . S
C1456 C1457 1.376 . S
C1457 H1444 0.930 . S
C1457 C1456 1.376 . S
C1457 C1458 1.388 . S
C1458 H1445 0.930 . S
C1458 C1457 1.388 . S
C1458 C1459 1.390 . S
C1459 C1458 1.390 . S
C1459 C1460 1.394 . S
C1459 C1465 1.465 . S
C1460 C1455 1.399 . S
C1460 C1459 1.394 . S
C1460 C1461 1.516 . S
C1461 C1460 1.516 . S
C1461 C1462 1.502 . S
C1461 C1463 1.561 . S
C1461 C1464 1.526 . S
C1462 H1446 0.959 . S
C1462 H1447 0.959 . S
C1462 H1448 0.961 . S
C1462 C1461 1.502 . S
C1463 H1449 0.960 . S
C1463 H1450 0.961 . S
C1463 H1451 0.959 . S
C1463 C1461 1.561 . S
C1464 C1461 1.526 . S
C1464 C1465 1.396 . S
C1464 C1469 1.390 . S
C1465 C1459 1.465 . S
C1465 C1464 1.396 . S
C1465 C1466 1.399 . S
C1466 H1452 0.929 . S
C1466 C1465 1.399 . S
C1466 C1467 1.385 . S
C1467 H1453 0.931 . S
C1467 C1466 1.385 . S
C1467 C1468 1.389 . S
C1468 C1467 1.389 . S
C1468 C1469 1.387 . S
C1469 H1454 0.930 . S
C1469 C1464 1.390 . S
C1469 C1468 1.387 . S
H1470 C1482 0.930 . S
H1471 C1484 0.930 . S
H1472 C1485 0.930 . S
H1473 C1489 0.959 . S
H1474 C1489 0.959 1_545 S
H1475 C1489 0.961 . S
H1476 C1490 0.960 . S
H1477 C1490 0.961 1_545 S
H1478 C1490 0.959 . S
H1479 C1493 0.929 . S
H1480 C1494 0.931 . S
H1481 C1496 0.930 . S
C1482 H1470 0.930 . S
C1482 C1483 1.399 . S
C1482 C1487 1.399 . S
C1483 C1482 1.399 . S
C1483 C1484 1.376 . S
C1484 H1471 0.930 . S
C1484 C1483 1.376 . S
C1484 C1485 1.388 . S
C1485 H1472 0.930 . S
C1485 C1484 1.388 . S
C1485 C1486 1.390 . S
C1486 C1485 1.390 . S
C1486 C1487 1.394 . S
C1486 C1492 1.465 . S
C1487 C1482 1.399 . S
C1487 C1486 1.394 . S
C1487 C1488 1.516 . S
C1488 C1487 1.516 . S
C1488 C1489 1.502 . S
C1488 C1490 1.561 . S
C1488 C1491 1.526 . S
C1489 H1473 0.959 . S
C1489 H1474 0.959 1_565 S
C1489 H1475 0.961 . S
C1489 C1488 1.502 . S
C1490 H1476 0.960 . S
C1490 H1477 0.961 1_565 S
C1490 H1478 0.959 . S
C1490 C1488 1.561 . S
C1491 C1488 1.526 . S
C1491 C1492 1.396 . S
C1491 C1496 1.390 1_554 S
C1492 C1486 1.465 . S
C1492 C1491 1.396 . S
C1492 C1493 1.399 1_554 S
C1493 H1479 0.929 . S
C1493 C1492 1.399 1_556 S
C1493 C1494 1.385 . S
C1494 H1480 0.931 . S
C1494 C1493 1.385 . S
C1494 C1495 1.389 . S
C1495 C1494 1.389 . S
C1495 C1496 1.387 . S
C1496 H1481 0.930 . S
C1496 C1491 1.390 1_556 S
C1496 C1495 1.387 . S
H1497 C1509 0.930 . S
H1498 C1511 0.930 . S
H1499 C1512 0.930 . S
H1500 C1516 0.959 . S
H1501 C1516 0.959 . S
H1502 C1516 0.961 . S
H1503 C1517 0.960 . S
H1504 C1517 0.982 . S
H1505 C1517 0.959 . S
H1506 C1520 0.929 . S
H1507 C1521 0.931 . S
H1508 C1523 0.930 . S
C1509 H1497 0.930 . S
C1509 C1510 1.399 . S
C1509 C1514 1.399 . S
C1510 C1509 1.399 . S
C1510 C1511 1.376 . S
C1511 H1498 0.930 . S
C1511 C1510 1.376 . S
C1511 C1512 1.388 . S
C1512 H1499 0.930 . S
C1512 C1511 1.388 . S
C1512 C1513 1.390 . S
C1513 C1512 1.390 . S
C1513 C1514 1.394 . S
C1513 C1519 1.465 . S
C1514 C1509 1.399 . S
C1514 C1513 1.394 . S
C1514 C1515 1.516 . S
C1515 C1514 1.516 . S
C1515 C1516 1.502 . S
C1515 C1517 1.561 . S
C1515 C1518 1.526 . S
C1516 H1500 0.959 . S
C1516 H1501 0.959 . S
C1516 H1502 0.961 . S
C1516 C1515 1.502 . S
C1517 H1503 0.960 . S
C1517 H1504 0.982 . S
C1517 H1505 0.959 . S
C1517 C1515 1.561 . S
C1518 C1515 1.526 . S
C1518 C1519 1.396 . S
C1518 C1523 1.390 1_554 S
C1519 C1513 1.465 . S
C1519 C1518 1.396 . S
C1519 C1520 1.399 1_554 S
C1520 H1506 0.929 . S
C1520 C1519 1.399 1_556 S
C1520 C1521 1.385 . S
C1521 H1507 0.931 . S
C1521 C1520 1.385 . S
C1521 C1522 1.389 . S
C1522 C1521 1.389 . S
C1522 C1523 1.387 . S
C1523 H1508 0.930 . S
C1523 C1518 1.390 1_556 S
C1523 C1522 1.387 . S
H1524 C1536 0.930 . S
H1525 C1538 0.930 . S
H1526 C1539 0.930 . S
H1527 C1543 0.959 . S
H1528 C1543 0.959 . S
H1529 C1543 0.961 . S
H1530 C1544 0.960 . S
H1531 C1544 0.961 . S
H1532 C1544 0.959 . S
H1533 C1547 0.961 . S
H1534 C1548 0.931 1_556 S
H1535 C1550 0.930 . S
C1536 H1524 0.930 . S
C1536 C1537 1.399 . S
C1536 C1541 1.399 . S
C1537 C1536 1.399 . S
C1537 C1538 1.376 . S
C1538 H1525 0.930 . S
C1538 C1537 1.376 . S
C1538 C1539 1.388 . S
C1539 H1526 0.930 . S
C1539 C1538 1.388 . S
C1539 C1540 1.390 . S
C1540 C1539 1.390 . S
C1540 C1541 1.394 . S
C1540 C1546 1.465 . S
C1541 C1536 1.399 . S
C1541 C1540 1.394 . S
C1541 C1542 1.516 . S
C1542 C1541 1.516 . S
C1542 C1543 1.502 . S
C1542 C1544 1.561 . S
C1542 C1545 1.526 . S
C1543 H1527 0.959 . S
C1543 H1528 0.959 . S
C1543 H1529 0.961 . S
C1543 C1542 1.502 . S
C1544 H1530 0.960 . S
C1544 H1531 0.961 . S
C1544 H1532 0.959 . S
C1544 C1542 1.561 . S
C1545 C1542 1.526 . S
C1545 C1546 1.396 . S
C1545 C1550 1.390 . S
C1546 C1540 1.465 . S
C1546 C1545 1.396 . S
C1546 C1547 1.399 . S
C1547 H1533 0.961 . S
C1547 C1546 1.399 . S
C1547 C1548 1.385 . S
C1548 H1534 0.931 1_554 S
C1548 C1547 1.385 . S
C1548 C1549 1.389 . S
C1549 C1548 1.389 . S
C1549 C1550 1.387 . S
C1550 H1535 0.930 . S
C1550 C1545 1.390 . S
C1550 C1549 1.387 . S
H1551 C1563 0.930 . S
H1552 C1565 0.930 . S
H1553 C1566 0.930 . S
H1554 C1570 0.959 . S
H1555 C1570 0.959 . S
H1556 C1570 0.961 . S
H1557 C1571 0.960 . S
H1558 C1571 0.953 1_556 S
H1559 C1571 0.959 . S
H1560 C1574 0.929 . S
H1561 C1575 0.931 . S
H1562 C1577 0.930 . S
C1563 H1551 0.930 . S
C1563 C1564 1.399 . S
C1563 C1568 1.399 . S
C1564 C1563 1.399 . S
C1564 C1565 1.376 . S
C1565 H1552 0.930 . S
C1565 C1564 1.376 . S
C1565 C1566 1.388 . S
C1566 H1553 0.930 . S
C1566 C1565 1.388 . S
C1566 C1567 1.390 . S
C1567 C1566 1.390 . S
C1567 C1568 1.394 . S
C1567 C1573 1.465 . S
C1568 C1563 1.399 . S
C1568 C1567 1.394 . S
C1568 C1569 1.516 . S
C1569 C1568 1.516 . S
C1569 C1570 1.502 . S
C1569 C1571 1.561 . S
C1569 C1572 1.526 . S
C1570 H1554 0.959 . S
C1570 H1555 0.959 . S
C1570 H1556 0.961 . S
C1570 C1569 1.502 . S
C1571 H1557 0.960 . S
C1571 H1558 0.953 1_554 S
C1571 H1559 0.959 . S
C1571 C1569 1.561 . S
C1572 C1569 1.526 . S
C1572 C1573 1.396 . S
C1572 C1577 1.390 . S
C1573 C1567 1.465 . S
C1573 C1572 1.396 . S
C1573 C1574 1.399 . S
C1574 H1560 0.929 . S
C1574 C1573 1.399 . S
C1574 C1575 1.385 . S
C1575 H1561 0.931 . S
C1575 C1574 1.385 . S
C1575 C1576 1.389 . S
C1576 C1575 1.389 . S
C1576 C1577 1.387 . S
C1577 H1562 0.930 . S
C1577 C1572 1.390 . S
C1577 C1576 1.387 . S
H1578 C1590 0.930 . S
H1579 C1592 0.930 . S
H1580 C1593 0.930 . S
H1581 C1597 0.959 . S
H1582 C1597 0.959 . S
H1583 C1597 0.961 . S
H1584 C1598 0.960 . S
H1585 C1598 0.961 . S
H1586 C1598 0.959 . S
H1587 C1601 0.929 . S
H1588 C1602 0.931 . S
H1589 C1604 0.930 . S
C1590 H1578 0.930 . S
C1590 C1591 1.399 . S
C1590 C1595 1.399 . S
C1591 C1590 1.399 . S
C1591 C1592 1.376 . S
C1592 H1579 0.930 . S
C1592 C1591 1.376 . S
C1592 C1593 1.388 . S
C1593 H1580 0.930 . S
C1593 C1592 1.388 . S
C1593 C1594 1.390 . S
C1594 C1593 1.390 . S
C1594 C1595 1.394 . S
C1594 C1600 1.465 . S
C1595 C1590 1.399 . S
C1595 C1594 1.394 . S
C1595 C1596 1.516 . S
C1596 C1595 1.516 . S
C1596 C1597 1.502 . S
C1596 C1598 1.561 . S
C1596 C1599 1.526 . S
C1597 H1581 0.959 . S
C1597 H1582 0.959 . S
C1597 H1583 0.961 . S
C1597 C1596 1.502 . S
C1598 H1584 0.960 . S
C1598 H1585 0.961 . S
C1598 H1586 0.959 . S
C1598 C1596 1.561 . S
C1599 C1596 1.526 . S
C1599 C1600 1.396 . S
C1599 C1604 1.390 . S
C1600 C1594 1.465 . S
C1600 C1599 1.396 . S
C1600 C1601 1.399 . S
C1601 H1587 0.929 . S
C1601 C1600 1.399 . S
C1601 C1602 1.385 . S
C1602 H1588 0.931 . S
C1602 C1601 1.385 . S
C1602 C1603 1.389 . S
C1603 C1602 1.389 . S
C1603 C1604 1.387 . S
C1604 H1589 0.930 . S
C1604 C1599 1.390 . S
C1604 C1603 1.387 . S
H1605 C1617 0.930 . S
H1606 C1619 0.930 . S
H1607 C1620 0.930 . S
H1608 C1624 0.959 . S
H1609 C1624 0.959 . S
H1610 C1624 0.961 . S
H1611 C1625 0.960 . S
H1612 C1625 0.961 . S
H1613 C1625 0.959 . S
H1614 C1628 0.929 . S
H1615 C1629 0.931 . S
H1616 C1631 0.930 . S
C1617 H1605 0.930 . S
C1617 C1618 1.399 . S
C1617 C1622 1.399 . S
C1618 C1617 1.399 . S
C1618 C1619 1.376 . S
C1619 H1606 0.930 . S
C1619 C1618 1.376 . S
C1619 C1620 1.388 . S
C1620 H1607 0.930 . S
C1620 C1619 1.388 . S
C1620 C1621 1.390 . S
C1621 C1620 1.390 . S
C1621 C1622 1.394 . S
C1621 C1627 1.465 . S
C1622 C1617 1.399 . S
C1622 C1621 1.394 . S
C1622 C1623 1.516 . S
C1623 C1622 1.516 . S
C1623 C1624 1.502 . S
C1623 C1625 1.561 . S
C1623 C1626 1.526 . S
C1624 H1608 0.959 . S
C1624 H1609 0.959 . S
C1624 H1610 0.961 . S
C1624 C1623 1.502 . S
C1625 H1611 0.960 . S
C1625 H1612 0.961 . S
C1625 H1613 0.959 . S
C1625 C1623 1.561 . S
C1626 C1623 1.526 . S
C1626 C1627 1.396 . S
C1626 C1631 1.390 . S
C1627 C1621 1.465 . S
C1627 C1626 1.396 . S
C1627 C1628 1.399 . S
C1628 H1614 0.929 . S
C1628 C1627 1.399 . S
C1628 C1629 1.385 . S
C1629 H1615 0.931 . S
C1629 C1628 1.385 . S
C1629 C1630 1.389 . S
C1630 C1629 1.389 . S
C1630 C1631 1.387 . S
C1631 H1616 0.930 . S
C1631 C1626 1.390 . S
C1631 C1630 1.387 . S
H1632 C1644 0.930 . S
H1633 C1646 0.930 . S
H1634 C1647 0.930 . S
H1635 C1651 0.959 . S
H1636 C1651 0.959 . S
H1637 C1651 0.961 . S
H1638 C1652 0.960 . S
H1639 C1652 0.961 . S
H1640 C1652 0.959 . S
H1641 C1655 0.929 . S
H1642 C1656 0.931 . S
H1643 C1658 0.930 . S
C1644 H1632 0.930 . S
C1644 C1645 1.399 . S
C1644 C1649 1.399 . S
C1645 C1644 1.399 . S
C1645 C1646 1.376 . S
C1646 H1633 0.930 . S
C1646 C1645 1.376 . S
C1646 C1647 1.388 . S
C1647 H1634 0.930 . S
C1647 C1646 1.388 . S
C1647 C1648 1.390 . S
C1648 C1647 1.390 . S
C1648 C1649 1.394 . S
C1648 C1654 1.465 . S
C1649 C1644 1.399 . S
C1649 C1648 1.394 . S
C1649 C1650 1.516 . S
C1650 C1649 1.516 . S
C1650 C1651 1.502 . S
C1650 C1652 1.561 . S
C1650 C1653 1.526 . S
C1651 H1635 0.959 . S
C1651 H1636 0.959 . S
C1651 H1637 0.961 . S
C1651 C1650 1.502 . S
C1652 H1638 0.960 . S
C1652 H1639 0.961 . S
C1652 H1640 0.959 . S
C1652 C1650 1.561 . S
C1653 C1650 1.526 . S
C1653 C1654 1.396 . S
C1653 C1658 1.390 . S
C1654 C1648 1.465 . S
C1654 C1653 1.396 . S
C1654 C1655 1.399 . S
C1655 H1641 0.929 . S
C1655 C1654 1.399 . S
C1655 C1656 1.385 . S
C1656 H1642 0.931 . S
C1656 C1655 1.385 . S
C1656 C1657 1.389 . S
C1657 C1656 1.389 . S
C1657 C1658 1.387 . S
C1658 H1643 0.930 . S
C1658 C1653 1.390 . S
C1658 C1657 1.387 . S
H1659 C1671 0.930 . S
H1660 C1673 0.930 . S
H1661 C1674 0.930 . S
H1662 C1678 0.959 . S
H1663 C1678 0.959 . S
H1664 C1678 0.961 . S
H1665 C1679 0.960 . S
H1666 C1679 0.961 . S
H1667 C1679 0.959 . S
H1668 C1682 0.929 . S
H1669 C1683 0.931 . S
H1670 C1685 0.930 . S
C1671 H1659 0.930 . S
C1671 C1672 1.399 . S
C1671 C1676 1.399 . S
C1672 C1671 1.399 . S
C1672 C1673 1.376 . S
C1673 H1660 0.930 . S
C1673 C1672 1.376 . S
C1673 C1674 1.388 . S
C1674 H1661 0.930 . S
C1674 C1673 1.388 . S
C1674 C1675 1.390 . S
C1675 C1674 1.390 . S
C1675 C1676 1.394 . S
C1675 C1681 1.465 . S
C1676 C1671 1.399 . S
C1676 C1675 1.394 . S
C1676 C1677 1.516 . S
C1677 C1676 1.516 . S
C1677 C1678 1.502 . S
C1677 C1679 1.561 . S
C1677 C1680 1.526 . S
C1678 H1662 0.959 . S
C1678 H1663 0.959 . S
C1678 H1664 0.961 . S
C1678 C1677 1.502 . S
C1679 H1665 0.960 . S
C1679 H1666 0.961 . S
C1679 H1667 0.959 . S
C1679 C1677 1.561 . S
C1680 C1677 1.526 . S
C1680 C1681 1.396 . S
C1680 C1685 1.390 . S
C1681 C1675 1.465 . S
C1681 C1680 1.396 . S
C1681 C1682 1.399 . S
C1682 H1668 0.929 . S
C1682 C1681 1.399 . S
C1682 C1683 1.385 . S
C1683 H1669 0.931 . S
C1683 C1682 1.385 . S
C1683 C1684 1.389 . S
C1684 C1683 1.389 . S
C1684 C1685 1.387 . S
C1685 H1670 0.930 . S
C1685 C1680 1.390 . S
C1685 C1684 1.387 . S
H1686 C1698 0.930 . S
H1687 C1700 0.930 . S
H1688 C1701 0.930 . S
H1689 C1705 0.959 . S
H1690 C1705 0.959 . S
H1691 C1705 0.961 . S
H1692 C1706 0.960 1_565 S
H1693 C1706 0.961 . S
H1694 C1706 0.959 1_565 S
H1695 C1709 0.929 . S
H1696 C1710 0.931 . S
H1697 C1712 0.930 . S
C1698 H1686 0.930 . S
C1698 C1699 1.399 . S
C1698 C1703 1.399 . S
C1699 C1698 1.399 . S
C1699 C1700 1.376 . S
C1700 H1687 0.930 . S
C1700 C1699 1.376 . S
C1700 C1701 1.388 . S
C1701 H1688 0.930 . S
C1701 C1700 1.388 . S
C1701 C1702 1.390 . S
C1702 C1701 1.390 . S
C1702 C1703 1.394 . S
C1702 C1708 1.465 . S
C1703 C1698 1.399 . S
C1703 C1702 1.394 . S
C1703 C1704 1.516 . S
C1704 C1703 1.516 . S
C1704 C1705 1.502 1_565 S
C1704 C1706 1.561 1_565 S
C1704 C1707 1.532 . S
C1705 H1689 0.959 . S
C1705 H1690 0.959 . S
C1705 H1691 0.961 . S
C1705 C1704 1.502 1_545 S
C1706 H1692 0.960 1_545 S
C1706 H1693 0.961 . S
C1706 H1694 0.959 1_545 S
C1706 C1704 1.561 1_545 S
C1707 C1704 1.532 . S
C1707 C1708 1.429 . S
C1707 C1712 1.357 1_565 S
C1708 C1702 1.465 . S
C1708 C1707 1.429 . S
C1708 C1709 1.399 . S
C1709 H1695 0.929 . S
C1709 C1708 1.399 . S
C1709 C1710 1.385 . S
C1710 H1696 0.931 . S
C1710 C1709 1.385 . S
C1710 C1711 1.389 1_565 S
C1711 C1710 1.389 1_545 S
C1711 C1712 1.387 . S
C1712 H1697 0.930 . S
C1712 C1707 1.357 1_545 S
C1712 C1711 1.387 . S
H1713 C1725 0.930 . S
H1714 C1727 0.930 . S
H1715 C1728 0.930 . S
H1716 C1732 0.959 . S
H1717 C1732 0.959 . S
H1718 C1732 0.961 . S
H1719 C1733 0.960 . S
H1720 C1733 0.961 . S
H1721 C1733 0.959 . S
H1722 C1736 0.929 . S
H1723 C1737 0.931 . S
H1724 C1739 0.930 . S
C1725 H1713 0.930 . S
C1725 C1726 1.399 . S
C1725 C1730 1.399 . S
C1726 C1725 1.399 . S
C1726 C1727 1.376 . S
C1727 H1714 0.930 . S
C1727 C1726 1.376 . S
C1727 C1728 1.388 . S
C1728 H1715 0.930 . S
C1728 C1727 1.388 . S
C1728 C1729 1.390 . S
C1729 C1728 1.390 . S
C1729 C1730 1.394 . S
C1729 C1735 1.465 . S
C1730 C1725 1.399 . S
C1730 C1729 1.394 . S
C1730 C1731 1.516 . S
C1731 C1730 1.516 . S
C1731 C1732 1.502 . S
C1731 C1733 1.561 . S
C1731 C1734 1.526 . S
C1732 H1716 0.959 . S
C1732 H1717 0.959 . S
C1732 H1718 0.961 . S
C1732 C1731 1.502 . S
C1733 H1719 0.960 . S
C1733 H1720 0.961 . S
C1733 H1721 0.959 . S
C1733 C1731 1.561 . S
C1734 C1731 1.526 . S
C1734 C1735 1.396 . S
C1734 C1739 1.390 . S
C1735 C1729 1.465 . S
C1735 C1734 1.396 . S
C1735 C1736 1.399 . S
C1736 H1722 0.929 . S
C1736 C1735 1.399 . S
C1736 C1737 1.385 . S
C1737 H1723 0.931 . S
C1737 C1736 1.385 . S
C1737 C1738 1.389 . S
C1738 C1737 1.389 . S
C1738 C1739 1.387 . S
C1739 H1724 0.930 . S
C1739 C1734 1.390 . S
C1739 C1738 1.387 . S
H1740 C1752 0.930 . S
H1741 C1754 0.930 . S
H1742 C1755 0.930 . S
H1743 C1759 0.959 1_554 S
H1744 C1759 0.959 . S
H1745 C1759 0.961 1_554 S
H1746 C1760 0.960 . S
H1747 C1760 0.961 . S
H1748 C1760 0.959 . S
H1749 C1763 0.929 . S
H1750 C1764 0.931 . S
H1751 C1766 0.930 . S
C1752 H1740 0.930 . S
C1752 C1753 1.399 . S
C1752 C1757 1.399 1_554 S
C1753 C1752 1.399 . S
C1753 C1754 1.376 . S
C1754 H1741 0.930 . S
C1754 C1753 1.376 . S
C1754 C1755 1.388 1_554 S
C1755 H1742 0.930 . S
C1755 C1754 1.388 1_556 S
C1755 C1756 1.390 . S
C1756 C1755 1.390 . S
C1756 C1757 1.394 . S
C1756 C1762 1.465 . S
C1757 C1752 1.399 1_556 S
C1757 C1756 1.394 . S
C1757 C1758 1.516 . S
C1758 C1757 1.516 . S
C1758 C1759 1.502 . S
C1758 C1760 1.561 . S
C1758 C1761 1.526 . S
C1759 H1743 0.959 1_556 S
C1759 H1744 0.959 . S
C1759 H1745 0.961 1_556 S
C1759 C1758 1.502 . S
C1760 H1746 0.960 . S
C1760 H1747 0.961 . S
C1760 H1748 0.959 . S
C1760 C1758 1.561 . S
C1761 C1758 1.526 . S
C1761 C1762 1.396 . S
C1761 C1766 1.390 . S
C1762 C1756 1.465 . S
C1762 C1761 1.396 . S
C1762 C1763 1.399 . S
C1763 H1749 0.929 . S
C1763 C1762 1.399 . S
C1763 C1764 1.385 . S
C1764 H1750 0.931 . S
C1764 C1763 1.385 . S
C1764 C1765 1.389 . S
C1765 C1764 1.389 . S
C1765 C1766 1.387 . S
C1766 H1751 0.930 . S
C1766 C1761 1.390 . S
C1766 C1765 1.387 . S
H1767 C1779 0.930 . S
H1768 C1781 0.930 . S
H1769 C1782 0.930 . S
H1770 C1786 0.959 . S
H1771 C1786 0.959 . S
H1772 C1786 0.954 1_545 S
H1773 C1787 0.960 1_545 S
H1774 C1787 0.961 . S
H1775 C1787 0.959 . S
H1776 C1790 0.929 . S
H1777 C1791 0.931 . S
H1778 C1793 0.930 . S
C1779 H1767 0.930 . S
C1779 C1780 1.399 . S
C1779 C1784 1.399 1_554 S
C1780 C1779 1.399 . S
C1780 C1781 1.376 . S
C1781 H1768 0.930 . S
C1781 C1780 1.376 . S
C1781 C1782 1.388 . S
C1782 H1769 0.930 . S
C1782 C1781 1.388 . S
C1782 C1783 1.390 1_554 S
C1783 C1782 1.390 1_556 S
C1783 C1784 1.394 . S
C1783 C1789 1.465 . S
C1784 C1779 1.399 1_556 S
C1784 C1783 1.394 . S
C1784 C1785 1.516 . S
C1785 C1784 1.516 . S
C1785 C1786 1.502 . S
C1785 C1787 1.561 . S
C1785 C1788 1.526 . S
C1786 H1770 0.959 . S
C1786 H1771 0.959 . S
C1786 H1772 0.954 1_565 S
C1786 C1785 1.502 . S
C1787 H1773 0.960 1_565 S
C1787 H1774 0.961 . S
C1787 H1775 0.959 . S
C1787 C1785 1.561 . S
C1788 C1785 1.526 . S
C1788 C1789 1.396 . S
C1788 C1793 1.390 . S
C1789 C1783 1.465 . S
C1789 C1788 1.396 . S
C1789 C1790 1.399 . S
C1790 H1776 0.929 . S
C1790 C1789 1.399 . S
C1790 C1791 1.385 . S
C1791 H1777 0.931 . S
C1791 C1790 1.385 . S
C1791 C1792 1.389 . S
C1792 C1791 1.389 . S
C1792 C1793 1.387 . S
C1793 H1778 0.930 . S
C1793 C1788 1.390 . S
C1793 C1792 1.387 . S
H1794 C1806 0.930 . S
H1795 C1808 0.930 . S
H1796 C1809 0.930 . S
H1797 C1813 0.959 . S
H1798 C1813 0.959 . S
H1799 C1813 0.961 . S
H1800 C1814 0.960 . S
H1801 C1814 0.961 . S
H1802 C1814 0.959 . S
H1803 C1817 0.929 . S
H1804 C1818 0.931 . S
H1805 C1820 0.930 . S
C1806 H1794 0.930 . S
C1806 C1807 1.399 . S
C1806 C1811 1.399 . S
C1807 C1806 1.399 . S
C1807 C1808 1.376 . S
C1808 H1795 0.930 . S
C1808 C1807 1.376 . S
C1808 C1809 1.388 . S
C1809 H1796 0.930 . S
C1809 C1808 1.388 . S
C1809 C1810 1.390 . S
C1810 C1809 1.390 . S
C1810 C1811 1.394 . S
C1810 C1816 1.465 . S
C1811 C1806 1.399 . S
C1811 C1810 1.394 . S
C1811 C1812 1.516 . S
C1812 C1811 1.516 . S
C1812 C1813 1.502 . S
C1812 C1814 1.561 . S
C1812 C1815 1.526 . S
C1813 H1797 0.959 . S
C1813 H1798 0.959 . S
C1813 H1799 0.961 . S
C1813 C1812 1.502 . S
C1814 H1800 0.960 . S
C1814 H1801 0.961 . S
C1814 H1802 0.959 . S
C1814 C1812 1.561 . S
C1815 C1812 1.526 . S
C1815 C1816 1.396 . S
C1815 C1820 1.390 . S
C1816 C1810 1.465 . S
C1816 C1815 1.396 . S
C1816 C1817 1.399 . S
C1817 H1803 0.929 . S
C1817 C1816 1.399 . S
C1817 C1818 1.385 . S
C1818 H1804 0.931 . S
C1818 C1817 1.385 . S
C1818 C1819 1.389 . S
C1819 C1818 1.389 . S
C1819 C1820 1.387 . S
C1820 H1805 0.930 . S
C1820 C1815 1.390 . S
C1820 C1819 1.387 . S
H1821 C1833 0.930 . S
H1822 C1835 0.930 . S
H1823 C1836 0.930 . S
H1824 C1840 0.959 . S
H1825 C1840 0.924 1_565 S
H1826 C1840 0.961 . S
H1827 C1841 0.960 . S
H1828 C1841 0.961 1_565 S
H1829 C1841 0.959 . S
H1830 C1844 0.929 . S
H1831 C1845 0.931 . S
H1832 C1847 0.930 . S
C1833 H1821 0.930 . S
C1833 C1834 1.399 . S
C1833 C1838 1.399 . S
C1834 C1833 1.399 . S
C1834 C1835 1.376 . S
C1835 H1822 0.930 . S
C1835 C1834 1.376 . S
C1835 C1836 1.388 . S
C1836 H1823 0.930 . S
C1836 C1835 1.388 . S
C1836 C1837 1.390 . S
C1837 C1836 1.390 . S
C1837 C1838 1.394 . S
C1837 C1843 1.465 . S
C1838 C1833 1.399 . S
C1838 C1837 1.394 . S
C1838 C1839 1.516 . S
C1839 C1838 1.516 . S
C1839 C1840 1.502 . S
C1839 C1841 1.561 . S
C1839 C1842 1.526 . S
C1840 H1824 0.959 . S
C1840 H1825 0.924 1_545 S
C1840 H1826 0.961 . S
C1840 C1839 1.502 . S
C1841 H1827 0.960 . S
C1841 H1828 0.961 1_545 S
C1841 H1829 0.959 . S
C1841 C1839 1.561 . S
C1842 C1839 1.526 . S
C1842 C1843 1.396 . S
C1842 C1847 1.390 . S
C1843 C1837 1.465 . S
C1843 C1842 1.396 . S
C1843 C1844 1.399 . S
C1844 H1830 0.929 . S
C1844 C1843 1.399 . S
C1844 C1845 1.385 . S
C1845 H1831 0.931 . S
C1845 C1844 1.385 . S
C1845 C1846 1.389 . S
C1846 C1845 1.389 . S
C1846 C1847 1.387 . S
C1847 H1832 0.930 . S
C1847 C1842 1.390 . S
C1847 C1846 1.387 . S
H1848 C1860 0.930 . S
H1849 C1862 0.930 . S
H1850 C1863 0.930 . S
H1851 C1867 0.950 1_455 S
H1852 C1867 0.959 . S
H1853 C1867 0.961 1_455 S
H1854 C1868 0.960 . S
H1855 C1868 0.961 . S
H1856 C1868 0.959 . S
H1857 C1871 0.929 . S
H1858 C1872 0.931 . S
H1859 C1874 0.930 . S
C1860 H1848 0.930 . S
C1860 C1861 1.399 . S
C1860 C1865 1.399 1_455 S
C1861 C1860 1.399 . S
C1861 C1862 1.376 . S
C1862 H1849 0.930 . S
C1862 C1861 1.376 . S
C1862 C1863 1.388 1_455 S
C1863 H1850 0.930 . S
C1863 C1862 1.388 1_655 S
C1863 C1864 1.390 . S
C1864 C1863 1.390 . S
C1864 C1865 1.394 . S
C1864 C1870 1.465 . S
C1865 C1860 1.399 1_655 S
C1865 C1864 1.394 . S
C1865 C1866 1.516 . S
C1866 C1865 1.516 . S
C1866 C1867 1.502 . S
C1866 C1868 1.561 . S
C1866 C1869 1.526 . S
C1867 H1851 0.950 1_655 S
C1867 H1852 0.959 . S
C1867 H1853 0.961 1_655 S
C1867 C1866 1.502 . S
C1868 H1854 0.960 . S
C1868 H1855 0.961 . S
C1868 H1856 0.959 . S
C1868 C1866 1.561 . S
C1869 C1866 1.526 . S
C1869 C1870 1.396 . S
C1869 C1874 1.390 . S
C1870 C1864 1.465 . S
C1870 C1869 1.396 . S
C1870 C1871 1.399 . S
C1871 H1857 0.929 . S
C1871 C1870 1.399 . S
C1871 C1872 1.385 . S
C1872 H1858 0.931 . S
C1872 C1871 1.385 . S
C1872 C1873 1.389 . S
C1873 C1872 1.389 . S
C1873 C1874 1.387 . S
C1874 H1859 0.930 . S
C1874 C1869 1.390 . S
C1874 C1873 1.387 . S
H1875 C1887 0.930 . S
H1876 C1889 0.930 . S
H1877 C1890 0.930 . S
H1878 C1894 0.959 . S
H1879 C1894 0.959 . S
H1880 C1894 0.961 . S
H1881 C1895 0.960 . S
H1882 C1895 0.961 . S
H1883 C1895 0.959 . S
H1884 C1898 0.929 . S
H1885 C1899 0.931 . S
H1886 C1901 0.930 . S
C1887 H1875 0.930 . S
C1887 C1888 1.399 . S
C1887 C1892 1.399 1_655 S
C1888 C1887 1.399 . S
C1888 C1889 1.376 . S
C1889 H1876 0.930 . S
C1889 C1888 1.376 . S
C1889 C1890 1.388 . S
C1890 H1877 0.930 . S
C1890 C1889 1.388 . S
C1890 C1891 1.390 1_655 S
C1891 C1890 1.390 1_455 S
C1891 C1892 1.394 . S
C1891 C1897 1.465 . S
C1892 C1887 1.399 1_455 S
C1892 C1891 1.394 . S
C1892 C1893 1.516 . S
C1893 C1892 1.516 . S
C1893 C1894 1.502 . S
C1893 C1895 1.561 . S
C1893 C1896 1.526 . S
C1894 H1878 0.959 . S
C1894 H1879 0.959 . S
C1894 H1880 0.961 . S
C1894 C1893 1.502 . S
C1895 H1881 0.960 . S
C1895 H1882 0.961 . S
C1895 H1883 0.959 . S
C1895 C1893 1.561 . S
C1896 C1893 1.526 . S
C1896 C1897 1.396 . S
C1896 C1901 1.390 . S
C1897 C1891 1.465 . S
C1897 C1896 1.396 . S
C1897 C1898 1.399 . S
C1898 H1884 0.929 . S
C1898 C1897 1.399 . S
C1898 C1899 1.385 . S
C1899 H1885 0.931 . S
C1899 C1898 1.385 . S
C1899 C1900 1.389 . S
C1900 C1899 1.389 . S
C1900 C1901 1.387 . S
C1901 H1886 0.930 . S
C1901 C1896 1.390 . S
C1901 C1900 1.387 . S
H1902 C1914 0.930 . S
H1903 C1916 0.930 . S
H1904 C1917 0.930 . S
H1905 C1921 0.959 . S
H1906 C1921 0.959 . S
H1907 C1921 0.961 . S
H1908 C1922 0.960 . S
H1909 C1922 0.961 . S
H1910 C1922 0.959 . S
H1911 C1925 0.929 . S
H1912 C1926 0.931 . S
H1913 C1928 0.930 . S
C1914 H1902 0.930 . S
C1914 C1915 1.399 1_655 S
C1914 C1919 1.399 . S
C1915 C1914 1.399 1_455 S
C1915 C1916 1.376 . S
C1916 H1903 0.930 . S
C1916 C1915 1.376 . S
C1916 C1917 1.388 . S
C1917 H1904 0.930 . S
C1917 C1916 1.388 . S
C1917 C1918 1.390 1_455 S
C1918 C1917 1.390 1_655 S
C1918 C1919 1.394 . S
C1918 C1924 1.465 . S
C1919 C1914 1.399 . S
C1919 C1918 1.394 . S
C1919 C1920 1.516 . S
C1920 C1919 1.516 . S
C1920 C1921 1.502 . S
C1920 C1922 1.561 . S
C1920 C1923 1.526 . S
C1921 H1905 0.959 . S
C1921 H1906 0.959 . S
C1921 H1907 0.961 . S
C1921 C1920 1.502 . S
C1922 H1908 0.960 . S
C1922 H1909 0.961 . S
C1922 H1910 0.959 . S
C1922 C1920 1.561 . S
C1923 C1920 1.526 . S
C1923 C1924 1.396 . S
C1923 C1928 1.390 . S
C1924 C1918 1.465 . S
C1924 C1923 1.396 . S
C1924 C1925 1.399 . S
C1925 H1911 0.929 . S
C1925 C1924 1.399 . S
C1925 C1926 1.385 . S
C1926 H1912 0.931 . S
C1926 C1925 1.385 . S
C1926 C1927 1.389 . S
C1927 C1926 1.389 . S
C1927 C1928 1.387 . S
C1928 H1913 0.930 . S
C1928 C1923 1.390 . S
C1928 C1927 1.387 . S
H1929 C1941 0.930 . S
H1930 C1943 0.930 . S
H1931 C1944 0.930 . S
H1932 C1948 0.959 1_455 S
H1933 C1948 0.959 . S
H1934 C1948 0.961 1_455 S
H1935 C1949 0.960 1_455 S
H1936 C1949 0.961 . S
H1937 C1949 0.950 1_455 S
H1938 C1952 0.929 . S
H1939 C1953 0.931 . S
H1940 C1955 0.930 . S
C1941 H1929 0.930 . S
C1941 C1942 1.399 . S
C1941 C1946 1.399 . S
C1942 C1941 1.399 . S
C1942 C1943 1.376 . S
C1943 H1930 0.930 . S
C1943 C1942 1.376 . S
C1943 C1944 1.388 . S
C1944 H1931 0.930 . S
C1944 C1943 1.388 . S
C1944 C1945 1.390 . S
C1945 C1944 1.390 . S
C1945 C1946 1.394 . S
C1945 C1951 1.465 . S
C1946 C1941 1.399 . S
C1946 C1945 1.394 . S
C1946 C1947 1.516 . S
C1947 C1946 1.516 . S
C1947 C1948 1.502 1_455 S
C1947 C1949 1.561 1_455 S
C1947 C1950 1.521 1_455 S
C1948 H1932 0.959 1_655 S
C1948 H1933 0.959 . S
C1948 H1934 0.961 1_655 S
C1948 C1947 1.502 1_655 S
C1949 H1935 0.960 1_655 S
C1949 H1936 0.961 . S
C1949 H1937 0.950 1_655 S
C1949 C1947 1.561 1_655 S
C1950 C1947 1.521 1_655 S
C1950 C1951 1.380 1_655 S
C1950 C1955 1.408 . S
C1951 C1945 1.465 . S
C1951 C1950 1.380 1_455 S
C1951 C1952 1.399 . S
C1952 H1938 0.929 . S
C1952 C1951 1.399 . S
C1952 C1953 1.385 1_455 S
C1953 H1939 0.931 . S
C1953 C1952 1.385 1_655 S
C1953 C1954 1.389 . S
C1954 C1953 1.389 . S
C1954 C1955 1.387 . S
C1955 H1940 0.930 . S
C1955 C1950 1.408 . S
C1955 C1954 1.387 . S
H1956 C1968 0.930 . S
H1957 C1970 0.930 . S
H1958 C1971 0.930 . S
H1959 C1975 0.959 1_565 S
H1960 C1975 0.959 1_565 S
H1961 C1975 0.961 . S
H1962 C1976 0.960 . S
H1963 C1976 0.961 . S
H1964 C1976 0.973 . S
H1965 C1979 0.929 . S
H1966 C1980 0.931 . S
H1967 C1982 0.930 . S
C1968 H1956 0.930 . S
C1968 C1969 1.399 . S
C1968 C1973 1.399 . S
C1969 C1968 1.399 . S
C1969 C1970 1.376 . S
C1970 H1957 0.930 . S
C1970 C1969 1.376 . S
C1970 C1971 1.388 1_545 S
C1971 H1958 0.930 . S
C1971 C1970 1.388 1_565 S
C1971 C1972 1.390 . S
C1972 C1971 1.390 . S
C1972 C1973 1.394 1_565 S
C1972 C1978 1.465 . S
C1973 C1968 1.399 . S
C1973 C1972 1.394 1_545 S
C1973 C1974 1.516 1_545 S
C1974 C1973 1.516 1_565 S
C1974 C1975 1.502 1_565 S
C1974 C1976 1.561 1_565 S
C1974 C1977 1.526 . S
C1975 H1959 0.959 1_545 S
C1975 H1960 0.959 1_545 S
C1975 H1961 0.961 . S
C1975 C1974 1.502 1_545 S
C1976 H1962 0.960 . S
C1976 H1963 0.961 . S
C1976 H1964 0.973 . S
C1976 C1974 1.561 1_545 S
C1977 C1974 1.526 . S
C1977 C1978 1.396 . S
C1977 C1982 1.390 . S
C1978 C1972 1.465 . S
C1978 C1977 1.396 . S
C1978 C1979 1.399 . S
C1979 H1965 0.929 . S
C1979 C1978 1.399 . S
C1979 C1980 1.385 . S
C1980 H1966 0.931 . S
C1980 C1979 1.385 . S
C1980 C1981 1.389 . S
C1981 C1980 1.389 . S
C1981 C1982 1.387 . S
C1982 H1967 0.930 . S
C1982 C1977 1.390 . S
C1982 C1981 1.387 . S
H1983 C1995 0.930 . S
H1984 C1997 0.930 . S
H1985 C1998 0.930 . S
H1986 C2002 0.959 . S
H1987 C2002 0.959 1_565 S
H1988 C2002 0.961 . S
H1989 C2003 0.960 1_545 S
H1990 C2003 0.961 . S
H1991 C2003 0.963 . S
H1992 C2006 0.929 . S
H1993 C2007 0.931 . S
H1994 C2009 0.930 . S
C1995 H1983 0.930 . S
C1995 C1996 1.399 . S
C1995 C2000 1.399 . S
C1996 C1995 1.399 . S
C1996 C1997 1.376 . S
C1997 H1984 0.930 . S
C1997 C1996 1.376 . S
C1997 C1998 1.388 . S
C1998 H1985 0.930 . S
C1998 C1997 1.388 . S
C1998 C1999 1.390 . S
C1999 C1998 1.390 . S
C1999 C2000 1.394 . S
C1999 C2005 1.465 . S
C2000 C1995 1.399 . S
C2000 C1999 1.394 . S
C2000 C2001 1.516 . S
C2001 C2000 1.516 . S
C2001 C2002 1.502 . S
C2001 C2003 1.561 1_545 S
C2001 C2004 1.526 1_545 S
C2002 H1986 0.959 . S
C2002 H1987 0.959 1_545 S
C2002 H1988 0.961 . S
C2002 C2001 1.502 . S
C2003 H1989 0.960 1_565 S
C2003 H1990 0.961 . S
C2003 H1991 0.963 . S
C2003 C2001 1.561 1_565 S
C2004 C2001 1.526 1_565 S
C2004 C2005 1.396 1_565 S
C2004 C2009 1.390 . S
C2005 C1999 1.465 . S
C2005 C2004 1.396 1_545 S
C2005 C2006 1.399 . S
C2006 H1992 0.929 . S
C2006 C2005 1.399 . S
C2006 C2007 1.385 1_545 S
C2007 H1993 0.931 . S
C2007 C2006 1.385 1_565 S
C2007 C2008 1.389 . S
C2008 C2007 1.389 . S
C2008 C2009 1.387 . S
C2009 H1994 0.930 . S
C2009 C2004 1.390 . S
C2009 C2008 1.387 . S
H2010 C2022 0.930 . S
H2011 C2024 0.930 . S
H2012 C2025 0.930 . S
H2013 C2029 0.959 . S
H2014 C2029 0.959 . S
H2015 C2029 0.961 . S
H2016 C2030 0.960 . S
H2017 C2030 0.961 . S
H2018 C2030 0.959 . S
H2019 C2033 0.929 . S
H2020 C2034 0.931 . S
H2021 C2036 0.930 . S
C2022 H2010 0.930 . S
C2022 C2023 1.399 . S
C2022 C2027 1.399 . S
C2023 C2022 1.399 . S
C2023 C2024 1.376 . S
C2024 H2011 0.930 . S
C2024 C2023 1.376 . S
C2024 C2025 1.388 . S
C2025 H2012 0.930 . S
C2025 C2024 1.388 . S
C2025 C2026 1.390 . S
C2026 C2025 1.390 . S
C2026 C2027 1.394 . S
C2026 C2032 1.465 . S
C2027 C2022 1.399 . S
C2027 C2026 1.394 . S
C2027 C2028 1.516 . S
C2028 C2027 1.516 . S
C2028 C2029 1.502 . S
C2028 C2030 1.561 . S
C2028 C2031 1.526 . S
C2029 H2013 0.959 . S
C2029 H2014 0.959 . S
C2029 H2015 0.961 . S
C2029 C2028 1.502 . S
C2030 H2016 0.960 . S
C2030 H2017 0.961 . S
C2030 H2018 0.959 . S
C2030 C2028 1.561 . S
C2031 C2028 1.526 . S
C2031 C2032 1.396 . S
C2031 C2036 1.390 . S
C2032 C2026 1.465 . S
C2032 C2031 1.396 . S
C2032 C2033 1.399 . S
C2033 H2019 0.929 . S
C2033 C2032 1.399 . S
C2033 C2034 1.385 . S
C2034 H2020 0.931 . S
C2034 C2033 1.385 . S
C2034 C2035 1.389 . S
C2035 C2034 1.389 . S
C2035 C2036 1.387 . S
C2036 H2021 0.930 . S
C2036 C2031 1.390 . S
C2036 C2035 1.387 . S
H2037 C2049 0.930 . S
H2038 C2051 0.930 . S
H2039 C2052 0.930 . S
H2040 C2056 0.959 . S
H2041 C2056 0.959 . S
H2042 C2056 0.961 1_545 S
H2043 C2057 0.960 . S
H2044 C2057 0.961 1_565 S
H2045 C2057 0.959 . S
H2046 C2060 0.929 . S
H2047 C2061 0.931 . S
H2048 C2063 0.930 . S
C2049 H2037 0.930 . S
C2049 C2050 1.399 . S
C2049 C2054 1.399 . S
C2050 C2049 1.399 . S
C2050 C2051 1.376 . S
C2051 H2038 0.930 . S
C2051 C2050 1.376 . S
C2051 C2052 1.388 . S
C2052 H2039 0.930 . S
C2052 C2051 1.388 . S
C2052 C2053 1.390 . S
C2053 C2052 1.390 . S
C2053 C2054 1.394 . S
C2053 C2059 1.465 . S
C2054 C2049 1.399 . S
C2054 C2053 1.394 . S
C2054 C2055 1.516 . S
C2055 C2054 1.516 . S
C2055 C2056 1.502 1_545 S
C2055 C2057 1.561 . S
C2055 C2058 1.525 1_545 S
C2056 H2040 0.959 . S
C2056 H2041 0.959 . S
C2056 H2042 0.961 1_565 S
C2056 C2055 1.502 1_565 S
C2057 H2043 0.960 . S
C2057 H2044 0.961 1_545 S
C2057 H2045 0.959 . S
C2057 C2055 1.561 . S
C2058 C2055 1.525 1_565 S
C2058 C2059 1.395 1_565 S
C2058 C2063 1.391 . S
C2059 C2053 1.465 . S
C2059 C2058 1.395 1_545 S
C2059 C2060 1.399 . S
C2060 H2046 0.929 . S
C2060 C2059 1.399 . S
C2060 C2061 1.385 1_545 S
C2061 H2047 0.931 . S
C2061 C2060 1.385 1_565 S
C2061 C2062 1.389 . S
C2062 C2061 1.389 . S
C2062 C2063 1.387 . S
C2063 H2048 0.930 . S
C2063 C2058 1.391 . S
C2063 C2062 1.387 . S
H2064 C2076 0.930 . S
H2065 C2078 0.930 . S
H2066 C2079 0.930 . S
H2067 C2083 0.959 . S
H2068 C2083 0.959 . S
H2069 C2083 0.961 . S
H2070 C2084 0.960 . S
H2071 C2084 0.961 . S
H2072 C2084 0.959 . S
H2073 C2087 0.929 . S
H2074 C2088 0.931 . S
H2075 C2090 0.930 . S
C2076 H2064 0.930 . S
C2076 C2077 1.399 1_455 S
C2076 C2081 1.399 . S
C2077 C2076 1.399 1_655 S
C2077 C2078 1.376 . S
C2078 H2065 0.930 . S
C2078 C2077 1.376 . S
C2078 C2079 1.388 . S
C2079 H2066 0.930 . S
C2079 C2078 1.388 . S
C2079 C2080 1.390 . S
C2080 C2079 1.390 . S
C2080 C2081 1.394 1_655 S
C2080 C2086 1.465 . S
C2081 C2076 1.399 . S
C2081 C2080 1.394 1_455 S
C2081 C2082 1.516 . S
C2082 C2081 1.516 . S
C2082 C2083 1.502 . S
C2082 C2084 1.561 1_455 S
C2082 C2085 1.526 . S
C2083 H2067 0.959 . S
C2083 H2068 0.959 . S
C2083 H2069 0.961 . S
C2083 C2082 1.502 . S
C2084 H2070 0.960 . S
C2084 H2071 0.961 . S
C2084 H2072 0.959 . S
C2084 C2082 1.561 1_655 S
C2085 C2082 1.526 . S
C2085 C2086 1.396 1_455 S
C2085 C2090 1.390 . S
C2086 C2080 1.465 . S
C2086 C2085 1.396 1_655 S
C2086 C2087 1.399 . S
C2087 H2073 0.929 . S
C2087 C2086 1.399 . S
C2087 C2088 1.385 . S
C2088 H2074 0.931 . S
C2088 C2087 1.385 . S
C2088 C2089 1.389 1_655 S
C2089 C2088 1.389 1_455 S
C2089 C2090 1.387 . S
C2090 H2075 0.930 . S
C2090 C2085 1.390 . S
C2090 C2089 1.387 . S
H2091 C2103 0.930 . S
H2092 C2105 0.930 . S
H2093 C2106 0.930 . S
H2094 C2110 0.959 . S
H2095 C2110 0.959 . S
H2096 C2110 0.961 . S
H2097 C2111 0.960 . S
H2098 C2111 0.961 . S
H2099 C2111 0.959 . S
H2100 C2114 0.929 . S
H2101 C2115 0.931 . S
H2102 C2117 0.930 . S
C2103 H2091 0.930 . S
C2103 C2104 1.399 . S
C2103 C2108 1.399 . S
C2104 C2103 1.399 . S
C2104 C2105 1.376 1_455 S
C2105 H2092 0.930 . S
C2105 C2104 1.376 1_655 S
C2105 C2106 1.388 . S
C2106 H2093 0.930 . S
C2106 C2105 1.388 . S
C2106 C2107 1.390 . S
C2107 C2106 1.390 . S
C2107 C2108 1.394 1_655 S
C2107 C2113 1.465 . S
C2108 C2103 1.399 . S
C2108 C2107 1.394 1_455 S
C2108 C2109 1.516 . S
C2109 C2108 1.516 . S
C2109 C2110 1.502 . S
C2109 C2111 1.561 1_455 S
C2109 C2112 1.526 . S
C2110 H2094 0.959 . S
C2110 H2095 0.959 . S
C2110 H2096 0.961 . S
C2110 C2109 1.502 . S
C2111 H2097 0.960 . S
C2111 H2098 0.961 . S
C2111 H2099 0.959 . S
C2111 C2109 1.561 1_655 S
C2112 C2109 1.526 . S
C2112 C2113 1.396 1_455 S
C2112 C2117 1.390 . S
C2113 C2107 1.465 . S
C2113 C2112 1.396 1_655 S
C2113 C2114 1.399 . S
C2114 H2100 0.929 . S
C2114 C2113 1.399 . S
C2114 C2115 1.385 . S
C2115 H2101 0.931 . S
C2115 C2114 1.385 . S
C2115 C2116 1.389 . S
C2116 C2115 1.389 . S
C2116 C2117 1.387 1_655 S
C2117 H2102 0.930 . S
C2117 C2112 1.390 . S
C2117 C2116 1.387 1_455 S
H2118 C2130 0.930 . S
H2119 C2132 0.930 . S
H2120 C2133 0.930 . S
H2121 C2137 0.959 . S
H2122 C2137 0.959 . S
H2123 C2137 0.961 . S
H2124 C2138 0.960 . S
H2125 C2138 0.961 . S
H2126 C2138 0.959 . S
H2127 C2141 0.929 . S
H2128 C2142 0.931 . S
H2129 C2144 0.930 . S
C2130 H2118 0.930 . S
C2130 C2131 1.399 1_545 S
C2130 C2135 1.399 . S
C2131 C2130 1.399 1_565 S
C2131 C2132 1.376 . S
C2132 H2119 0.930 . S
C2132 C2131 1.376 . S
C2132 C2133 1.388 . S
C2133 H2120 0.930 . S
C2133 C2132 1.388 . S
C2133 C2134 1.390 . S
C2134 C2133 1.390 . S
C2134 C2135 1.394 1_565 S
C2134 C2140 1.465 . S
C2135 C2130 1.399 . S
C2135 C2134 1.394 1_545 S
C2135 C2136 1.516 . S
C2136 C2135 1.516 . S
C2136 C2137 1.502 . S
C2136 C2138 1.561 . S
C2136 C2139 1.526 . S
C2137 H2121 0.959 . S
C2137 H2122 0.959 . S
C2137 H2123 0.961 . S
C2137 C2136 1.502 . S
C2138 H2124 0.960 . S
C2138 H2125 0.961 . S
C2138 H2126 0.959 . S
C2138 C2136 1.561 . S
C2139 C2136 1.526 . S
C2139 C2140 1.396 1_545 S
C2139 C2144 1.390 . S
C2140 C2134 1.465 . S
C2140 C2139 1.396 1_565 S
C2140 C2141 1.399 . S
C2141 H2127 0.929 . S
C2141 C2140 1.399 . S
C2141 C2142 1.385 . S
C2142 H2128 0.931 . S
C2142 C2141 1.385 . S
C2142 C2143 1.356 1_565 S
C2143 C2142 1.356 1_545 S
C2143 C2144 1.413 . S
C2144 H2129 0.930 . S
C2144 C2139 1.390 . S
C2144 C2143 1.413 . S
H2145 C2157 0.930 . S
H2146 C2159 0.930 . S
H2147 C2160 0.930 . S
H2148 C2164 0.959 . S
H2149 C2164 0.959 . S
H2150 C2164 0.961 . S
H2151 C2165 0.960 . S
H2152 C2165 0.961 . S
H2153 C2165 0.959 . S
H2154 C2168 0.929 . S
H2155 C2169 0.931 . S
H2156 C2171 0.930 . S
C2157 H2145 0.930 . S
C2157 C2158 1.399 . S
C2157 C2162 1.399 . S
C2158 C2157 1.399 . S
C2158 C2159 1.376 . S
C2159 H2146 0.930 . S
C2159 C2158 1.376 . S
C2159 C2160 1.388 . S
C2160 H2147 0.930 . S
C2160 C2159 1.388 . S
C2160 C2161 1.390 . S
C2161 C2160 1.390 . S
C2161 C2162 1.394 . S
C2161 C2167 1.465 . S
C2162 C2157 1.399 . S
C2162 C2161 1.394 . S
C2162 C2163 1.516 . S
C2163 C2162 1.516 . S
C2163 C2164 1.502 . S
C2163 C2165 1.561 . S
C2163 C2166 1.526 . S
C2164 H2148 0.959 . S
C2164 H2149 0.959 . S
C2164 H2150 0.961 . S
C2164 C2163 1.502 . S
C2165 H2151 0.960 . S
C2165 H2152 0.961 . S
C2165 H2153 0.959 . S
C2165 C2163 1.561 . S
C2166 C2163 1.526 . S
C2166 C2167 1.396 . S
C2166 C2171 1.390 . S
C2167 C2161 1.465 . S
C2167 C2166 1.396 . S
C2167 C2168 1.399 . S
C2168 H2154 0.929 . S
C2168 C2167 1.399 . S
C2168 C2169 1.385 . S
C2169 H2155 0.931 . S
C2169 C2168 1.385 . S
C2169 C2170 1.389 . S
C2170 C2169 1.389 . S
C2170 C2171 1.387 . S
C2171 H2156 0.930 . S
C2171 C2166 1.390 . S
C2171 C2170 1.387 . S
H2172 C2184 0.930 . S
H2173 C2186 0.930 . S
H2174 C2187 0.930 . S
H2175 C2191 0.959 . S
H2176 C2191 0.959 . S
H2177 C2191 0.961 . S
H2178 C2192 0.960 . S
H2179 C2192 0.961 . S
H2180 C2192 0.959 . S
H2181 C2195 0.929 . S
H2182 C2196 0.931 . S
H2183 C2198 0.930 . S
C2184 H2172 0.930 . S
C2184 C2185 1.426 . S
C2184 C2189 1.399 . S
C2185 C2184 1.426 . S
C2185 C2186 1.342 1_554 S
C2186 H2173 0.930 . S
C2186 C2185 1.342 1_556 S
C2186 C2187 1.388 . S
C2187 H2174 0.930 . S
C2187 C2186 1.388 . S
C2187 C2188 1.390 . S
C2188 C2187 1.390 . S
C2188 C2189 1.394 1_556 S
C2188 C2194 1.465 . S
C2189 C2184 1.399 . S
C2189 C2188 1.394 1_554 S
C2189 C2190 1.516 . S
C2190 C2189 1.516 . S
C2190 C2191 1.502 . S
C2190 C2192 1.561 . S
C2190 C2193 1.526 . S
C2191 H2175 0.959 . S
C2191 H2176 0.959 . S
C2191 H2177 0.961 . S
C2191 C2190 1.502 . S
C2192 H2178 0.960 . S
C2192 H2179 0.961 . S
C2192 H2180 0.959 . S
C2192 C2190 1.561 . S
C2193 C2190 1.526 . S
C2193 C2194 1.396 1_554 S
C2193 C2198 1.390 . S
C2194 C2188 1.465 . S
C2194 C2193 1.396 1_556 S
C2194 C2195 1.399 . S
C2195 H2181 0.929 . S
C2195 C2194 1.399 . S
C2195 C2196 1.385 . S
C2196 H2182 0.931 . S
C2196 C2195 1.385 . S
C2196 C2197 1.389 . S
C2197 C2196 1.389 . S
C2197 C2198 1.387 1_556 S
C2198 H2183 0.930 . S
C2198 C2193 1.390 . S
C2198 C2197 1.387 1_554 S
H2199 C2211 0.930 . S
H2200 C2213 0.930 . S
H2201 C2214 0.930 . S
H2202 C2218 0.959 . S
H2203 C2218 0.959 . S
H2204 C2218 0.961 . S
H2205 C2219 0.960 . S
H2206 C2219 0.961 . S
H2207 C2219 0.959 . S
H2208 C2222 0.929 . S
H2209 C2223 0.931 . S
H2210 C2225 0.930 . S
C2211 H2199 0.930 . S
C2211 C2212 1.399 . S
C2211 C2216 1.399 . S
C2212 C2211 1.399 . S
C2212 C2213 1.376 . S
C2213 H2200 0.930 . S
C2213 C2212 1.376 . S
C2213 C2214 1.388 . S
C2214 H2201 0.930 . S
C2214 C2213 1.388 . S
C2214 C2215 1.390 . S
C2215 C2214 1.390 . S
C2215 C2216 1.394 . S
C2215 C2221 1.465 . S
C2216 C2211 1.399 . S
C2216 C2215 1.394 . S
C2216 C2217 1.516 . S
C2217 C2216 1.516 . S
C2217 C2218 1.502 . S
C2217 C2219 1.561 . S
C2217 C2220 1.526 . S
C2218 H2202 0.959 . S
C2218 H2203 0.959 . S
C2218 H2204 0.961 . S
C2218 C2217 1.502 . S
C2219 H2205 0.960 . S
C2219 H2206 0.961 . S
C2219 H2207 0.959 . S
C2219 C2217 1.561 . S
C2220 C2217 1.526 . S
C2220 C2221 1.396 . S
C2220 C2225 1.390 . S
C2221 C2215 1.465 . S
C2221 C2220 1.396 . S
C2221 C2222 1.399 . S
C2222 H2208 0.929 . S
C2222 C2221 1.399 . S
C2222 C2223 1.385 . S
C2223 H2209 0.931 . S
C2223 C2222 1.385 . S
C2223 C2224 1.389 . S
C2224 C2223 1.389 . S
C2224 C2225 1.387 . S
C2225 H2210 0.930 . S
C2225 C2220 1.390 . S
C2225 C2224 1.387 . S
H2226 C2238 0.930 . S
H2227 C2240 0.930 . S
H2228 C2241 0.930 . S
H2229 C2245 0.959 . S
H2230 C2245 0.959 . S
H2231 C2245 0.961 . S
H2232 C2246 0.960 . S
H2233 C2246 0.961 . S
H2234 C2246 0.959 . S
H2235 C2249 0.929 . S
H2236 C2250 0.931 . S
H2237 C2252 0.930 . S
C2238 H2226 0.930 . S
C2238 C2239 1.399 . S
C2238 C2243 1.399 . S
C2239 C2238 1.399 . S
C2239 C2240 1.376 . S
C2240 H2227 0.930 . S
C2240 C2239 1.376 . S
C2240 C2241 1.388 . S
C2241 H2228 0.930 . S
C2241 C2240 1.388 . S
C2241 C2242 1.390 . S
C2242 C2241 1.390 . S
C2242 C2243 1.394 . S
C2242 C2248 1.465 . S
C2243 C2238 1.399 . S
C2243 C2242 1.394 . S
C2243 C2244 1.516 . S
C2244 C2243 1.516 . S
C2244 C2245 1.502 . S
C2244 C2246 1.561 . S
C2244 C2247 1.526 . S
C2245 H2229 0.959 . S
C2245 H2230 0.959 . S
C2245 H2231 0.961 . S
C2245 C2244 1.502 . S
C2246 H2232 0.960 . S
C2246 H2233 0.961 . S
C2246 H2234 0.959 . S
C2246 C2244 1.561 . S
C2247 C2244 1.526 . S
C2247 C2248 1.396 . S
C2247 C2252 1.390 . S
C2248 C2242 1.465 . S
C2248 C2247 1.396 . S
C2248 C2249 1.399 . S
C2249 H2235 0.929 . S
C2249 C2248 1.399 . S
C2249 C2250 1.385 . S
C2250 H2236 0.931 . S
C2250 C2249 1.385 . S
C2250 C2251 1.389 . S
C2251 C2250 1.389 . S
C2251 C2252 1.387 . S
C2252 H2237 0.930 . S
C2252 C2247 1.390 . S
C2252 C2251 1.387 . S
H2253 C2265 0.930 . S
H2254 C2267 0.930 . S
H2255 C2268 0.930 . S
H2256 C2272 0.959 . S
H2257 C2272 0.959 . S
H2258 C2272 0.961 . S
H2259 C2273 0.960 . S
H2260 C2273 0.961 . S
H2261 C2273 0.959 . S
H2262 C2276 0.929 . S
H2263 C2277 0.931 . S
H2264 C2279 0.930 . S
C2265 H2253 0.930 . S
C2265 C2266 1.399 . S
C2265 C2270 1.399 . S
C2266 C2265 1.399 . S
C2266 C2267 1.376 . S
C2267 H2254 0.930 . S
C2267 C2266 1.376 . S
C2267 C2268 1.388 . S
C2268 H2255 0.930 . S
C2268 C2267 1.388 . S
C2268 C2269 1.390 . S
C2269 C2268 1.390 . S
C2269 C2270 1.394 . S
C2269 C2275 1.465 . S
C2270 C2265 1.399 . S
C2270 C2269 1.394 . S
C2270 C2271 1.516 . S
C2271 C2270 1.516 . S
C2271 C2272 1.502 . S
C2271 C2273 1.561 . S
C2271 C2274 1.526 . S
C2272 H2256 0.959 . S
C2272 H2257 0.959 . S
C2272 H2258 0.961 . S
C2272 C2271 1.502 . S
C2273 H2259 0.960 . S
C2273 H2260 0.961 . S
C2273 H2261 0.959 . S
C2273 C2271 1.561 . S
C2274 C2271 1.526 . S
C2274 C2275 1.396 . S
C2274 C2279 1.390 . S
C2275 C2269 1.465 . S
C2275 C2274 1.396 . S
C2275 C2276 1.399 . S
C2276 H2262 0.929 . S
C2276 C2275 1.399 . S
C2276 C2277 1.385 . S
C2277 H2263 0.931 . S
C2277 C2276 1.385 . S
C2277 C2278 1.389 . S
C2278 C2277 1.389 . S
C2278 C2279 1.387 . S
C2279 H2264 0.930 . S
C2279 C2274 1.390 . S
C2279 C2278 1.387 . S
H2280 C2292 0.930 . S
H2281 C2294 0.930 . S
H2282 C2295 0.930 . S
H2283 C2299 0.959 . S
H2284 C2299 0.959 . S
H2285 C2299 0.961 . S
H2286 C2300 0.960 . S
H2287 C2300 0.961 . S
H2288 C2300 0.959 . S
H2289 C2303 0.929 . S
H2290 C2304 0.931 . S
H2291 C2306 0.930 . S
C2292 H2280 0.930 . S
C2292 C2293 1.399 . S
C2292 C2297 1.399 . S
C2293 C2292 1.399 . S
C2293 C2294 1.376 . S
C2294 H2281 0.930 . S
C2294 C2293 1.376 . S
C2294 C2295 1.388 . S
C2295 H2282 0.930 . S
C2295 C2294 1.388 . S
C2295 C2296 1.390 . S
C2296 C2295 1.390 . S
C2296 C2297 1.394 . S
C2296 C2302 1.465 . S
C2297 C2292 1.399 . S
C2297 C2296 1.394 . S
C2297 C2298 1.516 . S
C2298 C2297 1.516 . S
C2298 C2299 1.502 . S
C2298 C2300 1.561 . S
C2298 C2301 1.526 . S
C2299 H2283 0.959 . S
C2299 H2284 0.959 . S
C2299 H2285 0.961 . S
C2299 C2298 1.502 . S
C2300 H2286 0.960 . S
C2300 H2287 0.961 . S
C2300 H2288 0.959 . S
C2300 C2298 1.561 . S
C2301 C2298 1.526 . S
C2301 C2302 1.396 . S
C2301 C2306 1.390 . S
C2302 C2296 1.465 . S
C2302 C2301 1.396 . S
C2302 C2303 1.399 . S
C2303 H2289 0.929 . S
C2303 C2302 1.399 . S
C2303 C2304 1.385 . S
C2304 H2290 0.931 . S
C2304 C2303 1.385 . S
C2304 C2305 1.389 . S
C2305 C2304 1.389 . S
C2305 C2306 1.387 . S
C2306 H2291 0.930 . S
C2306 C2301 1.390 . S
C2306 C2305 1.387 . S
H2307 C2319 0.930 . S
H2308 C2321 0.930 . S
H2309 C2322 0.930 . S
H2310 C2326 0.959 . S
H2311 C2326 0.959 . S
H2312 C2326 0.961 . S
H2313 C2327 0.960 . S
H2314 C2327 0.961 . S
H2315 C2327 0.959 . S
H2316 C2330 0.929 . S
H2317 C2331 0.931 . S
H2318 C2333 0.930 . S
C2319 H2307 0.930 . S
C2319 C2320 1.399 . S
C2319 C2324 1.399 . S
C2320 C2319 1.399 . S
C2320 C2321 1.376 . S
C2321 H2308 0.930 . S
C2321 C2320 1.376 . S
C2321 C2322 1.388 . S
C2322 H2309 0.930 . S
C2322 C2321 1.388 . S
C2322 C2323 1.390 . S
C2323 C2322 1.390 . S
C2323 C2324 1.394 . S
C2323 C2329 1.465 . S
C2324 C2319 1.399 . S
C2324 C2323 1.394 . S
C2324 C2325 1.516 . S
C2325 C2324 1.516 . S
C2325 C2326 1.502 . S
C2325 C2327 1.561 . S
C2325 C2328 1.526 . S
C2326 H2310 0.959 . S
C2326 H2311 0.959 . S
C2326 H2312 0.961 . S
C2326 C2325 1.502 . S
C2327 H2313 0.960 . S
C2327 H2314 0.961 . S
C2327 H2315 0.959 . S
C2327 C2325 1.561 . S
C2328 C2325 1.526 . S
C2328 C2329 1.396 . S
C2328 C2333 1.390 . S
C2329 C2323 1.465 . S
C2329 C2328 1.396 . S
C2329 C2330 1.399 . S
C2330 H2316 0.929 . S
C2330 C2329 1.399 . S
C2330 C2331 1.385 . S
C2331 H2317 0.931 . S
C2331 C2330 1.385 . S
C2331 C2332 1.389 . S
C2332 C2331 1.389 . S
C2332 C2333 1.387 . S
C2333 H2318 0.930 . S
C2333 C2328 1.390 . S
C2333 C2332 1.387 . S
H2334 C2346 0.930 . S
H2335 C2348 0.930 . S
H2336 C2349 0.930 . S
H2337 C2353 0.959 . S
H2338 C2353 0.959 . S
H2339 C2353 0.961 . S
H2340 C2354 0.960 . S
H2341 C2354 0.961 . S
H2342 C2354 0.959 . S
H2343 C2357 0.929 . S
H2344 C2358 0.931 . S
H2345 C2360 0.930 . S
C2346 H2334 0.930 . S
C2346 C2347 1.399 . S
C2346 C2351 1.399 . S
C2347 C2346 1.399 . S
C2347 C2348 1.376 1_545 S
C2348 H2335 0.930 . S
C2348 C2347 1.376 1_565 S
C2348 C2349 1.388 . S
C2349 H2336 0.930 . S
C2349 C2348 1.388 . S
C2349 C2350 1.390 . S
C2350 C2349 1.390 . S
C2350 C2351 1.394 1_565 S
C2350 C2356 1.465 . S
C2351 C2346 1.399 . S
C2351 C2350 1.394 1_545 S
C2351 C2352 1.516 . S
C2352 C2351 1.516 . S
C2352 C2353 1.502 . S
C2352 C2354 1.561 . S
C2352 C2355 1.526 . S
C2353 H2337 0.959 . S
C2353 H2338 0.959 . S
C2353 H2339 0.961 . S
C2353 C2352 1.502 . S
C2354 H2340 0.960 . S
C2354 H2341 0.961 . S
C2354 H2342 0.959 . S
C2354 C2352 1.561 . S
C2355 C2352 1.526 . S
C2355 C2356 1.396 1_545 S
C2355 C2360 1.390 . S
C2356 C2350 1.465 . S
C2356 C2355 1.396 1_565 S
C2356 C2357 1.399 . S
C2357 H2343 0.929 . S
C2357 C2356 1.399 . S
C2357 C2358 1.385 . S
C2358 H2344 0.931 . S
C2358 C2357 1.385 . S
C2358 C2359 1.389 . S
C2359 C2358 1.389 . S
C2359 C2360 1.387 1_565 S
C2360 H2345 0.930 . S
C2360 C2355 1.390 . S
C2360 C2359 1.387 1_545 S
H2361 C2373 0.930 . S
H2362 C2375 0.930 . S
H2363 C2376 0.930 . S
H2364 C2380 0.959 . S
H2365 C2380 0.959 . S
H2366 C2380 0.961 . S
H2367 C2381 0.960 . S
H2368 C2381 0.961 . S
H2369 C2381 0.959 . S
H2370 C2384 0.929 . S
H2371 C2385 0.931 . S
H2372 C2387 0.930 . S
C2373 H2361 0.930 . S
C2373 C2374 1.372 1_556 S
C2373 C2378 1.399 . S
C2374 C2373 1.372 1_554 S
C2374 C2375 1.413 . S
C2375 H2362 0.930 . S
C2375 C2374 1.413 . S
C2375 C2376 1.388 . S
C2376 H2363 0.930 . S
C2376 C2375 1.388 . S
C2376 C2377 1.390 . S
C2377 C2376 1.390 . S
C2377 C2378 1.394 1_554 S
C2377 C2383 1.465 . S
C2378 C2373 1.399 . S
C2378 C2377 1.394 1_556 S
C2378 C2379 1.516 . S
C2379 C2378 1.516 . S
C2379 C2380 1.502 . S
C2379 C2381 1.561 . S
C2379 C2382 1.526 . S
C2380 H2364 0.959 . S
C2380 H2365 0.959 . S
C2380 H2366 0.961 . S
C2380 C2379 1.502 . S
C2381 H2367 0.960 . S
C2381 H2368 0.961 . S
C2381 H2369 0.959 . S
C2381 C2379 1.561 . S
C2382 C2379 1.526 . S
C2382 C2383 1.396 1_556 S
C2382 C2387 1.390 . S
C2383 C2377 1.465 . S
C2383 C2382 1.396 1_554 S
C2383 C2384 1.399 . S
C2384 H2370 0.929 . S
C2384 C2383 1.399 . S
C2384 C2385 1.385 . S
C2385 H2371 0.931 . S
C2385 C2384 1.385 . S
C2385 C2386 1.389 . S
C2386 C2385 1.389 . S
C2386 C2387 1.387 1_554 S
C2387 H2372 0.930 . S
C2387 C2382 1.390 . S
C2387 C2386 1.387 1_556 S
H2388 C2400 0.930 . S
H2389 C2402 0.930 . S
H2390 C2403 0.930 . S
H2391 C2407 0.959 . S
H2392 C2407 0.959 . S
H2393 C2407 0.961 . S
H2394 C2408 0.960 1_455 S
H2395 C2408 0.961 1_455 S
H2396 C2408 0.959 . S
H2397 C2411 0.929 1_565 S
H2398 C2412 0.931 . S
H2399 C2414 0.930 . S
C2400 H2388 0.930 . S
C2400 C2401 1.399 1_455 S
C2400 C2405 1.399 . S
C2401 C2400 1.399 1_655 S
C2401 C2402 1.376 . S
C2402 H2389 0.930 . S
C2402 C2401 1.376 . S
C2402 C2403 1.388 . S
C2403 H2390 0.930 . S
C2403 C2402 1.388 . S
C2403 C2404 1.390 . S
C2404 C2403 1.390 . S
C2404 C2405 1.394 1_655 S
C2404 C2410 1.465 1_565 S
C2405 C2400 1.399 . S
C2405 C2404 1.394 1_455 S
C2405 C2406 1.516 1_565 S
C2406 C2405 1.516 1_545 S
C2406 C2407 1.502 . S
C2406 C2408 1.561 1_455 S
C2406 C2409 1.530 . S
C2407 H2391 0.959 . S
C2407 H2392 0.959 . S
C2407 H2393 0.961 . S
C2407 C2406 1.502 . S
C2408 H2394 0.960 1_655 S
C2408 H2395 0.961 1_655 S
C2408 H2396 0.959 . S
C2408 C2406 1.561 1_655 S
C2409 C2406 1.530 . S
C2409 C2410 1.389 1_455 S
C2409 C2414 1.391 . S
C2410 C2404 1.465 1_545 S
C2410 C2409 1.389 1_655 S
C2410 C2411 1.399 . S
C2411 H2397 0.929 1_545 S
C2411 C2410 1.399 . S
C2411 C2412 1.385 . S
C2412 H2398 0.931 . S
C2412 C2411 1.385 . S
C2412 C2413 1.389 . S
C2413 C2412 1.389 . S
C2413 C2414 1.387 1_655 S
C2414 H2399 0.930 . S
C2414 C2409 1.391 . S
C2414 C2413 1.387 1_455 S
H2415 C2427 0.930 . S
H2416 C2429 0.930 . S
H2417 C2430 0.930 . S
H2418 C2434 0.959 . S
H2419 C2434 0.959 . S
H2420 C2434 0.961 . S
H2421 C2435 0.960 . S
H2422 C2435 0.961 . S
H2423 C2435 0.959 1_455 S
H2424 C2438 0.929 . S
H2425 C2439 0.931 . S
H2426 C2441 0.930 . S
C2427 H2415 0.930 . S
C2427 C2428 1.399 1_655 S
C2427 C2432 1.399 . S
C2428 C2427 1.399 1_455 S
C2428 C2429 1.376 . S
C2429 H2416 0.930 . S
C2429 C2428 1.376 . S
C2429 C2430 1.388 . S
C2430 H2417 0.930 . S
C2430 C2429 1.388 . S
C2430 C2431 1.390 . S
C2431 C2430 1.390 . S
C2431 C2432 1.394 1_455 S
C2431 C2437 1.465 . S
C2432 C2427 1.399 . S
C2432 C2431 1.394 1_655 S
C2432 C2433 1.516 . S
C2433 C2432 1.516 . S
C2433 C2434 1.502 . S
C2433 C2435 1.561 . S
C2433 C2436 1.526 . S
C2434 H2418 0.959 . S
C2434 H2419 0.959 . S
C2434 H2420 0.961 . S
C2434 C2433 1.502 . S
C2435 H2421 0.960 . S
C2435 H2422 0.961 . S
C2435 H2423 0.959 1_655 S
C2435 C2433 1.561 . S
C2436 C2433 1.526 . S
C2436 C2437 1.396 1_655 S
C2436 C2441 1.390 . S
C2437 C2431 1.465 . S
C2437 C2436 1.396 1_455 S
C2437 C2438 1.399 . S
C2438 H2424 0.929 . S
C2438 C2437 1.399 . S
C2438 C2439 1.385 . S
C2439 H2425 0.931 . S
C2439 C2438 1.385 . S
C2439 C2440 1.389 . S
C2440 C2439 1.389 . S
C2440 C2441 1.387 1_455 S
C2441 H2426 0.930 . S
C2441 C2436 1.390 . S
C2441 C2440 1.387 1_655 S
H2442 C2454 0.930 . S
H2443 C2456 0.930 . S
H2444 C2457 0.930 . S
H2445 C2461 0.959 . S
H2446 C2461 0.959 . S
H2447 C2461 0.961 . S
H2448 C2462 0.960 . S
H2449 C2462 0.961 1_554 S
H2450 C2462 0.959 . S
H2451 C2465 0.929 1_556 S
H2452 C2466 0.931 . S
H2453 C2468 0.930 . S
C2454 H2442 0.930 . S
C2454 C2455 1.399 . S
C2454 C2459 1.399 . S
C2455 C2454 1.399 . S
C2455 C2456 1.376 1_565 S
C2456 H2443 0.930 . S
C2456 C2455 1.376 1_545 S
C2456 C2457 1.388 . S
C2457 H2444 0.930 . S
C2457 C2456 1.388 . S
C2457 C2458 1.390 . S
C2458 C2457 1.390 . S
C2458 C2459 1.394 1_545 S
C2458 C2464 1.465 1_556 S
C2459 C2454 1.399 . S
C2459 C2458 1.394 1_565 S
C2459 C2460 1.516 1_556 S
C2460 C2459 1.516 1_554 S
C2460 C2461 1.502 . S
C2460 C2462 1.561 1_554 S
C2460 C2463 1.526 . S
C2461 H2445 0.959 . S
C2461 H2446 0.959 . S
C2461 H2447 0.961 . S
C2461 C2460 1.502 . S
C2462 H2448 0.960 . S
C2462 H2449 0.961 1_556 S
C2462 H2450 0.959 . S
C2462 C2460 1.561 1_556 S
C2463 C2460 1.526 . S
C2463 C2464 1.396 1_565 S
C2463 C2468 1.390 . S
C2464 C2458 1.465 1_554 S
C2464 C2463 1.396 1_545 S
C2464 C2465 1.399 . S
C2465 H2451 0.929 1_554 S
C2465 C2464 1.399 . S
C2465 C2466 1.385 . S
C2466 H2452 0.931 . S
C2466 C2465 1.385 . S
C2466 C2467 1.389 1_545 S
C2467 C2466 1.389 1_565 S
C2467 C2468 1.387 . S
C2468 H2453 0.930 . S
C2468 C2463 1.390 . S
C2468 C2467 1.387 . S
H2469 C2481 0.930 . S
H2470 C2483 0.930 . S
H2471 C2484 0.894 1_556 S
H2472 C2488 0.959 . S
H2473 C2488 0.959 . S
H2474 C2488 0.961 . S
H2475 C2489 0.960 . S
H2476 C2489 0.961 . S
H2477 C2489 0.959 . S
H2478 C2492 0.929 . S
H2479 C2493 0.931 . S
H2480 C2495 0.930 . S
C2481 H2469 0.930 . S
C2481 C2482 1.399 . S
C2481 C2486 1.399 . S
C2482 C2481 1.399 . S
C2482 C2483 1.376 . S
C2483 H2470 0.930 . S
C2483 C2482 1.376 . S
C2483 C2484 1.426 . S
C2484 H2471 0.894 1_554 S
C2484 C2483 1.426 . S
C2484 C2485 1.390 . S
C2485 C2484 1.390 . S
C2485 C2486 1.430 . S
C2485 C2491 1.433 1_554 S
C2486 C2481 1.399 . S
C2486 C2485 1.430 . S
C2486 C2487 1.516 . S
C2487 C2486 1.516 . S
C2487 C2488 1.502 . S
C2487 C2489 1.561 . S
C2487 C2490 1.526 1_554 S
C2488 H2472 0.959 . S
C2488 H2473 0.959 . S
C2488 H2474 0.961 . S
C2488 C2487 1.502 . S
C2489 H2475 0.960 . S
C2489 H2476 0.961 . S
C2489 H2477 0.959 . S
C2489 C2487 1.561 . S
C2490 C2487 1.526 1_556 S
C2490 C2491 1.396 . S
C2490 C2495 1.390 . S
C2491 C2485 1.433 1_556 S
C2491 C2490 1.396 . S
C2491 C2492 1.399 . S
C2492 H2478 0.929 . S
C2492 C2491 1.399 . S
C2492 C2493 1.385 . S
C2493 H2479 0.931 . S
C2493 C2492 1.385 . S
C2493 C2494 1.389 . S
C2494 C2493 1.389 . S
C2494 C2495 1.387 . S
C2495 H2480 0.930 . S
C2495 C2490 1.390 . S
C2495 C2494 1.387 . S
H2496 C2508 0.930 . S
H2497 C2510 0.930 . S
H2498 C2511 0.930 . S
H2499 C2515 0.944 1_565 S
H2500 C2515 0.964 . S
H2501 C2515 0.964 . S
H2502 C2516 0.960 . S
H2503 C2516 0.961 . S
H2504 C2516 0.959 . S
H2505 C2519 0.929 . S
H2506 C2520 0.931 . S
H2507 C2522 0.930 . S
C2508 H2496 0.930 . S
C2508 C2509 1.399 . S
C2508 C2513 1.399 . S
C2509 C2508 1.399 . S
C2509 C2510 1.376 1_545 S
C2510 H2497 0.930 . S
C2510 C2509 1.376 1_565 S
C2510 C2511 1.388 . S
C2511 H2498 0.930 . S
C2511 C2510 1.388 . S
C2511 C2512 1.390 1_565 S
C2512 C2511 1.390 1_545 S
C2512 C2513 1.394 . S
C2512 C2518 1.465 . S
C2513 C2508 1.399 . S
C2513 C2512 1.394 . S
C2513 C2514 1.516 . S
C2514 C2513 1.516 . S
C2514 C2515 1.510 . S
C2514 C2516 1.561 . S
C2514 C2517 1.526 . S
C2515 H2499 0.944 1_545 S
C2515 H2500 0.964 . S
C2515 H2501 0.964 . S
C2515 C2514 1.510 . S
C2516 H2502 0.960 . S
C2516 H2503 0.961 . S
C2516 H2504 0.959 . S
C2516 C2514 1.561 . S
C2517 C2514 1.526 . S
C2517 C2518 1.396 . S
C2517 C2522 1.390 . S
C2518 C2512 1.465 . S
C2518 C2517 1.396 . S
C2518 C2519 1.399 1_545 S
C2519 H2505 0.929 . S
C2519 C2518 1.399 1_565 S
C2519 C2520 1.385 . S
C2520 H2506 0.931 . S
C2520 C2519 1.385 . S
C2520 C2521 1.389 1_565 S
C2521 C2520 1.389 1_545 S
C2521 C2522 1.387 . S
C2522 H2507 0.930 . S
C2522 C2517 1.390 . S
C2522 C2521 1.387 . S
H2523 C2535 0.930 . S
H2524 C2537 0.930 . S
H2525 C2538 0.930 . S
H2526 C2542 0.959 . S
H2527 C2542 0.959 . S
H2528 C2542 0.961 . S
H2529 C2543 0.960 . S
H2530 C2543 0.961 . S
H2531 C2543 0.959 . S
H2532 C2546 0.929 . S
H2533 C2547 0.931 . S
H2534 C2549 0.930 . S
C2535 H2523 0.930 . S
C2535 C2536 1.399 . S
C2535 C2540 1.399 . S
C2536 C2535 1.399 . S
C2536 C2537 1.376 . S
C2537 H2524 0.930 . S
C2537 C2536 1.376 . S
C2537 C2538 1.388 . S
C2538 H2525 0.930 . S
C2538 C2537 1.388 . S
C2538 C2539 1.390 . S
C2539 C2538 1.390 . S
C2539 C2540 1.394 . S
C2539 C2545 1.465 . S
C2540 C2535 1.399 . S
C2540 C2539 1.394 . S
C2540 C2541 1.516 . S
C2541 C2540 1.516 . S
C2541 C2542 1.502 . S
C2541 C2543 1.561 . S
C2541 C2544 1.526 . S
C2542 H2526 0.959 . S
C2542 H2527 0.959 . S
C2542 H2528 0.961 . S
C2542 C2541 1.502 . S
C2543 H2529 0.960 . S
C2543 H2530 0.961 . S
C2543 H2531 0.959 . S
C2543 C2541 1.561 . S
C2544 C2541 1.526 . S
C2544 C2545 1.396 . S
C2544 C2549 1.390 . S
C2545 C2539 1.465 . S
C2545 C2544 1.396 . S
C2545 C2546 1.399 . S
C2546 H2532 0.929 . S
C2546 C2545 1.399 . S
C2546 C2547 1.385 . S
C2547 H2533 0.931 . S
C2547 C2546 1.385 . S
C2547 C2548 1.389 . S
C2548 C2547 1.389 . S
C2548 C2549 1.387 . S
C2549 H2534 0.930 . S
C2549 C2544 1.390 . S
C2549 C2548 1.387 . S
H2550 C2562 0.930 . S
H2551 C2564 0.930 . S
H2552 C2565 0.930 . S
H2553 C2569 0.959 . S
H2554 C2569 0.959 . S
H2555 C2569 0.961 . S
H2556 C2570 0.960 . S
H2557 C2570 0.961 1_655 S
H2558 C2570 0.959 . S
H2559 C2573 0.929 . S
H2560 C2574 0.931 . S
H2561 C2576 0.930 . S
C2562 H2550 0.930 . S
C2562 C2563 1.399 . S
C2562 C2567 1.399 . S
C2563 C2562 1.399 . S
C2563 C2564 1.376 1_556 S
C2564 H2551 0.930 . S
C2564 C2563 1.376 1_554 S
C2564 C2565 1.388 . S
C2565 H2552 0.930 . S
C2565 C2564 1.388 . S
C2565 C2566 1.390 . S
C2566 C2565 1.390 . S
C2566 C2567 1.394 1_554 S
C2566 C2572 1.465 1_455 S
C2567 C2562 1.399 . S
C2567 C2566 1.394 1_556 S
C2567 C2568 1.516 1_455 S
C2568 C2567 1.516 1_655 S
C2568 C2569 1.502 . S
C2568 C2570 1.561 1_655 S
C2568 C2571 1.526 . S
C2569 H2553 0.959 . S
C2569 H2554 0.959 . S
C2569 H2555 0.961 . S
C2569 C2568 1.502 . S
C2570 H2556 0.960 . S
C2570 H2557 0.961 1_455 S
C2570 H2558 0.959 . S
C2570 C2568 1.561 1_455 S
C2571 C2568 1.526 . S
C2571 C2572 1.396 1_556 S
C2571 C2576 1.390 . S
C2572 C2566 1.465 1_655 S
C2572 C2571 1.396 1_554 S
C2572 C2573 1.399 . S
C2573 H2559 0.929 . S
C2573 C2572 1.399 . S
C2573 C2574 1.385 . S
C2574 H2560 0.931 . S
C2574 C2573 1.385 . S
C2574 C2575 1.352 1_554 S
C2575 C2574 1.352 1_556 S
C2575 C2576 1.418 . S
C2576 H2561 0.930 . S
C2576 C2571 1.390 . S
C2576 C2575 1.418 . S
H2577 C2589 0.930 . S
H2578 C2591 0.930 . S
H2579 C2592 0.930 . S
H2580 C2596 0.959 . S
H2581 C2596 0.959 . S
H2582 C2596 0.961 1_455 S
H2583 C2597 0.960 . S
H2584 C2597 0.961 . S
H2585 C2597 0.959 . S
H2586 C2600 0.929 . S
H2587 C2601 0.931 . S
H2588 C2603 0.930 . S
C2589 H2577 0.930 . S
C2589 C2590 1.399 . S
C2589 C2594 1.399 . S
C2590 C2589 1.399 . S
C2590 C2591 1.376 . S
C2591 H2578 0.930 . S
C2591 C2590 1.376 . S
C2591 C2592 1.388 . S
C2592 H2579 0.930 . S
C2592 C2591 1.388 . S
C2592 C2593 1.390 . S
C2593 C2592 1.390 . S
C2593 C2594 1.394 . S
C2593 C2599 1.465 1_455 S
C2594 C2589 1.399 . S
C2594 C2593 1.394 . S
C2594 C2595 1.516 . S
C2595 C2594 1.516 . S
C2595 C2596 1.502 1_455 S
C2595 C2597 1.561 . S
C2595 C2598 1.526 1_455 S
C2596 H2580 0.959 . S
C2596 H2581 0.959 . S
C2596 H2582 0.961 1_655 S
C2596 C2595 1.502 1_655 S
C2597 H2583 0.960 . S
C2597 H2584 0.961 . S
C2597 H2585 0.959 . S
C2597 C2595 1.561 . S
C2598 C2595 1.526 1_655 S
C2598 C2599 1.396 . S
C2598 C2603 1.390 . S
C2599 C2593 1.465 1_655 S
C2599 C2598 1.396 . S
C2599 C2600 1.399 . S
C2600 H2586 0.929 . S
C2600 C2599 1.399 . S
C2600 C2601 1.385 . S
C2601 H2587 0.931 . S
C2601 C2600 1.385 . S
C2601 C2602 1.389 . S
C2602 C2601 1.389 . S
C2602 C2603 1.387 . S
C2603 H2588 0.930 . S
C2603 C2598 1.390 . S
C2603 C2602 1.387 . S
H2604 C2616 0.930 . S
H2605 C2618 0.930 . S
H2606 C2619 0.930 . S
H2607 C2623 0.959 . S
H2608 C2623 0.959 . S
H2609 C2623 0.961 . S
H2610 C2624 0.960 . S
H2611 C2624 0.961 . S
H2612 C2624 0.959 . S
H2613 C2627 0.929 . S
H2614 C2628 0.931 . S
H2615 C2630 0.930 . S
C2616 H2604 0.930 . S
C2616 C2617 1.399 . S
C2616 C2621 1.399 . S
C2617 C2616 1.399 . S
C2617 C2618 1.376 . S
C2618 H2605 0.930 . S
C2618 C2617 1.376 . S
C2618 C2619 1.388 . S
C2619 H2606 0.930 . S
C2619 C2618 1.388 . S
C2619 C2620 1.390 . S
C2620 C2619 1.390 . S
C2620 C2621 1.394 . S
C2620 C2626 1.465 . S
C2621 C2616 1.399 . S
C2621 C2620 1.394 . S
C2621 C2622 1.516 . S
C2622 C2621 1.516 . S
C2622 C2623 1.502 . S
C2622 C2624 1.561 . S
C2622 C2625 1.526 . S
C2623 H2607 0.959 . S
C2623 H2608 0.959 . S
C2623 H2609 0.961 . S
C2623 C2622 1.502 . S
C2624 H2610 0.960 . S
C2624 H2611 0.961 . S
C2624 H2612 0.959 . S
C2624 C2622 1.561 . S
C2625 C2622 1.526 . S
C2625 C2626 1.396 . S
C2625 C2630 1.390 . S
C2626 C2620 1.465 . S
C2626 C2625 1.396 . S
C2626 C2627 1.399 . S
C2627 H2613 0.929 . S
C2627 C2626 1.399 . S
C2627 C2628 1.385 . S
C2628 H2614 0.931 . S
C2628 C2627 1.385 . S
C2628 C2629 1.389 . S
C2629 C2628 1.389 . S
C2629 C2630 1.387 . S
C2630 H2615 0.930 . S
C2630 C2625 1.390 . S
C2630 C2629 1.387 . S
H2631 C2643 0.930 . S
H2632 C2645 0.930 . S
H2633 C2646 0.930 . S
H2634 C2650 0.959 . S
H2635 C2650 0.959 . S
H2636 C2650 0.961 . S
H2637 C2651 0.960 . S
H2638 C2651 0.961 . S
H2639 C2651 0.959 . S
H2640 C2654 0.929 . S
H2641 C2655 0.931 . S
H2642 C2657 0.930 . S
C2643 H2631 0.930 . S
C2643 C2644 1.399 . S
C2643 C2648 1.399 . S
C2644 C2643 1.399 . S
C2644 C2645 1.376 . S
C2645 H2632 0.930 . S
C2645 C2644 1.376 . S
C2645 C2646 1.388 . S
C2646 H2633 0.930 . S
C2646 C2645 1.388 . S
C2646 C2647 1.390 . S
C2647 C2646 1.390 . S
C2647 C2648 1.394 . S
C2647 C2653 1.465 . S
C2648 C2643 1.399 . S
C2648 C2647 1.394 . S
C2648 C2649 1.516 . S
C2649 C2648 1.516 . S
C2649 C2650 1.502 . S
C2649 C2651 1.561 . S
C2649 C2652 1.526 . S
C2650 H2634 0.959 . S
C2650 H2635 0.959 . S
C2650 H2636 0.961 . S
C2650 C2649 1.502 . S
C2651 H2637 0.960 . S
C2651 H2638 0.961 . S
C2651 H2639 0.959 . S
C2651 C2649 1.561 . S
C2652 C2649 1.526 . S
C2652 C2653 1.396 . S
C2652 C2657 1.390 . S
C2653 C2647 1.465 . S
C2653 C2652 1.396 . S
C2653 C2654 1.399 . S
C2654 H2640 0.929 . S
C2654 C2653 1.399 . S
C2654 C2655 1.385 . S
C2655 H2641 0.931 . S
C2655 C2654 1.385 . S
C2655 C2656 1.389 . S
C2656 C2655 1.389 . S
C2656 C2657 1.387 . S
C2657 H2642 0.930 . S
C2657 C2652 1.390 . S
C2657 C2656 1.387 . S
H2658 C2670 0.930 . S
H2659 C2672 0.930 . S
H2660 C2673 0.930 1_545 S
H2661 C2677 0.959 . S
H2662 C2677 0.959 . S
H2663 C2677 0.961 . S
H2664 C2678 0.960 . S
H2665 C2678 0.961 . S
H2666 C2678 0.959 . S
H2667 C2681 0.929 . S
H2668 C2682 0.931 . S
H2669 C2684 0.930 . S
C2670 H2658 0.930 . S
C2670 C2671 1.399 . S
C2670 C2675 1.399 . S
C2671 C2670 1.399 . S
C2671 C2672 1.376 . S
C2672 H2659 0.930 . S
C2672 C2671 1.376 . S
C2672 C2673 1.388 . S
C2673 H2660 0.930 1_565 S
C2673 C2672 1.388 . S
C2673 C2674 1.390 . S
C2674 C2673 1.390 . S
C2674 C2675 1.394 . S
C2674 C2680 1.465 1_565 S
C2675 C2670 1.399 . S
C2675 C2674 1.394 . S
C2675 C2676 1.516 . S
C2676 C2675 1.516 . S
C2676 C2677 1.502 . S
C2676 C2678 1.561 . S
C2676 C2679 1.526 1_565 S
C2677 H2661 0.959 . S
C2677 H2662 0.959 . S
C2677 H2663 0.961 . S
C2677 C2676 1.502 . S
C2678 H2664 0.960 . S
C2678 H2665 0.961 . S
C2678 H2666 0.959 . S
C2678 C2676 1.561 . S
C2679 C2676 1.526 1_545 S
C2679 C2680 1.396 . S
C2679 C2684 1.390 . S
C2680 C2674 1.465 1_545 S
C2680 C2679 1.396 . S
C2680 C2681 1.399 . S
C2681 H2667 0.929 . S
C2681 C2680 1.399 . S
C2681 C2682 1.385 . S
C2682 H2668 0.931 . S
C2682 C2681 1.385 . S
C2682 C2683 1.389 . S
C2683 C2682 1.389 . S
C2683 C2684 1.387 . S
C2684 H2669 0.930 . S
C2684 C2679 1.390 . S
C2684 C2683 1.387 . S
H2685 C2697 0.930 . S
H2686 C2699 0.930 . S
H2687 C2700 0.930 . S
H2688 C2704 0.959 . S
H2689 C2704 0.959 . S
H2690 C2704 0.961 . S
H2691 C2705 0.960 . S
H2692 C2705 0.961 . S
H2693 C2705 0.959 . S
H2694 C2708 0.929 . S
H2695 C2709 0.929 1_556 S
H2696 C2711 0.930 . S
C2697 H2685 0.930 . S
C2697 C2698 1.399 . S
C2697 C2702 1.399 . S
C2698 C2697 1.399 . S
C2698 C2699 1.376 . S
C2699 H2686 0.930 . S
C2699 C2698 1.376 . S
C2699 C2700 1.388 . S
C2700 H2687 0.930 . S
C2700 C2699 1.388 . S
C2700 C2701 1.390 . S
C2701 C2700 1.390 . S
C2701 C2702 1.394 . S
C2701 C2707 1.465 . S
C2702 C2697 1.399 . S
C2702 C2701 1.394 . S
C2702 C2703 1.516 . S
C2703 C2702 1.516 . S
C2703 C2704 1.502 1_554 S
C2703 C2705 1.561 . S
C2703 C2706 1.526 . S
C2704 H2688 0.959 . S
C2704 H2689 0.959 . S
C2704 H2690 0.961 . S
C2704 C2703 1.502 1_556 S
C2705 H2691 0.960 . S
C2705 H2692 0.961 . S
C2705 H2693 0.959 . S
C2705 C2703 1.561 . S
C2706 C2703 1.526 . S
C2706 C2707 1.396 . S
C2706 C2711 1.390 . S
C2707 C2701 1.465 . S
C2707 C2706 1.396 . S
C2707 C2708 1.399 . S
C2708 H2694 0.929 . S
C2708 C2707 1.399 . S
C2708 C2709 1.385 . S
C2709 H2695 0.929 1_554 S
C2709 C2708 1.385 . S
C2709 C2710 1.389 . S
C2710 C2709 1.389 . S
C2710 C2711 1.387 . S
C2711 H2696 0.930 . S
C2711 C2706 1.390 . S
C2711 C2710 1.387 . S
C1429 C1055 0.696 . S
C1441 C33 0.726 . S
C1456 C92 0.746 . S
C1468 C996 0.781 . S
C1483 C151 0.948 . S
C1495 C1173 0.935 . S
C1510 C210 0.927 . S
C1522 C1114 0.885 . S
C1537 C269 0.635 . S
C1549 C1291 0.653 . S
C1564 C328 0.944 . S
C1576 C1350 0.953 . S
C1591 C1232 0.655 . S
C1603 C387 0.717 . S
C1618 C701 0.984 . S
C1630 C446 0.952 . S
C1645 C505 0.641 . S
C1657 C229 0.667 . S
C1672 C111 0.948 . S
C1684 C564 0.940 . S
C1699 C623 1.152 . S
C1711 C52 1.162 . S
C1726 C682 0.954 . S
C1738 C878 0.913 . S
C1753 C347 1.110 . S
C1765 C741 1.180 . S
C1780 C288 1.174 . S
C1792 C800 1.179 . S
C1807 C859 0.940 . S
C1819 C465 0.939 . S
C1834 C918 0.959 . S
C1846 C406 0.961 . S
C1861 C583 1.106 . S
C1873 C977 1.178 . S
C1888 C642 0.977 . S
C1900 C1036 0.941 . S
C1915 C524 1.156 . S
C1927 C1095 1.162 . S
C1942 C1154 0.888 . S
C1954 C1409 0.896 . S
C1969 C937 1.170 . S
C1981 C1213 1.188 . S
C1996 C1272 0.958 . S
C2008 C819 0.888 . S
C2023 C760 0.764 . S
C2035 C1331 0.745 . S
C2050 C1390 0.900 . S
C2062 C170 0.902 . S
C2077 C5 1.779 . S
C2089 C64 1.748 . S
C2104 C182 1.648 . S
C2116 C123 1.668 . S
C2131 C241 1.791 . S
C2143 C359 1.763 . S
C2158 C300 2.082 . S
C2170 C418 2.032 . S
C2185 C1303 1.751 . S
C2197 C477 1.787 . S
C2212 C536 2.074 . S
C2224 C654 2.042 . S
C2239 C1185 1.967 . S
C2251 C595 1.957 . S
C2266 C772 1.996 . S
C2278 C713 1.927 . S
C2293 C831 2.065 . S
C2305 C890 2.038 . S
C2320 C1067 1.950 . S
C2332 C949 1.977 . S
C2347 C1008 1.625 . S
C2359 C1126 1.663 . S
C2374 C1362 1.643 1_554 S
C2386 C1244 1.657 . S
C2401 C121 1.254 . S
C2413 C3 1.196 . S
C2428 C62 1.555 . S
C2440 C180 1.498 . S
C2455 C1124 1.281 . S
C2467 C239 1.201 . S
C2482 C298 1.441 . S
C2494 C1065 1.514 . S
C2509 C357 1.584 . S
C2521 C1006 1.486 . S
C2536 C947 1.746 . S
C2548 C416 1.792 . S
C2563 C475 1.274 . S
C2575 C1360 1.218 . S
C2590 C534 1.482 . S
C2602 C593 1.481 . S
C2617 C1183 1.799 . S
C2629 C652 1.767 . S
C2644 C711 1.795 . S
C2656 C829 1.747 . S
C2671 C770 1.427 . S
C2683 C888 1.522 . S
C2698 C1301 1.581 . S
C2710 C1242 1.485 . S
