# Generated by pormake.
# Topology whw, (6)-cn, num edge types: 1
# Building blocks:
#     Node 0, Type 0, BuildingBlock: VOLQOD_clean_sbu_1, # of connection points: 6
#     Node 1, Type 0, BuildingBlock: VOLQOD_clean_sbu_1, # of connection points: 6
#     Node 2, Type 0, BuildingBlock: VOLQOD_clean_sbu_1, # of connection points: 6
#     Node 3, Type 0, BuildingBlock: VOLQOD_clean_sbu_1, # of connection points: 6
#     Node 4, Type 0, BuildingBlock: VOLQOD_clean_sbu_1, # of connection points: 6
#     Node 5, Type 0, BuildingBlock: VOLQOD_clean_sbu_1, # of connection points: 6
#     Node 6, Type 0, BuildingBlock: VOLQOD_clean_sbu_1, # of connection points: 6
#     Node 7, Type 0, BuildingBlock: VOLQOD_clean_sbu_1, # of connection points: 6
#     Node 8, Type 0, BuildingBlock: VOLQOD_clean_sbu_1, # of connection points: 6
#     Node 9, Type 0, BuildingBlock: VOLQOD_clean_sbu_1, # of connection points: 6
#     Node 10, Type 0, BuildingBlock: VOLQOD_clean_sbu_1, # of connection points: 6
#     Node 11, Type 0, BuildingBlock: VOLQOD_clean_sbu_1, # of connection points: 6
#     Node 12, Type 0, BuildingBlock: VOLQOD_clean_sbu_1, # of connection points: 6
#     Node 13, Type 0, BuildingBlock: VOLQOD_clean_sbu_1, # of connection points: 6
#     Node 14, Type 0, BuildingBlock: VOLQOD_clean_sbu_1, # of connection points: 6
#     Node 15, Type 0, BuildingBlock: VOLQOD_clean_sbu_1, # of connection points: 6
#     Edge 16, Type (0, 0), BuildingBlock: TEMPAE_clean_linker_10, # of connection points: 2
#     Edge 17, Type (0, 0), BuildingBlock: TEMPAE_clean_linker_10, # of connection points: 2
#     Edge 18, Type (0, 0), BuildingBlock: TEMPAE_clean_linker_10, # of connection points: 2
#     Edge 19, Type (0, 0), BuildingBlock: TEMPAE_clean_linker_10, # of connection points: 2
#     Edge 20, Type (0, 0), BuildingBlock: TEMPAE_clean_linker_10, # of connection points: 2
#     Edge 21, Type (0, 0), BuildingBlock: TEMPAE_clean_linker_10, # of connection points: 2
#     Edge 22, Type (0, 0), BuildingBlock: TEMPAE_clean_linker_10, # of connection points: 2
#     Edge 23, Type (0, 0), BuildingBlock: TEMPAE_clean_linker_10, # of connection points: 2
#     Edge 24, Type (0, 0), BuildingBlock: TEMPAE_clean_linker_10, # of connection points: 2
#     Edge 25, Type (0, 0), BuildingBlock: TEMPAE_clean_linker_10, # of connection points: 2
#     Edge 26, Type (0, 0), BuildingBlock: TEMPAE_clean_linker_10, # of connection points: 2
#     Edge 27, Type (0, 0), BuildingBlock: TEMPAE_clean_linker_10, # of connection points: 2
#     Edge 28, Type (0, 0), BuildingBlock: TEMPAE_clean_linker_10, # of connection points: 2
#     Edge 29, Type (0, 0), BuildingBlock: TEMPAE_clean_linker_10, # of connection points: 2
#     Edge 30, Type (0, 0), BuildingBlock: TEMPAE_clean_linker_10, # of connection points: 2
#     Edge 31, Type (0, 0), BuildingBlock: TEMPAE_clean_linker_10, # of connection points: 2
#     Edge 32, Type (0, 0), BuildingBlock: TEMPAE_clean_linker_10, # of connection points: 2
#     Edge 33, Type (0, 0), BuildingBlock: TEMPAE_clean_linker_10, # of connection points: 2
#     Edge 34, Type (0, 0), BuildingBlock: TEMPAE_clean_linker_10, # of connection points: 2
#     Edge 35, Type (0, 0), BuildingBlock: TEMPAE_clean_linker_10, # of connection points: 2
#     Edge 36, Type (0, 0), BuildingBlock: TEMPAE_clean_linker_10, # of connection points: 2
#     Edge 37, Type (0, 0), BuildingBlock: TEMPAE_clean_linker_10, # of connection points: 2
#     Edge 38, Type (0, 0), BuildingBlock: TEMPAE_clean_linker_10, # of connection points: 2
#     Edge 39, Type (0, 0), BuildingBlock: TEMPAE_clean_linker_10, # of connection points: 2
#     Edge 40, Type (0, 0), BuildingBlock: TEMPAE_clean_linker_10, # of connection points: 2
#     Edge 41, Type (0, 0), BuildingBlock: TEMPAE_clean_linker_10, # of connection points: 2
#     Edge 42, Type (0, 0), BuildingBlock: TEMPAE_clean_linker_10, # of connection points: 2
#     Edge 43, Type (0, 0), BuildingBlock: TEMPAE_clean_linker_10, # of connection points: 2
#     Edge 44, Type (0, 0), BuildingBlock: TEMPAE_clean_linker_10, # of connection points: 2
#     Edge 45, Type (0, 0), BuildingBlock: TEMPAE_clean_linker_10, # of connection points: 2
#     Edge 46, Type (0, 0), BuildingBlock: TEMPAE_clean_linker_10, # of connection points: 2
#     Edge 47, Type (0, 0), BuildingBlock: TEMPAE_clean_linker_10, # of connection points: 2
#     Edge 48, Type (0, 0), BuildingBlock: TEMPAE_clean_linker_10, # of connection points: 2
#     Edge 49, Type (0, 0), BuildingBlock: TEMPAE_clean_linker_10, # of connection points: 2
#     Edge 50, Type (0, 0), BuildingBlock: TEMPAE_clean_linker_10, # of connection points: 2
#     Edge 51, Type (0, 0), BuildingBlock: TEMPAE_clean_linker_10, # of connection points: 2
#     Edge 52, Type (0, 0), BuildingBlock: TEMPAE_clean_linker_10, # of connection points: 2
#     Edge 53, Type (0, 0), BuildingBlock: TEMPAE_clean_linker_10, # of connection points: 2
#     Edge 54, Type (0, 0), BuildingBlock: TEMPAE_clean_linker_10, # of connection points: 2
#     Edge 55, Type (0, 0), BuildingBlock: TEMPAE_clean_linker_10, # of connection points: 2
#     Edge 56, Type (0, 0), BuildingBlock: TEMPAE_clean_linker_10, # of connection points: 2
#     Edge 57, Type (0, 0), BuildingBlock: TEMPAE_clean_linker_10, # of connection points: 2
#     Edge 58, Type (0, 0), BuildingBlock: TEMPAE_clean_linker_10, # of connection points: 2
#     Edge 59, Type (0, 0), BuildingBlock: TEMPAE_clean_linker_10, # of connection points: 2
#     Edge 60, Type (0, 0), BuildingBlock: TEMPAE_clean_linker_10, # of connection points: 2
#     Edge 61, Type (0, 0), BuildingBlock: TEMPAE_clean_linker_10, # of connection points: 2
#     Edge 62, Type (0, 0), BuildingBlock: TEMPAE_clean_linker_10, # of connection points: 2
#     Edge 63, Type (0, 0), BuildingBlock: TEMPAE_clean_linker_10, # of connection points: 2
# Relax obj value: 0.800
# Max RMSD: 0.286
# Mean RMSD: 0.286
data_MOF--net-whw--node1-VOLQOD_clean_sbu_1--edge1-TEMPAE_clean_linker_10
_symmetry_space_group_name_H-M    P1
_symmetry_Int_Tables_number       1
_symmetry_cell_setting            triclinic
loop_
_symmetry_equiv_pos_as_xyz
'x, y, z'
_cell_length_a     56.494576
_cell_length_b     56.480325
_cell_length_c     24.396478
_cell_angle_alpha  89.937602
_cell_angle_beta   90.084248
_cell_angle_gamma 90.013163
loop_
_atom_site_label
_atom_site_type_symbol
_atom_site_fract_x
_atom_site_fract_y
_atom_site_fract_z
_atom_type_partial_charge
O0 O 0.95529 0.14866 0.24156 0.0
Zn1 Zn 0.98033 0.1479 0.18455 0.0
O2 O 0.98753 0.11601 0.16717 0.0
Zn3 Zn 0.02163 0.11214 0.15786 0.0
Zn4 Zn 0.97633 0.09472 0.22333 0.0
Zn5 Zn 0.97158 0.11044 0.10073 0.0
O6 O 0.03058 0.10983 0.07713 0.0
O7 O 0.99483 0.11093 0.0392 0.0
O8 O 0.00884 0.16234 0.21816 0.0
O9 O 0.03889 0.13974 0.19106 0.0
O10 O 0.03261 0.08533 0.20555 0.0
O11 O 0.00582 0.09038 0.2705 0.0
O12 O 0.96419 0.06434 0.18556 0.0
O13 O 0.96914 0.1657 0.11666 0.0
O14 O 0.95618 0.07929 0.10294 0.0
O15 O 0.9486 0.1358 0.08247 0.0
C16 C 0.94511 0.13345 0.27201 0.0
C17 C 0.01727 0.11057 0.03479 0.0
C18 C 0.0273 0.08669 0.25627 0.0
C19 C 0.03078 0.15736 0.21732 0.0
C20 C 0.95553 0.06233 0.13719 0.0
C21 C 0.9539 0.15768 0.08279 0.0
O22 O 0.95044 0.11142 0.26953 0.0
O23 O 0.12656 0.73943 0.45047 0.0
Zn24 Zn 0.11919 0.75855 0.38345 0.0
O25 O 0.14214 0.78264 0.3731 0.0
Zn26 Zn 0.12604 0.81141 0.3549 0.0
Zn27 Zn 0.15948 0.78726 0.43972 0.0
Zn28 Zn 0.16201 0.7749 0.31186 0.0
O29 O 0.14112 0.82986 0.29447 0.0
O30 O 0.15948 0.80023 0.2532 0.0
O31 O 0.08723 0.77337 0.38728 0.0
O32 O 0.09455 0.8017 0.32656 0.0
O33 O 0.12107 0.83138 0.42111 0.0
O34 O 0.14313 0.81338 0.48414 0.0
O35 O 0.19159 0.7981 0.41096 0.0
O36 O 0.11794 0.73751 0.3171 0.0
O37 O 0.19537 0.77404 0.33918 0.0
O38 O 0.15119 0.74537 0.27248 0.0
C39 C 0.14302 0.74018 0.48616 0.0
C40 C 0.15173 0.82141 0.25296 0.0
C41 C 0.12851 0.82958 0.47018 0.0
C42 C 0.08036 0.7874 0.34966 0.0
C43 C 0.20369 0.78993 0.37089 0.0
C44 C 0.1319 0.73384 0.27706 0.0
O45 O 0.15846 0.75679 0.48666 0.0
O46 O 0.56173 0.82945 0.69837 0.0
Zn47 Zn 0.54643 0.83857 0.62808 0.0
O48 O 0.54974 0.87151 0.61605 0.0
Zn49 Zn 0.51946 0.88456 0.59433 0.0
Zn50 Zn 0.5607 0.88664 0.68161 0.0
Zn51 Zn 0.56982 0.87605 0.55453 0.0
O52 O 0.51992 0.90397 0.52481 0.0
O53 O 0.54875 0.88241 0.48993 0.0
O54 O 0.51238 0.8292 0.62567 0.0
O55 O 0.49987 0.85761 0.57002 0.0
O56 O 0.50294 0.89857 0.65953 0.0
O57 O 0.5311 0.89701 0.72336 0.0
O58 O 0.58002 0.91511 0.65435 0.0
O59 O 0.56256 0.82056 0.56756 0.0
O60 O 0.58964 0.90444 0.56886 0.0
O61 O 0.58738 0.84673 0.53162 0.0
C62 C 0.57466 0.83982 0.73378 0.0
C63 C 0.53012 0.89476 0.48339 0.0
C64 C 0.50963 0.90092 0.70922 0.0
C65 C 0.49768 0.83715 0.59065 0.0
C66 C 0.59055 0.91906 0.60864 0.0
C67 C 0.57932 0.82568 0.53474 0.0
O68 O 0.57814 0.86226 0.73147 0.0
O69 O 0.40408 0.22346 0.01894 0.0
Zn70 Zn 0.41458 0.2033 0.95692 0.0
O71 O 0.38848 0.18473 0.93164 0.0
Zn72 Zn 0.39807 0.15185 0.91932 0.0
Zn73 Zn 0.3623 0.18606 0.98281 0.0
Zn74 Zn 0.37948 0.19845 0.86483 0.0
O75 O 0.39916 0.14347 0.83778 0.0
O76 O 0.39134 0.17897 0.80309 0.0
O77 O 0.43993 0.18172 0.98364 0.0
O78 O 0.43103 0.14684 0.94682 0.0
O79 O 0.37911 0.1304 0.96855 0.0
O80 O 0.36847 0.15717 0.02998 0.0
O81 O 0.33061 0.18726 0.93977 0.0
O82 O 0.42713 0.22544 0.89731 0.0
O83 O 0.3451 0.20031 0.86036 0.0
O84 O 0.39303 0.23039 0.85408 0.0
C85 C 0.38481 0.22713 0.04453 0.0
C86 C 0.39787 0.1576 0.79694 0.0
C87 C 0.37602 0.13642 0.01845 0.0
C88 C 0.4445 0.15995 0.97535 0.0
C89 C 0.3277 0.19493 0.89074 0.0
C90 C 0.41426 0.23668 0.86308 0.0
O91 O 0.36618 0.21508 0.0337 0.0
O92 O 0.9655 0.83294 0.81128 0.0
Zn93 Zn 0.99099 0.839 0.86709 0.0
O94 O -0.00085 0.87194 0.86504 0.0
Zn95 Zn 0.03167 0.87535 0.84344 0.0
Zn96 Zn 0.98057 0.88957 0.81184 0.0
Zn97 Zn -0.00254 0.8836 0.93721 0.0
O98 O 0.05414 0.87543 0.90762 0.0
O99 O 0.02905 0.88166 0.97597 0.0
O100 O 0.01909 0.82003 0.84147 0.0
O101 O 0.0387 0.84788 0.79541 0.0
O102 O 0.03579 0.90396 0.79691 0.0
O103 O 0.00335 0.89736 0.74926 0.0
O104 O 0.96722 0.91901 0.85134 0.0
O105 O 0.97649 0.82916 0.94043 0.0
O106 O 0.9842 0.91572 0.93416 0.0
O107 O 0.97436 0.86457 0.97954 0.0
C108 C 0.95253 0.84547 0.77985 0.0
C109 C 0.05 0.87804 0.95853 0.0
C110 C 0.02508 0.90353 0.75111 0.0
C111 C 0.03381 0.82629 0.80445 0.0
C112 C 0.97152 0.92689 0.89962 0.0
C113 C 0.96878 0.84279 0.97811 0.0
O114 O 0.9551 0.86797 0.77733 0.0
O115 O 0.34435 0.76453 0.03566 0.0
Zn116 Zn 0.36674 0.77026 0.09748 0.0
O117 O 0.37799 0.80275 0.10363 0.0
Zn118 Zn 0.41124 0.80642 0.0906 0.0
Zn119 Zn 0.36104 0.81968 0.04675 0.0
Zn120 Zn 0.37128 0.81263 0.1769 0.0
O121 O 0.42775 0.82367 0.15309 0.0
O122 O 0.39838 0.83016 0.21168 0.0
O123 O 0.39418 0.75024 0.07898 0.0
O124 O 0.42527 0.77445 0.07744 0.0
O125 O 0.41637 0.82605 0.02368 0.0
O126 O 0.38219 0.84467 0.0097 0.0
O127 O 0.33108 0.83315 0.08375 0.0
O128 O 0.3538 0.75681 0.16704 0.0
O129 O 0.34275 0.83263 0.17153 0.0
O130 O 0.36347 0.78474 0.2266 0.0
C131 C 0.34789 0.77386 0.98905 0.0
C132 C 0.41996 0.83244 0.1977 0.0
C133 C 0.40415 0.84173 0.99905 0.0
C134 C 0.41617 0.7539 0.07245 0.0
C135 C 0.32783 0.83823 0.13448 0.0
C136 C 0.35554 0.76409 0.21614 0.0
O137 O 0.35528 0.79518 0.98584 0.0
O138 O 0.60078 0.13189 0.32114 0.0
Zn139 Zn 0.5732 0.14667 0.35849 0.0
O140 O 0.54837 0.1238 0.37037 0.0
Zn141 Zn 0.51757 0.13722 0.35814 0.0
Zn142 Zn 0.55482 0.09866 0.31753 0.0
Zn143 Zn 0.5512 0.11493 0.44549 0.0
O144 O 0.49842 0.13854 0.42869 0.0
O145 O 0.51957 0.11454 0.48216 0.0
O146 O 0.56055 0.17155 0.30868 0.0
O147 O 0.52152 0.16863 0.31919 0.0
O148 O 0.49921 0.11679 0.30695 0.0
O149 O 0.52448 0.09015 0.2741 0.0
O150 O 0.56853 0.07043 0.36131 0.0
O151 O 0.58469 0.16261 0.42728 0.0
O152 O 0.56695 0.08363 0.44782 0.0
O153 O 0.56995 0.13842 0.48987 0.0
C154 C 0.59732 0.12426 0.27297 0.0
C155 C 0.50099 0.12668 0.47291 0.0
C156 C 0.50379 0.09931 0.27595 0.0
C157 C 0.53966 0.1788 0.29859 0.0
C158 C 0.57264 0.06794 0.41275 0.0
C159 C 0.5819 0.15669 0.47713 0.0
O160 O 0.57857 0.11251 0.2621 0.0
O161 O 0.1349 0.27585 0.5576 0.0
Zn162 Zn 0.11084 0.25619 0.59486 0.0
O163 O 0.12177 0.2241 0.60663 0.0
Zn164 Zn 0.09703 0.20135 0.59003 0.0
Zn165 Zn 0.15014 0.21909 0.56084 0.0
Zn166 Zn 0.12752 0.22142 0.68341 0.0
O167 O 0.08367 0.18423 0.65688 0.0
O168 O 0.11026 0.19502 0.71887 0.0
O169 O 0.08367 0.25504 0.54291 0.0
O170 O 0.07153 0.21758 0.54673 0.0
O171 O 0.10956 0.17697 0.53975 0.0
O172 O 0.14428 0.19035 0.50947 0.0
O173 O 0.17894 0.21384 0.61346 0.0
O174 O 0.10119 0.27351 0.66396 0.0
O175 O 0.16126 0.2172 0.69473 0.0
O176 O 0.11675 0.2494 0.72581 0.0
C177 C 0.14916 0.27036 0.51952 0.0
C178 C 0.0923 0.18292 0.70506 0.0
C179 C 0.12749 0.17511 0.50873 0.0
C180 C 0.06962 0.23862 0.52828 0.0
C181 C 0.17974 0.21428 0.66607 0.0
C182 C 0.10583 0.2683 0.71355 0.0
O183 O 0.15524 0.24879 0.51153 0.0
O184 O 0.88228 0.22854 0.58508 0.0
Zn185 Zn 0.89605 0.25508 0.62762 0.0
O186 O 0.87275 0.27858 0.63732 0.0
Zn187 Zn 0.88649 0.30987 0.63098 0.0
Zn188 Zn 0.84795 0.27616 0.5832 0.0
Zn189 Zn 0.8615 0.27411 0.709 0.0
O190 O 0.89422 0.3239 0.7052 0.0
O191 O 0.87402 0.29918 0.75822 0.0
O192 O 0.92105 0.26899 0.57966 0.0
O193 O 0.91565 0.30802 0.58498 0.0
O194 O 0.86479 0.32998 0.58601 0.0
O195 O 0.85669 0.30146 0.52722 0.0
O196 O 0.81674 0.28444 0.62272 0.0
O197 O 0.90803 0.24324 0.70147 0.0
O198 O 0.82717 0.27741 0.70962 0.0
O199 O 0.87321 0.24449 0.74324 0.0
C200 C 0.86474 0.22629 0.55267 0.0
C201 C 0.88708 0.3173 0.75236 0.0
C202 C 0.86223 0.32301 0.53673 0.0
C203 C 0.9263 0.29008 0.56572 0.0
C204 C 0.81188 0.2833 0.67394 0.0
C205 C 0.89487 0.23832 0.74243 0.0
O206 O 0.84973 0.2431 0.54593 0.0
O207 O 0.59434 0.71713 0.05687 0.0
Zn208 Zn 0.58616 0.69274 0.1137 0.0
O209 O 0.60875 0.66721 0.11158 0.0
Zn210 Zn 0.59407 0.63618 0.09712 0.0
Zn211 Zn 0.63268 0.67323 0.05612 0.0
Zn212 Zn 0.62183 0.66501 0.18274 0.0
O213 O 0.59173 0.6148 0.16408 0.0
O214 O 0.60586 0.6398 0.22571 0.0
O215 O 0.55429 0.67946 0.09626 0.0
O216 O 0.56036 0.64122 0.07818 0.0
O217 O 0.6067 0.62083 0.02886 0.0
O218 O 0.62177 0.65316 0.99103 0.0
O219 O 0.666 0.66625 0.08973 0.0
O220 O 0.586 0.71017 0.18661 0.0
O221 O 0.65559 0.65851 0.17612 0.0
O222 O 0.61768 0.69464 0.2262 0.0
C223 C 0.61251 0.72161 0.02776 0.0
C224 C 0.59518 0.62067 0.21388 0.0
C225 C 0.61174 0.63297 0.9864 0.0
C226 C 0.54695 0.65912 0.08147 0.0
C227 C 0.67125 0.66011 0.13899 0.0
C228 C 0.6012 0.70996 0.22526 0.0
O229 O 0.63009 0.70734 0.02669 0.0
O230 O 0.65407 0.24372 0.96799 0.0
Zn231 Zn 0.62875 0.25512 0.91692 0.0
O232 O 0.62136 0.28808 0.92658 0.0
Zn233 Zn 0.58832 0.29431 0.93663 0.0
Zn234 Zn 0.64086 0.29859 0.98689 0.0
Zn235 Zn 0.6286 0.30329 0.86013 0.0
O236 O 0.5739 0.31211 0.87155 0.0
O237 O 0.60686 0.32983 0.84452 0.0
O238 O 0.60065 0.23692 0.93995 0.0
O239 O 0.57183 0.2633 0.95209 0.0
O240 O 0.58526 0.31649 0.00027 0.0
O241 O 0.62183 0.32266 0.03246 0.0
O242 O 0.67198 0.31128 0.9534 0.0
O243 O 0.63454 0.24624 0.83822 0.0
O244 O 0.66073 0.31532 0.86614 0.0
O245 O 0.62671 0.28033 0.79678 0.0
C246 C 0.65349 0.24878 0.01882 0.0
C247 C 0.58444 0.32842 0.84476 0.0
C248 C 0.59954 0.3268 0.03296 0.0
C249 C 0.57945 0.242 0.95259 0.0
C250 C 0.67618 0.31735 0.9037 0.0
C251 C 0.63086 0.25817 0.79472 0.0
O252 O 0.64698 0.26937 0.03432 0.0
O253 O 0.89248 0.75369 0.43328 0.0
Zn254 Zn 0.88802 0.74526 0.35527 0.0
O255 O 0.87103 0.71643 0.34781 0.0
Zn256 Zn 0.8913 0.69024 0.32585 0.0
Zn257 Zn 0.85577 0.70988 0.41697 0.0
Zn258 Zn 0.84926 0.72251 0.28895 0.0
O259 O 0.87745 0.6717 0.26374 0.0
O260 O 0.85179 0.69762 0.23017 0.0
O261 O 0.91836 0.74116 0.31787 0.0
O262 O 0.92188 0.70316 0.29555 0.0
O263 O 0.89795 0.66866 0.38938 0.0
O264 O 0.87283 0.68187 0.45264 0.0
O265 O 0.82183 0.70046 0.39411 0.0
O266 O 0.87446 0.77301 0.31502 0.0
O267 O 0.81669 0.72251 0.31904 0.0
O268 O 0.85721 0.75257 0.24939 0.0
C269 C 0.87916 0.75112 0.47487 0.0
C270 C 0.86316 0.67824 0.22633 0.0
C271 C 0.88908 0.66761 0.43727 0.0
C272 C 0.92936 0.7244 0.29446 0.0
C273 C 0.80877 0.70825 0.35501 0.0
C274 C 0.86665 0.77163 0.26628 0.0
O275 O 0.86096 0.73752 0.47307 0.0
O276 O 0.40579 0.66589 0.66183 0.0
Zn277 Zn 0.41729 0.6545 0.58993 0.0
O278 O 0.43692 0.62681 0.59642 0.0
Zn279 Zn 0.47023 0.63334 0.58503 0.0
Zn280 Zn 0.43202 0.6128 0.66892 0.0
Zn281 Zn 0.42646 0.60882 0.53349 0.0
O282 O 0.48478 0.61143 0.52996 0.0
O283 O 0.4535 0.59681 0.48685 0.0
O284 O 0.43648 0.67899 0.55314 0.0
O285 O 0.47372 0.66602 0.55332 0.0
O286 O 0.48897 0.62901 0.65415 0.0
O287 O 0.46417 0.60985 0.7095 0.0
O288 O 0.41638 0.58019 0.65431 0.0
O289 O 0.38868 0.65136 0.54188 0.0
O290 O 0.40939 0.5813 0.56375 0.0
O291 O 0.40563 0.62778 0.48193 0.0
C292 C 0.40368 0.65615 0.70852 0.0
C293 C 0.4758 0.59877 0.49228 0.0
C294 C 0.48474 0.61826 0.69902 0.0
C295 C 0.45817 0.68143 0.54055 0.0
C296 C 0.40749 0.5713 0.6104 0.0
C297 C 0.38992 0.64305 0.49373 0.0
O298 O 0.4117 0.63529 0.71766 0.0
O299 O 0.08299 0.37493 0.21401 0.0
Zn300 Zn 0.0577 0.35803 0.17126 0.0
O301 O 0.02747 0.37392 0.17679 0.0
Zn302 Zn 0.00254 0.35191 0.19082 0.0
Zn303 Zn 0.03046 0.39771 0.23327 0.0
Zn304 Zn 0.0191 0.38696 0.10796 0.0
O305 O 0.98254 0.34574 0.12335 0.0
O306 O 0.98513 0.3818 0.08836 0.0
O307 O 0.05501 0.32666 0.20945 0.0
O308 O 0.01622 0.32203 0.22088 0.0
O309 O 0.98154 0.36552 0.2478 0.0
O310 O 0.00052 0.39695 0.28169 0.0
O311 O 0.03573 0.43003 0.19493 0.0
O312 O 0.0668 0.35254 0.09186 0.0
O313 O 0.02676 0.42076 0.10825 0.0
O314 O 0.03761 0.37125 0.04869 0.0
C315 C 0.0793 0.38006 0.26407 0.0
C316 C 0.97517 0.36163 0.09037 0.0
C317 C 0.98275 0.38288 0.28081 0.0
C318 C 0.03742 0.31481 0.22704 0.0
C319 C 0.03324 0.4356 0.1443 0.0
C320 C 0.05615 0.3585 0.0478 0.0
O321 O 0.05898 0.38744 0.27958 0.0
O322 O 0.43501 0.33039 0.37397 0.0
Zn323 Zn 0.46322 0.33908 0.41935 0.0
O324 O 0.46764 0.37281 0.41889 0.0
Zn325 Zn 0.50053 0.38045 0.40402 0.0
Zn326 Zn 0.44862 0.3878 0.36249 0.0
Zn327 Zn 0.46022 0.38457 0.49006 0.0
O328 O 0.51765 0.38718 0.47461 0.0
O329 O 0.48797 0.40033 0.52539 0.0
O330 O 0.49069 0.32415 0.38196 0.0
O331 O 0.51635 0.3533 0.3662 0.0
O332 O 0.50296 0.40686 0.34974 0.0
O333 O 0.47192 0.39578 0.30121 0.0
O334 O 0.43084 0.4162 0.39643 0.0
O335 O 0.46016 0.32582 0.49596 0.0
O336 O 0.43391 0.40741 0.48545 0.0
O337 O 0.45317 0.35857 0.54329 0.0
C338 C 0.42242 0.34145 0.33895 0.0
C339 C 0.50993 0.39637 0.51879 0.0
C340 C 0.49313 0.40358 0.30339 0.0
C341 C 0.50995 0.33185 0.36178 0.0
C342 C 0.42521 0.41972 0.44667 0.0
C343 C 0.45553 0.33621 0.54101 0.0
O344 O 0.42554 0.36354 0.32986 0.0
O345 O 0.06935 0.64933 0.788 0.0
Zn346 Zn 0.04046 0.65765 0.83 0.0
O347 O 0.01942 0.6307 0.83704 0.0
Zn348 Zn 0.98726 0.63877 0.81353 0.0
Zn349 Zn 0.03138 0.60391 0.79307 0.0
Zn350 Zn 0.01821 0.62418 0.914 0.0
O351 O 0.964 0.64122 0.87578 0.0
O352 O 0.98617 0.6304 0.94669 0.0
O353 O 0.02479 0.68096 0.78122 0.0
O354 O 0.98753 0.66903 0.76949 0.0
O355 O 0.97476 0.61499 0.76131 0.0
O356 O 0.00689 0.59579 0.73349 0.0
O357 O 0.03831 0.5755 0.84553 0.0
O358 O 0.05185 0.67212 0.90183 0.0
O359 O 0.02731 0.59128 0.92536 0.0
O360 O 0.04171 0.64275 0.9572 0.0
C361 C 0.07431 0.63277 0.75486 0.0
C362 C 0.96645 0.63707 0.92673 0.0
C363 C 0.98493 0.6008 0.72862 0.0
C364 C 0.0045 0.68312 0.75911 0.0
C365 C 0.03545 0.57413 0.89761 0.0
C366 C 0.05267 0.662 0.94846 0.0
O367 O 0.06097 0.6146 0.74998 0.0
C368 C 0.0135 0.1241 0.93783 0.0
C369 C 0.02769 0.11458 0.97977 0.0
C370 C 0.02344 0.13223 0.88871 0.0
C371 C 0.04815 0.13031 0.88063 0.0
C372 C 0.06232 0.11895 0.92082 0.0
C373 C 0.05197 0.11149 0.97032 0.0
C374 C 0.00771 0.14474 0.84777 0.0
C375 C 0.08865 0.11602 0.91303 0.0
C376 C 0.07212 0.14612 0.73908 0.0
C377 C 0.08031 0.16918 0.74823 0.0
C378 C 0.06205 0.13288 0.78212 0.0
C379 C 0.05948 0.14336 0.83458 0.0
C380 C 0.06722 0.1669 0.84326 0.0
C381 C 0.07786 0.17934 0.80025 0.0
C382 C 0.05447 0.10766 0.7718 0.0
C383 C 0.06413 0.17909 0.89792 0.0
H384 H 0.99472 0.12665 0.94463 0.0
H385 H 0.06302 0.10396 0.00225 0.0
H386 H 0.01109 0.16408 0.84979 0.0
H387 H 0.01166 0.13892 0.80538 0.0
H388 H 0.98863 0.14163 0.85608 0.0
H389 H 0.09638 0.10345 0.94318 0.0
H390 H 0.09259 0.10963 0.87103 0.0
H391 H 0.09751 0.13342 0.91811 0.0
H392 H 0.07422 0.13825 0.69887 0.0
H393 H 0.08402 0.19729 0.8071 0.0
H394 H 0.03527 0.10565 0.78004 0.0
H395 H 0.06395 0.09561 0.8003 0.0
H396 H 0.05806 0.10197 0.72904 0.0
H397 H 0.04519 0.17894 0.90993 0.0
H398 H 0.07037 0.19775 0.89717 0.0
H399 H 0.07412 0.16944 0.93011 0.0
C400 C 0.14473 0.82057 0.15251 0.0
C401 C 0.1487 0.83391 0.20011 0.0
C402 C 0.13275 0.8304 0.10752 0.0
C403 C 0.12529 0.85432 0.1097 0.0
C404 C 0.13243 0.86871 0.15424 0.0
C405 C 0.14381 0.85825 0.19939 0.0
C406 C 0.12545 0.81431 0.06108 0.0
C407 C 0.1258 0.89455 0.157 0.0
C408 C 0.09317 0.87777 0.9834 0.0
C409 C 0.06943 0.87444 0.99849 0.0
C410 C 0.11168 0.87237 0.01998 0.0
C411 C 0.10628 0.86264 0.07199 0.0
C412 C 0.0823 0.85961 0.08761 0.0
C413 C 0.06422 0.86588 0.05102 0.0
C414 C 0.13695 0.87649 0.00242 0.0
C415 C 0.07569 0.84887 0.14229 0.0
H416 H 0.1485 0.80174 0.15262 0.0
H417 H 0.14718 0.86873 0.2358 0.0
H418 H 0.1064 0.80985 0.06545 0.0
H419 H 0.12773 0.82321 0.02093 0.0
H420 H 0.13573 0.79754 0.06095 0.0
H421 H 0.13693 0.90427 0.18707 0.0
H422 H 0.1276 0.90309 0.11623 0.0
H423 H 0.10704 0.89619 0.16981 0.0
H424 H 0.09728 0.88448 0.94286 0.0
H425 H 0.04593 0.86305 0.06275 0.0
H426 H 0.14548 0.85928 0.99307 0.0
H427 H 0.14726 0.8849 0.0359 0.0
H428 H 0.13803 0.88786 0.96531 0.0
H429 H 0.08333 0.83083 0.14585 0.0
H430 H 0.05622 0.84759 0.14796 0.0
H431 H 0.08311 0.85965 0.17616 0.0
C432 C 0.43518 0.84053 0.2916 0.0
C433 C 0.43635 0.84485 0.23514 0.0
C434 C 0.45114 0.85134 0.3279 0.0
C435 C 0.46803 0.8677 0.30751 0.0
C436 C 0.46866 0.87281 0.25064 0.0
C437 C 0.45314 0.86088 0.21491 0.0
C438 C 0.45037 0.84469 0.38788 0.0
C439 C 0.48577 0.89071 0.22747 0.0
C440 C 0.49577 0.90449 0.42133 0.0
C441 C 0.51681 0.89197 0.43115 0.0
C442 C 0.48048 0.89794 0.37828 0.0
C443 C 0.486 0.87796 0.34555 0.0
C444 C 0.50781 0.86613 0.35336 0.0
C445 C 0.52312 0.87359 0.39516 0.0
C446 C 0.45784 0.91162 0.36974 0.0
C447 C 0.51437 0.84457 0.31998 0.0
H448 H 0.42225 0.82804 0.30717 0.0
H449 H 0.45386 0.86439 0.17123 0.0
H450 H 0.46816 0.83903 0.40194 0.0
H451 H 0.44524 0.8603 0.41267 0.0
H452 H 0.43762 0.83015 0.39627 0.0
H453 H 0.48133 0.89558 0.18454 0.0
H454 H 0.4859 0.90701 0.25285 0.0
H455 H 0.50394 0.88332 0.22809 0.0
H456 H 0.49078 0.91878 0.44859 0.0
H457 H 0.53934 0.86376 0.40202 0.0
H458 H 0.44268 0.90115 0.38541 0.0
H459 H 0.45474 0.91484 0.32541 0.0
H460 H 0.45813 0.9289 0.39146 0.0
H461 H 0.49988 0.8313 0.3212 0.0
H462 H 0.53089 0.836 0.33482 0.0
H463 H 0.51691 0.84968 0.27652 0.0
C464 C 0.41167 0.12687 0.72933 0.0
C465 C 0.40751 0.15063 0.7428 0.0
C466 C 0.42388 0.12085 0.68105 0.0
C467 C 0.43279 0.13905 0.64669 0.0
C468 C 0.42773 0.16298 0.65899 0.0
C469 C 0.41488 0.16842 0.7063 0.0
C470 C 0.42821 0.09509 0.66818 0.0
C471 C 0.43741 0.18302 0.62452 0.0
C472 C 0.49053 0.12906 0.57151 0.0
C473 C 0.48309 0.12838 0.51674 0.0
C474 C 0.47424 0.13202 0.61418 0.0
C475 C 0.44978 0.13353 0.60193 0.0
C476 C 0.44205 0.13183 0.54677 0.0
C477 C 0.45888 0.12976 0.50459 0.0
C478 C 0.48336 0.13457 0.67215 0.0
C479 C 0.41608 0.13261 0.53232 0.0
H480 H 0.40588 0.11303 0.75706 0.0
H481 H 0.41188 0.18687 0.71631 0.0
H482 H 0.42485 0.09152 0.62412 0.0
H483 H 0.44699 0.09065 0.67661 0.0
H484 H 0.41686 0.08322 0.6932 0.0
H485 H 0.43061 0.20057 0.6377 0.0
H486 H 0.45702 0.18327 0.62756 0.0
H487 H 0.43282 0.18042 0.58075 0.0
H488 H 0.50928 0.12818 0.5809 0.0
H489 H 0.45312 0.129 0.46221 0.0
H490 H 0.47521 0.121 0.69902 0.0
H491 H 0.47832 0.15217 0.68862 0.0
H492 H 0.50291 0.13277 0.6747 0.0
H493 H 0.40602 0.12008 0.55851 0.0
H494 H 0.41284 0.12813 0.48862 0.0
H495 H 0.40896 0.15058 0.54019 0.0
C496 C 0.86868 0.78642 0.16982 0.0
C497 C 0.87518 0.78891 0.22506 0.0
C498 C 0.8818 0.7974 0.12812 0.0
C499 C 0.90212 0.8108 0.14195 0.0
C500 C 0.90744 0.81518 0.19783 0.0
C501 C 0.89366 0.80447 0.23866 0.0
C502 C 0.87464 0.79354 0.06918 0.0
C503 C 0.92806 0.83042 0.21557 0.0
C504 C 0.95189 0.81052 0.03692 0.0
C505 C 0.95162 0.83405 0.01902 0.0
C506 C 0.93592 0.80267 0.07716 0.0
C507 C 0.91871 0.81859 0.09825 0.0
C508 C 0.91789 0.84214 0.07868 0.0
C509 C 0.93461 0.84968 0.0401 0.0
C510 C 0.93762 0.77727 0.09628 0.0
C511 C 0.89942 0.85942 0.09854 0.0
H512 H 0.8542 0.77475 0.15885 0.0
H513 H 0.89862 0.8069 0.28123 0.0
H514 H 0.87622 0.81023 0.04539 0.0
H515 H 0.88661 0.78031 0.05026 0.0
H516 H 0.85619 0.78689 0.06569 0.0
H517 H 0.9361 0.8235 0.25396 0.0
H518 H 0.94211 0.83183 0.18406 0.0
H519 H 0.92147 0.84851 0.22453 0.0
H520 H 0.96493 0.79838 0.02047 0.0
H521 H 0.93409 0.86785 0.02567 0.0
H522 H 0.9268 0.76597 0.0688 0.0
H523 H 0.93111 0.77485 0.13876 0.0
H524 H 0.95617 0.77079 0.09419 0.0
H525 H 0.88164 0.85103 0.09875 0.0
H526 H 0.89869 0.87563 0.07275 0.0
H527 H 0.90358 0.8648 0.14117 0.0
C528 C 0.89489 0.23413 0.84367 0.0
C529 C 0.90514 0.22831 0.79307 0.0
C530 C 0.90404 0.22523 0.89284 0.0
C531 C 0.92363 0.20971 0.89141 0.0
C532 C 0.93455 0.20428 0.84065 0.0
C533 C 0.92529 0.21388 0.79191 0.0
C534 C 0.89226 0.23191 0.94621 0.0
C535 C 0.95544 0.18767 0.83769 0.0
C536 C 0.95517 0.19441 0.02476 0.0
C537 C 0.94456 0.17267 0.03792 0.0
C538 C 0.94849 0.20688 0.97726 0.0
C539 C 0.93092 0.19725 0.94229 0.0
C540 C 0.9197 0.17571 0.95633 0.0
C541 C 0.92658 0.16377 0.00399 0.0
C542 C 0.96065 0.22995 0.96373 0.0
C543 C 0.90071 0.16498 0.92041 0.0
H544 H 0.87969 0.24583 0.84496 0.0
H545 H 0.93339 0.2096 0.75291 0.0
H546 H 0.88369 0.21607 0.96442 0.0
H547 H 0.90562 0.23834 0.97604 0.0
H548 H 0.8786 0.24586 0.94065 0.0
H549 H 0.96306 0.18671 0.7958 0.0
H550 H 0.96949 0.19336 0.86663 0.0
H551 H 0.94983 0.16962 0.85017 0.0
H552 H 0.9692 0.20132 0.05052 0.0
H553 H 0.91819 0.14704 0.01391 0.0
H554 H 0.94741 0.24389 0.95434 0.0
H555 H 0.97173 0.22765 0.92662 0.0
H556 H 0.97214 0.23621 0.99776 0.0
H557 H 0.88568 0.17748 0.91609 0.0
H558 H 0.89385 0.148 0.93707 0.0
H559 H 0.90783 0.1617 0.87874 0.0
C560 C 0.61379 0.25448 0.70061 0.0
C561 C 0.6285 0.24544 0.742 0.0
C562 C 0.608 0.24082 0.65445 0.0
C563 C 0.6176 0.21778 0.649 0.0
C564 C 0.63375 0.20922 0.6888 0.0
C565 C 0.63878 0.22304 0.73517 0.0
C566 C 0.59041 0.25046 0.61344 0.0
C567 C 0.64482 0.18499 0.68376 0.0
C568 C 0.58123 0.1717 0.57326 0.0
C569 C 0.59167 0.17185 0.52116 0.0
C570 C 0.58944 0.18668 0.61496 0.0
C571 C 0.60895 0.2018 0.60478 0.0
C572 C 0.61988 0.20172 0.55259 0.0
C573 C 0.61091 0.18695 0.51112 0.0
C574 C 0.57696 0.18657 0.6697 0.0
C575 C 0.64105 0.2172 0.54063 0.0
H576 H 0.60565 0.27172 0.7058 0.0
H577 H 0.65031 0.21604 0.76684 0.0
H578 H 0.59731 0.24865 0.57113 0.0
H579 H 0.57377 0.24007 0.61578 0.0
H580 H 0.58617 0.26938 0.62099 0.0
H581 H 0.65924 0.18223 0.7141 0.0
H582 H 0.63113 0.17121 0.69038 0.0
H583 H 0.65208 0.1824 0.64196 0.0
H584 H 0.5662 0.16025 0.5811 0.0
H585 H 0.6191 0.18704 0.47096 0.0
H586 H 0.57045 0.20462 0.67938 0.0
H587 H 0.58952 0.18142 0.7026 0.0
H588 H 0.5617 0.17416 0.67052 0.0
H589 H 0.6362 0.23611 0.54542 0.0
H590 H 0.648 0.21448 0.49853 0.0
H591 H 0.6554 0.21343 0.57049 0.0
C592 C 0.57839 0.78443 0.4975 0.0
C593 C 0.58686 0.80775 0.49396 0.0
C594 C 0.58207 0.76822 0.45484 0.0
C595 C 0.59424 0.77558 0.40709 0.0
C596 C 0.60369 0.79875 0.40416 0.0
C597 C 0.59999 0.81454 0.44774 0.0
C598 C 0.57186 0.7436 0.46002 0.0
C599 C 0.61685 0.80721 0.35398 0.0
C600 C 0.61738 0.72812 0.31106 0.0
C601 C 0.59965 0.72736 0.27068 0.0
C602 C 0.61599 0.74388 0.35531 0.0
C603 C 0.59634 0.75929 0.35947 0.0
C604 C 0.57845 0.75881 0.31876 0.0
C605 C 0.58033 0.74289 0.27472 0.0
C606 C 0.63528 0.74372 0.39822 0.0
C607 C 0.55713 0.77489 0.32212 0.0
H608 H 0.56818 0.77898 0.53294 0.0
H609 H 0.6065 0.83253 0.44439 0.0
H610 H 0.55501 0.74268 0.4367 0.0
H611 H 0.58402 0.7301 0.44289 0.0
H612 H 0.56814 0.73897 0.50341 0.0
H613 H 0.62431 0.82526 0.35943 0.0
H614 H 0.63148 0.79486 0.34404 0.0
H615 H 0.60466 0.80746 0.31826 0.0
H616 H 0.63244 0.71622 0.30838 0.0
H617 H 0.56655 0.74242 0.24396 0.0
H618 H 0.62769 0.73873 0.43855 0.0
H619 H 0.64296 0.7617 0.40264 0.0
H620 H 0.64974 0.73113 0.38816 0.0
H621 H 0.54699 0.77096 0.35998 0.0
H622 H 0.54514 0.77286 0.28632 0.0
H623 H 0.5629 0.79364 0.32458 0.0
C624 C 0.57035 0.58683 0.24926 0.0
C625 C 0.58223 0.6083 0.2584 0.0
C626 C 0.55391 0.57809 0.28764 0.0
C627 C 0.54853 0.59172 0.33476 0.0
C628 C 0.56159 0.6126 0.34567 0.0
C629 C 0.57862 0.62025 0.30811 0.0
C630 C 0.54146 0.55502 0.27592 0.0
C631 C 0.55623 0.62808 0.39469 0.0
C632 C 0.48739 0.59755 0.3947 0.0
C633 C 0.49159 0.59024 0.44866 0.0
C634 C 0.5053 0.59616 0.35509 0.0
C635 C 0.52756 0.58634 0.36951 0.0
C636 C 0.53067 0.57609 0.42202 0.0
C637 C 0.51288 0.57883 0.46168 0.0
C638 C 0.50124 0.60767 0.29994 0.0
C639 C 0.55348 0.56395 0.4377 0.0
H640 H 0.5732 0.5773 0.21129 0.0
H641 H 0.58775 0.63679 0.31596 0.0
H642 H 0.5362 0.54583 0.31426 0.0
H643 H 0.52526 0.55853 0.25152 0.0
H644 H 0.55293 0.54302 0.25153 0.0
H645 H 0.56788 0.6439 0.3968 0.0
H646 H 0.53757 0.6342 0.39282 0.0
H647 H 0.55841 0.61789 0.43319 0.0
H648 H 0.47093 0.6065 0.38488 0.0
H649 H 0.51601 0.57299 0.50343 0.0
H650 H 0.50622 0.5954 0.26649 0.0
H651 H 0.51261 0.62363 0.29624 0.0
H652 H 0.48251 0.61309 0.29393 0.0
H653 H 0.56074 0.55381 0.40259 0.0
H654 H 0.55089 0.55175 0.47294 0.0
H655 H 0.56681 0.5774 0.44972 0.0
C656 C 0.58117 0.36647 0.79415 0.0
C657 C 0.57132 0.34444 0.80795 0.0
C658 C 0.57182 0.38007 0.75125 0.0
C659 C 0.55245 0.37117 0.72093 0.0
C660 C 0.54143 0.3497 0.73707 0.0
C661 C 0.55091 0.33664 0.78087 0.0
C662 C 0.58363 0.40316 0.73624 0.0
C663 C 0.52071 0.33963 0.70556 0.0
C664 C 0.51631 0.40563 0.61768 0.0
C665 C 0.52511 0.39643 0.56826 0.0
C666 C 0.5262 0.39898 0.66814 0.0
C667 C 0.54525 0.38276 0.66894 0.0
C668 C 0.5558 0.37549 0.6191 0.0
C669 C 0.54572 0.38262 0.56924 0.0
C670 C 0.51488 0.40762 0.72042 0.0
C671 C 0.57634 0.35837 0.61828 0.0
H672 H 0.59682 0.37266 0.81556 0.0
H673 H 0.54333 0.31959 0.79137 0.0
H674 H 0.59416 0.40074 0.6983 0.0
H675 H 0.57024 0.41706 0.72784 0.0
H676 H 0.59568 0.40948 0.76915 0.0
H677 H 0.51275 0.3241 0.7265 0.0
H678 H 0.50683 0.35328 0.69975 0.0
H679 H 0.52669 0.33404 0.66424 0.0
H680 H 0.50056 0.41661 0.61729 0.0
H681 H 0.55277 0.37557 0.53133 0.0
H682 H 0.5285 0.41199 0.75162 0.0
H683 H 0.50354 0.3934 0.73761 0.0
H684 H 0.50366 0.42348 0.71324 0.0
H685 H 0.59054 0.36434 0.64647 0.0
H686 H 0.58394 0.35631 0.57659 0.0
H687 H 0.57026 0.34074 0.63274 0.0
C688 C 0.94424 0.37412 0.02337 0.0
C689 C 0.95717 0.35591 0.04856 0.0
C690 C 0.92993 0.36958 0.97759 0.0
C691 C 0.92901 0.3464 0.95586 0.0
C692 C 0.94108 0.32771 0.98276 0.0
C693 C 0.95485 0.33267 0.02924 0.0
C694 C 0.91668 0.38979 0.95102 0.0
C695 C 0.94062 0.30274 0.9606 0.0
C696 C 0.88326 0.32718 0.85132 0.0
C697 C 0.89621 0.32872 0.80241 0.0
C698 C 0.8933 0.33397 0.90146 0.0
C699 C 0.91701 0.34197 0.9027 0.0
C700 C 0.92983 0.34452 0.85313 0.0
C701 C 0.91914 0.33811 0.80338 0.0
C702 C 0.8789 0.33152 0.95325 0.0
C703 C 0.95528 0.35272 0.85296 0.0
H704 H 0.94584 0.39209 0.03858 0.0
H705 H 0.96492 0.31857 0.04845 0.0
H706 H 0.9248 0.39399 0.91079 0.0
H707 H 0.898 0.38471 0.94328 0.0
H708 H 0.91696 0.40604 0.97664 0.0
H709 H 0.94981 0.29002 0.98811 0.0
H710 H 0.92212 0.29669 0.95471 0.0
H711 H 0.94936 0.3023 0.91989 0.0
H712 H 0.86546 0.31999 0.85059 0.0
H713 H 0.92926 0.33906 0.76571 0.0
H714 H 0.88046 0.34772 0.9787 0.0
H715 H 0.88578 0.31651 0.97793 0.0
H716 H 0.85988 0.32823 0.94446 0.0
H717 H 0.95691 0.36999 0.87423 0.0
H718 H 0.96245 0.35462 0.81079 0.0
H719 H 0.96641 0.33981 0.87566 0.0
C720 C 0.86527 0.68123 0.12516 0.0
C721 C 0.86547 0.66687 0.17212 0.0
C722 C 0.87717 0.6742 0.07749 0.0
C723 C 0.88873 0.65197 0.07646 0.0
C724 C 0.88548 0.63591 0.12043 0.0
C725 C 0.87416 0.6437 0.16828 0.0
C726 C 0.88023 0.692 0.03181 0.0
C727 C 0.89652 0.6116 0.1198 0.0
C728 C 0.92319 0.63479 0.94838 0.0
C729 C 0.94631 0.64083 0.96404 0.0
C730 C 0.90413 0.63789 0.98471 0.0
C731 C 0.90833 0.64796 0.03695 0.0
C732 C 0.93165 0.65455 0.05223 0.0
C733 C 0.95038 0.6505 0.01595 0.0
C734 C 0.8797 0.62992 0.96776 0.0
C735 C 0.93688 0.66603 0.1069 0.0
H736 H 0.85847 0.69915 0.12768 0.0
H737 H 0.874 0.63239 0.20424 0.0
H738 H 0.89781 0.7006 0.03602 0.0
H739 H 0.87962 0.68334 0.99109 0.0
H740 H 0.86644 0.70601 0.03325 0.0
H741 H 0.88795 0.59961 0.14997 0.0
H742 H 0.89525 0.60355 0.07843 0.0
H743 H 0.91556 0.61305 0.13052 0.0
H744 H 0.92014 0.6271 0.90829 0.0
H745 H 0.96824 0.65537 0.02778 0.0
H746 H 0.86658 0.64424 0.97433 0.0
H747 H 0.87421 0.61472 0.99365 0.0
H748 H 0.87902 0.62439 0.9241 0.0
H749 H 0.92572 0.68203 0.11229 0.0
H750 H 0.95575 0.6713 0.11101 0.0
H751 H 0.93256 0.6536 0.14066 0.0
C752 C 0.45672 0.33358 0.64318 0.0
C753 C 0.45375 0.32234 0.59231 0.0
C754 C 0.4542 0.32101 0.69242 0.0
C755 C 0.44824 0.29671 0.69071 0.0
C756 C 0.44628 0.28502 0.63951 0.0
C757 C 0.44922 0.29797 0.59087 0.0
C758 C 0.45692 0.33394 0.74621 0.0
C759 C 0.43983 0.2591 0.63602 0.0
C760 C 0.44845 0.25599 0.815 0.0
C761 C 0.42423 0.25534 0.82743 0.0
C762 C 0.45694 0.27039 0.77221 0.0
C763 C 0.44076 0.28428 0.74151 0.0
C764 C 0.41661 0.2849 0.75665 0.0
C765 C 0.4087 0.27052 0.79952 0.0
C766 C 0.48289 0.26962 0.75784 0.0
C767 C 0.39877 0.29958 0.7253 0.0
H768 H 0.46084 0.35232 0.6446 0.0
H769 H 0.44715 0.28915 0.5517 0.0
H770 H 0.43949 0.33515 0.76692 0.0
H771 H 0.46896 0.32404 0.77392 0.0
H772 H 0.46395 0.35216 0.74062 0.0
H773 H 0.44099 0.2522 0.59349 0.0
H774 H 0.45164 0.24842 0.66267 0.0
H775 H 0.42146 0.25651 0.65096 0.0
H776 H 0.46054 0.24428 0.83644 0.0
H777 H 0.39 0.27033 0.80948 0.0
H778 H 0.48977 0.28772 0.75033 0.0
H779 H 0.48531 0.25936 0.71951 0.0
H780 H 0.49361 0.26117 0.79068 0.0
H781 H 0.40471 0.31825 0.72265 0.0
H782 H 0.38095 0.29919 0.74448 0.0
H783 H 0.3972 0.29278 0.68278 0.0
C784 C 0.35587 0.66741 0.4598 0.0
C785 C 0.37731 0.65573 0.44942 0.0
C786 C 0.34654 0.68378 0.42206 0.0
C787 C 0.35954 0.68932 0.37413 0.0
C788 C 0.38055 0.67661 0.36222 0.0
C789 C 0.38891 0.65966 0.39953 0.0
C790 C 0.32352 0.69601 0.43544 0.0
C791 C 0.39535 0.68229 0.31235 0.0
C792 C 0.34041 0.72511 0.25056 0.0
C793 C 0.35147 0.74692 0.26122 0.0
C794 C 0.34087 0.70671 0.28933 0.0
C795 C 0.3531 0.71005 0.33933 0.0
C796 C 0.36231 0.73269 0.35232 0.0
C797 C 0.36125 0.75093 0.31323 0.0
C798 C 0.32951 0.68329 0.27545 0.0
C799 C 0.37466 0.73723 0.40616 0.0
H800 H 0.34681 0.66439 0.49833 0.0
H801 H 0.40563 0.6509 0.39159 0.0
H802 H 0.32723 0.71215 0.45984 0.0
H803 H 0.31378 0.70134 0.39787 0.0
H804 H 0.31193 0.68437 0.46048 0.0
H805 H 0.4107 0.67016 0.30791 0.0
H806 H 0.38445 0.68119 0.27462 0.0
H807 H 0.4021 0.70071 0.31544 0.0
H808 H 0.33228 0.72202 0.21093 0.0
H809 H 0.3695 0.76782 0.32219 0.0
H810 H 0.31981 0.67617 0.3114 0.0
H811 H 0.34341 0.67027 0.26446 0.0
H812 H 0.31705 0.68487 0.24036 0.0
H813 H 0.36225 0.73406 0.44053 0.0
H814 H 0.38139 0.75565 0.40934 0.0
H815 H 0.38967 0.72474 0.41125 0.0
C816 C 0.10084 0.70893 0.23191 0.0
C817 C 0.12359 0.71896 0.23065 0.0
C818 C 0.09088 0.69852 0.18505 0.0
C819 C 0.1039 0.69819 0.13553 0.0
C820 C 0.12734 0.70702 0.13468 0.0
C821 C 0.1369 0.71735 0.18221 0.0
C822 C 0.06596 0.68892 0.18805 0.0
C823 C 0.14205 0.70631 0.08309 0.0
C824 C 0.07989 0.65635 0.0274 0.0
C825 C 0.06725 0.67183 0.99322 0.0
C826 C 0.09288 0.66483 0.07228 0.0
C827 C 0.09254 0.68931 0.08441 0.0
C828 C 0.08009 0.7051 0.04946 0.0
C829 C 0.06789 0.69619 0.00358 0.0
C830 C 0.10644 0.64749 0.10753 0.0
C831 C 0.07897 0.73127 0.06166 0.0
H832 H 0.09033 0.71004 0.26896 0.0
H833 H 0.15449 0.72498 0.18069 0.0
H834 H 0.05386 0.70087 0.16526 0.0
H835 H 0.06478 0.67124 0.16859 0.0
H836 H 0.05967 0.68732 0.23097 0.0
H837 H 0.16073 0.71149 0.0907 0.0
H838 H 0.14175 0.68828 0.06506 0.0
H839 H 0.13443 0.71857 0.05222 0.0
H840 H 0.07961 0.63751 0.01896 0.0
H841 H 0.05806 0.70812 0.9772 0.0
H842 H 0.09827 0.64645 0.14877 0.0
H843 H 0.12495 0.65362 0.11317 0.0
H844 H 0.10673 0.62943 0.08956 0.0
H845 H 0.07103 0.73409 0.10271 0.0
H846 H 0.06835 0.74115 0.03083 0.0
H847 H 0.09708 0.73883 0.06275 0.0
C848 C 0.09066 0.27321 0.8081 0.0
C849 C 0.0977 0.28362 0.75859 0.0
C850 C 0.08362 0.2871 0.85263 0.0
C851 C 0.0843 0.31207 0.84806 0.0
C852 C 0.0913 0.32274 0.79803 0.0
C853 C 0.0976 0.30832 0.75341 0.0
C854 C 0.07556 0.275 0.90464 0.0
C855 C 0.09266 0.3493 0.79214 0.0
C856 C 0.04753 0.34513 0.95267 0.0
C857 C 0.06411 0.34889 0.99467 0.0
C858 C 0.05402 0.33387 0.90379 0.0
C859 C 0.0778 0.32676 0.89621 0.0
C860 C 0.09487 0.33163 0.9373 0.0
C861 C 0.08774 0.34233 0.9865 0.0
C862 C 0.03514 0.32841 0.86173 0.0
C863 C 0.12051 0.3248 0.93007 0.0
H864 H 0.09047 0.25407 0.81187 0.0
H865 H 0.10318 0.31633 0.71515 0.0
H866 H 0.08777 0.27942 0.93876 0.0
H867 H 0.0577 0.28142 0.91631 0.0
H868 H 0.07488 0.25542 0.90037 0.0
H869 H 0.09827 0.35481 0.75041 0.0
H870 H 0.0752 0.35738 0.80107 0.0
H871 H 0.10543 0.35654 0.82241 0.0
H872 H 0.02917 0.35001 0.95899 0.0
H873 H 0.10061 0.34541 0.01873 0.0
H874 H 0.03256 0.30896 0.8592 0.0
H875 H 0.04069 0.33458 0.82055 0.0
H876 H 0.01788 0.33674 0.87195 0.0
H877 H 0.12222 0.30524 0.93101 0.0
H878 H 0.13198 0.33233 0.96273 0.0
H879 H 0.12709 0.33094 0.88965 0.0
C880 C 0.02404 0.274 0.24622 0.0
C881 C 0.04152 0.29135 0.25134 0.0
C882 C 0.02883 0.25048 0.25967 0.0
C883 C 0.05152 0.24437 0.28051 0.0
C884 C 0.06801 0.26236 0.29296 0.0
C885 C 0.06313 0.2857 0.27667 0.0
C886 C 0.01016 0.23204 0.2471 0.0
C887 C 0.0912 0.25701 0.32085 0.0
C888 C 0.0424 0.18071 0.29796 0.0
C889 C 0.04683 0.17401 0.2437 0.0
C890 C 0.04906 0.20321 0.31628 0.0
C891 C 0.05882 0.21924 0.27813 0.0
C892 C 0.06768 0.21068 0.22753 0.0
C893 C 0.06156 0.1878 0.2108 0.0
C894 C 0.04247 0.21105 0.3732 0.0
C895 C 0.07977 0.22687 0.18709 0.0
H896 H 0.00713 0.27848 0.22787 0.0
H897 H 0.07633 0.29938 0.28296 0.0
H898 H 0.00569 0.22194 0.28468 0.0
H899 H 0.99356 0.23997 0.23094 0.0
H900 H 0.01691 0.21933 0.21621 0.0
H901 H 0.09489 0.27058 0.35265 0.0
H902 H 0.09142 0.23932 0.34062 0.0
H903 H 0.10563 0.2578 0.29018 0.0
H904 H 0.03164 0.16944 0.32395 0.0
H905 H 0.06537 0.18216 0.16925 0.0
H906 H 0.03868 0.19574 0.40046 0.0
H907 H 0.02654 0.22252 0.37162 0.0
H908 H 0.05712 0.22162 0.39104 0.0
H909 H 0.06662 0.23937 0.16949 0.0
H910 H 0.08803 0.21686 0.15293 0.0
H911 H 0.09366 0.23743 0.20789 0.0
C912 C 0.97144 0.71586 0.27339 0.0
C913 C 0.95165 0.73045 0.26756 0.0
C914 C 0.99414 0.7254 0.26695 0.0
C915 C -0.00349 0.74985 0.25499 0.0
C916 C 0.97658 0.76315 0.23872 0.0
C917 C 0.95417 0.75323 0.24546 0.0
C918 C 0.0152 0.71036 0.28199 0.0
C919 C 0.97836 0.78901 0.22377 0.0
C920 C 0.03792 0.77829 0.35611 0.0
C921 C 0.05774 0.78241 0.32362 0.0
C922 C 0.01739 0.7688 0.33318 0.0
C923 C 0.01721 0.7626 0.27679 0.0
C924 C 0.03695 0.76765 0.24329 0.0
C925 C 0.05704 0.77781 0.2672 0.0
C926 C -0.00366 0.76442 0.37005 0.0
C927 C 0.03749 0.76089 0.18347 0.0
H928 H 0.96939 0.69801 0.28915 0.0
H929 H 0.93865 0.76422 0.23906 0.0
H930 H 0.03157 0.71682 0.26196 0.0
H931 H 0.01788 0.71104 0.32705 0.0
H932 H 0.01219 0.69158 0.27036 0.0
H933 H 0.96423 0.79396 0.19433 0.0
H934 H 0.976 0.79982 0.26133 0.0
H935 H 0.99575 0.79352 0.20556 0.0
H936 H 0.03879 0.78181 0.39977 0.0
H937 H 0.07276 0.78063 0.24255 0.0
H938 H 0.99333 0.7451 0.37442 0.0
H939 H 0.98012 0.77228 0.3519 0.0
H940 H -0.00112 0.77202 0.41163 0.0
H941 H 0.03966 0.74144 0.18008 0.0
H942 H 0.05235 0.76955 0.1614 0.0
H943 H 0.02063 0.76555 0.16278 0.0
C944 C 0.48742 0.71351 0.52592 0.0
C945 C 0.46525 0.70371 0.51457 0.0
C946 C 0.49137 0.73764 0.51706 0.0
C947 C 0.47263 0.75178 0.49642 0.0
C948 C 0.45205 0.74101 0.47539 0.0
C949 C 0.44843 0.71692 0.48523 0.0
C950 C 0.51414 0.74851 0.53758 0.0
C951 C 0.43245 0.75511 0.4491 0.0
C952 C 0.47028 0.80344 0.591 0.0
C953 C 0.4835 0.81984 0.56139 0.0
C954 C 0.46381 0.78199 0.56703 0.0
C955 C 0.4718 0.77677 0.51325 0.0
C956 C 0.4828 0.79441 0.48119 0.0
C957 C 0.48825 0.81612 0.50566 0.0
C958 C 0.45082 0.76396 0.60151 0.0
C959 C 0.49065 0.7896 0.42314 0.0
H960 H 0.5007 0.70306 0.54707 0.0
H961 H 0.43163 0.70896 0.47397 0.0
H962 H 0.52093 0.76178 0.50797 0.0
H963 H 0.5108 0.75776 0.57694 0.0
H964 H 0.52801 0.73491 0.54471 0.0
H965 H 0.4271 0.74647 0.41016 0.0
H966 H 0.41682 0.7552 0.47665 0.0
H967 H 0.43753 0.77366 0.44003 0.0
H968 H 0.46663 0.80664 0.634 0.0
H969 H 0.49852 0.82908 0.48303 0.0
H970 H 0.46303 0.74934 0.61278 0.0
H971 H 0.43588 0.75622 0.578 0.0
H972 H 0.44371 0.7718 0.63986 0.0
H973 H 0.50306 0.77438 0.42218 0.0
H974 H 0.49957 0.80514 0.4044 0.0
H975 H 0.4751 0.78478 0.39767 0.0
C976 C 0.57236 0.19992 0.97982 0.0
C977 C 0.56336 0.22244 0.96655 0.0
C978 C 0.55712 0.18085 0.9903 0.0
C979 C 0.53246 0.18447 0.98661 0.0
C980 C 0.52333 0.20727 0.97378 0.0
C981 C 0.53894 0.22599 0.96458 0.0
C982 C 0.56733 0.15692 0.00481 0.0
C983 C 0.49705 0.212 0.96846 0.0
C984 C 0.48318 0.14643 0.94461 0.0
C985 C 0.46836 0.15197 0.98853 0.0
C986 C 0.50695 0.15331 0.94612 0.0
C987 C 0.51563 0.1647 0.9938 0.0
C988 C 0.50219 0.16407 0.04264 0.0
C989 C 0.47815 0.1584 0.03901 0.0
C990 C 0.52055 0.15329 0.89292 0.0
C991 C 0.5116 0.17409 0.09559 0.0
H992 H 0.59133 0.19718 0.98185 0.0
H993 H 0.53198 0.24332 0.95418 0.0
H994 H 0.56114 0.15148 0.04606 0.0
H995 H 0.56102 0.14322 0.9758 0.0
H996 H 0.58699 0.15692 0.00446 0.0
H997 H 0.49318 0.23039 0.95491 0.0
H998 H 0.48899 0.19968 0.93838 0.0
H999 H 0.48823 0.20916 0.00852 0.0
H1000 H 0.47547 0.14097 0.90586 0.0
H1001 H 0.46658 0.16197 0.07346 0.0
H1002 H 0.53994 0.15316 0.89952 0.0
H1003 H 0.51601 0.16953 0.86948 0.0
H1004 H 0.5156 0.13777 0.8674 0.0
H1005 H 0.53083 0.17064 0.09983 0.0
H1006 H 0.50219 0.16641 0.13141 0.0
H1007 H 0.50884 0.19355 0.09605 0.0
C1008 C 0.02897 0.81152 0.71054 0.0
C1009 C 0.03931 0.80883 0.76246 0.0
C1010 C 0.0232 0.79154 0.67924 0.0
C1011 C 0.02838 0.76888 0.70066 0.0
C1012 C 0.04338 0.76679 0.74733 0.0
C1013 C 0.04816 0.78692 0.77857 0.0
C1014 C 0.009 0.79487 0.62748 0.0
C1015 C 0.05127 0.74306 0.76949 0.0
C1016 C 0.9872 0.72203 0.73869 0.0
C1017 C 0.0012 0.70307 0.72184 0.0
C1018 C 0.99288 0.74501 0.72158 0.0
C1019 C 0.01299 0.74842 0.68763 0.0
C1020 C 0.02292 0.72889 0.66012 0.0
C1021 C 0.01737 0.70611 0.67883 0.0
C1022 C 0.98028 0.76562 0.74788 0.0
C1023 C 0.04192 0.73229 0.61755 0.0
H1024 H 0.02256 0.82877 0.69769 0.0
H1025 H 0.05659 0.78516 0.81835 0.0
H1026 H 0.00657 0.77817 0.60426 0.0
H1027 H 0.99138 0.8023 0.63789 0.0
H1028 H 0.01793 0.80799 0.60064 0.0
H1029 H 0.03592 0.73367 0.78774 0.0
H1030 H 0.05857 0.73189 0.73622 0.0
H1031 H 0.06506 0.74494 0.80171 0.0
H1032 H 0.97425 0.71941 0.7709 0.0
H1033 H 0.02756 0.69108 0.66443 0.0
H1034 H 0.97603 0.77926 0.71666 0.0
H1035 H 0.9919 0.77389 0.7792 0.0
H1036 H 0.96364 0.76003 0.76832 0.0
H1037 H 0.04722 0.7153 0.59821 0.0
H1038 H 0.05775 0.7406 0.63635 0.0
H1039 H 0.03547 0.74459 0.58532 0.0
C1040 C 0.51486 0.66173 0.01423 0.0
C1041 C 0.52214 0.65665 0.06764 0.0
C1042 C 0.49178 0.66958 0.00442 0.0
C1043 C 0.47666 0.67325 0.04979 0.0
C1044 C 0.48271 0.66381 0.10178 0.0
C1045 C 0.50574 0.65563 0.11017 0.0
C1046 C 0.48537 0.67837 0.94791 0.0
C1047 C 0.46696 0.66692 0.15117 0.0
C1048 C 0.45601 0.73605 0.06581 0.0
C1049 C 0.43152 0.73356 0.06084 0.0
C1050 C 0.47088 0.71656 0.06025 0.0
C1051 C 0.46092 0.69401 0.04867 0.0
C1052 C 0.43631 0.69155 0.04057 0.0
C1053 C 0.42179 0.71145 0.04702 0.0
C1054 C 0.49718 0.72011 0.06911 0.0
C1055 C 0.42531 0.66791 0.02697 0.0
H1056 H 0.52787 0.66241 0.98161 0.0
H1057 H 0.51168 0.65137 0.15135 0.0
H1058 H 0.46627 0.67568 0.93939 0.0
H1059 H 0.48907 0.69764 0.94523 0.0
H1060 H 0.49594 0.66933 0.9158 0.0
H1061 H 0.47105 0.65358 0.18333 0.0
H1062 H 0.47 0.68478 0.16886 0.0
H1063 H 0.448 0.66553 0.14013 0.0
H1064 H 0.46357 0.75313 0.07605 0.0
H1065 H 0.4028 0.70958 0.04215 0.0
H1066 H 0.50713 0.71457 0.03216 0.0
H1067 H 0.50337 0.70914 0.10404 0.0
H1068 H 0.50178 0.73885 0.07792 0.0
H1069 H 0.43495 0.65934 0.99277 0.0
H1070 H 0.40633 0.66958 0.01564 0.0
H1071 H 0.42661 0.6559 0.06279 0.0
C1072 C 0.55684 0.2132 0.24783 0.0
C1073 C 0.5369 0.20146 0.26907 0.0
C1074 C 0.55614 0.23763 0.23798 0.0
C1075 C 0.53533 0.25019 0.25102 0.0
C1076 C 0.51403 0.23762 0.26051 0.0
C1077 C 0.51508 0.2132 0.26976 0.0
C1078 C 0.57848 0.25023 0.22101 0.0
C1079 C 0.49085 0.25033 0.26939 0.0
C1080 C 0.53542 0.29693 0.3586 0.0
C1081 C 0.52426 0.31527 0.33058 0.0
C1082 C 0.54221 0.27642 0.33093 0.0
C1083 C 0.53721 0.27433 0.27405 0.0
C1084 C 0.52884 0.29419 0.24447 0.0
C1085 C 0.52216 0.31454 0.27345 0.0
C1086 C 0.55215 0.25607 0.36405 0.0
C1087 C 0.52508 0.29361 0.18332 0.0
H1088 H 0.57354 0.2039 0.24377 0.0
H1089 H 0.49929 0.20396 0.28318 0.0
H1090 H 0.58734 0.24029 0.18763 0.0
H1091 H 0.57496 0.26855 0.2066 0.0
H1092 H 0.5909 0.25093 0.25627 0.0
H1093 H 0.49119 0.25947 0.30967 0.0
H1094 H 0.48811 0.26394 0.23718 0.0
H1095 H 0.47555 0.23796 0.26889 0.0
H1096 H 0.53702 0.29783 0.40288 0.0
H1097 H 0.51362 0.32904 0.25198 0.0
H1098 H 0.56857 0.2493 0.3448 0.0
H1099 H 0.53914 0.24135 0.36538 0.0
H1100 H 0.55635 0.26129 0.40688 0.0
H1101 H 0.53396 0.30912 0.16443 0.0
H1102 H 0.50589 0.29516 0.17413 0.0
H1103 H 0.5321 0.27731 0.16391 0.0
C1104 C 0.04975 0.2647 0.45964 0.0
C1105 C 0.04901 0.24502 0.49481 0.0
C1106 C 0.02869 0.27491 0.44046 0.0
C1107 C 0.00697 0.26607 0.46027 0.0
C1108 C 0.00633 0.24374 0.48699 0.0
C1109 C 0.02757 0.23334 0.50364 0.0
C1110 C 0.02952 0.29643 0.40396 0.0
C1111 C 0.98338 0.23244 0.50512 0.0
C1112 C 0.96755 0.30106 0.54905 0.0
C1113 C 0.94597 0.29337 0.52811 0.0
C1114 C 0.98852 0.29569 0.52153 0.0
C1115 C 0.98737 0.2827 0.47164 0.0
C1116 C 0.9653 0.27948 0.44535 0.0
C1117 C 0.9446 0.2842 0.47491 0.0
C1118 C 0.01168 0.30045 0.5507 0.0
C1119 C 0.96329 0.26839 0.38934 0.0
H1120 H 0.06658 0.27291 0.44992 0.0
H1121 H 0.02712 0.2175 0.52877 0.0
H1122 H 0.04712 0.29848 0.38441 0.0
H1123 H 0.01576 0.29509 0.37156 0.0
H1124 H 0.02574 0.31262 0.42803 0.0
H1125 H 0.98612 0.21458 0.52312 0.0
H1126 H 0.97463 0.24372 0.53633 0.0
H1127 H 0.97119 0.23066 0.46977 0.0
H1128 H 0.96821 0.30863 0.58989 0.0
H1129 H 0.92757 0.27904 0.45819 0.0
H1130 H 0.02446 0.30907 0.52272 0.0
H1131 H 0.01955 0.28349 0.56479 0.0
H1132 H 0.00935 0.31207 0.58703 0.0
H1133 H 0.9807 0.26656 0.36871 0.0
H1134 H 0.95153 0.27939 0.36317 0.0
H1135 H 0.95486 0.25071 0.39273 0.0
C1136 C 0.93101 0.03912 0.07271 0.0
C1137 C 0.94793 0.0393 0.11492 0.0
C1138 C 0.92946 0.02011 0.0361 0.0
C1139 C 0.94517 0.00083 0.04212 0.0
C1140 C 0.96036 -0.0003 0.08844 0.0
C1141 C 0.96154 0.01904 0.12456 0.0
C1142 C 0.91274 0.02185 0.98794 0.0
C1143 C 0.97703 0.97913 0.09689 0.0
C1144 C 0.94116 0.94452 0.95842 0.0
C1145 C 0.95962 0.94793 0.92094 0.0
C1146 C 0.93518 0.96215 0.99635 0.0
C1147 C 0.94809 0.98359 0.99663 0.0
C1148 C 0.96544 0.98782 0.95574 0.0
C1149 C 0.97114 0.96978 0.9185 0.0
C1150 C 0.91655 0.95694 0.039 0.0
C1151 C 0.97933 0.01065 0.9541 0.0
H1152 H 0.92035 0.05479 0.06546 0.0
H1153 H 0.97472 0.01919 0.15693 0.0
H1154 H 0.92293 0.02649 0.95058 0.0
H1155 H 0.90388 0.00464 0.98021 0.0
H1156 H 0.89899 0.03563 0.99435 0.0
H1157 H 0.9853 0.97939 0.13823 0.0
H1158 H 0.96757 0.96208 0.09146 0.0
H1159 H 0.9913 0.97988 0.06573 0.0
H1160 H 0.93276 0.92728 0.96109 0.0
H1161 H 0.98584 0.97207 0.89045 0.0
H1162 H 0.90495 0.97251 0.04555 0.0
H1163 H 0.92532 0.95289 0.07864 0.0
H1164 H 0.9054 0.94153 0.02739 0.0
H1165 H 0.99052 0.01203 0.91682 0.0
H1166 H 0.99099 0.01173 0.99068 0.0
H1167 H 0.96719 0.02608 0.95534 0.0
C1168 C 0.21573 0.82696 0.32573 0.0
C1169 C 0.22225 0.8048 0.3469 0.0
C1170 C 0.2301 0.83874 0.28759 0.0
C1171 C 0.25174 0.82829 0.27147 0.0
C1172 C 0.25909 0.80662 0.29576 0.0
C1173 C 0.24397 0.79488 0.33235 0.0
C1174 C 0.22108 0.86126 0.26152 0.0
C1175 C 0.28239 0.79518 0.2809 0.0
C1176 C 0.28428 0.83338 0.1376 0.0
C1177 C 0.30448 0.84558 0.15522 0.0
C1178 C 0.26509 0.83007 0.1734 0.0
C1179 C 0.26649 0.83903 0.22758 0.0
C1180 C 0.28507 0.85459 0.24191 0.0
C1181 C 0.30376 0.85795 0.20507 0.0
C1182 C 0.24481 0.81448 0.15562 0.0
C1183 C 0.28701 0.86496 0.29873 0.0
H1184 H 0.19845 0.83417 0.33552 0.0
H1185 H 0.24863 0.77748 0.34778 0.0
H1186 H 0.23563 0.87398 0.25354 0.0
H1187 H 0.21274 0.85689 0.22157 0.0
H1188 H 0.20752 0.87 0.2875 0.0
H1189 H 0.28641 0.77959 0.30713 0.0
H1190 H 0.28189 0.78928 0.23754 0.0
H1191 H 0.29706 0.80813 0.28494 0.0
H1192 H 0.28465 0.82394 0.09894 0.0
H1193 H 0.31928 0.86772 0.21835 0.0
H1194 H 0.22773 0.82146 0.17113 0.0
H1195 H 0.24727 0.79647 0.17295 0.0
H1196 H 0.24382 0.81296 0.11027 0.0
H1197 H 0.26956 0.87134 0.31334 0.0
H1198 H 0.29984 0.87986 0.3002 0.0
H1199 H 0.29312 0.851 0.32754 0.0
C1200 C 0.57369 0.02404 0.42201 0.0
C1201 C 0.58339 0.04614 0.43453 0.0
C1202 C 0.57976 0.00397 0.45312 0.0
C1203 C 0.59631 0.00613 0.49672 0.0
C1204 C 0.60762 0.02807 0.50621 0.0
C1205 C 0.60073 0.04791 0.47554 0.0
C1206 C 0.56717 0.98088 0.44193 0.0
C1207 C 0.62589 0.03097 0.5509 0.0
C1208 C 0.5845 0.96246 0.61118 0.0
C1209 C 0.59839 0.94324 0.59456 0.0
C1210 C 0.58478 0.98379 0.58163 0.0
C1211 C 0.5998 0.98605 0.53542 0.0
C1212 C 0.61605 0.96779 0.52301 0.0
C1213 C 0.61499 0.94646 0.55244 0.0
C1214 C 0.5672 0.00288 0.5964 0.0
C1215 C 0.63303 0.96989 0.47556 0.0
H1216 H 0.56009 0.02279 0.39074 0.0
H1217 H 0.60824 0.0651 0.48509 0.0
H1218 H 0.58019 0.96639 0.43648 0.0
H1219 H 0.55591 0.97618 0.47757 0.0
H1220 H 0.55579 0.98181 0.40482 0.0
H1221 H 0.63602 0.04772 0.54633 0.0
H1222 H 0.61699 0.03119 0.59138 0.0
H1223 H 0.63849 0.0159 0.55093 0.0
H1224 H 0.57151 0.96002 0.64338 0.0
H1225 H 0.62584 0.93163 0.53962 0.0
H1226 H 0.55335 0.00392 0.56415 0.0
H1227 H 0.576 0.0204 0.59837 0.0
H1228 H 0.55844 -0.00061 0.63635 0.0
H1229 H 0.641 0.98783 0.47394 0.0
H1230 H 0.62331 0.96704 0.43658 0.0
H1231 H 0.64745 0.95656 0.47821 0.0
C1232 C 0.28662 0.18081 0.86906 0.0
C1233 C 0.30414 0.19826 0.86602 0.0
C1234 C 0.26631 0.18225 0.83564 0.0
C1235 C 0.26364 0.20162 0.79899 0.0
C1236 C 0.28094 0.21966 0.79759 0.0
C1237 C 0.30092 0.21774 0.83107 0.0
C1238 C 0.248 0.16284 0.83846 0.0
C1239 C 0.27858 0.24085 0.76006 0.0
C1240 C 0.2217 0.19946 0.6764 0.0
C1241 C 0.20212 0.21168 0.69717 0.0
C1242 C 0.24177 0.19546 0.70956 0.0
C1243 C 0.24215 0.20403 0.76426 0.0
C1244 C 0.22255 0.21665 0.78488 0.0
C1245 C 0.20292 0.22036 0.75117 0.0
C1246 C 0.26255 0.18208 0.68625 0.0
C1247 C 0.22236 0.22649 0.84251 0.0
H1248 H 0.28932 0.16559 0.89543 0.0
H1249 H 0.31452 0.23127 0.82878 0.0
H1250 H 0.23049 0.1704 0.84916 0.0
H1251 H 0.24616 0.15433 0.79769 0.0
H1252 H 0.25264 0.14905 0.86914 0.0
H1253 H 0.29378 0.25324 0.76377 0.0
H1254 H 0.2773 0.23492 0.71683 0.0
H1255 H 0.2621 0.25068 0.76959 0.0
H1256 H 0.22112 0.1926 0.63494 0.0
H1257 H 0.188 0.23013 0.76751 0.0
H1258 H 0.26667 0.16656 0.71253 0.0
H1259 H 0.27847 0.1936 0.68603 0.0
H1260 H 0.25918 0.17583 0.64379 0.0
H1261 H 0.23671 0.23976 0.84725 0.0
H1262 H 0.22579 0.21215 0.87259 0.0
H1263 H 0.20527 0.23508 0.85296 0.0
C1264 C 0.71884 0.30754 0.89855 0.0
C1265 C 0.70021 0.32264 0.88423 0.0
C1266 C 0.73827 0.30476 0.86326 0.0
C1267 C 0.73872 0.31726 0.81281 0.0
C1268 C 0.72134 0.33457 0.80164 0.0
C1269 C 0.70243 0.33729 0.83802 0.0
C1270 C 0.7571 0.28683 0.87754 0.0
C1271 C 0.7212 0.34836 0.74855 0.0
C1272 C 0.79499 0.31487 0.72965 0.0
C1273 C 0.79095 0.295 0.6965 0.0
C1274 C 0.77793 0.32277 0.76673 0.0
C1275 C 0.75608 0.31075 0.76984 0.0
C1276 C 0.75119 0.29174 0.7334 0.0
C1277 C 0.76892 0.28383 0.69736 0.0
C1278 C 0.78403 0.34277 0.80533 0.0
C1279 C 0.72775 0.27893 0.73469 0.0
H1280 H 0.71709 0.2961 0.93405 0.0
H1281 H 0.68798 0.34905 0.82713 0.0
H1282 H 0.75485 0.2709 0.85148 0.0
H1283 H 0.77499 0.29412 0.86937 0.0
H1284 H 0.75612 0.28129 0.92119 0.0
H1285 H 0.70848 0.36335 0.74962 0.0
H1286 H 0.73906 0.35539 0.73913 0.0
H1287 H 0.71609 0.33637 0.7145 0.0
H1288 H 0.81232 0.32318 0.72939 0.0
H1289 H 0.76608 0.26819 0.67249 0.0
H1290 H 0.78619 0.33564 0.84744 0.0
H1291 H 0.76955 0.35602 0.80667 0.0
H1292 H 0.80069 0.35188 0.79351 0.0
H1293 H 0.72596 0.26921 0.77402 0.0
H1294 H 0.72595 0.26607 0.7005 0.0
H1295 H 0.71295 0.29181 0.7323 0.0
C1296 C 0.79318 0.67407 0.30516 0.0
C1297 C 0.78839 0.6943 0.33651 0.0
C1298 C 0.77624 0.66479 0.26898 0.0
C1299 C 0.75372 0.67562 0.26544 0.0
C1300 C 0.74825 0.69503 0.30013 0.0
C1301 C 0.76589 0.70452 0.33435 0.0
C1302 C 0.78315 0.64468 0.23155 0.0
C1303 C 0.72414 0.70655 0.29902 0.0
C1304 C 0.71319 0.67438 0.14106 0.0
C1305 C 0.69596 0.65827 0.15865 0.0
C1306 C 0.73335 0.67884 0.1735 0.0
C1307 C 0.73594 0.66718 0.22476 0.0
C1308 C 0.71984 0.64915 0.2396 0.0
C1309 C 0.70029 0.64466 0.20588 0.0
C1310 C 0.7508 0.69743 0.15511 0.0
C1311 C 0.72179 0.63634 0.29381 0.0
H1312 H 0.81096 0.6668 0.30527 0.0
H1313 H 0.76249 0.7206 0.35728 0.0
H1314 H 0.76931 0.63076 0.23103 0.0
H1315 H 0.78489 0.65147 0.18904 0.0
H1316 H 0.80026 0.6365 0.24376 0.0
H1317 H 0.72139 0.71549 0.25901 0.0
H1318 H 0.71008 0.69296 0.30344 0.0
H1319 H 0.72203 0.71987 0.33214 0.0
H1320 H 0.70995 0.68498 0.10473 0.0
H1321 H 0.6871 0.63197 0.21934 0.0
H1322 H 0.76923 0.69135 0.16221 0.0
H1323 H 0.74816 0.71381 0.17941 0.0
H1324 H 0.74861 0.70187 0.11101 0.0
H1325 H 0.74013 0.63007 0.30095 0.0
H1326 H 0.70961 0.62093 0.2962 0.0
H1327 H 0.71733 0.64876 0.32748 0.0
C1328 C 0.41484 0.52871 0.62369 0.0
C1329 C 0.39911 0.54669 0.60864 0.0
C1330 C 0.41335 0.50627 0.59917 0.0
C1331 C 0.39539 0.5018 0.5598 0.0
C1332 C 0.37751 0.51886 0.55074 0.0
C1333 C 0.37972 0.54126 0.57494 0.0
C1334 C 0.43267 0.48845 0.61049 0.0
C1335 C 0.35752 0.51447 0.51094 0.0
C1336 C 0.41788 0.46301 0.44455 0.0
C1337 C 0.4114 0.44057 0.46352 0.0
C1338 C 0.41139 0.4834 0.47381 0.0
C1339 C 0.39774 0.48115 0.52238 0.0
C1340 C 0.38896 0.45871 0.53796 0.0
C1341 C 0.39615 0.43862 0.50867 0.0
C1342 C 0.42103 0.50707 0.4556 0.0
C1343 C 0.3737 0.45559 0.58817 0.0
H1344 H 0.42998 0.53298 0.64921 0.0
H1345 H 0.36757 0.55526 0.56321 0.0
H1346 H 0.42503 0.47066 0.61795 0.0
H1347 H 0.44438 0.48712 0.57411 0.0
H1348 H 0.44366 0.49349 0.64644 0.0
H1349 H 0.36399 0.5172 0.46848 0.0
H1350 H 0.35098 0.496 0.5141 0.0
H1351 H 0.34252 0.5268 0.51804 0.0
H1352 H 0.42989 0.46449 0.41008 0.0
H1353 H 0.39115 0.42119 0.52334 0.0
H1354 H 0.43416 0.51349 0.48605 0.0
H1355 H 0.40663 0.52038 0.45341 0.0
H1356 H 0.42978 0.50608 0.41491 0.0
H1357 H 0.38505 0.4558 0.62531 0.0
H1358 H 0.36399 0.43848 0.58729 0.0
H1359 H 0.36072 0.47023 0.59198 0.0
C1360 C 0.03624 0.53013 0.91347 0.0
C1361 C 0.04234 0.55307 0.92976 0.0
C1362 C 0.03781 0.51116 0.95093 0.0
C1363 C 0.04561 0.51545 0.00544 0.0
C1364 C 0.05339 0.53829 0.02046 0.0
C1365 C 0.05174 0.55674 0.98242 0.0
C1366 C 0.02973 0.48688 0.93327 0.0
C1367 C 0.06187 0.54367 0.07788 0.0
C1368 C 0.02017 0.47531 0.11557 0.0
C1369 C 0.03873 0.45932 0.12373 0.0
C1370 C 0.02246 0.49411 0.07828 0.0
C1371 C 0.04375 0.49671 0.04813 0.0
C1372 C 0.063 0.48132 0.05858 0.0
C1373 C 0.0602 0.46271 0.0962 0.0
C1374 C 0.00162 0.51036 0.06887 0.0
C1375 C 0.08599 0.48355 0.02754 0.0
H1376 H 0.02887 0.5273 0.87296 0.0
H1377 H 0.05671 0.57449 0.99493 0.0
H1378 H 0.01295 0.48238 0.95447 0.0
H1379 H 0.02671 0.48586 0.88833 0.0
H1380 H 0.04301 0.47333 0.94511 0.0
H1381 H 0.06952 0.56174 0.0813 0.0
H1382 H 0.0468 0.54227 0.10683 0.0
H1383 H 0.07541 0.53063 0.09104 0.0
H1384 H 0.00332 0.47212 0.13552 0.0
H1385 H 0.07423 0.44977 0.10122 0.0
H1386 H 0.99498 0.50817 0.02635 0.0
H1387 H 0.00713 0.52911 0.07358 0.0
H1388 H 0.98685 0.50675 0.09771 0.0
H1389 H 0.08298 0.47911 0.98379 0.0
H1390 H 0.0999 0.4716 0.04404 0.0
H1391 H 0.0926 0.50204 0.02908 0.0
C1392 C 0.04097 0.10733 0.34122 0.0
C1393 C 0.04644 0.09318 0.29564 0.0
C1394 C 0.05879 0.11834 0.37218 0.0
C1395 C 0.08289 0.11448 0.35885 0.0
C1396 C 0.08865 0.09934 0.31462 0.0
C1397 C 0.07037 0.08906 0.28316 0.0
C1398 C 0.05173 0.1352 0.41737 0.0
C1399 C 0.11407 0.09492 0.29901 0.0
C1400 C 0.1215 0.16468 0.41119 0.0
C1401 C 0.12554 0.15716 0.4651 0.0
C1402 C 0.10928 0.15016 0.37376 0.0
C1403 C 0.10164 0.12729 0.39046 0.0
C1404 C 0.10864 0.11858 0.44248 0.0
C1405 C 0.12006 0.13379 0.4796 0.0
C1406 C 0.10345 0.16027 0.31799 0.0
C1407 C 0.10207 0.09394 0.46098 0.0
H1408 H 0.02263 0.11109 0.35085 0.0
H1409 H 0.07483 0.07842 0.2477 0.0
H1410 H 0.05868 0.12882 0.45727 0.0
H1411 H 0.05955 0.15293 0.40967 0.0
H1412 H 0.03222 0.1372 0.42081 0.0
H1413 H 0.11576 0.08075 0.26772 0.0
H1414 H 0.12183 0.11146 0.28224 0.0
H1415 H 0.12457 0.0899 0.33573 0.0
H1416 H 0.12558 0.18283 0.39998 0.0
H1417 H 0.12303 0.12799 0.52145 0.0
H1418 H 0.08857 0.15111 0.29737 0.0
H1419 H 0.1193 0.15869 0.29143 0.0
H1420 H 0.09912 0.17941 0.3211 0.0
H1421 H 0.08311 0.09356 0.47279 0.0
H1422 H 0.11275 0.08822 0.49689 0.0
H1423 H 0.10458 0.08103 0.42721 0.0
C1424 C 0.11412 0.83687 0.56564 0.0
C1425 C 0.11765 0.84511 0.51207 0.0
C1426 C 0.0999 0.84955 0.60265 0.0
C1427 C 0.08942 0.87122 0.58596 0.0
C1428 C 0.09419 0.88032 0.53308 0.0
C1429 C 0.10804 0.86705 0.4966 0.0
C1430 C 0.09496 0.83906 0.65846 0.0
C1431 C 0.08374 0.90353 0.51408 0.0
C1432 C 0.03194 0.88608 0.65852 0.0
C1433 C 0.03989 0.90064 0.70137 0.0
C1434 C 0.04777 0.87711 0.61941 0.0
C1435 C 0.07204 0.88328 0.62237 0.0
C1436 C 0.07979 0.89958 0.66261 0.0
C1437 C 0.06365 0.90796 0.70186 0.0
C1438 C 0.03879 0.85967 0.57733 0.0
C1439 C 0.10541 0.90696 0.66648 0.0
H1440 H 0.12128 0.81983 0.57763 0.0
H1441 H 0.11081 0.87355 0.45527 0.0
H1442 H 0.09886 0.85219 0.69103 0.0
H1443 H 0.07592 0.83445 0.66167 0.0
H1444 H 0.10556 0.82285 0.66639 0.0
H1445 H 0.09141 0.9095 0.47449 0.0
H1446 H 0.06433 0.90156 0.50883 0.0
H1447 H 0.0867 0.91751 0.54525 0.0
H1448 H 0.0137 0.88013 0.6579 0.0
H1449 H 0.06994 0.9192 0.73481 0.0
H1450 H 0.04733 0.84221 0.58395 0.0
H1451 H 0.04357 0.86566 0.53548 0.0
H1452 H 0.01929 0.85729 0.57936 0.0
H1453 H 0.11616 0.89183 0.68141 0.0
H1454 H 0.10797 0.92207 0.69499 0.0
H1455 H 0.1123 0.91198 0.62552 0.0
C1456 C 0.41212 0.87959 0.94718 0.0
C1457 C 0.416 0.8553 0.95502 0.0
C1458 C 0.42545 0.89241 0.90826 0.0
C1459 C 0.44256 0.88047 0.87594 0.0
C1460 C 0.44577 0.85577 0.8826 0.0
C1461 C 0.43267 0.84363 0.92231 0.0
C1462 C 0.42183 0.91877 0.90305 0.0
C1463 C 0.46333 0.84209 0.84826 0.0
C1464 C 0.46725 0.89946 0.73902 0.0
C1465 C 0.49118 0.90317 0.75245 0.0
C1466 C 0.45044 0.8943 0.77967 0.0
C1467 C 0.45759 0.89326 0.83525 0.0
C1468 C 0.48099 0.89991 0.84954 0.0
C1469 C 0.49757 0.9046 0.80797 0.0
C1470 C 0.42575 0.88729 0.76234 0.0
C1471 C 0.48919 0.89974 0.90843 0.0
H1472 H 0.39935 0.88867 0.97278 0.0
H1473 H 0.43553 0.82478 0.9279 0.0
H1474 H 0.43783 0.92812 0.91816 0.0
H1475 H 0.41938 0.92386 0.85949 0.0
H1476 H 0.4063 0.925 0.92693 0.0
H1477 H 0.46279 0.82276 0.85674 0.0
H1478 H 0.45967 0.84492 0.80403 0.0
H1479 H 0.48153 0.84855 0.85651 0.0
H1480 H 0.46194 0.89852 0.69636 0.0
H1481 H 0.51589 0.90781 0.81899 0.0
H1482 H 0.41231 0.89468 0.79063 0.0
H1483 H 0.42416 0.86771 0.76369 0.0
H1484 H 0.42165 0.89329 0.71999 0.0
H1485 H 0.47549 0.90743 0.93567 0.0
H1486 H 0.50595 0.90977 0.91383 0.0
H1487 H 0.49225 0.8812 0.92172 0.0
C1488 C 0.48908 0.09416 0.18037 0.0
C1489 C 0.48503 0.09234 0.23683 0.0
C1490 C 0.47002 0.09606 0.14329 0.0
C1491 C 0.44641 0.0954 0.1633 0.0
C1492 C 0.44248 0.09032 0.21942 0.0
C1493 C 0.46179 0.08947 0.25572 0.0
C1494 C 0.47552 0.1 0.08342 0.0
C1495 C 0.41776 0.08768 0.24197 0.0
C1496 C 0.40195 0.13814 0.10105 0.0
C1497 C 0.39067 0.12432 0.06089 0.0
C1498 C 0.42004 0.12887 0.13405 0.0
C1499 C 0.42642 0.1047 0.12915 0.0
C1500 C 0.41432 0.09025 0.09074 0.0
C1501 C 0.39693 0.10034 0.05623 0.0
C1502 C 0.43315 0.14539 0.17229 0.0
C1503 C 0.42038 0.06441 0.0846 0.0
H1504 H 0.50706 0.09631 0.16566 0.0
H1505 H 0.45862 0.08791 0.29941 0.0
H1506 H 0.4774 0.08252 0.06318 0.0
H1507 H 0.46143 0.10994 0.06172 0.0
H1508 H 0.49255 0.10959 0.07822 0.0
H1509 H 0.41779 0.07846 0.28223 0.0
H1510 H 0.40974 0.10543 0.2477 0.0
H1511 H 0.40638 0.07766 0.21298 0.0
H1512 H 0.39778 0.15682 0.10437 0.0
H1513 H 0.38861 0.08961 0.02481 0.0
H1514 H 0.45252 0.14409 0.16531 0.0
H1515 H 0.42975 0.14027 0.21544 0.0
H1516 H 0.42775 0.16416 0.16685 0.0
H1517 H 0.43761 0.06273 0.06321 0.0
H1518 H 0.40678 0.05473 0.0605 0.0
H1519 H 0.42221 0.05587 0.12541 0.0
C1520 C 0.86984 0.7722 0.56415 0.0
C1521 C 0.88629 0.76389 0.52569 0.0
C1522 C 0.87723 0.78612 0.60923 0.0
C1523 C 0.90162 0.79148 0.61631 0.0
C1524 C 0.91826 0.78241 0.57847 0.0
C1525 C 0.9104 0.76894 0.53379 0.0
C1526 C 0.85897 0.79543 0.64872 0.0
C1527 C 0.94448 0.787 0.58492 0.0
C1528 C 0.92655 0.84405 0.69561 0.0
C1529 C 0.93573 0.83293 0.74251 0.0
C1530 C 0.9139 0.83108 0.6558 0.0
C1531 C 0.91025 0.80641 0.66303 0.0
C1532 C 0.91809 0.79548 0.71203 0.0
C1533 C 0.93073 0.80881 0.75096 0.0
C1534 C 0.90584 0.84348 0.60425 0.0
C1535 C 0.91461 0.7693 0.72182 0.0
H1536 H 0.85121 0.76845 0.55811 0.0
H1537 H 0.92333 0.76233 0.50478 0.0
H1538 H 0.86339 0.78985 0.69113 0.0
H1539 H 0.85908 0.81508 0.64808 0.0
H1540 H 0.84084 0.78916 0.63863 0.0
H1541 H 0.9551 0.7789 0.55154 0.0
H1542 H 0.94797 0.80633 0.58535 0.0
H1543 H 0.95075 0.77972 0.62461 0.0
H1544 H 0.93025 0.86263 0.68855 0.0
H1545 H 0.93747 0.8 0.78725 0.0
H1546 H 0.88731 0.83858 0.59429 0.0
H1547 H 0.91707 0.83778 0.56939 0.0
H1548 H 0.90704 0.86305 0.60791 0.0
H1549 H 0.89644 0.76376 0.71028 0.0
H1550 H 0.91779 0.76439 0.76531 0.0
H1551 H 0.92715 0.75919 0.69584 0.0
C1552 C 0.85735 0.2072 0.46125 0.0
C1553 C 0.8653 0.20542 0.51558 0.0
C1554 C 0.86545 0.19127 0.42095 0.0
C1555 C 0.882 0.17341 0.4354 0.0
C1556 C 0.88759 0.16979 0.49135 0.0
C1557 C 0.87901 0.1857 0.53072 0.0
C1558 C 0.8584 0.19529 0.36204 0.0
C1559 C 0.90514 0.15112 0.50908 0.0
C1560 C 0.90841 0.13014 0.33102 0.0
C1561 C 0.92858 0.14264 0.31416 0.0
C1562 C 0.89257 0.14006 0.36948 0.0
C1563 C 0.89747 0.16262 0.39247 0.0
C1564 C 0.91811 0.17497 0.37611 0.0
C1565 C 0.93315 0.16498 0.33691 0.0
C1566 C 0.87052 0.12659 0.38501 0.0
C1567 C 0.92459 0.19875 0.40042 0.0
H1568 H 0.84667 0.22226 0.44908 0.0
H1569 H 0.88493 0.18393 0.57283 0.0
H1570 H 0.87263 0.20525 0.3408 0.0
H1571 H 0.85601 0.17821 0.34031 0.0
H1572 H 0.84177 0.20571 0.35889 0.0
H1573 H 0.90404 0.1475 0.55377 0.0
H1574 H 0.90233 0.13433 0.48655 0.0
H1575 H 0.92333 0.15738 0.49975 0.0
H1576 H 0.90475 0.11294 0.31326 0.0
H1577 H 0.94886 0.17463 0.32456 0.0
H1578 H 0.85464 0.13733 0.375 0.0
H1579 H 0.87022 0.12332 0.42983 0.0
H1580 H 0.86919 0.10933 0.36342 0.0
H1581 H 0.91049 0.21186 0.39145 0.0
H1582 H 0.94159 0.20571 0.38415 0.0
H1583 H 0.92614 0.19729 0.44565 0.0
C1584 C 0.64917 0.23295 0.11463 0.0
C1585 C 0.65421 0.22894 0.05906 0.0
C1586 C 0.64369 0.21404 0.15003 0.0
C1587 C 0.64321 0.1906 0.12936 0.0
C1588 C 0.65025 0.1863 0.07466 0.0
C1589 C 0.6558 0.20546 0.04031 0.0
C1590 C 0.63712 0.21928 0.20875 0.0
C1591 C 0.65002 0.16161 0.05104 0.0
C1592 C 0.63443 0.14037 0.23196 0.0
C1593 C 0.60989 0.13689 0.2288 0.0
C1594 C 0.64582 0.15706 0.19817 0.0
C1595 C 0.63215 0.17123 0.16214 0.0
C1596 C 0.60738 0.16752 0.1585 0.0
C1597 C 0.59664 0.15008 0.19102 0.0
C1598 C 0.67223 0.16035 0.2032 0.0
C1599 C 0.59198 0.18314 0.1231 0.0
H1600 H 0.64814 0.25095 0.1298 0.0
H1601 H 0.65984 0.20203 0.99764 0.0
H1602 H 0.61937 0.21194 0.21827 0.0
H1603 H 0.64992 0.21054 0.23669 0.0
H1604 H 0.63703 0.23856 0.21768 0.0
H1605 H 0.65895 0.16077 0.01055 0.0
H1606 H 0.65882 0.14899 0.07939 0.0
H1607 H 0.63142 0.15567 0.04583 0.0
H1608 H 0.64458 0.13061 0.26221 0.0
H1609 H 0.57755 0.14808 0.19002 0.0
H1610 H 0.67596 0.17708 0.22534 0.0
H1611 H 0.68053 0.16174 0.16212 0.0
H1612 H 0.68069 0.14557 0.22603 0.0
H1613 H 0.59883 0.1835 0.08059 0.0
H1614 H 0.59257 0.20157 0.13868 0.0
H1615 H 0.57324 0.17728 0.12266 0.0
C1616 C 0.58069 0.80031 0.77791 0.0
C1617 C 0.58495 0.82486 0.77841 0.0
C1618 C 0.58833 0.78556 0.82059 0.0
C1619 C 0.6009 0.79535 0.86534 0.0
C1620 C 0.60616 0.81993 0.86543 0.0
C1621 C 0.59803 0.83445 0.82207 0.0
C1622 C 0.5821 0.75953 0.81862 0.0
C1623 C 0.61981 0.83097 0.91203 0.0
C1624 C 0.59241 0.75835 0.99358 0.0
C1625 C 0.61195 0.74297 0.99165 0.0
C1626 C 0.5895 0.77659 0.95501 0.0
C1627 C 0.60661 0.77982 0.91334 0.0
C1628 C 0.62724 0.76549 0.91342 0.0
C1629 C 0.62963 0.74718 0.9524 0.0
C1630 C 0.56715 0.79126 0.95655 0.0
C1631 C 0.64609 0.76854 0.87026 0.0
H1632 H 0.5708 0.79247 0.74444 0.0
H1633 H 0.60154 0.85331 0.82291 0.0
H1634 H 0.59831 0.7486 0.82281 0.0
H1635 H 0.5703 0.75502 0.85343 0.0
H1636 H 0.57302 0.75453 0.7799 0.0
H1637 H 0.62492 0.84957 0.90306 0.0
H1638 H 0.60884 0.83078 0.94969 0.0
H1639 H 0.63603 0.82057 0.92083 0.0
H1640 H 0.57872 0.75556 0.02397 0.0
H1641 H 0.6449 0.73558 0.95064 0.0
H1642 H 0.55568 0.78642 0.92132 0.0
H1643 H 0.57137 0.81036 0.95268 0.0
H1644 H 0.55696 0.78848 0.99494 0.0
H1645 H 0.63956 0.7614 0.83067 0.0
H1646 H 0.66268 0.75909 0.88126 0.0
H1647 H 0.65015 0.78757 0.86395 0.0
C1648 C 0.52794 0.61527 0.72105 0.0
C1649 C 0.50439 0.61601 0.73941 0.0
C1650 C 0.54704 0.61518 0.7581 0.0
C1651 C 0.54263 0.61664 0.8151 0.0
C1652 C 0.51885 0.61671 0.834 0.0
C1653 C 0.50003 0.61603 0.79597 0.0
C1654 C 0.57198 0.61413 0.7361 0.0
C1655 C 0.51322 0.61811 0.89433 0.0
C1656 C 0.5902 0.60481 0.92363 0.0
C1657 C 0.5982 0.6278 0.9353 0.0
C1658 C 0.57297 0.6007 0.8828 0.0
C1659 C 0.56278 0.62011 0.8544 0.0
C1660 C 0.57129 0.64327 0.86496 0.0
C1661 C 0.58914 0.64675 0.90435 0.0
C1662 C 0.56504 0.57565 0.8717 0.0
C1663 C 0.56044 0.66463 0.83733 0.0
H1664 H 0.53148 0.6149 0.67739 0.0
H1665 H 0.48191 0.61656 0.81047 0.0
H1666 H 0.58099 0.6313 0.74324 0.0
H1667 H 0.58228 0.60031 0.75803 0.0
H1668 H 0.57239 0.61026 0.69147 0.0
H1669 H 0.49422 0.62199 0.90191 0.0
H1670 H 0.5176 0.601 0.91421 0.0
H1671 H 0.52408 0.63196 0.91432 0.0
H1672 H 0.59688 0.59009 0.94764 0.0
H1673 H 0.59471 0.66467 0.91371 0.0
H1674 H 0.56356 0.57244 0.82695 0.0
H1675 H 0.54728 0.5728 0.88984 0.0
H1676 H 0.57739 0.56244 0.88963 0.0
H1677 H 0.56941 0.68139 0.849 0.0
H1678 H 0.54147 0.66595 0.84877 0.0
H1679 H 0.56127 0.66273 0.79214 0.0
C1680 C 0.53231 0.4081 0.25579 0.0
C1681 C 0.50885 0.39987 0.25521 0.0
C1682 C 0.54903 0.3998 0.2176 0.0
C1683 C 0.54235 0.38234 0.1789 0.0
C1684 C 0.51835 0.37499 0.17617 0.0
C1685 C 0.50189 0.38419 0.21357 0.0
C1686 C 0.57408 0.40895 0.22037 0.0
C1687 C 0.50964 0.35682 0.13538 0.0
C1688 C 0.5765 0.36323 0.05246 0.0
C1689 C 0.58923 0.34373 0.07219 0.0
C1690 C 0.56263 0.37711 0.08774 0.0
C1691 C 0.56056 0.37066 0.14365 0.0
C1692 C 0.57419 0.3514 0.16413 0.0
C1693 C 0.58867 0.33841 0.12816 0.0
C1694 C 0.54927 0.39796 0.06448 0.0
C1695 C 0.57328 0.3437 0.22341 0.0
H1696 H 0.53789 0.42029 0.28758 0.0
H1697 H 0.48384 0.37768 0.21236 0.0
H1698 H 0.58559 0.39532 0.23945 0.0
H1699 H 0.58097 0.41254 0.17858 0.0
H1700 H 0.57539 0.4254 0.24511 0.0
H1701 H 0.49686 0.34454 0.15514 0.0
H1702 H 0.5 0.36608 0.10199 0.0
H1703 H 0.52398 0.34617 0.11679 0.0
H1704 H 0.57688 0.36723 0.00897 0.0
H1705 H 0.59837 0.32316 0.14325 0.0
H1706 H 0.54998 0.41324 0.09305 0.0
H1707 H 0.53041 0.39305 0.05884 0.0
H1708 H 0.55644 0.40355 0.0241 0.0
H1709 H 0.58892 0.35101 0.24514 0.0
H1710 H 0.57429 0.3241 0.2267 0.0
H1711 H 0.55715 0.3498 0.24497 0.0
C1712 C 0.96859 0.37661 0.37557 0.0
C1713 C 0.96392 0.3844 0.32219 0.0
C1714 C 0.95002 0.37006 0.41074 0.0
C1715 C 0.92627 0.37181 0.39218 0.0
C1716 C 0.9215 0.38162 0.33987 0.0
C1717 C 0.94044 0.3874 0.30509 0.0
C1718 C 0.95594 0.35911 0.46557 0.0
C1719 C 0.8965 0.38422 0.3189 0.0
C1720 C 0.8849 0.32491 0.4491 0.0
C1721 C 0.87431 0.33681 0.49318 0.0
C1722 C 0.90132 0.33633 0.41505 0.0
C1723 C 0.90689 0.36047 0.42429 0.0
C1724 C 0.89501 0.37304 0.4662 0.0
C1725 C 0.87904 0.36101 0.50053 0.0
C1726 C 0.91376 0.32215 0.37122 0.0
C1727 C 0.9001 0.39888 0.4766 0.0
H1728 H 0.98678 0.37366 0.3881 0.0
H1729 H 0.93691 0.39298 0.26332 0.0
H1730 H 0.94498 0.36702 0.49846 0.0
H1731 H 0.9519 0.3399 0.46432 0.0
H1732 H 0.97493 0.36131 0.4764 0.0
H1733 H 0.89561 0.39577 0.28205 0.0
H1734 H 0.8894 0.36655 0.3078 0.0
H1735 H 0.88484 0.39169 0.35109 0.0
H1736 H 0.88164 0.30616 0.44337 0.0
H1737 H 0.87097 0.37031 0.53456 0.0
H1738 H 0.93307 0.32178 0.37959 0.0
H1739 H 0.91123 0.33062 0.3306 0.0
H1740 H 0.90726 0.30361 0.36896 0.0
H1741 H 0.91821 0.40082 0.49366 0.0
H1742 H 0.88734 0.40681 0.50594 0.0
H1743 H 0.89946 0.40903 0.43766 0.0
C1744 C 0.94832 0.59099 0.67702 0.0
C1745 C 0.97245 0.59675 0.67637 0.0
C1746 C 0.93353 0.59696 0.63274 0.0
C1747 C 0.94298 0.6099 0.58808 0.0
C1748 C 0.96777 0.61354 0.58486 0.0
C1749 C 0.98229 0.60648 0.62873 0.0
C1750 C 0.90743 0.59159 0.63651 0.0
C1751 C 0.97865 0.62764 0.5387 0.0
C1752 C 0.90781 0.62882 0.46194 0.0
C1753 C 0.90001 0.65139 0.47761 0.0
C1754 C 0.92068 0.61442 0.49848 0.0
C1755 C 0.92685 0.62333 0.55083 0.0
C1756 C 0.91864 0.64602 0.56699 0.0
C1757 C 0.90493 0.65954 0.53057 0.0
C1758 C 0.92817 0.58999 0.48048 0.0
C1759 C 0.92527 0.65655 0.62184 0.0
H1760 H 0.94065 0.58361 0.71402 0.0
H1761 H 0.00087 0.61135 0.62855 0.0
H1762 H 0.89783 0.60764 0.65038 0.0
H1763 H 0.9002 0.58652 0.59586 0.0
H1764 H 0.90383 0.57711 0.66622 0.0
H1765 H -0.00174 0.62618 0.53826 0.0
H1766 H 0.9717 0.62172 0.49849 0.0
H1767 H 0.97387 0.64659 0.54357 0.0
H1768 H 0.90398 0.62249 0.42092 0.0
H1769 H 0.89919 0.67712 0.54245 0.0
H1770 H 0.92532 0.57694 0.51386 0.0
H1771 H 0.94733 0.59002 0.47071 0.0
H1772 H 0.91833 0.58407 0.44349 0.0
H1773 H 0.91878 0.64507 0.65551 0.0
H1774 H 0.91785 0.67459 0.62762 0.0
H1775 H 0.94483 0.65758 0.62563 0.0
C1776 C 0.40304 0.30314 0.31381 0.0
C1777 C 0.40699 0.32718 0.30213 0.0
C1778 C 0.3943 0.28763 0.27369 0.0
C1779 C 0.38923 0.29634 0.22053 0.0
C1780 C 0.39072 0.32101 0.21031 0.0
C1781 C 0.3996 0.33616 0.25124 0.0
C1782 C 0.39295 0.26152 0.28669 0.0
C1783 C 0.38517 0.33112 0.15448 0.0
C1784 C 0.40677 0.25519 0.105 0.0
C1785 C 0.38502 0.24535 0.08865 0.0
C1786 C 0.40816 0.27191 0.14717 0.0
C1787 C 0.38723 0.27936 0.17388 0.0
C1788 C 0.3651 0.26988 0.15729 0.0
C1789 C 0.36425 0.25284 0.11501 0.0
C1790 C 0.43222 0.28125 0.16377 0.0
C1791 C 0.34243 0.27753 0.18461 0.0
H1792 H 0.40832 0.29602 0.35326 0.0
H1793 H 0.40239 0.35471 0.24178 0.0
H1794 H 0.37665 0.25357 0.26928 0.0
H1795 H 0.40831 0.25235 0.26792 0.0
H1796 H 0.39331 0.25813 0.33155 0.0
H1797 H 0.38255 0.3506 0.15603 0.0
H1798 H 0.40009 0.32734 0.12628 0.0
H1799 H 0.36906 0.32279 0.13698 0.0
H1800 H 0.423 0.24955 0.08534 0.0
H1801 H 0.34738 0.24542 0.10267 0.0
H1802 H 0.43588 0.27666 0.2072 0.0
H1803 H 0.43257 0.30084 0.1604 0.0
H1804 H 0.44673 0.27395 0.13815 0.0
H1805 H 0.34265 0.27211 0.22832 0.0
H1806 H 0.32656 0.26972 0.16468 0.0
H1807 H 0.34087 0.29711 0.18365 0.0
C1808 C 0.34049 0.7348 0.94324 0.0
C1809 C 0.3504 0.75761 0.94135 0.0
C1810 C 0.34714 0.7172 0.90546 0.0
C1811 C 0.36439 0.72235 0.86511 0.0
C1812 C 0.37368 0.74562 0.86143 0.0
C1813 C 0.36643 0.76299 0.89919 0.0
C1814 C 0.3364 0.69281 0.91018 0.0
C1815 C 0.39222 0.75189 0.81931 0.0
C1816 C 0.40164 0.67226 0.80445 0.0
C1817 C 0.39181 0.67014 0.75194 0.0
C1818 C 0.39269 0.68895 0.8421 0.0
C1819 C 0.37308 0.70337 0.82731 0.0
C1820 C 0.3624 0.70033 0.77528 0.0
C1821 C 0.37208 0.68403 0.73809 0.0
C1822 C 0.4049 0.69195 0.8967 0.0
C1823 C 0.34122 0.71486 0.75811 0.0
H1824 H 0.32818 0.73039 0.97574 0.0
H1825 H 0.37449 0.7804 0.89772 0.0
H1826 H 0.32948 0.68694 0.86982 0.0
H1827 H 0.35021 0.67996 0.92285 0.0
H1828 H 0.32178 0.69219 0.94055 0.0
H1829 H 0.39715 0.77093 0.82064 0.0
H1830 H 0.40838 0.74115 0.82651 0.0
H1831 H 0.38573 0.74764 0.77753 0.0
H1832 H 0.41712 0.66185 0.81494 0.0
H1833 H 0.36445 0.68244 0.69744 0.0
H1834 H 0.39188 0.6905 0.9305 0.0
H1835 H 0.41288 0.70987 0.89919 0.0
H1836 H 0.41908 0.67862 0.90317 0.0
H1837 H 0.32714 0.71376 0.78967 0.0
H1838 H 0.33378 0.70897 0.71821 0.0
H1839 H 0.34637 0.73375 0.75444 0.0
C1840 C 0.12755 0.7278 0.57645 0.0
C1841 C 0.14179 0.72275 0.5311 0.0
C1842 C 0.12078 0.70988 0.61323 0.0
C1843 C 0.1286 0.68631 0.60459 0.0
C1844 C 0.14432 0.68147 0.56076 0.0
C1845 C 0.15042 0.69971 0.52389 0.0
C1846 C 0.10404 0.71595 0.65936 0.0
C1847 C 0.15373 0.65683 0.55117 0.0
C1848 C 0.11398 0.64814 0.72814 0.0
C1849 C 0.09207 0.6386 0.71258 0.0
C1850 C 0.12751 0.66168 0.69118 0.0
C1851 C 0.11831 0.66673 0.6384 0.0
C1852 C 0.097 0.65565 0.62131 0.0
C1853 C 0.08437 0.64136 0.65836 0.0
C1854 C 0.15062 0.67218 0.71038 0.0
C1855 C 0.0861 0.66095 0.56609 0.0
H1856 H 0.12051 0.74554 0.58126 0.0
H1857 H 0.16111 0.69575 0.48818 0.0
H1858 H 0.08721 0.70605 0.65418 0.0
H1859 H 0.11173 0.71053 0.69925 0.0
H1860 H 0.10003 0.73519 0.66115 0.0
H1861 H 0.16885 0.65682 0.5221 0.0
H1862 H 0.1595 0.64868 0.59038 0.0
H1863 H 0.13949 0.64553 0.53391 0.0
H1864 H 0.11982 0.6463 0.77029 0.0
H1865 H 0.06715 0.63451 0.64666 0.0
H1866 H 0.14777 0.69082 0.72302 0.0
H1867 H 0.16391 0.67217 0.67691 0.0
H1868 H 0.15793 0.66233 0.74603 0.0
H1869 H 0.07972 0.67954 0.56553 0.0
H1870 H 0.07091 0.64912 0.55679 0.0
H1871 H 0.09943 0.65914 0.53307 0.0
C1872 C 0.08685 0.35731 0.34944 0.0
C1873 C 0.09596 0.37022 0.30519 0.0
C1874 C 0.10157 0.34306 0.38205 0.0
C1875 C 0.12628 0.34232 0.37161 0.0
C1876 C 0.1358 0.35661 0.3292 0.0
C1877 C 0.12044 0.36993 0.29561 0.0
C1878 C 0.09032 0.32761 0.42546 0.0
C1879 C 0.16198 0.35739 0.31732 0.0
C1880 C 0.15372 0.31282 0.49465 0.0
C1881 C 0.15344 0.28903 0.47792 0.0
C1882 C 0.14798 0.33112 0.45794 0.0
C1883 C 0.14128 0.32542 0.4037 0.0
C1884 C 0.14457 0.30195 0.3846 0.0
C1885 C 0.15059 0.28391 0.42208 0.0
C1886 C 0.14683 0.35625 0.47863 0.0
C1887 C 0.14007 0.29567 0.32547 0.0
H1888 H 0.06788 0.35698 0.3562 0.0
H1889 H 0.12755 0.37971 0.2611 0.0
H1890 H 0.09321 0.30869 0.41517 0.0
H1891 H 0.09859 0.33089 0.46596 0.0
H1892 H 0.071 0.33078 0.42934 0.0
H1893 H 0.16741 0.37561 0.30562 0.0
H1894 H 0.17287 0.35157 0.35273 0.0
H1895 H 0.16586 0.34573 0.28188 0.0
H1896 H 0.1564 0.31697 0.53761 0.0
H1897 H 0.15067 0.26562 0.40864 0.0
H1898 H 0.12819 0.36091 0.48797 0.0
H1899 H 0.1533 0.36877 0.4469 0.0
H1900 H 0.15747 0.35858 0.51658 0.0
H1901 H 0.12179 0.3007 0.31351 0.0
H1902 H 0.14279 0.27652 0.31737 0.0
H1903 H 0.15232 0.30583 0.29891 0.0
loop_
_geom_bond_atom_site_label_1
_geom_bond_atom_site_label_2
_geom_bond_distance
_geom_bond_site_symmetry_2
_ccdc_geom_bond_type
O0 Zn1 1.953 . S
O0 C16 1.225 . S
Zn1 O0 1.953 . S
Zn1 O2 1.949 1_655 S
Zn1 O8 1.919 . S
Zn1 O13 1.924 . S
O2 Zn1 1.949 1_455 S
O2 Zn3 1.923 . S
O2 Zn4 1.950 . S
O2 Zn5 1.945 . S
Zn3 O2 1.923 . S
Zn3 O6 1.933 . S
Zn3 O9 1.941 . S
Zn3 O10 1.965 . S
Zn4 O2 1.950 . S
Zn4 O11 1.938 . S
Zn4 O12 1.906 . S
Zn4 O22 1.953 1_455 S
Zn5 O2 1.945 . S
Zn5 O7 1.932 1_554 S
Zn5 O14 1.977 . S
Zn5 O15 1.910 1_455 S
O6 Zn3 1.933 . S
O6 C17 1.226 . S
O7 Zn5 1.932 1_556 S
O7 C17 1.307 1_556 S
O8 Zn1 1.919 . S
O8 C19 1.253 1_655 S
O9 Zn3 1.941 . S
O9 C19 1.283 . S
O10 Zn3 1.965 . S
O10 C18 1.303 . S
O11 Zn4 1.938 . S
O11 C18 1.247 . S
O12 Zn4 1.906 . S
O12 C20 1.304 . S
O13 Zn1 1.924 . S
O13 C21 1.311 . S
O14 Zn5 1.977 . S
O14 C20 1.272 . S
O15 Zn5 1.910 1_655 S
O15 C21 1.231 . S
C16 O0 1.225 . S
C16 O22 1.298 . S
C17 O6 1.226 . S
C17 O7 1.307 1_554 S
C18 O10 1.303 . S
C18 O11 1.247 . S
C19 O8 1.253 1_455 S
C19 O9 1.283 . S
C20 O12 1.304 . S
C20 O14 1.272 . S
C21 O13 1.311 . S
C21 O15 1.231 . S
O22 Zn4 1.953 1_655 S
O22 C16 1.298 . S
O23 Zn24 1.953 . S
O23 C39 1.225 . S
Zn24 O23 1.953 . S
Zn24 O25 1.949 . S
Zn24 O31 1.919 . S
Zn24 O36 1.924 . S
O25 Zn24 1.949 . S
O25 Zn26 1.923 . S
O25 Zn27 1.950 . S
O25 Zn28 1.945 . S
Zn26 O25 1.923 . S
Zn26 O29 1.933 . S
Zn26 O32 1.941 . S
Zn26 O33 1.965 . S
Zn27 O25 1.950 . S
Zn27 O34 1.938 . S
Zn27 O35 1.906 . S
Zn27 O45 1.953 . S
Zn28 O25 1.945 . S
Zn28 O30 1.932 . S
Zn28 O37 1.977 . S
Zn28 O38 1.910 . S
O29 Zn26 1.933 . S
O29 C40 1.226 . S
O30 Zn28 1.932 . S
O30 C40 1.307 . S
O31 Zn24 1.919 . S
O31 C42 1.253 . S
O32 Zn26 1.941 . S
O32 C42 1.283 . S
O33 Zn26 1.965 . S
O33 C41 1.303 . S
O34 Zn27 1.938 . S
O34 C41 1.247 . S
O35 Zn27 1.906 . S
O35 C43 1.304 . S
O36 Zn24 1.924 . S
O36 C44 1.311 . S
O37 Zn28 1.977 . S
O37 C43 1.272 . S
O38 Zn28 1.910 . S
O38 C44 1.231 . S
C39 O23 1.225 . S
C39 O45 1.298 . S
C40 O29 1.226 . S
C40 O30 1.307 . S
C41 O33 1.303 . S
C41 O34 1.247 . S
C42 O31 1.253 . S
C42 O32 1.283 . S
C43 O35 1.304 . S
C43 O37 1.272 . S
C44 O36 1.311 . S
C44 O38 1.231 . S
O45 Zn27 1.953 . S
O45 C39 1.298 . S
O46 Zn47 1.953 . S
O46 C62 1.225 . S
Zn47 O46 1.953 . S
Zn47 O48 1.949 . S
Zn47 O54 1.919 . S
Zn47 O59 1.924 . S
O48 Zn47 1.949 . S
O48 Zn49 1.923 . S
O48 Zn50 1.950 . S
O48 Zn51 1.945 . S
Zn49 O48 1.923 . S
Zn49 O52 1.933 . S
Zn49 O55 1.941 . S
Zn49 O56 1.965 . S
Zn50 O48 1.950 . S
Zn50 O57 1.938 . S
Zn50 O58 1.906 . S
Zn50 O68 1.953 . S
Zn51 O48 1.945 . S
Zn51 O53 1.932 . S
Zn51 O60 1.977 . S
Zn51 O61 1.910 . S
O52 Zn49 1.933 . S
O52 C63 1.226 . S
O53 Zn51 1.932 . S
O53 C63 1.307 . S
O54 Zn47 1.919 . S
O54 C65 1.253 . S
O55 Zn49 1.941 . S
O55 C65 1.283 . S
O56 Zn49 1.965 . S
O56 C64 1.303 . S
O57 Zn50 1.938 . S
O57 C64 1.247 . S
O58 Zn50 1.906 . S
O58 C66 1.304 . S
O59 Zn47 1.924 . S
O59 C67 1.311 . S
O60 Zn51 1.977 . S
O60 C66 1.272 . S
O61 Zn51 1.910 . S
O61 C67 1.231 . S
C62 O46 1.225 . S
C62 O68 1.298 . S
C63 O52 1.226 . S
C63 O53 1.307 . S
C64 O56 1.303 . S
C64 O57 1.247 . S
C65 O54 1.253 . S
C65 O55 1.283 . S
C66 O58 1.304 . S
C66 O60 1.272 . S
C67 O59 1.311 . S
C67 O61 1.231 . S
O68 Zn50 1.953 . S
O68 C62 1.298 . S
O69 Zn70 1.953 . S
O69 C85 1.225 . S
Zn70 O69 1.953 . S
Zn70 O71 1.949 . S
Zn70 O77 1.919 . S
Zn70 O82 1.924 . S
O71 Zn70 1.949 . S
O71 Zn72 1.923 . S
O71 Zn73 1.950 . S
O71 Zn74 1.945 . S
Zn72 O71 1.923 . S
Zn72 O75 1.933 . S
Zn72 O78 1.941 . S
Zn72 O79 1.965 . S
Zn73 O71 1.950 . S
Zn73 O80 1.938 . S
Zn73 O81 1.906 . S
Zn73 O91 1.953 . S
Zn74 O71 1.945 . S
Zn74 O76 1.932 . S
Zn74 O83 1.977 . S
Zn74 O84 1.910 . S
O75 Zn72 1.933 . S
O75 C86 1.226 . S
O76 Zn74 1.932 . S
O76 C86 1.307 . S
O77 Zn70 1.919 . S
O77 C88 1.253 . S
O78 Zn72 1.941 . S
O78 C88 1.283 . S
O79 Zn72 1.965 . S
O79 C87 1.303 . S
O80 Zn73 1.938 . S
O80 C87 1.247 . S
O81 Zn73 1.906 . S
O81 C89 1.304 . S
O82 Zn70 1.924 . S
O82 C90 1.311 . S
O83 Zn74 1.977 . S
O83 C89 1.272 . S
O84 Zn74 1.910 . S
O84 C90 1.231 . S
C85 O69 1.225 . S
C85 O91 1.298 . S
C86 O75 1.226 . S
C86 O76 1.307 . S
C87 O79 1.303 . S
C87 O80 1.247 . S
C88 O77 1.253 . S
C88 O78 1.283 . S
C89 O81 1.304 . S
C89 O83 1.272 . S
C90 O82 1.311 . S
C90 O84 1.231 . S
O91 Zn73 1.953 . S
O91 C85 1.298 . S
O92 Zn93 1.953 . S
O92 C108 1.225 . S
Zn93 O92 1.953 . S
Zn93 O94 1.949 1_655 S
Zn93 O100 1.919 . S
Zn93 O105 1.924 . S
O94 Zn93 1.949 1_455 S
O94 Zn95 1.923 . S
O94 Zn96 1.950 . S
O94 Zn97 1.945 . S
Zn95 O94 1.923 . S
Zn95 O98 1.933 . S
Zn95 O101 1.941 . S
Zn95 O102 1.965 . S
Zn96 O94 1.950 . S
Zn96 O103 1.938 . S
Zn96 O104 1.906 . S
Zn96 O114 1.953 1_455 S
Zn97 O94 1.945 . S
Zn97 O99 1.932 1_556 S
Zn97 O106 1.977 . S
Zn97 O107 1.910 1_455 S
O98 Zn95 1.933 . S
O98 C109 1.226 . S
O99 Zn97 1.932 1_554 S
O99 C109 1.307 1_554 S
O100 Zn93 1.919 . S
O100 C111 1.253 1_655 S
O101 Zn95 1.941 . S
O101 C111 1.283 . S
O102 Zn95 1.965 . S
O102 C110 1.303 . S
O103 Zn96 1.938 . S
O103 C110 1.247 . S
O104 Zn96 1.906 . S
O104 C112 1.304 . S
O105 Zn93 1.924 . S
O105 C113 1.311 . S
O106 Zn97 1.977 . S
O106 C112 1.272 . S
O107 Zn97 1.910 1_655 S
O107 C113 1.231 . S
C108 O92 1.225 . S
C108 O114 1.298 . S
C109 O98 1.226 . S
C109 O99 1.307 1_556 S
C110 O102 1.303 . S
C110 O103 1.247 . S
C111 O100 1.253 1_455 S
C111 O101 1.283 . S
C112 O104 1.304 . S
C112 O106 1.272 . S
C113 O105 1.311 . S
C113 O107 1.231 . S
O114 Zn96 1.953 1_655 S
O114 C108 1.298 . S
O115 Zn116 1.953 . S
O115 C131 1.225 . S
Zn116 O115 1.953 . S
Zn116 O117 1.949 . S
Zn116 O123 1.919 . S
Zn116 O128 1.924 . S
O117 Zn116 1.949 . S
O117 Zn118 1.923 . S
O117 Zn119 1.950 . S
O117 Zn120 1.945 . S
Zn118 O117 1.923 . S
Zn118 O121 1.933 . S
Zn118 O124 1.941 . S
Zn118 O125 1.965 . S
Zn119 O117 1.950 . S
Zn119 O126 1.938 . S
Zn119 O127 1.906 . S
Zn119 O137 1.953 . S
Zn120 O117 1.945 . S
Zn120 O122 1.932 . S
Zn120 O129 1.977 . S
Zn120 O130 1.910 . S
O121 Zn118 1.933 . S
O121 C132 1.226 . S
O122 Zn120 1.932 . S
O122 C132 1.307 . S
O123 Zn116 1.919 . S
O123 C134 1.253 . S
O124 Zn118 1.941 . S
O124 C134 1.283 . S
O125 Zn118 1.965 . S
O125 C133 1.303 . S
O126 Zn119 1.938 . S
O126 C133 1.247 . S
O127 Zn119 1.906 . S
O127 C135 1.304 . S
O128 Zn116 1.924 . S
O128 C136 1.311 . S
O129 Zn120 1.977 . S
O129 C135 1.272 . S
O130 Zn120 1.910 . S
O130 C136 1.231 . S
C131 O115 1.225 . S
C131 O137 1.298 . S
C132 O121 1.226 . S
C132 O122 1.307 . S
C133 O125 1.303 . S
C133 O126 1.247 . S
C134 O123 1.253 . S
C134 O124 1.283 . S
C135 O127 1.304 . S
C135 O129 1.272 . S
C136 O128 1.311 . S
C136 O130 1.231 . S
O137 Zn119 1.953 . S
O137 C131 1.298 . S
O138 Zn139 1.953 . S
O138 C154 1.225 . S
Zn139 O138 1.953 . S
Zn139 O140 1.949 . S
Zn139 O146 1.919 . S
Zn139 O151 1.924 . S
O140 Zn139 1.949 . S
O140 Zn141 1.923 . S
O140 Zn142 1.950 . S
O140 Zn143 1.945 . S
Zn141 O140 1.923 . S
Zn141 O144 1.933 . S
Zn141 O147 1.941 . S
Zn141 O148 1.965 . S
Zn142 O140 1.950 . S
Zn142 O149 1.938 . S
Zn142 O150 1.906 . S
Zn142 O160 1.953 . S
Zn143 O140 1.945 . S
Zn143 O145 1.932 . S
Zn143 O152 1.977 . S
Zn143 O153 1.910 . S
O144 Zn141 1.933 . S
O144 C155 1.226 . S
O145 Zn143 1.932 . S
O145 C155 1.307 . S
O146 Zn139 1.919 . S
O146 C157 1.253 . S
O147 Zn141 1.941 . S
O147 C157 1.283 . S
O148 Zn141 1.965 . S
O148 C156 1.303 . S
O149 Zn142 1.938 . S
O149 C156 1.247 . S
O150 Zn142 1.906 . S
O150 C158 1.304 . S
O151 Zn139 1.924 . S
O151 C159 1.311 . S
O152 Zn143 1.977 . S
O152 C158 1.272 . S
O153 Zn143 1.910 . S
O153 C159 1.231 . S
C154 O138 1.225 . S
C154 O160 1.298 . S
C155 O144 1.226 . S
C155 O145 1.307 . S
C156 O148 1.303 . S
C156 O149 1.247 . S
C157 O146 1.253 . S
C157 O147 1.283 . S
C158 O150 1.304 . S
C158 O152 1.272 . S
C159 O151 1.311 . S
C159 O153 1.231 . S
O160 Zn142 1.953 . S
O160 C154 1.298 . S
O161 Zn162 1.953 . S
O161 C177 1.225 . S
Zn162 O161 1.953 . S
Zn162 O163 1.949 . S
Zn162 O169 1.919 . S
Zn162 O174 1.924 . S
O163 Zn162 1.949 . S
O163 Zn164 1.923 . S
O163 Zn165 1.950 . S
O163 Zn166 1.945 . S
Zn164 O163 1.923 . S
Zn164 O167 1.933 . S
Zn164 O170 1.941 . S
Zn164 O171 1.965 . S
Zn165 O163 1.950 . S
Zn165 O172 1.938 . S
Zn165 O173 1.906 . S
Zn165 O183 1.953 . S
Zn166 O163 1.945 . S
Zn166 O168 1.932 . S
Zn166 O175 1.977 . S
Zn166 O176 1.910 . S
O167 Zn164 1.933 . S
O167 C178 1.226 . S
O168 Zn166 1.932 . S
O168 C178 1.307 . S
O169 Zn162 1.919 . S
O169 C180 1.253 . S
O170 Zn164 1.941 . S
O170 C180 1.283 . S
O171 Zn164 1.965 . S
O171 C179 1.303 . S
O172 Zn165 1.938 . S
O172 C179 1.247 . S
O173 Zn165 1.906 . S
O173 C181 1.304 . S
O174 Zn162 1.924 . S
O174 C182 1.311 . S
O175 Zn166 1.977 . S
O175 C181 1.272 . S
O176 Zn166 1.910 . S
O176 C182 1.231 . S
C177 O161 1.225 . S
C177 O183 1.298 . S
C178 O167 1.226 . S
C178 O168 1.307 . S
C179 O171 1.303 . S
C179 O172 1.247 . S
C180 O169 1.253 . S
C180 O170 1.283 . S
C181 O173 1.304 . S
C181 O175 1.272 . S
C182 O174 1.311 . S
C182 O176 1.231 . S
O183 Zn165 1.953 . S
O183 C177 1.298 . S
O184 Zn185 1.953 . S
O184 C200 1.225 . S
Zn185 O184 1.953 . S
Zn185 O186 1.949 . S
Zn185 O192 1.919 . S
Zn185 O197 1.924 . S
O186 Zn185 1.949 . S
O186 Zn187 1.923 . S
O186 Zn188 1.950 . S
O186 Zn189 1.945 . S
Zn187 O186 1.923 . S
Zn187 O190 1.933 . S
Zn187 O193 1.941 . S
Zn187 O194 1.965 . S
Zn188 O186 1.950 . S
Zn188 O195 1.938 . S
Zn188 O196 1.906 . S
Zn188 O206 1.953 . S
Zn189 O186 1.945 . S
Zn189 O191 1.932 . S
Zn189 O198 1.977 . S
Zn189 O199 1.910 . S
O190 Zn187 1.933 . S
O190 C201 1.226 . S
O191 Zn189 1.932 . S
O191 C201 1.307 . S
O192 Zn185 1.919 . S
O192 C203 1.253 . S
O193 Zn187 1.941 . S
O193 C203 1.283 . S
O194 Zn187 1.965 . S
O194 C202 1.303 . S
O195 Zn188 1.938 . S
O195 C202 1.247 . S
O196 Zn188 1.906 . S
O196 C204 1.304 . S
O197 Zn185 1.924 . S
O197 C205 1.311 . S
O198 Zn189 1.977 . S
O198 C204 1.272 . S
O199 Zn189 1.910 . S
O199 C205 1.231 . S
C200 O184 1.225 . S
C200 O206 1.298 . S
C201 O190 1.226 . S
C201 O191 1.307 . S
C202 O194 1.303 . S
C202 O195 1.247 . S
C203 O192 1.253 . S
C203 O193 1.283 . S
C204 O196 1.304 . S
C204 O198 1.272 . S
C205 O197 1.311 . S
C205 O199 1.231 . S
O206 Zn188 1.953 . S
O206 C200 1.298 . S
O207 Zn208 1.953 . S
O207 C223 1.225 . S
Zn208 O207 1.953 . S
Zn208 O209 1.949 . S
Zn208 O215 1.919 . S
Zn208 O220 1.924 . S
O209 Zn208 1.949 . S
O209 Zn210 1.923 . S
O209 Zn211 1.950 . S
O209 Zn212 1.945 . S
Zn210 O209 1.923 . S
Zn210 O213 1.933 . S
Zn210 O216 1.941 . S
Zn210 O217 1.965 . S
Zn211 O209 1.950 . S
Zn211 O218 1.938 . S
Zn211 O219 1.906 . S
Zn211 O229 1.953 . S
Zn212 O209 1.945 . S
Zn212 O214 1.932 . S
Zn212 O221 1.977 . S
Zn212 O222 1.910 . S
O213 Zn210 1.933 . S
O213 C224 1.226 . S
O214 Zn212 1.932 . S
O214 C224 1.307 . S
O215 Zn208 1.919 . S
O215 C226 1.253 . S
O216 Zn210 1.941 . S
O216 C226 1.283 . S
O217 Zn210 1.965 . S
O217 C225 1.303 . S
O218 Zn211 1.938 . S
O218 C225 1.247 . S
O219 Zn211 1.906 . S
O219 C227 1.304 . S
O220 Zn208 1.924 . S
O220 C228 1.311 . S
O221 Zn212 1.977 . S
O221 C227 1.272 . S
O222 Zn212 1.910 . S
O222 C228 1.231 . S
C223 O207 1.225 . S
C223 O229 1.298 . S
C224 O213 1.226 . S
C224 O214 1.307 . S
C225 O217 1.303 . S
C225 O218 1.247 . S
C226 O215 1.253 . S
C226 O216 1.283 . S
C227 O219 1.304 . S
C227 O221 1.272 . S
C228 O220 1.311 . S
C228 O222 1.231 . S
O229 Zn211 1.953 . S
O229 C223 1.298 . S
O230 Zn231 1.953 . S
O230 C246 1.225 . S
Zn231 O230 1.953 . S
Zn231 O232 1.949 . S
Zn231 O238 1.919 . S
Zn231 O243 1.924 . S
O232 Zn231 1.949 . S
O232 Zn233 1.923 . S
O232 Zn234 1.950 . S
O232 Zn235 1.945 . S
Zn233 O232 1.923 . S
Zn233 O236 1.933 . S
Zn233 O239 1.941 . S
Zn233 O240 1.965 . S
Zn234 O232 1.950 . S
Zn234 O241 1.938 . S
Zn234 O242 1.906 . S
Zn234 O252 1.953 . S
Zn235 O232 1.945 . S
Zn235 O237 1.932 . S
Zn235 O244 1.977 . S
Zn235 O245 1.910 . S
O236 Zn233 1.933 . S
O236 C247 1.226 . S
O237 Zn235 1.932 . S
O237 C247 1.307 . S
O238 Zn231 1.919 . S
O238 C249 1.253 . S
O239 Zn233 1.941 . S
O239 C249 1.283 . S
O240 Zn233 1.965 . S
O240 C248 1.303 . S
O241 Zn234 1.938 . S
O241 C248 1.247 . S
O242 Zn234 1.906 . S
O242 C250 1.304 . S
O243 Zn231 1.924 . S
O243 C251 1.311 . S
O244 Zn235 1.977 . S
O244 C250 1.272 . S
O245 Zn235 1.910 . S
O245 C251 1.231 . S
C246 O230 1.225 . S
C246 O252 1.298 . S
C247 O236 1.226 . S
C247 O237 1.307 . S
C248 O240 1.303 . S
C248 O241 1.247 . S
C249 O238 1.253 . S
C249 O239 1.283 . S
C250 O242 1.304 . S
C250 O244 1.272 . S
C251 O243 1.311 . S
C251 O245 1.231 . S
O252 Zn234 1.953 . S
O252 C246 1.298 . S
O253 Zn254 1.953 . S
O253 C269 1.225 . S
Zn254 O253 1.953 . S
Zn254 O255 1.949 . S
Zn254 O261 1.919 . S
Zn254 O266 1.924 . S
O255 Zn254 1.949 . S
O255 Zn256 1.923 . S
O255 Zn257 1.950 . S
O255 Zn258 1.945 . S
Zn256 O255 1.923 . S
Zn256 O259 1.933 . S
Zn256 O262 1.941 . S
Zn256 O263 1.965 . S
Zn257 O255 1.950 . S
Zn257 O264 1.938 . S
Zn257 O265 1.906 . S
Zn257 O275 1.953 . S
Zn258 O255 1.945 . S
Zn258 O260 1.932 . S
Zn258 O267 1.977 . S
Zn258 O268 1.910 . S
O259 Zn256 1.933 . S
O259 C270 1.226 . S
O260 Zn258 1.932 . S
O260 C270 1.307 . S
O261 Zn254 1.919 . S
O261 C272 1.253 . S
O262 Zn256 1.941 . S
O262 C272 1.283 . S
O263 Zn256 1.965 . S
O263 C271 1.303 . S
O264 Zn257 1.938 . S
O264 C271 1.247 . S
O265 Zn257 1.906 . S
O265 C273 1.304 . S
O266 Zn254 1.924 . S
O266 C274 1.311 . S
O267 Zn258 1.977 . S
O267 C273 1.272 . S
O268 Zn258 1.910 . S
O268 C274 1.231 . S
C269 O253 1.225 . S
C269 O275 1.298 . S
C270 O259 1.226 . S
C270 O260 1.307 . S
C271 O263 1.303 . S
C271 O264 1.247 . S
C272 O261 1.253 . S
C272 O262 1.283 . S
C273 O265 1.304 . S
C273 O267 1.272 . S
C274 O266 1.311 . S
C274 O268 1.231 . S
O275 Zn257 1.953 . S
O275 C269 1.298 . S
O276 Zn277 1.953 . S
O276 C292 1.225 . S
Zn277 O276 1.953 . S
Zn277 O278 1.949 . S
Zn277 O284 1.919 . S
Zn277 O289 1.924 . S
O278 Zn277 1.949 . S
O278 Zn279 1.923 . S
O278 Zn280 1.950 . S
O278 Zn281 1.945 . S
Zn279 O278 1.923 . S
Zn279 O282 1.933 . S
Zn279 O285 1.941 . S
Zn279 O286 1.965 . S
Zn280 O278 1.950 . S
Zn280 O287 1.938 . S
Zn280 O288 1.906 . S
Zn280 O298 1.953 . S
Zn281 O278 1.945 . S
Zn281 O283 1.932 . S
Zn281 O290 1.977 . S
Zn281 O291 1.910 . S
O282 Zn279 1.933 . S
O282 C293 1.226 . S
O283 Zn281 1.932 . S
O283 C293 1.307 . S
O284 Zn277 1.919 . S
O284 C295 1.253 . S
O285 Zn279 1.941 . S
O285 C295 1.283 . S
O286 Zn279 1.965 . S
O286 C294 1.303 . S
O287 Zn280 1.938 . S
O287 C294 1.247 . S
O288 Zn280 1.906 . S
O288 C296 1.304 . S
O289 Zn277 1.924 . S
O289 C297 1.311 . S
O290 Zn281 1.977 . S
O290 C296 1.272 . S
O291 Zn281 1.910 . S
O291 C297 1.231 . S
C292 O276 1.225 . S
C292 O298 1.298 . S
C293 O282 1.226 . S
C293 O283 1.307 . S
C294 O286 1.303 . S
C294 O287 1.247 . S
C295 O284 1.253 . S
C295 O285 1.283 . S
C296 O288 1.304 . S
C296 O290 1.272 . S
C297 O289 1.311 . S
C297 O291 1.231 . S
O298 Zn280 1.953 . S
O298 C292 1.298 . S
O299 Zn300 1.953 . S
O299 C315 1.225 . S
Zn300 O299 1.953 . S
Zn300 O301 1.949 . S
Zn300 O307 1.919 . S
Zn300 O312 1.924 . S
O301 Zn300 1.949 . S
O301 Zn302 1.923 1_455 S
O301 Zn303 1.950 . S
O301 Zn304 1.945 . S
Zn302 O301 1.923 1_655 S
Zn302 O305 1.933 . S
Zn302 O308 1.941 . S
Zn302 O309 1.965 . S
Zn303 O301 1.950 . S
Zn303 O310 1.938 1_455 S
Zn303 O311 1.906 . S
Zn303 O321 1.953 . S
Zn304 O301 1.945 . S
Zn304 O306 1.932 1_454 S
Zn304 O313 1.977 . S
Zn304 O314 1.910 . S
O305 Zn302 1.933 . S
O305 C316 1.226 . S
O306 Zn304 1.932 1_656 S
O306 C316 1.307 1_556 S
O307 Zn300 1.919 . S
O307 C318 1.253 1_455 S
O308 Zn302 1.941 . S
O308 C318 1.283 . S
O309 Zn302 1.965 . S
O309 C317 1.303 . S
O310 Zn303 1.938 1_655 S
O310 C317 1.247 . S
O311 Zn303 1.906 . S
O311 C319 1.304 . S
O312 Zn300 1.924 . S
O312 C320 1.311 . S
O313 Zn304 1.977 . S
O313 C319 1.272 . S
O314 Zn304 1.910 . S
O314 C320 1.231 . S
C315 O299 1.225 . S
C315 O321 1.298 . S
C316 O305 1.226 . S
C316 O306 1.307 1_554 S
C317 O309 1.303 . S
C317 O310 1.247 . S
C318 O307 1.253 1_655 S
C318 O308 1.283 . S
C319 O311 1.304 . S
C319 O313 1.272 . S
C320 O312 1.311 . S
C320 O314 1.231 . S
O321 Zn303 1.953 . S
O321 C315 1.298 . S
O322 Zn323 1.953 . S
O322 C338 1.225 . S
Zn323 O322 1.953 . S
Zn323 O324 1.949 . S
Zn323 O330 1.919 . S
Zn323 O335 1.924 . S
O324 Zn323 1.949 . S
O324 Zn325 1.923 . S
O324 Zn326 1.950 . S
O324 Zn327 1.945 . S
Zn325 O324 1.923 . S
Zn325 O328 1.933 . S
Zn325 O331 1.941 . S
Zn325 O332 1.965 . S
Zn326 O324 1.950 . S
Zn326 O333 1.938 . S
Zn326 O334 1.906 . S
Zn326 O344 1.953 . S
Zn327 O324 1.945 . S
Zn327 O329 1.932 . S
Zn327 O336 1.977 . S
Zn327 O337 1.910 . S
O328 Zn325 1.933 . S
O328 C339 1.226 . S
O329 Zn327 1.932 . S
O329 C339 1.307 . S
O330 Zn323 1.919 . S
O330 C341 1.253 . S
O331 Zn325 1.941 . S
O331 C341 1.283 . S
O332 Zn325 1.965 . S
O332 C340 1.303 . S
O333 Zn326 1.938 . S
O333 C340 1.247 . S
O334 Zn326 1.906 . S
O334 C342 1.304 . S
O335 Zn323 1.924 . S
O335 C343 1.311 . S
O336 Zn327 1.977 . S
O336 C342 1.272 . S
O337 Zn327 1.910 . S
O337 C343 1.231 . S
C338 O322 1.225 . S
C338 O344 1.298 . S
C339 O328 1.226 . S
C339 O329 1.307 . S
C340 O332 1.303 . S
C340 O333 1.247 . S
C341 O330 1.253 . S
C341 O331 1.283 . S
C342 O334 1.304 . S
C342 O336 1.272 . S
C343 O335 1.311 . S
C343 O337 1.231 . S
O344 Zn326 1.953 . S
O344 C338 1.298 . S
O345 Zn346 1.953 . S
O345 C361 1.225 . S
Zn346 O345 1.953 . S
Zn346 O347 1.949 . S
Zn346 O353 1.919 . S
Zn346 O358 1.924 . S
O347 Zn346 1.949 . S
O347 Zn348 1.923 1_455 S
O347 Zn349 1.950 . S
O347 Zn350 1.945 . S
Zn348 O347 1.923 1_655 S
Zn348 O351 1.933 . S
Zn348 O354 1.941 . S
Zn348 O355 1.965 . S
Zn349 O347 1.950 . S
Zn349 O356 1.938 1_455 S
Zn349 O357 1.906 . S
Zn349 O367 1.953 . S
Zn350 O347 1.945 . S
Zn350 O352 1.932 1_456 S
Zn350 O359 1.977 . S
Zn350 O360 1.910 . S
O351 Zn348 1.933 . S
O351 C362 1.226 . S
O352 Zn350 1.932 1_654 S
O352 C362 1.307 1_554 S
O353 Zn346 1.919 . S
O353 C364 1.253 1_455 S
O354 Zn348 1.941 . S
O354 C364 1.283 . S
O355 Zn348 1.965 . S
O355 C363 1.303 . S
O356 Zn349 1.938 1_655 S
O356 C363 1.247 . S
O357 Zn349 1.906 . S
O357 C365 1.304 . S
O358 Zn346 1.924 . S
O358 C366 1.311 . S
O359 Zn350 1.977 . S
O359 C365 1.272 . S
O360 Zn350 1.910 . S
O360 C366 1.231 . S
C361 O345 1.225 . S
C361 O367 1.298 . S
C362 O351 1.226 . S
C362 O352 1.307 1_556 S
C363 O355 1.303 . S
C363 O356 1.247 . S
C364 O353 1.253 1_655 S
C364 O354 1.283 . S
C365 O357 1.304 . S
C365 O359 1.272 . S
C366 O358 1.311 . S
C366 O360 1.231 . S
O367 Zn349 1.953 . S
O367 C361 1.298 . S
C368 C369 1.391 . S
C368 C370 1.394 . S
C368 H384 0.931 . S
C369 C368 1.391 . S
C369 C373 1.376 . S
C370 C368 1.394 . S
C370 C371 1.369 . S
C370 C374 1.531 . S
C371 C370 1.369 . S
C371 C372 1.410 . S
C371 C379 1.503 . S
C372 C371 1.410 . S
C372 C373 1.392 . S
C372 C375 1.511 . S
C373 C369 1.376 . S
C373 C372 1.392 . S
C373 H385 0.929 . S
C374 C370 1.531 . S
C374 H386 0.960 . S
C374 H387 0.962 . S
C374 H388 0.960 . S
C375 C372 1.511 . S
C375 H389 0.961 . S
C375 H390 0.961 . S
C375 H391 0.961 . S
C376 C377 1.370 . S
C376 C378 1.363 . S
C376 H392 0.931 . S
C377 C376 1.370 . S
C377 C381 1.408 . S
C378 C376 1.363 . S
C378 C379 1.370 . S
C378 C382 1.524 . S
C379 C371 1.503 . S
C379 C378 1.370 . S
C379 C380 1.403 . S
C380 C379 1.403 . S
C380 C381 1.404 . S
C380 C383 1.539 . S
C381 C377 1.408 . S
C381 C380 1.404 . S
C381 H393 0.930 . S
C382 C378 1.524 . S
C382 H394 0.956 . S
C382 H395 0.961 . S
C382 H396 0.961 . S
C383 C380 1.539 . S
C383 H397 0.958 . S
C383 H398 0.961 . S
C383 H399 0.960 . S
H384 C368 0.931 . S
H385 C373 0.929 . S
H386 C374 0.960 . S
H387 C374 0.962 . S
H388 C374 0.960 . S
H389 C375 0.961 . S
H390 C375 0.961 . S
H391 C375 0.961 . S
H392 C376 0.931 . S
H393 C381 0.930 . S
H394 C382 0.956 . S
H395 C382 0.961 . S
H396 C382 0.961 . S
H397 C383 0.958 . S
H398 C383 0.961 . S
H399 C383 0.960 . S
C400 C401 1.391 . S
C400 C402 1.394 . S
C400 H416 0.931 . S
C401 C400 1.391 . S
C401 C405 1.376 . S
C402 C400 1.394 . S
C402 C403 1.369 . S
C402 C406 1.531 . S
C403 C402 1.369 . S
C403 C404 1.410 . S
C403 C411 1.503 . S
C404 C403 1.410 . S
C404 C405 1.392 . S
C404 C407 1.511 . S
C405 C401 1.376 . S
C405 C404 1.392 . S
C405 H417 0.929 . S
C406 C402 1.531 . S
C406 H418 0.960 . S
C406 H419 0.962 . S
C406 H420 0.960 . S
C407 C404 1.511 . S
C407 H421 0.961 . S
C407 H422 0.961 . S
C407 H423 0.961 . S
C408 C409 1.370 . S
C408 C410 1.363 . S
C408 H424 0.931 . S
C409 C408 1.370 . S
C409 C413 1.408 . S
C410 C408 1.363 . S
C410 C411 1.370 . S
C410 C414 1.524 . S
C411 C403 1.503 . S
C411 C410 1.370 . S
C411 C412 1.403 . S
C412 C411 1.403 . S
C412 C413 1.404 . S
C412 C415 1.539 . S
C413 C409 1.408 . S
C413 C412 1.404 . S
C413 H425 0.930 1_554 S
C414 C410 1.524 . S
C414 H426 0.956 . S
C414 H427 0.961 . S
C414 H428 0.961 . S
C415 C412 1.539 . S
C415 H429 0.958 . S
C415 H430 0.961 . S
C415 H431 0.960 . S
H416 C400 0.931 . S
H417 C405 0.929 . S
H418 C406 0.960 . S
H419 C406 0.962 . S
H420 C406 0.960 . S
H421 C407 0.961 . S
H422 C407 0.961 . S
H423 C407 0.961 . S
H424 C408 0.931 . S
H425 C413 0.930 1_556 S
H426 C414 0.956 . S
H427 C414 0.961 . S
H428 C414 0.961 . S
H429 C415 0.958 . S
H430 C415 0.961 . S
H431 C415 0.960 . S
C432 C433 1.391 . S
C432 C434 1.394 . S
C432 H448 0.931 . S
C433 C432 1.391 . S
C433 C437 1.376 . S
C434 C432 1.394 . S
C434 C435 1.369 . S
C434 C438 1.531 . S
C435 C434 1.369 . S
C435 C436 1.410 . S
C435 C443 1.503 . S
C436 C435 1.410 . S
C436 C437 1.392 . S
C436 C439 1.511 . S
C437 C433 1.376 . S
C437 C436 1.392 . S
C437 H449 0.929 . S
C438 C434 1.531 . S
C438 H450 0.960 . S
C438 H451 0.962 . S
C438 H452 0.960 . S
C439 C436 1.511 . S
C439 H453 0.961 . S
C439 H454 0.961 . S
C439 H455 0.961 . S
C440 C441 1.370 . S
C440 C442 1.363 . S
C440 H456 0.931 . S
C441 C440 1.370 . S
C441 C445 1.408 . S
C442 C440 1.363 . S
C442 C443 1.370 . S
C442 C446 1.524 . S
C443 C435 1.503 . S
C443 C442 1.370 . S
C443 C444 1.403 . S
C444 C443 1.403 . S
C444 C445 1.404 . S
C444 C447 1.539 . S
C445 C441 1.408 . S
C445 C444 1.404 . S
C445 H457 0.930 . S
C446 C442 1.524 . S
C446 H458 0.956 . S
C446 H459 0.961 . S
C446 H460 0.961 . S
C447 C444 1.539 . S
C447 H461 0.958 . S
C447 H462 0.961 . S
C447 H463 0.960 . S
H448 C432 0.931 . S
H449 C437 0.929 . S
H450 C438 0.960 . S
H451 C438 0.962 . S
H452 C438 0.960 . S
H453 C439 0.961 . S
H454 C439 0.961 . S
H455 C439 0.961 . S
H456 C440 0.931 . S
H457 C445 0.930 . S
H458 C446 0.956 . S
H459 C446 0.961 . S
H460 C446 0.961 . S
H461 C447 0.958 . S
H462 C447 0.961 . S
H463 C447 0.960 . S
C464 C465 1.391 . S
C464 C466 1.394 . S
C464 H480 0.931 . S
C465 C464 1.391 . S
C465 C469 1.376 . S
C466 C464 1.394 . S
C466 C467 1.369 . S
C466 C470 1.531 . S
C467 C466 1.369 . S
C467 C468 1.410 . S
C467 C475 1.503 . S
C468 C467 1.410 . S
C468 C469 1.392 . S
C468 C471 1.511 . S
C469 C465 1.376 . S
C469 C468 1.392 . S
C469 H481 0.929 . S
C470 C466 1.531 . S
C470 H482 0.960 . S
C470 H483 0.962 . S
C470 H484 0.960 . S
C471 C468 1.511 . S
C471 H485 0.961 . S
C471 H486 0.961 . S
C471 H487 0.961 . S
C472 C473 1.370 . S
C472 C474 1.363 . S
C472 H488 0.931 . S
C473 C472 1.370 . S
C473 C477 1.408 . S
C474 C472 1.363 . S
C474 C475 1.370 . S
C474 C478 1.524 . S
C475 C467 1.503 . S
C475 C474 1.370 . S
C475 C476 1.403 . S
C476 C475 1.403 . S
C476 C477 1.404 . S
C476 C479 1.539 . S
C477 C473 1.408 . S
C477 C476 1.404 . S
C477 H489 0.930 . S
C478 C474 1.524 . S
C478 H490 0.956 . S
C478 H491 0.961 . S
C478 H492 0.961 . S
C479 C476 1.539 . S
C479 H493 0.958 . S
C479 H494 0.961 . S
C479 H495 0.960 . S
H480 C464 0.931 . S
H481 C469 0.929 . S
H482 C470 0.960 . S
H483 C470 0.962 . S
H484 C470 0.960 . S
H485 C471 0.961 . S
H486 C471 0.961 . S
H487 C471 0.961 . S
H488 C472 0.931 . S
H489 C477 0.930 . S
H490 C478 0.956 . S
H491 C478 0.961 . S
H492 C478 0.961 . S
H493 C479 0.958 . S
H494 C479 0.961 . S
H495 C479 0.960 . S
C496 C497 1.391 . S
C496 C498 1.394 . S
C496 H512 0.931 . S
C497 C496 1.391 . S
C497 C501 1.376 . S
C498 C496 1.394 . S
C498 C499 1.369 . S
C498 C502 1.531 . S
C499 C498 1.369 . S
C499 C500 1.410 . S
C499 C507 1.503 . S
C500 C499 1.410 . S
C500 C501 1.392 . S
C500 C503 1.511 . S
C501 C497 1.376 . S
C501 C500 1.392 . S
C501 H513 0.929 . S
C502 C498 1.531 . S
C502 H514 0.960 . S
C502 H515 0.962 . S
C502 H516 0.960 . S
C503 C500 1.511 . S
C503 H517 0.961 . S
C503 H518 0.961 . S
C503 H519 0.961 . S
C504 C505 1.370 . S
C504 C506 1.363 . S
C504 H520 0.931 . S
C505 C504 1.370 . S
C505 C509 1.408 . S
C506 C504 1.363 . S
C506 C507 1.370 . S
C506 C510 1.524 . S
C507 C499 1.503 . S
C507 C506 1.370 . S
C507 C508 1.403 . S
C508 C507 1.403 . S
C508 C509 1.404 . S
C508 C511 1.539 . S
C509 C505 1.408 . S
C509 C508 1.404 . S
C509 H521 0.930 1_554 S
C510 C506 1.524 . S
C510 H522 0.956 . S
C510 H523 0.961 . S
C510 H524 0.961 . S
C511 C508 1.539 . S
C511 H525 0.958 . S
C511 H526 0.961 . S
C511 H527 0.960 . S
H512 C496 0.931 . S
H513 C501 0.929 . S
H514 C502 0.960 . S
H515 C502 0.962 . S
H516 C502 0.960 . S
H517 C503 0.961 . S
H518 C503 0.961 . S
H519 C503 0.961 . S
H520 C504 0.931 . S
H521 C509 0.930 1_556 S
H522 C510 0.956 . S
H523 C510 0.961 . S
H524 C510 0.961 . S
H525 C511 0.958 . S
H526 C511 0.961 . S
H527 C511 0.960 . S
C528 C529 1.391 . S
C528 C530 1.394 . S
C528 H544 0.931 . S
C529 C528 1.391 . S
C529 C533 1.376 . S
C530 C528 1.394 . S
C530 C531 1.369 . S
C530 C534 1.531 . S
C531 C530 1.369 . S
C531 C532 1.410 . S
C531 C539 1.503 . S
C532 C531 1.410 . S
C532 C533 1.392 . S
C532 C535 1.511 . S
C533 C529 1.376 . S
C533 C532 1.392 . S
C533 H545 0.929 . S
C534 C530 1.531 . S
C534 H546 0.960 . S
C534 H547 0.962 . S
C534 H548 0.960 . S
C535 C532 1.511 . S
C535 H549 0.961 . S
C535 H550 0.961 . S
C535 H551 0.961 . S
C536 C537 1.370 . S
C536 C538 1.363 . S
C536 H552 0.931 1_556 S
C537 C536 1.370 . S
C537 C541 1.408 . S
C538 C536 1.363 . S
C538 C539 1.370 . S
C538 C542 1.524 . S
C539 C531 1.503 . S
C539 C538 1.370 . S
C539 C540 1.403 . S
C540 C539 1.403 . S
C540 C541 1.404 . S
C540 C543 1.539 . S
C541 C537 1.408 . S
C541 C540 1.404 . S
C541 H553 0.930 . S
C542 C538 1.524 . S
C542 H554 0.956 . S
C542 H555 0.961 . S
C542 H556 0.961 . S
C543 C540 1.539 . S
C543 H557 0.958 . S
C543 H558 0.961 . S
C543 H559 0.960 . S
H544 C528 0.931 . S
H545 C533 0.929 . S
H546 C534 0.960 . S
H547 C534 0.962 . S
H548 C534 0.960 . S
H549 C535 0.961 . S
H550 C535 0.961 . S
H551 C535 0.961 . S
H552 C536 0.931 1_554 S
H553 C541 0.930 . S
H554 C542 0.956 . S
H555 C542 0.961 . S
H556 C542 0.961 . S
H557 C543 0.958 . S
H558 C543 0.961 . S
H559 C543 0.960 . S
C560 C561 1.391 . S
C560 C562 1.394 . S
C560 H576 0.931 . S
C561 C560 1.391 . S
C561 C565 1.376 . S
C562 C560 1.394 . S
C562 C563 1.369 . S
C562 C566 1.531 . S
C563 C562 1.369 . S
C563 C564 1.410 . S
C563 C571 1.503 . S
C564 C563 1.410 . S
C564 C565 1.392 . S
C564 C567 1.511 . S
C565 C561 1.376 . S
C565 C564 1.392 . S
C565 H577 0.929 . S
C566 C562 1.531 . S
C566 H578 0.960 . S
C566 H579 0.962 . S
C566 H580 0.960 . S
C567 C564 1.511 . S
C567 H581 0.961 . S
C567 H582 0.961 . S
C567 H583 0.961 . S
C568 C569 1.370 . S
C568 C570 1.363 . S
C568 H584 0.931 . S
C569 C568 1.370 . S
C569 C573 1.408 . S
C570 C568 1.363 . S
C570 C571 1.370 . S
C570 C574 1.524 . S
C571 C563 1.503 . S
C571 C570 1.370 . S
C571 C572 1.403 . S
C572 C571 1.403 . S
C572 C573 1.404 . S
C572 C575 1.539 . S
C573 C569 1.408 . S
C573 C572 1.404 . S
C573 H585 0.930 . S
C574 C570 1.524 . S
C574 H586 0.956 . S
C574 H587 0.961 . S
C574 H588 0.961 . S
C575 C572 1.539 . S
C575 H589 0.958 . S
C575 H590 0.961 . S
C575 H591 0.960 . S
H576 C560 0.931 . S
H577 C565 0.929 . S
H578 C566 0.960 . S
H579 C566 0.962 . S
H580 C566 0.960 . S
H581 C567 0.961 . S
H582 C567 0.961 . S
H583 C567 0.961 . S
H584 C568 0.931 . S
H585 C573 0.930 . S
H586 C574 0.956 . S
H587 C574 0.961 . S
H588 C574 0.961 . S
H589 C575 0.958 . S
H590 C575 0.961 . S
H591 C575 0.960 . S
C592 C593 1.391 . S
C592 C594 1.394 . S
C592 H608 0.931 . S
C593 C592 1.391 . S
C593 C597 1.376 . S
C594 C592 1.394 . S
C594 C595 1.369 . S
C594 C598 1.531 . S
C595 C594 1.369 . S
C595 C596 1.410 . S
C595 C603 1.503 . S
C596 C595 1.410 . S
C596 C597 1.392 . S
C596 C599 1.511 . S
C597 C593 1.376 . S
C597 C596 1.392 . S
C597 H609 0.929 . S
C598 C594 1.531 . S
C598 H610 0.960 . S
C598 H611 0.962 . S
C598 H612 0.960 . S
C599 C596 1.511 . S
C599 H613 0.961 . S
C599 H614 0.961 . S
C599 H615 0.961 . S
C600 C601 1.370 . S
C600 C602 1.363 . S
C600 H616 0.931 . S
C601 C600 1.370 . S
C601 C605 1.408 . S
C602 C600 1.363 . S
C602 C603 1.370 . S
C602 C606 1.524 . S
C603 C595 1.503 . S
C603 C602 1.370 . S
C603 C604 1.403 . S
C604 C603 1.403 . S
C604 C605 1.404 . S
C604 C607 1.539 . S
C605 C601 1.408 . S
C605 C604 1.404 . S
C605 H617 0.930 . S
C606 C602 1.524 . S
C606 H618 0.956 . S
C606 H619 0.961 . S
C606 H620 0.961 . S
C607 C604 1.539 . S
C607 H621 0.958 . S
C607 H622 0.961 . S
C607 H623 0.960 . S
H608 C592 0.931 . S
H609 C597 0.929 . S
H610 C598 0.960 . S
H611 C598 0.962 . S
H612 C598 0.960 . S
H613 C599 0.961 . S
H614 C599 0.961 . S
H615 C599 0.961 . S
H616 C600 0.931 . S
H617 C605 0.930 . S
H618 C606 0.956 . S
H619 C606 0.961 . S
H620 C606 0.961 . S
H621 C607 0.958 . S
H622 C607 0.961 . S
H623 C607 0.960 . S
C624 C625 1.391 . S
C624 C626 1.394 . S
C624 H640 0.931 . S
C625 C624 1.391 . S
C625 C629 1.376 . S
C626 C624 1.394 . S
C626 C627 1.369 . S
C626 C630 1.531 . S
C627 C626 1.369 . S
C627 C628 1.410 . S
C627 C635 1.503 . S
C628 C627 1.410 . S
C628 C629 1.392 . S
C628 C631 1.511 . S
C629 C625 1.376 . S
C629 C628 1.392 . S
C629 H641 0.929 . S
C630 C626 1.531 . S
C630 H642 0.960 . S
C630 H643 0.962 . S
C630 H644 0.960 . S
C631 C628 1.511 . S
C631 H645 0.961 . S
C631 H646 0.961 . S
C631 H647 0.961 . S
C632 C633 1.370 . S
C632 C634 1.363 . S
C632 H648 0.931 . S
C633 C632 1.370 . S
C633 C637 1.408 . S
C634 C632 1.363 . S
C634 C635 1.370 . S
C634 C638 1.524 . S
C635 C627 1.503 . S
C635 C634 1.370 . S
C635 C636 1.403 . S
C636 C635 1.403 . S
C636 C637 1.404 . S
C636 C639 1.539 . S
C637 C633 1.408 . S
C637 C636 1.404 . S
C637 H649 0.930 . S
C638 C634 1.524 . S
C638 H650 0.956 . S
C638 H651 0.961 . S
C638 H652 0.961 . S
C639 C636 1.539 . S
C639 H653 0.958 . S
C639 H654 0.961 . S
C639 H655 0.960 . S
H640 C624 0.931 . S
H641 C629 0.929 . S
H642 C630 0.960 . S
H643 C630 0.962 . S
H644 C630 0.960 . S
H645 C631 0.961 . S
H646 C631 0.961 . S
H647 C631 0.961 . S
H648 C632 0.931 . S
H649 C637 0.930 . S
H650 C638 0.956 . S
H651 C638 0.961 . S
H652 C638 0.961 . S
H653 C639 0.958 . S
H654 C639 0.961 . S
H655 C639 0.960 . S
C656 C657 1.391 . S
C656 C658 1.394 . S
C656 H672 0.931 . S
C657 C656 1.391 . S
C657 C661 1.376 . S
C658 C656 1.394 . S
C658 C659 1.369 . S
C658 C662 1.531 . S
C659 C658 1.369 . S
C659 C660 1.410 . S
C659 C667 1.503 . S
C660 C659 1.410 . S
C660 C661 1.392 . S
C660 C663 1.511 . S
C661 C657 1.376 . S
C661 C660 1.392 . S
C661 H673 0.929 . S
C662 C658 1.531 . S
C662 H674 0.960 . S
C662 H675 0.962 . S
C662 H676 0.960 . S
C663 C660 1.511 . S
C663 H677 0.961 . S
C663 H678 0.961 . S
C663 H679 0.961 . S
C664 C665 1.370 . S
C664 C666 1.363 . S
C664 H680 0.931 . S
C665 C664 1.370 . S
C665 C669 1.408 . S
C666 C664 1.363 . S
C666 C667 1.370 . S
C666 C670 1.524 . S
C667 C659 1.503 . S
C667 C666 1.370 . S
C667 C668 1.403 . S
C668 C667 1.403 . S
C668 C669 1.404 . S
C668 C671 1.539 . S
C669 C665 1.408 . S
C669 C668 1.404 . S
C669 H681 0.930 . S
C670 C666 1.524 . S
C670 H682 0.956 . S
C670 H683 0.961 . S
C670 H684 0.961 . S
C671 C668 1.539 . S
C671 H685 0.958 . S
C671 H686 0.961 . S
C671 H687 0.960 . S
H672 C656 0.931 . S
H673 C661 0.929 . S
H674 C662 0.960 . S
H675 C662 0.962 . S
H676 C662 0.960 . S
H677 C663 0.961 . S
H678 C663 0.961 . S
H679 C663 0.961 . S
H680 C664 0.931 . S
H681 C669 0.930 . S
H682 C670 0.956 . S
H683 C670 0.961 . S
H684 C670 0.961 . S
H685 C671 0.958 . S
H686 C671 0.961 . S
H687 C671 0.960 . S
C688 C689 1.391 . S
C688 C690 1.394 . S
C688 H704 0.931 . S
C689 C688 1.391 . S
C689 C693 1.376 . S
C690 C688 1.394 . S
C690 C691 1.369 . S
C690 C694 1.531 . S
C691 C690 1.369 . S
C691 C692 1.410 . S
C691 C699 1.503 . S
C692 C691 1.410 . S
C692 C693 1.392 . S
C692 C695 1.511 . S
C693 C689 1.376 . S
C693 C692 1.392 . S
C693 H705 0.929 . S
C694 C690 1.531 . S
C694 H706 0.960 . S
C694 H707 0.962 . S
C694 H708 0.960 . S
C695 C692 1.511 . S
C695 H709 0.961 . S
C695 H710 0.961 . S
C695 H711 0.961 . S
C696 C697 1.370 . S
C696 C698 1.363 . S
C696 H712 0.931 . S
C697 C696 1.370 . S
C697 C701 1.408 . S
C698 C696 1.363 . S
C698 C699 1.370 . S
C698 C702 1.524 . S
C699 C691 1.503 . S
C699 C698 1.370 . S
C699 C700 1.403 . S
C700 C699 1.403 . S
C700 C701 1.404 . S
C700 C703 1.539 . S
C701 C697 1.408 . S
C701 C700 1.404 . S
C701 H713 0.930 . S
C702 C698 1.524 . S
C702 H714 0.956 . S
C702 H715 0.961 . S
C702 H716 0.961 . S
C703 C700 1.539 . S
C703 H717 0.958 . S
C703 H718 0.961 . S
C703 H719 0.960 . S
H704 C688 0.931 . S
H705 C693 0.929 . S
H706 C694 0.960 . S
H707 C694 0.962 . S
H708 C694 0.960 . S
H709 C695 0.961 . S
H710 C695 0.961 . S
H711 C695 0.961 . S
H712 C696 0.931 . S
H713 C701 0.930 . S
H714 C702 0.956 . S
H715 C702 0.961 . S
H716 C702 0.961 . S
H717 C703 0.958 . S
H718 C703 0.961 . S
H719 C703 0.960 . S
C720 C721 1.391 . S
C720 C722 1.394 . S
C720 H736 0.931 . S
C721 C720 1.391 . S
C721 C725 1.376 . S
C722 C720 1.394 . S
C722 C723 1.369 . S
C722 C726 1.531 . S
C723 C722 1.369 . S
C723 C724 1.410 . S
C723 C731 1.503 . S
C724 C723 1.410 . S
C724 C725 1.392 . S
C724 C727 1.511 . S
C725 C721 1.376 . S
C725 C724 1.392 . S
C725 H737 0.929 . S
C726 C722 1.531 . S
C726 H738 0.960 . S
C726 H739 0.962 . S
C726 H740 0.960 . S
C727 C724 1.511 . S
C727 H741 0.961 . S
C727 H742 0.961 . S
C727 H743 0.961 . S
C728 C729 1.370 . S
C728 C730 1.363 . S
C728 H744 0.931 1_554 S
C729 C728 1.370 . S
C729 C733 1.408 . S
C730 C728 1.363 . S
C730 C731 1.370 . S
C730 C734 1.524 . S
C731 C723 1.503 . S
C731 C730 1.370 . S
C731 C732 1.403 . S
C732 C731 1.403 . S
C732 C733 1.404 . S
C732 C735 1.539 . S
C733 C729 1.408 . S
C733 C732 1.404 . S
C733 H745 0.930 . S
C734 C730 1.524 . S
C734 H746 0.956 . S
C734 H747 0.961 . S
C734 H748 0.961 . S
C735 C732 1.539 . S
C735 H749 0.958 . S
C735 H750 0.961 . S
C735 H751 0.960 . S
H736 C720 0.931 . S
H737 C725 0.929 . S
H738 C726 0.960 . S
H739 C726 0.962 . S
H740 C726 0.960 . S
H741 C727 0.961 . S
H742 C727 0.961 . S
H743 C727 0.961 . S
H744 C728 0.931 1_556 S
H745 C733 0.930 . S
H746 C734 0.956 . S
H747 C734 0.961 . S
H748 C734 0.961 . S
H749 C735 0.958 . S
H750 C735 0.961 . S
H751 C735 0.960 . S
C752 C753 1.391 . S
C752 C754 1.394 . S
C752 H768 0.931 . S
C753 C752 1.391 . S
C753 C757 1.376 . S
C754 C752 1.394 . S
C754 C755 1.369 . S
C754 C758 1.531 . S
C755 C754 1.369 . S
C755 C756 1.410 . S
C755 C763 1.503 . S
C756 C755 1.410 . S
C756 C757 1.392 . S
C756 C759 1.511 . S
C757 C753 1.376 . S
C757 C756 1.392 . S
C757 H769 0.929 . S
C758 C754 1.531 . S
C758 H770 0.960 . S
C758 H771 0.962 . S
C758 H772 0.960 . S
C759 C756 1.511 . S
C759 H773 0.961 . S
C759 H774 0.961 . S
C759 H775 0.961 . S
C760 C761 1.370 . S
C760 C762 1.363 . S
C760 H776 0.931 . S
C761 C760 1.370 . S
C761 C765 1.408 . S
C762 C760 1.363 . S
C762 C763 1.370 . S
C762 C766 1.524 . S
C763 C755 1.503 . S
C763 C762 1.370 . S
C763 C764 1.403 . S
C764 C763 1.403 . S
C764 C765 1.404 . S
C764 C767 1.539 . S
C765 C761 1.408 . S
C765 C764 1.404 . S
C765 H777 0.930 . S
C766 C762 1.524 . S
C766 H778 0.956 . S
C766 H779 0.961 . S
C766 H780 0.961 . S
C767 C764 1.539 . S
C767 H781 0.958 . S
C767 H782 0.961 . S
C767 H783 0.960 . S
H768 C752 0.931 . S
H769 C757 0.929 . S
H770 C758 0.960 . S
H771 C758 0.962 . S
H772 C758 0.960 . S
H773 C759 0.961 . S
H774 C759 0.961 . S
H775 C759 0.961 . S
H776 C760 0.931 . S
H777 C765 0.930 . S
H778 C766 0.956 . S
H779 C766 0.961 . S
H780 C766 0.961 . S
H781 C767 0.958 . S
H782 C767 0.961 . S
H783 C767 0.960 . S
C784 C785 1.391 . S
C784 C786 1.394 . S
C784 H800 0.931 . S
C785 C784 1.391 . S
C785 C789 1.376 . S
C786 C784 1.394 . S
C786 C787 1.369 . S
C786 C790 1.531 . S
C787 C786 1.369 . S
C787 C788 1.410 . S
C787 C795 1.503 . S
C788 C787 1.410 . S
C788 C789 1.392 . S
C788 C791 1.511 . S
C789 C785 1.376 . S
C789 C788 1.392 . S
C789 H801 0.929 . S
C790 C786 1.531 . S
C790 H802 0.960 . S
C790 H803 0.962 . S
C790 H804 0.960 . S
C791 C788 1.511 . S
C791 H805 0.961 . S
C791 H806 0.961 . S
C791 H807 0.961 . S
C792 C793 1.370 . S
C792 C794 1.363 . S
C792 H808 0.931 . S
C793 C792 1.370 . S
C793 C797 1.408 . S
C794 C792 1.363 . S
C794 C795 1.370 . S
C794 C798 1.524 . S
C795 C787 1.503 . S
C795 C794 1.370 . S
C795 C796 1.403 . S
C796 C795 1.403 . S
C796 C797 1.404 . S
C796 C799 1.539 . S
C797 C793 1.408 . S
C797 C796 1.404 . S
C797 H809 0.930 . S
C798 C794 1.524 . S
C798 H810 0.956 . S
C798 H811 0.961 . S
C798 H812 0.961 . S
C799 C796 1.539 . S
C799 H813 0.958 . S
C799 H814 0.961 . S
C799 H815 0.960 . S
H800 C784 0.931 . S
H801 C789 0.929 . S
H802 C790 0.960 . S
H803 C790 0.962 . S
H804 C790 0.960 . S
H805 C791 0.961 . S
H806 C791 0.961 . S
H807 C791 0.961 . S
H808 C792 0.931 . S
H809 C797 0.930 . S
H810 C798 0.956 . S
H811 C798 0.961 . S
H812 C798 0.961 . S
H813 C799 0.958 . S
H814 C799 0.961 . S
H815 C799 0.960 . S
C816 C817 1.391 . S
C816 C818 1.394 . S
C816 H832 0.931 . S
C817 C816 1.391 . S
C817 C821 1.376 . S
C818 C816 1.394 . S
C818 C819 1.369 . S
C818 C822 1.531 . S
C819 C818 1.369 . S
C819 C820 1.410 . S
C819 C827 1.503 . S
C820 C819 1.410 . S
C820 C821 1.392 . S
C820 C823 1.511 . S
C821 C817 1.376 . S
C821 C820 1.392 . S
C821 H833 0.929 . S
C822 C818 1.531 . S
C822 H834 0.960 . S
C822 H835 0.962 . S
C822 H836 0.960 . S
C823 C820 1.511 . S
C823 H837 0.961 . S
C823 H838 0.961 . S
C823 H839 0.961 . S
C824 C825 1.370 . S
C824 C826 1.363 . S
C824 H840 0.931 . S
C825 C824 1.370 . S
C825 C829 1.408 . S
C826 C824 1.363 . S
C826 C827 1.370 . S
C826 C830 1.524 . S
C827 C819 1.503 . S
C827 C826 1.370 . S
C827 C828 1.403 . S
C828 C827 1.403 . S
C828 C829 1.404 . S
C828 C831 1.539 . S
C829 C825 1.408 . S
C829 C828 1.404 . S
C829 H841 0.930 1_554 S
C830 C826 1.524 . S
C830 H842 0.956 . S
C830 H843 0.961 . S
C830 H844 0.961 . S
C831 C828 1.539 . S
C831 H845 0.958 . S
C831 H846 0.961 . S
C831 H847 0.960 . S
H832 C816 0.931 . S
H833 C821 0.929 . S
H834 C822 0.960 . S
H835 C822 0.962 . S
H836 C822 0.960 . S
H837 C823 0.961 . S
H838 C823 0.961 . S
H839 C823 0.961 . S
H840 C824 0.931 . S
H841 C829 0.930 1_556 S
H842 C830 0.956 . S
H843 C830 0.961 . S
H844 C830 0.961 . S
H845 C831 0.958 . S
H846 C831 0.961 . S
H847 C831 0.960 . S
C848 C849 1.391 . S
C848 C850 1.394 . S
C848 H864 0.931 . S
C849 C848 1.391 . S
C849 C853 1.376 . S
C850 C848 1.394 . S
C850 C851 1.369 . S
C850 C854 1.531 . S
C851 C850 1.369 . S
C851 C852 1.410 . S
C851 C859 1.503 . S
C852 C851 1.410 . S
C852 C853 1.392 . S
C852 C855 1.511 . S
C853 C849 1.376 . S
C853 C852 1.392 . S
C853 H865 0.929 . S
C854 C850 1.531 . S
C854 H866 0.960 . S
C854 H867 0.962 . S
C854 H868 0.960 . S
C855 C852 1.511 . S
C855 H869 0.961 . S
C855 H870 0.961 . S
C855 H871 0.961 . S
C856 C857 1.370 . S
C856 C858 1.363 . S
C856 H872 0.931 . S
C857 C856 1.370 . S
C857 C861 1.409 . S
C858 C856 1.363 . S
C858 C859 1.370 . S
C858 C862 1.524 . S
C859 C851 1.503 . S
C859 C858 1.370 . S
C859 C860 1.403 . S
C860 C859 1.403 . S
C860 C861 1.415 . S
C860 C863 1.539 . S
C861 C857 1.409 . S
C861 C860 1.415 . S
C861 H873 0.918 1_556 S
C862 C858 1.524 . S
C862 H874 0.956 . S
C862 H875 0.961 . S
C862 H876 0.961 . S
C863 C860 1.539 . S
C863 H877 0.958 . S
C863 H878 0.961 . S
C863 H879 0.960 . S
H864 C848 0.931 . S
H865 C853 0.929 . S
H866 C854 0.960 . S
H867 C854 0.962 . S
H868 C854 0.960 . S
H869 C855 0.961 . S
H870 C855 0.961 . S
H871 C855 0.961 . S
H872 C856 0.931 . S
H873 C861 0.918 1_554 S
H874 C862 0.956 . S
H875 C862 0.961 . S
H876 C862 0.961 . S
H877 C863 0.958 . S
H878 C863 0.961 . S
H879 C863 0.960 . S
C880 C881 1.391 . S
C880 C882 1.394 . S
C880 H896 0.931 . S
C881 C880 1.391 . S
C881 C885 1.376 1_655 S
C882 C880 1.394 . S
C882 C883 1.369 1_655 S
C882 C886 1.531 . S
C883 C882 1.369 1_455 S
C883 C884 1.410 . S
C883 C891 1.503 . S
C884 C883 1.410 . S
C884 C885 1.392 . S
C884 C887 1.511 . S
C885 C881 1.376 1_455 S
C885 C884 1.392 . S
C885 H897 0.929 . S
C886 C882 1.531 . S
C886 H898 0.960 . S
C886 H899 0.962 . S
C886 H900 0.960 . S
C887 C884 1.511 . S
C887 H901 0.961 . S
C887 H902 0.961 . S
C887 H903 0.961 . S
C888 C889 1.370 . S
C888 C890 1.363 . S
C888 H904 0.931 . S
C889 C888 1.370 . S
C889 C893 1.408 . S
C890 C888 1.363 . S
C890 C891 1.370 . S
C890 C894 1.524 1_455 S
C891 C883 1.503 . S
C891 C890 1.370 . S
C891 C892 1.403 . S
C892 C891 1.403 . S
C892 C893 1.404 . S
C892 C895 1.539 . S
C893 C889 1.408 . S
C893 C892 1.404 . S
C893 H905 0.930 . S
C894 C890 1.524 1_655 S
C894 H906 0.956 . S
C894 H907 0.961 . S
C894 H908 0.961 . S
C895 C892 1.539 . S
C895 H909 0.958 1_554 S
C895 H910 0.961 . S
C895 H911 0.960 . S
H896 C880 0.931 . S
H897 C885 0.929 . S
H898 C886 0.960 . S
H899 C886 0.962 . S
H900 C886 0.960 . S
H901 C887 0.961 . S
H902 C887 0.961 . S
H903 C887 0.961 . S
H904 C888 0.931 . S
H905 C893 0.930 . S
H906 C894 0.956 . S
H907 C894 0.961 . S
H908 C894 0.961 . S
H909 C895 0.958 1_556 S
H910 C895 0.961 . S
H911 C895 0.960 . S
C912 C913 1.391 . S
C912 C914 1.394 . S
C912 H928 0.931 . S
C913 C912 1.391 . S
C913 C917 1.376 . S
C914 C912 1.394 . S
C914 C915 1.369 . S
C914 C918 1.531 1_655 S
C915 C914 1.369 . S
C915 C916 1.410 . S
C915 C923 1.503 1_655 S
C916 C915 1.410 . S
C916 C917 1.392 . S
C916 C919 1.511 . S
C917 C913 1.376 . S
C917 C916 1.392 . S
C917 H929 0.929 . S
C918 C914 1.531 1_455 S
C918 H930 0.960 . S
C918 H931 0.962 . S
C918 H932 0.960 . S
C919 C916 1.511 . S
C919 H933 0.961 . S
C919 H934 0.961 . S
C919 H935 0.961 . S
C920 C921 1.370 . S
C920 C922 1.363 . S
C920 H936 0.931 . S
C921 C920 1.370 . S
C921 C925 1.408 . S
C922 C920 1.363 . S
C922 C923 1.370 . S
C922 C926 1.524 . S
C923 C915 1.503 1_455 S
C923 C922 1.370 . S
C923 C924 1.403 . S
C924 C923 1.403 . S
C924 C925 1.404 . S
C924 C927 1.539 . S
C925 C921 1.408 . S
C925 C924 1.404 . S
C925 H937 0.930 . S
C926 C922 1.524 . S
C926 H938 0.956 . S
C926 H939 0.977 . S
C926 H940 0.961 . S
C927 C924 1.539 . S
C927 H941 0.958 . S
C927 H942 0.961 . S
C927 H943 0.960 . S
H928 C912 0.931 . S
H929 C917 0.929 . S
H930 C918 0.960 . S
H931 C918 0.962 . S
H932 C918 0.960 . S
H933 C919 0.961 . S
H934 C919 0.961 . S
H935 C919 0.961 . S
H936 C920 0.931 . S
H937 C925 0.930 . S
H938 C926 0.956 . S
H939 C926 0.977 . S
H940 C926 0.961 . S
H941 C927 0.958 . S
H942 C927 0.961 . S
H943 C927 0.960 . S
C944 C945 1.391 . S
C944 C946 1.394 . S
C944 H960 0.931 . S
C945 C944 1.391 . S
C945 C949 1.376 . S
C946 C944 1.394 . S
C946 C947 1.369 . S
C946 C950 1.531 . S
C947 C946 1.369 . S
C947 C948 1.410 . S
C947 C955 1.503 . S
C948 C947 1.410 . S
C948 C949 1.392 . S
C948 C951 1.511 . S
C949 C945 1.376 . S
C949 C948 1.392 . S
C949 H961 0.929 . S
C950 C946 1.531 . S
C950 H962 0.960 . S
C950 H963 0.962 . S
C950 H964 0.960 . S
C951 C948 1.511 . S
C951 H965 0.961 . S
C951 H966 0.961 . S
C951 H967 0.961 . S
C952 C953 1.370 . S
C952 C954 1.363 . S
C952 H968 0.931 . S
C953 C952 1.370 . S
C953 C957 1.408 . S
C954 C952 1.363 . S
C954 C955 1.370 . S
C954 C958 1.524 . S
C955 C947 1.503 . S
C955 C954 1.370 . S
C955 C956 1.403 . S
C956 C955 1.403 . S
C956 C957 1.404 . S
C956 C959 1.539 . S
C957 C953 1.408 . S
C957 C956 1.404 . S
C957 H969 0.930 . S
C958 C954 1.524 . S
C958 H970 0.956 . S
C958 H971 0.961 . S
C958 H972 0.961 . S
C959 C956 1.539 . S
C959 H973 0.958 . S
C959 H974 0.961 . S
C959 H975 0.960 . S
H960 C944 0.931 . S
H961 C949 0.929 . S
H962 C950 0.960 . S
H963 C950 0.962 . S
H964 C950 0.960 . S
H965 C951 0.961 . S
H966 C951 0.961 . S
H967 C951 0.961 . S
H968 C952 0.931 . S
H969 C957 0.930 . S
H970 C958 0.956 . S
H971 C958 0.961 . S
H972 C958 0.961 . S
H973 C959 0.958 . S
H974 C959 0.961 . S
H975 C959 0.960 . S
C976 C977 1.391 . S
C976 C978 1.394 . S
C976 H992 0.931 . S
C977 C976 1.391 . S
C977 C981 1.376 . S
C978 C976 1.394 . S
C978 C979 1.369 . S
C978 C982 1.531 . S
C979 C978 1.369 . S
C979 C980 1.410 . S
C979 C987 1.503 . S
C980 C979 1.410 . S
C980 C981 1.392 . S
C980 C983 1.511 . S
C981 C977 1.376 . S
C981 C980 1.392 . S
C981 H993 0.929 . S
C982 C978 1.531 . S
C982 H994 0.960 . S
C982 H995 0.962 . S
C982 H996 0.960 . S
C983 C980 1.511 . S
C983 H997 0.961 . S
C983 H998 0.961 . S
C983 H999 0.961 . S
C984 C985 1.370 . S
C984 C986 1.363 . S
C984 H1000 0.931 . S
C985 C984 1.370 . S
C985 C989 1.408 . S
C986 C984 1.363 . S
C986 C987 1.370 . S
C986 C990 1.524 . S
C987 C979 1.503 . S
C987 C986 1.370 . S
C987 C988 1.403 . S
C988 C987 1.403 . S
C988 C989 1.404 . S
C988 C991 1.539 . S
C989 C985 1.408 . S
C989 C988 1.404 . S
C989 H1001 0.930 . S
C990 C986 1.524 . S
C990 H1002 0.956 . S
C990 H1003 0.961 . S
C990 H1004 0.961 . S
C991 C988 1.539 . S
C991 H1005 0.958 . S
C991 H1006 0.972 . S
C991 H1007 0.960 . S
H992 C976 0.931 . S
H993 C981 0.929 . S
H994 C982 0.960 . S
H995 C982 0.962 . S
H996 C982 0.960 . S
H997 C983 0.961 . S
H998 C983 0.961 . S
H999 C983 0.961 . S
H1000 C984 0.931 . S
H1001 C989 0.930 . S
H1002 C990 0.956 . S
H1003 C990 0.961 . S
H1004 C990 0.961 . S
H1005 C991 0.958 . S
H1006 C991 0.972 . S
H1007 C991 0.960 . S
C1008 C1009 1.391 . S
C1008 C1010 1.394 . S
C1008 H1024 0.931 . S
C1009 C1008 1.391 . S
C1009 C1013 1.376 . S
C1010 C1008 1.394 . S
C1010 C1011 1.369 . S
C1010 C1014 1.531 1_455 S
C1011 C1010 1.369 . S
C1011 C1012 1.410 . S
C1011 C1019 1.503 . S
C1012 C1011 1.410 . S
C1012 C1013 1.392 . S
C1012 C1015 1.511 . S
C1013 C1009 1.376 . S
C1013 C1012 1.392 . S
C1013 H1025 0.929 . S
C1014 C1010 1.531 1_655 S
C1014 H1026 0.960 . S
C1014 H1027 0.962 . S
C1014 H1028 0.960 . S
C1015 C1012 1.511 . S
C1015 H1029 0.961 1_556 S
C1015 H1030 0.961 . S
C1015 H1031 0.961 . S
C1016 C1017 1.370 . S
C1016 C1018 1.363 . S
C1016 H1032 0.931 . S
C1017 C1016 1.370 . S
C1017 C1021 1.408 1_655 S
C1018 C1016 1.363 . S
C1018 C1019 1.370 1_655 S
C1018 C1022 1.524 . S
C1019 C1011 1.503 . S
C1019 C1018 1.370 1_455 S
C1019 C1020 1.403 . S
C1020 C1019 1.403 . S
C1020 C1021 1.404 . S
C1020 C1023 1.539 . S
C1021 C1017 1.408 1_455 S
C1021 C1020 1.404 . S
C1021 H1033 0.930 . S
C1022 C1018 1.524 . S
C1022 H1034 0.956 . S
C1022 H1035 0.961 . S
C1022 H1036 0.961 . S
C1023 C1020 1.539 . S
C1023 H1037 0.958 . S
C1023 H1038 0.961 . S
C1023 H1039 0.960 . S
H1024 C1008 0.931 . S
H1025 C1013 0.929 . S
H1026 C1014 0.960 . S
H1027 C1014 0.962 . S
H1028 C1014 0.960 . S
H1029 C1015 0.961 1_554 S
H1030 C1015 0.961 . S
H1031 C1015 0.961 . S
H1032 C1016 0.931 . S
H1033 C1021 0.930 . S
H1034 C1022 0.956 . S
H1035 C1022 0.961 . S
H1036 C1022 0.961 . S
H1037 C1023 0.958 . S
H1038 C1023 0.961 . S
H1039 C1023 0.960 . S
C1040 C1041 1.391 . S
C1040 C1042 1.394 . S
C1040 H1056 0.931 . S
C1041 C1040 1.391 . S
C1041 C1045 1.376 . S
C1042 C1040 1.394 . S
C1042 C1043 1.369 . S
C1042 C1046 1.531 . S
C1043 C1042 1.369 . S
C1043 C1044 1.410 . S
C1043 C1051 1.503 . S
C1044 C1043 1.410 . S
C1044 C1045 1.392 . S
C1044 C1047 1.511 . S
C1045 C1041 1.376 . S
C1045 C1044 1.392 . S
C1045 H1057 0.929 . S
C1046 C1042 1.531 . S
C1046 H1058 0.960 . S
C1046 H1059 0.962 . S
C1046 H1060 0.960 . S
C1047 C1044 1.511 . S
C1047 H1061 0.961 . S
C1047 H1062 0.961 . S
C1047 H1063 0.961 . S
C1048 C1049 1.370 . S
C1048 C1050 1.363 . S
C1048 H1064 0.931 . S
C1049 C1048 1.370 . S
C1049 C1053 1.408 . S
C1050 C1048 1.363 . S
C1050 C1051 1.370 . S
C1050 C1054 1.524 . S
C1051 C1043 1.503 . S
C1051 C1050 1.370 . S
C1051 C1052 1.403 . S
C1052 C1051 1.403 . S
C1052 C1053 1.404 . S
C1052 C1055 1.539 . S
C1053 C1049 1.408 . S
C1053 C1052 1.404 . S
C1053 H1065 0.930 . S
C1054 C1050 1.524 . S
C1054 H1066 0.956 . S
C1054 H1067 0.961 . S
C1054 H1068 0.961 . S
C1055 C1052 1.539 . S
C1055 H1069 0.958 . S
C1055 H1070 0.961 . S
C1055 H1071 0.960 . S
H1056 C1040 0.931 . S
H1057 C1045 0.929 . S
H1058 C1046 0.960 . S
H1059 C1046 0.962 . S
H1060 C1046 0.960 . S
H1061 C1047 0.961 . S
H1062 C1047 0.961 . S
H1063 C1047 0.961 . S
H1064 C1048 0.931 . S
H1065 C1053 0.930 . S
H1066 C1054 0.956 . S
H1067 C1054 0.961 . S
H1068 C1054 0.961 . S
H1069 C1055 0.958 . S
H1070 C1055 0.961 . S
H1071 C1055 0.960 . S
C1072 C1073 1.391 . S
C1072 C1074 1.394 . S
C1072 H1088 0.931 . S
C1073 C1072 1.391 . S
C1073 C1077 1.376 . S
C1074 C1072 1.394 . S
C1074 C1075 1.369 . S
C1074 C1078 1.531 . S
C1075 C1074 1.369 . S
C1075 C1076 1.410 . S
C1075 C1083 1.503 . S
C1076 C1075 1.410 . S
C1076 C1077 1.392 . S
C1076 C1079 1.511 . S
C1077 C1073 1.376 . S
C1077 C1076 1.392 . S
C1077 H1089 0.929 . S
C1078 C1074 1.531 . S
C1078 H1090 0.960 . S
C1078 H1091 0.962 . S
C1078 H1092 0.960 . S
C1079 C1076 1.511 . S
C1079 H1093 0.961 . S
C1079 H1094 0.961 . S
C1079 H1095 0.961 . S
C1080 C1081 1.370 . S
C1080 C1082 1.363 . S
C1080 H1096 0.931 . S
C1081 C1080 1.370 . S
C1081 C1085 1.408 . S
C1082 C1080 1.363 . S
C1082 C1083 1.370 . S
C1082 C1086 1.524 . S
C1083 C1075 1.503 . S
C1083 C1082 1.370 . S
C1083 C1084 1.403 . S
C1084 C1083 1.403 . S
C1084 C1085 1.404 . S
C1084 C1087 1.539 . S
C1085 C1081 1.408 . S
C1085 C1084 1.404 . S
C1085 H1097 0.930 . S
C1086 C1082 1.524 . S
C1086 H1098 0.956 . S
C1086 H1099 0.961 . S
C1086 H1100 0.961 . S
C1087 C1084 1.539 . S
C1087 H1101 0.958 . S
C1087 H1102 0.961 . S
C1087 H1103 0.960 . S
H1088 C1072 0.931 . S
H1089 C1077 0.929 . S
H1090 C1078 0.960 . S
H1091 C1078 0.962 . S
H1092 C1078 0.960 . S
H1093 C1079 0.961 . S
H1094 C1079 0.961 . S
H1095 C1079 0.961 . S
H1096 C1080 0.931 . S
H1097 C1085 0.930 . S
H1098 C1086 0.956 . S
H1099 C1086 0.961 . S
H1100 C1086 0.961 . S
H1101 C1087 0.958 . S
H1102 C1087 0.961 . S
H1103 C1087 0.960 . S
C1104 C1105 1.391 . S
C1104 C1106 1.394 . S
C1104 H1120 0.931 . S
C1105 C1104 1.391 . S
C1105 C1109 1.376 . S
C1106 C1104 1.394 . S
C1106 C1107 1.369 . S
C1106 C1110 1.531 . S
C1107 C1106 1.369 . S
C1107 C1108 1.410 . S
C1107 C1115 1.503 1_455 S
C1108 C1107 1.410 . S
C1108 C1109 1.392 . S
C1108 C1111 1.511 . S
C1109 C1105 1.376 . S
C1109 C1108 1.392 . S
C1109 H1121 0.929 . S
C1110 C1106 1.531 . S
C1110 H1122 0.960 . S
C1110 H1123 0.962 . S
C1110 H1124 0.960 . S
C1111 C1108 1.511 . S
C1111 H1125 0.961 . S
C1111 H1126 0.961 1_455 S
C1111 H1127 0.961 . S
C1112 C1113 1.370 . S
C1112 C1114 1.363 . S
C1112 H1128 0.931 . S
C1113 C1112 1.370 . S
C1113 C1117 1.408 . S
C1114 C1112 1.363 . S
C1114 C1115 1.370 . S
C1114 C1118 1.521 1_655 S
C1115 C1107 1.503 1_655 S
C1115 C1114 1.370 . S
C1115 C1116 1.403 . S
C1116 C1115 1.403 . S
C1116 C1117 1.404 . S
C1116 C1119 1.539 . S
C1117 C1113 1.408 . S
C1117 C1116 1.404 . S
C1117 H1129 0.930 . S
C1118 C1114 1.521 1_455 S
C1118 H1130 0.959 . S
C1118 H1131 0.963 . S
C1118 H1132 0.958 1_455 S
C1119 C1116 1.539 . S
C1119 H1133 0.958 . S
C1119 H1134 0.961 . S
C1119 H1135 0.960 1_655 S
H1120 C1104 0.931 . S
H1121 C1109 0.929 . S
H1122 C1110 0.960 . S
H1123 C1110 0.962 . S
H1124 C1110 0.960 . S
H1125 C1111 0.961 . S
H1126 C1111 0.961 1_655 S
H1127 C1111 0.961 . S
H1128 C1112 0.931 . S
H1129 C1117 0.930 . S
H1130 C1118 0.959 . S
H1131 C1118 0.963 . S
H1132 C1118 0.958 1_655 S
H1133 C1119 0.958 . S
H1134 C1119 0.961 . S
H1135 C1119 0.960 1_455 S
C1136 C1137 1.391 . S
C1136 C1138 1.394 . S
C1136 H1152 0.931 1_455 S
C1137 C1136 1.391 . S
C1137 C1141 1.376 . S
C1138 C1136 1.394 . S
C1138 C1139 1.369 . S
C1138 C1142 1.531 1_454 S
C1139 C1138 1.369 . S
C1139 C1140 1.410 . S
C1139 C1147 1.503 1_544 S
C1140 C1139 1.410 . S
C1140 C1141 1.392 . S
C1140 C1143 1.511 1_545 S
C1141 C1137 1.376 . S
C1141 C1140 1.392 . S
C1141 H1153 0.929 . S
C1142 C1138 1.531 1_656 S
C1142 H1154 0.960 . S
C1142 H1155 0.962 . S
C1142 H1156 0.960 . S
C1143 C1140 1.511 1_565 S
C1143 H1157 0.961 . S
C1143 H1158 0.961 . S
C1143 H1159 0.961 1_565 S
C1144 C1145 1.370 . S
C1144 C1146 1.363 . S
C1144 H1160 0.931 1_455 S
C1145 C1144 1.370 . S
C1145 C1149 1.408 . S
C1146 C1144 1.363 . S
C1146 C1147 1.370 . S
C1146 C1150 1.524 1_456 S
C1147 C1139 1.503 1_566 S
C1147 C1146 1.370 . S
C1147 C1148 1.403 . S
C1148 C1147 1.403 . S
C1148 C1149 1.404 . S
C1148 C1151 1.539 1_565 S
C1149 C1145 1.408 . S
C1149 C1148 1.404 . S
C1149 H1161 0.930 . S
C1150 C1146 1.524 1_654 S
C1150 H1162 0.956 . S
C1150 H1163 0.961 1_655 S
C1150 H1164 0.961 . S
C1151 C1148 1.539 1_545 S
C1151 H1165 0.958 . S
C1151 H1166 0.961 . S
C1151 H1167 0.960 . S
H1152 C1136 0.931 1_655 S
H1153 C1141 0.929 . S
H1154 C1142 0.960 . S
H1155 C1142 0.962 . S
H1156 C1142 0.960 . S
H1157 C1143 0.961 . S
H1158 C1143 0.961 . S
H1159 C1143 0.961 1_545 S
H1160 C1144 0.931 1_655 S
H1161 C1149 0.930 . S
H1162 C1150 0.956 . S
H1163 C1150 0.961 1_455 S
H1164 C1150 0.961 . S
H1165 C1151 0.958 . S
H1166 C1151 0.961 . S
H1167 C1151 0.960 . S
C1168 C1169 1.391 . S
C1168 C1170 1.394 . S
C1168 H1184 0.931 . S
C1169 C1168 1.391 . S
C1169 C1173 1.376 . S
C1170 C1168 1.394 . S
C1170 C1171 1.369 . S
C1170 C1174 1.531 . S
C1171 C1170 1.369 . S
C1171 C1172 1.410 . S
C1171 C1179 1.503 . S
C1172 C1171 1.410 . S
C1172 C1173 1.392 . S
C1172 C1175 1.511 . S
C1173 C1169 1.376 . S
C1173 C1172 1.392 . S
C1173 H1185 0.929 . S
C1174 C1170 1.531 . S
C1174 H1186 0.960 . S
C1174 H1187 0.962 . S
C1174 H1188 0.960 . S
C1175 C1172 1.511 . S
C1175 H1189 0.961 . S
C1175 H1190 0.961 . S
C1175 H1191 0.961 . S
C1176 C1177 1.370 . S
C1176 C1178 1.363 . S
C1176 H1192 0.931 . S
C1177 C1176 1.370 . S
C1177 C1181 1.408 . S
C1178 C1176 1.363 . S
C1178 C1179 1.370 . S
C1178 C1182 1.524 . S
C1179 C1171 1.503 . S
C1179 C1178 1.370 . S
C1179 C1180 1.403 . S
C1180 C1179 1.403 . S
C1180 C1181 1.404 . S
C1180 C1183 1.539 . S
C1181 C1177 1.408 . S
C1181 C1180 1.404 . S
C1181 H1193 0.930 . S
C1182 C1178 1.524 . S
C1182 H1194 0.956 . S
C1182 H1195 0.961 . S
C1182 H1196 0.961 . S
C1183 C1180 1.539 . S
C1183 H1197 0.958 . S
C1183 H1198 0.961 . S
C1183 H1199 0.960 . S
H1184 C1168 0.931 . S
H1185 C1173 0.929 . S
H1186 C1174 0.960 . S
H1187 C1174 0.962 . S
H1188 C1174 0.960 . S
H1189 C1175 0.961 . S
H1190 C1175 0.961 . S
H1191 C1175 0.961 . S
H1192 C1176 0.931 . S
H1193 C1181 0.930 . S
H1194 C1182 0.956 . S
H1195 C1182 0.961 . S
H1196 C1182 0.961 . S
H1197 C1183 0.958 . S
H1198 C1183 0.961 . S
H1199 C1183 0.960 . S
C1200 C1201 1.391 . S
C1200 C1202 1.394 . S
C1200 H1216 0.931 . S
C1201 C1200 1.391 . S
C1201 C1205 1.376 . S
C1202 C1200 1.394 . S
C1202 C1203 1.369 . S
C1202 C1206 1.531 1_545 S
C1203 C1202 1.369 . S
C1203 C1204 1.410 . S
C1203 C1211 1.503 1_545 S
C1204 C1203 1.410 . S
C1204 C1205 1.392 . S
C1204 C1207 1.511 . S
C1205 C1201 1.376 . S
C1205 C1204 1.392 . S
C1205 H1217 0.929 . S
C1206 C1202 1.531 1_565 S
C1206 H1218 0.960 . S
C1206 H1219 0.952 1_565 S
C1206 H1220 0.960 . S
C1207 C1204 1.511 . S
C1207 H1221 0.961 . S
C1207 H1222 0.961 . S
C1207 H1223 0.961 . S
C1208 C1209 1.370 . S
C1208 C1210 1.363 . S
C1208 H1224 0.931 . S
C1209 C1208 1.370 . S
C1209 C1213 1.408 . S
C1210 C1208 1.363 . S
C1210 C1211 1.370 . S
C1210 C1214 1.524 1_565 S
C1211 C1203 1.503 1_565 S
C1211 C1210 1.370 . S
C1211 C1212 1.403 . S
C1212 C1211 1.403 . S
C1212 C1213 1.404 . S
C1212 C1215 1.539 . S
C1213 C1209 1.408 . S
C1213 C1212 1.404 . S
C1213 H1225 0.930 . S
C1214 C1210 1.524 1_545 S
C1214 H1226 0.956 . S
C1214 H1227 0.961 . S
C1214 H1228 0.961 . S
C1215 C1212 1.539 . S
C1215 H1229 0.958 . S
C1215 H1230 0.961 . S
C1215 H1231 0.960 . S
H1216 C1200 0.931 . S
H1217 C1205 0.929 . S
H1218 C1206 0.960 . S
H1219 C1206 0.952 1_545 S
H1220 C1206 0.960 . S
H1221 C1207 0.961 . S
H1222 C1207 0.961 . S
H1223 C1207 0.961 . S
H1224 C1208 0.931 . S
H1225 C1213 0.930 . S
H1226 C1214 0.956 . S
H1227 C1214 0.961 . S
H1228 C1214 0.961 . S
H1229 C1215 0.958 . S
H1230 C1215 0.961 . S
H1231 C1215 0.960 . S
C1232 C1233 1.391 . S
C1232 C1234 1.394 . S
C1232 H1248 0.931 . S
C1233 C1232 1.391 . S
C1233 C1237 1.376 . S
C1234 C1232 1.394 . S
C1234 C1235 1.369 . S
C1234 C1238 1.531 . S
C1235 C1234 1.369 . S
C1235 C1236 1.410 . S
C1235 C1243 1.503 . S
C1236 C1235 1.410 . S
C1236 C1237 1.392 . S
C1236 C1239 1.511 . S
C1237 C1233 1.376 . S
C1237 C1236 1.392 . S
C1237 H1249 0.929 . S
C1238 C1234 1.531 . S
C1238 H1250 0.960 . S
C1238 H1251 0.962 . S
C1238 H1252 0.960 . S
C1239 C1236 1.511 . S
C1239 H1253 0.961 . S
C1239 H1254 0.961 . S
C1239 H1255 0.961 . S
C1240 C1241 1.370 . S
C1240 C1242 1.363 . S
C1240 H1256 0.931 . S
C1241 C1240 1.370 . S
C1241 C1245 1.408 . S
C1242 C1240 1.363 . S
C1242 C1243 1.370 . S
C1242 C1246 1.524 . S
C1243 C1235 1.503 . S
C1243 C1242 1.370 . S
C1243 C1244 1.403 . S
C1244 C1243 1.403 . S
C1244 C1245 1.404 . S
C1244 C1247 1.539 . S
C1245 C1241 1.408 . S
C1245 C1244 1.404 . S
C1245 H1257 0.930 . S
C1246 C1242 1.524 . S
C1246 H1258 0.956 . S
C1246 H1259 0.961 . S
C1246 H1260 0.961 . S
C1247 C1244 1.539 . S
C1247 H1261 0.958 . S
C1247 H1262 0.961 . S
C1247 H1263 0.960 . S
H1248 C1232 0.931 . S
H1249 C1237 0.929 . S
H1250 C1238 0.960 . S
H1251 C1238 0.962 . S
H1252 C1238 0.960 . S
H1253 C1239 0.961 . S
H1254 C1239 0.961 . S
H1255 C1239 0.961 . S
H1256 C1240 0.931 . S
H1257 C1245 0.930 . S
H1258 C1246 0.956 . S
H1259 C1246 0.961 . S
H1260 C1246 0.961 . S
H1261 C1247 0.958 . S
H1262 C1247 0.961 . S
H1263 C1247 0.960 . S
C1264 C1265 1.391 . S
C1264 C1266 1.394 . S
C1264 H1280 0.931 . S
C1265 C1264 1.391 . S
C1265 C1269 1.376 . S
C1266 C1264 1.394 . S
C1266 C1267 1.369 . S
C1266 C1270 1.531 . S
C1267 C1266 1.369 . S
C1267 C1268 1.410 . S
C1267 C1275 1.503 . S
C1268 C1267 1.410 . S
C1268 C1269 1.392 . S
C1268 C1271 1.511 . S
C1269 C1265 1.376 . S
C1269 C1268 1.392 . S
C1269 H1281 0.929 . S
C1270 C1266 1.531 . S
C1270 H1282 0.960 . S
C1270 H1283 0.962 . S
C1270 H1284 0.960 . S
C1271 C1268 1.511 . S
C1271 H1285 0.961 . S
C1271 H1286 0.961 . S
C1271 H1287 0.961 . S
C1272 C1273 1.370 . S
C1272 C1274 1.363 . S
C1272 H1288 0.931 . S
C1273 C1272 1.370 . S
C1273 C1277 1.408 . S
C1274 C1272 1.363 . S
C1274 C1275 1.370 . S
C1274 C1278 1.524 . S
C1275 C1267 1.503 . S
C1275 C1274 1.370 . S
C1275 C1276 1.403 . S
C1276 C1275 1.403 . S
C1276 C1277 1.404 . S
C1276 C1279 1.539 . S
C1277 C1273 1.408 . S
C1277 C1276 1.404 . S
C1277 H1289 0.930 . S
C1278 C1274 1.524 . S
C1278 H1290 0.956 . S
C1278 H1291 0.961 . S
C1278 H1292 0.961 . S
C1279 C1276 1.539 . S
C1279 H1293 0.958 . S
C1279 H1294 0.961 . S
C1279 H1295 0.960 . S
H1280 C1264 0.931 . S
H1281 C1269 0.929 . S
H1282 C1270 0.960 . S
H1283 C1270 0.962 . S
H1284 C1270 0.960 . S
H1285 C1271 0.961 . S
H1286 C1271 0.961 . S
H1287 C1271 0.961 . S
H1288 C1272 0.931 . S
H1289 C1277 0.930 . S
H1290 C1278 0.956 . S
H1291 C1278 0.961 . S
H1292 C1278 0.961 . S
H1293 C1279 0.958 . S
H1294 C1279 0.961 . S
H1295 C1279 0.960 . S
C1296 C1297 1.391 . S
C1296 C1298 1.394 . S
C1296 H1312 0.931 . S
C1297 C1296 1.391 . S
C1297 C1301 1.376 . S
C1298 C1296 1.394 . S
C1298 C1299 1.369 . S
C1298 C1302 1.531 . S
C1299 C1298 1.369 . S
C1299 C1300 1.410 . S
C1299 C1307 1.503 . S
C1300 C1299 1.410 . S
C1300 C1301 1.392 . S
C1300 C1303 1.511 . S
C1301 C1297 1.376 . S
C1301 C1300 1.392 . S
C1301 H1313 0.929 . S
C1302 C1298 1.531 . S
C1302 H1314 0.960 . S
C1302 H1315 0.962 . S
C1302 H1316 0.960 . S
C1303 C1300 1.511 . S
C1303 H1317 0.961 . S
C1303 H1318 0.961 . S
C1303 H1319 0.961 . S
C1304 C1305 1.370 . S
C1304 C1306 1.363 . S
C1304 H1320 0.931 . S
C1305 C1304 1.370 . S
C1305 C1309 1.408 . S
C1306 C1304 1.363 . S
C1306 C1307 1.370 . S
C1306 C1310 1.524 . S
C1307 C1299 1.503 . S
C1307 C1306 1.370 . S
C1307 C1308 1.403 . S
C1308 C1307 1.403 . S
C1308 C1309 1.404 . S
C1308 C1311 1.539 . S
C1309 C1305 1.408 . S
C1309 C1308 1.404 . S
C1309 H1321 0.930 . S
C1310 C1306 1.524 . S
C1310 H1322 0.956 . S
C1310 H1323 0.961 . S
C1310 H1324 0.961 . S
C1311 C1308 1.539 . S
C1311 H1325 0.958 . S
C1311 H1326 0.961 . S
C1311 H1327 0.960 . S
H1312 C1296 0.931 . S
H1313 C1301 0.929 . S
H1314 C1302 0.960 . S
H1315 C1302 0.962 . S
H1316 C1302 0.960 . S
H1317 C1303 0.961 . S
H1318 C1303 0.961 . S
H1319 C1303 0.961 . S
H1320 C1304 0.931 . S
H1321 C1309 0.930 . S
H1322 C1310 0.956 . S
H1323 C1310 0.961 . S
H1324 C1310 0.961 . S
H1325 C1311 0.958 . S
H1326 C1311 0.961 . S
H1327 C1311 0.960 . S
C1328 C1329 1.391 . S
C1328 C1330 1.394 . S
C1328 H1344 0.931 . S
C1329 C1328 1.391 . S
C1329 C1333 1.376 . S
C1330 C1328 1.394 . S
C1330 C1331 1.369 . S
C1330 C1334 1.531 . S
C1331 C1330 1.369 . S
C1331 C1332 1.410 . S
C1331 C1339 1.503 . S
C1332 C1331 1.410 . S
C1332 C1333 1.392 . S
C1332 C1335 1.511 . S
C1333 C1329 1.376 . S
C1333 C1332 1.392 . S
C1333 H1345 0.929 . S
C1334 C1330 1.531 . S
C1334 H1346 0.960 . S
C1334 H1347 0.962 . S
C1334 H1348 0.960 . S
C1335 C1332 1.511 . S
C1335 H1349 0.961 . S
C1335 H1350 0.961 . S
C1335 H1351 0.961 . S
C1336 C1337 1.370 . S
C1336 C1338 1.363 . S
C1336 H1352 0.931 . S
C1337 C1336 1.370 . S
C1337 C1341 1.408 . S
C1338 C1336 1.363 . S
C1338 C1339 1.370 . S
C1338 C1342 1.524 . S
C1339 C1331 1.503 . S
C1339 C1338 1.370 . S
C1339 C1340 1.403 . S
C1340 C1339 1.403 . S
C1340 C1341 1.404 . S
C1340 C1343 1.539 . S
C1341 C1337 1.408 . S
C1341 C1340 1.404 . S
C1341 H1353 0.930 . S
C1342 C1338 1.524 . S
C1342 H1354 0.956 . S
C1342 H1355 0.961 . S
C1342 H1356 0.961 . S
C1343 C1340 1.539 . S
C1343 H1357 0.958 . S
C1343 H1358 0.961 . S
C1343 H1359 0.960 . S
H1344 C1328 0.931 . S
H1345 C1333 0.929 . S
H1346 C1334 0.960 . S
H1347 C1334 0.962 . S
H1348 C1334 0.960 . S
H1349 C1335 0.961 . S
H1350 C1335 0.961 . S
H1351 C1335 0.961 . S
H1352 C1336 0.931 . S
H1353 C1341 0.930 . S
H1354 C1342 0.956 . S
H1355 C1342 0.961 . S
H1356 C1342 0.961 . S
H1357 C1343 0.958 . S
H1358 C1343 0.961 . S
H1359 C1343 0.960 . S
C1360 C1361 1.391 1_455 S
C1360 C1362 1.394 . S
C1360 H1376 0.931 . S
C1361 C1360 1.391 1_655 S
C1361 C1365 1.376 . S
C1362 C1360 1.394 . S
C1362 C1363 1.335 1_455 S
C1362 C1366 1.531 . S
C1363 C1362 1.335 1_655 S
C1363 C1364 1.445 . S
C1363 C1371 1.505 1_556 S
C1364 C1363 1.445 . S
C1364 C1365 1.392 . S
C1364 C1367 1.511 1_556 S
C1365 C1361 1.376 . S
C1365 C1364 1.392 . S
C1365 H1377 0.929 . S
C1366 C1362 1.531 . S
C1366 H1378 0.960 1_556 S
C1366 H1379 0.962 . S
C1366 H1380 0.960 . S
C1367 C1364 1.511 1_554 S
C1367 H1381 0.961 . S
C1367 H1382 0.961 . S
C1367 H1383 0.961 . S
C1368 C1369 1.370 . S
C1368 C1370 1.363 1_554 S
C1368 H1384 0.931 . S
C1369 C1368 1.370 . S
C1369 C1373 1.408 1_655 S
C1370 C1368 1.363 1_556 S
C1370 C1371 1.370 1_556 S
C1370 C1374 1.524 . S
C1371 C1363 1.505 1_554 S
C1371 C1370 1.370 1_554 S
C1371 C1372 1.403 1_655 S
C1372 C1371 1.403 1_455 S
C1372 C1373 1.404 . S
C1372 C1375 1.539 . S
C1373 C1369 1.408 1_455 S
C1373 C1372 1.404 . S
C1373 H1385 0.930 . S
C1374 C1370 1.524 . S
C1374 H1386 0.956 . S
C1374 H1387 0.961 . S
C1374 H1388 0.961 . S
C1375 C1372 1.539 . S
C1375 H1389 0.958 . S
C1375 H1390 0.961 . S
C1375 H1391 0.960 . S
H1376 C1360 0.931 . S
H1377 C1365 0.929 . S
H1378 C1366 0.960 1_554 S
H1379 C1366 0.962 . S
H1380 C1366 0.960 . S
H1381 C1367 0.961 . S
H1382 C1367 0.961 . S
H1383 C1367 0.961 . S
H1384 C1368 0.931 . S
H1385 C1373 0.930 . S
H1386 C1374 0.956 . S
H1387 C1374 0.961 . S
H1388 C1374 0.961 . S
H1389 C1375 0.958 . S
H1390 C1375 0.961 . S
H1391 C1375 0.960 . S
C1392 C1393 1.391 . S
C1392 C1394 1.394 . S
C1392 H1408 0.931 . S
C1393 C1392 1.391 . S
C1393 C1397 1.376 . S
C1394 C1392 1.394 . S
C1394 C1395 1.369 . S
C1394 C1398 1.531 . S
C1395 C1394 1.369 . S
C1395 C1396 1.410 . S
C1395 C1403 1.503 . S
C1396 C1395 1.410 . S
C1396 C1397 1.392 . S
C1396 C1399 1.511 . S
C1397 C1393 1.376 . S
C1397 C1396 1.392 . S
C1397 H1409 0.929 . S
C1398 C1394 1.531 . S
C1398 H1410 0.960 . S
C1398 H1411 0.962 . S
C1398 H1412 0.960 . S
C1399 C1396 1.511 . S
C1399 H1413 0.961 . S
C1399 H1414 0.961 . S
C1399 H1415 0.961 . S
C1400 C1401 1.370 . S
C1400 C1402 1.363 . S
C1400 H1416 0.931 . S
C1401 C1400 1.370 . S
C1401 C1405 1.408 . S
C1402 C1400 1.363 . S
C1402 C1403 1.370 . S
C1402 C1406 1.524 . S
C1403 C1395 1.503 . S
C1403 C1402 1.370 . S
C1403 C1404 1.403 . S
C1404 C1403 1.403 . S
C1404 C1405 1.404 . S
C1404 C1407 1.539 . S
C1405 C1401 1.408 . S
C1405 C1404 1.404 . S
C1405 H1417 0.930 . S
C1406 C1402 1.524 . S
C1406 H1418 0.956 . S
C1406 H1419 0.961 . S
C1406 H1420 0.961 . S
C1407 C1404 1.539 . S
C1407 H1421 0.958 . S
C1407 H1422 0.961 . S
C1407 H1423 0.960 . S
H1408 C1392 0.931 . S
H1409 C1397 0.929 . S
H1410 C1398 0.960 . S
H1411 C1398 0.962 . S
H1412 C1398 0.960 . S
H1413 C1399 0.961 . S
H1414 C1399 0.961 . S
H1415 C1399 0.961 . S
H1416 C1400 0.931 . S
H1417 C1405 0.930 . S
H1418 C1406 0.956 . S
H1419 C1406 0.961 . S
H1420 C1406 0.961 . S
H1421 C1407 0.958 . S
H1422 C1407 0.961 . S
H1423 C1407 0.960 . S
C1424 C1425 1.391 . S
C1424 C1426 1.394 . S
C1424 H1440 0.931 . S
C1425 C1424 1.391 . S
C1425 C1429 1.376 . S
C1426 C1424 1.394 . S
C1426 C1427 1.369 . S
C1426 C1430 1.531 . S
C1427 C1426 1.369 . S
C1427 C1428 1.410 . S
C1427 C1435 1.503 . S
C1428 C1427 1.410 . S
C1428 C1429 1.392 . S
C1428 C1431 1.511 . S
C1429 C1425 1.376 . S
C1429 C1428 1.392 . S
C1429 H1441 0.929 . S
C1430 C1426 1.531 . S
C1430 H1442 0.960 . S
C1430 H1443 0.962 . S
C1430 H1444 0.960 . S
C1431 C1428 1.511 . S
C1431 H1445 0.961 . S
C1431 H1446 0.961 . S
C1431 H1447 0.961 . S
C1432 C1433 1.370 . S
C1432 C1434 1.363 . S
C1432 H1448 0.931 . S
C1433 C1432 1.370 . S
C1433 C1437 1.408 . S
C1434 C1432 1.363 . S
C1434 C1435 1.370 . S
C1434 C1438 1.524 . S
C1435 C1427 1.503 . S
C1435 C1434 1.370 . S
C1435 C1436 1.403 . S
C1436 C1435 1.403 . S
C1436 C1437 1.404 . S
C1436 C1439 1.539 . S
C1437 C1433 1.408 . S
C1437 C1436 1.404 . S
C1437 H1449 0.930 . S
C1438 C1434 1.524 . S
C1438 H1450 0.956 . S
C1438 H1451 0.961 . S
C1438 H1452 0.961 . S
C1439 C1436 1.539 . S
C1439 H1453 0.958 . S
C1439 H1454 0.961 . S
C1439 H1455 0.960 . S
H1440 C1424 0.931 . S
H1441 C1429 0.929 . S
H1442 C1430 0.960 . S
H1443 C1430 0.962 . S
H1444 C1430 0.960 . S
H1445 C1431 0.961 . S
H1446 C1431 0.961 . S
H1447 C1431 0.961 . S
H1448 C1432 0.931 . S
H1449 C1437 0.930 . S
H1450 C1438 0.956 . S
H1451 C1438 0.961 . S
H1452 C1438 0.961 . S
H1453 C1439 0.958 . S
H1454 C1439 0.961 . S
H1455 C1439 0.960 . S
C1456 C1457 1.391 . S
C1456 C1458 1.394 . S
C1456 H1472 0.931 1_556 S
C1457 C1456 1.391 . S
C1457 C1461 1.376 . S
C1458 C1456 1.394 . S
C1458 C1459 1.369 . S
C1458 C1462 1.531 . S
C1459 C1458 1.369 . S
C1459 C1460 1.410 . S
C1459 C1467 1.503 . S
C1460 C1459 1.410 . S
C1460 C1461 1.392 . S
C1460 C1463 1.511 . S
C1461 C1457 1.376 . S
C1461 C1460 1.392 . S
C1461 H1473 0.929 . S
C1462 C1458 1.531 . S
C1462 H1474 0.960 . S
C1462 H1475 0.962 . S
C1462 H1476 0.960 . S
C1463 C1460 1.511 . S
C1463 H1477 0.961 . S
C1463 H1478 0.961 . S
C1463 H1479 0.961 . S
C1464 C1465 1.370 . S
C1464 C1466 1.363 . S
C1464 H1480 0.931 . S
C1465 C1464 1.370 . S
C1465 C1469 1.408 . S
C1466 C1464 1.363 . S
C1466 C1467 1.370 . S
C1466 C1470 1.524 . S
C1467 C1459 1.503 . S
C1467 C1466 1.370 . S
C1467 C1468 1.403 . S
C1468 C1467 1.403 . S
C1468 C1469 1.404 . S
C1468 C1471 1.539 . S
C1469 C1465 1.408 . S
C1469 C1468 1.404 . S
C1469 H1481 0.930 . S
C1470 C1466 1.524 . S
C1470 H1482 0.956 . S
C1470 H1483 0.961 . S
C1470 H1484 0.961 . S
C1471 C1468 1.539 . S
C1471 H1485 0.958 . S
C1471 H1486 0.961 . S
C1471 H1487 0.960 . S
H1472 C1456 0.931 1_554 S
H1473 C1461 0.929 . S
H1474 C1462 0.960 . S
H1475 C1462 0.962 . S
H1476 C1462 0.960 . S
H1477 C1463 0.961 . S
H1478 C1463 0.961 . S
H1479 C1463 0.961 . S
H1480 C1464 0.931 . S
H1481 C1469 0.930 . S
H1482 C1470 0.956 . S
H1483 C1470 0.961 . S
H1484 C1470 0.961 . S
H1485 C1471 0.958 . S
H1486 C1471 0.961 . S
H1487 C1471 0.960 . S
C1488 C1489 1.391 . S
C1488 C1490 1.394 . S
C1488 H1504 0.931 . S
C1489 C1488 1.391 . S
C1489 C1493 1.376 . S
C1490 C1488 1.394 . S
C1490 C1491 1.369 . S
C1490 C1494 1.531 . S
C1491 C1490 1.369 . S
C1491 C1492 1.410 . S
C1491 C1499 1.503 . S
C1492 C1491 1.410 . S
C1492 C1493 1.392 . S
C1492 C1495 1.511 . S
C1493 C1489 1.376 . S
C1493 C1492 1.392 . S
C1493 H1505 0.929 . S
C1494 C1490 1.531 . S
C1494 H1506 0.960 . S
C1494 H1507 0.962 . S
C1494 H1508 0.960 . S
C1495 C1492 1.511 . S
C1495 H1509 0.961 . S
C1495 H1510 0.961 . S
C1495 H1511 0.961 . S
C1496 C1497 1.370 . S
C1496 C1498 1.363 . S
C1496 H1512 0.931 . S
C1497 C1496 1.370 . S
C1497 C1501 1.408 . S
C1498 C1496 1.363 . S
C1498 C1499 1.370 . S
C1498 C1502 1.524 . S
C1499 C1491 1.503 . S
C1499 C1498 1.370 . S
C1499 C1500 1.403 . S
C1500 C1499 1.403 . S
C1500 C1501 1.404 . S
C1500 C1503 1.539 . S
C1501 C1497 1.408 . S
C1501 C1500 1.404 . S
C1501 H1513 0.930 . S
C1502 C1498 1.524 . S
C1502 H1514 0.956 . S
C1502 H1515 0.961 . S
C1502 H1516 0.961 . S
C1503 C1500 1.539 . S
C1503 H1517 0.958 . S
C1503 H1518 0.961 . S
C1503 H1519 0.960 . S
H1504 C1488 0.931 . S
H1505 C1493 0.929 . S
H1506 C1494 0.960 . S
H1507 C1494 0.962 . S
H1508 C1494 0.960 . S
H1509 C1495 0.961 . S
H1510 C1495 0.961 . S
H1511 C1495 0.961 . S
H1512 C1496 0.931 . S
H1513 C1501 0.930 . S
H1514 C1502 0.956 . S
H1515 C1502 0.961 . S
H1516 C1502 0.961 . S
H1517 C1503 0.958 . S
H1518 C1503 0.961 . S
H1519 C1503 0.960 . S
C1520 C1521 1.391 . S
C1520 C1522 1.394 . S
C1520 H1536 0.931 . S
C1521 C1520 1.391 . S
C1521 C1525 1.376 . S
C1522 C1520 1.394 . S
C1522 C1523 1.369 . S
C1522 C1526 1.531 . S
C1523 C1522 1.369 . S
C1523 C1524 1.410 . S
C1523 C1531 1.503 . S
C1524 C1523 1.410 . S
C1524 C1525 1.392 . S
C1524 C1527 1.511 . S
C1525 C1521 1.376 . S
C1525 C1524 1.392 . S
C1525 H1537 0.929 . S
C1526 C1522 1.531 . S
C1526 H1538 0.960 . S
C1526 H1539 0.962 . S
C1526 H1540 0.960 . S
C1527 C1524 1.511 . S
C1527 H1541 0.961 . S
C1527 H1542 0.961 . S
C1527 H1543 0.961 . S
C1528 C1529 1.370 . S
C1528 C1530 1.363 . S
C1528 H1544 0.931 . S
C1529 C1528 1.370 . S
C1529 C1533 1.408 . S
C1530 C1528 1.363 . S
C1530 C1531 1.370 . S
C1530 C1534 1.524 . S
C1531 C1523 1.503 . S
C1531 C1530 1.370 . S
C1531 C1532 1.403 . S
C1532 C1531 1.403 . S
C1532 C1533 1.404 . S
C1532 C1535 1.539 . S
C1533 C1529 1.408 . S
C1533 C1532 1.404 . S
C1533 H1545 0.930 . S
C1534 C1530 1.524 . S
C1534 H1546 0.956 . S
C1534 H1547 0.961 . S
C1534 H1548 0.961 . S
C1535 C1532 1.539 . S
C1535 H1549 0.958 . S
C1535 H1550 0.961 . S
C1535 H1551 0.960 . S
H1536 C1520 0.931 . S
H1537 C1525 0.929 . S
H1538 C1526 0.960 . S
H1539 C1526 0.962 . S
H1540 C1526 0.960 . S
H1541 C1527 0.961 . S
H1542 C1527 0.961 . S
H1543 C1527 0.961 . S
H1544 C1528 0.931 . S
H1545 C1533 0.930 . S
H1546 C1534 0.956 . S
H1547 C1534 0.961 . S
H1548 C1534 0.961 . S
H1549 C1535 0.958 . S
H1550 C1535 0.961 . S
H1551 C1535 0.960 . S
C1552 C1553 1.391 . S
C1552 C1554 1.394 . S
C1552 H1568 0.931 . S
C1553 C1552 1.391 . S
C1553 C1557 1.376 . S
C1554 C1552 1.394 . S
C1554 C1555 1.369 . S
C1554 C1558 1.531 . S
C1555 C1554 1.369 . S
C1555 C1556 1.410 . S
C1555 C1563 1.503 . S
C1556 C1555 1.410 . S
C1556 C1557 1.392 . S
C1556 C1559 1.511 . S
C1557 C1553 1.376 . S
C1557 C1556 1.392 . S
C1557 H1569 0.929 . S
C1558 C1554 1.531 . S
C1558 H1570 0.960 . S
C1558 H1571 0.962 . S
C1558 H1572 0.960 . S
C1559 C1556 1.511 . S
C1559 H1573 0.961 . S
C1559 H1574 0.961 . S
C1559 H1575 0.961 . S
C1560 C1561 1.370 . S
C1560 C1562 1.363 . S
C1560 H1576 0.931 . S
C1561 C1560 1.370 . S
C1561 C1565 1.408 . S
C1562 C1560 1.363 . S
C1562 C1563 1.370 . S
C1562 C1566 1.524 . S
C1563 C1555 1.503 . S
C1563 C1562 1.370 . S
C1563 C1564 1.403 . S
C1564 C1563 1.403 . S
C1564 C1565 1.404 . S
C1564 C1567 1.539 . S
C1565 C1561 1.408 . S
C1565 C1564 1.404 . S
C1565 H1577 0.930 . S
C1566 C1562 1.524 . S
C1566 H1578 0.956 . S
C1566 H1579 0.961 . S
C1566 H1580 0.961 . S
C1567 C1564 1.539 . S
C1567 H1581 0.958 . S
C1567 H1582 0.961 . S
C1567 H1583 0.960 . S
H1568 C1552 0.931 . S
H1569 C1557 0.929 . S
H1570 C1558 0.960 . S
H1571 C1558 0.962 . S
H1572 C1558 0.960 . S
H1573 C1559 0.961 . S
H1574 C1559 0.961 . S
H1575 C1559 0.961 . S
H1576 C1560 0.931 . S
H1577 C1565 0.930 . S
H1578 C1566 0.956 . S
H1579 C1566 0.961 . S
H1580 C1566 0.961 . S
H1581 C1567 0.958 . S
H1582 C1567 0.961 . S
H1583 C1567 0.960 . S
C1584 C1585 1.391 . S
C1584 C1586 1.394 . S
C1584 H1600 0.931 . S
C1585 C1584 1.391 . S
C1585 C1589 1.376 . S
C1586 C1584 1.394 . S
C1586 C1587 1.369 . S
C1586 C1590 1.531 . S
C1587 C1586 1.369 . S
C1587 C1588 1.410 . S
C1587 C1595 1.503 . S
C1588 C1587 1.410 . S
C1588 C1589 1.392 . S
C1588 C1591 1.511 . S
C1589 C1585 1.376 . S
C1589 C1588 1.392 . S
C1589 H1601 0.929 1_554 S
C1590 C1586 1.531 . S
C1590 H1602 0.960 . S
C1590 H1603 0.962 . S
C1590 H1604 0.960 . S
C1591 C1588 1.511 . S
C1591 H1605 0.961 . S
C1591 H1606 0.961 . S
C1591 H1607 0.961 . S
C1592 C1593 1.370 . S
C1592 C1594 1.363 . S
C1592 H1608 0.931 . S
C1593 C1592 1.370 . S
C1593 C1597 1.408 . S
C1594 C1592 1.363 . S
C1594 C1595 1.370 . S
C1594 C1598 1.524 . S
C1595 C1587 1.503 . S
C1595 C1594 1.370 . S
C1595 C1596 1.403 . S
C1596 C1595 1.403 . S
C1596 C1597 1.404 . S
C1596 C1599 1.539 . S
C1597 C1593 1.408 . S
C1597 C1596 1.404 . S
C1597 H1609 0.930 . S
C1598 C1594 1.524 . S
C1598 H1610 0.956 . S
C1598 H1611 0.961 . S
C1598 H1612 0.961 . S
C1599 C1596 1.539 . S
C1599 H1613 0.958 . S
C1599 H1614 0.961 . S
C1599 H1615 0.960 . S
H1600 C1584 0.931 . S
H1601 C1589 0.929 1_556 S
H1602 C1590 0.960 . S
H1603 C1590 0.962 . S
H1604 C1590 0.960 . S
H1605 C1591 0.961 . S
H1606 C1591 0.961 . S
H1607 C1591 0.961 . S
H1608 C1592 0.931 . S
H1609 C1597 0.930 . S
H1610 C1598 0.956 . S
H1611 C1598 0.961 . S
H1612 C1598 0.961 . S
H1613 C1599 0.958 . S
H1614 C1599 0.961 . S
H1615 C1599 0.960 . S
C1616 C1617 1.391 . S
C1616 C1618 1.394 . S
C1616 H1632 0.931 . S
C1617 C1616 1.391 . S
C1617 C1621 1.376 . S
C1618 C1616 1.394 . S
C1618 C1619 1.369 . S
C1618 C1622 1.531 . S
C1619 C1618 1.369 . S
C1619 C1620 1.410 . S
C1619 C1627 1.503 . S
C1620 C1619 1.410 . S
C1620 C1621 1.392 . S
C1620 C1623 1.511 . S
C1621 C1617 1.376 . S
C1621 C1620 1.392 . S
C1621 H1633 0.929 . S
C1622 C1618 1.531 . S
C1622 H1634 0.960 . S
C1622 H1635 0.962 . S
C1622 H1636 0.960 . S
C1623 C1620 1.511 . S
C1623 H1637 0.961 . S
C1623 H1638 0.961 . S
C1623 H1639 0.961 . S
C1624 C1625 1.370 . S
C1624 C1626 1.363 . S
C1624 H1640 0.931 1_556 S
C1625 C1624 1.370 . S
C1625 C1629 1.408 . S
C1626 C1624 1.363 . S
C1626 C1627 1.370 . S
C1626 C1630 1.524 . S
C1627 C1619 1.503 . S
C1627 C1626 1.370 . S
C1627 C1628 1.403 . S
C1628 C1627 1.403 . S
C1628 C1629 1.404 . S
C1628 C1631 1.539 . S
C1629 C1625 1.408 . S
C1629 C1628 1.404 . S
C1629 H1641 0.930 . S
C1630 C1626 1.524 . S
C1630 H1642 0.956 . S
C1630 H1643 0.961 . S
C1630 H1644 0.961 . S
C1631 C1628 1.539 . S
C1631 H1645 0.958 . S
C1631 H1646 0.961 . S
C1631 H1647 0.960 . S
H1632 C1616 0.931 . S
H1633 C1621 0.929 . S
H1634 C1622 0.960 . S
H1635 C1622 0.962 . S
H1636 C1622 0.960 . S
H1637 C1623 0.961 . S
H1638 C1623 0.961 . S
H1639 C1623 0.961 . S
H1640 C1624 0.931 1_554 S
H1641 C1629 0.930 . S
H1642 C1630 0.956 . S
H1643 C1630 0.961 . S
H1644 C1630 0.961 . S
H1645 C1631 0.958 . S
H1646 C1631 0.961 . S
H1647 C1631 0.960 . S
C1648 C1649 1.391 . S
C1648 C1650 1.394 . S
C1648 H1664 0.931 . S
C1649 C1648 1.391 . S
C1649 C1653 1.376 . S
C1650 C1648 1.394 . S
C1650 C1651 1.369 . S
C1650 C1654 1.531 . S
C1651 C1650 1.369 . S
C1651 C1652 1.410 . S
C1651 C1659 1.503 . S
C1652 C1651 1.410 . S
C1652 C1653 1.392 . S
C1652 C1655 1.511 . S
C1653 C1649 1.376 . S
C1653 C1652 1.392 . S
C1653 H1665 0.929 . S
C1654 C1650 1.531 . S
C1654 H1666 0.960 . S
C1654 H1667 0.962 . S
C1654 H1668 0.960 . S
C1655 C1652 1.511 . S
C1655 H1669 0.961 . S
C1655 H1670 0.961 . S
C1655 H1671 0.961 . S
C1656 C1657 1.370 . S
C1656 C1658 1.363 . S
C1656 H1672 0.931 . S
C1657 C1656 1.370 . S
C1657 C1661 1.408 . S
C1658 C1656 1.363 . S
C1658 C1659 1.370 . S
C1658 C1662 1.524 . S
C1659 C1651 1.503 . S
C1659 C1658 1.370 . S
C1659 C1660 1.403 . S
C1660 C1659 1.403 . S
C1660 C1661 1.404 . S
C1660 C1663 1.539 . S
C1661 C1657 1.408 . S
C1661 C1660 1.404 . S
C1661 H1673 0.930 1_556 S
C1662 C1658 1.524 . S
C1662 H1674 0.956 . S
C1662 H1675 0.961 . S
C1662 H1676 0.961 . S
C1663 C1660 1.539 . S
C1663 H1677 0.958 . S
C1663 H1678 0.961 . S
C1663 H1679 0.960 . S
H1664 C1648 0.931 . S
H1665 C1653 0.929 . S
H1666 C1654 0.960 . S
H1667 C1654 0.962 . S
H1668 C1654 0.960 . S
H1669 C1655 0.961 . S
H1670 C1655 0.961 . S
H1671 C1655 0.961 . S
H1672 C1656 0.931 . S
H1673 C1661 0.930 1_554 S
H1674 C1662 0.956 . S
H1675 C1662 0.961 . S
H1676 C1662 0.961 . S
H1677 C1663 0.958 . S
H1678 C1663 0.961 . S
H1679 C1663 0.960 . S
C1680 C1681 1.391 . S
C1680 C1682 1.394 . S
C1680 H1696 0.931 . S
C1681 C1680 1.391 . S
C1681 C1685 1.376 . S
C1682 C1680 1.394 . S
C1682 C1683 1.369 . S
C1682 C1686 1.531 . S
C1683 C1682 1.369 . S
C1683 C1684 1.410 . S
C1683 C1691 1.503 . S
C1684 C1683 1.410 . S
C1684 C1685 1.392 . S
C1684 C1687 1.511 . S
C1685 C1681 1.376 . S
C1685 C1684 1.392 . S
C1685 H1697 0.929 . S
C1686 C1682 1.531 . S
C1686 H1698 0.960 . S
C1686 H1699 0.962 . S
C1686 H1700 0.960 . S
C1687 C1684 1.511 . S
C1687 H1701 0.961 . S
C1687 H1702 0.961 . S
C1687 H1703 0.961 . S
C1688 C1689 1.370 . S
C1688 C1690 1.363 . S
C1688 H1704 0.931 . S
C1689 C1688 1.370 . S
C1689 C1693 1.408 . S
C1690 C1688 1.363 . S
C1690 C1691 1.370 . S
C1690 C1694 1.524 . S
C1691 C1683 1.503 . S
C1691 C1690 1.370 . S
C1691 C1692 1.403 . S
C1692 C1691 1.403 . S
C1692 C1693 1.404 . S
C1692 C1695 1.539 . S
C1693 C1689 1.408 . S
C1693 C1692 1.404 . S
C1693 H1705 0.930 . S
C1694 C1690 1.524 . S
C1694 H1706 0.956 . S
C1694 H1707 0.961 . S
C1694 H1708 0.961 . S
C1695 C1692 1.539 . S
C1695 H1709 0.958 . S
C1695 H1710 0.961 . S
C1695 H1711 0.960 . S
H1696 C1680 0.931 . S
H1697 C1685 0.929 . S
H1698 C1686 0.960 . S
H1699 C1686 0.962 . S
H1700 C1686 0.960 . S
H1701 C1687 0.961 . S
H1702 C1687 0.961 . S
H1703 C1687 0.961 . S
H1704 C1688 0.931 . S
H1705 C1693 0.930 . S
H1706 C1694 0.956 . S
H1707 C1694 0.961 . S
H1708 C1694 0.961 . S
H1709 C1695 0.958 . S
H1710 C1695 0.961 . S
H1711 C1695 0.960 . S
C1712 C1713 1.391 . S
C1712 C1714 1.394 . S
C1712 H1728 0.931 . S
C1713 C1712 1.391 . S
C1713 C1717 1.376 . S
C1714 C1712 1.394 . S
C1714 C1715 1.369 . S
C1714 C1718 1.531 . S
C1715 C1714 1.369 . S
C1715 C1716 1.410 . S
C1715 C1723 1.503 . S
C1716 C1715 1.410 . S
C1716 C1717 1.392 . S
C1716 C1719 1.511 . S
C1717 C1713 1.376 . S
C1717 C1716 1.392 . S
C1717 H1729 0.929 . S
C1718 C1714 1.531 . S
C1718 H1730 0.960 . S
C1718 H1731 0.962 . S
C1718 H1732 0.960 . S
C1719 C1716 1.511 . S
C1719 H1733 0.961 . S
C1719 H1734 0.961 . S
C1719 H1735 0.961 . S
C1720 C1721 1.370 . S
C1720 C1722 1.363 . S
C1720 H1736 0.931 . S
C1721 C1720 1.370 . S
C1721 C1725 1.408 . S
C1722 C1720 1.363 . S
C1722 C1723 1.370 . S
C1722 C1726 1.524 . S
C1723 C1715 1.503 . S
C1723 C1722 1.370 . S
C1723 C1724 1.403 . S
C1724 C1723 1.403 . S
C1724 C1725 1.404 . S
C1724 C1727 1.539 . S
C1725 C1721 1.408 . S
C1725 C1724 1.404 . S
C1725 H1737 0.930 . S
C1726 C1722 1.524 . S
C1726 H1738 0.956 . S
C1726 H1739 0.961 . S
C1726 H1740 0.961 . S
C1727 C1724 1.539 . S
C1727 H1741 0.958 . S
C1727 H1742 0.961 . S
C1727 H1743 0.960 . S
H1728 C1712 0.931 . S
H1729 C1717 0.929 . S
H1730 C1718 0.960 . S
H1731 C1718 0.962 . S
H1732 C1718 0.960 . S
H1733 C1719 0.961 . S
H1734 C1719 0.961 . S
H1735 C1719 0.961 . S
H1736 C1720 0.931 . S
H1737 C1725 0.930 . S
H1738 C1726 0.956 . S
H1739 C1726 0.961 . S
H1740 C1726 0.961 . S
H1741 C1727 0.958 . S
H1742 C1727 0.961 . S
H1743 C1727 0.960 . S
C1744 C1745 1.391 . S
C1744 C1746 1.394 . S
C1744 H1760 0.931 . S
C1745 C1744 1.391 . S
C1745 C1749 1.376 . S
C1746 C1744 1.394 . S
C1746 C1747 1.369 . S
C1746 C1750 1.531 . S
C1747 C1746 1.369 . S
C1747 C1748 1.410 . S
C1747 C1755 1.503 . S
C1748 C1747 1.410 . S
C1748 C1749 1.392 . S
C1748 C1751 1.511 . S
C1749 C1745 1.376 . S
C1749 C1748 1.392 . S
C1749 H1761 0.929 . S
C1750 C1746 1.531 . S
C1750 H1762 0.960 . S
C1750 H1763 0.962 . S
C1750 H1764 0.960 . S
C1751 C1748 1.511 . S
C1751 H1765 0.961 . S
C1751 H1766 0.961 . S
C1751 H1767 0.961 . S
C1752 C1753 1.370 . S
C1752 C1754 1.363 . S
C1752 H1768 0.931 . S
C1753 C1752 1.370 . S
C1753 C1757 1.408 . S
C1754 C1752 1.363 . S
C1754 C1755 1.370 . S
C1754 C1758 1.524 . S
C1755 C1747 1.503 . S
C1755 C1754 1.370 . S
C1755 C1756 1.403 . S
C1756 C1755 1.403 . S
C1756 C1757 1.404 . S
C1756 C1759 1.539 . S
C1757 C1753 1.408 . S
C1757 C1756 1.404 . S
C1757 H1769 0.930 . S
C1758 C1754 1.524 . S
C1758 H1770 0.956 . S
C1758 H1771 0.961 . S
C1758 H1772 0.961 . S
C1759 C1756 1.539 . S
C1759 H1773 0.958 . S
C1759 H1774 0.961 . S
C1759 H1775 0.960 . S
H1760 C1744 0.931 . S
H1761 C1749 0.929 . S
H1762 C1750 0.960 . S
H1763 C1750 0.962 . S
H1764 C1750 0.960 . S
H1765 C1751 0.961 . S
H1766 C1751 0.961 . S
H1767 C1751 0.961 . S
H1768 C1752 0.931 . S
H1769 C1757 0.930 . S
H1770 C1758 0.956 . S
H1771 C1758 0.961 . S
H1772 C1758 0.961 . S
H1773 C1759 0.958 . S
H1774 C1759 0.961 . S
H1775 C1759 0.960 . S
C1776 C1777 1.391 . S
C1776 C1778 1.394 . S
C1776 H1792 0.931 . S
C1777 C1776 1.391 . S
C1777 C1781 1.376 . S
C1778 C1776 1.394 . S
C1778 C1779 1.369 . S
C1778 C1782 1.531 . S
C1779 C1778 1.369 . S
C1779 C1780 1.410 . S
C1779 C1787 1.503 . S
C1780 C1779 1.410 . S
C1780 C1781 1.392 . S
C1780 C1783 1.511 . S
C1781 C1777 1.376 . S
C1781 C1780 1.392 . S
C1781 H1793 0.929 . S
C1782 C1778 1.531 . S
C1782 H1794 0.960 . S
C1782 H1795 0.962 . S
C1782 H1796 0.960 . S
C1783 C1780 1.511 . S
C1783 H1797 0.961 . S
C1783 H1798 0.961 . S
C1783 H1799 0.961 . S
C1784 C1785 1.370 . S
C1784 C1786 1.363 . S
C1784 H1800 0.931 . S
C1785 C1784 1.370 . S
C1785 C1789 1.408 . S
C1786 C1784 1.363 . S
C1786 C1787 1.370 . S
C1786 C1790 1.524 . S
C1787 C1779 1.503 . S
C1787 C1786 1.370 . S
C1787 C1788 1.403 . S
C1788 C1787 1.403 . S
C1788 C1789 1.404 . S
C1788 C1791 1.539 . S
C1789 C1785 1.408 . S
C1789 C1788 1.404 . S
C1789 H1801 0.930 . S
C1790 C1786 1.524 . S
C1790 H1802 0.956 . S
C1790 H1803 0.961 . S
C1790 H1804 0.961 . S
C1791 C1788 1.539 . S
C1791 H1805 0.958 . S
C1791 H1806 0.961 . S
C1791 H1807 0.960 . S
H1792 C1776 0.931 . S
H1793 C1781 0.929 . S
H1794 C1782 0.960 . S
H1795 C1782 0.962 . S
H1796 C1782 0.960 . S
H1797 C1783 0.961 . S
H1798 C1783 0.961 . S
H1799 C1783 0.961 . S
H1800 C1784 0.931 . S
H1801 C1789 0.930 . S
H1802 C1790 0.956 . S
H1803 C1790 0.961 . S
H1804 C1790 0.961 . S
H1805 C1791 0.958 . S
H1806 C1791 0.961 . S
H1807 C1791 0.960 . S
C1808 C1809 1.391 . S
C1808 C1810 1.394 . S
C1808 H1824 0.931 . S
C1809 C1808 1.391 . S
C1809 C1813 1.376 . S
C1810 C1808 1.394 . S
C1810 C1811 1.369 . S
C1810 C1814 1.531 . S
C1811 C1810 1.369 . S
C1811 C1812 1.410 . S
C1811 C1819 1.503 . S
C1812 C1811 1.410 . S
C1812 C1813 1.392 . S
C1812 C1815 1.511 . S
C1813 C1809 1.376 . S
C1813 C1812 1.392 . S
C1813 H1825 0.929 . S
C1814 C1810 1.531 . S
C1814 H1826 0.960 . S
C1814 H1827 0.962 . S
C1814 H1828 0.960 . S
C1815 C1812 1.511 . S
C1815 H1829 0.961 . S
C1815 H1830 0.961 . S
C1815 H1831 0.961 . S
C1816 C1817 1.370 . S
C1816 C1818 1.363 . S
C1816 H1832 0.931 . S
C1817 C1816 1.370 . S
C1817 C1821 1.408 . S
C1818 C1816 1.363 . S
C1818 C1819 1.370 . S
C1818 C1822 1.524 . S
C1819 C1811 1.503 . S
C1819 C1818 1.370 . S
C1819 C1820 1.403 . S
C1820 C1819 1.403 . S
C1820 C1821 1.404 . S
C1820 C1823 1.539 . S
C1821 C1817 1.408 . S
C1821 C1820 1.404 . S
C1821 H1833 0.930 . S
C1822 C1818 1.524 . S
C1822 H1834 0.956 . S
C1822 H1835 0.961 . S
C1822 H1836 0.961 . S
C1823 C1820 1.539 . S
C1823 H1837 0.958 . S
C1823 H1838 0.961 . S
C1823 H1839 0.960 . S
H1824 C1808 0.931 . S
H1825 C1813 0.929 . S
H1826 C1814 0.960 . S
H1827 C1814 0.962 . S
H1828 C1814 0.960 . S
H1829 C1815 0.961 . S
H1830 C1815 0.961 . S
H1831 C1815 0.961 . S
H1832 C1816 0.931 . S
H1833 C1821 0.930 . S
H1834 C1822 0.956 . S
H1835 C1822 0.961 . S
H1836 C1822 0.961 . S
H1837 C1823 0.958 . S
H1838 C1823 0.961 . S
H1839 C1823 0.960 . S
C1840 C1841 1.391 . S
C1840 C1842 1.394 . S
C1840 H1856 0.931 . S
C1841 C1840 1.391 . S
C1841 C1845 1.376 . S
C1842 C1840 1.394 . S
C1842 C1843 1.369 . S
C1842 C1846 1.531 . S
C1843 C1842 1.369 . S
C1843 C1844 1.410 . S
C1843 C1851 1.503 . S
C1844 C1843 1.410 . S
C1844 C1845 1.392 . S
C1844 C1847 1.511 . S
C1845 C1841 1.376 . S
C1845 C1844 1.392 . S
C1845 H1857 0.929 . S
C1846 C1842 1.531 . S
C1846 H1858 0.960 . S
C1846 H1859 0.962 . S
C1846 H1860 0.960 . S
C1847 C1844 1.511 . S
C1847 H1861 0.961 . S
C1847 H1862 0.961 . S
C1847 H1863 0.961 . S
C1848 C1849 1.370 . S
C1848 C1850 1.363 . S
C1848 H1864 0.931 . S
C1849 C1848 1.370 . S
C1849 C1853 1.408 . S
C1850 C1848 1.363 . S
C1850 C1851 1.370 . S
C1850 C1854 1.524 . S
C1851 C1843 1.503 . S
C1851 C1850 1.370 . S
C1851 C1852 1.403 . S
C1852 C1851 1.403 . S
C1852 C1853 1.404 . S
C1852 C1855 1.539 . S
C1853 C1849 1.408 . S
C1853 C1852 1.404 . S
C1853 H1865 0.930 . S
C1854 C1850 1.524 . S
C1854 H1866 0.956 . S
C1854 H1867 0.961 . S
C1854 H1868 0.961 . S
C1855 C1852 1.539 . S
C1855 H1869 0.958 . S
C1855 H1870 0.961 . S
C1855 H1871 0.960 . S
H1856 C1840 0.931 . S
H1857 C1845 0.929 . S
H1858 C1846 0.960 . S
H1859 C1846 0.962 . S
H1860 C1846 0.960 . S
H1861 C1847 0.961 . S
H1862 C1847 0.961 . S
H1863 C1847 0.961 . S
H1864 C1848 0.931 . S
H1865 C1853 0.930 . S
H1866 C1854 0.956 . S
H1867 C1854 0.961 . S
H1868 C1854 0.961 . S
H1869 C1855 0.958 . S
H1870 C1855 0.961 . S
H1871 C1855 0.960 . S
C1872 C1873 1.391 . S
C1872 C1874 1.394 . S
C1872 H1888 0.931 . S
C1873 C1872 1.391 . S
C1873 C1877 1.376 . S
C1874 C1872 1.394 . S
C1874 C1875 1.369 . S
C1874 C1878 1.531 . S
C1875 C1874 1.369 . S
C1875 C1876 1.410 . S
C1875 C1883 1.503 . S
C1876 C1875 1.410 . S
C1876 C1877 1.392 . S
C1876 C1879 1.511 . S
C1877 C1873 1.376 . S
C1877 C1876 1.392 . S
C1877 H1889 0.929 . S
C1878 C1874 1.531 . S
C1878 H1890 0.960 . S
C1878 H1891 0.962 . S
C1878 H1892 0.960 . S
C1879 C1876 1.511 . S
C1879 H1893 0.961 . S
C1879 H1894 0.961 . S
C1879 H1895 0.961 . S
C1880 C1881 1.370 . S
C1880 C1882 1.363 . S
C1880 H1896 0.931 . S
C1881 C1880 1.370 . S
C1881 C1885 1.408 . S
C1882 C1880 1.363 . S
C1882 C1883 1.370 . S
C1882 C1886 1.524 . S
C1883 C1875 1.503 . S
C1883 C1882 1.370 . S
C1883 C1884 1.403 . S
C1884 C1883 1.403 . S
C1884 C1885 1.404 . S
C1884 C1887 1.539 . S
C1885 C1881 1.408 . S
C1885 C1884 1.404 . S
C1885 H1897 0.930 . S
C1886 C1882 1.524 . S
C1886 H1898 0.956 . S
C1886 H1899 0.961 . S
C1886 H1900 0.961 . S
C1887 C1884 1.539 . S
C1887 H1901 0.958 . S
C1887 H1902 0.961 . S
C1887 H1903 0.960 . S
H1888 C1872 0.931 . S
H1889 C1877 0.929 . S
H1890 C1878 0.960 . S
H1891 C1878 0.962 . S
H1892 C1878 0.960 . S
H1893 C1879 0.961 . S
H1894 C1879 0.961 . S
H1895 C1879 0.961 . S
H1896 C1880 0.931 . S
H1897 C1885 0.930 . S
H1898 C1886 0.956 . S
H1899 C1886 0.961 . S
H1900 C1886 0.961 . S
H1901 C1887 0.958 . S
H1902 C1887 0.961 . S
H1903 C1887 0.960 . S
C369 C17 0.910 1_556 S
C377 C178 0.919 . S
C401 C40 0.873 . S
C409 C109 0.890 1_554 S
C433 C132 0.912 . S
C441 C63 0.919 . S
C465 C86 0.946 . S
C473 C155 0.921 . S
C497 C274 1.294 . S
C505 C113 1.286 1_554 S
C529 C205 1.303 . S
C537 C21 1.262 1_556 S
C561 C251 1.270 . S
C569 C159 1.283 . S
C593 C67 1.204 . S
C601 C228 1.248 . S
C625 C224 0.946 . S
C633 C293 0.921 . S
C657 C247 0.910 . S
C665 C339 0.898 . S
C689 C316 0.907 1_556 S
C697 C201 0.897 . S
C721 C270 0.920 . S
C729 C362 0.921 1_554 S
C753 C343 1.278 . S
C761 C90 1.250 . S
C785 C297 1.308 . S
C793 C136 1.284 . S
C817 C44 1.207 . S
C825 C366 1.255 1_554 S
C849 C182 1.274 . S
C857 C320 1.284 1_556 S
C881 C318 0.459 . S
C889 C19 0.491 . S
C913 C272 0.534 . S
C921 C42 0.473 . S
C945 C295 0.535 . S
C953 C65 0.472 . S
C977 C249 0.398 . S
C985 C88 0.407 . S
C1009 C111 0.503 . S
C1017 C364 0.397 . S
C1041 C226 0.530 . S
C1049 C134 0.404 . S
C1073 C157 0.456 . S
C1081 C341 0.396 . S
C1105 C180 0.414 . S
C1113 C203 0.402 . S
C1137 C20 0.846 . S
C1145 C112 0.874 . S
C1169 C43 0.873 . S
C1177 C135 0.832 . S
C1201 C158 0.870 . S
C1209 C66 0.831 . S
C1233 C89 0.829 . S
C1241 C181 0.834 . S
C1265 C250 0.812 . S
C1273 C204 0.840 . S
C1297 C273 0.904 . S
C1305 C227 0.849 . S
C1329 C296 0.868 . S
C1337 C342 0.831 . S
C1361 C365 0.805 1_655 S
C1369 C319 0.865 1_655 S
C1393 C18 1.510 . S
C1401 C179 1.499 . S
C1425 C41 1.503 . S
C1433 C110 1.502 . S
C1457 C133 1.476 1_556 S
C1465 C64 1.503 . S
C1489 C156 1.487 . S
C1497 C87 1.508 1_554 S
C1521 C269 1.466 . S
C1529 C108 1.483 . S
C1553 C200 1.460 . S
C1561 C16 1.487 . S
C1585 C246 1.466 1_554 S
C1593 C154 1.483 . S
C1617 C62 1.487 . S
C1625 C223 1.504 1_556 S
C1649 C294 1.503 . S
C1657 C225 1.492 1_556 S
C1681 C340 1.480 . S
C1689 C248 1.501 1_554 S
C1713 C317 1.495 . S
C1721 C202 1.506 . S
C1745 C363 1.477 . S
C1753 C271 1.509 . S
C1777 C338 1.526 . S
C1785 C85 1.510 1_554 S
C1809 C131 1.505 1_556 S
C1817 C292 1.492 . S
C1841 C39 1.461 . S
C1849 C361 1.484 . S
C1873 C315 1.468 . S
C1881 C177 1.495 . S
