# Generated by pormake.
# Topology unp, (4)-cn, num edge types: 1
# Building blocks:
#     Node 0, Type 0, BuildingBlock: GALJAG_clean_sbu_0, # of connection points: 4
#     Node 1, Type 0, BuildingBlock: GALJAG_clean_sbu_0, # of connection points: 4
#     Node 2, Type 0, BuildingBlock: GALJAG_clean_sbu_0, # of connection points: 4
#     Node 3, Type 0, BuildingBlock: GALJAG_clean_sbu_0, # of connection points: 4
#     Node 4, Type 0, BuildingBlock: GALJAG_clean_sbu_0, # of connection points: 4
#     Node 5, Type 0, BuildingBlock: GALJAG_clean_sbu_0, # of connection points: 4
#     Node 6, Type 0, BuildingBlock: GALJAG_clean_sbu_0, # of connection points: 4
#     Node 7, Type 0, BuildingBlock: GALJAG_clean_sbu_0, # of connection points: 4
#     Node 8, Type 0, BuildingBlock: GALJAG_clean_sbu_0, # of connection points: 4
#     Node 9, Type 0, BuildingBlock: GALJAG_clean_sbu_0, # of connection points: 4
#     Node 10, Type 0, BuildingBlock: GALJAG_clean_sbu_0, # of connection points: 4
#     Node 11, Type 0, BuildingBlock: GALJAG_clean_sbu_0, # of connection points: 4
#     Node 12, Type 0, BuildingBlock: GALJAG_clean_sbu_0, # of connection points: 4
#     Node 13, Type 0, BuildingBlock: GALJAG_clean_sbu_0, # of connection points: 4
#     Node 14, Type 0, BuildingBlock: GALJAG_clean_sbu_0, # of connection points: 4
#     Node 15, Type 0, BuildingBlock: GALJAG_clean_sbu_0, # of connection points: 4
#     Node 16, Type 0, BuildingBlock: GALJAG_clean_sbu_0, # of connection points: 4
#     Node 17, Type 0, BuildingBlock: GALJAG_clean_sbu_0, # of connection points: 4
#     Edge 18, Type (0, 0), BuildingBlock: ZUJKAS_clean_linker_0, # of connection points: 2
#     Edge 19, Type (0, 0), BuildingBlock: ZUJKAS_clean_linker_0, # of connection points: 2
#     Edge 20, Type (0, 0), BuildingBlock: ZUJKAS_clean_linker_0, # of connection points: 2
#     Edge 21, Type (0, 0), BuildingBlock: ZUJKAS_clean_linker_0, # of connection points: 2
#     Edge 22, Type (0, 0), BuildingBlock: ZUJKAS_clean_linker_0, # of connection points: 2
#     Edge 23, Type (0, 0), BuildingBlock: ZUJKAS_clean_linker_0, # of connection points: 2
#     Edge 24, Type (0, 0), BuildingBlock: ZUJKAS_clean_linker_0, # of connection points: 2
#     Edge 25, Type (0, 0), BuildingBlock: ZUJKAS_clean_linker_0, # of connection points: 2
#     Edge 26, Type (0, 0), BuildingBlock: ZUJKAS_clean_linker_0, # of connection points: 2
#     Edge 27, Type (0, 0), BuildingBlock: ZUJKAS_clean_linker_0, # of connection points: 2
#     Edge 28, Type (0, 0), BuildingBlock: ZUJKAS_clean_linker_0, # of connection points: 2
#     Edge 29, Type (0, 0), BuildingBlock: ZUJKAS_clean_linker_0, # of connection points: 2
#     Edge 30, Type (0, 0), BuildingBlock: ZUJKAS_clean_linker_0, # of connection points: 2
#     Edge 31, Type (0, 0), BuildingBlock: ZUJKAS_clean_linker_0, # of connection points: 2
#     Edge 32, Type (0, 0), BuildingBlock: ZUJKAS_clean_linker_0, # of connection points: 2
#     Edge 33, Type (0, 0), BuildingBlock: ZUJKAS_clean_linker_0, # of connection points: 2
#     Edge 34, Type (0, 0), BuildingBlock: ZUJKAS_clean_linker_0, # of connection points: 2
#     Edge 35, Type (0, 0), BuildingBlock: ZUJKAS_clean_linker_0, # of connection points: 2
#     Edge 36, Type (0, 0), BuildingBlock: ZUJKAS_clean_linker_0, # of connection points: 2
#     Edge 37, Type (0, 0), BuildingBlock: ZUJKAS_clean_linker_0, # of connection points: 2
#     Edge 38, Type (0, 0), BuildingBlock: ZUJKAS_clean_linker_0, # of connection points: 2
#     Edge 39, Type (0, 0), BuildingBlock: ZUJKAS_clean_linker_0, # of connection points: 2
#     Edge 40, Type (0, 0), BuildingBlock: ZUJKAS_clean_linker_0, # of connection points: 2
#     Edge 41, Type (0, 0), BuildingBlock: ZUJKAS_clean_linker_0, # of connection points: 2
#     Edge 42, Type (0, 0), BuildingBlock: ZUJKAS_clean_linker_0, # of connection points: 2
#     Edge 43, Type (0, 0), BuildingBlock: ZUJKAS_clean_linker_0, # of connection points: 2
#     Edge 44, Type (0, 0), BuildingBlock: ZUJKAS_clean_linker_0, # of connection points: 2
#     Edge 45, Type (0, 0), BuildingBlock: ZUJKAS_clean_linker_0, # of connection points: 2
#     Edge 46, Type (0, 0), BuildingBlock: ZUJKAS_clean_linker_0, # of connection points: 2
#     Edge 47, Type (0, 0), BuildingBlock: ZUJKAS_clean_linker_0, # of connection points: 2
#     Edge 48, Type (0, 0), BuildingBlock: ZUJKAS_clean_linker_0, # of connection points: 2
#     Edge 49, Type (0, 0), BuildingBlock: ZUJKAS_clean_linker_0, # of connection points: 2
#     Edge 50, Type (0, 0), BuildingBlock: ZUJKAS_clean_linker_0, # of connection points: 2
#     Edge 51, Type (0, 0), BuildingBlock: ZUJKAS_clean_linker_0, # of connection points: 2
#     Edge 52, Type (0, 0), BuildingBlock: ZUJKAS_clean_linker_0, # of connection points: 2
#     Edge 53, Type (0, 0), BuildingBlock: ZUJKAS_clean_linker_0, # of connection points: 2
# Relax obj value: 0.397
# Max RMSD: 0.139
# Mean RMSD: 0.139
data_MOF--net-unp--node1-GALJAG_clean_sbu_0--edge1-ZUJKAS_clean_linker_0
_symmetry_space_group_name_H-M    P1
_symmetry_Int_Tables_number       1
_symmetry_cell_setting            triclinic
loop_
_symmetry_equiv_pos_as_xyz
'x, y, z'
_cell_length_a     64.243223
_cell_length_b     64.243397
_cell_length_c     55.009099
_cell_angle_alpha  90.020882
_cell_angle_beta   89.981608
_cell_angle_gamma 120.02036
loop_
_atom_site_label
_atom_site_type_symbol
_atom_site_fract_x
_atom_site_fract_y
_atom_site_fract_z
_atom_type_partial_charge
In0 In 0.16692 0.16391 0.17728 0.0
O1 O 0.19384 0.2035 0.18557 0.0
O2 O 0.2063 0.17858 0.18662 0.0
C3 C 0.12841 0.16497 0.19561 0.0
C4 C 0.17116 0.16708 0.12838 0.0
C5 C 0.15478 0.119 0.19111 0.0
O6 O 0.14447 0.16543 0.20921 0.0
O7 O 0.13238 0.16487 0.17322 0.0
O8 O 0.14543 0.12339 0.17309 0.0
O9 O 0.17037 0.13736 0.20239 0.0
C10 C 0.21147 0.2002 0.18819 0.0
O11 O 0.17355 0.15174 0.14047 0.0
O12 O 0.16668 0.18079 0.14094 0.0
In13 In 0.83941 0.00788 0.17933 0.0
O14 O 0.7992 0.99347 0.18595 0.0
O15 O 0.82326 0.03036 0.19255 0.0
C16 C 0.84409 0.96989 0.19225 0.0
C17 C 0.83446 0.00692 0.13067 0.0
C18 C 0.88247 0.04306 0.19534 0.0
O19 O 0.83623 0.97947 0.20694 0.0
O20 O 0.84905 0.97921 0.1714 0.0
O21 O 0.87658 0.0401 0.17319 0.0
O22 O 0.86647 0.02837 0.20965 0.0
C23 C 0.80175 0.01361 0.19161 0.0
O24 O 0.84862 0.02585 0.1421 0.0
O25 O 0.82283 0.98853 0.1438 0.0
In26 In 0.0076 0.83809 0.18279 0.0
O27 O 0.98951 0.82417 0.14593 0.0
O28 O 0.02564 0.85287 0.14619 0.0
C29 C 0.97527 0.85196 0.19275 0.0
C30 C 0.99917 0.79314 0.19233 0.0
C31 C 0.04592 0.87258 0.20733 0.0
O32 O 0.99035 0.86091 0.17567 0.0
O33 O 0.97629 0.83574 0.20478 0.0
O34 O 0.02494 0.86212 0.21597 0.0
O35 O 0.04782 0.86443 0.18714 0.0
C36 C 0.00767 0.83858 0.13369 0.0
O37 O 0.01931 0.80977 0.18519 0.0
O38 O 0.98388 0.79958 0.19602 0.0
In39 In 0.17013 0.16924 0.81879 0.0
O40 O 0.20917 0.19785 0.81054 0.0
O41 O 0.18286 0.20855 0.81064 0.0
C42 C 0.1732 0.13199 0.79991 0.0
C43 C 0.17258 0.17231 0.86774 0.0
C44 C 0.12475 0.15481 0.80465 0.0
O45 O 0.17216 0.14743 0.78657 0.0
O46 O 0.17375 0.13606 0.82235 0.0
O47 O 0.12974 0.14677 0.82335 0.0
O48 O 0.14277 0.17038 0.79292 0.0
C49 C 0.20476 0.21483 0.80869 0.0
O50 O 0.15666 0.1738 0.85572 0.0
O51 O 0.18727 0.16936 0.85508 0.0
In52 In 0.8374 0.00359 0.82152 0.0
O53 O 0.82412 0.98388 0.8576 0.0
O54 O 0.84341 0.02214 0.85815 0.0
C55 C 0.84816 0.96941 0.80898 0.0
C56 C 0.79392 0.99795 0.80991 0.0
C57 C 0.87789 0.04223 0.80482 0.0
O58 O 0.85027 0.97737 0.83032 0.0
O59 O 0.84043 0.97859 0.79371 0.0
O60 O 0.86095 0.02865 0.79075 0.0
O61 O 0.87394 0.03668 0.82696 0.0
C62 C 0.83258 0.00285 0.87016 0.0
O63 O 0.81142 0.01794 0.81618 0.0
O64 O 0.79883 0.98134 0.80806 0.0
In65 In 0.0125 0.84456 0.82382 0.0
O66 O 0.03131 0.85518 0.86061 0.0
O67 O 0.99394 0.82945 0.86007 0.0
C68 C 0.04729 0.88727 0.80662 0.0
C69 C 0.0179 0.8064 0.81285 0.0
C70 C 0.97396 0.84809 0.81032 0.0
O71 O 0.04404 0.88229 0.82897 0.0
O72 O 0.03308 0.87052 0.79268 0.0
O73 O 0.98372 0.84011 0.79602 0.0
O74 O 0.98345 0.85384 0.83106 0.0
C75 C 0.01262 0.8416 0.87268 0.0
O76 O 0.99791 0.80416 0.81863 0.0
O77 O 0.03475 0.82783 0.81132 0.0
In78 In 0.83915 0.50137 0.5122 0.0
O79 O 0.86545 0.54164 0.51697 0.0
O80 O 0.87691 0.51736 0.5279 0.0
C81 C 0.80093 0.50451 0.528 0.0
C82 C 0.83713 0.49921 0.4632 0.0
C83 C 0.83346 0.4584 0.52601 0.0
O84 O 0.81484 0.50207 0.54241 0.0
O85 O 0.8071 0.50663 0.50601 0.0
O86 O 0.84396 0.46883 0.50663 0.0
O87 O 0.82634 0.46992 0.53881 0.0
C88 C 0.88234 0.53895 0.52497 0.0
O89 O 0.82046 0.48389 0.47647 0.0
O90 O 0.85479 0.5155 0.47464 0.0
In91 In 0.50536 0.33848 0.51294 0.0
O92 O 0.46485 0.32395 0.51692 0.0
O93 O 0.48849 0.36041 0.52589 0.0
C94 C 0.50456 0.30014 0.53423 0.0
C95 C 0.50361 0.33969 0.46403 0.0
C96 C 0.55129 0.37186 0.52314 0.0
O97 O 0.50834 0.31845 0.54622 0.0
O98 O 0.49995 0.30079 0.5121 0.0
O99 O 0.54528 0.35884 0.50438 0.0
O100 O 0.53404 0.36818 0.53692 0.0
C101 C 0.46706 0.34379 0.52328 0.0
O102 O 0.50998 0.35813 0.47698 0.0
O103 O 0.49832 0.32081 0.47575 0.0
In104 In 0.66633 0.16833 0.51114 0.0
O105 O 0.67858 0.1413 0.52042 0.0
O106 O 0.64132 0.12921 0.52166 0.0
C107 C 0.70746 0.20734 0.52612 0.0
C108 C 0.66284 0.16281 0.46243 0.0
C109 C 0.63578 0.18317 0.5256 0.0
O110 O 0.69127 0.1938 0.54089 0.0
O111 O 0.70322 0.2006 0.5043 0.0
O112 O 0.64601 0.18826 0.50511 0.0
O113 O 0.64086 0.17035 0.53901 0.0
C114 C 0.65761 0.12386 0.52342 0.0
O115 O 0.6453 0.15948 0.47552 0.0
O116 O 0.68203 0.16886 0.47391 0.0
In117 In 0.83071 0.50226 0.15343 0.0
O118 O 0.81181 0.48847 0.18992 0.0
O119 O 0.8492 0.51407 0.19023 0.0
C120 C 0.78888 0.49714 0.13662 0.0
C121 C 0.86736 0.54679 0.14305 0.0
C122 C 0.83208 0.46284 0.13824 0.0
O123 O 0.79621 0.50362 0.15807 0.0
O124 O 0.80291 0.49368 0.12337 0.0
O125 O 0.8342 0.47894 0.12367 0.0
O126 O 0.83019 0.46713 0.16019 0.0
C127 C 0.83048 0.50101 0.20243 0.0
O128 O 0.87057 0.5292 0.14662 0.0
O129 O 0.84567 0.54158 0.14344 0.0
In130 In 0.5023 0.33596 0.15452 0.0
O131 O 0.49395 0.31782 0.19159 0.0
O132 O 0.50569 0.35521 0.19034 0.0
C133 C 0.51267 0.30194 0.14038 0.0
C134 C 0.45774 0.32787 0.14364 0.0
C135 C 0.54288 0.37492 0.13851 0.0
O136 O 0.51329 0.30814 0.16224 0.0
O137 O 0.50663 0.31285 0.12537 0.0
O138 O 0.52541 0.36255 0.12449 0.0
O139 O 0.53949 0.36795 0.16027 0.0
C140 C 0.49907 0.33671 0.20328 0.0
O141 O 0.47486 0.34848 0.14881 0.0
O142 O 0.46347 0.31181 0.14259 0.0
In143 In 0.67316 0.17384 0.15352 0.0
O144 O 0.68503 0.18828 0.19186 0.0
O145 O 0.65576 0.15258 0.18806 0.0
C146 C 0.70956 0.21625 0.13771 0.0
C147 C 0.68158 0.13763 0.1424 0.0
C148 C 0.63463 0.17705 0.13911 0.0
O149 O 0.70747 0.20938 0.15951 0.0
O150 O 0.69343 0.20146 0.12356 0.0
O151 O 0.64578 0.17083 0.12463 0.0
O152 O 0.64267 0.18113 0.16048 0.0
C153 C 0.6695 0.16929 0.20226 0.0
O154 O 0.66063 0.13434 0.14478 0.0
O155 O 0.698 0.15923 0.14426 0.0
In156 In 0.50351 0.84137 0.84548 0.0
O157 O 0.53096 0.88124 0.85171 0.0
O158 O 0.54232 0.85587 0.85739 0.0
C159 C 0.4645 0.84168 0.86349 0.0
C160 C 0.50756 0.84524 0.79675 0.0
C161 C 0.49072 0.7957 0.8572 0.0
O162 O 0.48069 0.84256 0.87717 0.0
O163 O 0.4685 0.84146 0.84113 0.0
O164 O 0.48725 0.80179 0.83648 0.0
O165 O 0.50074 0.81273 0.8723 0.0
C166 C 0.54808 0.87769 0.85667 0.0
O167 O 0.51427 0.83297 0.80889 0.0
O168 O 0.49891 0.85562 0.80922 0.0
In169 In 0.1762 0.67691 0.84771 0.0
O170 O 0.13579 0.66252 0.85191 0.0
O171 O 0.15961 0.69919 0.86027 0.0
C172 C 0.173 0.63554 0.86383 0.0
C173 C 0.17906 0.67757 0.79878 0.0
C174 C 0.21835 0.71402 0.86365 0.0
O175 O 0.17514 0.65186 0.87809 0.0
O176 O 0.1714 0.63967 0.84175 0.0
O177 O 0.21127 0.71214 0.84198 0.0
O178 O 0.20393 0.69742 0.87753 0.0
C179 C 0.13813 0.68248 0.85814 0.0
O180 O 0.19424 0.67612 0.81221 0.0
O181 O 0.1626 0.67881 0.81005 0.0
In182 In 0.32998 0.50399 0.84256 0.0
O183 O 0.34458 0.47825 0.84838 0.0
O184 O 0.30784 0.46528 0.85592 0.0
C185 C 0.36759 0.54714 0.85511 0.0
C186 C 0.33144 0.50131 0.79377 0.0
C187 C 0.29402 0.51012 0.85945 0.0
O188 O 0.35926 0.52942 0.86947 0.0
O189 O 0.35714 0.54285 0.83485 0.0
O190 O 0.29582 0.50564 0.83746 0.0
O191 O 0.31026 0.51114 0.87322 0.0
C192 C 0.32462 0.46062 0.85444 0.0
O193 O 0.31292 0.49807 0.80501 0.0
O194 O 0.34914 0.50577 0.80715 0.0
In195 In 0.49493 0.83918 0.48729 0.0
O196 O 0.53589 0.8629 0.48603 0.0
O197 O 0.51517 0.87628 0.46959 0.0
C198 C 0.48498 0.79477 0.47374 0.0
C199 C 0.49813 0.84124 0.53624 0.0
C200 C 0.45524 0.8378 0.46948 0.0
O201 O 0.50258 0.8134 0.46475 0.0
O202 O 0.47297 0.79882 0.48918 0.0
O203 O 0.46102 0.84137 0.49167 0.0
O204 O 0.46997 0.83564 0.45595 0.0
C205 C 0.53576 0.88029 0.47561 0.0
O206 O 0.4893 0.85173 0.52431 0.0
O207 O 0.50521 0.82966 0.5235 0.0
In208 In 0.1735 0.66848 0.48906 0.0
O209 O 0.19059 0.66707 0.52496 0.0
O210 O 0.16076 0.67282 0.52634 0.0
C211 C 0.17893 0.63142 0.47391 0.0
C212 C 0.12867 0.65997 0.47918 0.0
C213 C 0.21126 0.70958 0.4718 0.0
O214 O 0.17296 0.63318 0.49531 0.0
O215 O 0.18178 0.64818 0.45987 0.0
O216 O 0.19569 0.69389 0.45793 0.0
O217 O 0.20724 0.70487 0.49409 0.0
C218 C 0.17631 0.67038 0.538 0.0
O219 O 0.146 0.68082 0.48325 0.0
O220 O 0.13428 0.64378 0.47887 0.0
In221 In 0.33963 0.50308 0.48393 0.0
O222 O 0.3527 0.52144 0.5208 0.0
O223 O 0.32757 0.484 0.5205 0.0
C224 C 0.3753 0.54507 0.46634 0.0
C225 C 0.34539 0.46568 0.47057 0.0
C226 C 0.29968 0.50447 0.47155 0.0
O227 O 0.37818 0.53445 0.48423 0.0
O228 O 0.35465 0.53413 0.45685 0.0
O229 O 0.31106 0.49923 0.45629 0.0
O230 O 0.30812 0.5083 0.49279 0.0
C231 C 0.34032 0.50256 0.53302 0.0
O232 O 0.32534 0.463 0.47682 0.0
O233 O 0.36203 0.48724 0.46952 0.0
H234 H 0.4394 0.35649 0.15712 0.0
H235 H 0.39694 0.34356 0.16437 0.0
H236 H 0.37659 0.27297 0.13712 0.0
H237 H 0.41881 0.28568 0.12983 0.0
H238 H 0.34542 0.2923 0.1229 0.0
H239 H 0.36333 0.29558 0.22242 0.0
H240 H 0.38154 0.32225 0.2048 0.0
H241 H 0.38415 0.29603 0.2001 0.0
C242 C 0.42582 0.33841 0.15209 0.0
C243 C 0.4324 0.32201 0.1431 0.0
C244 C 0.40162 0.33103 0.15639 0.0
C245 C 0.38375 0.30723 0.15161 0.0
C246 C 0.39017 0.29139 0.14099 0.0
H247 H 0.25118 0.19713 0.1987 0.0
H248 H 0.29307 0.22798 0.19199 0.0
C249 C 0.41429 0.29868 0.13683 0.0
C250 C 0.35863 0.29787 0.15961 0.0
H251 H 0.32306 0.27783 0.21017 0.0
C252 C 0.34047 0.28959 0.14197 0.0
C253 C 0.35237 0.2942 0.18454 0.0
C254 C 0.37126 0.30232 0.20417 0.0
C255 C 0.3161 0.27683 0.14858 0.0
C256 C 0.30986 0.27236 0.17346 0.0
C257 C 0.328 0.28151 0.19114 0.0
C258 C 0.28489 0.25545 0.1811 0.0
C259 C 0.29722 0.26694 0.12889 0.0
C260 C 0.26656 0.26106 0.17815 0.0
C261 C 0.24255 0.24347 0.18216 0.0
C262 C 0.23663 0.22005 0.189 0.0
C263 C 0.2552 0.215 0.19338 0.0
C264 C 0.27913 0.23259 0.18955 0.0
H265 H 0.3052 0.26987 0.11042 0.0
H266 H 0.28495 0.24736 0.13159 0.0
H267 H 0.28625 0.27585 0.12986 0.0
H268 H 0.27074 0.2787 0.17183 0.0
H269 H 0.22859 0.24784 0.17859 0.0
H270 H 0.7552 0.98372 0.17757 0.0
H271 H 0.72482 0.99536 0.16965 0.0
H272 H 0.77264 0.06608 0.19826 0.0
H273 H 0.80297 0.05464 0.20624 0.0
H274 H 0.72164 0.04566 0.21043 0.0
H275 H 0.74009 0.04341 0.11168 0.0
H276 H 0.73138 0.01669 0.12929 0.0
H277 H 0.75982 0.04317 0.13489 0.0
C278 C 0.75894 0.00152 0.18281 0.0
C279 C 0.78153 0.01838 0.19231 0.0
C280 C 0.74164 0.00816 0.17813 0.0
C281 C 0.7467 0.03168 0.183 0.0
C282 C 0.76846 0.04787 0.1943 0.0
H283 H 0.72458 0.14075 0.13302 0.0
H284 H 0.73548 0.10993 0.14055 0.0
C285 C 0.78577 0.04131 0.19885 0.0
C286 C 0.73078 0.04053 0.17418 0.0
H287 H 0.71665 0.06049 0.12266 0.0
C288 C 0.72001 0.04842 0.19123 0.0
C289 C 0.729 0.04428 0.14909 0.0
C290 C 0.74074 0.03661 0.13007 0.0
C291 C 0.70838 0.06095 0.18392 0.0
C292 C 0.70745 0.06555 0.1589 0.0
C293 C 0.71727 0.05671 0.14178 0.0
C294 C 0.69955 0.0824 0.15065 0.0
C295 C 0.69849 0.07051 0.20305 0.0
C296 C 0.67552 0.07675 0.15285 0.0
C297 C 0.66919 0.09432 0.14838 0.0
C298 C 0.68688 0.11778 0.14182 0.0
C299 C 0.7106 0.12285 0.13812 0.0
C300 C 0.71685 0.10528 0.14241 0.0
H301 H 0.70299 0.06758 0.22178 0.0
H302 H 0.70564 0.09006 0.20035 0.0
H303 H 0.67863 0.06133 0.20139 0.0
H304 H 0.6619 0.05908 0.15897 0.0
H305 H 0.65078 0.08993 0.15143 0.0
H306 H 0.91476 0.56374 0.15368 0.0
H307 H 0.94553 0.60576 0.16116 0.0
H308 H 0.89532 0.6285 0.14015 0.0
H309 H 0.86459 0.58672 0.13263 0.0
H310 H 0.94464 0.65871 0.12304 0.0
H311 H 0.93681 0.63958 0.22248 0.0
H312 H 0.94332 0.62106 0.20299 0.0
H313 H 0.91465 0.61937 0.201 0.0
C314 C 0.91049 0.57776 0.1501 0.0
C315 C 0.88723 0.57197 0.14275 0.0
C316 C 0.92801 0.6017 0.15453 0.0
C317 C 0.92252 0.62011 0.15156 0.0
C318 C 0.89985 0.6145 0.14263 0.0
H319 H 0.95711 0.75475 0.20745 0.0
H320 H 0.94288 0.71237 0.1991 0.0
C321 C 0.88232 0.59063 0.13834 0.0
C322 C 0.9394 0.645 0.15952 0.0
H323 H 0.96038 0.67986 0.21049 0.0
C324 C 0.94852 0.66338 0.1421 0.0
C325 C 0.94412 0.6509 0.18446 0.0
C326 C 0.93416 0.6318 0.20393 0.0
C327 C 0.96157 0.68765 0.149 0.0
C328 C 0.96572 0.69359 0.17399 0.0
C329 C 0.95732 0.67517 0.19136 0.0
C330 C 0.97606 0.71873 0.18242 0.0
C331 C 0.96964 0.70679 0.12963 0.0
C332 C -0.00021 0.73619 0.17678 0.0
C333 C 0.00802 0.76047 0.18162 0.0
C334 C 0.99258 0.76757 0.19213 0.0
C335 C 0.96939 0.74984 0.19928 0.0
C336 C 0.96123 0.72562 0.19451 0.0
H337 H 0.96194 0.69916 0.11152 0.0
H338 H 0.96436 0.72028 0.13454 0.0
H339 H 0.98953 0.71628 0.12814 0.0
H340 H 0.0116 0.73114 0.16773 0.0
H341 H 0.026 0.77375 0.17593 0.0
H342 H 0.28485 0.421 0.87174 0.0
H343 H 0.27358 0.37905 0.86494 0.0
H344 H 0.34213 0.40183 0.8309 0.0
H345 H 0.35366 0.44396 0.83784 0.0
H346 H 0.30039 0.37194 0.80172 0.0
H347 H 0.29504 0.33248 0.89271 0.0
H348 H 0.28097 0.35058 0.89108 0.0
H349 H 0.31291 0.36437 0.88677 0.0
C350 C 0.29781 0.41707 0.86348 0.0
C351 C 0.3201 0.43572 0.85528 0.0
C352 C 0.29138 0.3931 0.85966 0.0
C353 C 0.30708 0.38738 0.84752 0.0
C354 C 0.32985 0.40592 0.84044 0.0
H355 H 0.25252 0.23392 0.81884 0.0
H356 H 0.28203 0.2765 0.82554 0.0
C357 C 0.33643 0.42994 0.84451 0.0
C358 C 0.29829 0.36235 0.83953 0.0
H359 H 0.27246 0.30482 0.8607 0.0
C360 C 0.29475 0.35727 0.81456 0.0
C361 C 0.29109 0.34331 0.8563 0.0
C362 C 0.29537 0.34791 0.88322 0.0
C363 C 0.28277 0.33349 0.80603 0.0
C364 C 0.27411 0.31442 0.82294 0.0
C365 C 0.27903 0.31952 0.84778 0.0
C366 C 0.25774 0.28922 0.8156 0.0
C367 C 0.27873 0.32891 0.77909 0.0
C368 C 0.23452 0.28242 0.8074 0.0
C369 C 0.21764 0.2582 0.80376 0.0
C370 C 0.22374 0.24037 0.80814 0.0
C371 C 0.24739 0.2473 0.81512 0.0
C372 C 0.26422 0.27157 0.81906 0.0
H373 H 0.29174 0.34476 0.76833 0.0
H374 H 0.2803 0.31309 0.77367 0.0
H375 H 0.26033 0.32509 0.77448 0.0
H376 H 0.22909 0.29576 0.80495 0.0
H377 H 0.19953 0.25337 0.79847 0.0
H378 H 0.7772 0.02781 0.82389 0.0
H379 H 0.73513 0.01632 0.83128 0.0
H380 H 0.71226 0.94551 0.80291 0.0
H381 H 0.75409 0.95683 0.79538 0.0
H382 H 0.6822 0.96548 0.78968 0.0
H383 H 0.70083 0.96924 0.88903 0.0
H384 H 0.71918 0.9959 0.87147 0.0
H385 H 0.72137 0.96945 0.86652 0.0
C386 C 0.76316 0.01001 0.81864 0.0
C387 C 0.76891 0.99312 0.80927 0.0
C388 C 0.73917 0.00344 0.82303 0.0
C389 C 0.72069 0.97995 0.81804 0.0
C390 C 0.72631 0.9637 0.80698 0.0
H391 H 0.58713 0.87411 0.86914 0.0
H392 H 0.62928 0.90381 0.86177 0.0
C393 C 0.75021 0.9702 0.80268 0.0
C394 C 0.69575 0.9713 0.82627 0.0
H395 H 0.66061 0.95308 0.8772 0.0
C396 C 0.67744 0.9632 0.8088 0.0
C397 C 0.68971 0.96816 0.85126 0.0
C398 C 0.7087 0.97597 0.87076 0.0
C399 C 0.65312 0.95114 0.81564 0.0
C400 C 0.64707 0.94731 0.84061 0.0
C401 C 0.6654 0.95627 0.85811 0.0
C402 C 0.622 0.93128 0.84864 0.0
C403 C 0.63408 0.94132 0.7961 0.0
C404 C 0.60408 0.93732 0.84469 0.0
C405 C 0.57993 0.92037 0.84902 0.0
C406 C 0.57343 0.89717 0.85725 0.0
C407 C 0.59159 0.89181 0.86273 0.0
C408 C 0.61567 0.90876 0.85852 0.0
H409 H 0.64185 0.94306 0.77766 0.0
H410 H 0.62098 0.92205 0.79953 0.0
H411 H 0.6241 0.95127 0.79635 0.0
H412 H 0.60869 0.95475 0.83736 0.0
H413 H 0.5663 0.92499 0.84462 0.0
H414 H 0.13857 0.72268 0.87443 0.0
H415 H 0.10782 0.73377 0.86766 0.0
H416 H 0.06145 0.66446 0.83529 0.0
H417 H 0.09224 0.65318 0.84205 0.0
H418 H 0.07076 0.70372 0.80545 0.0
H419 H 0.04176 0.71442 0.89705 0.0
H420 H 0.07388 0.72915 0.89424 0.0
H421 H 0.05628 0.69695 0.89159 0.0
C422 C 0.12156 0.70954 0.8665 0.0
C423 C 0.11782 0.68709 0.85873 0.0
C424 C 0.10395 0.71586 0.86273 0.0
C425 C 0.08229 0.69987 0.85113 0.0
C426 C 0.07799 0.67698 0.84442 0.0
H427 H 0.98778 0.76019 0.82757 0.0
H428 H 0.9984 0.72886 0.83395 0.0
C429 C 0.09556 0.67054 0.84837 0.0
C430 C 0.06577 0.70841 0.8434 0.0
H431 H 0.03673 0.73694 0.86465 0.0
C432 C 0.06282 0.71049 0.81839 0.0
C433 C 0.05521 0.71698 0.86026 0.0
C434 C 0.05672 0.71405 0.88729 0.0
C435 C 0.05109 0.72251 0.80982 0.0
C436 C 0.04231 0.73283 0.82672 0.0
C437 C 0.04368 0.72918 0.8517 0.0
C438 C 0.03425 0.74978 0.81913 0.0
C439 C 0.04892 0.72477 0.78278 0.0
C440 C 0.05073 0.77168 0.80823 0.0
C441 C 0.04479 0.78959 0.80469 0.0
C442 C 0.02224 0.78591 0.81199 0.0
C443 C 0.00524 0.76346 0.82162 0.0
C444 C 0.01129 0.74559 0.82536 0.0
H445 H 0.04935 0.70997 0.77276 0.0
H446 H 0.03203 0.72466 0.77818 0.0
H447 H 0.06431 0.74201 0.77642 0.0
H448 H 0.0687 0.77545 0.8037 0.0
H449 H 0.05828 0.80674 0.79732 0.0
H450 H 0.90023 0.58542 0.51 0.0
H451 H 0.94263 0.61519 0.50305 0.0
H452 H 0.96353 0.56685 0.53438 0.0
H453 H 0.92134 0.53714 0.54152 0.0
H454 H 0.9946 0.61705 0.54619 0.0
H455 H 0.97636 0.59955 0.44704 0.0
H456 H 0.95848 0.60915 0.46358 0.0
H457 H 0.95534 0.5803 0.46984 0.0
C458 C 0.9139 0.58142 0.51602 0.0
C459 C 0.90749 0.55885 0.52606 0.0
C460 C 0.93808 0.59837 0.51188 0.0
C461 C 0.95611 0.59298 0.51778 0.0
C462 C 0.94984 0.57128 0.5296 0.0
H463 H 0.08919 0.61704 0.46835 0.0
H464 H 0.04722 0.60524 0.47582 0.0
C465 C 0.92572 0.55433 0.53368 0.0
C466 C 0.98121 0.60856 0.50958 0.0
H467 H 0.01658 0.62349 0.45891 0.0
C468 C 0.99946 0.61892 0.52711 0.0
C469 C 0.98738 0.61065 0.48464 0.0
C470 C 0.96846 0.59925 0.4651 0.0
C471 C 0.02381 0.63059 0.5204 0.0
C472 C 0.02996 0.63203 0.49551 0.0
C473 C 0.01172 0.62249 0.47793 0.0
C474 C 0.05499 0.64051 0.48772 0.0
C475 C 0.04276 0.64004 0.54003 0.0
C476 C 0.07312 0.6645 0.491 0.0
C477 C 0.09718 0.67134 0.48662 0.0
C478 C 0.10336 0.65423 0.47899 0.0
C479 C 0.08498 0.63059 0.47428 0.0
C480 C 0.061 0.62382 0.47855 0.0
H481 H 0.03487 0.63464 0.55851 0.0
H482 H 0.05559 0.63344 0.53717 0.0
H483 H 0.05308 0.65997 0.53922 0.0
H484 H 0.06876 0.67769 0.49779 0.0
H485 H 0.11098 0.68969 0.49041 0.0
H486 H 0.31503 0.41861 0.48261 0.0
H487 H 0.32643 0.38803 0.49026 0.0
H488 H 0.39828 0.43699 0.46506 0.0
H489 H 0.38704 0.46747 0.45719 0.0
H490 H 0.38007 0.38775 0.4514 0.0
H491 H 0.37028 0.39989 0.55027 0.0
H492 H 0.34442 0.39127 0.5313 0.0
H493 H 0.37062 0.42038 0.52764 0.0
C494 C 0.33306 0.4226 0.47805 0.0
C495 C 0.35024 0.44552 0.46955 0.0
C496 C 0.33957 0.40518 0.48261 0.0
C497 C 0.36331 0.41047 0.47869 0.0
C498 C 0.37989 0.43261 0.46832 0.0
H499 H 0.46784 0.38487 0.53696 0.0
H500 H 0.43753 0.39608 0.52791 0.0
C501 C 0.37344 0.45001 0.46382 0.0
C502 C 0.37184 0.39427 0.48752 0.0
H503 H 0.38767 0.37667 0.53959 0.0
C504 C 0.3813 0.38484 0.47065 0.0
C505 C 0.37362 0.39082 0.51269 0.0
C506 C 0.36436 0.4012 0.53163 0.0
C507 C 0.39344 0.37291 0.47829 0.0
C508 C 0.3959 0.37015 0.50347 0.0
C509 C 0.38553 0.37866 0.52032 0.0
C510 C 0.41198 0.36157 0.51255 0.0
C511 C 0.40483 0.36467 0.45942 0.0
C512 C 0.40714 0.33808 0.50796 0.0
C513 C 0.42446 0.33158 0.5132 0.0
C514 C 0.44682 0.34853 0.52306 0.0
C515 C 0.45082 0.37146 0.52929 0.0
C516 C 0.43352 0.37789 0.52412 0.0
H517 H 0.40415 0.37125 0.44092 0.0
H518 H 0.42389 0.37104 0.46412 0.0
H519 H 0.39518 0.34474 0.45895 0.0
H520 H 0.39045 0.32513 0.49936 0.0
H521 H 0.42086 0.31377 0.50822 0.0
H522 H 0.61459 0.08435 0.53395 0.0
H523 H 0.60336 0.04238 0.52773 0.0
H524 H 0.67647 0.06422 0.5081 0.0
H525 H 0.68791 0.10643 0.51436 0.0
H526 H 0.64163 0.03549 0.4729 0.0
H527 H 0.61637 0.99405 0.56422 0.0
H528 H 0.60319 0.01225 0.55724 0.0
H529 H 0.63533 0.02607 0.55977 0.0
C530 C 0.62843 0.0802 0.52897 0.0
C531 C 0.65211 0.09865 0.52463 0.0
C532 C 0.62201 0.05619 0.5255 0.0
C533 C 0.63912 0.0502 0.51761 0.0
C534 C 0.66305 0.0685 0.51434 0.0
H535 H 0.57943 0.8955 0.49692 0.0
H536 H 0.61047 0.93723 0.50467 0.0
C537 C 0.66956 0.09256 0.51803 0.0
C538 C 0.63119 0.02518 0.51016 0.0
H539 H 0.59885 0.96729 0.53007 0.0
C540 C 0.63274 0.02055 0.48547 0.0
C541 C 0.61986 0.00577 0.52661 0.0
C542 C 0.61878 0.00976 0.55349 0.0
C543 C 0.62174 0.99693 0.47653 0.0
C544 C 0.60875 0.97756 0.49268 0.0
C545 C 0.60868 0.98217 0.51764 0.0
C546 C 0.59289 0.95266 0.48397 0.0
C547 C 0.62352 0.99295 0.44977 0.0
C548 C 0.57311 0.94754 0.46914 0.0
C549 C 0.55534 0.92376 0.46473 0.0
C550 C 0.55702 0.9047 0.47514 0.0
C551 C 0.57768 0.90982 0.48856 0.0
C552 C 0.5954 0.93364 0.49309 0.0
H553 H 0.63992 0.00815 0.44164 0.0
H554 H 0.62376 0.97601 0.44651 0.0
H555 H 0.60769 0.9917 0.44027 0.0
H556 H 0.57058 0.96192 0.46228 0.0
H557 H 0.53959 0.92038 0.4544 0.0
H558 H 0.11033 0.15444 0.24205 0.0
H559 H 0.06869 0.14086 0.25433 0.0
H560 H 0.05245 0.15302 0.18142 0.0
H561 H 0.0938 0.16696 0.16925 0.0
H562 H 0.02882 0.16466 0.21702 0.0
H563 H 0.01768 0.07371 0.23173 0.0
H564 H 0.04013 0.09801 0.24959 0.0
H565 H 0.04404 0.09758 0.21731 0.0
C566 C 0.09799 0.15477 0.22885 0.0
C567 C 0.10519 0.16143 0.20461 0.0
C568 C 0.0742 0.14686 0.23584 0.0
C569 C 0.05737 0.14545 0.21864 0.0
C570 C 0.06509 0.15386 0.19497 0.0
H571 H 0.91764 0.07864 0.16822 0.0
H572 H 0.95914 0.10621 0.1801 0.0
C573 C 0.08875 0.16176 0.18801 0.0
C574 C 0.03126 0.13296 0.22399 0.0
H575 H 0.98291 0.07653 0.2306 0.0
C576 C 0.01878 0.14548 0.22053 0.0
C577 C 0.01819 0.10792 0.22862 0.0
C578 C 0.03056 0.09338 0.2319 0.0
C579 C 0.99355 0.13339 0.22017 0.0
C580 C 0.98055 0.10814 0.22306 0.0
C581 C 0.99297 0.0959 0.22835 0.0
C582 C 0.95459 0.09366 0.2173 0.0
C583 C 0.98107 0.14765 0.21585 0.0
C584 C 0.93822 0.0773 0.23422 0.0
C585 C 0.9144 0.06139 0.22742 0.0
C586 C 0.90674 0.06141 0.20349 0.0
C587 C 0.923 0.07823 0.1868 0.0
C588 C 0.94669 0.09417 0.19364 0.0
H589 H 0.99219 0.16646 0.22235 0.0
H590 H 0.97816 0.14828 0.19604 0.0
H591 H 0.96332 0.13931 0.22508 0.0
H592 H 0.94405 0.07644 0.25249 0.0
H593 H 0.90226 0.04856 0.24064 0.0
H594 H 0.85039 0.94049 0.16168 0.0
H595 H 0.86553 0.91352 0.17166 0.0
H596 H 0.86559 0.92947 0.24785 0.0
H597 H 0.85024 0.95666 0.23788 0.0
H598 H 0.91001 0.93801 0.23013 0.0
H599 H 0.83844 0.84722 0.20319 0.0
H600 H 0.84379 0.86912 0.18015 0.0
H601 H 0.83259 0.87147 0.20943 0.0
C602 C 0.85306 0.93782 0.18062 0.0
C603 C 0.84923 0.9507 0.19901 0.0
C604 C 0.86153 0.92224 0.18632 0.0
C605 C 0.86639 0.91925 0.21052 0.0
C606 C 0.86167 0.93135 0.22908 0.0
H607 H 0.93855 0.83336 0.22599 0.0
H608 H 0.91083 0.84816 0.23552 0.0
C609 C 0.85289 0.94681 0.22339 0.0
C610 C 0.87953 0.90625 0.21555 0.0
H611 H 0.87941 0.85449 0.20122 0.0
C612 C 0.9031 0.91953 0.22445 0.0
C613 C 0.87045 0.88209 0.20834 0.0
C614 C 0.84482 0.86657 0.19998 0.0
C615 C 0.91847 0.90992 0.2244 0.0
C616 C 0.91006 0.88656 0.21504 0.0
C617 C 0.8859 0.87254 0.20807 0.0
C618 C 0.92672 0.87754 0.20981 0.0
C619 C 0.94393 0.92521 0.23335 0.0
C620 C 0.94447 0.88894 0.19195 0.0
C621 C 0.9601 0.88048 0.18634 0.0
C622 C 0.95829 0.86043 0.19854 0.0
C623 C 0.94038 0.84889 0.21635 0.0
C624 C 0.92458 0.8573 0.22183 0.0
H625 H 0.94555 0.93937 0.24609 0.0
H626 H 0.9503 0.91406 0.24262 0.0
H627 H 0.95592 0.93422 0.21761 0.0
H628 H 0.94612 0.90435 0.18219 0.0
H629 H 0.97367 0.88972 0.17251 0.0
H630 H 0.17759 0.10448 0.2233 0.0
H631 H 0.16763 0.06301 0.23222 0.0
H632 H 0.10687 0.03646 0.1837 0.0
H633 H 0.11706 0.07756 0.17424 0.0
H634 H 0.12811 0.02421 0.25132 0.0
H635 H 0.14193 0.00399 0.15723 0.0
H636 H 0.15174 0.03422 0.1674 0.0
H637 H 0.12109 0.01482 0.15785 0.0
C638 C 0.16212 0.08974 0.21457 0.0
C639 C 0.14826 0.09421 0.19785 0.0
C640 C 0.15646 0.06611 0.21968 0.0
C641 C 0.13688 0.04667 0.20815 0.0
C642 C 0.12251 0.05118 0.19223 0.0
H643 H 0.04078 0.90269 0.23823 0.0
H644 H 0.06875 0.94542 0.24314 0.0
C645 C 0.12827 0.07469 0.18695 0.0
C646 C 0.13109 0.02156 0.21256 0.0
H647 H 0.11613 0.96973 0.18223 0.0
C648 C 0.12591 0.01233 0.23631 0.0
C649 C 0.12902 0.00622 0.19313 0.0
C650 C 0.13653 0.01542 0.16753 0.0
C651 C 0.1169 0.98774 0.24084 0.0
C652 C 0.11231 0.97193 0.221 0.0
C653 C 0.11928 0.98161 0.19753 0.0
C654 C 0.09789 0.9453 0.22336 0.0
C655 C 0.11215 0.97902 0.26679 0.0
C656 C 0.10489 0.93061 0.21101 0.0
C657 C 0.08854 0.90615 0.20755 0.0
C658 C 0.06505 0.8959 0.21672 0.0
C659 C 0.05884 0.91003 0.23113 0.0
C660 C 0.07498 0.93457 0.23411 0.0
H661 H 0.12548 0.99293 0.27923 0.0
H662 H 0.09411 0.97564 0.27232 0.0
H663 H 0.11284 0.96221 0.26912 0.0
H664 H 0.12246 0.93838 0.20259 0.0
H665 H 0.09379 0.89566 0.19637 0.0
H666 H 0.0812 0.92422 0.83343 0.0
H667 H 0.1088 0.96524 0.82004 0.0
H668 H 0.08238 0.94601 0.74668 0.0
H669 H 0.05443 0.9047 0.76002 0.0
H670 H 0.14552 0.98448 0.78197 0.0
H671 H 0.06931 0.00119 0.76617 0.0
H672 H 0.0656 0.97574 0.78357 0.0
H673 H 0.06862 0.97597 0.75114 0.0
C674 C 0.0814 0.92861 0.81439 0.0
C675 C 0.0655 0.91132 0.79781 0.0
C676 C 0.09726 0.95204 0.80675 0.0
C677 C 0.09746 0.95867 0.78244 0.0
C678 C 0.08231 0.94125 0.76558 0.0
H679 H 0.15905 0.11252 0.75443 0.0
H680 H 0.14523 0.07072 0.74281 0.0
C681 C 0.06643 0.9177 0.77321 0.0
C682 C 0.11235 0.9843 0.7756 0.0
H683 H 0.10808 0.03444 0.76588 0.0
C684 C 0.13742 0.9954 0.77792 0.0
C685 C 0.10173 0.99842 0.7701 0.0
C686 C 0.07485 0.98739 0.76767 0.0
C687 C 0.15206 0.02047 0.77626 0.0
C688 C 0.14124 0.03476 0.77274 0.0
C689 C 0.11637 0.02349 0.7686 0.0
C690 C 0.1544 0.06106 0.77725 0.0
C691 C 0.17887 0.03142 0.77909 0.0
C692 C 0.16473 0.06968 0.80017 0.0
C693 C 0.17259 0.09343 0.8068 0.0
C694 C 0.17012 0.10902 0.7907 0.0
C695 C 0.16128 0.10092 0.76715 0.0
C696 C 0.15333 0.07704 0.76052 0.0
H697 H 0.18493 0.01914 0.77196 0.0
H698 H 0.18883 0.04894 0.76952 0.0
H699 H 0.18354 0.03433 0.79869 0.0
H700 H 0.16522 0.05764 0.81363 0.0
H701 H 0.17929 0.09914 0.82508 0.0
H702 H 0.08423 0.11833 0.82458 0.0
H703 H 0.04263 0.10441 0.81317 0.0
H704 H 0.06659 0.15827 0.75691 0.0
H705 H 0.10862 0.1724 0.76825 0.0
H706 H 0.02886 0.15524 0.7884 0.0
H707 H 0.0071 0.06666 0.75097 0.0
H708 H 0.02189 0.07263 0.77993 0.0
H709 H 0.03761 0.09121 0.75423 0.0
C710 C 0.08072 0.12717 0.80969 0.0
C711 C 0.09968 0.14641 0.79726 0.0
C712 C 0.05693 0.1191 0.8031 0.0
C713 C 0.05159 0.13007 0.78396 0.0
C714 C 0.07041 0.14945 0.77158 0.0
H715 H 0.89612 0.04999 0.75854 0.0
H716 H 0.93828 0.07622 0.74673 0.0
C717 C 0.09434 0.15746 0.77807 0.0
C718 C 0.02614 0.12164 0.77796 0.0
H719 H 0.97361 0.07011 0.76589 0.0
C720 C 0.01679 0.1368 0.78288 0.0
C721 C 0.01052 0.09778 0.77027 0.0
C722 C 0.01982 0.08119 0.76329 0.0
C723 C 0.9919 0.12801 0.78242 0.0
C724 C 0.9761 0.10343 0.77721 0.0
C725 C 0.98566 0.08892 0.77012 0.0
C726 C 0.95002 0.09147 0.78262 0.0
C727 C 0.98273 0.14491 0.78843 0.0
C728 C 0.94255 0.09172 0.80654 0.0
C729 C 0.91864 0.07679 0.81329 0.0
C730 C 0.9017 0.06119 0.79629 0.0
C731 C 0.9088 0.06194 0.77198 0.0
C732 C 0.93285 0.07686 0.76523 0.0
H733 H 0.99585 0.16358 0.78278 0.0
H734 H 0.96522 0.13931 0.77948 0.0
H735 H 0.98032 0.14504 0.8084 0.0
H736 H 0.9555 0.10235 0.82042 0.0
H737 H 0.91371 0.07658 0.83216 0.0
H738 H 0.94497 0.85527 0.84061 0.0
H739 H 0.9157 0.86725 0.82991 0.0
H740 H 0.92886 0.86263 0.75374 0.0
H741 H 0.95846 0.85048 0.76445 0.0
H742 H 0.93401 0.90689 0.76798 0.0
H743 H 0.84778 0.83267 0.80172 0.0
H744 H 0.8711 0.84149 0.82399 0.0
H745 H 0.8734 0.82901 0.79546 0.0
C746 C 0.94131 0.85631 0.82156 0.0
C747 C 0.95401 0.852 0.80335 0.0
C748 C 0.9244 0.86296 0.81546 0.0
C749 C 0.91982 0.86547 0.79103 0.0
C750 C 0.93195 0.8605 0.7727 0.0
H751 H 0.85029 0.95272 0.76363 0.0
H752 H 0.86422 0.92443 0.75343 0.0
C753 C 0.94879 0.85356 0.77883 0.0
C754 C 0.90467 0.87619 0.78531 0.0
H755 H 0.85177 0.87251 0.80194 0.0
C756 C 0.91573 0.8991 0.77464 0.0
C757 C 0.88081 0.86593 0.79395 0.0
C758 C 0.86751 0.8408 0.80419 0.0
C759 C 0.90441 0.91297 0.77457 0.0
C760 C 0.88137 0.90347 0.78518 0.0
C761 C 0.86952 0.8798 0.79398 0.0
C762 C 0.87103 0.91898 0.79074 0.0
C763 C 0.91792 0.93837 0.76498 0.0
C764 C 0.86976 0.92478 0.81507 0.0
C765 C 0.86191 0.94083 0.82091 0.0
C766 C 0.85501 0.95132 0.80252 0.0
C767 C 0.85557 0.94495 0.77816 0.0
C768 C 0.86356 0.92888 0.7723 0.0
H769 H 0.93659 0.94377 0.75948 0.0
H770 H 0.90837 0.93996 0.74891 0.0
H771 H 0.91861 0.95115 0.77899 0.0
H772 H 0.87548 0.91733 0.82955 0.0
H773 H 0.86158 0.94529 0.83984 0.0
H774 H 0.7795 0.49133 0.57275 0.0
H775 H 0.73669 0.47512 0.58151 0.0
H776 H 0.72558 0.49145 0.50826 0.0
H777 H 0.76822 0.50802 0.49955 0.0
H778 H 0.69594 0.49672 0.54301 0.0
H779 H 0.69335 0.40892 0.55043 0.0
H780 H 0.71277 0.43204 0.57131 0.0
H781 H 0.71944 0.43565 0.53935 0.0
C782 C 0.76806 0.49214 0.55877 0.0
C783 C 0.7771 0.50056 0.53534 0.0
C784 C 0.7436 0.48277 0.56376 0.0
C785 C 0.72791 0.48159 0.54535 0.0
C786 C 0.73736 0.49208 0.52269 0.0
H787 H 0.59053 0.38138 0.49624 0.0
H788 H 0.63265 0.40948 0.50553 0.0
C789 C 0.76175 0.50149 0.51772 0.0
C790 C 0.7015 0.46664 0.54815 0.0
H791 H 0.65655 0.40799 0.54996 0.0
C792 C 0.68725 0.47736 0.54503 0.0
C793 C 0.69029 0.44134 0.55045 0.0
C794 C 0.70465 0.42868 0.55291 0.0
C795 C 0.66209 0.46334 0.54324 0.0
C796 C 0.65105 0.43805 0.54474 0.0
C797 C 0.66519 0.42743 0.54893 0.0
C798 C 0.62529 0.42204 0.53916 0.0
C799 C 0.64757 0.47545 0.53841 0.0
C800 C 0.60721 0.41987 0.55504 0.0
C801 C 0.583 0.40372 0.54978 0.0
C802 C 0.57664 0.38956 0.5286 0.0
C803 C 0.59484 0.39203 0.51269 0.0
C804 C 0.61891 0.40806 0.51797 0.0
H805 H 0.65912 0.49509 0.53534 0.0
H806 H 0.63592 0.46732 0.52223 0.0
H807 H 0.63567 0.47266 0.55418 0.0
H808 H 0.61183 0.43034 0.57162 0.0
H809 H 0.56933 0.40215 0.56239 0.0
H810 H 0.52406 0.29929 0.57831 0.0
H811 H 0.54173 0.27436 0.58896 0.0
H812 H 0.51535 0.23526 0.52171 0.0
H813 H 0.49728 0.25959 0.51127 0.0
H814 H 0.51559 0.20646 0.5598 0.0
H815 H 0.60309 0.29188 0.55091 0.0
H816 H 0.58288 0.2911 0.57394 0.0
H817 H 0.57499 0.28974 0.54241 0.0
C818 C 0.52138 0.28486 0.56619 0.0
C819 C 0.50966 0.28165 0.54376 0.0
C820 C 0.53161 0.27074 0.57222 0.0
C821 C 0.53036 0.25339 0.55582 0.0
C822 C 0.51666 0.24865 0.53457 0.0
H823 H 0.62304 0.21076 0.49926 0.0
H824 H 0.59691 0.2263 0.51149 0.0
C825 C 0.50638 0.26263 0.52859 0.0
C826 C 0.54581 0.24248 0.55866 0.0
H827 H 0.6043 0.25627 0.55325 0.0
C828 C 0.53502 0.21731 0.55892 0.0
C829 C 0.57118 0.25674 0.5572 0.0
C830 C 0.58383 0.28385 0.55593 0.0
C831 C 0.54885 0.20602 0.55659 0.0
C832 C 0.57407 0.22032 0.55414 0.0
C833 C 0.58494 0.24542 0.55521 0.0
C834 C 0.58923 0.20994 0.54716 0.0
C835 C 0.53637 0.17896 0.55522 0.0
C836 C 0.59354 0.19553 0.56321 0.0
C837 C 0.60855 0.18656 0.55623 0.0
C838 C 0.61945 0.19195 0.53314 0.0
C839 C 0.61493 0.20628 0.51716 0.0
C840 C 0.60002 0.2152 0.52413 0.0
H841 H 0.51648 0.17058 0.55488 0.0
H842 H 0.5422 0.17333 0.53868 0.0
H843 H 0.54144 0.17197 0.57124 0.0
H844 H 0.58557 0.1915 0.58117 0.0
H845 H 0.61178 0.1756 0.56894 0.0
H846 H 0.84779 0.43084 0.50153 0.0
H847 H 0.83297 0.38789 0.50705 0.0
H848 H 0.79074 0.38677 0.5685 0.0
H849 H 0.80571 0.42987 0.56329 0.0
H850 H 0.81352 0.35639 0.57274 0.0
H851 H 0.76104 0.34264 0.48793 0.0
H852 H 0.79278 0.36323 0.48541 0.0
H853 H 0.77472 0.37061 0.50453 0.0
C854 C 0.83572 0.42157 0.51652 0.0
C855 C 0.82766 0.43362 0.53179 0.0
C856 C 0.82728 0.39706 0.51964 0.0
C857 C 0.81054 0.38417 0.53797 0.0
C858 C 0.80366 0.39644 0.55424 0.0
H859 H 0.7126 0.23373 0.567 0.0
H860 H 0.74116 0.27665 0.5726 0.0
C861 C 0.81217 0.42103 0.55119 0.0
C862 C 0.7982 0.35761 0.53833 0.0
H863 H 0.75904 0.30838 0.50557 0.0
C864 C 0.80164 0.3458 0.55808 0.0
C865 C 0.78257 0.34395 0.51925 0.0
C866 C 0.77732 0.35566 0.49815 0.0
C867 C 0.79013 0.32054 0.55895 0.0
C868 C 0.77462 0.30693 0.53975 0.0
C869 C 0.77117 0.31885 0.52014 0.0
C870 C 0.761 0.28029 0.53953 0.0
C871 C 0.7949 0.30866 0.58016 0.0
C872 C 0.76301 0.26796 0.51942 0.0
C873 C 0.74656 0.2436 0.51604 0.0
C874 C 0.72784 0.23109 0.53277 0.0
C875 C 0.72697 0.24292 0.55391 0.0
C876 C 0.74335 0.26743 0.55718 0.0
H877 H 0.81185 0.32129 0.58968 0.0
H878 H 0.77993 0.30254 0.5934 0.0
H879 H 0.79597 0.29272 0.57414 0.0
H880 H 0.77648 0.27754 0.50557 0.0
H881 H 0.7477 0.23491 0.49962 0.0
H882 H 0.71573 0.23718 0.0929 0.0
H883 H 0.74433 0.27903 0.08199 0.0
H884 H 0.77377 0.29181 0.1545 0.0
H885 H 0.74571 0.25019 0.16532 0.0
H886 H 0.74495 0.3171 0.10315 0.0
H887 H 0.83439 0.32624 0.11469 0.0
H888 H 0.80733 0.29731 0.11199 0.0
H889 H 0.81605 0.31246 0.14093 0.0
C890 C 0.72869 0.24881 0.10631 0.0
C891 C 0.72846 0.24045 0.12997 0.0
C892 C 0.74501 0.27268 0.10005 0.0
C893 C 0.76148 0.28847 0.11729 0.0
C894 C 0.76174 0.27985 0.14067 0.0
H895 H 0.83102 0.42794 0.1669 0.0
H896 H 0.81759 0.3864 0.15559 0.0
C897 C 0.74549 0.25607 0.14691 0.0
C898 C 0.77621 0.31459 0.11222 0.0
H899 H 0.83238 0.36285 0.12074 0.0
C900 C 0.7642 0.3271 0.10628 0.0
C901 C 0.80133 0.32759 0.11624 0.0
C902 C 0.81553 0.31513 0.12106 0.0
C903 C 0.77621 0.35231 0.10632 0.0
C904 C 0.80099 0.36531 0.11211 0.0
C905 C 0.81337 0.35283 0.11638 0.0
C906 C 0.81324 0.39139 0.11742 0.0
C907 C 0.76192 0.36479 0.10198 0.0
C908 C 0.81621 0.40822 0.09949 0.0
C909 C 0.82392 0.4321 0.10593 0.0
C910 C 0.8287 0.43936 0.13038 0.0
C911 C 0.82732 0.42284 0.14794 0.0
C912 C 0.81971 0.3991 0.14149 0.0
H913 H 0.74228 0.35193 0.10091 0.0
H914 H 0.76523 0.37788 0.11675 0.0
H915 H 0.76768 0.37487 0.0846 0.0
H916 H 0.81159 0.40266 0.08075 0.0
H917 H 0.82488 0.44448 0.09202 0.0
H918 H 0.76786 0.48062 0.09217 0.0
H919 H 0.72618 0.46752 0.08079 0.0
H920 H 0.71394 0.48804 0.15173 0.0
H921 H 0.75546 0.50156 0.16294 0.0
H922 H 0.68814 0.43153 0.10245 0.0
H923 H 0.67956 0.51244 0.10988 0.0
H924 H 0.70843 0.51409 0.1081 0.0
H925 H 0.69308 0.50883 0.13684 0.0
C926 C 0.7564 0.48285 0.1051 0.0
C927 C 0.76488 0.49206 0.12846 0.0
C928 C 0.73262 0.47538 0.09857 0.0
C929 C 0.71701 0.47715 0.11525 0.0
C930 C 0.72577 0.48712 0.13828 0.0
H931 H 0.57891 0.40808 0.16652 0.0
H932 H 0.62031 0.43567 0.15431 0.0
C933 C 0.74949 0.49464 0.14477 0.0
C934 C 0.69088 0.4657 0.11013 0.0
H935 H 0.64282 0.47409 0.11754 0.0
C936 C 0.67825 0.44097 0.10499 0.0
C937 C 0.67799 0.47804 0.11332 0.0
C938 C 0.69055 0.50488 0.11707 0.0
C939 C 0.65304 0.42788 0.10513 0.0
C940 C 0.64018 0.43992 0.11029 0.0
C941 C 0.65276 0.46492 0.11367 0.0
C942 C 0.61424 0.4263 0.11618 0.0
C943 C 0.64036 0.40097 0.10162 0.0
C944 C 0.59693 0.41253 0.09859 0.0
C945 C 0.5731 0.39672 0.10554 0.0
C946 C 0.56646 0.39444 0.13017 0.0
C947 C 0.58356 0.40935 0.14743 0.0
C948 C 0.60719 0.42519 0.14048 0.0
H949 H 0.65314 0.39413 0.10011 0.0
H950 H 0.62797 0.39174 0.11705 0.0
H951 H 0.62944 0.39608 0.08476 0.0
H952 H 0.60204 0.4133 0.0797 0.0
H953 H 0.56026 0.38542 0.09188 0.0
H954 H 0.52281 0.27458 0.17027 0.0
H955 H 0.53643 0.24664 0.15897 0.0
H956 H 0.53117 0.26019 0.08308 0.0
H957 H 0.51755 0.28851 0.09431 0.0
H958 H 0.51424 0.20425 0.12806 0.0
H959 H 0.60231 0.27721 0.09313 0.0
H960 H 0.58328 0.28365 0.11208 0.0
H961 H 0.57516 0.27478 0.08103 0.0
C962 C 0.52439 0.27154 0.15115 0.0
C963 C 0.5193 0.28386 0.13317 0.0
C964 C 0.53208 0.25549 0.14473 0.0
C965 C 0.53497 0.25151 0.12022 0.0
C966 C 0.52925 0.26322 0.10211 0.0
H967 H 0.6222 0.18314 0.09302 0.0
H968 H 0.59356 0.19645 0.0821 0.0
C969 C 0.52144 0.27931 0.10855 0.0
C970 C 0.5452 0.236 0.11421 0.0
H971 H 0.59832 0.23936 0.09913 0.0
C972 C 0.53243 0.21175 0.12119 0.0
C973 C 0.56884 0.24578 0.10502 0.0
C974 C 0.58337 0.27179 0.09743 0.0
C975 C 0.54325 0.19744 0.12076 0.0
C976 C 0.56757 0.20782 0.11358 0.0
C977 C 0.57968 0.23147 0.10469 0.0
C978 C 0.58192 0.19616 0.11909 0.0
C979 C 0.52888 0.17164 0.12899 0.0
C980 C 0.58467 0.19142 0.1434 0.0
C981 C 0.60102 0.18407 0.14964 0.0
C982 C 0.61499 0.18131 0.13169 0.0
C983 C 0.61152 0.18499 0.10718 0.0
C984 C 0.59523 0.19261 0.10094 0.0
H985 H 0.50942 0.16412 0.12521 0.0
H986 H 0.53505 0.16024 0.11992 0.0
H987 H 0.53101 0.17079 0.14893 0.0
H988 H 0.57505 0.19459 0.15777 0.0
H989 H 0.60333 0.18139 0.16867 0.0
H990 H 0.25274 0.74985 0.83601 0.0
H991 H 0.29437 0.77787 0.84728 0.0
H992 H 0.28027 0.74937 0.9202 0.0
H993 H 0.23853 0.72085 0.90889 0.0
H994 H 0.31672 0.81348 0.88364 0.0
H995 H 0.33362 0.73708 0.8963 0.0
H996 H 0.30664 0.73324 0.88204 0.0
H997 H 0.31017 0.73671 0.91443 0.0
C998 C 0.25839 0.74972 0.85454 0.0
C999 C 0.24248 0.73296 0.87149 0.0
C1000 C 0.28217 0.7658 0.86097 0.0
C1001 C 0.29049 0.76544 0.88446 0.0
C1002 C 0.2743 0.74965 0.90186 0.0
H1003 H 0.44531 0.82827 0.90915 0.0
H1004 H 0.40346 0.81416 0.92089 0.0
C1005 C 0.25046 0.73346 0.8954 0.0
C1006 C 0.31652 0.78026 0.88975 0.0
H1007 H 0.36685 0.77583 0.89754 0.0
C1008 C 0.32768 0.80532 0.88713 0.0
C1009 C 0.33075 0.76957 0.89445 0.0
C1010 C 0.31982 0.74268 0.89684 0.0
C1011 C 0.35281 0.81985 0.88788 0.0
C1012 C 0.36708 0.80897 0.89097 0.0
C1013 C 0.35586 0.78414 0.89523 0.0
C1014 C 0.39329 0.82205 0.88608 0.0
C1015 C 0.36385 0.84663 0.88461 0.0
C1016 C 0.40154 0.83162 0.86283 0.0
C1017 C 0.42527 0.83954 0.8561 0.0
C1018 C 0.44122 0.83797 0.87245 0.0
C1019 C 0.43342 0.8298 0.89623 0.0
C1020 C 0.40954 0.82171 0.90294 0.0
H1021 H 0.35165 0.85291 0.89144 0.0
H1022 H 0.38136 0.85664 0.8942 0.0
H1023 H 0.36689 0.85101 0.86496 0.0
H1024 H 0.38925 0.83154 0.84932 0.0
H1025 H 0.43077 0.84573 0.83764 0.0
H1026 H 0.28956 0.52594 0.90434 0.0
H1027 H 0.26151 0.53961 0.9161 0.0
H1028 H 0.22912 0.5209 0.84491 0.0
H1029 H 0.25674 0.50703 0.8332 0.0
H1030 H 0.26057 0.57675 0.89357 0.0
H1031 H 0.17027 0.49634 0.88789 0.0
H1032 H 0.19734 0.49442 0.88986 0.0
H1033 H 0.1875 0.4997 0.86103 0.0
C1034 C 0.27607 0.52425 0.89142 0.0
C1035 C 0.27537 0.5155 0.86782 0.0
C1036 C 0.26006 0.53203 0.89817 0.0
C1037 C 0.24296 0.53093 0.88152 0.0
C1038 C 0.24171 0.52135 0.85828 0.0
H1039 H 0.16978 0.59921 0.83573 0.0
H1040 H 0.18338 0.57104 0.84616 0.0
C1041 C 0.25769 0.51364 0.85153 0.0
C1042 C 0.22868 0.54271 0.88693 0.0
H1043 H 0.17221 0.53479 0.88171 0.0
C1044 C 0.24117 0.56749 0.89167 0.0
C1045 C 0.20338 0.53056 0.88443 0.0
C1046 C 0.18884 0.50373 0.88077 0.0
C1047 C 0.22931 0.58082 0.89201 0.0
C1048 C 0.20418 0.56891 0.88796 0.0
C1049 C 0.19146 0.54387 0.88477 0.0
C1050 C 0.19164 0.58262 0.8836 0.0
C1051 C 0.24405 0.60779 0.89489 0.0
C1052 C 0.19069 0.59769 0.90154 0.0
C1053 C 0.183 0.61395 0.89558 0.0
C1054 C 0.17606 0.61524 0.87164 0.0
C1055 C 0.17517 0.59875 0.8543 0.0
C1056 C 0.18289 0.58258 0.86024 0.0
H1057 H 0.26368 0.61449 0.89398 0.0
H1058 H 0.23939 0.61692 0.88056 0.0
H1059 H 0.2401 0.61298 0.9128 0.0
H1060 H 0.197 0.59768 0.91979 0.0
H1061 H 0.18375 0.62636 0.90935 0.0
H1062 H 0.47281 0.75785 0.82609 0.0
H1063 H 0.45921 0.71585 0.83547 0.0
H1064 H 0.47819 0.73423 0.91076 0.0
H1065 H 0.49194 0.77663 0.90148 0.0
H1066 H 0.48671 0.69556 0.85919 0.0
H1067 H 0.40492 0.6802 0.90982 0.0
H1068 H 0.42041 0.70525 0.88923 0.0
H1069 H 0.43372 0.70541 0.91791 0.0
C1070 C 0.47418 0.75303 0.84465 0.0
C1071 C 0.48333 0.7705 0.86308 0.0
C1072 C 0.46648 0.72904 0.84996 0.0
C1073 C 0.4676 0.72198 0.8738 0.0
C1074 C 0.47705 0.73936 0.89227 0.0
H1075 H 0.38539 0.56555 0.90039 0.0
H1076 H 0.41442 0.60774 0.91035 0.0
C1077 C 0.48491 0.76352 0.88694 0.0
C1078 C 0.45806 0.69617 0.87891 0.0
H1079 H 0.40727 0.64625 0.89864 0.0
C1080 C 0.46961 0.68479 0.86833 0.0
C1081 C 0.4359 0.68224 0.89105 0.0
C1082 C 0.42283 0.69373 0.90266 0.0
C1083 C 0.45879 0.65966 0.86816 0.0
C1084 C 0.43565 0.64563 0.87841 0.0
C1085 C 0.425 0.65706 0.89074 0.0
C1086 C 0.4206 0.61967 0.8729 0.0
C1087 C 0.47177 0.64832 0.85606 0.0
C1088 C 0.41456 0.61248 0.84864 0.0
C1089 C 0.39801 0.58868 0.84298 0.0
C1090 C 0.38708 0.5715 0.86148 0.0
C1091 C 0.39368 0.57843 0.88579 0.0
C1092 C 0.41019 0.60246 0.89148 0.0
H1093 H 0.49157 0.66027 0.85722 0.0
H1094 H 0.46685 0.63071 0.86441 0.0
H1095 H 0.46684 0.64541 0.83652 0.0
H1096 H 0.42191 0.62553 0.83404 0.0
H1097 H 0.39327 0.58388 0.82409 0.0
H1098 H 0.5118 0.77934 0.44842 0.0
H1099 H 0.50147 0.73736 0.44139 0.0
H1100 H 0.43355 0.71275 0.47765 0.0
H1101 H 0.44382 0.75411 0.48506 0.0
H1102 H 0.45999 0.6925 0.49549 0.0
H1103 H 0.45164 0.68572 0.39462 0.0
H1104 H 0.47889 0.70988 0.40731 0.0
H1105 H 0.45105 0.70961 0.41134 0.0
C1106 C 0.49459 0.7649 0.45462 0.0
C1107 C 0.47868 0.76996 0.46741 0.0
C1108 C 0.48868 0.74099 0.45053 0.0
C1109 C 0.46671 0.72197 0.45895 0.0
C1110 C 0.45063 0.72714 0.47108 0.0
H1111 H 0.36871 0.57627 0.43843 0.0
H1112 H 0.3963 0.61938 0.43394 0.0
C1113 C 0.45655 0.75082 0.4753 0.0
C1114 C 0.46042 0.69651 0.45666 0.0
H1115 H 0.44087 0.65014 0.4162 0.0
C1116 C 0.45617 0.68324 0.47815 0.0
C1117 C 0.45544 0.6846 0.434 0.0
C1118 C 0.45932 0.69804 0.41042 0.0
C1119 C 0.44562 0.65816 0.47776 0.0
C1120 C 0.4399 0.64604 0.45511 0.0
C1121 C 0.4454 0.65948 0.43351 0.0
C1122 C 0.42543 0.61943 0.45376 0.0
C1123 C 0.43913 0.64486 0.50171 0.0
C1124 C 0.43303 0.6049 0.46537 0.0
C1125 C 0.41708 0.58029 0.4684 0.0
C1126 C 0.39352 0.56977 0.45931 0.0
C1127 C 0.38674 0.58391 0.44571 0.0
C1128 C 0.40252 0.60856 0.44308 0.0
H1129 H 0.44011 0.65652 0.51711 0.0
H1130 H 0.42067 0.62907 0.50111 0.0
H1131 H 0.45188 0.63837 0.50553 0.0
H1132 H 0.45087 0.61279 0.47316 0.0
H1133 H 0.42287 0.56972 0.47869 0.0
H1134 H 0.22866 0.71913 0.42517 0.0
H1135 H 0.2697 0.74875 0.41262 0.0
H1136 H 0.28634 0.77523 0.4862 0.0
H1137 H 0.24552 0.74607 0.49876 0.0
H1138 H 0.30813 0.81189 0.44976 0.0
H1139 H 0.32279 0.73437 0.43407 0.0
H1140 H 0.29908 0.73492 0.41726 0.0
H1141 H 0.29652 0.73089 0.44964 0.0
C1142 C 0.24092 0.73168 0.43851 0.0
C1143 C 0.23402 0.7301 0.46301 0.0
C1144 C 0.26436 0.74849 0.43134 0.0
C1145 C 0.28114 0.76387 0.44859 0.0
C1146 C 0.27368 0.76349 0.47262 0.0
H1147 H 0.42166 0.84229 0.4954 0.0
H1148 H 0.38023 0.82861 0.48376 0.0
C1149 C 0.25036 0.74674 0.47979 0.0
C1150 C 0.30707 0.77839 0.44276 0.0
H1151 H 0.3566 0.77265 0.43462 0.0
C1152 C 0.31874 0.80341 0.44592 0.0
C1153 C 0.32084 0.76728 0.43764 0.0
C1154 C 0.30932 0.74039 0.43457 0.0
C1155 C 0.34392 0.81747 0.44538 0.0
C1156 C 0.35773 0.8061 0.44207 0.0
C1157 C 0.346 0.78135 0.43717 0.0
C1158 C 0.38391 0.81851 0.44712 0.0
C1159 C 0.35549 0.84425 0.44908 0.0
C1160 C 0.39992 0.81749 0.4304 0.0
C1161 C 0.42369 0.82514 0.43714 0.0
C1162 C 0.43172 0.83369 0.46078 0.0
C1163 C 0.41602 0.83583 0.47703 0.0
C1164 C 0.39234 0.82822 0.47031 0.0
H1165 H 0.34379 0.85106 0.44206 0.0
H1166 H 0.35811 0.84827 0.46883 0.0
H1167 H 0.37325 0.85407 0.43992 0.0
H1168 H 0.39373 0.80985 0.4125 0.0
H1169 H 0.43538 0.82323 0.42425 0.0
H1170 H 0.2858 0.51 0.42599 0.0
H1171 H 0.25776 0.52432 0.41618 0.0
H1172 H 0.24151 0.52349 0.49235 0.0
H1173 H 0.26928 0.50924 0.50225 0.0
H1174 H 0.20039 0.50694 0.45866 0.0
H1175 H 0.27989 0.5957 0.43513 0.0
H1176 H 0.27638 0.56932 0.41992 0.0
H1177 H 0.28295 0.57321 0.45184 0.0
C1178 C 0.2758 0.51235 0.44055 0.0
C1179 C 0.27987 0.50876 0.4649 0.0
C1180 C 0.2599 0.52061 0.43493 0.0
C1181 C 0.24783 0.52521 0.45359 0.0
C1182 C 0.25068 0.52005 0.47771 0.0
H1183 H 0.17629 0.59541 0.50211 0.0
H1184 H 0.18927 0.56678 0.49176 0.0
C1185 C 0.26661 0.51199 0.48333 0.0
C1186 C 0.23423 0.53776 0.44877 0.0
H1187 H 0.24292 0.59401 0.43921 0.0
C1188 C 0.20953 0.52587 0.45391 0.0
C1189 C 0.24622 0.5624 0.44246 0.0
C1190 C 0.27284 0.57608 0.4371 0.0
C1191 C 0.19671 0.53828 0.454 0.0
C1192 C 0.2091 0.56333 0.44945 0.0
C1193 C 0.23345 0.57483 0.44277 0.0
C1194 C 0.19818 0.57852 0.45439 0.0
C1195 C 0.17016 0.52453 0.45951 0.0
C1196 C 0.19909 0.5949 0.43692 0.0
C1197 C 0.19195 0.61159 0.44293 0.0
C1198 C 0.18392 0.61222 0.46655 0.0
C1199 C 0.18228 0.59529 0.48373 0.0
C1200 C 0.18948 0.57872 0.47775 0.0
H1201 H 0.16196 0.50555 0.45339 0.0
H1202 H 0.16748 0.52435 0.47946 0.0
H1203 H 0.16056 0.53285 0.45065 0.0
H1204 H 0.20596 0.59522 0.41885 0.0
H1205 H 0.19344 0.62445 0.42933 0.0
H1206 H 0.16771 0.19939 0.09903 0.0
H1207 H 0.16909 0.20099 0.05456 0.0
H1208 H 0.18003 0.14002 0.05287 0.0
H1209 H 0.17854 0.1382 0.09737 0.0
H1210 H 0.20656 0.2057 0.02239 0.0
H1211 H 0.12024 0.12033 0.00913 0.0
H1212 H 0.12863 0.1361 0.03783 0.0
H1213 H 0.14174 0.11839 0.02849 0.0
C1214 C 0.17044 0.18635 0.08919 0.0
C1215 C 0.17287 0.16857 0.10163 0.0
C1216 C 0.17127 0.18732 0.06383 0.0
C1217 C 0.17436 0.17045 0.05051 0.0
C1218 C 0.17727 0.15297 0.06287 0.0
H1219 H 0.20669 0.17209 0.89708 0.0
H1220 H 0.20774 0.17262 0.94159 0.0
C1221 C 0.1765 0.15201 0.08825 0.0
C1222 C 0.17433 0.17106 0.02366 0.0
H1223 H 0.1429 0.13923 0.97381 0.0
C1224 C 0.19267 0.1912 0.01172 0.0
C1225 C 0.156 0.15219 0.00991 0.0
C1226 C 0.13539 0.13059 0.02192 0.0
C1227 C 0.19333 0.19283 0.98626 0.0
C1228 C 0.17526 0.17375 0.97252 0.0
C1229 C 0.15678 0.15375 0.98447 0.0
C1230 C 0.17509 0.17424 0.94567 0.0
C1231 C 0.21311 0.21507 0.97425 0.0
C1232 C 0.15623 0.17471 0.93333 0.0
C1233 C 0.15557 0.17442 0.90795 0.0
C1234 C 0.17366 0.1734 0.89453 0.0
C1235 C 0.19254 0.17294 0.90696 0.0
C1236 C 0.19324 0.17335 0.93234 0.0
H1237 H 0.22247 0.23014 0.98734 0.0
H1238 H 0.22656 0.21092 0.96647 0.0
H1239 H 0.20583 0.22103 0.95916 0.0
H1240 H 0.14201 0.17528 0.94337 0.0
H1241 H 0.14077 0.17472 0.89885 0.0
H1242 H 0.85196 0.04129 0.9009 0.0
H1243 H 0.85004 0.04072 0.94533 0.0
H1244 H 0.80639 0.96339 0.94418 0.0
H1245 H 0.80862 0.96377 0.89974 0.0
H1246 H 0.81068 0.02316 0.97632 0.0
H1247 H 0.86133 0.97484 0.98961 0.0
H1248 H 0.8604 0.98779 0.96081 0.0
H1249 H 0.83542 0.95953 0.97035 0.0
C1250 C 0.84196 0.02416 0.91011 0.0
C1251 C 0.83059 0.00255 0.89689 0.0
C1252 C 0.84085 0.02387 0.93547 0.0
C1253 C 0.82841 0.00199 0.94802 0.0
C1254 C 0.81653 0.98042 0.93484 0.0
H1255 H 0.80778 0.96765 0.10217 0.0
H1256 H 0.80483 0.96626 0.05775 0.0
C1257 C 0.81771 0.98069 0.90947 0.0
C1258 C 0.82797 0.00184 0.97492 0.0
H1259 H 0.84465 0.98205 0.02478 0.0
C1260 C 0.81812 0.0142 0.98694 0.0
C1261 C 0.83772 0.99013 0.98868 0.0
C1262 C 0.84952 0.9775 0.97676 0.0
C1263 C 0.8176 0.01502 0.01241 0.0
C1264 C 0.82743 0.00341 0.02611 0.0
C1265 C 0.83707 0.99086 0.01413 0.0
C1266 C 0.82843 0.00451 0.05295 0.0
C1267 C 0.80632 0.02807 0.02448 0.0
C1268 C 0.84278 0.02647 0.06484 0.0
C1269 C 0.84458 0.02732 0.09017 0.0
C1270 C 0.83206 0.00618 0.10397 0.0
C1271 C 0.81758 0.98423 0.092 0.0
C1272 C 0.81588 0.98339 0.06666 0.0
H1273 H 0.79466 0.03108 0.01174 0.0
H1274 H 0.79544 0.01787 0.04047 0.0
H1275 H 0.82072 0.04587 0.03095 0.0
H1276 H 0.85291 0.0429 0.0545 0.0
H1277 H 0.85593 0.04447 0.09892 0.0
H1278 H 0.97432 0.81471 0.9023 0.0
H1279 H 0.97376 0.81408 0.9468 0.0
H1280 H 0.04983 0.86506 0.94805 0.0
H1281 H 0.05051 0.86603 0.90355 0.0
H1282 H 0.00037 0.80218 0.97935 0.0
H1283 H 0.02088 0.89647 0.9913 0.0
H1284 H 0.0112 0.88082 0.96262 0.0
H1285 H 0.04178 0.89297 0.97249 0.0
C1286 C 0.99093 0.82578 0.91206 0.0
C1287 C 0.01244 0.84054 0.89948 0.0
C1288 C 0.99058 0.82538 0.93745 0.0
C1289 C 0.01167 0.8398 0.95066 0.0
C1290 C 0.03327 0.85417 0.93815 0.0
H1291 H 0.04569 0.86573 0.10391 0.0
H1292 H 0.04646 0.8652 0.05945 0.0
C1293 C 0.03365 0.8546 0.91276 0.0
C1294 C 0.01107 0.83969 0.97754 0.0
H1295 H 0.02026 0.87547 0.0269 0.0
C1296 C 0.00463 0.81816 0.9898 0.0
C1297 C 0.01667 0.8606 0.99102 0.0
C1298 C 0.02283 0.884 0.97874 0.0
C1299 C 0.00406 0.81706 0.01528 0.0
C1300 C 0.00961 0.83796 0.02878 0.0
C1301 C 0.01603 0.85949 0.01649 0.0
C1302 C 0.009 0.83797 0.05568 0.0
C1303 C 0.99806 0.79368 0.02751 0.0
C1304 C 0.98759 0.82305 0.06827 0.0
C1305 C 0.98712 0.82323 0.09366 0.0
C1306 C 0.00801 0.83855 0.10686 0.0
C1307 C 0.02932 0.85373 0.09421 0.0
C1308 C 0.0298 0.85345 0.06884 0.0
H1309 H 0.00065 0.78154 0.01506 0.0
H1310 H 0.0093 0.79689 0.04395 0.0
H1311 H 0.97892 0.78429 0.0332 0.0
H1312 H 0.9712 0.81138 0.05844 0.0
H1313 H 0.9704 0.81146 0.10294 0.0
H1314 H 0.79313 0.47249 0.23256 0.0
H1315 H 0.79339 0.47174 0.27712 0.0
H1316 H 0.86802 0.52725 0.27728 0.0
H1317 H 0.86792 0.52818 0.23281 0.0
H1318 H 0.82487 0.46306 0.30803 0.0
H1319 H 0.83424 0.55293 0.32288 0.0
H1320 H 0.82431 0.53704 0.29433 0.0
H1321 H 0.85564 0.55239 0.30221 0.0
C1322 C 0.80957 0.48457 0.24211 0.0
C1323 C 0.83049 0.50045 0.22925 0.0
C1324 C 0.80969 0.4841 0.26751 0.0
C1325 C 0.83064 0.49964 0.2804 0.0
C1326 C 0.85158 0.51538 0.26762 0.0
H1327 H 0.87187 0.52879 0.43133 0.0
H1328 H 0.86982 0.52779 0.38691 0.0
C1329 C 0.85151 0.51581 0.24224 0.0
C1330 C 0.83078 0.49912 0.30726 0.0
H1331 H 0.83823 0.53329 0.35751 0.0
C1332 C 0.82764 0.47832 0.31892 0.0
C1333 C 0.83447 0.51912 0.32128 0.0
C1334 C 0.83717 0.5416 0.30962 0.0
C1335 C 0.82868 0.4772 0.34434 0.0
C1336 C 0.83245 0.49725 0.35838 0.0
C1337 C 0.83539 0.51797 0.34668 0.0
C1338 C 0.83369 0.49728 0.38526 0.0
C1339 C 0.82645 0.45486 0.35586 0.0
C1340 C 0.81399 0.48055 0.39904 0.0
C1341 C 0.81517 0.481 0.42441 0.0
C1342 C 0.83598 0.49836 0.43641 0.0
C1343 C 0.85561 0.51518 0.42258 0.0
C1344 C 0.85446 0.51465 0.39722 0.0
H1345 H 0.83005 0.444 0.34259 0.0
H1346 H 0.83906 0.45949 0.37138 0.0
H1347 H 0.80787 0.44352 0.36281 0.0
H1348 H 0.7976 0.46734 0.39017 0.0
H1349 H 0.7997 0.46793 0.43463 0.0
H1350 H 0.51024 0.37537 0.23233 0.0
H1351 H 0.51066 0.37658 0.27686 0.0
H1352 H 0.48624 0.30068 0.27912 0.0
H1353 H 0.48601 0.29935 0.23466 0.0
H1354 H 0.47287 0.35011 0.3105 0.0
H1355 H 0.54777 0.33109 0.32077 0.0
H1356 H 0.54095 0.34025 0.29224 0.0
H1357 H 0.52324 0.30967 0.30242 0.0
C1358 C 0.50492 0.35894 0.24233 0.0
C1359 C 0.49825 0.3373 0.23006 0.0
C1360 C 0.50516 0.35966 0.26772 0.0
C1361 C 0.49886 0.33881 0.2812 0.0
C1362 C 0.49161 0.31706 0.269 0.0
H1363 H 0.49056 0.30216 0.43296 0.0
H1364 H 0.48893 0.3027 0.38856 0.0
C1365 C 0.49137 0.31631 0.24363 0.0
C1366 C 0.49993 0.33977 0.30805 0.0
H1367 H 0.52719 0.33057 0.35678 0.0
C1368 C 0.48482 0.34598 0.32067 0.0
C1369 C 0.5156 0.33442 0.32117 0.0
C1370 C 0.53298 0.32869 0.3085 0.0
C1371 C 0.48452 0.34636 0.34618 0.0
C1372 C 0.50002 0.34075 0.35928 0.0
C1373 C 0.51528 0.33478 0.34664 0.0
C1374 C 0.50047 0.34057 0.38615 0.0
C1375 C 0.4672 0.35212 0.3589 0.0
C1376 C 0.50768 0.36175 0.39944 0.0
C1377 C 0.50862 0.3615 0.42483 0.0
C1378 C 0.50249 0.34007 0.43726 0.0
C1379 C 0.49536 0.31893 0.42387 0.0
C1380 C 0.49442 0.3192 0.39853 0.0
H1381 H 0.4528 0.35045 0.3465 0.0
H1382 H 0.45875 0.34006 0.37474 0.0
H1383 H 0.47714 0.3709 0.36568 0.0
H1384 H 0.51285 0.37852 0.39018 0.0
H1385 H 0.51427 0.37808 0.43468 0.0
H1386 H 0.62444 0.15286 0.43345 0.0
H1387 H 0.62266 0.15061 0.38895 0.0
H1388 H 0.69605 0.16575 0.38673 0.0
H1389 H 0.69793 0.16784 0.43111 0.0
H1390 H 0.65217 0.18753 0.35673 0.0
H1391 H 0.6604 0.10647 0.34255 0.0
H1392 H 0.65244 0.11376 0.37154 0.0
H1393 H 0.6833 0.12868 0.36185 0.0
C1394 C 0.64011 0.15548 0.42347 0.0
C1395 C 0.66131 0.16048 0.43572 0.0
C1396 C 0.63907 0.1542 0.3981 0.0
C1397 C 0.65911 0.15769 0.38462 0.0
C1398 C 0.68024 0.16253 0.39683 0.0
H1399 H 0.69758 0.20252 0.23612 0.0
H1400 H 0.69373 0.19887 0.28037 0.0
C1401 C 0.68132 0.16387 0.42217 0.0
C1402 C 0.65846 0.15762 0.35775 0.0
H1403 H 0.66612 0.13084 0.30763 0.0
C1404 C 0.65501 0.17502 0.34596 0.0
C1405 C 0.6619 0.14109 0.34381 0.0
C1406 C 0.66449 0.12128 0.35554 0.0
C1407 C 0.65565 0.17681 0.32054 0.0
C1408 C 0.66022 0.16101 0.30663 0.0
C1409 C 0.66289 0.1431 0.31839 0.0
C1410 C 0.66267 0.16304 0.27988 0.0
C1411 C 0.65136 0.19557 0.3088 0.0
C1412 C 0.64689 0.14383 0.265 0.0
C1413 C 0.64915 0.1458 0.23972 0.0
C1414 C 0.66732 0.16698 0.22895 0.0
C1415 C 0.68331 0.18604 0.24391 0.0
C1416 C 0.68106 0.18404 0.26917 0.0
H1417 H 0.64174 0.20156 0.32121 0.0
H1418 H 0.66892 0.21151 0.30413 0.0
H1419 H 0.64076 0.18861 0.2918 0.0
H1420 H 0.63268 0.12741 0.27296 0.0
H1421 H 0.63662 0.13079 0.22863 0.0
H1422 H 0.51679 0.82027 0.56531 0.0
H1423 H 0.51989 0.82196 0.60966 0.0
H1424 H 0.48702 0.86629 0.61196 0.0
H1425 H 0.48408 0.86491 0.56751 0.0
H1426 H 0.5287 0.88292 0.64145 0.0
H1427 H 0.46327 0.78621 0.65705 0.0
H1428 H 0.48708 0.79197 0.63618 0.0
H1429 H 0.46552 0.80093 0.62842 0.0
C1430 C 0.51017 0.83034 0.57526 0.0
C1431 C 0.50006 0.84235 0.56299 0.0
C1432 C 0.51187 0.8312 0.60058 0.0
C1433 C 0.50336 0.84395 0.61404 0.0
C1434 C 0.49357 0.85625 0.60184 0.0
H1435 H 0.49336 0.86975 0.76697 0.0
H1436 H 0.49372 0.87045 0.72251 0.0
C1437 C 0.49187 0.85541 0.5765 0.0
C1438 C 0.50483 0.8446 0.64088 0.0
H1439 H 0.48495 0.80904 0.69134 0.0
C1440 C 0.5191 0.86681 0.6524 0.0
C1441 C 0.4923 0.82351 0.65503 0.0
C1442 C 0.476 0.79931 0.64361 0.0
C1443 C 0.52144 0.86844 0.6778 0.0
C1444 C 0.50884 0.84735 0.69195 0.0
C1445 C 0.49464 0.82515 0.6804 0.0
C1446 C 0.50972 0.8479 0.71882 0.0
C1447 C 0.53768 0.89263 0.68924 0.0
C1448 C 0.51826 0.8347 0.73143 0.0
C1449 C 0.51795 0.83415 0.75682 0.0
C1450 C 0.50892 0.84668 0.76998 0.0
C1451 C 0.50052 0.86002 0.7573 0.0
C1452 C 0.50085 0.86056 0.73192 0.0
H1453 H 0.55076 0.90557 0.67592 0.0
H1454 H 0.52661 0.90019 0.69614 0.0
H1455 H 0.54776 0.89097 0.70481 0.0
H1456 H 0.52505 0.82471 0.7216 0.0
H1457 H 0.52449 0.82368 0.76611 0.0
H1458 H 0.20873 0.6666 0.56711 0.0
H1459 H 0.21018 0.66736 0.61166 0.0
H1460 H 0.14837 0.67692 0.61379 0.0
H1461 H 0.14668 0.67601 0.56937 0.0
H1462 H 0.21459 0.70444 0.64363 0.0
H1463 H 0.12953 0.61845 0.65833 0.0
H1464 H 0.14486 0.62656 0.6294 0.0
H1465 H 0.12676 0.63926 0.6387 0.0
C1466 C 0.19543 0.66881 0.57709 0.0
C1467 C 0.17752 0.67113 0.5648 0.0
C1468 C 0.1963 0.66926 0.6025 0.0
C1469 C 0.17917 0.67184 0.61595 0.0
C1470 C 0.16147 0.67447 0.60371 0.0
H1471 H 0.14848 0.68075 0.7667 0.0
H1472 H 0.1498 0.67985 0.7223 0.0
C1473 C 0.16061 0.67407 0.57835 0.0
C1474 C 0.17996 0.67218 0.64282 0.0
H1475 H 0.14727 0.64296 0.69311 0.0
C1476 C 0.19999 0.69092 0.6545 0.0
C1477 C 0.16085 0.65449 0.65686 0.0
C1478 C 0.13936 0.63341 0.64524 0.0
C1479 C 0.2011 0.69286 0.67995 0.0
C1480 C 0.18184 0.67533 0.69398 0.0
C1481 C 0.16197 0.65641 0.68227 0.0
C1482 C 0.18165 0.67649 0.72084 0.0
C1483 C 0.2225 0.71402 0.69157 0.0
C1484 C 0.19906 0.67476 0.7347 0.0
C1485 C 0.19839 0.67532 0.76008 0.0
C1486 C 0.18018 0.67746 0.77198 0.0
C1487 C 0.16275 0.67914 0.75804 0.0
C1488 C 0.16346 0.67859 0.7327 0.0
H1489 H 0.23277 0.72869 0.67829 0.0
H1490 H 0.21679 0.72132 0.70685 0.0
H1491 H 0.23476 0.70808 0.69894 0.0
H1492 H 0.21298 0.67266 0.72589 0.0
H1493 H 0.21197 0.67386 0.77037 0.0
H1494 H 0.36803 0.53968 0.56364 0.0
H1495 H 0.36785 0.53913 0.60814 0.0
H1496 H 0.31228 0.46449 0.60735 0.0
H1497 H 0.3127 0.46477 0.56289 0.0
H1498 H 0.33076 0.52971 0.639 0.0
H1499 H 0.36157 0.46395 0.65329 0.0
H1500 H 0.36385 0.47806 0.62427 0.0
H1501 H 0.3357 0.45295 0.63392 0.0
C1502 C 0.3559 0.52312 0.57296 0.0
C1503 C 0.34045 0.50224 0.55983 0.0
C1504 C 0.35581 0.52284 0.59836 0.0
C1505 C 0.34032 0.50168 0.61102 0.0
C1506 C 0.32477 0.48085 0.59793 0.0
H1507 H 0.29547 0.49127 0.76135 0.0
H1508 H 0.29782 0.49135 0.71693 0.0
C1509 C 0.32492 0.48109 0.57254 0.0
C1510 C 0.3398 0.50165 0.63792 0.0
H1511 H 0.34632 0.47411 0.68804 0.0
C1512 C 0.33427 0.51764 0.64974 0.0
C1513 C 0.34469 0.48609 0.65187 0.0
C1514 C 0.35202 0.46945 0.64023 0.0
C1515 C 0.33306 0.5182 0.67517 0.0
C1516 C 0.33702 0.50199 0.68907 0.0
C1517 C 0.34301 0.48631 0.67729 0.0
C1518 C 0.33535 0.50124 0.71592 0.0
C1519 C 0.32791 0.53639 0.68692 0.0
C1520 C 0.35546 0.50604 0.73002 0.0
C1521 C 0.35411 0.5058 0.75536 0.0
C1522 C 0.33259 0.50068 0.76701 0.0
C1523 C 0.31233 0.49542 0.75285 0.0
C1524 C 0.31368 0.4956 0.7275 0.0
H1525 H 0.33168 0.55142 0.67437 0.0
H1526 H 0.30863 0.52747 0.69202 0.0
H1527 H 0.3388 0.54394 0.70366 0.0
H1528 H 0.3723 0.5103 0.72139 0.0
H1529 H 0.36999 0.50986 0.76582 0.0
loop_
_geom_bond_atom_site_label_1
_geom_bond_atom_site_label_2
_geom_bond_distance
_geom_bond_site_symmetry_2
_ccdc_geom_bond_type
In0 O1 2.294 . S
In0 O2 2.326 . S
In0 O6 2.266 . S
In0 O7 2.326 . S
In0 O8 2.266 . S
In0 O9 2.326 . S
In0 O11 2.294 . S
In0 O12 2.326 . S
O1 In0 2.294 . S
O1 C10 1.240 . S
O2 In0 2.326 . S
O2 C10 1.252 . S
C3 O6 1.252 . S
C3 O7 1.260 . S
C4 O11 1.240 . S
C4 O12 1.252 . S
C5 O8 1.252 . S
C5 O9 1.260 . S
O6 In0 2.266 . S
O6 C3 1.252 . S
O7 In0 2.326 . S
O7 C3 1.260 . S
O8 In0 2.266 . S
O8 C5 1.252 . S
O9 In0 2.326 . S
O9 C5 1.260 . S
C10 O1 1.240 . S
C10 O2 1.252 . S
O11 In0 2.294 . S
O11 C4 1.240 . S
O12 In0 2.326 . S
O12 C4 1.252 . S
In13 O14 2.294 . S
In13 O15 2.326 . S
In13 O19 2.266 1_545 S
In13 O20 2.326 1_545 S
In13 O21 2.266 . S
In13 O22 2.326 . S
In13 O24 2.294 . S
In13 O25 2.326 1_545 S
O14 In13 2.294 . S
O14 C23 1.240 . S
O15 In13 2.326 . S
O15 C23 1.252 . S
C16 O19 1.252 . S
C16 O20 1.260 . S
C17 O24 1.240 . S
C17 O25 1.252 1_545 S
C18 O21 1.252 . S
C18 O22 1.260 . S
O19 In13 2.266 1_565 S
O19 C16 1.252 . S
O20 In13 2.326 1_565 S
O20 C16 1.260 . S
O21 In13 2.266 . S
O21 C18 1.252 . S
O22 In13 2.326 . S
O22 C18 1.260 . S
C23 O14 1.240 . S
C23 O15 1.252 . S
O24 In13 2.294 . S
O24 C17 1.240 . S
O25 In13 2.326 1_565 S
O25 C17 1.252 1_565 S
In26 O27 2.294 . S
In26 O28 2.326 1_655 S
In26 O32 2.266 . S
In26 O33 2.326 . S
In26 O34 2.266 1_655 S
In26 O35 2.326 1_655 S
In26 O37 2.294 . S
In26 O38 2.326 . S
O27 In26 2.294 . S
O27 C36 1.240 1_655 S
O28 In26 2.326 1_455 S
O28 C36 1.252 . S
C29 O32 1.252 . S
C29 O33 1.260 . S
C30 O37 1.240 . S
C30 O38 1.252 . S
C31 O34 1.252 . S
C31 O35 1.260 . S
O32 In26 2.266 . S
O32 C29 1.252 . S
O33 In26 2.326 . S
O33 C29 1.260 . S
O34 In26 2.266 1_455 S
O34 C31 1.252 . S
O35 In26 2.326 1_455 S
O35 C31 1.260 . S
C36 O27 1.240 1_455 S
C36 O28 1.252 . S
O37 In26 2.294 . S
O37 C30 1.240 . S
O38 In26 2.326 . S
O38 C30 1.252 . S
In39 O40 2.294 . S
In39 O41 2.326 . S
In39 O45 2.266 . S
In39 O46 2.326 . S
In39 O47 2.266 . S
In39 O48 2.326 . S
In39 O50 2.294 . S
In39 O51 2.326 . S
O40 In39 2.294 . S
O40 C49 1.240 . S
O41 In39 2.326 . S
O41 C49 1.252 . S
C42 O45 1.252 . S
C42 O46 1.260 . S
C43 O50 1.240 . S
C43 O51 1.252 . S
C44 O47 1.252 . S
C44 O48 1.260 . S
O45 In39 2.266 . S
O45 C42 1.252 . S
O46 In39 2.326 . S
O46 C42 1.260 . S
O47 In39 2.266 . S
O47 C44 1.252 . S
O48 In39 2.326 . S
O48 C44 1.260 . S
C49 O40 1.240 . S
C49 O41 1.252 . S
O50 In39 2.294 . S
O50 C43 1.240 . S
O51 In39 2.326 . S
O51 C43 1.252 . S
In52 O53 2.294 . S
In52 O54 2.326 1_565 S
In52 O58 2.266 . S
In52 O59 2.326 . S
In52 O60 2.266 1_565 S
In52 O61 2.326 1_565 S
In52 O63 2.294 . S
In52 O64 2.326 . S
O53 In52 2.294 . S
O53 C62 1.240 1_565 S
O54 In52 2.326 1_545 S
O54 C62 1.252 . S
C55 O58 1.252 . S
C55 O59 1.260 . S
C56 O63 1.240 . S
C56 O64 1.252 . S
C57 O60 1.252 . S
C57 O61 1.260 . S
O58 In52 2.266 . S
O58 C55 1.252 . S
O59 In52 2.326 . S
O59 C55 1.260 . S
O60 In52 2.266 1_545 S
O60 C57 1.252 . S
O61 In52 2.326 1_545 S
O61 C57 1.260 . S
C62 O53 1.240 1_545 S
C62 O54 1.252 . S
O63 In52 2.294 . S
O63 C56 1.240 . S
O64 In52 2.326 . S
O64 C56 1.252 . S
In65 O66 2.294 . S
In65 O67 2.326 1_455 S
In65 O71 2.266 . S
In65 O72 2.326 . S
In65 O73 2.266 1_455 S
In65 O74 2.326 1_455 S
In65 O76 2.294 . S
In65 O77 2.326 . S
O66 In65 2.294 . S
O66 C75 1.240 . S
O67 In65 2.326 1_655 S
O67 C75 1.252 1_655 S
C68 O71 1.252 . S
C68 O72 1.260 . S
C69 O76 1.240 . S
C69 O77 1.252 . S
C70 O73 1.252 . S
C70 O74 1.260 . S
O71 In65 2.266 . S
O71 C68 1.252 . S
O72 In65 2.326 . S
O72 C68 1.260 . S
O73 In65 2.266 1_655 S
O73 C70 1.252 . S
O74 In65 2.326 1_655 S
O74 C70 1.260 . S
C75 O66 1.240 . S
C75 O67 1.252 1_455 S
O76 In65 2.294 . S
O76 C69 1.240 . S
O77 In65 2.326 . S
O77 C69 1.252 . S
In78 O79 2.294 . S
In78 O80 2.326 . S
In78 O84 2.266 . S
In78 O85 2.326 . S
In78 O86 2.266 . S
In78 O87 2.326 . S
In78 O89 2.294 . S
In78 O90 2.326 . S
O79 In78 2.294 . S
O79 C88 1.240 . S
O80 In78 2.326 . S
O80 C88 1.252 . S
C81 O84 1.252 . S
C81 O85 1.260 . S
C82 O89 1.240 . S
C82 O90 1.252 . S
C83 O86 1.252 . S
C83 O87 1.260 . S
O84 In78 2.266 . S
O84 C81 1.252 . S
O85 In78 2.326 . S
O85 C81 1.260 . S
O86 In78 2.266 . S
O86 C83 1.252 . S
O87 In78 2.326 . S
O87 C83 1.260 . S
C88 O79 1.240 . S
C88 O80 1.252 . S
O89 In78 2.294 . S
O89 C82 1.240 . S
O90 In78 2.326 . S
O90 C82 1.252 . S
In91 O92 2.294 . S
In91 O93 2.326 . S
In91 O97 2.266 . S
In91 O98 2.326 . S
In91 O99 2.266 . S
In91 O100 2.326 . S
In91 O102 2.294 . S
In91 O103 2.326 . S
O92 In91 2.294 . S
O92 C101 1.240 . S
O93 In91 2.326 . S
O93 C101 1.252 . S
C94 O97 1.252 . S
C94 O98 1.260 . S
C95 O102 1.240 . S
C95 O103 1.252 . S
C96 O99 1.252 . S
C96 O100 1.260 . S
O97 In91 2.266 . S
O97 C94 1.252 . S
O98 In91 2.326 . S
O98 C94 1.260 . S
O99 In91 2.266 . S
O99 C96 1.252 . S
O100 In91 2.326 . S
O100 C96 1.260 . S
C101 O92 1.240 . S
C101 O93 1.252 . S
O102 In91 2.294 . S
O102 C95 1.240 . S
O103 In91 2.326 . S
O103 C95 1.252 . S
In104 O105 2.294 . S
In104 O106 2.326 . S
In104 O110 2.266 . S
In104 O111 2.326 . S
In104 O112 2.266 . S
In104 O113 2.326 . S
In104 O115 2.294 . S
In104 O116 2.326 . S
O105 In104 2.294 . S
O105 C114 1.240 . S
O106 In104 2.326 . S
O106 C114 1.252 . S
C107 O110 1.252 . S
C107 O111 1.260 . S
C108 O115 1.240 . S
C108 O116 1.252 . S
C109 O112 1.252 . S
C109 O113 1.260 . S
O110 In104 2.266 . S
O110 C107 1.252 . S
O111 In104 2.326 . S
O111 C107 1.260 . S
O112 In104 2.266 . S
O112 C109 1.252 . S
O113 In104 2.326 . S
O113 C109 1.260 . S
C114 O105 1.240 . S
C114 O106 1.252 . S
O115 In104 2.294 . S
O115 C108 1.240 . S
O116 In104 2.326 . S
O116 C108 1.252 . S
In117 O118 2.294 . S
In117 O119 2.326 . S
In117 O123 2.266 . S
In117 O124 2.326 . S
In117 O125 2.266 . S
In117 O126 2.326 . S
In117 O128 2.294 . S
In117 O129 2.326 . S
O118 In117 2.294 . S
O118 C127 1.240 . S
O119 In117 2.326 . S
O119 C127 1.252 . S
C120 O123 1.252 . S
C120 O124 1.260 . S
C121 O128 1.240 . S
C121 O129 1.252 . S
C122 O125 1.252 . S
C122 O126 1.260 . S
O123 In117 2.266 . S
O123 C120 1.252 . S
O124 In117 2.326 . S
O124 C120 1.260 . S
O125 In117 2.266 . S
O125 C122 1.252 . S
O126 In117 2.326 . S
O126 C122 1.260 . S
C127 O118 1.240 . S
C127 O119 1.252 . S
O128 In117 2.294 . S
O128 C121 1.240 . S
O129 In117 2.326 . S
O129 C121 1.252 . S
In130 O131 2.294 . S
In130 O132 2.326 . S
In130 O136 2.266 . S
In130 O137 2.326 . S
In130 O138 2.266 . S
In130 O139 2.326 . S
In130 O141 2.294 . S
In130 O142 2.326 . S
O131 In130 2.294 . S
O131 C140 1.240 . S
O132 In130 2.326 . S
O132 C140 1.252 . S
C133 O136 1.252 . S
C133 O137 1.260 . S
C134 O141 1.240 . S
C134 O142 1.252 . S
C135 O138 1.252 . S
C135 O139 1.260 . S
O136 In130 2.266 . S
O136 C133 1.252 . S
O137 In130 2.326 . S
O137 C133 1.260 . S
O138 In130 2.266 . S
O138 C135 1.252 . S
O139 In130 2.326 . S
O139 C135 1.260 . S
C140 O131 1.240 . S
C140 O132 1.252 . S
O141 In130 2.294 . S
O141 C134 1.240 . S
O142 In130 2.326 . S
O142 C134 1.252 . S
In143 O144 2.294 . S
In143 O145 2.326 . S
In143 O149 2.266 . S
In143 O150 2.326 . S
In143 O151 2.266 . S
In143 O152 2.326 . S
In143 O154 2.294 . S
In143 O155 2.326 . S
O144 In143 2.294 . S
O144 C153 1.240 . S
O145 In143 2.326 . S
O145 C153 1.252 . S
C146 O149 1.252 . S
C146 O150 1.260 . S
C147 O154 1.240 . S
C147 O155 1.252 . S
C148 O151 1.252 . S
C148 O152 1.260 . S
O149 In143 2.266 . S
O149 C146 1.252 . S
O150 In143 2.326 . S
O150 C146 1.260 . S
O151 In143 2.266 . S
O151 C148 1.252 . S
O152 In143 2.326 . S
O152 C148 1.260 . S
C153 O144 1.240 . S
C153 O145 1.252 . S
O154 In143 2.294 . S
O154 C147 1.240 . S
O155 In143 2.326 . S
O155 C147 1.252 . S
In156 O157 2.294 . S
In156 O158 2.326 . S
In156 O162 2.266 . S
In156 O163 2.326 . S
In156 O164 2.266 . S
In156 O165 2.326 . S
In156 O167 2.294 . S
In156 O168 2.326 . S
O157 In156 2.294 . S
O157 C166 1.240 . S
O158 In156 2.326 . S
O158 C166 1.252 . S
C159 O162 1.252 . S
C159 O163 1.260 . S
C160 O167 1.240 . S
C160 O168 1.252 . S
C161 O164 1.252 . S
C161 O165 1.260 . S
O162 In156 2.266 . S
O162 C159 1.252 . S
O163 In156 2.326 . S
O163 C159 1.260 . S
O164 In156 2.266 . S
O164 C161 1.252 . S
O165 In156 2.326 . S
O165 C161 1.260 . S
C166 O157 1.240 . S
C166 O158 1.252 . S
O167 In156 2.294 . S
O167 C160 1.240 . S
O168 In156 2.326 . S
O168 C160 1.252 . S
In169 O170 2.294 . S
In169 O171 2.326 . S
In169 O175 2.266 . S
In169 O176 2.326 . S
In169 O177 2.266 . S
In169 O178 2.326 . S
In169 O180 2.294 . S
In169 O181 2.326 . S
O170 In169 2.294 . S
O170 C179 1.240 . S
O171 In169 2.326 . S
O171 C179 1.252 . S
C172 O175 1.252 . S
C172 O176 1.260 . S
C173 O180 1.240 . S
C173 O181 1.252 . S
C174 O177 1.252 . S
C174 O178 1.260 . S
O175 In169 2.266 . S
O175 C172 1.252 . S
O176 In169 2.326 . S
O176 C172 1.260 . S
O177 In169 2.266 . S
O177 C174 1.252 . S
O178 In169 2.326 . S
O178 C174 1.260 . S
C179 O170 1.240 . S
C179 O171 1.252 . S
O180 In169 2.294 . S
O180 C173 1.240 . S
O181 In169 2.326 . S
O181 C173 1.252 . S
In182 O183 2.294 . S
In182 O184 2.326 . S
In182 O188 2.266 . S
In182 O189 2.326 . S
In182 O190 2.266 . S
In182 O191 2.326 . S
In182 O193 2.294 . S
In182 O194 2.326 . S
O183 In182 2.294 . S
O183 C192 1.240 . S
O184 In182 2.326 . S
O184 C192 1.252 . S
C185 O188 1.252 . S
C185 O189 1.260 . S
C186 O193 1.240 . S
C186 O194 1.252 . S
C187 O190 1.252 . S
C187 O191 1.260 . S
O188 In182 2.266 . S
O188 C185 1.252 . S
O189 In182 2.326 . S
O189 C185 1.260 . S
O190 In182 2.266 . S
O190 C187 1.252 . S
O191 In182 2.326 . S
O191 C187 1.260 . S
C192 O183 1.240 . S
C192 O184 1.252 . S
O193 In182 2.294 . S
O193 C186 1.240 . S
O194 In182 2.326 . S
O194 C186 1.252 . S
In195 O196 2.294 . S
In195 O197 2.326 . S
In195 O201 2.266 . S
In195 O202 2.326 . S
In195 O203 2.266 . S
In195 O204 2.326 . S
In195 O206 2.294 . S
In195 O207 2.326 . S
O196 In195 2.294 . S
O196 C205 1.240 . S
O197 In195 2.326 . S
O197 C205 1.252 . S
C198 O201 1.252 . S
C198 O202 1.260 . S
C199 O206 1.240 . S
C199 O207 1.252 . S
C200 O203 1.252 . S
C200 O204 1.260 . S
O201 In195 2.266 . S
O201 C198 1.252 . S
O202 In195 2.326 . S
O202 C198 1.260 . S
O203 In195 2.266 . S
O203 C200 1.252 . S
O204 In195 2.326 . S
O204 C200 1.260 . S
C205 O196 1.240 . S
C205 O197 1.252 . S
O206 In195 2.294 . S
O206 C199 1.240 . S
O207 In195 2.326 . S
O207 C199 1.252 . S
In208 O209 2.294 . S
In208 O210 2.326 . S
In208 O214 2.266 . S
In208 O215 2.326 . S
In208 O216 2.266 . S
In208 O217 2.326 . S
In208 O219 2.294 . S
In208 O220 2.326 . S
O209 In208 2.294 . S
O209 C218 1.240 . S
O210 In208 2.326 . S
O210 C218 1.252 . S
C211 O214 1.252 . S
C211 O215 1.260 . S
C212 O219 1.240 . S
C212 O220 1.252 . S
C213 O216 1.252 . S
C213 O217 1.260 . S
O214 In208 2.266 . S
O214 C211 1.252 . S
O215 In208 2.326 . S
O215 C211 1.260 . S
O216 In208 2.266 . S
O216 C213 1.252 . S
O217 In208 2.326 . S
O217 C213 1.260 . S
C218 O209 1.240 . S
C218 O210 1.252 . S
O219 In208 2.294 . S
O219 C212 1.240 . S
O220 In208 2.326 . S
O220 C212 1.252 . S
In221 O222 2.294 . S
In221 O223 2.326 . S
In221 O227 2.266 . S
In221 O228 2.326 . S
In221 O229 2.266 . S
In221 O230 2.326 . S
In221 O232 2.294 . S
In221 O233 2.326 . S
O222 In221 2.294 . S
O222 C231 1.240 . S
O223 In221 2.326 . S
O223 C231 1.252 . S
C224 O227 1.252 . S
C224 O228 1.260 . S
C225 O232 1.240 . S
C225 O233 1.252 . S
C226 O229 1.252 . S
C226 O230 1.260 . S
O227 In221 2.266 . S
O227 C224 1.252 . S
O228 In221 2.326 . S
O228 C224 1.260 . S
O229 In221 2.266 . S
O229 C226 1.252 . S
O230 In221 2.326 . S
O230 C226 1.260 . S
C231 O222 1.240 . S
C231 O223 1.252 . S
O232 In221 2.294 . S
O232 C225 1.240 . S
O233 In221 2.326 . S
O233 C225 1.252 . S
H234 C242 0.929 . S
H235 C244 0.930 . S
H236 C246 0.930 . S
H237 C249 0.929 . S
H238 C252 0.930 . S
H239 C254 0.960 . S
H240 C254 0.960 . S
H241 C254 0.960 . S
C242 H234 0.929 . S
C242 C243 1.377 . S
C242 C244 1.384 . S
C243 C242 1.377 . S
C243 C249 1.390 . S
C244 H235 0.930 . S
C244 C242 1.384 . S
C244 C245 1.372 . S
C245 C244 1.372 . S
C245 C246 1.400 . S
C245 C250 1.490 . S
C246 H236 0.930 . S
C246 C245 1.400 . S
C246 C249 1.386 . S
H247 C263 0.930 . S
H248 C264 0.931 . S
C249 H237 0.929 . S
C249 C243 1.390 . S
C249 C246 1.386 . S
C250 C245 1.490 . S
C250 C252 1.395 . S
C250 C253 1.403 . S
H251 C257 0.930 . S
C252 H238 0.930 . S
C252 C250 1.395 . S
C252 C255 1.403 . S
C253 C250 1.403 . S
C253 C254 1.524 . S
C253 C257 1.400 . S
C254 H239 0.960 . S
C254 H240 0.960 . S
C254 H241 0.960 . S
C254 C253 1.524 . S
C255 C252 1.403 . S
C255 C256 1.392 . S
C255 C259 1.495 . S
C256 C255 1.392 . S
C256 C257 1.385 . S
C256 C258 1.478 . S
C257 H251 0.930 . S
C257 C253 1.400 . S
C257 C256 1.385 . S
C258 C256 1.478 . S
C258 C260 1.381 . S
C258 C264 1.383 . S
C259 C255 1.495 . S
C259 H265 0.959 . S
C259 H266 0.961 . S
C259 H267 0.960 . S
C260 C258 1.381 . S
C260 C261 1.394 . S
C260 H268 0.930 . S
C261 C260 1.394 . S
C261 C262 1.383 . S
C261 H269 0.929 . S
C262 C261 1.383 . S
C262 C263 1.377 . S
C263 H247 0.930 . S
C263 C262 1.377 . S
C263 C264 1.379 . S
C264 H248 0.931 . S
C264 C258 1.383 . S
C264 C263 1.379 . S
H265 C259 0.959 . S
H266 C259 0.961 . S
H267 C259 0.960 . S
H268 C260 0.930 . S
H269 C261 0.929 . S
H270 C278 0.929 . S
H271 C280 0.930 . S
H272 C282 0.930 . S
H273 C285 0.929 . S
H274 C288 0.930 . S
H275 C290 0.960 . S
H276 C290 0.960 . S
H277 C290 0.960 . S
C278 H270 0.929 . S
C278 C279 1.377 . S
C278 C280 1.384 . S
C279 C278 1.377 . S
C279 C285 1.390 . S
C280 H271 0.930 . S
C280 C278 1.384 . S
C280 C281 1.372 . S
C281 C280 1.372 . S
C281 C282 1.400 . S
C281 C286 1.490 . S
C282 H272 0.930 . S
C282 C281 1.400 . S
C282 C285 1.386 . S
H283 C299 0.930 . S
H284 C300 0.931 . S
C285 H273 0.929 . S
C285 C279 1.390 . S
C285 C282 1.386 . S
C286 C281 1.490 . S
C286 C288 1.395 . S
C286 C289 1.403 . S
H287 C293 0.930 . S
C288 H274 0.930 . S
C288 C286 1.395 . S
C288 C291 1.403 . S
C289 C286 1.403 . S
C289 C290 1.524 . S
C289 C293 1.400 . S
C290 H275 0.960 . S
C290 H276 0.960 . S
C290 H277 0.960 . S
C290 C289 1.524 . S
C291 C288 1.403 . S
C291 C292 1.392 . S
C291 C295 1.495 . S
C292 C291 1.392 . S
C292 C293 1.385 . S
C292 C294 1.478 . S
C293 H287 0.930 . S
C293 C289 1.400 . S
C293 C292 1.385 . S
C294 C292 1.478 . S
C294 C296 1.381 . S
C294 C300 1.383 . S
C295 C291 1.495 . S
C295 H301 0.959 . S
C295 H302 0.961 . S
C295 H303 0.960 . S
C296 C294 1.381 . S
C296 C297 1.394 . S
C296 H304 0.930 . S
C297 C296 1.394 . S
C297 C298 1.383 . S
C297 H305 0.929 . S
C298 C297 1.383 . S
C298 C299 1.377 . S
C299 H283 0.930 . S
C299 C298 1.377 . S
C299 C300 1.379 . S
C300 H284 0.931 . S
C300 C294 1.383 . S
C300 C299 1.379 . S
H301 C295 0.959 . S
H302 C295 0.961 . S
H303 C295 0.960 . S
H304 C296 0.930 . S
H305 C297 0.929 . S
H306 C314 0.929 . S
H307 C316 0.930 . S
H308 C318 0.930 . S
H309 C321 0.929 . S
H310 C324 0.930 . S
H311 C326 0.960 . S
H312 C326 0.960 . S
H313 C326 0.960 . S
C314 H306 0.929 . S
C314 C315 1.377 . S
C314 C316 1.384 . S
C315 C314 1.377 . S
C315 C321 1.390 . S
C316 H307 0.930 . S
C316 C314 1.384 . S
C316 C317 1.372 . S
C317 C316 1.372 . S
C317 C318 1.400 . S
C317 C322 1.490 . S
C318 H308 0.930 . S
C318 C317 1.400 . S
C318 C321 1.386 . S
H319 C335 0.930 . S
H320 C336 0.931 . S
C321 H309 0.929 . S
C321 C315 1.390 . S
C321 C318 1.386 . S
C322 C317 1.490 . S
C322 C324 1.395 . S
C322 C325 1.403 . S
H323 C329 0.930 . S
C324 H310 0.930 . S
C324 C322 1.395 . S
C324 C327 1.403 . S
C325 C322 1.403 . S
C325 C326 1.524 . S
C325 C329 1.400 . S
C326 H311 0.960 . S
C326 H312 0.960 . S
C326 H313 0.960 . S
C326 C325 1.524 . S
C327 C324 1.403 . S
C327 C328 1.392 . S
C327 C331 1.495 . S
C328 C327 1.392 . S
C328 C329 1.385 . S
C328 C330 1.478 . S
C329 H323 0.930 . S
C329 C325 1.400 . S
C329 C328 1.385 . S
C330 C328 1.478 . S
C330 C332 1.381 . S
C330 C336 1.383 . S
C331 C327 1.495 . S
C331 H337 0.959 . S
C331 H338 0.961 . S
C331 H339 0.960 . S
C332 C330 1.381 . S
C332 C333 1.394 . S
C332 H340 0.930 . S
C333 C332 1.394 . S
C333 C334 1.383 . S
C333 H341 0.929 . S
C334 C333 1.383 . S
C334 C335 1.377 . S
C335 H319 0.930 . S
C335 C334 1.377 . S
C335 C336 1.379 . S
C336 H320 0.931 . S
C336 C330 1.383 . S
C336 C335 1.379 . S
H337 C331 0.959 . S
H338 C331 0.961 . S
H339 C331 0.960 . S
H340 C332 0.930 . S
H341 C333 0.929 . S
H342 C350 0.929 . S
H343 C352 0.930 . S
H344 C354 0.930 . S
H345 C357 0.929 . S
H346 C360 0.930 . S
H347 C362 0.960 . S
H348 C362 0.960 . S
H349 C362 0.960 . S
C350 H342 0.929 . S
C350 C351 1.377 . S
C350 C352 1.384 . S
C351 C350 1.377 . S
C351 C357 1.390 . S
C352 H343 0.930 . S
C352 C350 1.384 . S
C352 C353 1.372 . S
C353 C352 1.372 . S
C353 C354 1.400 . S
C353 C358 1.490 . S
C354 H344 0.930 . S
C354 C353 1.400 . S
C354 C357 1.386 . S
H355 C371 0.930 . S
H356 C372 0.931 . S
C357 H345 0.929 . S
C357 C351 1.390 . S
C357 C354 1.386 . S
C358 C353 1.490 . S
C358 C360 1.395 . S
C358 C361 1.403 . S
H359 C365 0.930 . S
C360 H346 0.930 . S
C360 C358 1.395 . S
C360 C363 1.403 . S
C361 C358 1.403 . S
C361 C362 1.524 . S
C361 C365 1.400 . S
C362 H347 0.960 . S
C362 H348 0.960 . S
C362 H349 0.960 . S
C362 C361 1.524 . S
C363 C360 1.403 . S
C363 C364 1.392 . S
C363 C367 1.495 . S
C364 C363 1.392 . S
C364 C365 1.385 . S
C364 C366 1.478 . S
C365 H359 0.930 . S
C365 C361 1.400 . S
C365 C364 1.385 . S
C366 C364 1.478 . S
C366 C368 1.381 . S
C366 C372 1.383 . S
C367 C363 1.495 . S
C367 H373 0.959 . S
C367 H374 0.961 . S
C367 H375 0.960 . S
C368 C366 1.381 . S
C368 C369 1.394 . S
C368 H376 0.930 . S
C369 C368 1.394 . S
C369 C370 1.383 . S
C369 H377 0.929 . S
C370 C369 1.383 . S
C370 C371 1.377 . S
C371 H355 0.930 . S
C371 C370 1.377 . S
C371 C372 1.379 . S
C372 H356 0.931 . S
C372 C366 1.383 . S
C372 C371 1.379 . S
H373 C367 0.959 . S
H374 C367 0.961 . S
H375 C367 0.960 . S
H376 C368 0.930 . S
H377 C369 0.929 . S
H378 C386 0.929 . S
H379 C388 0.930 . S
H380 C390 0.930 . S
H381 C393 0.929 . S
H382 C396 0.930 . S
H383 C398 0.960 . S
H384 C398 0.960 . S
H385 C398 0.960 . S
C386 H378 0.929 . S
C386 C387 1.377 . S
C386 C388 1.384 . S
C387 C386 1.377 . S
C387 C393 1.390 . S
C388 H379 0.930 . S
C388 C386 1.384 . S
C388 C389 1.372 . S
C389 C388 1.372 . S
C389 C390 1.400 . S
C389 C394 1.490 . S
C390 H380 0.930 . S
C390 C389 1.400 . S
C390 C393 1.386 . S
H391 C407 0.930 . S
H392 C408 0.931 . S
C393 H381 0.929 . S
C393 C387 1.390 . S
C393 C390 1.386 . S
C394 C389 1.490 . S
C394 C396 1.395 . S
C394 C397 1.403 . S
H395 C401 0.930 . S
C396 H382 0.930 . S
C396 C394 1.395 . S
C396 C399 1.403 . S
C397 C394 1.403 . S
C397 C398 1.524 . S
C397 C401 1.400 . S
C398 H383 0.960 . S
C398 H384 0.960 . S
C398 H385 0.960 . S
C398 C397 1.524 . S
C399 C396 1.403 . S
C399 C400 1.392 . S
C399 C403 1.495 . S
C400 C399 1.392 . S
C400 C401 1.385 . S
C400 C402 1.478 . S
C401 H395 0.930 . S
C401 C397 1.400 . S
C401 C400 1.385 . S
C402 C400 1.478 . S
C402 C404 1.381 . S
C402 C408 1.383 . S
C403 C399 1.495 . S
C403 H409 0.959 . S
C403 H410 0.961 . S
C403 H411 0.960 . S
C404 C402 1.381 . S
C404 C405 1.394 . S
C404 H412 0.930 . S
C405 C404 1.394 . S
C405 C406 1.383 . S
C405 H413 0.929 . S
C406 C405 1.383 . S
C406 C407 1.377 . S
C407 H391 0.930 . S
C407 C406 1.377 . S
C407 C408 1.379 . S
C408 H392 0.931 . S
C408 C402 1.383 . S
C408 C407 1.379 . S
H409 C403 0.959 . S
H410 C403 0.961 . S
H411 C403 0.960 . S
H412 C404 0.930 . S
H413 C405 0.929 . S
H414 C422 0.929 . S
H415 C424 0.930 . S
H416 C426 0.930 . S
H417 C429 0.929 . S
H418 C432 0.930 . S
H419 C434 0.960 . S
H420 C434 0.960 . S
H421 C434 0.960 . S
C422 H414 0.929 . S
C422 C423 1.377 . S
C422 C424 1.384 . S
C423 C422 1.377 . S
C423 C429 1.390 . S
C424 H415 0.930 . S
C424 C422 1.384 . S
C424 C425 1.372 . S
C425 C424 1.372 . S
C425 C426 1.400 . S
C425 C430 1.490 . S
C426 H416 0.930 . S
C426 C425 1.400 . S
C426 C429 1.386 . S
H427 C443 0.930 . S
H428 C444 0.931 . S
C429 H417 0.929 . S
C429 C423 1.390 . S
C429 C426 1.386 . S
C430 C425 1.490 . S
C430 C432 1.395 . S
C430 C433 1.403 . S
H431 C437 0.930 . S
C432 H418 0.930 . S
C432 C430 1.395 . S
C432 C435 1.403 . S
C433 C430 1.403 . S
C433 C434 1.524 . S
C433 C437 1.400 . S
C434 H419 0.960 . S
C434 H420 0.960 . S
C434 H421 0.960 . S
C434 C433 1.524 . S
C435 C432 1.403 . S
C435 C436 1.392 . S
C435 C439 1.495 . S
C436 C435 1.392 . S
C436 C437 1.385 . S
C436 C438 1.478 . S
C437 H431 0.930 . S
C437 C433 1.400 . S
C437 C436 1.385 . S
C438 C436 1.478 . S
C438 C440 1.381 . S
C438 C444 1.383 . S
C439 C435 1.495 . S
C439 H445 0.959 . S
C439 H446 0.961 . S
C439 H447 0.960 . S
C440 C438 1.381 . S
C440 C441 1.394 . S
C440 H448 0.930 . S
C441 C440 1.394 . S
C441 C442 1.383 . S
C441 H449 0.929 . S
C442 C441 1.383 . S
C442 C443 1.377 . S
C443 H427 0.930 . S
C443 C442 1.377 . S
C443 C444 1.379 . S
C444 H428 0.931 . S
C444 C438 1.383 . S
C444 C443 1.379 . S
H445 C439 0.959 . S
H446 C439 0.961 . S
H447 C439 0.960 . S
H448 C440 0.930 . S
H449 C441 0.929 . S
H450 C458 0.929 . S
H451 C460 0.930 . S
H452 C462 0.930 . S
H453 C465 0.929 . S
H454 C468 0.930 . S
H455 C470 0.960 . S
H456 C470 0.960 . S
H457 C470 0.960 . S
C458 H450 0.929 . S
C458 C459 1.377 . S
C458 C460 1.384 . S
C459 C458 1.377 . S
C459 C465 1.390 . S
C460 H451 0.930 . S
C460 C458 1.384 . S
C460 C461 1.372 . S
C461 C460 1.372 . S
C461 C462 1.400 . S
C461 C466 1.490 . S
C462 H452 0.930 . S
C462 C461 1.400 . S
C462 C465 1.386 . S
H463 C479 0.930 . S
H464 C480 0.931 . S
C465 H453 0.929 . S
C465 C459 1.390 . S
C465 C462 1.386 . S
C466 C461 1.490 . S
C466 C468 1.395 . S
C466 C469 1.403 . S
H467 C473 0.930 . S
C468 H454 0.930 . S
C468 C466 1.395 . S
C468 C471 1.403 1_655 S
C469 C466 1.403 . S
C469 C470 1.524 . S
C469 C473 1.400 1_655 S
C470 H455 0.960 . S
C470 H456 0.960 . S
C470 H457 0.960 . S
C470 C469 1.524 . S
C471 C468 1.403 1_455 S
C471 C472 1.392 . S
C471 C475 1.495 . S
C472 C471 1.392 . S
C472 C473 1.385 . S
C472 C474 1.478 . S
C473 H467 0.930 . S
C473 C469 1.400 1_455 S
C473 C472 1.385 . S
C474 C472 1.478 . S
C474 C476 1.381 . S
C474 C480 1.383 . S
C475 C471 1.495 . S
C475 H481 0.959 . S
C475 H482 0.961 . S
C475 H483 0.960 . S
C476 C474 1.381 . S
C476 C477 1.394 . S
C476 H484 0.930 . S
C477 C476 1.394 . S
C477 C478 1.383 . S
C477 H485 0.929 . S
C478 C477 1.383 . S
C478 C479 1.377 . S
C479 H463 0.930 . S
C479 C478 1.377 . S
C479 C480 1.379 . S
C480 H464 0.931 . S
C480 C474 1.383 . S
C480 C479 1.379 . S
H481 C475 0.959 . S
H482 C475 0.961 . S
H483 C475 0.960 . S
H484 C476 0.930 . S
H485 C477 0.929 . S
H486 C494 0.929 . S
H487 C496 0.930 . S
H488 C498 0.930 . S
H489 C501 0.929 . S
H490 C504 0.930 . S
H491 C506 0.960 . S
H492 C506 0.960 . S
H493 C506 0.960 . S
C494 H486 0.929 . S
C494 C495 1.377 . S
C494 C496 1.384 . S
C495 C494 1.377 . S
C495 C501 1.390 . S
C496 H487 0.930 . S
C496 C494 1.384 . S
C496 C497 1.372 . S
C497 C496 1.372 . S
C497 C498 1.400 . S
C497 C502 1.490 . S
C498 H488 0.930 . S
C498 C497 1.400 . S
C498 C501 1.386 . S
H499 C515 0.930 . S
H500 C516 0.931 . S
C501 H489 0.929 . S
C501 C495 1.390 . S
C501 C498 1.386 . S
C502 C497 1.490 . S
C502 C504 1.395 . S
C502 C505 1.403 . S
H503 C509 0.930 . S
C504 H490 0.930 . S
C504 C502 1.395 . S
C504 C507 1.403 . S
C505 C502 1.403 . S
C505 C506 1.524 . S
C505 C509 1.400 . S
C506 H491 0.960 . S
C506 H492 0.960 . S
C506 H493 0.960 . S
C506 C505 1.524 . S
C507 C504 1.403 . S
C507 C508 1.392 . S
C507 C511 1.495 . S
C508 C507 1.392 . S
C508 C509 1.385 . S
C508 C510 1.478 . S
C509 H503 0.930 . S
C509 C505 1.400 . S
C509 C508 1.385 . S
C510 C508 1.478 . S
C510 C512 1.381 . S
C510 C516 1.383 . S
C511 C507 1.495 . S
C511 H517 0.959 . S
C511 H518 0.961 . S
C511 H519 0.960 . S
C512 C510 1.381 . S
C512 C513 1.394 . S
C512 H520 0.930 . S
C513 C512 1.394 . S
C513 C514 1.383 . S
C513 H521 0.929 . S
C514 C513 1.383 . S
C514 C515 1.377 . S
C515 H499 0.930 . S
C515 C514 1.377 . S
C515 C516 1.379 . S
C516 H500 0.931 . S
C516 C510 1.383 . S
C516 C515 1.379 . S
H517 C511 0.959 . S
H518 C511 0.961 . S
H519 C511 0.960 . S
H520 C512 0.930 . S
H521 C513 0.929 . S
H522 C530 0.929 . S
H523 C532 0.930 . S
H524 C534 0.930 . S
H525 C537 0.929 . S
H526 C540 0.930 . S
H527 C542 0.982 . S
H528 C542 0.960 . S
H529 C542 0.960 . S
C530 H522 0.929 . S
C530 C531 1.377 . S
C530 C532 1.384 . S
C531 C530 1.377 . S
C531 C537 1.390 . S
C532 H523 0.930 . S
C532 C530 1.384 . S
C532 C533 1.372 . S
C533 C532 1.372 . S
C533 C534 1.400 . S
C533 C538 1.490 . S
C534 H524 0.930 . S
C534 C533 1.400 . S
C534 C537 1.386 . S
H535 C551 0.930 . S
H536 C552 0.931 . S
C537 H525 0.929 . S
C537 C531 1.390 . S
C537 C534 1.386 . S
C538 C533 1.490 . S
C538 C540 1.395 . S
C538 C541 1.403 . S
H539 C545 0.930 . S
C540 H526 0.930 . S
C540 C538 1.395 . S
C540 C543 1.403 1_545 S
C541 C538 1.403 . S
C541 C542 1.524 . S
C541 C545 1.400 1_545 S
C542 H527 0.982 . S
C542 H528 0.960 . S
C542 H529 0.960 . S
C542 C541 1.524 . S
C543 C540 1.403 1_565 S
C543 C544 1.392 . S
C543 C547 1.495 . S
C544 C543 1.392 . S
C544 C545 1.385 . S
C544 C546 1.478 . S
C545 H539 0.930 . S
C545 C541 1.400 1_565 S
C545 C544 1.385 . S
C546 C544 1.478 . S
C546 C548 1.381 . S
C546 C552 1.383 . S
C547 C543 1.495 . S
C547 H553 0.959 1_565 S
C547 H554 0.961 . S
C547 H555 0.960 . S
C548 C546 1.381 . S
C548 C549 1.394 . S
C548 H556 0.930 . S
C549 C548 1.394 . S
C549 C550 1.383 . S
C549 H557 0.929 . S
C550 C549 1.383 . S
C550 C551 1.377 . S
C551 H535 0.930 . S
C551 C550 1.377 . S
C551 C552 1.379 . S
C552 H536 0.931 . S
C552 C546 1.383 . S
C552 C551 1.379 . S
H553 C547 0.959 1_545 S
H554 C547 0.961 . S
H555 C547 0.960 . S
H556 C548 0.930 . S
H557 C549 0.929 . S
H558 C566 0.929 . S
H559 C568 0.930 . S
H560 C570 0.930 . S
H561 C573 0.929 . S
H562 C576 0.930 . S
H563 C578 0.960 . S
H564 C578 0.960 . S
H565 C578 0.960 . S
C566 H558 0.929 . S
C566 C567 1.377 . S
C566 C568 1.384 . S
C567 C566 1.377 . S
C567 C573 1.390 . S
C568 H559 0.930 . S
C568 C566 1.384 . S
C568 C569 1.372 . S
C569 C568 1.372 . S
C569 C570 1.400 . S
C569 C574 1.490 . S
C570 H560 0.930 . S
C570 C569 1.400 . S
C570 C573 1.386 . S
H571 C587 0.930 . S
H572 C588 0.931 . S
C573 H561 0.929 . S
C573 C567 1.390 . S
C573 C570 1.386 . S
C574 C569 1.490 . S
C574 C576 1.395 . S
C574 C577 1.403 . S
H575 C581 0.930 . S
C576 H562 0.930 . S
C576 C574 1.395 . S
C576 C579 1.403 1_455 S
C577 C574 1.403 . S
C577 C578 1.524 . S
C577 C581 1.400 1_455 S
C578 H563 0.960 . S
C578 H564 0.960 . S
C578 H565 0.960 . S
C578 C577 1.524 . S
C579 C576 1.403 1_655 S
C579 C580 1.392 . S
C579 C583 1.495 . S
C580 C579 1.392 . S
C580 C581 1.385 . S
C580 C582 1.478 . S
C581 H575 0.930 . S
C581 C577 1.400 1_655 S
C581 C580 1.385 . S
C582 C580 1.478 . S
C582 C584 1.381 . S
C582 C588 1.383 . S
C583 C579 1.495 . S
C583 H589 0.959 . S
C583 H590 0.961 . S
C583 H591 0.960 . S
C584 C582 1.381 . S
C584 C585 1.394 . S
C584 H592 0.930 . S
C585 C584 1.394 . S
C585 C586 1.383 . S
C585 H593 0.929 . S
C586 C585 1.383 . S
C586 C587 1.377 . S
C587 H571 0.930 . S
C587 C586 1.377 . S
C587 C588 1.379 . S
C588 H572 0.931 . S
C588 C582 1.383 . S
C588 C587 1.379 . S
H589 C583 0.959 . S
H590 C583 0.961 . S
H591 C583 0.960 . S
H592 C584 0.930 . S
H593 C585 0.929 . S
H594 C602 0.929 . S
H595 C604 0.930 . S
H596 C606 0.930 . S
H597 C609 0.929 . S
H598 C612 0.930 . S
H599 C614 0.960 . S
H600 C614 0.960 . S
H601 C614 0.960 . S
C602 H594 0.929 . S
C602 C603 1.377 . S
C602 C604 1.384 . S
C603 C602 1.377 . S
C603 C609 1.390 . S
C604 H595 0.930 . S
C604 C602 1.384 . S
C604 C605 1.372 . S
C605 C604 1.372 . S
C605 C606 1.400 . S
C605 C610 1.490 . S
C606 H596 0.930 . S
C606 C605 1.400 . S
C606 C609 1.386 . S
H607 C623 0.930 . S
H608 C624 0.931 . S
C609 H597 0.929 . S
C609 C603 1.390 . S
C609 C606 1.386 . S
C610 C605 1.490 . S
C610 C612 1.395 . S
C610 C613 1.403 . S
H611 C617 0.930 . S
C612 H598 0.930 . S
C612 C610 1.395 . S
C612 C615 1.403 . S
C613 C610 1.403 . S
C613 C614 1.524 . S
C613 C617 1.400 . S
C614 H599 0.960 . S
C614 H600 0.960 . S
C614 H601 0.960 . S
C614 C613 1.524 . S
C615 C612 1.403 . S
C615 C616 1.392 . S
C615 C619 1.495 . S
C616 C615 1.392 . S
C616 C617 1.385 . S
C616 C618 1.478 . S
C617 H611 0.930 . S
C617 C613 1.400 . S
C617 C616 1.385 . S
C618 C616 1.478 . S
C618 C620 1.381 . S
C618 C624 1.383 . S
C619 C615 1.495 . S
C619 H625 0.959 . S
C619 H626 0.961 . S
C619 H627 0.960 . S
C620 C618 1.381 . S
C620 C621 1.394 . S
C620 H628 0.930 . S
C621 C620 1.394 . S
C621 C622 1.383 . S
C621 H629 0.929 . S
C622 C621 1.383 . S
C622 C623 1.377 . S
C623 H607 0.930 . S
C623 C622 1.377 . S
C623 C624 1.379 . S
C624 H608 0.931 . S
C624 C618 1.383 . S
C624 C623 1.379 . S
H625 C619 0.959 . S
H626 C619 0.961 . S
H627 C619 0.960 . S
H628 C620 0.930 . S
H629 C621 0.929 . S
H630 C638 0.929 . S
H631 C640 0.930 . S
H632 C642 0.930 . S
H633 C645 0.929 . S
H634 C648 0.930 . S
H635 C650 0.960 . S
H636 C650 0.960 . S
H637 C650 0.960 . S
C638 H630 0.929 . S
C638 C639 1.377 . S
C638 C640 1.384 . S
C639 C638 1.377 . S
C639 C645 1.390 . S
C640 H631 0.930 . S
C640 C638 1.384 . S
C640 C641 1.372 . S
C641 C640 1.372 . S
C641 C642 1.400 . S
C641 C646 1.490 . S
C642 H632 0.930 . S
C642 C641 1.400 . S
C642 C645 1.386 . S
H643 C659 0.930 . S
H644 C660 0.931 . S
C645 H633 0.929 . S
C645 C639 1.390 . S
C645 C642 1.386 . S
C646 C641 1.490 . S
C646 C648 1.395 . S
C646 C649 1.403 . S
H647 C653 0.930 . S
C648 H634 0.930 . S
C648 C646 1.395 . S
C648 C651 1.403 1_545 S
C649 C646 1.403 . S
C649 C650 1.524 . S
C649 C653 1.400 1_545 S
C650 H635 0.960 . S
C650 H636 0.960 . S
C650 H637 0.960 . S
C650 C649 1.524 . S
C651 C648 1.403 1_565 S
C651 C652 1.392 . S
C651 C655 1.495 . S
C652 C651 1.392 . S
C652 C653 1.385 . S
C652 C654 1.478 . S
C653 H647 0.930 . S
C653 C649 1.400 1_565 S
C653 C652 1.385 . S
C654 C652 1.478 . S
C654 C656 1.381 . S
C654 C660 1.383 . S
C655 C651 1.495 . S
C655 H661 0.959 . S
C655 H662 0.961 . S
C655 H663 0.960 . S
C656 C654 1.381 . S
C656 C657 1.394 . S
C656 H664 0.930 . S
C657 C656 1.394 . S
C657 C658 1.383 . S
C657 H665 0.929 . S
C658 C657 1.383 . S
C658 C659 1.377 . S
C659 H643 0.930 . S
C659 C658 1.377 . S
C659 C660 1.379 . S
C660 H644 0.931 . S
C660 C654 1.383 . S
C660 C659 1.379 . S
H661 C655 0.959 . S
H662 C655 0.961 . S
H663 C655 0.960 . S
H664 C656 0.930 . S
H665 C657 0.929 . S
H666 C674 0.929 . S
H667 C676 0.930 . S
H668 C678 0.930 . S
H669 C681 0.929 . S
H670 C684 0.930 . S
H671 C686 0.996 . S
H672 C686 0.960 . S
H673 C686 0.960 . S
C674 H666 0.929 . S
C674 C675 1.377 . S
C674 C676 1.384 . S
C675 C674 1.377 . S
C675 C681 1.390 . S
C676 H667 0.930 . S
C676 C674 1.384 . S
C676 C677 1.372 . S
C677 C676 1.372 . S
C677 C678 1.400 . S
C677 C682 1.490 . S
C678 H668 0.930 . S
C678 C677 1.400 . S
C678 C681 1.386 . S
H679 C695 0.930 . S
H680 C696 0.931 . S
C681 H669 0.929 . S
C681 C675 1.390 . S
C681 C678 1.386 . S
C682 C677 1.490 . S
C682 C684 1.395 . S
C682 C685 1.403 . S
H683 C689 0.930 . S
C684 H670 0.930 . S
C684 C682 1.395 . S
C684 C687 1.403 1_565 S
C685 C682 1.403 . S
C685 C686 1.524 . S
C685 C689 1.400 1_565 S
C686 H671 0.996 . S
C686 H672 0.960 . S
C686 H673 0.960 . S
C686 C685 1.524 . S
C687 C684 1.403 1_545 S
C687 C688 1.392 . S
C687 C691 1.495 . S
C688 C687 1.392 . S
C688 C689 1.385 . S
C688 C690 1.478 . S
C689 H683 0.930 . S
C689 C685 1.400 1_545 S
C689 C688 1.385 . S
C690 C688 1.478 . S
C690 C692 1.381 . S
C690 C696 1.383 . S
C691 C687 1.495 . S
C691 H697 0.959 . S
C691 H698 0.961 . S
C691 H699 0.960 . S
C692 C690 1.381 . S
C692 C693 1.394 . S
C692 H700 0.930 . S
C693 C692 1.394 . S
C693 C694 1.383 . S
C693 H701 0.929 . S
C694 C693 1.383 . S
C694 C695 1.377 . S
C695 H679 0.930 . S
C695 C694 1.377 . S
C695 C696 1.379 . S
C696 H680 0.931 . S
C696 C690 1.383 . S
C696 C695 1.379 . S
H697 C691 0.959 . S
H698 C691 0.961 . S
H699 C691 0.960 . S
H700 C692 0.930 . S
H701 C693 0.929 . S
H702 C710 0.929 . S
H703 C712 0.930 . S
H704 C714 0.930 . S
H705 C717 0.929 . S
H706 C720 0.930 . S
H707 C722 0.960 . S
H708 C722 0.960 . S
H709 C722 0.960 . S
C710 H702 0.929 . S
C710 C711 1.377 . S
C710 C712 1.384 . S
C711 C710 1.377 . S
C711 C717 1.390 . S
C712 H703 0.930 . S
C712 C710 1.384 . S
C712 C713 1.372 . S
C713 C712 1.372 . S
C713 C714 1.400 . S
C713 C718 1.490 . S
C714 H704 0.930 . S
C714 C713 1.400 . S
C714 C717 1.386 . S
H715 C731 0.930 . S
H716 C732 0.931 . S
C717 H705 0.929 . S
C717 C711 1.390 . S
C717 C714 1.386 . S
C718 C713 1.490 . S
C718 C720 1.395 . S
C718 C721 1.403 . S
H719 C725 0.930 . S
C720 H706 0.930 . S
C720 C718 1.395 . S
C720 C723 1.403 1_455 S
C721 C718 1.403 . S
C721 C722 1.524 . S
C721 C725 1.400 1_455 S
C722 H707 0.960 . S
C722 H708 0.960 . S
C722 H709 0.960 . S
C722 C721 1.524 . S
C723 C720 1.403 1_655 S
C723 C724 1.392 . S
C723 C727 1.495 . S
C724 C723 1.392 . S
C724 C725 1.385 . S
C724 C726 1.478 . S
C725 H719 0.930 . S
C725 C721 1.400 1_655 S
C725 C724 1.385 . S
C726 C724 1.478 . S
C726 C728 1.381 . S
C726 C732 1.383 . S
C727 C723 1.495 . S
C727 H733 0.959 . S
C727 H734 0.961 . S
C727 H735 0.960 . S
C728 C726 1.381 . S
C728 C729 1.394 . S
C728 H736 0.930 . S
C729 C728 1.394 . S
C729 C730 1.383 . S
C729 H737 0.929 . S
C730 C729 1.383 . S
C730 C731 1.377 . S
C731 H715 0.930 . S
C731 C730 1.377 . S
C731 C732 1.379 . S
C732 H716 0.931 . S
C732 C726 1.383 . S
C732 C731 1.379 . S
H733 C727 0.959 . S
H734 C727 0.961 . S
H735 C727 0.960 . S
H736 C728 0.930 . S
H737 C729 0.929 . S
H738 C746 0.929 . S
H739 C748 0.930 . S
H740 C750 0.930 . S
H741 C753 0.929 . S
H742 C756 0.930 . S
H743 C758 0.960 . S
H744 C758 0.960 . S
H745 C758 0.960 . S
C746 H738 0.929 . S
C746 C747 1.377 . S
C746 C748 1.384 . S
C747 C746 1.377 . S
C747 C753 1.390 . S
C748 H739 0.930 . S
C748 C746 1.384 . S
C748 C749 1.372 . S
C749 C748 1.372 . S
C749 C750 1.400 . S
C749 C754 1.490 . S
C750 H740 0.930 . S
C750 C749 1.400 . S
C750 C753 1.386 . S
H751 C767 0.930 . S
H752 C768 0.931 . S
C753 H741 0.929 . S
C753 C747 1.390 . S
C753 C750 1.386 . S
C754 C749 1.490 . S
C754 C756 1.395 . S
C754 C757 1.403 . S
H755 C761 0.930 . S
C756 H742 0.930 . S
C756 C754 1.395 . S
C756 C759 1.403 . S
C757 C754 1.403 . S
C757 C758 1.524 . S
C757 C761 1.400 . S
C758 H743 0.960 . S
C758 H744 0.960 . S
C758 H745 0.960 . S
C758 C757 1.524 . S
C759 C756 1.403 . S
C759 C760 1.392 . S
C759 C763 1.495 . S
C760 C759 1.392 . S
C760 C761 1.385 . S
C760 C762 1.478 . S
C761 H755 0.930 . S
C761 C757 1.400 . S
C761 C760 1.385 . S
C762 C760 1.478 . S
C762 C764 1.381 . S
C762 C768 1.383 . S
C763 C759 1.495 . S
C763 H769 0.959 . S
C763 H770 0.961 . S
C763 H771 0.960 . S
C764 C762 1.381 . S
C764 C765 1.394 . S
C764 H772 0.930 . S
C765 C764 1.394 . S
C765 C766 1.383 . S
C765 H773 0.929 . S
C766 C765 1.383 . S
C766 C767 1.377 . S
C767 H751 0.930 . S
C767 C766 1.377 . S
C767 C768 1.379 . S
C768 H752 0.931 . S
C768 C762 1.383 . S
C768 C767 1.379 . S
H769 C763 0.959 . S
H770 C763 0.961 . S
H771 C763 0.960 . S
H772 C764 0.930 . S
H773 C765 0.929 . S
H774 C782 0.929 . S
H775 C784 0.930 . S
H776 C786 0.930 . S
H777 C789 0.929 . S
H778 C792 0.930 . S
H779 C794 0.960 . S
H780 C794 0.960 . S
H781 C794 0.960 . S
C782 H774 0.929 . S
C782 C783 1.377 . S
C782 C784 1.384 . S
C783 C782 1.377 . S
C783 C789 1.390 . S
C784 H775 0.930 . S
C784 C782 1.384 . S
C784 C785 1.372 . S
C785 C784 1.372 . S
C785 C786 1.400 . S
C785 C790 1.490 . S
C786 H776 0.930 . S
C786 C785 1.400 . S
C786 C789 1.386 . S
H787 C803 0.930 . S
H788 C804 0.931 . S
C789 H777 0.929 . S
C789 C783 1.390 . S
C789 C786 1.386 . S
C790 C785 1.490 . S
C790 C792 1.395 . S
C790 C793 1.403 . S
H791 C797 0.930 . S
C792 H778 0.930 . S
C792 C790 1.395 . S
C792 C795 1.403 . S
C793 C790 1.403 . S
C793 C794 1.524 . S
C793 C797 1.400 . S
C794 H779 0.960 . S
C794 H780 0.960 . S
C794 H781 0.960 . S
C794 C793 1.524 . S
C795 C792 1.403 . S
C795 C796 1.392 . S
C795 C799 1.495 . S
C796 C795 1.392 . S
C796 C797 1.385 . S
C796 C798 1.478 . S
C797 H791 0.930 . S
C797 C793 1.400 . S
C797 C796 1.385 . S
C798 C796 1.478 . S
C798 C800 1.381 . S
C798 C804 1.383 . S
C799 C795 1.495 . S
C799 H805 0.959 . S
C799 H806 0.961 . S
C799 H807 0.960 . S
C800 C798 1.381 . S
C800 C801 1.394 . S
C800 H808 0.930 . S
C801 C800 1.394 . S
C801 C802 1.383 . S
C801 H809 0.929 . S
C802 C801 1.383 . S
C802 C803 1.377 . S
C803 H787 0.930 . S
C803 C802 1.377 . S
C803 C804 1.379 . S
C804 H788 0.931 . S
C804 C798 1.383 . S
C804 C803 1.379 . S
H805 C799 0.959 . S
H806 C799 0.961 . S
H807 C799 0.960 . S
H808 C800 0.930 . S
H809 C801 0.929 . S
H810 C818 0.929 . S
H811 C820 0.930 . S
H812 C822 0.930 . S
H813 C825 0.929 . S
H814 C828 0.930 . S
H815 C830 0.960 . S
H816 C830 0.960 . S
H817 C830 0.960 . S
C818 H810 0.929 . S
C818 C819 1.377 . S
C818 C820 1.384 . S
C819 C818 1.377 . S
C819 C825 1.390 . S
C820 H811 0.930 . S
C820 C818 1.384 . S
C820 C821 1.372 . S
C821 C820 1.372 . S
C821 C822 1.400 . S
C821 C826 1.490 . S
C822 H812 0.930 . S
C822 C821 1.400 . S
C822 C825 1.386 . S
H823 C839 0.930 . S
H824 C840 0.931 . S
C825 H813 0.929 . S
C825 C819 1.390 . S
C825 C822 1.386 . S
C826 C821 1.490 . S
C826 C828 1.395 . S
C826 C829 1.403 . S
H827 C833 0.930 . S
C828 H814 0.930 . S
C828 C826 1.395 . S
C828 C831 1.403 . S
C829 C826 1.403 . S
C829 C830 1.524 . S
C829 C833 1.400 . S
C830 H815 0.960 . S
C830 H816 0.960 . S
C830 H817 0.960 . S
C830 C829 1.524 . S
C831 C828 1.403 . S
C831 C832 1.392 . S
C831 C835 1.495 . S
C832 C831 1.392 . S
C832 C833 1.385 . S
C832 C834 1.478 . S
C833 H827 0.930 . S
C833 C829 1.400 . S
C833 C832 1.385 . S
C834 C832 1.478 . S
C834 C836 1.381 . S
C834 C840 1.383 . S
C835 C831 1.495 . S
C835 H841 0.959 . S
C835 H842 0.961 . S
C835 H843 0.960 . S
C836 C834 1.381 . S
C836 C837 1.394 . S
C836 H844 0.930 . S
C837 C836 1.394 . S
C837 C838 1.383 . S
C837 H845 0.929 . S
C838 C837 1.383 . S
C838 C839 1.377 . S
C839 H823 0.930 . S
C839 C838 1.377 . S
C839 C840 1.379 . S
C840 H824 0.931 . S
C840 C834 1.383 . S
C840 C839 1.379 . S
H841 C835 0.959 . S
H842 C835 0.961 . S
H843 C835 0.960 . S
H844 C836 0.930 . S
H845 C837 0.929 . S
H846 C854 0.929 . S
H847 C856 0.930 . S
H848 C858 0.930 . S
H849 C861 0.929 . S
H850 C864 0.930 . S
H851 C866 0.960 . S
H852 C866 0.960 . S
H853 C866 0.960 . S
C854 H846 0.929 . S
C854 C855 1.377 . S
C854 C856 1.384 . S
C855 C854 1.377 . S
C855 C861 1.390 . S
C856 H847 0.930 . S
C856 C854 1.384 . S
C856 C857 1.372 . S
C857 C856 1.372 . S
C857 C858 1.400 . S
C857 C862 1.490 . S
C858 H848 0.930 . S
C858 C857 1.400 . S
C858 C861 1.386 . S
H859 C875 0.930 . S
H860 C876 0.931 . S
C861 H849 0.929 . S
C861 C855 1.390 . S
C861 C858 1.386 . S
C862 C857 1.490 . S
C862 C864 1.395 . S
C862 C865 1.403 . S
H863 C869 0.930 . S
C864 H850 0.930 . S
C864 C862 1.395 . S
C864 C867 1.403 . S
C865 C862 1.403 . S
C865 C866 1.524 . S
C865 C869 1.400 . S
C866 H851 0.960 . S
C866 H852 0.960 . S
C866 H853 0.960 . S
C866 C865 1.524 . S
C867 C864 1.403 . S
C867 C868 1.392 . S
C867 C871 1.495 . S
C868 C867 1.392 . S
C868 C869 1.385 . S
C868 C870 1.478 . S
C869 H863 0.930 . S
C869 C865 1.400 . S
C869 C868 1.385 . S
C870 C868 1.478 . S
C870 C872 1.381 . S
C870 C876 1.383 . S
C871 C867 1.495 . S
C871 H877 0.959 . S
C871 H878 0.961 . S
C871 H879 0.960 . S
C872 C870 1.381 . S
C872 C873 1.394 . S
C872 H880 0.930 . S
C873 C872 1.394 . S
C873 C874 1.383 . S
C873 H881 0.929 . S
C874 C873 1.383 . S
C874 C875 1.377 . S
C875 H859 0.930 . S
C875 C874 1.377 . S
C875 C876 1.379 . S
C876 H860 0.931 . S
C876 C870 1.383 . S
C876 C875 1.379 . S
H877 C871 0.959 . S
H878 C871 0.961 . S
H879 C871 0.960 . S
H880 C872 0.930 . S
H881 C873 0.929 . S
H882 C890 0.929 . S
H883 C892 0.930 . S
H884 C894 0.930 . S
H885 C897 0.929 . S
H886 C900 0.930 . S
H887 C902 0.960 . S
H888 C902 0.960 . S
H889 C902 0.960 . S
C890 H882 0.929 . S
C890 C891 1.377 . S
C890 C892 1.384 . S
C891 C890 1.377 . S
C891 C897 1.390 . S
C892 H883 0.930 . S
C892 C890 1.384 . S
C892 C893 1.372 . S
C893 C892 1.372 . S
C893 C894 1.400 . S
C893 C898 1.490 . S
C894 H884 0.930 . S
C894 C893 1.400 . S
C894 C897 1.386 . S
H895 C911 0.930 . S
H896 C912 0.931 . S
C897 H885 0.929 . S
C897 C891 1.390 . S
C897 C894 1.386 . S
C898 C893 1.490 . S
C898 C900 1.395 . S
C898 C901 1.403 . S
H899 C905 0.930 . S
C900 H886 0.930 . S
C900 C898 1.395 . S
C900 C903 1.403 . S
C901 C898 1.403 . S
C901 C902 1.524 . S
C901 C905 1.400 . S
C902 H887 0.960 . S
C902 H888 0.960 . S
C902 H889 0.960 . S
C902 C901 1.524 . S
C903 C900 1.403 . S
C903 C904 1.392 . S
C903 C907 1.495 . S
C904 C903 1.392 . S
C904 C905 1.385 . S
C904 C906 1.478 . S
C905 H899 0.930 . S
C905 C901 1.400 . S
C905 C904 1.385 . S
C906 C904 1.478 . S
C906 C908 1.381 . S
C906 C912 1.383 . S
C907 C903 1.495 . S
C907 H913 0.959 . S
C907 H914 0.961 . S
C907 H915 0.960 . S
C908 C906 1.381 . S
C908 C909 1.394 . S
C908 H916 0.930 . S
C909 C908 1.394 . S
C909 C910 1.383 . S
C909 H917 0.929 . S
C910 C909 1.383 . S
C910 C911 1.377 . S
C911 H895 0.930 . S
C911 C910 1.377 . S
C911 C912 1.379 . S
C912 H896 0.931 . S
C912 C906 1.383 . S
C912 C911 1.379 . S
H913 C907 0.959 . S
H914 C907 0.961 . S
H915 C907 0.960 . S
H916 C908 0.930 . S
H917 C909 0.929 . S
H918 C926 0.929 . S
H919 C928 0.930 . S
H920 C930 0.930 . S
H921 C933 0.929 . S
H922 C936 0.930 . S
H923 C938 0.960 . S
H924 C938 0.960 . S
H925 C938 0.960 . S
C926 H918 0.929 . S
C926 C927 1.377 . S
C926 C928 1.384 . S
C927 C926 1.377 . S
C927 C933 1.390 . S
C928 H919 0.930 . S
C928 C926 1.384 . S
C928 C929 1.372 . S
C929 C928 1.372 . S
C929 C930 1.400 . S
C929 C934 1.490 . S
C930 H920 0.930 . S
C930 C929 1.400 . S
C930 C933 1.386 . S
H931 C947 0.930 . S
H932 C948 0.931 . S
C933 H921 0.929 . S
C933 C927 1.390 . S
C933 C930 1.386 . S
C934 C929 1.490 . S
C934 C936 1.395 . S
C934 C937 1.403 . S
H935 C941 0.930 . S
C936 H922 0.930 . S
C936 C934 1.395 . S
C936 C939 1.403 . S
C937 C934 1.403 . S
C937 C938 1.524 . S
C937 C941 1.400 . S
C938 H923 0.960 . S
C938 H924 0.960 . S
C938 H925 0.960 . S
C938 C937 1.524 . S
C939 C936 1.403 . S
C939 C940 1.392 . S
C939 C943 1.495 . S
C940 C939 1.392 . S
C940 C941 1.385 . S
C940 C942 1.478 . S
C941 H935 0.930 . S
C941 C937 1.400 . S
C941 C940 1.385 . S
C942 C940 1.478 . S
C942 C944 1.381 . S
C942 C948 1.383 . S
C943 C939 1.495 . S
C943 H949 0.959 . S
C943 H950 0.961 . S
C943 H951 0.960 . S
C944 C942 1.381 . S
C944 C945 1.394 . S
C944 H952 0.930 . S
C945 C944 1.394 . S
C945 C946 1.383 . S
C945 H953 0.929 . S
C946 C945 1.383 . S
C946 C947 1.377 . S
C947 H931 0.930 . S
C947 C946 1.377 . S
C947 C948 1.379 . S
C948 H932 0.931 . S
C948 C942 1.383 . S
C948 C947 1.379 . S
H949 C943 0.959 . S
H950 C943 0.961 . S
H951 C943 0.960 . S
H952 C944 0.930 . S
H953 C945 0.929 . S
H954 C962 0.929 . S
H955 C964 0.930 . S
H956 C966 0.930 . S
H957 C969 0.929 . S
H958 C972 0.930 . S
H959 C974 0.960 . S
H960 C974 0.960 . S
H961 C974 0.960 . S
C962 H954 0.929 . S
C962 C963 1.377 . S
C962 C964 1.384 . S
C963 C962 1.377 . S
C963 C969 1.390 . S
C964 H955 0.930 . S
C964 C962 1.384 . S
C964 C965 1.372 . S
C965 C964 1.372 . S
C965 C966 1.400 . S
C965 C970 1.490 . S
C966 H956 0.930 . S
C966 C965 1.400 . S
C966 C969 1.386 . S
H967 C983 0.930 . S
H968 C984 0.931 . S
C969 H957 0.929 . S
C969 C963 1.390 . S
C969 C966 1.386 . S
C970 C965 1.490 . S
C970 C972 1.395 . S
C970 C973 1.403 . S
H971 C977 0.930 . S
C972 H958 0.930 . S
C972 C970 1.395 . S
C972 C975 1.403 . S
C973 C970 1.403 . S
C973 C974 1.524 . S
C973 C977 1.400 . S
C974 H959 0.960 . S
C974 H960 0.960 . S
C974 H961 0.960 . S
C974 C973 1.524 . S
C975 C972 1.403 . S
C975 C976 1.392 . S
C975 C979 1.495 . S
C976 C975 1.392 . S
C976 C977 1.385 . S
C976 C978 1.478 . S
C977 H971 0.930 . S
C977 C973 1.400 . S
C977 C976 1.385 . S
C978 C976 1.478 . S
C978 C980 1.381 . S
C978 C984 1.383 . S
C979 C975 1.495 . S
C979 H985 0.959 . S
C979 H986 0.961 . S
C979 H987 0.960 . S
C980 C978 1.381 . S
C980 C981 1.394 . S
C980 H988 0.930 . S
C981 C980 1.394 . S
C981 C982 1.383 . S
C981 H989 0.929 . S
C982 C981 1.383 . S
C982 C983 1.377 . S
C983 H967 0.930 . S
C983 C982 1.377 . S
C983 C984 1.379 . S
C984 H968 0.931 . S
C984 C978 1.383 . S
C984 C983 1.379 . S
H985 C979 0.959 . S
H986 C979 0.961 . S
H987 C979 0.960 . S
H988 C980 0.930 . S
H989 C981 0.929 . S
H990 C998 0.929 . S
H991 C1000 0.930 . S
H992 C1002 0.930 . S
H993 C1005 0.929 . S
H994 C1008 0.930 . S
H995 C1010 0.960 . S
H996 C1010 0.960 . S
H997 C1010 0.960 . S
C998 H990 0.929 . S
C998 C999 1.377 . S
C998 C1000 1.384 . S
C999 C998 1.377 . S
C999 C1005 1.390 . S
C1000 H991 0.930 . S
C1000 C998 1.384 . S
C1000 C1001 1.372 . S
C1001 C1000 1.372 . S
C1001 C1002 1.400 . S
C1001 C1006 1.490 . S
C1002 H992 0.930 . S
C1002 C1001 1.400 . S
C1002 C1005 1.386 . S
H1003 C1019 0.930 . S
H1004 C1020 0.931 . S
C1005 H993 0.929 . S
C1005 C999 1.390 . S
C1005 C1002 1.386 . S
C1006 C1001 1.490 . S
C1006 C1008 1.395 . S
C1006 C1009 1.403 . S
H1007 C1013 0.930 . S
C1008 H994 0.930 . S
C1008 C1006 1.395 . S
C1008 C1011 1.403 . S
C1009 C1006 1.403 . S
C1009 C1010 1.524 . S
C1009 C1013 1.400 . S
C1010 H995 0.960 . S
C1010 H996 0.960 . S
C1010 H997 0.960 . S
C1010 C1009 1.524 . S
C1011 C1008 1.403 . S
C1011 C1012 1.392 . S
C1011 C1015 1.495 . S
C1012 C1011 1.392 . S
C1012 C1013 1.385 . S
C1012 C1014 1.478 . S
C1013 H1007 0.930 . S
C1013 C1009 1.400 . S
C1013 C1012 1.385 . S
C1014 C1012 1.478 . S
C1014 C1016 1.381 . S
C1014 C1020 1.383 . S
C1015 C1011 1.495 . S
C1015 H1021 0.959 . S
C1015 H1022 0.961 . S
C1015 H1023 0.960 . S
C1016 C1014 1.381 . S
C1016 C1017 1.394 . S
C1016 H1024 0.930 . S
C1017 C1016 1.394 . S
C1017 C1018 1.383 . S
C1017 H1025 0.929 . S
C1018 C1017 1.383 . S
C1018 C1019 1.377 . S
C1019 H1003 0.930 . S
C1019 C1018 1.377 . S
C1019 C1020 1.379 . S
C1020 H1004 0.931 . S
C1020 C1014 1.383 . S
C1020 C1019 1.379 . S
H1021 C1015 0.959 . S
H1022 C1015 0.961 . S
H1023 C1015 0.960 . S
H1024 C1016 0.930 . S
H1025 C1017 0.929 . S
H1026 C1034 0.929 . S
H1027 C1036 0.930 . S
H1028 C1038 0.930 . S
H1029 C1041 0.929 . S
H1030 C1044 0.930 . S
H1031 C1046 0.960 . S
H1032 C1046 0.960 . S
H1033 C1046 0.960 . S
C1034 H1026 0.929 . S
C1034 C1035 1.377 . S
C1034 C1036 1.384 . S
C1035 C1034 1.377 . S
C1035 C1041 1.390 . S
C1036 H1027 0.930 . S
C1036 C1034 1.384 . S
C1036 C1037 1.372 . S
C1037 C1036 1.372 . S
C1037 C1038 1.400 . S
C1037 C1042 1.490 . S
C1038 H1028 0.930 . S
C1038 C1037 1.400 . S
C1038 C1041 1.386 . S
H1039 C1055 0.930 . S
H1040 C1056 0.931 . S
C1041 H1029 0.929 . S
C1041 C1035 1.390 . S
C1041 C1038 1.386 . S
C1042 C1037 1.490 . S
C1042 C1044 1.395 . S
C1042 C1045 1.403 . S
H1043 C1049 0.930 . S
C1044 H1030 0.930 . S
C1044 C1042 1.395 . S
C1044 C1047 1.403 . S
C1045 C1042 1.403 . S
C1045 C1046 1.524 . S
C1045 C1049 1.400 . S
C1046 H1031 0.960 . S
C1046 H1032 0.960 . S
C1046 H1033 0.960 . S
C1046 C1045 1.524 . S
C1047 C1044 1.403 . S
C1047 C1048 1.392 . S
C1047 C1051 1.495 . S
C1048 C1047 1.392 . S
C1048 C1049 1.385 . S
C1048 C1050 1.478 . S
C1049 H1043 0.930 . S
C1049 C1045 1.400 . S
C1049 C1048 1.385 . S
C1050 C1048 1.478 . S
C1050 C1052 1.381 . S
C1050 C1056 1.383 . S
C1051 C1047 1.495 . S
C1051 H1057 0.959 . S
C1051 H1058 0.961 . S
C1051 H1059 0.960 . S
C1052 C1050 1.381 . S
C1052 C1053 1.394 . S
C1052 H1060 0.930 . S
C1053 C1052 1.394 . S
C1053 C1054 1.383 . S
C1053 H1061 0.929 . S
C1054 C1053 1.383 . S
C1054 C1055 1.377 . S
C1055 H1039 0.930 . S
C1055 C1054 1.377 . S
C1055 C1056 1.379 . S
C1056 H1040 0.931 . S
C1056 C1050 1.383 . S
C1056 C1055 1.379 . S
H1057 C1051 0.959 . S
H1058 C1051 0.961 . S
H1059 C1051 0.960 . S
H1060 C1052 0.930 . S
H1061 C1053 0.929 . S
H1062 C1070 0.929 . S
H1063 C1072 0.930 . S
H1064 C1074 0.930 . S
H1065 C1077 0.929 . S
H1066 C1080 0.930 . S
H1067 C1082 0.960 . S
H1068 C1082 0.960 . S
H1069 C1082 0.960 . S
C1070 H1062 0.929 . S
C1070 C1071 1.377 . S
C1070 C1072 1.384 . S
C1071 C1070 1.377 . S
C1071 C1077 1.390 . S
C1072 H1063 0.930 . S
C1072 C1070 1.384 . S
C1072 C1073 1.372 . S
C1073 C1072 1.372 . S
C1073 C1074 1.400 . S
C1073 C1078 1.490 . S
C1074 H1064 0.930 . S
C1074 C1073 1.400 . S
C1074 C1077 1.386 . S
H1075 C1091 0.930 . S
H1076 C1092 0.931 . S
C1077 H1065 0.929 . S
C1077 C1071 1.390 . S
C1077 C1074 1.386 . S
C1078 C1073 1.490 . S
C1078 C1080 1.395 . S
C1078 C1081 1.403 . S
H1079 C1085 0.930 . S
C1080 H1066 0.930 . S
C1080 C1078 1.395 . S
C1080 C1083 1.403 . S
C1081 C1078 1.403 . S
C1081 C1082 1.524 . S
C1081 C1085 1.400 . S
C1082 H1067 0.960 . S
C1082 H1068 0.960 . S
C1082 H1069 0.960 . S
C1082 C1081 1.524 . S
C1083 C1080 1.403 . S
C1083 C1084 1.392 . S
C1083 C1087 1.495 . S
C1084 C1083 1.392 . S
C1084 C1085 1.385 . S
C1084 C1086 1.478 . S
C1085 H1079 0.930 . S
C1085 C1081 1.400 . S
C1085 C1084 1.385 . S
C1086 C1084 1.478 . S
C1086 C1088 1.381 . S
C1086 C1092 1.383 . S
C1087 C1083 1.495 . S
C1087 H1093 0.959 . S
C1087 H1094 0.961 . S
C1087 H1095 0.960 . S
C1088 C1086 1.381 . S
C1088 C1089 1.394 . S
C1088 H1096 0.930 . S
C1089 C1088 1.394 . S
C1089 C1090 1.383 . S
C1089 H1097 0.929 . S
C1090 C1089 1.383 . S
C1090 C1091 1.377 . S
C1091 H1075 0.930 . S
C1091 C1090 1.377 . S
C1091 C1092 1.379 . S
C1092 H1076 0.931 . S
C1092 C1086 1.383 . S
C1092 C1091 1.379 . S
H1093 C1087 0.959 . S
H1094 C1087 0.961 . S
H1095 C1087 0.960 . S
H1096 C1088 0.930 . S
H1097 C1089 0.929 . S
H1098 C1106 0.929 . S
H1099 C1108 0.930 . S
H1100 C1110 0.930 . S
H1101 C1113 0.929 . S
H1102 C1116 0.930 . S
H1103 C1118 0.960 . S
H1104 C1118 0.960 . S
H1105 C1118 0.960 . S
C1106 H1098 0.929 . S
C1106 C1107 1.377 . S
C1106 C1108 1.384 . S
C1107 C1106 1.377 . S
C1107 C1113 1.390 . S
C1108 H1099 0.930 . S
C1108 C1106 1.384 . S
C1108 C1109 1.372 . S
C1109 C1108 1.372 . S
C1109 C1110 1.400 . S
C1109 C1114 1.490 . S
C1110 H1100 0.930 . S
C1110 C1109 1.400 . S
C1110 C1113 1.386 . S
H1111 C1127 0.930 . S
H1112 C1128 0.931 . S
C1113 H1101 0.929 . S
C1113 C1107 1.390 . S
C1113 C1110 1.386 . S
C1114 C1109 1.490 . S
C1114 C1116 1.395 . S
C1114 C1117 1.403 . S
H1115 C1121 0.930 . S
C1116 H1102 0.930 . S
C1116 C1114 1.395 . S
C1116 C1119 1.403 . S
C1117 C1114 1.403 . S
C1117 C1118 1.524 . S
C1117 C1121 1.400 . S
C1118 H1103 0.960 . S
C1118 H1104 0.960 . S
C1118 H1105 0.960 . S
C1118 C1117 1.524 . S
C1119 C1116 1.403 . S
C1119 C1120 1.392 . S
C1119 C1123 1.495 . S
C1120 C1119 1.392 . S
C1120 C1121 1.385 . S
C1120 C1122 1.478 . S
C1121 H1115 0.930 . S
C1121 C1117 1.400 . S
C1121 C1120 1.385 . S
C1122 C1120 1.478 . S
C1122 C1124 1.381 . S
C1122 C1128 1.383 . S
C1123 C1119 1.495 . S
C1123 H1129 0.959 . S
C1123 H1130 0.961 . S
C1123 H1131 0.960 . S
C1124 C1122 1.381 . S
C1124 C1125 1.394 . S
C1124 H1132 0.930 . S
C1125 C1124 1.394 . S
C1125 C1126 1.383 . S
C1125 H1133 0.929 . S
C1126 C1125 1.383 . S
C1126 C1127 1.377 . S
C1127 H1111 0.930 . S
C1127 C1126 1.377 . S
C1127 C1128 1.379 . S
C1128 H1112 0.931 . S
C1128 C1122 1.383 . S
C1128 C1127 1.379 . S
H1129 C1123 0.959 . S
H1130 C1123 0.961 . S
H1131 C1123 0.960 . S
H1132 C1124 0.930 . S
H1133 C1125 0.929 . S
H1134 C1142 0.929 . S
H1135 C1144 0.930 . S
H1136 C1146 0.930 . S
H1137 C1149 0.929 . S
H1138 C1152 0.930 . S
H1139 C1154 0.960 . S
H1140 C1154 0.960 . S
H1141 C1154 0.960 . S
C1142 H1134 0.929 . S
C1142 C1143 1.377 . S
C1142 C1144 1.384 . S
C1143 C1142 1.377 . S
C1143 C1149 1.390 . S
C1144 H1135 0.930 . S
C1144 C1142 1.384 . S
C1144 C1145 1.372 . S
C1145 C1144 1.372 . S
C1145 C1146 1.400 . S
C1145 C1150 1.490 . S
C1146 H1136 0.930 . S
C1146 C1145 1.400 . S
C1146 C1149 1.386 . S
H1147 C1163 0.930 . S
H1148 C1164 0.931 . S
C1149 H1137 0.929 . S
C1149 C1143 1.390 . S
C1149 C1146 1.386 . S
C1150 C1145 1.490 . S
C1150 C1152 1.395 . S
C1150 C1153 1.403 . S
H1151 C1157 0.930 . S
C1152 H1138 0.930 . S
C1152 C1150 1.395 . S
C1152 C1155 1.403 . S
C1153 C1150 1.403 . S
C1153 C1154 1.524 . S
C1153 C1157 1.400 . S
C1154 H1139 0.960 . S
C1154 H1140 0.960 . S
C1154 H1141 0.960 . S
C1154 C1153 1.524 . S
C1155 C1152 1.403 . S
C1155 C1156 1.392 . S
C1155 C1159 1.495 . S
C1156 C1155 1.392 . S
C1156 C1157 1.385 . S
C1156 C1158 1.478 . S
C1157 H1151 0.930 . S
C1157 C1153 1.400 . S
C1157 C1156 1.385 . S
C1158 C1156 1.478 . S
C1158 C1160 1.381 . S
C1158 C1164 1.383 . S
C1159 C1155 1.495 . S
C1159 H1165 0.959 . S
C1159 H1166 0.961 . S
C1159 H1167 0.960 . S
C1160 C1158 1.381 . S
C1160 C1161 1.394 . S
C1160 H1168 0.930 . S
C1161 C1160 1.394 . S
C1161 C1162 1.383 . S
C1161 H1169 0.929 . S
C1162 C1161 1.383 . S
C1162 C1163 1.377 . S
C1163 H1147 0.930 . S
C1163 C1162 1.377 . S
C1163 C1164 1.379 . S
C1164 H1148 0.931 . S
C1164 C1158 1.383 . S
C1164 C1163 1.379 . S
H1165 C1159 0.959 . S
H1166 C1159 0.961 . S
H1167 C1159 0.960 . S
H1168 C1160 0.930 . S
H1169 C1161 0.929 . S
H1170 C1178 0.929 . S
H1171 C1180 0.930 . S
H1172 C1182 0.930 . S
H1173 C1185 0.929 . S
H1174 C1188 0.930 . S
H1175 C1190 0.960 . S
H1176 C1190 0.960 . S
H1177 C1190 0.960 . S
C1178 H1170 0.929 . S
C1178 C1179 1.377 . S
C1178 C1180 1.384 . S
C1179 C1178 1.377 . S
C1179 C1185 1.390 . S
C1180 H1171 0.930 . S
C1180 C1178 1.384 . S
C1180 C1181 1.372 . S
C1181 C1180 1.372 . S
C1181 C1182 1.400 . S
C1181 C1186 1.490 . S
C1182 H1172 0.930 . S
C1182 C1181 1.400 . S
C1182 C1185 1.386 . S
H1183 C1199 0.930 . S
H1184 C1200 0.931 . S
C1185 H1173 0.929 . S
C1185 C1179 1.390 . S
C1185 C1182 1.386 . S
C1186 C1181 1.490 . S
C1186 C1188 1.395 . S
C1186 C1189 1.403 . S
H1187 C1193 0.930 . S
C1188 H1174 0.930 . S
C1188 C1186 1.395 . S
C1188 C1191 1.403 . S
C1189 C1186 1.403 . S
C1189 C1190 1.524 . S
C1189 C1193 1.400 . S
C1190 H1175 0.960 . S
C1190 H1176 0.960 . S
C1190 H1177 0.960 . S
C1190 C1189 1.524 . S
C1191 C1188 1.403 . S
C1191 C1192 1.392 . S
C1191 C1195 1.495 . S
C1192 C1191 1.392 . S
C1192 C1193 1.385 . S
C1192 C1194 1.478 . S
C1193 H1187 0.930 . S
C1193 C1189 1.400 . S
C1193 C1192 1.385 . S
C1194 C1192 1.478 . S
C1194 C1196 1.381 . S
C1194 C1200 1.383 . S
C1195 C1191 1.495 . S
C1195 H1201 0.959 . S
C1195 H1202 0.961 . S
C1195 H1203 0.960 . S
C1196 C1194 1.381 . S
C1196 C1197 1.394 . S
C1196 H1204 0.930 . S
C1197 C1196 1.394 . S
C1197 C1198 1.383 . S
C1197 H1205 0.929 . S
C1198 C1197 1.383 . S
C1198 C1199 1.377 . S
C1199 H1183 0.930 . S
C1199 C1198 1.377 . S
C1199 C1200 1.379 . S
C1200 H1184 0.931 . S
C1200 C1194 1.383 . S
C1200 C1199 1.379 . S
H1201 C1195 0.959 . S
H1202 C1195 0.961 . S
H1203 C1195 0.960 . S
H1204 C1196 0.930 . S
H1205 C1197 0.929 . S
H1206 C1214 0.929 . S
H1207 C1216 0.930 . S
H1208 C1218 0.930 . S
H1209 C1221 0.929 . S
H1210 C1224 0.930 . S
H1211 C1226 0.960 . S
H1212 C1226 0.960 . S
H1213 C1226 0.960 . S
C1214 H1206 0.929 . S
C1214 C1215 1.377 . S
C1214 C1216 1.384 . S
C1215 C1214 1.377 . S
C1215 C1221 1.390 . S
C1216 H1207 0.930 . S
C1216 C1214 1.384 . S
C1216 C1217 1.372 . S
C1217 C1216 1.372 . S
C1217 C1218 1.400 . S
C1217 C1222 1.490 . S
C1218 H1208 0.930 . S
C1218 C1217 1.400 . S
C1218 C1221 1.386 . S
H1219 C1235 0.930 . S
H1220 C1236 0.931 . S
C1221 H1209 0.929 . S
C1221 C1215 1.390 . S
C1221 C1218 1.386 . S
C1222 C1217 1.490 . S
C1222 C1224 1.395 . S
C1222 C1225 1.403 . S
H1223 C1229 0.930 . S
C1224 H1210 0.930 . S
C1224 C1222 1.395 . S
C1224 C1227 1.403 1_554 S
C1225 C1222 1.403 . S
C1225 C1226 1.524 . S
C1225 C1229 1.400 1_554 S
C1226 H1211 0.960 . S
C1226 H1212 0.960 . S
C1226 H1213 0.960 . S
C1226 C1225 1.524 . S
C1227 C1224 1.403 1_556 S
C1227 C1228 1.392 . S
C1227 C1231 1.495 . S
C1228 C1227 1.392 . S
C1228 C1229 1.385 . S
C1228 C1230 1.478 . S
C1229 H1223 0.930 . S
C1229 C1225 1.400 1_556 S
C1229 C1228 1.385 . S
C1230 C1228 1.478 . S
C1230 C1232 1.381 . S
C1230 C1236 1.383 . S
C1231 C1227 1.495 . S
C1231 H1237 0.959 . S
C1231 H1238 0.961 . S
C1231 H1239 0.960 . S
C1232 C1230 1.381 . S
C1232 C1233 1.394 . S
C1232 H1240 0.930 . S
C1233 C1232 1.394 . S
C1233 C1234 1.383 . S
C1233 H1241 0.929 . S
C1234 C1233 1.383 . S
C1234 C1235 1.377 . S
C1235 H1219 0.930 . S
C1235 C1234 1.377 . S
C1235 C1236 1.379 . S
C1236 H1220 0.931 . S
C1236 C1230 1.383 . S
C1236 C1235 1.379 . S
H1237 C1231 0.959 . S
H1238 C1231 0.961 . S
H1239 C1231 0.960 . S
H1240 C1232 0.930 . S
H1241 C1233 0.929 . S
H1242 C1250 0.929 . S
H1243 C1252 0.930 . S
H1244 C1254 0.930 . S
H1245 C1257 0.929 . S
H1246 C1260 0.930 . S
H1247 C1262 0.960 . S
H1248 C1262 0.960 . S
H1249 C1262 0.960 . S
C1250 H1242 0.929 . S
C1250 C1251 1.377 . S
C1250 C1252 1.384 . S
C1251 C1250 1.377 . S
C1251 C1257 1.390 1_545 S
C1252 H1243 0.930 . S
C1252 C1250 1.384 . S
C1252 C1253 1.372 . S
C1253 C1252 1.372 . S
C1253 C1254 1.400 1_545 S
C1253 C1258 1.490 . S
C1254 H1244 0.930 . S
C1254 C1253 1.400 1_565 S
C1254 C1257 1.386 . S
H1255 C1271 0.930 . S
H1256 C1272 0.931 . S
C1257 H1245 0.929 . S
C1257 C1251 1.390 1_565 S
C1257 C1254 1.386 . S
C1258 C1253 1.490 . S
C1258 C1260 1.395 . S
C1258 C1261 1.403 1_545 S
H1259 C1265 0.930 . S
C1260 H1246 0.930 . S
C1260 C1258 1.395 . S
C1260 C1263 1.403 1_556 S
C1261 C1258 1.403 1_565 S
C1261 C1262 1.524 . S
C1261 C1265 1.400 1_556 S
C1262 H1247 0.960 . S
C1262 H1248 0.960 . S
C1262 H1249 0.960 . S
C1262 C1261 1.524 . S
C1263 C1260 1.403 1_554 S
C1263 C1264 1.392 . S
C1263 C1267 1.495 . S
C1264 C1263 1.392 . S
C1264 C1265 1.385 1_545 S
C1264 C1266 1.478 . S
C1265 H1259 0.930 . S
C1265 C1261 1.400 1_554 S
C1265 C1264 1.385 1_565 S
C1266 C1264 1.478 . S
C1266 C1268 1.381 . S
C1266 C1272 1.383 1_545 S
C1267 C1263 1.495 . S
C1267 H1273 0.959 . S
C1267 H1274 0.961 . S
C1267 H1275 0.960 . S
C1268 C1266 1.381 . S
C1268 C1269 1.394 . S
C1268 H1276 0.930 . S
C1269 C1268 1.394 . S
C1269 C1270 1.383 . S
C1269 H1277 0.929 . S
C1270 C1269 1.383 . S
C1270 C1271 1.377 1_545 S
C1271 H1255 0.930 . S
C1271 C1270 1.377 1_565 S
C1271 C1272 1.379 . S
C1272 H1256 0.931 . S
C1272 C1266 1.383 1_565 S
C1272 C1271 1.379 . S
H1273 C1267 0.959 . S
H1274 C1267 0.961 . S
H1275 C1267 0.960 . S
H1276 C1268 0.930 . S
H1277 C1269 0.929 . S
H1278 C1286 0.929 . S
H1279 C1288 0.930 . S
H1280 C1290 0.930 . S
H1281 C1293 0.929 . S
H1282 C1296 0.930 . S
H1283 C1298 0.960 . S
H1284 C1298 0.960 . S
H1285 C1298 0.960 . S
C1286 H1278 0.929 . S
C1286 C1287 1.377 1_655 S
C1286 C1288 1.384 . S
C1287 C1286 1.377 1_455 S
C1287 C1293 1.390 . S
C1288 H1279 0.930 . S
C1288 C1286 1.384 . S
C1288 C1289 1.372 1_655 S
C1289 C1288 1.372 1_455 S
C1289 C1290 1.400 . S
C1289 C1294 1.490 . S
C1290 H1280 0.930 . S
C1290 C1289 1.400 . S
C1290 C1293 1.386 . S
H1291 C1307 0.930 . S
H1292 C1308 0.931 . S
C1293 H1281 0.929 . S
C1293 C1287 1.390 . S
C1293 C1290 1.386 . S
C1294 C1289 1.490 . S
C1294 C1296 1.395 1_455 S
C1294 C1297 1.403 . S
H1295 C1301 0.930 . S
C1296 H1282 0.930 . S
C1296 C1294 1.395 1_655 S
C1296 C1299 1.403 1_556 S
C1297 C1294 1.403 . S
C1297 C1298 1.524 . S
C1297 C1301 1.400 1_556 S
C1298 H1283 0.960 . S
C1298 H1284 0.960 . S
C1298 H1285 0.960 . S
C1298 C1297 1.524 . S
C1299 C1296 1.403 1_554 S
C1299 C1300 1.389 . S
C1299 C1303 1.495 . S
C1300 C1299 1.389 . S
C1300 C1301 1.388 1_655 S
C1300 C1302 1.477 1_655 S
C1301 H1295 0.930 . S
C1301 C1297 1.400 1_554 S
C1301 C1300 1.388 1_455 S
C1302 C1300 1.477 1_455 S
C1302 C1304 1.347 1_455 S
C1302 C1308 1.420 . S
C1303 C1299 1.495 . S
C1303 H1309 0.959 . S
C1303 H1310 0.961 . S
C1303 H1311 0.960 . S
C1304 C1302 1.347 1_655 S
C1304 C1305 1.394 . S
C1304 H1312 0.930 . S
C1305 C1304 1.394 . S
C1305 C1306 1.383 1_655 S
C1305 H1313 0.929 . S
C1306 C1305 1.383 1_455 S
C1306 C1307 1.377 . S
C1307 H1291 0.930 . S
C1307 C1306 1.377 . S
C1307 C1308 1.379 . S
C1308 H1292 0.931 . S
C1308 C1302 1.420 . S
C1308 C1307 1.379 . S
H1309 C1303 0.959 . S
H1310 C1303 0.961 . S
H1311 C1303 0.960 . S
H1312 C1304 0.930 . S
H1313 C1305 0.929 . S
H1314 C1322 0.929 . S
H1315 C1324 0.930 . S
H1316 C1326 0.930 . S
H1317 C1329 0.929 . S
H1318 C1332 0.930 . S
H1319 C1334 0.960 . S
H1320 C1334 0.960 . S
H1321 C1334 0.960 . S
C1322 H1314 0.929 . S
C1322 C1323 1.377 . S
C1322 C1324 1.384 . S
C1323 C1322 1.377 . S
C1323 C1329 1.390 . S
C1324 H1315 0.930 . S
C1324 C1322 1.384 . S
C1324 C1325 1.372 . S
C1325 C1324 1.372 . S
C1325 C1326 1.400 . S
C1325 C1330 1.490 . S
C1326 H1316 0.930 . S
C1326 C1325 1.400 . S
C1326 C1329 1.386 . S
H1327 C1343 0.930 . S
H1328 C1344 0.931 . S
C1329 H1317 0.929 . S
C1329 C1323 1.390 . S
C1329 C1326 1.386 . S
C1330 C1325 1.490 . S
C1330 C1332 1.395 . S
C1330 C1333 1.403 . S
H1331 C1337 0.930 . S
C1332 H1318 0.930 . S
C1332 C1330 1.395 . S
C1332 C1335 1.403 . S
C1333 C1330 1.403 . S
C1333 C1334 1.524 . S
C1333 C1337 1.400 . S
C1334 H1319 0.960 . S
C1334 H1320 0.960 . S
C1334 H1321 0.960 . S
C1334 C1333 1.524 . S
C1335 C1332 1.403 . S
C1335 C1336 1.392 . S
C1335 C1339 1.495 . S
C1336 C1335 1.392 . S
C1336 C1337 1.385 . S
C1336 C1338 1.478 . S
C1337 H1331 0.930 . S
C1337 C1333 1.400 . S
C1337 C1336 1.385 . S
C1338 C1336 1.478 . S
C1338 C1340 1.381 . S
C1338 C1344 1.383 . S
C1339 C1335 1.495 . S
C1339 H1345 0.959 . S
C1339 H1346 0.961 . S
C1339 H1347 0.960 . S
C1340 C1338 1.381 . S
C1340 C1341 1.394 . S
C1340 H1348 0.930 . S
C1341 C1340 1.394 . S
C1341 C1342 1.383 . S
C1341 H1349 0.929 . S
C1342 C1341 1.383 . S
C1342 C1343 1.377 . S
C1343 H1327 0.930 . S
C1343 C1342 1.377 . S
C1343 C1344 1.379 . S
C1344 H1328 0.931 . S
C1344 C1338 1.383 . S
C1344 C1343 1.379 . S
H1345 C1339 0.959 . S
H1346 C1339 0.961 . S
H1347 C1339 0.960 . S
H1348 C1340 0.930 . S
H1349 C1341 0.929 . S
H1350 C1358 0.929 . S
H1351 C1360 0.930 . S
H1352 C1362 0.930 . S
H1353 C1365 0.929 . S
H1354 C1368 0.930 . S
H1355 C1370 0.960 . S
H1356 C1370 0.960 . S
H1357 C1370 0.960 . S
C1358 H1350 0.929 . S
C1358 C1359 1.377 . S
C1358 C1360 1.384 . S
C1359 C1358 1.377 . S
C1359 C1365 1.390 . S
C1360 H1351 0.930 . S
C1360 C1358 1.384 . S
C1360 C1361 1.372 . S
C1361 C1360 1.372 . S
C1361 C1362 1.400 . S
C1361 C1366 1.490 . S
C1362 H1352 0.930 . S
C1362 C1361 1.400 . S
C1362 C1365 1.386 . S
H1363 C1379 0.930 . S
H1364 C1380 0.931 . S
C1365 H1353 0.929 . S
C1365 C1359 1.390 . S
C1365 C1362 1.386 . S
C1366 C1361 1.490 . S
C1366 C1368 1.395 . S
C1366 C1369 1.403 . S
H1367 C1373 0.930 . S
C1368 H1354 0.930 . S
C1368 C1366 1.395 . S
C1368 C1371 1.403 . S
C1369 C1366 1.403 . S
C1369 C1370 1.524 . S
C1369 C1373 1.400 . S
C1370 H1355 0.960 . S
C1370 H1356 0.960 . S
C1370 H1357 0.960 . S
C1370 C1369 1.524 . S
C1371 C1368 1.403 . S
C1371 C1372 1.392 . S
C1371 C1375 1.495 . S
C1372 C1371 1.392 . S
C1372 C1373 1.385 . S
C1372 C1374 1.478 . S
C1373 H1367 0.930 . S
C1373 C1369 1.400 . S
C1373 C1372 1.385 . S
C1374 C1372 1.478 . S
C1374 C1376 1.381 . S
C1374 C1380 1.383 . S
C1375 C1371 1.495 . S
C1375 H1381 0.959 . S
C1375 H1382 0.961 . S
C1375 H1383 0.960 . S
C1376 C1374 1.381 . S
C1376 C1377 1.394 . S
C1376 H1384 0.930 . S
C1377 C1376 1.394 . S
C1377 C1378 1.383 . S
C1377 H1385 0.929 . S
C1378 C1377 1.383 . S
C1378 C1379 1.377 . S
C1379 H1363 0.930 . S
C1379 C1378 1.377 . S
C1379 C1380 1.379 . S
C1380 H1364 0.931 . S
C1380 C1374 1.383 . S
C1380 C1379 1.379 . S
H1381 C1375 0.959 . S
H1382 C1375 0.961 . S
H1383 C1375 0.960 . S
H1384 C1376 0.930 . S
H1385 C1377 0.929 . S
H1386 C1394 0.929 . S
H1387 C1396 0.930 . S
H1388 C1398 0.930 . S
H1389 C1401 0.929 . S
H1390 C1404 0.930 . S
H1391 C1406 0.960 . S
H1392 C1406 0.960 . S
H1393 C1406 0.960 . S
C1394 H1386 0.929 . S
C1394 C1395 1.377 . S
C1394 C1396 1.384 . S
C1395 C1394 1.377 . S
C1395 C1401 1.390 . S
C1396 H1387 0.930 . S
C1396 C1394 1.384 . S
C1396 C1397 1.372 . S
C1397 C1396 1.372 . S
C1397 C1398 1.400 . S
C1397 C1402 1.490 . S
C1398 H1388 0.930 . S
C1398 C1397 1.400 . S
C1398 C1401 1.386 . S
H1399 C1415 0.930 . S
H1400 C1416 0.931 . S
C1401 H1389 0.929 . S
C1401 C1395 1.390 . S
C1401 C1398 1.386 . S
C1402 C1397 1.490 . S
C1402 C1404 1.395 . S
C1402 C1405 1.403 . S
H1403 C1409 0.930 . S
C1404 H1390 0.930 . S
C1404 C1402 1.395 . S
C1404 C1407 1.403 . S
C1405 C1402 1.403 . S
C1405 C1406 1.524 . S
C1405 C1409 1.400 . S
C1406 H1391 0.960 . S
C1406 H1392 0.960 . S
C1406 H1393 0.960 . S
C1406 C1405 1.524 . S
C1407 C1404 1.403 . S
C1407 C1408 1.392 . S
C1407 C1411 1.495 . S
C1408 C1407 1.392 . S
C1408 C1409 1.385 . S
C1408 C1410 1.478 . S
C1409 H1403 0.930 . S
C1409 C1405 1.400 . S
C1409 C1408 1.385 . S
C1410 C1408 1.478 . S
C1410 C1412 1.381 . S
C1410 C1416 1.383 . S
C1411 C1407 1.495 . S
C1411 H1417 0.959 . S
C1411 H1418 0.961 . S
C1411 H1419 0.960 . S
C1412 C1410 1.381 . S
C1412 C1413 1.394 . S
C1412 H1420 0.930 . S
C1413 C1412 1.394 . S
C1413 C1414 1.383 . S
C1413 H1421 0.929 . S
C1414 C1413 1.383 . S
C1414 C1415 1.377 . S
C1415 H1399 0.930 . S
C1415 C1414 1.377 . S
C1415 C1416 1.379 . S
C1416 H1400 0.931 . S
C1416 C1410 1.383 . S
C1416 C1415 1.379 . S
H1417 C1411 0.959 . S
H1418 C1411 0.961 . S
H1419 C1411 0.960 . S
H1420 C1412 0.930 . S
H1421 C1413 0.929 . S
H1422 C1430 0.929 . S
H1423 C1432 0.930 . S
H1424 C1434 0.930 . S
H1425 C1437 0.929 . S
H1426 C1440 0.930 . S
H1427 C1442 0.960 . S
H1428 C1442 0.960 . S
H1429 C1442 0.960 . S
C1430 H1422 0.929 . S
C1430 C1431 1.377 . S
C1430 C1432 1.384 . S
C1431 C1430 1.377 . S
C1431 C1437 1.390 . S
C1432 H1423 0.930 . S
C1432 C1430 1.384 . S
C1432 C1433 1.372 . S
C1433 C1432 1.372 . S
C1433 C1434 1.400 . S
C1433 C1438 1.490 . S
C1434 H1424 0.930 . S
C1434 C1433 1.400 . S
C1434 C1437 1.386 . S
H1435 C1451 0.930 . S
H1436 C1452 0.931 . S
C1437 H1425 0.929 . S
C1437 C1431 1.390 . S
C1437 C1434 1.386 . S
C1438 C1433 1.490 . S
C1438 C1440 1.395 . S
C1438 C1441 1.403 . S
H1439 C1445 0.930 . S
C1440 H1426 0.930 . S
C1440 C1438 1.395 . S
C1440 C1443 1.403 . S
C1441 C1438 1.403 . S
C1441 C1442 1.524 . S
C1441 C1445 1.400 . S
C1442 H1427 0.960 . S
C1442 H1428 0.960 . S
C1442 H1429 0.960 . S
C1442 C1441 1.524 . S
C1443 C1440 1.403 . S
C1443 C1444 1.392 . S
C1443 C1447 1.495 . S
C1444 C1443 1.392 . S
C1444 C1445 1.385 . S
C1444 C1446 1.478 . S
C1445 H1439 0.930 . S
C1445 C1441 1.400 . S
C1445 C1444 1.385 . S
C1446 C1444 1.478 . S
C1446 C1448 1.381 . S
C1446 C1452 1.383 . S
C1447 C1443 1.495 . S
C1447 H1453 0.959 . S
C1447 H1454 0.961 . S
C1447 H1455 0.960 . S
C1448 C1446 1.381 . S
C1448 C1449 1.394 . S
C1448 H1456 0.930 . S
C1449 C1448 1.394 . S
C1449 C1450 1.383 . S
C1449 H1457 0.929 . S
C1450 C1449 1.383 . S
C1450 C1451 1.377 . S
C1451 H1435 0.930 . S
C1451 C1450 1.377 . S
C1451 C1452 1.379 . S
C1452 H1436 0.931 . S
C1452 C1446 1.383 . S
C1452 C1451 1.379 . S
H1453 C1447 0.959 . S
H1454 C1447 0.961 . S
H1455 C1447 0.960 . S
H1456 C1448 0.930 . S
H1457 C1449 0.929 . S
H1458 C1466 0.929 . S
H1459 C1468 0.930 . S
H1460 C1470 0.930 . S
H1461 C1473 0.929 . S
H1462 C1476 0.930 . S
H1463 C1478 0.960 . S
H1464 C1478 0.960 . S
H1465 C1478 0.960 . S
C1466 H1458 0.929 . S
C1466 C1467 1.377 . S
C1466 C1468 1.384 . S
C1467 C1466 1.377 . S
C1467 C1473 1.390 . S
C1468 H1459 0.930 . S
C1468 C1466 1.384 . S
C1468 C1469 1.372 . S
C1469 C1468 1.372 . S
C1469 C1470 1.400 . S
C1469 C1474 1.490 . S
C1470 H1460 0.930 . S
C1470 C1469 1.400 . S
C1470 C1473 1.386 . S
H1471 C1487 0.930 . S
H1472 C1488 0.931 . S
C1473 H1461 0.929 . S
C1473 C1467 1.390 . S
C1473 C1470 1.386 . S
C1474 C1469 1.490 . S
C1474 C1476 1.395 . S
C1474 C1477 1.403 . S
H1475 C1481 0.930 . S
C1476 H1462 0.930 . S
C1476 C1474 1.395 . S
C1476 C1479 1.403 . S
C1477 C1474 1.403 . S
C1477 C1478 1.524 . S
C1477 C1481 1.400 . S
C1478 H1463 0.960 . S
C1478 H1464 0.960 . S
C1478 H1465 0.960 . S
C1478 C1477 1.524 . S
C1479 C1476 1.403 . S
C1479 C1480 1.392 . S
C1479 C1483 1.495 . S
C1480 C1479 1.392 . S
C1480 C1481 1.385 . S
C1480 C1482 1.478 . S
C1481 H1475 0.930 . S
C1481 C1477 1.400 . S
C1481 C1480 1.385 . S
C1482 C1480 1.478 . S
C1482 C1484 1.381 . S
C1482 C1488 1.383 . S
C1483 C1479 1.495 . S
C1483 H1489 0.959 . S
C1483 H1490 0.961 . S
C1483 H1491 0.960 . S
C1484 C1482 1.381 . S
C1484 C1485 1.394 . S
C1484 H1492 0.930 . S
C1485 C1484 1.394 . S
C1485 C1486 1.383 . S
C1485 H1493 0.929 . S
C1486 C1485 1.383 . S
C1486 C1487 1.377 . S
C1487 H1471 0.930 . S
C1487 C1486 1.377 . S
C1487 C1488 1.379 . S
C1488 H1472 0.931 . S
C1488 C1482 1.383 . S
C1488 C1487 1.379 . S
H1489 C1483 0.959 . S
H1490 C1483 0.961 . S
H1491 C1483 0.960 . S
H1492 C1484 0.930 . S
H1493 C1485 0.929 . S
H1494 C1502 0.929 . S
H1495 C1504 0.930 . S
H1496 C1506 0.930 . S
H1497 C1509 0.929 . S
H1498 C1512 0.930 . S
H1499 C1514 0.960 . S
H1500 C1514 0.960 . S
H1501 C1514 0.960 . S
C1502 H1494 0.929 . S
C1502 C1503 1.377 . S
C1502 C1504 1.384 . S
C1503 C1502 1.377 . S
C1503 C1509 1.390 . S
C1504 H1495 0.930 . S
C1504 C1502 1.384 . S
C1504 C1505 1.372 . S
C1505 C1504 1.372 . S
C1505 C1506 1.400 . S
C1505 C1510 1.490 . S
C1506 H1496 0.930 . S
C1506 C1505 1.400 . S
C1506 C1509 1.386 . S
H1507 C1523 0.930 . S
H1508 C1524 0.931 . S
C1509 H1497 0.929 . S
C1509 C1503 1.390 . S
C1509 C1506 1.386 . S
C1510 C1505 1.490 . S
C1510 C1512 1.395 . S
C1510 C1513 1.403 . S
H1511 C1517 0.930 . S
C1512 H1498 0.930 . S
C1512 C1510 1.395 . S
C1512 C1515 1.403 . S
C1513 C1510 1.403 . S
C1513 C1514 1.524 . S
C1513 C1517 1.400 . S
C1514 H1499 0.960 . S
C1514 H1500 0.960 . S
C1514 H1501 0.960 . S
C1514 C1513 1.524 . S
C1515 C1512 1.403 . S
C1515 C1516 1.392 . S
C1515 C1519 1.495 . S
C1516 C1515 1.392 . S
C1516 C1517 1.385 . S
C1516 C1518 1.478 . S
C1517 H1511 0.930 . S
C1517 C1513 1.400 . S
C1517 C1516 1.385 . S
C1518 C1516 1.478 . S
C1518 C1520 1.381 . S
C1518 C1524 1.383 . S
C1519 C1515 1.495 . S
C1519 H1525 0.959 . S
C1519 H1526 0.961 . S
C1519 H1527 0.960 . S
C1520 C1518 1.381 . S
C1520 C1521 1.394 . S
C1520 H1528 0.930 . S
C1521 C1520 1.394 . S
C1521 C1522 1.383 . S
C1521 H1529 0.929 . S
C1522 C1521 1.383 . S
C1522 C1523 1.377 . S
C1523 H1507 0.930 . S
C1523 C1522 1.377 . S
C1523 C1524 1.379 . S
C1524 H1508 0.931 . S
C1524 C1518 1.383 . S
C1524 C1523 1.379 . S
H1525 C1519 0.959 . S
H1526 C1519 0.961 . S
H1527 C1519 0.960 . S
H1528 C1520 0.930 . S
H1529 C1521 0.929 . S
C243 C134 1.159 . S
C262 C10 1.124 . S
C279 C23 1.152 . S
C298 C147 1.152 . S
C315 C121 1.152 . S
C334 C30 1.147 . S
C351 C192 1.165 . S
C370 C49 1.161 . S
C387 C56 1.153 . S
C406 C166 1.136 . S
C423 C179 1.165 . S
C442 C69 1.153 . S
C459 C88 1.157 . S
C478 C212 1.124 . S
C495 C225 1.157 . S
C514 C101 1.125 . S
C531 C114 1.159 . S
C550 C205 1.189 . S
C567 C3 1.096 . S
C586 C18 1.092 . S
C603 C16 1.089 . S
C622 C29 1.088 . S
C639 C5 1.100 . S
C658 C31 1.108 . S
C675 C68 1.094 . S
C694 C42 1.122 . S
C711 C44 1.095 . S
C730 C57 1.099 . S
C747 C70 1.088 . S
C766 C55 1.088 . S
C783 C81 1.092 . S
C802 C96 1.110 . S
C819 C94 1.087 . S
C838 C109 1.124 . S
C855 C83 1.096 . S
C874 C107 1.121 . S
C891 C146 1.106 . S
C910 C122 1.071 . S
C927 C120 1.106 . S
C946 C135 1.056 . S
C963 C133 1.094 . S
C982 C148 1.119 . S
C999 C174 1.094 . S
C1018 C159 1.118 . S
C1035 C187 1.106 . S
C1054 C172 1.054 . S
C1071 C161 1.096 . S
C1090 C185 1.089 . S
C1107 C198 1.098 . S
C1126 C224 1.077 . S
C1143 C213 1.089 . S
C1162 C200 1.118 . S
C1179 C226 1.091 . S
C1198 C211 1.111 . S
C1215 C4 1.720 . S
C1234 C43 1.726 . S
C1251 C62 1.719 . S
C1270 C17 1.719 . S
C1287 C75 1.717 . S
C1306 C36 1.712 . S
C1323 C127 1.718 . S
C1342 C82 1.701 . S
C1359 C140 1.720 . S
C1378 C95 1.728 . S
C1395 C108 1.719 . S
C1414 C153 1.702 . S
C1431 C199 1.722 . S
C1450 C160 1.732 . S
C1467 C218 1.717 . S
C1486 C173 1.701 . S
C1503 C231 1.720 . S
C1522 C186 1.707 . S
