# Generated by pormake.
# Topology vbm, (6)-cn, num edge types: 1
# Building blocks:
#     Node 0, Type 0, BuildingBlock: CUKXOW_clean_sbu_0, # of connection points: 6
#     Node 1, Type 0, BuildingBlock: CUKXOW_clean_sbu_0, # of connection points: 6
#     Node 2, Type 0, BuildingBlock: CUKXOW_clean_sbu_0, # of connection points: 6
#     Node 3, Type 0, BuildingBlock: CUKXOW_clean_sbu_0, # of connection points: 6
#     Node 4, Type 0, BuildingBlock: CUKXOW_clean_sbu_0, # of connection points: 6
#     Node 5, Type 0, BuildingBlock: CUKXOW_clean_sbu_0, # of connection points: 6
#     Node 6, Type 0, BuildingBlock: CUKXOW_clean_sbu_0, # of connection points: 6
#     Node 7, Type 0, BuildingBlock: CUKXOW_clean_sbu_0, # of connection points: 6
#     Node 8, Type 0, BuildingBlock: CUKXOW_clean_sbu_0, # of connection points: 6
#     Node 9, Type 0, BuildingBlock: CUKXOW_clean_sbu_0, # of connection points: 6
#     Node 10, Type 0, BuildingBlock: CUKXOW_clean_sbu_0, # of connection points: 6
#     Node 11, Type 0, BuildingBlock: CUKXOW_clean_sbu_0, # of connection points: 6
#     Node 12, Type 0, BuildingBlock: CUKXOW_clean_sbu_0, # of connection points: 6
#     Node 13, Type 0, BuildingBlock: CUKXOW_clean_sbu_0, # of connection points: 6
#     Node 14, Type 0, BuildingBlock: CUKXOW_clean_sbu_0, # of connection points: 6
#     Node 15, Type 0, BuildingBlock: CUKXOW_clean_sbu_0, # of connection points: 6
#     Edge 16, Type (0, 0), BuildingBlock: EZIPEK_clean_linker_0, # of connection points: 2
#     Edge 17, Type (0, 0), BuildingBlock: EZIPEK_clean_linker_0, # of connection points: 2
#     Edge 18, Type (0, 0), BuildingBlock: EZIPEK_clean_linker_0, # of connection points: 2
#     Edge 19, Type (0, 0), BuildingBlock: EZIPEK_clean_linker_0, # of connection points: 2
#     Edge 20, Type (0, 0), BuildingBlock: EZIPEK_clean_linker_0, # of connection points: 2
#     Edge 21, Type (0, 0), BuildingBlock: EZIPEK_clean_linker_0, # of connection points: 2
#     Edge 22, Type (0, 0), BuildingBlock: EZIPEK_clean_linker_0, # of connection points: 2
#     Edge 23, Type (0, 0), BuildingBlock: EZIPEK_clean_linker_0, # of connection points: 2
#     Edge 24, Type (0, 0), BuildingBlock: EZIPEK_clean_linker_0, # of connection points: 2
#     Edge 25, Type (0, 0), BuildingBlock: EZIPEK_clean_linker_0, # of connection points: 2
#     Edge 26, Type (0, 0), BuildingBlock: EZIPEK_clean_linker_0, # of connection points: 2
#     Edge 27, Type (0, 0), BuildingBlock: EZIPEK_clean_linker_0, # of connection points: 2
#     Edge 28, Type (0, 0), BuildingBlock: EZIPEK_clean_linker_0, # of connection points: 2
#     Edge 29, Type (0, 0), BuildingBlock: EZIPEK_clean_linker_0, # of connection points: 2
#     Edge 30, Type (0, 0), BuildingBlock: EZIPEK_clean_linker_0, # of connection points: 2
#     Edge 31, Type (0, 0), BuildingBlock: EZIPEK_clean_linker_0, # of connection points: 2
#     Edge 32, Type (0, 0), BuildingBlock: EZIPEK_clean_linker_0, # of connection points: 2
#     Edge 33, Type (0, 0), BuildingBlock: EZIPEK_clean_linker_0, # of connection points: 2
#     Edge 34, Type (0, 0), BuildingBlock: EZIPEK_clean_linker_0, # of connection points: 2
#     Edge 35, Type (0, 0), BuildingBlock: EZIPEK_clean_linker_0, # of connection points: 2
#     Edge 36, Type (0, 0), BuildingBlock: EZIPEK_clean_linker_0, # of connection points: 2
#     Edge 37, Type (0, 0), BuildingBlock: EZIPEK_clean_linker_0, # of connection points: 2
#     Edge 38, Type (0, 0), BuildingBlock: EZIPEK_clean_linker_0, # of connection points: 2
#     Edge 39, Type (0, 0), BuildingBlock: EZIPEK_clean_linker_0, # of connection points: 2
#     Edge 40, Type (0, 0), BuildingBlock: EZIPEK_clean_linker_0, # of connection points: 2
#     Edge 41, Type (0, 0), BuildingBlock: EZIPEK_clean_linker_0, # of connection points: 2
#     Edge 42, Type (0, 0), BuildingBlock: EZIPEK_clean_linker_0, # of connection points: 2
#     Edge 43, Type (0, 0), BuildingBlock: EZIPEK_clean_linker_0, # of connection points: 2
#     Edge 44, Type (0, 0), BuildingBlock: EZIPEK_clean_linker_0, # of connection points: 2
#     Edge 45, Type (0, 0), BuildingBlock: EZIPEK_clean_linker_0, # of connection points: 2
#     Edge 46, Type (0, 0), BuildingBlock: EZIPEK_clean_linker_0, # of connection points: 2
#     Edge 47, Type (0, 0), BuildingBlock: EZIPEK_clean_linker_0, # of connection points: 2
#     Edge 48, Type (0, 0), BuildingBlock: EZIPEK_clean_linker_0, # of connection points: 2
#     Edge 49, Type (0, 0), BuildingBlock: EZIPEK_clean_linker_0, # of connection points: 2
#     Edge 50, Type (0, 0), BuildingBlock: EZIPEK_clean_linker_0, # of connection points: 2
#     Edge 51, Type (0, 0), BuildingBlock: EZIPEK_clean_linker_0, # of connection points: 2
#     Edge 52, Type (0, 0), BuildingBlock: EZIPEK_clean_linker_0, # of connection points: 2
#     Edge 53, Type (0, 0), BuildingBlock: EZIPEK_clean_linker_0, # of connection points: 2
#     Edge 54, Type (0, 0), BuildingBlock: EZIPEK_clean_linker_0, # of connection points: 2
#     Edge 55, Type (0, 0), BuildingBlock: EZIPEK_clean_linker_0, # of connection points: 2
#     Edge 56, Type (0, 0), BuildingBlock: EZIPEK_clean_linker_0, # of connection points: 2
#     Edge 57, Type (0, 0), BuildingBlock: EZIPEK_clean_linker_0, # of connection points: 2
#     Edge 58, Type (0, 0), BuildingBlock: EZIPEK_clean_linker_0, # of connection points: 2
#     Edge 59, Type (0, 0), BuildingBlock: EZIPEK_clean_linker_0, # of connection points: 2
#     Edge 60, Type (0, 0), BuildingBlock: EZIPEK_clean_linker_0, # of connection points: 2
#     Edge 61, Type (0, 0), BuildingBlock: EZIPEK_clean_linker_0, # of connection points: 2
#     Edge 62, Type (0, 0), BuildingBlock: EZIPEK_clean_linker_0, # of connection points: 2
#     Edge 63, Type (0, 0), BuildingBlock: EZIPEK_clean_linker_0, # of connection points: 2
# Relax obj value: 0.135
# Max RMSD: 0.184
# Mean RMSD: 0.184
data_MOF--net-vbm--node1-CUKXOW_clean_sbu_0--edge1-EZIPEK_clean_linker_0
_symmetry_space_group_name_H-M    P1
_symmetry_Int_Tables_number       1
_symmetry_cell_setting            triclinic
loop_
_symmetry_equiv_pos_as_xyz
'x, y, z'
_cell_length_a     55.028594
_cell_length_b     10.513781
_cell_length_c     45.016318
_cell_angle_alpha  89.920927
_cell_angle_beta   90.146891
_cell_angle_gamma 90.047255
loop_
_atom_site_label
_atom_site_type_symbol
_atom_site_fract_x
_atom_site_fract_y
_atom_site_fract_z
_atom_type_partial_charge
Tb0 Tb 0.10217 0.12476 0.12038 0.0
C1 C 0.13012 0.13182 0.06071 0.0
Tb2 Tb 0.15633 0.1318 0.12372 0.0
O3 O 0.10172 0.316 0.10141 0.0
O4 O 0.12843 0.26679 0.13192 0.0
O5 O 0.10959 0.09621 0.07354 0.0
C6 C 0.20241 0.21135 0.12202 0.0
O7 O 0.14971 0.16433 0.07617 0.0
C8 C 0.13837 0.89931 0.12779 0.0
C9 C 0.12826 0.10344 0.18357 0.0
O10 O 0.18512 0.26413 0.13705 0.0
O11 O 0.19389 0.1133 0.10795 0.0
O12 O 0.15928 0.93488 0.13845 0.0
O13 O 0.13018 0.98972 0.11204 0.0
O14 O 0.14956 0.12838 0.17127 0.0
O15 O 0.10784 0.09388 0.16805 0.0
C16 C 0.05438 0.0775 0.12289 0.0
O17 O 0.06459 0.18701 0.12699 0.0
O18 O 0.07109 0.99357 0.11758 0.0
C19 C 0.12137 0.35434 0.1146 0.0
Tb20 Tb 0.9023 0.95155 0.11905 0.0
C21 C 0.87485 0.94703 0.05891 0.0
Tb22 Tb 0.84853 0.94861 0.12133 0.0
O23 O 0.90264 0.76197 0.09972 0.0
O24 O 0.87581 0.81046 0.13022 0.0
O25 O 0.89537 0.9807 0.0721 0.0
C26 C 0.80228 0.87269 0.11914 0.0
O27 O 0.85501 0.91702 0.07394 0.0
C28 C 0.86663 0.17952 0.12583 0.0
C29 C 0.87599 0.97539 0.18211 0.0
O30 O 0.81111 0.97039 0.10521 0.0
O31 O 0.81938 0.81822 0.13437 0.0
O32 O 0.84588 0.14404 0.13675 0.0
O33 O 0.87484 0.08975 0.10996 0.0
O34 O 0.85473 0.96526 0.1686 0.0
O35 O 0.89656 0.96946 0.16698 0.0
C36 C 0.95007 0.99932 0.12229 0.0
O37 O 0.94 0.88846 0.1244 0.0
O38 O 0.93326 0.08427 0.11847 0.0
C39 C 0.88301 0.72355 0.11287 0.0
Tb40 Tb 0.0971 0.98658 0.37113 0.0
C41 C 0.12532 0.98042 0.43236 0.0
Tb42 Tb 0.15313 0.9776 0.37143 0.0
O43 O 0.09645 0.8021 0.3486 0.0
O44 O 0.12439 0.84322 0.37779 0.0
O45 O 0.10481 1.01024 0.41842 0.0
C46 C 0.19855 0.88933 0.36973 0.0
O47 O 0.14561 0.94862 0.41842 0.0
C48 C 0.13865 0.21858 0.37143 0.0
C49 C 0.124 1.02541 0.31097 0.0
O50 O 0.19034 0.97085 0.38885 0.0
O51 O 0.18124 0.85781 0.35159 0.0
O52 O 0.16124 0.1829 0.3715 0.0
O53 O 0.12601 0.11813 0.37188 0.0
O54 O 0.1443 0.98232 0.32368 0.0
O55 O 0.10372 1.04633 0.32588 0.0
C56 C 0.04949 1.02435 0.37663 0.0
O57 O 0.06444 0.10104 0.36335 0.0
O58 O 0.06138 0.92831 0.38738 0.0
C59 C 0.11674 0.76063 0.35961 0.0
Tb60 Tb 0.89705 0.12087 0.37417 0.0
C61 C 0.8684 0.12409 0.43297 0.0
Tb62 Tb 0.84353 0.12131 0.3693 0.0
O63 O 0.89642 0.30963 0.39383 0.0
O64 O 0.87076 0.26099 0.3617 0.0
O65 O 0.88919 0.09141 0.4206 0.0
C66 C 0.79712 0.19497 0.36853 0.0
O67 O 0.84876 0.15249 0.41716 0.0
C68 C 0.86185 0.89103 0.36581 0.0
C69 C 0.87307 0.09102 0.31001 0.0
O70 O 0.80565 0.09943 0.38355 0.0
O71 O 0.81463 0.24872 0.35395 0.0
O72 O 0.84141 0.9259 0.35387 0.0
O73 O 0.86959 0.98109 0.382 0.0
O74 O 0.85139 0.10215 0.32234 0.0
O75 O 0.89307 0.09855 0.32622 0.0
C76 C 0.94498 0.07964 0.37389 0.0
O77 O 0.93447 0.18791 0.36935 0.0
O78 O 0.92852 0.99332 0.37829 0.0
C79 C 0.87729 0.34773 0.37952 0.0
Tb80 Tb 0.84997 0.94965 0.86696 0.0
C81 C 0.8797 0.97776 0.80823 0.0
Tb82 Tb 0.90352 0.95095 0.87229 0.0
O83 O 0.84817 0.14444 0.85071 0.0
O84 O 0.87605 0.09071 0.87939 0.0
O85 O 0.85814 0.95272 0.81989 0.0
C86 C 0.95147 0.98909 0.87063 0.0
O87 O 0.89943 0.98679 0.82482 0.0
C88 C 0.88356 0.72357 0.87782 0.0
C89 C 0.8746 0.94656 0.93088 0.0
O90 O 0.94028 0.88882 0.86114 0.0
O91 O 0.93566 0.06916 0.88089 0.0
O92 O 0.90283 0.76129 0.89192 0.0
O93 O 0.87731 0.81063 0.85997 0.0
O94 O 0.89562 0.97763 0.91877 0.0
O95 O 0.85506 0.9185 0.91484 0.0
C96 C 0.8035 0.87724 0.86687 0.0
O97 O 0.81214 0.97469 0.88105 0.0
O98 O 0.82089 0.82117 0.85269 0.0
C99 C 0.86845 0.18019 0.86293 0.0
Tb100 Tb 0.15964 0.13195 0.8695 0.0
C101 C 0.12942 0.07858 0.81124 0.0
Tb102 Tb 0.10303 0.11161 0.8728 0.0
O103 O 0.16857 0.92823 0.87436 0.0
O104 O 0.13326 0.98913 0.87454 0.0
O105 O 0.14961 0.12907 0.82248 0.0
C106 C 0.05569 0.06051 0.86998 0.0
O107 O 0.11019 0.0485 0.82755 0.0
C108 C 0.12111 0.34619 0.87533 0.0
C109 C 0.13364 0.12727 0.93228 0.0
O110 O 0.0677 0.12847 0.85094 0.0
O111 O 0.07044 1.01893 0.89033 0.0
O112 O 0.09992 0.31227 0.88502 0.0
O113 O 0.12931 0.25198 0.8612 0.0
O114 O 0.11264 0.09487 0.91974 0.0
O115 O 0.15357 0.15431 0.91702 0.0
C116 C 0.20349 0.2373 0.86775 0.0
O117 O 0.18587 0.27378 0.88485 0.0
O118 O 0.19641 0.14246 0.85141 0.0
C119 C 0.1461 0.8896 0.87506 0.0
Tb120 Tb 0.84365 0.12609 0.62323 0.0
C121 C 0.87068 0.09225 0.68323 0.0
Tb122 Tb 0.89774 0.12077 0.62117 0.0
O123 O 0.84043 0.9307 0.63871 0.0
O124 O 0.87004 0.98271 0.61296 0.0
O125 O 0.84998 0.1284 0.67086 0.0
C126 C 0.94562 0.08142 0.62551 0.0
O127 O 0.89093 0.0762 0.66778 0.0
C128 C 0.87828 0.34978 0.61472 0.0
C129 C 0.8705 0.12596 0.56095 0.0
O130 O 0.93396 0.17668 0.63674 0.0
O131 O 0.93034 1.00702 0.61206 0.0
O132 O 0.89829 0.31279 0.60237 0.0
O133 O 0.87131 0.26182 0.63186 0.0
O134 O 0.89112 0.09447 0.57417 0.0
O135 O 0.8506 0.15595 0.57585 0.0
C136 C 0.79772 0.20522 0.61957 0.0
O137 O 0.81498 0.26255 0.63386 0.0
O138 O 0.80616 0.10248 0.60749 0.0
C139 C 0.86148 0.89397 0.629 0.0
Tb140 Tb 0.15228 0.98633 0.62302 0.0
C141 C 0.12594 1.01489 0.68356 0.0
Tb142 Tb 0.09819 0.99189 0.62181 0.0
O143 O 0.15455 0.1803 0.63973 0.0
O144 O 0.12576 0.12842 0.61217 0.0
O145 O 0.14619 0.97672 0.67059 0.0
C146 C 0.05041 1.0343 0.62593 0.0
O147 O 0.10576 1.0394 0.66844 0.0
C148 C 0.11718 0.7621 0.61564 0.0
C149 C 0.12471 0.98343 0.56078 0.0
O150 O 0.06223 0.94545 0.63968 0.0
O151 O 0.06547 0.10066 0.61011 0.0
O152 O 0.09668 0.79841 0.60428 0.0
O153 O 0.12474 0.85051 0.63227 0.0
O154 O 0.10406 1.01094 0.57432 0.0
O155 O 0.14525 0.96135 0.57537 0.0
C156 C 0.19862 0.91273 0.61983 0.0
O157 O 0.19048 1.02346 0.61195 0.0
O158 O 0.18081 0.84372 0.62946 0.0
C159 C 0.13412 0.21769 0.62809 0.0
Tb160 Tb 0.6017 0.60978 0.11304 0.0
C161 C 0.62957 0.63533 0.05345 0.0
Tb162 Tb 0.65587 0.62849 0.1159 0.0
O163 O 0.59887 0.80493 0.09644 0.0
O164 O 0.62694 0.75636 0.12496 0.0
O165 O 0.60982 0.58808 0.06614 0.0
C166 C 0.70216 0.70552 0.11483 0.0
O167 O 0.64855 0.67466 0.06924 0.0
C168 C 0.63926 0.39124 0.11861 0.0
C169 C 0.62829 0.58722 0.17512 0.0
O170 O 0.69384 0.6037 0.10214 0.0
O171 O 0.68449 0.76389 0.12797 0.0
O172 O 0.65949 0.42979 0.13044 0.0
O173 O 0.63063 0.48267 0.10366 0.0
O174 O 0.64788 0.63847 0.16306 0.0
O175 O 0.60929 0.55175 0.15889 0.0
C176 C 0.55406 0.56234 0.11554 0.0
O177 O 0.56524 0.65305 0.12939 0.0
O178 O 0.56975 0.49591 0.10072 0.0
C179 C 0.61868 0.84493 0.10879 0.0
Tb180 Tb 0.40118 0.4762 0.11655 0.0
C181 C 0.37577 0.46176 0.05345 0.0
Tb182 Tb 0.34771 0.47095 0.11335 0.0
O183 O 0.40158 0.2845 0.13544 0.0
O184 O 0.37498 0.33275 0.10527 0.0
O185 O 0.39577 0.49227 0.06835 0.0
C186 C 0.30132 0.39683 0.11767 0.0
O187 O 0.35533 0.42966 0.06698 0.0
C188 C 0.36598 0.7022 0.10634 0.0
C189 C 0.3734 0.5137 0.1759 0.0
O190 O 0.3087 0.5023 0.10578 0.0
O191 O 0.31993 0.33405 0.12737 0.0
O192 O 0.34578 0.66231 0.09466 0.0
O193 O 0.37375 0.61629 0.12361 0.0
O194 O 0.35354 0.47382 0.16187 0.0
O195 O 0.39362 0.54132 0.1614 0.0
C196 C 0.44941 0.50962 0.1148 0.0
O197 O 0.43806 0.4254 0.13041 0.0
O198 O 0.43365 0.57625 0.10004 0.0
C199 C 0.38187 0.24595 0.12273 0.0
Tb200 Tb 0.59755 0.46992 0.36434 0.0
C201 C 0.62464 0.45527 0.42439 0.0
Tb202 Tb 0.65155 0.45168 0.36286 0.0
O203 O 0.59446 0.27309 0.37953 0.0
O204 O 0.62287 0.32492 0.35176 0.0
O205 O 0.60575 0.50699 0.41073 0.0
C206 C 0.69726 0.36706 0.36559 0.0
O207 O 0.64333 0.4089 0.40941 0.0
C208 C 0.63587 0.68867 0.35981 0.0
C209 C 0.62417 0.48919 0.30208 0.0
O210 O 0.68923 0.46935 0.3783 0.0
O211 O 0.67959 0.31231 0.35141 0.0
O212 O 0.65647 0.64901 0.34929 0.0
O213 O 0.62642 0.5984 0.37465 0.0
O214 O 0.64533 0.4679 0.31537 0.0
O215 O 0.6033 0.49125 0.3167 0.0
C216 C 0.55031 0.52766 0.36172 0.0
O217 O 0.56783 0.60187 0.35316 0.0
O218 O 0.55938 0.42275 0.3718 0.0
C219 C 0.61429 0.23458 0.36714 0.0
Tb220 Tb 0.39802 0.62863 0.36525 0.0
C221 C 0.37059 0.6332 0.42538 0.0
Tb222 Tb 0.34406 0.63356 0.36265 0.0
O223 O 0.39892 0.82054 0.38365 0.0
O224 O 0.37159 0.77044 0.35429 0.0
O225 O 0.39121 0.60156 0.4123 0.0
C226 C 0.29772 0.70796 0.36515 0.0
O227 O 0.35063 0.66176 0.41026 0.0
C228 C 0.36227 0.40183 0.35844 0.0
C229 C 0.37125 0.59957 0.30293 0.0
O230 O 0.30614 0.60203 0.37579 0.0
O231 O 0.31529 0.77142 0.35306 0.0
O232 O 0.342 0.43871 0.3463 0.0
O233 O 0.37033 0.49189 0.37428 0.0
O234 O 0.35068 0.6372 0.31522 0.0
O235 O 0.39124 0.57779 0.31865 0.0
C236 C 0.44607 0.59344 0.36153 0.0
O237 O 0.4338 0.6799 0.34756 0.0
O238 O 0.43131 0.52559 0.37744 0.0
C239 C 0.37885 0.85784 0.37141 0.0
Tb240 Tb 0.3493 0.4816 0.86326 0.0
C241 C 0.37517 0.51062 0.80228 0.0
Tb242 Tb 0.40325 0.48479 0.86383 0.0
O243 O 0.34677 0.67745 0.84786 0.0
O244 O 0.37614 0.62217 0.87382 0.0
O245 O 0.35464 0.47884 0.81552 0.0
C246 C 0.45092 0.52731 0.85937 0.0
O247 O 0.39583 0.52686 0.81695 0.0
C248 C 0.38401 0.25609 0.87041 0.0
C249 C 0.37736 0.47134 0.92494 0.0
O250 O 0.43945 0.43097 0.84823 0.0
O251 O 0.43558 0.60104 0.87277 0.0
O252 O 0.40425 0.29322 0.88235 0.0
O253 O 0.37647 0.34411 0.85357 0.0
O254 O 0.3977 0.50377 0.91126 0.0
O255 O 0.35694 0.44571 0.91041 0.0
C256 C 0.30263 0.41484 0.86639 0.0
O257 O 0.31207 0.51471 0.87874 0.0
O258 O 0.31934 0.35268 0.85239 0.0
C259 C 0.36774 0.71243 0.85828 0.0
Tb260 Tb 0.65714 0.63566 0.86247 0.0
C261 C 0.6305 0.59697 0.80241 0.0
Tb262 Tb 0.6031 0.62097 0.86394 0.0
O263 O 0.66079 0.43779 0.84787 0.0
O264 O 0.63142 0.49041 0.87378 0.0
O265 O 0.6503 0.64393 0.81498 0.0
C266 C 0.55549 0.57613 0.85951 0.0
O267 O 0.61098 0.56558 0.81806 0.0
C268 C 0.62066 0.85429 0.86969 0.0
C269 C 0.63036 0.63881 0.92442 0.0
O270 O 0.56716 0.66541 0.8458 0.0
O271 O 0.57063 0.51037 0.87545 0.0
O272 O 0.60049 0.81486 0.8811 0.0
O273 O 0.62874 0.76678 0.85317 0.0
O274 O 0.61042 0.59638 0.91113 0.0
O275 O 0.64952 0.67821 0.90912 0.0
C276 C 0.70336 0.7118 0.86551 0.0
O277 O 0.69473 0.60956 0.87769 0.0
O278 O 0.68607 0.77092 0.85167 0.0
C279 C 0.64023 0.39984 0.85878 0.0
Tb280 Tb 0.34181 0.62506 0.61629 0.0
C281 C 0.372 0.57495 0.67463 0.0
Tb282 Tb 0.39862 0.60648 0.61307 0.0
O283 O 0.33334 0.42008 0.61218 0.0
O284 O 0.36844 0.48398 0.61124 0.0
O285 O 0.35178 0.62463 0.66325 0.0
C286 C 0.44599 0.55517 0.61704 0.0
O287 O 0.39131 0.54557 0.65843 0.0
C288 C 0.3804 0.84041 0.61001 0.0
C289 C 0.36798 0.6224 0.55362 0.0
O290 O 0.43372 0.62481 0.63542 0.0
O291 O 0.43147 0.51224 0.59657 0.0
O292 O 0.40168 0.80647 0.60063 0.0
O293 O 0.37218 0.74662 0.62445 0.0
O294 O 0.38907 0.59092 0.56609 0.0
O295 O 0.34799 0.64825 0.56884 0.0
C296 C 0.29737 0.72546 0.61767 0.0
O297 O 0.31497 0.76383 0.6007 0.0
O298 O 0.30484 0.63138 0.63405 0.0
C299 C 0.3559 0.38343 0.61087 0.0
Tb300 Tb 0.65247 0.45936 0.61492 0.0
C301 C 0.62647 0.49743 0.67556 0.0
Tb302 Tb 0.59855 0.46263 0.61416 0.0
O303 O 0.6551 0.65349 0.63105 0.0
O304 O 0.6259 0.60117 0.604 0.0
O305 O 0.64693 0.46397 0.66241 0.0
C306 C 0.55037 0.49056 0.61859 0.0
O307 O 0.60585 0.51303 0.66062 0.0
C308 C 0.61805 0.23456 0.60777 0.0
C309 C 0.62474 0.45426 0.553 0.0
O310 O 0.56307 0.40209 0.6312 0.0
O311 O 0.56477 0.56538 0.60394 0.0
O312 O 0.59759 0.2702 0.59635 0.0
O313 O 0.62538 0.32266 0.62458 0.0
O314 O 0.60427 0.48412 0.5667 0.0
O315 O 0.64518 0.42961 0.56757 0.0
C316 C 0.69848 0.38082 0.61332 0.0
O317 O 0.69037 0.48382 0.60084 0.0
O318 O 0.68081 0.32258 0.62653 0.0
C319 C 0.63465 0.69099 0.61954 0.0
C320 C 0.24184 0.26287 0.14721 0.0
C321 C 0.22776 0.25787 0.12079 0.0
C322 C 0.26248 0.33586 0.09199 0.0
C323 C 0.27586 0.35145 0.11876 0.0
N324 N 0.27717 0.34958 0.17232 0.0
N325 N 0.22297 0.30955 0.06887 0.0
C326 C 0.26526 0.32012 0.14653 0.0
C327 C 0.2376 0.29973 0.09337 0.0
N328 N 0.23321 0.20858 0.17271 0.0
N329 N 0.27381 0.34972 0.06517 0.0
H330 H 0.20465 0.28403 0.06894 0.0
H331 H 0.2284 0.35327 0.0492 0.0
H332 H 0.2921 0.37419 0.06311 0.0
H333 H 0.26572 0.3257 0.045 0.0
H334 H 0.24368 0.19655 0.19181 0.0
H335 H 0.2162 0.16511 0.17406 0.0
H336 H 0.26929 0.34183 0.19325 0.0
H337 H 0.29424 0.39281 0.17278 0.0
C338 C 0.76315 0.8189 0.14454 0.0
C339 C 0.77671 0.82945 0.11789 0.0
C340 C 0.74088 0.76613 0.08892 0.0
C341 C 0.72796 0.7455 0.11574 0.0
N342 N 0.72827 0.72664 0.1692 0.0
N343 N 0.78014 0.79029 0.06526 0.0
C344 C 0.73948 0.76491 0.14362 0.0
C345 C 0.76604 0.79691 0.09018 0.0
N346 N 0.77247 0.86503 0.17058 0.0
N347 N 0.72893 0.76147 0.06227 0.0
H348 H 0.7987 0.81048 0.06532 0.0
H349 H 0.77397 0.75361 0.04513 0.0
H350 H 0.71047 0.74033 0.06038 0.0
H351 H 0.73677 0.78943 0.04226 0.0
H352 H 0.76237 0.87268 0.19003 0.0
H353 H 0.78962 0.90686 0.17218 0.0
H354 H 0.73686 0.72583 0.18984 0.0
H355 H 0.71119 0.68364 0.1695 0.0
C356 C 0.25992 0.75784 0.39402 0.0
C357 C 0.27211 0.75038 0.36634 0.0
C358 C 0.23685 0.84504 0.3414 0.0
C359 C 0.22381 0.84085 0.36855 0.0
N360 N 0.22125 0.76836 0.41939 0.0
N361 N 0.27044 0.76171 0.31281 0.0
C362 C 0.23486 0.79038 0.39455 0.0
C363 C 0.26009 0.78686 0.33975 0.0
N364 N 0.27247 0.73949 0.41993 0.0
N365 N 0.22764 0.90976 0.31754 0.0
H366 H 0.28719 0.71644 0.31057 0.0
H367 H 0.26133 0.77396 0.29269 0.0
H368 H 0.21104 0.95746 0.31799 0.0
H369 H 0.23755 0.92717 0.29827 0.0
H370 H 0.2651 0.75752 0.44079 0.0
H371 H 0.29096 0.71804 0.42061 0.0
H372 H 0.22782 0.71946 0.43788 0.0
H373 H 0.20268 0.78731 0.42049 0.0
C374 C 0.75967 0.27142 0.39474 0.0
C375 C 0.77143 0.23656 0.36794 0.0
C376 C 0.73528 0.29835 0.33946 0.0
C377 C 0.72275 0.32172 0.36643 0.0
N378 N 0.72148 0.30829 0.41995 0.0
N379 N 0.76916 0.1942 0.31534 0.0
C380 C 0.73452 0.30233 0.39417 0.0
C381 C 0.75889 0.24375 0.34042 0.0
N382 N 0.77274 0.28033 0.42054 0.0
N383 N 0.72514 0.33367 0.31293 0.0
H384 H 0.78628 0.15177 0.31516 0.0
H385 H 0.7598 0.18421 0.29533 0.0
H386 H 0.70814 0.37676 0.3112 0.0
H387 H 0.73454 0.33166 0.29288 0.0
H388 H 0.76576 0.31893 0.44002 0.0
H389 H 0.79126 0.26007 0.42185 0.0
H390 H 0.7285 0.28159 0.44054 0.0
H391 H 0.70293 0.32835 0.4205 0.0
C392 C 0.74109 0.77217 0.89362 0.0
C393 C 0.7291 0.75223 0.86606 0.0
C394 C 0.76517 0.8265 0.83934 0.0
C395 C 0.77783 0.83587 0.86673 0.0
N396 N 0.77951 0.79567 0.91949 0.0
N397 N 0.73112 0.73557 0.81264 0.0
C398 C 0.76626 0.80286 0.8938 0.0
C399 C 0.7415 0.7727 0.83887 0.0
N400 N 0.72824 0.76686 0.91956 0.0
N401 N 0.77538 0.87341 0.81391 0.0
H402 H 0.71404 0.69288 0.81133 0.0
H403 H 0.74037 0.7355 0.79248 0.0
H404 H 0.79257 0.91512 0.81334 0.0
H405 H 0.76593 0.88188 0.79392 0.0
H406 H 0.73541 0.79423 0.94001 0.0
H407 H 0.70973 0.74584 0.92039 0.0
H408 H 0.77267 0.75852 0.93923 0.0
H409 H 0.79804 0.81607 0.92051 0.0
C410 C 0.26635 0.33691 0.89445 0.0
C411 C 0.27673 0.3784 0.8673 0.0
C412 C 0.23791 0.34434 0.8416 0.0
C413 C 0.22833 0.29063 0.86799 0.0
N414 N 0.2339 0.22016 0.9186 0.0
N415 N 0.27345 0.41563 0.81453 0.0
C416 C 0.24256 0.28395 0.89431 0.0
C417 C 0.26282 0.38017 0.8407 0.0
N418 N 0.27931 0.34691 0.92031 0.0
N419 N 0.22291 0.36611 0.81785 0.0
H420 H 0.2911 0.45137 0.81322 0.0
H421 H 0.26528 0.40365 0.79384 0.0
H422 H 0.20451 0.34215 0.81784 0.0
H423 H 0.22804 0.41755 0.79912 0.0
H424 H 0.27179 0.33265 0.94125 0.0
H425 H 0.2973 0.37787 0.92114 0.0
H426 H 0.24439 0.19907 0.93724 0.0
H427 H 0.21672 0.17851 0.91935 0.0
C428 C 0.73686 0.31218 0.588 0.0
C429 C 0.72415 0.34021 0.61456 0.0
C430 C 0.75891 0.26828 0.64421 0.0
C431 C 0.77234 0.25015 0.61771 0.0
N432 N 0.77588 0.27611 0.56462 0.0
N433 N 0.72448 0.36944 0.66774 0.0
C434 C 0.76181 0.27776 0.58961 0.0
C435 C 0.73555 0.32505 0.64264 0.0
N436 N 0.72486 0.31347 0.56136 0.0
N437 N 0.76804 0.22651 0.67077 0.0
H438 H 0.70756 0.41405 0.66751 0.0
H439 H 0.73304 0.37338 0.68838 0.0
H440 H 0.78495 0.18263 0.67285 0.0
H441 H 0.75795 0.22441 0.69031 0.0
H442 H 0.73244 0.2801 0.54169 0.0
H443 H 0.70657 0.33801 0.55928 0.0
H444 H 0.76989 0.30878 0.54402 0.0
H445 H 0.79429 0.25263 0.56492 0.0
C446 C 0.23712 0.85346 0.64618 0.0
C447 C 0.22433 0.87218 0.61911 0.0
C448 C 0.25909 0.79043 0.59107 0.0
C449 C 0.27247 0.77918 0.618 0.0
N450 N 0.27612 0.82431 0.67037 0.0
N451 N 0.224 0.87816 0.56556 0.0
C452 C 0.26199 0.817 0.64538 0.0
C453 C 0.23568 0.84772 0.59147 0.0
N454 N 0.22548 0.87026 0.67269 0.0
N455 N 0.26804 0.73908 0.56543 0.0
H456 H 0.20635 0.91406 0.56486 0.0
H457 H 0.23242 0.87662 0.54487 0.0
H458 H 0.28471 0.69242 0.56425 0.0
H459 H 0.25802 0.7318 0.54586 0.0
H460 H 0.23282 0.84263 0.69304 0.0
H461 H 0.20779 0.90501 0.67432 0.0
H462 H 0.27025 0.86439 0.69023 0.0
H463 H 0.29454 0.8014 0.67062 0.0
C464 C 0.12836 0.94195 0.25926 0.0
C465 C 0.1236 1.04597 0.27827 0.0
C466 C 0.11898 0.18561 0.23466 0.0
C467 C 0.12704 0.08485 0.21621 0.0
N468 N 0.14206 0.87017 0.21128 0.0
N469 N 0.11428 0.26871 0.28459 0.0
C470 C 0.13261 0.96412 0.22864 0.0
C471 C 0.11868 0.16837 0.26611 0.0
N472 N 0.12699 0.82068 0.27009 0.0
N473 N 0.11132 0.29711 0.22204 0.0
H474 H 0.11273 0.25911 0.30752 0.0
H475 H 0.11354 0.36294 0.27755 0.0
H476 H 0.11231 0.31489 0.19926 0.0
H477 H 0.10262 0.3692 0.23371 0.0
H478 H 0.12806 0.73985 0.25681 0.0
H479 H 0.12157 0.80114 0.29178 0.0
H480 H 0.1491 0.78564 0.21978 0.0
H481 H 0.14459 0.88066 0.18858 0.0
C482 C 0.89728 1.03379 0.2627 0.0
C483 C 0.87483 0.06417 0.27711 0.0
C484 C 0.85439 0.99585 0.23174 0.0
C485 C 0.87643 0.999 0.21521 0.0
N486 N 0.91895 0.07037 0.21751 0.0
N487 N 0.83265 0.12288 0.2667 0.0
C488 C 0.89799 1.03329 0.23119 0.0
C489 C 0.85347 0.0607 0.25913 0.0
N490 N 0.91779 0.99954 0.27787 0.0
N491 N 0.83462 0.92762 0.22269 0.0
H492 H 0.83205 0.19265 0.28308 0.0
H493 H 0.81727 0.1211 0.25305 0.0
H494 H 0.83549 0.859 0.20605 0.0
H495 H 0.81872 0.92404 0.23528 0.0
H496 H 0.93358 0.97136 0.2669 0.0
H497 H 0.9184 0.97816 0.3003 0.0
H498 H 0.93402 0.10196 0.22957 0.0
H499 H 0.92056 0.08937 0.19505 0.0
C500 C 0.88856 0.13856 0.73299 0.0
C501 C 0.87195 0.06726 0.71564 0.0
C502 C 0.86563 0.92026 0.75726 0.0
C503 C 0.88108 0.99578 0.77529 0.0
N504 N 0.91474 0.14575 0.77598 0.0
N505 N 0.8412 0.90343 0.71285 0.0
C506 C 0.89474 0.09645 0.76209 0.0
C507 C 0.85951 0.96171 0.72818 0.0
N508 N 0.89759 0.25049 0.72204 0.0
N509 N 0.85835 0.80337 0.76727 0.0
H510 H 0.83559 0.93248 0.69193 0.0
H511 H 0.82973 0.83538 0.72211 0.0
H512 H 0.86423 0.76575 0.78752 0.0
H513 H 0.84918 0.73721 0.7542 0.0
H514 H 0.90736 0.31551 0.73478 0.0
H515 H 0.89306 0.28538 0.70104 0.0
H516 H 0.92633 0.21176 0.76617 0.0
H517 H 0.92233 0.10815 0.79515 0.0
C518 C 0.12732 0.93723 0.76626 0.0
C519 C 0.12764 0.06145 0.77863 0.0
C520 C 0.12691 0.15516 0.72873 0.0
C521 C 0.12589 1.03114 0.71629 0.0
N522 N 0.12152 0.80472 0.72258 0.0
N523 N 0.12271 0.28768 0.77249 0.0
C524 C 0.12512 0.92217 0.73491 0.0
C525 C 0.12607 0.17024 0.76009 0.0
N526 N 0.12972 0.8339 0.7845 0.0
N527 N 0.12944 0.25854 0.71058 0.0
H528 H 0.1217 0.30226 0.79537 0.0
H529 H 0.11876 0.3692 0.76026 0.0
H530 H 0.12937 0.25176 0.68756 0.0
H531 H 0.13329 0.34982 0.71819 0.0
H532 H 0.13261 0.74166 0.77695 0.0
H533 H 0.13012 0.84127 0.80757 0.0
H534 H 0.11823 0.72263 0.73487 0.0
H535 H 0.1201 0.79022 0.69972 0.0
C536 C 0.64012 0.44177 0.25113 0.0
C537 C 0.62407 0.51208 0.26941 0.0
C538 C 0.60901 0.62397 0.22507 0.0
C539 C 0.62756 0.56632 0.20779 0.0
N540 N 0.6648 0.4426 0.20711 0.0
N541 N 0.59685 0.69281 0.27395 0.0
C542 C 0.64451 0.48322 0.22168 0.0
C543 C 0.60934 0.60905 0.25648 0.0
N544 N 0.65016 0.33071 0.26113 0.0
N545 N 0.59127 0.69506 0.21176 0.0
H546 H 0.59741 0.69226 0.29704 0.0
H547 H 0.58811 0.77304 0.26552 0.0
H548 H 0.59114 0.71713 0.18921 0.0
H549 H 0.57571 0.72502 0.22289 0.0
H550 H 0.66018 0.27027 0.24751 0.0
H551 H 0.64591 0.29069 0.28167 0.0
H552 H 0.67872 0.39279 0.21773 0.0
H553 H 0.66885 0.46688 0.1853 0.0
C554 C 0.37028 0.68306 0.25069 0.0
C555 C 0.37172 0.57765 0.27036 0.0
C556 C 0.37345 0.43047 0.22797 0.0
C557 C 0.37269 0.53602 0.20837 0.0
N558 N 0.37347 0.76261 0.20016 0.0
N559 N 0.3759 0.35201 0.27856 0.0
C560 C 0.37193 0.66241 0.21948 0.0
C561 C 0.37364 0.45154 0.2592 0.0
N562 N 0.36719 0.80289 0.26192 0.0
N563 N 0.374 0.3099 0.21658 0.0
H564 H 0.37421 0.36272 0.30136 0.0
H565 H 0.38026 0.25946 0.27247 0.0
H566 H 0.37629 0.29151 0.19403 0.0
H567 H 0.37155 0.22752 0.22902 0.0
H568 H 0.36311 0.8823 0.24905 0.0
H569 H 0.36751 0.82293 0.2846 0.0
H570 H 0.37558 0.85694 0.20659 0.0
H571 H 0.37413 0.75112 0.17721 0.0
C572 C 0.37027 0.64917 0.75718 0.0
C573 C 0.37514 0.52761 0.76961 0.0
C574 C 0.37783 0.43558 0.71966 0.0
C575 C 0.37372 0.55824 0.70727 0.0
N576 N 0.37167 0.78566 0.71379 0.0
N577 N 0.38723 0.30916 0.76346 0.0
C578 C 0.37142 0.66617 0.72591 0.0
C579 C 0.38003 0.42192 0.75104 0.0
N580 N 0.36419 0.74833 0.77525 0.0
N581 N 0.37883 0.33158 0.70151 0.0
H582 H 0.38839 0.29487 0.78636 0.0
H583 H 0.39371 0.2324 0.75124 0.0
H584 H 0.37823 0.33787 0.67843 0.0
H585 H 0.37873 0.23816 0.70918 0.0
H586 H 0.35738 0.83464 0.76751 0.0
H587 H 0.36448 0.74165 0.79826 0.0
H588 H 0.37273 0.86866 0.7263 0.0
H589 H 0.37319 0.80249 0.69103 0.0
C590 C 0.64552 0.48236 0.75672 0.0
C591 C 0.63014 0.57529 0.76979 0.0
C592 C 0.61519 0.63053 0.72024 0.0
C593 C 0.62715 0.52286 0.7081 0.0
N594 N 0.64864 0.32633 0.71766 0.0
N595 N 0.59688 0.72372 0.76369 0.0
C596 C 0.64094 0.44294 0.72713 0.0
C597 C 0.61367 0.64394 0.75152 0.0
N598 N 0.66453 0.43131 0.77217 0.0
N599 N 0.60704 0.72553 0.70215 0.0
H600 H 0.59541 0.73912 0.78644 0.0
H601 H 0.58308 0.76599 0.75121 0.0
H602 H 0.61077 0.7268 0.67956 0.0
H603 H 0.5999 0.81069 0.71012 0.0
H604 H 0.67737 0.372 0.76233 0.0
H605 H 0.66883 0.45714 0.79381 0.0
H606 H 0.65692 0.26063 0.73179 0.0
H607 H 0.64406 0.289 0.69694 0.0
C608 C 0.13849 0.24307 0.98087 0.0
C609 C 0.13514 0.12711 0.96525 0.0
C610 C 0.1311 1.01201 0.01259 0.0
C611 C 0.1317 0.13007 0.02787 0.0
N612 N 0.1329 0.35918 0.02683 0.0
N613 N 0.13038 0.8996 0.96551 0.0
C614 C 0.13477 0.2459 0.01211 0.0
C615 C 0.13197 1.01106 0.98097 0.0
N616 N 0.14566 0.35011 0.96599 0.0
N617 N 0.13076 0.90081 0.02845 0.0
H618 H 0.13466 0.89374 0.94302 0.0
H619 H 0.12475 0.81353 0.97461 0.0
H620 H 0.12991 0.89784 0.05156 0.0
H621 H 0.13272 0.81099 0.01913 0.0
H622 H 0.15098 0.4337 0.97655 0.0
H623 H 0.14833 0.35292 0.94311 0.0
H624 H 0.13219 0.44717 0.01624 0.0
H625 H 0.12985 0.3651 0.04962 0.0
C626 C 0.8708 0.83 0.97919 0.0
C627 C 0.8729 0.94693 0.96361 0.0
C628 C 0.874 0.06441 0.01064 0.0
C629 C 0.87377 0.9469 0.02616 0.0
N630 N 0.87427 0.71768 0.02614 0.0
N631 N 0.87753 0.17519 0.96351 0.0
C632 C 0.87253 0.82954 0.01071 0.0
C633 C 0.87478 0.06419 0.97907 0.0
N634 N 0.86737 0.71934 0.96381 0.0
N635 N 0.87262 0.17605 0.02614 0.0
H636 H 0.87638 0.18028 0.94041 0.0
H637 H 0.88204 0.26186 0.9732 0.0
H638 H 0.87254 0.1799 0.04928 0.0
H639 H 0.86994 0.26465 0.01636 0.0
H640 H 0.86269 0.63318 0.97365 0.0
H641 H 0.86794 0.71449 0.94074 0.0
H642 H 0.87616 0.62886 0.01627 0.0
H643 H 0.87554 0.71372 0.0492 0.0
C644 C 0.11848 0.86928 0.48085 0.0
C645 C 0.12547 0.98057 0.46521 0.0
C646 C 0.13072 0.09546 0.51221 0.0
C647 C 0.12508 0.98209 0.5279 0.0
N648 N 0.11666 0.75711 0.52794 0.0
N649 N 0.14171 0.19348 0.46524 0.0
C650 C 0.11981 0.86775 0.51243 0.0
C651 C 0.13259 0.09208 0.48069 0.0
N652 N 0.11016 0.76588 0.46545 0.0
N653 N 0.13373 0.20687 0.52746 0.0
H654 H 0.14315 0.19456 0.44214 0.0
H655 H 0.14957 0.27269 0.47525 0.0
H656 H 0.13306 0.21225 0.55058 0.0
H657 H 0.1352 0.29549 0.51729 0.0
H658 H 0.10218 0.68689 0.47541 0.0
H659 H 0.10985 0.76209 0.44231 0.0
H660 H 0.11553 0.66781 0.51809 0.0
H661 H 0.11681 0.75328 0.55106 0.0
C662 C 0.87021 1.00774 0.51277 0.0
C663 C 0.86939 0.12544 0.52818 0.0
C664 C 0.86595 0.24205 0.48111 0.0
C665 C 0.86717 0.12461 0.4657 0.0
N666 N 0.86692 0.8955 0.46574 0.0
N667 N 0.86992 0.35458 0.52792 0.0
C668 C 0.86844 1.00724 0.48124 0.0
C669 C 0.86787 0.2427 0.51261 0.0
N670 N 0.87326 0.89694 0.52835 0.0
N671 N 0.86297 0.35276 0.46552 0.0
H672 H 0.87218 0.35825 0.55086 0.0
H673 H 0.87124 0.44383 0.51808 0.0
H674 H 0.86313 0.3567 0.44242 0.0
H675 H 0.85908 0.44023 0.47515 0.0
H676 H 0.87654 0.80885 0.5187 0.0
H677 H 0.87378 0.89309 0.55147 0.0
H678 H 0.86535 0.80613 0.47545 0.0
H679 H 0.8656 0.89189 0.44265 0.0
C680 C 0.61191 0.70584 0.00453 0.0
C681 C 0.63066 0.64231 0.02048 0.0
C682 C 0.6502 0.5822 0.97338 0.0
C683 C 0.63108 0.64325 0.95748 0.0
N684 N 0.59705 0.78793 0.95774 0.0
N685 N 0.6659 0.50537 0.02048 0.0
C686 C 0.61271 0.71073 0.97301 0.0
C687 C 0.64958 0.57843 0.00503 0.0
N688 N 0.593 0.76044 0.01946 0.0
N689 N 0.66919 0.52856 0.95834 0.0
H690 H 0.66642 0.49932 0.04354 0.0
H691 H 0.67795 0.44206 0.01064 0.0
H692 H 0.66955 0.51666 0.93542 0.0
H693 H 0.68545 0.50141 0.96833 0.0
H694 H 0.57678 0.78803 0.0094 0.0
H695 H 0.59283 0.77324 0.04233 0.0
H696 H 0.58538 0.85288 0.9677 0.0
H697 H 0.59718 0.79698 0.93479 0.0
C698 C 0.37547 0.34961 0.97294 0.0
C699 C 0.3772 0.46801 0.95782 0.0
C700 C 0.37636 0.58176 0.00533 0.0
C701 C 0.37621 0.46336 0.02054 0.0
N702 N 0.37729 0.23444 0.01976 0.0
N703 N 0.38168 0.69631 0.95899 0.0
C704 C 0.37608 0.34708 0.00458 0.0
C705 C 0.37848 0.58392 0.97387 0.0
N706 N 0.37322 0.2397 0.95696 0.0
N707 N 0.37309 0.69199 0.02089 0.0
H708 H 0.38163 0.70348 0.93589 0.0
H709 H 0.38585 0.78192 0.96942 0.0
H710 H 0.37092 0.69379 0.04383 0.0
H711 H 0.37038 0.78054 0.01108 0.0
H712 H 0.36891 0.15181 0.9662 0.0
H713 H 0.37466 0.237 0.93392 0.0
H714 H 0.38003 0.14643 0.00979 0.0
H715 H 0.37686 0.22919 0.04287 0.0
C716 C 0.64291 0.52409 0.47303 0.0
C717 C 0.62512 0.45275 0.45728 0.0
C718 C 0.60915 0.37073 0.50431 0.0
C719 C 0.62509 0.45262 0.52008 0.0
N720 N 0.654 0.6253 0.51944 0.0
N721 N 0.58894 0.32186 0.45802 0.0
C722 C 0.64125 0.53381 0.50446 0.0
C723 C 0.60744 0.38086 0.47295 0.0
N724 N 0.66134 0.58338 0.4581 0.0
N725 N 0.59661 0.27813 0.51908 0.0
H726 H 0.58762 0.31981 0.43498 0.0
H727 H 0.57391 0.28227 0.46861 0.0
H728 H 0.59805 0.26449 0.54188 0.0
H729 H 0.58684 0.20646 0.50845 0.0
H730 H 0.67636 0.62326 0.46872 0.0
H731 H 0.66265 0.58539 0.43503 0.0
H732 H 0.66398 0.69643 0.50893 0.0
H733 H 0.65275 0.63828 0.54234 0.0
C734 C 0.36865 0.50832 0.5047 0.0
C735 C 0.36645 0.62402 0.52072 0.0
C736 C 0.36737 0.74531 0.47421 0.0
C737 C 0.36928 0.62988 0.45815 0.0
N738 N 0.36785 0.40079 0.45693 0.0
N739 N 0.35726 0.84855 0.5206 0.0
C740 C 0.36895 0.51091 0.47308 0.0
C741 C 0.36376 0.74135 0.50543 0.0
N742 N 0.36992 0.39583 0.51986 0.0
N743 N 0.37011 0.85892 0.45977 0.0
H744 H 0.35449 0.85008 0.54347 0.0
H745 H 0.35251 0.93366 0.51026 0.0
H746 H 0.3731 0.8654 0.43697 0.0
H747 H 0.37161 0.94597 0.47063 0.0
H748 H 0.37485 0.30958 0.51031 0.0
H749 H 0.36629 0.38939 0.54251 0.0
H750 H 0.36517 0.31112 0.46615 0.0
H751 H 0.36804 0.39918 0.43377 0.0
C752 C 0.9911 0.96765 0.09922 0.0
C753 C 0.97666 1.02252 0.12196 0.0
C754 C 0.01346 0.1005 0.14686 0.0
C755 C 0.02774 0.05484 0.1229 0.0
N756 N 0.02964 0.96787 0.07333 0.0
N757 N 0.97352 0.15833 0.16494 0.0
C758 C 0.01647 0.99367 0.09835 0.0
C759 C 0.98767 0.09493 0.14492 0.0
N760 N 0.98057 0.89179 0.07814 0.0
N761 N 0.02457 0.14287 0.17221 0.0
H762 H 0.95462 0.15289 0.165 0.0
H763 H 0.98039 0.22419 0.18005 0.0
H764 H 0.04338 0.1441 0.175 0.0
H765 H 0.0152 0.16478 0.19161 0.0
H766 H 0.99051 0.83548 0.06355 0.0
H767 H 0.96184 0.87933 0.07616 0.0
H768 H 0.02189 0.93655 0.05352 0.0
H769 H 0.04804 0.98931 0.0712 0.0
C770 C 0.9829 0.96459 0.35834 0.0
C771 C 0.97163 0.06076 0.37555 0.0
C772 C 0.01158 0.13823 0.39186 0.0
C773 C 0.02273 1.03651 0.37644 0.0
N774 N 0.01925 0.84321 0.34772 0.0
N775 N 0.97472 0.22068 0.41384 0.0
C776 C 0.00843 0.94609 0.36072 0.0
C777 C 0.98582 0.14303 0.39365 0.0
N778 N 0.96948 0.89612 0.33833 0.0
N779 N 0.02558 0.23019 0.4049 0.0
H780 H 0.95595 0.2228 0.41693 0.0
H781 H 0.98414 0.27322 0.42973 0.0
H782 H 0.04451 0.22634 0.40563 0.0
H783 H 0.01852 0.31473 0.41325 0.0
H784 H 0.97706 0.83516 0.32268 0.0
H785 H 0.95084 0.90805 0.33544 0.0
H786 H 0.00956 0.76575 0.33946 0.0
H787 H 0.03801 0.83106 0.34661 0.0
C788 C 0.01337 0.14617 0.86395 0.0
C789 C 0.02903 1.04172 0.86983 0.0
C790 C 0.99367 0.9076 0.88007 0.0
C791 C 0.97813 1.00723 0.87037 0.0
N792 N 0.97386 0.21117 0.84612 0.0
N793 N 0.03381 0.81522 0.8771 0.0
C794 C 0.98814 0.12377 0.86031 0.0
C795 C 0.01913 0.92001 0.87609 0.0
N796 N 0.02221 0.26769 0.86335 0.0
N797 N 0.98435 0.80366 0.89434 0.0
H798 H 0.05244 0.81893 0.87308 0.0
H799 H 0.02707 0.72281 0.87873 0.0
H800 H 0.96594 0.7931 0.8991 0.0
H801 H 0.99523 0.73469 0.90437 0.0
H802 H 0.011 0.34735 0.86192 0.0
H803 H 0.04029 0.2903 0.86777 0.0
H804 H 0.98085 0.29222 0.83587 0.0
H805 H 0.95553 0.19568 0.84162 0.0
C806 C 0.98517 0.05967 0.59837 0.0
C807 C 0.97241 0.06743 0.62568 0.0
C808 C 0.01111 0.06826 0.65292 0.0
C809 C 0.02363 0.0481 0.62583 0.0
N810 N 0.02231 0.99951 0.57342 0.0
N811 N 0.97273 0.05946 0.67923 0.0
C812 C 0.01061 1.03705 0.5987 0.0
C813 C 0.98524 0.06661 0.65308 0.0
N814 N 0.97323 0.07982 0.5721 0.0
N815 N 0.02392 0.09357 0.6783 0.0
H816 H 0.9538 0.05651 0.68025 0.0
H817 H 0.98106 1.04499 0.69976 0.0
H818 H 0.04286 0.09663 0.67898 0.0
H819 H 0.01583 0.1226 0.69805 0.0
H820 H 0.98212 0.08945 0.55182 0.0
H821 H 0.95469 0.09944 0.57077 0.0
H822 H 0.01324 0.97609 0.55384 0.0
H823 H 0.04087 0.97978 0.57269 0.0
C824 C 0.48868 0.54249 0.14192 0.0
C825 C 0.47611 0.52669 0.11459 0.0
C826 C 0.5146 0.54337 0.08757 0.0
C827 C 0.52734 0.54524 0.11506 0.0
N828 N 0.52686 0.52374 0.16843 0.0
N829 N 0.47737 0.48897 0.06173 0.0
C830 C 0.51448 0.53856 0.14227 0.0
C831 C 0.48912 0.52092 0.08746 0.0
N832 N 0.47601 0.5666 0.16739 0.0
N833 N 0.52654 0.56919 0.06164 0.0
H834 H 0.45876 0.47056 0.06067 0.0
H835 H 0.48642 0.46932 0.04197 0.0
H836 H 0.54506 0.58949 0.06066 0.0
H837 H 0.51765 0.58274 0.04143 0.0
H838 H 0.48429 0.59215 0.18734 0.0
H839 H 0.45711 0.57387 0.16796 0.0
H840 H 0.51835 0.50495 0.18861 0.0
H841 H 0.54575 0.5177 0.16961 0.0
C842 C 0.4855 0.56863 0.33409 0.0
C843 C 0.47292 0.58221 0.36141 0.0
C844 C 0.51135 0.56508 0.38884 0.0
C845 C 0.52404 0.55752 0.36148 0.0
N846 N 0.52406 0.57268 0.30802 0.0
N847 N 0.47417 0.62267 0.41416 0.0
C848 C 0.51138 0.56682 0.33407 0.0
C849 C 0.4859 0.5881 0.38866 0.0
N850 N 0.4727 0.55005 0.30837 0.0
N851 N 0.52363 0.55018 0.41507 0.0
H852 H 0.4557 0.64435 0.41489 0.0
H853 H 0.48308 0.64203 0.43408 0.0
H854 H 0.54252 0.5439 0.41641 0.0
H855 H 0.51503 0.5374 0.43544 0.0
H856 H 0.48071 0.52566 0.28825 0.0
H857 H 0.45376 0.5479 0.30754 0.0
H858 H 0.51607 0.59365 0.28761 0.0
H859 H 0.54294 0.56604 0.30699 0.0
C860 C 0.49031 0.54784 0.83204 0.0
C861 C 0.47761 0.54256 0.85939 0.0
C862 C 0.51583 0.56953 0.88667 0.0
C863 C 0.52876 0.56194 0.85949 0.0
N864 N 0.52886 0.52503 0.80662 0.0
N865 N 0.47851 0.52342 0.91287 0.0
C866 C 0.51615 0.54619 0.83221 0.0
C867 C 0.49041 0.54673 0.88678 0.0
N868 N 0.47768 0.55904 0.80596 0.0
N869 N 0.52758 0.60442 0.91221 0.0
H870 H 0.45994 0.50426 0.91401 0.0
H871 H 0.48744 0.51108 0.9331 0.0
H872 H 0.5461 0.62506 0.91312 0.0
H873 H 0.51854 0.62514 0.93193 0.0
H874 H 0.48591 0.57702 0.78558 0.0
H875 H 0.45874 0.56179 0.805 0.0
H876 H 0.52068 0.49948 0.78661 0.0
H877 H 0.54779 0.52185 0.8059 0.0
C878 C 0.48278 0.41383 0.61294 0.0
C879 C 0.47268 0.53615 0.61809 0.0
C880 C 0.51325 0.6186 0.62936 0.0
C881 C 0.5236 0.50256 0.61991 0.0
N882 N 0.51835 0.2942 0.59824 0.0
N883 N 0.47941 0.76241 0.62435 0.0
C884 C 0.50843 0.40096 0.61052 0.0
C885 C 0.48818 0.64082 0.62448 0.0
N886 N 0.46808 0.30912 0.61161 0.0
N887 N 0.52713 0.70557 0.64419 0.0
H888 H 0.46153 0.78505 0.61882 0.0
H889 H 0.49061 0.84199 0.62626 0.0
H890 H 0.54513 0.68736 0.65004 0.0
H891 H 0.51997 0.78741 0.65383 0.0
H892 H 0.47476 0.2165 0.61081 0.0
H893 H 0.4493 0.31336 0.61445 0.0
H894 H 0.50798 0.22348 0.58811 0.0
H895 H 0.53702 0.28134 0.59572 0.0
C896 C 0.14811 0.68769 0.10444 0.0
C897 C 0.13268 0.76149 0.12291 0.0
C898 C 0.10996 0.56733 0.13635 0.0
C899 C 0.12637 0.49285 0.11932 0.0
N900 N 0.16351 0.47903 0.0914 0.0
N901 N 0.1004 0.77079 0.15881 0.0
C902 C 0.14616 0.55228 0.10461 0.0
C903 C 0.11392 0.70103 0.13938 0.0
N904 N 0.16418 0.7475 0.08597 0.0
N905 N 0.09043 0.51016 0.14957 0.0
H906 H 0.10188 0.86896 0.16036 0.0
H907 H 0.08871 0.7316 0.17449 0.0
H908 H 0.08807 0.41181 0.15029 0.0
H909 H 0.07597 0.55987 0.15882 0.0
H910 H 0.17402 0.70078 0.06956 0.0
H911 H 0.16607 0.84615 0.08507 0.0
H912 H 0.17979 0.51478 0.08311 0.0
H913 H 0.16263 0.38027 0.09116 0.0
C914 C 0.89112 0.37669 0.13703 0.0
C915 C 0.8721 0.31705 0.12089 0.0
C916 C 0.85821 0.52626 0.10299 0.0
C917 C 0.87817 0.58519 0.11752 0.0
N918 N 0.91456 0.56759 0.14726 0.0
N919 N 0.83985 0.33132 0.08472 0.0
C920 C 0.89492 0.51048 0.13418 0.0
C921 C 0.85627 0.39097 0.10282 0.0
N922 N 0.905 0.30574 0.156 0.0
N923 N 0.84077 0.5999 0.0899 0.0
H924 H 0.83798 0.23267 0.08384 0.0
H925 H 0.82962 0.37814 0.0686 0.0
H926 H 0.84176 0.69868 0.08942 0.0
H927 H 0.82437 0.56456 0.08178 0.0
H928 H 0.91723 0.3437 0.17127 0.0
H929 H 0.90332 0.20747 0.15748 0.0
H930 H 0.92918 0.51793 0.15626 0.0
H931 H 0.91678 0.66599 0.14821 0.0
C932 C 0.11341 0.41235 0.38581 0.0
C933 C 0.13063 0.35375 0.36673 0.0
C934 C 0.13957 0.56292 0.34418 0.0
C935 C 0.12176 0.62081 0.36244 0.0
N936 N 0.08891 0.5977 0.39745 0.0
N937 N 0.15625 0.36933 0.32338 0.0
C938 C 0.10779 0.54441 0.38222 0.0
C939 C 0.1427 0.42826 0.34479 0.0
N940 N 0.10337 0.34391 0.40848 0.0
N941 N 0.15372 0.63696 0.32627 0.0
H942 H 0.15796 0.27083 0.32185 0.0
H943 H 0.16345 0.41585 0.30498 0.0
H944 H 0.1509 0.73411 0.32381 0.0
H945 H 0.16921 0.60442 0.31546 0.0
H946 H 0.09319 0.38402 0.42551 0.0
H947 H 0.10665 0.2475 0.41154 0.0
H948 H 0.07609 0.54495 0.40917 0.0
H949 H 0.08503 0.69467 0.39693 0.0
C950 C 0.85212 0.54447 0.38746 0.0
C951 C 0.87273 0.48584 0.37453 0.0
C952 C 0.88692 0.69464 0.35665 0.0
C953 C 0.86711 0.75385 0.37122 0.0
N954 N 0.83324 0.73902 0.40489 0.0
N955 N 0.91047 0.50339 0.34765 0.0
C956 C 0.85036 0.67969 0.38784 0.0
C957 C 0.89037 0.56067 0.3594 0.0
N958 N 0.83392 0.47069 0.39882 0.0
N959 N 0.90194 0.7663 0.33926 0.0
H960 H 0.91247 0.40496 0.34639 0.0
H961 H 0.92561 0.55275 0.33998 0.0
H962 H 0.90062 0.8648 0.33822 0.0
H963 H 0.9149 0.72897 0.32493 0.0
H964 H 0.81719 0.50623 0.40561 0.0
H965 H 0.83479 0.37181 0.39915 0.0
H966 H 0.82216 0.6916 0.41999 0.0
H967 H 0.83163 0.83773 0.40608 0.0
C968 C 0.85661 0.39058 0.88518 0.0
C969 C 0.87352 0.31759 0.86861 0.0
C970 C 0.89675 0.51199 0.85734 0.0
C971 C 0.87902 0.58564 0.8725 0.0
N972 N 0.84011 0.59878 0.89661 0.0
N973 N 0.90922 0.30671 0.83817 0.0
C974 C 0.85836 0.52591 0.88515 0.0
C975 C 0.89356 0.37786 0.85466 0.0
N976 N 0.83948 0.32995 0.902 0.0
N977 N 0.91676 0.57057 0.8456 0.0
H978 H 0.90875 0.20798 0.83837 0.0
H979 H 0.92213 0.34435 0.8238 0.0
H980 H 0.91848 0.66909 0.84414 0.0
H981 H 0.93202 0.52249 0.83795 0.0
H982 H 0.82822 0.37636 0.91703 0.0
H983 H 0.83805 0.23111 0.90314 0.0
H984 H 0.82335 0.56266 0.9032 0.0
H985 H 0.84099 0.69763 0.89725 0.0
C986 C 0.1194 0.56723 0.89666 0.0
C987 C 0.13001 0.48257 0.87567 0.0
C988 C 0.15141 0.66764 0.8538 0.0
C989 C 0.13838 0.75215 0.87277 0.0
N990 N 0.10453 0.77826 0.90616 0.0
N991 N 0.15559 0.45902 0.83209 0.0
C992 C 0.12063 0.7008 0.89212 0.0
C993 C 0.14602 0.53432 0.85378 0.0
N994 N 0.10916 0.52128 0.92217 0.0
N995 N 0.16895 0.71439 0.83528 0.0
H996 H 0.1557 0.36079 0.83277 0.0
H997 H 0.16321 0.49481 0.81263 0.0
H998 H 0.17076 0.81056 0.83016 0.0
H999 H 0.18203 0.65743 0.8252 0.0
H1000 H 0.10341 0.5801 0.9394 0.0
H1001 H 0.10938 0.42556 0.92808 0.0
H1002 H 0.08959 0.74406 0.91795 0.0
H1003 H 0.10463 0.87593 0.90348 0.0
C1004 C 0.88291 0.69059 0.64409 0.0
C1005 C 0.8667 0.75552 0.62467 0.0
C1006 C 0.85474 0.54977 0.60289 0.0
C1007 C 0.87309 0.48759 0.61969 0.0
N1008 N 0.90633 0.50049 0.65462 0.0
N1009 N 0.83887 0.74809 0.5832 0.0
C1010 C 0.88771 0.55869 0.63973 0.0
C1011 C 0.85313 0.68526 0.60334 0.0
N1012 N 0.89285 0.75309 0.66773 0.0
N1013 N 0.83826 0.47908 0.58731 0.0
H1014 H 0.83679 0.84668 0.58311 0.0
H1015 H 0.83074 0.70386 0.56503 0.0
H1016 H 0.83865 0.38016 0.58707 0.0
H1017 H 0.82291 0.51722 0.57708 0.0
H1018 H 0.90246 0.70806 0.68469 0.0
H1019 H 0.88955 0.84844 0.6719 0.0
H1020 H 0.91958 0.55009 0.66645 0.0
H1021 H 0.90948 0.40281 0.65376 0.0
C1022 C 0.10871 0.41389 0.63688 0.0
C1023 C 0.12894 0.35574 0.62292 0.0
C1024 C 0.14185 0.56548 0.60395 0.0
C1025 C 0.12276 0.62426 0.62009 0.0
N1026 N 0.09072 0.60722 0.65625 0.0
N1027 N 0.16525 0.37499 0.59333 0.0
C1028 C 0.10696 0.54907 0.63777 0.0
C1029 C 0.14568 0.43147 0.60654 0.0
N1030 N 0.09077 0.33981 0.64866 0.0
N1031 N 0.15585 0.63731 0.58535 0.0
H1032 H 0.16727 0.27662 0.59181 0.0
H1033 H 0.17992 0.42499 0.58462 0.0
H1034 H 0.15436 0.7357 0.58412 0.0
H1035 H 0.16805 0.59992 0.57006 0.0
H1036 H 0.07434 0.37551 0.65646 0.0
H1037 H 0.0913 0.2411 0.64783 0.0
H1038 H 0.08054 0.55864 0.6721 0.0
H1039 H 0.08908 0.70582 0.65782 0.0
C1040 C 0.62333 1.04582 0.13955 0.0
C1041 C 0.62448 0.98396 0.11157 0.0
C1042 C 0.63146 0.19211 0.08734 0.0
C1043 C 0.63267 0.2524 0.11567 0.0
N1044 N 0.63176 0.23263 0.16905 0.0
N1045 N 0.63235 0.99589 0.05904 0.0
C1046 C 0.62937 0.17753 0.14179 0.0
C1047 C 0.62909 0.05683 0.08553 0.0
N1048 N 0.61482 0.98132 0.16379 0.0
N1049 N 0.63262 0.26311 0.06195 0.0
H1050 H 0.63047 0.89808 0.05663 0.0
H1051 H 0.63886 1.03996 0.03993 0.0
H1052 H 0.63654 0.35954 0.06164 0.0
H1053 H 0.62824 0.22799 0.04099 0.0
H1054 H 0.61082 1.02445 0.184 0.0
H1055 H 0.60938 0.88663 0.16308 0.0
H1056 H 0.63335 0.18138 0.18878 0.0
H1057 H 0.63328 0.33019 0.17178 0.0
C1058 C 0.3896 0.90319 0.09585 0.0
C1059 C 0.37047 0.8409 0.11121 0.0
C1060 C 0.35927 1.04384 0.13489 0.0
C1061 C 0.37718 0.10768 0.11781 0.0
N1062 N 0.40815 0.10186 0.08005 0.0
N1063 N 0.33559 0.85264 0.14355 0.0
C1064 C 0.39202 1.03821 0.09775 0.0
C1065 C 0.35484 0.91165 0.13015 0.0
N1066 N 0.40577 0.83269 0.07984 0.0
N1067 N 0.34713 0.10858 0.15657 0.0
H1068 H 0.33283 0.75458 0.14294 0.0
H1069 H 0.32166 0.90125 0.15423 0.0
H1070 H 0.3494 0.20572 0.16009 0.0
H1071 H 0.33612 0.06525 0.17239 0.0
H1072 H 0.42177 0.86871 0.07089 0.0
H1073 H 0.40399 0.73487 0.07714 0.0
H1074 H 0.41752 0.05999 0.06256 0.0
H1075 H 0.41092 0.19986 0.08124 0.0
C1076 C 0.62259 1.03472 0.33703 0.0
C1077 C 0.62086 0.09633 0.36498 0.0
C1078 C 0.62628 0.88867 0.39 0.0
C1079 C 0.62992 0.82839 0.36198 0.0
N1080 N 0.63652 0.85281 0.30908 0.0
N1081 N 0.625 0.08515 0.4182 0.0
C1082 C 0.62972 0.90431 0.33566 0.0
C1083 C 0.6236 1.02381 0.39147 0.0
N1084 N 0.61584 0.09764 0.31172 0.0
N1085 N 0.62594 0.81824 0.4155 0.0
H1086 H 0.62347 0.18335 0.42028 0.0
H1087 H 0.6299 1.04101 0.43804 0.0
H1088 H 0.63138 0.72398 0.41658 0.0
H1089 H 0.61944 0.85242 0.43567 0.0
H1090 H 0.61403 0.05317 0.29116 0.0
H1091 H 0.60951 0.19094 0.3116 0.0
H1092 H 0.6398 0.90737 0.29017 0.0
H1093 H 0.64051 0.75693 0.30616 0.0
C1094 C 0.35335 0.05344 0.38128 0.0
C1095 C 0.37353 0.99588 0.36697 0.0
C1096 C 0.38856 0.20711 0.35227 0.0
C1097 C 0.36738 0.26418 0.36418 0.0
N1098 N 0.32966 0.24399 0.39094 0.0
N1099 N 0.40777 1.01525 0.33399 0.0
C1100 C 0.34976 0.18771 0.37892 0.0
C1101 C 0.39044 0.07214 0.35117 0.0
N1102 N 0.33804 0.98004 0.39789 0.0
N1103 N 0.40718 0.28194 0.34249 0.0
H1104 H 0.40933 0.91679 0.33196 0.0
H1105 H 0.41897 0.06501 0.31943 0.0
H1106 H 0.40634 0.38065 0.34297 0.0
H1107 H 0.42417 0.24685 0.33653 0.0
H1108 H 0.32469 1.01576 0.41189 0.0
H1109 H 0.33938 0.88154 0.39867 0.0
H1110 H 0.31448 0.19427 0.39832 0.0
H1111 H 0.32788 0.34227 0.3931 0.0
C1112 C 0.39265 0.90905 0.84737 0.0
C1113 C 0.37348 0.84965 0.86329 0.0
C1114 C 0.35929 0.05888 0.88046 0.0
C1115 C 0.37898 0.11813 0.86558 0.0
N1116 N 0.41461 0.10257 0.83476 0.0
N1117 N 0.34169 0.8639 0.8998 0.0
C1118 C 0.39572 1.04378 0.84897 0.0
C1119 C 0.35764 0.92362 0.88113 0.0
N1120 N 0.40765 0.83637 0.83029 0.0
N1121 N 0.34182 0.13213 0.89345 0.0
H1122 H 0.34045 0.76513 0.90148 0.0
H1123 H 0.33141 0.9111 0.91571 0.0
H1124 H 0.34268 0.23093 0.89369 0.0
H1125 H 0.32556 0.09629 0.90177 0.0
H1126 H 0.42005 0.87214 0.81501 0.0
H1127 H 0.4074 0.73773 0.83112 0.0
H1128 H 0.42924 0.05515 0.82531 0.0
H1129 H 0.416 0.20111 0.83278 0.0
C1130 C 0.63557 0.1997 0.89029 0.0
C1131 C 0.63395 0.26125 0.86214 0.0
C1132 C 0.62223 0.05665 0.83928 0.0
C1133 C 0.62618 0.99326 0.8667 0.0
N1134 N 0.63857 1.00198 0.918 0.0
N1135 N 0.62793 0.24466 0.80921 0.0
C1136 C 0.63322 0.06444 0.89215 0.0
C1137 C 0.62809 0.18818 0.83649 0.0
N1138 N 0.63935 0.26997 0.9154 0.0
N1139 N 0.6113 0.99348 0.81633 0.0
H1140 H 0.62956 0.34216 0.80654 0.0
H1141 H 0.62743 0.19447 0.78929 0.0
H1142 H 0.60582 0.89904 0.81785 0.0
H1143 H 0.60539 1.03747 0.79688 0.0
H1144 H 0.63738 0.23422 0.93683 0.0
H1145 H 0.64303 0.36678 0.9151 0.0
H1146 H 0.64673 1.04462 0.93634 0.0
H1147 H 0.63649 0.9043 0.92047 0.0
C1148 C 0.35475 1.02796 0.6304 0.0
C1149 C 0.37187 0.9775 0.60967 0.0
C1150 C 0.38144 0.19625 0.59327 0.0
C1151 C 0.36394 0.24672 0.61297 0.0
N1152 N 0.33845 0.21343 0.6557 0.0
N1153 N 0.39382 1.01694 0.56392 0.0
C1154 C 0.35167 0.16299 0.63284 0.0
C1155 C 0.38311 0.06266 0.58913 0.0
N1156 N 0.34029 0.9485 0.64663 0.0
N1157 N 0.39722 0.27497 0.57896 0.0
H1158 H 0.39365 0.92145 0.5579 0.0
H1159 H 0.39984 0.07548 0.54673 0.0
H1160 H 0.39683 0.37265 0.5815 0.0
H1161 H 0.41228 0.24242 0.56722 0.0
H1162 H 0.32545 0.97895 0.65897 0.0
H1163 H 0.34095 0.85041 0.64552 0.0
H1164 H 0.33157 0.16056 0.67332 0.0
H1165 H 0.33679 0.31093 0.65931 0.0
C1166 C 0.60831 0.88546 0.62513 0.0
C1167 C 0.62979 0.82899 0.614 0.0
C1168 C 0.64402 1.04085 0.59797 0.0
C1169 C 0.62367 0.09725 0.61211 0.0
N1170 N 0.58917 0.07488 0.64455 0.0
N1171 N 0.66835 0.8522 0.58905 0.0
C1172 C 0.60657 1.01989 0.62716 0.0
C1173 C 0.64779 0.90675 0.60029 0.0
N1174 N 0.58919 0.81098 0.6332 0.0
N1175 N 0.65921 0.11479 0.58132 0.0
H1176 H 0.6704 0.75425 0.58658 0.0
H1177 H 0.68367 0.9035 0.58273 0.0
H1178 H 0.65749 0.21307 0.58017 0.0
H1179 H 0.67269 0.07922 0.56747 0.0
H1180 H 0.57205 0.84774 0.63783 0.0
H1181 H 0.59006 0.71228 0.63292 0.0
H1182 H 0.57782 1.0231 0.65859 0.0
H1183 H 0.58779 0.173 0.64747 0.0
loop_
_geom_bond_atom_site_label_1
_geom_bond_atom_site_label_2
_geom_bond_distance
_geom_bond_site_symmetry_2
_ccdc_geom_bond_type
Tb0 O3 2.453 . S
Tb0 O4 2.596 . S
Tb0 O5 2.374 . S
Tb0 O13 2.343 . S
Tb0 O15 2.353 . S
Tb0 O17 2.427 . S
Tb0 O18 2.513 . S
C1 O5 1.251 . S
C1 O7 1.263 . S
Tb2 O4 2.343 . S
Tb2 O7 2.353 . S
Tb2 O10 2.427 . S
Tb2 O11 2.513 . S
Tb2 O12 2.453 1_545 S
Tb2 O13 2.596 . S
Tb2 O14 2.374 . S
O3 Tb0 2.453 . S
O3 C19 1.245 . S
O4 Tb0 2.596 . S
O4 Tb2 2.343 . S
O4 C19 1.259 . S
O5 Tb0 2.374 . S
O5 C1 1.251 . S
C6 O10 1.275 . S
C6 O11 1.246 . S
O7 C1 1.263 . S
O7 Tb2 2.353 . S
C8 O12 1.245 . S
C8 O13 1.259 1_565 S
C9 O14 1.250 . S
C9 O15 1.263 . S
O10 Tb2 2.427 . S
O10 C6 1.275 . S
O11 Tb2 2.513 . S
O11 C6 1.246 . S
O12 Tb2 2.453 1_565 S
O12 C8 1.245 . S
O13 Tb0 2.343 . S
O13 Tb2 2.596 . S
O13 C8 1.259 1_545 S
O14 Tb2 2.374 . S
O14 C9 1.250 . S
O15 Tb0 2.353 . S
O15 C9 1.263 . S
C16 O17 1.275 . S
C16 O18 1.246 . S
O17 Tb0 2.427 . S
O17 C16 1.275 . S
O18 Tb0 2.513 . S
O18 C16 1.246 . S
C19 O3 1.245 . S
C19 O4 1.259 . S
Tb20 O23 2.453 . S
Tb20 O24 2.596 . S
Tb20 O25 2.374 . S
Tb20 O33 2.343 . S
Tb20 O35 2.353 . S
Tb20 O37 2.427 . S
Tb20 O38 2.513 . S
C21 O25 1.251 . S
C21 O27 1.263 . S
Tb22 O24 2.343 . S
Tb22 O27 2.353 . S
Tb22 O30 2.427 . S
Tb22 O31 2.513 . S
Tb22 O32 2.453 1_565 S
Tb22 O33 2.596 . S
Tb22 O34 2.374 . S
O23 Tb20 2.453 . S
O23 C39 1.245 . S
O24 Tb20 2.596 . S
O24 Tb22 2.343 . S
O24 C39 1.259 . S
O25 Tb20 2.374 . S
O25 C21 1.251 . S
C26 O30 1.275 . S
C26 O31 1.246 . S
O27 C21 1.263 . S
O27 Tb22 2.353 . S
C28 O32 1.245 . S
C28 O33 1.259 1_545 S
C29 O34 1.250 . S
C29 O35 1.263 . S
O30 Tb22 2.427 . S
O30 C26 1.275 . S
O31 Tb22 2.513 . S
O31 C26 1.246 . S
O32 Tb22 2.453 1_545 S
O32 C28 1.245 . S
O33 Tb20 2.343 . S
O33 Tb22 2.596 . S
O33 C28 1.259 1_565 S
O34 Tb22 2.374 . S
O34 C29 1.250 . S
O35 Tb20 2.353 . S
O35 C29 1.263 . S
C36 O37 1.275 . S
C36 O38 1.246 . S
O37 Tb20 2.427 . S
O37 C36 1.275 . S
O38 Tb20 2.513 . S
O38 C36 1.246 . S
C39 O23 1.245 . S
C39 O24 1.259 . S
Tb40 O43 2.453 . S
Tb40 O44 2.596 . S
Tb40 O45 2.374 . S
Tb40 O53 2.343 . S
Tb40 O55 2.353 . S
Tb40 O57 2.427 . S
Tb40 O58 2.513 . S
C41 O45 1.251 . S
C41 O47 1.263 . S
Tb42 O44 2.343 . S
Tb42 O47 2.353 . S
Tb42 O50 2.427 . S
Tb42 O51 2.513 . S
Tb42 O52 2.453 1_565 S
Tb42 O53 2.596 . S
Tb42 O54 2.374 . S
O43 Tb40 2.453 . S
O43 C59 1.245 . S
O44 Tb40 2.596 . S
O44 Tb42 2.343 . S
O44 C59 1.259 . S
O45 Tb40 2.374 . S
O45 C41 1.251 . S
C46 O50 1.275 . S
C46 O51 1.246 . S
O47 C41 1.263 . S
O47 Tb42 2.353 . S
C48 O52 1.245 . S
C48 O53 1.259 1_545 S
C49 O54 1.250 . S
C49 O55 1.263 . S
O50 Tb42 2.427 . S
O50 C46 1.275 . S
O51 Tb42 2.513 . S
O51 C46 1.246 . S
O52 Tb42 2.453 1_545 S
O52 C48 1.245 . S
O53 Tb40 2.343 . S
O53 Tb42 2.596 . S
O53 C48 1.259 1_565 S
O54 Tb42 2.374 . S
O54 C49 1.250 . S
O55 Tb40 2.353 . S
O55 C49 1.263 . S
C56 O57 1.275 . S
C56 O58 1.246 . S
O57 Tb40 2.427 . S
O57 C56 1.275 . S
O58 Tb40 2.513 . S
O58 C56 1.246 . S
C59 O43 1.245 . S
C59 O44 1.259 . S
Tb60 O63 2.453 . S
Tb60 O64 2.596 . S
Tb60 O65 2.374 . S
Tb60 O73 2.343 . S
Tb60 O75 2.353 . S
Tb60 O77 2.427 . S
Tb60 O78 2.513 . S
C61 O65 1.251 . S
C61 O67 1.263 . S
Tb62 O64 2.343 . S
Tb62 O67 2.353 . S
Tb62 O70 2.427 . S
Tb62 O71 2.513 . S
Tb62 O72 2.453 1_545 S
Tb62 O73 2.596 . S
Tb62 O74 2.374 . S
O63 Tb60 2.453 . S
O63 C79 1.245 . S
O64 Tb60 2.596 . S
O64 Tb62 2.343 . S
O64 C79 1.259 . S
O65 Tb60 2.374 . S
O65 C61 1.251 . S
C66 O70 1.275 . S
C66 O71 1.246 . S
O67 C61 1.263 . S
O67 Tb62 2.353 . S
C68 O72 1.245 . S
C68 O73 1.259 1_565 S
C69 O74 1.250 . S
C69 O75 1.263 . S
O70 Tb62 2.427 . S
O70 C66 1.275 . S
O71 Tb62 2.513 . S
O71 C66 1.246 . S
O72 Tb62 2.453 1_565 S
O72 C68 1.245 . S
O73 Tb60 2.343 . S
O73 Tb62 2.596 . S
O73 C68 1.259 1_545 S
O74 Tb62 2.374 . S
O74 C69 1.250 . S
O75 Tb60 2.353 . S
O75 C69 1.263 . S
C76 O77 1.275 . S
C76 O78 1.246 . S
O77 Tb60 2.427 . S
O77 C76 1.275 . S
O78 Tb60 2.513 . S
O78 C76 1.246 . S
C79 O63 1.245 . S
C79 O64 1.259 . S
Tb80 O83 2.453 1_565 S
Tb80 O84 2.596 . S
Tb80 O85 2.374 . S
Tb80 O93 2.343 . S
Tb80 O95 2.353 . S
Tb80 O97 2.427 . S
Tb80 O98 2.513 . S
C81 O85 1.251 . S
C81 O87 1.263 . S
Tb82 O84 2.343 . S
Tb82 O87 2.353 . S
Tb82 O90 2.427 . S
Tb82 O91 2.513 . S
Tb82 O92 2.453 . S
Tb82 O93 2.596 . S
Tb82 O94 2.374 . S
O83 Tb80 2.453 1_545 S
O83 C99 1.245 . S
O84 Tb80 2.596 . S
O84 Tb82 2.343 . S
O84 C99 1.259 1_565 S
O85 Tb80 2.374 . S
O85 C81 1.251 . S
C86 O90 1.275 . S
C86 O91 1.246 . S
O87 C81 1.263 . S
O87 Tb82 2.353 . S
C88 O92 1.245 . S
C88 O93 1.259 . S
C89 O94 1.250 . S
C89 O95 1.263 . S
O90 Tb82 2.427 . S
O90 C86 1.275 . S
O91 Tb82 2.513 . S
O91 C86 1.246 . S
O92 Tb82 2.453 . S
O92 C88 1.245 . S
O93 Tb80 2.343 . S
O93 Tb82 2.596 . S
O93 C88 1.259 . S
O94 Tb82 2.374 . S
O94 C89 1.250 . S
O95 Tb80 2.353 . S
O95 C89 1.263 . S
C96 O97 1.275 . S
C96 O98 1.246 . S
O97 Tb80 2.427 . S
O97 C96 1.275 . S
O98 Tb80 2.513 . S
O98 C96 1.246 . S
C99 O83 1.245 . S
C99 O84 1.259 1_545 S
Tb100 O103 2.453 1_545 S
Tb100 O104 2.596 . S
Tb100 O105 2.374 . S
Tb100 O113 2.343 . S
Tb100 O115 2.353 . S
Tb100 O117 2.427 . S
Tb100 O118 2.513 . S
C101 O105 1.251 . S
C101 O107 1.263 . S
Tb102 O104 2.343 . S
Tb102 O107 2.353 . S
Tb102 O110 2.427 . S
Tb102 O111 2.513 . S
Tb102 O112 2.453 . S
Tb102 O113 2.596 . S
Tb102 O114 2.374 . S
O103 Tb100 2.453 1_565 S
O103 C119 1.245 . S
O104 Tb100 2.596 . S
O104 Tb102 2.343 . S
O104 C119 1.259 1_545 S
O105 Tb100 2.374 . S
O105 C101 1.251 . S
C106 O110 1.275 . S
C106 O111 1.246 . S
O107 C101 1.263 . S
O107 Tb102 2.353 . S
C108 O112 1.245 . S
C108 O113 1.259 . S
C109 O114 1.250 . S
C109 O115 1.263 . S
O110 Tb102 2.427 . S
O110 C106 1.275 . S
O111 Tb102 2.513 . S
O111 C106 1.246 . S
O112 Tb102 2.453 . S
O112 C108 1.245 . S
O113 Tb100 2.343 . S
O113 Tb102 2.596 . S
O113 C108 1.259 . S
O114 Tb102 2.374 . S
O114 C109 1.250 . S
O115 Tb100 2.353 . S
O115 C109 1.263 . S
C116 O117 1.275 . S
C116 O118 1.246 . S
O117 Tb100 2.427 . S
O117 C116 1.275 . S
O118 Tb100 2.513 . S
O118 C116 1.246 . S
C119 O103 1.245 . S
C119 O104 1.259 1_565 S
Tb120 O123 2.453 1_545 S
Tb120 O124 2.596 . S
Tb120 O125 2.374 . S
Tb120 O133 2.343 . S
Tb120 O135 2.353 . S
Tb120 O137 2.427 . S
Tb120 O138 2.513 . S
C121 O125 1.251 . S
C121 O127 1.263 . S
Tb122 O124 2.343 . S
Tb122 O127 2.353 . S
Tb122 O130 2.427 . S
Tb122 O131 2.513 . S
Tb122 O132 2.453 . S
Tb122 O133 2.596 . S
Tb122 O134 2.374 . S
O123 Tb120 2.453 1_565 S
O123 C139 1.245 . S
O124 Tb120 2.596 . S
O124 Tb122 2.343 . S
O124 C139 1.259 1_545 S
O125 Tb120 2.374 . S
O125 C121 1.251 . S
C126 O130 1.275 . S
C126 O131 1.246 . S
O127 C121 1.263 . S
O127 Tb122 2.353 . S
C128 O132 1.245 . S
C128 O133 1.259 . S
C129 O134 1.250 . S
C129 O135 1.263 . S
O130 Tb122 2.427 . S
O130 C126 1.275 . S
O131 Tb122 2.513 . S
O131 C126 1.246 . S
O132 Tb122 2.453 . S
O132 C128 1.245 . S
O133 Tb120 2.343 . S
O133 Tb122 2.596 . S
O133 C128 1.259 . S
O134 Tb122 2.374 . S
O134 C129 1.250 . S
O135 Tb120 2.353 . S
O135 C129 1.263 . S
C136 O137 1.275 . S
C136 O138 1.246 . S
O137 Tb120 2.427 . S
O137 C136 1.275 . S
O138 Tb120 2.513 . S
O138 C136 1.246 . S
C139 O123 1.245 . S
C139 O124 1.259 1_565 S
Tb140 O143 2.453 1_565 S
Tb140 O144 2.596 . S
Tb140 O145 2.374 . S
Tb140 O153 2.343 . S
Tb140 O155 2.353 . S
Tb140 O157 2.427 . S
Tb140 O158 2.513 . S
C141 O145 1.251 . S
C141 O147 1.263 . S
Tb142 O144 2.343 . S
Tb142 O147 2.353 . S
Tb142 O150 2.427 . S
Tb142 O151 2.513 . S
Tb142 O152 2.453 . S
Tb142 O153 2.596 . S
Tb142 O154 2.374 . S
O143 Tb140 2.453 1_545 S
O143 C159 1.245 . S
O144 Tb140 2.596 . S
O144 Tb142 2.343 . S
O144 C159 1.259 1_565 S
O145 Tb140 2.374 . S
O145 C141 1.251 . S
C146 O150 1.275 . S
C146 O151 1.246 . S
O147 C141 1.263 . S
O147 Tb142 2.353 . S
C148 O152 1.245 . S
C148 O153 1.259 . S
C149 O154 1.250 . S
C149 O155 1.263 . S
O150 Tb142 2.427 . S
O150 C146 1.275 . S
O151 Tb142 2.513 . S
O151 C146 1.246 . S
O152 Tb142 2.453 . S
O152 C148 1.245 . S
O153 Tb140 2.343 . S
O153 Tb142 2.596 . S
O153 C148 1.259 . S
O154 Tb142 2.374 . S
O154 C149 1.250 . S
O155 Tb140 2.353 . S
O155 C149 1.263 . S
C156 O157 1.275 . S
C156 O158 1.246 . S
O157 Tb140 2.427 . S
O157 C156 1.275 . S
O158 Tb140 2.513 . S
O158 C156 1.246 . S
C159 O143 1.245 . S
C159 O144 1.259 1_545 S
Tb160 O163 2.453 . S
Tb160 O164 2.596 . S
Tb160 O165 2.374 . S
Tb160 O173 2.343 . S
Tb160 O175 2.353 . S
Tb160 O177 2.427 . S
Tb160 O178 2.513 . S
C161 O165 1.251 . S
C161 O167 1.263 . S
Tb162 O164 2.343 . S
Tb162 O167 2.353 . S
Tb162 O170 2.427 . S
Tb162 O171 2.513 . S
Tb162 O172 2.453 . S
Tb162 O173 2.596 . S
Tb162 O174 2.374 . S
O163 Tb160 2.453 . S
O163 C179 1.245 . S
O164 Tb160 2.596 . S
O164 Tb162 2.343 . S
O164 C179 1.259 . S
O165 Tb160 2.374 . S
O165 C161 1.251 . S
C166 O170 1.275 . S
C166 O171 1.246 . S
O167 C161 1.263 . S
O167 Tb162 2.353 . S
C168 O172 1.245 . S
C168 O173 1.259 . S
C169 O174 1.250 . S
C169 O175 1.263 . S
O170 Tb162 2.427 . S
O170 C166 1.275 . S
O171 Tb162 2.513 . S
O171 C166 1.246 . S
O172 Tb162 2.453 . S
O172 C168 1.245 . S
O173 Tb160 2.343 . S
O173 Tb162 2.596 . S
O173 C168 1.259 . S
O174 Tb162 2.374 . S
O174 C169 1.250 . S
O175 Tb160 2.353 . S
O175 C169 1.263 . S
C176 O177 1.275 . S
C176 O178 1.246 . S
O177 Tb160 2.427 . S
O177 C176 1.275 . S
O178 Tb160 2.513 . S
O178 C176 1.246 . S
C179 O163 1.245 . S
C179 O164 1.259 . S
Tb180 O183 2.453 . S
Tb180 O184 2.596 . S
Tb180 O185 2.374 . S
Tb180 O193 2.343 . S
Tb180 O195 2.353 . S
Tb180 O197 2.427 . S
Tb180 O198 2.513 . S
C181 O185 1.251 . S
C181 O187 1.263 . S
Tb182 O184 2.343 . S
Tb182 O187 2.353 . S
Tb182 O190 2.427 . S
Tb182 O191 2.513 . S
Tb182 O192 2.453 . S
Tb182 O193 2.596 . S
Tb182 O194 2.374 . S
O183 Tb180 2.453 . S
O183 C199 1.245 . S
O184 Tb180 2.596 . S
O184 Tb182 2.343 . S
O184 C199 1.259 . S
O185 Tb180 2.374 . S
O185 C181 1.251 . S
C186 O190 1.275 . S
C186 O191 1.246 . S
O187 C181 1.263 . S
O187 Tb182 2.353 . S
C188 O192 1.245 . S
C188 O193 1.259 . S
C189 O194 1.250 . S
C189 O195 1.263 . S
O190 Tb182 2.427 . S
O190 C186 1.275 . S
O191 Tb182 2.513 . S
O191 C186 1.246 . S
O192 Tb182 2.453 . S
O192 C188 1.245 . S
O193 Tb180 2.343 . S
O193 Tb182 2.596 . S
O193 C188 1.259 . S
O194 Tb182 2.374 . S
O194 C189 1.250 . S
O195 Tb180 2.353 . S
O195 C189 1.263 . S
C196 O197 1.275 . S
C196 O198 1.246 . S
O197 Tb180 2.427 . S
O197 C196 1.275 . S
O198 Tb180 2.513 . S
O198 C196 1.246 . S
C199 O183 1.245 . S
C199 O184 1.259 . S
Tb200 O203 2.453 . S
Tb200 O204 2.596 . S
Tb200 O205 2.374 . S
Tb200 O213 2.343 . S
Tb200 O215 2.353 . S
Tb200 O217 2.427 . S
Tb200 O218 2.513 . S
C201 O205 1.251 . S
C201 O207 1.263 . S
Tb202 O204 2.343 . S
Tb202 O207 2.353 . S
Tb202 O210 2.427 . S
Tb202 O211 2.513 . S
Tb202 O212 2.453 . S
Tb202 O213 2.596 . S
Tb202 O214 2.374 . S
O203 Tb200 2.453 . S
O203 C219 1.245 . S
O204 Tb200 2.596 . S
O204 Tb202 2.343 . S
O204 C219 1.259 . S
O205 Tb200 2.374 . S
O205 C201 1.251 . S
C206 O210 1.275 . S
C206 O211 1.246 . S
O207 C201 1.263 . S
O207 Tb202 2.353 . S
C208 O212 1.245 . S
C208 O213 1.259 . S
C209 O214 1.250 . S
C209 O215 1.263 . S
O210 Tb202 2.427 . S
O210 C206 1.275 . S
O211 Tb202 2.513 . S
O211 C206 1.246 . S
O212 Tb202 2.453 . S
O212 C208 1.245 . S
O213 Tb200 2.343 . S
O213 Tb202 2.596 . S
O213 C208 1.259 . S
O214 Tb202 2.374 . S
O214 C209 1.250 . S
O215 Tb200 2.353 . S
O215 C209 1.263 . S
C216 O217 1.275 . S
C216 O218 1.246 . S
O217 Tb200 2.427 . S
O217 C216 1.275 . S
O218 Tb200 2.513 . S
O218 C216 1.246 . S
C219 O203 1.245 . S
C219 O204 1.259 . S
Tb220 O223 2.453 . S
Tb220 O224 2.596 . S
Tb220 O225 2.374 . S
Tb220 O233 2.343 . S
Tb220 O235 2.353 . S
Tb220 O237 2.427 . S
Tb220 O238 2.513 . S
C221 O225 1.251 . S
C221 O227 1.263 . S
Tb222 O224 2.343 . S
Tb222 O227 2.353 . S
Tb222 O230 2.427 . S
Tb222 O231 2.513 . S
Tb222 O232 2.453 . S
Tb222 O233 2.596 . S
Tb222 O234 2.374 . S
O223 Tb220 2.453 . S
O223 C239 1.245 . S
O224 Tb220 2.596 . S
O224 Tb222 2.343 . S
O224 C239 1.259 . S
O225 Tb220 2.374 . S
O225 C221 1.251 . S
C226 O230 1.275 . S
C226 O231 1.246 . S
O227 C221 1.263 . S
O227 Tb222 2.353 . S
C228 O232 1.245 . S
C228 O233 1.259 . S
C229 O234 1.250 . S
C229 O235 1.263 . S
O230 Tb222 2.427 . S
O230 C226 1.275 . S
O231 Tb222 2.513 . S
O231 C226 1.246 . S
O232 Tb222 2.453 . S
O232 C228 1.245 . S
O233 Tb220 2.343 . S
O233 Tb222 2.596 . S
O233 C228 1.259 . S
O234 Tb222 2.374 . S
O234 C229 1.250 . S
O235 Tb220 2.353 . S
O235 C229 1.263 . S
C236 O237 1.275 . S
C236 O238 1.246 . S
O237 Tb220 2.427 . S
O237 C236 1.275 . S
O238 Tb220 2.513 . S
O238 C236 1.246 . S
C239 O223 1.245 . S
C239 O224 1.259 . S
Tb240 O243 2.453 . S
Tb240 O244 2.596 . S
Tb240 O245 2.374 . S
Tb240 O253 2.343 . S
Tb240 O255 2.353 . S
Tb240 O257 2.427 . S
Tb240 O258 2.513 . S
C241 O245 1.251 . S
C241 O247 1.263 . S
Tb242 O244 2.343 . S
Tb242 O247 2.353 . S
Tb242 O250 2.427 . S
Tb242 O251 2.513 . S
Tb242 O252 2.453 . S
Tb242 O253 2.596 . S
Tb242 O254 2.374 . S
O243 Tb240 2.453 . S
O243 C259 1.245 . S
O244 Tb240 2.596 . S
O244 Tb242 2.343 . S
O244 C259 1.259 . S
O245 Tb240 2.374 . S
O245 C241 1.251 . S
C246 O250 1.275 . S
C246 O251 1.246 . S
O247 C241 1.263 . S
O247 Tb242 2.353 . S
C248 O252 1.245 . S
C248 O253 1.259 . S
C249 O254 1.250 . S
C249 O255 1.263 . S
O250 Tb242 2.427 . S
O250 C246 1.275 . S
O251 Tb242 2.513 . S
O251 C246 1.246 . S
O252 Tb242 2.453 . S
O252 C248 1.245 . S
O253 Tb240 2.343 . S
O253 Tb242 2.596 . S
O253 C248 1.259 . S
O254 Tb242 2.374 . S
O254 C249 1.250 . S
O255 Tb240 2.353 . S
O255 C249 1.263 . S
C256 O257 1.275 . S
C256 O258 1.246 . S
O257 Tb240 2.427 . S
O257 C256 1.275 . S
O258 Tb240 2.513 . S
O258 C256 1.246 . S
C259 O243 1.245 . S
C259 O244 1.259 . S
Tb260 O263 2.453 . S
Tb260 O264 2.596 . S
Tb260 O265 2.374 . S
Tb260 O273 2.343 . S
Tb260 O275 2.353 . S
Tb260 O277 2.427 . S
Tb260 O278 2.513 . S
C261 O265 1.251 . S
C261 O267 1.263 . S
Tb262 O264 2.343 . S
Tb262 O267 2.353 . S
Tb262 O270 2.427 . S
Tb262 O271 2.513 . S
Tb262 O272 2.453 . S
Tb262 O273 2.596 . S
Tb262 O274 2.374 . S
O263 Tb260 2.453 . S
O263 C279 1.245 . S
O264 Tb260 2.596 . S
O264 Tb262 2.343 . S
O264 C279 1.259 . S
O265 Tb260 2.374 . S
O265 C261 1.251 . S
C266 O270 1.275 . S
C266 O271 1.246 . S
O267 C261 1.263 . S
O267 Tb262 2.353 . S
C268 O272 1.245 . S
C268 O273 1.259 . S
C269 O274 1.250 . S
C269 O275 1.263 . S
O270 Tb262 2.427 . S
O270 C266 1.275 . S
O271 Tb262 2.513 . S
O271 C266 1.246 . S
O272 Tb262 2.453 . S
O272 C268 1.245 . S
O273 Tb260 2.343 . S
O273 Tb262 2.596 . S
O273 C268 1.259 . S
O274 Tb262 2.374 . S
O274 C269 1.250 . S
O275 Tb260 2.353 . S
O275 C269 1.263 . S
C276 O277 1.275 . S
C276 O278 1.246 . S
O277 Tb260 2.427 . S
O277 C276 1.275 . S
O278 Tb260 2.513 . S
O278 C276 1.246 . S
C279 O263 1.245 . S
C279 O264 1.259 . S
Tb280 O283 2.453 . S
Tb280 O284 2.596 . S
Tb280 O285 2.374 . S
Tb280 O293 2.343 . S
Tb280 O295 2.353 . S
Tb280 O297 2.427 . S
Tb280 O298 2.513 . S
C281 O285 1.251 . S
C281 O287 1.263 . S
Tb282 O284 2.343 . S
Tb282 O287 2.353 . S
Tb282 O290 2.427 . S
Tb282 O291 2.513 . S
Tb282 O292 2.453 . S
Tb282 O293 2.596 . S
Tb282 O294 2.374 . S
O283 Tb280 2.453 . S
O283 C299 1.245 . S
O284 Tb280 2.596 . S
O284 Tb282 2.343 . S
O284 C299 1.259 . S
O285 Tb280 2.374 . S
O285 C281 1.251 . S
C286 O290 1.275 . S
C286 O291 1.246 . S
O287 C281 1.263 . S
O287 Tb282 2.353 . S
C288 O292 1.245 . S
C288 O293 1.259 . S
C289 O294 1.250 . S
C289 O295 1.263 . S
O290 Tb282 2.427 . S
O290 C286 1.275 . S
O291 Tb282 2.513 . S
O291 C286 1.246 . S
O292 Tb282 2.453 . S
O292 C288 1.245 . S
O293 Tb280 2.343 . S
O293 Tb282 2.596 . S
O293 C288 1.259 . S
O294 Tb282 2.374 . S
O294 C289 1.250 . S
O295 Tb280 2.353 . S
O295 C289 1.263 . S
C296 O297 1.275 . S
C296 O298 1.246 . S
O297 Tb280 2.427 . S
O297 C296 1.275 . S
O298 Tb280 2.513 . S
O298 C296 1.246 . S
C299 O283 1.245 . S
C299 O284 1.259 . S
Tb300 O303 2.453 . S
Tb300 O304 2.596 . S
Tb300 O305 2.374 . S
Tb300 O313 2.343 . S
Tb300 O315 2.353 . S
Tb300 O317 2.427 . S
Tb300 O318 2.513 . S
C301 O305 1.251 . S
C301 O307 1.263 . S
Tb302 O304 2.343 . S
Tb302 O307 2.353 . S
Tb302 O310 2.427 . S
Tb302 O311 2.513 . S
Tb302 O312 2.453 . S
Tb302 O313 2.596 . S
Tb302 O314 2.374 . S
O303 Tb300 2.453 . S
O303 C319 1.245 . S
O304 Tb300 2.596 . S
O304 Tb302 2.343 . S
O304 C319 1.259 . S
O305 Tb300 2.374 . S
O305 C301 1.251 . S
C306 O310 1.275 . S
C306 O311 1.246 . S
O307 C301 1.263 . S
O307 Tb302 2.353 . S
C308 O312 1.245 . S
C308 O313 1.259 . S
C309 O314 1.250 . S
C309 O315 1.263 . S
O310 Tb302 2.427 . S
O310 C306 1.275 . S
O311 Tb302 2.513 . S
O311 C306 1.246 . S
O312 Tb302 2.453 . S
O312 C308 1.245 . S
O313 Tb300 2.343 . S
O313 Tb302 2.596 . S
O313 C308 1.259 . S
O314 Tb302 2.374 . S
O314 C309 1.250 . S
O315 Tb300 2.353 . S
O315 C309 1.263 . S
C316 O317 1.275 . S
C316 O318 1.246 . S
O317 Tb300 2.427 . S
O317 C316 1.275 . S
O318 Tb300 2.513 . S
O318 C316 1.246 . S
C319 O303 1.245 . S
C319 O304 1.259 . S
C320 C321 1.363 . S
C320 C326 1.379 . S
C320 N328 1.356 . S
C321 C320 1.363 . S
C321 C327 1.363 . S
C322 C323 1.363 . S
C322 C327 1.379 . S
C322 N329 1.356 . S
C323 C322 1.363 . S
C323 C326 1.363 . S
N324 C326 1.356 . S
N324 H336 0.984 . S
N324 H337 0.985 . S
N325 C327 1.356 . S
N325 H330 0.984 . S
N325 H331 0.985 . S
C326 C320 1.379 . S
C326 C323 1.363 . S
C326 N324 1.356 . S
C327 C321 1.363 . S
C327 C322 1.379 . S
C327 N325 1.356 . S
N328 C320 1.356 . S
N328 H334 0.984 . S
N328 H335 0.984 . S
N329 C322 1.356 . S
N329 H332 0.984 . S
N329 H333 0.985 . S
H330 N325 0.984 . S
H331 N325 0.985 . S
H332 N329 0.984 . S
H333 N329 0.985 . S
H334 N328 0.984 . S
H335 N328 0.984 . S
H336 N324 0.984 . S
H337 N324 0.985 . S
C338 C339 1.363 . S
C338 C344 1.379 . S
C338 N346 1.356 . S
C339 C338 1.363 . S
C339 C345 1.363 . S
C340 C341 1.363 . S
C340 C345 1.379 . S
C340 N347 1.356 . S
C341 C340 1.363 . S
C341 C344 1.363 . S
N342 C344 1.356 . S
N342 H354 0.984 . S
N342 H355 0.985 . S
N343 C345 1.356 . S
N343 H348 0.984 . S
N343 H349 0.985 . S
C344 C338 1.379 . S
C344 C341 1.363 . S
C344 N342 1.356 . S
C345 C339 1.363 . S
C345 C340 1.379 . S
C345 N343 1.356 . S
N346 C338 1.356 . S
N346 H352 0.984 . S
N346 H353 0.984 . S
N347 C340 1.356 . S
N347 H350 0.984 . S
N347 H351 0.985 . S
H348 N343 0.984 . S
H349 N343 0.985 . S
H350 N347 0.984 . S
H351 N347 0.985 . S
H352 N346 0.984 . S
H353 N346 0.984 . S
H354 N342 0.984 . S
H355 N342 0.985 . S
C356 C357 1.363 . S
C356 C362 1.379 . S
C356 N364 1.356 . S
C357 C356 1.363 . S
C357 C363 1.363 . S
C358 C359 1.363 . S
C358 C363 1.379 . S
C358 N365 1.356 . S
C359 C358 1.363 . S
C359 C362 1.363 . S
N360 C362 1.356 . S
N360 H372 0.984 . S
N360 H373 0.985 . S
N361 C363 1.356 . S
N361 H366 0.984 . S
N361 H367 0.985 . S
C362 C356 1.379 . S
C362 C359 1.363 . S
C362 N360 1.356 . S
C363 C357 1.363 . S
C363 C358 1.379 . S
C363 N361 1.356 . S
N364 C356 1.356 . S
N364 H370 0.984 . S
N364 H371 0.984 . S
N365 C358 1.356 . S
N365 H368 0.984 . S
N365 H369 0.985 . S
H366 N361 0.984 . S
H367 N361 0.985 . S
H368 N365 0.984 . S
H369 N365 0.985 . S
H370 N364 0.984 . S
H371 N364 0.984 . S
H372 N360 0.984 . S
H373 N360 0.985 . S
C374 C375 1.363 . S
C374 C380 1.379 . S
C374 N382 1.356 . S
C375 C374 1.363 . S
C375 C381 1.363 . S
C376 C377 1.363 . S
C376 C381 1.379 . S
C376 N383 1.356 . S
C377 C376 1.363 . S
C377 C380 1.363 . S
N378 C380 1.356 . S
N378 H390 0.984 . S
N378 H391 0.985 . S
N379 C381 1.356 . S
N379 H384 0.984 . S
N379 H385 0.985 . S
C380 C374 1.379 . S
C380 C377 1.363 . S
C380 N378 1.356 . S
C381 C375 1.363 . S
C381 C376 1.379 . S
C381 N379 1.356 . S
N382 C374 1.356 . S
N382 H388 0.984 . S
N382 H389 0.984 . S
N383 C376 1.356 . S
N383 H386 0.984 . S
N383 H387 0.985 . S
H384 N379 0.984 . S
H385 N379 0.985 . S
H386 N383 0.984 . S
H387 N383 0.985 . S
H388 N382 0.984 . S
H389 N382 0.984 . S
H390 N378 0.984 . S
H391 N378 0.985 . S
C392 C393 1.363 . S
C392 C398 1.379 . S
C392 N400 1.356 . S
C393 C392 1.363 . S
C393 C399 1.363 . S
C394 C395 1.363 . S
C394 C399 1.379 . S
C394 N401 1.356 . S
C395 C394 1.363 . S
C395 C398 1.363 . S
N396 C398 1.356 . S
N396 H408 0.984 . S
N396 H409 0.985 . S
N397 C399 1.356 . S
N397 H402 0.984 . S
N397 H403 0.985 . S
C398 C392 1.379 . S
C398 C395 1.363 . S
C398 N396 1.356 . S
C399 C393 1.363 . S
C399 C394 1.379 . S
C399 N397 1.356 . S
N400 C392 1.356 . S
N400 H406 0.984 . S
N400 H407 0.984 . S
N401 C394 1.356 . S
N401 H404 0.984 . S
N401 H405 0.985 . S
H402 N397 0.984 . S
H403 N397 0.985 . S
H404 N401 0.984 . S
H405 N401 0.985 . S
H406 N400 0.984 . S
H407 N400 0.984 . S
H408 N396 0.984 . S
H409 N396 0.985 . S
C410 C411 1.363 . S
C410 C416 1.379 . S
C410 N418 1.356 . S
C411 C410 1.363 . S
C411 C417 1.363 . S
C412 C413 1.363 . S
C412 C417 1.379 . S
C412 N419 1.356 . S
C413 C412 1.363 . S
C413 C416 1.363 . S
N414 C416 1.356 . S
N414 H426 0.984 . S
N414 H427 0.985 . S
N415 C417 1.356 . S
N415 H420 0.984 . S
N415 H421 0.985 . S
C416 C410 1.379 . S
C416 C413 1.363 . S
C416 N414 1.356 . S
C417 C411 1.363 . S
C417 C412 1.379 . S
C417 N415 1.356 . S
N418 C410 1.356 . S
N418 H424 0.984 . S
N418 H425 0.984 . S
N419 C412 1.356 . S
N419 H422 0.984 . S
N419 H423 0.985 . S
H420 N415 0.984 . S
H421 N415 0.985 . S
H422 N419 0.984 . S
H423 N419 0.985 . S
H424 N418 0.984 . S
H425 N418 0.984 . S
H426 N414 0.984 . S
H427 N414 0.985 . S
C428 C429 1.363 . S
C428 C434 1.379 . S
C428 N436 1.356 . S
C429 C428 1.363 . S
C429 C435 1.363 . S
C430 C431 1.363 . S
C430 C435 1.379 . S
C430 N437 1.356 . S
C431 C430 1.363 . S
C431 C434 1.363 . S
N432 C434 1.356 . S
N432 H444 0.984 . S
N432 H445 0.985 . S
N433 C435 1.356 . S
N433 H438 0.984 . S
N433 H439 0.985 . S
C434 C428 1.379 . S
C434 C431 1.363 . S
C434 N432 1.356 . S
C435 C429 1.363 . S
C435 C430 1.379 . S
C435 N433 1.356 . S
N436 C428 1.356 . S
N436 H442 0.984 . S
N436 H443 0.984 . S
N437 C430 1.356 . S
N437 H440 0.984 . S
N437 H441 0.985 . S
H438 N433 0.984 . S
H439 N433 0.985 . S
H440 N437 0.984 . S
H441 N437 0.985 . S
H442 N436 0.984 . S
H443 N436 0.984 . S
H444 N432 0.984 . S
H445 N432 0.985 . S
C446 C447 1.363 . S
C446 C452 1.379 . S
C446 N454 1.356 . S
C447 C446 1.363 . S
C447 C453 1.363 . S
C448 C449 1.363 . S
C448 C453 1.379 . S
C448 N455 1.356 . S
C449 C448 1.363 . S
C449 C452 1.363 . S
N450 C452 1.356 . S
N450 H462 0.984 . S
N450 H463 0.985 . S
N451 C453 1.356 . S
N451 H456 0.984 . S
N451 H457 0.985 . S
C452 C446 1.379 . S
C452 C449 1.363 . S
C452 N450 1.356 . S
C453 C447 1.363 . S
C453 C448 1.379 . S
C453 N451 1.356 . S
N454 C446 1.356 . S
N454 H460 0.984 . S
N454 H461 0.984 . S
N455 C448 1.356 . S
N455 H458 0.984 . S
N455 H459 0.985 . S
H456 N451 0.984 . S
H457 N451 0.985 . S
H458 N455 0.984 . S
H459 N455 0.985 . S
H460 N454 0.984 . S
H461 N454 0.984 . S
H462 N450 0.984 . S
H463 N450 0.985 . S
C464 C465 1.363 . S
C464 C470 1.379 . S
C464 N472 1.356 . S
C465 C464 1.363 . S
C465 C471 1.363 1_565 S
C466 C467 1.363 . S
C466 C471 1.379 . S
C466 N473 1.356 . S
C467 C466 1.363 . S
C467 C470 1.363 1_545 S
N468 C470 1.356 . S
N468 H480 0.984 . S
N468 H481 0.985 . S
N469 C471 1.356 . S
N469 H474 0.984 . S
N469 H475 0.985 . S
C470 C464 1.379 . S
C470 C467 1.363 1_565 S
C470 N468 1.356 . S
C471 C465 1.363 1_545 S
C471 C466 1.379 . S
C471 N469 1.356 . S
N472 C464 1.356 . S
N472 H478 0.984 . S
N472 H479 0.984 . S
N473 C466 1.356 . S
N473 H476 0.984 . S
N473 H477 0.985 . S
H474 N469 0.984 . S
H475 N469 0.985 . S
H476 N473 0.984 . S
H477 N473 0.985 . S
H478 N472 0.984 . S
H479 N472 0.984 . S
H480 N468 0.984 . S
H481 N468 0.985 . S
C482 C483 1.363 . S
C482 C488 1.379 1_545 S
C482 N490 1.356 . S
C483 C482 1.363 . S
C483 C489 1.363 . S
C484 C485 1.363 . S
C484 C489 1.379 1_565 S
C484 N491 1.356 . S
C485 C484 1.363 . S
C485 C488 1.363 . S
N486 C488 1.356 . S
N486 H498 0.984 . S
N486 H499 0.985 . S
N487 C489 1.356 . S
N487 H492 0.984 . S
N487 H493 0.985 . S
C488 C482 1.379 1_565 S
C488 C485 1.363 . S
C488 N486 1.356 . S
C489 C483 1.363 . S
C489 C484 1.379 1_545 S
C489 N487 1.356 . S
N490 C482 1.356 . S
N490 H496 0.984 . S
N490 H497 0.984 . S
N491 C484 1.356 . S
N491 H494 0.984 . S
N491 H495 0.985 . S
H492 N487 0.984 . S
H493 N487 0.985 . S
H494 N491 0.984 . S
H495 N491 0.985 . S
H496 N490 0.984 . S
H497 N490 0.984 . S
H498 N486 0.984 . S
H499 N486 0.985 . S
C500 C501 1.363 . S
C500 C506 1.379 . S
C500 N508 1.356 . S
C501 C500 1.363 . S
C501 C507 1.363 1_545 S
C502 C503 1.363 . S
C502 C507 1.379 . S
C502 N509 1.356 . S
C503 C502 1.363 . S
C503 C506 1.363 1_565 S
N504 C506 1.356 . S
N504 H516 0.984 . S
N504 H517 0.985 . S
N505 C507 1.356 . S
N505 H510 0.984 . S
N505 H511 0.985 . S
C506 C500 1.379 . S
C506 C503 1.363 1_545 S
C506 N504 1.356 . S
C507 C501 1.363 1_565 S
C507 C502 1.379 . S
C507 N505 1.356 . S
N508 C500 1.356 . S
N508 H514 0.984 . S
N508 H515 0.984 . S
N509 C502 1.356 . S
N509 H512 0.984 . S
N509 H513 0.985 . S
H510 N505 0.984 . S
H511 N505 0.985 . S
H512 N509 0.984 . S
H513 N509 0.985 . S
H514 N508 0.984 . S
H515 N508 0.984 . S
H516 N504 0.984 . S
H517 N504 0.985 . S
C518 C519 1.363 1_565 S
C518 C524 1.379 . S
C518 N526 1.356 . S
C519 C518 1.363 1_545 S
C519 C525 1.363 . S
C520 C521 1.363 1_545 S
C520 C525 1.379 . S
C520 N527 1.356 . S
C521 C520 1.363 1_565 S
C521 C524 1.363 . S
N522 C524 1.356 . S
N522 H534 0.984 . S
N522 H535 0.985 . S
N523 C525 1.356 . S
N523 H528 0.984 . S
N523 H529 0.985 . S
C524 C518 1.379 . S
C524 C521 1.363 . S
C524 N522 1.356 . S
C525 C519 1.363 . S
C525 C520 1.379 . S
C525 N523 1.356 . S
N526 C518 1.356 . S
N526 H532 0.984 . S
N526 H533 0.984 . S
N527 C520 1.356 . S
N527 H530 0.984 . S
N527 H531 0.985 . S
H528 N523 0.984 . S
H529 N523 0.985 . S
H530 N527 0.984 . S
H531 N527 0.985 . S
H532 N526 0.984 . S
H533 N526 0.984 . S
H534 N522 0.984 . S
H535 N522 0.985 . S
C536 C537 1.363 . S
C536 C542 1.379 . S
C536 N544 1.356 . S
C537 C536 1.363 . S
C537 C543 1.363 . S
C538 C539 1.363 . S
C538 C543 1.379 . S
C538 N545 1.356 . S
C539 C538 1.363 . S
C539 C542 1.363 . S
N540 C542 1.356 . S
N540 H552 0.984 . S
N540 H553 0.985 . S
N541 C543 1.356 . S
N541 H546 0.984 . S
N541 H547 0.985 . S
C542 C536 1.379 . S
C542 C539 1.363 . S
C542 N540 1.356 . S
C543 C537 1.363 . S
C543 C538 1.379 . S
C543 N541 1.356 . S
N544 C536 1.356 . S
N544 H550 0.984 . S
N544 H551 0.984 . S
N545 C538 1.356 . S
N545 H548 0.984 . S
N545 H549 0.985 . S
H546 N541 0.984 . S
H547 N541 0.985 . S
H548 N545 0.984 . S
H549 N545 0.985 . S
H550 N544 0.984 . S
H551 N544 0.984 . S
H552 N540 0.984 . S
H553 N540 0.985 . S
C554 C555 1.363 . S
C554 C560 1.379 . S
C554 N562 1.356 . S
C555 C554 1.363 . S
C555 C561 1.363 . S
C556 C557 1.363 . S
C556 C561 1.379 . S
C556 N563 1.356 . S
C557 C556 1.363 . S
C557 C560 1.363 . S
N558 C560 1.356 . S
N558 H570 0.984 . S
N558 H571 0.985 . S
N559 C561 1.356 . S
N559 H564 0.984 . S
N559 H565 0.985 . S
C560 C554 1.379 . S
C560 C557 1.363 . S
C560 N558 1.356 . S
C561 C555 1.363 . S
C561 C556 1.379 . S
C561 N559 1.356 . S
N562 C554 1.356 . S
N562 H568 0.984 . S
N562 H569 0.984 . S
N563 C556 1.356 . S
N563 H566 0.984 . S
N563 H567 0.985 . S
H564 N559 0.984 . S
H565 N559 0.985 . S
H566 N563 0.984 . S
H567 N563 0.985 . S
H568 N562 0.984 . S
H569 N562 0.984 . S
H570 N558 0.984 . S
H571 N558 0.985 . S
C572 C573 1.363 . S
C572 C578 1.379 . S
C572 N580 1.356 . S
C573 C572 1.363 . S
C573 C579 1.363 . S
C574 C575 1.363 . S
C574 C579 1.379 . S
C574 N581 1.356 . S
C575 C574 1.363 . S
C575 C578 1.363 . S
N576 C578 1.356 . S
N576 H588 0.984 . S
N576 H589 0.985 . S
N577 C579 1.356 . S
N577 H582 0.984 . S
N577 H583 0.985 . S
C578 C572 1.379 . S
C578 C575 1.363 . S
C578 N576 1.356 . S
C579 C573 1.363 . S
C579 C574 1.379 . S
C579 N577 1.356 . S
N580 C572 1.356 . S
N580 H586 0.984 . S
N580 H587 0.984 . S
N581 C574 1.356 . S
N581 H584 0.984 . S
N581 H585 0.985 . S
H582 N577 0.984 . S
H583 N577 0.985 . S
H584 N581 0.984 . S
H585 N581 0.985 . S
H586 N580 0.984 . S
H587 N580 0.984 . S
H588 N576 0.984 . S
H589 N576 0.985 . S
C590 C591 1.363 . S
C590 C596 1.379 . S
C590 N598 1.356 . S
C591 C590 1.363 . S
C591 C597 1.363 . S
C592 C593 1.363 . S
C592 C597 1.379 . S
C592 N599 1.356 . S
C593 C592 1.363 . S
C593 C596 1.363 . S
N594 C596 1.356 . S
N594 H606 0.984 . S
N594 H607 0.985 . S
N595 C597 1.356 . S
N595 H600 0.984 . S
N595 H601 0.985 . S
C596 C590 1.379 . S
C596 C593 1.363 . S
C596 N594 1.356 . S
C597 C591 1.363 . S
C597 C592 1.379 . S
C597 N595 1.356 . S
N598 C590 1.356 . S
N598 H604 0.984 . S
N598 H605 0.984 . S
N599 C592 1.356 . S
N599 H602 0.984 . S
N599 H603 0.985 . S
H600 N595 0.984 . S
H601 N595 0.985 . S
H602 N599 0.984 . S
H603 N599 0.985 . S
H604 N598 0.984 . S
H605 N598 0.984 . S
H606 N594 0.984 . S
H607 N594 0.985 . S
C608 C609 1.363 . S
C608 C614 1.379 1_556 S
C608 N616 1.356 . S
C609 C608 1.363 . S
C609 C615 1.363 . S
C610 C611 1.363 . S
C610 C615 1.379 1_554 S
C610 N617 1.356 . S
C611 C610 1.363 . S
C611 C614 1.363 . S
N612 C614 1.356 . S
N612 H624 0.984 . S
N612 H625 0.985 . S
N613 C615 1.356 . S
N613 H618 0.984 . S
N613 H619 0.985 1_545 S
C614 C608 1.379 1_554 S
C614 C611 1.363 . S
C614 N612 1.356 . S
C615 C609 1.363 . S
C615 C610 1.379 1_556 S
C615 N613 1.356 . S
N616 C608 1.356 . S
N616 H622 0.984 . S
N616 H623 0.984 . S
N617 C610 1.356 . S
N617 H620 0.984 . S
N617 H621 0.985 1_545 S
H618 N613 0.984 . S
H619 N613 0.985 1_565 S
H620 N617 0.984 . S
H621 N617 0.985 1_565 S
H622 N616 0.984 . S
H623 N616 0.984 . S
H624 N612 0.984 . S
H625 N612 0.985 . S
C626 C627 1.363 . S
C626 C632 1.379 1_556 S
C626 N634 1.356 . S
C627 C626 1.363 . S
C627 C633 1.363 . S
C628 C629 1.363 . S
C628 C633 1.379 1_554 S
C628 N635 1.356 . S
C629 C628 1.363 . S
C629 C632 1.363 . S
N630 C632 1.356 . S
N630 H642 0.984 . S
N630 H643 0.985 . S
N631 C633 1.356 . S
N631 H636 0.984 . S
N631 H637 0.985 1_565 S
C632 C626 1.379 1_554 S
C632 C629 1.363 . S
C632 N630 1.356 . S
C633 C627 1.363 . S
C633 C628 1.379 1_556 S
C633 N631 1.356 . S
N634 C626 1.356 . S
N634 H640 0.984 . S
N634 H641 0.984 . S
N635 C628 1.356 . S
N635 H638 0.984 . S
N635 H639 0.985 1_565 S
H636 N631 0.984 . S
H637 N631 0.985 1_545 S
H638 N635 0.984 . S
H639 N635 0.985 1_545 S
H640 N634 0.984 . S
H641 N634 0.984 . S
H642 N630 0.984 . S
H643 N630 0.985 . S
C644 C645 1.363 . S
C644 C650 1.379 . S
C644 N652 1.356 . S
C645 C644 1.363 . S
C645 C651 1.363 . S
C646 C647 1.363 . S
C646 C651 1.379 . S
C646 N653 1.356 . S
C647 C646 1.363 . S
C647 C650 1.363 . S
N648 C650 1.356 . S
N648 H660 0.984 . S
N648 H661 0.985 . S
N649 C651 1.356 . S
N649 H654 0.984 . S
N649 H655 0.985 1_565 S
C650 C644 1.379 . S
C650 C647 1.363 . S
C650 N648 1.356 . S
C651 C645 1.363 . S
C651 C646 1.379 . S
C651 N649 1.356 . S
N652 C644 1.356 . S
N652 H658 0.984 . S
N652 H659 0.984 . S
N653 C646 1.356 . S
N653 H656 0.984 . S
N653 H657 0.985 1_565 S
H654 N649 0.984 . S
H655 N649 0.985 1_545 S
H656 N653 0.984 . S
H657 N653 0.985 1_545 S
H658 N652 0.984 . S
H659 N652 0.984 . S
H660 N648 0.984 . S
H661 N648 0.985 . S
C662 C663 1.363 . S
C662 C668 1.379 . S
C662 N670 1.356 . S
C663 C662 1.363 . S
C663 C669 1.363 . S
C664 C665 1.363 . S
C664 C669 1.379 . S
C664 N671 1.356 . S
C665 C664 1.363 . S
C665 C668 1.363 . S
N666 C668 1.356 . S
N666 H678 0.984 1_545 S
N666 H679 0.985 . S
N667 C669 1.356 . S
N667 H672 0.984 . S
N667 H673 0.985 . S
C668 C662 1.379 . S
C668 C665 1.363 . S
C668 N666 1.356 . S
C669 C663 1.363 . S
C669 C664 1.379 . S
C669 N667 1.356 . S
N670 C662 1.356 . S
N670 H676 0.984 1_545 S
N670 H677 0.984 . S
N671 C664 1.356 . S
N671 H674 0.984 . S
N671 H675 0.985 . S
H672 N667 0.984 . S
H673 N667 0.985 . S
H674 N671 0.984 . S
H675 N671 0.985 . S
H676 N670 0.984 1_565 S
H677 N670 0.984 . S
H678 N666 0.984 1_565 S
H679 N666 0.985 . S
C680 C681 1.363 . S
C680 C686 1.379 1_554 S
C680 N688 1.356 . S
C681 C680 1.363 . S
C681 C687 1.363 . S
C682 C683 1.363 . S
C682 C687 1.379 1_556 S
C682 N689 1.356 . S
C683 C682 1.363 . S
C683 C686 1.363 . S
N684 C686 1.356 . S
N684 H696 0.984 . S
N684 H697 0.985 . S
N685 C687 1.356 . S
N685 H690 0.984 . S
N685 H691 0.985 . S
C686 C680 1.379 1_556 S
C686 C683 1.363 . S
C686 N684 1.356 . S
C687 C681 1.363 . S
C687 C682 1.379 1_554 S
C687 N685 1.356 . S
N688 C680 1.356 . S
N688 H694 0.984 . S
N688 H695 0.984 . S
N689 C682 1.356 . S
N689 H692 0.984 . S
N689 H693 0.985 . S
H690 N685 0.984 . S
H691 N685 0.985 . S
H692 N689 0.984 . S
H693 N689 0.985 . S
H694 N688 0.984 . S
H695 N688 0.984 . S
H696 N684 0.984 . S
H697 N684 0.985 . S
C698 C699 1.363 . S
C698 C704 1.379 1_556 S
C698 N706 1.356 . S
C699 C698 1.363 . S
C699 C705 1.363 . S
C700 C701 1.363 . S
C700 C705 1.379 1_554 S
C700 N707 1.356 . S
C701 C700 1.363 . S
C701 C704 1.363 . S
N702 C704 1.356 . S
N702 H714 0.984 . S
N702 H715 0.985 . S
N703 C705 1.356 . S
N703 H708 0.984 . S
N703 H709 0.985 . S
C704 C698 1.379 1_554 S
C704 C701 1.363 . S
C704 N702 1.356 . S
C705 C699 1.363 . S
C705 C700 1.379 1_556 S
C705 N703 1.356 . S
N706 C698 1.356 . S
N706 H712 0.984 . S
N706 H713 0.984 . S
N707 C700 1.356 . S
N707 H710 0.984 . S
N707 H711 0.985 . S
H708 N703 0.984 . S
H709 N703 0.985 . S
H710 N707 0.984 . S
H711 N707 0.985 . S
H712 N706 0.984 . S
H713 N706 0.984 . S
H714 N702 0.984 . S
H715 N702 0.985 . S
C716 C717 1.363 . S
C716 C722 1.379 . S
C716 N724 1.356 . S
C717 C716 1.363 . S
C717 C723 1.363 . S
C718 C719 1.363 . S
C718 C723 1.379 . S
C718 N725 1.356 . S
C719 C718 1.363 . S
C719 C722 1.363 . S
N720 C722 1.356 . S
N720 H732 0.984 . S
N720 H733 0.985 . S
N721 C723 1.356 . S
N721 H726 0.984 . S
N721 H727 0.985 . S
C722 C716 1.379 . S
C722 C719 1.363 . S
C722 N720 1.356 . S
C723 C717 1.363 . S
C723 C718 1.379 . S
C723 N721 1.356 . S
N724 C716 1.356 . S
N724 H730 0.984 . S
N724 H731 0.984 . S
N725 C718 1.356 . S
N725 H728 0.984 . S
N725 H729 0.985 . S
H726 N721 0.984 . S
H727 N721 0.985 . S
H728 N725 0.984 . S
H729 N725 0.985 . S
H730 N724 0.984 . S
H731 N724 0.984 . S
H732 N720 0.984 . S
H733 N720 0.985 . S
C734 C735 1.363 . S
C734 C740 1.379 . S
C734 N742 1.356 . S
C735 C734 1.363 . S
C735 C741 1.363 . S
C736 C737 1.363 . S
C736 C741 1.379 . S
C736 N743 1.356 . S
C737 C736 1.363 . S
C737 C740 1.363 . S
N738 C740 1.356 . S
N738 H750 0.984 . S
N738 H751 0.985 . S
N739 C741 1.356 . S
N739 H744 0.984 . S
N739 H745 0.985 . S
C740 C734 1.379 . S
C740 C737 1.363 . S
C740 N738 1.356 . S
C741 C735 1.363 . S
C741 C736 1.379 . S
C741 N739 1.356 . S
N742 C734 1.356 . S
N742 H748 0.984 . S
N742 H749 0.984 . S
N743 C736 1.356 . S
N743 H746 0.984 . S
N743 H747 0.985 . S
H744 N739 0.984 . S
H745 N739 0.985 . S
H746 N743 0.984 . S
H747 N743 0.985 . S
H748 N742 0.984 . S
H749 N742 0.984 . S
H750 N738 0.984 . S
H751 N738 0.985 . S
C752 C753 1.363 1_565 S
C752 C758 1.379 1_655 S
C752 N760 1.356 . S
C753 C752 1.363 1_545 S
C753 C759 1.363 . S
C754 C755 1.363 1_545 S
C754 C759 1.379 1_455 S
C754 N761 1.356 . S
C755 C754 1.363 1_565 S
C755 C758 1.363 . S
N756 C758 1.356 . S
N756 H768 0.984 . S
N756 H769 0.985 . S
N757 C759 1.356 . S
N757 H762 0.984 . S
N757 H763 0.985 . S
C758 C752 1.379 1_455 S
C758 C755 1.363 . S
C758 N756 1.356 . S
C759 C753 1.363 . S
C759 C754 1.379 1_655 S
C759 N757 1.356 . S
N760 C752 1.356 . S
N760 H766 0.984 . S
N760 H767 0.984 . S
N761 C754 1.356 . S
N761 H764 0.984 . S
N761 H765 0.985 . S
H762 N757 0.984 . S
H763 N757 0.985 . S
H764 N761 0.984 . S
H765 N761 0.985 . S
H766 N760 0.984 . S
H767 N760 0.984 . S
H768 N756 0.984 . S
H769 N756 0.985 . S
C770 C771 1.363 . S
C770 C776 1.379 1_655 S
C770 N778 1.356 . S
C771 C770 1.363 . S
C771 C777 1.363 1_565 S
C772 C773 1.363 . S
C772 C777 1.379 1_455 S
C772 N779 1.356 . S
C773 C772 1.363 . S
C773 C776 1.363 1_545 S
N774 C776 1.356 . S
N774 H786 0.984 . S
N774 H787 0.985 . S
N775 C777 1.356 . S
N775 H780 0.984 . S
N775 H781 0.985 . S
C776 C770 1.379 1_455 S
C776 C773 1.363 1_565 S
C776 N774 1.356 . S
C777 C771 1.363 1_545 S
C777 C772 1.379 1_655 S
C777 N775 1.356 . S
N778 C770 1.356 . S
N778 H784 0.984 . S
N778 H785 0.984 . S
N779 C772 1.356 . S
N779 H782 0.984 . S
N779 H783 0.985 . S
H780 N775 0.984 . S
H781 N775 0.985 . S
H782 N779 0.984 . S
H783 N779 0.985 . S
H784 N778 0.984 . S
H785 N778 0.984 . S
H786 N774 0.984 . S
H787 N774 0.985 . S
C788 C789 1.363 1_545 S
C788 C794 1.379 1_455 S
C788 N796 1.356 . S
C789 C788 1.363 1_565 S
C789 C795 1.363 . S
C790 C791 1.363 1_565 S
C790 C795 1.379 1_655 S
C790 N797 1.356 . S
C791 C790 1.363 1_545 S
C791 C794 1.363 . S
N792 C794 1.356 . S
N792 H804 0.984 . S
N792 H805 0.985 . S
N793 C795 1.356 . S
N793 H798 0.984 . S
N793 H799 0.985 . S
C794 C788 1.379 1_655 S
C794 C791 1.363 . S
C794 N792 1.356 . S
C795 C789 1.363 . S
C795 C790 1.379 1_455 S
C795 N793 1.356 . S
N796 C788 1.356 . S
N796 H802 0.984 . S
N796 H803 0.984 . S
N797 C790 1.356 . S
N797 H800 0.984 . S
N797 H801 0.985 . S
H798 N793 0.984 . S
H799 N793 0.985 . S
H800 N797 0.984 . S
H801 N797 0.985 . S
H802 N796 0.984 . S
H803 N796 0.984 . S
H804 N792 0.984 . S
H805 N792 0.985 . S
C806 C807 1.363 . S
C806 C812 1.379 1_655 S
C806 N814 1.356 . S
C807 C806 1.363 . S
C807 C813 1.363 1_565 S
C808 C809 1.363 . S
C808 C813 1.379 1_455 S
C808 N815 1.356 . S
C809 C808 1.363 . S
C809 C812 1.363 1_545 S
N810 C812 1.356 . S
N810 H822 0.984 . S
N810 H823 0.985 . S
N811 C813 1.356 . S
N811 H816 0.984 . S
N811 H817 0.985 . S
C812 C806 1.379 1_455 S
C812 C809 1.363 1_565 S
C812 N810 1.356 . S
C813 C807 1.363 1_545 S
C813 C808 1.379 1_655 S
C813 N811 1.356 . S
N814 C806 1.356 . S
N814 H820 0.984 . S
N814 H821 0.984 . S
N815 C808 1.356 . S
N815 H818 0.984 . S
N815 H819 0.985 . S
H816 N811 0.984 . S
H817 N811 0.985 . S
H818 N815 0.984 . S
H819 N815 0.985 . S
H820 N814 0.984 . S
H821 N814 0.984 . S
H822 N810 0.984 . S
H823 N810 0.985 . S
C824 C825 1.363 . S
C824 C830 1.379 . S
C824 N832 1.356 . S
C825 C824 1.363 . S
C825 C831 1.363 . S
C826 C827 1.363 . S
C826 C831 1.379 . S
C826 N833 1.356 . S
C827 C826 1.363 . S
C827 C830 1.363 . S
N828 C830 1.356 . S
N828 H840 0.984 . S
N828 H841 0.985 . S
N829 C831 1.356 . S
N829 H834 0.984 . S
N829 H835 0.985 . S
C830 C824 1.379 . S
C830 C827 1.363 . S
C830 N828 1.356 . S
C831 C825 1.363 . S
C831 C826 1.379 . S
C831 N829 1.356 . S
N832 C824 1.356 . S
N832 H838 0.984 . S
N832 H839 0.984 . S
N833 C826 1.356 . S
N833 H836 0.984 . S
N833 H837 0.985 . S
H834 N829 0.984 . S
H835 N829 0.985 . S
H836 N833 0.984 . S
H837 N833 0.985 . S
H838 N832 0.984 . S
H839 N832 0.984 . S
H840 N828 0.984 . S
H841 N828 0.985 . S
C842 C843 1.363 . S
C842 C848 1.379 . S
C842 N850 1.356 . S
C843 C842 1.363 . S
C843 C849 1.363 . S
C844 C845 1.363 . S
C844 C849 1.379 . S
C844 N851 1.356 . S
C845 C844 1.363 . S
C845 C848 1.363 . S
N846 C848 1.356 . S
N846 H858 0.984 . S
N846 H859 0.985 . S
N847 C849 1.356 . S
N847 H852 0.984 . S
N847 H853 0.985 . S
C848 C842 1.379 . S
C848 C845 1.363 . S
C848 N846 1.356 . S
C849 C843 1.363 . S
C849 C844 1.379 . S
C849 N847 1.356 . S
N850 C842 1.356 . S
N850 H856 0.984 . S
N850 H857 0.984 . S
N851 C844 1.356 . S
N851 H854 0.984 . S
N851 H855 0.985 . S
H852 N847 0.984 . S
H853 N847 0.985 . S
H854 N851 0.984 . S
H855 N851 0.985 . S
H856 N850 0.984 . S
H857 N850 0.984 . S
H858 N846 0.984 . S
H859 N846 0.985 . S
C860 C861 1.363 . S
C860 C866 1.379 . S
C860 N868 1.356 . S
C861 C860 1.363 . S
C861 C867 1.363 . S
C862 C863 1.363 . S
C862 C867 1.379 . S
C862 N869 1.356 . S
C863 C862 1.363 . S
C863 C866 1.363 . S
N864 C866 1.356 . S
N864 H876 0.984 . S
N864 H877 0.985 . S
N865 C867 1.356 . S
N865 H870 0.984 . S
N865 H871 0.985 . S
C866 C860 1.379 . S
C866 C863 1.363 . S
C866 N864 1.356 . S
C867 C861 1.363 . S
C867 C862 1.379 . S
C867 N865 1.356 . S
N868 C860 1.356 . S
N868 H874 0.984 . S
N868 H875 0.984 . S
N869 C862 1.356 . S
N869 H872 0.984 . S
N869 H873 0.985 . S
H870 N865 0.984 . S
H871 N865 0.985 . S
H872 N869 0.984 . S
H873 N869 0.985 . S
H874 N868 0.984 . S
H875 N868 0.984 . S
H876 N864 0.984 . S
H877 N864 0.985 . S
C878 C879 1.363 . S
C878 C884 1.379 . S
C878 N886 1.356 . S
C879 C878 1.363 . S
C879 C885 1.363 . S
C880 C881 1.363 . S
C880 C885 1.379 . S
C880 N887 1.356 . S
C881 C880 1.363 . S
C881 C884 1.363 . S
N882 C884 1.356 . S
N882 H894 0.984 . S
N882 H895 0.985 . S
N883 C885 1.356 . S
N883 H888 0.984 . S
N883 H889 0.985 . S
C884 C878 1.379 . S
C884 C881 1.363 . S
C884 N882 1.356 . S
C885 C879 1.363 . S
C885 C880 1.379 . S
C885 N883 1.356 . S
N886 C878 1.356 . S
N886 H892 0.984 . S
N886 H893 0.984 . S
N887 C880 1.356 . S
N887 H890 0.984 . S
N887 H891 0.985 . S
H888 N883 0.984 . S
H889 N883 0.985 . S
H890 N887 0.984 . S
H891 N887 0.985 . S
H892 N886 0.984 . S
H893 N886 0.984 . S
H894 N882 0.984 . S
H895 N882 0.985 . S
C896 C897 1.363 . S
C896 C902 1.379 . S
C896 N904 1.356 . S
C897 C896 1.363 . S
C897 C903 1.363 . S
C898 C899 1.363 . S
C898 C903 1.379 . S
C898 N905 1.356 . S
C899 C898 1.363 . S
C899 C902 1.363 . S
N900 C902 1.356 . S
N900 H912 0.984 . S
N900 H913 0.985 . S
N901 C903 1.356 . S
N901 H906 0.984 . S
N901 H907 0.985 . S
C902 C896 1.379 . S
C902 C899 1.363 . S
C902 N900 1.356 . S
C903 C897 1.363 . S
C903 C898 1.379 . S
C903 N901 1.356 . S
N904 C896 1.356 . S
N904 H910 0.984 . S
N904 H911 0.984 . S
N905 C898 1.356 . S
N905 H908 0.984 . S
N905 H909 0.985 . S
H906 N901 0.984 . S
H907 N901 0.985 . S
H908 N905 0.984 . S
H909 N905 0.985 . S
H910 N904 0.984 . S
H911 N904 0.984 . S
H912 N900 0.984 . S
H913 N900 0.985 . S
C914 C915 1.363 . S
C914 C920 1.379 . S
C914 N922 1.356 . S
C915 C914 1.363 . S
C915 C921 1.363 . S
C916 C917 1.363 . S
C916 C921 1.379 . S
C916 N923 1.356 . S
C917 C916 1.363 . S
C917 C920 1.363 . S
N918 C920 1.356 . S
N918 H930 0.984 . S
N918 H931 0.985 . S
N919 C921 1.356 . S
N919 H924 0.984 . S
N919 H925 0.985 . S
C920 C914 1.379 . S
C920 C917 1.363 . S
C920 N918 1.356 . S
C921 C915 1.363 . S
C921 C916 1.379 . S
C921 N919 1.356 . S
N922 C914 1.356 . S
N922 H928 0.984 . S
N922 H929 0.984 . S
N923 C916 1.356 . S
N923 H926 0.984 . S
N923 H927 0.985 . S
H924 N919 0.984 . S
H925 N919 0.985 . S
H926 N923 0.984 . S
H927 N923 0.985 . S
H928 N922 0.984 . S
H929 N922 0.984 . S
H930 N918 0.984 . S
H931 N918 0.985 . S
C932 C933 1.363 . S
C932 C938 1.379 . S
C932 N940 1.356 . S
C933 C932 1.363 . S
C933 C939 1.363 . S
C934 C935 1.363 . S
C934 C939 1.379 . S
C934 N941 1.356 . S
C935 C934 1.363 . S
C935 C938 1.363 . S
N936 C938 1.356 . S
N936 H948 0.984 . S
N936 H949 0.985 . S
N937 C939 1.356 . S
N937 H942 0.984 . S
N937 H943 0.985 . S
C938 C932 1.379 . S
C938 C935 1.363 . S
C938 N936 1.356 . S
C939 C933 1.363 . S
C939 C934 1.379 . S
C939 N937 1.356 . S
N940 C932 1.356 . S
N940 H946 0.984 . S
N940 H947 0.984 . S
N941 C934 1.356 . S
N941 H944 0.984 . S
N941 H945 0.985 . S
H942 N937 0.984 . S
H943 N937 0.985 . S
H944 N941 0.984 . S
H945 N941 0.985 . S
H946 N940 0.984 . S
H947 N940 0.984 . S
H948 N936 0.984 . S
H949 N936 0.985 . S
C950 C951 1.363 . S
C950 C956 1.379 . S
C950 N958 1.356 . S
C951 C950 1.363 . S
C951 C957 1.363 . S
C952 C953 1.363 . S
C952 C957 1.379 . S
C952 N959 1.356 . S
C953 C952 1.363 . S
C953 C956 1.363 . S
N954 C956 1.356 . S
N954 H966 0.984 . S
N954 H967 0.985 . S
N955 C957 1.356 . S
N955 H960 0.984 . S
N955 H961 0.985 . S
C956 C950 1.379 . S
C956 C953 1.363 . S
C956 N954 1.356 . S
C957 C951 1.363 . S
C957 C952 1.379 . S
C957 N955 1.356 . S
N958 C950 1.356 . S
N958 H964 0.984 . S
N958 H965 0.984 . S
N959 C952 1.356 . S
N959 H962 0.984 . S
N959 H963 0.985 . S
H960 N955 0.984 . S
H961 N955 0.985 . S
H962 N959 0.984 . S
H963 N959 0.985 . S
H964 N958 0.984 . S
H965 N958 0.984 . S
H966 N954 0.984 . S
H967 N954 0.985 . S
C968 C969 1.363 . S
C968 C974 1.379 . S
C968 N976 1.356 . S
C969 C968 1.363 . S
C969 C975 1.363 . S
C970 C971 1.363 . S
C970 C975 1.379 . S
C970 N977 1.356 . S
C971 C970 1.363 . S
C971 C974 1.363 . S
N972 C974 1.356 . S
N972 H984 0.984 . S
N972 H985 0.985 . S
N973 C975 1.356 . S
N973 H978 0.984 . S
N973 H979 0.985 . S
C974 C968 1.379 . S
C974 C971 1.363 . S
C974 N972 1.356 . S
C975 C969 1.363 . S
C975 C970 1.379 . S
C975 N973 1.356 . S
N976 C968 1.356 . S
N976 H982 0.984 . S
N976 H983 0.984 . S
N977 C970 1.356 . S
N977 H980 0.984 . S
N977 H981 0.985 . S
H978 N973 0.984 . S
H979 N973 0.985 . S
H980 N977 0.984 . S
H981 N977 0.985 . S
H982 N976 0.984 . S
H983 N976 0.984 . S
H984 N972 0.984 . S
H985 N972 0.985 . S
C986 C987 1.363 . S
C986 C992 1.379 . S
C986 N994 1.356 . S
C987 C986 1.363 . S
C987 C993 1.363 . S
C988 C989 1.363 . S
C988 C993 1.379 . S
C988 N995 1.356 . S
C989 C988 1.363 . S
C989 C992 1.363 . S
N990 C992 1.356 . S
N990 H1002 0.984 . S
N990 H1003 0.985 . S
N991 C993 1.356 . S
N991 H996 0.984 . S
N991 H997 0.985 . S
C992 C986 1.379 . S
C992 C989 1.363 . S
C992 N990 1.356 . S
C993 C987 1.363 . S
C993 C988 1.379 . S
C993 N991 1.356 . S
N994 C986 1.356 . S
N994 H1000 0.984 . S
N994 H1001 0.984 . S
N995 C988 1.356 . S
N995 H998 0.984 . S
N995 H999 0.985 . S
H996 N991 0.984 . S
H997 N991 0.985 . S
H998 N995 0.984 . S
H999 N995 0.985 . S
H1000 N994 0.984 . S
H1001 N994 0.984 . S
H1002 N990 0.984 . S
H1003 N990 0.985 . S
C1004 C1005 1.363 . S
C1004 C1010 1.379 . S
C1004 N1012 1.356 . S
C1005 C1004 1.363 . S
C1005 C1011 1.363 . S
C1006 C1007 1.363 . S
C1006 C1011 1.379 . S
C1006 N1013 1.356 . S
C1007 C1006 1.363 . S
C1007 C1010 1.363 . S
N1008 C1010 1.356 . S
N1008 H1020 0.984 . S
N1008 H1021 0.985 . S
N1009 C1011 1.356 . S
N1009 H1014 0.984 . S
N1009 H1015 0.985 . S
C1010 C1004 1.379 . S
C1010 C1007 1.363 . S
C1010 N1008 1.356 . S
C1011 C1005 1.363 . S
C1011 C1006 1.379 . S
C1011 N1009 1.356 . S
N1012 C1004 1.356 . S
N1012 H1018 0.984 . S
N1012 H1019 0.984 . S
N1013 C1006 1.356 . S
N1013 H1016 0.984 . S
N1013 H1017 0.985 . S
H1014 N1009 0.984 . S
H1015 N1009 0.985 . S
H1016 N1013 0.984 . S
H1017 N1013 0.985 . S
H1018 N1012 0.984 . S
H1019 N1012 0.984 . S
H1020 N1008 0.984 . S
H1021 N1008 0.985 . S
C1022 C1023 1.363 . S
C1022 C1028 1.379 . S
C1022 N1030 1.356 . S
C1023 C1022 1.363 . S
C1023 C1029 1.363 . S
C1024 C1025 1.363 . S
C1024 C1029 1.379 . S
C1024 N1031 1.356 . S
C1025 C1024 1.363 . S
C1025 C1028 1.363 . S
N1026 C1028 1.356 . S
N1026 H1038 0.984 . S
N1026 H1039 0.985 . S
N1027 C1029 1.356 . S
N1027 H1032 0.984 . S
N1027 H1033 0.985 . S
C1028 C1022 1.379 . S
C1028 C1025 1.363 . S
C1028 N1026 1.356 . S
C1029 C1023 1.363 . S
C1029 C1024 1.379 . S
C1029 N1027 1.356 . S
N1030 C1022 1.356 . S
N1030 H1036 0.984 . S
N1030 H1037 0.984 . S
N1031 C1024 1.356 . S
N1031 H1034 0.984 . S
N1031 H1035 0.985 . S
H1032 N1027 0.984 . S
H1033 N1027 0.985 . S
H1034 N1031 0.984 . S
H1035 N1031 0.985 . S
H1036 N1030 0.984 . S
H1037 N1030 0.984 . S
H1038 N1026 0.984 . S
H1039 N1026 0.985 . S
C1040 C1041 1.363 . S
C1040 C1046 1.379 . S
C1040 N1048 1.356 1_545 S
C1041 C1040 1.363 . S
C1041 C1047 1.363 . S
C1042 C1043 1.363 . S
C1042 C1047 1.379 . S
C1042 N1049 1.356 . S
C1043 C1042 1.363 . S
C1043 C1046 1.363 . S
N1044 C1046 1.356 . S
N1044 H1056 0.984 . S
N1044 H1057 0.985 . S
N1045 C1047 1.356 . S
N1045 H1050 0.984 1_545 S
N1045 H1051 0.985 . S
C1046 C1040 1.379 . S
C1046 C1043 1.363 . S
C1046 N1044 1.356 . S
C1047 C1041 1.363 . S
C1047 C1042 1.379 . S
C1047 N1045 1.356 . S
N1048 C1040 1.356 1_565 S
N1048 H1054 0.984 . S
N1048 H1055 0.984 . S
N1049 C1042 1.356 . S
N1049 H1052 0.984 . S
N1049 H1053 0.985 . S
H1050 N1045 0.984 1_565 S
H1051 N1045 0.985 . S
H1052 N1049 0.984 . S
H1053 N1049 0.985 . S
H1054 N1048 0.984 . S
H1055 N1048 0.984 . S
H1056 N1044 0.984 . S
H1057 N1044 0.985 . S
C1058 C1059 1.363 . S
C1058 C1064 1.379 . S
C1058 N1066 1.356 . S
C1059 C1058 1.363 . S
C1059 C1065 1.363 . S
C1060 C1061 1.363 . S
C1060 C1065 1.379 . S
C1060 N1067 1.356 . S
C1061 C1060 1.363 . S
C1061 C1064 1.363 . S
N1062 C1064 1.356 1_545 S
N1062 H1074 0.984 . S
N1062 H1075 0.985 . S
N1063 C1065 1.356 . S
N1063 H1068 0.984 . S
N1063 H1069 0.985 . S
C1064 C1058 1.379 . S
C1064 C1061 1.363 . S
C1064 N1062 1.356 1_565 S
C1065 C1059 1.363 . S
C1065 C1060 1.379 . S
C1065 N1063 1.356 . S
N1066 C1058 1.356 . S
N1066 H1072 0.984 . S
N1066 H1073 0.984 . S
N1067 C1060 1.356 . S
N1067 H1070 0.984 1_565 S
N1067 H1071 0.985 . S
H1068 N1063 0.984 . S
H1069 N1063 0.985 . S
H1070 N1067 0.984 1_545 S
H1071 N1067 0.985 . S
H1072 N1066 0.984 . S
H1073 N1066 0.984 . S
H1074 N1062 0.984 . S
H1075 N1062 0.985 . S
C1076 C1077 1.363 . S
C1076 C1082 1.379 . S
C1076 N1084 1.356 1_565 S
C1077 C1076 1.363 . S
C1077 C1083 1.363 . S
C1078 C1079 1.363 . S
C1078 C1083 1.379 . S
C1078 N1085 1.356 . S
C1079 C1078 1.363 . S
C1079 C1082 1.363 . S
N1080 C1082 1.356 . S
N1080 H1092 0.984 . S
N1080 H1093 0.985 . S
N1081 C1083 1.356 . S
N1081 H1086 0.984 1_565 S
N1081 H1087 0.985 . S
C1082 C1076 1.379 . S
C1082 C1079 1.363 . S
C1082 N1080 1.356 . S
C1083 C1077 1.363 . S
C1083 C1078 1.379 . S
C1083 N1081 1.356 . S
N1084 C1076 1.356 1_545 S
N1084 H1090 0.984 . S
N1084 H1091 0.984 . S
N1085 C1078 1.356 . S
N1085 H1088 0.984 . S
N1085 H1089 0.985 . S
H1086 N1081 0.984 1_545 S
H1087 N1081 0.985 . S
H1088 N1085 0.984 . S
H1089 N1085 0.985 . S
H1090 N1084 0.984 . S
H1091 N1084 0.984 . S
H1092 N1080 0.984 . S
H1093 N1080 0.985 . S
C1094 C1095 1.363 . S
C1094 C1100 1.379 . S
C1094 N1102 1.356 . S
C1095 C1094 1.363 . S
C1095 C1101 1.363 . S
C1096 C1097 1.363 . S
C1096 C1101 1.379 . S
C1096 N1103 1.356 . S
C1097 C1096 1.363 . S
C1097 C1100 1.363 . S
N1098 C1100 1.356 . S
N1098 H1110 0.984 . S
N1098 H1111 0.985 . S
N1099 C1101 1.356 1_565 S
N1099 H1104 0.984 . S
N1099 H1105 0.985 . S
C1100 C1094 1.379 . S
C1100 C1097 1.363 . S
C1100 N1098 1.356 . S
C1101 C1095 1.363 . S
C1101 C1096 1.379 . S
C1101 N1099 1.356 1_545 S
N1102 C1094 1.356 . S
N1102 H1108 0.984 . S
N1102 H1109 0.984 1_545 S
N1103 C1096 1.356 . S
N1103 H1106 0.984 . S
N1103 H1107 0.985 . S
H1104 N1099 0.984 . S
H1105 N1099 0.985 . S
H1106 N1103 0.984 . S
H1107 N1103 0.985 . S
H1108 N1102 0.984 . S
H1109 N1102 0.984 1_565 S
H1110 N1098 0.984 . S
H1111 N1098 0.985 . S
C1112 C1113 1.363 . S
C1112 C1118 1.379 . S
C1112 N1120 1.356 . S
C1113 C1112 1.363 . S
C1113 C1119 1.363 . S
C1114 C1115 1.363 . S
C1114 C1119 1.379 . S
C1114 N1121 1.356 . S
C1115 C1114 1.363 . S
C1115 C1118 1.363 . S
N1116 C1118 1.356 1_545 S
N1116 H1128 0.984 . S
N1116 H1129 0.985 . S
N1117 C1119 1.356 . S
N1117 H1122 0.984 . S
N1117 H1123 0.985 . S
C1118 C1112 1.379 . S
C1118 C1115 1.363 . S
C1118 N1116 1.356 1_565 S
C1119 C1113 1.363 . S
C1119 C1114 1.379 . S
C1119 N1117 1.356 . S
N1120 C1112 1.356 . S
N1120 H1126 0.984 . S
N1120 H1127 0.984 . S
N1121 C1114 1.356 . S
N1121 H1124 0.984 1_565 S
N1121 H1125 0.985 . S
H1122 N1117 0.984 . S
H1123 N1117 0.985 . S
H1124 N1121 0.984 1_545 S
H1125 N1121 0.985 . S
H1126 N1120 0.984 . S
H1127 N1120 0.984 . S
H1128 N1116 0.984 . S
H1129 N1116 0.985 . S
C1130 C1131 1.363 . S
C1130 C1136 1.379 . S
C1130 N1138 1.356 . S
C1131 C1130 1.363 . S
C1131 C1137 1.363 . S
C1132 C1133 1.363 . S
C1132 C1137 1.379 . S
C1132 N1139 1.356 1_545 S
C1133 C1132 1.363 . S
C1133 C1136 1.363 . S
N1134 C1136 1.356 . S
N1134 H1146 0.984 . S
N1134 H1147 0.985 1_545 S
N1135 C1137 1.356 . S
N1135 H1140 0.984 . S
N1135 H1141 0.985 . S
C1136 C1130 1.379 . S
C1136 C1133 1.363 . S
C1136 N1134 1.356 . S
C1137 C1131 1.363 . S
C1137 C1132 1.379 . S
C1137 N1135 1.356 . S
N1138 C1130 1.356 . S
N1138 H1144 0.984 . S
N1138 H1145 0.984 . S
N1139 C1132 1.356 1_565 S
N1139 H1142 0.984 . S
N1139 H1143 0.985 . S
H1140 N1135 0.984 . S
H1141 N1135 0.985 . S
H1142 N1139 0.984 . S
H1143 N1139 0.985 . S
H1144 N1138 0.984 . S
H1145 N1138 0.984 . S
H1146 N1134 0.984 . S
H1147 N1134 0.985 1_565 S
C1148 C1149 1.363 . S
C1148 C1154 1.379 . S
C1148 N1156 1.356 1_545 S
C1149 C1148 1.363 . S
C1149 C1155 1.363 . S
C1150 C1151 1.363 . S
C1150 C1155 1.379 . S
C1150 N1157 1.356 . S
C1151 C1150 1.363 . S
C1151 C1154 1.363 . S
N1152 C1154 1.356 . S
N1152 H1164 0.984 . S
N1152 H1165 0.985 . S
N1153 C1155 1.356 1_565 S
N1153 H1158 0.984 . S
N1153 H1159 0.985 . S
C1154 C1148 1.379 . S
C1154 C1151 1.363 . S
C1154 N1152 1.356 . S
C1155 C1149 1.363 . S
C1155 C1150 1.379 . S
C1155 N1153 1.356 1_545 S
N1156 C1148 1.356 1_565 S
N1156 H1162 0.984 1_565 S
N1156 H1163 0.984 . S
N1157 C1150 1.356 . S
N1157 H1160 0.984 . S
N1157 H1161 0.985 . S
H1158 N1153 0.984 . S
H1159 N1153 0.985 . S
H1160 N1157 0.984 . S
H1161 N1157 0.985 . S
H1162 N1156 0.984 1_545 S
H1163 N1156 0.984 . S
H1164 N1152 0.984 . S
H1165 N1152 0.985 . S
C1166 C1167 1.363 . S
C1166 C1172 1.379 . S
C1166 N1174 1.356 . S
C1167 C1166 1.363 . S
C1167 C1173 1.363 . S
C1168 C1169 1.363 . S
C1168 C1173 1.379 . S
C1168 N1175 1.356 . S
C1169 C1168 1.363 . S
C1169 C1172 1.363 . S
N1170 C1172 1.356 1_545 S
N1170 H1182 0.984 . S
N1170 H1183 0.985 . S
N1171 C1173 1.356 . S
N1171 H1176 0.984 . S
N1171 H1177 0.985 . S
C1172 C1166 1.379 . S
C1172 C1169 1.363 . S
C1172 N1170 1.356 1_565 S
C1173 C1167 1.363 . S
C1173 C1168 1.379 . S
C1173 N1171 1.356 . S
N1174 C1166 1.356 . S
N1174 H1180 0.984 . S
N1174 H1181 0.984 . S
N1175 C1168 1.356 . S
N1175 H1178 0.984 1_565 S
N1175 H1179 0.985 . S
H1176 N1171 0.984 . S
H1177 N1171 0.985 . S
H1178 N1175 0.984 1_545 S
H1179 N1175 0.985 . S
H1180 N1174 0.984 . S
H1181 N1174 0.984 . S
H1182 N1170 0.984 . S
H1183 N1170 0.985 . S
C321 C6 1.609 . S
C323 C186 1.609 . S
C339 C26 1.609 . S
C341 C166 1.609 . S
C357 C226 1.609 . S
C359 C46 1.609 . S
C375 C66 1.609 . S
C377 C206 1.609 . S
C393 C276 1.609 . S
C395 C96 1.609 . S
C411 C256 1.609 . S
C413 C116 1.609 . S
C429 C316 1.609 . S
C431 C136 1.609 . S
C447 C156 1.609 . S
C449 C296 1.609 . S
C465 C49 1.543 . S
C467 C9 1.543 . S
C483 C69 1.543 . S
C485 C29 1.543 . S
C501 C121 1.543 . S
C503 C81 1.543 . S
C519 C101 1.543 . S
C521 C141 1.543 . S
C537 C209 1.543 . S
C539 C169 1.543 . S
C555 C229 1.543 . S
C557 C189 1.543 . S
C573 C241 1.543 . S
C575 C281 1.543 . S
C591 C261 1.543 . S
C593 C301 1.543 . S
C609 C109 1.561 . S
C611 C1 1.561 . S
C627 C89 1.561 . S
C629 C21 1.561 . S
C645 C41 1.561 . S
C647 C149 1.561 . S
C663 C129 1.561 . S
C665 C61 1.561 . S
C681 C161 1.561 . S
C683 C269 1.561 . S
C699 C249 1.561 . S
C701 C181 1.561 . S
C717 C201 1.561 . S
C719 C309 1.561 . S
C735 C289 1.561 . S
C737 C221 1.561 . S
C753 C36 1.604 1_545 S
C755 C16 1.604 1_565 S
C771 C76 1.604 1_565 S
C773 C56 1.604 1_545 S
C789 C106 1.604 1_565 S
C791 C86 1.604 1_545 S
C807 C126 1.604 1_565 S
C809 C146 1.604 1_545 S
C825 C196 1.604 . S
C827 C176 1.604 . S
C843 C236 1.604 . S
C845 C216 1.604 . S
C861 C246 1.604 . S
C863 C266 1.604 . S
C879 C286 1.604 . S
C881 C306 1.604 . S
C897 C8 1.825 . S
C899 C19 1.825 . S
C915 C28 1.825 . S
C917 C39 1.825 . S
C933 C48 1.825 . S
C935 C59 1.825 . S
C951 C79 1.825 . S
C953 C68 1.825 . S
C969 C99 1.825 . S
C971 C88 1.825 . S
C987 C108 1.825 . S
C989 C119 1.825 . S
C1005 C139 1.825 . S
C1007 C128 1.825 . S
C1023 C159 1.825 . S
C1025 C148 1.825 . S
C1041 C179 1.825 1_545 S
C1043 C168 1.825 . S
C1059 C188 1.825 . S
C1061 C199 1.825 1_565 S
C1077 C219 1.825 1_565 S
C1079 C208 1.825 . S
C1095 C239 1.825 1_545 S
C1097 C228 1.825 . S
C1113 C259 1.825 . S
C1115 C248 1.825 1_565 S
C1131 C279 1.825 . S
C1133 C268 1.825 1_545 S
C1149 C288 1.825 1_545 S
C1151 C299 1.825 . S
C1167 C319 1.825 . S
C1169 C308 1.825 1_565 S
