# Generated by pormake.
# Topology upa, (4)-cn, num edge types: 1
# Building blocks:
#     Node 0, Type 0, BuildingBlock: CEKHIL_clean_sbu_0, # of connection points: 4
#     Node 1, Type 0, BuildingBlock: CEKHIL_clean_sbu_0, # of connection points: 4
#     Node 2, Type 0, BuildingBlock: CEKHIL_clean_sbu_0, # of connection points: 4
#     Node 3, Type 0, BuildingBlock: CEKHIL_clean_sbu_0, # of connection points: 4
#     Node 4, Type 0, BuildingBlock: CEKHIL_clean_sbu_0, # of connection points: 4
#     Node 5, Type 0, BuildingBlock: CEKHIL_clean_sbu_0, # of connection points: 4
#     Node 6, Type 0, BuildingBlock: CEKHIL_clean_sbu_0, # of connection points: 4
#     Node 7, Type 0, BuildingBlock: CEKHIL_clean_sbu_0, # of connection points: 4
#     Edge 8, Type (0, 0), BuildingBlock: TEMPAE_clean_linker_10, # of connection points: 2
#     Edge 9, Type (0, 0), BuildingBlock: TEMPAE_clean_linker_10, # of connection points: 2
#     Edge 10, Type (0, 0), BuildingBlock: TEMPAE_clean_linker_10, # of connection points: 2
#     Edge 11, Type (0, 0), BuildingBlock: TEMPAE_clean_linker_10, # of connection points: 2
#     Edge 12, Type (0, 0), BuildingBlock: TEMPAE_clean_linker_10, # of connection points: 2
#     Edge 13, Type (0, 0), BuildingBlock: TEMPAE_clean_linker_10, # of connection points: 2
#     Edge 14, Type (0, 0), BuildingBlock: TEMPAE_clean_linker_10, # of connection points: 2
#     Edge 15, Type (0, 0), BuildingBlock: TEMPAE_clean_linker_10, # of connection points: 2
#     Edge 16, Type (0, 0), BuildingBlock: TEMPAE_clean_linker_10, # of connection points: 2
#     Edge 17, Type (0, 0), BuildingBlock: TEMPAE_clean_linker_10, # of connection points: 2
#     Edge 18, Type (0, 0), BuildingBlock: TEMPAE_clean_linker_10, # of connection points: 2
#     Edge 19, Type (0, 0), BuildingBlock: TEMPAE_clean_linker_10, # of connection points: 2
#     Edge 20, Type (0, 0), BuildingBlock: TEMPAE_clean_linker_10, # of connection points: 2
#     Edge 21, Type (0, 0), BuildingBlock: TEMPAE_clean_linker_10, # of connection points: 2
#     Edge 22, Type (0, 0), BuildingBlock: TEMPAE_clean_linker_10, # of connection points: 2
#     Edge 23, Type (0, 0), BuildingBlock: TEMPAE_clean_linker_10, # of connection points: 2
# Relax obj value: 0.236
# Max RMSD: 0.138
# Mean RMSD: 0.138
data_MOF--net-upa--node1-CEKHIL_clean_sbu_0--edge1-TEMPAE_clean_linker_10
_symmetry_space_group_name_H-M    P1
_symmetry_Int_Tables_number       1
_symmetry_cell_setting            triclinic
loop_
_symmetry_equiv_pos_as_xyz
'x, y, z'
_cell_length_a     25.961552
_cell_length_b     25.972489
_cell_length_c     43.606971
_cell_angle_alpha  90.001995
_cell_angle_beta   89.980841
_cell_angle_gamma 89.978104
loop_
_atom_site_label
_atom_site_type_symbol
_atom_site_fract_x
_atom_site_fract_y
_atom_site_fract_z
_atom_type_partial_charge
Co0 Co 0.18351 0.24378 0.33129 0.0
O1 O 0.24095 0.28661 0.31846 0.0
O2 O 0.24543 0.20279 0.32639 0.0
C3 C 0.12263 0.27304 0.2979 0.0
O4 O 0.13358 0.18613 0.34214 0.0
Co5 Co 0.08407 0.29066 0.35996 0.0
O6 O 0.0563 0.22045 0.35362 0.0
C7 C 0.17446 0.27328 0.39971 0.0
C8 C 0.26855 0.24482 0.31794 0.0
C9 C 0.0852 0.18184 0.34817 0.0
O10 O 0.2 0.25486 0.37672 0.0
O11 O 0.12901 0.2919 0.39721 0.0
O12 O 0.15789 0.24083 0.28902 0.0
O13 O 0.12995 0.29212 0.32498 0.0
Co14 Co 0.26906 0.68494 0.83054 0.0
O15 O 0.22623 0.74168 0.81656 0.0
O16 O 0.30984 0.74682 0.82517 0.0
C17 C 0.24083 0.62279 0.79768 0.0
O18 O 0.32678 0.6358 0.84253 0.0
Co19 Co 0.22182 0.58667 0.86023 0.0
O20 O 0.29298 0.5596 0.8568 0.0
C21 C 0.23414 0.67972 0.89827 0.0
C22 C 0.26792 0.76942 0.81601 0.0
C23 C 0.33138 0.58825 0.85048 0.0
O24 O 0.25647 0.70304 0.87565 0.0
O25 O 0.21409 0.63494 0.89565 0.0
O26 O 0.27315 0.65777 0.7886 0.0
O27 O 0.22125 0.63094 0.82454 0.0
Co28 Co 0.81593 0.77446 0.32954 0.0
O29 O 0.75856 0.73194 0.31644 0.0
O30 O 0.75495 0.81617 0.32306 0.0
C31 C 0.87815 0.74348 0.29781 0.0
O32 O 0.86646 0.83123 0.34045 0.0
Co33 Co 0.91078 0.72518 0.36179 0.0
O34 O 0.94046 0.79524 0.35698 0.0
C35 C 0.81679 0.74141 0.39765 0.0
C36 C 0.73159 0.77406 0.31495 0.0
C37 C 0.91381 0.83427 0.34902 0.0
O38 O 0.79701 0.76584 0.3747 0.0
O39 O 0.85991 0.71771 0.39621 0.0
O40 O 0.84355 0.77546 0.28779 0.0
O41 O 0.86897 0.72515 0.32491 0.0
Co42 Co 0.74009 0.31863 0.83213 0.0
O43 O 0.78218 0.26094 0.81886 0.0
O44 O 0.69832 0.25731 0.82681 0.0
C45 C 0.76994 0.37935 0.7989 0.0
O46 O 0.68319 0.36929 0.84338 0.0
Co47 Co 0.78889 0.41719 0.86085 0.0
O48 O 0.71859 0.44566 0.85588 0.0
C49 C 0.77132 0.32642 0.90033 0.0
C50 C 0.74003 0.23396 0.81793 0.0
C51 C 0.6796 0.41743 0.85021 0.0
O52 O 0.75133 0.30156 0.87753 0.0
O53 O 0.79135 0.37121 0.89757 0.0
O54 O 0.7371 0.34475 0.78999 0.0
O55 O 0.78912 0.37145 0.82588 0.0
Co56 Co 0.68336 0.27072 0.1855 0.0
O57 O 0.74062 0.22788 0.1987 0.0
O58 O 0.7456 0.31139 0.18991 0.0
C59 C 0.62294 0.2422 0.21949 0.0
O60 O 0.63375 0.32855 0.17406 0.0
Co61 Co 0.58257 0.22514 0.1581 0.0
O62 O 0.55478 0.29406 0.16872 0.0
C63 C 0.67315 0.23868 0.11764 0.0
C64 C 0.76845 0.2695 0.19888 0.0
C65 C 0.58445 0.33275 0.17181 0.0
O66 O 0.6993 0.25784 0.14018 0.0
O67 O 0.62734 0.22116 0.12076 0.0
O68 O 0.65808 0.27491 0.22785 0.0
O69 O 0.62969 0.22286 0.19244 0.0
Co70 Co 0.24137 0.18465 0.68407 0.0
O71 O 0.28404 0.24214 0.69699 0.0
O72 O 0.20013 0.24629 0.68935 0.0
C73 C 0.27091 0.12365 0.71724 0.0
O74 O 0.18391 0.13454 0.67313 0.0
Co75 Co 0.28883 0.08585 0.65505 0.0
O76 O 0.21867 0.05766 0.66123 0.0
C77 C 0.27275 0.17712 0.61583 0.0
C78 C 0.2421 0.26951 0.69782 0.0
C79 C 0.17989 0.08622 0.66689 0.0
O80 O 0.25241 0.20158 0.63868 0.0
O81 O 0.29258 0.13221 0.61848 0.0
O82 O 0.23857 0.15868 0.72626 0.0
O83 O 0.28995 0.13131 0.69019 0.0
Co84 Co 0.3167 0.74319 0.18402 0.0
O85 O 0.25923 0.78605 0.19688 0.0
O86 O 0.25492 0.70216 0.18934 0.0
C87 C 0.37699 0.77366 0.21738 0.0
O88 O 0.3666 0.68528 0.17318 0.0
Co89 Co 0.41754 0.78766 0.15587 0.0
O90 O 0.44574 0.71964 0.16801 0.0
C91 C 0.32729 0.77021 0.11558 0.0
C92 C 0.23187 0.74415 0.19796 0.0
C93 C 0.41591 0.68117 0.1713 0.0
O94 O 0.30037 0.75398 0.1386 0.0
O95 O 0.37356 0.78673 0.11813 0.0
O96 O 0.34225 0.74095 0.2263 0.0
O97 O 0.37007 0.79175 0.19003 0.0
Co98 Co 0.77097 0.81817 0.68631 0.0
O99 O 0.72811 0.76115 0.69961 0.0
O100 O 0.81237 0.75707 0.69303 0.0
C101 C 0.74001 0.8807 0.71786 0.0
O102 O 0.82817 0.86819 0.67528 0.0
Co103 Co 0.72263 0.91326 0.65385 0.0
O104 O 0.79297 0.94236 0.65849 0.0
C105 C 0.73793 0.8188 0.61821 0.0
C106 C 0.77013 0.73401 0.70122 0.0
C107 C 0.83173 0.9154 0.66653 0.0
O108 O 0.76219 0.79889 0.6412 0.0
O109 O 0.7146 0.86213 0.61966 0.0
O110 O 0.77195 0.84616 0.72799 0.0
O111 O 0.72189 0.87147 0.69072 0.0
C112 C 0.01544 0.12206 0.36483 0.0
C113 C 0.06162 0.13009 0.34882 0.0
C114 C 0.99173 0.07364 0.36522 0.0
C115 C 0.01426 0.03248 0.34874 0.0
C116 C 0.06081 0.04026 0.33247 0.0
C117 C 0.08425 0.08895 0.33294 0.0
C118 C 0.94257 0.06654 0.38328 0.0
C119 C 0.08542 0.99736 0.31423 0.0
C120 C 0.97771 0.896 0.37056 0.0
C121 C 0.93896 0.88511 0.34916 0.0
C122 C 1.00239 0.94398 0.37079 0.0
C123 C 0.98888 0.98131 0.34856 0.0
C124 C 0.9503 0.97021 0.32659 0.0
C125 C 0.92528 0.92238 0.32742 0.0
C126 C 0.04244 0.95496 0.39504 0.0
C127 C 0.93571 0.00871 0.30213 0.0
H128 H 0.99793 0.15363 0.37733 0.0
H129 H 0.1197 0.09508 0.32032 0.0
H130 H 0.91082 0.05511 0.36769 0.0
H131 H 0.94745 0.0351 0.40027 0.0
H132 H 0.93092 0.10211 0.39562 0.0
H133 H 0.12132 0.0099 0.30254 0.0
H134 H 0.0947 0.96452 0.32951 0.0
H135 H 0.05801 0.98302 0.29668 0.0
H136 H 0.98812 0.86722 0.38748 0.0
H137 H 0.89576 0.91369 0.31061 0.0
H138 H 0.03082 0.98911 0.40869 0.0
H139 H 0.07988 0.96418 0.38408 0.0
H140 H 0.04808 0.92194 0.41088 0.0
H141 H 0.92034 0.04423 0.3129 0.0
H142 H 0.90628 0.99334 0.28607 0.0
H143 H 0.97033 0.01988 0.28876 0.0
C144 C 0.42275 0.58314 0.83274 0.0
C145 C 0.38328 0.56514 0.85186 0.0
C146 C 0.47121 0.55916 0.83248 0.0
C147 C 0.48057 0.51701 0.85232 0.0
C148 C 0.44125 0.49959 0.87225 0.0
C149 C 0.39286 0.52349 0.87151 0.0
C150 C 0.51203 0.57821 0.81056 0.0
C151 C 0.45023 0.4556 0.89426 0.0
C152 C 0.58784 0.42291 0.83321 0.0
C153 C 0.62818 0.44164 0.85139 0.0
C154 C 0.53963 0.4474 0.83307 0.0
C155 C 0.53142 0.49084 0.8521 0.0
C156 C 0.57173 0.50922 0.87097 0.0
C157 C 0.61982 0.48474 0.87012 0.0
C158 C 0.49774 0.42729 0.81224 0.0
C159 C 0.56404 0.55469 0.89209 0.0
H160 H 0.41529 0.61503 0.81732 0.0
H161 H 0.36251 0.50974 0.8865 0.0
H162 H 0.54688 0.59014 0.82342 0.0
H163 H 0.52369 0.54661 0.79489 0.0
H164 H 0.49853 0.6113 0.79656 0.0
H165 H 0.41631 0.44821 0.90916 0.0
H166 H 0.45913 0.41993 0.88132 0.0
H167 H 0.48396 0.46403 0.90906 0.0
H168 H 0.59435 0.38989 0.8185 0.0
H169 H 0.65085 0.4991 0.88439 0.0
H170 H 0.48503 0.45817 0.79636 0.0
H171 H 0.46371 0.41574 0.82599 0.0
H172 H 0.51063 0.39368 0.79848 0.0
H173 H 0.55416 0.58943 0.87852 0.0
H174 H 0.59887 0.56315 0.90599 0.0
H175 H 0.53133 0.54719 0.90785 0.0
C176 C 0.51238 0.39104 0.1862 0.0
C177 C 0.56079 0.38431 0.17253 0.0
C178 C 0.48855 0.43946 0.1867 0.0
C179 C 0.51335 0.48189 0.17267 0.0
C180 C 0.56219 0.47524 0.15872 0.0
C181 C 0.58573 0.42656 0.15922 0.0
C182 C 0.4374 0.44537 0.20282 0.0
C183 C 0.58906 0.51927 0.14276 0.0
C184 C 0.42723 0.59355 0.14967 0.0
C185 C 0.4393 0.62987 0.17219 0.0
C186 C 0.45195 0.54551 0.14918 0.0
C187 C 0.48792 0.53314 0.17249 0.0
C188 C 0.49903 0.56947 0.1958 0.0
C189 C 0.4754 0.61802 0.19493 0.0
C190 C 0.43995 0.50819 0.12362 0.0
C191 C 0.5359 0.55727 0.22157 0.0
H192 H 0.49344 0.35846 0.19693 0.0
H193 H 0.62302 0.42121 0.14847 0.0
H194 H 0.44298 0.468 0.22416 0.0
H195 H 0.40954 0.46668 0.18832 0.0
H196 H 0.4202 0.40764 0.20892 0.0
H197 H 0.62594 0.50722 0.13201 0.0
H198 H 0.56363 0.53553 0.12474 0.0
H199 H 0.59715 0.55054 0.15938 0.0
H200 H 0.39959 0.60336 0.13197 0.0
H201 H 0.48454 0.64654 0.21228 0.0
H202 H 0.42268 0.47259 0.13319 0.0
H203 H 0.47602 0.49692 0.1117 0.0
H204 H 0.41288 0.52467 0.1065 0.0
H205 H 0.52811 0.51843 0.23109 0.0
H206 H 0.53332 0.58581 0.24047 0.0
H207 H 0.57593 0.55732 0.21269 0.0
C208 C 0.12044 0.01592 0.65052 0.0
C209 C 0.12823 0.06231 0.66634 0.0
C210 C 0.0721 0.99198 0.65021 0.0
C211 C 0.03077 0.0145 0.66657 0.0
C212 C 0.03835 0.06119 0.68271 0.0
C213 C 0.08695 0.08483 0.68217 0.0
C214 C 0.06522 0.94266 0.63231 0.0
C215 C 0.99529 0.0858 0.70083 0.0
C216 C 0.89414 0.97837 0.64468 0.0
C217 C 0.88289 0.93998 0.66624 0.0
C218 C 0.94235 0.00264 0.64435 0.0
C219 C 0.97956 0.98912 0.66666 0.0
C220 C 0.96815 0.95081 0.68874 0.0
C221 C 0.92008 0.92616 0.68801 0.0
C222 C 0.95365 0.04239 0.61998 0.0
C223 C 0.00651 0.9362 0.71328 0.0
H224 H 0.15211 0.99845 0.6381 0.0
H225 H 0.09288 0.12042 0.69467 0.0
H226 H 0.05355 0.91108 0.64796 0.0
H227 H 0.034 0.94739 0.61516 0.0
H228 H 0.10097 0.93089 0.62017 0.0
H229 H 0.00775 0.12165 0.71256 0.0
H230 H 0.9626 0.09513 0.68543 0.0
H231 H 0.98074 0.05839 0.71832 0.0
H232 H 0.86544 0.98886 0.62773 0.0
H233 H 0.91114 0.89691 0.70492 0.0
H234 H 0.98801 0.03066 0.60655 0.0
H235 H 0.96266 0.07994 0.63083 0.0
H236 H 0.92083 0.04781 0.60396 0.0
H237 H 0.04215 0.92091 0.7026 0.0
H238 H 0.99105 0.90674 0.72929 0.0
H239 H 0.01753 0.9708 0.7267 0.0
C240 C 0.24768 0.27007 0.43816 0.0
C241 C 0.19492 0.26731 0.43144 0.0
C242 C 0.26582 0.26228 0.46839 0.0
C243 C 0.23061 0.24931 0.49211 0.0
C244 C 0.17735 0.24672 0.4853 0.0
C245 C 0.16025 0.25654 0.45534 0.0
C246 C 0.32268 0.26712 0.47485 0.0
C247 C 0.13841 0.23115 0.50934 0.0
C248 C 0.27165 0.16464 0.55889 0.0
C249 C 0.26837 0.19839 0.58406 0.0
C250 C 0.2615 0.18124 0.52886 0.0
C251 C 0.24902 0.23347 0.52333 0.0
C252 C 0.24851 0.26854 0.54832 0.0
C253 C 0.25735 0.25047 0.57845 0.0
C254 C 0.26097 0.14195 0.50329 0.0
C255 C 0.23693 0.32484 0.54337 0.0
H256 H 0.27466 0.2786 0.41988 0.0
H257 H 0.11945 0.25361 0.45033 0.0
H258 H 0.32908 0.29164 0.49534 0.0
H259 H 0.33909 0.22864 0.47995 0.0
H260 H 0.34399 0.28385 0.45513 0.0
H261 H 0.09831 0.23169 0.50045 0.0
H262 H 0.14714 0.19171 0.51765 0.0
H263 H 0.14067 0.25734 0.52937 0.0
H264 H 0.27971 0.12421 0.56275 0.0
H265 H 0.25498 0.27699 0.59759 0.0
H266 H 0.28609 0.15457 0.48416 0.0
H267 H 0.22131 0.13829 0.49405 0.0
H268 H 0.27403 0.10336 0.51107 0.0
H269 H 0.25934 0.3399 0.52364 0.0
H270 H 0.24589 0.34831 0.56399 0.0
H271 H 0.19552 0.32978 0.53787 0.0
C272 C 0.25591 0.75159 0.93558 0.0
C273 C 0.23639 0.70206 0.92991 0.0
C274 C 0.26434 0.76914 0.96584 0.0
C275 C 0.25433 0.73599 0.99105 0.0
C276 C 0.23244 0.687 0.98547 0.0
C277 C 0.22319 0.67103 0.95521 0.0
C278 C 0.28621 0.8223 0.97076 0.0
C279 C 0.22225 0.64965 0.01135 0.0
C280 C 0.34074 0.74458 0.06127 0.0
C281 C 0.30739 0.76393 0.08383 0.0
C282 C 0.32406 0.73616 0.03109 0.0
C283 C 0.27296 0.74901 0.02267 0.0
C284 C 0.23938 0.77016 0.04512 0.0
C285 C 0.25666 0.77638 0.07566 0.0
C286 C 0.36082 0.71175 0.00847 0.0
C287 C 0.18522 0.78599 0.0369 0.0
H288 H 0.26593 0.77616 0.9164 0.0
H289 H 0.20802 0.63269 0.95144 0.0
H290 H 0.2659 0.84204 0.98982 0.0
H291 H 0.32742 0.81926 0.97722 0.0
H292 H 0.28331 0.84639 0.94978 0.0
H293 H 0.20156 0.61462 1.00349 0.0
H294 H 0.25939 0.63765 0.02173 0.0
H295 H 0.19917 0.66826 0.02964 0.0
H296 H 0.37986 0.73436 0.06754 0.0
H297 H 0.23088 0.7917 0.09295 0.0
H298 H 0.36603 0.73721 0.9883 0.0
H299 H 0.34459 0.67485 1.00004 0.0
H300 H 0.39924 0.70397 0.01868 0.0
H301 H 0.1857 0.81133 0.01641 0.0
H302 H 0.16574 0.80656 0.05599 0.0
H303 H 0.16213 0.7515 0.03094 0.0
C304 C 0.70122 0.79492 0.56689 0.0
C305 C 0.74288 0.79486 0.58738 0.0
C306 C 0.70769 0.78051 0.53596 0.0
C307 C 0.75749 0.76804 0.52484 0.0
C308 C 0.7994 0.76657 0.54572 0.0
C309 C 0.79137 0.77905 0.5768 0.0
C310 C 0.66151 0.78046 0.51495 0.0
C311 C 0.85345 0.75515 0.53487 0.0
C312 C 0.78365 0.70468 0.44715 0.0
C313 C 0.79351 0.74754 0.4285 0.0
C314 C 0.76892 0.71076 0.47808 0.0
C315 C 0.76672 0.76077 0.49112 0.0
C316 C 0.77614 0.80413 0.47213 0.0
C317 C 0.78838 0.79698 0.44097 0.0
C318 C 0.75698 0.66359 0.49699 0.0
C319 C 0.77609 0.85806 0.48509 0.0
H320 H 0.66367 0.80723 0.57494 0.0
H321 H 0.82387 0.77984 0.59241 0.0
H322 H 0.66387 0.81359 0.49897 0.0
H323 H 0.66087 0.74486 0.50088 0.0
H324 H 0.62474 0.78331 0.52788 0.0
H325 H 0.88151 0.7538 0.55408 0.0
H326 H 0.85463 0.71782 0.52258 0.0
H327 H 0.86588 0.78532 0.51843 0.0
H328 H 0.78802 0.66639 0.4376 0.0
H329 H 0.7971 0.83011 0.42674 0.0
H330 H 0.72054 0.66914 0.5099 0.0
H331 H 0.78802 0.65722 0.51403 0.0
H332 H 0.75347 0.62847 0.4826 0.0
H333 H 0.73826 0.8668 0.49567 0.0
H334 H 0.78429 0.88762 0.46734 0.0
H335 H 0.80562 0.86116 0.5034 0.0
C336 C 0.76167 0.3418 0.95652 0.0
C337 C 0.76569 0.30638 0.93224 0.0
C338 C 0.75145 0.32583 0.98664 0.0
C339 C 0.74656 0.27271 0.99325 0.0
C340 C 0.753 0.23638 0.96918 0.0
C341 C 0.76148 0.25366 0.93883 0.0
C342 C 0.74313 0.36625 0.01109 0.0
C343 C 0.74979 0.17935 0.97538 0.0
C344 C 0.74675 0.24503 0.0795 0.0
C345 C 0.6938 0.24157 0.08571 0.0
C346 C 0.76491 0.25146 0.04917 0.0
C347 C 0.72929 0.25644 0.02463 0.0
C348 C 0.67595 0.25189 0.0308 0.0
C349 C 0.65906 0.24382 0.06101 0.0
C350 C 0.82215 0.25441 0.04351 0.0
C351 C 0.63627 0.25867 1.00577 0.0
H352 H 0.76416 0.38269 0.95176 0.0
H353 H 0.76474 0.226 0.92032 0.0
H354 H 0.70311 0.36365 0.01994 0.0
H355 H 0.7694 0.35953 0.03072 0.0
H356 H 0.74958 0.40592 1.00239 0.0
H357 H 0.76322 0.15619 0.9555 0.0
H358 H 0.77326 0.16917 0.99577 0.0
H359 H 0.70937 0.16855 0.98047 0.0
H360 H 0.77394 0.24302 0.09832 0.0
H361 H 0.61802 0.24172 0.06541 0.0
H362 H 0.83311 0.29463 0.03801 0.0
H363 H 0.83295 0.23019 0.02354 0.0
H364 H 0.84471 0.24176 0.0638 0.0
H365 H 0.63852 0.29842 0.99651 0.0
H366 H 0.5964 0.25183 0.01407 0.0
H367 H 0.64412 0.23192 0.98652 0.0
C368 C 0.56725 0.25987 0.26557 0.0
C369 C 0.57323 0.23744 0.23648 0.0
C370 C 0.51924 0.25983 0.28069 0.0
C371 C 0.47564 0.2378 0.26618 0.0
C372 C 0.48167 0.21432 0.23704 0.0
C373 C 0.53039 0.21378 0.2228 0.0
C374 C 0.51496 0.28427 0.31199 0.0
C375 C 0.43625 0.19117 0.2204 0.0
C376 C 0.35483 0.20183 0.31167 0.0
C377 C 0.32266 0.24441 0.30645 0.0
C378 C 0.40508 0.19974 0.29944 0.0
C379 C 0.42343 0.24069 0.28093 0.0
C380 C 0.39123 0.28397 0.27583 0.0
C381 C 0.34157 0.28552 0.28886 0.0
C382 C 0.43836 0.1534 0.30609 0.0
C383 C 0.40864 0.32806 0.25581 0.0
H384 H 0.60006 0.27808 0.27644 0.0
H385 H 0.53445 0.19619 0.20041 0.0
H386 H 0.48959 0.31858 0.31078 0.0
H387 H 0.4971 0.25691 0.32839 0.0
H388 H 0.55301 0.29637 0.32114 0.0
H389 H 0.44737 0.17377 0.19809 0.0
H390 H 0.41792 0.16108 0.23477 0.0
H391 H 0.40684 0.22134 0.21614 0.0
H392 H 0.34068 0.16994 0.32531 0.0
H393 H 0.31693 0.31841 0.28448 0.0
H394 H 0.47577 0.16585 0.31589 0.0
H395 H 0.44683 0.13255 0.28447 0.0
H396 H 0.41969 0.12624 0.32233 0.0
H397 H 0.44548 0.34411 0.26443 0.0
H398 H 0.37973 0.35956 0.25481 0.0
H399 H 0.41576 0.31389 0.23218 0.0
C400 C 0.31136 0.85505 0.8084 0.0
C401 C 0.26844 0.82308 0.80382 0.0
C402 C 0.31356 0.90489 0.79569 0.0
C403 C 0.27226 0.92314 0.77739 0.0
C404 C 0.22869 0.8911 0.77282 0.0
C405 C 0.22712 0.84177 0.78628 0.0
C406 C 0.36031 0.93794 0.80166 0.0
C407 C 0.18409 0.90855 0.75316 0.0
C408 C 0.25396 0.06721 0.76298 0.0
C409 C 0.27553 0.07345 0.73368 0.0
C410 C 0.25375 0.01896 0.77775 0.0
C411 C 0.27484 0.97538 0.76272 0.0
C412 C 0.29744 0.98162 0.73334 0.0
C413 C 0.29803 0.03056 0.71937 0.0
C414 C 0.23015 0.01444 0.80928 0.0
C415 C 0.31976 0.93625 0.71625 0.0
H416 H 0.34343 0.84106 0.82196 0.0
H417 H 0.19395 0.81729 0.7824 0.0
H418 H 0.38015 0.9466 0.77973 0.0
H419 H 0.3484 0.97526 0.81183 0.0
H420 H 0.3882 0.91905 0.81737 0.0
H421 H 0.15311 0.87915 0.75176 0.0
H422 H 0.16745 0.94462 0.76251 0.0
H423 H 0.19784 0.91711 0.72961 0.0
H424 H 0.2366 0.10007 0.77431 0.0
H425 H 0.31485 0.0348 0.69678 0.0
H426 H 0.25807 0.99667 0.82537 0.0
H427 H 0.19595 0.9889 0.80836 0.0
H428 H 0.21809 0.05237 0.81862 0.0
H429 H 0.35022 0.91759 0.73019 0.0
H430 H 0.33648 0.94749 0.69377 0.0
H431 H 0.28927 0.90708 0.71224 0.0
C432 C 0.64559 0.81713 0.30813 0.0
C433 C 0.67778 0.77451 0.30311 0.0
C434 C 0.59536 0.81895 0.29594 0.0
C435 C 0.57708 0.77768 0.27766 0.0
C436 C 0.60939 0.73445 0.27263 0.0
C437 C 0.65902 0.73316 0.28565 0.0
C438 C 0.56192 0.86522 0.30249 0.0
C439 C 0.59191 0.69 0.25289 0.0
C440 C 0.4333 0.75736 0.26328 0.0
C441 C 0.42678 0.7793 0.23411 0.0
C442 C 0.48151 0.75795 0.27812 0.0
C443 C 0.5247 0.78007 0.26322 0.0
C444 C 0.5181 0.80314 0.23402 0.0
C445 C 0.46919 0.80313 0.22007 0.0
C446 C 0.48642 0.73395 0.3095 0.0
C447 C 0.56312 0.82636 0.21702 0.0
H448 H 0.65966 0.84916 0.32168 0.0
H449 H 0.68371 0.70024 0.28146 0.0
H450 H 0.55283 0.88554 0.28079 0.0
H451 H 0.5248 0.85272 0.31269 0.0
H452 H 0.58073 0.89285 0.31838 0.0
H453 H 0.62116 0.65885 0.25154 0.0
H454 H 0.55565 0.67359 0.26211 0.0
H455 H 0.58361 0.70383 0.22932 0.0
H456 H 0.4008 0.73903 0.27442 0.0
H457 H 0.46468 0.82036 0.19761 0.0
H458 H 0.50459 0.76153 0.32564 0.0
H459 H 0.51178 0.69963 0.30826 0.0
H460 H 0.44856 0.72195 0.31899 0.0
H461 H 0.58153 0.8567 0.23116 0.0
H462 H 0.55155 0.84344 0.1947 0.0
H463 H 0.59263 0.79629 0.2127 0.0
C464 C 0.78148 0.16082 0.78922 0.0
C465 C 0.73891 0.18059 0.80525 0.0
C466 C 0.77979 0.11191 0.77526 0.0
C467 C 0.73468 0.08139 0.77767 0.0
C468 C 0.69192 0.10076 0.7943 0.0
C469 C 0.6944 0.15014 0.80765 0.0
C470 C 0.82612 0.0932 0.7575 0.0
C471 C 0.64338 0.06935 0.79789 0.0
C472 C 0.71446 0.97441 0.71845 0.0
C473 C 0.73393 0.93112 0.73384 0.0
C474 C 0.71401 0.02336 0.73247 0.0
C475 C 0.73251 0.02918 0.7629 0.0
C476 C 0.75043 0.9852 0.77889 0.0
C477 C 0.75133 0.93698 0.76413 0.0
C478 C 0.69519 0.06918 0.71438 0.0
C479 C 0.76965 0.98922 0.81148 0.0
H480 H 0.81592 0.1841 0.787 0.0
H481 H 0.66129 0.16498 0.81996 0.0
H482 H 0.84058 0.05671 0.76754 0.0
H483 H 0.81502 0.08495 0.73343 0.0
H484 H 0.85801 0.12171 0.75742 0.0
H485 H 0.614 0.08924 0.81213 0.0
H486 H 0.62649 0.0612 0.77504 0.0
H487 H 0.65255 0.03172 0.80864 0.0
H488 H 0.70104 0.97044 0.69505 0.0
H489 H 0.76629 0.90379 0.77629 0.0
H490 H 0.72697 0.09735 0.71158 0.0
H491 H 0.66374 0.08894 0.72695 0.0
H492 H 0.68087 0.05819 0.69128 0.0
H493 H 0.80454 0.01382 0.81223 0.0
H494 H 0.77935 0.95103 0.82139 0.0
H495 H 0.74008 0.0078 0.82615 0.0
C496 C 0.02942 0.29986 0.29544 0.0
C497 C 0.07258 0.27758 0.28126 0.0
C498 C 0.98062 0.2992 0.28127 0.0
C499 C 0.97477 0.27678 0.25182 0.0
C500 C 0.01862 0.25596 0.23691 0.0
C501 C 0.06673 0.25621 0.25188 0.0
C502 C 0.93497 0.32122 0.29825 0.0
C503 C 0.01454 0.23259 0.20531 0.0
C504 C 0.84134 0.22862 0.22812 0.0
C505 C 0.82237 0.27 0.21074 0.0
C506 C 0.89075 0.23026 0.24149 0.0
C507 C 0.92261 0.27398 0.237 0.0
C508 C 0.90414 0.31529 0.2188 0.0
C509 C 0.85421 0.31301 0.20617 0.0
C510 C 0.90841 0.18561 0.26104 0.0
C511 C 0.937 0.36219 0.2129 0.0
H512 H 0.03335 0.31653 0.31808 0.0
H513 H 0.09979 0.23903 0.24064 0.0
H514 H 0.9163 0.35166 0.2843 0.0
H515 H 0.90589 0.29059 0.30211 0.0
H516 H 0.94592 0.33786 0.32079 0.0
H517 H 0.05266 0.22089 0.19605 0.0
H518 H 0.98925 0.19821 0.20607 0.0
H519 H 0.99667 0.26048 0.18924 0.0
H520 H 0.81698 0.19536 0.23199 0.0
H521 H 0.84002 0.34514 0.19274 0.0
H522 H 0.91668 0.19919 0.28466 0.0
H523 H 0.94471 0.16936 0.25173 0.0
H524 H 0.87924 0.15439 0.26226 0.0
H525 H 0.94529 0.38212 0.23485 0.0
H526 H 0.9181 0.38992 0.1971 0.0
H527 H 0.97452 0.3505 0.20289 0.0
C528 C 0.19609 0.35279 0.70893 0.0
C529 C 0.2415 0.32339 0.70973 0.0
C530 C 0.19404 0.40252 0.72181 0.0
C531 C 0.23829 0.42345 0.73621 0.0
C532 C 0.28444 0.39421 0.73672 0.0
C533 C 0.28555 0.3448 0.72337 0.0
C534 C 0.14424 0.43244 0.72036 0.0
C535 C 0.33241 0.41465 0.75205 0.0
C536 C 0.25088 0.56825 0.75044 0.0
C537 C 0.23593 0.57264 0.78127 0.0
C538 C 0.25033 0.52035 0.73523 0.0
C539 C 0.23601 0.47525 0.75145 0.0
C540 C 0.22046 0.47957 0.78252 0.0
C541 C 0.21971 0.5282 0.79683 0.0
C542 C 0.26572 0.51791 0.70189 0.0
C543 C 0.20601 0.43255 0.80097 0.0
H544 H 0.16183 0.33673 0.69845 0.0
H545 H 0.32078 0.32243 0.72424 0.0
H546 H 0.12944 0.4392 0.74388 0.0
H547 H 0.151 0.47072 0.7098 0.0
H548 H 0.11411 0.41202 0.70697 0.0
H549 H 0.36537 0.38753 0.75022 0.0
H550 H 0.34375 0.45189 0.74159 0.0
H551 H 0.32459 0.42203 0.77668 0.0
H552 H 0.2632 0.60237 0.73816 0.0
H553 H 0.20802 0.531 0.82059 0.0
H554 H 0.2352 0.49849 0.68834 0.0
H555 H 0.30138 0.49476 0.69936 0.0
H556 H 0.27261 0.55672 0.69199 0.0
H557 H 0.17338 0.41221 0.78991 0.0
H558 H 0.19498 0.44228 0.82489 0.0
H559 H 0.23895 0.40533 0.80163 0.0
C560 C 0.15938 0.78555 0.22732 0.0
C561 C 0.17843 0.74347 0.21057 0.0
C562 C 0.11046 0.78393 0.24134 0.0
C563 C 0.07919 0.73947 0.23817 0.0
C564 C 0.09782 0.69728 0.22076 0.0
C565 C 0.14725 0.69962 0.20743 0.0
C566 C 0.09254 0.82959 0.25996 0.0
C567 C 0.06559 0.64951 0.2163 0.0
C568 C 0.97176 0.71731 0.29693 0.0
C569 C 0.92868 0.73788 0.28183 0.0
C570 C 0.0208 0.71722 0.28297 0.0
C571 C 0.02694 0.73733 0.25293 0.0
C572 C 0.98319 0.75654 0.23723 0.0
C573 C 0.93486 0.75692 0.25191 0.0
C574 C 0.06637 0.6969 0.30073 0.0
C575 C 0.98756 0.7776 0.20507 0.0
H576 H 0.18326 0.81944 0.23014 0.0
H577 H 0.16153 0.66691 0.19454 0.0
H578 H 0.05622 0.84511 0.25027 0.0
H579 H 0.08423 0.81738 0.28384 0.0
H580 H 0.12157 0.86099 0.26056 0.0
H581 H 0.08498 0.62057 0.2015 0.0
H582 H 0.05718 0.63157 0.23883 0.0
H583 H 0.02809 0.65986 0.20576 0.0
H584 H 0.96754 0.70265 0.32004 0.0
H585 H 0.90186 0.7728 0.23998 0.0
H586 H 0.09501 0.72812 0.30404 0.0
H587 H 0.08568 0.6658 0.28761 0.0
H588 H 0.05517 0.68163 0.32357 0.0
H589 H 0.01277 0.81207 0.20502 0.0
H590 H 0.94953 0.78853 0.19537 0.0
H591 H 0.00565 0.74861 0.18979 0.0
C592 C 0.79852 0.47188 0.79674 0.0
C593 C 0.77501 0.42949 0.78252 0.0
C594 C 0.79845 0.52088 0.78288 0.0
C595 C 0.77533 0.52766 0.75371 0.0
C596 C 0.7532 0.48457 0.73874 0.0
C597 C 0.75293 0.43624 0.7534 0.0
C598 C 0.82183 0.56577 0.79991 0.0
C599 C 0.72899 0.4897 0.70742 0.0
C600 C 0.72902 0.66206 0.73097 0.0
C601 C 0.77036 0.68037 0.71332 0.0
C602 C 0.73016 0.6126 0.74424 0.0
C603 C 0.77321 0.58002 0.73923 0.0
C604 C 0.81447 0.59788 0.72078 0.0
C605 C 0.81281 0.64794 0.70836 0.0
C606 C 0.6857 0.59562 0.76416 0.0
C607 C 0.86057 0.56416 0.71427 0.0
H608 H 0.81575 0.46722 0.81919 0.0
H609 H 0.73478 0.40376 0.74215 0.0
H610 H 0.85231 0.58401 0.78578 0.0
H611 H 0.7919 0.59542 0.80421 0.0
H612 H 0.83883 0.5541 0.82223 0.0
H613 H 0.71625 0.45203 0.69805 0.0
H614 H 0.69513 0.51567 0.7087 0.0
H615 H 0.75677 0.50728 0.69116 0.0
H616 H 0.69623 0.68695 0.73513 0.0
H617 H 0.84483 0.66167 0.69466 0.0
H618 H 0.6998 0.58654 0.78757 0.0
H619 H 0.66833 0.55993 0.75479 0.0
H620 H 0.6552 0.62548 0.76594 0.0
H621 H 0.88078 0.55493 0.73599 0.0
H622 H 0.88837 0.58277 0.6984 0.0
H623 H 0.84785 0.52715 0.70406 0.0
loop_
_geom_bond_atom_site_label_1
_geom_bond_atom_site_label_2
_geom_bond_distance
_geom_bond_site_symmetry_2
_ccdc_geom_bond_type
Co0 O1 2.216 . S
Co0 O2 2.091 . S
Co0 O4 2.004 . S
Co0 O10 2.021 . S
Co0 O12 2.137 . S
Co0 O13 2.244 . S
O1 Co0 2.216 . S
O1 C8 1.247 . S
O2 Co0 2.091 . S
O2 C8 1.261 . S
C3 O12 1.247 . S
C3 O13 1.272 . S
O4 Co0 2.004 . S
O4 C9 1.259 . S
Co5 O6 2.061 . S
Co5 O11 2.052 . S
Co5 O13 2.135 . S
O6 Co5 2.061 . S
O6 C9 1.235 . S
C7 O10 1.238 . S
C7 O11 1.241 . S
C8 O1 1.247 . S
C8 O2 1.261 . S
C9 O4 1.259 . S
C9 O6 1.235 . S
O10 Co0 2.021 . S
O10 C7 1.238 . S
O11 Co5 2.052 . S
O11 C7 1.241 . S
O12 Co0 2.137 . S
O12 C3 1.247 . S
O13 Co0 2.244 . S
O13 C3 1.272 . S
O13 Co5 2.135 . S
Co14 O15 2.216 . S
Co14 O16 2.091 . S
Co14 O18 2.004 . S
Co14 O24 2.021 . S
Co14 O26 2.137 . S
Co14 O27 2.244 . S
O15 Co14 2.216 . S
O15 C22 1.247 . S
O16 Co14 2.091 . S
O16 C22 1.261 . S
C17 O26 1.247 . S
C17 O27 1.272 . S
O18 Co14 2.004 . S
O18 C23 1.259 . S
Co19 O20 2.061 . S
Co19 O25 2.052 . S
Co19 O27 2.135 . S
O20 Co19 2.061 . S
O20 C23 1.235 . S
C21 O24 1.238 . S
C21 O25 1.241 . S
C22 O15 1.247 . S
C22 O16 1.261 . S
C23 O18 1.259 . S
C23 O20 1.235 . S
O24 Co14 2.021 . S
O24 C21 1.238 . S
O25 Co19 2.052 . S
O25 C21 1.241 . S
O26 Co14 2.137 . S
O26 C17 1.247 . S
O27 Co14 2.244 . S
O27 C17 1.272 . S
O27 Co19 2.135 . S
Co28 O29 2.216 . S
Co28 O30 2.091 . S
Co28 O32 2.004 . S
Co28 O38 2.021 . S
Co28 O40 2.137 . S
Co28 O41 2.244 . S
O29 Co28 2.216 . S
O29 C36 1.247 . S
O30 Co28 2.091 . S
O30 C36 1.261 . S
C31 O40 1.247 . S
C31 O41 1.272 . S
O32 Co28 2.004 . S
O32 C37 1.259 . S
Co33 O34 2.061 . S
Co33 O39 2.052 . S
Co33 O41 2.135 . S
O34 Co33 2.061 . S
O34 C37 1.235 . S
C35 O38 1.238 . S
C35 O39 1.241 . S
C36 O29 1.247 . S
C36 O30 1.261 . S
C37 O32 1.259 . S
C37 O34 1.235 . S
O38 Co28 2.021 . S
O38 C35 1.238 . S
O39 Co33 2.052 . S
O39 C35 1.241 . S
O40 Co28 2.137 . S
O40 C31 1.247 . S
O41 Co28 2.244 . S
O41 C31 1.272 . S
O41 Co33 2.135 . S
Co42 O43 2.216 . S
Co42 O44 2.091 . S
Co42 O46 2.004 . S
Co42 O52 2.021 . S
Co42 O54 2.137 . S
Co42 O55 2.244 . S
O43 Co42 2.216 . S
O43 C50 1.247 . S
O44 Co42 2.091 . S
O44 C50 1.261 . S
C45 O54 1.247 . S
C45 O55 1.272 . S
O46 Co42 2.004 . S
O46 C51 1.259 . S
Co47 O48 2.061 . S
Co47 O53 2.052 . S
Co47 O55 2.135 . S
O48 Co47 2.061 . S
O48 C51 1.235 . S
C49 O52 1.238 . S
C49 O53 1.241 . S
C50 O43 1.247 . S
C50 O44 1.261 . S
C51 O46 1.259 . S
C51 O48 1.235 . S
O52 Co42 2.021 . S
O52 C49 1.238 . S
O53 Co47 2.052 . S
O53 C49 1.241 . S
O54 Co42 2.137 . S
O54 C45 1.247 . S
O55 Co42 2.244 . S
O55 C45 1.272 . S
O55 Co47 2.135 . S
Co56 O57 2.216 . S
Co56 O58 2.091 . S
Co56 O60 2.004 . S
Co56 O66 2.021 . S
Co56 O68 2.137 . S
Co56 O69 2.244 . S
O57 Co56 2.216 . S
O57 C64 1.247 . S
O58 Co56 2.091 . S
O58 C64 1.261 . S
C59 O68 1.247 . S
C59 O69 1.272 . S
O60 Co56 2.004 . S
O60 C65 1.259 . S
Co61 O62 2.061 . S
Co61 O67 2.052 . S
Co61 O69 2.135 . S
O62 Co61 2.061 . S
O62 C65 1.235 . S
C63 O66 1.238 . S
C63 O67 1.241 . S
C64 O57 1.247 . S
C64 O58 1.261 . S
C65 O60 1.259 . S
C65 O62 1.235 . S
O66 Co56 2.021 . S
O66 C63 1.238 . S
O67 Co61 2.052 . S
O67 C63 1.241 . S
O68 Co56 2.137 . S
O68 C59 1.247 . S
O69 Co56 2.244 . S
O69 C59 1.272 . S
O69 Co61 2.135 . S
Co70 O71 2.216 . S
Co70 O72 2.091 . S
Co70 O74 2.004 . S
Co70 O80 2.021 . S
Co70 O82 2.137 . S
Co70 O83 2.244 . S
O71 Co70 2.216 . S
O71 C78 1.247 . S
O72 Co70 2.091 . S
O72 C78 1.261 . S
C73 O82 1.247 . S
C73 O83 1.272 . S
O74 Co70 2.004 . S
O74 C79 1.259 . S
Co75 O76 2.061 . S
Co75 O81 2.052 . S
Co75 O83 2.135 . S
O76 Co75 2.061 . S
O76 C79 1.235 . S
C77 O80 1.238 . S
C77 O81 1.241 . S
C78 O71 1.247 . S
C78 O72 1.261 . S
C79 O74 1.259 . S
C79 O76 1.235 . S
O80 Co70 2.021 . S
O80 C77 1.238 . S
O81 Co75 2.052 . S
O81 C77 1.241 . S
O82 Co70 2.137 . S
O82 C73 1.247 . S
O83 Co70 2.244 . S
O83 C73 1.272 . S
O83 Co75 2.135 . S
Co84 O85 2.216 . S
Co84 O86 2.091 . S
Co84 O88 2.004 . S
Co84 O94 2.021 . S
Co84 O96 2.137 . S
Co84 O97 2.244 . S
O85 Co84 2.216 . S
O85 C92 1.247 . S
O86 Co84 2.091 . S
O86 C92 1.261 . S
C87 O96 1.247 . S
C87 O97 1.272 . S
O88 Co84 2.004 . S
O88 C93 1.259 . S
Co89 O90 2.061 . S
Co89 O95 2.052 . S
Co89 O97 2.135 . S
O90 Co89 2.061 . S
O90 C93 1.235 . S
C91 O94 1.238 . S
C91 O95 1.241 . S
C92 O85 1.247 . S
C92 O86 1.261 . S
C93 O88 1.259 . S
C93 O90 1.235 . S
O94 Co84 2.021 . S
O94 C91 1.238 . S
O95 Co89 2.052 . S
O95 C91 1.241 . S
O96 Co84 2.137 . S
O96 C87 1.247 . S
O97 Co84 2.244 . S
O97 C87 1.272 . S
O97 Co89 2.135 . S
Co98 O99 2.216 . S
Co98 O100 2.091 . S
Co98 O102 2.004 . S
Co98 O108 2.021 . S
Co98 O110 2.137 . S
Co98 O111 2.244 . S
O99 Co98 2.216 . S
O99 C106 1.247 . S
O100 Co98 2.091 . S
O100 C106 1.261 . S
C101 O110 1.247 . S
C101 O111 1.272 . S
O102 Co98 2.004 . S
O102 C107 1.259 . S
Co103 O104 2.061 . S
Co103 O109 2.052 . S
Co103 O111 2.135 . S
O104 Co103 2.061 . S
O104 C107 1.235 . S
C105 O108 1.238 . S
C105 O109 1.241 . S
C106 O99 1.247 . S
C106 O100 1.261 . S
C107 O102 1.259 . S
C107 O104 1.235 . S
O108 Co98 2.021 . S
O108 C105 1.238 . S
O109 Co103 2.052 . S
O109 C105 1.241 . S
O110 Co98 2.137 . S
O110 C101 1.247 . S
O111 Co98 2.244 . S
O111 C101 1.272 . S
O111 Co103 2.135 . S
C112 C113 1.391 . S
C112 C114 1.394 1_455 S
C112 H128 0.931 . S
C113 C112 1.391 . S
C113 C117 1.376 . S
C114 C112 1.394 1_655 S
C114 C115 1.369 1_655 S
C114 C118 1.531 . S
C115 C114 1.369 1_455 S
C115 C116 1.410 . S
C115 C123 1.503 1_445 S
C116 C115 1.410 . S
C116 C117 1.392 . S
C116 C119 1.511 1_545 S
C117 C113 1.376 . S
C117 C116 1.392 . S
C117 H129 0.929 . S
C118 C114 1.531 . S
C118 H130 0.960 . S
C118 H131 0.962 . S
C118 H132 0.960 . S
C119 C116 1.511 1_565 S
C119 H133 0.961 . S
C119 H134 0.961 . S
C119 H135 0.961 . S
C120 C121 1.370 . S
C120 C122 1.363 . S
C120 H136 0.931 . S
C121 C120 1.370 . S
C121 C125 1.408 . S
C122 C120 1.363 . S
C122 C123 1.370 . S
C122 C126 1.524 . S
C123 C115 1.503 1_665 S
C123 C122 1.370 . S
C123 C124 1.403 . S
C124 C123 1.403 . S
C124 C125 1.404 . S
C124 C127 1.539 . S
C125 C121 1.408 . S
C125 C124 1.404 . S
C125 H137 0.930 . S
C126 C122 1.524 . S
C126 H138 0.956 1_565 S
C126 H139 0.961 1_655 S
C126 H140 0.961 . S
C127 C124 1.539 . S
C127 H141 0.958 1_565 S
C127 H142 0.961 . S
C127 H143 0.960 1_655 S
H128 C112 0.931 . S
H129 C117 0.929 . S
H130 C118 0.960 . S
H131 C118 0.962 . S
H132 C118 0.960 . S
H133 C119 0.961 . S
H134 C119 0.961 . S
H135 C119 0.961 . S
H136 C120 0.931 . S
H137 C125 0.930 . S
H138 C126 0.956 1_545 S
H139 C126 0.961 1_455 S
H140 C126 0.961 . S
H141 C127 0.958 1_545 S
H142 C127 0.961 . S
H143 C127 0.960 1_455 S
C144 C145 1.391 . S
C144 C146 1.394 . S
C144 H160 0.931 . S
C145 C144 1.391 . S
C145 C149 1.376 . S
C146 C144 1.394 . S
C146 C147 1.369 . S
C146 C150 1.531 . S
C147 C146 1.369 . S
C147 C148 1.410 . S
C147 C155 1.503 . S
C148 C147 1.410 . S
C148 C149 1.392 . S
C148 C151 1.511 . S
C149 C145 1.376 . S
C149 C148 1.392 . S
C149 H161 0.929 . S
C150 C146 1.531 . S
C150 H162 0.960 . S
C150 H163 0.962 . S
C150 H164 0.960 . S
C151 C148 1.511 . S
C151 H165 0.961 . S
C151 H166 0.961 . S
C151 H167 0.961 . S
C152 C153 1.370 . S
C152 C154 1.363 . S
C152 H168 0.931 . S
C153 C152 1.370 . S
C153 C157 1.408 . S
C154 C152 1.363 . S
C154 C155 1.370 . S
C154 C158 1.524 . S
C155 C147 1.503 . S
C155 C154 1.370 . S
C155 C156 1.403 . S
C156 C155 1.403 . S
C156 C157 1.404 . S
C156 C159 1.539 . S
C157 C153 1.408 . S
C157 C156 1.404 . S
C157 H169 0.930 . S
C158 C154 1.524 . S
C158 H170 0.956 . S
C158 H171 0.961 . S
C158 H172 0.961 . S
C159 C156 1.539 . S
C159 H173 0.958 . S
C159 H174 0.961 . S
C159 H175 0.960 . S
H160 C144 0.931 . S
H161 C149 0.929 . S
H162 C150 0.960 . S
H163 C150 0.962 . S
H164 C150 0.960 . S
H165 C151 0.961 . S
H166 C151 0.961 . S
H167 C151 0.961 . S
H168 C152 0.931 . S
H169 C157 0.930 . S
H170 C158 0.956 . S
H171 C158 0.961 . S
H172 C158 0.961 . S
H173 C159 0.958 . S
H174 C159 0.961 . S
H175 C159 0.960 . S
C176 C177 1.391 . S
C176 C178 1.394 . S
C176 H192 0.931 . S
C177 C176 1.391 . S
C177 C181 1.376 . S
C178 C176 1.394 . S
C178 C179 1.369 . S
C178 C182 1.531 . S
C179 C178 1.369 . S
C179 C180 1.410 . S
C179 C187 1.503 . S
C180 C179 1.410 . S
C180 C181 1.392 . S
C180 C183 1.511 . S
C181 C177 1.376 . S
C181 C180 1.392 . S
C181 H193 0.929 . S
C182 C178 1.531 . S
C182 H194 0.960 . S
C182 H195 0.962 . S
C182 H196 0.960 . S
C183 C180 1.511 . S
C183 H197 0.961 . S
C183 H198 0.961 . S
C183 H199 0.961 . S
C184 C185 1.370 . S
C184 C186 1.363 . S
C184 H200 0.931 . S
C185 C184 1.370 . S
C185 C189 1.408 . S
C186 C184 1.363 . S
C186 C187 1.370 . S
C186 C190 1.524 . S
C187 C179 1.503 . S
C187 C186 1.370 . S
C187 C188 1.403 . S
C188 C187 1.403 . S
C188 C189 1.404 . S
C188 C191 1.539 . S
C189 C185 1.408 . S
C189 C188 1.404 . S
C189 H201 0.930 . S
C190 C186 1.524 . S
C190 H202 0.956 . S
C190 H203 0.961 . S
C190 H204 0.961 . S
C191 C188 1.539 . S
C191 H205 0.958 . S
C191 H206 0.961 . S
C191 H207 0.960 . S
H192 C176 0.931 . S
H193 C181 0.929 . S
H194 C182 0.960 . S
H195 C182 0.962 . S
H196 C182 0.960 . S
H197 C183 0.961 . S
H198 C183 0.961 . S
H199 C183 0.961 . S
H200 C184 0.931 . S
H201 C189 0.930 . S
H202 C190 0.956 . S
H203 C190 0.961 . S
H204 C190 0.961 . S
H205 C191 0.958 . S
H206 C191 0.961 . S
H207 C191 0.960 . S
C208 C209 1.391 . S
C208 C210 1.394 1_545 S
C208 H224 0.931 . S
C209 C208 1.391 . S
C209 C213 1.376 . S
C210 C208 1.394 1_565 S
C210 C211 1.369 1_565 S
C210 C214 1.531 . S
C211 C210 1.369 1_545 S
C211 C212 1.410 . S
C211 C219 1.503 1_445 S
C212 C211 1.410 . S
C212 C213 1.392 . S
C212 C215 1.511 1_455 S
C213 C209 1.376 . S
C213 C212 1.392 . S
C213 H225 0.929 . S
C214 C210 1.531 . S
C214 H226 0.960 . S
C214 H227 0.962 . S
C214 H228 0.960 . S
C215 C212 1.511 1_655 S
C215 H229 0.961 . S
C215 H230 0.961 . S
C215 H231 0.961 . S
C216 C217 1.370 . S
C216 C218 1.363 . S
C216 H232 0.931 . S
C217 C216 1.370 . S
C217 C221 1.408 . S
C218 C216 1.363 . S
C218 C219 1.370 . S
C218 C222 1.524 . S
C219 C211 1.503 1_665 S
C219 C218 1.370 . S
C219 C220 1.403 . S
C220 C219 1.403 . S
C220 C221 1.404 . S
C220 C223 1.539 . S
C221 C217 1.408 . S
C221 C220 1.404 . S
C221 H233 0.930 . S
C222 C218 1.524 . S
C222 H234 0.956 1_655 S
C222 H235 0.961 1_565 S
C222 H236 0.961 . S
C223 C220 1.539 . S
C223 H237 0.958 1_655 S
C223 H238 0.961 . S
C223 H239 0.960 1_565 S
H224 C208 0.931 . S
H225 C213 0.929 . S
H226 C214 0.960 . S
H227 C214 0.962 . S
H228 C214 0.960 . S
H229 C215 0.961 . S
H230 C215 0.961 . S
H231 C215 0.961 . S
H232 C216 0.931 . S
H233 C221 0.930 . S
H234 C222 0.956 1_455 S
H235 C222 0.961 1_545 S
H236 C222 0.961 . S
H237 C223 0.958 1_455 S
H238 C223 0.961 . S
H239 C223 0.960 1_545 S
C240 C241 1.391 . S
C240 C242 1.394 . S
C240 H256 0.931 . S
C241 C240 1.391 . S
C241 C245 1.376 . S
C242 C240 1.394 . S
C242 C243 1.369 . S
C242 C246 1.531 . S
C243 C242 1.369 . S
C243 C244 1.410 . S
C243 C251 1.503 . S
C244 C243 1.410 . S
C244 C245 1.392 . S
C244 C247 1.511 . S
C245 C241 1.376 . S
C245 C244 1.392 . S
C245 H257 0.929 . S
C246 C242 1.531 . S
C246 H258 0.960 . S
C246 H259 0.962 . S
C246 H260 0.960 . S
C247 C244 1.511 . S
C247 H261 0.961 . S
C247 H262 0.961 . S
C247 H263 0.961 . S
C248 C249 1.370 . S
C248 C250 1.363 . S
C248 H264 0.931 . S
C249 C248 1.370 . S
C249 C253 1.408 . S
C250 C248 1.363 . S
C250 C251 1.370 . S
C250 C254 1.524 . S
C251 C243 1.503 . S
C251 C250 1.370 . S
C251 C252 1.403 . S
C252 C251 1.403 . S
C252 C253 1.404 . S
C252 C255 1.539 . S
C253 C249 1.408 . S
C253 C252 1.404 . S
C253 H265 0.930 . S
C254 C250 1.524 . S
C254 H266 0.956 . S
C254 H267 0.961 . S
C254 H268 0.961 . S
C255 C252 1.539 . S
C255 H269 0.958 . S
C255 H270 0.961 . S
C255 H271 0.960 . S
H256 C240 0.931 . S
H257 C245 0.929 . S
H258 C246 0.960 . S
H259 C246 0.962 . S
H260 C246 0.960 . S
H261 C247 0.961 . S
H262 C247 0.961 . S
H263 C247 0.961 . S
H264 C248 0.931 . S
H265 C253 0.930 . S
H266 C254 0.956 . S
H267 C254 0.961 . S
H268 C254 0.961 . S
H269 C255 0.958 . S
H270 C255 0.961 . S
H271 C255 0.960 . S
C272 C273 1.391 . S
C272 C274 1.394 . S
C272 H288 0.931 . S
C273 C272 1.391 . S
C273 C277 1.376 . S
C274 C272 1.394 . S
C274 C275 1.369 . S
C274 C278 1.531 . S
C275 C274 1.369 . S
C275 C276 1.410 . S
C275 C283 1.503 1_556 S
C276 C275 1.410 . S
C276 C277 1.392 . S
C276 C279 1.488 1_556 S
C277 C273 1.376 . S
C277 C276 1.392 . S
C277 H289 0.929 . S
C278 C274 1.531 . S
C278 H290 0.960 . S
C278 H291 0.962 . S
C278 H292 0.960 . S
C279 C276 1.488 1_554 S
C279 H293 0.949 1_554 S
C279 H294 0.988 . S
C279 H295 0.970 . S
C280 C281 1.370 . S
C280 C282 1.363 . S
C280 H296 0.931 . S
C281 C280 1.370 . S
C281 C285 1.408 . S
C282 C280 1.363 . S
C282 C283 1.370 . S
C282 C286 1.524 . S
C283 C275 1.503 1_554 S
C283 C282 1.370 . S
C283 C284 1.403 . S
C284 C283 1.403 . S
C284 C285 1.404 . S
C284 C287 1.539 . S
C285 C281 1.408 . S
C285 C284 1.404 . S
C285 H297 0.930 . S
C286 C282 1.524 . S
C286 H298 0.956 1_554 S
C286 H299 0.952 1_554 S
C286 H300 0.961 . S
C287 C284 1.539 . S
C287 H301 0.958 . S
C287 H302 0.961 . S
C287 H303 0.960 . S
H288 C272 0.931 . S
H289 C277 0.929 . S
H290 C278 0.960 . S
H291 C278 0.962 . S
H292 C278 0.960 . S
H293 C279 0.949 1_556 S
H294 C279 0.988 . S
H295 C279 0.970 . S
H296 C280 0.931 . S
H297 C285 0.930 . S
H298 C286 0.956 1_556 S
H299 C286 0.952 1_556 S
H300 C286 0.961 . S
H301 C287 0.958 . S
H302 C287 0.961 . S
H303 C287 0.960 . S
C304 C305 1.391 . S
C304 C306 1.394 . S
C304 H320 0.931 . S
C305 C304 1.391 . S
C305 C309 1.376 . S
C306 C304 1.394 . S
C306 C307 1.369 . S
C306 C310 1.531 . S
C307 C306 1.369 . S
C307 C308 1.410 . S
C307 C315 1.503 . S
C308 C307 1.410 . S
C308 C309 1.392 . S
C308 C311 1.511 . S
C309 C305 1.376 . S
C309 C308 1.392 . S
C309 H321 0.929 . S
C310 C306 1.531 . S
C310 H322 0.960 . S
C310 H323 0.962 . S
C310 H324 0.960 . S
C311 C308 1.511 . S
C311 H325 0.961 . S
C311 H326 0.961 . S
C311 H327 0.961 . S
C312 C313 1.370 . S
C312 C314 1.363 . S
C312 H328 0.931 . S
C313 C312 1.370 . S
C313 C317 1.408 . S
C314 C312 1.363 . S
C314 C315 1.370 . S
C314 C318 1.524 . S
C315 C307 1.503 . S
C315 C314 1.370 . S
C315 C316 1.403 . S
C316 C315 1.403 . S
C316 C317 1.404 . S
C316 C319 1.539 . S
C317 C313 1.408 . S
C317 C316 1.404 . S
C317 H329 0.930 . S
C318 C314 1.524 . S
C318 H330 0.956 . S
C318 H331 0.961 . S
C318 H332 0.961 . S
C319 C316 1.539 . S
C319 H333 0.958 . S
C319 H334 0.961 . S
C319 H335 0.960 . S
H320 C304 0.931 . S
H321 C309 0.929 . S
H322 C310 0.960 . S
H323 C310 0.962 . S
H324 C310 0.960 . S
H325 C311 0.961 . S
H326 C311 0.961 . S
H327 C311 0.961 . S
H328 C312 0.931 . S
H329 C317 0.930 . S
H330 C318 0.956 . S
H331 C318 0.961 . S
H332 C318 0.961 . S
H333 C319 0.958 . S
H334 C319 0.961 . S
H335 C319 0.960 . S
C336 C337 1.391 . S
C336 C338 1.394 . S
C336 H352 0.931 . S
C337 C336 1.391 . S
C337 C341 1.376 . S
C338 C336 1.394 . S
C338 C339 1.369 . S
C338 C342 1.531 . S
C339 C338 1.369 . S
C339 C340 1.410 . S
C339 C347 1.503 1_556 S
C340 C339 1.410 . S
C340 C341 1.392 . S
C340 C343 1.511 . S
C341 C337 1.376 . S
C341 C340 1.392 . S
C341 H353 0.929 . S
C342 C338 1.531 . S
C342 H354 0.960 1_556 S
C342 H355 0.962 1_556 S
C342 H356 0.960 . S
C343 C340 1.511 . S
C343 H357 0.961 . S
C343 H358 0.961 . S
C343 H359 0.961 . S
C344 C345 1.370 . S
C344 C346 1.363 . S
C344 H360 0.931 . S
C345 C344 1.370 . S
C345 C349 1.408 . S
C346 C344 1.363 . S
C346 C347 1.370 . S
C346 C350 1.524 . S
C347 C339 1.503 1_554 S
C347 C346 1.370 . S
C347 C348 1.403 . S
C348 C347 1.403 . S
C348 C349 1.404 . S
C348 C351 1.539 . S
C349 C345 1.408 . S
C349 C348 1.404 . S
C349 H361 0.930 . S
C350 C346 1.524 . S
C350 H362 0.956 . S
C350 H363 0.961 . S
C350 H364 0.961 . S
C351 C348 1.539 . S
C351 H365 0.958 . S
C351 H366 0.961 . S
C351 H367 0.960 1_554 S
H352 C336 0.931 . S
H353 C341 0.929 . S
H354 C342 0.960 1_554 S
H355 C342 0.962 1_554 S
H356 C342 0.960 . S
H357 C343 0.961 . S
H358 C343 0.961 . S
H359 C343 0.961 . S
H360 C344 0.931 . S
H361 C349 0.930 . S
H362 C350 0.956 . S
H363 C350 0.961 . S
H364 C350 0.961 . S
H365 C351 0.958 . S
H366 C351 0.961 . S
H367 C351 0.960 1_556 S
C368 C369 1.391 . S
C368 C370 1.394 . S
C368 H384 0.931 . S
C369 C368 1.391 . S
C369 C373 1.376 . S
C370 C368 1.394 . S
C370 C371 1.369 . S
C370 C374 1.531 . S
C371 C370 1.369 . S
C371 C372 1.410 . S
C371 C379 1.503 . S
C372 C371 1.410 . S
C372 C373 1.392 . S
C372 C375 1.511 . S
C373 C369 1.376 . S
C373 C372 1.392 . S
C373 H385 0.929 . S
C374 C370 1.531 . S
C374 H386 0.960 . S
C374 H387 0.962 . S
C374 H388 0.960 . S
C375 C372 1.511 . S
C375 H389 0.961 . S
C375 H390 0.961 . S
C375 H391 0.961 . S
C376 C377 1.370 . S
C376 C378 1.363 . S
C376 H392 0.931 . S
C377 C376 1.370 . S
C377 C381 1.408 . S
C378 C376 1.363 . S
C378 C379 1.370 . S
C378 C382 1.524 . S
C379 C371 1.503 . S
C379 C378 1.370 . S
C379 C380 1.403 . S
C380 C379 1.403 . S
C380 C381 1.404 . S
C380 C383 1.539 . S
C381 C377 1.408 . S
C381 C380 1.404 . S
C381 H393 0.930 . S
C382 C378 1.524 . S
C382 H394 0.956 . S
C382 H395 0.961 . S
C382 H396 0.961 . S
C383 C380 1.539 . S
C383 H397 0.958 . S
C383 H398 0.961 . S
C383 H399 0.960 . S
H384 C368 0.931 . S
H385 C373 0.929 . S
H386 C374 0.960 . S
H387 C374 0.962 . S
H388 C374 0.960 . S
H389 C375 0.961 . S
H390 C375 0.961 . S
H391 C375 0.961 . S
H392 C376 0.931 . S
H393 C381 0.930 . S
H394 C382 0.956 . S
H395 C382 0.961 . S
H396 C382 0.961 . S
H397 C383 0.958 . S
H398 C383 0.961 . S
H399 C383 0.960 . S
C400 C401 1.391 . S
C400 C402 1.394 . S
C400 H416 0.931 . S
C401 C400 1.391 . S
C401 C405 1.376 . S
C402 C400 1.394 . S
C402 C403 1.369 . S
C402 C406 1.531 . S
C403 C402 1.369 . S
C403 C404 1.410 . S
C403 C411 1.503 . S
C404 C403 1.410 . S
C404 C405 1.392 . S
C404 C407 1.511 . S
C405 C401 1.376 . S
C405 C404 1.392 . S
C405 H417 0.929 . S
C406 C402 1.531 . S
C406 H418 0.960 . S
C406 H419 0.962 . S
C406 H420 0.960 . S
C407 C404 1.511 . S
C407 H421 0.961 . S
C407 H422 0.961 . S
C407 H423 0.961 . S
C408 C409 1.370 . S
C408 C410 1.363 1_545 S
C408 H424 0.931 . S
C409 C408 1.370 . S
C409 C413 1.408 1_545 S
C410 C408 1.363 1_565 S
C410 C411 1.370 . S
C410 C414 1.524 . S
C411 C403 1.503 . S
C411 C410 1.370 . S
C411 C412 1.403 . S
C412 C411 1.403 . S
C412 C413 1.404 . S
C412 C415 1.539 . S
C413 C409 1.408 1_565 S
C413 C412 1.404 . S
C413 H425 0.930 . S
C414 C410 1.524 . S
C414 H426 0.956 . S
C414 H427 0.961 . S
C414 H428 0.961 . S
C415 C412 1.539 . S
C415 H429 0.958 . S
C415 H430 0.961 . S
C415 H431 0.960 . S
H416 C400 0.931 . S
H417 C405 0.929 . S
H418 C406 0.960 . S
H419 C406 0.962 . S
H420 C406 0.960 . S
H421 C407 0.961 . S
H422 C407 0.961 . S
H423 C407 0.961 . S
H424 C408 0.931 . S
H425 C413 0.930 . S
H426 C414 0.956 . S
H427 C414 0.961 . S
H428 C414 0.961 . S
H429 C415 0.958 . S
H430 C415 0.961 . S
H431 C415 0.960 . S
C432 C433 1.391 . S
C432 C434 1.394 . S
C432 H448 0.931 . S
C433 C432 1.391 . S
C433 C437 1.376 . S
C434 C432 1.394 . S
C434 C435 1.369 . S
C434 C438 1.531 . S
C435 C434 1.369 . S
C435 C436 1.410 . S
C435 C443 1.503 . S
C436 C435 1.410 . S
C436 C437 1.392 . S
C436 C439 1.511 . S
C437 C433 1.376 . S
C437 C436 1.392 . S
C437 H449 0.929 . S
C438 C434 1.531 . S
C438 H450 0.960 . S
C438 H451 0.962 . S
C438 H452 0.960 . S
C439 C436 1.511 . S
C439 H453 0.961 . S
C439 H454 0.961 . S
C439 H455 0.961 . S
C440 C441 1.370 . S
C440 C442 1.363 . S
C440 H456 0.931 . S
C441 C440 1.370 . S
C441 C445 1.408 . S
C442 C440 1.363 . S
C442 C443 1.370 . S
C442 C446 1.524 . S
C443 C435 1.503 . S
C443 C442 1.370 . S
C443 C444 1.403 . S
C444 C443 1.403 . S
C444 C445 1.404 . S
C444 C447 1.539 . S
C445 C441 1.408 . S
C445 C444 1.404 . S
C445 H457 0.930 . S
C446 C442 1.524 . S
C446 H458 0.956 . S
C446 H459 0.961 . S
C446 H460 0.961 . S
C447 C444 1.539 . S
C447 H461 0.958 . S
C447 H462 0.961 . S
C447 H463 0.960 . S
H448 C432 0.931 . S
H449 C437 0.929 . S
H450 C438 0.960 . S
H451 C438 0.962 . S
H452 C438 0.960 . S
H453 C439 0.961 . S
H454 C439 0.961 . S
H455 C439 0.961 . S
H456 C440 0.931 . S
H457 C445 0.930 . S
H458 C446 0.956 . S
H459 C446 0.961 . S
H460 C446 0.961 . S
H461 C447 0.958 . S
H462 C447 0.961 . S
H463 C447 0.960 . S
C464 C465 1.391 . S
C464 C466 1.394 . S
C464 H480 0.931 . S
C465 C464 1.391 . S
C465 C469 1.376 . S
C466 C464 1.394 . S
C466 C467 1.369 . S
C466 C470 1.531 . S
C467 C466 1.369 . S
C467 C468 1.410 . S
C467 C475 1.503 . S
C468 C467 1.410 . S
C468 C469 1.392 . S
C468 C471 1.511 . S
C469 C465 1.376 . S
C469 C468 1.392 . S
C469 H481 0.929 . S
C470 C466 1.531 . S
C470 H482 0.960 . S
C470 H483 0.962 . S
C470 H484 0.960 . S
C471 C468 1.511 . S
C471 H485 0.961 . S
C471 H486 0.961 . S
C471 H487 0.961 . S
C472 C473 1.370 1_545 S
C472 C474 1.363 . S
C472 H488 0.931 . S
C473 C472 1.370 1_565 S
C473 C477 1.408 . S
C474 C472 1.363 . S
C474 C475 1.370 . S
C474 C478 1.524 . S
C475 C467 1.503 . S
C475 C474 1.370 . S
C475 C476 1.403 . S
C476 C475 1.403 . S
C476 C477 1.404 1_545 S
C476 C479 1.539 . S
C477 C473 1.408 . S
C477 C476 1.404 1_565 S
C477 H489 0.930 . S
C478 C474 1.524 . S
C478 H490 0.956 . S
C478 H491 0.961 . S
C478 H492 0.961 . S
C479 C476 1.539 . S
C479 H493 0.958 . S
C479 H494 0.961 . S
C479 H495 0.960 . S
H480 C464 0.931 . S
H481 C469 0.929 . S
H482 C470 0.960 . S
H483 C470 0.962 . S
H484 C470 0.960 . S
H485 C471 0.961 . S
H486 C471 0.961 . S
H487 C471 0.961 . S
H488 C472 0.931 . S
H489 C477 0.930 . S
H490 C478 0.956 . S
H491 C478 0.961 . S
H492 C478 0.961 . S
H493 C479 0.958 . S
H494 C479 0.961 . S
H495 C479 0.960 . S
C496 C497 1.391 1_655 S
C496 C498 1.394 . S
C496 H512 0.931 . S
C497 C496 1.391 1_455 S
C497 C501 1.376 . S
C498 C496 1.394 . S
C498 C499 1.369 . S
C498 C502 1.531 . S
C499 C498 1.369 . S
C499 C500 1.410 . S
C499 C507 1.503 . S
C500 C499 1.410 . S
C500 C501 1.392 1_655 S
C500 C503 1.511 . S
C501 C497 1.376 . S
C501 C500 1.392 1_455 S
C501 H513 0.929 . S
C502 C498 1.531 . S
C502 H514 0.960 . S
C502 H515 0.962 . S
C502 H516 0.960 . S
C503 C500 1.511 . S
C503 H517 0.961 1_655 S
C503 H518 0.961 . S
C503 H519 0.961 . S
C504 C505 1.370 . S
C504 C506 1.363 . S
C504 H520 0.931 . S
C505 C504 1.370 . S
C505 C509 1.408 . S
C506 C504 1.363 . S
C506 C507 1.370 . S
C506 C510 1.524 . S
C507 C499 1.503 . S
C507 C506 1.370 . S
C507 C508 1.403 . S
C508 C507 1.403 . S
C508 C509 1.404 . S
C508 C511 1.539 . S
C509 C505 1.408 . S
C509 C508 1.404 . S
C509 H521 0.930 . S
C510 C506 1.524 . S
C510 H522 0.956 . S
C510 H523 0.961 . S
C510 H524 0.961 . S
C511 C508 1.539 . S
C511 H525 0.958 . S
C511 H526 0.961 . S
C511 H527 0.960 . S
H512 C496 0.931 . S
H513 C501 0.929 . S
H514 C502 0.960 . S
H515 C502 0.962 . S
H516 C502 0.960 . S
H517 C503 0.961 1_455 S
H518 C503 0.961 . S
H519 C503 0.961 . S
H520 C504 0.931 . S
H521 C509 0.930 . S
H522 C510 0.956 . S
H523 C510 0.961 . S
H524 C510 0.961 . S
H525 C511 0.958 . S
H526 C511 0.961 . S
H527 C511 0.960 . S
C528 C529 1.391 . S
C528 C530 1.394 . S
C528 H544 0.931 . S
C529 C528 1.391 . S
C529 C533 1.376 . S
C530 C528 1.394 . S
C530 C531 1.369 . S
C530 C534 1.531 . S
C531 C530 1.369 . S
C531 C532 1.410 . S
C531 C539 1.503 . S
C532 C531 1.410 . S
C532 C533 1.392 . S
C532 C535 1.511 . S
C533 C529 1.376 . S
C533 C532 1.392 . S
C533 H545 0.929 . S
C534 C530 1.531 . S
C534 H546 0.960 . S
C534 H547 0.962 . S
C534 H548 0.960 . S
C535 C532 1.511 . S
C535 H549 0.961 . S
C535 H550 0.961 . S
C535 H551 0.961 . S
C536 C537 1.370 . S
C536 C538 1.363 . S
C536 H552 0.931 . S
C537 C536 1.370 . S
C537 C541 1.408 . S
C538 C536 1.363 . S
C538 C539 1.370 . S
C538 C542 1.524 . S
C539 C531 1.503 . S
C539 C538 1.370 . S
C539 C540 1.403 . S
C540 C539 1.403 . S
C540 C541 1.404 . S
C540 C543 1.539 . S
C541 C537 1.408 . S
C541 C540 1.404 . S
C541 H553 0.930 . S
C542 C538 1.524 . S
C542 H554 0.956 . S
C542 H555 0.961 . S
C542 H556 0.961 . S
C543 C540 1.539 . S
C543 H557 0.958 . S
C543 H558 0.961 . S
C543 H559 0.960 . S
H544 C528 0.931 . S
H545 C533 0.929 . S
H546 C534 0.960 . S
H547 C534 0.962 . S
H548 C534 0.960 . S
H549 C535 0.961 . S
H550 C535 0.961 . S
H551 C535 0.961 . S
H552 C536 0.931 . S
H553 C541 0.930 . S
H554 C542 0.956 . S
H555 C542 0.961 . S
H556 C542 0.961 . S
H557 C543 0.958 . S
H558 C543 0.961 . S
H559 C543 0.960 . S
C560 C561 1.391 . S
C560 C562 1.394 . S
C560 H576 0.931 . S
C561 C560 1.391 . S
C561 C565 1.376 . S
C562 C560 1.394 . S
C562 C563 1.369 . S
C562 C566 1.531 . S
C563 C562 1.369 . S
C563 C564 1.410 . S
C563 C571 1.503 . S
C564 C563 1.410 . S
C564 C565 1.392 . S
C564 C567 1.511 . S
C565 C561 1.376 . S
C565 C564 1.392 . S
C565 H577 0.929 . S
C566 C562 1.531 . S
C566 H578 0.960 . S
C566 H579 0.962 . S
C566 H580 0.960 . S
C567 C564 1.511 . S
C567 H581 0.961 . S
C567 H582 0.961 . S
C567 H583 0.961 . S
C568 C569 1.370 1_455 S
C568 C570 1.363 . S
C568 H584 0.931 . S
C569 C568 1.370 1_655 S
C569 C573 1.408 . S
C570 C568 1.363 . S
C570 C571 1.370 . S
C570 C574 1.524 . S
C571 C563 1.503 . S
C571 C570 1.370 . S
C571 C572 1.403 . S
C572 C571 1.403 . S
C572 C573 1.404 1_455 S
C572 C575 1.539 . S
C573 C569 1.408 . S
C573 C572 1.404 1_655 S
C573 H585 0.930 . S
C574 C570 1.524 . S
C574 H586 0.956 . S
C574 H587 0.961 . S
C574 H588 0.961 . S
C575 C572 1.539 . S
C575 H589 0.958 . S
C575 H590 0.977 . S
C575 H591 0.960 . S
H576 C560 0.931 . S
H577 C565 0.929 . S
H578 C566 0.960 . S
H579 C566 0.962 . S
H580 C566 0.960 . S
H581 C567 0.961 . S
H582 C567 0.961 . S
H583 C567 0.961 . S
H584 C568 0.931 . S
H585 C573 0.930 . S
H586 C574 0.956 . S
H587 C574 0.961 . S
H588 C574 0.961 . S
H589 C575 0.958 . S
H590 C575 0.977 . S
H591 C575 0.960 . S
C592 C593 1.391 . S
C592 C594 1.394 . S
C592 H608 0.931 . S
C593 C592 1.391 . S
C593 C597 1.376 . S
C594 C592 1.394 . S
C594 C595 1.369 . S
C594 C598 1.531 . S
C595 C594 1.369 . S
C595 C596 1.410 . S
C595 C603 1.503 . S
C596 C595 1.410 . S
C596 C597 1.392 . S
C596 C599 1.511 . S
C597 C593 1.376 . S
C597 C596 1.392 . S
C597 H609 0.929 . S
C598 C594 1.531 . S
C598 H610 0.960 . S
C598 H611 0.962 . S
C598 H612 0.960 . S
C599 C596 1.511 . S
C599 H613 0.961 . S
C599 H614 0.961 . S
C599 H615 0.961 . S
C600 C601 1.370 . S
C600 C602 1.363 . S
C600 H616 0.931 . S
C601 C600 1.370 . S
C601 C605 1.408 . S
C602 C600 1.363 . S
C602 C603 1.370 . S
C602 C606 1.524 . S
C603 C595 1.503 . S
C603 C602 1.370 . S
C603 C604 1.403 . S
C604 C603 1.403 . S
C604 C605 1.404 . S
C604 C607 1.539 . S
C605 C601 1.408 . S
C605 C604 1.404 . S
C605 H617 0.930 . S
C606 C602 1.524 . S
C606 H618 0.956 . S
C606 H619 0.961 . S
C606 H620 0.961 . S
C607 C604 1.539 . S
C607 H621 0.958 . S
C607 H622 0.961 . S
C607 H623 0.960 . S
H608 C592 0.931 . S
H609 C597 0.929 . S
H610 C598 0.960 . S
H611 C598 0.962 . S
H612 C598 0.960 . S
H613 C599 0.961 . S
H614 C599 0.961 . S
H615 C599 0.961 . S
H616 C600 0.931 . S
H617 C605 0.930 . S
H618 C606 0.956 . S
H619 C606 0.961 . S
H620 C606 0.961 . S
H621 C607 0.958 . S
H622 C607 0.961 . S
H623 C607 0.960 . S
C113 C9 0.521 . S
C121 C37 0.516 . S
C145 C23 0.552 . S
C153 C51 0.497 . S
C177 C65 0.560 . S
C185 C93 0.498 . S
C209 C79 0.523 . S
C217 C107 0.515 . S
C241 C7 1.351 . S
C249 C77 1.351 . S
C273 C21 1.374 . S
C281 C91 1.359 . S
C305 C105 1.308 . S
C313 C35 1.332 . S
C337 C49 1.324 . S
C345 C63 1.336 . S
C369 C59 1.682 . S
C377 C8 1.767 . S
C401 C22 1.743 . S
C409 C73 1.719 . S
C433 C36 1.737 . S
C441 C87 1.723 . S
C465 C50 1.750 . S
C473 C101 1.725 . S
C497 C3 1.744 . S
C505 C64 1.750 . S
C529 C78 1.767 . S
C537 C17 1.707 . S
C561 C92 1.776 . S
C569 C31 1.707 . S
C593 C45 1.718 . S
C601 C106 1.761 . S
