# Generated by pormake.
# Topology wka, (5)-cn, num edge types: 1
# Building blocks:
#     Node 0, Type 0, BuildingBlock: XOMCOT_clean_sbu_1, # of connection points: 5
#     Node 1, Type 0, BuildingBlock: XOMCOT_clean_sbu_1, # of connection points: 5
#     Node 2, Type 0, BuildingBlock: XOMCOT_clean_sbu_1, # of connection points: 5
#     Node 3, Type 0, BuildingBlock: XOMCOT_clean_sbu_1, # of connection points: 5
#     Node 4, Type 0, BuildingBlock: XOMCOT_clean_sbu_1, # of connection points: 5
#     Node 5, Type 0, BuildingBlock: XOMCOT_clean_sbu_1, # of connection points: 5
#     Node 6, Type 0, BuildingBlock: XOMCOT_clean_sbu_1, # of connection points: 5
#     Node 7, Type 0, BuildingBlock: XOMCOT_clean_sbu_1, # of connection points: 5
#     Node 8, Type 0, BuildingBlock: XOMCOT_clean_sbu_1, # of connection points: 5
#     Node 9, Type 0, BuildingBlock: XOMCOT_clean_sbu_1, # of connection points: 5
#     Node 10, Type 0, BuildingBlock: XOMCOT_clean_sbu_1, # of connection points: 5
#     Node 11, Type 0, BuildingBlock: XOMCOT_clean_sbu_1, # of connection points: 5
#     Edge 12, Type (0, 0), BuildingBlock: UVAHIK_clean_linker_0, # of connection points: 2
#     Edge 13, Type (0, 0), BuildingBlock: UVAHIK_clean_linker_0, # of connection points: 2
#     Edge 14, Type (0, 0), BuildingBlock: UVAHIK_clean_linker_0, # of connection points: 2
#     Edge 15, Type (0, 0), BuildingBlock: UVAHIK_clean_linker_0, # of connection points: 2
#     Edge 16, Type (0, 0), BuildingBlock: UVAHIK_clean_linker_0, # of connection points: 2
#     Edge 17, Type (0, 0), BuildingBlock: UVAHIK_clean_linker_0, # of connection points: 2
#     Edge 18, Type (0, 0), BuildingBlock: UVAHIK_clean_linker_0, # of connection points: 2
#     Edge 19, Type (0, 0), BuildingBlock: UVAHIK_clean_linker_0, # of connection points: 2
#     Edge 20, Type (0, 0), BuildingBlock: UVAHIK_clean_linker_0, # of connection points: 2
#     Edge 21, Type (0, 0), BuildingBlock: UVAHIK_clean_linker_0, # of connection points: 2
#     Edge 22, Type (0, 0), BuildingBlock: UVAHIK_clean_linker_0, # of connection points: 2
#     Edge 23, Type (0, 0), BuildingBlock: UVAHIK_clean_linker_0, # of connection points: 2
#     Edge 24, Type (0, 0), BuildingBlock: UVAHIK_clean_linker_0, # of connection points: 2
#     Edge 25, Type (0, 0), BuildingBlock: UVAHIK_clean_linker_0, # of connection points: 2
#     Edge 26, Type (0, 0), BuildingBlock: UVAHIK_clean_linker_0, # of connection points: 2
#     Edge 27, Type (0, 0), BuildingBlock: UVAHIK_clean_linker_0, # of connection points: 2
#     Edge 28, Type (0, 0), BuildingBlock: UVAHIK_clean_linker_0, # of connection points: 2
#     Edge 29, Type (0, 0), BuildingBlock: UVAHIK_clean_linker_0, # of connection points: 2
#     Edge 30, Type (0, 0), BuildingBlock: UVAHIK_clean_linker_0, # of connection points: 2
#     Edge 31, Type (0, 0), BuildingBlock: UVAHIK_clean_linker_0, # of connection points: 2
#     Edge 32, Type (0, 0), BuildingBlock: UVAHIK_clean_linker_0, # of connection points: 2
#     Edge 33, Type (0, 0), BuildingBlock: UVAHIK_clean_linker_0, # of connection points: 2
#     Edge 34, Type (0, 0), BuildingBlock: UVAHIK_clean_linker_0, # of connection points: 2
#     Edge 35, Type (0, 0), BuildingBlock: UVAHIK_clean_linker_0, # of connection points: 2
#     Edge 36, Type (0, 0), BuildingBlock: UVAHIK_clean_linker_0, # of connection points: 2
#     Edge 37, Type (0, 0), BuildingBlock: UVAHIK_clean_linker_0, # of connection points: 2
#     Edge 38, Type (0, 0), BuildingBlock: UVAHIK_clean_linker_0, # of connection points: 2
#     Edge 39, Type (0, 0), BuildingBlock: UVAHIK_clean_linker_0, # of connection points: 2
#     Edge 40, Type (0, 0), BuildingBlock: UVAHIK_clean_linker_0, # of connection points: 2
#     Edge 41, Type (0, 0), BuildingBlock: UVAHIK_clean_linker_0, # of connection points: 2
# Relax obj value: 0.226
# Max RMSD: 0.178
# Mean RMSD: 0.178
data_MOF--net-wka--node1-XOMCOT_clean_sbu_1--edge1-UVAHIK_clean_linker_0
_symmetry_space_group_name_H-M    P1
_symmetry_Int_Tables_number       1
_symmetry_cell_setting            triclinic
loop_
_symmetry_equiv_pos_as_xyz
'x, y, z'
_cell_length_a     86.022522
_cell_length_b     86.110169
_cell_length_c     21.287915
_cell_angle_alpha  89.94915
_cell_angle_beta   90.031012
_cell_angle_gamma 119.96032
loop_
_atom_site_label
_atom_site_type_symbol
_atom_site_fract_x
_atom_site_fract_y
_atom_site_fract_z
_atom_type_partial_charge
C0 C 0.13473 0.44493 0.0278 0.0
C1 C 0.14015 0.44661 0.9661 0.0
N2 N 0.13029 0.4306 0.93763 0.0
N3 N 0.12147 0.42798 0.03792 0.0
C4 C 0.11923 0.41955 0.98256 0.0
H5 H 0.13976 0.45546 0.06267 0.0
Co6 Co 0.10843 0.41884 0.11136 0.0
C7 C 0.07756 0.3845 0.06317 0.0
O8 O 0.0791 0.37454 0.10674 0.0
N9 N 0.09571 0.40985 0.18508 0.0
C10 C 0.07535 0.3991 0.26103 0.0
C11 C 0.07815 0.40311 0.19793 0.0
C12 C 0.10331 0.40999 0.24047 0.0
N13 N 0.09125 0.40345 0.28766 0.0
O14 O 0.11804 0.40293 0.12007 0.0
H15 H 0.06811 0.40158 0.16399 0.0
H16 H 0.1176 0.41552 0.24628 0.0
O17 O 0.08818 0.4014 0.0627 0.0
C18 C 0.13452 0.41107 0.13622 0.0
O19 O 0.14286 0.42854 0.14372 0.0
N20 N 0.10009 0.4352 0.10478 0.0
C21 C 0.09197 0.46271 0.09607 0.0
C22 C 0.08762 0.45036 0.04697 0.0
C23 C 0.09175 0.43664 0.0523 0.0
C24 C 0.10443 0.4471 0.15293 0.0
C25 C 0.10025 0.46081 0.14995 0.0
H26 H 0.08887 0.42764 0.01316 0.0
H27 H 0.11156 0.4462 0.19336 0.0
H28 H 0.10912 0.40572 0.97466 0.0
H29 H 0.15031 0.45877 0.94385 0.0
H30 H 0.06264 0.39359 0.28531 0.0
H31 H 0.0813 0.45145 0.00446 0.0
H32 H 0.1041 0.47027 0.18837 0.0
C33 C 0.69492 0.13368 0.19743 0.0
C34 C 0.69911 0.13925 0.13599 0.0
N35 N 0.70546 0.12943 0.10857 0.0
N36 N 0.69851 0.12037 0.20805 0.0
C37 C 0.70518 0.11829 0.15362 0.0
H38 H 0.68921 0.13867 0.23175 0.0
Co39 Co 0.69496 0.10766 0.28121 0.0
C40 C 0.67947 0.0702 0.23736 0.0
O41 O 0.66728 0.06557 0.28161 0.0
N42 N 0.69238 0.09554 0.35716 0.0
C43 C 0.69884 0.08182 0.43311 0.0
C44 C 0.69677 0.08278 0.36955 0.0
C45 C 0.69263 0.10257 0.41404 0.0
N46 N 0.69647 0.09449 0.46088 0.0
O47 O 0.72045 0.11731 0.28852 0.0
H48 H 0.70042 0.07603 0.33486 0.0
H49 H 0.69199 0.11466 0.42048 0.0
O50 O 0.69187 0.08664 0.2324 0.0
C51 C 0.72665 0.13168 0.32072 0.0
O52 O 0.71556 0.1373 0.3372 0.0
N53 N 0.66999 0.09979 0.27581 0.0
C54 C 0.63509 0.09421 0.26516 0.0
C55 C 0.6424 0.08858 0.21754 0.0
C56 C 0.66002 0.09189 0.22305 0.0
C57 C 0.66313 0.10569 0.32163 0.0
C58 C 0.6457 0.10282 0.31776 0.0
H59 H 0.66584 0.08877 0.18354 0.0
H60 H 0.67142 0.11365 0.35983 0.0
H61 H 0.70968 0.10872 0.14709 0.0
H62 H 0.69697 0.14922 0.11276 0.0
H63 H 0.70364 0.0738 0.45619 0.0
H64 H 0.6349 0.08248 0.17502 0.0
H65 H 0.64073 0.10773 0.35508 0.0
C66 C 0.55946 0.68613 0.34099 0.0
C67 C 0.55732 0.68952 0.27931 0.0
N68 N 0.57357 0.69748 0.25157 0.0
N69 N 0.57695 0.69183 0.35149 0.0
C70 C 0.58521 0.69886 0.29658 0.0
H71 H 0.54898 0.67975 0.37582 0.0
Co72 Co 0.58752 0.69097 0.42595 0.0
C73 C 0.61105 0.67703 0.3853 0.0
O74 O 0.60456 0.66571 0.43255 0.0
N75 N 0.59832 0.69127 0.50229 0.0
C76 C 0.61888 0.69983 0.57787 0.0
C77 C 0.61557 0.69613 0.51499 0.0
C78 C 0.59182 0.69312 0.55769 0.0
N79 N 0.60392 0.69806 0.60457 0.0
O80 O 0.60157 0.71674 0.42673 0.0
H81 H 0.62579 0.69876 0.48048 0.0
H82 H 0.57889 0.69222 0.56233 0.0
O83 O 0.60612 0.68873 0.37803 0.0
C84 C 0.59181 0.72318 0.44488 0.0
O85 O 0.57471 0.71203 0.45577 0.0
N86 N 0.57227 0.66546 0.4271 0.0
C87 C 0.54557 0.62924 0.42297 0.0
C88 C 0.55664 0.63747 0.37097 0.0
C89 C 0.56983 0.65555 0.37386 0.0
C90 C 0.56148 0.65756 0.47796 0.0
C91 C 0.54831 0.63943 0.47733 0.0
H92 H 0.5776 0.66177 0.33206 0.0
H93 H 0.56223 0.66534 0.51841 0.0
H94 H 0.59956 0.70502 0.28995 0.0
H95 H 0.54475 0.68599 0.25637 0.0
H96 H 0.63175 0.70495 0.60087 0.0
H97 H 0.55484 0.6301 0.32781 0.0
H98 H 0.53969 0.6337 0.51788 0.0
C99 C 0.88125 0.56215 0.54812 0.0
C100 C 0.87521 0.559 0.487 0.0
N101 N 0.88342 0.57471 0.45578 0.0
N102 N 0.8934 0.57968 0.55471 0.0
C103 C 0.89419 0.58704 0.49812 0.0
H104 H 0.87753 0.55223 0.5849 0.0
Co105 Co 0.90659 0.59057 0.6261 0.0
C106 C 0.94314 0.61413 0.57558 0.0
O107 O 0.94938 0.60807 0.6199 0.0
N108 N 0.91891 0.60157 0.70045 0.0
C109 C 0.93328 0.62176 0.77582 0.0
C110 C 0.93196 0.61864 0.71212 0.0
C111 C 0.91194 0.59505 0.75765 0.0
N112 N 0.9205 0.6069 0.80408 0.0
O113 O 0.89507 0.60478 0.63188 0.0
H114 H 0.93895 0.62887 0.67704 0.0
H115 H 0.89987 0.5823 0.76482 0.0
O116 O 0.92631 0.60883 0.57357 0.0
C117 C 0.88065 0.59602 0.66353 0.0
O118 O 0.87593 0.57961 0.68105 0.0
N119 N 0.91664 0.57517 0.62209 0.0
C120 C 0.92517 0.54784 0.61133 0.0
C121 C 0.92762 0.55917 0.56049 0.0
C122 C 0.92321 0.57268 0.5667 0.0
C123 C 0.91413 0.56412 0.67179 0.0
C124 C 0.91863 0.55065 0.66784 0.0
H125 H 0.92428 0.58056 0.52572 0.0
H126 H 0.90763 0.56483 0.71379 0.0
H127 H 0.90307 0.60104 0.48737 0.0
H128 H 0.86584 0.54612 0.4668 0.0
H129 H 0.94184 0.63442 0.79895 0.0
H130 H 0.93242 0.5573 0.5157 0.0
H131 H 0.916 0.54181 0.7076 0.0
C132 C 0.32409 0.8786 0.71911 0.0
C133 C 0.32139 0.87268 0.6579 0.0
N134 N 0.31373 0.88075 0.6267 0.0
N135 N 0.31844 0.89055 0.72578 0.0
C136 C 0.31192 0.89134 0.66912 0.0
H137 H 0.33029 0.8749 0.75595 0.0
Co138 Co 0.32034 0.90349 0.7972 0.0
C139 C 0.33283 0.94018 0.74769 0.0
O140 O 0.34478 0.94662 0.79308 0.0
N141 N 0.32139 0.9157 0.87151 0.0
C142 C 0.31478 0.92965 0.94624 0.0
C143 C 0.31645 0.92812 0.88259 0.0
C144 C 0.32166 0.90928 0.92911 0.0
N145 N 0.31788 0.91759 0.9751 0.0
O146 O 0.2946 0.89193 0.80182 0.0
H147 H 0.31248 0.93443 0.84716 0.0
H148 H 0.32291 0.89757 0.9371 0.0
O149 O 0.32183 0.92326 0.74473 0.0
C150 C 0.28894 0.87773 0.83473 0.0
O151 O 0.3007 0.87334 0.8546 0.0
N152 N 0.34571 0.91341 0.79448 0.0
C153 C 0.38151 0.92129 0.7863 0.0
C154 C 0.37363 0.926 0.73763 0.0
C155 C 0.35566 0.92159 0.74198 0.0
C156 C 0.35313 0.90854 0.8417 0.0
C157 C 0.37097 0.91254 0.83903 0.0
H158 H 0.34956 0.92396 0.70149 0.0
H159 H 0.34498 0.90035 0.8798 0.0
H160 H 0.30659 0.90007 0.65843 0.0
H161 H 0.32509 0.86345 0.63764 0.0
H162 H 0.31001 0.93772 0.96899 0.0
H163 H 0.38108 0.93255 0.69549 0.0
H164 H 0.37608 0.90783 0.87652 0.0
C165 C 0.44796 0.31907 0.89401 0.0
C166 C 0.45156 0.3174 0.83211 0.0
N167 N 0.43637 0.31194 0.79884 0.0
N168 N 0.43071 0.31499 0.89915 0.0
C169 C 0.42394 0.31037 0.84074 0.0
H170 H 0.45747 0.32357 0.93239 0.0
Co171 Co 0.41963 0.31708 0.97027 0.0
C172 C 0.39513 0.32986 0.92442 0.0
O173 O 0.3995 0.3405 0.97347 0.0
N174 N 0.4083 0.31855 0.0437 0.0
C175 C 0.38694 0.31069 0.11595 0.0
C176 C 0.39038 0.31027 0.05318 0.0
C177 C 0.41538 0.32345 0.10182 0.0
N178 N 0.40273 0.31888 0.14661 0.0
O179 O 0.40452 0.29142 0.97256 0.0
H180 H 0.38036 0.30322 0.01738 0.0
H181 H 0.42932 0.32845 0.11243 0.0
O182 O 0.40207 0.3198 0.91763 0.0
C183 C 0.41027 0.28477 0.01391 0.0
O184 O 0.4246 0.2957 0.04648 0.0
N185 N 0.43605 0.34206 0.9697 0.0
C186 C 0.46614 0.3765 0.96436 0.0
C187 C 0.45196 0.37128 0.92176 0.0
C188 C 0.43726 0.35384 0.92407 0.0
C189 C 0.44994 0.34692 0.01056 0.0
C190 C 0.46492 0.36409 0.00945 0.0
H191 H 0.42766 0.34962 0.88632 0.0
H192 H 0.4501 0.33699 0.04107 0.0
H193 H 0.41033 0.30667 0.82848 0.0
H194 H 0.4644 0.32038 0.81288 0.0
H195 H 0.3738 0.3045 0.13755 0.0
H196 H 0.45276 0.38019 0.88437 0.0
H197 H 0.4758 0.36739 0.04211 0.0
C198 C 0.56365 0.873 0.84089 0.0
C199 C 0.56327 0.8679 0.90242 0.0
N200 N 0.5801 0.87711 0.92536 0.0
N201 N 0.58062 0.88537 0.8257 0.0
C202 C 0.59033 0.88745 0.87777 0.0
H203 H 0.55229 0.8682 0.80944 0.0
Co204 Co 0.58896 0.89687 0.74987 0.0
C205 C 0.62363 0.9286 0.78867 0.0
O206 O 0.63265 0.92647 0.743 0.0
N207 N 0.5971 0.90812 0.67378 0.0
C208 C 0.60629 0.92637 0.5916 0.0
C209 C 0.60259 0.92504 0.65502 0.0
C210 C 0.59739 0.89945 0.62184 0.0
N211 N 0.60294 0.91017 0.57098 0.0
O212 O 0.60495 0.88721 0.74326 0.0
H213 H 0.60342 0.93555 0.68508 0.0
H214 H 0.59335 0.88539 0.62153 0.0
O215 O 0.60681 0.9179 0.79399 0.0
C216 C 0.5966 0.87034 0.73341 0.0
O217 O 0.57899 0.86175 0.7311 0.0
N218 N 0.57245 0.90496 0.75379 0.0
C219 C 0.5439 0.91166 0.75633 0.0
C220 C 0.55834 0.92044 0.79823 0.0
C221 C 0.57247 0.91677 0.79665 0.0
C222 C 0.5587 0.89655 0.71215 0.0
C223 C 0.54431 0.89972 0.7125 0.0
H224 H 0.58304 0.923 0.8311 0.0
H225 H 0.55875 0.887 0.67931 0.0
H226 H 0.60467 0.89641 0.88075 0.0
H227 H 0.55148 0.85865 0.9288 0.0
H228 H 0.61046 0.93814 0.5627 0.0
H229 H 0.5584 0.92956 0.83338 0.0
H230 H 0.53352 0.89275 0.67903 0.0
C231 C 0.6967 0.56172 0.97634 0.0
C232 C 0.70135 0.56083 0.03756 0.0
N233 N 0.70675 0.57686 0.06505 0.0
N234 N 0.69913 0.57818 0.96541 0.0
C235 C 0.70536 0.58711 0.01986 0.0
H236 H 0.69177 0.55104 0.94204 0.0
Co237 Co 0.69492 0.58655 0.89107 0.0
C238 C 0.69776 0.62078 0.93606 0.0
O239 O 0.70968 0.63055 0.89328 0.0
N240 N 0.69079 0.59463 0.81636 0.0
C241 C 0.68173 0.60534 0.73834 0.0
C242 C 0.68055 0.60196 0.802 0.0
C243 C 0.69768 0.5933 0.76135 0.0
N244 N 0.69246 0.59975 0.71323 0.0
O245 O 0.72032 0.60308 0.88245 0.0
H246 H 0.67252 0.60441 0.83528 0.0
H247 H 0.70633 0.58759 0.75666 0.0
O248 O 0.69139 0.60387 0.93759 0.0
C249 C 0.72893 0.59518 0.86684 0.0
O250 O 0.72006 0.5777 0.85947 0.0
N251 N 0.67054 0.56949 0.89709 0.0
C252 C 0.63577 0.54024 0.90305 0.0
C253 C 0.64135 0.55467 0.94479 0.0
C254 C 0.65891 0.56915 0.94149 0.0
C255 C 0.66525 0.55576 0.85553 0.0
C256 C 0.64793 0.54101 0.85759 0.0
H257 H 0.66321 0.5797 0.97592 0.0
H258 H 0.67474 0.55608 0.82149 0.0
H259 H 0.70842 0.60076 0.02644 0.0
H260 H 0.70063 0.5492 0.05985 0.0
H261 H 0.67484 0.61091 0.7123 0.0
H262 H 0.63245 0.55446 0.9812 0.0
H263 H 0.64415 0.53021 0.82425 0.0
C264 C 0.13259 0.68597 0.10763 0.0
C265 C 0.13855 0.68883 0.16886 0.0
N266 N 0.13022 0.69624 0.19989 0.0
N267 N 0.12035 0.69127 0.10081 0.0
C268 C 0.11942 0.69774 0.15739 0.0
H269 H 0.13648 0.67993 0.07086 0.0
Co270 Co 0.10737 0.68931 0.02913 0.0
C271 C 0.07066 0.6757 0.07851 0.0
O272 O 0.06473 0.66356 0.03378 0.0
N273 N 0.09525 0.68843 0.95458 0.0
C274 C 0.08075 0.69428 0.87957 0.0
C275 C 0.08194 0.69213 0.94313 0.0
C276 C 0.1025 0.68947 0.89745 0.0
N277 N 0.09386 0.69275 0.85123 0.0
O278 O 0.11876 0.71504 0.02518 0.0
H279 H 0.07461 0.69487 0.97836 0.0
H280 H 0.11472 0.68903 0.89023 0.0
O281 O 0.08741 0.68738 0.08139 0.0
C282 C 0.13331 0.72093 0.99411 0.0
O283 O 0.13813 0.70937 0.97573 0.0
N284 N 0.09749 0.66387 0.03125 0.0
C285 C 0.08962 0.62805 0.03875 0.0
C286 C 0.08719 0.63662 0.09084 0.0
C287 C 0.09119 0.65445 0.08614 0.0
C288 C 0.09981 0.65566 0.98022 0.0
C289 C 0.09554 0.63777 0.98244 0.0
H290 H 0.09012 0.66096 0.12794 0.0
H291 H 0.10585 0.66304 0.93805 0.0
H292 H 0.11047 0.7028 0.16795 0.0
H293 H 0.14801 0.68545 0.18921 0.0
H294 H 0.07196 0.69814 0.85664 0.0
H295 H 0.08309 0.62998 0.13594 0.0
H296 H 0.09746 0.63184 0.94047 0.0
C297 C 0.44793 0.12917 0.28676 0.0
C298 C 0.44999 0.13474 0.34835 0.0
N299 N 0.43382 0.12595 0.3766 0.0
N300 N 0.43059 0.11682 0.27683 0.0
C301 C 0.42231 0.11541 0.33181 0.0
H302 H 0.45842 0.13352 0.25187 0.0
Co303 Co 0.42027 0.1044 0.20424 0.0
C304 C 0.39513 0.06693 0.24589 0.0
O305 O 0.39988 0.06095 0.19694 0.0
N306 N 0.40965 0.0925 0.12922 0.0
C307 C 0.38885 0.08154 0.05407 0.0
C308 C 0.39181 0.08287 0.11772 0.0
C309 C 0.41714 0.09717 0.07168 0.0
N310 N 0.40483 0.09083 0.02534 0.0
O311 O 0.40537 0.11521 0.20088 0.0
H312 H 0.38147 0.0788 0.15304 0.0
H313 H 0.43109 0.10671 0.0637 0.0
O314 O 0.40208 0.08387 0.25412 0.0
C315 C 0.41185 0.12834 0.16247 0.0
O316 O 0.42698 0.13265 0.13368 0.0
N317 N 0.43639 0.09537 0.20605 0.0
C318 C 0.46512 0.08868 0.21212 0.0
C319 C 0.45084 0.08068 0.25501 0.0
C320 C 0.4369 0.08459 0.2523 0.0
C321 C 0.45046 0.10371 0.1655 0.0
C322 C 0.46475 0.10036 0.16695 0.0
H323 H 0.42719 0.07969 0.28979 0.0
H324 H 0.4514 0.11411 0.1349 0.0
H325 H 0.40805 0.10676 0.33875 0.0
H326 H 0.46251 0.144 0.37098 0.0
H327 H 0.37592 0.07596 0.03117 0.0
H328 H 0.45064 0.07188 0.29173 0.0
H329 H 0.47589 0.10769 0.1351 0.0
C330 C 0.31966 0.44633 0.45784 0.0
C331 C 0.31642 0.44912 0.51899 0.0
N332 N 0.30972 0.43342 0.55011 0.0
N333 N 0.31525 0.42906 0.45107 0.0
C334 C 0.309 0.42149 0.50761 0.0
H335 H 0.32525 0.45631 0.42101 0.0
Co336 Co 0.31767 0.41838 0.37943 0.0
C337 C 0.33196 0.39575 0.42769 0.0
O338 O 0.34382 0.40197 0.38198 0.0
N339 N 0.31903 0.40736 0.30496 0.0
C340 C 0.31277 0.38667 0.23114 0.0
C341 C 0.31441 0.39007 0.29463 0.0
C342 C 0.31909 0.41377 0.247 0.0
N343 N 0.31573 0.40167 0.20134 0.0
O344 O 0.29198 0.40349 0.37502 0.0
H345 H 0.31082 0.37998 0.33054 0.0
H346 H 0.31956 0.42637 0.23861 0.0
O347 O 0.32016 0.40065 0.43161 0.0
C348 C 0.28604 0.41181 0.34219 0.0
O349 O 0.2975 0.42814 0.32314 0.0
N350 N 0.34302 0.43448 0.38201 0.0
C351 C 0.37875 0.46268 0.38909 0.0
C352 C 0.3705 0.4513 0.44066 0.0
C353 C 0.35267 0.43738 0.43627 0.0
C354 C 0.35084 0.44559 0.33195 0.0
C355 C 0.36869 0.45931 0.33379 0.0
H356 H 0.34636 0.4295 0.47779 0.0
H357 H 0.34316 0.44468 0.29109 0.0
H358 H 0.30459 0.40761 0.51801 0.0
H359 H 0.31901 0.46173 0.53909 0.0
H360 H 0.30872 0.37389 0.20904 0.0
H361 H 0.37741 0.45356 0.48513 0.0
H362 H 0.37431 0.46753 0.29233 0.0
C363 C 0.87601 0.3178 0.63418 0.0
C364 C 0.8705 0.31391 0.69583 0.0
N365 N 0.88006 0.3073 0.72361 0.0
N366 N 0.88904 0.31376 0.62384 0.0
C367 C 0.89094 0.30709 0.67859 0.0
H368 H 0.87123 0.32365 0.59961 0.0
Co369 Co 0.90184 0.31682 0.55091 0.0
C370 C 0.939 0.33232 0.59756 0.0
O371 O 0.94382 0.34448 0.55307 0.0
N372 N 0.91389 0.31873 0.47544 0.0
C373 C 0.92783 0.31241 0.40001 0.0
C374 C 0.92723 0.31515 0.46334 0.0
C375 C 0.90616 0.31727 0.41893 0.0
N376 N 0.91439 0.31355 0.37232 0.0
O377 O 0.89171 0.29126 0.54512 0.0
H378 H 0.93479 0.31261 0.49824 0.0
H379 H 0.89375 0.31738 0.41293 0.0
O380 O 0.9226 0.31973 0.60099 0.0
C381 C 0.877 0.28497 0.51475 0.0
O382 O 0.87124 0.29602 0.49932 0.0
N383 N 0.91044 0.34205 0.55474 0.0
C384 C 0.91814 0.3778 0.56279 0.0
C385 C 0.92068 0.36922 0.61465 0.0
C386 C 0.9167 0.3514 0.60975 0.0
C387 C 0.90767 0.35016 0.50432 0.0
C388 C 0.91182 0.36802 0.5068 0.0
H389 H 0.91809 0.34492 0.65115 0.0
H390 H 0.90156 0.34278 0.46224 0.0
H391 H 0.90027 0.30227 0.68546 0.0
H392 H 0.86078 0.31645 0.71895 0.0
H393 H 0.93636 0.30821 0.37721 0.0
H394 H 0.92505 0.37592 0.65954 0.0
H395 H 0.90969 0.37393 0.46513 0.0
C396 C 0.09821 0.60499 0.00891 0.0
C397 C 0.08725 0.60966 0.04402 0.0
C398 C 0.09637 0.588 0.01429 0.0
C399 C 0.08428 0.5514 0.12176 0.0
H400 H 0.07879 0.52326 0.97269 0.0
C401 C 0.0807 0.48255 0.13791 0.0
C402 C 0.08891 0.47813 0.08958 0.0
C403 C 0.07844 0.49751 0.13235 0.0
C404 C 0.08058 0.53101 0.01483 0.0
H405 H 0.06564 0.59967 0.11251 0.0
H406 H 0.0631 0.57022 0.12382 0.0
H407 H 0.07893 0.55154 0.96324 0.0
H408 H 0.10143 0.48598 -0.00194 0.0
H409 H 0.09819 0.51237 0.98913 0.0
H410 H 0.08691 0.53152 0.17324 0.0
C411 C 0.07294 0.57984 0.09158 0.0
C412 C 0.0805 0.54714 0.00932 0.0
C413 C 0.07451 0.59677 0.08526 0.0
C414 C 0.0948 0.48893 0.03562 0.0
C415 C 0.09284 0.50403 0.03047 0.0
C416 C 0.0847 0.53541 0.12722 0.0
C417 C 0.08382 0.57531 0.0559 0.0
C418 C 0.08251 0.55756 0.06262 0.0
C419 C 0.08464 0.50859 0.07876 0.0
C420 C 0.08306 0.52507 0.07369 0.0
H421 H 0.10857 0.61458 0.97809 0.0
H422 H 0.10511 0.58491 0.98699 0.0
H423 H 0.08602 0.5593 0.1635 0.0
H424 H 0.07593 0.47436 0.17986 0.0
H425 H 0.07177 0.50032 0.17006 0.0
C426 C 0.49044 0.086 0.16376 0.0
C427 C 0.48104 0.08619 0.2176 0.0
C428 C 0.50623 0.08519 0.16914 0.0
C429 C 0.54242 0.09454 0.2835 0.0
H430 H 0.55617 0.07055 0.16002 0.0
C431 C 0.61443 0.10677 0.2726 0.0
C432 C 0.61702 0.09229 0.2584 0.0
C433 C 0.59748 0.10509 0.26722 0.0
C434 C 0.55247 0.07716 0.19537 0.0
H435 H 0.4809 0.08526 0.31956 0.0
H436 H 0.50785 0.08304 0.32875 0.0
H437 H 0.52681 0.06826 0.15294 0.0
H438 H 0.60387 0.0647 0.22693 0.0
H439 H 0.57406 0.06157 0.21873 0.0
H440 H 0.56779 0.10302 0.32701 0.0
C441 C 0.50326 0.08396 0.28225 0.0
C442 C 0.5357 0.07604 0.19082 0.0
C443 C 0.48757 0.08493 0.2769 0.0
C444 C 0.60228 0.07611 0.23793 0.0
C445 C 0.58523 0.07436 0.23306 0.0
C446 C 0.55909 0.09554 0.28831 0.0
C447 C 0.513 0.08441 0.22852 0.0
C448 C 0.5305 0.08484 0.23457 0.0
C449 C 0.58259 0.08881 0.248 0.0
C450 C 0.56445 0.08704 0.24395 0.0
H451 H 0.48571 0.08669 0.11726 0.0
H452 H 0.5134 0.08572 0.12667 0.0
H453 H 0.53906 0.10171 0.31763 0.0
H454 H 0.6256 0.11954 0.2872 0.0
H455 H 0.59612 0.11666 0.27757 0.0
C456 C 0.41049 0.47836 0.43195 0.0
C457 C 0.39722 0.47861 0.39374 0.0
C458 C 0.42766 0.4935 0.43644 0.0
C459 C 0.4597 0.5332 0.35055 0.0
H460 H 0.47836 0.55571 0.51185 0.0
C461 C 0.51845 0.60551 0.36743 0.0
C462 C 0.53024 0.61064 0.41877 0.0
C463 C 0.50331 0.58842 0.36487 0.0
C464 C 0.4736 0.54945 0.46647 0.0
H465 H 0.39179 0.49551 0.33206 0.0
H466 H 0.4218 0.5213 0.33762 0.0
H467 H 0.4501 0.5273 0.50692 0.0
H468 H 0.53569 0.60178 0.50702 0.0
H469 H 0.50961 0.57162 0.50165 0.0
H470 H 0.48314 0.55495 0.30968 0.0
C471 C 0.41886 0.50935 0.36385 0.0
C472 C 0.45736 0.5332 0.46378 0.0
C473 C 0.40166 0.49443 0.36034 0.0
C474 C 0.52675 0.59819 0.46704 0.0
C475 C 0.51173 0.58094 0.46405 0.0
C476 C 0.47607 0.54923 0.35323 0.0
C477 C 0.43201 0.50905 0.40193 0.0
C478 C 0.45009 0.52515 0.40569 0.0
C479 C 0.49968 0.57587 0.41317 0.0
C480 C 0.48308 0.55785 0.41108 0.0
H481 H 0.40773 0.46644 0.4579 0.0
H482 H 0.43762 0.49297 0.46606 0.0
H483 H 0.45444 0.52712 0.30521 0.0
H484 H 0.52063 0.61494 0.33008 0.0
H485 H 0.49421 0.58529 0.32566 0.0
C486 C 0.91023 0.40139 0.53364 0.0
C487 C 0.92112 0.39642 0.56766 0.0
C488 C 0.91292 0.41875 0.53774 0.0
C489 C 0.92883 0.45718 0.64046 0.0
H490 H 0.93245 0.48349 0.4881 0.0
C491 C 0.93688 0.52801 0.64982 0.0
C492 C 0.92775 0.53213 0.60397 0.0
C493 C 0.93823 0.51251 0.64458 0.0
C494 C 0.93123 0.47628 0.53119 0.0
H495 H 0.94345 0.40614 0.63305 0.0
H496 H 0.94758 0.43629 0.642 0.0
H497 H 0.93033 0.45424 0.48123 0.0
H498 H 0.91274 0.52323 0.51705 0.0
H499 H 0.91453 0.49602 0.50874 0.0
H500 H 0.92881 0.47867 0.69059 0.0
C501 C 0.93709 0.42663 0.61168 0.0
C502 C 0.93014 0.45957 0.52714 0.0
C503 C 0.93462 0.40932 0.60673 0.0
C504 C 0.92014 0.52055 0.55254 0.0
C505 C 0.92124 0.50495 0.54776 0.0
C506 C 0.9296 0.47378 0.64456 0.0
C507 C 0.92632 0.43152 0.57686 0.0
C508 C 0.92875 0.44978 0.58166 0.0
C509 C 0.93022 0.50062 0.59386 0.0
C510 C 0.93061 0.48349 0.5899 0.0
H511 H 0.89934 0.39182 0.5045 0.0
H512 H 0.90423 0.42209 0.5112 0.0
H513 H 0.92761 0.44981 0.6832 0.0
H514 H 0.94297 0.53677 0.68978 0.0
H515 H 0.94554 0.50987 0.68043 0.0
C516 C 0.40614 0.92144 0.72183 0.0
C517 C 0.39995 0.9239 0.78008 0.0
C518 C 0.42272 0.9222 0.71707 0.0
C519 C 0.46549 0.93568 0.80305 0.0
H520 H 0.4668 0.90027 0.69436 0.0
C521 C 0.53021 0.93148 0.76542 0.0
C522 C 0.52809 0.91427 0.75959 0.0
C523 C 0.5152 0.93378 0.76668 0.0
C524 C 0.46666 0.91015 0.72541 0.0
H525 H 0.40693 0.92996 0.8785 0.0
H526 H 0.43544 0.93059 0.87068 0.0
H527 H 0.43983 0.90251 0.69918 0.0
H528 H 0.50858 0.88595 0.75313 0.0
H529 H 0.4825 0.88986 0.7566 0.0
H530 H 0.49212 0.94274 0.8313 0.0
C531 C 0.42761 0.92832 0.82836 0.0
C532 C 0.45124 0.91165 0.7274 0.0
C533 C 0.41109 0.92772 0.83303 0.0
C534 C 0.51067 0.89941 0.75637 0.0
C535 C 0.4957 0.90168 0.75816 0.0
C536 C 0.48092 0.93409 0.80139 0.0
C537 C 0.43352 0.92527 0.7705 0.0
C538 C 0.45037 0.92436 0.76649 0.0
C539 C 0.49773 0.9189 0.76267 0.0
C540 C 0.48164 0.92119 0.76294 0.0
H541 H 0.39793 0.91827 0.68006 0.0
H542 H 0.42695 0.92012 0.67147 0.0
H543 H 0.46543 0.94578 0.83314 0.0
H544 H 0.54349 0.94319 0.76761 0.0
H545 H 0.51731 0.94726 0.76956 0.0
C546 C 0.61582 0.5069 0.90555 0.0
C547 C 0.6177 0.52405 0.90849 0.0
C548 C 0.59892 0.49156 0.91025 0.0
C549 C 0.55206 0.47553 0.96217 0.0
H550 H 0.54267 0.43385 0.86374 0.0
C551 C 0.48239 0.40998 0.94925 0.0
C552 C 0.4829 0.39405 0.95777 0.0
C553 C 0.49833 0.42641 0.94214 0.0
C554 C 0.54512 0.44536 0.89171 0.0
H555 H 0.60331 0.53858 0.91876 0.0
H556 H 0.57365 0.51175 0.92566 0.0
H557 H 0.57125 0.4615 0.85247 0.0
H558 H 0.50045 0.38278 0.96421 0.0
H559 H 0.52815 0.41133 0.95149 0.0
H560 H 0.52568 0.45923 0.00066 0.0
C561 C 0.5853 0.51014 0.92084 0.0
C562 C 0.56155 0.46121 0.88552 0.0
C563 C 0.60228 0.52553 0.91671 0.0
C564 C 0.49963 0.39485 0.95856 0.0
C565 C 0.51548 0.41117 0.95065 0.0
C566 C 0.53551 0.45968 0.96784 0.0
C567 C 0.58339 0.49294 0.91742 0.0
C568 C 0.56538 0.47644 0.92144 0.0
C569 C 0.51502 0.42712 0.94228 0.0
C570 C 0.532 0.44435 0.9334 0.0
H571 H 0.62748 0.50531 0.9005 0.0
H572 H 0.59809 0.4786 0.90905 0.0
H573 H 0.55457 0.48689 0.99107 0.0
H574 H 0.46968 0.40975 0.94853 0.0
H575 H 0.49758 0.43849 0.93547 0.0
C576 C 0.06403 0.38629 0.9615 0.0
C577 C 0.06293 0.37656 0.01596 0.0
C578 C 0.04988 0.3797 0.91861 0.0
C579 C 0.00821 0.33894 0.86711 0.0
H580 H 0.99842 0.37441 0.79378 0.0
C581 C 0.94766 0.32329 0.69912 0.0
C582 C 0.9524 0.33447 0.64588 0.0
C583 C 0.9603 0.32673 0.74678 0.0
C584 C 1.00102 0.36433 0.81363 0.0
H585 H 0.04625 0.35193 0.06702 0.0
H586 H 0.02126 0.34046 0.99225 0.0
H587 H 0.02189 0.38354 0.87227 0.0
H588 H 0.97437 0.35756 0.60014 0.0
H589 H 0.99609 0.36347 0.68257 0.0
H590 H 0.98704 0.31972 0.808 0.0
C591 C 0.03321 0.35317 0.98256 0.0
C592 C 0.01455 0.36958 0.85849 0.0
C593 C 0.04751 0.35975 0.02549 0.0
C594 C 0.97013 0.34873 0.64055 0.0
C595 C 0.98262 0.35221 0.68802 0.0
C596 C 0.9945 0.33364 0.82226 0.0
C597 C 0.0341 0.36324 0.92911 0.0
C598 C 0.01865 0.35706 0.88484 0.0
C599 C 0.97781 0.34149 0.74219 0.0
C600 C 0.99105 0.34639 0.79406 0.0
H601 H 0.07584 0.39912 0.95195 0.0
H602 H 0.05132 0.3876 0.87714 0.0
H603 H 0.01101 0.32894 0.88631 0.0
H604 H 0.93412 0.31219 0.70471 0.0
H605 H 0.95622 0.31825 0.78808 0.0
C606 C 0.64938 0.95871 0.82035 0.0
C607 C 0.63269 0.94356 0.83409 0.0
C608 C 0.6574 0.97304 0.8629 0.0
C609 C 0.65762 0.9841 0.03015 0.0
H610 H 0.6729 0.03244 0.9734 0.0
C611 C 0.66447 0.03844 0.2008 0.0
C612 C 0.67782 0.05641 0.19176 0.0
C613 C 0.66179 0.02533 0.15683 0.0
C614 C 0.66904 0.0191 0.98998 0.0
H615 H 0.61154 0.93141 0.90383 0.0
H616 H 0.62561 0.95614 0.97802 0.0
H617 H 0.66311 0.00818 0.89667 0.0
H618 H 0.69906 0.07463 0.12936 0.0
H619 H 0.6945 0.05156 0.05236 0.0
H620 H 0.66339 0.99481 0.12321 0.0
C621 C 0.63249 0.95703 0.9344 0.0
C622 C 0.66339 0.0052 0.94596 0.0
C623 C 0.62437 0.9429 0.89164 0.0
C624 C 0.68868 0.0609 0.13785 0.0
C625 C 0.68598 0.0477 0.09352 0.0
C626 C 0.66341 0.99798 0.07396 0.0
C627 C 0.64904 0.97231 0.92046 0.0
C628 C 0.65716 0.98747 0.96581 0.0
C629 C 0.67242 0.02973 0.10241 0.0
C630 C 0.66869 0.01557 0.05472 0.0
H631 H 0.6561 0.95964 0.77632 0.0
H632 H 0.67019 0.98463 0.85103 0.0
H633 H 0.65321 0.97064 0.04676 0.0
H634 H 0.65578 0.03444 0.24157 0.0
H635 H 0.65098 0.01177 0.16486 0.0
C636 C 0.62798 0.68479 0.28227 0.0
C637 C 0.62242 0.67468 0.33813 0.0
C638 C 0.63721 0.68096 0.23584 0.0
C639 C 0.64113 0.64318 0.17757 0.0
H640 H 0.68619 0.67781 0.10096 0.0
C641 C 0.69224 0.64572 0.9691 0.0
C642 C 0.69081 0.62899 0.98105 0.0
C643 C 0.68441 0.65265 0.01007 0.0
C644 C 0.67347 0.668 0.12119 0.0
H645 H 0.62288 0.65313 0.38974 0.0
H646 H 0.63864 0.64649 0.30924 0.0
H647 H 0.67148 0.6879 0.17618 0.0
H648 H 0.68091 0.6069 0.04714 0.0
H649 H 0.6678 0.61905 0.11886 0.0
H650 H 0.64277 0.6233 0.12287 0.0
C651 C 0.63579 0.65724 0.30098 0.0
C652 C 0.66509 0.6738 0.16429 0.0
C653 C 0.6268 0.66113 0.34727 0.0
C654 C 0.68198 0.61967 0.03585 0.0
C655 C 0.67435 0.62662 0.0769 0.0
C656 C 0.64936 0.63743 0.13429 0.0
C657 C 0.64081 0.66685 0.24431 0.0
C658 C 0.64903 0.66136 0.19392 0.0
C659 C 0.67511 0.64303 0.06406 0.0
C660 C 0.66586 0.64967 0.10656 0.0
H661 H 0.62481 0.69529 0.27371 0.0
H662 H 0.64094 0.68858 0.1925 0.0
H663 H 0.62858 0.63333 0.19876 0.0
H664 H 0.69895 0.65323 0.9272 0.0
H665 H 0.68522 0.66527 -0.00153 0.0
C666 C 0.97412 0.63446 0.53535 0.0
C667 C 0.95549 0.62541 0.52503 0.0
C668 C 0.98611 0.64315 0.48605 0.0
C669 C 0.98924 0.63992 0.31628 0.0
H670 H 0.03374 0.68511 0.33306 0.0
C671 C 0.03958 0.66682 0.11234 0.0
C672 C 0.05788 0.67469 0.12711 0.0
C673 C 0.02691 0.66352 0.15913 0.0
C674 C 0.02146 0.67239 0.32769 0.0
H675 H 0.93482 0.61896 0.45512 0.0
H676 H 0.95581 0.63405 0.3686 0.0
H677 H 0.01172 0.67462 0.41811 0.0
H678 H 0.07737 0.68578 0.20232 0.0
H679 H 0.05523 0.67952 0.28475 0.0
H680 H 0.99911 0.63714 0.22756 0.0
C681 C 0.96111 0.63439 0.41506 0.0
C682 C 0.0088 0.66644 0.37638 0.0
C683 C 0.94908 0.62586 0.4647 0.0
C684 C 0.06337 0.67984 0.18946 0.0
C685 C 0.05062 0.67626 0.23669 0.0
C686 C 1.00194 0.64576 0.268 0.0
C687 C 0.97977 0.64284 0.42498 0.0
C688 C 0.9926 0.65006 0.3714 0.0
C689 C 0.03215 0.66766 0.22235 0.0
C690 C 0.01831 0.66203 0.27304 0.0
H691 H 0.97949 0.6344 0.58133 0.0
H692 H 1.00037 0.64939 0.49524 0.0
H693 H 0.97707 0.62709 0.31141 0.0
H694 H 0.03497 0.66288 0.06453 0.0
H695 H 0.01294 0.6574 0.1457 0.0
C696 C 0.37341 0.03572 0.28082 0.0
C697 C 0.38399 0.05401 0.29536 0.0
C698 C 0.36456 0.02305 0.32815 0.0
C699 C 0.35159 0.01775 0.49801 0.0
H700 H 0.35262 0.97344 0.48061 0.0
C701 C 0.34342 0.97104 0.70618 0.0
C702 C 0.33389 0.9524 0.69657 0.0
C703 C 0.34654 0.98287 0.6565 0.0
C704 C 0.35194 0.9856 0.48584 0.0
H705 H 0.39316 0.0734 0.3709 0.0
H706 H 0.37813 0.05132 0.45396 0.0
H707 H 0.36384 0.99528 0.39586 0.0
H708 H 0.31962 0.93157 0.62736 0.0
H709 H 0.32515 0.95227 0.54027 0.0
H710 H 0.3403 0.00821 0.58935 0.0
C711 C 0.37631 0.04672 0.40577 0.0
C712 C 0.35836 0.99817 0.43707 0.0
C713 C 0.38499 0.05943 0.35816 0.0
C714 C 0.32695 0.94584 0.63646 0.0
C715 C 0.33025 0.9577 0.58646 0.0
C716 C 0.3453 0.00522 0.54707 0.0
C717 C 0.36626 0.02829 0.39155 0.0
C718 C 0.35843 0.01452 0.44256 0.0
C719 C 0.34035 0.97637 0.59571 0.0
C720 C 0.34555 0.98906 0.54178 0.0
H721 H 0.37221 0.03112 0.23277 0.0
H722 H 0.35659 0.00908 0.31497 0.0
H723 H 0.35113 0.03001 0.5037 0.0
H724 H 0.34893 0.97655 0.75194 0.0
H725 H 0.35449 0.99715 0.66521 0.0
C726 C 0.38478 0.32604 0.81187 0.0
C727 C 0.3844 0.33176 0.87341 0.0
C728 C 0.37646 0.32997 0.76266 0.0
C729 C 0.34342 0.34448 0.72578 0.0
H730 H 0.37304 0.36569 0.5785 0.0
C731 C 0.32829 0.38453 0.53893 0.0
C732 C 0.33359 0.3844 0.47661 0.0
C733 C 0.33236 0.37579 0.58637 0.0
C734 C 0.36436 0.35948 0.61855 0.0
H735 H 0.37419 0.34529 0.93187 0.0
H736 H 0.35962 0.35199 0.84634 0.0
H737 H 0.38356 0.35401 0.66201 0.0
H738 H 0.34622 0.37408 0.4144 0.0
H739 H 0.35261 0.35829 0.49597 0.0
H740 H 0.3242 0.34999 0.6823 0.0
C741 C 0.36635 0.3445 0.836 0.0
C742 C 0.37045 0.3528 0.66663 0.0
C743 C 0.37481 0.34074 0.885 0.0
C744 C 0.34214 0.37459 0.46215 0.0
C745 C 0.34596 0.36566 0.50916 0.0
C746 C 0.33721 0.35103 0.6773 0.0
C747 C 0.36741 0.33953 0.774 0.0
C748 C 0.36015 0.34536 0.7211 0.0
C749 C 0.34162 0.36656 0.57229 0.0
C750 C 0.34767 0.35876 0.62314 0.0
H751 H 0.39205 0.31913 0.80116 0.0
H752 H 0.37737 0.32578 0.71549 0.0
H753 H 0.33509 0.3387 0.76696 0.0
H754 H 0.32182 0.39211 0.55161 0.0
H755 H 0.32891 0.37694 0.63437 0.0
C756 C 0.16133 0.40812 0.11876 0.0
C757 C 0.14459 0.40166 0.14773 0.0
C758 C 0.17293 0.40208 0.13781 0.0
C759 C 0.18592 0.3876 0.27781 0.0
H760 H 0.21702 0.38139 0.16133 0.0
C761 C 0.25265 0.39104 0.35642 0.0
C762 C 0.26725 0.40342 0.32004 0.0
C763 C 0.23495 0.38505 0.33622 0.0
C764 C 0.20839 0.38297 0.19462 0.0
H765 H 0.1266 0.38371 0.21875 0.0
H766 H 0.14719 0.37328 0.25346 0.0
H767 H 0.19015 0.381 0.12238 0.0
H768 H 0.27484 0.41843 0.23279 0.0
H769 H 0.24442 0.40798 0.19769 0.0
H770 H 0.20481 0.39068 0.34951 0.0
C771 C 0.15116 0.38278 0.21509 0.0
C772 C 0.19299 0.38272 0.17228 0.0
C773 C 0.13933 0.38858 0.19491 0.0
C774 C 0.26387 0.40899 0.26214 0.0
C775 C 0.24638 0.40285 0.24166 0.0
C776 C 0.20143 0.38793 0.30022 0.0
C777 C 0.16823 0.38973 0.18739 0.0
C778 C 0.18198 0.38578 0.21316 0.0
C779 C 0.23166 0.39104 0.27872 0.0
C780 C 0.21325 0.3864 0.25836 0.0
H781 H 0.16575 0.41841 0.08292 0.0
H782 H 0.18605 0.40791 0.1161 0.0
H783 H 0.17776 0.39009 0.31046 0.0
H784 H 0.2549 0.38658 0.40134 0.0
H785 H 0.22388 0.37594 0.36579 0.0
C786 C 0.75982 0.1428 0.309 0.0
C787 C 0.74539 0.14171 0.3435 0.0
C788 C 0.77758 0.15449 0.32831 0.0
C789 C 0.80489 0.18333 0.46305 0.0
H790 H 0.83462 0.2162 0.33282 0.0
C791 C 0.8673 0.25204 0.52306 0.0
C792 C 0.8669 0.26624 0.49197 0.0
C793 C 0.85607 0.23426 0.50312 0.0
C794 C 0.82657 0.20706 0.36978 0.0
H795 H 0.73813 0.15091 0.42733 0.0
H796 H 0.76866 0.171 0.46066 0.0
H797 H 0.80751 0.18857 0.30395 0.0
H798 H 0.85535 0.27308 0.41349 0.0
H799 H 0.83606 0.24254 0.37923 0.0
H800 H 0.82325 0.20248 0.52905 0.0
C801 C 0.76655 0.163 0.41892 0.0
C802 C 0.81111 0.19109 0.35315 0.0
C803 C 0.74898 0.1516 0.39934 0.0
C804 C 0.85584 0.26243 0.43899 0.0
C805 C 0.84489 0.24486 0.41876 0.0
C806 C 0.82034 0.19933 0.47969 0.0
C807 C 0.78113 0.16499 0.38299 0.0
C808 C 0.79962 0.17943 0.3997 0.0
C809 C 0.84456 0.23048 0.45109 0.0
C810 C 0.83091 0.21178 0.43334 0.0
H811 H 0.75741 0.1353 0.26579 0.0
H812 H 0.78851 0.15564 0.29973 0.0
H813 H 0.79652 0.17447 0.50009 0.0
H814 H 0.87574 0.2546 0.56395 0.0
H815 H 0.85617 0.22347 0.52894 0.0
C816 C 0.60035 0.84393 0.74743 0.0
C817 C 0.60577 0.86032 0.71718 0.0
C818 C 0.60416 0.83136 0.72119 0.0
C819 C 0.62749 0.82159 0.59261 0.0
H820 H 0.58288 0.77615 0.59107 0.0
C821 C 0.61552 0.75242 0.49134 0.0
C822 C 0.59906 0.74233 0.45988 0.0
C823 C 0.61986 0.76892 0.5192 0.0
C824 C 0.59545 0.78874 0.59085 0.0
H825 H 0.62035 0.87697 0.6379 0.0
H826 H 0.62678 0.85475 0.59086 0.0
H827 H 0.58494 0.80086 0.65174 0.0
H828 H 0.57511 0.74221 0.42784 0.0
H829 H 0.58278 0.7709 0.47484 0.0
H830 H 0.63772 0.80912 0.53004 0.0
C831 C 0.61992 0.85177 0.63568 0.0
C832 C 0.59673 0.80289 0.62643 0.0
C833 C 0.61632 0.86453 0.66266 0.0
C834 C 0.58781 0.74964 0.45226 0.0
C835 C 0.59216 0.76603 0.47947 0.0
C836 C 0.62624 0.80722 0.55709 0.0
C837 C 0.61307 0.83469 0.66312 0.0
C838 C 0.61269 0.81955 0.62768 0.0
C839 C 0.6078 0.77547 0.51571 0.0
C840 C 0.61006 0.79074 0.55513 0.0
H841 H 0.59211 0.84037 0.78933 0.0
H842 H 0.59905 0.81851 0.74437 0.0
H843 H 0.63997 0.83425 0.5926 0.0
H844 H 0.62434 0.74697 0.4984 0.0
H845 H 0.632 0.77592 0.54687 0.0
C846 C 0.75867 0.59821 0.88542 0.0
C847 C 0.74847 0.6048 0.85665 0.0
C848 C 0.77639 0.60441 0.86727 0.0
C849 C 0.80449 0.61998 0.72883 0.0
H850 H 0.84105 0.62469 0.84632 0.0
C851 C 0.86815 0.61696 0.65144 0.0
C852 C 0.8699 0.60401 0.68602 0.0
C853 C 0.85634 0.62279 0.67193 0.0
C854 C 0.83106 0.62355 0.81277 0.0
H855 H 0.74873 0.62327 0.78713 0.0
H856 H 0.77994 0.63403 0.75402 0.0
H857 H 0.81455 0.62506 0.88502 0.0
H858 H 0.86147 0.58772 0.77043 0.0
H859 H 0.84137 0.59794 0.80614 0.0
H860 H 0.82058 0.61742 0.65699 0.0
C861 C 0.77424 0.62425 0.79148 0.0
C862 C 0.81589 0.62378 0.83496 0.0
C863 C 0.7565 0.61826 0.81077 0.0
C864 C 0.86033 0.59763 0.74246 0.0
C865 C 0.8489 0.60362 0.76331 0.0
C866 C 0.81971 0.61971 0.70656 0.0
C867 C 0.78425 0.61711 0.81882 0.0
C868 C 0.80206 0.62122 0.79363 0.0
C869 C 0.84651 0.61607 0.72804 0.0
C870 C 0.83276 0.62069 0.74871 0.0
H871 H 0.75266 0.58765 0.92032 0.0
H872 H 0.78359 0.59843 0.88868 0.0
H873 H 0.79403 0.61789 0.69581 0.0
H874 H 0.87535 0.62206 0.60767 0.0
H875 H 0.85477 0.6324 0.64375 0.0
C876 C 0.2557 0.86568 0.81854 0.0
C877 C 0.2699 0.86641 0.85356 0.0
C878 C 0.23782 0.85334 0.83461 0.0
C879 C 0.20944 0.82222 0.96286 0.0
H880 H 0.18026 0.792 0.82631 0.0
C881 C 0.14471 0.75406 0.00901 0.0
C882 C 0.14449 0.73995 0.97512 0.0
C883 C 0.15686 0.77197 0.99273 0.0
C884 C 0.18816 0.80039 0.86504 0.0
H885 H 0.2765 0.85562 0.93491 0.0
H886 H 0.24575 0.83439 0.96248 0.0
H887 H 0.20803 0.81967 0.80298 0.0
H888 H 0.15601 0.73352 0.89557 0.0
H889 H 0.1769 0.76431 0.86764 0.0
H890 H 0.1902 0.80232 0.02496 0.0
C891 C 0.24817 0.8432 0.92283 0.0
C892 C 0.20401 0.81637 0.8516 0.0
C893 C 0.26588 0.85528 0.90648 0.0
C894 C 0.15595 0.74407 0.92313 0.0
C895 C 0.16784 0.7618 0.90655 0.0
C896 C 0.1936 0.80622 0.9763 0.0
C897 C 0.23387 0.84178 0.88657 0.0
C898 C 0.21524 0.82711 0.90039 0.0
C899 C 0.16873 0.77602 0.94166 0.0
C900 C 0.18316 0.79473 0.92756 0.0
H901 H 0.25841 0.87412 0.77758 0.0
H902 H 0.2271 0.85265 0.80585 0.0
H903 H 0.21761 0.83035 0.00161 0.0
H904 H 0.13601 0.75128 0.04924 0.0
H905 H 0.15716 0.78263 0.02061 0.0
C906 C 0.40011 0.14093 0.08323 0.0
C907 C 0.40266 0.13839 0.14666 0.0
C908 C 0.39496 0.15334 0.06571 0.0
C909 C 0.3809 0.18531 0.12871 0.0
H910 H 0.40618 0.21261 0.98091 0.0
C911 C 0.40229 0.25942 0.08709 0.0
C912 C 0.40176 0.26531 0.02598 0.0
C913 C 0.39728 0.24156 0.09858 0.0
C914 C 0.39871 0.20494 0.02155 0.0
H915 H 0.40129 0.14626 0.24191 0.0
H916 H 0.393 0.16859 0.2117 0.0
H917 H 0.40715 0.18575 0.00786 0.0
H918 H 0.39484 0.25702 0.92924 0.0
H919 H 0.38637 0.22561 0.94905 0.0
H920 H 0.37352 0.20543 0.14404 0.0
C921 C 0.39437 0.16063 0.17515 0.0
C922 C 0.39921 0.18942 0.03716 0.0
C923 C 0.39914 0.14784 0.19272 0.0
C924 C 0.39525 0.25278 0.97683 0.0
C925 C 0.39054 0.23488 0.98815 0.0
C926 C 0.38062 0.20101 0.11347 0.0
C927 C 0.39278 0.16398 0.11116 0.0
C928 C 0.39057 0.17949 0.09157 0.0
C929 C 0.39191 0.22919 0.04899 0.0
C930 C 0.38979 0.21117 0.06028 0.0
H931 H 0.40273 0.13371 0.04689 0.0
H932 H 0.39333 0.15503 0.01619 0.0
H933 H 0.37378 0.17792 0.17024 0.0
H934 H 0.40723 0.26882 0.12589 0.0
H935 H 0.39865 0.23769 0.1458 0.0
C936 C 0.08371 0.40304 0.40004 0.0
C937 C 0.09508 0.40275 0.3532 0.0
C938 C 0.08824 0.40383 0.46344 0.0
C939 C 0.12735 0.41988 0.56505 0.0
H940 H 0.09236 0.39263 0.69399 0.0
C941 C 0.12208 0.40865 0.8513 0.0
C942 C 0.12968 0.42653 0.87165 0.0
C943 C 0.11935 0.40447 0.78747 0.0
C944 C 0.10233 0.40018 0.65845 0.0
H945 H 0.11959 0.40195 0.33677 0.0
H946 H 0.12761 0.40371 0.44732 0.0
H947 H 0.08382 0.38676 0.58338 0.0
H948 H 0.14113 0.45408 0.84003 0.0
H949 H 0.13664 0.44676 0.72877 0.0
H950 H 0.14575 0.43357 0.6402 0.0
C951 C 0.11533 0.40355 0.43474 0.0
C952 C 0.09739 0.39693 0.59528 0.0
C953 C 0.11075 0.40262 0.37142 0.0
C954 C 0.13539 0.4402 0.82632 0.0
C955 C 0.13279 0.43601 0.76244 0.0
C956 C 0.13224 0.42325 0.62826 0.0
C957 C 0.10425 0.40443 0.48129 0.0
C958 C 0.1098 0.40689 0.54803 0.0
C959 C 0.12435 0.41807 0.74254 0.0
C960 C 0.11972 0.41356 0.67554 0.0
H961 H 0.07165 0.40331 0.38786 0.0
H962 H 0.07953 0.40466 0.49838 0.0
H963 H 0.13713 0.42785 0.52956 0.0
H964 H 0.11793 0.39781 0.88467 0.0
H965 H 0.11308 0.39055 0.77327 0.0
C966 C 0.71525 0.14449 0.0055 0.0
C967 C 0.70965 0.12923 0.04333 0.0
C968 C 0.71812 0.14377 0.94123 0.0
C969 C 0.72373 0.1161 0.81959 0.0
H970 H 0.69995 0.13396 0.71087 0.0
C971 C 0.69852 0.08835 0.57268 0.0
C972 C 0.70081 0.10052 0.52477 0.0
C973 C 0.70289 0.09419 0.63461 0.0
C974 C 0.70693 0.12917 0.7405 0.0
H975 H 0.70278 0.10129 0.04331 0.0
H976 H 0.70772 0.10005 0.93207 0.0
H977 H 0.70257 0.14068 0.82278 0.0
H978 H 0.71021 0.12854 0.50397 0.0
H979 H 0.71748 0.13862 0.61224 0.0
H980 H 0.72739 0.10395 0.73749 0.0
C981 C 0.7103 0.11269 0.95199 0.0
C982 C 0.70848 0.13308 0.80452 0.0
C983 C 0.70744 0.1134 0.01594 0.0
C984 C 0.70779 0.11871 0.53992 0.0
C985 C 0.7121 0.12453 0.60185 0.0
C986 C 0.7221 0.11213 0.75563 0.0
C987 C 0.71544 0.12778 0.91378 0.0
C988 C 0.71646 0.12616 0.84495 0.0
C989 C 0.70963 0.11232 0.64976 0.0
C990 C 0.71327 0.11825 0.71585 0.0
H991 H 0.71728 0.15692 0.02548 0.0
H992 H 0.72223 0.15565 0.91289 0.0
H993 H 0.73023 0.11086 0.84953 0.0
H994 H 0.69308 0.07426 0.56235 0.0
H995 H 0.70061 0.08444 0.67088 0.0
C996 C 0.61247 0.70128 0.71631 0.0
C997 C 0.60196 0.70247 0.66813 0.0
C998 C 0.61028 0.70506 0.77825 0.0
C999 C 0.57658 0.70405 0.88318 0.0
H1000 H 0.61697 0.72916 -0.0037 0.0
C1001 C 0.56675 0.70668 0.14998 0.0
C1002 C 0.57766 0.70234 0.18658 0.0
C1003 C 0.57038 0.71062 0.08615 0.0
C1004 C 0.60556 0.72213 0.96523 0.0
H1005 H 0.58143 0.70939 0.64705 0.0
H1006 H 0.57735 0.71557 0.75555 0.0
H1007 H 0.6223 0.72884 0.88382 0.0
H1008 H 0.60087 0.69872 0.18491 0.0
H1009 H 0.60711 0.70546 0.07422 0.0
H1010 H 0.55987 0.69662 0.96467 0.0
C1011 C 0.58718 0.71158 0.74517 0.0
C1012 C 0.60861 0.72197 0.901 0.0
C1013 C 0.58944 0.70789 0.68311 0.0
C1014 C 0.59242 0.70234 0.15842 0.0
C1015 C 0.59602 0.70625 0.09486 0.0
C1016 C 0.57352 0.70414 0.94748 0.0
C1017 C 0.59748 0.71005 0.79332 0.0
C1018 C 0.59418 0.71249 0.85967 0.0
C1019 C 0.58497 0.71028 0.05789 0.0
C1020 C 0.58802 0.71272 0.98932 0.0
H1021 H 0.62207 0.69697 0.70643 0.0
H1022 H 0.61819 0.7035 0.81467 0.0
H1023 H 0.56522 0.69653 0.85234 0.0
H1024 H 0.55543 0.70701 0.17064 0.0
H1025 H 0.56172 0.71381 0.05884 0.0
C1026 C 0.89702 0.59536 0.88549 0.0
C1027 C 0.91525 0.60493 0.86889 0.0
C1028 C 0.89189 0.59299 0.94846 0.0
C1029 C 0.90871 0.6097 0.10909 0.0
H1030 H 0.86991 0.56293 0.15857 0.0
C1031 C 0.88114 0.56433 0.34657 0.0
C1032 C 0.88305 0.57755 0.38941 0.0
C1033 C 0.88301 0.5679 0.28223 0.0
C1034 C 0.88081 0.57604 0.14559 0.0
H1035 H 0.94238 0.61973 0.90446 0.0
H1036 H 0.93353 0.61519 0.01499 0.0
H1037 H 0.87805 0.56912 0.04834 0.0
H1038 H 0.88732 0.60445 0.39859 0.0
H1039 H 0.89022 0.61062 0.28599 0.0
H1040 H 0.91209 0.61631 0.20671 0.0
C1041 C 0.92315 0.60983 0.97943 0.0
C1042 C 0.88534 0.57968 0.08224 0.0
C1043 C 0.92825 0.61238 0.9163 0.0
C1044 C 0.88605 0.59413 0.36653 0.0
C1045 C 0.88777 0.59766 0.30214 0.0
C1046 C 0.90427 0.60602 0.17251 0.0
C1047 C 0.9049 0.59998 -0.00375 0.0
C1048 C 0.89947 0.59649 0.06329 0.0
C1049 C 0.88668 0.58473 0.25933 0.0
C1050 C 0.8904 0.58907 0.19157 0.0
H1051 H 0.88671 0.58985 0.84971 0.0
H1052 H 0.87772 0.58569 0.95965 0.0
H1053 H 0.91948 0.62288 0.09606 0.0
H1054 H 0.87907 0.55153 0.36293 0.0
H1055 H 0.88235 0.55772 0.25074 0.0
C1056 C 0.32203 0.87876 0.51752 0.0
C1057 C 0.31054 0.8804 0.56035 0.0
C1058 C 0.32032 0.88065 0.4532 0.0
C1059 C 0.30995 0.87835 0.31664 0.0
H1060 H 0.30088 0.91646 0.2672 0.0
C1061 C 0.30635 0.89422 0.05671 0.0
C1062 C 0.31471 0.9124 0.03994 0.0
C1063 C 0.3037 0.88914 0.11972 0.0
C1064 C 0.30354 0.90585 0.28022 0.0
H1065 H 0.28758 0.88419 0.56958 0.0
H1066 H 0.28428 0.88711 0.45701 0.0
H1067 H 0.30022 0.90912 0.37785 0.0
H1068 H 0.32654 0.9395 0.07507 0.0
H1069 H 0.32245 0.93075 0.18579 0.0
H1070 H 0.31422 0.87572 0.2194 0.0
C1071 C 0.29495 0.88487 0.47315 0.0
C1072 C 0.30288 0.90144 0.34363 0.0
C1073 C 0.29678 0.88314 0.53751 0.0
C1074 C 0.32004 0.92541 0.08715 0.0
C1075 C 0.31759 0.92036 0.15034 0.0
C1076 C 0.31076 0.88286 0.25332 0.0
C1077 C 0.30696 0.88405 0.43035 0.0
C1078 C 0.30628 0.88776 0.36264 0.0
C1079 C 0.30952 0.90215 0.16735 0.0
C1080 C 0.30773 0.89678 0.2344 0.0
H1081 H 0.33291 0.8769 0.53387 0.0
H1082 H 0.32997 0.88021 0.42171 0.0
H1083 H 0.3124 0.86759 0.32959 0.0
H1084 H 0.30171 0.88391 0.02102 0.0
H1085 H 0.29706 0.87499 0.13106 0.0
C1086 C 0.41749 0.29898 0.70501 0.0
C1087 C 0.43426 0.31077 0.73175 0.0
C1088 C 0.41472 0.29937 0.64062 0.0
C1089 C 0.43112 0.33018 0.50769 0.0
H1090 H 0.40391 0.28725 0.40783 0.0
C1091 C 0.4222 0.33198 0.23941 0.0
C1092 C 0.40561 0.31934 0.21341 0.0
C1093 C 0.42581 0.33123 0.30291 0.0
C1094 C 0.41132 0.29936 0.4353 0.0
H1095 H 0.46143 0.33182 0.71186 0.0
H1096 H 0.45663 0.33244 0.59897 0.0
H1097 H 0.41066 0.28462 0.51729 0.0
H1098 H 0.37957 0.29634 0.23467 0.0
H1099 H 0.38564 0.29541 0.34566 0.0
H1100 H 0.43154 0.34494 0.42621 0.0
C1101 C 0.44561 0.32298 0.62805 0.0
C1102 C 0.41526 0.29784 0.49783 0.0
C1103 C 0.44842 0.32248 0.69247 0.0
C1104 C 0.39244 0.30637 0.253 0.0
C1105 C 0.39602 0.30566 0.31655 0.0
C1106 C 0.42709 0.3317 0.44526 0.0
C1107 C 0.42864 0.31165 0.60174 0.0
C1108 C 0.42516 0.31323 0.53465 0.0
C1109 C 0.41287 0.31786 0.34195 0.0
C1110 C 0.41709 0.3163 0.40842 0.0
H1111 H 0.40641 0.28971 0.73418 0.0
H1112 H 0.40147 0.29055 0.62166 0.0
H1113 H 0.43852 0.34226 0.53535 0.0
H1114 H 0.43253 0.34229 0.2104 0.0
H1115 H 0.43895 0.34078 0.32089 0.0
C1116 C 0.5997 0.89341 0.0145 0.0
C1117 C 0.5857 0.87749 0.9891 0.0
C1118 C 0.60404 0.89441 0.07792 0.0
C1119 C 0.58233 0.87416 0.22616 0.0
H1120 H 0.63006 0.90436 0.2942 0.0
C1121 C 0.59326 0.88674 0.48968 0.0
C1122 C 0.60368 0.90483 0.50752 0.0
C1123 C 0.59324 0.88156 0.42782 0.0
C1124 C 0.61668 0.89589 0.27572 0.0
H1125 H 0.56607 0.84982 0.00888 0.0
H1126 H 0.57375 0.85147 0.12016 0.0
H1127 H 0.62628 0.8977 0.18172 0.0
H1128 H 0.62282 0.93151 0.47457 0.0
H1129 H 0.62233 0.92249 0.36554 0.0
H1130 H 0.57264 0.87272 0.31938 0.0
C1131 C 0.58112 0.86328 0.09114 0.0
C1132 C 0.61451 0.89206 0.21153 0.0
C1133 C 0.5767 0.86232 0.02765 0.0
C1134 C 0.61446 0.91754 0.4622 0.0
C1135 C 0.61438 0.91233 0.40001 0.0
C1136 C 0.5845 0.87792 0.29013 0.0
C1137 C 0.59452 0.87948 0.11722 0.0
C1138 C 0.59726 0.88146 0.18597 0.0
C1139 C 0.6035 0.89433 0.38214 0.0
C1140 C 0.60165 0.88909 0.31535 0.0
H1141 H 0.60673 0.9054 0.98613 0.0
H1142 H 0.61421 0.90717 0.09671 0.0
H1143 H 0.56884 0.86625 0.20784 0.0
H1144 H 0.58462 0.87655 0.52282 0.0
H1145 H 0.58487 0.86756 0.41545 0.0
C1146 C 0.70653 0.56826 0.17632 0.0
C1147 C 0.71112 0.58161 0.13029 0.0
C1148 C 0.70869 0.5727 0.23999 0.0
C1149 C 0.70576 0.6036 0.34433 0.0
H1150 H 0.72608 0.58612 0.46938 0.0
C1151 C 0.70019 0.61413 0.60904 0.0
C1152 C 0.69686 0.59972 0.64834 0.0
C1153 C 0.70493 0.61417 0.54624 0.0
C1154 C 0.72019 0.59096 0.43511 0.0
H1155 H 0.72315 0.61039 0.11613 0.0
H1156 H 0.7261 0.61783 0.22709 0.0
H1157 H 0.72955 0.58182 0.358 0.0
H1158 H 0.69536 0.5739 0.65321 0.0
H1159 H 0.70286 0.57352 0.54345 0.0
H1160 H 0.6954 0.61176 0.4206 0.0
C1161 C 0.72075 0.60397 0.21337 0.0
C1162 C 0.72233 0.58861 0.37149 0.0
C1163 C 0.71888 0.59961 0.14972 0.0
C1164 C 0.69815 0.58529 0.62391 0.0
C1165 C 0.70258 0.58517 0.56111 0.0
C1166 C 0.70334 0.60568 0.4079 0.0
C1167 C 0.7153 0.5905 0.2589 0.0
C1168 C 0.7149 0.59468 0.32574 0.0
C1169 C 0.70612 0.59964 0.52148 0.0
C1170 C 0.71025 0.59908 0.45409 0.0
H1171 H 0.70051 0.55429 0.16374 0.0
H1172 H 0.7043 0.56207 0.27451 0.0
H1173 H 0.69974 0.60821 0.30969 0.0
H1174 H 0.69945 0.62548 0.62728 0.0
H1175 H 0.70779 0.62565 0.51732 0.0
C1176 C 0.13271 0.6885 0.30947 0.0
C1177 C 0.13067 0.69964 0.26611 0.0
C1178 C 0.13095 0.69041 0.37374 0.0
C1179 C 0.13335 0.70123 0.50993 0.0
H1180 H 0.09461 0.70943 0.55872 0.0
C1181 C 0.11731 0.70496 0.76974 0.0
C1182 C 0.09908 0.69615 0.78642 0.0
C1183 C 0.1224 0.70765 0.70672 0.0
C1184 C 0.10541 0.70703 0.5459 0.0
H1185 H 0.12633 0.72221 0.25588 0.0
H1186 H 0.12363 0.72585 0.36829 0.0
H1187 H 0.10186 0.70989 0.44811 0.0
H1188 H 0.07192 0.68356 0.75095 0.0
H1189 H 0.08072 0.6878 0.6404 0.0
H1190 H 0.13628 0.69742 0.60744 0.0
C1191 C 0.12607 0.7153 0.35264 0.0
C1192 C 0.10976 0.70757 0.48249 0.0
C1193 C 0.12768 0.71327 0.28835 0.0
C1194 C 0.08605 0.69045 0.73905 0.0
C1195 C 0.09112 0.69297 0.67591 0.0
C1196 C 0.12891 0.70055 0.5733 0.0
C1197 C 0.12728 0.70362 0.396 0.0
C1198 C 0.12365 0.70447 0.4637 0.0
C1199 C 0.10937 0.70145 0.65901 0.0
C1200 C 0.11475 0.70324 0.59198 0.0
H1201 H 0.13479 0.67773 0.29359 0.0
H1202 H 0.13171 0.68102 0.40569 0.0
H1203 H 0.14427 0.69901 0.49714 0.0
H1204 H 0.12764 0.70987 0.80548 0.0
H1205 H 0.13657 0.71459 0.69543 0.0
C1206 C 0.4411 0.14069 0.48071 0.0
C1207 C 0.42986 0.12608 0.4422 0.0
C1208 C 0.43788 0.14009 0.54525 0.0
C1209 C 0.40349 0.11515 0.66698 0.0
H1210 H 0.44438 0.12633 0.77333 0.0
C1211 C 0.39636 0.08536 0.91367 0.0
C1212 C 0.40769 0.09666 0.96104 0.0
C1213 C 0.39876 0.09127 0.85151 0.0
C1214 C 0.43287 0.12343 0.74441 0.0
H1215 H 0.40629 0.09947 0.44164 0.0
H1216 H 0.40072 0.09848 0.55305 0.0
H1217 H 0.449 0.13356 0.66179 0.0
H1218 H 0.42999 0.12327 0.9809 0.0
H1219 H 0.43433 0.13343 0.87243 0.0
H1220 H 0.38731 0.10445 0.74933 0.0
C1221 C 0.41182 0.11054 0.53346 0.0
C1222 C 0.43553 0.12763 0.68063 0.0
C1223 C 0.41506 0.11112 0.46931 0.0
C1224 C 0.42137 0.11403 0.94523 0.0
C1225 C 0.42379 0.11992 0.88318 0.0
C1226 C 0.40084 0.11091 0.73071 0.0
C1227 C 0.42332 0.12488 0.57224 0.0
C1228 C 0.42081 0.12311 0.64105 0.0
C1229 C 0.41253 0.1086 0.83574 0.0
C1230 C 0.41546 0.11462 0.76966 0.0
H1231 H 0.45247 0.15251 0.46115 0.0
H1232 H 0.44688 0.1514 0.57414 0.0
H1233 H 0.39194 0.11178 0.63762 0.0
H1234 H 0.38575 0.07193 0.92474 0.0
H1235 H 0.39004 0.08216 0.81563 0.0
C1236 C 0.29408 0.41299 0.63858 0.0
C1237 C 0.30619 0.43027 0.61633 0.0
C1238 C 0.29234 0.40934 0.70285 0.0
C1239 C 0.30276 0.43038 0.86011 0.0
H1240 H 0.3054 0.38827 0.90803 0.0
C1241 C 0.32283 0.42107 0.10834 0.0
C1242 C 0.31345 0.40396 0.13568 0.0
C1243 C 0.32011 0.42362 0.04552 0.0
C1244 C 0.30437 0.39992 0.89548 0.0
H1245 H 0.32542 0.45745 0.64427 0.0
H1246 H 0.32237 0.45111 0.75646 0.0
H1247 H 0.30307 0.39408 0.79741 0.0
H1248 H 0.29385 0.37606 0.11845 0.0
H1249 H 0.28915 0.3805 0.0083 0.0
H1250 H 0.3044 0.43638 0.9582 0.0
C1251 C 0.3141 0.4404 0.7242 0.0
C1252 C 0.30301 0.40324 0.83213 0.0
C1253 C 0.31585 0.44405 0.65987 0.0
C1254 C 0.30145 0.38937 0.09854 0.0
C1255 C 0.29872 0.39192 0.03555 0.0
C1256 C 0.30411 0.42705 0.92348 0.0
C1257 C 0.30265 0.42291 0.74623 0.0
C1258 C 0.30245 0.41864 0.81374 0.0
C1259 C 0.30795 0.4091 0.00854 0.0
C1260 C 0.30521 0.41193 0.94173 0.0
H1261 H 0.28617 0.40219 0.60624 0.0
H1262 H 0.28315 0.39581 0.71856 0.0
H1263 H 0.3021 0.44222 0.84735 0.0
H1264 H 0.33237 0.43251 0.13552 0.0
H1265 H 0.32771 0.43695 0.02569 0.0
C1266 C 0.89014 0.30193 0.2931 0.0
C1267 C 0.90837 0.30904 0.30843 0.0
C1268 C 0.8844 0.29796 0.23093 0.0
C1269 C 0.89715 0.28937 0.07557 0.0
H1270 H 0.86881 0.30956 0.01152 0.0
C1271 C 0.89615 0.30542 0.81633 0.0
C1272 C 0.88033 0.30331 0.78906 0.0
C1273 C 0.89687 0.30247 0.88023 0.0
C1274 C 0.87637 0.30347 0.02885 0.0
H1275 H 0.93475 0.31721 0.2708 0.0
H1276 H 0.9247 0.3102 0.162 0.0
H1277 H 0.87525 0.31114 0.12357 0.0
H1278 H 0.85272 0.296 0.80718 0.0
H1279 H 0.85398 0.29084 0.91971 0.0
H1280 H 0.89861 0.28204 0.98075 0.0
C1281 C 0.91487 0.30759 0.19829 0.0
C1282 C 0.8801 0.30443 0.09297 0.0
C1283 C 0.92063 0.31165 0.26046 0.0
C1284 C 0.86513 0.29789 0.82707 0.0
C1285 C 0.86585 0.29492 0.89131 0.0
C1286 C 0.89334 0.28832 0.01154 0.0
C1287 C 0.89673 0.30088 0.18293 0.0
C1288 C 0.89094 0.29783 0.11658 0.0
C1289 C 0.8818 0.29734 0.91857 0.0
C1290 C 0.88336 0.29584 0.98728 0.0
H1291 H 0.88023 0.29926 0.32904 0.0
H1292 H 0.87031 0.29258 0.22038 0.0
H1293 H 0.90527 0.2839 0.09285 0.0
H1294 H 0.90823 0.30998 0.78883 0.0
H1295 H 0.9095 0.30489 0.89997 0.0
loop_
_geom_bond_atom_site_label_1
_geom_bond_atom_site_label_2
_geom_bond_distance
_geom_bond_site_symmetry_2
_ccdc_geom_bond_type
C0 C1 1.351 . S
C0 N3 1.368 . S
C0 H5 0.931 . S
C1 C0 1.351 . S
C1 N2 1.373 . S
C1 H29 0.930 . S
N2 C1 1.373 . S
N2 C4 1.340 . S
N3 C0 1.368 . S
N3 C4 1.321 . S
N3 Co6 2.135 1_556 S
C4 N2 1.340 . S
C4 N3 1.321 . S
C4 H28 0.930 . S
H5 C0 0.931 . S
Co6 N3 2.135 1_554 S
Co6 N9 2.121 . S
Co6 O14 2.055 . S
Co6 O17 2.039 . S
Co6 N20 2.140 . S
C7 O8 1.229 . S
C7 O17 1.265 . S
O8 C7 1.229 . S
N9 Co6 2.121 . S
N9 C11 1.375 . S
N9 C12 1.313 . S
C10 C11 1.338 . S
C10 N13 1.377 . S
C10 H30 0.930 . S
C11 N9 1.375 . S
C11 C10 1.338 . S
C11 H15 0.931 . S
C12 N9 1.313 . S
C12 N13 1.344 . S
C12 H16 0.930 . S
N13 C10 1.377 . S
N13 C12 1.344 . S
O14 Co6 2.055 . S
O14 C18 1.253 . S
H15 C11 0.931 . S
H16 C12 0.930 . S
O17 Co6 2.039 . S
O17 C7 1.265 . S
C18 O14 1.253 . S
C18 O19 1.227 . S
O19 C18 1.227 . S
N20 Co6 2.140 . S
N20 C23 1.346 . S
N20 C24 1.345 . S
C21 C22 1.387 . S
C21 C25 1.391 . S
C22 C21 1.387 . S
C22 C23 1.369 . S
C22 H31 0.929 1_554 S
C23 N20 1.346 . S
C23 C22 1.369 . S
C23 H26 0.928 1_554 S
C24 N20 1.345 . S
C24 C25 1.371 . S
C24 H27 0.931 . S
C25 C21 1.391 . S
C25 C24 1.371 . S
C25 H32 0.930 . S
H26 C23 0.928 1_556 S
H27 C24 0.931 . S
H28 C4 0.930 . S
H29 C1 0.930 . S
H30 C10 0.930 . S
H31 C22 0.929 1_556 S
H32 C25 0.930 . S
C33 C34 1.351 . S
C33 N36 1.368 . S
C33 H38 0.931 . S
C34 C33 1.351 . S
C34 N35 1.373 . S
C34 H62 0.930 . S
N35 C34 1.373 . S
N35 C37 1.340 . S
N36 C33 1.368 . S
N36 C37 1.321 . S
N36 Co39 2.135 . S
C37 N35 1.340 . S
C37 N36 1.321 . S
C37 H61 0.930 . S
H38 C33 0.931 . S
Co39 N36 2.135 . S
Co39 N42 2.121 . S
Co39 O47 2.055 . S
Co39 O50 2.039 . S
Co39 N53 2.140 . S
C40 O41 1.227 . S
C40 O50 1.265 . S
O41 C40 1.227 . S
N42 Co39 2.121 . S
N42 C44 1.375 . S
N42 C45 1.313 . S
C43 C44 1.338 . S
C43 N46 1.377 . S
C43 H63 0.930 . S
C44 N42 1.375 . S
C44 C43 1.338 . S
C44 H48 0.931 . S
C45 N42 1.313 . S
C45 N46 1.344 . S
C45 H49 0.930 . S
N46 C43 1.377 . S
N46 C45 1.344 . S
O47 Co39 2.055 . S
O47 C51 1.253 . S
H48 C44 0.931 . S
H49 C45 0.930 . S
O50 Co39 2.039 . S
O50 C40 1.265 . S
C51 O47 1.253 . S
C51 O52 1.227 . S
O52 C51 1.227 . S
N53 Co39 2.140 . S
N53 C56 1.346 . S
N53 C57 1.345 . S
C54 C55 1.387 . S
C54 C58 1.391 . S
C55 C54 1.387 . S
C55 C56 1.369 . S
C55 H64 0.929 . S
C56 N53 1.346 . S
C56 C55 1.369 . S
C56 H59 0.928 . S
C57 N53 1.345 . S
C57 C58 1.371 . S
C57 H60 0.931 . S
C58 C54 1.391 . S
C58 C57 1.371 . S
C58 H65 0.930 . S
H59 C56 0.928 . S
H60 C57 0.931 . S
H61 C37 0.930 . S
H62 C34 0.930 . S
H63 C43 0.930 . S
H64 C55 0.929 . S
H65 C58 0.930 . S
C66 C67 1.351 . S
C66 N69 1.368 . S
C66 H71 0.931 . S
C67 C66 1.351 . S
C67 N68 1.373 . S
C67 H95 0.930 . S
N68 C67 1.373 . S
N68 C70 1.340 . S
N69 C66 1.368 . S
N69 C70 1.321 . S
N69 Co72 2.135 . S
C70 N68 1.340 . S
C70 N69 1.321 . S
C70 H94 0.930 . S
H71 C66 0.931 . S
Co72 N69 2.135 . S
Co72 N75 2.121 . S
Co72 O80 2.055 . S
Co72 O83 2.039 . S
Co72 N86 2.140 . S
C73 O74 1.227 . S
C73 O83 1.265 . S
O74 C73 1.227 . S
N75 Co72 2.121 . S
N75 C77 1.375 . S
N75 C78 1.313 . S
C76 C77 1.338 . S
C76 N79 1.377 . S
C76 H96 0.930 . S
C77 N75 1.375 . S
C77 C76 1.338 . S
C77 H81 0.931 . S
C78 N75 1.313 . S
C78 N79 1.344 . S
C78 H82 0.930 . S
N79 C76 1.377 . S
N79 C78 1.344 . S
O80 Co72 2.055 . S
O80 C84 1.253 . S
H81 C77 0.931 . S
H82 C78 0.930 . S
O83 Co72 2.039 . S
O83 C73 1.265 . S
C84 O80 1.253 . S
C84 O85 1.227 . S
O85 C84 1.227 . S
N86 Co72 2.140 . S
N86 C89 1.346 . S
N86 C90 1.345 . S
C87 C88 1.387 . S
C87 C91 1.391 . S
C88 C87 1.387 . S
C88 C89 1.369 . S
C88 H97 0.929 . S
C89 N86 1.346 . S
C89 C88 1.369 . S
C89 H92 0.928 . S
C90 N86 1.345 . S
C90 C91 1.371 . S
C90 H93 0.931 . S
C91 C87 1.391 . S
C91 C90 1.371 . S
C91 H98 0.930 . S
H92 C89 0.928 . S
H93 C90 0.931 . S
H94 C70 0.930 . S
H95 C67 0.930 . S
H96 C76 0.930 . S
H97 C88 0.929 . S
H98 C91 0.930 . S
C99 C100 1.351 . S
C99 N102 1.368 . S
C99 H104 0.931 . S
C100 C99 1.351 . S
C100 N101 1.373 . S
C100 H128 0.930 . S
N101 C100 1.373 . S
N101 C103 1.340 . S
N102 C99 1.368 . S
N102 C103 1.321 . S
N102 Co105 2.135 . S
C103 N101 1.340 . S
C103 N102 1.321 . S
C103 H127 0.930 . S
H104 C99 0.931 . S
Co105 N102 2.135 . S
Co105 N108 2.121 . S
Co105 O113 2.055 . S
Co105 O116 2.039 . S
Co105 N119 2.140 . S
C106 O107 1.227 . S
C106 O116 1.265 . S
O107 C106 1.227 . S
N108 Co105 2.121 . S
N108 C110 1.375 . S
N108 C111 1.313 . S
C109 C110 1.338 . S
C109 N112 1.377 . S
C109 H129 0.930 . S
C110 N108 1.375 . S
C110 C109 1.338 . S
C110 H114 0.931 . S
C111 N108 1.313 . S
C111 N112 1.344 . S
C111 H115 0.930 . S
N112 C109 1.377 . S
N112 C111 1.344 . S
O113 Co105 2.055 . S
O113 C117 1.253 . S
H114 C110 0.931 . S
H115 C111 0.930 . S
O116 Co105 2.039 . S
O116 C106 1.265 . S
C117 O113 1.253 . S
C117 O118 1.227 . S
O118 C117 1.227 . S
N119 Co105 2.140 . S
N119 C122 1.346 . S
N119 C123 1.345 . S
C120 C121 1.387 . S
C120 C124 1.391 . S
C121 C120 1.387 . S
C121 C122 1.369 . S
C121 H130 0.929 . S
C122 N119 1.346 . S
C122 C121 1.369 . S
C122 H125 0.928 . S
C123 N119 1.345 . S
C123 C124 1.371 . S
C123 H126 0.931 . S
C124 C120 1.391 . S
C124 C123 1.371 . S
C124 H131 0.930 . S
H125 C122 0.928 . S
H126 C123 0.931 . S
H127 C103 0.930 . S
H128 C100 0.930 . S
H129 C109 0.930 . S
H130 C121 0.929 . S
H131 C124 0.930 . S
C132 C133 1.351 . S
C132 N135 1.368 . S
C132 H137 0.931 . S
C133 C132 1.351 . S
C133 N134 1.373 . S
C133 H161 0.930 . S
N134 C133 1.373 . S
N134 C136 1.340 . S
N135 C132 1.368 . S
N135 C136 1.321 . S
N135 Co138 2.135 . S
C136 N134 1.340 . S
C136 N135 1.321 . S
C136 H160 0.930 . S
H137 C132 0.931 . S
Co138 N135 2.135 . S
Co138 N141 2.121 . S
Co138 O146 2.055 . S
Co138 O149 2.039 . S
Co138 N152 2.140 . S
C139 O140 1.227 . S
C139 O149 1.265 . S
O140 C139 1.227 . S
N141 Co138 2.121 . S
N141 C143 1.375 . S
N141 C144 1.313 . S
C142 C143 1.338 . S
C142 N145 1.377 . S
C142 H162 0.930 . S
C143 N141 1.375 . S
C143 C142 1.338 . S
C143 H147 0.931 . S
C144 N141 1.313 . S
C144 N145 1.344 . S
C144 H148 0.930 . S
N145 C142 1.377 . S
N145 C144 1.344 . S
O146 Co138 2.055 . S
O146 C150 1.253 . S
H147 C143 0.931 . S
H148 C144 0.930 . S
O149 Co138 2.039 . S
O149 C139 1.265 . S
C150 O146 1.253 . S
C150 O151 1.227 . S
O151 C150 1.227 . S
N152 Co138 2.140 . S
N152 C155 1.346 . S
N152 C156 1.345 . S
C153 C154 1.387 . S
C153 C157 1.391 . S
C154 C153 1.387 . S
C154 C155 1.369 . S
C154 H163 0.929 . S
C155 N152 1.346 . S
C155 C154 1.369 . S
C155 H158 0.928 . S
C156 N152 1.345 . S
C156 C157 1.371 . S
C156 H159 0.931 . S
C157 C153 1.391 . S
C157 C156 1.371 . S
C157 H164 0.930 . S
H158 C155 0.928 . S
H159 C156 0.931 . S
H160 C136 0.930 . S
H161 C133 0.930 . S
H162 C142 0.930 . S
H163 C154 0.929 . S
H164 C157 0.930 . S
C165 C166 1.351 . S
C165 N168 1.368 . S
C165 H170 0.931 . S
C166 C165 1.351 . S
C166 N167 1.373 . S
C166 H194 0.930 . S
N167 C166 1.373 . S
N167 C169 1.340 . S
N168 C165 1.368 . S
N168 C169 1.321 . S
N168 Co171 2.135 . S
C169 N167 1.340 . S
C169 N168 1.321 . S
C169 H193 0.930 . S
H170 C165 0.931 . S
Co171 N168 2.135 . S
Co171 N174 2.121 . S
Co171 O179 2.055 . S
Co171 O182 2.039 . S
Co171 N185 2.140 . S
C172 O173 1.227 . S
C172 O182 1.265 . S
O173 C172 1.227 . S
N174 Co171 2.121 . S
N174 C176 1.375 1_556 S
N174 C177 1.313 1_556 S
C175 C176 1.338 . S
C175 N178 1.377 . S
C175 H195 0.930 . S
C176 N174 1.375 1_554 S
C176 C175 1.338 . S
C176 H180 0.931 1_554 S
C177 N174 1.313 1_554 S
C177 N178 1.344 . S
C177 H181 0.930 . S
N178 C175 1.377 . S
N178 C177 1.344 . S
O179 Co171 2.055 . S
O179 C183 1.253 . S
H180 C176 0.931 1_556 S
H181 C177 0.930 . S
O182 Co171 2.039 . S
O182 C172 1.265 . S
C183 O179 1.253 . S
C183 O184 1.227 . S
O184 C183 1.227 . S
N185 Co171 2.140 . S
N185 C188 1.346 . S
N185 C189 1.345 . S
C186 C187 1.387 . S
C186 C190 1.391 . S
C187 C186 1.387 . S
C187 C188 1.369 . S
C187 H196 0.929 . S
C188 N185 1.346 . S
C188 C187 1.369 . S
C188 H191 0.928 . S
C189 N185 1.345 . S
C189 C190 1.371 . S
C189 H192 0.931 . S
C190 C186 1.391 . S
C190 C189 1.371 . S
C190 H197 0.930 . S
H191 C188 0.928 . S
H192 C189 0.931 . S
H193 C169 0.930 . S
H194 C166 0.930 . S
H195 C175 0.930 . S
H196 C187 0.929 . S
H197 C190 0.930 . S
C198 C199 1.351 . S
C198 N201 1.368 . S
C198 H203 0.931 . S
C199 C198 1.351 . S
C199 N200 1.373 . S
C199 H227 0.930 . S
N200 C199 1.373 . S
N200 C202 1.340 . S
N201 C198 1.368 . S
N201 C202 1.321 . S
N201 Co204 2.135 . S
C202 N200 1.340 . S
C202 N201 1.321 . S
C202 H226 0.930 . S
H203 C198 0.931 . S
Co204 N201 2.135 . S
Co204 N207 2.121 . S
Co204 O212 2.055 . S
Co204 O215 2.039 . S
Co204 N218 2.140 . S
C205 O206 1.227 . S
C205 O215 1.265 . S
O206 C205 1.227 . S
N207 Co204 2.121 . S
N207 C209 1.375 . S
N207 C210 1.313 . S
C208 C209 1.338 . S
C208 N211 1.377 . S
C208 H228 0.930 . S
C209 N207 1.375 . S
C209 C208 1.338 . S
C209 H213 0.931 . S
C210 N207 1.313 . S
C210 N211 1.344 . S
C210 H214 0.930 . S
N211 C208 1.377 . S
N211 C210 1.344 . S
O212 Co204 2.055 . S
O212 C216 1.253 . S
H213 C209 0.931 . S
H214 C210 0.930 . S
O215 Co204 2.039 . S
O215 C205 1.265 . S
C216 O212 1.253 . S
C216 O217 1.227 . S
O217 C216 1.227 . S
N218 Co204 2.140 . S
N218 C221 1.346 . S
N218 C222 1.345 . S
C219 C220 1.387 . S
C219 C223 1.391 . S
C220 C219 1.387 . S
C220 C221 1.369 . S
C220 H229 0.929 . S
C221 N218 1.346 . S
C221 C220 1.369 . S
C221 H224 0.928 . S
C222 N218 1.345 . S
C222 C223 1.371 . S
C222 H225 0.931 . S
C223 C219 1.391 . S
C223 C222 1.371 . S
C223 H230 0.930 . S
H224 C221 0.928 . S
H225 C222 0.931 . S
H226 C202 0.930 . S
H227 C199 0.930 . S
H228 C208 0.930 . S
H229 C220 0.929 . S
H230 C223 0.930 . S
C231 C232 1.351 . S
C231 N234 1.368 . S
C231 H236 0.931 . S
C232 C231 1.351 . S
C232 N233 1.373 . S
C232 H260 0.930 . S
N233 C232 1.373 . S
N233 C235 1.340 . S
N234 C231 1.368 . S
N234 C235 1.321 . S
N234 Co237 2.135 1_554 S
C235 N233 1.340 . S
C235 N234 1.321 . S
C235 H259 0.930 . S
H236 C231 0.931 . S
Co237 N234 2.135 1_556 S
Co237 N240 2.121 . S
Co237 O245 2.055 . S
Co237 O248 2.039 . S
Co237 N251 2.140 . S
C238 O239 1.224 1_556 S
C238 O248 1.270 . S
O239 C238 1.224 1_554 S
N240 Co237 2.121 . S
N240 C242 1.375 . S
N240 C243 1.313 . S
C241 C242 1.338 . S
C241 N244 1.377 . S
C241 H261 0.930 . S
C242 N240 1.375 . S
C242 C241 1.338 . S
C242 H246 0.931 . S
C243 N240 1.313 . S
C243 N244 1.344 . S
C243 H247 0.930 . S
N244 C241 1.377 . S
N244 C243 1.344 . S
O245 Co237 2.055 . S
O245 C249 1.253 . S
H246 C242 0.931 . S
H247 C243 0.930 . S
O248 Co237 2.039 . S
O248 C238 1.270 . S
C249 O245 1.253 . S
C249 O250 1.227 . S
O250 C249 1.227 . S
N251 Co237 2.140 . S
N251 C254 1.346 1_556 S
N251 C255 1.345 . S
C252 C253 1.387 1_556 S
C252 C256 1.391 . S
C253 C252 1.387 1_554 S
C253 C254 1.369 . S
C253 H262 0.929 . S
C254 N251 1.346 1_554 S
C254 C253 1.369 . S
C254 H257 0.928 . S
C255 N251 1.345 . S
C255 C256 1.371 . S
C255 H258 0.931 . S
C256 C252 1.391 . S
C256 C255 1.371 . S
C256 H263 0.930 . S
H257 C254 0.928 . S
H258 C255 0.931 . S
H259 C235 0.930 . S
H260 C232 0.930 . S
H261 C241 0.930 . S
H262 C253 0.929 . S
H263 C256 0.930 . S
C264 C265 1.351 . S
C264 N267 1.368 . S
C264 H269 0.931 . S
C265 C264 1.351 . S
C265 N266 1.373 . S
C265 H293 0.930 . S
N266 C265 1.373 . S
N266 C268 1.340 . S
N267 C264 1.368 . S
N267 C268 1.321 . S
N267 Co270 2.135 . S
C268 N266 1.340 . S
C268 N267 1.321 . S
C268 H292 0.930 . S
H269 C264 0.931 . S
Co270 N267 2.135 . S
Co270 N273 2.121 . S
Co270 O278 2.055 . S
Co270 O281 2.039 . S
Co270 N284 2.140 . S
C271 O272 1.227 . S
C271 O281 1.265 . S
O272 C271 1.227 . S
N273 Co270 2.121 . S
N273 C275 1.375 . S
N273 C276 1.313 1_554 S
C274 C275 1.338 1_556 S
C274 N277 1.377 . S
C274 H294 0.930 . S
C275 N273 1.375 . S
C275 C274 1.338 1_554 S
C275 H279 0.931 . S
C276 N273 1.313 1_556 S
C276 N277 1.344 . S
C276 H280 0.930 . S
N277 C274 1.377 . S
N277 C276 1.344 . S
O278 Co270 2.055 . S
O278 C282 1.253 . S
H279 C275 0.931 . S
H280 C276 0.930 . S
O281 Co270 2.039 . S
O281 C271 1.265 . S
C282 O278 1.253 . S
C282 O283 1.227 . S
O283 C282 1.227 . S
N284 Co270 2.140 . S
N284 C287 1.346 . S
N284 C288 1.345 . S
C285 C286 1.387 . S
C285 C289 1.391 . S
C286 C285 1.387 . S
C286 C287 1.369 . S
C286 H295 0.929 . S
C287 N284 1.346 . S
C287 C286 1.369 . S
C287 H290 0.928 . S
C288 N284 1.345 . S
C288 C289 1.371 . S
C288 H291 0.931 . S
C289 C285 1.391 . S
C289 C288 1.371 . S
C289 H296 0.930 . S
H290 C287 0.928 . S
H291 C288 0.931 . S
H292 C268 0.930 . S
H293 C265 0.930 . S
H294 C274 0.930 . S
H295 C286 0.929 . S
H296 C289 0.930 . S
C297 C298 1.351 . S
C297 N300 1.368 . S
C297 H302 0.931 . S
C298 C297 1.351 . S
C298 N299 1.373 . S
C298 H326 0.930 . S
N299 C298 1.373 . S
N299 C301 1.340 . S
N300 C297 1.368 . S
N300 C301 1.321 . S
N300 Co303 2.135 . S
C301 N299 1.340 . S
C301 N300 1.321 . S
C301 H325 0.930 . S
H302 C297 0.931 . S
Co303 N300 2.135 . S
Co303 N306 2.121 . S
Co303 O311 2.055 . S
Co303 O314 2.039 . S
Co303 N317 2.140 . S
C304 O305 1.227 . S
C304 O314 1.265 . S
O305 C304 1.227 . S
N306 Co303 2.121 . S
N306 C308 1.375 . S
N306 C309 1.313 . S
C307 C308 1.338 . S
C307 N310 1.377 . S
C307 H327 0.930 . S
C308 N306 1.375 . S
C308 C307 1.338 . S
C308 H312 0.931 . S
C309 N306 1.313 . S
C309 N310 1.344 . S
C309 H313 0.930 . S
N310 C307 1.377 . S
N310 C309 1.344 . S
O311 Co303 2.055 . S
O311 C315 1.253 . S
H312 C308 0.931 . S
H313 C309 0.930 . S
O314 Co303 2.039 . S
O314 C304 1.265 . S
C315 O311 1.253 . S
C315 O316 1.227 . S
O316 C315 1.227 . S
N317 Co303 2.140 . S
N317 C320 1.346 . S
N317 C321 1.345 . S
C318 C319 1.387 . S
C318 C322 1.391 . S
C319 C318 1.387 . S
C319 C320 1.369 . S
C319 H328 0.929 . S
C320 N317 1.346 . S
C320 C319 1.369 . S
C320 H323 0.928 . S
C321 N317 1.345 . S
C321 C322 1.371 . S
C321 H324 0.931 . S
C322 C318 1.391 . S
C322 C321 1.371 . S
C322 H329 0.930 . S
H323 C320 0.928 . S
H324 C321 0.931 . S
H325 C301 0.930 . S
H326 C298 0.930 . S
H327 C307 0.930 . S
H328 C319 0.929 . S
H329 C322 0.930 . S
C330 C331 1.351 . S
C330 N333 1.368 . S
C330 H335 0.931 . S
C331 C330 1.351 . S
C331 N332 1.373 . S
C331 H359 0.930 . S
N332 C331 1.373 . S
N332 C334 1.340 . S
N333 C330 1.368 . S
N333 C334 1.321 . S
N333 Co336 2.135 . S
C334 N332 1.340 . S
C334 N333 1.321 . S
C334 H358 0.930 . S
H335 C330 0.931 . S
Co336 N333 2.135 . S
Co336 N339 2.121 . S
Co336 O344 2.055 . S
Co336 O347 2.039 . S
Co336 N350 2.140 . S
C337 O338 1.227 . S
C337 O347 1.265 . S
O338 C337 1.227 . S
N339 Co336 2.121 . S
N339 C341 1.375 . S
N339 C342 1.313 . S
C340 C341 1.338 . S
C340 N343 1.377 . S
C340 H360 0.930 . S
C341 N339 1.375 . S
C341 C340 1.338 . S
C341 H345 0.931 . S
C342 N339 1.313 . S
C342 N343 1.344 . S
C342 H346 0.930 . S
N343 C340 1.377 . S
N343 C342 1.344 . S
O344 Co336 2.055 . S
O344 C348 1.253 . S
H345 C341 0.931 . S
H346 C342 0.930 . S
O347 Co336 2.039 . S
O347 C337 1.265 . S
C348 O344 1.253 . S
C348 O349 1.227 . S
O349 C348 1.227 . S
N350 Co336 2.140 . S
N350 C353 1.346 . S
N350 C354 1.345 . S
C351 C352 1.387 . S
C351 C355 1.391 . S
C352 C351 1.387 . S
C352 C353 1.369 . S
C352 H361 0.929 . S
C353 N350 1.346 . S
C353 C352 1.369 . S
C353 H356 0.928 . S
C354 N350 1.345 . S
C354 C355 1.371 . S
C354 H357 0.931 . S
C355 C351 1.391 . S
C355 C354 1.371 . S
C355 H362 0.930 . S
H356 C353 0.928 . S
H357 C354 0.931 . S
H358 C334 0.930 . S
H359 C331 0.930 . S
H360 C340 0.930 . S
H361 C352 0.929 . S
H362 C355 0.930 . S
C363 C364 1.351 . S
C363 N366 1.368 . S
C363 H368 0.931 . S
C364 C363 1.351 . S
C364 N365 1.373 . S
C364 H392 0.930 . S
N365 C364 1.373 . S
N365 C367 1.340 . S
N366 C363 1.368 . S
N366 C367 1.321 . S
N366 Co369 2.135 . S
C367 N365 1.340 . S
C367 N366 1.321 . S
C367 H391 0.930 . S
H368 C363 0.931 . S
Co369 N366 2.135 . S
Co369 N372 2.121 . S
Co369 O377 2.055 . S
Co369 O380 2.039 . S
Co369 N383 2.140 . S
C370 O371 1.227 . S
C370 O380 1.265 . S
O371 C370 1.227 . S
N372 Co369 2.121 . S
N372 C374 1.375 . S
N372 C375 1.313 . S
C373 C374 1.338 . S
C373 N376 1.377 . S
C373 H393 0.930 . S
C374 N372 1.375 . S
C374 C373 1.338 . S
C374 H378 0.931 . S
C375 N372 1.313 . S
C375 N376 1.344 . S
C375 H379 0.930 . S
N376 C373 1.377 . S
N376 C375 1.344 . S
O377 Co369 2.055 . S
O377 C381 1.253 . S
H378 C374 0.931 . S
H379 C375 0.930 . S
O380 Co369 2.039 . S
O380 C370 1.265 . S
C381 O377 1.253 . S
C381 O382 1.227 . S
O382 C381 1.227 . S
N383 Co369 2.140 . S
N383 C386 1.346 . S
N383 C387 1.345 . S
C384 C385 1.387 . S
C384 C388 1.391 . S
C385 C384 1.387 . S
C385 C386 1.369 . S
C385 H394 0.929 . S
C386 N383 1.346 . S
C386 C385 1.369 . S
C386 H389 0.928 . S
C387 N383 1.345 . S
C387 C388 1.371 . S
C387 H390 0.931 . S
C388 C384 1.391 . S
C388 C387 1.371 . S
C388 H395 0.930 . S
H389 C386 0.928 . S
H390 C387 0.931 . S
H391 C367 0.930 . S
H392 C364 0.930 . S
H393 C373 0.930 . S
H394 C385 0.929 . S
H395 C388 0.930 . S
C396 C397 1.349 . S
C396 C398 1.327 . S
C396 H421 0.950 . S
C397 C396 1.349 . S
C397 C413 1.349 . S
C398 C396 1.327 . S
C398 C417 1.429 . S
C398 H422 0.950 . S
C399 C416 1.574 . S
C399 C418 1.368 . S
C399 H423 0.949 . S
H400 C404 0.949 . S
C401 C402 1.349 . S
C401 C403 1.327 . S
C401 H424 0.950 . S
C402 C401 1.349 . S
C402 C414 1.349 . S
C403 C401 1.327 . S
C403 C419 1.429 . S
C403 H425 0.950 . S
C404 H400 0.949 . S
C404 C412 1.574 . S
C404 C420 1.368 . S
H405 C413 0.950 . S
H406 C411 0.950 . S
H407 C412 0.949 . S
H408 C414 0.950 1_556 S
H409 C415 0.950 . S
H410 C416 0.949 . S
C411 H406 0.950 . S
C411 C413 1.327 . S
C411 C417 1.429 . S
C412 C404 1.574 . S
C412 H407 0.949 . S
C412 C418 1.368 . S
C413 C397 1.349 . S
C413 H405 0.950 . S
C413 C411 1.327 . S
C414 C402 1.349 . S
C414 H408 0.950 1_554 S
C414 C415 1.327 . S
C415 H409 0.950 . S
C415 C414 1.327 . S
C415 C419 1.429 . S
C416 C399 1.574 . S
C416 H410 0.949 . S
C416 C420 1.368 . S
C417 C398 1.429 . S
C417 C411 1.429 . S
C417 C418 1.523 . S
C418 C399 1.368 . S
C418 C412 1.368 . S
C418 C417 1.523 . S
C419 C403 1.429 . S
C419 C415 1.429 . S
C419 C420 1.523 . S
C420 C404 1.368 . S
C420 C416 1.368 . S
C420 C419 1.523 . S
H421 C396 0.950 . S
H422 C398 0.950 . S
H423 C399 0.949 . S
H424 C401 0.950 . S
H425 C403 0.950 . S
C426 C427 1.349 . S
C426 C428 1.327 . S
C426 H451 0.950 . S
C427 C426 1.349 . S
C427 C443 1.349 . S
C428 C426 1.327 . S
C428 C447 1.429 . S
C428 H452 0.950 . S
C429 C446 1.574 . S
C429 C448 1.368 . S
C429 H453 0.949 . S
H430 C434 0.949 . S
C431 C432 1.349 . S
C431 C433 1.327 . S
C431 H454 0.950 . S
C432 C431 1.349 . S
C432 C444 1.349 . S
C433 C431 1.327 . S
C433 C449 1.429 . S
C433 H455 0.950 . S
C434 H430 0.949 . S
C434 C442 1.574 . S
C434 C450 1.368 . S
H435 C443 0.950 . S
H436 C441 0.950 . S
H437 C442 0.949 . S
H438 C444 0.950 . S
H439 C445 0.950 . S
H440 C446 0.949 . S
C441 H436 0.950 . S
C441 C443 1.327 . S
C441 C447 1.429 . S
C442 C434 1.574 . S
C442 H437 0.949 . S
C442 C448 1.368 . S
C443 C427 1.349 . S
C443 H435 0.950 . S
C443 C441 1.327 . S
C444 C432 1.349 . S
C444 H438 0.950 . S
C444 C445 1.327 . S
C445 H439 0.950 . S
C445 C444 1.327 . S
C445 C449 1.429 . S
C446 C429 1.574 . S
C446 H440 0.949 . S
C446 C450 1.368 . S
C447 C428 1.429 . S
C447 C441 1.429 . S
C447 C448 1.523 . S
C448 C429 1.368 . S
C448 C442 1.368 . S
C448 C447 1.523 . S
C449 C433 1.429 . S
C449 C445 1.429 . S
C449 C450 1.523 . S
C450 C434 1.368 . S
C450 C446 1.368 . S
C450 C449 1.523 . S
H451 C426 0.950 . S
H452 C428 0.950 . S
H453 C429 0.949 . S
H454 C431 0.950 . S
H455 C433 0.950 . S
C456 C457 1.349 . S
C456 C458 1.327 . S
C456 H481 0.950 . S
C457 C456 1.349 . S
C457 C473 1.349 . S
C458 C456 1.327 . S
C458 C477 1.429 . S
C458 H482 0.950 . S
C459 C476 1.574 . S
C459 C478 1.368 . S
C459 H483 0.949 . S
H460 C464 0.949 . S
C461 C462 1.349 . S
C461 C463 1.327 . S
C461 H484 0.950 . S
C462 C461 1.349 . S
C462 C474 1.349 . S
C463 C461 1.327 . S
C463 C479 1.429 . S
C463 H485 0.950 . S
C464 H460 0.949 . S
C464 C472 1.574 . S
C464 C480 1.368 . S
H465 C473 0.950 . S
H466 C471 0.950 . S
H467 C472 0.949 . S
H468 C474 0.950 . S
H469 C475 0.950 . S
H470 C476 0.949 . S
C471 H466 0.950 . S
C471 C473 1.327 . S
C471 C477 1.429 . S
C472 C464 1.574 . S
C472 H467 0.949 . S
C472 C478 1.368 . S
C473 C457 1.349 . S
C473 H465 0.950 . S
C473 C471 1.327 . S
C474 C462 1.349 . S
C474 H468 0.950 . S
C474 C475 1.327 . S
C475 H469 0.950 . S
C475 C474 1.327 . S
C475 C479 1.429 . S
C476 C459 1.574 . S
C476 H470 0.949 . S
C476 C480 1.368 . S
C477 C458 1.429 . S
C477 C471 1.429 . S
C477 C478 1.523 . S
C478 C459 1.368 . S
C478 C472 1.368 . S
C478 C477 1.523 . S
C479 C463 1.429 . S
C479 C475 1.429 . S
C479 C480 1.523 . S
C480 C464 1.368 . S
C480 C476 1.368 . S
C480 C479 1.523 . S
H481 C456 0.950 . S
H482 C458 0.950 . S
H483 C459 0.949 . S
H484 C461 0.950 . S
H485 C463 0.950 . S
C486 C487 1.349 . S
C486 C488 1.327 . S
C486 H511 0.950 . S
C487 C486 1.349 . S
C487 C503 1.349 . S
C488 C486 1.327 . S
C488 C507 1.429 . S
C488 H512 0.950 . S
C489 C506 1.574 . S
C489 C508 1.368 . S
C489 H513 0.949 . S
H490 C494 0.949 . S
C491 C492 1.349 . S
C491 C493 1.327 . S
C491 H514 0.950 . S
C492 C491 1.349 . S
C492 C504 1.349 . S
C493 C491 1.327 . S
C493 C509 1.429 . S
C493 H515 0.950 . S
C494 H490 0.949 . S
C494 C502 1.574 . S
C494 C510 1.368 . S
H495 C503 0.950 . S
H496 C501 0.950 . S
H497 C502 0.949 . S
H498 C504 0.950 . S
H499 C505 0.950 . S
H500 C506 0.949 . S
C501 H496 0.950 . S
C501 C503 1.327 . S
C501 C507 1.429 . S
C502 C494 1.574 . S
C502 H497 0.949 . S
C502 C508 1.368 . S
C503 C487 1.349 . S
C503 H495 0.950 . S
C503 C501 1.327 . S
C504 C492 1.349 . S
C504 H498 0.950 . S
C504 C505 1.327 . S
C505 H499 0.950 . S
C505 C504 1.327 . S
C505 C509 1.429 . S
C506 C489 1.574 . S
C506 H500 0.949 . S
C506 C510 1.368 . S
C507 C488 1.429 . S
C507 C501 1.429 . S
C507 C508 1.523 . S
C508 C489 1.368 . S
C508 C502 1.368 . S
C508 C507 1.523 . S
C509 C493 1.429 . S
C509 C505 1.429 . S
C509 C510 1.523 . S
C510 C494 1.368 . S
C510 C506 1.368 . S
C510 C509 1.523 . S
H511 C486 0.950 . S
H512 C488 0.950 . S
H513 C489 0.949 . S
H514 C491 0.950 . S
H515 C493 0.950 . S
C516 C517 1.349 . S
C516 C518 1.327 . S
C516 H541 0.950 . S
C517 C516 1.349 . S
C517 C533 1.349 . S
C518 C516 1.327 . S
C518 C537 1.429 . S
C518 H542 0.950 . S
C519 C536 1.574 . S
C519 C538 1.368 . S
C519 H543 0.949 . S
H520 C524 0.949 . S
C521 C522 1.349 . S
C521 C523 1.327 . S
C521 H544 0.950 . S
C522 C521 1.349 . S
C522 C534 1.349 . S
C523 C521 1.327 . S
C523 C539 1.429 . S
C523 H545 0.950 . S
C524 H520 0.949 . S
C524 C532 1.574 . S
C524 C540 1.368 . S
H525 C533 0.950 . S
H526 C531 0.950 . S
H527 C532 0.949 . S
H528 C534 0.950 . S
H529 C535 0.950 . S
H530 C536 0.949 . S
C531 H526 0.950 . S
C531 C533 1.327 . S
C531 C537 1.429 . S
C532 C524 1.574 . S
C532 H527 0.949 . S
C532 C538 1.368 . S
C533 C517 1.349 . S
C533 H525 0.950 . S
C533 C531 1.327 . S
C534 C522 1.349 . S
C534 H528 0.950 . S
C534 C535 1.327 . S
C535 H529 0.950 . S
C535 C534 1.327 . S
C535 C539 1.429 . S
C536 C519 1.574 . S
C536 H530 0.949 . S
C536 C540 1.368 . S
C537 C518 1.429 . S
C537 C531 1.429 . S
C537 C538 1.523 . S
C538 C519 1.368 . S
C538 C532 1.368 . S
C538 C537 1.523 . S
C539 C523 1.429 . S
C539 C535 1.429 . S
C539 C540 1.523 . S
C540 C524 1.368 . S
C540 C536 1.368 . S
C540 C539 1.523 . S
H541 C516 0.950 . S
H542 C518 0.950 . S
H543 C519 0.949 . S
H544 C521 0.950 . S
H545 C523 0.950 . S
C546 C547 1.349 . S
C546 C548 1.327 . S
C546 H571 0.950 . S
C547 C546 1.349 . S
C547 C563 1.349 . S
C548 C546 1.327 . S
C548 C567 1.429 . S
C548 H572 0.950 . S
C549 C566 1.574 . S
C549 C568 1.368 . S
C549 H573 0.949 1_556 S
H550 C554 0.949 . S
C551 C552 1.349 . S
C551 C553 1.327 . S
C551 H574 0.950 . S
C552 C551 1.349 . S
C552 C564 1.349 . S
C553 C551 1.327 . S
C553 C569 1.429 . S
C553 H575 0.950 . S
C554 H550 0.949 . S
C554 C562 1.574 . S
C554 C570 1.368 . S
H555 C563 0.950 1_554 S
H556 C561 0.950 1_554 S
H557 C562 0.949 . S
H558 C564 0.950 . S
H559 C565 0.950 . S
H560 C566 0.949 1_554 S
C561 H556 0.950 1_556 S
C561 C563 1.327 . S
C561 C567 1.429 . S
C562 C554 1.574 . S
C562 H557 0.949 . S
C562 C568 1.368 . S
C563 C547 1.349 . S
C563 H555 0.950 1_556 S
C563 C561 1.327 . S
C564 C552 1.349 . S
C564 H558 0.950 . S
C564 C565 1.327 . S
C565 H559 0.950 . S
C565 C564 1.327 . S
C565 C569 1.429 . S
C566 C549 1.574 . S
C566 H560 0.949 1_556 S
C566 C570 1.368 . S
C567 C548 1.429 . S
C567 C561 1.429 . S
C567 C568 1.523 . S
C568 C549 1.368 . S
C568 C562 1.368 . S
C568 C567 1.523 . S
C569 C553 1.429 . S
C569 C565 1.429 . S
C569 C570 1.523 . S
C570 C554 1.368 . S
C570 C566 1.368 . S
C570 C569 1.523 . S
H571 C546 0.950 . S
H572 C548 0.950 . S
H573 C549 0.949 1_554 S
H574 C551 0.950 . S
H575 C553 0.950 . S
C576 C577 1.349 . S
C576 C578 1.327 . S
C576 H601 0.950 . S
C577 C576 1.349 . S
C577 C593 1.349 1_556 S
C578 C576 1.327 . S
C578 C597 1.429 . S
C578 H602 0.950 . S
C579 C596 1.574 1_455 S
C579 C598 1.368 . S
C579 H603 0.949 . S
H580 C584 0.949 . S
C581 C582 1.349 . S
C581 C583 1.327 . S
C581 H604 0.950 . S
C582 C581 1.349 . S
C582 C594 1.349 . S
C583 C581 1.327 . S
C583 C599 1.429 . S
C583 H605 0.950 . S
C584 H580 0.949 . S
C584 C592 1.574 1_655 S
C584 C600 1.368 . S
H585 C593 0.950 . S
H586 C591 0.950 . S
H587 C592 0.949 . S
H588 C594 0.950 . S
H589 C595 0.950 . S
H590 C596 0.949 . S
C591 H586 0.950 . S
C591 C593 1.327 1_556 S
C591 C597 1.429 . S
C592 C584 1.574 1_455 S
C592 H587 0.949 . S
C592 C598 1.368 . S
C593 C577 1.349 1_554 S
C593 H585 0.950 . S
C593 C591 1.327 1_554 S
C594 C582 1.349 . S
C594 H588 0.950 . S
C594 C595 1.327 . S
C595 H589 0.950 . S
C595 C594 1.327 . S
C595 C599 1.429 . S
C596 C579 1.574 1_655 S
C596 H590 0.949 . S
C596 C600 1.368 . S
C597 C578 1.429 . S
C597 C591 1.429 . S
C597 C598 1.523 . S
C598 C579 1.368 . S
C598 C592 1.368 . S
C598 C597 1.523 . S
C599 C583 1.429 . S
C599 C595 1.429 . S
C599 C600 1.523 . S
C600 C584 1.368 . S
C600 C596 1.368 . S
C600 C599 1.523 . S
H601 C576 0.950 . S
H602 C578 0.950 . S
H603 C579 0.949 . S
H604 C581 0.950 . S
H605 C583 0.950 . S
C606 C607 1.349 . S
C606 C608 1.327 . S
C606 H631 0.950 . S
C607 C606 1.349 . S
C607 C623 1.349 . S
C608 C606 1.327 . S
C608 C627 1.429 . S
C608 H632 0.950 . S
C609 C626 1.612 . S
C609 C628 1.368 1_554 S
C609 H633 0.949 . S
H610 C614 0.949 . S
C611 C612 1.349 . S
C611 C613 1.327 . S
C611 H634 0.950 . S
C612 C611 1.349 . S
C612 C624 1.349 . S
C613 C611 1.327 . S
C613 C629 1.429 . S
C613 H635 0.950 . S
C614 H610 0.949 . S
C614 C622 1.615 . S
C614 C630 1.368 1_556 S
H615 C623 0.950 . S
H616 C621 0.950 . S
H617 C622 0.947 . S
H618 C624 0.950 . S
H619 C625 0.950 . S
H620 C626 0.947 . S
C621 H616 0.950 . S
C621 C623 1.327 . S
C621 C627 1.429 . S
C622 C614 1.615 . S
C622 H617 0.947 . S
C622 C628 1.317 1_545 S
C623 C607 1.349 . S
C623 H615 0.950 . S
C623 C621 1.327 . S
C624 C612 1.349 . S
C624 H618 0.950 . S
C624 C625 1.327 . S
C625 H619 0.950 . S
C625 C624 1.327 . S
C625 C629 1.429 . S
C626 C609 1.612 . S
C626 H620 0.947 . S
C626 C630 1.321 1_565 S
C627 C608 1.429 . S
C627 C621 1.429 . S
C627 C628 1.523 . S
C628 C609 1.368 1_556 S
C628 C622 1.317 1_565 S
C628 C627 1.523 . S
C629 C613 1.429 . S
C629 C625 1.429 . S
C629 C630 1.523 . S
C630 C614 1.368 1_554 S
C630 C626 1.321 1_545 S
C630 C629 1.523 . S
H631 C606 0.950 . S
H632 C608 0.950 . S
H633 C609 0.949 . S
H634 C611 0.950 . S
H635 C613 0.950 . S
C636 C637 1.349 . S
C636 C638 1.327 . S
C636 H661 0.950 . S
C637 C636 1.349 . S
C637 C653 1.349 . S
C638 C636 1.327 . S
C638 C657 1.429 . S
C638 H662 0.950 . S
C639 C656 1.574 . S
C639 C658 1.368 . S
C639 H663 0.949 . S
H640 C644 0.949 . S
C641 C642 1.349 . S
C641 C643 1.327 . S
C641 H664 0.950 . S
C642 C641 1.349 . S
C642 C654 1.349 . S
C643 C641 1.327 . S
C643 C659 1.429 . S
C643 H665 0.950 . S
C644 H640 0.949 . S
C644 C652 1.574 . S
C644 C660 1.368 . S
H645 C653 0.950 . S
H646 C651 0.950 . S
H647 C652 0.949 . S
H648 C654 0.950 . S
H649 C655 0.950 . S
H650 C656 0.949 . S
C651 H646 0.950 . S
C651 C653 1.327 . S
C651 C657 1.429 . S
C652 C644 1.574 . S
C652 H647 0.949 . S
C652 C658 1.368 . S
C653 C637 1.349 . S
C653 H645 0.950 . S
C653 C651 1.327 . S
C654 C642 1.349 . S
C654 H648 0.950 . S
C654 C655 1.327 . S
C655 H649 0.950 . S
C655 C654 1.327 . S
C655 C659 1.429 . S
C656 C639 1.574 . S
C656 H650 0.949 . S
C656 C660 1.368 . S
C657 C638 1.429 . S
C657 C651 1.429 . S
C657 C658 1.523 . S
C658 C639 1.368 . S
C658 C652 1.368 . S
C658 C657 1.523 . S
C659 C643 1.429 . S
C659 C655 1.429 . S
C659 C660 1.523 . S
C660 C644 1.368 . S
C660 C656 1.368 . S
C660 C659 1.523 . S
H661 C636 0.950 . S
H662 C638 0.950 . S
H663 C639 0.949 . S
H664 C641 0.950 . S
H665 C643 0.950 . S
C666 C667 1.349 . S
C666 C668 1.327 . S
C666 H691 0.950 . S
C667 C666 1.349 . S
C667 C683 1.349 . S
C668 C666 1.327 . S
C668 C687 1.429 . S
C668 H692 0.950 . S
C669 C686 1.574 . S
C669 C688 1.368 . S
C669 H693 0.949 . S
H670 C674 0.949 . S
C671 C672 1.349 . S
C671 C673 1.327 . S
C671 H694 0.950 . S
C672 C671 1.349 . S
C672 C684 1.349 . S
C673 C671 1.327 . S
C673 C689 1.429 . S
C673 H695 0.950 . S
C674 H670 0.949 . S
C674 C682 1.574 . S
C674 C690 1.368 . S
H675 C683 0.950 . S
H676 C681 0.950 . S
H677 C682 0.949 . S
H678 C684 0.950 . S
H679 C685 0.950 . S
H680 C686 0.949 . S
C681 H676 0.950 . S
C681 C683 1.327 . S
C681 C687 1.429 . S
C682 C674 1.574 . S
C682 H677 0.949 . S
C682 C688 1.368 1_455 S
C683 C667 1.349 . S
C683 H675 0.950 . S
C683 C681 1.327 . S
C684 C672 1.349 . S
C684 H678 0.950 . S
C684 C685 1.327 . S
C685 H679 0.950 . S
C685 C684 1.327 . S
C685 C689 1.429 . S
C686 C669 1.574 . S
C686 H680 0.949 . S
C686 C690 1.368 1_655 S
C687 C668 1.429 . S
C687 C681 1.429 . S
C687 C688 1.523 . S
C688 C669 1.368 . S
C688 C682 1.368 1_655 S
C688 C687 1.523 . S
C689 C673 1.429 . S
C689 C685 1.429 . S
C689 C690 1.523 . S
C690 C674 1.368 . S
C690 C686 1.368 1_455 S
C690 C689 1.523 . S
H691 C666 0.950 . S
H692 C668 0.950 . S
H693 C669 0.949 . S
H694 C671 0.950 . S
H695 C673 0.950 . S
C696 C697 1.349 . S
C696 C698 1.327 . S
C696 H721 0.950 . S
C697 C696 1.349 . S
C697 C713 1.349 . S
C698 C696 1.327 . S
C698 C717 1.429 . S
C698 H722 0.950 . S
C699 C716 1.574 1_545 S
C699 C718 1.368 . S
C699 H723 0.949 . S
H700 C704 0.949 . S
C701 C702 1.349 . S
C701 C703 1.327 . S
C701 H724 0.950 . S
C702 C701 1.349 . S
C702 C714 1.349 . S
C703 C701 1.327 . S
C703 C719 1.429 . S
C703 H725 0.950 . S
C704 H700 0.949 . S
C704 C712 1.574 1_565 S
C704 C720 1.368 . S
H705 C713 0.950 . S
H706 C711 0.950 . S
H707 C712 0.949 . S
H708 C714 0.950 . S
H709 C715 0.950 . S
H710 C716 0.949 . S
C711 H706 0.950 . S
C711 C713 1.327 . S
C711 C717 1.429 . S
C712 C704 1.574 1_545 S
C712 H707 0.949 . S
C712 C718 1.368 . S
C713 C697 1.349 . S
C713 H705 0.950 . S
C713 C711 1.327 . S
C714 C702 1.349 . S
C714 H708 0.950 . S
C714 C715 1.327 . S
C715 H709 0.950 . S
C715 C714 1.327 . S
C715 C719 1.429 . S
C716 C699 1.574 1_565 S
C716 H710 0.949 . S
C716 C720 1.368 . S
C717 C698 1.429 . S
C717 C711 1.429 . S
C717 C718 1.523 . S
C718 C699 1.368 . S
C718 C712 1.368 . S
C718 C717 1.523 . S
C719 C703 1.429 . S
C719 C715 1.429 . S
C719 C720 1.523 . S
C720 C704 1.368 . S
C720 C716 1.368 . S
C720 C719 1.523 . S
H721 C696 0.950 . S
H722 C698 0.950 . S
H723 C699 0.949 . S
H724 C701 0.950 . S
H725 C703 0.950 . S
C726 C727 1.349 . S
C726 C728 1.327 . S
C726 H751 0.950 . S
C727 C726 1.349 . S
C727 C743 1.349 . S
C728 C726 1.327 . S
C728 C747 1.429 . S
C728 H752 0.950 . S
C729 C746 1.574 . S
C729 C748 1.368 . S
C729 H753 0.949 . S
H730 C734 0.949 . S
C731 C732 1.349 . S
C731 C733 1.327 . S
C731 H754 0.950 . S
C732 C731 1.349 . S
C732 C744 1.349 . S
C733 C731 1.327 . S
C733 C749 1.429 . S
C733 H755 0.950 . S
C734 H730 0.949 . S
C734 C742 1.574 . S
C734 C750 1.368 . S
H735 C743 0.950 . S
H736 C741 0.950 . S
H737 C742 0.949 . S
H738 C744 0.950 . S
H739 C745 0.950 . S
H740 C746 0.949 . S
C741 H736 0.950 . S
C741 C743 1.327 . S
C741 C747 1.429 . S
C742 C734 1.574 . S
C742 H737 0.949 . S
C742 C748 1.368 . S
C743 C727 1.349 . S
C743 H735 0.950 . S
C743 C741 1.327 . S
C744 C732 1.349 . S
C744 H738 0.950 . S
C744 C745 1.327 . S
C745 H739 0.950 . S
C745 C744 1.327 . S
C745 C749 1.429 . S
C746 C729 1.574 . S
C746 H740 0.949 . S
C746 C750 1.368 . S
C747 C728 1.429 . S
C747 C741 1.429 . S
C747 C748 1.523 . S
C748 C729 1.368 . S
C748 C742 1.368 . S
C748 C747 1.523 . S
C749 C733 1.429 . S
C749 C745 1.429 . S
C749 C750 1.523 . S
C750 C734 1.368 . S
C750 C746 1.368 . S
C750 C749 1.523 . S
H751 C726 0.950 . S
H752 C728 0.950 . S
H753 C729 0.949 . S
H754 C731 0.950 . S
H755 C733 0.950 . S
C756 C757 1.349 . S
C756 C758 1.327 . S
C756 H781 0.950 . S
C757 C756 1.349 . S
C757 C773 1.349 . S
C758 C756 1.327 . S
C758 C777 1.429 . S
C758 H782 0.950 . S
C759 C776 1.574 . S
C759 C778 1.368 . S
C759 H783 0.949 . S
H760 C764 0.949 . S
C761 C762 1.349 . S
C761 C763 1.327 . S
C761 H784 0.950 . S
C762 C761 1.349 . S
C762 C774 1.349 . S
C763 C761 1.327 . S
C763 C779 1.429 . S
C763 H785 0.950 . S
C764 H760 0.949 . S
C764 C772 1.574 . S
C764 C780 1.368 . S
H765 C773 0.950 . S
H766 C771 0.950 . S
H767 C772 0.949 . S
H768 C774 0.950 . S
H769 C775 0.950 . S
H770 C776 0.949 . S
C771 H766 0.950 . S
C771 C773 1.327 . S
C771 C777 1.429 . S
C772 C764 1.574 . S
C772 H767 0.949 . S
C772 C778 1.368 . S
C773 C757 1.349 . S
C773 H765 0.950 . S
C773 C771 1.327 . S
C774 C762 1.349 . S
C774 H768 0.950 . S
C774 C775 1.327 . S
C775 H769 0.950 . S
C775 C774 1.327 . S
C775 C779 1.429 . S
C776 C759 1.574 . S
C776 H770 0.949 . S
C776 C780 1.368 . S
C777 C758 1.429 . S
C777 C771 1.429 . S
C777 C778 1.523 . S
C778 C759 1.368 . S
C778 C772 1.368 . S
C778 C777 1.523 . S
C779 C763 1.429 . S
C779 C775 1.429 . S
C779 C780 1.523 . S
C780 C764 1.368 . S
C780 C776 1.368 . S
C780 C779 1.523 . S
H781 C756 0.950 . S
H782 C758 0.950 . S
H783 C759 0.949 . S
H784 C761 0.950 . S
H785 C763 0.950 . S
C786 C787 1.349 . S
C786 C788 1.327 . S
C786 H811 0.950 . S
C787 C786 1.349 . S
C787 C803 1.349 . S
C788 C786 1.327 . S
C788 C807 1.429 . S
C788 H812 0.950 . S
C789 C806 1.574 . S
C789 C808 1.368 . S
C789 H813 0.949 . S
H790 C794 0.949 . S
C791 C792 1.349 . S
C791 C793 1.327 . S
C791 H814 0.950 . S
C792 C791 1.349 . S
C792 C804 1.349 . S
C793 C791 1.327 . S
C793 C809 1.429 . S
C793 H815 0.950 . S
C794 H790 0.949 . S
C794 C802 1.574 . S
C794 C810 1.368 . S
H795 C803 0.950 . S
H796 C801 0.950 . S
H797 C802 0.949 . S
H798 C804 0.950 . S
H799 C805 0.950 . S
H800 C806 0.949 . S
C801 H796 0.950 . S
C801 C803 1.327 . S
C801 C807 1.429 . S
C802 C794 1.574 . S
C802 H797 0.949 . S
C802 C808 1.368 . S
C803 C787 1.349 . S
C803 H795 0.950 . S
C803 C801 1.327 . S
C804 C792 1.349 . S
C804 H798 0.950 . S
C804 C805 1.327 . S
C805 H799 0.950 . S
C805 C804 1.327 . S
C805 C809 1.429 . S
C806 C789 1.574 . S
C806 H800 0.949 . S
C806 C810 1.368 . S
C807 C788 1.429 . S
C807 C801 1.429 . S
C807 C808 1.523 . S
C808 C789 1.368 . S
C808 C802 1.368 . S
C808 C807 1.523 . S
C809 C793 1.429 . S
C809 C805 1.429 . S
C809 C810 1.523 . S
C810 C794 1.368 . S
C810 C806 1.368 . S
C810 C809 1.523 . S
H811 C786 0.950 . S
H812 C788 0.950 . S
H813 C789 0.949 . S
H814 C791 0.950 . S
H815 C793 0.950 . S
C816 C817 1.349 . S
C816 C818 1.327 . S
C816 H841 0.950 . S
C817 C816 1.349 . S
C817 C833 1.349 . S
C818 C816 1.327 . S
C818 C837 1.429 . S
C818 H842 0.950 . S
C819 C836 1.574 . S
C819 C838 1.368 . S
C819 H843 0.949 . S
H820 C824 0.949 . S
C821 C822 1.349 . S
C821 C823 1.327 . S
C821 H844 0.950 . S
C822 C821 1.349 . S
C822 C834 1.349 . S
C823 C821 1.327 . S
C823 C839 1.429 . S
C823 H845 0.950 . S
C824 H820 0.949 . S
C824 C832 1.574 . S
C824 C840 1.368 . S
H825 C833 0.950 . S
H826 C831 0.950 . S
H827 C832 0.949 . S
H828 C834 0.950 . S
H829 C835 0.950 . S
H830 C836 0.949 . S
C831 H826 0.950 . S
C831 C833 1.327 . S
C831 C837 1.429 . S
C832 C824 1.574 . S
C832 H827 0.949 . S
C832 C838 1.368 . S
C833 C817 1.349 . S
C833 H825 0.950 . S
C833 C831 1.327 . S
C834 C822 1.349 . S
C834 H828 0.950 . S
C834 C835 1.327 . S
C835 H829 0.950 . S
C835 C834 1.327 . S
C835 C839 1.429 . S
C836 C819 1.574 . S
C836 H830 0.949 . S
C836 C840 1.368 . S
C837 C818 1.429 . S
C837 C831 1.429 . S
C837 C838 1.523 . S
C838 C819 1.368 . S
C838 C832 1.368 . S
C838 C837 1.523 . S
C839 C823 1.429 . S
C839 C835 1.429 . S
C839 C840 1.523 . S
C840 C824 1.368 . S
C840 C836 1.368 . S
C840 C839 1.523 . S
H841 C816 0.950 . S
H842 C818 0.950 . S
H843 C819 0.949 . S
H844 C821 0.950 . S
H845 C823 0.950 . S
C846 C847 1.349 . S
C846 C848 1.327 . S
C846 H871 0.950 . S
C847 C846 1.349 . S
C847 C863 1.349 . S
C848 C846 1.327 . S
C848 C867 1.429 . S
C848 H872 0.950 . S
C849 C866 1.574 . S
C849 C868 1.368 . S
C849 H873 0.949 . S
H850 C854 0.949 . S
C851 C852 1.349 . S
C851 C853 1.327 . S
C851 H874 0.950 . S
C852 C851 1.349 . S
C852 C864 1.349 . S
C853 C851 1.327 . S
C853 C869 1.429 . S
C853 H875 0.950 . S
C854 H850 0.949 . S
C854 C862 1.574 . S
C854 C870 1.368 . S
H855 C863 0.950 . S
H856 C861 0.950 . S
H857 C862 0.949 . S
H858 C864 0.950 . S
H859 C865 0.950 . S
H860 C866 0.949 . S
C861 H856 0.950 . S
C861 C863 1.327 . S
C861 C867 1.429 . S
C862 C854 1.574 . S
C862 H857 0.949 . S
C862 C868 1.368 . S
C863 C847 1.349 . S
C863 H855 0.950 . S
C863 C861 1.327 . S
C864 C852 1.349 . S
C864 H858 0.950 . S
C864 C865 1.327 . S
C865 H859 0.950 . S
C865 C864 1.327 . S
C865 C869 1.429 . S
C866 C849 1.574 . S
C866 H860 0.949 . S
C866 C870 1.368 . S
C867 C848 1.429 . S
C867 C861 1.429 . S
C867 C868 1.523 . S
C868 C849 1.368 . S
C868 C862 1.368 . S
C868 C867 1.523 . S
C869 C853 1.429 . S
C869 C865 1.429 . S
C869 C870 1.523 . S
C870 C854 1.368 . S
C870 C866 1.368 . S
C870 C869 1.523 . S
H871 C846 0.950 . S
H872 C848 0.950 . S
H873 C849 0.949 . S
H874 C851 0.950 . S
H875 C853 0.950 . S
C876 C877 1.349 . S
C876 C878 1.327 . S
C876 H901 0.950 . S
C877 C876 1.349 . S
C877 C893 1.349 . S
C878 C876 1.327 . S
C878 C897 1.429 . S
C878 H902 0.950 . S
C879 C896 1.574 . S
C879 C898 1.368 . S
C879 H903 0.949 . S
H880 C884 0.949 . S
C881 C882 1.349 . S
C881 C883 1.327 . S
C881 H904 0.950 . S
C882 C881 1.349 . S
C882 C894 1.349 . S
C883 C881 1.327 . S
C883 C899 1.429 1_554 S
C883 H905 0.950 . S
C884 H880 0.949 . S
C884 C892 1.574 . S
C884 C900 1.368 . S
H885 C893 0.950 . S
H886 C891 0.950 . S
H887 C892 0.949 . S
H888 C894 0.950 . S
H889 C895 0.950 . S
H890 C896 0.949 . S
C891 H886 0.950 . S
C891 C893 1.327 . S
C891 C897 1.429 . S
C892 C884 1.574 . S
C892 H887 0.949 . S
C892 C898 1.368 . S
C893 C877 1.349 . S
C893 H885 0.950 . S
C893 C891 1.327 . S
C894 C882 1.349 . S
C894 H888 0.950 . S
C894 C895 1.327 1_554 S
C895 H889 0.950 . S
C895 C894 1.327 1_556 S
C895 C899 1.429 . S
C896 C879 1.574 . S
C896 H890 0.949 . S
C896 C900 1.368 . S
C897 C878 1.429 . S
C897 C891 1.429 . S
C897 C898 1.523 . S
C898 C879 1.368 . S
C898 C892 1.368 . S
C898 C897 1.523 . S
C899 C883 1.429 1_556 S
C899 C895 1.429 . S
C899 C900 1.523 . S
C900 C884 1.368 . S
C900 C896 1.368 . S
C900 C899 1.523 . S
H901 C876 0.950 . S
H902 C878 0.950 . S
H903 C879 0.949 . S
H904 C881 0.950 . S
H905 C883 0.950 . S
C906 C907 1.349 . S
C906 C908 1.327 . S
C906 H931 0.950 . S
C907 C906 1.349 . S
C907 C923 1.349 . S
C908 C906 1.327 . S
C908 C927 1.429 . S
C908 H932 0.950 . S
C909 C926 1.574 . S
C909 C928 1.368 . S
C909 H933 0.949 . S
H910 C914 0.949 . S
C911 C912 1.349 . S
C911 C913 1.327 1_556 S
C911 H934 0.950 1_556 S
C912 C911 1.349 . S
C912 C924 1.349 . S
C913 C911 1.327 1_554 S
C913 C929 1.429 . S
C913 H935 0.950 . S
C914 H910 0.949 . S
C914 C922 1.574 . S
C914 C930 1.368 . S
H915 C923 0.950 . S
H916 C921 0.950 . S
H917 C922 0.949 . S
H918 C924 0.950 . S
H919 C925 0.950 . S
H920 C926 0.949 . S
C921 H916 0.950 . S
C921 C923 1.327 . S
C921 C927 1.429 . S
C922 C914 1.574 . S
C922 H917 0.949 . S
C922 C928 1.368 . S
C923 C907 1.349 . S
C923 H915 0.950 . S
C923 C921 1.327 . S
C924 C912 1.349 . S
C924 H918 0.950 . S
C924 C925 1.327 . S
C925 H919 0.950 . S
C925 C924 1.327 . S
C925 C929 1.429 1_556 S
C926 C909 1.574 . S
C926 H920 0.949 . S
C926 C930 1.368 . S
C927 C908 1.429 . S
C927 C921 1.429 . S
C927 C928 1.523 . S
C928 C909 1.368 . S
C928 C922 1.368 . S
C928 C927 1.523 . S
C929 C913 1.429 . S
C929 C925 1.429 1_554 S
C929 C930 1.523 . S
C930 C914 1.368 . S
C930 C926 1.368 . S
C930 C929 1.523 . S
H931 C906 0.950 . S
H932 C908 0.950 . S
H933 C909 0.949 . S
H934 C911 0.950 1_554 S
H935 C913 0.950 . S
C936 C937 1.349 . S
C936 C938 1.327 . S
C936 H961 0.950 . S
C937 C936 1.349 . S
C937 C953 1.349 . S
C938 C936 1.327 . S
C938 C957 1.429 . S
C938 H962 0.950 . S
C939 C956 1.574 . S
C939 C958 1.368 . S
C939 H963 0.949 . S
H940 C944 0.949 . S
C941 C942 1.349 . S
C941 C943 1.327 . S
C941 H964 0.950 . S
C942 C941 1.349 . S
C942 C954 1.349 . S
C943 C941 1.327 . S
C943 C959 1.429 . S
C943 H965 0.950 . S
C944 H940 0.949 . S
C944 C952 1.574 . S
C944 C960 1.368 . S
H945 C953 0.950 . S
H946 C951 0.950 . S
H947 C952 0.949 . S
H948 C954 0.950 . S
H949 C955 0.950 . S
H950 C956 0.949 . S
C951 H946 0.950 . S
C951 C953 1.327 . S
C951 C957 1.429 . S
C952 C944 1.574 . S
C952 H947 0.949 . S
C952 C958 1.368 . S
C953 C937 1.349 . S
C953 H945 0.950 . S
C953 C951 1.327 . S
C954 C942 1.349 . S
C954 H948 0.950 . S
C954 C955 1.327 . S
C955 H949 0.950 . S
C955 C954 1.327 . S
C955 C959 1.429 . S
C956 C939 1.574 . S
C956 H950 0.949 . S
C956 C960 1.368 . S
C957 C938 1.429 . S
C957 C951 1.429 . S
C957 C958 1.523 . S
C958 C939 1.368 . S
C958 C952 1.368 . S
C958 C957 1.523 . S
C959 C943 1.429 . S
C959 C955 1.429 . S
C959 C960 1.523 . S
C960 C944 1.368 . S
C960 C956 1.368 . S
C960 C959 1.523 . S
H961 C936 0.950 . S
H962 C938 0.950 . S
H963 C939 0.949 . S
H964 C941 0.950 . S
H965 C943 0.950 . S
C966 C967 1.349 . S
C966 C968 1.327 . S
C966 H991 0.950 . S
C967 C966 1.349 . S
C967 C983 1.349 . S
C968 C966 1.327 . S
C968 C987 1.429 . S
C968 H992 0.950 . S
C969 C986 1.574 . S
C969 C988 1.368 . S
C969 H993 0.949 . S
H970 C974 0.949 . S
C971 C972 1.349 . S
C971 C973 1.327 . S
C971 H994 0.950 . S
C972 C971 1.349 . S
C972 C984 1.349 . S
C973 C971 1.327 . S
C973 C989 1.429 . S
C973 H995 0.950 . S
C974 H970 0.949 . S
C974 C982 1.574 . S
C974 C990 1.368 . S
H975 C983 0.950 . S
H976 C981 0.950 . S
H977 C982 0.949 . S
H978 C984 0.950 . S
H979 C985 0.950 . S
H980 C986 0.949 . S
C981 H976 0.950 . S
C981 C983 1.327 . S
C981 C987 1.429 . S
C982 C974 1.574 . S
C982 H977 0.949 . S
C982 C988 1.368 . S
C983 C967 1.349 . S
C983 H975 0.950 . S
C983 C981 1.327 . S
C984 C972 1.349 . S
C984 H978 0.950 . S
C984 C985 1.327 . S
C985 H979 0.950 . S
C985 C984 1.327 . S
C985 C989 1.429 . S
C986 C969 1.574 . S
C986 H980 0.949 . S
C986 C990 1.368 . S
C987 C968 1.429 . S
C987 C981 1.429 . S
C987 C988 1.523 . S
C988 C969 1.368 . S
C988 C982 1.368 . S
C988 C987 1.523 . S
C989 C973 1.429 . S
C989 C985 1.429 . S
C989 C990 1.523 . S
C990 C974 1.368 . S
C990 C986 1.368 . S
C990 C989 1.523 . S
H991 C966 0.950 . S
H992 C968 0.950 . S
H993 C969 0.949 . S
H994 C971 0.950 . S
H995 C973 0.950 . S
C996 C997 1.349 . S
C996 C998 1.327 . S
C996 H1021 0.950 . S
C997 C996 1.349 . S
C997 C1013 1.349 . S
C998 C996 1.327 . S
C998 C1017 1.429 . S
C998 H1022 0.950 . S
C999 C1016 1.574 . S
C999 C1018 1.368 . S
C999 H1023 0.949 . S
H1000 C1004 0.949 . S
C1001 C1002 1.349 . S
C1001 C1003 1.327 . S
C1001 H1024 0.950 . S
C1002 C1001 1.349 . S
C1002 C1014 1.349 . S
C1003 C1001 1.327 . S
C1003 C1019 1.429 . S
C1003 H1025 0.950 . S
C1004 H1000 0.949 . S
C1004 C1012 1.574 . S
C1004 C1020 1.368 . S
H1005 C1013 0.950 . S
H1006 C1011 0.950 . S
H1007 C1012 0.949 . S
H1008 C1014 0.950 . S
H1009 C1015 0.950 . S
H1010 C1016 0.949 . S
C1011 H1006 0.950 . S
C1011 C1013 1.327 . S
C1011 C1017 1.429 . S
C1012 C1004 1.574 . S
C1012 H1007 0.949 . S
C1012 C1018 1.368 . S
C1013 C997 1.349 . S
C1013 H1005 0.950 . S
C1013 C1011 1.327 . S
C1014 C1002 1.349 . S
C1014 H1008 0.950 . S
C1014 C1015 1.327 . S
C1015 H1009 0.950 . S
C1015 C1014 1.327 . S
C1015 C1019 1.429 . S
C1016 C999 1.574 . S
C1016 H1010 0.949 . S
C1016 C1020 1.368 . S
C1017 C998 1.429 . S
C1017 C1011 1.429 . S
C1017 C1018 1.523 . S
C1018 C999 1.368 . S
C1018 C1012 1.368 . S
C1018 C1017 1.523 . S
C1019 C1003 1.429 . S
C1019 C1015 1.429 . S
C1019 C1020 1.523 1_554 S
C1020 C1004 1.368 . S
C1020 C1016 1.368 . S
C1020 C1019 1.523 1_556 S
H1021 C996 0.950 . S
H1022 C998 0.950 . S
H1023 C999 0.949 . S
H1024 C1001 0.950 . S
H1025 C1003 0.950 . S
C1026 C1027 1.349 . S
C1026 C1028 1.327 . S
C1026 H1051 0.950 . S
C1027 C1026 1.349 . S
C1027 C1043 1.349 . S
C1028 C1026 1.327 . S
C1028 C1047 1.429 . S
C1028 H1052 0.950 . S
C1029 C1046 1.574 . S
C1029 C1048 1.368 1_554 S
C1029 H1053 0.949 1_554 S
H1030 C1034 0.949 . S
C1031 C1032 1.349 . S
C1031 C1033 1.327 . S
C1031 H1054 0.950 . S
C1032 C1031 1.349 . S
C1032 C1044 1.349 . S
C1033 C1031 1.327 . S
C1033 C1049 1.429 . S
C1033 H1055 0.950 . S
C1034 H1030 0.949 . S
C1034 C1042 1.574 . S
C1034 C1050 1.368 . S
H1035 C1043 0.950 . S
H1036 C1041 0.950 . S
H1037 C1042 0.949 1_556 S
H1038 C1044 0.950 . S
H1039 C1045 0.950 . S
H1040 C1046 0.949 . S
C1041 H1036 0.950 . S
C1041 C1043 1.327 . S
C1041 C1047 1.429 . S
C1042 C1034 1.574 . S
C1042 H1037 0.949 1_554 S
C1042 C1048 1.368 1_554 S
C1043 C1027 1.349 . S
C1043 H1035 0.950 . S
C1043 C1041 1.327 . S
C1044 C1032 1.349 . S
C1044 H1038 0.950 . S
C1044 C1045 1.327 . S
C1045 H1039 0.950 . S
C1045 C1044 1.327 . S
C1045 C1049 1.429 . S
C1046 C1029 1.574 . S
C1046 H1040 0.949 . S
C1046 C1050 1.368 . S
C1047 C1028 1.429 . S
C1047 C1041 1.429 . S
C1047 C1048 1.523 . S
C1048 C1029 1.368 1_556 S
C1048 C1042 1.368 1_556 S
C1048 C1047 1.523 . S
C1049 C1033 1.429 . S
C1049 C1045 1.429 . S
C1049 C1050 1.523 . S
C1050 C1034 1.368 . S
C1050 C1046 1.368 . S
C1050 C1049 1.523 . S
H1051 C1026 0.950 . S
H1052 C1028 0.950 . S
H1053 C1029 0.949 1_556 S
H1054 C1031 0.950 . S
H1055 C1033 0.950 . S
C1056 C1057 1.349 . S
C1056 C1058 1.327 . S
C1056 H1081 0.950 . S
C1057 C1056 1.349 . S
C1057 C1073 1.349 . S
C1058 C1056 1.327 . S
C1058 C1077 1.429 . S
C1058 H1082 0.950 . S
C1059 C1076 1.574 . S
C1059 C1078 1.368 . S
C1059 H1083 0.949 . S
H1060 C1064 0.949 . S
C1061 C1062 1.349 . S
C1061 C1063 1.327 1_556 S
C1061 H1084 0.950 . S
C1062 C1061 1.349 . S
C1062 C1074 1.349 . S
C1063 C1061 1.327 1_554 S
C1063 C1079 1.429 . S
C1063 H1085 0.950 . S
C1064 H1060 0.949 . S
C1064 C1072 1.574 . S
C1064 C1080 1.368 . S
H1065 C1073 0.950 . S
H1066 C1071 0.950 . S
H1067 C1072 0.949 . S
H1068 C1074 0.950 . S
H1069 C1075 0.950 . S
H1070 C1076 0.949 . S
C1071 H1066 0.950 . S
C1071 C1073 1.327 . S
C1071 C1077 1.429 . S
C1072 C1064 1.574 . S
C1072 H1067 0.949 . S
C1072 C1078 1.368 . S
C1073 C1057 1.349 . S
C1073 H1065 0.950 . S
C1073 C1071 1.327 . S
C1074 C1062 1.349 . S
C1074 H1068 0.950 . S
C1074 C1075 1.327 1_556 S
C1075 H1069 0.950 . S
C1075 C1074 1.327 1_554 S
C1075 C1079 1.429 . S
C1076 C1059 1.574 . S
C1076 H1070 0.949 . S
C1076 C1080 1.368 . S
C1077 C1058 1.429 . S
C1077 C1071 1.429 . S
C1077 C1078 1.523 . S
C1078 C1059 1.368 . S
C1078 C1072 1.368 . S
C1078 C1077 1.523 . S
C1079 C1063 1.429 . S
C1079 C1075 1.429 . S
C1079 C1080 1.523 . S
C1080 C1064 1.368 . S
C1080 C1076 1.368 . S
C1080 C1079 1.523 . S
H1081 C1056 0.950 . S
H1082 C1058 0.950 . S
H1083 C1059 0.949 . S
H1084 C1061 0.950 . S
H1085 C1063 0.950 . S
C1086 C1087 1.349 . S
C1086 C1088 1.327 . S
C1086 H1111 0.950 . S
C1087 C1086 1.349 . S
C1087 C1103 1.349 . S
C1088 C1086 1.327 . S
C1088 C1107 1.429 . S
C1088 H1112 0.950 . S
C1089 C1106 1.574 . S
C1089 C1108 1.368 . S
C1089 H1113 0.949 . S
H1090 C1094 0.949 . S
C1091 C1092 1.349 . S
C1091 C1093 1.327 . S
C1091 H1114 0.950 . S
C1092 C1091 1.349 . S
C1092 C1104 1.349 . S
C1093 C1091 1.327 . S
C1093 C1109 1.429 . S
C1093 H1115 0.950 . S
C1094 H1090 0.949 . S
C1094 C1102 1.574 . S
C1094 C1110 1.368 . S
H1095 C1103 0.950 . S
H1096 C1101 0.950 . S
H1097 C1102 0.949 . S
H1098 C1104 0.950 . S
H1099 C1105 0.950 . S
H1100 C1106 0.949 . S
C1101 H1096 0.950 . S
C1101 C1103 1.327 . S
C1101 C1107 1.429 . S
C1102 C1094 1.574 . S
C1102 H1097 0.949 . S
C1102 C1108 1.368 . S
C1103 C1087 1.349 . S
C1103 H1095 0.950 . S
C1103 C1101 1.327 . S
C1104 C1092 1.349 . S
C1104 H1098 0.950 . S
C1104 C1105 1.327 . S
C1105 H1099 0.950 . S
C1105 C1104 1.327 . S
C1105 C1109 1.429 . S
C1106 C1089 1.574 . S
C1106 H1100 0.949 . S
C1106 C1110 1.368 . S
C1107 C1088 1.429 . S
C1107 C1101 1.429 . S
C1107 C1108 1.523 . S
C1108 C1089 1.368 . S
C1108 C1102 1.368 . S
C1108 C1107 1.523 . S
C1109 C1093 1.429 . S
C1109 C1105 1.429 . S
C1109 C1110 1.523 . S
C1110 C1094 1.368 . S
C1110 C1106 1.368 . S
C1110 C1109 1.523 . S
H1111 C1086 0.950 . S
H1112 C1088 0.950 . S
H1113 C1089 0.949 . S
H1114 C1091 0.950 . S
H1115 C1093 0.950 . S
C1116 C1117 1.349 . S
C1116 C1118 1.327 . S
C1116 H1141 0.950 . S
C1117 C1116 1.349 . S
C1117 C1133 1.349 . S
C1118 C1116 1.327 . S
C1118 C1137 1.429 . S
C1118 H1142 0.950 . S
C1119 C1136 1.574 . S
C1119 C1138 1.368 . S
C1119 H1143 0.949 . S
H1120 C1124 0.949 . S
C1121 C1122 1.349 . S
C1121 C1123 1.327 . S
C1121 H1144 0.950 . S
C1122 C1121 1.349 . S
C1122 C1134 1.349 . S
C1123 C1121 1.327 . S
C1123 C1139 1.429 . S
C1123 H1145 0.950 . S
C1124 H1120 0.949 . S
C1124 C1132 1.574 . S
C1124 C1140 1.368 . S
H1125 C1133 0.950 . S
H1126 C1131 0.950 . S
H1127 C1132 0.949 . S
H1128 C1134 0.950 . S
H1129 C1135 0.950 . S
H1130 C1136 0.949 . S
C1131 H1126 0.950 . S
C1131 C1133 1.327 . S
C1131 C1137 1.429 . S
C1132 C1124 1.574 . S
C1132 H1127 0.949 . S
C1132 C1138 1.368 . S
C1133 C1117 1.349 . S
C1133 H1125 0.950 . S
C1133 C1131 1.327 . S
C1134 C1122 1.349 . S
C1134 H1128 0.950 . S
C1134 C1135 1.327 . S
C1135 H1129 0.950 . S
C1135 C1134 1.327 . S
C1135 C1139 1.429 . S
C1136 C1119 1.574 . S
C1136 H1130 0.949 . S
C1136 C1140 1.368 . S
C1137 C1118 1.429 . S
C1137 C1131 1.429 . S
C1137 C1138 1.523 . S
C1138 C1119 1.368 . S
C1138 C1132 1.368 . S
C1138 C1137 1.523 . S
C1139 C1123 1.429 . S
C1139 C1135 1.429 . S
C1139 C1140 1.523 . S
C1140 C1124 1.368 . S
C1140 C1136 1.368 . S
C1140 C1139 1.523 . S
H1141 C1116 0.950 . S
H1142 C1118 0.950 . S
H1143 C1119 0.949 . S
H1144 C1121 0.950 . S
H1145 C1123 0.950 . S
C1146 C1147 1.349 . S
C1146 C1148 1.327 . S
C1146 H1171 0.950 . S
C1147 C1146 1.349 . S
C1147 C1163 1.349 . S
C1148 C1146 1.327 . S
C1148 C1167 1.429 . S
C1148 H1172 0.950 . S
C1149 C1166 1.574 . S
C1149 C1168 1.368 . S
C1149 H1173 0.949 . S
H1150 C1154 0.949 . S
C1151 C1152 1.349 . S
C1151 C1153 1.327 . S
C1151 H1174 0.950 . S
C1152 C1151 1.349 . S
C1152 C1164 1.349 . S
C1153 C1151 1.327 . S
C1153 C1169 1.429 . S
C1153 H1175 0.950 . S
C1154 H1150 0.949 . S
C1154 C1162 1.574 . S
C1154 C1170 1.368 . S
H1155 C1163 0.950 . S
H1156 C1161 0.950 . S
H1157 C1162 0.949 . S
H1158 C1164 0.950 . S
H1159 C1165 0.950 . S
H1160 C1166 0.949 . S
C1161 H1156 0.950 . S
C1161 C1163 1.327 . S
C1161 C1167 1.429 . S
C1162 C1154 1.574 . S
C1162 H1157 0.949 . S
C1162 C1168 1.368 . S
C1163 C1147 1.349 . S
C1163 H1155 0.950 . S
C1163 C1161 1.327 . S
C1164 C1152 1.349 . S
C1164 H1158 0.950 . S
C1164 C1165 1.327 . S
C1165 H1159 0.950 . S
C1165 C1164 1.327 . S
C1165 C1169 1.429 . S
C1166 C1149 1.574 . S
C1166 H1160 0.949 . S
C1166 C1170 1.368 . S
C1167 C1148 1.429 . S
C1167 C1161 1.429 . S
C1167 C1168 1.523 . S
C1168 C1149 1.368 . S
C1168 C1162 1.368 . S
C1168 C1167 1.523 . S
C1169 C1153 1.429 . S
C1169 C1165 1.429 . S
C1169 C1170 1.523 . S
C1170 C1154 1.368 . S
C1170 C1166 1.368 . S
C1170 C1169 1.523 . S
H1171 C1146 0.950 . S
H1172 C1148 0.950 . S
H1173 C1149 0.949 . S
H1174 C1151 0.950 . S
H1175 C1153 0.950 . S
C1176 C1177 1.349 . S
C1176 C1178 1.327 . S
C1176 H1201 0.950 . S
C1177 C1176 1.349 . S
C1177 C1193 1.349 . S
C1178 C1176 1.327 . S
C1178 C1197 1.429 . S
C1178 H1202 0.950 . S
C1179 C1196 1.574 . S
C1179 C1198 1.368 . S
C1179 H1203 0.949 . S
H1180 C1184 0.949 . S
C1181 C1182 1.349 . S
C1181 C1183 1.327 . S
C1181 H1204 0.950 . S
C1182 C1181 1.349 . S
C1182 C1194 1.349 . S
C1183 C1181 1.327 . S
C1183 C1199 1.429 . S
C1183 H1205 0.950 . S
C1184 H1180 0.949 . S
C1184 C1192 1.574 . S
C1184 C1200 1.368 . S
H1185 C1193 0.950 . S
H1186 C1191 0.950 . S
H1187 C1192 0.949 . S
H1188 C1194 0.950 . S
H1189 C1195 0.950 . S
H1190 C1196 0.949 . S
C1191 H1186 0.950 . S
C1191 C1193 1.327 . S
C1191 C1197 1.429 . S
C1192 C1184 1.574 . S
C1192 H1187 0.949 . S
C1192 C1198 1.368 . S
C1193 C1177 1.349 . S
C1193 H1185 0.950 . S
C1193 C1191 1.327 . S
C1194 C1182 1.349 . S
C1194 H1188 0.950 . S
C1194 C1195 1.327 . S
C1195 H1189 0.950 . S
C1195 C1194 1.327 . S
C1195 C1199 1.429 . S
C1196 C1179 1.574 . S
C1196 H1190 0.949 . S
C1196 C1200 1.368 . S
C1197 C1178 1.429 . S
C1197 C1191 1.429 . S
C1197 C1198 1.523 . S
C1198 C1179 1.368 . S
C1198 C1192 1.368 . S
C1198 C1197 1.523 . S
C1199 C1183 1.429 . S
C1199 C1195 1.429 . S
C1199 C1200 1.523 . S
C1200 C1184 1.368 . S
C1200 C1196 1.368 . S
C1200 C1199 1.523 . S
H1201 C1176 0.950 . S
H1202 C1178 0.950 . S
H1203 C1179 0.949 . S
H1204 C1181 0.950 . S
H1205 C1183 0.950 . S
C1206 C1207 1.349 . S
C1206 C1208 1.327 . S
C1206 H1231 0.950 . S
C1207 C1206 1.349 . S
C1207 C1223 1.349 . S
C1208 C1206 1.327 . S
C1208 C1227 1.429 . S
C1208 H1232 0.950 . S
C1209 C1226 1.574 . S
C1209 C1228 1.368 . S
C1209 H1233 0.949 . S
H1210 C1214 0.949 . S
C1211 C1212 1.349 . S
C1211 C1213 1.327 1_554 S
C1211 H1234 0.950 . S
C1212 C1211 1.349 . S
C1212 C1224 1.349 . S
C1213 C1211 1.327 1_556 S
C1213 C1229 1.429 . S
C1213 H1235 0.950 . S
C1214 H1210 0.949 . S
C1214 C1222 1.574 . S
C1214 C1230 1.368 . S
H1215 C1223 0.950 . S
H1216 C1221 0.950 . S
H1217 C1222 0.949 . S
H1218 C1224 0.950 . S
H1219 C1225 0.950 . S
H1220 C1226 0.949 . S
C1221 H1216 0.950 . S
C1221 C1223 1.327 . S
C1221 C1227 1.429 . S
C1222 C1214 1.574 . S
C1222 H1217 0.949 . S
C1222 C1228 1.368 . S
C1223 C1207 1.349 . S
C1223 H1215 0.950 . S
C1223 C1221 1.327 . S
C1224 C1212 1.349 . S
C1224 H1218 0.950 . S
C1224 C1225 1.327 1_554 S
C1225 H1219 0.950 . S
C1225 C1224 1.327 1_556 S
C1225 C1229 1.429 . S
C1226 C1209 1.574 . S
C1226 H1220 0.949 . S
C1226 C1230 1.368 . S
C1227 C1208 1.429 . S
C1227 C1221 1.429 . S
C1227 C1228 1.523 . S
C1228 C1209 1.368 . S
C1228 C1222 1.368 . S
C1228 C1227 1.523 . S
C1229 C1213 1.429 . S
C1229 C1225 1.429 . S
C1229 C1230 1.523 . S
C1230 C1214 1.368 . S
C1230 C1226 1.368 . S
C1230 C1229 1.523 . S
H1231 C1206 0.950 . S
H1232 C1208 0.950 . S
H1233 C1209 0.949 . S
H1234 C1211 0.950 . S
H1235 C1213 0.950 . S
C1236 C1237 1.349 . S
C1236 C1238 1.327 . S
C1236 H1261 0.950 . S
C1237 C1236 1.349 . S
C1237 C1253 1.349 . S
C1238 C1236 1.327 . S
C1238 C1257 1.429 . S
C1238 H1262 0.950 . S
C1239 C1256 1.574 . S
C1239 C1258 1.368 . S
C1239 H1263 0.949 . S
H1240 C1244 0.949 1_554 S
C1241 C1242 1.349 . S
C1241 C1243 1.327 . S
C1241 H1264 0.950 . S
C1242 C1241 1.349 . S
C1242 C1254 1.349 . S
C1243 C1241 1.327 . S
C1243 C1259 1.429 . S
C1243 H1265 0.950 . S
C1244 H1240 0.949 1_556 S
C1244 C1252 1.574 . S
C1244 C1260 1.368 1_556 S
H1245 C1253 0.950 . S
H1246 C1251 0.950 . S
H1247 C1252 0.949 . S
H1248 C1254 0.950 . S
H1249 C1255 0.950 . S
H1250 C1256 0.949 1_554 S
C1251 H1246 0.950 . S
C1251 C1253 1.327 . S
C1251 C1257 1.429 . S
C1252 C1244 1.574 . S
C1252 H1247 0.949 . S
C1252 C1258 1.368 . S
C1253 C1237 1.349 . S
C1253 H1245 0.950 . S
C1253 C1251 1.327 . S
C1254 C1242 1.349 . S
C1254 H1248 0.950 . S
C1254 C1255 1.327 . S
C1255 H1249 0.950 . S
C1255 C1254 1.327 . S
C1255 C1259 1.429 . S
C1256 C1239 1.574 . S
C1256 H1250 0.949 1_556 S
C1256 C1260 1.368 1_556 S
C1257 C1238 1.429 . S
C1257 C1251 1.429 . S
C1257 C1258 1.523 . S
C1258 C1239 1.368 . S
C1258 C1252 1.368 . S
C1258 C1257 1.523 . S
C1259 C1243 1.429 . S
C1259 C1255 1.429 . S
C1259 C1260 1.523 . S
C1260 C1244 1.368 1_554 S
C1260 C1256 1.368 1_554 S
C1260 C1259 1.523 . S
H1261 C1236 0.950 . S
H1262 C1238 0.950 . S
H1263 C1239 0.949 . S
H1264 C1241 0.950 . S
H1265 C1243 0.950 . S
C1266 C1267 1.349 . S
C1266 C1268 1.327 . S
C1266 H1291 0.950 . S
C1267 C1266 1.349 . S
C1267 C1283 1.349 . S
C1268 C1266 1.327 . S
C1268 C1287 1.429 . S
C1268 H1292 0.950 . S
C1269 C1286 1.574 . S
C1269 C1288 1.368 . S
C1269 H1293 0.949 . S
H1270 C1274 0.949 . S
C1271 C1272 1.349 . S
C1271 C1273 1.327 . S
C1271 H1294 0.950 . S
C1272 C1271 1.349 . S
C1272 C1284 1.349 . S
C1273 C1271 1.327 . S
C1273 C1289 1.429 . S
C1273 H1295 0.950 . S
C1274 H1270 0.949 . S
C1274 C1282 1.574 . S
C1274 C1290 1.368 . S
H1275 C1283 0.950 . S
H1276 C1281 0.950 . S
H1277 C1282 0.949 . S
H1278 C1284 0.950 . S
H1279 C1285 0.950 . S
H1280 C1286 0.949 . S
C1281 H1276 0.950 . S
C1281 C1283 1.327 . S
C1281 C1287 1.429 . S
C1282 C1274 1.574 . S
C1282 H1277 0.949 . S
C1282 C1288 1.368 . S
C1283 C1267 1.349 . S
C1283 H1275 0.950 . S
C1283 C1281 1.327 . S
C1284 C1272 1.349 . S
C1284 H1278 0.950 . S
C1284 C1285 1.327 . S
C1285 H1279 0.950 . S
C1285 C1284 1.327 . S
C1285 C1289 1.429 . S
C1286 C1269 1.574 . S
C1286 H1280 0.949 . S
C1286 C1290 1.368 . S
C1287 C1268 1.429 . S
C1287 C1281 1.429 . S
C1287 C1288 1.523 . S
C1288 C1269 1.368 . S
C1288 C1282 1.368 . S
C1288 C1287 1.523 . S
C1289 C1273 1.429 . S
C1289 C1285 1.429 . S
C1289 C1290 1.523 1_556 S
C1290 C1274 1.368 . S
C1290 C1286 1.368 . S
C1290 C1289 1.523 1_554 S
H1291 C1266 0.950 . S
H1292 C1268 0.950 . S
H1293 C1269 0.949 . S
H1294 C1271 0.950 . S
H1295 C1273 0.950 . S
C397 C285 1.642 . S
C402 C21 1.642 . S
C427 C318 1.642 . S
C432 C54 1.642 . S
C457 C351 1.642 . S
C462 C87 1.642 . S
C487 C384 1.642 . S
C492 C120 1.642 . S
C517 C153 1.642 . S
C522 C219 1.642 . S
C547 C252 1.642 . S
C552 C186 1.642 . S
C577 C7 1.111 1_556 S
C582 C370 1.111 . S
C607 C205 1.111 . S
C612 C40 1.111 . S
C637 C73 1.112 . S
C642 C238 1.107 1_554 S
C667 C106 1.111 . S
C672 C271 1.112 . S
C697 C304 1.111 . S
C702 C139 1.111 . S
C727 C172 1.112 . S
C732 C337 1.112 . S
C757 C18 1.272 . S
C762 C348 1.272 . S
C787 C51 1.270 . S
C792 C381 1.270 . S
C817 C216 1.271 . S
C822 C84 1.271 . S
C847 C249 1.272 . S
C852 C117 1.272 . S
C877 C150 1.270 . S
C882 C282 1.270 . S
C907 C315 1.271 . S
C912 C183 1.271 . S
C937 N13 0.825 . S
C942 N2 0.825 . S
C967 N35 0.825 1_556 S
C972 N46 0.825 . S
C997 N79 0.825 . S
C1002 N68 0.825 . S
C1027 N112 0.825 . S
C1032 N101 0.825 . S
C1057 N134 0.825 . S
C1062 N145 0.825 . S
C1087 N167 0.825 . S
C1092 N178 0.825 . S
C1117 N200 0.825 1_554 S
C1122 N211 0.825 . S
C1147 N233 0.825 . S
C1152 N244 0.825 . S
C1177 N266 0.825 . S
C1182 N277 0.825 . S
C1207 N299 0.825 . S
C1212 N310 0.825 . S
C1237 N332 0.825 . S
C1242 N343 0.825 . S
C1267 N376 0.825 . S
C1272 N365 0.825 . S
