# Generated by pormake.
# Topology tfs, (6)-cn, num edge types: 1
# Building blocks:
#     Node 0, Type 0, BuildingBlock: BETDAH_clean_sbu_0, # of connection points: 6
#     Node 1, Type 0, BuildingBlock: BETDAH_clean_sbu_0, # of connection points: 6
#     Node 2, Type 0, BuildingBlock: BETDAH_clean_sbu_0, # of connection points: 6
#     Node 3, Type 0, BuildingBlock: BETDAH_clean_sbu_0, # of connection points: 6
#     Node 4, Type 0, BuildingBlock: BETDAH_clean_sbu_0, # of connection points: 6
#     Node 5, Type 0, BuildingBlock: BETDAH_clean_sbu_0, # of connection points: 6
#     Edge 6, Type (0, 0), BuildingBlock: FUNLAD_clean_linker_0, # of connection points: 2
#     Edge 7, Type (0, 0), BuildingBlock: FUNLAD_clean_linker_0, # of connection points: 2
#     Edge 8, Type (0, 0), BuildingBlock: FUNLAD_clean_linker_0, # of connection points: 2
#     Edge 9, Type (0, 0), BuildingBlock: FUNLAD_clean_linker_0, # of connection points: 2
#     Edge 10, Type (0, 0), BuildingBlock: FUNLAD_clean_linker_0, # of connection points: 2
#     Edge 11, Type (0, 0), BuildingBlock: FUNLAD_clean_linker_0, # of connection points: 2
#     Edge 12, Type (0, 0), BuildingBlock: FUNLAD_clean_linker_0, # of connection points: 2
#     Edge 13, Type (0, 0), BuildingBlock: FUNLAD_clean_linker_0, # of connection points: 2
#     Edge 14, Type (0, 0), BuildingBlock: FUNLAD_clean_linker_0, # of connection points: 2
#     Edge 15, Type (0, 0), BuildingBlock: FUNLAD_clean_linker_0, # of connection points: 2
#     Edge 16, Type (0, 0), BuildingBlock: FUNLAD_clean_linker_0, # of connection points: 2
#     Edge 17, Type (0, 0), BuildingBlock: FUNLAD_clean_linker_0, # of connection points: 2
#     Edge 18, Type (0, 0), BuildingBlock: FUNLAD_clean_linker_0, # of connection points: 2
#     Edge 19, Type (0, 0), BuildingBlock: FUNLAD_clean_linker_0, # of connection points: 2
#     Edge 20, Type (0, 0), BuildingBlock: FUNLAD_clean_linker_0, # of connection points: 2
#     Edge 21, Type (0, 0), BuildingBlock: FUNLAD_clean_linker_0, # of connection points: 2
#     Edge 22, Type (0, 0), BuildingBlock: FUNLAD_clean_linker_0, # of connection points: 2
#     Edge 23, Type (0, 0), BuildingBlock: FUNLAD_clean_linker_0, # of connection points: 2
# Relax obj value: 0.540
# Max RMSD: 0.455
# Mean RMSD: 0.359
data_MOF--net-tfs--node1-BETDAH_clean_sbu_0--edge1-FUNLAD_clean_linker_0
_symmetry_space_group_name_H-M    P1
_symmetry_Int_Tables_number       1
_symmetry_cell_setting            triclinic
loop_
_symmetry_equiv_pos_as_xyz
'x, y, z'
_cell_length_a     59.939642
_cell_length_b     56.494274
_cell_length_c     14.460083
_cell_angle_alpha  99.046017
_cell_angle_beta   92.59112
_cell_angle_gamma 126.64075
loop_
_atom_site_label
_atom_site_type_symbol
_atom_site_fract_x
_atom_site_fract_y
_atom_site_fract_z
_atom_type_partial_charge
Ho0 Ho 0.31078 0.44023 0.61576 0.0
Ho1 Ho 0.30362 0.48944 0.60481 0.0
C2 C 0.24938 0.42079 0.57421 0.0
C3 C 0.32067 0.40378 0.65545 0.0
C4 C 0.33436 0.39098 0.61443 0.0
C5 C 0.32844 0.365 0.63902 0.0
C6 C 0.3388 0.35053 0.59385 0.0
C7 C 0.35536 0.3618 0.52297 0.0
C8 C 0.36171 0.38831 0.49992 0.0
C9 C 0.35121 0.40271 0.54502 0.0
C10 C 0.30308 0.44691 0.43855 0.0
C11 C 0.36613 0.51052 0.63813 0.0
C12 C 0.29103 0.52441 0.57344 0.0
C13 C 0.29596 0.55137 0.632 0.0
C14 C 0.2828 0.56297 0.59909 0.0
C15 C 0.28664 0.58801 0.65584 0.0
C16 C 0.30371 0.60185 0.74669 0.0
C17 C 0.31689 0.59008 0.7792 0.0
C18 C 0.31303 0.56505 0.72237 0.0
C19 C 0.30825 0.48092 0.78283 0.0
O20 O 0.26524 0.41732 0.62823 0.0
O21 O 0.26121 0.44507 0.5384 0.0
O22 O 0.33693 0.43283 0.6949 0.0
O23 O 0.29761 0.39483 0.60244 0.0
O24 O 0.29538 0.42158 0.4568 0.0
O25 O 0.31698 0.46721 0.51293 0.0
O26 O 0.34963 0.51645 0.60377 0.0
O27 O 0.35591 0.48408 0.65906 0.0
O28 O 0.27391 0.49931 0.60107 0.0
O29 O 0.31342 0.5277 0.55058 0.0
O30 O 0.31873 0.50691 0.76318 0.0
O31 O 0.2959 0.46121 0.70638 0.0
H32 H 0.31514 0.3554 0.69153 0.0
H33 H 0.33307 0.32996 0.61253 0.0
H34 H 0.37468 0.39788 0.4467 0.0
H35 H 0.3558 0.42263 0.5245 0.0
H36 H 0.2695 0.55262 0.52957 0.0
H37 H 0.27654 0.59678 0.628 0.0
H38 H 0.32993 0.59999 0.84905 0.0
H39 H 0.32326 0.5563 0.74915 0.0
Ho40 Ho 0.85793 0.17079 0.41543 0.0
Ho41 Ho 0.80292 0.14972 0.28373 0.0
C42 C 0.79738 0.10756 0.41775 0.0
C43 C 0.89989 0.18998 0.54501 0.0
C44 C 0.9306 0.2086 0.54831 0.0
C45 C 0.94867 0.21777 0.63329 0.0
C46 C 0.97791 0.23547 0.6365 0.0
C47 C 0.98958 0.24429 0.55458 0.0
C48 C 0.97123 0.23502 0.46954 0.0
C49 C 0.94205 0.21741 0.46655 0.0
C50 C 0.84902 0.14231 0.23333 0.0
C51 C 0.86419 0.21004 0.26933 0.0
C52 C 0.76264 0.13522 0.15557 0.0
C53 C 0.73723 0.13357 0.16 0.0
C54 C 0.72808 0.14149 0.08831 0.0
C55 C 0.70631 0.14387 0.09709 0.0
C56 C 0.69323 0.13833 0.17785 0.0
C57 C 0.70181 0.12935 0.24811 0.0
C58 C 0.72373 0.12716 0.23954 0.0
C59 C 0.8119 0.17897 0.46462 0.0
O60 O 0.82242 0.13115 0.46765 0.0
O61 O 0.78696 0.1078 0.33544 0.0
O62 O 0.88885 0.204 0.53984 0.0
O63 O 0.88497 0.16326 0.48649 0.0
O64 O 0.87383 0.16291 0.2849 0.0
O65 O 0.83065 0.13651 0.28416 0.0
O66 O 0.83877 0.1862 0.22346 0.0
O67 O 0.875 0.21125 0.3534 0.0
O68 O 0.76307 0.11519 0.18863 0.0
O69 O 0.78653 0.16251 0.18276 0.0
O70 O 0.78721 0.15923 0.41212 0.0
O71 O 0.83019 0.18408 0.41432 0.0
H72 H 0.94017 0.2113 0.69721 0.0
H73 H 0.99139 0.24255 0.70347 0.0
H74 H 0.97937 0.24099 0.40479 0.0
H75 H 0.92838 0.21056 0.40025 0.0
H76 H 0.73835 0.14671 0.02672 0.0
H77 H 0.69997 0.15049 0.04124 0.0
H78 H 0.69236 0.12522 0.31156 0.0
H79 H 0.73069 0.12137 0.2964 0.0
Ho80 Ho 0.65056 0.7926 0.63211 0.0
Ho81 Ho 0.63049 0.82038 0.77543 0.0
C82 C 0.67698 0.86418 0.66236 0.0
C83 C 0.66371 0.77322 0.48661 0.0
C84 C 0.68714 0.77253 0.46829 0.0
C85 C 0.68387 0.75363 0.3849 0.0
C86 C 0.70398 0.74886 0.3729 0.0
C87 C 0.7277 0.76295 0.4444 0.0
C88 C 0.73162 0.78324 0.52572 0.0
C89 C 0.71141 0.7879 0.53775 0.0
C90 C 0.67589 0.8109 0.8157 0.0
C91 C 0.59986 0.74868 0.73187 0.0
C92 C 0.6181 0.84141 0.91836 0.0
C93 C 0.62096 0.86927 0.94753 0.0
C94 C 0.60345 0.86983 0.00709 0.0
C95 C 0.60333 0.89476 0.02522 0.0
C96 C 0.62073 0.91955 0.9838 0.0
C97 C 0.63936 0.91952 0.92811 0.0
C98 C 0.63939 0.89452 0.90986 0.0
C99 C 0.60805 0.80458 0.58916 0.0
O100 O 0.67194 0.83984 0.60657 0.0
O101 O 0.66601 0.86296 0.74033 0.0
O102 O 0.64846 0.75655 0.54419 0.0
O103 O 0.66925 0.79981 0.50466 0.0
O104 O 0.67155 0.78831 0.75599 0.0
O105 O 0.66862 0.82338 0.77229 0.0
O106 O 0.60891 0.77297 0.79862 0.0
O107 O 0.60919 0.75134 0.6501 0.0
O108 O 0.64174 0.84483 0.92134 0.0
O109 O 0.59991 0.82273 0.84045 0.0
O110 O 0.61383 0.8281 0.64862 0.0
O111 O 0.61312 0.79052 0.63354 0.0
H112 H 0.6651 0.74146 0.33098 0.0
H113 H 0.70009 0.7328 0.31003 0.0
H114 H 0.74984 0.79476 0.58144 0.0
H115 H 0.71415 0.80254 0.60279 0.0
H116 H 0.58902 0.85044 0.03635 0.0
H117 H 0.58841 0.89379 0.06718 0.0
H118 H 0.6532 0.93835 0.89597 0.0
H119 H 0.65308 0.89445 0.86369 0.0
Ho120 Ho 0.85518 0.53602 0.23044 0.0
Ho121 Ho 0.87744 0.50781 0.09837 0.0
C122 C 0.9151 0.55177 0.29559 0.0
C123 C 0.84034 0.55668 0.36614 0.0
C124 C 0.83037 0.57495 0.37748 0.0
C125 C 0.82509 0.58257 0.46625 0.0
C126 C 0.81697 0.60129 0.4794 0.0
C127 C 0.81412 0.61274 0.40384 0.0
C128 C 0.81918 0.60474 0.31455 0.0
C129 C 0.82722 0.58595 0.30146 0.0
C130 C 0.87801 0.56296 0.08553 0.0
C131 C 0.81628 0.49174 0.03419 0.0
C132 C 0.89392 0.48661 0.97119 0.0
C133 C 0.8954 0.46143 0.96798 0.0
C134 C 0.91602 0.46132 0.9261 0.0
C135 C 0.91923 0.439 0.93363 0.0
C136 C 0.90209 0.41689 0.98436 0.0
C137 C 0.88091 0.41658 0.02325 0.0
C138 C 0.87758 0.43857 0.01511 0.0
C139 C 0.85358 0.47962 0.24061 0.0
O140 O 0.89129 0.54424 0.32181 0.0
O141 O 0.91647 0.54496 0.20521 0.0
O142 O 0.82302 0.52956 0.31045 0.0
O143 O 0.86638 0.57096 0.35174 0.0
O144 O 0.85873 0.56274 0.12353 0.0
O145 O 0.88608 0.55197 0.13396 0.0
O146 O 0.83873 0.49538 0.00632 0.0
O147 O 0.81629 0.50196 0.12298 0.0
O148 O 0.91138 0.51035 0.04052 0.0
O149 O 0.8685 0.47906 0.96187 0.0
O150 O 0.87269 0.4797 0.20227 0.0
O151 O 0.84638 0.49165 0.19378 0.0
H152 H 0.82762 0.57436 0.52572 0.0
H153 H 0.81352 0.60731 0.54922 0.0
H154 H 0.8168 0.6129 0.25475 0.0
H155 H 0.83122 0.58022 0.23238 0.0
H156 H 0.93008 0.47891 0.88998 0.0
H157 H 0.93572 0.43969 0.90307 0.0
H158 H 0.86711 0.3995 0.06136 0.0
H159 H 0.86148 0.43813 0.04789 0.0
Ho160 Ho 0.26179 0.83075 0.93254 0.0
Ho161 Ho 0.31692 0.86413 0.84716 0.0
C162 C 0.27076 0.87419 0.80068 0.0
C163 C 0.22032 0.80494 0.02417 0.0
C164 C 0.18977 0.78303 0.98647 0.0
C165 C 0.17448 0.7538 0.00354 0.0
C166 C 0.14776 0.73043 0.94986 0.0
C167 C 0.13576 0.73603 0.87904 0.0
C168 C 0.15012 0.76578 0.86714 0.0
C169 C 0.17697 0.78906 0.91993 0.0
C170 C 0.25631 0.80549 0.74984 0.0
C171 C 0.30646 0.81693 0.96509 0.0
C172 C 0.3587 0.89119 0.7574 0.0
C173 C 0.3894 0.91034 0.79016 0.0
C174 C 0.40622 0.90656 0.73559 0.0
C175 C 0.43487 0.92238 0.77091 0.0
C176 C 0.44717 0.94228 0.86151 0.0
C177 C 0.43042 0.94684 0.91433 0.0
C178 C 0.4018 0.93092 0.87926 0.0
C179 C 0.3216 0.888 0.03131 0.0
O180 O 0.26062 0.86512 0.87795 0.0
O181 O 0.28835 0.86988 0.76542 0.0
O182 O 0.23446 0.7947 0.00224 0.0
O183 O 0.23326 0.83274 0.01426 0.0
O184 O 0.23631 0.80451 0.78465 0.0
O185 O 0.27696 0.81795 0.81522 0.0
O186 O 0.31792 0.82905 0.89326 0.0
O187 O 0.28853 0.82025 0.00372 0.0
O188 O 0.34615 0.9026 0.78937 0.0
O189 O 0.34469 0.86262 0.75989 0.0
O190 O 0.34139 0.88837 -0.00274 0.0
O191 O 0.30158 0.87671 0.96476 0.0
H192 H 0.18398 0.74859 0.05411 0.0
H193 H 0.13695 0.70772 0.96105 0.0
H194 H 0.14143 0.77069 0.81263 0.0
H195 H 0.18831 0.81128 0.90432 0.0
H196 H 0.39699 0.89063 0.66704 0.0
H197 H 0.44706 0.91797 0.72898 0.0
H198 H 0.4393 0.96225 0.98378 0.0
H199 H 0.38924 0.93418 0.92307 0.0
Ho200 Ho 0.46442 0.18143 0.258 0.0
Ho201 Ho 0.50216 0.23516 0.16072 0.0
C202 C 0.44217 0.21856 0.21712 0.0
C203 C 0.44409 0.14451 0.37017 0.0
C204 C 0.4181 0.12558 0.40867 0.0
C205 C 0.41981 0.11778 0.49447 0.0
C206 C 0.39527 0.09653 0.5265 0.0
C207 C 0.36849 0.08264 0.47308 0.0
C208 C 0.36691 0.09184 0.38957 0.0
C209 C 0.39154 0.11318 0.35763 0.0
C210 C 0.45411 0.16847 0.06802 0.0
C211 C 0.52604 0.2011 0.21276 0.0
C212 C 0.52098 0.26876 0.03884 0.0
C213 C 0.54157 0.27691 0.97467 0.0
C214 C 0.53835 0.28505 0.89126 0.0
C215 C 0.55923 0.2957 0.83433 0.0
C216 C 0.58394 0.29888 0.86097 0.0
C217 C 0.5862 0.28901 0.94211 0.0
C218 C 0.56513 0.27794 -0.00201 0.0
C219 C 0.51294 0.24834 0.35081 0.0
O220 O 0.43912 0.19862 0.26354 0.0
O221 O 0.46301 0.23283 0.168 0.0
O222 O 0.44247 0.13611 0.27888 0.0
O223 O 0.45898 0.17391 0.40046 0.0
O224 O 0.43391 0.15596 0.1174 0.0
O225 O 0.47777 0.186 0.12095 0.0
O226 O 0.52624 0.21681 0.15363 0.0
O227 O 0.50654 0.18901 0.26799 0.0
O228 O 0.53135 0.27906 0.13012 0.0
O229 O 0.49807 0.24058 0.01753 0.0
O230 O 0.53293 0.2618 0.30112 0.0
O231 O 0.48931 0.23059 0.29799 0.0
H232 H 0.44016 0.12715 0.53474 0.0
H233 H 0.39736 0.08979 0.59043 0.0
H234 H 0.34664 0.08189 0.34751 0.0
H235 H 0.38983 0.11916 0.29147 0.0
H236 H 0.52009 0.28403 0.87166 0.0
H237 H 0.55644 0.30241 0.77131 0.0
H238 H 0.60497 0.29139 0.96594 0.0
H239 H 0.56783 0.2714 0.06162 0.0
C240 C 0.43191 0.25524 0.20589 0.0
C241 C 0.42505 0.22933 0.235 0.0
C242 C 0.41955 0.26889 0.23817 0.0
C243 C 0.39977 0.25674 0.29977 0.0
C244 C 0.39183 0.22991 0.3244 0.0
C245 C 0.40424 0.21634 0.29239 0.0
C246 C 0.38877 0.27245 0.34657 0.0
C247 C 0.39104 0.29556 0.31992 0.0
C248 C 0.38183 0.31226 0.37338 0.0
C249 C 0.3739 0.32656 0.32516 0.0
C250 C 0.3655 0.34276 0.37352 0.0
C251 C 0.36518 0.34539 0.4718 0.0
H252 H 0.38903 0.30566 0.51258 0.0
C253 C 0.37376 0.33163 0.52044 0.0
C254 C 0.38201 0.3153 0.472 0.0
H255 H 0.37446 0.33376 0.59645 0.0
H256 H 0.44794 0.26598 0.16209 0.0
H257 H 0.4267 0.2897 0.21806 0.0
H258 H 0.37664 0.21992 0.37146 0.0
H259 H 0.39834 0.19636 0.31623 0.0
H260 H 0.3783 0.26447 0.40643 0.0
H261 H 0.39916 0.30217 0.25554 0.0
H262 H 0.37384 0.32488 0.24945 0.0
H263 H 0.35876 0.35274 0.33335 0.0
C264 C 0.20486 0.37642 0.6129 0.0
C265 C 0.21818 0.39919 0.56137 0.0
C266 C 0.17545 0.35759 0.60606 0.0
C267 C 0.15867 0.36099 0.54682 0.0
C268 C 0.17206 0.38346 0.49434 0.0
C269 C 0.2014 0.40225 0.50119 0.0
C270 C 0.12748 0.3429 0.54108 0.0
C271 C 0.11102 0.31606 0.56613 0.0
C272 C 0.07987 0.29833 0.56196 0.0
C273 C 0.06625 0.27515 0.61182 0.0
C274 C 0.0371 0.25776 0.6099 0.0
C275 C 1.0207 0.26301 0.55755 0.0
H276 H 0.07256 0.32033 0.467 0.0
C277 C 0.03425 0.28605 0.50707 0.0
C278 C 0.06338 0.30339 0.50877 0.0
H279 H 0.02235 0.29089 0.46649 0.0
H280 H 0.2172 0.37366 0.66062 0.0
H281 H 0.16624 0.34118 0.64976 0.0
H282 H 0.15978 0.38672 0.44834 0.0
H283 H 0.21093 0.4195 0.46026 0.0
H284 H 0.11799 0.3525 0.51488 0.0
H285 H 0.12061 0.30651 0.59207 0.0
H286 H 0.07823 0.27045 0.6527 0.0
H287 H 0.02736 0.23987 0.64833 0.0
C288 C 0.79493 0.07292 0.51305 0.0
C289 C 0.78109 0.07941 0.45292 0.0
C290 C 0.77973 0.04544 0.54158 0.0
C291 C 0.75032 0.02417 0.51183 0.0
C292 C 0.73639 0.03112 0.45448 0.0
C293 C 0.75166 0.05827 0.42412 0.0
C294 C 0.73358 0.99504 0.54205 0.0
C295 C 0.74301 0.97883 0.54977 0.0
C296 C 0.72597 0.9495 0.57896 0.0
C297 C 0.72769 0.92638 0.53964 0.0
C298 C 0.71173 0.89853 0.56615 0.0
C299 C 0.69432 0.89363 0.63447 0.0
H300 H 0.70732 0.96222 0.68074 0.0
C301 C 0.69307 0.91706 0.67507 0.0
C302 C 0.70861 0.94461 0.6474 0.0
H303 H 0.67982 0.91405 0.72765 0.0
H304 H 0.81759 0.08879 0.53648 0.0
H305 H 0.79095 0.04101 0.58773 0.0
H306 H 0.7137 0.01523 0.4316 0.0
H307 H 0.7404 0.06276 0.37841 0.0
H308 H 0.71222 0.98585 0.55264 0.0
H309 H 0.76315 0.98643 0.52936 0.0
H310 H 0.74109 0.9297 0.48726 0.0
H311 H 0.71317 0.88097 0.53362 0.0
C312 C 0.81994 0.65912 0.38069 0.0
C313 C 0.80613 0.63317 0.41841 0.0
C314 C 0.81252 0.67847 0.39492 0.0
C315 C 0.79089 0.67207 0.44656 0.0
C316 C 0.77737 0.64632 0.48507 0.0
C317 C 0.78483 0.62704 0.47104 0.0
C318 C 0.78189 0.69162 0.46311 0.0
C319 C 0.78658 0.71117 0.40952 0.0
C320 C 0.77466 0.72792 0.42249 0.0
C321 C 0.7676 0.73519 0.34332 0.0
C322 C 0.75349 0.74791 0.35101 0.0
C323 C 0.74638 0.75386 0.43842 0.0
H324 H 0.77537 0.7316 0.57472 0.0
C325 C 0.75513 0.7484 0.51896 0.0
C326 C 0.76925 0.73574 0.51126 0.0
H327 H 0.74997 0.75262 0.58737 0.0
H328 H 0.83685 0.66477 0.3415 0.0
H329 H 0.82412 0.69855 0.36657 0.0
H330 H 0.76072 0.64087 0.52547 0.0
H331 H 0.77366 0.6071 0.50041 0.0
H332 H 0.76906 0.68802 0.51789 0.0
H333 H 0.79706 0.71292 0.34885 0.0
H334 H 0.77199 0.72988 0.27446 0.0
H335 H 0.74752 0.7524 0.28802 0.0
C336 C 0.08823 0.71264 0.78578 0.0
C337 C 0.10983 0.71065 0.81131 0.0
C338 C 0.06491 0.68973 0.71593 0.0
C339 C 0.06286 0.66444 0.66987 0.0
C340 C 0.08446 0.6625 0.69536 0.0
C341 C 0.10761 0.68523 0.76606 0.0
C342 C 0.03898 0.6405 0.59249 0.0
C343 C 1.01278 0.63214 0.59251 0.0
C344 C 0.98847 0.60901 0.51541 0.0
C345 C 0.96128 0.59367 0.53765 0.0
C346 C 0.93761 0.57401 0.46636 0.0
C347 C 0.94052 0.56955 0.37049 0.0
H348 H 1.01228 0.61557 0.40019 0.0
C349 C 0.96774 0.58403 0.34812 0.0
C350 C 0.99158 0.60367 0.42005 0.0
H351 H 0.97065 0.58113 0.27496 0.0
H352 H 0.08954 0.73209 0.81914 0.0
H353 H 0.04897 0.69233 0.69626 0.0
H354 H 0.08347 0.64339 0.66032 0.0
H355 H 0.12425 0.68341 0.78311 0.0
H356 H 0.04287 0.6287 0.53686 0.0
H357 H 1.0086 0.642 0.65347 0.0
H358 H 0.95831 0.59733 0.61044 0.0
H359 H 0.91696 0.56297 0.48658 0.0
C360 C 0.27004 0.89556 0.6639 0.0
C361 C 0.26539 0.89266 0.75713 0.0
C362 C 0.27193 0.91823 0.62902 0.0
C363 C 0.26914 0.93858 0.68675 0.0
C364 C 0.26221 0.93403 0.77724 0.0
C365 C 0.26015 0.91112 0.812 0.0
C366 C 0.27817 0.96737 0.66177 0.0
C367 C 0.28123 0.97194 0.57294 0.0
C368 C 0.29975 1.00236 0.55033 0.0
C369 C 0.30107 1.00361 0.45429 0.0
C370 C 0.32232 0.03029 0.429 0.0
C371 C 0.34279 0.05647 0.49933 0.0
H372 H 0.31908 0.02967 0.69559 0.0
C373 C 0.34018 0.05597 0.59524 0.0
C374 C 0.319 0.02924 0.62066 0.0
H375 H 0.35533 0.07592 0.65112 0.0
H376 H 0.27398 0.88149 0.61969 0.0
H377 H 0.27777 0.92097 0.55966 0.0
H378 H 0.26005 0.94938 0.82343 0.0
H379 H 0.2566 0.90944 0.88426 0.0
H380 H 0.28494 0.98602 0.7206 0.0
H381 H 0.27194 0.95251 0.51383 0.0
H382 H 0.28665 0.98337 0.3984 0.0
H383 H 0.32375 0.02972 0.3544 0.0
C384 C 0.33164 0.79427 0.95904 0.0
C385 C 0.31025 0.79506 -0.0092 0.0
C386 C 0.33125 0.76936 0.96001 0.0
C387 C 0.30943 0.7446 -0.00662 0.0
C388 C 0.28938 0.74659 0.03238 0.0
C389 C 0.28985 0.77165 0.03168 0.0
C390 C 0.30452 0.71498 0.97537 0.0
C391 C 0.3241 0.71159 0.9513 0.0
C392 C 0.31748 0.68184 0.90878 0.0
C393 C 0.33973 0.67985 0.90678 0.0
C394 C 0.33513 0.65363 0.85651 0.0
C395 C 0.30815 0.6288 0.80623 0.0
H396 H 0.27263 0.65733 0.85803 0.0
C397 C 0.2857 0.63043 0.8103 0.0
C398 C 0.29028 0.65663 0.86069 0.0
H399 H 0.2646 0.61157 0.7732 0.0
H400 H 0.34776 0.81203 0.92755 0.0
H401 H 0.34696 0.76889 0.92798 0.0
H402 H 0.27233 0.72793 0.05857 0.0
H403 H 0.27302 0.77153 0.05658 0.0
H404 H 0.28336 0.69507 0.97641 0.0
H405 H 0.3459 0.73148 0.95905 0.0
H406 H 0.36095 0.699 0.94208 0.0
H407 H 0.35297 0.65328 0.8541 0.0
C408 C 0.54773 0.17771 0.26881 0.0
C409 C 0.54732 0.19551 0.21184 0.0
C410 C 0.56725 0.17162 0.26338 0.0
C411 C 0.58674 0.18317 0.2004 0.0
C412 C 0.58643 0.2013 0.1449 0.0
C413 C 0.5671 0.20739 0.15046 0.0
C414 C 0.60789 0.17742 0.18904 0.0
C415 C 0.61028 0.15938 0.23266 0.0
C416 C 0.63184 0.15441 0.21765 0.0
C417 C 0.62743 0.12858 0.23866 0.0
C418 C 0.64719 0.12318 0.22552 0.0
C419 C 0.67186 0.14353 0.19097 0.0
H420 H 0.66198 0.19596 0.17177 0.0
C421 C 0.6765 0.16957 0.17124 0.0
C422 C 0.65692 0.1751 0.18504 0.0
H423 H 0.69566 0.18613 0.14704 0.0
H424 H 0.53285 0.16827 0.31706 0.0
H425 H 0.56676 0.15785 0.30854 0.0
H426 H 0.60116 0.21072 0.0961 0.0
H427 H 0.56757 0.22127 0.10547 0.0
H428 H 0.62182 0.18825 0.1391 0.0
H429 H 0.59551 0.14687 0.27844 0.0
H430 H 0.60852 0.11237 0.26472 0.0
H431 H 0.643 0.1029 0.24142 0.0
C432 C 0.56844 0.69221 0.67587 0.0
C433 C 0.5768 0.71802 0.7439 0.0
C434 C 0.54477 0.66339 0.6802 0.0
C435 C 0.52863 0.65968 0.75217 0.0
C436 C 0.53804 0.68521 0.82371 0.0
C437 C 0.56186 0.71412 0.8196 0.0
C438 C 0.50115 0.62993 0.75111 0.0
C439 C 0.48426 0.6098 0.66908 0.0
C440 C 0.4545 0.5829 0.66262 0.0
C441 C 0.4351 0.57409 0.58194 0.0
C442 C 0.40658 0.55015 0.57404 0.0
C443 C 0.39682 0.53382 0.64541 0.0
H444 H 0.45957 0.57206 0.79578 0.0
C445 C 0.41628 0.5415 0.72442 0.0
C446 C 0.44497 0.56616 0.73357 0.0
H447 H 0.40919 0.5292 0.78036 0.0
H448 H 0.57981 0.69427 0.61772 0.0
H449 H 0.53892 0.64416 0.62597 0.0
H450 H 0.52624 0.68297 0.88068 0.0
H451 H 0.5679 0.73349 0.87377 0.0
H452 H 0.49322 0.62621 0.81762 0.0
H453 H 0.49116 0.61512 0.60206 0.0
H454 H 0.44189 0.58641 0.52592 0.0
H455 H 0.39204 0.54454 0.51201 0.0
C456 C 0.90788 0.39014 0.09321 0.0
C457 C 0.90665 0.39475 0.00112 0.0
C458 C 0.90909 0.36722 0.10933 0.0
C459 C 0.90921 0.34834 0.03354 0.0
C460 C 0.90885 0.35356 0.94173 0.0
C461 C 0.90786 0.37678 0.92572 0.0
C462 C 0.90616 0.32101 0.04689 0.0
C463 C 0.91416 0.31876 0.13174 0.0
C464 C 0.90446 0.28972 0.15636 0.0
C465 C 0.916 0.29096 0.24544 0.0
C466 C 0.90397 0.26478 0.28027 0.0
C467 C 0.87997 0.23674 0.22673 0.0
H468 H 0.87176 0.25895 0.03137 0.0
C469 C 0.86961 0.23508 0.13483 0.0
C470 C 0.88161 0.26123 0.10001 0.0
H471 H 0.85133 0.21372 0.09103 0.0
H472 H 0.90714 0.40381 0.15271 0.0
H473 H 0.90845 0.36351 0.18062 0.0
H474 H 0.90858 0.33913 0.88192 0.0
H475 H 0.90677 0.3798 0.85395 0.0
H476 H 0.89569 0.30192 0.98606 0.0
H477 H 0.92697 0.339 0.18898 0.0
H478 H 0.93358 0.31252 0.2905 0.0
H479 H 0.91262 0.26685 0.35099 0.0
C480 C 0.49782 0.96623 0.84802 0.0
C481 C 0.47657 0.95601 0.904 0.0
C482 C 0.52429 0.97488 0.88462 0.0
C483 C 0.5301 0.97359 0.97851 0.0
C484 C 0.5094 0.96519 0.036 0.0
C485 C 0.48297 0.95649 -0.00066 0.0
C486 C 0.55506 0.97574 0.01404 0.0
C487 C 0.5775 0.98572 0.97006 0.0
C488 C 0.59542 0.97606 0.98348 0.0
C489 C 0.60449 0.96893 0.90355 0.0
C490 C 0.6148 0.95244 0.90578 0.0
C491 C 0.61655 0.94308 0.98859 0.0
H492 H 0.59446 0.97602 0.13351 0.0
C493 C 0.6105 0.95323 0.07171 0.0
C494 C 0.6001 0.96968 0.06935 0.0
H495 H 0.61245 0.94715 0.13736 0.0
H496 H 0.49366 0.96652 0.77468 0.0
H497 H 0.53928 0.98075 0.83684 0.0
H498 H 0.51313 0.96377 0.10824 0.0
H499 H 0.46703 0.94847 0.04433 0.0
H500 H 0.55288 0.96487 0.07225 0.0
H501 H 0.57996 0.99653 0.9116 0.0
H502 H 0.60139 0.97386 0.83678 0.0
H503 H 0.61925 0.94502 0.84036 0.0
C504 C 0.78389 0.4527 0.88514 0.0
C505 C 0.78968 0.47439 0.96535 0.0
C506 C 0.75688 0.433 0.82916 0.0
C507 C 0.73539 0.43498 0.85229 0.0
C508 C 0.74205 0.4584 0.92745 0.0
C509 C 0.7688 0.47771 0.98393 0.0
C510 C 0.70525 0.41166 0.8074 0.0
C511 C 0.69359 0.38214 0.77535 0.0
C512 C 0.66294 0.35758 0.77021 0.0
C513 C 0.65466 0.32981 0.78716 0.0
C514 C 0.62786 0.30919 0.80827 0.0
C515 C 0.60883 0.31602 0.81322 0.0
H516 H 0.6476 0.38289 0.74461 0.0
C517 C 0.61593 0.3421 0.78471 0.0
C518 C 0.64259 0.36251 0.76242 0.0
H519 H 0.60182 0.34809 0.78646 0.0
H520 H 0.79974 0.4499 0.86849 0.0
H521 H 0.75272 0.4158 0.76987 0.0
H522 H 0.72603 0.4607 0.94625 0.0
H523 H 0.7728 0.4946 0.0442 0.0
H524 H 0.69164 0.41817 0.81854 0.0
H525 H 0.70722 0.37547 0.77093 0.0
H526 H 0.66964 0.325 0.7913 0.0
H527 H 0.62273 0.28877 0.82635 0.0
C528 C 0.29724 0.47761 0.35135 0.0
C529 C 0.28734 0.44899 0.36426 0.0
C530 C 0.28154 0.48034 0.28628 0.0
C531 C 0.25582 0.45444 0.23223 0.0
C532 C 0.24518 0.42583 0.2488 0.0
C533 C 0.261 0.42312 0.31384 0.0
C534 C 0.24384 0.45773 0.14816 0.0
C535 C 0.23746 0.43914 0.06426 0.0
C536 C 0.25586 0.45094 -0.00784 0.0
C537 C 0.26954 0.4806 0.97955 0.0
C538 C 0.28896 0.49168 0.91774 0.0
C539 C 0.29468 0.47315 0.86638 0.0
H540 H 0.25228 0.41003 0.95129 0.0
C541 C 0.28143 0.44381 0.8801 0.0
C542 C 0.26216 0.4328 0.94208 0.0
H543 H 0.28509 0.42891 0.83972 0.0
H544 H 0.31734 0.49789 0.39076 0.0
H545 H 0.2903 0.50261 0.27452 0.0
H546 H 0.2251 0.4055 0.20972 0.0
H547 H 0.25252 0.4009 0.32531 0.0
H548 H 0.25174 0.48078 0.14916 0.0
H549 H 0.22724 0.41544 0.06295 0.0
H550 H 0.26501 0.49518 0.01573 0.0
H551 H 0.29826 0.5141 0.90632 0.0
C552 C 0.86549 0.15894 0.08564 0.0
C553 C 0.84365 0.13862 0.13045 0.0
C554 C 0.8592 0.16117 -0.0049 0.0
C555 C 0.83104 0.14282 0.94817 0.0
C556 C 0.80962 0.12042 0.989 0.0
C557 C 0.81586 0.11848 0.08019 0.0
C558 C 0.82332 0.14751 0.85873 0.0
C559 C 0.83595 0.17541 0.84319 0.0
C560 C 0.8282 0.17994 0.75317 0.0
C561 C 0.8493 0.20355 0.71492 0.0
C562 C 0.84342 0.20493 0.6223 0.0
C563 C 0.81647 0.18272 0.5677 0.0
H564 H 0.78338 0.14244 0.73187 0.0
C565 C 0.79461 0.1613 0.60989 0.0
C566 C 0.80042 0.15994 0.70219 0.0
H567 H 0.77344 0.1443 0.56966 0.0
H568 H 0.88714 0.1746 0.12292 0.0
H569 H 0.87621 0.17791 0.96336 0.0
H570 H 0.78784 0.10573 0.9529 0.0
H571 H 0.79877 0.10248 0.11346 0.0
H572 H 0.80598 0.12756 0.80675 0.0
H573 H 0.85335 0.19527 0.89536 0.0
H574 H 0.87067 0.21974 0.75431 0.0
H575 H 0.86021 0.22237 0.59173 0.0
C576 C 0.59934 0.77463 0.42937 0.0
C577 C 0.60903 0.80249 0.48735 0.0
C578 C 0.60595 0.77321 0.3386 0.0
C579 C 0.62295 0.79972 0.30541 0.0
C580 C 0.63113 0.82737 0.36097 0.0
C581 C 0.62399 0.82869 0.45132 0.0
C582 C 0.63227 0.79776 0.21369 0.0
C583 C 0.658 0.81974 0.19789 0.0
C584 C 0.66692 0.81757 0.1053 0.0
C585 C 0.65754 0.78958 0.0483 0.0
C586 C 0.66276 0.78769 0.95535 0.0
C587 C 0.67724 0.8137 0.91848 0.0
H588 H 0.69175 0.86579 0.11453 0.0
C589 C 0.68882 0.84198 0.97802 0.0
C590 C 0.6839 0.84394 0.07127 0.0
H591 H 0.70016 0.86231 0.95057 0.0
H592 H 0.58781 0.75416 0.45611 0.0
H593 H 0.59912 0.75162 0.2964 0.0
H594 H 0.64353 0.84804 0.33571 0.0
H595 H 0.63179 0.85045 0.49512 0.0
H596 H 0.61788 0.77696 0.15937 0.0
H597 H 0.67234 0.8406 0.25209 0.0
H598 H 0.64534 0.769 0.07409 0.0
H599 H 0.65371 0.76565 0.91047 0.0
C600 C 0.89584 0.55457 0.94226 0.0
C601 C 0.87898 0.56129 0.98366 0.0
C602 C 0.89195 0.54575 0.84372 0.0
C603 C 0.87113 0.54361 0.78529 0.0
C604 C 0.85618 0.55308 0.82646 0.0
C605 C 0.85996 0.56174 0.92514 0.0
C606 C 0.86392 0.5307 0.68184 0.0
C607 C 0.86547 0.50854 0.64345 0.0
C608 C 0.85872 0.49606 0.53997 0.0
C609 C 0.87495 0.4884 0.49875 0.0
C610 C 0.87171 0.48056 0.4001 0.0
C611 C 0.85196 0.47999 0.34169 0.0
H612 H 0.82351 0.49723 0.51184 0.0
C613 C 0.83373 0.48453 0.38295 0.0
C614 C 0.83719 0.49276 0.4816 0.0
H615 H 0.8177 0.48306 0.33888 0.0
H616 H 0.91103 0.55465 0.98613 0.0
H617 H 0.90476 0.53992 0.8138 0.0
H618 H 0.84043 0.55217 0.78255 0.0
H619 H 0.84682 0.56704 0.95549 0.0
H620 H 0.85608 0.53885 0.63684 0.0
H621 H 0.87329 0.50031 0.68814 0.0
H622 H 0.8913 0.49026 0.54268 0.0
H623 H 0.88589 0.47685 0.36985 0.0
C624 C 0.33309 0.88282 0.19002 0.0
C625 C 0.31754 0.88725 0.12986 0.0
C626 C 0.32433 0.87423 0.27432 0.0
C627 C 0.30004 0.87017 0.29914 0.0
C628 C 0.28637 0.87775 0.24395 0.0
C629 C 0.29495 0.88605 0.15917 0.0
C630 C 0.28753 0.85625 0.37853 0.0
C631 C 0.28701 0.83336 0.39687 0.0
C632 C 0.27507 0.81989 0.47746 0.0
C633 C 0.28948 0.81325 0.53331 0.0
C634 C 0.28176 0.80593 0.61981 0.0
C635 C 0.25927 0.80473 0.65007 0.0
H636 H 0.23884 0.81979 0.45951 0.0
C637 C 0.2429 0.80806 0.58936 0.0
C638 C 0.25085 0.81576 0.50341 0.0
H639 H 0.22536 0.80705 0.61133 0.0
H640 H 0.35074 0.8839 0.16898 0.0
H641 H 0.33588 0.86961 0.31797 0.0
H642 H 0.26792 0.87528 0.26307 0.0
H643 H 0.28295 0.8898 0.11392 0.0
H644 H 0.27735 0.86398 0.41939 0.0
H645 H 0.29721 0.82564 0.35603 0.0
H646 H 0.30793 0.81586 0.51344 0.0
H647 H 0.29442 0.80309 0.66562 0.0
C648 C 0.44012 0.17674 0.92028 0.0
C649 C 0.45127 0.1648 0.96517 0.0
C650 C 0.44716 0.18414 0.83286 0.0
C651 C 0.46511 0.17925 0.78973 0.0
C652 C 0.47342 0.16408 0.82978 0.0
C653 C 0.46695 0.15737 0.91789 0.0
C654 C 0.47766 0.19219 0.7085 0.0
C655 C 0.48716 0.22031 0.70412 0.0
C656 C 0.50036 0.23388 0.62446 0.0
C657 C 0.49414 0.25148 0.58984 0.0
C658 C 0.50149 0.25958 0.50379 0.0
C659 C 0.51596 0.25106 0.45321 0.0
H660 H 0.5232 0.21524 0.60569 0.0
C661 C 0.5251 0.23656 0.49305 0.0
C662 C 0.51728 0.2279 0.57847 0.0
H663 H 0.5359 0.2294 0.45402 0.0
H664 H 0.42841 0.18309 0.95676 0.0
H665 H 0.43989 0.19514 0.80175 0.0
H666 H 0.48697 0.15981 0.79706 0.0
H667 H 0.47602 0.14852 0.95249 0.0
H668 H 0.48107 0.17925 0.65544 0.0
H669 H 0.48363 0.23308 0.75738 0.0
H670 H 0.48153 0.25674 0.62504 0.0
H671 H 0.49385 0.27033 0.47294 0.0
loop_
_geom_bond_atom_site_label_1
_geom_bond_atom_site_label_2
_geom_bond_distance
_geom_bond_site_symmetry_2
_ccdc_geom_bond_type
Ho0 C3 2.811 . S
Ho0 O20 2.322 . S
Ho0 O22 2.378 . S
Ho0 O23 2.524 . S
Ho0 O24 2.381 . S
Ho0 O25 2.669 . S
Ho0 O27 2.346 . S
Ho0 O31 2.305 1_556 S
Ho1 C12 2.811 . S
Ho1 O21 2.346 . S
Ho1 O25 2.305 . S
Ho1 O26 2.322 1_556 S
Ho1 O28 2.378 1_556 S
Ho1 O29 2.524 . S
Ho1 O30 2.381 1_556 S
Ho1 O31 2.669 1_556 S
C2 O20 1.259 . S
C2 O21 1.268 . S
C3 Ho0 2.811 . S
C3 C4 1.488 . S
C3 O22 1.215 . S
C3 O23 1.289 . S
C4 C3 1.488 . S
C4 C5 1.348 . S
C4 C9 1.413 . S
C5 C4 1.348 . S
C5 C6 1.442 . S
C5 H32 0.930 . S
C6 C5 1.442 . S
C6 C7 1.381 . S
C6 H33 0.931 . S
C7 C6 1.381 . S
C7 C8 1.321 . S
C8 C7 1.321 . S
C8 C9 1.403 . S
C8 H34 0.934 . S
C9 C4 1.413 . S
C9 C8 1.403 . S
C9 H35 0.930 . S
C10 O24 1.275 . S
C10 O25 1.256 . S
C11 O26 1.259 1_556 S
C11 O27 1.268 . S
C12 Ho1 2.811 . S
C12 C13 1.488 1_556 S
C12 O28 1.215 1_556 S
C12 O29 1.289 . S
C13 C12 1.488 1_554 S
C13 C14 1.348 1_554 S
C13 C18 1.413 . S
C14 C13 1.348 1_556 S
C14 C15 1.442 . S
C14 H36 0.930 . S
C15 C14 1.442 . S
C15 C16 1.381 1_556 S
C15 H37 0.931 . S
C16 C15 1.381 1_554 S
C16 C17 1.321 . S
C17 C16 1.321 . S
C17 C18 1.403 . S
C17 H38 0.934 . S
C18 C13 1.413 . S
C18 C17 1.403 . S
C18 H39 0.930 . S
C19 O30 1.275 . S
C19 O31 1.256 . S
O20 Ho0 2.322 . S
O20 C2 1.259 . S
O21 Ho1 2.346 . S
O21 C2 1.268 . S
O22 Ho0 2.378 . S
O22 C3 1.215 . S
O23 Ho0 2.524 . S
O23 C3 1.289 . S
O24 Ho0 2.381 . S
O24 C10 1.275 . S
O25 Ho0 2.669 . S
O25 Ho1 2.305 . S
O25 C10 1.256 . S
O26 Ho1 2.322 1_554 S
O26 C11 1.259 1_554 S
O27 Ho0 2.346 . S
O27 C11 1.268 . S
O28 Ho1 2.378 1_554 S
O28 C12 1.215 1_554 S
O29 Ho1 2.524 . S
O29 C12 1.289 . S
O30 Ho1 2.381 1_554 S
O30 C19 1.275 . S
O31 Ho0 2.305 1_554 S
O31 Ho1 2.669 1_554 S
O31 C19 1.256 . S
H32 C5 0.930 . S
H33 C6 0.931 . S
H34 C8 0.934 . S
H35 C9 0.930 . S
H36 C14 0.930 . S
H37 C15 0.931 . S
H38 C17 0.934 . S
H39 C18 0.930 . S
Ho40 C43 2.811 . S
Ho40 O60 2.322 . S
Ho40 O62 2.378 . S
Ho40 O63 2.524 . S
Ho40 O64 2.381 1_554 S
Ho40 O65 2.669 1_554 S
Ho40 O67 2.346 . S
Ho40 O71 2.305 . S
Ho41 C52 2.811 1_554 S
Ho41 O61 2.346 . S
Ho41 O65 2.305 1_554 S
Ho41 O66 2.322 . S
Ho41 O68 2.378 . S
Ho41 O69 2.524 1_554 S
Ho41 O70 2.381 . S
Ho41 O71 2.669 . S
C42 O60 1.259 . S
C42 O61 1.268 . S
C43 Ho40 2.811 . S
C43 C44 1.488 . S
C43 O62 1.215 . S
C43 O63 1.289 . S
C44 C43 1.488 . S
C44 C45 1.348 . S
C44 C49 1.413 . S
C45 C44 1.348 . S
C45 C46 1.442 . S
C45 H72 0.930 . S
C46 C45 1.442 . S
C46 C47 1.381 . S
C46 H73 0.931 . S
C47 C46 1.381 . S
C47 C48 1.321 . S
C48 C47 1.321 . S
C48 C49 1.403 . S
C48 H74 0.934 . S
C49 C44 1.413 . S
C49 C48 1.403 . S
C49 H75 0.930 . S
C50 O64 1.275 . S
C50 O65 1.256 . S
C51 O66 1.259 . S
C51 O67 1.268 . S
C52 Ho41 2.811 1_556 S
C52 C53 1.488 . S
C52 O68 1.215 1_556 S
C52 O69 1.289 . S
C53 C52 1.488 . S
C53 C54 1.348 . S
C53 C58 1.413 1_556 S
C54 C53 1.348 . S
C54 C55 1.442 . S
C54 H76 0.930 . S
C55 C54 1.442 . S
C55 C56 1.381 . S
C55 H77 0.931 . S
C56 C55 1.381 . S
C56 C57 1.321 . S
C57 C56 1.321 . S
C57 C58 1.403 1_556 S
C57 H78 0.934 1_556 S
C58 C53 1.413 1_554 S
C58 C57 1.403 1_554 S
C58 H79 0.930 . S
C59 O70 1.275 . S
C59 O71 1.256 . S
O60 Ho40 2.322 . S
O60 C42 1.259 . S
O61 Ho41 2.346 . S
O61 C42 1.268 . S
O62 Ho40 2.378 . S
O62 C43 1.215 . S
O63 Ho40 2.524 . S
O63 C43 1.289 . S
O64 Ho40 2.381 1_556 S
O64 C50 1.275 . S
O65 Ho40 2.669 1_556 S
O65 Ho41 2.305 1_556 S
O65 C50 1.256 . S
O66 Ho41 2.322 . S
O66 C51 1.259 . S
O67 Ho40 2.346 . S
O67 C51 1.268 . S
O68 Ho41 2.378 . S
O68 C52 1.215 1_554 S
O69 Ho41 2.524 1_556 S
O69 C52 1.289 . S
O70 Ho41 2.381 . S
O70 C59 1.275 . S
O71 Ho40 2.305 . S
O71 Ho41 2.669 . S
O71 C59 1.256 . S
H72 C45 0.930 . S
H73 C46 0.931 . S
H74 C48 0.934 . S
H75 C49 0.930 . S
H76 C54 0.930 . S
H77 C55 0.931 . S
H78 C57 0.934 1_554 S
H79 C58 0.930 . S
Ho80 C83 2.811 . S
Ho80 O100 2.322 1_556 S
Ho80 O102 2.378 . S
Ho80 O103 2.524 . S
Ho80 O104 2.381 1_556 S
Ho80 O105 2.669 1_556 S
Ho80 O107 2.346 . S
Ho80 O111 2.305 . S
Ho81 C92 2.811 1_556 S
Ho81 O101 2.346 . S
Ho81 O105 2.305 1_556 S
Ho81 O106 2.322 . S
Ho81 O108 2.378 . S
Ho81 O109 2.524 1_556 S
Ho81 O110 2.381 . S
Ho81 O111 2.669 . S
C82 O100 1.259 1_556 S
C82 O101 1.268 . S
C83 Ho80 2.811 . S
C83 C84 1.488 . S
C83 O102 1.215 . S
C83 O103 1.289 . S
C84 C83 1.488 . S
C84 C85 1.348 . S
C84 C89 1.413 . S
C85 C84 1.348 . S
C85 C86 1.442 . S
C85 H112 0.930 . S
C86 C85 1.442 . S
C86 C87 1.381 . S
C86 H113 0.931 . S
C87 C86 1.381 . S
C87 C88 1.321 . S
C88 C87 1.321 . S
C88 C89 1.403 . S
C88 H114 0.934 . S
C89 C84 1.413 . S
C89 C88 1.403 . S
C89 H115 0.930 1_556 S
C90 O104 1.275 . S
C90 O105 1.256 . S
C91 O106 1.259 . S
C91 O107 1.268 . S
C92 Ho81 2.811 1_554 S
C92 C93 1.488 . S
C92 O108 1.215 1_554 S
C92 O109 1.289 . S
C93 C92 1.488 . S
C93 C94 1.348 . S
C93 C98 1.413 . S
C94 C93 1.348 . S
C94 C95 1.442 . S
C94 H116 0.930 . S
C95 C94 1.442 . S
C95 C96 1.381 . S
C95 H117 0.931 . S
C96 C95 1.381 . S
C96 C97 1.321 . S
C97 C96 1.321 . S
C97 C98 1.403 . S
C97 H118 0.934 . S
C98 C93 1.413 . S
C98 C97 1.403 . S
C98 H119 0.930 1_554 S
C99 O110 1.275 . S
C99 O111 1.256 . S
O100 Ho80 2.322 1_554 S
O100 C82 1.259 1_554 S
O101 Ho81 2.346 . S
O101 C82 1.268 . S
O102 Ho80 2.378 . S
O102 C83 1.215 . S
O103 Ho80 2.524 . S
O103 C83 1.289 . S
O104 Ho80 2.381 1_554 S
O104 C90 1.275 . S
O105 Ho80 2.669 1_554 S
O105 Ho81 2.305 1_554 S
O105 C90 1.256 . S
O106 Ho81 2.322 . S
O106 C91 1.259 . S
O107 Ho80 2.346 . S
O107 C91 1.268 . S
O108 Ho81 2.378 . S
O108 C92 1.215 1_556 S
O109 Ho81 2.524 1_554 S
O109 C92 1.289 . S
O110 Ho81 2.381 . S
O110 C99 1.275 . S
O111 Ho80 2.305 . S
O111 Ho81 2.669 . S
O111 C99 1.256 . S
H112 C85 0.930 . S
H113 C86 0.931 . S
H114 C88 0.934 . S
H115 C89 0.930 1_554 S
H116 C94 0.930 . S
H117 C95 0.931 . S
H118 C97 0.934 . S
H119 C98 0.930 1_556 S
Ho120 C123 2.813 . S
Ho120 O140 2.320 . S
Ho120 O142 2.376 1_554 S
Ho120 O143 2.531 . S
Ho120 O144 2.369 1_554 S
Ho120 O145 2.663 1_554 S
Ho120 O147 2.345 1_554 S
Ho120 O151 2.313 . S
Ho121 C132 2.813 . S
Ho121 O141 2.345 1_556 S
Ho121 O145 2.311 . S
Ho121 O146 2.321 . S
Ho121 O148 2.376 1_556 S
Ho121 O149 2.529 . S
Ho121 O150 2.372 1_556 S
Ho121 O151 2.665 1_556 S
C122 O140 1.259 . S
C122 O141 1.268 . S
C123 Ho120 2.813 . S
C123 C124 1.488 . S
C123 O142 1.215 1_554 S
C123 O143 1.289 . S
C124 C123 1.488 . S
C124 C125 1.348 . S
C124 C129 1.413 . S
C125 C124 1.348 . S
C125 C126 1.442 . S
C125 H152 0.930 . S
C126 C125 1.442 . S
C126 C127 1.381 . S
C126 H153 0.931 . S
C127 C126 1.381 . S
C127 C128 1.321 . S
C128 C127 1.321 . S
C128 C129 1.403 . S
C128 H154 0.934 . S
C129 C124 1.413 . S
C129 C128 1.403 . S
C129 H155 0.930 1_554 S
C130 O144 1.275 . S
C130 O145 1.256 . S
C131 O146 1.259 . S
C131 O147 1.268 . S
C132 Ho121 2.813 . S
C132 C133 1.488 . S
C132 O148 1.215 1_556 S
C132 O149 1.289 . S
C133 C132 1.488 . S
C133 C134 1.348 . S
C133 C138 1.413 . S
C134 C133 1.348 . S
C134 C135 1.442 . S
C134 H156 0.930 . S
C135 C134 1.442 . S
C135 C136 1.381 . S
C135 H157 0.931 . S
C136 C135 1.381 . S
C136 C137 1.321 . S
C137 C136 1.321 . S
C137 C138 1.403 . S
C137 H158 0.934 . S
C138 C133 1.413 . S
C138 C137 1.403 . S
C138 H159 0.930 1_556 S
C139 O150 1.275 . S
C139 O151 1.256 . S
O140 Ho120 2.320 . S
O140 C122 1.259 . S
O141 Ho121 2.345 1_554 S
O141 C122 1.268 . S
O142 Ho120 2.376 1_556 S
O142 C123 1.215 1_556 S
O143 Ho120 2.531 . S
O143 C123 1.289 . S
O144 Ho120 2.369 1_556 S
O144 C130 1.275 . S
O145 Ho120 2.663 1_556 S
O145 Ho121 2.311 . S
O145 C130 1.256 . S
O146 Ho121 2.321 . S
O146 C131 1.259 . S
O147 Ho120 2.345 1_556 S
O147 C131 1.268 . S
O148 Ho121 2.376 1_554 S
O148 C132 1.215 1_554 S
O149 Ho121 2.529 . S
O149 C132 1.289 . S
O150 Ho121 2.372 1_554 S
O150 C139 1.275 . S
O151 Ho120 2.313 . S
O151 Ho121 2.665 1_554 S
O151 C139 1.256 . S
H152 C125 0.930 . S
H153 C126 0.931 . S
H154 C128 0.934 . S
H155 C129 0.930 1_556 S
H156 C134 0.930 . S
H157 C135 0.931 . S
H158 C137 0.934 . S
H159 C138 0.930 1_554 S
Ho160 C163 2.811 . S
Ho160 O180 2.322 . S
Ho160 O182 2.378 . S
Ho160 O183 2.524 1_556 S
Ho160 O184 2.381 . S
Ho160 O185 2.669 . S
Ho160 O187 2.346 . S
Ho160 O191 2.305 1_556 S
Ho161 C172 2.811 . S
Ho161 O181 2.346 . S
Ho161 O185 2.305 1_554 S
Ho161 O186 2.322 . S
Ho161 O188 2.378 . S
Ho161 O189 2.524 1_554 S
Ho161 O190 2.381 . S
Ho161 O191 2.669 . S
C162 O180 1.259 . S
C162 O181 1.268 1_556 S
C163 Ho160 2.811 . S
C163 C164 1.488 . S
C163 O182 1.215 . S
C163 O183 1.289 1_556 S
C164 C163 1.488 . S
C164 C165 1.348 . S
C164 C169 1.413 . S
C165 C164 1.348 . S
C165 C166 1.442 . S
C165 H192 0.930 1_556 S
C166 C165 1.442 . S
C166 C167 1.381 . S
C166 H193 0.931 1_556 S
C167 C166 1.381 . S
C167 C168 1.321 . S
C168 C167 1.321 . S
C168 C169 1.403 . S
C168 H194 0.934 . S
C169 C164 1.413 . S
C169 C168 1.403 . S
C169 H195 0.930 . S
C170 O184 1.275 . S
C170 O185 1.256 . S
C171 O186 1.259 . S
C171 O187 1.268 1_554 S
C172 Ho161 2.811 . S
C172 C173 1.488 . S
C172 O188 1.215 . S
C172 O189 1.289 1_554 S
C173 C172 1.488 . S
C173 C174 1.348 . S
C173 C178 1.413 . S
C174 C173 1.348 . S
C174 C175 1.442 . S
C174 H196 0.930 1_554 S
C175 C174 1.442 . S
C175 C176 1.381 . S
C175 H197 0.931 1_554 S
C176 C175 1.381 . S
C176 C177 1.321 . S
C177 C176 1.321 . S
C177 C178 1.403 . S
C177 H198 0.934 . S
C178 C173 1.413 . S
C178 C177 1.403 . S
C178 H199 0.930 . S
C179 O190 1.275 . S
C179 O191 1.256 . S
O180 Ho160 2.322 . S
O180 C162 1.259 . S
O181 Ho161 2.346 . S
O181 C162 1.268 1_554 S
O182 Ho160 2.378 . S
O182 C163 1.215 . S
O183 Ho160 2.524 1_554 S
O183 C163 1.289 1_554 S
O184 Ho160 2.381 . S
O184 C170 1.275 . S
O185 Ho160 2.669 . S
O185 Ho161 2.305 1_556 S
O185 C170 1.256 . S
O186 Ho161 2.322 . S
O186 C171 1.259 . S
O187 Ho160 2.346 . S
O187 C171 1.268 1_556 S
O188 Ho161 2.378 . S
O188 C172 1.215 . S
O189 Ho161 2.524 1_556 S
O189 C172 1.289 1_556 S
O190 Ho161 2.381 . S
O190 C179 1.275 . S
O191 Ho160 2.305 1_554 S
O191 Ho161 2.669 . S
O191 C179 1.256 . S
H192 C165 0.930 1_554 S
H193 C166 0.931 1_554 S
H194 C168 0.934 . S
H195 C169 0.930 . S
H196 C174 0.930 1_556 S
H197 C175 0.931 1_556 S
H198 C177 0.934 . S
H199 C178 0.930 . S
Ho200 C203 2.811 1_556 S
Ho200 O220 2.321 . S
Ho200 O222 2.378 . S
Ho200 O223 2.524 1_556 S
Ho200 O224 2.381 . S
Ho200 O225 2.669 . S
Ho200 O227 2.346 . S
Ho200 O231 2.305 1_556 S
Ho201 C212 2.811 1_554 S
Ho201 O221 2.346 . S
Ho201 O225 2.305 1_554 S
Ho201 O226 2.322 . S
Ho201 O228 2.378 . S
Ho201 O229 2.524 1_554 S
Ho201 O230 2.381 . S
Ho201 O231 2.669 . S
C202 O220 1.256 1_554 S
C202 O221 1.268 . S
C203 Ho200 2.811 1_554 S
C203 C204 1.488 . S
C203 O222 1.215 1_554 S
C203 O223 1.289 . S
C204 C203 1.488 . S
C204 C205 1.348 . S
C204 C209 1.413 1_544 S
C205 C204 1.348 . S
C205 C206 1.442 . S
C205 H232 0.930 . S
C206 C205 1.442 . S
C206 C207 1.381 1_545 S
C206 H233 0.931 . S
C207 C206 1.381 1_565 S
C207 C208 1.321 . S
C208 C207 1.321 . S
C208 C209 1.403 1_554 S
C208 H234 0.934 1_554 S
C209 C204 1.413 1_566 S
C209 C208 1.403 1_556 S
C209 H235 0.930 . S
C210 O224 1.275 . S
C210 O225 1.256 . S
C211 O226 1.259 1_556 S
C211 O227 1.268 . S
C212 Ho201 2.811 1_556 S
C212 C213 1.488 . S
C212 O228 1.215 1_556 S
C212 O229 1.289 . S
C213 C212 1.488 . S
C213 C214 1.348 . S
C213 C218 1.413 1_556 S
C214 C213 1.348 . S
C214 C215 1.442 . S
C214 H236 0.930 . S
C215 C214 1.442 . S
C215 C216 1.381 . S
C215 H237 0.931 . S
C216 C215 1.381 . S
C216 C217 1.321 1_556 S
C217 C216 1.321 1_554 S
C217 C218 1.403 . S
C217 H238 0.934 . S
C218 C213 1.413 1_554 S
C218 C217 1.403 . S
C218 H239 0.930 . S
C219 O230 1.275 . S
C219 O231 1.256 . S
O220 Ho200 2.321 . S
O220 C202 1.256 1_556 S
O221 Ho201 2.346 . S
O221 C202 1.268 . S
O222 Ho200 2.378 . S
O222 C203 1.215 1_556 S
O223 Ho200 2.524 1_554 S
O223 C203 1.289 . S
O224 Ho200 2.381 . S
O224 C210 1.275 . S
O225 Ho200 2.669 . S
O225 Ho201 2.305 1_556 S
O225 C210 1.256 . S
O226 Ho201 2.322 . S
O226 C211 1.259 1_554 S
O227 Ho200 2.346 . S
O227 C211 1.268 . S
O228 Ho201 2.378 . S
O228 C212 1.215 1_554 S
O229 Ho201 2.524 1_556 S
O229 C212 1.289 . S
O230 Ho201 2.381 . S
O230 C219 1.275 . S
O231 Ho200 2.305 1_554 S
O231 Ho201 2.669 . S
O231 C219 1.256 . S
H232 C205 0.930 . S
H233 C206 0.931 . S
H234 C208 0.934 1_556 S
H235 C209 0.930 . S
H236 C214 0.930 . S
H237 C215 0.931 . S
H238 C217 0.934 . S
H239 C218 0.930 . S
C240 C241 1.386 . S
C240 C242 1.383 . S
C240 H256 0.951 . S
C241 C240 1.386 . S
C241 C245 1.383 . S
C242 C240 1.383 . S
C242 C243 1.402 . S
C242 H257 0.951 . S
C243 C242 1.402 . S
C243 C244 1.375 . S
C243 C246 1.481 . S
C244 C243 1.375 . S
C244 C245 1.367 . S
C244 H258 0.951 . S
C245 C241 1.383 . S
C245 C244 1.367 . S
C245 H259 0.950 . S
C246 C243 1.481 . S
C246 C247 1.297 . S
C246 H260 0.950 . S
C247 C246 1.297 . S
C247 C248 1.479 . S
C247 H261 0.950 . S
C248 C247 1.479 . S
C248 C249 1.375 . S
C248 C254 1.404 . S
C249 C248 1.375 . S
C249 C250 1.369 . S
C249 H262 0.950 . S
C250 C249 1.369 . S
C250 C251 1.392 . S
C250 H263 0.951 . S
C251 C250 1.392 . S
C251 C253 1.384 . S
H252 C254 0.949 . S
C253 C251 1.384 . S
C253 C254 1.385 . S
C253 H255 0.950 . S
C254 C248 1.404 . S
C254 H252 0.949 . S
C254 C253 1.385 . S
H255 C253 0.950 . S
H256 C240 0.951 . S
H257 C242 0.951 . S
H258 C244 0.951 . S
H259 C245 0.950 . S
H260 C246 0.950 . S
H261 C247 0.950 . S
H262 C249 0.950 . S
H263 C250 0.951 . S
C264 C265 1.386 . S
C264 C266 1.383 . S
C264 H280 0.951 . S
C265 C264 1.386 . S
C265 C269 1.383 . S
C266 C264 1.383 . S
C266 C267 1.402 . S
C266 H281 0.951 . S
C267 C266 1.402 . S
C267 C268 1.375 . S
C267 C270 1.481 . S
C268 C267 1.375 . S
C268 C269 1.367 . S
C268 H282 0.951 . S
C269 C265 1.383 . S
C269 C268 1.367 . S
C269 H283 0.950 . S
C270 C267 1.481 . S
C270 C271 1.297 . S
C270 H284 0.950 . S
C271 C270 1.297 . S
C271 C272 1.479 . S
C271 H285 0.950 . S
C272 C271 1.479 . S
C272 C273 1.375 . S
C272 C278 1.404 . S
C273 C272 1.375 . S
C273 C274 1.369 . S
C273 H286 0.950 . S
C274 C273 1.369 . S
C274 C275 1.392 . S
C274 H287 0.951 . S
C275 C274 1.392 . S
C275 C277 1.384 . S
H276 C278 0.949 . S
C277 C275 1.384 . S
C277 C278 1.385 . S
C277 H279 0.950 . S
C278 C272 1.404 . S
C278 H276 0.949 . S
C278 C277 1.385 . S
H279 C277 0.950 . S
H280 C264 0.951 . S
H281 C266 0.951 . S
H282 C268 0.951 . S
H283 C269 0.950 . S
H284 C270 0.950 . S
H285 C271 0.950 . S
H286 C273 0.950 . S
H287 C274 0.951 . S
C288 C289 1.386 . S
C288 C290 1.383 . S
C288 H304 0.951 . S
C289 C288 1.386 . S
C289 C293 1.383 . S
C290 C288 1.383 . S
C290 C291 1.402 . S
C290 H305 0.951 . S
C291 C290 1.402 . S
C291 C292 1.375 . S
C291 C294 1.481 . S
C292 C291 1.375 . S
C292 C293 1.367 . S
C292 H306 0.951 . S
C293 C289 1.383 . S
C293 C292 1.367 . S
C293 H307 0.950 . S
C294 C291 1.481 . S
C294 C295 1.297 . S
C294 H308 0.946 . S
C295 C294 1.297 . S
C295 C296 1.479 1_545 S
C295 H309 0.950 . S
C296 C295 1.479 1_565 S
C296 C297 1.375 . S
C296 C302 1.404 . S
C297 C296 1.375 . S
C297 C298 1.369 . S
C297 H310 0.950 . S
C298 C297 1.369 . S
C298 C299 1.392 . S
C298 H311 0.951 . S
C299 C298 1.392 . S
C299 C301 1.384 . S
H300 C302 0.949 . S
C301 C299 1.384 . S
C301 C302 1.385 . S
C301 H303 0.950 . S
C302 C296 1.404 . S
C302 H300 0.949 . S
C302 C301 1.385 . S
H303 C301 0.950 . S
H304 C288 0.951 . S
H305 C290 0.951 . S
H306 C292 0.951 . S
H307 C293 0.950 . S
H308 C294 0.946 . S
H309 C295 0.950 . S
H310 C297 0.950 . S
H311 C298 0.951 . S
C312 C313 1.386 . S
C312 C314 1.383 . S
C312 H328 0.951 . S
C313 C312 1.386 . S
C313 C317 1.383 . S
C314 C312 1.383 . S
C314 C315 1.402 . S
C314 H329 0.951 . S
C315 C314 1.402 . S
C315 C316 1.375 . S
C315 C318 1.481 . S
C316 C315 1.375 . S
C316 C317 1.367 . S
C316 H330 0.951 . S
C317 C313 1.383 . S
C317 C316 1.367 . S
C317 H331 0.950 . S
C318 C315 1.481 . S
C318 C319 1.297 . S
C318 H332 0.950 . S
C319 C318 1.297 . S
C319 C320 1.479 . S
C319 H333 0.950 . S
C320 C319 1.479 . S
C320 C321 1.375 . S
C320 C326 1.404 . S
C321 C320 1.375 . S
C321 C322 1.369 . S
C321 H334 0.950 . S
C322 C321 1.369 . S
C322 C323 1.392 . S
C322 H335 0.951 . S
C323 C322 1.392 . S
C323 C325 1.384 . S
H324 C326 0.949 . S
C325 C323 1.384 . S
C325 C326 1.385 . S
C325 H327 0.950 . S
C326 C320 1.404 . S
C326 H324 0.949 . S
C326 C325 1.385 . S
H327 C325 0.950 . S
H328 C312 0.951 . S
H329 C314 0.951 . S
H330 C316 0.951 . S
H331 C317 0.950 . S
H332 C318 0.950 . S
H333 C319 0.950 . S
H334 C321 0.950 . S
H335 C322 0.951 . S
C336 C337 1.386 . S
C336 C338 1.383 . S
C336 H352 0.951 . S
C337 C336 1.386 . S
C337 C341 1.383 . S
C338 C336 1.383 . S
C338 C339 1.402 . S
C338 H353 0.951 . S
C339 C338 1.402 . S
C339 C340 1.375 . S
C339 C342 1.481 1_455 S
C340 C339 1.375 . S
C340 C341 1.367 . S
C340 H354 0.951 . S
C341 C337 1.383 . S
C341 C340 1.367 . S
C341 H355 0.950 . S
C342 C339 1.481 1_655 S
C342 C343 1.297 . S
C342 H356 0.950 . S
C343 C342 1.297 . S
C343 C344 1.479 . S
C343 H357 0.950 1_655 S
C344 C343 1.479 . S
C344 C345 1.375 . S
C344 C350 1.404 . S
C345 C344 1.375 . S
C345 C346 1.369 . S
C345 H358 0.950 . S
C346 C345 1.369 . S
C346 C347 1.392 . S
C346 H359 0.951 . S
C347 C346 1.392 . S
C347 C349 1.384 . S
H348 C350 0.949 . S
C349 C347 1.384 . S
C349 C350 1.385 . S
C349 H351 0.950 . S
C350 C344 1.404 . S
C350 H348 0.949 . S
C350 C349 1.385 . S
H351 C349 0.950 . S
H352 C336 0.951 . S
H353 C338 0.951 . S
H354 C340 0.951 . S
H355 C341 0.950 . S
H356 C342 0.950 . S
H357 C343 0.950 1_455 S
H358 C345 0.950 . S
H359 C346 0.951 . S
C360 C361 1.386 . S
C360 C362 1.383 . S
C360 H376 0.951 . S
C361 C360 1.386 . S
C361 C365 1.383 . S
C362 C360 1.383 . S
C362 C363 1.402 . S
C362 H377 0.951 . S
C363 C362 1.402 . S
C363 C364 1.375 . S
C363 C366 1.481 . S
C364 C363 1.375 . S
C364 C365 1.367 . S
C364 H378 0.951 . S
C365 C361 1.383 . S
C365 C364 1.367 . S
C365 H379 0.950 . S
C366 C363 1.481 . S
C366 C367 1.297 . S
C366 H380 0.950 . S
C367 C366 1.297 . S
C367 C368 1.479 . S
C367 H381 0.950 . S
C368 C367 1.479 . S
C368 C369 1.375 . S
C368 C374 1.404 . S
C369 C368 1.375 . S
C369 C370 1.369 . S
C369 H382 0.950 . S
C370 C369 1.369 . S
C370 C371 1.392 . S
C370 H383 0.951 . S
C371 C370 1.392 . S
C371 C373 1.384 . S
H372 C374 0.949 . S
C373 C371 1.384 . S
C373 C374 1.385 . S
C373 H375 0.950 . S
C374 C368 1.404 . S
C374 H372 0.949 . S
C374 C373 1.385 . S
H375 C373 0.950 . S
H376 C360 0.951 . S
H377 C362 0.951 . S
H378 C364 0.951 . S
H379 C365 0.950 . S
H380 C366 0.950 . S
H381 C367 0.950 . S
H382 C369 0.950 . S
H383 C370 0.951 . S
C384 C385 1.386 . S
C384 C386 1.383 . S
C384 H400 0.951 . S
C385 C384 1.386 . S
C385 C389 1.383 1_554 S
C386 C384 1.383 . S
C386 C387 1.402 . S
C386 H401 0.951 . S
C387 C386 1.402 . S
C387 C388 1.375 1_554 S
C387 C390 1.481 . S
C388 C387 1.375 1_556 S
C388 C389 1.367 . S
C388 H402 0.951 . S
C389 C385 1.383 1_556 S
C389 C388 1.367 . S
C389 H403 0.950 . S
C390 C387 1.481 . S
C390 C391 1.297 . S
C390 H404 0.950 1_554 S
C391 C390 1.297 . S
C391 C392 1.479 . S
C391 H405 0.950 . S
C392 C391 1.479 . S
C392 C393 1.375 . S
C392 C398 1.404 1_554 S
C393 C392 1.375 . S
C393 C394 1.369 . S
C393 H406 0.950 . S
C394 C393 1.369 . S
C394 C395 1.392 . S
C394 H407 0.951 . S
C395 C394 1.392 . S
C395 C397 1.384 1_554 S
H396 C398 0.949 . S
C397 C395 1.384 1_556 S
C397 C398 1.385 . S
C397 H399 0.950 . S
C398 C392 1.404 1_556 S
C398 H396 0.949 . S
C398 C397 1.385 . S
H399 C397 0.950 . S
H400 C384 0.951 . S
H401 C386 0.951 . S
H402 C388 0.951 . S
H403 C389 0.950 . S
H404 C390 0.950 1_556 S
H405 C391 0.950 . S
H406 C393 0.950 . S
H407 C394 0.951 . S
C408 C409 1.386 . S
C408 C410 1.383 . S
C408 H424 0.951 . S
C409 C408 1.386 . S
C409 C413 1.383 . S
C410 C408 1.383 . S
C410 C411 1.402 . S
C410 H425 0.951 . S
C411 C410 1.402 . S
C411 C412 1.375 . S
C411 C414 1.481 . S
C412 C411 1.375 . S
C412 C413 1.367 . S
C412 H426 0.951 . S
C413 C409 1.383 . S
C413 C412 1.367 . S
C413 H427 0.950 . S
C414 C411 1.481 . S
C414 C415 1.297 . S
C414 H428 0.950 . S
C415 C414 1.297 . S
C415 C416 1.479 . S
C415 H429 0.950 . S
C416 C415 1.479 . S
C416 C417 1.375 . S
C416 C422 1.404 . S
C417 C416 1.375 . S
C417 C418 1.369 . S
C417 H430 0.950 . S
C418 C417 1.369 . S
C418 C419 1.392 . S
C418 H431 0.951 . S
C419 C418 1.392 . S
C419 C421 1.384 . S
H420 C422 0.949 . S
C421 C419 1.384 . S
C421 C422 1.385 . S
C421 H423 0.950 . S
C422 C416 1.404 . S
C422 H420 0.949 . S
C422 C421 1.385 . S
H423 C421 0.950 . S
H424 C408 0.951 . S
H425 C410 0.951 . S
H426 C412 0.951 . S
H427 C413 0.950 . S
H428 C414 0.950 . S
H429 C415 0.950 . S
H430 C417 0.950 . S
H431 C418 0.951 . S
C432 C433 1.386 1_556 S
C432 C434 1.383 . S
C432 H448 0.951 . S
C433 C432 1.386 1_554 S
C433 C437 1.383 . S
C434 C432 1.383 . S
C434 C435 1.402 1_556 S
C434 H449 0.951 . S
C435 C434 1.402 1_554 S
C435 C436 1.375 . S
C435 C438 1.481 . S
C436 C435 1.375 . S
C436 C437 1.367 . S
C436 H450 0.951 . S
C437 C433 1.383 . S
C437 C436 1.367 . S
C437 H451 0.950 . S
C438 C435 1.481 . S
C438 C439 1.297 1_554 S
C438 H452 0.950 . S
C439 C438 1.297 1_556 S
C439 C440 1.479 . S
C439 H453 0.950 . S
C440 C439 1.479 . S
C440 C441 1.375 . S
C440 C446 1.404 1_556 S
C441 C440 1.375 . S
C441 C442 1.369 . S
C441 H454 0.950 . S
C442 C441 1.369 . S
C442 C443 1.392 . S
C442 H455 0.951 . S
C443 C442 1.392 . S
C443 C445 1.384 1_556 S
H444 C446 0.949 . S
C445 C443 1.384 1_554 S
C445 C446 1.385 . S
C445 H447 0.950 . S
C446 C440 1.404 1_554 S
C446 H444 0.949 . S
C446 C445 1.385 . S
H447 C445 0.950 . S
H448 C432 0.951 . S
H449 C434 0.951 . S
H450 C436 0.951 . S
H451 C437 0.950 . S
H452 C438 0.950 . S
H453 C439 0.950 . S
H454 C441 0.950 . S
H455 C442 0.951 . S
C456 C457 1.386 . S
C456 C458 1.383 . S
C456 H472 0.951 . S
C457 C456 1.386 . S
C457 C461 1.383 . S
C458 C456 1.383 . S
C458 C459 1.402 . S
C458 H473 0.951 . S
C459 C458 1.402 . S
C459 C460 1.375 . S
C459 C462 1.481 . S
C460 C459 1.375 . S
C460 C461 1.367 . S
C460 H474 0.951 . S
C461 C457 1.383 . S
C461 C460 1.367 . S
C461 H475 0.950 . S
C462 C459 1.481 . S
C462 C463 1.297 . S
C462 H476 0.950 . S
C463 C462 1.297 . S
C463 C464 1.479 . S
C463 H477 0.950 1_556 S
C464 C463 1.479 . S
C464 C465 1.375 1_556 S
C464 C470 1.404 . S
C465 C464 1.375 1_554 S
C465 C466 1.369 . S
C465 H478 0.950 . S
C466 C465 1.369 . S
C466 C467 1.392 . S
C466 H479 0.951 . S
C467 C466 1.392 . S
C467 C469 1.384 1_554 S
H468 C470 0.949 . S
C469 C467 1.384 1_556 S
C469 C470 1.385 . S
C469 H471 0.950 . S
C470 C464 1.404 . S
C470 H468 0.949 . S
C470 C469 1.385 . S
H471 C469 0.950 . S
H472 C456 0.951 . S
H473 C458 0.951 . S
H474 C460 0.951 . S
H475 C461 0.950 . S
H476 C462 0.950 . S
H477 C463 0.950 1_554 S
H478 C465 0.950 . S
H479 C466 0.951 . S
C480 C481 1.386 . S
C480 C482 1.383 . S
C480 H496 0.951 . S
C481 C480 1.386 . S
C481 C485 1.383 . S
C482 C480 1.383 . S
C482 C483 1.402 . S
C482 H497 0.951 . S
C483 C482 1.402 . S
C483 C484 1.375 . S
C483 C486 1.481 . S
C484 C483 1.375 . S
C484 C485 1.367 . S
C484 H498 0.951 . S
C485 C481 1.383 . S
C485 C484 1.367 . S
C485 H499 0.950 . S
C486 C483 1.481 . S
C486 C487 1.297 . S
C486 H500 0.950 . S
C487 C486 1.297 . S
C487 C488 1.479 . S
C487 H501 0.950 . S
C488 C487 1.479 . S
C488 C489 1.375 . S
C488 C494 1.404 . S
C489 C488 1.375 . S
C489 C490 1.369 . S
C489 H502 0.950 . S
C490 C489 1.369 . S
C490 C491 1.392 . S
C490 H503 0.951 . S
C491 C490 1.392 . S
C491 C493 1.384 . S
H492 C494 0.949 . S
C493 C491 1.384 . S
C493 C494 1.385 . S
C493 H495 0.950 . S
C494 C488 1.404 . S
C494 H492 0.949 . S
C494 C493 1.385 . S
H495 C493 0.950 . S
H496 C480 0.951 . S
H497 C482 0.951 . S
H498 C484 0.951 . S
H499 C485 0.950 . S
H500 C486 0.950 . S
H501 C487 0.950 . S
H502 C489 0.950 . S
H503 C490 0.951 . S
C504 C505 1.386 . S
C504 C506 1.383 . S
C504 H520 0.951 1_556 S
C505 C504 1.386 . S
C505 C509 1.383 . S
C506 C504 1.383 . S
C506 C507 1.402 . S
C506 H521 0.951 1_556 S
C507 C506 1.402 . S
C507 C508 1.375 . S
C507 C510 1.481 . S
C508 C507 1.375 . S
C508 C509 1.367 . S
C508 H522 0.951 . S
C509 C505 1.383 . S
C509 C508 1.367 . S
C509 H523 0.950 . S
C510 C507 1.481 . S
C510 C511 1.297 . S
C510 H524 0.950 . S
C511 C510 1.297 . S
C511 C512 1.479 . S
C511 H525 0.950 1_556 S
C512 C511 1.479 . S
C512 C513 1.375 1_556 S
C512 C518 1.404 . S
C513 C512 1.375 1_554 S
C513 C514 1.369 . S
C513 H526 0.950 . S
C514 C513 1.369 . S
C514 C515 1.392 1_554 S
C514 H527 0.951 . S
C515 C514 1.392 1_556 S
C515 C517 1.384 . S
H516 C518 0.949 . S
C517 C515 1.384 . S
C517 C518 1.385 . S
C517 H519 0.950 . S
C518 C512 1.404 . S
C518 H516 0.949 . S
C518 C517 1.385 . S
H519 C517 0.950 . S
H520 C504 0.951 1_554 S
H521 C506 0.951 1_554 S
H522 C508 0.951 . S
H523 C509 0.950 . S
H524 C510 0.950 . S
H525 C511 0.950 1_554 S
H526 C513 0.950 . S
H527 C514 0.951 . S
C528 C529 1.386 . S
C528 C530 1.383 . S
C528 H544 0.951 . S
C529 C528 1.386 . S
C529 C533 1.383 . S
C530 C528 1.383 . S
C530 C531 1.402 . S
C530 H545 0.951 . S
C531 C530 1.402 . S
C531 C532 1.375 . S
C531 C534 1.481 . S
C532 C531 1.375 . S
C532 C533 1.367 . S
C532 H546 0.951 . S
C533 C529 1.383 . S
C533 C532 1.367 . S
C533 H547 0.950 . S
C534 C531 1.481 . S
C534 C535 1.297 . S
C534 H548 0.950 . S
C535 C534 1.297 . S
C535 C536 1.479 . S
C535 H549 0.950 . S
C536 C535 1.479 . S
C536 C537 1.375 . S
C536 C542 1.404 . S
C537 C536 1.375 . S
C537 C538 1.369 . S
C537 H550 0.950 . S
C538 C537 1.369 . S
C538 C539 1.392 . S
C538 H551 0.951 . S
C539 C538 1.392 . S
C539 C541 1.384 . S
H540 C542 0.949 . S
C541 C539 1.384 . S
C541 C542 1.385 . S
C541 H543 0.950 . S
C542 C536 1.404 . S
C542 H540 0.949 . S
C542 C541 1.385 . S
H543 C541 0.950 . S
H544 C528 0.951 . S
H545 C530 0.951 . S
H546 C532 0.951 . S
H547 C533 0.950 . S
H548 C534 0.950 . S
H549 C535 0.950 . S
H550 C537 0.950 . S
H551 C538 0.951 . S
C552 C553 1.386 . S
C552 C554 1.383 . S
C552 H568 0.951 . S
C553 C552 1.386 . S
C553 C557 1.383 . S
C554 C552 1.383 . S
C554 C555 1.402 . S
C554 H569 0.951 . S
C555 C554 1.402 . S
C555 C556 1.375 . S
C555 C558 1.481 . S
C556 C555 1.375 . S
C556 C557 1.367 . S
C556 H570 0.951 . S
C557 C553 1.383 . S
C557 C556 1.367 . S
C557 H571 0.950 . S
C558 C555 1.481 . S
C558 C559 1.297 . S
C558 H572 0.950 . S
C559 C558 1.297 . S
C559 C560 1.479 . S
C559 H573 0.950 . S
C560 C559 1.479 . S
C560 C561 1.375 . S
C560 C566 1.404 . S
C561 C560 1.375 . S
C561 C562 1.369 . S
C561 H574 0.950 . S
C562 C561 1.369 . S
C562 C563 1.392 . S
C562 H575 0.951 . S
C563 C562 1.392 . S
C563 C565 1.384 . S
H564 C566 0.949 . S
C565 C563 1.384 . S
C565 C566 1.385 . S
C565 H567 0.950 . S
C566 C560 1.404 . S
C566 H564 0.949 . S
C566 C565 1.385 . S
H567 C565 0.950 . S
H568 C552 0.951 . S
H569 C554 0.951 . S
H570 C556 0.951 . S
H571 C557 0.950 . S
H572 C558 0.950 . S
H573 C559 0.950 . S
H574 C561 0.950 . S
H575 C562 0.951 . S
C576 C577 1.386 . S
C576 C578 1.383 . S
C576 H592 0.951 . S
C577 C576 1.386 . S
C577 C581 1.383 . S
C578 C576 1.383 . S
C578 C579 1.402 . S
C578 H593 0.951 . S
C579 C578 1.402 . S
C579 C580 1.375 . S
C579 C582 1.481 . S
C580 C579 1.375 . S
C580 C581 1.367 . S
C580 H594 0.951 . S
C581 C577 1.383 . S
C581 C580 1.367 . S
C581 H595 0.950 . S
C582 C579 1.481 . S
C582 C583 1.297 . S
C582 H596 0.950 . S
C583 C582 1.297 . S
C583 C584 1.479 . S
C583 H597 0.950 . S
C584 C583 1.479 . S
C584 C585 1.375 . S
C584 C590 1.404 . S
C585 C584 1.375 . S
C585 C586 1.369 . S
C585 H598 0.950 . S
C586 C585 1.369 . S
C586 C587 1.392 . S
C586 H599 0.951 . S
C587 C586 1.392 . S
C587 C589 1.384 . S
H588 C590 0.949 . S
C589 C587 1.384 . S
C589 C590 1.385 . S
C589 H591 0.950 . S
C590 C584 1.404 . S
C590 H588 0.949 . S
C590 C589 1.385 . S
H591 C589 0.950 . S
H592 C576 0.951 . S
H593 C578 0.951 . S
H594 C580 0.951 . S
H595 C581 0.950 . S
H596 C582 0.950 . S
H597 C583 0.950 . S
H598 C585 0.950 . S
H599 C586 0.951 . S
C600 C601 1.386 . S
C600 C602 1.383 . S
C600 H616 0.951 . S
C601 C600 1.386 . S
C601 C605 1.383 . S
C602 C600 1.383 . S
C602 C603 1.402 . S
C602 H617 0.951 . S
C603 C602 1.402 . S
C603 C604 1.375 . S
C603 C606 1.481 . S
C604 C603 1.375 . S
C604 C605 1.367 . S
C604 H618 0.951 . S
C605 C601 1.383 . S
C605 C604 1.367 . S
C605 H619 0.950 . S
C606 C603 1.481 . S
C606 C607 1.297 . S
C606 H620 0.950 . S
C607 C606 1.297 . S
C607 C608 1.479 . S
C607 H621 0.950 . S
C608 C607 1.479 . S
C608 C609 1.375 . S
C608 C614 1.404 . S
C609 C608 1.375 . S
C609 C610 1.369 . S
C609 H622 0.950 . S
C610 C609 1.369 . S
C610 C611 1.392 . S
C610 H623 0.951 . S
C611 C610 1.392 . S
C611 C613 1.384 . S
H612 C614 0.949 . S
C613 C611 1.384 . S
C613 C614 1.385 . S
C613 H615 0.950 . S
C614 C608 1.404 . S
C614 H612 0.949 . S
C614 C613 1.385 . S
H615 C613 0.950 . S
H616 C600 0.951 . S
H617 C602 0.951 . S
H618 C604 0.951 . S
H619 C605 0.950 . S
H620 C606 0.950 . S
H621 C607 0.950 . S
H622 C609 0.950 . S
H623 C610 0.951 . S
C624 C625 1.386 . S
C624 C626 1.383 . S
C624 H640 0.951 . S
C625 C624 1.386 . S
C625 C629 1.383 . S
C626 C624 1.383 . S
C626 C627 1.402 . S
C626 H641 0.951 . S
C627 C626 1.402 . S
C627 C628 1.375 . S
C627 C630 1.481 . S
C628 C627 1.375 . S
C628 C629 1.367 . S
C628 H642 0.951 . S
C629 C625 1.383 . S
C629 C628 1.367 . S
C629 H643 0.950 . S
C630 C627 1.481 . S
C630 C631 1.297 . S
C630 H644 0.950 . S
C631 C630 1.297 . S
C631 C632 1.479 . S
C631 H645 0.950 . S
C632 C631 1.479 . S
C632 C633 1.375 . S
C632 C638 1.404 . S
C633 C632 1.375 . S
C633 C634 1.369 . S
C633 H646 0.950 . S
C634 C633 1.369 . S
C634 C635 1.392 . S
C634 H647 0.951 . S
C635 C634 1.392 . S
C635 C637 1.384 . S
H636 C638 0.949 . S
C637 C635 1.384 . S
C637 C638 1.385 . S
C637 H639 0.950 . S
C638 C632 1.404 . S
C638 H636 0.949 . S
C638 C637 1.385 . S
H639 C637 0.950 . S
H640 C624 0.951 . S
H641 C626 0.951 . S
H642 C628 0.951 . S
H643 C629 0.950 . S
H644 C630 0.950 . S
H645 C631 0.950 . S
H646 C633 0.950 . S
H647 C634 0.951 . S
C648 C649 1.386 . S
C648 C650 1.383 . S
C648 H664 0.951 . S
C649 C648 1.386 . S
C649 C653 1.383 . S
C650 C648 1.383 . S
C650 C651 1.402 . S
C650 H665 0.951 . S
C651 C650 1.402 . S
C651 C652 1.375 . S
C651 C654 1.481 . S
C652 C651 1.375 . S
C652 C653 1.367 . S
C652 H666 0.951 . S
C653 C649 1.383 . S
C653 C652 1.367 . S
C653 H667 0.950 . S
C654 C651 1.481 . S
C654 C655 1.297 . S
C654 H668 0.950 . S
C655 C654 1.297 . S
C655 C656 1.479 . S
C655 H669 0.950 . S
C656 C655 1.479 . S
C656 C657 1.375 . S
C656 C662 1.404 . S
C657 C656 1.375 . S
C657 C658 1.369 . S
C657 H670 0.950 . S
C658 C657 1.369 . S
C658 C659 1.392 . S
C658 H671 0.951 . S
C659 C658 1.392 . S
C659 C661 1.384 . S
H660 C662 0.949 . S
C661 C659 1.384 . S
C661 C662 1.385 . S
C661 H663 0.950 . S
C662 C656 1.404 . S
C662 H660 0.949 . S
C662 C661 1.385 . S
H663 C661 0.950 . S
H664 C648 0.951 . S
H665 C650 0.951 . S
H666 C652 0.951 . S
H667 C653 0.950 . S
H668 C654 0.950 . S
H669 C655 0.950 . S
H670 C657 0.950 . S
H671 C658 0.951 . S
C241 C202 3.688 . S
C251 C7 3.605 . S
C265 C2 3.498 . S
C275 C47 3.312 1_455 S
C289 C42 2.927 . S
C299 C82 2.931 . S
C313 C127 2.392 . S
C323 C87 2.233 . S
C337 C167 2.813 . S
C347 C122 3.190 . S
C361 C162 2.397 . S
C371 C207 2.374 . S
C385 C171 2.446 . S
C395 C16 2.367 . S
C409 C211 3.270 . S
C419 C56 3.253 . S
C433 C91 3.711 1_554 S
C443 C11 3.722 . S
C457 C136 2.071 . S
C467 C51 2.131 . S
C481 C176 0.923 . S
C491 C96 0.903 . S
C505 C131 1.259 . S
C515 C216 1.265 . S
C529 C10 0.436 . S
C539 C19 0.657 . S
C553 C50 0.520 . S
C563 C59 0.296 . S
C577 C99 0.319 . S
C587 C90 0.421 . S
C601 C130 0.412 . S
C611 C139 0.185 . S
C625 C179 0.507 . S
C635 C170 0.425 . S
C649 C210 0.166 . S
C659 C219 0.405 . S
