# Generated by pormake.
# Topology xbj, (5)-cn, num edge types: 1
# Building blocks:
#     Node 0, Type 0, BuildingBlock: XOMCOT_clean_sbu_1, # of connection points: 5
#     Node 1, Type 0, BuildingBlock: XOMCOT_clean_sbu_1, # of connection points: 5
#     Node 2, Type 0, BuildingBlock: XOMCOT_clean_sbu_1, # of connection points: 5
#     Node 3, Type 0, BuildingBlock: XOMCOT_clean_sbu_1, # of connection points: 5
#     Node 4, Type 0, BuildingBlock: XOMCOT_clean_sbu_1, # of connection points: 5
#     Node 5, Type 0, BuildingBlock: XOMCOT_clean_sbu_1, # of connection points: 5
#     Node 6, Type 0, BuildingBlock: XOMCOT_clean_sbu_1, # of connection points: 5
#     Node 7, Type 0, BuildingBlock: XOMCOT_clean_sbu_1, # of connection points: 5
#     Edge 8, Type (0, 0), BuildingBlock: OJICUG_clean_linker_0, # of connection points: 2
#     Edge 9, Type (0, 0), BuildingBlock: OJICUG_clean_linker_0, # of connection points: 2
#     Edge 10, Type (0, 0), BuildingBlock: OJICUG_clean_linker_0, # of connection points: 2
#     Edge 11, Type (0, 0), BuildingBlock: OJICUG_clean_linker_0, # of connection points: 2
#     Edge 12, Type (0, 0), BuildingBlock: OJICUG_clean_linker_0, # of connection points: 2
#     Edge 13, Type (0, 0), BuildingBlock: OJICUG_clean_linker_0, # of connection points: 2
#     Edge 14, Type (0, 0), BuildingBlock: OJICUG_clean_linker_0, # of connection points: 2
#     Edge 15, Type (0, 0), BuildingBlock: OJICUG_clean_linker_0, # of connection points: 2
#     Edge 16, Type (0, 0), BuildingBlock: OJICUG_clean_linker_0, # of connection points: 2
#     Edge 17, Type (0, 0), BuildingBlock: OJICUG_clean_linker_0, # of connection points: 2
#     Edge 18, Type (0, 0), BuildingBlock: OJICUG_clean_linker_0, # of connection points: 2
#     Edge 19, Type (0, 0), BuildingBlock: OJICUG_clean_linker_0, # of connection points: 2
#     Edge 20, Type (0, 0), BuildingBlock: OJICUG_clean_linker_0, # of connection points: 2
#     Edge 21, Type (0, 0), BuildingBlock: OJICUG_clean_linker_0, # of connection points: 2
#     Edge 22, Type (0, 0), BuildingBlock: OJICUG_clean_linker_0, # of connection points: 2
#     Edge 23, Type (0, 0), BuildingBlock: OJICUG_clean_linker_0, # of connection points: 2
#     Edge 24, Type (0, 0), BuildingBlock: OJICUG_clean_linker_0, # of connection points: 2
#     Edge 25, Type (0, 0), BuildingBlock: OJICUG_clean_linker_0, # of connection points: 2
#     Edge 26, Type (0, 0), BuildingBlock: OJICUG_clean_linker_0, # of connection points: 2
#     Edge 27, Type (0, 0), BuildingBlock: OJICUG_clean_linker_0, # of connection points: 2
# Relax obj value: 0.175
# Max RMSD: 0.161
# Mean RMSD: 0.153
data_MOF--net-xbj--node1-XOMCOT_clean_sbu_1--edge1-OJICUG_clean_linker_0
_symmetry_space_group_name_H-M    P1
_symmetry_Int_Tables_number       1
_symmetry_cell_setting            triclinic
loop_
_symmetry_equiv_pos_as_xyz
'x, y, z'
_cell_length_a     13.640856
_cell_length_b     13.675394
_cell_length_c     80.653818
_cell_angle_alpha  96.080624
_cell_angle_beta   95.453004
_cell_angle_gamma 89.419184
loop_
_atom_site_label
_atom_site_type_symbol
_atom_site_fract_x
_atom_site_fract_y
_atom_site_fract_z
_atom_type_partial_charge
C0 C 0.33136 1.01234 0.05726 0.0
C1 C 0.43254 1.01719 0.05815 0.0
N2 N 0.46739 0.92893 0.05222 0.0
N3 N 0.3015 0.92145 0.05088 0.0
C4 C 0.38603 0.87209 0.04801 0.0
H5 H 0.28229 0.07275 0.06034 0.0
Co6 Co 0.1689 0.88708 0.04493 0.0
C7 C 0.16966 0.67046 0.04234 0.0
O8 O 0.09579 0.66733 0.0516 0.0
N9 N 0.03407 0.85447 0.03876 0.0
C10 C 0.897 0.79213 0.0245 0.0
C11 C 0.99794 0.7964 0.025 0.0
C12 C 0.95275 0.88563 0.04627 0.0
N13 N 0.86795 0.84822 0.03794 0.0
O14 O 0.15412 0.86412 0.06745 0.0
H15 H 0.0422 0.75988 0.01576 0.0
H16 H 0.95547 0.93533 0.05759 0.0
O17 O 0.20512 0.75281 0.03998 0.0
C18 C 0.12491 0.9335 0.07757 0.0
O19 O 0.11169 1.02148 0.07258 0.0
N20 N 0.18307 0.91095 0.02279 0.0
C21 C 0.18358 0.94721 -0.0106 0.0
C22 C 0.23717 0.86852 -0.00451 0.0
C23 C 0.23703 0.85237 0.01224 0.0
C24 C 0.13258 0.98943 0.01728 0.0
C25 C 0.1318 1.00901 0.00062 0.0
H26 H 0.27989 0.79172 0.01649 0.0
H27 H 0.09136 0.03601 0.02583 0.0
H28 H 0.38769 0.79674 0.04246 0.0
H29 H 0.47627 0.08259 0.06205 0.0
H30 H 0.84908 0.75216 0.01469 0.0
H31 H 0.27821 0.8188 -0.01264 0.0
H32 H 0.09169 0.0725 -0.00336 0.0
C33 C 0.46054 0.78126 0.31174 0.0
C34 C 0.45266 0.88194 0.31207 0.0
N35 N 0.49093 0.90981 0.2985 0.0
N36 N 0.50461 0.74475 0.29814 0.0
C37 C 0.5206 0.82488 0.29017 0.0
H38 H 0.43522 0.73765 0.3209 0.0
Co39 Co 0.53004 0.60974 0.29193 0.0
C40 C 0.72073 0.70159 0.28611 0.0
O41 O 0.72746 0.76281 0.29986 0.0
N42 N 0.5539 0.47419 0.28577 0.0
C43 C 0.61142 0.33564 0.27317 0.0
C44 C 0.61209 0.43622 0.27407 0.0
C45 C 0.51845 0.3938 0.2918 0.0
N46 N 0.55299 0.30785 0.28441 0.0
O47 O 0.60415 0.60303 0.31295 0.0
H48 H 0.65324 0.47811 0.26652 0.0
H49 H 0.46893 0.39852 0.30154 0.0
O50 O 0.64817 0.643 0.28273 0.0
C51 C 0.56646 0.58098 0.32589 0.0
O52 O 0.4754 0.54845 0.32434 0.0
N53 N 0.45628 0.6196 0.27135 0.0
C54 C 0.34707 0.69504 0.24473 0.0
C55 C 0.44324 0.66154 0.24309 0.0
C56 C 0.49678 0.62384 0.25656 0.0
C57 C 0.35966 0.64228 0.27257 0.0
C58 C 0.30365 0.68105 0.25941 0.0
H59 H 0.57267 0.60492 0.25526 0.0
H60 H 0.32844 0.63809 0.28431 0.0
H61 H 0.55284 0.82073 0.27837 0.0
H62 H 0.42281 0.93083 0.32178 0.0
H63 H 0.65112 0.2873 0.26466 0.0
H64 H 0.47922 0.67036 0.23194 0.0
H65 H 0.22849 0.70372 0.26098 0.0
C66 C 0.88233 0.54734 0.57378 0.0
C67 C 0.98382 0.54925 0.57532 0.0
N68 N 1.01726 0.46291 0.56826 0.0
N69 N 0.85074 0.46037 0.56578 0.0
C70 C 0.93461 0.40995 0.56277 0.0
H71 H 0.8343 0.60718 0.57765 0.0
Co72 Co 0.71692 0.43019 0.55906 0.0
C73 C 0.74853 0.23209 0.54118 0.0
O74 O 0.70946 0.18492 0.55231 0.0
N75 N 0.58226 0.39982 0.55267 0.0
C76 C 0.44187 0.35497 0.53758 0.0
C77 C 0.54235 0.36079 0.53749 0.0
C78 C 0.50395 0.41741 0.56176 0.0
N79 N 0.41699 0.39061 0.55286 0.0
O80 O 0.71493 0.344 0.57592 0.0
H81 H 0.58316 0.34119 0.52676 0.0
H82 H 0.51086 0.45052 0.57461 0.0
O83 O 0.75487 0.32524 0.54325 0.0
C84 C 0.7089 0.37436 0.59122 0.0
O85 O 0.72083 0.46846 0.59619 0.0
N86 N 0.71608 0.51524 0.54208 0.0
C87 C 0.68377 0.59487 0.51164 0.0
C88 C 0.7704 0.54285 0.51559 0.0
C89 C 0.7853 0.50403 0.53087 0.0
C90 C 0.63765 0.57628 0.53942 0.0
C91 C 0.61902 0.61561 0.5241 0.0
H92 H 0.8499 0.45959 0.53315 0.0
H93 H 0.58489 0.58824 0.54863 0.0
H94 H 0.93487 0.337 0.55615 0.0
H95 H 1.02899 0.61173 0.58049 0.0
H96 H 0.39092 0.33 0.52691 0.0
H97 H 0.82541 0.52968 0.50677 0.0
H98 H 0.55235 0.65764 0.52179 0.0
C99 C 0.82693 0.32624 0.80588 0.0
C100 C 0.82306 0.42731 0.80694 0.0
N101 N 0.90435 0.46022 0.80099 0.0
N102 N 0.9097 0.29483 0.79913 0.0
C103 C 0.95624 0.37814 0.79649 0.0
H104 H 0.77245 0.27828 0.80965 0.0
Co105 Co 0.94457 0.1619 0.79512 0.0
C106 C 1.01913 0.14033 0.76235 0.0
O107 O 0.97034 0.0568 0.76001 0.0
N108 N 0.98335 1.02601 0.7924 0.0
C109 C 0.0826 0.89554 0.78952 0.0
C110 C 0.0744 0.99528 0.78889 0.0
C111 C 0.94041 0.94319 0.7963 0.0
N112 N 0.99795 0.86216 0.79416 0.0
O113 O 0.05339 0.18608 0.81162 0.0
H114 H 0.13261 0.0429 0.78629 0.0
H115 H 0.87165 0.94289 0.80186 0.0
O116 O 1.02427 0.19128 0.77675 0.0
C117 C 0.04143 0.15538 0.82563 0.0
O118 O 0.96133 0.10556 0.82705 0.0
N119 N 0.83189 0.14258 0.77893 0.0
C120 C 0.68952 0.11271 0.75182 0.0
C121 C 0.75126 0.19419 0.75355 0.0
C122 C 0.81978 0.2092 0.76734 0.0
C123 C 0.7637 0.0695 0.77848 0.0
C124 C 0.69214 0.05215 0.76479 0.0
H125 H 0.86765 0.27207 0.76799 0.0
H126 H 0.76317 1.02474 0.78861 0.0
H127 H 1.02562 0.37833 0.79102 0.0
H128 H 0.76506 0.47299 0.81186 0.0
H129 H 0.14673 0.85159 0.78687 0.0
H130 H 0.7474 0.24562 0.74416 0.0
H131 H 0.64052 0.99201 0.76428 0.0
C132 C 0.052 0.43257 0.91519 0.0
C133 C 0.95068 0.43648 0.914 0.0
N134 N 0.91609 0.34976 0.91757 0.0
N135 N 0.08218 0.34394 0.91948 0.0
C136 C 0.99781 0.29475 0.92072 0.0
H137 H 0.10097 0.49191 0.91362 0.0
Co138 Co 0.21526 0.31196 0.92429 0.0
C139 C 0.21203 0.09846 0.92711 0.0
O140 O 0.28218 0.0799 0.91713 0.0
N141 N 0.35 0.28226 0.92918 0.0
C142 C 0.48932 0.2347 0.94265 0.0
C143 C 0.38876 0.23948 0.94265 0.0
C144 C 0.42922 0.30401 0.92128 0.0
N145 N 0.51544 0.27525 0.92919 0.0
O146 O 0.21931 0.25781 0.90174 0.0
H147 H 0.34662 0.21513 0.95216 0.0
H148 H 0.42363 0.34113 0.91004 0.0
O149 O 0.17971 0.18555 0.92984 0.0
C150 C 0.22908 0.30656 0.88943 0.0
O151 O 0.24748 0.4013 0.89222 0.0
N152 N 0.20833 0.36491 0.94665 0.0
C153 C 0.20717 0.44144 0.98016 0.0
C154 C 0.14934 0.35978 0.97366 0.0
C155 C 0.14948 0.32396 0.95688 0.0
C156 C 0.26433 0.44518 0.95259 0.0
C157 C 0.26483 0.48481 0.96933 0.0
H158 H 0.10157 0.26293 0.95226 0.0
H159 H 0.30919 0.47817 0.94431 0.0
H160 H 0.99649 0.22082 0.92427 0.0
H161 H 0.90653 0.50028 0.91145 0.0
H162 H 0.53937 0.20654 0.95224 0.0
H163 H 0.10397 0.32326 0.98144 0.0
H164 H 0.30869 0.54972 0.97362 0.0
C165 C 0.08719 0.63053 0.16228 0.0
C166 C 0.09196 0.52972 0.16156 0.0
N167 N 1.00485 0.49521 0.16516 0.0
N168 N 0.99768 0.66104 0.16641 0.0
C169 C 0.94862 0.57705 0.16783 0.0
H170 H 0.14582 0.67876 0.16006 0.0
Co171 Co 0.956 0.79323 0.16952 0.0
C172 C 0.10285 0.88107 0.1955 0.0
O173 O 0.03304 0.93635 0.20176 0.0
N174 N 0.91185 0.92666 0.17122 0.0
C175 C 0.81167 0.05252 0.16632 0.0
C176 C 0.8177 0.95285 0.16711 0.0
C177 C 0.96249 1.01239 0.17179 0.0
N178 N 0.90294 0.09075 0.16931 0.0
O179 O 1.00575 0.81465 0.14888 0.0
H180 H 0.75769 0.90166 0.16349 0.0
H181 H 0.04197 1.01645 0.17323 0.0
O182 O 0.08405 0.82934 0.18141 0.0
C183 C 0.95193 0.82951 0.13564 0.0
O184 O 0.85566 0.82824 0.13557 0.0
N185 N 0.90907 0.76971 0.19063 0.0
C186 C 0.8617 0.74827 0.22307 0.0
C187 C 0.94814 0.70778 0.21741 0.0
C188 C 0.97002 0.71866 0.20121 0.0
C189 C 0.8204 0.80246 0.19562 0.0
C190 C 0.79631 0.79456 0.21193 0.0
H191 H 0.03886 0.68846 0.19745 0.0
H192 H 0.76709 0.83484 0.18722 0.0
H193 H 0.87381 0.57706 0.1712 0.0
H194 H 0.15569 0.48606 0.15861 0.0
H195 H 0.74558 0.09237 0.16266 0.0
H196 H 0.99978 0.66987 0.22557 0.0
H197 H 0.72655 0.82314 0.21571 0.0
C198 C 0.53294 0.99093 0.41299 0.0
C199 C 0.43162 0.99562 0.41168 0.0
N200 N 0.39635 0.90975 0.41547 0.0
N201 N 0.56212 0.90298 0.41778 0.0
C202 C 0.47728 0.85432 0.4189 0.0
H203 H 0.58254 0.04855 0.41086 0.0
Co204 Co 0.69445 0.86513 0.42175 0.0
C205 C 0.70431 0.76005 0.45137 0.0
O206 O 0.78481 0.81082 0.45644 0.0
N207 N 0.82966 0.82442 0.42417 0.0
C208 C 0.96047 0.72483 0.42507 0.0
C209 C 0.86082 0.73185 0.42622 0.0
C210 C 0.91198 0.86979 0.42051 0.0
N211 N 0.99328 0.81194 0.4215 0.0
O212 O 0.67413 0.76893 0.40293 0.0
H213 H 0.81358 0.6713 0.42785 0.0
H214 H 0.91128 0.94156 0.41604 0.0
O215 O 0.65819 0.76944 0.437 0.0
C216 C 0.70765 0.78487 0.38929 0.0
O217 O 0.75821 0.86561 0.3888 0.0
N218 N 0.71073 0.96378 0.44082 0.0
C219 C 0.74024 0.06439 0.47287 0.0
C220 C 0.65023 1.01946 0.46725 0.0
C221 C 0.63706 0.96956 0.45134 0.0
C222 C 0.79264 1.02119 0.44515 0.0
C223 C 0.8101 0.07042 0.46133 0.0
H224 H 0.57021 0.92758 0.4483 0.0
H225 H 0.847 1.02681 0.43655 0.0
H226 H 0.47516 0.78098 0.42273 0.0
H227 H 0.38748 0.05768 0.40817 0.0
H228 H 1.00468 0.65965 0.42653 0.0
H229 H 0.59189 1.01792 0.47545 0.0
H230 H 0.87906 0.10891 0.46496 0.0
C231 C 0.25623 1.02648 0.64277 0.0
C232 C 0.25467 0.92513 0.64118 0.0
N233 N 0.33533 0.89271 0.64999 0.0
N234 N 0.33725 0.05887 0.6526 0.0
C235 C 0.38504 0.97563 0.65653 0.0
H236 H 0.19979 0.07389 0.63765 0.0
Co237 Co 0.36493 0.19313 0.65983 0.0
C238 C 0.44515 0.18861 0.69462 0.0
O239 O 0.38764 0.26368 0.69846 0.0
N240 N 0.39673 0.32949 0.66584 0.0
C241 C 0.48903 0.46325 0.67385 0.0
C242 C 0.48207 0.36361 0.67429 0.0
C243 C 0.35678 0.4106 0.65936 0.0
N244 N 0.4099 0.49368 0.66451 0.0
O245 O 0.47377 0.18792 0.64675 0.0
H246 H 0.53983 0.31847 0.67959 0.0
H247 H 0.2917 0.40807 0.65055 0.0
O248 O 0.45009 0.15497 0.67927 0.0
C249 C 0.46082 0.1834 0.63089 0.0
O250 O 0.37162 0.16906 0.62338 0.0
N251 N 0.25441 0.19845 0.67321 0.0
C252 C 0.14137 0.21876 0.70033 0.0
C253 C 0.18688 0.12966 0.69586 0.0
C254 C 0.24234 0.12063 0.68226 0.0
C255 C 0.19777 0.28082 0.67595 0.0
C256 C 0.14246 0.29377 0.68985 0.0
H257 H 0.28494 0.05438 0.68057 0.0
H258 H 0.19883 0.33946 0.66813 0.0
H259 H 0.45311 0.97612 0.6646 0.0
H260 H 0.19588 0.87929 0.63469 0.0
H261 H 0.55086 0.50874 0.67925 0.0
H262 H 0.18542 0.06943 0.70357 0.0
H263 H 0.1041 0.36236 0.69266 0.0
C264 C 0.12875 0.83828 0.10244 0.0
C265 C 0.0847 0.91023 0.09299 0.0
H266 H 0.12185 0.75776 0.12377 0.0
C267 C 0.99723 0.9555 0.0977 0.0
H268 H 0.19589 0.80204 0.09896 0.0
C269 C 0.95325 0.92778 0.11142 0.0
C270 C 0.99757 0.85649 0.12096 0.0
H271 H 0.96113 1.01026 0.09046 0.0
H272 H 0.88517 0.96297 0.11469 0.0
C273 C 0.08642 0.81291 0.11654 0.0
C274 C 0.60305 0.65282 0.37262 0.0
C275 C 0.68185 0.71936 0.37376 0.0
H276 H 0.50492 0.55567 0.3565 0.0
C277 C 0.73084 0.72872 0.35947 0.0
H278 H 0.56413 0.64371 0.38345 0.0
C279 C 0.69778 0.67752 0.3441 0.0
C280 C 0.61416 0.61679 0.34265 0.0
H281 H 0.79264 0.77847 0.36001 0.0
H282 H 0.73459 0.69002 0.33319 0.0
C283 C 0.5692 0.60231 0.35718 0.0
C284 C 0.59902 0.23444 0.59449 0.0
C285 C 0.66236 0.3107 0.60191 0.0
H286 H 0.48459 0.13449 0.59795 0.0
C287 C 0.66884 0.33417 0.61935 0.0
H288 H 0.5918 0.21505 0.58106 0.0
C289 C 0.60865 0.28642 0.62906 0.0
C290 C 0.5394 0.21618 0.62141 0.0
H291 H 0.717 0.3926 0.62537 0.0
H292 H 0.61144 0.30965 0.64237 0.0
C293 C 0.53724 0.18848 0.60413 0.0
C294 C 0.1579 0.166 0.8699 0.0
C295 C 0.19975 0.26059 0.87225 0.0
H296 H 0.07512 0.05871 0.85319 0.0
C297 C 0.20196 0.31416 0.85833 0.0
H298 H 0.15556 0.12224 0.8803 0.0
C299 C 0.15677 0.27667 0.84265 0.0
C300 C 0.1077 0.18578 0.84077 0.0
H301 H 0.23418 0.38697 0.85971 0.0
H302 H 0.15453 0.32165 0.83234 0.0
C303 C 0.11164 0.12945 0.85436 0.0
C304 C 0.10566 0.53658 0.02106 0.0
C305 C 0.18655 0.58894 0.0295 0.0
H306 H 0.04732 0.45269 -0.00141 0.0
C307 C 0.2778 0.58123 0.02273 0.0
H308 H 0.03397 0.54286 0.02583 0.0
C309 C 0.28602 0.5289 0.00709 0.0
C310 C 0.20281 0.48408 -0.00215 0.0
H311 H 0.34126 0.6213 0.02902 0.0
H312 H 0.35665 0.52709 0.00197 0.0
C313 C 0.11343 0.48538 0.00532 0.0
C314 C 0.80906 0.63469 0.26194 0.0
C315 C 0.77865 0.71673 0.27215 0.0
H316 H 0.85952 0.58074 0.23833 0.0
C317 C 0.78462 0.81067 0.26682 0.0
H318 H 0.80519 0.56157 0.26583 0.0
C319 C 0.81309 0.82146 0.2509 0.0
C320 C 0.83844 0.73861 0.24034 0.0
H321 H 0.76118 0.8748 0.27447 0.0
H322 H 0.81324 0.8941 0.24669 0.0
C323 C 0.83962 0.64561 0.24622 0.0
C324 C 0.62385 0.75997 0.47732 0.0
C325 C 0.66342 0.70572 0.46377 0.0
H326 H 0.60093 0.76868 0.50327 0.0
C327 C 0.69379 0.60879 0.4652 0.0
H328 H 0.60121 0.83541 0.47653 0.0
C329 C 0.69283 0.56971 0.4805 0.0
C330 C 0.66371 0.62807 0.49468 0.0
H331 H 0.72627 0.56643 0.45498 0.0
H332 H 0.72082 0.49594 0.48148 0.0
C333 C 0.62413 0.7217 0.49269 0.0
C334 C 0.65522 0.08529 0.72095 0.0
C335 C 0.61929 0.09886 0.73681 0.0
H336 H 0.62665 0.10226 0.69478 0.0
C337 C 0.52088 0.12549 0.73813 0.0
H338 H 0.73166 0.06585 0.71979 0.0
C339 C 0.46198 0.14833 0.72398 0.0
C340 C 0.50066 0.1438 0.70836 0.0
H341 H 0.49242 0.13754 0.75028 0.0
H342 H 0.38793 0.17512 0.72544 0.0
C343 C 0.59571 0.10672 0.70672 0.0
C344 C 0.97931 0.16284 0.73245 0.0
C345 C 0.04253 0.18347 0.74722 0.0
H346 H 0.96029 0.16219 0.7058 0.0
C347 C 0.12959 0.23612 0.7467 0.0
H348 H 0.91088 0.12349 0.73254 0.0
C349 C 0.15752 0.25858 0.73124 0.0
C350 C 0.09753 0.23031 0.71635 0.0
H351 H 0.17916 0.25291 0.75793 0.0
H352 H 0.22932 0.29073 0.73074 0.0
C353 C 1.0065 0.18619 0.71715 0.0
C354 C 0.18768 0.88478 0.22432 0.0
C355 C 0.18305 0.84816 0.20731 0.0
H356 H 0.24239 0.86437 0.24944 0.0
C357 C 0.24163 0.76663 0.20251 0.0
H358 H 0.14426 0.94786 0.22848 0.0
C359 C 0.29676 0.71782 0.21462 0.0
C360 C 0.29469 0.74997 0.23171 0.0
H361 H 0.24001 0.73653 0.18952 0.0
H362 H 0.33723 0.6523 0.21064 0.0
C363 C 0.24255 0.83595 0.23639 0.0
C364 C 0.79982 0.19489 0.49571 0.0
C365 C 0.75938 0.10143 0.4908 0.0
H366 H 0.83051 0.30862 0.51567 0.0
C367 C 0.72962 0.04536 0.50312 0.0
H368 H 0.82395 0.23939 0.48653 0.0
C369 C 0.73223 0.08524 0.51981 0.0
C370 C 0.76509 0.18187 0.52452 0.0
H371 H 0.70061 0.97174 0.49973 0.0
H372 H 0.70374 0.04215 0.52881 0.0
C373 C 0.80287 0.23463 0.51243 0.0
C374 C 0.10124 1.00561 0.96303 0.0
C375 C 0.18491 0.96722 0.97165 0.0
H376 H 0.04364 0.07493 0.9416 0.0
C377 C 0.27177 0.95401 0.96352 0.0
H378 H 0.03234 1.01412 0.96869 0.0
C379 C 0.27715 0.98613 0.94776 0.0
C380 C 0.19625 0.03319 0.93997 0.0
H381 H 0.3379 0.92521 0.96978 0.0
H382 H 0.34734 0.98256 0.94246 0.0
C383 C 0.10704 0.03874 0.94738 0.0
C384 C 0.74484 0.94371 0.05408 0.0
C385 C 0.76741 0.86598 0.04214 0.0
H386 H 0.63372 1.02322 0.06689 0.0
C387 C 0.68905 0.80661 0.03418 0.0
H388 H 0.80193 0.99154 0.06056 0.0
C389 C 0.59154 0.82591 0.03767 0.0
C390 C 0.56885 0.90495 0.04933 0.0
H391 H 0.70234 0.74492 0.02515 0.0
H392 H 0.53396 0.77978 0.0309 0.0
C393 C 0.64732 0.96267 0.05763 0.0
C394 C 0.46005 0.18476 0.29764 0.0
C395 C 0.53502 0.20735 0.28779 0.0
H396 H 0.3861 0.07328 0.30855 0.0
C397 C 0.59303 0.12896 0.28127 0.0
H398 H 0.4128 0.24184 0.30278 0.0
C399 C 0.57698 0.03213 0.28447 0.0
C400 C 0.50326 1.00969 0.29447 0.0
H401 H 0.65264 0.14155 0.27386 0.0
H402 H 0.62435 0.97514 0.2794 0.0
C403 C 0.44459 0.08745 0.30096 0.0
C404 C 0.29582 0.47312 0.57107 0.0
C405 C 0.31743 0.40321 0.55782 0.0
H406 H 0.18493 0.54573 0.58497 0.0
C407 C 0.23853 0.34863 0.54888 0.0
H408 H 0.35389 0.51673 0.57828 0.0
C409 C 0.14106 0.36615 0.55257 0.0
C410 C 0.11887 0.43864 0.5654 0.0
H411 H 0.2516 0.29266 0.53882 0.0
H412 H 0.08308 0.32453 0.54496 0.0
C413 C 0.19814 0.49052 0.5748 0.0
C414 C 0.87623 0.73071 0.79615 0.0
C415 C 0.97461 0.76126 0.79639 0.0
H416 H 0.77684 0.61187 0.79715 0.0
C417 C 0.04954 0.69031 0.7983 0.0
H418 H 0.81626 0.78211 0.79441 0.0
C419 C 1.02671 0.59197 0.79974 0.0
C420 C 0.92838 0.56166 0.79945 0.0
H421 H 0.12627 0.71044 0.7988 0.0
H422 H 0.08631 0.53994 0.80131 0.0
C423 C 0.85352 0.63254 0.79769 0.0
C424 C 0.79107 0.25011 0.92884 0.0
C425 C 0.81429 0.32592 0.91937 0.0
H426 H 0.67932 0.17321 0.93903 0.0
C427 C 0.73593 0.38091 0.9123 0.0
H428 H 0.84836 0.20604 0.93457 0.0
C429 C 0.63802 0.36299 0.91512 0.0
C430 C 0.61536 0.28935 0.92508 0.0
H431 H 0.74996 0.43878 0.90468 0.0
H432 H 0.58058 0.40884 0.90987 0.0
C433 C 0.69334 0.232 0.9316 0.0
C434 C 0.85941 0.26827 0.1705 0.0
C435 C 0.92977 0.19268 0.16862 0.0
H436 H 0.82646 0.42118 0.17079 0.0
C437 C 1.02567 0.21891 0.1658 0.0
H438 H 0.78513 0.2519 0.17298 0.0
C439 C 0.05009 0.31729 0.16471 0.0
C440 C 0.97939 0.39311 0.16638 0.0
H441 H 0.08199 0.16345 0.16415 0.0
H442 H 0.12496 0.33287 0.16254 0.0
C443 C 0.88363 0.36656 0.16936 0.0
C444 C 0.16403 0.7629 0.41567 0.0
C445 C 0.09395 0.8369 0.4192 0.0
H446 H 0.31396 0.7277 0.4116 0.0
C447 C 0.12535 0.93547 0.42109 0.0
H448 H 0.14307 0.68621 0.41383 0.0
C449 C 0.22385 0.95918 0.41972 0.0
C450 C 0.29409 0.88506 0.41647 0.0
H451 H 0.07444 0.99451 0.42405 0.0
H452 H 0.2453 0.03578 0.42164 0.0
C453 C 0.26259 0.78663 0.41438 0.0
C454 C 0.41534 0.77111 0.66777 0.0
C455 C 0.35651 0.79177 0.65328 0.0
H456 H 0.47613 0.66199 0.68286 0.0
C457 C 0.31521 0.71171 0.64246 0.0
H458 H 0.44689 0.83001 0.67662 0.0
C459 C 0.3319 0.61421 0.6461 0.0
C460 C 0.39068 0.59389 0.66063 0.0
H461 H 0.2703 0.72414 0.63109 0.0
H462 H 0.29976 0.55491 0.6374 0.0
C463 C 0.43199 0.67399 0.67138 0.0
loop_
_geom_bond_atom_site_label_1
_geom_bond_atom_site_label_2
_geom_bond_distance
_geom_bond_site_symmetry_2
_ccdc_geom_bond_type
C0 C1 1.351 . S
C0 N3 1.368 . S
C0 H5 0.931 . S
C1 C0 1.351 . S
C1 N2 1.373 . S
C1 H29 0.930 . S
N2 C1 1.373 . S
N2 C4 1.340 . S
N3 C0 1.368 . S
N3 C4 1.321 . S
N3 Co6 2.135 . S
C4 N2 1.340 . S
C4 N3 1.321 . S
C4 H28 0.930 . S
H5 C0 0.931 . S
Co6 N3 2.135 . S
Co6 N9 2.121 1_455 S
Co6 O14 2.055 . S
Co6 O17 2.039 . S
Co6 N20 2.140 . S
C7 O8 1.227 . S
C7 O17 1.265 . S
O8 C7 1.227 . S
N9 Co6 2.121 1_655 S
N9 C11 1.375 . S
N9 C12 1.313 . S
C10 C11 1.338 . S
C10 N13 1.377 . S
C10 H30 0.930 . S
C11 N9 1.375 . S
C11 C10 1.338 . S
C11 H15 0.931 . S
C12 N9 1.313 . S
C12 N13 1.344 . S
C12 H16 0.930 . S
N13 C10 1.377 . S
N13 C12 1.344 . S
O14 Co6 2.055 . S
O14 C18 1.253 . S
H15 C11 0.931 . S
H16 C12 0.930 . S
O17 Co6 2.039 . S
O17 C7 1.265 . S
C18 O14 1.253 . S
C18 O19 1.227 . S
O19 C18 1.227 . S
N20 Co6 2.140 . S
N20 C23 1.346 . S
N20 C24 1.345 1_455 S
C21 C22 1.387 1_545 S
C21 C25 1.391 1_455 S
C22 C21 1.387 1_565 S
C22 C23 1.369 . S
C22 H31 0.929 . S
C23 N20 1.346 . S
C23 C22 1.369 . S
C23 H26 0.928 . S
C24 N20 1.345 1_655 S
C24 C25 1.371 1_565 S
C24 H27 0.931 . S
C25 C21 1.391 1_655 S
C25 C24 1.371 1_545 S
C25 H32 0.930 . S
H26 C23 0.928 . S
H27 C24 0.931 . S
H28 C4 0.930 . S
H29 C1 0.930 . S
H30 C10 0.930 . S
H31 C22 0.929 . S
H32 C25 0.930 . S
C33 C34 1.351 1_565 S
C33 N36 1.368 . S
C33 H38 0.931 . S
C34 C33 1.351 1_545 S
C34 N35 1.373 . S
C34 H62 0.930 . S
N35 C34 1.373 . S
N35 C37 1.340 1_545 S
N36 C33 1.368 . S
N36 C37 1.321 . S
N36 Co39 2.135 . S
C37 N35 1.340 1_565 S
C37 N36 1.321 . S
C37 H61 0.930 . S
H38 C33 0.931 . S
Co39 N36 2.135 . S
Co39 N42 2.121 . S
Co39 O47 2.055 . S
Co39 O50 2.039 . S
Co39 N53 2.140 . S
C40 O41 1.227 . S
C40 O50 1.265 . S
O41 C40 1.227 . S
N42 Co39 2.121 . S
N42 C44 1.375 . S
N42 C45 1.313 . S
C43 C44 1.338 . S
C43 N46 1.377 . S
C43 H63 0.930 . S
C44 N42 1.375 . S
C44 C43 1.338 . S
C44 H48 0.931 . S
C45 N42 1.313 . S
C45 N46 1.344 . S
C45 H49 0.930 . S
N46 C43 1.377 . S
N46 C45 1.344 . S
O47 Co39 2.055 . S
O47 C51 1.253 . S
H48 C44 0.931 . S
H49 C45 0.930 . S
O50 Co39 2.039 . S
O50 C40 1.265 . S
C51 O47 1.253 . S
C51 O52 1.227 . S
O52 C51 1.227 . S
N53 Co39 2.140 . S
N53 C56 1.346 . S
N53 C57 1.345 . S
C54 C55 1.387 . S
C54 C58 1.391 . S
C55 C54 1.387 . S
C55 C56 1.369 . S
C55 H64 0.929 . S
C56 N53 1.346 . S
C56 C55 1.369 . S
C56 H59 0.928 . S
C57 N53 1.345 . S
C57 C58 1.371 . S
C57 H60 0.931 . S
C58 C54 1.391 . S
C58 C57 1.371 . S
C58 H65 0.930 . S
H59 C56 0.928 . S
H60 C57 0.931 . S
H61 C37 0.930 . S
H62 C34 0.930 . S
H63 C43 0.930 . S
H64 C55 0.929 . S
H65 C58 0.930 . S
C66 C67 1.351 . S
C66 N69 1.368 . S
C66 H71 0.931 . S
C67 C66 1.351 . S
C67 N68 1.373 . S
C67 H95 0.930 . S
N68 C67 1.373 . S
N68 C70 1.340 . S
N69 C66 1.368 . S
N69 C70 1.321 . S
N69 Co72 2.135 . S
C70 N68 1.340 . S
C70 N69 1.321 . S
C70 H94 0.930 . S
H71 C66 0.931 . S
Co72 N69 2.135 . S
Co72 N75 2.121 . S
Co72 O80 2.055 . S
Co72 O83 2.039 . S
Co72 N86 2.140 . S
C73 O74 1.227 . S
C73 O83 1.265 . S
O74 C73 1.227 . S
N75 Co72 2.121 . S
N75 C77 1.375 . S
N75 C78 1.313 . S
C76 C77 1.338 . S
C76 N79 1.377 . S
C76 H96 0.930 . S
C77 N75 1.375 . S
C77 C76 1.338 . S
C77 H81 0.931 . S
C78 N75 1.313 . S
C78 N79 1.344 . S
C78 H82 0.930 . S
N79 C76 1.377 . S
N79 C78 1.344 . S
O80 Co72 2.055 . S
O80 C84 1.253 . S
H81 C77 0.931 . S
H82 C78 0.930 . S
O83 Co72 2.039 . S
O83 C73 1.265 . S
C84 O80 1.253 . S
C84 O85 1.227 . S
O85 C84 1.227 . S
N86 Co72 2.140 . S
N86 C89 1.346 . S
N86 C90 1.345 . S
C87 C88 1.387 . S
C87 C91 1.391 . S
C88 C87 1.387 . S
C88 C89 1.369 . S
C88 H97 0.929 . S
C89 N86 1.346 . S
C89 C88 1.369 . S
C89 H92 0.928 . S
C90 N86 1.345 . S
C90 C91 1.371 . S
C90 H93 0.931 . S
C91 C87 1.391 . S
C91 C90 1.371 . S
C91 H98 0.930 . S
H92 C89 0.928 . S
H93 C90 0.931 . S
H94 C70 0.930 . S
H95 C67 0.930 . S
H96 C76 0.930 . S
H97 C88 0.929 . S
H98 C91 0.930 . S
C99 C100 1.351 . S
C99 N102 1.368 . S
C99 H104 0.931 . S
C100 C99 1.351 . S
C100 N101 1.373 . S
C100 H128 0.930 . S
N101 C100 1.373 . S
N101 C103 1.340 . S
N102 C99 1.368 . S
N102 C103 1.321 . S
N102 Co105 2.135 . S
C103 N101 1.340 . S
C103 N102 1.321 . S
C103 H127 0.930 . S
H104 C99 0.931 . S
Co105 N102 2.135 . S
Co105 N108 2.121 . S
Co105 O113 2.055 . S
Co105 O116 2.039 . S
Co105 N119 2.140 1_455 S
C106 O107 1.227 . S
C106 O116 1.265 . S
O107 C106 1.227 . S
N108 Co105 2.121 . S
N108 C110 1.375 . S
N108 C111 1.313 . S
C109 C110 1.338 1_565 S
C109 N112 1.377 . S
C109 H129 0.930 . S
C110 N108 1.375 . S
C110 C109 1.338 1_545 S
C110 H114 0.931 . S
C111 N108 1.313 . S
C111 N112 1.344 1_545 S
C111 H115 0.930 . S
N112 C109 1.377 . S
N112 C111 1.344 1_565 S
O113 Co105 2.055 . S
O113 C117 1.253 . S
H114 C110 0.931 . S
H115 C111 0.930 . S
O116 Co105 2.039 . S
O116 C106 1.265 . S
C117 O113 1.253 . S
C117 O118 1.227 . S
O118 C117 1.227 . S
N119 Co105 2.140 1_655 S
N119 C122 1.346 . S
N119 C123 1.345 . S
C120 C121 1.387 . S
C120 C124 1.391 . S
C121 C120 1.387 . S
C121 C122 1.369 . S
C121 H130 0.929 . S
C122 N119 1.346 . S
C122 C121 1.369 . S
C122 H125 0.928 1_655 S
C123 N119 1.345 . S
C123 C124 1.371 . S
C123 H126 0.931 . S
C124 C120 1.391 . S
C124 C123 1.371 . S
C124 H131 0.930 . S
H125 C122 0.928 1_455 S
H126 C123 0.931 . S
H127 C103 0.930 . S
H128 C100 0.930 . S
H129 C109 0.930 . S
H130 C121 0.929 . S
H131 C124 0.930 . S
C132 C133 1.351 . S
C132 N135 1.368 . S
C132 H137 0.931 . S
C133 C132 1.351 . S
C133 N134 1.373 . S
C133 H161 0.930 . S
N134 C133 1.373 . S
N134 C136 1.340 . S
N135 C132 1.368 . S
N135 C136 1.321 . S
N135 Co138 2.135 1_655 S
C136 N134 1.340 . S
C136 N135 1.321 . S
C136 H160 0.930 . S
H137 C132 0.931 . S
Co138 N135 2.135 1_455 S
Co138 N141 2.121 . S
Co138 O146 2.055 . S
Co138 O149 2.039 . S
Co138 N152 2.140 . S
C139 O140 1.227 . S
C139 O149 1.265 . S
O140 C139 1.227 . S
N141 Co138 2.121 . S
N141 C143 1.375 . S
N141 C144 1.313 . S
C142 C143 1.338 . S
C142 N145 1.377 . S
C142 H162 0.930 . S
C143 N141 1.375 . S
C143 C142 1.338 . S
C143 H147 0.931 . S
C144 N141 1.313 . S
C144 N145 1.344 . S
C144 H148 0.930 . S
N145 C142 1.377 . S
N145 C144 1.344 . S
O146 Co138 2.055 . S
O146 C150 1.253 . S
H147 C143 0.931 . S
H148 C144 0.930 . S
O149 Co138 2.039 . S
O149 C139 1.265 . S
C150 O146 1.253 . S
C150 O151 1.227 . S
O151 C150 1.227 . S
N152 Co138 2.140 . S
N152 C155 1.346 1_455 S
N152 C156 1.345 . S
C153 C154 1.387 1_455 S
C153 C157 1.391 . S
C154 C153 1.387 1_655 S
C154 C155 1.369 . S
C154 H163 0.929 . S
C155 N152 1.346 1_655 S
C155 C154 1.369 . S
C155 H158 0.928 . S
C156 N152 1.345 . S
C156 C157 1.371 . S
C156 H159 0.931 . S
C157 C153 1.391 . S
C157 C156 1.371 . S
C157 H164 0.930 . S
H158 C155 0.928 . S
H159 C156 0.931 . S
H160 C136 0.930 . S
H161 C133 0.930 . S
H162 C142 0.930 . S
H163 C154 0.929 . S
H164 C157 0.930 . S
C165 C166 1.351 . S
C165 N168 1.368 1_655 S
C165 H170 0.931 . S
C166 C165 1.351 . S
C166 N167 1.373 1_655 S
C166 H194 0.930 . S
N167 C166 1.373 1_455 S
N167 C169 1.340 . S
N168 C165 1.368 1_455 S
N168 C169 1.321 . S
N168 Co171 2.135 . S
C169 N167 1.340 . S
C169 N168 1.321 . S
C169 H193 0.930 . S
H170 C165 0.931 . S
Co171 N168 2.135 . S
Co171 N174 2.121 . S
Co171 O179 2.055 . S
Co171 O182 2.039 . S
Co171 N185 2.140 1_455 S
C172 O173 1.227 . S
C172 O182 1.265 . S
O173 C172 1.227 . S
N174 Co171 2.121 . S
N174 C176 1.375 . S
N174 C177 1.313 . S
C175 C176 1.338 1_545 S
C175 N178 1.377 . S
C175 H195 0.930 . S
C176 N174 1.375 . S
C176 C175 1.338 1_565 S
C176 H180 0.931 . S
C177 N174 1.313 . S
C177 N178 1.344 1_565 S
C177 H181 0.930 . S
N178 C175 1.377 . S
N178 C177 1.344 1_545 S
O179 Co171 2.055 . S
O179 C183 1.253 1_455 S
H180 C176 0.931 . S
H181 C177 0.930 . S
O182 Co171 2.039 . S
O182 C172 1.265 . S
C183 O179 1.253 1_655 S
C183 O184 1.227 . S
O184 C183 1.227 . S
N185 Co171 2.140 1_655 S
N185 C188 1.346 . S
N185 C189 1.345 . S
C186 C187 1.387 . S
C186 C190 1.391 . S
C187 C186 1.387 . S
C187 C188 1.369 . S
C187 H196 0.929 . S
C188 N185 1.346 . S
C188 C187 1.369 . S
C188 H191 0.928 . S
C189 N185 1.345 . S
C189 C190 1.371 . S
C189 H192 0.931 . S
C190 C186 1.391 . S
C190 C189 1.371 . S
C190 H197 0.930 . S
H191 C188 0.928 . S
H192 C189 0.931 . S
H193 C169 0.930 . S
H194 C166 0.930 . S
H195 C175 0.930 . S
H196 C187 0.929 . S
H197 C190 0.930 . S
C198 C199 1.351 . S
C198 N201 1.368 . S
C198 H203 0.931 . S
C199 C198 1.351 . S
C199 N200 1.373 . S
C199 H227 0.930 . S
N200 C199 1.373 . S
N200 C202 1.340 . S
N201 C198 1.368 . S
N201 C202 1.321 . S
N201 Co204 2.135 . S
C202 N200 1.340 . S
C202 N201 1.321 . S
C202 H226 0.930 . S
H203 C198 0.931 . S
Co204 N201 2.135 . S
Co204 N207 2.121 . S
Co204 O212 2.055 . S
Co204 O215 2.039 . S
Co204 N218 2.140 . S
C205 O206 1.227 . S
C205 O215 1.265 . S
O206 C205 1.227 . S
N207 Co204 2.121 . S
N207 C209 1.375 . S
N207 C210 1.313 . S
C208 C209 1.338 . S
C208 N211 1.377 . S
C208 H228 0.930 . S
C209 N207 1.375 . S
C209 C208 1.338 . S
C209 H213 0.931 . S
C210 N207 1.313 . S
C210 N211 1.344 . S
C210 H214 0.930 . S
N211 C208 1.377 . S
N211 C210 1.344 . S
O212 Co204 2.055 . S
O212 C216 1.253 . S
H213 C209 0.931 . S
H214 C210 0.930 . S
O215 Co204 2.039 . S
O215 C205 1.265 . S
C216 O212 1.253 . S
C216 O217 1.227 . S
O217 C216 1.227 . S
N218 Co204 2.140 . S
N218 C221 1.346 . S
N218 C222 1.345 . S
C219 C220 1.387 . S
C219 C223 1.391 . S
C220 C219 1.387 . S
C220 C221 1.369 . S
C220 H229 0.929 . S
C221 N218 1.346 . S
C221 C220 1.369 . S
C221 H224 0.928 . S
C222 N218 1.345 . S
C222 C223 1.371 . S
C222 H225 0.931 . S
C223 C219 1.391 . S
C223 C222 1.371 . S
C223 H230 0.930 . S
H224 C221 0.928 . S
H225 C222 0.931 . S
H226 C202 0.930 . S
H227 C199 0.930 . S
H228 C208 0.930 . S
H229 C220 0.929 . S
H230 C223 0.930 . S
C231 C232 1.351 1_545 S
C231 N234 1.368 . S
C231 H236 0.931 . S
C232 C231 1.351 1_565 S
C232 N233 1.373 . S
C232 H260 0.930 . S
N233 C232 1.373 . S
N233 C235 1.340 1_565 S
N234 C231 1.368 . S
N234 C235 1.321 . S
N234 Co237 2.135 . S
C235 N233 1.340 1_545 S
C235 N234 1.321 . S
C235 H259 0.930 . S
H236 C231 0.931 . S
Co237 N234 2.135 . S
Co237 N240 2.121 . S
Co237 O245 2.055 . S
Co237 O248 2.039 . S
Co237 N251 2.140 . S
C238 O239 1.227 . S
C238 O248 1.265 . S
O239 C238 1.227 . S
N240 Co237 2.121 . S
N240 C242 1.375 . S
N240 C243 1.313 . S
C241 C242 1.338 . S
C241 N244 1.377 . S
C241 H261 0.930 . S
C242 N240 1.375 . S
C242 C241 1.338 . S
C242 H246 0.931 . S
C243 N240 1.313 . S
C243 N244 1.344 . S
C243 H247 0.930 . S
N244 C241 1.377 . S
N244 C243 1.344 . S
O245 Co237 2.055 . S
O245 C249 1.253 . S
H246 C242 0.931 . S
H247 C243 0.930 . S
O248 Co237 2.039 . S
O248 C238 1.265 . S
C249 O245 1.253 . S
C249 O250 1.227 . S
O250 C249 1.227 . S
N251 Co237 2.140 . S
N251 C254 1.346 . S
N251 C255 1.345 . S
C252 C253 1.387 . S
C252 C256 1.391 . S
C253 C252 1.387 . S
C253 C254 1.369 . S
C253 H262 0.929 . S
C254 N251 1.346 . S
C254 C253 1.369 . S
C254 H257 0.928 . S
C255 N251 1.345 . S
C255 C256 1.371 . S
C255 H258 0.931 . S
C256 C252 1.391 . S
C256 C255 1.371 . S
C256 H263 0.930 . S
H257 C254 0.928 . S
H258 C255 0.931 . S
H259 C235 0.930 . S
H260 C232 0.930 . S
H261 C241 0.930 . S
H262 C253 0.929 . S
H263 C256 0.930 . S
C264 C265 1.387 . S
C264 H268 0.950 . S
C264 C273 1.390 . S
C265 C264 1.387 . S
C265 C267 1.387 1_455 S
H266 C273 0.950 . S
C267 C265 1.387 1_655 S
C267 C269 1.390 . S
C267 H271 0.950 . S
H268 C264 0.950 . S
C269 C267 1.390 . S
C269 C270 1.387 . S
C269 H272 0.950 . S
C270 C269 1.387 . S
C270 C273 1.387 1_655 S
H271 C267 0.950 . S
H272 C269 0.950 . S
C273 C264 1.390 . S
C273 H266 0.950 . S
C273 C270 1.387 1_455 S
C274 C275 1.387 . S
C274 H278 0.950 . S
C274 C283 1.390 . S
C275 C274 1.387 . S
C275 C277 1.387 . S
H276 C283 0.950 . S
C277 C275 1.387 . S
C277 C279 1.390 . S
C277 H281 0.950 . S
H278 C274 0.950 . S
C279 C277 1.390 . S
C279 C280 1.387 . S
C279 H282 0.950 . S
C280 C279 1.387 . S
C280 C283 1.387 . S
H281 C277 0.950 . S
H282 C279 0.950 . S
C283 C274 1.390 . S
C283 H276 0.950 . S
C283 C280 1.387 . S
C284 C285 1.387 . S
C284 H288 0.950 . S
C284 C293 1.390 . S
C285 C284 1.387 . S
C285 C287 1.387 . S
H286 C293 0.950 . S
C287 C285 1.387 . S
C287 C289 1.390 . S
C287 H291 0.950 . S
H288 C284 0.950 . S
C289 C287 1.390 . S
C289 C290 1.387 . S
C289 H292 0.950 . S
C290 C289 1.387 . S
C290 C293 1.387 . S
H291 C287 0.950 . S
H292 C289 0.950 . S
C293 C284 1.390 . S
C293 H286 0.950 . S
C293 C290 1.387 . S
C294 C295 1.387 . S
C294 H298 0.950 . S
C294 C303 1.390 . S
C295 C294 1.387 . S
C295 C297 1.387 . S
H296 C303 0.950 . S
C297 C295 1.387 . S
C297 C299 1.390 . S
C297 H301 0.950 . S
H298 C294 0.950 . S
C299 C297 1.390 . S
C299 C300 1.387 . S
C299 H302 0.950 . S
C300 C299 1.387 . S
C300 C303 1.387 . S
H301 C297 0.950 . S
H302 C299 0.950 . S
C303 C294 1.390 . S
C303 H296 0.950 . S
C303 C300 1.387 . S
C304 C305 1.387 1_655 S
C304 H308 0.950 . S
C304 C313 1.390 1_554 S
C305 C304 1.387 1_455 S
C305 C307 1.387 . S
H306 C313 0.950 . S
C307 C305 1.387 . S
C307 C309 1.390 1_554 S
C307 H311 0.950 . S
H308 C304 0.950 . S
C309 C307 1.390 1_556 S
C309 C310 1.387 . S
C309 H312 0.950 . S
C310 C309 1.387 . S
C310 C313 1.387 1_455 S
H311 C307 0.950 . S
H312 C309 0.950 . S
C313 C304 1.390 1_556 S
C313 H306 0.950 . S
C313 C310 1.387 1_655 S
C314 C315 1.387 . S
C314 H318 0.950 . S
C314 C323 1.390 . S
C315 C314 1.387 . S
C315 C317 1.387 . S
H316 C323 0.950 . S
C317 C315 1.387 . S
C317 C319 1.390 . S
C317 H321 0.950 . S
H318 C314 0.950 . S
C319 C317 1.390 . S
C319 C320 1.387 . S
C319 H322 0.950 . S
C320 C319 1.387 . S
C320 C323 1.387 . S
H321 C317 0.950 . S
H322 C319 0.950 . S
C323 C314 1.390 . S
C323 H316 0.950 . S
C323 C320 1.387 . S
C324 C325 1.387 . S
C324 H328 0.950 . S
C324 C333 1.390 . S
C325 C324 1.387 . S
C325 C327 1.387 . S
H326 C333 0.950 . S
C327 C325 1.387 . S
C327 C329 1.390 . S
C327 H331 0.950 . S
H328 C324 0.950 . S
C329 C327 1.390 . S
C329 C330 1.387 . S
C329 H332 0.950 . S
C330 C329 1.387 . S
C330 C333 1.387 . S
H331 C327 0.950 . S
H332 C329 0.950 . S
C333 C324 1.390 . S
C333 H326 0.950 . S
C333 C330 1.387 . S
C334 C335 1.387 . S
C334 H338 0.950 . S
C334 C343 1.390 . S
C335 C334 1.387 . S
C335 C337 1.387 . S
H336 C343 0.950 . S
C337 C335 1.387 . S
C337 C339 1.390 . S
C337 H341 0.950 . S
H338 C334 0.950 . S
C339 C337 1.390 . S
C339 C340 1.387 . S
C339 H342 0.950 . S
C340 C339 1.387 . S
C340 C343 1.387 . S
H341 C337 0.950 . S
H342 C339 0.950 . S
C343 C334 1.390 . S
C343 H336 0.950 . S
C343 C340 1.387 . S
C344 C345 1.387 . S
C344 H348 0.950 . S
C344 C353 1.390 . S
C345 C344 1.387 . S
C345 C347 1.387 . S
H346 C353 0.950 . S
C347 C345 1.387 . S
C347 C349 1.390 . S
C347 H351 0.950 . S
H348 C344 0.950 . S
C349 C347 1.390 . S
C349 C350 1.387 . S
C349 H352 0.950 . S
C350 C349 1.387 . S
C350 C353 1.387 . S
H351 C347 0.950 . S
H352 C349 0.950 . S
C353 C344 1.390 . S
C353 H346 0.950 . S
C353 C350 1.387 . S
C354 C355 1.387 . S
C354 H358 0.950 . S
C354 C363 1.390 . S
C355 C354 1.387 . S
C355 C357 1.387 . S
H356 C363 0.950 . S
C357 C355 1.387 . S
C357 C359 1.390 . S
C357 H361 0.950 . S
H358 C354 0.950 . S
C359 C357 1.390 . S
C359 C360 1.387 . S
C359 H362 0.950 . S
C360 C359 1.387 . S
C360 C363 1.387 . S
H361 C357 0.950 . S
H362 C359 0.950 . S
C363 C354 1.390 . S
C363 H356 0.950 . S
C363 C360 1.387 . S
C364 C365 1.387 . S
C364 H368 0.950 . S
C364 C373 1.390 . S
C365 C364 1.387 . S
C365 C367 1.387 1_545 S
H366 C373 0.950 . S
C367 C365 1.387 1_565 S
C367 C369 1.390 . S
C367 H371 0.950 . S
H368 C364 0.950 . S
C369 C367 1.390 . S
C369 C370 1.387 1_565 S
C369 H372 0.950 . S
C370 C369 1.387 1_545 S
C370 C373 1.387 . S
H371 C367 0.950 . S
H372 C369 0.950 . S
C373 C364 1.390 . S
C373 H366 0.950 . S
C373 C370 1.387 . S
C374 C375 1.387 1_655 S
C374 H378 0.950 . S
C374 C383 1.390 1_554 S
C375 C374 1.387 1_455 S
C375 C377 1.387 . S
H376 C383 0.950 . S
C377 C375 1.387 . S
C377 C379 1.390 1_554 S
C377 H381 0.950 . S
H378 C374 0.950 . S
C379 C377 1.390 1_556 S
C379 C380 1.387 . S
C379 H382 0.950 . S
C380 C379 1.387 . S
C380 C383 1.387 1_455 S
H381 C377 0.950 . S
H382 C379 0.950 . S
C383 C374 1.390 1_556 S
C383 H376 0.950 . S
C383 C380 1.387 1_655 S
C384 C385 1.387 . S
C384 H388 0.950 . S
C384 C393 1.390 . S
C385 C384 1.387 . S
C385 C387 1.387 . S
H386 C393 0.950 . S
C387 C385 1.387 . S
C387 C389 1.390 . S
C387 H391 0.950 . S
H388 C384 0.950 . S
C389 C387 1.390 . S
C389 C390 1.387 . S
C389 H392 0.950 . S
C390 C389 1.387 . S
C390 C393 1.387 . S
H391 C387 0.950 . S
H392 C389 0.950 . S
C393 C384 1.390 . S
C393 H386 0.950 . S
C393 C390 1.387 . S
C394 C395 1.387 . S
C394 H398 0.950 . S
C394 C403 1.390 . S
C395 C394 1.387 . S
C395 C397 1.387 . S
H396 C403 0.950 . S
C397 C395 1.387 . S
C397 C399 1.390 . S
C397 H401 0.950 . S
H398 C394 0.950 . S
C399 C397 1.390 . S
C399 C400 1.387 . S
C399 H402 0.950 . S
C400 C399 1.387 . S
C400 C403 1.387 . S
H401 C397 0.950 . S
H402 C399 0.950 . S
C403 C394 1.390 . S
C403 H396 0.950 . S
C403 C400 1.387 . S
C404 C405 1.387 . S
C404 H408 0.950 . S
C404 C413 1.390 1_455 S
C405 C404 1.387 . S
C405 C407 1.387 . S
H406 C413 0.950 . S
C407 C405 1.387 . S
C407 C409 1.390 1_455 S
C407 H411 0.950 . S
H408 C404 0.950 . S
C409 C407 1.390 1_655 S
C409 C410 1.387 . S
C409 H412 0.950 . S
C410 C409 1.387 . S
C410 C413 1.387 . S
H411 C407 0.950 . S
H412 C409 0.950 . S
C413 C404 1.390 1_655 S
C413 H406 0.950 . S
C413 C410 1.387 . S
C414 C415 1.387 . S
C414 H418 0.950 . S
C414 C423 1.390 . S
C415 C414 1.387 . S
C415 C417 1.387 . S
H416 C423 0.950 . S
C417 C415 1.387 . S
C417 C419 1.390 . S
C417 H421 0.950 . S
H418 C414 0.950 . S
C419 C417 1.390 . S
C419 C420 1.387 . S
C419 H422 0.950 . S
C420 C419 1.387 . S
C420 C423 1.387 . S
H421 C417 0.950 . S
H422 C419 0.950 . S
C423 C414 1.390 . S
C423 H416 0.950 . S
C423 C420 1.387 . S
C424 C425 1.387 . S
C424 H428 0.950 . S
C424 C433 1.390 . S
C425 C424 1.387 . S
C425 C427 1.387 . S
H426 C433 0.950 . S
C427 C425 1.387 . S
C427 C429 1.390 . S
C427 H431 0.950 . S
H428 C424 0.950 . S
C429 C427 1.390 . S
C429 C430 1.387 . S
C429 H432 0.950 . S
C430 C429 1.387 . S
C430 C433 1.387 . S
H431 C427 0.950 . S
H432 C429 0.950 . S
C433 C424 1.390 . S
C433 H426 0.950 . S
C433 C430 1.387 . S
C434 C435 1.387 . S
C434 H438 0.950 . S
C434 C443 1.390 . S
C435 C434 1.387 . S
C435 C437 1.387 . S
H436 C443 0.950 . S
C437 C435 1.387 . S
C437 C439 1.390 . S
C437 H441 0.950 . S
H438 C434 0.950 . S
C439 C437 1.390 . S
C439 C440 1.387 . S
C439 H442 0.950 . S
C440 C439 1.387 . S
C440 C443 1.387 . S
H441 C437 0.950 . S
H442 C439 0.950 . S
C443 C434 1.390 . S
C443 H436 0.950 . S
C443 C440 1.387 . S
C444 C445 1.387 . S
C444 H448 0.950 . S
C444 C453 1.390 1_655 S
C445 C444 1.387 . S
C445 C447 1.387 1_655 S
H446 C453 0.950 . S
C447 C445 1.387 1_455 S
C447 C449 1.390 . S
C447 H451 0.950 1_455 S
H448 C444 0.950 . S
C449 C447 1.390 . S
C449 C450 1.387 . S
C449 H452 0.950 . S
C450 C449 1.387 . S
C450 C453 1.387 . S
H451 C447 0.950 1_655 S
H452 C449 0.950 . S
C453 C444 1.390 1_455 S
C453 H446 0.950 . S
C453 C450 1.387 . S
C454 C455 1.387 . S
C454 H458 0.950 . S
C454 C463 1.390 . S
C455 C454 1.387 . S
C455 C457 1.387 . S
H456 C463 0.950 . S
C457 C455 1.387 . S
C457 C459 1.390 . S
C457 H461 0.950 . S
H458 C454 0.950 . S
C459 C457 1.390 . S
C459 C460 1.387 . S
C459 H462 0.950 . S
C460 C459 1.387 . S
C460 C463 1.387 . S
H461 C457 0.950 . S
H462 C459 0.950 . S
C463 C454 1.390 . S
C463 H456 0.950 . S
C463 C460 1.387 . S
C265 C18 1.372 . S
C270 C183 1.372 . S
C275 C216 1.368 . S
C280 C51 1.368 . S
C285 C84 1.372 . S
C290 C249 1.372 . S
C295 C150 1.368 . S
C300 C117 1.368 . S
C305 C7 0.863 . S
C310 C153 0.873 . S
C315 C40 1.036 . S
C320 C186 1.064 . S
C325 C205 1.029 . S
C330 C87 1.057 . S
C335 C120 0.865 . S
C340 C238 0.855 . S
C345 C106 1.028 . S
C350 C252 1.056 . S
C355 C172 0.863 . S
C360 C54 0.873 . S
C365 C219 0.870 1_545 S
C370 C73 0.860 . S
C375 C21 1.057 . S
C380 C139 1.028 . S
C385 N13 1.716 . S
C390 N2 1.713 . S
C395 N46 1.715 . S
C400 N35 1.712 . S
C405 N79 1.716 . S
C410 N68 1.713 . S
C415 N112 1.715 . S
C420 N101 1.712 . S
C425 N134 1.712 . S
C430 N145 1.715 . S
C435 N178 1.716 . S
C440 N167 1.713 . S
C445 N211 1.714 . S
C450 N200 1.711 . S
C455 N233 1.712 . S
C460 N244 1.715 . S
