# Generated by pormake.
# Topology wkt, (7)-cn, num edge types: 1
# Building blocks:
#     Node 0, Type 0, BuildingBlock: HICVOG_clean_sbu_0, # of connection points: 7
#     Node 1, Type 0, BuildingBlock: HICVOG_clean_sbu_0, # of connection points: 7
#     Node 2, Type 0, BuildingBlock: HICVOG_clean_sbu_0, # of connection points: 7
#     Node 3, Type 0, BuildingBlock: HICVOG_clean_sbu_0, # of connection points: 7
#     Node 4, Type 0, BuildingBlock: HICVOG_clean_sbu_0, # of connection points: 7
#     Node 5, Type 0, BuildingBlock: HICVOG_clean_sbu_0, # of connection points: 7
#     Node 6, Type 0, BuildingBlock: HICVOG_clean_sbu_0, # of connection points: 7
#     Node 7, Type 0, BuildingBlock: HICVOG_clean_sbu_0, # of connection points: 7
#     Node 8, Type 0, BuildingBlock: HICVOG_clean_sbu_0, # of connection points: 7
#     Node 9, Type 0, BuildingBlock: HICVOG_clean_sbu_0, # of connection points: 7
#     Node 10, Type 0, BuildingBlock: HICVOG_clean_sbu_0, # of connection points: 7
#     Node 11, Type 0, BuildingBlock: HICVOG_clean_sbu_0, # of connection points: 7
#     Edge 12, Type (0, 0), BuildingBlock: KIFKEQ_clean_linker_1, # of connection points: 2
#     Edge 13, Type (0, 0), BuildingBlock: KIFKEQ_clean_linker_1, # of connection points: 2
#     Edge 14, Type (0, 0), BuildingBlock: KIFKEQ_clean_linker_1, # of connection points: 2
#     Edge 15, Type (0, 0), BuildingBlock: KIFKEQ_clean_linker_1, # of connection points: 2
#     Edge 16, Type (0, 0), BuildingBlock: KIFKEQ_clean_linker_1, # of connection points: 2
#     Edge 17, Type (0, 0), BuildingBlock: KIFKEQ_clean_linker_1, # of connection points: 2
#     Edge 18, Type (0, 0), BuildingBlock: KIFKEQ_clean_linker_1, # of connection points: 2
#     Edge 19, Type (0, 0), BuildingBlock: KIFKEQ_clean_linker_1, # of connection points: 2
#     Edge 20, Type (0, 0), BuildingBlock: KIFKEQ_clean_linker_1, # of connection points: 2
#     Edge 21, Type (0, 0), BuildingBlock: KIFKEQ_clean_linker_1, # of connection points: 2
#     Edge 22, Type (0, 0), BuildingBlock: KIFKEQ_clean_linker_1, # of connection points: 2
#     Edge 23, Type (0, 0), BuildingBlock: KIFKEQ_clean_linker_1, # of connection points: 2
#     Edge 24, Type (0, 0), BuildingBlock: KIFKEQ_clean_linker_1, # of connection points: 2
#     Edge 25, Type (0, 0), BuildingBlock: KIFKEQ_clean_linker_1, # of connection points: 2
#     Edge 26, Type (0, 0), BuildingBlock: KIFKEQ_clean_linker_1, # of connection points: 2
#     Edge 27, Type (0, 0), BuildingBlock: KIFKEQ_clean_linker_1, # of connection points: 2
#     Edge 28, Type (0, 0), BuildingBlock: KIFKEQ_clean_linker_1, # of connection points: 2
#     Edge 29, Type (0, 0), BuildingBlock: KIFKEQ_clean_linker_1, # of connection points: 2
#     Edge 30, Type (0, 0), BuildingBlock: KIFKEQ_clean_linker_1, # of connection points: 2
#     Edge 31, Type (0, 0), BuildingBlock: KIFKEQ_clean_linker_1, # of connection points: 2
#     Edge 32, Type (0, 0), BuildingBlock: KIFKEQ_clean_linker_1, # of connection points: 2
#     Edge 33, Type (0, 0), BuildingBlock: KIFKEQ_clean_linker_1, # of connection points: 2
#     Edge 34, Type (0, 0), BuildingBlock: KIFKEQ_clean_linker_1, # of connection points: 2
#     Edge 35, Type (0, 0), BuildingBlock: KIFKEQ_clean_linker_1, # of connection points: 2
#     Edge 36, Type (0, 0), BuildingBlock: KIFKEQ_clean_linker_1, # of connection points: 2
#     Edge 37, Type (0, 0), BuildingBlock: KIFKEQ_clean_linker_1, # of connection points: 2
#     Edge 38, Type (0, 0), BuildingBlock: KIFKEQ_clean_linker_1, # of connection points: 2
#     Edge 39, Type (0, 0), BuildingBlock: KIFKEQ_clean_linker_1, # of connection points: 2
#     Edge 40, Type (0, 0), BuildingBlock: KIFKEQ_clean_linker_1, # of connection points: 2
#     Edge 41, Type (0, 0), BuildingBlock: KIFKEQ_clean_linker_1, # of connection points: 2
#     Edge 42, Type (0, 0), BuildingBlock: KIFKEQ_clean_linker_1, # of connection points: 2
#     Edge 43, Type (0, 0), BuildingBlock: KIFKEQ_clean_linker_1, # of connection points: 2
#     Edge 44, Type (0, 0), BuildingBlock: KIFKEQ_clean_linker_1, # of connection points: 2
#     Edge 45, Type (0, 0), BuildingBlock: KIFKEQ_clean_linker_1, # of connection points: 2
#     Edge 46, Type (0, 0), BuildingBlock: KIFKEQ_clean_linker_1, # of connection points: 2
#     Edge 47, Type (0, 0), BuildingBlock: KIFKEQ_clean_linker_1, # of connection points: 2
#     Edge 48, Type (0, 0), BuildingBlock: KIFKEQ_clean_linker_1, # of connection points: 2
#     Edge 49, Type (0, 0), BuildingBlock: KIFKEQ_clean_linker_1, # of connection points: 2
#     Edge 50, Type (0, 0), BuildingBlock: KIFKEQ_clean_linker_1, # of connection points: 2
#     Edge 51, Type (0, 0), BuildingBlock: KIFKEQ_clean_linker_1, # of connection points: 2
#     Edge 52, Type (0, 0), BuildingBlock: KIFKEQ_clean_linker_1, # of connection points: 2
#     Edge 53, Type (0, 0), BuildingBlock: KIFKEQ_clean_linker_1, # of connection points: 2
# Relax obj value: 0.190
# Max RMSD: 0.208
# Mean RMSD: 0.208
data_MOF--net-wkt--node1-HICVOG_clean_sbu_0--edge1-KIFKEQ_clean_linker_1
_symmetry_space_group_name_H-M    P1
_symmetry_Int_Tables_number       1
_symmetry_cell_setting            triclinic
loop_
_symmetry_equiv_pos_as_xyz
'x, y, z'
_cell_length_a     32.725242
_cell_length_b     32.744838
_cell_length_c     57.436575
_cell_angle_alpha  89.893636
_cell_angle_beta   89.903363
_cell_angle_gamma 120.00032
loop_
_atom_site_label
_atom_site_type_symbol
_atom_site_fract_x
_atom_site_fract_y
_atom_site_fract_z
_atom_type_partial_charge
Zn0 Zn 0.39307 0.4702 0.06814 0.0
C1 C 0.39392 0.35857 0.10039 0.0
N2 N 0.37175 0.36688 0.11789 0.0
C3 C 0.3696 0.40485 0.1103 0.0
N4 N 0.39023 0.41984 0.08912 0.0
N5 N 0.40483 0.39019 0.08289 0.0
C6 C 0.43315 0.32889 0.03152 0.0
O7 O 0.40379 0.34171 1.02331 0.0
O8 O 0.38919 0.52552 0.08517 0.0
Zn9 Zn 0.45291 0.40678 0.05996 0.0
N10 N 0.34006 0.43641 0.04768 0.0
C11 C 0.27766 0.3646 0.03277 0.0
C12 C 0.30985 0.38939 0.05033 0.0
C13 C 0.33939 0.45963 1.02825 0.0
N14 N 0.27723 0.38782 1.01325 0.0
C15 C 0.30747 0.4349 1.01027 0.0
O16 O 0.44627 0.43733 0.03032 0.0
C17 C 0.45218 0.47828 1.02684 0.0
O18 O 0.44743 0.50125 0.04356 0.0
H19 H 0.31147 0.37097 0.06561 0.0
H20 H 0.36413 0.49685 1.02706 0.0
C21 C 0.54429 0.44313 0.08086 0.0
C22 C 0.58198 0.47467 0.09503 0.0
C23 C 0.54407 0.51975 0.10037 0.0
C24 C 0.50746 0.48898 0.08602 0.0
N25 N 0.50841 0.45153 0.07643 0.0
N26 N 0.58046 0.51209 0.1044 0.0
H27 H 0.54268 0.41188 0.07369 0.0
C28 C 0.40147 0.56437 0.07442 0.0
O29 O 0.41711 0.56884 0.05297 0.0
O30 O 0.45842 0.35069 0.04905 0.0
H31 H 0.47784 0.49419 0.08311 0.0
H32 H 0.25345 0.32713 0.03451 0.0
H33 H 0.54368 0.54954 0.10824 0.0
Zn34 Zn 0.07377 0.45596 0.23538 0.0
C35 C 0.98827 0.37505 0.28579 0.0
N36 N 0.0289 0.38095 0.29494 0.0
C37 C 0.06004 0.40149 0.27744 0.0
N38 N 0.03931 0.40815 0.25854 0.0
N39 N 0.99403 0.39165 0.26364 0.0
C40 C 0.87279 0.40569 0.25615 0.0
O41 O 0.908 0.44765 0.25073 0.0
O42 O 0.13194 0.45641 0.22197 0.0
Zn43 Zn 0.94328 0.37763 0.24016 0.0
N44 N 0.0908 0.51239 0.25235 0.0
C45 C 0.06361 0.55195 0.27707 0.0
C46 C 0.05437 0.51437 0.26258 0.0
C47 C 0.13626 0.54651 0.25585 0.0
N48 N 0.10887 0.58671 0.28017 0.0
C49 C 0.14579 0.58552 0.26984 0.0
O50 O 0.95922 0.41876 0.21037 0.0
C51 C 0.99685 0.44428 0.19874 0.0
O52 O 0.03706 0.45629 0.20729 0.0
H53 H 1.01847 0.48643 0.25978 0.0
H54 H 0.16419 0.54288 0.24784 0.0
C55 C 0.89197 0.28044 0.22378 0.0
C56 C 0.8896 0.23911 0.21507 0.0
C57 C 0.97318 0.27831 0.21376 0.0
C58 C 0.97527 0.31911 0.22212 0.0
N59 N 0.93476 0.31926 0.22731 0.0
N60 N 0.93052 0.23942 0.21031 0.0
H61 H 0.86055 0.28248 0.22725 0.0
C62 C 0.12596 0.43411 0.20295 0.0
O63 O 0.08307 0.40951 0.19456 0.0
O64 O 0.87914 0.37031 0.25381 0.0
H65 H 1.00907 0.35056 0.22435 0.0
H66 H 0.03508 0.55388 0.28554 0.0
H67 H 1.00517 0.27771 0.2097 0.0
Zn68 Zn 0.57806 0.93662 0.40262 0.0
C69 C 0.68801 0.05098 0.43414 0.0
N70 N 0.68556 1.01698 0.44818 0.0
C71 C 0.64573 0.97834 0.44134 0.0
N72 N 0.62454 0.98739 0.42344 0.0
N73 N 0.65151 0.0332 0.41882 0.0
C74 C 0.68916 0.15315 0.37112 0.0
O75 O 0.64766 0.14037 0.36204 0.0
O76 O 0.51671 0.88172 0.41904 0.0
Zn77 Zn 0.63432 0.0674 0.39767 0.0
N78 N 0.6159 0.91025 0.39315 0.0
C79 C 0.68647 0.9237 0.37463 0.0
C80 C 0.65328 0.93739 0.37912 0.0
C81 C 0.6101 0.86999 0.40297 0.0
N82 N 0.68072 0.88336 0.38434 0.0
C83 C 0.64341 0.85578 0.39849 0.0
O84 O 0.60212 0.03391 0.36775 0.0
C85 C 0.5745 0.99359 0.35902 0.0
O86 O 0.56106 0.95595 0.37095 0.0
H87 H 0.65795 0.97018 0.37215 0.0
H88 H 0.58092 0.8508 0.4148 0.0
C89 C 0.59669 0.11986 0.42089 0.0
C90 C 0.56336 0.12308 0.43516 0.0
C91 C 0.52073 0.03945 0.43862 0.0
C92 C 0.55284 0.03653 0.42388 0.0
N93 N 0.59012 0.07667 0.41541 0.0
N94 N 0.52648 0.0824 0.44369 0.0
H95 H 0.62751 0.15075 0.41418 0.0
C96 C 0.47627 0.86125 0.40909 0.0
O97 O 0.4725 0.87702 0.38863 0.0
O98 O 0.69192 0.12841 0.38748 0.0
H99 H 0.54861 1.00255 0.41945 0.0
H100 H 0.7167 0.94502 0.36364 0.0
H101 H 0.49107 1.00788 0.44571 0.0
Zn102 Zn 0.57537 0.62067 0.56214 0.0
C103 C 0.65916 0.61948 0.61183 0.0
N104 N 0.65707 0.65724 0.61973 0.0
C105 C 0.63383 0.66525 0.60269 0.0
N106 N 0.62248 0.63389 0.58515 0.0
N107 N 0.63743 0.60429 0.59099 0.0
C108 C 0.62188 0.45775 0.57875 0.0
O109 O 0.59743 0.44939 0.55948 0.0
O110 O 0.57835 0.67936 0.54812 0.0
Zn111 Zn 0.63334 0.553 0.57054 0.0
N112 N 0.51861 0.58347 0.57951 0.0
C113 C 0.47831 0.51848 0.60533 0.0
C114 C 0.51506 0.54449 0.58987 0.0
C115 C 0.48704 0.59788 0.584 0.0
N116 N 0.44614 0.53211 0.60948 0.0
C117 C 0.44907 0.57105 0.59921 0.0
O118 O 0.57689 0.52047 0.54788 0.0
C119 C 0.5712 0.54261 0.53103 0.0
O120 O 0.57578 0.58306 0.53425 0.0
H121 H 0.54146 0.53455 0.58667 0.0
H122 H 0.49209 0.63004 0.57604 0.0
C123 C 0.68518 0.55734 0.53118 0.0
C124 C 0.71359 0.5783 0.51147 0.0
C125 C 0.7375 0.65383 0.52759 0.0
C126 C 0.7086 0.63264 0.54687 0.0
N127 N 0.68311 0.58482 0.5482 0.0
N128 N 0.73927 0.62631 0.51043 0.0
H129 H 0.66411 0.51965 0.53322 0.0
C130 C 0.60398 0.69533 0.52994 0.0
O131 O 0.62917 0.67625 0.52339 0.0
O132 O 0.64044 0.49924 0.58752 0.0
H133 H 0.70554 0.65413 0.56023 0.0
H134 H 0.47519 0.48758 0.61389 0.0
H135 H 0.75795 0.69184 0.52613 0.0
Zn136 Zn 0.10696 0.65434 0.73654 0.0
C137 C 0.99056 0.64516 0.76945 0.0
N138 N 1.01977 0.66327 0.7878 0.0
C139 C 0.0604 0.66683 0.78 0.0
N140 N 0.05642 0.65087 0.75792 0.0
N141 N 1.01264 0.63771 0.75128 0.0
C142 C 0.92602 0.61579 0.693 0.0
O143 O 0.9669 0.64628 0.68384 0.0
O144 O 0.16635 0.65524 0.75278 0.0
Zn145 Zn 0.98816 0.60207 0.72305 0.0
N146 N 0.12769 0.71199 0.71949 0.0
C147 C 0.11822 0.77637 0.70777 0.0
C148 C 0.10978 0.74084 0.72369 0.0
C149 C 0.15372 0.71722 0.70018 0.0
N150 N 0.14334 0.78089 0.68815 0.0
C151 C 0.16108 0.75188 0.68364 0.0
O152 O 0.03456 0.62828 0.69623 0.0
C153 C 0.06164 0.61177 0.69201 0.0
O154 O 0.08467 0.60696 0.70875 0.0
H155 H 0.08803 0.73551 0.73883 0.0
H156 H 0.16724 0.69345 0.69781 0.0
C157 C 0.97686 0.51445 0.71049 0.0
C158 C 0.97853 0.47278 0.7135 0.0
C159 C 0.98513 0.4861 0.75442 0.0
C160 C 0.98437 0.52782 0.75116 0.0
N161 N 0.98067 0.5412 0.72924 0.0
N162 N 0.98244 0.45985 0.73561 0.0
H163 H 0.97424 0.52709 0.69355 0.0
C164 C 0.18995 0.63913 0.74224 0.0
O165 O 0.1756 0.62067 0.7215 0.0
O166 O 0.92533 0.59334 0.71128 0.0
H167 H 0.98771 0.54975 0.76589 0.0
H168 H 0.10419 0.79964 0.71075 0.0
H169 H 0.98836 0.47486 0.77171 0.0
Zn170 Zn 0.4088 0.97116 0.89489 0.0
C171 C 0.41683 0.05222 0.94898 0.0
N172 N 0.38021 1.01256 0.95774 0.0
C173 C 0.37052 0.98049 0.94091 0.0
N174 N 0.40021 1.0001 0.92248 0.0
N175 N 0.42943 0.04517 0.92752 0.0
C176 C 0.56447 0.18247 0.90755 0.0
O177 O 0.56837 0.17082 0.88613 0.0
O178 O 0.3494 0.91132 0.88521 0.0
Zn179 Zn 0.46933 0.09318 0.9039 0.0
N180 N 0.45853 0.95925 0.90358 0.0
C181 C 0.50767 0.95583 0.93309 0.0
C182 C 0.46656 0.9555 0.92651 0.0
C183 C 0.48947 0.9624 0.88696 0.0
N184 N 0.53894 0.9597 0.91647 0.0
C185 C 0.53085 0.96293 0.89349 0.0
O186 O 0.49788 0.07167 0.87749 0.0
C187 C 0.47326 0.04434 0.861 0.0
O188 O 0.4314 1.01103 0.86494 0.0
H189 H 0.44214 0.95385 0.93965 0.0
H190 H 0.4826 0.96592 0.86889 0.0
C191 C 0.42896 0.14656 0.88273 0.0
C192 C 0.3918 0.15024 0.87248 0.0
C193 C 0.34409 0.06708 0.87302 0.0
C194 C 0.38061 0.06362 0.88335 0.0
N195 N 0.4224 0.10327 0.88806 0.0
N196 N 0.3505 0.1102 0.86778 0.0
H197 H 0.46275 0.1774 0.88633 0.0
C198 C 0.35243 0.8866 0.86894 0.0
O199 O 0.39408 0.89948 0.85994 0.0
O200 O 0.52596 0.15589 0.91863 0.0
H201 H 0.37532 0.02927 0.88757 0.0
H202 H 0.51491 0.95346 0.95126 0.0
H203 H 0.31086 0.03573 0.86918 0.0
Zn204 Zn 0.57851 0.65661 0.81944 0.0
C205 C 0.67626 0.6383 0.78365 0.0
N206 N 0.66313 0.65607 0.7659 0.0
C207 C 0.62661 0.65903 0.77493 0.0
N208 N 0.6173 0.64361 0.79723 0.0
N209 N 0.64888 0.63096 0.80277 0.0
C210 C 0.70559 0.59411 0.86547 0.0
O211 O 0.66403 0.56761 0.87509 0.0
O212 O 0.52424 0.66551 0.80394 0.0
Zn213 Zn 0.64606 0.59481 0.8302 0.0
N214 N 0.62655 0.71452 0.83291 0.0
C215 C 0.70136 0.75324 0.85163 0.0
C216 C 0.66274 0.71229 0.84326 0.0
C217 C 0.62728 0.7561 0.83061 0.0
N218 N 0.70232 0.7949 0.84928 0.0
C219 C 0.66653 0.79766 0.83875 0.0
O220 O 0.60105 0.58955 0.85623 0.0
C221 C 0.56595 0.59402 0.86203 0.0
O222 O 0.54957 0.61294 0.84823 0.0
H223 H 0.66194 0.67901 0.84467 0.0
H224 H 0.59774 0.75656 0.82244 0.0
C225 C 0.57814 0.50058 0.8206 0.0
C226 C 0.56174 0.45499 0.81203 0.0
C227 C 0.63868 0.47879 0.79775 0.0
C228 C 0.65515 0.52331 0.80729 0.0
N229 N 0.62441 0.53323 0.81832 0.0
N230 N 0.59262 0.44559 0.80058 0.0
H231 H 0.55485 0.51021 0.82929 0.0
C232 C 0.482 0.63068 0.80212 0.0
O233 O 0.47398 0.58893 0.80886 0.0
O234 O 0.70821 0.6125 0.84559 0.0
H235 H 0.69202 0.5497 0.80593 0.0
H236 H 0.73039 0.75197 0.85989 0.0
H237 H 0.66245 0.47027 0.78868 0.0
Zn238 Zn 0.07685 0.61701 0.99464 0.0
C239 C 0.99218 0.62998 0.94939 0.0
N240 N 0.03331 0.66774 0.94269 0.0
C241 C 0.06359 0.6709 0.95915 0.0
N242 N 0.04203 0.63644 0.97533 0.0
N243 N 0.99684 0.60993 0.96929 0.0
C244 C 0.84502 0.4825 0.97614 0.0
O245 O 0.83427 0.50513 0.99158 0.0
O246 O 0.13629 0.67257 1.00817 0.0
Zn247 Zn 0.94571 0.55806 0.98918 0.0
N248 N 0.09059 0.57976 0.97387 0.0
C249 C 0.05913 0.51767 0.94625 0.0
C250 C 0.05254 0.54428 0.96306 0.0
C251 C 0.13518 0.58988 0.96868 0.0
N252 N 0.10345 0.52666 0.94152 0.0
C253 C 0.1421 0.56179 0.95233 0.0
O254 O 0.9656 0.53019 1.01668 0.0
C255 C 1.0023 0.54447 0.02929 0.0
O256 O 0.0422 0.57703 1.02225 0.0
H257 H 1.01739 0.53728 0.96727 0.0
H258 H 0.16424 0.61928 0.97732 0.0
C259 C 0.89804 0.5682 1.02719 0.0
C260 C 0.88201 0.59033 0.04266 0.0
C261 C 0.91816 0.65889 1.01863 0.0
C262 C 0.93286 0.6361 1.00317 0.0
N263 N 0.92179 0.59092 1.0076 0.0
N264 N 0.89284 0.63544 0.03777 0.0
H265 H 0.89193 0.53313 0.0302 0.0
C266 C 0.13082 0.6877 1.0277 0.0
O267 O 0.0882 0.66857 0.03666 0.0
O268 O 0.88893 0.49861 0.97136 0.0
H269 H 0.95345 0.65456 0.98801 0.0
H270 H 0.02927 0.48955 0.9373 0.0
H271 H 0.92651 0.69481 1.01541 0.0
Zn272 Zn 0.40289 0.94188 0.15289 0.0
C273 C 0.38917 0.04718 0.12074 0.0
N274 N 0.36284 1.01285 0.10552 0.0
C275 C 0.3668 0.97592 0.11298 0.0
N276 N 0.39432 0.98657 0.13217 0.0
N277 N 0.40834 0.03143 0.13697 0.0
C278 C 0.43191 0.11587 0.18903 0.0
O279 O 0.40372 0.07169 0.19506 0.0
O280 O 0.3989 0.88272 0.13573 0.0
Zn281 Zn 0.45892 0.06726 0.15821 0.0
N282 N 0.35152 0.92001 0.17475 0.0
C283 C 0.28522 0.92049 0.19125 0.0
C284 C 0.31839 0.93335 0.17347 0.0
C285 C 0.35337 0.89506 0.19318 0.0
N286 N 0.28656 0.89476 0.20947 0.0
C287 C 0.31982 0.8814 0.21114 0.0
O288 O 0.46075 0.03305 0.18738 0.0
C289 C 0.46681 0.99842 0.19185 0.0
O290 O 0.45897 0.96768 0.17621 0.0
H291 H 0.31807 0.95432 0.15901 0.0
H292 H 0.38139 0.88698 0.19356 0.0
C293 C 0.55173 0.08472 0.15181 0.0
C294 C 0.58989 0.08807 0.13902 0.0
C295 C 0.55245 0.09005 0.10402 0.0
C296 C 0.51419 0.08547 0.11679 0.0
N297 N 0.51473 0.08308 0.14044 0.0
N298 N 0.58926 0.09113 0.11538 0.0
H299 H 0.55085 0.08318 0.1706 0.0
C300 C 0.41345 0.85718 0.1456 0.0
O301 O 0.43321 0.87007 0.16617 0.0
O302 O 0.45913 0.12465 0.17161 0.0
H303 H 0.48397 0.08271 0.10783 0.0
H304 H 0.25854 0.93075 0.19058 0.0
H305 H 0.55263 0.09204 0.08522 0.0
Zn306 Zn 0.40987 0.43747 0.33632 0.0
C307 C 0.40866 0.36366 0.28083 0.0
N308 N 0.36948 0.36454 0.27452 0.0
C309 C 0.36431 0.39015 0.29131 0.0
N310 N 0.39868 0.40335 0.30761 0.0
N311 N 0.42712 0.38749 0.30081 0.0
C312 C 0.57186 0.39869 0.31461 0.0
O313 O 0.57649 0.41855 0.33502 0.0
O314 O 0.35302 0.44062 0.34832 0.0
Zn315 Zn 0.47432 0.38338 0.32122 0.0
N316 N 0.46148 0.49985 0.33017 0.0
C317 C 0.51136 0.55982 0.30352 0.0
C318 C 0.47123 0.51645 0.30798 0.0
C319 C 0.48987 0.52488 0.3481 0.0
N320 N 0.53975 0.58479 0.32149 0.0
C321 C 0.53024 0.56861 0.34386 0.0
O322 O 0.5004 0.43146 0.34846 0.0
C323 C 0.47364 0.42439 0.36605 0.0
O324 O 0.43012 0.41037 0.36293 0.0
H325 H 0.44851 0.49586 0.29385 0.0
H326 H 0.48127 0.51003 0.36533 0.0
C327 C 0.46005 0.32062 0.35715 0.0
C328 C 0.43374 0.28626 0.37402 0.0
C329 C 0.36491 0.26156 0.35109 0.0
C330 C 0.39105 0.29694 0.33491 0.0
N331 N 0.43807 0.32576 0.33835 0.0
N332 N 0.3867 0.25725 0.37026 0.0
H333 H 0.49749 0.34436 0.35892 0.0
C334 C 0.35682 0.46127 0.36764 0.0
O335 O 0.39704 0.47964 0.37886 0.0
O336 O 0.5317 0.38143 0.30443 0.0
H337 H 0.37357 0.30229 0.32029 0.0
H338 H 0.51994 0.57357 0.28596 0.0
H339 H 0.32742 0.23835 0.34872 0.0
Zn340 Zn 0.10052 0.48025 0.4887 0.0
C341 C 0.99389 0.36577 0.4547 0.0
N342 N 0.02867 0.37585 0.43927 0.0
C343 C 0.06553 0.41508 0.44792 0.0
N344 N 0.05459 0.42909 0.4679 0.0
N345 N 1.00942 0.39799 0.47229 0.0
C346 C 0.92777 0.33719 0.52944 0.0
O347 O 0.97123 0.35957 0.53732 0.0
O348 O 0.16302 0.53375 0.4724 0.0
Zn349 Zn 0.97257 0.40977 0.49487 0.0
N350 N 0.11732 0.44836 0.51141 0.0
C351 C 0.10158 0.37952 0.53246 0.0
C352 C 0.09469 0.40056 0.51292 0.0
C353 C 0.14638 0.47601 0.52852 0.0
N354 N 0.13034 0.40719 0.54971 0.0
C355 C 0.15295 0.45519 0.54851 0.0
O356 O 1.00822 0.45138 0.52231 0.0
C357 C 0.04446 0.49108 0.52661 0.0
O358 O 0.0763 0.51241 0.51114 0.0
H359 H 0.07051 0.37897 0.49948 0.0
H360 H 0.16324 0.51374 0.52631 0.0
C361 C 0.90487 0.432 0.47402 0.0
C362 C 0.89318 0.45815 0.45866 0.0
C363 C 0.97446 0.50702 0.44946 0.0
C364 C 0.98582 0.48175 0.46502 0.0
N365 N 0.95092 0.44458 0.47679 0.0
N366 N 0.92866 0.49484 0.44676 0.0
H367 H 0.87814 0.40182 0.48346 0.0
C368 C 0.17212 0.57662 0.47129 0.0
O369 O 0.14022 0.58623 0.47924 0.0
O370 O 0.91886 0.35048 0.51018 0.0
H371 H 1.02223 0.49113 0.46743 0.0
H372 H 0.08378 0.34153 0.53406 0.0
H373 H 1.00179 0.53636 0.43977 0.0
Zn374 Zn 0.57808 0.9654 0.65959 0.0
C375 C 0.6826 0.05284 0.61684 0.0
N376 N 0.68393 1.01399 0.61055 0.0
C377 C 0.65085 0.98013 0.62416 0.0
N378 N 0.63098 0.99817 0.63872 0.0
N379 N 0.65065 0.04397 0.6339 0.0
C380 C 0.6489 0.18254 0.64799 0.0
O381 O 0.6584 0.18405 0.67029 0.0
O382 O 0.57109 0.90361 0.67107 0.0
Zn383 Zn 0.6526 0.09498 0.65357 0.0
N384 N 0.52602 0.95804 0.64129 0.0
C385 C 0.49676 0.99703 0.6175 0.0
C386 C 0.53071 0.99876 0.63257 0.0
C387 C 0.48863 0.91543 0.63573 0.0
N388 N 0.45876 0.95468 0.61235 0.0
C389 C 0.45311 0.91342 0.6211 0.0
O390 O 0.61484 0.07678 0.68462 0.0
C391 C 0.5911 0.04006 0.6972 0.0
O392 O 0.57913 0.99917 0.6895 0.0
H393 H 0.56105 0.03226 0.63708 0.0
H394 H 0.48722 0.88412 0.6427 0.0
C395 C 0.75012 0.16521 0.65383 0.0
C396 C 0.7979 0.18178 0.65865 0.0
C397 C 0.77569 0.11444 0.68252 0.0
C398 C 0.7284 0.09841 0.67773 0.0
N399 N 0.71672 0.12413 0.66351 0.0
N400 N 0.80921 0.15564 0.67295 0.0
H401 H 0.73936 0.18341 0.6418 0.0
C402 C 0.60631 0.90826 0.6826 0.0
O403 O 0.64331 0.95067 0.68467 0.0
O404 O 0.64356 0.14687 0.6363 0.0
H405 H 0.70119 0.06496 0.6846 0.0
H406 H 0.50011 0.02906 0.61022 0.0
H407 H 0.78576 0.09426 0.69364 0.0
H408 H 0.37834 0.57484 0.11984 0.0
H409 H 0.41888 0.64664 0.05353 0.0
H410 H 0.37726 0.64312 0.13673 0.0
H411 H 0.41831 0.71439 0.07029 0.0
H412 H 0.37818 0.81809 0.10213 0.0
H413 H 0.37112 0.74586 0.08545 0.0
H414 H 0.42961 0.72347 0.14826 0.0
H415 H 0.43614 0.79467 0.16484 0.0
C416 C 0.38696 0.605 0.10883 0.0
C417 C 0.39894 0.6049 0.08528 0.0
C418 C 0.38656 0.64444 0.11854 0.0
C419 C 0.39776 0.68486 0.10497 0.0
C420 C 0.40885 0.68412 0.08135 0.0
C421 C 0.40954 0.64504 0.07174 0.0
C422 C 0.38947 0.79772 0.11237 0.0
C423 C 0.40803 0.81282 0.13484 0.0
C424 C 0.38558 0.75621 0.10278 0.0
C425 C 0.39977 0.72825 0.11542 0.0
C426 C 0.41763 0.74321 0.13799 0.0
C427 C 0.42177 0.78464 0.14746 0.0
H428 H 0.78494 0.32482 0.26374 0.0
H429 H 0.85531 0.47667 0.26702 0.0
H430 H 0.71076 0.32066 0.2763 0.0
H431 H 0.78239 0.47247 0.27943 0.0
H432 H 0.6635 0.44985 0.32838 0.0
H433 H 0.73245 0.44803 0.31429 0.0
H434 H 0.64674 0.34209 0.26396 0.0
H435 H 0.57645 0.34405 0.27821 0.0
C436 C 0.78481 0.35728 0.26713 0.0
C437 C 0.8267 0.4011 0.26435 0.0
C438 C 0.74207 0.35491 0.27418 0.0
C439 C 0.74014 0.39624 0.27903 0.0
C440 C 0.78211 0.43976 0.2762 0.0
C441 C 0.82428 0.44214 0.26895 0.0
C442 C 0.65886 0.4261 0.31423 0.0
C443 C 0.61383 0.39729 0.30447 0.0
C444 C 0.69886 0.42519 0.30605 0.0
C445 C 0.69581 0.39507 0.28784 0.0
C446 C 0.65071 0.36564 0.27809 0.0
C447 C 0.61036 0.36703 0.28614 0.0
H448 H 0.19296 0.66646 0.46121 0.0
H449 H 0.25641 0.57839 0.46051 0.0
H450 H 0.26646 0.73305 0.44763 0.0
H451 H 0.33116 0.6462 0.4468 0.0
H452 H 0.47031 0.79944 0.44427 0.0
H453 H 0.39881 0.72919 0.45906 0.0
H454 H 0.3138 0.75783 0.41184 0.0
H455 H 0.3842 0.82684 0.39718 0.0
C456 C 0.22256 0.66105 0.45811 0.0
C457 C 0.21809 0.61644 0.46196 0.0
C458 C 0.26504 0.69958 0.4502 0.0
C459 C 0.30524 0.69551 0.44596 0.0
C460 C 0.30123 0.65102 0.44999 0.0
C461 C 0.25816 0.61194 0.45769 0.0
C462 C 0.43629 0.79084 0.43718 0.0
C463 C 0.4334 0.81939 0.41955 0.0
C464 C 0.39524 0.75021 0.44551 0.0
C465 C 0.35005 0.73749 0.43676 0.0
C466 C 0.34754 0.76636 0.41928 0.0
C467 C 0.38827 0.80619 0.41077 0.0
H468 H 0.58096 0.36609 0.56442 0.0
H469 H 0.67532 0.45976 0.61688 0.0
H470 H 0.5884 0.30154 0.58041 0.0
H471 H 0.68394 0.39487 0.63271 0.0
H472 H 0.65159 0.25772 0.67016 0.0
H473 H 0.64668 0.32359 0.65387 0.0
H474 H 0.63579 0.26688 0.58487 0.0
H475 H 0.6395 0.19982 0.60145 0.0
C476 C 0.60364 0.37317 0.57937 0.0
C477 C 0.62739 0.41861 0.58931 0.0
C478 C 0.60825 0.33583 0.58848 0.0
C479 C 0.63698 0.34226 0.60793 0.0
C480 C 0.66092 0.38785 0.61793 0.0
C481 C 0.65618 0.42539 0.60878 0.0
C482 C 0.6481 0.25904 0.65147 0.0
C483 C 0.64567 0.22282 0.63722 0.0
C484 C 0.64567 0.29742 0.64203 0.0
C485 C 0.64087 0.30138 0.6179 0.0
C486 C 0.63873 0.26521 0.60356 0.0
C487 C 0.64103 0.22657 0.61306 0.0
H488 H 0.23167 0.58949 0.72775 0.0
H489 H 0.24759 0.69186 0.77942 0.0
H490 H 0.30215 0.591 0.74199 0.0
H491 H 0.3195 0.69353 0.79383 0.0
H492 H 0.47518 0.71175 0.79507 0.0
H493 H 0.40562 0.71623 0.7821 0.0
H494 H 0.32641 0.56468 0.77656 0.0
H495 H 0.39469 0.5602 0.78941 0.0
C496 C 0.25011 0.61242 0.74225 0.0
C497 C 0.23317 0.64034 0.7524 0.0
C498 C 0.29083 0.61315 0.75053 0.0
C499 C 0.31701 0.64223 0.76921 0.0
C500 C 0.30064 0.6708 0.77934 0.0
C501 C 0.25907 0.66956 0.77119 0.0
C502 C 0.44296 0.67944 0.79099 0.0
C503 C 0.44114 0.63561 0.79326 0.0
C504 C 0.40282 0.68197 0.78372 0.0
C505 C 0.35994 0.64081 0.77813 0.0
C506 C 0.35855 0.59728 0.78039 0.0
C507 C 0.39808 0.59474 0.78787 0.0
H508 H 0.57271 0.22162 0.95154 0.0
H509 H 0.65025 0.24255 0.88763 0.0
H510 H 0.64049 0.2919 0.9679 0.0
H511 H 0.7171 0.31284 0.90359 0.0
H512 H 0.84823 0.41821 0.94525 0.0
H513 H 0.78171 0.34566 0.92964 0.0
H514 H 0.68443 0.37488 0.96679 0.0
H515 H 0.75019 0.44595 0.98255 0.0
C516 C 0.60403 0.24114 0.94091 0.0
C517 C 0.60544 0.22585 0.91817 0.0
C518 C 0.64314 0.2819 0.95026 0.0
C519 C 0.68512 0.30888 0.93722 0.0
C520 C 0.68629 0.29324 0.91452 0.0
C521 C 0.64735 0.25271 0.90522 0.0
C522 C 0.81266 0.40918 0.95004 0.0
C523 C 0.80521 0.43849 0.9653 0.0
C524 C 0.77418 0.36741 0.941 0.0
C525 C 0.72687 0.35344 0.94692 0.0
C526 C 0.71978 0.38317 0.96203 0.0
C527 C 0.75799 0.42463 0.97099 0.0
H528 H 0.42664 0.06889 0.99532 0.0
H529 H 0.44144 0.13794 0.92946 0.0
H530 H 0.43755 0.13906 1.01561 0.0
H531 H 0.45428 0.20884 0.94947 0.0
H532 H 0.39331 0.28638 0.99057 0.0
H533 H 0.39927 0.22436 0.97065 0.0
H534 H 0.48883 0.22295 1.02545 0.0
H535 H 0.48232 0.2853 0.04576 0.0
C536 C 0.43379 0.0997 0.98516 0.0
C537 C 0.43384 0.09814 0.96069 0.0
C538 C 0.44022 0.13998 0.9968 0.0
C539 C 0.44639 0.1795 0.98419 0.0
C540 C 0.44906 0.17881 0.95974 0.0
C541 C 0.44256 0.13844 0.94816 0.0
C542 C 0.41438 0.27303 0.99844 0.0
C543 C 0.43731 0.29082 1.0198 0.0
C544 C 0.41825 0.23773 0.98684 0.0
C545 C 0.44501 0.21901 0.99627 0.0
C546 C 0.46792 0.23663 1.01771 0.0
C547 C 0.46428 0.27236 0.02932 0.0
H548 H 0.124 0.40156 0.15921 0.0
H549 H 0.2191 0.47372 0.21613 0.0
H550 H 0.18852 0.40498 0.13677 0.0
H551 H 0.28443 0.47775 0.19332 0.0
H552 H 0.36313 0.40793 0.15706 0.0
H553 H 0.30864 0.42258 0.17953 0.0
H554 H 0.26137 0.45699 0.11614 0.0
H555 H 0.31516 0.44077 0.09362 0.0
C556 C 0.15881 0.41841 0.16694 0.0
C557 C 0.16626 0.43712 0.18957 0.0
C558 C 0.19604 0.4209 0.15389 0.0
C559 C 0.24186 0.44199 0.1631 0.0
C560 C 0.24953 0.4611 0.18571 0.0
C561 C 0.21215 0.45885 0.19878 0.0
C562 C 0.34179 0.41961 0.14796 0.0
C563 C 0.34363 0.42348 0.12356 0.0
C564 C 0.3107 0.42827 0.16088 0.0
C565 C 0.28026 0.44061 0.14968 0.0
C566 C 0.28393 0.44698 0.12532 0.0
C567 C 0.31527 0.4384 0.11238 0.0
H568 H 0.78084 0.18808 0.38497 0.0
H569 H 0.69584 0.20681 0.33321 0.0
H570 H 0.85224 0.24657 0.36501 0.0
H571 H 0.76726 0.26558 0.3134 0.0
H572 H 0.90193 0.31002 0.26883 0.0
H573 H 0.82911 0.26242 0.29042 0.0
H574 H 0.90062 0.33024 0.35413 0.0
H575 H 0.97334 0.37853 0.33205 0.0
C576 C 0.77734 0.20514 0.36954 0.0
C577 C 0.73255 0.19244 0.36061 0.0
C578 C 0.81833 0.23886 0.35814 0.0
C579 C 0.81548 0.26049 0.33749 0.0
C580 C 0.77068 0.24905 0.32907 0.0
C581 C 0.72973 0.21553 0.34052 0.0
C582 C 0.90163 0.31601 0.28719 0.0
C583 C 0.94288 0.34902 0.2985 0.0
C584 C 0.85996 0.28844 0.29972 0.0
C585 C 0.85888 0.29264 0.32405 0.0
C586 C 0.90025 0.32592 0.33543 0.0
C587 C 0.9418 0.35371 0.32278 0.0
H588 H 0.56093 0.9106 0.45942 0.0
H589 H 0.70316 0.94218 0.44512 0.0
H590 H 0.54491 0.83729 0.47924 0.0
H591 H 0.68794 0.87024 0.46499 0.0
H592 H 0.64038 0.72232 0.48638 0.0
H593 H 0.64335 0.78486 0.46236 0.0
H594 H 0.57156 0.8169 0.51626 0.0
H595 H 0.56768 0.75311 0.54035 0.0
C596 C 0.58822 0.90113 0.46 0.0
C597 C 0.63292 0.93132 0.45042 0.0
C598 C 0.5794 0.85969 0.47161 0.0
C599 C 0.61517 0.8479 0.47371 0.0
C600 C 0.6594 0.8778 0.46349 0.0
C601 C 0.66824 0.91915 0.45219 0.0
C602 C 0.62512 0.74257 0.49319 0.0
C603 C 0.60434 0.7331 0.51546 0.0
C604 C 0.62679 0.77845 0.47935 0.0
C605 C 0.60803 0.80617 0.48743 0.0
C606 C 0.58594 0.79589 0.50943 0.0
C607 C 0.58407 0.75965 0.52331 0.0
H608 H 0.6711 0.61718 0.65829 0.0
H609 H 0.71391 0.58655 0.59263 0.0
H610 H 0.73105 0.60701 0.67827 0.0
H611 H 0.77296 0.57462 0.61264 0.0
H612 H 0.91757 0.64357 0.6496 0.0
H613 H 0.84697 0.63242 0.63024 0.0
H614 H 0.76338 0.55688 0.69029 0.0
H615 H 0.83493 0.56862 0.70999 0.0
C616 C 0.69238 0.60673 0.64822 0.0
C617 C 0.68762 0.60234 0.62389 0.0
C618 C 0.72661 0.60066 0.6597 0.0
C619 C 0.7572 0.59046 0.64705 0.0
C620 C 0.75034 0.58305 0.62286 0.0
C621 C 0.71599 0.58913 0.61139 0.0
C622 C 0.88419 0.6244 0.65873 0.0
C623 C 0.88197 0.60724 0.68142 0.0
C624 C 0.8435 0.61746 0.64746 0.0
C625 C 0.79934 0.59334 0.65857 0.0
C626 C 0.79688 0.57565 0.68123 0.0
C627 C 0.83779 0.5823 0.69251 0.0
H628 H 0.06887 0.66705 0.82697 0.0
H629 H 0.15077 0.72319 0.76421 0.0
H630 H 0.1395 0.71393 0.85031 0.0
H631 H 0.22129 0.77005 0.78727 0.0
H632 H 0.34801 0.82878 0.83367 0.0
H633 H 0.27819 0.76931 0.8135 0.0
H634 H 0.18989 0.79597 0.85976 0.0
H635 H 0.2598 0.85471 0.88036 0.0
C636 C 0.10219 0.68888 0.81815 0.0
C637 C 0.10448 0.69073 0.7937 0.0
C638 C 0.14259 0.71597 0.83151 0.0
C639 C 0.18619 0.74589 0.82072 0.0
C640 C 0.18857 0.74678 0.79622 0.0
C641 C 0.14812 0.71965 0.78291 0.0
C642 C 0.31368 0.82162 0.83974 0.0
C643 C 0.30955 0.84697 0.85847 0.0
C644 C 0.27363 0.78767 0.82805 0.0
C645 C 0.22838 0.77822 0.83476 0.0
C646 C 0.22412 0.80207 0.85418 0.0
C647 C 0.26425 0.83601 0.86593 0.0
H648 H 0.78401 0.6006 0.84523 0.0
H649 H 0.7213 0.59672 0.91189 0.0
H650 H 0.85044 0.60132 0.86464 0.0
H651 H 0.78907 0.60108 0.93156 0.0
H652 H 0.89923 0.57798 0.9638 0.0
H653 H 0.82921 0.56376 0.9426 0.0
H654 H 0.91775 0.64591 0.88494 0.0
H655 H 0.98615 0.655 0.90524 0.0
C656 C 0.78511 0.60099 0.86408 0.0
C657 C 0.74786 0.59896 0.8771 0.0
C658 C 0.82323 0.60146 0.87531 0.0
C659 C 0.82559 0.60126 0.89985 0.0
C660 C 0.78833 0.60003 0.91273 0.0
C661 C 0.74967 0.59823 0.90148 0.0
C662 C 0.90335 0.59096 0.94631 0.0
C663 C 0.94823 0.61667 0.93628 0.0
C664 C 0.86325 0.58406 0.93421 0.0
C665 C 0.86736 0.6041 0.91195 0.0
C666 C 0.91243 0.62905 0.90177 0.0
C667 C 0.95206 0.63478 0.91364 0.0
H668 H 0.35516 0.96214 0.0667 0.0
H669 H 0.32045 0.88632 0.13183 0.0
H670 H 0.3035 0.88935 0.04616 0.0
H671 H 0.26981 0.81273 0.11124 0.0
H672 H 0.13049 0.71695 0.07192 0.0
H673 H 0.19381 0.78241 0.09265 0.0
H674 H 0.28612 0.8116 0.03346 0.0
H675 H 0.22191 0.74592 1.01237 0.0
C676 C 0.33738 0.92956 0.07657 0.0
C677 C 0.34218 0.92991 0.1009 0.0
C678 C 0.30798 0.88771 0.06475 0.0
C679 C 0.28221 0.84507 0.07701 0.0
C680 C 0.28876 0.84504 0.10127 0.0
C681 C 0.31833 0.88711 0.1131 0.0
C682 C 0.16432 0.73708 0.06329 0.0
C683 C 0.17097 0.72637 0.04038 0.0
C684 C 0.20091 0.7744 0.07534 0.0
C685 C 0.24525 0.80228 0.06483 0.0
C686 C 0.25232 0.79102 0.04204 0.0
C687 C 0.2156 0.75333 0.02997 0.0
H688 H 0.34725 0.27189 0.27545 0.0
H689 H 0.49229 0.37713 0.26237 0.0
H690 H 0.35787 0.21395 0.25419 0.0
H691 H 0.50378 0.31816 0.24117 0.0
H692 H 0.47431 0.21078 0.17906 0.0
H693 H 0.47526 0.2726 0.20356 0.0
H694 H 0.39758 0.16883 0.25681 0.0
H695 H 0.39553 0.10752 0.23237 0.0
C696 C 0.38182 0.28224 0.26837 0.0
C697 C 0.41916 0.32861 0.27077 0.0
C698 C 0.38801 0.24901 0.25625 0.0
C699 C 0.43174 0.2613 0.24606 0.0
C700 C 0.46962 0.30771 0.24878 0.0
C701 C 0.46336 0.34119 0.26115 0.0
C702 C 0.45761 0.20138 0.19604 0.0
C703 C 0.43417 0.15416 0.20362 0.0
C704 C 0.45853 0.23679 0.21014 0.0
C705 C 0.43621 0.22555 0.23207 0.0
C706 C 0.41437 0.17857 0.23985 0.0
C707 C 0.41313 0.14336 0.22578 0.0
H708 H 0.08492 0.43522 0.40242 0.0
H709 H 0.15042 0.43974 0.46812 0.0
H710 H 0.15783 0.45471 0.38202 0.0
H711 H 0.22321 0.45762 0.44784 0.0
H712 H 0.35701 0.51005 0.40614 0.0
H713 H 0.28997 0.50913 0.42508 0.0
H714 H 0.19744 0.41363 0.3724 0.0
H715 H 0.26483 0.41606 0.35301 0.0
C716 C 0.11543 0.44136 0.4125 0.0
C717 C 0.11238 0.43654 0.43682 0.0
C718 C 0.15703 0.45194 0.40082 0.0
C719 C 0.19634 0.45695 0.41317 0.0
C720 C 0.19392 0.45448 0.43771 0.0
C721 C 0.15228 0.44439 0.44942 0.0
C722 C 0.32238 0.48915 0.39848 0.0
C723 C 0.31621 0.46279 0.37815 0.0
C724 C 0.28385 0.48844 0.40945 0.0
C725 C 0.23808 0.46108 0.40046 0.0
C726 C 0.23217 0.43569 0.37973 0.0
C727 C 0.2708 0.43673 0.36865 0.0
H728 H 0.77657 0.08942 0.61431 0.0
H729 H 0.66638 0.12002 0.59739 0.0
H730 H 0.83431 0.16132 0.59463 0.0
H731 H 0.72459 0.19317 0.57776 0.0
H732 H 0.8346 0.27782 0.51791 0.0
H733 H 0.77385 0.21354 0.54147 0.0
H734 H 0.8747 0.24689 0.59684 0.0
H735 H 0.93519 0.3101 0.57338 0.0
C736 C 0.76497 0.1122 0.60669 0.0
C737 C 0.7173 0.09976 0.60769 0.0
C738 C 0.79805 0.15352 0.5955 0.0
C739 C 0.78416 0.18312 0.58459 0.0
C740 C 0.73639 0.17103 0.5859 0.0
C741 C 0.70321 0.12966 0.59741 0.0
C742 C 0.84368 0.27146 0.53514 0.0
C743 C 0.88997 0.29875 0.54359 0.0
C744 C 0.80878 0.23491 0.54873 0.0
C745 C 0.81946 0.22489 0.57102 0.0
C746 C 0.86541 0.25313 0.57964 0.0
C747 C 0.90016 0.28943 0.56612 0.0
H748 H 0.67792 0.90802 0.70633 0.0
H749 H 0.5322 0.81719 0.68699 0.0
H750 H 0.67581 0.8448 0.72927 0.0
H751 H 0.52982 0.7535 0.71059 0.0
H752 H 0.57169 0.64108 0.73639 0.0
H753 H 0.56233 0.69927 0.71343 0.0
H754 H 0.64148 0.80506 0.76526 0.0
H755 H 0.65249 0.74758 0.78716 0.0
C756 C 0.64531 0.8745 0.70698 0.0
C757 C 0.60509 0.86789 0.695 0.0
C758 C 0.64398 0.83827 0.72035 0.0
C759 C 0.60232 0.79433 0.72223 0.0
C760 C 0.56241 0.78698 0.70958 0.0
C761 C 0.56377 0.82345 0.69609 0.0
C762 C 0.58561 0.67647 0.74311 0.0
C763 C 0.61105 0.68961 0.76403 0.0
C764 C 0.58039 0.70978 0.72999 0.0
C765 C 0.60137 0.75694 0.73745 0.0
C766 C 0.62508 0.76919 0.75893 0.0
C767 C 0.63032 0.73603 0.77189 0.0
H768 H 0.42022 0.43155 0.98574 0.0
H769 H 0.51225 0.57039 1.0133 0.0
H770 H 0.44413 0.46194 0.94605 0.0
H771 H 0.53763 0.60048 0.97345 0.0
H772 H 0.61427 0.60049 0.90168 0.0
H773 H 0.58405 0.57627 0.94127 0.0
H774 H 0.44277 0.52881 0.917 0.0
H775 H 0.47337 0.55473 0.87719 0.0
C776 C 0.44547 0.46867 0.98331 0.0
C777 C 0.46451 0.49848 1.00276 0.0
C778 C 0.45896 0.48609 0.96054 0.0
C779 C 0.4929 0.53359 0.95653 0.0
C780 C 0.51146 0.56367 0.97594 0.0
C781 C 0.49685 0.5465 0.99876 0.0
C782 C 0.57672 0.585 0.90471 0.0
C783 C 0.54625 0.57932 0.88613 0.0
C784 C 0.55948 0.57147 0.92749 0.0
C785 C 0.51103 0.5507 0.93236 0.0
C786 C 0.48032 0.54476 0.91382 0.0
C787 C 0.49783 0.55963 0.89104 0.0
H788 H 0.92172 0.44076 0.17435 0.0
H789 H 0.06727 0.47718 0.16638 0.0
H790 H 0.92071 0.46294 0.13358 0.0
H791 H 0.06572 0.49671 0.12599 0.0
H792 H 0.07177 0.57698 0.06201 0.0
H793 H 0.06756 0.55348 0.10213 0.0
H794 H 0.92131 0.44679 0.09312 0.0
H795 H 0.92504 0.47245 0.0526 0.0
C796 C 0.95344 0.45337 0.16396 0.0
C797 C 0.99478 0.45783 0.17396 0.0
C798 C 0.9528 0.46574 0.14044 0.0
C799 C 0.99333 0.48241 0.12619 0.0
C800 C 0.0341 0.48562 0.13625 0.0
C801 C 0.03493 0.47404 0.15964 0.0
C802 C 0.03859 0.54818 0.06833 0.0
C803 C 0.99892 0.52631 0.05367 0.0
C804 C 0.03623 0.53436 0.09159 0.0
C805 C 0.99428 0.49746 0.1012 0.0
C806 C 0.95429 0.47548 0.0866 0.0
C807 C 0.95652 0.48985 0.06319 0.0
H808 H 0.49283 0.06272 0.22697 0.0
H809 H 0.4774 0.92661 0.21188 0.0
H810 H 0.51685 0.05864 0.26628 0.0
H811 H 0.50304 0.923 0.25168 0.0
H812 H 0.50903 0.91625 0.33346 0.0
H813 H 0.48346 0.91512 0.29316 0.0
H814 H 0.58037 0.06487 0.28778 0.0
H815 H 0.60465 0.06617 0.32769 0.0
C816 C 0.49498 0.0319 0.2319 0.0
C817 C 0.48341 0.99519 0.21587 0.0
C818 C 0.5092 0.0297 0.25465 0.0
C819 C 0.5127 0.99075 0.26245 0.0
C820 C 0.50072 0.95359 0.24653 0.0
C821 C 0.48638 0.95582 0.22355 0.0
C822 C 0.52479 0.94893 0.32367 0.0
C823 C 0.55865 0.99139 0.3342 0.0
C824 C 0.51031 0.94825 0.30041 0.0
C825 C 0.52926 0.99 0.28697 0.0
C826 C 0.56382 0.03206 0.29747 0.0
C827 C 0.57805 0.03277 0.32056 0.0
H828 H 0.42945 0.38321 0.40681 0.0
H829 H 0.56095 0.49563 0.37976 0.0
H830 H 0.45664 0.40907 0.44657 0.0
H831 H 0.58797 0.5222 0.41964 0.0
H832 H 0.58099 0.58984 0.49035 0.0
H833 H 0.56225 0.55898 0.45092 0.0
H834 H 0.51819 0.41924 0.4769 0.0
H835 H 0.53765 0.45041 0.51674 0.0
C836 C 0.46443 0.41321 0.40939 0.0
C837 C 0.493 0.43739 0.3901 0.0
C838 C 0.48012 0.42788 0.43221 0.0
C839 C 0.52445 0.46783 0.43639 0.0
C840 C 0.55354 0.4914 0.41708 0.0
C841 C 0.53823 0.47601 0.39422 0.0
C842 C 0.56739 0.55247 0.4878 0.0
C843 C 0.56033 0.52257 0.50694 0.0
C844 C 0.55705 0.53486 0.46505 0.0
C845 C 0.53868 0.4866 0.46063 0.0
C846 C 0.53202 0.45658 0.47968 0.0
C847 C 0.54322 0.47443 0.50253 0.0
H848 H 0.99772 0.59354 0.6576 0.0
H849 H 0.12643 0.59166 0.67134 0.0
H850 H 0.9964 0.56642 0.61822 0.0
H851 H 0.12518 0.56439 0.63121 0.0
H852 H 0.12369 0.56324 0.54783 0.0
H853 H 0.1309 0.59198 0.58801 0.0
H854 H 0.98349 0.49237 0.59976 0.0
H855 H 0.97633 0.46366 0.56014 0.0
C856 C 1.02602 0.58754 0.65223 0.0
C857 C 0.06221 0.59487 0.66785 0.0
C858 C 1.02505 0.57163 0.62955 0.0
C859 C 0.06055 0.56299 0.62143 0.0
C860 C 0.09735 0.57091 0.63683 0.0
C861 C 0.09791 0.58622 0.65987 0.0
C862 C 0.0928 0.54771 0.55897 0.0
C863 C 0.04932 0.51136 0.55051 0.0
C864 C 0.09705 0.56389 0.58208 0.0
C865 C 0.05772 0.54469 0.59717 0.0
C866 C 1.01441 0.50845 0.58863 0.0
C867 C 1.01034 0.49193 0.56579 0.0
H868 H 0.56278 0.06406 0.84888 0.0
H869 H 0.42942 0.03308 0.81917 0.0
H870 H 0.59353 0.06507 0.80956 0.0
H871 H 0.46084 0.03614 0.77995 0.0
H872 H 0.57237 0.10714 0.71522 0.0
H873 H 0.54569 0.11104 0.75484 0.0
H874 H 0.5531 0.98777 0.77425 0.0
H875 H 0.57782 0.98256 0.73455 0.0
C876 C 0.54037 0.05838 0.83396 0.0
C877 C 0.49371 0.04879 0.83718 0.0
C878 C 0.5579 0.05875 0.81147 0.0
C879 C 0.5297 0.05101 0.79163 0.0
C880 C 0.48351 0.04256 0.79484 0.0
C881 C 0.46553 0.04074 0.81732 0.0
C882 C 0.56844 0.08094 0.72794 0.0
C883 C 0.57712 0.04442 0.72157 0.0
C884 C 0.55309 0.08316 0.75062 0.0
C885 C 0.54748 0.04981 0.76771 0.0
C886 C 0.5573 1.01408 0.76153 0.0
C887 C 0.57129 1.01104 0.73873 0.0
H888 H 0.46746 0.13633 0.12922 0.0
H889 H 0.32348 0.0679 0.10546 0.0
H890 H 0.47345 0.21343 0.12373 0.0
H891 H 0.32996 0.14441 0.09897 0.0
H892 H 0.36645 0.28689 0.06898 0.0
H893 H 0.36983 0.21412 0.07331 0.0
H894 H 0.44079 0.26374 0.13918 0.0
H895 H 0.43787 0.33673 0.13449 0.0
C896 C 0.43668 0.13745 0.12346 0.0
C897 C 0.39443 0.0954 0.11868 0.0
C898 C 0.44033 0.18188 0.1199 0.0
C899 C 0.40225 0.18554 0.11077 0.0
C900 C 0.36032 0.14341 0.10572 0.0
C901 C 0.35652 0.0993 0.10963 0.0
C902 C 0.38428 0.28294 0.08394 0.0
C903 C 0.40317 0.31827 0.10101 0.0
C904 C 0.38549 0.2408 0.08669 0.0
C905 C 0.40541 0.2326 0.1067 0.0
C906 C 0.42562 0.26874 0.12344 0.0
C907 C 0.42397 0.31066 0.12075 0.0
H908 H 0.27671 0.32685 0.27692 0.0
H909 H 0.35509 0.46684 0.30557 0.0
H910 H 0.20742 0.33525 0.27313 0.0
H911 H 0.2842 0.47489 0.30246 0.0
H912 H 0.12374 0.43956 0.31316 0.0
H913 H 0.19925 0.44114 0.31749 0.0
H914 H 0.18126 0.37984 0.24917 0.0
H915 H 0.10555 0.37715 0.24532 0.0
C916 C 0.27907 0.35943 0.28272 0.0
C917 C 0.32154 0.3958 0.29201 0.0
C918 C 0.23916 0.36437 0.28037 0.0
C919 C 0.23992 0.40594 0.28721 0.0
C920 C 0.28207 0.44221 0.29708 0.0
C921 C 0.32261 0.43743 0.29917 0.0
C922 C 0.13655 0.42742 0.29888 0.0
C923 C 0.10925 0.40962 0.27854 0.0
C924 C 0.17992 0.42839 0.30134 0.0
C925 C 0.19667 0.41052 0.28374 0.0
C926 C 0.16964 0.39367 0.26321 0.0
C927 C 0.12655 0.39299 0.26074 0.0
H928 H 0.90323 0.34646 0.4682 0.0
H929 H 0.97623 0.28601 0.4327 0.0
H930 H 0.82817 0.2724 0.46308 0.0
H931 H 0.90244 0.21497 0.42555 0.0
H932 H 0.77816 0.0724 0.43821 0.0
H933 H 0.84819 0.14797 0.44414 0.0
H934 H 0.76548 0.21701 0.4381 0.0
H935 H 0.69374 0.13924 0.43366 0.0
C936 C 0.90356 0.31725 0.45984 0.0
C937 C 0.94647 0.3219 0.45201 0.0
C938 C 0.86022 0.27497 0.45625 0.0
C939 C 0.8586 0.23646 0.44427 0.0
C940 C 0.90156 0.24244 0.43561 0.0
C941 C 0.94436 0.2839 0.43955 0.0
C942 C 0.77474 0.10365 0.43785 0.0
C943 C 0.7303 0.09958 0.43464 0.0
C944 C 0.81533 0.14751 0.44112 0.0
C945 C 0.81354 0.18963 0.44117 0.0
C946 C 0.76879 0.18573 0.43817 0.0
C947 C 0.72763 0.14119 0.43511 0.0
H948 H 0.58743 0.68496 0.63648 0.0
H949 H 0.66327 0.73842 0.572 0.0
H950 H 0.58526 0.75841 0.64176 0.0
H951 H 0.66163 0.81194 0.57729 0.0
H952 H 0.71588 0.95389 0.61725 0.0
H953 H 0.70464 0.87559 0.61033 0.0
H954 H 0.55481 0.81472 0.62071 0.0
H955 H 0.56596 0.89445 0.62631 0.0
C956 C 0.60246 0.71192 0.62311 0.0
C957 C 0.62453 0.70543 0.60352 0.0
C958 C 0.60123 0.75398 0.62614 0.0
C959 C 0.6233 0.79117 0.60998 0.0
C960 C 0.64425 0.78405 0.59007 0.0
C961 C 0.64472 0.7417 0.58686 0.0
C962 C 0.68041 0.92391 0.61822 0.0
C963 C 0.64194 0.93061 0.62304 0.0
C964 C 0.67399 0.87894 0.6141 0.0
C965 C 0.62885 0.83876 0.61485 0.0
C966 C 0.59014 0.84494 0.62015 0.0
C967 C 0.59654 0.89051 0.62374 0.0
H968 H 0.7031 0.60137 0.74809 0.0
H969 H 0.75 0.67013 0.81434 0.0
H970 H 0.77695 0.59977 0.74376 0.0
H971 H 0.82267 0.66628 0.81083 0.0
H972 H 0.92882 0.61272 0.80585 0.0
H973 H 0.85224 0.60841 0.80945 0.0
H974 H 0.86476 0.65792 0.7387 0.0
H975 H 0.94289 0.66482 0.73577 0.0
C976 C 0.7287 0.61506 0.76205 0.0
C977 C 0.71938 0.6335 0.78222 0.0
C978 C 0.77121 0.6144 0.75951 0.0
C979 C 0.80578 0.6322 0.77709 0.0
C980 C 0.79649 0.65099 0.79719 0.0
C981 C 0.75432 0.65235 0.7995 0.0
C982 C 0.91494 0.62202 0.79092 0.0
C983 C 0.94119 0.63696 0.77006 0.0
C984 C 0.87105 0.61983 0.79304 0.0
C985 C 0.85176 0.63242 0.77433 0.0
C986 C 0.8778 0.64692 0.75335 0.0
C987 C 0.92225 0.64996 0.75142 0.0
H988 H 0.12771 0.69328 0.92411 0.0
H989 H 0.11111 0.73816 0.99212 0.0
H990 H 0.2043 0.76561 0.91968 0.0
H991 H 0.18817 0.80977 0.98822 0.0
H992 H 0.28629 0.9579 0.9597 0.0
H993 H 0.21684 0.88093 0.96545 0.0
H994 H 0.28798 0.81521 0.93255 0.0
H995 H 0.3588 0.89329 0.92738 0.0
C996 C 0.14127 0.71792 0.93847 0.0
C997 C 0.11399 0.70922 0.95881 0.0
C998 C 0.18523 0.75947 0.93593 0.0
C999 C 0.20273 0.79403 0.9535 0.0
C1000 C 0.1759 0.78442 0.97416 0.0
C1001 C 0.13204 0.74284 0.97667 0.0
C1002 C 0.28733 0.92712 0.95362 0.0
C1003 C 0.32798 0.93217 0.9425 0.0
C1004 C 0.24738 0.8827 0.95711 0.0
C1005 C 0.24644 0.84134 0.94967 0.0
C1006 C 0.28706 0.84617 0.93837 0.0
C1007 C 0.32756 0.89103 0.9351 0.0
H1008 H 0.85091 0.62729 0.07613 0.0
H1009 H 0.83939 0.49454 0.05549 0.0
H1010 H 0.78135 0.58465 0.10001 0.0
H1011 H 0.77079 0.45283 0.07978 0.0
H1012 H 0.64574 0.51203 0.13033 0.0
H1013 H 0.72718 0.52898 0.12923 0.0
H1014 H 0.69745 0.44752 0.0661 0.0
H1015 H 0.61733 0.43118 0.06688 0.0
C1016 C 0.83472 0.58928 0.07708 0.0
C1017 C 0.84983 0.56484 0.06255 0.0
C1018 C 0.795 0.56474 0.09118 0.0
C1019 C 0.76969 0.51521 0.09113 0.0
C1020 C 0.78898 0.49103 0.07961 0.0
C1021 C 0.82861 0.51549 0.06541 0.0
C1022 C 0.65624 0.4965 0.11661 0.0
C1023 C 0.62516 0.47144 0.09833 0.0
C1024 C 0.70283 0.50601 0.1161 0.0
C1025 C 0.71899 0.49055 0.09732 0.0
C1026 C 0.6862 0.45994 0.0809 0.0
C1027 C 0.63979 0.45063 0.08131 0.0
H1028 H 0.25814 0.85118 0.24764 0.0
H1029 H 0.37518 0.83916 0.22006 0.0
H1030 H 0.23642 0.78332 0.27195 0.0
H1031 H 0.35318 0.77172 0.24466 0.0
H1032 H 0.2196 0.61689 0.23856 0.0
H1033 H 0.28334 0.69666 0.23489 0.0
H1034 H 0.24427 0.73224 0.30046 0.0
H1035 H 0.17971 0.65128 0.30437 0.0
C1036 C 0.28012 0.83513 0.24704 0.0
C1037 C 0.31666 0.84955 0.23055 0.0
C1038 C 0.26799 0.79637 0.26139 0.0
C1039 C 0.29225 0.7712 0.25966 0.0
C1040 C 0.33307 0.78973 0.24586 0.0
C1041 C 0.34528 0.82856 0.23145 0.0
C1042 C 0.22557 0.64062 0.25288 0.0
C1043 C 0.19338 0.62782 0.27145 0.0
C1044 C 0.26265 0.68684 0.25078 0.0
C1045 C 0.268 0.72115 0.26708 0.0
C1046 C 0.24024 0.70672 0.28736 0.0
C1047 C 0.20316 0.66038 0.28951 0.0
H1048 H 0.51979 0.34836 0.39506 0.0
H1049 H 0.39812 0.20824 0.40155 0.0
H1050 H 0.56323 0.3262 0.42161 0.0
H1051 H 0.44081 0.18758 0.42893 0.0
H1052 H 0.60944 0.20652 0.40974 0.0
H1053 H 0.58509 0.26451 0.4073 0.0
H1054 H 0.4907 0.2 0.46555 0.0
H1055 H 0.51597 0.14184 0.4687 0.0
C1056 C 0.50192 0.31303 0.40218 0.0
C1057 C 0.45632 0.27888 0.39479 0.0
C1058 C 0.52667 0.3009 0.41789 0.0
C1059 C 0.50571 0.25502 0.42696 0.0
C1060 C 0.45796 0.22332 0.42223 0.0
C1061 C 0.43357 0.23507 0.40624 0.0
C1062 C 0.58538 0.20554 0.42292 0.0
C1063 C 0.56319 0.16788 0.43884 0.0
C1064 C 0.57155 0.23941 0.42155 0.0
C1065 C 0.53499 0.23579 0.43581 0.0
C1066 C 0.51841 0.20295 0.4541 0.0
C1067 C 0.53264 0.16938 0.45569 0.0
H1068 H 0.18905 0.42405 0.58226 0.0
H1069 H 0.19232 0.55135 0.5586 0.0
H1070 H 0.2581 0.47099 0.60558 0.0
H1071 H 0.26287 0.59824 0.58142 0.0
H1072 H 0.38899 0.5457 0.63622 0.0
H1073 H 0.30877 0.53213 0.63482 0.0
H1074 H 0.33872 0.60268 0.56818 0.0
H1075 H 0.41788 0.61562 0.56924 0.0
C1076 C 0.20362 0.4619 0.58235 0.0
C1077 C 0.18663 0.48371 0.56718 0.0
C1078 C 0.24313 0.48896 0.59605 0.0
C1079 C 0.26665 0.53843 0.59481 0.0
C1080 C 0.24595 0.56014 0.58225 0.0
C1081 C 0.20593 0.533 0.56873 0.0
C1082 C 0.379 0.55993 0.62167 0.0
C1083 C 0.40935 0.58007 0.60244 0.0
C1084 C 0.33316 0.55245 0.621 0.0
C1085 C 0.31716 0.56503 0.60109 0.0
C1086 C 0.34993 0.59234 0.58375 0.0
C1087 C 0.39568 0.59962 0.58434 0.0
H1088 H 0.89101 0.21016 0.65229 0.0
H1089 H 0.79119 0.25971 0.64636 0.0
H1090 H 0.95561 0.29153 0.65201 0.0
H1091 H 0.85473 0.33958 0.64625 0.0
H1092 H 0.99589 0.39981 0.7142 0.0
H1093 H 0.96842 0.33597 0.68686 0.0
H1094 H 0.92683 0.41108 0.63939 0.0
H1095 H 0.95207 0.47423 0.66709 0.0
C1096 C 0.88283 0.23818 0.65018 0.0
C1097 C 0.8358 0.22833 0.65038 0.0
C1098 C 0.91988 0.28478 0.64987 0.0
C1099 C 0.91029 0.32209 0.65014 0.0
C1100 C 0.86369 0.31191 0.64631 0.0
C1101 C 0.82673 0.26547 0.64654 0.0
C1102 C 0.98167 0.40342 0.6978 0.0
C1103 C 0.97403 0.44141 0.69373 0.0
C1104 C 0.96669 0.36692 0.68177 0.0
C1105 C 0.94381 0.36763 0.6612 0.0
C1106 C 0.943 0.4089 0.65544 0.0
C1107 C 0.95755 0.44532 0.6716 0.0
H1108 H 0.63511 0.83348 0.80424 0.0
H1109 H 0.70117 0.86489 0.87185 0.0
H1110 H 0.62028 0.89905 0.80822 0.0
H1111 H 0.68447 0.92815 0.87654 0.0
H1112 H 0.50915 0.91504 0.85258 0.0
H1113 H 0.56031 0.89671 0.83037 0.0
H1114 H 0.67951 0.99528 0.87176 0.0
H1115 H 0.62675 1.01134 0.89506 0.0
C1116 C 0.647 0.85485 0.81981 0.0
C1117 C 0.66742 0.84305 0.8382 0.0
C1118 C 0.63866 0.89249 0.82209 0.0
C1119 C 0.64936 0.91789 0.84308 0.0
C1120 C 0.67539 0.90965 0.86009 0.0
C1121 C 0.68458 0.87277 0.85757 0.0
C1122 C 0.54654 0.93403 0.85645 0.0
C1123 C 0.56388 0.96337 0.87598 0.0
C1124 C 0.57629 0.92383 0.84351 0.0
C1125 C 0.624 0.94313 0.84981 0.0
C1126 C 0.64257 0.97826 0.86707 0.0
C1127 C 0.61249 0.98755 0.8804 0.0
H1128 H 0.50996 0.37483 0.78725 0.0
H1129 H 0.50648 0.44517 0.85032 0.0
H1130 H 0.44757 0.30072 0.80268 0.0
H1131 H 0.44295 0.37139 0.86522 0.0
H1132 H 0.44297 0.23566 0.89418 0.0
H1133 H 0.46286 0.31218 0.87846 0.0
H1134 H 0.37057 0.24489 0.81991 0.0
H1135 H 0.35169 0.16794 0.83536 0.0
C1136 C 0.49456 0.3749 0.80395 0.0
C1137 C 0.5142 0.41564 0.81774 0.0
C1138 C 0.45833 0.33246 0.81271 0.0
C1139 C 0.44132 0.33019 0.83543 0.0
C1140 C 0.45615 0.37215 0.84782 0.0
C1141 C 0.49252 0.41462 0.83911 0.0
C1142 C 0.42666 0.23713 0.87805 0.0
C1143 C 0.3974 0.19605 0.86546 0.0
C1144 C 0.43718 0.28097 0.86927 0.0
C1145 C 0.41858 0.28447 0.84778 0.0
C1146 C 0.38571 0.24313 0.83638 0.0
C1147 C 0.37507 0.1992 0.84521 0.0
H1148 H 0.16682 0.52245 0.91709 0.0
H1149 H 0.22353 0.60672 0.97934 0.0
H1150 H 0.22752 0.50047 0.91923 0.0
H1151 H 0.2839 0.5856 0.98083 0.0
H1152 H 0.23472 0.40025 0.97948 0.0
H1153 H 0.21505 0.44507 0.95305 0.0
H1154 H 0.34907 0.56983 0.96651 0.0
H1155 H 0.37046 0.52456 0.99218 0.0
C1156 C 0.19304 0.53784 0.9307 0.0
C1157 C 0.18844 0.56452 0.94868 0.0
C1158 C 0.22812 0.52552 0.93172 0.0
C1159 C 0.25943 0.54019 0.95056 0.0
C1160 C 0.26001 0.57347 0.96614 0.0
C1161 C 0.22466 0.58536 0.96533 0.0
C1162 C 0.26095 0.4368 0.97635 0.0
C1163 C 0.30273 0.45931 0.98943 0.0
C1164 C 0.24979 0.4625 0.96087 0.0
C1165 C 0.28003 0.5113 0.95828 0.0
C1166 C 0.32472 0.53242 0.96866 0.0
C1167 C 0.33633 0.50646 0.98387 0.0
H1168 H 0.87476 0.17688 0.18049 0.0
H1169 H 0.80192 0.20637 0.23502 0.0
H1170 H 0.79932 0.12026 0.16354 0.0
H1171 H 0.72672 0.15109 0.21752 0.0
H1172 H 0.59512 0.05203 0.18193 0.0
H1173 H 0.66687 0.07104 0.2031 0.0
H1174 H 0.75021 0.14703 0.14308 0.0
H1175 H 0.67915 0.12933 0.12213 0.0
C1176 C 0.8427 0.17054 0.18919 0.0
C1177 C 0.84426 0.19765 0.20847 0.0
C1178 C 0.79957 0.13813 0.17944 0.0
C1179 C 0.7574 0.13224 0.18889 0.0
C1180 C 0.75875 0.15511 0.20979 0.0
C1181 C 0.80191 0.18752 0.21955 0.0
C1182 C 0.6287 0.07286 0.17322 0.0
C1183 C 0.63157 0.09111 0.15066 0.0
C1184 C 0.66967 0.08306 0.18528 0.0
C1185 C 0.71398 0.11088 0.17483 0.0
C1186 C 0.71649 0.12513 0.15154 0.0
C1187 C 0.67569 0.1153 0.13957 0.0
H1188 H 0.71092 0.8304 0.4024 0.0
H1189 H 0.56174 0.77653 0.41379 0.0
H1190 H 0.69671 0.75001 0.40218 0.0
H1191 H 0.54812 0.69776 0.41361 0.0
H1192 H 0.51041 0.56509 0.39143 0.0
H1193 H 0.55241 0.62764 0.41907 0.0
H1194 H 0.66065 0.70505 0.3676 0.0
H1195 H 0.62025 0.64153 0.34024 0.0
C1196 C 0.6754 0.80176 0.40561 0.0
C1197 C 0.63725 0.81012 0.40687 0.0
C1198 C 0.66739 0.75569 0.40567 0.0
C1199 C 0.62107 0.71742 0.4068 0.0
C1200 C 0.58431 0.72624 0.41234 0.0
C1201 C 0.59223 0.77214 0.41224 0.0
C1202 C 0.54411 0.59421 0.38608 0.0
C1203 C 0.56083 0.59897 0.363 0.0
C1204 C 0.56828 0.63033 0.40215 0.0
C1205 C 0.60882 0.67218 0.39531 0.0
C1206 C 0.6292 0.67363 0.37352 0.0
C1207 C 0.60542 0.63737 0.35755 0.0
H1208 H 0.85658 0.48354 0.42259 0.0
H1209 H 0.8202 0.41786 0.4907 0.0
H1210 H 0.79148 0.49929 0.42534 0.0
H1211 H 0.75511 0.43256 0.49295 0.0
H1212 H 0.65668 0.48233 0.50102 0.0
H1213 H 0.68134 0.43525 0.47888 0.0
H1214 H 0.80525 0.56223 0.45555 0.0
H1215 H 0.78259 0.6094 0.47851 0.0
C1216 C 0.8337 0.47071 0.43772 0.0
C1217 C 0.84486 0.45101 0.45677 0.0
C1218 C 0.79618 0.4794 0.43914 0.0
C1219 C 0.76911 0.46816 0.45956 0.0
C1220 C 0.77548 0.44166 0.47696 0.0
C1221 C 0.81326 0.43336 0.47567 0.0
C1222 C 0.68931 0.50057 0.49131 0.0
C1223 C 0.71948 0.54983 0.49301 0.0
C1224 C 0.7027 0.47335 0.47815 0.0
C1225 C 0.74557 0.49501 0.46593 0.0
C1226 C 0.77193 0.54445 0.46483 0.0
C1227 C 0.7591 0.57158 0.47829 0.0
H1228 H 0.20338 0.8308 0.65672 0.0
H1229 H 0.18323 0.68983 0.66112 0.0
H1230 H 0.26587 0.85178 0.62866 0.0
H1231 H 0.24777 0.71212 0.63377 0.0
H1232 H 0.38656 0.89818 0.58839 0.0
H1233 H 0.3028 0.84122 0.5916 0.0
H1234 H 0.33151 0.77132 0.64763 0.0
H1235 H 0.41415 0.82791 0.64512 0.0
C1236 C 0.2114 0.80385 0.6514 0.0
C1237 C 0.19019 0.75963 0.66245 0.0
C1238 C 0.24703 0.81579 0.63502 0.0
C1239 C 0.26236 0.78383 0.62947 0.0
C1240 C 0.2371 0.73762 0.63813 0.0
C1241 C 0.20082 0.72537 0.65427 0.0
C1242 C 0.37535 0.8698 0.60094 0.0
C1243 C 0.40731 0.86945 0.61725 0.0
C1244 C 0.32732 0.8369 0.60254 0.0
C1245 C 0.31069 0.80286 0.62028 0.0
C1246 C 0.34333 0.79745 0.63384 0.0
C1247 C 0.39126 0.83061 0.63246 0.0
loop_
_geom_bond_atom_site_label_1
_geom_bond_atom_site_label_2
_geom_bond_distance
_geom_bond_site_symmetry_2
_ccdc_geom_bond_type
Zn0 N4 2.020 . S
Zn0 O8 2.019 . S
Zn0 N10 2.119 . S
Zn0 O18 1.975 . S
C1 N2 1.334 . S
C1 N5 1.336 . S
N2 C1 1.334 . S
N2 C3 1.334 . S
C3 N2 1.334 . S
C3 N4 1.336 . S
N4 Zn0 2.020 . S
N4 C3 1.336 . S
N4 N5 1.354 . S
N5 C1 1.336 . S
N5 N4 1.354 . S
N5 Zn9 2.020 . S
C6 O7 1.244 . S
C6 O30 1.257 . S
O7 C6 1.244 . S
O8 Zn0 2.019 . S
O8 C28 1.257 . S
Zn9 N5 2.020 . S
Zn9 O16 1.975 1_554 S
Zn9 N25 2.119 . S
Zn9 O30 2.019 1_554 S
N10 Zn0 2.119 . S
N10 C12 1.334 1_554 S
N10 C13 1.328 . S
C11 C12 1.391 . S
C11 N14 1.329 . S
C11 H32 0.930 . S
C12 N10 1.334 1_556 S
C12 C11 1.391 . S
C12 H19 0.930 . S
C13 N10 1.328 . S
C13 C15 1.392 1_554 S
C13 H20 0.930 . S
N14 C11 1.329 . S
N14 C15 1.331 . S
C15 C13 1.392 1_556 S
C15 N14 1.331 . S
O16 Zn9 1.975 1_556 S
O16 C17 1.252 . S
C17 O16 1.252 . S
C17 O18 1.252 1_556 S
O18 Zn0 1.975 . S
O18 C17 1.252 1_554 S
H19 C12 0.930 . S
H20 C13 0.930 . S
C21 C22 1.392 . S
C21 N25 1.328 . S
C21 H27 0.930 . S
C22 C21 1.392 . S
C22 N26 1.331 . S
C23 C24 1.391 . S
C23 N26 1.329 . S
C23 H33 0.930 . S
C24 C23 1.391 . S
C24 N25 1.334 . S
C24 H31 0.930 . S
N25 Zn9 2.119 . S
N25 C21 1.328 . S
N25 C24 1.334 . S
N26 C22 1.331 . S
N26 C23 1.329 . S
H27 C21 0.930 . S
C28 O8 1.257 . S
C28 O29 1.244 . S
O29 C28 1.244 . S
O30 C6 1.257 . S
O30 Zn9 2.019 1_556 S
H31 C24 0.930 . S
H32 C11 0.930 . S
H33 C23 0.930 . S
Zn34 N38 2.020 . S
Zn34 O42 2.019 1_655 S
Zn34 N44 2.119 1_655 S
Zn34 O52 1.975 . S
C35 N36 1.334 . S
C35 N39 1.336 . S
N36 C35 1.334 . S
N36 C37 1.334 . S
C37 N36 1.334 . S
C37 N38 1.336 . S
N38 Zn34 2.020 . S
N38 C37 1.336 . S
N38 N39 1.354 . S
N39 C35 1.336 . S
N39 N38 1.354 . S
N39 Zn43 2.020 . S
C40 O41 1.244 . S
C40 O64 1.257 . S
O41 C40 1.244 . S
O42 Zn34 2.019 1_455 S
O42 C62 1.257 . S
Zn43 N39 2.020 . S
Zn43 O50 1.975 . S
Zn43 N59 2.119 . S
Zn43 O64 2.019 . S
N44 Zn34 2.119 1_455 S
N44 C46 1.334 1_455 S
N44 C47 1.328 . S
C45 C46 1.391 1_455 S
C45 N48 1.329 . S
C45 H66 0.930 1_455 S
C46 N44 1.334 1_655 S
C46 C45 1.391 1_655 S
C46 H53 0.930 . S
C47 N44 1.328 . S
C47 C49 1.392 . S
C47 H54 0.930 . S
N48 C45 1.329 . S
N48 C49 1.331 . S
C49 C47 1.392 . S
C49 N48 1.331 . S
O50 Zn43 1.975 . S
O50 C51 1.252 . S
C51 O50 1.252 . S
C51 O52 1.252 . S
O52 Zn34 1.975 . S
O52 C51 1.252 . S
H53 C46 0.930 . S
H54 C47 0.930 . S
C55 C56 1.392 . S
C55 N59 1.328 . S
C55 H61 0.930 . S
C56 C55 1.392 . S
C56 N60 1.331 . S
C57 C58 1.391 . S
C57 N60 1.329 . S
C57 H67 0.930 . S
C58 C57 1.391 . S
C58 N59 1.334 . S
C58 H65 0.930 . S
N59 Zn43 2.119 . S
N59 C55 1.328 . S
N59 C58 1.334 . S
N60 C56 1.331 . S
N60 C57 1.329 . S
H61 C55 0.930 . S
C62 O42 1.257 . S
C62 O63 1.244 . S
O63 C62 1.244 . S
O64 C40 1.257 . S
O64 Zn43 2.019 . S
H65 C58 0.930 . S
H66 C45 0.930 1_655 S
H67 C57 0.930 . S
Zn68 N72 2.020 . S
Zn68 O76 2.019 . S
Zn68 N78 2.119 . S
Zn68 O86 1.975 . S
C69 N70 1.334 . S
C69 N73 1.336 . S
N70 C69 1.334 . S
N70 C71 1.334 . S
C71 N70 1.334 . S
C71 N72 1.336 . S
N72 Zn68 2.020 . S
N72 C71 1.336 . S
N72 N73 1.354 . S
N73 C69 1.336 . S
N73 N72 1.354 . S
N73 Zn77 2.020 . S
C74 O75 1.244 . S
C74 O98 1.257 . S
O75 C74 1.244 . S
O76 Zn68 2.019 . S
O76 C96 1.257 . S
Zn77 N73 2.020 . S
Zn77 O84 1.975 . S
Zn77 N93 2.119 1_565 S
Zn77 O98 2.019 1_565 S
N78 Zn68 2.119 . S
N78 C80 1.334 . S
N78 C81 1.328 . S
C79 C80 1.391 . S
C79 N82 1.329 . S
C79 H100 0.930 . S
C80 N78 1.334 . S
C80 C79 1.391 . S
C80 H87 0.930 . S
C81 N78 1.328 . S
C81 C83 1.392 . S
C81 H88 0.930 . S
N82 C79 1.329 . S
N82 C83 1.331 . S
C83 C81 1.392 . S
C83 N82 1.331 . S
O84 Zn77 1.975 . S
O84 C85 1.252 . S
C85 O84 1.252 . S
C85 O86 1.252 . S
O86 Zn68 1.975 . S
O86 C85 1.252 . S
H87 C80 0.930 . S
H88 C81 0.930 . S
C89 C90 1.392 . S
C89 N93 1.328 . S
C89 H95 0.930 . S
C90 C89 1.392 . S
C90 N94 1.331 . S
C91 C92 1.391 1_545 S
C91 N94 1.329 . S
C91 H101 0.930 1_545 S
C92 C91 1.391 1_565 S
C92 N93 1.334 1_565 S
C92 H99 0.930 . S
N93 Zn77 2.119 1_545 S
N93 C89 1.328 . S
N93 C92 1.334 1_545 S
N94 C90 1.331 . S
N94 C91 1.329 . S
H95 C89 0.930 . S
C96 O76 1.257 . S
C96 O97 1.244 . S
O97 C96 1.244 . S
O98 C74 1.257 . S
O98 Zn77 2.019 1_545 S
H99 C92 0.930 . S
H100 C79 0.930 . S
H101 C91 0.930 1_565 S
Zn102 N106 2.020 . S
Zn102 O110 2.019 . S
Zn102 N112 2.119 . S
Zn102 O120 1.975 . S
C103 N104 1.334 . S
C103 N107 1.336 . S
N104 C103 1.334 . S
N104 C105 1.334 . S
C105 N104 1.334 . S
C105 N106 1.336 . S
N106 Zn102 2.020 . S
N106 C105 1.336 . S
N106 N107 1.354 . S
N107 C103 1.336 . S
N107 N106 1.354 . S
N107 Zn111 2.020 . S
C108 O109 1.244 . S
C108 O132 1.257 . S
O109 C108 1.244 . S
O110 Zn102 2.019 . S
O110 C130 1.257 . S
Zn111 N107 2.020 . S
Zn111 O118 1.975 . S
Zn111 N127 2.119 . S
Zn111 O132 2.019 . S
N112 Zn102 2.119 . S
N112 C114 1.334 . S
N112 C115 1.328 . S
C113 C114 1.391 . S
C113 N116 1.329 . S
C113 H134 0.930 . S
C114 N112 1.334 . S
C114 C113 1.391 . S
C114 H121 0.930 . S
C115 N112 1.328 . S
C115 C117 1.392 . S
C115 H122 0.930 . S
N116 C113 1.329 . S
N116 C117 1.331 . S
C117 C115 1.392 . S
C117 N116 1.331 . S
O118 Zn111 1.975 . S
O118 C119 1.252 . S
C119 O118 1.252 . S
C119 O120 1.252 . S
O120 Zn102 1.975 . S
O120 C119 1.252 . S
H121 C114 0.930 . S
H122 C115 0.930 . S
C123 C124 1.392 . S
C123 N127 1.328 . S
C123 H129 0.930 . S
C124 C123 1.392 . S
C124 N128 1.331 . S
C125 C126 1.391 . S
C125 N128 1.329 . S
C125 H135 0.930 . S
C126 C125 1.391 . S
C126 N127 1.334 . S
C126 H133 0.930 . S
N127 Zn111 2.119 . S
N127 C123 1.328 . S
N127 C126 1.334 . S
N128 C124 1.331 . S
N128 C125 1.329 . S
H129 C123 0.930 . S
C130 O110 1.257 . S
C130 O131 1.244 . S
O131 C130 1.244 . S
O132 C108 1.257 . S
O132 Zn111 2.019 . S
H133 C126 0.930 . S
H134 C113 0.930 . S
H135 C125 0.930 . S
Zn136 N140 2.020 . S
Zn136 O144 2.019 . S
Zn136 N146 2.119 . S
Zn136 O154 1.975 . S
C137 N138 1.334 . S
C137 N141 1.336 . S
N138 C137 1.334 . S
N138 C139 1.334 . S
C139 N138 1.334 . S
C139 N140 1.336 . S
N140 Zn136 2.020 . S
N140 C139 1.336 . S
N140 N141 1.354 . S
N141 C137 1.336 . S
N141 N140 1.354 . S
N141 Zn145 2.020 . S
C142 O143 1.244 . S
C142 O166 1.257 . S
O143 C142 1.244 . S
O144 Zn136 2.019 . S
O144 C164 1.257 . S
Zn145 N141 2.020 . S
Zn145 O152 1.975 . S
Zn145 N161 2.119 1_455 S
Zn145 O166 2.019 1_455 S
N146 Zn136 2.119 . S
N146 C148 1.334 . S
N146 C149 1.328 . S
C147 C148 1.391 . S
C147 N150 1.329 . S
C147 H168 0.930 . S
C148 N146 1.334 . S
C148 C147 1.391 . S
C148 H155 0.930 . S
C149 N146 1.328 . S
C149 C151 1.392 . S
C149 H156 0.930 . S
N150 C147 1.329 . S
N150 C151 1.331 . S
C151 C149 1.392 . S
C151 N150 1.331 . S
O152 Zn145 1.975 . S
O152 C153 1.252 . S
C153 O152 1.252 . S
C153 O154 1.252 . S
O154 Zn136 1.975 . S
O154 C153 1.252 . S
H155 C148 0.930 . S
H156 C149 0.930 . S
C157 C158 1.392 . S
C157 N161 1.328 . S
C157 H163 0.930 . S
C158 C157 1.392 . S
C158 N162 1.331 . S
C159 C160 1.391 1_655 S
C159 N162 1.329 . S
C159 H169 0.930 1_655 S
C160 C159 1.391 1_455 S
C160 N161 1.334 1_455 S
C160 H167 0.930 . S
N161 Zn145 2.119 1_655 S
N161 C157 1.328 . S
N161 C160 1.334 1_655 S
N162 C158 1.331 . S
N162 C159 1.329 . S
H163 C157 0.930 . S
C164 O144 1.257 . S
C164 O165 1.244 . S
O165 C164 1.244 . S
O166 C142 1.257 . S
O166 Zn145 2.019 1_655 S
H167 C160 0.930 . S
H168 C147 0.930 . S
H169 C159 0.930 1_455 S
Zn170 N174 2.020 . S
Zn170 O178 2.019 1_545 S
Zn170 N180 2.119 1_545 S
Zn170 O188 1.975 . S
C171 N172 1.334 . S
C171 N175 1.336 . S
N172 C171 1.334 . S
N172 C173 1.334 . S
C173 N172 1.334 . S
C173 N174 1.336 . S
N174 Zn170 2.020 . S
N174 C173 1.336 . S
N174 N175 1.354 . S
N175 C171 1.336 . S
N175 N174 1.354 . S
N175 Zn179 2.020 . S
C176 O177 1.244 . S
C176 O200 1.257 . S
O177 C176 1.244 . S
O178 Zn170 2.019 1_565 S
O178 C198 1.257 . S
Zn179 N175 2.020 . S
Zn179 O186 1.975 . S
Zn179 N195 2.119 . S
Zn179 O200 2.019 . S
N180 Zn170 2.119 1_565 S
N180 C182 1.334 1_565 S
N180 C183 1.328 . S
C181 C182 1.391 1_565 S
C181 N184 1.329 . S
C181 H202 0.930 1_565 S
C182 N180 1.334 1_545 S
C182 C181 1.391 1_545 S
C182 H189 0.930 . S
C183 N180 1.328 . S
C183 C185 1.392 . S
C183 H190 0.930 . S
N184 C181 1.329 . S
N184 C185 1.331 . S
C185 C183 1.392 . S
C185 N184 1.331 . S
O186 Zn179 1.975 . S
O186 C187 1.252 . S
C187 O186 1.252 . S
C187 O188 1.252 . S
O188 Zn170 1.975 . S
O188 C187 1.252 . S
H189 C182 0.930 . S
H190 C183 0.930 . S
C191 C192 1.392 . S
C191 N195 1.328 . S
C191 H197 0.930 . S
C192 C191 1.392 . S
C192 N196 1.331 . S
C193 C194 1.391 . S
C193 N196 1.329 . S
C193 H203 0.930 . S
C194 C193 1.391 . S
C194 N195 1.334 . S
C194 H201 0.930 . S
N195 Zn179 2.119 . S
N195 C191 1.328 . S
N195 C194 1.334 . S
N196 C192 1.331 . S
N196 C193 1.329 . S
H197 C191 0.930 . S
C198 O178 1.257 . S
C198 O199 1.244 . S
O199 C198 1.244 . S
O200 C176 1.257 . S
O200 Zn179 2.019 . S
H201 C194 0.930 . S
H202 C181 0.930 1_545 S
H203 C193 0.930 . S
Zn204 N208 2.020 . S
Zn204 O212 2.019 . S
Zn204 N214 2.119 . S
Zn204 O222 1.975 . S
C205 N206 1.334 . S
C205 N209 1.336 . S
N206 C205 1.334 . S
N206 C207 1.334 . S
C207 N206 1.334 . S
C207 N208 1.336 . S
N208 Zn204 2.020 . S
N208 C207 1.336 . S
N208 N209 1.354 . S
N209 C205 1.336 . S
N209 N208 1.354 . S
N209 Zn213 2.020 . S
C210 O211 1.244 . S
C210 O234 1.257 . S
O211 C210 1.244 . S
O212 Zn204 2.019 . S
O212 C232 1.257 . S
Zn213 N209 2.020 . S
Zn213 O220 1.975 . S
Zn213 N229 2.119 . S
Zn213 O234 2.019 . S
N214 Zn204 2.119 . S
N214 C216 1.334 . S
N214 C217 1.328 . S
C215 C216 1.391 . S
C215 N218 1.329 . S
C215 H236 0.930 . S
C216 N214 1.334 . S
C216 C215 1.391 . S
C216 H223 0.930 . S
C217 N214 1.328 . S
C217 C219 1.392 . S
C217 H224 0.930 . S
N218 C215 1.329 . S
N218 C219 1.331 . S
C219 C217 1.392 . S
C219 N218 1.331 . S
O220 Zn213 1.975 . S
O220 C221 1.252 . S
C221 O220 1.252 . S
C221 O222 1.252 . S
O222 Zn204 1.975 . S
O222 C221 1.252 . S
H223 C216 0.930 . S
H224 C217 0.930 . S
C225 C226 1.392 . S
C225 N229 1.328 . S
C225 H231 0.930 . S
C226 C225 1.392 . S
C226 N230 1.331 . S
C227 C228 1.391 . S
C227 N230 1.329 . S
C227 H237 0.930 . S
C228 C227 1.391 . S
C228 N229 1.334 . S
C228 H235 0.930 . S
N229 Zn213 2.119 . S
N229 C225 1.328 . S
N229 C228 1.334 . S
N230 C226 1.331 . S
N230 C227 1.329 . S
H231 C225 0.930 . S
C232 O212 1.257 . S
C232 O233 1.244 . S
O233 C232 1.244 . S
O234 C210 1.257 . S
O234 Zn213 2.019 . S
H235 C228 0.930 . S
H236 C215 0.930 . S
H237 C227 0.930 . S
Zn238 N242 2.020 . S
Zn238 O246 2.019 1_656 S
Zn238 N248 2.119 1_655 S
Zn238 O256 1.975 1_556 S
C239 N240 1.334 . S
C239 N243 1.336 . S
N240 C239 1.334 . S
N240 C241 1.334 . S
C241 N240 1.334 . S
C241 N242 1.336 . S
N242 Zn238 2.020 . S
N242 C241 1.336 . S
N242 N243 1.354 . S
N243 C239 1.336 . S
N243 N242 1.354 . S
N243 Zn247 2.020 . S
C244 O245 1.244 . S
C244 O268 1.257 . S
O245 C244 1.244 . S
O246 Zn238 2.019 1_454 S
O246 C266 1.257 . S
Zn247 N243 2.020 . S
Zn247 O254 1.975 . S
Zn247 N263 2.119 . S
Zn247 O268 2.019 . S
N248 Zn238 2.119 1_455 S
N248 C250 1.334 1_455 S
N248 C251 1.328 . S
C249 C250 1.391 1_455 S
C249 N252 1.329 . S
C249 H270 0.930 1_455 S
C250 N248 1.334 1_655 S
C250 C249 1.391 1_655 S
C250 H257 0.930 . S
C251 N248 1.328 . S
C251 C253 1.392 . S
C251 H258 0.930 . S
N252 C249 1.329 . S
N252 C253 1.331 . S
C253 C251 1.392 . S
C253 N252 1.331 . S
O254 Zn247 1.975 . S
O254 C255 1.252 1_556 S
C255 O254 1.252 1_554 S
C255 O256 1.252 . S
O256 Zn238 1.975 1_554 S
O256 C255 1.252 . S
H257 C250 0.930 . S
H258 C251 0.930 . S
C259 C260 1.392 1_556 S
C259 N263 1.328 . S
C259 H265 0.930 . S
C260 C259 1.392 1_554 S
C260 N264 1.331 . S
C261 C262 1.391 . S
C261 N264 1.329 . S
C261 H271 0.930 . S
C262 C261 1.391 . S
C262 N263 1.334 1_554 S
C262 H269 0.930 . S
N263 Zn247 2.119 . S
N263 C259 1.328 . S
N263 C262 1.334 1_556 S
N264 C260 1.331 . S
N264 C261 1.329 . S
H265 C259 0.930 . S
C266 O246 1.257 . S
C266 O267 1.244 . S
O267 C266 1.244 . S
O268 C244 1.257 . S
O268 Zn247 2.019 . S
H269 C262 0.930 . S
H270 C249 0.930 1_655 S
H271 C261 0.930 . S
Zn272 N276 2.020 . S
Zn272 O280 2.019 . S
Zn272 N282 2.119 . S
Zn272 O290 1.975 . S
C273 N274 1.334 . S
C273 N277 1.336 . S
N274 C273 1.334 . S
N274 C275 1.334 . S
C275 N274 1.334 . S
C275 N276 1.336 . S
N276 Zn272 2.020 . S
N276 C275 1.336 . S
N276 N277 1.354 . S
N277 C273 1.336 . S
N277 N276 1.354 . S
N277 Zn281 2.020 . S
C278 O279 1.244 . S
C278 O302 1.257 . S
O279 C278 1.244 . S
O280 Zn272 2.019 . S
O280 C300 1.257 . S
Zn281 N277 2.020 . S
Zn281 O288 1.975 . S
Zn281 N297 2.119 1_565 S
Zn281 O302 2.019 1_565 S
N282 Zn272 2.119 . S
N282 C284 1.334 . S
N282 C285 1.328 . S
C283 C284 1.391 . S
C283 N286 1.329 . S
C283 H304 0.930 . S
C284 N282 1.334 . S
C284 C283 1.391 . S
C284 H291 0.930 . S
C285 N282 1.328 . S
C285 C287 1.392 . S
C285 H292 0.930 . S
N286 C283 1.329 . S
N286 C287 1.331 . S
C287 C285 1.392 . S
C287 N286 1.331 . S
O288 Zn281 1.975 . S
O288 C289 1.252 . S
C289 O288 1.252 . S
C289 O290 1.252 . S
O290 Zn272 1.975 . S
O290 C289 1.252 . S
H291 C284 0.930 . S
H292 C285 0.930 . S
C293 C294 1.392 . S
C293 N297 1.328 . S
C293 H299 0.930 . S
C294 C293 1.392 . S
C294 N298 1.331 . S
C295 C296 1.391 1_545 S
C295 N298 1.329 . S
C295 H305 0.930 1_545 S
C296 C295 1.391 1_565 S
C296 N297 1.334 1_565 S
C296 H303 0.930 . S
N297 Zn281 2.119 1_545 S
N297 C293 1.328 . S
N297 C296 1.334 1_545 S
N298 C294 1.331 . S
N298 C295 1.329 . S
H299 C293 0.930 . S
C300 O280 1.257 . S
C300 O301 1.244 . S
O301 C300 1.244 . S
O302 C278 1.257 . S
O302 Zn281 2.019 1_545 S
H303 C296 0.930 . S
H304 C283 0.930 . S
H305 C295 0.930 1_565 S
Zn306 N310 2.020 . S
Zn306 O314 2.019 . S
Zn306 N316 2.119 . S
Zn306 O324 1.975 . S
C307 N308 1.334 . S
C307 N311 1.336 . S
N308 C307 1.334 . S
N308 C309 1.334 . S
C309 N308 1.334 . S
C309 N310 1.336 . S
N310 Zn306 2.020 . S
N310 C309 1.336 . S
N310 N311 1.354 . S
N311 C307 1.336 . S
N311 N310 1.354 . S
N311 Zn315 2.020 . S
C312 O313 1.244 . S
C312 O336 1.257 . S
O313 C312 1.244 . S
O314 Zn306 2.019 . S
O314 C334 1.257 . S
Zn315 N311 2.020 . S
Zn315 O322 1.975 . S
Zn315 N331 2.119 . S
Zn315 O336 2.019 . S
N316 Zn306 2.119 . S
N316 C318 1.334 . S
N316 C319 1.328 . S
C317 C318 1.391 . S
C317 N320 1.329 . S
C317 H338 0.930 . S
C318 N316 1.334 . S
C318 C317 1.391 . S
C318 H325 0.930 . S
C319 N316 1.328 . S
C319 C321 1.392 . S
C319 H326 0.930 . S
N320 C317 1.329 . S
N320 C321 1.331 . S
C321 C319 1.392 . S
C321 N320 1.331 . S
O322 Zn315 1.975 . S
O322 C323 1.252 . S
C323 O322 1.252 . S
C323 O324 1.252 . S
O324 Zn306 1.975 . S
O324 C323 1.252 . S
H325 C318 0.930 . S
H326 C319 0.930 . S
C327 C328 1.392 . S
C327 N331 1.328 . S
C327 H333 0.930 . S
C328 C327 1.392 . S
C328 N332 1.331 . S
C329 C330 1.391 . S
C329 N332 1.329 . S
C329 H339 0.930 . S
C330 C329 1.391 . S
C330 N331 1.334 . S
C330 H337 0.930 . S
N331 Zn315 2.119 . S
N331 C327 1.328 . S
N331 C330 1.334 . S
N332 C328 1.331 . S
N332 C329 1.329 . S
H333 C327 0.930 . S
C334 O314 1.257 . S
C334 O335 1.244 . S
O335 C334 1.244 . S
O336 C312 1.257 . S
O336 Zn315 2.019 . S
H337 C330 0.930 . S
H338 C317 0.930 . S
H339 C329 0.930 . S
Zn340 N344 2.020 . S
Zn340 O348 2.019 . S
Zn340 N350 2.119 . S
Zn340 O358 1.975 . S
C341 N342 1.334 . S
C341 N345 1.336 . S
N342 C341 1.334 . S
N342 C343 1.334 . S
C343 N342 1.334 . S
C343 N344 1.336 . S
N344 Zn340 2.020 . S
N344 C343 1.336 . S
N344 N345 1.354 . S
N345 C341 1.336 . S
N345 N344 1.354 . S
N345 Zn349 2.020 . S
C346 O347 1.244 . S
C346 O370 1.257 . S
O347 C346 1.244 . S
O348 Zn340 2.019 . S
O348 C368 1.257 . S
Zn349 N345 2.020 . S
Zn349 O356 1.975 . S
Zn349 N365 2.119 1_455 S
Zn349 O370 2.019 1_455 S
N350 Zn340 2.119 . S
N350 C352 1.334 . S
N350 C353 1.328 . S
C351 C352 1.391 . S
C351 N354 1.329 . S
C351 H372 0.930 . S
C352 N350 1.334 . S
C352 C351 1.391 . S
C352 H359 0.930 . S
C353 N350 1.328 . S
C353 C355 1.392 . S
C353 H360 0.930 . S
N354 C351 1.329 . S
N354 C355 1.331 . S
C355 C353 1.392 . S
C355 N354 1.331 . S
O356 Zn349 1.975 . S
O356 C357 1.252 . S
C357 O356 1.252 . S
C357 O358 1.252 . S
O358 Zn340 1.975 . S
O358 C357 1.252 . S
H359 C352 0.930 . S
H360 C353 0.930 . S
C361 C362 1.392 . S
C361 N365 1.328 . S
C361 H367 0.930 . S
C362 C361 1.392 . S
C362 N366 1.331 . S
C363 C364 1.391 1_655 S
C363 N366 1.329 . S
C363 H373 0.930 1_655 S
C364 C363 1.391 1_455 S
C364 N365 1.334 1_455 S
C364 H371 0.930 . S
N365 Zn349 2.119 1_655 S
N365 C361 1.328 . S
N365 C364 1.334 1_655 S
N366 C362 1.331 . S
N366 C363 1.329 . S
H367 C361 0.930 . S
C368 O348 1.257 . S
C368 O369 1.244 . S
O369 C368 1.244 . S
O370 C346 1.257 . S
O370 Zn349 2.019 1_655 S
H371 C364 0.930 . S
H372 C351 0.930 . S
H373 C363 0.930 1_455 S
Zn374 N378 2.020 . S
Zn374 O382 2.019 1_545 S
Zn374 N384 2.119 1_545 S
Zn374 O392 1.975 . S
C375 N376 1.334 . S
C375 N379 1.336 . S
N376 C375 1.334 . S
N376 C377 1.334 . S
C377 N376 1.334 . S
C377 N378 1.336 . S
N378 Zn374 2.020 . S
N378 C377 1.336 . S
N378 N379 1.354 . S
N379 C375 1.336 . S
N379 N378 1.354 . S
N379 Zn383 2.020 . S
C380 O381 1.244 . S
C380 O404 1.257 . S
O381 C380 1.244 . S
O382 Zn374 2.019 1_565 S
O382 C402 1.257 . S
Zn383 N379 2.020 . S
Zn383 O390 1.975 . S
Zn383 N399 2.119 . S
Zn383 O404 2.019 . S
N384 Zn374 2.119 1_565 S
N384 C386 1.334 1_565 S
N384 C387 1.328 . S
C385 C386 1.391 1_565 S
C385 N388 1.329 . S
C385 H406 0.930 1_565 S
C386 N384 1.334 1_545 S
C386 C385 1.391 1_545 S
C386 H393 0.930 . S
C387 N384 1.328 . S
C387 C389 1.392 . S
C387 H394 0.930 . S
N388 C385 1.329 . S
N388 C389 1.331 . S
C389 C387 1.392 . S
C389 N388 1.331 . S
O390 Zn383 1.975 . S
O390 C391 1.252 . S
C391 O390 1.252 . S
C391 O392 1.252 . S
O392 Zn374 1.975 . S
O392 C391 1.252 . S
H393 C386 0.930 . S
H394 C387 0.930 . S
C395 C396 1.392 . S
C395 N399 1.328 . S
C395 H401 0.930 . S
C396 C395 1.392 . S
C396 N400 1.331 . S
C397 C398 1.391 . S
C397 N400 1.329 . S
C397 H407 0.930 . S
C398 C397 1.391 . S
C398 N399 1.334 . S
C398 H405 0.930 . S
N399 Zn383 2.119 . S
N399 C395 1.328 . S
N399 C398 1.334 . S
N400 C396 1.331 . S
N400 C397 1.329 . S
H401 C395 0.930 . S
C402 O382 1.257 . S
C402 O403 1.244 . S
O403 C402 1.244 . S
O404 C380 1.257 . S
O404 Zn383 2.019 . S
H405 C398 0.930 . S
H406 C385 0.930 1_545 S
H407 C397 0.930 . S
H408 C416 0.950 . S
H409 C421 0.950 . S
H410 C418 0.950 . S
H411 C420 0.950 . S
H412 C422 0.950 . S
H413 C424 0.950 . S
H414 C426 0.950 . S
H415 C427 0.950 . S
C416 H408 0.950 . S
C416 C417 1.386 . S
C416 C418 1.391 . S
C417 C416 1.386 . S
C417 C421 1.393 . S
C418 H410 0.950 . S
C418 C416 1.391 . S
C418 C419 1.400 . S
C419 C418 1.400 . S
C419 C420 1.398 . S
C419 C425 1.491 . S
C420 H411 0.950 . S
C420 C419 1.398 . S
C420 C421 1.391 . S
C421 H409 0.950 . S
C421 C417 1.393 . S
C421 C420 1.391 . S
C422 H412 0.950 . S
C422 C423 1.386 . S
C422 C424 1.391 . S
C423 C422 1.386 . S
C423 C427 1.393 . S
C424 H413 0.950 . S
C424 C422 1.391 . S
C424 C425 1.400 . S
C425 C419 1.491 . S
C425 C424 1.400 . S
C425 C426 1.398 . S
C426 H414 0.950 . S
C426 C425 1.398 . S
C426 C427 1.391 . S
C427 H415 0.950 . S
C427 C423 1.393 . S
C427 C426 1.391 . S
H428 C436 0.950 . S
H429 C441 0.950 . S
H430 C438 0.950 . S
H431 C440 0.950 . S
H432 C442 0.950 . S
H433 C444 0.950 . S
H434 C446 0.950 . S
H435 C447 0.950 . S
C436 H428 0.950 . S
C436 C437 1.386 . S
C436 C438 1.391 . S
C437 C436 1.386 . S
C437 C441 1.393 . S
C438 H430 0.950 . S
C438 C436 1.391 . S
C438 C439 1.400 . S
C439 C438 1.400 . S
C439 C440 1.398 . S
C439 C445 1.491 . S
C440 H431 0.950 . S
C440 C439 1.398 . S
C440 C441 1.391 . S
C441 H429 0.950 . S
C441 C437 1.393 . S
C441 C440 1.391 . S
C442 H432 0.950 . S
C442 C443 1.386 . S
C442 C444 1.391 . S
C443 C442 1.386 . S
C443 C447 1.393 . S
C444 H433 0.950 . S
C444 C442 1.391 . S
C444 C445 1.400 . S
C445 C439 1.491 . S
C445 C444 1.400 . S
C445 C446 1.398 . S
C446 H434 0.950 . S
C446 C445 1.398 . S
C446 C447 1.391 . S
C447 H435 0.950 . S
C447 C443 1.393 . S
C447 C446 1.391 . S
H448 C456 0.950 . S
H449 C461 0.950 . S
H450 C458 0.950 . S
H451 C460 0.950 . S
H452 C462 0.950 . S
H453 C464 0.950 . S
H454 C466 0.950 . S
H455 C467 0.950 . S
C456 H448 0.950 . S
C456 C457 1.386 . S
C456 C458 1.391 . S
C457 C456 1.386 . S
C457 C461 1.393 . S
C458 H450 0.950 . S
C458 C456 1.391 . S
C458 C459 1.400 . S
C459 C458 1.400 . S
C459 C460 1.398 . S
C459 C465 1.491 . S
C460 H451 0.950 . S
C460 C459 1.398 . S
C460 C461 1.391 . S
C461 H449 0.950 . S
C461 C457 1.393 . S
C461 C460 1.391 . S
C462 H452 0.950 . S
C462 C463 1.386 . S
C462 C464 1.391 . S
C463 C462 1.386 . S
C463 C467 1.393 . S
C464 H453 0.950 . S
C464 C462 1.391 . S
C464 C465 1.400 . S
C465 C459 1.491 . S
C465 C464 1.400 . S
C465 C466 1.398 . S
C466 H454 0.950 . S
C466 C465 1.398 . S
C466 C467 1.391 . S
C467 H455 0.950 . S
C467 C463 1.393 . S
C467 C466 1.391 . S
H468 C476 0.950 . S
H469 C481 0.950 . S
H470 C478 0.950 . S
H471 C480 0.950 . S
H472 C482 0.950 . S
H473 C484 0.950 . S
H474 C486 0.950 . S
H475 C487 0.950 . S
C476 H468 0.950 . S
C476 C477 1.386 . S
C476 C478 1.391 . S
C477 C476 1.386 . S
C477 C481 1.393 . S
C478 H470 0.950 . S
C478 C476 1.391 . S
C478 C479 1.400 . S
C479 C478 1.400 . S
C479 C480 1.398 . S
C479 C485 1.491 . S
C480 H471 0.950 . S
C480 C479 1.398 . S
C480 C481 1.391 . S
C481 H469 0.950 . S
C481 C477 1.393 . S
C481 C480 1.391 . S
C482 H472 0.950 . S
C482 C483 1.386 . S
C482 C484 1.391 . S
C483 C482 1.386 . S
C483 C487 1.393 . S
C484 H473 0.950 . S
C484 C482 1.391 . S
C484 C485 1.400 . S
C485 C479 1.491 . S
C485 C484 1.400 . S
C485 C486 1.398 . S
C486 H474 0.950 . S
C486 C485 1.398 . S
C486 C487 1.391 . S
C487 H475 0.950 . S
C487 C483 1.393 . S
C487 C486 1.391 . S
H488 C496 0.950 . S
H489 C501 0.950 . S
H490 C498 0.950 . S
H491 C500 0.950 . S
H492 C502 0.950 . S
H493 C504 0.950 . S
H494 C506 0.950 . S
H495 C507 0.950 . S
C496 H488 0.950 . S
C496 C497 1.386 . S
C496 C498 1.391 . S
C497 C496 1.386 . S
C497 C501 1.393 . S
C498 H490 0.950 . S
C498 C496 1.391 . S
C498 C499 1.400 . S
C499 C498 1.400 . S
C499 C500 1.398 . S
C499 C505 1.491 . S
C500 H491 0.950 . S
C500 C499 1.398 . S
C500 C501 1.391 . S
C501 H489 0.950 . S
C501 C497 1.393 . S
C501 C500 1.391 . S
C502 H492 0.950 . S
C502 C503 1.386 . S
C502 C504 1.391 . S
C503 C502 1.386 . S
C503 C507 1.393 . S
C504 H493 0.950 . S
C504 C502 1.391 . S
C504 C505 1.400 . S
C505 C499 1.491 . S
C505 C504 1.400 . S
C505 C506 1.398 . S
C506 H494 0.950 . S
C506 C505 1.398 . S
C506 C507 1.391 . S
C507 H495 0.950 . S
C507 C503 1.393 . S
C507 C506 1.391 . S
H508 C516 0.950 . S
H509 C521 0.950 . S
H510 C518 0.950 . S
H511 C520 0.950 . S
H512 C522 0.950 . S
H513 C524 0.950 . S
H514 C526 0.950 . S
H515 C527 0.950 . S
C516 H508 0.950 . S
C516 C517 1.386 . S
C516 C518 1.391 . S
C517 C516 1.386 . S
C517 C521 1.393 . S
C518 H510 0.950 . S
C518 C516 1.391 . S
C518 C519 1.400 . S
C519 C518 1.400 . S
C519 C520 1.398 . S
C519 C525 1.491 . S
C520 H511 0.950 . S
C520 C519 1.398 . S
C520 C521 1.391 . S
C521 H509 0.950 . S
C521 C517 1.393 . S
C521 C520 1.391 . S
C522 H512 0.950 . S
C522 C523 1.386 . S
C522 C524 1.391 . S
C523 C522 1.386 . S
C523 C527 1.393 . S
C524 H513 0.950 . S
C524 C522 1.391 . S
C524 C525 1.400 . S
C525 C519 1.491 . S
C525 C524 1.400 . S
C525 C526 1.398 . S
C526 H514 0.950 . S
C526 C525 1.398 . S
C526 C527 1.391 . S
C527 H515 0.950 . S
C527 C523 1.393 . S
C527 C526 1.391 . S
H528 C536 0.950 . S
H529 C541 0.950 . S
H530 C538 0.950 . S
H531 C540 0.950 . S
H532 C542 0.950 . S
H533 C544 0.950 . S
H534 C546 0.950 . S
H535 C547 0.950 . S
C536 H528 0.950 . S
C536 C537 1.386 . S
C536 C538 1.391 . S
C537 C536 1.386 . S
C537 C541 1.393 . S
C538 H530 0.950 . S
C538 C536 1.391 . S
C538 C539 1.400 . S
C539 C538 1.400 . S
C539 C540 1.398 . S
C539 C545 1.491 . S
C540 H531 0.950 . S
C540 C539 1.398 . S
C540 C541 1.391 . S
C541 H529 0.950 . S
C541 C537 1.393 . S
C541 C540 1.391 . S
C542 H532 0.950 . S
C542 C543 1.386 . S
C542 C544 1.391 . S
C543 C542 1.386 . S
C543 C547 1.393 . S
C544 H533 0.950 . S
C544 C542 1.391 . S
C544 C545 1.400 . S
C545 C539 1.491 . S
C545 C544 1.400 . S
C545 C546 1.398 . S
C546 H534 0.950 . S
C546 C545 1.398 . S
C546 C547 1.391 . S
C547 H535 0.950 . S
C547 C543 1.393 . S
C547 C546 1.391 . S
H548 C556 0.950 . S
H549 C561 0.950 . S
H550 C558 0.950 . S
H551 C560 0.950 . S
H552 C562 0.950 . S
H553 C564 0.950 . S
H554 C566 0.950 . S
H555 C567 0.950 . S
C556 H548 0.950 . S
C556 C557 1.386 . S
C556 C558 1.391 . S
C557 C556 1.386 . S
C557 C561 1.393 . S
C558 H550 0.950 . S
C558 C556 1.391 . S
C558 C559 1.400 . S
C559 C558 1.400 . S
C559 C560 1.398 . S
C559 C565 1.491 . S
C560 H551 0.950 . S
C560 C559 1.398 . S
C560 C561 1.391 . S
C561 H549 0.950 . S
C561 C557 1.393 . S
C561 C560 1.391 . S
C562 H552 0.950 . S
C562 C563 1.386 . S
C562 C564 1.391 . S
C563 C562 1.386 . S
C563 C567 1.393 . S
C564 H553 0.950 . S
C564 C562 1.391 . S
C564 C565 1.400 . S
C565 C559 1.491 . S
C565 C564 1.400 . S
C565 C566 1.398 . S
C566 H554 0.950 . S
C566 C565 1.398 . S
C566 C567 1.391 . S
C567 H555 0.950 . S
C567 C563 1.393 . S
C567 C566 1.391 . S
H568 C576 0.950 . S
H569 C581 0.950 . S
H570 C578 0.950 . S
H571 C580 0.950 . S
H572 C582 0.950 . S
H573 C584 0.950 . S
H574 C586 0.950 . S
H575 C587 0.950 . S
C576 H568 0.950 . S
C576 C577 1.386 . S
C576 C578 1.391 . S
C577 C576 1.386 . S
C577 C581 1.393 . S
C578 H570 0.950 . S
C578 C576 1.391 . S
C578 C579 1.400 . S
C579 C578 1.400 . S
C579 C580 1.398 . S
C579 C585 1.491 . S
C580 H571 0.950 . S
C580 C579 1.398 . S
C580 C581 1.391 . S
C581 H569 0.950 . S
C581 C577 1.393 . S
C581 C580 1.391 . S
C582 H572 0.950 . S
C582 C583 1.386 . S
C582 C584 1.391 . S
C583 C582 1.386 . S
C583 C587 1.393 . S
C584 H573 0.950 . S
C584 C582 1.391 . S
C584 C585 1.400 . S
C585 C579 1.491 . S
C585 C584 1.400 . S
C585 C586 1.398 . S
C586 H574 0.950 . S
C586 C585 1.398 . S
C586 C587 1.391 . S
C587 H575 0.950 . S
C587 C583 1.393 . S
C587 C586 1.391 . S
H588 C596 0.950 . S
H589 C601 0.950 . S
H590 C598 0.950 . S
H591 C600 0.950 . S
H592 C602 0.950 . S
H593 C604 0.950 . S
H594 C606 0.950 . S
H595 C607 0.950 . S
C596 H588 0.950 . S
C596 C597 1.386 . S
C596 C598 1.391 . S
C597 C596 1.386 . S
C597 C601 1.393 . S
C598 H590 0.950 . S
C598 C596 1.391 . S
C598 C599 1.400 . S
C599 C598 1.400 . S
C599 C600 1.398 . S
C599 C605 1.491 . S
C600 H591 0.950 . S
C600 C599 1.398 . S
C600 C601 1.391 . S
C601 H589 0.950 . S
C601 C597 1.393 . S
C601 C600 1.391 . S
C602 H592 0.950 . S
C602 C603 1.386 . S
C602 C604 1.391 . S
C603 C602 1.386 . S
C603 C607 1.393 . S
C604 H593 0.950 . S
C604 C602 1.391 . S
C604 C605 1.400 . S
C605 C599 1.491 . S
C605 C604 1.400 . S
C605 C606 1.398 . S
C606 H594 0.950 . S
C606 C605 1.398 . S
C606 C607 1.391 . S
C607 H595 0.950 . S
C607 C603 1.393 . S
C607 C606 1.391 . S
H608 C616 0.950 . S
H609 C621 0.950 . S
H610 C618 0.950 . S
H611 C620 0.950 . S
H612 C622 0.950 . S
H613 C624 0.950 . S
H614 C626 0.950 . S
H615 C627 0.950 . S
C616 H608 0.950 . S
C616 C617 1.386 . S
C616 C618 1.391 . S
C617 C616 1.386 . S
C617 C621 1.393 . S
C618 H610 0.950 . S
C618 C616 1.391 . S
C618 C619 1.400 . S
C619 C618 1.400 . S
C619 C620 1.398 . S
C619 C625 1.491 . S
C620 H611 0.950 . S
C620 C619 1.398 . S
C620 C621 1.391 . S
C621 H609 0.950 . S
C621 C617 1.393 . S
C621 C620 1.391 . S
C622 H612 0.950 . S
C622 C623 1.386 . S
C622 C624 1.391 . S
C623 C622 1.386 . S
C623 C627 1.393 . S
C624 H613 0.950 . S
C624 C622 1.391 . S
C624 C625 1.400 . S
C625 C619 1.491 . S
C625 C624 1.400 . S
C625 C626 1.398 . S
C626 H614 0.950 . S
C626 C625 1.398 . S
C626 C627 1.391 . S
C627 H615 0.950 . S
C627 C623 1.393 . S
C627 C626 1.391 . S
H628 C636 0.950 . S
H629 C641 0.950 . S
H630 C638 0.950 . S
H631 C640 0.950 . S
H632 C642 0.950 . S
H633 C644 0.950 . S
H634 C646 0.950 . S
H635 C647 0.950 . S
C636 H628 0.950 . S
C636 C637 1.386 . S
C636 C638 1.391 . S
C637 C636 1.386 . S
C637 C641 1.393 . S
C638 H630 0.950 . S
C638 C636 1.391 . S
C638 C639 1.400 . S
C639 C638 1.400 . S
C639 C640 1.398 . S
C639 C645 1.491 . S
C640 H631 0.950 . S
C640 C639 1.398 . S
C640 C641 1.391 . S
C641 H629 0.950 . S
C641 C637 1.393 . S
C641 C640 1.391 . S
C642 H632 0.950 . S
C642 C643 1.386 . S
C642 C644 1.391 . S
C643 C642 1.386 . S
C643 C647 1.393 . S
C644 H633 0.950 . S
C644 C642 1.391 . S
C644 C645 1.400 . S
C645 C639 1.491 . S
C645 C644 1.400 . S
C645 C646 1.398 . S
C646 H634 0.950 . S
C646 C645 1.398 . S
C646 C647 1.391 . S
C647 H635 0.950 . S
C647 C643 1.393 . S
C647 C646 1.391 . S
H648 C656 0.950 . S
H649 C661 0.950 . S
H650 C658 0.950 . S
H651 C660 0.950 . S
H652 C662 0.950 . S
H653 C664 0.950 . S
H654 C666 0.950 . S
H655 C667 0.950 . S
C656 H648 0.950 . S
C656 C657 1.386 . S
C656 C658 1.391 . S
C657 C656 1.386 . S
C657 C661 1.393 . S
C658 H650 0.950 . S
C658 C656 1.391 . S
C658 C659 1.400 . S
C659 C658 1.400 . S
C659 C660 1.398 . S
C659 C665 1.491 . S
C660 H651 0.950 . S
C660 C659 1.398 . S
C660 C661 1.391 . S
C661 H649 0.950 . S
C661 C657 1.393 . S
C661 C660 1.391 . S
C662 H652 0.950 . S
C662 C663 1.386 . S
C662 C664 1.391 . S
C663 C662 1.386 . S
C663 C667 1.393 . S
C664 H653 0.950 . S
C664 C662 1.391 . S
C664 C665 1.400 . S
C665 C659 1.491 . S
C665 C664 1.400 . S
C665 C666 1.398 . S
C666 H654 0.950 . S
C666 C665 1.398 . S
C666 C667 1.391 . S
C667 H655 0.950 . S
C667 C663 1.393 . S
C667 C666 1.391 . S
H668 C676 0.950 . S
H669 C681 0.950 . S
H670 C678 0.950 . S
H671 C680 0.950 . S
H672 C682 0.950 . S
H673 C684 0.950 . S
H674 C686 0.950 . S
H675 C687 0.950 . S
C676 H668 0.950 . S
C676 C677 1.386 . S
C676 C678 1.391 . S
C677 C676 1.386 . S
C677 C681 1.393 . S
C678 H670 0.950 . S
C678 C676 1.391 . S
C678 C679 1.400 . S
C679 C678 1.400 . S
C679 C680 1.398 . S
C679 C685 1.491 . S
C680 H671 0.950 . S
C680 C679 1.398 . S
C680 C681 1.391 . S
C681 H669 0.950 . S
C681 C677 1.393 . S
C681 C680 1.391 . S
C682 H672 0.950 . S
C682 C683 1.386 . S
C682 C684 1.391 . S
C683 C682 1.386 . S
C683 C687 1.393 . S
C684 H673 0.950 . S
C684 C682 1.391 . S
C684 C685 1.400 . S
C685 C679 1.491 . S
C685 C684 1.400 . S
C685 C686 1.398 . S
C686 H674 0.950 . S
C686 C685 1.398 . S
C686 C687 1.391 . S
C687 H675 0.950 . S
C687 C683 1.393 . S
C687 C686 1.391 . S
H688 C696 0.950 . S
H689 C701 0.950 . S
H690 C698 0.950 . S
H691 C700 0.950 . S
H692 C702 0.950 . S
H693 C704 0.950 . S
H694 C706 0.950 . S
H695 C707 0.950 . S
C696 H688 0.950 . S
C696 C697 1.386 . S
C696 C698 1.391 . S
C697 C696 1.386 . S
C697 C701 1.393 . S
C698 H690 0.950 . S
C698 C696 1.391 . S
C698 C699 1.400 . S
C699 C698 1.400 . S
C699 C700 1.398 . S
C699 C705 1.491 . S
C700 H691 0.950 . S
C700 C699 1.398 . S
C700 C701 1.391 . S
C701 H689 0.950 . S
C701 C697 1.393 . S
C701 C700 1.391 . S
C702 H692 0.950 . S
C702 C703 1.386 . S
C702 C704 1.391 . S
C703 C702 1.386 . S
C703 C707 1.393 . S
C704 H693 0.950 . S
C704 C702 1.391 . S
C704 C705 1.400 . S
C705 C699 1.491 . S
C705 C704 1.400 . S
C705 C706 1.398 . S
C706 H694 0.950 . S
C706 C705 1.398 . S
C706 C707 1.391 . S
C707 H695 0.950 . S
C707 C703 1.393 . S
C707 C706 1.391 . S
H708 C716 0.950 . S
H709 C721 0.950 . S
H710 C718 0.950 . S
H711 C720 0.950 . S
H712 C722 0.950 . S
H713 C724 0.950 . S
H714 C726 0.950 . S
H715 C727 0.950 . S
C716 H708 0.950 . S
C716 C717 1.386 . S
C716 C718 1.391 . S
C717 C716 1.386 . S
C717 C721 1.393 . S
C718 H710 0.950 . S
C718 C716 1.391 . S
C718 C719 1.400 . S
C719 C718 1.400 . S
C719 C720 1.398 . S
C719 C725 1.491 . S
C720 H711 0.950 . S
C720 C719 1.398 . S
C720 C721 1.391 . S
C721 H709 0.950 . S
C721 C717 1.393 . S
C721 C720 1.391 . S
C722 H712 0.950 . S
C722 C723 1.386 . S
C722 C724 1.391 . S
C723 C722 1.386 . S
C723 C727 1.393 . S
C724 H713 0.950 . S
C724 C722 1.391 . S
C724 C725 1.400 . S
C725 C719 1.491 . S
C725 C724 1.400 . S
C725 C726 1.398 . S
C726 H714 0.950 . S
C726 C725 1.398 . S
C726 C727 1.391 . S
C727 H715 0.950 . S
C727 C723 1.393 . S
C727 C726 1.391 . S
H728 C736 0.950 . S
H729 C741 0.950 . S
H730 C738 0.950 . S
H731 C740 0.950 . S
H732 C742 0.950 . S
H733 C744 0.950 . S
H734 C746 0.950 . S
H735 C747 0.950 . S
C736 H728 0.950 . S
C736 C737 1.386 . S
C736 C738 1.391 . S
C737 C736 1.386 . S
C737 C741 1.393 . S
C738 H730 0.950 . S
C738 C736 1.391 . S
C738 C739 1.400 . S
C739 C738 1.400 . S
C739 C740 1.398 . S
C739 C745 1.491 . S
C740 H731 0.950 . S
C740 C739 1.398 . S
C740 C741 1.391 . S
C741 H729 0.950 . S
C741 C737 1.393 . S
C741 C740 1.391 . S
C742 H732 0.950 . S
C742 C743 1.386 . S
C742 C744 1.391 . S
C743 C742 1.386 . S
C743 C747 1.393 . S
C744 H733 0.950 . S
C744 C742 1.391 . S
C744 C745 1.400 . S
C745 C739 1.491 . S
C745 C744 1.400 . S
C745 C746 1.398 . S
C746 H734 0.950 . S
C746 C745 1.398 . S
C746 C747 1.391 . S
C747 H735 0.950 . S
C747 C743 1.393 . S
C747 C746 1.391 . S
H748 C756 0.950 . S
H749 C761 0.950 . S
H750 C758 0.950 . S
H751 C760 0.950 . S
H752 C762 0.950 . S
H753 C764 0.950 . S
H754 C766 0.950 . S
H755 C767 0.950 . S
C756 H748 0.950 . S
C756 C757 1.386 . S
C756 C758 1.391 . S
C757 C756 1.386 . S
C757 C761 1.393 . S
C758 H750 0.950 . S
C758 C756 1.391 . S
C758 C759 1.400 . S
C759 C758 1.400 . S
C759 C760 1.398 . S
C759 C765 1.491 . S
C760 H751 0.950 . S
C760 C759 1.398 . S
C760 C761 1.391 . S
C761 H749 0.950 . S
C761 C757 1.393 . S
C761 C760 1.391 . S
C762 H752 0.950 . S
C762 C763 1.386 . S
C762 C764 1.391 . S
C763 C762 1.386 . S
C763 C767 1.393 . S
C764 H753 0.950 . S
C764 C762 1.391 . S
C764 C765 1.400 . S
C765 C759 1.491 . S
C765 C764 1.400 . S
C765 C766 1.398 . S
C766 H754 0.950 . S
C766 C765 1.398 . S
C766 C767 1.391 . S
C767 H755 0.950 . S
C767 C763 1.393 . S
C767 C766 1.391 . S
H768 C776 0.950 . S
H769 C781 0.950 . S
H770 C778 0.950 . S
H771 C780 0.950 . S
H772 C782 0.950 . S
H773 C784 0.950 . S
H774 C786 0.950 . S
H775 C787 0.950 . S
C776 H768 0.950 . S
C776 C777 1.386 . S
C776 C778 1.391 . S
C777 C776 1.386 . S
C777 C781 1.393 . S
C778 H770 0.950 . S
C778 C776 1.391 . S
C778 C779 1.400 . S
C779 C778 1.400 . S
C779 C780 1.398 . S
C779 C785 1.491 . S
C780 H771 0.950 . S
C780 C779 1.398 . S
C780 C781 1.391 . S
C781 H769 0.950 . S
C781 C777 1.393 . S
C781 C780 1.391 . S
C782 H772 0.950 . S
C782 C783 1.386 . S
C782 C784 1.391 . S
C783 C782 1.386 . S
C783 C787 1.393 . S
C784 H773 0.950 . S
C784 C782 1.391 . S
C784 C785 1.400 . S
C785 C779 1.491 . S
C785 C784 1.400 . S
C785 C786 1.398 . S
C786 H774 0.950 . S
C786 C785 1.398 . S
C786 C787 1.391 . S
C787 H775 0.950 . S
C787 C783 1.393 . S
C787 C786 1.391 . S
H788 C796 0.950 . S
H789 C801 0.950 . S
H790 C798 0.950 . S
H791 C800 0.950 . S
H792 C802 0.950 . S
H793 C804 0.950 . S
H794 C806 0.950 . S
H795 C807 0.950 . S
C796 H788 0.950 . S
C796 C797 1.386 . S
C796 C798 1.391 . S
C797 C796 1.386 . S
C797 C801 1.393 . S
C798 H790 0.950 . S
C798 C796 1.391 . S
C798 C799 1.400 . S
C799 C798 1.400 . S
C799 C800 1.398 . S
C799 C805 1.491 . S
C800 H791 0.950 . S
C800 C799 1.398 . S
C800 C801 1.391 . S
C801 H789 0.950 . S
C801 C797 1.393 . S
C801 C800 1.391 . S
C802 H792 0.950 . S
C802 C803 1.386 . S
C802 C804 1.391 . S
C803 C802 1.386 . S
C803 C807 1.393 . S
C804 H793 0.950 . S
C804 C802 1.391 . S
C804 C805 1.400 . S
C805 C799 1.491 . S
C805 C804 1.400 . S
C805 C806 1.398 . S
C806 H794 0.950 . S
C806 C805 1.398 . S
C806 C807 1.391 . S
C807 H795 0.950 . S
C807 C803 1.393 . S
C807 C806 1.391 . S
H808 C816 0.950 . S
H809 C821 0.950 . S
H810 C818 0.950 . S
H811 C820 0.950 . S
H812 C822 0.950 . S
H813 C824 0.950 . S
H814 C826 0.950 . S
H815 C827 0.950 . S
C816 H808 0.950 . S
C816 C817 1.386 . S
C816 C818 1.391 . S
C817 C816 1.386 . S
C817 C821 1.393 . S
C818 H810 0.950 . S
C818 C816 1.391 . S
C818 C819 1.400 . S
C819 C818 1.400 . S
C819 C820 1.398 . S
C819 C825 1.491 . S
C820 H811 0.950 . S
C820 C819 1.398 . S
C820 C821 1.391 . S
C821 H809 0.950 . S
C821 C817 1.393 . S
C821 C820 1.391 . S
C822 H812 0.950 . S
C822 C823 1.386 . S
C822 C824 1.391 . S
C823 C822 1.386 . S
C823 C827 1.393 . S
C824 H813 0.950 . S
C824 C822 1.391 . S
C824 C825 1.400 . S
C825 C819 1.491 . S
C825 C824 1.400 . S
C825 C826 1.398 . S
C826 H814 0.950 . S
C826 C825 1.398 . S
C826 C827 1.391 . S
C827 H815 0.950 . S
C827 C823 1.393 . S
C827 C826 1.391 . S
H828 C836 0.950 . S
H829 C841 0.950 . S
H830 C838 0.950 . S
H831 C840 0.950 . S
H832 C842 0.950 . S
H833 C844 0.950 . S
H834 C846 0.950 . S
H835 C847 0.950 . S
C836 H828 0.950 . S
C836 C837 1.386 . S
C836 C838 1.391 . S
C837 C836 1.386 . S
C837 C841 1.393 . S
C838 H830 0.950 . S
C838 C836 1.391 . S
C838 C839 1.400 . S
C839 C838 1.400 . S
C839 C840 1.398 . S
C839 C845 1.491 . S
C840 H831 0.950 . S
C840 C839 1.398 . S
C840 C841 1.391 . S
C841 H829 0.950 . S
C841 C837 1.393 . S
C841 C840 1.391 . S
C842 H832 0.950 . S
C842 C843 1.386 . S
C842 C844 1.391 . S
C843 C842 1.386 . S
C843 C847 1.393 . S
C844 H833 0.950 . S
C844 C842 1.391 . S
C844 C845 1.400 . S
C845 C839 1.491 . S
C845 C844 1.400 . S
C845 C846 1.398 . S
C846 H834 0.950 . S
C846 C845 1.398 . S
C846 C847 1.391 . S
C847 H835 0.950 . S
C847 C843 1.393 . S
C847 C846 1.391 . S
H848 C856 0.950 . S
H849 C861 0.950 . S
H850 C858 0.950 . S
H851 C860 0.950 . S
H852 C862 0.950 . S
H853 C864 0.950 . S
H854 C866 0.950 . S
H855 C867 0.950 . S
C856 H848 0.950 . S
C856 C857 1.386 . S
C856 C858 1.391 . S
C857 C856 1.386 . S
C857 C861 1.393 . S
C858 H850 0.950 . S
C858 C856 1.391 . S
C858 C859 1.400 . S
C859 C858 1.400 . S
C859 C860 1.398 . S
C859 C865 1.491 . S
C860 H851 0.950 . S
C860 C859 1.398 . S
C860 C861 1.391 . S
C861 H849 0.950 . S
C861 C857 1.393 . S
C861 C860 1.391 . S
C862 H852 0.950 . S
C862 C863 1.386 . S
C862 C864 1.391 . S
C863 C862 1.386 . S
C863 C867 1.393 . S
C864 H853 0.950 . S
C864 C862 1.391 . S
C864 C865 1.400 . S
C865 C859 1.491 . S
C865 C864 1.400 . S
C865 C866 1.398 . S
C866 H854 0.950 . S
C866 C865 1.398 . S
C866 C867 1.391 . S
C867 H855 0.950 . S
C867 C863 1.393 . S
C867 C866 1.391 . S
H868 C876 0.950 . S
H869 C881 0.950 . S
H870 C878 0.950 . S
H871 C880 0.950 . S
H872 C882 0.950 . S
H873 C884 0.950 . S
H874 C886 0.950 . S
H875 C887 0.950 . S
C876 H868 0.950 . S
C876 C877 1.386 . S
C876 C878 1.391 . S
C877 C876 1.386 . S
C877 C881 1.393 . S
C878 H870 0.950 . S
C878 C876 1.391 . S
C878 C879 1.400 . S
C879 C878 1.400 . S
C879 C880 1.398 . S
C879 C885 1.491 . S
C880 H871 0.950 . S
C880 C879 1.398 . S
C880 C881 1.391 . S
C881 H869 0.950 . S
C881 C877 1.393 . S
C881 C880 1.391 . S
C882 H872 0.950 . S
C882 C883 1.386 . S
C882 C884 1.391 . S
C883 C882 1.386 . S
C883 C887 1.393 . S
C884 H873 0.950 . S
C884 C882 1.391 . S
C884 C885 1.400 . S
C885 C879 1.491 . S
C885 C884 1.400 . S
C885 C886 1.398 . S
C886 H874 0.950 . S
C886 C885 1.398 . S
C886 C887 1.391 . S
C887 H875 0.950 . S
C887 C883 1.393 . S
C887 C886 1.391 . S
H888 C896 0.950 . S
H889 C901 0.950 . S
H890 C898 0.950 . S
H891 C900 0.950 . S
H892 C902 0.950 . S
H893 C904 0.950 . S
H894 C906 0.950 . S
H895 C907 0.950 . S
C896 H888 0.950 . S
C896 C897 1.386 . S
C896 C898 1.391 . S
C897 C896 1.386 . S
C897 C901 1.393 . S
C898 H890 0.950 . S
C898 C896 1.391 . S
C898 C899 1.400 . S
C899 C898 1.400 . S
C899 C900 1.398 . S
C899 C905 1.491 . S
C900 H891 0.950 . S
C900 C899 1.398 . S
C900 C901 1.391 . S
C901 H889 0.950 . S
C901 C897 1.393 . S
C901 C900 1.391 . S
C902 H892 0.950 . S
C902 C903 1.386 . S
C902 C904 1.391 . S
C903 C902 1.386 . S
C903 C907 1.393 . S
C904 H893 0.950 . S
C904 C902 1.391 . S
C904 C905 1.400 . S
C905 C899 1.491 . S
C905 C904 1.400 . S
C905 C906 1.398 . S
C906 H894 0.950 . S
C906 C905 1.398 . S
C906 C907 1.391 . S
C907 H895 0.950 . S
C907 C903 1.393 . S
C907 C906 1.391 . S
H908 C916 0.950 . S
H909 C921 0.950 . S
H910 C918 0.950 . S
H911 C920 0.950 . S
H912 C922 0.950 . S
H913 C924 0.950 . S
H914 C926 0.950 . S
H915 C927 0.950 . S
C916 H908 0.950 . S
C916 C917 1.386 . S
C916 C918 1.391 . S
C917 C916 1.386 . S
C917 C921 1.393 . S
C918 H910 0.950 . S
C918 C916 1.391 . S
C918 C919 1.400 . S
C919 C918 1.400 . S
C919 C920 1.398 . S
C919 C925 1.491 . S
C920 H911 0.950 . S
C920 C919 1.398 . S
C920 C921 1.391 . S
C921 H909 0.950 . S
C921 C917 1.393 . S
C921 C920 1.391 . S
C922 H912 0.950 . S
C922 C923 1.386 . S
C922 C924 1.391 . S
C923 C922 1.386 . S
C923 C927 1.393 . S
C924 H913 0.950 . S
C924 C922 1.391 . S
C924 C925 1.400 . S
C925 C919 1.491 . S
C925 C924 1.400 . S
C925 C926 1.398 . S
C926 H914 0.950 . S
C926 C925 1.398 . S
C926 C927 1.391 . S
C927 H915 0.950 . S
C927 C923 1.393 . S
C927 C926 1.391 . S
H928 C936 0.950 . S
H929 C941 0.950 . S
H930 C938 0.950 . S
H931 C940 0.950 . S
H932 C942 0.950 . S
H933 C944 0.950 . S
H934 C946 0.950 . S
H935 C947 0.950 . S
C936 H928 0.950 . S
C936 C937 1.386 . S
C936 C938 1.391 . S
C937 C936 1.386 . S
C937 C941 1.393 . S
C938 H930 0.950 . S
C938 C936 1.391 . S
C938 C939 1.400 . S
C939 C938 1.400 . S
C939 C940 1.398 . S
C939 C945 1.491 . S
C940 H931 0.950 . S
C940 C939 1.398 . S
C940 C941 1.391 . S
C941 H929 0.950 . S
C941 C937 1.393 . S
C941 C940 1.391 . S
C942 H932 0.950 . S
C942 C943 1.386 . S
C942 C944 1.391 . S
C943 C942 1.386 . S
C943 C947 1.393 . S
C944 H933 0.950 . S
C944 C942 1.391 . S
C944 C945 1.400 . S
C945 C939 1.491 . S
C945 C944 1.400 . S
C945 C946 1.398 . S
C946 H934 0.950 . S
C946 C945 1.398 . S
C946 C947 1.391 . S
C947 H935 0.950 . S
C947 C943 1.393 . S
C947 C946 1.391 . S
H948 C956 0.950 . S
H949 C961 0.950 . S
H950 C958 0.950 . S
H951 C960 0.950 . S
H952 C962 0.950 . S
H953 C964 0.950 . S
H954 C966 0.950 . S
H955 C967 0.950 . S
C956 H948 0.950 . S
C956 C957 1.386 . S
C956 C958 1.391 . S
C957 C956 1.386 . S
C957 C961 1.393 . S
C958 H950 0.950 . S
C958 C956 1.391 . S
C958 C959 1.400 . S
C959 C958 1.400 . S
C959 C960 1.398 . S
C959 C965 1.491 . S
C960 H951 0.950 . S
C960 C959 1.398 . S
C960 C961 1.391 . S
C961 H949 0.950 . S
C961 C957 1.393 . S
C961 C960 1.391 . S
C962 H952 0.950 . S
C962 C963 1.386 . S
C962 C964 1.391 . S
C963 C962 1.386 . S
C963 C967 1.393 . S
C964 H953 0.950 . S
C964 C962 1.391 . S
C964 C965 1.400 . S
C965 C959 1.491 . S
C965 C964 1.400 . S
C965 C966 1.398 . S
C966 H954 0.950 . S
C966 C965 1.398 . S
C966 C967 1.391 . S
C967 H955 0.950 . S
C967 C963 1.393 . S
C967 C966 1.391 . S
H968 C976 0.950 . S
H969 C981 0.950 . S
H970 C978 0.950 . S
H971 C980 0.950 . S
H972 C982 0.950 . S
H973 C984 0.950 . S
H974 C986 0.950 . S
H975 C987 0.950 . S
C976 H968 0.950 . S
C976 C977 1.386 . S
C976 C978 1.391 . S
C977 C976 1.386 . S
C977 C981 1.393 . S
C978 H970 0.950 . S
C978 C976 1.391 . S
C978 C979 1.400 . S
C979 C978 1.400 . S
C979 C980 1.398 . S
C979 C985 1.491 . S
C980 H971 0.950 . S
C980 C979 1.398 . S
C980 C981 1.391 . S
C981 H969 0.950 . S
C981 C977 1.393 . S
C981 C980 1.391 . S
C982 H972 0.950 . S
C982 C983 1.386 . S
C982 C984 1.391 . S
C983 C982 1.386 . S
C983 C987 1.393 . S
C984 H973 0.950 . S
C984 C982 1.391 . S
C984 C985 1.400 . S
C985 C979 1.491 . S
C985 C984 1.400 . S
C985 C986 1.398 . S
C986 H974 0.950 . S
C986 C985 1.398 . S
C986 C987 1.391 . S
C987 H975 0.950 . S
C987 C983 1.393 . S
C987 C986 1.391 . S
H988 C996 0.950 . S
H989 C1001 0.950 . S
H990 C998 0.950 . S
H991 C1000 0.950 . S
H992 C1002 0.950 . S
H993 C1004 0.950 . S
H994 C1006 0.950 . S
H995 C1007 0.950 . S
C996 H988 0.950 . S
C996 C997 1.386 . S
C996 C998 1.391 . S
C997 C996 1.386 . S
C997 C1001 1.393 . S
C998 H990 0.950 . S
C998 C996 1.391 . S
C998 C999 1.400 . S
C999 C998 1.400 . S
C999 C1000 1.398 . S
C999 C1005 1.491 . S
C1000 H991 0.950 . S
C1000 C999 1.398 . S
C1000 C1001 1.391 . S
C1001 H989 0.950 . S
C1001 C997 1.393 . S
C1001 C1000 1.391 . S
C1002 H992 0.950 . S
C1002 C1003 1.386 . S
C1002 C1004 1.391 . S
C1003 C1002 1.386 . S
C1003 C1007 1.393 . S
C1004 H993 0.950 . S
C1004 C1002 1.391 . S
C1004 C1005 1.400 . S
C1005 C999 1.491 . S
C1005 C1004 1.400 . S
C1005 C1006 1.398 . S
C1006 H994 0.950 . S
C1006 C1005 1.398 . S
C1006 C1007 1.391 . S
C1007 H995 0.950 . S
C1007 C1003 1.393 . S
C1007 C1006 1.391 . S
H1008 C1016 0.943 1_556 S
H1009 C1021 0.950 . S
H1010 C1018 0.949 . S
H1011 C1020 0.950 . S
H1012 C1022 0.950 . S
H1013 C1024 0.950 . S
H1014 C1026 0.950 . S
H1015 C1027 0.950 . S
C1016 H1008 0.943 1_554 S
C1016 C1017 1.390 . S
C1016 C1018 1.394 . S
C1017 C1016 1.390 . S
C1017 C1021 1.393 . S
C1018 H1010 0.949 . S
C1018 C1016 1.394 . S
C1018 C1019 1.400 . S
C1019 C1018 1.400 . S
C1019 C1020 1.398 . S
C1019 C1025 1.491 . S
C1020 H1011 0.950 . S
C1020 C1019 1.398 . S
C1020 C1021 1.391 . S
C1021 H1009 0.950 . S
C1021 C1017 1.393 . S
C1021 C1020 1.391 . S
C1022 H1012 0.950 . S
C1022 C1023 1.386 . S
C1022 C1024 1.391 . S
C1023 C1022 1.386 . S
C1023 C1027 1.393 . S
C1024 H1013 0.950 . S
C1024 C1022 1.391 . S
C1024 C1025 1.400 . S
C1025 C1019 1.491 . S
C1025 C1024 1.400 . S
C1025 C1026 1.398 . S
C1026 H1014 0.950 . S
C1026 C1025 1.398 . S
C1026 C1027 1.391 . S
C1027 H1015 0.950 . S
C1027 C1023 1.393 . S
C1027 C1026 1.391 . S
H1028 C1036 0.950 . S
H1029 C1041 0.950 . S
H1030 C1038 0.950 . S
H1031 C1040 0.950 . S
H1032 C1042 0.950 . S
H1033 C1044 0.950 . S
H1034 C1046 0.950 . S
H1035 C1047 0.950 . S
C1036 H1028 0.950 . S
C1036 C1037 1.386 . S
C1036 C1038 1.391 . S
C1037 C1036 1.386 . S
C1037 C1041 1.393 . S
C1038 H1030 0.950 . S
C1038 C1036 1.391 . S
C1038 C1039 1.400 . S
C1039 C1038 1.400 . S
C1039 C1040 1.398 . S
C1039 C1045 1.491 . S
C1040 H1031 0.950 . S
C1040 C1039 1.398 . S
C1040 C1041 1.391 . S
C1041 H1029 0.950 . S
C1041 C1037 1.393 . S
C1041 C1040 1.391 . S
C1042 H1032 0.950 . S
C1042 C1043 1.386 . S
C1042 C1044 1.391 . S
C1043 C1042 1.386 . S
C1043 C1047 1.393 . S
C1044 H1033 0.950 . S
C1044 C1042 1.391 . S
C1044 C1045 1.400 . S
C1045 C1039 1.491 . S
C1045 C1044 1.400 . S
C1045 C1046 1.398 . S
C1046 H1034 0.950 . S
C1046 C1045 1.398 . S
C1046 C1047 1.391 . S
C1047 H1035 0.950 . S
C1047 C1043 1.393 . S
C1047 C1046 1.391 . S
H1048 C1056 0.950 . S
H1049 C1061 0.950 . S
H1050 C1058 0.950 . S
H1051 C1060 0.950 . S
H1052 C1062 0.950 . S
H1053 C1064 0.950 . S
H1054 C1066 0.950 . S
H1055 C1067 0.950 . S
C1056 H1048 0.950 . S
C1056 C1057 1.386 . S
C1056 C1058 1.391 . S
C1057 C1056 1.386 . S
C1057 C1061 1.393 . S
C1058 H1050 0.950 . S
C1058 C1056 1.391 . S
C1058 C1059 1.400 . S
C1059 C1058 1.400 . S
C1059 C1060 1.398 . S
C1059 C1065 1.491 . S
C1060 H1051 0.950 . S
C1060 C1059 1.398 . S
C1060 C1061 1.391 . S
C1061 H1049 0.950 . S
C1061 C1057 1.393 . S
C1061 C1060 1.391 . S
C1062 H1052 0.950 . S
C1062 C1063 1.386 . S
C1062 C1064 1.391 . S
C1063 C1062 1.386 . S
C1063 C1067 1.393 . S
C1064 H1053 0.950 . S
C1064 C1062 1.391 . S
C1064 C1065 1.400 . S
C1065 C1059 1.491 . S
C1065 C1064 1.400 . S
C1065 C1066 1.398 . S
C1066 H1054 0.950 . S
C1066 C1065 1.398 . S
C1066 C1067 1.391 . S
C1067 H1055 0.950 . S
C1067 C1063 1.393 . S
C1067 C1066 1.391 . S
H1068 C1076 0.950 . S
H1069 C1081 0.950 . S
H1070 C1078 0.950 . S
H1071 C1080 0.950 . S
H1072 C1082 0.950 . S
H1073 C1084 0.950 . S
H1074 C1086 0.950 . S
H1075 C1087 0.950 . S
C1076 H1068 0.950 . S
C1076 C1077 1.386 . S
C1076 C1078 1.391 . S
C1077 C1076 1.386 . S
C1077 C1081 1.393 . S
C1078 H1070 0.950 . S
C1078 C1076 1.391 . S
C1078 C1079 1.400 . S
C1079 C1078 1.400 . S
C1079 C1080 1.398 . S
C1079 C1085 1.491 . S
C1080 H1071 0.950 . S
C1080 C1079 1.398 . S
C1080 C1081 1.391 . S
C1081 H1069 0.950 . S
C1081 C1077 1.393 . S
C1081 C1080 1.391 . S
C1082 H1072 0.950 . S
C1082 C1083 1.386 . S
C1082 C1084 1.391 . S
C1083 C1082 1.386 . S
C1083 C1087 1.393 . S
C1084 H1073 0.950 . S
C1084 C1082 1.391 . S
C1084 C1085 1.400 . S
C1085 C1079 1.491 . S
C1085 C1084 1.400 . S
C1085 C1086 1.398 . S
C1086 H1074 0.950 . S
C1086 C1085 1.398 . S
C1086 C1087 1.391 . S
C1087 H1075 0.950 . S
C1087 C1083 1.393 . S
C1087 C1086 1.391 . S
H1088 C1096 0.950 . S
H1089 C1101 0.950 . S
H1090 C1098 0.950 . S
H1091 C1100 0.950 . S
H1092 C1102 0.950 . S
H1093 C1104 0.950 . S
H1094 C1106 0.950 . S
H1095 C1107 0.950 . S
C1096 H1088 0.950 . S
C1096 C1097 1.386 . S
C1096 C1098 1.391 . S
C1097 C1096 1.386 . S
C1097 C1101 1.393 . S
C1098 H1090 0.950 . S
C1098 C1096 1.391 . S
C1098 C1099 1.400 . S
C1099 C1098 1.400 . S
C1099 C1100 1.398 . S
C1099 C1105 1.491 . S
C1100 H1091 0.950 . S
C1100 C1099 1.398 . S
C1100 C1101 1.391 . S
C1101 H1089 0.950 . S
C1101 C1097 1.393 . S
C1101 C1100 1.391 . S
C1102 H1092 0.950 . S
C1102 C1103 1.386 . S
C1102 C1104 1.391 . S
C1103 C1102 1.386 . S
C1103 C1107 1.393 . S
C1104 H1093 0.950 . S
C1104 C1102 1.391 . S
C1104 C1105 1.400 . S
C1105 C1099 1.491 . S
C1105 C1104 1.400 . S
C1105 C1106 1.398 . S
C1106 H1094 0.950 . S
C1106 C1105 1.398 . S
C1106 C1107 1.391 . S
C1107 H1095 0.950 . S
C1107 C1103 1.393 . S
C1107 C1106 1.391 . S
H1108 C1116 0.950 . S
H1109 C1121 0.950 . S
H1110 C1118 0.950 . S
H1111 C1120 0.950 . S
H1112 C1122 0.950 . S
H1113 C1124 0.950 . S
H1114 C1126 0.950 . S
H1115 C1127 0.950 . S
C1116 H1108 0.950 . S
C1116 C1117 1.386 . S
C1116 C1118 1.391 . S
C1117 C1116 1.386 . S
C1117 C1121 1.393 . S
C1118 H1110 0.950 . S
C1118 C1116 1.391 . S
C1118 C1119 1.400 . S
C1119 C1118 1.400 . S
C1119 C1120 1.398 . S
C1119 C1125 1.491 . S
C1120 H1111 0.950 . S
C1120 C1119 1.398 . S
C1120 C1121 1.391 . S
C1121 H1109 0.950 . S
C1121 C1117 1.393 . S
C1121 C1120 1.391 . S
C1122 H1112 0.950 . S
C1122 C1123 1.386 . S
C1122 C1124 1.391 . S
C1123 C1122 1.386 . S
C1123 C1127 1.393 . S
C1124 H1113 0.950 . S
C1124 C1122 1.391 . S
C1124 C1125 1.400 . S
C1125 C1119 1.491 . S
C1125 C1124 1.400 . S
C1125 C1126 1.398 . S
C1126 H1114 0.950 . S
C1126 C1125 1.398 . S
C1126 C1127 1.391 . S
C1127 H1115 0.950 . S
C1127 C1123 1.393 . S
C1127 C1126 1.391 . S
H1128 C1136 0.950 . S
H1129 C1141 0.950 . S
H1130 C1138 0.950 . S
H1131 C1140 0.950 . S
H1132 C1142 0.950 . S
H1133 C1144 0.950 . S
H1134 C1146 0.950 . S
H1135 C1147 0.950 . S
C1136 H1128 0.950 . S
C1136 C1137 1.386 . S
C1136 C1138 1.391 . S
C1137 C1136 1.386 . S
C1137 C1141 1.393 . S
C1138 H1130 0.950 . S
C1138 C1136 1.391 . S
C1138 C1139 1.400 . S
C1139 C1138 1.400 . S
C1139 C1140 1.398 . S
C1139 C1145 1.491 . S
C1140 H1131 0.950 . S
C1140 C1139 1.398 . S
C1140 C1141 1.391 . S
C1141 H1129 0.950 . S
C1141 C1137 1.393 . S
C1141 C1140 1.391 . S
C1142 H1132 0.950 . S
C1142 C1143 1.386 . S
C1142 C1144 1.391 . S
C1143 C1142 1.386 . S
C1143 C1147 1.393 . S
C1144 H1133 0.950 . S
C1144 C1142 1.391 . S
C1144 C1145 1.400 . S
C1145 C1139 1.491 . S
C1145 C1144 1.400 . S
C1145 C1146 1.398 . S
C1146 H1134 0.950 . S
C1146 C1145 1.398 . S
C1146 C1147 1.391 . S
C1147 H1135 0.950 . S
C1147 C1143 1.393 . S
C1147 C1146 1.391 . S
H1148 C1156 0.950 . S
H1149 C1161 0.950 . S
H1150 C1158 0.950 . S
H1151 C1160 0.950 . S
H1152 C1162 0.950 . S
H1153 C1164 0.950 . S
H1154 C1166 0.950 . S
H1155 C1167 0.950 . S
C1156 H1148 0.950 . S
C1156 C1157 1.386 . S
C1156 C1158 1.391 . S
C1157 C1156 1.386 . S
C1157 C1161 1.393 . S
C1158 H1150 0.950 . S
C1158 C1156 1.391 . S
C1158 C1159 1.400 . S
C1159 C1158 1.400 . S
C1159 C1160 1.398 . S
C1159 C1165 1.491 . S
C1160 H1151 0.950 . S
C1160 C1159 1.398 . S
C1160 C1161 1.391 . S
C1161 H1149 0.950 . S
C1161 C1157 1.393 . S
C1161 C1160 1.391 . S
C1162 H1152 0.950 . S
C1162 C1163 1.386 . S
C1162 C1164 1.391 . S
C1163 C1162 1.386 . S
C1163 C1167 1.393 . S
C1164 H1153 0.950 . S
C1164 C1162 1.391 . S
C1164 C1165 1.400 . S
C1165 C1159 1.491 . S
C1165 C1164 1.400 . S
C1165 C1166 1.398 . S
C1166 H1154 0.950 . S
C1166 C1165 1.398 . S
C1166 C1167 1.391 . S
C1167 H1155 0.950 . S
C1167 C1163 1.393 . S
C1167 C1166 1.391 . S
H1168 C1176 0.950 . S
H1169 C1181 0.950 . S
H1170 C1178 0.950 . S
H1171 C1180 0.950 . S
H1172 C1182 0.950 . S
H1173 C1184 0.950 . S
H1174 C1186 0.950 . S
H1175 C1187 0.950 . S
C1176 H1168 0.950 . S
C1176 C1177 1.386 . S
C1176 C1178 1.391 . S
C1177 C1176 1.386 . S
C1177 C1181 1.393 . S
C1178 H1170 0.950 . S
C1178 C1176 1.391 . S
C1178 C1179 1.400 . S
C1179 C1178 1.400 . S
C1179 C1180 1.398 . S
C1179 C1185 1.491 . S
C1180 H1171 0.950 . S
C1180 C1179 1.398 . S
C1180 C1181 1.391 . S
C1181 H1169 0.950 . S
C1181 C1177 1.393 . S
C1181 C1180 1.391 . S
C1182 H1172 0.950 . S
C1182 C1183 1.386 . S
C1182 C1184 1.391 . S
C1183 C1182 1.386 . S
C1183 C1187 1.393 . S
C1184 H1173 0.950 . S
C1184 C1182 1.391 . S
C1184 C1185 1.400 . S
C1185 C1179 1.491 . S
C1185 C1184 1.400 . S
C1185 C1186 1.398 . S
C1186 H1174 0.950 . S
C1186 C1185 1.398 . S
C1186 C1187 1.391 . S
C1187 H1175 0.950 . S
C1187 C1183 1.393 . S
C1187 C1186 1.391 . S
H1188 C1196 0.950 . S
H1189 C1201 0.950 . S
H1190 C1198 0.950 . S
H1191 C1200 0.950 . S
H1192 C1202 0.950 . S
H1193 C1204 0.950 . S
H1194 C1206 0.950 . S
H1195 C1207 0.950 . S
C1196 H1188 0.950 . S
C1196 C1197 1.386 . S
C1196 C1198 1.391 . S
C1197 C1196 1.386 . S
C1197 C1201 1.393 . S
C1198 H1190 0.950 . S
C1198 C1196 1.391 . S
C1198 C1199 1.400 . S
C1199 C1198 1.400 . S
C1199 C1200 1.398 . S
C1199 C1205 1.491 . S
C1200 H1191 0.950 . S
C1200 C1199 1.398 . S
C1200 C1201 1.391 . S
C1201 H1189 0.950 . S
C1201 C1197 1.393 . S
C1201 C1200 1.391 . S
C1202 H1192 0.950 . S
C1202 C1203 1.386 . S
C1202 C1204 1.391 . S
C1203 C1202 1.386 . S
C1203 C1207 1.393 . S
C1204 H1193 0.950 . S
C1204 C1202 1.391 . S
C1204 C1205 1.400 . S
C1205 C1199 1.491 . S
C1205 C1204 1.400 . S
C1205 C1206 1.398 . S
C1206 H1194 0.950 . S
C1206 C1205 1.398 . S
C1206 C1207 1.391 . S
C1207 H1195 0.950 . S
C1207 C1203 1.393 . S
C1207 C1206 1.391 . S
H1208 C1216 0.950 . S
H1209 C1221 0.950 . S
H1210 C1218 0.950 . S
H1211 C1220 0.950 . S
H1212 C1222 0.950 . S
H1213 C1224 0.950 . S
H1214 C1226 0.950 . S
H1215 C1227 0.950 . S
C1216 H1208 0.950 . S
C1216 C1217 1.386 . S
C1216 C1218 1.391 . S
C1217 C1216 1.386 . S
C1217 C1221 1.393 . S
C1218 H1210 0.950 . S
C1218 C1216 1.391 . S
C1218 C1219 1.400 . S
C1219 C1218 1.400 . S
C1219 C1220 1.398 . S
C1219 C1225 1.491 . S
C1220 H1211 0.950 . S
C1220 C1219 1.398 . S
C1220 C1221 1.391 . S
C1221 H1209 0.950 . S
C1221 C1217 1.393 . S
C1221 C1220 1.391 . S
C1222 H1212 0.950 . S
C1222 C1223 1.386 . S
C1222 C1224 1.391 . S
C1223 C1222 1.386 . S
C1223 C1227 1.393 . S
C1224 H1213 0.950 . S
C1224 C1222 1.391 . S
C1224 C1225 1.400 . S
C1225 C1219 1.491 . S
C1225 C1224 1.400 . S
C1225 C1226 1.398 . S
C1226 H1214 0.950 . S
C1226 C1225 1.398 . S
C1226 C1227 1.391 . S
C1227 H1215 0.950 . S
C1227 C1223 1.393 . S
C1227 C1226 1.391 . S
H1228 C1236 0.950 . S
H1229 C1241 0.950 . S
H1230 C1238 0.950 . S
H1231 C1240 0.950 . S
H1232 C1242 0.950 . S
H1233 C1244 0.950 . S
H1234 C1246 0.950 . S
H1235 C1247 0.950 . S
C1236 H1228 0.950 . S
C1236 C1237 1.386 . S
C1236 C1238 1.391 . S
C1237 C1236 1.386 . S
C1237 C1241 1.393 . S
C1238 H1230 0.950 . S
C1238 C1236 1.391 . S
C1238 C1239 1.400 . S
C1239 C1238 1.400 . S
C1239 C1240 1.398 . S
C1239 C1245 1.491 . S
C1240 H1231 0.950 . S
C1240 C1239 1.398 . S
C1240 C1241 1.391 . S
C1241 H1229 0.950 . S
C1241 C1237 1.393 . S
C1241 C1240 1.391 . S
C1242 H1232 0.950 . S
C1242 C1243 1.386 . S
C1242 C1244 1.391 . S
C1243 C1242 1.386 . S
C1243 C1247 1.393 . S
C1244 H1233 0.950 . S
C1244 C1242 1.391 . S
C1244 C1245 1.400 . S
C1245 C1239 1.491 . S
C1245 C1244 1.400 . S
C1245 C1246 1.398 . S
C1246 H1234 0.950 . S
C1246 C1245 1.398 . S
C1246 C1247 1.391 . S
C1247 H1235 0.950 . S
C1247 C1243 1.393 . S
C1247 C1246 1.391 . S
C417 C28 1.834 . S
C423 C300 1.831 . S
C437 C40 1.832 . S
C443 C312 1.833 . S
C457 C368 1.832 . S
C463 C96 1.833 . S
C477 C108 1.831 . S
C483 C380 1.834 . S
C497 C164 1.834 . S
C503 C232 1.832 . S
C517 C176 1.834 . S
C523 C244 1.831 . S
C537 C171 1.300 . S
C543 C6 1.327 . S
C557 C62 1.329 . S
C563 C3 1.294 . S
C577 C74 1.331 . S
C583 C35 1.304 . S
C597 C71 1.307 . S
C603 C130 1.330 . S
C617 C103 1.304 . S
C623 C142 1.329 . S
C637 C139 1.305 . S
C643 C198 1.331 . S
C657 C210 1.330 . S
C663 C239 1.307 . S
C677 C275 1.300 . S
C683 C266 1.327 . S
C697 C307 1.300 . S
C703 C278 1.330 . S
C717 C343 1.306 . S
C723 C334 1.329 . S
C737 C375 1.282 . S
C743 C346 1.326 . S
C757 C402 1.329 . S
C763 C207 1.290 . S
C777 C17 1.549 . S
C783 C221 1.541 . S
C797 C51 1.548 . S
C803 C255 1.546 . S
C817 C289 1.541 . S
C823 C85 1.546 . S
C837 C323 1.549 . S
C843 C119 1.540 . S
C857 C153 1.541 . S
C863 C357 1.544 . S
C877 C187 1.540 . S
C883 C391 1.549 . S
C897 C273 2.906 1_545 S
C903 C1 2.903 . S
C917 C309 2.912 . S
C923 C37 2.916 1_455 S
C937 C341 2.903 1_655 S
C943 C69 2.904 1_545 S
C957 C105 2.903 . S
C963 C377 2.904 1_565 S
C977 C205 2.906 . S
C983 C137 2.913 1_655 S
C997 C241 2.903 1_455 S
C1003 C173 2.908 1_565 S
C1017 C260 0.516 . S
C1023 C22 0.633 . S
C1037 C287 0.538 . S
C1043 C49 0.675 . S
C1057 C328 0.529 . S
C1063 C90 0.703 . S
C1077 C355 0.532 . S
C1083 C117 0.660 . S
C1097 C396 0.535 . S
C1103 C158 0.668 . S
C1117 C219 0.485 . S
C1123 C185 0.620 . S
C1137 C226 0.705 . S
C1143 C192 0.543 . S
C1157 C253 0.654 . S
C1163 C15 0.495 . S
C1177 C56 0.539 . S
C1183 C294 0.707 . S
C1197 C83 0.543 . S
C1203 C321 0.692 . S
C1217 C362 0.688 . S
C1223 C124 0.542 . S
C1237 C151 0.504 . S
C1243 C389 0.618 . S
