# Generated by pormake.
# Topology wiv, (6)-cn, num edge types: 1
# Building blocks:
#     Node 0, Type 0, BuildingBlock: CUWYAW_clean_sbu_0, # of connection points: 6
#     Node 1, Type 0, BuildingBlock: CUWYAW_clean_sbu_0, # of connection points: 6
#     Node 2, Type 0, BuildingBlock: CUWYAW_clean_sbu_0, # of connection points: 6
#     Node 3, Type 0, BuildingBlock: CUWYAW_clean_sbu_0, # of connection points: 6
#     Node 4, Type 0, BuildingBlock: CUWYAW_clean_sbu_0, # of connection points: 6
#     Node 5, Type 0, BuildingBlock: CUWYAW_clean_sbu_0, # of connection points: 6
#     Node 6, Type 0, BuildingBlock: CUWYAW_clean_sbu_0, # of connection points: 6
#     Node 7, Type 0, BuildingBlock: CUWYAW_clean_sbu_0, # of connection points: 6
#     Node 8, Type 0, BuildingBlock: CUWYAW_clean_sbu_0, # of connection points: 6
#     Node 9, Type 0, BuildingBlock: CUWYAW_clean_sbu_0, # of connection points: 6
#     Node 10, Type 0, BuildingBlock: CUWYAW_clean_sbu_0, # of connection points: 6
#     Node 11, Type 0, BuildingBlock: CUWYAW_clean_sbu_0, # of connection points: 6
#     Node 12, Type 0, BuildingBlock: CUWYAW_clean_sbu_0, # of connection points: 6
#     Node 13, Type 0, BuildingBlock: CUWYAW_clean_sbu_0, # of connection points: 6
#     Node 14, Type 0, BuildingBlock: CUWYAW_clean_sbu_0, # of connection points: 6
#     Node 15, Type 0, BuildingBlock: CUWYAW_clean_sbu_0, # of connection points: 6
#     Edge 16, Type (0, 0), BuildingBlock: XUDNAN_clean_linker_2, # of connection points: 2
#     Edge 17, Type (0, 0), BuildingBlock: XUDNAN_clean_linker_2, # of connection points: 2
#     Edge 18, Type (0, 0), BuildingBlock: XUDNAN_clean_linker_2, # of connection points: 2
#     Edge 19, Type (0, 0), BuildingBlock: XUDNAN_clean_linker_2, # of connection points: 2
#     Edge 20, Type (0, 0), BuildingBlock: XUDNAN_clean_linker_2, # of connection points: 2
#     Edge 21, Type (0, 0), BuildingBlock: XUDNAN_clean_linker_2, # of connection points: 2
#     Edge 22, Type (0, 0), BuildingBlock: XUDNAN_clean_linker_2, # of connection points: 2
#     Edge 23, Type (0, 0), BuildingBlock: XUDNAN_clean_linker_2, # of connection points: 2
#     Edge 24, Type (0, 0), BuildingBlock: XUDNAN_clean_linker_2, # of connection points: 2
#     Edge 25, Type (0, 0), BuildingBlock: XUDNAN_clean_linker_2, # of connection points: 2
#     Edge 26, Type (0, 0), BuildingBlock: XUDNAN_clean_linker_2, # of connection points: 2
#     Edge 27, Type (0, 0), BuildingBlock: XUDNAN_clean_linker_2, # of connection points: 2
#     Edge 28, Type (0, 0), BuildingBlock: XUDNAN_clean_linker_2, # of connection points: 2
#     Edge 29, Type (0, 0), BuildingBlock: XUDNAN_clean_linker_2, # of connection points: 2
#     Edge 30, Type (0, 0), BuildingBlock: XUDNAN_clean_linker_2, # of connection points: 2
#     Edge 31, Type (0, 0), BuildingBlock: XUDNAN_clean_linker_2, # of connection points: 2
#     Edge 32, Type (0, 0), BuildingBlock: XUDNAN_clean_linker_2, # of connection points: 2
#     Edge 33, Type (0, 0), BuildingBlock: XUDNAN_clean_linker_2, # of connection points: 2
#     Edge 34, Type (0, 0), BuildingBlock: XUDNAN_clean_linker_2, # of connection points: 2
#     Edge 35, Type (0, 0), BuildingBlock: XUDNAN_clean_linker_2, # of connection points: 2
#     Edge 36, Type (0, 0), BuildingBlock: XUDNAN_clean_linker_2, # of connection points: 2
#     Edge 37, Type (0, 0), BuildingBlock: XUDNAN_clean_linker_2, # of connection points: 2
#     Edge 38, Type (0, 0), BuildingBlock: XUDNAN_clean_linker_2, # of connection points: 2
#     Edge 39, Type (0, 0), BuildingBlock: XUDNAN_clean_linker_2, # of connection points: 2
#     Edge 40, Type (0, 0), BuildingBlock: XUDNAN_clean_linker_2, # of connection points: 2
#     Edge 41, Type (0, 0), BuildingBlock: XUDNAN_clean_linker_2, # of connection points: 2
#     Edge 42, Type (0, 0), BuildingBlock: XUDNAN_clean_linker_2, # of connection points: 2
#     Edge 43, Type (0, 0), BuildingBlock: XUDNAN_clean_linker_2, # of connection points: 2
#     Edge 44, Type (0, 0), BuildingBlock: XUDNAN_clean_linker_2, # of connection points: 2
#     Edge 45, Type (0, 0), BuildingBlock: XUDNAN_clean_linker_2, # of connection points: 2
#     Edge 46, Type (0, 0), BuildingBlock: XUDNAN_clean_linker_2, # of connection points: 2
#     Edge 47, Type (0, 0), BuildingBlock: XUDNAN_clean_linker_2, # of connection points: 2
#     Edge 48, Type (0, 0), BuildingBlock: XUDNAN_clean_linker_2, # of connection points: 2
#     Edge 49, Type (0, 0), BuildingBlock: XUDNAN_clean_linker_2, # of connection points: 2
#     Edge 50, Type (0, 0), BuildingBlock: XUDNAN_clean_linker_2, # of connection points: 2
#     Edge 51, Type (0, 0), BuildingBlock: XUDNAN_clean_linker_2, # of connection points: 2
#     Edge 52, Type (0, 0), BuildingBlock: XUDNAN_clean_linker_2, # of connection points: 2
#     Edge 53, Type (0, 0), BuildingBlock: XUDNAN_clean_linker_2, # of connection points: 2
#     Edge 54, Type (0, 0), BuildingBlock: XUDNAN_clean_linker_2, # of connection points: 2
#     Edge 55, Type (0, 0), BuildingBlock: XUDNAN_clean_linker_2, # of connection points: 2
#     Edge 56, Type (0, 0), BuildingBlock: XUDNAN_clean_linker_2, # of connection points: 2
#     Edge 57, Type (0, 0), BuildingBlock: XUDNAN_clean_linker_2, # of connection points: 2
#     Edge 58, Type (0, 0), BuildingBlock: XUDNAN_clean_linker_2, # of connection points: 2
#     Edge 59, Type (0, 0), BuildingBlock: XUDNAN_clean_linker_2, # of connection points: 2
#     Edge 60, Type (0, 0), BuildingBlock: XUDNAN_clean_linker_2, # of connection points: 2
#     Edge 61, Type (0, 0), BuildingBlock: XUDNAN_clean_linker_2, # of connection points: 2
#     Edge 62, Type (0, 0), BuildingBlock: XUDNAN_clean_linker_2, # of connection points: 2
#     Edge 63, Type (0, 0), BuildingBlock: XUDNAN_clean_linker_2, # of connection points: 2
# Relax obj value: 0.130
# Max RMSD: 0.187
# Mean RMSD: 0.187
data_MOF--net-wiv--node1-CUWYAW_clean_sbu_0--edge1-XUDNAN_clean_linker_2
_symmetry_space_group_name_H-M    P1
_symmetry_Int_Tables_number       1
_symmetry_cell_setting            triclinic
loop_
_symmetry_equiv_pos_as_xyz
'x, y, z'
_cell_length_a     50.867818
_cell_length_b     51.111472
_cell_length_c     24.802521
_cell_angle_alpha  90.040556
_cell_angle_beta   90.070105
_cell_angle_gamma 89.911793
loop_
_atom_site_label
_atom_site_type_symbol
_atom_site_fract_x
_atom_site_fract_y
_atom_site_fract_z
_atom_type_partial_charge
C0 C 0.40363 0.1173 0.98004 0.0
Eu1 Eu 0.38117 0.10949 0.07305 0.0
C2 C 0.39639 0.1115 0.92332 0.0
C3 C 0.39143 0.08578 0.90596 0.0
C4 C 0.38337 0.08083 0.85296 0.0
C5 C 0.37984 0.10146 0.81603 0.0
C6 C 0.38508 0.12716 0.83341 0.0
C7 C 0.39332 0.13208 0.88636 0.0
C8 C 0.37617 0.06192 0.12178 0.0
C9 C 0.31809 0.10257 0.04808 0.0
C10 C 0.3207 0.10055 0.25735 0.0
Eu11 Eu 0.34421 0.109 0.16518 0.0
C12 C 0.32733 0.09825 0.31551 0.0
C13 C 0.33102 0.12054 0.34799 0.0
C14 C 0.33562 0.11803 0.40346 0.0
C15 C 0.33649 0.09319 0.42784 0.0
C16 C 0.33326 0.07093 0.39509 0.0
C17 C 0.32866 0.07343 0.33972 0.0
C18 C 0.35142 0.15781 0.12278 0.0
C19 C 0.40729 0.11743 0.18679 0.0
O20 O 0.38923 0.13493 1.00439 0.0
O21 O 0.40924 0.09744 1.01136 0.0
O22 O 0.39824 0.07098 0.10356 0.0
O23 O 0.35773 0.07769 0.11102 0.0
O24 O 0.34152 0.10919 0.02981 0.0
O25 O 0.31428 0.09862 0.1003 0.0
O26 O 0.32909 0.08196 0.22561 0.0
O27 O 0.32243 0.1236 0.23492 0.0
O28 O 0.32877 0.1483 0.13678 0.0
O29 O 0.36905 0.14078 0.1306 0.0
O30 O 0.38506 0.10739 0.20547 0.0
O31 O 0.40936 0.12444 0.13579 0.0
H32 H 0.39354 0.06942 0.93337 0.0
H33 H 0.37997 0.06075 0.84095 0.0
H34 H 0.38224 0.1436 0.8065 0.0
H35 H 0.39689 0.1521 0.89873 0.0
H36 H 0.32991 0.13999 0.33081 0.0
H37 H 0.33773 0.1356 0.4275 0.0
H38 H 0.3342 0.05147 0.41228 0.0
H39 H 0.3258 0.05587 0.31593 0.0
C40 C 0.10152 0.68624 0.78885 0.0
Eu41 Eu 0.11271 0.6634 0.88028 0.0
C42 C 0.1001 0.67952 0.73077 0.0
C43 C 0.12098 0.66706 0.7038 0.0
C44 C 0.1197 0.66259 0.64801 0.0
C45 C 0.09753 0.67047 0.61806 0.0
C46 C 0.07627 0.68195 0.64579 0.0
C47 C 0.07761 0.68649 0.70134 0.0
C48 C 0.1619 0.65543 0.92024 0.0
C49 C 0.12067 0.6003 0.85542 0.0
C50 C 0.12251 0.60317 0.0645 0.0
Eu51 Eu 0.11379 0.62553 0.97156 0.0
C52 C 0.11733 0.61088 0.12116 0.0
C53 C 0.09438 0.62463 0.13498 0.0
C54 C 0.09008 0.63279 0.18811 0.0
C55 C 0.10879 0.6278 0.22886 0.0
C56 C 0.13168 0.61379 0.21487 0.0
C57 C 0.13586 0.60542 0.16162 0.0
C58 C 0.06628 0.63085 0.92334 0.0
C59 C 0.10814 0.68893 0.99777 0.0
O60 O 0.08376 0.67579 0.82019 0.0
O61 O 0.12476 0.68696 0.81135 0.0
O62 O 0.15279 0.67805 0.90528 0.0
O63 O 0.14457 0.63801 0.91338 0.0
O64 O 0.11303 0.62364 0.83813 0.0
O65 O 0.12569 0.59623 0.90714 0.0
O66 O 0.14022 0.61695 0.03896 0.0
O67 O 0.10195 0.59819 0.03443 0.0
O68 O 0.0752 0.60884 0.94174 0.0
O69 O 0.08174 0.64939 0.93488 0.0
O70 O 0.11285 0.66503 1.01591 0.0
O71 O 0.10488 0.69333 0.9456 0.0
H72 H 0.1385 0.66122 0.72555 0.0
H73 H 0.13647 0.65379 0.62813 0.0
H74 H 0.05861 0.6877 0.62444 0.0
H75 H 0.06113 0.69584 0.72126 0.0
H76 H 0.0798 0.62929 0.10458 0.0
H77 H 0.07198 0.64306 0.19709 0.0
H78 H 0.14673 0.60987 0.24469 0.0
H79 H 0.15382 0.59502 0.15186 0.0
C80 C 0.60827 0.8888 0.97408 0.0
Eu81 Eu 0.6293 0.89611 0.06918 0.0
C82 C 0.61813 0.88512 0.91846 0.0
C83 C 0.60253 0.8929 0.87461 0.0
C84 C 0.6121 0.89109 0.82174 0.0
C85 C 0.6376 0.8815 0.8114 0.0
C86 C 0.65305 0.87348 0.85571 0.0
C87 C 0.64348 0.87536 0.90857 0.0
C88 C 0.6277 0.9421 0.12459 0.0
C89 C 0.69197 0.90105 0.04889 0.0
C90 C 0.69141 0.90916 0.25247 0.0
Eu91 Eu 0.66339 0.89788 0.16733 0.0
C92 C 0.68822 0.90516 0.3114 0.0
C93 C 0.70975 0.89697 0.34253 0.0
C94 C 0.70696 0.8924 0.39796 0.0
C95 C 0.68252 0.89595 0.42372 0.0
C96 C 0.66104 0.90454 0.39249 0.0
C97 C 0.66382 0.909 0.33696 0.0
C98 C 0.64758 0.84861 0.14266 0.0
C99 C 0.60107 0.88867 0.1821 0.0
O100 O 0.61245 0.86985 1.00865 0.0
O101 O 0.61251 0.91186 0.99504 0.0
O102 O 0.60739 0.93147 0.10193 0.0
O103 O 0.64818 0.92893 0.11473 0.0
O104 O 0.66831 0.90198 0.02763 0.0
O105 O 0.69536 0.8989 0.1019 0.0
O106 O 0.67521 0.92566 0.22942 0.0
O107 O 0.69532 0.88818 0.22324 0.0
O108 O 0.64923 0.85798 0.19107 0.0
O109 O 0.65479 0.86566 0.10841 0.0
O110 O 0.622 0.9004 0.20268 0.0
O111 O 0.60071 0.88067 0.13137 0.0
H112 H 0.58295 0.90059 0.88131 0.0
H113 H 0.59934 0.897 0.78895 0.0
H114 H 0.67278 0.86612 0.84983 0.0
H115 H 0.65602 0.86944 0.94173 0.0
H116 H 0.72876 0.89395 0.32387 0.0
H117 H 0.72403 0.88615 0.42072 0.0
H118 H 0.64188 0.90722 0.41067 0.0
H119 H 0.64679 0.91518 0.31398 0.0
C120 C 0.91059 0.31818 0.79009 0.0
Eu121 Eu 0.89973 0.33946 0.88324 0.0
C122 C 0.91165 0.32796 0.73395 0.0
C123 C 0.90007 0.31339 0.69228 0.0
C124 C 0.8995 0.32307 0.63944 0.0
C125 C 0.91052 0.3476 0.62713 0.0
C126 C 0.92265 0.36189 0.66891 0.0
C127 C 0.92314 0.35224 0.72169 0.0
C128 C 0.85032 0.34585 0.92342 0.0
C129 C 0.88961 0.40227 0.86241 0.0
C130 C 0.89122 0.40041 0.06688 0.0
Eu131 Eu 0.8983 0.37594 0.97558 0.0
C132 C 0.89491 0.39589 0.12539 0.0
C133 C 0.90774 0.41498 0.15628 0.0
C134 C 0.91017 0.41214 0.21212 0.0
C135 C 0.89964 0.39017 0.23864 0.0
C136 C 0.88747 0.37061 0.20737 0.0
C137 C 0.8851 0.37345 0.15131 0.0
C138 C 0.94596 0.37082 0.92655 0.0
C139 C 0.90396 0.31311 1.00036 0.0
O140 O 0.9285 0.32694 0.82339 0.0
O141 O 0.88731 0.3173 0.81216 0.0
O142 O 0.85997 0.3236 0.90748 0.0
O143 O 0.86729 0.36369 0.91753 0.0
O144 O 0.89997 0.38032 0.84332 0.0
O145 O 0.88282 0.40407 0.91356 0.0
O146 O 0.87284 0.38698 0.04242 0.0
O147 O 0.91247 0.40284 0.03772 0.0
O148 O 0.93606 0.39311 0.94108 0.0
O149 O 0.93061 0.35247 0.93906 0.0
O150 O 0.89739 0.33649 1.01866 0.0
O151 O 0.90869 0.30939 0.94832 0.0
H152 H 0.89099 0.29468 0.70082 0.0
H153 H 0.88973 0.31166 0.60859 0.0
H154 H 0.93174 0.38064 0.66093 0.0
H155 H 0.93224 0.36396 0.75296 0.0
H156 H 0.9156 0.43236 0.13724 0.0
H157 H 0.92018 0.42732 0.2346 0.0
H158 H 0.87902 0.3535 0.22634 0.0
H159 H 0.87515 0.35835 0.12849 0.0
C160 C 0.40094 0.38734 0.32535 0.0
Eu161 Eu 0.38029 0.39642 0.23092 0.0
C162 C 0.39077 0.38628 0.38165 0.0
C163 C 0.38842 0.4092 0.41281 0.0
C164 C 0.37857 0.40824 0.46549 0.0
C165 C 0.37088 0.38432 0.48864 0.0
C166 C 0.37344 0.36137 0.45762 0.0
C167 C 0.38332 0.36233 0.40493 0.0
C168 C 0.37758 0.44382 0.18029 0.0
C169 C 0.3171 0.40551 0.25321 0.0
C170 C 0.32119 0.42063 0.04384 0.0
Eu171 Eu 0.34169 0.4016 0.13181 0.0
C172 C 0.32128 0.414 0.98574 0.0
C173 C 0.3197 0.38798 0.96773 0.0
C174 C 0.32153 0.38216 0.91259 0.0
C175 C 0.32525 0.4022 0.87438 0.0
C176 C 0.32671 0.42822 0.89269 0.0
C177 C 0.32469 0.43403 0.94772 0.0
C178 C 0.34819 0.3498 0.15438 0.0
C179 C 0.40463 0.38591 0.11571 0.0
O180 O 0.39355 0.36869 0.29231 0.0
O181 O 0.40127 0.41031 0.30201 0.0
O182 O 0.39936 0.43384 0.1986 0.0
O183 O 0.35868 0.42873 0.19095 0.0
O184 O 0.34032 0.39796 0.27159 0.0
O185 O 0.3131 0.41049 0.20104 0.0
O186 O 0.34388 0.4281 0.0634 0.0
O187 O 0.30832 0.40511 0.07672 0.0
O188 O 0.33252 0.35868 0.11743 0.0
O189 O 0.35852 0.36892 0.17883 0.0
O190 O 0.38323 0.39731 0.09548 0.0
O191 O 0.40689 0.37995 0.16735 0.0
H192 H 0.39405 0.42801 0.39645 0.0
H193 H 0.37656 0.42636 0.48774 0.0
H194 H 0.3681 0.34254 0.47427 0.0
H195 H 0.38511 0.34425 0.3824 0.0
H196 H 0.31748 0.37211 0.99626 0.0
H197 H 0.32065 0.36189 0.9 0.0
H198 H 0.32928 0.44415 0.86442 0.0
H199 H 0.32615 0.45423 0.96073 0.0
C200 C 0.41973 0.67947 1.00437 0.0
Eu201 Eu 0.40525 0.65774 0.9137 0.0
C202 C 0.41869 0.67404 0.06258 0.0
C203 C 0.40175 0.655 0.08391 0.0
C204 C 0.40005 0.65136 0.13986 0.0
C205 C 0.41521 0.66677 0.1752 0.0
C206 C 0.43286 0.68507 0.15323 0.0
C207 C 0.43455 0.68865 0.09751 0.0
C208 C 0.35464 0.65294 0.87857 0.0
C209 C 0.39401 0.59502 0.93293 0.0
C210 C 0.38879 0.60036 0.72674 0.0
Eu211 Eu 0.4001 0.6225 0.81886 0.0
C212 C 0.39279 0.60769 0.66985 0.0
C213 C 0.41098 0.62719 0.65625 0.0
C214 C 0.41359 0.63537 0.6028 0.0
C215 C 0.39793 0.62441 0.56181 0.0
C216 C 0.38026 0.60432 0.57528 0.0
C217 C 0.37766 0.59609 0.62898 0.0
C218 C 0.44914 0.62537 0.8619 0.0
C219 C 0.40885 0.68549 0.79756 0.0
O220 O 0.43503 0.66439 0.97566 0.0
O221 O 0.39736 0.68439 0.98042 0.0
O222 O 0.36495 0.67459 0.89585 0.0
O223 O 0.37141 0.63475 0.8815 0.0
O224 O 0.40439 0.6168 0.95269 0.0
O225 O 0.38641 0.59374 0.88201 0.0
O226 O 0.37225 0.61502 0.75362 0.0
O227 O 0.41003 0.59512 0.75452 0.0
O228 O 0.43866 0.60379 0.84493 0.0
O229 O 0.43391 0.64443 0.85355 0.0
O230 O 0.40064 0.66281 0.77807 0.0
O231 O 0.41489 0.68784 0.84932 0.0
H232 H 0.38948 0.64337 0.05742 0.0
H233 H 0.38624 0.63717 0.15547 0.0
H234 H 0.4452 0.69687 0.17922 0.0
H235 H 0.44796 0.70319 0.08172 0.0
H236 H 0.42292 0.63636 0.68711 0.0
H237 H 0.42779 0.65044 0.59354 0.0
H238 H 0.36785 0.5956 0.54466 0.0
H239 H 0.36346 0.58105 0.63875 0.0
C240 C 0.60437 0.61916 0.31011 0.0
Eu241 Eu 0.62774 0.60915 0.21842 0.0
C242 C 0.61121 0.62007 0.36859 0.0
C243 C 0.62276 0.59867 0.39557 0.0
C244 C 0.62755 0.59966 0.45145 0.0
C245 C 0.6208 0.62201 0.48179 0.0
C246 C 0.61008 0.64364 0.45413 0.0
C247 C 0.6053 0.64263 0.39849 0.0
C248 C 0.63431 0.56109 0.17329 0.0
C249 C 0.69033 0.60196 0.25018 0.0
C250 C 0.68998 0.59756 0.03702 0.0
Eu251 Eu 0.6679 0.6074 0.1303 0.0
C252 C 0.68271 0.60292 0.97993 0.0
C253 C 0.67026 0.62639 0.96509 0.0
C254 C 0.66191 0.6305 0.91183 0.0
C255 C 0.66552 0.61115 0.87185 0.0
C256 C 0.67844 0.58783 0.88675 0.0
C257 C 0.68687 0.58377 0.94012 0.0
C258 C 0.65868 0.65701 0.16749 0.0
C259 C 0.60409 0.61489 0.10143 0.0
O260 O 0.61449 0.63731 0.27925 0.0
O261 O 0.60388 0.59626 0.28651 0.0
O262 O 0.61178 0.57014 0.18944 0.0
O263 O 0.65251 0.57708 0.18466 0.0
O264 O 0.66652 0.60988 0.2637 0.0
O265 O 0.69618 0.59677 0.19911 0.0
O266 O 0.67497 0.58095 0.06244 0.0
O267 O 0.6962 0.61759 0.06733 0.0
O268 O 0.6816 0.64756 0.15509 0.0
O269 O 0.64162 0.63937 0.15975 0.0
O270 O 0.62834 0.60906 0.08569 0.0
O271 O 0.59847 0.61856 0.15287 0.0
H272 H 0.62769 0.58098 0.37373 0.0
H273 H 0.63572 0.58257 0.4711 0.0
H274 H 0.60515 0.66144 0.47558 0.0
H275 H 0.59658 0.65948 0.37886 0.0
H276 H 0.66659 0.64147 0.99486 0.0
H277 H 0.65249 0.64891 0.90212 0.0
H278 H 0.68134 0.57232 0.8576 0.0
H279 H 0.69621 0.5654 0.95057 0.0
C280 C 0.60075 0.31871 1.01772 0.0
Eu281 Eu 0.60896 0.34084 0.92429 0.0
C282 C 0.59964 0.32833 0.07384 0.0
C283 C 0.61063 0.31338 0.1156 0.0
C284 C 0.61118 0.32303 0.16849 0.0
C285 C 0.60077 0.34789 0.18057 0.0
C286 C 0.58924 0.36254 0.13866 0.0
C287 C 0.58875 0.35291 0.08591 0.0
C288 C 0.65754 0.34723 0.88046 0.0
C289 C 0.61831 0.40377 0.94448 0.0
C290 C 0.61578 0.40167 0.74016 0.0
Eu291 Eu 0.60882 0.3773 0.8314 0.0
C292 C 0.61227 0.39702 0.68176 0.0
C293 C 0.60013 0.41634 0.65033 0.0
C294 C 0.59808 0.41339 0.59448 0.0
C295 C 0.60832 0.39106 0.56861 0.0
C296 C 0.61972 0.37125 0.60043 0.0
C297 C 0.6217 0.37421 0.65648 0.0
C298 C 0.56151 0.37213 0.88227 0.0
C299 C 0.60293 0.31442 0.80724 0.0
O300 O 0.58193 0.32639 0.98551 0.0
O301 O 0.62377 0.31957 0.99459 0.0
O302 O 0.64807 0.32493 0.89619 0.0
O303 O 0.64068 0.3651 0.88782 0.0
O304 O 0.60852 0.38173 0.9642 0.0
O305 O 0.62437 0.40563 0.89298 0.0
O306 O 0.63422 0.38833 0.7647 0.0
O307 O 0.59445 0.40401 0.76912 0.0
O308 O 0.57059 0.39424 0.86473 0.0
O309 O 0.57726 0.3539 0.87045 0.0
O310 O 0.60908 0.3378 0.78838 0.0
O311 O 0.59909 0.31076 0.8596 0.0
H312 H 0.61925 0.29442 0.10712 0.0
H313 H 0.62047 0.31134 0.19955 0.0
H314 H 0.58063 0.38156 0.14653 0.0
H315 H 0.58011 0.36487 0.05447 0.0
H316 H 0.59257 0.434 0.66895 0.0
H317 H 0.58867 0.42878 0.57146 0.0
H318 H 0.62791 0.35387 0.58192 0.0
H319 H 0.63111 0.35893 0.67979 0.0
C320 C 0.90582 0.612 0.48557 0.0
Eu321 Eu 0.88284 0.60453 0.57847 0.0
C322 C 0.89681 0.61516 0.42906 0.0
C323 C 0.91076 0.60318 0.38693 0.0
C324 C 0.9023 0.60574 0.33332 0.0
C325 C 0.87963 0.62037 0.32059 0.0
C326 C 0.86565 0.63222 0.36315 0.0
C327 C 0.8741 0.62964 0.41665 0.0
C328 C 0.8762 0.55716 0.62662 0.0
C329 C 0.81969 0.59985 0.55254 0.0
C330 C 0.82208 0.59571 0.76286 0.0
Eu331 Eu 0.84477 0.60455 0.67003 0.0
C332 C 0.82722 0.60142 0.8207 0.0
C333 C 0.80814 0.61458 0.85132 0.0
C334 C 0.81237 0.61985 0.9061 0.0
C335 C 0.83575 0.61192 0.9318 0.0
C336 C 0.85483 0.59861 0.90116 0.0
C337 C 0.85067 0.5935 0.84623 0.0
C338 C 0.85343 0.65331 0.62956 0.0
C339 C 0.90868 0.61188 0.69424 0.0
O340 O 0.90013 0.63092 0.51925 0.0
O341 O 0.90247 0.58888 0.50693 0.0
O342 O 0.8987 0.5657 0.60941 0.0
O343 O 0.85819 0.5734 0.61554 0.0
O344 O 0.84292 0.60825 0.53617 0.0
O345 O 0.81603 0.59335 0.6037 0.0
O346 O 0.83784 0.57914 0.739 0.0
O347 O 0.81601 0.61552 0.73185 0.0
O348 O 0.83066 0.64457 0.64468 0.0
O349 O 0.87062 0.63571 0.63642 0.0
O350 O 0.88475 0.60649 0.71231 0.0
O351 O 0.91333 0.61434 0.64201 0.0
H352 H 0.92831 0.59188 0.39549 0.0
H353 H 0.91383 0.59662 0.3018 0.0
H354 H 0.84796 0.64335 0.35528 0.0
H355 H 0.8628 0.63895 0.4483 0.0
H356 H 0.78984 0.62074 0.83284 0.0
H357 H 0.79713 0.62988 0.92854 0.0
H358 H 0.87318 0.5925 0.91945 0.0
H359 H 0.86586 0.58337 0.82384 0.0
C360 C 0.59668 0.1849 0.29757 0.0
Eu361 Eu 0.60616 0.16142 0.38954 0.0
C362 C 0.60033 0.18013 0.23869 0.0
C363 C 0.61448 0.19825 0.20769 0.0
C364 C 0.61676 0.19521 0.15169 0.0
C365 C 0.60481 0.17401 0.12481 0.0
C366 C 0.59118 0.15547 0.15614 0.0
C367 C 0.58891 0.15852 0.2123 0.0
C368 C 0.65527 0.152 0.42829 0.0
C369 C 0.61269 0.09763 0.3609 0.0
C370 C 0.61565 0.09888 0.5716 0.0
Eu371 Eu 0.60733 0.121 0.47809 0.0
C372 C 0.61617 0.10887 0.62808 0.0
C373 C 0.60293 0.09531 0.66915 0.0
C374 C 0.60206 0.10526 0.72199 0.0
C375 C 0.61436 0.12913 0.73513 0.0
C376 C 0.62796 0.14243 0.69392 0.0
C377 C 0.62884 0.13247 0.64124 0.0
C378 C 0.55947 0.12859 0.43204 0.0
C379 C 0.60163 0.18353 0.50927 0.0
O380 O 0.57958 0.17039 0.32296 0.0
O381 O 0.61771 0.18926 0.32657 0.0
O382 O 0.64637 0.17496 0.41522 0.0
O383 O 0.63773 0.13491 0.42014 0.0
O384 O 0.60656 0.12182 0.34554 0.0
O385 O 0.61702 0.09202 0.41224 0.0
O386 O 0.63456 0.10652 0.53944 0.0
O387 O 0.59275 0.09899 0.54761 0.0
O388 O 0.56807 0.10589 0.44772 0.0
O389 O 0.57581 0.14629 0.4442 0.0
O390 O 0.60986 0.15984 0.52212 0.0
O391 O 0.59572 0.18941 0.45858 0.0
H392 H 0.62351 0.21507 0.22675 0.0
H393 H 0.62788 0.20965 0.12941 0.0
H394 H 0.58153 0.13899 0.13713 0.0
H395 H 0.57779 0.14416 0.23484 0.0
H396 H 0.59288 0.07715 0.66015 0.0
H397 H 0.59113 0.09455 0.75219 0.0
H398 H 0.63805 0.16062 0.70227 0.0
H399 H 0.63922 0.14348 0.61068 0.0
C400 C 0.10106 0.38544 0.49066 0.0
Eu401 Eu 0.12746 0.39533 0.57842 0.0
C402 C 0.10651 0.39233 0.4336 0.0
C403 C 0.12413 0.41258 0.42134 0.0
C404 C 0.13015 0.4187 0.3677 0.0
C405 C 0.11867 0.40476 0.32465 0.0
C406 C 0.1012 0.38424 0.33713 0.0
C407 C 0.0952 0.3781 0.39104 0.0
C408 C 0.13718 0.44302 0.62413 0.0
C409 C 0.1897 0.40609 0.55661 0.0
C410 C 0.18828 0.41207 0.77045 0.0
Eu411 Eu 0.167 0.39717 0.67947 0.0
C412 C 0.17923 0.41561 0.82692 0.0
C413 C 0.15888 0.40021 0.84849 0.0
C414 C 0.15161 0.40264 0.90288 0.0
C415 C 0.16433 0.4207 0.93692 0.0
C416 C 0.18444 0.43634 0.91484 0.0
C417 C 0.19184 0.43373 0.86061 0.0
C418 C 0.16442 0.34763 0.6391 0.0
C419 C 0.10402 0.38186 0.69668 0.0
O420 O 0.11747 0.36873 0.51255 0.0
O421 O 0.09548 0.40498 0.52308 0.0
O422 O 0.13366 0.43946 0.57273 0.0
O423 O 0.13457 0.42158 0.64831 0.0
O424 O 0.16689 0.39757 0.53818 0.0
O425 O 0.19418 0.40998 0.60918 0.0
O426 O 0.17954 0.4286 0.73418 0.0
O427 O 0.18876 0.388 0.7526 0.0
O428 O 0.17998 0.35455 0.67802 0.0
O429 O 0.15269 0.36776 0.622 0.0
O430 O 0.12741 0.3872 0.71819 0.0
O431 O 0.09929 0.38264 0.64406 0.0
H432 H 0.13334 0.42365 0.45342 0.0
H433 H 0.14409 0.43426 0.36006 0.0
H434 H 0.09182 0.37317 0.30525 0.0
H435 H 0.08173 0.36224 0.39948 0.0
H436 H 0.14877 0.38606 0.82345 0.0
H437 H 0.13584 0.39053 0.91815 0.0
H438 H 0.19487 0.45029 0.93979 0.0
H439 H 0.20764 0.44575 0.84508 0.0
C440 C 0.40959 0.82548 0.30051 0.0
Eu441 Eu 0.40253 0.84791 0.39438 0.0
C442 C 0.41113 0.83526 0.24418 0.0
C443 C 0.39816 0.82182 0.20252 0.0
C444 C 0.39825 0.8316 0.1496 0.0
C445 C 0.41128 0.85513 0.13708 0.0
C446 C 0.4247 0.86824 0.17891 0.0
C447 C 0.42456 0.8585 0.23172 0.0
C448 C 0.35442 0.85619 0.43864 0.0
C449 C 0.39378 0.91113 0.36896 0.0
C450 C 0.39733 0.91186 0.57556 0.0
Eu451 Eu 0.40344 0.8874 0.48375 0.0
C452 C 0.40082 0.90669 0.63418 0.0
C453 C 0.41518 0.92447 0.66562 0.0
C454 C 0.41739 0.92112 0.72149 0.0
C455 C 0.40512 0.89995 0.74773 0.0
C456 C 0.39142 0.88163 0.71587 0.0
C457 C 0.38928 0.88497 0.65978 0.0
C458 C 0.45014 0.88045 0.43185 0.0
C459 C 0.40863 0.82464 0.51406 0.0
O460 O 0.42877 0.8319 0.333 0.0
O461 O 0.3867 0.82735 0.32392 0.0
O462 O 0.36353 0.83338 0.42489 0.0
O463 O 0.37144 0.87365 0.42916 0.0
O464 O 0.40294 0.88827 0.35157 0.0
O465 O 0.38815 0.91472 0.4203 0.0
O466 O 0.37839 0.89945 0.55061 0.0
O467 O 0.41861 0.91369 0.54625 0.0
O468 O 0.44158 0.90306 0.44809 0.0
O469 O 0.43433 0.86269 0.44592 0.0
O470 O 0.40313 0.84889 0.52859 0.0
O471 O 0.41164 0.81849 0.46229 0.0
H472 H 0.38756 0.80394 0.2111 0.0
H473 H 0.38745 0.82107 0.11885 0.0
H474 H 0.43535 0.88615 0.17095 0.0
H475 H 0.43477 0.86934 0.26289 0.0
H476 H 0.42441 0.94128 0.647 0.0
H477 H 0.42865 0.93533 0.74421 0.0
H478 H 0.38161 0.86515 0.7344 0.0
H479 H 0.37818 0.87078 0.63668 0.0
C480 C 0.91536 0.89125 0.81169 0.0
Eu481 Eu 0.88626 0.89525 0.72498 0.0
C482 C 0.90822 0.88957 0.86998 0.0
C483 C 0.92274 0.90296 0.90964 0.0
C484 C 0.91589 0.90107 0.9646 0.0
C485 C 0.89434 0.88572 0.98114 0.0
C486 C 0.87952 0.87294 0.94094 0.0
C487 C 0.88643 0.87474 0.88643 0.0
C488 C 0.86861 0.94144 0.68124 0.0
C489 C 0.82484 0.89286 0.7528 0.0
C490 C 0.82529 0.89417 0.53854 0.0
Eu491 Eu 0.84852 0.88988 0.63259 0.0
C492 C 0.83223 0.8949 0.48031 0.0
C493 C 0.81508 0.88315 0.44323 0.0
C494 C 0.82183 0.88105 0.38869 0.0
C495 C 0.84598 0.89068 0.36945 0.0
C496 C 0.86279 0.90346 0.40621 0.0
C497 C 0.85606 0.90541 0.46125 0.0
C498 C 0.8563 0.84387 0.68503 0.0
C499 C 0.91228 0.88454 0.6097 0.0
O500 O 0.90869 0.87129 0.78156 0.0
O501 O 0.91076 0.91352 0.78755 0.0
O502 O 0.87076 0.93729 0.73262 0.0
O503 O 0.87548 0.9212 0.65657 0.0
O504 O 0.84861 0.88501 0.76583 0.0
O505 O 0.82002 0.90091 0.70258 0.0
O506 O 0.83137 0.9143 0.56882 0.0
O507 O 0.82939 0.87194 0.56304 0.0
O508 O 0.83356 0.85232 0.66847 0.0
O509 O 0.87381 0.86081 0.67486 0.0
O510 O 0.88791 0.88151 0.59154 0.0
O511 O 0.91731 0.89125 0.66022 0.0
H512 H 0.93956 0.91467 0.89819 0.0
H513 H 0.92786 0.91111 0.9942 0.0
H514 H 0.86245 0.8614 0.95153 0.0
H515 H 0.87476 0.86427 0.85704 0.0
H516 H 0.79659 0.87495 0.45676 0.0
H517 H 0.80823 0.87141 0.36156 0.0
H518 H 0.88158 0.91099 0.39287 0.0
H519 H 0.86974 0.9145 0.48903 0.0
C520 C 0.90425 0.18298 0.51183 0.0
Eu521 Eu 0.89547 0.16051 0.41845 0.0
C522 C 0.90417 0.17368 0.56881 0.0
C523 C 0.89221 0.18873 0.60949 0.0
C524 C 0.89096 0.17952 0.6629 0.0
C525 C 0.90148 0.15491 0.67681 0.0
C526 C 0.91396 0.14019 0.63608 0.0
C527 C 0.91532 0.14945 0.58295 0.0
C528 C 0.84693 0.15148 0.37706 0.0
C529 C 0.8877 0.09712 0.4476 0.0
C530 C 0.88655 0.09577 0.23841 0.0
Eu531 Eu 0.89501 0.11952 0.33026 0.0
C532 C 0.88939 0.10128 0.17971 0.0
C533 C 0.9005 0.08216 0.14612 0.0
C534 C 0.90211 0.08602 0.09029 0.0
C535 C 0.89247 0.1091 0.06611 0.0
C536 C 0.88214 0.12869 0.10011 0.0
C537 C 0.88058 0.12482 0.15622 0.0
C538 C 0.94248 0.12708 0.37792 0.0
C539 C 0.90164 0.18219 0.29812 0.0
O540 O 0.92281 0.17389 0.48054 0.0
O541 O 0.88153 0.18375 0.48722 0.0
O542 O 0.85584 0.17449 0.38991 0.0
O543 O 0.86421 0.13422 0.38648 0.0
O544 O 0.89506 0.12096 0.46275 0.0
O545 O 0.88317 0.09165 0.39633 0.0
O546 O 0.86841 0.10866 0.26488 0.0
O547 O 0.9082 0.09297 0.26638 0.0
O548 O 0.93414 0.10439 0.36177 0.0
O549 O 0.92619 0.14473 0.36515 0.0
O550 O 0.89556 0.15792 0.28461 0.0
O551 O 0.90495 0.18889 0.34948 0.0
H552 H 0.88347 0.20748 0.59979 0.0
H553 H 0.88105 0.19133 0.69292 0.0
H554 H 0.92265 0.12135 0.64517 0.0
H555 H 0.92481 0.13737 0.55278 0.0
H556 H 0.90766 0.06395 0.16306 0.0
H557 H 0.91081 0.0707 0.06596 0.0
H558 H 0.87446 0.14669 0.08327 0.0
H559 H 0.87207 0.14007 0.18105 0.0
C560 C 0.10441 0.1258 0.81666 0.0
Eu561 Eu 0.12599 0.11226 0.72517 0.0
C562 C 0.11184 0.12636 0.87437 0.0
C563 C 0.1285 0.10733 0.89704 0.0
C564 C 0.13574 0.10873 0.95162 0.0
C565 C 0.12657 0.12928 0.98448 0.0
C566 C 0.1097 0.14811 0.96153 0.0
C567 C 0.10245 0.14665 0.90716 0.0
C568 C 0.12517 0.06329 0.68213 0.0
C569 C 0.18776 0.09999 0.74979 0.0
C570 C 0.18287 0.09314 0.53894 0.0
Eu571 Eu 0.16209 0.10564 0.63216 0.0
C572 C 0.17822 0.10036 0.48208 0.0
C573 C 0.1639 0.12294 0.46878 0.0
C574 C 0.15908 0.12929 0.41473 0.0
C575 C 0.16836 0.11312 0.37277 0.0
C576 C 0.1824 0.0903 0.38647 0.0
C577 C 0.18728 0.08402 0.44059 0.0
C578 C 0.15786 0.15646 0.66628 0.0
C579 C 0.09908 0.11862 0.61146 0.0
O580 O 0.11676 0.14221 0.78519 0.0
O581 O 0.10128 0.10283 0.79431 0.0
O582 O 0.10485 0.07538 0.70159 0.0
O583 O 0.14584 0.07678 0.6893 0.0
O584 O 0.16568 0.11085 0.76609 0.0
O585 O 0.19076 0.09273 0.69877 0.0
O586 O 0.16403 0.08001 0.56193 0.0
O587 O 0.19231 0.11131 0.57058 0.0
O588 O 0.17962 0.14554 0.65104 0.0
O589 O 0.13953 0.14003 0.66226 0.0
O590 O 0.12108 0.10817 0.59234 0.0
O591 O 0.09724 0.12587 0.66235 0.0
H592 H 0.13605 0.0915 0.87251 0.0
H593 H 0.14894 0.09404 0.96776 0.0
H594 H 0.10194 0.16399 0.98572 0.0
H595 H 0.08955 0.16151 0.89061 0.0
H596 H 0.15633 0.1356 0.50023 0.0
H597 H 0.1478 0.14675 0.40583 0.0
H598 H 0.19 0.07751 0.35533 0.0
H599 H 0.19814 0.06635 0.45007 0.0
C600 C 0.10247 0.82064 0.50634 0.0
Eu601 Eu 0.11332 0.84397 0.41479 0.0
C602 C 0.10195 0.82697 0.5651 0.0
C603 C 0.12174 0.84193 0.59017 0.0
C604 C 0.12155 0.84608 0.64637 0.0
C605 C 0.10157 0.83534 0.67894 0.0
C606 C 0.08134 0.82119 0.65312 0.0
C607 C 0.08158 0.81704 0.59719 0.0
C608 C 0.16306 0.85428 0.38079 0.0
C609 C 0.11848 0.90758 0.44463 0.0
C610 C 0.12307 0.90742 0.23452 0.0
Eu611 Eu 0.11552 0.88484 0.32805 0.0
C612 C 0.11899 0.89877 0.17754 0.0
C613 C 0.09719 0.8834 0.16302 0.0
C614 C 0.09407 0.8743 0.10996 0.0
C615 C 0.11264 0.88025 0.06959 0.0
C616 C 0.13421 0.89609 0.08403 0.0
C617 C 0.13736 0.90515 0.13732 0.0
C618 C 0.06712 0.87634 0.3709 0.0
C619 C 0.11271 0.8221 0.29436 0.0
O620 O 0.08467 0.83168 0.47581 0.0
O621 O 0.1254 0.81951 0.48271 0.0
O622 O 0.15421 0.8311 0.392 0.0
O623 O 0.14518 0.87116 0.388 0.0
O624 O 0.11 0.88384 0.45792 0.0
O625 O 0.12647 0.91268 0.39503 0.0
O626 O 0.14176 0.8956 0.26149 0.0
O627 O 0.10199 0.9109 0.2639 0.0
O628 O 0.07594 0.89927 0.35788 0.0
O629 O 0.08364 0.85889 0.35825 0.0
O630 O 0.11967 0.8464 0.28367 0.0
O631 O 0.10608 0.81543 0.34431 0.0
H632 H 0.13764 0.85005 0.56649 0.0
H633 H 0.13751 0.857 0.66444 0.0
H634 H 0.06524 0.8131 0.67622 0.0
H635 H 0.06595 0.80566 0.57902 0.0
H636 H 0.0827 0.87799 0.19296 0.0
H637 H 0.07698 0.86251 0.10067 0.0
H638 H 0.14908 0.90093 0.0545 0.0
H639 H 0.1544 0.91689 0.14729 0.0
H640 H 0.42554 0.9382 0.29733 0.0
H641 H 0.34533 0.93148 0.35418 0.0
H642 H 0.33177 0.96725 0.29306 0.0
H643 H 0.42538 0.00839 0.29218 0.0
H644 H 0.44566 0.01066 0.23285 0.0
H645 H 0.4488 0.9829 0.27708 0.0
H646 H 0.43999 0.95159 0.19694 0.0
H647 H 0.43689 0.97927 0.15237 0.0
H648 H 0.41064 0.95572 0.15703 0.0
H649 H 0.32665 0.0036 0.2255 0.0
H650 H 0.33106 0.04095 0.16305 0.0
H651 H 0.41525 0.02793 0.15571 0.0
C652 C 0.40509 0.9441 0.29614 0.0
C653 C 0.38633 0.93186 0.32987 0.0
C654 C 0.3599 0.94049 0.32837 0.0
C655 C 0.35202 0.96076 0.29368 0.0
C656 C 0.3709 0.97264 0.2612 0.0
C657 C 0.39698 0.96489 0.26252 0.0
C658 C 0.41353 0.98233 0.22621 0.0
C659 C 0.43458 0.99693 0.25905 0.0
C660 C 0.426 0.96627 0.18042 0.0
C661 C 0.39272 1.00108 0.20463 0.0
C662 C 0.36822 0.99479 0.2247 0.0
C663 C 0.3458 0.00888 0.21004 0.0
C664 C 0.34851 0.03021 0.17474 0.0
C665 C 0.37351 0.03785 0.15539 0.0
C666 C 0.39586 0.02276 0.17012 0.0
H667 H 0.96316 0.6118 0.68098 0.0
H668 H 0.9019 0.62409 0.8002 0.0
H669 H 0.93545 0.63331 0.86899 0.0
H670 H 0.00739 0.57838 0.77067 0.0
H671 H 0.03684 0.59237 0.74252 0.0
H672 H 0.00807 0.58835 0.70096 0.0
H673 H 0.00904 0.63779 0.67765 0.0
H674 H 0.03782 0.64175 0.71928 0.0
H675 H 0.00908 0.66154 0.73143 0.0
H676 H 0.97532 0.64085 0.92618 0.0
H677 H 0.01931 0.64238 0.96918 0.0
H678 H 0.0555 0.62346 0.81604 0.0
C679 C 0.95684 0.61664 0.72145 0.0
C680 C 0.92973 0.61728 0.73483 0.0
C681 C 0.92241 0.62335 0.78861 0.0
C682 C 0.94138 0.62881 0.82812 0.0
C683 C 0.96782 0.628 0.81379 0.0
C684 C 0.97567 0.62183 0.76193 0.0
C685 C 0.00555 0.62084 0.75845 0.0
C686 C 0.01501 0.59335 0.7422 0.0
C687 C 0.01597 0.64173 0.71937 0.0
C688 C 0.0131 0.62721 0.81639 0.0
C689 C 0.99098 0.63165 0.84738 0.0
C690 C 0.99279 0.63755 0.90225 0.0
C691 C 0.01779 0.63852 0.92633 0.0
C692 C 0.04064 0.63348 0.89574 0.0
C693 C 0.03827 0.62786 0.84004 0.0
H694 H 0.63055 0.95304 0.23328 0.0
H695 H 0.62181 0.98926 0.07643 0.0
H696 H 0.61783 0.03271 0.12 0.0
H697 H 0.58381 0.9937 0.3014 0.0
H698 H 0.60194 0.9954 0.36379 0.0
H699 H 0.60541 0.96729 0.32051 0.0
H700 H 0.65571 0.9741 0.31732 0.0
H701 H 0.65255 1.00216 0.3609 0.0
H702 H 0.66871 0.00531 0.29659 0.0
H703 H 0.61389 0.07184 0.18 0.0
H704 H 0.61012 0.10463 0.25194 0.0
H705 H 0.62108 0.04385 0.37232 0.0
C706 C 0.6284 0.97024 0.20822 0.0
C707 C 0.62713 0.96801 0.15135 0.0
C708 C 0.62323 0.99072 0.11991 0.0
C709 C 0.62092 0.01542 0.14436 0.0
C710 C 0.62228 0.01707 0.20049 0.0
C711 C 0.62591 0.99512 0.23215 0.0
C712 C 0.62577 1.00237 0.29173 0.0
C713 C 0.60287 0.98889 0.32108 0.0
C714 C 0.65227 0.99558 0.31819 0.0
C715 C 0.62163 0.03186 0.28857 0.0
C716 C 0.61964 0.03978 0.23542 0.0
C717 C 0.61547 0.06587 0.22173 0.0
C718 C 0.61329 0.08441 0.26319 0.0
C719 C 0.61527 0.07705 0.31823 0.0
C720 C 0.61955 0.05027 0.33085 0.0
H721 H 0.96413 0.40065 0.84236 0.0
H722 H 0.98336 0.33325 0.9407 0.0
H723 H 0.02576 0.32852 0.89238 0.0
H724 H 0.99116 0.37281 0.71827 0.0
H725 H 1.00255 0.40387 0.69312 0.0
H726 H 0.97422 0.40251 0.73659 0.0
H727 H 0.9963 0.43507 0.80225 0.0
H728 H 0.02476 0.43663 0.75927 0.0
H729 H 0.02842 0.42774 0.82918 0.0
H730 H 0.06792 0.33388 0.83877 0.0
H731 H 0.10386 0.34472 0.77521 0.0
H732 H 0.05517 0.40494 0.70322 0.0
C733 C 0.97737 0.38496 0.85368 0.0
C734 C 0.97079 0.36754 0.8959 0.0
C735 C 0.98819 0.34686 0.90876 0.0
C736 C 0.0123 0.34409 0.88158 0.0
C737 C 0.0184 0.36169 0.84043 0.0
C738 C 1.00115 0.38136 0.82562 0.0
C739 C 0.01187 0.39681 0.77813 0.0
C740 C 0.99388 0.39381 0.72859 0.0
C741 C 0.01556 0.42577 0.79313 0.0
C742 C 0.03818 0.38324 0.76949 0.0
C743 C 0.04168 0.36326 0.80639 0.0
C744 C 0.06516 0.34912 0.80902 0.0
C745 C 0.0855 0.35543 0.77291 0.0
C746 C 0.08209 0.37526 0.73376 0.0
C747 C 0.05804 0.38924 0.73196 0.0
H748 H 0.41731 0.4763 0.14234 0.0
H749 H 0.3327 0.46573 0.14091 0.0
H750 H 0.32815 0.5028 0.07801 0.0
H751 H 0.41468 0.54835 0.13978 0.0
H752 H 0.44337 0.55143 0.09768 0.0
H753 H 0.44023 0.5239 0.14257 0.0
H754 H 0.44652 0.49225 0.062 0.0
H755 H 0.44953 0.5197 1.01693 0.0
H756 H 0.42511 0.49491 1.00429 0.0
H757 H 0.33275 0.53852 1.00955 0.0
H758 H 0.3457 0.57449 0.94856 0.0
H759 H 0.42675 0.56616 0.99992 0.0
C760 C 0.39783 0.48195 0.12906 0.0
C761 C 0.37536 0.46768 0.14582 0.0
C762 C 0.35023 0.47599 0.12806 0.0
C763 C 0.34743 0.49708 0.09227 0.0
C764 C 0.3699 0.51034 0.07551 0.0
C765 C 0.39461 0.50352 0.09409 0.0
C766 C 0.41539 0.52167 0.07052 0.0
C767 C 0.42923 0.53727 0.11531 0.0
C768 C 0.43531 0.50621 0.03641 0.0
C769 C 0.39851 0.53947 0.03538 0.0
C770 C 0.37236 0.53226 0.03846 0.0
C771 C 0.35309 0.54461 1.0075 0.0
C772 C 0.36062 0.56495 0.97281 0.0
C773 C 0.3871 0.57326 0.96995 0.0
C774 C 0.40629 0.56042 1.00196 0.0
H775 H 0.54984 0.60981 0.10986 0.0
H776 H 0.61202 0.62859 0.9967 0.0
H777 H 0.57915 0.63486 0.92487 0.0
H778 H 0.51104 0.57261 1.01576 0.0
H779 H 0.47978 0.58358 0.04148 0.0
H780 H 0.50791 0.58205 0.08552 0.0
H781 H 0.50162 0.63099 0.10977 0.0
H782 H 0.47346 0.63261 0.06572 0.0
H783 H 0.50041 0.65499 0.05659 0.0
H784 H 0.53961 0.63982 0.86484 0.0
H785 H 0.49617 0.6394 0.81932 0.0
H786 H 0.4595 0.61428 0.96802 0.0
C787 C 0.55646 0.61547 0.07007 0.0
C788 C 0.5836 0.61885 0.05914 0.0
C789 C 0.59145 0.62582 1.00623 0.0
C790 C 0.57287 0.62957 0.96508 0.0
C791 C 0.54636 0.626 0.97698 0.0
C792 C 0.53809 0.61885 0.02801 0.0
C793 C 0.50842 0.61498 0.02898 0.0
C794 C 0.50138 0.58662 0.0438 0.0
C795 C 0.49521 0.63456 0.06755 0.0
C796 C 0.50145 0.62096 0.97063 0.0
C797 C 0.5236 0.62769 0.94159 0.0
C798 C 0.52215 0.63451 0.88715 0.0
C799 C 0.49746 0.63428 0.86162 0.0
C800 C 0.47466 0.62694 0.89025 0.0
C801 C 0.4767 0.62011 0.94537 0.0
H802 H 0.5966 0.52431 0.14808 0.0
H803 H 0.67966 0.54118 0.13002 0.0
H804 H 0.68459 0.50216 0.0719 0.0
H805 H 0.60527 0.45234 0.15475 0.0
H806 H 0.57505 0.44589 0.11921 0.0
H807 H 0.57808 0.47485 0.16026 0.0
H808 H 0.56536 0.50356 0.07819 0.0
H809 H 0.56239 0.4747 0.03695 0.0
H810 H 0.58401 0.50081 1.01667 0.0
H811 H 0.67954 0.464 1.00842 0.0
H812 H 0.66611 0.42647 0.95191 0.0
H813 H 0.58736 0.43076 1.01777 0.0
C814 C 0.61588 0.51963 0.13231 0.0
C815 C 0.63769 0.53619 0.14269 0.0
C816 C 0.6626 0.52917 0.12178 0.0
C817 C 0.66559 0.50695 0.08889 0.0
C818 C 0.64363 0.49139 0.07842 0.0
C819 C 0.61935 0.49708 0.10043 0.0
C820 C 0.59903 0.47684 0.08327 0.0
C821 C 0.58876 0.46158 0.1323 0.0
C822 C 0.57636 0.48975 0.05191 0.0
C823 C 0.61549 0.45936 0.04687 0.0
C824 C 0.64114 0.46827 0.04451 0.0
C825 C 0.65966 0.45658 1.0108 0.0
C826 C 0.65185 0.43532 0.97871 0.0
C827 C 0.62587 0.42552 0.98105 0.0
C828 C 0.60751 0.43755 1.01607 0.0
H829 H 0.43373 0.41831 0.04974 0.0
H830 H 0.42586 0.33777 0.10157 0.0
H831 H 0.46365 0.32524 0.04424 0.0
H832 H 0.45495 0.40592 0.91173 0.0
H833 H 0.47872 0.43204 0.91125 0.0
H834 H 0.4499 0.43448 0.95316 0.0
H835 H 0.47932 0.44182 0.03694 0.0
H836 H 0.50826 0.43942 0.99543 0.0
H837 H 0.50457 0.41826 0.05301 0.0
H838 H 0.50191 0.32127 0.98019 0.0
H839 H 0.54052 0.32668 0.92094 0.0
H840 H 0.52691 0.41044 0.91664 0.0
C841 C 0.43983 0.398 0.04825 0.0
C842 C 0.42666 0.37884 0.07931 0.0
C843 C 0.43557 0.35262 0.0777 0.0
C844 C 0.45698 0.34535 0.04519 0.0
C845 C 0.46971 0.36464 1.01522 0.0
C846 C 0.46172 0.39051 1.01697 0.0
C847 C 0.48001 0.40759 0.98365 0.0
C848 C 0.46499 0.42078 0.93719 0.0
C849 C 0.49386 0.42797 1.0194 0.0
C850 C 0.49937 0.38727 0.96265 0.0
C851 C 0.49282 0.36258 0.98089 0.0
C852 C 0.50738 0.34056 0.9662 0.0
C853 C 0.52939 0.34383 0.93267 0.0
C854 C 0.53712 0.36899 0.91493 0.0
C855 C 0.52166 0.39095 0.92983 0.0
H856 H 0.92068 0.42705 0.78636 0.0
H857 H 0.84267 0.42692 0.85647 0.0
H858 H 0.82996 0.46413 0.79851 0.0
H859 H 0.92672 0.49657 0.78385 0.0
H860 H 0.94472 0.49789 0.72136 0.0
H861 H 0.94697 0.46931 0.76355 0.0
H862 H 0.93214 0.44015 0.68379 0.0
H863 H 0.9299 0.46863 0.6412 0.0
H864 H 0.90184 0.44751 0.64922 0.0
H865 H 0.82542 0.50123 0.733 0.0
H866 H 0.8309 0.53926 0.67268 0.0
H867 H 0.91319 0.51938 0.65172 0.0
C868 C 0.90084 0.4347 0.78873 0.0
C869 C 0.88249 0.42395 0.8254 0.0
C870 C 0.85693 0.43482 0.82849 0.0
C871 C 0.84951 0.45588 0.79555 0.0
C872 C 0.86802 0.46629 0.76021 0.0
C873 C 0.89328 0.45635 0.75703 0.0
C874 C 0.90991 0.47272 0.71889 0.0
C875 C 0.93347 0.48484 0.74871 0.0
C876 C 0.91898 0.45627 0.6704 0.0
C877 C 0.89013 0.49355 0.70185 0.0
C878 C 0.86594 0.48902 0.72524 0.0
C879 C 0.84436 0.50516 0.71495 0.0
C880 C 0.84769 0.52681 0.6808 0.0
C881 C 0.87257 0.53273 0.65849 0.0
C882 C 0.89397 0.51557 0.66865 0.0
H883 H 0.524 0.09138 0.39838 0.0
H884 H 0.54009 0.17463 0.39204 0.0
H885 H 0.50266 0.18063 0.32959 0.0
H886 H 0.50445 0.08239 0.26258 0.0
H887 H 0.47811 0.05993 0.27711 0.0
H888 H 0.50591 0.06206 0.32188 0.0
H889 H 0.47477 0.07183 0.40199 0.0
H890 H 0.44687 0.06956 0.3574 0.0
H891 H 0.45182 0.09865 0.39726 0.0
H892 H 0.46651 0.17686 0.2609 0.0
H893 H 0.43022 0.16474 0.19968 0.0
H894 H 0.43363 0.08483 0.25745 0.0
C895 C 0.51947 0.11091 0.38424 0.0
C896 C 0.53537 0.1325 0.39909 0.0
C897 C 0.52858 0.15775 0.38027 0.0
C898 C 0.50728 0.16135 0.34493 0.0
C899 C 0.49243 0.1396 0.32995 0.0
C900 C 0.49782 0.11494 0.3499 0.0
C901 C 0.47838 0.09496 0.32807 0.0
C902 C 0.49257 0.07358 0.29547 0.0
C903 C 0.46199 0.08305 0.37392 0.0
C904 C 0.46156 0.11215 0.29182 0.0
C905 C 0.47026 0.13778 0.29317 0.0
C906 C 0.4592 0.15699 0.26037 0.0
C907 C 0.43865 0.14992 0.22556 0.0
C908 C 0.42889 0.12402 0.22447 0.0
C909 C 0.4404 0.10491 0.25835 0.0
H910 H 0.1233 0.5461 0.86916 0.0
H911 H 0.12753 0.60708 0.74763 0.0
H912 H 0.13396 0.57381 0.67735 0.0
H913 H 0.17159 0.50165 0.809 0.0
H914 H 0.15323 0.47257 0.82514 0.0
H915 H 0.15042 0.50115 0.86727 0.0
H916 H 0.09989 0.50057 0.85388 0.0
H917 H 0.10286 0.47201 0.81171 0.0
H918 H 0.08654 0.50086 0.78651 0.0
H919 H 0.13952 0.53436 0.61907 0.0
H920 H 0.14174 0.49075 0.57625 0.0
H921 H 0.13238 0.45425 0.73293 0.0
C922 C 0.12583 0.55241 0.82784 0.0
C923 C 0.12501 0.57937 0.81426 0.0
C924 C 0.12801 0.58669 0.75942 0.0
C925 C 0.13179 0.56788 0.71899 0.0
C926 C 0.13238 0.54159 0.73349 0.0
C927 C 0.12932 0.53372 0.78646 0.0
C928 C 0.12951 0.50396 0.79018 0.0
C929 C 0.15258 0.49429 0.82497 0.0
C930 C 0.10313 0.49376 0.81184 0.0
C931 C 0.13329 0.49652 0.73122 0.0
C932 C 0.13504 0.5186 0.69938 0.0
C933 C 0.13824 0.51691 0.64362 0.0
C934 C 0.1395 0.49204 0.6196 0.0
C935 C 0.13747 0.46906 0.65109 0.0
C936 C 0.1344 0.47143 0.70777 0.0
H937 H 0.57312 0.92246 0.24705 0.0
H938 H 0.57813 0.84138 0.19686 0.0
H939 H 0.54144 0.8302 0.25823 0.0
H940 H 0.55567 0.91216 0.38589 0.0
H941 H 0.53223 0.93862 0.3886 0.0
H942 H 0.55957 0.94021 0.34261 0.0
H943 H 0.52752 0.94695 0.26266 0.0
H944 H 0.50006 0.94558 0.30837 0.0
H945 H 0.50148 0.92367 0.25149 0.0
H946 H 0.50595 0.82744 0.32911 0.0
H947 H 0.4699 0.83411 0.39441 0.0
H948 H 0.48379 0.91777 0.3908 0.0
C949 C 0.56642 0.90238 0.2492 0.0
C950 C 0.57848 0.88267 0.21763 0.0
C951 C 0.56906 0.85669 0.22072 0.0
C952 C 0.54835 0.85017 0.25563 0.0
C953 C 0.53682 0.86998 0.28635 0.0
C954 C 0.54513 0.89567 0.28265 0.0
C955 C 0.52824 0.91341 0.31765 0.0
C956 C 0.54493 0.92689 0.36128 0.0
C957 C 0.51345 0.93359 0.28297 0.0
C958 C 0.50942 0.89364 0.34219 0.0
C959 C 0.51501 0.86866 0.32413 0.0
C960 C 0.50106 0.84698 0.34262 0.0
C961 C 0.48049 0.85097 0.37952 0.0
C962 C 0.47345 0.87648 0.3965 0.0
C963 C 0.48844 0.89804 0.37803 0.0
H964 H 0.87218 0.95277 0.57332 0.0
H965 H 0.86467 0.98952 0.73024 0.0
H966 H 0.86788 0.03313 0.68719 0.0
H967 H 0.9193 0.99674 0.51973 0.0
H968 H 0.9059 0.99679 0.45242 0.0
H969 H 0.90165 0.9686 0.49501 0.0
H970 H 0.85126 0.97131 0.48245 0.0
H971 H 0.85526 0.99941 0.4394 0.0
H972 H 0.83432 1.00141 0.49784 0.0
H973 H 0.87439 0.07266 0.62734 0.0
H974 H 0.88137 0.10523 0.55569 0.0
H975 H 0.88402 0.0431 0.43644 0.0
C976 C 0.87081 0.97 0.5986 0.0
C977 C 0.86804 0.96772 0.65531 0.0
C978 C 0.86664 0.99076 0.68685 0.0
C979 C 0.86851 0.01561 0.66268 0.0
C980 C 0.87165 0.01715 0.6068 0.0
C981 C 0.87256 0.99495 0.57508 0.0
C982 C 0.87652 1.00196 0.51605 0.0
C983 C 0.90238 0.99033 0.49456 0.0
C984 C 0.85293 0.99299 0.48193 0.0
C985 C 0.87789 0.03163 0.51944 0.0
C986 C 0.87513 0.03993 0.57225 0.0
C987 C 0.87645 0.06634 0.58591 0.0
C988 C 0.88061 0.08475 0.54477 0.0
C989 C 0.88337 0.07688 0.49018 0.0
C990 C 0.88185 0.04986 0.47758 0.0
H991 H 0.07136 0.08527 0.54512 0.0
H992 H 0.07675 0.16616 0.59615 0.0
H993 H 0.03923 0.17759 0.53733 0.0
H994 H 0.05029 0.09673 0.40602 0.0
H995 H 0.02726 0.06996 0.40569 0.0
H996 H 0.05612 0.06846 0.44782 0.0
H997 H 0.02682 0.06063 0.53159 0.0
H998 H 0.9979 0.06206 0.48973 0.0
H999 H 1.00092 0.08355 0.54706 0.0
H1000 H 1.00133 0.1804 0.4723 0.0
H1001 H 0.96261 0.17358 0.41364 0.0
H1002 H 0.97827 0.09015 0.41187 0.0
C1003 C 0.0648 0.10542 0.5431 0.0
C1004 C 0.07717 0.12499 0.5744 0.0
C1005 C 0.06767 0.15099 0.5721 0.0
C1006 C 0.04641 0.15766 0.5387 0.0
C1007 C 0.03444 0.13797 0.50855 0.0
C1008 C 0.04302 0.11229 0.51097 0.0
C1009 C 0.02526 0.09461 0.4778 0.0
C1010 C 0.04066 0.08168 0.43159 0.0
C1011 C 0.01194 0.074 0.51369 0.0
C1012 C 0.00544 0.11435 0.45646 0.0
C1013 C 0.0114 0.1393 0.47399 0.0
C1014 C 0.99628 0.16089 0.45888 0.0
C1015 C 0.97423 0.15682 0.42579 0.0
C1016 C 0.96702 0.13132 0.40926 0.0
C1017 C 0.98312 0.10988 0.4243 0.0
H1018 H 0.15171 0.95032 0.46052 0.0
H1019 H 0.08177 0.91245 0.52275 0.0
H1020 H 0.07732 0.94697 0.59155 0.0
H1021 H 0.17702 0.96934 0.59361 0.0
H1022 H 0.19029 1.00006 0.5707 0.0
H1023 H 0.18798 0.97277 0.52488 0.0
H1024 H 0.16089 1.00116 0.45846 0.0
H1025 H 0.16328 0.02849 0.50406 0.0
H1026 H 0.13148 0.01725 0.48192 0.0
H1027 H 0.07817 0.9869 0.64894 0.0
H1028 H 0.0861 0.02834 0.69673 0.0
H1029 H 0.15909 0.03833 0.60903 0.0
C1030 C 0.13547 0.94942 0.48865 0.0
C1031 C 0.1169 0.92874 0.4859 0.0
C1032 C 0.09618 0.92802 0.52396 0.0
C1033 C 0.09347 0.94759 0.56322 0.0
C1034 C 0.11201 0.96762 0.56506 0.0
C1035 C 0.13288 0.96856 0.52947 0.0
C1036 C 0.15041 0.99199 0.54202 0.0
C1037 C 0.17807 0.98299 0.5588 0.0
C1038 C 0.15157 0.01083 0.49374 0.0
C1039 C 0.13578 0.00427 0.58935 0.0
C1040 C 0.11353 0.98992 0.60129 0.0
C1041 C 0.09574 0.99808 0.64048 0.0
C1042 C 0.10046 0.02171 0.66752 0.0
C1043 C 0.12311 0.03691 0.65648 0.0
C1044 C 0.14142 0.02754 0.6179 0.0
H1045 H 0.0437 0.91113 0.43986 0.0
H1046 H 0.03728 0.83196 0.37854 0.0
H1047 H 0.99696 0.82544 0.43308 0.0
H1048 H 0.02371 0.8955 0.57575 0.0
H1049 H 0.00593 0.92563 0.58612 0.0
H1050 H 0.03356 0.92483 0.54089 0.0
H1051 H 1.00495 0.94278 0.46337 0.0
H1052 H 0.9771 0.94423 0.50807 0.0
H1053 H 0.97484 0.92627 0.44567 0.0
H1054 H 0.95544 0.82893 0.48952 0.0
H1055 H 0.91898 0.84007 0.55163 0.0
H1056 H 0.95486 0.9153 0.58377 0.0
C1057 C 0.03372 0.89245 0.4378 0.0
C1058 C 0.04334 0.87211 0.40439 0.0
C1059 C 0.0301 0.8478 0.40359 0.0
C1060 C 0.0072 0.84397 0.43437 0.0
C1061 C 0.9981 0.86448 0.46664 0.0
C1062 C 0.01121 0.88811 0.46927 0.0
C1063 C 0.99789 0.90665 0.50865 0.0
C1064 C 0.01637 0.91354 0.55565 0.0
C1065 C 0.98812 0.93144 0.4797 0.0
C1066 C 0.97504 0.8899 0.52744 0.0
C1067 C 0.97531 0.86579 0.50203 0.0
C1068 C 0.95531 0.84757 0.51021 0.0
C1069 C 0.93465 0.85408 0.54537 0.0
C1070 C 0.93437 0.87833 0.57291 0.0
C1071 C 0.95491 0.89641 0.56397 0.0
H1072 H 0.31617 0.19839 0.11249 0.0
H1073 H 0.39868 0.18207 0.1401 0.0
H1074 H 0.40664 0.229 0.15829 0.0
H1075 H 0.32732 0.26004 0.04203 0.0
H1076 H 0.29812 0.27506 0.06924 0.0
H1077 H 0.29934 0.24016 0.05949 0.0
H1078 H 0.28751 0.23347 0.16013 0.0
H1079 H 0.28677 0.26836 0.17041 0.0
H1080 H 0.30783 0.24814 0.21149 0.0
H1081 H 0.40466 0.27832 0.17949 0.0
H1082 H 0.39445 0.32583 0.18532 0.0
H1083 H 0.31429 0.30991 0.13624 0.0
C1084 C 0.33596 0.20474 0.12185 0.0
C1085 C 0.35676 0.18643 0.1257 0.0
C1086 C 0.3824 0.19563 0.13755 0.0
C1087 C 0.38708 0.22229 0.14814 0.0
C1088 C 0.36599 0.23973 0.14566 0.0
C1089 C 0.34106 0.23137 0.13141 0.0
C1090 C 0.322 0.25416 0.12894 0.0
C1091 C 0.31106 0.25756 0.07151 0.0
C1092 C 0.29971 0.25082 0.17021 0.0
C1093 C 0.33997 0.27661 0.14439 0.0
C1094 C 0.36519 0.26794 0.15485 0.0
C1095 C 0.38499 0.28528 0.17096 0.0
C1096 C 0.37901 0.3122 0.17471 0.0
C1097 C 0.35361 0.32149 0.1614 0.0
C1098 C 0.33388 0.30333 0.14682 0.0
H1099 H 0.31489 0.68915 0.88884 0.0
H1100 H 0.32928 0.60583 0.87299 0.0
H1101 H 0.28188 0.59724 0.88578 0.0
H1102 H 0.26568 0.68528 0.99087 0.0
H1103 H 0.24578 0.7114 0.96396 0.0
H1104 H 0.28074 0.71117 0.95247 0.0
H1105 H 0.27303 0.71346 0.84931 0.0
H1106 H 0.23806 0.71408 0.86052 0.0
H1107 H 0.25225 0.68947 0.81734 0.0
H1108 H 0.23287 0.59767 0.90425 0.0
H1109 H 0.18565 0.60732 0.91744 0.0
H1110 H 0.20289 0.69041 0.91908 0.0
C1111 C 0.30802 0.66912 0.88751 0.0
C1112 C 0.32584 0.64814 0.88012 0.0
C1113 C 0.31604 0.62221 0.87864 0.0
C1114 C 0.28914 0.61713 0.88609 0.0
C1115 C 0.27217 0.63821 0.89454 0.0
C1116 C 0.28117 0.66371 0.8945 0.0
C1117 C 0.25877 0.68286 0.90371 0.0
C1118 C 0.26301 0.6986 0.95586 0.0
C1119 C 0.25532 0.70104 0.8548 0.0
C1120 C 0.23579 0.66416 0.90916 0.0
C1121 C 0.24396 0.63847 0.90416 0.0
C1122 C 0.22626 0.61772 0.90798 0.0
C1123 C 0.19948 0.62339 0.91578 0.0
C1124 C 0.19053 0.6496 0.9193 0.0
C1125 C 0.2091 0.67017 0.91669 0.0
H1126 H 0.64125 0.81048 0.21827 0.0
H1127 H 0.65066 0.82179 0.04609 0.0
H1128 H 0.65114 0.77358 0.03331 0.0
H1129 H 0.68498 0.75749 0.23031 0.0
H1130 H 0.66611 0.74052 0.28081 0.0
H1131 H 0.66391 0.77557 0.27539 0.0
H1132 H 0.61339 0.77231 0.26427 0.0
H1133 H 0.6154 0.7372 0.26979 0.0
H1134 H 0.59987 0.75189 0.21186 0.0
H1135 H 0.65323 0.72392 0.04073 0.0
H1136 H 0.65785 0.67744 0.0672 0.0
H1137 H 0.64826 0.69871 0.23507 0.0
C1138 C 0.64306 0.80287 0.17768 0.0
C1139 C 0.64584 0.81994 0.13302 0.0
C1140 C 0.64839 0.80913 0.08076 0.0
C1141 C 0.64867 0.78177 0.07324 0.0
C1142 C 0.64635 0.76553 0.11838 0.0
C1143 C 0.64357 0.77574 0.16959 0.0
C1144 C 0.64292 0.75424 0.21185 0.0
C1145 C 0.66585 0.75713 0.25193 0.0
C1146 C 0.61631 0.75389 0.24117 0.0
C1147 C 0.64628 0.7302 0.17667 0.0
C1148 C 0.64791 0.73712 0.12278 0.0
C1149 C 0.65178 0.71837 0.08272 0.0
C1150 C 0.65436 0.69204 0.09809 0.0
C1151 C 0.65321 0.68459 0.15303 0.0
C1152 C 0.64889 0.7039 0.19277 0.0
H1153 H 0.80977 0.31038 0.91617 0.0
H1154 H 0.82587 0.39356 0.92631 0.0
H1155 H 0.77868 0.40304 0.9125 0.0
H1156 H 0.76094 0.31371 0.81342 0.0
H1157 H 0.74038 0.28854 0.84176 0.0
H1158 H 0.7753 0.28812 0.85393 0.0
H1159 H 0.76724 0.28775 0.95704 0.0
H1160 H 0.7323 0.28776 0.94518 0.0
H1161 H 0.74687 0.31275 0.98688 0.0
H1162 H 0.72972 0.40348 0.89288 0.0
H1163 H 0.68237 0.39473 0.87929 0.0
H1164 H 0.69781 0.31128 0.88443 0.0
C1165 C 0.80331 0.33058 0.91616 0.0
C1166 C 0.82159 0.35125 0.92213 0.0
C1167 C 0.8123 0.3774 0.92177 0.0
C1168 C 0.78551 0.38298 0.91371 0.0
C1169 C 0.76812 0.36219 0.90652 0.0
C1170 C 0.77658 0.33649 0.90852 0.0
C1171 C 0.7538 0.31775 0.90023 0.0
C1172 C 0.75786 0.30105 0.8493 0.0
C1173 C 0.74982 0.30049 0.95032 0.0
C1174 C 0.73123 0.33689 0.893 0.0
C1175 C 0.73993 0.36244 0.89635 0.0
C1176 C 0.7227 0.38353 0.89056 0.0
C1177 C 0.69583 0.37838 0.8826 0.0
C1178 C 0.68631 0.35235 0.88098 0.0
C1179 C 0.70443 0.3314 0.88539 0.0
H1180 H 0.81878 0.69402 0.6406 0.0
H1181 H 0.90204 0.67667 0.62805 0.0
H1182 H 0.91229 0.72331 0.64541 0.0
H1183 H 0.82098 0.75791 0.57687 0.0
H1184 H 0.79637 0.77149 0.62106 0.0
H1185 H 0.79608 0.73708 0.60555 0.0
H1186 H 0.79747 0.72653 0.70772 0.0
H1187 H 0.79826 0.76092 0.72349 0.0
H1188 H 0.82371 0.73956 0.74858 0.0
H1189 H 0.91318 0.7723 0.66709 0.0
H1190 H 0.90446 0.81938 0.68316 0.0
H1191 H 0.82066 0.80385 0.68333 0.0
C1192 C 0.83918 0.70006 0.64077 0.0
C1193 C 0.85962 0.68168 0.63279 0.0
C1194 C 0.88605 0.69041 0.63372 0.0
C1195 C 0.89205 0.71684 0.64391 0.0
C1196 C 0.87141 0.73433 0.65311 0.0
C1197 C 0.8455 0.72628 0.65106 0.0
C1198 C 0.82689 0.7488 0.66247 0.0
C1199 C 0.80904 0.75414 0.61357 0.0
C1200 C 0.81063 0.74363 0.7136 0.0
C1201 C 0.84632 0.77084 0.67123 0.0
C1202 C 0.87193 0.76216 0.6659 0.0
C1203 C 0.89318 0.77924 0.67137 0.0
C1204 C 0.88806 0.80593 0.6809 0.0
C1205 C 0.8619 0.81532 0.68478 0.0
C1206 C 0.84089 0.79731 0.68099 0.0
H1207 H 0.80643 0.18669 0.38279 0.0
H1208 H 0.82286 0.10344 0.37695 0.0
H1209 H 0.77565 0.09415 0.39198 0.0
H1210 H 0.75968 0.18424 0.48823 0.0
H1211 H 0.73877 0.20939 0.4606 0.0
H1212 H 0.77345 0.20948 0.44613 0.0
H1213 H 0.76369 0.20924 0.34355 0.0
H1214 H 0.72898 0.20961 0.35769 0.0
H1215 H 0.7427 0.18423 0.31574 0.0
H1216 H 0.72635 0.09426 0.41179 0.0
H1217 H 0.67919 0.10378 0.42745 0.0
H1218 H 0.69581 0.18695 0.42188 0.0
C1219 C 0.80007 0.16649 0.38382 0.0
C1220 C 0.81834 0.14578 0.37853 0.0
C1221 C 0.8092 0.11962 0.38058 0.0
C1222 C 0.78243 0.11417 0.38941 0.0
C1223 C 0.76505 0.13508 0.39605 0.0
C1224 C 0.77351 0.16073 0.39278 0.0
C1225 C 0.75106 0.17972 0.40204 0.0
C1226 C 0.75605 0.1967 0.45223 0.0
C1227 C 0.74633 0.19669 0.35176 0.0
C1228 C 0.72861 0.16082 0.41121 0.0
C1229 C 0.73701 0.13514 0.40774 0.0
C1230 C 0.71961 0.1143 0.41448 0.0
C1231 C 0.69288 0.11989 0.42368 0.0
C1232 C 0.68381 0.14609 0.42602 0.0
C1233 C 0.70211 0.16671 0.42057 0.0
H1234 H 0.19861 0.30713 0.64475 0.0
H1235 H 0.11707 0.32551 0.61124 0.0
H1236 H 0.10623 0.27815 0.6145 0.0
H1237 H 0.20067 0.24523 0.56549 0.0
H1238 H 0.22262 0.22999 0.6132 0.0
H1239 H 0.22375 0.26487 0.60297 0.0
H1240 H 0.21679 0.27183 0.70541 0.0
H1241 H 0.21497 0.23704 0.71584 0.0
H1242 H 0.18835 0.25782 0.73764 0.0
H1243 H 0.10383 0.22904 0.63467 0.0
H1244 H 0.11097 0.18206 0.65364 0.0
H1245 H 0.19474 0.19574 0.66787 0.0
C1246 C 0.17861 0.30109 0.63632 0.0
C1247 C 0.15869 0.31987 0.62706 0.0
C1248 C 0.13268 0.31136 0.61721 0.0
C1249 C 0.12635 0.28453 0.61965 0.0
C1250 C 0.14637 0.26655 0.631 0.0
C1251 C 0.17212 0.27447 0.63765 0.0
C1252 C 0.19001 0.25147 0.6502 0.0
C1253 C 0.21047 0.24767 0.60528 0.0
C1254 C 0.2033 0.25475 0.70556 0.0
C1255 C 0.17027 0.22932 0.6509 0.0
C1256 C 0.14515 0.23841 0.64026 0.0
C1257 C 0.1235 0.22172 0.64183 0.0
C1258 C 0.12772 0.19505 0.6529 0.0
C1259 C 0.15343 0.18513 0.66143 0.0
C1260 C 0.17489 0.20266 0.66099 0.0
H1261 H 0.31437 0.82064 0.43091 0.0
H1262 H 0.32968 0.90397 0.44053 0.0
H1263 H 0.28243 0.91294 0.42472 0.0
H1264 H 0.26824 0.82368 0.32442 0.0
H1265 H 0.2475 0.79805 0.3503 0.0
H1266 H 0.28208 0.79817 0.36588 0.0
H1267 H 0.27167 0.79728 0.46812 0.0
H1268 H 0.23705 0.79671 0.45285 0.0
H1269 H 0.25017 0.82179 0.4963 0.0
H1270 H 0.23322 0.91254 0.40341 0.0
H1271 H 0.18634 0.90271 0.38528 0.0
H1272 H 0.204 0.81967 0.38816 0.0
C1273 C 0.30775 0.84079 0.43062 0.0
C1274 C 0.32574 0.86162 0.43712 0.0
C1275 C 0.31625 0.8877 0.43593 0.0
C1276 C 0.28946 0.89297 0.4267 0.0
C1277 C 0.27237 0.87196 0.41882 0.0
C1278 C 0.28115 0.84637 0.42127 0.0
C1279 C 0.25902 0.82726 0.4105 0.0
C1280 C 0.26455 0.81083 0.35976 0.0
C1281 C 0.25419 0.80973 0.45989 0.0
C1282 C 0.23636 0.84601 0.4014 0.0
C1283 C 0.24439 0.87173 0.40626 0.0
C1284 C 0.22676 0.89245 0.39966 0.0
C1285 C 0.2002 0.8867 0.38906 0.0
C1286 C 0.1915 0.86044 0.38517 0.0
C1287 C 0.21002 0.83995 0.39066 0.0
H1288 H 0.24088 0.11431 0.76227 0.0
H1289 H 0.17718 0.0721 0.83858 0.0
H1290 H 0.20346 0.06766 0.92151 0.0
H1291 H 0.29542 0.07629 0.82791 0.0
H1292 H 0.31601 0.10471 0.83585 0.0
H1293 H 0.29325 0.10282 0.78023 0.0
H1294 H 0.27259 0.1468 0.80983 0.0
H1295 H 0.29515 0.14864 0.86572 0.0
H1296 H 0.26023 0.15029 0.87757 0.0
H1297 H 0.23459 0.07114 0.99964 0.0
H1298 H 0.27037 0.07887 0.0651 0.0
H1299 H 0.31572 0.11748 0.94024 0.0
C1300 C 0.23292 0.10335 0.79581 0.0
C1301 C 0.20695 0.09319 0.79345 0.0
C1302 C 0.19699 0.07984 0.83913 0.0
C1303 C 0.21179 0.07726 0.88662 0.0
C1304 C 0.2369 0.08804 0.88847 0.0
C1305 C 0.24768 0.10048 0.84412 0.0
C1306 C 0.2749 0.11103 0.8583 0.0
C1307 C 0.29615 0.09793 0.82349 0.0
C1308 C 0.27575 0.14097 0.85251 0.0
C1309 C 0.27743 0.10283 0.91732 0.0
C1310 C 0.25517 0.0897 0.9338 0.0
C1311 C 0.25228 0.08112 0.98695 0.0
C1312 C 0.27272 0.08572 1.02409 0.0
C1313 C 0.29608 0.09868 1.00832 0.0
C1314 C 0.29829 0.10733 0.95388 0.0
H1315 H 0.10144 0.68915 0.11024 0.0
H1316 H 0.11471 0.74051 0.97353 0.0
H1317 H 0.11721 0.77822 0.03493 0.0
H1318 H 0.05986 0.73731 0.18599 0.0
H1319 H 0.07223 0.72585 0.2499 0.0
H1320 H 0.07062 0.70396 0.19278 0.0
H1321 H 0.12152 0.69492 0.2069 0.0
H1322 H 0.12149 0.71776 0.2624 0.0
H1323 H 0.14363 0.72237 0.20652 0.0
H1324 H 0.12177 0.8097 0.10914 0.0
H1325 H 0.12246 0.83561 0.1908 0.0
H1326 H 0.10293 0.76679 0.28592 0.0
C1327 C 0.10478 0.70837 0.09326 0.0
C1328 C 0.10797 0.71164 0.03647 0.0
C1329 C 0.1121 0.73724 1.01633 0.0
C1330 C 0.11368 0.75888 0.05109 0.0
C1331 C 0.11072 0.75498 0.10643 0.0
C1332 C 0.1059 0.73055 0.12766 0.0
C1333 C 0.10264 0.73248 0.189 0.0
C1334 C 0.07469 0.7244 0.20547 0.0
C1335 C 0.12354 0.71589 0.21796 0.0
C1336 C 0.10704 0.76173 0.1989 0.0
C1337 C 0.11179 0.77397 0.15015 0.0
C1338 C 0.11741 0.80044 0.14729 0.0
C1339 C 0.11776 0.81509 0.19484 0.0
C1340 C 0.11229 0.8038 0.24614 0.0
C1341 C 0.10692 0.7764 0.24793 0.0
H1342 H 0.69681 0.9212 0.94457 0.0
H1343 H 0.73897 0.87676 0.06627 0.0
H1344 H 0.77486 0.86893 1.00147 0.0
H1345 H 0.71612 0.88365 0.82721 0.0
H1346 H 0.72056 0.91157 0.78402 0.0
H1347 H 0.69756 0.91322 0.83912 0.0
H1348 H 0.72172 0.95429 0.87544 0.0
H1349 H 0.74479 0.95232 0.82046 0.0
H1350 H 0.7565 0.95253 0.88908 0.0
H1351 H 0.80342 0.86157 0.92289 0.0
H1352 H 0.82929 0.86234 0.84082 0.0
H1353 H 0.77411 0.91694 0.76785 0.0
C1354 C 0.71378 0.91008 0.95771 0.0
C1355 C 0.71496 0.89957 1.01105 0.0
C1356 C 0.73756 0.88521 1.02633 0.0
C1357 C 0.75797 0.88045 0.98946 0.0
C1358 C 0.756 0.89062 0.93734 0.0
C1359 C 0.73492 0.90576 0.92157 0.0
C1360 C 0.7389 0.91542 0.86354 0.0
C1361 C 0.71696 0.90537 0.8263 0.0
C1362 C 0.74058 0.94543 0.86205 0.0
C1363 C 0.76534 0.90292 0.84906 0.0
C1364 C 0.77424 0.88833 0.89242 0.0
C1365 C 0.79704 0.87356 0.88937 0.0
C1366 C 0.81179 0.87435 0.84197 0.0
C1367 C 0.80471 0.89052 0.79748 0.0
C1368 C 0.78054 0.90462 0.80081 0.0
H1369 H 0.8936 0.31263 0.11088 0.0
H1370 H 0.91958 0.2627 0.97949 0.0
H1371 H 0.92373 0.22582 0.0429 0.0
H1372 H 0.93601 0.28466 0.21525 0.0
H1373 H 0.91154 0.28689 0.26758 0.0
H1374 H 0.91125 0.3099 0.21256 0.0
H1375 H 0.86316 0.29746 0.19113 0.0
H1376 H 0.86332 0.27438 0.24601 0.0
H1377 H 0.85487 0.26367 0.17893 0.0
H1378 H 0.92466 0.19417 0.11846 0.0
H1379 H 0.92063 0.16835 0.20099 0.0
H1380 H 0.89337 0.23704 0.2879 0.0
C1381 C 0.90027 0.29397 0.0954 0.0
C1382 C 0.90634 0.29079 0.03961 0.0
C1383 C 0.91484 0.26588 1.02154 0.0
C1384 C 0.91732 0.24474 0.05746 0.0
C1385 C 0.91128 0.24857 0.11183 0.0
C1386 C 0.90283 0.27248 0.13096 0.0
C1387 C 0.89693 0.2708 0.19138 0.0
C1388 C 0.91501 0.28915 0.22359 0.0
C1389 C 0.86784 0.27694 0.2025 0.0
C1390 C 0.90325 0.2421 0.20306 0.0
C1391 C 0.91162 0.22992 0.15623 0.0
C1392 C 0.91817 0.20353 0.15528 0.0
C1393 C 0.91571 0.18897 0.20278 0.0
C1394 C 0.90662 0.20041 0.25158 0.0
C1395 C 0.90068 0.22764 0.25178 0.0
H1396 H 0.31585 0.39003 0.36072 0.0
H1397 H 0.26906 0.4296 0.23893 0.0
H1398 H 0.23416 0.43717 0.30647 0.0
H1399 H 0.26243 0.35694 0.42589 0.0
H1400 H 0.27558 0.36052 0.49304 0.0
H1401 H 0.29746 0.35935 0.43609 0.0
H1402 H 0.31756 0.40375 0.46461 0.0
H1403 H 0.29578 0.4048 0.5219 0.0
H1404 H 0.29638 0.43157 0.47466 0.0
H1405 H 0.20433 0.44082 0.38671 0.0
H1406 H 0.17902 0.43584 0.47039 0.0
H1407 H 0.24307 0.39183 0.54203 0.0
C1408 C 0.29828 0.40035 0.34809 0.0
C1409 C 0.29542 0.40929 0.29388 0.0
C1410 C 0.27192 0.4225 0.27965 0.0
C1411 C 0.25199 0.42703 0.31802 0.0
C1412 C 0.25556 0.41816 0.37087 0.0
C1413 C 0.27799 0.40482 0.38592 0.0
C1414 C 0.27628 0.39646 0.44504 0.0
C1415 C 0.27803 0.36654 0.4503 0.0
C1416 C 0.29778 0.40994 0.47857 0.0
C1417 C 0.24907 0.4066 0.46058 0.0
C1418 C 0.23787 0.41955 0.41719 0.0
C1419 C 0.21295 0.43067 0.42072 0.0
C1420 C 0.1987 0.42778 0.46874 0.0
C1421 C 0.20889 0.41357 0.51328 0.0
C1422 C 0.23481 0.40327 0.5094 0.0
H1423 H 0.40363 0.68827 0.68501 0.0
H1424 H 0.41942 0.73615 0.82611 0.0
H1425 H 0.42256 0.7751 0.76823 0.0
H1426 H 0.44867 0.72555 0.59305 0.0
H1427 H 0.42706 0.7202 0.53645 0.0
H1428 H 0.42841 0.69685 0.59094 0.0
H1429 H 0.37674 0.70272 0.60081 0.0
H1430 H 0.37748 0.72654 0.54723 0.0
H1431 H 0.36404 0.73516 0.6121 0.0
H1432 H 0.42332 0.80916 0.69688 0.0
H1433 H 0.42096 0.83693 0.61701 0.0
H1434 H 0.40443 0.76895 0.5172 0.0
C1435 C 0.40784 0.70694 0.70376 0.0
C1436 C 0.41125 0.70886 0.76076 0.0
C1437 C 0.41677 0.73382 0.78304 0.0
C1438 C 0.41861 0.7562 0.7503 0.0
C1439 C 0.4151 0.75364 0.69473 0.0
C1440 C 0.40995 0.7297 0.67134 0.0
C1441 C 0.40703 0.73279 0.61021 0.0
C1442 C 0.42907 0.71796 0.58084 0.0
C1443 C 0.37971 0.72376 0.59144 0.0
C1444 C 0.41039 0.7623 0.60319 0.0
C1445 C 0.4154 0.77366 0.6528 0.0
C1446 C 0.41937 0.80043 0.65794 0.0
C1447 C 0.41788 0.81613 0.61176 0.0
C1448 C 0.41225 0.8055 0.55994 0.0
C1449 C 0.40884 0.77791 0.55571 0.0
H1450 H 0.74452 0.61328 0.26366 0.0
H1451 H 0.67699 0.57904 0.3435 0.0
H1452 H 0.70255 0.57427 0.42692 0.0
H1453 H 0.79519 0.57294 0.33276 0.0
H1454 H 0.81821 0.59946 0.33969 0.0
H1455 H 0.79556 0.59901 0.28383 0.0
H1456 H 0.77883 0.64473 0.31042 0.0
H1457 H 0.80076 0.64571 0.36747 0.0
H1458 H 0.76599 0.65022 0.37722 0.0
H1459 H 0.7339 0.57529 0.50424 0.0
H1460 H 0.77014 0.58032 0.5695 0.0
H1461 H 0.81886 0.6137 0.44353 0.0
C1462 C 0.73542 0.60417 0.2983 0.0
C1463 C 0.7086 0.59634 0.29646 0.0
C1464 C 0.69736 0.58518 0.34348 0.0
C1465 C 0.71177 0.58236 0.39134 0.0
C1466 C 0.73777 0.59075 0.3925 0.0
C1467 C 0.7497 0.60126 0.34729 0.0
C1468 C 0.77773 0.60967 0.36119 0.0
C1469 C 0.79786 0.59436 0.32735 0.0
C1470 C 0.78102 0.63934 0.35359 0.0
C1471 C 0.77948 0.60218 0.42082 0.0
C1472 C 0.75609 0.59136 0.43783 0.0
C1473 C 0.75242 0.58353 0.49124 0.0
C1474 C 0.7732 0.58654 0.52826 0.0
C1475 C 0.79763 0.59732 0.51226 0.0
C1476 C 0.80061 0.60526 0.45746 0.0
H1477 H 0.61024 0.23818 0.5194 0.0
H1478 H 0.58304 0.16974 0.60648 0.0
H1479 H 0.57952 0.19564 0.68933 0.0
H1480 H 0.64984 0.26396 0.6265 0.0
H1481 H 0.64197 0.29788 0.61471 0.0
H1482 H 0.64081 0.2748 0.55983 0.0
H1483 H 0.59269 0.28797 0.54025 0.0
H1484 H 0.59373 0.31112 0.59504 0.0
H1485 H 0.56865 0.28625 0.5935 0.0
H1486 H 0.58184 0.2273 0.7655 0.0
H1487 H 0.58706 0.26415 0.82882 0.0
H1488 H 0.61227 0.31365 0.6964 0.0
C1489 C 0.60307 0.22887 0.55568 0.0
C1490 C 0.5969 0.20172 0.55592 0.0
C1491 C 0.58805 0.19032 0.60483 0.0
C1492 C 0.58599 0.20491 0.65248 0.0
C1493 C 0.59286 0.23122 0.65157 0.0
C1494 C 0.60099 0.24333 0.60453 0.0
C1495 C 0.60778 0.27191 0.61613 0.0
C1496 C 0.63683 0.27745 0.60354 0.0
C1497 C 0.58963 0.2904 0.58434 0.0
C1498 C 0.60244 0.27363 0.67673 0.0
C1499 C 0.59385 0.24984 0.69609 0.0
C1500 C 0.58833 0.24612 0.75071 0.0
C1501 C 0.59143 0.26724 0.78658 0.0
C1502 C 0.59998 0.29205 0.76818 0.0
C1503 C 0.60555 0.2951 0.71217 0.0
H1504 H 0.36933 0.12105 0.49562 0.0
H1505 H 0.31078 0.05932 0.49515 0.0
H1506 H 0.31582 0.05454 0.59353 0.0
H1507 H 0.41136 0.09299 0.59712 0.0
H1508 H 0.41923 0.12396 0.62793 0.0
H1509 H 0.41121 0.12247 0.55724 0.0
H1510 H 0.37425 0.15672 0.57152 0.0
H1511 H 0.38215 0.15831 0.64227 0.0
H1512 H 0.34913 0.15065 0.62116 0.0
H1513 H 0.32682 0.05662 0.6921 0.0
H1514 H 0.34307 0.06532 0.78392 0.0
H1515 H 0.39458 0.12573 0.72107 0.0
C1516 C 0.35745 0.10663 0.51621 0.0
C1517 C 0.33976 0.09045 0.48736 0.0
C1518 C 0.32479 0.07164 0.516 0.0
C1519 C 0.32738 0.06889 0.57202 0.0
C1520 C 0.345 0.08509 0.5991 0.0
C1521 C 0.35979 0.10359 0.57223 0.0
C1522 C 0.37732 0.1185 0.61106 0.0
C1523 C 0.4065 0.11422 0.59752 0.0
C1524 C 0.37028 0.14778 0.61152 0.0
C1525 C 0.37002 0.1055 0.66392 0.0
C1526 C 0.35135 0.08629 0.65606 0.0
C1527 C 0.34153 0.07156 0.69872 0.0
C1528 C 0.35104 0.07656 0.7508 0.0
C1529 C 0.37019 0.09621 0.76014 0.0
C1530 C 0.37973 0.1108 0.71573 0.0
H1531 H 0.11607 0.62993 0.55366 0.0
H1532 H 0.07814 0.70605 0.5458 0.0
H1533 H 0.07669 0.70292 0.44687 0.0
H1534 H 0.15685 0.63874 0.43535 0.0
H1535 H 0.15385 0.60527 0.41326 0.0
H1536 H 0.15167 0.61306 0.48398 0.0
H1537 H 0.10632 0.59025 0.4889 0.0
H1538 H 0.10835 0.5824 0.41821 0.0
H1539 H 0.08046 0.60033 0.44366 0.0
H1540 H 0.07916 0.69201 0.34922 0.0
H1541 H 0.08574 0.6741 0.2585 0.0
H1542 H 0.12272 0.6051 0.327 0.0
C1543 C 0.10759 0.64601 0.53114 0.0
C1544 C 0.09694 0.66814 0.55795 0.0
C1545 C 0.08589 0.68863 0.52667 0.0
C1546 C 0.08515 0.68714 0.47027 0.0
C1547 C 0.09563 0.66508 0.44528 0.0
C1548 C 0.1067 0.64487 0.47451 0.0
C1549 C 0.11662 0.62342 0.43717 0.0
C1550 C 0.14652 0.61993 0.44278 0.0
C1551 C 0.10206 0.59757 0.44762 0.0
C1552 C 0.10938 0.6348 0.38252 0.0
C1553 C 0.09727 0.65883 0.38838 0.0
C1554 C 0.08859 0.67317 0.34415 0.0
C1555 C 0.09234 0.66272 0.29252 0.0
C1556 C 0.1048 0.63816 0.28485 0.0
C1557 C 0.11342 0.62407 0.33093 0.0
H1558 H 0.65421 0.92339 0.50064 0.0
H1559 H 0.70342 0.85465 0.48002 0.0
H1560 H 0.69813 0.84412 0.57645 0.0
H1561 H 0.67782 0.94057 0.63404 0.0
H1562 H 0.64604 0.95115 0.65767 0.0
H1563 H 0.65409 0.95362 0.58714 0.0
H1564 H 0.61284 0.92632 0.56296 0.0
H1565 H 0.6047 0.92374 0.6334 0.0
H1566 H 0.60841 0.89457 0.59322 0.0
H1567 H 0.68649 0.84025 0.67499 0.0
H1568 H 0.66973 0.84351 0.76791 0.0
H1569 H 0.62877 0.9153 0.72573 0.0
C1570 C 0.6638 0.90606 0.5163 0.0
C1571 C 0.67936 0.88993 0.48243 0.0
C1572 C 0.69175 0.86758 0.50501 0.0
C1573 C 0.68873 0.86133 0.5598 0.0
C1574 C 0.67331 0.87762 0.59193 0.0
C1575 C 0.66109 0.89957 0.5711 0.0
C1576 C 0.64555 0.91377 0.61445 0.0
C1577 C 0.65654 0.94141 0.62387 0.0
C1578 C 0.61613 0.91464 0.60014 0.0
C1579 C 0.65066 0.89619 0.6627 0.0
C1580 C 0.66678 0.87549 0.64884 0.0
C1581 C 0.67401 0.8565 0.68636 0.0
C1582 C 0.66449 0.85865 0.73935 0.0
C1583 C 0.6479 0.8797 0.75483 0.0
C1584 C 0.64109 0.89874 0.71556 0.0
H1585 H 0.90845 0.34657 0.30283 0.0
H1586 H 0.89203 0.42991 0.31102 0.0
H1587 H 0.8937 0.42797 0.41009 0.0
H1588 H 0.86897 0.32865 0.41837 0.0
H1589 H 0.89146 0.30373 0.44126 0.0
H1590 H 0.88941 0.31153 0.37055 0.0
H1591 H 0.93941 0.32063 0.36863 0.0
H1592 H 0.94168 0.3129 0.43933 0.0
H1593 H 0.95328 0.34403 0.41502 0.0
H1594 H 0.89688 0.41738 0.50809 0.0
H1595 H 0.90077 0.39858 0.59911 0.0
H1596 H 0.91511 0.32195 0.52904 0.0
C1597 C 0.90505 0.36439 0.32543 0.0
C1598 C 0.90039 0.38848 0.29876 0.0
C1599 C 0.89621 0.41132 0.33014 0.0
C1600 C 0.89692 0.41041 0.38659 0.0
C1601 C 0.90174 0.38648 0.41148 0.0
C1602 C 0.90566 0.36384 0.38206 0.0
C1603 C 0.91035 0.34066 0.41915 0.0
C1604 C 0.88876 0.31992 0.4119 0.0
C1605 C 0.93782 0.32887 0.40998 0.0
C1606 C 0.90845 0.35387 0.47391 0.0
C1607 C 0.90349 0.38031 0.4684 0.0
C1608 C 0.90087 0.39671 0.51295 0.0
C1609 C 0.90334 0.38585 0.5646 0.0
C1610 C 0.90845 0.35877 0.57161 0.0
C1611 C 0.911 0.34266 0.52532 0.0
H1612 H 0.38693 0.41238 0.57797 0.0
H1613 H 0.33004 0.35427 0.52636 0.0
H1614 H 0.31219 0.35248 0.61878 0.0
H1615 H 0.39949 0.38553 0.70883 0.0
H1616 H 0.40222 0.41693 0.74147 0.0
H1617 H 0.4105 0.41362 0.67122 0.0
H1618 H 0.37723 0.45024 0.64712 0.0
H1619 H 0.36885 0.45368 0.71731 0.0
H1620 H 0.34348 0.44721 0.66829 0.0
H1621 H 0.30079 0.35672 0.71784 0.0
H1622 H 0.29632 0.36724 0.81471 0.0
H1623 H 0.36018 0.42305 0.80127 0.0
C1624 C 0.37057 0.39942 0.58586 0.0
C1625 C 0.36003 0.38336 0.54462 0.0
C1626 C 0.33884 0.36642 0.55724 0.0
C1627 C 0.32841 0.36541 0.60962 0.0
C1628 C 0.33934 0.38143 0.64924 0.0
C1629 C 0.35992 0.39816 0.63794 0.0
C1630 C 0.36819 0.41329 0.68778 0.0
C1631 C 0.39679 0.40696 0.70322 0.0
C1632 C 0.36419 0.44286 0.67962 0.0
C1633 C 0.34906 0.40247 0.72892 0.0
C1634 C 0.33262 0.38407 0.70593 0.0
C1635 C 0.31357 0.37112 0.7362 0.0
C1636 C 0.31127 0.37712 0.79131 0.0
C1637 C 0.32785 0.39599 0.81577 0.0
C1638 C 0.34695 0.40879 0.78379 0.0
H1639 H 0.4104 0.62242 0.23855 0.0
H1640 H 0.41189 0.70727 0.24649 0.0
H1641 H 0.40681 0.70527 0.34511 0.0
H1642 H 0.36162 0.61313 0.34416 0.0
H1643 H 0.37719 0.58424 0.37105 0.0
H1644 H 0.38054 0.59208 0.30056 0.0
H1645 H 0.43123 0.59083 0.31 0.0
H1646 H 0.42805 0.58298 0.38047 0.0
H1647 H 0.44701 0.61104 0.36006 0.0
H1648 H 0.40169 0.6946 0.44209 0.0
H1649 H 0.39776 0.67558 0.53287 0.0
H1650 H 0.40015 0.59752 0.46473 0.0
C1651 C 0.40945 0.64055 0.26106 0.0
C1652 C 0.41174 0.66502 0.23471 0.0
C1653 C 0.41063 0.6883 0.26573 0.0
C1654 C 0.40755 0.68739 0.32178 0.0
C1655 C 0.40555 0.66303 0.34648 0.0
C1656 C 0.40646 0.64 0.31735 0.0
C1657 C 0.40431 0.61645 0.35445 0.0
C1658 C 0.37943 0.60054 0.34179 0.0
C1659 C 0.42913 0.59932 0.35103 0.0
C1660 C 0.40222 0.62991 0.4089 0.0
C1661 C 0.40287 0.6568 0.40308 0.0
C1662 C 0.40134 0.67357 0.44717 0.0
C1663 C 0.39937 0.66262 0.49868 0.0
C1664 C 0.39915 0.63516 0.50611 0.0
C1665 C 0.40027 0.6186 0.46037 0.0
H1666 H 0.68693 0.59541 0.77339 0.0
H1667 H 0.61933 0.63513 0.84261 0.0
H1668 H 0.60144 0.64225 0.75165 0.0
H1669 H 0.69327 0.63584 0.65507 0.0
H1670 H 0.70174 0.60919 0.6107 0.0
H1671 H 0.70974 0.6073 0.68136 0.0
H1672 H 0.68431 0.56361 0.68859 0.0
H1673 H 0.67625 0.56541 0.61792 0.0
H1674 H 0.65045 0.56223 0.66723 0.0
H1675 H 0.59037 0.64517 0.65366 0.0
H1676 H 0.5866 0.64336 0.55488 0.0
H1677 H 0.66083 0.60143 0.54638 0.0
C1678 C 0.66828 0.60547 0.76955 0.0
C1679 C 0.65482 0.61498 0.81582 0.0
C1680 C 0.6305 0.62817 0.80834 0.0
C1681 C 0.61999 0.63215 0.75662 0.0
C1682 C 0.63381 0.62273 0.71217 0.0
C1683 C 0.65738 0.60958 0.71792 0.0
C1684 C 0.66802 0.60133 0.66306 0.0
C1685 C 0.69478 0.61419 0.6519 0.0
C1686 C 0.66986 0.57136 0.65897 0.0
C1687 C 0.64681 0.61205 0.62573 0.0
C1688 C 0.62729 0.62429 0.65515 0.0
C1689 C 0.6056 0.63574 0.6302 0.0
C1690 C 0.60376 0.63478 0.57377 0.0
C1691 C 0.62351 0.62253 0.54216 0.0
C1692 C 0.64528 0.61087 0.56898 0.0
H1693 H 0.59885 0.34764 0.50453 0.0
H1694 H 0.61804 0.43034 0.49656 0.0
H1695 H 0.61769 0.42813 0.39745 0.0
H1696 H 0.6393 0.32795 0.39164 0.0
H1697 H 0.61635 0.30376 0.36763 0.0
H1698 H 0.61766 0.31172 0.43836 0.0
H1699 H 0.56797 0.32259 0.43726 0.0
H1700 H 0.56644 0.3147 0.36653 0.0
H1701 H 0.55553 0.34631 0.38984 0.0
H1702 H 0.61561 0.41734 0.29964 0.0
H1703 H 0.61219 0.39845 0.20859 0.0
H1704 H 0.59438 0.32257 0.27836 0.0
C1705 C 0.60313 0.36525 0.48196 0.0
C1706 C 0.6082 0.38925 0.5086 0.0
C1707 C 0.61354 0.41185 0.47734 0.0
C1708 C 0.61358 0.41078 0.42091 0.0
C1709 C 0.60837 0.38693 0.39603 0.0
C1710 C 0.60329 0.36454 0.42538 0.0
C1711 C 0.59837 0.34141 0.38829 0.0
C1712 C 0.61916 0.31995 0.39701 0.0
C1713 C 0.57041 0.33063 0.39594 0.0
C1714 C 0.60147 0.35438 0.3336 0.0
C1715 C 0.60723 0.38064 0.33917 0.0
C1716 C 0.611 0.39682 0.29471 0.0
C1717 C 0.60881 0.38591 0.24306 0.0
C1718 C 0.60282 0.35903 0.23602 0.0
C1719 C 0.59918 0.34312 0.2822 0.0
H1720 H 0.85652 0.57971 1.01069 0.0
H1721 H 0.82541 0.65781 0.98484 0.0
H1722 H 0.83264 0.66813 0.08097 0.0
H1723 H 0.82829 0.5706 0.14339 0.0
H1724 H 0.85627 0.5529 0.16924 0.0
H1725 H 0.84852 0.55154 0.0984 0.0
H1726 H 0.89547 0.56761 0.07544 0.0
H1727 H 0.90334 0.56904 0.14621 0.0
H1728 H 0.90732 0.59768 0.10466 0.0
H1729 H 0.84404 0.67036 0.17962 0.0
H1730 H 0.85839 0.66432 0.27366 0.0
H1731 H 0.88119 0.58434 0.23694 0.0
C1732 C 0.85137 0.59904 1.02519 0.0
C1733 C 0.84032 0.61795 0.99003 0.0
C1734 C 0.83358 0.64289 1.01094 0.0
C1735 C 0.83773 0.64898 0.0655 0.0
C1736 C 0.84856 0.62991 0.09901 0.0
C1737 C 0.85522 0.6054 0.07976 0.0
C1738 C 0.86638 0.58842 0.12454 0.0
C1739 C 0.84881 0.56445 0.13447 0.0
C1740 C 0.89482 0.58021 0.11195 0.0
C1741 C 0.86529 0.60732 0.17174 0.0
C1742 C 0.85487 0.63111 0.15611 0.0
C1743 C 0.85206 0.65174 0.19239 0.0
C1744 C 0.86013 0.64803 0.24599 0.0
C1745 C 0.87088 0.6238 0.26331 0.0
C1746 C 0.87337 0.60321 0.22527 0.0
H1747 H 0.61515 0.10353 0.83421 0.0
H1748 H 0.60897 0.18093 0.76312 0.0
H1749 H 0.60595 0.20029 0.85374 0.0
H1750 H 0.56916 0.11498 0.9434 0.0
H1751 H 0.58758 0.09607 0.9918 0.0
H1752 H 0.58934 0.08804 0.92115 0.0
H1753 H 0.64003 0.09241 0.92426 0.0
H1754 H 0.63841 0.10046 0.9949 0.0
H1755 H 0.65453 0.12234 0.94861 0.0
H1756 H 0.60332 0.21157 0.95222 0.0
H1757 H 0.60149 0.21401 0.05126 0.0
H1758 H 0.60969 0.12953 0.06049 0.0
C1759 C 0.61295 0.12453 0.83755 0.0
C1760 C 0.6124 0.1406 0.79085 0.0
C1761 C 0.60983 0.16807 0.79769 0.0
C1762 C 0.60794 0.17931 0.84924 0.0
C1763 C 0.60863 0.16295 0.89415 0.0
C1764 C 0.61108 0.13615 0.88894 0.0
C1765 C 0.61148 0.12308 0.94406 0.0
C1766 C 0.58799 0.10444 0.95047 0.0
C1767 C 0.63767 0.10873 0.9535 0.0
C1768 C 0.60886 0.14672 0.98097 0.0
C1769 C 0.60724 0.1695 0.95119 0.0
C1770 C 0.60472 0.19385 0.97593 0.0
C1771 C 0.60391 0.19503 0.03248 0.0
C1772 C 0.60571 0.17203 0.06435 0.0
C1773 C 0.6081 0.14752 0.03774 0.0
H1774 H 0.12625 0.37222 0.23601 0.0
H1775 H 0.12446 0.45409 0.28272 0.0
H1776 H 0.13545 0.46676 0.18964 0.0
H1777 H 0.18043 0.37719 0.14393 0.0
H1778 H 0.16708 0.35436 0.09577 0.0
H1779 H 0.15873 0.3515 0.16607 0.0
H1780 H 0.10924 0.35392 0.14195 0.0
H1781 H 0.11744 0.35676 0.07154 0.0
H1782 H 0.09709 0.38122 0.10323 0.0
H1783 H 0.14726 0.47085 0.0915 0.0
H1784 H 0.15871 0.46596 0.99535 0.0
H1785 H 0.1526 0.38159 1.01057 0.0
C1786 C 0.12789 0.39283 0.22662 0.0
C1787 C 0.12461 0.41211 0.26732 0.0
C1788 C 0.1273 0.43885 0.25295 0.0
C1789 C 0.13338 0.44629 0.19991 0.0
C1790 C 0.13669 0.42685 0.16109 0.0
C1791 C 0.134 0.40066 0.17364 0.0
C1792 C 0.1389 0.38372 0.12419 0.0
C1793 C 0.1627 0.36562 0.13304 0.0
C1794 C 0.11419 0.36798 0.10936 0.0
C1795 C 0.14476 0.40448 0.08201 0.0
C1796 C 0.14339 0.42923 0.10426 0.0
C1797 C 0.1484 0.45155 0.07368 0.0
C1798 C 0.15505 0.44856 1.01904 0.0
C1799 C 0.15668 0.42341 0.99505 0.0
C1800 C 0.15128 0.40112 0.02728 0.0
H1801 H 0.41278 0.82937 0.03823 0.0
H1802 H 0.4067 0.90689 0.10914 0.0
H1803 H 0.4049 0.92622 1.01836 0.0
H1804 H 0.45316 0.84742 0.92494 0.0
H1805 H 0.43693 0.82576 0.87819 0.0
H1806 H 0.43802 0.81775 0.94887 0.0
H1807 H 0.38726 0.81421 0.95047 0.0
H1808 H 0.38605 0.82223 0.87978 0.0
H1809 H 0.36765 0.84146 0.92764 0.0
H1810 H 0.40315 0.93745 0.92023 0.0
H1811 H 0.40184 0.93993 0.82124 0.0
H1812 H 0.40913 0.85534 0.8118 0.0
C1813 C 0.41089 0.8504 0.03477 0.0
C1814 C 0.41012 0.86654 0.08139 0.0
C1815 C 0.40789 0.89402 0.07453 0.0
C1816 C 0.40664 0.90523 1.02295 0.0
C1817 C 0.40754 0.88881 0.97812 0.0
C1818 C 0.40959 0.86199 0.98336 0.0
C1819 C 0.41011 0.84887 0.92826 0.0
C1820 C 0.43611 0.83408 0.91957 0.0
C1821 C 0.38635 0.83061 0.92113 0.0
C1822 C 0.40808 0.87254 0.89135 0.0
C1823 C 0.40659 0.89534 0.92114 0.0
C1824 C 0.40448 0.91972 0.89649 0.0
C1825 C 0.40397 0.92092 0.83998 0.0
C1826 C 0.40569 0.8979 0.8081 0.0
C1827 C 0.40765 0.87335 0.8346 0.0
H1828 H 0.8676 0.92475 0.29339 0.0
H1829 H 0.84245 0.84439 0.31576 0.0
H1830 H 0.85331 0.83467 0.22114 0.0
H1831 H 0.84187 0.93181 0.15898 0.0
H1832 H 0.86871 0.95144 0.1344 0.0
H1833 H 0.86019 0.95222 0.20486 0.0
H1834 H 0.9079 0.93946 0.23008 0.0
H1835 H 0.91657 0.93865 0.15965 0.0
H1836 H 0.92226 0.91035 0.2014 0.0
H1837 H 0.86583 0.83329 0.12437 0.0
H1838 H 0.8787 0.8404 0.03007 0.0
H1839 H 0.89524 0.92194 0.06587 0.0
C1840 C 0.86466 0.90507 0.27841 0.0
C1841 C 0.85399 0.88535 0.31227 0.0
C1842 C 0.85024 0.85992 0.29075 0.0
C1843 C 0.85649 0.85414 0.23699 0.0
C1844 C 0.86655 0.87397 0.20456 0.0
C1845 C 0.87064 0.89895 0.22419 0.0
C1846 C 0.88097 0.9167 0.17959 0.0
C1847 C 0.86179 0.93938 0.16883 0.0
C1848 C 0.90857 0.92689 0.19352 0.0
C1849 C 0.88186 0.89778 0.13203 0.0
C1850 C 0.87354 0.87324 0.14776 0.0
C1851 C 0.87228 0.85246 0.11153 0.0
C1852 C 0.87948 0.85679 0.0577 0.0
C1853 C 0.88775 0.88182 0.03973 0.0
C1854 C 0.88918 0.90253 0.07797 0.0
H1855 H 0.9016 0.15347 1.00299 0.0
H1856 H 0.88196 0.07096 0.99151 0.0
H1857 H 0.88219 0.07409 0.89266 0.0
H1858 H 0.86111 0.17431 0.88934 0.0
H1859 H 0.88423 0.19854 0.86636 0.0
H1860 H 0.88272 0.19016 0.93685 0.0
H1861 H 0.93233 0.1791 0.93617 0.0
H1862 H 0.93405 0.18741 0.86569 0.0
H1863 H 0.94478 0.15562 0.88825 0.0
H1864 H 0.88488 0.08542 0.795 0.0
H1865 H 0.88928 0.10457 0.70444 0.0
H1866 H 0.90655 0.18018 0.77603 0.0
C1867 C 0.89715 0.13609 0.97975 0.0
C1868 C 0.89212 0.11182 1.00572 0.0
C1869 C 0.88653 0.08963 0.97323 0.0
C1870 C 0.88639 0.09123 0.91677 0.0
C1871 C 0.89169 0.11524 0.89263 0.0
C1872 C 0.89687 0.13734 0.9229 0.0
C1873 C 0.90198 0.16069 0.88623 0.0
C1874 C 0.88127 0.18219 0.89524 0.0
C1875 C 0.92995 0.17133 0.89459 0.0
C1876 C 0.89895 0.14816 0.83081 0.0
C1877 C 0.89303 0.1219 0.83572 0.0
C1878 C 0.88957 0.10596 0.79067 0.0
C1879 C 0.8923 0.11703 0.73922 0.0
C1880 C 0.89849 0.14389 0.73259 0.0
C1881 C 0.90166 0.15964 0.7794 0.0
H1882 H 0.13102 0.09012 0.0611 0.0
H1883 H 0.14096 0.17373 0.0385 0.0
H1884 H 0.15315 0.17841 0.13426 0.0
H1885 H 0.10283 0.09374 0.19306 0.0
H1886 H 0.11928 0.06494 0.21809 0.0
H1887 H 0.11196 0.06787 0.14729 0.0
H1888 H 0.16111 0.06059 0.12445 0.0
H1889 H 0.16857 0.05759 0.19521 0.0
H1890 H 0.1856 0.08142 0.15471 0.0
H1891 H 0.16345 0.17439 0.23274 0.0
H1892 H 0.17154 0.16186 0.32731 0.0
H1893 H 0.15494 0.08083 0.28738 0.0
C1894 C 0.13605 0.10937 0.07615 0.0
C1895 C 0.13486 0.1316 0.0421 0.0
C1896 C 0.1413 0.15646 0.06376 0.0
C1897 C 0.14842 0.15931 0.11811 0.0
C1898 C 0.1491 0.13711 0.15062 0.0
C1899 C 0.14315 0.11259 0.13055 0.0
C1900 C 0.14496 0.09203 0.1746 0.0
C1901 C 0.11816 0.07887 0.18379 0.0
C1902 C 0.16634 0.07171 0.16145 0.0
C1903 C 0.15277 0.10885 0.22251 0.0
C1904 C 0.15506 0.13479 0.20766 0.0
C1905 C 0.1617 0.15413 0.24484 0.0
C1906 C 0.16608 0.14683 0.29864 0.0
C1907 C 0.16379 0.12037 0.31513 0.0
C1908 C 0.15713 0.10117 0.27616 0.0
H1909 H 0.11706 0.87767 0.74313 0.0
H1910 H 0.08802 0.79795 0.75317 0.0
H1911 H 0.08785 0.80101 0.85212 0.0
H1912 H 0.16034 0.87351 0.86012 0.0
H1913 H 0.15383 0.9065 0.8822 0.0
H1914 H 0.15171 0.89835 0.81162 0.0
H1915 H 0.10405 0.91608 0.80868 0.0
H1916 H 0.10601 0.92426 0.87923 0.0
H1917 H 0.08002 0.90335 0.85511 0.0
H1918 H 0.09014 0.81244 0.95038 0.0
H1919 H 0.09526 0.8313 0.04098 0.0
H1920 H 0.1237 0.90363 0.97034 0.0
C1921 C 0.11084 0.86077 0.76607 0.0
C1922 C 0.10223 0.83762 0.73956 0.0
C1923 C 0.09413 0.81613 0.77174 0.0
C1924 C 0.09415 0.81759 0.8283 0.0
C1925 C 0.10246 0.84065 0.85293 0.0
C1926 C 0.11076 0.86187 0.823 0.0
C1927 C 0.11862 0.88435 0.86006 0.0
C1928 C 0.14787 0.89107 0.85307 0.0
C1929 C 0.10113 0.90844 0.85017 0.0
C1930 C 0.11339 0.87243 0.91532 0.0
C1931 C 0.10405 0.84719 0.91004 0.0
C1932 C 0.09743 0.8322 0.95492 0.0
C1933 C 0.10032 0.84321 1.0065 0.0
C1934 C 0.10987 0.86908 1.01358 0.0
C1935 C 0.11659 0.88375 0.96687 0.0
loop_
_geom_bond_atom_site_label_1
_geom_bond_atom_site_label_2
_geom_bond_distance
_geom_bond_site_symmetry_2
_ccdc_geom_bond_type
C0 Eu1 2.835 1_556 S
C0 C2 1.500 . S
C0 O20 1.257 . S
C0 O21 1.260 . S
Eu1 C0 2.835 1_554 S
Eu1 O20 2.473 1_554 S
Eu1 O21 2.480 1_554 S
Eu1 O22 2.430 . S
Eu1 O23 2.670 . S
Eu1 O24 2.394 . S
Eu1 O29 2.355 . S
Eu1 O31 2.374 . S
C2 C0 1.500 . S
C2 C3 1.377 . S
C2 C7 1.377 . S
C3 C2 1.377 . S
C3 C4 1.395 . S
C3 H32 0.931 . S
C4 C3 1.395 . S
C4 C5 1.383 . S
C4 H33 0.931 . S
C5 C4 1.383 . S
C5 C6 1.394 . S
C6 C5 1.394 . S
C6 C7 1.378 . S
C6 H34 0.931 . S
C7 C2 1.377 . S
C7 C6 1.378 . S
C7 H35 0.931 . S
C8 O22 1.259 . S
C8 O23 1.270 . S
C9 O24 1.251 . S
C9 O25 1.251 . S
C10 Eu11 2.835 . S
C10 C12 1.500 . S
C10 O26 1.257 . S
C10 O27 1.260 . S
Eu11 C10 2.835 . S
Eu11 O23 2.355 . S
Eu11 O25 2.374 . S
Eu11 O26 2.473 . S
Eu11 O27 2.480 . S
Eu11 O28 2.430 . S
Eu11 O29 2.670 . S
Eu11 O30 2.394 . S
C12 C10 1.500 . S
C12 C13 1.377 . S
C12 C17 1.377 . S
C13 C12 1.377 . S
C13 C14 1.395 . S
C13 H36 0.931 . S
C14 C13 1.395 . S
C14 C15 1.383 . S
C14 H37 0.931 . S
C15 C14 1.383 . S
C15 C16 1.394 . S
C16 C15 1.394 . S
C16 C17 1.378 . S
C16 H38 0.931 . S
C17 C12 1.377 . S
C17 C16 1.378 . S
C17 H39 0.931 . S
C18 O28 1.259 . S
C18 O29 1.270 . S
C19 O30 1.251 . S
C19 O31 1.251 . S
O20 C0 1.257 . S
O20 Eu1 2.473 1_556 S
O21 C0 1.260 . S
O21 Eu1 2.480 1_556 S
O22 Eu1 2.430 . S
O22 C8 1.259 . S
O23 Eu1 2.670 . S
O23 C8 1.270 . S
O23 Eu11 2.355 . S
O24 Eu1 2.394 . S
O24 C9 1.251 . S
O25 C9 1.251 . S
O25 Eu11 2.374 . S
O26 C10 1.257 . S
O26 Eu11 2.473 . S
O27 C10 1.260 . S
O27 Eu11 2.480 . S
O28 Eu11 2.430 . S
O28 C18 1.259 . S
O29 Eu1 2.355 . S
O29 Eu11 2.670 . S
O29 C18 1.270 . S
O30 Eu11 2.394 . S
O30 C19 1.251 . S
O31 Eu1 2.374 . S
O31 C19 1.251 . S
H32 C3 0.931 . S
H33 C4 0.931 . S
H34 C6 0.931 . S
H35 C7 0.931 . S
H36 C13 0.931 . S
H37 C14 0.931 . S
H38 C16 0.931 . S
H39 C17 0.931 . S
C40 Eu41 2.835 . S
C40 C42 1.500 . S
C40 O60 1.257 . S
C40 O61 1.260 . S
Eu41 C40 2.835 . S
Eu41 O60 2.473 . S
Eu41 O61 2.480 . S
Eu41 O62 2.430 . S
Eu41 O63 2.670 . S
Eu41 O64 2.394 . S
Eu41 O69 2.355 . S
Eu41 O71 2.374 . S
C42 C40 1.500 . S
C42 C43 1.377 . S
C42 C47 1.377 . S
C43 C42 1.377 . S
C43 C44 1.395 . S
C43 H72 0.931 . S
C44 C43 1.395 . S
C44 C45 1.383 . S
C44 H73 0.931 . S
C45 C44 1.383 . S
C45 C46 1.394 . S
C46 C45 1.394 . S
C46 C47 1.378 . S
C46 H74 0.931 . S
C47 C42 1.377 . S
C47 C46 1.378 . S
C47 H75 0.931 . S
C48 O62 1.259 . S
C48 O63 1.270 . S
C49 O64 1.251 . S
C49 O65 1.251 . S
C50 Eu51 2.835 1_554 S
C50 C52 1.500 . S
C50 O66 1.257 . S
C50 O67 1.260 . S
Eu51 C50 2.835 1_556 S
Eu51 O63 2.355 . S
Eu51 O65 2.374 . S
Eu51 O66 2.473 1_556 S
Eu51 O67 2.480 1_556 S
Eu51 O68 2.430 . S
Eu51 O69 2.670 . S
Eu51 O70 2.394 . S
C52 C50 1.500 . S
C52 C53 1.377 . S
C52 C57 1.377 . S
C53 C52 1.377 . S
C53 C54 1.395 . S
C53 H76 0.931 . S
C54 C53 1.395 . S
C54 C55 1.383 . S
C54 H77 0.931 . S
C55 C54 1.383 . S
C55 C56 1.394 . S
C56 C55 1.394 . S
C56 C57 1.378 . S
C56 H78 0.931 . S
C57 C52 1.377 . S
C57 C56 1.378 . S
C57 H79 0.931 . S
C58 O68 1.259 . S
C58 O69 1.270 . S
C59 O70 1.251 . S
C59 O71 1.251 . S
O60 C40 1.257 . S
O60 Eu41 2.473 . S
O61 C40 1.260 . S
O61 Eu41 2.480 . S
O62 Eu41 2.430 . S
O62 C48 1.259 . S
O63 Eu41 2.670 . S
O63 C48 1.270 . S
O63 Eu51 2.355 . S
O64 Eu41 2.394 . S
O64 C49 1.251 . S
O65 C49 1.251 . S
O65 Eu51 2.374 . S
O66 C50 1.257 . S
O66 Eu51 2.473 1_554 S
O67 C50 1.260 . S
O67 Eu51 2.480 1_554 S
O68 Eu51 2.430 . S
O68 C58 1.259 . S
O69 Eu41 2.355 . S
O69 Eu51 2.670 . S
O69 C58 1.270 . S
O70 Eu51 2.394 . S
O70 C59 1.251 . S
O71 Eu41 2.374 . S
O71 C59 1.251 . S
H72 C43 0.931 . S
H73 C44 0.931 . S
H74 C46 0.931 . S
H75 C47 0.931 . S
H76 C53 0.931 . S
H77 C54 0.931 . S
H78 C56 0.931 . S
H79 C57 0.931 . S
C80 Eu81 2.835 1_556 S
C80 C82 1.500 . S
C80 O100 1.257 . S
C80 O101 1.260 . S
Eu81 C80 2.835 1_554 S
Eu81 O100 2.473 1_554 S
Eu81 O101 2.480 1_554 S
Eu81 O102 2.430 . S
Eu81 O103 2.670 . S
Eu81 O104 2.394 . S
Eu81 O109 2.355 . S
Eu81 O111 2.374 . S
C82 C80 1.500 . S
C82 C83 1.377 . S
C82 C87 1.377 . S
C83 C82 1.377 . S
C83 C84 1.395 . S
C83 H112 0.931 . S
C84 C83 1.395 . S
C84 C85 1.383 . S
C84 H113 0.931 . S
C85 C84 1.383 . S
C85 C86 1.394 . S
C86 C85 1.394 . S
C86 C87 1.378 . S
C86 H114 0.931 . S
C87 C82 1.377 . S
C87 C86 1.378 . S
C87 H115 0.931 . S
C88 O102 1.259 . S
C88 O103 1.270 . S
C89 O104 1.251 . S
C89 O105 1.251 . S
C90 Eu91 2.835 . S
C90 C92 1.500 . S
C90 O106 1.257 . S
C90 O107 1.260 . S
Eu91 C90 2.835 . S
Eu91 O103 2.355 . S
Eu91 O105 2.374 . S
Eu91 O106 2.473 . S
Eu91 O107 2.480 . S
Eu91 O108 2.430 . S
Eu91 O109 2.670 . S
Eu91 O110 2.394 . S
C92 C90 1.500 . S
C92 C93 1.377 . S
C92 C97 1.377 . S
C93 C92 1.377 . S
C93 C94 1.395 . S
C93 H116 0.931 . S
C94 C93 1.395 . S
C94 C95 1.383 . S
C94 H117 0.931 . S
C95 C94 1.383 . S
C95 C96 1.394 . S
C96 C95 1.394 . S
C96 C97 1.378 . S
C96 H118 0.931 . S
C97 C92 1.377 . S
C97 C96 1.378 . S
C97 H119 0.931 . S
C98 O108 1.259 . S
C98 O109 1.270 . S
C99 O110 1.251 . S
C99 O111 1.251 . S
O100 C80 1.257 . S
O100 Eu81 2.473 1_556 S
O101 C80 1.260 . S
O101 Eu81 2.480 1_556 S
O102 Eu81 2.430 . S
O102 C88 1.259 . S
O103 Eu81 2.670 . S
O103 C88 1.270 . S
O103 Eu91 2.355 . S
O104 Eu81 2.394 . S
O104 C89 1.251 . S
O105 C89 1.251 . S
O105 Eu91 2.374 . S
O106 C90 1.257 . S
O106 Eu91 2.473 . S
O107 C90 1.260 . S
O107 Eu91 2.480 . S
O108 Eu91 2.430 . S
O108 C98 1.259 . S
O109 Eu81 2.355 . S
O109 Eu91 2.670 . S
O109 C98 1.270 . S
O110 Eu91 2.394 . S
O110 C99 1.251 . S
O111 Eu81 2.374 . S
O111 C99 1.251 . S
H112 C83 0.931 . S
H113 C84 0.931 . S
H114 C86 0.931 . S
H115 C87 0.931 . S
H116 C93 0.931 . S
H117 C94 0.931 . S
H118 C96 0.931 . S
H119 C97 0.931 . S
C120 Eu121 2.835 . S
C120 C122 1.500 . S
C120 O140 1.257 . S
C120 O141 1.260 . S
Eu121 C120 2.835 . S
Eu121 O140 2.473 . S
Eu121 O141 2.480 . S
Eu121 O142 2.430 . S
Eu121 O143 2.670 . S
Eu121 O144 2.394 . S
Eu121 O149 2.355 . S
Eu121 O151 2.374 . S
C122 C120 1.500 . S
C122 C123 1.377 . S
C122 C127 1.377 . S
C123 C122 1.377 . S
C123 C124 1.395 . S
C123 H152 0.931 . S
C124 C123 1.395 . S
C124 C125 1.383 . S
C124 H153 0.931 . S
C125 C124 1.383 . S
C125 C126 1.394 . S
C126 C125 1.394 . S
C126 C127 1.378 . S
C126 H154 0.931 . S
C127 C122 1.377 . S
C127 C126 1.378 . S
C127 H155 0.931 . S
C128 O142 1.259 . S
C128 O143 1.270 . S
C129 O144 1.251 . S
C129 O145 1.251 . S
C130 Eu131 2.835 1_554 S
C130 C132 1.500 . S
C130 O146 1.257 . S
C130 O147 1.260 . S
Eu131 C130 2.835 1_556 S
Eu131 O143 2.355 . S
Eu131 O145 2.374 . S
Eu131 O146 2.473 1_556 S
Eu131 O147 2.480 1_556 S
Eu131 O148 2.430 . S
Eu131 O149 2.670 . S
Eu131 O150 2.394 . S
C132 C130 1.500 . S
C132 C133 1.377 . S
C132 C137 1.377 . S
C133 C132 1.377 . S
C133 C134 1.395 . S
C133 H156 0.931 . S
C134 C133 1.395 . S
C134 C135 1.383 . S
C134 H157 0.931 . S
C135 C134 1.383 . S
C135 C136 1.394 . S
C136 C135 1.394 . S
C136 C137 1.378 . S
C136 H158 0.931 . S
C137 C132 1.377 . S
C137 C136 1.378 . S
C137 H159 0.931 . S
C138 O148 1.259 . S
C138 O149 1.270 . S
C139 O150 1.251 . S
C139 O151 1.251 . S
O140 C120 1.257 . S
O140 Eu121 2.473 . S
O141 C120 1.260 . S
O141 Eu121 2.480 . S
O142 Eu121 2.430 . S
O142 C128 1.259 . S
O143 Eu121 2.670 . S
O143 C128 1.270 . S
O143 Eu131 2.355 . S
O144 Eu121 2.394 . S
O144 C129 1.251 . S
O145 C129 1.251 . S
O145 Eu131 2.374 . S
O146 C130 1.257 . S
O146 Eu131 2.473 1_554 S
O147 C130 1.260 . S
O147 Eu131 2.480 1_554 S
O148 Eu131 2.430 . S
O148 C138 1.259 . S
O149 Eu121 2.355 . S
O149 Eu131 2.670 . S
O149 C138 1.270 . S
O150 Eu131 2.394 . S
O150 C139 1.251 . S
O151 Eu121 2.374 . S
O151 C139 1.251 . S
H152 C123 0.931 . S
H153 C124 0.931 . S
H154 C126 0.931 . S
H155 C127 0.931 . S
H156 C133 0.931 . S
H157 C134 0.931 . S
H158 C136 0.931 . S
H159 C137 0.931 . S
C160 Eu161 2.835 . S
C160 C162 1.500 . S
C160 O180 1.257 . S
C160 O181 1.260 . S
Eu161 C160 2.835 . S
Eu161 O180 2.473 . S
Eu161 O181 2.480 . S
Eu161 O182 2.430 . S
Eu161 O183 2.670 . S
Eu161 O184 2.394 . S
Eu161 O189 2.355 . S
Eu161 O191 2.374 . S
C162 C160 1.500 . S
C162 C163 1.377 . S
C162 C167 1.377 . S
C163 C162 1.377 . S
C163 C164 1.395 . S
C163 H192 0.931 . S
C164 C163 1.395 . S
C164 C165 1.383 . S
C164 H193 0.931 . S
C165 C164 1.383 . S
C165 C166 1.394 . S
C166 C165 1.394 . S
C166 C167 1.378 . S
C166 H194 0.931 . S
C167 C162 1.377 . S
C167 C166 1.378 . S
C167 H195 0.931 . S
C168 O182 1.259 . S
C168 O183 1.270 . S
C169 O184 1.251 . S
C169 O185 1.251 . S
C170 Eu171 2.835 1_556 S
C170 C172 1.500 . S
C170 O186 1.257 . S
C170 O187 1.260 . S
Eu171 C170 2.835 1_554 S
Eu171 O183 2.355 . S
Eu171 O185 2.374 . S
Eu171 O186 2.473 1_554 S
Eu171 O187 2.480 1_554 S
Eu171 O188 2.430 . S
Eu171 O189 2.670 . S
Eu171 O190 2.394 . S
C172 C170 1.500 . S
C172 C173 1.377 . S
C172 C177 1.377 . S
C173 C172 1.377 . S
C173 C174 1.395 . S
C173 H196 0.931 . S
C174 C173 1.395 . S
C174 C175 1.383 . S
C174 H197 0.931 . S
C175 C174 1.383 . S
C175 C176 1.394 . S
C176 C175 1.394 . S
C176 C177 1.378 . S
C176 H198 0.931 . S
C177 C172 1.377 . S
C177 C176 1.378 . S
C177 H199 0.931 . S
C178 O188 1.259 . S
C178 O189 1.270 . S
C179 O190 1.251 . S
C179 O191 1.251 . S
O180 C160 1.257 . S
O180 Eu161 2.473 . S
O181 C160 1.260 . S
O181 Eu161 2.480 . S
O182 Eu161 2.430 . S
O182 C168 1.259 . S
O183 Eu161 2.670 . S
O183 C168 1.270 . S
O183 Eu171 2.355 . S
O184 Eu161 2.394 . S
O184 C169 1.251 . S
O185 C169 1.251 . S
O185 Eu171 2.374 . S
O186 C170 1.257 . S
O186 Eu171 2.473 1_556 S
O187 C170 1.260 . S
O187 Eu171 2.480 1_556 S
O188 Eu171 2.430 . S
O188 C178 1.259 . S
O189 Eu161 2.355 . S
O189 Eu171 2.670 . S
O189 C178 1.270 . S
O190 Eu171 2.394 . S
O190 C179 1.251 . S
O191 Eu161 2.374 . S
O191 C179 1.251 . S
H192 C163 0.931 . S
H193 C164 0.931 . S
H194 C166 0.931 . S
H195 C167 0.931 . S
H196 C173 0.931 . S
H197 C174 0.931 . S
H198 C176 0.931 . S
H199 C177 0.931 . S
C200 Eu201 2.835 1_554 S
C200 C202 1.500 . S
C200 O220 1.257 . S
C200 O221 1.260 . S
Eu201 C200 2.835 1_556 S
Eu201 O220 2.473 1_556 S
Eu201 O221 2.480 1_556 S
Eu201 O222 2.430 . S
Eu201 O223 2.670 . S
Eu201 O224 2.394 . S
Eu201 O229 2.355 . S
Eu201 O231 2.374 . S
C202 C200 1.500 . S
C202 C203 1.377 . S
C202 C207 1.377 . S
C203 C202 1.377 . S
C203 C204 1.395 . S
C203 H232 0.931 . S
C204 C203 1.395 . S
C204 C205 1.383 . S
C204 H233 0.931 . S
C205 C204 1.383 . S
C205 C206 1.394 . S
C206 C205 1.394 . S
C206 C207 1.378 . S
C206 H234 0.931 . S
C207 C202 1.377 . S
C207 C206 1.378 . S
C207 H235 0.931 . S
C208 O222 1.259 . S
C208 O223 1.270 . S
C209 O224 1.251 . S
C209 O225 1.251 . S
C210 Eu211 2.835 . S
C210 C212 1.500 . S
C210 O226 1.257 . S
C210 O227 1.260 . S
Eu211 C210 2.835 . S
Eu211 O223 2.355 . S
Eu211 O225 2.374 . S
Eu211 O226 2.473 . S
Eu211 O227 2.480 . S
Eu211 O228 2.430 . S
Eu211 O229 2.670 . S
Eu211 O230 2.394 . S
C212 C210 1.500 . S
C212 C213 1.377 . S
C212 C217 1.377 . S
C213 C212 1.377 . S
C213 C214 1.395 . S
C213 H236 0.931 . S
C214 C213 1.395 . S
C214 C215 1.383 . S
C214 H237 0.931 . S
C215 C214 1.383 . S
C215 C216 1.394 . S
C216 C215 1.394 . S
C216 C217 1.378 . S
C216 H238 0.931 . S
C217 C212 1.377 . S
C217 C216 1.378 . S
C217 H239 0.931 . S
C218 O228 1.259 . S
C218 O229 1.270 . S
C219 O230 1.251 . S
C219 O231 1.251 . S
O220 C200 1.257 . S
O220 Eu201 2.473 1_554 S
O221 C200 1.260 . S
O221 Eu201 2.480 1_554 S
O222 Eu201 2.430 . S
O222 C208 1.259 . S
O223 Eu201 2.670 . S
O223 C208 1.270 . S
O223 Eu211 2.355 . S
O224 Eu201 2.394 . S
O224 C209 1.251 . S
O225 C209 1.251 . S
O225 Eu211 2.374 . S
O226 C210 1.257 . S
O226 Eu211 2.473 . S
O227 C210 1.260 . S
O227 Eu211 2.480 . S
O228 Eu211 2.430 . S
O228 C218 1.259 . S
O229 Eu201 2.355 . S
O229 Eu211 2.670 . S
O229 C218 1.270 . S
O230 Eu211 2.394 . S
O230 C219 1.251 . S
O231 Eu201 2.374 . S
O231 C219 1.251 . S
H232 C203 0.931 . S
H233 C204 0.931 . S
H234 C206 0.931 . S
H235 C207 0.931 . S
H236 C213 0.931 . S
H237 C214 0.931 . S
H238 C216 0.931 . S
H239 C217 0.931 . S
C240 Eu241 2.835 . S
C240 C242 1.500 . S
C240 O260 1.257 . S
C240 O261 1.260 . S
Eu241 C240 2.835 . S
Eu241 O260 2.473 . S
Eu241 O261 2.480 . S
Eu241 O262 2.430 . S
Eu241 O263 2.670 . S
Eu241 O264 2.394 . S
Eu241 O269 2.355 . S
Eu241 O271 2.374 . S
C242 C240 1.500 . S
C242 C243 1.377 . S
C242 C247 1.377 . S
C243 C242 1.377 . S
C243 C244 1.395 . S
C243 H272 0.931 . S
C244 C243 1.395 . S
C244 C245 1.383 . S
C244 H273 0.931 . S
C245 C244 1.383 . S
C245 C246 1.394 . S
C246 C245 1.394 . S
C246 C247 1.378 . S
C246 H274 0.931 . S
C247 C242 1.377 . S
C247 C246 1.378 . S
C247 H275 0.931 . S
C248 O262 1.259 . S
C248 O263 1.270 . S
C249 O264 1.251 . S
C249 O265 1.251 . S
C250 Eu251 2.835 1_556 S
C250 C252 1.500 . S
C250 O266 1.257 . S
C250 O267 1.260 . S
Eu251 C250 2.835 1_554 S
Eu251 O263 2.355 . S
Eu251 O265 2.374 . S
Eu251 O266 2.473 1_554 S
Eu251 O267 2.480 1_554 S
Eu251 O268 2.430 . S
Eu251 O269 2.670 . S
Eu251 O270 2.394 . S
C252 C250 1.500 . S
C252 C253 1.377 . S
C252 C257 1.377 . S
C253 C252 1.377 . S
C253 C254 1.395 . S
C253 H276 0.931 . S
C254 C253 1.395 . S
C254 C255 1.383 . S
C254 H277 0.931 . S
C255 C254 1.383 . S
C255 C256 1.394 . S
C256 C255 1.394 . S
C256 C257 1.378 . S
C256 H278 0.931 . S
C257 C252 1.377 . S
C257 C256 1.378 . S
C257 H279 0.931 . S
C258 O268 1.259 . S
C258 O269 1.270 . S
C259 O270 1.251 . S
C259 O271 1.251 . S
O260 C240 1.257 . S
O260 Eu241 2.473 . S
O261 C240 1.260 . S
O261 Eu241 2.480 . S
O262 Eu241 2.430 . S
O262 C248 1.259 . S
O263 Eu241 2.670 . S
O263 C248 1.270 . S
O263 Eu251 2.355 . S
O264 Eu241 2.394 . S
O264 C249 1.251 . S
O265 C249 1.251 . S
O265 Eu251 2.374 . S
O266 C250 1.257 . S
O266 Eu251 2.473 1_556 S
O267 C250 1.260 . S
O267 Eu251 2.480 1_556 S
O268 Eu251 2.430 . S
O268 C258 1.259 . S
O269 Eu241 2.355 . S
O269 Eu251 2.670 . S
O269 C258 1.270 . S
O270 Eu251 2.394 . S
O270 C259 1.251 . S
O271 Eu241 2.374 . S
O271 C259 1.251 . S
H272 C243 0.931 . S
H273 C244 0.931 . S
H274 C246 0.931 . S
H275 C247 0.931 . S
H276 C253 0.931 . S
H277 C254 0.931 . S
H278 C256 0.931 . S
H279 C257 0.931 . S
C280 Eu281 2.835 1_554 S
C280 C282 1.500 . S
C280 O300 1.257 . S
C280 O301 1.260 . S
Eu281 C280 2.835 1_556 S
Eu281 O300 2.473 1_556 S
Eu281 O301 2.480 1_556 S
Eu281 O302 2.430 . S
Eu281 O303 2.670 . S
Eu281 O304 2.394 . S
Eu281 O309 2.355 . S
Eu281 O311 2.374 . S
C282 C280 1.500 . S
C282 C283 1.377 . S
C282 C287 1.377 . S
C283 C282 1.377 . S
C283 C284 1.395 . S
C283 H312 0.931 . S
C284 C283 1.395 . S
C284 C285 1.383 . S
C284 H313 0.931 . S
C285 C284 1.383 . S
C285 C286 1.394 . S
C286 C285 1.394 . S
C286 C287 1.378 . S
C286 H314 0.931 . S
C287 C282 1.377 . S
C287 C286 1.378 . S
C287 H315 0.931 . S
C288 O302 1.259 . S
C288 O303 1.270 . S
C289 O304 1.251 . S
C289 O305 1.251 . S
C290 Eu291 2.835 . S
C290 C292 1.500 . S
C290 O306 1.257 . S
C290 O307 1.260 . S
Eu291 C290 2.835 . S
Eu291 O303 2.355 . S
Eu291 O305 2.374 . S
Eu291 O306 2.473 . S
Eu291 O307 2.480 . S
Eu291 O308 2.430 . S
Eu291 O309 2.670 . S
Eu291 O310 2.394 . S
C292 C290 1.500 . S
C292 C293 1.377 . S
C292 C297 1.377 . S
C293 C292 1.377 . S
C293 C294 1.395 . S
C293 H316 0.931 . S
C294 C293 1.395 . S
C294 C295 1.383 . S
C294 H317 0.931 . S
C295 C294 1.383 . S
C295 C296 1.394 . S
C296 C295 1.394 . S
C296 C297 1.378 . S
C296 H318 0.931 . S
C297 C292 1.377 . S
C297 C296 1.378 . S
C297 H319 0.931 . S
C298 O308 1.259 . S
C298 O309 1.270 . S
C299 O310 1.251 . S
C299 O311 1.251 . S
O300 C280 1.257 . S
O300 Eu281 2.473 1_554 S
O301 C280 1.260 . S
O301 Eu281 2.480 1_554 S
O302 Eu281 2.430 . S
O302 C288 1.259 . S
O303 Eu281 2.670 . S
O303 C288 1.270 . S
O303 Eu291 2.355 . S
O304 Eu281 2.394 . S
O304 C289 1.251 . S
O305 C289 1.251 . S
O305 Eu291 2.374 . S
O306 C290 1.257 . S
O306 Eu291 2.473 . S
O307 C290 1.260 . S
O307 Eu291 2.480 . S
O308 Eu291 2.430 . S
O308 C298 1.259 . S
O309 Eu281 2.355 . S
O309 Eu291 2.670 . S
O309 C298 1.270 . S
O310 Eu291 2.394 . S
O310 C299 1.251 . S
O311 Eu281 2.374 . S
O311 C299 1.251 . S
H312 C283 0.931 . S
H313 C284 0.931 . S
H314 C286 0.931 . S
H315 C287 0.931 . S
H316 C293 0.931 . S
H317 C294 0.931 . S
H318 C296 0.931 . S
H319 C297 0.931 . S
C320 Eu321 2.835 . S
C320 C322 1.500 . S
C320 O340 1.257 . S
C320 O341 1.260 . S
Eu321 C320 2.835 . S
Eu321 O340 2.473 . S
Eu321 O341 2.480 . S
Eu321 O342 2.430 . S
Eu321 O343 2.670 . S
Eu321 O344 2.394 . S
Eu321 O349 2.355 . S
Eu321 O351 2.374 . S
C322 C320 1.500 . S
C322 C323 1.377 . S
C322 C327 1.377 . S
C323 C322 1.377 . S
C323 C324 1.395 . S
C323 H352 0.931 . S
C324 C323 1.395 . S
C324 C325 1.383 . S
C324 H353 0.931 . S
C325 C324 1.383 . S
C325 C326 1.394 . S
C326 C325 1.394 . S
C326 C327 1.378 . S
C326 H354 0.931 . S
C327 C322 1.377 . S
C327 C326 1.378 . S
C327 H355 0.931 . S
C328 O342 1.259 . S
C328 O343 1.270 . S
C329 O344 1.251 . S
C329 O345 1.251 . S
C330 Eu331 2.835 . S
C330 C332 1.500 . S
C330 O346 1.257 . S
C330 O347 1.260 . S
Eu331 C330 2.835 . S
Eu331 O343 2.355 . S
Eu331 O345 2.374 . S
Eu331 O346 2.473 . S
Eu331 O347 2.480 . S
Eu331 O348 2.430 . S
Eu331 O349 2.670 . S
Eu331 O350 2.394 . S
C332 C330 1.500 . S
C332 C333 1.377 . S
C332 C337 1.377 . S
C333 C332 1.377 . S
C333 C334 1.395 . S
C333 H356 0.931 . S
C334 C333 1.395 . S
C334 C335 1.383 . S
C334 H357 0.931 . S
C335 C334 1.383 . S
C335 C336 1.394 . S
C336 C335 1.394 . S
C336 C337 1.378 . S
C336 H358 0.931 . S
C337 C332 1.377 . S
C337 C336 1.378 . S
C337 H359 0.931 . S
C338 O348 1.259 . S
C338 O349 1.270 . S
C339 O350 1.251 . S
C339 O351 1.251 . S
O340 C320 1.257 . S
O340 Eu321 2.473 . S
O341 C320 1.260 . S
O341 Eu321 2.480 . S
O342 Eu321 2.430 . S
O342 C328 1.259 . S
O343 Eu321 2.670 . S
O343 C328 1.270 . S
O343 Eu331 2.355 . S
O344 Eu321 2.394 . S
O344 C329 1.251 . S
O345 C329 1.251 . S
O345 Eu331 2.374 . S
O346 C330 1.257 . S
O346 Eu331 2.473 . S
O347 C330 1.260 . S
O347 Eu331 2.480 . S
O348 Eu331 2.430 . S
O348 C338 1.259 . S
O349 Eu321 2.355 . S
O349 Eu331 2.670 . S
O349 C338 1.270 . S
O350 Eu331 2.394 . S
O350 C339 1.251 . S
O351 Eu321 2.374 . S
O351 C339 1.251 . S
H352 C323 0.931 . S
H353 C324 0.931 . S
H354 C326 0.931 . S
H355 C327 0.931 . S
H356 C333 0.931 . S
H357 C334 0.931 . S
H358 C336 0.931 . S
H359 C337 0.931 . S
C360 Eu361 2.835 . S
C360 C362 1.500 . S
C360 O380 1.257 . S
C360 O381 1.260 . S
Eu361 C360 2.835 . S
Eu361 O380 2.473 . S
Eu361 O381 2.480 . S
Eu361 O382 2.430 . S
Eu361 O383 2.670 . S
Eu361 O384 2.394 . S
Eu361 O389 2.355 . S
Eu361 O391 2.374 . S
C362 C360 1.500 . S
C362 C363 1.377 . S
C362 C367 1.377 . S
C363 C362 1.377 . S
C363 C364 1.395 . S
C363 H392 0.931 . S
C364 C363 1.395 . S
C364 C365 1.383 . S
C364 H393 0.931 . S
C365 C364 1.383 . S
C365 C366 1.394 . S
C366 C365 1.394 . S
C366 C367 1.378 . S
C366 H394 0.931 . S
C367 C362 1.377 . S
C367 C366 1.378 . S
C367 H395 0.931 . S
C368 O382 1.259 . S
C368 O383 1.270 . S
C369 O384 1.251 . S
C369 O385 1.251 . S
C370 Eu371 2.835 . S
C370 C372 1.500 . S
C370 O386 1.257 . S
C370 O387 1.260 . S
Eu371 C370 2.835 . S
Eu371 O383 2.355 . S
Eu371 O385 2.374 . S
Eu371 O386 2.473 . S
Eu371 O387 2.480 . S
Eu371 O388 2.430 . S
Eu371 O389 2.670 . S
Eu371 O390 2.394 . S
C372 C370 1.500 . S
C372 C373 1.377 . S
C372 C377 1.377 . S
C373 C372 1.377 . S
C373 C374 1.395 . S
C373 H396 0.931 . S
C374 C373 1.395 . S
C374 C375 1.383 . S
C374 H397 0.931 . S
C375 C374 1.383 . S
C375 C376 1.394 . S
C376 C375 1.394 . S
C376 C377 1.378 . S
C376 H398 0.931 . S
C377 C372 1.377 . S
C377 C376 1.378 . S
C377 H399 0.931 . S
C378 O388 1.259 . S
C378 O389 1.270 . S
C379 O390 1.251 . S
C379 O391 1.251 . S
O380 C360 1.257 . S
O380 Eu361 2.473 . S
O381 C360 1.260 . S
O381 Eu361 2.480 . S
O382 Eu361 2.430 . S
O382 C368 1.259 . S
O383 Eu361 2.670 . S
O383 C368 1.270 . S
O383 Eu371 2.355 . S
O384 Eu361 2.394 . S
O384 C369 1.251 . S
O385 C369 1.251 . S
O385 Eu371 2.374 . S
O386 C370 1.257 . S
O386 Eu371 2.473 . S
O387 C370 1.260 . S
O387 Eu371 2.480 . S
O388 Eu371 2.430 . S
O388 C378 1.259 . S
O389 Eu361 2.355 . S
O389 Eu371 2.670 . S
O389 C378 1.270 . S
O390 Eu371 2.394 . S
O390 C379 1.251 . S
O391 Eu361 2.374 . S
O391 C379 1.251 . S
H392 C363 0.931 . S
H393 C364 0.931 . S
H394 C366 0.931 . S
H395 C367 0.931 . S
H396 C373 0.931 . S
H397 C374 0.931 . S
H398 C376 0.931 . S
H399 C377 0.931 . S
C400 Eu401 2.835 . S
C400 C402 1.500 . S
C400 O420 1.257 . S
C400 O421 1.260 . S
Eu401 C400 2.835 . S
Eu401 O420 2.473 . S
Eu401 O421 2.480 . S
Eu401 O422 2.430 . S
Eu401 O423 2.670 . S
Eu401 O424 2.394 . S
Eu401 O429 2.355 . S
Eu401 O431 2.374 . S
C402 C400 1.500 . S
C402 C403 1.377 . S
C402 C407 1.377 . S
C403 C402 1.377 . S
C403 C404 1.395 . S
C403 H432 0.931 . S
C404 C403 1.395 . S
C404 C405 1.383 . S
C404 H433 0.931 . S
C405 C404 1.383 . S
C405 C406 1.394 . S
C406 C405 1.394 . S
C406 C407 1.378 . S
C406 H434 0.931 . S
C407 C402 1.377 . S
C407 C406 1.378 . S
C407 H435 0.931 . S
C408 O422 1.259 . S
C408 O423 1.270 . S
C409 O424 1.251 . S
C409 O425 1.251 . S
C410 Eu411 2.835 . S
C410 C412 1.500 . S
C410 O426 1.257 . S
C410 O427 1.260 . S
Eu411 C410 2.835 . S
Eu411 O423 2.355 . S
Eu411 O425 2.374 . S
Eu411 O426 2.473 . S
Eu411 O427 2.480 . S
Eu411 O428 2.430 . S
Eu411 O429 2.670 . S
Eu411 O430 2.394 . S
C412 C410 1.500 . S
C412 C413 1.377 . S
C412 C417 1.377 . S
C413 C412 1.377 . S
C413 C414 1.395 . S
C413 H436 0.931 . S
C414 C413 1.395 . S
C414 C415 1.383 . S
C414 H437 0.931 . S
C415 C414 1.383 . S
C415 C416 1.394 . S
C416 C415 1.394 . S
C416 C417 1.378 . S
C416 H438 0.931 . S
C417 C412 1.377 . S
C417 C416 1.378 . S
C417 H439 0.931 . S
C418 O428 1.259 . S
C418 O429 1.270 . S
C419 O430 1.251 . S
C419 O431 1.251 . S
O420 C400 1.257 . S
O420 Eu401 2.473 . S
O421 C400 1.260 . S
O421 Eu401 2.480 . S
O422 Eu401 2.430 . S
O422 C408 1.259 . S
O423 Eu401 2.670 . S
O423 C408 1.270 . S
O423 Eu411 2.355 . S
O424 Eu401 2.394 . S
O424 C409 1.251 . S
O425 C409 1.251 . S
O425 Eu411 2.374 . S
O426 C410 1.257 . S
O426 Eu411 2.473 . S
O427 C410 1.260 . S
O427 Eu411 2.480 . S
O428 Eu411 2.430 . S
O428 C418 1.259 . S
O429 Eu401 2.355 . S
O429 Eu411 2.670 . S
O429 C418 1.270 . S
O430 Eu411 2.394 . S
O430 C419 1.251 . S
O431 Eu401 2.374 . S
O431 C419 1.251 . S
H432 C403 0.931 . S
H433 C404 0.931 . S
H434 C406 0.931 . S
H435 C407 0.931 . S
H436 C413 0.931 . S
H437 C414 0.931 . S
H438 C416 0.931 . S
H439 C417 0.931 . S
C440 Eu441 2.835 . S
C440 C442 1.500 . S
C440 O460 1.257 . S
C440 O461 1.260 . S
Eu441 C440 2.835 . S
Eu441 O460 2.473 . S
Eu441 O461 2.480 . S
Eu441 O462 2.430 . S
Eu441 O463 2.670 . S
Eu441 O464 2.394 . S
Eu441 O469 2.355 . S
Eu441 O471 2.374 . S
C442 C440 1.500 . S
C442 C443 1.377 . S
C442 C447 1.377 . S
C443 C442 1.377 . S
C443 C444 1.395 . S
C443 H472 0.931 . S
C444 C443 1.395 . S
C444 C445 1.383 . S
C444 H473 0.931 . S
C445 C444 1.383 . S
C445 C446 1.394 . S
C446 C445 1.394 . S
C446 C447 1.378 . S
C446 H474 0.931 . S
C447 C442 1.377 . S
C447 C446 1.378 . S
C447 H475 0.931 . S
C448 O462 1.259 . S
C448 O463 1.270 . S
C449 O464 1.251 . S
C449 O465 1.251 . S
C450 Eu451 2.835 . S
C450 C452 1.500 . S
C450 O466 1.257 . S
C450 O467 1.260 . S
Eu451 C450 2.835 . S
Eu451 O463 2.355 . S
Eu451 O465 2.374 . S
Eu451 O466 2.473 . S
Eu451 O467 2.480 . S
Eu451 O468 2.430 . S
Eu451 O469 2.670 . S
Eu451 O470 2.394 . S
C452 C450 1.500 . S
C452 C453 1.377 . S
C452 C457 1.377 . S
C453 C452 1.377 . S
C453 C454 1.395 . S
C453 H476 0.931 . S
C454 C453 1.395 . S
C454 C455 1.383 . S
C454 H477 0.931 . S
C455 C454 1.383 . S
C455 C456 1.394 . S
C456 C455 1.394 . S
C456 C457 1.378 . S
C456 H478 0.931 . S
C457 C452 1.377 . S
C457 C456 1.378 . S
C457 H479 0.931 . S
C458 O468 1.259 . S
C458 O469 1.270 . S
C459 O470 1.251 . S
C459 O471 1.251 . S
O460 C440 1.257 . S
O460 Eu441 2.473 . S
O461 C440 1.260 . S
O461 Eu441 2.480 . S
O462 Eu441 2.430 . S
O462 C448 1.259 . S
O463 Eu441 2.670 . S
O463 C448 1.270 . S
O463 Eu451 2.355 . S
O464 Eu441 2.394 . S
O464 C449 1.251 . S
O465 C449 1.251 . S
O465 Eu451 2.374 . S
O466 C450 1.257 . S
O466 Eu451 2.473 . S
O467 C450 1.260 . S
O467 Eu451 2.480 . S
O468 Eu451 2.430 . S
O468 C458 1.259 . S
O469 Eu441 2.355 . S
O469 Eu451 2.670 . S
O469 C458 1.270 . S
O470 Eu451 2.394 . S
O470 C459 1.251 . S
O471 Eu441 2.374 . S
O471 C459 1.251 . S
H472 C443 0.931 . S
H473 C444 0.931 . S
H474 C446 0.931 . S
H475 C447 0.931 . S
H476 C453 0.931 . S
H477 C454 0.931 . S
H478 C456 0.931 . S
H479 C457 0.931 . S
C480 Eu481 2.835 . S
C480 C482 1.500 . S
C480 O500 1.257 . S
C480 O501 1.260 . S
Eu481 C480 2.835 . S
Eu481 O500 2.473 . S
Eu481 O501 2.480 . S
Eu481 O502 2.430 . S
Eu481 O503 2.670 . S
Eu481 O504 2.394 . S
Eu481 O509 2.355 . S
Eu481 O511 2.374 . S
C482 C480 1.500 . S
C482 C483 1.377 . S
C482 C487 1.377 . S
C483 C482 1.377 . S
C483 C484 1.395 . S
C483 H512 0.931 . S
C484 C483 1.395 . S
C484 C485 1.383 . S
C484 H513 0.931 . S
C485 C484 1.383 . S
C485 C486 1.394 . S
C486 C485 1.394 . S
C486 C487 1.378 . S
C486 H514 0.931 . S
C487 C482 1.377 . S
C487 C486 1.378 . S
C487 H515 0.931 . S
C488 O502 1.259 . S
C488 O503 1.270 . S
C489 O504 1.251 . S
C489 O505 1.251 . S
C490 Eu491 2.835 . S
C490 C492 1.500 . S
C490 O506 1.257 . S
C490 O507 1.260 . S
Eu491 C490 2.835 . S
Eu491 O503 2.355 . S
Eu491 O505 2.374 . S
Eu491 O506 2.473 . S
Eu491 O507 2.480 . S
Eu491 O508 2.430 . S
Eu491 O509 2.670 . S
Eu491 O510 2.394 . S
C492 C490 1.500 . S
C492 C493 1.377 . S
C492 C497 1.377 . S
C493 C492 1.377 . S
C493 C494 1.395 . S
C493 H516 0.931 . S
C494 C493 1.395 . S
C494 C495 1.383 . S
C494 H517 0.931 . S
C495 C494 1.383 . S
C495 C496 1.394 . S
C496 C495 1.394 . S
C496 C497 1.378 . S
C496 H518 0.931 . S
C497 C492 1.377 . S
C497 C496 1.378 . S
C497 H519 0.931 . S
C498 O508 1.259 . S
C498 O509 1.270 . S
C499 O510 1.251 . S
C499 O511 1.251 . S
O500 C480 1.257 . S
O500 Eu481 2.473 . S
O501 C480 1.260 . S
O501 Eu481 2.480 . S
O502 Eu481 2.430 . S
O502 C488 1.259 . S
O503 Eu481 2.670 . S
O503 C488 1.270 . S
O503 Eu491 2.355 . S
O504 Eu481 2.394 . S
O504 C489 1.251 . S
O505 C489 1.251 . S
O505 Eu491 2.374 . S
O506 C490 1.257 . S
O506 Eu491 2.473 . S
O507 C490 1.260 . S
O507 Eu491 2.480 . S
O508 Eu491 2.430 . S
O508 C498 1.259 . S
O509 Eu481 2.355 . S
O509 Eu491 2.670 . S
O509 C498 1.270 . S
O510 Eu491 2.394 . S
O510 C499 1.251 . S
O511 Eu481 2.374 . S
O511 C499 1.251 . S
H512 C483 0.931 . S
H513 C484 0.931 . S
H514 C486 0.931 . S
H515 C487 0.931 . S
H516 C493 0.931 . S
H517 C494 0.931 . S
H518 C496 0.931 . S
H519 C497 0.931 . S
C520 Eu521 2.835 . S
C520 C522 1.500 . S
C520 O540 1.257 . S
C520 O541 1.260 . S
Eu521 C520 2.835 . S
Eu521 O540 2.473 . S
Eu521 O541 2.480 . S
Eu521 O542 2.430 . S
Eu521 O543 2.670 . S
Eu521 O544 2.394 . S
Eu521 O549 2.355 . S
Eu521 O551 2.374 . S
C522 C520 1.500 . S
C522 C523 1.377 . S
C522 C527 1.377 . S
C523 C522 1.377 . S
C523 C524 1.395 . S
C523 H552 0.931 . S
C524 C523 1.395 . S
C524 C525 1.383 . S
C524 H553 0.931 . S
C525 C524 1.383 . S
C525 C526 1.394 . S
C526 C525 1.394 . S
C526 C527 1.378 . S
C526 H554 0.931 . S
C527 C522 1.377 . S
C527 C526 1.378 . S
C527 H555 0.931 . S
C528 O542 1.259 . S
C528 O543 1.270 . S
C529 O544 1.251 . S
C529 O545 1.251 . S
C530 Eu531 2.835 . S
C530 C532 1.500 . S
C530 O546 1.257 . S
C530 O547 1.260 . S
Eu531 C530 2.835 . S
Eu531 O543 2.355 . S
Eu531 O545 2.374 . S
Eu531 O546 2.473 . S
Eu531 O547 2.480 . S
Eu531 O548 2.430 . S
Eu531 O549 2.670 . S
Eu531 O550 2.394 . S
C532 C530 1.500 . S
C532 C533 1.377 . S
C532 C537 1.377 . S
C533 C532 1.377 . S
C533 C534 1.395 . S
C533 H556 0.931 . S
C534 C533 1.395 . S
C534 C535 1.383 . S
C534 H557 0.931 . S
C535 C534 1.383 . S
C535 C536 1.394 . S
C536 C535 1.394 . S
C536 C537 1.378 . S
C536 H558 0.931 . S
C537 C532 1.377 . S
C537 C536 1.378 . S
C537 H559 0.931 . S
C538 O548 1.259 . S
C538 O549 1.270 . S
C539 O550 1.251 . S
C539 O551 1.251 . S
O540 C520 1.257 . S
O540 Eu521 2.473 . S
O541 C520 1.260 . S
O541 Eu521 2.480 . S
O542 Eu521 2.430 . S
O542 C528 1.259 . S
O543 Eu521 2.670 . S
O543 C528 1.270 . S
O543 Eu531 2.355 . S
O544 Eu521 2.394 . S
O544 C529 1.251 . S
O545 C529 1.251 . S
O545 Eu531 2.374 . S
O546 C530 1.257 . S
O546 Eu531 2.473 . S
O547 C530 1.260 . S
O547 Eu531 2.480 . S
O548 Eu531 2.430 . S
O548 C538 1.259 . S
O549 Eu521 2.355 . S
O549 Eu531 2.670 . S
O549 C538 1.270 . S
O550 Eu531 2.394 . S
O550 C539 1.251 . S
O551 Eu521 2.374 . S
O551 C539 1.251 . S
H552 C523 0.931 . S
H553 C524 0.931 . S
H554 C526 0.931 . S
H555 C527 0.931 . S
H556 C533 0.931 . S
H557 C534 0.931 . S
H558 C536 0.931 . S
H559 C537 0.931 . S
C560 Eu561 2.835 . S
C560 C562 1.500 . S
C560 O580 1.257 . S
C560 O581 1.260 . S
Eu561 C560 2.835 . S
Eu561 O580 2.473 . S
Eu561 O581 2.480 . S
Eu561 O582 2.430 . S
Eu561 O583 2.670 . S
Eu561 O584 2.394 . S
Eu561 O589 2.355 . S
Eu561 O591 2.374 . S
C562 C560 1.500 . S
C562 C563 1.377 . S
C562 C567 1.377 . S
C563 C562 1.377 . S
C563 C564 1.395 . S
C563 H592 0.931 . S
C564 C563 1.395 . S
C564 C565 1.383 . S
C564 H593 0.931 . S
C565 C564 1.383 . S
C565 C566 1.394 . S
C566 C565 1.394 . S
C566 C567 1.378 . S
C566 H594 0.931 . S
C567 C562 1.377 . S
C567 C566 1.378 . S
C567 H595 0.931 . S
C568 O582 1.259 . S
C568 O583 1.270 . S
C569 O584 1.251 . S
C569 O585 1.251 . S
C570 Eu571 2.835 . S
C570 C572 1.500 . S
C570 O586 1.257 . S
C570 O587 1.260 . S
Eu571 C570 2.835 . S
Eu571 O583 2.355 . S
Eu571 O585 2.374 . S
Eu571 O586 2.473 . S
Eu571 O587 2.480 . S
Eu571 O588 2.430 . S
Eu571 O589 2.670 . S
Eu571 O590 2.394 . S
C572 C570 1.500 . S
C572 C573 1.377 . S
C572 C577 1.377 . S
C573 C572 1.377 . S
C573 C574 1.395 . S
C573 H596 0.931 . S
C574 C573 1.395 . S
C574 C575 1.383 . S
C574 H597 0.931 . S
C575 C574 1.383 . S
C575 C576 1.394 . S
C576 C575 1.394 . S
C576 C577 1.378 . S
C576 H598 0.931 . S
C577 C572 1.377 . S
C577 C576 1.378 . S
C577 H599 0.931 . S
C578 O588 1.259 . S
C578 O589 1.270 . S
C579 O590 1.251 . S
C579 O591 1.251 . S
O580 C560 1.257 . S
O580 Eu561 2.473 . S
O581 C560 1.260 . S
O581 Eu561 2.480 . S
O582 Eu561 2.430 . S
O582 C568 1.259 . S
O583 Eu561 2.670 . S
O583 C568 1.270 . S
O583 Eu571 2.355 . S
O584 Eu561 2.394 . S
O584 C569 1.251 . S
O585 C569 1.251 . S
O585 Eu571 2.374 . S
O586 C570 1.257 . S
O586 Eu571 2.473 . S
O587 C570 1.260 . S
O587 Eu571 2.480 . S
O588 Eu571 2.430 . S
O588 C578 1.259 . S
O589 Eu561 2.355 . S
O589 Eu571 2.670 . S
O589 C578 1.270 . S
O590 Eu571 2.394 . S
O590 C579 1.251 . S
O591 Eu561 2.374 . S
O591 C579 1.251 . S
H592 C563 0.931 . S
H593 C564 0.931 . S
H594 C566 0.931 . S
H595 C567 0.931 . S
H596 C573 0.931 . S
H597 C574 0.931 . S
H598 C576 0.931 . S
H599 C577 0.931 . S
C600 Eu601 2.835 . S
C600 C602 1.500 . S
C600 O620 1.257 . S
C600 O621 1.260 . S
Eu601 C600 2.835 . S
Eu601 O620 2.473 . S
Eu601 O621 2.480 . S
Eu601 O622 2.430 . S
Eu601 O623 2.670 . S
Eu601 O624 2.394 . S
Eu601 O629 2.355 . S
Eu601 O631 2.374 . S
C602 C600 1.500 . S
C602 C603 1.377 . S
C602 C607 1.377 . S
C603 C602 1.377 . S
C603 C604 1.395 . S
C603 H632 0.931 . S
C604 C603 1.395 . S
C604 C605 1.383 . S
C604 H633 0.931 . S
C605 C604 1.383 . S
C605 C606 1.394 . S
C606 C605 1.394 . S
C606 C607 1.378 . S
C606 H634 0.931 . S
C607 C602 1.377 . S
C607 C606 1.378 . S
C607 H635 0.931 . S
C608 O622 1.259 . S
C608 O623 1.270 . S
C609 O624 1.251 . S
C609 O625 1.251 . S
C610 Eu611 2.835 . S
C610 C612 1.500 . S
C610 O626 1.257 . S
C610 O627 1.260 . S
Eu611 C610 2.835 . S
Eu611 O623 2.355 . S
Eu611 O625 2.374 . S
Eu611 O626 2.473 . S
Eu611 O627 2.480 . S
Eu611 O628 2.430 . S
Eu611 O629 2.670 . S
Eu611 O630 2.394 . S
C612 C610 1.500 . S
C612 C613 1.377 . S
C612 C617 1.377 . S
C613 C612 1.377 . S
C613 C614 1.395 . S
C613 H636 0.931 . S
C614 C613 1.395 . S
C614 C615 1.383 . S
C614 H637 0.931 . S
C615 C614 1.383 . S
C615 C616 1.394 . S
C616 C615 1.394 . S
C616 C617 1.378 . S
C616 H638 0.931 . S
C617 C612 1.377 . S
C617 C616 1.378 . S
C617 H639 0.931 . S
C618 O628 1.259 . S
C618 O629 1.270 . S
C619 O630 1.251 . S
C619 O631 1.251 . S
O620 C600 1.257 . S
O620 Eu601 2.473 . S
O621 C600 1.260 . S
O621 Eu601 2.480 . S
O622 Eu601 2.430 . S
O622 C608 1.259 . S
O623 Eu601 2.670 . S
O623 C608 1.270 . S
O623 Eu611 2.355 . S
O624 Eu601 2.394 . S
O624 C609 1.251 . S
O625 C609 1.251 . S
O625 Eu611 2.374 . S
O626 C610 1.257 . S
O626 Eu611 2.473 . S
O627 C610 1.260 . S
O627 Eu611 2.480 . S
O628 Eu611 2.430 . S
O628 C618 1.259 . S
O629 Eu601 2.355 . S
O629 Eu611 2.670 . S
O629 C618 1.270 . S
O630 Eu611 2.394 . S
O630 C619 1.251 . S
O631 Eu601 2.374 . S
O631 C619 1.251 . S
H632 C603 0.931 . S
H633 C604 0.931 . S
H634 C606 0.931 . S
H635 C607 0.931 . S
H636 C613 0.931 . S
H637 C614 0.931 . S
H638 C616 0.931 . S
H639 C617 0.931 . S
H640 C652 0.930 . S
H641 C654 0.930 . S
H642 C655 0.930 . S
H643 C659 0.959 . S
H644 C659 0.959 . S
H645 C659 0.961 . S
H646 C660 0.960 . S
H647 C660 0.961 . S
H648 C660 0.959 . S
H649 C663 0.929 . S
H650 C664 0.931 . S
H651 C666 0.930 . S
C652 H640 0.930 . S
C652 C653 1.399 . S
C652 C657 1.399 . S
C653 C652 1.399 . S
C653 C654 1.376 . S
C654 H641 0.930 . S
C654 C653 1.376 . S
C654 C655 1.388 . S
C655 H642 0.930 . S
C655 C654 1.388 . S
C655 C656 1.390 . S
C656 C655 1.390 . S
C656 C657 1.394 . S
C656 C662 1.465 . S
C657 C652 1.399 . S
C657 C656 1.394 . S
C657 C658 1.516 . S
C658 C657 1.516 . S
C658 C659 1.502 . S
C658 C660 1.561 . S
C658 C661 1.526 . S
C659 H643 0.959 . S
C659 H644 0.959 . S
C659 H645 0.961 . S
C659 C658 1.502 . S
C660 H646 0.960 . S
C660 H647 0.961 . S
C660 H648 0.959 . S
C660 C658 1.561 . S
C661 C658 1.526 . S
C661 C662 1.396 . S
C661 C666 1.390 1_565 S
C662 C656 1.465 . S
C662 C661 1.396 . S
C662 C663 1.399 1_565 S
C663 H649 0.929 . S
C663 C662 1.399 1_545 S
C663 C664 1.385 . S
C664 H650 0.931 . S
C664 C663 1.385 . S
C664 C665 1.389 . S
C665 C664 1.389 . S
C665 C666 1.387 . S
C666 H651 0.930 . S
C666 C661 1.390 1_545 S
C666 C665 1.387 . S
H667 C679 0.930 . S
H668 C681 0.930 . S
H669 C682 0.930 . S
H670 C686 0.958 1_455 S
H671 C686 0.959 1_455 S
H672 C686 0.961 . S
H673 C687 0.960 . S
H674 C687 0.961 . S
H675 C687 0.959 . S
H676 C690 0.929 . S
H677 C691 0.931 . S
H678 C693 0.930 . S
C679 H667 0.930 . S
C679 C680 1.399 . S
C679 C684 1.399 . S
C680 C679 1.399 . S
C680 C681 1.376 . S
C681 H668 0.930 . S
C681 C680 1.376 . S
C681 C682 1.388 . S
C682 H669 0.930 . S
C682 C681 1.388 . S
C682 C683 1.390 . S
C683 C682 1.390 . S
C683 C684 1.394 . S
C683 C689 1.465 . S
C684 C679 1.399 . S
C684 C683 1.394 . S
C684 C685 1.516 . S
C685 C684 1.516 . S
C685 C686 1.502 . S
C685 C687 1.561 . S
C685 C688 1.526 . S
C686 H670 0.958 1_655 S
C686 H671 0.959 1_655 S
C686 H672 0.961 . S
C686 C685 1.502 . S
C687 H673 0.960 . S
C687 H674 0.961 . S
C687 H675 0.959 . S
C687 C685 1.561 . S
C688 C685 1.526 . S
C688 C689 1.396 . S
C688 C693 1.390 1_655 S
C689 C683 1.465 . S
C689 C688 1.396 . S
C689 C690 1.399 . S
C690 H676 0.929 . S
C690 C689 1.399 . S
C690 C691 1.385 1_655 S
C691 H677 0.931 . S
C691 C690 1.385 1_455 S
C691 C692 1.389 . S
C692 C691 1.389 . S
C692 C693 1.387 . S
C693 H678 0.930 . S
C693 C688 1.390 1_455 S
C693 C692 1.387 . S
H694 C706 0.930 . S
H695 C708 0.930 . S
H696 C709 0.930 . S
H697 C713 0.959 . S
H698 C713 0.959 . S
H699 C713 0.961 1_565 S
H700 C714 0.960 . S
H701 C714 0.961 . S
H702 C714 0.959 . S
H703 C717 0.929 . S
H704 C718 0.931 . S
H705 C720 0.930 . S
C706 H694 0.930 . S
C706 C707 1.399 . S
C706 C711 1.399 1_565 S
C707 C706 1.399 . S
C707 C708 1.376 . S
C708 H695 0.930 . S
C708 C707 1.376 . S
C708 C709 1.388 1_565 S
C709 H696 0.930 . S
C709 C708 1.388 1_545 S
C709 C710 1.390 . S
C710 C709 1.390 . S
C710 C711 1.394 . S
C710 C716 1.465 . S
C711 C706 1.399 1_545 S
C711 C710 1.394 . S
C711 C712 1.516 . S
C712 C711 1.516 . S
C712 C713 1.502 . S
C712 C714 1.561 . S
C712 C715 1.526 . S
C713 H697 0.959 . S
C713 H698 0.959 . S
C713 H699 0.961 1_545 S
C713 C712 1.502 . S
C714 H700 0.960 . S
C714 H701 0.961 . S
C714 H702 0.959 . S
C714 C712 1.561 . S
C715 C712 1.526 . S
C715 C716 1.396 . S
C715 C720 1.390 . S
C716 C710 1.465 . S
C716 C715 1.396 . S
C716 C717 1.399 . S
C717 H703 0.929 . S
C717 C716 1.399 . S
C717 C718 1.385 . S
C718 H704 0.931 . S
C718 C717 1.385 . S
C718 C719 1.389 . S
C719 C718 1.389 . S
C719 C720 1.387 . S
C720 H705 0.930 . S
C720 C715 1.390 . S
C720 C719 1.387 . S
H721 C733 0.930 . S
H722 C735 0.930 . S
H723 C736 0.930 . S
H724 C740 0.959 . S
H725 C740 0.959 . S
H726 C740 0.961 . S
H727 C741 0.960 . S
H728 C741 0.961 . S
H729 C741 0.959 . S
H730 C744 0.929 . S
H731 C745 0.931 . S
H732 C747 0.930 . S
C733 H721 0.930 . S
C733 C734 1.399 . S
C733 C738 1.399 1_655 S
C734 C733 1.399 . S
C734 C735 1.376 . S
C735 H722 0.930 . S
C735 C734 1.376 . S
C735 C736 1.388 . S
C736 H723 0.930 . S
C736 C735 1.388 . S
C736 C737 1.390 1_655 S
C737 C736 1.390 1_455 S
C737 C738 1.394 . S
C737 C743 1.465 . S
C738 C733 1.399 1_455 S
C738 C737 1.394 . S
C738 C739 1.516 . S
C739 C738 1.516 . S
C739 C740 1.502 . S
C739 C741 1.561 . S
C739 C742 1.526 . S
C740 H724 0.959 . S
C740 H725 0.959 . S
C740 H726 0.961 . S
C740 C739 1.502 . S
C741 H727 0.960 . S
C741 H728 0.961 . S
C741 H729 0.959 . S
C741 C739 1.561 . S
C742 C739 1.526 . S
C742 C743 1.396 . S
C742 C747 1.390 . S
C743 C737 1.465 . S
C743 C742 1.396 . S
C743 C744 1.399 . S
C744 H730 0.929 . S
C744 C743 1.399 . S
C744 C745 1.385 . S
C745 H731 0.931 . S
C745 C744 1.385 . S
C745 C746 1.389 . S
C746 C745 1.389 . S
C746 C747 1.387 . S
C747 H732 0.930 . S
C747 C742 1.390 . S
C747 C746 1.387 . S
H748 C760 0.930 . S
H749 C762 0.930 . S
H750 C763 0.930 . S
H751 C767 0.959 1_554 S
H752 C767 0.959 . S
H753 C767 0.961 1_554 S
H754 C768 0.960 . S
H755 C768 0.961 . S
H756 C768 0.959 . S
H757 C771 0.929 . S
H758 C772 0.931 . S
H759 C774 0.930 . S
C760 H748 0.930 . S
C760 C761 1.399 . S
C760 C765 1.399 . S
C761 C760 1.399 . S
C761 C762 1.376 . S
C762 H749 0.930 . S
C762 C761 1.376 . S
C762 C763 1.388 . S
C763 H750 0.930 . S
C763 C762 1.388 . S
C763 C764 1.390 . S
C764 C763 1.390 . S
C764 C765 1.394 . S
C764 C770 1.465 . S
C765 C760 1.399 . S
C765 C764 1.394 . S
C765 C766 1.516 1_554 S
C766 C765 1.516 1_556 S
C766 C767 1.502 . S
C766 C768 1.561 . S
C766 C769 1.526 . S
C767 H751 0.959 1_556 S
C767 H752 0.959 . S
C767 H753 0.961 1_556 S
C767 C766 1.502 . S
C768 H754 0.960 . S
C768 H755 0.961 . S
C768 H756 0.959 . S
C768 C766 1.561 . S
C769 C766 1.526 . S
C769 C770 1.396 1_556 S
C769 C774 1.390 . S
C770 C764 1.465 . S
C770 C769 1.396 1_554 S
C770 C771 1.399 . S
C771 H757 0.929 . S
C771 C770 1.399 . S
C771 C772 1.385 . S
C772 H758 0.931 . S
C772 C771 1.385 . S
C772 C773 1.389 1_554 S
C773 C772 1.389 1_556 S
C773 C774 1.387 . S
C774 H759 0.930 . S
C774 C769 1.390 . S
C774 C773 1.387 . S
H775 C787 0.930 . S
H776 C789 0.930 . S
H777 C790 0.930 . S
H778 C794 0.959 . S
H779 C794 0.959 . S
H780 C794 0.961 . S
H781 C795 0.960 . S
H782 C795 0.961 . S
H783 C795 0.959 1_556 S
H784 C798 0.929 . S
H785 C799 0.931 . S
H786 C801 0.930 . S
C787 H775 0.930 . S
C787 C788 1.399 . S
C787 C792 1.399 . S
C788 C787 1.399 . S
C788 C789 1.376 1_554 S
C789 H776 0.930 . S
C789 C788 1.376 1_556 S
C789 C790 1.388 . S
C790 H777 0.930 . S
C790 C789 1.388 . S
C790 C791 1.390 . S
C791 C790 1.390 . S
C791 C792 1.394 1_556 S
C791 C797 1.465 . S
C792 C787 1.399 . S
C792 C791 1.394 1_554 S
C792 C793 1.516 . S
C793 C792 1.516 . S
C793 C794 1.502 . S
C793 C795 1.561 . S
C793 C796 1.526 1_554 S
C794 H778 0.959 . S
C794 H779 0.959 . S
C794 H780 0.961 . S
C794 C793 1.502 . S
C795 H781 0.960 . S
C795 H782 0.961 . S
C795 H783 0.959 1_554 S
C795 C793 1.561 . S
C796 C793 1.526 1_556 S
C796 C797 1.396 . S
C796 C801 1.390 . S
C797 C791 1.465 . S
C797 C796 1.396 . S
C797 C798 1.399 . S
C798 H784 0.929 . S
C798 C797 1.399 . S
C798 C799 1.385 . S
C799 H785 0.931 . S
C799 C798 1.385 . S
C799 C800 1.389 . S
C800 C799 1.389 . S
C800 C801 1.387 . S
C801 H786 0.930 . S
C801 C796 1.390 . S
C801 C800 1.387 . S
H802 C814 0.930 . S
H803 C816 0.930 . S
H804 C817 0.915 1_556 S
H805 C821 0.959 . S
H806 C821 0.959 . S
H807 C821 0.961 . S
H808 C822 0.960 . S
H809 C822 0.961 . S
H810 C822 0.959 . S
H811 C825 0.929 . S
H812 C826 0.931 . S
H813 C828 0.930 . S
C814 H802 0.930 . S
C814 C815 1.399 . S
C814 C819 1.399 . S
C815 C814 1.399 . S
C815 C816 1.376 . S
C816 H803 0.930 . S
C816 C815 1.376 . S
C816 C817 1.398 . S
C817 H804 0.915 1_554 S
C817 C816 1.398 . S
C817 C818 1.395 . S
C818 C817 1.395 . S
C818 C819 1.394 . S
C818 C824 1.465 1_554 S
C819 C814 1.399 . S
C819 C818 1.394 . S
C819 C820 1.516 . S
C820 C819 1.516 . S
C820 C821 1.502 . S
C820 C822 1.561 . S
C820 C823 1.526 . S
C821 H805 0.959 . S
C821 H806 0.959 . S
C821 H807 0.961 . S
C821 C820 1.502 . S
C822 H808 0.960 . S
C822 H809 0.961 . S
C822 H810 0.959 . S
C822 C820 1.561 . S
C823 C820 1.526 . S
C823 C824 1.396 1_554 S
C823 C828 1.390 . S
C824 C818 1.465 1_556 S
C824 C823 1.396 1_556 S
C824 C825 1.399 . S
C825 H811 0.929 . S
C825 C824 1.399 . S
C825 C826 1.385 . S
C826 H812 0.931 . S
C826 C825 1.385 . S
C826 C827 1.389 . S
C827 C826 1.389 . S
C827 C828 1.387 1_556 S
C828 H813 0.930 . S
C828 C823 1.390 . S
C828 C827 1.387 1_554 S
H829 C841 0.930 . S
H830 C843 0.930 . S
H831 C844 0.930 . S
H832 C848 0.959 . S
H833 C848 0.959 . S
H834 C848 0.961 . S
H835 C849 0.960 . S
H836 C849 0.961 . S
H837 C849 0.959 . S
H838 C852 0.929 1_554 S
H839 C853 0.931 . S
H840 C855 0.930 . S
C841 H829 0.930 . S
C841 C842 1.399 1_556 S
C841 C846 1.399 . S
C842 C841 1.399 1_554 S
C842 C843 1.376 . S
C843 H830 0.930 . S
C843 C842 1.376 . S
C843 C844 1.388 . S
C844 H831 0.930 . S
C844 C843 1.388 . S
C844 C845 1.390 . S
C845 C844 1.390 . S
C845 C846 1.394 1_554 S
C845 C851 1.465 1_554 S
C846 C841 1.399 . S
C846 C845 1.394 1_556 S
C846 C847 1.516 . S
C847 C846 1.516 . S
C847 C848 1.502 . S
C847 C849 1.561 . S
C847 C850 1.526 . S
C848 H832 0.959 . S
C848 H833 0.959 . S
C848 H834 0.961 . S
C848 C847 1.502 . S
C849 H835 0.960 . S
C849 H836 0.961 . S
C849 H837 0.959 . S
C849 C847 1.561 . S
C850 C847 1.526 . S
C850 C851 1.396 . S
C850 C855 1.390 . S
C851 C845 1.465 1_556 S
C851 C850 1.396 . S
C851 C852 1.399 . S
C852 H838 0.929 1_556 S
C852 C851 1.399 . S
C852 C853 1.385 . S
C853 H839 0.931 . S
C853 C852 1.385 . S
C853 C854 1.389 . S
C854 C853 1.389 . S
C854 C855 1.387 . S
C855 H840 0.930 . S
C855 C850 1.390 . S
C855 C854 1.387 . S
H856 C868 0.930 . S
H857 C870 0.930 . S
H858 C871 0.930 . S
H859 C875 0.959 . S
H860 C875 0.959 . S
H861 C875 0.961 . S
H862 C876 0.960 . S
H863 C876 0.961 . S
H864 C876 0.959 . S
H865 C879 0.929 . S
H866 C880 0.931 . S
H867 C882 0.930 . S
C868 H856 0.930 . S
C868 C869 1.399 . S
C868 C873 1.399 . S
C869 C868 1.399 . S
C869 C870 1.376 . S
C870 H857 0.930 . S
C870 C869 1.376 . S
C870 C871 1.388 . S
C871 H858 0.930 . S
C871 C870 1.388 . S
C871 C872 1.390 . S
C872 C871 1.390 . S
C872 C873 1.394 . S
C872 C878 1.465 . S
C873 C868 1.399 . S
C873 C872 1.394 . S
C873 C874 1.516 . S
C874 C873 1.516 . S
C874 C875 1.502 . S
C874 C876 1.561 . S
C874 C877 1.526 . S
C875 H859 0.959 . S
C875 H860 0.959 . S
C875 H861 0.961 . S
C875 C874 1.502 . S
C876 H862 0.960 . S
C876 H863 0.961 . S
C876 H864 0.959 . S
C876 C874 1.561 . S
C877 C874 1.526 . S
C877 C878 1.396 . S
C877 C882 1.390 . S
C878 C872 1.465 . S
C878 C877 1.396 . S
C878 C879 1.399 . S
C879 H865 0.929 . S
C879 C878 1.399 . S
C879 C880 1.385 . S
C880 H866 0.931 . S
C880 C879 1.385 . S
C880 C881 1.389 . S
C881 C880 1.389 . S
C881 C882 1.387 . S
C882 H867 0.930 . S
C882 C877 1.390 . S
C882 C881 1.387 . S
H883 C895 0.930 . S
H884 C897 0.930 . S
H885 C898 0.930 . S
H886 C902 0.959 . S
H887 C902 0.959 . S
H888 C902 0.961 . S
H889 C903 0.960 . S
H890 C903 0.961 . S
H891 C903 0.959 . S
H892 C906 0.929 . S
H893 C907 0.931 . S
H894 C909 0.930 . S
C895 H883 0.930 . S
C895 C896 1.399 . S
C895 C900 1.399 . S
C896 C895 1.399 . S
C896 C897 1.376 . S
C897 H884 0.930 . S
C897 C896 1.376 . S
C897 C898 1.388 . S
C898 H885 0.930 . S
C898 C897 1.388 . S
C898 C899 1.390 . S
C899 C898 1.390 . S
C899 C900 1.394 . S
C899 C905 1.465 . S
C900 C895 1.399 . S
C900 C899 1.394 . S
C900 C901 1.516 . S
C901 C900 1.516 . S
C901 C902 1.502 . S
C901 C903 1.561 . S
C901 C904 1.526 . S
C902 H886 0.959 . S
C902 H887 0.959 . S
C902 H888 0.961 . S
C902 C901 1.502 . S
C903 H889 0.960 . S
C903 H890 0.961 . S
C903 H891 0.959 . S
C903 C901 1.561 . S
C904 C901 1.526 . S
C904 C905 1.396 . S
C904 C909 1.390 . S
C905 C899 1.465 . S
C905 C904 1.396 . S
C905 C906 1.399 . S
C906 H892 0.929 . S
C906 C905 1.399 . S
C906 C907 1.385 . S
C907 H893 0.931 . S
C907 C906 1.385 . S
C907 C908 1.389 . S
C908 C907 1.389 . S
C908 C909 1.387 . S
C909 H894 0.930 . S
C909 C904 1.390 . S
C909 C908 1.387 . S
H910 C922 0.930 . S
H911 C924 0.930 . S
H912 C925 0.930 . S
H913 C929 0.959 . S
H914 C929 0.959 . S
H915 C929 0.961 . S
H916 C930 0.960 . S
H917 C930 0.961 . S
H918 C930 0.959 . S
H919 C933 0.929 . S
H920 C934 0.931 . S
H921 C936 0.930 . S
C922 H910 0.930 . S
C922 C923 1.399 . S
C922 C927 1.399 . S
C923 C922 1.399 . S
C923 C924 1.376 . S
C924 H911 0.930 . S
C924 C923 1.376 . S
C924 C925 1.388 . S
C925 H912 0.930 . S
C925 C924 1.388 . S
C925 C926 1.390 . S
C926 C925 1.390 . S
C926 C927 1.394 . S
C926 C932 1.465 . S
C927 C922 1.399 . S
C927 C926 1.394 . S
C927 C928 1.516 . S
C928 C927 1.516 . S
C928 C929 1.502 . S
C928 C930 1.561 . S
C928 C931 1.526 . S
C929 H913 0.959 . S
C929 H914 0.959 . S
C929 H915 0.961 . S
C929 C928 1.502 . S
C930 H916 0.960 . S
C930 H917 0.961 . S
C930 H918 0.959 . S
C930 C928 1.561 . S
C931 C928 1.526 . S
C931 C932 1.396 . S
C931 C936 1.390 . S
C932 C926 1.465 . S
C932 C931 1.396 . S
C932 C933 1.399 . S
C933 H919 0.929 . S
C933 C932 1.399 . S
C933 C934 1.385 . S
C934 H920 0.931 . S
C934 C933 1.385 . S
C934 C935 1.389 . S
C935 C934 1.389 . S
C935 C936 1.387 . S
C936 H921 0.930 . S
C936 C931 1.390 . S
C936 C935 1.387 . S
H937 C949 0.930 . S
H938 C951 0.930 . S
H939 C952 0.930 . S
H940 C956 0.959 . S
H941 C956 0.959 . S
H942 C956 0.961 . S
H943 C957 0.960 . S
H944 C957 0.961 . S
H945 C957 0.959 . S
H946 C960 0.929 . S
H947 C961 0.931 . S
H948 C963 0.930 . S
C949 H937 0.930 . S
C949 C950 1.399 . S
C949 C954 1.399 . S
C950 C949 1.399 . S
C950 C951 1.376 . S
C951 H938 0.930 . S
C951 C950 1.376 . S
C951 C952 1.388 . S
C952 H939 0.930 . S
C952 C951 1.388 . S
C952 C953 1.390 . S
C953 C952 1.390 . S
C953 C954 1.394 . S
C953 C959 1.465 . S
C954 C949 1.399 . S
C954 C953 1.394 . S
C954 C955 1.516 . S
C955 C954 1.516 . S
C955 C956 1.502 . S
C955 C957 1.561 . S
C955 C958 1.526 . S
C956 H940 0.959 . S
C956 H941 0.959 . S
C956 H942 0.961 . S
C956 C955 1.502 . S
C957 H943 0.960 . S
C957 H944 0.961 . S
C957 H945 0.959 . S
C957 C955 1.561 . S
C958 C955 1.526 . S
C958 C959 1.396 . S
C958 C963 1.390 . S
C959 C953 1.465 . S
C959 C958 1.396 . S
C959 C960 1.399 . S
C960 H946 0.929 . S
C960 C959 1.399 . S
C960 C961 1.385 . S
C961 H947 0.931 . S
C961 C960 1.385 . S
C961 C962 1.389 . S
C962 C961 1.389 . S
C962 C963 1.387 . S
C963 H948 0.930 . S
C963 C958 1.390 . S
C963 C962 1.387 . S
H964 C976 0.930 . S
H965 C978 0.930 . S
H966 C979 0.930 . S
H967 C983 0.959 . S
H968 C983 0.959 . S
H969 C983 0.954 1_565 S
H970 C984 0.960 . S
H971 C984 0.961 . S
H972 C984 0.959 . S
H973 C987 0.929 . S
H974 C988 0.931 . S
H975 C990 0.930 . S
C976 H964 0.930 . S
C976 C977 1.399 . S
C976 C981 1.399 1_565 S
C977 C976 1.399 . S
C977 C978 1.376 . S
C978 H965 0.930 . S
C978 C977 1.376 . S
C978 C979 1.388 1_565 S
C979 H966 0.930 . S
C979 C978 1.388 1_545 S
C979 C980 1.390 . S
C980 C979 1.390 . S
C980 C981 1.394 . S
C980 C986 1.465 . S
C981 C976 1.399 1_545 S
C981 C980 1.394 . S
C981 C982 1.516 . S
C982 C981 1.516 . S
C982 C983 1.502 . S
C982 C984 1.561 . S
C982 C985 1.526 . S
C983 H967 0.959 . S
C983 H968 0.959 . S
C983 H969 0.954 1_545 S
C983 C982 1.502 . S
C984 H970 0.960 . S
C984 H971 0.961 . S
C984 H972 0.959 . S
C984 C982 1.561 . S
C985 C982 1.526 . S
C985 C986 1.396 . S
C985 C990 1.390 . S
C986 C980 1.465 . S
C986 C985 1.396 . S
C986 C987 1.399 . S
C987 H973 0.929 . S
C987 C986 1.399 . S
C987 C988 1.385 . S
C988 H974 0.931 . S
C988 C987 1.385 . S
C988 C989 1.389 . S
C989 C988 1.389 . S
C989 C990 1.387 . S
C990 H975 0.930 . S
C990 C985 1.390 . S
C990 C989 1.387 . S
H991 C1003 0.930 . S
H992 C1005 0.930 . S
H993 C1006 0.930 . S
H994 C1010 0.959 . S
H995 C1010 0.959 . S
H996 C1010 0.961 . S
H997 C1011 0.960 . S
H998 C1011 0.961 1_655 S
H999 C1011 0.951 1_655 S
H1000 C1014 0.929 . S
H1001 C1015 0.931 . S
H1002 C1017 0.930 . S
C1003 H991 0.930 . S
C1003 C1004 1.399 . S
C1003 C1008 1.399 . S
C1004 C1003 1.399 . S
C1004 C1005 1.376 . S
C1005 H992 0.930 . S
C1005 C1004 1.376 . S
C1005 C1006 1.388 . S
C1006 H993 0.930 . S
C1006 C1005 1.388 . S
C1006 C1007 1.390 . S
C1007 C1006 1.390 . S
C1007 C1008 1.394 . S
C1007 C1013 1.465 . S
C1008 C1003 1.399 . S
C1008 C1007 1.394 . S
C1008 C1009 1.516 . S
C1009 C1008 1.516 . S
C1009 C1010 1.502 . S
C1009 C1011 1.561 . S
C1009 C1012 1.526 . S
C1010 H994 0.959 . S
C1010 H995 0.959 . S
C1010 H996 0.961 . S
C1010 C1009 1.502 . S
C1011 H997 0.960 . S
C1011 H998 0.961 1_455 S
C1011 H999 0.951 1_455 S
C1011 C1009 1.561 . S
C1012 C1009 1.526 . S
C1012 C1013 1.396 . S
C1012 C1017 1.390 1_455 S
C1013 C1007 1.465 . S
C1013 C1012 1.396 . S
C1013 C1014 1.399 . S
C1014 H1000 0.929 . S
C1014 C1013 1.399 . S
C1014 C1015 1.385 1_455 S
C1015 H1001 0.931 . S
C1015 C1014 1.385 1_655 S
C1015 C1016 1.389 . S
C1016 C1015 1.389 . S
C1016 C1017 1.387 . S
C1017 H1002 0.930 . S
C1017 C1012 1.390 1_655 S
C1017 C1016 1.387 . S
H1018 C1030 0.930 . S
H1019 C1032 0.930 . S
H1020 C1033 0.930 . S
H1021 C1037 0.959 . S
H1022 C1037 0.959 . S
H1023 C1037 0.961 . S
H1024 C1038 0.960 . S
H1025 C1038 0.961 . S
H1026 C1038 0.959 . S
H1027 C1041 0.929 . S
H1028 C1042 0.931 . S
H1029 C1044 0.930 . S
C1030 H1018 0.930 . S
C1030 C1031 1.399 . S
C1030 C1035 1.399 . S
C1031 C1030 1.399 . S
C1031 C1032 1.376 . S
C1032 H1019 0.930 . S
C1032 C1031 1.376 . S
C1032 C1033 1.388 . S
C1033 H1020 0.930 . S
C1033 C1032 1.388 . S
C1033 C1034 1.390 . S
C1034 C1033 1.390 . S
C1034 C1035 1.394 . S
C1034 C1040 1.465 . S
C1035 C1030 1.399 . S
C1035 C1034 1.394 . S
C1035 C1036 1.516 . S
C1036 C1035 1.516 . S
C1036 C1037 1.502 . S
C1036 C1038 1.561 . S
C1036 C1039 1.526 . S
C1037 H1021 0.959 . S
C1037 H1022 0.959 . S
C1037 H1023 0.961 . S
C1037 C1036 1.502 . S
C1038 H1024 0.960 . S
C1038 H1025 0.961 . S
C1038 H1026 0.959 . S
C1038 C1036 1.561 . S
C1039 C1036 1.526 . S
C1039 C1040 1.396 . S
C1039 C1044 1.390 1_565 S
C1040 C1034 1.465 . S
C1040 C1039 1.396 . S
C1040 C1041 1.399 1_565 S
C1041 H1027 0.929 . S
C1041 C1040 1.399 1_545 S
C1041 C1042 1.385 . S
C1042 H1028 0.931 . S
C1042 C1041 1.385 . S
C1042 C1043 1.389 . S
C1043 C1042 1.389 . S
C1043 C1044 1.387 . S
C1044 H1029 0.930 . S
C1044 C1039 1.390 1_545 S
C1044 C1043 1.387 . S
H1045 C1057 0.930 . S
H1046 C1059 0.930 . S
H1047 C1060 0.930 . S
H1048 C1064 0.959 . S
H1049 C1064 0.959 . S
H1050 C1064 0.961 1_455 S
H1051 C1065 0.960 . S
H1052 C1065 0.961 . S
H1053 C1065 0.959 . S
H1054 C1068 0.929 . S
H1055 C1069 0.931 . S
H1056 C1071 0.930 . S
C1057 H1045 0.930 . S
C1057 C1058 1.399 . S
C1057 C1062 1.399 1_455 S
C1058 C1057 1.399 . S
C1058 C1059 1.376 . S
C1059 H1046 0.930 . S
C1059 C1058 1.376 . S
C1059 C1060 1.388 1_455 S
C1060 H1047 0.930 . S
C1060 C1059 1.388 1_655 S
C1060 C1061 1.390 . S
C1061 C1060 1.390 . S
C1061 C1062 1.394 . S
C1061 C1067 1.465 . S
C1062 C1057 1.399 1_655 S
C1062 C1061 1.394 . S
C1062 C1063 1.516 . S
C1063 C1062 1.516 . S
C1063 C1064 1.502 . S
C1063 C1065 1.561 . S
C1063 C1066 1.526 . S
C1064 H1048 0.959 . S
C1064 H1049 0.959 . S
C1064 H1050 0.961 1_655 S
C1064 C1063 1.502 . S
C1065 H1051 0.960 . S
C1065 H1052 0.961 . S
C1065 H1053 0.959 . S
C1065 C1063 1.561 . S
C1066 C1063 1.526 . S
C1066 C1067 1.396 . S
C1066 C1071 1.390 . S
C1067 C1061 1.465 . S
C1067 C1066 1.396 . S
C1067 C1068 1.399 . S
C1068 H1054 0.929 . S
C1068 C1067 1.399 . S
C1068 C1069 1.385 . S
C1069 H1055 0.931 . S
C1069 C1068 1.385 . S
C1069 C1070 1.389 . S
C1070 C1069 1.389 . S
C1070 C1071 1.387 . S
C1071 H1056 0.930 . S
C1071 C1066 1.390 . S
C1071 C1070 1.387 . S
H1072 C1084 0.930 . S
H1073 C1086 0.930 . S
H1074 C1087 0.930 . S
H1075 C1091 0.959 . S
H1076 C1091 0.959 . S
H1077 C1091 0.961 . S
H1078 C1092 0.960 1_556 S
H1079 C1092 0.961 . S
H1080 C1092 0.959 . S
H1081 C1095 0.929 . S
H1082 C1096 0.931 . S
H1083 C1098 0.930 . S
C1084 H1072 0.930 . S
C1084 C1085 1.399 . S
C1084 C1089 1.399 . S
C1085 C1084 1.399 . S
C1085 C1086 1.376 . S
C1086 H1073 0.930 . S
C1086 C1085 1.376 . S
C1086 C1087 1.388 . S
C1087 H1074 0.930 . S
C1087 C1086 1.388 . S
C1087 C1088 1.390 . S
C1088 C1087 1.390 . S
C1088 C1089 1.394 . S
C1088 C1094 1.465 . S
C1089 C1084 1.399 . S
C1089 C1088 1.394 . S
C1089 C1090 1.516 . S
C1090 C1089 1.516 . S
C1090 C1091 1.502 . S
C1090 C1092 1.561 . S
C1090 C1093 1.526 . S
C1091 H1075 0.959 . S
C1091 H1076 0.959 . S
C1091 H1077 0.961 . S
C1091 C1090 1.502 . S
C1092 H1078 0.960 1_554 S
C1092 H1079 0.961 . S
C1092 H1080 0.959 . S
C1092 C1090 1.561 . S
C1093 C1090 1.526 . S
C1093 C1094 1.396 . S
C1093 C1098 1.390 . S
C1094 C1088 1.465 . S
C1094 C1093 1.396 . S
C1094 C1095 1.399 . S
C1095 H1081 0.929 . S
C1095 C1094 1.399 . S
C1095 C1096 1.385 . S
C1096 H1082 0.931 . S
C1096 C1095 1.385 . S
C1096 C1097 1.389 . S
C1097 C1096 1.389 . S
C1097 C1098 1.387 . S
C1098 H1083 0.930 . S
C1098 C1093 1.390 . S
C1098 C1097 1.387 . S
H1099 C1111 0.930 . S
H1100 C1113 0.930 . S
H1101 C1114 0.930 . S
H1102 C1118 0.959 . S
H1103 C1118 0.959 . S
H1104 C1118 0.961 . S
H1105 C1119 0.960 . S
H1106 C1119 0.961 . S
H1107 C1119 0.959 . S
H1108 C1122 0.929 . S
H1109 C1123 0.931 . S
H1110 C1125 0.930 . S
C1111 H1099 0.930 . S
C1111 C1112 1.399 . S
C1111 C1116 1.399 . S
C1112 C1111 1.399 . S
C1112 C1113 1.376 . S
C1113 H1100 0.930 . S
C1113 C1112 1.376 . S
C1113 C1114 1.388 . S
C1114 H1101 0.930 . S
C1114 C1113 1.388 . S
C1114 C1115 1.390 . S
C1115 C1114 1.390 . S
C1115 C1116 1.394 . S
C1115 C1121 1.465 . S
C1116 C1111 1.399 . S
C1116 C1115 1.394 . S
C1116 C1117 1.516 . S
C1117 C1116 1.516 . S
C1117 C1118 1.502 . S
C1117 C1119 1.561 . S
C1117 C1120 1.526 . S
C1118 H1102 0.959 . S
C1118 H1103 0.959 . S
C1118 H1104 0.961 . S
C1118 C1117 1.502 . S
C1119 H1105 0.960 . S
C1119 H1106 0.961 . S
C1119 H1107 0.959 . S
C1119 C1117 1.561 . S
C1120 C1117 1.526 . S
C1120 C1121 1.396 . S
C1120 C1125 1.390 . S
C1121 C1115 1.465 . S
C1121 C1120 1.396 . S
C1121 C1122 1.399 . S
C1122 H1108 0.929 . S
C1122 C1121 1.399 . S
C1122 C1123 1.385 . S
C1123 H1109 0.931 . S
C1123 C1122 1.385 . S
C1123 C1124 1.389 . S
C1124 C1123 1.389 . S
C1124 C1125 1.387 . S
C1125 H1110 0.930 . S
C1125 C1120 1.390 . S
C1125 C1124 1.387 . S
H1126 C1138 0.930 . S
H1127 C1140 0.930 . S
H1128 C1141 0.930 . S
H1129 C1145 0.959 . S
H1130 C1145 0.959 . S
H1131 C1145 0.961 . S
H1132 C1146 0.960 1_556 S
H1133 C1146 0.961 . S
H1134 C1146 0.959 . S
H1135 C1149 0.929 . S
H1136 C1150 0.931 . S
H1137 C1152 0.930 . S
C1138 H1126 0.930 . S
C1138 C1139 1.399 . S
C1138 C1143 1.399 . S
C1139 C1138 1.399 . S
C1139 C1140 1.376 . S
C1140 H1127 0.930 . S
C1140 C1139 1.376 . S
C1140 C1141 1.388 . S
C1141 H1128 0.930 . S
C1141 C1140 1.388 . S
C1141 C1142 1.390 . S
C1142 C1141 1.390 . S
C1142 C1143 1.394 . S
C1142 C1148 1.465 . S
C1143 C1138 1.399 . S
C1143 C1142 1.394 . S
C1143 C1144 1.516 . S
C1144 C1143 1.516 . S
C1144 C1145 1.502 . S
C1144 C1146 1.561 . S
C1144 C1147 1.526 . S
C1145 H1129 0.959 . S
C1145 H1130 0.959 . S
C1145 H1131 0.961 . S
C1145 C1144 1.502 . S
C1146 H1132 0.960 1_554 S
C1146 H1133 0.961 . S
C1146 H1134 0.959 . S
C1146 C1144 1.561 . S
C1147 C1144 1.526 . S
C1147 C1148 1.396 . S
C1147 C1152 1.390 . S
C1148 C1142 1.465 . S
C1148 C1147 1.396 . S
C1148 C1149 1.399 . S
C1149 H1135 0.929 . S
C1149 C1148 1.399 . S
C1149 C1150 1.385 . S
C1150 H1136 0.931 . S
C1150 C1149 1.385 . S
C1150 C1151 1.389 . S
C1151 C1150 1.389 . S
C1151 C1152 1.387 . S
C1152 H1137 0.930 . S
C1152 C1147 1.390 . S
C1152 C1151 1.387 . S
H1153 C1165 0.930 . S
H1154 C1167 0.930 . S
H1155 C1168 0.930 . S
H1156 C1172 0.959 . S
H1157 C1172 0.959 . S
H1158 C1172 0.961 . S
H1159 C1173 0.960 . S
H1160 C1173 0.961 . S
H1161 C1173 0.959 . S
H1162 C1176 0.929 . S
H1163 C1177 0.931 . S
H1164 C1179 0.930 . S
C1165 H1153 0.930 . S
C1165 C1166 1.399 . S
C1165 C1170 1.399 . S
C1166 C1165 1.399 . S
C1166 C1167 1.376 . S
C1167 H1154 0.930 . S
C1167 C1166 1.376 . S
C1167 C1168 1.388 . S
C1168 H1155 0.930 . S
C1168 C1167 1.388 . S
C1168 C1169 1.390 . S
C1169 C1168 1.390 . S
C1169 C1170 1.394 . S
C1169 C1175 1.465 . S
C1170 C1165 1.399 . S
C1170 C1169 1.394 . S
C1170 C1171 1.516 . S
C1171 C1170 1.516 . S
C1171 C1172 1.502 . S
C1171 C1173 1.561 . S
C1171 C1174 1.526 . S
C1172 H1156 0.959 . S
C1172 H1157 0.959 . S
C1172 H1158 0.961 . S
C1172 C1171 1.502 . S
C1173 H1159 0.960 . S
C1173 H1160 0.961 . S
C1173 H1161 0.959 . S
C1173 C1171 1.561 . S
C1174 C1171 1.526 . S
C1174 C1175 1.396 . S
C1174 C1179 1.390 . S
C1175 C1169 1.465 . S
C1175 C1174 1.396 . S
C1175 C1176 1.399 . S
C1176 H1162 0.929 . S
C1176 C1175 1.399 . S
C1176 C1177 1.385 . S
C1177 H1163 0.931 . S
C1177 C1176 1.385 . S
C1177 C1178 1.389 . S
C1178 C1177 1.389 . S
C1178 C1179 1.387 . S
C1179 H1164 0.930 . S
C1179 C1174 1.390 . S
C1179 C1178 1.387 . S
H1180 C1192 0.930 . S
H1181 C1194 0.930 . S
H1182 C1195 0.930 . S
H1183 C1199 0.959 . S
H1184 C1199 0.959 . S
H1185 C1199 0.961 . S
H1186 C1200 0.960 . S
H1187 C1200 0.961 . S
H1188 C1200 0.959 . S
H1189 C1203 0.929 . S
H1190 C1204 0.931 . S
H1191 C1206 0.930 . S
C1192 H1180 0.930 . S
C1192 C1193 1.399 . S
C1192 C1197 1.399 . S
C1193 C1192 1.399 . S
C1193 C1194 1.376 . S
C1194 H1181 0.930 . S
C1194 C1193 1.376 . S
C1194 C1195 1.388 . S
C1195 H1182 0.930 . S
C1195 C1194 1.388 . S
C1195 C1196 1.390 . S
C1196 C1195 1.390 . S
C1196 C1197 1.394 . S
C1196 C1202 1.465 . S
C1197 C1192 1.399 . S
C1197 C1196 1.394 . S
C1197 C1198 1.516 . S
C1198 C1197 1.516 . S
C1198 C1199 1.502 . S
C1198 C1200 1.561 . S
C1198 C1201 1.526 . S
C1199 H1183 0.959 . S
C1199 H1184 0.959 . S
C1199 H1185 0.961 . S
C1199 C1198 1.502 . S
C1200 H1186 0.960 . S
C1200 H1187 0.961 . S
C1200 H1188 0.959 . S
C1200 C1198 1.561 . S
C1201 C1198 1.526 . S
C1201 C1202 1.396 . S
C1201 C1206 1.390 . S
C1202 C1196 1.465 . S
C1202 C1201 1.396 . S
C1202 C1203 1.399 . S
C1203 H1189 0.929 . S
C1203 C1202 1.399 . S
C1203 C1204 1.385 . S
C1204 H1190 0.931 . S
C1204 C1203 1.385 . S
C1204 C1205 1.389 . S
C1205 C1204 1.389 . S
C1205 C1206 1.387 . S
C1206 H1191 0.930 . S
C1206 C1201 1.390 . S
C1206 C1205 1.387 . S
H1207 C1219 0.930 . S
H1208 C1221 0.930 . S
H1209 C1222 0.930 . S
H1210 C1226 0.959 . S
H1211 C1226 0.959 . S
H1212 C1226 0.961 . S
H1213 C1227 0.960 . S
H1214 C1227 0.961 . S
H1215 C1227 0.959 . S
H1216 C1230 0.929 . S
H1217 C1231 0.931 . S
H1218 C1233 0.930 . S
C1219 H1207 0.930 . S
C1219 C1220 1.399 . S
C1219 C1224 1.399 . S
C1220 C1219 1.399 . S
C1220 C1221 1.376 . S
C1221 H1208 0.930 . S
C1221 C1220 1.376 . S
C1221 C1222 1.388 . S
C1222 H1209 0.930 . S
C1222 C1221 1.388 . S
C1222 C1223 1.390 . S
C1223 C1222 1.390 . S
C1223 C1224 1.394 . S
C1223 C1229 1.465 . S
C1224 C1219 1.399 . S
C1224 C1223 1.394 . S
C1224 C1225 1.516 . S
C1225 C1224 1.516 . S
C1225 C1226 1.502 . S
C1225 C1227 1.561 . S
C1225 C1228 1.526 . S
C1226 H1210 0.959 . S
C1226 H1211 0.959 . S
C1226 H1212 0.961 . S
C1226 C1225 1.502 . S
C1227 H1213 0.960 . S
C1227 H1214 0.961 . S
C1227 H1215 0.959 . S
C1227 C1225 1.561 . S
C1228 C1225 1.526 . S
C1228 C1229 1.396 . S
C1228 C1233 1.390 . S
C1229 C1223 1.465 . S
C1229 C1228 1.396 . S
C1229 C1230 1.399 . S
C1230 H1216 0.929 . S
C1230 C1229 1.399 . S
C1230 C1231 1.385 . S
C1231 H1217 0.931 . S
C1231 C1230 1.385 . S
C1231 C1232 1.389 . S
C1232 C1231 1.389 . S
C1232 C1233 1.387 . S
C1233 H1218 0.930 . S
C1233 C1228 1.390 . S
C1233 C1232 1.387 . S
H1234 C1246 0.930 . S
H1235 C1248 0.930 . S
H1236 C1249 0.930 . S
H1237 C1253 0.959 . S
H1238 C1253 0.959 . S
H1239 C1253 0.961 . S
H1240 C1254 0.960 . S
H1241 C1254 0.961 . S
H1242 C1254 0.959 . S
H1243 C1257 0.929 . S
H1244 C1258 0.931 . S
H1245 C1260 0.930 . S
C1246 H1234 0.930 . S
C1246 C1247 1.399 . S
C1246 C1251 1.399 . S
C1247 C1246 1.399 . S
C1247 C1248 1.376 . S
C1248 H1235 0.930 . S
C1248 C1247 1.376 . S
C1248 C1249 1.388 . S
C1249 H1236 0.930 . S
C1249 C1248 1.388 . S
C1249 C1250 1.390 . S
C1250 C1249 1.390 . S
C1250 C1251 1.394 . S
C1250 C1256 1.465 . S
C1251 C1246 1.399 . S
C1251 C1250 1.394 . S
C1251 C1252 1.516 . S
C1252 C1251 1.516 . S
C1252 C1253 1.502 . S
C1252 C1254 1.561 . S
C1252 C1255 1.526 . S
C1253 H1237 0.959 . S
C1253 H1238 0.959 . S
C1253 H1239 0.961 . S
C1253 C1252 1.502 . S
C1254 H1240 0.960 . S
C1254 H1241 0.961 . S
C1254 H1242 0.959 . S
C1254 C1252 1.561 . S
C1255 C1252 1.526 . S
C1255 C1256 1.396 . S
C1255 C1260 1.390 . S
C1256 C1250 1.465 . S
C1256 C1255 1.396 . S
C1256 C1257 1.399 . S
C1257 H1243 0.929 . S
C1257 C1256 1.399 . S
C1257 C1258 1.385 . S
C1258 H1244 0.931 . S
C1258 C1257 1.385 . S
C1258 C1259 1.389 . S
C1259 C1258 1.389 . S
C1259 C1260 1.387 . S
C1260 H1245 0.930 . S
C1260 C1255 1.390 . S
C1260 C1259 1.387 . S
H1261 C1273 0.930 . S
H1262 C1275 0.930 . S
H1263 C1276 0.930 . S
H1264 C1280 0.959 . S
H1265 C1280 0.959 . S
H1266 C1280 0.961 . S
H1267 C1281 0.960 . S
H1268 C1281 0.961 . S
H1269 C1281 0.959 . S
H1270 C1284 0.929 . S
H1271 C1285 0.931 . S
H1272 C1287 0.930 . S
C1273 H1261 0.930 . S
C1273 C1274 1.399 . S
C1273 C1278 1.399 . S
C1274 C1273 1.399 . S
C1274 C1275 1.376 . S
C1275 H1262 0.930 . S
C1275 C1274 1.376 . S
C1275 C1276 1.388 . S
C1276 H1263 0.930 . S
C1276 C1275 1.388 . S
C1276 C1277 1.390 . S
C1277 C1276 1.390 . S
C1277 C1278 1.394 . S
C1277 C1283 1.465 . S
C1278 C1273 1.399 . S
C1278 C1277 1.394 . S
C1278 C1279 1.516 . S
C1279 C1278 1.516 . S
C1279 C1280 1.502 . S
C1279 C1281 1.561 . S
C1279 C1282 1.526 . S
C1280 H1264 0.959 . S
C1280 H1265 0.959 . S
C1280 H1266 0.961 . S
C1280 C1279 1.502 . S
C1281 H1267 0.960 . S
C1281 H1268 0.961 . S
C1281 H1269 0.959 . S
C1281 C1279 1.561 . S
C1282 C1279 1.526 . S
C1282 C1283 1.396 . S
C1282 C1287 1.390 . S
C1283 C1277 1.465 . S
C1283 C1282 1.396 . S
C1283 C1284 1.399 . S
C1284 H1270 0.929 . S
C1284 C1283 1.399 . S
C1284 C1285 1.385 . S
C1285 H1271 0.931 . S
C1285 C1284 1.385 . S
C1285 C1286 1.389 . S
C1286 C1285 1.389 . S
C1286 C1287 1.387 . S
C1287 H1272 0.930 . S
C1287 C1282 1.390 . S
C1287 C1286 1.387 . S
H1288 C1300 0.930 . S
H1289 C1302 0.930 . S
H1290 C1303 0.930 . S
H1291 C1307 0.959 . S
H1292 C1307 0.959 . S
H1293 C1307 0.961 . S
H1294 C1308 0.960 . S
H1295 C1308 0.961 . S
H1296 C1308 0.959 . S
H1297 C1311 0.929 . S
H1298 C1312 0.931 1_554 S
H1299 C1314 0.930 . S
C1300 H1288 0.930 . S
C1300 C1301 1.399 . S
C1300 C1305 1.399 . S
C1301 C1300 1.399 . S
C1301 C1302 1.376 . S
C1302 H1289 0.930 . S
C1302 C1301 1.376 . S
C1302 C1303 1.388 . S
C1303 H1290 0.930 . S
C1303 C1302 1.388 . S
C1303 C1304 1.390 . S
C1304 C1303 1.390 . S
C1304 C1305 1.394 . S
C1304 C1310 1.465 . S
C1305 C1300 1.399 . S
C1305 C1304 1.394 . S
C1305 C1306 1.516 . S
C1306 C1305 1.516 . S
C1306 C1307 1.502 . S
C1306 C1308 1.561 . S
C1306 C1309 1.526 . S
C1307 H1291 0.959 . S
C1307 H1292 0.959 . S
C1307 H1293 0.961 . S
C1307 C1306 1.502 . S
C1308 H1294 0.960 . S
C1308 H1295 0.961 . S
C1308 H1296 0.959 . S
C1308 C1306 1.561 . S
C1309 C1306 1.526 . S
C1309 C1310 1.396 . S
C1309 C1314 1.390 . S
C1310 C1304 1.465 . S
C1310 C1309 1.396 . S
C1310 C1311 1.399 . S
C1311 H1297 0.929 . S
C1311 C1310 1.399 . S
C1311 C1312 1.385 . S
C1312 H1298 0.931 1_556 S
C1312 C1311 1.385 . S
C1312 C1313 1.389 . S
C1313 C1312 1.389 . S
C1313 C1314 1.387 . S
C1314 H1299 0.930 . S
C1314 C1309 1.390 . S
C1314 C1313 1.387 . S
H1315 C1327 0.930 . S
H1316 C1329 0.930 1_556 S
H1317 C1330 0.930 . S
H1318 C1334 0.959 . S
H1319 C1334 0.959 . S
H1320 C1334 0.961 . S
H1321 C1335 0.960 . S
H1322 C1335 0.961 . S
H1323 C1335 0.959 . S
H1324 C1338 0.929 . S
H1325 C1339 0.931 . S
H1326 C1341 0.930 . S
C1327 H1315 0.930 . S
C1327 C1328 1.399 . S
C1327 C1332 1.399 . S
C1328 C1327 1.399 . S
C1328 C1329 1.376 . S
C1329 H1316 0.930 1_554 S
C1329 C1328 1.376 . S
C1329 C1330 1.388 . S
C1330 H1317 0.930 . S
C1330 C1329 1.388 . S
C1330 C1331 1.390 . S
C1331 C1330 1.390 . S
C1331 C1332 1.394 . S
C1331 C1337 1.465 . S
C1332 C1327 1.399 . S
C1332 C1331 1.394 . S
C1332 C1333 1.516 . S
C1333 C1332 1.516 . S
C1333 C1334 1.502 . S
C1333 C1335 1.561 . S
C1333 C1336 1.526 . S
C1334 H1318 0.959 . S
C1334 H1319 0.959 . S
C1334 H1320 0.961 . S
C1334 C1333 1.502 . S
C1335 H1321 0.960 . S
C1335 H1322 0.961 . S
C1335 H1323 0.959 . S
C1335 C1333 1.561 . S
C1336 C1333 1.526 . S
C1336 C1337 1.396 . S
C1336 C1341 1.390 . S
C1337 C1331 1.465 . S
C1337 C1336 1.396 . S
C1337 C1338 1.399 . S
C1338 H1324 0.929 . S
C1338 C1337 1.399 . S
C1338 C1339 1.385 . S
C1339 H1325 0.931 . S
C1339 C1338 1.385 . S
C1339 C1340 1.389 . S
C1340 C1339 1.389 . S
C1340 C1341 1.387 . S
C1341 H1326 0.930 . S
C1341 C1336 1.390 . S
C1341 C1340 1.387 . S
H1342 C1354 0.930 . S
H1343 C1356 0.930 1_554 S
H1344 C1357 0.930 . S
H1345 C1361 0.959 . S
H1346 C1361 0.959 . S
H1347 C1361 0.961 . S
H1348 C1362 0.960 . S
H1349 C1362 0.961 . S
H1350 C1362 0.959 . S
H1351 C1365 0.929 . S
H1352 C1366 0.931 . S
H1353 C1368 0.930 . S
C1354 H1342 0.930 . S
C1354 C1355 1.399 . S
C1354 C1359 1.399 . S
C1355 C1354 1.399 . S
C1355 C1356 1.376 . S
C1356 H1343 0.930 1_556 S
C1356 C1355 1.376 . S
C1356 C1357 1.388 . S
C1357 H1344 0.930 . S
C1357 C1356 1.388 . S
C1357 C1358 1.390 . S
C1358 C1357 1.390 . S
C1358 C1359 1.394 . S
C1358 C1364 1.465 . S
C1359 C1354 1.399 . S
C1359 C1358 1.394 . S
C1359 C1360 1.516 . S
C1360 C1359 1.516 . S
C1360 C1361 1.502 . S
C1360 C1362 1.561 . S
C1360 C1363 1.526 . S
C1361 H1345 0.959 . S
C1361 H1346 0.959 . S
C1361 H1347 0.961 . S
C1361 C1360 1.502 . S
C1362 H1348 0.960 . S
C1362 H1349 0.961 . S
C1362 H1350 0.959 . S
C1362 C1360 1.561 . S
C1363 C1360 1.526 . S
C1363 C1364 1.396 . S
C1363 C1368 1.390 . S
C1364 C1358 1.465 . S
C1364 C1363 1.396 . S
C1364 C1365 1.399 . S
C1365 H1351 0.929 . S
C1365 C1364 1.399 . S
C1365 C1366 1.385 . S
C1366 H1352 0.931 . S
C1366 C1365 1.385 . S
C1366 C1367 1.389 . S
C1367 C1366 1.389 . S
C1367 C1368 1.387 . S
C1368 H1353 0.930 . S
C1368 C1363 1.390 . S
C1368 C1367 1.387 . S
H1369 C1381 0.930 . S
H1370 C1383 0.930 1_556 S
H1371 C1384 0.930 . S
H1372 C1388 0.959 . S
H1373 C1388 0.959 . S
H1374 C1388 0.961 . S
H1375 C1389 0.960 . S
H1376 C1389 0.961 . S
H1377 C1389 0.959 . S
H1378 C1392 0.929 . S
H1379 C1393 0.931 . S
H1380 C1395 0.930 . S
C1381 H1369 0.930 . S
C1381 C1382 1.399 . S
C1381 C1386 1.399 . S
C1382 C1381 1.399 . S
C1382 C1383 1.376 . S
C1383 H1370 0.930 1_554 S
C1383 C1382 1.376 . S
C1383 C1384 1.388 . S
C1384 H1371 0.930 . S
C1384 C1383 1.388 . S
C1384 C1385 1.390 . S
C1385 C1384 1.390 . S
C1385 C1386 1.394 . S
C1385 C1391 1.465 . S
C1386 C1381 1.399 . S
C1386 C1385 1.394 . S
C1386 C1387 1.516 . S
C1387 C1386 1.516 . S
C1387 C1388 1.502 . S
C1387 C1389 1.561 . S
C1387 C1390 1.526 . S
C1388 H1372 0.959 . S
C1388 H1373 0.959 . S
C1388 H1374 0.961 . S
C1388 C1387 1.502 . S
C1389 H1375 0.960 . S
C1389 H1376 0.961 . S
C1389 H1377 0.959 . S
C1389 C1387 1.561 . S
C1390 C1387 1.526 . S
C1390 C1391 1.396 . S
C1390 C1395 1.390 . S
C1391 C1385 1.465 . S
C1391 C1390 1.396 . S
C1391 C1392 1.399 . S
C1392 H1378 0.929 . S
C1392 C1391 1.399 . S
C1392 C1393 1.385 . S
C1393 H1379 0.931 . S
C1393 C1392 1.385 . S
C1393 C1394 1.389 . S
C1394 C1393 1.389 . S
C1394 C1395 1.387 . S
C1395 H1380 0.930 . S
C1395 C1390 1.390 . S
C1395 C1394 1.387 . S
H1396 C1408 0.930 . S
H1397 C1410 0.930 . S
H1398 C1411 0.930 . S
H1399 C1415 0.959 . S
H1400 C1415 0.959 . S
H1401 C1415 0.961 . S
H1402 C1416 0.960 . S
H1403 C1416 0.961 . S
H1404 C1416 0.959 . S
H1405 C1419 0.929 . S
H1406 C1420 0.931 . S
H1407 C1422 0.930 . S
C1408 H1396 0.930 . S
C1408 C1409 1.399 . S
C1408 C1413 1.399 . S
C1409 C1408 1.399 . S
C1409 C1410 1.376 . S
C1410 H1397 0.930 . S
C1410 C1409 1.376 . S
C1410 C1411 1.388 . S
C1411 H1398 0.930 . S
C1411 C1410 1.388 . S
C1411 C1412 1.390 . S
C1412 C1411 1.390 . S
C1412 C1413 1.394 . S
C1412 C1418 1.465 . S
C1413 C1408 1.399 . S
C1413 C1412 1.394 . S
C1413 C1414 1.516 . S
C1414 C1413 1.516 . S
C1414 C1415 1.502 . S
C1414 C1416 1.561 . S
C1414 C1417 1.526 . S
C1415 H1399 0.959 . S
C1415 H1400 0.959 . S
C1415 H1401 0.961 . S
C1415 C1414 1.502 . S
C1416 H1402 0.960 . S
C1416 H1403 0.961 . S
C1416 H1404 0.959 . S
C1416 C1414 1.561 . S
C1417 C1414 1.526 . S
C1417 C1418 1.396 . S
C1417 C1422 1.390 . S
C1418 C1412 1.465 . S
C1418 C1417 1.396 . S
C1418 C1419 1.399 . S
C1419 H1405 0.929 . S
C1419 C1418 1.399 . S
C1419 C1420 1.385 . S
C1420 H1406 0.931 . S
C1420 C1419 1.385 . S
C1420 C1421 1.389 . S
C1421 C1420 1.389 . S
C1421 C1422 1.387 . S
C1422 H1407 0.930 . S
C1422 C1417 1.390 . S
C1422 C1421 1.387 . S
H1423 C1435 0.930 . S
H1424 C1437 0.930 . S
H1425 C1438 0.930 . S
H1426 C1442 0.959 . S
H1427 C1442 0.959 . S
H1428 C1442 0.961 . S
H1429 C1443 0.960 . S
H1430 C1443 0.961 . S
H1431 C1443 0.959 . S
H1432 C1446 0.929 . S
H1433 C1447 0.931 . S
H1434 C1449 0.930 . S
C1435 H1423 0.930 . S
C1435 C1436 1.399 . S
C1435 C1440 1.399 . S
C1436 C1435 1.399 . S
C1436 C1437 1.376 . S
C1437 H1424 0.930 . S
C1437 C1436 1.376 . S
C1437 C1438 1.388 . S
C1438 H1425 0.930 . S
C1438 C1437 1.388 . S
C1438 C1439 1.390 . S
C1439 C1438 1.390 . S
C1439 C1440 1.394 . S
C1439 C1445 1.465 . S
C1440 C1435 1.399 . S
C1440 C1439 1.394 . S
C1440 C1441 1.516 . S
C1441 C1440 1.516 . S
C1441 C1442 1.502 . S
C1441 C1443 1.561 . S
C1441 C1444 1.526 . S
C1442 H1426 0.959 . S
C1442 H1427 0.959 . S
C1442 H1428 0.961 . S
C1442 C1441 1.502 . S
C1443 H1429 0.960 . S
C1443 H1430 0.961 . S
C1443 H1431 0.959 . S
C1443 C1441 1.561 . S
C1444 C1441 1.526 . S
C1444 C1445 1.396 . S
C1444 C1449 1.390 . S
C1445 C1439 1.465 . S
C1445 C1444 1.396 . S
C1445 C1446 1.399 . S
C1446 H1432 0.929 . S
C1446 C1445 1.399 . S
C1446 C1447 1.385 . S
C1447 H1433 0.931 . S
C1447 C1446 1.385 . S
C1447 C1448 1.389 . S
C1448 C1447 1.389 . S
C1448 C1449 1.387 . S
C1449 H1434 0.930 . S
C1449 C1444 1.390 . S
C1449 C1448 1.387 . S
H1450 C1462 0.930 . S
H1451 C1464 0.930 . S
H1452 C1465 0.930 . S
H1453 C1469 0.959 . S
H1454 C1469 0.959 . S
H1455 C1469 0.961 . S
H1456 C1470 0.960 . S
H1457 C1470 0.961 . S
H1458 C1470 0.959 . S
H1459 C1473 0.929 . S
H1460 C1474 0.931 . S
H1461 C1476 0.930 . S
C1462 H1450 0.930 . S
C1462 C1463 1.399 . S
C1462 C1467 1.399 . S
C1463 C1462 1.399 . S
C1463 C1464 1.376 . S
C1464 H1451 0.930 . S
C1464 C1463 1.376 . S
C1464 C1465 1.388 . S
C1465 H1452 0.930 . S
C1465 C1464 1.388 . S
C1465 C1466 1.390 . S
C1466 C1465 1.390 . S
C1466 C1467 1.394 . S
C1466 C1472 1.465 . S
C1467 C1462 1.399 . S
C1467 C1466 1.394 . S
C1467 C1468 1.516 . S
C1468 C1467 1.516 . S
C1468 C1469 1.502 . S
C1468 C1470 1.561 . S
C1468 C1471 1.526 . S
C1469 H1453 0.959 . S
C1469 H1454 0.959 . S
C1469 H1455 0.961 . S
C1469 C1468 1.502 . S
C1470 H1456 0.960 . S
C1470 H1457 0.961 . S
C1470 H1458 0.959 . S
C1470 C1468 1.561 . S
C1471 C1468 1.526 . S
C1471 C1472 1.396 . S
C1471 C1476 1.390 . S
C1472 C1466 1.465 . S
C1472 C1471 1.396 . S
C1472 C1473 1.399 . S
C1473 H1459 0.929 . S
C1473 C1472 1.399 . S
C1473 C1474 1.385 . S
C1474 H1460 0.931 . S
C1474 C1473 1.385 . S
C1474 C1475 1.389 . S
C1475 C1474 1.389 . S
C1475 C1476 1.387 . S
C1476 H1461 0.930 . S
C1476 C1471 1.390 . S
C1476 C1475 1.387 . S
H1477 C1489 0.930 . S
H1478 C1491 0.930 . S
H1479 C1492 0.930 . S
H1480 C1496 0.959 . S
H1481 C1496 0.959 . S
H1482 C1496 0.961 . S
H1483 C1497 0.960 . S
H1484 C1497 0.961 . S
H1485 C1497 0.959 . S
H1486 C1500 0.929 . S
H1487 C1501 0.931 . S
H1488 C1503 0.930 . S
C1489 H1477 0.930 . S
C1489 C1490 1.399 . S
C1489 C1494 1.399 . S
C1490 C1489 1.399 . S
C1490 C1491 1.376 . S
C1491 H1478 0.930 . S
C1491 C1490 1.376 . S
C1491 C1492 1.388 . S
C1492 H1479 0.930 . S
C1492 C1491 1.388 . S
C1492 C1493 1.390 . S
C1493 C1492 1.390 . S
C1493 C1494 1.394 . S
C1493 C1499 1.465 . S
C1494 C1489 1.399 . S
C1494 C1493 1.394 . S
C1494 C1495 1.516 . S
C1495 C1494 1.516 . S
C1495 C1496 1.502 . S
C1495 C1497 1.561 . S
C1495 C1498 1.526 . S
C1496 H1480 0.959 . S
C1496 H1481 0.959 . S
C1496 H1482 0.961 . S
C1496 C1495 1.502 . S
C1497 H1483 0.960 . S
C1497 H1484 0.961 . S
C1497 H1485 0.959 . S
C1497 C1495 1.561 . S
C1498 C1495 1.526 . S
C1498 C1499 1.396 . S
C1498 C1503 1.390 . S
C1499 C1493 1.465 . S
C1499 C1498 1.396 . S
C1499 C1500 1.399 . S
C1500 H1486 0.929 . S
C1500 C1499 1.399 . S
C1500 C1501 1.385 . S
C1501 H1487 0.931 . S
C1501 C1500 1.385 . S
C1501 C1502 1.389 . S
C1502 C1501 1.389 . S
C1502 C1503 1.387 . S
C1503 H1488 0.930 . S
C1503 C1498 1.390 . S
C1503 C1502 1.387 . S
H1504 C1516 0.930 . S
H1505 C1518 0.930 . S
H1506 C1519 0.930 . S
H1507 C1523 0.959 . S
H1508 C1523 0.959 . S
H1509 C1523 0.961 . S
H1510 C1524 0.960 . S
H1511 C1524 0.961 . S
H1512 C1524 0.959 . S
H1513 C1527 0.929 . S
H1514 C1528 0.931 . S
H1515 C1530 0.930 . S
C1516 H1504 0.930 . S
C1516 C1517 1.399 . S
C1516 C1521 1.399 . S
C1517 C1516 1.399 . S
C1517 C1518 1.376 . S
C1518 H1505 0.930 . S
C1518 C1517 1.376 . S
C1518 C1519 1.388 . S
C1519 H1506 0.930 . S
C1519 C1518 1.388 . S
C1519 C1520 1.390 . S
C1520 C1519 1.390 . S
C1520 C1521 1.394 . S
C1520 C1526 1.465 . S
C1521 C1516 1.399 . S
C1521 C1520 1.394 . S
C1521 C1522 1.516 . S
C1522 C1521 1.516 . S
C1522 C1523 1.502 . S
C1522 C1524 1.561 . S
C1522 C1525 1.526 . S
C1523 H1507 0.959 . S
C1523 H1508 0.959 . S
C1523 H1509 0.961 . S
C1523 C1522 1.502 . S
C1524 H1510 0.960 . S
C1524 H1511 0.961 . S
C1524 H1512 0.959 . S
C1524 C1522 1.561 . S
C1525 C1522 1.526 . S
C1525 C1526 1.396 . S
C1525 C1530 1.390 . S
C1526 C1520 1.465 . S
C1526 C1525 1.396 . S
C1526 C1527 1.399 . S
C1527 H1513 0.929 . S
C1527 C1526 1.399 . S
C1527 C1528 1.385 . S
C1528 H1514 0.931 . S
C1528 C1527 1.385 . S
C1528 C1529 1.389 . S
C1529 C1528 1.389 . S
C1529 C1530 1.387 . S
C1530 H1515 0.930 . S
C1530 C1525 1.390 . S
C1530 C1529 1.387 . S
H1531 C1543 0.930 . S
H1532 C1545 0.930 . S
H1533 C1546 0.930 . S
H1534 C1550 0.959 . S
H1535 C1550 0.959 . S
H1536 C1550 0.961 . S
H1537 C1551 0.960 . S
H1538 C1551 0.961 . S
H1539 C1551 0.959 . S
H1540 C1554 0.929 . S
H1541 C1555 0.931 . S
H1542 C1557 0.930 . S
C1543 H1531 0.930 . S
C1543 C1544 1.399 . S
C1543 C1548 1.399 . S
C1544 C1543 1.399 . S
C1544 C1545 1.376 . S
C1545 H1532 0.930 . S
C1545 C1544 1.376 . S
C1545 C1546 1.388 . S
C1546 H1533 0.930 . S
C1546 C1545 1.388 . S
C1546 C1547 1.390 . S
C1547 C1546 1.390 . S
C1547 C1548 1.394 . S
C1547 C1553 1.465 . S
C1548 C1543 1.399 . S
C1548 C1547 1.394 . S
C1548 C1549 1.516 . S
C1549 C1548 1.516 . S
C1549 C1550 1.502 . S
C1549 C1551 1.561 . S
C1549 C1552 1.526 . S
C1550 H1534 0.959 . S
C1550 H1535 0.959 . S
C1550 H1536 0.961 . S
C1550 C1549 1.502 . S
C1551 H1537 0.960 . S
C1551 H1538 0.961 . S
C1551 H1539 0.959 . S
C1551 C1549 1.561 . S
C1552 C1549 1.526 . S
C1552 C1553 1.396 . S
C1552 C1557 1.390 . S
C1553 C1547 1.465 . S
C1553 C1552 1.396 . S
C1553 C1554 1.399 . S
C1554 H1540 0.929 . S
C1554 C1553 1.399 . S
C1554 C1555 1.385 . S
C1555 H1541 0.931 . S
C1555 C1554 1.385 . S
C1555 C1556 1.389 . S
C1556 C1555 1.389 . S
C1556 C1557 1.387 . S
C1557 H1542 0.930 . S
C1557 C1552 1.390 . S
C1557 C1556 1.387 . S
H1558 C1570 0.930 . S
H1559 C1572 0.930 . S
H1560 C1573 0.930 . S
H1561 C1577 0.959 . S
H1562 C1577 0.959 . S
H1563 C1577 0.961 . S
H1564 C1578 0.960 . S
H1565 C1578 0.961 . S
H1566 C1578 0.959 . S
H1567 C1581 0.929 . S
H1568 C1582 0.931 . S
H1569 C1584 0.930 . S
C1570 H1558 0.930 . S
C1570 C1571 1.399 . S
C1570 C1575 1.399 . S
C1571 C1570 1.399 . S
C1571 C1572 1.376 . S
C1572 H1559 0.930 . S
C1572 C1571 1.376 . S
C1572 C1573 1.388 . S
C1573 H1560 0.930 . S
C1573 C1572 1.388 . S
C1573 C1574 1.390 . S
C1574 C1573 1.390 . S
C1574 C1575 1.394 . S
C1574 C1580 1.465 . S
C1575 C1570 1.399 . S
C1575 C1574 1.394 . S
C1575 C1576 1.516 . S
C1576 C1575 1.516 . S
C1576 C1577 1.502 . S
C1576 C1578 1.561 . S
C1576 C1579 1.526 . S
C1577 H1561 0.959 . S
C1577 H1562 0.959 . S
C1577 H1563 0.961 . S
C1577 C1576 1.502 . S
C1578 H1564 0.960 . S
C1578 H1565 0.961 . S
C1578 H1566 0.959 . S
C1578 C1576 1.561 . S
C1579 C1576 1.526 . S
C1579 C1580 1.396 . S
C1579 C1584 1.390 . S
C1580 C1574 1.465 . S
C1580 C1579 1.396 . S
C1580 C1581 1.399 . S
C1581 H1567 0.929 . S
C1581 C1580 1.399 . S
C1581 C1582 1.385 . S
C1582 H1568 0.931 . S
C1582 C1581 1.385 . S
C1582 C1583 1.389 . S
C1583 C1582 1.389 . S
C1583 C1584 1.387 . S
C1584 H1569 0.930 . S
C1584 C1579 1.390 . S
C1584 C1583 1.387 . S
H1585 C1597 0.930 . S
H1586 C1599 0.930 . S
H1587 C1600 0.930 . S
H1588 C1604 0.959 . S
H1589 C1604 0.959 . S
H1590 C1604 0.961 . S
H1591 C1605 0.960 . S
H1592 C1605 0.961 . S
H1593 C1605 0.959 . S
H1594 C1608 0.929 . S
H1595 C1609 0.931 . S
H1596 C1611 0.930 . S
C1597 H1585 0.930 . S
C1597 C1598 1.399 . S
C1597 C1602 1.399 . S
C1598 C1597 1.399 . S
C1598 C1599 1.376 . S
C1599 H1586 0.930 . S
C1599 C1598 1.376 . S
C1599 C1600 1.388 . S
C1600 H1587 0.930 . S
C1600 C1599 1.388 . S
C1600 C1601 1.390 . S
C1601 C1600 1.390 . S
C1601 C1602 1.394 . S
C1601 C1607 1.465 . S
C1602 C1597 1.399 . S
C1602 C1601 1.394 . S
C1602 C1603 1.516 . S
C1603 C1602 1.516 . S
C1603 C1604 1.502 . S
C1603 C1605 1.561 . S
C1603 C1606 1.526 . S
C1604 H1588 0.959 . S
C1604 H1589 0.959 . S
C1604 H1590 0.961 . S
C1604 C1603 1.502 . S
C1605 H1591 0.960 . S
C1605 H1592 0.961 . S
C1605 H1593 0.959 . S
C1605 C1603 1.561 . S
C1606 C1603 1.526 . S
C1606 C1607 1.396 . S
C1606 C1611 1.390 . S
C1607 C1601 1.465 . S
C1607 C1606 1.396 . S
C1607 C1608 1.399 . S
C1608 H1594 0.929 . S
C1608 C1607 1.399 . S
C1608 C1609 1.385 . S
C1609 H1595 0.931 . S
C1609 C1608 1.385 . S
C1609 C1610 1.389 . S
C1610 C1609 1.389 . S
C1610 C1611 1.387 . S
C1611 H1596 0.930 . S
C1611 C1606 1.390 . S
C1611 C1610 1.387 . S
H1612 C1624 0.930 . S
H1613 C1626 0.930 . S
H1614 C1627 0.930 . S
H1615 C1631 0.959 . S
H1616 C1631 0.959 . S
H1617 C1631 0.961 . S
H1618 C1632 0.960 . S
H1619 C1632 0.961 . S
H1620 C1632 0.959 . S
H1621 C1635 0.929 . S
H1622 C1636 0.931 . S
H1623 C1638 0.930 . S
C1624 H1612 0.930 . S
C1624 C1625 1.399 . S
C1624 C1629 1.399 . S
C1625 C1624 1.399 . S
C1625 C1626 1.376 . S
C1626 H1613 0.930 . S
C1626 C1625 1.376 . S
C1626 C1627 1.388 . S
C1627 H1614 0.930 . S
C1627 C1626 1.388 . S
C1627 C1628 1.390 . S
C1628 C1627 1.390 . S
C1628 C1629 1.394 . S
C1628 C1634 1.465 . S
C1629 C1624 1.399 . S
C1629 C1628 1.394 . S
C1629 C1630 1.516 . S
C1630 C1629 1.516 . S
C1630 C1631 1.502 . S
C1630 C1632 1.561 . S
C1630 C1633 1.526 . S
C1631 H1615 0.959 . S
C1631 H1616 0.959 . S
C1631 H1617 0.961 . S
C1631 C1630 1.502 . S
C1632 H1618 0.960 . S
C1632 H1619 0.961 . S
C1632 H1620 0.959 . S
C1632 C1630 1.561 . S
C1633 C1630 1.526 . S
C1633 C1634 1.396 . S
C1633 C1638 1.390 . S
C1634 C1628 1.465 . S
C1634 C1633 1.396 . S
C1634 C1635 1.399 . S
C1635 H1621 0.929 . S
C1635 C1634 1.399 . S
C1635 C1636 1.385 . S
C1636 H1622 0.931 . S
C1636 C1635 1.385 . S
C1636 C1637 1.389 . S
C1637 C1636 1.389 . S
C1637 C1638 1.387 . S
C1638 H1623 0.930 . S
C1638 C1633 1.390 . S
C1638 C1637 1.387 . S
H1639 C1651 0.930 . S
H1640 C1653 0.930 . S
H1641 C1654 0.930 . S
H1642 C1658 0.959 . S
H1643 C1658 0.959 . S
H1644 C1658 0.961 . S
H1645 C1659 0.960 . S
H1646 C1659 0.961 . S
H1647 C1659 0.959 . S
H1648 C1662 0.929 . S
H1649 C1663 0.931 . S
H1650 C1665 0.930 . S
C1651 H1639 0.930 . S
C1651 C1652 1.399 . S
C1651 C1656 1.399 . S
C1652 C1651 1.399 . S
C1652 C1653 1.376 . S
C1653 H1640 0.930 . S
C1653 C1652 1.376 . S
C1653 C1654 1.388 . S
C1654 H1641 0.930 . S
C1654 C1653 1.388 . S
C1654 C1655 1.390 . S
C1655 C1654 1.390 . S
C1655 C1656 1.394 . S
C1655 C1661 1.465 . S
C1656 C1651 1.399 . S
C1656 C1655 1.394 . S
C1656 C1657 1.516 . S
C1657 C1656 1.516 . S
C1657 C1658 1.502 . S
C1657 C1659 1.561 . S
C1657 C1660 1.526 . S
C1658 H1642 0.959 . S
C1658 H1643 0.959 . S
C1658 H1644 0.961 . S
C1658 C1657 1.502 . S
C1659 H1645 0.960 . S
C1659 H1646 0.961 . S
C1659 H1647 0.959 . S
C1659 C1657 1.561 . S
C1660 C1657 1.526 . S
C1660 C1661 1.396 . S
C1660 C1665 1.390 . S
C1661 C1655 1.465 . S
C1661 C1660 1.396 . S
C1661 C1662 1.399 . S
C1662 H1648 0.929 . S
C1662 C1661 1.399 . S
C1662 C1663 1.385 . S
C1663 H1649 0.931 . S
C1663 C1662 1.385 . S
C1663 C1664 1.389 . S
C1664 C1663 1.389 . S
C1664 C1665 1.387 . S
C1665 H1650 0.930 . S
C1665 C1660 1.390 . S
C1665 C1664 1.387 . S
H1666 C1678 0.930 . S
H1667 C1680 0.930 . S
H1668 C1681 0.930 . S
H1669 C1685 0.959 . S
H1670 C1685 0.959 . S
H1671 C1685 0.961 . S
H1672 C1686 0.960 . S
H1673 C1686 0.961 . S
H1674 C1686 0.959 . S
H1675 C1689 0.929 . S
H1676 C1690 0.931 . S
H1677 C1692 0.930 . S
C1678 H1666 0.930 . S
C1678 C1679 1.399 . S
C1678 C1683 1.399 . S
C1679 C1678 1.399 . S
C1679 C1680 1.376 . S
C1680 H1667 0.930 . S
C1680 C1679 1.376 . S
C1680 C1681 1.388 . S
C1681 H1668 0.930 . S
C1681 C1680 1.388 . S
C1681 C1682 1.390 . S
C1682 C1681 1.390 . S
C1682 C1683 1.394 . S
C1682 C1688 1.465 . S
C1683 C1678 1.399 . S
C1683 C1682 1.394 . S
C1683 C1684 1.516 . S
C1684 C1683 1.516 . S
C1684 C1685 1.502 . S
C1684 C1686 1.561 . S
C1684 C1687 1.526 . S
C1685 H1669 0.959 . S
C1685 H1670 0.959 . S
C1685 H1671 0.961 . S
C1685 C1684 1.502 . S
C1686 H1672 0.960 . S
C1686 H1673 0.961 . S
C1686 H1674 0.959 . S
C1686 C1684 1.561 . S
C1687 C1684 1.526 . S
C1687 C1688 1.396 . S
C1687 C1692 1.390 . S
C1688 C1682 1.465 . S
C1688 C1687 1.396 . S
C1688 C1689 1.399 . S
C1689 H1675 0.929 . S
C1689 C1688 1.399 . S
C1689 C1690 1.385 . S
C1690 H1676 0.931 . S
C1690 C1689 1.385 . S
C1690 C1691 1.389 . S
C1691 C1690 1.389 . S
C1691 C1692 1.387 . S
C1692 H1677 0.930 . S
C1692 C1687 1.390 . S
C1692 C1691 1.387 . S
H1693 C1705 0.930 . S
H1694 C1707 0.930 . S
H1695 C1708 0.930 . S
H1696 C1712 0.959 . S
H1697 C1712 0.959 . S
H1698 C1712 0.961 . S
H1699 C1713 0.960 . S
H1700 C1713 0.961 . S
H1701 C1713 0.959 . S
H1702 C1716 0.929 . S
H1703 C1717 0.931 . S
H1704 C1719 0.930 . S
C1705 H1693 0.930 . S
C1705 C1706 1.399 . S
C1705 C1710 1.399 . S
C1706 C1705 1.399 . S
C1706 C1707 1.376 . S
C1707 H1694 0.930 . S
C1707 C1706 1.376 . S
C1707 C1708 1.388 . S
C1708 H1695 0.930 . S
C1708 C1707 1.388 . S
C1708 C1709 1.390 . S
C1709 C1708 1.390 . S
C1709 C1710 1.394 . S
C1709 C1715 1.465 . S
C1710 C1705 1.399 . S
C1710 C1709 1.394 . S
C1710 C1711 1.516 . S
C1711 C1710 1.516 . S
C1711 C1712 1.502 . S
C1711 C1713 1.561 . S
C1711 C1714 1.526 . S
C1712 H1696 0.959 . S
C1712 H1697 0.959 . S
C1712 H1698 0.961 . S
C1712 C1711 1.502 . S
C1713 H1699 0.960 . S
C1713 H1700 0.961 . S
C1713 H1701 0.959 . S
C1713 C1711 1.561 . S
C1714 C1711 1.526 . S
C1714 C1715 1.396 . S
C1714 C1719 1.390 . S
C1715 C1709 1.465 . S
C1715 C1714 1.396 . S
C1715 C1716 1.399 . S
C1716 H1702 0.929 . S
C1716 C1715 1.399 . S
C1716 C1717 1.385 . S
C1717 H1703 0.931 . S
C1717 C1716 1.385 . S
C1717 C1718 1.389 . S
C1718 C1717 1.389 . S
C1718 C1719 1.387 . S
C1719 H1704 0.930 . S
C1719 C1714 1.390 . S
C1719 C1718 1.387 . S
H1720 C1732 0.930 . S
H1721 C1734 0.930 1_556 S
H1722 C1735 0.930 . S
H1723 C1739 0.959 . S
H1724 C1739 0.959 . S
H1725 C1739 0.961 . S
H1726 C1740 0.960 . S
H1727 C1740 0.961 . S
H1728 C1740 0.959 . S
H1729 C1743 0.929 . S
H1730 C1744 0.931 . S
H1731 C1746 0.930 . S
C1732 H1720 0.930 . S
C1732 C1733 1.399 1_554 S
C1732 C1737 1.399 . S
C1733 C1732 1.399 1_556 S
C1733 C1734 1.376 1_556 S
C1734 H1721 0.930 1_554 S
C1734 C1733 1.376 1_554 S
C1734 C1735 1.388 . S
C1735 H1722 0.930 . S
C1735 C1734 1.388 . S
C1735 C1736 1.390 . S
C1736 C1735 1.390 . S
C1736 C1737 1.394 . S
C1736 C1742 1.465 . S
C1737 C1732 1.399 . S
C1737 C1736 1.394 . S
C1737 C1738 1.516 . S
C1738 C1737 1.516 . S
C1738 C1739 1.502 . S
C1738 C1740 1.561 . S
C1738 C1741 1.526 . S
C1739 H1723 0.959 . S
C1739 H1724 0.959 . S
C1739 H1725 0.961 . S
C1739 C1738 1.502 . S
C1740 H1726 0.960 . S
C1740 H1727 0.961 . S
C1740 H1728 0.959 . S
C1740 C1738 1.561 . S
C1741 C1738 1.526 . S
C1741 C1742 1.396 . S
C1741 C1746 1.390 . S
C1742 C1736 1.465 . S
C1742 C1741 1.396 . S
C1742 C1743 1.399 . S
C1743 H1729 0.929 . S
C1743 C1742 1.399 . S
C1743 C1744 1.385 . S
C1744 H1730 0.931 . S
C1744 C1743 1.385 . S
C1744 C1745 1.389 . S
C1745 C1744 1.389 . S
C1745 C1746 1.387 . S
C1746 H1731 0.930 . S
C1746 C1741 1.390 . S
C1746 C1745 1.387 . S
H1747 C1759 0.930 . S
H1748 C1761 0.930 . S
H1749 C1762 0.930 . S
H1750 C1766 0.959 . S
H1751 C1766 0.959 . S
H1752 C1766 0.961 . S
H1753 C1767 0.960 . S
H1754 C1767 0.961 . S
H1755 C1767 0.959 . S
H1756 C1770 0.929 . S
H1757 C1771 0.932 . S
H1758 C1773 0.930 . S
C1759 H1747 0.930 . S
C1759 C1760 1.399 . S
C1759 C1764 1.399 . S
C1760 C1759 1.399 . S
C1760 C1761 1.376 . S
C1761 H1748 0.930 . S
C1761 C1760 1.376 . S
C1761 C1762 1.388 . S
C1762 H1749 0.930 . S
C1762 C1761 1.388 . S
C1762 C1763 1.390 . S
C1763 C1762 1.390 . S
C1763 C1764 1.394 . S
C1763 C1769 1.465 . S
C1764 C1759 1.399 . S
C1764 C1763 1.394 . S
C1764 C1765 1.516 . S
C1765 C1764 1.516 . S
C1765 C1766 1.502 . S
C1765 C1767 1.561 . S
C1765 C1768 1.526 . S
C1766 H1750 0.959 . S
C1766 H1751 0.959 . S
C1766 H1752 0.961 . S
C1766 C1765 1.502 . S
C1767 H1753 0.960 . S
C1767 H1754 0.961 . S
C1767 H1755 0.959 . S
C1767 C1765 1.561 . S
C1768 C1765 1.526 . S
C1768 C1769 1.396 . S
C1768 C1773 1.390 . S
C1769 C1763 1.465 . S
C1769 C1768 1.396 . S
C1769 C1770 1.399 . S
C1770 H1756 0.929 . S
C1770 C1769 1.399 . S
C1770 C1771 1.385 . S
C1771 H1757 0.932 . S
C1771 C1770 1.385 . S
C1771 C1772 1.389 1_556 S
C1772 C1771 1.389 1_554 S
C1772 C1773 1.387 1_554 S
C1773 H1758 0.930 . S
C1773 C1768 1.390 . S
C1773 C1772 1.387 1_556 S
H1774 C1786 0.930 . S
H1775 C1788 0.930 . S
H1776 C1789 0.930 . S
H1777 C1793 0.959 . S
H1778 C1793 0.959 . S
H1779 C1793 0.961 . S
H1780 C1794 0.960 . S
H1781 C1794 0.961 . S
H1782 C1794 0.959 . S
H1783 C1797 0.929 . S
H1784 C1798 0.931 1_556 S
H1785 C1800 0.930 . S
C1786 H1774 0.930 . S
C1786 C1787 1.399 . S
C1786 C1791 1.399 . S
C1787 C1786 1.399 . S
C1787 C1788 1.376 . S
C1788 H1775 0.930 . S
C1788 C1787 1.376 . S
C1788 C1789 1.388 . S
C1789 H1776 0.930 . S
C1789 C1788 1.388 . S
C1789 C1790 1.390 . S
C1790 C1789 1.390 . S
C1790 C1791 1.394 . S
C1790 C1796 1.465 . S
C1791 C1786 1.399 . S
C1791 C1790 1.394 . S
C1791 C1792 1.516 . S
C1792 C1791 1.516 . S
C1792 C1793 1.502 . S
C1792 C1794 1.561 . S
C1792 C1795 1.526 . S
C1793 H1777 0.959 . S
C1793 H1778 0.959 . S
C1793 H1779 0.961 . S
C1793 C1792 1.502 . S
C1794 H1780 0.960 . S
C1794 H1781 0.961 . S
C1794 H1782 0.959 . S
C1794 C1792 1.561 . S
C1795 C1792 1.526 . S
C1795 C1796 1.396 . S
C1795 C1800 1.390 . S
C1796 C1790 1.465 . S
C1796 C1795 1.396 . S
C1796 C1797 1.399 . S
C1797 H1783 0.929 . S
C1797 C1796 1.399 . S
C1797 C1798 1.385 . S
C1798 H1784 0.931 1_554 S
C1798 C1797 1.385 . S
C1798 C1799 1.389 1_554 S
C1799 C1798 1.389 1_556 S
C1799 C1800 1.387 1_556 S
C1800 H1785 0.930 . S
C1800 C1795 1.390 . S
C1800 C1799 1.387 1_554 S
H1801 C1813 0.930 . S
H1802 C1815 0.930 1_554 S
H1803 C1816 0.930 . S
H1804 C1820 0.959 . S
H1805 C1820 0.959 . S
H1806 C1820 0.961 . S
H1807 C1821 0.960 . S
H1808 C1821 0.961 . S
H1809 C1821 0.959 . S
H1810 C1824 0.929 . S
H1811 C1825 0.931 . S
H1812 C1827 0.930 . S
C1813 H1801 0.930 . S
C1813 C1814 1.399 1_556 S
C1813 C1818 1.399 . S
C1814 C1813 1.399 1_554 S
C1814 C1815 1.376 1_554 S
C1815 H1802 0.930 1_556 S
C1815 C1814 1.376 1_556 S
C1815 C1816 1.388 . S
C1816 H1803 0.930 . S
C1816 C1815 1.388 . S
C1816 C1817 1.390 . S
C1817 C1816 1.390 . S
C1817 C1818 1.394 . S
C1817 C1823 1.465 . S
C1818 C1813 1.399 . S
C1818 C1817 1.394 . S
C1818 C1819 1.516 . S
C1819 C1818 1.516 . S
C1819 C1820 1.502 . S
C1819 C1821 1.561 . S
C1819 C1822 1.526 . S
C1820 H1804 0.959 . S
C1820 H1805 0.959 . S
C1820 H1806 0.961 . S
C1820 C1819 1.502 . S
C1821 H1807 0.960 . S
C1821 H1808 0.961 . S
C1821 H1809 0.959 . S
C1821 C1819 1.561 . S
C1822 C1819 1.526 . S
C1822 C1823 1.396 . S
C1822 C1827 1.390 . S
C1823 C1817 1.465 . S
C1823 C1822 1.396 . S
C1823 C1824 1.399 . S
C1824 H1810 0.929 . S
C1824 C1823 1.399 . S
C1824 C1825 1.385 . S
C1825 H1811 0.931 . S
C1825 C1824 1.385 . S
C1825 C1826 1.389 . S
C1826 C1825 1.389 . S
C1826 C1827 1.387 . S
C1827 H1812 0.930 . S
C1827 C1822 1.390 . S
C1827 C1826 1.387 . S
H1828 C1840 0.930 . S
H1829 C1842 0.930 . S
H1830 C1843 0.930 . S
H1831 C1847 0.959 . S
H1832 C1847 0.959 . S
H1833 C1847 0.961 . S
H1834 C1848 0.960 . S
H1835 C1848 0.961 . S
H1836 C1848 0.959 . S
H1837 C1851 0.929 . S
H1838 C1852 0.931 1_556 S
H1839 C1854 0.930 . S
C1840 H1828 0.930 . S
C1840 C1841 1.399 . S
C1840 C1845 1.399 . S
C1841 C1840 1.399 . S
C1841 C1842 1.376 . S
C1842 H1829 0.930 . S
C1842 C1841 1.376 . S
C1842 C1843 1.388 . S
C1843 H1830 0.930 . S
C1843 C1842 1.388 . S
C1843 C1844 1.390 . S
C1844 C1843 1.390 . S
C1844 C1845 1.394 . S
C1844 C1850 1.465 . S
C1845 C1840 1.399 . S
C1845 C1844 1.394 . S
C1845 C1846 1.516 . S
C1846 C1845 1.516 . S
C1846 C1847 1.502 . S
C1846 C1848 1.561 . S
C1846 C1849 1.526 . S
C1847 H1831 0.959 . S
C1847 H1832 0.959 . S
C1847 H1833 0.961 . S
C1847 C1846 1.502 . S
C1848 H1834 0.960 . S
C1848 H1835 0.961 . S
C1848 H1836 0.959 . S
C1848 C1846 1.561 . S
C1849 C1846 1.526 . S
C1849 C1850 1.396 . S
C1849 C1854 1.390 . S
C1850 C1844 1.465 . S
C1850 C1849 1.396 . S
C1850 C1851 1.399 . S
C1851 H1837 0.929 . S
C1851 C1850 1.399 . S
C1851 C1852 1.385 . S
C1852 H1838 0.931 1_554 S
C1852 C1851 1.385 . S
C1852 C1853 1.389 1_554 S
C1853 C1852 1.389 1_556 S
C1853 C1854 1.387 1_556 S
C1854 H1839 0.930 . S
C1854 C1849 1.390 . S
C1854 C1853 1.387 1_554 S
H1855 C1867 0.930 . S
H1856 C1869 0.930 1_554 S
H1857 C1870 0.930 . S
H1858 C1874 0.959 . S
H1859 C1874 0.959 . S
H1860 C1874 0.961 . S
H1861 C1875 0.960 . S
H1862 C1875 0.961 . S
H1863 C1875 0.959 . S
H1864 C1878 0.929 . S
H1865 C1879 0.931 . S
H1866 C1881 0.930 . S
C1867 H1855 0.930 . S
C1867 C1868 1.399 1_556 S
C1867 C1872 1.399 . S
C1868 C1867 1.399 1_554 S
C1868 C1869 1.376 1_554 S
C1869 H1856 0.930 1_556 S
C1869 C1868 1.376 1_556 S
C1869 C1870 1.388 . S
C1870 H1857 0.930 . S
C1870 C1869 1.388 . S
C1870 C1871 1.390 . S
C1871 C1870 1.390 . S
C1871 C1872 1.394 . S
C1871 C1877 1.465 . S
C1872 C1867 1.399 . S
C1872 C1871 1.394 . S
C1872 C1873 1.516 . S
C1873 C1872 1.516 . S
C1873 C1874 1.502 . S
C1873 C1875 1.561 . S
C1873 C1876 1.526 . S
C1874 H1858 0.959 . S
C1874 H1859 0.959 . S
C1874 H1860 0.961 . S
C1874 C1873 1.502 . S
C1875 H1861 0.960 . S
C1875 H1862 0.961 . S
C1875 H1863 0.959 . S
C1875 C1873 1.561 . S
C1876 C1873 1.526 . S
C1876 C1877 1.396 . S
C1876 C1881 1.390 . S
C1877 C1871 1.465 . S
C1877 C1876 1.396 . S
C1877 C1878 1.399 . S
C1878 H1864 0.929 . S
C1878 C1877 1.399 . S
C1878 C1879 1.385 . S
C1879 H1865 0.931 . S
C1879 C1878 1.385 . S
C1879 C1880 1.389 . S
C1880 C1879 1.389 . S
C1880 C1881 1.387 . S
C1881 H1866 0.930 . S
C1881 C1876 1.390 . S
C1881 C1880 1.387 . S
H1882 C1894 0.930 . S
H1883 C1896 0.930 1_556 S
H1884 C1897 0.930 . S
H1885 C1901 0.959 . S
H1886 C1901 0.959 . S
H1887 C1901 0.961 . S
H1888 C1902 0.960 . S
H1889 C1902 0.961 . S
H1890 C1902 0.959 . S
H1891 C1905 0.929 . S
H1892 C1906 0.931 . S
H1893 C1908 0.930 . S
C1894 H1882 0.930 . S
C1894 C1895 1.399 1_554 S
C1894 C1899 1.399 . S
C1895 C1894 1.399 1_556 S
C1895 C1896 1.376 1_556 S
C1896 H1883 0.930 1_554 S
C1896 C1895 1.376 1_554 S
C1896 C1897 1.388 . S
C1897 H1884 0.930 . S
C1897 C1896 1.388 . S
C1897 C1898 1.390 . S
C1898 C1897 1.390 . S
C1898 C1899 1.394 . S
C1898 C1904 1.465 . S
C1899 C1894 1.399 . S
C1899 C1898 1.394 . S
C1899 C1900 1.516 . S
C1900 C1899 1.516 . S
C1900 C1901 1.502 . S
C1900 C1902 1.561 . S
C1900 C1903 1.526 . S
C1901 H1885 0.959 . S
C1901 H1886 0.959 . S
C1901 H1887 0.961 . S
C1901 C1900 1.502 . S
C1902 H1888 0.960 . S
C1902 H1889 0.961 . S
C1902 H1890 0.959 . S
C1902 C1900 1.561 . S
C1903 C1900 1.526 . S
C1903 C1904 1.396 . S
C1903 C1908 1.390 . S
C1904 C1898 1.465 . S
C1904 C1903 1.396 . S
C1904 C1905 1.399 . S
C1905 H1891 0.929 . S
C1905 C1904 1.399 . S
C1905 C1906 1.385 . S
C1906 H1892 0.931 . S
C1906 C1905 1.385 . S
C1906 C1907 1.389 . S
C1907 C1906 1.389 . S
C1907 C1908 1.387 . S
C1908 H1893 0.930 . S
C1908 C1903 1.390 . S
C1908 C1907 1.387 . S
H1909 C1921 0.930 . S
H1910 C1923 0.930 . S
H1911 C1924 0.930 . S
H1912 C1928 0.959 . S
H1913 C1928 0.959 . S
H1914 C1928 0.961 . S
H1915 C1929 0.960 . S
H1916 C1929 0.961 . S
H1917 C1929 0.959 . S
H1918 C1932 0.929 . S
H1919 C1933 0.931 1_554 S
H1920 C1935 0.930 . S
C1921 H1909 0.930 . S
C1921 C1922 1.399 . S
C1921 C1926 1.399 . S
C1922 C1921 1.399 . S
C1922 C1923 1.376 . S
C1923 H1910 0.930 . S
C1923 C1922 1.376 . S
C1923 C1924 1.388 . S
C1924 H1911 0.930 . S
C1924 C1923 1.388 . S
C1924 C1925 1.390 . S
C1925 C1924 1.390 . S
C1925 C1926 1.394 . S
C1925 C1931 1.465 . S
C1926 C1921 1.399 . S
C1926 C1925 1.394 . S
C1926 C1927 1.516 . S
C1927 C1926 1.516 . S
C1927 C1928 1.502 . S
C1927 C1929 1.561 . S
C1927 C1930 1.526 . S
C1928 H1912 0.959 . S
C1928 H1913 0.959 . S
C1928 H1914 0.961 . S
C1928 C1927 1.502 . S
C1929 H1915 0.960 . S
C1929 H1916 0.961 . S
C1929 H1917 0.959 . S
C1929 C1927 1.561 . S
C1930 C1927 1.526 . S
C1930 C1931 1.396 . S
C1930 C1935 1.390 . S
C1931 C1925 1.465 . S
C1931 C1930 1.396 . S
C1931 C1932 1.399 . S
C1932 H1918 0.929 . S
C1932 C1931 1.399 . S
C1932 C1933 1.385 . S
C1933 H1919 0.931 1_556 S
C1933 C1932 1.385 . S
C1933 C1934 1.389 1_556 S
C1934 C1933 1.389 1_554 S
C1934 C1935 1.387 1_554 S
C1935 H1920 0.930 . S
C1935 C1930 1.390 . S
C1935 C1934 1.387 1_556 S
C653 C449 1.691 . S
C665 C8 1.716 . S
C680 C339 1.734 . S
C692 C58 1.670 . S
C707 C88 1.676 . S
C719 C369 1.737 . S
C734 C138 1.660 . S
C746 C419 1.730 . S
C761 C168 1.718 . S
C773 C209 1.710 . S
C788 C259 1.734 . S
C800 C218 1.670 . S
C815 C248 1.696 . S
C827 C289 1.691 . S
C842 C179 1.691 . S
C854 C298 1.711 . S
C869 C129 1.689 . S
C881 C328 1.711 . S
C896 C378 1.710 . S
C908 C19 1.706 . S
C923 C49 1.727 . S
C935 C408 1.657 . S
C950 C99 1.691 . S
C962 C458 1.721 . S
C977 C488 1.667 . S
C989 C529 1.737 . S
C1004 C579 1.690 . S
C1016 C538 1.721 . S
C1031 C609 1.716 . S
C1043 C568 1.661 . S
C1058 C618 1.705 . S
C1070 C499 1.711 . S
C1085 C18 1.145 . S
C1097 C178 1.218 . S
C1112 C208 1.253 . S
C1124 C48 1.206 . S
C1139 C98 1.147 . S
C1151 C258 1.216 . S
C1166 C128 1.253 . S
C1178 C288 1.206 . S
C1193 C338 1.256 . S
C1205 C498 1.156 . S
C1220 C528 1.240 . S
C1232 C368 1.229 . S
C1247 C418 1.220 . S
C1259 C578 1.219 . S
C1274 C448 1.251 . S
C1286 C608 1.211 . S
C1301 C569 2.287 . S
C1313 C9 2.307 1_556 S
C1328 C59 2.315 1_554 S
C1340 C619 2.292 . S
C1355 C89 2.319 1_556 S
C1367 C489 2.297 . S
C1382 C139 2.315 1_554 S
C1394 C539 2.293 . S
C1409 C169 2.322 . S
C1421 C409 2.290 . S
C1436 C219 2.317 . S
C1448 C459 2.290 . S
C1463 C249 2.286 . S
C1475 C329 2.322 . S
C1490 C379 2.286 . S
C1502 C299 2.318 . S
C1517 C15 1.022 . S
C1529 C5 0.999 . S
C1544 C45 1.018 . S
C1556 C55 0.998 . S
C1571 C95 1.001 . S
C1583 C85 1.014 . S
C1598 C135 1.019 . S
C1610 C125 0.997 . S
C1625 C165 0.998 . S
C1637 C175 1.017 . S
C1652 C205 1.017 . S
C1664 C215 0.999 . S
C1679 C255 0.999 . S
C1691 C245 1.016 . S
C1706 C295 1.019 . S
C1718 C285 0.997 . S
C1733 C335 1.000 . S
C1745 C325 1.015 . S
C1760 C375 0.999 . S
C1772 C365 1.021 . S
C1787 C405 1.021 . S
C1799 C415 1.001 . S
C1814 C445 0.995 . S
C1826 C455 1.022 . S
C1841 C495 1.000 . S
C1853 C485 1.014 . S
C1868 C535 1.019 . S
C1880 C525 0.997 . S
C1895 C565 0.998 . S
C1907 C575 1.018 . S
C1922 C605 1.017 . S
C1934 C615 0.999 . S
