# Generated by pormake.
# Topology fcu, (12)-cn, num edge types: 1
# Building blocks:
#     Node 0, Type 0, BuildingBlock: ZALLEG_clean_sbu_0, # of connection points: 12
#     Node 1, Type 0, BuildingBlock: ZALLEG_clean_sbu_0, # of connection points: 12
#     Node 2, Type 0, BuildingBlock: ZALLEG_clean_sbu_0, # of connection points: 12
#     Node 3, Type 0, BuildingBlock: ZALLEG_clean_sbu_0, # of connection points: 12
#     Edge 4, Type (0, 0), BuildingBlock: MIFKUJ_clean_linker_0, # of connection points: 2
#     Edge 5, Type (0, 0), BuildingBlock: MIFKUJ_clean_linker_0, # of connection points: 2
#     Edge 6, Type (0, 0), BuildingBlock: MIFKUJ_clean_linker_0, # of connection points: 2
#     Edge 7, Type (0, 0), BuildingBlock: MIFKUJ_clean_linker_0, # of connection points: 2
#     Edge 8, Type (0, 0), BuildingBlock: MIFKUJ_clean_linker_0, # of connection points: 2
#     Edge 9, Type (0, 0), BuildingBlock: MIFKUJ_clean_linker_0, # of connection points: 2
#     Edge 10, Type (0, 0), BuildingBlock: MIFKUJ_clean_linker_0, # of connection points: 2
#     Edge 11, Type (0, 0), BuildingBlock: MIFKUJ_clean_linker_0, # of connection points: 2
#     Edge 12, Type (0, 0), BuildingBlock: MIFKUJ_clean_linker_0, # of connection points: 2
#     Edge 13, Type (0, 0), BuildingBlock: MIFKUJ_clean_linker_0, # of connection points: 2
#     Edge 14, Type (0, 0), BuildingBlock: MIFKUJ_clean_linker_0, # of connection points: 2
#     Edge 15, Type (0, 0), BuildingBlock: MIFKUJ_clean_linker_0, # of connection points: 2
#     Edge 16, Type (0, 0), BuildingBlock: MIFKUJ_clean_linker_0, # of connection points: 2
#     Edge 17, Type (0, 0), BuildingBlock: MIFKUJ_clean_linker_0, # of connection points: 2
#     Edge 18, Type (0, 0), BuildingBlock: MIFKUJ_clean_linker_0, # of connection points: 2
#     Edge 19, Type (0, 0), BuildingBlock: MIFKUJ_clean_linker_0, # of connection points: 2
#     Edge 20, Type (0, 0), BuildingBlock: MIFKUJ_clean_linker_0, # of connection points: 2
#     Edge 21, Type (0, 0), BuildingBlock: MIFKUJ_clean_linker_0, # of connection points: 2
#     Edge 22, Type (0, 0), BuildingBlock: MIFKUJ_clean_linker_0, # of connection points: 2
#     Edge 23, Type (0, 0), BuildingBlock: MIFKUJ_clean_linker_0, # of connection points: 2
#     Edge 24, Type (0, 0), BuildingBlock: MIFKUJ_clean_linker_0, # of connection points: 2
#     Edge 25, Type (0, 0), BuildingBlock: MIFKUJ_clean_linker_0, # of connection points: 2
#     Edge 26, Type (0, 0), BuildingBlock: MIFKUJ_clean_linker_0, # of connection points: 2
#     Edge 27, Type (0, 0), BuildingBlock: MIFKUJ_clean_linker_0, # of connection points: 2
# Relax obj value: 0.000
# Max RMSD: 0.000
# Mean RMSD: 0.000
data_MOF--net-fcu--node1-ZALLEG_clean_sbu_0--edge1-MIFKUJ_clean_linker_0
_symmetry_space_group_name_H-M    P1
_symmetry_Int_Tables_number       1
_symmetry_cell_setting            triclinic
loop_
_symmetry_equiv_pos_as_xyz
'x, y, z'
_cell_length_a     33.005345
_cell_length_b     32.977287
_cell_length_c     32.958005
_cell_angle_alpha  89.939481
_cell_angle_beta   89.934004
_cell_angle_gamma 89.993719
loop_
_atom_site_label
_atom_site_type_symbol
_atom_site_fract_x
_atom_site_fract_y
_atom_site_fract_z
_atom_type_partial_charge
H0 H 0.95306 0.9539 0.95618 0.0
O1 O 0.97052 0.9712 0.97324 0.0
Tb2 Tb 0.93476 1.00868 0.01038 0.0
Tb3 Tb 1.00827 0.93593 0.01069 0.0
Tb4 Tb 1.00763 1.00825 0.93695 0.0
O5 O 0.97101 0.97191 0.04775 0.0
O6 O 0.97049 0.0457 0.97272 0.0
O7 O 0.97028 0.04645 0.04736 0.0
O8 O 0.04517 0.97236 0.04762 0.0
O9 O 0.04489 0.04596 0.9723 0.0
O10 O 0.04519 0.9715 0.97297 0.0
H11 H 0.95408 0.95437 0.06515 0.0
H12 H 0.95326 0.06304 0.95545 0.0
Tb13 Tb 1.00782 0.00973 0.08341 0.0
Tb14 Tb 1.0076 0.08188 0.00953 0.0
H15 H 0.95277 0.0636 0.06459 0.0
H16 H 0.06265 0.95531 0.06494 0.0
Tb17 Tb 0.08085 0.0093 0.00993 0.0
H18 H 0.06219 0.063 0.95473 0.0
H19 H 0.06228 0.95393 0.95577 0.0
O20 O 0.04507 0.04676 0.04718 0.0
H21 H 0.06224 0.06434 0.06426 0.0
O22 O 0.90035 0.95143 0.01096 0.0
O23 O 0.11545 0.06645 1.00886 0.0
O24 O 0.11604 0.95264 0.01132 0.0
O25 O 0.89976 0.06558 0.00997 0.0
O26 O 1.00789 0.90043 0.9541 0.0
O27 O 1.008 0.11756 0.06574 0.0
O28 O 1.00744 0.11625 0.95236 0.0
O29 O 0.00956 0.90173 0.06814 0.0
O30 O 0.95069 0.00943 0.90233 0.0
O31 O 0.06485 0.01022 0.11808 0.0
O32 O 0.95091 1.00703 0.11838 0.0
O33 O 0.06454 1.00741 0.90196 0.0
O34 O 0.95177 0.90073 0.01189 0.0
O35 O 0.06413 0.11716 1.00875 0.0
O36 O 0.95074 0.11666 0.00939 0.0
O37 O 0.06525 0.90127 0.01001 0.0
O38 O 0.8998 1.00836 0.0673 0.0
O39 O 0.11567 1.00775 0.95294 0.0
O40 O 0.11571 0.00976 0.06674 0.0
O41 O 0.89976 0.009 0.9536 0.0
O42 O 0.00876 0.95326 0.1188 0.0
O43 O 1.00792 0.0649 0.90161 0.0
O44 O 1.00623 0.951 0.90244 0.0
O45 O 1.00596 0.06726 0.11771 0.0
C46 C 0.91293 0.91271 0.0118 0.0
C47 C 0.10298 0.10521 1.00849 0.0
C48 C 0.1039 0.91383 0.01078 0.0
C49 C 0.91197 0.10442 0.00951 0.0
C50 C 1.0067 0.91231 0.91515 0.0
C51 C 1.00673 0.10587 0.10468 0.0
C52 C 1.00769 0.10377 0.91364 0.0
C53 C 0.00955 0.91441 0.10685 0.0
C54 C 0.91195 0.00978 0.91475 0.0
C55 C 0.1036 0.00991 0.10562 0.0
C56 C 0.91218 1.00685 0.10602 0.0
C57 C 0.10335 1.00705 0.91414 0.0
H58 H 0.95333 0.45312 0.45638 0.0
O59 O 0.97079 0.4708 0.47306 0.0
Tb60 Tb 0.93575 0.50817 0.51099 0.0
Tb61 Tb 0.00919 0.43564 0.50968 0.0
Tb62 Tb 1.007 0.50815 0.43618 0.0
O63 O 0.97284 0.47158 0.54764 0.0
O64 O 0.97034 0.54539 0.47259 0.0
O65 O 0.97211 0.54608 0.54708 0.0
O66 O 0.04711 0.472 0.54582 0.0
O67 O 0.04479 0.54593 0.4706 0.0
O68 O 0.04528 0.47147 0.47145 0.0
H69 H 0.95627 0.45421 0.56555 0.0
H70 H 0.95229 0.56216 0.45557 0.0
Tb71 Tb 0.01064 0.50944 0.5822 0.0
Tb72 Tb 1.00825 0.58192 0.50854 0.0
H73 H 0.95507 0.56326 0.56473 0.0
H74 H 0.06496 0.45505 0.56287 0.0
Tb75 Tb 0.08174 0.50923 0.50745 0.0
H76 H 0.06131 0.56294 0.45228 0.0
H77 H 0.06222 0.45399 0.45402 0.0
O78 O 0.04683 0.54685 0.54521 0.0
H79 H 0.06454 0.5646 0.56157 0.0
O80 O 0.90133 0.45115 0.51278 0.0
O81 O 0.11616 0.56636 0.50429 0.0
O82 O 0.1169 0.45242 0.5075 0.0
O83 O 0.9005 0.56487 0.51124 0.0
O84 O 1.00786 0.40041 0.45281 0.0
O85 O 0.00917 0.61728 0.56528 0.0
O86 O 1.00501 0.61615 0.45143 0.0
O87 O 0.0111 0.40129 0.56678 0.0
O88 O 0.94942 0.50687 0.40263 0.0
O89 O 0.06816 0.51074 0.61576 0.0
O90 O 0.95468 0.50891 0.61855 0.0
O91 O 0.06308 0.50769 0.39997 0.0
O92 O 0.95262 0.40038 0.51187 0.0
O93 O 0.06498 0.61728 0.50474 0.0
O94 O 0.95115 0.6163 0.50983 0.0
O95 O 0.06613 0.40108 0.50831 0.0
O96 O 0.90235 0.50742 0.56882 0.0
O97 O 0.11519 0.50749 0.44991 0.0
O98 O 0.11805 0.50981 0.56347 0.0
O99 O 0.8995 0.50685 0.45484 0.0
O100 O 0.01208 0.45268 0.61751 0.0
O101 O 1.00538 0.56465 0.40076 0.0
O102 O 1.00765 0.45142 0.40153 0.0
O103 O 0.01121 0.56648 0.61669 0.0
C104 C 0.91379 0.41243 0.51302 0.0
C105 C 0.10382 0.60515 0.50302 0.0
C106 C 0.10482 0.41354 0.50769 0.0
C107 C 0.91247 0.60377 0.51067 0.0
C108 C 1.00787 0.41273 0.41396 0.0
C109 C 0.01037 0.60519 0.60418 0.0
C110 C 1.00424 0.60348 0.41279 0.0
C111 C 0.01208 0.41378 0.60548 0.0
C112 C 0.9109 0.50638 0.41571 0.0
C113 C 0.1066 0.51055 0.60254 0.0
C114 C 0.91563 0.50771 0.60729 0.0
C115 C 0.10208 0.50691 0.41143 0.0
H116 H 0.45443 0.95283 0.45667 0.0
O117 O 0.47142 0.97064 0.47368 0.0
Tb118 Tb 0.43538 0.00955 0.50912 0.0
Tb119 Tb 0.5079 0.93588 0.51278 0.0
Tb120 Tb 0.50911 1.00621 0.43659 0.0
O121 O 0.47049 0.97348 0.54808 0.0
O122 O 0.47185 0.04498 0.47062 0.0
O123 O 0.47119 0.04797 0.5451 0.0
O124 O 0.54525 0.97271 0.54883 0.0
O125 O 0.54651 0.04452 0.47102 0.0
O126 O 0.54563 0.97001 0.47427 0.0
H127 H 0.45259 0.95708 0.56565 0.0
H128 H 0.4549 0.06163 0.45241 0.0
Tb129 Tb 0.50794 0.0118 0.58257 0.0
Tb130 Tb 0.50914 0.08188 0.50667 0.0
H131 H 0.45388 0.06611 0.56148 0.0
H132 H 0.56199 0.9559 0.56712 0.0
Tb133 Tb 0.58156 1.0083 0.51008 0.0
H134 H 0.56407 0.06101 0.45317 0.0
H135 H 0.56304 0.95196 0.45792 0.0
O136 O 0.54576 0.04727 0.54558 0.0
H137 H 0.56296 0.0651 0.56235 0.0
O138 O 0.4002 0.95273 0.51008 0.0
O139 O 0.61687 0.06491 0.50812 0.0
O140 O 0.6159 0.95126 0.51293 0.0
O141 O 0.40122 0.06681 0.50554 0.0
O142 O 0.50921 0.89882 0.4573 0.0
O143 O 0.50871 0.11904 0.56208 0.0
O144 O 0.50981 0.11459 0.44849 0.0
O145 O 0.50491 0.90334 0.57137 0.0
O146 O 0.45244 1.00485 0.40136 0.0
O147 O 0.56464 0.01268 0.61784 0.0
O148 O 0.451 0.01341 0.61717 0.0
O149 O 0.56606 1.00497 0.40192 0.0
O150 O 0.45096 0.90141 0.51195 0.0
O151 O 0.56619 0.11627 0.50618 0.0
O152 O 0.45282 0.11734 0.50458 0.0
O153 O 0.56452 0.90061 0.5149 0.0
O154 O 0.40006 0.01246 0.56601 0.0
O155 O 0.61686 1.00464 0.4533 0.0
O156 O 0.61599 0.01067 0.56706 0.0
O157 O 0.40104 1.00744 0.45206 0.0
O158 O 0.50649 0.95672 0.62 0.0
O159 O 0.5092 0.06173 0.39935 0.0
O160 O 0.50966 0.94792 0.40421 0.0
O161 O 0.50812 0.06995 0.6151 0.0
C162 C 0.41229 0.91384 0.51067 0.0
C163 C 0.60487 0.10378 0.50698 0.0
C164 C 0.60339 0.91259 0.51449 0.0
C165 C 0.41397 0.10545 0.50405 0.0
C166 C 0.50989 0.90962 0.41803 0.0
C167 C 0.50839 0.10826 0.60135 0.0
C168 C 0.5095 0.10097 0.41014 0.0
C169 C 0.50472 0.91748 0.60959 0.0
C170 C 0.41357 1.00562 0.41337 0.0
C171 C 0.60351 0.01224 0.60577 0.0
C172 C 0.41227 0.01352 0.60487 0.0
C173 C 0.6047 1.00399 0.41445 0.0
H174 H 0.4541 0.45803 0.95158 0.0
O175 O 0.4712 0.47465 0.96966 0.0
Tb176 Tb 0.43483 0.51094 1.00748 0.0
Tb177 Tb 0.50747 0.43715 1.00627 0.0
Tb178 Tb 0.50956 0.51278 0.93575 0.0
O179 O 0.4698 0.47202 0.04404 0.0
O180 O 0.47184 0.54895 0.9723 0.0
O181 O 0.4701 0.54644 0.04704 0.0
O182 O 0.54423 0.47132 0.04541 0.0
O183 O 0.54621 0.54863 0.97358 0.0
O184 O 0.54583 0.47386 0.97085 0.0
H185 H 0.45217 0.45424 0.0605 0.0
H186 H 0.45491 0.56686 0.95531 0.0
Tb187 Tb 0.50667 0.50748 0.08193 0.0
Tb188 Tb 0.5084 0.58309 0.01172 0.0
H189 H 0.45277 0.56335 0.06469 0.0
H190 H 0.56103 0.45332 0.06245 0.0
Tb191 Tb 0.58098 0.50963 0.0101 0.0
H192 H 0.56382 0.56655 0.95723 0.0
H193 H 0.56337 0.45704 0.95333 0.0
O194 O 0.54477 0.54564 0.04812 0.0
H195 H 0.56192 0.56202 0.06634 0.0
O196 O 0.39957 0.45429 1.0054 0.0
O197 O 0.61607 0.56614 0.01368 0.0
O198 O 0.61543 0.45259 1.00919 0.0
O199 O 0.40048 0.56842 1.00756 0.0
O200 O 0.50823 0.40432 0.94819 0.0
O201 O 0.50851 0.61586 0.06988 0.0
O202 O 0.50813 0.62011 0.95635 0.0
O203 O 0.50615 0.40013 0.06188 0.0
O204 O 0.45358 0.51371 0.89966 0.0
O205 O 0.56295 0.50557 0.1178 0.0
O206 O 0.44924 0.50646 0.11569 0.0
O207 O 0.56714 0.51334 0.90193 0.0
O208 O 0.45022 0.40283 1.00444 0.0
O209 O 0.56537 0.61754 0.01374 0.0
O210 O 0.45209 0.61871 0.01266 0.0
O211 O 0.56419 0.40183 1.00658 0.0
O212 O 0.39904 0.50933 0.06387 0.0
O213 O 0.61716 0.5121 0.95396 0.0
O214 O 0.61482 0.50721 0.06755 0.0
O215 O 0.40128 0.51336 0.94965 0.0
O216 O 0.50585 0.44932 0.11472 0.0
O217 O 0.51029 0.57124 0.90309 0.0
O218 O 0.5095 0.4571 0.89884 0.0
O219 O 0.50742 0.56294 0.11905 0.0
C220 C 0.41151 0.41538 1.00454 0.0
C221 C 0.604 0.60496 0.01477 0.0
C222 C 0.60303 0.41386 1.00803 0.0
C223 C 0.41328 0.60699 0.01005 0.0
C224 C 0.50887 0.41788 0.90978 0.0
C225 C 0.5084 0.60218 0.10825 0.0
C226 C 0.50896 0.60943 0.91713 0.0
C227 C 0.50577 0.41097 0.10112 0.0
C228 C 0.41457 0.51397 0.91112 0.0
C229 C 0.60195 0.50579 0.10617 0.0
C230 C 0.41069 0.50738 0.10284 0.0
C231 C 0.60566 0.51316 0.91493 0.0
H232 H 0.96701 0.10651 0.17763 0.0
H233 H 0.9652 0.16168 0.22765 0.0
H234 H 0.04377 0.23336 0.15133 0.0
H235 H 0.04477 0.17892 0.10088 0.0
H236 H 0.06958 0.23048 0.23054 0.0
H237 H 0.95174 0.25473 0.15594 0.0
H238 H 0.88493 0.24888 0.12359 0.0
H239 H 0.8282 0.24041 0.2405 0.0
H240 H 0.89481 0.24342 0.27368 0.0
H241 H 0.03931 0.41931 0.33774 0.0
H242 H 0.03992 0.3678 0.28428 0.0
H243 H 0.97827 0.28426 0.36389 0.0
H244 H 0.97819 0.3354 0.41794 0.0
H245 H 0.94449 0.29729 0.28036 0.0
H246 H 0.07031 0.2676 0.35148 0.0
H247 H 0.13725 0.28646 0.37881 0.0
H248 H 0.17712 0.32047 0.25946 0.0
H249 H 0.11016 0.30254 0.23155 0.0
C250 C 0.98386 0.13406 0.17161 0.0
C251 C 1.00609 0.13846 0.13545 0.0
C252 C 0.98257 0.16563 0.20001 0.0
C253 C 1.00415 0.20171 0.19307 0.0
C254 C 0.02675 0.20587 0.15719 0.0
C255 C 0.02726 0.17478 0.12841 0.0
C256 C 1.00468 0.23442 0.224 0.0
C257 C 0.04213 0.24517 0.24118 0.0
C258 C 0.96885 0.25396 0.23762 0.0
C259 C 0.92882 0.24839 0.21745 0.0
C260 C 0.92532 0.25021 0.17488 0.0
C261 C 0.88732 0.24755 0.15633 0.0
C262 C 0.85236 0.24406 0.17997 0.0
C263 C 0.85532 0.24294 0.22219 0.0
C264 C 0.89327 0.24476 0.24088 0.0
C265 C 0.0259 0.38995 0.3439 0.0
C266 C 0.00865 0.38134 0.38201 0.0
C267 C 0.02645 0.36057 0.3134 0.0
C268 C 0.00927 0.32232 0.32029 0.0
C269 C 0.99177 0.31366 0.35815 0.0
C270 C 0.99189 0.34279 0.38897 0.0
C271 C 0.00875 0.29158 0.28762 0.0
C272 C 0.9715 0.28177 0.26985 0.0
C273 C 0.04466 0.27368 0.27268 0.0
C274 C 0.08506 0.28407 0.28948 0.0
C275 C 0.09321 0.27945 0.33112 0.0
C276 C 0.13119 0.28991 0.34671 0.0
C277 C 0.16139 0.30471 0.3209 0.0
C278 C 0.15369 0.30903 0.27943 0.0
C279 C 0.11574 0.29869 0.26371 0.0
H280 H 0.19079 0.3127 0.33299 0.0
H281 H 0.82293 0.24254 0.16563 0.0
H282 H 0.83721 0.04161 0.10659 0.0
H283 H 0.78517 0.03609 0.15954 0.0
H284 H 0.86281 0.95653 0.22833 0.0
H285 H 0.91558 0.96302 0.1761 0.0
H286 H 0.77287 0.93334 0.22043 0.0
H287 H 0.86462 0.03599 0.26361 0.0
H288 H 0.90783 0.09566 0.25128 0.0
H289 H 0.80245 0.1673 0.22482 0.0
H290 H 0.75867 0.10765 0.23583 0.0
H291 H 0.67811 0.96583 0.41844 0.0
H292 H 0.72991 0.96157 0.36499 0.0
H293 H 0.65493 0.03383 0.28601 0.0
H294 H 0.6025 0.03714 0.33871 0.0
H295 H 0.74563 0.05764 0.30092 0.0
H296 H 0.65395 0.95115 0.25792 0.0
H297 H 0.61385 0.88864 0.26671 0.0
H298 H 0.72202 0.82237 0.29558 0.0
H299 H 0.76272 0.88468 0.28756 0.0
C300 C 0.8431 0.02286 0.13295 0.0
C301 C 0.88052 1.0031 0.13753 0.0
C302 C 0.81334 0.01959 0.16302 0.0
C303 C 0.82015 0.99573 0.19767 0.0
C304 C 0.85696 0.97487 0.20168 0.0
C305 C 0.88716 0.97898 0.17211 0.0
C306 C 0.79 0.9954 0.23103 0.0
C307 C 0.76707 0.96032 0.2383 0.0
C308 C 0.78267 0.03062 0.25432 0.0
C309 C 0.80844 0.06719 0.24982 0.0
C310 C 0.85068 0.06438 0.25479 0.0
C311 C 0.87529 0.09817 0.24806 0.0
C312 C 0.85794 0.13513 0.23698 0.0
C313 C 0.81589 0.13858 0.23322 0.0
C314 C 0.79114 0.10475 0.23963 0.0
C315 C 0.67271 0.98079 0.38967 0.0
C316 C 0.63633 1.00185 0.3827 0.0
C317 C 0.70218 0.97816 0.35917 0.0
C318 C 0.69606 0.99726 0.32162 0.0
C319 C 0.66004 0.01876 0.31478 0.0
C320 C 0.63016 0.02056 0.34485 0.0
C321 C 0.72775 0.99581 0.28981 0.0
C322 C 0.75124 0.03063 0.28301 0.0
C323 C 0.7358 0.96013 0.26735 0.0
C324 C 0.71132 0.92275 0.27275 0.0
C325 C 0.66914 0.92339 0.2667 0.0
C326 C 0.64631 0.88795 0.27136 0.0
C327 C 0.66536 0.85158 0.28177 0.0
C328 C 0.7073 0.85057 0.28752 0.0
C329 C 0.73026 0.88594 0.28293 0.0
H330 H 0.64765 0.82417 0.28532 0.0
H331 H 0.87723 0.16097 0.23133 0.0
H332 H 0.03036 0.83442 0.09932 0.0
H333 H 0.03003 0.78243 0.15212 0.0
H334 H 0.99037 0.87105 0.23981 0.0
H335 H 0.99146 0.92347 0.18741 0.0
H336 H 0.04463 0.82201 0.27316 0.0
H337 H 0.92343 0.8063 0.19649 0.0
H338 H 0.88178 0.79837 0.13495 0.0
H339 H 0.94062 0.68521 0.1089 0.0
H340 H 0.98322 0.69283 0.16991 0.0
H341 H 0.97642 0.68108 0.42056 0.0
H342 H 0.97419 0.73375 0.36839 0.0
H343 H 0.02394 0.64995 0.2811 0.0
H344 H 0.02528 0.59674 0.33283 0.0
H345 H 0.96375 0.69752 0.24869 0.0
H346 H 0.08016 0.71472 0.3362 0.0
H347 H 0.10887 0.72333 0.40457 0.0
H348 H 0.05118 0.83949 0.41498 0.0
H349 H 0.01964 0.83036 0.34787 0.0
C350 C 0.02157 0.84291 0.12983 0.0
C351 C 0.01049 0.88304 0.13902 0.0
C352 C 0.02142 0.81314 0.16 0.0
C353 C 0.00954 0.82271 0.1998 0.0
C354 C 0.9996 0.86296 0.20932 0.0
C355 C 1.0001 0.89286 0.17925 0.0
C356 C 1.00598 0.79044 0.23104 0.0
C357 C 0.02668 0.79494 0.26799 0.0
C358 C 0.98249 0.75515 0.22427 0.0
C359 C 0.95682 0.75034 0.18759 0.0
C360 C 0.92774 0.77988 0.17747 0.0
C361 C 0.90392 0.77542 0.1427 0.0
C362 C 0.90859 0.74133 0.11801 0.0
C363 C 0.93708 0.71162 0.12804 0.0
C364 C 0.96107 0.71599 0.16272 0.0
C365 C 0.9868 0.6738 0.39023 0.0
C366 C 1.00155 0.6349 0.38092 0.0
C367 C 0.98535 0.7039 0.36044 0.0
C368 C 0.99954 0.69592 0.32107 0.0
C369 C 0.01295 0.65674 0.31133 0.0
C370 C 0.01386 0.62644 0.34097 0.0
C371 C 1.00261 0.7289 0.29063 0.0
C372 C 0.98185 0.7245 0.25379 0.0
C373 C 0.02524 0.7647 0.29803 0.0
C374 C 0.04691 0.77152 0.33706 0.0
C375 C 0.07309 0.7419 0.3532 0.0
C376 C 0.08958 0.74669 0.39196 0.0
C377 C 0.08172 0.78185 0.41418 0.0
C378 C 0.05715 0.8122 0.39778 0.0
C379 C 0.03964 0.80705 0.3595 0.0
H380 H 0.09491 0.7857 0.44398 0.0
H381 H 0.89004 0.73785 0.09118 0.0
H382 H 0.42401 1.00001 0.33091 0.0
H383 H 0.37168 0.99895 0.27864 0.0
H384 H 0.27915 1.00771 0.3707 0.0
H385 H 0.33109 1.00827 0.42331 0.0
H386 H 0.25965 0.95206 0.31298 0.0
H387 H 0.30811 0.0903 0.31627 0.0
H388 H 0.36094 0.14309 0.31346 0.0
H389 H 0.39283 0.10598 0.19275 0.0
H390 H 0.34064 0.05246 0.19509 0.0
H391 H 0.09414 0.01048 0.18843 0.0
H392 H 0.14707 1.00812 0.24006 0.0
H393 H 0.23845 1.00444 0.14648 0.0
H394 H 0.18592 1.00731 0.0946 0.0
H395 H 0.25933 0.05639 0.2044 0.0
H396 H 0.21122 0.9203 0.19858 0.0
H397 H 0.16113 0.865 0.20017 0.0
H398 H 0.13143 0.89411 0.3236 0.0
H399 H 0.18055 0.95051 0.3224 0.0
C400 C 0.39257 1.00168 0.34018 0.0
C401 C 0.3819 1.00445 0.38145 0.0
C402 C 0.36267 1.00115 0.31017 0.0
C403 C 0.32152 1.0037 0.32074 0.0
C404 C 0.31072 1.00574 0.36186 0.0
C405 C 0.34056 1.00621 0.39191 0.0
C406 C 0.28971 1.00483 0.28895 0.0
C407 C 0.25919 0.97517 0.28953 0.0
C408 C 0.28988 0.03434 0.25772 0.0
C409 C 0.3207 0.06711 0.25601 0.0
C410 C 0.32655 0.09323 0.28922 0.0
C411 C 0.35638 0.12331 0.2877 0.0
C412 C 0.3803 0.12783 0.25298 0.0
C413 C 0.37432 0.1024 0.21964 0.0
C414 C 0.3446 0.0722 0.22104 0.0
C415 C 0.12546 0.0092 0.1787 0.0
C416 C 0.13563 0.00905 0.13721 0.0
C417 C 0.15572 1.00766 0.20834 0.0
C418 C 0.19673 1.00565 0.19715 0.0
C419 C 0.20701 1.00594 0.15583 0.0
C420 C 0.17683 1.00752 0.12617 0.0
C421 C 0.229 1.00372 0.22848 0.0
C422 C 0.25965 0.03326 0.22784 0.0
C423 C 0.22909 0.97386 0.25944 0.0
C424 C 0.19929 0.94004 0.26022 0.0
C425 C 0.19371 0.91527 0.22594 0.0
C426 C 0.16552 0.88363 0.22679 0.0
C427 C 0.1431 0.87601 0.26196 0.0
C428 C 0.14878 0.90009 0.29635 0.0
C429 C 0.17675 0.93195 0.29557 0.0
H430 H 0.12138 0.85141 0.26259 0.0
H431 H 0.40344 0.15105 0.25182 0.0
H432 H 0.97767 0.91764 0.83743 0.0
H433 H 0.97618 0.86427 0.78578 0.0
H434 H 0.03147 0.78091 0.87003 0.0
H435 H 0.03281 0.83391 0.9219 0.0
H436 H 0.06894 0.7799 0.79633 0.0
H437 H 0.93583 0.77232 0.84853 0.0
H438 H 0.86626 0.79056 0.86842 0.0
H439 H 0.83766 0.81887 0.74454 0.0
H440 H 0.90757 0.80247 0.72409 0.0
H441 H 0.03576 0.59823 0.68285 0.0
H442 H 0.03512 0.65036 0.73556 0.0
H443 H 0.98442 0.73599 0.65065 0.0
H444 H 0.98507 0.68404 0.5976 0.0
H445 H 0.94458 0.73456 0.72533 0.0
H446 H 0.08179 0.74241 0.67545 0.0
H447 H 0.14896 0.71483 0.65775 0.0
H448 H 0.16693 0.6777 0.78134 0.0
H449 H 0.09954 0.7045 0.79967 0.0
C450 C 0.98952 0.88794 0.84498 0.0
C451 C 1.00547 0.88007 0.88378 0.0
C452 C 0.98835 0.85739 0.81551 0.0
C453 C 1.00349 0.81852 0.82409 0.0
C454 C 0.01954 0.81064 0.86275 0.0
C455 C 0.02018 0.84096 0.89241 0.0
C456 C 1.00411 0.78653 0.7923 0.0
C457 C 0.04164 0.76974 0.78112 0.0
C458 C 0.96852 0.77355 0.77207 0.0
C459 C 0.92732 0.78666 0.78483 0.0
C460 C 0.91508 0.78334 0.82562 0.0
C461 C 0.87546 0.79319 0.83699 0.0
C462 C 0.84754 0.80583 0.80777 0.0
C463 C 0.85927 0.80896 0.76715 0.0
C464 C 0.89899 0.79965 0.7557 0.0
C465 C 0.0245 0.62815 0.67532 0.0
C466 C 0.01057 0.63699 0.63595 0.0
C467 C 0.02436 0.65797 0.70545 0.0
C468 C 0.01009 0.69716 0.69693 0.0
C469 C 0.99578 0.706 0.6578 0.0
C470 C 0.99634 0.67632 0.62748 0.0
C471 C 0.00929 0.72869 0.72907 0.0
C472 C 0.97179 0.74521 0.74037 0.0
C473 C 0.04473 0.74102 0.74979 0.0
C474 C 0.08539 0.72512 0.73884 0.0
C475 C 0.09989 0.72806 0.69879 0.0
C476 C 0.13804 0.71261 0.68866 0.0
C477 C 0.16214 0.69441 0.71838 0.0
C478 C 0.14819 0.69174 0.75833 0.0
C479 C 0.11003 0.70708 0.76861 0.0
H480 H 0.19166 0.68246 0.71048 0.0
H481 H 0.81683 0.81326 0.81661 0.0
H482 H 0.09438 0.01937 0.83244 0.0
H483 H 0.1468 0.01741 0.78013 0.0
H484 H 0.23656 0.98879 0.8707 0.0
H485 H 0.18434 0.99058 0.92339 0.0
H486 H 0.21439 0.06653 0.77662 0.0
H487 H 0.31225 0.92766 0.81985 0.0
H488 H 0.30565 0.8614 0.854 0.0
H489 H 0.17914 0.85784 0.82411 0.0
H490 H 0.18511 0.92358 0.78894 0.0
H491 H 0.42108 0.994 0.68495 0.0
H492 H 0.36925 0.9935 0.73779 0.0
H493 H 0.28013 0.03364 0.65099 0.0
H494 H 0.33196 0.03434 0.59771 0.0
H495 H 0.30254 0.94922 0.74411 0.0
H496 H 0.21002 0.09594 0.70318 0.0
H497 H 0.22149 0.16662 0.68147 0.0
H498 H 0.3457 0.1586 0.71931 0.0
H499 H 0.33487 0.08826 0.74166 0.0
C500 C 0.12518 0.01238 0.84133 0.0
C501 C 0.13508 1.00527 0.88224 0.0
C502 C 0.15513 0.0113 0.81133 0.0
C503 C 0.1955 1.00259 0.82145 0.0
C504 C 0.2055 0.99504 0.86214 0.0
C505 C 0.1756 0.99642 0.89226 0.0
C506 C 0.22739 1.00398 0.78969 0.0
C507 C 0.23317 0.04065 0.76886 0.0
C508 C 0.2532 0.97071 0.78123 0.0
C509 C 0.24902 0.931 0.80227 0.0
C510 C 0.283 0.91274 0.82048 0.0
C511 C 0.2794 0.87522 0.83998 0.0
C512 C 0.24195 0.85555 0.84144 0.0
C513 C 0.20809 0.87324 0.82317 0.0
C514 C 0.21156 0.91069 0.80348 0.0
C515 C 0.39054 1.00303 0.67703 0.0
C516 C 0.38071 0.01417 0.637 0.0
C517 C 0.36089 1.00256 0.70732 0.0
C518 C 0.32083 0.01373 0.69846 0.0
C519 C 0.31093 0.02531 0.65864 0.0
C520 C 0.34055 0.02541 0.62815 0.0
C521 C 0.2892 0.01176 0.73058 0.0
C522 C 0.28354 0.97503 0.75153 0.0
C523 C 0.26419 0.04531 0.74007 0.0
C524 C 0.27176 0.0865 0.72348 0.0
C525 C 0.23985 0.10919 0.70662 0.0
C526 C 0.24617 0.14933 0.69443 0.0
C527 C 0.28434 0.16711 0.69885 0.0
C528 C 0.31625 0.14475 0.71544 0.0
C529 C 0.31006 0.10467 0.72778 0.0
H530 H 0.28918 0.19816 0.68936 0.0
H531 H 0.23921 0.82655 0.85661 0.0
H532 H 0.01739 0.33149 0.59521 0.0
H533 H 0.0176 0.27918 0.6475 0.0
H534 H 0.00888 0.371 0.74019 0.0
H535 H 0.00921 0.42379 0.68813 0.0
H536 H 0.06341 0.31302 0.76026 0.0
H537 H 0.9273 0.31754 0.70866 0.0
H538 H 0.87462 0.31486 0.65574 0.0
H539 H 0.90788 0.19225 0.6277 0.0
H540 H 0.96187 0.19461 0.67932 0.0
H541 H 1.00493 0.18624 0.92362 0.0
H542 H 1.00633 0.23832 0.8711 0.0
H543 H 0.01313 0.14589 0.77885 0.0
H544 H 0.01116 0.09338 0.83109 0.0
H545 H 0.95987 0.20394 0.75844 0.0
H546 H 0.09672 0.19904 0.80625 0.0
H547 H 0.15061 0.19991 0.85799 0.0
H548 H 0.11647 0.32071 0.89245 0.0
H549 H 0.06191 0.32033 0.84132 0.0
C550 C 0.01553 0.34074 0.62668 0.0
C551 C 0.01302 0.38199 0.63735 0.0
C552 C 0.01557 0.31068 0.65655 0.0
C553 C 0.0127 0.32115 0.69771 0.0
C554 C 0.01102 0.36225 0.70858 0.0
C555 C 0.01109 0.3924 0.67872 0.0
C556 C 0.01107 0.2892 0.7294 0.0
C557 C 0.04045 0.28947 0.76018 0.0
C558 C 0.9817 0.25786 0.72862 0.0
C559 C 0.94901 0.25642 0.69765 0.0
C560 C 0.92372 0.29014 0.69095 0.0
C561 C 0.89359 0.28867 0.6612 0.0
C562 C 0.88789 0.25341 0.63847 0.0
C563 C 0.91239 0.21956 0.64532 0.0
C564 C 0.94285 0.22099 0.67473 0.0
C565 C 1.00673 0.17682 0.8922 0.0
C566 C 1.00811 0.13548 0.8817 0.0
C567 C 1.00768 0.20673 0.86219 0.0
C568 C 0.01036 0.19601 0.82109 0.0
C569 C 0.01115 0.15484 0.81041 0.0
C570 C 0.01011 0.12485 0.84039 0.0
C571 C 0.01218 0.22777 0.78923 0.0
C572 C 0.98283 0.22749 0.75847 0.0
C573 C 0.04171 0.25891 0.78984 0.0
C574 C 0.07493 0.2595 0.8202 0.0
C575 C 0.1005 0.22569 0.82504 0.0
C576 C 0.1312 0.22611 0.85425 0.0
C577 C 0.13689 0.26029 0.87859 0.0
C578 C 0.11199 0.29422 0.87363 0.0
C579 C 0.08119 0.29393 0.84451 0.0
H580 H 0.16063 0.26053 0.90123 0.0
H581 H 0.86448 0.25229 0.61561 0.0
H582 H 0.59398 1.00465 0.68816 0.0
H583 H 0.64654 1.00686 0.7402 0.0
H584 H 0.73734 0.02625 0.64797 0.0
H585 H 0.68519 0.02347 0.59563 0.0
H586 H 0.76241 0.97101 0.70109 0.0
H587 H 0.70459 0.10291 0.70748 0.0
H588 H 0.65039 0.15407 0.71311 0.0
H589 H 0.62073 0.11041 0.83224 0.0
H590 H 0.67432 0.05846 0.82701 0.0
H591 H 0.92178 0.02617 0.83382 0.0
H592 H 0.86942 0.0305 0.78177 0.0
H593 H 0.77783 1.00396 0.87138 0.0
H594 H 0.82989 1.00027 0.92392 0.0
H595 H 0.75391 0.06405 0.81902 0.0
H596 H 0.81788 0.93294 0.81085 0.0
H597 H 0.87813 0.8894 0.80426 0.0
H598 H 0.89913 0.93521 0.68412 0.0
H599 H 0.8406 0.98117 0.69098 0.0
C600 C 0.62509 0.00948 0.67885 0.0
C601 C 0.63525 0.01385 0.6376 0.0
C602 C 0.65512 0.01085 0.70872 0.0
C603 C 0.69587 0.01703 0.69804 0.0
C604 C 0.70613 0.02131 0.65693 0.0
C605 C 0.67618 0.01977 0.62702 0.0
C606 C 0.72788 0.01852 0.72968 0.0
C607 C 0.7608 0.99169 0.72662 0.0
C608 C 0.72551 0.04521 0.76326 0.0
C609 C 0.69324 0.07646 0.76663 0.0
C610 C 0.6863 0.10398 0.73473 0.0
C611 C 0.65571 0.13315 0.73787 0.0
C612 C 0.63205 0.13538 0.77295 0.0
C613 C 0.63903 0.10855 0.80504 0.0
C614 C 0.66952 0.07924 0.802 0.0
C615 C 0.89054 0.02119 0.84258 0.0
C616 C 0.88016 0.0124 0.88308 0.0
C617 C 0.86061 0.02381 0.81274 0.0
C618 C 0.81977 0.01708 0.8226 0.0
C619 C 0.80917 0.00925 0.8631 0.0
C620 C 0.83905 1.00691 0.89306 0.0
C621 C 0.78828 0.01647 0.79046 0.0
C622 C 0.75543 0.04336 0.79349 0.0
C623 C 0.79103 0.99022 0.75654 0.0
C624 C 0.82501 0.96096 0.75165 0.0
C625 C 0.83551 0.93408 0.78314 0.0
C626 C 0.86948 0.90904 0.77941 0.0
C627 C 0.89233 0.90939 0.74372 0.0
C628 C 0.88141 0.93499 0.71177 0.0
C629 C 0.84801 0.96079 0.71569 0.0
H630 H 0.91848 0.88982 0.7408 0.0
H631 H 0.60834 0.15792 0.77529 0.0
H632 H 0.42088 0.3329 0.99835 0.0
H633 H 0.36813 0.28108 0.99859 0.0
H634 H 0.27666 0.37375 0.01031 0.0
H635 H 0.32919 0.42588 0.01065 0.0
H636 H 0.26149 0.31173 0.06044 0.0
H637 H 0.29401 0.32657 0.91944 0.0
H638 H 0.33925 0.32923 0.85989 0.0
H639 H 0.37614 0.20628 0.88175 0.0
H640 H 0.33154 0.20307 0.94181 0.0
H641 H 0.09207 0.18773 0.01049 0.0
H642 H 0.14395 0.24044 1.00912 0.0
H643 H 0.23715 0.149 1.00312 0.0
H644 H 0.18554 0.09592 1.00405 0.0
H645 H 0.25095 0.21071 0.9496 0.0
H646 H 0.21614 0.19694 0.09089 0.0
H647 H 0.17015 0.19569 0.14989 0.0
H648 H 0.13594 0.31914 0.12658 0.0
H649 H 0.18099 0.32084 0.06682 0.0
C650 C 0.38958 0.34242 1.00091 0.0
C651 C 0.37942 0.38375 1.00422 0.0
C652 C 0.35939 0.31266 1.00087 0.0
C653 C 0.31835 0.32351 1.00391 0.0
C654 C 0.3081 0.36464 1.00776 0.0
C655 C 0.33826 0.39445 1.00777 0.0
C656 C 0.28614 0.29195 1.00335 0.0
C657 C 0.2587 0.29011 0.03588 0.0
C658 C 0.28318 0.26304 0.97174 0.0
C659 C 0.30971 0.26472 0.93537 0.0
C660 C 0.31198 0.30019 0.91172 0.0
C661 C 0.33748 0.30179 0.87785 0.0
C662 C 0.36065 0.26798 0.86711 0.0
C663 C 0.35823 0.23246 0.89014 0.0
C664 C 0.33281 0.23072 0.92408 0.0
C665 C 0.12356 0.17866 1.00887 0.0
C666 C 0.1345 0.13739 1.00757 0.0
C667 C 0.15322 0.20894 1.00822 0.0
C668 C 0.19445 0.19867 1.00646 0.0
C669 C 0.2055 0.15762 1.00456 0.0
C670 C 0.17588 0.12728 1.00526 0.0
C671 C 0.22612 0.2307 1.00664 0.0
C672 C 0.25352 0.23255 0.97406 0.0
C673 C 0.22879 0.25987 0.03806 0.0
C674 C 0.20166 0.25886 0.07406 0.0
C675 C 0.19851 0.2237 0.09807 0.0
C676 C 0.17261 0.22291 0.13168 0.0
C677 C 0.15001 0.25725 0.14189 0.0
C678 C 0.15335 0.2925 0.11856 0.0
C679 C 0.17905 0.29338 0.0848 0.0
H680 H 0.12998 0.25657 0.16791 0.0
H681 H 0.3804 0.26929 0.8409 0.0
H682 H 0.34186 0.60824 0.96822 0.0
H683 H 0.29133 0.66294 0.96642 0.0
H684 H 0.36383 0.73297 0.0495 0.0
H685 H 0.41509 0.67909 0.05031 0.0
H686 H 0.27817 0.72324 0.07092 0.0
H687 H 0.36522 0.76452 0.96534 0.0
H688 H 0.40491 0.76677 0.90224 0.0
H689 H 0.29624 0.75283 0.83229 0.0
H690 H 0.25591 0.74856 0.89508 0.0
H691 H 0.17833 0.91754 0.04648 0.0
H692 H 0.23109 0.86508 0.04672 0.0
H693 H 0.15466 0.78739 0.97473 0.0
H694 H 0.10127 0.83919 0.97532 0.0
H695 H 0.24344 0.80316 0.94815 0.0
H696 H 0.15789 0.75821 0.05916 0.0
H697 H 0.12072 0.76814 0.12334 0.0
H698 H 0.23154 0.80031 0.18334 0.0
H699 H 0.26931 0.79114 0.11928 0.0
C700 C 0.34698 0.63533 0.98605 0.0
C701 C 0.38231 0.63942 0.00949 0.0
C702 C 0.31828 0.66661 0.98479 0.0
C703 C 0.32399 0.70203 1.00767 0.0
C704 C 0.35898 0.70593 0.0315 0.0
C705 C 0.3882 0.67518 0.03191 0.0
C706 C 0.29261 0.73426 1.00805 0.0
C707 C 0.27083 0.74088 0.04411 0.0
C708 C 0.28294 0.75719 0.97298 0.0
C709 C 0.30754 0.75526 0.9352 0.0
C710 C 0.34983 0.76051 0.93664 0.0
C711 C 0.37249 0.76229 0.90082 0.0
C712 C 0.35322 0.7594 0.86324 0.0
C713 C 0.31123 0.75445 0.86142 0.0
C714 C 0.28847 0.75215 0.89715 0.0
C715 C 0.17279 0.88925 0.03073 0.0
C716 C 0.13573 0.88235 0.01092 0.0
C717 C 0.20284 0.85936 0.03101 0.0
C718 C 0.19661 0.82248 0.0108 0.0
C719 C 0.15989 0.81569 0.99054 0.0
C720 C 0.12944 0.84519 0.99105 0.0
C721 C 0.22868 0.79114 0.01048 0.0
C722 C 0.25065 0.78496 0.97463 0.0
C723 C 0.23894 0.76904 0.04574 0.0
C724 C 0.21636 0.77437 0.08433 0.0
C725 C 0.17428 0.76778 0.08593 0.0
C726 C 0.15312 0.77316 0.12231 0.0
C727 C 0.17376 0.78482 0.15739 0.0
C728 C 0.21561 0.79121 0.15614 0.0
C729 C 0.23691 0.7859 0.11982 0.0
H730 H 0.15734 0.78882 0.18555 0.0
H731 H 0.37076 0.76141 0.83554 0.0
H732 H 0.68522 0.42405 0.01458 0.0
H733 H 0.73744 0.37179 0.01593 0.0
H734 H 0.64585 0.27919 1.00509 0.0
H735 H 0.59314 0.33122 1.00424 0.0
H736 H 0.70278 0.25899 0.06087 0.0
H737 H 0.70081 0.31203 0.92525 0.0
H738 H 0.70476 0.3654 0.87298 0.0
H739 H 0.82692 0.39216 0.9084 0.0
H740 H 0.82343 0.33963 0.96161 0.0
H741 H 0.82951 0.09463 1.00445 0.0
H742 H 0.77759 0.14738 1.00408 0.0
H743 H 0.87009 0.23924 0.0135 0.0
H744 H 0.92232 0.18687 0.01332 0.0
H745 H 0.81339 0.26053 0.95887 0.0
H746 H 0.81651 0.2086 0.09367 0.0
H747 H 0.8143 0.15546 0.14605 0.0
H748 H 0.69102 0.1284 0.11453 0.0
H749 H 0.69301 0.18038 0.06072 0.0
C750 C 0.67599 0.39262 0.01243 0.0
C751 C 0.63482 0.38199 1.00894 0.0
C752 C 0.70601 0.36274 0.01317 0.0
C753 C 0.69562 0.3216 0.01007 0.0
C754 C 0.65457 0.31077 1.0074 0.0
C755 C 0.62447 0.34063 1.00674 0.0
C756 C 0.72758 0.28988 1.00896 0.0
C757 C 0.7266 0.25892 0.03821 0.0
C758 C 0.75943 0.29066 0.98009 0.0
C759 C 0.76172 0.32199 0.94768 0.0
C760 C 0.72845 0.32941 0.92207 0.0
C761 C 0.7306 0.35952 0.89225 0.0
C762 C 0.76606 0.38212 0.88732 0.0
C763 C 0.79946 0.37464 0.91224 0.0
C764 C 0.79739 0.34471 0.94227 0.0
C765 C 0.83894 0.12602 1.00643 0.0
C766 C 0.88023 0.13636 1.00909 0.0
C767 C 0.80914 0.15617 1.00626 0.0
C768 C 0.81992 0.19726 1.00912 0.0
C769 C 0.86107 0.20774 0.0112 0.0
C770 C 0.8909 0.17765 0.01126 0.0
C771 C 0.7883 0.22934 0.01054 0.0
C772 C 0.78944 0.26046 0.98145 0.0
C773 C 0.75672 0.22885 0.0397 0.0
C774 C 0.75511 0.19812 0.07271 0.0
C775 C 0.78903 0.19108 0.09758 0.0
C776 C 0.78782 0.16113 0.12757 0.0
C777 C 0.75255 0.1385 0.13363 0.0
C778 C 0.71838 0.14587 0.10973 0.0
C779 C 0.71958 0.17551 0.07938 0.0
H780 H 0.75167 0.11525 0.1568 0.0
H781 H 0.76765 0.40542 0.8642 0.0
H782 H 0.8308 0.9211 1.0024 0.0
H783 H 0.77933 0.86807 1.00537 0.0
H784 H 0.872 0.77861 0.02788 0.0
H785 H 0.92379 0.83125 0.02447 0.0
H786 H 0.8202 0.75016 0.97509 0.0
H787 H 0.81093 0.81451 0.10339 0.0
H788 H 0.80331 0.86951 0.15345 0.0
H789 H 0.68427 0.89546 0.1079 0.0
H790 H 0.69151 0.84128 0.05692 0.0
H791 H 0.68358 0.59479 0.03565 0.0
H792 H 0.73638 0.64657 0.03878 0.0
H793 H 0.6497 0.73782 1.00328 0.0
H794 H 0.59646 0.68645 1.00082 0.0
H795 H 0.69974 0.76359 0.06404 0.0
H796 H 0.71214 0.69121 0.93739 0.0
H797 H 0.71974 0.62701 0.90002 0.0
H798 H 0.83805 0.61019 0.95123 0.0
H799 H 0.82999 0.67268 0.99141 0.0
C800 C 0.84033 0.89019 1.00807 0.0
C801 C 0.88153 0.88057 0.01327 0.0
C802 C 0.81079 0.85988 0.0099 0.0
C803 C 0.82173 0.8194 0.01739 0.0
C804 C 0.86282 0.80963 0.02216 0.0
C805 C 0.89242 0.83986 0.02019 0.0
C806 C 0.79032 0.78724 0.01992 0.0
C807 C 0.79413 0.75289 0.99497 0.0
C808 C 0.75616 0.79083 0.04575 0.0
C809 C 0.75204 0.82416 0.07584 0.0
C810 C 0.78335 0.83231 0.10363 0.0
C811 C 0.77906 0.86329 0.13226 0.0
C812 C 0.74339 0.88608 0.13373 0.0
C813 C 0.71194 0.8779 0.10661 0.0
C814 C 0.71615 0.84709 0.0778 0.0
C815 C 0.67568 0.62586 0.0285 0.0
C816 C 0.63585 0.63639 0.01754 0.0
C817 C 0.70591 0.65542 0.0304 0.0
C818 C 0.69706 0.69591 0.02067 0.0
C819 C 0.65716 0.70671 0.01081 0.0
C820 C 0.62681 0.67725 1.00928 0.0
C821 C 0.72959 0.72687 0.01938 0.0
C822 C 0.72591 0.761 0.04439 0.0
C823 C 0.76428 0.72253 0.99441 0.0
C824 C 0.77022 0.68651 0.96792 0.0
C825 C 0.73965 0.67369 0.94105 0.0
C826 C 0.74393 0.63742 0.91956 0.0
C827 C 0.7794 0.61462 0.92315 0.0
C828 C 0.81056 0.62787 0.94851 0.0
C829 C 0.806 0.66354 0.97096 0.0
H830 H 0.7828 0.58674 0.9062 0.0
H831 H 0.74005 0.90999 0.15594 0.0
H832 H 0.68541 0.53484 0.92407 0.0
H833 H 0.73879 0.53412 0.87238 0.0
H834 H 0.65279 0.49189 0.78359 0.0
H835 H 0.59928 0.49252 0.83488 0.0
H836 H 0.72283 0.44764 0.78275 0.0
H837 H 0.68335 0.58677 0.78445 0.0
H838 H 0.67178 0.65689 0.80701 0.0
H839 H 0.79808 0.66948 0.83541 0.0
H840 H 0.81015 0.59875 0.81481 0.0
H841 H 0.8359 0.48546 0.60102 0.0
H842 H 0.78498 0.48363 0.65496 0.0
H843 H 0.87433 0.52401 0.74129 0.0
H844 H 0.92549 0.52596 0.68766 0.0
H845 H 0.80396 0.56819 0.74413 0.0
H846 H 0.84288 0.42838 0.74535 0.0
H847 H 0.85611 0.36087 0.71626 0.0
H848 H 0.73214 0.35243 0.67776 0.0
H849 H 0.71824 0.42014 0.70639 0.0
C850 C 0.67781 0.52543 0.89354 0.0
C851 C 0.63802 0.5137 0.88364 0.0
C852 C 0.70833 0.52531 0.86398 0.0
C853 C 0.69972 0.5132 0.82409 0.0
C854 C 0.66009 0.50141 0.81418 0.0
C855 C 0.62949 0.50196 0.84353 0.0
C856 C 0.73219 0.51152 0.79289 0.0
C857 C 0.74028 0.47415 0.77406 0.0
C858 C 0.75571 0.54588 0.78223 0.0
C859 C 0.74756 0.58708 0.79852 0.0
C860 C 0.70851 0.60405 0.79645 0.0
C861 C 0.70191 0.64409 0.80867 0.0
C862 C 0.73426 0.66773 0.82235 0.0
C863 C 0.77311 0.6512 0.82455 0.0
C864 C 0.77977 0.61103 0.81294 0.0
C865 C 0.84479 0.49393 0.63148 0.0
C866 C 0.88478 0.50605 0.63996 0.0
C867 C 0.8157 0.49251 0.66233 0.0
C868 C 0.82597 0.50336 0.70217 0.0
C869 C 0.86584 0.51536 0.71076 0.0
C870 C 0.89504 0.51642 0.68004 0.0
C871 C 0.79463 0.50451 0.73444 0.0
C872 C 0.7867 0.54171 0.75331 0.0
C873 C 0.77135 0.47013 0.74514 0.0
C874 C 0.77963 0.42953 0.72764 0.0
C875 C 0.81853 0.41231 0.73034 0.0
C876 C 0.82612 0.37395 0.71401 0.0
C877 C 0.79502 0.35241 0.69501 0.0
C878 C 0.75622 0.36917 0.69242 0.0
C879 C 0.74845 0.40751 0.70877 0.0
H880 H 0.80092 0.32269 0.68242 0.0
H881 H 0.72934 0.69881 0.83143 0.0
H882 H 0.18421 0.4823 0.59572 0.0
H883 H 0.23725 0.48284 0.64772 0.0
H884 H 0.15539 0.54143 0.73117 0.0
H885 H 0.10201 0.54053 0.67962 0.0
H886 H 0.23505 0.57727 0.72553 0.0
H887 H 0.17111 0.44686 0.74491 0.0
H888 H 0.14632 0.37993 0.72273 0.0
H889 H 0.26682 0.34646 0.68662 0.0
H890 H 0.29222 0.41347 0.70806 0.0
H891 H 0.33806 0.54572 0.91385 0.0
H892 H 0.28753 0.54665 0.85933 0.0
H893 H 0.37076 0.48363 0.7806 0.0
H894 H 0.42171 0.48332 0.8346 0.0
H895 H 0.29195 0.44991 0.78203 0.0
H896 H 0.35777 0.57536 0.76153 0.0
H897 H 0.3858 0.64321 0.77522 0.0
H898 H 0.26706 0.68686 0.8058 0.0
H899 H 0.2384 0.61903 0.79312 0.0
C900 C 0.17753 0.49538 0.62511 0.0
C901 C 0.13891 0.51127 0.63362 0.0
C902 C 0.20779 0.49551 0.6548 0.0
C903 C 0.20012 0.512 0.6933 0.0
C904 C 0.16183 0.5285 0.70166 0.0
C905 C 0.13136 0.52777 0.67224 0.0
C906 C 0.23206 0.51212 0.72488 0.0
C907 C 0.24708 0.5495 0.73845 0.0
C908 C 0.2487 0.47575 0.74041 0.0
C909 C 0.23349 0.43537 0.72769 0.0
C910 C 0.19226 0.42538 0.7319 0.0
C911 C 0.17811 0.3874 0.71953 0.0
C912 C 0.20496 0.35901 0.70316 0.0
C913 C 0.24604 0.36851 0.69924 0.0
C914 C 0.26034 0.40647 0.71153 0.0
C915 C 0.34558 0.5321 0.88491 0.0
C916 C 0.38385 0.51452 0.87845 0.0
C917 C 0.31678 0.53282 0.85377 0.0
C918 C 0.3255 0.51535 0.81591 0.0
C919 C 0.3635 0.49734 0.80957 0.0
C920 C 0.39258 0.49735 0.84038 0.0
C921 C 0.29462 0.51517 0.78323 0.0
C922 C 0.27983 0.47776 0.76936 0.0
C923 C 0.27864 0.55153 0.76695 0.0
C924 C 0.29601 0.59184 0.77698 0.0
C925 C 0.33772 0.59918 0.77196 0.0
C926 C 0.35372 0.63771 0.77934 0.0
C927 C 0.32828 0.66929 0.79144 0.0
C928 C 0.2868 0.66235 0.79653 0.0
C929 C 0.27066 0.62383 0.78929 0.0
H930 H 0.34073 0.69918 0.7965 0.0
H931 H 0.19395 0.32962 0.69361 0.0
H932 H 0.18282 0.49032 0.42026 0.0
H933 H 0.23439 0.48713 0.36735 0.0
H934 H 0.14403 0.51392 0.27675 0.0
H935 H 0.09191 0.51669 0.32944 0.0
H936 H 0.19652 0.45467 0.25187 0.0
H937 H 0.20379 0.5861 0.3137 0.0
H938 H 0.20933 0.63189 0.37232 0.0
H939 H 0.3283 0.58595 0.39791 0.0
H940 H 0.32269 0.53831 0.34052 0.0
H941 H 0.32855 0.51529 0.09245 0.0
H942 H 0.27597 0.51294 0.14455 0.0
H943 H 0.36696 0.49317 0.23632 0.0
H944 H 0.41982 0.49616 0.1847 0.0
H945 H 0.31395 0.54816 0.26095 0.0
H946 H 0.30684 0.41608 0.20063 0.0
H947 H 0.29986 0.36632 0.14525 0.0
H948 H 0.18142 0.41254 0.11779 0.0
H949 H 0.18799 0.46317 0.17244 0.0
C950 C 0.17378 0.49561 0.38912 0.0
C951 C 0.13323 0.50432 0.37919 0.0
C952 C 0.20335 0.49364 0.3589 0.0
C953 C 0.1931 0.50082 0.31822 0.0
C954 C 0.15254 0.50836 0.30801 0.0
C955 C 0.12284 0.51013 0.33821 0.0
C956 C 0.22495 0.50201 0.28654 0.0
C957 C 0.22197 0.47543 0.2535 0.0
C958 C 0.25856 0.52855 0.28935 0.0
C959 C 0.26264 0.55828 0.32297 0.0
C960 C 0.23104 0.5855 0.33197 0.0
C961 C 0.23419 0.61181 0.36502 0.0
C962 C 0.26922 0.612 0.38876 0.0
C963 C 0.30116 0.58577 0.37951 0.0
C964 C 0.29795 0.55897 0.3468 0.0
C965 C 0.33748 0.51038 0.12368 0.0
C966 C 0.37853 0.50589 0.13427 0.0
C967 C 0.30729 0.50887 0.15344 0.0
C968 C 0.31748 0.50242 0.19429 0.0
C969 C 0.35839 0.49817 0.20498 0.0
C970 C 0.3886 0.49984 0.17533 0.0
C971 C 0.28562 0.50076 0.22606 0.0
C972 C 0.28856 0.52735 0.2592 0.0
C973 C 0.25204 0.47414 0.22337 0.0
C974 C 0.24813 0.44378 0.19036 0.0
C975 C 0.27948 0.41594 0.18252 0.0
C976 C 0.27557 0.38754 0.1513 0.0
C977 C 0.24028 0.38641 0.12796 0.0
C978 C 0.20878 0.41357 0.13584 0.0
C979 C 0.21259 0.44213 0.16692 0.0
H980 H 0.23728 0.36447 0.10382 0.0
H981 H 0.27159 0.63243 0.41434 0.0
H982 H 0.59072 0.5006 0.18861 0.0
H983 H 0.64251 0.49901 0.24142 0.0
H984 H 0.73601 0.50695 0.15024 0.0
H985 H 0.68459 0.50797 0.09713 0.0
H986 H 0.75535 0.45178 0.20635 0.0
H987 H 0.70838 0.58913 0.2063 0.0
H988 H 0.65749 0.6437 0.20939 0.0
H989 H 0.62315 0.60585 0.32928 0.0
H990 H 0.67338 0.55048 0.32661 0.0
H991 H 0.91957 0.50946 0.33297 0.0
H992 H 0.86654 0.50694 0.28161 0.0
H993 H 0.77586 0.49653 0.37534 0.0
H994 H 0.82867 0.49953 0.42718 0.0
H995 H 0.75424 0.55162 0.31881 0.0
H996 H 0.80486 0.41531 0.31864 0.0
H997 H 0.85559 0.36058 0.31355 0.0
H998 H 0.8846 0.39796 0.19218 0.0
H999 H 0.83451 0.45329 0.19677 0.0
C1000 C 0.62227 0.50201 0.17965 0.0
C1001 C 0.63334 0.50455 0.13846 0.0
C1002 C 0.65188 0.50123 0.20998 0.0
C1003 C 0.69318 0.5033 0.19986 0.0
C1004 C 0.70435 0.50532 0.1588 0.0
C1005 C 0.6748 0.50603 0.12844 0.0
C1006 C 0.72478 0.50343 0.23201 0.0
C1007 C 0.75544 0.47392 0.23067 0.0
C1008 C 0.72438 0.53181 0.26423 0.0
C1009 C 0.69435 0.56533 0.26607 0.0
C1010 C 0.68974 0.5922 0.2332 0.0
C1011 C 0.66103 0.62333 0.23489 0.0
C1012 C 0.63698 0.62818 0.26947 0.0
C1013 C 0.64172 0.60199 0.30248 0.0
C1014 C 0.67032 0.57073 0.3009 0.0
C1015 C 0.8884 0.50655 0.34285 0.0
C1016 C 0.87854 0.50473 0.3844 0.0
C1017 C 0.85808 0.50492 0.31331 0.0
C1018 C 0.81722 0.50112 0.32456 0.0
C1019 C 0.80719 0.49945 0.36594 0.0
C1020 C 0.8375 0.50114 0.39556 0.0
C1021 C 0.78492 0.49998 0.29314 0.0
C1022 C 0.75414 0.52937 0.29458 0.0
C1023 C 0.78544 0.47167 0.26082 0.0
C1024 C 0.8161 0.43872 0.25824 0.0
C1025 C 0.82231 0.41211 0.29103 0.0
C1026 C 0.85091 0.38093 0.2882 0.0
C1027 C 0.87333 0.37584 0.2526 0.0
C1028 C 0.86723 0.40195 0.21976 0.0
C1029 C 0.83873 0.43322 0.22247 0.0
H1030 H 0.89536 0.35161 0.2504 0.0
H1031 H 0.61474 0.65227 0.27076 0.0
H1032 H 0.32968 0.92373 0.50981 0.0
H1033 H 0.27788 0.87103 0.50467 0.0
H1034 H 0.37091 0.77937 0.49941 0.0
H1035 H 0.42294 0.83155 0.50505 0.0
H1036 H 0.26541 0.81294 0.44409 0.0
H1037 H 0.33449 0.69467 0.55032 0.0
H1038 H 0.38502 0.69226 0.60536 0.0
H1039 H 0.35351 0.81357 0.64048 0.0
H1040 H 0.30178 0.81619 0.58668 0.0
H1041 H 0.18623 0.59486 0.50322 0.0
H1042 H 0.23859 0.64656 0.49727 0.0
H1043 H 0.14694 0.73906 0.48582 0.0
H1044 H 0.09403 0.68736 0.49137 0.0
H1045 H 0.25356 0.70488 0.54809 0.0
H1046 H 0.19071 0.82177 0.42746 0.0
H1047 H 0.16054 0.8235 0.3591 0.0
H1048 H 0.19272 0.69877 0.34098 0.0
H1049 H 0.22419 0.69656 0.40882 0.0
C1050 C 0.33923 0.89238 0.50774 0.0
C1051 C 0.3806 0.88199 0.50824 0.0
C1052 C 0.30953 0.86232 0.50459 0.0
C1053 C 0.32054 0.8213 0.50209 0.0
C1054 C 0.36173 0.81081 0.50194 0.0
C1055 C 0.39145 0.84079 0.50519 0.0
C1056 C 0.28885 0.78946 0.50006 0.0
C1057 C 0.26199 0.7897 0.46717 0.0
C1058 C 0.28616 0.75813 0.52925 0.0
C1059 C 0.31455 0.75575 0.56411 0.0
C1060 C 0.33791 0.72061 0.57017 0.0
C1061 C 0.36677 0.71921 0.60116 0.0
C1062 C 0.37256 0.75278 0.62631 0.0
C1063 C 0.34897 0.78756 0.62102 0.0
C1064 C 0.31979 0.78898 0.59034 0.0
C1065 C 0.17697 0.62612 0.49925 0.0
C1066 C 0.13569 0.63683 0.49839 0.0
C1067 C 0.2071 0.65572 0.49576 0.0
C1068 C 0.19683 0.69679 0.49106 0.0
C1069 C 0.15569 0.70757 0.48902 0.0
C1070 C 0.12543 0.67792 0.49265 0.0
C1071 C 0.22906 0.7284 0.4921 0.0
C1072 C 0.25619 0.72823 0.52502 0.0
C1073 C 0.23259 0.75924 0.46224 0.0
C1074 C 0.2093 0.75878 0.42365 0.0
C1075 C 0.19113 0.79457 0.40906 0.0
C1076 C 0.17422 0.7958 0.3702 0.0
C1077 C 0.17495 0.76132 0.34565 0.0
C1078 C 0.19219 0.72542 0.3601 0.0
C1079 C 0.20946 0.72412 0.39882 0.0
H1080 H 0.16183 0.76232 0.31558 0.0
H1081 H 0.3954 0.75183 0.6498 0.0
H1082 H 0.18634 0.4226 0.52077 0.0
H1083 H 0.23856 0.37018 0.51885 0.0
H1084 H 0.14799 0.28031 0.49042 0.0
H1085 H 0.09543 0.33232 0.49303 0.0
H1086 H 0.19916 0.25112 0.54489 0.0
H1087 H 0.21009 0.31956 0.41797 0.0
H1088 H 0.21731 0.37792 0.37169 0.0
H1089 H 0.33437 0.40413 0.4219 0.0
H1090 H 0.32747 0.34654 0.46922 0.0
H1091 H 0.33456 0.09722 0.48178 0.0
H1092 H 0.28269 0.15 0.47899 0.0
H1093 H 0.3704 0.23895 0.51741 0.0
H1094 H 0.42274 0.18654 0.51949 0.0
H1095 H 0.32043 0.26798 0.45749 0.0
H1096 H 0.30742 0.19343 0.5827 0.0
H1097 H 0.30059 0.12865 0.61937 0.0
H1098 H 0.18369 0.10975 0.5657 0.0
H1099 H 0.19089 0.17315 0.5266 0.0
C1100 C 0.17745 0.39172 0.51405 0.0
C1101 C 0.13663 0.38178 0.50689 0.0
C1102 C 0.2074 0.36176 0.5129 0.0
C1103 C 0.19728 0.32135 0.50403 0.0
C1104 C 0.15653 0.31125 0.49739 0.0
C1105 C 0.12651 0.34112 0.49881 0.0
C1106 C 0.22922 0.28968 0.50139 0.0
C1107 C 0.22543 0.25461 0.52538 0.0
C1108 C 0.2637 0.29434 0.47616 0.0
C1109 C 0.26802 0.32899 0.44758 0.0
C1110 C 0.2372 0.33801 0.41948 0.0
C1111 C 0.24125 0.37093 0.393 0.0
C1112 C 0.27622 0.39477 0.39393 0.0
C1113 C 0.30725 0.38569 0.42129 0.0
C1114 C 0.30327 0.35293 0.44798 0.0
C1115 C 0.34289 0.128 0.48961 0.0
C1116 C 0.38271 0.13755 0.50132 0.0
C1117 C 0.31321 0.15816 0.48786 0.0
C1118 C 0.32256 0.19829 0.49854 0.0
C1119 C 0.36253 0.20817 0.50907 0.0
C1120 C 0.39236 0.1781 0.51041 0.0
C1121 C 0.29029 0.22956 0.50071 0.0
C1122 C 0.2941 0.26457 0.47683 0.0
C1123 C 0.25552 0.22448 0.52543 0.0
C1124 C 0.2499 0.18794 0.55131 0.0
C1125 C 0.28035 0.17537 0.57845 0.0
C1126 C 0.27654 0.13874 0.59948 0.0
C1127 C 0.2417 0.11515 0.59493 0.0
C1128 C 0.21067 0.12806 0.56917 0.0
C1129 C 0.21473 0.16421 0.54733 0.0
H1130 H 0.23869 0.08693 0.61143 0.0
H1131 H 0.27934 0.42019 0.37336 0.0
H1132 H 0.92214 0.68624 0.51563 0.0
H1133 H 0.86945 0.73813 0.51634 0.0
H1134 H 0.77765 0.64557 0.50708 0.0
H1135 H 0.8301 0.5933 0.50594 0.0
H1136 H 0.76255 0.70928 0.45622 0.0
H1137 H 0.79677 0.68993 0.59645 0.0
H1138 H 0.84271 0.68559 0.65523 0.0
H1139 H 0.87825 0.80955 0.63731 0.0
H1140 H 0.83305 0.81444 0.57787 0.0
H1141 H 0.59314 0.83011 0.51032 0.0
H1142 H 0.64559 0.7779 0.51022 0.0
H1143 H 0.73777 0.87001 0.52008 0.0
H1144 H 0.68564 0.92251 0.52065 0.0
H1145 H 0.75259 0.80649 0.57065 0.0
H1146 H 0.71887 0.82644 0.43091 0.0
H1147 H 0.67263 0.83177 0.37253 0.0
H1148 H 0.63678 0.70767 0.38889 0.0
H1149 H 0.68211 0.70187 0.44812 0.0
C1150 C 0.89079 0.67676 0.51369 0.0
C1151 C 0.88047 0.63543 0.51092 0.0
C1152 C 0.86067 0.70655 0.51423 0.0
C1153 C 0.8196 0.6957 0.51217 0.0
C1154 C 0.80917 0.6546 0.50876 0.0
C1155 C 0.83926 0.62475 0.50831 0.0
C1156 C 0.78752 0.72724 0.51384 0.0
C1157 C 0.76001 0.73019 0.48148 0.0
C1158 C 0.78486 0.75512 0.5464 0.0
C1159 C 0.81182 0.7524 0.58238 0.0
C1160 C 0.81463 0.71617 0.60479 0.0
C1161 C 0.84052 0.71362 0.63826 0.0
C1162 C 0.86349 0.74722 0.64989 0.0
C1163 C 0.86051 0.78351 0.62818 0.0
C1164 C 0.83475 0.78619 0.5946 0.0
C1165 C 0.62452 0.83938 0.51264 0.0
C1166 C 0.63506 0.88065 0.51536 0.0
C1167 C 0.6545 0.80944 0.51242 0.0
C1168 C 0.69561 0.82009 0.51475 0.0
C1169 C 0.70623 0.86113 0.51822 0.0
C1170 C 0.67631 0.89112 0.51837 0.0
C1171 C 0.7276 0.78849 0.51308 0.0
C1172 C 0.75511 0.78555 0.5454 0.0
C1173 C 0.73035 0.76073 0.48043 0.0
C1174 C 0.70361 0.76385 0.44429 0.0
C1175 C 0.70091 0.80035 0.42229 0.0
C1176 C 0.67487 0.80346 0.389 0.0
C1177 C 0.65173 0.7701 0.37701 0.0
C1178 C 0.65468 0.73351 0.39825 0.0
C1179 C 0.68053 0.7303 0.43171 0.0
H1180 H 0.63155 0.77258 0.35124 0.0
H1181 H 0.88354 0.74514 0.67576 0.0
H1182 H 0.68738 0.09353 0.50426 0.0
H1183 H 0.73953 0.14596 0.50635 0.0
H1184 H 0.64716 0.23822 0.51352 0.0
H1185 H 0.59476 0.1862 0.51072 0.0
H1186 H 0.7044 0.26032 0.46175 0.0
H1187 H 0.70043 0.20708 0.59653 0.0
H1188 H 0.70267 0.15447 0.64956 0.0
H1189 H 0.82508 0.12531 0.61633 0.0
H1190 H 0.82328 0.17717 0.56239 0.0
H1191 H 0.83173 0.42248 0.52113 0.0
H1192 H 0.7796 0.3701 0.52198 0.0
H1193 H 0.87133 0.27781 0.50935 0.0
H1194 H 0.92391 0.32991 0.50901 0.0
H1195 H 0.81408 0.25633 0.56437 0.0
H1196 H 0.8163 0.31029 0.42838 0.0
H1197 H 0.81356 0.36566 0.37822 0.0
H1198 H 0.69309 0.39582 0.41715 0.0
H1199 H 0.69548 0.3412 0.46831 0.0
C1200 C 0.67804 0.12494 0.50622 0.0
C1201 C 0.63674 0.13552 0.50742 0.0
C1202 C 0.70798 0.15491 0.50759 0.0
C1203 C 0.69728 0.19601 0.51061 0.0
C1204 C 0.65614 0.2067 0.51123 0.0
C1205 C 0.62618 0.17682 0.5097 0.0
C1206 C 0.72893 0.22795 0.51299 0.0
C1207 C 0.72811 0.25966 0.48452 0.0
C1208 C 0.76025 0.2268 0.54234 0.0
C1209 C 0.76149 0.19566 0.57495 0.0
C1210 C 0.72769 0.18917 0.6002 0.0
C1211 C 0.7289 0.15949 0.63049 0.0
C1212 C 0.76394 0.1364 0.63622 0.0
C1213 C 0.7979 0.14309 0.61176 0.0
C1214 C 0.79678 0.17261 0.58129 0.0
C1215 C 0.84098 0.39108 0.51854 0.0
C1216 C 0.88213 0.38054 0.51458 0.0
C1217 C 0.81104 0.36115 0.51898 0.0
C1218 C 0.82152 0.32009 0.51507 0.0
C1219 C 0.86256 0.30934 0.51223 0.0
C1220 C 0.89258 0.33924 0.5119 0.0
C1221 C 0.78966 0.28841 0.51313 0.0
C1222 C 0.79042 0.25681 0.54164 0.0
C1223 C 0.75813 0.2898 0.48406 0.0
C1224 C 0.75622 0.32186 0.45245 0.0
C1225 C 0.7893 0.32886 0.42641 0.0
C1226 C 0.7878 0.36013 0.39778 0.0
C1227 C 0.75318 0.3843 0.3945 0.0
C1228 C 0.71991 0.37712 0.41975 0.0
C1229 C 0.72133 0.34601 0.44859 0.0
H1230 H 0.75208 0.40858 0.37241 0.0
H1231 H 0.76484 0.11341 0.65967 0.0
H1232 H 0.51612 0.33538 0.91728 0.0
H1233 H 0.51574 0.28472 0.86344 0.0
H1234 H 0.501 0.37909 0.77398 0.0
H1235 H 0.50091 0.43016 0.82771 0.0
H1236 H 0.45167 0.31612 0.75801 0.0
H1237 H 0.59213 0.3341 0.78555 0.0
H1238 H 0.65592 0.33761 0.82406 0.0
H1239 H 0.64023 0.21427 0.86295 0.0
H1240 H 0.57596 0.2102 0.82502 0.0
H1241 H 0.50296 0.19038 0.58845 0.0
H1242 H 0.5025 0.24419 0.63936 0.0
H1243 H 0.51265 0.15481 0.73444 0.0
H1244 H 0.51369 0.10086 0.68396 0.0
H1245 H 0.5643 0.21731 0.74539 0.0
H1246 H 0.42368 0.20038 0.70917 0.0
H1247 H 0.36722 0.19858 0.66022 0.0
H1248 H 0.38643 0.32411 0.63194 0.0
H1249 H 0.44429 0.3263 0.67914 0.0
C1250 C 0.51277 0.34553 0.88621 0.0
C1251 C 0.50873 0.38702 0.87695 0.0
C1252 C 0.51273 0.31644 0.85539 0.0
C1253 C 0.50876 0.3281 0.81461 0.0
C1254 C 0.50417 0.36938 0.80523 0.0
C1255 C 0.50433 0.39857 0.83604 0.0
C1256 C 0.50939 0.29712 0.78188 0.0
C1257 C 0.47649 0.29477 0.75493 0.0
C1258 C 0.54158 0.269 0.77809 0.0
C1259 C 0.57902 0.27199 0.80277 0.0
C1260 C 0.60195 0.30793 0.80281 0.0
C1261 C 0.63828 0.30998 0.82446 0.0
C1262 C 0.65208 0.27622 0.84606 0.0
C1263 C 0.62946 0.24042 0.84628 0.0
C1264 C 0.59309 0.23822 0.82469 0.0
C1265 C 0.50511 0.18207 0.62017 0.0
C1266 C 0.50819 0.14115 0.63202 0.0
C1267 C 0.50464 0.21292 0.64925 0.0
C1268 C 0.50699 0.20347 0.69072 0.0
C1269 C 0.51059 0.16277 0.7026 0.0
C1270 C 0.51106 0.13192 0.67362 0.0
C1271 C 0.5064 0.23588 0.72191 0.0
C1272 C 0.53935 0.2385 0.74859 0.0
C1273 C 0.47449 0.2645 0.72493 0.0
C1274 C 0.43874 0.26339 0.69748 0.0
C1275 C 0.41616 0.22754 0.69229 0.0
C1276 C 0.38387 0.22644 0.66485 0.0
C1277 C 0.37316 0.2612 0.64315 0.0
C1278 C 0.39477 0.29717 0.64876 0.0
C1279 C 0.42744 0.29833 0.67574 0.0
H1280 H 0.34812 0.26025 0.62198 0.0
H1281 H 0.68045 0.27767 0.86237 0.0
H1282 H 0.47217 0.84087 0.60769 0.0
H1283 H 0.46682 0.79246 0.66411 0.0
H1284 H 0.52423 0.87877 0.74369 0.0
H1285 H 0.52927 0.92727 0.68788 0.0
H1286 H 0.56 0.80608 0.74787 0.0
H1287 H 0.43047 0.86125 0.75491 0.0
H1288 H 0.36093 0.88364 0.74006 0.0
H1289 H 0.32453 0.76015 0.72108 0.0
H1290 H 0.39416 0.73699 0.7344 0.0
H1291 H 0.47099 0.68212 0.92584 0.0
H1292 H 0.46704 0.73747 0.87645 0.0
H1293 H 0.53798 0.66766 0.79175 0.0
H1294 H 0.54152 0.61163 0.84079 0.0
H1295 H 0.43556 0.73743 0.79696 0.0
H1296 H 0.60856 0.74448 0.75286 0.0
H1297 H 0.67484 0.73696 0.78652 0.0
H1298 H 0.61895 0.75567 0.9027 0.0
H1299 H 0.55274 0.76498 0.86971 0.0
C1300 C 0.48365 0.84948 0.63722 0.0
C1301 C 0.50146 0.88779 0.64323 0.0
C1302 C 0.48018 0.82197 0.6695 0.0
C1303 C 0.49497 0.83209 0.70814 0.0
C1304 C 0.51253 0.87037 0.71417 0.0
C1305 C 0.51541 0.89805 0.68219 0.0
C1306 C 0.49516 0.80178 0.7415 0.0
C1307 C 0.53275 0.79086 0.75826 0.0
C1308 C 0.45932 0.78331 0.7565 0.0
C1309 C 0.41808 0.79739 0.74484 0.0
C1310 C 0.40803 0.83886 0.74648 0.0
C1311 C 0.36842 0.85171 0.7386 0.0
C1312 C 0.33835 0.82336 0.72952 0.0
C1313 C 0.34786 0.78211 0.72807 0.0
C1314 C 0.38747 0.76913 0.73562 0.0
C1315 C 0.48579 0.67854 0.8967 0.0
C1316 C 0.50673 0.64265 0.88715 0.0
C1317 C 0.48317 0.71003 0.86847 0.0
C1318 C 0.50216 0.70658 0.83059 0.0
C1319 C 0.52319 0.67085 0.82094 0.0
C1320 C 0.52512 0.63891 0.84887 0.0
C1321 C 0.50038 0.74058 0.80128 0.0
C1322 C 0.46265 0.75227 0.78565 0.0
C1323 C 0.5357 0.76127 0.78872 0.0
C1324 C 0.57543 0.75456 0.80877 0.0
C1325 C 0.61039 0.74695 0.78558 0.0
C1326 C 0.64801 0.74259 0.80457 0.0
C1327 C 0.65104 0.74557 0.84677 0.0
C1328 C 0.61651 0.75309 0.87005 0.0
C1329 C 0.57893 0.75792 0.8512 0.0
H1330 H 0.68013 0.74238 0.8615 0.0
H1331 H 0.30766 0.83335 0.72368 0.0
H1332 H 0.5031 0.68497 0.10168 0.0
H1333 H 0.50772 0.73512 0.15587 0.0
H1334 H 0.52438 0.63945 0.24362 0.0
H1335 H 0.51931 0.58894 0.18974 0.0
H1336 H 0.47031 0.69318 0.27012 0.0
H1337 H 0.60224 0.69899 0.21132 0.0
H1338 H 0.65583 0.7078 0.1599 0.0
H1339 H 0.61597 0.82977 0.13801 0.0
H1340 H 0.56157 0.82144 0.18866 0.0
H1341 H 0.52151 0.82821 0.43104 0.0
H1342 H 0.52497 0.7744 0.38027 0.0
H1343 H 0.50616 0.86238 0.28521 0.0
H1344 H 0.50322 0.91646 0.3355 0.0
H1345 H 0.56506 0.80984 0.26555 0.0
H1346 H 0.42923 0.80192 0.31915 0.0
H1347 H 0.37858 0.7955 0.37388 0.0
H1348 H 0.42711 0.67909 0.40624 0.0
H1349 H 0.47851 0.68512 0.35211 0.0
C1350 C 0.50782 0.67446 0.13245 0.0
C1351 C 0.51072 0.63278 0.14123 0.0
C1352 C 0.51068 0.70327 0.16342 0.0
C1353 C 0.51683 0.69111 0.20379 0.0
C1354 C 0.51962 0.64956 0.2127 0.0
C1355 C 0.51665 0.6207 0.18178 0.0
C1356 C 0.5189 0.72165 0.23687 0.0
C1357 C 0.49145 0.71836 0.26934 0.0
C1358 C 0.54598 0.755 0.23556 0.0
C1359 C 0.57751 0.75939 0.20362 0.0
C1360 C 0.6045 0.72748 0.19517 0.0
C1361 C 0.6351 0.73243 0.16621 0.0
C1362 C 0.63925 0.76931 0.14574 0.0
C1363 C 0.61265 0.80121 0.1539 0.0
C1364 C 0.58191 0.79635 0.18269 0.0
C1365 C 0.51795 0.83619 0.39936 0.0
C1366 C 0.51176 0.87673 0.38745 0.0
C1367 C 0.51992 0.80532 0.37038 0.0
C1368 C 0.51531 0.81432 0.329 0.0
C1369 C 0.50974 0.85476 0.31699 0.0
C1370 C 0.50793 0.88564 0.34587 0.0
C1371 C 0.51599 0.78171 0.29803 0.0
C1372 C 0.544 0.78456 0.26614 0.0
C1373 C 0.48934 0.74813 0.29971 0.0
C1374 C 0.458 0.74416 0.33183 0.0
C1375 C 0.42928 0.77507 0.33811 0.0
C1376 C 0.40042 0.7715 0.36901 0.0
C1377 C 0.3997 0.73697 0.3936 0.0
C1378 C 0.42775 0.70586 0.38722 0.0
C1379 C 0.45674 0.70933 0.35642 0.0
H1380 H 0.37737 0.73429 0.41753 0.0
H1381 H 0.66321 0.77329 0.12376 0.0
H1382 H 0.51772 0.18336 0.41726 0.0
H1383 H 0.51574 0.23406 0.36343 0.0
H1384 H 0.49729 0.13988 0.27466 0.0
H1385 H 0.49981 0.08867 0.32828 0.0
H1386 H 0.55276 0.19413 0.24897 0.0
H1387 H 0.42008 0.19921 0.30708 0.0
H1388 H 0.36849 0.20611 0.36079 0.0
H1389 H 0.4107 0.32641 0.38678 0.0
H1390 H 0.46308 0.31997 0.33373 0.0
H1391 H 0.4984 0.32896 0.08861 0.0
H1392 H 0.49834 0.27511 0.13954 0.0
H1393 H 0.51329 0.36412 0.23416 0.0
H1394 H 0.51269 0.4182 0.18367 0.0
H1395 H 0.45761 0.31039 0.25511 0.0
H1396 H 0.59224 0.30451 0.19967 0.0
H1397 H 0.64395 0.29807 0.14597 0.0
H1398 H 0.59874 0.1799 0.1156 0.0
H1399 H 0.5462 0.18592 0.16859 0.0
C1400 C 0.5132 0.17325 0.38634 0.0
C1401 C 0.50884 0.13178 0.37724 0.0
C1402 C 0.51194 0.2024 0.35557 0.0
C1403 C 0.50589 0.19084 0.31504 0.0
C1404 C 0.50198 0.1495 0.30572 0.0
C1405 C 0.50338 0.12025 0.33649 0.0
C1406 C 0.50408 0.22195 0.28242 0.0
C1407 C 0.53154 0.21924 0.24997 0.0
C1408 C 0.47697 0.2552 0.28423 0.0
C1409 C 0.44576 0.25894 0.31655 0.0
C1410 C 0.41863 0.22699 0.32445 0.0
C1411 C 0.38921 0.23083 0.35476 0.0
C1412 C 0.38638 0.26665 0.37717 0.0
C1413 C 0.41299 0.29867 0.3694 0.0
C1414 C 0.44255 0.29493 0.33921 0.0
C1415 C 0.50174 0.33718 0.12023 0.0
C1416 C 0.50562 0.37805 0.13191 0.0
C1417 C 0.50187 0.30626 0.14933 0.0
C1418 C 0.50629 0.31549 0.19068 0.0
C1419 C 0.50985 0.35623 0.20245 0.0
C1420 C 0.50956 0.38716 0.17343 0.0
C1421 C 0.50661 0.28287 0.22188 0.0
C1422 C 0.47878 0.28525 0.25405 0.0
C1423 C 0.53347 0.24941 0.21987 0.0
C1424 C 0.56494 0.24588 0.18782 0.0
C1425 C 0.59303 0.27732 0.18128 0.0
C1426 C 0.62253 0.27372 0.151 0.0
C1427 C 0.62452 0.23865 0.12733 0.0
C1428 C 0.59707 0.20708 0.13391 0.0
C1429 C 0.56742 0.21058 0.16404 0.0
H1430 H 0.64737 0.23587 0.10396 0.0
H1431 H 0.3635 0.26966 0.40044 0.0
loop_
_geom_bond_atom_site_label_1
_geom_bond_atom_site_label_2
_geom_bond_distance
_geom_bond_site_symmetry_2
_ccdc_geom_bond_type
H0 O1 0.850 . S
O1 H0 0.850 . S
O1 Tb2 2.341 1_566 S
O1 Tb3 2.341 1_656 S
O1 Tb4 2.341 1_665 S
Tb2 O1 2.341 1_544 S
Tb2 O5 2.341 1_545 S
Tb2 O6 2.341 1_554 S
Tb2 O7 2.341 . S
Tb2 O22 2.344 1_545 S
Tb2 O25 2.344 . S
Tb2 O38 2.344 . S
Tb2 O41 2.344 1_554 S
Tb3 O1 2.341 1_454 S
Tb3 O5 2.341 1_455 S
Tb3 O8 2.341 . S
Tb3 O10 2.341 1_554 S
Tb3 O26 2.344 1_554 S
Tb3 O29 2.344 . S
Tb3 O34 2.344 1_455 S
Tb3 O37 2.344 . S
Tb4 O1 2.341 1_445 S
Tb4 O6 2.341 1_455 S
Tb4 O9 2.341 . S
Tb4 O10 2.341 1_545 S
Tb4 O30 2.344 1_455 S
Tb4 O33 2.344 . S
Tb4 O43 2.344 . S
Tb4 O44 2.344 1_545 S
O5 Tb2 2.341 1_565 S
O5 Tb3 2.341 1_655 S
O5 H11 0.850 . S
O5 Tb13 2.341 1_665 S
O6 Tb2 2.341 1_556 S
O6 Tb4 2.341 1_655 S
O6 H12 0.850 . S
O6 Tb14 2.341 1_656 S
O7 Tb2 2.341 . S
O7 Tb13 2.341 1_655 S
O7 Tb14 2.341 1_655 S
O7 H15 0.850 . S
O8 Tb3 2.341 . S
O8 Tb13 2.341 1_565 S
O8 H16 0.850 . S
O8 Tb17 2.341 1_565 S
O9 Tb4 2.341 . S
O9 Tb14 2.341 1_556 S
O9 Tb17 2.341 1_556 S
O9 H18 0.850 . S
O10 Tb3 2.341 1_556 S
O10 Tb4 2.341 1_565 S
O10 Tb17 2.341 1_566 S
O10 H19 0.850 . S
H11 O5 0.850 . S
H12 O6 0.850 . S
Tb13 O5 2.341 1_445 S
Tb13 O7 2.341 1_455 S
Tb13 O8 2.341 1_545 S
Tb13 O20 2.341 . S
Tb13 O31 2.344 . S
Tb13 O32 2.344 1_455 S
Tb13 O42 2.344 1_545 S
Tb13 O45 2.344 . S
Tb14 O6 2.341 1_454 S
Tb14 O7 2.341 1_455 S
Tb14 O9 2.341 1_554 S
Tb14 O20 2.341 . S
Tb14 O27 2.344 . S
Tb14 O28 2.344 1_554 S
Tb14 O35 2.344 . S
Tb14 O36 2.344 1_455 S
H15 O7 0.850 . S
H16 O8 0.850 . S
Tb17 O8 2.341 1_545 S
Tb17 O9 2.341 1_554 S
Tb17 O10 2.341 1_544 S
Tb17 O20 2.341 . S
Tb17 O23 2.344 . S
Tb17 O24 2.344 1_545 S
Tb17 O39 2.344 1_554 S
Tb17 O40 2.344 . S
H18 O9 0.850 . S
H19 O10 0.850 . S
O20 Tb13 2.341 . S
O20 Tb14 2.341 . S
O20 Tb17 2.341 . S
O20 H21 0.850 . S
H21 O20 0.850 . S
O22 Tb2 2.344 1_565 S
O22 C46 1.272 . S
O23 Tb17 2.344 . S
O23 C47 1.272 . S
O24 Tb17 2.344 1_565 S
O24 C48 1.272 . S
O25 Tb2 2.344 . S
O25 C49 1.272 . S
O26 Tb3 2.344 1_556 S
O26 C50 1.272 . S
O27 Tb14 2.344 . S
O27 C51 1.272 . S
O28 Tb14 2.344 1_556 S
O28 C52 1.272 . S
O29 Tb3 2.344 . S
O29 C53 1.272 . S
O30 Tb4 2.344 1_655 S
O30 C54 1.272 . S
O31 Tb13 2.344 . S
O31 C55 1.272 . S
O32 Tb13 2.344 1_655 S
O32 C56 1.272 . S
O33 Tb4 2.344 . S
O33 C57 1.272 . S
O34 Tb3 2.344 1_655 S
O34 C46 1.272 . S
O35 Tb14 2.344 . S
O35 C47 1.272 . S
O36 Tb14 2.344 1_655 S
O36 C49 1.272 . S
O37 Tb3 2.344 . S
O37 C48 1.272 . S
O38 Tb2 2.344 . S
O38 C56 1.272 . S
O39 Tb17 2.344 1_556 S
O39 C57 1.272 . S
O40 Tb17 2.344 . S
O40 C55 1.272 . S
O41 Tb2 2.344 1_556 S
O41 C54 1.272 . S
O42 Tb13 2.344 1_565 S
O42 C53 1.272 . S
O43 Tb4 2.344 . S
O43 C52 1.272 . S
O44 Tb4 2.344 1_565 S
O44 C50 1.272 . S
O45 Tb13 2.344 . S
O45 C51 1.272 . S
C46 O22 1.272 . S
C46 O34 1.272 . S
C47 O23 1.272 . S
C47 O35 1.272 . S
C48 O24 1.272 . S
C48 O37 1.272 . S
C49 O25 1.272 . S
C49 O36 1.272 . S
C50 O26 1.272 . S
C50 O44 1.272 . S
C51 O27 1.272 . S
C51 O45 1.272 . S
C52 O28 1.272 . S
C52 O43 1.272 . S
C53 O29 1.272 . S
C53 O42 1.272 . S
C54 O30 1.272 . S
C54 O41 1.272 . S
C55 O31 1.272 . S
C55 O40 1.272 . S
C56 O32 1.272 . S
C56 O38 1.272 . S
C57 O33 1.272 . S
C57 O39 1.272 . S
H58 O59 0.850 . S
O59 H58 0.850 . S
O59 Tb60 2.341 . S
O59 Tb61 2.341 1_655 S
O59 Tb62 2.341 1_655 S
Tb60 O59 2.341 . S
Tb60 O63 2.341 . S
Tb60 O64 2.341 . S
Tb60 O65 2.341 . S
Tb60 O80 2.344 . S
Tb60 O83 2.344 . S
Tb60 O96 2.344 . S
Tb60 O99 2.344 . S
Tb61 O59 2.341 1_455 S
Tb61 O63 2.341 1_455 S
Tb61 O66 2.341 . S
Tb61 O68 2.341 . S
Tb61 O84 2.344 . S
Tb61 O87 2.344 . S
Tb61 O92 2.344 1_455 S
Tb61 O95 2.344 . S
Tb62 O59 2.341 1_455 S
Tb62 O64 2.341 1_455 S
Tb62 O67 2.341 . S
Tb62 O68 2.341 . S
Tb62 O88 2.344 1_455 S
Tb62 O91 2.344 . S
Tb62 O101 2.344 . S
Tb62 O102 2.344 . S
O63 Tb60 2.341 . S
O63 Tb61 2.341 1_655 S
O63 H69 0.850 . S
O63 Tb71 2.341 1_655 S
O64 Tb60 2.341 . S
O64 Tb62 2.341 1_655 S
O64 H70 0.850 . S
O64 Tb72 2.341 1_655 S
O65 Tb60 2.341 . S
O65 Tb71 2.341 1_655 S
O65 Tb72 2.341 1_655 S
O65 H73 0.850 . S
O66 Tb61 2.341 . S
O66 Tb71 2.341 . S
O66 H74 0.850 . S
O66 Tb75 2.341 . S
O67 Tb62 2.341 . S
O67 Tb72 2.341 . S
O67 Tb75 2.341 . S
O67 H76 0.850 . S
O68 Tb61 2.341 . S
O68 Tb62 2.341 . S
O68 Tb75 2.341 . S
O68 H77 0.850 . S
H69 O63 0.850 . S
H70 O64 0.850 . S
Tb71 O63 2.341 1_455 S
Tb71 O65 2.341 1_455 S
Tb71 O66 2.341 . S
Tb71 O78 2.341 . S
Tb71 O89 2.344 . S
Tb71 O90 2.344 1_455 S
Tb71 O100 2.344 . S
Tb71 O103 2.344 . S
Tb72 O64 2.341 1_455 S
Tb72 O65 2.341 1_455 S
Tb72 O67 2.341 . S
Tb72 O78 2.341 . S
Tb72 O85 2.344 . S
Tb72 O86 2.344 . S
Tb72 O93 2.344 . S
Tb72 O94 2.344 1_455 S
H73 O65 0.850 . S
H74 O66 0.850 . S
Tb75 O66 2.341 . S
Tb75 O67 2.341 . S
Tb75 O68 2.341 . S
Tb75 O78 2.341 . S
Tb75 O81 2.344 . S
Tb75 O82 2.344 . S
Tb75 O97 2.344 . S
Tb75 O98 2.344 . S
H76 O67 0.850 . S
H77 O68 0.850 . S
O78 Tb71 2.341 . S
O78 Tb72 2.341 . S
O78 Tb75 2.341 . S
O78 H79 0.850 . S
H79 O78 0.850 . S
O80 Tb60 2.344 . S
O80 C104 1.272 . S
O81 Tb75 2.344 . S
O81 C105 1.272 . S
O82 Tb75 2.344 . S
O82 C106 1.272 . S
O83 Tb60 2.344 . S
O83 C107 1.272 . S
O84 Tb61 2.344 . S
O84 C108 1.272 . S
O85 Tb72 2.344 . S
O85 C109 1.272 . S
O86 Tb72 2.344 . S
O86 C110 1.272 . S
O87 Tb61 2.344 . S
O87 C111 1.272 . S
O88 Tb62 2.344 1_655 S
O88 C112 1.272 . S
O89 Tb71 2.344 . S
O89 C113 1.272 . S
O90 Tb71 2.344 1_655 S
O90 C114 1.272 . S
O91 Tb62 2.344 . S
O91 C115 1.272 . S
O92 Tb61 2.344 1_655 S
O92 C104 1.272 . S
O93 Tb72 2.344 . S
O93 C105 1.272 . S
O94 Tb72 2.344 1_655 S
O94 C107 1.272 . S
O95 Tb61 2.344 . S
O95 C106 1.272 . S
O96 Tb60 2.344 . S
O96 C114 1.272 . S
O97 Tb75 2.344 . S
O97 C115 1.272 . S
O98 Tb75 2.344 . S
O98 C113 1.272 . S
O99 Tb60 2.344 . S
O99 C112 1.272 . S
O100 Tb71 2.344 . S
O100 C111 1.272 . S
O101 Tb62 2.344 . S
O101 C110 1.272 . S
O102 Tb62 2.344 . S
O102 C108 1.272 . S
O103 Tb71 2.344 . S
O103 C109 1.272 . S
C104 O80 1.272 . S
C104 O92 1.272 . S
C105 O81 1.272 . S
C105 O93 1.272 . S
C106 O82 1.272 . S
C106 O95 1.272 . S
C107 O83 1.272 . S
C107 O94 1.272 . S
C108 O84 1.272 . S
C108 O102 1.272 . S
C109 O85 1.272 . S
C109 O103 1.272 . S
C110 O86 1.272 . S
C110 O101 1.272 . S
C111 O87 1.272 . S
C111 O100 1.272 . S
C112 O88 1.272 . S
C112 O99 1.272 . S
C113 O89 1.272 . S
C113 O98 1.272 . S
C114 O90 1.272 . S
C114 O96 1.272 . S
C115 O91 1.272 . S
C115 O97 1.272 . S
H116 O117 0.850 . S
O117 H116 0.850 . S
O117 Tb118 2.341 1_565 S
O117 Tb119 2.341 . S
O117 Tb120 2.341 1_565 S
Tb118 O117 2.341 1_545 S
Tb118 O121 2.341 1_545 S
Tb118 O122 2.341 . S
Tb118 O123 2.341 . S
Tb118 O138 2.344 1_545 S
Tb118 O141 2.344 . S
Tb118 O154 2.344 . S
Tb118 O157 2.344 . S
Tb119 O117 2.341 . S
Tb119 O121 2.341 . S
Tb119 O124 2.341 . S
Tb119 O126 2.341 . S
Tb119 O142 2.344 . S
Tb119 O145 2.344 . S
Tb119 O150 2.344 . S
Tb119 O153 2.344 . S
Tb120 O117 2.341 1_545 S
Tb120 O122 2.341 . S
Tb120 O125 2.341 . S
Tb120 O126 2.341 1_545 S
Tb120 O146 2.344 . S
Tb120 O149 2.344 . S
Tb120 O159 2.344 . S
Tb120 O160 2.344 1_545 S
O121 Tb118 2.341 1_565 S
O121 Tb119 2.341 . S
O121 H127 0.850 . S
O121 Tb129 2.341 1_565 S
O122 Tb118 2.341 . S
O122 Tb120 2.341 . S
O122 H128 0.850 . S
O122 Tb130 2.341 . S
O123 Tb118 2.341 . S
O123 Tb129 2.341 . S
O123 Tb130 2.341 . S
O123 H131 0.850 . S
O124 Tb119 2.341 . S
O124 Tb129 2.341 1_565 S
O124 H132 0.850 . S
O124 Tb133 2.341 1_565 S
O125 Tb120 2.341 . S
O125 Tb130 2.341 . S
O125 Tb133 2.341 . S
O125 H134 0.850 . S
O126 Tb119 2.341 . S
O126 Tb120 2.341 1_565 S
O126 Tb133 2.341 1_565 S
O126 H135 0.850 . S
H127 O121 0.850 . S
H128 O122 0.850 . S
Tb129 O121 2.341 1_545 S
Tb129 O123 2.341 . S
Tb129 O124 2.341 1_545 S
Tb129 O136 2.341 . S
Tb129 O147 2.344 . S
Tb129 O148 2.344 . S
Tb129 O158 2.344 1_545 S
Tb129 O161 2.344 . S
Tb130 O122 2.341 . S
Tb130 O123 2.341 . S
Tb130 O125 2.341 . S
Tb130 O136 2.341 . S
Tb130 O143 2.344 . S
Tb130 O144 2.344 . S
Tb130 O151 2.344 . S
Tb130 O152 2.344 . S
H131 O123 0.850 . S
H132 O124 0.850 . S
Tb133 O124 2.341 1_545 S
Tb133 O125 2.341 . S
Tb133 O126 2.341 1_545 S
Tb133 O136 2.341 . S
Tb133 O139 2.344 . S
Tb133 O140 2.344 1_545 S
Tb133 O155 2.344 . S
Tb133 O156 2.344 . S
H134 O125 0.850 . S
H135 O126 0.850 . S
O136 Tb129 2.341 . S
O136 Tb130 2.341 . S
O136 Tb133 2.341 . S
O136 H137 0.850 . S
H137 O136 0.850 . S
O138 Tb118 2.344 1_565 S
O138 C162 1.272 . S
O139 Tb133 2.344 . S
O139 C163 1.272 . S
O140 Tb133 2.344 1_565 S
O140 C164 1.272 . S
O141 Tb118 2.344 . S
O141 C165 1.272 . S
O142 Tb119 2.344 . S
O142 C166 1.272 . S
O143 Tb130 2.344 . S
O143 C167 1.272 . S
O144 Tb130 2.344 . S
O144 C168 1.272 . S
O145 Tb119 2.344 . S
O145 C169 1.272 . S
O146 Tb120 2.344 . S
O146 C170 1.272 . S
O147 Tb129 2.344 . S
O147 C171 1.272 . S
O148 Tb129 2.344 . S
O148 C172 1.272 . S
O149 Tb120 2.344 . S
O149 C173 1.272 . S
O150 Tb119 2.344 . S
O150 C162 1.272 . S
O151 Tb130 2.344 . S
O151 C163 1.272 . S
O152 Tb130 2.344 . S
O152 C165 1.272 . S
O153 Tb119 2.344 . S
O153 C164 1.272 . S
O154 Tb118 2.344 . S
O154 C172 1.272 . S
O155 Tb133 2.344 . S
O155 C173 1.272 . S
O156 Tb133 2.344 . S
O156 C171 1.272 . S
O157 Tb118 2.344 . S
O157 C170 1.272 . S
O158 Tb129 2.344 1_565 S
O158 C169 1.272 . S
O159 Tb120 2.344 . S
O159 C168 1.272 . S
O160 Tb120 2.344 1_565 S
O160 C166 1.272 . S
O161 Tb129 2.344 . S
O161 C167 1.272 . S
C162 O138 1.272 . S
C162 O150 1.272 . S
C163 O139 1.272 . S
C163 O151 1.272 . S
C164 O140 1.272 . S
C164 O153 1.272 . S
C165 O141 1.272 . S
C165 O152 1.272 . S
C166 O142 1.272 . S
C166 O160 1.272 . S
C167 O143 1.272 . S
C167 O161 1.272 . S
C168 O144 1.272 . S
C168 O159 1.272 . S
C169 O145 1.272 . S
C169 O158 1.272 . S
C170 O146 1.272 . S
C170 O157 1.272 . S
C171 O147 1.272 . S
C171 O156 1.272 . S
C172 O148 1.272 . S
C172 O154 1.272 . S
C173 O149 1.272 . S
C173 O155 1.272 . S
H174 O175 0.850 . S
O175 H174 0.850 . S
O175 Tb176 2.341 1_556 S
O175 Tb177 2.341 1_556 S
O175 Tb178 2.341 . S
Tb176 O175 2.341 1_554 S
Tb176 O179 2.341 . S
Tb176 O180 2.341 1_554 S
Tb176 O181 2.341 . S
Tb176 O196 2.344 . S
Tb176 O199 2.344 . S
Tb176 O212 2.344 . S
Tb176 O215 2.344 1_554 S
Tb177 O175 2.341 1_554 S
Tb177 O179 2.341 . S
Tb177 O182 2.341 . S
Tb177 O184 2.341 1_554 S
Tb177 O200 2.344 1_554 S
Tb177 O203 2.344 . S
Tb177 O208 2.344 . S
Tb177 O211 2.344 . S
Tb178 O175 2.341 . S
Tb178 O180 2.341 . S
Tb178 O183 2.341 . S
Tb178 O184 2.341 . S
Tb178 O204 2.344 . S
Tb178 O207 2.344 . S
Tb178 O217 2.344 . S
Tb178 O218 2.344 . S
O179 Tb176 2.341 . S
O179 Tb177 2.341 . S
O179 H185 0.850 . S
O179 Tb187 2.341 . S
O180 Tb176 2.341 1_556 S
O180 Tb178 2.341 . S
O180 H186 0.850 . S
O180 Tb188 2.341 1_556 S
O181 Tb176 2.341 . S
O181 Tb187 2.341 . S
O181 Tb188 2.341 . S
O181 H189 0.850 . S
O182 Tb177 2.341 . S
O182 Tb187 2.341 . S
O182 H190 0.850 . S
O182 Tb191 2.341 . S
O183 Tb178 2.341 . S
O183 Tb188 2.341 1_556 S
O183 Tb191 2.341 1_556 S
O183 H192 0.850 . S
O184 Tb177 2.341 1_556 S
O184 Tb178 2.341 . S
O184 Tb191 2.341 1_556 S
O184 H193 0.850 . S
H185 O179 0.850 . S
H186 O180 0.850 . S
Tb187 O179 2.341 . S
Tb187 O181 2.341 . S
Tb187 O182 2.341 . S
Tb187 O194 2.341 . S
Tb187 O205 2.344 . S
Tb187 O206 2.344 . S
Tb187 O216 2.344 . S
Tb187 O219 2.344 . S
Tb188 O180 2.341 1_554 S
Tb188 O181 2.341 . S
Tb188 O183 2.341 1_554 S
Tb188 O194 2.341 . S
Tb188 O201 2.344 . S
Tb188 O202 2.344 1_554 S
Tb188 O209 2.344 . S
Tb188 O210 2.344 . S
H189 O181 0.850 . S
H190 O182 0.850 . S
Tb191 O182 2.341 . S
Tb191 O183 2.341 1_554 S
Tb191 O184 2.341 1_554 S
Tb191 O194 2.341 . S
Tb191 O197 2.344 . S
Tb191 O198 2.344 . S
Tb191 O213 2.344 1_554 S
Tb191 O214 2.344 . S
H192 O183 0.850 . S
H193 O184 0.850 . S
O194 Tb187 2.341 . S
O194 Tb188 2.341 . S
O194 Tb191 2.341 . S
O194 H195 0.850 . S
H195 O194 0.850 . S
O196 Tb176 2.344 . S
O196 C220 1.272 . S
O197 Tb191 2.344 . S
O197 C221 1.272 . S
O198 Tb191 2.344 . S
O198 C222 1.272 . S
O199 Tb176 2.344 . S
O199 C223 1.272 . S
O200 Tb177 2.344 1_556 S
O200 C224 1.272 . S
O201 Tb188 2.344 . S
O201 C225 1.272 . S
O202 Tb188 2.344 1_556 S
O202 C226 1.272 . S
O203 Tb177 2.344 . S
O203 C227 1.272 . S
O204 Tb178 2.344 . S
O204 C228 1.272 . S
O205 Tb187 2.344 . S
O205 C229 1.272 . S
O206 Tb187 2.344 . S
O206 C230 1.272 . S
O207 Tb178 2.344 . S
O207 C231 1.272 . S
O208 Tb177 2.344 . S
O208 C220 1.272 . S
O209 Tb188 2.344 . S
O209 C221 1.272 . S
O210 Tb188 2.344 . S
O210 C223 1.272 . S
O211 Tb177 2.344 . S
O211 C222 1.272 . S
O212 Tb176 2.344 . S
O212 C230 1.272 . S
O213 Tb191 2.344 1_556 S
O213 C231 1.272 . S
O214 Tb191 2.344 . S
O214 C229 1.272 . S
O215 Tb176 2.344 1_556 S
O215 C228 1.272 . S
O216 Tb187 2.344 . S
O216 C227 1.272 . S
O217 Tb178 2.344 . S
O217 C226 1.272 . S
O218 Tb178 2.344 . S
O218 C224 1.272 . S
O219 Tb187 2.344 . S
O219 C225 1.272 . S
C220 O196 1.272 . S
C220 O208 1.272 . S
C221 O197 1.272 . S
C221 O209 1.272 . S
C222 O198 1.272 . S
C222 O211 1.272 . S
C223 O199 1.272 . S
C223 O210 1.272 . S
C224 O200 1.272 . S
C224 O218 1.272 . S
C225 O201 1.272 . S
C225 O219 1.272 . S
C226 O202 1.272 . S
C226 O217 1.272 . S
C227 O203 1.272 . S
C227 O216 1.272 . S
C228 O204 1.272 . S
C228 O215 1.272 . S
C229 O205 1.272 . S
C229 O214 1.272 . S
C230 O206 1.272 . S
C230 O212 1.272 . S
C231 O207 1.272 . S
C231 O213 1.272 . S
H232 C250 0.951 . S
H233 C252 0.951 . S
H234 C254 0.950 . S
H235 C255 0.950 . S
H236 C257 0.950 . S
H237 C260 0.950 . S
H238 C261 0.950 . S
H239 C263 0.950 . S
H240 C264 0.950 . S
H241 C265 0.951 . S
H242 C267 0.951 . S
H243 C269 0.950 . S
H244 C270 0.950 . S
H245 C272 0.950 . S
H246 C275 0.950 . S
H247 C276 0.950 . S
H248 C278 0.950 . S
H249 C279 0.950 . S
C250 H232 0.951 . S
C250 C251 1.365 1_655 S
C250 C252 1.388 . S
C251 C250 1.365 1_455 S
C251 C255 1.386 . S
C252 H233 0.951 . S
C252 C250 1.388 . S
C252 C253 1.366 . S
C253 C252 1.366 . S
C253 C254 1.414 1_655 S
C253 C256 1.499 . S
C254 H234 0.950 . S
C254 C253 1.414 1_455 S
C254 C255 1.374 . S
C255 H235 0.950 . S
C255 C251 1.386 . S
C255 C254 1.374 . S
C256 C253 1.499 . S
C256 C257 1.349 1_655 S
C256 C258 1.413 . S
C257 H236 0.950 . S
C257 C256 1.349 1_455 S
C257 C273 1.377 . S
C258 C256 1.413 . S
C258 C259 1.524 . S
C258 C272 1.377 . S
C259 C258 1.524 . S
C259 C260 1.397 . S
C259 C264 1.363 . S
C260 H237 0.950 . S
C260 C259 1.397 . S
C260 C261 1.334 . S
C261 H238 0.950 . S
C261 C260 1.334 . S
C261 C262 1.287 . S
C262 C261 1.287 . S
C262 C263 1.524 . S
C262 H281 0.913 . S
C263 H239 0.950 . S
C263 C262 1.524 . S
C263 C264 1.415 . S
C264 H240 0.950 . S
C264 C259 1.363 . S
C264 C263 1.415 . S
C265 H241 0.951 . S
C265 C266 1.365 . S
C265 C267 1.388 . S
C266 C265 1.365 . S
C266 C270 1.386 1_455 S
C267 H242 0.951 . S
C267 C265 1.388 . S
C267 C268 1.366 . S
C268 C267 1.366 . S
C268 C269 1.414 1_455 S
C268 C271 1.499 . S
C269 H243 0.950 . S
C269 C268 1.414 1_655 S
C269 C270 1.374 . S
C270 H244 0.950 . S
C270 C266 1.386 1_655 S
C270 C269 1.374 . S
C271 C268 1.499 . S
C271 C272 1.373 1_455 S
C271 C273 1.389 . S
C272 H245 0.950 . S
C272 C258 1.377 . S
C272 C271 1.373 1_655 S
C273 C257 1.377 . S
C273 C271 1.389 . S
C273 C274 1.524 . S
C274 C273 1.524 . S
C274 C275 1.397 . S
C274 C279 1.363 . S
C275 H246 0.950 . S
C275 C274 1.397 . S
C275 C276 1.334 . S
C276 H247 0.950 . S
C276 C275 1.334 . S
C276 C277 1.287 . S
C277 C276 1.287 . S
C277 C278 1.524 . S
C277 H280 0.999 . S
C278 H248 0.950 . S
C278 C277 1.524 . S
C278 C279 1.415 . S
C279 H249 0.950 . S
C279 C274 1.363 . S
C279 C278 1.415 . S
H280 C277 0.999 . S
H281 C262 0.913 . S
H282 C300 0.951 . S
H283 C302 0.951 . S
H284 C304 0.950 . S
H285 C305 0.950 . S
H286 C307 0.950 . S
H287 C310 0.950 . S
H288 C311 0.950 . S
H289 C313 0.950 . S
H290 C314 0.950 . S
H291 C315 0.951 . S
H292 C317 0.951 . S
H293 C319 0.950 . S
H294 C320 0.950 . S
H295 C322 0.950 . S
H296 C325 0.950 . S
H297 C326 0.950 . S
H298 C328 0.950 . S
H299 C329 0.950 . S
C300 H282 0.951 . S
C300 C301 1.365 . S
C300 C302 1.388 . S
C301 C300 1.365 . S
C301 C305 1.386 1_545 S
C302 H283 0.951 . S
C302 C300 1.388 . S
C302 C303 1.366 . S
C303 C302 1.366 . S
C303 C304 1.414 1_545 S
C303 C306 1.499 . S
C304 H284 0.950 . S
C304 C303 1.414 1_565 S
C304 C305 1.374 . S
C305 H285 0.950 . S
C305 C301 1.386 1_565 S
C305 C304 1.374 . S
C306 C303 1.499 . S
C306 C307 1.370 1_545 S
C306 C308 1.392 . S
C307 H286 0.950 . S
C307 C306 1.370 1_565 S
C307 C323 1.377 . S
C308 C306 1.392 . S
C308 C309 1.524 . S
C308 C322 1.377 . S
C309 C308 1.524 . S
C309 C310 1.397 . S
C309 C314 1.363 . S
C310 H287 0.950 . S
C310 C309 1.397 . S
C310 C311 1.334 . S
C311 H288 0.950 . S
C311 C310 1.334 . S
C311 C312 1.287 . S
C312 C311 1.287 . S
C312 C313 1.524 . S
C312 H331 0.913 . S
C313 H289 0.950 . S
C313 C312 1.524 . S
C313 C314 1.415 . S
C314 H290 0.950 . S
C314 C309 1.363 . S
C314 C313 1.415 . S
C315 H291 0.951 . S
C315 C316 1.365 1_565 S
C315 C317 1.388 . S
C316 C315 1.365 1_545 S
C316 C320 1.386 . S
C317 H292 0.951 . S
C317 C315 1.388 . S
C317 C318 1.386 . S
C318 C317 1.386 . S
C318 C319 1.393 1_565 S
C318 C321 1.498 . S
C319 H293 0.950 . S
C319 C318 1.393 1_545 S
C319 C320 1.374 . S
C320 H294 0.950 . S
C320 C316 1.386 . S
C320 C319 1.374 . S
C321 C318 1.498 . S
C321 C322 1.376 1_565 S
C321 C323 1.387 . S
C322 H295 0.950 . S
C322 C308 1.377 . S
C322 C321 1.376 1_545 S
C323 C307 1.377 . S
C323 C321 1.387 . S
C323 C324 1.524 . S
C324 C323 1.524 . S
C324 C325 1.397 . S
C324 C329 1.363 . S
C325 H296 0.950 . S
C325 C324 1.397 . S
C325 C326 1.334 . S
C326 H297 0.950 . S
C326 C325 1.334 . S
C326 C327 1.287 . S
C327 C326 1.287 . S
C327 C328 1.524 . S
C327 H330 0.999 . S
C328 H298 0.950 . S
C328 C327 1.524 . S
C328 C329 1.415 . S
C329 H299 0.950 . S
C329 C324 1.363 . S
C329 C328 1.415 . S
H330 C327 0.999 . S
H331 C312 0.913 . S
H332 C350 0.951 . S
H333 C352 0.951 . S
H334 C354 0.950 . S
H335 C355 0.950 . S
H336 C357 0.950 . S
H337 C360 0.950 . S
H338 C361 0.950 . S
H339 C363 0.950 . S
H340 C364 0.950 . S
H341 C365 0.951 . S
H342 C367 0.951 . S
H343 C369 0.950 . S
H344 C370 0.950 . S
H345 C372 0.950 . S
H346 C375 0.950 . S
H347 C376 0.950 . S
H348 C378 0.950 . S
H349 C379 0.950 . S
C350 H332 0.951 . S
C350 C351 1.366 . S
C350 C352 1.388 . S
C351 C350 1.366 . S
C351 C355 1.384 1_455 S
C352 H333 0.951 . S
C352 C350 1.388 . S
C352 C353 1.366 1_455 S
C353 C352 1.366 1_655 S
C353 C354 1.414 . S
C353 C356 1.499 . S
C354 H334 0.950 . S
C354 C353 1.414 . S
C354 C355 1.374 . S
C355 H335 0.950 . S
C355 C351 1.384 1_655 S
C355 C354 1.374 . S
C356 C353 1.499 . S
C356 C357 1.373 1_655 S
C356 C358 1.389 . S
C357 H336 0.950 . S
C357 C356 1.373 1_455 S
C357 C373 1.377 . S
C358 C356 1.389 . S
C358 C359 1.524 . S
C358 C372 1.377 . S
C359 C358 1.524 . S
C359 C360 1.397 . S
C359 C364 1.363 . S
C360 H337 0.950 . S
C360 C359 1.397 . S
C360 C361 1.334 . S
C361 H338 0.950 . S
C361 C360 1.334 . S
C361 C362 1.287 . S
C362 C361 1.287 . S
C362 C363 1.524 . S
C362 H381 0.913 . S
C363 H339 0.950 . S
C363 C362 1.524 . S
C363 C364 1.415 . S
C364 H340 0.950 . S
C364 C359 1.363 . S
C364 C363 1.415 . S
C365 H341 0.951 . S
C365 C366 1.366 1_655 S
C365 C367 1.388 . S
C366 C365 1.366 1_455 S
C366 C370 1.384 . S
C367 H342 0.951 . S
C367 C365 1.388 . S
C367 C368 1.366 1_655 S
C368 C367 1.366 1_455 S
C368 C369 1.414 . S
C368 C371 1.499 . S
C369 H343 0.950 . S
C369 C368 1.414 . S
C369 C370 1.374 . S
C370 H344 0.950 . S
C370 C366 1.384 . S
C370 C369 1.374 . S
C371 C368 1.499 . S
C371 C372 1.373 1_455 S
C371 C373 1.389 . S
C372 H345 0.950 . S
C372 C358 1.377 . S
C372 C371 1.373 1_655 S
C373 C357 1.377 . S
C373 C371 1.389 . S
C373 C374 1.524 . S
C374 C373 1.524 . S
C374 C375 1.397 . S
C374 C379 1.363 . S
C375 H346 0.950 . S
C375 C374 1.397 . S
C375 C376 1.334 . S
C376 H347 0.950 . S
C376 C375 1.334 . S
C376 C377 1.287 . S
C377 C376 1.287 . S
C377 C378 1.524 . S
C377 H380 0.999 . S
C378 H348 0.950 . S
C378 C377 1.524 . S
C378 C379 1.415 . S
C379 H349 0.950 . S
C379 C374 1.363 . S
C379 C378 1.415 . S
H380 C377 0.999 . S
H381 C362 0.913 . S
H382 C400 0.951 . S
H383 C402 0.951 . S
H384 C404 0.950 . S
H385 C405 0.950 . S
H386 C407 0.950 . S
H387 C410 0.950 . S
H388 C411 0.950 . S
H389 C413 0.950 . S
H390 C414 0.950 . S
H391 C415 0.951 . S
H392 C417 0.951 . S
H393 C419 0.950 . S
H394 C420 0.950 . S
H395 C422 0.950 . S
H396 C425 0.950 . S
H397 C426 0.950 . S
H398 C428 0.950 . S
H399 C429 0.950 . S
C400 H382 0.951 . S
C400 C401 1.366 1_565 S
C400 C402 1.388 . S
C401 C400 1.366 1_545 S
C401 C405 1.384 . S
C402 H383 0.951 . S
C402 C400 1.388 . S
C402 C403 1.366 1_565 S
C403 C402 1.366 1_545 S
C403 C404 1.414 . S
C403 C406 1.499 . S
C404 H384 0.950 . S
C404 C403 1.414 . S
C404 C405 1.374 . S
C405 H385 0.950 . S
C405 C401 1.384 . S
C405 C404 1.374 . S
C406 C403 1.499 . S
C406 C407 1.373 . S
C406 C408 1.389 1_545 S
C407 H386 0.950 . S
C407 C406 1.373 . S
C407 C423 1.377 . S
C408 C406 1.389 1_565 S
C408 C409 1.524 . S
C408 C422 1.377 . S
C409 C408 1.524 . S
C409 C410 1.397 1_565 S
C409 C414 1.363 . S
C410 H387 0.950 . S
C410 C409 1.397 1_545 S
C410 C411 1.334 . S
C411 H388 0.950 . S
C411 C410 1.334 . S
C411 C412 1.287 1_545 S
C412 C411 1.287 1_565 S
C412 C413 1.524 . S
C412 H431 0.913 . S
C413 H389 0.950 . S
C413 C412 1.524 . S
C413 C414 1.415 . S
C414 H390 0.950 . S
C414 C409 1.363 . S
C414 C413 1.415 . S
C415 H391 0.951 . S
C415 C416 1.366 . S
C415 C417 1.388 . S
C416 C415 1.366 . S
C416 C420 1.384 1_545 S
C417 H392 0.951 . S
C417 C415 1.388 . S
C417 C418 1.345 1_545 S
C418 C417 1.345 1_565 S
C418 C419 1.434 . S
C418 C421 1.500 . S
C419 H393 0.950 . S
C419 C418 1.434 . S
C419 C420 1.374 . S
C420 H394 0.950 . S
C420 C416 1.384 1_565 S
C420 C419 1.374 . S
C421 C418 1.500 . S
C421 C422 1.373 . S
C421 C423 1.389 1_565 S
C422 H395 0.950 . S
C422 C408 1.377 . S
C422 C421 1.373 . S
C423 C407 1.377 . S
C423 C421 1.389 1_545 S
C423 C424 1.524 . S
C424 C423 1.524 . S
C424 C425 1.397 1_545 S
C424 C429 1.363 . S
C425 H396 0.950 . S
C425 C424 1.397 1_565 S
C425 C426 1.334 . S
C426 H397 0.950 . S
C426 C425 1.334 . S
C426 C427 1.287 1_565 S
C427 C426 1.287 1_545 S
C427 C428 1.524 . S
C427 H430 0.999 . S
C428 H398 0.950 . S
C428 C427 1.524 . S
C428 C429 1.415 . S
C429 H399 0.950 . S
C429 C424 1.363 . S
C429 C428 1.415 . S
H430 C427 0.999 . S
H431 C412 0.913 . S
H432 C450 0.951 . S
H433 C452 0.951 . S
H434 C454 0.950 . S
H435 C455 0.950 . S
H436 C457 0.950 . S
H437 C460 0.950 . S
H438 C461 0.950 . S
H439 C463 0.950 . S
H440 C464 0.950 . S
H441 C465 0.951 . S
H442 C467 0.951 . S
H443 C469 0.950 . S
H444 C470 0.950 . S
H445 C472 0.950 . S
H446 C475 0.950 . S
H447 C476 0.950 . S
H448 C478 0.950 . S
H449 C479 0.950 . S
C450 H432 0.951 . S
C450 C451 1.365 1_655 S
C450 C452 1.388 . S
C451 C450 1.365 1_455 S
C451 C455 1.385 . S
C452 H433 0.951 . S
C452 C450 1.388 . S
C452 C453 1.364 . S
C453 C452 1.364 . S
C453 C454 1.416 1_655 S
C453 C456 1.499 1_655 S
C454 H434 0.950 . S
C454 C453 1.416 1_455 S
C454 C455 1.374 . S
C455 H435 0.950 . S
C455 C451 1.385 . S
C455 C454 1.374 . S
C456 C453 1.499 1_455 S
C456 C457 1.373 . S
C456 C458 1.389 1_455 S
C457 H436 0.950 . S
C457 C456 1.373 . S
C457 C473 1.377 . S
C458 C456 1.389 1_655 S
C458 C459 1.524 . S
C458 C472 1.377 . S
C459 C458 1.524 . S
C459 C460 1.397 . S
C459 C464 1.363 . S
C460 H437 0.950 . S
C460 C459 1.397 . S
C460 C461 1.334 . S
C461 H438 0.950 . S
C461 C460 1.334 . S
C461 C462 1.287 . S
C462 C461 1.287 . S
C462 C463 1.524 . S
C462 H481 0.913 . S
C463 H439 0.950 . S
C463 C462 1.524 . S
C463 C464 1.415 . S
C464 H440 0.950 . S
C464 C459 1.363 . S
C464 C463 1.415 . S
C465 H441 0.951 . S
C465 C466 1.365 . S
C465 C467 1.388 . S
C466 C465 1.365 . S
C466 C470 1.385 1_455 S
C467 H442 0.951 . S
C467 C465 1.388 . S
C467 C468 1.369 . S
C468 C467 1.369 . S
C468 C469 1.410 1_455 S
C468 C471 1.498 1_455 S
C469 H443 0.950 . S
C469 C468 1.410 1_655 S
C469 C470 1.374 . S
C470 H444 0.950 . S
C470 C466 1.385 1_655 S
C470 C469 1.374 . S
C471 C468 1.498 1_655 S
C471 C472 1.391 . S
C471 C473 1.371 1_655 S
C472 H445 0.950 . S
C472 C458 1.377 . S
C472 C471 1.391 . S
C473 C457 1.377 . S
C473 C471 1.371 1_455 S
C473 C474 1.524 . S
C474 C473 1.524 . S
C474 C475 1.397 . S
C474 C479 1.363 . S
C475 H446 0.950 . S
C475 C474 1.397 . S
C475 C476 1.334 . S
C476 H447 0.950 . S
C476 C475 1.334 . S
C476 C477 1.287 . S
C477 C476 1.287 . S
C477 C478 1.524 . S
C477 H480 0.999 . S
C478 H448 0.950 . S
C478 C477 1.524 . S
C478 C479 1.415 . S
C479 H449 0.950 . S
C479 C474 1.363 . S
C479 C478 1.415 . S
H480 C477 0.999 . S
H481 C462 0.913 . S
H482 C500 0.951 . S
H483 C502 0.951 . S
H484 C504 0.950 . S
H485 C505 0.950 . S
H486 C507 0.950 . S
H487 C510 0.950 . S
H488 C511 0.950 . S
H489 C513 0.950 . S
H490 C514 0.950 . S
H491 C515 0.951 . S
H492 C517 0.951 . S
H493 C519 0.950 . S
H494 C520 0.950 . S
H495 C522 0.950 . S
H496 C525 0.950 . S
H497 C526 0.950 . S
H498 C528 0.950 . S
H499 C529 0.950 . S
C500 H482 0.951 . S
C500 C501 1.365 1_565 S
C500 C502 1.388 . S
C501 C500 1.365 1_545 S
C501 C505 1.385 . S
C502 H483 0.951 . S
C502 C500 1.388 . S
C502 C503 1.365 1_565 S
C503 C502 1.365 1_545 S
C503 C504 1.414 . S
C503 C506 1.499 . S
C504 H484 0.950 . S
C504 C503 1.414 . S
C504 C505 1.374 . S
C505 H485 0.950 . S
C505 C501 1.385 . S
C505 C504 1.374 . S
C506 C503 1.499 . S
C506 C507 1.373 . S
C506 C508 1.389 1_545 S
C507 H486 0.950 . S
C507 C506 1.373 . S
C507 C523 1.377 . S
C508 C506 1.389 1_565 S
C508 C509 1.524 . S
C508 C522 1.377 . S
C509 C508 1.524 . S
C509 C510 1.397 . S
C509 C514 1.363 . S
C510 H487 0.950 . S
C510 C509 1.397 . S
C510 C511 1.334 . S
C511 H488 0.950 . S
C511 C510 1.334 . S
C511 C512 1.287 . S
C512 C511 1.287 . S
C512 C513 1.524 . S
C512 H531 0.913 . S
C513 H489 0.950 . S
C513 C512 1.524 . S
C513 C514 1.415 . S
C514 H490 0.950 . S
C514 C509 1.363 . S
C514 C513 1.415 . S
C515 H491 0.951 . S
C515 C516 1.365 . S
C515 C517 1.388 . S
C516 C515 1.365 . S
C516 C520 1.385 1_545 S
C517 H492 0.951 . S
C517 C515 1.388 . S
C517 C518 1.365 . S
C518 C517 1.365 . S
C518 C519 1.414 1_545 S
C518 C521 1.499 1_545 S
C519 H493 0.950 . S
C519 C518 1.414 1_565 S
C519 C520 1.374 . S
C520 H494 0.950 . S
C520 C516 1.385 1_565 S
C520 C519 1.374 . S
C521 C518 1.499 1_565 S
C521 C522 1.373 . S
C521 C523 1.389 1_565 S
C522 H495 0.950 . S
C522 C508 1.377 . S
C522 C521 1.373 . S
C523 C507 1.377 . S
C523 C521 1.389 1_545 S
C523 C524 1.524 . S
C524 C523 1.524 . S
C524 C525 1.397 . S
C524 C529 1.363 . S
C525 H496 0.950 . S
C525 C524 1.397 . S
C525 C526 1.334 . S
C526 H497 0.950 . S
C526 C525 1.334 . S
C526 C527 1.287 . S
C527 C526 1.287 . S
C527 C528 1.524 . S
C527 H530 0.999 . S
C528 H498 0.950 . S
C528 C527 1.524 . S
C528 C529 1.415 . S
C529 H499 0.950 . S
C529 C524 1.363 . S
C529 C528 1.415 . S
H530 C527 0.999 . S
H531 C512 0.913 . S
H532 C550 0.951 . S
H533 C552 0.951 . S
H534 C554 0.950 . S
H535 C555 0.950 . S
H536 C557 0.950 . S
H537 C560 0.950 . S
H538 C561 0.950 . S
H539 C563 0.950 . S
H540 C564 0.950 . S
H541 C565 0.951 . S
H542 C567 0.951 . S
H543 C569 0.950 . S
H544 C570 0.950 . S
H545 C572 0.950 . S
H546 C575 0.950 . S
H547 C576 0.950 . S
H548 C578 0.950 . S
H549 C579 0.950 . S
C550 H532 0.951 . S
C550 C551 1.365 1_655 S
C550 C552 1.388 . S
C551 C550 1.365 1_455 S
C551 C555 1.385 . S
C552 H533 0.951 . S
C552 C550 1.388 . S
C552 C553 1.366 . S
C553 C552 1.366 . S
C553 C554 1.414 1_655 S
C553 C556 1.499 . S
C554 H534 0.950 . S
C554 C553 1.414 1_455 S
C554 C555 1.374 . S
C555 H535 0.950 . S
C555 C551 1.385 . S
C555 C554 1.374 . S
C556 C553 1.499 . S
C556 C557 1.373 1_655 S
C556 C558 1.389 . S
C557 H536 0.950 . S
C557 C556 1.373 1_455 S
C557 C573 1.377 . S
C558 C556 1.389 . S
C558 C559 1.524 . S
C558 C572 1.377 . S
C559 C558 1.524 . S
C559 C560 1.397 . S
C559 C564 1.363 . S
C560 H537 0.950 . S
C560 C559 1.397 . S
C560 C561 1.334 . S
C561 H538 0.950 . S
C561 C560 1.334 . S
C561 C562 1.287 . S
C562 C561 1.287 . S
C562 C563 1.524 . S
C562 H581 0.913 . S
C563 H539 0.950 . S
C563 C562 1.524 . S
C563 C564 1.415 . S
C564 H540 0.950 . S
C564 C559 1.363 . S
C564 C563 1.415 . S
C565 H541 0.951 . S
C565 C566 1.365 . S
C565 C567 1.388 . S
C566 C565 1.365 . S
C566 C570 1.385 1_455 S
C567 H542 0.951 . S
C567 C565 1.388 . S
C567 C568 1.366 . S
C568 C567 1.366 . S
C568 C569 1.414 1_455 S
C568 C571 1.499 . S
C569 H543 0.950 . S
C569 C568 1.414 1_655 S
C569 C570 1.374 . S
C570 H544 0.950 . S
C570 C566 1.385 1_655 S
C570 C569 1.374 . S
C571 C568 1.499 . S
C571 C572 1.373 1_455 S
C571 C573 1.389 . S
C572 H545 0.950 . S
C572 C558 1.377 . S
C572 C571 1.373 1_655 S
C573 C557 1.377 . S
C573 C571 1.389 . S
C573 C574 1.524 . S
C574 C573 1.524 . S
C574 C575 1.397 . S
C574 C579 1.363 . S
C575 H546 0.950 . S
C575 C574 1.397 . S
C575 C576 1.334 . S
C576 H547 0.950 . S
C576 C575 1.334 . S
C576 C577 1.287 . S
C577 C576 1.287 . S
C577 C578 1.524 . S
C577 H580 0.999 . S
C578 H548 0.950 . S
C578 C577 1.524 . S
C578 C579 1.415 . S
C579 H549 0.950 . S
C579 C574 1.363 . S
C579 C578 1.415 . S
H580 C577 0.999 . S
H581 C562 0.913 . S
H582 C600 0.951 . S
H583 C602 0.951 . S
H584 C604 0.950 . S
H585 C605 0.950 . S
H586 C607 0.950 . S
H587 C610 0.950 . S
H588 C611 0.950 . S
H589 C613 0.950 . S
H590 C614 0.950 . S
H591 C615 0.951 . S
H592 C617 0.951 . S
H593 C619 0.950 . S
H594 C620 0.950 . S
H595 C622 0.950 . S
H596 C625 0.950 . S
H597 C626 0.950 . S
H598 C628 0.950 . S
H599 C629 0.950 . S
C600 H582 0.951 . S
C600 C601 1.365 . S
C600 C602 1.388 . S
C601 C600 1.365 . S
C601 C605 1.386 1_545 S
C602 H583 0.951 . S
C602 C600 1.388 . S
C602 C603 1.366 . S
C603 C602 1.366 . S
C603 C604 1.414 1_545 S
C603 C606 1.499 . S
C604 H584 0.950 . S
C604 C603 1.414 1_565 S
C604 C605 1.374 . S
C605 H585 0.950 . S
C605 C601 1.386 1_565 S
C605 C604 1.374 . S
C606 C603 1.499 . S
C606 C607 1.358 1_545 S
C606 C608 1.405 . S
C607 H586 0.950 . S
C607 C606 1.358 1_565 S
C607 C623 1.377 . S
C608 C606 1.405 . S
C608 C609 1.524 . S
C608 C622 1.377 . S
C609 C608 1.524 . S
C609 C610 1.397 . S
C609 C614 1.363 . S
C610 H587 0.950 . S
C610 C609 1.397 . S
C610 C611 1.334 . S
C611 H588 0.950 . S
C611 C610 1.334 . S
C611 C612 1.287 . S
C612 C611 1.287 . S
C612 C613 1.524 . S
C612 H631 0.913 . S
C613 H589 0.950 . S
C613 C612 1.524 . S
C613 C614 1.415 . S
C614 H590 0.950 . S
C614 C609 1.363 . S
C614 C613 1.415 . S
C615 H591 0.951 . S
C615 C616 1.365 1_565 S
C615 C617 1.388 . S
C616 C615 1.365 1_545 S
C616 C620 1.386 . S
C617 H592 0.951 . S
C617 C615 1.388 . S
C617 C618 1.366 . S
C618 C617 1.366 . S
C618 C619 1.414 1_565 S
C618 C621 1.499 . S
C619 H593 0.950 . S
C619 C618 1.414 1_545 S
C619 C620 1.374 . S
C620 H594 0.950 . S
C620 C616 1.386 . S
C620 C619 1.374 . S
C621 C618 1.499 . S
C621 C622 1.363 1_565 S
C621 C623 1.399 . S
C622 H595 0.950 . S
C622 C608 1.377 . S
C622 C621 1.363 1_545 S
C623 C607 1.377 . S
C623 C621 1.399 . S
C623 C624 1.524 . S
C624 C623 1.524 . S
C624 C625 1.397 . S
C624 C629 1.363 . S
C625 H596 0.950 . S
C625 C624 1.397 . S
C625 C626 1.334 . S
C626 H597 0.950 . S
C626 C625 1.334 . S
C626 C627 1.287 . S
C627 C626 1.287 . S
C627 C628 1.524 . S
C627 H630 0.999 . S
C628 H598 0.950 . S
C628 C627 1.524 . S
C628 C629 1.415 . S
C629 H599 0.950 . S
C629 C624 1.363 . S
C629 C628 1.415 . S
H630 C627 0.999 . S
H631 C612 0.913 . S
H632 C650 0.951 . S
H633 C652 0.951 . S
H634 C654 0.950 . S
H635 C655 0.950 . S
H636 C657 0.950 . S
H637 C660 0.950 . S
H638 C661 0.950 . S
H639 C663 0.950 . S
H640 C664 0.950 . S
H641 C665 0.951 . S
H642 C667 0.951 . S
H643 C669 0.950 . S
H644 C670 0.950 . S
H645 C672 0.950 . S
H646 C675 0.950 . S
H647 C676 0.950 . S
H648 C678 0.950 . S
H649 C679 0.950 . S
C650 H632 0.951 . S
C650 C651 1.365 1_556 S
C650 C652 1.388 . S
C651 C650 1.365 1_554 S
C651 C655 1.385 . S
C652 H633 0.951 . S
C652 C650 1.388 . S
C652 C653 1.366 . S
C653 C652 1.366 . S
C653 C654 1.414 1_556 S
C653 C656 1.499 . S
C654 H634 0.950 . S
C654 C653 1.414 1_554 S
C654 C655 1.374 . S
C655 H635 0.950 . S
C655 C651 1.385 . S
C655 C654 1.374 . S
C656 C653 1.499 . S
C656 C657 1.373 1_556 S
C656 C658 1.389 . S
C657 H636 0.950 . S
C657 C656 1.373 1_554 S
C657 C673 1.377 . S
C658 C656 1.389 . S
C658 C659 1.524 . S
C658 C672 1.377 . S
C659 C658 1.524 . S
C659 C660 1.397 . S
C659 C664 1.363 . S
C660 H637 0.950 . S
C660 C659 1.397 . S
C660 C661 1.334 . S
C661 H638 0.950 . S
C661 C660 1.334 . S
C661 C662 1.287 . S
C662 C661 1.287 . S
C662 C663 1.524 . S
C662 H681 0.913 . S
C663 H639 0.950 . S
C663 C662 1.524 . S
C663 C664 1.415 . S
C664 H640 0.950 . S
C664 C659 1.363 . S
C664 C663 1.415 . S
C665 H641 0.951 . S
C665 C666 1.365 . S
C665 C667 1.388 . S
C666 C665 1.365 . S
C666 C670 1.385 1_554 S
C667 H642 0.951 . S
C667 C665 1.388 . S
C667 C668 1.366 . S
C668 C667 1.366 . S
C668 C669 1.414 1_554 S
C668 C671 1.499 . S
C669 H643 0.950 . S
C669 C668 1.414 1_556 S
C669 C670 1.374 . S
C670 H644 0.950 . S
C670 C666 1.385 1_556 S
C670 C669 1.374 . S
C671 C668 1.499 . S
C671 C672 1.373 1_554 S
C671 C673 1.389 . S
C672 H645 0.950 . S
C672 C658 1.377 . S
C672 C671 1.373 1_556 S
C673 C657 1.377 . S
C673 C671 1.389 . S
C673 C674 1.524 . S
C674 C673 1.524 . S
C674 C675 1.397 . S
C674 C679 1.363 . S
C675 H646 0.950 . S
C675 C674 1.397 . S
C675 C676 1.334 . S
C676 H647 0.950 . S
C676 C675 1.334 . S
C676 C677 1.287 . S
C677 C676 1.287 . S
C677 C678 1.524 . S
C677 H680 0.999 . S
C678 H648 0.950 . S
C678 C677 1.524 . S
C678 C679 1.415 . S
C679 H649 0.950 . S
C679 C674 1.363 . S
C679 C678 1.415 . S
H680 C677 0.999 . S
H681 C662 0.913 . S
H682 C700 0.951 . S
H683 C702 0.951 . S
H684 C704 0.950 . S
H685 C705 0.950 . S
H686 C707 0.950 . S
H687 C710 0.950 . S
H688 C711 0.950 . S
H689 C713 0.950 . S
H690 C714 0.950 . S
H691 C715 0.951 . S
H692 C717 0.951 . S
H693 C719 0.950 . S
H694 C720 0.950 . S
H695 C722 0.950 . S
H696 C725 0.950 . S
H697 C726 0.950 . S
H698 C728 0.950 . S
H699 C729 0.950 . S
C700 H682 0.951 . S
C700 C701 1.365 1_556 S
C700 C702 1.388 . S
C701 C700 1.365 1_554 S
C701 C705 1.386 . S
C702 H683 0.951 . S
C702 C700 1.388 . S
C702 C703 1.387 . S
C703 C702 1.387 . S
C703 C704 1.392 1_556 S
C703 C706 1.498 . S
C704 H684 0.950 . S
C704 C703 1.392 1_554 S
C704 C705 1.374 . S
C705 H685 0.950 . S
C705 C701 1.386 . S
C705 C704 1.374 . S
C706 C703 1.498 . S
C706 C707 1.374 1_556 S
C706 C708 1.389 . S
C707 H686 0.950 . S
C707 C706 1.374 1_554 S
C707 C723 1.377 . S
C708 C706 1.389 . S
C708 C709 1.524 . S
C708 C722 1.377 . S
C709 C708 1.524 . S
C709 C710 1.397 . S
C709 C714 1.363 . S
C710 H687 0.950 . S
C710 C709 1.397 . S
C710 C711 1.334 . S
C711 H688 0.950 . S
C711 C710 1.334 . S
C711 C712 1.287 . S
C712 C711 1.287 . S
C712 C713 1.524 . S
C712 H731 0.913 . S
C713 H689 0.950 . S
C713 C712 1.524 . S
C713 C714 1.415 . S
C714 H690 0.950 . S
C714 C709 1.363 . S
C714 C713 1.415 . S
C715 H691 0.951 . S
C715 C716 1.365 . S
C715 C717 1.388 . S
C716 C715 1.365 . S
C716 C720 1.386 1_554 S
C717 H692 0.951 . S
C717 C715 1.388 . S
C717 C718 1.366 . S
C718 C717 1.366 . S
C718 C719 1.414 1_554 S
C718 C721 1.499 . S
C719 H693 0.950 . S
C719 C718 1.414 1_556 S
C719 C720 1.374 . S
C720 H694 0.950 . S
C720 C716 1.386 1_556 S
C720 C719 1.374 . S
C721 C718 1.499 . S
C721 C722 1.368 1_554 S
C721 C723 1.394 . S
C722 H695 0.950 . S
C722 C708 1.377 . S
C722 C721 1.368 1_556 S
C723 C707 1.377 . S
C723 C721 1.394 . S
C723 C724 1.524 . S
C724 C723 1.524 . S
C724 C725 1.397 . S
C724 C729 1.363 . S
C725 H696 0.950 . S
C725 C724 1.397 . S
C725 C726 1.334 . S
C726 H697 0.950 . S
C726 C725 1.334 . S
C726 C727 1.287 . S
C727 C726 1.287 . S
C727 C728 1.524 . S
C727 H730 0.999 . S
C728 H698 0.950 . S
C728 C727 1.524 . S
C728 C729 1.415 . S
C729 H699 0.950 . S
C729 C724 1.363 . S
C729 C728 1.415 . S
H730 C727 0.999 . S
H731 C712 0.913 . S
H732 C750 0.951 . S
H733 C752 0.951 . S
H734 C754 0.950 . S
H735 C755 0.950 . S
H736 C757 0.950 . S
H737 C760 0.950 . S
H738 C761 0.950 . S
H739 C763 0.950 . S
H740 C764 0.950 . S
H741 C765 0.951 . S
H742 C767 0.951 . S
H743 C769 0.950 . S
H744 C770 0.950 . S
H745 C772 0.950 . S
H746 C775 0.950 . S
H747 C776 0.950 . S
H748 C778 0.950 . S
H749 C779 0.950 . S
C750 H732 0.951 . S
C750 C751 1.365 1_556 S
C750 C752 1.388 . S
C751 C750 1.365 1_554 S
C751 C755 1.385 . S
C752 H733 0.951 . S
C752 C750 1.388 . S
C752 C753 1.366 . S
C753 C752 1.366 . S
C753 C754 1.414 1_556 S
C753 C756 1.499 . S
C754 H734 0.950 . S
C754 C753 1.414 1_554 S
C754 C755 1.374 . S
C755 H735 0.950 . S
C755 C751 1.385 . S
C755 C754 1.374 . S
C756 C753 1.499 . S
C756 C757 1.373 1_556 S
C756 C758 1.389 . S
C757 H736 0.950 . S
C757 C756 1.373 1_554 S
C757 C773 1.377 . S
C758 C756 1.389 . S
C758 C759 1.524 . S
C758 C772 1.377 . S
C759 C758 1.524 . S
C759 C760 1.397 . S
C759 C764 1.363 . S
C760 H737 0.950 . S
C760 C759 1.397 . S
C760 C761 1.334 . S
C761 H738 0.950 . S
C761 C760 1.334 . S
C761 C762 1.287 . S
C762 C761 1.287 . S
C762 C763 1.524 . S
C762 H781 0.913 . S
C763 H739 0.950 . S
C763 C762 1.524 . S
C763 C764 1.415 . S
C764 H740 0.950 . S
C764 C759 1.363 . S
C764 C763 1.415 . S
C765 H741 0.951 . S
C765 C766 1.365 . S
C765 C767 1.388 . S
C766 C765 1.365 . S
C766 C770 1.385 1_554 S
C767 H742 0.951 . S
C767 C765 1.388 . S
C767 C768 1.366 . S
C768 C767 1.366 . S
C768 C769 1.414 1_554 S
C768 C771 1.499 . S
C769 H743 0.950 . S
C769 C768 1.414 1_556 S
C769 C770 1.374 . S
C770 H744 0.950 . S
C770 C766 1.385 1_556 S
C770 C769 1.374 . S
C771 C768 1.499 . S
C771 C772 1.373 1_554 S
C771 C773 1.389 . S
C772 H745 0.950 . S
C772 C758 1.377 . S
C772 C771 1.373 1_556 S
C773 C757 1.377 . S
C773 C771 1.389 . S
C773 C774 1.524 . S
C774 C773 1.524 . S
C774 C775 1.397 . S
C774 C779 1.363 . S
C775 H746 0.950 . S
C775 C774 1.397 . S
C775 C776 1.334 . S
C776 H747 0.950 . S
C776 C775 1.334 . S
C776 C777 1.287 . S
C777 C776 1.287 . S
C777 C778 1.524 . S
C777 H780 0.999 . S
C778 H748 0.950 . S
C778 C777 1.524 . S
C778 C779 1.415 . S
C779 H749 0.950 . S
C779 C774 1.363 . S
C779 C778 1.415 . S
H780 C777 0.999 . S
H781 C762 0.913 . S
H782 C800 0.951 . S
H783 C802 0.951 . S
H784 C804 0.950 . S
H785 C805 0.950 . S
H786 C807 0.950 . S
H787 C810 0.950 . S
H788 C811 0.950 . S
H789 C813 0.950 . S
H790 C814 0.950 . S
H791 C815 0.951 . S
H792 C817 0.951 . S
H793 C819 0.950 . S
H794 C820 0.950 . S
H795 C822 0.950 . S
H796 C825 0.950 . S
H797 C826 0.950 . S
H798 C828 0.950 . S
H799 C829 0.950 . S
C800 H782 0.951 . S
C800 C801 1.365 . S
C800 C802 1.388 . S
C801 C800 1.365 . S
C801 C805 1.386 1_554 S
C802 H783 0.951 . S
C802 C800 1.388 . S
C802 C803 1.366 . S
C803 C802 1.366 . S
C803 C804 1.414 1_554 S
C803 C806 1.499 . S
C804 H784 0.950 . S
C804 C803 1.414 1_556 S
C804 C805 1.374 . S
C805 H785 0.950 . S
C805 C801 1.386 1_556 S
C805 C804 1.374 . S
C806 C803 1.499 . S
C806 C807 1.373 1_554 S
C806 C808 1.389 . S
C807 H786 0.950 . S
C807 C806 1.373 1_556 S
C807 C823 1.377 . S
C808 C806 1.389 . S
C808 C809 1.524 . S
C808 C822 1.377 . S
C809 C808 1.524 . S
C809 C810 1.397 . S
C809 C814 1.363 . S
C810 H787 0.950 . S
C810 C809 1.397 . S
C810 C811 1.334 . S
C811 H788 0.950 . S
C811 C810 1.334 . S
C811 C812 1.287 . S
C812 C811 1.287 . S
C812 C813 1.524 . S
C812 H831 0.913 . S
C813 H789 0.950 . S
C813 C812 1.524 . S
C813 C814 1.415 . S
C814 H790 0.950 . S
C814 C809 1.363 . S
C814 C813 1.415 . S
C815 H791 0.951 . S
C815 C816 1.365 1_556 S
C815 C817 1.388 . S
C816 C815 1.365 1_554 S
C816 C820 1.386 . S
C817 H792 0.951 . S
C817 C815 1.388 . S
C817 C818 1.366 . S
C818 C817 1.366 . S
C818 C819 1.414 1_556 S
C818 C821 1.499 . S
C819 H793 0.950 . S
C819 C818 1.414 1_554 S
C819 C820 1.374 . S
C820 H794 0.950 . S
C820 C816 1.386 . S
C820 C819 1.374 . S
C821 C818 1.499 . S
C821 C822 1.373 1_556 S
C821 C823 1.389 . S
C822 H795 0.950 . S
C822 C808 1.377 . S
C822 C821 1.373 1_554 S
C823 C807 1.377 . S
C823 C821 1.389 . S
C823 C824 1.524 . S
C824 C823 1.524 . S
C824 C825 1.397 . S
C824 C829 1.363 . S
C825 H796 0.950 . S
C825 C824 1.397 . S
C825 C826 1.334 . S
C826 H797 0.950 . S
C826 C825 1.334 . S
C826 C827 1.287 . S
C827 C826 1.287 . S
C827 C828 1.524 . S
C827 H830 0.999 . S
C828 H798 0.950 . S
C828 C827 1.524 . S
C828 C829 1.415 . S
C829 H799 0.950 . S
C829 C824 1.363 . S
C829 C828 1.415 . S
H830 C827 0.999 . S
H831 C812 0.913 . S
H832 C850 0.951 . S
H833 C852 0.951 . S
H834 C854 0.950 . S
H835 C855 0.950 . S
H836 C857 0.950 . S
H837 C860 0.950 . S
H838 C861 0.950 . S
H839 C863 0.950 . S
H840 C864 0.950 . S
H841 C865 0.951 . S
H842 C867 0.951 . S
H843 C869 0.950 . S
H844 C870 0.950 . S
H845 C872 0.950 . S
H846 C875 0.950 . S
H847 C876 0.950 . S
H848 C878 0.950 . S
H849 C879 0.950 . S
C850 H832 0.951 . S
C850 C851 1.366 . S
C850 C852 1.388 . S
C851 C850 1.366 . S
C851 C855 1.385 . S
C852 H833 0.951 . S
C852 C850 1.388 . S
C852 C853 1.366 . S
C853 C852 1.366 . S
C853 C854 1.414 . S
C853 C856 1.499 . S
C854 H834 0.950 . S
C854 C853 1.414 . S
C854 C855 1.374 . S
C855 H835 0.950 . S
C855 C851 1.385 . S
C855 C854 1.374 . S
C856 C853 1.499 . S
C856 C857 1.373 . S
C856 C858 1.389 . S
C857 H836 0.950 . S
C857 C856 1.373 . S
C857 C873 1.377 . S
C858 C856 1.389 . S
C858 C859 1.524 . S
C858 C872 1.377 . S
C859 C858 1.524 . S
C859 C860 1.397 . S
C859 C864 1.363 . S
C860 H837 0.950 . S
C860 C859 1.397 . S
C860 C861 1.334 . S
C861 H838 0.950 . S
C861 C860 1.334 . S
C861 C862 1.287 . S
C862 C861 1.287 . S
C862 C863 1.524 . S
C862 H881 0.913 . S
C863 H839 0.950 . S
C863 C862 1.524 . S
C863 C864 1.415 . S
C864 H840 0.950 . S
C864 C859 1.363 . S
C864 C863 1.415 . S
C865 H841 0.951 . S
C865 C866 1.366 . S
C865 C867 1.388 . S
C866 C865 1.366 . S
C866 C870 1.385 . S
C867 H842 0.951 . S
C867 C865 1.388 . S
C867 C868 1.366 . S
C868 C867 1.366 . S
C868 C869 1.414 . S
C868 C871 1.499 . S
C869 H843 0.950 . S
C869 C868 1.414 . S
C869 C870 1.374 . S
C870 H844 0.950 . S
C870 C866 1.385 . S
C870 C869 1.374 . S
C871 C868 1.499 . S
C871 C872 1.373 . S
C871 C873 1.389 . S
C872 H845 0.950 . S
C872 C858 1.377 . S
C872 C871 1.373 . S
C873 C857 1.377 . S
C873 C871 1.389 . S
C873 C874 1.524 . S
C874 C873 1.524 . S
C874 C875 1.397 . S
C874 C879 1.363 . S
C875 H846 0.950 . S
C875 C874 1.397 . S
C875 C876 1.334 . S
C876 H847 0.950 . S
C876 C875 1.334 . S
C876 C877 1.287 . S
C877 C876 1.287 . S
C877 C878 1.524 . S
C877 H880 0.999 . S
C878 H848 0.950 . S
C878 C877 1.524 . S
C878 C879 1.415 . S
C879 H849 0.950 . S
C879 C874 1.363 . S
C879 C878 1.415 . S
H880 C877 0.999 . S
H881 C862 0.913 . S
H882 C900 0.951 . S
H883 C902 0.951 . S
H884 C904 0.950 . S
H885 C905 0.950 . S
H886 C907 0.950 . S
H887 C910 0.950 . S
H888 C911 0.950 . S
H889 C913 0.950 . S
H890 C914 0.950 . S
H891 C915 0.951 . S
H892 C917 0.951 . S
H893 C919 0.950 . S
H894 C920 0.950 . S
H895 C922 0.950 . S
H896 C925 0.950 . S
H897 C926 0.950 . S
H898 C928 0.950 . S
H899 C929 0.950 . S
C900 H882 0.951 . S
C900 C901 1.366 . S
C900 C902 1.388 . S
C901 C900 1.366 . S
C901 C905 1.385 . S
C902 H883 0.951 . S
C902 C900 1.388 . S
C902 C903 1.366 . S
C903 C902 1.366 . S
C903 C904 1.414 . S
C903 C906 1.499 . S
C904 H884 0.950 . S
C904 C903 1.414 . S
C904 C905 1.374 . S
C905 H885 0.950 . S
C905 C901 1.385 . S
C905 C904 1.374 . S
C906 C903 1.499 . S
C906 C907 1.373 . S
C906 C908 1.389 . S
C907 H886 0.950 . S
C907 C906 1.373 . S
C907 C923 1.377 . S
C908 C906 1.389 . S
C908 C909 1.524 . S
C908 C922 1.377 . S
C909 C908 1.524 . S
C909 C910 1.397 . S
C909 C914 1.363 . S
C910 H887 0.950 . S
C910 C909 1.397 . S
C910 C911 1.334 . S
C911 H888 0.950 . S
C911 C910 1.334 . S
C911 C912 1.287 . S
C912 C911 1.287 . S
C912 C913 1.524 . S
C912 H931 0.913 . S
C913 H889 0.950 . S
C913 C912 1.524 . S
C913 C914 1.415 . S
C914 H890 0.950 . S
C914 C909 1.363 . S
C914 C913 1.415 . S
C915 H891 0.951 . S
C915 C916 1.366 . S
C915 C917 1.388 . S
C916 C915 1.366 . S
C916 C920 1.385 . S
C917 H892 0.951 . S
C917 C915 1.388 . S
C917 C918 1.366 . S
C918 C917 1.366 . S
C918 C919 1.414 . S
C918 C921 1.499 . S
C919 H893 0.950 . S
C919 C918 1.414 . S
C919 C920 1.374 . S
C920 H894 0.950 . S
C920 C916 1.385 . S
C920 C919 1.374 . S
C921 C918 1.499 . S
C921 C922 1.373 . S
C921 C923 1.389 . S
C922 H895 0.950 . S
C922 C908 1.377 . S
C922 C921 1.373 . S
C923 C907 1.377 . S
C923 C921 1.389 . S
C923 C924 1.524 . S
C924 C923 1.524 . S
C924 C925 1.397 . S
C924 C929 1.363 . S
C925 H896 0.950 . S
C925 C924 1.397 . S
C925 C926 1.334 . S
C926 H897 0.950 . S
C926 C925 1.334 . S
C926 C927 1.287 . S
C927 C926 1.287 . S
C927 C928 1.524 . S
C927 H930 0.999 . S
C928 H898 0.950 . S
C928 C927 1.524 . S
C928 C929 1.415 . S
C929 H899 0.950 . S
C929 C924 1.363 . S
C929 C928 1.415 . S
H930 C927 0.999 . S
H931 C912 0.913 . S
H932 C950 0.951 . S
H933 C952 0.951 . S
H934 C954 0.950 . S
H935 C955 0.950 . S
H936 C957 0.950 . S
H937 C960 0.950 . S
H938 C961 0.950 . S
H939 C963 0.950 . S
H940 C964 0.950 . S
H941 C965 0.951 . S
H942 C967 0.951 . S
H943 C969 0.950 . S
H944 C970 0.950 . S
H945 C972 0.950 . S
H946 C975 0.950 . S
H947 C976 0.950 . S
H948 C978 0.950 . S
H949 C979 0.950 . S
C950 H932 0.951 . S
C950 C951 1.366 . S
C950 C952 1.388 . S
C951 C950 1.366 . S
C951 C955 1.385 . S
C952 H933 0.951 . S
C952 C950 1.388 . S
C952 C953 1.366 . S
C953 C952 1.366 . S
C953 C954 1.414 . S
C953 C956 1.499 . S
C954 H934 0.950 . S
C954 C953 1.414 . S
C954 C955 1.374 . S
C955 H935 0.950 . S
C955 C951 1.385 . S
C955 C954 1.374 . S
C956 C953 1.499 . S
C956 C957 1.373 . S
C956 C958 1.389 . S
C957 H936 0.950 . S
C957 C956 1.373 . S
C957 C973 1.377 . S
C958 C956 1.389 . S
C958 C959 1.524 . S
C958 C972 1.377 . S
C959 C958 1.524 . S
C959 C960 1.397 . S
C959 C964 1.363 . S
C960 H937 0.950 . S
C960 C959 1.397 . S
C960 C961 1.334 . S
C961 H938 0.950 . S
C961 C960 1.334 . S
C961 C962 1.287 . S
C962 C961 1.287 . S
C962 C963 1.524 . S
C962 H981 0.913 . S
C963 H939 0.950 . S
C963 C962 1.524 . S
C963 C964 1.415 . S
C964 H940 0.950 . S
C964 C959 1.363 . S
C964 C963 1.415 . S
C965 H941 0.951 . S
C965 C966 1.366 . S
C965 C967 1.388 . S
C966 C965 1.366 . S
C966 C970 1.385 . S
C967 H942 0.951 . S
C967 C965 1.388 . S
C967 C968 1.366 . S
C968 C967 1.366 . S
C968 C969 1.414 . S
C968 C971 1.499 . S
C969 H943 0.950 . S
C969 C968 1.414 . S
C969 C970 1.374 . S
C970 H944 0.950 . S
C970 C966 1.385 . S
C970 C969 1.374 . S
C971 C968 1.499 . S
C971 C972 1.373 . S
C971 C973 1.389 . S
C972 H945 0.950 . S
C972 C958 1.377 . S
C972 C971 1.373 . S
C973 C957 1.377 . S
C973 C971 1.389 . S
C973 C974 1.524 . S
C974 C973 1.524 . S
C974 C975 1.397 . S
C974 C979 1.363 . S
C975 H946 0.950 . S
C975 C974 1.397 . S
C975 C976 1.334 . S
C976 H947 0.950 . S
C976 C975 1.334 . S
C976 C977 1.287 . S
C977 C976 1.287 . S
C977 C978 1.524 . S
C977 H980 0.999 . S
C978 H948 0.950 . S
C978 C977 1.524 . S
C978 C979 1.415 . S
C979 H949 0.950 . S
C979 C974 1.363 . S
C979 C978 1.415 . S
H980 C977 0.999 . S
H981 C962 0.913 . S
H982 C1000 0.951 . S
H983 C1002 0.951 . S
H984 C1004 0.950 . S
H985 C1005 0.950 . S
H986 C1007 0.950 . S
H987 C1010 0.950 . S
H988 C1011 0.950 . S
H989 C1013 0.950 . S
H990 C1014 0.950 . S
H991 C1015 0.951 . S
H992 C1017 0.951 . S
H993 C1019 0.950 . S
H994 C1020 0.950 . S
H995 C1022 0.950 . S
H996 C1025 0.950 . S
H997 C1026 0.950 . S
H998 C1028 0.950 . S
H999 C1029 0.950 . S
C1000 H982 0.951 . S
C1000 C1001 1.366 . S
C1000 C1002 1.388 . S
C1001 C1000 1.366 . S
C1001 C1005 1.385 . S
C1002 H983 0.951 . S
C1002 C1000 1.388 . S
C1002 C1003 1.366 . S
C1003 C1002 1.366 . S
C1003 C1004 1.414 . S
C1003 C1006 1.499 . S
C1004 H984 0.950 . S
C1004 C1003 1.414 . S
C1004 C1005 1.374 . S
C1005 H985 0.950 . S
C1005 C1001 1.385 . S
C1005 C1004 1.374 . S
C1006 C1003 1.499 . S
C1006 C1007 1.373 . S
C1006 C1008 1.389 . S
C1007 H986 0.950 . S
C1007 C1006 1.373 . S
C1007 C1023 1.377 . S
C1008 C1006 1.389 . S
C1008 C1009 1.524 . S
C1008 C1022 1.377 . S
C1009 C1008 1.524 . S
C1009 C1010 1.397 . S
C1009 C1014 1.363 . S
C1010 H987 0.950 . S
C1010 C1009 1.397 . S
C1010 C1011 1.334 . S
C1011 H988 0.950 . S
C1011 C1010 1.334 . S
C1011 C1012 1.287 . S
C1012 C1011 1.287 . S
C1012 C1013 1.524 . S
C1012 H1031 0.913 . S
C1013 H989 0.950 . S
C1013 C1012 1.524 . S
C1013 C1014 1.415 . S
C1014 H990 0.950 . S
C1014 C1009 1.363 . S
C1014 C1013 1.415 . S
C1015 H991 0.951 . S
C1015 C1016 1.366 . S
C1015 C1017 1.388 . S
C1016 C1015 1.366 . S
C1016 C1020 1.385 . S
C1017 H992 0.951 . S
C1017 C1015 1.388 . S
C1017 C1018 1.366 . S
C1018 C1017 1.366 . S
C1018 C1019 1.414 . S
C1018 C1021 1.499 . S
C1019 H993 0.950 . S
C1019 C1018 1.414 . S
C1019 C1020 1.374 . S
C1020 H994 0.950 . S
C1020 C1016 1.385 . S
C1020 C1019 1.374 . S
C1021 C1018 1.499 . S
C1021 C1022 1.373 . S
C1021 C1023 1.389 . S
C1022 H995 0.950 . S
C1022 C1008 1.377 . S
C1022 C1021 1.373 . S
C1023 C1007 1.377 . S
C1023 C1021 1.389 . S
C1023 C1024 1.524 . S
C1024 C1023 1.524 . S
C1024 C1025 1.397 . S
C1024 C1029 1.363 . S
C1025 H996 0.950 . S
C1025 C1024 1.397 . S
C1025 C1026 1.334 . S
C1026 H997 0.950 . S
C1026 C1025 1.334 . S
C1026 C1027 1.287 . S
C1027 C1026 1.287 . S
C1027 C1028 1.524 . S
C1027 H1030 0.999 . S
C1028 H998 0.950 . S
C1028 C1027 1.524 . S
C1028 C1029 1.415 . S
C1029 H999 0.950 . S
C1029 C1024 1.363 . S
C1029 C1028 1.415 . S
H1030 C1027 0.999 . S
H1031 C1012 0.913 . S
H1032 C1050 0.951 . S
H1033 C1052 0.951 . S
H1034 C1054 0.950 . S
H1035 C1055 0.950 . S
H1036 C1057 0.950 . S
H1037 C1060 0.950 . S
H1038 C1061 0.950 . S
H1039 C1063 0.950 . S
H1040 C1064 0.950 . S
H1041 C1065 0.951 . S
H1042 C1067 0.951 . S
H1043 C1069 0.950 . S
H1044 C1070 0.950 . S
H1045 C1072 0.950 . S
H1046 C1075 0.950 . S
H1047 C1076 0.950 . S
H1048 C1078 0.950 . S
H1049 C1079 0.950 . S
C1050 H1032 0.951 . S
C1050 C1051 1.366 . S
C1050 C1052 1.388 . S
C1051 C1050 1.366 . S
C1051 C1055 1.385 . S
C1052 H1033 0.951 . S
C1052 C1050 1.388 . S
C1052 C1053 1.366 . S
C1053 C1052 1.366 . S
C1053 C1054 1.414 . S
C1053 C1056 1.499 . S
C1054 H1034 0.950 . S
C1054 C1053 1.414 . S
C1054 C1055 1.374 . S
C1055 H1035 0.950 . S
C1055 C1051 1.385 . S
C1055 C1054 1.374 . S
C1056 C1053 1.499 . S
C1056 C1057 1.373 . S
C1056 C1058 1.389 . S
C1057 H1036 0.950 . S
C1057 C1056 1.373 . S
C1057 C1073 1.377 . S
C1058 C1056 1.389 . S
C1058 C1059 1.524 . S
C1058 C1072 1.377 . S
C1059 C1058 1.524 . S
C1059 C1060 1.397 . S
C1059 C1064 1.363 . S
C1060 H1037 0.950 . S
C1060 C1059 1.397 . S
C1060 C1061 1.334 . S
C1061 H1038 0.950 . S
C1061 C1060 1.334 . S
C1061 C1062 1.287 . S
C1062 C1061 1.287 . S
C1062 C1063 1.524 . S
C1062 H1081 0.913 . S
C1063 H1039 0.950 . S
C1063 C1062 1.524 . S
C1063 C1064 1.415 . S
C1064 H1040 0.950 . S
C1064 C1059 1.363 . S
C1064 C1063 1.415 . S
C1065 H1041 0.951 . S
C1065 C1066 1.366 . S
C1065 C1067 1.388 . S
C1066 C1065 1.366 . S
C1066 C1070 1.385 . S
C1067 H1042 0.951 . S
C1067 C1065 1.388 . S
C1067 C1068 1.366 . S
C1068 C1067 1.366 . S
C1068 C1069 1.414 . S
C1068 C1071 1.499 . S
C1069 H1043 0.950 . S
C1069 C1068 1.414 . S
C1069 C1070 1.374 . S
C1070 H1044 0.950 . S
C1070 C1066 1.385 . S
C1070 C1069 1.374 . S
C1071 C1068 1.499 . S
C1071 C1072 1.373 . S
C1071 C1073 1.389 . S
C1072 H1045 0.950 . S
C1072 C1058 1.377 . S
C1072 C1071 1.373 . S
C1073 C1057 1.377 . S
C1073 C1071 1.389 . S
C1073 C1074 1.524 . S
C1074 C1073 1.524 . S
C1074 C1075 1.397 . S
C1074 C1079 1.363 . S
C1075 H1046 0.950 . S
C1075 C1074 1.397 . S
C1075 C1076 1.334 . S
C1076 H1047 0.950 . S
C1076 C1075 1.334 . S
C1076 C1077 1.287 . S
C1077 C1076 1.287 . S
C1077 C1078 1.524 . S
C1077 H1080 0.999 . S
C1078 H1048 0.950 . S
C1078 C1077 1.524 . S
C1078 C1079 1.415 . S
C1079 H1049 0.950 . S
C1079 C1074 1.363 . S
C1079 C1078 1.415 . S
H1080 C1077 0.999 . S
H1081 C1062 0.913 . S
H1082 C1100 0.951 . S
H1083 C1102 0.951 . S
H1084 C1104 0.950 . S
H1085 C1105 0.950 . S
H1086 C1107 0.950 . S
H1087 C1110 0.950 . S
H1088 C1111 0.950 . S
H1089 C1113 0.950 . S
H1090 C1114 0.950 . S
H1091 C1115 0.951 . S
H1092 C1117 0.951 . S
H1093 C1119 0.950 . S
H1094 C1120 0.950 . S
H1095 C1122 0.950 . S
H1096 C1125 0.950 . S
H1097 C1126 0.950 . S
H1098 C1128 0.950 . S
H1099 C1129 0.950 . S
C1100 H1082 0.951 . S
C1100 C1101 1.366 . S
C1100 C1102 1.388 . S
C1101 C1100 1.366 . S
C1101 C1105 1.385 . S
C1102 H1083 0.951 . S
C1102 C1100 1.388 . S
C1102 C1103 1.366 . S
C1103 C1102 1.366 . S
C1103 C1104 1.414 . S
C1103 C1106 1.499 . S
C1104 H1084 0.950 . S
C1104 C1103 1.414 . S
C1104 C1105 1.374 . S
C1105 H1085 0.950 . S
C1105 C1101 1.385 . S
C1105 C1104 1.374 . S
C1106 C1103 1.499 . S
C1106 C1107 1.373 . S
C1106 C1108 1.389 . S
C1107 H1086 0.950 . S
C1107 C1106 1.373 . S
C1107 C1123 1.377 . S
C1108 C1106 1.389 . S
C1108 C1109 1.524 . S
C1108 C1122 1.377 . S
C1109 C1108 1.524 . S
C1109 C1110 1.397 . S
C1109 C1114 1.363 . S
C1110 H1087 0.950 . S
C1110 C1109 1.397 . S
C1110 C1111 1.334 . S
C1111 H1088 0.950 . S
C1111 C1110 1.334 . S
C1111 C1112 1.287 . S
C1112 C1111 1.287 . S
C1112 C1113 1.524 . S
C1112 H1131 0.913 . S
C1113 H1089 0.950 . S
C1113 C1112 1.524 . S
C1113 C1114 1.415 . S
C1114 H1090 0.950 . S
C1114 C1109 1.363 . S
C1114 C1113 1.415 . S
C1115 H1091 0.951 . S
C1115 C1116 1.366 . S
C1115 C1117 1.388 . S
C1116 C1115 1.366 . S
C1116 C1120 1.385 . S
C1117 H1092 0.951 . S
C1117 C1115 1.388 . S
C1117 C1118 1.366 . S
C1118 C1117 1.366 . S
C1118 C1119 1.414 . S
C1118 C1121 1.499 . S
C1119 H1093 0.950 . S
C1119 C1118 1.414 . S
C1119 C1120 1.374 . S
C1120 H1094 0.950 . S
C1120 C1116 1.385 . S
C1120 C1119 1.374 . S
C1121 C1118 1.499 . S
C1121 C1122 1.373 . S
C1121 C1123 1.389 . S
C1122 H1095 0.950 . S
C1122 C1108 1.377 . S
C1122 C1121 1.373 . S
C1123 C1107 1.377 . S
C1123 C1121 1.389 . S
C1123 C1124 1.524 . S
C1124 C1123 1.524 . S
C1124 C1125 1.397 . S
C1124 C1129 1.363 . S
C1125 H1096 0.950 . S
C1125 C1124 1.397 . S
C1125 C1126 1.334 . S
C1126 H1097 0.950 . S
C1126 C1125 1.334 . S
C1126 C1127 1.287 . S
C1127 C1126 1.287 . S
C1127 C1128 1.524 . S
C1127 H1130 0.999 . S
C1128 H1098 0.950 . S
C1128 C1127 1.524 . S
C1128 C1129 1.415 . S
C1129 H1099 0.950 . S
C1129 C1124 1.363 . S
C1129 C1128 1.415 . S
H1130 C1127 0.999 . S
H1131 C1112 0.913 . S
H1132 C1150 0.951 . S
H1133 C1152 0.951 . S
H1134 C1154 0.950 . S
H1135 C1155 0.950 . S
H1136 C1157 0.950 . S
H1137 C1160 0.950 . S
H1138 C1161 0.950 . S
H1139 C1163 0.950 . S
H1140 C1164 0.950 . S
H1141 C1165 0.951 . S
H1142 C1167 0.951 . S
H1143 C1169 0.950 . S
H1144 C1170 0.950 . S
H1145 C1172 0.950 . S
H1146 C1175 0.950 . S
H1147 C1176 0.950 . S
H1148 C1178 0.950 . S
H1149 C1179 0.950 . S
C1150 H1132 0.951 . S
C1150 C1151 1.366 . S
C1150 C1152 1.388 . S
C1151 C1150 1.366 . S
C1151 C1155 1.385 . S
C1152 H1133 0.951 . S
C1152 C1150 1.388 . S
C1152 C1153 1.366 . S
C1153 C1152 1.366 . S
C1153 C1154 1.414 . S
C1153 C1156 1.499 . S
C1154 H1134 0.950 . S
C1154 C1153 1.414 . S
C1154 C1155 1.374 . S
C1155 H1135 0.950 . S
C1155 C1151 1.385 . S
C1155 C1154 1.374 . S
C1156 C1153 1.499 . S
C1156 C1157 1.373 . S
C1156 C1158 1.389 . S
C1157 H1136 0.950 . S
C1157 C1156 1.373 . S
C1157 C1173 1.377 . S
C1158 C1156 1.389 . S
C1158 C1159 1.524 . S
C1158 C1172 1.377 . S
C1159 C1158 1.524 . S
C1159 C1160 1.397 . S
C1159 C1164 1.363 . S
C1160 H1137 0.950 . S
C1160 C1159 1.397 . S
C1160 C1161 1.334 . S
C1161 H1138 0.950 . S
C1161 C1160 1.334 . S
C1161 C1162 1.287 . S
C1162 C1161 1.287 . S
C1162 C1163 1.524 . S
C1162 H1181 0.913 . S
C1163 H1139 0.950 . S
C1163 C1162 1.524 . S
C1163 C1164 1.415 . S
C1164 H1140 0.950 . S
C1164 C1159 1.363 . S
C1164 C1163 1.415 . S
C1165 H1141 0.951 . S
C1165 C1166 1.366 . S
C1165 C1167 1.388 . S
C1166 C1165 1.366 . S
C1166 C1170 1.385 . S
C1167 H1142 0.951 . S
C1167 C1165 1.388 . S
C1167 C1168 1.366 . S
C1168 C1167 1.366 . S
C1168 C1169 1.414 . S
C1168 C1171 1.499 . S
C1169 H1143 0.950 . S
C1169 C1168 1.414 . S
C1169 C1170 1.374 . S
C1170 H1144 0.950 . S
C1170 C1166 1.385 . S
C1170 C1169 1.374 . S
C1171 C1168 1.499 . S
C1171 C1172 1.373 . S
C1171 C1173 1.389 . S
C1172 H1145 0.950 . S
C1172 C1158 1.377 . S
C1172 C1171 1.373 . S
C1173 C1157 1.377 . S
C1173 C1171 1.389 . S
C1173 C1174 1.524 . S
C1174 C1173 1.524 . S
C1174 C1175 1.397 . S
C1174 C1179 1.363 . S
C1175 H1146 0.950 . S
C1175 C1174 1.397 . S
C1175 C1176 1.334 . S
C1176 H1147 0.950 . S
C1176 C1175 1.334 . S
C1176 C1177 1.287 . S
C1177 C1176 1.287 . S
C1177 C1178 1.524 . S
C1177 H1180 0.999 . S
C1178 H1148 0.950 . S
C1178 C1177 1.524 . S
C1178 C1179 1.415 . S
C1179 H1149 0.950 . S
C1179 C1174 1.363 . S
C1179 C1178 1.415 . S
H1180 C1177 0.999 . S
H1181 C1162 0.913 . S
H1182 C1200 0.951 . S
H1183 C1202 0.951 . S
H1184 C1204 0.950 . S
H1185 C1205 0.950 . S
H1186 C1207 0.950 . S
H1187 C1210 0.950 . S
H1188 C1211 0.950 . S
H1189 C1213 0.950 . S
H1190 C1214 0.950 . S
H1191 C1215 0.951 . S
H1192 C1217 0.951 . S
H1193 C1219 0.950 . S
H1194 C1220 0.950 . S
H1195 C1222 0.950 . S
H1196 C1225 0.950 . S
H1197 C1226 0.950 . S
H1198 C1228 0.950 . S
H1199 C1229 0.950 . S
C1200 H1182 0.951 . S
C1200 C1201 1.366 . S
C1200 C1202 1.388 . S
C1201 C1200 1.366 . S
C1201 C1205 1.385 . S
C1202 H1183 0.951 . S
C1202 C1200 1.388 . S
C1202 C1203 1.366 . S
C1203 C1202 1.366 . S
C1203 C1204 1.414 . S
C1203 C1206 1.499 . S
C1204 H1184 0.950 . S
C1204 C1203 1.414 . S
C1204 C1205 1.374 . S
C1205 H1185 0.950 . S
C1205 C1201 1.385 . S
C1205 C1204 1.374 . S
C1206 C1203 1.499 . S
C1206 C1207 1.373 . S
C1206 C1208 1.389 . S
C1207 H1186 0.950 . S
C1207 C1206 1.373 . S
C1207 C1223 1.377 . S
C1208 C1206 1.389 . S
C1208 C1209 1.524 . S
C1208 C1222 1.377 . S
C1209 C1208 1.524 . S
C1209 C1210 1.397 . S
C1209 C1214 1.363 . S
C1210 H1187 0.950 . S
C1210 C1209 1.397 . S
C1210 C1211 1.334 . S
C1211 H1188 0.950 . S
C1211 C1210 1.334 . S
C1211 C1212 1.287 . S
C1212 C1211 1.287 . S
C1212 C1213 1.524 . S
C1212 H1231 0.913 . S
C1213 H1189 0.950 . S
C1213 C1212 1.524 . S
C1213 C1214 1.415 . S
C1214 H1190 0.950 . S
C1214 C1209 1.363 . S
C1214 C1213 1.415 . S
C1215 H1191 0.951 . S
C1215 C1216 1.366 . S
C1215 C1217 1.388 . S
C1216 C1215 1.366 . S
C1216 C1220 1.385 . S
C1217 H1192 0.951 . S
C1217 C1215 1.388 . S
C1217 C1218 1.366 . S
C1218 C1217 1.366 . S
C1218 C1219 1.414 . S
C1218 C1221 1.499 . S
C1219 H1193 0.950 . S
C1219 C1218 1.414 . S
C1219 C1220 1.374 . S
C1220 H1194 0.950 . S
C1220 C1216 1.385 . S
C1220 C1219 1.374 . S
C1221 C1218 1.499 . S
C1221 C1222 1.373 . S
C1221 C1223 1.389 . S
C1222 H1195 0.950 . S
C1222 C1208 1.377 . S
C1222 C1221 1.373 . S
C1223 C1207 1.377 . S
C1223 C1221 1.389 . S
C1223 C1224 1.524 . S
C1224 C1223 1.524 . S
C1224 C1225 1.397 . S
C1224 C1229 1.363 . S
C1225 H1196 0.950 . S
C1225 C1224 1.397 . S
C1225 C1226 1.334 . S
C1226 H1197 0.950 . S
C1226 C1225 1.334 . S
C1226 C1227 1.287 . S
C1227 C1226 1.287 . S
C1227 C1228 1.524 . S
C1227 H1230 0.999 . S
C1228 H1198 0.950 . S
C1228 C1227 1.524 . S
C1228 C1229 1.415 . S
C1229 H1199 0.950 . S
C1229 C1224 1.363 . S
C1229 C1228 1.415 . S
H1230 C1227 0.999 . S
H1231 C1212 0.913 . S
H1232 C1250 0.951 . S
H1233 C1252 0.951 . S
H1234 C1254 0.950 . S
H1235 C1255 0.950 . S
H1236 C1257 0.950 . S
H1237 C1260 0.950 . S
H1238 C1261 0.950 . S
H1239 C1263 0.950 . S
H1240 C1264 0.950 . S
H1241 C1265 0.951 . S
H1242 C1267 0.951 . S
H1243 C1269 0.950 . S
H1244 C1270 0.950 . S
H1245 C1272 0.950 . S
H1246 C1275 0.950 . S
H1247 C1276 0.950 . S
H1248 C1278 0.950 . S
H1249 C1279 0.950 . S
C1250 H1232 0.951 . S
C1250 C1251 1.366 . S
C1250 C1252 1.388 . S
C1251 C1250 1.366 . S
C1251 C1255 1.385 . S
C1252 H1233 0.951 . S
C1252 C1250 1.388 . S
C1252 C1253 1.366 . S
C1253 C1252 1.366 . S
C1253 C1254 1.414 . S
C1253 C1256 1.499 . S
C1254 H1234 0.950 . S
C1254 C1253 1.414 . S
C1254 C1255 1.374 . S
C1255 H1235 0.950 . S
C1255 C1251 1.385 . S
C1255 C1254 1.374 . S
C1256 C1253 1.499 . S
C1256 C1257 1.373 . S
C1256 C1258 1.389 . S
C1257 H1236 0.950 . S
C1257 C1256 1.373 . S
C1257 C1273 1.377 . S
C1258 C1256 1.389 . S
C1258 C1259 1.524 . S
C1258 C1272 1.377 . S
C1259 C1258 1.524 . S
C1259 C1260 1.397 . S
C1259 C1264 1.363 . S
C1260 H1237 0.950 . S
C1260 C1259 1.397 . S
C1260 C1261 1.334 . S
C1261 H1238 0.950 . S
C1261 C1260 1.334 . S
C1261 C1262 1.287 . S
C1262 C1261 1.287 . S
C1262 C1263 1.524 . S
C1262 H1281 0.913 . S
C1263 H1239 0.950 . S
C1263 C1262 1.524 . S
C1263 C1264 1.415 . S
C1264 H1240 0.950 . S
C1264 C1259 1.363 . S
C1264 C1263 1.415 . S
C1265 H1241 0.951 . S
C1265 C1266 1.366 . S
C1265 C1267 1.388 . S
C1266 C1265 1.366 . S
C1266 C1270 1.385 . S
C1267 H1242 0.951 . S
C1267 C1265 1.388 . S
C1267 C1268 1.366 . S
C1268 C1267 1.366 . S
C1268 C1269 1.414 . S
C1268 C1271 1.499 . S
C1269 H1243 0.950 . S
C1269 C1268 1.414 . S
C1269 C1270 1.374 . S
C1270 H1244 0.950 . S
C1270 C1266 1.385 . S
C1270 C1269 1.374 . S
C1271 C1268 1.499 . S
C1271 C1272 1.373 . S
C1271 C1273 1.389 . S
C1272 H1245 0.950 . S
C1272 C1258 1.377 . S
C1272 C1271 1.373 . S
C1273 C1257 1.377 . S
C1273 C1271 1.389 . S
C1273 C1274 1.524 . S
C1274 C1273 1.524 . S
C1274 C1275 1.397 . S
C1274 C1279 1.363 . S
C1275 H1246 0.950 . S
C1275 C1274 1.397 . S
C1275 C1276 1.334 . S
C1276 H1247 0.950 . S
C1276 C1275 1.334 . S
C1276 C1277 1.287 . S
C1277 C1276 1.287 . S
C1277 C1278 1.524 . S
C1277 H1280 0.999 . S
C1278 H1248 0.950 . S
C1278 C1277 1.524 . S
C1278 C1279 1.415 . S
C1279 H1249 0.950 . S
C1279 C1274 1.363 . S
C1279 C1278 1.415 . S
H1280 C1277 0.999 . S
H1281 C1262 0.913 . S
H1282 C1300 0.951 . S
H1283 C1302 0.951 . S
H1284 C1304 0.950 . S
H1285 C1305 0.950 . S
H1286 C1307 0.950 . S
H1287 C1310 0.950 . S
H1288 C1311 0.950 . S
H1289 C1313 0.950 . S
H1290 C1314 0.950 . S
H1291 C1315 0.951 . S
H1292 C1317 0.951 . S
H1293 C1319 0.950 . S
H1294 C1320 0.950 . S
H1295 C1322 0.950 . S
H1296 C1325 0.950 . S
H1297 C1326 0.950 . S
H1298 C1328 0.950 . S
H1299 C1329 0.950 . S
C1300 H1282 0.951 . S
C1300 C1301 1.366 . S
C1300 C1302 1.388 . S
C1301 C1300 1.366 . S
C1301 C1305 1.385 . S
C1302 H1283 0.951 . S
C1302 C1300 1.388 . S
C1302 C1303 1.366 . S
C1303 C1302 1.366 . S
C1303 C1304 1.414 . S
C1303 C1306 1.499 . S
C1304 H1284 0.950 . S
C1304 C1303 1.414 . S
C1304 C1305 1.374 . S
C1305 H1285 0.950 . S
C1305 C1301 1.385 . S
C1305 C1304 1.374 . S
C1306 C1303 1.499 . S
C1306 C1307 1.373 . S
C1306 C1308 1.389 . S
C1307 H1286 0.950 . S
C1307 C1306 1.373 . S
C1307 C1323 1.377 . S
C1308 C1306 1.389 . S
C1308 C1309 1.524 . S
C1308 C1322 1.377 . S
C1309 C1308 1.524 . S
C1309 C1310 1.397 . S
C1309 C1314 1.363 . S
C1310 H1287 0.950 . S
C1310 C1309 1.397 . S
C1310 C1311 1.334 . S
C1311 H1288 0.950 . S
C1311 C1310 1.334 . S
C1311 C1312 1.287 . S
C1312 C1311 1.287 . S
C1312 C1313 1.524 . S
C1312 H1331 0.913 . S
C1313 H1289 0.950 . S
C1313 C1312 1.524 . S
C1313 C1314 1.415 . S
C1314 H1290 0.950 . S
C1314 C1309 1.363 . S
C1314 C1313 1.415 . S
C1315 H1291 0.951 . S
C1315 C1316 1.366 . S
C1315 C1317 1.388 . S
C1316 C1315 1.366 . S
C1316 C1320 1.385 . S
C1317 H1292 0.951 . S
C1317 C1315 1.388 . S
C1317 C1318 1.366 . S
C1318 C1317 1.366 . S
C1318 C1319 1.414 . S
C1318 C1321 1.499 . S
C1319 H1293 0.950 . S
C1319 C1318 1.414 . S
C1319 C1320 1.374 . S
C1320 H1294 0.950 . S
C1320 C1316 1.385 . S
C1320 C1319 1.374 . S
C1321 C1318 1.499 . S
C1321 C1322 1.373 . S
C1321 C1323 1.389 . S
C1322 H1295 0.950 . S
C1322 C1308 1.377 . S
C1322 C1321 1.373 . S
C1323 C1307 1.377 . S
C1323 C1321 1.389 . S
C1323 C1324 1.524 . S
C1324 C1323 1.524 . S
C1324 C1325 1.397 . S
C1324 C1329 1.363 . S
C1325 H1296 0.950 . S
C1325 C1324 1.397 . S
C1325 C1326 1.334 . S
C1326 H1297 0.950 . S
C1326 C1325 1.334 . S
C1326 C1327 1.287 . S
C1327 C1326 1.287 . S
C1327 C1328 1.524 . S
C1327 H1330 0.999 . S
C1328 H1298 0.950 . S
C1328 C1327 1.524 . S
C1328 C1329 1.415 . S
C1329 H1299 0.950 . S
C1329 C1324 1.363 . S
C1329 C1328 1.415 . S
H1330 C1327 0.999 . S
H1331 C1312 0.913 . S
H1332 C1350 0.951 . S
H1333 C1352 0.951 . S
H1334 C1354 0.950 . S
H1335 C1355 0.950 . S
H1336 C1357 0.950 . S
H1337 C1360 0.950 . S
H1338 C1361 0.950 . S
H1339 C1363 0.950 . S
H1340 C1364 0.950 . S
H1341 C1365 0.951 . S
H1342 C1367 0.951 . S
H1343 C1369 0.950 . S
H1344 C1370 0.950 . S
H1345 C1372 0.950 . S
H1346 C1375 0.950 . S
H1347 C1376 0.950 . S
H1348 C1378 0.950 . S
H1349 C1379 0.950 . S
C1350 H1332 0.951 . S
C1350 C1351 1.366 . S
C1350 C1352 1.388 . S
C1351 C1350 1.366 . S
C1351 C1355 1.385 . S
C1352 H1333 0.951 . S
C1352 C1350 1.388 . S
C1352 C1353 1.366 . S
C1353 C1352 1.366 . S
C1353 C1354 1.414 . S
C1353 C1356 1.499 . S
C1354 H1334 0.950 . S
C1354 C1353 1.414 . S
C1354 C1355 1.374 . S
C1355 H1335 0.950 . S
C1355 C1351 1.385 . S
C1355 C1354 1.374 . S
C1356 C1353 1.499 . S
C1356 C1357 1.373 . S
C1356 C1358 1.389 . S
C1357 H1336 0.950 . S
C1357 C1356 1.373 . S
C1357 C1373 1.377 . S
C1358 C1356 1.389 . S
C1358 C1359 1.524 . S
C1358 C1372 1.377 . S
C1359 C1358 1.524 . S
C1359 C1360 1.397 . S
C1359 C1364 1.363 . S
C1360 H1337 0.950 . S
C1360 C1359 1.397 . S
C1360 C1361 1.334 . S
C1361 H1338 0.950 . S
C1361 C1360 1.334 . S
C1361 C1362 1.287 . S
C1362 C1361 1.287 . S
C1362 C1363 1.524 . S
C1362 H1381 0.913 . S
C1363 H1339 0.950 . S
C1363 C1362 1.524 . S
C1363 C1364 1.415 . S
C1364 H1340 0.950 . S
C1364 C1359 1.363 . S
C1364 C1363 1.415 . S
C1365 H1341 0.951 . S
C1365 C1366 1.366 . S
C1365 C1367 1.388 . S
C1366 C1365 1.366 . S
C1366 C1370 1.385 . S
C1367 H1342 0.951 . S
C1367 C1365 1.388 . S
C1367 C1368 1.366 . S
C1368 C1367 1.366 . S
C1368 C1369 1.414 . S
C1368 C1371 1.499 . S
C1369 H1343 0.950 . S
C1369 C1368 1.414 . S
C1369 C1370 1.374 . S
C1370 H1344 0.950 . S
C1370 C1366 1.385 . S
C1370 C1369 1.374 . S
C1371 C1368 1.499 . S
C1371 C1372 1.373 . S
C1371 C1373 1.389 . S
C1372 H1345 0.950 . S
C1372 C1358 1.377 . S
C1372 C1371 1.373 . S
C1373 C1357 1.377 . S
C1373 C1371 1.389 . S
C1373 C1374 1.524 . S
C1374 C1373 1.524 . S
C1374 C1375 1.397 . S
C1374 C1379 1.363 . S
C1375 H1346 0.950 . S
C1375 C1374 1.397 . S
C1375 C1376 1.334 . S
C1376 H1347 0.950 . S
C1376 C1375 1.334 . S
C1376 C1377 1.287 . S
C1377 C1376 1.287 . S
C1377 C1378 1.524 . S
C1377 H1380 0.999 . S
C1378 H1348 0.950 . S
C1378 C1377 1.524 . S
C1378 C1379 1.415 . S
C1379 H1349 0.950 . S
C1379 C1374 1.363 . S
C1379 C1378 1.415 . S
H1380 C1377 0.999 . S
H1381 C1362 0.913 . S
H1382 C1400 0.951 . S
H1383 C1402 0.951 . S
H1384 C1404 0.950 . S
H1385 C1405 0.950 . S
H1386 C1407 0.950 . S
H1387 C1410 0.950 . S
H1388 C1411 0.950 . S
H1389 C1413 0.950 . S
H1390 C1414 0.950 . S
H1391 C1415 0.951 . S
H1392 C1417 0.951 . S
H1393 C1419 0.950 . S
H1394 C1420 0.950 . S
H1395 C1422 0.950 . S
H1396 C1425 0.950 . S
H1397 C1426 0.950 . S
H1398 C1428 0.950 . S
H1399 C1429 0.950 . S
C1400 H1382 0.951 . S
C1400 C1401 1.366 . S
C1400 C1402 1.388 . S
C1401 C1400 1.366 . S
C1401 C1405 1.385 . S
C1402 H1383 0.951 . S
C1402 C1400 1.388 . S
C1402 C1403 1.366 . S
C1403 C1402 1.366 . S
C1403 C1404 1.414 . S
C1403 C1406 1.499 . S
C1404 H1384 0.950 . S
C1404 C1403 1.414 . S
C1404 C1405 1.374 . S
C1405 H1385 0.950 . S
C1405 C1401 1.385 . S
C1405 C1404 1.374 . S
C1406 C1403 1.499 . S
C1406 C1407 1.373 . S
C1406 C1408 1.389 . S
C1407 H1386 0.950 . S
C1407 C1406 1.373 . S
C1407 C1423 1.377 . S
C1408 C1406 1.389 . S
C1408 C1409 1.524 . S
C1408 C1422 1.377 . S
C1409 C1408 1.524 . S
C1409 C1410 1.397 . S
C1409 C1414 1.363 . S
C1410 H1387 0.950 . S
C1410 C1409 1.397 . S
C1410 C1411 1.334 . S
C1411 H1388 0.950 . S
C1411 C1410 1.334 . S
C1411 C1412 1.287 . S
C1412 C1411 1.287 . S
C1412 C1413 1.524 . S
C1412 H1431 0.913 . S
C1413 H1389 0.950 . S
C1413 C1412 1.524 . S
C1413 C1414 1.415 . S
C1414 H1390 0.950 . S
C1414 C1409 1.363 . S
C1414 C1413 1.415 . S
C1415 H1391 0.951 . S
C1415 C1416 1.366 . S
C1415 C1417 1.388 . S
C1416 C1415 1.366 . S
C1416 C1420 1.385 . S
C1417 H1392 0.951 . S
C1417 C1415 1.388 . S
C1417 C1418 1.366 . S
C1418 C1417 1.366 . S
C1418 C1419 1.414 . S
C1418 C1421 1.499 . S
C1419 H1393 0.950 . S
C1419 C1418 1.414 . S
C1419 C1420 1.374 . S
C1420 H1394 0.950 . S
C1420 C1416 1.385 . S
C1420 C1419 1.374 . S
C1421 C1418 1.499 . S
C1421 C1422 1.373 . S
C1421 C1423 1.389 . S
C1422 H1395 0.950 . S
C1422 C1408 1.377 . S
C1422 C1421 1.373 . S
C1423 C1407 1.377 . S
C1423 C1421 1.389 . S
C1423 C1424 1.524 . S
C1424 C1423 1.524 . S
C1424 C1425 1.397 . S
C1424 C1429 1.363 . S
C1425 H1396 0.950 . S
C1425 C1424 1.397 . S
C1425 C1426 1.334 . S
C1426 H1397 0.950 . S
C1426 C1425 1.334 . S
C1426 C1427 1.287 . S
C1427 C1426 1.287 . S
C1427 C1428 1.524 . S
C1427 H1430 0.999 . S
C1428 H1398 0.950 . S
C1428 C1427 1.524 . S
C1428 C1429 1.415 . S
C1429 H1399 0.950 . S
C1429 C1424 1.363 . S
C1429 C1428 1.415 . S
H1430 C1427 0.999 . S
H1431 C1412 0.913 . S
C251 C51 1.500 . S
C266 C108 1.495 . S
C301 C56 1.500 . S
C316 C173 1.500 . S
C351 C53 1.500 . S
C366 C110 1.500 . S
C401 C170 1.500 . S
C416 C55 1.495 . S
C451 C50 1.500 . S
C466 C109 1.505 . S
C501 C57 1.500 . S
C516 C172 1.500 . S
C551 C111 1.500 . S
C566 C52 1.500 . S
C601 C171 1.500 . S
C616 C54 1.505 . S
C651 C220 1.500 . S
C666 C47 1.495 . S
C701 C223 1.500 . S
C716 C48 1.500 . S
C751 C222 1.500 . S
C766 C49 1.500 . S
C801 C46 1.500 . S
C816 C221 1.505 . S
C851 C231 1.500 . S
C866 C114 1.505 . S
C901 C113 1.500 . S
C916 C228 1.500 . S
C951 C115 1.500 . S
C966 C230 1.495 . S
C1001 C229 1.500 . S
C1016 C112 1.500 . S
C1051 C162 1.500 . S
C1066 C105 1.500 . S
C1101 C106 1.500 . S
C1116 C165 1.495 . S
C1151 C107 1.500 . S
C1166 C164 1.505 . S
C1201 C163 1.500 . S
C1216 C104 1.500 . S
C1251 C224 1.500 . S
C1266 C167 1.500 . S
C1301 C169 1.500 . S
C1316 C226 1.505 . S
C1351 C225 1.500 . S
C1366 C166 1.500 . S
C1401 C168 1.500 . S
C1416 C227 1.495 . S
