# Generated by pormake.
# Topology mon, (4)-cn, num edge types: 1
# Building blocks:
#     Node 0, Type 0, BuildingBlock: TATPOV_clean_sbu_0, # of connection points: 4
#     Node 1, Type 0, BuildingBlock: TATPOV_clean_sbu_0, # of connection points: 4
#     Node 2, Type 0, BuildingBlock: TATPOV_clean_sbu_0, # of connection points: 4
#     Node 3, Type 0, BuildingBlock: TATPOV_clean_sbu_0, # of connection points: 4
#     Node 4, Type 0, BuildingBlock: TATPOV_clean_sbu_0, # of connection points: 4
#     Node 5, Type 0, BuildingBlock: TATPOV_clean_sbu_0, # of connection points: 4
#     Node 6, Type 0, BuildingBlock: TATPOV_clean_sbu_0, # of connection points: 4
#     Node 7, Type 0, BuildingBlock: TATPOV_clean_sbu_0, # of connection points: 4
#     Node 8, Type 0, BuildingBlock: TATPOV_clean_sbu_0, # of connection points: 4
#     Node 9, Type 0, BuildingBlock: TATPOV_clean_sbu_0, # of connection points: 4
#     Node 10, Type 0, BuildingBlock: TATPOV_clean_sbu_0, # of connection points: 4
#     Node 11, Type 0, BuildingBlock: TATPOV_clean_sbu_0, # of connection points: 4
#     Node 12, Type 0, BuildingBlock: TATPOV_clean_sbu_0, # of connection points: 4
#     Node 13, Type 0, BuildingBlock: TATPOV_clean_sbu_0, # of connection points: 4
#     Node 14, Type 0, BuildingBlock: TATPOV_clean_sbu_0, # of connection points: 4
#     Node 15, Type 0, BuildingBlock: TATPOV_clean_sbu_0, # of connection points: 4
#     Edge 16, Type (0, 0), BuildingBlock: AJUNOK_clean_linker_0, # of connection points: 2
#     Edge 17, Type (0, 0), BuildingBlock: AJUNOK_clean_linker_0, # of connection points: 2
#     Edge 18, Type (0, 0), BuildingBlock: AJUNOK_clean_linker_0, # of connection points: 2
#     Edge 19, Type (0, 0), BuildingBlock: AJUNOK_clean_linker_0, # of connection points: 2
#     Edge 20, Type (0, 0), BuildingBlock: AJUNOK_clean_linker_0, # of connection points: 2
#     Edge 21, Type (0, 0), BuildingBlock: AJUNOK_clean_linker_0, # of connection points: 2
#     Edge 22, Type (0, 0), BuildingBlock: AJUNOK_clean_linker_0, # of connection points: 2
#     Edge 23, Type (0, 0), BuildingBlock: AJUNOK_clean_linker_0, # of connection points: 2
#     Edge 24, Type (0, 0), BuildingBlock: AJUNOK_clean_linker_0, # of connection points: 2
#     Edge 25, Type (0, 0), BuildingBlock: AJUNOK_clean_linker_0, # of connection points: 2
#     Edge 26, Type (0, 0), BuildingBlock: AJUNOK_clean_linker_0, # of connection points: 2
#     Edge 27, Type (0, 0), BuildingBlock: AJUNOK_clean_linker_0, # of connection points: 2
#     Edge 28, Type (0, 0), BuildingBlock: AJUNOK_clean_linker_0, # of connection points: 2
#     Edge 29, Type (0, 0), BuildingBlock: AJUNOK_clean_linker_0, # of connection points: 2
#     Edge 30, Type (0, 0), BuildingBlock: AJUNOK_clean_linker_0, # of connection points: 2
#     Edge 31, Type (0, 0), BuildingBlock: AJUNOK_clean_linker_0, # of connection points: 2
#     Edge 32, Type (0, 0), BuildingBlock: AJUNOK_clean_linker_0, # of connection points: 2
#     Edge 33, Type (0, 0), BuildingBlock: AJUNOK_clean_linker_0, # of connection points: 2
#     Edge 34, Type (0, 0), BuildingBlock: AJUNOK_clean_linker_0, # of connection points: 2
#     Edge 35, Type (0, 0), BuildingBlock: AJUNOK_clean_linker_0, # of connection points: 2
#     Edge 36, Type (0, 0), BuildingBlock: AJUNOK_clean_linker_0, # of connection points: 2
#     Edge 37, Type (0, 0), BuildingBlock: AJUNOK_clean_linker_0, # of connection points: 2
#     Edge 38, Type (0, 0), BuildingBlock: AJUNOK_clean_linker_0, # of connection points: 2
#     Edge 39, Type (0, 0), BuildingBlock: AJUNOK_clean_linker_0, # of connection points: 2
#     Edge 40, Type (0, 0), BuildingBlock: AJUNOK_clean_linker_0, # of connection points: 2
#     Edge 41, Type (0, 0), BuildingBlock: AJUNOK_clean_linker_0, # of connection points: 2
#     Edge 42, Type (0, 0), BuildingBlock: AJUNOK_clean_linker_0, # of connection points: 2
#     Edge 43, Type (0, 0), BuildingBlock: AJUNOK_clean_linker_0, # of connection points: 2
#     Edge 44, Type (0, 0), BuildingBlock: AJUNOK_clean_linker_0, # of connection points: 2
#     Edge 45, Type (0, 0), BuildingBlock: AJUNOK_clean_linker_0, # of connection points: 2
#     Edge 46, Type (0, 0), BuildingBlock: AJUNOK_clean_linker_0, # of connection points: 2
#     Edge 47, Type (0, 0), BuildingBlock: AJUNOK_clean_linker_0, # of connection points: 2
# Relax obj value: 0.116
# Max RMSD: 0.121
# Mean RMSD: 0.121
data_MOF--net-mon--node1-TATPOV_clean_sbu_0--edge1-AJUNOK_clean_linker_0
_symmetry_space_group_name_H-M    P1
_symmetry_Int_Tables_number       1
_symmetry_cell_setting            triclinic
loop_
_symmetry_equiv_pos_as_xyz
'x, y, z'
_cell_length_a     24.352748
_cell_length_b     24.366137
_cell_length_c     66.948174
_cell_angle_alpha  90.299119
_cell_angle_beta   90.092367
_cell_angle_gamma 89.982098
loop_
_atom_site_label
_atom_site_type_symbol
_atom_site_fract_x
_atom_site_fract_y
_atom_site_fract_z
_atom_type_partial_charge
Zn0 Zn 0.04441 0.94023 0.54102 0.0
Zn1 Zn 0.04973 0.04779 0.5425 0.0
O2 O 0.11737 0.0285 0.55941 0.0
O3 O 0.11224 0.93821 0.55789 0.0
O4 O 0.04977 0.13022 0.54216 0.0
O5 O 0.05175 0.93471 0.51191 0.0
O6 O 0.05296 0.025 0.51241 0.0
C7 C 0.13613 0.9814 0.56385 0.0
C8 C 0.9514 0.98691 0.56015 0.0
O9 O 0.97849 0.03099 0.55769 0.0
O10 O 0.96962 0.94185 0.55344 0.0
C11 C 0.04754 0.15719 0.55846 0.0
O12 O 0.0467 0.1302 0.5754 0.0
C13 C 0.05442 0.97965 0.5027 0.0
Zn14 Zn 0.41219 0.71595 0.77811 0.0
Zn15 Zn 0.30606 0.72035 0.79009 0.0
O16 O 0.33366 0.79589 0.79811 0.0
O17 O 0.4196 0.79454 0.78806 0.0
O18 O 0.22516 0.72419 0.79555 0.0
O19 O 0.3921 0.70123 0.74979 0.0
O20 O 0.30659 0.70493 0.76011 0.0
C21 C 0.3799 0.81955 0.79629 0.0
C22 C 0.38354 0.63809 0.80901 0.0
O23 O 0.33665 0.66119 0.80856 0.0
O24 O 0.42124 0.6528 0.79718 0.0
C25 C 0.2036 0.73968 0.81189 0.0
O26 O 0.23553 0.7518 0.82713 0.0
C27 C 0.34128 0.69853 0.74609 0.0
Zn28 Zn 0.54771 0.14035 0.02613 0.0
Zn29 Zn 0.5212 0.04687 0.04257 0.0
O30 O 0.47332 0.09893 0.05996 0.0
O31 O 0.5044 0.17687 0.04771 0.0
O32 O 0.50858 0.96821 0.05136 0.0
O33 O 0.51286 0.12389 0.00014 0.0
O34 O 0.49909 0.04222 0.01293 0.0
C35 C 0.47512 0.15133 0.0602 0.0
C36 C 0.64081 0.09107 0.04228 0.0
O37 O 0.60336 0.05878 0.04847 0.0
O38 O 0.6284 0.12883 0.0302 0.0
C39 C 0.52883 0.9466 0.06699 0.0
O40 O 0.55675 0.97748 0.07953 0.0
C41 C 0.49605 0.07516 -0.00175 0.0
Zn42 Zn 0.22595 0.25388 0.29576 0.0
Zn43 Zn 0.32534 0.2195 0.29982 0.0
O44 O 0.28205 0.15005 0.30882 0.0
O45 O 0.19817 0.18359 0.30664 0.0
O46 O 0.40614 0.19919 0.29976 0.0
O47 O 0.22546 0.26288 0.26684 0.0
O48 O 0.31294 0.24209 0.27007 0.0
C49 C 0.23016 0.14417 0.31052 0.0
C50 C 0.28595 0.32034 0.32282 0.0
O51 O 0.32158 0.28251 0.32068 0.0
O52 O 0.24178 0.31889 0.3129 0.0
C53 C 0.4356 0.1954 0.31541 0.0
O54 O 0.41228 0.20126 0.33298 0.0
C55 C 0.27221 0.25627 0.25917 0.0
Zn56 Zn 1.00382 0.01145 0.37935 0.0
Zn57 Zn 0.03605 0.91127 0.37586 0.0
O58 O 0.09642 0.94813 0.35899 0.0
O59 O 0.05929 0.03074 0.35834 0.0
O60 O 0.05053 0.82963 0.37474 0.0
O61 O 0.02337 0.01923 0.40783 0.0
O62 O 0.04121 0.93091 0.40606 0.0
C63 C 0.09623 0.99747 0.35279 0.0
C64 C 0.92016 0.94911 0.3628 0.0
O65 O 0.95987 0.9151 0.36221 0.0
O66 O 0.92641 0.99443 0.37179 0.0
C67 C 0.05354 0.80366 0.35824 0.0
O68 O 0.05167 0.83128 0.34144 0.0
C69 C 0.03716 0.97515 0.41629 0.0
Zn70 Zn 0.2102 0.75318 0.63214 0.0
Zn71 Zn 0.31605 0.75283 0.62165 0.0
O72 O 0.29155 0.83041 0.6141 0.0
O73 O 0.2068 0.83353 0.62539 0.0
O74 O 0.39816 0.75533 0.61917 0.0
O75 O 0.22213 0.7295 0.66001 0.0
O76 O 0.30881 0.73009 0.65104 0.0
C77 C 0.24713 0.85678 0.61704 0.0
C78 C 0.2391 0.67841 0.59948 0.0
O79 O 0.28787 0.69663 0.60122 0.0
O80 O 0.20101 0.6957 0.61072 0.0
C81 C 0.42539 0.77321 0.60441 0.0
O82 O 0.39913 0.78987 0.5884 0.0
C83 C 0.27205 0.7219 0.66423 0.0
Zn84 Zn 0.53257 0.93172 0.88721 0.0
Zn85 Zn 0.54068 0.03736 0.87595 0.0
O86 O 0.48771 0.01075 0.85424 0.0
O87 O 0.47903 0.92506 0.86443 0.0
O88 O 0.54619 0.11935 0.87353 0.0
O89 O 0.504 0.94654 0.9144 0.0
O90 O 0.51213 0.03207 0.90465 0.0
C91 C 0.46664 0.96319 0.85246 0.0
C92 C 0.64155 0.96336 0.87459 0.0
O93 O 0.61857 0.00903 0.87069 0.0
O94 O 0.61412 0.92486 0.88238 0.0
C95 C 0.57266 0.14604 0.86046 0.0
O96 O 0.59788 0.11925 0.84607 0.0
C97 C 0.49885 0.99722 0.91791 0.0
Zn98 Zn 0.34965 0.3789 0.14595 0.0
Zn99 Zn 0.25556 0.34064 0.13427 0.0
O100 O 0.30453 0.28968 0.11724 0.0
O101 O 0.38318 0.32783 0.12562 0.0
O102 O 0.17629 0.31923 0.12938 0.0
O103 O 0.34545 0.35398 0.17383 0.0
O104 O 0.26403 0.32476 0.16443 0.0
C105 C 0.35664 0.29253 0.11556 0.0
C106 C 0.28973 0.462 0.12769 0.0
O107 O 0.25889 0.42078 0.12412 0.0
O108 O 0.33116 0.45622 0.13888 0.0
C109 C 0.14875 0.33202 0.11393 0.0
O110 O 0.17354 0.3575 0.09923 0.0
C111 C 0.30076 0.33038 0.1779 0.0
Zn112 Zn 0.70261 0.24072 0.13392 0.0
Zn113 Zn 0.80142 0.27661 0.12599 0.0
O114 O 0.75476 0.34646 0.11993 0.0
O115 O 0.67237 0.31354 0.1262 0.0
O116 O 0.88157 0.2983 0.12439 0.0
O117 O 0.71412 0.2246 0.16227 0.0
O118 O 0.79889 0.24823 0.1551 0.0
C119 C 0.70276 0.35299 0.12092 0.0
C120 C 0.75551 0.17971 0.10272 0.0
O121 O 0.79257 0.21629 0.10448 0.0
O122 O 0.71405 0.18045 0.11407 0.0
C123 C 0.91164 0.29731 0.10889 0.0
O124 O 0.88934 0.2857 0.09149 0.0
C125 C 0.7636 0.2301 0.16749 0.0
Zn126 Zn 0.87114 0.80055 0.64355 0.0
Zn127 Zn 0.7631 0.80137 0.6365 0.0
O128 O 0.78786 0.73187 0.622 0.0
O129 O 0.87649 0.72894 0.62842 0.0
O130 O 0.68138 0.79952 0.63221 0.0
O131 O 0.86144 0.79943 0.67276 0.0
O132 O 0.77238 0.80038 0.66723 0.0
C133 C 0.83422 0.70831 0.6203 0.0
C134 C 0.83503 0.89373 0.62078 0.0
O135 O 0.78836 0.87038 0.62166 0.0
O136 O 0.87628 0.87282 0.62939 0.0
C137 C 0.66208 0.79742 0.61455 0.0
O138 O 0.69629 0.7983 0.59941 0.0
C139 C 0.81289 0.79936 0.67935 0.0
Zn140 Zn 0.87431 0.11086 0.27867 0.0
Zn141 Zn 0.78017 0.15168 0.2912 0.0
O142 O 0.83143 0.20524 0.30611 0.0
O143 O 0.9094 0.16656 0.2971 0.0
O144 O 0.70124 0.17422 0.29641 0.0
O145 O 0.86447 0.1303 0.25024 0.0
O146 O 0.78491 0.16164 0.26077 0.0
C147 C 0.88376 0.20309 0.30689 0.0
C148 C 0.81626 0.03237 0.30052 0.0
O149 O 0.78543 0.07405 0.30322 0.0
O150 O 0.85636 0.03566 0.2886 0.0
C151 C 0.67285 0.15976 0.31142 0.0
O152 O 0.69655 0.13177 0.32577 0.0
C153 C 0.8192 0.15349 0.24669 0.0
Zn154 Zn 0.74548 0.7547 0.80201 0.0
Zn155 Zn 0.85277 0.7659 0.8058 0.0
O156 O 0.83675 0.6933 0.82019 0.0
O157 O 0.74952 0.67899 0.81339 0.0
O158 O 0.93514 0.76723 0.80466 0.0
O159 O 0.74224 0.76504 0.77286 0.0
O160 O 0.83173 0.77297 0.77592 0.0
C161 C 0.79407 0.66333 0.82125 0.0
C162 C 0.78126 0.84686 0.82698 0.0
O163 O 0.83008 0.83153 0.82317 0.0
O164 O 0.74041 0.82091 0.81999 0.0
C165 C 0.96602 0.76133 0.81981 0.0
O166 O 0.94361 0.75682 0.83757 0.0
C167 C 0.78863 0.7727 0.76501 0.0
Zn168 Zn 0.4769 0.4993 0.05458 0.0
Zn169 Zn 0.51095 0.59643 0.05918 0.0
O170 O 0.56895 0.55793 0.07685 0.0
O171 O 0.52626 0.47815 0.07744 0.0
O172 O 0.52611 0.67834 0.05963 0.0
O173 O 0.50338 0.48778 0.02706 0.0
O174 O 0.52192 0.57577 0.02934 0.0
C175 C 0.5649 0.50901 0.08336 0.0
C176 C 0.39198 0.56055 0.06928 0.0
O177 O 0.43283 0.59268 0.07166 0.0
O178 O 0.39814 0.51713 0.05915 0.0
C179 C 0.52117 0.70807 0.07521 0.0
O180 O 0.50914 0.68458 0.09227 0.0
C181 C 0.52012 0.53142 0.01908 0.0
Zn182 Zn 0.9927 0.60596 0.52623 0.0
Zn183 Zn 1.00093 0.5015 0.54024 0.0
O184 O 0.94138 0.53107 0.55874 0.0
O185 O 0.93011 0.61354 0.54584 0.0
O186 O 1.00747 0.42053 0.5449 0.0
O187 O 0.97714 0.58309 0.49812 0.0
O188 O 0.98366 0.50016 0.51056 0.0
C189 C 0.91685 0.5772 0.55842 0.0
C190 C 0.09778 0.579 0.5448 0.0
O191 O 0.07558 0.53251 0.54782 0.0
O192 O 0.07152 0.61628 0.53571 0.0
C193 C 0.02583 0.39552 0.56009 0.0
O194 O 0.0401 0.42368 0.57606 0.0
C195 C 0.97519 0.53165 0.49579 0.0
Zn196 Zn 0.59281 0.59229 0.89893 0.0
Zn197 Zn 0.59178 0.48418 0.89331 0.0
O198 O 0.66531 0.5064 0.8806 0.0
O199 O 0.66819 0.59502 0.88709 0.0
O200 O 0.5894 0.40218 0.88955 0.0
O201 O 0.58455 0.58622 0.92803 0.0
O202 O 0.58227 0.49661 0.92383 0.0
C203 C 0.69012 0.55231 0.87982 0.0
C204 C 0.50509 0.55588 0.87348 0.0
O205 O 0.52683 0.50908 0.87627 0.0
O206 O 0.52503 0.59825 0.88176 0.0
C207 C 0.59438 0.38249 0.872 0.0
O208 O 0.6021 0.41635 0.85706 0.0
C209 C 0.58011 0.5387 0.93527 0.0
Zn210 Zn 0.0732 0.36483 0.39488 0.0
Zn211 Zn 0.04942 0.45674 0.37551 0.0
O212 O 1.00404 0.40347 0.35801 0.0
O213 O 0.03235 0.32723 0.37249 0.0
O214 O 0.03607 0.53523 0.36717 0.0
O215 O 0.03336 0.38586 0.41972 0.0
O216 O 0.02127 0.46374 0.404 0.0
C217 C 1.0052 0.35115 0.35892 0.0
C218 C 0.16882 0.41392 0.37953 0.0
O219 O 0.13244 0.44478 0.37169 0.0
O220 O 0.15443 0.37807 0.39209 0.0
C221 C 0.06401 0.56446 0.35525 0.0
O222 O 0.10214 0.54127 0.34423 0.0
C223 C 0.01525 0.4344 0.41947 0.0
C224 C 0.04149 0.24729 0.57663 0.0
C225 C 0.04374 0.21807 0.55843 0.0
C226 C 0.03626 0.30464 0.57708 0.0
C227 C 0.03253 0.33503 0.55934 0.0
H228 H 0.04347 0.22577 0.59073 0.0
H229 H 0.03431 0.32517 0.59145 0.0
S230 S 0.03981 0.27893 0.50768 0.0
N231 N 0.04426 0.22453 0.52215 0.0
N232 N 0.03409 0.33191 0.52298 0.0
C233 C 0.03557 0.30649 0.54101 0.0
C234 C 0.04129 0.24819 0.54056 0.0
C235 C 0.06112 0.75789 0.83419 0.0
C236 C 0.02648 0.75694 0.81733 0.0
C237 C 0.11825 0.75255 0.8323 0.0
C238 C 0.14305 0.74544 0.81349 0.0
H239 H 0.04407 0.76287 0.84902 0.0
H240 H 0.14305 0.75353 0.84574 0.0
S241 S 0.07093 0.74067 0.76453 0.0
N242 N 0.02148 0.74892 0.78109 0.0
N243 N 0.12842 0.73856 0.77756 0.0
C244 C 0.10892 0.74458 0.79647 0.0
C245 C 0.05082 0.75045 0.79838 0.0
C246 C 0.51604 0.7943 0.05506 0.0
C247 C 0.52411 0.76891 0.07368 0.0
C248 C 0.51644 0.85162 0.05318 0.0
C249 C 0.52586 0.88611 0.06978 0.0
H250 H 0.50862 0.76976 0.04179 0.0
H251 H 0.51015 0.86892 0.03848 0.0
S252 S 0.54967 0.84049 0.12191 0.0
N253 N 0.54159 0.78291 0.10913 0.0
N254 N 0.54339 0.89054 0.10552 0.0
C255 C 0.53429 0.86134 0.08849 0.0
C256 C 0.53309 0.80287 0.09046 0.0
C257 C 0.58336 0.16305 0.32996 0.0
C258 C 0.6127 0.1708 0.31209 0.0
C259 C 0.52633 0.17116 0.33088 0.0
C260 C 0.49599 0.18668 0.3139 0.0
H261 H 0.60457 0.15062 0.34344 0.0
H262 H 0.50585 0.16469 0.34502 0.0
S263 S 0.55298 0.21271 0.26337 0.0
N264 N 0.60683 0.19551 0.27696 0.0
N265 N 0.49991 0.2102 0.27864 0.0
C266 C 0.52478 0.19467 0.2959 0.0
C267 C 0.58297 0.18696 0.29502 0.0
C268 C 0.07501 0.71492 0.34071 0.0
C269 C 0.05583 0.74272 0.35783 0.0
C270 C 0.07705 0.65732 0.33989 0.0
C271 C 0.05884 0.62522 0.35598 0.0
H272 H 0.08923 0.73782 0.3279 0.0
H273 H 0.09292 0.63782 0.32651 0.0
S274 S 1.00402 0.67782 0.40421 0.0
N275 N 0.018 0.73354 0.39126 0.0
N276 N 0.0209 0.62572 0.38962 0.0
C277 C 0.0389 0.65252 0.37311 0.0
C278 C 0.03771 0.7111 0.37407 0.0
C279 C 0.51061 0.77585 0.6252 0.0
C280 C 0.4859 0.77885 0.6062 0.0
C281 C 0.56729 0.78238 0.62768 0.0
C282 C 0.60199 0.79173 0.61127 0.0
H283 H 0.48595 0.76895 0.6384 0.0
H284 H 0.58393 0.77976 0.64266 0.0
S285 S 0.55821 0.80196 0.55822 0.0
N286 N 0.50065 0.79124 0.57059 0.0
N287 N 0.60743 0.8031 0.5752 0.0
C288 C 0.57798 0.79446 0.59212 0.0
C289 C 0.51996 0.78818 0.58961 0.0
C290 C 0.57014 0.28837 0.8838 0.0
C291 C 0.5895 0.32246 0.86845 0.0
C292 C 0.56424 0.23173 0.88091 0.0
C293 C 0.57799 0.2065 0.86261 0.0
H294 H 0.55904 0.30549 0.8982 0.0
H295 H 0.5493 0.20751 0.89329 0.0
S296 S 0.63022 0.27719 0.81749 0.0
N297 N 0.62206 0.32678 0.83412 0.0
N298 N 0.61141 0.22016 0.82879 0.0
C299 C 0.59742 0.23999 0.8471 0.0
C300 C 0.60301 0.29793 0.84998 0.0
C301 C 0.06005 0.32736 0.09482 0.0
C302 C 0.08855 0.32154 0.11301 0.0
C303 C 1.00302 0.31939 0.09362 0.0
C304 C 0.97192 0.30608 0.11062 0.0
H305 H 0.08192 0.33808 0.08131 0.0
H306 H 0.98312 0.32425 0.07925 0.0
S307 S 0.02656 0.28515 0.16188 0.0
N308 N 0.08106 0.30068 0.14844 0.0
N309 N 0.97419 0.28633 0.14622 0.0
C310 C 0.99986 0.29999 0.12892 0.0
C311 C 0.05802 0.30748 0.1301 0.0
C312 C 0.03726 0.02453 0.44906 0.0
C313 C 0.04644 0.9757 0.43815 0.0
C314 C 0.04196 0.02603 0.46987 0.0
C315 C 0.05589 0.97875 0.48063 0.0
H316 H 0.02507 0.06189 0.44156 0.0
H317 H 0.03285 0.06415 0.47759 0.0
S318 S 0.09036 0.84198 0.45912 0.0
N319 N 0.07449 0.87997 0.43961 0.0
N320 N 0.08357 0.88267 0.47874 0.0
C321 C 0.06763 0.93018 0.46988 0.0
C322 C 0.06284 0.92868 0.44865 0.0
C323 C 0.36104 0.69931 0.70965 0.0
C324 C 0.32246 0.69471 0.72517 0.0
C325 C 0.34426 0.70555 0.68986 0.0
C326 C 0.28826 0.70731 0.68479 0.0
H327 H 0.40464 0.70071 0.71283 0.0
H328 H 0.37562 0.71126 0.6786 0.0
S329 S 0.17093 0.68743 0.71944 0.0
N330 N 0.22585 0.6853 0.73387 0.0
N331 N 0.19418 0.69691 0.69657 0.0
C332 C 0.24923 0.69856 0.69995 0.0
C333 C 0.26638 0.69226 0.72016 0.0
C334 C 0.48635 0.9983 -0.02604 0.0
C335 C 0.48155 0.05464 -0.02181 0.0
C336 C 0.48761 0.97932 0.95424 0.0
C337 C 0.48409 0.01609 0.93815 0.0
H338 H 0.49338 0.96904 -0.01418 0.0
H339 H 0.49527 0.93606 0.95167 0.0
S340 S 0.45634 0.16561 0.94152 0.0
N341 N 0.46241 0.14554 -0.03506 0.0
N342 N 0.46486 0.1098 0.92779 0.0
C343 C 0.47291 0.07161 0.94225 0.0
C344 C 0.47157 0.09092 0.96232 0.0
C345 C 0.33736 0.30588 0.21148 0.0
C346 C 0.29255 0.30817 0.19816 0.0
C347 C 0.33105 0.28655 0.23096 0.0
C348 C 0.27958 0.26931 0.23789 0.0
H349 H 0.37774 0.31963 0.20696 0.0
H350 H 0.36635 0.28699 0.24083 0.0
S351 S 0.15006 0.26261 0.20855 0.0
N352 N 0.19562 0.28822 0.19295 0.0
N353 N 0.18365 0.25202 0.22962 0.0
C354 C 0.23477 0.2695 0.22455 0.0
C355 C 0.24127 0.2889 0.20467 0.0
C356 C 0.73911 0.20504 0.20228 0.0
C357 C 0.77994 0.21305 0.18773 0.0
C358 C 0.75229 0.18577 0.22127 0.0
C359 C 0.80677 0.17323 0.22642 0.0
H360 H 0.69638 0.21353 0.19899 0.0
H361 H 0.71933 0.18015 0.23192 0.0
S362 S 0.92938 0.18849 0.19395 0.0
N363 N 0.87736 0.20815 0.17986 0.0
N364 N 0.90232 0.1716 0.21565 0.0
C365 C 0.84825 0.18152 0.2121 0.0
C366 C 0.83481 0.20166 0.19275 0.0
C367 C 0.85054 0.79359 0.71388 0.0
C368 C 0.80441 0.79551 0.70117 0.0
C369 C 0.84489 0.78667 0.73444 0.0
C370 C 0.79286 0.78139 0.74323 0.0
H371 H 0.89175 0.79676 0.70793 0.0
H372 H 0.88184 0.7849 0.74345 0.0
S373 S 0.65853 0.7865 0.71677 0.0
N374 N 0.70469 0.79358 0.69895 0.0
N375 N 0.69381 0.78069 0.73772 0.0
C376 C 0.74612 0.78441 0.73079 0.0
C377 C 0.75195 0.79149 0.70976 0.0
C378 C 0.57026 0.58129 -0.03106 0.0
C379 C 0.56895 0.5337 0.95689 0.0
C380 C 0.555 0.5799 -0.01099 0.0
C381 C 0.5378 0.53086 -0.00206 0.0
H382 H 0.58231 0.62051 0.96279 0.0
H383 H 0.55607 0.61791 -0.00254 0.0
S384 S 0.53047 0.39375 -0.02665 0.0
N385 N 0.55155 0.43545 0.9556 0.0
N386 N 0.52299 0.43251 -0.00654 0.0
C387 C 0.53789 0.48242 -0.01373 0.0
C388 C 0.55351 0.4839 -0.03426 0.0
C389 C 0.98492 0.5404 0.459 0.0
C390 C 0.97174 0.50782 0.47558 0.0
C391 C 0.99526 0.51646 0.44039 0.0
C392 C 0.99282 0.4592 0.43779 0.0
H393 H 0.99107 0.58422 0.46064 0.0
H394 H 1.00877 0.54277 0.42836 0.0
S395 S 0.94592 0.35771 0.47513 0.0
N396 N 0.94643 0.41681 0.48729 0.0
N397 N 0.96625 0.37175 0.45221 0.0
C398 C 0.97405 0.42686 0.45367 0.0
C399 C 0.96333 0.45124 0.47262 0.0
C400 C 0.25555 0.91288 0.58655 0.0
C401 C 0.23668 0.90842 0.60633 0.0
C402 C 0.22701 0.94502 0.57271 0.0
C403 C 0.18022 0.97475 0.57847 0.0
H404 H 0.28744 0.88577 0.58103 0.0
H405 H 0.23759 0.94136 0.55704 0.0
S406 S 0.12448 0.98905 0.62958 0.0
N407 N 0.17591 0.94526 0.63186 0.0
N408 N 0.12338 1.00701 0.60583 0.0
C409 C 0.16695 0.97791 0.5988 0.0
C410 C 0.19512 0.94433 0.61282 0.0
C411 C 0.43995 0.90041 0.80308 0.0
C412 C 0.39079 0.87186 0.8069 0.0
C413 C 0.46101 0.93816 0.81696 0.0
C414 C 0.43365 0.94803 0.83503 0.0
H415 H 0.46483 0.88994 0.79022 0.0
H416 H 0.50181 0.9546 0.81457 0.0
S417 S 0.29789 0.89444 0.8501 0.0
N418 N 0.31023 0.8648 0.82833 0.0
N419 N 0.35125 0.93447 0.85461 0.0
C420 C 0.38141 0.92542 0.83785 0.0
C421 C 0.35944 0.88764 0.82364 0.0
C422 C 0.39192 0.17198 0.0812 0.0
C423 C 0.44607 0.1841 0.07549 0.0
C424 C 0.36281 0.20729 0.0941 0.0
C425 C 0.3873 0.2553 0.10192 0.0
H426 H 0.37144 0.13605 0.07518 0.0
H427 H 0.3209 0.19695 0.09794 0.0
S428 S 0.53012 0.30276 0.09237 0.0
N429 N 0.52404 0.24555 0.07928 0.0
N430 N 0.47016 0.31151 0.10335 0.0
C431 C 0.44216 0.2667 0.09665 0.0
C432 C 0.47132 0.23118 0.0835 0.0
C433 C 0.19096 0.03058 0.34575 0.0
C434 C 0.13784 0.01786 0.33886 0.0
C435 C 0.22442 0.06763 0.33525 0.0
C436 C 0.20509 0.09293 0.31775 0.0
H437 H 0.20464 0.01589 0.36017 0.0
H438 H 0.26306 0.08038 0.34183 0.0
S439 S 0.07279 0.0654 0.29206 0.0
N440 N 0.07055 0.02743 0.3124 0.0
N441 N 0.13309 0.09639 0.29258 0.0
C442 C 0.15437 0.07593 0.30979 0.0
C443 C 0.12068 0.03856 0.32042 0.0
C444 C 0.82818 0.97951 0.35156 0.0
C445 C 0.87333 0.94417 0.34883 0.0
C446 C 0.80015 1.00099 0.33509 0.0
C447 C 0.81733 0.98809 0.31557 0.0
H448 H 0.81965 0.99679 0.36618 0.0
H449 H 0.77135 0.03412 0.33775 0.0
S450 S 0.91468 0.87788 0.30125 0.0
N451 N 0.91985 0.88218 0.3258 0.0
N452 N 0.86741 0.92309 0.29479 0.0
C453 C 0.85297 0.94317 0.31302 0.0
C454 C 0.88124 0.92098 0.32979 0.0
C455 C 0.69696 0.06821 0.07202 0.0
C456 C 0.69304 0.09541 0.05358 0.0
C457 C 0.72646 0.09166 0.08783 0.0
C458 C 0.75355 0.14215 0.08546 0.0
H459 H 0.67098 0.03328 0.07525 0.0
H460 H 0.72189 0.07409 0.10257 0.0
S461 S 0.77593 0.21541 0.03789 0.0
N462 N 0.73385 0.16462 0.03205 0.0
N463 N 0.78931 0.20867 0.06195 0.0
C464 C 0.76004 0.16266 0.06609 0.0
C465 C 0.72972 0.13899 0.04997 0.0
C466 C 0.74335 0.93834 0.83418 0.0
C467 C 0.76967 0.89098 0.84125 0.0
C468 C 0.70728 0.96796 0.84645 0.0
C469 C 0.6955 0.94978 0.86589 0.0
H470 H 0.74571 0.94883 0.81849 0.0
H471 H 0.68335 1.00061 0.83978 0.0
S472 S 0.76404 0.83568 0.89253 0.0
N473 N 0.79011 0.83359 0.86977 0.0
N474 N 0.72127 0.88835 0.89283 0.0
C475 C 0.72747 0.90714 0.87389 0.0
C476 C 0.76489 0.87776 0.8615 0.0
C477 C 0.83116 0.92623 0.58604 0.0
C478 C 0.84556 0.93684 0.60602 0.0
C479 C 0.86156 0.9492 0.57044 0.0
C480 C 0.90585 0.98458 0.57446 0.0
H481 H 0.80153 0.89448 0.58245 0.0
H482 H 0.85422 0.93466 0.55535 0.0
S483 S 0.94973 0.03603 0.62411 0.0
N484 N 0.89959 0.99243 0.62893 0.0
N485 N 0.95528 0.03753 0.59953 0.0
C486 C 0.91452 1.00227 0.5942 0.0
C487 C 0.88457 0.9778 0.61008 0.0
C488 C 0.62185 0.41479 0.1219 0.0
C489 C 0.67533 0.40455 0.1148 0.0
C490 C 0.58798 0.45371 0.11287 0.0
C491 C 0.60645 0.48458 0.0966 0.0
H492 H 0.60447 0.38979 0.13364 0.0
H493 H 0.54563 0.45677 0.11772 0.0
S494 S 0.74531 0.47986 0.07415 0.0
N495 N 0.7473 0.43317 0.09196 0.0
N496 N 0.68324 0.50721 0.07507 0.0
C497 C 0.66145 0.47901 0.09061 0.0
C498 C 0.69612 0.43878 0.09973 0.0
C499 C 0.89246 0.29225 0.32587 0.0
C500 C 0.91566 0.24221 0.31941 0.0
C501 C 0.92242 0.32911 0.33793 0.0
C502 C 0.9761 0.31655 0.34416 0.0
H503 H 0.85087 0.30295 0.32166 0.0
H504 H 0.90282 0.3666 0.34297 0.0
S505 S 0.05674 0.19247 0.33077 0.0
N506 N 0.9968 0.18345 0.31972 0.0
N507 N 0.05222 0.25224 0.34234 0.0
C508 C 1.00011 0.26737 0.33747 0.0
C509 C 0.97012 0.2303 0.32512 0.0
C510 C 0.90236 0.58922 0.59463 0.0
C511 C 0.88174 0.59424 0.57512 0.0
C512 C 0.8829 0.62319 0.60999 0.0
C513 C 0.84135 0.66198 0.60636 0.0
H514 H 0.93772 0.56346 0.59757 0.0
H515 H 0.90333 0.62201 0.62437 0.0
S516 S 0.76623 0.68214 0.55875 0.0
N517 N 0.81256 0.63462 0.55359 0.0
N518 N 0.77425 0.69705 0.58268 0.0
C519 C 0.81568 0.66219 0.58755 0.0
C520 C 0.83641 0.62858 0.57182 0.0
C521 C 0.75701 0.57296 0.83109 0.0
C522 C 0.79104 0.61799 0.83559 0.0
C523 C 0.73086 0.54379 0.84633 0.0
C524 C 0.73704 0.56008 0.86637 0.0
H525 H 0.74546 0.56447 0.81574 0.0
H526 H 0.69983 0.51393 0.84219 0.0
S527 S 0.83242 0.66564 0.88603 0.0
N528 N 0.83896 0.66928 0.86152 0.0
N529 N 0.78798 0.61578 0.89015 0.0
C530 C 0.77732 0.59922 0.87112 0.0
C531 C 0.80495 0.62799 0.85565 0.0
C532 C 0.42157 0.60379 0.86135 0.0
C533 C 0.46167 0.56303 0.85843 0.0
C534 C 0.3901 0.62307 0.84535 0.0
C535 C 0.39907 0.60318 0.8259 0.0
H536 H 0.4173 0.62363 0.87579 0.0
H537 H 0.36301 0.65771 0.84788 0.0
S538 S 0.49242 0.49017 0.81103 0.0
N539 N 0.50264 0.49762 0.83529 0.0
N540 N 0.445 0.53569 0.80499 0.0
C541 C 0.43505 0.55879 0.82315 0.0
C542 C 0.46606 0.53816 0.83953 0.0
C543 C 0.16083 0.56815 0.57372 0.0
C544 C 0.14915 0.5935 0.55534 0.0
C545 C 0.19672 0.59269 0.58744 0.0
C546 C 0.22323 0.64222 0.58295 0.0
H547 H 0.13781 0.5325 0.57848 0.0
H548 H 0.19977 0.5756 0.60232 0.0
S549 S 0.21662 0.71797 0.53526 0.0
N550 N 0.17416 0.66575 0.5321 0.0
N551 N 0.24271 0.71102 0.5579 0.0
C552 C 0.21767 0.66391 0.56372 0.0
C553 C 0.1803 0.63964 0.54985 0.0
C554 C 0.25503 0.36115 0.37396 0.0
C555 C 0.22332 0.40826 0.36983 0.0
C556 C 0.287 0.3366 0.35899 0.0
C557 C 0.28794 0.35889 0.33971 0.0
H558 H 0.24893 0.33854 0.38767 0.0
H559 H 0.30328 0.29586 0.36162 0.0
S560 S 0.23454 0.49464 0.32462 0.0
N561 N 0.21217 0.48646 0.34769 0.0
N562 N 0.27112 0.43929 0.31941 0.0
C563 C 0.26726 0.41204 0.33701 0.0
C564 C 0.2351 0.43724 0.35224 0.0
C565 C 0.29939 0.52801 0.07877 0.0
C566 C 0.34397 0.56327 0.08278 0.0
C567 C 0.27191 0.50168 0.09438 0.0
C568 C 0.28877 0.51006 0.11427 0.0
H569 H 0.29147 0.51407 0.06364 0.0
H570 H 0.24416 0.46847 0.09059 0.0
S571 S 0.38264 0.61912 0.13241 0.0
N572 N 0.38824 0.62091 0.10784 0.0
N573 N 0.33662 0.5712 0.13722 0.0
C574 C 0.32296 0.55525 0.11837 0.0
C575 C 0.3508 0.58218 0.10249 0.0
loop_
_geom_bond_atom_site_label_1
_geom_bond_atom_site_label_2
_geom_bond_distance
_geom_bond_site_symmetry_2
_ccdc_geom_bond_type
Zn0 O3 2.031 . S
Zn0 O5 2.049 . S
Zn0 O10 2.067 1_455 S
Zn1 O2 1.962 . S
Zn1 O4 1.986 . S
Zn1 O6 1.996 . S
Zn1 O9 1.943 1_455 S
O2 Zn1 1.962 . S
O2 C7 1.254 1_545 S
O3 Zn0 2.031 . S
O3 C7 1.269 . S
O4 Zn1 1.986 . S
O4 C11 1.262 . S
O5 Zn0 2.049 . S
O5 C13 1.260 . S
O6 Zn1 1.996 . S
O6 C13 1.257 1_545 S
C7 O2 1.254 1_565 S
C7 O3 1.269 . S
C8 O9 1.249 1_565 S
C8 O10 1.270 . S
O9 Zn1 1.943 1_655 S
O9 C8 1.249 1_545 S
O10 Zn0 2.067 1_655 S
O10 C8 1.270 . S
C11 O4 1.262 . S
C11 O12 1.232 . S
O12 C11 1.232 . S
C13 O5 1.260 . S
C13 O6 1.257 1_565 S
Zn14 O17 2.031 . S
Zn14 O19 2.049 . S
Zn14 O24 2.067 . S
Zn15 O16 1.962 . S
Zn15 O18 1.986 . S
Zn15 O20 1.996 . S
Zn15 O23 1.943 . S
O16 Zn15 1.962 . S
O16 C21 1.254 . S
O17 Zn14 2.031 . S
O17 C21 1.269 . S
O18 Zn15 1.986 . S
O18 C25 1.262 . S
O19 Zn14 2.049 . S
O19 C27 1.260 . S
O20 Zn15 1.996 . S
O20 C27 1.257 . S
C21 O16 1.254 . S
C21 O17 1.269 . S
C22 O23 1.249 . S
C22 O24 1.270 . S
O23 Zn15 1.943 . S
O23 C22 1.249 . S
O24 Zn14 2.067 . S
O24 C22 1.270 . S
C25 O18 1.262 . S
C25 O26 1.232 . S
O26 C25 1.232 . S
C27 O19 1.260 . S
C27 O20 1.257 . S
Zn28 O31 2.031 . S
Zn28 O33 2.049 . S
Zn28 O38 2.067 . S
Zn29 O30 1.962 . S
Zn29 O32 1.986 . S
Zn29 O34 1.996 . S
Zn29 O37 1.943 . S
O30 Zn29 1.962 . S
O30 C35 1.254 1_565 S
O31 Zn28 2.031 . S
O31 C35 1.269 . S
O32 Zn29 1.986 . S
O32 C39 1.262 . S
O33 Zn28 2.049 . S
O33 C41 1.260 . S
O34 Zn29 1.996 . S
O34 C41 1.257 1_565 S
C35 O30 1.254 1_545 S
C35 O31 1.269 . S
C36 O37 1.249 1_545 S
C36 O38 1.270 . S
O37 Zn29 1.943 . S
O37 C36 1.249 1_565 S
O38 Zn28 2.067 . S
O38 C36 1.270 . S
C39 O32 1.262 . S
C39 O40 1.232 . S
O40 C39 1.232 . S
C41 O33 1.260 . S
C41 O34 1.257 1_545 S
Zn42 O45 2.031 . S
Zn42 O47 2.049 . S
Zn42 O52 2.067 . S
Zn43 O44 1.962 . S
Zn43 O46 1.986 . S
Zn43 O48 1.996 . S
Zn43 O51 1.943 . S
O44 Zn43 1.962 . S
O44 C49 1.254 . S
O45 Zn42 2.031 . S
O45 C49 1.269 . S
O46 Zn43 1.986 . S
O46 C53 1.262 . S
O47 Zn42 2.049 . S
O47 C55 1.260 . S
O48 Zn43 1.996 . S
O48 C55 1.257 . S
C49 O44 1.254 . S
C49 O45 1.269 . S
C50 O51 1.249 . S
C50 O52 1.270 . S
O51 Zn43 1.943 . S
O51 C50 1.249 . S
O52 Zn42 2.067 . S
O52 C50 1.270 . S
C53 O46 1.262 . S
C53 O54 1.232 . S
O54 C53 1.232 . S
C55 O47 1.260 . S
C55 O48 1.257 . S
Zn56 O59 2.031 . S
Zn56 O61 2.049 . S
Zn56 O66 2.067 1_455 S
Zn57 O58 1.962 . S
Zn57 O60 1.986 . S
Zn57 O62 1.996 . S
Zn57 O65 1.943 1_455 S
O58 Zn57 1.962 . S
O58 C63 1.254 1_565 S
O59 Zn56 2.031 . S
O59 C63 1.269 . S
O60 Zn57 1.986 . S
O60 C67 1.262 . S
O61 Zn56 2.049 . S
O61 C69 1.260 . S
O62 Zn57 1.996 . S
O62 C69 1.257 1_565 S
C63 O58 1.254 1_545 S
C63 O59 1.269 . S
C64 O65 1.249 1_545 S
C64 O66 1.270 . S
O65 Zn57 1.943 1_655 S
O65 C64 1.249 1_565 S
O66 Zn56 2.067 1_655 S
O66 C64 1.270 . S
C67 O60 1.262 . S
C67 O68 1.232 . S
O68 C67 1.232 . S
C69 O61 1.260 . S
C69 O62 1.257 1_545 S
Zn70 O73 2.031 . S
Zn70 O75 2.049 . S
Zn70 O80 2.067 . S
Zn71 O72 1.962 . S
Zn71 O74 1.986 . S
Zn71 O76 1.996 . S
Zn71 O79 1.943 . S
O72 Zn71 1.962 . S
O72 C77 1.254 . S
O73 Zn70 2.031 . S
O73 C77 1.269 . S
O74 Zn71 1.986 . S
O74 C81 1.262 . S
O75 Zn70 2.049 . S
O75 C83 1.260 . S
O76 Zn71 1.996 . S
O76 C83 1.257 . S
C77 O72 1.254 . S
C77 O73 1.269 . S
C78 O79 1.249 . S
C78 O80 1.270 . S
O79 Zn71 1.943 . S
O79 C78 1.249 . S
O80 Zn70 2.067 . S
O80 C78 1.270 . S
C81 O74 1.262 . S
C81 O82 1.232 . S
O82 C81 1.232 . S
C83 O75 1.260 . S
C83 O76 1.257 . S
Zn84 O87 2.031 . S
Zn84 O89 2.049 . S
Zn84 O94 2.067 . S
Zn85 O86 1.962 . S
Zn85 O88 1.986 . S
Zn85 O90 1.996 . S
Zn85 O93 1.943 . S
O86 Zn85 1.962 . S
O86 C91 1.254 1_545 S
O87 Zn84 2.031 . S
O87 C91 1.269 . S
O88 Zn85 1.986 . S
O88 C95 1.262 . S
O89 Zn84 2.049 . S
O89 C97 1.260 . S
O90 Zn85 1.996 . S
O90 C97 1.257 1_545 S
C91 O86 1.254 1_565 S
C91 O87 1.269 . S
C92 O93 1.249 1_565 S
C92 O94 1.270 . S
O93 Zn85 1.943 . S
O93 C92 1.249 1_545 S
O94 Zn84 2.067 . S
O94 C92 1.270 . S
C95 O88 1.262 . S
C95 O96 1.232 . S
O96 C95 1.232 . S
C97 O89 1.260 . S
C97 O90 1.257 1_565 S
Zn98 O101 2.031 . S
Zn98 O103 2.049 . S
Zn98 O108 2.067 . S
Zn99 O100 1.962 . S
Zn99 O102 1.986 . S
Zn99 O104 1.996 . S
Zn99 O107 1.943 . S
O100 Zn99 1.962 . S
O100 C105 1.254 . S
O101 Zn98 2.031 . S
O101 C105 1.269 . S
O102 Zn99 1.986 . S
O102 C109 1.262 . S
O103 Zn98 2.049 . S
O103 C111 1.260 . S
O104 Zn99 1.996 . S
O104 C111 1.257 . S
C105 O100 1.254 . S
C105 O101 1.269 . S
C106 O107 1.249 . S
C106 O108 1.270 . S
O107 Zn99 1.943 . S
O107 C106 1.249 . S
O108 Zn98 2.067 . S
O108 C106 1.270 . S
C109 O102 1.262 . S
C109 O110 1.232 . S
O110 C109 1.232 . S
C111 O103 1.260 . S
C111 O104 1.257 . S
Zn112 O115 2.031 . S
Zn112 O117 2.049 . S
Zn112 O122 2.067 . S
Zn113 O114 1.962 . S
Zn113 O116 1.986 . S
Zn113 O118 1.996 . S
Zn113 O121 1.943 . S
O114 Zn113 1.962 . S
O114 C119 1.254 . S
O115 Zn112 2.031 . S
O115 C119 1.269 . S
O116 Zn113 1.986 . S
O116 C123 1.262 . S
O117 Zn112 2.049 . S
O117 C125 1.260 . S
O118 Zn113 1.996 . S
O118 C125 1.257 . S
C119 O114 1.254 . S
C119 O115 1.269 . S
C120 O121 1.249 . S
C120 O122 1.270 . S
O121 Zn113 1.943 . S
O121 C120 1.249 . S
O122 Zn112 2.067 . S
O122 C120 1.270 . S
C123 O116 1.262 . S
C123 O124 1.232 . S
O124 C123 1.232 . S
C125 O117 1.260 . S
C125 O118 1.257 . S
Zn126 O129 2.031 . S
Zn126 O131 2.049 . S
Zn126 O136 2.067 . S
Zn127 O128 1.962 . S
Zn127 O130 1.986 . S
Zn127 O132 1.996 . S
Zn127 O135 1.943 . S
O128 Zn127 1.962 . S
O128 C133 1.254 . S
O129 Zn126 2.031 . S
O129 C133 1.269 . S
O130 Zn127 1.986 . S
O130 C137 1.262 . S
O131 Zn126 2.049 . S
O131 C139 1.260 . S
O132 Zn127 1.996 . S
O132 C139 1.257 . S
C133 O128 1.254 . S
C133 O129 1.269 . S
C134 O135 1.249 . S
C134 O136 1.270 . S
O135 Zn127 1.943 . S
O135 C134 1.249 . S
O136 Zn126 2.067 . S
O136 C134 1.270 . S
C137 O130 1.262 . S
C137 O138 1.232 . S
O138 C137 1.232 . S
C139 O131 1.260 . S
C139 O132 1.257 . S
Zn140 O143 2.031 . S
Zn140 O145 2.049 . S
Zn140 O150 2.067 . S
Zn141 O142 1.962 . S
Zn141 O144 1.986 . S
Zn141 O146 1.996 . S
Zn141 O149 1.943 . S
O142 Zn141 1.962 . S
O142 C147 1.254 . S
O143 Zn140 2.031 . S
O143 C147 1.269 . S
O144 Zn141 1.986 . S
O144 C151 1.262 . S
O145 Zn140 2.049 . S
O145 C153 1.260 . S
O146 Zn141 1.996 . S
O146 C153 1.257 . S
C147 O142 1.254 . S
C147 O143 1.269 . S
C148 O149 1.249 . S
C148 O150 1.270 . S
O149 Zn141 1.943 . S
O149 C148 1.249 . S
O150 Zn140 2.067 . S
O150 C148 1.270 . S
C151 O144 1.262 . S
C151 O152 1.232 . S
O152 C151 1.232 . S
C153 O145 1.260 . S
C153 O146 1.257 . S
Zn154 O157 2.031 . S
Zn154 O159 2.049 . S
Zn154 O164 2.067 . S
Zn155 O156 1.962 . S
Zn155 O158 1.986 . S
Zn155 O160 1.996 . S
Zn155 O163 1.943 . S
O156 Zn155 1.962 . S
O156 C161 1.254 . S
O157 Zn154 2.031 . S
O157 C161 1.269 . S
O158 Zn155 1.986 . S
O158 C165 1.262 . S
O159 Zn154 2.049 . S
O159 C167 1.260 . S
O160 Zn155 1.996 . S
O160 C167 1.257 . S
C161 O156 1.254 . S
C161 O157 1.269 . S
C162 O163 1.249 . S
C162 O164 1.270 . S
O163 Zn155 1.943 . S
O163 C162 1.249 . S
O164 Zn154 2.067 . S
O164 C162 1.270 . S
C165 O158 1.262 . S
C165 O166 1.232 . S
O166 C165 1.232 . S
C167 O159 1.260 . S
C167 O160 1.257 . S
Zn168 O171 2.031 . S
Zn168 O173 2.049 . S
Zn168 O178 2.067 . S
Zn169 O170 1.962 . S
Zn169 O172 1.986 . S
Zn169 O174 1.996 . S
Zn169 O177 1.943 . S
O170 Zn169 1.962 . S
O170 C175 1.254 . S
O171 Zn168 2.031 . S
O171 C175 1.269 . S
O172 Zn169 1.986 . S
O172 C179 1.262 . S
O173 Zn168 2.049 . S
O173 C181 1.260 . S
O174 Zn169 1.996 . S
O174 C181 1.257 . S
C175 O170 1.254 . S
C175 O171 1.269 . S
C176 O177 1.249 . S
C176 O178 1.270 . S
O177 Zn169 1.943 . S
O177 C176 1.249 . S
O178 Zn168 2.067 . S
O178 C176 1.270 . S
C179 O172 1.262 . S
C179 O180 1.232 . S
O180 C179 1.232 . S
C181 O173 1.260 . S
C181 O174 1.257 . S
Zn182 O185 2.031 . S
Zn182 O187 2.049 . S
Zn182 O192 2.067 . S
Zn183 O184 1.962 1_455 S
Zn183 O186 1.986 . S
Zn183 O188 1.996 . S
Zn183 O191 1.943 . S
O184 Zn183 1.962 1_655 S
O184 C189 1.254 . S
O185 Zn182 2.031 . S
O185 C189 1.269 1_455 S
O186 Zn183 1.986 . S
O186 C193 1.262 . S
O187 Zn182 2.049 . S
O187 C195 1.260 . S
O188 Zn183 1.996 . S
O188 C195 1.257 . S
C189 O184 1.254 . S
C189 O185 1.269 1_655 S
C190 O191 1.249 . S
C190 O192 1.270 . S
O191 Zn183 1.943 . S
O191 C190 1.249 . S
O192 Zn182 2.067 . S
O192 C190 1.270 . S
C193 O186 1.262 . S
C193 O194 1.232 . S
O194 C193 1.232 . S
C195 O187 1.260 . S
C195 O188 1.257 . S
Zn196 O199 2.031 . S
Zn196 O201 2.049 . S
Zn196 O206 2.067 . S
Zn197 O198 1.962 . S
Zn197 O200 1.986 . S
Zn197 O202 1.996 . S
Zn197 O205 1.943 . S
O198 Zn197 1.962 . S
O198 C203 1.254 . S
O199 Zn196 2.031 . S
O199 C203 1.269 . S
O200 Zn197 1.986 . S
O200 C207 1.262 . S
O201 Zn196 2.049 . S
O201 C209 1.260 . S
O202 Zn197 1.996 . S
O202 C209 1.257 . S
C203 O198 1.254 . S
C203 O199 1.269 . S
C204 O205 1.249 . S
C204 O206 1.270 . S
O205 Zn197 1.943 . S
O205 C204 1.249 . S
O206 Zn196 2.067 . S
O206 C204 1.270 . S
C207 O200 1.262 . S
C207 O208 1.232 . S
O208 C207 1.232 . S
C209 O201 1.260 . S
C209 O202 1.257 . S
Zn210 O213 2.031 . S
Zn210 O215 2.049 . S
Zn210 O220 2.067 . S
Zn211 O212 1.962 1_455 S
Zn211 O214 1.986 . S
Zn211 O216 1.996 . S
Zn211 O219 1.943 . S
O212 Zn211 1.962 1_655 S
O212 C217 1.254 . S
O213 Zn210 2.031 . S
O213 C217 1.269 1_455 S
O214 Zn211 1.986 . S
O214 C221 1.262 . S
O215 Zn210 2.049 . S
O215 C223 1.260 . S
O216 Zn211 1.996 . S
O216 C223 1.257 . S
C217 O212 1.254 . S
C217 O213 1.269 1_655 S
C218 O219 1.249 . S
C218 O220 1.270 . S
O219 Zn211 1.943 . S
O219 C218 1.249 . S
O220 Zn210 2.067 . S
O220 C218 1.270 . S
C221 O214 1.262 . S
C221 O222 1.232 . S
O222 C221 1.232 . S
C223 O215 1.260 . S
C223 O216 1.257 . S
C224 C225 1.369 . S
C224 C226 1.419 . S
C224 H228 0.930 . S
C225 C224 1.369 . S
C225 C234 1.429 1_455 S
C226 C224 1.419 . S
C226 C227 1.363 . S
C226 H229 0.929 . S
C227 C226 1.363 . S
C227 C233 1.428 . S
H228 C224 0.930 . S
H229 C226 0.929 . S
S230 N231 1.613 . S
S230 N232 1.610 . S
N231 S230 1.613 . S
N231 C234 1.350 . S
N232 S230 1.610 . S
N232 C233 1.351 1_655 S
C233 C227 1.428 . S
C233 N232 1.351 1_455 S
C233 C234 1.434 1_455 S
C234 C225 1.429 1_655 S
C234 N231 1.350 . S
C234 C233 1.434 1_655 S
C235 C236 1.369 1_455 S
C235 C237 1.419 . S
C235 H239 0.930 1_455 S
C236 C235 1.369 1_655 S
C236 C245 1.429 1_655 S
C237 C235 1.419 . S
C237 C238 1.363 . S
C237 H240 0.929 . S
C238 C237 1.363 . S
C238 C244 1.428 . S
H239 C235 0.930 1_655 S
H240 C237 0.929 . S
S241 N242 1.613 1_455 S
S241 N243 1.610 . S
N242 S241 1.613 1_655 S
N242 C245 1.350 1_655 S
N243 S241 1.610 . S
N243 C244 1.351 . S
C244 C238 1.428 . S
C244 N243 1.351 . S
C244 C245 1.434 . S
C245 C236 1.429 1_455 S
C245 N242 1.350 1_455 S
C245 C244 1.434 . S
C246 C247 1.369 . S
C246 C248 1.419 . S
C246 H250 0.930 . S
C247 C246 1.369 . S
C247 C256 1.429 . S
C248 C246 1.419 . S
C248 C249 1.363 . S
C248 H251 0.929 . S
C249 C248 1.363 . S
C249 C255 1.428 . S
H250 C246 0.930 . S
H251 C248 0.929 . S
S252 N253 1.613 . S
S252 N254 1.610 . S
N253 S252 1.613 . S
N253 C256 1.350 . S
N254 S252 1.610 . S
N254 C255 1.351 . S
C255 C249 1.428 . S
C255 N254 1.351 . S
C255 C256 1.434 . S
C256 C247 1.429 . S
C256 N253 1.350 . S
C256 C255 1.434 . S
C257 C258 1.369 . S
C257 C259 1.419 . S
C257 H261 0.930 . S
C258 C257 1.369 . S
C258 C267 1.429 . S
C259 C257 1.419 . S
C259 C260 1.363 . S
C259 H262 0.929 . S
C260 C259 1.363 . S
C260 C266 1.428 . S
H261 C257 0.930 . S
H262 C259 0.929 . S
S263 N264 1.613 . S
S263 N265 1.610 . S
N264 S263 1.613 . S
N264 C267 1.350 . S
N265 S263 1.610 . S
N265 C266 1.351 . S
C266 C260 1.428 . S
C266 N265 1.351 . S
C266 C267 1.434 . S
C267 C258 1.429 . S
C267 N264 1.350 . S
C267 C266 1.434 . S
C268 C269 1.369 . S
C268 C270 1.419 . S
C268 H272 0.930 . S
C269 C268 1.369 . S
C269 C278 1.429 . S
C270 C268 1.419 . S
C270 C271 1.363 . S
C270 H273 0.929 . S
C271 C270 1.363 . S
C271 C277 1.428 . S
H272 C268 0.930 . S
H273 C270 0.929 . S
S274 N275 1.613 . S
S274 N276 1.610 . S
N275 S274 1.613 . S
N275 C278 1.349 1_655 S
N276 S274 1.610 . S
N276 C277 1.351 1_655 S
C277 C271 1.428 . S
C277 N276 1.351 1_455 S
C277 C278 1.434 . S
C278 C269 1.429 . S
C278 N275 1.349 1_455 S
C278 C277 1.434 . S
C279 C280 1.369 . S
C279 C281 1.419 . S
C279 H283 0.930 . S
C280 C279 1.369 . S
C280 C289 1.429 . S
C281 C279 1.419 . S
C281 C282 1.363 . S
C281 H284 0.929 . S
C282 C281 1.363 . S
C282 C288 1.428 . S
H283 C279 0.930 . S
H284 C281 0.929 . S
S285 N286 1.613 . S
S285 N287 1.610 . S
N286 S285 1.613 . S
N286 C289 1.350 . S
N287 S285 1.610 . S
N287 C288 1.351 . S
C288 C282 1.428 . S
C288 N287 1.351 . S
C288 C289 1.434 . S
C289 C280 1.429 . S
C289 N286 1.350 . S
C289 C288 1.434 . S
C290 C291 1.369 . S
C290 C292 1.419 . S
C290 H294 0.930 . S
C291 C290 1.369 . S
C291 C300 1.429 . S
C292 C290 1.419 . S
C292 C293 1.363 . S
C292 H295 0.929 . S
C293 C292 1.363 . S
C293 C299 1.428 . S
H294 C290 0.930 . S
H295 C292 0.929 . S
S296 N297 1.613 . S
S296 N298 1.610 . S
N297 S296 1.613 . S
N297 C300 1.350 . S
N298 S296 1.610 . S
N298 C299 1.351 . S
C299 C293 1.428 . S
C299 N298 1.351 . S
C299 C300 1.434 . S
C300 C291 1.429 . S
C300 N297 1.350 . S
C300 C299 1.434 . S
C301 C302 1.369 . S
C301 C303 1.419 . S
C301 H305 0.930 . S
C302 C301 1.369 . S
C302 C311 1.429 . S
C303 C301 1.419 . S
C303 C304 1.363 1_455 S
C303 H306 0.929 1_455 S
C304 C303 1.363 1_655 S
C304 C310 1.428 1_655 S
H305 C301 0.930 . S
H306 C303 0.929 1_655 S
S307 N308 1.613 . S
S307 N309 1.610 1_455 S
N308 S307 1.613 . S
N308 C311 1.350 . S
N309 S307 1.610 1_655 S
N309 C310 1.351 1_655 S
C310 C304 1.428 1_455 S
C310 N309 1.351 1_455 S
C310 C311 1.434 . S
C311 C302 1.429 . S
C311 N308 1.350 . S
C311 C310 1.434 . S
C312 C313 1.369 1_545 S
C312 C314 1.419 . S
C312 H316 0.930 . S
C313 C312 1.369 1_565 S
C313 C322 1.429 . S
C314 C312 1.419 . S
C314 C315 1.363 . S
C314 H317 0.929 . S
C315 C314 1.363 . S
C315 C321 1.428 1_545 S
H316 C312 0.930 . S
H317 C314 0.929 . S
S318 N319 1.613 . S
S318 N320 1.610 . S
N319 S318 1.613 . S
N319 C322 1.350 . S
N320 S318 1.610 . S
N320 C321 1.351 . S
C321 C315 1.428 1_565 S
C321 N320 1.351 . S
C321 C322 1.434 . S
C322 C313 1.429 . S
C322 N319 1.350 . S
C322 C321 1.434 . S
C323 C324 1.369 . S
C323 C325 1.419 . S
C323 H327 0.930 . S
C324 C323 1.369 . S
C324 C333 1.429 . S
C325 C323 1.419 . S
C325 C326 1.363 . S
C325 H328 0.929 . S
C326 C325 1.363 . S
C326 C332 1.428 . S
H327 C323 0.930 . S
H328 C325 0.929 . S
S329 N330 1.613 . S
S329 N331 1.610 . S
N330 S329 1.613 . S
N330 C333 1.350 . S
N331 S329 1.610 . S
N331 C332 1.351 . S
C332 C326 1.428 . S
C332 N331 1.351 . S
C332 C333 1.434 . S
C333 C324 1.429 . S
C333 N330 1.350 . S
C333 C332 1.434 . S
C334 C335 1.369 . S
C334 C336 1.419 1_554 S
C334 H338 0.930 . S
C335 C334 1.369 . S
C335 C344 1.429 1_565 S
C336 C334 1.419 1_556 S
C336 C337 1.363 1_565 S
C336 H339 0.929 . S
C337 C336 1.363 1_545 S
C337 C343 1.428 . S
H338 C334 0.930 . S
H339 C336 0.929 . S
S340 N341 1.613 . S
S340 N342 1.610 1_554 S
N341 S340 1.613 . S
N341 C344 1.350 . S
N342 S340 1.610 1_556 S
N342 C343 1.351 . S
C343 C337 1.428 . S
C343 N342 1.351 . S
C343 C344 1.434 1_556 S
C344 C335 1.429 1_545 S
C344 N341 1.350 . S
C344 C343 1.434 1_554 S
C345 C346 1.369 . S
C345 C347 1.419 . S
C345 H349 0.930 . S
C346 C345 1.369 . S
C346 C355 1.429 . S
C347 C345 1.419 . S
C347 C348 1.363 . S
C347 H350 0.929 . S
C348 C347 1.363 . S
C348 C354 1.428 . S
H349 C345 0.930 . S
H350 C347 0.929 . S
S351 N352 1.613 . S
S351 N353 1.610 . S
N352 S351 1.613 . S
N352 C355 1.350 . S
N353 S351 1.610 . S
N353 C354 1.351 . S
C354 C348 1.428 . S
C354 N353 1.351 . S
C354 C355 1.434 . S
C355 C346 1.429 . S
C355 N352 1.350 . S
C355 C354 1.434 . S
C356 C357 1.369 . S
C356 C358 1.419 . S
C356 H360 0.930 . S
C357 C356 1.369 . S
C357 C366 1.429 . S
C358 C356 1.419 . S
C358 C359 1.363 . S
C358 H361 0.929 . S
C359 C358 1.363 . S
C359 C365 1.428 . S
H360 C356 0.930 . S
H361 C358 0.929 . S
S362 N363 1.613 . S
S362 N364 1.610 . S
N363 S362 1.613 . S
N363 C366 1.350 . S
N364 S362 1.610 . S
N364 C365 1.351 . S
C365 C359 1.428 . S
C365 N364 1.351 . S
C365 C366 1.434 . S
C366 C357 1.429 . S
C366 N363 1.350 . S
C366 C365 1.434 . S
C367 C368 1.369 . S
C367 C369 1.419 . S
C367 H371 0.930 . S
C368 C367 1.369 . S
C368 C377 1.429 . S
C369 C367 1.419 . S
C369 C370 1.363 . S
C369 H372 0.929 . S
C370 C369 1.363 . S
C370 C376 1.428 . S
H371 C367 0.930 . S
H372 C369 0.929 . S
S373 N374 1.613 . S
S373 N375 1.610 . S
N374 S373 1.613 . S
N374 C377 1.350 . S
N375 S373 1.610 . S
N375 C376 1.351 . S
C376 C370 1.428 . S
C376 N375 1.351 . S
C376 C377 1.434 . S
C377 C368 1.429 . S
C377 N374 1.350 . S
C377 C376 1.434 . S
C378 C379 1.369 . S
C378 C380 1.419 1_556 S
C378 H382 0.930 . S
C379 C378 1.369 . S
C379 C388 1.429 . S
C380 C378 1.419 1_554 S
C380 C381 1.363 . S
C380 H383 0.929 . S
C381 C380 1.363 . S
C381 C387 1.428 . S
H382 C378 0.930 . S
H383 C380 0.929 . S
S384 N385 1.613 1_554 S
S384 N386 1.610 . S
N385 S384 1.613 1_556 S
N385 C388 1.350 . S
N386 S384 1.610 . S
N386 C387 1.351 . S
C387 C381 1.428 . S
C387 N386 1.351 . S
C387 C388 1.434 1_554 S
C388 C379 1.429 . S
C388 N385 1.350 . S
C388 C387 1.434 1_556 S
C389 C390 1.369 . S
C389 C391 1.419 . S
C389 H393 0.930 . S
C390 C389 1.369 . S
C390 C399 1.429 . S
C391 C389 1.419 . S
C391 C392 1.363 . S
C391 H394 0.929 . S
C392 C391 1.363 . S
C392 C398 1.428 . S
H393 C389 0.930 . S
H394 C391 0.929 . S
S395 N396 1.613 . S
S395 N397 1.610 . S
N396 S395 1.613 . S
N396 C399 1.350 1_655 S
N397 S395 1.610 . S
N397 C398 1.351 1_655 S
C398 C392 1.428 . S
C398 N397 1.351 1_455 S
C398 C399 1.434 . S
C399 C390 1.429 . S
C399 N396 1.350 1_455 S
C399 C398 1.434 . S
C400 C401 1.369 . S
C400 C402 1.419 . S
C400 H404 0.930 . S
C401 C400 1.369 . S
C401 C410 1.429 . S
C402 C400 1.419 . S
C402 C403 1.363 . S
C402 H405 0.929 . S
C403 C402 1.363 . S
C403 C409 1.428 . S
H404 C400 0.930 . S
H405 C402 0.929 . S
S406 N407 1.613 . S
S406 N408 1.610 . S
N407 S406 1.613 . S
N407 C410 1.350 . S
N408 S406 1.610 . S
N408 C409 1.351 . S
C409 C403 1.428 . S
C409 N408 1.351 . S
C409 C410 1.434 . S
C410 C401 1.429 . S
C410 N407 1.350 . S
C410 C409 1.434 . S
C411 C412 1.369 . S
C411 C413 1.419 . S
C411 H415 0.930 . S
C412 C411 1.369 . S
C412 C421 1.429 . S
C413 C411 1.419 . S
C413 C414 1.363 . S
C413 H416 0.929 . S
C414 C413 1.363 . S
C414 C420 1.428 . S
H415 C411 0.930 . S
H416 C413 0.929 . S
S417 N418 1.613 . S
S417 N419 1.610 . S
N418 S417 1.613 . S
N418 C421 1.350 . S
N419 S417 1.610 . S
N419 C420 1.351 . S
C420 C414 1.428 . S
C420 N419 1.351 . S
C420 C421 1.434 . S
C421 C412 1.429 . S
C421 N418 1.350 . S
C421 C420 1.434 . S
C422 C423 1.369 . S
C422 C424 1.419 . S
C422 H426 0.930 . S
C423 C422 1.369 . S
C423 C432 1.429 . S
C424 C422 1.419 . S
C424 C425 1.363 . S
C424 H427 0.929 . S
C425 C424 1.363 . S
C425 C431 1.428 . S
H426 C422 0.930 . S
H427 C424 0.929 . S
S428 N429 1.613 . S
S428 N430 1.610 . S
N429 S428 1.613 . S
N429 C432 1.350 . S
N430 S428 1.610 . S
N430 C431 1.351 . S
C431 C425 1.428 . S
C431 N430 1.351 . S
C431 C432 1.434 . S
C432 C423 1.429 . S
C432 N429 1.350 . S
C432 C431 1.434 . S
C433 C434 1.369 . S
C433 C435 1.419 . S
C433 H437 0.930 . S
C434 C433 1.369 . S
C434 C443 1.429 . S
C435 C433 1.419 . S
C435 C436 1.363 . S
C435 H438 0.929 . S
C436 C435 1.363 . S
C436 C442 1.428 . S
H437 C433 0.930 . S
H438 C435 0.929 . S
S439 N440 1.613 . S
S439 N441 1.610 . S
N440 S439 1.613 . S
N440 C443 1.350 . S
N441 S439 1.610 . S
N441 C442 1.351 . S
C442 C436 1.428 . S
C442 N441 1.351 . S
C442 C443 1.434 . S
C443 C434 1.429 . S
C443 N440 1.350 . S
C443 C442 1.434 . S
C444 C445 1.369 . S
C444 C446 1.419 . S
C444 H448 0.930 . S
C445 C444 1.369 . S
C445 C454 1.429 . S
C446 C444 1.419 . S
C446 C447 1.363 . S
C446 H449 0.929 . S
C447 C446 1.363 . S
C447 C453 1.428 . S
H448 C444 0.930 . S
H449 C446 0.929 . S
S450 N451 1.613 . S
S450 N452 1.610 1_565 S
N451 S450 1.613 . S
N451 C454 1.350 1_565 S
N452 S450 1.610 1_545 S
N452 C453 1.351 . S
C453 C447 1.428 . S
C453 N452 1.351 . S
C453 C454 1.434 . S
C454 C445 1.429 . S
C454 N451 1.350 1_545 S
C454 C453 1.434 . S
C455 C456 1.369 . S
C455 C457 1.419 . S
C455 H459 0.930 . S
C456 C455 1.369 . S
C456 C465 1.429 . S
C457 C455 1.419 . S
C457 C458 1.363 . S
C457 H460 0.929 . S
C458 C457 1.363 . S
C458 C464 1.428 . S
H459 C455 0.930 . S
H460 C457 0.929 . S
S461 N462 1.613 . S
S461 N463 1.610 . S
N462 S461 1.613 . S
N462 C465 1.350 . S
N463 S461 1.610 . S
N463 C464 1.351 . S
C464 C458 1.428 . S
C464 N463 1.351 . S
C464 C465 1.434 . S
C465 C456 1.429 . S
C465 N462 1.350 . S
C465 C464 1.434 . S
C466 C467 1.369 . S
C466 C468 1.419 . S
C466 H470 0.930 . S
C467 C466 1.369 . S
C467 C476 1.429 . S
C468 C466 1.419 . S
C468 C469 1.363 . S
C468 H471 0.929 . S
C469 C468 1.363 . S
C469 C475 1.428 . S
H470 C466 0.930 . S
H471 C468 0.929 . S
S472 N473 1.613 . S
S472 N474 1.610 . S
N473 S472 1.613 . S
N473 C476 1.350 . S
N474 S472 1.610 . S
N474 C475 1.351 . S
C475 C469 1.428 . S
C475 N474 1.351 . S
C475 C476 1.434 . S
C476 C467 1.429 . S
C476 N473 1.350 . S
C476 C475 1.434 . S
C477 C478 1.369 . S
C477 C479 1.419 . S
C477 H481 0.930 . S
C478 C477 1.369 . S
C478 C487 1.429 . S
C479 C477 1.419 . S
C479 C480 1.363 . S
C479 H482 0.929 . S
C480 C479 1.363 . S
C480 C486 1.428 . S
H481 C477 0.930 . S
H482 C479 0.929 . S
S483 N484 1.613 . S
S483 N485 1.610 . S
N484 S483 1.613 . S
N484 C487 1.350 . S
N485 S483 1.610 . S
N485 C486 1.351 . S
C486 C480 1.428 . S
C486 N485 1.351 . S
C486 C487 1.434 . S
C487 C478 1.429 . S
C487 N484 1.350 . S
C487 C486 1.434 . S
C488 C489 1.369 . S
C488 C490 1.419 . S
C488 H492 0.930 . S
C489 C488 1.369 . S
C489 C498 1.429 . S
C490 C488 1.419 . S
C490 C491 1.363 . S
C490 H493 0.929 . S
C491 C490 1.363 . S
C491 C497 1.428 . S
H492 C488 0.930 . S
H493 C490 0.929 . S
S494 N495 1.613 . S
S494 N496 1.610 . S
N495 S494 1.613 . S
N495 C498 1.350 . S
N496 S494 1.610 . S
N496 C497 1.351 . S
C497 C491 1.428 . S
C497 N496 1.351 . S
C497 C498 1.434 . S
C498 C489 1.429 . S
C498 N495 1.350 . S
C498 C497 1.434 . S
C499 C500 1.369 . S
C499 C501 1.419 . S
C499 H503 0.930 . S
C500 C499 1.369 . S
C500 C509 1.429 . S
C501 C499 1.419 . S
C501 C502 1.363 . S
C501 H504 0.929 . S
C502 C501 1.363 . S
C502 C508 1.428 . S
H503 C499 0.930 . S
H504 C501 0.929 . S
S505 N506 1.613 . S
S505 N507 1.610 . S
N506 S505 1.613 . S
N506 C509 1.350 . S
N507 S505 1.610 . S
N507 C508 1.351 . S
C508 C502 1.428 . S
C508 N507 1.351 . S
C508 C509 1.434 . S
C509 C500 1.429 . S
C509 N506 1.350 . S
C509 C508 1.434 . S
C510 C511 1.369 . S
C510 C512 1.419 . S
C510 H514 0.930 . S
C511 C510 1.369 . S
C511 C520 1.429 . S
C512 C510 1.419 . S
C512 C513 1.363 . S
C512 H515 0.929 . S
C513 C512 1.363 . S
C513 C519 1.428 . S
H514 C510 0.930 . S
H515 C512 0.929 . S
S516 N517 1.613 . S
S516 N518 1.610 . S
N517 S516 1.613 . S
N517 C520 1.350 . S
N518 S516 1.610 . S
N518 C519 1.351 . S
C519 C513 1.428 . S
C519 N518 1.351 . S
C519 C520 1.434 . S
C520 C511 1.429 . S
C520 N517 1.350 . S
C520 C519 1.434 . S
C521 C522 1.369 . S
C521 C523 1.419 . S
C521 H525 0.930 . S
C522 C521 1.369 . S
C522 C531 1.429 . S
C523 C521 1.419 . S
C523 C524 1.363 . S
C523 H526 0.929 . S
C524 C523 1.363 . S
C524 C530 1.428 . S
H525 C521 0.930 . S
H526 C523 0.929 . S
S527 N528 1.613 . S
S527 N529 1.610 . S
N528 S527 1.613 . S
N528 C531 1.350 . S
N529 S527 1.610 . S
N529 C530 1.351 . S
C530 C524 1.428 . S
C530 N529 1.351 . S
C530 C531 1.434 . S
C531 C522 1.429 . S
C531 N528 1.350 . S
C531 C530 1.434 . S
C532 C533 1.369 . S
C532 C534 1.419 . S
C532 H536 0.930 . S
C533 C532 1.369 . S
C533 C542 1.429 . S
C534 C532 1.419 . S
C534 C535 1.363 . S
C534 H537 0.929 . S
C535 C534 1.363 . S
C535 C541 1.428 . S
H536 C532 0.930 . S
H537 C534 0.929 . S
S538 N539 1.613 . S
S538 N540 1.610 . S
N539 S538 1.613 . S
N539 C542 1.350 . S
N540 S538 1.610 . S
N540 C541 1.351 . S
C541 C535 1.428 . S
C541 N540 1.351 . S
C541 C542 1.434 . S
C542 C533 1.429 . S
C542 N539 1.350 . S
C542 C541 1.434 . S
C543 C544 1.369 . S
C543 C545 1.419 . S
C543 H547 0.930 . S
C544 C543 1.369 . S
C544 C553 1.429 . S
C545 C543 1.419 . S
C545 C546 1.363 . S
C545 H548 0.929 . S
C546 C545 1.363 . S
C546 C552 1.428 . S
H547 C543 0.930 . S
H548 C545 0.929 . S
S549 N550 1.613 . S
S549 N551 1.610 . S
N550 S549 1.613 . S
N550 C553 1.350 . S
N551 S549 1.610 . S
N551 C552 1.351 . S
C552 C546 1.428 . S
C552 N551 1.351 . S
C552 C553 1.434 . S
C553 C544 1.429 . S
C553 N550 1.350 . S
C553 C552 1.434 . S
C554 C555 1.369 . S
C554 C556 1.419 . S
C554 H558 0.930 . S
C555 C554 1.369 . S
C555 C564 1.429 . S
C556 C554 1.419 . S
C556 C557 1.363 . S
C556 H559 0.929 . S
C557 C556 1.363 . S
C557 C563 1.428 . S
H558 C554 0.930 . S
H559 C556 0.929 . S
S560 N561 1.613 . S
S560 N562 1.610 . S
N561 S560 1.613 . S
N561 C564 1.350 . S
N562 S560 1.610 . S
N562 C563 1.351 . S
C563 C557 1.428 . S
C563 N562 1.351 . S
C563 C564 1.434 . S
C564 C555 1.429 . S
C564 N561 1.350 . S
C564 C563 1.434 . S
C565 C566 1.369 . S
C565 C567 1.419 . S
C565 H569 0.930 . S
C566 C565 1.369 . S
C566 C575 1.429 . S
C567 C565 1.419 . S
C567 C568 1.363 . S
C567 H570 0.929 . S
C568 C567 1.363 . S
C568 C574 1.428 . S
H569 C565 0.930 . S
H570 C567 0.929 . S
S571 N572 1.613 . S
S571 N573 1.610 . S
N572 S571 1.613 . S
N572 C575 1.350 . S
N573 S571 1.610 . S
N573 C574 1.351 . S
C574 C568 1.428 . S
C574 N573 1.351 . S
C574 C575 1.434 . S
C575 C566 1.429 . S
C575 N572 1.350 . S
C575 C574 1.434 . S
C225 C11 1.185 . S
C227 C193 1.183 . S
C236 C165 1.185 . S
C238 C25 1.183 . S
C247 C179 1.186 . S
C249 C39 1.184 . S
C258 C151 1.184 . S
C260 C53 1.184 . S
C269 C67 1.185 . S
C271 C221 1.183 . S
C280 C81 1.187 . S
C282 C137 1.183 . S
C291 C207 1.185 . S
C293 C95 1.185 . S
C302 C109 1.185 . S
C304 C123 1.183 . S
C313 C69 1.476 1_565 S
C315 C13 1.466 1_545 S
C324 C27 1.471 . S
C326 C83 1.471 . S
C335 C41 1.465 1_565 S
C337 C97 1.474 1_545 S
C346 C111 1.472 . S
C348 C55 1.470 . S
C357 C125 1.473 . S
C359 C153 1.470 . S
C368 C139 1.475 . S
C370 C167 1.465 . S
C379 C209 1.473 . S
C381 C181 1.469 . S
C390 C195 1.474 . S
C392 C223 1.465 . S
C401 C77 1.424 . S
C403 C7 1.427 . S
C412 C21 1.432 . S
C414 C91 1.427 . S
C423 C35 1.426 . S
C425 C105 1.425 . S
C434 C63 1.430 . S
C436 C49 1.424 . S
C445 C64 1.316 . S
C447 C148 1.312 . S
C456 C36 1.311 . S
C458 C120 1.316 . S
C467 C162 1.310 . S
C469 C92 1.308 . S
C478 C134 1.307 . S
C480 C8 1.310 . S
C489 C119 1.431 . S
C491 C175 1.429 . S
C500 C147 1.427 . S
C502 C217 1.425 . S
C511 C189 1.424 . S
C513 C133 1.430 . S
C522 C161 1.431 . S
C524 C203 1.425 . S
C533 C204 1.317 . S
C535 C22 1.313 . S
C544 C190 1.309 . S
C546 C78 1.315 . S
C555 C218 1.314 . S
C557 C50 1.307 . S
C566 C176 1.317 . S
C568 C106 1.309 . S
