# Generated by pormake.
# Topology umk, (4)-cn, num edge types: 1
# Building blocks:
#     Node 0, Type 0, BuildingBlock: KUFVIS_clean_sbu_0, # of connection points: 4
#     Node 1, Type 0, BuildingBlock: KUFVIS_clean_sbu_0, # of connection points: 4
#     Node 2, Type 0, BuildingBlock: KUFVIS_clean_sbu_0, # of connection points: 4
#     Node 3, Type 0, BuildingBlock: KUFVIS_clean_sbu_0, # of connection points: 4
#     Node 4, Type 0, BuildingBlock: KUFVIS_clean_sbu_0, # of connection points: 4
#     Node 5, Type 0, BuildingBlock: KUFVIS_clean_sbu_0, # of connection points: 4
#     Node 6, Type 0, BuildingBlock: KUFVIS_clean_sbu_0, # of connection points: 4
#     Node 7, Type 0, BuildingBlock: KUFVIS_clean_sbu_0, # of connection points: 4
#     Node 8, Type 0, BuildingBlock: KUFVIS_clean_sbu_0, # of connection points: 4
#     Node 9, Type 0, BuildingBlock: KUFVIS_clean_sbu_0, # of connection points: 4
#     Node 10, Type 0, BuildingBlock: KUFVIS_clean_sbu_0, # of connection points: 4
#     Node 11, Type 0, BuildingBlock: KUFVIS_clean_sbu_0, # of connection points: 4
#     Node 12, Type 0, BuildingBlock: KUFVIS_clean_sbu_0, # of connection points: 4
#     Node 13, Type 0, BuildingBlock: KUFVIS_clean_sbu_0, # of connection points: 4
#     Node 14, Type 0, BuildingBlock: KUFVIS_clean_sbu_0, # of connection points: 4
#     Node 15, Type 0, BuildingBlock: KUFVIS_clean_sbu_0, # of connection points: 4
#     Node 16, Type 0, BuildingBlock: KUFVIS_clean_sbu_0, # of connection points: 4
#     Node 17, Type 0, BuildingBlock: KUFVIS_clean_sbu_0, # of connection points: 4
#     Node 18, Type 0, BuildingBlock: KUFVIS_clean_sbu_0, # of connection points: 4
#     Node 19, Type 0, BuildingBlock: KUFVIS_clean_sbu_0, # of connection points: 4
#     Node 20, Type 0, BuildingBlock: KUFVIS_clean_sbu_0, # of connection points: 4
#     Node 21, Type 0, BuildingBlock: KUFVIS_clean_sbu_0, # of connection points: 4
#     Node 22, Type 0, BuildingBlock: KUFVIS_clean_sbu_0, # of connection points: 4
#     Node 23, Type 0, BuildingBlock: KUFVIS_clean_sbu_0, # of connection points: 4
#     Edge 24, Type (0, 0), BuildingBlock: CIFDUS_clean_linker_0, # of connection points: 2
#     Edge 25, Type (0, 0), BuildingBlock: CIFDUS_clean_linker_0, # of connection points: 2
#     Edge 26, Type (0, 0), BuildingBlock: CIFDUS_clean_linker_0, # of connection points: 2
#     Edge 27, Type (0, 0), BuildingBlock: CIFDUS_clean_linker_0, # of connection points: 2
#     Edge 28, Type (0, 0), BuildingBlock: CIFDUS_clean_linker_0, # of connection points: 2
#     Edge 29, Type (0, 0), BuildingBlock: CIFDUS_clean_linker_0, # of connection points: 2
#     Edge 30, Type (0, 0), BuildingBlock: CIFDUS_clean_linker_0, # of connection points: 2
#     Edge 31, Type (0, 0), BuildingBlock: CIFDUS_clean_linker_0, # of connection points: 2
#     Edge 32, Type (0, 0), BuildingBlock: CIFDUS_clean_linker_0, # of connection points: 2
#     Edge 33, Type (0, 0), BuildingBlock: CIFDUS_clean_linker_0, # of connection points: 2
#     Edge 34, Type (0, 0), BuildingBlock: CIFDUS_clean_linker_0, # of connection points: 2
#     Edge 35, Type (0, 0), BuildingBlock: CIFDUS_clean_linker_0, # of connection points: 2
#     Edge 36, Type (0, 0), BuildingBlock: CIFDUS_clean_linker_0, # of connection points: 2
#     Edge 37, Type (0, 0), BuildingBlock: CIFDUS_clean_linker_0, # of connection points: 2
#     Edge 38, Type (0, 0), BuildingBlock: CIFDUS_clean_linker_0, # of connection points: 2
#     Edge 39, Type (0, 0), BuildingBlock: CIFDUS_clean_linker_0, # of connection points: 2
#     Edge 40, Type (0, 0), BuildingBlock: CIFDUS_clean_linker_0, # of connection points: 2
#     Edge 41, Type (0, 0), BuildingBlock: CIFDUS_clean_linker_0, # of connection points: 2
#     Edge 42, Type (0, 0), BuildingBlock: CIFDUS_clean_linker_0, # of connection points: 2
#     Edge 43, Type (0, 0), BuildingBlock: CIFDUS_clean_linker_0, # of connection points: 2
#     Edge 44, Type (0, 0), BuildingBlock: CIFDUS_clean_linker_0, # of connection points: 2
#     Edge 45, Type (0, 0), BuildingBlock: CIFDUS_clean_linker_0, # of connection points: 2
#     Edge 46, Type (0, 0), BuildingBlock: CIFDUS_clean_linker_0, # of connection points: 2
#     Edge 47, Type (0, 0), BuildingBlock: CIFDUS_clean_linker_0, # of connection points: 2
#     Edge 48, Type (0, 0), BuildingBlock: CIFDUS_clean_linker_0, # of connection points: 2
#     Edge 49, Type (0, 0), BuildingBlock: CIFDUS_clean_linker_0, # of connection points: 2
#     Edge 50, Type (0, 0), BuildingBlock: CIFDUS_clean_linker_0, # of connection points: 2
#     Edge 51, Type (0, 0), BuildingBlock: CIFDUS_clean_linker_0, # of connection points: 2
#     Edge 52, Type (0, 0), BuildingBlock: CIFDUS_clean_linker_0, # of connection points: 2
#     Edge 53, Type (0, 0), BuildingBlock: CIFDUS_clean_linker_0, # of connection points: 2
#     Edge 54, Type (0, 0), BuildingBlock: CIFDUS_clean_linker_0, # of connection points: 2
#     Edge 55, Type (0, 0), BuildingBlock: CIFDUS_clean_linker_0, # of connection points: 2
#     Edge 56, Type (0, 0), BuildingBlock: CIFDUS_clean_linker_0, # of connection points: 2
#     Edge 57, Type (0, 0), BuildingBlock: CIFDUS_clean_linker_0, # of connection points: 2
#     Edge 58, Type (0, 0), BuildingBlock: CIFDUS_clean_linker_0, # of connection points: 2
#     Edge 59, Type (0, 0), BuildingBlock: CIFDUS_clean_linker_0, # of connection points: 2
#     Edge 60, Type (0, 0), BuildingBlock: CIFDUS_clean_linker_0, # of connection points: 2
#     Edge 61, Type (0, 0), BuildingBlock: CIFDUS_clean_linker_0, # of connection points: 2
#     Edge 62, Type (0, 0), BuildingBlock: CIFDUS_clean_linker_0, # of connection points: 2
#     Edge 63, Type (0, 0), BuildingBlock: CIFDUS_clean_linker_0, # of connection points: 2
#     Edge 64, Type (0, 0), BuildingBlock: CIFDUS_clean_linker_0, # of connection points: 2
#     Edge 65, Type (0, 0), BuildingBlock: CIFDUS_clean_linker_0, # of connection points: 2
#     Edge 66, Type (0, 0), BuildingBlock: CIFDUS_clean_linker_0, # of connection points: 2
#     Edge 67, Type (0, 0), BuildingBlock: CIFDUS_clean_linker_0, # of connection points: 2
#     Edge 68, Type (0, 0), BuildingBlock: CIFDUS_clean_linker_0, # of connection points: 2
#     Edge 69, Type (0, 0), BuildingBlock: CIFDUS_clean_linker_0, # of connection points: 2
#     Edge 70, Type (0, 0), BuildingBlock: CIFDUS_clean_linker_0, # of connection points: 2
#     Edge 71, Type (0, 0), BuildingBlock: CIFDUS_clean_linker_0, # of connection points: 2
# Relax obj value: 0.071
# Max RMSD: 0.062
# Mean RMSD: 0.062
data_MOF--net-umk--node1-KUFVIS_clean_sbu_0--edge1-CIFDUS_clean_linker_0
_symmetry_space_group_name_H-M    P1
_symmetry_Int_Tables_number       1
_symmetry_cell_setting            triclinic
loop_
_symmetry_equiv_pos_as_xyz
'x, y, z'
_cell_length_a     57.94146
_cell_length_b     58.044594
_cell_length_c     37.08307
_cell_angle_alpha  90.103499
_cell_angle_beta   89.997506
_cell_angle_gamma 120.04671
loop_
_atom_site_label
_atom_site_type_symbol
_atom_site_fract_x
_atom_site_fract_y
_atom_site_fract_z
_atom_type_partial_charge
Mn0 Mn 0.34149 0.46844 0.07829 0.0
Mn1 Mn 0.39305 0.50841 0.13285 0.0
C2 C 0.37954 0.50458 0.05409 0.0
C3 C 0.30008 0.45893 0.05369 0.0
C4 C 0.3822 0.4539 0.10715 0.0
O5 O 0.32552 0.45766 0.12898 0.0
O6 O 0.35995 0.48888 0.1613 0.0
C7 C 0.37376 0.54554 0.15114 0.0
N8 N 0.39323 0.54128 0.13787 0.0
C9 C 0.42163 0.58789 0.12543 0.0
C10 C 0.40196 0.59282 0.13917 0.0
C11 C 0.37788 0.57153 0.15196 0.0
C12 C 0.41622 0.56153 0.12481 0.0
H13 H 0.35519 0.52921 0.16087 0.0
C14 C 0.33608 0.46954 0.15855 0.0
O15 O 0.3068 0.44069 0.05576 0.0
O16 O 0.31707 0.48212 0.06643 0.0
N17 N 0.42703 0.52905 0.11022 0.0
C18 C 0.4449 0.52121 0.1013 0.0
C19 C 0.47075 0.54032 0.09052 0.0
C20 C 0.47813 0.56735 0.08951 0.0
C21 C 0.45967 0.57504 0.09978 0.0
C22 C 0.4344 0.55515 0.11104 0.0
H23 H 0.43956 0.50055 0.1027 0.0
O24 O 0.36258 0.48567 0.03334 0.0
O25 O 0.3732 0.50219 0.08797 0.0
O26 O 0.36245 0.4487 0.08634 0.0
O27 O 0.39402 0.47492 0.12679 0.0
C28 C 0.46557 0.60171 0.10005 0.0
C29 C 0.44645 0.60811 0.1125 0.0
H30 H 0.40514 0.61286 0.14006 0.0
H31 H 0.36256 0.57515 0.16249 0.0
H32 H 0.48498 0.53425 0.08303 0.0
H33 H 0.49803 0.58201 0.08094 0.0
H34 H 0.48481 0.61748 0.09094 0.0
H35 H 0.45119 0.62869 0.11259 0.0
Mn36 Mn 0.87617 0.34598 0.58419 0.0
Mn37 Mn 0.89201 0.39866 0.6381 0.0
C38 C 0.88845 0.38703 0.55846 0.0
C39 C 0.84074 0.30836 0.55612 0.0
C40 C 0.92956 0.3772 0.62267 0.0
O41 O 0.86489 0.32969 0.63468 0.0
O42 O 0.86865 0.36526 0.66444 0.0
C43 C 0.83805 0.39208 0.64269 0.0
N44 N 0.86443 0.40749 0.63478 0.0
C45 C 0.85837 0.44389 0.61658 0.0
C46 C 0.83116 0.42849 0.62476 0.0
C47 C 0.82095 0.40244 0.63777 0.0
C48 C 0.87437 0.43238 0.62165 0.0
H49 H 0.83011 0.37201 0.6525 0.0
C50 C 0.86173 0.34063 0.66271 0.0
O51 O 0.86354 0.3097 0.56193 0.0
O52 O 0.8386 0.32826 0.56749 0.0
N53 N 0.91469 0.4329 0.61724 0.0
C54 C 0.94168 0.44567 0.61283 0.0
C55 C 0.9553 0.47236 0.60162 0.0
C56 C 0.94114 0.48581 0.5957 0.0
C57 C 0.91352 0.47254 0.60151 0.0
C58 C 0.90111 0.44607 0.6132 0.0
H59 H 0.95278 0.43564 0.61793 0.0
O60 O 0.88758 0.36808 0.53896 0.0
O61 O 0.88081 0.38086 0.59164 0.0
O62 O 0.91552 0.3601 0.59831 0.0
O63 O 0.92153 0.39076 0.64075 0.0
C64 C 0.89785 0.48459 0.59637 0.0
C65 C 0.87024 0.47017 0.60354 0.0
H66 H 0.81793 0.43644 0.62112 0.0
H67 H 0.79995 0.39039 0.644 0.0
H68 H 0.97666 0.48254 0.59759 0.0
H69 H 0.95166 0.50632 0.58676 0.0
H70 H 0.90682 0.50489 0.58681 0.0
H71 H 0.85837 0.47957 0.59924 0.0
Mn72 Mn 0.53929 0.86889 0.07246 0.0
Mn73 Mn 0.5189 0.90732 0.11577 0.0
C74 C 0.50314 0.87211 0.0501 0.0
C75 C 0.53845 0.82864 0.05868 0.0
C76 C 0.56726 0.9303 0.06832 0.0
O77 O 0.55498 0.87184 0.12303 0.0
O78 O 0.54278 0.90014 0.14598 0.0
C79 C 0.48673 0.86914 0.1731 0.0
N80 N 0.4891 0.88616 0.14623 0.0
C81 C 0.44666 0.88178 0.16107 0.0
C82 C 0.44379 0.86428 0.18902 0.0
C83 C 0.46387 0.85785 0.19495 0.0
C84 C 0.46992 0.89248 0.1403 0.0
H85 H 0.50225 0.8644 0.17799 0.0
C86 C 0.55482 0.8868 0.14826 0.0
O87 O 0.55917 0.85167 0.05222 0.0
O88 O 0.51869 0.82895 0.07477 0.0
N89 N 0.49569 0.91652 0.09117 0.0
C90 C 0.50055 0.93187 0.06126 0.0
C91 C 0.4819 0.93926 0.05064 0.0
C92 C 0.45866 0.9311 0.07107 0.0
C93 C 0.45422 0.91552 0.10196 0.0
C94 C 0.47356 0.90885 0.11132 0.0
H95 H 0.51857 0.93849 0.04578 0.0
O96 O 0.51782 0.86686 0.02904 0.0
O97 O 0.51045 0.87649 0.0839 0.0
O98 O 0.5672 0.90855 0.06267 0.0
O99 O 0.54921 0.93169 0.08595 0.0
C100 C 0.43099 0.90561 0.12315 0.0
C101 C 0.42719 0.8887 0.15263 0.0
H102 H 0.42618 0.8555 0.20591 0.0
H103 H 0.46179 0.84435 0.21644 0.0
H104 H 0.48556 0.95146 0.02699 0.0
H105 H 0.44425 0.93669 0.06259 0.0
H106 H 0.41568 0.91041 0.11656 0.0
H107 H 0.40903 0.88083 0.16831 0.0
Mn108 Mn 0.68667 0.5541 0.58187 0.0
Mn109 Mn 0.63062 0.5253 0.63328 0.0
C110 C 0.64851 0.51679 0.55977 0.0
C111 C 0.72771 0.55902 0.56345 0.0
C112 C 0.65091 0.57801 0.59479 0.0
O113 O 0.70061 0.56819 0.63268 0.0
O114 O 0.66251 0.54452 0.66448 0.0
C115 C 0.63706 0.48561 0.67539 0.0
N116 N 0.62222 0.49169 0.65308 0.0
C117 C 0.58433 0.44755 0.65842 0.0
C118 C 0.59919 0.44079 0.68153 0.0
C119 C 0.62569 0.45988 0.68994 0.0
C120 C 0.59661 0.47356 0.64509 0.0
H121 H 0.65734 0.50034 0.68213 0.0
C122 C 0.68762 0.56077 0.66229 0.0
O123 O 0.7224 0.57812 0.56013 0.0
O124 O 0.70951 0.53728 0.57852 0.0
N125 N 0.59818 0.50596 0.6067 0.0
C126 C 0.58822 0.51461 0.58003 0.0
C127 C 0.56269 0.49729 0.56613 0.0
C128 C 0.54762 0.47141 0.58008 0.0
C129 C 0.55833 0.46298 0.60756 0.0
C130 C 0.58388 0.48112 0.6203 0.0
H131 H 0.59972 0.53455 0.56944 0.0
O132 O 0.66684 0.5336 0.53818 0.0
O133 O 0.65258 0.52253 0.59412 0.0
O134 O 0.67038 0.57859 0.57801 0.0
O135 O 0.63582 0.55942 0.61609 0.0
C136 C 0.54516 0.43698 0.62174 0.0
C137 C 0.55815 0.42927 0.64718 0.0
H138 H 0.59059 0.42091 0.69256 0.0
H139 H 0.63728 0.45478 0.70767 0.0
H140 H 0.55464 0.50387 0.54477 0.0
H141 H 0.52804 0.45804 0.56907 0.0
H142 H 0.52536 0.42252 0.6125 0.0
H143 H 0.54808 0.40903 0.65716 0.0
Mn144 Mn 0.15386 0.67017 0.07696 0.0
Mn145 Mn 0.1412 0.61937 0.13244 0.0
C146 C 0.14568 0.62963 0.05275 0.0
C147 C 0.18823 0.70837 0.04842 0.0
C148 C 0.10029 0.63627 0.11412 0.0
O149 O 0.16352 0.68754 0.12712 0.0
O150 O 0.16168 0.65353 0.15861 0.0
C151 C 0.19684 0.63102 0.14042 0.0
N152 N 0.17099 0.61376 0.13142 0.0
C153 C 0.18137 0.57975 0.11556 0.0
C154 C 0.20807 0.59709 0.1249 0.0
C155 C 0.21585 0.62287 0.13727 0.0
C156 C 0.1634 0.58911 0.11884 0.0
H157 H 0.2029 0.65089 0.14977 0.0
C158 C 0.16705 0.67767 0.15594 0.0
O159 O 0.16471 0.70565 0.05306 0.0
O160 O 0.19167 0.6897 0.06141 0.0
N161 N 0.12142 0.5846 0.11165 0.0
C162 C 0.09461 0.56983 0.10594 0.0
C163 C 0.08323 0.54303 0.0956 0.0
C164 C 0.09945 0.53157 0.09174 0.0
C165 C 0.1269 0.54699 0.09837 0.0
C166 C 0.13702 0.57344 0.10928 0.0
H167 H 0.08193 0.57834 0.10957 0.0
O168 O 0.14477 0.64727 0.0324 0.0
O169 O 0.15223 0.63679 0.08599 0.0
O170 O 0.11383 0.65363 0.08983 0.0
O171 O 0.10951 0.624 0.13275 0.0
C172 C 0.14458 0.53708 0.09492 0.0
C173 C 0.17186 0.55355 0.10316 0.0
H174 H 0.22277 0.59083 0.12267 0.0
H175 H 0.23645 0.63641 0.14439 0.0
H176 H 0.062 0.53122 0.09072 0.0
H177 H 0.09063 0.51093 0.08355 0.0
H178 H 0.1374 0.51684 0.08597 0.0
H179 H 0.18528 0.54576 0.10027 0.0
Mn180 Mn 0.48977 0.14612 0.57063 0.0
Mn181 Mn 0.51255 0.10921 0.61094 0.0
C182 C 0.52234 0.14029 0.54187 0.0
C183 C 0.48895 0.18488 0.5555 0.0
C184 C 0.46111 0.08482 0.57079 0.0
O185 O 0.47911 0.14689 0.62291 0.0
O186 O 0.49046 0.11757 0.6435 0.0
C187 C 0.54834 0.15008 0.66352 0.0
N188 N 0.54413 0.13159 0.63783 0.0
C189 C 0.58607 0.13429 0.65103 0.0
C190 C 0.59091 0.15341 0.67764 0.0
C191 C 0.57206 0.16149 0.68371 0.0
C192 C 0.56234 0.12404 0.63134 0.0
H193 H 0.5336 0.15584 0.66882 0.0
C194 C 0.47959 0.13189 0.64755 0.0
O195 O 0.46784 0.16153 0.55397 0.0
O196 O 0.51063 0.18609 0.56743 0.0
N197 N 0.53395 0.09834 0.58504 0.0
C198 C 0.52669 0.0806 0.55735 0.0
C199 C 0.54339 0.07058 0.5476 0.0
C200 C 0.56723 0.07865 0.56658 0.0
C201 C 0.57411 0.09665 0.59533 0.0
C202 C 0.55669 0.10598 0.6038 0.0
H203 H 0.50802 0.07373 0.54335 0.0
O204 O 0.50554 0.14453 0.5241 0.0
O205 O 0.51942 0.1386 0.57701 0.0
O206 O 0.4607 0.10639 0.56668 0.0
O207 O 0.48062 0.08381 0.58456 0.0
C208 C 0.59767 0.1059 0.61573 0.0
C209 C 0.60377 0.12491 0.64332 0.0
H210 H 0.60903 0.16201 0.69357 0.0
H211 H 0.57561 0.17617 0.70427 0.0
H212 H 0.5375 0.0561 0.5262 0.0
H213 H 0.58002 0.07081 0.55895 0.0
H214 H 0.61151 0.09899 0.60987 0.0
H215 H 0.62219 0.13228 0.65833 0.0
Mn216 Mn 0.53752 0.66718 0.93709 0.0
Mn217 Mn 0.49624 0.61476 0.88478 0.0
C218 C 0.50502 0.62817 0.9641 0.0
C219 C 0.54554 0.7078 0.96312 0.0
C220 C 0.55356 0.62931 0.90227 0.0
O221 O 0.54484 0.68256 0.88584 0.0
O222 O 0.51161 0.64798 0.85628 0.0
C223 C 0.45493 0.63005 0.87593 0.0
N224 N 0.46187 0.61176 0.88592 0.0
C225 C 0.41687 0.58069 0.90387 0.0
C226 C 0.40919 0.59911 0.89355 0.0
C227 C 0.42833 0.62393 0.87963 0.0
C228 C 0.44374 0.58806 0.90002 0.0
H229 H 0.46962 0.6492 0.86541 0.0
C230 C 0.53117 0.67181 0.85743 0.0
O231 O 0.56483 0.70286 0.9577 0.0
O232 O 0.52212 0.68965 0.95256 0.0
N233 N 0.47929 0.58044 0.90702 0.0
C234 C 0.48943 0.56393 0.91186 0.0
C235 C 0.47256 0.53764 0.92334 0.0
C236 C 0.44534 0.5284 0.92902 0.0
C237 C 0.43512 0.54537 0.92234 0.0
C238 C 0.45283 0.5712 0.9103 0.0
H239 H 0.51022 0.57072 0.90689 0.0
O240 O 0.52438 0.64629 0.98313 0.0
O241 O 0.50456 0.63403 0.93044 0.0
O242 O 0.55889 0.64829 0.92465 0.0
O243 O 0.53149 0.61684 0.88473 0.0
C244 C 0.40799 0.5375 0.92652 0.0
C245 C 0.39893 0.55527 0.91767 0.0
H246 H 0.38866 0.59441 0.89617 0.0
H247 H 0.42258 0.6383 0.87174 0.0
H248 H 0.48053 0.52453 0.92782 0.0
H249 H 0.43243 0.5082 0.93818 0.0
H250 H 0.39392 0.51781 0.93639 0.0
H251 H 0.37803 0.54903 0.92105 0.0
Mn252 Mn 0.88231 0.54468 0.44549 0.0
Mn253 Mn 0.90319 0.51227 0.39107 0.0
C254 C 0.89225 0.51349 0.46976 0.0
C255 C 0.84556 0.54546 0.47114 0.0
C256 C 0.93831 0.57014 0.41404 0.0
O257 O 0.87334 0.55195 0.39465 0.0
O258 O 0.88135 0.52339 0.36315 0.0
C259 C 0.85068 0.46459 0.37673 0.0
N260 N 0.8763 0.47556 0.38856 0.0
C261 C 0.87036 0.43244 0.40242 0.0
C262 C 0.84396 0.42065 0.39013 0.0
C263 C 0.83405 0.43682 0.37736 0.0
C264 C 0.88587 0.46023 0.40152 0.0
H265 H 0.84299 0.47697 0.36703 0.0
C266 C 0.87264 0.53967 0.36567 0.0
O267 O 0.8686 0.5671 0.46833 0.0
O268 O 0.8439 0.52399 0.45816 0.0
N269 N 0.92464 0.50011 0.41423 0.0
C270 C 0.95076 0.51458 0.42425 0.0
C271 C 0.96411 0.50138 0.43609 0.0
C272 C 0.95059 0.47345 0.4371 0.0
C273 C 0.92382 0.45896 0.42628 0.0
C274 C 0.91169 0.4732 0.4142 0.0
H275 H 0.96147 0.53603 0.42288 0.0
O276 O 0.89084 0.5308 0.49037 0.0
O277 O 0.8874 0.51493 0.43602 0.0
O278 O 0.9222 0.57109 0.43686 0.0
O279 O 0.93223 0.54992 0.39389 0.0
C280 C 0.90868 0.43095 0.42712 0.0
C281 C 0.88188 0.41771 0.41556 0.0
H282 H 0.83111 0.39923 0.39044 0.0
H283 H 0.81366 0.42788 0.36799 0.0
H284 H 0.9848 0.51271 0.44427 0.0
H285 H 0.9609 0.46334 0.44645 0.0
H286 H 0.91741 0.41942 0.43683 0.0
H287 H 0.87037 0.39618 0.41661 0.0
Mn288 Mn 0.34402 0.87711 0.9351 0.0
Mn289 Mn 0.40005 0.90873 0.88366 0.0
C290 C 0.38271 0.87725 0.95365 0.0
C291 C 0.30308 0.84037 0.95316 0.0
C292 C 0.38188 0.93793 0.93287 0.0
O293 O 0.329 0.87917 0.88601 0.0
O294 O 0.36782 0.90147 0.85598 0.0
C295 C 0.38769 0.86564 0.83093 0.0
N296 N 0.40486 0.8842 0.85476 0.0
C297 C 0.44013 0.8759 0.83778 0.0
C298 C 0.42289 0.85682 0.81284 0.0
C299 C 0.39652 0.85155 0.80959 0.0
C300 C 0.43025 0.88939 0.85817 0.0
H301 H 0.36749 0.86172 0.82814 0.0
C302 C 0.34242 0.89028 0.85762 0.0
O303 O 0.30878 0.86467 0.95885 0.0
O304 O 0.32083 0.83723 0.93583 0.0
N305 N 0.43341 0.91745 0.90521 0.0
C306 C 0.44643 0.93431 0.9331 0.0
C307 C 0.47265 0.94071 0.94131 0.0
C308 C 0.48524 0.92986 0.92065 0.0
C309 C 0.47148 0.91267 0.89191 0.0
C310 C 0.4455 0.90723 0.88476 0.0
H311 H 0.43693 0.94293 0.94876 0.0
O312 O 0.3645 0.87454 0.97644 0.0
O313 O 0.37838 0.88061 0.91989 0.0
O314 O 0.36041 0.91765 0.94357 0.0
O315 O 0.39822 0.93655 0.91139 0.0
C316 C 0.48218 0.90004 0.87083 0.0
C317 C 0.46649 0.88162 0.84384 0.0
H318 H 0.42958 0.84584 0.79639 0.0
H319 H 0.38303 0.8367 0.79065 0.0
H320 H 0.48324 0.9542 0.96325 0.0
H321 H 0.50537 0.93467 0.92731 0.0
H322 H 0.50223 0.90387 0.8757 0.0
H323 H 0.47474 0.8716 0.82836 0.0
Mn324 Mn 0.49625 0.34961 0.44044 0.0
Mn325 Mn 0.51074 0.40456 0.39108 0.0
C326 C 0.5302 0.39109 0.45986 0.0
C327 C 0.50006 0.31276 0.45756 0.0
C328 C 0.46248 0.37678 0.43924 0.0
O329 O 0.48046 0.33375 0.391 0.0
O330 O 0.49177 0.37185 0.36127 0.0
C331 C 0.54866 0.40409 0.33795 0.0
N332 N 0.54243 0.41721 0.36311 0.0
C333 C 0.58205 0.45873 0.3497 0.0
C334 C 0.58886 0.44569 0.32349 0.0
C335 C 0.57214 0.41824 0.3177 0.0
C336 C 0.55825 0.44366 0.3687 0.0
H337 H 0.53573 0.38304 0.33328 0.0
C338 C 0.48115 0.34652 0.36262 0.0
O339 O 0.47868 0.31399 0.46331 0.0
O340 O 0.51914 0.33255 0.44008 0.0
N341 N 0.52917 0.43797 0.41557 0.0
C342 C 0.52167 0.44643 0.44527 0.0
C343 C 0.5373 0.47296 0.4567 0.0
C344 C 0.56027 0.49053 0.43724 0.0
C345 C 0.56758 0.48133 0.40672 0.0
C346 C 0.55118 0.45471 0.39657 0.0
H347 H 0.50393 0.43299 0.46011 0.0
O348 O 0.51715 0.37157 0.48217 0.0
O349 O 0.52256 0.38632 0.42607 0.0
O350 O 0.46663 0.35852 0.45049 0.0
O351 O 0.4778 0.39479 0.41745 0.0
C352 C 0.59109 0.49716 0.38695 0.0
C353 C 0.59833 0.48587 0.35848 0.0
H354 H 0.60707 0.45648 0.30802 0.0
H355 H 0.57731 0.40804 0.29762 0.0
H356 H 0.53165 0.47986 0.48042 0.0
H357 H 0.57242 0.51091 0.44635 0.0
H358 H 0.60414 0.51785 0.3941 0.0
H359 H 0.6168 0.49807 0.34411 0.0
Mn360 Mn 0.14141 0.46776 0.93706 0.0
Mn361 Mn 0.12329 0.50329 0.88402 0.0
C362 C 0.13296 0.49935 0.9629 0.0
C363 C 0.17823 0.46589 0.96109 0.0
C364 C 0.08483 0.44618 0.90761 0.0
O365 O 0.14855 0.45931 0.88602 0.0
O366 O 0.14179 0.48873 0.85506 0.0
C367 C 0.17804 0.54693 0.86871 0.0
N368 N 0.15298 0.53869 0.88116 0.0
C369 C 0.16469 0.5835 0.8968 0.0
C370 C 0.19057 0.5925 0.88389 0.0
C371 C 0.19728 0.57411 0.86987 0.0
C372 C 0.14646 0.55615 0.89528 0.0
H373 H 0.18334 0.53283 0.8582 0.0
C374 C 0.14903 0.47129 0.85701 0.0
O375 O 0.15484 0.44453 0.95907 0.0
O376 O 0.17998 0.48735 0.94825 0.0
N377 N 0.10505 0.51907 0.90722 0.0
C378 C 0.07864 0.50739 0.9156 0.0
C379 C 0.0682 0.52319 0.92807 0.0
C380 C 0.08489 0.55087 0.93116 0.0
C381 C 0.11175 0.56255 0.9211 0.0
C382 C 0.12089 0.54583 0.90827 0.0
H383 H 0.06559 0.48619 0.91273 0.0
O384 O 0.13431 0.4818 0.98287 0.0
O385 O 0.13778 0.49858 0.9289 0.0
O386 O 0.10082 0.44322 0.92867 0.0
O387 O 0.09188 0.46703 0.8883 0.0
C388 C 0.12974 0.59016 0.9229 0.0
C389 C 0.15628 0.6006 0.9111 0.0
H390 H 0.20543 0.61346 0.88463 0.0
H391 H 0.21724 0.58088 0.86002 0.0
H392 H 0.04735 0.51404 0.93528 0.0
H393 H 0.07683 0.56297 0.94108 0.0
H394 H 0.12337 0.60353 0.93327 0.0
H395 H 0.16996 0.62184 0.91274 0.0
Mn396 Mn 0.68734 0.14109 0.43575 0.0
Mn397 Mn 0.62868 0.10998 0.39001 0.0
C398 C 0.64889 0.13648 0.46316 0.0
C399 C 0.72776 0.17824 0.45433 0.0
C400 C 0.65186 0.08031 0.42745 0.0
O401 O 0.70012 0.14367 0.38385 0.0
O402 O 0.65977 0.12038 0.35789 0.0
C403 C 0.63601 0.15495 0.34425 0.0
N404 N 0.62087 0.13485 0.3675 0.0
C405 C 0.58225 0.13893 0.35556 0.0
C406 C 0.59743 0.15975 0.33152 0.0
C407 C 0.62448 0.16793 0.32606 0.0
C408 C 0.59496 0.12709 0.37332 0.0
H409 H 0.65658 0.16075 0.33927 0.0
C410 C 0.68522 0.13292 0.3565 0.0
O411 O 0.72418 0.15435 0.45468 0.0
O412 O 0.70824 0.18081 0.44173 0.0
N413 N 0.59596 0.09789 0.41537 0.0
C414 C 0.58453 0.07823 0.44046 0.0
C415 C 0.55757 0.06785 0.44934 0.0
C416 C 0.5426 0.07767 0.43229 0.0
C417 C 0.55471 0.09768 0.40618 0.0
C418 C 0.58162 0.10719 0.39837 0.0
H419 H 0.59572 0.07007 0.45288 0.0
O420 O 0.66893 0.13867 0.48158 0.0
O421 O 0.65116 0.13623 0.42795 0.0
O422 O 0.67384 0.10057 0.43688 0.0
O423 O 0.63346 0.08185 0.41111 0.0
C424 C 0.54119 0.10859 0.38759 0.0
C425 C 0.55501 0.12936 0.36251 0.0
H426 H 0.58854 0.16959 0.31711 0.0
H427 H 0.63628 0.18389 0.30742 0.0
H428 H 0.54817 0.05173 0.46845 0.0
H429 H 0.52179 0.06954 0.4392 0.0
H430 H 0.52032 0.10156 0.39292 0.0
H431 H 0.54455 0.13793 0.3489 0.0
Mn432 Mn 0.68704 0.54937 0.94378 0.0
Mn433 Mn 0.63499 0.50994 0.88967 0.0
C434 C 0.64861 0.51392 0.96834 0.0
C435 C 0.72819 0.55769 0.96813 0.0
C436 C 0.64729 0.5651 0.91468 0.0
O437 O 0.70294 0.55952 0.89296 0.0
O438 O 0.66819 0.52819 0.8612 0.0
C439 C 0.65238 0.47112 0.87252 0.0
N440 N 0.63348 0.47638 0.88538 0.0
C441 C 0.60365 0.43008 0.89821 0.0
C442 C 0.62272 0.42414 0.88486 0.0
C443 C 0.64723 0.44477 0.87209 0.0
C444 C 0.61008 0.45677 0.89844 0.0
H445 H 0.67128 0.48694 0.86283 0.0
C446 C 0.69224 0.54724 0.86366 0.0
O447 O 0.72222 0.57648 0.96603 0.0
O448 O 0.71064 0.53468 0.9556 0.0
N449 N 0.60092 0.49048 0.9125 0.0
C450 C 0.58385 0.49933 0.92145 0.0
C451 C 0.55775 0.48099 0.93233 0.0
C452 C 0.54931 0.45371 0.93341 0.0
C453 C 0.56699 0.44499 0.92326 0.0
C454 C 0.59257 0.46415 0.91192 0.0
H455 H 0.58999 0.52019 0.91997 0.0
O456 O 0.66591 0.53269 0.98895 0.0
O457 O 0.65483 0.51604 0.93447 0.0
O458 O 0.66685 0.56995 0.93568 0.0
O459 O 0.6353 0.54412 0.89498 0.0
C460 C 0.56005 0.41801 0.9233 0.0
C461 C 0.57849 0.41059 0.91115 0.0
H462 H 0.61876 0.40381 0.88428 0.0
H463 H 0.6621 0.44036 0.86188 0.0
H464 H 0.54416 0.48786 0.93982 0.0
H465 H 0.52922 0.43965 0.94204 0.0
H466 H 0.54056 0.4028 0.93248 0.0
H467 H 0.57297 0.38978 0.91135 0.0
Mn468 Mn 0.14688 0.67131 0.43592 0.0
Mn469 Mn 0.12822 0.61705 0.38384 0.0
C470 C 0.1312 0.62987 0.4626 0.0
C471 C 0.18257 0.70771 0.46543 0.0
C472 C 0.09389 0.64258 0.39567 0.0
O473 O 0.16131 0.68695 0.38569 0.0
O474 O 0.15379 0.64941 0.35739 0.0
C475 C 0.1804 0.61933 0.38234 0.0
N476 N 0.15373 0.60558 0.38914 0.0
C477 C 0.15596 0.56723 0.40868 0.0
C478 C 0.18341 0.58089 0.40156 0.0
C479 C 0.1957 0.60709 0.38848 0.0
C480 C 0.14182 0.58056 0.40243 0.0
H481 H 0.18992 0.63952 0.37253 0.0
C482 C 0.16372 0.67463 0.35866 0.0
O483 O 0.16086 0.70799 0.45731 0.0
O484 O 0.18362 0.68691 0.45542 0.0
N485 N 0.10335 0.5837 0.4053 0.0
C486 C 0.07654 0.57301 0.40976 0.0
C487 C 0.06107 0.54657 0.42149 0.0
C488 C 0.0732 0.53122 0.42792 0.0
C489 C 0.10068 0.5424 0.42228 0.0
C490 C 0.11502 0.56875 0.41016 0.0
H491 H 0.06696 0.58448 0.40426 0.0
O492 O 0.13262 0.64947 0.48115 0.0
O493 O 0.13995 0.63547 0.42983 0.0
O494 O 0.10855 0.65982 0.41944 0.0
O495 O 0.10064 0.6275 0.3789 0.0
C496 C 0.11443 0.52845 0.42831 0.0
C497 C 0.14211 0.54097 0.42191 0.0
H498 H 0.19526 0.5715 0.40618 0.0
H499 H 0.2169 0.61784 0.38314 0.0
H500 H 0.03983 0.53802 0.42549 0.0
H501 H 0.06124 0.5109 0.43722 0.0
H502 H 0.10395 0.50818 0.43818 0.0
H503 H 0.15252 0.53016 0.42708 0.0
Mn504 Mn 0.48527 0.1524 0.93242 0.0
Mn505 Mn 0.50701 0.11602 0.88665 0.0
C506 C 0.51959 0.14698 0.9562 0.0
C507 C 0.48678 0.19242 0.94903 0.0
C508 C 0.45597 0.09101 0.92928 0.0
O509 O 0.47262 0.15298 0.88099 0.0
O510 O 0.48636 0.12671 0.85514 0.0
C511 C 0.54418 0.15742 0.83594 0.0
N512 N 0.5392 0.13838 0.86102 0.0
C513 C 0.58216 0.14246 0.85127 0.0
C514 C 0.58772 0.16206 0.82522 0.0
C515 C 0.56868 0.16963 0.81763 0.0
C516 C 0.55735 0.13088 0.86845 0.0
H517 H 0.5295 0.16312 0.82982 0.0
C518 C 0.47479 0.14056 0.85388 0.0
O519 O 0.46534 0.16947 0.95291 0.0
O520 O 0.50688 0.19222 0.93388 0.0
N521 N 0.5275 0.10406 0.91266 0.0
C522 C 0.51999 0.08677 0.94084 0.0
C523 C 0.53726 0.07802 0.95297 0.0
C524 C 0.56197 0.08701 0.93594 0.0
C525 C 0.56918 0.10467 0.90682 0.0
C526 C 0.55106 0.11252 0.8957 0.0
H527 H 0.50092 0.07963 0.95378 0.0
O528 O 0.50418 0.15144 0.97692 0.0
O529 O 0.514 0.14468 0.9218 0.0
O530 O 0.45644 0.11253 0.93806 0.0
O531 O 0.47428 0.09037 0.91129 0.0
C532 C 0.59395 0.11543 0.88909 0.0
C533 C 0.60046 0.13435 0.86139 0.0
H534 H 0.60663 0.1716 0.81113 0.0
H535 H 0.57284 0.18477 0.7976 0.0
H536 H 0.5314 0.06415 0.97512 0.0
H537 H 0.57531 0.08037 0.94562 0.0
H538 H 0.60838 0.10973 0.89708 0.0
H539 H 0.61977 0.14287 0.84846 0.0
Mn540 Mn 0.333 0.45756 0.44069 0.0
Mn541 Mn 0.3932 0.48464 0.39904 0.0
C542 C 0.37064 0.49114 0.46955 0.0
C543 C 0.29232 0.45494 0.45524 0.0
C544 C 0.36788 0.43154 0.43626 0.0
O545 O 0.32222 0.44718 0.38822 0.0
O546 O 0.36341 0.46481 0.36448 0.0
C547 C 0.38921 0.52351 0.35161 0.0
N548 N 0.40279 0.51781 0.37664 0.0
C549 C 0.44234 0.56044 0.3684 0.0
C550 C 0.42878 0.56684 0.34255 0.0
C551 C 0.40203 0.54837 0.33435 0.0
C552 C 0.4284 0.53556 0.38508 0.0
H553 H 0.3689 0.50906 0.34459 0.0
C554 C 0.33799 0.4518 0.36177 0.0
O555 O 0.29552 0.43442 0.45722 0.0
O556 O 0.31244 0.47685 0.44335 0.0
N557 N 0.42449 0.50444 0.42766 0.0
C558 C 0.43372 0.496 0.45548 0.0
C559 C 0.45965 0.51268 0.46856 0.0
C560 C 0.47598 0.53759 0.45243 0.0
C561 C 0.4661 0.5457 0.42353 0.0
C562 C 0.43997 0.5284 0.41205 0.0
H563 H 0.42146 0.4766 0.4673 0.0
O564 O 0.34992 0.47381 0.4874 0.0
O565 O 0.36936 0.48833 0.43442 0.0
O566 O 0.34594 0.43025 0.44464 0.0
O567 O 0.38679 0.45121 0.42022 0.0
C568 C 0.48097 0.57041 0.40599 0.0
C569 C 0.46908 0.5778 0.37848 0.0
H570 H 0.43865 0.58589 0.32895 0.0
H571 H 0.39146 0.55315 0.31439 0.0
H572 H 0.46718 0.50613 0.49057 0.0
H573 H 0.496 0.55035 0.46251 0.0
H574 H 0.50131 0.58416 0.41407 0.0
H575 H 0.48049 0.59709 0.36579 0.0
Mn576 Mn 0.87544 0.34461 0.94279 0.0
Mn577 Mn 0.88803 0.39989 0.89668 0.0
C578 C 0.88732 0.38391 0.97396 0.0
C579 C 0.84305 0.30431 0.96903 0.0
C580 C 0.92747 0.37971 0.90249 0.0
O581 O 0.86164 0.33067 0.89159 0.0
O582 O 0.86468 0.3678 0.86803 0.0
C583 C 0.83315 0.39115 0.89897 0.0
N584 N 0.85973 0.40711 0.90518 0.0
C585 C 0.85303 0.44213 0.9281 0.0
C586 C 0.8256 0.42617 0.9216 0.0
C587 C 0.81561 0.40051 0.90716 0.0
C588 C 0.86946 0.43154 0.91994 0.0
H589 H 0.8254 0.37137 0.88806 0.0
C590 C 0.85729 0.34308 0.8665 0.0
O591 O 0.86612 0.30788 0.959 0.0
O592 O 0.83875 0.32384 0.96324 0.0
N593 N 0.91048 0.43328 0.92003 0.0
C594 C 0.9376 0.44664 0.92293 0.0
C595 C 0.95094 0.47305 0.93544 0.0
C596 C 0.93637 0.48568 0.94413 0.0
C597 C 0.90859 0.47186 0.93987 0.0
C598 C 0.89643 0.44566 0.92693 0.0
H599 H 0.94903 0.43732 0.91554 0.0
O600 O 0.88837 0.36457 0.98982 0.0
O601 O 0.87837 0.37923 0.94118 0.0
O602 O 0.91423 0.36082 0.92491 0.0
O603 O 0.91847 0.39386 0.88842 0.0
C604 C 0.89251 0.48308 0.9478 0.0
C605 C 0.8647 0.4681 0.94236 0.0
H606 H 0.81204 0.43339 0.92769 0.0
H607 H 0.79445 0.388 0.90229 0.0
H608 H 0.97242 0.48368 0.93826 0.0
H609 H 0.94671 0.50599 0.95399 0.0
H610 H 0.90131 0.50315 0.95836 0.0
H611 H 0.85251 0.47682 0.94897 0.0
Mn612 Mn 0.53366 0.86707 0.43169 0.0
Mn613 Mn 0.51181 0.90186 0.38283 0.0
C614 C 0.49741 0.87014 0.4526 0.0
C615 C 0.53531 0.8292 0.44938 0.0
C616 C 0.56091 0.92821 0.42944 0.0
O617 O 0.5486 0.86746 0.38163 0.0
O618 O 0.53448 0.89241 0.3531 0.0
C619 C 0.4776 0.86049 0.32979 0.0
N620 N 0.48096 0.87908 0.35488 0.0
C621 C 0.43814 0.87414 0.34094 0.0
C622 C 0.43426 0.85502 0.3148 0.0
C623 C 0.45403 0.84811 0.3093 0.0
C624 C 0.46214 0.88602 0.36022 0.0
H625 H 0.49285 0.85531 0.32526 0.0
C626 C 0.5469 0.87935 0.35372 0.0
O627 O 0.55533 0.85302 0.45363 0.0
O628 O 0.51434 0.82705 0.4334 0.0
N629 N 0.48953 0.91262 0.40675 0.0
C630 C 0.49509 0.92898 0.43579 0.0
C631 C 0.47662 0.9366 0.4465 0.0
C632 C 0.4528 0.92756 0.42703 0.0
C633 C 0.44756 0.91078 0.39715 0.0
C634 C 0.46675 0.90393 0.38767 0.0
H635 H 0.51348 0.93613 0.45061 0.0
O636 O 0.5129 0.86664 0.47444 0.0
O637 O 0.50404 0.87295 0.4184 0.0
O638 O 0.56056 0.90705 0.43922 0.0
O639 O 0.54321 0.92832 0.40943 0.0
C640 C 0.42362 0.89975 0.37727 0.0
C641 C 0.41891 0.88144 0.3492 0.0
H642 H 0.41606 0.84531 0.29908 0.0
H643 H 0.45115 0.83333 0.28923 0.0
H644 H 0.48077 0.94952 0.46959 0.0
H645 H 0.4385 0.9333 0.43559 0.0
H646 H 0.40841 0.9047 0.38393 0.0
H647 H 0.4002 0.87267 0.33463 0.0
Mn648 Mn 0.49003 0.35087 0.0823 0.0
Mn649 Mn 0.53169 0.40219 0.13611 0.0
C650 C 0.52211 0.39063 0.05661 0.0
C651 C 0.48157 0.31113 0.05335 0.0
C652 C 0.47438 0.3881 0.12024 0.0
O653 O 0.48369 0.33382 0.13243 0.0
O654 O 0.51615 0.36835 0.16311 0.0
C655 C 0.5727 0.38629 0.14273 0.0
N656 N 0.56593 0.40492 0.134 0.0
C657 C 0.61095 0.43612 0.1163 0.0
C658 C 0.61847 0.41734 0.12534 0.0
C659 C 0.59923 0.39229 0.1385 0.0
C660 C 0.58416 0.42887 0.12064 0.0
H661 H 0.55794 0.36697 0.15266 0.0
C662 C 0.49741 0.34417 0.16092 0.0
O663 O 0.46239 0.31592 0.06054 0.0
O664 O 0.5052 0.32896 0.06374 0.0
N665 N 0.54882 0.43697 0.11517 0.0
C666 C 0.53883 0.45369 0.11133 0.0
C667 C 0.55581 0.48014 0.1006 0.0
C668 C 0.58298 0.48931 0.09462 0.0
C669 C 0.59304 0.47209 0.10023 0.0
C670 C 0.57523 0.44609 0.11155 0.0
H671 H 0.51807 0.44693 0.11651 0.0
O672 O 0.50246 0.37311 0.03737 0.0
O673 O 0.5231 0.38384 0.08966 0.0
O674 O 0.46873 0.3692 0.09761 0.0
O675 O 0.49666 0.40049 0.13726 0.0
C676 C 0.62011 0.47984 0.0956 0.0
C677 C 0.62901 0.46176 0.10326 0.0
H678 H 0.63893 0.42194 0.12229 0.0
H679 H 0.60485 0.37764 0.1454 0.0
H680 H 0.54796 0.49342 0.09693 0.0
H681 H 0.59598 0.50965 0.08603 0.0
H682 H 0.63426 0.49967 0.08627 0.0
H683 H 0.64985 0.46791 0.09952 0.0
Mn684 Mn 0.14169 0.47466 0.57528 0.0
Mn685 Mn 0.12172 0.50748 0.63051 0.0
C686 C 0.13141 0.5057 0.55157 0.0
C687 C 0.17779 0.47328 0.54861 0.0
C688 C 0.08596 0.44971 0.60761 0.0
O689 O 0.15143 0.46759 0.62579 0.0
O690 O 0.14364 0.49613 0.65767 0.0
C691 C 0.17473 0.5548 0.64373 0.0
N692 N 0.14896 0.54409 0.63268 0.0
C693 C 0.15529 0.58742 0.61916 0.0
C694 C 0.18184 0.59893 0.63071 0.0
C695 C 0.19163 0.58253 0.6429 0.0
C696 C 0.1395 0.55965 0.62021 0.0
H697 H 0.18234 0.54224 0.65292 0.0
C698 C 0.1525 0.48 0.6548 0.0
O699 O 0.15465 0.45183 0.55198 0.0
O700 O 0.17993 0.49499 0.56153 0.0
N701 N 0.10027 0.52002 0.60822 0.0
C702 C 0.07394 0.50582 0.59914 0.0
C703 C 0.06069 0.51929 0.5881 0.0
C704 C 0.07451 0.54722 0.58694 0.0
C705 C 0.10148 0.56144 0.59684 0.0
C706 C 0.11351 0.54693 0.6082 0.0
H707 H 0.063 0.48438 0.60066 0.0
O708 O 0.13256 0.48833 0.53077 0.0
O709 O 0.13687 0.50455 0.58512 0.0
O710 O 0.10193 0.44854 0.5848 0.0
O711 O 0.09232 0.46995 0.62789 0.0
C712 C 0.1169 0.58943 0.59584 0.0
C713 C 0.14388 0.60239 0.60662 0.0
H714 H 0.1949 0.62031 0.63025 0.0
H715 H 0.21214 0.59124 0.65167 0.0
H716 H 0.03983 0.50818 0.58064 0.0
H717 H 0.06426 0.55754 0.57821 0.0
H718 H 0.10825 0.60115 0.58664 0.0
H719 H 0.1556 0.62391 0.60547 0.0
Mn720 Mn 0.67691 0.14253 0.07697 0.0
Mn721 Mn 0.61888 0.1052 0.12251 0.0
C722 C 0.63818 0.14168 0.05749 0.0
C723 C 0.7169 0.18234 0.06469 0.0
C724 C 0.64077 0.08165 0.06949 0.0
O725 O 0.69036 0.13719 0.12553 0.0
O726 O 0.65026 0.11073 0.15074 0.0
C727 C 0.62818 0.1432 0.18182 0.0
N728 N 0.61229 0.12676 0.15512 0.0
C729 C 0.57588 0.13295 0.17323 0.0
C730 C 0.5918 0.14985 0.20106 0.0
C731 C 0.61809 0.15507 0.20528 0.0
C732 C 0.58696 0.12159 0.15085 0.0
H733 H 0.64831 0.14706 0.18534 0.0
C734 C 0.67572 0.1228 0.15134 0.0
O735 O 0.71353 0.15931 0.05535 0.0
O736 O 0.69761 0.18214 0.08279 0.0
N737 N 0.58609 0.0975 0.10009 0.0
C738 C 0.57422 0.08257 0.07018 0.0
C739 C 0.54815 0.07628 0.06128 0.0
C740 C 0.53449 0.0852 0.08334 0.0
C741 C 0.54704 0.10036 0.11418 0.0
C742 C 0.57294 0.10579 0.12189 0.0
H743 H 0.58453 0.0754 0.05341 0.0
O744 O 0.6578 0.14716 0.03577 0.0
O745 O 0.64121 0.13618 0.09079 0.0
O746 O 0.66267 0.10298 0.06274 0.0
O747 O 0.62289 0.0807 0.09031 0.0
C748 C 0.53518 0.11095 0.13698 0.0
C749 C 0.54961 0.12729 0.16643 0.0
H750 H 0.58412 0.15909 0.21915 0.0
H751 H 0.63051 0.1681 0.22666 0.0
H752 H 0.5385 0.06434 0.03771 0.0
H753 H 0.51446 0.08048 0.07617 0.0
H754 H 0.51516 0.1071 0.13169 0.0
H755 H 0.54044 0.13569 0.18338 0.0
Mn756 Mn 0.52611 0.6653 0.57037 0.0
Mn757 Mn 0.50735 0.6093 0.61917 0.0
C758 C 0.49603 0.6244 0.54473 0.0
C759 C 0.52239 0.70169 0.55072 0.0
C760 C 0.56093 0.64015 0.58222 0.0
O761 O 0.53554 0.67957 0.62201 0.0
O762 O 0.52006 0.64069 0.65155 0.0
C763 C 0.46154 0.60438 0.66102 0.0
N764 N 0.47224 0.59354 0.63873 0.0
C765 C 0.43489 0.54949 0.6477 0.0
C766 C 0.42342 0.56016 0.67077 0.0
C767 C 0.4367 0.58775 0.67722 0.0
C768 C 0.45953 0.56706 0.63213 0.0
H769 H 0.47206 0.62546 0.66671 0.0
C770 C 0.53061 0.66602 0.65094 0.0
O771 O 0.54482 0.70185 0.55004 0.0
O772 O 0.50215 0.68079 0.56461 0.0
N773 N 0.49436 0.57701 0.59244 0.0
C774 C 0.50665 0.57067 0.56616 0.0
C775 C 0.49498 0.54419 0.55423 0.0
C776 C 0.47108 0.5245 0.56986 0.0
C777 C 0.45884 0.53156 0.59693 0.0
C778 C 0.47123 0.5583 0.60738 0.0
H779 H 0.52532 0.58568 0.55471 0.0
O780 O 0.51139 0.64513 0.52543 0.0
O781 O 0.49897 0.62766 0.57984 0.0
O782 O 0.55728 0.65785 0.5676 0.0
O783 O 0.54379 0.62193 0.60222 0.0
C784 C 0.43463 0.51324 0.61359 0.0
C785 C 0.42268 0.52219 0.63903 0.0
H786 H 0.40432 0.5474 0.68342 0.0
H787 H 0.42798 0.59612 0.69499 0.0
H788 H 0.50459 0.53891 0.53339 0.0
H789 H 0.46221 0.50408 0.56072 0.0
H790 H 0.42468 0.49235 0.60635 0.0
H791 H 0.40374 0.50804 0.65094 0.0
Mn792 Mn 0.88475 0.54475 0.08427 0.0
Mn793 Mn 0.90379 0.5125 0.14202 0.0
C794 C 0.89008 0.50961 0.06357 0.0
C795 C 0.84827 0.54707 0.05993 0.0
C796 C 0.94219 0.56713 0.11029 0.0
O797 O 0.88 0.55743 0.13402 0.0
O798 O 0.88684 0.5296 0.16878 0.0
C799 C 0.84965 0.47082 0.16396 0.0
N800 N 0.87405 0.47773 0.15015 0.0
C801 C 0.86147 0.43179 0.14181 0.0
C802 C 0.83627 0.42417 0.15622 0.0
C803 C 0.83032 0.44379 0.16722 0.0
C804 C 0.8798 0.45903 0.13883 0.0
H805 H 0.84494 0.48584 0.17224 0.0
C806 C 0.88 0.54719 0.16446 0.0
O807 O 0.87224 0.56762 0.0591 0.0
O808 O 0.84573 0.52606 0.07559 0.0
N809 N 0.92059 0.4946 0.12072 0.0
C810 C 0.94642 0.50528 0.10979 0.0
C811 C 0.95615 0.48836 0.09987 0.0
C812 C 0.9394 0.46064 0.10184 0.0
C813 C 0.91311 0.4501 0.11398 0.0
C814 C 0.90468 0.46796 0.12412 0.0
H815 H 0.95959 0.52656 0.10888 0.0
O816 O 0.88896 0.52606 0.04103 0.0
O817 O 0.88719 0.51384 0.09712 0.0
O818 O 0.92569 0.56867 0.08868 0.0
O819 O 0.93544 0.54801 0.1328 0.0
C820 C 0.89503 0.42258 0.11677 0.0
C821 C 0.86913 0.41342 0.13034 0.0
H822 H 0.82135 0.40334 0.15893 0.0
H823 H 0.81088 0.43808 0.17821 0.0
H824 H 0.97654 0.49665 0.09081 0.0
H825 H 0.94693 0.44765 0.09397 0.0
H826 H 0.90086 0.40829 0.10861 0.0
H827 H 0.85537 0.39222 0.13226 0.0
Mn828 Mn 0.34092 0.87313 0.57757 0.0
Mn829 Mn 0.40029 0.90485 0.62188 0.0
C830 C 0.37713 0.87003 0.55582 0.0
C831 C 0.29846 0.83709 0.56394 0.0
C832 C 0.38195 0.93296 0.57166 0.0
O833 O 0.32954 0.87932 0.62733 0.0
O834 O 0.37067 0.90259 0.65123 0.0
C835 C 0.38731 0.86478 0.67932 0.0
N836 N 0.40405 0.88079 0.65305 0.0
C837 C 0.43762 0.86995 0.66973 0.0
C838 C 0.4208 0.85344 0.69714 0.0
C839 C 0.39547 0.85071 0.70177 0.0
C840 C 0.42837 0.88342 0.64818 0.0
H841 H 0.36797 0.86289 0.68322 0.0
C842 C 0.34543 0.8928 0.6528 0.0
O843 O 0.30491 0.86145 0.55702 0.0
O844 O 0.31621 0.83361 0.58064 0.0
N845 N 0.43174 0.90945 0.59858 0.0
C846 C 0.44448 0.92431 0.56902 0.0
C847 C 0.46967 0.92819 0.55964 0.0
C848 C 0.4817 0.91719 0.58111 0.0
C849 C 0.46831 0.90217 0.61161 0.0
C850 C 0.44326 0.899 0.61964 0.0
H851 H 0.43549 0.93314 0.55281 0.0
O852 O 0.3579 0.86703 0.53482 0.0
O853 O 0.37523 0.87528 0.58968 0.0
O854 O 0.35873 0.91327 0.56565 0.0
O855 O 0.39932 0.93162 0.59102 0.0
C856 C 0.47837 0.88944 0.63363 0.0
C857 C 0.46301 0.87328 0.6626 0.0
H858 H 0.42703 0.84259 0.71456 0.0
H859 H 0.38232 0.83789 0.72268 0.0
H860 H 0.47987 0.93976 0.53605 0.0
H861 H 0.50104 0.92008 0.57361 0.0
H862 H 0.49767 0.89149 0.62807 0.0
H863 H 0.47076 0.86322 0.67892 0.0
H864 H 0.33323 0.42964 0.19784 0.0
H865 H 0.31058 0.48979 0.19708 0.0
H866 H 0.30334 0.4852 0.26239 0.0
H867 H 0.31318 0.47113 0.32047 0.0
H868 H 0.34125 0.41508 0.32089 0.0
H869 H 0.33625 0.41042 0.25534 0.0
C870 C 0.32542 0.44071 0.21187 0.0
C871 C 0.32188 0.4596 0.19286 0.0
C872 C 0.32286 0.43902 0.2496 0.0
C873 C 0.31278 0.47468 0.21124 0.0
C874 C 0.30906 0.47233 0.24863 0.0
C875 C 0.31707 0.45709 0.3062 0.0
C876 C 0.32724 0.44319 0.32521 0.0
C877 C 0.31539 0.45557 0.2683 0.0
C878 C 0.33308 0.42566 0.30661 0.0
C879 C 0.33043 0.4232 0.26916 0.0
H880 H 0.82417 0.33748 0.70851 0.0
H881 H 0.88276 0.31326 0.69506 0.0
H882 H 0.88225 0.30554 0.76006 0.0
H883 H 0.87306 0.31649 0.82129 0.0
H884 H 0.8155 0.34228 0.83346 0.0
H885 H 0.80698 0.33778 0.76877 0.0
C886 C 0.8359 0.32935 0.71969 0.0
C887 C 0.85355 0.32606 0.69723 0.0
C888 C 0.83595 0.32563 0.7571 0.0
C889 C 0.86882 0.31569 0.71186 0.0
C890 C 0.8688 0.31164 0.74913 0.0
C891 C 0.85772 0.3198 0.8099 0.0
C892 C 0.84503 0.32986 0.832 0.0
C893 C 0.85358 0.31804 0.77224 0.0
C894 C 0.82552 0.33455 0.81691 0.0
C895 C 0.82083 0.33224 0.77984 0.0
H896 H 0.5801 0.91746 0.30766 0.0
H897 H 0.53313 0.8325 0.32036 0.0
H898 H 0.53624 0.82632 0.25548 0.0
H899 H 0.54427 0.84603 0.19414 0.0
H900 H 0.59074 0.93122 0.1826 0.0
H901 H 0.5968 0.93644 0.24777 0.0
C902 C 0.57151 0.89759 0.29634 0.0
C903 C 0.5564 0.87548 0.31854 0.0
C904 C 0.57315 0.89429 0.25905 0.0
C905 C 0.54512 0.84979 0.30374 0.0
C906 C 0.54665 0.84629 0.26657 0.0
C907 C 0.55683 0.86557 0.20586 0.0
C908 C 0.56706 0.88823 0.1837 0.0
C909 C 0.55953 0.86848 0.2437 0.0
C910 C 0.58282 0.91352 0.19921 0.0
C911 C 0.58601 0.91654 0.23652 0.0
H912 H 0.7012 0.58945 0.82354 0.0
H913 H 0.71269 0.52174 0.82612 0.0
H914 H 0.71868 0.52401 0.76072 0.0
H915 H 0.70954 0.53838 0.70269 0.0
H916 H 0.69385 0.60339 0.69997 0.0
H917 H 0.70114 0.60965 0.76516 0.0
C918 C 0.70645 0.57616 0.80985 0.0
C919 C 0.70684 0.55567 0.82941 0.0
C920 C 0.70852 0.57682 0.77202 0.0
C921 C 0.71275 0.53792 0.81151 0.0
C922 C 0.71579 0.539 0.77407 0.0
C923 C 0.70904 0.5547 0.71627 0.0
C924 C 0.70155 0.57065 0.69683 0.0
C925 C 0.71214 0.55737 0.75391 0.0
C926 C 0.70009 0.59125 0.71453 0.0
C927 C 0.70393 0.59459 0.75183 0.0
H928 H 0.1482 0.70018 0.31182 0.0
H929 H 0.20826 0.67851 0.33023 0.0
H930 H 0.21952 0.68396 0.26627 0.0
H931 H 0.20419 0.68348 0.20452 0.0
H932 H 0.1429 0.70323 0.18498 0.0
H933 H 0.14061 0.71069 0.24959 0.0
C934 C 0.16468 0.69806 0.30199 0.0
C935 C 0.17741 0.68895 0.32556 0.0
C936 C 0.17038 0.70031 0.26475 0.0
C937 C 0.19832 0.68565 0.31253 0.0
C938 C 0.20455 0.68847 0.27587 0.0
C939 C 0.19125 0.69064 0.21432 0.0
C940 C 0.17363 0.69265 0.19021 0.0
C941 C 0.18955 0.69412 0.25152 0.0
C942 C 0.15681 0.70178 0.20305 0.0
C943 C 0.15524 0.70565 0.2401 0.0
H944 H 0.44502 0.10204 0.8066 0.0
H945 H 0.48893 0.18718 0.8191 0.0
H946 H 0.49046 0.19267 0.75338 0.0
H947 H 0.48738 0.17259 0.69282 0.0
H948 H 0.44548 0.08713 0.68239 0.0
H949 H 0.43461 0.08231 0.74642 0.0
C950 C 0.45392 0.12179 0.79488 0.0
C951 C 0.46681 0.14415 0.81747 0.0
C952 C 0.45552 0.12467 0.75727 0.0
C953 C 0.47854 0.16968 0.80218 0.0
C954 C 0.47978 0.17278 0.76456 0.0
C955 C 0.47506 0.15302 0.70445 0.0
C956 C 0.46736 0.13022 0.68311 0.0
C957 C 0.46954 0.15037 0.74181 0.0
C958 C 0.45171 0.10492 0.69845 0.0
C959 C 0.44558 0.10214 0.73508 0.0
H960 H 0.57045 0.68241 0.70064 0.0
H961 H 0.49434 0.67616 0.68042 0.0
H962 H 0.48954 0.68274 0.74451 0.0
H963 H 0.50296 0.68094 0.80703 0.0
H964 H 0.57964 0.68867 0.82769 0.0
H965 H 0.58879 0.69177 0.7629 0.0
C966 C 0.55342 0.68368 0.71019 0.0
C967 C 0.53277 0.67887 0.68605 0.0
C968 C 0.55082 0.68749 0.74722 0.0
C969 C 0.51055 0.68008 0.69861 0.0
C970 C 0.50771 0.68361 0.73529 0.0
C971 C 0.52218 0.68461 0.79733 0.0
C972 C 0.54063 0.68464 0.82198 0.0
C973 C 0.52713 0.68608 0.76003 0.0
C974 C 0.56532 0.68902 0.80921 0.0
C975 C 0.57037 0.69035 0.7721 0.0
H976 H 0.89663 0.58271 0.32222 0.0
H977 H 0.82661 0.50538 0.33278 0.0
H978 H 0.81854 0.50384 0.26796 0.0
H979 H 0.8381 0.51935 0.20806 0.0
H980 H 0.90977 0.59522 0.19668 0.0
H981 H 0.91026 0.60306 0.26169 0.0
C982 C 0.87886 0.56624 0.31045 0.0
C983 C 0.86211 0.54424 0.33204 0.0
C984 C 0.87502 0.56507 0.27282 0.0
C985 C 0.83953 0.52262 0.31659 0.0
C986 C 0.83513 0.52161 0.27947 0.0
C987 C 0.85303 0.53815 0.21969 0.0
C988 C 0.87383 0.55672 0.19786 0.0
C989 C 0.85367 0.54196 0.25716 0.0
C990 C 0.89336 0.58085 0.21302 0.0
C991 C 0.89385 0.58512 0.25028 0.0
H992 H 0.31092 0.85504 0.69957 0.0
H993 H 0.35969 0.93971 0.68446 0.0
H994 H 0.35803 0.94713 0.74892 0.0
H995 H 0.35175 0.92889 0.80996 0.0
H996 H 0.30456 0.84431 0.82639 0.0
H997 H 0.29598 0.83738 0.76144 0.0
C998 C 0.32002 0.87511 0.71028 0.0
C999 C 0.33538 0.89684 0.68741 0.0
C1000 C 0.31974 0.87917 0.7478 0.0
C1001 C 0.34764 0.92275 0.70162 0.0
C1002 C 0.34693 0.92698 0.73854 0.0
C1003 C 0.33859 0.90907 0.7994 0.0
C1004 C 0.32882 0.88715 0.82276 0.0
C1005 C 0.33436 0.90527 0.76204 0.0
C1006 C 0.31202 0.86151 0.80892 0.0
C1007 C 0.30745 0.85753 0.77168 0.0
H1008 H 0.50595 0.32679 0.32261 0.0
H1009 H 0.43813 0.33828 0.32374 0.0
H1010 H 0.43284 0.33101 0.2585 0.0
H1011 H 0.45409 0.33214 0.20057 0.0
H1012 H 0.52567 0.32707 0.19937 0.0
H1013 H 0.52275 0.32033 0.2647 0.0
C1014 C 0.48928 0.32638 0.30868 0.0
C1015 C 0.47216 0.3326 0.3278 0.0
C1016 C 0.48741 0.32376 0.27088 0.0
C1017 C 0.45119 0.33303 0.3095 0.0
C1018 C 0.4484 0.3292 0.27216 0.0
C1019 C 0.4682 0.32816 0.2145 0.0
C1020 C 0.48979 0.3296 0.1953 0.0
C1021 C 0.46727 0.32601 0.25235 0.0
C1022 C 0.50861 0.32548 0.21363 0.0
C1023 C 0.50713 0.32202 0.25105 0.0
H1024 H 0.13117 0.43671 0.69826 0.0
H1025 H 0.19828 0.51588 0.68667 0.0
H1026 H 0.20728 0.51804 0.75122 0.0
H1027 H 0.18893 0.50184 0.81156 0.0
H1028 H 0.12102 0.42334 0.8241 0.0
H1029 H 0.1197 0.41602 0.75887 0.0
C1030 C 0.14857 0.45379 0.7097 0.0
C1031 C 0.16407 0.47612 0.68795 0.0
C1032 C 0.15307 0.45518 0.7472 0.0
C1033 C 0.18622 0.49845 0.70301 0.0
C1034 C 0.19117 0.49979 0.73999 0.0
C1035 C 0.1747 0.48269 0.80007 0.0
C1036 C 0.15511 0.46315 0.82233 0.0
C1037 C 0.17372 0.47896 0.76256 0.0
C1038 C 0.13649 0.4385 0.80738 0.0
C1039 C 0.13552 0.43449 0.77002 0.0
H1040 H 0.67712 0.09401 0.31022 0.0
H1041 H 0.7176 0.17924 0.32127 0.0
H1042 H 0.72388 0.18423 0.25572 0.0
H1043 H 0.70894 0.16363 0.19521 0.0
H1044 H 0.66656 0.07818 0.18554 0.0
H1045 H 0.67069 0.07384 0.25031 0.0
C1046 C 0.68826 0.11366 0.29828 0.0
C1047 C 0.6969 0.13622 0.32026 0.0
C1048 C 0.69123 0.11625 0.26069 0.0
C1049 C 0.71108 0.16163 0.30475 0.0
C1050 C 0.71438 0.16444 0.26725 0.0
C1051 C 0.70183 0.14418 0.20715 0.0
C1052 C 0.68754 0.12123 0.18578 0.0
C1053 C 0.70336 0.14184 0.24482 0.0
C1054 C 0.67778 0.09606 0.20155 0.0
C1055 C 0.67986 0.09358 0.23864 0.0
H1056 H 0.18784 0.42496 0.98002 0.0
H1057 H 0.22238 0.51042 0.98266 0.0
H1058 H 0.26202 0.51535 0.01161 0.0
H1059 H 0.28755 0.49634 0.03595 0.0
H1060 H 0.25592 0.41153 0.03263 0.0
H1061 H 0.21482 0.40548 1.00438 0.0
C1062 C 0.20406 0.44459 0.98701 0.0
C1063 C 0.20194 0.46725 0.97896 0.0
C1064 C 0.22746 0.4475 1.00359 0.0
C1065 C 0.22329 0.49256 0.98815 0.0
C1066 C 0.24611 0.4955 1.00488 0.0
C1067 C 0.27169 0.47644 0.02922 0.0
C1068 C 0.27484 0.45443 0.03663 0.0
C1069 C 0.24846 0.47321 0.01266 0.0
C1070 C 0.25406 0.42886 0.02729 0.0
C1071 C 0.23053 0.42541 0.01113 0.0
H1072 H 0.73522 0.22671 0.47391 0.0
H1073 H 0.77478 0.18056 0.47179 0.0
H1074 H 0.8135 0.21657 0.50245 0.0
H1075 H 0.8358 0.26107 0.53183 0.0
H1076 H 0.79462 0.30577 0.53545 0.0
H1077 H 0.7572 0.27065 0.50268 0.0
C1078 C 0.75242 0.22463 0.4798 0.0
C1079 C 0.75208 0.20099 0.47034 0.0
C1080 C 0.7744 0.24518 0.49814 0.0
C1081 C 0.77447 0.19855 0.47866 0.0
C1082 C 0.79664 0.21914 0.49632 0.0
C1083 C 0.81864 0.26308 0.52542 0.0
C1084 C 0.81817 0.28612 0.53631 0.0
C1085 C 0.79677 0.24251 0.50657 0.0
C1086 C 0.79566 0.28831 0.5277 0.0
C1087 C 0.77415 0.26821 0.50878 0.0
H1088 H 0.57792 0.8211 0.02987 0.0
H1089 H 0.49419 0.77928 0.05657 0.0
H1090 H 0.48917 0.73867 0.0295 0.0
H1091 H 0.50793 0.71523 0.99615 0.0
H1092 H 0.59189 0.75575 0.97151 0.0
H1093 H 0.59744 0.7965 0.99975 0.0
C1094 C 0.55862 0.80304 0.03005 0.0
C1095 C 0.53643 0.80341 0.04524 0.0
C1096 C 0.55586 0.7795 0.01452 0.0
C1097 C 0.51163 0.77971 0.04526 0.0
C1098 C 0.5087 0.75643 0.02959 0.0
C1099 C 0.52748 0.73297 0.99693 0.0
C1100 C 0.54943 0.73246 0.98131 0.0
C1101 C 0.53057 0.75615 0.01376 0.0
C1102 C 0.57466 0.75556 0.98316 0.0
C1103 C 0.57781 0.77889 0.99931 0.0
H1104 H 0.73771 0.51905 0.54821 0.0
H1105 H 0.77347 0.60441 0.5443 0.0
H1106 H 0.8135 0.60818 0.51636 0.0
H1107 H 0.83803 0.58692 0.49124 0.0
H1108 H 0.80048 0.50125 0.49273 0.0
H1109 H 0.76175 0.49798 0.52311 0.0
C1110 C 0.75436 0.5385 0.54156 0.0
C1111 C 0.75262 0.5614 0.54855 0.0
C1112 C 0.77705 0.54048 0.52471 0.0
C1113 C 0.77427 0.58643 0.53927 0.0
C1114 C 0.79718 0.58861 0.52321 0.0
C1115 C 0.82138 0.56758 0.49828 0.0
C1116 C 0.82225 0.54439 0.48957 0.0
C1117 C 0.79875 0.56574 0.51548 0.0
C1118 C 0.8004 0.51946 0.49882 0.0
C1119 C 0.77818 0.51752 0.51636 0.0
H1120 H 0.29226 0.78947 0.96352 0.0
H1121 H 0.25847 0.84028 0.97754 0.0
H1122 H 0.21925 0.80395 1.00672 0.0
H1123 H 0.19515 0.7578 0.03096 0.0
H1124 H 0.23105 0.70857 0.01927 0.0
H1125 H 0.26839 0.74388 0.98681 0.0
C1126 C 0.27618 0.79252 0.97257 0.0
C1127 C 0.27833 0.81757 0.96815 0.0
C1128 C 0.25396 0.77173 0.99017 0.0
C1129 C 0.25739 0.8212 0.98054 0.0
C1130 C 0.23492 0.80042 0.99733 0.0
C1131 C 0.21109 0.75482 0.02113 0.0
C1132 C 0.21021 0.7305 0.02781 0.0
C1133 C 0.23307 0.77561 1.00275 0.0
C1134 C 0.23118 0.72708 0.01493 0.0
C1135 C 0.25262 0.74729 0.99617 0.0
H1136 H 0.52922 0.22975 0.52411 0.0
H1137 H 0.44633 0.19205 0.55452 0.0
H1138 H 0.4425 0.22791 0.52634 0.0
H1139 H 0.46202 0.26913 0.49185 0.0
H1140 H 0.5444 0.30695 0.45895 0.0
H1141 H 0.54901 0.27175 0.48872 0.0
C1142 C 0.51048 0.22967 0.52497 0.0
C1143 C 0.48814 0.20839 0.54168 0.0
C1144 C 0.50819 0.25012 0.50775 0.0
C1145 C 0.46382 0.20824 0.54197 0.0
C1146 C 0.46157 0.22868 0.52571 0.0
C1147 C 0.48102 0.2697 0.49099 0.0
C1148 C 0.50281 0.29066 0.47306 0.0
C1149 C 0.4835 0.24953 0.50819 0.0
C1150 C 0.52723 0.29098 0.47233 0.0
C1151 C 0.52992 0.27092 0.48955 0.0
H1152 H 0.84056 0.5887 0.03882 0.0
H1153 H 0.80256 0.50295 0.04131 0.0
H1154 H 0.76305 0.49902 0.01298 0.0
H1155 H 0.73867 0.51916 0.98781 0.0
H1156 H 0.77396 0.60449 0.98661 0.0
H1157 H 0.81483 0.60933 0.01401 0.0
C1158 C 0.82363 0.56922 0.03306 0.0
C1159 C 0.82469 0.54617 0.04233 0.0
C1160 C 0.80036 0.56696 0.017 0.0
C1161 C 0.80242 0.52107 0.03482 0.0
C1162 C 0.77971 0.51873 0.01846 0.0
C1163 C 0.75529 0.5389 0.99338 0.0
C1164 C 0.75323 0.56142 0.98491 0.0
C1165 C 0.7784 0.54146 0.00952 0.0
C1166 C 0.77496 0.58678 0.9928 0.0
C1167 C 0.79836 0.58954 0.00845 0.0
H1168 H 0.19047 0.75701 0.48484 0.0
H1169 H 0.2253 0.70663 0.4933 0.0
H1170 H 0.2627 0.74097 0.52716 0.0
H1171 H 0.28689 0.78609 0.55244 0.0
H1172 H 0.25384 0.83778 0.54182 0.0
H1173 H 0.21455 0.80231 0.51146 0.0
C1174 C 0.20622 0.75356 0.49418 0.0
C1175 C 0.20501 0.72923 0.48625 0.0
C1176 C 0.22809 0.77367 0.51353 0.0
C1177 C 0.22567 0.72516 0.49865 0.0
C1178 C 0.24713 0.7448 0.51821 0.0
C1179 C 0.2709 0.78946 0.544 0.0
C1180 C 0.27328 0.81452 0.54961 0.0
C1181 C 0.24869 0.76921 0.52562 0.0
C1182 C 0.25252 0.81865 0.53794 0.0
C1183 C 0.23006 0.79839 0.52041 0.0
H1184 H 0.4476 0.19978 0.97921 0.0
H1185 H 0.53154 0.2412 0.95362 0.0
H1186 H 0.53711 0.28117 0.98338 0.0
H1187 H 0.5188 0.30405 0.01874 0.0
H1188 H 0.43476 0.26396 0.04287 0.0
H1189 H 0.42859 0.22392 0.01173 0.0
C1190 C 0.46706 0.21762 0.97986 0.0
C1191 C 0.48913 0.21733 0.96419 0.0
C1192 C 0.47017 0.24077 0.99704 0.0
C1193 C 0.51417 0.24073 0.9653 0.0
C1194 C 0.51743 0.26364 0.98249 0.0
C1195 C 0.49909 0.28656 0.01722 0.0
C1196 C 0.47731 0.28696 0.0335 0.0
C1197 C 0.49567 0.26381 0.99884 0.0
C1198 C 0.45188 0.26421 0.03072 0.0
C1199 C 0.44837 0.24129 0.01291 0.0
H1200 H 0.18247 0.43104 0.52435 0.0
H1201 H 0.22486 0.51684 0.53068 0.0
H1202 H 0.26302 0.51883 0.50022 0.0
H1203 H 0.28526 0.49644 0.47329 0.0
H1204 H 0.24419 0.4107 0.46902 0.0
H1205 H 0.2048 0.40851 0.49662 0.0
C1206 C 0.20005 0.45015 0.519 0.0
C1207 C 0.20073 0.47372 0.52999 0.0
C1208 C 0.22225 0.45121 0.50163 0.0
C1209 C 0.22373 0.49832 0.5228 0.0
C1210 C 0.24563 0.49953 0.50523 0.0
C1211 C 0.26758 0.47728 0.47799 0.0
C1212 C 0.26767 0.45379 0.46893 0.0
C1213 C 0.2452 0.47614 0.49467 0.0
C1214 C 0.24468 0.42911 0.47568 0.0
C1215 C 0.22213 0.42783 0.49158 0.0
H1216 H 0.80073 0.29734 0.00893 0.0
H1217 H 0.83928 0.25527 0.96904 0.0
H1218 H 0.80433 0.21397 0.99622 0.0
H1219 H 0.76169 0.18941 0.02958 0.0
H1220 H 0.72448 0.23244 0.07107 0.0
H1221 H 0.76007 0.27365 0.04541 0.0
C1222 C 0.80152 0.27914 1.00619 0.0
C1223 C 0.82249 0.27937 0.98662 0.0
C1224 C 0.78158 0.25559 0.02233 0.0
C1225 C 0.82337 0.25567 0.98384 0.0
C1226 C 0.80335 0.23203 0.99938 0.0
C1227 C 0.7615 0.20785 0.03331 0.0
C1228 C 0.74027 0.2077 0.0522 0.0
C1229 C 0.78221 0.23168 0.01848 0.0
C1230 C 0.74049 0.23186 0.05679 0.0
C1231 C 0.76082 0.25549 0.04194 0.0
H1232 H 0.49402 0.78233 0.47469 0.0
H1233 H 0.57926 0.82498 0.45935 0.0
H1234 H 0.58275 0.78964 0.48981 0.0
H1235 H 0.56202 0.74735 0.52213 0.0
H1236 H 0.47706 0.70472 0.54001 0.0
H1237 H 0.47305 0.7394 0.50783 0.0
C1238 C 0.51326 0.78362 0.47761 0.0
C1239 C 0.53634 0.80613 0.4645 0.0
C1240 C 0.51523 0.76345 0.49614 0.0
C1241 C 0.56121 0.80783 0.46909 0.0
C1242 C 0.56324 0.78768 0.48665 0.0
C1243 C 0.5426 0.74563 0.51918 0.0
C1244 C 0.51989 0.72347 0.5336 0.0
C1245 C 0.54046 0.76557 0.50063 0.0
C1246 C 0.49491 0.72164 0.52941 0.0
C1247 C 0.49258 0.74141 0.5108 0.0
H1248 H 0.41582 0.45196 0.15656 0.0
H1249 H 0.37423 0.41509 0.05776 0.0
H1250 H 0.39727 0.38946 0.05453 0.0
H1251 H 0.43239 0.38055 0.07714 0.0
H1252 H 0.47374 0.41842 0.17583 0.0
H1253 H 0.44755 0.44035 0.18163 0.0
C1254 C 0.41154 0.43816 0.13441 0.0
C1255 C 0.39344 0.43573 0.10727 0.0
C1256 C 0.42499 0.42368 0.13255 0.0
C1257 C 0.38803 0.41744 0.07907 0.0
C1258 C 0.40132 0.40284 0.07711 0.0
C1259 C 0.43533 0.39322 0.10024 0.0
C1260 C 0.45529 0.39792 0.1258 0.0
C1261 C 0.42029 0.40619 0.10333 0.0
C1262 C 0.4588 0.41454 0.15549 0.0
C1263 C 0.44381 0.42718 0.15887 0.0
H1264 H 0.05069 0.43653 0.66256 0.0
H1265 H 0.05714 0.41516 0.55312 0.0
H1266 H 1.0086 0.38715 0.54953 0.0
H1267 H 0.96408 0.37427 0.57469 0.0
H1268 H 0.95861 0.39695 0.68389 0.0
H1269 H 1.0068 0.4185 0.69043 0.0
C1270 C 0.04153 0.42533 0.63813 0.0
C1271 C 0.05755 0.42822 0.60804 0.0
C1272 C 0.01364 0.40964 0.63607 0.0
C1273 C 0.04534 0.41331 0.57675 0.0
C1274 C 0.01752 0.39743 0.57457 0.0
C1275 C 0.97338 0.38326 0.60022 0.0
C1276 C 0.95771 0.38425 0.62859 0.0
C1277 C 1.00139 0.3962 0.60365 0.0
C1278 C 0.97016 0.39614 0.66145 0.0
C1279 C 0.99778 0.40858 0.66522 0.0
H1280 H 0.5683 0.96593 0.0208 0.0
H1281 H 0.617 0.95309 0.09651 0.0
H1282 H 0.64886 1.00099 0.0984 0.0
H1283 H 0.65683 0.04672 0.08872 0.0
H1284 H 0.6076 0.05904 0.01325 0.0
H1285 H 0.58235 0.01139 1.00026 0.0
C1286 C 0.58657 0.97358 0.03633 0.0
C1287 C 0.59047 0.95611 0.05829 0.0
C1288 C 0.60448 1.00117 0.03773 0.0
C1289 C 0.61389 0.96617 0.07889 0.0
C1290 C 0.63189 0.99361 0.08037 0.0
C1291 C 0.64147 0.03904 0.06811 0.0
C1292 C 0.6341 0.05628 0.0518 0.0
C1293 C 0.62665 0.01141 0.06132 0.0
C1294 C 0.61372 0.04612 0.02584 0.0
C1295 C 0.59909 0.01882 0.0187 0.0
H1296 H 0.63141 0.59216 0.53716 0.0
H1297 H 0.65613 0.61155 0.6479 0.0
H1298 H 0.63367 0.63753 0.65213 0.0
H1299 H 0.5997 0.64682 0.62815 0.0
H1300 H 0.57376 0.62704 0.51804 0.0
H1301 H 0.60412 0.60954 0.5093 0.0
C1302 C 0.63282 0.60311 0.56158 0.0
C1303 C 0.64551 0.6002 0.59212 0.0
C1304 C 0.61918 0.61751 0.56408 0.0
C1305 C 0.64668 0.61383 0.624 0.0
C1306 C 0.63361 0.62845 0.62654 0.0
C1307 C 0.6016 0.6397 0.60186 0.0
C1308 C 0.58482 0.63837 0.57369 0.0
C1309 C 0.61874 0.62933 0.59733 0.0
C1310 C 0.58692 0.62866 0.53988 0.0
C1311 C 0.60403 0.61835 0.53505 0.0
H1312 H 0.9801 0.57933 0.16137 0.0
H1313 H 0.96984 0.59877 0.05257 0.0
H1314 H 0.01835 0.62464 0.04495 0.0
H1315 H 0.06381 0.63735 0.06722 0.0
H1316 H 0.07257 0.61649 0.17605 0.0
H1317 H 0.02478 0.59585 0.18552 0.0
C1318 C 0.9884 0.58953 0.13609 0.0
C1319 C 0.97123 0.58684 0.10751 0.0
C1320 C 0.01622 0.604 0.13175 0.0
C1321 C 0.98249 0.6005 0.07512 0.0
C1322 C 1.01029 0.61516 0.07065 0.0
C1323 C 0.0553 0.6288 0.09322 0.0
C1324 C 0.07188 0.62827 0.12072 0.0
C1325 C 0.02741 0.61645 0.09847 0.0
C1326 C 0.06038 0.61695 0.15421 0.0
C1327 C 0.03297 0.60508 0.15971 0.0
H1328 H 0.45828 0.04812 0.52406 0.0
H1329 H 0.41195 0.06349 0.60096 0.0
H1330 H 0.37865 0.01593 0.60279 0.0
H1331 H 0.36851 0.96956 0.59216 0.0
H1332 H 0.41603 0.95488 0.51636 0.0
H1333 H 0.44277 1.00244 0.50365 0.0
C1334 C 0.4403 0.04108 0.54005 0.0
C1335 C 0.43742 0.05904 0.56234 0.0
C1336 C 0.42168 0.01376 0.54145 0.0
C1337 C 0.4143 0.04992 0.58327 0.0
C1338 C 0.39547 0.02271 0.58463 0.0
C1339 C 0.38392 0.97679 0.57167 0.0
C1340 C 0.39039 0.95896 0.55511 0.0
C1341 C 0.39967 1.00432 0.5652 0.0
C1342 C 0.41074 0.96839 0.52921 0.0
C1343 C 0.42615 0.99557 0.52219 0.0
H1344 H 0.59538 0.63684 0.94606 0.0
H1345 H 0.55516 0.59978 0.84642 0.0
H1346 H 0.58209 0.57872 0.8402 0.0
H1347 H 0.61419 0.56758 0.86497 0.0
H1348 H 0.65468 0.6034 0.96476 0.0
H1349 H 0.63095 0.62838 0.96854 0.0
C1350 C 0.59283 0.62451 0.92271 0.0
C1351 C 0.57294 0.61978 0.89698 0.0
C1352 C 0.60836 0.61204 0.91933 0.0
C1353 C 0.56998 0.60363 0.86694 0.0
C1354 C 0.58542 0.59151 0.86328 0.0
C1355 C 0.61812 0.58104 0.88745 0.0
C1356 C 0.63611 0.58334 0.91468 0.0
C1357 C 0.6042 0.59506 0.88967 0.0
C1358 C 0.64102 0.60118 0.94332 0.0
C1359 C 0.6273 0.61538 0.94562 0.0
H1360 H 0.97275 0.58425 0.35799 0.0
H1361 H 0.96757 0.60458 0.46842 0.0
H1362 H 0.01612 0.63307 0.47082 0.0
H1363 H 0.06033 0.6462 0.44435 0.0
H1364 H 0.0646 0.62423 0.33437 0.0
H1365 H 0.0163 0.60286 0.32883 0.0
C1366 C 0.98218 0.59535 0.38238 0.0
C1367 C 0.96655 0.59199 0.41311 0.0
C1368 C 1.01008 0.61129 0.38374 0.0
C1369 C 0.97908 0.60678 0.44435 0.0
C1370 C 1.00691 0.62293 0.44582 0.0
C1371 C 0.05075 0.63752 0.41883 0.0
C1372 C 0.06608 0.63663 0.38991 0.0
C1373 C 0.0227 0.62455 0.41609 0.0
C1374 C 0.05328 0.62503 0.35713 0.0
C1375 C 0.02561 0.61266 0.35398 0.0
H1376 H 0.45401 0.05581 0.97815 0.0
H1377 H 0.40752 0.06695 0.89685 0.0
H1378 H 0.37641 0.01884 0.89486 0.0
H1379 H 0.3681 0.97335 0.90772 0.0
H1380 H 0.41564 0.96271 0.98798 0.0
H1381 H 0.44046 0.01065 0.99942 0.0
C1382 C 0.4364 0.04773 0.96118 0.0
C1383 C 0.43281 0.0648 0.93797 0.0
C1384 C 0.41907 0.02002 0.95958 0.0
C1385 C 0.4103 0.05418 0.91548 0.0
C1386 C 0.39276 0.02662 0.91398 0.0
C1387 C 0.38313 0.98152 0.92875 0.0
C1388 C 0.38997 0.96463 0.94723 0.0
C1389 C 0.39766 0.00926 0.93469 0.0
C1390 C 0.40991 0.97538 0.97378 0.0
C1391 C 0.42424 1.0028 0.98009 0.0
H1392 H 0.39705 0.42812 0.49008 0.0
H1393 H 0.35138 0.38726 0.39589 0.0
H1394 H 0.37444 0.36168 0.39212 0.0
H1395 H 0.41453 0.35901 0.40762 0.0
H1396 H 0.46137 0.40144 0.50034 0.0
H1397 H 0.43093 0.41816 0.51321 0.0
C1398 C 0.39128 0.41263 0.46989 0.0
C1399 C 0.37242 0.40926 0.44353 0.0
C1400 C 0.40534 0.39877 0.46722 0.0
C1401 C 0.36546 0.38969 0.41687 0.0
C1402 C 0.37897 0.37542 0.41438 0.0
C1403 C 0.41727 0.37095 0.43151 0.0
C1404 C 0.43989 0.37891 0.45323 0.0
C1405 C 0.39995 0.38089 0.43822 0.0
C1406 C 0.4438 0.39485 0.48365 0.0
C1407 C 0.42655 0.40459 0.49077 0.0
H1408 H 0.04801 0.43948 0.85721 0.0
H1409 H 0.05606 0.40818 0.9589 0.0
H1410 H 1.00743 0.3819 0.96434 0.0
H1411 H 0.96271 0.37246 0.94377 0.0
H1412 H 0.95596 0.40584 0.84306 0.0
H1413 H 1.00384 0.42646 0.83374 0.0
C1414 C 0.03922 0.42661 0.88037 0.0
C1415 C 0.05581 0.4261 0.90778 0.0
C1416 C 1.01133 0.41208 0.8837 0.0
C1417 C 0.04389 0.409 0.93732 0.0
C1418 C 0.01602 0.39411 0.94059 0.0
C1419 C 0.97164 0.38372 0.91939 0.0
C1420 C 0.95566 0.38771 0.89429 0.0
C1421 C 0.99952 0.39613 0.91447 0.0
C1422 C 0.96769 0.40258 0.86299 0.0
C1423 C 0.99514 0.41446 0.85763 0.0
H1424 H 0.60977 0.96051 0.40076 0.0
H1425 H 0.55718 0.95469 0.48673 0.0
H1426 H 0.58493 1.00234 0.49905 0.0
H1427 H 0.61909 0.04651 0.47768 0.0
H1428 H 0.67062 0.05298 0.38999 0.0
H1429 H 0.64914 1.00436 0.38655 0.0
C1430 C 0.60512 0.9696 0.42308 0.0
C1431 C 0.5817 0.95427 0.44308 0.0
C1432 C 0.62092 0.99718 0.42944 0.0
C1433 C 0.57533 0.96618 0.47136 0.0
C1434 C 0.59108 0.99343 0.47819 0.0
C1435 C 0.62631 0.03719 0.45892 0.0
C1436 C 0.64656 0.05314 0.43442 0.0
C1437 C 0.61325 0.00929 0.45641 0.0
C1438 C 0.65545 0.04102 0.4096 0.0
C1439 C 0.64287 0.01322 0.4073 0.0
H1440 H 0.45574 0.61675 0.98464 0.0
H1441 H 0.50952 0.58587 0.98444 0.0
H1442 H 0.47446 0.54349 0.00908 0.0
H1443 H 0.4277 0.51476 0.02889 0.0
H1444 H 0.37779 0.54949 0.04272 0.0
H1445 H 0.41157 0.59064 0.01373 0.0
C1446 C 0.45964 0.60066 0.99014 0.0
C1447 C 0.48448 0.60357 0.98112 0.0
C1448 C 0.43998 0.57711 1.00646 0.0
C1449 C 0.49006 0.58342 0.99004 0.0
C1450 C 0.47009 0.55931 1.00414 0.0
C1451 C 0.42456 0.53158 0.02612 0.0
C1452 C 0.40068 0.52948 0.03833 0.0
C1453 C 0.44483 0.55578 0.01201 0.0
C1454 C 0.39633 0.55101 0.03391 0.0
C1455 C 0.4156 0.57447 0.01743 0.0
H1456 H 0.85245 0.40083 0.53895 0.0
H1457 H 0.9365 0.4281 0.53802 0.0
H1458 H 0.9458 0.47129 0.51397 0.0
H1459 H 0.92952 0.5016 0.4944 0.0
H1460 H 0.84506 0.47001 0.48209 0.0
H1461 H 0.83606 0.42836 0.51076 0.0
C1462 C 0.87275 0.4163 0.53324 0.0
C1463 C 0.89395 0.41216 0.54178 0.0
C1464 C 0.8777 0.44019 0.51708 0.0
C1465 C 0.92006 0.43151 0.53273 0.0
C1466 C 0.92532 0.45603 0.51878 0.0
C1467 C 0.90925 0.48531 0.49724 0.0
C1468 C 0.88797 0.48847 0.48562 0.0
C1469 C 0.90429 0.46072 0.51118 0.0
C1470 C 0.86169 0.46767 0.49044 0.0
C1471 C 0.85655 0.44391 0.50671 0.0
H1472 H 0.39737 0.87432 0.02289 0.0
H1473 H 0.41096 0.85981 0.91406 0.0
H1474 H 0.45252 0.8611 0.93186 0.0
H1475 H 0.48679 0.87078 0.98012 0.0
H1476 H 0.4579 0.85741 0.0888 0.0
H1477 H 0.41924 0.86124 0.07041 0.0
C1478 C 0.40957 0.87177 1.00289 0.0
C1479 C 0.40426 0.87213 0.96585 0.0
C1480 C 0.43057 0.86789 0.01417 0.0
C1481 C 0.41793 0.86486 0.94139 0.0
C1482 C 0.44093 0.86442 0.95195 0.0
C1483 C 0.4722 0.86902 0.99987 0.0
C1484 C 0.47726 0.8685 0.03697 0.0
C1485 C 0.44823 0.86739 0.98839 0.0
C1486 C 0.4564 0.86237 0.06121 0.0
C1487 C 0.43397 0.86371 0.05046 0.0
H1488 H 0.54787 0.40504 0.52914 0.0
H1489 H 0.57363 0.42603 0.42021 0.0
H1490 H 0.60976 0.47004 0.43949 0.0
H1491 H 0.63174 0.50306 0.48984 0.0
H1492 H 0.62415 0.46899 0.59432 0.0
H1493 H 0.58331 0.42844 0.57572 0.0
C1494 C 0.56109 0.41938 0.50947 0.0
C1495 C 0.55517 0.41494 0.47237 0.0
C1496 C 0.58455 0.4421 0.52117 0.0
C1497 C 0.5748 0.43182 0.44797 0.0
C1498 C 0.59611 0.45628 0.45932 0.0
C1499 C 0.62087 0.48694 0.50873 0.0
C1500 C 0.6275 0.49063 0.54567 0.0
C1501 C 0.60039 0.46214 0.49618 0.0
C1502 C 0.61588 0.46822 0.56806 0.0
C1503 C 0.59332 0.44474 0.55687 0.0
H1504 H 0.17278 0.54871 0.97748 0.0
H1505 H 0.08809 0.49716 0.98872 0.0
H1506 H 0.08384 0.53401 0.01388 0.0
H1507 H 0.10468 0.58146 0.03202 0.0
H1508 H 0.1903 0.62908 0.03502 0.0
H1509 H 0.1941 0.59368 1.00435 0.0
C1510 C 0.15346 0.54571 0.98549 0.0
C1511 C 0.13052 0.52096 0.97956 0.0
C1512 C 0.15152 0.56633 1.00241 0.0
C1513 C 0.10576 0.51656 0.99176 0.0
C1514 C 0.1034 0.53752 1.00627 0.0
C1515 C 0.1241 0.58373 0.02659 0.0
C1516 C 0.1472 0.60741 0.03625 0.0
C1517 C 0.12614 0.56259 0.01148 0.0
C1518 C 0.17232 0.61068 0.02825 0.0
C1519 C 0.17448 0.59051 0.01077 0.0
H1520 H 0.57061 0.15019 0.56926 0.0
H1521 H 0.52996 0.14224 0.46918 0.0
H1522 H 0.56912 0.14852 0.43628 0.0
H1523 H 0.61254 0.14938 0.436 0.0
H1524 H 0.64321 0.1385 0.53585 0.0
H1525 H 0.61198 0.14721 0.56875 0.0
C1526 C 0.56908 0.14704 0.54052 0.0
C1527 C 0.54605 0.14289 0.52237 0.0
C1528 C 0.58988 0.14654 0.52152 0.0
C1529 C 0.5466 0.1437 0.48436 0.0
C1530 C 0.56885 0.14689 0.4653 0.0
C1531 C 0.61049 0.14579 0.46454 0.0
C1532 C 0.62843 0.14025 0.48258 0.0
C1533 C 0.58982 0.14655 0.48351 0.0
C1534 C 0.62865 0.14097 0.52062 0.0
C1535 C 0.61052 0.14557 0.53971 0.0
H1536 H 0.57111 0.40154 0.03596 0.0
H1537 H 0.51842 0.4337 0.03775 0.0
H1538 H 0.55402 0.47617 0.01403 0.0
H1539 H 0.60083 0.50444 0.99414 0.0
H1540 H 0.64967 0.46863 0.97907 0.0
H1541 H 0.61542 0.42744 1.00739 0.0
C1542 C 0.56757 0.41792 0.03099 0.0
C1543 C 0.54288 0.41531 0.0401 0.0
C1544 C 0.58752 0.44154 0.01524 0.0
C1545 C 0.53775 0.43588 0.03197 0.0
C1546 C 0.55803 0.46005 0.01843 0.0
C1547 C 0.60365 0.4874 0.99659 0.0
C1548 C 0.62734 0.48918 0.9842 0.0
C1549 C 0.58312 0.46322 0.01035 0.0
C1550 C 0.63128 0.46736 0.98809 0.0
C1551 C 0.61174 0.44388 1.00416 0.0
H1552 H 0.16798 0.61747 0.48222 0.0
H1553 H 0.08364 0.58869 0.48521 0.0
H1554 H 0.07555 0.54594 0.50954 0.0
H1555 H 0.09304 0.51639 0.52822 0.0
H1556 H 0.17791 0.54967 0.53831 0.0
H1557 H 0.1856 0.59094 0.50989 0.0
C1558 C 0.14789 0.60182 0.48858 0.0
C1559 C 0.12625 0.60536 0.48057 0.0
C1560 C 0.14366 0.57823 0.50475 0.0
C1561 C 0.1004 0.58575 0.49023 0.0
C1562 C 0.09585 0.56148 0.50427 0.0
C1563 C 0.11311 0.53297 0.52497 0.0
C1564 C 0.1349 0.53041 0.53582 0.0
C1565 C 0.11734 0.55735 0.51121 0.0
C1566 C 0.16091 0.55156 0.5305 0.0
C1567 C 0.1653 0.5751 0.51439 0.0
H1568 H 0.62571 0.1467 0.98828 0.0
H1569 H 0.60636 0.15468 0.09725 0.0
H1570 H 0.56489 0.15271 0.07722 0.0
H1571 H 0.53274 0.14472 0.02673 0.0
H1572 H 0.56644 0.16412 0.92071 0.0
H1573 H 0.60479 0.16036 0.94057 0.0
C1574 C 0.6123 0.14769 1.0078 0.0
C1575 C 0.61622 0.14592 0.04494 0.0
C1576 C 0.59117 0.15102 0.99575 0.0
C1577 C 0.60079 0.15104 0.06923 0.0
C1578 C 0.57778 0.15101 0.05755 0.0
C1579 C 0.54833 0.1478 1.00787 0.0
C1580 C 0.54486 0.15003 0.97067 0.0
C1581 C 0.57209 0.14963 0.02063 0.0
C1582 C 0.56681 0.15775 0.94788 0.0
C1583 C 0.58909 0.15654 0.95959 0.0
H1584 H 0.45005 0.58343 0.57395 0.0
H1585 H 0.48613 0.61812 0.47255 0.0
H1586 H 0.44669 0.58419 0.44149 0.0
H1587 H 0.4049 0.54051 0.44235 0.0
H1588 H 0.37916 0.49745 0.54205 0.0
H1589 H 0.41107 0.53735 0.57473 0.0
C1590 C 0.451 0.5819 0.54529 0.0
C1591 C 0.47266 0.60192 0.52632 0.0
C1592 C 0.43028 0.56008 0.52697 0.0
C1593 C 0.47066 0.60225 0.48841 0.0
C1594 C 0.44823 0.58264 0.47032 0.0
C1595 C 0.40793 0.53895 0.47071 0.0
C1596 C 0.39131 0.5151 0.48888 0.0
C1597 C 0.42873 0.5606 0.48908 0.0
C1598 C 0.39268 0.51498 0.5268 0.0
C1599 C 0.41117 0.53768 0.54566 0.0
H1600 H 0.85082 0.39563 0.99886 0.0
H1601 H 0.93522 0.42469 0.99573 0.0
H1602 H 0.94407 0.46728 0.02171 0.0
H1603 H 0.9273 0.49749 0.04004 0.0
H1604 H 0.84299 0.46472 0.05593 0.0
H1605 H 0.8342 0.42247 0.02907 0.0
C1606 C 0.87109 0.41125 1.00438 0.0
C1607 C 0.89248 0.40786 0.99401 0.0
C1608 C 0.87588 0.43496 0.02112 0.0
C1609 C 0.91861 0.42746 1.00261 0.0
C1610 C 0.92361 0.4517 0.01747 0.0
C1611 C 0.90715 0.48075 0.0388 0.0
C1612 C 0.88584 0.48383 0.05054 0.0
C1613 C 0.9024 0.45593 0.02595 0.0
C1614 C 0.85966 0.46247 0.04748 0.0
C1615 C 0.85466 0.43837 0.03224 0.0
H1616 H 0.48075 0.86549 0.52272 0.0
H1617 H 0.45153 0.85539 0.41466 0.0
H1618 H 0.41271 0.85838 0.43508 0.0
H1619 H 0.39042 0.86877 0.48544 0.0
H1620 H 0.4055 0.85134 0.59226 0.0
H1621 H 0.44632 0.85234 0.57134 0.0
C1622 C 0.46608 0.86425 0.50348 0.0
C1623 C 0.47128 0.86562 0.46615 0.0
C1624 C 0.44176 0.86117 0.51601 0.0
C1625 C 0.45025 0.8599 0.44246 0.0
C1626 C 0.42758 0.86034 0.45446 0.0
C1627 C 0.40276 0.86545 0.5043 0.0
C1628 C 0.39785 0.86451 0.54164 0.0
C1629 C 0.42397 0.86254 0.49136 0.0
C1630 C 0.41169 0.85644 0.56458 0.0
C1631 C 0.43448 0.85628 0.5524 0.0
loop_
_geom_bond_atom_site_label_1
_geom_bond_atom_site_label_2
_geom_bond_distance
_geom_bond_site_symmetry_2
_ccdc_geom_bond_type
Mn0 O5 2.095 . S
Mn0 O15 2.162 . S
Mn0 O16 2.297 . S
Mn0 O24 2.385 . S
Mn0 O25 2.209 . S
Mn0 O26 2.094 . S
Mn1 O6 2.121 . S
Mn1 N8 2.257 . S
Mn1 N17 2.282 . S
Mn1 O25 2.215 . S
Mn1 O27 2.117 . S
C2 O24 1.234 . S
C2 O25 1.283 . S
C3 O15 1.281 . S
C3 O16 1.236 . S
C4 O26 1.240 . S
C4 O27 1.264 . S
O5 Mn0 2.095 . S
O5 C14 1.250 . S
O6 Mn1 2.121 . S
O6 C14 1.258 . S
C7 N8 1.326 . S
C7 C11 1.460 . S
C7 H13 0.929 . S
N8 Mn1 2.257 . S
N8 C7 1.326 . S
N8 C12 1.362 . S
C9 C10 1.258 . S
C9 C12 1.431 . S
C9 C29 1.449 . S
C10 C9 1.258 . S
C10 C11 1.477 . S
C10 H30 0.931 . S
C11 C7 1.460 . S
C11 C10 1.477 . S
C11 H31 0.930 . S
C12 N8 1.362 . S
C12 C9 1.431 . S
C12 C22 1.476 . S
H13 C7 0.929 . S
C14 O5 1.250 . S
C14 O6 1.258 . S
O15 Mn0 2.162 . S
O15 C3 1.281 . S
O16 Mn0 2.297 . S
O16 C3 1.236 . S
N17 Mn1 2.282 . S
N17 C18 1.328 . S
N17 C22 1.318 . S
C18 N17 1.328 . S
C18 C19 1.457 . S
C18 H23 0.929 . S
C19 C18 1.457 . S
C19 C20 1.291 . S
C19 H32 0.931 . S
C20 C19 1.291 . S
C20 C21 1.373 . S
C20 H33 0.929 . S
C21 C20 1.373 . S
C21 C22 1.396 . S
C21 C28 1.403 . S
C22 C12 1.476 . S
C22 N17 1.318 . S
C22 C21 1.396 . S
H23 C18 0.929 . S
O24 Mn0 2.385 . S
O24 C2 1.234 . S
O25 Mn0 2.209 . S
O25 Mn1 2.215 . S
O25 C2 1.283 . S
O26 Mn0 2.094 . S
O26 C4 1.240 . S
O27 Mn1 2.117 . S
O27 C4 1.264 . S
C28 C21 1.403 . S
C28 C29 1.399 . S
C28 H34 0.929 . S
C29 C9 1.449 . S
C29 C28 1.399 . S
C29 H35 0.930 . S
H30 C10 0.931 . S
H31 C11 0.930 . S
H32 C19 0.931 . S
H33 C20 0.929 . S
H34 C28 0.929 . S
H35 C29 0.930 . S
Mn36 O41 2.095 . S
Mn36 O51 2.162 . S
Mn36 O52 2.297 . S
Mn36 O60 2.385 . S
Mn36 O61 2.209 . S
Mn36 O62 2.094 . S
Mn37 O42 2.121 . S
Mn37 N44 2.257 . S
Mn37 N53 2.282 . S
Mn37 O61 2.215 . S
Mn37 O63 2.117 . S
C38 O60 1.234 . S
C38 O61 1.283 . S
C39 O51 1.281 . S
C39 O52 1.236 . S
C40 O62 1.240 . S
C40 O63 1.264 . S
O41 Mn36 2.095 . S
O41 C50 1.250 . S
O42 Mn37 2.121 . S
O42 C50 1.258 . S
C43 N44 1.326 . S
C43 C47 1.460 . S
C43 H49 0.929 . S
N44 Mn37 2.257 . S
N44 C43 1.326 . S
N44 C48 1.362 . S
C45 C46 1.258 . S
C45 C48 1.431 . S
C45 C65 1.449 . S
C46 C45 1.258 . S
C46 C47 1.477 . S
C46 H66 0.931 . S
C47 C43 1.460 . S
C47 C46 1.477 . S
C47 H67 0.930 . S
C48 N44 1.362 . S
C48 C45 1.431 . S
C48 C58 1.476 . S
H49 C43 0.929 . S
C50 O41 1.250 . S
C50 O42 1.258 . S
O51 Mn36 2.162 . S
O51 C39 1.281 . S
O52 Mn36 2.297 . S
O52 C39 1.236 . S
N53 Mn37 2.282 . S
N53 C54 1.328 . S
N53 C58 1.318 . S
C54 N53 1.328 . S
C54 C55 1.457 . S
C54 H59 0.929 . S
C55 C54 1.457 . S
C55 C56 1.291 . S
C55 H68 0.931 . S
C56 C55 1.291 . S
C56 C57 1.373 . S
C56 H69 0.929 . S
C57 C56 1.373 . S
C57 C58 1.396 . S
C57 C64 1.403 . S
C58 C48 1.476 . S
C58 N53 1.318 . S
C58 C57 1.396 . S
H59 C54 0.929 . S
O60 Mn36 2.385 . S
O60 C38 1.234 . S
O61 Mn36 2.209 . S
O61 Mn37 2.215 . S
O61 C38 1.283 . S
O62 Mn36 2.094 . S
O62 C40 1.240 . S
O63 Mn37 2.117 . S
O63 C40 1.264 . S
C64 C57 1.403 . S
C64 C65 1.399 . S
C64 H70 0.929 . S
C65 C45 1.449 . S
C65 C64 1.399 . S
C65 H71 0.930 . S
H66 C46 0.931 . S
H67 C47 0.930 . S
H68 C55 0.931 . S
H69 C56 0.929 . S
H70 C64 0.929 . S
H71 C65 0.930 . S
Mn72 O77 2.095 . S
Mn72 O87 2.162 . S
Mn72 O88 2.297 . S
Mn72 O96 2.385 . S
Mn72 O97 2.209 . S
Mn72 O98 2.094 . S
Mn73 O78 2.121 . S
Mn73 N80 2.257 . S
Mn73 N89 2.282 . S
Mn73 O97 2.215 . S
Mn73 O99 2.117 . S
C74 O96 1.234 . S
C74 O97 1.283 . S
C75 O87 1.281 . S
C75 O88 1.236 . S
C76 O98 1.240 . S
C76 O99 1.264 . S
O77 Mn72 2.095 . S
O77 C86 1.250 . S
O78 Mn73 2.121 . S
O78 C86 1.258 . S
C79 N80 1.326 . S
C79 C83 1.460 . S
C79 H85 0.929 . S
N80 Mn73 2.257 . S
N80 C79 1.326 . S
N80 C84 1.362 . S
C81 C82 1.258 . S
C81 C84 1.431 . S
C81 C101 1.449 . S
C82 C81 1.258 . S
C82 C83 1.477 . S
C82 H102 0.931 . S
C83 C79 1.460 . S
C83 C82 1.477 . S
C83 H103 0.930 . S
C84 N80 1.362 . S
C84 C81 1.431 . S
C84 C94 1.476 . S
H85 C79 0.929 . S
C86 O77 1.250 . S
C86 O78 1.258 . S
O87 Mn72 2.162 . S
O87 C75 1.281 . S
O88 Mn72 2.297 . S
O88 C75 1.236 . S
N89 Mn73 2.282 . S
N89 C90 1.328 . S
N89 C94 1.318 . S
C90 N89 1.328 . S
C90 C91 1.457 . S
C90 H95 0.929 . S
C91 C90 1.457 . S
C91 C92 1.291 . S
C91 H104 0.931 . S
C92 C91 1.291 . S
C92 C93 1.373 . S
C92 H105 0.929 . S
C93 C92 1.373 . S
C93 C94 1.396 . S
C93 C100 1.403 . S
C94 C84 1.476 . S
C94 N89 1.318 . S
C94 C93 1.396 . S
H95 C90 0.929 . S
O96 Mn72 2.385 . S
O96 C74 1.234 . S
O97 Mn72 2.209 . S
O97 Mn73 2.215 . S
O97 C74 1.283 . S
O98 Mn72 2.094 . S
O98 C76 1.240 . S
O99 Mn73 2.117 . S
O99 C76 1.264 . S
C100 C93 1.403 . S
C100 C101 1.399 . S
C100 H106 0.929 . S
C101 C81 1.449 . S
C101 C100 1.399 . S
C101 H107 0.930 . S
H102 C82 0.931 . S
H103 C83 0.930 . S
H104 C91 0.931 . S
H105 C92 0.929 . S
H106 C100 0.929 . S
H107 C101 0.930 . S
Mn108 O113 2.095 . S
Mn108 O123 2.162 . S
Mn108 O124 2.297 . S
Mn108 O132 2.385 . S
Mn108 O133 2.209 . S
Mn108 O134 2.094 . S
Mn109 O114 2.121 . S
Mn109 N116 2.257 . S
Mn109 N125 2.282 . S
Mn109 O133 2.215 . S
Mn109 O135 2.117 . S
C110 O132 1.234 . S
C110 O133 1.283 . S
C111 O123 1.281 . S
C111 O124 1.236 . S
C112 O134 1.240 . S
C112 O135 1.264 . S
O113 Mn108 2.095 . S
O113 C122 1.250 . S
O114 Mn109 2.121 . S
O114 C122 1.258 . S
C115 N116 1.326 . S
C115 C119 1.460 . S
C115 H121 0.929 . S
N116 Mn109 2.257 . S
N116 C115 1.326 . S
N116 C120 1.362 . S
C117 C118 1.258 . S
C117 C120 1.431 . S
C117 C137 1.449 . S
C118 C117 1.258 . S
C118 C119 1.477 . S
C118 H138 0.931 . S
C119 C115 1.460 . S
C119 C118 1.477 . S
C119 H139 0.930 . S
C120 N116 1.362 . S
C120 C117 1.431 . S
C120 C130 1.476 . S
H121 C115 0.929 . S
C122 O113 1.250 . S
C122 O114 1.258 . S
O123 Mn108 2.162 . S
O123 C111 1.281 . S
O124 Mn108 2.297 . S
O124 C111 1.236 . S
N125 Mn109 2.282 . S
N125 C126 1.328 . S
N125 C130 1.318 . S
C126 N125 1.328 . S
C126 C127 1.457 . S
C126 H131 0.929 . S
C127 C126 1.457 . S
C127 C128 1.291 . S
C127 H140 0.931 . S
C128 C127 1.291 . S
C128 C129 1.373 . S
C128 H141 0.929 . S
C129 C128 1.373 . S
C129 C130 1.396 . S
C129 C136 1.403 . S
C130 C120 1.476 . S
C130 N125 1.318 . S
C130 C129 1.396 . S
H131 C126 0.929 . S
O132 Mn108 2.385 . S
O132 C110 1.234 . S
O133 Mn108 2.209 . S
O133 Mn109 2.215 . S
O133 C110 1.283 . S
O134 Mn108 2.094 . S
O134 C112 1.240 . S
O135 Mn109 2.117 . S
O135 C112 1.264 . S
C136 C129 1.403 . S
C136 C137 1.399 . S
C136 H142 0.929 . S
C137 C117 1.449 . S
C137 C136 1.399 . S
C137 H143 0.930 . S
H138 C118 0.931 . S
H139 C119 0.930 . S
H140 C127 0.931 . S
H141 C128 0.929 . S
H142 C136 0.929 . S
H143 C137 0.930 . S
Mn144 O149 2.095 . S
Mn144 O159 2.162 . S
Mn144 O160 2.297 . S
Mn144 O168 2.385 . S
Mn144 O169 2.209 . S
Mn144 O170 2.094 . S
Mn145 O150 2.121 . S
Mn145 N152 2.257 . S
Mn145 N161 2.282 . S
Mn145 O169 2.215 . S
Mn145 O171 2.117 . S
C146 O168 1.234 . S
C146 O169 1.283 . S
C147 O159 1.281 . S
C147 O160 1.236 . S
C148 O170 1.240 . S
C148 O171 1.264 . S
O149 Mn144 2.095 . S
O149 C158 1.250 . S
O150 Mn145 2.121 . S
O150 C158 1.258 . S
C151 N152 1.326 . S
C151 C155 1.460 . S
C151 H157 0.929 . S
N152 Mn145 2.257 . S
N152 C151 1.326 . S
N152 C156 1.362 . S
C153 C154 1.258 . S
C153 C156 1.431 . S
C153 C173 1.449 . S
C154 C153 1.258 . S
C154 C155 1.477 . S
C154 H174 0.931 . S
C155 C151 1.460 . S
C155 C154 1.477 . S
C155 H175 0.930 . S
C156 N152 1.362 . S
C156 C153 1.431 . S
C156 C166 1.476 . S
H157 C151 0.929 . S
C158 O149 1.250 . S
C158 O150 1.258 . S
O159 Mn144 2.162 . S
O159 C147 1.281 . S
O160 Mn144 2.297 . S
O160 C147 1.236 . S
N161 Mn145 2.282 . S
N161 C162 1.328 . S
N161 C166 1.318 . S
C162 N161 1.328 . S
C162 C163 1.457 . S
C162 H167 0.929 . S
C163 C162 1.457 . S
C163 C164 1.291 . S
C163 H176 0.931 . S
C164 C163 1.291 . S
C164 C165 1.373 . S
C164 H177 0.929 . S
C165 C164 1.373 . S
C165 C166 1.396 . S
C165 C172 1.403 . S
C166 C156 1.476 . S
C166 N161 1.318 . S
C166 C165 1.396 . S
H167 C162 0.929 . S
O168 Mn144 2.385 . S
O168 C146 1.234 . S
O169 Mn144 2.209 . S
O169 Mn145 2.215 . S
O169 C146 1.283 . S
O170 Mn144 2.094 . S
O170 C148 1.240 . S
O171 Mn145 2.117 . S
O171 C148 1.264 . S
C172 C165 1.403 . S
C172 C173 1.399 . S
C172 H178 0.929 . S
C173 C153 1.449 . S
C173 C172 1.399 . S
C173 H179 0.930 . S
H174 C154 0.931 . S
H175 C155 0.930 . S
H176 C163 0.931 . S
H177 C164 0.929 . S
H178 C172 0.929 . S
H179 C173 0.930 . S
Mn180 O185 2.095 . S
Mn180 O195 2.162 . S
Mn180 O196 2.297 . S
Mn180 O204 2.385 . S
Mn180 O205 2.209 . S
Mn180 O206 2.094 . S
Mn181 O186 2.121 . S
Mn181 N188 2.257 . S
Mn181 N197 2.282 . S
Mn181 O205 2.215 . S
Mn181 O207 2.117 . S
C182 O204 1.234 . S
C182 O205 1.283 . S
C183 O195 1.281 . S
C183 O196 1.236 . S
C184 O206 1.240 . S
C184 O207 1.264 . S
O185 Mn180 2.095 . S
O185 C194 1.250 . S
O186 Mn181 2.121 . S
O186 C194 1.258 . S
C187 N188 1.326 . S
C187 C191 1.460 . S
C187 H193 0.929 . S
N188 Mn181 2.257 . S
N188 C187 1.326 . S
N188 C192 1.362 . S
C189 C190 1.258 . S
C189 C192 1.431 . S
C189 C209 1.449 . S
C190 C189 1.258 . S
C190 C191 1.477 . S
C190 H210 0.931 . S
C191 C187 1.460 . S
C191 C190 1.477 . S
C191 H211 0.930 . S
C192 N188 1.362 . S
C192 C189 1.431 . S
C192 C202 1.476 . S
H193 C187 0.929 . S
C194 O185 1.250 . S
C194 O186 1.258 . S
O195 Mn180 2.162 . S
O195 C183 1.281 . S
O196 Mn180 2.297 . S
O196 C183 1.236 . S
N197 Mn181 2.282 . S
N197 C198 1.328 . S
N197 C202 1.318 . S
C198 N197 1.328 . S
C198 C199 1.457 . S
C198 H203 0.929 . S
C199 C198 1.457 . S
C199 C200 1.291 . S
C199 H212 0.931 . S
C200 C199 1.291 . S
C200 C201 1.373 . S
C200 H213 0.929 . S
C201 C200 1.373 . S
C201 C202 1.396 . S
C201 C208 1.403 . S
C202 C192 1.476 . S
C202 N197 1.318 . S
C202 C201 1.396 . S
H203 C198 0.929 . S
O204 Mn180 2.385 . S
O204 C182 1.234 . S
O205 Mn180 2.209 . S
O205 Mn181 2.215 . S
O205 C182 1.283 . S
O206 Mn180 2.094 . S
O206 C184 1.240 . S
O207 Mn181 2.117 . S
O207 C184 1.264 . S
C208 C201 1.403 . S
C208 C209 1.399 . S
C208 H214 0.929 . S
C209 C189 1.449 . S
C209 C208 1.399 . S
C209 H215 0.930 . S
H210 C190 0.931 . S
H211 C191 0.930 . S
H212 C199 0.931 . S
H213 C200 0.929 . S
H214 C208 0.929 . S
H215 C209 0.930 . S
Mn216 O221 2.095 . S
Mn216 O231 2.162 . S
Mn216 O232 2.297 . S
Mn216 O240 2.385 . S
Mn216 O241 2.209 . S
Mn216 O242 2.094 . S
Mn217 O222 2.121 . S
Mn217 N224 2.257 . S
Mn217 N233 2.282 . S
Mn217 O241 2.215 . S
Mn217 O243 2.117 . S
C218 O240 1.234 . S
C218 O241 1.283 . S
C219 O231 1.281 . S
C219 O232 1.236 . S
C220 O242 1.240 . S
C220 O243 1.264 . S
O221 Mn216 2.095 . S
O221 C230 1.250 . S
O222 Mn217 2.121 . S
O222 C230 1.258 . S
C223 N224 1.326 . S
C223 C227 1.460 . S
C223 H229 0.929 . S
N224 Mn217 2.257 . S
N224 C223 1.326 . S
N224 C228 1.362 . S
C225 C226 1.258 . S
C225 C228 1.431 . S
C225 C245 1.449 . S
C226 C225 1.258 . S
C226 C227 1.477 . S
C226 H246 0.931 . S
C227 C223 1.460 . S
C227 C226 1.477 . S
C227 H247 0.930 . S
C228 N224 1.362 . S
C228 C225 1.431 . S
C228 C238 1.476 . S
H229 C223 0.929 . S
C230 O221 1.250 . S
C230 O222 1.258 . S
O231 Mn216 2.162 . S
O231 C219 1.281 . S
O232 Mn216 2.297 . S
O232 C219 1.236 . S
N233 Mn217 2.282 . S
N233 C234 1.328 . S
N233 C238 1.318 . S
C234 N233 1.328 . S
C234 C235 1.457 . S
C234 H239 0.929 . S
C235 C234 1.457 . S
C235 C236 1.291 . S
C235 H248 0.931 . S
C236 C235 1.291 . S
C236 C237 1.373 . S
C236 H249 0.929 . S
C237 C236 1.373 . S
C237 C238 1.396 . S
C237 C244 1.403 . S
C238 C228 1.476 . S
C238 N233 1.318 . S
C238 C237 1.396 . S
H239 C234 0.929 . S
O240 Mn216 2.385 . S
O240 C218 1.234 . S
O241 Mn216 2.209 . S
O241 Mn217 2.215 . S
O241 C218 1.283 . S
O242 Mn216 2.094 . S
O242 C220 1.240 . S
O243 Mn217 2.117 . S
O243 C220 1.264 . S
C244 C237 1.403 . S
C244 C245 1.399 . S
C244 H250 0.929 . S
C245 C225 1.449 . S
C245 C244 1.399 . S
C245 H251 0.930 . S
H246 C226 0.931 . S
H247 C227 0.930 . S
H248 C235 0.931 . S
H249 C236 0.929 . S
H250 C244 0.929 . S
H251 C245 0.930 . S
Mn252 O257 2.095 . S
Mn252 O267 2.162 . S
Mn252 O268 2.297 . S
Mn252 O276 2.385 . S
Mn252 O277 2.209 . S
Mn252 O278 2.094 . S
Mn253 O258 2.121 . S
Mn253 N260 2.257 . S
Mn253 N269 2.282 . S
Mn253 O277 2.215 . S
Mn253 O279 2.117 . S
C254 O276 1.234 . S
C254 O277 1.283 . S
C255 O267 1.281 . S
C255 O268 1.236 . S
C256 O278 1.240 . S
C256 O279 1.264 . S
O257 Mn252 2.095 . S
O257 C266 1.250 . S
O258 Mn253 2.121 . S
O258 C266 1.258 . S
C259 N260 1.326 . S
C259 C263 1.460 . S
C259 H265 0.929 . S
N260 Mn253 2.257 . S
N260 C259 1.326 . S
N260 C264 1.362 . S
C261 C262 1.258 . S
C261 C264 1.431 . S
C261 C281 1.449 . S
C262 C261 1.258 . S
C262 C263 1.477 . S
C262 H282 0.931 . S
C263 C259 1.460 . S
C263 C262 1.477 . S
C263 H283 0.930 . S
C264 N260 1.362 . S
C264 C261 1.431 . S
C264 C274 1.476 . S
H265 C259 0.929 . S
C266 O257 1.250 . S
C266 O258 1.258 . S
O267 Mn252 2.162 . S
O267 C255 1.281 . S
O268 Mn252 2.297 . S
O268 C255 1.236 . S
N269 Mn253 2.282 . S
N269 C270 1.328 . S
N269 C274 1.318 . S
C270 N269 1.328 . S
C270 C271 1.457 . S
C270 H275 0.929 . S
C271 C270 1.457 . S
C271 C272 1.291 . S
C271 H284 0.931 . S
C272 C271 1.291 . S
C272 C273 1.373 . S
C272 H285 0.929 . S
C273 C272 1.373 . S
C273 C274 1.396 . S
C273 C280 1.403 . S
C274 C264 1.476 . S
C274 N269 1.318 . S
C274 C273 1.396 . S
H275 C270 0.929 . S
O276 Mn252 2.385 . S
O276 C254 1.234 . S
O277 Mn252 2.209 . S
O277 Mn253 2.215 . S
O277 C254 1.283 . S
O278 Mn252 2.094 . S
O278 C256 1.240 . S
O279 Mn253 2.117 . S
O279 C256 1.264 . S
C280 C273 1.403 . S
C280 C281 1.399 . S
C280 H286 0.929 . S
C281 C261 1.449 . S
C281 C280 1.399 . S
C281 H287 0.930 . S
H282 C262 0.931 . S
H283 C263 0.930 . S
H284 C271 0.931 . S
H285 C272 0.929 . S
H286 C280 0.929 . S
H287 C281 0.930 . S
Mn288 O293 2.095 . S
Mn288 O303 2.162 . S
Mn288 O304 2.297 . S
Mn288 O312 2.385 . S
Mn288 O313 2.209 . S
Mn288 O314 2.094 . S
Mn289 O294 2.121 . S
Mn289 N296 2.257 . S
Mn289 N305 2.282 . S
Mn289 O313 2.215 . S
Mn289 O315 2.117 . S
C290 O312 1.234 . S
C290 O313 1.283 . S
C291 O303 1.281 . S
C291 O304 1.236 . S
C292 O314 1.240 . S
C292 O315 1.264 . S
O293 Mn288 2.095 . S
O293 C302 1.250 . S
O294 Mn289 2.121 . S
O294 C302 1.258 . S
C295 N296 1.326 . S
C295 C299 1.460 . S
C295 H301 0.929 . S
N296 Mn289 2.257 . S
N296 C295 1.326 . S
N296 C300 1.362 . S
C297 C298 1.258 . S
C297 C300 1.431 . S
C297 C317 1.449 . S
C298 C297 1.258 . S
C298 C299 1.477 . S
C298 H318 0.931 . S
C299 C295 1.460 . S
C299 C298 1.477 . S
C299 H319 0.930 . S
C300 N296 1.362 . S
C300 C297 1.431 . S
C300 C310 1.476 . S
H301 C295 0.929 . S
C302 O293 1.250 . S
C302 O294 1.258 . S
O303 Mn288 2.162 . S
O303 C291 1.281 . S
O304 Mn288 2.297 . S
O304 C291 1.236 . S
N305 Mn289 2.282 . S
N305 C306 1.328 . S
N305 C310 1.318 . S
C306 N305 1.328 . S
C306 C307 1.457 . S
C306 H311 0.929 . S
C307 C306 1.457 . S
C307 C308 1.291 . S
C307 H320 0.931 . S
C308 C307 1.291 . S
C308 C309 1.373 . S
C308 H321 0.929 . S
C309 C308 1.373 . S
C309 C310 1.396 . S
C309 C316 1.403 . S
C310 C300 1.476 . S
C310 N305 1.318 . S
C310 C309 1.396 . S
H311 C306 0.929 . S
O312 Mn288 2.385 . S
O312 C290 1.234 . S
O313 Mn288 2.209 . S
O313 Mn289 2.215 . S
O313 C290 1.283 . S
O314 Mn288 2.094 . S
O314 C292 1.240 . S
O315 Mn289 2.117 . S
O315 C292 1.264 . S
C316 C309 1.403 . S
C316 C317 1.399 . S
C316 H322 0.929 . S
C317 C297 1.449 . S
C317 C316 1.399 . S
C317 H323 0.930 . S
H318 C298 0.931 . S
H319 C299 0.930 . S
H320 C307 0.931 . S
H321 C308 0.929 . S
H322 C316 0.929 . S
H323 C317 0.930 . S
Mn324 O329 2.095 . S
Mn324 O339 2.162 . S
Mn324 O340 2.297 . S
Mn324 O348 2.385 . S
Mn324 O349 2.209 . S
Mn324 O350 2.094 . S
Mn325 O330 2.121 . S
Mn325 N332 2.257 . S
Mn325 N341 2.282 . S
Mn325 O349 2.215 . S
Mn325 O351 2.117 . S
C326 O348 1.234 . S
C326 O349 1.283 . S
C327 O339 1.281 . S
C327 O340 1.236 . S
C328 O350 1.240 . S
C328 O351 1.264 . S
O329 Mn324 2.095 . S
O329 C338 1.250 . S
O330 Mn325 2.121 . S
O330 C338 1.258 . S
C331 N332 1.326 . S
C331 C335 1.460 . S
C331 H337 0.929 . S
N332 Mn325 2.257 . S
N332 C331 1.326 . S
N332 C336 1.362 . S
C333 C334 1.258 . S
C333 C336 1.431 . S
C333 C353 1.449 . S
C334 C333 1.258 . S
C334 C335 1.477 . S
C334 H354 0.931 . S
C335 C331 1.460 . S
C335 C334 1.477 . S
C335 H355 0.930 . S
C336 N332 1.362 . S
C336 C333 1.431 . S
C336 C346 1.476 . S
H337 C331 0.929 . S
C338 O329 1.250 . S
C338 O330 1.258 . S
O339 Mn324 2.162 . S
O339 C327 1.281 . S
O340 Mn324 2.297 . S
O340 C327 1.236 . S
N341 Mn325 2.282 . S
N341 C342 1.328 . S
N341 C346 1.318 . S
C342 N341 1.328 . S
C342 C343 1.457 . S
C342 H347 0.929 . S
C343 C342 1.457 . S
C343 C344 1.291 . S
C343 H356 0.931 . S
C344 C343 1.291 . S
C344 C345 1.373 . S
C344 H357 0.929 . S
C345 C344 1.373 . S
C345 C346 1.396 . S
C345 C352 1.403 . S
C346 C336 1.476 . S
C346 N341 1.318 . S
C346 C345 1.396 . S
H347 C342 0.929 . S
O348 Mn324 2.385 . S
O348 C326 1.234 . S
O349 Mn324 2.209 . S
O349 Mn325 2.215 . S
O349 C326 1.283 . S
O350 Mn324 2.094 . S
O350 C328 1.240 . S
O351 Mn325 2.117 . S
O351 C328 1.264 . S
C352 C345 1.403 . S
C352 C353 1.399 . S
C352 H358 0.929 . S
C353 C333 1.449 . S
C353 C352 1.399 . S
C353 H359 0.930 . S
H354 C334 0.931 . S
H355 C335 0.930 . S
H356 C343 0.931 . S
H357 C344 0.929 . S
H358 C352 0.929 . S
H359 C353 0.930 . S
Mn360 O365 2.095 . S
Mn360 O375 2.162 . S
Mn360 O376 2.297 . S
Mn360 O384 2.385 . S
Mn360 O385 2.209 . S
Mn360 O386 2.094 . S
Mn361 O366 2.121 . S
Mn361 N368 2.257 . S
Mn361 N377 2.282 . S
Mn361 O385 2.215 . S
Mn361 O387 2.117 . S
C362 O384 1.234 . S
C362 O385 1.283 . S
C363 O375 1.281 . S
C363 O376 1.236 . S
C364 O386 1.240 . S
C364 O387 1.264 . S
O365 Mn360 2.095 . S
O365 C374 1.250 . S
O366 Mn361 2.121 . S
O366 C374 1.258 . S
C367 N368 1.326 . S
C367 C371 1.460 . S
C367 H373 0.929 . S
N368 Mn361 2.257 . S
N368 C367 1.326 . S
N368 C372 1.362 . S
C369 C370 1.258 . S
C369 C372 1.431 . S
C369 C389 1.449 . S
C370 C369 1.258 . S
C370 C371 1.477 . S
C370 H390 0.931 . S
C371 C367 1.460 . S
C371 C370 1.477 . S
C371 H391 0.930 . S
C372 N368 1.362 . S
C372 C369 1.431 . S
C372 C382 1.476 . S
H373 C367 0.929 . S
C374 O365 1.250 . S
C374 O366 1.258 . S
O375 Mn360 2.162 . S
O375 C363 1.281 . S
O376 Mn360 2.297 . S
O376 C363 1.236 . S
N377 Mn361 2.282 . S
N377 C378 1.328 . S
N377 C382 1.318 . S
C378 N377 1.328 . S
C378 C379 1.457 . S
C378 H383 0.929 . S
C379 C378 1.457 . S
C379 C380 1.291 . S
C379 H392 0.931 . S
C380 C379 1.291 . S
C380 C381 1.373 . S
C380 H393 0.929 . S
C381 C380 1.373 . S
C381 C382 1.396 . S
C381 C388 1.403 . S
C382 C372 1.476 . S
C382 N377 1.318 . S
C382 C381 1.396 . S
H383 C378 0.929 . S
O384 Mn360 2.385 . S
O384 C362 1.234 . S
O385 Mn360 2.209 . S
O385 Mn361 2.215 . S
O385 C362 1.283 . S
O386 Mn360 2.094 . S
O386 C364 1.240 . S
O387 Mn361 2.117 . S
O387 C364 1.264 . S
C388 C381 1.403 . S
C388 C389 1.399 . S
C388 H394 0.929 . S
C389 C369 1.449 . S
C389 C388 1.399 . S
C389 H395 0.930 . S
H390 C370 0.931 . S
H391 C371 0.930 . S
H392 C379 0.931 . S
H393 C380 0.929 . S
H394 C388 0.929 . S
H395 C389 0.930 . S
Mn396 O401 2.095 . S
Mn396 O411 2.162 . S
Mn396 O412 2.297 . S
Mn396 O420 2.385 . S
Mn396 O421 2.209 . S
Mn396 O422 2.094 . S
Mn397 O402 2.121 . S
Mn397 N404 2.257 . S
Mn397 N413 2.282 . S
Mn397 O421 2.215 . S
Mn397 O423 2.117 . S
C398 O420 1.234 . S
C398 O421 1.283 . S
C399 O411 1.281 . S
C399 O412 1.236 . S
C400 O422 1.240 . S
C400 O423 1.264 . S
O401 Mn396 2.095 . S
O401 C410 1.250 . S
O402 Mn397 2.121 . S
O402 C410 1.258 . S
C403 N404 1.326 . S
C403 C407 1.460 . S
C403 H409 0.929 . S
N404 Mn397 2.257 . S
N404 C403 1.326 . S
N404 C408 1.362 . S
C405 C406 1.258 . S
C405 C408 1.431 . S
C405 C425 1.449 . S
C406 C405 1.258 . S
C406 C407 1.477 . S
C406 H426 0.931 . S
C407 C403 1.460 . S
C407 C406 1.477 . S
C407 H427 0.930 . S
C408 N404 1.362 . S
C408 C405 1.431 . S
C408 C418 1.476 . S
H409 C403 0.929 . S
C410 O401 1.250 . S
C410 O402 1.258 . S
O411 Mn396 2.162 . S
O411 C399 1.281 . S
O412 Mn396 2.297 . S
O412 C399 1.236 . S
N413 Mn397 2.282 . S
N413 C414 1.328 . S
N413 C418 1.318 . S
C414 N413 1.328 . S
C414 C415 1.457 . S
C414 H419 0.929 . S
C415 C414 1.457 . S
C415 C416 1.291 . S
C415 H428 0.931 . S
C416 C415 1.291 . S
C416 C417 1.373 . S
C416 H429 0.929 . S
C417 C416 1.373 . S
C417 C418 1.396 . S
C417 C424 1.403 . S
C418 C408 1.476 . S
C418 N413 1.318 . S
C418 C417 1.396 . S
H419 C414 0.929 . S
O420 Mn396 2.385 . S
O420 C398 1.234 . S
O421 Mn396 2.209 . S
O421 Mn397 2.215 . S
O421 C398 1.283 . S
O422 Mn396 2.094 . S
O422 C400 1.240 . S
O423 Mn397 2.117 . S
O423 C400 1.264 . S
C424 C417 1.403 . S
C424 C425 1.399 . S
C424 H430 0.929 . S
C425 C405 1.449 . S
C425 C424 1.399 . S
C425 H431 0.930 . S
H426 C406 0.931 . S
H427 C407 0.930 . S
H428 C415 0.931 . S
H429 C416 0.929 . S
H430 C424 0.929 . S
H431 C425 0.930 . S
Mn432 O437 2.095 . S
Mn432 O447 2.162 . S
Mn432 O448 2.297 . S
Mn432 O456 2.385 . S
Mn432 O457 2.209 . S
Mn432 O458 2.094 . S
Mn433 O438 2.121 . S
Mn433 N440 2.257 . S
Mn433 N449 2.282 . S
Mn433 O457 2.215 . S
Mn433 O459 2.117 . S
C434 O456 1.234 . S
C434 O457 1.283 . S
C435 O447 1.281 . S
C435 O448 1.236 . S
C436 O458 1.240 . S
C436 O459 1.264 . S
O437 Mn432 2.095 . S
O437 C446 1.250 . S
O438 Mn433 2.121 . S
O438 C446 1.258 . S
C439 N440 1.326 . S
C439 C443 1.460 . S
C439 H445 0.929 . S
N440 Mn433 2.257 . S
N440 C439 1.326 . S
N440 C444 1.362 . S
C441 C442 1.258 . S
C441 C444 1.431 . S
C441 C461 1.449 . S
C442 C441 1.258 . S
C442 C443 1.477 . S
C442 H462 0.931 . S
C443 C439 1.460 . S
C443 C442 1.477 . S
C443 H463 0.930 . S
C444 N440 1.362 . S
C444 C441 1.431 . S
C444 C454 1.476 . S
H445 C439 0.929 . S
C446 O437 1.250 . S
C446 O438 1.258 . S
O447 Mn432 2.162 . S
O447 C435 1.281 . S
O448 Mn432 2.297 . S
O448 C435 1.236 . S
N449 Mn433 2.282 . S
N449 C450 1.328 . S
N449 C454 1.318 . S
C450 N449 1.328 . S
C450 C451 1.457 . S
C450 H455 0.929 . S
C451 C450 1.457 . S
C451 C452 1.291 . S
C451 H464 0.931 . S
C452 C451 1.291 . S
C452 C453 1.373 . S
C452 H465 0.929 . S
C453 C452 1.373 . S
C453 C454 1.396 . S
C453 C460 1.403 . S
C454 C444 1.476 . S
C454 N449 1.318 . S
C454 C453 1.396 . S
H455 C450 0.929 . S
O456 Mn432 2.385 . S
O456 C434 1.234 . S
O457 Mn432 2.209 . S
O457 Mn433 2.215 . S
O457 C434 1.283 . S
O458 Mn432 2.094 . S
O458 C436 1.240 . S
O459 Mn433 2.117 . S
O459 C436 1.264 . S
C460 C453 1.403 . S
C460 C461 1.399 . S
C460 H466 0.929 . S
C461 C441 1.449 . S
C461 C460 1.399 . S
C461 H467 0.930 . S
H462 C442 0.931 . S
H463 C443 0.930 . S
H464 C451 0.931 . S
H465 C452 0.929 . S
H466 C460 0.929 . S
H467 C461 0.930 . S
Mn468 O473 2.095 . S
Mn468 O483 2.162 . S
Mn468 O484 2.297 . S
Mn468 O492 2.385 . S
Mn468 O493 2.209 . S
Mn468 O494 2.094 . S
Mn469 O474 2.121 . S
Mn469 N476 2.257 . S
Mn469 N485 2.282 . S
Mn469 O493 2.215 . S
Mn469 O495 2.117 . S
C470 O492 1.234 . S
C470 O493 1.283 . S
C471 O483 1.281 . S
C471 O484 1.236 . S
C472 O494 1.240 . S
C472 O495 1.264 . S
O473 Mn468 2.095 . S
O473 C482 1.250 . S
O474 Mn469 2.121 . S
O474 C482 1.258 . S
C475 N476 1.326 . S
C475 C479 1.460 . S
C475 H481 0.929 . S
N476 Mn469 2.257 . S
N476 C475 1.326 . S
N476 C480 1.362 . S
C477 C478 1.258 . S
C477 C480 1.431 . S
C477 C497 1.449 . S
C478 C477 1.258 . S
C478 C479 1.477 . S
C478 H498 0.931 . S
C479 C475 1.460 . S
C479 C478 1.477 . S
C479 H499 0.930 . S
C480 N476 1.362 . S
C480 C477 1.431 . S
C480 C490 1.476 . S
H481 C475 0.929 . S
C482 O473 1.250 . S
C482 O474 1.258 . S
O483 Mn468 2.162 . S
O483 C471 1.281 . S
O484 Mn468 2.297 . S
O484 C471 1.236 . S
N485 Mn469 2.282 . S
N485 C486 1.328 . S
N485 C490 1.318 . S
C486 N485 1.328 . S
C486 C487 1.457 . S
C486 H491 0.929 . S
C487 C486 1.457 . S
C487 C488 1.291 . S
C487 H500 0.931 . S
C488 C487 1.291 . S
C488 C489 1.373 . S
C488 H501 0.929 . S
C489 C488 1.373 . S
C489 C490 1.396 . S
C489 C496 1.403 . S
C490 C480 1.476 . S
C490 N485 1.318 . S
C490 C489 1.396 . S
H491 C486 0.929 . S
O492 Mn468 2.385 . S
O492 C470 1.234 . S
O493 Mn468 2.209 . S
O493 Mn469 2.215 . S
O493 C470 1.283 . S
O494 Mn468 2.094 . S
O494 C472 1.240 . S
O495 Mn469 2.117 . S
O495 C472 1.264 . S
C496 C489 1.403 . S
C496 C497 1.399 . S
C496 H502 0.929 . S
C497 C477 1.449 . S
C497 C496 1.399 . S
C497 H503 0.930 . S
H498 C478 0.931 . S
H499 C479 0.930 . S
H500 C487 0.931 . S
H501 C488 0.929 . S
H502 C496 0.929 . S
H503 C497 0.930 . S
Mn504 O509 2.095 . S
Mn504 O519 2.162 . S
Mn504 O520 2.297 . S
Mn504 O528 2.385 . S
Mn504 O529 2.209 . S
Mn504 O530 2.094 . S
Mn505 O510 2.121 . S
Mn505 N512 2.257 . S
Mn505 N521 2.282 . S
Mn505 O529 2.215 . S
Mn505 O531 2.117 . S
C506 O528 1.234 . S
C506 O529 1.283 . S
C507 O519 1.281 . S
C507 O520 1.236 . S
C508 O530 1.240 . S
C508 O531 1.264 . S
O509 Mn504 2.095 . S
O509 C518 1.250 . S
O510 Mn505 2.121 . S
O510 C518 1.258 . S
C511 N512 1.326 . S
C511 C515 1.460 . S
C511 H517 0.929 . S
N512 Mn505 2.257 . S
N512 C511 1.326 . S
N512 C516 1.362 . S
C513 C514 1.258 . S
C513 C516 1.431 . S
C513 C533 1.449 . S
C514 C513 1.258 . S
C514 C515 1.477 . S
C514 H534 0.931 . S
C515 C511 1.460 . S
C515 C514 1.477 . S
C515 H535 0.930 . S
C516 N512 1.362 . S
C516 C513 1.431 . S
C516 C526 1.476 . S
H517 C511 0.929 . S
C518 O509 1.250 . S
C518 O510 1.258 . S
O519 Mn504 2.162 . S
O519 C507 1.281 . S
O520 Mn504 2.297 . S
O520 C507 1.236 . S
N521 Mn505 2.282 . S
N521 C522 1.328 . S
N521 C526 1.318 . S
C522 N521 1.328 . S
C522 C523 1.457 . S
C522 H527 0.929 . S
C523 C522 1.457 . S
C523 C524 1.291 . S
C523 H536 0.931 . S
C524 C523 1.291 . S
C524 C525 1.373 . S
C524 H537 0.929 . S
C525 C524 1.373 . S
C525 C526 1.396 . S
C525 C532 1.403 . S
C526 C516 1.476 . S
C526 N521 1.318 . S
C526 C525 1.396 . S
H527 C522 0.929 . S
O528 Mn504 2.385 . S
O528 C506 1.234 . S
O529 Mn504 2.209 . S
O529 Mn505 2.215 . S
O529 C506 1.283 . S
O530 Mn504 2.094 . S
O530 C508 1.240 . S
O531 Mn505 2.117 . S
O531 C508 1.264 . S
C532 C525 1.403 . S
C532 C533 1.399 . S
C532 H538 0.929 . S
C533 C513 1.449 . S
C533 C532 1.399 . S
C533 H539 0.930 . S
H534 C514 0.931 . S
H535 C515 0.930 . S
H536 C523 0.931 . S
H537 C524 0.929 . S
H538 C532 0.929 . S
H539 C533 0.930 . S
Mn540 O545 2.095 . S
Mn540 O555 2.162 . S
Mn540 O556 2.297 . S
Mn540 O564 2.385 . S
Mn540 O565 2.209 . S
Mn540 O566 2.094 . S
Mn541 O546 2.121 . S
Mn541 N548 2.257 . S
Mn541 N557 2.282 . S
Mn541 O565 2.215 . S
Mn541 O567 2.117 . S
C542 O564 1.234 . S
C542 O565 1.283 . S
C543 O555 1.281 . S
C543 O556 1.236 . S
C544 O566 1.240 . S
C544 O567 1.264 . S
O545 Mn540 2.095 . S
O545 C554 1.250 . S
O546 Mn541 2.121 . S
O546 C554 1.258 . S
C547 N548 1.326 . S
C547 C551 1.460 . S
C547 H553 0.929 . S
N548 Mn541 2.257 . S
N548 C547 1.326 . S
N548 C552 1.362 . S
C549 C550 1.258 . S
C549 C552 1.431 . S
C549 C569 1.449 . S
C550 C549 1.258 . S
C550 C551 1.477 . S
C550 H570 0.931 . S
C551 C547 1.460 . S
C551 C550 1.477 . S
C551 H571 0.930 . S
C552 N548 1.362 . S
C552 C549 1.431 . S
C552 C562 1.476 . S
H553 C547 0.929 . S
C554 O545 1.250 . S
C554 O546 1.258 . S
O555 Mn540 2.162 . S
O555 C543 1.281 . S
O556 Mn540 2.297 . S
O556 C543 1.236 . S
N557 Mn541 2.282 . S
N557 C558 1.328 . S
N557 C562 1.318 . S
C558 N557 1.328 . S
C558 C559 1.457 . S
C558 H563 0.929 . S
C559 C558 1.457 . S
C559 C560 1.291 . S
C559 H572 0.931 . S
C560 C559 1.291 . S
C560 C561 1.373 . S
C560 H573 0.929 . S
C561 C560 1.373 . S
C561 C562 1.396 . S
C561 C568 1.403 . S
C562 C552 1.476 . S
C562 N557 1.318 . S
C562 C561 1.396 . S
H563 C558 0.929 . S
O564 Mn540 2.385 . S
O564 C542 1.234 . S
O565 Mn540 2.209 . S
O565 Mn541 2.215 . S
O565 C542 1.283 . S
O566 Mn540 2.094 . S
O566 C544 1.240 . S
O567 Mn541 2.117 . S
O567 C544 1.264 . S
C568 C561 1.403 . S
C568 C569 1.399 . S
C568 H574 0.929 . S
C569 C549 1.449 . S
C569 C568 1.399 . S
C569 H575 0.930 . S
H570 C550 0.931 . S
H571 C551 0.930 . S
H572 C559 0.931 . S
H573 C560 0.929 . S
H574 C568 0.929 . S
H575 C569 0.930 . S
Mn576 O581 2.095 . S
Mn576 O591 2.162 . S
Mn576 O592 2.297 . S
Mn576 O600 2.385 . S
Mn576 O601 2.209 . S
Mn576 O602 2.094 . S
Mn577 O582 2.121 . S
Mn577 N584 2.257 . S
Mn577 N593 2.282 . S
Mn577 O601 2.215 . S
Mn577 O603 2.117 . S
C578 O600 1.234 . S
C578 O601 1.283 . S
C579 O591 1.281 . S
C579 O592 1.236 . S
C580 O602 1.240 . S
C580 O603 1.264 . S
O581 Mn576 2.095 . S
O581 C590 1.250 . S
O582 Mn577 2.121 . S
O582 C590 1.258 . S
C583 N584 1.326 . S
C583 C587 1.460 . S
C583 H589 0.929 . S
N584 Mn577 2.257 . S
N584 C583 1.326 . S
N584 C588 1.362 . S
C585 C586 1.258 . S
C585 C588 1.431 . S
C585 C605 1.449 . S
C586 C585 1.258 . S
C586 C587 1.477 . S
C586 H606 0.931 . S
C587 C583 1.460 . S
C587 C586 1.477 . S
C587 H607 0.930 . S
C588 N584 1.362 . S
C588 C585 1.431 . S
C588 C598 1.476 . S
H589 C583 0.929 . S
C590 O581 1.250 . S
C590 O582 1.258 . S
O591 Mn576 2.162 . S
O591 C579 1.281 . S
O592 Mn576 2.297 . S
O592 C579 1.236 . S
N593 Mn577 2.282 . S
N593 C594 1.328 . S
N593 C598 1.318 . S
C594 N593 1.328 . S
C594 C595 1.457 . S
C594 H599 0.929 . S
C595 C594 1.457 . S
C595 C596 1.291 . S
C595 H608 0.931 . S
C596 C595 1.291 . S
C596 C597 1.373 . S
C596 H609 0.929 . S
C597 C596 1.373 . S
C597 C598 1.396 . S
C597 C604 1.403 . S
C598 C588 1.476 . S
C598 N593 1.318 . S
C598 C597 1.396 . S
H599 C594 0.929 . S
O600 Mn576 2.385 . S
O600 C578 1.234 . S
O601 Mn576 2.209 . S
O601 Mn577 2.215 . S
O601 C578 1.283 . S
O602 Mn576 2.094 . S
O602 C580 1.240 . S
O603 Mn577 2.117 . S
O603 C580 1.264 . S
C604 C597 1.403 . S
C604 C605 1.399 . S
C604 H610 0.929 . S
C605 C585 1.449 . S
C605 C604 1.399 . S
C605 H611 0.930 . S
H606 C586 0.931 . S
H607 C587 0.930 . S
H608 C595 0.931 . S
H609 C596 0.929 . S
H610 C604 0.929 . S
H611 C605 0.930 . S
Mn612 O617 2.095 . S
Mn612 O627 2.162 . S
Mn612 O628 2.297 . S
Mn612 O636 2.385 . S
Mn612 O637 2.209 . S
Mn612 O638 2.094 . S
Mn613 O618 2.121 . S
Mn613 N620 2.257 . S
Mn613 N629 2.282 . S
Mn613 O637 2.215 . S
Mn613 O639 2.117 . S
C614 O636 1.234 . S
C614 O637 1.283 . S
C615 O627 1.281 . S
C615 O628 1.236 . S
C616 O638 1.240 . S
C616 O639 1.264 . S
O617 Mn612 2.095 . S
O617 C626 1.250 . S
O618 Mn613 2.121 . S
O618 C626 1.258 . S
C619 N620 1.326 . S
C619 C623 1.460 . S
C619 H625 0.929 . S
N620 Mn613 2.257 . S
N620 C619 1.326 . S
N620 C624 1.362 . S
C621 C622 1.258 . S
C621 C624 1.431 . S
C621 C641 1.449 . S
C622 C621 1.258 . S
C622 C623 1.477 . S
C622 H642 0.931 . S
C623 C619 1.460 . S
C623 C622 1.477 . S
C623 H643 0.930 . S
C624 N620 1.362 . S
C624 C621 1.431 . S
C624 C634 1.476 . S
H625 C619 0.929 . S
C626 O617 1.250 . S
C626 O618 1.258 . S
O627 Mn612 2.162 . S
O627 C615 1.281 . S
O628 Mn612 2.297 . S
O628 C615 1.236 . S
N629 Mn613 2.282 . S
N629 C630 1.328 . S
N629 C634 1.318 . S
C630 N629 1.328 . S
C630 C631 1.457 . S
C630 H635 0.929 . S
C631 C630 1.457 . S
C631 C632 1.291 . S
C631 H644 0.931 . S
C632 C631 1.291 . S
C632 C633 1.373 . S
C632 H645 0.929 . S
C633 C632 1.373 . S
C633 C634 1.396 . S
C633 C640 1.403 . S
C634 C624 1.476 . S
C634 N629 1.318 . S
C634 C633 1.396 . S
H635 C630 0.929 . S
O636 Mn612 2.385 . S
O636 C614 1.234 . S
O637 Mn612 2.209 . S
O637 Mn613 2.215 . S
O637 C614 1.283 . S
O638 Mn612 2.094 . S
O638 C616 1.240 . S
O639 Mn613 2.117 . S
O639 C616 1.264 . S
C640 C633 1.403 . S
C640 C641 1.399 . S
C640 H646 0.929 . S
C641 C621 1.449 . S
C641 C640 1.399 . S
C641 H647 0.930 . S
H642 C622 0.931 . S
H643 C623 0.930 . S
H644 C631 0.931 . S
H645 C632 0.929 . S
H646 C640 0.929 . S
H647 C641 0.930 . S
Mn648 O653 2.095 . S
Mn648 O663 2.162 . S
Mn648 O664 2.297 . S
Mn648 O672 2.385 . S
Mn648 O673 2.209 . S
Mn648 O674 2.094 . S
Mn649 O654 2.121 . S
Mn649 N656 2.257 . S
Mn649 N665 2.282 . S
Mn649 O673 2.215 . S
Mn649 O675 2.117 . S
C650 O672 1.234 . S
C650 O673 1.283 . S
C651 O663 1.281 . S
C651 O664 1.236 . S
C652 O674 1.240 . S
C652 O675 1.264 . S
O653 Mn648 2.095 . S
O653 C662 1.250 . S
O654 Mn649 2.121 . S
O654 C662 1.258 . S
C655 N656 1.326 . S
C655 C659 1.460 . S
C655 H661 0.929 . S
N656 Mn649 2.257 . S
N656 C655 1.326 . S
N656 C660 1.362 . S
C657 C658 1.258 . S
C657 C660 1.431 . S
C657 C677 1.449 . S
C658 C657 1.258 . S
C658 C659 1.477 . S
C658 H678 0.931 . S
C659 C655 1.460 . S
C659 C658 1.477 . S
C659 H679 0.930 . S
C660 N656 1.362 . S
C660 C657 1.431 . S
C660 C670 1.476 . S
H661 C655 0.929 . S
C662 O653 1.250 . S
C662 O654 1.258 . S
O663 Mn648 2.162 . S
O663 C651 1.281 . S
O664 Mn648 2.297 . S
O664 C651 1.236 . S
N665 Mn649 2.282 . S
N665 C666 1.328 . S
N665 C670 1.318 . S
C666 N665 1.328 . S
C666 C667 1.457 . S
C666 H671 0.929 . S
C667 C666 1.457 . S
C667 C668 1.291 . S
C667 H680 0.931 . S
C668 C667 1.291 . S
C668 C669 1.373 . S
C668 H681 0.929 . S
C669 C668 1.373 . S
C669 C670 1.396 . S
C669 C676 1.403 . S
C670 C660 1.476 . S
C670 N665 1.318 . S
C670 C669 1.396 . S
H671 C666 0.929 . S
O672 Mn648 2.385 . S
O672 C650 1.234 . S
O673 Mn648 2.209 . S
O673 Mn649 2.215 . S
O673 C650 1.283 . S
O674 Mn648 2.094 . S
O674 C652 1.240 . S
O675 Mn649 2.117 . S
O675 C652 1.264 . S
C676 C669 1.403 . S
C676 C677 1.399 . S
C676 H682 0.929 . S
C677 C657 1.449 . S
C677 C676 1.399 . S
C677 H683 0.930 . S
H678 C658 0.931 . S
H679 C659 0.930 . S
H680 C667 0.931 . S
H681 C668 0.929 . S
H682 C676 0.929 . S
H683 C677 0.930 . S
Mn684 O689 2.095 . S
Mn684 O699 2.162 . S
Mn684 O700 2.297 . S
Mn684 O708 2.385 . S
Mn684 O709 2.209 . S
Mn684 O710 2.094 . S
Mn685 O690 2.121 . S
Mn685 N692 2.257 . S
Mn685 N701 2.282 . S
Mn685 O709 2.215 . S
Mn685 O711 2.117 . S
C686 O708 1.234 . S
C686 O709 1.283 . S
C687 O699 1.281 . S
C687 O700 1.236 . S
C688 O710 1.240 . S
C688 O711 1.264 . S
O689 Mn684 2.095 . S
O689 C698 1.250 . S
O690 Mn685 2.121 . S
O690 C698 1.258 . S
C691 N692 1.326 . S
C691 C695 1.460 . S
C691 H697 0.929 . S
N692 Mn685 2.257 . S
N692 C691 1.326 . S
N692 C696 1.362 . S
C693 C694 1.258 . S
C693 C696 1.431 . S
C693 C713 1.449 . S
C694 C693 1.258 . S
C694 C695 1.477 . S
C694 H714 0.931 . S
C695 C691 1.460 . S
C695 C694 1.477 . S
C695 H715 0.930 . S
C696 N692 1.362 . S
C696 C693 1.431 . S
C696 C706 1.476 . S
H697 C691 0.929 . S
C698 O689 1.250 . S
C698 O690 1.258 . S
O699 Mn684 2.162 . S
O699 C687 1.281 . S
O700 Mn684 2.297 . S
O700 C687 1.236 . S
N701 Mn685 2.282 . S
N701 C702 1.328 . S
N701 C706 1.318 . S
C702 N701 1.328 . S
C702 C703 1.457 . S
C702 H707 0.929 . S
C703 C702 1.457 . S
C703 C704 1.291 . S
C703 H716 0.931 . S
C704 C703 1.291 . S
C704 C705 1.373 . S
C704 H717 0.929 . S
C705 C704 1.373 . S
C705 C706 1.396 . S
C705 C712 1.403 . S
C706 C696 1.476 . S
C706 N701 1.318 . S
C706 C705 1.396 . S
H707 C702 0.929 . S
O708 Mn684 2.385 . S
O708 C686 1.234 . S
O709 Mn684 2.209 . S
O709 Mn685 2.215 . S
O709 C686 1.283 . S
O710 Mn684 2.094 . S
O710 C688 1.240 . S
O711 Mn685 2.117 . S
O711 C688 1.264 . S
C712 C705 1.403 . S
C712 C713 1.399 . S
C712 H718 0.929 . S
C713 C693 1.449 . S
C713 C712 1.399 . S
C713 H719 0.930 . S
H714 C694 0.931 . S
H715 C695 0.930 . S
H716 C703 0.931 . S
H717 C704 0.929 . S
H718 C712 0.929 . S
H719 C713 0.930 . S
Mn720 O725 2.095 . S
Mn720 O735 2.162 . S
Mn720 O736 2.297 . S
Mn720 O744 2.385 . S
Mn720 O745 2.209 . S
Mn720 O746 2.094 . S
Mn721 O726 2.121 . S
Mn721 N728 2.257 . S
Mn721 N737 2.282 . S
Mn721 O745 2.215 . S
Mn721 O747 2.117 . S
C722 O744 1.234 . S
C722 O745 1.283 . S
C723 O735 1.281 . S
C723 O736 1.236 . S
C724 O746 1.240 . S
C724 O747 1.264 . S
O725 Mn720 2.095 . S
O725 C734 1.250 . S
O726 Mn721 2.121 . S
O726 C734 1.258 . S
C727 N728 1.326 . S
C727 C731 1.460 . S
C727 H733 0.929 . S
N728 Mn721 2.257 . S
N728 C727 1.326 . S
N728 C732 1.362 . S
C729 C730 1.258 . S
C729 C732 1.431 . S
C729 C749 1.449 . S
C730 C729 1.258 . S
C730 C731 1.477 . S
C730 H750 0.931 . S
C731 C727 1.460 . S
C731 C730 1.477 . S
C731 H751 0.930 . S
C732 N728 1.362 . S
C732 C729 1.431 . S
C732 C742 1.476 . S
H733 C727 0.929 . S
C734 O725 1.250 . S
C734 O726 1.258 . S
O735 Mn720 2.162 . S
O735 C723 1.281 . S
O736 Mn720 2.297 . S
O736 C723 1.236 . S
N737 Mn721 2.282 . S
N737 C738 1.328 . S
N737 C742 1.318 . S
C738 N737 1.328 . S
C738 C739 1.457 . S
C738 H743 0.929 . S
C739 C738 1.457 . S
C739 C740 1.291 . S
C739 H752 0.931 . S
C740 C739 1.291 . S
C740 C741 1.373 . S
C740 H753 0.929 . S
C741 C740 1.373 . S
C741 C742 1.396 . S
C741 C748 1.403 . S
C742 C732 1.476 . S
C742 N737 1.318 . S
C742 C741 1.396 . S
H743 C738 0.929 . S
O744 Mn720 2.385 . S
O744 C722 1.234 . S
O745 Mn720 2.209 . S
O745 Mn721 2.215 . S
O745 C722 1.283 . S
O746 Mn720 2.094 . S
O746 C724 1.240 . S
O747 Mn721 2.117 . S
O747 C724 1.264 . S
C748 C741 1.403 . S
C748 C749 1.399 . S
C748 H754 0.929 . S
C749 C729 1.449 . S
C749 C748 1.399 . S
C749 H755 0.930 . S
H750 C730 0.931 . S
H751 C731 0.930 . S
H752 C739 0.931 . S
H753 C740 0.929 . S
H754 C748 0.929 . S
H755 C749 0.930 . S
Mn756 O761 2.095 . S
Mn756 O771 2.162 . S
Mn756 O772 2.297 . S
Mn756 O780 2.385 . S
Mn756 O781 2.209 . S
Mn756 O782 2.094 . S
Mn757 O762 2.121 . S
Mn757 N764 2.257 . S
Mn757 N773 2.282 . S
Mn757 O781 2.215 . S
Mn757 O783 2.117 . S
C758 O780 1.234 . S
C758 O781 1.283 . S
C759 O771 1.281 . S
C759 O772 1.236 . S
C760 O782 1.240 . S
C760 O783 1.264 . S
O761 Mn756 2.095 . S
O761 C770 1.250 . S
O762 Mn757 2.121 . S
O762 C770 1.258 . S
C763 N764 1.326 . S
C763 C767 1.460 . S
C763 H769 0.929 . S
N764 Mn757 2.257 . S
N764 C763 1.326 . S
N764 C768 1.362 . S
C765 C766 1.258 . S
C765 C768 1.431 . S
C765 C785 1.449 . S
C766 C765 1.258 . S
C766 C767 1.477 . S
C766 H786 0.931 . S
C767 C763 1.460 . S
C767 C766 1.477 . S
C767 H787 0.930 . S
C768 N764 1.362 . S
C768 C765 1.431 . S
C768 C778 1.476 . S
H769 C763 0.929 . S
C770 O761 1.250 . S
C770 O762 1.258 . S
O771 Mn756 2.162 . S
O771 C759 1.281 . S
O772 Mn756 2.297 . S
O772 C759 1.236 . S
N773 Mn757 2.282 . S
N773 C774 1.328 . S
N773 C778 1.318 . S
C774 N773 1.328 . S
C774 C775 1.457 . S
C774 H779 0.929 . S
C775 C774 1.457 . S
C775 C776 1.291 . S
C775 H788 0.931 . S
C776 C775 1.291 . S
C776 C777 1.373 . S
C776 H789 0.929 . S
C777 C776 1.373 . S
C777 C778 1.396 . S
C777 C784 1.403 . S
C778 C768 1.476 . S
C778 N773 1.318 . S
C778 C777 1.396 . S
H779 C774 0.929 . S
O780 Mn756 2.385 . S
O780 C758 1.234 . S
O781 Mn756 2.209 . S
O781 Mn757 2.215 . S
O781 C758 1.283 . S
O782 Mn756 2.094 . S
O782 C760 1.240 . S
O783 Mn757 2.117 . S
O783 C760 1.264 . S
C784 C777 1.403 . S
C784 C785 1.399 . S
C784 H790 0.929 . S
C785 C765 1.449 . S
C785 C784 1.399 . S
C785 H791 0.930 . S
H786 C766 0.931 . S
H787 C767 0.930 . S
H788 C775 0.931 . S
H789 C776 0.929 . S
H790 C784 0.929 . S
H791 C785 0.930 . S
Mn792 O797 2.095 . S
Mn792 O807 2.162 . S
Mn792 O808 2.297 . S
Mn792 O816 2.385 . S
Mn792 O817 2.209 . S
Mn792 O818 2.094 . S
Mn793 O798 2.121 . S
Mn793 N800 2.257 . S
Mn793 N809 2.282 . S
Mn793 O817 2.215 . S
Mn793 O819 2.117 . S
C794 O816 1.234 . S
C794 O817 1.283 . S
C795 O807 1.281 . S
C795 O808 1.236 . S
C796 O818 1.240 . S
C796 O819 1.264 . S
O797 Mn792 2.095 . S
O797 C806 1.250 . S
O798 Mn793 2.121 . S
O798 C806 1.258 . S
C799 N800 1.326 . S
C799 C803 1.460 . S
C799 H805 0.929 . S
N800 Mn793 2.257 . S
N800 C799 1.326 . S
N800 C804 1.362 . S
C801 C802 1.258 . S
C801 C804 1.431 . S
C801 C821 1.449 . S
C802 C801 1.258 . S
C802 C803 1.477 . S
C802 H822 0.931 . S
C803 C799 1.460 . S
C803 C802 1.477 . S
C803 H823 0.930 . S
C804 N800 1.362 . S
C804 C801 1.431 . S
C804 C814 1.476 . S
H805 C799 0.929 . S
C806 O797 1.250 . S
C806 O798 1.258 . S
O807 Mn792 2.162 . S
O807 C795 1.281 . S
O808 Mn792 2.297 . S
O808 C795 1.236 . S
N809 Mn793 2.282 . S
N809 C810 1.328 . S
N809 C814 1.318 . S
C810 N809 1.328 . S
C810 C811 1.457 . S
C810 H815 0.929 . S
C811 C810 1.457 . S
C811 C812 1.291 . S
C811 H824 0.931 . S
C812 C811 1.291 . S
C812 C813 1.373 . S
C812 H825 0.929 . S
C813 C812 1.373 . S
C813 C814 1.396 . S
C813 C820 1.403 . S
C814 C804 1.476 . S
C814 N809 1.318 . S
C814 C813 1.396 . S
H815 C810 0.929 . S
O816 Mn792 2.385 . S
O816 C794 1.234 . S
O817 Mn792 2.209 . S
O817 Mn793 2.215 . S
O817 C794 1.283 . S
O818 Mn792 2.094 . S
O818 C796 1.240 . S
O819 Mn793 2.117 . S
O819 C796 1.264 . S
C820 C813 1.403 . S
C820 C821 1.399 . S
C820 H826 0.929 . S
C821 C801 1.449 . S
C821 C820 1.399 . S
C821 H827 0.930 . S
H822 C802 0.931 . S
H823 C803 0.930 . S
H824 C811 0.931 . S
H825 C812 0.929 . S
H826 C820 0.929 . S
H827 C821 0.930 . S
Mn828 O833 2.095 . S
Mn828 O843 2.162 . S
Mn828 O844 2.297 . S
Mn828 O852 2.385 . S
Mn828 O853 2.209 . S
Mn828 O854 2.094 . S
Mn829 O834 2.121 . S
Mn829 N836 2.257 . S
Mn829 N845 2.282 . S
Mn829 O853 2.215 . S
Mn829 O855 2.117 . S
C830 O852 1.234 . S
C830 O853 1.283 . S
C831 O843 1.281 . S
C831 O844 1.236 . S
C832 O854 1.240 . S
C832 O855 1.264 . S
O833 Mn828 2.095 . S
O833 C842 1.250 . S
O834 Mn829 2.121 . S
O834 C842 1.258 . S
C835 N836 1.326 . S
C835 C839 1.460 . S
C835 H841 0.929 . S
N836 Mn829 2.257 . S
N836 C835 1.326 . S
N836 C840 1.362 . S
C837 C838 1.258 . S
C837 C840 1.431 . S
C837 C857 1.449 . S
C838 C837 1.258 . S
C838 C839 1.477 . S
C838 H858 0.931 . S
C839 C835 1.460 . S
C839 C838 1.477 . S
C839 H859 0.930 . S
C840 N836 1.362 . S
C840 C837 1.431 . S
C840 C850 1.476 . S
H841 C835 0.929 . S
C842 O833 1.250 . S
C842 O834 1.258 . S
O843 Mn828 2.162 . S
O843 C831 1.281 . S
O844 Mn828 2.297 . S
O844 C831 1.236 . S
N845 Mn829 2.282 . S
N845 C846 1.328 . S
N845 C850 1.318 . S
C846 N845 1.328 . S
C846 C847 1.457 . S
C846 H851 0.929 . S
C847 C846 1.457 . S
C847 C848 1.291 . S
C847 H860 0.931 . S
C848 C847 1.291 . S
C848 C849 1.373 . S
C848 H861 0.929 . S
C849 C848 1.373 . S
C849 C850 1.396 . S
C849 C856 1.403 . S
C850 C840 1.476 . S
C850 N845 1.318 . S
C850 C849 1.396 . S
H851 C846 0.929 . S
O852 Mn828 2.385 . S
O852 C830 1.234 . S
O853 Mn828 2.209 . S
O853 Mn829 2.215 . S
O853 C830 1.283 . S
O854 Mn828 2.094 . S
O854 C832 1.240 . S
O855 Mn829 2.117 . S
O855 C832 1.264 . S
C856 C849 1.403 . S
C856 C857 1.399 . S
C856 H862 0.929 . S
C857 C837 1.449 . S
C857 C856 1.399 . S
C857 H863 0.930 . S
H858 C838 0.931 . S
H859 C839 0.930 . S
H860 C847 0.931 . S
H861 C848 0.929 . S
H862 C856 0.929 . S
H863 C857 0.930 . S
H864 C870 0.930 . S
H865 C873 0.930 . S
H866 C874 0.930 . S
H867 C875 0.930 . S
H868 C878 0.930 . S
H869 C879 0.930 . S
C870 H864 0.930 . S
C870 C871 1.355 . S
C870 C872 1.415 . S
C871 C870 1.355 . S
C871 C873 1.419 . S
C872 C870 1.415 . S
C872 C877 1.425 . S
C872 C879 1.409 . S
C873 H865 0.930 . S
C873 C871 1.419 . S
C873 C874 1.362 . S
C874 H866 0.930 . S
C874 C873 1.362 . S
C874 C877 1.409 . S
C875 H867 0.930 . S
C875 C876 1.355 . S
C875 C877 1.415 . S
C876 C875 1.355 . S
C876 C878 1.419 . S
C877 C872 1.425 . S
C877 C874 1.409 . S
C877 C875 1.415 . S
C878 H868 0.930 . S
C878 C876 1.419 . S
C878 C879 1.362 . S
C879 H869 0.930 . S
C879 C872 1.409 . S
C879 C878 1.362 . S
H880 C886 0.930 . S
H881 C889 0.930 . S
H882 C890 0.930 . S
H883 C891 0.930 . S
H884 C894 0.930 . S
H885 C895 0.930 . S
C886 H880 0.930 . S
C886 C887 1.355 . S
C886 C888 1.415 . S
C887 C886 1.355 . S
C887 C889 1.419 . S
C888 C886 1.415 . S
C888 C893 1.425 . S
C888 C895 1.409 . S
C889 H881 0.930 . S
C889 C887 1.419 . S
C889 C890 1.362 . S
C890 H882 0.930 . S
C890 C889 1.362 . S
C890 C893 1.409 . S
C891 H883 0.930 . S
C891 C892 1.355 . S
C891 C893 1.415 . S
C892 C891 1.355 . S
C892 C894 1.419 . S
C893 C888 1.425 . S
C893 C890 1.409 . S
C893 C891 1.415 . S
C894 H884 0.930 . S
C894 C892 1.419 . S
C894 C895 1.362 . S
C895 H885 0.930 . S
C895 C888 1.409 . S
C895 C894 1.362 . S
H896 C902 0.930 . S
H897 C905 0.930 . S
H898 C906 0.930 . S
H899 C907 0.930 . S
H900 C910 0.930 . S
H901 C911 0.930 . S
C902 H896 0.930 . S
C902 C903 1.355 . S
C902 C904 1.415 . S
C903 C902 1.355 . S
C903 C905 1.419 . S
C904 C902 1.415 . S
C904 C909 1.425 . S
C904 C911 1.409 . S
C905 H897 0.930 . S
C905 C903 1.419 . S
C905 C906 1.362 . S
C906 H898 0.930 . S
C906 C905 1.362 . S
C906 C909 1.409 . S
C907 H899 0.930 . S
C907 C908 1.355 . S
C907 C909 1.415 . S
C908 C907 1.355 . S
C908 C910 1.419 . S
C909 C904 1.425 . S
C909 C906 1.409 . S
C909 C907 1.415 . S
C910 H900 0.930 . S
C910 C908 1.419 . S
C910 C911 1.362 . S
C911 H901 0.930 . S
C911 C904 1.409 . S
C911 C910 1.362 . S
H912 C918 0.930 . S
H913 C921 0.930 . S
H914 C922 0.930 . S
H915 C923 0.930 . S
H916 C926 0.930 . S
H917 C927 0.930 . S
C918 H912 0.930 . S
C918 C919 1.355 . S
C918 C920 1.415 . S
C919 C918 1.355 . S
C919 C921 1.419 . S
C920 C918 1.415 . S
C920 C925 1.425 . S
C920 C927 1.409 . S
C921 H913 0.930 . S
C921 C919 1.419 . S
C921 C922 1.362 . S
C922 H914 0.930 . S
C922 C921 1.362 . S
C922 C925 1.409 . S
C923 H915 0.930 . S
C923 C924 1.355 . S
C923 C925 1.415 . S
C924 C923 1.355 . S
C924 C926 1.419 . S
C925 C920 1.425 . S
C925 C922 1.409 . S
C925 C923 1.415 . S
C926 H916 0.930 . S
C926 C924 1.419 . S
C926 C927 1.362 . S
C927 H917 0.930 . S
C927 C920 1.409 . S
C927 C926 1.362 . S
H928 C934 0.930 . S
H929 C937 0.930 . S
H930 C938 0.930 . S
H931 C939 0.930 . S
H932 C942 0.930 . S
H933 C943 0.930 . S
C934 H928 0.930 . S
C934 C935 1.355 . S
C934 C936 1.415 . S
C935 C934 1.355 . S
C935 C937 1.419 . S
C936 C934 1.415 . S
C936 C941 1.425 . S
C936 C943 1.409 . S
C937 H929 0.930 . S
C937 C935 1.419 . S
C937 C938 1.362 . S
C938 H930 0.930 . S
C938 C937 1.362 . S
C938 C941 1.409 . S
C939 H931 0.930 . S
C939 C940 1.355 . S
C939 C941 1.415 . S
C940 C939 1.355 . S
C940 C942 1.419 . S
C941 C936 1.425 . S
C941 C938 1.409 . S
C941 C939 1.415 . S
C942 H932 0.930 . S
C942 C940 1.419 . S
C942 C943 1.362 . S
C943 H933 0.930 . S
C943 C936 1.409 . S
C943 C942 1.362 . S
H944 C950 0.930 . S
H945 C953 0.930 . S
H946 C954 0.930 . S
H947 C955 0.930 . S
H948 C958 0.930 . S
H949 C959 0.930 . S
C950 H944 0.930 . S
C950 C951 1.355 . S
C950 C952 1.415 . S
C951 C950 1.355 . S
C951 C953 1.419 . S
C952 C950 1.415 . S
C952 C957 1.425 . S
C952 C959 1.409 . S
C953 H945 0.930 . S
C953 C951 1.419 . S
C953 C954 1.362 . S
C954 H946 0.930 . S
C954 C953 1.362 . S
C954 C957 1.409 . S
C955 H947 0.930 . S
C955 C956 1.355 . S
C955 C957 1.415 . S
C956 C955 1.355 . S
C956 C958 1.419 . S
C957 C952 1.425 . S
C957 C954 1.409 . S
C957 C955 1.415 . S
C958 H948 0.930 . S
C958 C956 1.419 . S
C958 C959 1.362 . S
C959 H949 0.930 . S
C959 C952 1.409 . S
C959 C958 1.362 . S
H960 C966 0.930 . S
H961 C969 0.930 . S
H962 C970 0.930 . S
H963 C971 0.930 . S
H964 C974 0.930 . S
H965 C975 0.930 . S
C966 H960 0.930 . S
C966 C967 1.355 . S
C966 C968 1.415 . S
C967 C966 1.355 . S
C967 C969 1.419 . S
C968 C966 1.415 . S
C968 C973 1.425 . S
C968 C975 1.409 . S
C969 H961 0.930 . S
C969 C967 1.419 . S
C969 C970 1.362 . S
C970 H962 0.930 . S
C970 C969 1.362 . S
C970 C973 1.409 . S
C971 H963 0.930 . S
C971 C972 1.355 . S
C971 C973 1.415 . S
C972 C971 1.355 . S
C972 C974 1.419 . S
C973 C968 1.425 . S
C973 C970 1.409 . S
C973 C971 1.415 . S
C974 H964 0.930 . S
C974 C972 1.419 . S
C974 C975 1.362 . S
C975 H965 0.930 . S
C975 C968 1.409 . S
C975 C974 1.362 . S
H976 C982 0.930 . S
H977 C985 0.930 . S
H978 C986 0.930 . S
H979 C987 0.930 . S
H980 C990 0.930 . S
H981 C991 0.930 . S
C982 H976 0.930 . S
C982 C983 1.355 . S
C982 C984 1.415 . S
C983 C982 1.355 . S
C983 C985 1.419 . S
C984 C982 1.415 . S
C984 C989 1.425 . S
C984 C991 1.409 . S
C985 H977 0.930 . S
C985 C983 1.419 . S
C985 C986 1.362 . S
C986 H978 0.930 . S
C986 C985 1.362 . S
C986 C989 1.409 . S
C987 H979 0.930 . S
C987 C988 1.355 . S
C987 C989 1.415 . S
C988 C987 1.355 . S
C988 C990 1.419 . S
C989 C984 1.425 . S
C989 C986 1.409 . S
C989 C987 1.415 . S
C990 H980 0.930 . S
C990 C988 1.419 . S
C990 C991 1.362 . S
C991 H981 0.930 . S
C991 C984 1.409 . S
C991 C990 1.362 . S
H992 C998 0.930 . S
H993 C1001 0.930 . S
H994 C1002 0.930 . S
H995 C1003 0.930 . S
H996 C1006 0.930 . S
H997 C1007 0.930 . S
C998 H992 0.930 . S
C998 C999 1.355 . S
C998 C1000 1.415 . S
C999 C998 1.355 . S
C999 C1001 1.419 . S
C1000 C998 1.415 . S
C1000 C1005 1.425 . S
C1000 C1007 1.409 . S
C1001 H993 0.930 . S
C1001 C999 1.419 . S
C1001 C1002 1.362 . S
C1002 H994 0.930 . S
C1002 C1001 1.362 . S
C1002 C1005 1.409 . S
C1003 H995 0.930 . S
C1003 C1004 1.355 . S
C1003 C1005 1.415 . S
C1004 C1003 1.355 . S
C1004 C1006 1.419 . S
C1005 C1000 1.425 . S
C1005 C1002 1.409 . S
C1005 C1003 1.415 . S
C1006 H996 0.930 . S
C1006 C1004 1.419 . S
C1006 C1007 1.362 . S
C1007 H997 0.930 . S
C1007 C1000 1.409 . S
C1007 C1006 1.362 . S
H1008 C1014 0.930 . S
H1009 C1017 0.930 . S
H1010 C1018 0.930 . S
H1011 C1019 0.930 . S
H1012 C1022 0.930 . S
H1013 C1023 0.930 . S
C1014 H1008 0.930 . S
C1014 C1015 1.355 . S
C1014 C1016 1.415 . S
C1015 C1014 1.355 . S
C1015 C1017 1.419 . S
C1016 C1014 1.415 . S
C1016 C1021 1.425 . S
C1016 C1023 1.409 . S
C1017 H1009 0.930 . S
C1017 C1015 1.419 . S
C1017 C1018 1.362 . S
C1018 H1010 0.930 . S
C1018 C1017 1.362 . S
C1018 C1021 1.409 . S
C1019 H1011 0.930 . S
C1019 C1020 1.355 . S
C1019 C1021 1.415 . S
C1020 C1019 1.355 . S
C1020 C1022 1.419 . S
C1021 C1016 1.425 . S
C1021 C1018 1.409 . S
C1021 C1019 1.415 . S
C1022 H1012 0.930 . S
C1022 C1020 1.419 . S
C1022 C1023 1.362 . S
C1023 H1013 0.930 . S
C1023 C1016 1.409 . S
C1023 C1022 1.362 . S
H1024 C1030 0.930 . S
H1025 C1033 0.930 . S
H1026 C1034 0.930 . S
H1027 C1035 0.930 . S
H1028 C1038 0.930 . S
H1029 C1039 0.930 . S
C1030 H1024 0.930 . S
C1030 C1031 1.355 . S
C1030 C1032 1.415 . S
C1031 C1030 1.355 . S
C1031 C1033 1.419 . S
C1032 C1030 1.415 . S
C1032 C1037 1.425 . S
C1032 C1039 1.409 . S
C1033 H1025 0.930 . S
C1033 C1031 1.419 . S
C1033 C1034 1.362 . S
C1034 H1026 0.930 . S
C1034 C1033 1.362 . S
C1034 C1037 1.409 . S
C1035 H1027 0.930 . S
C1035 C1036 1.355 . S
C1035 C1037 1.415 . S
C1036 C1035 1.355 . S
C1036 C1038 1.419 . S
C1037 C1032 1.425 . S
C1037 C1034 1.409 . S
C1037 C1035 1.415 . S
C1038 H1028 0.930 . S
C1038 C1036 1.419 . S
C1038 C1039 1.362 . S
C1039 H1029 0.930 . S
C1039 C1032 1.409 . S
C1039 C1038 1.362 . S
H1040 C1046 0.930 . S
H1041 C1049 0.930 . S
H1042 C1050 0.930 . S
H1043 C1051 0.930 . S
H1044 C1054 0.930 . S
H1045 C1055 0.930 . S
C1046 H1040 0.930 . S
C1046 C1047 1.355 . S
C1046 C1048 1.415 . S
C1047 C1046 1.355 . S
C1047 C1049 1.419 . S
C1048 C1046 1.415 . S
C1048 C1053 1.425 . S
C1048 C1055 1.409 . S
C1049 H1041 0.930 . S
C1049 C1047 1.419 . S
C1049 C1050 1.362 . S
C1050 H1042 0.930 . S
C1050 C1049 1.362 . S
C1050 C1053 1.409 . S
C1051 H1043 0.930 . S
C1051 C1052 1.355 . S
C1051 C1053 1.415 . S
C1052 C1051 1.355 . S
C1052 C1054 1.419 . S
C1053 C1048 1.425 . S
C1053 C1050 1.409 . S
C1053 C1051 1.415 . S
C1054 H1044 0.930 . S
C1054 C1052 1.419 . S
C1054 C1055 1.362 . S
C1055 H1045 0.930 . S
C1055 C1048 1.409 . S
C1055 C1054 1.362 . S
H1056 C1062 0.930 . S
H1057 C1065 0.930 . S
H1058 C1066 0.930 . S
H1059 C1067 0.930 . S
H1060 C1070 0.930 . S
H1061 C1071 0.930 . S
C1062 H1056 0.930 . S
C1062 C1063 1.355 . S
C1062 C1064 1.415 . S
C1063 C1062 1.355 . S
C1063 C1065 1.419 . S
C1064 C1062 1.415 . S
C1064 C1069 1.425 1_556 S
C1064 C1071 1.409 . S
C1065 H1057 0.930 . S
C1065 C1063 1.419 . S
C1065 C1066 1.362 1_556 S
C1066 H1058 0.930 . S
C1066 C1065 1.362 1_554 S
C1066 C1069 1.409 . S
C1067 H1059 0.930 . S
C1067 C1068 1.355 . S
C1067 C1069 1.415 . S
C1068 C1067 1.355 . S
C1068 C1070 1.419 . S
C1069 C1064 1.425 1_554 S
C1069 C1066 1.409 . S
C1069 C1067 1.415 . S
C1070 H1060 0.930 . S
C1070 C1068 1.419 . S
C1070 C1071 1.362 1_554 S
C1071 H1061 0.930 . S
C1071 C1064 1.409 . S
C1071 C1070 1.362 1_556 S
H1072 C1078 0.930 . S
H1073 C1081 0.930 . S
H1074 C1082 0.930 . S
H1075 C1083 0.930 . S
H1076 C1086 0.930 . S
H1077 C1087 0.930 . S
C1078 H1072 0.930 . S
C1078 C1079 1.355 . S
C1078 C1080 1.415 . S
C1079 C1078 1.355 . S
C1079 C1081 1.419 . S
C1080 C1078 1.415 . S
C1080 C1085 1.425 . S
C1080 C1087 1.409 . S
C1081 H1073 0.930 . S
C1081 C1079 1.419 . S
C1081 C1082 1.362 . S
C1082 H1074 0.930 . S
C1082 C1081 1.362 . S
C1082 C1085 1.409 . S
C1083 H1075 0.930 . S
C1083 C1084 1.355 . S
C1083 C1085 1.415 . S
C1084 C1083 1.355 . S
C1084 C1086 1.419 . S
C1085 C1080 1.425 . S
C1085 C1082 1.409 . S
C1085 C1083 1.415 . S
C1086 H1076 0.930 . S
C1086 C1084 1.419 . S
C1086 C1087 1.362 . S
C1087 H1077 0.930 . S
C1087 C1080 1.409 . S
C1087 C1086 1.362 . S
H1088 C1094 0.930 . S
H1089 C1097 0.930 . S
H1090 C1098 0.930 . S
H1091 C1099 0.930 . S
H1092 C1102 0.930 . S
H1093 C1103 0.930 . S
C1094 H1088 0.930 . S
C1094 C1095 1.355 . S
C1094 C1096 1.415 . S
C1095 C1094 1.355 . S
C1095 C1097 1.419 1_554 S
C1096 C1094 1.415 . S
C1096 C1101 1.425 1_554 S
C1096 C1103 1.409 . S
C1097 H1089 0.930 . S
C1097 C1095 1.419 1_556 S
C1097 C1098 1.362 . S
C1098 H1090 0.930 . S
C1098 C1097 1.362 . S
C1098 C1101 1.409 . S
C1099 H1091 0.930 . S
C1099 C1100 1.355 . S
C1099 C1101 1.415 . S
C1100 C1099 1.355 . S
C1100 C1102 1.419 1_556 S
C1101 C1096 1.425 1_556 S
C1101 C1098 1.409 . S
C1101 C1099 1.415 . S
C1102 H1092 0.930 . S
C1102 C1100 1.419 1_554 S
C1102 C1103 1.362 . S
C1103 H1093 0.930 . S
C1103 C1096 1.409 . S
C1103 C1102 1.362 . S
H1104 C1110 0.930 . S
H1105 C1113 0.930 . S
H1106 C1114 0.930 . S
H1107 C1115 0.930 . S
H1108 C1118 0.930 . S
H1109 C1119 0.930 . S
C1110 H1104 0.930 . S
C1110 C1111 1.355 . S
C1110 C1112 1.415 . S
C1111 C1110 1.355 . S
C1111 C1113 1.419 . S
C1112 C1110 1.415 . S
C1112 C1117 1.425 . S
C1112 C1119 1.409 . S
C1113 H1105 0.930 . S
C1113 C1111 1.419 . S
C1113 C1114 1.362 . S
C1114 H1106 0.930 . S
C1114 C1113 1.362 . S
C1114 C1117 1.409 . S
C1115 H1107 0.930 . S
C1115 C1116 1.355 . S
C1115 C1117 1.415 . S
C1116 C1115 1.355 . S
C1116 C1118 1.419 . S
C1117 C1112 1.425 . S
C1117 C1114 1.409 . S
C1117 C1115 1.415 . S
C1118 H1108 0.930 . S
C1118 C1116 1.419 . S
C1118 C1119 1.362 . S
C1119 H1109 0.930 . S
C1119 C1112 1.409 . S
C1119 C1118 1.362 . S
H1120 C1126 0.928 1_554 S
H1121 C1129 0.930 . S
H1122 C1130 0.930 . S
H1123 C1131 0.928 1_556 S
H1124 C1134 0.930 . S
H1125 C1135 0.930 . S
C1126 H1120 0.928 1_556 S
C1126 C1127 1.356 . S
C1126 C1128 1.414 1_556 S
C1127 C1126 1.356 . S
C1127 C1129 1.419 . S
C1128 C1126 1.414 1_554 S
C1128 C1133 1.425 1_554 S
C1128 C1135 1.409 . S
C1129 H1121 0.930 . S
C1129 C1127 1.419 . S
C1129 C1130 1.362 . S
C1130 H1122 0.930 . S
C1130 C1129 1.362 . S
C1130 C1133 1.409 . S
C1131 H1123 0.928 1_554 S
C1131 C1132 1.356 . S
C1131 C1133 1.414 1_554 S
C1132 C1131 1.356 . S
C1132 C1134 1.419 . S
C1133 C1128 1.425 1_556 S
C1133 C1130 1.409 . S
C1133 C1131 1.414 1_556 S
C1134 H1124 0.930 . S
C1134 C1132 1.419 . S
C1134 C1135 1.362 . S
C1135 H1125 0.930 . S
C1135 C1128 1.409 . S
C1135 C1134 1.362 . S
H1136 C1142 0.930 . S
H1137 C1145 0.930 . S
H1138 C1146 0.930 . S
H1139 C1147 0.930 . S
H1140 C1150 0.930 . S
H1141 C1151 0.930 . S
C1142 H1136 0.930 . S
C1142 C1143 1.355 . S
C1142 C1144 1.415 . S
C1143 C1142 1.355 . S
C1143 C1145 1.419 . S
C1144 C1142 1.415 . S
C1144 C1149 1.425 . S
C1144 C1151 1.409 . S
C1145 H1137 0.930 . S
C1145 C1143 1.419 . S
C1145 C1146 1.362 . S
C1146 H1138 0.930 . S
C1146 C1145 1.362 . S
C1146 C1149 1.409 . S
C1147 H1139 0.930 . S
C1147 C1148 1.355 . S
C1147 C1149 1.415 . S
C1148 C1147 1.355 . S
C1148 C1150 1.419 . S
C1149 C1144 1.425 . S
C1149 C1146 1.409 . S
C1149 C1147 1.415 . S
C1150 H1140 0.930 . S
C1150 C1148 1.419 . S
C1150 C1151 1.362 . S
C1151 H1141 0.930 . S
C1151 C1144 1.409 . S
C1151 C1150 1.362 . S
H1152 C1158 0.930 . S
H1153 C1161 0.930 . S
H1154 C1162 0.930 . S
H1155 C1163 0.930 . S
H1156 C1166 0.930 . S
H1157 C1167 0.930 . S
C1158 H1152 0.930 . S
C1158 C1159 1.355 . S
C1158 C1160 1.415 . S
C1159 C1158 1.355 . S
C1159 C1161 1.419 1_554 S
C1160 C1158 1.415 . S
C1160 C1165 1.425 1_554 S
C1160 C1167 1.409 . S
C1161 H1153 0.930 . S
C1161 C1159 1.419 1_556 S
C1161 C1162 1.362 . S
C1162 H1154 0.930 . S
C1162 C1161 1.362 . S
C1162 C1165 1.409 . S
C1163 H1155 0.930 . S
C1163 C1164 1.355 . S
C1163 C1165 1.415 . S
C1164 C1163 1.355 . S
C1164 C1166 1.419 1_556 S
C1165 C1160 1.425 1_556 S
C1165 C1162 1.409 . S
C1165 C1163 1.415 . S
C1166 H1156 0.930 . S
C1166 C1164 1.419 1_554 S
C1166 C1167 1.362 . S
C1167 H1157 0.930 . S
C1167 C1160 1.409 . S
C1167 C1166 1.362 . S
H1168 C1174 0.930 . S
H1169 C1177 0.930 . S
H1170 C1178 0.930 . S
H1171 C1179 0.930 . S
H1172 C1182 0.930 . S
H1173 C1183 0.930 . S
C1174 H1168 0.930 . S
C1174 C1175 1.355 . S
C1174 C1176 1.415 . S
C1175 C1174 1.355 . S
C1175 C1177 1.419 . S
C1176 C1174 1.415 . S
C1176 C1181 1.425 . S
C1176 C1183 1.409 . S
C1177 H1169 0.930 . S
C1177 C1175 1.419 . S
C1177 C1178 1.362 . S
C1178 H1170 0.930 . S
C1178 C1177 1.362 . S
C1178 C1181 1.409 . S
C1179 H1171 0.930 . S
C1179 C1180 1.355 . S
C1179 C1181 1.415 . S
C1180 C1179 1.355 . S
C1180 C1182 1.419 . S
C1181 C1176 1.425 . S
C1181 C1178 1.409 . S
C1181 C1179 1.415 . S
C1182 H1172 0.930 . S
C1182 C1180 1.419 . S
C1182 C1183 1.362 . S
C1183 H1173 0.930 . S
C1183 C1176 1.409 . S
C1183 C1182 1.362 . S
H1184 C1190 0.930 . S
H1185 C1193 0.930 . S
H1186 C1194 0.930 . S
H1187 C1195 0.930 . S
H1188 C1198 0.930 . S
H1189 C1199 0.930 . S
C1190 H1184 0.930 . S
C1190 C1191 1.355 . S
C1190 C1192 1.415 . S
C1191 C1190 1.355 . S
C1191 C1193 1.419 1_556 S
C1192 C1190 1.415 . S
C1192 C1197 1.425 1_556 S
C1192 C1199 1.409 . S
C1193 H1185 0.930 . S
C1193 C1191 1.419 1_554 S
C1193 C1194 1.362 . S
C1194 H1186 0.930 . S
C1194 C1193 1.362 . S
C1194 C1197 1.409 . S
C1195 H1187 0.930 . S
C1195 C1196 1.355 . S
C1195 C1197 1.415 . S
C1196 C1195 1.355 . S
C1196 C1198 1.419 1_554 S
C1197 C1192 1.425 1_554 S
C1197 C1194 1.409 . S
C1197 C1195 1.415 . S
C1198 H1188 0.930 . S
C1198 C1196 1.419 1_556 S
C1198 C1199 1.362 . S
C1199 H1189 0.930 . S
C1199 C1192 1.409 . S
C1199 C1198 1.362 . S
H1200 C1206 0.930 . S
H1201 C1209 0.930 . S
H1202 C1210 0.930 . S
H1203 C1211 0.930 . S
H1204 C1214 0.930 . S
H1205 C1215 0.930 . S
C1206 H1200 0.930 . S
C1206 C1207 1.355 . S
C1206 C1208 1.415 . S
C1207 C1206 1.355 . S
C1207 C1209 1.419 . S
C1208 C1206 1.415 . S
C1208 C1213 1.425 . S
C1208 C1215 1.409 . S
C1209 H1201 0.930 . S
C1209 C1207 1.419 . S
C1209 C1210 1.362 . S
C1210 H1202 0.930 . S
C1210 C1209 1.362 . S
C1210 C1213 1.409 . S
C1211 H1203 0.930 . S
C1211 C1212 1.355 . S
C1211 C1213 1.415 . S
C1212 C1211 1.355 . S
C1212 C1214 1.419 . S
C1213 C1208 1.425 . S
C1213 C1210 1.409 . S
C1213 C1211 1.415 . S
C1214 H1204 0.930 . S
C1214 C1212 1.419 . S
C1214 C1215 1.362 . S
C1215 H1205 0.930 . S
C1215 C1208 1.409 . S
C1215 C1214 1.362 . S
H1216 C1222 0.930 . S
H1217 C1225 0.930 . S
H1218 C1226 0.930 . S
H1219 C1227 0.930 . S
H1220 C1230 0.930 . S
H1221 C1231 0.930 . S
C1222 H1216 0.930 . S
C1222 C1223 1.355 . S
C1222 C1224 1.415 1_556 S
C1223 C1222 1.355 . S
C1223 C1225 1.419 . S
C1224 C1222 1.415 1_554 S
C1224 C1229 1.425 1_554 S
C1224 C1231 1.409 . S
C1225 H1217 0.930 . S
C1225 C1223 1.419 . S
C1225 C1226 1.362 . S
C1226 H1218 0.930 . S
C1226 C1225 1.362 . S
C1226 C1229 1.409 . S
C1227 H1219 0.930 . S
C1227 C1228 1.355 . S
C1227 C1229 1.415 1_554 S
C1228 C1227 1.355 . S
C1228 C1230 1.419 . S
C1229 C1224 1.425 1_556 S
C1229 C1226 1.409 . S
C1229 C1227 1.415 1_556 S
C1230 H1220 0.930 . S
C1230 C1228 1.419 . S
C1230 C1231 1.362 . S
C1231 H1221 0.930 . S
C1231 C1224 1.409 . S
C1231 C1230 1.362 . S
H1232 C1238 0.930 . S
H1233 C1241 0.930 . S
H1234 C1242 0.930 . S
H1235 C1243 0.930 . S
H1236 C1246 0.930 . S
H1237 C1247 0.930 . S
C1238 H1232 0.930 . S
C1238 C1239 1.355 . S
C1238 C1240 1.415 . S
C1239 C1238 1.355 . S
C1239 C1241 1.419 . S
C1240 C1238 1.415 . S
C1240 C1245 1.425 . S
C1240 C1247 1.409 . S
C1241 H1233 0.930 . S
C1241 C1239 1.419 . S
C1241 C1242 1.362 . S
C1242 H1234 0.930 . S
C1242 C1241 1.362 . S
C1242 C1245 1.409 . S
C1243 H1235 0.930 . S
C1243 C1244 1.355 . S
C1243 C1245 1.415 . S
C1244 C1243 1.355 . S
C1244 C1246 1.419 . S
C1245 C1240 1.425 . S
C1245 C1242 1.409 . S
C1245 C1243 1.415 . S
C1246 H1236 0.930 . S
C1246 C1244 1.419 . S
C1246 C1247 1.362 . S
C1247 H1237 0.930 . S
C1247 C1240 1.409 . S
C1247 C1246 1.362 . S
H1248 C1254 0.930 . S
H1249 C1257 0.930 . S
H1250 C1258 0.930 . S
H1251 C1259 0.930 . S
H1252 C1262 0.930 . S
H1253 C1263 0.930 . S
C1254 H1248 0.930 . S
C1254 C1255 1.355 . S
C1254 C1256 1.415 . S
C1255 C1254 1.355 . S
C1255 C1257 1.419 . S
C1256 C1254 1.415 . S
C1256 C1261 1.425 . S
C1256 C1263 1.409 . S
C1257 H1249 0.930 . S
C1257 C1255 1.419 . S
C1257 C1258 1.362 . S
C1258 H1250 0.930 . S
C1258 C1257 1.362 . S
C1258 C1261 1.409 . S
C1259 H1251 0.930 . S
C1259 C1260 1.355 . S
C1259 C1261 1.415 . S
C1260 C1259 1.355 . S
C1260 C1262 1.419 . S
C1261 C1256 1.425 . S
C1261 C1258 1.409 . S
C1261 C1259 1.415 . S
C1262 H1252 0.930 . S
C1262 C1260 1.419 . S
C1262 C1263 1.362 . S
C1263 H1253 0.930 . S
C1263 C1256 1.409 . S
C1263 C1262 1.362 . S
H1264 C1270 0.930 . S
H1265 C1273 0.930 . S
H1266 C1274 0.930 . S
H1267 C1275 0.930 . S
H1268 C1278 0.930 . S
H1269 C1279 0.930 . S
C1270 H1264 0.930 . S
C1270 C1271 1.355 . S
C1270 C1272 1.415 . S
C1271 C1270 1.355 . S
C1271 C1273 1.419 . S
C1272 C1270 1.415 . S
C1272 C1277 1.425 1_455 S
C1272 C1279 1.409 1_455 S
C1273 H1265 0.930 . S
C1273 C1271 1.419 . S
C1273 C1274 1.362 . S
C1274 H1266 0.930 . S
C1274 C1273 1.362 . S
C1274 C1277 1.409 1_455 S
C1275 H1267 0.930 . S
C1275 C1276 1.355 . S
C1275 C1277 1.415 . S
C1276 C1275 1.355 . S
C1276 C1278 1.419 . S
C1277 C1272 1.425 1_655 S
C1277 C1274 1.409 1_655 S
C1277 C1275 1.415 . S
C1278 H1268 0.930 . S
C1278 C1276 1.419 . S
C1278 C1279 1.362 . S
C1279 H1269 0.930 . S
C1279 C1272 1.409 1_655 S
C1279 C1278 1.362 . S
H1280 C1286 0.930 . S
H1281 C1289 0.930 . S
H1282 C1290 0.930 . S
H1283 C1291 0.930 . S
H1284 C1294 0.930 . S
H1285 C1295 0.930 . S
C1286 H1280 0.930 . S
C1286 C1287 1.355 . S
C1286 C1288 1.415 . S
C1287 C1286 1.355 . S
C1287 C1289 1.419 . S
C1288 C1286 1.415 . S
C1288 C1293 1.425 1_565 S
C1288 C1295 1.409 1_565 S
C1289 H1281 0.930 . S
C1289 C1287 1.419 . S
C1289 C1290 1.362 . S
C1290 H1282 0.930 . S
C1290 C1289 1.362 . S
C1290 C1293 1.409 1_565 S
C1291 H1283 0.930 . S
C1291 C1292 1.355 . S
C1291 C1293 1.415 . S
C1292 C1291 1.355 . S
C1292 C1294 1.419 . S
C1293 C1288 1.425 1_545 S
C1293 C1290 1.409 1_545 S
C1293 C1291 1.415 . S
C1294 H1284 0.930 . S
C1294 C1292 1.419 . S
C1294 C1295 1.362 . S
C1295 H1285 0.930 . S
C1295 C1288 1.409 1_545 S
C1295 C1294 1.362 . S
H1296 C1302 0.930 . S
H1297 C1305 0.930 . S
H1298 C1306 0.930 . S
H1299 C1307 0.930 . S
H1300 C1310 0.930 . S
H1301 C1311 0.930 . S
C1302 H1296 0.930 . S
C1302 C1303 1.355 . S
C1302 C1304 1.415 . S
C1303 C1302 1.355 . S
C1303 C1305 1.419 . S
C1304 C1302 1.415 . S
C1304 C1309 1.425 . S
C1304 C1311 1.409 . S
C1305 H1297 0.930 . S
C1305 C1303 1.419 . S
C1305 C1306 1.362 . S
C1306 H1298 0.930 . S
C1306 C1305 1.362 . S
C1306 C1309 1.409 . S
C1307 H1299 0.930 . S
C1307 C1308 1.355 . S
C1307 C1309 1.415 . S
C1308 C1307 1.355 . S
C1308 C1310 1.419 . S
C1309 C1304 1.425 . S
C1309 C1306 1.409 . S
C1309 C1307 1.415 . S
C1310 H1300 0.930 . S
C1310 C1308 1.419 . S
C1310 C1311 1.362 . S
C1311 H1301 0.930 . S
C1311 C1304 1.409 . S
C1311 C1310 1.362 . S
H1312 C1318 0.930 . S
H1313 C1321 0.930 . S
H1314 C1322 0.930 . S
H1315 C1323 0.930 . S
H1316 C1326 0.930 . S
H1317 C1327 0.930 . S
C1318 H1312 0.930 . S
C1318 C1319 1.355 . S
C1318 C1320 1.415 . S
C1319 C1318 1.355 . S
C1319 C1321 1.419 . S
C1320 C1318 1.415 . S
C1320 C1325 1.425 1_655 S
C1320 C1327 1.409 1_655 S
C1321 H1313 0.930 . S
C1321 C1319 1.419 . S
C1321 C1322 1.362 . S
C1322 H1314 0.930 . S
C1322 C1321 1.362 . S
C1322 C1325 1.409 1_655 S
C1323 H1315 0.930 . S
C1323 C1324 1.355 . S
C1323 C1325 1.415 . S
C1324 C1323 1.355 . S
C1324 C1326 1.419 . S
C1325 C1320 1.425 1_455 S
C1325 C1322 1.409 1_455 S
C1325 C1323 1.415 . S
C1326 H1316 0.930 . S
C1326 C1324 1.419 . S
C1326 C1327 1.362 . S
C1327 H1317 0.930 . S
C1327 C1320 1.409 1_455 S
C1327 C1326 1.362 . S
H1328 C1334 0.930 . S
H1329 C1337 0.930 . S
H1330 C1338 0.930 . S
H1331 C1339 0.930 . S
H1332 C1342 0.930 . S
H1333 C1343 0.930 . S
C1334 H1328 0.930 . S
C1334 C1335 1.355 . S
C1334 C1336 1.415 . S
C1335 C1334 1.355 . S
C1335 C1337 1.419 . S
C1336 C1334 1.415 . S
C1336 C1341 1.425 1_545 S
C1336 C1343 1.409 1_545 S
C1337 H1329 0.930 . S
C1337 C1335 1.419 . S
C1337 C1338 1.362 . S
C1338 H1330 0.930 . S
C1338 C1337 1.362 . S
C1338 C1341 1.409 1_545 S
C1339 H1331 0.930 . S
C1339 C1340 1.355 . S
C1339 C1341 1.415 . S
C1340 C1339 1.355 . S
C1340 C1342 1.419 . S
C1341 C1336 1.425 1_565 S
C1341 C1338 1.409 1_565 S
C1341 C1339 1.415 . S
C1342 H1332 0.930 . S
C1342 C1340 1.419 . S
C1342 C1343 1.362 . S
C1343 H1333 0.930 . S
C1343 C1336 1.409 1_565 S
C1343 C1342 1.362 . S
H1344 C1350 0.930 . S
H1345 C1353 0.930 . S
H1346 C1354 0.930 . S
H1347 C1355 0.930 . S
H1348 C1358 0.930 . S
H1349 C1359 0.930 . S
C1350 H1344 0.930 . S
C1350 C1351 1.355 . S
C1350 C1352 1.415 . S
C1351 C1350 1.355 . S
C1351 C1353 1.419 . S
C1352 C1350 1.415 . S
C1352 C1357 1.425 . S
C1352 C1359 1.409 . S
C1353 H1345 0.930 . S
C1353 C1351 1.419 . S
C1353 C1354 1.362 . S
C1354 H1346 0.930 . S
C1354 C1353 1.362 . S
C1354 C1357 1.409 . S
C1355 H1347 0.930 . S
C1355 C1356 1.355 . S
C1355 C1357 1.415 . S
C1356 C1355 1.355 . S
C1356 C1358 1.419 . S
C1357 C1352 1.425 . S
C1357 C1354 1.409 . S
C1357 C1355 1.415 . S
C1358 H1348 0.930 . S
C1358 C1356 1.419 . S
C1358 C1359 1.362 . S
C1359 H1349 0.930 . S
C1359 C1352 1.409 . S
C1359 C1358 1.362 . S
H1360 C1366 0.930 . S
H1361 C1369 0.930 . S
H1362 C1370 0.930 . S
H1363 C1371 0.930 . S
H1364 C1374 0.930 . S
H1365 C1375 0.930 . S
C1366 H1360 0.930 . S
C1366 C1367 1.355 . S
C1366 C1368 1.415 . S
C1367 C1366 1.355 . S
C1367 C1369 1.419 . S
C1368 C1366 1.415 . S
C1368 C1373 1.425 1_655 S
C1368 C1375 1.409 1_655 S
C1369 H1361 0.930 . S
C1369 C1367 1.419 . S
C1369 C1370 1.362 . S
C1370 H1362 0.930 . S
C1370 C1369 1.362 . S
C1370 C1373 1.409 1_655 S
C1371 H1363 0.930 . S
C1371 C1372 1.355 . S
C1371 C1373 1.415 . S
C1372 C1371 1.355 . S
C1372 C1374 1.419 . S
C1373 C1368 1.425 1_455 S
C1373 C1370 1.409 1_455 S
C1373 C1371 1.415 . S
C1374 H1364 0.930 . S
C1374 C1372 1.419 . S
C1374 C1375 1.362 . S
C1375 H1365 0.930 . S
C1375 C1368 1.409 1_455 S
C1375 C1374 1.362 . S
H1376 C1382 0.930 . S
H1377 C1385 0.930 . S
H1378 C1386 0.930 . S
H1379 C1387 0.930 . S
H1380 C1390 0.930 . S
H1381 C1391 0.930 . S
C1382 H1376 0.930 . S
C1382 C1383 1.355 . S
C1382 C1384 1.415 . S
C1383 C1382 1.355 . S
C1383 C1385 1.419 . S
C1384 C1382 1.415 . S
C1384 C1389 1.425 1_545 S
C1384 C1391 1.409 1_545 S
C1385 H1377 0.930 . S
C1385 C1383 1.419 . S
C1385 C1386 1.362 . S
C1386 H1378 0.930 . S
C1386 C1385 1.362 . S
C1386 C1389 1.409 1_545 S
C1387 H1379 0.930 . S
C1387 C1388 1.355 . S
C1387 C1389 1.415 . S
C1388 C1387 1.355 . S
C1388 C1390 1.419 . S
C1389 C1384 1.425 1_565 S
C1389 C1386 1.409 1_565 S
C1389 C1387 1.415 . S
C1390 H1380 0.930 . S
C1390 C1388 1.419 . S
C1390 C1391 1.362 . S
C1391 H1381 0.930 . S
C1391 C1384 1.409 1_565 S
C1391 C1390 1.362 . S
H1392 C1398 0.930 . S
H1393 C1401 0.930 . S
H1394 C1402 0.930 . S
H1395 C1403 0.930 . S
H1396 C1406 0.930 . S
H1397 C1407 0.930 . S
C1398 H1392 0.930 . S
C1398 C1399 1.355 . S
C1398 C1400 1.415 . S
C1399 C1398 1.355 . S
C1399 C1401 1.419 . S
C1400 C1398 1.415 . S
C1400 C1405 1.425 . S
C1400 C1407 1.409 . S
C1401 H1393 0.930 . S
C1401 C1399 1.419 . S
C1401 C1402 1.362 . S
C1402 H1394 0.930 . S
C1402 C1401 1.362 . S
C1402 C1405 1.409 . S
C1403 H1395 0.930 . S
C1403 C1404 1.355 . S
C1403 C1405 1.415 . S
C1404 C1403 1.355 . S
C1404 C1406 1.419 . S
C1405 C1400 1.425 . S
C1405 C1402 1.409 . S
C1405 C1403 1.415 . S
C1406 H1396 0.930 . S
C1406 C1404 1.419 . S
C1406 C1407 1.362 . S
C1407 H1397 0.930 . S
C1407 C1400 1.409 . S
C1407 C1406 1.362 . S
H1408 C1414 0.930 . S
H1409 C1417 0.930 . S
H1410 C1418 0.930 . S
H1411 C1419 0.930 . S
H1412 C1422 0.930 . S
H1413 C1423 0.930 . S
C1414 H1408 0.930 . S
C1414 C1415 1.355 . S
C1414 C1416 1.415 . S
C1415 C1414 1.355 . S
C1415 C1417 1.419 . S
C1416 C1414 1.415 . S
C1416 C1421 1.425 1_455 S
C1416 C1423 1.409 1_455 S
C1417 H1409 0.930 . S
C1417 C1415 1.419 . S
C1417 C1418 1.362 . S
C1418 H1410 0.930 . S
C1418 C1417 1.362 . S
C1418 C1421 1.409 1_455 S
C1419 H1411 0.930 . S
C1419 C1420 1.355 . S
C1419 C1421 1.415 . S
C1420 C1419 1.355 . S
C1420 C1422 1.419 . S
C1421 C1416 1.425 1_655 S
C1421 C1418 1.409 1_655 S
C1421 C1419 1.415 . S
C1422 H1412 0.930 . S
C1422 C1420 1.419 . S
C1422 C1423 1.362 . S
C1423 H1413 0.930 . S
C1423 C1416 1.409 1_655 S
C1423 C1422 1.362 . S
H1424 C1430 0.930 . S
H1425 C1433 0.930 . S
H1426 C1434 0.930 . S
H1427 C1435 0.930 . S
H1428 C1438 0.930 . S
H1429 C1439 0.930 . S
C1430 H1424 0.930 . S
C1430 C1431 1.355 . S
C1430 C1432 1.415 . S
C1431 C1430 1.355 . S
C1431 C1433 1.419 . S
C1432 C1430 1.415 . S
C1432 C1437 1.425 1_565 S
C1432 C1439 1.409 1_565 S
C1433 H1425 0.930 . S
C1433 C1431 1.419 . S
C1433 C1434 1.362 . S
C1434 H1426 0.930 . S
C1434 C1433 1.362 . S
C1434 C1437 1.409 1_565 S
C1435 H1427 0.930 . S
C1435 C1436 1.355 . S
C1435 C1437 1.415 . S
C1436 C1435 1.355 . S
C1436 C1438 1.419 . S
C1437 C1432 1.425 1_545 S
C1437 C1434 1.409 1_545 S
C1437 C1435 1.415 . S
C1438 H1428 0.930 . S
C1438 C1436 1.419 . S
C1438 C1439 1.362 . S
C1439 H1429 0.930 . S
C1439 C1432 1.409 1_545 S
C1439 C1438 1.362 . S
H1440 C1446 0.930 . S
H1441 C1449 0.928 1_554 S
H1442 C1450 0.930 . S
H1443 C1451 0.930 . S
H1444 C1454 0.928 1_556 S
H1445 C1455 0.930 . S
C1446 H1440 0.930 . S
C1446 C1447 1.355 . S
C1446 C1448 1.415 . S
C1447 C1446 1.355 . S
C1447 C1449 1.430 . S
C1448 C1446 1.415 . S
C1448 C1453 1.425 1_556 S
C1448 C1455 1.409 . S
C1449 H1441 0.928 1_556 S
C1449 C1447 1.430 . S
C1449 C1450 1.354 1_556 S
C1450 H1442 0.930 . S
C1450 C1449 1.354 1_554 S
C1450 C1453 1.409 . S
C1451 H1443 0.930 . S
C1451 C1452 1.355 . S
C1451 C1453 1.415 . S
C1452 C1451 1.355 . S
C1452 C1454 1.430 . S
C1453 C1448 1.425 1_554 S
C1453 C1450 1.409 . S
C1453 C1451 1.415 . S
C1454 H1444 0.928 1_554 S
C1454 C1452 1.430 . S
C1454 C1455 1.354 1_554 S
C1455 H1445 0.930 . S
C1455 C1448 1.409 . S
C1455 C1454 1.354 1_556 S
H1456 C1462 0.930 . S
H1457 C1465 0.930 . S
H1458 C1466 0.930 . S
H1459 C1467 0.930 . S
H1460 C1470 0.930 . S
H1461 C1471 0.930 . S
C1462 H1456 0.930 . S
C1462 C1463 1.355 . S
C1462 C1464 1.415 . S
C1463 C1462 1.355 . S
C1463 C1465 1.419 . S
C1464 C1462 1.415 . S
C1464 C1469 1.425 . S
C1464 C1471 1.409 . S
C1465 H1457 0.930 . S
C1465 C1463 1.419 . S
C1465 C1466 1.362 . S
C1466 H1458 0.930 . S
C1466 C1465 1.362 . S
C1466 C1469 1.409 . S
C1467 H1459 0.930 . S
C1467 C1468 1.355 . S
C1467 C1469 1.415 . S
C1468 C1467 1.355 . S
C1468 C1470 1.419 . S
C1469 C1464 1.425 . S
C1469 C1466 1.409 . S
C1469 C1467 1.415 . S
C1470 H1460 0.930 . S
C1470 C1468 1.419 . S
C1470 C1471 1.362 . S
C1471 H1461 0.930 . S
C1471 C1464 1.409 . S
C1471 C1470 1.362 . S
H1472 C1478 0.930 . S
H1473 C1481 0.930 . S
H1474 C1482 0.930 . S
H1475 C1483 0.930 . S
H1476 C1486 0.930 . S
H1477 C1487 0.930 . S
C1478 H1472 0.930 . S
C1478 C1479 1.355 1_554 S
C1478 C1480 1.415 . S
C1479 C1478 1.355 1_556 S
C1479 C1481 1.419 . S
C1480 C1478 1.415 . S
C1480 C1485 1.425 1_554 S
C1480 C1487 1.409 . S
C1481 H1473 0.930 . S
C1481 C1479 1.419 . S
C1481 C1482 1.362 . S
C1482 H1474 0.930 . S
C1482 C1481 1.362 . S
C1482 C1485 1.409 . S
C1483 H1475 0.930 . S
C1483 C1484 1.355 1_556 S
C1483 C1485 1.415 . S
C1484 C1483 1.355 1_554 S
C1484 C1486 1.419 . S
C1485 C1480 1.425 1_556 S
C1485 C1482 1.409 . S
C1485 C1483 1.415 . S
C1486 H1476 0.930 . S
C1486 C1484 1.419 . S
C1486 C1487 1.362 . S
C1487 H1477 0.930 . S
C1487 C1480 1.409 . S
C1487 C1486 1.362 . S
H1488 C1494 0.930 . S
H1489 C1497 0.930 . S
H1490 C1498 0.930 . S
H1491 C1499 0.930 . S
H1492 C1502 0.930 . S
H1493 C1503 0.930 . S
C1494 H1488 0.930 . S
C1494 C1495 1.355 . S
C1494 C1496 1.415 . S
C1495 C1494 1.355 . S
C1495 C1497 1.419 . S
C1496 C1494 1.415 . S
C1496 C1501 1.425 . S
C1496 C1503 1.409 . S
C1497 H1489 0.930 . S
C1497 C1495 1.419 . S
C1497 C1498 1.362 . S
C1498 H1490 0.930 . S
C1498 C1497 1.362 . S
C1498 C1501 1.409 . S
C1499 H1491 0.930 . S
C1499 C1500 1.355 . S
C1499 C1501 1.415 . S
C1500 C1499 1.355 . S
C1500 C1502 1.419 . S
C1501 C1496 1.425 . S
C1501 C1498 1.409 . S
C1501 C1499 1.415 . S
C1502 H1492 0.930 . S
C1502 C1500 1.419 . S
C1502 C1503 1.362 . S
C1503 H1493 0.930 . S
C1503 C1496 1.409 . S
C1503 C1502 1.362 . S
H1504 C1510 0.930 . S
H1505 C1513 0.930 . S
H1506 C1514 0.930 . S
H1507 C1515 0.930 . S
H1508 C1518 0.930 . S
H1509 C1519 0.930 . S
C1510 H1504 0.930 . S
C1510 C1511 1.355 . S
C1510 C1512 1.417 . S
C1511 C1510 1.355 . S
C1511 C1513 1.419 . S
C1512 C1510 1.417 . S
C1512 C1517 1.425 1_556 S
C1512 C1519 1.407 1_556 S
C1513 H1505 0.930 . S
C1513 C1511 1.419 . S
C1513 C1514 1.362 . S
C1514 H1506 0.930 . S
C1514 C1513 1.362 . S
C1514 C1517 1.407 1_556 S
C1515 H1507 0.930 . S
C1515 C1516 1.355 . S
C1515 C1517 1.417 . S
C1516 C1515 1.355 . S
C1516 C1518 1.419 . S
C1517 C1512 1.425 1_554 S
C1517 C1514 1.407 1_554 S
C1517 C1515 1.417 . S
C1518 H1508 0.930 . S
C1518 C1516 1.419 . S
C1518 C1519 1.362 . S
C1519 H1509 0.930 . S
C1519 C1512 1.407 1_554 S
C1519 C1518 1.362 . S
H1520 C1526 0.930 . S
H1521 C1529 0.930 . S
H1522 C1530 0.930 . S
H1523 C1531 0.930 . S
H1524 C1534 0.930 . S
H1525 C1535 0.930 . S
C1526 H1520 0.930 . S
C1526 C1527 1.355 . S
C1526 C1528 1.415 . S
C1527 C1526 1.355 . S
C1527 C1529 1.419 . S
C1528 C1526 1.415 . S
C1528 C1533 1.425 . S
C1528 C1535 1.409 . S
C1529 H1521 0.930 . S
C1529 C1527 1.419 . S
C1529 C1530 1.362 . S
C1530 H1522 0.930 . S
C1530 C1529 1.362 . S
C1530 C1533 1.409 . S
C1531 H1523 0.930 . S
C1531 C1532 1.355 . S
C1531 C1533 1.415 . S
C1532 C1531 1.355 . S
C1532 C1534 1.419 . S
C1533 C1528 1.425 . S
C1533 C1530 1.409 . S
C1533 C1531 1.415 . S
C1534 H1524 0.930 . S
C1534 C1532 1.419 . S
C1534 C1535 1.362 . S
C1535 H1525 0.930 . S
C1535 C1528 1.409 . S
C1535 C1534 1.362 . S
H1536 C1542 0.930 . S
H1537 C1545 0.930 . S
H1538 C1546 0.930 . S
H1539 C1547 0.930 . S
H1540 C1550 0.930 . S
H1541 C1551 0.930 . S
C1542 H1536 0.930 . S
C1542 C1543 1.355 . S
C1542 C1544 1.415 . S
C1543 C1542 1.355 . S
C1543 C1545 1.419 . S
C1544 C1542 1.415 . S
C1544 C1549 1.425 1_554 S
C1544 C1551 1.409 . S
C1545 H1537 0.930 . S
C1545 C1543 1.419 . S
C1545 C1546 1.362 1_554 S
C1546 H1538 0.930 . S
C1546 C1545 1.362 1_556 S
C1546 C1549 1.409 . S
C1547 H1539 0.930 . S
C1547 C1548 1.355 . S
C1547 C1549 1.415 . S
C1548 C1547 1.355 . S
C1548 C1550 1.419 . S
C1549 C1544 1.425 1_556 S
C1549 C1546 1.409 . S
C1549 C1547 1.415 . S
C1550 H1540 0.930 . S
C1550 C1548 1.419 . S
C1550 C1551 1.362 1_556 S
C1551 H1541 0.930 . S
C1551 C1544 1.409 . S
C1551 C1550 1.362 1_554 S
H1552 C1558 0.930 . S
H1553 C1561 0.930 . S
H1554 C1562 0.930 . S
H1555 C1563 0.930 . S
H1556 C1566 0.930 . S
H1557 C1567 0.930 . S
C1558 H1552 0.930 . S
C1558 C1559 1.355 . S
C1558 C1560 1.415 . S
C1559 C1558 1.355 . S
C1559 C1561 1.419 . S
C1560 C1558 1.415 . S
C1560 C1565 1.425 . S
C1560 C1567 1.409 . S
C1561 H1553 0.930 . S
C1561 C1559 1.419 . S
C1561 C1562 1.362 . S
C1562 H1554 0.930 . S
C1562 C1561 1.362 . S
C1562 C1565 1.409 . S
C1563 H1555 0.930 . S
C1563 C1564 1.355 . S
C1563 C1565 1.415 . S
C1564 C1563 1.355 . S
C1564 C1566 1.419 . S
C1565 C1560 1.425 . S
C1565 C1562 1.409 . S
C1565 C1563 1.415 . S
C1566 H1556 0.930 . S
C1566 C1564 1.419 . S
C1566 C1567 1.362 . S
C1567 H1557 0.930 . S
C1567 C1560 1.409 . S
C1567 C1566 1.362 . S
H1568 C1574 0.930 1_556 S
H1569 C1577 0.930 . S
H1570 C1578 0.930 . S
H1571 C1579 0.930 1_554 S
H1572 C1582 0.930 . S
H1573 C1583 0.930 . S
C1574 H1568 0.930 1_554 S
C1574 C1575 1.355 . S
C1574 C1576 1.415 1_554 S
C1575 C1574 1.355 . S
C1575 C1577 1.419 . S
C1576 C1574 1.415 1_556 S
C1576 C1581 1.425 1_556 S
C1576 C1583 1.409 . S
C1577 H1569 0.930 . S
C1577 C1575 1.419 . S
C1577 C1578 1.362 . S
C1578 H1570 0.930 . S
C1578 C1577 1.362 . S
C1578 C1581 1.409 . S
C1579 H1571 0.930 1_556 S
C1579 C1580 1.355 . S
C1579 C1581 1.415 1_556 S
C1580 C1579 1.355 . S
C1580 C1582 1.419 . S
C1581 C1576 1.425 1_554 S
C1581 C1578 1.409 . S
C1581 C1579 1.415 1_554 S
C1582 H1572 0.930 . S
C1582 C1580 1.419 . S
C1582 C1583 1.362 . S
C1583 H1573 0.930 . S
C1583 C1576 1.409 . S
C1583 C1582 1.362 . S
H1584 C1590 0.930 . S
H1585 C1593 0.930 . S
H1586 C1594 0.930 . S
H1587 C1595 0.930 . S
H1588 C1598 0.930 . S
H1589 C1599 0.930 . S
C1590 H1584 0.930 . S
C1590 C1591 1.355 . S
C1590 C1592 1.415 . S
C1591 C1590 1.355 . S
C1591 C1593 1.419 . S
C1592 C1590 1.415 . S
C1592 C1597 1.425 . S
C1592 C1599 1.409 . S
C1593 H1585 0.930 . S
C1593 C1591 1.419 . S
C1593 C1594 1.362 . S
C1594 H1586 0.930 . S
C1594 C1593 1.362 . S
C1594 C1597 1.409 . S
C1595 H1587 0.930 . S
C1595 C1596 1.355 . S
C1595 C1597 1.415 . S
C1596 C1595 1.355 . S
C1596 C1598 1.419 . S
C1597 C1592 1.425 . S
C1597 C1594 1.409 . S
C1597 C1595 1.415 . S
C1598 H1588 0.930 . S
C1598 C1596 1.419 . S
C1598 C1599 1.362 . S
C1599 H1589 0.930 . S
C1599 C1592 1.409 . S
C1599 C1598 1.362 . S
H1600 C1606 0.930 . S
H1601 C1609 0.930 . S
H1602 C1610 0.930 . S
H1603 C1611 0.930 . S
H1604 C1614 0.930 . S
H1605 C1615 0.930 . S
C1606 H1600 0.930 . S
C1606 C1607 1.355 . S
C1606 C1608 1.415 . S
C1607 C1606 1.355 . S
C1607 C1609 1.419 . S
C1608 C1606 1.415 . S
C1608 C1613 1.425 1_556 S
C1608 C1615 1.409 . S
C1609 H1601 0.930 . S
C1609 C1607 1.419 . S
C1609 C1610 1.362 1_556 S
C1610 H1602 0.930 . S
C1610 C1609 1.362 1_554 S
C1610 C1613 1.409 . S
C1611 H1603 0.930 . S
C1611 C1612 1.355 . S
C1611 C1613 1.415 . S
C1612 C1611 1.355 . S
C1612 C1614 1.419 . S
C1613 C1608 1.425 1_554 S
C1613 C1610 1.409 . S
C1613 C1611 1.415 . S
C1614 H1604 0.930 . S
C1614 C1612 1.419 . S
C1614 C1615 1.362 1_554 S
C1615 H1605 0.930 . S
C1615 C1608 1.409 . S
C1615 C1614 1.362 1_556 S
H1616 C1622 0.930 . S
H1617 C1625 0.930 . S
H1618 C1626 0.930 . S
H1619 C1627 0.930 . S
H1620 C1630 0.930 . S
H1621 C1631 0.930 . S
C1622 H1616 0.930 . S
C1622 C1623 1.355 . S
C1622 C1624 1.415 . S
C1623 C1622 1.355 . S
C1623 C1625 1.419 . S
C1624 C1622 1.415 . S
C1624 C1629 1.425 . S
C1624 C1631 1.409 . S
C1625 H1617 0.930 . S
C1625 C1623 1.419 . S
C1625 C1626 1.362 . S
C1626 H1618 0.930 . S
C1626 C1625 1.362 . S
C1626 C1629 1.409 . S
C1627 H1619 0.930 . S
C1627 C1628 1.355 . S
C1627 C1629 1.415 . S
C1628 C1627 1.355 . S
C1628 C1630 1.419 . S
C1629 C1624 1.425 . S
C1629 C1626 1.409 . S
C1629 C1627 1.415 . S
C1630 H1620 0.930 . S
C1630 C1628 1.419 . S
C1630 C1631 1.362 . S
C1631 H1621 0.930 . S
C1631 C1624 1.409 . S
C1631 C1630 1.362 . S
C871 C14 1.391 . S
C876 C554 1.388 . S
C887 C50 1.400 . S
C892 C590 1.378 . S
C903 C626 1.351 . S
C908 C86 1.427 . S
C919 C446 1.349 . S
C924 C122 1.428 . S
C935 C482 1.434 . S
C940 C158 1.343 . S
C951 C518 1.412 . S
C956 C194 1.366 . S
C967 C770 1.359 . S
C972 C230 1.419 . S
C983 C266 1.393 . S
C988 C806 1.385 . S
C999 C842 1.398 . S
C1004 C302 1.381 . S
C1015 C338 1.343 . S
C1020 C662 1.434 . S
C1031 C698 1.348 . S
C1036 C374 1.429 . S
C1047 C410 1.433 . S
C1052 C734 1.345 . S
C1063 C363 1.309 . S
C1068 C3 1.310 . S
C1079 C399 1.315 . S
C1084 C39 1.315 . S
C1095 C75 1.308 . S
C1100 C219 1.308 . S
C1111 C111 1.312 . S
C1116 C255 1.311 . S
C1127 C291 1.316 . S
C1132 C147 1.317 . S
C1143 C183 1.313 . S
C1148 C327 1.312 . S
C1159 C795 1.308 . S
C1164 C435 1.309 . S
C1175 C471 1.309 . S
C1180 C831 1.309 . S
C1191 C507 1.308 . S
C1196 C651 1.308 . S
C1207 C687 1.308 . S
C1212 C543 1.308 . S
C1223 C579 1.314 . S
C1228 C723 1.312 . S
C1239 C615 1.315 . S
C1244 C759 1.313 . S
C1255 C4 1.410 . S
C1260 C652 1.358 . S
C1271 C688 1.411 . S
C1276 C40 1.358 . S
C1287 C76 1.391 . S
C1292 C724 1.379 . S
C1303 C112 1.359 . S
C1308 C760 1.410 . S
C1319 C796 1.410 . S
C1324 C148 1.359 . S
C1335 C184 1.399 . S
C1340 C832 1.370 . S
C1351 C220 1.358 . S
C1356 C436 1.410 . S
C1367 C256 1.405 . S
C1372 C472 1.364 . S
C1383 C508 1.409 . S
C1388 C292 1.360 . S
C1399 C544 1.385 . S
C1404 C328 1.385 . S
C1415 C364 1.370 . S
C1420 C580 1.399 . S
C1431 C616 1.409 . S
C1436 C400 1.360 . S
C1447 C218 1.469 . S
C1452 C2 1.483 . S
C1463 C38 1.484 . S
C1468 C254 1.469 . S
C1479 C290 1.487 . S
C1484 C74 1.495 . S
C1495 C326 1.491 . S
C1500 C110 1.493 . S
C1511 C362 1.470 . S
C1516 C146 1.494 . S
C1527 C182 1.485 . S
C1532 C398 1.469 . S
C1543 C650 1.472 . S
C1548 C434 1.496 . S
C1559 C470 1.477 . S
C1564 C686 1.498 . S
C1575 C722 1.488 . S
C1580 C506 1.495 . S
C1591 C758 1.472 . S
C1596 C542 1.479 . S
C1607 C578 1.470 . S
C1612 C794 1.495 . S
C1623 C614 1.497 . S
C1628 C830 1.485 . S
