# Generated by pormake.
# Topology whq, (6)-cn, num edge types: 1
# Building blocks:
#     Node 0, Type 0, BuildingBlock: OJICUG_clean_sbu_0, # of connection points: 6
#     Node 1, Type 0, BuildingBlock: OJICUG_clean_sbu_0, # of connection points: 6
#     Node 2, Type 0, BuildingBlock: OJICUG_clean_sbu_0, # of connection points: 6
#     Node 3, Type 0, BuildingBlock: OJICUG_clean_sbu_0, # of connection points: 6
#     Node 4, Type 0, BuildingBlock: OJICUG_clean_sbu_0, # of connection points: 6
#     Node 5, Type 0, BuildingBlock: OJICUG_clean_sbu_0, # of connection points: 6
#     Node 6, Type 0, BuildingBlock: OJICUG_clean_sbu_0, # of connection points: 6
#     Node 7, Type 0, BuildingBlock: OJICUG_clean_sbu_0, # of connection points: 6
#     Node 8, Type 0, BuildingBlock: OJICUG_clean_sbu_0, # of connection points: 6
#     Node 9, Type 0, BuildingBlock: OJICUG_clean_sbu_0, # of connection points: 6
#     Node 10, Type 0, BuildingBlock: OJICUG_clean_sbu_0, # of connection points: 6
#     Node 11, Type 0, BuildingBlock: OJICUG_clean_sbu_0, # of connection points: 6
#     Node 12, Type 0, BuildingBlock: OJICUG_clean_sbu_0, # of connection points: 6
#     Node 13, Type 0, BuildingBlock: OJICUG_clean_sbu_0, # of connection points: 6
#     Node 14, Type 0, BuildingBlock: OJICUG_clean_sbu_0, # of connection points: 6
#     Node 15, Type 0, BuildingBlock: OJICUG_clean_sbu_0, # of connection points: 6
#     Node 16, Type 0, BuildingBlock: OJICUG_clean_sbu_0, # of connection points: 6
#     Node 17, Type 0, BuildingBlock: OJICUG_clean_sbu_0, # of connection points: 6
#     Node 18, Type 0, BuildingBlock: OJICUG_clean_sbu_0, # of connection points: 6
#     Node 19, Type 0, BuildingBlock: OJICUG_clean_sbu_0, # of connection points: 6
#     Node 20, Type 0, BuildingBlock: OJICUG_clean_sbu_0, # of connection points: 6
#     Node 21, Type 0, BuildingBlock: OJICUG_clean_sbu_0, # of connection points: 6
#     Node 22, Type 0, BuildingBlock: OJICUG_clean_sbu_0, # of connection points: 6
#     Node 23, Type 0, BuildingBlock: OJICUG_clean_sbu_0, # of connection points: 6
#     Node 24, Type 0, BuildingBlock: OJICUG_clean_sbu_0, # of connection points: 6
#     Node 25, Type 0, BuildingBlock: OJICUG_clean_sbu_0, # of connection points: 6
#     Node 26, Type 0, BuildingBlock: OJICUG_clean_sbu_0, # of connection points: 6
#     Node 27, Type 0, BuildingBlock: OJICUG_clean_sbu_0, # of connection points: 6
#     Node 28, Type 0, BuildingBlock: OJICUG_clean_sbu_0, # of connection points: 6
#     Node 29, Type 0, BuildingBlock: OJICUG_clean_sbu_0, # of connection points: 6
#     Node 30, Type 0, BuildingBlock: OJICUG_clean_sbu_0, # of connection points: 6
#     Node 31, Type 0, BuildingBlock: OJICUG_clean_sbu_0, # of connection points: 6
#     Edge 32, Type (0, 0), BuildingBlock: CIFDUS_clean_linker_0, # of connection points: 2
#     Edge 33, Type (0, 0), BuildingBlock: CIFDUS_clean_linker_0, # of connection points: 2
#     Edge 34, Type (0, 0), BuildingBlock: CIFDUS_clean_linker_0, # of connection points: 2
#     Edge 35, Type (0, 0), BuildingBlock: CIFDUS_clean_linker_0, # of connection points: 2
#     Edge 36, Type (0, 0), BuildingBlock: CIFDUS_clean_linker_0, # of connection points: 2
#     Edge 37, Type (0, 0), BuildingBlock: CIFDUS_clean_linker_0, # of connection points: 2
#     Edge 38, Type (0, 0), BuildingBlock: CIFDUS_clean_linker_0, # of connection points: 2
#     Edge 39, Type (0, 0), BuildingBlock: CIFDUS_clean_linker_0, # of connection points: 2
#     Edge 40, Type (0, 0), BuildingBlock: CIFDUS_clean_linker_0, # of connection points: 2
#     Edge 41, Type (0, 0), BuildingBlock: CIFDUS_clean_linker_0, # of connection points: 2
#     Edge 42, Type (0, 0), BuildingBlock: CIFDUS_clean_linker_0, # of connection points: 2
#     Edge 43, Type (0, 0), BuildingBlock: CIFDUS_clean_linker_0, # of connection points: 2
#     Edge 44, Type (0, 0), BuildingBlock: CIFDUS_clean_linker_0, # of connection points: 2
#     Edge 45, Type (0, 0), BuildingBlock: CIFDUS_clean_linker_0, # of connection points: 2
#     Edge 46, Type (0, 0), BuildingBlock: CIFDUS_clean_linker_0, # of connection points: 2
#     Edge 47, Type (0, 0), BuildingBlock: CIFDUS_clean_linker_0, # of connection points: 2
#     Edge 48, Type (0, 0), BuildingBlock: CIFDUS_clean_linker_0, # of connection points: 2
#     Edge 49, Type (0, 0), BuildingBlock: CIFDUS_clean_linker_0, # of connection points: 2
#     Edge 50, Type (0, 0), BuildingBlock: CIFDUS_clean_linker_0, # of connection points: 2
#     Edge 51, Type (0, 0), BuildingBlock: CIFDUS_clean_linker_0, # of connection points: 2
#     Edge 52, Type (0, 0), BuildingBlock: CIFDUS_clean_linker_0, # of connection points: 2
#     Edge 53, Type (0, 0), BuildingBlock: CIFDUS_clean_linker_0, # of connection points: 2
#     Edge 54, Type (0, 0), BuildingBlock: CIFDUS_clean_linker_0, # of connection points: 2
#     Edge 55, Type (0, 0), BuildingBlock: CIFDUS_clean_linker_0, # of connection points: 2
#     Edge 56, Type (0, 0), BuildingBlock: CIFDUS_clean_linker_0, # of connection points: 2
#     Edge 57, Type (0, 0), BuildingBlock: CIFDUS_clean_linker_0, # of connection points: 2
#     Edge 58, Type (0, 0), BuildingBlock: CIFDUS_clean_linker_0, # of connection points: 2
#     Edge 59, Type (0, 0), BuildingBlock: CIFDUS_clean_linker_0, # of connection points: 2
#     Edge 60, Type (0, 0), BuildingBlock: CIFDUS_clean_linker_0, # of connection points: 2
#     Edge 61, Type (0, 0), BuildingBlock: CIFDUS_clean_linker_0, # of connection points: 2
#     Edge 62, Type (0, 0), BuildingBlock: CIFDUS_clean_linker_0, # of connection points: 2
#     Edge 63, Type (0, 0), BuildingBlock: CIFDUS_clean_linker_0, # of connection points: 2
#     Edge 64, Type (0, 0), BuildingBlock: CIFDUS_clean_linker_0, # of connection points: 2
#     Edge 65, Type (0, 0), BuildingBlock: CIFDUS_clean_linker_0, # of connection points: 2
#     Edge 66, Type (0, 0), BuildingBlock: CIFDUS_clean_linker_0, # of connection points: 2
#     Edge 67, Type (0, 0), BuildingBlock: CIFDUS_clean_linker_0, # of connection points: 2
#     Edge 68, Type (0, 0), BuildingBlock: CIFDUS_clean_linker_0, # of connection points: 2
#     Edge 69, Type (0, 0), BuildingBlock: CIFDUS_clean_linker_0, # of connection points: 2
#     Edge 70, Type (0, 0), BuildingBlock: CIFDUS_clean_linker_0, # of connection points: 2
#     Edge 71, Type (0, 0), BuildingBlock: CIFDUS_clean_linker_0, # of connection points: 2
#     Edge 72, Type (0, 0), BuildingBlock: CIFDUS_clean_linker_0, # of connection points: 2
#     Edge 73, Type (0, 0), BuildingBlock: CIFDUS_clean_linker_0, # of connection points: 2
#     Edge 74, Type (0, 0), BuildingBlock: CIFDUS_clean_linker_0, # of connection points: 2
#     Edge 75, Type (0, 0), BuildingBlock: CIFDUS_clean_linker_0, # of connection points: 2
#     Edge 76, Type (0, 0), BuildingBlock: CIFDUS_clean_linker_0, # of connection points: 2
#     Edge 77, Type (0, 0), BuildingBlock: CIFDUS_clean_linker_0, # of connection points: 2
#     Edge 78, Type (0, 0), BuildingBlock: CIFDUS_clean_linker_0, # of connection points: 2
#     Edge 79, Type (0, 0), BuildingBlock: CIFDUS_clean_linker_0, # of connection points: 2
#     Edge 80, Type (0, 0), BuildingBlock: CIFDUS_clean_linker_0, # of connection points: 2
#     Edge 81, Type (0, 0), BuildingBlock: CIFDUS_clean_linker_0, # of connection points: 2
#     Edge 82, Type (0, 0), BuildingBlock: CIFDUS_clean_linker_0, # of connection points: 2
#     Edge 83, Type (0, 0), BuildingBlock: CIFDUS_clean_linker_0, # of connection points: 2
#     Edge 84, Type (0, 0), BuildingBlock: CIFDUS_clean_linker_0, # of connection points: 2
#     Edge 85, Type (0, 0), BuildingBlock: CIFDUS_clean_linker_0, # of connection points: 2
#     Edge 86, Type (0, 0), BuildingBlock: CIFDUS_clean_linker_0, # of connection points: 2
#     Edge 87, Type (0, 0), BuildingBlock: CIFDUS_clean_linker_0, # of connection points: 2
#     Edge 88, Type (0, 0), BuildingBlock: CIFDUS_clean_linker_0, # of connection points: 2
#     Edge 89, Type (0, 0), BuildingBlock: CIFDUS_clean_linker_0, # of connection points: 2
#     Edge 90, Type (0, 0), BuildingBlock: CIFDUS_clean_linker_0, # of connection points: 2
#     Edge 91, Type (0, 0), BuildingBlock: CIFDUS_clean_linker_0, # of connection points: 2
#     Edge 92, Type (0, 0), BuildingBlock: CIFDUS_clean_linker_0, # of connection points: 2
#     Edge 93, Type (0, 0), BuildingBlock: CIFDUS_clean_linker_0, # of connection points: 2
#     Edge 94, Type (0, 0), BuildingBlock: CIFDUS_clean_linker_0, # of connection points: 2
#     Edge 95, Type (0, 0), BuildingBlock: CIFDUS_clean_linker_0, # of connection points: 2
#     Edge 96, Type (0, 0), BuildingBlock: CIFDUS_clean_linker_0, # of connection points: 2
#     Edge 97, Type (0, 0), BuildingBlock: CIFDUS_clean_linker_0, # of connection points: 2
#     Edge 98, Type (0, 0), BuildingBlock: CIFDUS_clean_linker_0, # of connection points: 2
#     Edge 99, Type (0, 0), BuildingBlock: CIFDUS_clean_linker_0, # of connection points: 2
#     Edge 100, Type (0, 0), BuildingBlock: CIFDUS_clean_linker_0, # of connection points: 2
#     Edge 101, Type (0, 0), BuildingBlock: CIFDUS_clean_linker_0, # of connection points: 2
#     Edge 102, Type (0, 0), BuildingBlock: CIFDUS_clean_linker_0, # of connection points: 2
#     Edge 103, Type (0, 0), BuildingBlock: CIFDUS_clean_linker_0, # of connection points: 2
#     Edge 104, Type (0, 0), BuildingBlock: CIFDUS_clean_linker_0, # of connection points: 2
#     Edge 105, Type (0, 0), BuildingBlock: CIFDUS_clean_linker_0, # of connection points: 2
#     Edge 106, Type (0, 0), BuildingBlock: CIFDUS_clean_linker_0, # of connection points: 2
#     Edge 107, Type (0, 0), BuildingBlock: CIFDUS_clean_linker_0, # of connection points: 2
#     Edge 108, Type (0, 0), BuildingBlock: CIFDUS_clean_linker_0, # of connection points: 2
#     Edge 109, Type (0, 0), BuildingBlock: CIFDUS_clean_linker_0, # of connection points: 2
#     Edge 110, Type (0, 0), BuildingBlock: CIFDUS_clean_linker_0, # of connection points: 2
#     Edge 111, Type (0, 0), BuildingBlock: CIFDUS_clean_linker_0, # of connection points: 2
#     Edge 112, Type (0, 0), BuildingBlock: CIFDUS_clean_linker_0, # of connection points: 2
#     Edge 113, Type (0, 0), BuildingBlock: CIFDUS_clean_linker_0, # of connection points: 2
#     Edge 114, Type (0, 0), BuildingBlock: CIFDUS_clean_linker_0, # of connection points: 2
#     Edge 115, Type (0, 0), BuildingBlock: CIFDUS_clean_linker_0, # of connection points: 2
#     Edge 116, Type (0, 0), BuildingBlock: CIFDUS_clean_linker_0, # of connection points: 2
#     Edge 117, Type (0, 0), BuildingBlock: CIFDUS_clean_linker_0, # of connection points: 2
#     Edge 118, Type (0, 0), BuildingBlock: CIFDUS_clean_linker_0, # of connection points: 2
#     Edge 119, Type (0, 0), BuildingBlock: CIFDUS_clean_linker_0, # of connection points: 2
#     Edge 120, Type (0, 0), BuildingBlock: CIFDUS_clean_linker_0, # of connection points: 2
#     Edge 121, Type (0, 0), BuildingBlock: CIFDUS_clean_linker_0, # of connection points: 2
#     Edge 122, Type (0, 0), BuildingBlock: CIFDUS_clean_linker_0, # of connection points: 2
#     Edge 123, Type (0, 0), BuildingBlock: CIFDUS_clean_linker_0, # of connection points: 2
#     Edge 124, Type (0, 0), BuildingBlock: CIFDUS_clean_linker_0, # of connection points: 2
#     Edge 125, Type (0, 0), BuildingBlock: CIFDUS_clean_linker_0, # of connection points: 2
#     Edge 126, Type (0, 0), BuildingBlock: CIFDUS_clean_linker_0, # of connection points: 2
#     Edge 127, Type (0, 0), BuildingBlock: CIFDUS_clean_linker_0, # of connection points: 2
# Relax obj value: 0.346
# Max RMSD: 0.215
# Mean RMSD: 0.215
data_MOF--net-whq--node1-OJICUG_clean_sbu_0--edge1-CIFDUS_clean_linker_0
_symmetry_space_group_name_H-M    P1
_symmetry_Int_Tables_number       1
_symmetry_cell_setting            triclinic
loop_
_symmetry_equiv_pos_as_xyz
'x, y, z'
_cell_length_a     45.869129
_cell_length_b     45.831559
_cell_length_c     51.653315
_cell_angle_alpha  89.973362
_cell_angle_beta   89.964755
_cell_angle_gamma 90.022793
loop_
_atom_site_label
_atom_site_type_symbol
_atom_site_fract_x
_atom_site_fract_y
_atom_site_fract_z
_atom_type_partial_charge
Sc0 Sc 0.13191 0.19455 0.11234 0.0
Sc1 Sc 0.06125 0.22583 0.11431 0.0
Sc2 Sc 0.07356 0.15334 0.13351 0.0
O3 O 0.08878 0.19154 0.11988 0.0
C4 C 0.11598 0.12983 0.09202 0.0
C5 C 0.10092 0.22337 0.06319 0.0
C6 C 0.01811 0.17346 0.10112 0.0
C7 C 0.11876 0.25972 0.13098 0.0
C8 C 0.13463 0.15809 0.16289 0.0
C9 C 0.04718 0.20143 0.17111 0.0
O10 O 0.13435 0.15018 0.09654 0.0
O11 O 0.07715 0.23046 0.07467 0.0
O12 O 0.03341 0.15489 0.11301 0.0
O13 O 0.1358 0.23841 0.1269 0.0
O14 O 0.11162 0.14444 0.15661 0.0
O15 O 0.04587 0.22217 0.15447 0.0
O16 O 0.14405 0.17995 0.15039 0.0
O17 O 0.09155 0.25839 0.12715 0.0
O18 O 0.05597 0.17582 0.16579 0.0
O19 O 0.122 0.21043 0.07445 0.0
O20 O 0.09059 0.12985 0.10163 0.0
O21 O 0.02525 0.20013 0.09972 0.0
Sc22 Sc 0.83479 0.04478 0.1291 0.0
Sc23 Sc 0.76288 0.0475 0.10944 0.0
Sc24 Sc 0.80613 0.11112 0.10909 0.0
O25 O 0.80125 0.06807 0.11551 0.0
C26 C 0.83405 0.09999 0.16513 0.0
C27 C 0.78146 0.01669 0.1597 0.0
C28 C 0.74178 0.109 0.13094 0.0
C29 C 0.81109 0.00109 0.08978 0.0
C30 C 0.86938 0.09179 0.09481 0.0
C31 C 0.77016 0.08735 0.05974 0.0
O32 O 0.83675 0.07258 0.16208 0.0
O33 O 0.76183 0.0314 0.14844 0.0
O34 O 0.76642 0.12087 0.12802 0.0
O35 O 0.83262 0.01684 0.09636 0.0
O36 O 0.8474 0.10754 0.08992 0.0
O37 O 0.76182 0.06383 0.07066 0.0
O38 O 0.86803 0.06984 0.10974 0.0
O39 O 0.78483 0.00774 0.09576 0.0
O40 O 0.78506 0.10705 0.07135 0.0
O41 O 0.80752 0.01551 0.15137 0.0
O42 O 0.82667 0.1174 0.14689 0.0
O43 O 0.73605 0.08343 0.1229 0.0
Sc44 Sc 0.87689 0.78546 0.11011 0.0
Sc45 Sc 0.94845 0.75528 0.11338 0.0
Sc46 Sc 0.93372 0.82558 0.13734 0.0
O47 O 0.91974 0.78874 0.12007 0.0
C48 C 0.88816 0.85202 0.09681 0.0
C49 C 0.91088 0.75849 0.0616 0.0
C50 C 0.98738 0.81229 0.10065 0.0
C51 C 0.89058 0.72139 0.13061 0.0
C52 C 0.87334 0.81359 0.16594 0.0
C53 C 0.96716 0.77579 0.16926 0.0
O54 O 0.87376 0.82861 0.09398 0.0
O55 O 0.93422 0.75217 0.07373 0.0
O56 O 0.97009 0.82979 0.11188 0.0
O57 O 0.87406 0.74275 0.12567 0.0
O58 O 0.89898 0.82396 0.1649 0.0
O59 O 0.96476 0.7556 0.15255 0.0
O60 O 0.86132 0.80024 0.14725 0.0
O61 O 0.91787 0.72155 0.12609 0.0
O62 O 0.95854 0.80174 0.16531 0.0
O63 O 0.88866 0.76981 0.07243 0.0
O64 O 0.91009 0.85398 0.11169 0.0
O65 O 0.98345 0.78468 0.10057 0.0
Sc66 Sc 0.21389 0.86905 0.11225 0.0
Sc67 Sc 0.24144 0.94094 0.1111 0.0
Sc68 Sc 0.16824 0.92808 0.12639 0.0
O69 O 0.20793 0.91258 0.1166 0.0
C70 C 0.14693 0.87351 0.09425 0.0
C71 C 0.2412 0.8988 0.06153 0.0
C72 C 0.18784 0.97851 0.08923 0.0
C73 C 0.27798 0.88711 0.13103 0.0
C74 C 0.17863 0.87338 0.16472 0.0
C75 C 0.21228 0.96659 0.16104 0.0
O76 O 0.17068 0.85988 0.09773 0.0
O77 O 0.24764 0.92266 0.07303 0.0
O78 O 0.16774 0.96139 0.09679 0.0
O79 O 0.2578 0.86881 0.12695 0.0
O80 O 0.1655 0.89646 0.15726 0.0
O81 O 0.23576 0.96002 0.14918 0.0
O82 O 0.19841 0.86082 0.15129 0.0
O83 O 0.27527 0.91398 0.12637 0.0
O84 O 0.18721 0.95812 0.15359 0.0
O85 O 0.22896 0.8771 0.07287 0.0
O86 O 0.14375 0.89995 0.10098 0.0
O87 O 0.21444 0.97411 0.09453 0.0
Sc88 Sc 0.05947 0.83301 0.3443 0.0
Sc89 Sc 0.05938 0.75915 0.36048 0.0
Sc90 Sc 0.12586 0.79782 0.35565 0.0
O91 O 0.08176 0.79658 0.35337 0.0
C92 C 0.1127 0.83226 0.30362 0.0
C93 C 0.02656 0.78281 0.31209 0.0
C94 C 0.11718 0.73195 0.33708 0.0
C95 C 0.01564 0.80655 0.38418 0.0
C96 C 0.11106 0.86229 0.37562 0.0
C97 C 0.104 0.76609 0.4075 0.0
O98 O 0.08768 0.84051 0.31156 0.0
O99 O 0.0381 0.7609 0.32325 0.0
O100 O 0.13194 0.75518 0.33937 0.0
O101 O 0.02967 0.82864 0.37613 0.0
O102 O 0.12836 0.84109 0.37199 0.0
O103 O 0.08013 0.75686 0.39773 0.0
O104 O 0.08484 0.86176 0.36797 0.0
O105 O 0.02278 0.78072 0.37813 0.0
O106 O 0.12317 0.78035 0.39464 0.0
O107 O 0.03079 0.80903 0.31925 0.0
O108 O 0.12946 0.81576 0.31688 0.0
O109 O 0.09093 0.73013 0.34428 0.0
Sc110 Sc 0.21305 0.12352 0.36164 0.0
Sc111 Sc 0.24628 0.05396 0.35687 0.0
Sc112 Sc 0.1737 0.06418 0.33782 0.0
O113 O 0.21107 0.08066 0.35224 0.0
C114 C 0.14607 0.11217 0.37512 0.0
C115 C 0.24083 0.08899 0.41 0.0
C116 C 0.19283 0.01148 0.3721 0.0
C117 C 0.27846 0.11347 0.34292 0.0
C118 C 0.18335 0.12324 0.30606 0.0
C119 C 0.22329 0.03377 0.30272 0.0
O120 O 0.16942 0.12685 0.37645 0.0
O121 O 0.24883 0.06692 0.39673 0.0
O122 O 0.17288 0.02887 0.36493 0.0
O123 O 0.25625 0.12883 0.34762 0.0
O124 O 0.17249 0.09799 0.30948 0.0
O125 O 0.24502 0.03995 0.31701 0.0
O126 O 0.19838 0.13653 0.32321 0.0
O127 O 0.27896 0.08603 0.34603 0.0
O128 O 0.19704 0.03864 0.30952 0.0
O129 O 0.22814 0.11133 0.40017 0.0
O130 O 0.1446 0.08814 0.36297 0.0
O131 O 0.21979 0.01679 0.36843 0.0
Sc132 Sc 0.93626 0.15784 0.3328 0.0
Sc133 Sc 0.9469 0.22546 0.36156 0.0
Sc134 Sc 0.87631 0.19692 0.35475 0.0
O135 O 0.91967 0.19322 0.35012 0.0
C136 C 0.88213 0.17101 0.29758 0.0
C137 C 0.97293 0.20999 0.308 0.0
C138 C 0.89249 0.2614 0.34076 0.0
C139 C 0.98397 0.16702 0.37384 0.0
C140 C 0.88303 0.1302 0.36526 0.0
C141 C 0.9037 0.2209 0.40837 0.0
O142 O 0.90865 0.16363 0.29993 0.0
O143 O 0.96327 0.22979 0.32285 0.0
O144 O 0.8767 0.23904 0.33777 0.0
O145 O 0.96479 0.1501 0.36454 0.0
O146 O 0.87121 0.15432 0.37109 0.0
O147 O 0.92986 0.22312 0.40019 0.0
O148 O 0.90532 0.12835 0.35065 0.0
O149 O 0.98203 0.19478 0.37183 0.0
O150 O 0.88225 0.21396 0.39378 0.0
O151 O 0.96916 0.18287 0.31231 0.0
O152 O 0.8666 0.18046 0.31624 0.0
O153 O 0.91676 0.26072 0.35263 0.0
Sc154 Sc 0.84319 0.9097 0.3328 0.0
Sc155 Sc 0.77219 0.92882 0.35225 0.0
Sc156 Sc 0.79903 0.85656 0.36032 0.0
O157 O 0.80458 0.89843 0.34852 0.0
C158 C 0.83415 0.84609 0.30922 0.0
C159 C 0.79634 0.93798 0.29478 0.0
C160 C 0.73545 0.87154 0.33926 0.0
C161 C 0.82827 0.9684 0.36265 0.0
C162 C 0.86427 0.87028 0.3788 0.0
C163 C 0.77146 0.89453 0.40605 0.0
O164 O 0.84765 0.87005 0.31137 0.0
O165 O 0.77609 0.94109 0.31158 0.0
O166 O 0.75597 0.85411 0.34481 0.0
O167 O 0.84528 0.95062 0.35171 0.0
O168 O 0.84215 0.85351 0.37769 0.0
O169 O 0.7666 0.9175 0.3927 0.0
O170 O 0.867 0.89274 0.3647 0.0
O171 O 0.80098 0.96402 0.36426 0.0
O172 O 0.78273 0.87143 0.39674 0.0
O173 O 0.82131 0.92752 0.30005 0.0
O174 O 0.81385 0.83825 0.32433 0.0
O175 O 0.73766 0.89903 0.34149 0.0
Sc176 Sc 0.85825 0.8045 0.86041 0.0
Sc177 Sc 0.92939 0.77456 0.85965 0.0
Sc178 Sc 0.91558 0.84229 0.83149 0.0
O179 O 0.901 0.80704 0.85065 0.0
C180 C 0.85615 0.83033 0.80312 0.0
C181 C 0.87198 0.73918 0.84439 0.0
C182 C 0.95275 0.79123 0.80499 0.0
C183 C 0.891 0.77875 0.91025 0.0
C184 C 0.86899 0.8713 0.86998 0.0
C185 C 0.9669 0.8327 0.87019 0.0
O186 O 0.84352 0.82107 0.82345 0.0
O187 O 0.89865 0.74018 0.85101 0.0
O188 O 0.94542 0.81771 0.80801 0.0
O189 O 0.8684 0.78779 0.89839 0.0
O190 O 0.88875 0.87221 0.85279 0.0
O191 O 0.9641 0.80501 0.86968 0.0
O192 O 0.8565 0.84779 0.8768 0.0
O193 O 0.91548 0.77492 0.89921 0.0
O194 O 0.94875 0.84982 0.85957 0.0
O195 O 0.85527 0.76129 0.84488 0.0
O196 O 0.88308 0.83675 0.80209 0.0
O197 O 0.94555 0.77109 0.82059 0.0
Sc198 Sc 0.19441 0.8753 0.85449 0.0
Sc199 Sc 0.22724 0.94383 0.86411 0.0
Sc200 Sc 0.15665 0.93921 0.84128 0.0
O201 O 0.19277 0.91909 0.85342 0.0
C202 C 0.16428 0.88903 0.79982 0.0
C203 C 0.25953 0.88827 0.83993 0.0
C204 C 0.20807 0.97545 0.81435 0.0
C205 C 0.22181 0.89746 0.90882 0.0
C206 C 0.12877 0.88424 0.87046 0.0
C207 C 0.17255 0.983 0.88301 0.0
O208 O 0.17616 0.87105 0.81555 0.0
O209 O 0.26044 0.91228 0.85228 0.0
O210 O 0.18154 0.97282 0.82142 0.0
O211 O 0.21279 0.87737 0.8935 0.0
O212 O 0.12701 0.90866 0.85896 0.0
O213 O 0.19966 0.98054 0.87757 0.0
O214 O 0.1524 0.87006 0.87204 0.0
O215 O 0.22603 0.92387 0.90174 0.0
O216 O 0.15432 0.96389 0.87599 0.0
O217 O 0.23606 0.87434 0.8365 0.0
O218 O 0.15714 0.91482 0.80626 0.0
O219 O 0.22899 0.96281 0.82597 0.0
Sc220 Sc 0.12259 0.21054 0.86156 0.0
Sc221 Sc 0.0511 0.23928 0.85907 0.0
Sc222 Sc 0.06483 0.16612 0.84204 0.0
O223 O 0.07951 0.20536 0.85427 0.0
C224 C 0.12451 0.17328 0.81044 0.0
C225 C 0.10724 0.27433 0.841 0.0
C226 C 0.03226 0.21295 0.80522 0.0
C227 C 0.08924 0.23888 0.91038 0.0
C228 C 0.1142 0.14392 0.87982 0.0
C229 C 0.01069 0.18535 0.87578 0.0
O230 O 0.13545 0.19388 0.82387 0.0
O231 O 0.08019 0.27298 0.84562 0.0
O232 O 0.04062 0.18725 0.81128 0.0
O233 O 0.11161 0.22705 0.89985 0.0
O234 O 0.08862 0.14092 0.87062 0.0
O235 O 0.01609 0.21236 0.87337 0.0
O236 O 0.12851 0.16752 0.87758 0.0
O237 O 0.06592 0.24481 0.89805 0.0
O238 O 0.0276 0.16581 0.86706 0.0
O239 O 0.12454 0.25344 0.84545 0.0
O240 O 0.10032 0.16118 0.81569 0.0
O241 O 0.03517 0.23485 0.82016 0.0
Sc242 Sc 0.82023 0.0706 0.83283 0.0
Sc243 Sc 0.7497 0.07245 0.8586 0.0
Sc244 Sc 0.79229 0.13691 0.85498 0.0
O245 O 0.7873 0.09345 0.84877 0.0
C246 C 0.85657 0.11528 0.86739 0.0
C247 C 0.79828 0.02443 0.87288 0.0
C248 C 0.7638 0.11265 0.90747 0.0
C249 C 0.76384 0.04253 0.80575 0.0
C250 C 0.81854 0.1283 0.79824 0.0
C251 C 0.72511 0.13421 0.84001 0.0
O252 O 0.85392 0.09211 0.85423 0.0
O253 O 0.77191 0.03291 0.87121 0.0
O254 O 0.77703 0.13222 0.89438 0.0
O255 O 0.79106 0.04527 0.80949 0.0
O256 O 0.80806 0.14453 0.81599 0.0
O257 O 0.72133 0.10797 0.84721 0.0
O258 O 0.82368 0.10125 0.80153 0.0
O259 O 0.74456 0.05394 0.8203 0.0
O260 O 0.7497 0.14677 0.84081 0.0
O261 O 0.81924 0.03843 0.86272 0.0
O262 O 0.83601 0.13356 0.86987 0.0
O263 O 0.7532 0.08954 0.89738 0.0
Sc264 Sc 0.93373 0.16538 0.62246 0.0
Sc265 Sc 0.94676 0.23956 0.61223 0.0
Sc266 Sc 0.87527 0.21126 0.6085 0.0
O267 O 0.91841 0.20551 0.61454 0.0
C268 C 0.88224 0.14717 0.58514 0.0
C269 C 0.98664 0.18719 0.59053 0.0
C270 C 0.90831 0.24228 0.56088 0.0
C271 C 0.96879 0.20739 0.66168 0.0
C272 C 0.87657 0.17046 0.65795 0.0
C273 C 0.89038 0.27345 0.63214 0.0
O274 O 0.90744 0.14299 0.5945 0.0
O275 O 0.98271 0.21337 0.59788 0.0
O276 O 0.88558 0.2311 0.57138 0.0
O277 O 0.96206 0.1828 0.65186 0.0
O278 O 0.86429 0.19093 0.64523 0.0
O279 O 0.91724 0.27284 0.62642 0.0
O280 O 0.90083 0.15908 0.65149 0.0
O281 O 0.96185 0.23175 0.65137 0.0
O282 O 0.87348 0.25227 0.62777 0.0
O283 O 0.96757 0.16759 0.59405 0.0
O284 O 0.86822 0.17058 0.58891 0.0
O285 O 0.93216 0.24682 0.57307 0.0
Sc286 Sc 0.8217 0.94188 0.64116 0.0
Sc287 Sc 0.75615 0.95842 0.60894 0.0
Sc288 Sc 0.78596 0.88664 0.60729 0.0
O289 O 0.78787 0.92899 0.61903 0.0
C290 C 0.85371 0.89768 0.60207 0.0
C291 C 0.81526 0.99445 0.6014 0.0
C292 C 0.76307 0.92132 0.55744 0.0
C293 C 0.76899 0.97754 0.66672 0.0
C294 C 0.80801 0.8801 0.66546 0.0
C295 C 0.72008 0.90108 0.62284 0.0
O296 O 0.85339 0.91799 0.61883 0.0
O297 O 0.78799 0.99118 0.59767 0.0
O298 O 0.77362 0.89891 0.56856 0.0
O299 O 0.79444 0.96671 0.66678 0.0
O300 O 0.7982 0.86913 0.64462 0.0
O301 O 0.72116 0.92848 0.61885 0.0
O302 O 0.81615 0.90643 0.66753 0.0
O303 O 0.75216 0.97645 0.64728 0.0
O304 O 0.7416 0.88405 0.61952 0.0
O305 O 0.82999 0.97823 0.61642 0.0
O306 O 0.83076 0.88463 0.59463 0.0
O307 O 0.7561 0.94438 0.5695 0.0
Sc308 Sc 0.05548 0.82846 0.63683 0.0
Sc309 Sc 0.04379 0.75828 0.61124 0.0
Sc310 Sc 0.11432 0.79086 0.61049 0.0
O311 O 0.07116 0.79238 0.61939 0.0
C312 C 0.09985 0.85835 0.59875 0.0
C313 C 0.00135 0.81252 0.60096 0.0
C314 C 0.0828 0.7653 0.56012 0.0
C315 C 0.02519 0.77642 0.66826 0.0
C316 C 0.11688 0.82014 0.66543 0.0
C317 C 0.1021 0.72422 0.62568 0.0
O318 O 0.07509 0.85773 0.60969 0.0
O319 O 0.00805 0.78578 0.59819 0.0
O320 O 0.10392 0.77846 0.5712 0.0
O321 O 0.03475 0.80232 0.66572 0.0
O322 O 0.12787 0.80232 0.64931 0.0
O323 O 0.07464 0.72501 0.62273 0.0
O324 O 0.09218 0.83207 0.6622 0.0
O325 O 0.02609 0.75747 0.65022 0.0
O326 O 0.11849 0.74608 0.62184 0.0
O327 O 0.01683 0.83006 0.61398 0.0
O328 O 0.1169 0.8364 0.59854 0.0
O329 O 0.05997 0.75674 0.57208 0.0
Sc330 Sc 0.20242 0.1217 0.61573 0.0
Sc331 Sc 0.23488 0.05141 0.6137 0.0
Sc332 Sc 0.16494 0.06147 0.64042 0.0
O333 O 0.20076 0.07815 0.62312 0.0
C334 C 0.17366 0.1216 0.6713 0.0
C335 C 0.26848 0.1091 0.63087 0.0
C336 C 0.21784 0.03106 0.67061 0.0
C337 C 0.22765 0.09227 0.56403 0.0
C338 C 0.13586 0.1074 0.60225 0.0
C339 C 0.1807 0.00871 0.60314 0.0
O340 O 0.18841 0.13427 0.65382 0.0
O341 O 0.26814 0.08247 0.62424 0.0
O342 O 0.19133 0.0384 0.66765 0.0
O343 O 0.21696 0.11328 0.57704 0.0
O344 O 0.13532 0.08371 0.61502 0.0
O345 O 0.20757 0.0153 0.6018 0.0
O346 O 0.15825 0.12374 0.60117 0.0
O347 O 0.23459 0.06772 0.57409 0.0
O348 O 0.16229 0.0244 0.61507 0.0
O349 O 0.24619 0.12541 0.62977 0.0
O350 O 0.1634 0.09601 0.66863 0.0
O351 O 0.2372 0.03426 0.65306 0.0
Sc352 Sc 0.62459 0.70531 0.63098 0.0
Sc353 Sc 0.557 0.74222 0.62537 0.0
Sc354 Sc 0.56019 0.67042 0.6489 0.0
O355 O 0.58062 0.70607 0.63497 0.0
C356 C 0.60897 0.63945 0.61539 0.0
C357 C 0.60036 0.73148 0.57741 0.0
C358 C 0.51216 0.6917 0.60966 0.0
C359 C 0.61555 0.7723 0.64489 0.0
C360 C 0.61615 0.67578 0.68554 0.0
C361 C 0.53103 0.72372 0.68026 0.0
O362 O 0.62651 0.66077 0.6174 0.0
O363 O 0.57603 0.74086 0.58649 0.0
O364 O 0.52642 0.6714 0.62045 0.0
O365 O 0.63031 0.749 0.64434 0.0
O366 O 0.59142 0.6655 0.67929 0.0
O367 O 0.53783 0.74407 0.66434 0.0
O368 O 0.63132 0.69158 0.67042 0.0
O369 O 0.58923 0.77352 0.63762 0.0
O370 O 0.53583 0.69684 0.67566 0.0
O371 O 0.61983 0.71934 0.59142 0.0
O372 O 0.58316 0.64035 0.62428 0.0
O373 O 0.51968 0.71828 0.61123 0.0
Sc374 Sc 0.33305 0.56855 0.64634 0.0
Sc375 Sc 0.26351 0.55896 0.61977 0.0
Sc376 Sc 0.29565 0.6294 0.62333 0.0
O377 O 0.2973 0.58569 0.6297 0.0
C378 C 0.32366 0.62598 0.67945 0.0
C379 C 0.2816 0.53275 0.67389 0.0
C380 C 0.23032 0.61632 0.63969 0.0
C381 C 0.31999 0.51999 0.60536 0.0
C382 C 0.36177 0.61707 0.60991 0.0
C383 C 0.26846 0.6018 0.57161 0.0
O384 O 0.33152 0.59959 0.67691 0.0
O385 O 0.26135 0.53999 0.65832 0.0
O386 O 0.25295 0.63218 0.63925 0.0
O387 O 0.33763 0.53655 0.61711 0.0
O388 O 0.33879 0.63207 0.60676 0.0
O389 O 0.26311 0.57657 0.58093 0.0
O390 O 0.36267 0.59468 0.62431 0.0
O391 O 0.29237 0.52365 0.6063 0.0
O392 O 0.27885 0.62267 0.58501 0.0
O393 O 0.30817 0.53957 0.67047 0.0
O394 O 0.31182 0.64049 0.66132 0.0
O395 O 0.23 0.59007 0.63158 0.0
Sc396 Sc 0.36685 0.29561 0.6235 0.0
Sc397 Sc 0.43726 0.2652 0.63036 0.0
Sc398 Sc 0.42424 0.33925 0.64509 0.0
O399 O 0.40952 0.29996 0.63294 0.0
C400 C 0.37817 0.3611 0.60406 0.0
C401 C 0.40124 0.2646 0.57727 0.0
C402 C 0.47978 0.31766 0.61382 0.0
C403 C 0.37907 0.23268 0.64716 0.0
C404 C 0.36231 0.33404 0.6733 0.0
C405 C 0.45405 0.29335 0.68465 0.0
O406 O 0.36312 0.33804 0.60639 0.0
O407 O 0.42354 0.25793 0.59086 0.0
O408 O 0.46332 0.33772 0.62234 0.0
O409 O 0.36286 0.25349 0.64018 0.0
O410 O 0.38689 0.34588 0.66911 0.0
O411 O 0.45224 0.27119 0.66978 0.0
O412 O 0.35224 0.31305 0.65996 0.0
O413 O 0.40654 0.23308 0.64456 0.0
O414 O 0.44568 0.31881 0.67788 0.0
O415 O 0.37914 0.27807 0.58635 0.0
O416 O 0.40322 0.36385 0.61443 0.0
O417 O 0.47339 0.29079 0.61588 0.0
Sc418 Sc 0.69674 0.37561 0.63138 0.0
Sc419 Sc 0.73609 0.44205 0.62863 0.0
Sc420 Sc 0.66382 0.4411 0.64927 0.0
O421 O 0.69894 0.41937 0.63633 0.0
C422 C 0.6322 0.39299 0.61468 0.0
C423 C 0.72787 0.40015 0.57997 0.0
C424 C 0.68662 0.48816 0.61145 0.0
C425 C 0.7628 0.3817 0.64866 0.0
C426 C 0.66541 0.38495 0.68557 0.0
C427 C 0.71661 0.47032 0.68106 0.0
O428 O 0.65379 0.37566 0.61418 0.0
O429 O 0.73575 0.42474 0.58949 0.0
O430 O 0.66566 0.47209 0.61861 0.0
O431 O 0.73862 0.36839 0.64826 0.0
O432 O 0.65903 0.41142 0.68084 0.0
O433 O 0.73744 0.45924 0.66793 0.0
O434 O 0.67854 0.36856 0.66944 0.0
O435 O 0.76574 0.40766 0.64045 0.0
O436 O 0.69002 0.46798 0.67429 0.0
O437 O 0.71514 0.3803 0.59317 0.0
O438 O 0.63298 0.4172 0.62649 0.0
O439 O 0.71311 0.48133 0.61578 0.0
Sc440 Sc 0.55089 0.35002 0.86527 0.0
Sc441 Sc 0.54269 0.27645 0.87833 0.0
Sc442 Sc 0.61276 0.30733 0.87472 0.0
O443 O 0.56912 0.31124 0.87258 0.0
C444 C 0.60372 0.34804 0.82554 0.0
C445 C 0.5151 0.30485 0.82945 0.0
C446 C 0.59812 0.24476 0.85386 0.0
C447 C 0.50327 0.32787 0.90139 0.0
C448 C 0.6047 0.3701 0.89984 0.0
C449 C 0.58699 0.27513 0.92518 0.0
O450 O 0.57865 0.35678 0.83262 0.0
O451 O 0.52525 0.28143 0.83946 0.0
O452 O 0.61322 0.26783 0.85282 0.0
O453 O 0.52289 0.34679 0.898 0.0
O454 O 0.61934 0.34695 0.89643 0.0
O455 O 0.5608 0.27245 0.91685 0.0
O456 O 0.57985 0.3741 0.88973 0.0
O457 O 0.50609 0.30203 0.8928 0.0
O458 O 0.60807 0.28447 0.9112 0.0
O459 O 0.51946 0.33004 0.83932 0.0
O460 O 0.61917 0.33022 0.83859 0.0
O461 O 0.57336 0.24393 0.86477 0.0
Sc462 Sc 0.68789 0.62932 0.87784 0.0
Sc463 Sc 0.72798 0.56338 0.87386 0.0
Sc464 Sc 0.65238 0.5646 0.86228 0.0
O465 O 0.68951 0.58577 0.87144 0.0
C466 C 0.6265 0.60991 0.90207 0.0
C467 C 0.72598 0.60371 0.92456 0.0
C468 C 0.68305 0.51608 0.89601 0.0
C469 C 0.75037 0.62411 0.85161 0.0
C470 C 0.64757 0.623 0.82888 0.0
C471 C 0.69981 0.53947 0.82196 0.0
O472 O 0.64679 0.62824 0.89812 0.0
O473 O 0.73422 0.58053 0.91277 0.0
O474 O 0.66058 0.52974 0.88859 0.0
O475 O 0.72741 0.63771 0.85766 0.0
O476 O 0.63957 0.59734 0.83489 0.0
O477 O 0.72269 0.54606 0.83478 0.0
O478 O 0.66616 0.63753 0.84176 0.0
O479 O 0.75454 0.59755 0.85728 0.0
O480 O 0.67413 0.54302 0.83081 0.0
O481 O 0.7101 0.62329 0.9141 0.0
O482 O 0.62663 0.58463 0.89206 0.0
O483 O 0.70873 0.5245 0.89061 0.0
Sc484 Sc 0.43148 0.66841 0.85745 0.0
Sc485 Sc 0.43956 0.74153 0.87491 0.0
Sc486 Sc 0.36939 0.7104 0.86972 0.0
O487 O 0.41329 0.70686 0.86725 0.0
C488 C 0.37749 0.67395 0.81862 0.0
C489 C 0.46753 0.71626 0.824 0.0
C490 C 0.38406 0.77562 0.85329 0.0
C491 C 0.47925 0.68905 0.89619 0.0
C492 C 0.37733 0.6442 0.88902 0.0
C493 C 0.39484 0.73785 0.92228 0.0
O494 O 0.40168 0.66336 0.82608 0.0
O495 O 0.45901 0.73893 0.83632 0.0
O496 O 0.3676 0.75344 0.85341 0.0
O497 O 0.46243 0.669 0.88838 0.0
O498 O 0.3627 0.66743 0.88579 0.0
O499 O 0.42014 0.74388 0.91317 0.0
O500 O 0.40362 0.6419 0.88156 0.0
O501 O 0.47494 0.71569 0.89059 0.0
O502 O 0.37414 0.72725 0.90861 0.0
O503 O 0.4613 0.69033 0.83124 0.0
O504 O 0.36312 0.69296 0.8313 0.0
O505 O 0.41007 0.77486 0.86145 0.0
Sc506 Sc 0.32262 0.43267 0.84521 0.0
Sc507 Sc 0.25494 0.45101 0.87273 0.0
Sc508 Sc 0.27662 0.37699 0.86627 0.0
O509 O 0.2847 0.42027 0.86153 0.0
C510 C 0.30528 0.37714 0.811 0.0
C511 C 0.27423 0.47205 0.81668 0.0
C512 C 0.21318 0.39978 0.85312 0.0
C513 C 0.31505 0.48493 0.88453 0.0
C514 C 0.34412 0.38 0.88039 0.0
C515 C 0.2576 0.4063 0.91998 0.0
O516 O 0.31932 0.40044 0.81552 0.0
O517 O 0.25456 0.47024 0.83414 0.0
O518 O 0.23325 0.38091 0.85255 0.0
O519 O 0.33072 0.46682 0.87235 0.0
O520 O 0.31964 0.36712 0.88008 0.0
O521 O 0.25444 0.43233 0.9114 0.0
O522 O 0.3485 0.4045 0.86948 0.0
O523 O 0.28739 0.48281 0.88542 0.0
O524 O 0.2639 0.38468 0.90557 0.0
O525 O 0.29966 0.46122 0.81918 0.0
O526 O 0.28841 0.36535 0.82739 0.0
O527 O 0.21689 0.42543 0.86183 0.0
Sc528 Sc 0.38342 0.29735 0.36744 0.0
Sc529 Sc 0.45208 0.26636 0.3818 0.0
Sc530 Sc 0.4479 0.33438 0.35313 0.0
O531 O 0.42747 0.2993 0.36745 0.0
C532 C 0.39843 0.32301 0.31108 0.0
C533 C 0.39809 0.23081 0.35869 0.0
C534 C 0.48625 0.28081 0.33228 0.0
C535 C 0.40368 0.27511 0.42414 0.0
C536 C 0.39269 0.36452 0.37971 0.0
C537 C 0.49042 0.32245 0.39763 0.0
O538 O 0.3803 0.31164 0.327 0.0
O539 O 0.42198 0.23208 0.37105 0.0
O540 O 0.48164 0.30796 0.33563 0.0
O541 O 0.38409 0.28288 0.40782 0.0
O542 O 0.41759 0.36501 0.36906 0.0
O543 O 0.48755 0.29494 0.39489 0.0
O544 O 0.37748 0.34144 0.38144 0.0
O545 O 0.43028 0.27066 0.41808 0.0
O546 O 0.47262 0.34021 0.38758 0.0
O547 O 0.38318 0.25332 0.35334 0.0
O548 O 0.42382 0.33123 0.31782 0.0
O549 O 0.47362 0.26101 0.34533 0.0
Sc550 Sc 0.71829 0.36825 0.37739 0.0
Sc551 Sc 0.74624 0.44009 0.37479 0.0
Sc552 Sc 0.6749 0.42549 0.3544 0.0
O553 O 0.71316 0.4111 0.36888 0.0
C554 C 0.68574 0.36654 0.32257 0.0
C555 C 0.78256 0.3842 0.35884 0.0
C556 C 0.72287 0.46059 0.32111 0.0
C557 C 0.74454 0.40289 0.42656 0.0
C558 C 0.65135 0.37586 0.39254 0.0
C559 C 0.69041 0.47837 0.39038 0.0
O560 O 0.70159 0.3544 0.3398 0.0
O561 O 0.78086 0.41102 0.3643 0.0
O562 O 0.69693 0.45342 0.3272 0.0
O563 O 0.73452 0.37978 0.41581 0.0
O564 O 0.648 0.39908 0.37942 0.0
O565 O 0.71756 0.47472 0.38684 0.0
O566 O 0.67561 0.36268 0.39405 0.0
O567 O 0.74932 0.42652 0.41429 0.0
O568 O 0.67151 0.46031 0.38222 0.0
O569 O 0.76139 0.36664 0.3613 0.0
O570 O 0.67485 0.39193 0.32509 0.0
O571 O 0.7448 0.45487 0.33526 0.0
Sc572 Sc 0.62633 0.6886 0.37728 0.0
Sc573 Sc 0.55997 0.72734 0.37041 0.0
Sc574 Sc 0.56279 0.65162 0.36029 0.0
O575 O 0.58309 0.68929 0.36928 0.0
C576 C 0.62129 0.65027 0.32604 0.0
C577 C 0.62054 0.75076 0.34957 0.0
C578 C 0.53259 0.69713 0.3215 0.0
C579 C 0.59783 0.72698 0.42269 0.0
C580 C 0.60902 0.62563 0.39921 0.0
C581 C 0.51511 0.68139 0.39529 0.0
O582 O 0.63577 0.66799 0.34017 0.0
O583 O 0.59322 0.75363 0.3521 0.0
O584 O 0.53785 0.67194 0.33052 0.0
O585 O 0.61759 0.70953 0.41443 0.0
O586 O 0.58419 0.62547 0.38862 0.0
O587 O 0.52268 0.70709 0.38881 0.0
O588 O 0.62668 0.64672 0.39649 0.0
O589 O 0.57693 0.73613 0.40855 0.0
O590 O 0.52894 0.65883 0.38804 0.0
O591 O 0.63447 0.72919 0.35849 0.0
O592 O 0.59558 0.64168 0.33163 0.0
O593 O 0.54117 0.72051 0.3324 0.0
Sc594 Sc 0.34529 0.57233 0.35621 0.0
Sc595 Sc 0.2696 0.56324 0.36491 0.0
Sc596 Sc 0.30374 0.63148 0.37572 0.0
O597 O 0.30604 0.58886 0.36575 0.0
C598 C 0.36509 0.61384 0.40084 0.0
C599 C 0.31725 0.51698 0.38387 0.0
C600 C 0.26602 0.59789 0.4185 0.0
C601 C 0.30245 0.54711 0.31298 0.0
C602 C 0.34559 0.63434 0.32765 0.0
C603 C 0.24348 0.62376 0.3461 0.0
O604 O 0.36639 0.58908 0.38998 0.0
O605 O 0.29098 0.52505 0.38076 0.0
O606 O 0.28208 0.61917 0.41119 0.0
O607 O 0.32737 0.55424 0.32169 0.0
O608 O 0.32423 0.64512 0.34007 0.0
O609 O 0.24191 0.59624 0.34791 0.0
O610 O 0.35716 0.61 0.33346 0.0
O611 O 0.27903 0.54872 0.32616 0.0
O612 O 0.2638 0.63851 0.3561 0.0
O613 O 0.33873 0.53247 0.37683 0.0
O614 O 0.34487 0.63199 0.39609 0.0
O615 O 0.25891 0.57667 0.40379 0.0
Sc616 Sc 0.43136 0.66236 0.1459 0.0
Sc617 Sc 0.44765 0.73351 0.12609 0.0
Sc618 Sc 0.3747 0.70792 0.12611 0.0
O619 O 0.41778 0.70128 0.13243 0.0
C620 C 0.37784 0.64099 0.111 0.0
C621 C 0.48252 0.67563 0.10804 0.0
C622 C 0.40725 0.73466 0.07597 0.0
C623 C 0.46991 0.70807 0.1784 0.0
C624 C 0.3767 0.6772 0.18171 0.0
C625 C 0.39355 0.7707 0.14599 0.0
O626 O 0.40175 0.63661 0.12276 0.0
O627 O 0.48081 0.70306 0.11205 0.0
O628 O 0.38453 0.72427 0.08718 0.0
O629 O 0.46222 0.68239 0.17191 0.0
O630 O 0.36325 0.69272 0.16497 0.0
O631 O 0.42022 0.76911 0.13962 0.0
O632 O 0.40085 0.66467 0.17703 0.0
O633 O 0.46453 0.73039 0.16467 0.0
O634 O 0.37568 0.75019 0.14234 0.0
O635 O 0.46325 0.65789 0.11603 0.0
O636 O 0.36586 0.66583 0.10992 0.0
O637 O 0.43151 0.73855 0.08751 0.0
Sc638 Sc 0.33735 0.4297 0.14767 0.0
Sc639 Sc 0.26517 0.44043 0.12776 0.0
Sc640 Sc 0.29971 0.37158 0.11987 0.0
O641 O 0.30061 0.41377 0.13177 0.0
C642 C 0.36541 0.38629 0.10657 0.0
C643 C 0.31917 0.48205 0.11215 0.0
C644 C 0.26834 0.40699 0.07391 0.0
C645 C 0.28787 0.46146 0.18125 0.0
C646 C 0.33097 0.36818 0.17541 0.0
C647 C 0.23558 0.37965 0.14239 0.0
O648 O 0.36632 0.40739 0.1223 0.0
O649 O 0.29182 0.47767 0.11502 0.0
O650 O 0.28204 0.38458 0.0823 0.0
O651 O 0.314 0.45511 0.17549 0.0
O652 O 0.31696 0.35605 0.15693 0.0
O653 O 0.23397 0.40722 0.13987 0.0
O654 O 0.33923 0.39467 0.17494 0.0
O655 O 0.2663 0.45495 0.1671 0.0
O656 O 0.2577 0.36498 0.13584 0.0
O657 O 0.33832 0.46499 0.12123 0.0
O658 O 0.34253 0.37138 0.10279 0.0
O659 O 0.26096 0.42821 0.08827 0.0
Sc660 Sc 0.5652 0.32314 0.16053 0.0
Sc661 Sc 0.55596 0.25357 0.13348 0.0
Sc662 Sc 0.62339 0.29122 0.12711 0.0
O663 O 0.58167 0.28922 0.14036 0.0
C664 C 0.60416 0.35759 0.11955 0.0
C665 C 0.51105 0.30586 0.12588 0.0
C666 C 0.58696 0.26482 0.07924 0.0
C667 C 0.5407 0.26766 0.19137 0.0
C668 C 0.62904 0.31698 0.18465 0.0
C669 C 0.61759 0.22367 0.14166 0.0
O670 O 0.58342 0.35587 0.13572 0.0
O671 O 0.51774 0.27902 0.1252 0.0
O672 O 0.60944 0.27751 0.08862 0.0
O673 O 0.54552 0.2947 0.18823 0.0
O674 O 0.64048 0.3054 0.16458 0.0
O675 O 0.5901 0.22267 0.13987 0.0
O676 O 0.60232 0.32423 0.18592 0.0
O677 O 0.54408 0.24882 0.17362 0.0
O678 O 0.63227 0.24691 0.1384 0.0
O679 O 0.52679 0.32496 0.13691 0.0
O680 O 0.62051 0.33604 0.11418 0.0
O681 O 0.56606 0.25545 0.09313 0.0
Sc682 Sc 0.7088 0.62056 0.12766 0.0
Sc683 Sc 0.73389 0.54801 0.12841 0.0
Sc684 Sc 0.66217 0.56318 0.1441 0.0
O685 O 0.70165 0.5776 0.1331 0.0
C686 C 0.67503 0.61754 0.18173 0.0
C687 C 0.77321 0.60265 0.14345 0.0
C688 C 0.70648 0.52917 0.18051 0.0
C689 C 0.73388 0.58638 0.07737 0.0
C690 C 0.64194 0.61701 0.10993 0.0
C691 C 0.67821 0.51064 0.1103 0.0
O692 O 0.69285 0.63079 0.16663 0.0
O693 O 0.77005 0.57608 0.13751 0.0
O694 O 0.6814 0.53237 0.17036 0.0
O695 O 0.72499 0.60972 0.08881 0.0
O696 O 0.63759 0.59205 0.11975 0.0
O697 O 0.70465 0.51302 0.11734 0.0
O698 O 0.66637 0.62989 0.11145 0.0
O699 O 0.73724 0.56185 0.08886 0.0
O700 O 0.65988 0.5309 0.11409 0.0
O701 O 0.75223 0.62057 0.14319 0.0
O702 O 0.66202 0.59402 0.17539 0.0
O703 O 0.73001 0.53575 0.1687 0.0
H704 H 0.17672 0.09341 0.26201 0.0
H705 H 0.18212 0.18131 0.29143 0.0
H706 H 0.17105 0.20044 0.248 0.0
H707 H 0.15487 0.19135 0.20266 0.0
H708 H 0.14727 0.10263 0.1756 0.0
H709 H 0.16459 0.08449 0.21722 0.0
C710 C 0.17549 0.11682 0.25904 0.0
C711 C 0.17953 0.13595 0.27999 0.0
C712 C 0.16883 0.1274 0.23442 0.0
C713 C 0.17878 0.16618 0.27561 0.0
C714 C 0.1724 0.17705 0.25083 0.0
C715 C 0.15771 0.16812 0.20584 0.0
C716 C 0.14991 0.14823 0.18627 0.0
C717 C 0.16674 0.15779 0.23021 0.0
C718 C 0.15314 0.11819 0.19051 0.0
C719 C 0.1629 0.10785 0.21427 0.0
H720 H 0.8526 0.12341 0.28392 0.0
H721 H 0.88385 0.20574 0.25504 0.0
H722 H 0.86949 0.19209 0.21084 0.0
H723 H 0.85219 0.15442 0.18007 0.0
H724 H 0.82456 0.07076 0.20977 0.0
H725 H 0.83323 0.0871 0.25386 0.0
C726 C 0.8555 0.13854 0.26794 0.0
C727 C 0.8686 0.16561 0.27243 0.0
C728 C 0.84829 0.13006 0.2427 0.0
C729 C 0.87319 0.18496 0.25178 0.0
C730 C 0.86525 0.17704 0.22659 0.0
C731 C 0.84786 0.13995 0.19625 0.0
C732 C 0.83818 0.11132 0.19163 0.0
C733 C 0.85344 0.14931 0.22172 0.0
C734 C 0.8326 0.09274 0.21276 0.0
C735 C 0.83737 0.10208 0.23802 0.0
H736 H 0.89719 0.80124 0.21162 0.0
H737 H 0.81639 0.82761 0.17618 0.0
H738 H 0.79454 0.83476 0.2192 0.0
H739 H 0.80143 0.8401 0.26652 0.0
H740 H 0.88346 0.81574 0.30086 0.0
H741 H 0.90173 0.79997 0.25863 0.0
C742 C 0.87471 0.80833 0.21339 0.0
C743 C 0.85852 0.81469 0.19108 0.0
C744 C 0.86258 0.81236 0.23792 0.0
C745 C 0.82922 0.823 0.19331 0.0
C746 C 0.81682 0.82707 0.21781 0.0
C747 C 0.82286 0.83028 0.26473 0.0
C748 C 0.8411 0.82859 0.28648 0.0
C749 C 0.83363 0.82264 0.24023 0.0
C750 C 0.8691 0.81671 0.28422 0.0
C751 C 0.87963 0.80814 0.26011 0.0
H752 H 0.1586 0.81286 0.27389 0.0
H753 H 0.08809 0.87543 0.27497 0.0
H754 H 0.10218 0.8929 0.23247 0.0
H755 H 0.13389 0.89087 0.1951 0.0
H756 H 0.2046 0.82879 0.19233 0.0
H757 H 0.19086 0.81065 0.2353 0.0
C758 C 0.14641 0.83037 0.26485 0.0
C759 C 0.12228 0.84273 0.27777 0.0
C760 C 0.15453 0.84039 0.24005 0.0
C761 C 0.10665 0.86532 0.26561 0.0
C762 C 0.11469 0.87542 0.24123 0.0
C763 C 0.14645 0.87336 0.20376 0.0
C764 C 0.17033 0.86132 0.1904 0.0
C765 C 0.1385 0.86312 0.22829 0.0
C766 C 0.18608 0.83849 0.20208 0.0
C767 C 0.17827 0.82815 0.2267 0.0
H768 H 0.86502 0.80974 0.75493 0.0
H769 H 0.80855 0.86486 0.80021 0.0
H770 H 0.78526 0.88296 0.76067 0.0
H771 H 0.78638 0.88807 0.71323 0.0
H772 H 0.84116 0.83139 0.66787 0.0
H773 H 0.85943 0.8082 0.70743 0.0
C774 C 0.84713 0.82518 0.75601 0.0
C775 C 0.83855 0.83633 0.78011 0.0
C776 C 0.83372 0.83514 0.73329 0.0
C777 C 0.8153 0.8561 0.78167 0.0
C778 C 0.80216 0.86651 0.75913 0.0
C779 C 0.80163 0.87001 0.71212 0.0
C780 C 0.81264 0.86136 0.688 0.0
C781 C 0.8119 0.85691 0.73484 0.0
C782 C 0.83236 0.83807 0.68642 0.0
C783 C 0.84297 0.82508 0.70898 0.0
H784 H 0.12013 0.87339 0.6857 0.0
H785 H 0.14893 0.78505 0.69803 0.0
H786 H 0.16789 0.79864 0.74095 0.0
H787 H 0.17197 0.83534 0.77641 0.0
H788 H 0.14234 0.92349 0.76185 0.0
H789 H 0.12804 0.91015 0.71848 0.0
C790 C 0.13086 0.85716 0.69769 0.0
C791 C 0.13292 0.82829 0.68902 0.0
C792 C 0.14125 0.86503 0.7221 0.0
C793 C 0.14723 0.80749 0.70442 0.0
C794 C 0.1578 0.81523 0.72898 0.0
C795 C 0.16256 0.85162 0.76369 0.0
C796 C 0.1578 0.88024 0.77278 0.0
C797 C 0.15425 0.84386 0.73831 0.0
C798 C 0.14591 0.90115 0.75578 0.0
C799 C 0.13774 0.89364 0.73081 0.0
H800 H 0.1635 0.09644 0.71753 0.0
H801 H 0.17386 0.18051 0.68111 0.0
H802 H 0.16336 0.20476 0.72238 0.0
H803 H 0.14669 0.20164 0.76818 0.0
H804 H 0.13627 0.11683 0.80318 0.0
H805 H 0.15167 0.09331 0.76323 0.0
C806 C 0.16353 0.12009 0.71858 0.0
C807 C 0.1689 0.13665 0.69624 0.0
C808 C 0.15769 0.13374 0.74222 0.0
C809 C 0.16952 0.16727 0.69805 0.0
C810 C 0.16355 0.18114 0.72163 0.0
C811 C 0.14873 0.17809 0.76714 0.0
C812 C 0.14045 0.16088 0.78841 0.0
C813 C 0.15711 0.16458 0.74379 0.0
C814 C 0.14263 0.13038 0.78691 0.0
C815 C 0.15129 0.11692 0.76408 0.0
H816 H 0.83793 0.09975 0.75572 0.0
H817 H 0.81404 0.18566 0.78267 0.0
H818 H 0.82718 0.20626 0.7405 0.0
H819 H 0.8485 0.20003 0.6966 0.0
H820 H 0.87391 0.1139 0.67162 0.0
H821 H 0.85674 0.09321 0.71229 0.0
C822 C 0.83547 0.12301 0.75251 0.0
C823 C 0.82527 0.14111 0.77252 0.0
C824 C 0.84327 0.13467 0.72844 0.0
C825 C 0.82202 0.17117 0.7677 0.0
C826 C 0.82951 0.18298 0.74357 0.0
C827 C 0.84975 0.17671 0.70001 0.0
C828 C 0.86246 0.15847 0.68127 0.0
C829 C 0.84052 0.16498 0.72386 0.0
C830 C 0.86435 0.12833 0.6859 0.0
C831 C 0.8546 0.11649 0.70914 0.0
H832 H 0.58562 0.65055 0.7242 0.0
H833 H 0.66962 0.68856 0.70688 0.0
H834 H 0.68582 0.67831 0.75112 0.0
H835 H 0.67674 0.65596 0.7939 0.0
H836 H 0.59324 0.61623 0.80951 0.0
H837 H 0.57595 0.63031 0.76662 0.0
C838 C 0.60756 0.65658 0.72993 0.0
C839 C 0.62652 0.66994 0.7121 0.0
C840 C 0.61667 0.65055 0.75513 0.0
C841 C 0.65467 0.678 0.72015 0.0
C842 C 0.6639 0.67222 0.74544 0.0
C843 C 0.65461 0.65092 0.78798 0.0
C844 C 0.63619 0.63518 0.80466 0.0
C845 C 0.64515 0.65825 0.763 0.0
C846 C 0.60773 0.62829 0.79683 0.0
C847 C 0.5979 0.63622 0.77235 0.0
H848 H 0.34898 0.70178 0.77926 0.0
H849 H 0.37838 0.61744 0.80579 0.0
H850 H 0.3624 0.59508 0.7656 0.0
H851 H 0.3434 0.59969 0.7225 0.0
H852 H 0.31559 0.68354 0.69341 0.0
H853 H 0.32745 0.70595 0.7352 0.0
C854 C 0.35147 0.6785 0.77619 0.0
C855 C 0.365 0.66123 0.79515 0.0
C856 C 0.34281 0.6658 0.75266 0.0
C857 C 0.36833 0.63112 0.79118 0.0
C858 C 0.35919 0.61833 0.76828 0.0
C859 C 0.33983 0.62291 0.72512 0.0
C860 C 0.32899 0.63997 0.70474 0.0
C861 C 0.34701 0.63554 0.74876 0.0
C862 C 0.32414 0.66993 0.70877 0.0
C863 C 0.33092 0.68275 0.73262 0.0
H864 H 0.33297 0.30426 0.71077 0.0
H865 H 0.35456 0.39071 0.68373 0.0
H866 H 0.33571 0.41185 0.72353 0.0
H867 H 0.31889 0.40551 0.76745 0.0
H868 H 0.29887 0.31967 0.79673 0.0
H869 H 0.31075 0.29841 0.75438 0.0
C870 C 0.33269 0.32773 0.71346 0.0
C871 C 0.34526 0.34601 0.6947 0.0
C872 C 0.32245 0.33974 0.73676 0.0
C873 C 0.34515 0.37636 0.69819 0.0
C874 C 0.33441 0.38844 0.72088 0.0
C875 C 0.3169 0.38214 0.76456 0.0
C876 C 0.30869 0.36407 0.78519 0.0
C877 C 0.32404 0.37027 0.74058 0.0
C878 C 0.30547 0.33394 0.78107 0.0
C879 C 0.31231 0.32183 0.75693 0.0
H880 H 0.6324 0.41172 0.72159 0.0
H881 H 0.68015 0.33211 0.70729 0.0
H882 H 0.66662 0.31408 0.7503 0.0
H883 H 0.64022 0.3209 0.79166 0.0
H884 H 0.59178 0.40045 0.80415 0.0
H885 H 0.60703 0.41872 0.76205 0.0
C886 C 0.64 0.39041 0.72776 0.0
C887 C 0.65724 0.37329 0.71121 0.0
C888 C 0.63213 0.38025 0.75223 0.0
C889 C 0.66671 0.34569 0.71962 0.0
C890 C 0.65908 0.33542 0.74422 0.0
C891 C 0.63332 0.34233 0.78518 0.0
C892 C 0.61492 0.35932 0.80086 0.0
C893 C 0.64172 0.35253 0.76067 0.0
C894 C 0.6058 0.38692 0.79227 0.0
C895 C 0.61448 0.39739 0.76824 0.0
H896 H 0.38423 0.36449 0.19566 0.0
H897 H 0.296 0.33542 0.20749 0.0
H898 H 0.30915 0.3169 0.25071 0.0
H899 H 0.34525 0.31388 0.28682 0.0
H900 H 0.43349 0.34332 0.27273 0.0
H901 H 0.4208 0.35656 0.22889 0.0
C902 C 0.36803 0.35355 0.20754 0.0
C903 C 0.33927 0.35132 0.1986 0.0
C904 C 0.37567 0.34338 0.23217 0.0
C905 C 0.31839 0.33709 0.21399 0.0
C906 C 0.32587 0.32681 0.23876 0.0
C907 C 0.36173 0.32292 0.27408 0.0
C908 C 0.39017 0.32807 0.28353 0.0
C909 C 0.35434 0.33059 0.24838 0.0
C910 C 0.41129 0.33949 0.26646 0.0
C911 C 0.40414 0.34707 0.24119 0.0
H912 H 0.61681 0.30302 0.23422 0.0
H913 H 0.6813 0.34551 0.18672 0.0
H914 H 0.70643 0.36319 0.22566 0.0
H915 H 0.70676 0.37068 0.27339 0.0
H916 H 0.6433 0.32603 0.32045 0.0
H917 H 0.62118 0.30471 0.28168 0.0
C918 C 0.63668 0.31571 0.23246 0.0
C919 C 0.64715 0.32314 0.20772 0.0
C920 C 0.65105 0.32547 0.25489 0.0
C921 C 0.67298 0.33941 0.20559 0.0
C922 C 0.68719 0.34967 0.22785 0.0
C923 C 0.68855 0.35569 0.27505 0.0
C924 C 0.67668 0.34969 0.29962 0.0
C925 C 0.67603 0.34342 0.25261 0.0
C926 C 0.6529 0.33059 0.3017 0.0
C927 C 0.64014 0.31861 0.27955 0.0
H928 H 0.65014 0.58783 0.22116 0.0
H929 H 0.68834 0.67146 0.20304 0.0
H930 H 0.6776 0.6884 0.24717 0.0
H931 H 0.65453 0.67994 0.29039 0.0
H932 H 0.61547 0.59614 0.30629 0.0
H933 H 0.6298 0.57868 0.26361 0.0
C934 C 0.65613 0.60987 0.22664 0.0
C935 C 0.66966 0.62848 0.20851 0.0
C936 C 0.64986 0.61936 0.25182 0.0
C937 C 0.67771 0.65671 0.21644 0.0
C938 C 0.67158 0.66639 0.24171 0.0
C939 C 0.64966 0.65773 0.28458 0.0
C940 C 0.63395 0.63932 0.30149 0.0
C941 C 0.65735 0.64797 0.25953 0.0
C942 C 0.62742 0.61073 0.29362 0.0
C943 C 0.63552 0.60076 0.26918 0.0
H944 H 0.31289 0.65893 0.28938 0.0
H945 H 0.40145 0.64009 0.31196 0.0
H946 H 0.4187 0.65389 0.269 0.0
H947 H 0.4084 0.66616 0.22433 0.0
H948 H 0.32018 0.68323 0.19972 0.0
H949 H 0.30292 0.67537 0.24427 0.0
C950 C 0.33602 0.65864 0.285 0.0
C951 C 0.35597 0.64863 0.30377 0.0
C952 C 0.34572 0.66566 0.25985 0.0
C953 C 0.38579 0.64778 0.29781 0.0
C954 C 0.39563 0.65548 0.27323 0.0
C955 C 0.38532 0.66816 0.22857 0.0
C956 C 0.3655 0.67461 0.20857 0.0
C957 C 0.37572 0.6635 0.25394 0.0
C958 C 0.33583 0.67796 0.21469 0.0
C959 C 0.326 0.67346 0.24015 0.0
H960 H 0.17911 0.38158 0.12629 0.0
H961 H 0.23757 0.33796 0.17888 0.0
H962 H 0.20361 0.29733 0.18306 0.0
H963 H 0.16276 0.27002 0.16446 0.0
H964 H 0.10384 0.3129 0.11184 0.0
H965 H 0.13218 0.35801 0.11505 0.0
C966 C 0.18368 0.36378 0.13952 0.0
C967 C 0.2108 0.36246 0.15203 0.0
C968 C 0.16437 0.33998 0.14123 0.0
C969 C 0.21677 0.33921 0.16898 0.0
C970 C 0.19754 0.31585 0.17116 0.0
C971 C 0.1558 0.2895 0.15424 0.0
C972 C 0.13173 0.28814 0.13759 0.0
C973 C 0.17215 0.31525 0.15619 0.0
C974 C 0.12248 0.31351 0.1247 0.0
C975 C 0.13875 0.33925 0.12643 0.0
H976 H 0.66888 0.21577 0.16607 0.0
H977 H 0.60199 0.16998 0.12384 0.0
H978 H 0.6334 0.12706 0.12044 0.0
H979 H 0.68301 0.10634 0.12287 0.0
H980 H 0.74953 0.15306 0.16501 0.0
H981 H 0.71498 0.19146 0.17554 0.0
C982 C 0.66102 0.19615 0.1566 0.0
C983 C 0.63359 0.19612 0.14476 0.0
C984 C 0.67921 0.1718 0.15451 0.0
C985 C 0.62324 0.17048 0.13298 0.0
C986 C 0.64122 0.14601 0.13089 0.0
C987 C 0.68963 0.12451 0.13496 0.0
C988 C 0.71888 0.12734 0.1425 0.0
C989 C 0.66974 0.14691 0.1406 0.0
C990 C 0.72721 0.15083 0.15841 0.0
C991 C 0.70752 0.17283 0.16444 0.0
H992 H 0.79103 0.64639 0.17484 0.0
H993 H 0.82164 0.58659 0.11653 0.0
H994 H 0.86566 0.61593 0.11046 0.0
H995 H 0.88974 0.6642 0.11534 0.0
H996 H 0.8581 0.72358 0.1736 0.0
H997 H 0.82086 0.68863 0.1866 0.0
C998 C 0.80783 0.63931 0.16145 0.0
C999 C 0.80295 0.61472 0.1459 0.0
C1000 C 0.83286 0.65645 0.15785 0.0
C1001 C 0.82493 0.60551 0.12875 0.0
C1002 C 0.85 0.62245 0.12507 0.0
C1003 C 0.87546 0.66882 0.13157 0.0
C1004 C 0.87633 0.69642 0.14334 0.0
C1005 C 0.85347 0.64878 0.13858 0.0
C1006 C 0.8576 0.70243 0.16421 0.0
C1007 C 0.83615 0.68257 0.17152 0.0
H1008 H 0.29136 0.85012 0.16993 0.0
H1009 H 0.329 0.89875 0.10685 0.0
H1010 H 0.3741 0.87051 0.1103 0.0
H1011 H 0.39738 0.82468 0.12475 0.0
H1012 H 0.3592 0.77646 0.18785 0.0
H1013 H 0.32048 0.81257 0.19187 0.0
C1014 C 0.30985 0.85507 0.15756 0.0
C1015 C 0.30693 0.87589 0.1379 0.0
C1016 C 0.33562 0.83881 0.15969 0.0
C1017 C 0.33092 0.88258 0.12207 0.0
C1018 C 0.35663 0.86637 0.12395 0.0
C1019 C 0.38147 0.82303 0.14023 0.0
C1020 C 0.38072 0.7979 0.15572 0.0
C1021 C 0.35862 0.8434 0.14181 0.0
C1022 C 0.35994 0.7957 0.17564 0.0
C1023 C 0.33757 0.81609 0.1777 0.0
H1024 H 0.16807 0.72738 0.3109 0.0
H1025 H 0.10136 0.67572 0.34796 0.0
H1026 H 0.13393 0.63369 0.3489 0.0
H1027 H 0.18477 0.61588 0.34857 0.0
H1028 H 0.25172 0.66925 0.31397 0.0
H1029 H 0.21569 0.70598 0.30222 0.0
C1030 C 0.1604 0.70669 0.31854 0.0
C1031 C 0.13277 0.70492 0.33007 0.0
C1032 C 0.1795 0.68295 0.3198 0.0
C1033 C 0.12276 0.67779 0.33929 0.0
C1034 C 0.14147 0.65376 0.34003 0.0
C1035 C 0.19115 0.63507 0.33764 0.0
C1036 C 0.22073 0.64034 0.33261 0.0
C1037 C 0.17044 0.65666 0.33178 0.0
C1038 C 0.22898 0.66517 0.31842 0.0
C1039 C 0.20845 0.68619 0.31177 0.0
H1040 H 0.35937 0.21795 0.32088 0.0
H1041 H 0.40743 0.17902 0.38376 0.0
H1042 H 0.37764 0.1349 0.38062 0.0
H1043 H 0.33186 0.1118 0.36556 0.0
H1044 H 0.28286 0.15261 0.3043 0.0
H1045 H 0.3194 0.1911 0.30071 0.0
C1046 C 0.36373 0.19956 0.33354 0.0
C1047 C 0.38511 0.20198 0.35288 0.0
C1048 C 0.34621 0.17455 0.33193 0.0
C1049 C 0.39093 0.17779 0.36881 0.0
C1050 C 0.37378 0.15259 0.36713 0.0
C1051 C 0.32995 0.12847 0.35074 0.0
C1052 C 0.30483 0.12955 0.33523 0.0
C1053 C 0.3505 0.15127 0.34953 0.0
C1054 C 0.30215 0.15146 0.31638 0.0
C1055 C 0.32286 0.1736 0.3145 0.0
H1056 H 0.89716 0.3138 0.36518 0.0
H1057 H 0.85716 0.27104 0.29984 0.0
H1058 H 0.82118 0.30989 0.29654 0.0
H1059 H 0.79462 0.34878 0.31887 0.0
H1060 H 0.83359 0.39168 0.38444 0.0
H1061 H 0.87666 0.36035 0.38092 0.0
C1062 C 0.88133 0.3137 0.34958 0.0
C1063 C 0.87918 0.28933 0.33325 0.0
C1064 C 0.86011 0.33574 0.34827 0.0
C1065 C 0.85873 0.2894 0.31298 0.0
C1066 C 0.83804 0.31148 0.31117 0.0
C1067 C 0.81303 0.3518 0.3318 0.0
C1068 C 0.81101 0.37187 0.35212 0.0
C1069 C 0.83741 0.33363 0.32978 0.0
C1070 C 0.83487 0.37612 0.36869 0.0
C1071 C 0.85935 0.35811 0.36679 0.0
H1072 H 0.61678 0.80972 0.35547 0.0
H1073 H 0.66365 0.74203 0.31511 0.0
H1074 H 0.70142 0.77675 0.30277 0.0
H1075 H 0.72589 0.82283 0.3117 0.0
H1076 H 0.68149 0.8901 0.35456 0.0
H1077 H 0.63771 0.8596 0.35708 0.0
C1078 C 0.63477 0.80296 0.34322 0.0
C1079 C 0.63784 0.77342 0.33652 0.0
C1080 C 0.65705 0.82289 0.337 0.0
C1081 C 0.6612 0.76468 0.32074 0.0
C1082 C 0.68282 0.78447 0.31375 0.0
C1083 C 0.70628 0.83113 0.32088 0.0
C1084 C 0.70696 0.85829 0.33334 0.0
C1085 C 0.68176 0.81313 0.32303 0.0
C1086 C 0.68142 0.86914 0.34487 0.0
C1087 C 0.65651 0.85156 0.34658 0.0
H1088 H 0.80866 0.62088 0.86058 0.0
H1089 H 0.74373 0.66632 0.81566 0.0
H1090 H 0.77908 0.70399 0.80445 0.0
H1091 H 0.82446 0.7288 0.81516 0.0
H1092 H 0.88864 0.68567 0.86263 0.0
H1093 H 0.85805 0.642 0.86454 0.0
C1094 C 0.80266 0.63852 0.84764 0.0
C1095 C 0.77365 0.64127 0.83932 0.0
C1096 C 0.82283 0.66075 0.84209 0.0
C1097 C 0.76593 0.66415 0.82258 0.0
C1098 C 0.78607 0.68571 0.81624 0.0
C1099 C 0.83206 0.70956 0.82538 0.0
C1100 C 0.85832 0.71064 0.83927 0.0
C1101 C 0.814 0.68505 0.82711 0.0
C1102 C 0.86832 0.68542 0.85196 0.0
C1103 C 0.85072 0.66054 0.85325 0.0
H1104 H 0.34456 0.78714 0.81585 0.0
H1105 H 0.39281 0.82747 0.87778 0.0
H1106 H 0.36091 0.87021 0.87597 0.0
H1107 H 0.31349 0.89114 0.86249 0.0
H1108 H 0.26588 0.85015 0.80031 0.0
H1109 H 0.30367 0.81324 0.796 0.0
C1110 C 0.34857 0.8057 0.82839 0.0
C1111 C 0.37061 0.80405 0.84715 0.0
C1112 C 0.33004 0.83002 0.82738 0.0
C1113 C 0.3759 0.82828 0.86316 0.0
C1114 C 0.3575 0.85263 0.86228 0.0
C1115 C 0.31196 0.87478 0.84738 0.0
C1116 C 0.28658 0.87297 0.83218 0.0
C1117 C 0.33363 0.85311 0.84529 0.0
C1118 C 0.28496 0.85168 0.8126 0.0
C1119 C 0.30649 0.83044 0.81018 0.0
H1120 H 0.10069 0.32782 0.86246 0.0
H1121 H 0.14401 0.28166 0.80078 0.0
H1122 H 0.17694 0.32282 0.79412 0.0
H1123 H 0.20032 0.36554 0.81288 0.0
H1124 H 0.16138 0.40914 0.87812 0.0
H1125 H 0.11926 0.37626 0.87594 0.0
C1126 C 0.11663 0.32741 0.84694 0.0
C1127 C 0.12024 0.30188 0.8322 0.0
C1128 C 0.1365 0.35058 0.84419 0.0
C1129 C 0.1411 0.30116 0.81236 0.0
C1130 C 0.15998 0.3246 0.80866 0.0
C1131 C 0.18203 0.36848 0.82597 0.0
C1132 C 0.18399 0.38924 0.84588 0.0
C1133 C 0.15896 0.34855 0.82549 0.0
C1134 C 0.16024 0.39324 0.86264 0.0
C1135 C 0.1364 0.37415 0.86161 0.0
H1136 H 0.64223 0.23891 0.81959 0.0
H1137 H 0.58676 0.18914 0.87062 0.0
H1138 H 0.61954 0.14727 0.86696 0.0
H1139 H 0.66872 0.1288 0.85621 0.0
H1140 H 0.72501 0.18059 0.80744 0.0
H1141 H 0.68711 0.21745 0.80305 0.0
C1142 C 0.63693 0.21866 0.82943 0.0
C1143 C 0.61249 0.21734 0.8458 0.0
C1144 C 0.65634 0.19514 0.82797 0.0
C1145 C 0.60556 0.1908 0.85801 0.0
C1146 C 0.62447 0.16692 0.85613 0.0
C1147 C 0.67232 0.14775 0.84404 0.0
C1148 C 0.6998 0.15228 0.8326 0.0
C1149 C 0.65068 0.1694 0.84223 0.0
C1150 C 0.7042 0.1769 0.81683 0.0
C1151 C 0.68256 0.19801 0.81432 0.0
H1152 H 0.81912 0.38855 0.63228 0.0
H1153 H 0.76445 0.33564 0.68159 0.0
H1154 H 0.8029 0.29928 0.68516 0.0
H1155 H 0.84743 0.27824 0.66724 0.0
H1156 H 0.90172 0.3293 0.6164 0.0
H1157 H 0.86857 0.37093 0.62097 0.0
C1158 C 0.81601 0.36951 0.64446 0.0
C1159 C 0.78874 0.36449 0.65619 0.0
C1160 C 0.83804 0.34817 0.64588 0.0
C1161 C 0.78505 0.33974 0.67196 0.0
C1162 C 0.80701 0.31889 0.67399 0.0
C1163 C 0.85244 0.29882 0.65782 0.0
C1164 C 0.87663 0.30068 0.64124 0.0
C1165 C 0.83291 0.32218 0.65994 0.0
C1166 C 0.88319 0.32743 0.6293 0.0
C1167 C 0.86404 0.3511 0.63168 0.0
H1168 H 0.71461 0.86201 0.66078 0.0
H1169 H 0.66513 0.90861 0.60326 0.0
H1170 H 0.62413 0.87477 0.6092 0.0
H1171 H 0.60738 0.82627 0.62422 0.0
H1172 H 0.65952 0.77856 0.67938 0.0
H1173 H 0.69425 0.81876 0.68141 0.0
C1174 C 0.69446 0.86519 0.65012 0.0
C1175 C 0.69282 0.88728 0.63137 0.0
C1176 C 0.67168 0.84522 0.65303 0.0
C1177 C 0.66671 0.89163 0.61779 0.0
C1178 C 0.64346 0.87212 0.62102 0.0
C1179 C 0.62583 0.82518 0.63731 0.0
C1180 C 0.63124 0.79939 0.65132 0.0
C1181 C 0.64636 0.84796 0.63762 0.0
C1182 C 0.65522 0.79809 0.66816 0.0
C1183 C 0.67511 0.82099 0.66926 0.0
H1184 H 0.14285 0.71558 0.66212 0.0
H1185 H 0.09424 0.67125 0.60269 0.0
H1186 H 0.12757 0.62947 0.60527 0.0
H1187 H 0.17597 0.6105 0.61864 0.0
H1188 H 0.22425 0.65624 0.67768 0.0
H1189 H 0.18528 0.69201 0.68169 0.0
C1190 C 0.13912 0.69635 0.65032 0.0
C1191 C 0.11652 0.69644 0.63206 0.0
C1192 C 0.15847 0.67276 0.65174 0.0
C1193 C 0.11158 0.67149 0.61693 0.0
C1194 C 0.13076 0.64775 0.61826 0.0
C1195 C 0.17736 0.62765 0.63305 0.0
C1196 C 0.2031 0.63106 0.64754 0.0
C1197 C 0.15509 0.64874 0.63477 0.0
C1198 C 0.20476 0.65344 0.66609 0.0
C1199 C 0.18257 0.67401 0.66829 0.0
H1200 H 0.38562 0.17752 0.62932 0.0
H1201 H 0.33761 0.22987 0.68394 0.0
H1202 H 0.30026 0.19216 0.68732 0.0
H1203 H 0.27639 0.15026 0.66724 0.0
H1204 H 0.3226 0.0986 0.61091 0.0
H1205 H 0.36569 0.1297 0.61583 0.0
C1206 C 0.36764 0.17994 0.6428 0.0
C1207 C 0.36407 0.20632 0.65624 0.0
C1208 C 0.34556 0.15868 0.64375 0.0
C1209 C 0.34058 0.20963 0.67342 0.0
C1210 C 0.31911 0.18825 0.67514 0.0
C1211 C 0.29619 0.14544 0.65654 0.0
C1212 C 0.29627 0.12275 0.63835 0.0
C1213 C 0.32052 0.16361 0.65918 0.0
C1214 C 0.32207 0.11619 0.6249 0.0
C1215 C 0.34663 0.13405 0.62761 0.0
H1216 H 0.13409 0.99791 0.07424 0.0
H1217 H 0.22419 0.02459 0.0798 0.0
H1218 H 0.21001 0.07541 0.07566 0.0
H1219 H 0.17144 0.11216 0.08064 0.0
H1220 H 0.08138 0.08546 0.07485 0.0
H1221 H 0.09629 0.03514 0.06825 0.0
C1222 C 0.15071 0.01474 0.07381 0.0
C1223 C 0.17999 0.0074 0.07835 0.0
C1224 C 0.14243 0.04414 0.07178 0.0
C1225 C 0.20132 0.02952 0.07699 0.0
C1226 C 0.19326 0.05875 0.07473 0.0
C1227 C 0.1551 0.09553 0.07708 0.0
C1228 C 0.12538 0.10244 0.07931 0.0
C1229 C 0.16375 0.06637 0.0737 0.0
C1230 C 0.10449 0.08065 0.07406 0.0
C1231 C 0.11295 0.05175 0.07034 0.0
H1232 H 0.00224 0.11796 0.09049 0.0
H1233 H 0.97 0.20641 0.08891 0.0
H1234 H 0.92051 0.1883 0.08148 0.0
H1235 H 0.88586 0.1473 0.08342 0.0
H1236 H 0.91848 0.05914 0.08857 0.0
H1237 H 0.96845 0.0772 0.08622 0.0
C1238 C 0.98447 0.13336 0.08812 0.0
C1239 C 0.98968 0.16347 0.09087 0.0
C1240 C 0.9561 0.12279 0.0847 0.0
C1241 C 0.96655 0.18312 0.08712 0.0
C1242 C 0.93822 0.17275 0.08303 0.0
C1243 C 0.90388 0.13198 0.08325 0.0
C1244 C 0.89851 0.10193 0.08653 0.0
C1245 C 0.9326 0.14261 0.08294 0.0
C1246 C 0.92208 0.08237 0.08636 0.0
C1247 C 0.95065 0.0927 0.08513 0.0
H1248 H 0.83176 0.86734 0.08889 0.0
H1249 H 0.9201 0.89761 0.0788 0.0
H1250 H 0.90232 0.94653 0.06875 0.0
H1251 H 0.86298 0.98194 0.07149 0.0
H1252 H 0.7751 0.95316 0.08717 0.0
H1253 H 0.79112 0.90235 0.0853 0.0
C1254 C 0.84701 0.88448 0.08372 0.0
C1255 C 0.87719 0.87909 0.08486 0.0
C1256 C 0.83668 0.91288 0.0792 0.0
C1257 C 0.89679 0.90143 0.07831 0.0
C1258 C 0.88664 0.92937 0.07262 0.0
C1259 C 0.84712 0.96458 0.07392 0.0
C1260 C 0.81803 0.97141 0.08019 0.0
C1261 C 0.85678 0.93562 0.07434 0.0
C1262 C 0.79769 0.9486 0.08261 0.0
C1263 C 0.80692 0.9195 0.08183 0.0
H1264 H 0.09353 0.8945 0.0802 0.0
H1265 H 0.14059 0.81407 0.092 0.0
H1266 H 0.09499 0.78674 0.09101 0.0
H1267 H 0.04113 0.78678 0.09437 0.0
H1268 H 0.99466 0.86765 0.08313 0.0
H1269 H 0.04039 0.89333 0.07598 0.0
C1270 C 0.09394 0.87092 0.08194 0.0
C1271 C 0.12053 0.85658 0.08667 0.0
C1272 C 0.06754 0.85529 0.08182 0.0
C1273 C 0.12053 0.82589 0.08851 0.0
C1274 C 0.09435 0.81016 0.08814 0.0
C1275 C 0.04098 0.80982 0.0896 0.0
C1276 C 0.01447 0.82531 0.08982 0.0
C1277 C 0.06759 0.82476 0.08594 0.0
C1278 C 0.01474 0.85523 0.08356 0.0
C1279 C 0.04094 0.87002 0.07951 0.0
H1280 H 0.13904 0.99449 0.38839 0.0
H1281 H 0.22651 0.96235 0.37657 0.0
H1282 H 0.20924 0.9123 0.38154 0.0
H1283 H 0.16815 0.87789 0.38121 0.0
H1284 H 0.08046 0.91042 0.391 0.0
H1285 H 0.09912 0.95995 0.3953 0.0
C1286 C 0.15448 0.9766 0.3874 0.0
C1287 C 0.18391 0.9822 0.38148 0.0
C1288 C 0.1443 0.94783 0.38962 0.0
C1289 C 0.20367 0.95874 0.38083 0.0
C1290 C 0.19378 0.93003 0.38352 0.0
C1291 C 0.15314 0.89567 0.38498 0.0
C1292 C 0.12287 0.89045 0.38516 0.0
C1293 C 0.16394 0.92431 0.38671 0.0
C1294 C 0.10383 0.91381 0.39031 0.0
C1295 C 0.11446 0.94221 0.39268 0.0
H1296 H 0.03656 0.19301 0.38465 0.0
H1297 H 0.99329 0.10929 0.38377 0.0
H1298 H 0.03992 0.08458 0.38765 0.0
H1299 H 0.09325 0.08639 0.38394 0.0
H1300 H 0.13682 0.16986 0.38566 0.0
H1301 H 0.09006 0.19467 0.38934 0.0
C1302 C 0.03723 0.16941 0.38601 0.0
C1303 C 0.01137 0.15316 0.38319 0.0
C1304 C 0.06433 0.15509 0.38805 0.0
C1305 C 0.01279 0.12251 0.38532 0.0
C1306 C 0.03954 0.10823 0.38748 0.0
C1307 C 0.09258 0.10997 0.38573 0.0
C1308 C 0.11856 0.12614 0.384 0.0
C1309 C 0.06552 0.12425 0.38767 0.0
C1310 C 0.11723 0.15671 0.38676 0.0
C1311 C 0.0904 0.17103 0.38869 0.0
H1312 H 0.80139 0.02098 0.37122 0.0
H1313 H 0.88509 0.97796 0.37429 0.0
H1314 H 0.9095 0.0247 0.37881 0.0
H1315 H 0.90782 0.0778 0.37478 0.0
H1316 H 0.82472 0.12161 0.37221 0.0
H1317 H 0.79944 0.07474 0.37507 0.0
C1318 C 0.82487 0.02182 0.37356 0.0
C1319 C 0.84139 0.99608 0.37168 0.0
C1320 C 0.839 0.04897 0.37591 0.0
C1321 C 0.87184 0.99752 0.37502 0.0
C1322 C 0.88591 0.02425 0.37759 0.0
C1323 C 0.88418 0.07707 0.3754 0.0
C1324 C 0.86817 0.10295 0.37286 0.0
C1325 C 0.86983 0.05013 0.37688 0.0
C1326 C 0.83755 0.10188 0.37409 0.0
C1327 C 0.82306 0.07507 0.37554 0.0
H1328 H 0.88229 0.81535 0.39046 0.0
H1329 H 0.90472 0.90609 0.40024 0.0
H1330 H 0.95497 0.89286 0.4099 0.0
H1331 H 0.99389 0.85713 0.40375 0.0
H1332 H 0.97197 0.76661 0.39128 0.0
H1333 H 0.92036 0.77798 0.39539 0.0
C1334 C 0.89791 0.83209 0.39575 0.0
C1335 C 0.89016 0.86164 0.39383 0.0
C1336 C 0.9271 0.82441 0.40028 0.0
C1337 C 0.91047 0.88317 0.40099 0.0
C1338 C 0.93925 0.87565 0.40639 0.0
C1339 C 0.97788 0.83973 0.40273 0.0
C1340 C 0.98671 0.81135 0.39613 0.0
C1341 C 0.94816 0.84655 0.4042 0.0
C1342 C 0.96578 0.78886 0.39572 0.0
C1343 C 0.93615 0.79535 0.39789 0.0
H1344 H 0.8507 0.00374 0.88827 0.0
H1345 H 0.76076 0.97824 0.87901 0.0
H1346 H 0.77458 0.92687 0.88247 0.0
H1347 H 0.81344 0.88954 0.87905 0.0
H1348 H 0.90339 0.91627 0.88428 0.0
H1349 H 0.88844 0.96663 0.89174 0.0
C1350 C 0.83399 0.98699 0.88763 0.0
C1351 C 0.80486 0.99481 0.88281 0.0
C1352 C 0.84223 0.95758 0.88852 0.0
C1353 C 0.78341 0.97286 0.88254 0.0
C1354 C 0.79134 0.94342 0.88426 0.0
C1355 C 0.82963 0.9063 0.88266 0.0
C1356 C 0.85943 0.89942 0.88088 0.0
C1357 C 0.82086 0.93552 0.88588 0.0
C1358 C 0.88032 0.92125 0.88534 0.0
C1359 C 0.87179 0.95003 0.88952 0.0
H1360 H 0.01847 0.8053 0.88027 0.0
H1361 H 0.97699 0.88988 0.88161 0.0
H1362 H 0.02425 0.91347 0.88597 0.0
H1363 H 0.07725 0.91051 0.88142 0.0
H1364 H 0.11905 0.8262 0.8791 0.0
H1365 H 0.07184 0.80219 0.88364 0.0
C1366 C 0.01968 0.82883 0.88224 0.0
C1367 C 0.99428 0.8458 0.8799 0.0
C1368 C 0.04705 0.8424 0.88418 0.0
C1369 C 0.99626 0.87628 0.88278 0.0
C1370 C 0.0233 0.88986 0.88521 0.0
C1371 C 0.07609 0.88689 0.88242 0.0
C1372 C 0.10151 0.87019 0.8793 0.0
C1373 C 0.04887 0.87321 0.8846 0.0
C1374 C 0.09976 0.83961 0.88121 0.0
C1375 C 0.07273 0.82582 0.88366 0.0
H1376 H 0.09183 0.09165 0.8964 0.0
H1377 H 0.17313 0.13649 0.88265 0.0
H1378 H 0.19966 0.09072 0.88632 0.0
H1379 H 0.19885 0.03685 0.88608 0.0
H1380 H 0.11767 0.99236 0.90142 0.0
H1381 H 0.09252 0.03884 0.90502 0.0
C1382 C 0.11541 0.09153 0.89485 0.0
C1383 C 0.13024 0.11752 0.88879 0.0
C1384 C 0.13073 0.06499 0.89697 0.0
C1385 C 0.16093 0.11691 0.8872 0.0
C1386 C 0.17624 0.09061 0.88912 0.0
C1387 C 0.17587 0.0373 0.89101 0.0
C1388 C 0.16017 0.01098 0.89277 0.0
C1389 C 0.16125 0.06431 0.89294 0.0
C1390 C 0.13035 0.01218 0.8994 0.0
C1391 C 0.11579 0.03883 0.90138 0.0
H1392 H 0.87638 0.16825 0.88372 0.0
H1393 H 0.90267 0.07845 0.87394 0.0
H1394 H 0.95336 0.09195 0.88122 0.0
H1395 H 0.99047 0.13006 0.88231 0.0
H1396 H 0.96461 0.22032 0.88934 0.0
H1397 H 0.91361 0.20566 0.892 0.0
C1398 C 0.89309 0.15152 0.88379 0.0
C1399 C 0.88581 0.12251 0.87764 0.0
C1400 C 0.92238 0.15954 0.88727 0.0
C1401 C 0.90774 0.10106 0.87808 0.0
C1402 C 0.93677 0.10875 0.88223 0.0
C1403 C 0.97379 0.14655 0.885 0.0
C1404 C 0.98138 0.1763 0.88486 0.0
C1405 C 0.94444 0.13809 0.88558 0.0
C1406 C 0.95944 0.19726 0.88895 0.0
C1407 C 0.93018 0.18892 0.89031 0.0
H1408 H 0.79305 0.04629 0.58422 0.0
H1409 H 0.87297 0.99705 0.59029 0.0
H1410 H 0.90116 0.04004 0.57861 0.0
H1411 H 0.90363 0.09295 0.57574 0.0
H1412 H 0.82419 0.14332 0.57262 0.0
H1413 H 0.79547 0.09857 0.57284 0.0
C1414 C 0.81656 0.04485 0.58234 0.0
C1415 C 0.83095 0.01882 0.58888 0.0
C1416 C 0.83282 0.06995 0.57625 0.0
C1417 C 0.86142 0.01711 0.58606 0.0
C1418 C 0.87759 0.04166 0.5793 0.0
C1419 C 0.88006 0.09421 0.57435 0.0
C1420 C 0.86614 0.1215 0.57514 0.0
C1421 C 0.86363 0.06849 0.57573 0.0
C1422 C 0.83558 0.12262 0.57257 0.0
C1423 C 0.81905 0.097 0.57298 0.0
H1424 H 0.86874 0.84211 0.58879 0.0
H1425 H 0.90351 0.92915 0.59674 0.0
H1426 H 0.95296 0.91031 0.59217 0.0
H1427 H 0.98612 0.86882 0.59312 0.0
H1428 H 0.95217 0.78117 0.58849 0.0
H1429 H 0.90269 0.80052 0.58384 0.0
C1430 C 0.88712 0.857 0.58879 0.0
C1431 C 0.88252 0.88695 0.59338 0.0
C1432 C 0.91566 0.84585 0.58705 0.0
C1433 C 0.90653 0.90598 0.59351 0.0
C1434 C 0.93481 0.89522 0.59096 0.0
C1435 C 0.96798 0.85388 0.59062 0.0
C1436 C 0.97281 0.82357 0.59166 0.0
C1437 C 0.93964 0.86511 0.58887 0.0
C1438 C 0.9491 0.80459 0.58789 0.0
C1439 C 0.92075 0.81566 0.58545 0.0
H1440 H 0.15623 0.87514 0.58979 0.0
H1441 H 0.06766 0.90702 0.58849 0.0
H1442 H 0.0853 0.95703 0.5859 0.0
H1443 H 0.12541 0.99174 0.59157 0.0
H1444 H 0.21405 0.96034 0.59372 0.0
H1445 H 0.19684 0.91034 0.58792 0.0
C1446 C 0.14077 0.89294 0.58817 0.0
C1447 C 0.11064 0.88725 0.5899 0.0
C1448 C 0.15106 0.92188 0.58725 0.0
C1449 C 0.09097 0.9107 0.58765 0.0
C1450 C 0.10103 0.93939 0.58627 0.0
C1451 C 0.14103 0.97403 0.59026 0.0
C1452 C 0.17092 0.97977 0.59359 0.0
C1453 C 0.13098 0.94527 0.58731 0.0
C1454 C 0.19088 0.9566 0.59136 0.0
C1455 C 0.18104 0.92791 0.58821 0.0
H1456 H 0.12041 0.1633 0.59071 0.0
H1457 H 0.08876 0.07462 0.58855 0.0
H1458 H 0.03972 0.09206 0.57903 0.0
H1459 H 0.00485 0.13219 0.57914 0.0
H1460 H 0.03564 0.22103 0.58477 0.0
H1461 H 0.08597 0.20382 0.58428 0.0
C1462 C 0.10294 0.14777 0.58749 0.0
C1463 C 0.10814 0.11772 0.59081 0.0
C1464 C 0.07452 0.15799 0.58288 0.0
C1465 C 0.08525 0.09788 0.58653 0.0
C1466 C 0.05718 0.10784 0.58111 0.0
C1467 C 0.0225 0.14794 0.57964 0.0
C1468 C 0.01634 0.17785 0.58263 0.0
C1469 C 0.05135 0.13785 0.58044 0.0
C1470 C 0.03963 0.19785 0.58283 0.0
C1471 C 0.06849 0.188 0.58273 0.0
H1472 H 0.63385 0.50747 0.59505 0.0
H1473 H 0.72208 0.53641 0.60868 0.0
H1474 H 0.706 0.5872 0.60668 0.0
H1475 H 0.66563 0.62252 0.60934 0.0
H1476 H 0.57708 0.59259 0.59911 0.0
H1477 H 0.59461 0.54315 0.59143 0.0
C1478 C 0.64976 0.52485 0.59703 0.0
C1479 C 0.67905 0.51805 0.60258 0.0
C1480 C 0.64017 0.5539 0.59696 0.0
C1481 C 0.69938 0.54092 0.60457 0.0
C1482 C 0.69012 0.57002 0.60369 0.0
C1483 C 0.65018 0.60535 0.60482 0.0
C1484 C 0.62 0.61122 0.60529 0.0
C1485 C 0.66036 0.57669 0.60119 0.0
C1486 C 0.60037 0.58865 0.59929 0.0
C1487 C 0.61038 0.56033 0.59491 0.0
H1488 H 0.3786 0.67301 0.60038 0.0
H1489 H 0.40762 0.58366 0.59524 0.0
H1490 H 0.45765 0.59993 0.58863 0.0
H1491 H 0.49368 0.63864 0.59361 0.0
H1492 H 0.46548 0.72795 0.60192 0.0
H1493 H 0.41473 0.71276 0.59716 0.0
C1494 C 0.39576 0.65719 0.59697 0.0
C1495 C 0.38963 0.62721 0.59885 0.0
C1496 C 0.42473 0.6667 0.59411 0.0
C1497 C 0.41199 0.60688 0.59435 0.0
C1498 C 0.4406 0.61615 0.59063 0.0
C1499 C 0.47648 0.65489 0.59373 0.0
C1500 C 0.48327 0.68422 0.59883 0.0
C1501 C 0.44738 0.6459 0.59195 0.0
C1502 C 0.46084 0.70514 0.59831 0.0
C1503 C 0.43175 0.69644 0.59582 0.0
H1504 H 0.29396 0.46721 0.59548 0.0
H1505 H 0.37598 0.51289 0.58936 0.0
H1506 H 0.40171 0.46692 0.58418 0.0
H1507 H 0.40195 0.41376 0.59039 0.0
H1508 H 0.31989 0.36786 0.5951 0.0
H1509 H 0.2935 0.41358 0.59121 0.0
C1510 C 0.31729 0.46717 0.59209 0.0
C1511 C 0.33303 0.49342 0.59367 0.0
C1512 C 0.33222 0.44047 0.58934 0.0
C1513 C 0.36331 0.49293 0.58893 0.0
C1514 C 0.37817 0.4666 0.58604 0.0
C1515 C 0.37831 0.41365 0.58982 0.0
C1516 C 0.36312 0.3874 0.59378 0.0
C1517 C 0.36304 0.44017 0.58769 0.0
C1518 C 0.33238 0.3877 0.59246 0.0
C1519 C 0.31711 0.41396 0.59039 0.0
H1520 H 0.61425 0.33719 0.60535 0.0
H1521 H 0.5855 0.4268 0.60196 0.0
H1522 H 0.53522 0.41075 0.59668 0.0
H1523 H 0.49904 0.37189 0.60098 0.0
H1524 H 0.52728 0.28226 0.60656 0.0
H1525 H 0.57799 0.29769 0.6024 0.0
C1526 C 0.59711 0.35321 0.6027 0.0
C1527 C 0.6036 0.38316 0.60459 0.0
C1528 C 0.56802 0.34383 0.60044 0.0
C1529 C 0.58108 0.4036 0.60103 0.0
C1530 C 0.55226 0.39445 0.59808 0.0
C1531 C 0.51621 0.35562 0.60077 0.0
C1532 C 0.50932 0.32603 0.60471 0.0
C1533 C 0.54537 0.36469 0.59906 0.0
C1534 C 0.53188 0.30524 0.60384 0.0
C1535 C 0.56097 0.31406 0.60162 0.0
H1536 H 0.66237 0.38339 0.90101 0.0
H1537 H 0.57801 0.41411 0.92596 0.0
H1538 H 0.59811 0.46259 0.93364 0.0
H1539 H 0.63599 0.49801 0.92299 0.0
H1540 H 0.71909 0.4685 0.894 0.0
H1541 H 0.70359 0.41778 0.899 0.0
C1542 C 0.64867 0.40042 0.90905 0.0
C1543 C 0.61863 0.39544 0.91237 0.0
C1544 C 0.66009 0.42863 0.91226 0.0
C1545 C 0.6011 0.41763 0.92284 0.0
C1546 C 0.61255 0.44538 0.92712 0.0
C1547 C 0.65102 0.48044 0.91849 0.0
C1548 C 0.67828 0.48692 0.90744 0.0
C1549 C 0.64148 0.4515 0.92028 0.0
C1550 C 0.69785 0.46407 0.90228 0.0
C1551 C 0.68886 0.43504 0.90488 0.0
H1552 H 0.49498 0.63515 0.9134 0.0
H1553 H 0.52686 0.72345 0.90603 0.0
H1554 H 0.57646 0.70662 0.9139 0.0
H1555 H 0.6111 0.66599 0.91285 0.0
H1556 H 0.57925 0.57742 0.91702 0.0
H1557 H 0.52945 0.59533 0.92119 0.0
C1558 C 0.51266 0.65086 0.91411 0.0
C1559 C 0.50726 0.68039 0.90829 0.0
C1560 C 0.54128 0.64093 0.91779 0.0
C1561 C 0.53036 0.7005 0.90998 0.0
C1562 C 0.55883 0.69087 0.91435 0.0
C1563 C 0.59342 0.65055 0.9155 0.0
C1564 C 0.59888 0.62036 0.91378 0.0
C1565 C 0.56468 0.66095 0.91677 0.0
C1566 C 0.57567 0.60077 0.91771 0.0
C1567 C 0.5471 0.61099 0.91992 0.0
H1568 H 0.4001 0.59018 0.89874 0.0
H1569 H 0.31875 0.63754 0.89792 0.0
H1570 H 0.29177 0.59184 0.9007 0.0
H1571 H 0.2912 0.5383 0.89571 0.0
H1572 H 0.37275 0.49132 0.89566 0.0
H1573 H 0.39942 0.5368 0.90128 0.0
C1574 C 0.37649 0.59063 0.89977 0.0
C1575 C 0.36162 0.61739 0.89754 0.0
C1576 C 0.36097 0.56417 0.90088 0.0
C1577 C 0.33095 0.61737 0.8993 0.0
C1578 C 0.31539 0.59115 0.90075 0.0
C1579 C 0.31473 0.53791 0.89767 0.0
C1580 C 0.3299 0.5114 0.89472 0.0
C1581 C 0.33014 0.56436 0.90039 0.0
C1582 C 0.36046 0.51141 0.89741 0.0
C1583 C 0.37581 0.53747 0.90055 0.0
H1584 H 0.39154 0.40349 0.90378 0.0
H1585 H 0.35303 0.32138 0.88155 0.0
H1586 H 0.39849 0.29609 0.89149 0.0
H1587 H 0.45129 0.29904 0.89881 0.0
H1588 H 0.48958 0.38129 0.92139 0.0
H1589 H 0.44191 0.40448 0.9199 0.0
C1590 C 0.393 0.37998 0.90162 0.0
C1591 C 0.36931 0.3644 0.89142 0.0
C1592 C 0.41918 0.36558 0.90736 0.0
C1593 C 0.37112 0.33388 0.88921 0.0
C1594 C 0.39714 0.31941 0.89479 0.0
C1595 C 0.44913 0.3218 0.90422 0.0
C1596 C 0.47414 0.33857 0.90934 0.0
C1597 C 0.42168 0.33524 0.90281 0.0
C1598 C 0.47079 0.36795 0.91677 0.0
C1599 C 0.44353 0.38135 0.91576 0.0
H1600 H 0.36838 0.49599 0.40198 0.0
H1601 H 0.28072 0.46945 0.38297 0.0
H1602 H 0.29567 0.41823 0.38399 0.0
H1603 H 0.33572 0.38197 0.38238 0.0
H1604 H 0.4237 0.41013 0.39833 0.0
H1605 H 0.40657 0.45955 0.40644 0.0
C1606 C 0.35235 0.47899 0.3986 0.0
C1607 C 0.32364 0.48659 0.39189 0.0
C1608 C 0.36133 0.4498 0.39819 0.0
C1609 C 0.30303 0.46426 0.38807 0.0
C1610 C 0.31165 0.43494 0.38837 0.0
C1611 C 0.35097 0.39882 0.38823 0.0
C1612 C 0.38099 0.39256 0.38929 0.0
C1613 C 0.34105 0.42756 0.39218 0.0
C1614 C 0.40055 0.41455 0.39691 0.0
C1615 C 0.39078 0.44282 0.40159 0.0
H1616 H 0.60026 0.40095 0.40742 0.0
H1617 H 0.64298 0.31755 0.40001 0.0
H1618 H 0.59646 0.29255 0.40587 0.0
H1619 H 0.54277 0.29494 0.40486 0.0
H1620 H 0.50038 0.37859 0.41255 0.0
H1621 H 0.54753 0.40268 0.41549 0.0
C1622 C 0.59948 0.3773 0.40774 0.0
C1623 C 0.62495 0.3612 0.4028 0.0
C1624 C 0.5726 0.36301 0.41092 0.0
C1625 C 0.62368 0.33053 0.40367 0.0
C1626 C 0.59701 0.31617 0.40684 0.0
C1627 C 0.5438 0.3183 0.40806 0.0
C1628 C 0.51801 0.33494 0.40778 0.0
C1629 C 0.57114 0.33223 0.4093 0.0
C1630 C 0.51986 0.36523 0.41216 0.0
C1631 C 0.54686 0.37912 0.41372 0.0
H1632 H 0.66516 0.61017 0.4095 0.0
H1633 H 0.57691 0.57746 0.41213 0.0
H1634 H 0.59505 0.52756 0.41379 0.0
H1635 H 0.63526 0.49363 0.40498 0.0
H1636 H 0.72338 0.52661 0.40092 0.0
H1637 H 0.70594 0.57574 0.40963 0.0
C1638 C 0.64986 0.59223 0.41133 0.0
C1639 C 0.61972 0.59757 0.40986 0.0
C1640 C 0.66039 0.56347 0.41137 0.0
C1641 C 0.60027 0.57399 0.41265 0.0
C1642 C 0.61061 0.54536 0.4134 0.0
C1643 C 0.65073 0.51145 0.40651 0.0
C1644 C 0.68046 0.50648 0.40149 0.0
C1645 C 0.64054 0.53986 0.41115 0.0
C1646 C 0.70027 0.52977 0.4042 0.0
C1647 C 0.69033 0.55799 0.40915 0.0
H1648 H 0.38225 0.66983 0.40862 0.0
H1649 H 0.40775 0.58065 0.42307 0.0
H1650 H 0.45814 0.59604 0.42924 0.0
H1651 H 0.49555 0.6322 0.41884 0.0
H1652 H 0.47034 0.72052 0.40032 0.0
H1653 H 0.41936 0.70828 0.40809 0.0
C1654 C 0.3986 0.65389 0.4141 0.0
C1655 C 0.39149 0.62402 0.41451 0.0
C1656 C 0.42778 0.66268 0.41628 0.0
C1657 C 0.41283 0.60371 0.42203 0.0
C1658 C 0.44171 0.61247 0.42538 0.0
C1659 C 0.47899 0.64899 0.41716 0.0
C1660 C 0.48659 0.67691 0.40806 0.0
C1661 C 0.44964 0.64152 0.42064 0.0
C1662 C 0.46504 0.69867 0.40679 0.0
C1663 C 0.4358 0.69164 0.41108 0.0
H1664 H 0.29219 0.53538 0.10942 0.0
H1665 H 0.37192 0.49054 0.08974 0.0
H1666 H 0.39679 0.53689 0.08378 0.0
H1667 H 0.39839 0.58945 0.09256 0.0
H1668 H 0.31883 0.63492 0.11118 0.0
H1669 H 0.29147 0.58933 0.10867 0.0
C1670 C 0.31469 0.53578 0.10296 0.0
C1671 C 0.33036 0.50955 0.1008 0.0
C1672 C 0.32915 0.56269 0.09982 0.0
C1673 C 0.3595 0.51046 0.09218 0.0
C1674 C 0.37385 0.53698 0.08883 0.0
C1675 C 0.37494 0.58945 0.09535 0.0
C1676 C 0.36079 0.61535 0.10249 0.0
C1677 C 0.35932 0.56315 0.09398 0.0
C1678 C 0.33031 0.6152 0.10572 0.0
C1679 C 0.31463 0.58907 0.10449 0.0
H1680 H 0.38061 0.33001 0.09905 0.0
H1681 H 0.41378 0.41796 0.09486 0.0
H1682 H 0.46369 0.39968 0.09693 0.0
H1683 H 0.49651 0.36 0.10937 0.0
H1684 H 0.46312 0.27226 0.11615 0.0
H1685 H 0.41468 0.28912 0.10357 0.0
C1686 C 0.39879 0.34506 0.09749 0.0
C1687 C 0.39364 0.37526 0.09727 0.0
C1688 C 0.42733 0.3345 0.10003 0.0
C1689 C 0.41734 0.39459 0.09531 0.0
C1690 C 0.44583 0.38418 0.09681 0.0
C1691 C 0.4787 0.34452 0.10777 0.0
C1692 C 0.48312 0.31513 0.11441 0.0
C1693 C 0.4509 0.35439 0.10083 0.0
C1694 C 0.46012 0.29512 0.11152 0.0
C1695 C 0.43242 0.30473 0.10433 0.0
H1696 H 0.62197 0.49181 0.10713 0.0
H1697 H 0.71079 0.46358 0.09539 0.0
H1698 H 0.69457 0.41301 0.09256 0.0
H1699 H 0.65657 0.3765 0.10123 0.0
H1700 H 0.56835 0.40487 0.11574 0.0
H1701 H 0.58288 0.45552 0.10924 0.0
C1702 C 0.63774 0.47472 0.10329 0.0
C1703 C 0.66763 0.48151 0.10201 0.0
C1704 C 0.6284 0.44555 0.10253 0.0
C1705 C 0.68767 0.459 0.09686 0.0
C1706 C 0.67844 0.43 0.09532 0.0
C1707 C 0.64036 0.39368 0.10226 0.0
C1708 C 0.61153 0.38693 0.10941 0.0
C1709 C 0.64905 0.42292 0.09934 0.0
C1710 C 0.5908 0.4095 0.11066 0.0
C1711 C 0.59909 0.43851 0.10701 0.0
H1712 H 0.53587 0.70188 0.1029 0.0
H1713 H 0.49111 0.62016 0.09049 0.0
H1714 H 0.53758 0.59518 0.0856 0.0
H1715 H 0.59034 0.59492 0.09297 0.0
H1716 H 0.63545 0.6762 0.10608 0.0
H1717 H 0.58963 0.70287 0.10197 0.0
C1718 C 0.53623 0.67878 0.09836 0.0
C1719 C 0.50996 0.66286 0.09775 0.0
C1720 C 0.56318 0.66429 0.09606 0.0
C1721 C 0.51095 0.63294 0.0916 0.0
C1722 C 0.53757 0.61854 0.08888 0.0
C1723 C 0.59027 0.61854 0.09431 0.0
C1724 C 0.61621 0.63342 0.10037 0.0
C1725 C 0.56377 0.63372 0.09238 0.0
C1726 C 0.61581 0.6641 0.10157 0.0
C1727 C 0.58952 0.6794 0.09943 0.0
H1728 H 0.00613 0.23815 0.19278 0.0
H1729 H 0.07381 0.17614 0.21154 0.0
H1730 H 0.05878 0.17585 0.2565 0.0
H1731 H 0.02255 0.18767 0.28925 0.0
H1732 H 0.95519 0.25025 0.27252 0.0
H1733 H 0.974 0.2562 0.22831 0.0
C1734 C 0.01784 0.22511 0.20687 0.0
C1735 C 0.0404 0.20653 0.19869 0.0
C1736 C 0.00899 0.22488 0.23303 0.0
C1737 C 0.05572 0.18997 0.21719 0.0
C1738 C 0.04726 0.1898 0.24298 0.0
C1739 C 0.01244 0.20306 0.27604 0.0
C1740 C 0.98754 0.21829 0.28379 0.0
C1741 C 0.02328 0.20626 0.25089 0.0
C1742 C 0.97457 0.23839 0.26679 0.0
C1743 C 0.98517 0.2416 0.2415 0.0
H1744 H 0.75875 0.97904 0.27501 0.0
H1745 H 0.82265 0.91437 0.25304 0.0
H1746 H 0.82089 0.93096 0.20848 0.0
H1747 H 0.8059 0.96716 0.17685 0.0
H1748 H 0.74256 0.03261 0.19739 0.0
H1749 H 0.73896 0.01213 0.24117 0.0
C1750 C 0.77189 0.96836 0.26035 0.0
C1751 C 0.79133 0.94604 0.26746 0.0
C1752 C 0.77103 0.97823 0.23453 0.0
C1753 C 0.80806 0.93215 0.24822 0.0
C1754 C 0.80703 0.94151 0.22267 0.0
C1755 C 0.79098 0.97667 0.19082 0.0
C1756 C 0.77484 0.00149 0.18414 0.0
C1757 C 0.78937 0.9651 0.21581 0.0
C1758 C 0.75522 0.01341 0.20218 0.0
C1759 C 0.75334 0.00185 0.22724 0.0
H1760 H 0.95169 0.80194 0.21339 0.0
H1761 H 0.00758 0.73428 0.18345 0.0
H1762 H 0.02867 0.72724 0.22676 0.0
H1763 H 0.03448 0.74455 0.27215 0.0
H1764 H 0.97824 0.81308 0.30026 0.0
H1765 H 0.95371 0.81537 0.2586 0.0
C1766 C 0.96841 0.78552 0.21631 0.0
C1767 C 0.97857 0.76909 0.19526 0.0
C1768 C 0.98022 0.78172 0.24094 0.0
C1769 C -0.00032 0.74739 0.19941 0.0
C1770 C 0.0117 0.74341 0.22412 0.0
C1771 C 0.0163 0.75932 0.26926 0.0
C1772 C 0.00825 0.7788 0.28904 0.0
C1773 C 0.00257 0.76095 0.24494 0.0
C1774 C 0.98488 0.79807 0.28515 0.0
C1775 C 0.97089 0.79944 0.26136 0.0
H1776 H 0.18643 0.03686 0.26236 0.0
H1777 H 0.27105 0.00389 0.28397 0.0
H1778 H 0.27666 0.98207 0.24083 0.0
H1779 H 0.25553 0.96967 0.19777 0.0
H1780 H 0.17049 0.00331 0.17792 0.0
H1781 H 0.16721 0.02775 0.21951 0.0
C1782 C 0.20615 0.02488 0.25775 0.0
C1783 C 0.22805 0.02156 0.27651 0.0
C1784 C 0.20917 0.01257 0.23313 0.0
C1785 C 0.25374 0.00656 0.26991 0.0
C1786 C 0.25693 0.99408 0.24526 0.0
C1787 C 0.23657 0.98277 0.20246 0.0
C1788 C 0.21316 0.98441 0.18489 0.0
C1789 C 0.23456 0.9966 0.22679 0.0
C1790 C 0.18864 0.00138 0.19122 0.0
C1791 C 0.18671 0.01539 0.21502 0.0
H1792 H 0.94482 0.75338 0.76486 0.0
H1793 H 0.00486 0.81577 0.79739 0.0
H1794 H 0.03532 0.81295 0.75877 0.0
H1795 H 0.04125 0.79809 0.71411 0.0
H1796 H 0.98027 0.7384 0.67909 0.0
H1797 H 0.95401 0.7342 0.72042 0.0
C1798 C 0.96494 0.76572 0.76354 0.0
C1799 C 0.97275 0.78483 0.78364 0.0
C1800 C 0.98189 0.7647 0.74082 0.0
C1801 C -0.00141 0.80107 0.78193 0.0
C1802 C 0.0159 0.79951 0.7599 0.0
C1803 C 0.02238 0.78388 0.71557 0.0
C1804 C 0.0123 0.76902 0.69358 0.0
C1805 C 0.00719 0.78226 0.73894 0.0
C1806 C 0.9883 0.75016 0.69582 0.0
C1807 C 0.97321 0.74794 0.71937 0.0
H1808 H 0.19753 0.05205 0.71517 0.0
H1809 H 0.25588 0.98697 0.68458 0.0
H1810 H 0.26156 0.96598 0.72821 0.0
H1811 H 0.24435 0.96278 0.77397 0.0
H1812 H 0.18359 0.02713 0.80234 0.0
H1813 H 0.18472 0.0521 0.76067 0.0
C1814 C 0.21175 0.0334 0.71807 0.0
C1815 C 0.22584 0.02067 0.69674 0.0
C1816 C 0.21436 0.02137 0.74281 0.0
C1817 C 0.24472 0.99701 0.70077 0.0
C1818 C 0.24779 0.98497 0.72565 0.0
C1819 C 0.23201 0.9827 0.77112 0.0
C1820 C 0.21383 0.99315 0.79108 0.0
C1821 C 0.23198 0.99646 0.7467 0.0
C1822 C 0.19759 0.0187 0.78718 0.0
C1823 C 0.19814 0.03291 0.76337 0.0
H1824 H 0.96959 0.2482 0.70051 0.0
H1825 H 0.00431 0.16427 0.6783 0.0
H1826 H 0.02703 0.15888 0.72049 0.0
H1827 H 0.03523 0.17646 0.76419 0.0
H1828 H 0.00107 0.26013 0.78761 0.0
H1829 H 0.97999 0.26709 0.74453 0.0
C1830 C 0.98246 0.22897 0.70485 0.0
C1831 C 0.98502 0.20659 0.68637 0.0
C1832 C 0.9953 0.22574 0.72945 0.0
C1833 C 0.00168 0.18169 0.69229 0.0
C1834 C 0.0147 0.17853 0.71643 0.0
C1835 C 0.02309 0.19621 0.75999 0.0
C1836 C 0.01947 0.21755 0.77922 0.0
C1837 C 0.01121 0.20012 0.73528 0.0
C1838 C 0.00409 0.24324 0.77319 0.0
C1839 C 0.99204 0.24726 0.74855 0.0
H1840 H 0.77429 0.95603 0.71467 0.0
H1841 H 0.74066 0.02963 0.67229 0.0
H1842 H 0.73069 0.0553 0.71309 0.0
H1843 H 0.73868 0.05913 0.76054 0.0
H1844 H 0.77294 0.98508 0.80194 0.0
H1845 H 0.77475 0.95676 0.76195 0.0
C1846 C 0.76436 0.97753 0.71446 0.0
C1847 C 0.75869 0.99128 0.69075 0.0
C1848 C 0.75867 0.9919 0.73782 0.0
C1849 C 0.74534 0.01883 0.69048 0.0
C1850 C 0.73972 0.03347 0.71375 0.0
C1851 C 0.74536 0.03642 0.7608 0.0
C1852 C 0.75544 0.02395 0.78395 0.0
C1853 C 0.74716 0.02057 0.73753 0.0
C1854 C 0.76478 0.99481 0.78423 0.0
C1855 C 0.76614 0.97878 0.76138 0.0
H1856 H 0.4629 0.75612 0.78383 0.0
H1857 H 0.51221 0.68162 0.81019 0.0
H1858 H 0.53732 0.67902 0.76878 0.0
H1859 H 0.54231 0.69454 0.72412 0.0
H1860 H 0.49368 0.76825 0.69559 0.0
H1861 H 0.47147 0.77473 0.73868 0.0
C1862 C 0.47956 0.73975 0.7806 0.0
C1863 C 0.48552 0.71896 0.80012 0.0
C1864 C 0.49372 0.73796 0.75622 0.0
C1865 C 0.50701 0.69771 0.79552 0.0
C1866 C 0.52136 0.69614 0.77178 0.0
C1867 C 0.52687 0.71214 0.72724 0.0
C1868 C 0.51924 0.73055 0.70648 0.0
C1869 C 0.51431 0.71557 0.75182 0.0
C1870 C 0.4998 0.75366 0.71115 0.0
C1871 C 0.48705 0.75727 0.73579 0.0
H1872 H 0.24878 0.54703 0.71621 0.0
H1873 H 0.30207 0.47909 0.68321 0.0
H1874 H 0.3022 0.4531 0.72444 0.0
H1875 H 0.29247 0.45262 0.77065 0.0
H1876 H 0.24022 0.52016 0.8054 0.0
H1877 H 0.2342 0.54346 0.76277 0.0
C1878 C 0.25961 0.5261 0.718 0.0
C1879 C 0.27519 0.51472 0.69678 0.0
C1880 C 0.26032 0.51163 0.74213 0.0
C1881 C 0.28975 0.48798 0.69929 0.0
C1882 C 0.29005 0.47328 0.72288 0.0
C1883 C 0.2796 0.47237 0.7689 0.0
C1884 C 0.26731 0.48502 0.79115 0.0
C1885 C 0.27632 0.4854 0.74457 0.0
C1886 C 0.25008 0.51018 0.78854 0.0
C1887 C 0.24672 0.52348 0.76419 0.0
H1888 H 0.51644 0.26308 0.79113 0.0
H1889 H 0.47663 0.34517 0.81191 0.0
H1890 H 0.4541 0.34845 0.76945 0.0
H1891 H 0.44777 0.3299 0.72561 0.0
H1892 H 0.4868 0.24789 0.70376 0.0
H1893 H 0.50739 0.24275 0.74727 0.0
C1894 C 0.50246 0.28141 0.78648 0.0
C1895 C 0.49849 0.30393 0.80474 0.0
C1896 C 0.48966 0.28343 0.76167 0.0
C1897 C 0.48038 0.32764 0.79825 0.0
C1898 C 0.46747 0.3296 0.7739 0.0
C1899 C 0.4608 0.31087 0.73027 0.0
C1900 C 0.46597 0.28951 0.71124 0.0
C1901 C 0.47243 0.30798 0.75529 0.0
C1902 C 0.48253 0.26477 0.71793 0.0
C1903 C 0.49433 0.26181 0.74284 0.0
H1904 H 0.68113 0.50835 0.70487 0.0
H1905 H 0.76405 0.46535 0.7141 0.0
H1906 H 0.76757 0.48427 0.75858 0.0
H1907 H 0.7443 0.50991 0.79632 0.0
H1908 H 0.65989 0.5499 0.78505 0.0
H1909 H 0.65973 0.53497 0.74021 0.0
C1910 C 0.70017 0.50316 0.71645 0.0
C1911 C 0.72212 0.48517 0.70619 0.0
C1912 C 0.70156 0.51327 0.74195 0.0
C1913 C 0.74682 0.4792 0.72146 0.0
C1914 C 0.74868 0.48981 0.74699 0.0
C1915 C 0.72601 0.51538 0.78395 0.0
C1916 C 0.70188 0.53051 0.79435 0.0
C1917 C 0.72577 0.50633 0.75772 0.0
C1918 C 0.67846 0.53767 0.77793 0.0
C1919 C 0.67836 0.52933 0.75211 0.0
H1920 H 0.47565 0.24103 0.2948 0.0
H1921 H 0.53892 0.30375 0.32158 0.0
H1922 H 0.5649 0.30059 0.28046 0.0
H1923 H 0.56408 0.28725 0.23504 0.0
H1924 H 0.49902 0.22787 0.20605 0.0
H1925 H 0.47934 0.22186 0.25004 0.0
C1926 C 0.49569 0.25315 0.2918 0.0
C1927 C 0.50544 0.27272 0.31085 0.0
C1928 C 0.50974 0.25218 0.26767 0.0
C1929 C 0.53113 0.2887 0.30694 0.0
C1930 C 0.54585 0.287 0.28347 0.0
C1931 C 0.54592 0.27256 0.23848 0.0
C1932 C 0.53249 0.25849 0.21757 0.0
C1933 C 0.53448 0.26998 0.26337 0.0
C1934 C 0.50944 0.23903 0.22205 0.0
C1935 C 0.49815 0.23578 0.24709 0.0
H1936 H 0.75243 0.50646 0.20857 0.0
H1937 H 0.66129 0.53001 0.2139 0.0
H1938 H 0.65953 0.51326 0.25813 0.0
H1939 H 0.68225 0.48992 0.29457 0.0
H1940 H 0.77265 0.46437 0.29126 0.0
H1941 H 0.77642 0.48439 0.24725 0.0
C1942 C 0.73228 0.50787 0.21948 0.0
C1943 C 0.70694 0.51891 0.20763 0.0
C1944 C 0.7312 0.49795 0.2453 0.0
C1945 C 0.68102 0.52097 0.22216 0.0
C1946 C 0.67994 0.51158 0.24762 0.0
C1947 C 0.70287 0.48872 0.28432 0.0
C1948 C 0.72699 0.47536 0.29598 0.0
C1949 C 0.70468 0.49966 0.2592 0.0
C1950 C 0.75371 0.47456 0.28262 0.0
C1951 C 0.75581 0.48582 0.25743 0.0
H1952 H 0.46539 0.67156 0.21879 0.0
H1953 H 0.50375 0.75361 0.196 0.0
H1954 H 0.52508 0.75904 0.23932 0.0
H1955 H 0.53429 0.7389 0.28334 0.0
H1956 H 0.49425 0.65694 0.30455 0.0
H1957 H 0.47208 0.65318 0.26212 0.0
C1958 C 0.47859 0.6906 0.22314 0.0
C1959 C 0.48343 0.71188 0.20411 0.0
C1960 C 0.49031 0.69369 0.2479 0.0
C1961 C 0.49995 0.73676 0.21032 0.0
C1962 C 0.51206 0.7399 0.23508 0.0
C1963 C 0.52029 0.72056 0.27874 0.0
C1964 C 0.5162 0.6981 0.29696 0.0
C1965 C 0.5075 0.71837 0.25403 0.0
C1966 C 0.49807 0.67436 0.29076 0.0
C1967 C 0.48531 0.67215 0.26651 0.0
H1968 H 0.3244 0.50059 0.20114 0.0
H1969 H 0.24073 0.46018 0.214 0.0
H1970 H 0.2365 0.48536 0.25582 0.0
H1971 H 0.25911 0.51555 0.29004 0.0
H1972 H 0.34329 0.55496 0.27578 0.0
H1973 H 0.34473 0.5334 0.23294 0.0
C1974 C 0.30519 0.49731 0.21309 0.0
C1975 C 0.28319 0.47824 0.20499 0.0
C1976 C 0.3031 0.51153 0.23679 0.0
C1977 C 0.25802 0.47471 0.22014 0.0
C1978 C 0.25568 0.48898 0.24398 0.0
C1979 C 0.27757 0.51964 0.27741 0.0
C1980 C 0.3013 0.53629 0.28624 0.0
C1981 C 0.27844 0.50696 0.25274 0.0
C1982 C 0.32501 0.54167 0.26965 0.0
C1983 C 0.32587 0.52946 0.24511 0.0
H1984 H 0.13253 0.22674 0.94476 0.0
H1985 H 0.04492 0.26091 0.94008 0.0
H1986 H 0.04138 0.2611 0.98709 0.0
H1987 H 0.06136 0.24713 0.02949 0.0
H1988 H 0.14896 0.21263 0.03356 0.0
H1989 H 0.15406 0.21719 0.98704 0.0
C1990 C 0.11278 0.23462 0.95396 0.0
C1991 C 0.08896 0.24337 0.93878 0.0
C1992 C 0.11065 0.23435 0.98103 0.0
C1993 C 0.06362 0.25376 0.95118 0.0
C1994 C 0.06147 0.25381 0.97814 0.0
C1995 C 0.08165 0.24088 0.02025 0.0
C1996 C 0.10446 0.22912 0.03512 0.0
C1997 C 0.08456 0.2434 -0.00674 0.0
C1998 C 0.13075 0.22141 0.02273 0.0
C1999 C 0.13381 0.22402 -0.00398 0.0
H2000 H 0.78819 0.13043 0.02654 0.0
H2001 H 0.73527 0.05247 0.03028 0.0
H2002 H 0.72639 0.05522 0.98404 0.0
H2003 H 0.73667 0.07707 0.94203 0.0
H2004 H 0.79017 0.15447 0.93744 0.0
H2005 H 0.79523 0.15478 0.98445 0.0
C2006 C 0.77448 0.11421 0.0173 0.0
C2007 C 0.76282 0.09108 0.03196 0.0
C2008 C 0.76953 0.11571 0.99047 0.0
C2009 C 0.74492 0.07036 0.01958 0.0
C2010 C 0.73973 0.07189 0.99305 0.0
C2011 C 0.74918 0.09425 0.95125 0.0
C2012 C 0.76325 0.11548 0.93608 0.0
C2013 C 0.75242 0.09407 0.97823 0.0
C2014 C 0.77914 0.13772 0.94854 0.0
C2015 C 0.78219 0.13786 0.97547 0.0
H2016 H 0.93288 0.75627 0.94169 0.0
H2017 H 0.8441 0.78791 0.94193 0.0
H2018 H 0.84161 0.78121 0.98864 0.0
H2019 H 0.86564 0.77009 0.02945 0.0
H2020 H 0.95493 0.73999 0.02966 0.0
H2021 H 0.95589 0.74189 0.98246 0.0
C2022 C 0.91291 0.7616 0.95189 0.0
C2023 C 0.88886 0.77295 0.93831 0.0
C2024 C 0.91166 0.75794 0.97877 0.0
C2025 C 0.86305 0.77937 0.95186 0.0
C2026 C 0.86157 0.77553 0.97859 0.0
C2027 C 0.88528 0.76363 0.01926 0.0
C2028 C 0.91029 0.75528 0.03315 0.0
C2029 C 0.88591 0.76536 0.99225 0.0
C2030 C 0.93539 0.74668 0.0195 0.0
C2031 C 0.93602 0.74789 0.99251 0.0
H2032 H 0.25577 0.9264 0.9432 0.0
H2033 H 0.19838 0.85217 0.9366 0.0
H2034 H 0.20188 0.84382 0.98328 0.0
H2035 H 0.21739 0.86076 0.0265 0.0
H2036 H 0.27469 0.93532 0.03235 0.0
H2037 H 0.2753 0.94005 0.98546 0.0
C2038 C 0.24418 0.90825 0.95192 0.0
C2039 C 0.22651 0.89022 0.93648 0.0
C2040 C 0.24621 0.90364 0.9787 0.0
C2041 C 0.21207 0.86647 0.94804 0.0
C2042 C 0.21399 0.86173 0.97476 0.0
C2043 C 0.23048 0.87768 0.01752 0.0
C2044 C 0.24563 0.89788 0.03307 0.0
C2045 C 0.23047 0.8806 0.99038 0.0
C2046 C 0.26249 0.91965 0.02098 0.0
C2047 C 0.26283 0.92246 -0.00589 0.0
H2048 H 0.12635 0.78127 0.52688 0.0
H2049 H 0.04324 0.73682 0.52974 0.0
H2050 H 0.0445 0.73012 0.48307 0.0
H2051 H 0.067 0.73999 0.44136 0.0
H2052 H 0.14915 0.78599 0.4377 0.0
H2053 H 0.15065 0.78826 0.48491 0.0
C2054 C 0.10857 0.76996 0.51736 0.0
C2055 C 0.08457 0.75992 0.53189 0.0
C2056 C 0.10925 0.76632 0.49038 0.0
C2057 C 0.06188 0.74509 0.51913 0.0
C2058 C 0.06257 0.74115 0.4924 0.0
C2059 C 0.0855 0.75021 0.45078 0.0
C2060 C 0.10776 0.76308 0.43587 0.0
C2061 C 0.08587 0.75213 0.47781 0.0
C2062 C 0.13161 0.77599 0.4486 0.0
C2063 C 0.13241 0.77747 0.47562 0.0
H2064 H 0.22352 0.12852 0.44633 0.0
H2065 H 0.26611 0.045 0.43798 0.0
H2066 H 0.26686 0.03899 0.48479 0.0
H2067 H 0.25256 0.05589 0.52817 0.0
H2068 H 0.20989 0.1395 0.53603 0.0
H2069 H 0.2122 0.14679 0.48957 0.0
C2070 C 0.23328 0.10914 0.45469 0.0
C2071 C 0.24447 0.08721 0.4385 0.0
C2072 C 0.23344 0.1056 0.48168 0.0
C2073 C 0.25713 0.06227 0.44985 0.0
C2074 C 0.25752 0.05871 0.4767 0.0
C2075 C 0.2439 0.07576 0.51976 0.0
C2076 C 0.23087 0.09689 0.53573 0.0
C2077 C 0.24522 0.07997 0.49281 0.0
C2078 C 0.21998 0.12266 0.52437 0.0
C2079 C 0.22124 0.12695 0.49769 0.0
H2080 H 0.86734 0.22439 0.52602 0.0
H2081 H 0.95007 0.26912 0.53145 0.0
H2082 H 0.95507 0.26771 0.48452 0.0
H2083 H 0.93844 0.24964 0.44246 0.0
H2084 H 0.85609 0.20445 0.43684 0.0
H2085 H 0.84853 0.2103 0.48336 0.0
C2086 C 0.88622 0.23436 0.51697 0.0
C2087 C 0.90843 0.24655 0.5324 0.0
C2088 C 0.88929 0.23302 0.48994 0.0
C2089 C 0.93271 0.25936 0.52018 0.0
C2090 C 0.93569 0.25846 0.4933 0.0
C2091 C 0.91877 0.24115 0.45136 0.0
C2092 C 0.89809 0.22625 0.43621 0.0
C2093 C 0.91456 0.24456 0.47809 0.0
C2094 C 0.87246 0.21588 0.44803 0.0
C2095 C 0.86812 0.21919 0.47465 0.0
H2096 H 0.75995 0.94139 0.43695 0.0
H2097 H 0.76933 0.84757 0.43825 0.0
H2098 H 0.76569 0.84754 0.48515 0.0
H2099 H 0.76393 0.87419 0.52589 0.0
H2100 H 0.75495 0.96798 0.52522 0.0
H2101 H 0.75406 0.96783 0.478 0.0
C2102 C 0.76078 0.92092 0.44746 0.0
C2103 C 0.76535 0.89463 0.4341 0.0
C2104 C 0.75898 0.92099 0.47457 0.0
C2105 C 0.76627 0.86824 0.44804 0.0
C2106 C 0.76419 0.86813 0.4749 0.0
C2107 C 0.76163 0.8946 0.51544 0.0
C2108 C 0.7599 0.92103 0.52904 0.0
C2109 C 0.76128 0.89442 0.48837 0.0
C2110 C 0.75644 0.94727 0.51521 0.0
C2111 C 0.756 0.94725 0.4882 0.0
H2112 H 0.6368 0.71219 0.46069 0.0
H2113 H 0.55645 0.7592 0.44807 0.0
H2114 H 0.55086 0.7663 0.49446 0.0
H2115 H 0.56651 0.75576 0.53911 0.0
H2116 H 0.64719 0.70913 0.55142 0.0
H2117 H 0.65471 0.70563 0.50502 0.0
C2118 C 0.61825 0.72433 0.468 0.0
C2119 C 0.59701 0.73481 0.45069 0.0
C2120 C 0.61496 0.72828 0.49487 0.0
C2121 C 0.5732 0.75067 0.46074 0.0
C2122 C 0.56985 0.7547 0.4874 0.0
C2123 C 0.58589 0.7451 0.53169 0.0
C2124 C 0.60598 0.7325 0.54899 0.0
C2125 C 0.59024 0.74304 0.50472 0.0
C2126 C 0.63111 0.71896 0.53879 0.0
C2127 C 0.63551 0.71684 0.51212 0.0
H2128 H 0.27203 0.64008 0.45498 0.0
H2129 H 0.24253 0.55135 0.44452 0.0
H2130 H 0.23817 0.54546 0.49128 0.0
H2131 H 0.24823 0.56365 0.53512 0.0
H2132 H 0.27868 0.65224 0.545 0.0
H2133 H 0.27703 0.65985 0.49851 0.0
C2134 C 0.26426 0.61955 0.46285 0.0
C2135 C 0.25811 0.59609 0.44623 0.0
C2136 C 0.26229 0.61609 0.48972 0.0
C2137 C 0.24762 0.56979 0.45682 0.0
C2138 C 0.24527 0.5663 0.48361 0.0
C2139 C 0.25421 0.58472 0.52716 0.0
C2140 C 0.26407 0.60709 0.54361 0.0
C2141 C 0.25346 0.58901 0.50025 0.0
C2142 C 0.27136 0.6344 0.53288 0.0
C2143 C 0.27044 0.63886 0.50623 0.0
H2144 H 0.36332 0.2838 0.54033 0.0
H2145 H 0.44177 0.23287 0.55061 0.0
H2146 H 0.44774 0.22966 0.50386 0.0
H2147 H 0.43355 0.24517 0.46056 0.0
H2148 H 0.35606 0.2972 0.44972 0.0
H2149 H 0.34669 0.29577 0.49637 0.0
C2150 C 0.3815 0.2716 0.5324 0.0
C2151 C 0.40227 0.25892 0.54906 0.0
C2152 C 0.38513 0.27025 0.50545 0.0
C2153 C 0.4256 0.24311 0.53833 0.0
C2154 C 0.42909 0.2413 0.51157 0.0
C2155 C 0.41449 0.25611 0.46832 0.0
C2156 C 0.39579 0.27169 0.45174 0.0
C2157 C 0.40946 0.25548 0.49503 0.0
C2158 C 0.37088 0.28518 0.46208 0.0
C2159 C 0.36558 0.28446 0.48875 0.0
H2160 H 0.75659 0.43412 0.54471 0.0
H2161 H 0.70901 0.35314 0.552 0.0
H2162 H 0.71246 0.34536 0.50555 0.0
H2163 H 0.72541 0.36334 0.46232 0.0
H2164 H 0.77258 0.44452 0.45499 0.0
H2165 H 0.77308 0.45004 0.50183 0.0
C2166 C 0.74715 0.41466 0.53621 0.0
C2167 C 0.73229 0.39451 0.55194 0.0
C2168 C 0.74905 0.41027 0.50934 0.0
C2169 C 0.72046 0.36923 0.54048 0.0
C2170 C 0.72238 0.3647 0.51382 0.0
C2171 C 0.73623 0.38199 0.47095 0.0
C2172 C 0.74861 0.40358 0.45503 0.0
C2173 C 0.73614 0.38533 0.49799 0.0
C2174 C 0.76255 0.42764 0.46667 0.0
C2175 C 0.76283 0.4309 0.49352 0.0
H2176 H 0.6279 0.27524 0.04173 0.0
H2177 H 0.53858 0.24774 0.05256 0.0
H2178 H 0.53146 0.24617 0.00601 0.0
H2179 H 0.54923 0.25577 0.96222 0.0
H2180 H 0.6385 0.28316 0.95102 0.0
H2181 H 0.64686 0.28115 -0.0025 0.0
C2182 C 0.60694 0.26873 0.03393 0.0
C2183 C 0.58383 0.26191 0.05077 0.0
C2184 C 0.60284 0.26783 0.00696 0.0
C2185 C 0.55686 0.25322 0.04019 0.0
C2186 C 0.55267 0.25233 0.01349 0.0
C2187 C 0.57063 0.26098 0.96985 0.0
C2188 C 0.59302 0.26989 0.95302 0.0
C2189 C 0.57534 0.26004 -0.00331 0.0
C2190 C 0.62069 0.27634 0.9634 0.0
C2191 C 0.62554 0.27533 0.99007 0.0
H2192 H 0.74734 0.56273 0.95786 0.0
H2193 H 0.71855 0.65236 0.95445 0.0
H2194 H 0.72076 0.65575 0.00143 0.0
H2195 H 0.72581 0.63183 0.04371 0.0
H2196 H 0.7539 0.5419 0.04693 0.0
H2197 H 0.75716 0.54036 2e-05 0.0
C2198 C 0.74207 0.58319 0.96732 0.0
C2199 C 0.73242 0.60707 0.95255 0.0
C2200 C 0.7429 0.58493 -0.00554 0.0
C2201 C 0.72573 0.63343 0.96526 0.0
C2202 C 0.72691 0.63543 0.9922 0.0
C2203 C 0.73299 0.61199 0.03422 0.0
C2204 C 0.73912 0.58695 0.04899 0.0
C2205 C 0.73462 0.61105 0.00705 0.0
C2206 C 0.74864 0.56151 0.0362 0.0
C2207 C 0.75055 0.56053 0.00927 0.0
H2208 H 0.43152 0.76098 0.95832 0.0
H2209 H 0.34725 0.71991 0.95028 0.0
H2210 H 0.34245 0.71724 -0.00279 0.0
H2211 H 0.36427 0.72226 0.04061 0.0
H2212 H 0.44881 0.76312 0.04793 0.0
H2213 H 0.45112 0.77013 0.00144 0.0
C2214 C 0.41191 0.75176 0.96676 0.0
C2215 C 0.39001 0.74038 0.95064 0.0
C2216 C 0.40937 0.74993 -0.00621 0.0
C2217 C 0.36463 0.72877 0.96209 0.0
C2218 C 0.36186 0.72709 0.98901 0.0
C2219 C 0.38303 0.73301 0.03209 0.0
C2220 C 0.40647 0.74166 0.04789 0.0
C2221 C 0.38443 0.73692 0.00507 0.0
C2222 C 0.43053 0.75576 0.03637 0.0
C2223 C 0.43194 0.75987 0.00968 0.0
H2224 H 0.27273 0.36565 0.03583 0.0
H2225 H 0.2494 0.4558 0.04897 0.0
H2226 H 0.24203 0.46302 0.00296 0.0
H2227 H 0.24517 0.44499 0.95856 0.0
H2228 H 0.26793 0.35479 0.94508 0.0
H2229 H 0.27213 0.34655 0.99139 0.0
C2230 C 0.26587 0.3868 0.02865 0.0
C2231 C 0.26192 0.41008 0.04594 0.0
C2232 C 0.26154 0.39097 0.00197 0.0
C2233 C 0.25271 0.43733 0.03623 0.0
C2234 C 0.2485 0.44162 0.00982 0.0
C2235 C 0.25074 0.42345 0.96571 0.0
C2236 C 0.2565 0.40076 0.94822 0.0
C2237 C 0.25328 0.41874 0.99246 0.0
C2238 C 0.2635 0.37287 0.95798 0.0
C2239 C 0.26602 0.36805 0.98454 0.0
loop_
_geom_bond_atom_site_label_1
_geom_bond_atom_site_label_2
_geom_bond_distance
_geom_bond_site_symmetry_2
_ccdc_geom_bond_type
Sc0 O3 2.025 . S
Sc0 O10 2.105 . S
Sc0 O13 2.105 . S
Sc0 O16 2.105 . S
Sc0 O19 2.105 . S
Sc1 O3 2.025 . S
Sc1 O11 2.105 . S
Sc1 O15 2.105 . S
Sc1 O17 2.105 . S
Sc1 O21 2.105 . S
Sc2 O3 2.025 . S
Sc2 O12 2.105 . S
Sc2 O14 2.105 . S
Sc2 O18 2.105 . S
Sc2 O20 2.105 . S
O3 Sc0 2.025 . S
O3 Sc1 2.025 . S
O3 Sc2 2.025 . S
C4 O10 1.268 . S
C4 O20 1.268 . S
C5 O11 1.268 . S
C5 O19 1.268 . S
C6 O12 1.268 . S
C6 O21 1.268 . S
C7 O13 1.268 . S
C7 O17 1.268 . S
C8 O14 1.268 . S
C8 O16 1.268 . S
C9 O15 1.268 . S
C9 O18 1.268 . S
O10 Sc0 2.105 . S
O10 C4 1.268 . S
O11 Sc1 2.105 . S
O11 C5 1.268 . S
O12 Sc2 2.105 . S
O12 C6 1.268 . S
O13 Sc0 2.105 . S
O13 C7 1.268 . S
O14 Sc2 2.105 . S
O14 C8 1.268 . S
O15 Sc1 2.105 . S
O15 C9 1.268 . S
O16 Sc0 2.105 . S
O16 C8 1.268 . S
O17 Sc1 2.105 . S
O17 C7 1.268 . S
O18 Sc2 2.105 . S
O18 C9 1.268 . S
O19 Sc0 2.105 . S
O19 C5 1.268 . S
O20 Sc2 2.105 . S
O20 C4 1.268 . S
O21 Sc1 2.105 . S
O21 C6 1.268 . S
Sc22 O25 2.025 . S
Sc22 O32 2.105 . S
Sc22 O35 2.105 . S
Sc22 O38 2.105 . S
Sc22 O41 2.105 . S
Sc23 O25 2.025 . S
Sc23 O33 2.105 . S
Sc23 O37 2.105 . S
Sc23 O39 2.105 . S
Sc23 O43 2.105 . S
Sc24 O25 2.025 . S
Sc24 O34 2.105 . S
Sc24 O36 2.105 . S
Sc24 O40 2.105 . S
Sc24 O42 2.105 . S
O25 Sc22 2.025 . S
O25 Sc23 2.025 . S
O25 Sc24 2.025 . S
C26 O32 1.268 . S
C26 O42 1.268 . S
C27 O33 1.268 . S
C27 O41 1.268 . S
C28 O34 1.268 . S
C28 O43 1.268 . S
C29 O35 1.268 . S
C29 O39 1.268 . S
C30 O36 1.268 . S
C30 O38 1.268 . S
C31 O37 1.268 . S
C31 O40 1.268 . S
O32 Sc22 2.105 . S
O32 C26 1.268 . S
O33 Sc23 2.105 . S
O33 C27 1.268 . S
O34 Sc24 2.105 . S
O34 C28 1.268 . S
O35 Sc22 2.105 . S
O35 C29 1.268 . S
O36 Sc24 2.105 . S
O36 C30 1.268 . S
O37 Sc23 2.105 . S
O37 C31 1.268 . S
O38 Sc22 2.105 . S
O38 C30 1.268 . S
O39 Sc23 2.105 . S
O39 C29 1.268 . S
O40 Sc24 2.105 . S
O40 C31 1.268 . S
O41 Sc22 2.105 . S
O41 C27 1.268 . S
O42 Sc24 2.105 . S
O42 C26 1.268 . S
O43 Sc23 2.105 . S
O43 C28 1.268 . S
Sc44 O47 2.025 . S
Sc44 O54 2.105 . S
Sc44 O57 2.105 . S
Sc44 O60 2.105 . S
Sc44 O63 2.105 . S
Sc45 O47 2.025 . S
Sc45 O55 2.105 . S
Sc45 O59 2.105 . S
Sc45 O61 2.105 . S
Sc45 O65 2.105 . S
Sc46 O47 2.025 . S
Sc46 O56 2.105 . S
Sc46 O58 2.105 . S
Sc46 O62 2.105 . S
Sc46 O64 2.105 . S
O47 Sc44 2.025 . S
O47 Sc45 2.025 . S
O47 Sc46 2.025 . S
C48 O54 1.268 . S
C48 O64 1.268 . S
C49 O55 1.268 . S
C49 O63 1.268 . S
C50 O56 1.268 . S
C50 O65 1.268 . S
C51 O57 1.268 . S
C51 O61 1.268 . S
C52 O58 1.268 . S
C52 O60 1.268 . S
C53 O59 1.268 . S
C53 O62 1.268 . S
O54 Sc44 2.105 . S
O54 C48 1.268 . S
O55 Sc45 2.105 . S
O55 C49 1.268 . S
O56 Sc46 2.105 . S
O56 C50 1.268 . S
O57 Sc44 2.105 . S
O57 C51 1.268 . S
O58 Sc46 2.105 . S
O58 C52 1.268 . S
O59 Sc45 2.105 . S
O59 C53 1.268 . S
O60 Sc44 2.105 . S
O60 C52 1.268 . S
O61 Sc45 2.105 . S
O61 C51 1.268 . S
O62 Sc46 2.105 . S
O62 C53 1.268 . S
O63 Sc44 2.105 . S
O63 C49 1.268 . S
O64 Sc46 2.105 . S
O64 C48 1.268 . S
O65 Sc45 2.105 . S
O65 C50 1.268 . S
Sc66 O69 2.025 . S
Sc66 O76 2.105 . S
Sc66 O79 2.105 . S
Sc66 O82 2.105 . S
Sc66 O85 2.105 . S
Sc67 O69 2.025 . S
Sc67 O77 2.105 . S
Sc67 O81 2.105 . S
Sc67 O83 2.105 . S
Sc67 O87 2.105 . S
Sc68 O69 2.025 . S
Sc68 O78 2.105 . S
Sc68 O80 2.105 . S
Sc68 O84 2.105 . S
Sc68 O86 2.105 . S
O69 Sc66 2.025 . S
O69 Sc67 2.025 . S
O69 Sc68 2.025 . S
C70 O76 1.268 . S
C70 O86 1.268 . S
C71 O77 1.268 . S
C71 O85 1.268 . S
C72 O78 1.268 . S
C72 O87 1.268 . S
C73 O79 1.268 . S
C73 O83 1.268 . S
C74 O80 1.268 . S
C74 O82 1.268 . S
C75 O81 1.268 . S
C75 O84 1.268 . S
O76 Sc66 2.105 . S
O76 C70 1.268 . S
O77 Sc67 2.105 . S
O77 C71 1.268 . S
O78 Sc68 2.105 . S
O78 C72 1.268 . S
O79 Sc66 2.105 . S
O79 C73 1.268 . S
O80 Sc68 2.105 . S
O80 C74 1.268 . S
O81 Sc67 2.105 . S
O81 C75 1.268 . S
O82 Sc66 2.105 . S
O82 C74 1.268 . S
O83 Sc67 2.105 . S
O83 C73 1.268 . S
O84 Sc68 2.105 . S
O84 C75 1.268 . S
O85 Sc66 2.105 . S
O85 C71 1.268 . S
O86 Sc68 2.105 . S
O86 C70 1.268 . S
O87 Sc67 2.105 . S
O87 C72 1.268 . S
Sc88 O91 2.025 . S
Sc88 O98 2.105 . S
Sc88 O101 2.105 . S
Sc88 O104 2.105 . S
Sc88 O107 2.105 . S
Sc89 O91 2.025 . S
Sc89 O99 2.105 . S
Sc89 O103 2.105 . S
Sc89 O105 2.105 . S
Sc89 O109 2.105 . S
Sc90 O91 2.025 . S
Sc90 O100 2.105 . S
Sc90 O102 2.105 . S
Sc90 O106 2.105 . S
Sc90 O108 2.105 . S
O91 Sc88 2.025 . S
O91 Sc89 2.025 . S
O91 Sc90 2.025 . S
C92 O98 1.268 . S
C92 O108 1.268 . S
C93 O99 1.268 . S
C93 O107 1.268 . S
C94 O100 1.268 . S
C94 O109 1.268 . S
C95 O101 1.268 . S
C95 O105 1.268 . S
C96 O102 1.268 . S
C96 O104 1.268 . S
C97 O103 1.268 . S
C97 O106 1.268 . S
O98 Sc88 2.105 . S
O98 C92 1.268 . S
O99 Sc89 2.105 . S
O99 C93 1.268 . S
O100 Sc90 2.105 . S
O100 C94 1.268 . S
O101 Sc88 2.105 . S
O101 C95 1.268 . S
O102 Sc90 2.105 . S
O102 C96 1.268 . S
O103 Sc89 2.105 . S
O103 C97 1.268 . S
O104 Sc88 2.105 . S
O104 C96 1.268 . S
O105 Sc89 2.105 . S
O105 C95 1.268 . S
O106 Sc90 2.105 . S
O106 C97 1.268 . S
O107 Sc88 2.105 . S
O107 C93 1.268 . S
O108 Sc90 2.105 . S
O108 C92 1.268 . S
O109 Sc89 2.105 . S
O109 C94 1.268 . S
Sc110 O113 2.025 . S
Sc110 O120 2.105 . S
Sc110 O123 2.105 . S
Sc110 O126 2.105 . S
Sc110 O129 2.105 . S
Sc111 O113 2.025 . S
Sc111 O121 2.105 . S
Sc111 O125 2.105 . S
Sc111 O127 2.105 . S
Sc111 O131 2.105 . S
Sc112 O113 2.025 . S
Sc112 O122 2.105 . S
Sc112 O124 2.105 . S
Sc112 O128 2.105 . S
Sc112 O130 2.105 . S
O113 Sc110 2.025 . S
O113 Sc111 2.025 . S
O113 Sc112 2.025 . S
C114 O120 1.268 . S
C114 O130 1.268 . S
C115 O121 1.268 . S
C115 O129 1.268 . S
C116 O122 1.268 . S
C116 O131 1.268 . S
C117 O123 1.268 . S
C117 O127 1.268 . S
C118 O124 1.268 . S
C118 O126 1.268 . S
C119 O125 1.268 . S
C119 O128 1.268 . S
O120 Sc110 2.105 . S
O120 C114 1.268 . S
O121 Sc111 2.105 . S
O121 C115 1.268 . S
O122 Sc112 2.105 . S
O122 C116 1.268 . S
O123 Sc110 2.105 . S
O123 C117 1.268 . S
O124 Sc112 2.105 . S
O124 C118 1.268 . S
O125 Sc111 2.105 . S
O125 C119 1.268 . S
O126 Sc110 2.105 . S
O126 C118 1.268 . S
O127 Sc111 2.105 . S
O127 C117 1.268 . S
O128 Sc112 2.105 . S
O128 C119 1.268 . S
O129 Sc110 2.105 . S
O129 C115 1.268 . S
O130 Sc112 2.105 . S
O130 C114 1.268 . S
O131 Sc111 2.105 . S
O131 C116 1.268 . S
Sc132 O135 2.025 . S
Sc132 O142 2.105 . S
Sc132 O145 2.105 . S
Sc132 O148 2.105 . S
Sc132 O151 2.105 . S
Sc133 O135 2.025 . S
Sc133 O143 2.105 . S
Sc133 O147 2.105 . S
Sc133 O149 2.105 . S
Sc133 O153 2.105 . S
Sc134 O135 2.025 . S
Sc134 O144 2.105 . S
Sc134 O146 2.105 . S
Sc134 O150 2.105 . S
Sc134 O152 2.105 . S
O135 Sc132 2.025 . S
O135 Sc133 2.025 . S
O135 Sc134 2.025 . S
C136 O142 1.268 . S
C136 O152 1.268 . S
C137 O143 1.268 . S
C137 O151 1.268 . S
C138 O144 1.268 . S
C138 O153 1.268 . S
C139 O145 1.268 . S
C139 O149 1.268 . S
C140 O146 1.268 . S
C140 O148 1.268 . S
C141 O147 1.268 . S
C141 O150 1.268 . S
O142 Sc132 2.105 . S
O142 C136 1.268 . S
O143 Sc133 2.105 . S
O143 C137 1.268 . S
O144 Sc134 2.105 . S
O144 C138 1.268 . S
O145 Sc132 2.105 . S
O145 C139 1.268 . S
O146 Sc134 2.105 . S
O146 C140 1.268 . S
O147 Sc133 2.105 . S
O147 C141 1.268 . S
O148 Sc132 2.105 . S
O148 C140 1.268 . S
O149 Sc133 2.105 . S
O149 C139 1.268 . S
O150 Sc134 2.105 . S
O150 C141 1.268 . S
O151 Sc132 2.105 . S
O151 C137 1.268 . S
O152 Sc134 2.105 . S
O152 C136 1.268 . S
O153 Sc133 2.105 . S
O153 C138 1.268 . S
Sc154 O157 2.025 . S
Sc154 O164 2.105 . S
Sc154 O167 2.105 . S
Sc154 O170 2.105 . S
Sc154 O173 2.105 . S
Sc155 O157 2.025 . S
Sc155 O165 2.105 . S
Sc155 O169 2.105 . S
Sc155 O171 2.105 . S
Sc155 O175 2.105 . S
Sc156 O157 2.025 . S
Sc156 O166 2.105 . S
Sc156 O168 2.105 . S
Sc156 O172 2.105 . S
Sc156 O174 2.105 . S
O157 Sc154 2.025 . S
O157 Sc155 2.025 . S
O157 Sc156 2.025 . S
C158 O164 1.268 . S
C158 O174 1.268 . S
C159 O165 1.268 . S
C159 O173 1.268 . S
C160 O166 1.268 . S
C160 O175 1.268 . S
C161 O167 1.268 . S
C161 O171 1.268 . S
C162 O168 1.268 . S
C162 O170 1.268 . S
C163 O169 1.268 . S
C163 O172 1.268 . S
O164 Sc154 2.105 . S
O164 C158 1.268 . S
O165 Sc155 2.105 . S
O165 C159 1.268 . S
O166 Sc156 2.105 . S
O166 C160 1.268 . S
O167 Sc154 2.105 . S
O167 C161 1.268 . S
O168 Sc156 2.105 . S
O168 C162 1.268 . S
O169 Sc155 2.105 . S
O169 C163 1.268 . S
O170 Sc154 2.105 . S
O170 C162 1.268 . S
O171 Sc155 2.105 . S
O171 C161 1.268 . S
O172 Sc156 2.105 . S
O172 C163 1.268 . S
O173 Sc154 2.105 . S
O173 C159 1.268 . S
O174 Sc156 2.105 . S
O174 C158 1.268 . S
O175 Sc155 2.105 . S
O175 C160 1.268 . S
Sc176 O179 2.025 . S
Sc176 O186 2.105 . S
Sc176 O189 2.105 . S
Sc176 O192 2.105 . S
Sc176 O195 2.105 . S
Sc177 O179 2.025 . S
Sc177 O187 2.105 . S
Sc177 O191 2.105 . S
Sc177 O193 2.105 . S
Sc177 O197 2.105 . S
Sc178 O179 2.025 . S
Sc178 O188 2.105 . S
Sc178 O190 2.105 . S
Sc178 O194 2.105 . S
Sc178 O196 2.105 . S
O179 Sc176 2.025 . S
O179 Sc177 2.025 . S
O179 Sc178 2.025 . S
C180 O186 1.268 . S
C180 O196 1.268 . S
C181 O187 1.268 . S
C181 O195 1.268 . S
C182 O188 1.268 . S
C182 O197 1.268 . S
C183 O189 1.268 . S
C183 O193 1.268 . S
C184 O190 1.268 . S
C184 O192 1.268 . S
C185 O191 1.268 . S
C185 O194 1.268 . S
O186 Sc176 2.105 . S
O186 C180 1.268 . S
O187 Sc177 2.105 . S
O187 C181 1.268 . S
O188 Sc178 2.105 . S
O188 C182 1.268 . S
O189 Sc176 2.105 . S
O189 C183 1.268 . S
O190 Sc178 2.105 . S
O190 C184 1.268 . S
O191 Sc177 2.105 . S
O191 C185 1.268 . S
O192 Sc176 2.105 . S
O192 C184 1.268 . S
O193 Sc177 2.105 . S
O193 C183 1.268 . S
O194 Sc178 2.105 . S
O194 C185 1.268 . S
O195 Sc176 2.105 . S
O195 C181 1.268 . S
O196 Sc178 2.105 . S
O196 C180 1.268 . S
O197 Sc177 2.105 . S
O197 C182 1.268 . S
Sc198 O201 2.025 . S
Sc198 O208 2.105 . S
Sc198 O211 2.105 . S
Sc198 O214 2.105 . S
Sc198 O217 2.105 . S
Sc199 O201 2.025 . S
Sc199 O209 2.105 . S
Sc199 O213 2.105 . S
Sc199 O215 2.105 . S
Sc199 O219 2.105 . S
Sc200 O201 2.025 . S
Sc200 O210 2.105 . S
Sc200 O212 2.105 . S
Sc200 O216 2.105 . S
Sc200 O218 2.105 . S
O201 Sc198 2.025 . S
O201 Sc199 2.025 . S
O201 Sc200 2.025 . S
C202 O208 1.268 . S
C202 O218 1.268 . S
C203 O209 1.268 . S
C203 O217 1.268 . S
C204 O210 1.268 . S
C204 O219 1.268 . S
C205 O211 1.268 . S
C205 O215 1.268 . S
C206 O212 1.268 . S
C206 O214 1.268 . S
C207 O213 1.268 . S
C207 O216 1.268 . S
O208 Sc198 2.105 . S
O208 C202 1.268 . S
O209 Sc199 2.105 . S
O209 C203 1.268 . S
O210 Sc200 2.105 . S
O210 C204 1.268 . S
O211 Sc198 2.105 . S
O211 C205 1.268 . S
O212 Sc200 2.105 . S
O212 C206 1.268 . S
O213 Sc199 2.105 . S
O213 C207 1.268 . S
O214 Sc198 2.105 . S
O214 C206 1.268 . S
O215 Sc199 2.105 . S
O215 C205 1.268 . S
O216 Sc200 2.105 . S
O216 C207 1.268 . S
O217 Sc198 2.105 . S
O217 C203 1.268 . S
O218 Sc200 2.105 . S
O218 C202 1.268 . S
O219 Sc199 2.105 . S
O219 C204 1.268 . S
Sc220 O223 2.025 . S
Sc220 O230 2.105 . S
Sc220 O233 2.105 . S
Sc220 O236 2.105 . S
Sc220 O239 2.105 . S
Sc221 O223 2.025 . S
Sc221 O231 2.105 . S
Sc221 O235 2.105 . S
Sc221 O237 2.105 . S
Sc221 O241 2.105 . S
Sc222 O223 2.025 . S
Sc222 O232 2.105 . S
Sc222 O234 2.105 . S
Sc222 O238 2.105 . S
Sc222 O240 2.105 . S
O223 Sc220 2.025 . S
O223 Sc221 2.025 . S
O223 Sc222 2.025 . S
C224 O230 1.268 . S
C224 O240 1.268 . S
C225 O231 1.268 . S
C225 O239 1.268 . S
C226 O232 1.268 . S
C226 O241 1.268 . S
C227 O233 1.268 . S
C227 O237 1.268 . S
C228 O234 1.268 . S
C228 O236 1.268 . S
C229 O235 1.268 . S
C229 O238 1.268 . S
O230 Sc220 2.105 . S
O230 C224 1.268 . S
O231 Sc221 2.105 . S
O231 C225 1.268 . S
O232 Sc222 2.105 . S
O232 C226 1.268 . S
O233 Sc220 2.105 . S
O233 C227 1.268 . S
O234 Sc222 2.105 . S
O234 C228 1.268 . S
O235 Sc221 2.105 . S
O235 C229 1.268 . S
O236 Sc220 2.105 . S
O236 C228 1.268 . S
O237 Sc221 2.105 . S
O237 C227 1.268 . S
O238 Sc222 2.105 . S
O238 C229 1.268 . S
O239 Sc220 2.105 . S
O239 C225 1.268 . S
O240 Sc222 2.105 . S
O240 C224 1.268 . S
O241 Sc221 2.105 . S
O241 C226 1.268 . S
Sc242 O245 2.025 . S
Sc242 O252 2.105 . S
Sc242 O255 2.105 . S
Sc242 O258 2.105 . S
Sc242 O261 2.105 . S
Sc243 O245 2.025 . S
Sc243 O253 2.105 . S
Sc243 O257 2.105 . S
Sc243 O259 2.105 . S
Sc243 O263 2.105 . S
Sc244 O245 2.025 . S
Sc244 O254 2.105 . S
Sc244 O256 2.105 . S
Sc244 O260 2.105 . S
Sc244 O262 2.105 . S
O245 Sc242 2.025 . S
O245 Sc243 2.025 . S
O245 Sc244 2.025 . S
C246 O252 1.268 . S
C246 O262 1.268 . S
C247 O253 1.268 . S
C247 O261 1.268 . S
C248 O254 1.268 . S
C248 O263 1.268 . S
C249 O255 1.268 . S
C249 O259 1.268 . S
C250 O256 1.268 . S
C250 O258 1.268 . S
C251 O257 1.268 . S
C251 O260 1.268 . S
O252 Sc242 2.105 . S
O252 C246 1.268 . S
O253 Sc243 2.105 . S
O253 C247 1.268 . S
O254 Sc244 2.105 . S
O254 C248 1.268 . S
O255 Sc242 2.105 . S
O255 C249 1.268 . S
O256 Sc244 2.105 . S
O256 C250 1.268 . S
O257 Sc243 2.105 . S
O257 C251 1.268 . S
O258 Sc242 2.105 . S
O258 C250 1.268 . S
O259 Sc243 2.105 . S
O259 C249 1.268 . S
O260 Sc244 2.105 . S
O260 C251 1.268 . S
O261 Sc242 2.105 . S
O261 C247 1.268 . S
O262 Sc244 2.105 . S
O262 C246 1.268 . S
O263 Sc243 2.105 . S
O263 C248 1.268 . S
Sc264 O267 2.025 . S
Sc264 O274 2.105 . S
Sc264 O277 2.105 . S
Sc264 O280 2.105 . S
Sc264 O283 2.105 . S
Sc265 O267 2.025 . S
Sc265 O275 2.105 . S
Sc265 O279 2.105 . S
Sc265 O281 2.105 . S
Sc265 O285 2.105 . S
Sc266 O267 2.025 . S
Sc266 O276 2.105 . S
Sc266 O278 2.105 . S
Sc266 O282 2.105 . S
Sc266 O284 2.105 . S
O267 Sc264 2.025 . S
O267 Sc265 2.025 . S
O267 Sc266 2.025 . S
C268 O274 1.268 . S
C268 O284 1.268 . S
C269 O275 1.268 . S
C269 O283 1.268 . S
C270 O276 1.268 . S
C270 O285 1.268 . S
C271 O277 1.268 . S
C271 O281 1.268 . S
C272 O278 1.268 . S
C272 O280 1.268 . S
C273 O279 1.268 . S
C273 O282 1.268 . S
O274 Sc264 2.105 . S
O274 C268 1.268 . S
O275 Sc265 2.105 . S
O275 C269 1.268 . S
O276 Sc266 2.105 . S
O276 C270 1.268 . S
O277 Sc264 2.105 . S
O277 C271 1.268 . S
O278 Sc266 2.105 . S
O278 C272 1.268 . S
O279 Sc265 2.105 . S
O279 C273 1.268 . S
O280 Sc264 2.105 . S
O280 C272 1.268 . S
O281 Sc265 2.105 . S
O281 C271 1.268 . S
O282 Sc266 2.105 . S
O282 C273 1.268 . S
O283 Sc264 2.105 . S
O283 C269 1.268 . S
O284 Sc266 2.105 . S
O284 C268 1.268 . S
O285 Sc265 2.105 . S
O285 C270 1.268 . S
Sc286 O289 2.025 . S
Sc286 O296 2.105 . S
Sc286 O299 2.105 . S
Sc286 O302 2.105 . S
Sc286 O305 2.105 . S
Sc287 O289 2.025 . S
Sc287 O297 2.105 . S
Sc287 O301 2.105 . S
Sc287 O303 2.105 . S
Sc287 O307 2.105 . S
Sc288 O289 2.025 . S
Sc288 O298 2.105 . S
Sc288 O300 2.105 . S
Sc288 O304 2.105 . S
Sc288 O306 2.105 . S
O289 Sc286 2.025 . S
O289 Sc287 2.025 . S
O289 Sc288 2.025 . S
C290 O296 1.268 . S
C290 O306 1.268 . S
C291 O297 1.268 . S
C291 O305 1.268 . S
C292 O298 1.268 . S
C292 O307 1.268 . S
C293 O299 1.268 . S
C293 O303 1.268 . S
C294 O300 1.268 . S
C294 O302 1.268 . S
C295 O301 1.268 . S
C295 O304 1.268 . S
O296 Sc286 2.105 . S
O296 C290 1.268 . S
O297 Sc287 2.105 . S
O297 C291 1.268 . S
O298 Sc288 2.105 . S
O298 C292 1.268 . S
O299 Sc286 2.105 . S
O299 C293 1.268 . S
O300 Sc288 2.105 . S
O300 C294 1.268 . S
O301 Sc287 2.105 . S
O301 C295 1.268 . S
O302 Sc286 2.105 . S
O302 C294 1.268 . S
O303 Sc287 2.105 . S
O303 C293 1.268 . S
O304 Sc288 2.105 . S
O304 C295 1.268 . S
O305 Sc286 2.105 . S
O305 C291 1.268 . S
O306 Sc288 2.105 . S
O306 C290 1.268 . S
O307 Sc287 2.105 . S
O307 C292 1.268 . S
Sc308 O311 2.025 . S
Sc308 O318 2.105 . S
Sc308 O321 2.105 . S
Sc308 O324 2.105 . S
Sc308 O327 2.105 . S
Sc309 O311 2.025 . S
Sc309 O319 2.105 . S
Sc309 O323 2.105 . S
Sc309 O325 2.105 . S
Sc309 O329 2.105 . S
Sc310 O311 2.025 . S
Sc310 O320 2.105 . S
Sc310 O322 2.105 . S
Sc310 O326 2.105 . S
Sc310 O328 2.105 . S
O311 Sc308 2.025 . S
O311 Sc309 2.025 . S
O311 Sc310 2.025 . S
C312 O318 1.268 . S
C312 O328 1.268 . S
C313 O319 1.268 . S
C313 O327 1.268 . S
C314 O320 1.268 . S
C314 O329 1.268 . S
C315 O321 1.268 . S
C315 O325 1.268 . S
C316 O322 1.268 . S
C316 O324 1.268 . S
C317 O323 1.268 . S
C317 O326 1.268 . S
O318 Sc308 2.105 . S
O318 C312 1.268 . S
O319 Sc309 2.105 . S
O319 C313 1.268 . S
O320 Sc310 2.105 . S
O320 C314 1.268 . S
O321 Sc308 2.105 . S
O321 C315 1.268 . S
O322 Sc310 2.105 . S
O322 C316 1.268 . S
O323 Sc309 2.105 . S
O323 C317 1.268 . S
O324 Sc308 2.105 . S
O324 C316 1.268 . S
O325 Sc309 2.105 . S
O325 C315 1.268 . S
O326 Sc310 2.105 . S
O326 C317 1.268 . S
O327 Sc308 2.105 . S
O327 C313 1.268 . S
O328 Sc310 2.105 . S
O328 C312 1.268 . S
O329 Sc309 2.105 . S
O329 C314 1.268 . S
Sc330 O333 2.025 . S
Sc330 O340 2.105 . S
Sc330 O343 2.105 . S
Sc330 O346 2.105 . S
Sc330 O349 2.105 . S
Sc331 O333 2.025 . S
Sc331 O341 2.105 . S
Sc331 O345 2.105 . S
Sc331 O347 2.105 . S
Sc331 O351 2.105 . S
Sc332 O333 2.025 . S
Sc332 O342 2.105 . S
Sc332 O344 2.105 . S
Sc332 O348 2.105 . S
Sc332 O350 2.105 . S
O333 Sc330 2.025 . S
O333 Sc331 2.025 . S
O333 Sc332 2.025 . S
C334 O340 1.268 . S
C334 O350 1.268 . S
C335 O341 1.268 . S
C335 O349 1.268 . S
C336 O342 1.268 . S
C336 O351 1.268 . S
C337 O343 1.268 . S
C337 O347 1.268 . S
C338 O344 1.268 . S
C338 O346 1.268 . S
C339 O345 1.268 . S
C339 O348 1.268 . S
O340 Sc330 2.105 . S
O340 C334 1.268 . S
O341 Sc331 2.105 . S
O341 C335 1.268 . S
O342 Sc332 2.105 . S
O342 C336 1.268 . S
O343 Sc330 2.105 . S
O343 C337 1.268 . S
O344 Sc332 2.105 . S
O344 C338 1.268 . S
O345 Sc331 2.105 . S
O345 C339 1.268 . S
O346 Sc330 2.105 . S
O346 C338 1.268 . S
O347 Sc331 2.105 . S
O347 C337 1.268 . S
O348 Sc332 2.105 . S
O348 C339 1.268 . S
O349 Sc330 2.105 . S
O349 C335 1.268 . S
O350 Sc332 2.105 . S
O350 C334 1.268 . S
O351 Sc331 2.105 . S
O351 C336 1.268 . S
Sc352 O355 2.025 . S
Sc352 O362 2.105 . S
Sc352 O365 2.105 . S
Sc352 O368 2.105 . S
Sc352 O371 2.105 . S
Sc353 O355 2.025 . S
Sc353 O363 2.105 . S
Sc353 O367 2.105 . S
Sc353 O369 2.105 . S
Sc353 O373 2.105 . S
Sc354 O355 2.025 . S
Sc354 O364 2.105 . S
Sc354 O366 2.105 . S
Sc354 O370 2.105 . S
Sc354 O372 2.105 . S
O355 Sc352 2.025 . S
O355 Sc353 2.025 . S
O355 Sc354 2.025 . S
C356 O362 1.268 . S
C356 O372 1.268 . S
C357 O363 1.268 . S
C357 O371 1.268 . S
C358 O364 1.268 . S
C358 O373 1.268 . S
C359 O365 1.268 . S
C359 O369 1.268 . S
C360 O366 1.268 . S
C360 O368 1.268 . S
C361 O367 1.268 . S
C361 O370 1.268 . S
O362 Sc352 2.105 . S
O362 C356 1.268 . S
O363 Sc353 2.105 . S
O363 C357 1.268 . S
O364 Sc354 2.105 . S
O364 C358 1.268 . S
O365 Sc352 2.105 . S
O365 C359 1.268 . S
O366 Sc354 2.105 . S
O366 C360 1.268 . S
O367 Sc353 2.105 . S
O367 C361 1.268 . S
O368 Sc352 2.105 . S
O368 C360 1.268 . S
O369 Sc353 2.105 . S
O369 C359 1.268 . S
O370 Sc354 2.105 . S
O370 C361 1.268 . S
O371 Sc352 2.105 . S
O371 C357 1.268 . S
O372 Sc354 2.105 . S
O372 C356 1.268 . S
O373 Sc353 2.105 . S
O373 C358 1.268 . S
Sc374 O377 2.025 . S
Sc374 O384 2.105 . S
Sc374 O387 2.105 . S
Sc374 O390 2.105 . S
Sc374 O393 2.105 . S
Sc375 O377 2.025 . S
Sc375 O385 2.105 . S
Sc375 O389 2.105 . S
Sc375 O391 2.105 . S
Sc375 O395 2.105 . S
Sc376 O377 2.025 . S
Sc376 O386 2.105 . S
Sc376 O388 2.105 . S
Sc376 O392 2.105 . S
Sc376 O394 2.105 . S
O377 Sc374 2.025 . S
O377 Sc375 2.025 . S
O377 Sc376 2.025 . S
C378 O384 1.268 . S
C378 O394 1.268 . S
C379 O385 1.268 . S
C379 O393 1.268 . S
C380 O386 1.268 . S
C380 O395 1.268 . S
C381 O387 1.268 . S
C381 O391 1.268 . S
C382 O388 1.268 . S
C382 O390 1.268 . S
C383 O389 1.268 . S
C383 O392 1.268 . S
O384 Sc374 2.105 . S
O384 C378 1.268 . S
O385 Sc375 2.105 . S
O385 C379 1.268 . S
O386 Sc376 2.105 . S
O386 C380 1.268 . S
O387 Sc374 2.105 . S
O387 C381 1.268 . S
O388 Sc376 2.105 . S
O388 C382 1.268 . S
O389 Sc375 2.105 . S
O389 C383 1.268 . S
O390 Sc374 2.105 . S
O390 C382 1.268 . S
O391 Sc375 2.105 . S
O391 C381 1.268 . S
O392 Sc376 2.105 . S
O392 C383 1.268 . S
O393 Sc374 2.105 . S
O393 C379 1.268 . S
O394 Sc376 2.105 . S
O394 C378 1.268 . S
O395 Sc375 2.105 . S
O395 C380 1.268 . S
Sc396 O399 2.025 . S
Sc396 O406 2.105 . S
Sc396 O409 2.105 . S
Sc396 O412 2.105 . S
Sc396 O415 2.105 . S
Sc397 O399 2.025 . S
Sc397 O407 2.105 . S
Sc397 O411 2.105 . S
Sc397 O413 2.105 . S
Sc397 O417 2.105 . S
Sc398 O399 2.025 . S
Sc398 O408 2.105 . S
Sc398 O410 2.105 . S
Sc398 O414 2.105 . S
Sc398 O416 2.105 . S
O399 Sc396 2.025 . S
O399 Sc397 2.025 . S
O399 Sc398 2.025 . S
C400 O406 1.268 . S
C400 O416 1.268 . S
C401 O407 1.268 . S
C401 O415 1.268 . S
C402 O408 1.268 . S
C402 O417 1.268 . S
C403 O409 1.268 . S
C403 O413 1.268 . S
C404 O410 1.268 . S
C404 O412 1.268 . S
C405 O411 1.268 . S
C405 O414 1.268 . S
O406 Sc396 2.105 . S
O406 C400 1.268 . S
O407 Sc397 2.105 . S
O407 C401 1.268 . S
O408 Sc398 2.105 . S
O408 C402 1.268 . S
O409 Sc396 2.105 . S
O409 C403 1.268 . S
O410 Sc398 2.105 . S
O410 C404 1.268 . S
O411 Sc397 2.105 . S
O411 C405 1.268 . S
O412 Sc396 2.105 . S
O412 C404 1.268 . S
O413 Sc397 2.105 . S
O413 C403 1.268 . S
O414 Sc398 2.105 . S
O414 C405 1.268 . S
O415 Sc396 2.105 . S
O415 C401 1.268 . S
O416 Sc398 2.105 . S
O416 C400 1.268 . S
O417 Sc397 2.105 . S
O417 C402 1.268 . S
Sc418 O421 2.025 . S
Sc418 O428 2.105 . S
Sc418 O431 2.105 . S
Sc418 O434 2.105 . S
Sc418 O437 2.105 . S
Sc419 O421 2.025 . S
Sc419 O429 2.105 . S
Sc419 O433 2.105 . S
Sc419 O435 2.105 . S
Sc419 O439 2.105 . S
Sc420 O421 2.025 . S
Sc420 O430 2.105 . S
Sc420 O432 2.105 . S
Sc420 O436 2.105 . S
Sc420 O438 2.105 . S
O421 Sc418 2.025 . S
O421 Sc419 2.025 . S
O421 Sc420 2.025 . S
C422 O428 1.268 . S
C422 O438 1.268 . S
C423 O429 1.268 . S
C423 O437 1.268 . S
C424 O430 1.268 . S
C424 O439 1.268 . S
C425 O431 1.268 . S
C425 O435 1.268 . S
C426 O432 1.268 . S
C426 O434 1.268 . S
C427 O433 1.268 . S
C427 O436 1.268 . S
O428 Sc418 2.105 . S
O428 C422 1.268 . S
O429 Sc419 2.105 . S
O429 C423 1.268 . S
O430 Sc420 2.105 . S
O430 C424 1.268 . S
O431 Sc418 2.105 . S
O431 C425 1.268 . S
O432 Sc420 2.105 . S
O432 C426 1.268 . S
O433 Sc419 2.105 . S
O433 C427 1.268 . S
O434 Sc418 2.105 . S
O434 C426 1.268 . S
O435 Sc419 2.105 . S
O435 C425 1.268 . S
O436 Sc420 2.105 . S
O436 C427 1.268 . S
O437 Sc418 2.105 . S
O437 C423 1.268 . S
O438 Sc420 2.105 . S
O438 C422 1.268 . S
O439 Sc419 2.105 . S
O439 C424 1.268 . S
Sc440 O443 2.025 . S
Sc440 O450 2.105 . S
Sc440 O453 2.105 . S
Sc440 O456 2.105 . S
Sc440 O459 2.105 . S
Sc441 O443 2.025 . S
Sc441 O451 2.105 . S
Sc441 O455 2.105 . S
Sc441 O457 2.105 . S
Sc441 O461 2.105 . S
Sc442 O443 2.025 . S
Sc442 O452 2.105 . S
Sc442 O454 2.105 . S
Sc442 O458 2.105 . S
Sc442 O460 2.105 . S
O443 Sc440 2.025 . S
O443 Sc441 2.025 . S
O443 Sc442 2.025 . S
C444 O450 1.268 . S
C444 O460 1.268 . S
C445 O451 1.268 . S
C445 O459 1.268 . S
C446 O452 1.268 . S
C446 O461 1.268 . S
C447 O453 1.268 . S
C447 O457 1.268 . S
C448 O454 1.268 . S
C448 O456 1.268 . S
C449 O455 1.268 . S
C449 O458 1.268 . S
O450 Sc440 2.105 . S
O450 C444 1.268 . S
O451 Sc441 2.105 . S
O451 C445 1.268 . S
O452 Sc442 2.105 . S
O452 C446 1.268 . S
O453 Sc440 2.105 . S
O453 C447 1.268 . S
O454 Sc442 2.105 . S
O454 C448 1.268 . S
O455 Sc441 2.105 . S
O455 C449 1.268 . S
O456 Sc440 2.105 . S
O456 C448 1.268 . S
O457 Sc441 2.105 . S
O457 C447 1.268 . S
O458 Sc442 2.105 . S
O458 C449 1.268 . S
O459 Sc440 2.105 . S
O459 C445 1.268 . S
O460 Sc442 2.105 . S
O460 C444 1.268 . S
O461 Sc441 2.105 . S
O461 C446 1.268 . S
Sc462 O465 2.025 . S
Sc462 O472 2.105 . S
Sc462 O475 2.105 . S
Sc462 O478 2.105 . S
Sc462 O481 2.105 . S
Sc463 O465 2.025 . S
Sc463 O473 2.105 . S
Sc463 O477 2.105 . S
Sc463 O479 2.105 . S
Sc463 O483 2.105 . S
Sc464 O465 2.025 . S
Sc464 O474 2.105 . S
Sc464 O476 2.105 . S
Sc464 O480 2.105 . S
Sc464 O482 2.105 . S
O465 Sc462 2.025 . S
O465 Sc463 2.025 . S
O465 Sc464 2.025 . S
C466 O472 1.268 . S
C466 O482 1.268 . S
C467 O473 1.268 . S
C467 O481 1.268 . S
C468 O474 1.268 . S
C468 O483 1.268 . S
C469 O475 1.268 . S
C469 O479 1.268 . S
C470 O476 1.268 . S
C470 O478 1.268 . S
C471 O477 1.268 . S
C471 O480 1.268 . S
O472 Sc462 2.105 . S
O472 C466 1.268 . S
O473 Sc463 2.105 . S
O473 C467 1.268 . S
O474 Sc464 2.105 . S
O474 C468 1.268 . S
O475 Sc462 2.105 . S
O475 C469 1.268 . S
O476 Sc464 2.105 . S
O476 C470 1.268 . S
O477 Sc463 2.105 . S
O477 C471 1.268 . S
O478 Sc462 2.105 . S
O478 C470 1.268 . S
O479 Sc463 2.105 . S
O479 C469 1.268 . S
O480 Sc464 2.105 . S
O480 C471 1.268 . S
O481 Sc462 2.105 . S
O481 C467 1.268 . S
O482 Sc464 2.105 . S
O482 C466 1.268 . S
O483 Sc463 2.105 . S
O483 C468 1.268 . S
Sc484 O487 2.025 . S
Sc484 O494 2.105 . S
Sc484 O497 2.105 . S
Sc484 O500 2.105 . S
Sc484 O503 2.105 . S
Sc485 O487 2.025 . S
Sc485 O495 2.105 . S
Sc485 O499 2.105 . S
Sc485 O501 2.105 . S
Sc485 O505 2.105 . S
Sc486 O487 2.025 . S
Sc486 O496 2.105 . S
Sc486 O498 2.105 . S
Sc486 O502 2.105 . S
Sc486 O504 2.105 . S
O487 Sc484 2.025 . S
O487 Sc485 2.025 . S
O487 Sc486 2.025 . S
C488 O494 1.268 . S
C488 O504 1.268 . S
C489 O495 1.268 . S
C489 O503 1.268 . S
C490 O496 1.268 . S
C490 O505 1.268 . S
C491 O497 1.268 . S
C491 O501 1.268 . S
C492 O498 1.268 . S
C492 O500 1.268 . S
C493 O499 1.268 . S
C493 O502 1.268 . S
O494 Sc484 2.105 . S
O494 C488 1.268 . S
O495 Sc485 2.105 . S
O495 C489 1.268 . S
O496 Sc486 2.105 . S
O496 C490 1.268 . S
O497 Sc484 2.105 . S
O497 C491 1.268 . S
O498 Sc486 2.105 . S
O498 C492 1.268 . S
O499 Sc485 2.105 . S
O499 C493 1.268 . S
O500 Sc484 2.105 . S
O500 C492 1.268 . S
O501 Sc485 2.105 . S
O501 C491 1.268 . S
O502 Sc486 2.105 . S
O502 C493 1.268 . S
O503 Sc484 2.105 . S
O503 C489 1.268 . S
O504 Sc486 2.105 . S
O504 C488 1.268 . S
O505 Sc485 2.105 . S
O505 C490 1.268 . S
Sc506 O509 2.025 . S
Sc506 O516 2.105 . S
Sc506 O519 2.105 . S
Sc506 O522 2.105 . S
Sc506 O525 2.105 . S
Sc507 O509 2.025 . S
Sc507 O517 2.105 . S
Sc507 O521 2.105 . S
Sc507 O523 2.105 . S
Sc507 O527 2.105 . S
Sc508 O509 2.025 . S
Sc508 O518 2.105 . S
Sc508 O520 2.105 . S
Sc508 O524 2.105 . S
Sc508 O526 2.105 . S
O509 Sc506 2.025 . S
O509 Sc507 2.025 . S
O509 Sc508 2.025 . S
C510 O516 1.268 . S
C510 O526 1.268 . S
C511 O517 1.268 . S
C511 O525 1.268 . S
C512 O518 1.268 . S
C512 O527 1.268 . S
C513 O519 1.268 . S
C513 O523 1.268 . S
C514 O520 1.268 . S
C514 O522 1.268 . S
C515 O521 1.268 . S
C515 O524 1.268 . S
O516 Sc506 2.105 . S
O516 C510 1.268 . S
O517 Sc507 2.105 . S
O517 C511 1.268 . S
O518 Sc508 2.105 . S
O518 C512 1.268 . S
O519 Sc506 2.105 . S
O519 C513 1.268 . S
O520 Sc508 2.105 . S
O520 C514 1.268 . S
O521 Sc507 2.105 . S
O521 C515 1.268 . S
O522 Sc506 2.105 . S
O522 C514 1.268 . S
O523 Sc507 2.105 . S
O523 C513 1.268 . S
O524 Sc508 2.105 . S
O524 C515 1.268 . S
O525 Sc506 2.105 . S
O525 C511 1.268 . S
O526 Sc508 2.105 . S
O526 C510 1.268 . S
O527 Sc507 2.105 . S
O527 C512 1.268 . S
Sc528 O531 2.025 . S
Sc528 O538 2.105 . S
Sc528 O541 2.105 . S
Sc528 O544 2.105 . S
Sc528 O547 2.105 . S
Sc529 O531 2.025 . S
Sc529 O539 2.105 . S
Sc529 O543 2.105 . S
Sc529 O545 2.105 . S
Sc529 O549 2.105 . S
Sc530 O531 2.025 . S
Sc530 O540 2.105 . S
Sc530 O542 2.105 . S
Sc530 O546 2.105 . S
Sc530 O548 2.105 . S
O531 Sc528 2.025 . S
O531 Sc529 2.025 . S
O531 Sc530 2.025 . S
C532 O538 1.268 . S
C532 O548 1.268 . S
C533 O539 1.268 . S
C533 O547 1.268 . S
C534 O540 1.268 . S
C534 O549 1.268 . S
C535 O541 1.268 . S
C535 O545 1.268 . S
C536 O542 1.268 . S
C536 O544 1.268 . S
C537 O543 1.268 . S
C537 O546 1.268 . S
O538 Sc528 2.105 . S
O538 C532 1.268 . S
O539 Sc529 2.105 . S
O539 C533 1.268 . S
O540 Sc530 2.105 . S
O540 C534 1.268 . S
O541 Sc528 2.105 . S
O541 C535 1.268 . S
O542 Sc530 2.105 . S
O542 C536 1.268 . S
O543 Sc529 2.105 . S
O543 C537 1.268 . S
O544 Sc528 2.105 . S
O544 C536 1.268 . S
O545 Sc529 2.105 . S
O545 C535 1.268 . S
O546 Sc530 2.105 . S
O546 C537 1.268 . S
O547 Sc528 2.105 . S
O547 C533 1.268 . S
O548 Sc530 2.105 . S
O548 C532 1.268 . S
O549 Sc529 2.105 . S
O549 C534 1.268 . S
Sc550 O553 2.025 . S
Sc550 O560 2.105 . S
Sc550 O563 2.105 . S
Sc550 O566 2.105 . S
Sc550 O569 2.105 . S
Sc551 O553 2.025 . S
Sc551 O561 2.105 . S
Sc551 O565 2.105 . S
Sc551 O567 2.105 . S
Sc551 O571 2.105 . S
Sc552 O553 2.025 . S
Sc552 O562 2.105 . S
Sc552 O564 2.105 . S
Sc552 O568 2.105 . S
Sc552 O570 2.105 . S
O553 Sc550 2.025 . S
O553 Sc551 2.025 . S
O553 Sc552 2.025 . S
C554 O560 1.268 . S
C554 O570 1.268 . S
C555 O561 1.268 . S
C555 O569 1.268 . S
C556 O562 1.268 . S
C556 O571 1.268 . S
C557 O563 1.268 . S
C557 O567 1.268 . S
C558 O564 1.268 . S
C558 O566 1.268 . S
C559 O565 1.268 . S
C559 O568 1.268 . S
O560 Sc550 2.105 . S
O560 C554 1.268 . S
O561 Sc551 2.105 . S
O561 C555 1.268 . S
O562 Sc552 2.105 . S
O562 C556 1.268 . S
O563 Sc550 2.105 . S
O563 C557 1.268 . S
O564 Sc552 2.105 . S
O564 C558 1.268 . S
O565 Sc551 2.105 . S
O565 C559 1.268 . S
O566 Sc550 2.105 . S
O566 C558 1.268 . S
O567 Sc551 2.105 . S
O567 C557 1.268 . S
O568 Sc552 2.105 . S
O568 C559 1.268 . S
O569 Sc550 2.105 . S
O569 C555 1.268 . S
O570 Sc552 2.105 . S
O570 C554 1.268 . S
O571 Sc551 2.105 . S
O571 C556 1.268 . S
Sc572 O575 2.025 . S
Sc572 O582 2.105 . S
Sc572 O585 2.105 . S
Sc572 O588 2.105 . S
Sc572 O591 2.105 . S
Sc573 O575 2.025 . S
Sc573 O583 2.105 . S
Sc573 O587 2.105 . S
Sc573 O589 2.105 . S
Sc573 O593 2.105 . S
Sc574 O575 2.025 . S
Sc574 O584 2.105 . S
Sc574 O586 2.105 . S
Sc574 O590 2.105 . S
Sc574 O592 2.105 . S
O575 Sc572 2.025 . S
O575 Sc573 2.025 . S
O575 Sc574 2.025 . S
C576 O582 1.268 . S
C576 O592 1.268 . S
C577 O583 1.268 . S
C577 O591 1.268 . S
C578 O584 1.268 . S
C578 O593 1.268 . S
C579 O585 1.268 . S
C579 O589 1.268 . S
C580 O586 1.268 . S
C580 O588 1.268 . S
C581 O587 1.268 . S
C581 O590 1.268 . S
O582 Sc572 2.105 . S
O582 C576 1.268 . S
O583 Sc573 2.105 . S
O583 C577 1.268 . S
O584 Sc574 2.105 . S
O584 C578 1.268 . S
O585 Sc572 2.105 . S
O585 C579 1.268 . S
O586 Sc574 2.105 . S
O586 C580 1.268 . S
O587 Sc573 2.105 . S
O587 C581 1.268 . S
O588 Sc572 2.105 . S
O588 C580 1.268 . S
O589 Sc573 2.105 . S
O589 C579 1.268 . S
O590 Sc574 2.105 . S
O590 C581 1.268 . S
O591 Sc572 2.105 . S
O591 C577 1.268 . S
O592 Sc574 2.105 . S
O592 C576 1.268 . S
O593 Sc573 2.105 . S
O593 C578 1.268 . S
Sc594 O597 2.025 . S
Sc594 O604 2.105 . S
Sc594 O607 2.105 . S
Sc594 O610 2.105 . S
Sc594 O613 2.105 . S
Sc595 O597 2.025 . S
Sc595 O605 2.105 . S
Sc595 O609 2.105 . S
Sc595 O611 2.105 . S
Sc595 O615 2.105 . S
Sc596 O597 2.025 . S
Sc596 O606 2.105 . S
Sc596 O608 2.105 . S
Sc596 O612 2.105 . S
Sc596 O614 2.105 . S
O597 Sc594 2.025 . S
O597 Sc595 2.025 . S
O597 Sc596 2.025 . S
C598 O604 1.268 . S
C598 O614 1.268 . S
C599 O605 1.268 . S
C599 O613 1.268 . S
C600 O606 1.268 . S
C600 O615 1.268 . S
C601 O607 1.268 . S
C601 O611 1.268 . S
C602 O608 1.268 . S
C602 O610 1.268 . S
C603 O609 1.268 . S
C603 O612 1.268 . S
O604 Sc594 2.105 . S
O604 C598 1.268 . S
O605 Sc595 2.105 . S
O605 C599 1.268 . S
O606 Sc596 2.105 . S
O606 C600 1.268 . S
O607 Sc594 2.105 . S
O607 C601 1.268 . S
O608 Sc596 2.105 . S
O608 C602 1.268 . S
O609 Sc595 2.105 . S
O609 C603 1.268 . S
O610 Sc594 2.105 . S
O610 C602 1.268 . S
O611 Sc595 2.105 . S
O611 C601 1.268 . S
O612 Sc596 2.105 . S
O612 C603 1.268 . S
O613 Sc594 2.105 . S
O613 C599 1.268 . S
O614 Sc596 2.105 . S
O614 C598 1.268 . S
O615 Sc595 2.105 . S
O615 C600 1.268 . S
Sc616 O619 2.025 . S
Sc616 O626 2.105 . S
Sc616 O629 2.105 . S
Sc616 O632 2.105 . S
Sc616 O635 2.105 . S
Sc617 O619 2.025 . S
Sc617 O627 2.105 . S
Sc617 O631 2.105 . S
Sc617 O633 2.105 . S
Sc617 O637 2.105 . S
Sc618 O619 2.025 . S
Sc618 O628 2.105 . S
Sc618 O630 2.105 . S
Sc618 O634 2.105 . S
Sc618 O636 2.105 . S
O619 Sc616 2.025 . S
O619 Sc617 2.025 . S
O619 Sc618 2.025 . S
C620 O626 1.268 . S
C620 O636 1.268 . S
C621 O627 1.268 . S
C621 O635 1.268 . S
C622 O628 1.268 . S
C622 O637 1.268 . S
C623 O629 1.268 . S
C623 O633 1.268 . S
C624 O630 1.268 . S
C624 O632 1.268 . S
C625 O631 1.268 . S
C625 O634 1.268 . S
O626 Sc616 2.105 . S
O626 C620 1.268 . S
O627 Sc617 2.105 . S
O627 C621 1.268 . S
O628 Sc618 2.105 . S
O628 C622 1.268 . S
O629 Sc616 2.105 . S
O629 C623 1.268 . S
O630 Sc618 2.105 . S
O630 C624 1.268 . S
O631 Sc617 2.105 . S
O631 C625 1.268 . S
O632 Sc616 2.105 . S
O632 C624 1.268 . S
O633 Sc617 2.105 . S
O633 C623 1.268 . S
O634 Sc618 2.105 . S
O634 C625 1.268 . S
O635 Sc616 2.105 . S
O635 C621 1.268 . S
O636 Sc618 2.105 . S
O636 C620 1.268 . S
O637 Sc617 2.105 . S
O637 C622 1.268 . S
Sc638 O641 2.025 . S
Sc638 O648 2.105 . S
Sc638 O651 2.105 . S
Sc638 O654 2.105 . S
Sc638 O657 2.105 . S
Sc639 O641 2.025 . S
Sc639 O649 2.105 . S
Sc639 O653 2.105 . S
Sc639 O655 2.105 . S
Sc639 O659 2.105 . S
Sc640 O641 2.025 . S
Sc640 O650 2.105 . S
Sc640 O652 2.105 . S
Sc640 O656 2.105 . S
Sc640 O658 2.105 . S
O641 Sc638 2.025 . S
O641 Sc639 2.025 . S
O641 Sc640 2.025 . S
C642 O648 1.268 . S
C642 O658 1.268 . S
C643 O649 1.268 . S
C643 O657 1.268 . S
C644 O650 1.268 . S
C644 O659 1.268 . S
C645 O651 1.268 . S
C645 O655 1.268 . S
C646 O652 1.268 . S
C646 O654 1.268 . S
C647 O653 1.268 . S
C647 O656 1.268 . S
O648 Sc638 2.105 . S
O648 C642 1.268 . S
O649 Sc639 2.105 . S
O649 C643 1.268 . S
O650 Sc640 2.105 . S
O650 C644 1.268 . S
O651 Sc638 2.105 . S
O651 C645 1.268 . S
O652 Sc640 2.105 . S
O652 C646 1.268 . S
O653 Sc639 2.105 . S
O653 C647 1.268 . S
O654 Sc638 2.105 . S
O654 C646 1.268 . S
O655 Sc639 2.105 . S
O655 C645 1.268 . S
O656 Sc640 2.105 . S
O656 C647 1.268 . S
O657 Sc638 2.105 . S
O657 C643 1.268 . S
O658 Sc640 2.105 . S
O658 C642 1.268 . S
O659 Sc639 2.105 . S
O659 C644 1.268 . S
Sc660 O663 2.025 . S
Sc660 O670 2.105 . S
Sc660 O673 2.105 . S
Sc660 O676 2.105 . S
Sc660 O679 2.105 . S
Sc661 O663 2.025 . S
Sc661 O671 2.105 . S
Sc661 O675 2.105 . S
Sc661 O677 2.105 . S
Sc661 O681 2.105 . S
Sc662 O663 2.025 . S
Sc662 O672 2.105 . S
Sc662 O674 2.105 . S
Sc662 O678 2.105 . S
Sc662 O680 2.105 . S
O663 Sc660 2.025 . S
O663 Sc661 2.025 . S
O663 Sc662 2.025 . S
C664 O670 1.268 . S
C664 O680 1.268 . S
C665 O671 1.268 . S
C665 O679 1.268 . S
C666 O672 1.268 . S
C666 O681 1.268 . S
C667 O673 1.268 . S
C667 O677 1.268 . S
C668 O674 1.268 . S
C668 O676 1.268 . S
C669 O675 1.268 . S
C669 O678 1.268 . S
O670 Sc660 2.105 . S
O670 C664 1.268 . S
O671 Sc661 2.105 . S
O671 C665 1.268 . S
O672 Sc662 2.105 . S
O672 C666 1.268 . S
O673 Sc660 2.105 . S
O673 C667 1.268 . S
O674 Sc662 2.105 . S
O674 C668 1.268 . S
O675 Sc661 2.105 . S
O675 C669 1.268 . S
O676 Sc660 2.105 . S
O676 C668 1.268 . S
O677 Sc661 2.105 . S
O677 C667 1.268 . S
O678 Sc662 2.105 . S
O678 C669 1.268 . S
O679 Sc660 2.105 . S
O679 C665 1.268 . S
O680 Sc662 2.105 . S
O680 C664 1.268 . S
O681 Sc661 2.105 . S
O681 C666 1.268 . S
Sc682 O685 2.025 . S
Sc682 O692 2.105 . S
Sc682 O695 2.105 . S
Sc682 O698 2.105 . S
Sc682 O701 2.105 . S
Sc683 O685 2.025 . S
Sc683 O693 2.105 . S
Sc683 O697 2.105 . S
Sc683 O699 2.105 . S
Sc683 O703 2.105 . S
Sc684 O685 2.025 . S
Sc684 O694 2.105 . S
Sc684 O696 2.105 . S
Sc684 O700 2.105 . S
Sc684 O702 2.105 . S
O685 Sc682 2.025 . S
O685 Sc683 2.025 . S
O685 Sc684 2.025 . S
C686 O692 1.268 . S
C686 O702 1.268 . S
C687 O693 1.268 . S
C687 O701 1.268 . S
C688 O694 1.268 . S
C688 O703 1.268 . S
C689 O695 1.268 . S
C689 O699 1.268 . S
C690 O696 1.268 . S
C690 O698 1.268 . S
C691 O697 1.268 . S
C691 O700 1.268 . S
O692 Sc682 2.105 . S
O692 C686 1.268 . S
O693 Sc683 2.105 . S
O693 C687 1.268 . S
O694 Sc684 2.105 . S
O694 C688 1.268 . S
O695 Sc682 2.105 . S
O695 C689 1.268 . S
O696 Sc684 2.105 . S
O696 C690 1.268 . S
O697 Sc683 2.105 . S
O697 C691 1.268 . S
O698 Sc682 2.105 . S
O698 C690 1.268 . S
O699 Sc683 2.105 . S
O699 C689 1.268 . S
O700 Sc684 2.105 . S
O700 C691 1.268 . S
O701 Sc682 2.105 . S
O701 C687 1.268 . S
O702 Sc684 2.105 . S
O702 C686 1.268 . S
O703 Sc683 2.105 . S
O703 C688 1.268 . S
H704 C710 0.930 . S
H705 C713 0.930 . S
H706 C714 0.930 . S
H707 C715 0.930 . S
H708 C718 0.930 . S
H709 C719 0.930 . S
C710 H704 0.930 . S
C710 C711 1.355 . S
C710 C712 1.415 . S
C711 C710 1.355 . S
C711 C713 1.419 . S
C712 C710 1.415 . S
C712 C717 1.425 . S
C712 C719 1.409 . S
C713 H705 0.930 . S
C713 C711 1.419 . S
C713 C714 1.362 . S
C714 H706 0.930 . S
C714 C713 1.362 . S
C714 C717 1.409 . S
C715 H707 0.930 . S
C715 C716 1.355 . S
C715 C717 1.415 . S
C716 C715 1.355 . S
C716 C718 1.419 . S
C717 C712 1.425 . S
C717 C714 1.409 . S
C717 C715 1.415 . S
C718 H708 0.930 . S
C718 C716 1.419 . S
C718 C719 1.362 . S
C719 H709 0.930 . S
C719 C712 1.409 . S
C719 C718 1.362 . S
H720 C726 0.930 . S
H721 C729 0.930 . S
H722 C730 0.930 . S
H723 C731 0.930 . S
H724 C734 0.930 . S
H725 C735 0.930 . S
C726 H720 0.930 . S
C726 C727 1.355 . S
C726 C728 1.415 . S
C727 C726 1.355 . S
C727 C729 1.419 . S
C728 C726 1.415 . S
C728 C733 1.425 . S
C728 C735 1.409 . S
C729 H721 0.930 . S
C729 C727 1.419 . S
C729 C730 1.362 . S
C730 H722 0.930 . S
C730 C729 1.362 . S
C730 C733 1.409 . S
C731 H723 0.930 . S
C731 C732 1.355 . S
C731 C733 1.415 . S
C732 C731 1.355 . S
C732 C734 1.419 . S
C733 C728 1.425 . S
C733 C730 1.409 . S
C733 C731 1.415 . S
C734 H724 0.930 . S
C734 C732 1.419 . S
C734 C735 1.362 . S
C735 H725 0.930 . S
C735 C728 1.409 . S
C735 C734 1.362 . S
H736 C742 0.930 . S
H737 C745 0.930 . S
H738 C746 0.930 . S
H739 C747 0.930 . S
H740 C750 0.930 . S
H741 C751 0.930 . S
C742 H736 0.930 . S
C742 C743 1.355 . S
C742 C744 1.415 . S
C743 C742 1.355 . S
C743 C745 1.419 . S
C744 C742 1.415 . S
C744 C749 1.425 . S
C744 C751 1.409 . S
C745 H737 0.930 . S
C745 C743 1.419 . S
C745 C746 1.362 . S
C746 H738 0.930 . S
C746 C745 1.362 . S
C746 C749 1.409 . S
C747 H739 0.930 . S
C747 C748 1.355 . S
C747 C749 1.415 . S
C748 C747 1.355 . S
C748 C750 1.419 . S
C749 C744 1.425 . S
C749 C746 1.409 . S
C749 C747 1.415 . S
C750 H740 0.930 . S
C750 C748 1.419 . S
C750 C751 1.362 . S
C751 H741 0.930 . S
C751 C744 1.409 . S
C751 C750 1.362 . S
H752 C758 0.930 . S
H753 C761 0.930 . S
H754 C762 0.930 . S
H755 C763 0.930 . S
H756 C766 0.930 . S
H757 C767 0.930 . S
C758 H752 0.930 . S
C758 C759 1.355 . S
C758 C760 1.415 . S
C759 C758 1.355 . S
C759 C761 1.419 . S
C760 C758 1.415 . S
C760 C765 1.425 . S
C760 C767 1.409 . S
C761 H753 0.930 . S
C761 C759 1.419 . S
C761 C762 1.362 . S
C762 H754 0.930 . S
C762 C761 1.362 . S
C762 C765 1.409 . S
C763 H755 0.930 . S
C763 C764 1.355 . S
C763 C765 1.415 . S
C764 C763 1.355 . S
C764 C766 1.419 . S
C765 C760 1.425 . S
C765 C762 1.409 . S
C765 C763 1.415 . S
C766 H756 0.930 . S
C766 C764 1.419 . S
C766 C767 1.362 . S
C767 H757 0.930 . S
C767 C760 1.409 . S
C767 C766 1.362 . S
H768 C774 0.930 . S
H769 C777 0.930 . S
H770 C778 0.930 . S
H771 C779 0.930 . S
H772 C782 0.930 . S
H773 C783 0.930 . S
C774 H768 0.930 . S
C774 C775 1.355 . S
C774 C776 1.415 . S
C775 C774 1.355 . S
C775 C777 1.419 . S
C776 C774 1.415 . S
C776 C781 1.425 . S
C776 C783 1.409 . S
C777 H769 0.930 . S
C777 C775 1.419 . S
C777 C778 1.362 . S
C778 H770 0.930 . S
C778 C777 1.362 . S
C778 C781 1.409 . S
C779 H771 0.930 . S
C779 C780 1.355 . S
C779 C781 1.415 . S
C780 C779 1.355 . S
C780 C782 1.419 . S
C781 C776 1.425 . S
C781 C778 1.409 . S
C781 C779 1.415 . S
C782 H772 0.930 . S
C782 C780 1.419 . S
C782 C783 1.362 . S
C783 H773 0.930 . S
C783 C776 1.409 . S
C783 C782 1.362 . S
H784 C790 0.930 . S
H785 C793 0.930 . S
H786 C794 0.930 . S
H787 C795 0.930 . S
H788 C798 0.930 . S
H789 C799 0.930 . S
C790 H784 0.930 . S
C790 C791 1.355 . S
C790 C792 1.415 . S
C791 C790 1.355 . S
C791 C793 1.419 . S
C792 C790 1.415 . S
C792 C797 1.425 . S
C792 C799 1.409 . S
C793 H785 0.930 . S
C793 C791 1.419 . S
C793 C794 1.362 . S
C794 H786 0.930 . S
C794 C793 1.362 . S
C794 C797 1.409 . S
C795 H787 0.930 . S
C795 C796 1.355 . S
C795 C797 1.415 . S
C796 C795 1.355 . S
C796 C798 1.419 . S
C797 C792 1.425 . S
C797 C794 1.409 . S
C797 C795 1.415 . S
C798 H788 0.930 . S
C798 C796 1.419 . S
C798 C799 1.362 . S
C799 H789 0.930 . S
C799 C792 1.409 . S
C799 C798 1.362 . S
H800 C806 0.930 . S
H801 C809 0.930 . S
H802 C810 0.930 . S
H803 C811 0.930 . S
H804 C814 0.930 . S
H805 C815 0.930 . S
C806 H800 0.930 . S
C806 C807 1.355 . S
C806 C808 1.415 . S
C807 C806 1.355 . S
C807 C809 1.419 . S
C808 C806 1.415 . S
C808 C813 1.425 . S
C808 C815 1.409 . S
C809 H801 0.930 . S
C809 C807 1.419 . S
C809 C810 1.362 . S
C810 H802 0.930 . S
C810 C809 1.362 . S
C810 C813 1.409 . S
C811 H803 0.930 . S
C811 C812 1.355 . S
C811 C813 1.415 . S
C812 C811 1.355 . S
C812 C814 1.419 . S
C813 C808 1.425 . S
C813 C810 1.409 . S
C813 C811 1.415 . S
C814 H804 0.930 . S
C814 C812 1.419 . S
C814 C815 1.362 . S
C815 H805 0.930 . S
C815 C808 1.409 . S
C815 C814 1.362 . S
H816 C822 0.930 . S
H817 C825 0.930 . S
H818 C826 0.930 . S
H819 C827 0.930 . S
H820 C830 0.930 . S
H821 C831 0.930 . S
C822 H816 0.930 . S
C822 C823 1.355 . S
C822 C824 1.415 . S
C823 C822 1.355 . S
C823 C825 1.419 . S
C824 C822 1.415 . S
C824 C829 1.425 . S
C824 C831 1.409 . S
C825 H817 0.930 . S
C825 C823 1.419 . S
C825 C826 1.362 . S
C826 H818 0.930 . S
C826 C825 1.362 . S
C826 C829 1.409 . S
C827 H819 0.930 . S
C827 C828 1.355 . S
C827 C829 1.415 . S
C828 C827 1.355 . S
C828 C830 1.419 . S
C829 C824 1.425 . S
C829 C826 1.409 . S
C829 C827 1.415 . S
C830 H820 0.930 . S
C830 C828 1.419 . S
C830 C831 1.362 . S
C831 H821 0.930 . S
C831 C824 1.409 . S
C831 C830 1.362 . S
H832 C838 0.930 . S
H833 C841 0.930 . S
H834 C842 0.930 . S
H835 C843 0.930 . S
H836 C846 0.930 . S
H837 C847 0.930 . S
C838 H832 0.930 . S
C838 C839 1.355 . S
C838 C840 1.415 . S
C839 C838 1.355 . S
C839 C841 1.419 . S
C840 C838 1.415 . S
C840 C845 1.425 . S
C840 C847 1.409 . S
C841 H833 0.930 . S
C841 C839 1.419 . S
C841 C842 1.362 . S
C842 H834 0.930 . S
C842 C841 1.362 . S
C842 C845 1.409 . S
C843 H835 0.930 . S
C843 C844 1.355 . S
C843 C845 1.415 . S
C844 C843 1.355 . S
C844 C846 1.419 . S
C845 C840 1.425 . S
C845 C842 1.409 . S
C845 C843 1.415 . S
C846 H836 0.930 . S
C846 C844 1.419 . S
C846 C847 1.362 . S
C847 H837 0.930 . S
C847 C840 1.409 . S
C847 C846 1.362 . S
H848 C854 0.930 . S
H849 C857 0.930 . S
H850 C858 0.930 . S
H851 C859 0.930 . S
H852 C862 0.930 . S
H853 C863 0.930 . S
C854 H848 0.930 . S
C854 C855 1.355 . S
C854 C856 1.415 . S
C855 C854 1.355 . S
C855 C857 1.419 . S
C856 C854 1.415 . S
C856 C861 1.425 . S
C856 C863 1.409 . S
C857 H849 0.930 . S
C857 C855 1.419 . S
C857 C858 1.362 . S
C858 H850 0.930 . S
C858 C857 1.362 . S
C858 C861 1.409 . S
C859 H851 0.930 . S
C859 C860 1.355 . S
C859 C861 1.415 . S
C860 C859 1.355 . S
C860 C862 1.419 . S
C861 C856 1.425 . S
C861 C858 1.409 . S
C861 C859 1.415 . S
C862 H852 0.930 . S
C862 C860 1.419 . S
C862 C863 1.362 . S
C863 H853 0.930 . S
C863 C856 1.409 . S
C863 C862 1.362 . S
H864 C870 0.930 . S
H865 C873 0.930 . S
H866 C874 0.930 . S
H867 C875 0.930 . S
H868 C878 0.930 . S
H869 C879 0.930 . S
C870 H864 0.930 . S
C870 C871 1.355 . S
C870 C872 1.415 . S
C871 C870 1.355 . S
C871 C873 1.419 . S
C872 C870 1.415 . S
C872 C877 1.425 . S
C872 C879 1.409 . S
C873 H865 0.930 . S
C873 C871 1.419 . S
C873 C874 1.362 . S
C874 H866 0.930 . S
C874 C873 1.362 . S
C874 C877 1.409 . S
C875 H867 0.930 . S
C875 C876 1.355 . S
C875 C877 1.415 . S
C876 C875 1.355 . S
C876 C878 1.419 . S
C877 C872 1.425 . S
C877 C874 1.409 . S
C877 C875 1.415 . S
C878 H868 0.930 . S
C878 C876 1.419 . S
C878 C879 1.362 . S
C879 H869 0.930 . S
C879 C872 1.409 . S
C879 C878 1.362 . S
H880 C886 0.930 . S
H881 C889 0.930 . S
H882 C890 0.930 . S
H883 C891 0.930 . S
H884 C894 0.930 . S
H885 C895 0.930 . S
C886 H880 0.930 . S
C886 C887 1.355 . S
C886 C888 1.415 . S
C887 C886 1.355 . S
C887 C889 1.419 . S
C888 C886 1.415 . S
C888 C893 1.425 . S
C888 C895 1.409 . S
C889 H881 0.930 . S
C889 C887 1.419 . S
C889 C890 1.362 . S
C890 H882 0.930 . S
C890 C889 1.362 . S
C890 C893 1.409 . S
C891 H883 0.930 . S
C891 C892 1.355 . S
C891 C893 1.415 . S
C892 C891 1.355 . S
C892 C894 1.419 . S
C893 C888 1.425 . S
C893 C890 1.409 . S
C893 C891 1.415 . S
C894 H884 0.930 . S
C894 C892 1.419 . S
C894 C895 1.362 . S
C895 H885 0.930 . S
C895 C888 1.409 . S
C895 C894 1.362 . S
H896 C902 0.930 . S
H897 C905 0.930 . S
H898 C906 0.930 . S
H899 C907 0.930 . S
H900 C910 0.930 . S
H901 C911 0.930 . S
C902 H896 0.930 . S
C902 C903 1.355 . S
C902 C904 1.415 . S
C903 C902 1.355 . S
C903 C905 1.419 . S
C904 C902 1.415 . S
C904 C909 1.425 . S
C904 C911 1.409 . S
C905 H897 0.930 . S
C905 C903 1.419 . S
C905 C906 1.362 . S
C906 H898 0.930 . S
C906 C905 1.362 . S
C906 C909 1.409 . S
C907 H899 0.930 . S
C907 C908 1.355 . S
C907 C909 1.415 . S
C908 C907 1.355 . S
C908 C910 1.419 . S
C909 C904 1.425 . S
C909 C906 1.409 . S
C909 C907 1.415 . S
C910 H900 0.930 . S
C910 C908 1.419 . S
C910 C911 1.362 . S
C911 H901 0.930 . S
C911 C904 1.409 . S
C911 C910 1.362 . S
H912 C918 0.930 . S
H913 C921 0.930 . S
H914 C922 0.930 . S
H915 C923 0.930 . S
H916 C926 0.930 . S
H917 C927 0.930 . S
C918 H912 0.930 . S
C918 C919 1.355 . S
C918 C920 1.415 . S
C919 C918 1.355 . S
C919 C921 1.419 . S
C920 C918 1.415 . S
C920 C925 1.425 . S
C920 C927 1.409 . S
C921 H913 0.930 . S
C921 C919 1.419 . S
C921 C922 1.362 . S
C922 H914 0.930 . S
C922 C921 1.362 . S
C922 C925 1.409 . S
C923 H915 0.930 . S
C923 C924 1.355 . S
C923 C925 1.415 . S
C924 C923 1.355 . S
C924 C926 1.419 . S
C925 C920 1.425 . S
C925 C922 1.409 . S
C925 C923 1.415 . S
C926 H916 0.930 . S
C926 C924 1.419 . S
C926 C927 1.362 . S
C927 H917 0.930 . S
C927 C920 1.409 . S
C927 C926 1.362 . S
H928 C934 0.930 . S
H929 C937 0.930 . S
H930 C938 0.930 . S
H931 C939 0.930 . S
H932 C942 0.930 . S
H933 C943 0.930 . S
C934 H928 0.930 . S
C934 C935 1.355 . S
C934 C936 1.415 . S
C935 C934 1.355 . S
C935 C937 1.419 . S
C936 C934 1.415 . S
C936 C941 1.425 . S
C936 C943 1.409 . S
C937 H929 0.930 . S
C937 C935 1.419 . S
C937 C938 1.362 . S
C938 H930 0.930 . S
C938 C937 1.362 . S
C938 C941 1.409 . S
C939 H931 0.930 . S
C939 C940 1.355 . S
C939 C941 1.415 . S
C940 C939 1.355 . S
C940 C942 1.419 . S
C941 C936 1.425 . S
C941 C938 1.409 . S
C941 C939 1.415 . S
C942 H932 0.930 . S
C942 C940 1.419 . S
C942 C943 1.362 . S
C943 H933 0.930 . S
C943 C936 1.409 . S
C943 C942 1.362 . S
H944 C950 0.930 . S
H945 C953 0.930 . S
H946 C954 0.930 . S
H947 C955 0.930 . S
H948 C958 0.930 . S
H949 C959 0.930 . S
C950 H944 0.930 . S
C950 C951 1.355 . S
C950 C952 1.415 . S
C951 C950 1.355 . S
C951 C953 1.419 . S
C952 C950 1.415 . S
C952 C957 1.425 . S
C952 C959 1.409 . S
C953 H945 0.930 . S
C953 C951 1.419 . S
C953 C954 1.362 . S
C954 H946 0.930 . S
C954 C953 1.362 . S
C954 C957 1.409 . S
C955 H947 0.930 . S
C955 C956 1.355 . S
C955 C957 1.415 . S
C956 C955 1.355 . S
C956 C958 1.419 . S
C957 C952 1.425 . S
C957 C954 1.409 . S
C957 C955 1.415 . S
C958 H948 0.930 . S
C958 C956 1.419 . S
C958 C959 1.362 . S
C959 H949 0.930 . S
C959 C952 1.409 . S
C959 C958 1.362 . S
H960 C966 0.930 . S
H961 C969 0.930 . S
H962 C970 0.930 . S
H963 C971 0.930 . S
H964 C974 0.930 . S
H965 C975 0.930 . S
C966 H960 0.930 . S
C966 C967 1.355 . S
C966 C968 1.415 . S
C967 C966 1.355 . S
C967 C969 1.419 . S
C968 C966 1.415 . S
C968 C973 1.425 . S
C968 C975 1.409 . S
C969 H961 0.930 . S
C969 C967 1.419 . S
C969 C970 1.362 . S
C970 H962 0.930 . S
C970 C969 1.362 . S
C970 C973 1.409 . S
C971 H963 0.930 . S
C971 C972 1.355 . S
C971 C973 1.415 . S
C972 C971 1.355 . S
C972 C974 1.419 . S
C973 C968 1.425 . S
C973 C970 1.409 . S
C973 C971 1.415 . S
C974 H964 0.930 . S
C974 C972 1.419 . S
C974 C975 1.362 . S
C975 H965 0.930 . S
C975 C968 1.409 . S
C975 C974 1.362 . S
H976 C982 0.930 . S
H977 C985 0.930 . S
H978 C986 0.930 . S
H979 C987 0.930 . S
H980 C990 0.930 . S
H981 C991 0.930 . S
C982 H976 0.930 . S
C982 C983 1.355 . S
C982 C984 1.415 . S
C983 C982 1.355 . S
C983 C985 1.419 . S
C984 C982 1.415 . S
C984 C989 1.425 . S
C984 C991 1.409 . S
C985 H977 0.930 . S
C985 C983 1.419 . S
C985 C986 1.362 . S
C986 H978 0.930 . S
C986 C985 1.362 . S
C986 C989 1.409 . S
C987 H979 0.930 . S
C987 C988 1.355 . S
C987 C989 1.415 . S
C988 C987 1.355 . S
C988 C990 1.419 . S
C989 C984 1.425 . S
C989 C986 1.409 . S
C989 C987 1.415 . S
C990 H980 0.930 . S
C990 C988 1.419 . S
C990 C991 1.362 . S
C991 H981 0.930 . S
C991 C984 1.409 . S
C991 C990 1.362 . S
H992 C998 0.930 . S
H993 C1001 0.930 . S
H994 C1002 0.930 . S
H995 C1003 0.930 . S
H996 C1006 0.930 . S
H997 C1007 0.930 . S
C998 H992 0.930 . S
C998 C999 1.355 . S
C998 C1000 1.415 . S
C999 C998 1.355 . S
C999 C1001 1.419 . S
C1000 C998 1.415 . S
C1000 C1005 1.425 . S
C1000 C1007 1.409 . S
C1001 H993 0.930 . S
C1001 C999 1.419 . S
C1001 C1002 1.362 . S
C1002 H994 0.930 . S
C1002 C1001 1.362 . S
C1002 C1005 1.409 . S
C1003 H995 0.930 . S
C1003 C1004 1.355 . S
C1003 C1005 1.415 . S
C1004 C1003 1.355 . S
C1004 C1006 1.419 . S
C1005 C1000 1.425 . S
C1005 C1002 1.409 . S
C1005 C1003 1.415 . S
C1006 H996 0.930 . S
C1006 C1004 1.419 . S
C1006 C1007 1.362 . S
C1007 H997 0.930 . S
C1007 C1000 1.409 . S
C1007 C1006 1.362 . S
H1008 C1014 0.930 . S
H1009 C1017 0.930 . S
H1010 C1018 0.930 . S
H1011 C1019 0.930 . S
H1012 C1022 0.930 . S
H1013 C1023 0.930 . S
C1014 H1008 0.930 . S
C1014 C1015 1.355 . S
C1014 C1016 1.415 . S
C1015 C1014 1.355 . S
C1015 C1017 1.419 . S
C1016 C1014 1.415 . S
C1016 C1021 1.425 . S
C1016 C1023 1.409 . S
C1017 H1009 0.930 . S
C1017 C1015 1.419 . S
C1017 C1018 1.362 . S
C1018 H1010 0.930 . S
C1018 C1017 1.362 . S
C1018 C1021 1.409 . S
C1019 H1011 0.930 . S
C1019 C1020 1.355 . S
C1019 C1021 1.415 . S
C1020 C1019 1.355 . S
C1020 C1022 1.419 . S
C1021 C1016 1.425 . S
C1021 C1018 1.409 . S
C1021 C1019 1.415 . S
C1022 H1012 0.930 . S
C1022 C1020 1.419 . S
C1022 C1023 1.362 . S
C1023 H1013 0.930 . S
C1023 C1016 1.409 . S
C1023 C1022 1.362 . S
H1024 C1030 0.930 . S
H1025 C1033 0.930 . S
H1026 C1034 0.930 . S
H1027 C1035 0.930 . S
H1028 C1038 0.930 . S
H1029 C1039 0.930 . S
C1030 H1024 0.930 . S
C1030 C1031 1.355 . S
C1030 C1032 1.415 . S
C1031 C1030 1.355 . S
C1031 C1033 1.419 . S
C1032 C1030 1.415 . S
C1032 C1037 1.425 . S
C1032 C1039 1.409 . S
C1033 H1025 0.930 . S
C1033 C1031 1.419 . S
C1033 C1034 1.362 . S
C1034 H1026 0.930 . S
C1034 C1033 1.362 . S
C1034 C1037 1.409 . S
C1035 H1027 0.930 . S
C1035 C1036 1.355 . S
C1035 C1037 1.415 . S
C1036 C1035 1.355 . S
C1036 C1038 1.419 . S
C1037 C1032 1.425 . S
C1037 C1034 1.409 . S
C1037 C1035 1.415 . S
C1038 H1028 0.930 . S
C1038 C1036 1.419 . S
C1038 C1039 1.362 . S
C1039 H1029 0.930 . S
C1039 C1032 1.409 . S
C1039 C1038 1.362 . S
H1040 C1046 0.930 . S
H1041 C1049 0.930 . S
H1042 C1050 0.930 . S
H1043 C1051 0.930 . S
H1044 C1054 0.930 . S
H1045 C1055 0.930 . S
C1046 H1040 0.930 . S
C1046 C1047 1.355 . S
C1046 C1048 1.415 . S
C1047 C1046 1.355 . S
C1047 C1049 1.419 . S
C1048 C1046 1.415 . S
C1048 C1053 1.425 . S
C1048 C1055 1.409 . S
C1049 H1041 0.930 . S
C1049 C1047 1.419 . S
C1049 C1050 1.362 . S
C1050 H1042 0.930 . S
C1050 C1049 1.362 . S
C1050 C1053 1.409 . S
C1051 H1043 0.930 . S
C1051 C1052 1.355 . S
C1051 C1053 1.415 . S
C1052 C1051 1.355 . S
C1052 C1054 1.419 . S
C1053 C1048 1.425 . S
C1053 C1050 1.409 . S
C1053 C1051 1.415 . S
C1054 H1044 0.930 . S
C1054 C1052 1.419 . S
C1054 C1055 1.362 . S
C1055 H1045 0.930 . S
C1055 C1048 1.409 . S
C1055 C1054 1.362 . S
H1056 C1062 0.930 . S
H1057 C1065 0.930 . S
H1058 C1066 0.930 . S
H1059 C1067 0.930 . S
H1060 C1070 0.930 . S
H1061 C1071 0.930 . S
C1062 H1056 0.930 . S
C1062 C1063 1.355 . S
C1062 C1064 1.415 . S
C1063 C1062 1.355 . S
C1063 C1065 1.419 . S
C1064 C1062 1.415 . S
C1064 C1069 1.425 . S
C1064 C1071 1.409 . S
C1065 H1057 0.930 . S
C1065 C1063 1.419 . S
C1065 C1066 1.362 . S
C1066 H1058 0.930 . S
C1066 C1065 1.362 . S
C1066 C1069 1.409 . S
C1067 H1059 0.930 . S
C1067 C1068 1.355 . S
C1067 C1069 1.415 . S
C1068 C1067 1.355 . S
C1068 C1070 1.419 . S
C1069 C1064 1.425 . S
C1069 C1066 1.409 . S
C1069 C1067 1.415 . S
C1070 H1060 0.930 . S
C1070 C1068 1.419 . S
C1070 C1071 1.362 . S
C1071 H1061 0.930 . S
C1071 C1064 1.409 . S
C1071 C1070 1.362 . S
H1072 C1078 0.930 . S
H1073 C1081 0.930 . S
H1074 C1082 0.930 . S
H1075 C1083 0.930 . S
H1076 C1086 0.930 . S
H1077 C1087 0.930 . S
C1078 H1072 0.930 . S
C1078 C1079 1.355 . S
C1078 C1080 1.415 . S
C1079 C1078 1.355 . S
C1079 C1081 1.419 . S
C1080 C1078 1.415 . S
C1080 C1085 1.425 . S
C1080 C1087 1.409 . S
C1081 H1073 0.930 . S
C1081 C1079 1.419 . S
C1081 C1082 1.362 . S
C1082 H1074 0.930 . S
C1082 C1081 1.362 . S
C1082 C1085 1.409 . S
C1083 H1075 0.930 . S
C1083 C1084 1.355 . S
C1083 C1085 1.415 . S
C1084 C1083 1.355 . S
C1084 C1086 1.419 . S
C1085 C1080 1.425 . S
C1085 C1082 1.409 . S
C1085 C1083 1.415 . S
C1086 H1076 0.930 . S
C1086 C1084 1.419 . S
C1086 C1087 1.362 . S
C1087 H1077 0.930 . S
C1087 C1080 1.409 . S
C1087 C1086 1.362 . S
H1088 C1094 0.930 . S
H1089 C1097 0.930 . S
H1090 C1098 0.930 . S
H1091 C1099 0.930 . S
H1092 C1102 0.930 . S
H1093 C1103 0.930 . S
C1094 H1088 0.930 . S
C1094 C1095 1.355 . S
C1094 C1096 1.415 . S
C1095 C1094 1.355 . S
C1095 C1097 1.419 . S
C1096 C1094 1.415 . S
C1096 C1101 1.425 . S
C1096 C1103 1.409 . S
C1097 H1089 0.930 . S
C1097 C1095 1.419 . S
C1097 C1098 1.362 . S
C1098 H1090 0.930 . S
C1098 C1097 1.362 . S
C1098 C1101 1.409 . S
C1099 H1091 0.930 . S
C1099 C1100 1.355 . S
C1099 C1101 1.415 . S
C1100 C1099 1.355 . S
C1100 C1102 1.419 . S
C1101 C1096 1.425 . S
C1101 C1098 1.409 . S
C1101 C1099 1.415 . S
C1102 H1092 0.930 . S
C1102 C1100 1.419 . S
C1102 C1103 1.362 . S
C1103 H1093 0.930 . S
C1103 C1096 1.409 . S
C1103 C1102 1.362 . S
H1104 C1110 0.930 . S
H1105 C1113 0.930 . S
H1106 C1114 0.930 . S
H1107 C1115 0.930 . S
H1108 C1118 0.930 . S
H1109 C1119 0.930 . S
C1110 H1104 0.930 . S
C1110 C1111 1.355 . S
C1110 C1112 1.415 . S
C1111 C1110 1.355 . S
C1111 C1113 1.419 . S
C1112 C1110 1.415 . S
C1112 C1117 1.425 . S
C1112 C1119 1.409 . S
C1113 H1105 0.930 . S
C1113 C1111 1.419 . S
C1113 C1114 1.362 . S
C1114 H1106 0.930 . S
C1114 C1113 1.362 . S
C1114 C1117 1.409 . S
C1115 H1107 0.930 . S
C1115 C1116 1.355 . S
C1115 C1117 1.415 . S
C1116 C1115 1.355 . S
C1116 C1118 1.419 . S
C1117 C1112 1.425 . S
C1117 C1114 1.409 . S
C1117 C1115 1.415 . S
C1118 H1108 0.930 . S
C1118 C1116 1.419 . S
C1118 C1119 1.362 . S
C1119 H1109 0.930 . S
C1119 C1112 1.409 . S
C1119 C1118 1.362 . S
H1120 C1126 0.930 . S
H1121 C1129 0.930 . S
H1122 C1130 0.930 . S
H1123 C1131 0.930 . S
H1124 C1134 0.930 . S
H1125 C1135 0.930 . S
C1126 H1120 0.930 . S
C1126 C1127 1.355 . S
C1126 C1128 1.415 . S
C1127 C1126 1.355 . S
C1127 C1129 1.419 . S
C1128 C1126 1.415 . S
C1128 C1133 1.425 . S
C1128 C1135 1.409 . S
C1129 H1121 0.930 . S
C1129 C1127 1.419 . S
C1129 C1130 1.362 . S
C1130 H1122 0.930 . S
C1130 C1129 1.362 . S
C1130 C1133 1.409 . S
C1131 H1123 0.930 . S
C1131 C1132 1.355 . S
C1131 C1133 1.415 . S
C1132 C1131 1.355 . S
C1132 C1134 1.419 . S
C1133 C1128 1.425 . S
C1133 C1130 1.409 . S
C1133 C1131 1.415 . S
C1134 H1124 0.930 . S
C1134 C1132 1.419 . S
C1134 C1135 1.362 . S
C1135 H1125 0.930 . S
C1135 C1128 1.409 . S
C1135 C1134 1.362 . S
H1136 C1142 0.930 . S
H1137 C1145 0.930 . S
H1138 C1146 0.930 . S
H1139 C1147 0.930 . S
H1140 C1150 0.930 . S
H1141 C1151 0.930 . S
C1142 H1136 0.930 . S
C1142 C1143 1.355 . S
C1142 C1144 1.415 . S
C1143 C1142 1.355 . S
C1143 C1145 1.419 . S
C1144 C1142 1.415 . S
C1144 C1149 1.425 . S
C1144 C1151 1.409 . S
C1145 H1137 0.930 . S
C1145 C1143 1.419 . S
C1145 C1146 1.362 . S
C1146 H1138 0.930 . S
C1146 C1145 1.362 . S
C1146 C1149 1.409 . S
C1147 H1139 0.930 . S
C1147 C1148 1.355 . S
C1147 C1149 1.415 . S
C1148 C1147 1.355 . S
C1148 C1150 1.419 . S
C1149 C1144 1.425 . S
C1149 C1146 1.409 . S
C1149 C1147 1.415 . S
C1150 H1140 0.930 . S
C1150 C1148 1.419 . S
C1150 C1151 1.362 . S
C1151 H1141 0.930 . S
C1151 C1144 1.409 . S
C1151 C1150 1.362 . S
H1152 C1158 0.930 . S
H1153 C1161 0.930 . S
H1154 C1162 0.930 . S
H1155 C1163 0.930 . S
H1156 C1166 0.930 . S
H1157 C1167 0.930 . S
C1158 H1152 0.930 . S
C1158 C1159 1.355 . S
C1158 C1160 1.415 . S
C1159 C1158 1.355 . S
C1159 C1161 1.419 . S
C1160 C1158 1.415 . S
C1160 C1165 1.425 . S
C1160 C1167 1.409 . S
C1161 H1153 0.930 . S
C1161 C1159 1.419 . S
C1161 C1162 1.362 . S
C1162 H1154 0.930 . S
C1162 C1161 1.362 . S
C1162 C1165 1.409 . S
C1163 H1155 0.930 . S
C1163 C1164 1.355 . S
C1163 C1165 1.415 . S
C1164 C1163 1.355 . S
C1164 C1166 1.419 . S
C1165 C1160 1.425 . S
C1165 C1162 1.409 . S
C1165 C1163 1.415 . S
C1166 H1156 0.930 . S
C1166 C1164 1.419 . S
C1166 C1167 1.362 . S
C1167 H1157 0.930 . S
C1167 C1160 1.409 . S
C1167 C1166 1.362 . S
H1168 C1174 0.930 . S
H1169 C1177 0.930 . S
H1170 C1178 0.930 . S
H1171 C1179 0.930 . S
H1172 C1182 0.930 . S
H1173 C1183 0.930 . S
C1174 H1168 0.930 . S
C1174 C1175 1.355 . S
C1174 C1176 1.415 . S
C1175 C1174 1.355 . S
C1175 C1177 1.419 . S
C1176 C1174 1.415 . S
C1176 C1181 1.425 . S
C1176 C1183 1.409 . S
C1177 H1169 0.930 . S
C1177 C1175 1.419 . S
C1177 C1178 1.362 . S
C1178 H1170 0.930 . S
C1178 C1177 1.362 . S
C1178 C1181 1.409 . S
C1179 H1171 0.930 . S
C1179 C1180 1.355 . S
C1179 C1181 1.415 . S
C1180 C1179 1.355 . S
C1180 C1182 1.419 . S
C1181 C1176 1.425 . S
C1181 C1178 1.409 . S
C1181 C1179 1.415 . S
C1182 H1172 0.930 . S
C1182 C1180 1.419 . S
C1182 C1183 1.362 . S
C1183 H1173 0.930 . S
C1183 C1176 1.409 . S
C1183 C1182 1.362 . S
H1184 C1190 0.930 . S
H1185 C1193 0.930 . S
H1186 C1194 0.930 . S
H1187 C1195 0.930 . S
H1188 C1198 0.930 . S
H1189 C1199 0.930 . S
C1190 H1184 0.930 . S
C1190 C1191 1.355 . S
C1190 C1192 1.415 . S
C1191 C1190 1.355 . S
C1191 C1193 1.419 . S
C1192 C1190 1.415 . S
C1192 C1197 1.425 . S
C1192 C1199 1.409 . S
C1193 H1185 0.930 . S
C1193 C1191 1.419 . S
C1193 C1194 1.362 . S
C1194 H1186 0.930 . S
C1194 C1193 1.362 . S
C1194 C1197 1.409 . S
C1195 H1187 0.930 . S
C1195 C1196 1.355 . S
C1195 C1197 1.415 . S
C1196 C1195 1.355 . S
C1196 C1198 1.419 . S
C1197 C1192 1.425 . S
C1197 C1194 1.409 . S
C1197 C1195 1.415 . S
C1198 H1188 0.930 . S
C1198 C1196 1.419 . S
C1198 C1199 1.362 . S
C1199 H1189 0.930 . S
C1199 C1192 1.409 . S
C1199 C1198 1.362 . S
H1200 C1206 0.930 . S
H1201 C1209 0.930 . S
H1202 C1210 0.930 . S
H1203 C1211 0.930 . S
H1204 C1214 0.930 . S
H1205 C1215 0.930 . S
C1206 H1200 0.930 . S
C1206 C1207 1.355 . S
C1206 C1208 1.415 . S
C1207 C1206 1.355 . S
C1207 C1209 1.419 . S
C1208 C1206 1.415 . S
C1208 C1213 1.425 . S
C1208 C1215 1.409 . S
C1209 H1201 0.930 . S
C1209 C1207 1.419 . S
C1209 C1210 1.362 . S
C1210 H1202 0.930 . S
C1210 C1209 1.362 . S
C1210 C1213 1.409 . S
C1211 H1203 0.930 . S
C1211 C1212 1.355 . S
C1211 C1213 1.415 . S
C1212 C1211 1.355 . S
C1212 C1214 1.419 . S
C1213 C1208 1.425 . S
C1213 C1210 1.409 . S
C1213 C1211 1.415 . S
C1214 H1204 0.930 . S
C1214 C1212 1.419 . S
C1214 C1215 1.362 . S
C1215 H1205 0.930 . S
C1215 C1208 1.409 . S
C1215 C1214 1.362 . S
H1216 C1222 0.930 . S
H1217 C1225 0.930 . S
H1218 C1226 0.930 . S
H1219 C1227 0.930 . S
H1220 C1230 0.930 . S
H1221 C1231 0.930 . S
C1222 H1216 0.930 . S
C1222 C1223 1.355 . S
C1222 C1224 1.415 . S
C1223 C1222 1.355 . S
C1223 C1225 1.419 . S
C1224 C1222 1.415 . S
C1224 C1229 1.425 . S
C1224 C1231 1.409 . S
C1225 H1217 0.930 . S
C1225 C1223 1.419 . S
C1225 C1226 1.362 . S
C1226 H1218 0.930 . S
C1226 C1225 1.362 . S
C1226 C1229 1.409 . S
C1227 H1219 0.930 . S
C1227 C1228 1.355 . S
C1227 C1229 1.415 . S
C1228 C1227 1.355 . S
C1228 C1230 1.419 . S
C1229 C1224 1.425 . S
C1229 C1226 1.409 . S
C1229 C1227 1.415 . S
C1230 H1220 0.930 . S
C1230 C1228 1.419 . S
C1230 C1231 1.362 . S
C1231 H1221 0.930 . S
C1231 C1224 1.409 . S
C1231 C1230 1.362 . S
H1232 C1238 0.930 . S
H1233 C1241 0.930 . S
H1234 C1242 0.930 . S
H1235 C1243 0.930 . S
H1236 C1246 0.930 . S
H1237 C1247 0.930 . S
C1238 H1232 0.930 . S
C1238 C1239 1.355 . S
C1238 C1240 1.415 . S
C1239 C1238 1.355 . S
C1239 C1241 1.419 . S
C1240 C1238 1.415 . S
C1240 C1245 1.425 . S
C1240 C1247 1.409 . S
C1241 H1233 0.930 . S
C1241 C1239 1.419 . S
C1241 C1242 1.362 . S
C1242 H1234 0.930 . S
C1242 C1241 1.362 . S
C1242 C1245 1.409 . S
C1243 H1235 0.930 . S
C1243 C1244 1.355 . S
C1243 C1245 1.415 . S
C1244 C1243 1.355 . S
C1244 C1246 1.419 . S
C1245 C1240 1.425 . S
C1245 C1242 1.409 . S
C1245 C1243 1.415 . S
C1246 H1236 0.930 . S
C1246 C1244 1.419 . S
C1246 C1247 1.362 . S
C1247 H1237 0.930 . S
C1247 C1240 1.409 . S
C1247 C1246 1.362 . S
H1248 C1254 0.930 . S
H1249 C1257 0.930 . S
H1250 C1258 0.930 . S
H1251 C1259 0.930 . S
H1252 C1262 0.930 . S
H1253 C1263 0.930 . S
C1254 H1248 0.930 . S
C1254 C1255 1.355 . S
C1254 C1256 1.415 . S
C1255 C1254 1.355 . S
C1255 C1257 1.419 . S
C1256 C1254 1.415 . S
C1256 C1261 1.425 . S
C1256 C1263 1.409 . S
C1257 H1249 0.930 . S
C1257 C1255 1.419 . S
C1257 C1258 1.362 . S
C1258 H1250 0.930 . S
C1258 C1257 1.362 . S
C1258 C1261 1.409 . S
C1259 H1251 0.930 . S
C1259 C1260 1.355 . S
C1259 C1261 1.415 . S
C1260 C1259 1.355 . S
C1260 C1262 1.419 . S
C1261 C1256 1.425 . S
C1261 C1258 1.409 . S
C1261 C1259 1.415 . S
C1262 H1252 0.930 . S
C1262 C1260 1.419 . S
C1262 C1263 1.362 . S
C1263 H1253 0.930 . S
C1263 C1256 1.409 . S
C1263 C1262 1.362 . S
H1264 C1270 0.930 . S
H1265 C1273 0.930 . S
H1266 C1274 0.930 . S
H1267 C1275 0.930 . S
H1268 C1278 0.930 1_655 S
H1269 C1279 0.930 . S
C1270 H1264 0.930 . S
C1270 C1271 1.355 . S
C1270 C1272 1.415 . S
C1271 C1270 1.355 . S
C1271 C1273 1.419 . S
C1272 C1270 1.415 . S
C1272 C1277 1.425 . S
C1272 C1279 1.409 . S
C1273 H1265 0.930 . S
C1273 C1271 1.419 . S
C1273 C1274 1.362 . S
C1274 H1266 0.930 . S
C1274 C1273 1.362 . S
C1274 C1277 1.409 . S
C1275 H1267 0.930 . S
C1275 C1276 1.355 . S
C1275 C1277 1.415 . S
C1276 C1275 1.355 . S
C1276 C1278 1.419 . S
C1277 C1272 1.425 . S
C1277 C1274 1.409 . S
C1277 C1275 1.415 . S
C1278 H1268 0.930 1_455 S
C1278 C1276 1.419 . S
C1278 C1279 1.362 . S
C1279 H1269 0.930 . S
C1279 C1272 1.409 . S
C1279 C1278 1.362 . S
H1280 C1286 0.930 . S
H1281 C1289 0.930 . S
H1282 C1290 0.930 . S
H1283 C1291 0.930 . S
H1284 C1294 0.930 . S
H1285 C1295 0.930 . S
C1286 H1280 0.930 . S
C1286 C1287 1.355 . S
C1286 C1288 1.415 . S
C1287 C1286 1.355 . S
C1287 C1289 1.419 . S
C1288 C1286 1.415 . S
C1288 C1293 1.425 . S
C1288 C1295 1.409 . S
C1289 H1281 0.930 . S
C1289 C1287 1.419 . S
C1289 C1290 1.362 . S
C1290 H1282 0.930 . S
C1290 C1289 1.362 . S
C1290 C1293 1.409 . S
C1291 H1283 0.930 . S
C1291 C1292 1.355 . S
C1291 C1293 1.415 . S
C1292 C1291 1.355 . S
C1292 C1294 1.419 . S
C1293 C1288 1.425 . S
C1293 C1290 1.409 . S
C1293 C1291 1.415 . S
C1294 H1284 0.930 . S
C1294 C1292 1.419 . S
C1294 C1295 1.362 . S
C1295 H1285 0.930 . S
C1295 C1288 1.409 . S
C1295 C1294 1.362 . S
H1296 C1302 0.930 . S
H1297 C1305 0.940 . S
H1298 C1306 0.930 . S
H1299 C1307 0.930 . S
H1300 C1310 0.930 . S
H1301 C1311 0.930 . S
C1302 H1296 0.930 . S
C1302 C1303 1.355 . S
C1302 C1304 1.415 . S
C1303 C1302 1.355 . S
C1303 C1305 1.419 . S
C1304 C1302 1.415 . S
C1304 C1309 1.425 . S
C1304 C1311 1.409 . S
C1305 H1297 0.940 . S
C1305 C1303 1.419 . S
C1305 C1306 1.362 . S
C1306 H1298 0.930 . S
C1306 C1305 1.362 . S
C1306 C1309 1.409 . S
C1307 H1299 0.930 . S
C1307 C1308 1.355 . S
C1307 C1309 1.415 . S
C1308 C1307 1.355 . S
C1308 C1310 1.419 . S
C1309 C1304 1.425 . S
C1309 C1306 1.409 . S
C1309 C1307 1.415 . S
C1310 H1300 0.930 . S
C1310 C1308 1.419 . S
C1310 C1311 1.362 . S
C1311 H1301 0.930 . S
C1311 C1304 1.409 . S
C1311 C1310 1.362 . S
H1312 C1318 0.930 . S
H1313 C1321 0.939 . S
H1314 C1322 0.930 . S
H1315 C1323 0.930 . S
H1316 C1326 0.930 . S
H1317 C1327 0.930 . S
C1318 H1312 0.930 . S
C1318 C1319 1.355 . S
C1318 C1320 1.415 . S
C1319 C1318 1.355 . S
C1319 C1321 1.419 . S
C1320 C1318 1.415 . S
C1320 C1325 1.425 . S
C1320 C1327 1.409 . S
C1321 H1313 0.939 . S
C1321 C1319 1.419 . S
C1321 C1322 1.362 . S
C1322 H1314 0.930 . S
C1322 C1321 1.362 . S
C1322 C1325 1.409 . S
C1323 H1315 0.930 . S
C1323 C1324 1.355 . S
C1323 C1325 1.415 . S
C1324 C1323 1.355 . S
C1324 C1326 1.419 . S
C1325 C1320 1.425 . S
C1325 C1322 1.409 . S
C1325 C1323 1.415 . S
C1326 H1316 0.930 . S
C1326 C1324 1.419 . S
C1326 C1327 1.362 . S
C1327 H1317 0.930 . S
C1327 C1320 1.409 . S
C1327 C1326 1.362 . S
H1328 C1334 0.930 . S
H1329 C1337 0.930 . S
H1330 C1338 0.930 . S
H1331 C1339 0.930 . S
H1332 C1342 0.930 . S
H1333 C1343 0.930 . S
C1334 H1328 0.930 . S
C1334 C1335 1.355 . S
C1334 C1336 1.415 . S
C1335 C1334 1.355 . S
C1335 C1337 1.419 . S
C1336 C1334 1.415 . S
C1336 C1341 1.425 . S
C1336 C1343 1.409 . S
C1337 H1329 0.930 . S
C1337 C1335 1.419 . S
C1337 C1338 1.362 . S
C1338 H1330 0.930 . S
C1338 C1337 1.362 . S
C1338 C1341 1.409 . S
C1339 H1331 0.930 . S
C1339 C1340 1.355 . S
C1339 C1341 1.415 . S
C1340 C1339 1.355 . S
C1340 C1342 1.419 . S
C1341 C1336 1.425 . S
C1341 C1338 1.409 . S
C1341 C1339 1.415 . S
C1342 H1332 0.930 . S
C1342 C1340 1.419 . S
C1342 C1343 1.362 . S
C1343 H1333 0.930 . S
C1343 C1336 1.409 . S
C1343 C1342 1.362 . S
H1344 C1350 0.930 . S
H1345 C1353 0.930 . S
H1346 C1354 0.930 . S
H1347 C1355 0.930 . S
H1348 C1358 0.930 . S
H1349 C1359 0.930 . S
C1350 H1344 0.930 . S
C1350 C1351 1.355 . S
C1350 C1352 1.415 . S
C1351 C1350 1.355 . S
C1351 C1353 1.419 . S
C1352 C1350 1.415 . S
C1352 C1357 1.425 . S
C1352 C1359 1.409 . S
C1353 H1345 0.930 . S
C1353 C1351 1.419 . S
C1353 C1354 1.362 . S
C1354 H1346 0.930 . S
C1354 C1353 1.362 . S
C1354 C1357 1.409 . S
C1355 H1347 0.930 . S
C1355 C1356 1.355 . S
C1355 C1357 1.415 . S
C1356 C1355 1.355 . S
C1356 C1358 1.419 . S
C1357 C1352 1.425 . S
C1357 C1354 1.409 . S
C1357 C1355 1.415 . S
C1358 H1348 0.930 . S
C1358 C1356 1.419 . S
C1358 C1359 1.362 . S
C1359 H1349 0.930 . S
C1359 C1352 1.409 . S
C1359 C1358 1.362 . S
H1360 C1366 0.930 . S
H1361 C1369 0.930 1_655 S
H1362 C1370 0.930 . S
H1363 C1371 0.930 . S
H1364 C1374 0.930 . S
H1365 C1375 0.930 . S
C1366 H1360 0.930 . S
C1366 C1367 1.355 . S
C1366 C1368 1.415 . S
C1367 C1366 1.355 . S
C1367 C1369 1.419 . S
C1368 C1366 1.415 . S
C1368 C1373 1.425 . S
C1368 C1375 1.409 . S
C1369 H1361 0.930 1_455 S
C1369 C1367 1.419 . S
C1369 C1370 1.362 . S
C1370 H1362 0.930 . S
C1370 C1369 1.362 . S
C1370 C1373 1.409 . S
C1371 H1363 0.930 . S
C1371 C1372 1.355 . S
C1371 C1373 1.415 . S
C1372 C1371 1.355 . S
C1372 C1374 1.419 . S
C1373 C1368 1.425 . S
C1373 C1370 1.409 . S
C1373 C1371 1.415 . S
C1374 H1364 0.930 . S
C1374 C1372 1.419 . S
C1374 C1375 1.362 . S
C1375 H1365 0.930 . S
C1375 C1368 1.409 . S
C1375 C1374 1.362 . S
H1376 C1382 0.930 . S
H1377 C1385 0.930 . S
H1378 C1386 0.930 . S
H1379 C1387 0.930 . S
H1380 C1390 0.930 1_565 S
H1381 C1391 0.930 . S
C1382 H1376 0.930 . S
C1382 C1383 1.355 . S
C1382 C1384 1.415 . S
C1383 C1382 1.355 . S
C1383 C1385 1.419 . S
C1384 C1382 1.415 . S
C1384 C1389 1.425 . S
C1384 C1391 1.409 . S
C1385 H1377 0.930 . S
C1385 C1383 1.419 . S
C1385 C1386 1.362 . S
C1386 H1378 0.930 . S
C1386 C1385 1.362 . S
C1386 C1389 1.409 . S
C1387 H1379 0.930 . S
C1387 C1388 1.355 . S
C1387 C1389 1.415 . S
C1388 C1387 1.355 . S
C1388 C1390 1.419 . S
C1389 C1384 1.425 . S
C1389 C1386 1.409 . S
C1389 C1387 1.415 . S
C1390 H1380 0.930 1_545 S
C1390 C1388 1.419 . S
C1390 C1391 1.362 . S
C1391 H1381 0.930 . S
C1391 C1384 1.409 . S
C1391 C1390 1.362 . S
H1392 C1398 0.930 . S
H1393 C1401 0.930 . S
H1394 C1402 0.930 . S
H1395 C1403 0.930 . S
H1396 C1406 0.930 . S
H1397 C1407 0.930 . S
C1398 H1392 0.930 . S
C1398 C1399 1.355 . S
C1398 C1400 1.415 . S
C1399 C1398 1.355 . S
C1399 C1401 1.419 . S
C1400 C1398 1.415 . S
C1400 C1405 1.425 . S
C1400 C1407 1.409 . S
C1401 H1393 0.930 . S
C1401 C1399 1.419 . S
C1401 C1402 1.362 . S
C1402 H1394 0.930 . S
C1402 C1401 1.362 . S
C1402 C1405 1.409 . S
C1403 H1395 0.930 . S
C1403 C1404 1.355 . S
C1403 C1405 1.415 . S
C1404 C1403 1.355 . S
C1404 C1406 1.419 . S
C1405 C1400 1.425 . S
C1405 C1402 1.409 . S
C1405 C1403 1.415 . S
C1406 H1396 0.930 . S
C1406 C1404 1.419 . S
C1406 C1407 1.362 . S
C1407 H1397 0.930 . S
C1407 C1400 1.409 . S
C1407 C1406 1.362 . S
H1408 C1414 0.930 . S
H1409 C1417 0.930 1_565 S
H1410 C1418 0.930 . S
H1411 C1419 0.930 . S
H1412 C1422 0.930 . S
H1413 C1423 0.930 . S
C1414 H1408 0.930 . S
C1414 C1415 1.355 . S
C1414 C1416 1.415 . S
C1415 C1414 1.355 . S
C1415 C1417 1.419 . S
C1416 C1414 1.415 . S
C1416 C1421 1.425 . S
C1416 C1423 1.409 . S
C1417 H1409 0.930 1_545 S
C1417 C1415 1.419 . S
C1417 C1418 1.362 . S
C1418 H1410 0.930 . S
C1418 C1417 1.362 . S
C1418 C1421 1.409 . S
C1419 H1411 0.930 . S
C1419 C1420 1.355 . S
C1419 C1421 1.415 . S
C1420 C1419 1.355 . S
C1420 C1422 1.419 . S
C1421 C1416 1.425 . S
C1421 C1418 1.409 . S
C1421 C1419 1.415 . S
C1422 H1412 0.930 . S
C1422 C1420 1.419 . S
C1422 C1423 1.362 . S
C1423 H1413 0.930 . S
C1423 C1416 1.409 . S
C1423 C1422 1.362 . S
H1424 C1430 0.930 . S
H1425 C1433 0.930 . S
H1426 C1434 0.930 . S
H1427 C1435 0.930 . S
H1428 C1438 0.930 . S
H1429 C1439 0.930 . S
C1430 H1424 0.930 . S
C1430 C1431 1.355 . S
C1430 C1432 1.415 . S
C1431 C1430 1.355 . S
C1431 C1433 1.419 . S
C1432 C1430 1.415 . S
C1432 C1437 1.425 . S
C1432 C1439 1.409 . S
C1433 H1425 0.930 . S
C1433 C1431 1.419 . S
C1433 C1434 1.362 . S
C1434 H1426 0.930 . S
C1434 C1433 1.362 . S
C1434 C1437 1.409 . S
C1435 H1427 0.930 . S
C1435 C1436 1.355 . S
C1435 C1437 1.415 . S
C1436 C1435 1.355 . S
C1436 C1438 1.419 . S
C1437 C1432 1.425 . S
C1437 C1434 1.409 . S
C1437 C1435 1.415 . S
C1438 H1428 0.930 . S
C1438 C1436 1.419 . S
C1438 C1439 1.362 . S
C1439 H1429 0.930 . S
C1439 C1432 1.409 . S
C1439 C1438 1.362 . S
H1440 C1446 0.930 . S
H1441 C1449 0.930 . S
H1442 C1450 0.930 . S
H1443 C1451 0.930 . S
H1444 C1454 0.930 . S
H1445 C1455 0.930 . S
C1446 H1440 0.930 . S
C1446 C1447 1.355 . S
C1446 C1448 1.415 . S
C1447 C1446 1.355 . S
C1447 C1449 1.419 . S
C1448 C1446 1.415 . S
C1448 C1453 1.425 . S
C1448 C1455 1.409 . S
C1449 H1441 0.930 . S
C1449 C1447 1.419 . S
C1449 C1450 1.362 . S
C1450 H1442 0.930 . S
C1450 C1449 1.362 . S
C1450 C1453 1.409 . S
C1451 H1443 0.930 . S
C1451 C1452 1.355 . S
C1451 C1453 1.415 . S
C1452 C1451 1.355 . S
C1452 C1454 1.419 . S
C1453 C1448 1.425 . S
C1453 C1450 1.409 . S
C1453 C1451 1.415 . S
C1454 H1444 0.930 . S
C1454 C1452 1.419 . S
C1454 C1455 1.362 . S
C1455 H1445 0.930 . S
C1455 C1448 1.409 . S
C1455 C1454 1.362 . S
H1456 C1462 0.930 . S
H1457 C1465 0.930 . S
H1458 C1466 0.930 . S
H1459 C1467 0.930 . S
H1460 C1470 0.930 . S
H1461 C1471 0.930 . S
C1462 H1456 0.930 . S
C1462 C1463 1.355 . S
C1462 C1464 1.415 . S
C1463 C1462 1.355 . S
C1463 C1465 1.419 . S
C1464 C1462 1.415 . S
C1464 C1469 1.425 . S
C1464 C1471 1.409 . S
C1465 H1457 0.930 . S
C1465 C1463 1.419 . S
C1465 C1466 1.362 . S
C1466 H1458 0.930 . S
C1466 C1465 1.362 . S
C1466 C1469 1.409 . S
C1467 H1459 0.930 . S
C1467 C1468 1.355 . S
C1467 C1469 1.415 . S
C1468 C1467 1.355 . S
C1468 C1470 1.419 . S
C1469 C1464 1.425 . S
C1469 C1466 1.409 . S
C1469 C1467 1.415 . S
C1470 H1460 0.930 . S
C1470 C1468 1.419 . S
C1470 C1471 1.362 . S
C1471 H1461 0.930 . S
C1471 C1464 1.409 . S
C1471 C1470 1.362 . S
H1472 C1478 0.930 . S
H1473 C1481 0.930 . S
H1474 C1482 0.930 . S
H1475 C1483 0.930 . S
H1476 C1486 0.930 . S
H1477 C1487 0.930 . S
C1478 H1472 0.930 . S
C1478 C1479 1.355 . S
C1478 C1480 1.415 . S
C1479 C1478 1.355 . S
C1479 C1481 1.419 . S
C1480 C1478 1.415 . S
C1480 C1485 1.425 . S
C1480 C1487 1.409 . S
C1481 H1473 0.930 . S
C1481 C1479 1.419 . S
C1481 C1482 1.362 . S
C1482 H1474 0.930 . S
C1482 C1481 1.362 . S
C1482 C1485 1.409 . S
C1483 H1475 0.930 . S
C1483 C1484 1.355 . S
C1483 C1485 1.415 . S
C1484 C1483 1.355 . S
C1484 C1486 1.419 . S
C1485 C1480 1.425 . S
C1485 C1482 1.409 . S
C1485 C1483 1.415 . S
C1486 H1476 0.930 . S
C1486 C1484 1.419 . S
C1486 C1487 1.362 . S
C1487 H1477 0.930 . S
C1487 C1480 1.409 . S
C1487 C1486 1.362 . S
H1488 C1494 0.930 . S
H1489 C1497 0.930 . S
H1490 C1498 0.930 . S
H1491 C1499 0.930 . S
H1492 C1502 0.930 . S
H1493 C1503 0.930 . S
C1494 H1488 0.930 . S
C1494 C1495 1.355 . S
C1494 C1496 1.415 . S
C1495 C1494 1.355 . S
C1495 C1497 1.419 . S
C1496 C1494 1.415 . S
C1496 C1501 1.425 . S
C1496 C1503 1.409 . S
C1497 H1489 0.930 . S
C1497 C1495 1.419 . S
C1497 C1498 1.362 . S
C1498 H1490 0.930 . S
C1498 C1497 1.362 . S
C1498 C1501 1.409 . S
C1499 H1491 0.930 . S
C1499 C1500 1.355 . S
C1499 C1501 1.415 . S
C1500 C1499 1.355 . S
C1500 C1502 1.419 . S
C1501 C1496 1.425 . S
C1501 C1498 1.409 . S
C1501 C1499 1.415 . S
C1502 H1492 0.930 . S
C1502 C1500 1.419 . S
C1502 C1503 1.362 . S
C1503 H1493 0.930 . S
C1503 C1496 1.409 . S
C1503 C1502 1.362 . S
H1504 C1510 0.930 . S
H1505 C1513 0.930 . S
H1506 C1514 0.930 . S
H1507 C1515 0.930 . S
H1508 C1518 0.930 . S
H1509 C1519 0.930 . S
C1510 H1504 0.930 . S
C1510 C1511 1.355 . S
C1510 C1512 1.415 . S
C1511 C1510 1.355 . S
C1511 C1513 1.419 . S
C1512 C1510 1.415 . S
C1512 C1517 1.425 . S
C1512 C1519 1.409 . S
C1513 H1505 0.930 . S
C1513 C1511 1.419 . S
C1513 C1514 1.362 . S
C1514 H1506 0.930 . S
C1514 C1513 1.362 . S
C1514 C1517 1.409 . S
C1515 H1507 0.930 . S
C1515 C1516 1.355 . S
C1515 C1517 1.415 . S
C1516 C1515 1.355 . S
C1516 C1518 1.419 . S
C1517 C1512 1.425 . S
C1517 C1514 1.409 . S
C1517 C1515 1.415 . S
C1518 H1508 0.930 . S
C1518 C1516 1.419 . S
C1518 C1519 1.362 . S
C1519 H1509 0.930 . S
C1519 C1512 1.409 . S
C1519 C1518 1.362 . S
H1520 C1526 0.930 . S
H1521 C1529 0.930 . S
H1522 C1530 0.930 . S
H1523 C1531 0.930 . S
H1524 C1534 0.930 . S
H1525 C1535 0.930 . S
C1526 H1520 0.930 . S
C1526 C1527 1.355 . S
C1526 C1528 1.415 . S
C1527 C1526 1.355 . S
C1527 C1529 1.419 . S
C1528 C1526 1.415 . S
C1528 C1533 1.425 . S
C1528 C1535 1.409 . S
C1529 H1521 0.930 . S
C1529 C1527 1.419 . S
C1529 C1530 1.362 . S
C1530 H1522 0.930 . S
C1530 C1529 1.362 . S
C1530 C1533 1.409 . S
C1531 H1523 0.930 . S
C1531 C1532 1.355 . S
C1531 C1533 1.415 . S
C1532 C1531 1.355 . S
C1532 C1534 1.419 . S
C1533 C1528 1.425 . S
C1533 C1530 1.409 . S
C1533 C1531 1.415 . S
C1534 H1524 0.930 . S
C1534 C1532 1.419 . S
C1534 C1535 1.362 . S
C1535 H1525 0.930 . S
C1535 C1528 1.409 . S
C1535 C1534 1.362 . S
H1536 C1542 0.930 . S
H1537 C1545 0.930 . S
H1538 C1546 0.930 . S
H1539 C1547 0.930 . S
H1540 C1550 0.930 . S
H1541 C1551 0.930 . S
C1542 H1536 0.930 . S
C1542 C1543 1.355 . S
C1542 C1544 1.415 . S
C1543 C1542 1.355 . S
C1543 C1545 1.419 . S
C1544 C1542 1.415 . S
C1544 C1549 1.425 . S
C1544 C1551 1.409 . S
C1545 H1537 0.930 . S
C1545 C1543 1.419 . S
C1545 C1546 1.362 . S
C1546 H1538 0.930 . S
C1546 C1545 1.362 . S
C1546 C1549 1.409 . S
C1547 H1539 0.930 . S
C1547 C1548 1.355 . S
C1547 C1549 1.415 . S
C1548 C1547 1.355 . S
C1548 C1550 1.419 . S
C1549 C1544 1.425 . S
C1549 C1546 1.409 . S
C1549 C1547 1.415 . S
C1550 H1540 0.930 . S
C1550 C1548 1.419 . S
C1550 C1551 1.362 . S
C1551 H1541 0.930 . S
C1551 C1544 1.409 . S
C1551 C1550 1.362 . S
H1552 C1558 0.930 . S
H1553 C1561 0.930 . S
H1554 C1562 0.930 . S
H1555 C1563 0.930 . S
H1556 C1566 0.930 . S
H1557 C1567 0.930 . S
C1558 H1552 0.930 . S
C1558 C1559 1.355 . S
C1558 C1560 1.415 . S
C1559 C1558 1.355 . S
C1559 C1561 1.419 . S
C1560 C1558 1.415 . S
C1560 C1565 1.425 . S
C1560 C1567 1.409 . S
C1561 H1553 0.930 . S
C1561 C1559 1.419 . S
C1561 C1562 1.362 . S
C1562 H1554 0.930 . S
C1562 C1561 1.362 . S
C1562 C1565 1.409 . S
C1563 H1555 0.930 . S
C1563 C1564 1.355 . S
C1563 C1565 1.415 . S
C1564 C1563 1.355 . S
C1564 C1566 1.419 . S
C1565 C1560 1.425 . S
C1565 C1562 1.409 . S
C1565 C1563 1.415 . S
C1566 H1556 0.930 . S
C1566 C1564 1.419 . S
C1566 C1567 1.362 . S
C1567 H1557 0.930 . S
C1567 C1560 1.409 . S
C1567 C1566 1.362 . S
H1568 C1574 0.930 . S
H1569 C1577 0.930 . S
H1570 C1578 0.930 . S
H1571 C1579 0.930 . S
H1572 C1582 0.930 . S
H1573 C1583 0.930 . S
C1574 H1568 0.930 . S
C1574 C1575 1.355 . S
C1574 C1576 1.415 . S
C1575 C1574 1.355 . S
C1575 C1577 1.419 . S
C1576 C1574 1.415 . S
C1576 C1581 1.425 . S
C1576 C1583 1.409 . S
C1577 H1569 0.930 . S
C1577 C1575 1.419 . S
C1577 C1578 1.362 . S
C1578 H1570 0.930 . S
C1578 C1577 1.362 . S
C1578 C1581 1.409 . S
C1579 H1571 0.930 . S
C1579 C1580 1.355 . S
C1579 C1581 1.415 . S
C1580 C1579 1.355 . S
C1580 C1582 1.419 . S
C1581 C1576 1.425 . S
C1581 C1578 1.409 . S
C1581 C1579 1.415 . S
C1582 H1572 0.930 . S
C1582 C1580 1.419 . S
C1582 C1583 1.362 . S
C1583 H1573 0.930 . S
C1583 C1576 1.409 . S
C1583 C1582 1.362 . S
H1584 C1590 0.930 . S
H1585 C1593 0.930 . S
H1586 C1594 0.930 . S
H1587 C1595 0.930 . S
H1588 C1598 0.930 . S
H1589 C1599 0.930 . S
C1590 H1584 0.930 . S
C1590 C1591 1.355 . S
C1590 C1592 1.415 . S
C1591 C1590 1.355 . S
C1591 C1593 1.419 . S
C1592 C1590 1.415 . S
C1592 C1597 1.425 . S
C1592 C1599 1.409 . S
C1593 H1585 0.930 . S
C1593 C1591 1.419 . S
C1593 C1594 1.362 . S
C1594 H1586 0.930 . S
C1594 C1593 1.362 . S
C1594 C1597 1.409 . S
C1595 H1587 0.930 . S
C1595 C1596 1.355 . S
C1595 C1597 1.415 . S
C1596 C1595 1.355 . S
C1596 C1598 1.419 . S
C1597 C1592 1.425 . S
C1597 C1594 1.409 . S
C1597 C1595 1.415 . S
C1598 H1588 0.930 . S
C1598 C1596 1.419 . S
C1598 C1599 1.362 . S
C1599 H1589 0.930 . S
C1599 C1592 1.409 . S
C1599 C1598 1.362 . S
H1600 C1606 0.930 . S
H1601 C1609 0.930 . S
H1602 C1610 0.930 . S
H1603 C1611 0.930 . S
H1604 C1614 0.930 . S
H1605 C1615 0.930 . S
C1606 H1600 0.930 . S
C1606 C1607 1.355 . S
C1606 C1608 1.415 . S
C1607 C1606 1.355 . S
C1607 C1609 1.419 . S
C1608 C1606 1.415 . S
C1608 C1613 1.425 . S
C1608 C1615 1.409 . S
C1609 H1601 0.930 . S
C1609 C1607 1.419 . S
C1609 C1610 1.362 . S
C1610 H1602 0.930 . S
C1610 C1609 1.362 . S
C1610 C1613 1.409 . S
C1611 H1603 0.930 . S
C1611 C1612 1.355 . S
C1611 C1613 1.415 . S
C1612 C1611 1.355 . S
C1612 C1614 1.419 . S
C1613 C1608 1.425 . S
C1613 C1610 1.409 . S
C1613 C1611 1.415 . S
C1614 H1604 0.930 . S
C1614 C1612 1.419 . S
C1614 C1615 1.362 . S
C1615 H1605 0.930 . S
C1615 C1608 1.409 . S
C1615 C1614 1.362 . S
H1616 C1622 0.930 . S
H1617 C1625 0.930 . S
H1618 C1626 0.930 . S
H1619 C1627 0.930 . S
H1620 C1630 0.930 . S
H1621 C1631 0.930 . S
C1622 H1616 0.930 . S
C1622 C1623 1.355 . S
C1622 C1624 1.415 . S
C1623 C1622 1.355 . S
C1623 C1625 1.419 . S
C1624 C1622 1.415 . S
C1624 C1629 1.425 . S
C1624 C1631 1.409 . S
C1625 H1617 0.930 . S
C1625 C1623 1.419 . S
C1625 C1626 1.362 . S
C1626 H1618 0.930 . S
C1626 C1625 1.362 . S
C1626 C1629 1.409 . S
C1627 H1619 0.930 . S
C1627 C1628 1.355 . S
C1627 C1629 1.415 . S
C1628 C1627 1.355 . S
C1628 C1630 1.419 . S
C1629 C1624 1.425 . S
C1629 C1626 1.409 . S
C1629 C1627 1.415 . S
C1630 H1620 0.930 . S
C1630 C1628 1.419 . S
C1630 C1631 1.362 . S
C1631 H1621 0.930 . S
C1631 C1624 1.409 . S
C1631 C1630 1.362 . S
H1632 C1638 0.930 . S
H1633 C1641 0.930 . S
H1634 C1642 0.930 . S
H1635 C1643 0.930 . S
H1636 C1646 0.930 . S
H1637 C1647 0.930 . S
C1638 H1632 0.930 . S
C1638 C1639 1.355 . S
C1638 C1640 1.415 . S
C1639 C1638 1.355 . S
C1639 C1641 1.419 . S
C1640 C1638 1.415 . S
C1640 C1645 1.425 . S
C1640 C1647 1.409 . S
C1641 H1633 0.930 . S
C1641 C1639 1.419 . S
C1641 C1642 1.362 . S
C1642 H1634 0.930 . S
C1642 C1641 1.362 . S
C1642 C1645 1.409 . S
C1643 H1635 0.930 . S
C1643 C1644 1.355 . S
C1643 C1645 1.415 . S
C1644 C1643 1.355 . S
C1644 C1646 1.419 . S
C1645 C1640 1.425 . S
C1645 C1642 1.409 . S
C1645 C1643 1.415 . S
C1646 H1636 0.930 . S
C1646 C1644 1.419 . S
C1646 C1647 1.362 . S
C1647 H1637 0.930 . S
C1647 C1640 1.409 . S
C1647 C1646 1.362 . S
H1648 C1654 0.930 . S
H1649 C1657 0.930 . S
H1650 C1658 0.930 . S
H1651 C1659 0.930 . S
H1652 C1662 0.930 . S
H1653 C1663 0.930 . S
C1654 H1648 0.930 . S
C1654 C1655 1.355 . S
C1654 C1656 1.415 . S
C1655 C1654 1.355 . S
C1655 C1657 1.419 . S
C1656 C1654 1.415 . S
C1656 C1661 1.425 . S
C1656 C1663 1.409 . S
C1657 H1649 0.930 . S
C1657 C1655 1.419 . S
C1657 C1658 1.362 . S
C1658 H1650 0.930 . S
C1658 C1657 1.362 . S
C1658 C1661 1.409 . S
C1659 H1651 0.930 . S
C1659 C1660 1.355 . S
C1659 C1661 1.415 . S
C1660 C1659 1.355 . S
C1660 C1662 1.419 . S
C1661 C1656 1.425 . S
C1661 C1658 1.409 . S
C1661 C1659 1.415 . S
C1662 H1652 0.930 . S
C1662 C1660 1.419 . S
C1662 C1663 1.362 . S
C1663 H1653 0.930 . S
C1663 C1656 1.409 . S
C1663 C1662 1.362 . S
H1664 C1670 0.930 . S
H1665 C1673 0.930 . S
H1666 C1674 0.930 . S
H1667 C1675 0.930 . S
H1668 C1678 0.930 . S
H1669 C1679 0.930 . S
C1670 H1664 0.930 . S
C1670 C1671 1.355 . S
C1670 C1672 1.415 . S
C1671 C1670 1.355 . S
C1671 C1673 1.419 . S
C1672 C1670 1.415 . S
C1672 C1677 1.425 . S
C1672 C1679 1.409 . S
C1673 H1665 0.930 . S
C1673 C1671 1.419 . S
C1673 C1674 1.362 . S
C1674 H1666 0.930 . S
C1674 C1673 1.362 . S
C1674 C1677 1.409 . S
C1675 H1667 0.930 . S
C1675 C1676 1.355 . S
C1675 C1677 1.415 . S
C1676 C1675 1.355 . S
C1676 C1678 1.419 . S
C1677 C1672 1.425 . S
C1677 C1674 1.409 . S
C1677 C1675 1.415 . S
C1678 H1668 0.930 . S
C1678 C1676 1.419 . S
C1678 C1679 1.362 . S
C1679 H1669 0.930 . S
C1679 C1672 1.409 . S
C1679 C1678 1.362 . S
H1680 C1686 0.930 . S
H1681 C1689 0.930 . S
H1682 C1690 0.930 . S
H1683 C1691 0.930 . S
H1684 C1694 0.930 . S
H1685 C1695 0.930 . S
C1686 H1680 0.930 . S
C1686 C1687 1.355 . S
C1686 C1688 1.415 . S
C1687 C1686 1.355 . S
C1687 C1689 1.419 . S
C1688 C1686 1.415 . S
C1688 C1693 1.425 . S
C1688 C1695 1.409 . S
C1689 H1681 0.930 . S
C1689 C1687 1.419 . S
C1689 C1690 1.362 . S
C1690 H1682 0.930 . S
C1690 C1689 1.362 . S
C1690 C1693 1.409 . S
C1691 H1683 0.930 . S
C1691 C1692 1.355 . S
C1691 C1693 1.415 . S
C1692 C1691 1.355 . S
C1692 C1694 1.419 . S
C1693 C1688 1.425 . S
C1693 C1690 1.409 . S
C1693 C1691 1.415 . S
C1694 H1684 0.930 . S
C1694 C1692 1.419 . S
C1694 C1695 1.362 . S
C1695 H1685 0.930 . S
C1695 C1688 1.409 . S
C1695 C1694 1.362 . S
H1696 C1702 0.930 . S
H1697 C1705 0.930 . S
H1698 C1706 0.930 . S
H1699 C1707 0.930 . S
H1700 C1710 0.930 . S
H1701 C1711 0.930 . S
C1702 H1696 0.930 . S
C1702 C1703 1.355 . S
C1702 C1704 1.415 . S
C1703 C1702 1.355 . S
C1703 C1705 1.419 . S
C1704 C1702 1.415 . S
C1704 C1709 1.425 . S
C1704 C1711 1.409 . S
C1705 H1697 0.930 . S
C1705 C1703 1.419 . S
C1705 C1706 1.362 . S
C1706 H1698 0.930 . S
C1706 C1705 1.362 . S
C1706 C1709 1.409 . S
C1707 H1699 0.930 . S
C1707 C1708 1.355 . S
C1707 C1709 1.415 . S
C1708 C1707 1.355 . S
C1708 C1710 1.419 . S
C1709 C1704 1.425 . S
C1709 C1706 1.409 . S
C1709 C1707 1.415 . S
C1710 H1700 0.930 . S
C1710 C1708 1.419 . S
C1710 C1711 1.362 . S
C1711 H1701 0.930 . S
C1711 C1704 1.409 . S
C1711 C1710 1.362 . S
H1712 C1718 0.930 . S
H1713 C1721 0.930 . S
H1714 C1722 0.930 . S
H1715 C1723 0.930 . S
H1716 C1726 0.930 . S
H1717 C1727 0.930 . S
C1718 H1712 0.930 . S
C1718 C1719 1.355 . S
C1718 C1720 1.415 . S
C1719 C1718 1.355 . S
C1719 C1721 1.419 . S
C1720 C1718 1.415 . S
C1720 C1725 1.425 . S
C1720 C1727 1.409 . S
C1721 H1713 0.930 . S
C1721 C1719 1.419 . S
C1721 C1722 1.362 . S
C1722 H1714 0.930 . S
C1722 C1721 1.362 . S
C1722 C1725 1.409 . S
C1723 H1715 0.930 . S
C1723 C1724 1.355 . S
C1723 C1725 1.415 . S
C1724 C1723 1.355 . S
C1724 C1726 1.419 . S
C1725 C1720 1.425 . S
C1725 C1722 1.409 . S
C1725 C1723 1.415 . S
C1726 H1716 0.930 . S
C1726 C1724 1.419 . S
C1726 C1727 1.362 . S
C1727 H1717 0.930 . S
C1727 C1720 1.409 . S
C1727 C1726 1.362 . S
H1728 C1734 0.930 1_655 S
H1729 C1737 0.930 . S
H1730 C1738 0.930 . S
H1731 C1739 0.930 1_455 S
H1732 C1742 0.930 . S
H1733 C1743 0.930 . S
C1734 H1728 0.930 1_455 S
C1734 C1735 1.355 . S
C1734 C1736 1.415 1_455 S
C1735 C1734 1.355 . S
C1735 C1737 1.419 . S
C1736 C1734 1.415 1_655 S
C1736 C1741 1.425 1_655 S
C1736 C1743 1.409 . S
C1737 H1729 0.930 . S
C1737 C1735 1.419 . S
C1737 C1738 1.362 . S
C1738 H1730 0.930 . S
C1738 C1737 1.362 . S
C1738 C1741 1.409 . S
C1739 H1731 0.930 1_655 S
C1739 C1740 1.355 . S
C1739 C1741 1.415 1_655 S
C1740 C1739 1.355 . S
C1740 C1742 1.419 . S
C1741 C1736 1.425 1_455 S
C1741 C1738 1.409 . S
C1741 C1739 1.415 1_455 S
C1742 H1732 0.930 . S
C1742 C1740 1.419 . S
C1742 C1743 1.362 . S
C1743 H1733 0.930 . S
C1743 C1736 1.409 . S
C1743 C1742 1.362 . S
H1744 C1750 0.930 . S
H1745 C1753 0.930 . S
H1746 C1754 0.930 . S
H1747 C1755 0.930 . S
H1748 C1758 0.930 . S
H1749 C1759 0.930 . S
C1750 H1744 0.930 . S
C1750 C1751 1.355 . S
C1750 C1752 1.415 1_565 S
C1751 C1750 1.355 . S
C1751 C1753 1.419 . S
C1752 C1750 1.415 1_545 S
C1752 C1757 1.425 1_545 S
C1752 C1759 1.409 . S
C1753 H1745 0.930 . S
C1753 C1751 1.419 . S
C1753 C1754 1.362 . S
C1754 H1746 0.930 . S
C1754 C1753 1.362 . S
C1754 C1757 1.409 . S
C1755 H1747 0.930 . S
C1755 C1756 1.355 . S
C1755 C1757 1.415 1_545 S
C1756 C1755 1.355 . S
C1756 C1758 1.419 . S
C1757 C1752 1.425 1_565 S
C1757 C1754 1.409 . S
C1757 C1755 1.415 1_565 S
C1758 H1748 0.930 . S
C1758 C1756 1.419 . S
C1758 C1759 1.362 . S
C1759 H1749 0.930 . S
C1759 C1752 1.409 . S
C1759 C1758 1.362 . S
H1760 C1766 0.930 . S
H1761 C1769 0.930 . S
H1762 C1770 0.930 . S
H1763 C1771 0.930 . S
H1764 C1774 0.930 . S
H1765 C1775 0.930 . S
C1766 H1760 0.930 . S
C1766 C1767 1.355 . S
C1766 C1768 1.415 1_655 S
C1767 C1766 1.355 . S
C1767 C1769 1.419 . S
C1768 C1766 1.415 1_455 S
C1768 C1773 1.425 1_455 S
C1768 C1775 1.409 . S
C1769 H1761 0.930 . S
C1769 C1767 1.419 . S
C1769 C1770 1.362 . S
C1770 H1762 0.930 . S
C1770 C1769 1.362 . S
C1770 C1773 1.409 . S
C1771 H1763 0.930 . S
C1771 C1772 1.355 . S
C1771 C1773 1.415 1_455 S
C1772 C1771 1.355 . S
C1772 C1774 1.419 . S
C1773 C1768 1.425 1_655 S
C1773 C1770 1.409 . S
C1773 C1771 1.415 1_655 S
C1774 H1764 0.930 . S
C1774 C1772 1.419 . S
C1774 C1775 1.362 . S
C1775 H1765 0.930 . S
C1775 C1768 1.409 . S
C1775 C1774 1.362 . S
H1776 C1782 0.930 . S
H1777 C1785 0.930 . S
H1778 C1786 0.930 . S
H1779 C1787 0.930 . S
H1780 C1790 0.930 . S
H1781 C1791 0.930 . S
C1782 H1776 0.930 . S
C1782 C1783 1.355 . S
C1782 C1784 1.415 . S
C1783 C1782 1.355 . S
C1783 C1785 1.419 . S
C1784 C1782 1.415 . S
C1784 C1789 1.425 1_545 S
C1784 C1791 1.409 . S
C1785 H1777 0.930 . S
C1785 C1783 1.419 . S
C1785 C1786 1.362 1_545 S
C1786 H1778 0.930 . S
C1786 C1785 1.362 1_565 S
C1786 C1789 1.409 . S
C1787 H1779 0.930 . S
C1787 C1788 1.355 . S
C1787 C1789 1.415 . S
C1788 C1787 1.355 . S
C1788 C1790 1.419 . S
C1789 C1784 1.425 1_565 S
C1789 C1786 1.409 . S
C1789 C1787 1.415 . S
C1790 H1780 0.930 . S
C1790 C1788 1.419 . S
C1790 C1791 1.362 1_565 S
C1791 H1781 0.930 . S
C1791 C1784 1.409 . S
C1791 C1790 1.362 1_545 S
H1792 C1798 0.930 . S
H1793 C1801 0.930 . S
H1794 C1802 0.930 . S
H1795 C1803 0.930 . S
H1796 C1806 0.930 . S
H1797 C1807 0.930 . S
C1798 H1792 0.930 . S
C1798 C1799 1.355 . S
C1798 C1800 1.415 . S
C1799 C1798 1.355 . S
C1799 C1801 1.419 1_655 S
C1800 C1798 1.415 . S
C1800 C1805 1.425 1_655 S
C1800 C1807 1.409 . S
C1801 H1793 0.930 . S
C1801 C1799 1.419 1_455 S
C1801 C1802 1.362 . S
C1802 H1794 0.930 . S
C1802 C1801 1.362 . S
C1802 C1805 1.409 . S
C1803 H1795 0.930 . S
C1803 C1804 1.355 . S
C1803 C1805 1.415 . S
C1804 C1803 1.355 . S
C1804 C1806 1.419 1_455 S
C1805 C1800 1.425 1_455 S
C1805 C1802 1.409 . S
C1805 C1803 1.415 . S
C1806 H1796 0.930 . S
C1806 C1804 1.419 1_655 S
C1806 C1807 1.362 . S
C1807 H1797 0.930 . S
C1807 C1800 1.409 . S
C1807 C1806 1.362 . S
H1808 C1814 0.930 . S
H1809 C1817 0.930 . S
H1810 C1818 0.930 . S
H1811 C1819 0.930 . S
H1812 C1822 0.930 . S
H1813 C1823 0.930 . S
C1814 H1808 0.930 . S
C1814 C1815 1.355 . S
C1814 C1816 1.415 . S
C1815 C1814 1.355 . S
C1815 C1817 1.419 1_545 S
C1816 C1814 1.415 . S
C1816 C1821 1.425 1_545 S
C1816 C1823 1.409 . S
C1817 H1809 0.930 . S
C1817 C1815 1.419 1_565 S
C1817 C1818 1.362 . S
C1818 H1810 0.930 . S
C1818 C1817 1.362 . S
C1818 C1821 1.409 . S
C1819 H1811 0.930 . S
C1819 C1820 1.355 . S
C1819 C1821 1.415 . S
C1820 C1819 1.355 . S
C1820 C1822 1.419 1_565 S
C1821 C1816 1.425 1_565 S
C1821 C1818 1.409 . S
C1821 C1819 1.415 . S
C1822 H1812 0.930 . S
C1822 C1820 1.419 1_545 S
C1822 C1823 1.362 . S
C1823 H1813 0.930 . S
C1823 C1816 1.409 . S
C1823 C1822 1.362 . S
H1824 C1830 0.930 . S
H1825 C1833 0.930 . S
H1826 C1834 0.930 . S
H1827 C1835 0.930 . S
H1828 C1838 0.930 . S
H1829 C1839 0.930 . S
C1830 H1824 0.930 . S
C1830 C1831 1.355 . S
C1830 C1832 1.415 . S
C1831 C1830 1.355 . S
C1831 C1833 1.419 1_655 S
C1832 C1830 1.415 . S
C1832 C1837 1.425 1_655 S
C1832 C1839 1.409 . S
C1833 H1825 0.930 . S
C1833 C1831 1.419 1_455 S
C1833 C1834 1.362 . S
C1834 H1826 0.930 . S
C1834 C1833 1.362 . S
C1834 C1837 1.409 . S
C1835 H1827 0.930 . S
C1835 C1836 1.355 . S
C1835 C1837 1.415 . S
C1836 C1835 1.355 . S
C1836 C1838 1.419 1_455 S
C1837 C1832 1.425 1_455 S
C1837 C1834 1.409 . S
C1837 C1835 1.415 . S
C1838 H1828 0.930 . S
C1838 C1836 1.419 1_655 S
C1838 C1839 1.362 . S
C1839 H1829 0.930 . S
C1839 C1832 1.409 . S
C1839 C1838 1.362 . S
H1840 C1846 0.930 . S
H1841 C1849 0.930 1_545 S
H1842 C1850 0.930 . S
H1843 C1851 0.930 . S
H1844 C1854 0.930 1_565 S
H1845 C1855 0.930 . S
C1846 H1840 0.930 . S
C1846 C1847 1.355 . S
C1846 C1848 1.415 . S
C1847 C1846 1.355 . S
C1847 C1849 1.419 . S
C1848 C1846 1.415 . S
C1848 C1853 1.425 1_565 S
C1848 C1855 1.409 . S
C1849 H1841 0.930 1_565 S
C1849 C1847 1.419 . S
C1849 C1850 1.362 1_565 S
C1850 H1842 0.930 . S
C1850 C1849 1.362 1_545 S
C1850 C1853 1.409 . S
C1851 H1843 0.930 . S
C1851 C1852 1.355 . S
C1851 C1853 1.415 . S
C1852 C1851 1.355 . S
C1852 C1854 1.419 . S
C1853 C1848 1.425 1_545 S
C1853 C1850 1.409 . S
C1853 C1851 1.415 . S
C1854 H1844 0.930 1_545 S
C1854 C1852 1.419 . S
C1854 C1855 1.362 1_545 S
C1855 H1845 0.930 . S
C1855 C1848 1.409 . S
C1855 C1854 1.362 1_565 S
H1856 C1862 0.930 . S
H1857 C1865 0.930 . S
H1858 C1866 0.930 . S
H1859 C1867 0.930 . S
H1860 C1870 0.930 . S
H1861 C1871 0.930 . S
C1862 H1856 0.930 . S
C1862 C1863 1.355 . S
C1862 C1864 1.415 . S
C1863 C1862 1.355 . S
C1863 C1865 1.419 . S
C1864 C1862 1.415 . S
C1864 C1869 1.425 . S
C1864 C1871 1.409 . S
C1865 H1857 0.930 . S
C1865 C1863 1.419 . S
C1865 C1866 1.362 . S
C1866 H1858 0.930 . S
C1866 C1865 1.362 . S
C1866 C1869 1.409 . S
C1867 H1859 0.930 . S
C1867 C1868 1.355 . S
C1867 C1869 1.415 . S
C1868 C1867 1.355 . S
C1868 C1870 1.419 . S
C1869 C1864 1.425 . S
C1869 C1866 1.409 . S
C1869 C1867 1.415 . S
C1870 H1860 0.930 . S
C1870 C1868 1.419 . S
C1870 C1871 1.362 . S
C1871 H1861 0.930 . S
C1871 C1864 1.409 . S
C1871 C1870 1.362 . S
H1872 C1878 0.930 . S
H1873 C1881 0.930 . S
H1874 C1882 0.930 . S
H1875 C1883 0.930 . S
H1876 C1886 0.930 . S
H1877 C1887 0.930 . S
C1878 H1872 0.930 . S
C1878 C1879 1.355 . S
C1878 C1880 1.415 . S
C1879 C1878 1.355 . S
C1879 C1881 1.419 . S
C1880 C1878 1.415 . S
C1880 C1885 1.425 . S
C1880 C1887 1.409 . S
C1881 H1873 0.930 . S
C1881 C1879 1.419 . S
C1881 C1882 1.362 . S
C1882 H1874 0.930 . S
C1882 C1881 1.362 . S
C1882 C1885 1.409 . S
C1883 H1875 0.930 . S
C1883 C1884 1.355 . S
C1883 C1885 1.415 . S
C1884 C1883 1.355 . S
C1884 C1886 1.419 . S
C1885 C1880 1.425 . S
C1885 C1882 1.409 . S
C1885 C1883 1.415 . S
C1886 H1876 0.930 . S
C1886 C1884 1.419 . S
C1886 C1887 1.362 . S
C1887 H1877 0.930 . S
C1887 C1880 1.409 . S
C1887 C1886 1.362 . S
H1888 C1894 0.930 . S
H1889 C1897 0.930 . S
H1890 C1898 0.930 . S
H1891 C1899 0.930 . S
H1892 C1902 0.930 . S
H1893 C1903 0.930 . S
C1894 H1888 0.930 . S
C1894 C1895 1.355 . S
C1894 C1896 1.415 . S
C1895 C1894 1.355 . S
C1895 C1897 1.419 . S
C1896 C1894 1.415 . S
C1896 C1901 1.425 . S
C1896 C1903 1.409 . S
C1897 H1889 0.930 . S
C1897 C1895 1.419 . S
C1897 C1898 1.362 . S
C1898 H1890 0.930 . S
C1898 C1897 1.362 . S
C1898 C1901 1.409 . S
C1899 H1891 0.930 . S
C1899 C1900 1.355 . S
C1899 C1901 1.415 . S
C1900 C1899 1.355 . S
C1900 C1902 1.419 . S
C1901 C1896 1.425 . S
C1901 C1898 1.409 . S
C1901 C1899 1.415 . S
C1902 H1892 0.930 . S
C1902 C1900 1.419 . S
C1902 C1903 1.362 . S
C1903 H1893 0.930 . S
C1903 C1896 1.409 . S
C1903 C1902 1.362 . S
H1904 C1910 0.930 . S
H1905 C1913 0.930 . S
H1906 C1914 0.930 . S
H1907 C1915 0.930 . S
H1908 C1918 0.930 . S
H1909 C1919 0.930 . S
C1910 H1904 0.930 . S
C1910 C1911 1.355 . S
C1910 C1912 1.415 . S
C1911 C1910 1.355 . S
C1911 C1913 1.419 . S
C1912 C1910 1.415 . S
C1912 C1917 1.425 . S
C1912 C1919 1.409 . S
C1913 H1905 0.930 . S
C1913 C1911 1.419 . S
C1913 C1914 1.362 . S
C1914 H1906 0.930 . S
C1914 C1913 1.362 . S
C1914 C1917 1.409 . S
C1915 H1907 0.930 . S
C1915 C1916 1.355 . S
C1915 C1917 1.415 . S
C1916 C1915 1.355 . S
C1916 C1918 1.419 . S
C1917 C1912 1.425 . S
C1917 C1914 1.409 . S
C1917 C1915 1.415 . S
C1918 H1908 0.930 . S
C1918 C1916 1.419 . S
C1918 C1919 1.362 . S
C1919 H1909 0.930 . S
C1919 C1912 1.409 . S
C1919 C1918 1.362 . S
H1920 C1926 0.930 . S
H1921 C1929 0.930 . S
H1922 C1930 0.930 . S
H1923 C1931 0.930 . S
H1924 C1934 0.930 . S
H1925 C1935 0.930 . S
C1926 H1920 0.930 . S
C1926 C1927 1.355 . S
C1926 C1928 1.415 . S
C1927 C1926 1.355 . S
C1927 C1929 1.419 . S
C1928 C1926 1.415 . S
C1928 C1933 1.425 . S
C1928 C1935 1.409 . S
C1929 H1921 0.930 . S
C1929 C1927 1.419 . S
C1929 C1930 1.362 . S
C1930 H1922 0.930 . S
C1930 C1929 1.362 . S
C1930 C1933 1.409 . S
C1931 H1923 0.930 . S
C1931 C1932 1.355 . S
C1931 C1933 1.415 . S
C1932 C1931 1.355 . S
C1932 C1934 1.419 . S
C1933 C1928 1.425 . S
C1933 C1930 1.409 . S
C1933 C1931 1.415 . S
C1934 H1924 0.930 . S
C1934 C1932 1.419 . S
C1934 C1935 1.362 . S
C1935 H1925 0.930 . S
C1935 C1928 1.409 . S
C1935 C1934 1.362 . S
H1936 C1942 0.930 . S
H1937 C1945 0.930 . S
H1938 C1946 0.930 . S
H1939 C1947 0.930 . S
H1940 C1950 0.930 . S
H1941 C1951 0.930 . S
C1942 H1936 0.930 . S
C1942 C1943 1.355 . S
C1942 C1944 1.415 . S
C1943 C1942 1.355 . S
C1943 C1945 1.419 . S
C1944 C1942 1.415 . S
C1944 C1949 1.425 . S
C1944 C1951 1.409 . S
C1945 H1937 0.930 . S
C1945 C1943 1.419 . S
C1945 C1946 1.362 . S
C1946 H1938 0.930 . S
C1946 C1945 1.362 . S
C1946 C1949 1.409 . S
C1947 H1939 0.930 . S
C1947 C1948 1.355 . S
C1947 C1949 1.415 . S
C1948 C1947 1.355 . S
C1948 C1950 1.419 . S
C1949 C1944 1.425 . S
C1949 C1946 1.409 . S
C1949 C1947 1.415 . S
C1950 H1940 0.930 . S
C1950 C1948 1.419 . S
C1950 C1951 1.362 . S
C1951 H1941 0.930 . S
C1951 C1944 1.409 . S
C1951 C1950 1.362 . S
H1952 C1958 0.930 . S
H1953 C1961 0.930 . S
H1954 C1962 0.930 . S
H1955 C1963 0.930 . S
H1956 C1966 0.930 . S
H1957 C1967 0.930 . S
C1958 H1952 0.930 . S
C1958 C1959 1.355 . S
C1958 C1960 1.415 . S
C1959 C1958 1.355 . S
C1959 C1961 1.419 . S
C1960 C1958 1.415 . S
C1960 C1965 1.425 . S
C1960 C1967 1.409 . S
C1961 H1953 0.930 . S
C1961 C1959 1.419 . S
C1961 C1962 1.362 . S
C1962 H1954 0.930 . S
C1962 C1961 1.362 . S
C1962 C1965 1.409 . S
C1963 H1955 0.930 . S
C1963 C1964 1.355 . S
C1963 C1965 1.415 . S
C1964 C1963 1.355 . S
C1964 C1966 1.419 . S
C1965 C1960 1.425 . S
C1965 C1962 1.409 . S
C1965 C1963 1.415 . S
C1966 H1956 0.930 . S
C1966 C1964 1.419 . S
C1966 C1967 1.362 . S
C1967 H1957 0.930 . S
C1967 C1960 1.409 . S
C1967 C1966 1.362 . S
H1968 C1974 0.930 . S
H1969 C1977 0.930 . S
H1970 C1978 0.930 . S
H1971 C1979 0.930 . S
H1972 C1982 0.930 . S
H1973 C1983 0.930 . S
C1974 H1968 0.930 . S
C1974 C1975 1.355 . S
C1974 C1976 1.415 . S
C1975 C1974 1.355 . S
C1975 C1977 1.419 . S
C1976 C1974 1.415 . S
C1976 C1981 1.425 . S
C1976 C1983 1.409 . S
C1977 H1969 0.930 . S
C1977 C1975 1.419 . S
C1977 C1978 1.362 . S
C1978 H1970 0.930 . S
C1978 C1977 1.362 . S
C1978 C1981 1.409 . S
C1979 H1971 0.930 . S
C1979 C1980 1.355 . S
C1979 C1981 1.415 . S
C1980 C1979 1.355 . S
C1980 C1982 1.419 . S
C1981 C1976 1.425 . S
C1981 C1978 1.409 . S
C1981 C1979 1.415 . S
C1982 H1972 0.930 . S
C1982 C1980 1.419 . S
C1982 C1983 1.362 . S
C1983 H1973 0.930 . S
C1983 C1976 1.409 . S
C1983 C1982 1.362 . S
H1984 C1990 0.930 . S
H1985 C1993 0.930 . S
H1986 C1994 0.930 . S
H1987 C1995 0.930 . S
H1988 C1998 0.930 . S
H1989 C1999 0.930 . S
C1990 H1984 0.930 . S
C1990 C1991 1.355 . S
C1990 C1992 1.415 . S
C1991 C1990 1.355 . S
C1991 C1993 1.419 . S
C1992 C1990 1.415 . S
C1992 C1997 1.425 1_556 S
C1992 C1999 1.409 1_556 S
C1993 H1985 0.930 . S
C1993 C1991 1.419 . S
C1993 C1994 1.362 . S
C1994 H1986 0.930 . S
C1994 C1993 1.362 . S
C1994 C1997 1.409 1_556 S
C1995 H1987 0.930 . S
C1995 C1996 1.355 . S
C1995 C1997 1.415 . S
C1996 C1995 1.355 . S
C1996 C1998 1.419 . S
C1997 C1992 1.425 1_554 S
C1997 C1994 1.409 1_554 S
C1997 C1995 1.415 . S
C1998 H1988 0.930 . S
C1998 C1996 1.419 . S
C1998 C1999 1.362 . S
C1999 H1989 0.930 . S
C1999 C1992 1.409 1_554 S
C1999 C1998 1.362 . S
H2000 C2006 0.930 . S
H2001 C2009 0.930 . S
H2002 C2010 0.930 . S
H2003 C2011 0.930 . S
H2004 C2014 0.930 . S
H2005 C2015 0.930 . S
C2006 H2000 0.930 . S
C2006 C2007 1.355 . S
C2006 C2008 1.415 . S
C2007 C2006 1.355 . S
C2007 C2009 1.419 . S
C2008 C2006 1.415 . S
C2008 C2013 1.425 1_554 S
C2008 C2015 1.409 1_554 S
C2009 H2001 0.930 . S
C2009 C2007 1.419 . S
C2009 C2010 1.362 . S
C2010 H2002 0.930 . S
C2010 C2009 1.362 . S
C2010 C2013 1.409 1_554 S
C2011 H2003 0.930 . S
C2011 C2012 1.355 . S
C2011 C2013 1.415 . S
C2012 C2011 1.355 . S
C2012 C2014 1.419 . S
C2013 C2008 1.425 1_556 S
C2013 C2010 1.409 1_556 S
C2013 C2011 1.415 . S
C2014 H2004 0.930 . S
C2014 C2012 1.419 . S
C2014 C2015 1.362 . S
C2015 H2005 0.930 . S
C2015 C2008 1.409 1_556 S
C2015 C2014 1.362 . S
H2016 C2022 0.930 . S
H2017 C2025 0.930 . S
H2018 C2026 0.930 . S
H2019 C2027 0.930 . S
H2020 C2030 0.930 . S
H2021 C2031 0.930 . S
C2022 H2016 0.930 . S
C2022 C2023 1.355 . S
C2022 C2024 1.415 . S
C2023 C2022 1.355 . S
C2023 C2025 1.419 . S
C2024 C2022 1.415 . S
C2024 C2029 1.425 1_556 S
C2024 C2031 1.409 1_556 S
C2025 H2017 0.930 . S
C2025 C2023 1.419 . S
C2025 C2026 1.362 . S
C2026 H2018 0.930 . S
C2026 C2025 1.362 . S
C2026 C2029 1.409 1_556 S
C2027 H2019 0.930 . S
C2027 C2028 1.355 . S
C2027 C2029 1.415 . S
C2028 C2027 1.355 . S
C2028 C2030 1.419 . S
C2029 C2024 1.425 1_554 S
C2029 C2026 1.409 1_554 S
C2029 C2027 1.415 . S
C2030 H2020 0.930 . S
C2030 C2028 1.419 . S
C2030 C2031 1.362 . S
C2031 H2021 0.930 . S
C2031 C2024 1.409 1_554 S
C2031 C2030 1.362 . S
H2032 C2038 0.930 . S
H2033 C2041 0.930 . S
H2034 C2042 0.930 . S
H2035 C2043 0.930 . S
H2036 C2046 0.930 . S
H2037 C2047 0.930 . S
C2038 H2032 0.930 . S
C2038 C2039 1.355 . S
C2038 C2040 1.415 . S
C2039 C2038 1.355 . S
C2039 C2041 1.419 . S
C2040 C2038 1.415 . S
C2040 C2045 1.425 1_556 S
C2040 C2047 1.409 1_556 S
C2041 H2033 0.930 . S
C2041 C2039 1.419 . S
C2041 C2042 1.362 . S
C2042 H2034 0.930 . S
C2042 C2041 1.362 . S
C2042 C2045 1.409 1_556 S
C2043 H2035 0.930 . S
C2043 C2044 1.355 . S
C2043 C2045 1.415 . S
C2044 C2043 1.355 . S
C2044 C2046 1.419 . S
C2045 C2040 1.425 1_554 S
C2045 C2042 1.409 1_554 S
C2045 C2043 1.415 . S
C2046 H2036 0.930 . S
C2046 C2044 1.419 . S
C2046 C2047 1.362 . S
C2047 H2037 0.930 . S
C2047 C2040 1.409 1_554 S
C2047 C2046 1.362 . S
H2048 C2054 0.930 . S
H2049 C2057 0.930 . S
H2050 C2058 0.930 . S
H2051 C2059 0.930 . S
H2052 C2062 0.930 . S
H2053 C2063 0.930 . S
C2054 H2048 0.930 . S
C2054 C2055 1.355 . S
C2054 C2056 1.415 . S
C2055 C2054 1.355 . S
C2055 C2057 1.419 . S
C2056 C2054 1.415 . S
C2056 C2061 1.425 . S
C2056 C2063 1.409 . S
C2057 H2049 0.930 . S
C2057 C2055 1.419 . S
C2057 C2058 1.362 . S
C2058 H2050 0.930 . S
C2058 C2057 1.362 . S
C2058 C2061 1.409 . S
C2059 H2051 0.930 . S
C2059 C2060 1.355 . S
C2059 C2061 1.415 . S
C2060 C2059 1.355 . S
C2060 C2062 1.419 . S
C2061 C2056 1.425 . S
C2061 C2058 1.409 . S
C2061 C2059 1.415 . S
C2062 H2052 0.930 . S
C2062 C2060 1.419 . S
C2062 C2063 1.362 . S
C2063 H2053 0.930 . S
C2063 C2056 1.409 . S
C2063 C2062 1.362 . S
H2064 C2070 0.930 . S
H2065 C2073 0.930 . S
H2066 C2074 0.930 . S
H2067 C2075 0.930 . S
H2068 C2078 0.930 . S
H2069 C2079 0.930 . S
C2070 H2064 0.930 . S
C2070 C2071 1.355 . S
C2070 C2072 1.415 . S
C2071 C2070 1.355 . S
C2071 C2073 1.419 . S
C2072 C2070 1.415 . S
C2072 C2077 1.425 . S
C2072 C2079 1.409 . S
C2073 H2065 0.930 . S
C2073 C2071 1.419 . S
C2073 C2074 1.362 . S
C2074 H2066 0.930 . S
C2074 C2073 1.362 . S
C2074 C2077 1.409 . S
C2075 H2067 0.930 . S
C2075 C2076 1.355 . S
C2075 C2077 1.415 . S
C2076 C2075 1.355 . S
C2076 C2078 1.419 . S
C2077 C2072 1.425 . S
C2077 C2074 1.409 . S
C2077 C2075 1.415 . S
C2078 H2068 0.930 . S
C2078 C2076 1.419 . S
C2078 C2079 1.362 . S
C2079 H2069 0.930 . S
C2079 C2072 1.409 . S
C2079 C2078 1.362 . S
H2080 C2086 0.930 . S
H2081 C2089 0.930 . S
H2082 C2090 0.930 . S
H2083 C2091 0.930 . S
H2084 C2094 0.930 . S
H2085 C2095 0.930 . S
C2086 H2080 0.930 . S
C2086 C2087 1.355 . S
C2086 C2088 1.415 . S
C2087 C2086 1.355 . S
C2087 C2089 1.419 . S
C2088 C2086 1.415 . S
C2088 C2093 1.425 . S
C2088 C2095 1.409 . S
C2089 H2081 0.930 . S
C2089 C2087 1.419 . S
C2089 C2090 1.362 . S
C2090 H2082 0.930 . S
C2090 C2089 1.362 . S
C2090 C2093 1.409 . S
C2091 H2083 0.930 . S
C2091 C2092 1.355 . S
C2091 C2093 1.415 . S
C2092 C2091 1.355 . S
C2092 C2094 1.419 . S
C2093 C2088 1.425 . S
C2093 C2090 1.409 . S
C2093 C2091 1.415 . S
C2094 H2084 0.930 . S
C2094 C2092 1.419 . S
C2094 C2095 1.362 . S
C2095 H2085 0.930 . S
C2095 C2088 1.409 . S
C2095 C2094 1.362 . S
H2096 C2102 0.930 . S
H2097 C2105 0.930 . S
H2098 C2106 0.930 . S
H2099 C2107 0.930 . S
H2100 C2110 0.930 . S
H2101 C2111 0.930 . S
C2102 H2096 0.930 . S
C2102 C2103 1.355 . S
C2102 C2104 1.415 . S
C2103 C2102 1.355 . S
C2103 C2105 1.419 . S
C2104 C2102 1.415 . S
C2104 C2109 1.425 . S
C2104 C2111 1.409 . S
C2105 H2097 0.930 . S
C2105 C2103 1.419 . S
C2105 C2106 1.362 . S
C2106 H2098 0.930 . S
C2106 C2105 1.362 . S
C2106 C2109 1.409 . S
C2107 H2099 0.930 . S
C2107 C2108 1.355 . S
C2107 C2109 1.415 . S
C2108 C2107 1.355 . S
C2108 C2110 1.419 . S
C2109 C2104 1.425 . S
C2109 C2106 1.409 . S
C2109 C2107 1.415 . S
C2110 H2100 0.930 . S
C2110 C2108 1.419 . S
C2110 C2111 1.362 . S
C2111 H2101 0.930 . S
C2111 C2104 1.409 . S
C2111 C2110 1.362 . S
H2112 C2118 0.930 . S
H2113 C2121 0.930 . S
H2114 C2122 0.930 . S
H2115 C2123 0.930 . S
H2116 C2126 0.930 . S
H2117 C2127 0.930 . S
C2118 H2112 0.930 . S
C2118 C2119 1.355 . S
C2118 C2120 1.415 . S
C2119 C2118 1.355 . S
C2119 C2121 1.419 . S
C2120 C2118 1.415 . S
C2120 C2125 1.425 . S
C2120 C2127 1.409 . S
C2121 H2113 0.930 . S
C2121 C2119 1.419 . S
C2121 C2122 1.362 . S
C2122 H2114 0.930 . S
C2122 C2121 1.362 . S
C2122 C2125 1.409 . S
C2123 H2115 0.930 . S
C2123 C2124 1.355 . S
C2123 C2125 1.415 . S
C2124 C2123 1.355 . S
C2124 C2126 1.419 . S
C2125 C2120 1.425 . S
C2125 C2122 1.409 . S
C2125 C2123 1.415 . S
C2126 H2116 0.930 . S
C2126 C2124 1.419 . S
C2126 C2127 1.362 . S
C2127 H2117 0.930 . S
C2127 C2120 1.409 . S
C2127 C2126 1.362 . S
H2128 C2134 0.930 . S
H2129 C2137 0.930 . S
H2130 C2138 0.930 . S
H2131 C2139 0.930 . S
H2132 C2142 0.930 . S
H2133 C2143 0.930 . S
C2134 H2128 0.930 . S
C2134 C2135 1.355 . S
C2134 C2136 1.415 . S
C2135 C2134 1.355 . S
C2135 C2137 1.419 . S
C2136 C2134 1.415 . S
C2136 C2141 1.425 . S
C2136 C2143 1.409 . S
C2137 H2129 0.930 . S
C2137 C2135 1.419 . S
C2137 C2138 1.362 . S
C2138 H2130 0.930 . S
C2138 C2137 1.362 . S
C2138 C2141 1.409 . S
C2139 H2131 0.930 . S
C2139 C2140 1.355 . S
C2139 C2141 1.415 . S
C2140 C2139 1.355 . S
C2140 C2142 1.419 . S
C2141 C2136 1.425 . S
C2141 C2138 1.409 . S
C2141 C2139 1.415 . S
C2142 H2132 0.930 . S
C2142 C2140 1.419 . S
C2142 C2143 1.362 . S
C2143 H2133 0.930 . S
C2143 C2136 1.409 . S
C2143 C2142 1.362 . S
H2144 C2150 0.930 . S
H2145 C2153 0.930 . S
H2146 C2154 0.930 . S
H2147 C2155 0.930 . S
H2148 C2158 0.930 . S
H2149 C2159 0.930 . S
C2150 H2144 0.930 . S
C2150 C2151 1.355 . S
C2150 C2152 1.415 . S
C2151 C2150 1.355 . S
C2151 C2153 1.419 . S
C2152 C2150 1.415 . S
C2152 C2157 1.425 . S
C2152 C2159 1.409 . S
C2153 H2145 0.930 . S
C2153 C2151 1.419 . S
C2153 C2154 1.362 . S
C2154 H2146 0.930 . S
C2154 C2153 1.362 . S
C2154 C2157 1.409 . S
C2155 H2147 0.930 . S
C2155 C2156 1.355 . S
C2155 C2157 1.415 . S
C2156 C2155 1.355 . S
C2156 C2158 1.419 . S
C2157 C2152 1.425 . S
C2157 C2154 1.409 . S
C2157 C2155 1.415 . S
C2158 H2148 0.930 . S
C2158 C2156 1.419 . S
C2158 C2159 1.362 . S
C2159 H2149 0.930 . S
C2159 C2152 1.409 . S
C2159 C2158 1.362 . S
H2160 C2166 0.930 . S
H2161 C2169 0.930 . S
H2162 C2170 0.930 . S
H2163 C2171 0.930 . S
H2164 C2174 0.930 . S
H2165 C2175 0.930 . S
C2166 H2160 0.930 . S
C2166 C2167 1.355 . S
C2166 C2168 1.415 . S
C2167 C2166 1.355 . S
C2167 C2169 1.419 . S
C2168 C2166 1.415 . S
C2168 C2173 1.425 . S
C2168 C2175 1.409 . S
C2169 H2161 0.930 . S
C2169 C2167 1.419 . S
C2169 C2170 1.362 . S
C2170 H2162 0.930 . S
C2170 C2169 1.362 . S
C2170 C2173 1.409 . S
C2171 H2163 0.930 . S
C2171 C2172 1.355 . S
C2171 C2173 1.415 . S
C2172 C2171 1.355 . S
C2172 C2174 1.419 . S
C2173 C2168 1.425 . S
C2173 C2170 1.409 . S
C2173 C2171 1.415 . S
C2174 H2164 0.930 . S
C2174 C2172 1.419 . S
C2174 C2175 1.362 . S
C2175 H2165 0.930 . S
C2175 C2168 1.409 . S
C2175 C2174 1.362 . S
H2176 C2182 0.930 . S
H2177 C2185 0.930 . S
H2178 C2186 0.930 . S
H2179 C2187 0.930 . S
H2180 C2190 0.930 . S
H2181 C2191 0.930 . S
C2182 H2176 0.930 . S
C2182 C2183 1.355 . S
C2182 C2184 1.415 . S
C2183 C2182 1.355 . S
C2183 C2185 1.419 . S
C2184 C2182 1.415 . S
C2184 C2189 1.425 1_554 S
C2184 C2191 1.409 1_554 S
C2185 H2177 0.930 . S
C2185 C2183 1.419 . S
C2185 C2186 1.362 . S
C2186 H2178 0.930 . S
C2186 C2185 1.362 . S
C2186 C2189 1.409 1_554 S
C2187 H2179 0.930 . S
C2187 C2188 1.355 . S
C2187 C2189 1.415 . S
C2188 C2187 1.355 . S
C2188 C2190 1.419 . S
C2189 C2184 1.425 1_556 S
C2189 C2186 1.409 1_556 S
C2189 C2187 1.415 . S
C2190 H2180 0.930 . S
C2190 C2188 1.419 . S
C2190 C2191 1.362 . S
C2191 H2181 0.930 . S
C2191 C2184 1.409 1_556 S
C2191 C2190 1.362 . S
H2192 C2198 0.930 . S
H2193 C2201 0.930 . S
H2194 C2202 0.930 . S
H2195 C2203 0.930 . S
H2196 C2206 0.930 . S
H2197 C2207 0.930 . S
C2198 H2192 0.930 . S
C2198 C2199 1.355 . S
C2198 C2200 1.415 . S
C2199 C2198 1.355 . S
C2199 C2201 1.419 . S
C2200 C2198 1.415 . S
C2200 C2205 1.425 1_556 S
C2200 C2207 1.409 1_556 S
C2201 H2193 0.930 . S
C2201 C2199 1.419 . S
C2201 C2202 1.362 . S
C2202 H2194 0.930 . S
C2202 C2201 1.362 . S
C2202 C2205 1.409 1_556 S
C2203 H2195 0.930 . S
C2203 C2204 1.355 . S
C2203 C2205 1.415 . S
C2204 C2203 1.355 . S
C2204 C2206 1.419 . S
C2205 C2200 1.425 1_554 S
C2205 C2202 1.409 1_554 S
C2205 C2203 1.415 . S
C2206 H2196 0.930 . S
C2206 C2204 1.419 . S
C2206 C2207 1.362 . S
C2207 H2197 0.930 . S
C2207 C2200 1.409 1_554 S
C2207 C2206 1.362 . S
H2208 C2214 0.930 . S
H2209 C2217 0.930 . S
H2210 C2218 0.930 . S
H2211 C2219 0.930 . S
H2212 C2222 0.930 . S
H2213 C2223 0.930 . S
C2214 H2208 0.930 . S
C2214 C2215 1.355 . S
C2214 C2216 1.415 . S
C2215 C2214 1.355 . S
C2215 C2217 1.419 . S
C2216 C2214 1.415 . S
C2216 C2221 1.425 1_556 S
C2216 C2223 1.409 1_556 S
C2217 H2209 0.930 . S
C2217 C2215 1.419 . S
C2217 C2218 1.362 . S
C2218 H2210 0.930 . S
C2218 C2217 1.362 . S
C2218 C2221 1.409 1_556 S
C2219 H2211 0.930 . S
C2219 C2220 1.355 . S
C2219 C2221 1.415 . S
C2220 C2219 1.355 . S
C2220 C2222 1.419 . S
C2221 C2216 1.425 1_554 S
C2221 C2218 1.409 1_554 S
C2221 C2219 1.415 . S
C2222 H2212 0.930 . S
C2222 C2220 1.419 . S
C2222 C2223 1.362 . S
C2223 H2213 0.930 . S
C2223 C2216 1.409 1_554 S
C2223 C2222 1.362 . S
H2224 C2230 0.930 . S
H2225 C2233 0.930 . S
H2226 C2234 0.930 . S
H2227 C2235 0.930 . S
H2228 C2238 0.930 . S
H2229 C2239 0.930 . S
C2230 H2224 0.930 . S
C2230 C2231 1.355 . S
C2230 C2232 1.415 . S
C2231 C2230 1.355 . S
C2231 C2233 1.419 . S
C2232 C2230 1.415 . S
C2232 C2237 1.425 1_554 S
C2232 C2239 1.409 1_554 S
C2233 H2225 0.930 . S
C2233 C2231 1.419 . S
C2233 C2234 1.362 . S
C2234 H2226 0.930 . S
C2234 C2233 1.362 . S
C2234 C2237 1.409 1_554 S
C2235 H2227 0.930 . S
C2235 C2236 1.355 . S
C2235 C2237 1.415 . S
C2236 C2235 1.355 . S
C2236 C2238 1.419 . S
C2237 C2232 1.425 1_556 S
C2237 C2234 1.409 1_556 S
C2237 C2235 1.415 . S
C2238 H2228 0.930 . S
C2238 C2236 1.419 . S
C2238 C2239 1.362 . S
C2239 H2229 0.930 . S
C2239 C2232 1.409 1_556 S
C2239 C2238 1.362 . S
C711 C118 1.182 . S
C716 C8 1.166 . S
C727 C136 1.233 . S
C732 C26 1.161 . S
C743 C52 1.146 . S
C748 C158 1.218 . S
C759 C92 1.166 . S
C764 C74 1.232 . S
C775 C180 1.150 . S
C780 C294 1.231 . S
C791 C316 1.228 . S
C796 C202 1.176 . S
C807 C334 1.152 . S
C812 C224 1.201 . S
C823 C250 1.209 . S
C828 C272 1.148 . S
C839 C360 1.220 . S
C844 C470 1.146 . S
C855 C488 1.146 . S
C860 C378 1.222 . S
C871 C404 1.208 . S
C876 C510 1.149 . S
C887 C426 1.227 . S
C892 C444 1.147 . S
C903 C646 1.232 . S
C908 C532 1.165 . S
C919 C668 1.147 . S
C924 C554 1.212 . S
C935 C686 1.233 . S
C940 C576 1.156 . S
C951 C602 1.146 . S
C956 C624 1.215 . S
C967 C647 1.327 . S
C972 C7 1.257 . S
C983 C669 1.295 . S
C988 C28 1.290 . S
C999 C687 1.304 . S
C1004 C51 1.281 . S
C1015 C73 1.322 . S
C1020 C625 1.262 . S
C1031 C94 1.257 . S
C1036 C603 1.327 . S
C1047 C533 1.313 . S
C1052 C117 1.272 . S
C1063 C138 1.279 . S
C1068 C555 1.306 . S
C1079 C577 1.323 . S
C1084 C160 1.262 . S
C1095 C469 1.262 . S
C1100 C181 1.323 . S
C1111 C490 1.318 . S
C1116 C203 1.267 . S
C1127 C225 1.295 . S
C1132 C512 1.291 . S
C1143 C446 1.323 . S
C1148 C251 1.261 . S
C1159 C425 1.286 . S
C1164 C273 1.299 . S
C1175 C295 1.266 . S
C1180 C359 1.319 . S
C1191 C317 1.271 . S
C1196 C380 1.314 . S
C1207 C403 1.326 . S
C1212 C335 1.259 . S
C1223 C72 1.469 1_545 S
C1228 C4 1.424 . S
C1239 C6 1.486 1_655 S
C1244 C30 1.374 . S
C1255 C48 1.456 . S
C1260 C29 1.439 1_565 S
C1271 C70 1.381 . S
C1276 C50 1.465 1_455 S
C1287 C116 1.488 1_565 S
C1292 C96 1.378 . S
C1303 C139 1.416 1_455 S
C1308 C114 1.454 . S
C1319 C161 1.416 1_545 S
C1324 C140 1.454 . S
C1335 C162 1.449 . S
C1340 C95 1.448 1_655 S
C1351 C247 1.425 1_565 S
C1356 C184 1.464 . S
C1367 C185 1.470 1_455 S
C1372 C206 1.378 . S
C1383 C228 1.433 . S
C1388 C207 1.424 1_545 S
C1399 C246 1.390 . S
C1404 C229 1.487 1_655 S
C1415 C291 1.482 1_545 S
C1420 C268 1.373 . S
C1431 C290 1.390 . S
C1436 C313 1.487 1_655 S
C1447 C312 1.464 . S
C1452 C339 1.422 1_565 S
C1463 C338 1.391 . S
C1468 C269 1.486 1_455 S
C1479 C424 1.483 . S
C1484 C356 1.373 . S
C1495 C382 1.433 . S
C1500 C358 1.462 . S
C1511 C381 1.416 . S
C1516 C400 1.450 . S
C1527 C422 1.456 . S
C1532 C402 1.439 . S
C1543 C448 1.451 . S
C1548 C468 1.445 . S
C1559 C491 1.464 . S
C1564 C466 1.431 . S
C1575 C492 1.373 . S
C1580 C513 1.481 . S
C1591 C514 1.391 . S
C1596 C447 1.455 . S
C1607 C599 1.484 . S
C1612 C536 1.398 . S
C1623 C558 1.375 . S
C1628 C537 1.474 . S
C1639 C580 1.377 . S
C1644 C559 1.488 . S
C1655 C598 1.450 . S
C1660 C581 1.447 . S
C1671 C643 1.464 . S
C1676 C620 1.382 . S
C1687 C642 1.373 . S
C1692 C665 1.484 . S
C1703 C691 1.442 . S
C1708 C664 1.453 . S
C1719 C621 1.448 . S
C1724 C690 1.398 . S
C1735 C9 1.304 . S
C1740 C137 1.249 . S
C1751 C159 1.305 . S
C1756 C27 1.222 . S
C1767 C53 1.303 . S
C1772 C93 1.218 . S
C1783 C119 1.212 . S
C1788 C75 1.293 . S
C1799 C182 1.252 . S
C1804 C315 1.226 . S
C1815 C336 1.257 . S
C1820 C204 1.223 . S
C1831 C271 1.242 . S
C1836 C226 1.234 . S
C1847 C293 1.279 . S
C1852 C249 1.213 . S
C1863 C489 1.212 . S
C1868 C361 1.280 . S
C1879 C379 1.215 . S
C1884 C511 1.273 . S
C1895 C445 1.214 . S
C1900 C405 1.274 . S
C1911 C427 1.240 . S
C1916 C471 1.307 . S
C1927 C534 1.283 . S
C1932 C667 1.212 . S
C1943 C688 1.285 . S
C1948 C556 1.279 . S
C1959 C623 1.276 . S
C1964 C578 1.214 . S
C1975 C645 1.262 . S
C1980 C601 1.298 . S
C1991 C227 1.428 . S
C1996 C5 1.447 . S
C2007 C31 1.441 . S
C2012 C248 1.433 . S
C2023 C183 1.441 . S
C2028 C49 1.433 . S
C2039 C205 1.429 . S
C2044 C71 1.446 . S
C2055 C314 1.449 . S
C2060 C97 1.425 . S
C2071 C115 1.437 . S
C2076 C337 1.437 . S
C2087 C270 1.440 . S
C2092 C141 1.435 . S
C2103 C163 1.432 . S
C2108 C292 1.442 . S
C2119 C579 1.436 . S
C2124 C357 1.438 . S
C2135 C600 1.448 . S
C2140 C383 1.426 . S
C2151 C401 1.448 . S
C2156 C535 1.426 . S
C2167 C423 1.448 . S
C2172 C557 1.426 . S
C2183 C666 1.449 . S
C2188 C449 1.425 . S
C2199 C467 1.449 . S
C2204 C689 1.425 . S
C2215 C493 1.449 . S
C2220 C622 1.425 . S
C2231 C644 1.448 . S
C2236 C515 1.426 . S
