# Generated by pormake.
# Topology unj, (4)-cn, num edge types: 1
# Building blocks:
#     Node 0, Type 0, BuildingBlock: NAHDIM_clean_sbu_0, # of connection points: 4
#     Node 1, Type 0, BuildingBlock: NAHDIM_clean_sbu_0, # of connection points: 4
#     Node 2, Type 0, BuildingBlock: NAHDIM_clean_sbu_0, # of connection points: 4
#     Node 3, Type 0, BuildingBlock: NAHDIM_clean_sbu_0, # of connection points: 4
#     Node 4, Type 0, BuildingBlock: NAHDIM_clean_sbu_0, # of connection points: 4
#     Node 5, Type 0, BuildingBlock: NAHDIM_clean_sbu_0, # of connection points: 4
#     Edge 6, Type (0, 0), BuildingBlock: TEMPAE_clean_linker_10, # of connection points: 2
#     Edge 7, Type (0, 0), BuildingBlock: TEMPAE_clean_linker_10, # of connection points: 2
#     Edge 8, Type (0, 0), BuildingBlock: TEMPAE_clean_linker_10, # of connection points: 2
#     Edge 9, Type (0, 0), BuildingBlock: TEMPAE_clean_linker_10, # of connection points: 2
#     Edge 10, Type (0, 0), BuildingBlock: TEMPAE_clean_linker_10, # of connection points: 2
#     Edge 11, Type (0, 0), BuildingBlock: TEMPAE_clean_linker_10, # of connection points: 2
#     Edge 12, Type (0, 0), BuildingBlock: TEMPAE_clean_linker_10, # of connection points: 2
#     Edge 13, Type (0, 0), BuildingBlock: TEMPAE_clean_linker_10, # of connection points: 2
#     Edge 14, Type (0, 0), BuildingBlock: TEMPAE_clean_linker_10, # of connection points: 2
#     Edge 15, Type (0, 0), BuildingBlock: TEMPAE_clean_linker_10, # of connection points: 2
#     Edge 16, Type (0, 0), BuildingBlock: TEMPAE_clean_linker_10, # of connection points: 2
#     Edge 17, Type (0, 0), BuildingBlock: TEMPAE_clean_linker_10, # of connection points: 2
# Relax obj value: 0.007
# Max RMSD: 0.036
# Mean RMSD: 0.036
data_MOF--net-unj--node1-NAHDIM_clean_sbu_0--edge1-TEMPAE_clean_linker_10
_symmetry_space_group_name_H-M    P1
_symmetry_Int_Tables_number       1
_symmetry_cell_setting            triclinic
loop_
_symmetry_equiv_pos_as_xyz
'x, y, z'
_cell_length_a     35.144349
_cell_length_b     35.137868
_cell_length_c     34.68221
_cell_angle_alpha  89.999412
_cell_angle_beta   90.057591
_cell_angle_gamma 120.07641
loop_
_atom_site_label
_atom_site_type_symbol
_atom_site_fract_x
_atom_site_fract_y
_atom_site_fract_z
_atom_type_partial_charge
C0 C 0.42567 0.29319 0.59329 0.0
O1 O 0.42729 0.28954 0.5557 0.0
O2 O 0.52083 0.29887 0.54962 0.0
Zn3 Zn 0.48481 0.25846 0.59305 0.0
O4 O 0.52372 0.25985 0.63648 0.0
C5 C 0.45717 0.18227 0.54402 0.0
O6 O 0.49483 0.20828 0.52703 0.0
O7 O 0.447 0.28113 0.61477 0.0
C8 C 0.53956 0.23446 0.63955 0.0
O9 O 0.53132 0.2051 0.61253 0.0
C10 C 0.5589 0.3061 0.54042 0.0
O11 O 0.57668 0.28704 0.56013 0.0
O12 O 0.44602 0.19643 0.57314 0.0
C13 C 0.12029 0.42753 0.76933 0.0
O14 O 0.13221 0.46878 0.76235 0.0
O15 O 0.2067 0.49795 0.70583 0.0
Zn16 Zn 0.20917 0.45825 0.74661 0.0
O17 O 0.24407 0.49415 0.79238 0.0
C18 C 0.27669 0.44674 0.71197 0.0
O19 O 0.29878 0.48977 0.71537 0.0
O20 O 0.14803 0.41486 0.76429 0.0
C21 C 0.2625 0.4805 0.81571 0.0
O22 O 0.25881 0.44184 0.80985 0.0
C23 C 0.23468 0.53884 0.70496 0.0
O24 O 0.26567 0.55557 0.73135 0.0
O25 O 0.2372 0.42564 0.72382 0.0
C26 C 0.7068 0.12939 0.93524 0.0
O27 O 0.70636 0.13512 0.89784 0.0
O28 O 0.71129 0.22508 0.89423 0.0
Zn29 Zn 0.751 0.22415 0.9358 0.0
O30 O 0.75774 0.26521 0.97901 0.0
C31 C 0.81767 0.23626 0.87962 0.0
O32 O 0.78369 0.21068 0.85786 0.0
O33 O 0.72486 0.16288 0.95713 0.0
C34 C 0.72519 0.26468 0.99545 0.0
O35 O 0.68521 0.2368 0.98344 0.0
C36 C 0.7251 0.25673 0.87039 0.0
O37 O 0.76531 0.29009 0.87409 0.0
O38 O 0.81124 0.2449 0.91378 0.0
C39 C 0.58244 0.72417 0.08968 0.0
O40 O 0.5972 0.74707 0.05774 0.0
O41 O 0.47434 0.70187 0.03659 0.0
Zn42 Zn 0.51066 0.74175 0.07994 0.0
O43 O 0.47189 0.74451 0.12118 0.0
C44 C 0.53239 0.82474 0.04814 0.0
O45 O 0.48965 0.80746 0.05171 0.0
O46 O 0.54655 0.71807 0.10401 0.0
C47 C 0.48983 0.77154 0.14879 0.0
O48 O 0.53277 0.79728 0.14886 0.0
C49 C 0.43545 0.67011 0.04162 0.0
O50 O 0.41808 0.66288 0.07626 0.0
O51 O 0.54992 0.8024 0.05871 0.0
C52 C 0.85949 0.57085 0.2984 0.0
O53 O 0.83347 0.53257 0.31452 0.0
O54 O 0.77713 0.50414 0.2141 0.0
Zn55 Zn 0.78094 0.54618 0.25559 0.0
O56 O 0.74503 0.51321 0.30211 0.0
C57 C 0.72617 0.56601 0.20919 0.0
O58 O 0.71062 0.52467 0.19948 0.0
O59 O 0.84429 0.58431 0.27174 0.0
C60 C 0.70814 0.47786 0.29994 0.0
O61 O 0.69152 0.46174 0.26586 0.0
C62 C 0.77497 0.46744 0.22016 0.0
O63 O 0.77648 0.45543 0.25574 0.0
O64 O 0.75726 0.58342 0.23368 0.0
C65 C 0.27419 0.87553 0.4369 0.0
O66 O 0.24867 0.86771 0.40673 0.0
O67 O 0.29267 0.78858 0.38039 0.0
Zn68 Zn 0.25451 0.78529 0.42531 0.0
O69 O 0.25283 0.74322 0.4655 0.0
C70 C 0.17707 0.7319 0.38225 0.0
O71 O 0.20193 0.716 0.37067 0.0
O72 O 0.28047 0.8452 0.44961 0.0
C73 C 0.22953 0.73583 0.49556 0.0
O74 O 0.20664 0.75582 0.49966 0.0
C75 C 0.31087 0.76516 0.37867 0.0
O76 O 0.30524 0.73822 0.40717 0.0
O77 O 0.19269 0.76339 0.40638 0.0
C78 C 0.38715 0.10943 0.54611 0.0
C79 C 0.42828 0.13708 0.52926 0.0
C80 C 0.35969 0.06657 0.53219 0.0
C81 C 0.37379 0.05101 0.50077 0.0
C82 C 0.41519 0.07881 0.48358 0.0
C83 C 0.44188 0.12148 0.49799 0.0
C84 C 0.31572 0.03787 0.55119 0.0
C85 C 0.43147 0.06337 0.4501 0.0
C86 C 0.32656 0.92846 0.48563 0.0
C87 C 0.29747 0.91984 0.45476 0.0
C88 C 0.3508 0.97078 0.50147 0.0
C89 C 0.3458 0.00536 0.48617 0.0
C90 C 0.31566 0.99669 0.45571 0.0
C91 C 0.29188 0.95402 0.44033 0.0
C92 C 0.38264 0.97872 0.53393 0.0
C93 C 0.30932 0.03271 0.43875 0.0
H94 H 0.37633 0.12124 0.57022 0.0
H95 H 0.47358 0.14256 0.48476 0.0
H96 H 0.28898 0.02685 0.52953 0.0
H97 H 0.31438 0.00794 0.56315 0.0
H98 H 0.30923 0.05517 0.57485 0.0
H99 H 0.46424 0.08923 0.4397 0.0
H100 H 0.43374 0.03418 0.45875 0.0
H101 H 0.4078 0.0532 0.42579 0.0
H102 H 0.33103 0.90227 0.49708 0.0
H103 H 0.26938 0.94765 0.41659 0.0
H104 H 0.37562 0.99404 0.55883 0.0
H105 H 0.41668 0.002 0.52432 0.0
H106 H 0.38115 0.94792 0.54378 0.0
H107 H 0.3011 0.04925 0.46183 0.0
H108 H 0.28286 0.02009 0.41665 0.0
H109 H 0.34039 0.058 0.42521 0.0
C110 C 0.3785 0.32767 0.587 0.0
C111 C 0.40124 0.3132 0.61051 0.0
C112 C 0.35686 0.34842 0.60293 0.0
C113 C 0.35806 0.35488 0.6433 0.0
C114 C 0.38037 0.33976 0.66724 0.0
C115 C 0.40164 0.31907 0.65057 0.0
C116 C 0.33325 0.36399 0.57652 0.0
C117 C 0.38236 0.34606 0.71043 0.0
C118 C 0.34121 0.4465 0.68184 0.0
C119 C 0.29739 0.42318 0.69432 0.0
C120 C 0.36127 0.42468 0.66501 0.0
C121 C 0.33691 0.37842 0.6605 0.0
C122 C 0.29263 0.35468 0.67291 0.0
C123 C 0.2734 0.37734 0.68971 0.0
C124 C 0.40862 0.45111 0.6522 0.0
C125 C 0.26562 0.30533 0.66854 0.0
H126 H 0.37795 0.32322 0.55604 0.0
H127 H 0.41907 0.30796 0.66899 0.0
H128 H 0.29839 0.34941 0.58544 0.0
H129 H 0.34846 0.40023 0.57871 0.0
H130 H 0.33423 0.35524 0.5459 0.0
H131 H 0.40011 0.33139 0.72507 0.0
H132 H 0.3992 0.38167 0.71735 0.0
H133 H 0.34863 0.33094 0.72244 0.0
H134 H 0.35999 0.48191 0.68527 0.0
H135 H 0.2395 0.35905 0.69922 0.0
H136 H 0.41117 0.44585 0.62099 0.0
H137 H 0.42876 0.43982 0.6678 0.0
H138 H 0.42287 0.4869 0.65744 0.0
H139 H 0.26435 0.2961 0.63778 0.0
H140 H 0.23145 0.29182 0.67921 0.0
H141 H 0.2813 0.28954 0.68469 0.0
C142 C 0.86927 0.25646 0.82371 0.0
C143 C 0.86264 0.25899 0.86329 0.0
C144 C 0.91122 0.28134 0.8073 0.0
C145 C 0.94735 0.30922 0.83109 0.0
C146 C 0.94116 0.31063 0.87126 0.0
C147 C 0.89888 0.28557 0.88687 0.0
C148 C 0.91658 0.279 0.76432 0.0
C149 C 0.97896 0.33973 0.89762 0.0
C150 C 0.0641 0.35371 0.79486 0.0
C151 C 0.07559 0.39661 0.78387 0.0
C152 C 0.02227 0.32465 0.80986 0.0
C153 C 0.99119 0.33878 0.81379 0.0
C154 C 0.00234 0.38177 0.80217 0.0
C155 C 0.04442 0.41018 0.78743 0.0
C156 C 0.01157 0.27908 0.82205 0.0
C157 C 0.96998 0.39796 0.80578 0.0
H158 H 0.84147 0.23601 0.80527 0.0
H159 H 0.89411 0.28754 0.91752 0.0
H160 H 0.92635 0.31137 0.75109 0.0
H161 H 0.94314 0.27156 0.75816 0.0
H162 H 0.88583 0.25363 0.75024 0.0
H163 H 0.96918 0.33499 0.92847 0.0
H164 H 0.00636 0.33298 0.8938 0.0
H165 H 0.9917 0.37474 0.89004 0.0
H166 H 0.08799 0.34295 0.79221 0.0
H167 H 0.05294 0.44318 0.77888 0.0
H168 H 0.98166 0.25397 0.80684 0.0
H169 H 0.00435 0.27476 0.85339 0.0
H170 H 0.03892 0.27271 0.81602 0.0
H171 H 0.93925 0.37566 0.78999 0.0
H172 H 0.98331 0.43183 0.79434 0.0
H173 H 0.9611 0.3977 0.8365 0.0
C174 C 0.54022 0.89473 0.02229 0.0
C175 C 0.55954 0.8694 0.03183 0.0
C176 C 0.56533 0.93701 0.00665 0.0
C177 C 0.61086 0.95437 0.00024 0.0
C178 C 0.6306 0.92901 0.00977 0.0
C179 C 0.60472 0.88684 0.02553 0.0
C180 C 0.54313 0.96314 0.99699 0.0
C181 C 0.67903 0.9464 0.00322 0.0
C182 C 0.66496 0.0475 0.92772 0.0
C183 C 0.68438 0.08452 0.95187 0.0
C184 C 0.64173 0.00486 0.9431 0.0
C185 C 0.63768 -0.00087 0.98358 0.0
C186 C 0.65792 0.03628 0.00813 0.0
C187 C 0.68109 0.07852 0.99199 0.0
C188 C 0.62077 0.966 0.91601 0.0
C189 C 0.65425 0.03147 0.05145 0.0
H190 H 0.50537 0.88157 0.02711 0.0
H191 H 0.6199 0.86746 0.03276 0.0
H192 H 0.5589 0.9946 0.01322 0.0
H193 H 0.54709 0.97147 0.96585 0.0
H194 H 0.50747 0.94499 0.00389 0.0
H195 H 0.68932 0.92251 0.01209 0.0
H196 H 0.68703 0.95432 0.97227 0.0
H197 H 0.6987 0.97733 0.01966 0.0
H198 H 0.66747 0.05179 0.8967 0.0
H199 H 0.69601 0.10692 0.01088 0.0
H200 H 0.58453 0.94837 0.91958 0.0
H201 H 0.632 0.9424 0.92308 0.0
H202 H 0.62863 0.97592 0.88533 0.0
H203 H 0.61926 0.01623 0.06016 0.0
H204 H 0.67326 0.06354 0.06654 0.0
H205 H 0.66626 0.00931 0.06133 0.0
C206 C 0.67456 0.57222 0.16354 0.0
C207 C 0.70751 0.59157 0.19174 0.0
C208 C 0.65596 0.59551 0.1469 0.0
C209 C 0.67056 0.63922 0.15879 0.0
C210 C 0.70406 0.65915 0.187 0.0
C211 C 0.72219 0.63508 0.20313 0.0
C212 C 0.62034 0.57314 0.11685 0.0
C213 C 0.72037 0.70569 0.20041 0.0
C214 C 0.64472 0.70871 0.09158 0.0
C215 C 0.60643 0.70441 0.10829 0.0
C216 C 0.66659 0.6885 0.10819 0.0
C217 C 0.64975 0.66347 0.14232 0.0
C218 C 0.61169 0.65982 0.15979 0.0
C219 C 0.59049 0.68031 0.14257 0.0
C220 C 0.70712 0.69311 0.08877 0.0
C221 C 0.59278 0.63346 0.19623 0.0
H222 H 0.66309 0.53868 0.15444 0.0
H223 H 0.74766 0.65029 0.22488 0.0
H224 H 0.58951 0.57118 0.1271 0.0
H225 H 0.63003 0.59268 0.08984 0.0
H226 H 0.61345 0.53935 0.11011 0.0
H227 H 0.74739 0.71679 0.22185 0.0
H228 H 0.73233 0.72849 0.17545 0.0
H229 H 0.69294 0.70817 0.21361 0.0
H230 H 0.65734 0.72736 0.06517 0.0
H231 H 0.56103 0.67695 0.1558 0.0
H232 H 0.70078 0.66038 0.07897 0.0
H233 H 0.73487 0.70588 0.10952 0.0
H234 H 0.71725 0.71548 0.06347 0.0
H235 H 0.58206 0.59839 0.19073 0.0
H236 H 0.56419 0.63557 0.20716 0.0
H237 H 0.61828 0.64521 0.2191 0.0
C238 C 0.10217 0.72415 0.38469 0.0
C239 C 0.1311 0.71201 0.36846 0.0
C240 C 0.05792 0.70365 0.37312 0.0
C241 C 0.04237 0.67043 0.34451 0.0
C242 C 0.07169 0.65886 0.32734 0.0
C243 C 0.11563 0.67969 0.33958 0.0
C244 C 0.02757 0.71675 0.39216 0.0
C245 C 0.05643 0.62377 0.29658 0.0
C246 C 0.92152 0.58314 0.34173 0.0
C247 C 0.90597 0.59738 0.31087 0.0
C248 C 0.96563 0.6071 0.35342 0.0
C249 C 0.99503 0.64622 0.33369 0.0
C250 C 0.97948 0.66116 0.30284 0.0
C251 C 0.93509 0.63659 0.29183 0.0
C252 C 0.98093 0.59017 0.38654 0.0
C253 C 0.00991 0.70266 0.28105 0.0
H254 H 0.11386 0.7491 0.40701 0.0
H255 H 0.13779 0.67027 0.3267 0.0
H256 H 0.01108 0.72628 0.37003 0.0
H257 H 0.00144 0.68831 0.40815 0.0
H258 H 0.04522 0.74458 0.41259 0.0
H259 H 0.08382 0.62012 0.28481 0.0
H260 H 0.03127 0.59168 0.30869 0.0
H261 H 0.04076 0.63168 0.27249 0.0
H262 H 0.89926 0.553 0.35674 0.0
H263 H 0.92334 0.64786 0.26797 0.0
H264 H -0.00352 0.61584 0.40913 0.0
H265 H 0.0062 0.58244 0.37629 0.0
H266 H 0.95358 0.56011 0.39979 0.0
H267 H 0.02626 0.7308 0.3013 0.0
H268 H 0.99236 0.71066 0.25869 0.0
H269 H 0.03616 0.69897 0.26685 0.0
C270 C 0.56616 0.35908 0.48875 0.0
C271 C 0.58156 0.33334 0.50625 0.0
C272 C 0.58648 0.38394 0.45561 0.0
C273 C 0.6227 0.38259 0.43932 0.0
C274 C 0.63854 0.35687 0.45697 0.0
C275 C 0.61795 0.33278 0.49037 0.0
C276 C 0.56903 0.41144 0.43789 0.0
C277 C 0.67683 0.35428 0.44022 0.0
C278 C 0.64887 0.41144 0.33342 0.0
C279 C 0.68529 0.45409 0.33552 0.0
C280 C 0.62804 0.38788 0.36698 0.0
C281 C 0.64374 0.40762 0.40351 0.0
C282 C 0.68001 0.45094 0.40581 0.0
C283 C 0.70048 0.47358 0.3718 0.0
C284 C 0.58964 0.3416 0.36339 0.0
C285 C 0.6974 0.47325 0.44422 0.0
H286 H 0.53817 0.35983 0.50097 0.0
H287 H 0.62991 0.31282 0.50361 0.0
H288 H 0.5957 0.44626 0.43589 0.0
H289 H 0.55736 0.39995 0.40812 0.0
H290 H 0.54146 0.40996 0.45475 0.0
H291 H 0.68528 0.33292 0.45753 0.0
H292 H 0.66893 0.34117 0.41039 0.0
H293 H 0.70623 0.38763 0.43858 0.0
H294 H 0.63701 0.39609 0.30552 0.0
H295 H 0.72852 0.50659 0.37368 0.0
H296 H 0.5603 0.33906 0.37781 0.0
H297 H 0.59746 0.31831 0.37811 0.0
H298 H 0.58117 0.33117 0.33286 0.0
H299 H 0.6707 0.47371 0.46088 0.0
H300 H 0.72494 0.50757 0.44101 0.0
H301 H 0.7091 0.4545 0.46142 0.0
C302 C 0.20436 0.69883 0.55967 0.0
C303 C 0.22886 0.70577 0.52585 0.0
C304 C 0.20416 0.67115 0.58895 0.0
C305 C 0.229 0.64986 0.58427 0.0
C306 C 0.25346 0.65637 0.55006 0.0
C307 C 0.25312 0.68427 0.52128 0.0
C308 C 0.17768 0.665 0.62505 0.0
C309 C 0.2803 0.63416 0.54401 0.0
C310 C 0.26356 0.61239 0.67368 0.0
C311 C 0.2328 0.56722 0.67431 0.0
C312 C 0.26256 0.63967 0.64463 0.0
C313 C 0.23005 0.62135 0.61546 0.0
C314 C 0.1988 0.57584 0.61598 0.0
C315 C 0.20052 0.54931 0.64541 0.0
C316 C 0.29641 0.68809 0.64507 0.0
C317 C 0.16367 0.55514 0.58532 0.0
H318 H 0.1855 0.71528 0.56345 0.0
H319 H 0.27209 0.68936 0.49521 0.0
H320 H 0.15369 0.62959 0.62944 0.0
H321 H 0.19976 0.67641 0.65053 0.0
H322 H 0.15952 0.68331 0.62393 0.0
H323 H 0.29682 0.64201 0.51546 0.0
H324 H 0.30575 0.64456 0.56683 0.0
H325 H 0.25891 0.59797 0.54634 0.0
H326 H 0.28859 0.62654 0.69589 0.0
H327 H 0.17661 0.51445 0.64567 0.0
H328 H 0.27981 0.70787 0.64628 0.0
H329 H 0.31595 0.69716 0.61809 0.0
H330 H 0.31926 0.69725 0.66998 0.0
H331 H 0.14345 0.57127 0.58489 0.0
H332 H 0.14163 0.51931 0.58999 0.0
H333 H 0.17914 0.56013 0.5565 0.0
C334 C 0.71549 0.28473 0.80691 0.0
C335 C 0.69736 0.25452 0.83731 0.0
C336 C 0.69017 0.28185 0.77453 0.0
C337 C 0.64553 0.24821 0.77268 0.0
C338 C 0.62685 0.21799 0.80351 0.0
C339 C 0.65305 0.22137 0.83537 0.0
C340 C 0.71133 0.31451 0.74211 0.0
C341 C 0.57923 0.18195 0.80276 0.0
C342 C 0.56986 0.26448 0.70496 0.0
C343 C 0.5668 0.23797 0.67348 0.0
C344 C 0.59517 0.26792 0.73749 0.0
C345 C 0.61835 0.24464 0.73846 0.0
C346 C 0.61562 0.218 0.70673 0.0
C347 C 0.5897 0.21482 0.67468 0.0
C348 C 0.59696 0.29635 0.7709 0.0
C349 C 0.6402 0.19299 0.70658 0.0
H350 H 0.74976 0.31031 0.80807 0.0
H351 H 0.63876 0.19795 0.85878 0.0
H352 H 0.70921 0.2969 0.71492 0.0
H353 H 0.69347 0.33268 0.73737 0.0
H354 H 0.74644 0.33867 0.74797 0.0
H355 H 0.56952 0.16159 0.82934 0.0
H356 H 0.55769 0.19643 0.79947 0.0
H357 H 0.57316 0.16017 0.77756 0.0
H358 H 0.55214 0.28236 0.70436 0.0
H359 H 0.58763 0.19438 0.65045 0.0
H360 H 0.63142 0.3226 0.77615 0.0
H361 H 0.58519 0.27629 0.79756 0.0
H362 H 0.57666 0.31197 0.76578 0.0
H363 H 0.67595 0.21615 0.71016 0.0
H364 H 0.63496 0.17406 0.67952 0.0
H365 H 0.62947 0.16982 0.73126 0.0
C366 C 0.31073 0.49441 0.87338 0.0
C367 C 0.28776 0.5079 0.84909 0.0
C368 C 0.33489 0.52017 0.90501 0.0
C369 C 0.33595 0.56028 0.91262 0.0
C370 C 0.31272 0.574 0.88831 0.0
C371 C 0.289 0.54772 0.85679 0.0
C372 C 0.35945 0.50458 0.9302 0.0
C373 C 0.31292 0.61648 0.89559 0.0
C374 C 0.36602 0.60876 0.01349 0.0
C375 C 0.41006 0.64173 0.00874 0.0
C376 C 0.34152 0.58193 0.98248 0.0
C377 C 0.36161 0.58809 0.94588 0.0
C378 C 0.40611 0.62111 0.94094 0.0
C379 C 0.42976 0.6476 0.97239 0.0
C380 C 0.29407 0.54716 0.9888 0.0
C381 C 0.42871 0.62855 0.90239 0.0
H382 H 0.31002 0.46375 0.86762 0.0
H383 H 0.27131 0.55839 0.83822 0.0
H384 H 0.39504 0.52935 0.93026 0.0
H385 H 0.34776 0.50096 0.9604 0.0
H386 H 0.35527 0.4726 0.92039 0.0
H387 H 0.2928 0.62225 0.87419 0.0
H388 H 0.30001 0.61608 0.92485 0.0
H389 H 0.3471 0.64459 0.89452 0.0
H390 H 0.35051 0.60401 0.04144 0.0
H391 H 0.4638 0.67291 0.96845 0.0
H392 H 0.28914 0.51426 0.98141 0.0
H393 H 0.2725 0.55324 0.96948 0.0
H394 H 0.28339 0.54642 0.01907 0.0
H395 H 0.42738 0.59785 0.89257 0.0
H396 H 0.46366 0.65519 0.90347 0.0
H397 H 0.41134 0.63724 0.88045 0.0
C398 C 0.77505 0.32183 0.04279 0.0
C399 C 0.73246 0.29451 0.02836 0.0
C400 C 0.78251 0.34986 0.07423 0.0
C401 C 0.74656 0.35076 0.09162 0.0
C402 C 0.70351 0.32339 0.07718 0.0
C403 C 0.69696 0.29553 0.04574 0.0
C404 C 0.8289 0.37855 0.08883 0.0
C405 C 0.66438 0.32358 0.0949 0.0
C406 C 0.76057 0.39497 0.19385 0.0
C407 C 0.76863 0.43779 0.18737 0.0
C408 C 0.75319 0.36621 0.16295 0.0
C409 C 0.75413 0.38072 0.12469 0.0
C410 C 0.76255 0.42399 0.11795 0.0
C411 C 0.7696 0.45195 0.14935 0.0
C412 C 0.74418 0.32024 0.17125 0.0
C413 C 0.76404 0.44074 0.07755 0.0
H414 H 0.80269 0.32123 0.02962 0.0
H415 H 0.66396 0.27459 0.03477 0.0
H416 H 0.83818 0.41369 0.08703 0.0
H417 H 0.83097 0.37121 0.11962 0.0
H418 H 0.85322 0.37378 0.07225 0.0
H419 H 0.63302 0.30019 0.0804 0.0
H420 H 0.66182 0.3148 0.12589 0.0
H421 H 0.66875 0.35708 0.09317 0.0
H422 H 0.75959 0.38369 0.22311 0.0
H423 H 0.77583 0.48499 0.14404 0.0
H424 H 0.76919 0.31473 0.15686 0.0
H425 H 0.71164 0.29577 0.15933 0.0
H426 H 0.7445 0.31401 0.20262 0.0
H427 H 0.78971 0.43878 0.06052 0.0
H428 H 0.7711 0.4753 0.07723 0.0
H429 H 0.73214 0.41977 0.06283 0.0
C430 C 0.35765 0.74188 0.34296 0.0
C431 C 0.33731 0.76748 0.34456 0.0
C432 C 0.38237 0.74325 0.31071 0.0
C433 C 0.38685 0.77086 0.27925 0.0
C434 C 0.36651 0.79688 0.28067 0.0
C435 C 0.34199 0.79489 0.31333 0.0
C436 C 0.40364 0.71507 0.31027 0.0
C437 C 0.37057 0.82671 0.24766 0.0
C438 C 0.48314 0.80251 0.21171 0.0
C439 C 0.46307 0.7727 0.18126 0.0
C440 C 0.45858 0.80276 0.24349 0.0
C441 C 0.41287 0.77243 0.24488 0.0
C442 C 0.39226 0.74275 0.21395 0.0
C443 C 0.4176 0.74326 0.18249 0.0
C444 C 0.48169 0.83499 0.27589 0.0
C445 C 0.34356 0.70995 0.21441 0.0
H446 H 0.35424 0.72062 0.36694 0.0
H447 H 0.32636 0.81476 0.31428 0.0
H448 H 0.39131 0.69222 0.28533 0.0
H449 H 0.43973 0.73609 0.30674 0.0
H450 H 0.39708 0.69546 0.33708 0.0
H451 H 0.35287 0.84492 0.25332 0.0
H452 H 0.40572 0.85087 0.24228 0.0
H453 H 0.3572 0.80714 0.2209 0.0
H454 H 0.51822 0.82546 0.21097 0.0
H455 H 0.40181 0.72014 0.15907 0.0
H456 H 0.47872 0.81688 0.30296 0.0
H457 H 0.46591 0.85509 0.28098 0.0
H458 H 0.51714 0.85742 0.2698 0.0
H459 H 0.33561 0.68731 0.23926 0.0
H460 H 0.33232 0.69008 0.18755 0.0
H461 H 0.32468 0.72723 0.21814 0.0
loop_
_geom_bond_atom_site_label_1
_geom_bond_atom_site_label_2
_geom_bond_distance
_geom_bond_site_symmetry_2
_ccdc_geom_bond_type
C0 O1 1.160 . S
C0 O7 1.185 . S
O1 C0 1.160 . S
O2 Zn3 1.899 . S
O2 C10 1.284 . S
Zn3 O2 1.899 . S
Zn3 O4 2.032 . S
Zn3 O7 2.086 . S
Zn3 O12 1.977 . S
O4 Zn3 2.032 . S
O4 C8 1.278 . S
C5 O6 1.203 . S
C5 O12 1.267 . S
O6 C5 1.203 . S
O7 C0 1.185 . S
O7 Zn3 2.086 . S
C8 O4 1.278 . S
C8 O9 1.211 . S
O9 C8 1.211 . S
C10 O2 1.284 . S
C10 O11 1.273 . S
O11 C10 1.273 . S
O12 Zn3 1.977 . S
O12 C5 1.267 . S
C13 O14 1.160 . S
C13 O20 1.185 . S
O14 C13 1.160 . S
O15 Zn16 1.899 . S
O15 C23 1.284 . S
Zn16 O15 1.899 . S
Zn16 O17 2.032 . S
Zn16 O20 2.086 . S
Zn16 O25 1.977 . S
O17 Zn16 2.032 . S
O17 C21 1.278 . S
C18 O19 1.203 . S
C18 O25 1.267 . S
O19 C18 1.203 . S
O20 C13 1.185 . S
O20 Zn16 2.086 . S
C21 O17 1.278 . S
C21 O22 1.211 . S
O22 C21 1.211 . S
C23 O15 1.284 . S
C23 O24 1.273 . S
O24 C23 1.273 . S
O25 Zn16 1.977 . S
O25 C18 1.267 . S
C26 O27 1.160 . S
C26 O33 1.185 . S
O27 C26 1.160 . S
O28 Zn29 1.899 . S
O28 C36 1.284 . S
Zn29 O28 1.899 . S
Zn29 O30 2.032 . S
Zn29 O33 2.086 . S
Zn29 O38 1.977 . S
O30 Zn29 2.032 . S
O30 C34 1.278 . S
C31 O32 1.203 . S
C31 O38 1.267 . S
O32 C31 1.203 . S
O33 C26 1.185 . S
O33 Zn29 2.086 . S
C34 O30 1.278 . S
C34 O35 1.211 . S
O35 C34 1.211 . S
C36 O28 1.284 . S
C36 O37 1.273 . S
O37 C36 1.273 . S
O38 Zn29 1.977 . S
O38 C31 1.267 . S
C39 O40 1.160 . S
C39 O46 1.185 . S
O40 C39 1.160 . S
O41 Zn42 1.899 . S
O41 C49 1.284 . S
Zn42 O41 1.899 . S
Zn42 O43 2.032 . S
Zn42 O46 2.086 . S
Zn42 O51 1.977 . S
O43 Zn42 2.032 . S
O43 C47 1.278 . S
C44 O45 1.203 . S
C44 O51 1.267 . S
O45 C44 1.203 . S
O46 C39 1.185 . S
O46 Zn42 2.086 . S
C47 O43 1.278 . S
C47 O48 1.211 . S
O48 C47 1.211 . S
C49 O41 1.284 . S
C49 O50 1.273 . S
O50 C49 1.273 . S
O51 Zn42 1.977 . S
O51 C44 1.267 . S
C52 O53 1.160 . S
C52 O59 1.185 . S
O53 C52 1.160 . S
O54 Zn55 1.899 . S
O54 C62 1.284 . S
Zn55 O54 1.899 . S
Zn55 O56 2.032 . S
Zn55 O59 2.086 . S
Zn55 O64 1.977 . S
O56 Zn55 2.032 . S
O56 C60 1.278 . S
C57 O58 1.203 . S
C57 O64 1.267 . S
O58 C57 1.203 . S
O59 C52 1.185 . S
O59 Zn55 2.086 . S
C60 O56 1.278 . S
C60 O61 1.211 . S
O61 C60 1.211 . S
C62 O54 1.284 . S
C62 O63 1.273 . S
O63 C62 1.273 . S
O64 Zn55 1.977 . S
O64 C57 1.267 . S
C65 O66 1.160 . S
C65 O72 1.185 . S
O66 C65 1.160 . S
O67 Zn68 1.899 . S
O67 C75 1.284 . S
Zn68 O67 1.899 . S
Zn68 O69 2.032 . S
Zn68 O72 2.086 . S
Zn68 O77 1.977 . S
O69 Zn68 2.032 . S
O69 C73 1.278 . S
C70 O71 1.203 . S
C70 O77 1.267 . S
O71 C70 1.203 . S
O72 C65 1.185 . S
O72 Zn68 2.086 . S
C73 O69 1.278 . S
C73 O74 1.211 . S
O74 C73 1.211 . S
C75 O67 1.284 . S
C75 O76 1.273 . S
O76 C75 1.273 . S
O77 Zn68 1.977 . S
O77 C70 1.267 . S
C78 C79 1.391 . S
C78 C80 1.394 . S
C78 H94 0.931 . S
C79 C78 1.391 . S
C79 C83 1.376 . S
C80 C78 1.394 . S
C80 C81 1.369 . S
C80 C84 1.531 . S
C81 C80 1.369 . S
C81 C82 1.410 . S
C81 C89 1.503 1_545 S
C82 C81 1.410 . S
C82 C83 1.392 . S
C82 C85 1.511 . S
C83 C79 1.376 . S
C83 C82 1.392 . S
C83 H95 0.929 . S
C84 C80 1.531 . S
C84 H96 0.960 . S
C84 H97 0.962 . S
C84 H98 0.960 . S
C85 C82 1.511 . S
C85 H99 0.961 . S
C85 H100 0.961 1_545 S
C85 H101 0.961 . S
C86 C87 1.370 . S
C86 C88 1.363 . S
C86 H102 0.931 . S
C87 C86 1.370 . S
C87 C91 1.408 . S
C88 C86 1.363 . S
C88 C89 1.370 . S
C88 C92 1.524 . S
C89 C81 1.503 1_565 S
C89 C88 1.370 . S
C89 C90 1.403 . S
C90 C89 1.403 . S
C90 C91 1.404 . S
C90 C93 1.539 1_565 S
C91 C87 1.408 . S
C91 C90 1.404 . S
C91 H103 0.930 . S
C92 C88 1.524 . S
C92 H104 0.956 . S
C92 H105 0.961 . S
C92 H106 0.961 . S
C93 C90 1.539 1_545 S
C93 H107 0.958 . S
C93 H108 0.961 1_545 S
C93 H109 0.960 . S
H94 C78 0.931 . S
H95 C83 0.929 . S
H96 C84 0.960 . S
H97 C84 0.962 . S
H98 C84 0.960 . S
H99 C85 0.961 . S
H100 C85 0.961 1_565 S
H101 C85 0.961 . S
H102 C86 0.931 . S
H103 C91 0.930 . S
H104 C92 0.956 . S
H105 C92 0.961 . S
H106 C92 0.961 . S
H107 C93 0.958 . S
H108 C93 0.961 1_565 S
H109 C93 0.960 . S
C110 C111 1.391 . S
C110 C112 1.394 . S
C110 H126 0.931 . S
C111 C110 1.391 . S
C111 C115 1.376 . S
C112 C110 1.394 . S
C112 C113 1.369 . S
C112 C116 1.531 . S
C113 C112 1.369 . S
C113 C114 1.410 . S
C113 C121 1.503 . S
C114 C113 1.410 . S
C114 C115 1.392 . S
C114 C117 1.511 . S
C115 C111 1.376 . S
C115 C114 1.392 . S
C115 H127 0.929 . S
C116 C112 1.531 . S
C116 H128 0.960 . S
C116 H129 0.962 . S
C116 H130 0.960 . S
C117 C114 1.511 . S
C117 H131 0.961 . S
C117 H132 0.961 . S
C117 H133 0.961 . S
C118 C119 1.370 . S
C118 C120 1.363 . S
C118 H134 0.931 . S
C119 C118 1.370 . S
C119 C123 1.408 . S
C120 C118 1.363 . S
C120 C121 1.370 . S
C120 C124 1.524 . S
C121 C113 1.503 . S
C121 C120 1.370 . S
C121 C122 1.403 . S
C122 C121 1.403 . S
C122 C123 1.404 . S
C122 C125 1.539 . S
C123 C119 1.408 . S
C123 C122 1.404 . S
C123 H135 0.930 . S
C124 C120 1.524 . S
C124 H136 0.956 . S
C124 H137 0.961 . S
C124 H138 0.961 . S
C125 C122 1.539 . S
C125 H139 0.958 . S
C125 H140 0.961 . S
C125 H141 0.960 . S
H126 C110 0.931 . S
H127 C115 0.929 . S
H128 C116 0.960 . S
H129 C116 0.962 . S
H130 C116 0.960 . S
H131 C117 0.961 . S
H132 C117 0.961 . S
H133 C117 0.961 . S
H134 C118 0.931 . S
H135 C123 0.930 . S
H136 C124 0.956 . S
H137 C124 0.961 . S
H138 C124 0.961 . S
H139 C125 0.958 . S
H140 C125 0.961 . S
H141 C125 0.960 . S
C142 C143 1.391 . S
C142 C144 1.394 . S
C142 H158 0.931 . S
C143 C142 1.391 . S
C143 C147 1.376 . S
C144 C142 1.394 . S
C144 C145 1.369 . S
C144 C148 1.531 . S
C145 C144 1.369 . S
C145 C146 1.410 . S
C145 C153 1.503 1_655 S
C146 C145 1.410 . S
C146 C147 1.392 . S
C146 C149 1.525 . S
C147 C143 1.376 . S
C147 C146 1.392 . S
C147 H159 0.929 . S
C148 C144 1.531 . S
C148 H160 0.960 . S
C148 H161 0.962 . S
C148 H162 0.960 . S
C149 C146 1.525 . S
C149 H163 0.960 . S
C149 H164 0.948 1_655 S
C149 H165 0.962 1_655 S
C150 C151 1.370 . S
C150 C152 1.363 . S
C150 H166 0.931 . S
C151 C150 1.370 . S
C151 C155 1.408 . S
C152 C150 1.363 . S
C152 C153 1.370 . S
C152 C156 1.524 1_455 S
C153 C145 1.503 1_455 S
C153 C152 1.370 . S
C153 C154 1.403 . S
C154 C153 1.403 . S
C154 C155 1.404 . S
C154 C157 1.539 . S
C155 C151 1.408 . S
C155 C154 1.404 . S
C155 H167 0.930 . S
C156 C152 1.524 1_655 S
C156 H168 0.956 . S
C156 H169 0.961 . S
C156 H170 0.961 1_655 S
C157 C154 1.539 . S
C157 H171 0.958 . S
C157 H172 0.961 . S
C157 H173 0.960 . S
H158 C142 0.931 . S
H159 C147 0.929 . S
H160 C148 0.960 . S
H161 C148 0.962 . S
H162 C148 0.960 . S
H163 C149 0.960 . S
H164 C149 0.948 1_455 S
H165 C149 0.962 1_455 S
H166 C150 0.931 . S
H167 C155 0.930 . S
H168 C156 0.956 . S
H169 C156 0.961 . S
H170 C156 0.961 1_455 S
H171 C157 0.958 . S
H172 C157 0.961 . S
H173 C157 0.960 . S
C174 C175 1.391 . S
C174 C176 1.394 . S
C174 H190 0.931 . S
C175 C174 1.391 . S
C175 C179 1.376 . S
C176 C174 1.394 . S
C176 C177 1.369 . S
C176 C180 1.531 . S
C177 C176 1.369 . S
C177 C178 1.410 . S
C177 C185 1.503 1_565 S
C178 C177 1.410 . S
C178 C179 1.392 . S
C178 C181 1.505 1_554 S
C179 C175 1.376 . S
C179 C178 1.392 . S
C179 H191 0.929 . S
C180 C176 1.531 . S
C180 H192 0.960 1_565 S
C180 H193 0.962 . S
C180 H194 0.960 . S
C181 C178 1.505 1_556 S
C181 H195 0.967 . S
C181 H196 0.972 . S
C181 H197 0.949 1_556 S
C182 C183 1.370 . S
C182 C184 1.363 . S
C182 H198 0.931 . S
C183 C182 1.370 . S
C183 C187 1.408 1_556 S
C184 C182 1.363 . S
C184 C185 1.370 1_556 S
C184 C188 1.524 1_545 S
C185 C177 1.503 1_545 S
C185 C184 1.370 1_554 S
C185 C186 1.403 . S
C186 C185 1.403 . S
C186 C187 1.404 . S
C186 C189 1.539 . S
C187 C183 1.408 1_554 S
C187 C186 1.404 . S
C187 H199 0.930 . S
C188 C184 1.524 1_565 S
C188 H200 0.956 . S
C188 H201 0.961 . S
C188 H202 0.961 . S
C189 C186 1.539 . S
C189 H203 0.958 . S
C189 H204 0.961 . S
C189 H205 0.960 . S
H190 C174 0.931 . S
H191 C179 0.929 . S
H192 C180 0.960 1_545 S
H193 C180 0.962 . S
H194 C180 0.960 . S
H195 C181 0.967 . S
H196 C181 0.972 . S
H197 C181 0.949 1_554 S
H198 C182 0.931 . S
H199 C187 0.930 . S
H200 C188 0.956 . S
H201 C188 0.961 . S
H202 C188 0.961 . S
H203 C189 0.958 . S
H204 C189 0.961 . S
H205 C189 0.960 . S
C206 C207 1.391 . S
C206 C208 1.394 . S
C206 H222 0.931 . S
C207 C206 1.391 . S
C207 C211 1.376 . S
C208 C206 1.394 . S
C208 C209 1.369 . S
C208 C212 1.531 . S
C209 C208 1.369 . S
C209 C210 1.410 . S
C209 C217 1.503 . S
C210 C209 1.410 . S
C210 C211 1.392 . S
C210 C213 1.511 . S
C211 C207 1.376 . S
C211 C210 1.392 . S
C211 H223 0.929 . S
C212 C208 1.531 . S
C212 H224 0.960 . S
C212 H225 0.962 . S
C212 H226 0.960 . S
C213 C210 1.511 . S
C213 H227 0.961 . S
C213 H228 0.961 . S
C213 H229 0.961 . S
C214 C215 1.370 . S
C214 C216 1.363 . S
C214 H230 0.931 . S
C215 C214 1.370 . S
C215 C219 1.408 . S
C216 C214 1.363 . S
C216 C217 1.370 . S
C216 C220 1.524 . S
C217 C209 1.503 . S
C217 C216 1.370 . S
C217 C218 1.403 . S
C218 C217 1.403 . S
C218 C219 1.404 . S
C218 C221 1.539 . S
C219 C215 1.408 . S
C219 C218 1.404 . S
C219 H231 0.930 . S
C220 C216 1.524 . S
C220 H232 0.956 . S
C220 H233 0.961 . S
C220 H234 0.961 . S
C221 C218 1.539 . S
C221 H235 0.958 . S
C221 H236 0.961 . S
C221 H237 0.960 . S
H222 C206 0.931 . S
H223 C211 0.929 . S
H224 C212 0.960 . S
H225 C212 0.962 . S
H226 C212 0.960 . S
H227 C213 0.961 . S
H228 C213 0.961 . S
H229 C213 0.961 . S
H230 C214 0.931 . S
H231 C219 0.930 . S
H232 C220 0.956 . S
H233 C220 0.961 . S
H234 C220 0.961 . S
H235 C221 0.958 . S
H236 C221 0.961 . S
H237 C221 0.960 . S
C238 C239 1.391 . S
C238 C240 1.394 . S
C238 H254 0.931 . S
C239 C238 1.391 . S
C239 C243 1.376 . S
C240 C238 1.394 . S
C240 C241 1.369 . S
C240 C244 1.531 . S
C241 C240 1.369 . S
C241 C242 1.410 . S
C241 C249 1.503 1_455 S
C242 C241 1.410 . S
C242 C243 1.392 . S
C242 C245 1.511 . S
C243 C239 1.376 . S
C243 C242 1.392 . S
C243 H255 0.929 . S
C244 C240 1.531 . S
C244 H256 0.960 1_455 S
C244 H257 0.962 1_455 S
C244 H258 0.960 . S
C245 C242 1.511 . S
C245 H259 0.961 . S
C245 H260 0.961 . S
C245 H261 0.961 . S
C246 C247 1.370 . S
C246 C248 1.363 . S
C246 H262 0.931 . S
C247 C246 1.370 . S
C247 C251 1.408 . S
C248 C246 1.363 . S
C248 C249 1.370 . S
C248 C252 1.524 . S
C249 C241 1.503 1_655 S
C249 C248 1.370 . S
C249 C250 1.403 . S
C250 C249 1.403 . S
C250 C251 1.404 . S
C250 C253 1.539 1_655 S
C251 C247 1.408 . S
C251 C250 1.404 . S
C251 H263 0.930 . S
C252 C248 1.524 . S
C252 H264 0.956 . S
C252 H265 0.966 . S
C252 H266 0.961 . S
C253 C250 1.539 1_455 S
C253 H267 0.958 . S
C253 H268 0.961 1_455 S
C253 H269 0.960 . S
H254 C238 0.931 . S
H255 C243 0.929 . S
H256 C244 0.960 1_655 S
H257 C244 0.962 1_655 S
H258 C244 0.960 . S
H259 C245 0.961 . S
H260 C245 0.961 . S
H261 C245 0.961 . S
H262 C246 0.931 . S
H263 C251 0.930 . S
H264 C252 0.956 . S
H265 C252 0.966 . S
H266 C252 0.961 . S
H267 C253 0.958 . S
H268 C253 0.961 1_655 S
H269 C253 0.960 . S
C270 C271 1.391 . S
C270 C272 1.394 . S
C270 H286 0.931 . S
C271 C270 1.391 . S
C271 C275 1.376 . S
C272 C270 1.394 . S
C272 C273 1.369 . S
C272 C276 1.531 . S
C273 C272 1.369 . S
C273 C274 1.410 . S
C273 C281 1.503 . S
C274 C273 1.410 . S
C274 C275 1.392 . S
C274 C277 1.511 . S
C275 C271 1.376 . S
C275 C274 1.392 . S
C275 H287 0.929 . S
C276 C272 1.531 . S
C276 H288 0.960 . S
C276 H289 0.962 . S
C276 H290 0.960 . S
C277 C274 1.511 . S
C277 H291 0.961 . S
C277 H292 0.961 . S
C277 H293 0.961 . S
C278 C279 1.370 . S
C278 C280 1.363 . S
C278 H294 0.931 . S
C279 C278 1.370 . S
C279 C283 1.408 . S
C280 C278 1.363 . S
C280 C281 1.370 . S
C280 C284 1.524 . S
C281 C273 1.503 . S
C281 C280 1.370 . S
C281 C282 1.403 . S
C282 C281 1.403 . S
C282 C283 1.404 . S
C282 C285 1.539 . S
C283 C279 1.408 . S
C283 C282 1.404 . S
C283 H295 0.930 . S
C284 C280 1.524 . S
C284 H296 0.956 . S
C284 H297 0.961 . S
C284 H298 0.961 . S
C285 C282 1.539 . S
C285 H299 0.958 . S
C285 H300 0.961 . S
C285 H301 0.960 . S
H286 C270 0.931 . S
H287 C275 0.929 . S
H288 C276 0.960 . S
H289 C276 0.962 . S
H290 C276 0.960 . S
H291 C277 0.961 . S
H292 C277 0.961 . S
H293 C277 0.961 . S
H294 C278 0.931 . S
H295 C283 0.930 . S
H296 C284 0.956 . S
H297 C284 0.961 . S
H298 C284 0.961 . S
H299 C285 0.958 . S
H300 C285 0.961 . S
H301 C285 0.960 . S
C302 C303 1.391 . S
C302 C304 1.394 . S
C302 H318 0.931 . S
C303 C302 1.391 . S
C303 C307 1.376 . S
C304 C302 1.394 . S
C304 C305 1.369 . S
C304 C308 1.531 . S
C305 C304 1.369 . S
C305 C306 1.410 . S
C305 C313 1.503 . S
C306 C305 1.410 . S
C306 C307 1.392 . S
C306 C309 1.511 . S
C307 C303 1.376 . S
C307 C306 1.392 . S
C307 H319 0.929 . S
C308 C304 1.531 . S
C308 H320 0.960 . S
C308 H321 0.962 . S
C308 H322 0.960 . S
C309 C306 1.511 . S
C309 H323 0.961 . S
C309 H324 0.961 . S
C309 H325 0.961 . S
C310 C311 1.370 . S
C310 C312 1.363 . S
C310 H326 0.931 . S
C311 C310 1.370 . S
C311 C315 1.408 . S
C312 C310 1.363 . S
C312 C313 1.370 . S
C312 C316 1.524 . S
C313 C305 1.503 . S
C313 C312 1.370 . S
C313 C314 1.403 . S
C314 C313 1.403 . S
C314 C315 1.404 . S
C314 C317 1.539 . S
C315 C311 1.408 . S
C315 C314 1.404 . S
C315 H327 0.930 . S
C316 C312 1.524 . S
C316 H328 0.956 . S
C316 H329 0.961 . S
C316 H330 0.961 . S
C317 C314 1.539 . S
C317 H331 0.958 . S
C317 H332 0.961 . S
C317 H333 0.960 . S
H318 C302 0.931 . S
H319 C307 0.929 . S
H320 C308 0.960 . S
H321 C308 0.962 . S
H322 C308 0.960 . S
H323 C309 0.961 . S
H324 C309 0.961 . S
H325 C309 0.961 . S
H326 C310 0.931 . S
H327 C315 0.930 . S
H328 C316 0.956 . S
H329 C316 0.961 . S
H330 C316 0.961 . S
H331 C317 0.958 . S
H332 C317 0.961 . S
H333 C317 0.960 . S
C334 C335 1.391 . S
C334 C336 1.394 . S
C334 H350 0.931 . S
C335 C334 1.391 . S
C335 C339 1.376 . S
C336 C334 1.394 . S
C336 C337 1.369 . S
C336 C340 1.531 . S
C337 C336 1.369 . S
C337 C338 1.410 . S
C337 C345 1.503 . S
C338 C337 1.410 . S
C338 C339 1.392 . S
C338 C341 1.511 . S
C339 C335 1.376 . S
C339 C338 1.392 . S
C339 H351 0.929 . S
C340 C336 1.531 . S
C340 H352 0.960 . S
C340 H353 0.962 . S
C340 H354 0.960 . S
C341 C338 1.511 . S
C341 H355 0.961 . S
C341 H356 0.961 . S
C341 H357 0.961 . S
C342 C343 1.370 . S
C342 C344 1.363 . S
C342 H358 0.931 . S
C343 C342 1.370 . S
C343 C347 1.408 . S
C344 C342 1.363 . S
C344 C345 1.370 . S
C344 C348 1.524 . S
C345 C337 1.503 . S
C345 C344 1.370 . S
C345 C346 1.403 . S
C346 C345 1.403 . S
C346 C347 1.404 . S
C346 C349 1.539 . S
C347 C343 1.408 . S
C347 C346 1.404 . S
C347 H359 0.930 . S
C348 C344 1.524 . S
C348 H360 0.956 . S
C348 H361 0.961 . S
C348 H362 0.961 . S
C349 C346 1.539 . S
C349 H363 0.958 . S
C349 H364 0.961 . S
C349 H365 0.960 . S
H350 C334 0.931 . S
H351 C339 0.929 . S
H352 C340 0.960 . S
H353 C340 0.962 . S
H354 C340 0.960 . S
H355 C341 0.961 . S
H356 C341 0.961 . S
H357 C341 0.961 . S
H358 C342 0.931 . S
H359 C347 0.930 . S
H360 C348 0.956 . S
H361 C348 0.961 . S
H362 C348 0.961 . S
H363 C349 0.958 . S
H364 C349 0.961 . S
H365 C349 0.960 . S
C366 C367 1.391 . S
C366 C368 1.394 . S
C366 H382 0.931 . S
C367 C366 1.391 . S
C367 C371 1.376 . S
C368 C366 1.394 . S
C368 C369 1.369 . S
C368 C372 1.531 . S
C369 C368 1.369 . S
C369 C370 1.410 . S
C369 C377 1.503 . S
C370 C369 1.410 . S
C370 C371 1.392 . S
C370 C373 1.511 . S
C371 C367 1.376 . S
C371 C370 1.392 . S
C371 H383 0.929 . S
C372 C368 1.531 . S
C372 H384 0.960 . S
C372 H385 0.962 . S
C372 H386 0.960 . S
C373 C370 1.511 . S
C373 H387 0.961 . S
C373 H388 0.961 . S
C373 H389 0.961 . S
C374 C375 1.370 . S
C374 C376 1.363 . S
C374 H390 0.931 1_556 S
C375 C374 1.370 . S
C375 C379 1.408 . S
C376 C374 1.363 . S
C376 C377 1.370 . S
C376 C380 1.524 . S
C377 C369 1.503 . S
C377 C376 1.370 . S
C377 C378 1.403 . S
C378 C377 1.403 . S
C378 C379 1.404 . S
C378 C381 1.539 . S
C379 C375 1.408 . S
C379 C378 1.404 . S
C379 H391 0.930 . S
C380 C376 1.524 . S
C380 H392 0.956 . S
C380 H393 0.961 . S
C380 H394 0.961 . S
C381 C378 1.539 . S
C381 H395 0.958 . S
C381 H396 0.961 . S
C381 H397 0.960 . S
H382 C366 0.931 . S
H383 C371 0.929 . S
H384 C372 0.960 . S
H385 C372 0.962 . S
H386 C372 0.960 . S
H387 C373 0.961 . S
H388 C373 0.961 . S
H389 C373 0.961 . S
H390 C374 0.931 1_554 S
H391 C379 0.930 . S
H392 C380 0.956 . S
H393 C380 0.961 . S
H394 C380 0.961 . S
H395 C381 0.958 . S
H396 C381 0.961 . S
H397 C381 0.960 . S
C398 C399 1.391 . S
C398 C400 1.394 . S
C398 H414 0.931 . S
C399 C398 1.391 . S
C399 C403 1.376 . S
C400 C398 1.394 . S
C400 C401 1.369 . S
C400 C404 1.531 . S
C401 C400 1.369 . S
C401 C402 1.410 . S
C401 C409 1.503 . S
C402 C401 1.410 . S
C402 C403 1.392 . S
C402 C405 1.511 . S
C403 C399 1.376 . S
C403 C402 1.392 . S
C403 H415 0.929 1_554 S
C404 C400 1.531 . S
C404 H416 0.960 . S
C404 H417 0.962 . S
C404 H418 0.960 . S
C405 C402 1.511 . S
C405 H419 0.938 1_554 S
C405 H420 0.961 . S
C405 H421 0.961 . S
C406 C407 1.370 . S
C406 C408 1.363 . S
C406 H422 0.931 . S
C407 C406 1.370 . S
C407 C411 1.408 . S
C408 C406 1.363 . S
C408 C409 1.370 . S
C408 C412 1.524 . S
C409 C401 1.503 . S
C409 C408 1.370 . S
C409 C410 1.403 . S
C410 C409 1.403 . S
C410 C411 1.404 . S
C410 C413 1.539 . S
C411 C407 1.408 . S
C411 C410 1.404 . S
C411 H423 0.930 . S
C412 C408 1.524 . S
C412 H424 0.956 . S
C412 H425 0.961 . S
C412 H426 0.961 . S
C413 C410 1.539 . S
C413 H427 0.958 . S
C413 H428 0.961 . S
C413 H429 0.960 . S
H414 C398 0.931 . S
H415 C403 0.929 1_556 S
H416 C404 0.960 . S
H417 C404 0.962 . S
H418 C404 0.960 . S
H419 C405 0.938 1_556 S
H420 C405 0.961 . S
H421 C405 0.961 . S
H422 C406 0.931 . S
H423 C411 0.930 . S
H424 C412 0.956 . S
H425 C412 0.961 . S
H426 C412 0.961 . S
H427 C413 0.958 . S
H428 C413 0.961 . S
H429 C413 0.960 . S
C430 C431 1.391 . S
C430 C432 1.394 . S
C430 H446 0.931 . S
C431 C430 1.391 . S
C431 C435 1.376 . S
C432 C430 1.394 . S
C432 C433 1.369 . S
C432 C436 1.531 . S
C433 C432 1.369 . S
C433 C434 1.410 . S
C433 C441 1.503 . S
C434 C433 1.410 . S
C434 C435 1.392 . S
C434 C437 1.511 . S
C435 C431 1.376 . S
C435 C434 1.392 . S
C435 H447 0.929 . S
C436 C432 1.531 . S
C436 H448 0.960 . S
C436 H449 0.962 . S
C436 H450 0.960 . S
C437 C434 1.511 . S
C437 H451 0.961 . S
C437 H452 0.961 . S
C437 H453 0.961 . S
C438 C439 1.370 . S
C438 C440 1.363 . S
C438 H454 0.931 . S
C439 C438 1.370 . S
C439 C443 1.408 . S
C440 C438 1.363 . S
C440 C441 1.370 . S
C440 C444 1.524 . S
C441 C433 1.503 . S
C441 C440 1.370 . S
C441 C442 1.403 . S
C442 C441 1.403 . S
C442 C443 1.404 . S
C442 C445 1.539 . S
C443 C439 1.408 . S
C443 C442 1.404 . S
C443 H455 0.930 . S
C444 C440 1.524 . S
C444 H456 0.956 . S
C444 H457 0.961 . S
C444 H458 0.961 . S
C445 C442 1.539 . S
C445 H459 0.958 . S
C445 H460 0.961 . S
C445 H461 0.960 . S
H446 C430 0.931 . S
H447 C435 0.929 . S
H448 C436 0.960 . S
H449 C436 0.962 . S
H450 C436 0.960 . S
H451 C437 0.961 . S
H452 C437 0.961 . S
H453 C437 0.961 . S
H454 C438 0.931 . S
H455 C443 0.930 . S
H456 C444 0.956 . S
H457 C444 0.961 . S
H458 C444 0.961 . S
H459 C445 0.958 . S
H460 C445 0.961 . S
H461 C445 0.960 . S
C79 C5 1.380 . S
C87 C65 1.393 . S
C111 C0 1.412 . S
C119 C18 1.413 . S
C143 C31 1.390 . S
C151 C13 1.401 . S
C175 C44 1.423 . S
C183 C26 1.414 . S
C207 C57 1.423 . S
C215 C39 1.414 . S
C239 C70 1.408 . S
C247 C52 1.402 . S
C271 C10 1.506 . S
C279 C60 1.507 . S
C303 C73 1.481 . S
C311 C23 1.527 . S
C335 C36 1.524 . S
C343 C8 1.501 . S
C367 C21 1.499 . S
C375 C49 1.523 1_556 S
C399 C34 1.477 1_554 S
C407 C62 1.526 . S
C431 C75 1.509 . S
C439 C47 1.511 . S
