# Generated by pormake.
# Topology smd, (6)-cn, num edge types: 1
# Building blocks:
#     Node 0, Type 0, BuildingBlock: BETDIP_clean_sbu_0, # of connection points: 6
#     Node 1, Type 0, BuildingBlock: BETDIP_clean_sbu_0, # of connection points: 6
#     Node 2, Type 0, BuildingBlock: BETDIP_clean_sbu_0, # of connection points: 6
#     Node 3, Type 0, BuildingBlock: BETDIP_clean_sbu_0, # of connection points: 6
#     Node 4, Type 0, BuildingBlock: BETDIP_clean_sbu_0, # of connection points: 6
#     Node 5, Type 0, BuildingBlock: BETDIP_clean_sbu_0, # of connection points: 6
#     Node 6, Type 0, BuildingBlock: BETDIP_clean_sbu_0, # of connection points: 6
#     Node 7, Type 0, BuildingBlock: BETDIP_clean_sbu_0, # of connection points: 6
#     Node 8, Type 0, BuildingBlock: BETDIP_clean_sbu_0, # of connection points: 6
#     Node 9, Type 0, BuildingBlock: BETDIP_clean_sbu_0, # of connection points: 6
#     Node 10, Type 0, BuildingBlock: BETDIP_clean_sbu_0, # of connection points: 6
#     Node 11, Type 0, BuildingBlock: BETDIP_clean_sbu_0, # of connection points: 6
#     Node 12, Type 0, BuildingBlock: BETDIP_clean_sbu_0, # of connection points: 6
#     Node 13, Type 0, BuildingBlock: BETDIP_clean_sbu_0, # of connection points: 6
#     Node 14, Type 0, BuildingBlock: BETDIP_clean_sbu_0, # of connection points: 6
#     Node 15, Type 0, BuildingBlock: BETDIP_clean_sbu_0, # of connection points: 6
#     Node 16, Type 0, BuildingBlock: BETDIP_clean_sbu_0, # of connection points: 6
#     Node 17, Type 0, BuildingBlock: BETDIP_clean_sbu_0, # of connection points: 6
#     Edge 18, Type (0, 0), BuildingBlock: AJUNOK_clean_linker_0, # of connection points: 2
#     Edge 19, Type (0, 0), BuildingBlock: AJUNOK_clean_linker_0, # of connection points: 2
#     Edge 20, Type (0, 0), BuildingBlock: AJUNOK_clean_linker_0, # of connection points: 2
#     Edge 21, Type (0, 0), BuildingBlock: AJUNOK_clean_linker_0, # of connection points: 2
#     Edge 22, Type (0, 0), BuildingBlock: AJUNOK_clean_linker_0, # of connection points: 2
#     Edge 23, Type (0, 0), BuildingBlock: AJUNOK_clean_linker_0, # of connection points: 2
#     Edge 24, Type (0, 0), BuildingBlock: AJUNOK_clean_linker_0, # of connection points: 2
#     Edge 25, Type (0, 0), BuildingBlock: AJUNOK_clean_linker_0, # of connection points: 2
#     Edge 26, Type (0, 0), BuildingBlock: AJUNOK_clean_linker_0, # of connection points: 2
#     Edge 27, Type (0, 0), BuildingBlock: AJUNOK_clean_linker_0, # of connection points: 2
#     Edge 28, Type (0, 0), BuildingBlock: AJUNOK_clean_linker_0, # of connection points: 2
#     Edge 29, Type (0, 0), BuildingBlock: AJUNOK_clean_linker_0, # of connection points: 2
#     Edge 30, Type (0, 0), BuildingBlock: AJUNOK_clean_linker_0, # of connection points: 2
#     Edge 31, Type (0, 0), BuildingBlock: AJUNOK_clean_linker_0, # of connection points: 2
#     Edge 32, Type (0, 0), BuildingBlock: AJUNOK_clean_linker_0, # of connection points: 2
#     Edge 33, Type (0, 0), BuildingBlock: AJUNOK_clean_linker_0, # of connection points: 2
#     Edge 34, Type (0, 0), BuildingBlock: AJUNOK_clean_linker_0, # of connection points: 2
#     Edge 35, Type (0, 0), BuildingBlock: AJUNOK_clean_linker_0, # of connection points: 2
#     Edge 36, Type (0, 0), BuildingBlock: AJUNOK_clean_linker_0, # of connection points: 2
#     Edge 37, Type (0, 0), BuildingBlock: AJUNOK_clean_linker_0, # of connection points: 2
#     Edge 38, Type (0, 0), BuildingBlock: AJUNOK_clean_linker_0, # of connection points: 2
#     Edge 39, Type (0, 0), BuildingBlock: AJUNOK_clean_linker_0, # of connection points: 2
#     Edge 40, Type (0, 0), BuildingBlock: AJUNOK_clean_linker_0, # of connection points: 2
#     Edge 41, Type (0, 0), BuildingBlock: AJUNOK_clean_linker_0, # of connection points: 2
#     Edge 42, Type (0, 0), BuildingBlock: AJUNOK_clean_linker_0, # of connection points: 2
#     Edge 43, Type (0, 0), BuildingBlock: AJUNOK_clean_linker_0, # of connection points: 2
#     Edge 44, Type (0, 0), BuildingBlock: AJUNOK_clean_linker_0, # of connection points: 2
#     Edge 45, Type (0, 0), BuildingBlock: AJUNOK_clean_linker_0, # of connection points: 2
#     Edge 46, Type (0, 0), BuildingBlock: AJUNOK_clean_linker_0, # of connection points: 2
#     Edge 47, Type (0, 0), BuildingBlock: AJUNOK_clean_linker_0, # of connection points: 2
#     Edge 48, Type (0, 0), BuildingBlock: AJUNOK_clean_linker_0, # of connection points: 2
#     Edge 49, Type (0, 0), BuildingBlock: AJUNOK_clean_linker_0, # of connection points: 2
#     Edge 50, Type (0, 0), BuildingBlock: AJUNOK_clean_linker_0, # of connection points: 2
#     Edge 51, Type (0, 0), BuildingBlock: AJUNOK_clean_linker_0, # of connection points: 2
#     Edge 52, Type (0, 0), BuildingBlock: AJUNOK_clean_linker_0, # of connection points: 2
#     Edge 53, Type (0, 0), BuildingBlock: AJUNOK_clean_linker_0, # of connection points: 2
#     Edge 54, Type (0, 0), BuildingBlock: AJUNOK_clean_linker_0, # of connection points: 2
#     Edge 55, Type (0, 0), BuildingBlock: AJUNOK_clean_linker_0, # of connection points: 2
#     Edge 56, Type (0, 0), BuildingBlock: AJUNOK_clean_linker_0, # of connection points: 2
#     Edge 57, Type (0, 0), BuildingBlock: AJUNOK_clean_linker_0, # of connection points: 2
#     Edge 58, Type (0, 0), BuildingBlock: AJUNOK_clean_linker_0, # of connection points: 2
#     Edge 59, Type (0, 0), BuildingBlock: AJUNOK_clean_linker_0, # of connection points: 2
#     Edge 60, Type (0, 0), BuildingBlock: AJUNOK_clean_linker_0, # of connection points: 2
#     Edge 61, Type (0, 0), BuildingBlock: AJUNOK_clean_linker_0, # of connection points: 2
#     Edge 62, Type (0, 0), BuildingBlock: AJUNOK_clean_linker_0, # of connection points: 2
#     Edge 63, Type (0, 0), BuildingBlock: AJUNOK_clean_linker_0, # of connection points: 2
#     Edge 64, Type (0, 0), BuildingBlock: AJUNOK_clean_linker_0, # of connection points: 2
#     Edge 65, Type (0, 0), BuildingBlock: AJUNOK_clean_linker_0, # of connection points: 2
#     Edge 66, Type (0, 0), BuildingBlock: AJUNOK_clean_linker_0, # of connection points: 2
#     Edge 67, Type (0, 0), BuildingBlock: AJUNOK_clean_linker_0, # of connection points: 2
#     Edge 68, Type (0, 0), BuildingBlock: AJUNOK_clean_linker_0, # of connection points: 2
#     Edge 69, Type (0, 0), BuildingBlock: AJUNOK_clean_linker_0, # of connection points: 2
#     Edge 70, Type (0, 0), BuildingBlock: AJUNOK_clean_linker_0, # of connection points: 2
#     Edge 71, Type (0, 0), BuildingBlock: AJUNOK_clean_linker_0, # of connection points: 2
# Relax obj value: 0.310
# Max RMSD: 0.384
# Mean RMSD: 0.353
data_MOF--net-smd--node1-BETDIP_clean_sbu_0--edge1-AJUNOK_clean_linker_0
_symmetry_space_group_name_H-M    P1
_symmetry_Int_Tables_number       1
_symmetry_cell_setting            triclinic
loop_
_symmetry_equiv_pos_as_xyz
'x, y, z'
_cell_length_a     47.116921
_cell_length_b     47.326052
_cell_length_c     20.717929
_cell_angle_alpha  93.117429
_cell_angle_beta   93.480375
_cell_angle_gamma 119.94923
loop_
_atom_site_label
_atom_site_type_symbol
_atom_site_fract_x
_atom_site_fract_y
_atom_site_fract_z
_atom_type_partial_charge
Tb0 Tb 0.04289 0.26297 0.59281 0.0
Tb1 Tb 1.00207 0.23724 0.4827 0.0
C2 C 0.06571 0.28131 0.71126 0.0
C3 C 0.05375 0.27523 0.77696 0.0
C4 C 0.03802 0.29109 0.80388 0.0
C5 C 0.02849 0.28647 0.86711 0.0
C6 C 0.03485 0.26621 0.9055 0.0
C7 C 0.05044 0.25027 0.87842 0.0
C8 C 0.05985 0.2548 0.81519 0.0
C9 C 0.07401 0.24455 0.5133 0.0
C10 C 0.97933 0.1868 0.5763 0.0
C11 C 0.97337 0.22521 0.36886 0.0
C12 C 0.98295 0.23188 0.30173 0.0
C13 C 0.99905 0.21757 0.2704 0.0
C14 C 1.0071 0.2237 0.20659 0.0
C15 C 0.99948 0.24443 0.17259 0.0
C16 C 0.98326 0.2586 0.20391 0.0
C17 C 0.97511 0.25239 0.2676 0.0
C18 C 0.9797 0.26191 0.57836 0.0
C19 C 0.06378 0.30337 0.46824 0.0
O20 O 0.05619 0.29713 0.67445 0.0
O21 O 0.0657 0.25719 0.67765 0.0
O22 O 0.04263 0.2283 0.51851 0.0
O23 O 0.08691 0.27138 0.55121 0.0
O24 O 0.99861 0.21429 0.61622 0.0
O25 O 0.98093 0.18902 0.51405 0.0
O26 O 0.97938 0.20463 0.39798 0.0
O27 O 0.97998 0.25061 0.40842 0.0
O28 O 1.00777 0.2746 0.5583 0.0
O29 O 0.96259 0.23399 0.54376 0.0
O30 O 0.04408 0.27405 0.43945 0.0
O31 O 0.06518 0.30688 0.53325 0.0
H32 H 0.03331 0.30733 0.77642 0.0
H33 H 1.01599 0.29868 0.88576 0.0
H34 H 0.05596 0.23469 0.90668 0.0
H35 H 0.07236 0.2426 0.79651 0.0
H36 H 1.00546 0.20163 0.29506 0.0
H37 H 1.01974 0.21252 0.18408 0.0
H38 H 0.97635 0.27409 0.17882 0.0
H39 H 0.9624 0.2635 0.29012 0.0
Tb40 Tb 0.79217 0.7728 0.4777 0.0
Tb41 Tb 0.78128 0.79569 0.59085 0.0
C42 C 0.77938 0.74753 0.3617 0.0
C43 C 0.79145 0.75224 0.29685 0.0
C44 C 0.80435 0.78285 0.27196 0.0
C45 C 0.80742 0.7853 0.20554 0.0
C46 C 0.79791 0.75726 0.1627 0.0
C47 C 0.78797 0.72721 0.18877 0.0
C48 C 0.78444 0.72468 0.25518 0.0
C49 C 0.85154 0.79781 0.53804 0.0
C50 C 0.80939 0.84966 0.50268 0.0
C51 C 0.76677 0.80414 0.70263 0.0
C52 C 0.77257 0.79561 0.76766 0.0
C53 C 0.80123 0.79461 0.78632 0.0
C54 C 0.80582 0.78574 0.84784 0.0
C55 C 0.78167 0.7773 0.89136 0.0
C56 C 0.75294 0.77811 0.87222 0.0
C57 C 0.74844 0.78713 0.81093 0.0
C58 C 0.7316 0.77311 0.49134 0.0
C59 C 0.77587 0.72938 0.59958 0.0
O60 O 0.77131 0.76865 0.38392 0.0
O61 O 0.79392 0.73965 0.40723 0.0
O62 O 0.82777 0.79824 0.56589 0.0
O63 O 0.84255 0.78616 0.4783 0.0
O64 O 0.8003 0.82382 0.45892 0.0
O65 O 0.80952 0.84484 0.56418 0.0
O66 O 0.79247 0.82627 0.67718 0.0
O67 O 0.74731 0.77929 0.66045 0.0
O68 O 0.74731 0.75996 0.51282 0.0
O69 O 0.7447 0.80109 0.52565 0.0
O70 O 0.78816 0.75811 0.63158 0.0
O71 O 0.77083 0.72781 0.53482 0.0
H72 H 0.81 0.80455 0.30303 0.0
H73 H 0.81523 0.80883 0.18723 0.0
H74 H 0.7815 0.70536 0.15745 0.0
H75 H 0.77444 0.70081 0.2733 0.0
H76 H 0.82003 0.80067 0.75339 0.0
H77 H 0.82816 0.7853 0.86133 0.0
H78 H 0.73419 0.77235 0.90514 0.0
H79 H 0.72609 0.78754 0.79733 0.0
Tb80 Tb 0.25192 1.00079 0.58068 0.0
Tb81 Tb 0.26434 0.03723 0.48165 0.0
C82 C 0.24972 0.97959 0.69116 0.0
C83 C 0.25669 0.99097 0.76092 0.0
C84 C 0.27468 0.02441 0.78344 0.0
C85 C 0.28112 0.03417 0.85041 0.0
C86 C 0.26983 1.01064 0.89569 0.0
C87 C 0.25179 0.97726 0.87255 0.0
C88 C 0.24536 0.96756 0.80588 0.0
C89 C 0.20035 0.96523 0.49308 0.0
C90 C 0.23409 0.06041 0.57549 0.0
C91 C 0.28065 0.06582 0.37895 0.0
C92 C 0.2794 0.05764 0.30873 0.0
C93 C 0.26324 0.02504 0.28079 0.0
C94 C 0.26362 1.01806 0.21436 0.0
C95 C 0.27996 0.04355 0.17471 0.0
C96 C 0.2958 0.07614 0.2028 0.0
C97 C 0.29566 0.08308 0.26927 0.0
C98 C 0.31185 0.06494 0.58675 0.0
C99 C 0.27307 0.97836 0.45227 0.0
O100 O 0.27496 0.99001 0.65755 0.0
O101 O 0.2251 0.97991 0.65973 0.0
O102 O 0.21523 0.99677 0.50615 0.0
O103 O 0.21706 0.95495 0.5254 0.0
O104 O 0.24453 0.04437 0.61344 0.0
O105 O 0.23399 0.05563 0.51313 0.0
O106 O 0.25271 0.05712 0.4027 0.0
O107 O 0.29988 0.05997 0.41671 0.0
O108 O 0.29807 0.0364 0.55864 0.0
O109 O 0.29899 0.07941 0.55555 0.0
O110 O 0.26131 0.99537 0.42676 0.0
O111 O 0.2757 0.9793 0.51712 0.0
H112 H 0.28367 0.04286 0.74938 0.0
H113 H 0.29503 0.06007 0.86685 0.0
H114 H 0.24211 0.95858 0.90606 0.0
H115 H 0.23138 0.94166 0.78937 0.0
H116 H 0.25028 1.005 0.31003 0.0
H117 H 0.25071 0.99273 0.19376 0.0
H118 H 0.30859 0.09623 0.17341 0.0
H119 H 0.30838 0.1084 0.28997 0.0
Tb120 Tb 0.04517 0.80181 0.61586 0.0
Tb121 Tb 1.00814 0.77455 0.49508 0.0
C122 C 0.0699 0.81545 0.73241 0.0
C123 C 0.05757 0.80703 0.79651 0.0
C124 C 0.03366 0.77488 0.80677 0.0
C125 C 1.02322 0.76734 0.86854 0.0
C126 C 0.03673 0.79172 0.92122 0.0
C127 C 0.0602 0.82393 0.91057 0.0
C128 C 0.07054 0.83147 0.84882 0.0
C129 C 0.07122 0.77834 0.52815 0.0
C130 C 0.98509 0.73303 0.61891 0.0
C131 C 0.99468 0.74769 0.38022 0.0
C132 C 0.98927 0.75368 0.31289 0.0
C133 C 1.00453 0.78582 0.29476 0.0
C134 C 1.00842 0.79138 0.22951 0.0
C135 C 0.99679 0.76491 0.18148 0.0
C136 C 0.97882 0.73281 0.19896 0.0
C137 C 0.97527 0.72723 0.26443 0.0
C138 C 0.97445 0.79956 0.54606 0.0
C139 C 0.06906 0.8516 0.51699 0.0
O140 O 0.06165 0.83408 0.70146 0.0
O141 O 0.0678 0.79156 0.69386 0.0
O142 O 0.04219 0.76527 0.54379 0.0
O143 O 0.08699 0.80643 0.56232 0.0
O144 O 1.00217 0.76198 0.65107 0.0
O145 O 0.98638 0.73073 0.55454 0.0
O146 O 1.0243 0.76758 0.40811 0.0
O147 O 0.97212 0.74178 0.41979 0.0
O148 O 1.00015 0.8013 0.57678 0.0
O149 O 0.96985 0.78652 0.48756 0.0
O150 O 0.05056 0.82467 0.47538 0.0
O151 O 0.06559 0.84918 0.57907 0.0
H152 H 1.02332 0.75543 0.76745 0.0
H153 H 1.00512 0.74233 0.87544 0.0
H154 H 0.07055 0.84332 0.95009 0.0
H155 H 0.0889 0.8564 0.84201 0.0
H156 H 1.01569 0.80662 0.33138 0.0
H157 H 1.02212 0.81635 0.21689 0.0
H158 H 0.96962 0.71213 0.16256 0.0
H159 H 0.96368 0.7023 0.27752 0.0
Tb160 Tb 0.2534 0.23022 0.47388 0.0
Tb161 Tb 0.24559 0.25788 0.58855 0.0
C162 C 0.25924 0.21297 0.36033 0.0
C163 C 0.25464 0.22119 0.2934 0.0
C164 C 0.2251 0.20132 0.25326 0.0
C165 C 0.22121 0.20846 0.1896 0.0
C166 C 0.24681 0.23559 0.16435 0.0
C167 C 0.2762 0.25565 0.20459 0.0
C168 C 0.28019 0.2484 0.26804 0.0
C169 C 0.30637 0.25691 0.56727 0.0
C170 C 0.26271 0.29839 0.45883 0.0
C171 C 0.25358 0.28944 0.69745 0.0
C172 C 0.24648 0.28314 0.76542 0.0
C173 C 0.2706 0.30424 0.81533 0.0
C174 C 0.26788 0.29654 0.87974 0.0
C175 C 0.24085 0.2675 0.89603 0.0
C176 C 0.21584 0.24713 0.84621 0.0
C177 C 0.21878 0.25469 0.78138 0.0
C178 C 0.18634 0.22208 0.52195 0.0
C179 C 0.23122 0.18296 0.5764 0.0
O180 O 0.23285 0.19645 0.39032 0.0
O181 O 0.28357 0.23614 0.39945 0.0
O182 O 0.28872 0.26823 0.54766 0.0
O183 O 0.29398 0.22859 0.5342 0.0
O184 O 0.2545 0.27015 0.42851 0.0
O185 O 0.26247 0.30049 0.52402 0.0
O186 O 0.27358 0.28031 0.67717 0.0
O187 O 0.22952 0.28228 0.65273 0.0
O188 O 0.21363 0.2403 0.49838 0.0
O189 O 0.19362 0.22077 0.5825 0.0
O190 O 0.24446 0.21097 0.61571 0.0
O191 O 0.22498 0.18443 0.51466 0.0
H192 H 0.205 0.18006 0.27089 0.0
H193 H 0.19811 0.19276 0.16008 0.0
H194 H 0.29644 0.27661 0.18649 0.0
H195 H 0.30343 0.26415 0.29711 0.0
H196 H 0.29241 0.32611 0.80406 0.0
H197 H 0.28771 0.31276 0.91641 0.0
H198 H 0.19423 0.22502 0.85709 0.0
H199 H 0.19999 0.23786 0.74366 0.0
Tb200 Tb 0.78267 1.00227 0.59882 0.0
Tb201 Tb 0.79974 0.03893 0.50138 0.0
C202 C 0.76327 0.97414 0.70093 0.0
C203 C 0.76736 0.98339 0.77128 0.0
C204 C 0.7918 1.01462 0.79895 0.0
C205 C 0.79555 0.02268 0.86613 0.0
C206 C 0.77508 0.99957 0.90682 0.0
C207 C 0.75008 0.96861 0.87855 0.0
C208 C 0.7463 0.96061 0.81137 0.0
C209 C 0.73601 0.97715 0.49211 0.0
C210 C 0.77722 0.06288 0.62571 0.0
C211 C 0.80885 0.06196 0.39199 0.0
C212 C 0.80325 0.0511 0.32215 0.0
C213 C 0.7808 0.01855 0.29765 0.0
C214 C 0.77563 1.00937 0.23057 0.0
C215 C 0.79336 0.0325 0.18741 0.0
C216 C 0.8158 0.06499 0.21235 0.0
C217 C 0.82062 0.07419 0.27907 0.0
C218 C 0.84889 0.07319 0.59367 0.0
C219 C 0.81172 0.97578 0.50936 0.0
O220 O 0.7893 0.97782 0.67484 0.0
O221 O 0.74709 0.9843 0.66523 0.0
O222 O 0.75174 1.00587 0.51913 0.0
O223 O 0.74632 0.96103 0.52494 0.0
O224 O 0.78725 0.04488 0.65302 0.0
O225 O 0.77598 0.06201 0.56083 0.0
O226 O 0.78289 0.05425 0.42214 0.0
O227 O 0.83044 0.05804 0.42648 0.0
O228 O 0.83374 0.04161 0.58031 0.0
O229 O 0.83367 0.08411 0.55885 0.0
O230 O 0.80326 0.99285 0.4703 0.0
O231 O 0.81151 0.98128 0.57132 0.0
H232 H 0.80809 0.03268 0.76873 0.0
H233 H 0.81447 0.04702 0.88625 0.0
H234 H 0.7339 0.95033 0.90856 0.0
H235 H 0.72711 0.93647 0.79074 0.0
H236 H 0.76743 1.0003 0.33028 0.0
H237 H 0.75825 0.98416 0.21249 0.0
H238 H 0.82944 0.08336 0.18007 0.0
H239 H 0.83795 0.09944 0.2971 0.0
Tb240 Tb 0.67189 0.56955 0.78643 0.0
Tb241 Tb 0.71283 0.59329 0.90133 0.0
C242 C 0.65183 0.56735 0.66877 0.0
C243 C 0.66458 0.58255 0.60835 0.0
C244 C 0.69838 0.59881 0.60057 0.0
C245 C 0.70942 0.60854 0.53973 0.0
C246 C 0.68685 0.60153 0.48488 0.0
C247 C 0.65317 0.58669 0.4939 0.0
C248 C 0.64222 0.57736 0.55487 0.0
C249 C 0.64133 0.51748 0.85143 0.0
C250 C 0.73581 0.56002 0.81061 0.0
C251 C 0.74139 0.61959 1.01405 0.0
C252 C 0.73388 0.61817 0.08294 0.0
C253 C 0.70145 0.60423 0.09985 0.0
C254 C 0.69513 0.60368 0.16532 0.0
C255 C 0.72111 0.61682 0.21556 0.0
C256 C 0.75359 0.63124 0.19842 0.0
C257 C 0.75985 0.63188 0.13294 0.0
C258 C 0.73285 0.63412 0.80247 0.0
C259 C 0.64602 0.58796 0.91204 0.0
O260 O 0.66311 0.54903 0.69013 0.0
O261 O 0.64964 0.58528 0.71625 0.0
O262 O 0.66764 0.54434 0.87575 0.0
O263 O 0.63312 0.52045 0.79316 0.0
O264 O 0.71799 0.5669 0.76828 0.0
O265 O 0.7321 0.56256 0.87221 0.0
O266 O 0.74109 0.59411 0.98527 0.0
O267 O 0.72757 0.63129 0.97565 0.0
O268 O 0.7049 0.6183 0.82242 0.0
O269 O 0.75124 0.62694 0.83862 0.0
O270 O 0.66771 0.58248 0.94154 0.0
O271 O 0.64497 0.58804 0.84729 0.0
H272 H 0.71615 0.60298 0.64097 0.0
H273 H 0.73561 0.62085 0.53537 0.0
H274 H 0.63503 0.58087 0.4531 0.0
H275 H 0.61602 0.56473 0.55952 0.0
H276 H 0.68093 0.59362 0.06268 0.0
H277 H 0.66983 0.59234 0.17666 0.0
H278 H 0.77422 0.64221 0.2357 0.0
H279 H 0.78512 0.64321 0.12135 0.0
Tb280 Tb 0.46705 0.11463 0.81254 0.0
Tb281 Tb 0.45902 0.14326 0.92488 0.0
C282 C 0.46137 0.0851 0.70239 0.0
C283 C 0.46618 0.09584 0.63573 0.0
C284 C 0.45727 0.11863 0.6163 0.0
C285 C 0.45857 0.1265 0.55201 0.0
C286 C 0.46951 0.11241 0.50527 0.0
C287 C 0.47875 0.0898 0.52489 0.0
C288 C 0.47703 0.08157 0.58938 0.0
C289 C 0.52611 0.15254 0.87783 0.0
C290 C 0.48162 0.18948 0.82087 0.0
C291 C 0.45351 0.16273 0.03711 0.0
C292 C 0.45787 0.15593 0.10495 0.0
C293 C 0.47582 0.14052 0.12204 0.0
C294 C 0.47835 0.13316 0.18621 0.0
C295 C 0.46359 0.1417 0.23473 0.0
C296 C 0.44581 0.15724 0.21745 0.0
C297 C 0.44286 0.16411 0.15323 0.0
C298 C 0.4064 0.11668 0.8302 0.0
C299 C 0.45006 0.07528 0.94367 0.0
O300 O 0.43761 0.08633 0.72854 0.0
O301 O 0.48725 0.09608 0.74448 0.0
O302 O 0.4994 0.13363 0.90249 0.0
O303 O 0.51817 0.15322 0.81744 0.0
O304 O 0.46787 0.16104 0.7828 0.0
O305 O 0.48776 0.18855 0.88286 0.0
O306 O 0.48002 0.1779 1.00694 0.0
O307 O 0.42919 0.13871 0.99959 0.0
O308 O 0.42358 0.1051 0.85129 0.0
O309 O 0.41897 0.14513 0.86285 0.0
O310 O 0.45667 0.10338 0.97194 0.0
O311 O 0.45249 0.07288 0.87918 0.0
H312 H 0.44839 0.12983 0.6505 0.0
H313 H 0.45014 0.14309 0.53867 0.0
H314 H 0.48725 0.0784 0.49032 0.0
H315 H 0.4837 0.06367 0.60278 0.0
H316 H 0.48772 0.13399 0.08585 0.0
H317 H 0.49221 0.12119 0.19814 0.0
H318 H 0.43388 0.1638 0.25363 0.0
H319 H 0.42872 0.1758 0.14122 0.0
Tb320 Tb 0.93573 0.37233 0.81395 0.0
Tb321 Tb 0.91751 0.33578 0.90824 0.0
C322 C 0.94813 0.39272 0.70245 0.0
C323 C 0.94107 0.38056 0.63266 0.0
C324 C 0.94066 0.35184 0.60978 0.0
C325 C 0.93613 0.34234 0.54288 0.0
C326 C 0.93131 0.36109 0.49772 0.0
C327 C 0.93124 0.38953 0.5209 0.0
C328 C 0.93613 0.39917 0.5876 0.0
C329 C 0.92233 0.40728 0.89641 0.0
C330 C 0.85923 0.31237 0.81868 0.0
C331 C 0.91307 0.30729 1.01031 0.0
C332 C 0.91488 0.31493 0.08099 0.0
C333 C 0.91126 0.34096 0.10617 0.0
C334 C 0.9136 0.34809 0.1735 0.0
C335 C 0.91943 0.32921 0.21693 0.0
C336 C 0.92355 0.30348 0.19132 0.0
C337 C 0.92127 0.29643 0.12403 0.0
C338 C 0.93733 0.31115 0.80716 0.0
C339 C 0.98095 0.39802 0.94971 0.0
O340 O 0.9237 0.39054 0.73235 0.0
O341 O 0.96658 0.3853 0.73863 0.0
O342 O 0.90551 0.37545 0.88627 0.0
O343 O 0.94737 0.41826 0.86336 0.0
O344 O 0.88388 0.3275 0.7809 0.0
O345 O 0.8672 0.31857 0.88079 0.0
O346 O 0.88782 0.30446 0.97456 0.0
O347 O 0.9404 0.32404 0.9839 0.0
O348 O 0.95145 0.33953 0.83609 0.0
O349 O 0.91028 0.29536 0.83371 0.0
O350 O 0.95228 0.37899 0.96868 0.0
O351 O 0.98253 0.39753 0.88528 0.0
H352 H 0.94403 0.33687 0.64342 0.0
H353 H 0.93619 0.32024 0.52645 0.0
H354 H 0.92808 0.40473 0.4873 0.0
H355 H 0.93653 0.42151 0.60401 0.0
H356 H 0.90686 0.3559 0.07379 0.0
H357 H 0.91121 0.36863 0.19157 0.0
H358 H 0.92812 0.28853 0.22334 0.0
H359 H 0.92449 0.27645 0.10555 0.0
Tb360 Tb 0.7115 0.14514 0.92889 0.0
Tb361 Tb 0.67166 0.11714 0.8093 0.0
C362 C 0.73715 0.16379 0.04508 0.0
C363 C 0.72594 0.15503 0.11035 0.0
C364 C 0.69247 0.14005 0.12092 0.0
C365 C 0.68248 0.13109 0.1828 0.0
C366 C 0.7057 0.13677 0.2354 0.0
C367 C 0.73919 0.1521 0.22455 0.0
C368 C 0.74913 0.16098 0.16279 0.0
C369 C 0.73555 0.1202 0.83842 0.0
C370 C 0.6501 0.07654 0.93781 0.0
C371 C 0.64616 0.08694 0.69744 0.0
C372 C 0.65413 0.09524 0.63006 0.0
C373 C 0.68704 0.11174 0.61511 0.0
C374 C 0.69444 0.11746 0.55091 0.0
C375 C 0.66921 0.10706 0.49989 0.0
C376 C 0.63634 0.09129 0.51502 0.0
C377 C 0.62889 0.08525 0.57935 0.0
C378 C 0.65171 0.15337 0.87432 0.0
C379 C 0.73347 0.19093 0.82197 0.0
O380 O 0.72469 0.17853 1.01175 0.0
O381 O 0.73862 0.1412 1.00871 0.0
O382 O 0.70699 0.1085 0.85523 0.0
O383 O 0.7528 0.14791 0.87393 0.0
O384 O 0.6748 0.10267 0.96976 0.0
O385 O 0.644 0.0757 0.87307 0.0
O386 O 0.66812 0.08423 0.73333 0.0
O387 O 0.63474 0.1027 0.7304 0.0
O388 O 0.66081 0.13448 0.89852 0.0
O389 O 0.65734 0.15433 0.81391 0.0
O390 O 0.71709 0.16276 0.78335 0.0
O391 O 0.72794 0.19023 0.88344 0.0
H392 H 0.67402 0.13514 0.08137 0.0
H393 H 0.65651 0.11932 0.18931 0.0
H394 H 0.75785 0.15757 0.26407 0.0
H395 H 0.77506 0.17254 0.15597 0.0
H396 H 0.70716 0.11993 0.65299 0.0
H397 H 0.72001 0.13018 0.54118 0.0
H398 H 0.61636 0.08301 0.47683 0.0
H399 H 0.60336 0.07238 0.58937 0.0
Tb400 Tb 0.9174 0.59457 0.91485 0.0
Tb401 Tb 0.93609 0.57473 0.81231 0.0
C402 C 0.91064 0.61621 1.02353 0.0
C403 C 0.9155 0.61165 0.09279 0.0
C404 C 0.89344 0.58291 0.11951 0.0
C405 C 0.89806 0.57946 0.18535 0.0
C406 C 0.92477 0.60464 0.22604 0.0
C407 C 0.94677 0.63339 0.19929 0.0
C408 C 0.94219 0.63681 0.13343 0.0
C409 C 0.93578 0.63719 0.81918 0.0
C410 C 0.98397 0.60064 0.94406 0.0
C411 C 0.94868 0.56567 0.69831 0.0
C412 C 0.94383 0.57341 0.63136 0.0
C413 C 0.96618 0.60369 0.60983 0.0
C414 C 0.96311 0.60997 0.54537 0.0
C415 C 0.93792 0.58592 0.50044 0.0
C416 C 0.91522 0.55583 0.52203 0.0
C417 C 0.91822 0.54959 0.58666 0.0
C418 C 0.92305 0.52888 0.89291 0.0
C419 C 0.86045 0.56035 0.81715 0.0
O420 O 0.88659 0.59158 0.98663 0.0
O421 O 0.9372 0.63091 0.99375 0.0
O422 O 0.95006 0.62309 0.84263 0.0
O423 O 0.91003 0.62775 0.85012 0.0
O424 O 0.9561 0.59108 0.96807 0.0
O425 O 0.98377 0.60061 0.87948 0.0
O426 O 0.96877 0.59011 0.74053 0.0
O427 O 0.92272 0.54452 0.72423 0.0
O428 O 0.90625 0.54343 0.88373 0.0
O429 O 0.94716 0.54096 0.85747 0.0
O430 O 0.88553 0.56903 0.78033 0.0
O431 O 0.86728 0.56219 0.87941 0.0
H432 H 0.87254 0.56305 0.08973 0.0
H433 H 0.88078 0.55693 0.20441 0.0
H434 H 0.96725 0.6535 0.22943 0.0
H435 H 0.95944 0.65929 0.11427 0.0
H436 H 0.98644 0.62249 0.64237 0.0
H437 H 0.98061 0.63364 0.53062 0.0
H438 H 0.89561 0.53675 0.48845 0.0
H439 H 0.90086 0.52584 0.60128 0.0
Tb440 Tb 0.45119 0.3359 0.9112 0.0
Tb441 Tb 0.46337 0.37211 0.81391 0.0
C442 C 0.43441 0.3073 1.01352 0.0
C443 C 0.4385 0.31626 0.08407 0.0
C444 C 0.46592 0.34518 0.11396 0.0
C445 C 0.46908 0.35298 0.18118 0.0
C446 C 0.44481 0.33208 0.21947 0.0
C447 C 0.41711 0.30351 0.18905 0.0
C448 C 0.41406 0.29565 0.12199 0.0
C449 C 0.40288 0.30845 0.80735 0.0
C450 C 0.44348 0.39476 0.94363 0.0
C451 C 0.46617 0.39321 0.70329 0.0
C452 C 0.46276 0.38212 0.63377 0.0
C453 C 0.43558 0.35259 0.60497 0.0
C454 C 0.43264 0.34368 0.53823 0.0
C455 C 0.45699 0.36393 0.49942 0.0
C456 C 0.48411 0.39335 0.52848 0.0
C457 C 0.48693 0.40234 0.59492 0.0
C458 C 0.51532 0.40757 0.89959 0.0
C459 C 0.48156 0.31285 0.81848 0.0
O460 O 0.46065 0.3126 0.98613 0.0
O461 O 0.41648 0.31591 0.97884 0.0
O462 O 0.41691 0.33694 0.83564 0.0
O463 O 0.41619 0.29401 0.83708 0.0
O464 O 0.45596 0.37811 0.96801 0.0
O465 O 0.43992 0.39354 0.87875 0.0
O466 O 0.43978 0.38028 0.73377 0.0
O467 O 0.49154 0.39634 0.73871 0.0
O468 O 0.5005 0.37601 0.88672 0.0
O469 O 0.49789 0.4178 0.86969 0.0
O470 O 0.47079 0.32864 0.78069 0.0
O471 O 0.48199 0.31792 0.88079 0.0
H472 H 0.48484 0.36168 0.0854 0.0
H473 H 0.49035 0.3755 0.20317 0.0
H474 H 0.39804 0.28699 0.21732 0.0
H475 H 0.39258 0.27336 0.09968 0.0
H476 H 0.4166 0.3365 0.63379 0.0
H477 H 0.41149 0.32085 0.51702 0.0
H478 H 0.50292 0.40971 0.49957 0.0
H479 H 0.50793 0.42533 0.61597 0.0
Tb480 Tb 0.3827 0.93172 0.25869 0.0
Tb481 Tb 0.3425 0.90445 0.13997 0.0
C482 C 0.40926 0.96121 0.37075 0.0
C483 C 0.40108 0.95271 0.43787 0.0
C484 C 0.36819 0.93318 0.45126 0.0
C485 C 0.36049 0.92664 0.51515 0.0
C486 C 0.38548 0.93917 0.56726 0.0
C487 C 0.41839 0.95857 0.55367 0.0
C488 C 0.42607 0.96529 0.48973 0.0
C489 C 0.40285 0.89636 0.19184 0.0
C490 C 0.32129 0.85781 0.24531 0.0
C491 C 0.31693 0.88554 1.02366 0.0
C492 C 0.32821 0.89405 0.95833 0.0
C493 C 0.36185 0.91155 0.94914 0.0
C494 C 0.37193 0.91967 0.88702 0.0
C495 C 0.34862 0.91013 0.83238 0.0
C496 C 0.31497 0.89284 0.84212 0.0
C497 C 0.30493 0.88495 0.90428 0.0
C498 C 0.31719 0.9267 0.23329 0.0
C499 C 0.40329 0.97342 0.13135 0.0
O500 O 0.38807 0.96525 0.33542 0.0
O501 O 0.41934 0.94442 0.33714 0.0
O502 O 0.39348 0.91524 0.16847 0.0
O503 O 0.39669 0.89439 0.25192 0.0
O504 O 0.33794 0.88576 0.28443 0.0
O505 O 0.32641 0.8589 0.18364 0.0
O506 O 0.32952 0.87102 0.0573 0.0
O507 O 0.31539 0.90817 0.05976 0.0
O508 O 0.34595 0.93961 0.21663 0.0
O509 O 0.30059 0.89988 0.19484 0.0
O510 O 0.37752 0.94811 0.09999 0.0
O511 O 0.41058 0.97333 0.19527 0.0
H512 H 0.34833 0.92318 0.41234 0.0
H513 H 0.33493 0.91154 0.52375 0.0
H514 H 0.43819 0.96908 0.59269 0.0
H515 H 0.45156 0.98065 0.48089 0.0
H516 H 0.38038 0.91898 0.98993 0.0
H517 H 0.39803 0.93372 0.88197 0.0
H518 H 0.29629 0.88498 0.80141 0.0
H519 H 0.27886 0.87156 0.91007 0.0
Tb520 Tb 0.14246 0.45276 0.16334 0.0
Tb521 Tb 0.13318 0.48169 0.27645 0.0
C522 C 0.13446 0.4205 0.0552 0.0
C523 C 0.13715 0.42716 0.98593 0.0
C524 C 0.11184 0.40499 0.93876 0.0
C525 C 0.11207 0.41169 0.87364 0.0
C526 C 0.13779 0.44067 0.8539 0.0
C527 C 0.1634 0.46269 0.90106 0.0
C528 C 0.16304 0.45608 0.96643 0.0
C529 C 0.20007 0.4876 0.2343 0.0
C530 C 0.16008 0.52887 0.1745 0.0
C531 C 0.12843 0.50051 0.38967 0.0
C532 C 0.1301 0.49061 0.45648 0.0
C533 C 0.15744 0.51073 0.50177 0.0
C534 C 0.15911 0.50208 0.56506 0.0
C535 C 0.13348 0.47302 0.58493 0.0
C536 C 0.10595 0.45304 0.53982 0.0
C537 C 0.10423 0.46173 0.47657 0.0
C538 C 0.0852 0.46095 0.17459 0.0
C539 C 0.12025 0.41124 0.2916 0.0
O540 O 0.11124 0.42285 0.08143 0.0
O541 O 0.16137 0.43333 0.09505 0.0
O542 O 0.17211 0.46962 0.25609 0.0
O543 O 0.19439 0.48908 0.17301 0.0
O544 O 0.14742 0.50105 0.13475 0.0
O545 O 0.16444 0.5271 0.23682 0.0
O546 O 0.15581 0.51401 0.36163 0.0
O547 O 0.10317 0.48 0.34876 0.0
O548 O 0.09949 0.44686 0.19752 0.0
O549 O 0.09666 0.48804 0.21175 0.0
O550 O 0.122 0.43753 0.3194 0.0
O551 O 0.12732 0.41102 0.22945 0.0
H552 H 0.09143 0.38269 0.95259 0.0
H553 H 0.09199 0.39422 0.83867 0.0
H554 H 0.18326 0.48551 0.88773 0.0
H555 H 0.18259 0.47389 1.00184 0.0
H556 H 0.17753 0.53339 0.48839 0.0
H557 H 0.18029 0.51855 0.59886 0.0
H558 H 0.08577 0.43047 0.5533 0.0
H559 H 0.08262 0.44566 0.4434 0.0
Tb560 Tb 0.58248 0.67191 0.24657 0.0
Tb561 Tb 0.59245 0.70688 0.14197 0.0
C562 C 0.58617 0.64741 0.35055 0.0
C563 C 0.58242 0.65375 0.41971 0.0
C564 C 0.59942 0.68583 0.45107 0.0
C565 C 0.59804 0.69161 0.51737 0.0
C566 C 0.57942 0.66559 0.55434 0.0
C567 C 0.56177 0.63355 0.52268 0.0
C568 C 0.56344 0.6277 0.45616 0.0
C569 C 0.52398 0.64986 0.18112 0.0
C570 C 0.57105 0.73396 0.24748 0.0
C571 C 0.60016 0.73286 0.03622 0.0
C572 C 0.59355 0.72164 0.96607 0.0
C573 C 0.56958 0.68935 0.94245 0.0
C574 C 0.56533 0.67881 0.87608 0.0
C575 C 0.58479 0.70044 0.83217 0.0
C576 C 0.60817 0.7329 0.85592 0.0
C577 C 0.6126 0.74331 0.92219 0.0
C578 C 0.64498 0.73258 0.23824 0.0
C579 C 0.59814 0.64664 0.10922 0.0
O580 O 0.61085 0.67127 0.32705 0.0
O581 O 0.56002 0.63395 0.30874 0.0
O582 O 0.55083 0.65716 0.15621 0.0
O583 O 0.53171 0.66049 0.24201 0.0
O584 O 0.58476 0.72002 0.28274 0.0
O585 O 0.56184 0.72222 0.18682 0.0
O586 O 0.5746 0.7247 0.06864 0.0
O587 O 0.62273 0.72936 0.06843 0.0
O588 O 0.62714 0.70382 0.21243 0.0
O589 O 0.63325 0.74861 0.20952 0.0
O590 O 0.59053 0.66707 0.08549 0.0
O591 O 0.59698 0.64367 0.17363 0.0
H592 H 0.61436 0.70659 0.42469 0.0
H593 H 0.61213 0.71655 0.54 0.0
H594 H 0.54655 0.61298 0.54917 0.0
H595 H 0.55012 0.60277 0.43331 0.0
H596 H 0.55462 0.67214 0.97543 0.0
H597 H 0.5469 0.65376 0.85909 0.0
H598 H 0.62359 0.75007 0.82334 0.0
H599 H 0.63128 0.76827 0.93935 0.0
Tb600 Tb 0.38205 0.47064 0.2677 0.0
Tb601 Tb 0.33999 0.44601 0.15709 0.0
C602 C 0.41067 0.48116 0.38114 0.0
C603 C 0.40058 0.47541 0.44835 0.0
C604 C 0.39516 0.49783 0.48524 0.0
C605 C 0.38629 0.49253 0.54877 0.0
C606 C 0.38254 0.46467 0.57726 0.0
C607 C 0.38851 0.44255 0.5408 0.0
C608 C 0.39739 0.44783 0.47725 0.0
C609 C 0.40381 0.4479 0.16776 0.0
C610 C 0.31968 0.40524 0.28127 0.0
C611 C 0.31664 0.42869 0.03888 0.0
C612 C 0.32886 0.43493 0.9734 0.0
C613 C 0.33275 0.41134 0.93683 0.0
C614 C 0.34192 0.41601 0.87331 0.0
C615 C 0.34695 0.44418 0.84444 0.0
C616 C 0.34371 0.46805 0.88146 0.0
C617 C 0.3347 0.46346 0.94494 0.0
C618 C 0.3103 0.46394 0.24085 0.0
C619 C 0.40281 0.52223 0.17724 0.0
O620 O 0.40699 0.50309 0.35183 0.0
O621 O 0.40227 0.4552 0.34147 0.0
O622 O 0.37578 0.43474 0.18812 0.0
O623 O 0.4213 0.47482 0.20527 0.0
O624 O 0.34 0.43422 0.31054 0.0
O625 O 0.31774 0.40191 0.21614 0.0
O626 O 0.32541 0.41197 0.07466 0.0
O627 O 0.31733 0.45291 0.07362 0.0
O628 O 0.34152 0.47996 0.23441 0.0
O629 O 0.29662 0.43773 0.20096 0.0
O630 O 0.38367 0.49547 0.1355 0.0
O631 O 0.40162 0.51898 0.23923 0.0
H632 H 0.39794 0.51964 0.46522 0.0
H633 H 0.38278 0.51057 0.57592 0.0
H634 H 0.38582 0.42081 0.56108 0.0
H635 H 0.40174 0.43023 0.45068 0.0
H636 H 0.32814 0.38893 0.95692 0.0
H637 H 0.34418 0.39715 0.84611 0.0
H638 H 0.34805 0.49032 0.86118 0.0
H639 H 0.33188 0.48216 0.97131 0.0
Tb640 Tb 0.59584 0.90667 0.14531 0.0
Tb641 Tb 0.58851 0.93605 0.25798 0.0
C642 C 0.60162 0.88706 1.03358 0.0
C643 C 0.59821 0.89477 0.96608 0.0
C644 C 0.57728 0.90671 0.94712 0.0
C645 C 0.57573 0.91523 0.8836 0.0
C646 C 0.59504 0.91195 0.83771 0.0
C647 C 0.61574 0.89978 0.85694 0.0
C648 C 0.61738 0.89141 0.92037 0.0
C649 C 0.64784 0.93181 0.24135 0.0
C650 C 0.60509 0.97479 0.12574 0.0
C651 C 0.5967 0.96701 0.3677 0.0
C652 C 0.59463 0.95825 0.43599 0.0
C653 C 0.61208 0.94359 0.46111 0.0
C654 C 0.6115 0.9369 0.52617 0.0
C655 C 0.59329 0.94441 0.56819 0.0
C656 C 0.57548 0.95869 0.54284 0.0
C657 C 0.57631 0.96569 0.47763 0.0
C658 C 0.52946 0.89903 0.19275 0.0
C659 C 0.57349 0.86082 0.24821 0.0
O660 O 0.57478 0.87222 0.06297 0.0
O661 O 0.62608 0.91047 0.07191 0.0
O662 O 0.63145 0.9441 0.21963 0.0
O663 O 0.63489 0.9036 0.20815 0.0
O664 O 0.59909 0.94681 0.09791 0.0
O665 O 0.60222 0.97721 0.19006 0.0
O666 O 0.62016 0.96661 0.33837 0.0
O667 O 0.56945 0.95428 0.32896 0.0
O668 O 0.5563 0.9175 0.16793 0.0
O669 O 0.53711 0.8984 0.25343 0.0
O670 O 0.58755 0.88925 0.28657 0.0
O671 O 0.56522 0.86198 0.18749 0.0
H672 H 0.56234 0.9097 0.98151 0.0
H673 H 0.5592 0.9241 0.87023 0.0
H674 H 0.6311 0.89716 0.82305 0.0
H675 H 0.6339 0.88254 0.93394 0.0
H676 H 0.62654 0.9375 0.4307 0.0
H677 H 0.62571 0.92613 0.54379 0.0
H678 H 0.56055 0.96414 0.57314 0.0
H679 H 0.56266 0.977 0.45976 0.0
Tb680 Tb 0.12923 0.6729 0.28129 0.0
Tb681 Tb 0.14187 0.71148 0.18218 0.0
C682 C 0.11604 0.64449 0.38459 0.0
C683 C 0.11902 0.65368 0.45488 0.0
C684 C 0.13776 0.68647 0.48152 0.0
C685 C 0.13989 0.69453 0.54842 0.0
C686 C 0.12333 0.66996 0.58989 0.0
C687 C 0.10483 0.63714 0.56287 0.0
C688 C 0.10259 0.62914 0.49601 0.0
C689 C 0.08146 0.64738 0.17725 0.0
C690 C 0.11795 0.73045 0.30987 0.0
C691 C 0.14687 0.73479 0.07342 0.0
C692 C 0.14302 0.72391 1.00387 0.0
C693 C 0.12465 0.69062 0.98038 0.0
C694 C 0.12122 0.68115 0.91375 0.0
C695 C 0.13607 0.70482 0.86963 0.0
C696 C 0.15467 0.73805 0.89372 0.0
C697 C 0.15804 0.74747 0.96016 0.0
C698 C 0.19197 0.74479 0.27329 0.0
C699 C 0.15858 0.65137 0.18186 0.0
O700 O 0.14344 0.6539 0.35815 0.0
O701 O 0.09525 0.64893 0.34843 0.0
O702 O 0.09628 0.67567 0.20624 0.0
O703 O 0.09327 0.63156 0.20692 0.0
O704 O 0.13008 0.71373 0.33564 0.0
O705 O 0.11636 0.73083 0.24523 0.0
O706 O 0.12023 0.72237 0.10308 0.0
O707 O 0.17134 0.73594 0.10865 0.0
O708 O 0.17748 0.71367 0.25634 0.0
O709 O 0.17546 0.75586 0.24289 0.0
O710 O 0.14793 0.6678 0.14593 0.0
O711 O 0.1594 0.65545 0.24459 0.0
H712 H 0.15078 0.70582 0.45076 0.0
H713 H 0.15428 0.72003 0.56769 0.0
H714 H 0.09242 0.61755 0.59353 0.0
H715 H 0.08812 0.60368 0.47641 0.0
H716 H 0.113 0.67203 1.01346 0.0
H717 H 0.10721 0.65532 0.89683 0.0
H718 H 0.16624 0.75683 0.861 0.0
H719 H 0.17231 0.77327 0.97744 0.0
C720 C 0.10939 0.38933 0.40343 0.0
C721 C 0.10966 0.38299 0.33533 0.0
C722 C 0.09613 0.3643 0.44637 0.0
C723 C 0.08224 0.33095 0.4244 0.0
H724 H 0.11911 0.41424 0.42438 0.0
H725 H 0.09588 0.37122 0.49694 0.0
S726 S 0.07994 0.30022 0.25282 0.0
N727 N 0.09676 0.34016 0.25009 0.0
N728 N 0.0725 0.29339 0.32902 0.0
C729 C 0.08379 0.32425 0.35692 0.0
C730 C 0.09729 0.34993 0.3132 0.0
C731 C 0.69788 0.73222 0.39092 0.0
C732 C 0.70939 0.76294 0.4269 0.0
C733 C 0.67834 0.72313 0.32981 0.0
C734 C 0.66806 0.74365 0.3017 0.0
H735 H 0.70442 0.71509 0.4097 0.0
H736 H 0.67115 0.69957 0.3044 0.0
S737 S 0.69433 0.82798 0.37125 0.0
N738 N 0.71082 0.81478 0.42569 0.0
N739 N 0.67392 0.79756 0.31345 0.0
C740 C 0.68012 0.77465 0.33636 0.0
C741 C 0.70041 0.78412 0.39806 0.0
C742 C 0.31662 0.9808 0.38196 0.0
C743 C 0.2856 0.96189 0.40555 0.0
C744 C 0.32633 0.9695 0.327 0.0
C745 C 0.30585 0.93833 0.2921 0.0
H746 H 0.33313 1.00544 0.40448 0.0
H747 H 0.34983 0.98607 0.31035 0.0
S748 S 0.22026 0.88064 0.32684 0.0
N749 N 0.23312 0.91137 0.38404 0.0
N750 N 0.25151 0.88988 0.28346 0.0
C751 C 0.27449 0.91939 0.31434 0.0
C752 C 0.26443 0.93113 0.36992 0.0
C753 C 0.34904 0.06018 0.67723 0.0
C754 C 0.33525 0.07801 0.64999 0.0
C755 C 0.37064 0.07194 0.73604 0.0
C756 C 0.3807 0.10275 0.77042 0.0
H757 H 0.34306 0.03675 0.65296 0.0
H758 H 0.37952 0.05655 0.75465 0.0
S759 S 0.34559 0.15507 0.73048 0.0
N760 N 0.32978 0.12592 0.66949 0.0
N761 N 0.36987 0.14756 0.77807 0.0
C762 C 0.36552 0.11971 0.74597 0.0
C763 C 0.34334 0.10768 0.68645 0.0
C764 C 0.92896 0.26699 0.7168 0.0
C765 C 0.94889 0.29881 0.74968 0.0
C766 C 0.93886 0.25548 0.66216 0.0
C767 C 0.96921 0.27505 0.63642 0.0
H768 H 0.90533 0.25072 0.73328 0.0
H769 H 0.92239 0.23074 0.63986 0.0
S770 S 0.03048 0.36072 0.7021 0.0
N771 N 1.00108 0.34952 0.75114 0.0
N772 N 1.01845 0.32888 0.64813 0.0
C773 C 0.98916 0.30703 0.66839 0.0
C774 C 0.9794 0.31851 0.72473 0.0
C775 C 0.78421 0.69135 0.6732 0.0
C776 C 0.76279 0.70005 0.64038 0.0
C777 C 0.77435 0.66988 0.72382 0.0
C778 C 0.74269 0.65638 0.74634 0.0
H779 H 0.80934 0.7021 0.66105 0.0
H780 H 0.79213 0.66444 0.74663 0.0
S781 S 0.67787 0.6734 0.68142 0.0
N782 N 0.70853 0.69396 0.63718 0.0
N783 N 0.6906 0.65527 0.73199 0.0
C784 C 0.72123 0.66523 0.71432 0.0
C785 C 0.73109 0.68655 0.66209 0.0
C786 C 0.98404 0.68662 0.67904 0.0
C787 C 0.96826 0.70405 0.65969 0.0
C788 C 0.97353 0.66539 0.72981 0.0
C789 C 0.94639 0.65992 0.7642 0.0
H790 H 1.00581 0.6906 0.65682 0.0
H791 H 0.98741 0.65368 0.74327 0.0
S792 S 0.89729 0.70067 0.7357 0.0
N793 N 0.92473 0.71514 0.68245 0.0
N794 N 0.90448 0.67496 0.77463 0.0
C795 C 0.93031 0.67706 0.745 0.0
C796 C 0.94135 0.69907 0.69411 0.0
C797 C 0.34133 0.30083 0.66307 0.0
C798 C 0.3325 0.27094 0.62618 0.0
C799 C 0.36343 0.31249 0.72118 0.0
C800 C 0.3789 0.2955 0.74502 0.0
H801 H 0.33096 0.31548 0.64716 0.0
H802 H 0.36848 0.33517 0.74754 0.0
S803 S 0.37228 0.22177 0.65646 0.0
N804 N 0.34633 0.22839 0.61213 0.0
N805 N 0.38724 0.24979 0.71944 0.0
C806 C 0.37197 0.26689 0.70597 0.0
C807 C 0.34934 0.25497 0.64719 0.0
C808 C 0.77429 0.12559 0.75024 0.0
C809 C 0.74563 0.10624 0.7813 0.0
C810 C 0.78321 0.11253 0.69625 0.0
C811 C 0.76392 0.07935 0.6702 0.0
H812 H 0.79044 0.15095 0.76869 0.0
H813 H 0.80617 0.12827 0.67661 0.0
S814 S 0.68886 1.01692 0.7378 0.0
N815 N 0.69977 0.05101 0.78394 0.0
N816 N 0.71596 0.02715 0.68392 0.0
C817 C 0.73562 0.05978 0.70164 0.0
C818 C 0.72665 0.07293 0.75638 0.0
C819 C 0.68926 0.97634 0.32934 0.0
C820 C 0.66982 0.94283 0.30588 0.0
C821 C 0.70952 0.98701 0.38965 0.0
C822 C 0.71228 0.96497 0.42964 0.0
H823 H 0.68884 0.99466 0.30079 0.0
H824 H 0.72327 1.01294 0.40476 0.0
S825 S 0.66056 0.87449 0.39924 0.0
N826 N 0.65097 0.88759 0.33382 0.0
N827 N 0.68905 0.90744 0.445 0.0
C828 C 0.69173 0.93137 0.40823 0.0
C829 C 0.67081 0.92046 0.34715 0.0
C830 C 0.06281 0.73661 0.43308 0.0
C831 C 0.08306 0.76732 0.46974 0.0
C832 C 0.07322 0.72629 0.37799 0.0
C833 C 0.10456 0.74589 0.35624 0.0
H834 H 0.03863 0.72014 0.44738 0.0
H835 H 0.05693 0.70202 0.35362 0.0
S836 S 0.16885 0.82658 0.43859 0.0
N837 N 0.13716 0.8163 0.4812 0.0
N838 N 0.1567 0.79653 0.38017 0.0
C839 C 0.1253 0.77624 0.39322 0.0
C840 C 0.11462 0.78696 0.44892 0.0
C841 C 0.28725 0.34458 0.30355 0.0
C842 C 0.30104 0.37792 0.32507 0.0
C843 C 0.27408 0.31982 0.3469 0.0
C844 C 0.27397 0.32652 0.41497 0.0
H845 H 0.28753 0.33748 0.25311 0.0
H846 H 0.26449 0.29489 0.32623 0.0
S847 S 0.30299 0.40943 0.49579 0.0
N848 N 0.31047 0.41591 0.41951 0.0
N849 N 0.28662 0.3696 0.49944 0.0
C850 C 0.28633 0.3596 0.43662 0.0
C851 C 0.29955 0.38498 0.39239 0.0
C852 C 1.00193 0.41235 0.06961 0.0
C853 C 1.00906 0.41708 1.00392 0.0
C854 C 0.02634 0.42715 0.12319 0.0
C855 C 0.05969 0.44801 0.11528 0.0
H856 H 0.97695 0.39638 0.08057 0.0
H857 H 1.01895 0.4217 0.17159 0.0
S858 S 0.09257 0.4704 0.95488 0.0
N859 N 0.05272 0.44543 0.93527 0.0
N860 N 0.09852 0.47314 1.03494 0.0
C861 C 0.06742 0.45357 0.05008 0.0
C862 C 0.0423 0.43828 0.99504 0.0
C863 C 0.61766 0.58517 1.01535 0.0
C864 C 0.62828 0.59931 0.95613 0.0
C865 C 0.608 0.5998 0.06514 0.0
C866 C 0.60927 0.62994 0.05915 0.0
H867 H 0.6176 0.56281 1.02417 0.0
H868 H 0.59981 0.58753 0.1086 0.0
S869 S 0.64049 0.67984 0.91829 0.0
N870 N 0.64157 0.6463 0.89762 0.0
N871 N 0.62594 0.6748 0.9898 0.0
C872 C 0.62085 0.64461 1.00049 0.0
C873 C 0.62959 0.62917 0.94962 0.0
C874 C 0.44444 0.02157 0.98572 0.0
C875 C 0.43834 0.04796 0.98982 0.0
C876 C 0.43545 0.99894 1.03433 0.0
C877 C 0.42114 1.0021 0.09102 0.0
H878 H 0.4561 0.01826 0.94484 0.0
H879 H 0.43907 0.9782 1.02666 0.0
S880 S 0.39523 0.0633 0.12151 0.0
N881 N 0.41271 0.07258 0.05319 0.0
N882 N 0.39848 0.032 0.14363 0.0
C883 C 0.41458 0.0279 0.09495 0.0
C884 C 0.42253 0.05015 0.04507 0.0
C885 C 0.61879 0.05102 1.03571 0.0
C886 C 0.63265 0.04788 0.97835 0.0
C887 C 0.61015 0.02834 0.08418 0.0
C888 C 0.61609 1.00187 0.07911 0.0
H889 H 0.61522 0.07178 0.04395 0.0
H890 H 0.5989 0.03169 0.12573 0.0
S891 S 0.65791 0.98642 0.94484 0.0
N892 N 0.65469 1.01788 0.92383 0.0
N893 N 0.6409 0.97703 1.01361 0.0
C894 C 0.63129 0.99957 1.02289 0.0
C895 C 0.63896 0.02193 0.97328 0.0
C896 C 0.04748 0.6058 0.07815 0.0
C897 C 0.05835 0.63633 0.11427 0.0
C898 C 0.02585 0.59538 1.01953 0.0
C899 C 1.01422 0.61514 0.99315 0.0
H900 H 0.05488 0.58924 0.09643 0.0
H901 H 1.01696 0.57098 0.99631 0.0
S902 S 0.03225 0.69583 0.07066 0.0
N903 N 0.05313 0.68493 0.12016 0.0
N904 N 1.01414 0.66613 1.01077 0.0
C905 C 1.02484 0.64559 1.02891 0.0
C906 C 0.04636 0.65595 0.0888 0.0
C907 C 0.39119 0.40754 0.06635 0.0
C908 C 0.41396 0.43608 0.10726 0.0
C909 C 0.40013 0.39612 1.01021 0.0
C910 C 0.43254 0.41226 0.99159 0.0
H911 H 0.36629 0.39305 0.07882 0.0
H912 H 0.38171 0.37338 0.98291 0.0
S913 S 0.50289 0.48603 0.08429 0.0
N914 N 0.47133 0.47921 0.12508 0.0
N915 N 0.488 0.45726 1.02256 0.0
C916 C 0.45567 0.44041 1.03261 0.0
C917 C 0.4465 0.45238 0.08915 0.0
C918 C 0.12606 0.25188 0.46896 0.0
C919 C 0.09701 0.2316 0.49826 0.0
C920 C 0.15364 0.24707 0.47134 0.0
C921 C 0.1542 0.22202 0.50455 0.0
H922 H 0.12832 0.2731 0.4471 0.0
H923 H 0.17558 0.26464 0.45087 0.0
S924 S 0.08438 0.161 0.58762 0.0
N925 N 0.07057 0.18432 0.55918 0.0
N926 N 0.1218 0.1755 0.56472 0.0
C927 C 0.12474 0.20064 0.5315 0.0
C928 C 0.09648 0.20531 0.5282 0.0
C929 C 0.79252 0.91842 0.44895 0.0
C930 C 0.81648 0.94675 0.48917 0.0
C931 C 0.79203 0.88773 0.4476 0.0
C932 C 0.81513 0.88348 0.48705 0.0
H933 H 0.77255 0.91918 0.42191 0.0
H934 H 0.77198 0.86664 0.41888 0.0
S935 S 0.88481 0.95028 0.59589 0.0
N936 N 0.86554 0.96828 0.56487 0.0
N937 N 0.86419 0.9119 0.56326 0.0
C938 C 0.8401 0.91213 0.52414 0.0
C939 C 0.84084 0.94312 0.52498 0.0
C940 C 0.1127 0.91247 0.54212 0.0
C941 C 0.0985 0.8834 0.49872 0.0
C942 C 0.14386 0.94049 0.53551 0.0
C943 C 0.16315 0.94141 0.48514 0.0
H944 H 0.10033 0.91307 0.58412 0.0
H945 H 0.15404 0.96071 0.57329 0.0
S946 S 0.13731 0.87345 0.35493 0.0
N947 N 0.1062 0.85898 0.40017 0.0
N948 N 0.16438 0.91064 0.38884 0.0
C949 C 0.14863 0.9132 0.43961 0.0
C950 C 0.11661 0.88474 0.44584 0.0
C951 C 0.252 0.14786 0.63285 0.0
C952 C 0.22729 0.15029 0.59502 0.0
C953 C 0.25215 0.11761 0.634 0.0
C954 C 0.22792 0.08826 0.59702 0.0
H955 H 0.27268 0.1699 0.65797 0.0
H956 H 0.27266 0.11782 0.66041 0.0
S957 S 0.15526 0.07988 0.49762 0.0
N958 N 0.17577 0.11891 0.52615 0.0
N959 N 0.17659 0.06368 0.52742 0.0
C960 C 0.20195 0.0901 0.56349 0.0
C961 C 0.20157 0.12046 0.56262 0.0
C962 C 0.89715 0.1277 0.64375 0.0
C963 C 0.88589 0.09708 0.60715 0.0
C964 C 0.92869 0.15577 0.63926 0.0
C965 C 0.95069 0.15519 0.5965 0.0
H966 H 0.88036 0.13073 0.67291 0.0
H967 H 0.93463 0.17879 0.66547 0.0
S968 S 0.9347 0.08126 0.49159 0.0
N969 N 0.90098 0.0682 0.52903 0.0
N970 N 0.95911 0.12013 0.51944 0.0
C971 C 0.94042 0.1243 0.56212 0.0
C972 C 0.90857 0.09565 0.56764 0.0
C973 C 0.9212 0.78293 0.59793 0.0
C974 C 0.94886 0.80717 0.57035 0.0
C975 C 0.89059 0.78248 0.59613 0.0
C976 C 0.88576 0.80627 0.56654 0.0
H977 H 0.92216 0.76229 0.61551 0.0
H978 H 0.86963 0.76151 0.61248 0.0
S979 S 0.95009 0.87569 0.48881 0.0
N980 N 0.96894 0.85626 0.5145 0.0
N981 N 0.91245 0.85549 0.51118 0.0
C982 C 0.91377 0.83156 0.54223 0.0
C983 C 0.94479 0.83199 0.54406 0.0
C984 C 0.79984 0.53288 0.82977 0.0
C985 C 0.82622 0.55446 0.79578 0.0
C986 C 0.76991 0.53311 0.8292 0.0
C987 C 0.76402 0.55472 0.79411 0.0
H988 H 0.80315 0.51692 0.86108 0.0
H989 H 0.75177 0.51726 0.85985 0.0
S990 S 0.82352 0.61508 0.69259 0.0
N991 N 0.84327 0.59723 0.72257 0.0
N992 N 0.78701 0.59727 0.72066 0.0
C993 C 0.78919 0.57504 0.75614 0.0
C994 C 0.82011 0.57499 0.75712 0.0
C995 C 0.46264 0.25545 0.76058 0.0
C996 C 0.48727 0.28473 0.79705 0.0
C997 C 0.46203 0.22489 0.76258 0.0
C998 C 0.48643 0.22215 0.80066 0.0
H999 H 0.44241 0.25558 0.73401 0.0
H1000 H 0.44102 0.20294 0.73803 0.0
S1001 S 0.55968 0.29229 0.89581 0.0
N1002 N 0.53885 0.30895 0.86572 0.0
N1003 N 0.53839 0.25312 0.86839 0.0
C1004 C 0.51272 0.25191 0.83209 0.0
C1005 C 0.51305 0.28257 0.83045 0.0
C1006 C 0.76906 0.25272 0.83736 0.0
C1007 C 0.76177 0.22293 0.80276 0.0
C1008 C 0.79911 0.28226 0.83502 0.0
C1009 C 0.8243 0.28427 0.79832 0.0
H1010 H 0.75202 0.25291 0.86997 0.0
H1011 H 0.80365 0.30344 0.86652 0.0
S1012 S 0.81713 0.21461 0.69241 0.0
N1013 N 0.7816 0.19849 0.72437 0.0
N1014 N 0.83837 0.25356 0.72195 0.0
C1015 C 0.8166 0.25531 0.75956 0.0
C1016 C 0.78545 0.22496 0.76127 0.0
C1017 C 0.93053 0.48871 0.95693 0.0
C1018 C 0.91122 0.49392 0.90936 0.0
C1019 C 0.93012 0.45846 0.95812 0.0
C1020 C 0.91043 0.43128 0.91176 0.0
H1021 H 0.94847 0.50924 0.99035 0.0
H1022 H 0.94785 0.45743 0.9923 0.0
S1023 S 0.85482 0.43113 0.77648 0.0
N1024 N 0.871 0.46817 0.81506 0.0
N1025 N 0.87032 0.41199 0.81718 0.0
C1026 C 0.88958 0.43548 0.86605 0.0
C1027 C 0.88997 0.4664 0.86486 0.0
C1028 C 0.56478 0.46385 0.93736 0.0
C1029 C 0.55246 0.43179 0.90639 0.0
C1030 C 0.59593 0.491 0.92688 0.0
C1031 C 0.61673 0.48795 0.88416 0.0
H1032 H 0.54898 0.46863 0.96632 0.0
H1033 H 0.60224 0.51513 0.94763 0.0
S1034 S 0.59752 0.40969 0.79202 0.0
N1035 N 0.56523 0.39898 0.83309 0.0
N1036 N 0.62261 0.4493 0.81249 0.0
C1037 C 0.60548 0.45572 0.85561 0.0
C1038 C 0.57394 0.428 0.86693 0.0
C1039 C 0.59479 0.13143 0.9183 0.0
C1040 C 0.62234 0.15659 0.8919 0.0
C1041 C 0.56433 0.13126 0.91949 0.0
C1042 C 0.55993 0.1563 0.89457 0.0
H1043 H 0.59601 0.11061 0.93426 0.0
H1044 H 0.5435 0.11027 0.93608 0.0
S1045 S 0.62494 0.22924 0.82615 0.0
N1046 N 0.64317 0.20826 0.84488 0.0
N1047 N 0.58718 0.20805 0.8474 0.0
C1048 C 0.58792 0.18232 0.87183 0.0
C1049 C 0.61859 0.18244 0.87042 0.0
C1050 C 0.46828 0.87051 0.20185 0.0
C1051 C 0.49571 0.8952 0.17492 0.0
C1052 C 0.43793 0.86992 0.20185 0.0
C1053 C 0.43278 0.894 0.17496 0.0
H1054 H 0.47084 0.8522 0.22664 0.0
H1055 H 0.41868 0.85116 0.22654 0.0
S1056 S 0.49565 0.96356 0.09465 0.0
N1057 N 0.51479 0.94389 0.11731 0.0
N1058 N 0.45806 0.94279 0.11724 0.0
C1059 C 0.45935 0.91798 0.14452 0.0
C1060 C 0.49056 0.91858 0.14452 0.0
C1061 C 0.18939 0.62072 0.19126 0.0
C1062 C 0.16406 0.6236 0.15754 0.0
C1063 C 0.18947 0.5908 0.19033 0.0
C1064 C 0.16422 0.56145 0.15562 0.0
H1065 H 0.20825 0.6414 0.22316 0.0
H1066 H 0.20854 0.59019 0.22114 0.0
S1067 S 0.09318 0.55534 0.05395 0.0
N1068 N 0.11409 0.59426 0.08365 0.0
N1069 N 0.11398 0.53829 0.08249 0.0
C1070 C 0.13991 0.56437 0.1177 0.0
C1071 C 0.13991 0.59518 0.11849 0.0
C1072 C 0.46397 0.61448 0.19815 0.0
C1073 C 0.49046 0.61892 0.16295 0.0
C1074 C 0.43465 0.58385 0.19681 0.0
C1075 C 0.42942 0.55544 0.15958 0.0
H1076 H 0.46667 0.6346 0.23061 0.0
H1077 H 0.41648 0.58199 0.22862 0.0
S1078 S 0.48896 0.55365 0.05201 0.0
N1079 N 0.50796 0.59207 0.08474 0.0
N1080 N 0.4529 0.53479 0.0818 0.0
C1081 C 0.45461 0.55985 0.1202 0.0
C1082 C 0.48491 0.59133 0.12192 0.0
C1083 C 0.56305 0.77909 0.30901 0.0
C1084 C 0.57751 0.76899 0.26139 0.0
C1085 C 0.56346 0.80975 0.3089 0.0
C1086 C 0.57803 0.83155 0.2607 0.0
H1087 H 0.54977 0.76251 0.34437 0.0
H1088 H 0.55068 0.81543 0.34444 0.0
S1089 S 0.62017 0.81753 0.12655 0.0
N1090 N 0.60803 0.78508 0.16692 0.0
N1091 N 0.60798 0.84016 0.16557 0.0
C1092 C 0.59337 0.82191 0.21485 0.0
C1093 C 0.59333 0.79153 0.21549 0.0
C1094 C 0.27857 0.79694 0.22255 0.0
C1095 C 0.29231 0.82635 0.2646 0.0
C1096 C 0.24788 0.76885 0.23049 0.0
C1097 C 0.22887 0.76839 0.28093 0.0
H1098 H 0.29083 0.79606 0.18057 0.0
H1099 H 0.23773 0.74826 0.19354 0.0
S1100 S 0.25447 0.83698 0.4093 0.0
N1101 N 0.28513 0.85143 0.36295 0.0
N1102 N 0.2276 0.79947 0.37667 0.0
C1103 C 0.24315 0.79682 0.3256 0.0
C1104 C 0.27468 0.82537 0.31799 0.0
C1105 C 0.25858 0.45619 0.28626 0.0
C1106 C 0.28812 0.47719 0.25917 0.0
C1107 C 0.2313 0.46137 0.28455 0.0
C1108 C 0.23175 0.48764 0.25452 0.0
H1109 H 0.25563 0.43405 0.30507 0.0
H1110 H 0.20878 0.4431 0.30224 0.0
S1111 S 0.30347 0.55129 0.17996 0.0
N1112 N 0.31636 0.52667 0.20507 0.0
N1113 N 0.26567 0.5363 0.201 0.0
C1114 C 0.26186 0.50993 0.23081 0.0
C1115 C 0.28975 0.5048 0.23327 0.0
C1116 C 1.00143 0.2246 0.05856 0.0
C1117 C 1.00814 0.25078 0.10445 0.0
C1118 C 1.0098 0.2298 0.99457 0.0
C1119 C 0.02532 0.26145 0.97347 0.0
H1120 H 0.98935 0.19973 0.07205 0.0
H1121 H 1.00385 0.20875 0.96116 0.0
S1122 S 0.05003 0.33874 0.07542 0.0
N1123 N 0.03225 0.30981 0.12464 0.0
N1124 N 0.04813 0.3196 1.0048 0.0
C1125 C 0.03224 0.28793 1.01889 0.0
C1126 C 1.02364 0.2826 0.08411 0.0
C1127 C 0.82019 0.78585 0.06319 0.0
C1128 C 0.79532 0.7592 0.09113 0.0
C1129 C 0.81616 0.79073 0.9978 0.0
C1130 C 0.78701 0.76928 0.95786 0.0
H1131 H 0.84264 0.80357 0.09256 0.0
H1132 H 0.83547 0.81223 0.97915 0.0
S1133 S 0.71561 0.6942 1.00529 0.0
N1134 N 0.74116 0.71009 0.07228 0.0
N1135 N 0.73405 0.71889 0.94922 0.0
C1136 C 0.76261 0.74171 0.98417 0.0
C1137 C 0.76668 0.73672 0.05073 0.0
C1138 C 0.26941 0.05144 0.05879 0.0
C1139 C 0.27964 0.03627 0.10382 0.0
C1140 C 0.26725 0.04374 0.9916 0.0
C1141 C 0.27531 0.02063 0.96684 0.0
H1142 H 0.26214 0.06874 0.07567 0.0
H1143 H 0.25821 0.05523 0.95884 0.0
S1144 S 0.30785 0.97748 0.0642 0.0
N1145 N 0.30083 0.99938 0.11892 0.0
N1146 N 0.29698 0.98503 0.99274 0.0
C1147 C 0.28688 1.0063 1.01137 0.0
C1148 C 0.28898 1.01407 0.07976 0.0
C1149 C 0.99314 0.76664 0.99792 0.0
C1150 C 0.0267 0.78367 0.98742 0.0
C1151 C 0.98339 0.76025 0.0608 0.0
C1152 C 1.00692 0.77086 0.11503 0.0
H1153 H 0.97434 0.75881 0.95745 0.0
H1154 H 0.95738 0.74751 0.06721 0.0
S1155 S 0.09747 0.81191 0.11268 0.0
N1156 N 0.08318 0.80781 1.03589 0.0
N1157 N 0.06486 0.79616 0.15378 0.0
C1158 C 0.0404 0.78674 0.10489 0.0
C1159 C 0.05031 0.79307 0.04115 0.0
C1160 C 0.25137 0.27449 0.08186 0.0
C1161 C 0.24331 0.24269 0.09583 0.0
C1162 C 0.2496 0.28203 1.01752 0.0
C1163 C 0.23994 0.25816 0.96423 0.0
H1164 H 0.25914 0.29374 0.12105 0.0
H1165 H 0.25605 0.30687 1.0095 0.0
S1166 S 0.21828 0.17164 0.97464 0.0
N1167 N 0.22619 0.1874 0.05107 0.0
N1168 N 0.22347 0.20157 0.93048 0.0
C1169 C 0.2318 0.22624 0.97772 0.0
C1170 C 0.23337 0.21853 0.04328 0.0
C1171 C 0.75739 1.00804 0.08188 0.0
C1172 C 0.78885 0.023 0.11641 0.0
C1173 C 0.75307 1.00047 1.01417 0.0
C1174 C 0.78006 1.00748 0.97865 0.0
H1175 H 0.73608 1.00279 0.10719 0.0
H1176 H 0.7285 0.98953 0.98932 0.0
S1177 S 0.86693 0.04319 0.04768 0.0
N1178 N 0.84701 0.04247 0.111 0.0
N1179 N 0.83893 0.02788 0.98421 0.0
C1180 C 0.81148 0.02159 1.01308 0.0
C1181 C 0.81586 0.02941 0.0818 0.0
C1182 C 0.69212 0.62373 0.30884 0.0
C1183 C 0.7142 0.61464 0.28543 0.0
C1184 C 0.68417 0.62036 0.37356 0.0
C1185 C 0.69781 0.6076 0.41778 0.0
H1186 H 0.68083 0.6335 0.27681 0.0
H1187 H 0.66701 0.62766 0.38896 0.0
S1188 S 0.75568 0.57861 0.37982 0.0
N1189 N 0.74899 0.59166 0.31142 0.0
N1190 N 0.73384 0.5849 0.43205 0.0
C1191 C 0.72007 0.5986 0.39491 0.0
C1192 C 0.72827 0.6022 0.32918 0.0
C1193 C 0.45818 0.09575 0.38399 0.0
C1194 C 0.47019 0.12062 0.43611 0.0
C1195 C 0.45671 0.10274 0.31898 0.0
C1196 C 0.46688 0.13482 0.30346 0.0
H1197 H 0.44903 0.07051 0.39351 0.0
H1198 H 0.44672 0.08276 0.28067 0.0
S1199 S 0.5037 0.20932 0.42021 0.0
N1200 N 0.4953 0.17922 0.46624 0.0
N1201 N 0.49151 0.19194 0.34482 0.0
C1202 C 0.47972 0.15998 0.35468 0.0
C1203 C 0.48162 0.153 0.42066 0.0
C1204 C 0.94727 0.33808 0.33 0.0
C1205 C 0.92145 0.3364 0.28872 0.0
C1206 C 0.94998 0.34546 0.39756 0.0
C1207 C 0.92702 0.35154 0.4265 0.0
H1208 H 0.96592 0.33427 0.30982 0.0
H1209 H 0.97061 0.34714 0.42721 0.0
S1210 S 0.85285 0.34652 0.34136 0.0
N1211 N 0.87102 0.33882 0.28279 0.0
N1212 N 0.87634 0.353 0.40932 0.0
C1213 C 0.90066 0.3491 0.38608 0.0
C1214 C 0.89782 0.34148 0.31741 0.0
C1215 C 0.67328 0.13541 0.32934 0.0
C1216 C 0.69524 0.12733 0.30162 0.0
C1217 C 0.66448 0.12826 0.39278 0.0
C1218 C 0.67735 0.11282 0.43129 0.0
H1219 H 0.6634 0.14811 0.3024 0.0
H1220 H 0.64811 0.13562 0.41243 0.0
S1221 S 0.73219 0.08256 0.37881 0.0
N1222 N 0.72706 0.10011 0.31591 0.0
N1223 N 0.71086 0.08706 0.43476 0.0
C1224 C 0.69841 0.1036 0.4034 0.0
C1225 C 0.70725 0.11075 0.33883 0.0
C1226 C 0.9019 0.58891 0.33312 0.0
C1227 C 0.92911 0.60093 0.29637 0.0
C1228 C 0.90503 0.58441 0.399 0.0
C1229 C 0.93551 0.59185 0.43096 0.0
H1230 H 0.87796 0.58307 0.31085 0.0
H1231 H 0.88341 0.57519 0.42526 0.0
S1232 S 1.01406 0.6225 0.35616 0.0
N1233 N 0.98739 0.61922 0.29652 0.0
N1234 N 0.99329 0.61092 0.42031 0.0
C1235 C 0.96296 0.60395 0.3949 0.0
C1236 C 0.95977 0.60847 0.32771 0.0
C1237 C 0.4221 0.33913 0.32183 0.0
C1238 C 0.44827 0.33988 0.29104 0.0
C1239 C 0.42489 0.34647 0.38933 0.0
C1240 C 0.45397 0.35483 0.42848 0.0
H1241 H 0.39944 0.33328 0.2934 0.0
H1242 H 0.40438 0.34621 0.41086 0.0
S1243 S 0.52832 0.35705 0.37263 0.0
N1244 N 0.5033 0.34746 0.30552 0.0
N1245 N 0.50856 0.36128 0.43217 0.0
C1246 C 0.48002 0.35496 0.39849 0.0
C1247 C 0.47718 0.3475 0.32987 0.0
C1248 C 0.35213 0.93664 0.66002 0.0
C1249 C 0.37704 0.93221 0.63547 0.0
C1250 C 0.34341 0.92981 0.72353 0.0
C1251 C 0.35908 0.91808 0.76545 0.0
H1252 H 0.3394 0.94574 0.63 0.0
H1253 H 0.32431 0.93398 0.74007 0.0
S1254 S 0.42433 0.90007 0.72321 0.0
N1255 N 0.41638 0.91413 0.65742 0.0
N1256 N 0.39983 0.90095 0.77601 0.0
C1257 C 0.3839 0.91334 0.74126 0.0
C1258 C 0.39287 0.92046 0.67666 0.0
C1259 C 0.10853 0.44582 0.75317 0.0
C1260 C 0.13715 0.44835 0.78483 0.0
C1261 C 0.10746 0.45351 0.6887 0.0
C1262 C 0.13496 0.46403 0.65292 0.0
H1263 H 0.08689 0.43838 0.77886 0.0
H1264 H 0.08505 0.45176 0.66713 0.0
S1265 S 0.21468 0.47122 0.71094 0.0
N1266 N 0.19289 0.45993 0.77383 0.0
N1267 N 0.19087 0.47409 0.65291 0.0
C1268 C 0.16346 0.46586 0.68354 0.0
C1269 C 0.16456 0.45812 0.74927 0.0
C1270 C 0.57717 0.70785 0.71462 0.0
C1271 C 0.5812 0.6895 0.76174 0.0
C1272 C 0.57575 0.69939 0.64802 0.0
C1273 C 0.57869 0.6724 0.62549 0.0
H1274 H 0.57517 0.72906 0.72941 0.0
H1275 H 0.57249 0.71431 0.61383 0.0
S1276 S 0.59097 0.61708 0.7295 0.0
N1277 N 0.58834 0.64319 0.78148 0.0
N1278 N 0.58669 0.6278 0.65658 0.0
C1279 C 0.58255 0.65368 0.67223 0.0
C1280 C 0.58359 0.66212 0.74016 0.0
C1281 C 0.38053 0.44425 0.75391 0.0
C1282 C 0.35506 0.44856 0.77564 0.0
C1283 C 0.3891 0.44926 0.68985 0.0
C1284 C 0.37252 0.45873 0.64476 0.0
H1285 H 0.39439 0.43755 0.78704 0.0
H1286 H 0.40931 0.44627 0.67591 0.0
S1287 S 0.30126 0.46921 0.67501 0.0
N1288 N 0.31157 0.46018 0.74526 0.0
N1289 N 0.32752 0.46951 0.62543 0.0
C1290 C 0.34636 0.46216 0.66547 0.0
C1291 C 0.33769 0.45709 0.7306 0.0
C1292 C 0.58998 0.89873 0.7168 0.0
C1293 C 0.59348 0.92062 0.76962 0.0
C1294 C 0.58947 0.90647 0.65238 0.0
C1295 C 0.59265 0.93659 0.63756 0.0
H1296 H 0.58743 0.87522 0.7253 0.0
H1297 H 0.58641 0.88852 0.61372 0.0
S1298 S 0.60401 1.00329 0.75843 0.0
N1299 N 0.60085 0.9741 0.80285 0.0
N1300 N 0.60048 0.98895 0.68209 0.0
C1301 C 0.59616 0.95878 0.69 0.0
C1302 C 0.59646 0.95075 0.75576 0.0
C1303 C 0.15679 0.70006 0.69577 0.0
C1304 C 0.12589 0.6785 0.66123 0.0
C1305 C 0.1599 0.70824 0.76302 0.0
C1306 C 0.13224 0.69517 0.79854 0.0
H1307 H 0.17885 0.71039 0.67076 0.0
H1308 H 0.18422 0.72472 0.78753 0.0
S1309 S 0.04564 0.63969 0.73072 0.0
N1310 N 0.0669 0.64562 0.66735 0.0
N1311 N 0.07283 0.66093 0.79365 0.0
C1312 C 0.1012 0.67389 0.76458 0.0
C1313 C 0.09801 0.66559 0.69607 0.0
loop_
_geom_bond_atom_site_label_1
_geom_bond_atom_site_label_2
_geom_bond_distance
_geom_bond_site_symmetry_2
_ccdc_geom_bond_type
Tb0 C2 2.809 . S
Tb0 O20 2.480 1_455 S
Tb0 O21 2.440 . S
Tb0 O22 2.658 . S
Tb0 O23 2.409 . S
Tb0 O24 2.378 1_455 S
Tb0 O28 2.325 1_455 S
Tb0 O31 2.341 . S
Tb1 C11 2.809 . S
Tb1 O22 2.325 1_655 S
Tb1 O25 2.341 . S
Tb1 O26 2.484 1_655 S
Tb1 O27 2.440 . S
Tb1 O28 2.658 . S
Tb1 O29 2.409 . S
Tb1 O30 2.378 1_655 S
C2 Tb0 2.809 . S
C2 C3 1.514 . S
C2 O20 1.242 1_455 S
C2 O21 1.266 . S
C3 C2 1.514 . S
C3 C4 1.359 1_455 S
C3 C8 1.348 . S
C4 C3 1.359 1_655 S
C4 C5 1.380 . S
C4 H32 0.929 . S
C5 C4 1.380 . S
C5 C6 1.347 1_655 S
C5 H33 0.931 . S
C6 C5 1.347 1_455 S
C6 C7 1.369 . S
C7 C6 1.369 . S
C7 C8 1.408 . S
C7 H34 0.930 . S
C8 C3 1.348 . S
C8 C7 1.408 . S
C8 H35 0.930 . S
C9 O22 1.281 . S
C9 O23 1.254 . S
C10 O24 1.236 . S
C10 O25 1.266 . S
C11 Tb1 2.809 . S
C11 C12 1.514 . S
C11 O26 1.248 1_655 S
C11 O27 1.266 . S
C12 C11 1.514 . S
C12 C13 1.359 1_655 S
C12 C17 1.348 . S
C13 C12 1.359 1_455 S
C13 C14 1.380 . S
C13 H36 0.929 . S
C14 C13 1.380 . S
C14 C15 1.347 . S
C14 H37 0.931 . S
C15 C14 1.347 . S
C15 C16 1.369 1_455 S
C16 C15 1.369 1_655 S
C16 C17 1.408 . S
C16 H38 0.930 . S
C17 C12 1.348 . S
C17 C16 1.408 . S
C17 H39 0.930 . S
C18 O28 1.281 . S
C18 O29 1.254 . S
C19 O30 1.236 . S
C19 O31 1.266 . S
O20 Tb0 2.480 1_655 S
O20 C2 1.242 1_655 S
O21 Tb0 2.440 . S
O21 C2 1.266 . S
O22 Tb0 2.658 . S
O22 Tb1 2.325 1_455 S
O22 C9 1.281 . S
O23 Tb0 2.409 . S
O23 C9 1.254 . S
O24 Tb0 2.378 1_655 S
O24 C10 1.236 . S
O25 Tb1 2.341 . S
O25 C10 1.266 . S
O26 Tb1 2.484 1_455 S
O26 C11 1.248 1_455 S
O27 Tb1 2.440 . S
O27 C11 1.266 . S
O28 Tb0 2.325 1_655 S
O28 Tb1 2.658 . S
O28 C18 1.281 . S
O29 Tb1 2.409 . S
O29 C18 1.254 . S
O30 Tb1 2.378 1_455 S
O30 C19 1.236 . S
O31 Tb0 2.341 . S
O31 C19 1.266 . S
H32 C4 0.929 . S
H33 C5 0.931 . S
H34 C7 0.930 . S
H35 C8 0.930 . S
H36 C13 0.929 . S
H37 C14 0.931 . S
H38 C16 0.930 . S
H39 C17 0.930 . S
Tb40 C42 2.809 . S
Tb40 O60 2.484 . S
Tb40 O61 2.440 . S
Tb40 O62 2.658 . S
Tb40 O63 2.409 . S
Tb40 O64 2.378 . S
Tb40 O68 2.325 . S
Tb40 O71 2.341 . S
Tb41 C51 2.809 . S
Tb41 O62 2.325 . S
Tb41 O65 2.341 . S
Tb41 O66 2.484 . S
Tb41 O67 2.440 . S
Tb41 O68 2.658 . S
Tb41 O69 2.409 . S
Tb41 O70 2.378 . S
C42 Tb40 2.809 . S
C42 C43 1.514 . S
C42 O60 1.248 . S
C42 O61 1.266 . S
C43 C42 1.514 . S
C43 C44 1.359 . S
C43 C48 1.348 . S
C44 C43 1.359 . S
C44 C45 1.380 . S
C44 H72 0.929 . S
C45 C44 1.380 . S
C45 C46 1.347 . S
C45 H73 0.931 . S
C46 C45 1.347 . S
C46 C47 1.369 . S
C47 C46 1.369 . S
C47 C48 1.408 . S
C47 H74 0.930 . S
C48 C43 1.348 . S
C48 C47 1.408 . S
C48 H75 0.930 . S
C49 O62 1.281 . S
C49 O63 1.254 . S
C50 O64 1.236 . S
C50 O65 1.266 . S
C51 Tb41 2.809 . S
C51 C52 1.514 . S
C51 O66 1.248 . S
C51 O67 1.266 . S
C52 C51 1.514 . S
C52 C53 1.359 . S
C52 C57 1.348 . S
C53 C52 1.359 . S
C53 C54 1.380 . S
C53 H76 0.929 . S
C54 C53 1.380 . S
C54 C55 1.347 . S
C54 H77 0.931 . S
C55 C54 1.347 . S
C55 C56 1.369 . S
C56 C55 1.369 . S
C56 C57 1.408 . S
C56 H78 0.930 . S
C57 C52 1.348 . S
C57 C56 1.408 . S
C57 H79 0.930 . S
C58 O68 1.281 . S
C58 O69 1.254 . S
C59 O70 1.236 . S
C59 O71 1.266 . S
O60 Tb40 2.484 . S
O60 C42 1.248 . S
O61 Tb40 2.440 . S
O61 C42 1.266 . S
O62 Tb40 2.658 . S
O62 Tb41 2.325 . S
O62 C49 1.281 . S
O63 Tb40 2.409 . S
O63 C49 1.254 . S
O64 Tb40 2.378 . S
O64 C50 1.236 . S
O65 Tb41 2.341 . S
O65 C50 1.266 . S
O66 Tb41 2.484 . S
O66 C51 1.248 . S
O67 Tb41 2.440 . S
O67 C51 1.266 . S
O68 Tb40 2.325 . S
O68 Tb41 2.658 . S
O68 C58 1.281 . S
O69 Tb41 2.409 . S
O69 C58 1.254 . S
O70 Tb41 2.378 . S
O70 C59 1.236 . S
O71 Tb40 2.341 . S
O71 C59 1.266 . S
H72 C44 0.929 . S
H73 C45 0.931 . S
H74 C47 0.930 . S
H75 C48 0.930 . S
H76 C53 0.929 . S
H77 C54 0.931 . S
H78 C56 0.930 . S
H79 C57 0.930 . S
Tb80 C82 2.809 . S
Tb80 O100 2.484 1_565 S
Tb80 O101 2.440 . S
Tb80 O102 2.658 . S
Tb80 O103 2.409 . S
Tb80 O104 2.378 1_565 S
Tb80 O108 2.325 1_565 S
Tb80 O111 2.341 . S
Tb81 C91 2.809 . S
Tb81 O102 2.325 1_545 S
Tb81 O105 2.341 . S
Tb81 O106 2.484 1_545 S
Tb81 O107 2.440 . S
Tb81 O108 2.658 . S
Tb81 O109 2.409 . S
Tb81 O110 2.378 1_545 S
C82 Tb80 2.809 . S
C82 C83 1.514 1_565 S
C82 O100 1.248 1_565 S
C82 O101 1.266 . S
C83 C82 1.514 1_545 S
C83 C84 1.359 . S
C83 C88 1.348 1_545 S
C84 C83 1.359 . S
C84 C85 1.380 . S
C84 H112 0.929 . S
C85 C84 1.380 . S
C85 C86 1.347 . S
C85 H113 0.931 . S
C86 C85 1.347 . S
C86 C87 1.369 1_545 S
C87 C86 1.369 1_565 S
C87 C88 1.408 . S
C87 H114 0.930 . S
C88 C83 1.348 1_565 S
C88 C87 1.408 . S
C88 H115 0.930 . S
C89 O102 1.281 . S
C89 O103 1.254 . S
C90 O104 1.236 . S
C90 O105 1.266 . S
C91 Tb81 2.809 . S
C91 C92 1.514 1_545 S
C91 O106 1.248 1_545 S
C91 O107 1.266 . S
C92 C91 1.514 1_565 S
C92 C93 1.358 . S
C92 C97 1.348 1_565 S
C93 C92 1.358 . S
C93 C94 1.380 . S
C93 H116 0.929 . S
C94 C93 1.380 . S
C94 C95 1.347 . S
C94 H117 0.931 . S
C95 C94 1.347 . S
C95 C96 1.369 1_565 S
C96 C95 1.369 1_545 S
C96 C97 1.408 . S
C96 H118 0.930 . S
C97 C92 1.348 1_545 S
C97 C96 1.408 . S
C97 H119 0.930 . S
C98 O108 1.281 . S
C98 O109 1.254 . S
C99 O110 1.236 . S
C99 O111 1.266 . S
O100 Tb80 2.484 1_545 S
O100 C82 1.248 1_545 S
O101 Tb80 2.440 . S
O101 C82 1.266 . S
O102 Tb80 2.658 . S
O102 Tb81 2.325 1_565 S
O102 C89 1.281 . S
O103 Tb80 2.409 . S
O103 C89 1.254 . S
O104 Tb80 2.378 1_545 S
O104 C90 1.236 . S
O105 Tb81 2.341 . S
O105 C90 1.266 . S
O106 Tb81 2.484 1_565 S
O106 C91 1.248 1_565 S
O107 Tb81 2.440 . S
O107 C91 1.266 . S
O108 Tb80 2.325 1_545 S
O108 Tb81 2.658 . S
O108 C98 1.281 . S
O109 Tb81 2.409 . S
O109 C98 1.254 . S
O110 Tb81 2.378 1_565 S
O110 C99 1.236 . S
O111 Tb80 2.341 . S
O111 C99 1.266 . S
H112 C84 0.929 . S
H113 C85 0.931 . S
H114 C87 0.930 . S
H115 C88 0.930 . S
H116 C93 0.929 . S
H117 C94 0.931 . S
H118 C96 0.930 . S
H119 C97 0.930 . S
Tb120 C122 2.809 . S
Tb120 O140 2.484 1_455 S
Tb120 O141 2.440 . S
Tb120 O142 2.658 . S
Tb120 O143 2.409 . S
Tb120 O144 2.378 1_455 S
Tb120 O148 2.325 1_455 S
Tb120 O151 2.341 . S
Tb121 C131 2.809 . S
Tb121 O142 2.325 1_655 S
Tb121 O145 2.341 . S
Tb121 O146 2.484 1_655 S
Tb121 O147 2.440 . S
Tb121 O148 2.658 . S
Tb121 O149 2.409 . S
Tb121 O150 2.378 1_655 S
C122 Tb120 2.809 . S
C122 C123 1.514 . S
C122 O140 1.248 1_455 S
C122 O141 1.266 . S
C123 C122 1.514 . S
C123 C124 1.359 1_455 S
C123 C128 1.348 . S
C124 C123 1.359 1_655 S
C124 C125 1.380 . S
C124 H152 0.929 . S
C125 C124 1.380 . S
C125 C126 1.347 1_655 S
C125 H153 0.931 . S
C126 C125 1.347 1_455 S
C126 C127 1.369 . S
C127 C126 1.369 . S
C127 C128 1.408 . S
C127 H154 0.930 . S
C128 C123 1.348 . S
C128 C127 1.408 . S
C128 H155 0.930 . S
C129 O142 1.281 . S
C129 O143 1.254 . S
C130 O144 1.236 . S
C130 O145 1.266 . S
C131 Tb121 2.809 . S
C131 C132 1.514 . S
C131 O146 1.248 1_655 S
C131 O147 1.266 . S
C132 C131 1.514 . S
C132 C133 1.359 1_655 S
C132 C137 1.348 . S
C133 C132 1.359 1_455 S
C133 C134 1.380 . S
C133 H156 0.929 . S
C134 C133 1.380 . S
C134 C135 1.347 . S
C134 H157 0.931 . S
C135 C134 1.347 . S
C135 C136 1.369 1_455 S
C136 C135 1.369 1_655 S
C136 C137 1.408 . S
C136 H158 0.930 . S
C137 C132 1.348 . S
C137 C136 1.408 . S
C137 H159 0.930 . S
C138 O148 1.281 . S
C138 O149 1.254 . S
C139 O150 1.236 . S
C139 O151 1.266 . S
O140 Tb120 2.484 1_655 S
O140 C122 1.248 1_655 S
O141 Tb120 2.440 . S
O141 C122 1.266 . S
O142 Tb120 2.658 . S
O142 Tb121 2.325 1_455 S
O142 C129 1.281 . S
O143 Tb120 2.409 . S
O143 C129 1.254 . S
O144 Tb120 2.378 1_655 S
O144 C130 1.236 . S
O145 Tb121 2.341 . S
O145 C130 1.266 . S
O146 Tb121 2.484 1_455 S
O146 C131 1.248 1_455 S
O147 Tb121 2.440 . S
O147 C131 1.266 . S
O148 Tb120 2.325 1_655 S
O148 Tb121 2.658 . S
O148 C138 1.281 . S
O149 Tb121 2.409 . S
O149 C138 1.254 . S
O150 Tb121 2.378 1_455 S
O150 C139 1.236 . S
O151 Tb120 2.341 . S
O151 C139 1.266 . S
H152 C124 0.929 . S
H153 C125 0.931 . S
H154 C127 0.930 . S
H155 C128 0.930 . S
H156 C133 0.929 . S
H157 C134 0.931 . S
H158 C136 0.930 . S
H159 C137 0.930 . S
Tb160 C162 2.809 . S
Tb160 O180 2.484 . S
Tb160 O181 2.440 . S
Tb160 O182 2.658 . S
Tb160 O183 2.409 . S
Tb160 O184 2.378 . S
Tb160 O188 2.325 . S
Tb160 O191 2.341 . S
Tb161 C171 2.809 . S
Tb161 O182 2.325 . S
Tb161 O185 2.341 . S
Tb161 O186 2.484 . S
Tb161 O187 2.440 . S
Tb161 O188 2.658 . S
Tb161 O189 2.409 . S
Tb161 O190 2.378 . S
C162 Tb160 2.809 . S
C162 C163 1.514 . S
C162 O180 1.248 . S
C162 O181 1.266 . S
C163 C162 1.514 . S
C163 C164 1.359 . S
C163 C168 1.348 . S
C164 C163 1.359 . S
C164 C165 1.380 . S
C164 H192 0.929 . S
C165 C164 1.380 . S
C165 C166 1.347 . S
C165 H193 0.931 . S
C166 C165 1.347 . S
C166 C167 1.369 . S
C167 C166 1.369 . S
C167 C168 1.408 . S
C167 H194 0.930 . S
C168 C163 1.348 . S
C168 C167 1.408 . S
C168 H195 0.930 . S
C169 O182 1.281 . S
C169 O183 1.254 . S
C170 O184 1.236 . S
C170 O185 1.266 . S
C171 Tb161 2.809 . S
C171 C172 1.514 . S
C171 O186 1.248 . S
C171 O187 1.266 . S
C172 C171 1.514 . S
C172 C173 1.359 . S
C172 C177 1.348 . S
C173 C172 1.359 . S
C173 C174 1.380 . S
C173 H196 0.929 . S
C174 C173 1.380 . S
C174 C175 1.347 . S
C174 H197 0.931 . S
C175 C174 1.347 . S
C175 C176 1.369 . S
C176 C175 1.369 . S
C176 C177 1.408 . S
C176 H198 0.930 . S
C177 C172 1.348 . S
C177 C176 1.408 . S
C177 H199 0.930 . S
C178 O188 1.281 . S
C178 O189 1.254 . S
C179 O190 1.236 . S
C179 O191 1.266 . S
O180 Tb160 2.484 . S
O180 C162 1.248 . S
O181 Tb160 2.440 . S
O181 C162 1.266 . S
O182 Tb160 2.658 . S
O182 Tb161 2.325 . S
O182 C169 1.281 . S
O183 Tb160 2.409 . S
O183 C169 1.254 . S
O184 Tb160 2.378 . S
O184 C170 1.236 . S
O185 Tb161 2.341 . S
O185 C170 1.266 . S
O186 Tb161 2.484 . S
O186 C171 1.248 . S
O187 Tb161 2.440 . S
O187 C171 1.266 . S
O188 Tb160 2.325 . S
O188 Tb161 2.658 . S
O188 C178 1.281 . S
O189 Tb161 2.409 . S
O189 C178 1.254 . S
O190 Tb161 2.378 . S
O190 C179 1.236 . S
O191 Tb160 2.341 . S
O191 C179 1.266 . S
H192 C164 0.929 . S
H193 C165 0.931 . S
H194 C167 0.930 . S
H195 C168 0.930 . S
H196 C173 0.929 . S
H197 C174 0.931 . S
H198 C176 0.930 . S
H199 C177 0.930 . S
Tb200 C202 2.809 . S
Tb200 O220 2.484 1_565 S
Tb200 O221 2.440 . S
Tb200 O222 2.658 . S
Tb200 O223 2.409 . S
Tb200 O224 2.378 1_565 S
Tb200 O228 2.325 1_565 S
Tb200 O231 2.341 . S
Tb201 C211 2.809 . S
Tb201 O222 2.325 1_545 S
Tb201 O225 2.341 . S
Tb201 O226 2.484 1_545 S
Tb201 O227 2.440 . S
Tb201 O228 2.658 . S
Tb201 O229 2.409 . S
Tb201 O230 2.378 1_545 S
C202 Tb200 2.809 . S
C202 C203 1.514 1_565 S
C202 O220 1.248 1_565 S
C202 O221 1.266 . S
C203 C202 1.514 1_545 S
C203 C204 1.359 . S
C203 C208 1.348 1_545 S
C204 C203 1.359 . S
C204 C205 1.380 . S
C204 H232 0.929 . S
C205 C204 1.380 . S
C205 C206 1.347 . S
C205 H233 0.931 . S
C206 C205 1.347 . S
C206 C207 1.369 1_545 S
C207 C206 1.369 1_565 S
C207 C208 1.408 . S
C207 H234 0.930 . S
C208 C203 1.348 1_565 S
C208 C207 1.408 . S
C208 H235 0.930 . S
C209 O222 1.281 . S
C209 O223 1.254 . S
C210 O224 1.236 . S
C210 O225 1.266 . S
C211 Tb201 2.809 . S
C211 C212 1.514 . S
C211 O226 1.248 1_545 S
C211 O227 1.266 . S
C212 C211 1.514 . S
C212 C213 1.359 1_545 S
C212 C217 1.348 . S
C213 C212 1.359 1_565 S
C213 C214 1.380 . S
C213 H236 0.929 . S
C214 C213 1.380 . S
C214 C215 1.347 . S
C214 H237 0.931 . S
C215 C214 1.347 . S
C215 C216 1.369 1_565 S
C216 C215 1.369 1_545 S
C216 C217 1.408 . S
C216 H238 0.930 . S
C217 C212 1.348 . S
C217 C216 1.408 . S
C217 H239 0.930 . S
C218 O228 1.281 . S
C218 O229 1.254 . S
C219 O230 1.236 . S
C219 O231 1.266 . S
O220 Tb200 2.484 1_545 S
O220 C202 1.248 1_545 S
O221 Tb200 2.440 . S
O221 C202 1.266 . S
O222 Tb200 2.658 . S
O222 Tb201 2.325 1_565 S
O222 C209 1.281 . S
O223 Tb200 2.409 . S
O223 C209 1.254 . S
O224 Tb200 2.378 1_545 S
O224 C210 1.236 . S
O225 Tb201 2.341 . S
O225 C210 1.266 . S
O226 Tb201 2.484 1_565 S
O226 C211 1.248 1_565 S
O227 Tb201 2.440 . S
O227 C211 1.266 . S
O228 Tb200 2.325 1_545 S
O228 Tb201 2.658 . S
O228 C218 1.281 . S
O229 Tb201 2.409 . S
O229 C218 1.254 . S
O230 Tb201 2.378 1_565 S
O230 C219 1.236 . S
O231 Tb200 2.341 . S
O231 C219 1.266 . S
H232 C204 0.929 . S
H233 C205 0.931 . S
H234 C207 0.930 . S
H235 C208 0.930 . S
H236 C213 0.929 . S
H237 C214 0.931 . S
H238 C216 0.930 . S
H239 C217 0.930 . S
Tb240 C242 2.809 . S
Tb240 O260 2.484 . S
Tb240 O261 2.440 . S
Tb240 O262 2.658 . S
Tb240 O263 2.409 . S
Tb240 O264 2.378 . S
Tb240 O268 2.325 . S
Tb240 O271 2.341 . S
Tb241 C251 2.809 . S
Tb241 O262 2.325 . S
Tb241 O265 2.341 . S
Tb241 O266 2.484 . S
Tb241 O267 2.440 . S
Tb241 O268 2.658 . S
Tb241 O269 2.409 . S
Tb241 O270 2.378 . S
C242 Tb240 2.809 . S
C242 C243 1.514 . S
C242 O260 1.248 . S
C242 O261 1.266 . S
C243 C242 1.514 . S
C243 C244 1.359 . S
C243 C248 1.348 . S
C244 C243 1.359 . S
C244 C245 1.380 . S
C244 H272 0.929 . S
C245 C244 1.380 . S
C245 C246 1.347 . S
C245 H273 0.931 . S
C246 C245 1.347 . S
C246 C247 1.369 . S
C247 C246 1.369 . S
C247 C248 1.408 . S
C247 H274 0.930 . S
C248 C243 1.348 . S
C248 C247 1.408 . S
C248 H275 0.930 . S
C249 O262 1.281 . S
C249 O263 1.254 . S
C250 O264 1.236 . S
C250 O265 1.266 . S
C251 Tb241 2.809 . S
C251 C252 1.514 1_556 S
C251 O266 1.248 . S
C251 O267 1.266 . S
C252 C251 1.514 1_554 S
C252 C253 1.359 . S
C252 C257 1.348 . S
C253 C252 1.359 . S
C253 C254 1.380 . S
C253 H276 0.929 . S
C254 C253 1.380 . S
C254 C255 1.347 . S
C254 H277 0.931 . S
C255 C254 1.347 . S
C255 C256 1.369 . S
C256 C255 1.369 . S
C256 C257 1.408 . S
C256 H278 0.930 . S
C257 C252 1.348 . S
C257 C256 1.408 . S
C257 H279 0.930 . S
C258 O268 1.281 . S
C258 O269 1.254 . S
C259 O270 1.236 . S
C259 O271 1.266 . S
O260 Tb240 2.484 . S
O260 C242 1.248 . S
O261 Tb240 2.440 . S
O261 C242 1.266 . S
O262 Tb240 2.658 . S
O262 Tb241 2.325 . S
O262 C249 1.281 . S
O263 Tb240 2.409 . S
O263 C249 1.254 . S
O264 Tb240 2.378 . S
O264 C250 1.236 . S
O265 Tb241 2.341 . S
O265 C250 1.266 . S
O266 Tb241 2.484 . S
O266 C251 1.248 . S
O267 Tb241 2.440 . S
O267 C251 1.266 . S
O268 Tb240 2.325 . S
O268 Tb241 2.658 . S
O268 C258 1.281 . S
O269 Tb241 2.409 . S
O269 C258 1.254 . S
O270 Tb241 2.378 . S
O270 C259 1.236 . S
O271 Tb240 2.341 . S
O271 C259 1.266 . S
H272 C244 0.929 . S
H273 C245 0.931 . S
H274 C247 0.930 . S
H275 C248 0.930 . S
H276 C253 0.929 . S
H277 C254 0.931 . S
H278 C256 0.930 . S
H279 C257 0.930 . S
Tb280 C282 2.809 . S
Tb280 O300 2.484 . S
Tb280 O301 2.440 . S
Tb280 O302 2.658 . S
Tb280 O303 2.409 . S
Tb280 O304 2.378 . S
Tb280 O308 2.325 . S
Tb280 O311 2.341 . S
Tb281 C291 2.809 . S
Tb281 O302 2.325 . S
Tb281 O305 2.341 . S
Tb281 O306 2.484 . S
Tb281 O307 2.440 . S
Tb281 O308 2.658 . S
Tb281 O309 2.409 . S
Tb281 O310 2.378 . S
C282 Tb280 2.809 . S
C282 C283 1.514 . S
C282 O300 1.248 . S
C282 O301 1.266 . S
C283 C282 1.514 . S
C283 C284 1.359 . S
C283 C288 1.348 . S
C284 C283 1.359 . S
C284 C285 1.380 . S
C284 H312 0.929 . S
C285 C284 1.380 . S
C285 C286 1.347 . S
C285 H313 0.931 . S
C286 C285 1.347 . S
C286 C287 1.369 . S
C287 C286 1.369 . S
C287 C288 1.408 . S
C287 H314 0.930 . S
C288 C283 1.348 . S
C288 C287 1.408 . S
C288 H315 0.930 . S
C289 O302 1.281 . S
C289 O303 1.254 . S
C290 O304 1.236 . S
C290 O305 1.266 . S
C291 Tb281 2.809 . S
C291 C292 1.514 1_556 S
C291 O306 1.248 . S
C291 O307 1.266 . S
C292 C291 1.514 1_554 S
C292 C293 1.359 . S
C292 C297 1.348 . S
C293 C292 1.359 . S
C293 C294 1.380 . S
C293 H316 0.929 . S
C294 C293 1.380 . S
C294 C295 1.347 . S
C294 H317 0.931 . S
C295 C294 1.347 . S
C295 C296 1.369 . S
C296 C295 1.369 . S
C296 C297 1.408 . S
C296 H318 0.930 . S
C297 C292 1.348 . S
C297 C296 1.408 . S
C297 H319 0.930 . S
C298 O308 1.281 . S
C298 O309 1.254 . S
C299 O310 1.236 . S
C299 O311 1.266 . S
O300 Tb280 2.484 . S
O300 C282 1.248 . S
O301 Tb280 2.440 . S
O301 C282 1.266 . S
O302 Tb280 2.658 . S
O302 Tb281 2.325 . S
O302 C289 1.281 . S
O303 Tb280 2.409 . S
O303 C289 1.254 . S
O304 Tb280 2.378 . S
O304 C290 1.236 . S
O305 Tb281 2.341 . S
O305 C290 1.266 . S
O306 Tb281 2.484 . S
O306 C291 1.248 . S
O307 Tb281 2.440 . S
O307 C291 1.266 . S
O308 Tb280 2.325 . S
O308 Tb281 2.658 . S
O308 C298 1.281 . S
O309 Tb281 2.409 . S
O309 C298 1.254 . S
O310 Tb281 2.378 . S
O310 C299 1.236 . S
O311 Tb280 2.341 . S
O311 C299 1.266 . S
H312 C284 0.929 . S
H313 C285 0.931 . S
H314 C287 0.930 . S
H315 C288 0.930 . S
H316 C293 0.929 . S
H317 C294 0.931 . S
H318 C296 0.930 . S
H319 C297 0.930 . S
Tb320 C322 2.809 . S
Tb320 O340 2.484 . S
Tb320 O341 2.440 . S
Tb320 O342 2.658 . S
Tb320 O343 2.409 . S
Tb320 O344 2.378 . S
Tb320 O348 2.325 . S
Tb320 O351 2.341 . S
Tb321 C331 2.809 . S
Tb321 O342 2.325 . S
Tb321 O345 2.341 . S
Tb321 O346 2.484 . S
Tb321 O347 2.440 . S
Tb321 O348 2.658 . S
Tb321 O349 2.409 . S
Tb321 O350 2.378 . S
C322 Tb320 2.809 . S
C322 C323 1.514 . S
C322 O340 1.248 . S
C322 O341 1.266 . S
C323 C322 1.514 . S
C323 C324 1.359 . S
C323 C328 1.348 . S
C324 C323 1.359 . S
C324 C325 1.380 . S
C324 H352 0.929 . S
C325 C324 1.380 . S
C325 C326 1.347 . S
C325 H353 0.931 . S
C326 C325 1.347 . S
C326 C327 1.369 . S
C327 C326 1.369 . S
C327 C328 1.408 . S
C327 H354 0.930 . S
C328 C323 1.348 . S
C328 C327 1.408 . S
C328 H355 0.930 . S
C329 O342 1.281 . S
C329 O343 1.254 . S
C330 O344 1.236 . S
C330 O345 1.266 . S
C331 Tb321 2.809 . S
C331 C332 1.514 1_556 S
C331 O346 1.248 . S
C331 O347 1.266 . S
C332 C331 1.514 1_554 S
C332 C333 1.359 . S
C332 C337 1.348 . S
C333 C332 1.359 . S
C333 C334 1.380 . S
C333 H356 0.929 . S
C334 C333 1.380 . S
C334 C335 1.347 . S
C334 H357 0.931 . S
C335 C334 1.347 . S
C335 C336 1.369 . S
C336 C335 1.369 . S
C336 C337 1.408 . S
C336 H358 0.930 . S
C337 C332 1.348 . S
C337 C336 1.408 . S
C337 H359 0.930 . S
C338 O348 1.281 . S
C338 O349 1.254 . S
C339 O350 1.236 . S
C339 O351 1.266 . S
O340 Tb320 2.484 . S
O340 C322 1.248 . S
O341 Tb320 2.440 . S
O341 C322 1.266 . S
O342 Tb320 2.658 . S
O342 Tb321 2.325 . S
O342 C329 1.281 . S
O343 Tb320 2.409 . S
O343 C329 1.254 . S
O344 Tb320 2.378 . S
O344 C330 1.236 . S
O345 Tb321 2.341 . S
O345 C330 1.266 . S
O346 Tb321 2.484 . S
O346 C331 1.248 . S
O347 Tb321 2.440 . S
O347 C331 1.266 . S
O348 Tb320 2.325 . S
O348 Tb321 2.658 . S
O348 C338 1.281 . S
O349 Tb321 2.409 . S
O349 C338 1.254 . S
O350 Tb321 2.378 . S
O350 C339 1.236 . S
O351 Tb320 2.341 . S
O351 C339 1.266 . S
H352 C324 0.929 . S
H353 C325 0.931 . S
H354 C327 0.930 . S
H355 C328 0.930 . S
H356 C333 0.929 . S
H357 C334 0.931 . S
H358 C336 0.930 . S
H359 C337 0.930 . S
Tb360 C362 2.815 . S
Tb360 O380 2.484 . S
Tb360 O381 2.440 . S
Tb360 O382 2.658 . S
Tb360 O383 2.409 . S
Tb360 O384 2.378 . S
Tb360 O388 2.325 . S
Tb360 O391 2.341 . S
Tb361 C371 2.809 . S
Tb361 O382 2.325 . S
Tb361 O385 2.341 . S
Tb361 O386 2.484 . S
Tb361 O387 2.440 . S
Tb361 O388 2.658 . S
Tb361 O389 2.409 . S
Tb361 O390 2.378 . S
C362 Tb360 2.815 . S
C362 C363 1.507 1_556 S
C362 O380 1.252 . S
C362 O381 1.269 . S
C363 C362 1.507 1_554 S
C363 C364 1.359 . S
C363 C368 1.348 . S
C364 C363 1.359 . S
C364 C365 1.380 . S
C364 H392 0.929 . S
C365 C364 1.380 . S
C365 C366 1.347 . S
C365 H393 0.931 . S
C366 C365 1.347 . S
C366 C367 1.369 . S
C367 C366 1.369 . S
C367 C368 1.408 . S
C367 H394 0.930 . S
C368 C363 1.348 . S
C368 C367 1.408 . S
C368 H395 0.930 . S
C369 O382 1.281 . S
C369 O383 1.254 . S
C370 O384 1.236 . S
C370 O385 1.266 . S
C371 Tb361 2.809 . S
C371 C372 1.514 . S
C371 O386 1.248 . S
C371 O387 1.266 . S
C372 C371 1.514 . S
C372 C373 1.359 . S
C372 C377 1.348 . S
C373 C372 1.359 . S
C373 C374 1.380 . S
C373 H396 0.929 . S
C374 C373 1.380 . S
C374 C375 1.347 . S
C374 H397 0.931 . S
C375 C374 1.347 . S
C375 C376 1.369 . S
C376 C375 1.369 . S
C376 C377 1.408 . S
C376 H398 0.930 . S
C377 C372 1.348 . S
C377 C376 1.408 . S
C377 H399 0.930 . S
C378 O388 1.281 . S
C378 O389 1.254 . S
C379 O390 1.236 . S
C379 O391 1.266 . S
O380 Tb360 2.484 . S
O380 C362 1.252 . S
O381 Tb360 2.440 . S
O381 C362 1.269 . S
O382 Tb360 2.658 . S
O382 Tb361 2.325 . S
O382 C369 1.281 . S
O383 Tb360 2.409 . S
O383 C369 1.254 . S
O384 Tb360 2.378 . S
O384 C370 1.236 . S
O385 Tb361 2.341 . S
O385 C370 1.266 . S
O386 Tb361 2.484 . S
O386 C371 1.248 . S
O387 Tb361 2.440 . S
O387 C371 1.266 . S
O388 Tb360 2.325 . S
O388 Tb361 2.658 . S
O388 C378 1.281 . S
O389 Tb361 2.409 . S
O389 C378 1.254 . S
O390 Tb361 2.378 . S
O390 C379 1.236 . S
O391 Tb360 2.341 . S
O391 C379 1.266 . S
H392 C364 0.929 . S
H393 C365 0.931 . S
H394 C367 0.930 . S
H395 C368 0.930 . S
H396 C373 0.929 . S
H397 C374 0.931 . S
H398 C376 0.930 . S
H399 C377 0.930 . S
Tb400 C402 2.809 1_556 S
Tb400 O420 2.484 . S
Tb400 O421 2.426 1_556 S
Tb400 O422 2.658 . S
Tb400 O423 2.409 . S
Tb400 O424 2.378 . S
Tb400 O428 2.325 . S
Tb400 O431 2.341 . S
Tb401 C411 2.809 . S
Tb401 O422 2.325 . S
Tb401 O425 2.341 . S
Tb401 O426 2.484 . S
Tb401 O427 2.440 . S
Tb401 O428 2.658 . S
Tb401 O429 2.409 . S
Tb401 O430 2.378 . S
C402 Tb400 2.809 1_554 S
C402 C403 1.514 . S
C402 O420 1.248 1_554 S
C402 O421 1.273 . S
C403 C402 1.514 . S
C403 C404 1.359 . S
C403 C408 1.348 . S
C404 C403 1.359 . S
C404 C405 1.380 . S
C404 H432 0.929 . S
C405 C404 1.380 . S
C405 C406 1.347 . S
C405 H433 0.931 . S
C406 C405 1.347 . S
C406 C407 1.369 . S
C407 C406 1.369 . S
C407 C408 1.408 . S
C407 H434 0.930 . S
C408 C403 1.348 . S
C408 C407 1.408 . S
C408 H435 0.930 . S
C409 O422 1.281 . S
C409 O423 1.254 . S
C410 O424 1.236 . S
C410 O425 1.266 . S
C411 Tb401 2.809 . S
C411 C412 1.514 . S
C411 O426 1.248 . S
C411 O427 1.266 . S
C412 C411 1.514 . S
C412 C413 1.359 . S
C412 C417 1.348 . S
C413 C412 1.359 . S
C413 C414 1.380 . S
C413 H436 0.929 . S
C414 C413 1.380 . S
C414 C415 1.347 . S
C414 H437 0.931 . S
C415 C414 1.347 . S
C415 C416 1.369 . S
C416 C415 1.369 . S
C416 C417 1.408 . S
C416 H438 0.930 . S
C417 C412 1.348 . S
C417 C416 1.408 . S
C417 H439 0.930 . S
C418 O428 1.281 . S
C418 O429 1.254 . S
C419 O430 1.236 . S
C419 O431 1.266 . S
O420 Tb400 2.484 . S
O420 C402 1.248 1_556 S
O421 Tb400 2.426 1_554 S
O421 C402 1.273 . S
O422 Tb400 2.658 . S
O422 Tb401 2.325 . S
O422 C409 1.281 . S
O423 Tb400 2.409 . S
O423 C409 1.254 . S
O424 Tb400 2.378 . S
O424 C410 1.236 . S
O425 Tb401 2.341 . S
O425 C410 1.266 . S
O426 Tb401 2.484 . S
O426 C411 1.248 . S
O427 Tb401 2.440 . S
O427 C411 1.266 . S
O428 Tb400 2.325 . S
O428 Tb401 2.658 . S
O428 C418 1.281 . S
O429 Tb401 2.409 . S
O429 C418 1.254 . S
O430 Tb401 2.378 . S
O430 C419 1.236 . S
O431 Tb400 2.341 . S
O431 C419 1.266 . S
H432 C404 0.929 . S
H433 C405 0.931 . S
H434 C407 0.930 . S
H435 C408 0.930 . S
H436 C413 0.929 . S
H437 C414 0.931 . S
H438 C416 0.930 . S
H439 C417 0.930 . S
Tb440 C442 2.828 . S
Tb440 O460 2.484 . S
Tb440 O461 2.440 . S
Tb440 O462 2.658 . S
Tb440 O463 2.409 . S
Tb440 O464 2.378 . S
Tb440 O468 2.325 . S
Tb440 O471 2.341 . S
Tb441 C451 2.809 . S
Tb441 O462 2.325 . S
Tb441 O465 2.341 . S
Tb441 O466 2.484 . S
Tb441 O467 2.440 . S
Tb441 O468 2.658 . S
Tb441 O469 2.409 . S
Tb441 O470 2.378 . S
C442 Tb440 2.828 . S
C442 C443 1.495 1_556 S
C442 O460 1.259 . S
C442 O461 1.273 . S
C443 C442 1.495 1_554 S
C443 C444 1.359 . S
C443 C448 1.348 . S
C444 C443 1.359 . S
C444 C445 1.380 . S
C444 H472 0.929 . S
C445 C444 1.380 . S
C445 C446 1.347 . S
C445 H473 0.931 . S
C446 C445 1.347 . S
C446 C447 1.369 . S
C447 C446 1.369 . S
C447 C448 1.408 . S
C447 H474 0.930 . S
C448 C443 1.348 . S
C448 C447 1.408 . S
C448 H475 0.930 . S
C449 O462 1.281 . S
C449 O463 1.254 . S
C450 O464 1.236 . S
C450 O465 1.266 . S
C451 Tb441 2.809 . S
C451 C452 1.514 . S
C451 O466 1.248 . S
C451 O467 1.266 . S
C452 C451 1.514 . S
C452 C453 1.359 . S
C452 C457 1.348 . S
C453 C452 1.359 . S
C453 C454 1.380 . S
C453 H476 0.929 . S
C454 C453 1.380 . S
C454 C455 1.347 . S
C454 H477 0.931 . S
C455 C454 1.347 . S
C455 C456 1.369 . S
C456 C455 1.369 . S
C456 C457 1.408 . S
C456 H478 0.930 . S
C457 C452 1.348 . S
C457 C456 1.408 . S
C457 H479 0.930 . S
C458 O468 1.281 . S
C458 O469 1.254 . S
C459 O470 1.236 . S
C459 O471 1.266 . S
O460 Tb440 2.484 . S
O460 C442 1.259 . S
O461 Tb440 2.440 . S
O461 C442 1.273 . S
O462 Tb440 2.658 . S
O462 Tb441 2.325 . S
O462 C449 1.281 . S
O463 Tb440 2.409 . S
O463 C449 1.254 . S
O464 Tb440 2.378 . S
O464 C450 1.236 . S
O465 Tb441 2.341 . S
O465 C450 1.266 . S
O466 Tb441 2.484 . S
O466 C451 1.248 . S
O467 Tb441 2.440 . S
O467 C451 1.266 . S
O468 Tb440 2.325 . S
O468 Tb441 2.658 . S
O468 C458 1.281 . S
O469 Tb441 2.409 . S
O469 C458 1.254 . S
O470 Tb441 2.378 . S
O470 C459 1.236 . S
O471 Tb440 2.341 . S
O471 C459 1.266 . S
H472 C444 0.929 . S
H473 C445 0.931 . S
H474 C447 0.930 . S
H475 C448 0.930 . S
H476 C453 0.929 . S
H477 C454 0.931 . S
H478 C456 0.930 . S
H479 C457 0.930 . S
Tb480 C482 2.809 . S
Tb480 O500 2.484 . S
Tb480 O501 2.440 . S
Tb480 O502 2.658 . S
Tb480 O503 2.409 . S
Tb480 O504 2.378 . S
Tb480 O508 2.325 . S
Tb480 O511 2.341 . S
Tb481 C491 2.809 1_554 S
Tb481 O502 2.325 . S
Tb481 O505 2.341 . S
Tb481 O506 2.484 1_554 S
Tb481 O507 2.440 1_554 S
Tb481 O508 2.658 . S
Tb481 O509 2.409 . S
Tb481 O510 2.378 . S
C482 Tb480 2.809 . S
C482 C483 1.514 . S
C482 O500 1.248 . S
C482 O501 1.266 . S
C483 C482 1.514 . S
C483 C484 1.359 . S
C483 C488 1.348 . S
C484 C483 1.359 . S
C484 C485 1.380 . S
C484 H512 0.929 . S
C485 C484 1.380 . S
C485 C486 1.347 . S
C485 H513 0.931 . S
C486 C485 1.347 . S
C486 C487 1.369 . S
C487 C486 1.369 . S
C487 C488 1.408 . S
C487 H514 0.930 . S
C488 C483 1.348 . S
C488 C487 1.408 . S
C488 H515 0.930 . S
C489 O502 1.281 . S
C489 O503 1.254 . S
C490 O504 1.236 . S
C490 O505 1.266 . S
C491 Tb481 2.809 1_556 S
C491 C492 1.514 . S
C491 O506 1.248 . S
C491 O507 1.266 . S
C492 C491 1.514 . S
C492 C493 1.359 . S
C492 C497 1.348 . S
C493 C492 1.359 . S
C493 C494 1.380 . S
C493 H516 0.929 . S
C494 C493 1.380 . S
C494 C495 1.347 . S
C494 H517 0.931 . S
C495 C494 1.347 . S
C495 C496 1.369 . S
C496 C495 1.369 . S
C496 C497 1.408 . S
C496 H518 0.930 . S
C497 C492 1.348 . S
C497 C496 1.408 . S
C497 H519 0.930 . S
C498 O508 1.281 . S
C498 O509 1.254 . S
C499 O510 1.236 . S
C499 O511 1.266 . S
O500 Tb480 2.484 . S
O500 C482 1.248 . S
O501 Tb480 2.440 . S
O501 C482 1.266 . S
O502 Tb480 2.658 . S
O502 Tb481 2.325 . S
O502 C489 1.281 . S
O503 Tb480 2.409 . S
O503 C489 1.254 . S
O504 Tb480 2.378 . S
O504 C490 1.236 . S
O505 Tb481 2.341 . S
O505 C490 1.266 . S
O506 Tb481 2.484 1_556 S
O506 C491 1.248 . S
O507 Tb481 2.440 1_556 S
O507 C491 1.266 . S
O508 Tb480 2.325 . S
O508 Tb481 2.658 . S
O508 C498 1.281 . S
O509 Tb481 2.409 . S
O509 C498 1.254 . S
O510 Tb481 2.378 . S
O510 C499 1.236 . S
O511 Tb480 2.341 . S
O511 C499 1.266 . S
H512 C484 0.929 . S
H513 C485 0.931 . S
H514 C487 0.930 . S
H515 C488 0.930 . S
H516 C493 0.929 . S
H517 C494 0.931 . S
H518 C496 0.930 . S
H519 C497 0.930 . S
Tb520 C522 2.809 1_554 S
Tb520 O540 2.484 1_554 S
Tb520 O541 2.440 1_554 S
Tb520 O542 2.658 . S
Tb520 O543 2.409 . S
Tb520 O544 2.378 . S
Tb520 O548 2.325 . S
Tb520 O551 2.341 . S
Tb521 C531 2.809 . S
Tb521 O542 2.325 . S
Tb521 O545 2.341 . S
Tb521 O546 2.484 . S
Tb521 O547 2.440 . S
Tb521 O548 2.658 . S
Tb521 O549 2.409 . S
Tb521 O550 2.378 . S
C522 Tb520 2.809 1_556 S
C522 C523 1.514 . S
C522 O540 1.248 . S
C522 O541 1.266 . S
C523 C522 1.514 . S
C523 C524 1.359 . S
C523 C528 1.348 . S
C524 C523 1.359 . S
C524 C525 1.380 . S
C524 H552 0.929 . S
C525 C524 1.380 . S
C525 C526 1.347 . S
C525 H553 0.931 . S
C526 C525 1.347 . S
C526 C527 1.369 . S
C527 C526 1.369 . S
C527 C528 1.408 . S
C527 H554 0.930 . S
C528 C523 1.348 . S
C528 C527 1.408 . S
C528 H555 0.930 . S
C529 O542 1.281 . S
C529 O543 1.254 . S
C530 O544 1.236 . S
C530 O545 1.266 . S
C531 Tb521 2.809 . S
C531 C532 1.514 . S
C531 O546 1.248 . S
C531 O547 1.266 . S
C532 C531 1.514 . S
C532 C533 1.359 . S
C532 C537 1.348 . S
C533 C532 1.359 . S
C533 C534 1.380 . S
C533 H556 0.929 . S
C534 C533 1.380 . S
C534 C535 1.347 . S
C534 H557 0.931 . S
C535 C534 1.347 . S
C535 C536 1.369 . S
C536 C535 1.369 . S
C536 C537 1.408 . S
C536 H558 0.930 . S
C537 C532 1.348 . S
C537 C536 1.408 . S
C537 H559 0.930 . S
C538 O548 1.281 . S
C538 O549 1.254 . S
C539 O550 1.236 . S
C539 O551 1.266 . S
O540 Tb520 2.484 1_556 S
O540 C522 1.248 . S
O541 Tb520 2.440 1_556 S
O541 C522 1.266 . S
O542 Tb520 2.658 . S
O542 Tb521 2.325 . S
O542 C529 1.281 . S
O543 Tb520 2.409 . S
O543 C529 1.254 . S
O544 Tb520 2.378 . S
O544 C530 1.236 . S
O545 Tb521 2.341 . S
O545 C530 1.266 . S
O546 Tb521 2.484 . S
O546 C531 1.248 . S
O547 Tb521 2.440 . S
O547 C531 1.266 . S
O548 Tb520 2.325 . S
O548 Tb521 2.658 . S
O548 C538 1.281 . S
O549 Tb521 2.409 . S
O549 C538 1.254 . S
O550 Tb521 2.378 . S
O550 C539 1.236 . S
O551 Tb520 2.341 . S
O551 C539 1.266 . S
H552 C524 0.929 . S
H553 C525 0.931 . S
H554 C527 0.930 . S
H555 C528 0.930 . S
H556 C533 0.929 . S
H557 C534 0.931 . S
H558 C536 0.930 . S
H559 C537 0.930 . S
Tb560 C562 2.809 . S
Tb560 O580 2.484 . S
Tb560 O581 2.440 . S
Tb560 O582 2.658 . S
Tb560 O583 2.409 . S
Tb560 O584 2.378 . S
Tb560 O588 2.325 . S
Tb560 O591 2.341 . S
Tb561 C571 2.809 1_554 S
Tb561 O582 2.325 . S
Tb561 O585 2.341 . S
Tb561 O586 2.484 . S
Tb561 O587 2.440 . S
Tb561 O588 2.658 . S
Tb561 O589 2.409 . S
Tb561 O590 2.378 . S
C562 Tb560 2.809 . S
C562 C563 1.514 . S
C562 O580 1.248 . S
C562 O581 1.266 . S
C563 C562 1.514 . S
C563 C564 1.359 . S
C563 C568 1.348 . S
C564 C563 1.359 . S
C564 C565 1.380 . S
C564 H592 0.929 . S
C565 C564 1.380 . S
C565 C566 1.347 . S
C565 H593 0.931 . S
C566 C565 1.347 . S
C566 C567 1.369 . S
C567 C566 1.369 . S
C567 C568 1.408 . S
C567 H594 0.930 . S
C568 C563 1.348 . S
C568 C567 1.408 . S
C568 H595 0.930 . S
C569 O582 1.281 . S
C569 O583 1.254 . S
C570 O584 1.236 . S
C570 O585 1.266 . S
C571 Tb561 2.809 1_556 S
C571 C572 1.514 . S
C571 O586 1.248 1_556 S
C571 O587 1.266 1_556 S
C572 C571 1.514 . S
C572 C573 1.359 . S
C572 C577 1.348 . S
C573 C572 1.359 . S
C573 C574 1.380 . S
C573 H596 0.929 . S
C574 C573 1.380 . S
C574 C575 1.347 . S
C574 H597 0.931 . S
C575 C574 1.347 . S
C575 C576 1.369 . S
C576 C575 1.369 . S
C576 C577 1.408 . S
C576 H598 0.930 . S
C577 C572 1.348 . S
C577 C576 1.408 . S
C577 H599 0.930 . S
C578 O588 1.281 . S
C578 O589 1.254 . S
C579 O590 1.236 . S
C579 O591 1.266 . S
O580 Tb560 2.484 . S
O580 C562 1.248 . S
O581 Tb560 2.440 . S
O581 C562 1.266 . S
O582 Tb560 2.658 . S
O582 Tb561 2.325 . S
O582 C569 1.281 . S
O583 Tb560 2.409 . S
O583 C569 1.254 . S
O584 Tb560 2.378 . S
O584 C570 1.236 . S
O585 Tb561 2.341 . S
O585 C570 1.266 . S
O586 Tb561 2.484 . S
O586 C571 1.248 1_554 S
O587 Tb561 2.440 . S
O587 C571 1.266 1_554 S
O588 Tb560 2.325 . S
O588 Tb561 2.658 . S
O588 C578 1.281 . S
O589 Tb561 2.409 . S
O589 C578 1.254 . S
O590 Tb561 2.378 . S
O590 C579 1.236 . S
O591 Tb560 2.341 . S
O591 C579 1.266 . S
H592 C564 0.929 . S
H593 C565 0.931 . S
H594 C567 0.930 . S
H595 C568 0.930 . S
H596 C573 0.929 . S
H597 C574 0.931 . S
H598 C576 0.930 . S
H599 C577 0.930 . S
Tb600 C602 2.809 . S
Tb600 O620 2.484 . S
Tb600 O621 2.440 . S
Tb600 O622 2.658 . S
Tb600 O623 2.409 . S
Tb600 O624 2.378 . S
Tb600 O628 2.325 . S
Tb600 O631 2.341 . S
Tb601 C611 2.809 1_554 S
Tb601 O622 2.325 . S
Tb601 O625 2.341 . S
Tb601 O626 2.484 . S
Tb601 O627 2.440 . S
Tb601 O628 2.658 . S
Tb601 O629 2.409 . S
Tb601 O630 2.378 . S
C602 Tb600 2.809 . S
C602 C603 1.514 . S
C602 O620 1.248 . S
C602 O621 1.266 . S
C603 C602 1.514 . S
C603 C604 1.359 . S
C603 C608 1.348 . S
C604 C603 1.359 . S
C604 C605 1.380 . S
C604 H632 0.929 . S
C605 C604 1.380 . S
C605 C606 1.347 . S
C605 H633 0.931 . S
C606 C605 1.347 . S
C606 C607 1.369 . S
C607 C606 1.369 . S
C607 C608 1.408 . S
C607 H634 0.930 . S
C608 C603 1.348 . S
C608 C607 1.408 . S
C608 H635 0.930 . S
C609 O622 1.281 . S
C609 O623 1.254 . S
C610 O624 1.236 . S
C610 O625 1.266 . S
C611 Tb601 2.809 1_556 S
C611 C612 1.514 . S
C611 O626 1.248 1_556 S
C611 O627 1.266 1_556 S
C612 C611 1.514 . S
C612 C613 1.359 . S
C612 C617 1.348 . S
C613 C612 1.359 . S
C613 C614 1.380 . S
C613 H636 0.929 . S
C614 C613 1.380 . S
C614 C615 1.347 . S
C614 H637 0.931 . S
C615 C614 1.347 . S
C615 C616 1.369 . S
C616 C615 1.369 . S
C616 C617 1.408 . S
C616 H638 0.930 . S
C617 C612 1.348 . S
C617 C616 1.408 . S
C617 H639 0.930 . S
C618 O628 1.281 . S
C618 O629 1.254 . S
C619 O630 1.236 . S
C619 O631 1.266 . S
O620 Tb600 2.484 . S
O620 C602 1.248 . S
O621 Tb600 2.440 . S
O621 C602 1.266 . S
O622 Tb600 2.658 . S
O622 Tb601 2.325 . S
O622 C609 1.281 . S
O623 Tb600 2.409 . S
O623 C609 1.254 . S
O624 Tb600 2.378 . S
O624 C610 1.236 . S
O625 Tb601 2.341 . S
O625 C610 1.266 . S
O626 Tb601 2.484 . S
O626 C611 1.248 1_554 S
O627 Tb601 2.440 . S
O627 C611 1.266 1_554 S
O628 Tb600 2.325 . S
O628 Tb601 2.658 . S
O628 C618 1.281 . S
O629 Tb601 2.409 . S
O629 C618 1.254 . S
O630 Tb601 2.378 . S
O630 C619 1.236 . S
O631 Tb600 2.341 . S
O631 C619 1.266 . S
H632 C604 0.929 . S
H633 C605 0.931 . S
H634 C607 0.930 . S
H635 C608 0.930 . S
H636 C613 0.929 . S
H637 C614 0.931 . S
H638 C616 0.930 . S
H639 C617 0.930 . S
Tb640 C642 2.809 . S
Tb640 O660 2.484 . S
Tb640 O661 2.440 . S
Tb640 O662 2.658 . S
Tb640 O663 2.409 . S
Tb640 O664 2.378 . S
Tb640 O668 2.325 . S
Tb640 O671 2.341 . S
Tb641 C651 2.809 . S
Tb641 O662 2.325 . S
Tb641 O665 2.341 . S
Tb641 O666 2.484 . S
Tb641 O667 2.440 . S
Tb641 O668 2.658 . S
Tb641 O669 2.409 . S
Tb641 O670 2.378 . S
C642 Tb640 2.809 . S
C642 C643 1.514 1_554 S
C642 O660 1.248 . S
C642 O661 1.266 . S
C643 C642 1.514 1_556 S
C643 C644 1.359 . S
C643 C648 1.348 . S
C644 C643 1.359 . S
C644 C645 1.380 . S
C644 H672 0.929 . S
C645 C644 1.380 . S
C645 C646 1.347 . S
C645 H673 0.931 . S
C646 C645 1.347 . S
C646 C647 1.369 . S
C647 C646 1.369 . S
C647 C648 1.408 . S
C647 H674 0.930 . S
C648 C643 1.348 . S
C648 C647 1.408 . S
C648 H675 0.930 . S
C649 O662 1.281 . S
C649 O663 1.254 . S
C650 O664 1.236 . S
C650 O665 1.266 . S
C651 Tb641 2.809 . S
C651 C652 1.514 . S
C651 O666 1.248 . S
C651 O667 1.266 . S
C652 C651 1.514 . S
C652 C653 1.359 . S
C652 C657 1.348 . S
C653 C652 1.359 . S
C653 C654 1.380 . S
C653 H676 0.929 . S
C654 C653 1.380 . S
C654 C655 1.347 . S
C654 H677 0.931 . S
C655 C654 1.347 . S
C655 C656 1.369 . S
C656 C655 1.369 . S
C656 C657 1.408 . S
C656 H678 0.930 . S
C657 C652 1.348 . S
C657 C656 1.408 . S
C657 H679 0.930 . S
C658 O668 1.281 . S
C658 O669 1.254 . S
C659 O670 1.236 . S
C659 O671 1.266 . S
O660 Tb640 2.484 . S
O660 C642 1.248 . S
O661 Tb640 2.440 . S
O661 C642 1.266 . S
O662 Tb640 2.658 . S
O662 Tb641 2.325 . S
O662 C649 1.281 . S
O663 Tb640 2.409 . S
O663 C649 1.254 . S
O664 Tb640 2.378 . S
O664 C650 1.236 . S
O665 Tb641 2.341 . S
O665 C650 1.266 . S
O666 Tb641 2.484 . S
O666 C651 1.248 . S
O667 Tb641 2.440 . S
O667 C651 1.266 . S
O668 Tb640 2.325 . S
O668 Tb641 2.658 . S
O668 C658 1.281 . S
O669 Tb641 2.409 . S
O669 C658 1.254 . S
O670 Tb641 2.378 . S
O670 C659 1.236 . S
O671 Tb640 2.341 . S
O671 C659 1.266 . S
H672 C644 0.929 . S
H673 C645 0.931 . S
H674 C647 0.930 . S
H675 C648 0.930 . S
H676 C653 0.929 . S
H677 C654 0.931 . S
H678 C656 0.930 . S
H679 C657 0.930 . S
Tb680 C682 2.809 . S
Tb680 O700 2.484 . S
Tb680 O701 2.440 . S
Tb680 O702 2.658 . S
Tb680 O703 2.409 . S
Tb680 O704 2.378 . S
Tb680 O708 2.325 . S
Tb680 O711 2.341 . S
Tb681 C691 2.809 . S
Tb681 O702 2.325 . S
Tb681 O705 2.341 . S
Tb681 O706 2.484 . S
Tb681 O707 2.440 . S
Tb681 O708 2.658 . S
Tb681 O709 2.409 . S
Tb681 O710 2.378 . S
C682 Tb680 2.809 . S
C682 C683 1.514 . S
C682 O700 1.248 . S
C682 O701 1.266 . S
C683 C682 1.514 . S
C683 C684 1.359 . S
C683 C688 1.348 . S
C684 C683 1.359 . S
C684 C685 1.380 . S
C684 H712 0.929 . S
C685 C684 1.380 . S
C685 C686 1.347 . S
C685 H713 0.931 . S
C686 C685 1.347 . S
C686 C687 1.369 . S
C687 C686 1.369 . S
C687 C688 1.408 . S
C687 H714 0.930 . S
C688 C683 1.348 . S
C688 C687 1.408 . S
C688 H715 0.930 . S
C689 O702 1.281 . S
C689 O703 1.254 . S
C690 O704 1.236 . S
C690 O705 1.266 . S
C691 Tb681 2.809 . S
C691 C692 1.514 1_554 S
C691 O706 1.248 . S
C691 O707 1.266 . S
C692 C691 1.514 1_556 S
C692 C693 1.359 . S
C692 C697 1.348 . S
C693 C692 1.359 . S
C693 C694 1.380 . S
C693 H716 0.929 . S
C694 C693 1.380 . S
C694 C695 1.347 . S
C694 H717 0.931 . S
C695 C694 1.347 . S
C695 C696 1.369 . S
C696 C695 1.369 . S
C696 C697 1.408 . S
C696 H718 0.930 . S
C697 C692 1.348 . S
C697 C696 1.408 . S
C697 H719 0.930 . S
C698 O708 1.281 . S
C698 O709 1.254 . S
C699 O710 1.236 . S
C699 O711 1.266 . S
O700 Tb680 2.484 . S
O700 C682 1.248 . S
O701 Tb680 2.440 . S
O701 C682 1.266 . S
O702 Tb680 2.658 . S
O702 Tb681 2.325 . S
O702 C689 1.281 . S
O703 Tb680 2.409 . S
O703 C689 1.254 . S
O704 Tb680 2.378 . S
O704 C690 1.236 . S
O705 Tb681 2.341 . S
O705 C690 1.266 . S
O706 Tb681 2.484 . S
O706 C691 1.248 . S
O707 Tb681 2.440 . S
O707 C691 1.266 . S
O708 Tb680 2.325 . S
O708 Tb681 2.658 . S
O708 C698 1.281 . S
O709 Tb681 2.409 . S
O709 C698 1.254 . S
O710 Tb681 2.378 . S
O710 C699 1.236 . S
O711 Tb680 2.341 . S
O711 C699 1.266 . S
H712 C684 0.929 . S
H713 C685 0.931 . S
H714 C687 0.930 . S
H715 C688 0.930 . S
H716 C693 0.929 . S
H717 C694 0.931 . S
H718 C696 0.930 . S
H719 C697 0.930 . S
C720 C721 1.369 . S
C720 C722 1.419 . S
C720 H724 0.930 . S
C721 C720 1.369 . S
C721 C730 1.429 . S
C722 C720 1.419 . S
C722 C723 1.363 . S
C722 H725 0.929 . S
C723 C722 1.363 . S
C723 C729 1.428 . S
H724 C720 0.930 . S
H725 C722 0.929 . S
S726 N727 1.613 . S
S726 N728 1.610 . S
N727 S726 1.613 . S
N727 C730 1.350 . S
N728 S726 1.610 . S
N728 C729 1.351 . S
C729 C723 1.428 . S
C729 N728 1.351 . S
C729 C730 1.434 . S
C730 C721 1.429 . S
C730 N727 1.350 . S
C730 C729 1.434 . S
C731 C732 1.369 . S
C731 C733 1.419 . S
C731 H735 0.930 . S
C732 C731 1.369 . S
C732 C741 1.429 . S
C733 C731 1.419 . S
C733 C734 1.363 . S
C733 H736 0.929 . S
C734 C733 1.363 . S
C734 C740 1.428 . S
H735 C731 0.930 . S
H736 C733 0.929 . S
S737 N738 1.613 . S
S737 N739 1.610 . S
N738 S737 1.613 . S
N738 C741 1.350 . S
N739 S737 1.610 . S
N739 C740 1.351 . S
C740 C734 1.428 . S
C740 N739 1.351 . S
C740 C741 1.434 . S
C741 C732 1.429 . S
C741 N738 1.350 . S
C741 C740 1.434 . S
C742 C743 1.369 . S
C742 C744 1.419 . S
C742 H746 0.930 . S
C743 C742 1.369 . S
C743 C752 1.429 . S
C744 C742 1.419 . S
C744 C745 1.363 . S
C744 H747 0.929 . S
C745 C744 1.363 . S
C745 C751 1.428 . S
H746 C742 0.930 . S
H747 C744 0.929 . S
S748 N749 1.613 . S
S748 N750 1.610 . S
N749 S748 1.613 . S
N749 C752 1.350 . S
N750 S748 1.610 . S
N750 C751 1.351 . S
C751 C745 1.428 . S
C751 N750 1.351 . S
C751 C752 1.434 . S
C752 C743 1.429 . S
C752 N749 1.350 . S
C752 C751 1.434 . S
C753 C754 1.369 . S
C753 C755 1.419 . S
C753 H757 0.930 . S
C754 C753 1.369 . S
C754 C763 1.429 . S
C755 C753 1.419 . S
C755 C756 1.363 . S
C755 H758 0.929 . S
C756 C755 1.363 . S
C756 C762 1.428 . S
H757 C753 0.930 . S
H758 C755 0.929 . S
S759 N760 1.613 . S
S759 N761 1.610 . S
N760 S759 1.613 . S
N760 C763 1.350 . S
N761 S759 1.610 . S
N761 C762 1.351 . S
C762 C756 1.428 . S
C762 N761 1.351 . S
C762 C763 1.434 . S
C763 C754 1.429 . S
C763 N760 1.350 . S
C763 C762 1.434 . S
C764 C765 1.369 . S
C764 C766 1.419 . S
C764 H768 0.930 . S
C765 C764 1.369 . S
C765 C774 1.429 . S
C766 C764 1.419 . S
C766 C767 1.363 . S
C766 H769 0.929 . S
C767 C766 1.363 . S
C767 C773 1.428 . S
H768 C764 0.930 . S
H769 C766 0.929 . S
S770 N771 1.613 . S
S770 N772 1.610 . S
N771 S770 1.613 . S
N771 C774 1.350 . S
N772 S770 1.610 . S
N772 C773 1.351 . S
C773 C767 1.428 . S
C773 N772 1.351 . S
C773 C774 1.434 . S
C774 C765 1.429 . S
C774 N771 1.350 . S
C774 C773 1.434 . S
C775 C776 1.369 . S
C775 C777 1.419 . S
C775 H779 0.930 . S
C776 C775 1.369 . S
C776 C785 1.429 . S
C777 C775 1.419 . S
C777 C778 1.363 . S
C777 H780 0.929 . S
C778 C777 1.363 . S
C778 C784 1.428 . S
H779 C775 0.930 . S
H780 C777 0.929 . S
S781 N782 1.613 . S
S781 N783 1.610 . S
N782 S781 1.613 . S
N782 C785 1.350 . S
N783 S781 1.610 . S
N783 C784 1.351 . S
C784 C778 1.428 . S
C784 N783 1.351 . S
C784 C785 1.434 . S
C785 C776 1.429 . S
C785 N782 1.350 . S
C785 C784 1.434 . S
C786 C787 1.369 . S
C786 C788 1.419 . S
C786 H790 0.930 . S
C787 C786 1.369 . S
C787 C796 1.429 . S
C788 C786 1.419 . S
C788 C789 1.363 . S
C788 H791 0.929 . S
C789 C788 1.363 . S
C789 C795 1.428 . S
H790 C786 0.930 . S
H791 C788 0.929 . S
S792 N793 1.613 . S
S792 N794 1.610 . S
N793 S792 1.613 . S
N793 C796 1.350 . S
N794 S792 1.610 . S
N794 C795 1.351 . S
C795 C789 1.428 . S
C795 N794 1.351 . S
C795 C796 1.434 . S
C796 C787 1.429 . S
C796 N793 1.350 . S
C796 C795 1.434 . S
C797 C798 1.369 . S
C797 C799 1.419 . S
C797 H801 0.930 . S
C798 C797 1.369 . S
C798 C807 1.429 . S
C799 C797 1.419 . S
C799 C800 1.363 . S
C799 H802 0.929 . S
C800 C799 1.363 . S
C800 C806 1.428 . S
H801 C797 0.930 . S
H802 C799 0.929 . S
S803 N804 1.613 . S
S803 N805 1.610 . S
N804 S803 1.613 . S
N804 C807 1.350 . S
N805 S803 1.610 . S
N805 C806 1.351 . S
C806 C800 1.428 . S
C806 N805 1.351 . S
C806 C807 1.434 . S
C807 C798 1.429 . S
C807 N804 1.350 . S
C807 C806 1.434 . S
C808 C809 1.369 . S
C808 C810 1.419 . S
C808 H812 0.930 . S
C809 C808 1.369 . S
C809 C818 1.429 . S
C810 C808 1.419 . S
C810 C811 1.363 . S
C810 H813 0.929 . S
C811 C810 1.363 . S
C811 C817 1.428 . S
H812 C808 0.930 . S
H813 C810 0.929 . S
S814 N815 1.613 1_565 S
S814 N816 1.610 1_565 S
N815 S814 1.613 1_545 S
N815 C818 1.350 . S
N816 S814 1.610 1_545 S
N816 C817 1.351 . S
C817 C811 1.428 . S
C817 N816 1.351 . S
C817 C818 1.434 . S
C818 C809 1.429 . S
C818 N815 1.350 . S
C818 C817 1.434 . S
C819 C820 1.369 . S
C819 C821 1.419 . S
C819 H823 0.930 . S
C820 C819 1.369 . S
C820 C829 1.429 . S
C821 C819 1.419 . S
C821 C822 1.363 . S
C821 H824 0.929 . S
C822 C821 1.363 . S
C822 C828 1.428 . S
H823 C819 0.930 . S
H824 C821 0.929 . S
S825 N826 1.613 . S
S825 N827 1.610 . S
N826 S825 1.613 . S
N826 C829 1.350 . S
N827 S825 1.610 . S
N827 C828 1.351 . S
C828 C822 1.428 . S
C828 N827 1.351 . S
C828 C829 1.434 . S
C829 C820 1.429 . S
C829 N826 1.350 . S
C829 C828 1.434 . S
C830 C831 1.369 . S
C830 C832 1.419 . S
C830 H834 0.930 . S
C831 C830 1.369 . S
C831 C840 1.429 . S
C832 C830 1.419 . S
C832 C833 1.363 . S
C832 H835 0.929 . S
C833 C832 1.363 . S
C833 C839 1.428 . S
H834 C830 0.930 . S
H835 C832 0.929 . S
S836 N837 1.613 . S
S836 N838 1.610 . S
N837 S836 1.613 . S
N837 C840 1.350 . S
N838 S836 1.610 . S
N838 C839 1.351 . S
C839 C833 1.428 . S
C839 N838 1.351 . S
C839 C840 1.434 . S
C840 C831 1.429 . S
C840 N837 1.350 . S
C840 C839 1.434 . S
C841 C842 1.369 . S
C841 C843 1.419 . S
C841 H845 0.930 . S
C842 C841 1.369 . S
C842 C851 1.429 . S
C843 C841 1.419 . S
C843 C844 1.363 . S
C843 H846 0.929 . S
C844 C843 1.363 . S
C844 C850 1.428 . S
H845 C841 0.930 . S
H846 C843 0.929 . S
S847 N848 1.613 . S
S847 N849 1.610 . S
N848 S847 1.613 . S
N848 C851 1.350 . S
N849 S847 1.610 . S
N849 C850 1.351 . S
C850 C844 1.428 . S
C850 N849 1.351 . S
C850 C851 1.434 . S
C851 C842 1.429 . S
C851 N848 1.350 . S
C851 C850 1.434 . S
C852 C853 1.369 . S
C852 C854 1.419 1_556 S
C852 H856 0.930 . S
C853 C852 1.369 . S
C853 C862 1.429 1_655 S
C854 C852 1.419 1_554 S
C854 C855 1.363 1_655 S
C854 H857 0.929 . S
C855 C854 1.363 1_455 S
C855 C861 1.428 1_554 S
H856 C852 0.930 . S
H857 C854 0.929 . S
S858 N859 1.613 . S
S858 N860 1.610 . S
N859 S858 1.613 . S
N859 C862 1.350 . S
N860 S858 1.610 . S
N860 C861 1.351 . S
C861 C855 1.428 1_556 S
C861 N860 1.351 . S
C861 C862 1.434 . S
C862 C853 1.429 1_455 S
C862 N859 1.350 . S
C862 C861 1.434 . S
C863 C864 1.369 . S
C863 C865 1.419 1_556 S
C863 H867 0.930 . S
C864 C863 1.369 . S
C864 C873 1.429 . S
C865 C863 1.419 1_554 S
C865 C866 1.363 . S
C865 H868 0.929 . S
C866 C865 1.363 . S
C866 C872 1.428 1_554 S
H867 C863 0.930 . S
H868 C865 0.929 . S
S869 N870 1.613 . S
S869 N871 1.610 . S
N870 S869 1.613 . S
N870 C873 1.350 . S
N871 S869 1.610 . S
N871 C872 1.351 . S
C872 C866 1.428 1_556 S
C872 N871 1.351 . S
C872 C873 1.434 . S
C873 C864 1.429 . S
C873 N870 1.350 . S
C873 C872 1.434 . S
C874 C875 1.369 1_565 S
C874 C876 1.419 . S
C874 H878 0.930 . S
C875 C874 1.369 1_545 S
C875 C884 1.429 . S
C876 C874 1.419 . S
C876 C877 1.363 1_556 S
C876 H879 0.929 . S
C877 C876 1.363 1_554 S
C877 C883 1.428 1_565 S
H878 C874 0.930 . S
H879 C876 0.929 . S
S880 N881 1.613 1_554 S
S880 N882 1.610 . S
N881 S880 1.613 1_556 S
N881 C884 1.350 . S
N882 S880 1.610 . S
N882 C883 1.351 . S
C883 C877 1.428 1_545 S
C883 N882 1.351 . S
C883 C884 1.434 1_554 S
C884 C875 1.429 . S
C884 N881 1.350 . S
C884 C883 1.434 1_556 S
C885 C886 1.369 1_554 S
C885 C887 1.419 . S
C885 H889 0.930 . S
C886 C885 1.369 1_556 S
C886 C895 1.429 1_545 S
C887 C885 1.419 . S
C887 C888 1.363 1_545 S
C887 H890 0.929 . S
C888 C887 1.363 1_565 S
C888 C894 1.428 . S
H889 C885 0.930 . S
H890 C887 0.929 . S
S891 N892 1.613 . S
S891 N893 1.610 1_556 S
N892 S891 1.613 . S
N892 C895 1.350 . S
N893 S891 1.610 1_554 S
N893 C894 1.351 . S
C894 C888 1.428 . S
C894 N893 1.351 . S
C894 C895 1.434 1_554 S
C895 C886 1.429 1_565 S
C895 N892 1.350 . S
C895 C894 1.434 1_556 S
C896 C897 1.369 . S
C896 C898 1.419 1_455 S
C896 H900 0.930 . S
C897 C896 1.369 . S
C897 C906 1.429 . S
C898 C896 1.419 1_655 S
C898 C899 1.363 1_554 S
C898 H901 0.929 1_554 S
C899 C898 1.363 1_556 S
C899 C905 1.426 1_556 S
H900 C896 0.930 . S
H901 C898 0.929 1_556 S
S902 N903 1.613 . S
S902 N904 1.610 1_454 S
N903 S902 1.613 . S
N903 C906 1.350 . S
N904 S902 1.610 1_656 S
N904 C905 1.369 1_556 S
C905 C899 1.426 1_554 S
C905 N904 1.369 1_554 S
C905 C906 1.420 1_655 S
C906 C897 1.429 . S
C906 N903 1.350 . S
C906 C905 1.420 1_455 S
C907 C908 1.369 . S
C907 C909 1.416 1_554 S
C907 H911 0.930 . S
C908 C907 1.369 . S
C908 C917 1.429 . S
C909 C907 1.416 1_556 S
C909 C910 1.365 . S
C909 H912 0.930 . S
C910 C909 1.365 . S
C910 C916 1.428 . S
H911 C907 0.930 . S
H912 C909 0.930 . S
S913 N914 1.613 1_556 S
S913 N915 1.610 . S
N914 S913 1.613 1_554 S
N914 C917 1.350 . S
N915 S913 1.610 . S
N915 C916 1.351 . S
C916 C910 1.428 . S
C916 N915 1.351 . S
C916 C917 1.434 1_556 S
C917 C908 1.429 . S
C917 N914 1.350 . S
C917 C916 1.434 1_554 S
C918 C919 1.369 . S
C918 C920 1.419 . S
C918 H922 0.930 . S
C919 C918 1.369 . S
C919 C928 1.429 . S
C920 C918 1.419 . S
C920 C921 1.363 . S
C920 H923 0.929 . S
C921 C920 1.363 . S
C921 C927 1.428 . S
H922 C918 0.930 . S
H923 C920 0.929 . S
S924 N925 1.613 . S
S924 N926 1.610 . S
N925 S924 1.613 . S
N925 C928 1.350 . S
N926 S924 1.610 . S
N926 C927 1.351 . S
C927 C921 1.428 . S
C927 N926 1.351 . S
C927 C928 1.434 . S
C928 C919 1.429 . S
C928 N925 1.350 . S
C928 C927 1.434 . S
C929 C930 1.369 . S
C929 C931 1.419 . S
C929 H933 0.930 . S
C930 C929 1.369 . S
C930 C939 1.429 . S
C931 C929 1.419 . S
C931 C932 1.363 . S
C931 H934 0.929 . S
C932 C931 1.363 . S
C932 C938 1.428 . S
H933 C929 0.930 . S
H934 C931 0.929 . S
S935 N936 1.613 . S
S935 N937 1.610 . S
N936 S935 1.613 . S
N936 C939 1.350 . S
N937 S935 1.610 . S
N937 C938 1.351 . S
C938 C932 1.428 . S
C938 N937 1.351 . S
C938 C939 1.434 . S
C939 C930 1.429 . S
C939 N936 1.350 . S
C939 C938 1.434 . S
C940 C941 1.369 . S
C940 C942 1.419 . S
C940 H944 0.930 . S
C941 C940 1.369 . S
C941 C950 1.429 . S
C942 C940 1.419 . S
C942 C943 1.363 . S
C942 H945 0.929 . S
C943 C942 1.363 . S
C943 C949 1.428 . S
H944 C940 0.930 . S
H945 C942 0.929 . S
S946 N947 1.613 . S
S946 N948 1.610 . S
N947 S946 1.613 . S
N947 C950 1.350 . S
N948 S946 1.610 . S
N948 C949 1.351 . S
C949 C943 1.428 . S
C949 N948 1.351 . S
C949 C950 1.434 . S
C950 C941 1.429 . S
C950 N947 1.350 . S
C950 C949 1.434 . S
C951 C952 1.369 . S
C951 C953 1.419 . S
C951 H955 0.930 . S
C952 C951 1.369 . S
C952 C961 1.429 . S
C953 C951 1.419 . S
C953 C954 1.363 . S
C953 H956 0.929 . S
C954 C953 1.363 . S
C954 C960 1.428 . S
H955 C951 0.930 . S
H956 C953 0.929 . S
S957 N958 1.613 . S
S957 N959 1.610 . S
N958 S957 1.613 . S
N958 C961 1.350 . S
N959 S957 1.610 . S
N959 C960 1.351 . S
C960 C954 1.428 . S
C960 N959 1.351 . S
C960 C961 1.434 . S
C961 C952 1.429 . S
C961 N958 1.350 . S
C961 C960 1.434 . S
C962 C963 1.369 . S
C962 C964 1.419 . S
C962 H966 0.930 . S
C963 C962 1.369 . S
C963 C972 1.429 . S
C964 C962 1.419 . S
C964 C965 1.363 . S
C964 H967 0.929 . S
C965 C964 1.363 . S
C965 C971 1.428 . S
H966 C962 0.930 . S
H967 C964 0.929 . S
S968 N969 1.613 . S
S968 N970 1.610 . S
N969 S968 1.613 . S
N969 C972 1.350 . S
N970 S968 1.610 . S
N970 C971 1.351 . S
C971 C965 1.428 . S
C971 N970 1.351 . S
C971 C972 1.434 . S
C972 C963 1.429 . S
C972 N969 1.350 . S
C972 C971 1.434 . S
C973 C974 1.369 . S
C973 C975 1.419 . S
C973 H977 0.930 . S
C974 C973 1.369 . S
C974 C983 1.429 . S
C975 C973 1.419 . S
C975 C976 1.363 . S
C975 H978 0.929 . S
C976 C975 1.363 . S
C976 C982 1.428 . S
H977 C973 0.930 . S
H978 C975 0.929 . S
S979 N980 1.613 . S
S979 N981 1.610 . S
N980 S979 1.613 . S
N980 C983 1.350 . S
N981 S979 1.610 . S
N981 C982 1.351 . S
C982 C976 1.428 . S
C982 N981 1.351 . S
C982 C983 1.434 . S
C983 C974 1.429 . S
C983 N980 1.350 . S
C983 C982 1.434 . S
C984 C985 1.369 . S
C984 C986 1.419 . S
C984 H988 0.930 . S
C985 C984 1.369 . S
C985 C994 1.429 . S
C986 C984 1.419 . S
C986 C987 1.363 . S
C986 H989 0.929 . S
C987 C986 1.363 . S
C987 C993 1.428 . S
H988 C984 0.930 . S
H989 C986 0.929 . S
S990 N991 1.613 . S
S990 N992 1.610 . S
N991 S990 1.613 . S
N991 C994 1.350 . S
N992 S990 1.610 . S
N992 C993 1.351 . S
C993 C987 1.428 . S
C993 N992 1.351 . S
C993 C994 1.434 . S
C994 C985 1.429 . S
C994 N991 1.350 . S
C994 C993 1.434 . S
C995 C996 1.369 . S
C995 C997 1.419 . S
C995 H999 0.930 . S
C996 C995 1.369 . S
C996 C1005 1.429 . S
C997 C995 1.419 . S
C997 C998 1.363 . S
C997 H1000 0.929 . S
C998 C997 1.363 . S
C998 C1004 1.428 . S
H999 C995 0.930 . S
H1000 C997 0.929 . S
S1001 N1002 1.613 . S
S1001 N1003 1.610 . S
N1002 S1001 1.613 . S
N1002 C1005 1.350 . S
N1003 S1001 1.610 . S
N1003 C1004 1.351 . S
C1004 C998 1.428 . S
C1004 N1003 1.351 . S
C1004 C1005 1.434 . S
C1005 C996 1.429 . S
C1005 N1002 1.350 . S
C1005 C1004 1.434 . S
C1006 C1007 1.369 . S
C1006 C1008 1.419 . S
C1006 H1010 0.930 . S
C1007 C1006 1.369 . S
C1007 C1016 1.429 . S
C1008 C1006 1.419 . S
C1008 C1009 1.363 . S
C1008 H1011 0.929 . S
C1009 C1008 1.363 . S
C1009 C1015 1.428 . S
H1010 C1006 0.930 . S
H1011 C1008 0.929 . S
S1012 N1013 1.613 . S
S1012 N1014 1.610 . S
N1013 S1012 1.613 . S
N1013 C1016 1.350 . S
N1014 S1012 1.610 . S
N1014 C1015 1.351 . S
C1015 C1009 1.428 . S
C1015 N1014 1.351 . S
C1015 C1016 1.434 . S
C1016 C1007 1.429 . S
C1016 N1013 1.350 . S
C1016 C1015 1.434 . S
C1017 C1018 1.369 . S
C1017 C1019 1.419 . S
C1017 H1021 0.930 . S
C1018 C1017 1.369 . S
C1018 C1027 1.429 . S
C1019 C1017 1.419 . S
C1019 C1020 1.363 . S
C1019 H1022 0.929 . S
C1020 C1019 1.363 . S
C1020 C1026 1.428 . S
H1021 C1017 0.930 . S
H1022 C1019 0.929 . S
S1023 N1024 1.613 . S
S1023 N1025 1.610 . S
N1024 S1023 1.613 . S
N1024 C1027 1.350 . S
N1025 S1023 1.610 . S
N1025 C1026 1.351 . S
C1026 C1020 1.428 . S
C1026 N1025 1.351 . S
C1026 C1027 1.434 . S
C1027 C1018 1.429 . S
C1027 N1024 1.350 . S
C1027 C1026 1.434 . S
C1028 C1029 1.369 . S
C1028 C1030 1.419 . S
C1028 H1032 0.930 . S
C1029 C1028 1.369 . S
C1029 C1038 1.429 . S
C1030 C1028 1.419 . S
C1030 C1031 1.363 . S
C1030 H1033 0.929 . S
C1031 C1030 1.363 . S
C1031 C1037 1.428 . S
H1032 C1028 0.930 . S
H1033 C1030 0.929 . S
S1034 N1035 1.613 . S
S1034 N1036 1.610 . S
N1035 S1034 1.613 . S
N1035 C1038 1.350 . S
N1036 S1034 1.610 . S
N1036 C1037 1.351 . S
C1037 C1031 1.428 . S
C1037 N1036 1.351 . S
C1037 C1038 1.434 . S
C1038 C1029 1.429 . S
C1038 N1035 1.350 . S
C1038 C1037 1.434 . S
C1039 C1040 1.369 . S
C1039 C1041 1.419 . S
C1039 H1043 0.930 . S
C1040 C1039 1.369 . S
C1040 C1049 1.429 . S
C1041 C1039 1.419 . S
C1041 C1042 1.363 . S
C1041 H1044 0.929 . S
C1042 C1041 1.363 . S
C1042 C1048 1.428 . S
H1043 C1039 0.930 . S
H1044 C1041 0.929 . S
S1045 N1046 1.613 . S
S1045 N1047 1.610 . S
N1046 S1045 1.613 . S
N1046 C1049 1.350 . S
N1047 S1045 1.610 . S
N1047 C1048 1.351 . S
C1048 C1042 1.428 . S
C1048 N1047 1.351 . S
C1048 C1049 1.434 . S
C1049 C1040 1.429 . S
C1049 N1046 1.350 . S
C1049 C1048 1.434 . S
C1050 C1051 1.369 . S
C1050 C1052 1.419 . S
C1050 H1054 0.930 . S
C1051 C1050 1.369 . S
C1051 C1060 1.429 . S
C1052 C1050 1.419 . S
C1052 C1053 1.363 . S
C1052 H1055 0.929 . S
C1053 C1052 1.363 . S
C1053 C1059 1.428 . S
H1054 C1050 0.930 . S
H1055 C1052 0.929 . S
S1056 N1057 1.613 . S
S1056 N1058 1.610 . S
N1057 S1056 1.613 . S
N1057 C1060 1.350 . S
N1058 S1056 1.610 . S
N1058 C1059 1.351 . S
C1059 C1053 1.428 . S
C1059 N1058 1.351 . S
C1059 C1060 1.434 . S
C1060 C1051 1.429 . S
C1060 N1057 1.350 . S
C1060 C1059 1.434 . S
C1061 C1062 1.369 . S
C1061 C1063 1.419 . S
C1061 H1065 0.930 . S
C1062 C1061 1.369 . S
C1062 C1071 1.429 . S
C1063 C1061 1.419 . S
C1063 C1064 1.363 . S
C1063 H1066 0.929 . S
C1064 C1063 1.363 . S
C1064 C1070 1.428 . S
H1065 C1061 0.930 . S
H1066 C1063 0.929 . S
S1067 N1068 1.613 . S
S1067 N1069 1.610 . S
N1068 S1067 1.613 . S
N1068 C1071 1.350 . S
N1069 S1067 1.610 . S
N1069 C1070 1.351 . S
C1070 C1064 1.428 . S
C1070 N1069 1.351 . S
C1070 C1071 1.434 . S
C1071 C1062 1.429 . S
C1071 N1068 1.350 . S
C1071 C1070 1.434 . S
C1072 C1073 1.369 . S
C1072 C1074 1.419 . S
C1072 H1076 0.930 . S
C1073 C1072 1.369 . S
C1073 C1082 1.429 . S
C1074 C1072 1.419 . S
C1074 C1075 1.363 . S
C1074 H1077 0.929 . S
C1075 C1074 1.363 . S
C1075 C1081 1.428 . S
H1076 C1072 0.930 . S
H1077 C1074 0.929 . S
S1078 N1079 1.613 1_556 S
S1078 N1080 1.610 1_556 S
N1079 S1078 1.613 1_554 S
N1079 C1082 1.350 . S
N1080 S1078 1.610 1_554 S
N1080 C1081 1.351 . S
C1081 C1075 1.428 . S
C1081 N1080 1.351 . S
C1081 C1082 1.434 . S
C1082 C1073 1.429 . S
C1082 N1079 1.350 . S
C1082 C1081 1.434 . S
C1083 C1084 1.369 . S
C1083 C1085 1.419 . S
C1083 H1087 0.930 . S
C1084 C1083 1.369 . S
C1084 C1093 1.429 . S
C1085 C1083 1.419 . S
C1085 C1086 1.363 . S
C1085 H1088 0.929 . S
C1086 C1085 1.363 . S
C1086 C1092 1.428 . S
H1087 C1083 0.930 . S
H1088 C1085 0.929 . S
S1089 N1090 1.613 . S
S1089 N1091 1.610 . S
N1090 S1089 1.613 . S
N1090 C1093 1.350 . S
N1091 S1089 1.610 . S
N1091 C1092 1.351 . S
C1092 C1086 1.428 . S
C1092 N1091 1.351 . S
C1092 C1093 1.434 . S
C1093 C1084 1.429 . S
C1093 N1090 1.350 . S
C1093 C1092 1.434 . S
C1094 C1095 1.369 . S
C1094 C1096 1.419 . S
C1094 H1098 0.930 . S
C1095 C1094 1.369 . S
C1095 C1104 1.429 . S
C1096 C1094 1.419 . S
C1096 C1097 1.363 . S
C1096 H1099 0.929 . S
C1097 C1096 1.363 . S
C1097 C1103 1.428 . S
H1098 C1094 0.930 . S
H1099 C1096 0.929 . S
S1100 N1101 1.613 . S
S1100 N1102 1.610 . S
N1101 S1100 1.613 . S
N1101 C1104 1.350 . S
N1102 S1100 1.610 . S
N1102 C1103 1.351 . S
C1103 C1097 1.428 . S
C1103 N1102 1.351 . S
C1103 C1104 1.434 . S
C1104 C1095 1.429 . S
C1104 N1101 1.350 . S
C1104 C1103 1.434 . S
C1105 C1106 1.369 . S
C1105 C1107 1.419 . S
C1105 H1109 0.930 . S
C1106 C1105 1.369 . S
C1106 C1115 1.429 . S
C1107 C1105 1.419 . S
C1107 C1108 1.363 . S
C1107 H1110 0.929 . S
C1108 C1107 1.363 . S
C1108 C1114 1.428 . S
H1109 C1105 0.930 . S
H1110 C1107 0.929 . S
S1111 N1112 1.613 . S
S1111 N1113 1.610 . S
N1112 S1111 1.613 . S
N1112 C1115 1.350 . S
N1113 S1111 1.610 . S
N1113 C1114 1.351 . S
C1114 C1108 1.428 . S
C1114 N1113 1.351 . S
C1114 C1115 1.434 . S
C1115 C1106 1.429 . S
C1115 N1112 1.350 . S
C1115 C1114 1.434 . S
C1116 C1117 1.369 . S
C1116 C1118 1.419 . S
C1116 H1120 0.930 . S
C1117 C1116 1.369 . S
C1117 C1126 1.429 . S
C1118 C1116 1.419 . S
C1118 C1119 1.363 1_554 S
C1118 H1121 0.929 . S
C1119 C1118 1.363 1_556 S
C1119 C1125 1.428 . S
H1120 C1116 0.930 . S
H1121 C1118 0.929 . S
S1122 N1123 1.613 1_556 S
S1122 N1124 1.610 . S
N1123 S1122 1.613 1_554 S
N1123 C1126 1.350 1_655 S
N1124 S1122 1.610 . S
N1124 C1125 1.351 1_655 S
C1125 C1119 1.428 . S
C1125 N1124 1.351 1_455 S
C1125 C1126 1.434 1_556 S
C1126 C1117 1.429 . S
C1126 N1123 1.350 1_455 S
C1126 C1125 1.434 1_554 S
C1127 C1128 1.369 1_556 S
C1127 C1129 1.419 . S
C1127 H1131 0.930 . S
C1128 C1127 1.369 1_554 S
C1128 C1137 1.429 . S
C1129 C1127 1.419 . S
C1129 C1130 1.363 . S
C1129 H1132 0.929 . S
C1130 C1129 1.363 . S
C1130 C1136 1.428 . S
H1131 C1127 0.930 . S
H1132 C1129 0.929 . S
S1133 N1134 1.613 . S
S1133 N1135 1.610 1_554 S
N1134 S1133 1.613 . S
N1134 C1137 1.350 . S
N1135 S1133 1.610 1_556 S
N1135 C1136 1.351 . S
C1136 C1130 1.428 . S
C1136 N1135 1.351 . S
C1136 C1137 1.434 1_556 S
C1137 C1128 1.429 . S
C1137 N1134 1.350 . S
C1137 C1136 1.434 1_554 S
C1138 C1139 1.369 1_545 S
C1138 C1140 1.419 1_554 S
C1138 H1142 0.930 . S
C1139 C1138 1.369 1_565 S
C1139 C1148 1.429 1_554 S
C1140 C1138 1.419 1_556 S
C1140 C1141 1.363 . S
C1140 H1143 0.929 . S
C1141 C1140 1.363 . S
C1141 C1147 1.428 1_545 S
H1142 C1138 0.930 . S
H1143 C1140 0.929 . S
S1144 N1145 1.613 . S
S1144 N1146 1.610 . S
N1145 S1144 1.613 . S
N1145 C1148 1.350 . S
N1146 S1144 1.610 . S
N1146 C1147 1.351 . S
C1147 C1141 1.428 1_565 S
C1147 N1146 1.351 . S
C1147 C1148 1.434 . S
C1148 C1139 1.429 1_556 S
C1148 N1145 1.350 . S
C1148 C1147 1.434 . S
C1149 C1150 1.369 1_655 S
C1149 C1151 1.419 1_556 S
C1149 H1153 0.930 . S
C1150 C1149 1.369 1_455 S
C1150 C1159 1.429 1_556 S
C1151 C1149 1.419 1_554 S
C1151 C1152 1.363 1_655 S
C1151 H1154 0.929 . S
C1152 C1151 1.363 1_455 S
C1152 C1158 1.428 . S
H1153 C1149 0.930 . S
H1154 C1151 0.929 . S
S1155 N1156 1.613 . S
S1155 N1157 1.610 . S
N1156 S1155 1.613 . S
N1156 C1159 1.350 . S
N1157 S1155 1.610 . S
N1157 C1158 1.351 . S
C1158 C1152 1.428 . S
C1158 N1157 1.351 . S
C1158 C1159 1.434 . S
C1159 C1150 1.429 1_554 S
C1159 N1156 1.350 . S
C1159 C1158 1.434 . S
C1160 C1161 1.369 . S
C1160 C1162 1.419 . S
C1160 H1164 0.930 . S
C1161 C1160 1.369 . S
C1161 C1170 1.429 . S
C1162 C1160 1.419 . S
C1162 C1163 1.363 1_554 S
C1162 H1165 0.929 1_554 S
C1163 C1162 1.363 1_556 S
C1163 C1169 1.428 1_556 S
H1164 C1160 0.930 . S
H1165 C1162 0.929 1_556 S
S1166 N1167 1.613 . S
S1166 N1168 1.610 . S
N1167 S1166 1.613 . S
N1167 C1170 1.350 . S
N1168 S1166 1.610 . S
N1168 C1169 1.351 . S
C1169 C1163 1.428 1_554 S
C1169 N1168 1.351 . S
C1169 C1170 1.434 . S
C1170 C1161 1.429 . S
C1170 N1167 1.350 . S
C1170 C1169 1.434 . S
C1171 C1172 1.369 1_545 S
C1171 C1173 1.419 . S
C1171 H1175 0.930 . S
C1172 C1171 1.369 1_565 S
C1172 C1181 1.429 . S
C1173 C1171 1.419 . S
C1173 C1174 1.363 1_554 S
C1173 H1176 0.929 . S
C1174 C1173 1.363 1_556 S
C1174 C1180 1.428 . S
H1175 C1171 0.930 . S
H1176 C1173 0.929 . S
S1177 N1178 1.613 . S
S1177 N1179 1.610 1_565 S
N1178 S1177 1.613 . S
N1178 C1181 1.350 1_556 S
N1179 S1177 1.610 1_545 S
N1179 C1180 1.351 . S
C1180 C1174 1.428 . S
C1180 N1179 1.351 . S
C1180 C1181 1.434 1_546 S
C1181 C1172 1.429 . S
C1181 N1178 1.350 1_554 S
C1181 C1180 1.434 1_564 S
C1182 C1183 1.369 . S
C1182 C1184 1.419 . S
C1182 H1186 0.930 . S
C1183 C1182 1.369 . S
C1183 C1192 1.429 . S
C1184 C1182 1.419 . S
C1184 C1185 1.363 . S
C1184 H1187 0.929 . S
C1185 C1184 1.363 . S
C1185 C1191 1.428 . S
H1186 C1182 0.930 . S
H1187 C1184 0.929 . S
S1188 N1189 1.613 . S
S1188 N1190 1.610 . S
N1189 S1188 1.613 . S
N1189 C1192 1.350 . S
N1190 S1188 1.610 . S
N1190 C1191 1.351 . S
C1191 C1185 1.428 . S
C1191 N1190 1.351 . S
C1191 C1192 1.434 . S
C1192 C1183 1.429 . S
C1192 N1189 1.350 . S
C1192 C1191 1.434 . S
C1193 C1194 1.369 . S
C1193 C1195 1.419 . S
C1193 H1197 0.930 . S
C1194 C1193 1.369 . S
C1194 C1203 1.429 . S
C1195 C1193 1.419 . S
C1195 C1196 1.363 . S
C1195 H1198 0.929 . S
C1196 C1195 1.363 . S
C1196 C1202 1.428 . S
H1197 C1193 0.930 . S
H1198 C1195 0.929 . S
S1199 N1200 1.613 . S
S1199 N1201 1.610 . S
N1200 S1199 1.613 . S
N1200 C1203 1.350 . S
N1201 S1199 1.610 . S
N1201 C1202 1.351 . S
C1202 C1196 1.428 . S
C1202 N1201 1.351 . S
C1202 C1203 1.434 . S
C1203 C1194 1.429 . S
C1203 N1200 1.350 . S
C1203 C1202 1.434 . S
C1204 C1205 1.369 . S
C1204 C1206 1.419 . S
C1204 H1208 0.930 . S
C1205 C1204 1.369 . S
C1205 C1214 1.429 . S
C1206 C1204 1.419 . S
C1206 C1207 1.363 . S
C1206 H1209 0.929 . S
C1207 C1206 1.363 . S
C1207 C1213 1.428 . S
H1208 C1204 0.930 . S
H1209 C1206 0.929 . S
S1210 N1211 1.613 . S
S1210 N1212 1.610 . S
N1211 S1210 1.613 . S
N1211 C1214 1.350 . S
N1212 S1210 1.610 . S
N1212 C1213 1.351 . S
C1213 C1207 1.428 . S
C1213 N1212 1.351 . S
C1213 C1214 1.434 . S
C1214 C1205 1.429 . S
C1214 N1211 1.350 . S
C1214 C1213 1.434 . S
C1215 C1216 1.369 . S
C1215 C1217 1.419 . S
C1215 H1219 0.930 . S
C1216 C1215 1.369 . S
C1216 C1225 1.429 . S
C1217 C1215 1.419 . S
C1217 C1218 1.363 . S
C1217 H1220 0.929 . S
C1218 C1217 1.363 . S
C1218 C1224 1.428 . S
H1219 C1215 0.930 . S
H1220 C1217 0.929 . S
S1221 N1222 1.613 . S
S1221 N1223 1.610 . S
N1222 S1221 1.613 . S
N1222 C1225 1.350 . S
N1223 S1221 1.610 . S
N1223 C1224 1.351 . S
C1224 C1218 1.428 . S
C1224 N1223 1.351 . S
C1224 C1225 1.434 . S
C1225 C1216 1.429 . S
C1225 N1222 1.350 . S
C1225 C1224 1.434 . S
C1226 C1227 1.369 . S
C1226 C1228 1.419 . S
C1226 H1230 0.930 . S
C1227 C1226 1.369 . S
C1227 C1236 1.429 . S
C1228 C1226 1.419 . S
C1228 C1229 1.363 . S
C1228 H1231 0.929 . S
C1229 C1228 1.363 . S
C1229 C1235 1.428 . S
H1230 C1226 0.930 . S
H1231 C1228 0.929 . S
S1232 N1233 1.613 . S
S1232 N1234 1.610 . S
N1233 S1232 1.613 . S
N1233 C1236 1.350 . S
N1234 S1232 1.610 . S
N1234 C1235 1.351 . S
C1235 C1229 1.428 . S
C1235 N1234 1.351 . S
C1235 C1236 1.434 . S
C1236 C1227 1.429 . S
C1236 N1233 1.350 . S
C1236 C1235 1.434 . S
C1237 C1238 1.369 . S
C1237 C1239 1.419 . S
C1237 H1241 0.930 . S
C1238 C1237 1.369 . S
C1238 C1247 1.429 . S
C1239 C1237 1.419 . S
C1239 C1240 1.363 . S
C1239 H1242 0.929 . S
C1240 C1239 1.363 . S
C1240 C1246 1.428 . S
H1241 C1237 0.930 . S
H1242 C1239 0.929 . S
S1243 N1244 1.613 . S
S1243 N1245 1.610 . S
N1244 S1243 1.613 . S
N1244 C1247 1.350 . S
N1245 S1243 1.610 . S
N1245 C1246 1.351 . S
C1246 C1240 1.428 . S
C1246 N1245 1.351 . S
C1246 C1247 1.434 . S
C1247 C1238 1.429 . S
C1247 N1244 1.350 . S
C1247 C1246 1.434 . S
C1248 C1249 1.369 . S
C1248 C1250 1.419 . S
C1248 H1252 0.930 . S
C1249 C1248 1.369 . S
C1249 C1258 1.429 . S
C1250 C1248 1.419 . S
C1250 C1251 1.363 . S
C1250 H1253 0.929 . S
C1251 C1250 1.363 . S
C1251 C1257 1.428 . S
H1252 C1248 0.930 . S
H1253 C1250 0.929 . S
S1254 N1255 1.613 . S
S1254 N1256 1.610 . S
N1255 S1254 1.613 . S
N1255 C1258 1.350 . S
N1256 S1254 1.610 . S
N1256 C1257 1.351 . S
C1257 C1251 1.428 . S
C1257 N1256 1.351 . S
C1257 C1258 1.434 . S
C1258 C1249 1.429 . S
C1258 N1255 1.350 . S
C1258 C1257 1.434 . S
C1259 C1260 1.369 . S
C1259 C1261 1.419 . S
C1259 H1263 0.930 . S
C1260 C1259 1.369 . S
C1260 C1269 1.429 . S
C1261 C1259 1.419 . S
C1261 C1262 1.363 . S
C1261 H1264 0.929 . S
C1262 C1261 1.363 . S
C1262 C1268 1.428 . S
H1263 C1259 0.930 . S
H1264 C1261 0.929 . S
S1265 N1266 1.613 . S
S1265 N1267 1.610 . S
N1266 S1265 1.613 . S
N1266 C1269 1.350 . S
N1267 S1265 1.610 . S
N1267 C1268 1.351 . S
C1268 C1262 1.428 . S
C1268 N1267 1.351 . S
C1268 C1269 1.434 . S
C1269 C1260 1.429 . S
C1269 N1266 1.350 . S
C1269 C1268 1.434 . S
C1270 C1271 1.369 . S
C1270 C1272 1.419 . S
C1270 H1274 0.930 . S
C1271 C1270 1.369 . S
C1271 C1280 1.429 . S
C1272 C1270 1.419 . S
C1272 C1273 1.363 . S
C1272 H1275 0.929 . S
C1273 C1272 1.363 . S
C1273 C1279 1.428 . S
H1274 C1270 0.930 . S
H1275 C1272 0.929 . S
S1276 N1277 1.613 . S
S1276 N1278 1.610 . S
N1277 S1276 1.613 . S
N1277 C1280 1.350 . S
N1278 S1276 1.610 . S
N1278 C1279 1.351 . S
C1279 C1273 1.428 . S
C1279 N1278 1.351 . S
C1279 C1280 1.434 . S
C1280 C1271 1.429 . S
C1280 N1277 1.350 . S
C1280 C1279 1.434 . S
C1281 C1282 1.369 . S
C1281 C1283 1.419 . S
C1281 H1285 0.930 . S
C1282 C1281 1.369 . S
C1282 C1291 1.429 . S
C1283 C1281 1.419 . S
C1283 C1284 1.363 . S
C1283 H1286 0.929 . S
C1284 C1283 1.363 . S
C1284 C1290 1.428 . S
H1285 C1281 0.930 . S
H1286 C1283 0.929 . S
S1287 N1288 1.613 . S
S1287 N1289 1.610 . S
N1288 S1287 1.613 . S
N1288 C1291 1.350 . S
N1289 S1287 1.610 . S
N1289 C1290 1.351 . S
C1290 C1284 1.428 . S
C1290 N1289 1.351 . S
C1290 C1291 1.434 . S
C1291 C1282 1.429 . S
C1291 N1288 1.350 . S
C1291 C1290 1.434 . S
C1292 C1293 1.369 . S
C1292 C1294 1.419 . S
C1292 H1296 0.930 . S
C1293 C1292 1.369 . S
C1293 C1302 1.429 . S
C1294 C1292 1.419 . S
C1294 C1295 1.363 . S
C1294 H1297 0.929 . S
C1295 C1294 1.363 . S
C1295 C1301 1.428 . S
H1296 C1292 0.930 . S
H1297 C1294 0.929 . S
S1298 N1299 1.613 . S
S1298 N1300 1.610 . S
N1299 S1298 1.613 . S
N1299 C1302 1.350 . S
N1300 S1298 1.610 . S
N1300 C1301 1.351 . S
C1301 C1295 1.428 . S
C1301 N1300 1.351 . S
C1301 C1302 1.434 . S
C1302 C1293 1.429 . S
C1302 N1299 1.350 . S
C1302 C1301 1.434 . S
C1303 C1304 1.369 . S
C1303 C1305 1.419 . S
C1303 H1307 0.930 . S
C1304 C1303 1.369 . S
C1304 C1313 1.429 . S
C1305 C1303 1.419 . S
C1305 C1306 1.363 . S
C1305 H1308 0.929 . S
C1306 C1305 1.363 . S
C1306 C1312 1.428 . S
H1307 C1303 0.930 . S
H1308 C1305 0.929 . S
S1309 N1310 1.613 . S
S1309 N1311 1.610 . S
N1310 S1309 1.613 . S
N1310 C1313 1.350 . S
N1311 S1309 1.610 . S
N1311 C1312 1.351 . S
C1312 C1306 1.428 . S
C1312 N1311 1.351 . S
C1312 C1313 1.434 . S
C1313 C1304 1.429 . S
C1313 N1310 1.350 . S
C1313 C1312 1.434 . S
C721 C539 2.494 . S
C723 C19 2.503 . S
C732 C58 2.028 . S
C734 C578 2.022 . S
C743 C99 2.272 . S
C745 C498 2.298 . S
C754 C98 1.878 . S
C756 C298 1.873 . S
C765 C338 2.180 . S
C767 C18 2.170 . S
C776 C59 2.345 . S
C778 C258 2.380 . S
C787 C130 2.267 . S
C789 C409 2.284 . S
C798 C169 1.745 . S
C800 C449 1.745 . S
C809 C369 2.000 . S
C811 C210 1.962 . S
C820 C649 2.029 . S
C822 C209 2.048 . S
C831 C129 2.297 . S
C833 C690 2.275 . S
C842 C610 2.518 . S
C844 C170 2.491 . S
C853 C339 2.154 . S
C855 C538 2.190 . S
C864 C259 2.391 . S
C866 C579 2.378 . S
C875 C299 2.639 . S
C877 C499 2.668 . S
C886 C370 2.776 . S
C888 C650 2.761 . S
C897 C689 2.324 . S
C899 C410 2.305 . S
C908 C609 2.595 . S
C910 C450 2.568 . S
C919 C9 1.432 . S
C921 C178 1.432 . S
C930 C219 1.891 . S
C932 C50 1.893 . S
C941 C139 1.682 . S
C943 C89 1.509 . S
C952 C179 1.919 . S
C954 C90 1.967 . S
C963 C218 1.664 . S
C965 C10 1.733 . S
C974 C138 1.525 . S
C976 C49 1.579 . S
C985 C419 1.973 . S
C987 C250 1.961 . S
C996 C459 2.052 . S
C998 C290 2.040 . S
C1007 C379 2.071 . S
C1009 C330 1.966 . S
C1018 C418 1.499 . S
C1020 C329 1.500 . S
C1029 C458 1.427 . S
C1031 C249 1.561 . S
C1040 C378 1.453 . S
C1042 C289 1.464 . S
C1051 C658 1.560 . S
C1053 C489 1.504 . S
C1062 C699 1.952 . S
C1064 C530 1.905 . S
C1073 C569 1.665 . S
C1075 C619 1.727 . S
C1084 C570 2.075 . S
C1086 C659 2.079 . S
C1095 C490 1.837 . S
C1097 C698 1.665 . S
C1106 C618 1.547 . S
C1108 C529 1.544 . S
C1117 C15 1.363 . S
C1119 C6 1.355 . S
C1128 C46 1.507 . S
C1130 C55 1.517 . S
C1139 C95 1.423 . S
C1141 C86 1.412 . S
C1150 C126 1.466 . S
C1152 C135 1.456 . S
C1161 C166 1.363 . S
C1163 C175 1.374 . S
C1172 C215 1.604 . S
C1174 C206 1.595 . S
C1183 C255 1.722 . S
C1185 C246 1.729 . S
C1194 C286 1.333 . S
C1196 C295 1.330 . S
C1205 C335 1.776 . S
C1207 C326 1.774 . S
C1216 C366 1.306 . S
C1218 C375 1.297 . S
C1227 C406 1.697 . S
C1229 C415 1.686 . S
C1238 C446 1.372 . S
C1240 C455 1.383 . S
C1249 C486 1.326 . S
C1251 C495 1.318 . S
C1260 C526 1.480 . S
C1262 C535 1.480 . S
C1271 C575 1.408 . S
C1273 C566 1.398 . S
C1282 C615 1.508 . S
C1284 C606 1.507 . S
C1293 C646 1.346 . S
C1295 C655 1.337 . S
C1304 C686 1.499 . S
C1306 C695 1.490 . S
