# Generated by pormake.
# Topology ukh, (4)-cn, num edge types: 1
# Building blocks:
#     Node 0, Type 0, BuildingBlock: ICAMEG_clean_sbu_1, # of connection points: 4
#     Node 1, Type 0, BuildingBlock: ICAMEG_clean_sbu_1, # of connection points: 4
#     Node 2, Type 0, BuildingBlock: ICAMEG_clean_sbu_1, # of connection points: 4
#     Node 3, Type 0, BuildingBlock: ICAMEG_clean_sbu_1, # of connection points: 4
#     Node 4, Type 0, BuildingBlock: ICAMEG_clean_sbu_1, # of connection points: 4
#     Node 5, Type 0, BuildingBlock: ICAMEG_clean_sbu_1, # of connection points: 4
#     Node 6, Type 0, BuildingBlock: ICAMEG_clean_sbu_1, # of connection points: 4
#     Node 7, Type 0, BuildingBlock: ICAMEG_clean_sbu_1, # of connection points: 4
#     Node 8, Type 0, BuildingBlock: ICAMEG_clean_sbu_1, # of connection points: 4
#     Node 9, Type 0, BuildingBlock: ICAMEG_clean_sbu_1, # of connection points: 4
#     Node 10, Type 0, BuildingBlock: ICAMEG_clean_sbu_1, # of connection points: 4
#     Node 11, Type 0, BuildingBlock: ICAMEG_clean_sbu_1, # of connection points: 4
#     Edge 12, Type (0, 0), BuildingBlock: TEMPAE_clean_linker_10, # of connection points: 2
#     Edge 13, Type (0, 0), BuildingBlock: TEMPAE_clean_linker_10, # of connection points: 2
#     Edge 14, Type (0, 0), BuildingBlock: TEMPAE_clean_linker_10, # of connection points: 2
#     Edge 15, Type (0, 0), BuildingBlock: TEMPAE_clean_linker_10, # of connection points: 2
#     Edge 16, Type (0, 0), BuildingBlock: TEMPAE_clean_linker_10, # of connection points: 2
#     Edge 17, Type (0, 0), BuildingBlock: TEMPAE_clean_linker_10, # of connection points: 2
#     Edge 18, Type (0, 0), BuildingBlock: TEMPAE_clean_linker_10, # of connection points: 2
#     Edge 19, Type (0, 0), BuildingBlock: TEMPAE_clean_linker_10, # of connection points: 2
#     Edge 20, Type (0, 0), BuildingBlock: TEMPAE_clean_linker_10, # of connection points: 2
#     Edge 21, Type (0, 0), BuildingBlock: TEMPAE_clean_linker_10, # of connection points: 2
#     Edge 22, Type (0, 0), BuildingBlock: TEMPAE_clean_linker_10, # of connection points: 2
#     Edge 23, Type (0, 0), BuildingBlock: TEMPAE_clean_linker_10, # of connection points: 2
#     Edge 24, Type (0, 0), BuildingBlock: TEMPAE_clean_linker_10, # of connection points: 2
#     Edge 25, Type (0, 0), BuildingBlock: TEMPAE_clean_linker_10, # of connection points: 2
#     Edge 26, Type (0, 0), BuildingBlock: TEMPAE_clean_linker_10, # of connection points: 2
#     Edge 27, Type (0, 0), BuildingBlock: TEMPAE_clean_linker_10, # of connection points: 2
#     Edge 28, Type (0, 0), BuildingBlock: TEMPAE_clean_linker_10, # of connection points: 2
#     Edge 29, Type (0, 0), BuildingBlock: TEMPAE_clean_linker_10, # of connection points: 2
#     Edge 30, Type (0, 0), BuildingBlock: TEMPAE_clean_linker_10, # of connection points: 2
#     Edge 31, Type (0, 0), BuildingBlock: TEMPAE_clean_linker_10, # of connection points: 2
#     Edge 32, Type (0, 0), BuildingBlock: TEMPAE_clean_linker_10, # of connection points: 2
#     Edge 33, Type (0, 0), BuildingBlock: TEMPAE_clean_linker_10, # of connection points: 2
#     Edge 34, Type (0, 0), BuildingBlock: TEMPAE_clean_linker_10, # of connection points: 2
#     Edge 35, Type (0, 0), BuildingBlock: TEMPAE_clean_linker_10, # of connection points: 2
# Relax obj value: 0.030
# Max RMSD: 0.043
# Mean RMSD: 0.043
data_MOF--net-ukh--node1-ICAMEG_clean_sbu_1--edge1-TEMPAE_clean_linker_10
_symmetry_space_group_name_H-M    P1
_symmetry_Int_Tables_number       1
_symmetry_cell_setting            triclinic
loop_
_symmetry_equiv_pos_as_xyz
'x, y, z'
_cell_length_a     34.488066
_cell_length_b     34.507753
_cell_length_c     70.471104
_cell_angle_alpha  90.040949
_cell_angle_beta   90.004599
_cell_angle_gamma 120.01787
loop_
_atom_site_label
_atom_site_type_symbol
_atom_site_fract_x
_atom_site_fract_y
_atom_site_fract_z
_atom_type_partial_charge
Co0 Co 0.33933 0.24368 0.03172 0.0
Co1 Co 0.26614 0.19067 0.06859 0.0
O2 O 0.32598 0.23327 0.05891 0.0
C3 C 0.37653 0.33542 0.04747 0.0
O4 O 0.33865 0.32146 0.0566 0.0
C5 C 0.33215 0.18561 0.0954 0.0
O6 O 0.36592 0.21175 0.08444 0.0
O7 O 0.2644 0.14202 0.05264 0.0
O8 O 0.2975 0.17882 0.0258 0.0
H9 H 0.10538 0.06932 0.06195 0.0
H10 H 0.41592 0.27603 0.05841 0.0
O11 O 0.38186 0.30863 0.03682 0.0
H12 H 0.42917 0.16904 0.01632 0.0
H13 H 0.4398 0.31281 0.97509 0.0
H14 H 0.28467 0.21383 0.99662 0.0
H15 H 0.36806 0.18561 0.01195 0.0
H16 H 0.42271 0.29796 0.00918 0.0
O17 O 0.29203 0.1732 0.09045 0.0
H18 H 0.18075 0.12422 0.05048 0.0
H19 H 0.22437 0.16538 0.1071 0.0
H20 H 0.30032 0.22748 0.96238 0.0
H21 H 0.4781 0.26111 0.0631 0.0
H22 H 0.37838 0.2773 0.95142 0.0
H23 H 0.48488 0.20705 0.04204 0.0
O24 O 0.28961 0.2566 0.02817 0.0
H25 H 0.33597 0.32423 0.11242 0.0
H26 H 0.20105 0.22176 0.07592 0.0
H27 H 0.20171 0.28244 0.09457 0.0
H28 H 0.26942 0.3341 0.1131 0.0
H29 H 0.33422 0.26379 0.09336 0.0
H30 H 0.14955 0.11064 0.11918 0.0
H31 H 0.08936 0.06224 0.09654 0.0
O32 O 0.23741 0.20636 0.04769 0.0
C33 C 0.27354 0.14265 0.03502 0.0
C34 C 0.13129 0.09027 0.07196 0.0
C35 C 0.15611 0.11341 0.10407 0.0
N36 N 0.20695 0.14809 0.07808 0.0
C37 C 0.17404 0.12149 0.06554 0.0
C38 C 0.19848 0.14424 0.09715 0.0
C39 C 0.12235 0.08629 0.09136 0.0
C40 C 0.4187 0.25258 0.04913 0.0
N41 N 0.38791 0.23119 0.03509 0.0
C42 C 0.45396 0.2442 0.05189 0.0
C43 C 0.45771 0.21384 0.04008 0.0
C44 C 0.42642 0.19243 0.02568 0.0
C45 C 0.3916 0.20163 0.02337 0.0
C46 C 0.40567 0.29098 0.97969 0.0
C47 C 0.31876 0.23534 0.99196 0.0
C48 C 0.39577 0.28252 0.99898 0.0
N49 N 0.35277 0.2548 0.00488 0.0
C50 C 0.3274 0.24304 0.97255 0.0
C51 C 0.37119 0.27103 0.96641 0.0
C52 C 0.24954 0.23506 0.03436 0.0
C53 C 0.30608 0.30166 0.10457 0.0
C54 C 0.23068 0.24397 0.08395 0.0
C55 C 0.23082 0.27831 0.0945 0.0
C56 C 0.2688 0.30726 0.1049 0.0
N57 N 0.2672 0.23829 0.08384 0.0
C58 C 0.30471 0.26691 0.09386 0.0
Co59 Co 0.09873 0.34663 0.36205 0.0
Co60 Co 0.07178 0.27652 0.4006 0.0
O61 O 0.09286 0.33532 0.38931 0.0
C62 C 0.0421 0.38352 0.3751 0.0
O63 O 0.01762 0.34574 0.38419 0.0
C64 C 0.14191 0.29681 0.4297 0.0
O65 O 0.14933 0.26671 0.42171 0.0
O66 O 0.11753 0.26918 0.38599 0.0
O67 O 0.12311 0.30511 0.35852 0.0
H68 H 0.02384 0.11293 0.40037 0.0
H69 H 0.13978 0.42127 0.38974 0.0
O70 O 0.07536 0.38902 0.36519 0.0
H71 H 0.26435 0.43892 0.34935 0.0
H72 H 0.13489 0.44301 0.30374 0.0
H73 H 0.07957 0.29003 0.32781 0.0
H74 H 0.18725 0.37767 0.34353 0.0
H75 H 0.12891 0.42821 0.33816 0.0
O76 O 0.11452 0.30678 0.42211 0.0
H77 H 0.04959 0.18709 0.38611 0.0
H78 H 0.04872 0.24092 0.44022 0.0
H79 H 0.08544 0.3034 0.29327 0.0
H80 H 0.21624 0.48343 0.39594 0.0
H81 H 0.11326 0.38036 0.28104 0.0
H82 H 0.27921 0.49247 0.3757 0.0
O83 O 0.03656 0.29624 0.35749 0.0
H84 H 0.01664 0.35991 0.44058 0.0
H85 H 0.97319 0.21893 0.40665 0.0
H86 H 0.91549 0.2283 0.42323 0.0
H87 H 0.93709 0.29914 0.4404 0.0
H88 H 0.07319 0.34944 0.42359 0.0
H89 H 0.02305 0.16737 0.45508 0.0
H90 H 0.01044 0.10271 0.43512 0.0
O91 O 0.0282 0.24609 0.37968 0.0
C92 C 0.13103 0.27933 0.36882 0.0
C93 C 0.02937 0.14087 0.40924 0.0
C94 C 0.02891 0.17142 0.43994 0.0
N95 N 0.05117 0.21845 0.41232 0.0
C96 C 0.04408 0.18298 0.40125 0.0
C97 C 0.04357 0.21302 0.43144 0.0
C98 C 0.02183 0.13516 0.42873 0.0
C99 C 0.16699 0.42503 0.38085 0.0
N100 N 0.15913 0.39563 0.36637 0.0
C101 C 0.21022 0.46027 0.38444 0.0
C102 C 0.24554 0.46531 0.37309 0.0
C103 C 0.23724 0.43525 0.35832 0.0
C104 C 0.19358 0.40042 0.35516 0.0
C105 C 0.1228 0.40934 0.3089 0.0
C106 C 0.09201 0.32365 0.32259 0.0
C107 C 0.11921 0.40074 0.32837 0.0
N108 N 0.10422 0.35834 0.33498 0.0
C109 C 0.09512 0.331 0.30302 0.0
C110 C 0.11068 0.37418 0.29617 0.0
C111 C 0.0152 0.25722 0.3648 0.0
C112 C 0.00684 0.3288 0.43322 0.0
C113 C 0.98289 0.24994 0.41402 0.0
C114 C 0.95006 0.25499 0.42344 0.0
C115 C 0.9622 0.29473 0.43308 0.0
N116 N 0.02666 0.28347 0.41425 0.0
C117 C 0.03878 0.32255 0.42367 0.0
Co118 Co 0.75715 0.09602 0.70207 0.0
Co119 Co 0.80716 0.07167 0.73917 0.0
O120 O 0.76638 0.09111 0.72927 0.0
C121 C 0.66443 0.03903 0.71657 0.0
O122 O 0.67832 0.01483 0.72549 0.0
C123 C 0.81556 0.14434 0.7659 0.0
O124 O 0.78961 0.15271 0.75516 0.0
O125 O 0.85723 0.11703 0.72323 0.0
O126 O 0.82247 0.1202 0.69676 0.0
H127 H 0.92282 0.0244 0.73307 0.0
H128 H 0.72298 0.13716 0.72946 0.0
O129 O 0.6917 0.07243 0.70661 0.0
H130 H 0.83055 0.26152 0.68923 0.0
H131 H 0.69018 0.13113 0.64573 0.0
H132 H 0.7895 0.07499 0.66673 0.0
H133 H 0.81501 0.18454 0.68362 0.0
H134 H 0.70332 0.12612 0.67981 0.0
O135 O 0.82647 0.11557 0.76089 0.0
H136 H 0.87061 0.04817 0.72134 0.0
H137 H 0.83099 0.05435 0.77784 0.0
H138 H 0.77761 0.07981 0.6325 0.0
H139 H 0.73674 0.21346 0.73537 0.0
H140 H 0.72762 0.10805 0.62181 0.0
H141 H 0.79111 0.27637 0.71525 0.0
O142 O 0.74487 0.03388 0.69743 0.0
H143 H 0.67295 0.01354 0.78243 0.0
H144 H 0.77219 0.97497 0.74697 0.0
H145 H 0.70975 0.91677 0.76554 0.0
H146 H 0.65969 0.93591 0.78354 0.0
H147 H 0.73512 0.07038 0.76348 0.0
H148 H 0.88309 0.03104 0.79016 0.0
H149 H 0.92934 0.01571 0.76771 0.0
O150 O 0.78966 0.02676 0.71845 0.0
C151 C 0.85783 0.12903 0.70602 0.0
C152 C 0.90281 0.03093 0.74299 0.0
C153 C 0.88057 0.03473 0.77504 0.0
N154 N 0.84771 0.05262 0.74887 0.0
C155 C 0.87313 0.04434 0.73644 0.0
C156 C 0.85125 0.04811 0.76797 0.0
C157 C 0.90648 0.0261 0.76243 0.0
C158 C 0.74656 0.16431 0.7206 0.0
N159 N 0.76878 0.15649 0.70641 0.0
C160 C 0.75428 0.20747 0.72404 0.0
C161 C 0.78482 0.24275 0.71276 0.0
C162 C 0.80704 0.23447 0.69819 0.0
C163 C 0.79847 0.19087 0.69519 0.0
C164 C 0.7121 0.11885 0.65021 0.0
C165 C 0.76793 0.08758 0.66219 0.0
C166 C 0.71958 0.11583 0.66949 0.0
N167 N 0.74741 0.10057 0.67525 0.0
C168 C 0.76122 0.09011 0.64279 0.0
C169 C 0.73313 0.10591 0.6368 0.0
C170 C 0.76336 0.01286 0.70423 0.0
C171 C 0.69481 0.00488 0.77481 0.0
C172 C 0.75073 0.98374 0.75478 0.0
C173 C 0.71536 0.95056 0.76528 0.0
C174 C 0.6873 0.96131 0.77538 0.0
N175 N 0.75829 0.02662 0.75443 0.0
C176 C 0.73053 0.03719 0.76416 0.0
Co177 Co 0.66271 0.75052 0.03605 0.0
Co178 Co 0.73629 0.79989 0.07356 0.0
O179 O 0.67626 0.75934 0.06332 0.0
C180 C 0.62663 0.65763 0.05039 0.0
O181 O 0.66428 0.67122 0.05967 0.0
C182 C 0.67141 0.8085 0.09985 0.0
O183 O 0.63723 0.78238 0.08906 0.0
O184 O 0.74167 0.85016 0.05759 0.0
O185 O 0.7034 0.81597 0.03106 0.0
H186 H 0.89972 0.91482 0.0684 0.0
H187 H 0.58723 0.71588 0.06336 0.0
O188 O 0.62112 0.68507 0.0403 0.0
H189 H 0.56881 0.82175 0.02268 0.0
H190 H 0.56219 0.68396 0.97916 0.0
H191 H 0.71691 0.78404 1.001 0.0
H192 H 0.63083 0.80694 0.01723 0.0
H193 H 0.5794 0.69651 0.01334 0.0
O194 O 0.71117 0.8192 0.09506 0.0
H195 H 0.82402 0.86302 0.05623 0.0
H196 H 0.7762 0.82328 0.11246 0.0
H197 H 0.70112 0.77275 0.96668 0.0
H198 H 0.52407 0.72882 0.0691 0.0
H199 H 0.62327 0.72239 0.95556 0.0
H200 H 0.51473 0.78237 0.04876 0.0
O201 O 0.71307 0.73879 0.03154 0.0
H202 H 0.65869 0.66559 0.11662 0.0
H203 H 0.79745 0.76439 0.08165 0.0
H204 H 0.79247 0.70173 0.10028 0.0
H205 H 0.72279 0.65189 0.11804 0.0
H206 H 0.66477 0.72798 0.09763 0.0
H207 H 0.85131 0.87497 0.12524 0.0
H208 H 0.91377 0.92108 0.10314 0.0
O209 O 0.7642 0.78249 0.05305 0.0
C210 C 0.72997 0.85107 0.04045 0.0
C211 C 0.87279 0.8949 0.07817 0.0
C212 C 0.8456 0.87258 0.11007 0.0
N213 N 0.79566 0.84014 0.0836 0.0
C214 C 0.82984 0.86547 0.07136 0.0
C215 C 0.80308 0.8435 0.10275 0.0
C216 C 0.88064 0.89842 0.09767 0.0
C217 C 0.58336 0.73917 0.05443 0.0
N218 N 0.61335 0.76146 0.04024 0.0
C219 C 0.54755 0.7464 0.05776 0.0
C220 C 0.54235 0.77647 0.04636 0.0
C221 C 0.57275 0.79867 0.03176 0.0
C222 C 0.60815 0.79059 0.02887 0.0
C223 C 0.59623 0.70604 0.98383 0.0
C224 C 0.68291 0.76229 0.99627 0.0
C225 C 0.60621 0.71318 0.00316 0.0
N226 N 0.64908 0.74122 0.00915 0.0
C227 C 0.67419 0.75593 0.97682 0.0
C228 C 0.63052 0.72763 0.97059 0.0
C229 C 0.75232 0.75684 0.03863 0.0
C230 C 0.68942 0.68735 0.10912 0.0
C231 C 0.76702 0.74303 0.08937 0.0
C232 C 0.76441 0.70754 0.0999 0.0
C233 C 0.72533 0.6796 0.10986 0.0
N234 N 0.73184 0.75083 0.08886 0.0
C235 C 0.69325 0.7232 0.09845 0.0
Co236 Co 0.9127 0.67039 0.36907 0.0
Co237 Co 0.94978 0.75189 0.40352 0.0
O238 O 0.92713 0.68975 0.39556 0.0
C239 C 0.97246 0.63519 0.38022 0.0
O240 O 0.99999 0.67438 0.38772 0.0
C241 C 0.8799 0.69728 0.4327 0.0
O242 O 0.85413 0.66892 0.41965 0.0
O243 O 0.89774 0.75243 0.39128 0.0
O244 O 0.88787 0.71138 0.36502 0.0
H245 H 0.99073 0.91233 0.39409 0.0
H246 H 0.88063 0.60312 0.3999 0.0
O247 O 0.93635 0.62836 0.37236 0.0
H248 H 0.7443 0.57806 0.36654 0.0
H249 H 0.85683 0.55749 0.31593 0.0
H250 H 0.92201 0.71693 0.3326 0.0
H251 H 0.81891 0.63649 0.35574 0.0
H252 H 0.87383 0.58217 0.34926 0.0
O253 O 0.91693 0.73146 0.42816 0.0
H254 H 0.96311 0.83421 0.38435 0.0
H255 H 0.98495 0.80174 0.43996 0.0
H256 H 0.90506 0.69364 0.29911 0.0
H257 H 0.80676 0.54374 0.41103 0.0
H258 H 0.87226 0.61339 0.2906 0.0
H259 H 0.7379 0.53106 0.39437 0.0
O260 O 0.97322 0.7184 0.36057 0.0
H261 H 0.02445 0.68713 0.44334 0.0
H262 H 0.04886 0.81348 0.40258 0.0
H263 H 0.11383 0.8123 0.41648 0.0
H264 H 0.10185 0.74884 0.43707 0.0
H265 H 0.96043 0.68936 0.42896 0.0
H266 H 0.01246 0.87943 0.45036 0.0
H267 H 0.01562 0.93541 0.42733 0.0
O268 O 0.98444 0.77492 0.37967 0.0
C269 C 0.881 0.73863 0.37477 0.0
C270 C 0.98945 0.88825 0.40427 0.0
C271 C 1.00159 0.86977 0.43585 0.0
N272 N 0.9721 0.8133 0.41159 0.0
C273 C 0.9738 0.84393 0.39884 0.0
C274 C 0.98574 0.82574 0.42991 0.0
C275 C 0.00339 0.90117 0.42292 0.0
C276 C 0.85084 0.59762 0.3925 0.0
N277 N 0.85405 0.62357 0.37728 0.0
C278 C 0.80909 0.56402 0.3989 0.0
C279 C 0.77047 0.55698 0.38957 0.0
C280 C 0.77403 0.58339 0.37398 0.0
C281 C 0.81634 0.6167 0.368 0.0
C282 C 0.87106 0.59254 0.31946 0.0
C283 C 0.90748 0.68192 0.32902 0.0
C284 C 0.8809 0.60674 0.3383 0.0
N285 N 0.89866 0.65093 0.34288 0.0
C286 C 0.89807 0.66894 0.31002 0.0
C287 C 0.87971 0.62392 0.30526 0.0
C288 C 0.99473 0.7596 0.36531 0.0
C289 C 0.0301 0.71505 0.43445 0.0
C290 C 0.04332 0.78565 0.41146 0.0
C291 C 0.08027 0.78523 0.41934 0.0
C292 C 0.07352 0.74964 0.4309 0.0
N293 N 1.00081 0.75162 0.41503 0.0
C294 C 0.99395 0.7166 0.42634 0.0
Co295 Co 0.24932 0.91523 0.70123 0.0
Co296 Co 0.19759 0.93815 0.73726 0.0
O297 O 0.23933 0.91899 0.72845 0.0
C298 C 0.34157 0.96616 0.71678 0.0
O299 O 0.32925 0.99167 0.7257 0.0
C300 C 0.18933 0.86843 0.76578 0.0
O301 O 0.20988 0.85413 0.75457 0.0
O302 O 0.14853 0.88861 0.72247 0.0
O303 O 0.18507 0.89594 0.69511 0.0
H304 H 0.07488 0.97489 0.72855 0.0
H305 H 0.27644 0.8668 0.72799 0.0
O306 O 0.31357 0.93396 0.70645 0.0
H307 H 0.16429 0.75058 0.68587 0.0
H308 H 0.3145 0.87841 0.64476 0.0
H309 H 0.22312 0.94352 0.66608 0.0
H310 H 0.18651 0.82986 0.68144 0.0
H311 H 0.29956 0.88126 0.67881 0.0
O312 O 0.18129 0.89888 0.76029 0.0
H313 H 0.12903 0.95238 0.7182 0.0
H314 H 0.17572 0.963 0.7748 0.0
H315 H 0.23698 0.94109 0.63189 0.0
H316 H 0.25568 0.78793 0.73274 0.0
H317 H 0.28297 0.90834 0.62103 0.0
H318 H 0.19907 0.72916 0.71164 0.0
O319 O 0.26625 0.97904 0.69786 0.0
H320 H 0.33184 0.00637 0.78047 0.0
H321 H 0.23053 0.03588 0.74164 0.0
H322 H 0.29273 0.09804 0.75885 0.0
H323 H 0.34383 0.08347 0.77853 0.0
H324 H 0.26972 0.94536 0.76279 0.0
H325 H 0.12169 0.98512 0.7858 0.0
H326 H 0.07091 0.9914 0.76258 0.0
O327 O 0.2121 0.97932 0.71514 0.0
C328 C 0.14906 0.88127 0.70474 0.0
C329 C 0.09684 0.9723 0.7388 0.0
C330 C 0.12307 0.97799 0.77093 0.0
N331 N 0.15556 0.95637 0.74586 0.0
C332 C 0.12762 0.9596 0.73302 0.0
C333 C 0.15347 0.96524 0.76463 0.0
C334 C 0.09461 0.98153 0.7579 0.0
C335 C 0.25203 0.84146 0.71866 0.0
N336 N 0.23262 0.85295 0.70452 0.0
C337 C 0.24031 0.79684 0.72146 0.0
C338 C 0.2085 0.76387 0.70963 0.0
C339 C 0.18893 0.77586 0.69519 0.0
C340 C 0.2015 0.82082 0.69281 0.0
C341 C 0.29433 0.89268 0.64931 0.0
C342 C 0.24295 0.92899 0.66146 0.0
C343 C 0.28583 0.89445 0.66857 0.0
N344 N 0.26023 0.91225 0.67441 0.0
C345 C 0.25078 0.9278 0.64208 0.0
C346 C 0.27663 0.90947 0.636 0.0
C347 C 0.24354 0.99713 0.70298 0.0
C348 C 0.30962 0.01309 0.77205 0.0
C349 C 0.25262 0.02919 0.75011 0.0
C350 C 0.28777 0.06456 0.75987 0.0
C351 C 0.3164 0.05636 0.77092 0.0
N352 N 0.24599 0.98674 0.75136 0.0
C353 C 0.2741 0.97854 0.76211 0.0
Co354 Co 0.75759 0.66924 0.63581 0.0
Co355 Co 0.80728 0.74602 0.60077 0.0
O356 O 0.7652 0.68493 0.60888 0.0
C357 C 0.66415 0.62974 0.62184 0.0
O358 O 0.67598 0.66831 0.61372 0.0
C359 C 0.82495 0.69101 0.57256 0.0
O360 O 0.83138 0.66867 0.58609 0.0
O361 O 0.85715 0.74262 0.61363 0.0
O362 O 0.82246 0.71314 0.64122 0.0
H363 H 0.93456 0.90327 0.60959 0.0
H364 H 0.72941 0.59788 0.60685 0.0
O365 O 0.6928 0.62455 0.63122 0.0
H366 H 0.84107 0.58598 0.64633 0.0
H367 H 0.69678 0.56314 0.69116 0.0
H368 H 0.78717 0.72105 0.67167 0.0
H369 H 0.81988 0.64295 0.65337 0.0
H370 H 0.70863 0.58345 0.65725 0.0
O371 O 0.81727 0.72249 0.57652 0.0
H372 H 0.87988 0.82659 0.61969 0.0
H373 H 0.8265 0.79475 0.56385 0.0
H374 H 0.77656 0.70222 0.70572 0.0
H375 H 0.74934 0.54013 0.5994 0.0
H376 H 0.73106 0.62274 0.71567 0.0
H377 H 0.80561 0.53398 0.6192 0.0
O378 O 0.74206 0.71664 0.64098 0.0
H379 H 0.66937 0.68791 0.56019 0.0
H380 H 0.7766 0.81316 0.60024 0.0
H381 H 0.71362 0.8166 0.58547 0.0
H382 H 0.65951 0.75371 0.56522 0.0
H383 H 0.73247 0.68553 0.57545 0.0
H384 H 0.88089 0.87101 0.55312 0.0
H385 H 0.93531 0.92594 0.57609 0.0
O386 O 0.79713 0.77195 0.62436 0.0
C387 C 0.85804 0.73481 0.63131 0.0
C388 C 0.91095 0.87967 0.59946 0.0
C389 C 0.88086 0.86154 0.56776 0.0
N390 N 0.84982 0.80625 0.59241 0.0
C391 C 0.87984 0.8362 0.6051 0.0
C392 C 0.85022 0.81836 0.57391 0.0
C393 C 0.91137 0.89236 0.58066 0.0
C394 C 0.75365 0.59515 0.61562 0.0
N395 N 0.77325 0.62356 0.63059 0.0
C396 C 0.76492 0.5625 0.61129 0.0
C397 C 0.79654 0.55911 0.62239 0.0
C398 C 0.81646 0.58828 0.63761 0.0
C399 C 0.8044 0.62054 0.64151 0.0
C400 C 0.71676 0.59787 0.68701 0.0
C401 C 0.76762 0.68638 0.67588 0.0
C402 C 0.72351 0.60959 0.66783 0.0
N403 N 0.74892 0.65337 0.66249 0.0
C404 C 0.76159 0.67592 0.69518 0.0
C405 C 0.73602 0.63133 0.70075 0.0
C406 C 0.76598 0.75794 0.63671 0.0
C407 C 0.69279 0.71557 0.56894 0.0
C408 C 0.75308 0.78552 0.59155 0.0
C409 C 0.71755 0.78774 0.58317 0.0
C410 C 0.68724 0.75247 0.57179 0.0
N411 N 0.75831 0.7492 0.5887 0.0
C412 C 0.72871 0.71451 0.57755 0.0
Co413 Co 0.0913 0.75124 0.96886 0.0
Co414 Co 0.0573 0.79354 0.93252 0.0
O415 O 0.0794 0.7551 0.94207 0.0
C416 C 0.03252 0.65659 0.95748 0.0
O417 O 0.00565 0.66863 0.94962 0.0
C418 C 0.13435 0.82057 0.90554 0.0
O419 O 0.16371 0.83875 0.91931 0.0
O420 O 0.10775 0.84701 0.94513 0.0
O421 O 0.11608 0.81727 0.97222 0.0
H422 H 0.01395 0.91238 0.93685 0.0
H423 H 0.12653 0.71718 0.93877 0.0
O424 O 0.06785 0.68547 0.96598 0.0
H425 H 0.25909 0.826 0.97496 0.0
H426 H 0.14056 0.69487 0.02453 0.0
H427 H 0.07916 0.79021 0.00428 0.0
H428 H 0.1834 0.80949 0.98426 0.0
H429 H 0.12708 0.70166 0.99064 0.0
O430 O 0.09264 0.80303 0.90878 0.0
H431 H 0.04043 0.86282 0.94915 0.0
H432 H 0.02833 0.80673 0.8943 0.0
H433 H 0.09259 0.78478 0.0383 0.0
H434 H 0.20152 0.7322 0.92907 0.0
H435 H 0.12348 0.7368 0.04862 0.0
H436 H 0.26848 0.78709 0.94718 0.0
O437 O 0.03012 0.7393 0.97592 0.0
H438 H 0.98655 0.6513 0.89433 0.0
H439 H 0.95836 0.75621 0.93123 0.0
H440 H 0.89477 0.68921 0.91704 0.0
H441 H 0.90868 0.63624 0.8984 0.0
H442 H 0.04912 0.71841 0.90895 0.0
H443 H 1.00203 0.85592 0.88137 0.0
H444 H 0.99455 0.90914 0.90271 0.0
O445 O 0.02018 0.78348 0.95558 0.0
C446 C 0.12351 0.8508 0.96191 0.0
C447 C 0.01706 0.88933 0.9274 0.0
C448 C 0.01042 0.85768 0.89627 0.0
N449 N 0.03601 0.83193 0.92248 0.0
C450 C 0.03203 0.86116 0.93429 0.0
C451 C 0.02551 0.83002 0.90367 0.0
C452 C 0.0062 0.88751 0.90825 0.0
C453 C 0.1555 0.74106 0.94674 0.0
N454 N 0.15064 0.7628 0.96197 0.0
C455 C 0.19788 0.74944 0.94117 0.0
C456 C 0.23544 0.78027 0.95133 0.0
C457 C 0.2302 0.80216 0.9669 0.0
C458 C 0.1873 0.79294 0.97203 0.0
C459 C 0.12715 0.71593 0.02021 0.0
C460 C 0.0929 0.76952 0.00865 0.0
C461 C 0.11931 0.71979 1.00105 0.0
N462 N 0.10264 0.74656 0.99549 0.0
C463 C 0.1003 0.76646 0.02794 0.0
C464 C 0.11759 0.73949 0.03372 0.0
C465 C 0.00893 0.75866 0.97024 0.0
C466 C 0.98008 0.67423 0.90235 0.0
C467 C 0.96471 0.73329 0.92318 0.0
C468 C 0.92856 0.69544 0.91514 0.0
C469 C 0.93639 0.66576 0.90467 0.0
N470 N 0.0075 0.74142 0.92082 0.0
C471 C 0.01541 0.71244 0.91058 0.0
Co472 Co 0.33991 0.09416 0.29992 0.0
Co473 Co 0.26773 0.07443 0.26262 0.0
O474 O 0.3274 0.09181 0.27264 0.0
C475 C 0.37835 0.04022 0.28453 0.0
O476 O 0.341 0.01613 0.27505 0.0
C477 C 0.33413 0.14602 0.23611 0.0
O478 O 0.3679 0.15304 0.24696 0.0
O479 O 0.26506 0.12069 0.2787 0.0
O480 O 0.29773 0.1169 0.30567 0.0
H481 H 0.10647 0.03376 0.26846 0.0
H482 H 0.41691 0.1393 0.27356 0.0
O483 O 0.38291 0.07221 0.29507 0.0
H484 H 0.42911 0.25825 0.31619 0.0
H485 H 0.43847 0.12457 0.3572 0.0
H486 H 0.28399 0.0681 0.33462 0.0
H487 H 0.36817 0.18035 0.32017 0.0
H488 H 0.42258 0.12319 0.32301 0.0
O489 O 0.29398 0.11849 0.24104 0.0
H490 H 0.18163 0.05439 0.28031 0.0
H491 H 0.22709 0.05887 0.22388 0.0
H492 H 0.29842 0.06925 0.36896 0.0
H493 H 0.47896 0.21662 0.26924 0.0
H494 H 0.37614 0.09764 0.38044 0.0
H495 H 0.4852 0.27681 0.29059 0.0
O496 O 0.29033 0.03128 0.30303 0.0
H497 H 0.33987 0.01246 0.21914 0.0
H498 H 0.20316 0.9785 0.25448 0.0
H499 H 0.2048 0.91924 0.23566 0.0
H500 H 0.27343 0.93606 0.21769 0.0
H501 H 0.33712 0.07036 0.23837 0.0
H502 H 0.1525 0.03869 0.21143 0.0
H503 H 0.0915 0.02579 0.23378 0.0
O504 O 0.23859 0.02924 0.2832 0.0
C505 C 0.2739 0.12914 0.29634 0.0
C506 C 0.13274 0.0392 0.25858 0.0
C507 C 0.1586 0.04204 0.22657 0.0
N508 N 0.20873 0.05771 0.25283 0.0
C509 C 0.17537 0.05081 0.2652 0.0
C510 C 0.20083 0.05364 0.23371 0.0
C511 C 0.12438 0.03478 0.23912 0.0
C512 C 0.41943 0.16526 0.28293 0.0
N513 N 0.38841 0.1554 0.2969 0.0
C514 C 0.45462 0.20901 0.2804 0.0
C515 C 0.45809 0.24277 0.29237 0.0
C516 C 0.42657 0.2324 0.3067 0.0
C517 C 0.39183 0.18828 0.30879 0.0
C518 C 0.40447 0.1122 0.35238 0.0
C519 C 0.31793 0.08076 0.33952 0.0
C520 C 0.39526 0.11123 0.33303 0.0
N521 N 0.35243 0.09587 0.32684 0.0
C522 C 0.32588 0.08121 0.35897 0.0
C523 C 0.36949 0.0971 0.36541 0.0
C524 C 0.25056 0.0124 0.29647 0.0
C525 C 0.30959 0.00482 0.22673 0.0
C526 C 0.23317 0.98628 0.2467 0.0
C527 C 0.23387 0.95249 0.23605 0.0
C528 C 0.27236 0.96194 0.22597 0.0
N529 N 0.26963 0.0285 0.24722 0.0
C530 C 0.30765 0.03777 0.23753 0.0
Co531 Co 0.24892 0.34117 0.63522 0.0
Co532 Co 0.19982 0.26281 0.59951 0.0
O533 O 0.2401 0.3243 0.60825 0.0
C534 C 0.34215 0.3778 0.62116 0.0
O535 O 0.32928 0.33925 0.61277 0.0
C536 C 0.19099 0.3227 0.57036 0.0
O537 O 0.21559 0.35877 0.58048 0.0
O538 O 0.14929 0.25995 0.61449 0.0
O539 O 0.1838 0.29931 0.64071 0.0
H540 H 0.08398 0.10084 0.60851 0.0
H541 H 0.28119 0.41318 0.60637 0.0
O542 O 0.31412 0.38387 0.63057 0.0
H543 H 0.17176 0.43096 0.64489 0.0
H544 H 0.31335 0.44913 0.68993 0.0
H545 H 0.21748 0.29113 0.67137 0.0
H546 H 0.18935 0.37162 0.65224 0.0
H547 H 0.3008 0.42755 0.65615 0.0
O548 O 0.18104 0.28419 0.57662 0.0
H549 H 0.13572 0.17825 0.6188 0.0
H550 H 0.17756 0.21663 0.56182 0.0
H551 H 0.22878 0.31128 0.70531 0.0
H552 H 0.26529 0.47357 0.59869 0.0
H553 H 0.27704 0.39079 0.71478 0.0
H554 H 0.21 0.4826 0.61795 0.0
O555 O 0.26283 0.29289 0.64116 0.0
H556 H 0.33479 0.33383 0.55656 0.0
H557 H 0.23571 0.20079 0.59466 0.0
H558 H 0.29889 0.20323 0.57735 0.0
H559 H 0.34888 0.27002 0.55802 0.0
H560 H 0.27184 0.33036 0.5743 0.0
H561 H 0.12591 0.13972 0.55091 0.0
H562 H 0.07879 0.08113 0.57433 0.0
O563 O 0.21675 0.23824 0.62144 0.0
C564 C 0.1485 0.27227 0.63153 0.0
C565 C 0.10438 0.12605 0.59816 0.0
C566 C 0.12787 0.14788 0.56584 0.0
N567 N 0.15973 0.20199 0.59096 0.0
C568 C 0.13381 0.16995 0.60391 0.0
C569 C 0.15693 0.19145 0.57211 0.0
C570 C 0.10146 0.11502 0.57899 0.0
C571 C 0.25722 0.41698 0.61486 0.0
N572 N 0.2357 0.38843 0.62957 0.0
C573 C 0.24829 0.4512 0.61042 0.0
C574 C 0.21724 0.45622 0.62122 0.0
C575 C 0.19569 0.4272 0.6363 0.0
C576 C 0.20546 0.39336 0.6403 0.0
C577 C 0.29219 0.41438 0.68598 0.0
C578 C 0.2383 0.32583 0.67538 0.0
C579 C 0.28506 0.40194 0.66688 0.0
N580 N 0.25819 0.35815 0.66179 0.0
C581 C 0.24468 0.33702 0.69462 0.0
C582 C 0.27179 0.38163 0.69992 0.0
C583 C 0.24381 0.25247 0.63538 0.0
C584 C 0.31299 0.30435 0.56477 0.0
C585 C 0.25717 0.22999 0.58628 0.0
C586 C 0.29294 0.23115 0.57649 0.0
C587 C 0.32095 0.2686 0.56565 0.0
N588 N 0.24921 0.26499 0.58522 0.0
C589 C 0.27686 0.30199 0.57474 0.0
Co590 Co 0.90818 0.24249 0.97111 0.0
Co591 Co 0.93172 0.19239 0.93401 0.0
O592 O 0.9135 0.23414 0.94388 0.0
C593 C 0.9641 0.33557 0.95695 0.0
O594 O 0.9887 0.32252 0.94776 0.0
C595 C 0.86255 0.18877 0.90642 0.0
O596 O 0.85474 0.215 0.91724 0.0
O597 O 0.88381 0.14247 0.9491 0.0
O598 O 0.88459 0.17725 0.97617 0.0
H599 H 0.97178 0.0715 0.94007 0.0
H600 H 0.86646 0.27677 0.9441 0.0
O601 O 0.93107 0.30777 0.96692 0.0
H602 H 0.74236 0.16708 0.98386 0.0
H603 H 0.87173 0.30706 0.02794 0.0
H604 H 0.92988 0.20993 0.0062 0.0
H605 H 0.8196 0.18327 0.98938 0.0
H606 H 0.87699 0.29489 0.99377 0.0
O607 O 0.88982 0.17604 0.91163 0.0
H608 H 0.94996 0.12521 0.95177 0.0
H609 H 0.95117 0.16985 0.89549 0.0
H610 H 0.92481 0.22086 0.04051 0.0
H611 H 0.78985 0.26228 0.93827 0.0
H612 H 0.89557 0.26974 0.05157 0.0
H613 H 0.72707 0.20687 0.95816 0.0
O614 O 0.97051 0.25515 0.97552 0.0
H615 H 0.99837 0.32902 0.89197 0.0
H616 H 0.02851 0.22442 0.92791 0.0
H617 H 0.08985 0.28655 0.9104 0.0
H618 H 0.07496 0.33929 0.89215 0.0
H619 H 0.93834 0.2671 0.90989 0.0
H620 H 0.97263 0.11633 0.88317 0.0
H621 H 0.98326 0.06678 0.90554 0.0
O622 O 0.97463 0.20695 0.95545 0.0
C623 C 0.87351 0.14181 0.96657 0.0
C624 C 0.96732 0.09295 0.93019 0.0
C625 C 0.96773 0.11806 0.89825 0.0
N626 N 0.94936 0.15074 0.92435 0.0
C627 C 0.95503 0.1235 0.93673 0.0
C628 C 0.9554 0.14819 0.90531 0.0
C629 C 0.97371 0.0903 0.91081 0.0
C630 C 0.83937 0.2527 0.95285 0.0
N631 N 0.84745 0.23032 0.96687 0.0
C632 C 0.79603 0.24459 0.94946 0.0
C633 C 0.76082 0.21347 0.96061 0.0
C634 C 0.76936 0.19106 0.975 0.0
C635 C 0.81313 0.20003 0.97796 0.0
C636 C 0.88446 0.28562 0.02329 0.0
C637 C 0.91687 0.23103 0.01091 0.0
C638 C 0.88762 0.27869 0.00396 0.0
N639 N 0.90345 0.25148 0.998 0.0
C640 C 0.91419 0.23719 0.03035 0.0
C641 C 0.89782 0.26466 0.03655 0.0
C642 C 0.98985 0.23444 0.96927 0.0
C643 C 0.00519 0.30598 0.8997 0.0
C644 C 0.02158 0.24707 0.91998 0.0
C645 C 0.05654 0.28224 0.91009 0.0
C646 C 0.04817 0.31181 0.89985 0.0
N647 N 0.97929 0.24117 0.91961 0.0
C648 C 0.97105 0.27039 0.90975 0.0
Co649 Co 0.66608 0.91451 0.3031 0.0
Co650 Co 0.73964 0.9342 0.26636 0.0
O651 O 0.67976 0.91722 0.27595 0.0
C652 C 0.62957 0.96963 0.28723 0.0
O653 O 0.66757 0.99349 0.27817 0.0
C654 C 0.67373 0.86262 0.23966 0.0
O655 O 0.63984 0.85565 0.2504 0.0
O656 O 0.74134 0.88759 0.28251 0.0
O657 O 0.70739 0.89091 0.30918 0.0
H658 H 0.90047 0.974 0.27325 0.0
H659 H 0.58999 0.87077 0.27615 0.0
O660 O 0.624 0.9374 0.29784 0.0
H661 H 0.57451 0.7502 0.31851 0.0
H662 H 0.56505 0.88413 0.35947 0.0
H663 H 0.72024 0.93894 0.33832 0.0
H664 H 0.63601 0.82767 0.32301 0.0
H665 H 0.58253 0.88617 0.32542 0.0
O666 O 0.71382 0.89037 0.24463 0.0
H667 H 0.82505 0.95364 0.28462 0.0
H668 H 0.78149 0.9499 0.2279 0.0
H669 H 0.70419 0.93709 0.37252 0.0
H670 H 0.52741 0.79393 0.27133 0.0
H671 H 0.62611 0.90953 0.38329 0.0
H672 H 0.51952 0.73291 0.29253 0.0
O673 O 0.71612 0.97703 0.30671 0.0
H674 H 0.67017 0.99739 0.22211 0.0
H675 H 0.80476 0.03026 0.25893 0.0
H676 H 0.80426 0.09007 0.24009 0.0
H677 H 0.73671 0.07379 0.2214 0.0
H678 H 0.67176 0.93891 0.24134 0.0
H679 H 0.85637 0.96984 0.21593 0.0
H680 H 0.91655 0.98221 0.23867 0.0
O681 O 0.76827 0.97894 0.28716 0.0
C682 C 0.73165 0.87885 0.30007 0.0
C683 C 0.87456 0.96876 0.2632 0.0
C684 C 0.84978 0.96635 0.23103 0.0
N685 N 0.79886 0.95063 0.25696 0.0
C686 C 0.83178 0.95728 0.26955 0.0
C687 C 0.80738 0.95488 0.2379 0.0
C688 C 0.88354 0.97332 0.2438 0.0
C689 C 0.58674 0.84446 0.28547 0.0
N690 N 0.61716 0.85362 0.29965 0.0
C691 C 0.55125 0.80098 0.28266 0.0
C692 C 0.54687 0.76676 0.29454 0.0
C693 C 0.57777 0.77641 0.30909 0.0
C694 C 0.61283 0.82029 0.31146 0.0
C695 C 0.59919 0.89613 0.35496 0.0
C696 C 0.68614 0.92665 0.3429 0.0
C697 C 0.60932 0.89748 0.33569 0.0
N698 N 0.65233 0.91237 0.3299 0.0
C699 C 0.67728 0.9258 0.36228 0.0
C700 C 0.63347 0.91038 0.36831 0.0
C701 C 0.75618 0.99552 0.30051 0.0
C702 C 0.69999 0.00479 0.23003 0.0
C703 C 0.77522 0.02274 0.25081 0.0
C704 C 0.77516 0.05682 0.24016 0.0
C705 C 0.73727 0.04767 0.22968 0.0
N706 N 0.7387 0.98053 0.25094 0.0
C707 C 0.70127 0.97153 0.24083 0.0
C708 C 0.59273 0.57964 0.06359 0.0
C709 C 0.58998 0.6103 0.0514 0.0
C710 C 0.55808 0.5347 0.06434 0.0
C711 C 0.51997 0.52009 0.05254 0.0
C712 C 0.51686 0.55103 0.04038 0.0
C713 C 0.55174 0.59565 0.04 0.0
C714 C 0.56247 0.50272 0.07756 0.0
C715 C 0.47699 0.53683 0.02747 0.0
C716 C 0.45196 0.39796 0.03798 0.0
C717 C 0.41358 0.38238 0.04935 0.0
C718 C 0.48713 0.44238 0.03918 0.0
C719 C 0.48415 0.47209 0.05216 0.0
C720 C 0.44594 0.45644 0.06396 0.0
C721 C 0.41102 0.41179 0.06238 0.0
C722 C 0.52707 0.45776 0.02622 0.0
C723 C 0.44167 0.48706 0.07805 0.0
H724 H 0.62198 0.59068 0.07253 0.0
H725 H 0.54915 0.619 0.03054 0.0
H726 H 0.53283 0.4862 0.08701 0.0
H727 H 0.56356 0.476 0.06922 0.0
H728 H 0.59313 0.51975 0.08646 0.0
H729 H 0.47912 0.56527 0.01923 0.0
H730 H 0.47452 0.51103 0.01736 0.0
H731 H 0.44564 0.52154 0.0359 0.0
H732 H 0.45438 0.37557 0.02788 0.0
H733 H 0.38168 0.39999 0.07132 0.0
H734 H 0.55838 0.47232 0.03468 0.0
H735 H 0.52957 0.48444 0.01665 0.0
H736 H 0.52499 0.43009 0.0174 0.0
H737 H 0.4714 0.50266 0.0875 0.0
H738 H 0.4111 0.46915 0.08694 0.0
H739 H 0.44049 0.51455 0.07042 0.0
C740 C 1.00179 0.41918 0.39026 0.0
C741 C 0.03211 0.42051 0.37665 0.0
C742 C 0.99267 0.45445 0.39194 0.0
C743 C 0.01402 0.49171 0.37958 0.0
C744 C 0.04477 0.49327 0.36587 0.0
C745 C 0.05359 0.45782 0.36464 0.0
C746 C 0.95993 0.45172 0.40683 0.0
C747 C 0.06787 0.53211 0.35228 0.0
C748 C 0.95749 0.55984 0.36954 0.0
C749 C 0.98307 0.59849 0.38048 0.0
C750 C 0.96703 0.52482 0.36927 0.0
C751 C 0.00278 0.52815 0.38035 0.0
C752 C 0.02841 0.56676 0.39164 0.0
C753 C 0.0184 0.60161 0.3915 0.0
C754 C 0.93916 0.4845 0.35688 0.0
C755 C 0.06654 0.57132 0.40378 0.0
H756 H 0.98534 0.39068 0.39971 0.0
H757 H 0.07707 0.45917 0.35406 0.0
H758 H 0.97587 0.48188 0.41602 0.0
H759 H 0.93067 0.45095 0.39991 0.0
H760 H 0.94776 0.42153 0.41591 0.0
H761 H 0.0916 0.52871 0.34272 0.0
H762 H 0.04256 0.53463 0.34347 0.0
H763 H 0.08654 0.56394 0.36029 0.0
H764 H 0.93019 0.55708 0.36093 0.0
H765 H 0.03815 0.6312 0.40008 0.0
H766 H 0.92365 0.45362 0.36561 0.0
H767 H 0.96087 0.48092 0.34623 0.0
H768 H 0.91219 0.48685 0.34928 0.0
H769 H 0.0544 0.5424 0.41358 0.0
H770 H 0.08216 0.60266 0.41228 0.0
H771 H 0.09264 0.57106 0.39467 0.0
C772 C 0.40305 0.95223 0.70647 0.0
C773 C 0.38837 0.97527 0.71819 0.0
C774 C 0.44757 0.96146 0.70703 0.0
C775 C 0.47826 0.99428 0.71974 0.0
C776 C 0.46346 0.01694 0.73193 0.0
C777 C 0.41875 0.0073 0.73096 0.0
C778 C 0.46201 0.93679 0.69368 0.0
C779 C 0.49507 0.05192 0.74578 0.0
C780 C 0.58673 0.99406 0.73003 0.0
C781 C 0.61691 0.02779 0.7178 0.0
C782 C 0.54164 0.98323 0.73106 0.0
C783 C 0.52631 0.00646 0.71951 0.0
C784 C 0.55671 0.04069 0.70725 0.0
C785 C 0.60154 0.05101 0.70659 0.0
C786 C 0.51031 0.94671 0.74439 0.0
C787 C 0.54175 0.06609 0.69461 0.0
H788 H 0.37991 0.92741 0.69655 0.0
H789 H 0.40769 0.02506 0.74016 0.0
H790 H 0.48804 0.9609 0.68385 0.0
H791 H 0.47715 0.92013 0.70179 0.0
H792 H 0.4337 0.91113 0.68513 0.0
H793 H 0.47779 0.06465 0.75502 0.0
H794 H 0.51127 0.03785 0.75488 0.0
H795 H 0.52208 0.08054 0.73791 0.0
H796 H 0.59831 0.9761 0.73881 0.0
H797 H 0.6245 0.07713 0.69709 0.0
H798 H 0.48304 0.91904 0.7362 0.0
H799 H 0.49442 0.95979 0.75422 0.0
H800 H 0.52774 0.9329 0.7529 0.0
H801 H 0.51524 0.04257 0.68478 0.0
H802 H 0.5697 0.0922 0.68607 0.0
H803 H 0.5271 0.08238 0.7033 0.0
C804 C 0.60303 0.55383 0.63175 0.0
C805 C 0.61731 0.59212 0.62047 0.0
C806 C 0.5586 0.51837 0.6311 0.0
C807 C 0.52763 0.52091 0.61871 0.0
C808 C 0.54201 0.55904 0.60699 0.0
C809 C 0.58661 0.5943 0.60808 0.0
C810 C 0.54458 0.47858 0.64398 0.0
C811 C 0.51011 0.56285 0.59348 0.0
C812 C 0.41994 0.41204 0.60767 0.0
C813 C 0.38947 0.41452 0.62009 0.0
C814 C 0.46485 0.44676 0.60679 0.0
C815 C 0.47973 0.48462 0.61876 0.0
C816 C 0.44906 0.48733 0.63126 0.0
C817 C 0.40438 0.45245 0.63171 0.0
C818 C 0.49645 0.44284 0.59315 0.0
C819 C 0.46358 0.52684 0.64441 0.0
H820 H 0.62643 0.55178 0.6414 0.0
H821 H 0.5974 0.62358 0.59921 0.0
H822 H 0.5183 0.47567 0.65392 0.0
H823 H 0.5299 0.44729 0.63552 0.0
H824 H 0.57301 0.48115 0.6524 0.0
H825 H 0.52705 0.5935 0.5846 0.0
H826 H 0.49425 0.53319 0.584 0.0
H827 H 0.48287 0.56349 0.60159 0.0
H828 H 0.40869 0.38302 0.59856 0.0
H829 H 0.3812 0.45472 0.6414 0.0
H830 H 0.52392 0.44233 0.60113 0.0
H831 H 0.51205 0.47241 0.58364 0.0
H832 H 0.47932 0.4121 0.5843 0.0
H833 H 0.49026 0.52959 0.65407 0.0
H834 H 0.43548 0.52409 0.65313 0.0
H835 H 0.47788 0.55828 0.63608 0.0
C836 C 0.00602 0.41304 0.94312 0.0
C837 C 0.97424 0.38269 0.95594 0.0
C838 C 0.01553 0.45769 0.94223 0.0
C839 C 0.99301 0.47237 0.95456 0.0
C840 C 0.96076 0.4418 0.96745 0.0
C841 C 0.95166 0.3974 0.96792 0.0
C842 C 0.0499 0.48925 0.9282 0.0
C843 C 0.9363 0.45615 0.98097 0.0
C844 C 0.04729 0.59557 0.96736 0.0
C845 C 0.02251 0.60954 0.9564 0.0
C846 C 0.03842 0.55124 0.96667 0.0
C847 C 0.00419 0.52005 0.9546 0.0
C848 C 0.97947 0.53403 0.94328 0.0
C849 C 0.98877 0.57858 0.94438 0.0
C850 C 0.06523 0.53762 0.97913 0.0
C851 C 0.94294 0.50182 0.93013 0.0
H852 H 0.0234 0.4019 0.93373 0.0
H853 H 0.92707 0.37429 0.97791 0.0
H854 H 0.03499 0.50446 0.91899 0.0
H855 H 0.07832 0.51698 0.93589 0.0
H856 H 0.06311 0.47222 0.91907 0.0
H857 H 0.91162 0.42806 0.98989 0.0
H858 H 0.96068 0.48301 0.99045 0.0
H859 H 0.91844 0.47013 0.97294 0.0
H860 H 0.07341 0.6192 0.97671 0.0
H861 H 0.96973 0.58918 0.93575 0.0
H862 H 0.08161 0.5232 0.97034 0.0
H863 H 0.0426 0.51127 0.9892 0.0
H864 H 0.09142 0.56618 0.98739 0.0
H865 H 0.95634 0.48621 0.92031 0.0
H866 H 0.92827 0.51842 0.92161 0.0
H867 H 0.91582 0.47445 0.93849 0.0
C868 C 0.41376 0.99803 0.27074 0.0
C869 C 0.41557 0.03037 0.28336 0.0
C870 C 0.44876 0.98825 0.26993 0.0
C871 C 0.48626 0.01114 0.2821 0.0
C872 C 0.48849 0.04421 0.29466 0.0
C873 C 0.45328 0.0535 0.29509 0.0
C874 C 0.44531 0.95296 0.25627 0.0
C875 C 0.52767 0.06918 0.30798 0.0
C876 C 0.55371 0.9562 0.29632 0.0
C877 C 0.59264 0.97973 0.28533 0.0
C878 C 0.5186 0.96553 0.29511 0.0
C879 C 0.52219 0.99909 0.28251 0.0
C880 C 0.56099 0.02244 0.27109 0.0
C881 C 0.59583 0.01258 0.27267 0.0
C882 C 0.47799 0.94004 0.30763 0.0
C883 C 0.56595 0.0583 0.25742 0.0
H884 H 0.38493 0.9802 0.26154 0.0
H885 H 0.45515 0.07861 0.30488 0.0
H886 H 0.47554 0.96684 0.24714 0.0
H887 H 0.44378 0.92456 0.26428 0.0
H888 H 0.41522 0.93995 0.24704 0.0
H889 H 0.52501 0.09493 0.31644 0.0
H890 H 0.52969 0.04528 0.31789 0.0
H891 H 0.55944 0.0858 0.29984 0.0
H892 H 0.55076 0.93068 0.30612 0.0
H893 H 0.6256 0.03072 0.26403 0.0
H894 H 0.44715 0.92374 0.29886 0.0
H895 H 0.47486 0.96354 0.31741 0.0
H896 H 0.47972 0.91396 0.31622 0.0
H897 H 0.53677 0.04479 0.24768 0.0
H898 H 0.59704 0.07169 0.24883 0.0
H899 H 0.56657 0.08636 0.26538 0.0
C900 C 0.37366 0.15485 0.20551 0.0
C901 C 0.34213 0.16007 0.21606 0.0
C902 C 0.37604 0.15985 0.18568 0.0
C903 C 0.34721 0.17182 0.17632 0.0
C904 C 0.31701 0.17953 0.1871 0.0
C905 C 0.31416 0.17259 0.20681 0.0
C906 C 0.40754 0.14977 0.17468 0.0
C907 C 0.28671 0.19376 0.17776 0.0
C908 C 0.37319 0.21623 0.12576 0.0
C909 C 0.34028 0.17979 0.11547 0.0
C910 C 0.37629 0.21401 0.14557 0.0
C911 C 0.34671 0.17389 0.15519 0.0
C912 C 0.31499 0.13623 0.14468 0.0
C913 C 0.31152 0.13997 0.12499 0.0
C914 C 0.40947 0.25535 0.15628 0.0
C915 C 0.28381 0.09237 0.15431 0.0
H916 H 0.39459 0.14414 0.21261 0.0
H917 H 0.28955 0.17627 0.21499 0.0
H918 H 0.38784 0.12 0.16554 0.0
H919 H 0.42912 0.17809 0.16519 0.0
H920 H 0.42928 0.14304 0.18413 0.0
H921 H 0.26897 0.20325 0.18831 0.0
H922 H 0.30634 0.22262 0.16819 0.0
H923 H 0.26133 0.16597 0.16896 0.0
H924 H 0.39481 0.24739 0.11845 0.0
H925 H 0.28589 0.11192 0.11703 0.0
H926 H 0.43076 0.24774 0.16556 0.0
H927 H 0.39115 0.26671 0.16561 0.0
H928 H 0.43146 0.28325 0.14664 0.0
H929 H 0.30302 0.08222 0.16369 0.0
H930 H 0.26461 0.0651 0.14393 0.0
H931 H 0.25968 0.0963 0.16335 0.0
C932 C 0.1857 0.30035 0.45878 0.0
C933 C 0.15648 0.31135 0.44955 0.0
C934 C 0.19394 0.30775 0.47837 0.0
C935 C 0.17192 0.32594 0.48901 0.0
C936 C 0.14413 0.3391 0.47961 0.0
C937 C 0.13707 0.33202 0.46 0.0
C938 C 0.2245 0.29403 0.48783 0.0
C939 C 0.1196 0.35811 0.49042 0.0
C940 C 0.14879 0.28891 0.54047 0.0
C941 C 0.18238 0.32634 0.55004 0.0
C942 C 0.14429 0.28895 0.5207 0.0
C943 C 0.17455 0.32716 0.51014 0.0
C944 C 0.20765 0.36563 0.51975 0.0
C945 C 0.21097 0.36489 0.53964 0.0
C946 C 0.10794 0.24751 0.51105 0.0
C947 C 0.24077 0.40681 0.50898 0.0
H948 H 0.20103 0.28462 0.45083 0.0
H949 H 0.11438 0.34068 0.45308 0.0
H950 H 0.24918 0.32145 0.49701 0.0
H951 H 0.2045 0.2646 0.49707 0.0
H952 H 0.24287 0.28514 0.47736 0.0
H953 H 0.10258 0.37048 0.48083 0.0
H954 H 0.09399 0.33182 0.49972 0.0
H955 H 0.14304 0.38601 0.49971 0.0
H956 H 0.12656 0.25903 0.54844 0.0
H957 H 0.23736 0.39373 0.54691 0.0
H958 H 0.12325 0.23279 0.50179 0.0
H959 H 0.08735 0.2563 0.50187 0.0
H960 H 0.08555 0.22166 0.52139 0.0
H961 H 0.26224 0.39866 0.50005 0.0
H962 H 0.26263 0.4349 0.51859 0.0
H963 H 0.22298 0.41806 0.49931 0.0
C964 C 0.78727 0.15557 0.7967 0.0
C965 C 0.82294 0.15895 0.7859 0.0
C966 C 0.79099 0.16136 0.81649 0.0
C967 C 0.83189 0.17229 0.82555 0.0
C968 C 0.86877 0.1781 0.8145 0.0
C969 C 0.86352 0.17037 0.79485 0.0
C970 C 0.75042 0.1533 0.82778 0.0
C971 C 0.91342 0.19121 0.8235 0.0
C972 C 0.85357 0.21922 0.87577 0.0
C973 C 0.84885 0.18268 0.88631 0.0
C974 C 0.84783 0.2163 0.85598 0.0
C975 C 0.83554 0.17538 0.84664 0.0
C976 C 0.82862 0.13775 0.85742 0.0
C977 C 0.83633 0.14216 0.87708 0.0
C978 C 0.85716 0.25761 0.84497 0.0
C979 C 0.81408 0.09311 0.84812 0.0
H980 H 0.75553 0.14572 0.78982 0.0
H981 H 0.89097 0.17263 0.78648 0.0
H982 H 0.73997 0.12398 0.83722 0.0
H983 H 0.75861 0.18248 0.83699 0.0
H984 H 0.7217 0.14686 0.81854 0.0
H985 H 0.93993 0.19924 0.81274 0.0
H986 H 0.92415 0.22072 0.83287 0.0
H987 H 0.91033 0.1634 0.83246 0.0
H988 H 0.86425 0.25088 0.88286 0.0
H989 H 0.83299 0.11403 0.88525 0.0
H990 H 0.82801 0.2507 0.83598 0.0
H991 H 0.88603 0.26725 0.83533 0.0
H992 H 0.86493 0.28642 0.8544 0.0
H993 H 0.78441 0.08337 0.83897 0.0
H994 H 0.80567 0.06617 0.85869 0.0
H995 H 0.84129 0.09562 0.83889 0.0
C996 C 0.63171 0.78121 0.13066 0.0
C997 C 0.66388 0.81657 0.1197 0.0
C998 C 0.62944 0.78575 0.15039 0.0
C999 C 0.65905 0.82713 0.1592 0.0
C1000 C 0.68995 0.86366 0.14796 0.0
C1001 C 0.69266 0.85762 0.12839 0.0
C1002 C 0.59715 0.74556 0.16191 0.0
C1003 C 0.72109 0.90878 0.15667 0.0
C1004 C 0.6336 0.85104 0.20898 0.0
C1005 C 0.66581 0.84741 0.21975 0.0
C1006 C 0.63062 0.84408 0.18926 0.0
C1007 C 0.65952 0.83169 0.18025 0.0
C1008 C 0.69055 0.82576 0.19127 0.0
C1009 C 0.69399 0.83466 0.21084 0.0
C1010 C 0.59826 0.85235 0.17797 0.0
C1011 C 0.72097 0.81116 0.18233 0.0
H1012 H 0.61012 0.74913 0.12399 0.0
H1013 H 0.71773 0.88482 0.11989 0.0
H1014 H 0.61621 0.73571 0.17154 0.0
H1015 H 0.57598 0.75387 0.17093 0.0
H1016 H 0.57501 0.71641 0.15283 0.0
H1017 H 0.73941 0.93488 0.14575 0.0
H1018 H 0.702 0.91961 0.1658 0.0
H1019 H 0.74598 0.90642 0.16583 0.0
H1020 H 0.61247 0.86188 0.21582 0.0
H1021 H 0.71908 0.83215 0.21918 0.0
H1022 H 0.57638 0.82277 0.16911 0.0
H1023 H 0.61724 0.88094 0.16818 0.0
H1024 H 0.57683 0.86002 0.18719 0.0
H1025 H 0.70124 0.78106 0.17337 0.0
H1026 H 0.73964 0.80344 0.19311 0.0
H1027 H 0.74557 0.83805 0.17295 0.0
C1028 C 0.80553 0.69477 0.53888 0.0
C1029 C 0.82612 0.68063 0.55222 0.0
C1030 C 0.80989 0.69047 0.51937 0.0
C1031 C 0.83579 0.67178 0.51287 0.0
C1032 C 0.85455 0.65499 0.52622 0.0
C1033 C 0.84933 0.65944 0.5458 0.0
C1034 C 0.78909 0.70865 0.50572 0.0
C1035 C 0.88232 0.63476 0.51983 0.0
C1036 C 0.83082 0.64968 0.45959 0.0
C1037 C 0.86803 0.68937 0.45316 0.0
C1038 C 0.8206 0.64251 0.47909 0.0
C1039 C 0.84813 0.67588 0.4924 0.0
C1040 C 0.886 0.71562 0.48596 0.0
C1041 C 0.8954 0.72182 0.46652 0.0
C1042 C 0.77998 0.5997 0.48545 0.0
C1043 C 0.91612 0.75231 0.49958 0.0
H1044 H 0.7868 0.71047 0.54369 0.0
H1045 H 0.86511 0.64825 0.55602 0.0
H1046 H 0.81588 0.73924 0.49879 0.0
H1047 H 0.77049 0.68393 0.49438 0.0
H1048 H 0.76581 0.71735 0.51294 0.0
H1049 H 0.88911 0.61763 0.53163 0.0
H1050 H 0.86524 0.61042 0.50818 0.0
H1051 H 0.91483 0.66154 0.51422 0.0
H1052 H 0.8097 0.62424 0.44941 0.0
H1053 H 0.92429 0.7526 0.46181 0.0
H1054 H 0.75495 0.6073 0.49164 0.0
H1055 H 0.78937 0.58346 0.49671 0.0
H1056 H 0.764 0.57566 0.47357 0.0
H1057 H 0.89696 0.76625 0.50662 0.0
H1058 H 0.94557 0.78009 0.49239 0.0
H1059 H 0.92828 0.7386 0.51086 0.0
C1060 C 0.18931 0.85642 0.87887 0.0
C1061 C 0.14849 0.82157 0.88563 0.0
C1062 C 0.19904 0.86089 0.85932 0.0
C1063 C 0.16749 0.82934 0.84638 0.0
C1064 C 0.12778 0.79234 0.85337 0.0
C1065 C 0.11863 0.78913 0.87285 0.0
C1066 C 0.24162 0.90101 0.85241 0.0
C1067 C 0.0935 0.75757 0.84016 0.0
C1068 C 0.15828 0.87009 0.79756 0.0
C1069 C 0.1812 0.8549 0.78605 0.0
C1070 C 0.15412 0.8623 0.81715 0.0
C1071 C 0.17277 0.83808 0.82556 0.0
C1072 C 0.19493 0.82152 0.81403 0.0
C1073 C 0.19902 0.83023 0.79438 0.0
C1074 C 0.13004 0.88048 0.82887 0.0
C1075 C 0.21467 0.79503 0.82248 0.0
H1076 H 0.21245 0.88157 0.88869 0.0
H1077 H 0.08723 0.76173 0.87802 0.0
H1078 H 0.25891 0.89066 0.84204 0.0
H1079 H 0.23331 0.92431 0.84501 0.0
H1080 H 0.26501 0.91935 0.86424 0.0
H1081 H 0.06763 0.72787 0.84796 0.0
H1082 H 0.07653 0.77244 0.83208 0.0
H1083 H 0.10992 0.74636 0.82972 0.0
H1084 H 0.14399 0.88882 0.79131 0.0
H1085 H 0.21691 0.81848 0.78564 0.0
H1086 H 0.1525 0.90273 0.8402 0.0
H1087 H 0.1005 0.85257 0.83591 0.0
H1088 H 0.11849 0.89966 0.8202 0.0
H1089 H 0.24073 0.8158 0.83305 0.0
H1090 H 0.2299 0.78356 0.81155 0.0
H1091 H 0.18836 0.76536 0.8301 0.0
C1092 C 0.1819 0.90397 0.98454 0.0
C1093 C 0.14948 0.8959 0.97068 0.0
C1094 C 0.20372 0.94464 0.9945 0.0
C1095 C 0.19178 0.97772 0.99106 0.0
C1096 C 0.15945 0.97011 0.97692 0.0
C1097 C 0.13933 0.92964 0.96664 0.0
C1098 C 0.23915 0.95189 0.00892 0.0
C1099 C 0.14491 0.00401 0.97312 0.0
C1100 C 0.21581 0.0612 0.03113 0.0
C1101 C 0.25362 0.09976 0.02426 0.0
C1102 C 0.1948 0.02159 0.02031 0.0
C1103 C 0.21283 0.01994 0.00244 0.0
C1104 C 0.25154 0.0584 0.99563 0.0
C1105 C 0.27093 0.09793 0.00644 0.0
C1106 C 0.15292 0.98168 0.02789 0.0
C1107 C 0.27271 0.05779 0.97696 0.0
H1108 H 0.19019 0.87834 0.98772 0.0
H1109 H 0.11427 0.92374 0.95603 0.0
H1110 H 0.27043 0.98384 0.00601 0.0
H1111 H 0.22774 0.95448 0.02334 0.0
H1112 H 0.24691 0.92428 0.0089 0.0
H1113 H 0.11926 0.993 0.96173 0.0
H1114 H 0.13085 0.00984 0.98627 0.0
H1115 H 0.17413 0.03652 0.96897 0.0
H1116 H 0.20184 0.06223 0.04476 0.0
H1117 H 0.29983 0.12744 1.00086 0.0
H1118 H 0.15886 0.95325 0.03009 0.0
H1119 H 0.12536 0.9707 0.01741 0.0
H1120 H 0.14185 0.98907 0.04155 0.0
H1121 H 0.2811 0.03065 0.977 0.0
H1122 H 0.30369 0.09003 0.97399 0.0
H1123 H 0.24871 0.05066 0.96519 0.0
C1124 C 0.14414 0.21458 0.36407 0.0
C1125 C 0.15514 0.25858 0.35973 0.0
C1126 C 0.16292 0.19291 0.35382 0.0
C1127 C 0.19476 0.21636 0.33936 0.0
C1128 C 0.20737 0.26141 0.3355 0.0
C1129 C 0.18688 0.28162 0.34548 0.0
C1130 C 0.14764 0.14449 0.35807 0.0
C1131 C 0.24234 0.28827 0.32073 0.0
C1132 C 0.27205 0.17255 0.32461 0.0
C1133 C 0.2543 0.15265 0.30694 0.0
C1134 C 0.25347 0.19388 0.33513 0.0
C1135 C 0.21497 0.19396 0.32824 0.0
C1136 C 0.19632 0.17331 0.31057 0.0
C1137 C 0.21662 0.15359 0.3 0.0
C1138 C 0.27532 0.21664 0.35358 0.0
C1139 C 0.15455 0.17152 0.30295 0.0
H1140 H 0.11953 0.19642 0.37497 0.0
H1141 H 0.19586 0.31566 0.34211 0.0
H1142 H 0.13319 0.12401 0.34508 0.0
H1143 H 0.17658 0.14084 0.36237 0.0
H1144 H 0.12212 0.13077 0.36953 0.0
H1145 H 0.25038 0.32371 0.32026 0.0
H1146 H 0.27358 0.28754 0.32369 0.0
H1147 H 0.23038 0.27322 0.3065 0.0
H1148 H 0.30076 0.17172 0.33028 0.0
H1149 H 0.20225 0.13794 0.2865 0.0
H1150 H 0.25159 0.2007 0.36551 0.0
H1151 H 0.28414 0.25228 0.35314 0.0
H1152 H 0.30615 0.21513 0.3566 0.0
H1153 H 0.12723 0.15592 0.31358 0.0
H1154 H 0.1429 0.15222 0.2895 0.0
H1155 H 0.16092 0.20591 0.30035 0.0
C1156 C 0.90612 0.1783 0.67959 0.0
C1157 C 0.90135 0.15241 0.69573 0.0
C1158 C 0.94609 0.1988 0.66908 0.0
C1159 C 0.98187 0.19203 0.67435 0.0
C1160 C 0.97725 0.16566 0.69054 0.0
C1161 C 0.9374 0.14685 0.70121 0.0
C1162 C 0.95001 0.2278 0.65232 0.0
C1163 C 0.01406 0.15654 0.69637 0.0
C1164 C 0.06838 0.21149 0.63618 0.0
C1165 C 0.1049 0.25272 0.64175 0.0
C1166 C 0.02843 0.19101 0.6468 0.0
C1167 C 0.02423 0.21294 0.66303 0.0
C1168 C 0.06049 0.25511 0.6684 0.0
C1169 C 0.10051 0.274 0.65794 0.0
C1170 C 0.99106 0.14545 0.64087 0.0
C1171 C 0.05708 0.28037 0.68523 0.0
H1172 H 0.87861 0.18275 0.67513 0.0
H1173 H 0.93403 0.12662 0.71352 0.0
H1174 H 0.97987 0.26157 0.654 0.0
H1175 H 0.95467 0.21318 0.63909 0.0
H1176 H 0.91998 0.23148 0.65063 0.0
H1177 H 0.00461 0.13396 0.70885 0.0
H1178 H 0.02234 0.14105 0.68439 0.0
H1179 H 0.04487 0.1884 0.69987 0.0
H1180 H 0.07143 0.19449 0.62383 0.0
H1181 H 0.12841 0.30564 0.66251 0.0
H1182 H 0.96061 0.14719 0.63741 0.0
H1183 H 0.98235 0.12146 0.65278 0.0
H1184 H 1.00016 0.13212 0.62833 0.0
H1185 H 0.02754 0.28485 0.68361 0.0
H1186 H 0.08743 0.31384 0.68695 0.0
H1187 H 0.05216 0.26093 0.69841 0.0
C1188 C 0.79309 0.9293 0.03468 0.0
C1189 C 0.74967 0.89473 0.03041 0.0
C1190 C 0.81351 0.9691 0.02401 0.0
C1191 C 0.78934 0.9752 0.00915 0.0
C1192 C 0.74501 0.94099 0.00519 0.0
C1193 C 0.7261 0.90098 0.01561 0.0
C1194 C 0.86128 0.00422 0.02836 0.0
C1195 C 0.71743 0.94665 0.98995 0.0
C1196 C 0.82816 0.09496 0.99407 0.0
C1197 C 0.84979 0.09824 0.97675 0.0
C1198 C 0.80765 0.05497 0.00451 0.0
C1199 C 0.81011 0.01754 0.9979 0.0
C1200 C 0.83211 0.02056 0.9805 0.0
C1201 C 0.851 0.06059 0.96998 0.0
C1202 C 0.78337 0.05287 0.02266 0.0
C1203 C 0.83652 0.98182 0.97319 0.0
H1204 H 0.81172 0.9247 0.04596 0.0
H1205 H 0.69261 0.87466 0.0122 0.0
H1206 H 0.8822 0.01138 0.01545 0.0
H1207 H 0.8629 0.03592 0.03264 0.0
H1208 H 0.87601 0.9937 0.03989 0.0
H1209 H 0.68276 0.91772 0.98924 0.0
H1210 H 0.71575 0.97747 0.99264 0.0
H1211 H 0.73352 0.95058 0.97592 0.0
H1212 H 0.82723 0.12375 0.99957 0.0
H1213 H 0.86791 0.06276 0.95674 0.0
H1214 H 0.79998 0.04692 0.03488 0.0
H1215 H 0.74846 0.02444 0.02207 0.0
H1216 H 0.78246 0.08414 0.02532 0.0
H1217 H 0.85327 0.97184 0.984 0.0
H1218 H 0.85604 0.99005 0.95979 0.0
H1219 H 0.80288 0.95242 0.97063 0.0
C1220 C 0.79053 0.85695 0.30467 0.0
C1221 C 0.75132 0.8558 0.31092 0.0
C1222 C 0.81139 0.83856 0.31569 0.0
C1223 C 0.79173 0.81694 0.33307 0.0
C1224 C 0.75153 0.81459 0.33919 0.0
C1225 C 0.73238 0.83476 0.32827 0.0
C1226 C 0.85492 0.84293 0.30889 0.0
C1227 C 0.72853 0.79054 0.35725 0.0
C1228 C 0.82485 0.73345 0.35084 0.0
C1229 C 0.85495 0.75719 0.36556 0.0
C1230 C 0.80303 0.75191 0.34062 0.0
C1231 C 0.81272 0.79604 0.34465 0.0
C1232 C 0.84279 0.82019 0.35959 0.0
C1233 C 0.86283 0.80014 0.37011 0.0
C1234 C 0.77 0.72429 0.32531 0.0
C1235 C 0.85502 0.86778 0.36403 0.0
H1236 H 0.80571 0.87339 0.29141 0.0
H1237 H 0.70237 0.83387 0.33337 0.0
H1238 H 0.88101 0.8592 0.32 0.0
H1239 H 0.85059 0.8093 0.30627 0.0
H1240 H 0.86712 0.86283 0.29562 0.0
H1241 H 0.69641 0.79 0.3596 0.0
H1242 H 0.72173 0.75553 0.35679 0.0
H1243 H 0.7507 0.80701 0.3696 0.0
H1244 H 0.81846 0.70035 0.34714 0.0
H1245 H 0.88606 0.81888 0.38138 0.0
H1246 H 0.78295 0.73975 0.31124 0.0
H1247 H 0.73774 0.72345 0.32756 0.0
H1248 H 0.76352 0.68935 0.32495 0.0
H1249 H 0.86974 0.889 0.35127 0.0
H1250 H 0.87942 0.88222 0.37589 0.0
H1251 H 0.8246 0.86928 0.36782 0.0
C1252 C 0.09388 0.88471 0.68322 0.0
C1253 C 0.10641 0.85905 0.69425 0.0
C1254 C 0.0542 0.86436 0.67249 0.0
C1255 C 0.02695 0.81709 0.67246 0.0
C1256 C 0.0401 0.79103 0.68337 0.0
C1257 C 0.07959 0.81241 0.69428 0.0
C1258 C 0.04115 0.8935 0.66139 0.0
C1259 C 0.01247 0.7406 0.68351 0.0
C1260 C 0.90321 0.76631 0.66081 0.0
C1261 C 0.90158 0.75528 0.64153 0.0
C1262 C 0.94369 0.78656 0.67093 0.0
C1263 C 0.9837 0.79517 0.66173 0.0
C1264 C 0.9823 0.7836 0.64231 0.0
C1265 C 0.94133 0.76437 0.63235 0.0
C1266 C 0.94369 0.79938 0.69143 0.0
C1267 C 0.02403 0.79136 0.63209 0.0
H1268 H 0.11511 0.92083 0.68311 0.0
H1269 H 0.0899 0.7927 0.70261 0.0
H1270 H 0.03765 0.88451 0.64613 0.0
H1271 H 0.00812 0.88773 0.66634 0.0
H1272 H 0.06605 0.92969 0.66287 0.0
H1273 H 0.02845 0.72514 0.69192 0.0
H1274 H 0.97892 0.72986 0.68959 0.0
H1275 H 0.0073 0.72755 0.66878 0.0
H1276 H 0.87279 0.76 0.66797 0.0
H1277 H 0.94027 0.7558 0.61749 0.0
H1278 H 0.96656 0.83588 0.69328 0.0
H1279 H 0.95632 0.78201 0.70062 0.0
H1280 H 0.9098 0.7909 0.69644 0.0
H1281 H 0.04904 0.82762 0.63191 0.0
H1282 H 0.01708 0.77893 0.61724 0.0
H1283 H 0.03941 0.7743 0.63975 0.0
C1284 C 0.05167 0.27202 0.99339 0.0
C1285 C 0.03144 0.24119 0.97854 0.0
C1286 C 0.09014 0.27689 0.00253 0.0
C1287 C 0.10844 0.25002 0.99679 0.0
C1288 C 0.0888 0.21969 0.98153 0.0
C1289 C 0.05078 0.21578 0.97258 0.0
C1290 C 0.11048 0.30987 0.01866 0.0
C1291 C 0.10693 0.19003 0.97507 0.0
C1292 C 0.2246 0.27285 0.0107 0.0
C1293 C 0.21444 0.242 0.02549 0.0
C1294 C 0.19067 0.27747 0.00175 0.0
C1295 C 0.14562 0.25037 0.00763 0.0
C1296 C 0.1354 0.22023 0.0229 0.0
C1297 C 0.16984 0.21653 0.03165 0.0
C1298 C 0.20282 0.31025 0.9856 0.0
C1299 C 0.08777 0.19038 0.02951 0.0
H1300 H 0.03721 0.292 0.99804 0.0
H1301 H 0.03571 0.19192 0.9611 0.0
H1302 H 0.10607 0.29156 0.03215 0.0
H1303 H 0.147 0.33177 0.0164 0.0
H1304 H 0.09494 0.33118 0.02023 0.0
H1305 H 0.08919 0.1699 0.96234 0.0
H1306 H 0.14311 0.21053 0.97172 0.0
H1307 H 0.10348 0.16679 0.98667 0.0
H1308 H 0.25891 0.29287 0.0059 0.0
H1309 H 0.16139 0.19269 0.0431 0.0
H1310 H 0.18762 0.33165 0.98781 0.0
H1311 H 0.18917 0.29173 0.97212 0.0
H1312 H 0.23963 0.33207 0.98405 0.0
H1313 H 0.07177 0.21063 0.03274 0.0
H1314 H 0.08581 0.17079 0.04234 0.0
H1315 H 0.06796 0.16663 0.01803 0.0
C1316 C 0.83631 0.0551 0.30402 0.0
C1317 C 0.79132 0.03767 0.30931 0.0
C1318 C 0.87065 0.09353 0.31264 0.0
C1319 C 0.85995 0.11566 0.32682 0.0
C1320 C 0.81458 0.09936 0.33181 0.0
C1321 C 0.78075 0.06034 0.32308 0.0
C1322 C 0.91861 0.10939 0.30706 0.0
C1323 C 0.80193 0.12244 0.34673 0.0
C1324 C 0.95242 0.17819 0.36265 0.0
C1325 C 0.97359 0.22216 0.3556 0.0
C1326 C 0.91451 0.14369 0.35379 0.0
C1327 C 0.89678 0.15322 0.33752 0.0
C1328 C 0.91682 0.19771 0.33067 0.0
C1329 C 0.9552 0.23169 0.33973 0.0
C1330 C 0.89456 0.09662 0.36144 0.0
C1331 C 0.89848 0.20915 0.31346 0.0
H1332 H 0.84507 0.03812 0.29337 0.0
H1333 H 0.74614 0.0474 0.32717 0.0
H1334 H 0.93571 0.14519 0.30295 0.0
H1335 H 0.93703 0.10642 0.31938 0.0
H1336 H 0.92109 0.0898 0.29508 0.0
H1337 H 0.76512 0.10837 0.34761 0.0
H1338 H 0.8142 0.11884 0.3608 0.0
H1339 H 0.81808 0.15878 0.34367 0.0
H1340 H 0.96603 0.17024 0.37494 0.0
H1341 H 0.97105 0.26553 0.33423 0.0
H1342 H 0.89821 0.07501 0.35076 0.0
H1343 H 0.85823 0.08224 0.36413 0.0
H1344 H 0.91088 0.09525 0.37482 0.0
H1345 H 0.90357 0.19347 0.30066 0.0
H1346 H 0.91496 0.24584 0.31108 0.0
H1347 H 0.8619 0.19553 0.315 0.0
C1348 C 0.78918 0.83764 0.64333 0.0
C1349 C 0.75938 0.79201 0.64673 0.0
C1350 C 0.78451 0.87092 0.65258 0.0
C1351 C 0.74902 0.85854 0.66559 0.0
C1352 C 0.71816 0.81265 0.66887 0.0
C1353 C 0.7238 0.77983 0.65944 0.0
C1354 C 0.81846 0.91946 0.64879 0.0
C1355 C 0.67978 0.79831 0.68258 0.0
C1356 C 0.77546 0.94734 0.70275 0.0
C1357 C 0.75541 0.97069 0.69512 0.0
C1358 C 0.77154 0.90935 0.69378 0.0
C1359 C 0.74688 0.89404 0.67672 0.0
C1360 C 0.72483 0.91609 0.66933 0.0
C1361 C 0.72942 0.95428 0.6786 0.0
C1362 C 0.79587 0.88705 0.70208 0.0
C1363 C 0.69807 0.90054 0.65118 0.0
H1364 H 0.81682 0.84765 0.63355 0.0
H1365 H 0.70045 0.74472 0.66207 0.0
H1366 H 0.8013 0.93789 0.64434 0.0
H1367 H 0.83722 0.93544 0.662 0.0
H1368 H 0.84288 0.92342 0.6376 0.0
H1369 H 0.65678 0.76151 0.68246 0.0
H1370 H 0.69299 0.8087 0.69718 0.0
H1371 H 0.66038 0.81508 0.67906 0.0
H1372 H 0.79547 0.95938 0.71553 0.0
H1373 H 0.71359 0.97186 0.67263 0.0
H1374 H 0.82353 0.89218 0.69248 0.0
H1375 H 0.77291 0.85045 0.70336 0.0
H1376 H 0.81025 0.90059 0.71629 0.0
H1377 H 0.72104 0.90735 0.63903 0.0
H1378 H 0.6786 0.91771 0.64857 0.0
H1379 H 0.67466 0.86389 0.6516 0.0
C1380 C 0.77736 0.72214 0.01348 0.0
C1381 C 0.78691 0.74921 0.02964 0.0
C1382 C 0.8112 0.71766 0.00435 0.0
C1383 C 0.85557 0.74108 0.01147 0.0
C1384 C 0.86497 0.76698 0.02817 0.0
C1385 C 0.83062 0.77059 0.03706 0.0
C1386 C 0.79986 0.68939 0.98664 0.0
C1387 C 0.91189 0.79295 0.03613 0.0
C1388 C 0.94766 0.71897 0.99444 0.0
C1389 C 0.96929 0.75292 0.98089 0.0
C1390 C 0.90956 0.71357 0.00413 0.0
C1391 C 0.89326 0.74322 1.00035 0.0
C1392 C 0.91489 0.77735 0.98664 0.0
C1393 C 0.95233 0.78161 0.97707 0.0
C1394 C 0.88697 0.67649 0.01852 0.0
C1395 C 0.89915 0.81019 0.98237 0.0
H1396 H 0.74372 0.70524 0.00769 0.0
H1397 H 0.83858 0.79141 0.04959 0.0
H1398 H 0.81513 0.71137 0.97413 0.0
H1399 H 0.81395 0.66673 0.98747 0.0
H1400 H 0.76315 0.66899 0.9843 0.0
H1401 H 0.9129 0.80847 0.05008 0.0
H1402 H 0.92637 0.77081 0.03784 0.0
H1403 H 0.93363 0.81989 0.02609 0.0
H1404 H 0.96027 0.69643 0.99738 0.0
H1405 H 0.96869 0.80806 0.96668 0.0
H1406 H 0.85078 0.65571 0.01519 0.0
H1407 H 0.88963 0.69098 0.03284 0.0
H1408 H 0.90197 0.65455 0.01897 0.0
H1409 H 0.86344 0.79203 0.97804 0.0
H1410 H 0.91899 0.83406 0.97092 0.0
H1411 H 0.90173 0.82963 0.99533 0.0
C1412 C 0.0522 0.77889 0.33942 0.0
C1413 C 0.03381 0.79234 0.35401 0.0
C1414 C 0.08981 0.81069 0.32916 0.0
C1415 C 0.10901 0.8568 0.33354 0.0
C1416 C 0.09068 0.87038 0.3483 0.0
C1417 C 0.05357 0.83814 0.35831 0.0
C1418 C 0.10876 0.7951 0.31356 0.0
C1419 C 0.10972 0.91921 0.35333 0.0
C1420 C 0.2254 0.94899 0.31976 0.0
C1421 C 0.21558 0.96955 0.30482 0.0
C1422 C 0.19137 0.91014 0.32847 0.0
C1423 C 0.14654 0.8917 0.32216 0.0
C1424 C 0.13683 0.91105 0.30651 0.0
C1425 C 0.17137 0.94957 0.29804 0.0
C1426 C 0.20303 0.89021 0.34505 0.0
C1427 C 0.08947 0.89281 0.29944 0.0
H1428 H 0.03739 0.74364 0.33607 0.0
H1429 H 0.03986 0.84922 0.36951 0.0
H1430 H 0.10544 0.80849 0.29973 0.0
H1431 H 0.14501 0.80823 0.316 0.0
H1432 H 0.09157 0.75802 0.31259 0.0
H1433 H 0.09217 0.92402 0.36554 0.0
H1434 H 0.14577 0.9346 0.35691 0.0
H1435 H 0.10704 0.9376 0.34096 0.0
H1436 H 0.25944 0.96384 0.32501 0.0
H1437 H 0.16321 0.96479 0.28642 0.0
H1438 H 0.18666 0.85333 0.34354 0.0
H1439 H 0.19041 0.89717 0.35836 0.0
H1440 H 0.23975 0.90425 0.34645 0.0
H1441 H 0.0729 0.85608 0.29733 0.0
H1442 H 0.0882 0.90853 0.28587 0.0
H1443 H 0.06978 0.89912 0.3102 0.0
C1444 C 0.22443 0.05745 0.69893 0.0
C1445 C 0.25172 0.03946 0.69403 0.0
C1446 C 0.22941 0.09596 0.69012 0.0
C1447 C 0.26264 0.11739 0.67604 0.0
C1448 C 0.29164 0.1007 0.67154 0.0
C1449 C 0.28573 0.06174 0.68055 0.0
C1450 C 0.19744 0.11231 0.69522 0.0
C1451 C 0.32768 0.12296 0.65669 0.0
C1452 C 0.23002 0.17467 0.63894 0.0
C1453 C 0.25215 0.21932 0.64523 0.0
C1454 C 0.23491 0.14176 0.64837 0.0
C1455 C 0.26281 0.15354 0.66453 0.0
C1456 C 0.28668 0.19874 0.67062 0.0
C1457 C 0.28096 0.23118 0.66092 0.0
C1458 C 0.20846 0.09389 0.64148 0.0
C1459 C 0.31699 0.21248 0.68774 0.0
H1460 H 0.19814 0.04081 0.70938 0.0
H1461 H 0.30722 0.04836 0.67678 0.0
H1462 H 0.21619 0.14856 0.6986 0.0
H1463 H 0.17546 0.10773 0.68291 0.0
H1464 H 0.17592 0.09408 0.70755 0.0
H1465 H 0.35103 0.10957 0.6566 0.0
H1466 H 0.31204 0.11751 0.64245 0.0
H1467 H 0.34718 0.15963 0.65912 0.0
H1468 H 0.20778 0.16488 0.62681 0.0
H1469 H 0.29841 0.26557 0.66583 0.0
H1470 H 0.18334 0.07304 0.65235 0.0
H1471 H 0.2309 0.07988 0.63936 0.0
H1472 H 0.19059 0.09084 0.62795 0.0
H1473 H 0.29656 0.19842 0.70075 0.0
H1474 H 0.33716 0.24944 0.6893 0.0
H1475 H 0.34001 0.19882 0.68678 0.0
loop_
_geom_bond_atom_site_label_1
_geom_bond_atom_site_label_2
_geom_bond_distance
_geom_bond_site_symmetry_2
_ccdc_geom_bond_type
Co0 O2 2.143 . S
Co0 O8 2.074 . S
Co0 O11 2.093 . S
Co0 O24 2.097 . S
Co0 N41 2.151 . S
Co0 N49 2.214 1_554 S
Co1 O2 2.160 . S
Co1 O7 2.058 . S
Co1 O17 2.057 . S
Co1 O32 2.037 . S
Co1 N36 2.145 . S
Co1 N57 2.257 . S
O2 Co0 2.143 . S
O2 Co1 2.160 . S
C3 O4 1.278 . S
C3 O11 1.224 . S
O4 C3 1.278 . S
C5 O6 1.245 . S
C5 O17 1.232 . S
O6 C5 1.245 . S
O7 Co1 2.058 . S
O7 C33 1.269 . S
O8 Co0 2.074 . S
O8 C33 1.257 . S
H9 C34 0.930 . S
H10 C40 0.930 . S
O11 Co0 2.093 . S
O11 C3 1.224 . S
H12 C44 0.929 . S
H13 C46 0.930 . S
H14 C47 0.930 . S
H15 C45 0.929 . S
H16 C48 0.928 . S
O17 Co1 2.057 . S
O17 C5 1.232 . S
H18 C37 0.929 . S
H19 C38 0.929 . S
H20 C50 0.931 . S
H21 C42 0.929 . S
H22 C51 0.930 . S
H23 C43 0.931 . S
O24 Co0 2.097 . S
O24 C52 1.214 . S
H25 C53 0.929 . S
H26 C54 0.929 . S
H27 C55 0.930 . S
H28 C56 0.929 . S
H29 C58 0.930 . S
H30 C35 0.930 . S
H31 C39 0.930 . S
O32 Co1 2.037 . S
O32 C52 1.234 . S
C33 O7 1.269 . S
C33 O8 1.257 . S
C34 H9 0.930 . S
C34 C37 1.388 . S
C34 C39 1.418 . S
C35 H30 0.930 . S
C35 C38 1.404 . S
C35 C39 1.353 . S
N36 Co1 2.145 . S
N36 C37 1.397 . S
N36 C38 1.334 . S
C37 H18 0.929 . S
C37 C34 1.388 . S
C37 N36 1.397 . S
C38 H19 0.929 . S
C38 C35 1.404 . S
C38 N36 1.334 . S
C39 H31 0.930 . S
C39 C34 1.418 . S
C39 C35 1.353 . S
C40 H10 0.930 . S
C40 N41 1.330 . S
C40 C42 1.446 . S
N41 Co0 2.151 . S
N41 C40 1.330 . S
N41 C45 1.418 . S
C42 H21 0.929 . S
C42 C40 1.446 . S
C42 C43 1.332 . S
C43 H23 0.931 . S
C43 C42 1.332 . S
C43 C44 1.267 . S
C44 H12 0.929 . S
C44 C43 1.267 . S
C44 C45 1.251 . S
C45 H15 0.929 . S
C45 N41 1.418 . S
C45 C44 1.251 . S
C46 H13 0.930 . S
C46 C48 1.406 . S
C46 C51 1.261 . S
C47 H14 0.930 . S
C47 N49 1.325 . S
C47 C50 1.357 . S
C48 H16 0.928 . S
C48 C46 1.406 . S
C48 N49 1.261 . S
N49 Co0 2.214 1_556 S
N49 C47 1.325 . S
N49 C48 1.261 . S
C50 H20 0.931 . S
C50 C47 1.357 . S
C50 C51 1.312 . S
C51 H22 0.930 . S
C51 C46 1.261 . S
C51 C50 1.312 . S
C52 O24 1.214 . S
C52 O32 1.234 . S
C53 H25 0.929 . S
C53 C56 1.391 . S
C53 C58 1.391 . S
C54 H26 0.929 . S
C54 C55 1.390 . S
C54 N57 1.391 . S
C55 H27 0.930 . S
C55 C54 1.390 . S
C55 C56 1.392 . S
C56 H28 0.929 . S
C56 C53 1.391 . S
C56 C55 1.392 . S
N57 Co1 2.257 . S
N57 C54 1.391 . S
N57 C58 1.388 . S
C58 H29 0.930 . S
C58 C53 1.391 . S
C58 N57 1.388 . S
Co59 O61 2.143 . S
Co59 O67 2.074 . S
Co59 O70 2.093 . S
Co59 O83 2.097 . S
Co59 N100 2.151 . S
Co59 N108 2.214 . S
Co60 O61 2.160 . S
Co60 O66 2.058 . S
Co60 O76 2.057 . S
Co60 O91 2.037 . S
Co60 N95 2.145 . S
Co60 N116 2.257 . S
O61 Co59 2.143 . S
O61 Co60 2.160 . S
C62 O63 1.278 . S
C62 O70 1.224 . S
O63 C62 1.278 . S
C64 O65 1.245 . S
C64 O76 1.232 . S
O65 C64 1.245 . S
O66 Co60 2.058 . S
O66 C92 1.269 . S
O67 Co59 2.074 . S
O67 C92 1.257 . S
H68 C93 0.930 . S
H69 C99 0.930 . S
O70 Co59 2.093 . S
O70 C62 1.224 . S
H71 C103 0.929 . S
H72 C105 0.930 . S
H73 C106 0.930 . S
H74 C104 0.929 . S
H75 C107 0.928 . S
O76 Co60 2.057 . S
O76 C64 1.232 . S
H77 C96 0.929 . S
H78 C97 0.929 . S
H79 C109 0.931 . S
H80 C101 0.929 . S
H81 C110 0.930 . S
H82 C102 0.931 . S
O83 Co59 2.097 . S
O83 C111 1.214 . S
H84 C112 0.929 . S
H85 C113 0.929 . S
H86 C114 0.930 . S
H87 C115 0.929 . S
H88 C117 0.930 . S
H89 C94 0.930 . S
H90 C98 0.930 . S
O91 Co60 2.037 . S
O91 C111 1.234 . S
C92 O66 1.269 . S
C92 O67 1.257 . S
C93 H68 0.930 . S
C93 C96 1.388 . S
C93 C98 1.418 . S
C94 H89 0.930 . S
C94 C97 1.404 . S
C94 C98 1.353 . S
N95 Co60 2.145 . S
N95 C96 1.397 . S
N95 C97 1.334 . S
C96 H77 0.929 . S
C96 C93 1.388 . S
C96 N95 1.397 . S
C97 H78 0.929 . S
C97 C94 1.404 . S
C97 N95 1.334 . S
C98 H90 0.930 . S
C98 C93 1.418 . S
C98 C94 1.353 . S
C99 H69 0.930 . S
C99 N100 1.330 . S
C99 C101 1.446 . S
N100 Co59 2.151 . S
N100 C99 1.330 . S
N100 C104 1.418 . S
C101 H80 0.929 . S
C101 C99 1.446 . S
C101 C102 1.332 . S
C102 H82 0.931 . S
C102 C101 1.332 . S
C102 C103 1.267 . S
C103 H71 0.929 . S
C103 C102 1.267 . S
C103 C104 1.251 . S
C104 H74 0.929 . S
C104 N100 1.418 . S
C104 C103 1.251 . S
C105 H72 0.930 . S
C105 C107 1.406 . S
C105 C110 1.261 . S
C106 H73 0.930 . S
C106 N108 1.325 . S
C106 C109 1.357 . S
C107 H75 0.928 . S
C107 C105 1.406 . S
C107 N108 1.261 . S
N108 Co59 2.214 . S
N108 C106 1.325 . S
N108 C107 1.261 . S
C109 H79 0.931 . S
C109 C106 1.357 . S
C109 C110 1.312 . S
C110 H81 0.930 . S
C110 C105 1.261 . S
C110 C109 1.312 . S
C111 O83 1.214 . S
C111 O91 1.234 . S
C112 H84 0.929 . S
C112 C115 1.391 . S
C112 C117 1.391 1_655 S
C113 H85 0.929 . S
C113 C114 1.390 . S
C113 N116 1.391 1_655 S
C114 H86 0.930 . S
C114 C113 1.390 . S
C114 C115 1.392 . S
C115 H87 0.929 . S
C115 C112 1.391 . S
C115 C114 1.392 . S
N116 Co60 2.257 . S
N116 C113 1.391 1_455 S
N116 C117 1.388 . S
C117 H88 0.930 . S
C117 C112 1.391 1_455 S
C117 N116 1.388 . S
Co118 O120 2.143 . S
Co118 O126 2.074 . S
Co118 O129 2.093 . S
Co118 O142 2.097 . S
Co118 N159 2.151 . S
Co118 N167 2.214 . S
Co119 O120 2.160 . S
Co119 O125 2.058 . S
Co119 O135 2.057 . S
Co119 O150 2.037 . S
Co119 N154 2.145 . S
Co119 N175 2.257 . S
O120 Co118 2.143 . S
O120 Co119 2.160 . S
C121 O122 1.278 . S
C121 O129 1.224 . S
O122 C121 1.278 . S
C123 O124 1.245 . S
C123 O135 1.232 . S
O124 C123 1.245 . S
O125 Co119 2.058 . S
O125 C151 1.269 . S
O126 Co118 2.074 . S
O126 C151 1.257 . S
H127 C152 0.930 . S
H128 C158 0.930 . S
O129 Co118 2.093 . S
O129 C121 1.224 . S
H130 C162 0.929 . S
H131 C164 0.930 . S
H132 C165 0.930 . S
H133 C163 0.929 . S
H134 C166 0.928 . S
O135 Co119 2.057 . S
O135 C123 1.232 . S
H136 C155 0.929 . S
H137 C156 0.929 . S
H138 C168 0.931 . S
H139 C160 0.929 . S
H140 C169 0.930 . S
H141 C161 0.931 . S
O142 Co118 2.097 . S
O142 C170 1.214 . S
H143 C171 0.929 . S
H144 C172 0.929 . S
H145 C173 0.930 . S
H146 C174 0.929 . S
H147 C176 0.930 . S
H148 C153 0.930 . S
H149 C157 0.930 . S
O150 Co119 2.037 . S
O150 C170 1.234 . S
C151 O125 1.269 . S
C151 O126 1.257 . S
C152 H127 0.930 . S
C152 C155 1.388 . S
C152 C157 1.418 . S
C153 H148 0.930 . S
C153 C156 1.404 . S
C153 C157 1.353 . S
N154 Co119 2.145 . S
N154 C155 1.397 . S
N154 C156 1.334 . S
C155 H136 0.929 . S
C155 C152 1.388 . S
C155 N154 1.397 . S
C156 H137 0.929 . S
C156 C153 1.404 . S
C156 N154 1.334 . S
C157 H149 0.930 . S
C157 C152 1.418 . S
C157 C153 1.353 . S
C158 H128 0.930 . S
C158 N159 1.330 . S
C158 C160 1.446 . S
N159 Co118 2.151 . S
N159 C158 1.330 . S
N159 C163 1.418 . S
C160 H139 0.929 . S
C160 C158 1.446 . S
C160 C161 1.332 . S
C161 H141 0.931 . S
C161 C160 1.332 . S
C161 C162 1.267 . S
C162 H130 0.929 . S
C162 C161 1.267 . S
C162 C163 1.251 . S
C163 H133 0.929 . S
C163 N159 1.418 . S
C163 C162 1.251 . S
C164 H131 0.930 . S
C164 C166 1.406 . S
C164 C169 1.261 . S
C165 H132 0.930 . S
C165 N167 1.325 . S
C165 C168 1.357 . S
C166 H134 0.928 . S
C166 C164 1.406 . S
C166 N167 1.261 . S
N167 Co118 2.214 . S
N167 C165 1.325 . S
N167 C166 1.261 . S
C168 H138 0.931 . S
C168 C165 1.357 . S
C168 C169 1.312 . S
C169 H140 0.930 . S
C169 C164 1.261 . S
C169 C168 1.312 . S
C170 O142 1.214 . S
C170 O150 1.234 . S
C171 H143 0.929 . S
C171 C174 1.391 . S
C171 C176 1.391 1_565 S
C172 H144 0.929 . S
C172 C173 1.390 . S
C172 N175 1.391 1_565 S
C173 H145 0.930 . S
C173 C172 1.390 . S
C173 C174 1.392 . S
C174 H146 0.929 . S
C174 C171 1.391 . S
C174 C173 1.392 . S
N175 Co119 2.257 . S
N175 C172 1.391 1_545 S
N175 C176 1.388 . S
C176 H147 0.930 . S
C176 C171 1.391 1_545 S
C176 N175 1.388 . S
Co177 O179 2.143 . S
Co177 O185 2.074 . S
Co177 O188 2.093 . S
Co177 O201 2.097 . S
Co177 N218 2.151 . S
Co177 N226 2.214 1_554 S
Co178 O179 2.160 . S
Co178 O184 2.058 . S
Co178 O194 2.057 . S
Co178 O209 2.037 . S
Co178 N213 2.145 . S
Co178 N234 2.257 . S
O179 Co177 2.143 . S
O179 Co178 2.160 . S
C180 O181 1.278 . S
C180 O188 1.224 . S
O181 C180 1.278 . S
C182 O183 1.245 . S
C182 O194 1.232 . S
O183 C182 1.245 . S
O184 Co178 2.058 . S
O184 C210 1.269 . S
O185 Co177 2.074 . S
O185 C210 1.257 . S
H186 C211 0.930 . S
H187 C217 0.930 . S
O188 Co177 2.093 . S
O188 C180 1.224 . S
H189 C221 0.929 . S
H190 C223 0.930 . S
H191 C224 0.930 . S
H192 C222 0.929 . S
H193 C225 0.928 . S
O194 Co178 2.057 . S
O194 C182 1.232 . S
H195 C214 0.929 . S
H196 C215 0.929 . S
H197 C227 0.931 . S
H198 C219 0.929 . S
H199 C228 0.930 . S
H200 C220 0.931 . S
O201 Co177 2.097 . S
O201 C229 1.214 . S
H202 C230 0.929 . S
H203 C231 0.929 . S
H204 C232 0.930 . S
H205 C233 0.929 . S
H206 C235 0.930 . S
H207 C212 0.930 . S
H208 C216 0.930 . S
O209 Co178 2.037 . S
O209 C229 1.234 . S
C210 O184 1.269 . S
C210 O185 1.257 . S
C211 H186 0.930 . S
C211 C214 1.388 . S
C211 C216 1.418 . S
C212 H207 0.930 . S
C212 C215 1.404 . S
C212 C216 1.353 . S
N213 Co178 2.145 . S
N213 C214 1.397 . S
N213 C215 1.334 . S
C214 H195 0.929 . S
C214 C211 1.388 . S
C214 N213 1.397 . S
C215 H196 0.929 . S
C215 C212 1.404 . S
C215 N213 1.334 . S
C216 H208 0.930 . S
C216 C211 1.418 . S
C216 C212 1.353 . S
C217 H187 0.930 . S
C217 N218 1.330 . S
C217 C219 1.446 . S
N218 Co177 2.151 . S
N218 C217 1.330 . S
N218 C222 1.418 . S
C219 H198 0.929 . S
C219 C217 1.446 . S
C219 C220 1.332 . S
C220 H200 0.931 . S
C220 C219 1.332 . S
C220 C221 1.267 . S
C221 H189 0.929 . S
C221 C220 1.267 . S
C221 C222 1.251 . S
C222 H192 0.929 . S
C222 N218 1.418 . S
C222 C221 1.251 . S
C223 H190 0.930 . S
C223 C225 1.406 . S
C223 C228 1.261 . S
C224 H191 0.930 . S
C224 N226 1.325 . S
C224 C227 1.357 . S
C225 H193 0.928 . S
C225 C223 1.406 . S
C225 N226 1.261 . S
N226 Co177 2.214 1_556 S
N226 C224 1.325 . S
N226 C225 1.261 . S
C227 H197 0.931 . S
C227 C224 1.357 . S
C227 C228 1.312 . S
C228 H199 0.930 . S
C228 C223 1.261 . S
C228 C227 1.312 . S
C229 O201 1.214 . S
C229 O209 1.234 . S
C230 H202 0.929 . S
C230 C233 1.391 . S
C230 C235 1.391 . S
C231 H203 0.929 . S
C231 C232 1.390 . S
C231 N234 1.391 . S
C232 H204 0.930 . S
C232 C231 1.390 . S
C232 C233 1.392 . S
C233 H205 0.929 . S
C233 C230 1.391 . S
C233 C232 1.392 . S
N234 Co178 2.257 . S
N234 C231 1.391 . S
N234 C235 1.388 . S
C235 H206 0.930 . S
C235 C230 1.391 . S
C235 N234 1.388 . S
Co236 O238 2.143 . S
Co236 O244 2.074 . S
Co236 O247 2.093 . S
Co236 O260 2.097 . S
Co236 N277 2.151 . S
Co236 N285 2.214 . S
Co237 O238 2.160 . S
Co237 O243 2.058 . S
Co237 O253 2.057 . S
Co237 O268 2.037 . S
Co237 N272 2.145 . S
Co237 N293 2.257 . S
O238 Co236 2.143 . S
O238 Co237 2.160 . S
C239 O240 1.278 . S
C239 O247 1.224 . S
O240 C239 1.278 . S
C241 O242 1.245 . S
C241 O253 1.232 . S
O242 C241 1.245 . S
O243 Co237 2.058 . S
O243 C269 1.269 . S
O244 Co236 2.074 . S
O244 C269 1.257 . S
H245 C270 0.930 . S
H246 C276 0.930 . S
O247 Co236 2.093 . S
O247 C239 1.224 . S
H248 C280 0.929 . S
H249 C282 0.930 . S
H250 C283 0.930 . S
H251 C281 0.929 . S
H252 C284 0.928 . S
O253 Co237 2.057 . S
O253 C241 1.232 . S
H254 C273 0.929 . S
H255 C274 0.929 . S
H256 C286 0.931 . S
H257 C278 0.929 . S
H258 C287 0.930 . S
H259 C279 0.931 . S
O260 Co236 2.097 . S
O260 C288 1.214 . S
H261 C289 0.929 . S
H262 C290 0.929 . S
H263 C291 0.930 . S
H264 C292 0.929 . S
H265 C294 0.930 . S
H266 C271 0.930 . S
H267 C275 0.930 . S
O268 Co237 2.037 . S
O268 C288 1.234 . S
C269 O243 1.269 . S
C269 O244 1.257 . S
C270 H245 0.930 . S
C270 C273 1.388 . S
C270 C275 1.418 . S
C271 H266 0.930 . S
C271 C274 1.404 . S
C271 C275 1.353 . S
N272 Co237 2.145 . S
N272 C273 1.397 . S
N272 C274 1.334 . S
C273 H254 0.929 . S
C273 C270 1.388 . S
C273 N272 1.397 . S
C274 H255 0.929 . S
C274 C271 1.404 . S
C274 N272 1.334 . S
C275 H267 0.930 . S
C275 C270 1.418 . S
C275 C271 1.353 . S
C276 H246 0.930 . S
C276 N277 1.330 . S
C276 C278 1.446 . S
N277 Co236 2.151 . S
N277 C276 1.330 . S
N277 C281 1.418 . S
C278 H257 0.929 . S
C278 C276 1.446 . S
C278 C279 1.332 . S
C279 H259 0.931 . S
C279 C278 1.332 . S
C279 C280 1.267 . S
C280 H248 0.929 . S
C280 C279 1.267 . S
C280 C281 1.251 . S
C281 H251 0.929 . S
C281 N277 1.418 . S
C281 C280 1.251 . S
C282 H249 0.930 . S
C282 C284 1.406 . S
C282 C287 1.261 . S
C283 H250 0.930 . S
C283 N285 1.325 . S
C283 C286 1.357 . S
C284 H252 0.928 . S
C284 C282 1.406 . S
C284 N285 1.261 . S
N285 Co236 2.214 . S
N285 C283 1.325 . S
N285 C284 1.261 . S
C286 H256 0.931 . S
C286 C283 1.357 . S
C286 C287 1.312 . S
C287 H258 0.930 . S
C287 C282 1.261 . S
C287 C286 1.312 . S
C288 O260 1.214 . S
C288 O268 1.234 . S
C289 H261 0.929 . S
C289 C292 1.391 . S
C289 C294 1.391 1_455 S
C290 H262 0.929 . S
C290 C291 1.390 . S
C290 N293 1.391 1_455 S
C291 H263 0.930 . S
C291 C290 1.390 . S
C291 C292 1.392 . S
C292 H264 0.929 . S
C292 C289 1.391 . S
C292 C291 1.392 . S
N293 Co237 2.257 . S
N293 C290 1.391 1_655 S
N293 C294 1.388 . S
C294 H265 0.930 . S
C294 C289 1.391 1_655 S
C294 N293 1.388 . S
Co295 O297 2.143 . S
Co295 O303 2.074 . S
Co295 O306 2.093 . S
Co295 O319 2.097 . S
Co295 N336 2.151 . S
Co295 N344 2.214 . S
Co296 O297 2.160 . S
Co296 O302 2.058 . S
Co296 O312 2.057 . S
Co296 O327 2.037 . S
Co296 N331 2.145 . S
Co296 N352 2.257 . S
O297 Co295 2.143 . S
O297 Co296 2.160 . S
C298 O299 1.278 . S
C298 O306 1.224 . S
O299 C298 1.278 . S
C300 O301 1.245 . S
C300 O312 1.232 . S
O301 C300 1.245 . S
O302 Co296 2.058 . S
O302 C328 1.269 . S
O303 Co295 2.074 . S
O303 C328 1.257 . S
H304 C329 0.930 . S
H305 C335 0.930 . S
O306 Co295 2.093 . S
O306 C298 1.224 . S
H307 C339 0.929 . S
H308 C341 0.930 . S
H309 C342 0.930 . S
H310 C340 0.929 . S
H311 C343 0.928 . S
O312 Co296 2.057 . S
O312 C300 1.232 . S
H313 C332 0.929 . S
H314 C333 0.929 . S
H315 C345 0.931 . S
H316 C337 0.929 . S
H317 C346 0.930 . S
H318 C338 0.931 . S
O319 Co295 2.097 . S
O319 C347 1.214 . S
H320 C348 0.929 . S
H321 C349 0.929 . S
H322 C350 0.930 . S
H323 C351 0.929 . S
H324 C353 0.930 . S
H325 C330 0.930 . S
H326 C334 0.930 . S
O327 Co296 2.037 . S
O327 C347 1.234 . S
C328 O302 1.269 . S
C328 O303 1.257 . S
C329 H304 0.930 . S
C329 C332 1.388 . S
C329 C334 1.418 . S
C330 H325 0.930 . S
C330 C333 1.404 . S
C330 C334 1.353 . S
N331 Co296 2.145 . S
N331 C332 1.397 . S
N331 C333 1.334 . S
C332 H313 0.929 . S
C332 C329 1.388 . S
C332 N331 1.397 . S
C333 H314 0.929 . S
C333 C330 1.404 . S
C333 N331 1.334 . S
C334 H326 0.930 . S
C334 C329 1.418 . S
C334 C330 1.353 . S
C335 H305 0.930 . S
C335 N336 1.330 . S
C335 C337 1.446 . S
N336 Co295 2.151 . S
N336 C335 1.330 . S
N336 C340 1.418 . S
C337 H316 0.929 . S
C337 C335 1.446 . S
C337 C338 1.332 . S
C338 H318 0.931 . S
C338 C337 1.332 . S
C338 C339 1.267 . S
C339 H307 0.929 . S
C339 C338 1.267 . S
C339 C340 1.251 . S
C340 H310 0.929 . S
C340 N336 1.418 . S
C340 C339 1.251 . S
C341 H308 0.930 . S
C341 C343 1.406 . S
C341 C346 1.261 . S
C342 H309 0.930 . S
C342 N344 1.325 . S
C342 C345 1.357 . S
C343 H311 0.928 . S
C343 C341 1.406 . S
C343 N344 1.261 . S
N344 Co295 2.214 . S
N344 C342 1.325 . S
N344 C343 1.261 . S
C345 H315 0.931 . S
C345 C342 1.357 . S
C345 C346 1.312 . S
C346 H317 0.930 . S
C346 C341 1.261 . S
C346 C345 1.312 . S
C347 O319 1.214 . S
C347 O327 1.234 . S
C348 H320 0.929 . S
C348 C351 1.391 . S
C348 C353 1.391 1_545 S
C349 H321 0.929 . S
C349 C350 1.390 . S
C349 N352 1.391 1_545 S
C350 H322 0.930 . S
C350 C349 1.390 . S
C350 C351 1.392 . S
C351 H323 0.929 . S
C351 C348 1.391 . S
C351 C350 1.392 . S
N352 Co296 2.257 . S
N352 C349 1.391 1_565 S
N352 C353 1.388 . S
C353 H324 0.930 . S
C353 C348 1.391 1_565 S
C353 N352 1.388 . S
Co354 O356 2.143 . S
Co354 O362 2.074 . S
Co354 O365 2.093 . S
Co354 O378 2.097 . S
Co354 N395 2.151 . S
Co354 N403 2.214 . S
Co355 O356 2.160 . S
Co355 O361 2.058 . S
Co355 O371 2.057 . S
Co355 O386 2.037 . S
Co355 N390 2.145 . S
Co355 N411 2.257 . S
O356 Co354 2.143 . S
O356 Co355 2.160 . S
C357 O358 1.278 . S
C357 O365 1.224 . S
O358 C357 1.278 . S
C359 O360 1.245 . S
C359 O371 1.232 . S
O360 C359 1.245 . S
O361 Co355 2.058 . S
O361 C387 1.269 . S
O362 Co354 2.074 . S
O362 C387 1.257 . S
H363 C388 0.930 . S
H364 C394 0.930 . S
O365 Co354 2.093 . S
O365 C357 1.224 . S
H366 C398 0.929 . S
H367 C400 0.930 . S
H368 C401 0.930 . S
H369 C399 0.929 . S
H370 C402 0.928 . S
O371 Co355 2.057 . S
O371 C359 1.232 . S
H372 C391 0.929 . S
H373 C392 0.929 . S
H374 C404 0.931 . S
H375 C396 0.929 . S
H376 C405 0.930 . S
H377 C397 0.931 . S
O378 Co354 2.097 . S
O378 C406 1.214 . S
H379 C407 0.929 . S
H380 C408 0.929 . S
H381 C409 0.930 . S
H382 C410 0.929 . S
H383 C412 0.930 . S
H384 C389 0.930 . S
H385 C393 0.930 . S
O386 Co355 2.037 . S
O386 C406 1.234 . S
C387 O361 1.269 . S
C387 O362 1.257 . S
C388 H363 0.930 . S
C388 C391 1.388 . S
C388 C393 1.418 . S
C389 H384 0.930 . S
C389 C392 1.404 . S
C389 C393 1.353 . S
N390 Co355 2.145 . S
N390 C391 1.397 . S
N390 C392 1.334 . S
C391 H372 0.929 . S
C391 C388 1.388 . S
C391 N390 1.397 . S
C392 H373 0.929 . S
C392 C389 1.404 . S
C392 N390 1.334 . S
C393 H385 0.930 . S
C393 C388 1.418 . S
C393 C389 1.353 . S
C394 H364 0.930 . S
C394 N395 1.330 . S
C394 C396 1.446 . S
N395 Co354 2.151 . S
N395 C394 1.330 . S
N395 C399 1.418 . S
C396 H375 0.929 . S
C396 C394 1.446 . S
C396 C397 1.332 . S
C397 H377 0.931 . S
C397 C396 1.332 . S
C397 C398 1.267 . S
C398 H366 0.929 . S
C398 C397 1.267 . S
C398 C399 1.251 . S
C399 H369 0.929 . S
C399 N395 1.418 . S
C399 C398 1.251 . S
C400 H367 0.930 . S
C400 C402 1.406 . S
C400 C405 1.261 . S
C401 H368 0.930 . S
C401 N403 1.325 . S
C401 C404 1.357 . S
C402 H370 0.928 . S
C402 C400 1.406 . S
C402 N403 1.261 . S
N403 Co354 2.214 . S
N403 C401 1.325 . S
N403 C402 1.261 . S
C404 H374 0.931 . S
C404 C401 1.357 . S
C404 C405 1.312 . S
C405 H376 0.930 . S
C405 C400 1.261 . S
C405 C404 1.312 . S
C406 O378 1.214 . S
C406 O386 1.234 . S
C407 H379 0.929 . S
C407 C410 1.391 . S
C407 C412 1.391 . S
C408 H380 0.929 . S
C408 C409 1.390 . S
C408 N411 1.391 . S
C409 H381 0.930 . S
C409 C408 1.390 . S
C409 C410 1.392 . S
C410 H382 0.929 . S
C410 C407 1.391 . S
C410 C409 1.392 . S
N411 Co355 2.257 . S
N411 C408 1.391 . S
N411 C412 1.388 . S
C412 H383 0.930 . S
C412 C407 1.391 . S
C412 N411 1.388 . S
Co413 O415 2.143 . S
Co413 O421 2.074 . S
Co413 O424 2.093 . S
Co413 O437 2.097 . S
Co413 N454 2.151 . S
Co413 N462 2.214 1_556 S
Co414 O415 2.160 . S
Co414 O420 2.058 . S
Co414 O430 2.057 . S
Co414 O445 2.037 . S
Co414 N449 2.145 . S
Co414 N470 2.257 . S
O415 Co413 2.143 . S
O415 Co414 2.160 . S
C416 O417 1.278 . S
C416 O424 1.224 . S
O417 C416 1.278 . S
C418 O419 1.245 . S
C418 O430 1.232 . S
O419 C418 1.245 . S
O420 Co414 2.058 . S
O420 C446 1.269 . S
O421 Co413 2.074 . S
O421 C446 1.257 . S
H422 C447 0.930 . S
H423 C453 0.930 . S
O424 Co413 2.093 . S
O424 C416 1.224 . S
H425 C457 0.929 . S
H426 C459 0.930 . S
H427 C460 0.930 . S
H428 C458 0.929 . S
H429 C461 0.928 . S
O430 Co414 2.057 . S
O430 C418 1.232 . S
H431 C450 0.929 . S
H432 C451 0.929 . S
H433 C463 0.931 . S
H434 C455 0.929 . S
H435 C464 0.930 . S
H436 C456 0.931 . S
O437 Co413 2.097 . S
O437 C465 1.214 . S
H438 C466 0.929 . S
H439 C467 0.929 . S
H440 C468 0.930 . S
H441 C469 0.929 . S
H442 C471 0.930 . S
H443 C448 0.930 . S
H444 C452 0.930 . S
O445 Co414 2.037 . S
O445 C465 1.234 . S
C446 O420 1.269 . S
C446 O421 1.257 . S
C447 H422 0.930 . S
C447 C450 1.388 . S
C447 C452 1.418 . S
C448 H443 0.930 . S
C448 C451 1.404 . S
C448 C452 1.353 . S
N449 Co414 2.145 . S
N449 C450 1.397 . S
N449 C451 1.334 . S
C450 H431 0.929 . S
C450 C447 1.388 . S
C450 N449 1.397 . S
C451 H432 0.929 . S
C451 C448 1.404 . S
C451 N449 1.334 . S
C452 H444 0.930 . S
C452 C447 1.418 . S
C452 C448 1.353 . S
C453 H423 0.930 . S
C453 N454 1.330 . S
C453 C455 1.446 . S
N454 Co413 2.151 . S
N454 C453 1.330 . S
N454 C458 1.418 . S
C455 H434 0.929 . S
C455 C453 1.446 . S
C455 C456 1.332 . S
C456 H436 0.931 . S
C456 C455 1.332 . S
C456 C457 1.267 . S
C457 H425 0.929 . S
C457 C456 1.267 . S
C457 C458 1.251 . S
C458 H428 0.929 . S
C458 N454 1.418 . S
C458 C457 1.251 . S
C459 H426 0.930 . S
C459 C461 1.406 . S
C459 C464 1.261 . S
C460 H427 0.930 . S
C460 N462 1.325 . S
C460 C463 1.357 . S
C461 H429 0.928 . S
C461 C459 1.406 . S
C461 N462 1.261 . S
N462 Co413 2.214 1_554 S
N462 C460 1.325 . S
N462 C461 1.261 . S
C463 H433 0.931 . S
C463 C460 1.357 . S
C463 C464 1.312 . S
C464 H435 0.930 . S
C464 C459 1.261 . S
C464 C463 1.312 . S
C465 O437 1.214 . S
C465 O445 1.234 . S
C466 H438 0.929 . S
C466 C469 1.391 . S
C466 C471 1.391 1_655 S
C467 H439 0.929 . S
C467 C468 1.390 . S
C467 N470 1.391 1_655 S
C468 H440 0.930 . S
C468 C467 1.390 . S
C468 C469 1.392 . S
C469 H441 0.929 . S
C469 C466 1.391 . S
C469 C468 1.392 . S
N470 Co414 2.257 . S
N470 C467 1.391 1_455 S
N470 C471 1.388 . S
C471 H442 0.930 . S
C471 C466 1.391 1_455 S
C471 N470 1.388 . S
Co472 O474 2.143 . S
Co472 O480 2.074 . S
Co472 O483 2.093 . S
Co472 O496 2.097 . S
Co472 N513 2.151 . S
Co472 N521 2.214 . S
Co473 O474 2.160 . S
Co473 O479 2.058 . S
Co473 O489 2.057 . S
Co473 O504 2.037 . S
Co473 N508 2.145 . S
Co473 N529 2.257 . S
O474 Co472 2.143 . S
O474 Co473 2.160 . S
C475 O476 1.278 . S
C475 O483 1.224 . S
O476 C475 1.278 . S
C477 O478 1.245 . S
C477 O489 1.232 . S
O478 C477 1.245 . S
O479 Co473 2.058 . S
O479 C505 1.269 . S
O480 Co472 2.074 . S
O480 C505 1.257 . S
H481 C506 0.930 . S
H482 C512 0.930 . S
O483 Co472 2.093 . S
O483 C475 1.224 . S
H484 C516 0.929 . S
H485 C518 0.930 . S
H486 C519 0.930 . S
H487 C517 0.929 . S
H488 C520 0.928 . S
O489 Co473 2.057 . S
O489 C477 1.232 . S
H490 C509 0.929 . S
H491 C510 0.929 . S
H492 C522 0.931 . S
H493 C514 0.929 . S
H494 C523 0.930 . S
H495 C515 0.931 . S
O496 Co472 2.097 . S
O496 C524 1.214 . S
H497 C525 0.929 . S
H498 C526 0.929 . S
H499 C527 0.930 . S
H500 C528 0.929 . S
H501 C530 0.930 . S
H502 C507 0.930 . S
H503 C511 0.930 . S
O504 Co473 2.037 . S
O504 C524 1.234 . S
C505 O479 1.269 . S
C505 O480 1.257 . S
C506 H481 0.930 . S
C506 C509 1.388 . S
C506 C511 1.418 . S
C507 H502 0.930 . S
C507 C510 1.404 . S
C507 C511 1.353 . S
N508 Co473 2.145 . S
N508 C509 1.397 . S
N508 C510 1.334 . S
C509 H490 0.929 . S
C509 C506 1.388 . S
C509 N508 1.397 . S
C510 H491 0.929 . S
C510 C507 1.404 . S
C510 N508 1.334 . S
C511 H503 0.930 . S
C511 C506 1.418 . S
C511 C507 1.353 . S
C512 H482 0.930 . S
C512 N513 1.330 . S
C512 C514 1.446 . S
N513 Co472 2.151 . S
N513 C512 1.330 . S
N513 C517 1.418 . S
C514 H493 0.929 . S
C514 C512 1.446 . S
C514 C515 1.332 . S
C515 H495 0.931 . S
C515 C514 1.332 . S
C515 C516 1.267 . S
C516 H484 0.929 . S
C516 C515 1.267 . S
C516 C517 1.251 . S
C517 H487 0.929 . S
C517 N513 1.418 . S
C517 C516 1.251 . S
C518 H485 0.930 . S
C518 C520 1.406 . S
C518 C523 1.261 . S
C519 H486 0.930 . S
C519 N521 1.325 . S
C519 C522 1.357 . S
C520 H488 0.928 . S
C520 C518 1.406 . S
C520 N521 1.261 . S
N521 Co472 2.214 . S
N521 C519 1.325 . S
N521 C520 1.261 . S
C522 H492 0.931 . S
C522 C519 1.357 . S
C522 C523 1.312 . S
C523 H494 0.930 . S
C523 C518 1.261 . S
C523 C522 1.312 . S
C524 O496 1.214 . S
C524 O504 1.234 . S
C525 H497 0.929 . S
C525 C528 1.391 . S
C525 C530 1.391 1_565 S
C526 H498 0.929 . S
C526 C527 1.390 . S
C526 N529 1.391 1_565 S
C527 H499 0.930 . S
C527 C526 1.390 . S
C527 C528 1.392 . S
C528 H500 0.929 . S
C528 C525 1.391 . S
C528 C527 1.392 . S
N529 Co473 2.257 . S
N529 C526 1.391 1_545 S
N529 C530 1.388 . S
C530 H501 0.930 . S
C530 C525 1.391 1_545 S
C530 N529 1.388 . S
Co531 O533 2.143 . S
Co531 O539 2.074 . S
Co531 O542 2.093 . S
Co531 O555 2.097 . S
Co531 N572 2.151 . S
Co531 N580 2.214 . S
Co532 O533 2.160 . S
Co532 O538 2.058 . S
Co532 O548 2.057 . S
Co532 O563 2.037 . S
Co532 N567 2.145 . S
Co532 N588 2.257 . S
O533 Co531 2.143 . S
O533 Co532 2.160 . S
C534 O535 1.278 . S
C534 O542 1.224 . S
O535 C534 1.278 . S
C536 O537 1.245 . S
C536 O548 1.232 . S
O537 C536 1.245 . S
O538 Co532 2.058 . S
O538 C564 1.269 . S
O539 Co531 2.074 . S
O539 C564 1.257 . S
H540 C565 0.930 . S
H541 C571 0.930 . S
O542 Co531 2.093 . S
O542 C534 1.224 . S
H543 C575 0.929 . S
H544 C577 0.930 . S
H545 C578 0.930 . S
H546 C576 0.929 . S
H547 C579 0.928 . S
O548 Co532 2.057 . S
O548 C536 1.232 . S
H549 C568 0.929 . S
H550 C569 0.929 . S
H551 C581 0.931 . S
H552 C573 0.929 . S
H553 C582 0.930 . S
H554 C574 0.931 . S
O555 Co531 2.097 . S
O555 C583 1.214 . S
H556 C584 0.929 . S
H557 C585 0.929 . S
H558 C586 0.930 . S
H559 C587 0.929 . S
H560 C589 0.930 . S
H561 C566 0.930 . S
H562 C570 0.930 . S
O563 Co532 2.037 . S
O563 C583 1.234 . S
C564 O538 1.269 . S
C564 O539 1.257 . S
C565 H540 0.930 . S
C565 C568 1.388 . S
C565 C570 1.418 . S
C566 H561 0.930 . S
C566 C569 1.404 . S
C566 C570 1.353 . S
N567 Co532 2.145 . S
N567 C568 1.397 . S
N567 C569 1.334 . S
C568 H549 0.929 . S
C568 C565 1.388 . S
C568 N567 1.397 . S
C569 H550 0.929 . S
C569 C566 1.404 . S
C569 N567 1.334 . S
C570 H562 0.930 . S
C570 C565 1.418 . S
C570 C566 1.353 . S
C571 H541 0.930 . S
C571 N572 1.330 . S
C571 C573 1.446 . S
N572 Co531 2.151 . S
N572 C571 1.330 . S
N572 C576 1.418 . S
C573 H552 0.929 . S
C573 C571 1.446 . S
C573 C574 1.332 . S
C574 H554 0.931 . S
C574 C573 1.332 . S
C574 C575 1.267 . S
C575 H543 0.929 . S
C575 C574 1.267 . S
C575 C576 1.251 . S
C576 H546 0.929 . S
C576 N572 1.418 . S
C576 C575 1.251 . S
C577 H544 0.930 . S
C577 C579 1.406 . S
C577 C582 1.261 . S
C578 H545 0.930 . S
C578 N580 1.325 . S
C578 C581 1.357 . S
C579 H547 0.928 . S
C579 C577 1.406 . S
C579 N580 1.261 . S
N580 Co531 2.214 . S
N580 C578 1.325 . S
N580 C579 1.261 . S
C581 H551 0.931 . S
C581 C578 1.357 . S
C581 C582 1.312 . S
C582 H553 0.930 . S
C582 C577 1.261 . S
C582 C581 1.312 . S
C583 O555 1.214 . S
C583 O563 1.234 . S
C584 H556 0.929 . S
C584 C587 1.391 . S
C584 C589 1.391 . S
C585 H557 0.929 . S
C585 C586 1.390 . S
C585 N588 1.391 . S
C586 H558 0.930 . S
C586 C585 1.390 . S
C586 C587 1.392 . S
C587 H559 0.929 . S
C587 C584 1.391 . S
C587 C586 1.392 . S
N588 Co532 2.257 . S
N588 C585 1.391 . S
N588 C589 1.388 . S
C589 H560 0.930 . S
C589 C584 1.391 . S
C589 N588 1.388 . S
Co590 O592 2.143 . S
Co590 O598 2.074 . S
Co590 O601 2.093 . S
Co590 O614 2.097 . S
Co590 N631 2.151 . S
Co590 N639 2.214 1_556 S
Co591 O592 2.160 . S
Co591 O597 2.058 . S
Co591 O607 2.057 . S
Co591 O622 2.037 . S
Co591 N626 2.145 . S
Co591 N647 2.257 . S
O592 Co590 2.143 . S
O592 Co591 2.160 . S
C593 O594 1.278 . S
C593 O601 1.224 . S
O594 C593 1.278 . S
C595 O596 1.245 . S
C595 O607 1.232 . S
O596 C595 1.245 . S
O597 Co591 2.058 . S
O597 C623 1.269 . S
O598 Co590 2.074 . S
O598 C623 1.257 . S
H599 C624 0.930 . S
H600 C630 0.930 . S
O601 Co590 2.093 . S
O601 C593 1.224 . S
H602 C634 0.929 . S
H603 C636 0.930 . S
H604 C637 0.930 . S
H605 C635 0.929 . S
H606 C638 0.928 . S
O607 Co591 2.057 . S
O607 C595 1.232 . S
H608 C627 0.929 . S
H609 C628 0.929 . S
H610 C640 0.931 . S
H611 C632 0.929 . S
H612 C641 0.930 . S
H613 C633 0.931 . S
O614 Co590 2.097 . S
O614 C642 1.214 . S
H615 C643 0.929 . S
H616 C644 0.929 . S
H617 C645 0.930 . S
H618 C646 0.929 . S
H619 C648 0.930 . S
H620 C625 0.930 . S
H621 C629 0.930 . S
O622 Co591 2.037 . S
O622 C642 1.234 . S
C623 O597 1.269 . S
C623 O598 1.257 . S
C624 H599 0.930 . S
C624 C627 1.388 . S
C624 C629 1.418 . S
C625 H620 0.930 . S
C625 C628 1.404 . S
C625 C629 1.353 . S
N626 Co591 2.145 . S
N626 C627 1.397 . S
N626 C628 1.334 . S
C627 H608 0.929 . S
C627 C624 1.388 . S
C627 N626 1.397 . S
C628 H609 0.929 . S
C628 C625 1.404 . S
C628 N626 1.334 . S
C629 H621 0.930 . S
C629 C624 1.418 . S
C629 C625 1.353 . S
C630 H600 0.930 . S
C630 N631 1.330 . S
C630 C632 1.446 . S
N631 Co590 2.151 . S
N631 C630 1.330 . S
N631 C635 1.418 . S
C632 H611 0.929 . S
C632 C630 1.446 . S
C632 C633 1.332 . S
C633 H613 0.931 . S
C633 C632 1.332 . S
C633 C634 1.267 . S
C634 H602 0.929 . S
C634 C633 1.267 . S
C634 C635 1.251 . S
C635 H605 0.929 . S
C635 N631 1.418 . S
C635 C634 1.251 . S
C636 H603 0.930 . S
C636 C638 1.406 . S
C636 C641 1.261 . S
C637 H604 0.930 . S
C637 N639 1.325 . S
C637 C640 1.357 . S
C638 H606 0.928 . S
C638 C636 1.406 . S
C638 N639 1.261 . S
N639 Co590 2.214 1_554 S
N639 C637 1.325 . S
N639 C638 1.261 . S
C640 H610 0.931 . S
C640 C637 1.357 . S
C640 C641 1.312 . S
C641 H612 0.930 . S
C641 C636 1.261 . S
C641 C640 1.312 . S
C642 O614 1.214 . S
C642 O622 1.234 . S
C643 H615 0.929 . S
C643 C646 1.391 . S
C643 C648 1.391 1_455 S
C644 H616 0.929 . S
C644 C645 1.390 . S
C644 N647 1.391 1_455 S
C645 H617 0.930 . S
C645 C644 1.390 . S
C645 C646 1.392 . S
C646 H618 0.929 . S
C646 C643 1.391 . S
C646 C645 1.392 . S
N647 Co591 2.257 . S
N647 C644 1.391 1_655 S
N647 C648 1.388 . S
C648 H619 0.930 . S
C648 C643 1.391 1_655 S
C648 N647 1.388 . S
Co649 O651 2.143 . S
Co649 O657 2.074 . S
Co649 O660 2.093 . S
Co649 O673 2.097 . S
Co649 N690 2.151 . S
Co649 N698 2.214 . S
Co650 O651 2.160 . S
Co650 O656 2.058 . S
Co650 O666 2.057 . S
Co650 O681 2.037 . S
Co650 N685 2.145 . S
Co650 N706 2.257 . S
O651 Co649 2.143 . S
O651 Co650 2.160 . S
C652 O653 1.278 . S
C652 O660 1.224 . S
O653 C652 1.278 . S
C654 O655 1.245 . S
C654 O666 1.232 . S
O655 C654 1.245 . S
O656 Co650 2.058 . S
O656 C682 1.269 . S
O657 Co649 2.074 . S
O657 C682 1.257 . S
H658 C683 0.930 . S
H659 C689 0.930 . S
O660 Co649 2.093 . S
O660 C652 1.224 . S
H661 C693 0.929 . S
H662 C695 0.930 . S
H663 C696 0.930 . S
H664 C694 0.929 . S
H665 C697 0.928 . S
O666 Co650 2.057 . S
O666 C654 1.232 . S
H667 C686 0.929 . S
H668 C687 0.929 . S
H669 C699 0.931 . S
H670 C691 0.929 . S
H671 C700 0.930 . S
H672 C692 0.931 . S
O673 Co649 2.097 . S
O673 C701 1.214 . S
H674 C702 0.929 . S
H675 C703 0.929 . S
H676 C704 0.930 . S
H677 C705 0.929 . S
H678 C707 0.930 . S
H679 C684 0.930 . S
H680 C688 0.930 . S
O681 Co650 2.037 . S
O681 C701 1.234 . S
C682 O656 1.269 . S
C682 O657 1.257 . S
C683 H658 0.930 . S
C683 C686 1.388 . S
C683 C688 1.418 . S
C684 H679 0.930 . S
C684 C687 1.404 . S
C684 C688 1.353 . S
N685 Co650 2.145 . S
N685 C686 1.397 . S
N685 C687 1.334 . S
C686 H667 0.929 . S
C686 C683 1.388 . S
C686 N685 1.397 . S
C687 H668 0.929 . S
C687 C684 1.404 . S
C687 N685 1.334 . S
C688 H680 0.930 . S
C688 C683 1.418 . S
C688 C684 1.353 . S
C689 H659 0.930 . S
C689 N690 1.330 . S
C689 C691 1.446 . S
N690 Co649 2.151 . S
N690 C689 1.330 . S
N690 C694 1.418 . S
C691 H670 0.929 . S
C691 C689 1.446 . S
C691 C692 1.332 . S
C692 H672 0.931 . S
C692 C691 1.332 . S
C692 C693 1.267 . S
C693 H661 0.929 . S
C693 C692 1.267 . S
C693 C694 1.251 . S
C694 H664 0.929 . S
C694 N690 1.418 . S
C694 C693 1.251 . S
C695 H662 0.930 . S
C695 C697 1.406 . S
C695 C700 1.261 . S
C696 H663 0.930 . S
C696 N698 1.325 . S
C696 C699 1.357 . S
C697 H665 0.928 . S
C697 C695 1.406 . S
C697 N698 1.261 . S
N698 Co649 2.214 . S
N698 C696 1.325 . S
N698 C697 1.261 . S
C699 H669 0.931 . S
C699 C696 1.357 . S
C699 C700 1.312 . S
C700 H671 0.930 . S
C700 C695 1.261 . S
C700 C699 1.312 . S
C701 O673 1.214 . S
C701 O681 1.234 . S
C702 H674 0.929 . S
C702 C705 1.391 . S
C702 C707 1.391 1_545 S
C703 H675 0.929 . S
C703 C704 1.390 . S
C703 N706 1.391 1_545 S
C704 H676 0.930 . S
C704 C703 1.390 . S
C704 C705 1.392 . S
C705 H677 0.929 . S
C705 C702 1.391 . S
C705 C704 1.392 . S
N706 Co650 2.257 . S
N706 C703 1.391 1_565 S
N706 C707 1.388 . S
C707 H678 0.930 . S
C707 C702 1.391 1_565 S
C707 N706 1.388 . S
C708 C709 1.391 . S
C708 C710 1.394 . S
C708 H724 0.931 . S
C709 C708 1.391 . S
C709 C713 1.376 . S
C710 C708 1.394 . S
C710 C711 1.369 . S
C710 C714 1.531 . S
C711 C710 1.369 . S
C711 C712 1.410 . S
C711 C719 1.503 . S
C712 C711 1.410 . S
C712 C713 1.392 . S
C712 C715 1.511 . S
C713 C709 1.376 . S
C713 C712 1.392 . S
C713 H725 0.929 . S
C714 C710 1.531 . S
C714 H726 0.960 . S
C714 H727 0.962 . S
C714 H728 0.960 . S
C715 C712 1.511 . S
C715 H729 0.961 . S
C715 H730 0.961 . S
C715 H731 0.961 . S
C716 C717 1.370 . S
C716 C718 1.363 . S
C716 H732 0.931 . S
C717 C716 1.370 . S
C717 C721 1.408 . S
C718 C716 1.363 . S
C718 C719 1.370 . S
C718 C722 1.524 . S
C719 C711 1.503 . S
C719 C718 1.370 . S
C719 C720 1.403 . S
C720 C719 1.403 . S
C720 C721 1.404 . S
C720 C723 1.539 . S
C721 C717 1.408 . S
C721 C720 1.404 . S
C721 H733 0.930 . S
C722 C718 1.524 . S
C722 H734 0.956 . S
C722 H735 0.961 . S
C722 H736 0.961 . S
C723 C720 1.539 . S
C723 H737 0.958 . S
C723 H738 0.961 . S
C723 H739 0.960 . S
H724 C708 0.931 . S
H725 C713 0.929 . S
H726 C714 0.960 . S
H727 C714 0.962 . S
H728 C714 0.960 . S
H729 C715 0.961 . S
H730 C715 0.961 . S
H731 C715 0.961 . S
H732 C716 0.931 . S
H733 C721 0.930 . S
H734 C722 0.956 . S
H735 C722 0.961 . S
H736 C722 0.961 . S
H737 C723 0.958 . S
H738 C723 0.961 . S
H739 C723 0.960 . S
C740 C741 1.391 . S
C740 C742 1.394 1_455 S
C740 H756 0.931 . S
C741 C740 1.391 . S
C741 C745 1.376 . S
C742 C740 1.394 1_655 S
C742 C743 1.369 1_655 S
C742 C746 1.531 . S
C743 C742 1.369 1_455 S
C743 C744 1.410 . S
C743 C751 1.503 1_455 S
C744 C743 1.410 . S
C744 C745 1.392 . S
C744 C747 1.511 . S
C745 C741 1.376 . S
C745 C744 1.392 . S
C745 H757 0.929 . S
C746 C742 1.531 . S
C746 H758 0.960 . S
C746 H759 0.962 . S
C746 H760 0.960 . S
C747 C744 1.511 . S
C747 H761 0.961 . S
C747 H762 0.961 . S
C747 H763 0.961 . S
C748 C749 1.370 . S
C748 C750 1.363 . S
C748 H764 0.931 . S
C749 C748 1.370 . S
C749 C753 1.408 . S
C750 C748 1.363 . S
C750 C751 1.370 . S
C750 C754 1.524 . S
C751 C743 1.503 1_655 S
C751 C750 1.370 . S
C751 C752 1.403 1_655 S
C752 C751 1.403 1_455 S
C752 C753 1.404 1_455 S
C752 C755 1.539 . S
C753 C749 1.408 . S
C753 C752 1.404 1_655 S
C753 H765 0.930 1_655 S
C754 C750 1.524 . S
C754 H766 0.956 . S
C754 H767 0.961 . S
C754 H768 0.961 . S
C755 C752 1.539 . S
C755 H769 0.958 . S
C755 H770 0.961 . S
C755 H771 0.960 . S
H756 C740 0.931 . S
H757 C745 0.929 . S
H758 C746 0.960 . S
H759 C746 0.962 . S
H760 C746 0.960 . S
H761 C747 0.961 . S
H762 C747 0.961 . S
H763 C747 0.961 . S
H764 C748 0.931 . S
H765 C753 0.930 1_455 S
H766 C754 0.956 . S
H767 C754 0.961 . S
H768 C754 0.961 . S
H769 C755 0.958 . S
H770 C755 0.961 . S
H771 C755 0.960 . S
C772 C773 1.391 . S
C772 C774 1.394 1_565 S
C772 H788 0.914 1_565 S
C773 C772 1.391 . S
C773 C777 1.376 . S
C774 C772 1.394 1_545 S
C774 C775 1.355 1_545 S
C774 C778 1.531 . S
C775 C774 1.355 1_565 S
C775 C776 1.421 . S
C775 C783 1.508 1_565 S
C776 C775 1.421 . S
C776 C777 1.392 . S
C776 C779 1.511 . S
C777 C773 1.376 . S
C777 C776 1.392 . S
C777 H789 0.929 . S
C778 C774 1.531 . S
C778 H790 0.960 . S
C778 H791 0.962 . S
C778 H792 0.960 . S
C779 C776 1.511 . S
C779 H793 0.961 . S
C779 H794 0.961 . S
C779 H795 0.961 . S
C780 C781 1.370 . S
C780 C782 1.363 1_545 S
C780 H796 0.931 1_545 S
C781 C780 1.370 . S
C781 C785 1.408 . S
C782 C780 1.363 1_565 S
C782 C783 1.370 1_565 S
C782 C786 1.524 . S
C783 C775 1.508 1_545 S
C783 C782 1.370 1_545 S
C783 C784 1.403 . S
C784 C783 1.403 . S
C784 C785 1.404 . S
C784 C787 1.539 . S
C785 C781 1.408 . S
C785 C784 1.404 . S
C785 H797 0.930 . S
C786 C782 1.524 . S
C786 H798 0.956 . S
C786 H799 0.961 . S
C786 H800 0.961 . S
C787 C784 1.539 . S
C787 H801 0.958 . S
C787 H802 0.961 . S
C787 H803 0.960 . S
H788 C772 0.914 1_545 S
H789 C777 0.929 . S
H790 C778 0.960 . S
H791 C778 0.962 . S
H792 C778 0.960 . S
H793 C779 0.961 . S
H794 C779 0.961 . S
H795 C779 0.961 . S
H796 C780 0.931 1_565 S
H797 C785 0.930 . S
H798 C786 0.956 . S
H799 C786 0.961 . S
H800 C786 0.961 . S
H801 C787 0.958 . S
H802 C787 0.961 . S
H803 C787 0.960 . S
C804 C805 1.391 . S
C804 C806 1.394 . S
C804 H820 0.931 . S
C805 C804 1.391 . S
C805 C809 1.376 . S
C806 C804 1.394 . S
C806 C807 1.369 . S
C806 C810 1.531 . S
C807 C806 1.369 . S
C807 C808 1.410 . S
C807 C815 1.503 . S
C808 C807 1.410 . S
C808 C809 1.392 . S
C808 C811 1.511 . S
C809 C805 1.376 . S
C809 C808 1.392 . S
C809 H821 0.929 . S
C810 C806 1.531 . S
C810 H822 0.960 . S
C810 H823 0.962 . S
C810 H824 0.960 . S
C811 C808 1.511 . S
C811 H825 0.961 . S
C811 H826 0.961 . S
C811 H827 0.961 . S
C812 C813 1.370 . S
C812 C814 1.363 . S
C812 H828 0.931 . S
C813 C812 1.370 . S
C813 C817 1.408 . S
C814 C812 1.363 . S
C814 C815 1.370 . S
C814 C818 1.524 . S
C815 C807 1.503 . S
C815 C814 1.370 . S
C815 C816 1.403 . S
C816 C815 1.403 . S
C816 C817 1.404 . S
C816 C819 1.539 . S
C817 C813 1.408 . S
C817 C816 1.404 . S
C817 H829 0.930 . S
C818 C814 1.524 . S
C818 H830 0.956 . S
C818 H831 0.961 . S
C818 H832 0.961 . S
C819 C816 1.539 . S
C819 H833 0.958 . S
C819 H834 0.961 . S
C819 H835 0.960 . S
H820 C804 0.931 . S
H821 C809 0.929 . S
H822 C810 0.960 . S
H823 C810 0.962 . S
H824 C810 0.960 . S
H825 C811 0.961 . S
H826 C811 0.961 . S
H827 C811 0.961 . S
H828 C812 0.931 . S
H829 C817 0.930 . S
H830 C818 0.956 . S
H831 C818 0.961 . S
H832 C818 0.961 . S
H833 C819 0.958 . S
H834 C819 0.961 . S
H835 C819 0.960 . S
C836 C837 1.391 . S
C836 C838 1.394 1_655 S
C836 H852 0.931 1_655 S
C837 C836 1.391 . S
C837 C841 1.376 . S
C838 C836 1.394 1_455 S
C838 C839 1.369 1_455 S
C838 C842 1.531 . S
C839 C838 1.369 1_655 S
C839 C840 1.410 . S
C839 C847 1.503 1_655 S
C840 C839 1.410 . S
C840 C841 1.392 . S
C840 C843 1.511 . S
C841 C837 1.376 . S
C841 C840 1.392 . S
C841 H853 0.929 . S
C842 C838 1.531 . S
C842 H854 0.960 . S
C842 H855 0.962 . S
C842 H856 0.960 . S
C843 C840 1.511 . S
C843 H857 0.961 . S
C843 H858 0.961 . S
C843 H859 0.961 . S
C844 C845 1.370 . S
C844 C846 1.363 . S
C844 H860 0.931 . S
C845 C844 1.370 . S
C845 C849 1.408 . S
C846 C844 1.363 . S
C846 C847 1.370 . S
C846 C850 1.524 . S
C847 C839 1.503 1_455 S
C847 C846 1.370 . S
C847 C848 1.403 1_455 S
C848 C847 1.403 1_655 S
C848 C849 1.404 1_655 S
C848 C851 1.539 . S
C849 C845 1.408 . S
C849 C848 1.404 1_455 S
C849 H861 0.930 . S
C850 C846 1.524 . S
C850 H862 0.956 . S
C850 H863 0.961 . S
C850 H864 0.961 . S
C851 C848 1.539 . S
C851 H865 0.958 . S
C851 H866 0.961 . S
C851 H867 0.960 . S
H852 C836 0.931 1_455 S
H853 C841 0.929 . S
H854 C842 0.960 . S
H855 C842 0.962 . S
H856 C842 0.960 . S
H857 C843 0.961 . S
H858 C843 0.961 . S
H859 C843 0.961 . S
H860 C844 0.931 . S
H861 C849 0.930 . S
H862 C850 0.956 . S
H863 C850 0.961 . S
H864 C850 0.961 . S
H865 C851 0.958 . S
H866 C851 0.961 . S
H867 C851 0.960 . S
C868 C869 1.391 . S
C868 C870 1.394 . S
C868 H884 0.931 . S
C869 C868 1.391 . S
C869 C873 1.376 . S
C870 C868 1.394 . S
C870 C871 1.369 . S
C870 C874 1.531 . S
C871 C870 1.369 . S
C871 C872 1.410 . S
C871 C879 1.503 1_545 S
C872 C871 1.410 . S
C872 C873 1.392 . S
C872 C875 1.511 . S
C873 C869 1.376 . S
C873 C872 1.392 . S
C873 H885 0.929 . S
C874 C870 1.531 . S
C874 H886 0.960 . S
C874 H887 0.962 1_545 S
C874 H888 0.960 . S
C875 C872 1.511 . S
C875 H889 0.961 . S
C875 H890 0.961 . S
C875 H891 0.961 . S
C876 C877 1.370 . S
C876 C878 1.363 . S
C876 H892 0.931 . S
C877 C876 1.370 . S
C877 C881 1.408 1_565 S
C878 C876 1.363 . S
C878 C879 1.370 . S
C878 C882 1.524 . S
C879 C871 1.503 1_565 S
C879 C878 1.370 . S
C879 C880 1.403 1_565 S
C880 C879 1.403 1_545 S
C880 C881 1.404 . S
C880 C883 1.539 . S
C881 C877 1.408 1_545 S
C881 C880 1.404 . S
C881 H893 0.930 . S
C882 C878 1.524 . S
C882 H894 0.956 . S
C882 H895 0.961 . S
C882 H896 0.961 . S
C883 C880 1.539 . S
C883 H897 0.958 . S
C883 H898 0.961 . S
C883 H899 0.960 . S
H884 C868 0.931 . S
H885 C873 0.929 . S
H886 C874 0.960 . S
H887 C874 0.962 1_565 S
H888 C874 0.960 . S
H889 C875 0.961 . S
H890 C875 0.961 . S
H891 C875 0.961 . S
H892 C876 0.931 . S
H893 C881 0.930 . S
H894 C882 0.956 . S
H895 C882 0.961 . S
H896 C882 0.961 . S
H897 C883 0.958 . S
H898 C883 0.961 . S
H899 C883 0.960 . S
C900 C901 1.391 . S
C900 C902 1.394 . S
C900 H916 0.931 . S
C901 C900 1.391 . S
C901 C905 1.376 . S
C902 C900 1.394 . S
C902 C903 1.369 . S
C902 C906 1.531 . S
C903 C902 1.369 . S
C903 C904 1.410 . S
C903 C911 1.503 . S
C904 C903 1.410 . S
C904 C905 1.392 . S
C904 C907 1.511 . S
C905 C901 1.376 . S
C905 C904 1.392 . S
C905 H917 0.929 . S
C906 C902 1.531 . S
C906 H918 0.960 . S
C906 H919 0.962 . S
C906 H920 0.960 . S
C907 C904 1.511 . S
C907 H921 0.961 . S
C907 H922 0.961 . S
C907 H923 0.961 . S
C908 C909 1.370 . S
C908 C910 1.363 . S
C908 H924 0.931 . S
C909 C908 1.370 . S
C909 C913 1.408 . S
C910 C908 1.363 . S
C910 C911 1.370 . S
C910 C914 1.524 . S
C911 C903 1.503 . S
C911 C910 1.370 . S
C911 C912 1.403 . S
C912 C911 1.403 . S
C912 C913 1.404 . S
C912 C915 1.539 . S
C913 C909 1.408 . S
C913 C912 1.404 . S
C913 H925 0.930 . S
C914 C910 1.524 . S
C914 H926 0.956 . S
C914 H927 0.961 . S
C914 H928 0.961 . S
C915 C912 1.539 . S
C915 H929 0.958 . S
C915 H930 0.961 . S
C915 H931 0.960 . S
H916 C900 0.931 . S
H917 C905 0.929 . S
H918 C906 0.960 . S
H919 C906 0.962 . S
H920 C906 0.960 . S
H921 C907 0.961 . S
H922 C907 0.961 . S
H923 C907 0.961 . S
H924 C908 0.931 . S
H925 C913 0.930 . S
H926 C914 0.956 . S
H927 C914 0.961 . S
H928 C914 0.961 . S
H929 C915 0.958 . S
H930 C915 0.961 . S
H931 C915 0.960 . S
C932 C933 1.391 . S
C932 C934 1.394 . S
C932 H948 0.931 . S
C933 C932 1.391 . S
C933 C937 1.376 . S
C934 C932 1.394 . S
C934 C935 1.369 . S
C934 C938 1.531 . S
C935 C934 1.369 . S
C935 C936 1.410 . S
C935 C943 1.503 . S
C936 C935 1.410 . S
C936 C937 1.392 . S
C936 C939 1.511 . S
C937 C933 1.376 . S
C937 C936 1.392 . S
C937 H949 0.929 . S
C938 C934 1.531 . S
C938 H950 0.960 . S
C938 H951 0.962 . S
C938 H952 0.960 . S
C939 C936 1.511 . S
C939 H953 0.961 . S
C939 H954 0.961 . S
C939 H955 0.961 . S
C940 C941 1.370 . S
C940 C942 1.363 . S
C940 H956 0.931 . S
C941 C940 1.370 . S
C941 C945 1.408 . S
C942 C940 1.363 . S
C942 C943 1.370 . S
C942 C946 1.524 . S
C943 C935 1.503 . S
C943 C942 1.370 . S
C943 C944 1.403 . S
C944 C943 1.403 . S
C944 C945 1.404 . S
C944 C947 1.539 . S
C945 C941 1.408 . S
C945 C944 1.404 . S
C945 H957 0.930 . S
C946 C942 1.524 . S
C946 H958 0.956 . S
C946 H959 0.961 . S
C946 H960 0.961 . S
C947 C944 1.539 . S
C947 H961 0.958 . S
C947 H962 0.961 . S
C947 H963 0.960 . S
H948 C932 0.931 . S
H949 C937 0.929 . S
H950 C938 0.960 . S
H951 C938 0.962 . S
H952 C938 0.960 . S
H953 C939 0.961 . S
H954 C939 0.961 . S
H955 C939 0.961 . S
H956 C940 0.931 . S
H957 C945 0.930 . S
H958 C946 0.956 . S
H959 C946 0.961 . S
H960 C946 0.961 . S
H961 C947 0.958 . S
H962 C947 0.961 . S
H963 C947 0.960 . S
C964 C965 1.391 . S
C964 C966 1.394 . S
C964 H980 0.931 . S
C965 C964 1.391 . S
C965 C969 1.376 . S
C966 C964 1.394 . S
C966 C967 1.369 . S
C966 C970 1.531 . S
C967 C966 1.369 . S
C967 C968 1.410 . S
C967 C975 1.503 . S
C968 C967 1.410 . S
C968 C969 1.392 . S
C968 C971 1.511 . S
C969 C965 1.376 . S
C969 C968 1.392 . S
C969 H981 0.929 . S
C970 C966 1.531 . S
C970 H982 0.960 . S
C970 H983 0.962 . S
C970 H984 0.960 . S
C971 C968 1.511 . S
C971 H985 0.961 . S
C971 H986 0.961 . S
C971 H987 0.961 . S
C972 C973 1.370 . S
C972 C974 1.363 . S
C972 H988 0.931 . S
C973 C972 1.370 . S
C973 C977 1.408 . S
C974 C972 1.363 . S
C974 C975 1.370 . S
C974 C978 1.524 . S
C975 C967 1.503 . S
C975 C974 1.370 . S
C975 C976 1.403 . S
C976 C975 1.403 . S
C976 C977 1.404 . S
C976 C979 1.539 . S
C977 C973 1.408 . S
C977 C976 1.404 . S
C977 H989 0.930 . S
C978 C974 1.524 . S
C978 H990 0.956 . S
C978 H991 0.961 . S
C978 H992 0.961 . S
C979 C976 1.539 . S
C979 H993 0.958 . S
C979 H994 0.961 . S
C979 H995 0.960 . S
H980 C964 0.931 . S
H981 C969 0.929 . S
H982 C970 0.960 . S
H983 C970 0.962 . S
H984 C970 0.960 . S
H985 C971 0.961 . S
H986 C971 0.961 . S
H987 C971 0.961 . S
H988 C972 0.931 . S
H989 C977 0.930 . S
H990 C978 0.956 . S
H991 C978 0.961 . S
H992 C978 0.961 . S
H993 C979 0.958 . S
H994 C979 0.961 . S
H995 C979 0.960 . S
C996 C997 1.391 . S
C996 C998 1.394 . S
C996 H1012 0.931 . S
C997 C996 1.391 . S
C997 C1001 1.376 . S
C998 C996 1.394 . S
C998 C999 1.369 . S
C998 C1002 1.531 . S
C999 C998 1.369 . S
C999 C1000 1.410 . S
C999 C1007 1.503 . S
C1000 C999 1.410 . S
C1000 C1001 1.392 . S
C1000 C1003 1.511 . S
C1001 C997 1.376 . S
C1001 C1000 1.392 . S
C1001 H1013 0.929 . S
C1002 C998 1.531 . S
C1002 H1014 0.960 . S
C1002 H1015 0.962 . S
C1002 H1016 0.960 . S
C1003 C1000 1.511 . S
C1003 H1017 0.961 . S
C1003 H1018 0.961 . S
C1003 H1019 0.961 . S
C1004 C1005 1.370 . S
C1004 C1006 1.363 . S
C1004 H1020 0.931 . S
C1005 C1004 1.370 . S
C1005 C1009 1.408 . S
C1006 C1004 1.363 . S
C1006 C1007 1.370 . S
C1006 C1010 1.524 . S
C1007 C999 1.503 . S
C1007 C1006 1.370 . S
C1007 C1008 1.403 . S
C1008 C1007 1.403 . S
C1008 C1009 1.404 . S
C1008 C1011 1.539 . S
C1009 C1005 1.408 . S
C1009 C1008 1.404 . S
C1009 H1021 0.930 . S
C1010 C1006 1.524 . S
C1010 H1022 0.956 . S
C1010 H1023 0.961 . S
C1010 H1024 0.961 . S
C1011 C1008 1.539 . S
C1011 H1025 0.958 . S
C1011 H1026 0.961 . S
C1011 H1027 0.960 . S
H1012 C996 0.931 . S
H1013 C1001 0.929 . S
H1014 C1002 0.960 . S
H1015 C1002 0.962 . S
H1016 C1002 0.960 . S
H1017 C1003 0.961 . S
H1018 C1003 0.961 . S
H1019 C1003 0.961 . S
H1020 C1004 0.931 . S
H1021 C1009 0.930 . S
H1022 C1010 0.956 . S
H1023 C1010 0.961 . S
H1024 C1010 0.961 . S
H1025 C1011 0.958 . S
H1026 C1011 0.961 . S
H1027 C1011 0.960 . S
C1028 C1029 1.391 . S
C1028 C1030 1.394 . S
C1028 H1044 0.931 . S
C1029 C1028 1.391 . S
C1029 C1033 1.376 . S
C1030 C1028 1.394 . S
C1030 C1031 1.369 . S
C1030 C1034 1.531 . S
C1031 C1030 1.369 . S
C1031 C1032 1.410 . S
C1031 C1039 1.503 . S
C1032 C1031 1.410 . S
C1032 C1033 1.392 . S
C1032 C1035 1.511 . S
C1033 C1029 1.376 . S
C1033 C1032 1.392 . S
C1033 H1045 0.929 . S
C1034 C1030 1.531 . S
C1034 H1046 0.960 . S
C1034 H1047 0.962 . S
C1034 H1048 0.960 . S
C1035 C1032 1.511 . S
C1035 H1049 0.961 . S
C1035 H1050 0.961 . S
C1035 H1051 0.961 . S
C1036 C1037 1.370 . S
C1036 C1038 1.363 . S
C1036 H1052 0.931 . S
C1037 C1036 1.370 . S
C1037 C1041 1.408 . S
C1038 C1036 1.363 . S
C1038 C1039 1.370 . S
C1038 C1042 1.524 . S
C1039 C1031 1.503 . S
C1039 C1038 1.370 . S
C1039 C1040 1.403 . S
C1040 C1039 1.403 . S
C1040 C1041 1.404 . S
C1040 C1043 1.539 . S
C1041 C1037 1.408 . S
C1041 C1040 1.404 . S
C1041 H1053 0.930 . S
C1042 C1038 1.524 . S
C1042 H1054 0.956 . S
C1042 H1055 0.961 . S
C1042 H1056 0.961 . S
C1043 C1040 1.539 . S
C1043 H1057 0.958 . S
C1043 H1058 0.961 . S
C1043 H1059 0.960 . S
H1044 C1028 0.931 . S
H1045 C1033 0.929 . S
H1046 C1034 0.960 . S
H1047 C1034 0.962 . S
H1048 C1034 0.960 . S
H1049 C1035 0.961 . S
H1050 C1035 0.961 . S
H1051 C1035 0.961 . S
H1052 C1036 0.931 . S
H1053 C1041 0.930 . S
H1054 C1042 0.956 . S
H1055 C1042 0.961 . S
H1056 C1042 0.961 . S
H1057 C1043 0.958 . S
H1058 C1043 0.961 . S
H1059 C1043 0.960 . S
C1060 C1061 1.391 . S
C1060 C1062 1.394 . S
C1060 H1076 0.931 . S
C1061 C1060 1.391 . S
C1061 C1065 1.376 . S
C1062 C1060 1.394 . S
C1062 C1063 1.369 . S
C1062 C1066 1.531 . S
C1063 C1062 1.369 . S
C1063 C1064 1.410 . S
C1063 C1071 1.503 . S
C1064 C1063 1.410 . S
C1064 C1065 1.392 . S
C1064 C1067 1.511 . S
C1065 C1061 1.376 . S
C1065 C1064 1.392 . S
C1065 H1077 0.929 . S
C1066 C1062 1.531 . S
C1066 H1078 0.960 . S
C1066 H1079 0.962 . S
C1066 H1080 0.960 . S
C1067 C1064 1.511 . S
C1067 H1081 0.961 . S
C1067 H1082 0.961 . S
C1067 H1083 0.961 . S
C1068 C1069 1.370 . S
C1068 C1070 1.363 . S
C1068 H1084 0.931 . S
C1069 C1068 1.370 . S
C1069 C1073 1.408 . S
C1070 C1068 1.363 . S
C1070 C1071 1.370 . S
C1070 C1074 1.524 . S
C1071 C1063 1.503 . S
C1071 C1070 1.370 . S
C1071 C1072 1.403 . S
C1072 C1071 1.403 . S
C1072 C1073 1.404 . S
C1072 C1075 1.539 . S
C1073 C1069 1.408 . S
C1073 C1072 1.404 . S
C1073 H1085 0.930 . S
C1074 C1070 1.524 . S
C1074 H1086 0.956 . S
C1074 H1087 0.961 . S
C1074 H1088 0.961 . S
C1075 C1072 1.539 . S
C1075 H1089 0.958 . S
C1075 H1090 0.961 . S
C1075 H1091 0.960 . S
H1076 C1060 0.931 . S
H1077 C1065 0.929 . S
H1078 C1066 0.960 . S
H1079 C1066 0.962 . S
H1080 C1066 0.960 . S
H1081 C1067 0.961 . S
H1082 C1067 0.961 . S
H1083 C1067 0.961 . S
H1084 C1068 0.931 . S
H1085 C1073 0.930 . S
H1086 C1074 0.956 . S
H1087 C1074 0.961 . S
H1088 C1074 0.961 . S
H1089 C1075 0.958 . S
H1090 C1075 0.961 . S
H1091 C1075 0.960 . S
C1092 C1093 1.391 . S
C1092 C1094 1.394 . S
C1092 H1108 0.931 . S
C1093 C1092 1.391 . S
C1093 C1097 1.376 . S
C1094 C1092 1.394 . S
C1094 C1095 1.369 . S
C1094 C1098 1.531 . S
C1095 C1094 1.369 . S
C1095 C1096 1.410 . S
C1095 C1103 1.503 1_566 S
C1096 C1095 1.410 . S
C1096 C1097 1.392 . S
C1096 C1099 1.488 1_556 S
C1097 C1093 1.376 . S
C1097 C1096 1.392 . S
C1097 H1109 0.929 . S
C1098 C1094 1.531 . S
C1098 H1110 0.960 1_565 S
C1098 H1111 0.962 . S
C1098 H1112 0.960 . S
C1099 C1096 1.488 1_554 S
C1099 H1113 0.981 . S
C1099 H1114 1.006 . S
C1099 H1115 0.923 1_554 S
C1100 C1101 1.370 . S
C1100 C1102 1.363 . S
C1100 H1116 0.931 . S
C1101 C1100 1.370 . S
C1101 C1105 1.408 . S
C1102 C1100 1.363 . S
C1102 C1103 1.370 . S
C1102 C1106 1.524 1_545 S
C1103 C1095 1.503 1_544 S
C1103 C1102 1.370 . S
C1103 C1104 1.403 1_554 S
C1104 C1103 1.403 1_556 S
C1104 C1105 1.404 1_556 S
C1104 C1107 1.539 . S
C1105 C1101 1.408 . S
C1105 C1104 1.404 1_554 S
C1105 H1117 0.930 1_554 S
C1106 C1102 1.524 1_565 S
C1106 H1118 0.956 . S
C1106 H1119 0.961 . S
C1106 H1120 0.961 . S
C1107 C1104 1.539 . S
C1107 H1121 0.958 . S
C1107 H1122 0.961 . S
C1107 H1123 0.960 . S
H1108 C1092 0.931 . S
H1109 C1097 0.929 . S
H1110 C1098 0.960 1_545 S
H1111 C1098 0.962 . S
H1112 C1098 0.960 . S
H1113 C1099 0.981 . S
H1114 C1099 1.006 . S
H1115 C1099 0.923 1_556 S
H1116 C1100 0.931 . S
H1117 C1105 0.930 1_556 S
H1118 C1106 0.956 . S
H1119 C1106 0.961 . S
H1120 C1106 0.961 . S
H1121 C1107 0.958 . S
H1122 C1107 0.961 . S
H1123 C1107 0.960 . S
C1124 C1125 1.391 . S
C1124 C1126 1.394 . S
C1124 H1140 0.931 . S
C1125 C1124 1.391 . S
C1125 C1129 1.376 . S
C1126 C1124 1.394 . S
C1126 C1127 1.369 . S
C1126 C1130 1.531 . S
C1127 C1126 1.369 . S
C1127 C1128 1.410 . S
C1127 C1135 1.503 . S
C1128 C1127 1.410 . S
C1128 C1129 1.392 . S
C1128 C1131 1.511 . S
C1129 C1125 1.376 . S
C1129 C1128 1.392 . S
C1129 H1141 0.929 . S
C1130 C1126 1.531 . S
C1130 H1142 0.960 . S
C1130 H1143 0.962 . S
C1130 H1144 0.960 . S
C1131 C1128 1.511 . S
C1131 H1145 0.961 . S
C1131 H1146 0.961 . S
C1131 H1147 0.961 . S
C1132 C1133 1.370 . S
C1132 C1134 1.363 . S
C1132 H1148 0.931 . S
C1133 C1132 1.370 . S
C1133 C1137 1.408 . S
C1134 C1132 1.363 . S
C1134 C1135 1.370 . S
C1134 C1138 1.524 . S
C1135 C1127 1.503 . S
C1135 C1134 1.370 . S
C1135 C1136 1.403 . S
C1136 C1135 1.403 . S
C1136 C1137 1.404 . S
C1136 C1139 1.539 . S
C1137 C1133 1.408 . S
C1137 C1136 1.404 . S
C1137 H1149 0.930 . S
C1138 C1134 1.524 . S
C1138 H1150 0.956 . S
C1138 H1151 0.961 . S
C1138 H1152 0.961 . S
C1139 C1136 1.539 . S
C1139 H1153 0.958 . S
C1139 H1154 0.961 . S
C1139 H1155 0.960 . S
H1140 C1124 0.931 . S
H1141 C1129 0.929 . S
H1142 C1130 0.960 . S
H1143 C1130 0.962 . S
H1144 C1130 0.960 . S
H1145 C1131 0.961 . S
H1146 C1131 0.961 . S
H1147 C1131 0.961 . S
H1148 C1132 0.931 . S
H1149 C1137 0.930 . S
H1150 C1138 0.956 . S
H1151 C1138 0.961 . S
H1152 C1138 0.961 . S
H1153 C1139 0.958 . S
H1154 C1139 0.961 . S
H1155 C1139 0.960 . S
C1156 C1157 1.391 . S
C1156 C1158 1.394 . S
C1156 H1172 0.931 . S
C1157 C1156 1.391 . S
C1157 C1161 1.376 . S
C1158 C1156 1.394 . S
C1158 C1159 1.369 . S
C1158 C1162 1.531 . S
C1159 C1158 1.369 . S
C1159 C1160 1.410 . S
C1159 C1167 1.503 1_655 S
C1160 C1159 1.410 . S
C1160 C1161 1.392 . S
C1160 C1163 1.511 1_655 S
C1161 C1157 1.376 . S
C1161 C1160 1.392 . S
C1161 H1173 0.929 . S
C1162 C1158 1.531 . S
C1162 H1174 0.960 . S
C1162 H1175 0.962 . S
C1162 H1176 0.960 . S
C1163 C1160 1.511 1_455 S
C1163 H1177 0.963 1_455 S
C1163 H1178 0.961 . S
C1163 H1179 0.961 . S
C1164 C1165 1.370 . S
C1164 C1166 1.363 . S
C1164 H1180 0.931 . S
C1165 C1164 1.370 . S
C1165 C1169 1.408 . S
C1166 C1164 1.363 . S
C1166 C1167 1.370 . S
C1166 C1170 1.524 1_455 S
C1167 C1159 1.503 1_455 S
C1167 C1166 1.370 . S
C1167 C1168 1.403 . S
C1168 C1167 1.403 . S
C1168 C1169 1.404 . S
C1168 C1171 1.539 . S
C1169 C1165 1.408 . S
C1169 C1168 1.404 . S
C1169 H1181 0.930 . S
C1170 C1166 1.524 1_655 S
C1170 H1182 0.956 . S
C1170 H1183 0.961 . S
C1170 H1184 0.961 1_655 S
C1171 C1168 1.539 . S
C1171 H1185 0.958 . S
C1171 H1186 0.961 . S
C1171 H1187 0.960 . S
H1172 C1156 0.931 . S
H1173 C1161 0.929 . S
H1174 C1162 0.960 . S
H1175 C1162 0.962 . S
H1176 C1162 0.960 . S
H1177 C1163 0.963 1_655 S
H1178 C1163 0.961 . S
H1179 C1163 0.961 . S
H1180 C1164 0.931 . S
H1181 C1169 0.930 . S
H1182 C1170 0.956 . S
H1183 C1170 0.961 . S
H1184 C1170 0.961 1_455 S
H1185 C1171 0.958 . S
H1186 C1171 0.961 . S
H1187 C1171 0.960 . S
C1188 C1189 1.391 . S
C1188 C1190 1.394 . S
C1188 H1204 0.931 . S
C1189 C1188 1.391 . S
C1189 C1193 1.376 . S
C1190 C1188 1.394 . S
C1190 C1191 1.369 . S
C1190 C1194 1.531 1_554 S
C1191 C1190 1.369 . S
C1191 C1192 1.410 . S
C1191 C1199 1.503 1_564 S
C1192 C1191 1.410 . S
C1192 C1193 1.392 . S
C1192 C1195 1.511 . S
C1193 C1189 1.376 . S
C1193 C1192 1.392 . S
C1193 H1205 0.929 . S
C1194 C1190 1.531 1_556 S
C1194 H1206 0.960 . S
C1194 H1207 0.962 1_556 S
C1194 H1208 0.960 . S
C1195 C1192 1.511 . S
C1195 H1209 0.961 . S
C1195 H1210 0.961 1_565 S
C1195 H1211 0.961 1_554 S
C1196 C1197 1.370 . S
C1196 C1198 1.363 1_556 S
C1196 H1212 0.931 1_556 S
C1197 C1196 1.370 . S
C1197 C1201 1.408 . S
C1198 C1196 1.363 1_554 S
C1198 C1199 1.370 1_554 S
C1198 C1202 1.524 . S
C1199 C1191 1.503 1_546 S
C1199 C1198 1.370 1_556 S
C1199 C1200 1.403 . S
C1200 C1199 1.403 . S
C1200 C1201 1.404 . S
C1200 C1203 1.539 1_545 S
C1201 C1197 1.408 . S
C1201 C1200 1.404 . S
C1201 H1213 0.930 . S
C1202 C1198 1.524 . S
C1202 H1214 0.956 . S
C1202 H1215 0.961 . S
C1202 H1216 0.961 . S
C1203 C1200 1.539 1_565 S
C1203 H1217 0.958 . S
C1203 H1218 0.961 . S
C1203 H1219 0.960 . S
H1204 C1188 0.931 . S
H1205 C1193 0.929 . S
H1206 C1194 0.960 . S
H1207 C1194 0.962 1_554 S
H1208 C1194 0.960 . S
H1209 C1195 0.961 . S
H1210 C1195 0.961 1_545 S
H1211 C1195 0.961 1_556 S
H1212 C1196 0.931 1_554 S
H1213 C1201 0.930 . S
H1214 C1202 0.956 . S
H1215 C1202 0.961 . S
H1216 C1202 0.961 . S
H1217 C1203 0.958 . S
H1218 C1203 0.961 . S
H1219 C1203 0.960 . S
C1220 C1221 1.391 . S
C1220 C1222 1.394 . S
C1220 H1236 0.931 . S
C1221 C1220 1.391 . S
C1221 C1225 1.376 . S
C1222 C1220 1.394 . S
C1222 C1223 1.369 . S
C1222 C1226 1.531 . S
C1223 C1222 1.369 . S
C1223 C1224 1.410 . S
C1223 C1231 1.503 . S
C1224 C1223 1.410 . S
C1224 C1225 1.392 . S
C1224 C1227 1.511 . S
C1225 C1221 1.376 . S
C1225 C1224 1.392 . S
C1225 H1237 0.929 . S
C1226 C1222 1.531 . S
C1226 H1238 0.960 . S
C1226 H1239 0.962 . S
C1226 H1240 0.960 . S
C1227 C1224 1.511 . S
C1227 H1241 0.961 . S
C1227 H1242 0.961 . S
C1227 H1243 0.961 . S
C1228 C1229 1.370 . S
C1228 C1230 1.363 . S
C1228 H1244 0.931 . S
C1229 C1228 1.370 . S
C1229 C1233 1.408 . S
C1230 C1228 1.363 . S
C1230 C1231 1.370 . S
C1230 C1234 1.524 . S
C1231 C1223 1.503 . S
C1231 C1230 1.370 . S
C1231 C1232 1.403 . S
C1232 C1231 1.403 . S
C1232 C1233 1.404 . S
C1232 C1235 1.539 . S
C1233 C1229 1.408 . S
C1233 C1232 1.404 . S
C1233 H1245 0.930 . S
C1234 C1230 1.524 . S
C1234 H1246 0.956 . S
C1234 H1247 0.961 . S
C1234 H1248 0.961 . S
C1235 C1232 1.539 . S
C1235 H1249 0.958 . S
C1235 H1250 0.961 . S
C1235 H1251 0.960 . S
H1236 C1220 0.931 . S
H1237 C1225 0.929 . S
H1238 C1226 0.960 . S
H1239 C1226 0.962 . S
H1240 C1226 0.960 . S
H1241 C1227 0.961 . S
H1242 C1227 0.961 . S
H1243 C1227 0.961 . S
H1244 C1228 0.931 . S
H1245 C1233 0.930 . S
H1246 C1234 0.956 . S
H1247 C1234 0.961 . S
H1248 C1234 0.961 . S
H1249 C1235 0.958 . S
H1250 C1235 0.961 . S
H1251 C1235 0.960 . S
C1252 C1253 1.391 . S
C1252 C1254 1.394 . S
C1252 H1268 0.931 . S
C1253 C1252 1.391 . S
C1253 C1257 1.376 . S
C1254 C1252 1.394 . S
C1254 C1255 1.369 . S
C1254 C1258 1.531 . S
C1255 C1254 1.369 . S
C1255 C1256 1.410 . S
C1255 C1263 1.503 1_455 S
C1256 C1255 1.410 . S
C1256 C1257 1.392 . S
C1256 C1259 1.511 . S
C1257 C1253 1.376 . S
C1257 C1256 1.392 . S
C1257 H1269 0.929 . S
C1258 C1254 1.531 . S
C1258 H1270 0.960 . S
C1258 H1271 0.962 . S
C1258 H1272 0.960 . S
C1259 C1256 1.511 . S
C1259 H1273 0.961 . S
C1259 H1274 0.961 1_455 S
C1259 H1275 0.961 . S
C1260 C1261 1.370 . S
C1260 C1262 1.363 . S
C1260 H1276 0.931 . S
C1261 C1260 1.370 . S
C1261 C1265 1.408 . S
C1262 C1260 1.363 . S
C1262 C1263 1.370 . S
C1262 C1266 1.524 . S
C1263 C1255 1.503 1_655 S
C1263 C1262 1.370 . S
C1263 C1264 1.403 . S
C1264 C1263 1.403 . S
C1264 C1265 1.404 . S
C1264 C1267 1.539 1_655 S
C1265 C1261 1.408 . S
C1265 C1264 1.404 . S
C1265 H1277 0.930 . S
C1266 C1262 1.524 . S
C1266 H1278 0.956 . S
C1266 H1279 0.961 . S
C1266 H1280 0.961 . S
C1267 C1264 1.539 1_455 S
C1267 H1281 0.958 . S
C1267 H1282 0.961 1_455 S
C1267 H1283 0.960 . S
H1268 C1252 0.931 . S
H1269 C1257 0.929 . S
H1270 C1258 0.960 . S
H1271 C1258 0.962 . S
H1272 C1258 0.960 . S
H1273 C1259 0.961 . S
H1274 C1259 0.961 1_655 S
H1275 C1259 0.961 . S
H1276 C1260 0.931 . S
H1277 C1265 0.930 . S
H1278 C1266 0.956 . S
H1279 C1266 0.961 . S
H1280 C1266 0.961 . S
H1281 C1267 0.958 . S
H1282 C1267 0.961 1_655 S
H1283 C1267 0.960 . S
C1284 C1285 1.391 . S
C1284 C1286 1.394 . S
C1284 H1300 0.931 . S
C1285 C1284 1.391 . S
C1285 C1289 1.376 . S
C1286 C1284 1.394 . S
C1286 C1287 1.386 . S
C1286 C1290 1.531 . S
C1287 C1286 1.386 . S
C1287 C1288 1.406 1_556 S
C1287 C1295 1.493 1_556 S
C1288 C1287 1.406 1_554 S
C1288 C1289 1.392 1_554 S
C1288 C1291 1.511 . S
C1289 C1285 1.376 . S
C1289 C1288 1.392 1_556 S
C1289 H1301 0.929 1_455 S
C1290 C1286 1.531 . S
C1290 H1302 0.960 . S
C1290 H1303 0.962 . S
C1290 H1304 0.960 . S
C1291 C1288 1.511 . S
C1291 H1305 0.961 . S
C1291 H1306 0.961 . S
C1291 H1307 0.961 . S
C1292 C1293 1.370 . S
C1292 C1294 1.363 1_554 S
C1292 H1308 0.931 1_554 S
C1293 C1292 1.370 . S
C1293 C1297 1.408 . S
C1294 C1292 1.363 1_556 S
C1294 C1295 1.370 1_556 S
C1294 C1298 1.524 . S
C1295 C1287 1.493 1_554 S
C1295 C1294 1.370 1_554 S
C1295 C1296 1.403 . S
C1296 C1295 1.403 . S
C1296 C1297 1.404 . S
C1296 C1299 1.539 . S
C1297 C1293 1.408 . S
C1297 C1296 1.404 . S
C1297 H1309 0.930 . S
C1298 C1294 1.524 . S
C1298 H1310 0.956 . S
C1298 H1311 0.961 . S
C1298 H1312 0.961 . S
C1299 C1296 1.539 . S
C1299 H1313 0.958 . S
C1299 H1314 0.961 . S
C1299 H1315 0.960 . S
H1300 C1284 0.931 . S
H1301 C1289 0.929 1_655 S
H1302 C1290 0.960 . S
H1303 C1290 0.962 . S
H1304 C1290 0.960 . S
H1305 C1291 0.961 . S
H1306 C1291 0.961 . S
H1307 C1291 0.961 . S
H1308 C1292 0.931 1_556 S
H1309 C1297 0.930 . S
H1310 C1298 0.956 . S
H1311 C1298 0.961 . S
H1312 C1298 0.961 . S
H1313 C1299 0.958 . S
H1314 C1299 0.961 . S
H1315 C1299 0.960 . S
C1316 C1317 1.391 . S
C1316 C1318 1.394 . S
C1316 H1332 0.931 1_545 S
C1317 C1316 1.391 . S
C1317 C1321 1.376 . S
C1318 C1316 1.394 . S
C1318 C1319 1.369 . S
C1318 C1322 1.531 . S
C1319 C1318 1.369 . S
C1319 C1320 1.410 . S
C1319 C1327 1.503 . S
C1320 C1319 1.410 . S
C1320 C1321 1.392 . S
C1320 C1323 1.511 . S
C1321 C1317 1.376 . S
C1321 C1320 1.392 . S
C1321 H1333 0.929 . S
C1322 C1318 1.531 . S
C1322 H1334 0.960 . S
C1322 H1335 0.962 . S
C1322 H1336 0.960 . S
C1323 C1320 1.511 . S
C1323 H1337 0.961 . S
C1323 H1338 0.961 . S
C1323 H1339 0.961 . S
C1324 C1325 1.370 . S
C1324 C1326 1.363 . S
C1324 H1340 0.931 . S
C1325 C1324 1.370 . S
C1325 C1329 1.408 . S
C1326 C1324 1.363 . S
C1326 C1327 1.370 . S
C1326 C1330 1.524 . S
C1327 C1319 1.503 . S
C1327 C1326 1.370 . S
C1327 C1328 1.403 . S
C1328 C1327 1.403 . S
C1328 C1329 1.404 . S
C1328 C1331 1.539 . S
C1329 C1325 1.408 . S
C1329 C1328 1.404 . S
C1329 H1341 0.930 1_655 S
C1330 C1326 1.524 . S
C1330 H1342 0.956 . S
C1330 H1343 0.961 . S
C1330 H1344 0.961 . S
C1331 C1328 1.539 . S
C1331 H1345 0.958 . S
C1331 H1346 0.961 . S
C1331 H1347 0.960 . S
H1332 C1316 0.931 1_565 S
H1333 C1321 0.929 . S
H1334 C1322 0.960 . S
H1335 C1322 0.962 . S
H1336 C1322 0.960 . S
H1337 C1323 0.961 . S
H1338 C1323 0.961 . S
H1339 C1323 0.961 . S
H1340 C1324 0.931 . S
H1341 C1329 0.930 1_455 S
H1342 C1330 0.956 . S
H1343 C1330 0.961 . S
H1344 C1330 0.961 . S
H1345 C1331 0.958 . S
H1346 C1331 0.961 . S
H1347 C1331 0.960 . S
C1348 C1349 1.391 . S
C1348 C1350 1.394 . S
C1348 H1364 0.931 . S
C1349 C1348 1.391 . S
C1349 C1353 1.376 . S
C1350 C1348 1.394 . S
C1350 C1351 1.369 . S
C1350 C1354 1.531 . S
C1351 C1350 1.369 . S
C1351 C1352 1.410 . S
C1351 C1359 1.503 . S
C1352 C1351 1.410 . S
C1352 C1353 1.392 . S
C1352 C1355 1.511 . S
C1353 C1349 1.376 . S
C1353 C1352 1.392 . S
C1353 H1365 0.929 . S
C1354 C1350 1.531 . S
C1354 H1366 0.960 . S
C1354 H1367 0.962 . S
C1354 H1368 0.960 . S
C1355 C1352 1.511 . S
C1355 H1369 0.961 . S
C1355 H1370 0.961 . S
C1355 H1371 0.961 . S
C1356 C1357 1.370 . S
C1356 C1358 1.363 . S
C1356 H1372 0.931 . S
C1357 C1356 1.370 . S
C1357 C1361 1.408 . S
C1358 C1356 1.363 . S
C1358 C1359 1.370 . S
C1358 C1362 1.524 . S
C1359 C1351 1.503 . S
C1359 C1358 1.370 . S
C1359 C1360 1.403 . S
C1360 C1359 1.403 . S
C1360 C1361 1.404 . S
C1360 C1363 1.539 . S
C1361 C1357 1.408 . S
C1361 C1360 1.404 . S
C1361 H1373 0.930 1_565 S
C1362 C1358 1.524 . S
C1362 H1374 0.956 . S
C1362 H1375 0.961 . S
C1362 H1376 0.961 . S
C1363 C1360 1.539 . S
C1363 H1377 0.958 . S
C1363 H1378 0.961 . S
C1363 H1379 0.960 . S
H1364 C1348 0.931 . S
H1365 C1353 0.929 . S
H1366 C1354 0.960 . S
H1367 C1354 0.962 . S
H1368 C1354 0.960 . S
H1369 C1355 0.961 . S
H1370 C1355 0.961 . S
H1371 C1355 0.961 . S
H1372 C1356 0.931 . S
H1373 C1361 0.930 1_545 S
H1374 C1362 0.956 . S
H1375 C1362 0.961 . S
H1376 C1362 0.961 . S
H1377 C1363 0.958 . S
H1378 C1363 0.961 . S
H1379 C1363 0.960 . S
C1380 C1381 1.391 . S
C1380 C1382 1.394 1_554 S
C1380 H1396 0.931 1_554 S
C1381 C1380 1.391 . S
C1381 C1385 1.376 . S
C1382 C1380 1.394 1_556 S
C1382 C1383 1.369 1_556 S
C1382 C1386 1.531 . S
C1383 C1382 1.369 1_554 S
C1383 C1384 1.410 . S
C1383 C1391 1.503 1_554 S
C1384 C1383 1.410 . S
C1384 C1385 1.392 . S
C1384 C1387 1.511 . S
C1385 C1381 1.376 . S
C1385 C1384 1.392 . S
C1385 H1397 0.929 . S
C1386 C1382 1.531 . S
C1386 H1398 0.960 . S
C1386 H1399 0.962 . S
C1386 H1400 0.960 . S
C1387 C1384 1.511 . S
C1387 H1401 0.961 . S
C1387 H1402 0.961 . S
C1387 H1403 0.961 . S
C1388 C1389 1.370 . S
C1388 C1390 1.363 . S
C1388 H1404 0.931 . S
C1389 C1388 1.370 . S
C1389 C1393 1.408 . S
C1390 C1388 1.363 . S
C1390 C1391 1.370 . S
C1390 C1394 1.524 . S
C1391 C1383 1.503 1_556 S
C1391 C1390 1.370 . S
C1391 C1392 1.401 1_556 S
C1392 C1391 1.401 1_554 S
C1392 C1393 1.398 1_554 S
C1392 C1395 1.548 . S
C1393 C1389 1.408 . S
C1393 C1392 1.398 1_556 S
C1393 H1405 0.930 1_655 S
C1394 C1390 1.524 . S
C1394 H1406 0.956 . S
C1394 H1407 0.961 . S
C1394 H1408 0.961 . S
C1395 C1392 1.548 . S
C1395 H1409 0.958 . S
C1395 H1410 0.961 . S
C1395 H1411 0.960 . S
H1396 C1380 0.931 1_556 S
H1397 C1385 0.929 . S
H1398 C1386 0.960 . S
H1399 C1386 0.962 . S
H1400 C1386 0.960 . S
H1401 C1387 0.961 . S
H1402 C1387 0.961 . S
H1403 C1387 0.961 . S
H1404 C1388 0.931 . S
H1405 C1393 0.930 1_455 S
H1406 C1394 0.956 . S
H1407 C1394 0.961 . S
H1408 C1394 0.961 . S
H1409 C1395 0.958 . S
H1410 C1395 0.961 . S
H1411 C1395 0.960 . S
C1412 C1413 1.391 . S
C1412 C1414 1.394 . S
C1412 H1428 0.931 . S
C1413 C1412 1.391 . S
C1413 C1417 1.376 . S
C1414 C1412 1.394 . S
C1414 C1415 1.369 . S
C1414 C1418 1.531 . S
C1415 C1414 1.369 . S
C1415 C1416 1.410 . S
C1415 C1423 1.503 . S
C1416 C1415 1.410 . S
C1416 C1417 1.392 . S
C1416 C1419 1.511 . S
C1417 C1413 1.376 . S
C1417 C1416 1.392 . S
C1417 H1429 0.929 . S
C1418 C1414 1.531 . S
C1418 H1430 0.960 . S
C1418 H1431 0.962 . S
C1418 H1432 0.960 . S
C1419 C1416 1.511 . S
C1419 H1433 0.961 . S
C1419 H1434 0.961 . S
C1419 H1435 0.961 . S
C1420 C1421 1.370 . S
C1420 C1422 1.363 . S
C1420 H1436 0.931 . S
C1421 C1420 1.370 . S
C1421 C1425 1.408 . S
C1422 C1420 1.363 . S
C1422 C1423 1.370 . S
C1422 C1426 1.524 . S
C1423 C1415 1.503 . S
C1423 C1422 1.370 . S
C1423 C1424 1.403 . S
C1424 C1423 1.403 . S
C1424 C1425 1.404 . S
C1424 C1427 1.539 . S
C1425 C1421 1.408 . S
C1425 C1424 1.404 . S
C1425 H1437 0.930 . S
C1426 C1422 1.524 . S
C1426 H1438 0.956 . S
C1426 H1439 0.961 . S
C1426 H1440 0.961 . S
C1427 C1424 1.539 . S
C1427 H1441 0.958 . S
C1427 H1442 0.961 . S
C1427 H1443 0.960 . S
H1428 C1412 0.931 . S
H1429 C1417 0.929 . S
H1430 C1418 0.960 . S
H1431 C1418 0.962 . S
H1432 C1418 0.960 . S
H1433 C1419 0.961 . S
H1434 C1419 0.961 . S
H1435 C1419 0.961 . S
H1436 C1420 0.931 . S
H1437 C1425 0.930 . S
H1438 C1426 0.956 . S
H1439 C1426 0.961 . S
H1440 C1426 0.961 . S
H1441 C1427 0.958 . S
H1442 C1427 0.961 . S
H1443 C1427 0.960 . S
C1444 C1445 1.391 . S
C1444 C1446 1.394 . S
C1444 H1460 0.931 . S
C1445 C1444 1.391 . S
C1445 C1449 1.376 . S
C1446 C1444 1.394 . S
C1446 C1447 1.369 . S
C1446 C1450 1.531 . S
C1447 C1446 1.369 . S
C1447 C1448 1.410 . S
C1447 C1455 1.503 . S
C1448 C1447 1.410 . S
C1448 C1449 1.392 . S
C1448 C1451 1.511 . S
C1449 C1445 1.376 . S
C1449 C1448 1.392 . S
C1449 H1461 0.929 . S
C1450 C1446 1.531 . S
C1450 H1462 0.960 . S
C1450 H1463 0.962 . S
C1450 H1464 0.960 . S
C1451 C1448 1.511 . S
C1451 H1465 0.961 . S
C1451 H1466 0.961 . S
C1451 H1467 0.961 . S
C1452 C1453 1.370 . S
C1452 C1454 1.363 . S
C1452 H1468 0.931 . S
C1453 C1452 1.370 . S
C1453 C1457 1.408 . S
C1454 C1452 1.363 . S
C1454 C1455 1.370 . S
C1454 C1458 1.524 . S
C1455 C1447 1.503 . S
C1455 C1454 1.370 . S
C1455 C1456 1.403 . S
C1456 C1455 1.403 . S
C1456 C1457 1.404 . S
C1456 C1459 1.539 . S
C1457 C1453 1.408 . S
C1457 C1456 1.404 . S
C1457 H1469 0.930 . S
C1458 C1454 1.524 . S
C1458 H1470 0.956 . S
C1458 H1471 0.961 . S
C1458 H1472 0.961 . S
C1459 C1456 1.539 . S
C1459 H1473 0.958 . S
C1459 H1474 0.961 . S
C1459 H1475 0.960 . S
H1460 C1444 0.931 . S
H1461 C1449 0.929 . S
H1462 C1450 0.960 . S
H1463 C1450 0.962 . S
H1464 C1450 0.960 . S
H1465 C1451 0.961 . S
H1466 C1451 0.961 . S
H1467 C1451 0.961 . S
H1468 C1452 0.931 . S
H1469 C1457 0.930 . S
H1470 C1458 0.956 . S
H1471 C1458 0.961 . S
H1472 C1458 0.961 . S
H1473 C1459 0.958 . S
H1474 C1459 0.961 . S
H1475 C1459 0.960 . S
C709 C180 1.344 . S
C717 C3 1.348 . S
C741 C62 1.361 . S
C749 C239 1.339 . S
C773 C298 1.329 . S
C781 C121 1.353 . S
C805 C357 1.321 . S
C813 C534 1.350 . S
C837 C593 1.358 . S
C845 C416 1.341 . S
C869 C475 1.363 . S
C877 C652 1.336 . S
C901 C477 1.635 . S
C909 C5 1.644 . S
C933 C64 1.648 . S
C941 C536 1.649 . S
C965 C123 1.634 . S
C973 C595 1.645 . S
C997 C182 1.634 . S
C1005 C654 1.645 . S
C1029 C359 1.637 . S
C1037 C241 1.643 . S
C1061 C418 1.647 . S
C1069 C300 1.649 . S
C1093 C446 1.581 . S
C1101 C33 1.588 . S
C1125 C92 1.583 . S
C1133 C505 1.589 . S
C1157 C151 1.594 . S
C1165 C564 1.593 . S
C1189 C210 1.590 . S
C1197 C623 1.592 . S
C1221 C682 1.579 . S
C1229 C269 1.587 . S
C1253 C328 1.592 . S
C1261 C387 1.593 . S
C1285 C642 1.500 1_455 S
C1293 C52 1.488 . S
C1317 C701 1.477 1_545 S
C1325 C111 1.498 1_655 S
C1349 C406 1.478 . S
C1357 C170 1.497 1_565 S
C1381 C229 1.482 . S
C1389 C465 1.495 1_655 S
C1413 C288 1.491 1_455 S
C1421 C524 1.491 1_565 S
C1445 C347 1.484 1_545 S
C1453 C583 1.495 . S
