# Generated by pormake.
# Topology tzs, (4)-cn, num edge types: 1
# Building blocks:
#     Node 0, Type 0, BuildingBlock: QUQFOY_clean_sbu_1, # of connection points: 4
#     Node 1, Type 0, BuildingBlock: QUQFOY_clean_sbu_1, # of connection points: 4
#     Node 2, Type 0, BuildingBlock: QUQFOY_clean_sbu_1, # of connection points: 4
#     Node 3, Type 0, BuildingBlock: QUQFOY_clean_sbu_1, # of connection points: 4
#     Node 4, Type 0, BuildingBlock: QUQFOY_clean_sbu_1, # of connection points: 4
#     Node 5, Type 0, BuildingBlock: QUQFOY_clean_sbu_1, # of connection points: 4
#     Node 6, Type 0, BuildingBlock: QUQFOY_clean_sbu_1, # of connection points: 4
#     Node 7, Type 0, BuildingBlock: QUQFOY_clean_sbu_1, # of connection points: 4
#     Node 8, Type 0, BuildingBlock: QUQFOY_clean_sbu_1, # of connection points: 4
#     Node 9, Type 0, BuildingBlock: QUQFOY_clean_sbu_1, # of connection points: 4
#     Node 10, Type 0, BuildingBlock: QUQFOY_clean_sbu_1, # of connection points: 4
#     Node 11, Type 0, BuildingBlock: QUQFOY_clean_sbu_1, # of connection points: 4
#     Node 12, Type 0, BuildingBlock: QUQFOY_clean_sbu_1, # of connection points: 4
#     Node 13, Type 0, BuildingBlock: QUQFOY_clean_sbu_1, # of connection points: 4
#     Node 14, Type 0, BuildingBlock: QUQFOY_clean_sbu_1, # of connection points: 4
#     Node 15, Type 0, BuildingBlock: QUQFOY_clean_sbu_1, # of connection points: 4
#     Edge 16, Type (0, 0), BuildingBlock: XUDNAN_clean_linker_2, # of connection points: 2
#     Edge 17, Type (0, 0), BuildingBlock: XUDNAN_clean_linker_2, # of connection points: 2
#     Edge 18, Type (0, 0), BuildingBlock: XUDNAN_clean_linker_2, # of connection points: 2
#     Edge 19, Type (0, 0), BuildingBlock: XUDNAN_clean_linker_2, # of connection points: 2
#     Edge 20, Type (0, 0), BuildingBlock: XUDNAN_clean_linker_2, # of connection points: 2
#     Edge 21, Type (0, 0), BuildingBlock: XUDNAN_clean_linker_2, # of connection points: 2
#     Edge 22, Type (0, 0), BuildingBlock: XUDNAN_clean_linker_2, # of connection points: 2
#     Edge 23, Type (0, 0), BuildingBlock: XUDNAN_clean_linker_2, # of connection points: 2
#     Edge 24, Type (0, 0), BuildingBlock: XUDNAN_clean_linker_2, # of connection points: 2
#     Edge 25, Type (0, 0), BuildingBlock: XUDNAN_clean_linker_2, # of connection points: 2
#     Edge 26, Type (0, 0), BuildingBlock: XUDNAN_clean_linker_2, # of connection points: 2
#     Edge 27, Type (0, 0), BuildingBlock: XUDNAN_clean_linker_2, # of connection points: 2
#     Edge 28, Type (0, 0), BuildingBlock: XUDNAN_clean_linker_2, # of connection points: 2
#     Edge 29, Type (0, 0), BuildingBlock: XUDNAN_clean_linker_2, # of connection points: 2
#     Edge 30, Type (0, 0), BuildingBlock: XUDNAN_clean_linker_2, # of connection points: 2
#     Edge 31, Type (0, 0), BuildingBlock: XUDNAN_clean_linker_2, # of connection points: 2
#     Edge 32, Type (0, 0), BuildingBlock: XUDNAN_clean_linker_2, # of connection points: 2
#     Edge 33, Type (0, 0), BuildingBlock: XUDNAN_clean_linker_2, # of connection points: 2
#     Edge 34, Type (0, 0), BuildingBlock: XUDNAN_clean_linker_2, # of connection points: 2
#     Edge 35, Type (0, 0), BuildingBlock: XUDNAN_clean_linker_2, # of connection points: 2
#     Edge 36, Type (0, 0), BuildingBlock: XUDNAN_clean_linker_2, # of connection points: 2
#     Edge 37, Type (0, 0), BuildingBlock: XUDNAN_clean_linker_2, # of connection points: 2
#     Edge 38, Type (0, 0), BuildingBlock: XUDNAN_clean_linker_2, # of connection points: 2
#     Edge 39, Type (0, 0), BuildingBlock: XUDNAN_clean_linker_2, # of connection points: 2
#     Edge 40, Type (0, 0), BuildingBlock: XUDNAN_clean_linker_2, # of connection points: 2
#     Edge 41, Type (0, 0), BuildingBlock: XUDNAN_clean_linker_2, # of connection points: 2
#     Edge 42, Type (0, 0), BuildingBlock: XUDNAN_clean_linker_2, # of connection points: 2
#     Edge 43, Type (0, 0), BuildingBlock: XUDNAN_clean_linker_2, # of connection points: 2
#     Edge 44, Type (0, 0), BuildingBlock: XUDNAN_clean_linker_2, # of connection points: 2
#     Edge 45, Type (0, 0), BuildingBlock: XUDNAN_clean_linker_2, # of connection points: 2
#     Edge 46, Type (0, 0), BuildingBlock: XUDNAN_clean_linker_2, # of connection points: 2
#     Edge 47, Type (0, 0), BuildingBlock: XUDNAN_clean_linker_2, # of connection points: 2
# Relax obj value: 0.146
# Max RMSD: 0.160
# Mean RMSD: 0.160
data_MOF--net-tzs--node1-QUQFOY_clean_sbu_1--edge1-XUDNAN_clean_linker_2
_symmetry_space_group_name_H-M    P1
_symmetry_Int_Tables_number       1
_symmetry_cell_setting            triclinic
loop_
_symmetry_equiv_pos_as_xyz
'x, y, z'
_cell_length_a     48.555538
_cell_length_b     48.540009
_cell_length_c     45.287132
_cell_angle_alpha  89.995996
_cell_angle_beta   90.020445
_cell_angle_gamma 90.028893
loop_
_atom_site_label
_atom_site_type_symbol
_atom_site_fract_x
_atom_site_fract_y
_atom_site_fract_z
_atom_type_partial_charge
O0 O 0.15345 0.38881 0.22188 0.0
Cd1 Cd 0.13713 0.35083 0.21155 0.0
Cd2 Cd 0.1287 0.37825 0.15854 0.0
O3 O 0.15384 0.40754 0.17752 0.0
O4 O 0.147 0.32937 0.24741 0.0
O5 O 0.16219 0.31871 0.20291 0.0
C6 C 0.16184 0.31374 0.23092 0.0
C7 C 0.13631 0.36754 0.10868 0.0
C8 C 0.15975 0.4086 0.20482 0.0
C9 C 0.07906 0.3625 0.19537 0.0
O10 O 0.08861 0.37699 0.17432 0.0
O11 O 0.09498 0.34796 0.2112 0.0
O12 O 0.1249 0.39032 0.11662 0.0
O13 O 0.14344 0.35048 0.12921 0.0
O14 O 0.60488 0.163 0.2329 0.0
Cd15 Cd 0.64535 0.15136 0.23241 0.0
Cd16 Cd 0.62725 0.13081 0.17008 0.0
O17 O 0.59271 0.14989 0.18787 0.0
O18 O 0.66061 0.16717 0.26949 0.0
O19 O 0.67597 0.17847 0.22517 0.0
C20 C 0.67756 0.18109 0.25351 0.0
C21 C 0.62282 0.12302 0.11881 0.0
C22 C 0.58696 0.16088 0.21262 0.0
C23 C 0.65364 0.09192 0.21666 0.0
O24 O 0.64531 0.0971 0.19063 0.0
O25 O 0.65398 0.11037 0.23647 0.0
O26 O 0.60845 0.10996 0.13802 0.0
O27 O 0.63995 0.14124 0.12847 0.0
O28 O 0.82597 0.60291 0.21542 0.0
Cd29 Cd 0.84141 0.63986 0.2002 0.0
Cd30 Cd 0.86433 0.60553 0.16078 0.0
O31 O 0.84099 0.57521 0.18045 0.0
O32 O 0.82208 0.66623 0.22642 0.0
O33 O 0.81656 0.66586 0.17801 0.0
C34 C 0.81031 0.67626 0.20337 0.0
C35 C 0.85754 0.61719 0.11139 0.0
C36 C 0.82734 0.57904 0.20403 0.0
C37 C 0.90305 0.63579 0.20007 0.0
O38 O 0.90069 0.61602 0.18184 0.0
O39 O 0.88204 0.64922 0.20843 0.0
O40 O 0.87188 0.59586 0.11878 0.0
O41 O 0.84692 0.63195 0.13226 0.0
O42 O 0.3827 0.83034 0.20969 0.0
Cd43 Cd 0.34271 0.84363 0.20548 0.0
Cd44 Cd 0.36426 0.8763 0.16354 0.0
O45 O 0.40076 0.86362 0.18273 0.0
O46 O 0.3224 0.8185 0.23231 0.0
O47 O 0.31362 0.8214 0.18453 0.0
C48 C 0.30798 0.81076 0.20996 0.0
C49 C 0.35782 0.86952 0.11298 0.0
C50 C 0.40357 0.84329 0.20016 0.0
C51 C 0.33418 0.90514 0.2109 0.0
O52 O 0.34404 0.90769 0.18506 0.0
O53 O 0.33316 0.8816 0.22311 0.0
O54 O 0.37305 0.88926 0.12288 0.0
O55 O 0.34594 0.85358 0.13199 0.0
O56 O 0.15611 0.60591 0.29028 0.0
Cd57 Cd 0.14112 0.64471 0.29964 0.0
Cd58 Cd 0.11685 0.60847 0.34697 0.0
O59 O 0.14178 0.57965 0.32705 0.0
O60 O 0.15284 0.66295 0.26236 0.0
O61 O 0.1685 0.67581 0.30584 0.0
C62 C 0.16845 0.67888 0.27755 0.0
C63 C 0.11284 0.60701 0.3987 0.0
C64 C 0.15525 0.58271 0.30323 0.0
C65 C 0.07898 0.63912 0.30536 0.0
O66 O 0.08182 0.61978 0.324 0.0
O67 O 0.09958 0.65254 0.29585 0.0
O68 O 0.10149 0.58885 0.38193 0.0
O69 O 0.12702 0.62623 0.38614 0.0
O70 O 0.37693 0.16208 0.27268 0.0
Cd71 Cd 0.33937 0.14787 0.28631 0.0
Cd72 Cd 0.37021 0.12825 0.33596 0.0
O73 O 0.40082 0.14676 0.31074 0.0
O74 O 0.31237 0.16724 0.26087 0.0
O75 O 0.3134 0.17157 0.30955 0.0
C76 C 0.30227 0.17796 0.28453 0.0
C77 C 0.37897 0.12792 0.38706 0.0
C78 C 0.39972 0.15912 0.286 0.0
C79 C 0.33787 0.08751 0.29781 0.0
O80 O 0.35195 0.09225 0.32093 0.0
O81 O 0.33137 0.10686 0.28033 0.0
O82 O 0.393 0.11335 0.36878 0.0
O83 O 0.35965 0.14323 0.37642 0.0
O84 O 0.83106 0.38912 0.29533 0.0
Cd85 Cd 0.84898 0.35289 0.30936 0.0
Cd86 Cd 0.86582 0.38712 0.35299 0.0
O87 O 0.8351 0.41223 0.33697 0.0
O88 O 0.83045 0.32474 0.28457 0.0
O89 O 0.82714 0.32564 0.33327 0.0
C90 C 0.82026 0.3145 0.30842 0.0
C91 C 0.87287 0.38731 0.40438 0.0
C92 C 0.82589 0.41031 0.3108 0.0
C93 C 0.90717 0.36714 0.30736 0.0
O94 O 0.9007 0.38514 0.32652 0.0
O95 O 0.89007 0.3487 0.29978 0.0
O96 O 0.87981 0.40778 0.38794 0.0
O97 O 0.86164 0.36629 0.39172 0.0
O98 O 0.60251 0.83177 0.28764 0.0
Cd99 Cd 0.64324 0.8434 0.28962 0.0
Cd100 Cd 0.62125 0.87335 0.33884 0.0
O101 O 0.58468 0.86134 0.31944 0.0
O102 O 0.6561 0.82619 0.25228 0.0
O103 O 0.67337 0.81513 0.29568 0.0
C104 C 0.67329 0.8119 0.2674 0.0
C105 C 0.62752 0.8648 0.38918 0.0
C106 C 0.58178 0.84287 0.29982 0.0
C107 C 0.65218 0.9059 0.29445 0.0
O108 O 0.64101 0.90633 0.3198 0.0
O109 O 0.65382 0.88356 0.27996 0.0
O110 O 0.61196 0.88453 0.37997 0.0
O111 O 0.63977 0.84976 0.36962 0.0
O112 O 0.89196 0.65708 0.7845 0.0
Cd113 Cd 0.85049 0.65065 0.7855 0.0
Cd114 Cd 0.86448 0.62853 0.84379 0.0
O115 O 0.90309 0.64029 0.82833 0.0
O116 O 0.83823 0.66829 0.74816 0.0
O117 O 0.82324 0.68128 0.79207 0.0
C118 C 0.82276 0.68416 0.76372 0.0
C119 C 0.85746 0.63368 0.89488 0.0
C120 C 0.90991 0.6512 0.80384 0.0
C121 C 0.83637 0.59164 0.79834 0.0
O122 O 0.84495 0.59487 0.82466 0.0
O123 O 0.83752 0.61108 0.7797 0.0
O124 O 0.87294 0.61458 0.88428 0.0
O125 O 0.84577 0.65021 0.87638 0.0
O126 O 0.33939 0.88357 0.78768 0.0
Cd127 Cd 0.35302 0.84518 0.80053 0.0
Cd128 Cd 0.37294 0.88053 0.84605 0.0
O129 O 0.35122 0.9108 0.82452 0.0
O130 O 0.34229 0.82529 0.76395 0.0
O131 O 0.32492 0.81497 0.80749 0.0
C132 C 0.32577 0.81054 0.77941 0.0
C133 C 0.3645 0.87191 0.89591 0.0
C134 C 0.33969 0.90722 0.79965 0.0
C135 C 0.41452 0.85011 0.81016 0.0
O136 O 0.41051 0.87002 0.82785 0.0
O137 O 0.3945 0.83655 0.79952 0.0
O138 O 0.37924 0.89263 0.88754 0.0
O139 O 0.35445 0.85592 0.87575 0.0
O140 O 0.10457 0.33493 0.78614 0.0
Cd141 Cd 0.14652 0.33856 0.78747 0.0
Cd142 Cd 0.13261 0.36784 0.84126 0.0
O143 O 0.09356 0.35628 0.82764 0.0
O144 O 0.1564 0.31915 0.75035 0.0
O145 O 0.17181 0.30617 0.79402 0.0
C146 C 0.17134 0.30271 0.76576 0.0
C147 C 0.14163 0.36214 0.89177 0.0
C148 C 0.08664 0.3434 0.80435 0.0
C149 C 0.16291 0.39863 0.79322 0.0
O150 O 0.15204 0.39975 0.81876 0.0
O151 O 0.16281 0.37637 0.7786 0.0
O152 O 0.12682 0.38221 0.88205 0.0
O153 O 0.15196 0.34535 0.87261 0.0
O154 O 0.65429 0.10782 0.79376 0.0
Cd155 Cd 0.64077 0.14381 0.81301 0.0
Cd156 Cd 0.61808 0.10612 0.85056 0.0
O157 O 0.64195 0.07813 0.82804 0.0
O158 O 0.65953 0.17081 0.78718 0.0
O159 O 0.66746 0.16811 0.83511 0.0
C160 C 0.67278 0.17943 0.80994 0.0
C161 C 0.61755 0.10462 0.90216 0.0
C162 C 0.65386 0.08339 0.80373 0.0
C163 C 0.57965 0.14014 0.81373 0.0
O164 O 0.58245 0.11865 0.82946 0.0
O165 O 0.60033 0.15479 0.807 0.0
O166 O 0.60511 0.08638 0.88634 0.0
O167 O 0.63075 0.12396 0.88858 0.0
O168 O 0.87842 0.34003 0.7324 0.0
Cd169 Cd 0.83815 0.34762 0.72193 0.0
Cd170 Cd 0.8698 0.37715 0.67329 0.0
O171 O 0.90224 0.36042 0.69701 0.0
O172 O 0.82237 0.33337 0.75943 0.0
O173 O 0.81104 0.31625 0.71611 0.0
C174 C 0.80835 0.31591 0.74444 0.0
C175 C 0.87578 0.38034 0.62179 0.0
C176 C 0.90128 0.34651 0.72078 0.0
C177 C 0.83121 0.40949 0.71345 0.0
O178 O 0.84875 0.40965 0.69259 0.0
O179 O 0.82436 0.38718 0.72602 0.0
O180 O 0.88909 0.39577 0.63996 0.0
O181 O 0.85886 0.36257 0.63279 0.0
O182 O 0.65931 0.8913 0.71202 0.0
Cd183 Cd 0.64864 0.85168 0.7004 0.0
Cd184 Cd 0.62341 0.8781 0.65619 0.0
O185 O 0.64495 0.91178 0.6714 0.0
O186 O 0.67203 0.82887 0.7266 0.0
O187 O 0.67504 0.8277 0.67788 0.0
C188 C 0.68355 0.81904 0.70326 0.0
C189 C 0.62739 0.86687 0.60625 0.0
C190 C 0.65706 0.91278 0.69623 0.0
C191 C 0.58755 0.84951 0.70048 0.0
O192 O 0.58838 0.86708 0.67967 0.0
O193 O 0.60952 0.83883 0.71038 0.0
O194 O 0.61191 0.88685 0.61503 0.0
O195 O 0.64045 0.85283 0.62607 0.0
O196 O 0.11743 0.65064 0.72925 0.0
Cd197 Cd 0.15538 0.63971 0.71424 0.0
Cd198 Cd 0.12371 0.61564 0.66754 0.0
O199 O 0.0924 0.63202 0.69374 0.0
O200 O 0.18017 0.66079 0.74062 0.0
O201 O 0.17978 0.66603 0.6921 0.0
C202 C 0.18977 0.67287 0.71751 0.0
C203 C 0.11531 0.6141 0.61628 0.0
C204 C 0.09415 0.64517 0.71801 0.0
C205 C 0.16074 0.57924 0.70569 0.0
O206 O 0.14519 0.58166 0.68325 0.0
O207 O 0.16677 0.59986 0.72157 0.0
O208 O 0.10233 0.59864 0.63466 0.0
O209 O 0.13308 0.6312 0.62695 0.0
O210 O 0.33883 0.10109 0.7111 0.0
Cd211 Cd 0.3484 0.14058 0.69802 0.0
Cd212 Cd 0.37469 0.11192 0.65473 0.0
O213 O 0.35053 0.08002 0.66986 0.0
O214 O 0.32495 0.1628 0.7246 0.0
O215 O 0.32049 0.16332 0.67601 0.0
C216 C 0.31231 0.17181 0.70157 0.0
C217 C 0.38109 0.11537 0.60362 0.0
C218 C 0.3395 0.07954 0.69526 0.0
C219 C 0.40884 0.14249 0.69978 0.0
O220 O 0.40796 0.12319 0.68085 0.0
O221 O 0.38706 0.15493 0.70746 0.0
O222 O 0.39304 0.09663 0.61912 0.0
O223 O 0.36498 0.13238 0.61712 0.0
H224 H 0.27924 0.19945 0.23459 0.0
H225 H 0.27239 0.20004 0.33018 0.0
H226 H 0.23349 0.23275 0.32653 0.0
H227 H 0.26664 0.27047 0.22413 0.0
H228 H 0.24739 0.26598 0.19043 0.0
H229 H 0.27337 0.2413 0.20058 0.0
H230 H 0.23734 0.20199 0.19718 0.0
H231 H 0.2112 0.22659 0.18707 0.0
H232 H 0.20602 0.20428 0.2184 0.0
H233 H 0.19655 0.26643 0.31244 0.0
H234 H 0.16547 0.30026 0.28932 0.0
H235 H 0.19712 0.27808 0.20285 0.0
C236 C 0.26943 0.20624 0.25479 0.0
C237 C 0.27875 0.19714 0.28269 0.0
C238 C 0.26555 0.20675 0.30858 0.0
C239 C 0.2434 0.22522 0.30671 0.0
C240 C 0.23481 0.23384 0.27882 0.0
C241 C 0.24746 0.22472 0.25333 0.0
C242 C 0.23516 0.23807 0.22615 0.0
C243 C 0.25694 0.25496 0.20935 0.0
C244 C 0.22163 0.21644 0.20602 0.0
C245 C 0.21383 0.25649 0.24034 0.0
C246 C 0.21377 0.25351 0.27071 0.0
C247 C 0.19632 0.26884 0.28868 0.0
C248 C 0.17874 0.28801 0.2753 0.0
C249 C 0.17886 0.2918 0.24426 0.0
C250 C 0.19644 0.27555 0.2266 0.0
H251 H 0.80098 0.28913 0.25873 0.0
H252 H 0.79351 0.28887 0.35427 0.0
H253 H 0.75706 0.2534 0.35066 0.0
H254 H 0.73029 0.28348 0.24312 0.0
H255 H 0.73464 0.26143 0.21144 0.0
H256 H 0.76151 0.28515 0.22164 0.0
H257 H 0.7965 0.24494 0.22449 0.0
H258 H 0.76978 0.22108 0.21405 0.0
H259 H 0.78905 0.21561 0.24757 0.0
H260 H 0.71975 0.21995 0.33628 0.0
H261 H 0.68508 0.19013 0.31253 0.0
H262 H 0.71698 0.21279 0.2263 0.0
C263 C 0.79199 0.28139 0.27898 0.0
C264 C 0.80014 0.2917 0.30682 0.0
C265 C 0.78766 0.28117 0.33272 0.0
C266 C 0.76694 0.26106 0.33088 0.0
C267 C 0.75907 0.25172 0.303 0.0
C268 C 0.77132 0.26143 0.27753 0.0
C269 C 0.7585 0.24881 0.25022 0.0
C270 C 0.74546 0.27105 0.23045 0.0
C271 C 0.77973 0.23158 0.23308 0.0
C272 C 0.73679 0.23072 0.26426 0.0
C273 C 0.73753 0.23259 0.29472 0.0
C274 C 0.71909 0.21819 0.31247 0.0
C275 C 0.69943 0.20136 0.29874 0.0
C276 C 0.69832 0.19912 0.26754 0.0
C277 C 0.71731 0.21403 0.25018 0.0
H278 H 0.79344 0.70089 0.25439 0.0
H279 H 0.78028 0.70125 0.15953 0.0
H280 H 0.74411 0.73668 0.16567 0.0
H281 H 0.72335 0.70746 0.27506 0.0
H282 H 0.73021 0.7295 0.30624 0.0
H283 H 0.75581 0.70513 0.29424 0.0
H284 H 0.79146 0.74457 0.28879 0.0
H285 H 0.76601 0.76907 0.30093 0.0
H286 H 0.78328 0.77397 0.2661 0.0
H287 H 0.70858 0.77076 0.18244 0.0
H288 H 0.67662 0.80192 0.20825 0.0
H289 H 0.7131 0.77898 0.29231 0.0
C290 C 0.78313 0.70853 0.23482 0.0
C291 C 0.78967 0.69836 0.20644 0.0
C292 C 0.77562 0.70882 0.18146 0.0
C293 C 0.75507 0.7289 0.18474 0.0
C294 C 0.74895 0.73823 0.21312 0.0
C295 C 0.76264 0.72847 0.2377 0.0
C296 C 0.75187 0.74146 0.26579 0.0
C297 C 0.73958 0.71958 0.28655 0.0
C298 C 0.7745 0.75827 0.28131 0.0
C299 C 0.72975 0.75996 0.25322 0.0
C300 C 0.72846 0.75782 0.2228 0.0
C301 C 0.70946 0.77268 0.20623 0.0
C302 C 0.69137 0.7903 0.22114 0.0
C303 C 0.69237 0.79288 0.25232 0.0
C304 C 0.71184 0.77745 0.26849 0.0
H305 H 0.29164 0.78637 0.26138 0.0
H306 H 0.27304 0.7902 0.16766 0.0
H307 H 0.23447 0.75762 0.17514 0.0
H308 H 0.27736 0.71447 0.27095 0.0
H309 H 0.26251 0.71886 0.30712 0.0
H310 H 0.28847 0.74248 0.29425 0.0
H311 H 0.25541 0.78343 0.30383 0.0
H312 H 0.22928 0.75993 0.31659 0.0
H313 H 0.22179 0.78352 0.28691 0.0
H314 H 0.19833 0.72459 0.19289 0.0
H315 H 0.1675 0.69262 0.21921 0.0
H316 H 0.20959 0.71082 0.30156 0.0
C317 C 0.27952 0.78036 0.24236 0.0
C318 C 0.28533 0.7908 0.2139 0.0
C319 C 0.26895 0.78242 0.18964 0.0
C320 C 0.247 0.76399 0.19369 0.0
C321 C 0.24177 0.75424 0.22211 0.0
C322 C 0.25759 0.76209 0.24601 0.0
C323 C 0.2478 0.74852 0.27423 0.0
C324 C 0.27038 0.72998 0.2874 0.0
C325 C 0.23799 0.77014 0.29671 0.0
C326 C 0.22398 0.73169 0.26249 0.0
C327 C 0.22085 0.73533 0.23238 0.0
C328 C 0.20055 0.72162 0.21646 0.0
C329 C 0.18314 0.70351 0.23164 0.0
C330 C 0.18612 0.69927 0.26247 0.0
C331 C 0.20669 0.71377 0.27806 0.0
H332 H 0.70382 0.79657 0.75401 0.0
H333 H 0.71378 0.7954 0.65873 0.0
H334 H 0.75146 0.76144 0.66398 0.0
H335 H 0.77556 0.79117 0.77254 0.0
H336 H 0.76953 0.76927 0.80403 0.0
H337 H 0.74364 0.79364 0.7927 0.0
H338 H 0.70782 0.75419 0.78864 0.0
H339 H 0.73356 0.72972 0.80003 0.0
H340 H 0.71531 0.72473 0.76578 0.0
H341 H 0.78762 0.72741 0.67979 0.0
H342 H 0.81914 0.69507 0.70468 0.0
H343 H 0.78519 0.71876 0.78967 0.0
C344 C 0.71391 0.78925 0.73419 0.0
C345 C 0.70591 0.79863 0.70594 0.0
C346 C 0.7196 0.78846 0.68059 0.0
C347 C 0.74102 0.76923 0.68336 0.0
C348 C 0.74839 0.76047 0.7116 0.0
C349 C 0.73522 0.77011 0.73655 0.0
C350 C 0.74675 0.75719 0.76434 0.0
C351 C 0.75964 0.77913 0.78459 0.0
C352 C 0.72454 0.74046 0.78064 0.0
C353 C 0.76849 0.73864 0.75113 0.0
C354 C 0.76916 0.74089 0.7207 0.0
C355 C 0.78732 0.72552 0.7036 0.0
C356 C 0.80514 0.70721 0.71797 0.0
C357 C 0.80463 0.70442 0.74914 0.0
C358 C 0.78614 0.72051 0.76585 0.0
H359 H 0.20943 0.69522 0.76858 0.0
H360 H 0.21913 0.69803 0.67331 0.0
H361 H 0.25592 0.73293 0.67902 0.0
H362 H 0.2189 0.76738 0.78116 0.0
H363 H 0.23724 0.76258 0.81539 0.0
H364 H 0.21217 0.7375 0.80369 0.0
H365 H 0.24902 0.69904 0.80741 0.0
H366 H 0.27424 0.72401 0.81904 0.0
H367 H 0.28089 0.70257 0.78734 0.0
H368 H 0.29151 0.76716 0.69526 0.0
H369 H 0.3224 0.79986 0.72043 0.0
H370 H 0.28872 0.77507 0.80522 0.0
C371 C 0.21932 0.70308 0.74887 0.0
C372 C 0.21153 0.69387 0.72047 0.0
C373 C 0.22481 0.70483 0.69526 0.0
C374 C 0.24573 0.72457 0.6983 0.0
C375 C 0.25294 0.73312 0.72667 0.0
C376 C 0.24004 0.72283 0.75149 0.0
C377 C 0.25119 0.73581 0.77944 0.0
C378 C 0.22852 0.75177 0.79588 0.0
C379 C 0.26464 0.71405 0.79948 0.0
C380 C 0.27245 0.75509 0.76647 0.0
C381 C 0.2732 0.7531 0.73602 0.0
C382 C 0.29111 0.7689 0.71908 0.0
C383 C 0.30859 0.78739 0.73363 0.0
C384 C 0.30795 0.79001 0.76482 0.0
C385 C 0.2897 0.77351 0.78139 0.0
H386 H 0.2098 0.2686 0.79086 0.0
H387 H 0.1717 0.28976 0.70711 0.0
H388 H 0.20273 0.25748 0.68146 0.0
H389 H 0.27784 0.26475 0.76429 0.0
H390 H 0.28765 0.236 0.78718 0.0
H391 H 0.26111 0.25925 0.79934 0.0
H392 H 0.22722 0.21833 0.80528 0.0
H393 H 0.25374 0.1949 0.79336 0.0
H394 H 0.22108 0.19565 0.77444 0.0
H395 H 0.23977 0.22492 0.6645 0.0
H396 H 0.27919 0.19317 0.65801 0.0
H397 H 0.29268 0.19369 0.75281 0.0
C398 C 0.2077 0.26614 0.76719 0.0
C399 C 0.18833 0.28163 0.75101 0.0
C400 C 0.1864 0.27805 0.72 0.0
C401 C 0.20392 0.25977 0.70519 0.0
C402 C 0.22316 0.24519 0.72173 0.0
C403 C 0.22504 0.24802 0.75206 0.0
C404 C 0.24812 0.23067 0.76451 0.0
C405 C 0.26997 0.24875 0.77972 0.0
C406 C 0.23686 0.20857 0.78564 0.0
C407 C 0.25913 0.21796 0.73641 0.0
C408 C 0.24445 0.22649 0.71196 0.0
C409 C 0.25132 0.21792 0.6835 0.0
C410 C 0.27375 0.19999 0.68002 0.0
C411 C 0.28895 0.19096 0.70488 0.0
C412 C 0.28143 0.20014 0.73335 0.0
H413 H 0.69118 0.20197 0.75855 0.0
H414 H 0.70225 0.20542 0.85364 0.0
H415 H 0.73835 0.24093 0.84708 0.0
H416 H 0.7622 0.20884 0.73956 0.0
H417 H 0.75559 0.22959 0.70733 0.0
H418 H 0.73027 0.20503 0.71964 0.0
H419 H 0.69362 0.24376 0.72245 0.0
H420 H 0.71879 0.26844 0.71006 0.0
H421 H 0.70056 0.2741 0.74419 0.0
H422 H 0.77299 0.27588 0.82994 0.0
H423 H 0.80415 0.30764 0.80379 0.0
H424 H 0.77079 0.28036 0.71973 0.0
C425 C 0.70106 0.21025 0.77808 0.0
C426 C 0.69388 0.20105 0.80665 0.0
C427 C 0.70744 0.21225 0.83157 0.0
C428 C 0.72793 0.23238 0.82805 0.0
C429 C 0.73457 0.24088 0.7995 0.0
C430 C 0.72155 0.23014 0.77496 0.0
C431 C 0.73269 0.24242 0.74666 0.0
C432 C 0.74598 0.22014 0.72716 0.0
C433 C 0.71007 0.25812 0.72986 0.0
C434 C 0.75406 0.26185 0.75908 0.0
C435 C 0.75476 0.26069 0.7896 0.0
C436 C 0.77266 0.27694 0.80608 0.0
C437 C 0.79025 0.29492 0.79098 0.0
C438 C 0.78989 0.29643 0.7597 0.0
C439 C 0.7716 0.27957 0.74362 0.0
H440 H 0.12423 0.39609 0.93609 0.0
H441 H 0.16778 0.31944 0.92036 0.0
H442 H 0.17204 0.31242 0.97437 0.0
H443 H 0.16376 0.41752 0.99986 0.0
H444 H 0.13426 0.43215 0.0182 0.0
H445 H 0.1356 0.43124 0.97847 0.0
H446 H 0.08902 0.40513 0.97732 0.0
H447 H 0.08759 0.40585 0.01703 0.0
H448 H 0.08542 0.37344 0.99774 0.0
H449 H 0.16977 0.3133 0.03082 0.0
H450 H 0.16234 0.32267 0.08402 0.0
H451 H 0.12062 0.39888 0.06149 0.0
C452 C 0.13485 0.37788 0.94391 0.0
C453 C 0.14568 0.3583 0.92397 0.0
C454 C 0.15938 0.33476 0.93522 0.0
C455 C 0.16186 0.33059 0.96585 0.0
C456 C 0.15064 0.35021 0.9849 0.0
C457 C 0.13755 0.37346 0.97427 0.0
C458 C 0.12691 0.39134 0.99913 0.0
C459 C 0.14098 0.41974 0.9989 0.0
C460 C 0.09537 0.39408 0.99771 0.0
C461 C 0.13582 0.37444 0.0255 0.0
C462 C 0.1495 0.35079 0.01697 0.0
C463 C 0.1592 0.33184 0.0377 0.0
C464 C 0.15485 0.3373 0.06786 0.0
C465 C 0.14094 0.36152 0.07697 0.0
C466 C 0.1314 0.38022 0.05535 0.0
H467 H 0.64234 0.1389 0.94325 0.0
H468 H 0.58936 0.06713 0.93498 0.0
H469 H 0.58562 0.06442 0.989 0.0
H470 H 0.67893 0.11544 0.00857 0.0
H471 H 0.68082 0.14917 0.0251 0.0
H472 H 0.67973 0.14571 0.98551 0.0
H473 H 0.6371 0.1777 0.98352 0.0
H474 H 0.63802 0.18123 0.02311 0.0
H475 H 0.6071 0.16928 0.00518 0.0
H476 H 0.58643 0.06948 0.04304 0.0
H477 H 0.59258 0.08143 0.09528 0.0
H478 H 0.64568 0.14969 0.0704 0.0
C479 C 0.63002 0.1226 0.95285 0.0
C480 C 0.61613 0.10323 0.9348 0.0
C481 C 0.60022 0.0822 0.94824 0.0
C482 C 0.59793 0.08047 0.97895 0.0
C483 C 0.61174 0.09985 0.99607 0.0
C484 C 0.62756 0.12047 0.98367 0.0
C485 C 0.64017 0.1386 0.00747 0.0
C486 C 0.67179 0.13713 0.00661 0.0
C487 C 0.62998 0.16847 0.00465 0.0
C488 C 0.62881 0.12492 0.03508 0.0
C489 C 0.61244 0.10265 0.02778 0.0
C490 C 0.59926 0.08682 0.0491 0.0
C491 C 0.60288 0.09386 0.07876 0.0
C492 C 0.61964 0.11651 0.08703 0.0
C493 C 0.63283 0.13222 0.0648 0.0
H494 H 0.87835 0.60014 0.93785 0.0
H495 H 0.82765 0.6728 0.92517 0.0
H496 H 0.8217 0.67661 0.97936 0.0
H497 H 0.83977 0.57153 0.99819 0.0
H498 H 0.86991 0.5588 0.01699 0.0
H499 H 0.86993 0.56199 0.97738 0.0
H500 H 0.91358 0.59266 0.98012 0.0
H501 H 0.91369 0.58958 0.01974 0.0
H502 H 0.91323 0.62318 1.0028 0.0
H503 H 0.82189 0.67237 0.03553 0.0
H504 H 0.82794 0.66039 0.08827 0.0
H505 H 0.87835 0.59041 0.0631 0.0
C506 C 0.86596 0.61689 0.94637 0.0
C507 C 0.85348 0.63621 0.92723 0.0
C508 C 0.83741 0.65776 0.9394 0.0
C509 C 0.83392 0.66008 0.97014 0.0
C510 C 0.84659 0.64065 0.98836 0.0
C511 C 0.86225 0.61946 0.97685 0.0
C512 C 0.87376 0.60122 1.00099 0.0
C513 C 0.86267 0.57164 0.99822 0.0
C514 C 0.90544 0.60171 1.0009 0.0
C515 C 0.86226 0.61548 0.02799 0.0
C516 C 0.84662 0.63818 0.02034 0.0
C517 C 0.83406 0.65461 0.04171 0.0
C518 C 0.83762 0.64765 0.07162 0.0
C519 C 0.8536 0.62446 0.07986 0.0
C520 C 0.86598 0.60825 0.05761 0.0
H521 H 0.37999 0.90045 0.06841 0.0
H522 H 0.32836 0.829 0.08456 0.0
H523 H 0.32389 0.82181 0.03065 0.0
H524 H 0.34351 0.9253 0.00448 0.0
H525 H 0.37438 0.93651 0.98593 0.0
H526 H 0.37307 0.93602 0.02566 0.0
H527 H 0.41647 0.90496 0.02697 0.0
H528 H 0.41789 0.90533 0.98725 0.0
H529 H 0.41654 0.87298 0.00674 0.0
H530 H 0.32586 0.82226 0.97443 0.0
H531 H 0.33377 0.83053 0.92116 0.0
H532 H 0.38399 0.90175 0.94275 0.0
C533 C 0.36766 0.88331 0.06069 0.0
C534 C 0.35451 0.86528 0.08075 0.0
C535 C 0.3386 0.8431 0.06963 0.0
C536 C 0.33595 0.83885 0.03904 0.0
C537 C 0.3493 0.85699 0.0199 0.0
C538 C 0.36479 0.8788 0.03035 0.0
C539 C 0.37726 0.89527 0.00532 0.0
C540 C 0.3664 0.92503 0.00536 0.0
C541 C 0.40892 0.89458 0.00666 0.0
C542 C 0.36649 0.87928 0.97907 0.0
C543 C 0.35038 0.85727 0.98785 0.0
C544 C 0.3384 0.83947 0.96734 0.0
C545 C 0.34302 0.84432 0.93714 0.0
C546 C 0.35948 0.86679 0.92774 0.0
C547 C 0.37127 0.88441 0.94913 0.0
H548 H 0.14098 0.64127 0.5699 0.0
H549 H 0.07822 0.58018 0.58976 0.0
H550 H 0.07053 0.57294 0.53672 0.0
H551 H 0.10638 0.67033 0.5051 0.0
H552 H 0.13791 0.67535 0.4848 0.0
H553 H 0.13814 0.6767 0.52457 0.0
H554 H 0.1757 0.63886 0.52586 0.0
H555 H 0.17551 0.63731 0.48612 0.0
H556 H 0.16955 0.60651 0.50742 0.0
H557 H 0.07068 0.57036 0.48231 0.0
H558 H 0.07756 0.57372 0.42867 0.0
H559 H 0.1396 0.637 0.44226 0.0
C560 C 0.12547 0.62657 0.56305 0.0
C561 C 0.11021 0.61131 0.58411 0.0
C562 C 0.0902 0.59215 0.57419 0.0
C563 C 0.08564 0.58786 0.54404 0.0
C564 C 0.10115 0.60293 0.52391 0.0
C565 C 0.12055 0.62202 0.53283 0.0
C566 C 0.13459 0.63508 0.50629 0.0
C567 C 0.12891 0.66621 0.50513 0.0
C568 C 0.16568 0.62907 0.50644 0.0
C569 C 0.12019 0.62007 0.48119 0.0
C570 C 0.101 0.60165 0.49202 0.0
C571 C 0.08551 0.58483 0.4735 0.0
C572 C 0.08965 0.58687 0.44301 0.0
C573 C 0.10908 0.60566 0.43117 0.0
C574 C 0.12448 0.62256 0.45061 0.0
H575 H 0.3505 0.14245 0.561 0.0
H576 H 0.42312 0.09156 0.57354 0.0
H577 H 0.43159 0.09206 0.52002 0.0
H578 H 0.32787 0.10934 0.49525 0.0
H579 H 0.31563 0.14027 0.47757 0.0
H580 H 0.31614 0.13798 0.51725 0.0
H581 H 0.34576 0.18231 0.51991 0.0
H582 H 0.34533 0.18475 0.48019 0.0
H583 H 0.37769 0.18403 0.49969 0.0
H584 H 0.4315 0.09591 0.46584 0.0
H585 H 0.42218 0.10186 0.41292 0.0
H586 H 0.34912 0.14972 0.43369 0.0
C587 C 0.36836 0.13174 0.55245 0.0
C588 C 0.38621 0.11703 0.57147 0.0
C589 C 0.40913 0.10292 0.55943 0.0
C590 C 0.41421 0.10317 0.52905 0.0
C591 C 0.39614 0.11755 0.51088 0.0
C592 C 0.37363 0.13155 0.52196 0.0
C593 C 0.35673 0.14408 0.49711 0.0
C594 C 0.32736 0.1322 0.49678 0.0
C595 C 0.35637 0.17567 0.49937 0.0
C596 C 0.37312 0.13456 0.47044 0.0
C597 C 0.39588 0.11951 0.47907 0.0
C598 C 0.41384 0.10778 0.45874 0.0
C599 C 0.4083 0.11126 0.42869 0.0
C600 C 0.38492 0.12627 0.41909 0.0
C601 C 0.36725 0.13832 0.44033 0.0
H602 H 0.8501 0.35488 0.44842 0.0
H603 H 0.90685 0.4226 0.43328 0.0
H604 H 0.91474 0.42653 0.48676 0.0
H605 H 0.81923 0.38335 0.51329 0.0
H606 H 0.8156 0.35088 0.5322 0.0
H607 H 0.81541 0.35193 0.49245 0.0
H608 H 0.85563 0.31693 0.49102 0.0
H609 H 0.85591 0.31573 0.53079 0.0
H610 H 0.88691 0.32434 0.51095 0.0
H611 H 0.91589 0.4244 0.54117 0.0
H612 H 0.90949 0.41707 0.5944 0.0
H613 H 0.85114 0.35136 0.57605 0.0
C614 C 0.86439 0.3703 0.4564 0.0
C615 C 0.87794 0.38839 0.43662 0.0
C616 C 0.89621 0.40855 0.44794 0.0
C617 C 0.9009 0.41092 0.47831 0.0
C618 C 0.88709 0.39305 0.49722 0.0
C619 C 0.86916 0.37316 0.48687 0.0
C620 C 0.8562 0.35742 0.51235 0.0
C621 C 0.82475 0.36113 0.51258 0.0
C622 C 0.86415 0.32679 0.5112 0.0
C623 C 0.86954 0.37177 0.53852 0.0
C624 C 0.88742 0.39211 0.52911 0.0
C625 C 0.90201 0.4085 0.54886 0.0
C626 C 0.89819 0.40415 0.57911 0.0
C627 C 0.8798 0.38364 0.58951 0.0
C628 C 0.86537 0.36716 0.56883 0.0
H629 H 0.60315 0.89402 0.56019 0.0
H630 H 0.65863 0.82641 0.58001 0.0
H631 H 0.66445 0.81777 0.52648 0.0
H632 H 0.56983 0.86261 0.49742 0.0
H633 H 0.56726 0.8946 0.47738 0.0
H634 H 0.56712 0.89475 0.51715 0.0
H635 H 0.60848 0.92856 0.51724 0.0
H636 H 0.60879 0.92845 0.47749 0.0
H637 H 0.6395 0.91945 0.49767 0.0
H638 H 0.66471 0.81741 0.47012 0.0
H639 H 0.65917 0.82519 0.41639 0.0
H640 H 0.60367 0.89316 0.4346 0.0
C641 C 0.61643 0.87727 0.55337 0.0
C642 C 0.6304 0.86085 0.57432 0.0
C643 C 0.64766 0.83923 0.56436 0.0
C644 C 0.6511 0.83418 0.53401 0.0
C645 C 0.63713 0.85092 0.51394 0.0
C646 C 0.6201 0.87199 0.52329 0.0
C647 C 0.60767 0.88734 0.49744 0.0
C648 C 0.5761 0.88465 0.49735 0.0
C649 C 0.61666 0.91774 0.49747 0.0
C650 C 0.62044 0.87174 0.472 0.0
C651 C 0.63734 0.85076 0.48186 0.0
C652 C 0.65148 0.83375 0.4622 0.0
C653 C 0.64822 0.83833 0.43173 0.0
C654 C 0.631 0.85977 0.42125 0.0
C655 C 0.61699 0.87658 0.44181 0.0
H656 H 0.15225 0.52852 0.32021 0.0
H657 H 0.18511 0.58203 0.25196 0.0
H658 H 0.19781 0.54142 0.22245 0.0
H659 H 0.20319 0.46977 0.3086 0.0
H660 H 0.17667 0.44459 0.31552 0.0
H661 H 0.17577 0.47741 0.33414 0.0
H662 H 0.12636 0.48567 0.31439 0.0
H663 H 0.12715 0.45312 0.29562 0.0
H664 H 0.12011 0.48419 0.27516 0.0
H665 H 0.19763 0.49652 0.19601 0.0
H666 H 0.18667 0.45041 0.17606 0.0
H667 H 0.15585 0.42562 0.26194 0.0
C668 C 0.16303 0.53169 0.29957 0.0
C669 C 0.16763 0.55848 0.28844 0.0
C670 C 0.18136 0.56173 0.26103 0.0
C671 C 0.18879 0.53875 0.24411 0.0
C672 C 0.18279 0.51263 0.25508 0.0
C673 C 0.17066 0.50894 0.28244 0.0
C674 C 0.16351 0.47898 0.28766 0.0
C675 C 0.18082 0.46698 0.31298 0.0
C676 C 0.13245 0.4753 0.29353 0.0
C677 C 0.17186 0.46673 0.25826 0.0
C678 C 0.18338 0.48636 0.23993 0.0
C679 C 0.18943 0.48073 0.21043 0.0
C680 C 0.18303 0.45455 0.19924 0.0
C681 C 0.17076 0.43436 0.21755 0.0
C682 C 0.16593 0.44038 0.24762 0.0
H683 H 0.56167 0.16269 0.26629 0.0
H684 H 0.54717 0.17572 0.17282 0.0
H685 H 0.49777 0.18364 0.18298 0.0
H686 H 0.5043 0.123 0.2778 0.0
H687 H 0.4968 0.13556 0.31438 0.0
H688 H 0.53154 0.13641 0.30076 0.0
H689 H 0.534 0.18892 0.31082 0.0
H690 H 0.49919 0.18821 0.32464 0.0
H691 H 0.50832 0.21137 0.2951 0.0
H692 H 0.44959 0.18509 0.20249 0.0
H693 H 0.40603 0.17686 0.22899 0.0
H694 H 0.45183 0.1604 0.30945 0.0
C695 C 0.54826 0.16812 0.24809 0.0
C696 C 0.55825 0.16901 0.21882 0.0
C697 C 0.53992 0.17517 0.19543 0.0
C698 C 0.51189 0.17983 0.20102 0.0
C699 C 0.50255 0.1781 0.23007 0.0
C700 C 0.52019 0.17232 0.25323 0.0
C701 C 0.50456 0.16808 0.28179 0.0
C702 C 0.5096 0.13904 0.2944 0.0
C703 C 0.51196 0.19049 0.30442 0.0
C704 C 0.47528 0.17137 0.2709 0.0
C705 C 0.4746 0.17782 0.24118 0.0
C706 C 0.44987 0.18039 0.22584 0.0
C707 C 0.42521 0.17565 0.24112 0.0
C708 C 0.42549 0.16795 0.27132 0.0
C709 C 0.4509 0.1664 0.28644 0.0
H710 H 0.8304 0.52422 0.18955 0.0
H711 H 0.79792 0.58033 0.25553 0.0
H712 H 0.78521 0.54091 0.28684 0.0
H713 H 0.77929 0.46594 0.20409 0.0
H714 H 0.80574 0.44049 0.19817 0.0
H715 H 0.80657 0.47254 0.17803 0.0
H716 H 0.8561 0.48163 0.19705 0.0
H717 H 0.8554 0.44982 0.21722 0.0
H718 H 0.86259 0.48163 0.23627 0.0
H719 H 0.78587 0.49731 0.31537 0.0
H720 H 0.79802 0.45246 0.33766 0.0
H721 H 0.82756 0.42392 0.25268 0.0
C722 C 0.8197 0.52818 0.21009 0.0
C723 C 0.81521 0.55538 0.22006 0.0
C724 C 0.80159 0.55969 0.24735 0.0
C725 C 0.79413 0.5374 0.26528 0.0
C726 C 0.79996 0.51086 0.25542 0.0
C727 C 0.81201 0.50611 0.22821 0.0
C728 C 0.81911 0.47597 0.22432 0.0
C729 C 0.80163 0.46297 0.19969 0.0
C730 C 0.85013 0.47206 0.21839 0.0
C731 C 0.81091 0.46489 0.25431 0.0
C732 C 0.79945 0.48524 0.27178 0.0
C733 C 0.79394 0.48094 0.30166 0.0
C734 C 0.80098 0.45546 0.31417 0.0
C735 C 0.81326 0.43464 0.29676 0.0
C736 C 0.81734 0.43916 0.26628 0.0
H737 H 0.54235 0.87956 0.2843 0.0
H738 H 0.56056 0.79223 0.28696 0.0
H739 H 0.51634 0.78229 0.26166 0.0
H740 H 0.46784 0.87556 0.29299 0.0
H741 H 0.46164 0.90292 0.26692 0.0
H742 H 0.49304 0.90247 0.28809 0.0
H743 H 0.52125 0.90456 0.23955 0.0
H744 H 0.48996 0.90456 0.21821 0.0
H745 H 0.51584 0.87867 0.21159 0.0
H746 H 0.46967 0.78234 0.2365 0.0
H747 H 0.42567 0.79249 0.21083 0.0
H748 H 0.44158 0.87999 0.21945 0.0
C749 C 0.53662 0.85833 0.28021 0.0
C750 C 0.5543 0.83654 0.28812 0.0
C751 C 0.54687 0.80907 0.28141 0.0
C752 C 0.52192 0.80329 0.26703 0.0
C753 C 0.50511 0.82532 0.25894 0.0
C754 C 0.51228 0.8523 0.26508 0.0
C755 C 0.49179 0.87237 0.25205 0.0
C756 C 0.47774 0.88932 0.27647 0.0
C757 C 0.50554 0.89114 0.22898 0.0
C758 C 0.47188 0.8525 0.23773 0.0
C759 C 0.47965 0.82543 0.24229 0.0
C760 C 0.46357 0.80345 0.23245 0.0
C761 C 0.43875 0.80935 0.21786 0.0
C762 C 0.43077 0.83695 0.21266 0.0
C763 C 0.4477 0.85871 0.22243 0.0
H764 H 0.84373 0.5691 0.74414 0.0
H765 H 0.80917 0.55241 0.83057 0.0
H766 H 0.7966 0.50536 0.81423 0.0
H767 H 0.79613 0.52554 0.69936 0.0
H768 H 0.82366 0.51415 0.67564 0.0
H769 H 0.82494 0.54797 0.69204 0.0
H770 H 0.87266 0.53675 0.71473 0.0
H771 H 0.87156 0.50305 0.69837 0.0
H772 H 0.87642 0.50661 0.73765 0.0
H773 H 0.7917 0.45941 0.79015 0.0
H774 H 0.80007 0.41628 0.7632 0.0
H775 H 0.84104 0.4621 0.69349 0.0
C776 C 0.83276 0.55578 0.75932 0.0
C777 C 0.82691 0.56438 0.78841 0.0
C778 C 0.81355 0.54615 0.8081 0.0
C779 C 0.80617 0.51955 0.79892 0.0
C780 C 0.81261 0.51154 0.77014 0.0
C781 C 0.82587 0.52904 0.75073 0.0
C782 C 0.83411 0.51428 0.72264 0.0
C783 C 0.81879 0.5262 0.69583 0.0
C784 C 0.86554 0.51522 0.71811 0.0
C785 C 0.82427 0.48545 0.72967 0.0
C786 C 0.81118 0.48452 0.75677 0.0
C787 C 0.80168 0.45992 0.76879 0.0
C788 C 0.80655 0.43549 0.75324 0.0
C789 C 0.82135 0.43575 0.72622 0.0
C790 C 0.82953 0.46121 0.71394 0.0
H791 H 0.54791 0.88614 0.71651 0.0
H792 H 0.56959 0.7996 0.7201 0.0
H793 H 0.52802 0.79021 0.75018 0.0
H794 H 0.52576 0.89022 0.79156 0.0
H795 H 0.49835 0.91433 0.7843 0.0
H796 H 0.52844 0.91394 0.76106 0.0
H797 H 0.49782 0.90672 0.7148 0.0
H798 H 0.46762 0.90756 0.73785 0.0
H799 H 0.47371 0.87847 0.714 0.0
H800 H 0.48328 0.79032 0.77841 0.0
H801 H 0.43956 0.80024 0.80457 0.0
H802 H 0.45035 0.88739 0.78742 0.0
C803 C 0.54351 0.86515 0.72315 0.0
C804 C 0.56145 0.84343 0.71558 0.0
C805 C 0.55575 0.81637 0.72544 0.0
C806 C 0.53231 0.8109 0.74257 0.0
C807 C 0.51526 0.83288 0.75017 0.0
C808 C 0.52068 0.85949 0.74096 0.0
C809 C 0.49994 0.87963 0.75345 0.0
C810 C 0.51397 0.90077 0.7738 0.0
C811 C 0.48381 0.89393 0.72854 0.0
C812 C 0.48178 0.86015 0.77083 0.0
C813 C 0.4908 0.83323 0.76842 0.0
C814 C 0.47627 0.81136 0.78089 0.0
C815 C 0.45161 0.81714 0.79577 0.0
C816 C 0.44221 0.84458 0.79859 0.0
C817 C 0.4577 0.86634 0.78638 0.0
H818 H 0.16133 0.45208 0.81371 0.0
H819 H 0.18654 0.40235 0.7387 0.0
H820 H 0.19495 0.44434 0.70987 0.0
H821 H 0.12437 0.49917 0.77572 0.0
H822 H 0.13423 0.52914 0.7967 0.0
H823 H 0.13509 0.4957 0.81366 0.0
H824 H 0.18653 0.50244 0.82708 0.0
H825 H 0.18578 0.53617 0.81042 0.0
H826 H 0.21088 0.51118 0.79853 0.0
H827 H 0.19066 0.49 0.68593 0.0
H828 H 0.17944 0.53765 0.67054 0.0
H829 H 0.16088 0.55871 0.76136 0.0
C830 C 0.16955 0.45005 0.79159 0.0
C831 C 0.17311 0.42388 0.77849 0.0
C832 C 0.18354 0.42213 0.74929 0.0
C833 C 0.18848 0.44589 0.73267 0.0
C834 C 0.18351 0.47133 0.74572 0.0
C835 C 0.17491 0.47366 0.77473 0.0
C836 C 0.16893 0.50339 0.78259 0.0
C837 C 0.13888 0.50704 0.79275 0.0
C838 C 0.18925 0.51391 0.80604 0.0
C839 C 0.17397 0.51706 0.75301 0.0
C840 C 0.18251 0.49822 0.73206 0.0
C841 C 0.18493 0.5052 0.70229 0.0
C842 C 0.17837 0.53216 0.6937 0.0
C843 C 0.16994 0.55175 0.71491 0.0
C844 C 0.16821 0.54423 0.74494 0.0
H845 H 0.44682 0.10542 0.71858 0.0
H846 H 0.42794 0.19268 0.71777 0.0
H847 H 0.46959 0.20194 0.74788 0.0
H848 H 0.46814 0.10373 0.79397 0.0
H849 H 0.49468 0.07837 0.78809 0.0
H850 H 0.46477 0.0789 0.76458 0.0
H851 H 0.49595 0.08306 0.71833 0.0
H852 H 0.52597 0.08216 0.74167 0.0
H853 H 0.52102 0.11041 0.71639 0.0
H854 H 0.51426 0.2014 0.77668 0.0
H855 H 0.55704 0.19088 0.80436 0.0
H856 H 0.54315 0.10357 0.79079 0.0
C857 C 0.45179 0.12651 0.7243 0.0
C858 C 0.43466 0.14846 0.71548 0.0
C859 C 0.44114 0.17571 0.72413 0.0
C860 C 0.46464 0.18111 0.74123 0.0
C861 C 0.48094 0.15892 0.74998 0.0
C862 C 0.47465 0.13214 0.74203 0.0
C863 C 0.49455 0.11181 0.75562 0.0
C864 C 0.47964 0.09204 0.77683 0.0
C865 C 0.51031 0.09594 0.73157 0.0
C866 C 0.51326 0.13133 0.7722 0.0
C867 C 0.50528 0.15845 0.76842 0.0
C868 C 0.52046 0.18024 0.78017 0.0
C869 C 0.54462 0.17411 0.79586 0.0
C870 C 0.55288 0.14645 0.80016 0.0
C871 C 0.53679 0.12486 0.78851 0.0
H872 H 0.65668 0.02844 0.81762 0.0
H873 H 0.67425 0.08692 0.74755 0.0
H874 H 0.68417 0.04855 0.71366 0.0
H875 H 0.70887 0.97483 0.79359 0.0
H876 H 0.68599 0.94719 0.80386 0.0
H877 H 0.68544 0.97917 0.8241 0.0
H878 H 0.63309 0.98367 0.81402 0.0
H879 H 0.6335 0.95195 0.79361 0.0
H880 H 0.62078 0.98295 0.77645 0.0
H881 H 0.68259 0.00478 0.6851 0.0
H882 H 0.67331 0.95828 0.66512 0.0
H883 H 0.65949 0.92794 0.75395 0.0
C884 C 0.66349 0.0332 0.79543 0.0
C885 C 0.66463 0.06068 0.78527 0.0
C886 C 0.67329 0.06604 0.75593 0.0
C887 C 0.67904 0.04437 0.73648 0.0
C888 C 0.67658 0.01748 0.74684 0.0
C889 C 0.66955 0.01181 0.7758 0.0
C890 C 0.6658 0.98118 0.78064 0.0
C891 C 0.68785 0.96993 0.8018 0.0
C892 C 0.63656 0.97458 0.79182 0.0
C893 C 0.67025 0.97071 0.74953 0.0
C894 C 0.67674 0.99193 0.7304 0.0
C895 C 0.67838 0.98784 0.69996 0.0
C896 C 0.67294 0.96145 0.68879 0.0
C897 C 0.66615 0.93954 0.70807 0.0
C898 C 0.66545 0.94417 0.73882 0.0
H899 H 0.93303 0.65033 0.74919 0.0
H900 H 0.9529 0.65994 0.84203 0.0
H901 H 0.00232 0.66417 0.8292 0.0
H902 H 0.98861 0.60704 0.73289 0.0
H903 H 0.99429 0.62051 0.6963 0.0
H904 H 0.96045 0.6219 0.71239 0.0
H905 H 0.95905 0.67473 0.70414 0.0
H906 H 0.99295 0.67351 0.68798 0.0
H907 H 0.98626 0.69596 0.71886 0.0
H908 H 0.04936 0.66553 0.80633 0.0
H909 H 0.09111 0.65935 0.77622 0.0
H910 H 0.04044 0.6456 0.69854 0.0
C911 C 0.94772 0.65393 0.76678 0.0
C912 C 0.93922 0.65526 0.79657 0.0
C913 C 0.95907 0.65908 0.81907 0.0
C914 C 0.98709 0.66163 0.81196 0.0
C915 C 0.9948 0.65997 0.78233 0.0
C916 C 0.97571 0.65594 0.76014 0.0
C917 C 0.98949 0.65219 0.73042 0.0
C918 C 0.98281 0.62372 0.71725 0.0
C919 C 0.98146 0.67549 0.7091 0.0
C920 C 0.01941 0.65429 0.73939 0.0
C921 C 0.02199 0.65936 0.76932 0.0
C922 C 0.0476 0.66166 0.78287 0.0
C923 C 0.07119 0.65818 0.76551 0.0
C924 C 0.06905 0.65196 0.73498 0.0
C925 C 0.04276 0.65036 0.72177 0.0
H926 H 0.34068 0.0637 0.75279 0.0
H927 H 0.31809 0.03569 0.66518 0.0
H928 H 0.30722 0.98962 0.68538 0.0
H929 H 0.37716 0.00635 0.77078 0.0
H930 H 0.36803 0.00553 0.80935 0.0
H931 H 0.36775 0.03765 0.78968 0.0
H932 H 0.31683 0.04544 0.80464 0.0
H933 H 0.31697 0.01324 0.8245 0.0
H934 H 0.29149 0.01941 0.79631 0.0
H935 H 0.30476 0.94575 0.71335 0.0
H936 H 0.31469 0.90622 0.74558 0.0
H937 H 0.34162 0.96205 0.81476 0.0
C938 C 0.33247 0.04812 0.7381 0.0
C939 C 0.32973 0.05323 0.70756 0.0
C940 C 0.32004 0.03213 0.6887 0.0
C941 C 0.31365 0.00602 0.70002 0.0
C942 C 0.31729 0.00139 0.73017 0.0
C943 C 0.32659 0.02183 0.74895 0.0
C944 C 0.33286 0.0105 0.77939 0.0
C945 C 0.36325 0.01528 0.78776 0.0
C946 C 0.31337 0.02288 0.80258 0.0
C947 C 0.3268 0.98027 0.77443 0.0
C948 C 0.31707 0.97561 0.74616 0.0
C949 C 0.31198 0.94916 0.73566 0.0
C950 C 0.31778 0.92681 0.75417 0.0
C951 C 0.32902 0.93101 0.78273 0.0
C952 C 0.33277 0.95816 0.79321 0.0
H953 H 0.0631 0.34526 0.74996 0.0
H954 H 0.04424 0.33399 0.84277 0.0
H955 H 0.99479 0.32889 0.83037 0.0
H956 H 0.00587 0.38774 0.73511 0.0
H957 H 0.00026 0.37476 0.6983 0.0
H958 H 0.03428 0.37412 0.71406 0.0
H959 H 0.03717 0.32154 0.7046 0.0
H960 H 0.00307 0.32201 0.68886 0.0
H961 H 0.01078 0.29921 0.71918 0.0
H962 H 0.94779 0.32605 0.80799 0.0
H963 H 0.90555 0.33124 0.77853 0.0
H964 H 0.95477 0.34815 0.70051 0.0
C965 C 0.04857 0.3412 0.76758 0.0
C966 C 0.05733 0.33954 0.79726 0.0
C967 C 0.03779 0.33512 0.8199 0.0
C968 C 0.00979 0.33206 0.81303 0.0
C969 C 0.00178 0.33392 0.78351 0.0
C970 C 0.02055 0.33878 0.76119 0.0
C971 C 0.00635 0.34264 0.73169 0.0
C972 C 0.01202 0.37153 0.71907 0.0
C973 C 0.01485 0.31999 0.70979 0.0
C974 C 0.97658 0.33947 0.74094 0.0
C975 C 0.97449 0.33387 0.7708 0.0
C976 C 0.94915 0.3304 0.7846 0.0
C977 C 0.92527 0.33331 0.76759 0.0
C978 C 0.92684 0.34015 0.73717 0.0
C979 C 0.95291 0.3429 0.72367 0.0
H980 H 0.33187 0.06563 0.24279 0.0
H981 H 0.32859 0.04483 0.33585 0.0
H982 H 0.32023 -0.00397 0.32293 0.0
H983 H 0.2812 0.01373 0.21569 0.0
H984 H 0.30125 0.00671 0.18306 0.0
H985 H 0.30196 0.04055 0.19946 0.0
H986 H 0.35516 0.03789 0.20335 0.0
H987 H 0.35461 0.00414 0.18703 0.0
H988 H 0.37075 0.00928 0.22245 0.0
H989 H 0.31644 0.94938 0.30015 0.0
H990 H 0.32183 0.9077 0.26973 0.0
H991 H 0.33042 0.95861 0.1914 0.0
C992 C 0.32858 0.05091 0.26041 0.0
C993 C 0.33043 0.05893 0.2903 0.0
C994 C 0.32702 0.03902 0.31281 0.0
C995 C 0.3221 0.01135 0.30568 0.0
C996 C 0.32089 0.00398 0.27595 0.0
C997 C 0.32421 0.02315 0.25366 0.0
C998 C 0.32556 0.00945 0.22366 0.0
C999 C 0.30103 0.01813 0.20433 0.0
C1000 C 0.35316 0.01555 0.20824 0.0
C1001 C 0.32336 0.9795 0.23263 0.0
C1002 C 0.31997 0.97685 0.2628 0.0
C1003 C 0.3188 0.95119 0.27647 0.0
C1004 C 0.32188 0.92761 0.25895 0.0
C1005 C 0.32659 0.92987 0.22815 0.0
C1006 C 0.32669 0.95618 0.21483 0.0
H1007 H 0.94559 0.32823 0.2915 0.0
H1008 H 0.92469 0.4147 0.28299 0.0
H1009 H 0.96375 0.42139 0.2488 0.0
H1010 H 0.01911 0.34006 0.29373 0.0
H1011 H 0.02742 0.30887 0.27406 0.0
H1012 H -0.00335 0.31056 0.29614 0.0
H1013 H 0.9677 0.29638 0.25049 0.0
H1014 H -0.00162 0.29515 0.22815 0.0
H1015 H 0.96986 0.31658 0.21716 0.0
H1016 H 0.00354 0.41837 0.21415 0.0
H1017 H 0.04769 0.40852 0.18938 0.0
H1018 H 0.04612 0.32527 0.22428 0.0
C1019 C 0.94942 0.34852 0.28246 0.0
C1020 C 0.93228 0.37098 0.2897 0.0
C1021 C 0.93786 0.39735 0.2778 0.0
C1022 C 0.95975 0.40126 0.25814 0.0
C1023 C 0.97614 0.37869 0.25109 0.0
C1024 C 0.97178 0.35301 0.26347 0.0
C1025 C 0.99402 0.33289 0.25417 0.0
C1026 C 0.01027 0.3225 0.28112 0.0
C1027 C 0.98174 0.30883 0.23644 0.0
C1028 C 0.01152 0.35133 0.23471 0.0
C1029 C 0.00036 0.37743 0.23261 0.0
C1030 C 0.01259 0.39806 0.21573 0.0
C1031 C 0.03753 0.39219 0.20152 0.0
C1032 C 0.05025 0.36615 0.20492 0.0
C1033 C 0.03677 0.34532 0.22127 0.0
H1034 H 0.64907 0.95847 0.3168 0.0
H1035 H 0.67472 0.91212 0.23952 0.0
H1036 H 0.68324 0.95549 0.21291 0.0
H1037 H 0.61223 0.00784 0.28004 0.0
H1038 H 0.62188 0.03644 0.30324 0.0
H1039 H 0.62189 0.00206 0.31799 0.0
H1040 H 0.67301 0.00748 0.33341 0.0
H1041 H 0.67312 0.04206 0.31888 0.0
H1042 H 0.69822 0.01741 0.30619 0.0
H1043 H 0.68158 0.00292 0.19209 0.0
H1044 H 0.6729 0.05175 0.17976 0.0
H1045 H 0.65044 0.06764 0.2709 0.0
C1046 C 0.6572 0.95742 0.29457 0.0
C1047 C 0.66118 0.93186 0.28029 0.0
C1048 C 0.67152 0.93142 0.25101 0.0
C1049 C 0.6765 0.95597 0.23567 0.0
C1050 C 0.67147 0.9808 0.25004 0.0
C1051 C 0.66246 0.98176 0.27898 0.0
C1052 C 0.65663 0.01107 0.28853 0.0
C1053 C 0.62637 0.01454 0.29799 0.0
C1054 C 0.67644 0.02003 0.31321 0.0
C1055 C 0.6626 0.02626 0.26004 0.0
C1056 C 0.67133 0.00845 0.23817 0.0
C1057 C 0.67545 0.01722 0.20919 0.0
C1058 C 0.67033 0.04491 0.20236 0.0
C1059 C 0.66137 0.06347 0.22446 0.0
C1060 C 0.65795 0.05405 0.25373 0.0
H1061 H 0.04129 0.60123 0.28718 0.0
H1062 H 0.05659 0.68909 0.29219 0.0
H1063 H 0.01292 0.69801 0.26554 0.0
H1064 H 0.01601 0.60249 0.21346 0.0
H1065 H 0.99074 0.57579 0.21913 0.0
H1066 H 0.02169 0.57632 0.24105 0.0
H1067 H 0.99261 0.57678 0.28903 0.0
H1068 H 0.96157 0.57587 0.26726 0.0
H1069 H 0.96665 0.60293 0.29397 0.0
H1070 H 0.96729 0.69712 0.23911 0.0
H1071 H 0.92409 0.68649 0.21232 0.0
H1072 H 0.94143 0.59917 0.21978 0.0
C1073 C 0.03507 0.62233 0.2832 0.0
C1074 C 0.05183 0.64456 0.29219 0.0
C1075 C 0.0437 0.67188 0.28574 0.0
C1076 C 0.01904 0.6771 0.27061 0.0
C1077 C 0.00316 0.65471 0.26155 0.0
C1078 C 0.01094 0.62786 0.26739 0.0
C1079 C 0.99116 0.60746 0.25357 0.0
C1080 C 0.00578 0.58946 0.23043 0.0
C1081 C 0.97717 0.58972 0.27738 0.0
C1082 C 0.97092 0.62702 0.2392 0.0
C1083 C 0.97802 0.65419 0.24438 0.0
C1084 C 0.96169 0.67595 0.2346 0.0
C1085 C 0.93729 0.66976 0.21939 0.0
C1086 C 0.92988 0.6421 0.21358 0.0
C1087 C 0.94707 0.62052 0.22332 0.0
loop_
_geom_bond_atom_site_label_1
_geom_bond_atom_site_label_2
_geom_bond_distance
_geom_bond_site_symmetry_2
_ccdc_geom_bond_type
O0 Cd1 2.223 . S
O0 C8 1.315 . S
Cd1 O0 2.223 . S
Cd1 O4 2.297 . S
Cd1 O5 2.439 . S
Cd1 O11 2.240 . S
Cd2 O3 2.240 . S
Cd2 O10 2.223 . S
Cd2 O12 2.297 . S
Cd2 O13 2.439 . S
O3 Cd2 2.240 . S
O3 C8 1.279 . S
O4 Cd1 2.297 . S
O4 C6 1.247 . S
O5 Cd1 2.439 . S
O5 C6 1.208 . S
C6 O4 1.247 . S
C6 O5 1.208 . S
C7 O12 1.247 . S
C7 O13 1.208 . S
C8 O0 1.315 . S
C8 O3 1.279 . S
C9 O10 1.315 . S
C9 O11 1.279 . S
O10 Cd2 2.223 . S
O10 C9 1.315 . S
O11 Cd1 2.240 . S
O11 C9 1.279 . S
O12 Cd2 2.297 . S
O12 C7 1.247 . S
O13 Cd2 2.439 . S
O13 C7 1.208 . S
O14 Cd15 2.223 . S
O14 C22 1.315 . S
Cd15 O14 2.223 . S
Cd15 O18 2.297 . S
Cd15 O19 2.439 . S
Cd15 O25 2.240 . S
Cd16 O17 2.240 . S
Cd16 O24 2.223 . S
Cd16 O26 2.297 . S
Cd16 O27 2.439 . S
O17 Cd16 2.240 . S
O17 C22 1.279 . S
O18 Cd15 2.297 . S
O18 C20 1.247 . S
O19 Cd15 2.439 . S
O19 C20 1.208 . S
C20 O18 1.247 . S
C20 O19 1.208 . S
C21 O26 1.247 . S
C21 O27 1.208 . S
C22 O14 1.315 . S
C22 O17 1.279 . S
C23 O24 1.315 . S
C23 O25 1.279 . S
O24 Cd16 2.223 . S
O24 C23 1.315 . S
O25 Cd15 2.240 . S
O25 C23 1.279 . S
O26 Cd16 2.297 . S
O26 C21 1.247 . S
O27 Cd16 2.439 . S
O27 C21 1.208 . S
O28 Cd29 2.223 . S
O28 C36 1.315 . S
Cd29 O28 2.223 . S
Cd29 O32 2.297 . S
Cd29 O33 2.439 . S
Cd29 O39 2.240 . S
Cd30 O31 2.240 . S
Cd30 O38 2.223 . S
Cd30 O40 2.297 . S
Cd30 O41 2.439 . S
O31 Cd30 2.240 . S
O31 C36 1.279 . S
O32 Cd29 2.297 . S
O32 C34 1.247 . S
O33 Cd29 2.439 . S
O33 C34 1.208 . S
C34 O32 1.247 . S
C34 O33 1.208 . S
C35 O40 1.247 . S
C35 O41 1.208 . S
C36 O28 1.315 . S
C36 O31 1.279 . S
C37 O38 1.315 . S
C37 O39 1.279 . S
O38 Cd30 2.223 . S
O38 C37 1.315 . S
O39 Cd29 2.240 . S
O39 C37 1.279 . S
O40 Cd30 2.297 . S
O40 C35 1.247 . S
O41 Cd30 2.439 . S
O41 C35 1.208 . S
O42 Cd43 2.223 . S
O42 C50 1.315 . S
Cd43 O42 2.223 . S
Cd43 O46 2.297 . S
Cd43 O47 2.439 . S
Cd43 O53 2.240 . S
Cd44 O45 2.240 . S
Cd44 O52 2.223 . S
Cd44 O54 2.297 . S
Cd44 O55 2.439 . S
O45 Cd44 2.240 . S
O45 C50 1.279 . S
O46 Cd43 2.297 . S
O46 C48 1.247 . S
O47 Cd43 2.439 . S
O47 C48 1.208 . S
C48 O46 1.247 . S
C48 O47 1.208 . S
C49 O54 1.247 . S
C49 O55 1.208 . S
C50 O42 1.315 . S
C50 O45 1.279 . S
C51 O52 1.315 . S
C51 O53 1.279 . S
O52 Cd44 2.223 . S
O52 C51 1.315 . S
O53 Cd43 2.240 . S
O53 C51 1.279 . S
O54 Cd44 2.297 . S
O54 C49 1.247 . S
O55 Cd44 2.439 . S
O55 C49 1.208 . S
O56 Cd57 2.223 . S
O56 C64 1.315 . S
Cd57 O56 2.223 . S
Cd57 O60 2.297 . S
Cd57 O61 2.439 . S
Cd57 O67 2.240 . S
Cd58 O59 2.240 . S
Cd58 O66 2.223 . S
Cd58 O68 2.297 . S
Cd58 O69 2.439 . S
O59 Cd58 2.240 . S
O59 C64 1.279 . S
O60 Cd57 2.297 . S
O60 C62 1.247 . S
O61 Cd57 2.439 . S
O61 C62 1.208 . S
C62 O60 1.247 . S
C62 O61 1.208 . S
C63 O68 1.247 . S
C63 O69 1.208 . S
C64 O56 1.315 . S
C64 O59 1.279 . S
C65 O66 1.315 . S
C65 O67 1.279 . S
O66 Cd58 2.223 . S
O66 C65 1.315 . S
O67 Cd57 2.240 . S
O67 C65 1.279 . S
O68 Cd58 2.297 . S
O68 C63 1.247 . S
O69 Cd58 2.439 . S
O69 C63 1.208 . S
O70 Cd71 2.223 . S
O70 C78 1.315 . S
Cd71 O70 2.223 . S
Cd71 O74 2.297 . S
Cd71 O75 2.439 . S
Cd71 O81 2.240 . S
Cd72 O73 2.240 . S
Cd72 O80 2.223 . S
Cd72 O82 2.297 . S
Cd72 O83 2.439 . S
O73 Cd72 2.240 . S
O73 C78 1.279 . S
O74 Cd71 2.297 . S
O74 C76 1.247 . S
O75 Cd71 2.439 . S
O75 C76 1.208 . S
C76 O74 1.247 . S
C76 O75 1.208 . S
C77 O82 1.247 . S
C77 O83 1.208 . S
C78 O70 1.315 . S
C78 O73 1.279 . S
C79 O80 1.315 . S
C79 O81 1.279 . S
O80 Cd72 2.223 . S
O80 C79 1.315 . S
O81 Cd71 2.240 . S
O81 C79 1.279 . S
O82 Cd72 2.297 . S
O82 C77 1.247 . S
O83 Cd72 2.439 . S
O83 C77 1.208 . S
O84 Cd85 2.223 . S
O84 C92 1.315 . S
Cd85 O84 2.223 . S
Cd85 O88 2.297 . S
Cd85 O89 2.439 . S
Cd85 O95 2.240 . S
Cd86 O87 2.240 . S
Cd86 O94 2.223 . S
Cd86 O96 2.297 . S
Cd86 O97 2.439 . S
O87 Cd86 2.240 . S
O87 C92 1.279 . S
O88 Cd85 2.297 . S
O88 C90 1.247 . S
O89 Cd85 2.439 . S
O89 C90 1.208 . S
C90 O88 1.247 . S
C90 O89 1.208 . S
C91 O96 1.247 . S
C91 O97 1.208 . S
C92 O84 1.315 . S
C92 O87 1.279 . S
C93 O94 1.315 . S
C93 O95 1.279 . S
O94 Cd86 2.223 . S
O94 C93 1.315 . S
O95 Cd85 2.240 . S
O95 C93 1.279 . S
O96 Cd86 2.297 . S
O96 C91 1.247 . S
O97 Cd86 2.439 . S
O97 C91 1.208 . S
O98 Cd99 2.223 . S
O98 C106 1.315 . S
Cd99 O98 2.223 . S
Cd99 O102 2.297 . S
Cd99 O103 2.439 . S
Cd99 O109 2.240 . S
Cd100 O101 2.240 . S
Cd100 O108 2.223 . S
Cd100 O110 2.297 . S
Cd100 O111 2.439 . S
O101 Cd100 2.240 . S
O101 C106 1.279 . S
O102 Cd99 2.297 . S
O102 C104 1.247 . S
O103 Cd99 2.439 . S
O103 C104 1.208 . S
C104 O102 1.247 . S
C104 O103 1.208 . S
C105 O110 1.247 . S
C105 O111 1.208 . S
C106 O98 1.315 . S
C106 O101 1.279 . S
C107 O108 1.315 . S
C107 O109 1.279 . S
O108 Cd100 2.223 . S
O108 C107 1.315 . S
O109 Cd99 2.240 . S
O109 C107 1.279 . S
O110 Cd100 2.297 . S
O110 C105 1.247 . S
O111 Cd100 2.439 . S
O111 C105 1.208 . S
O112 Cd113 2.223 . S
O112 C120 1.315 . S
Cd113 O112 2.223 . S
Cd113 O116 2.297 . S
Cd113 O117 2.439 . S
Cd113 O123 2.240 . S
Cd114 O115 2.240 . S
Cd114 O122 2.223 . S
Cd114 O124 2.297 . S
Cd114 O125 2.439 . S
O115 Cd114 2.240 . S
O115 C120 1.279 . S
O116 Cd113 2.297 . S
O116 C118 1.247 . S
O117 Cd113 2.439 . S
O117 C118 1.208 . S
C118 O116 1.247 . S
C118 O117 1.208 . S
C119 O124 1.247 . S
C119 O125 1.208 . S
C120 O112 1.315 . S
C120 O115 1.279 . S
C121 O122 1.315 . S
C121 O123 1.279 . S
O122 Cd114 2.223 . S
O122 C121 1.315 . S
O123 Cd113 2.240 . S
O123 C121 1.279 . S
O124 Cd114 2.297 . S
O124 C119 1.247 . S
O125 Cd114 2.439 . S
O125 C119 1.208 . S
O126 Cd127 2.223 . S
O126 C134 1.315 . S
Cd127 O126 2.223 . S
Cd127 O130 2.297 . S
Cd127 O131 2.439 . S
Cd127 O137 2.240 . S
Cd128 O129 2.240 . S
Cd128 O136 2.223 . S
Cd128 O138 2.297 . S
Cd128 O139 2.439 . S
O129 Cd128 2.240 . S
O129 C134 1.279 . S
O130 Cd127 2.297 . S
O130 C132 1.247 . S
O131 Cd127 2.439 . S
O131 C132 1.208 . S
C132 O130 1.247 . S
C132 O131 1.208 . S
C133 O138 1.247 . S
C133 O139 1.208 . S
C134 O126 1.315 . S
C134 O129 1.279 . S
C135 O136 1.315 . S
C135 O137 1.279 . S
O136 Cd128 2.223 . S
O136 C135 1.315 . S
O137 Cd127 2.240 . S
O137 C135 1.279 . S
O138 Cd128 2.297 . S
O138 C133 1.247 . S
O139 Cd128 2.439 . S
O139 C133 1.208 . S
O140 Cd141 2.223 . S
O140 C148 1.315 . S
Cd141 O140 2.223 . S
Cd141 O144 2.297 . S
Cd141 O145 2.439 . S
Cd141 O151 2.240 . S
Cd142 O143 2.240 . S
Cd142 O150 2.223 . S
Cd142 O152 2.297 . S
Cd142 O153 2.439 . S
O143 Cd142 2.240 . S
O143 C148 1.279 . S
O144 Cd141 2.297 . S
O144 C146 1.247 . S
O145 Cd141 2.439 . S
O145 C146 1.208 . S
C146 O144 1.247 . S
C146 O145 1.208 . S
C147 O152 1.247 . S
C147 O153 1.208 . S
C148 O140 1.315 . S
C148 O143 1.279 . S
C149 O150 1.315 . S
C149 O151 1.279 . S
O150 Cd142 2.223 . S
O150 C149 1.315 . S
O151 Cd141 2.240 . S
O151 C149 1.279 . S
O152 Cd142 2.297 . S
O152 C147 1.247 . S
O153 Cd142 2.439 . S
O153 C147 1.208 . S
O154 Cd155 2.223 . S
O154 C162 1.315 . S
Cd155 O154 2.223 . S
Cd155 O158 2.297 . S
Cd155 O159 2.439 . S
Cd155 O165 2.240 . S
Cd156 O157 2.240 . S
Cd156 O164 2.223 . S
Cd156 O166 2.297 . S
Cd156 O167 2.439 . S
O157 Cd156 2.240 . S
O157 C162 1.279 . S
O158 Cd155 2.297 . S
O158 C160 1.247 . S
O159 Cd155 2.439 . S
O159 C160 1.208 . S
C160 O158 1.247 . S
C160 O159 1.208 . S
C161 O166 1.247 . S
C161 O167 1.208 . S
C162 O154 1.315 . S
C162 O157 1.279 . S
C163 O164 1.315 . S
C163 O165 1.279 . S
O164 Cd156 2.223 . S
O164 C163 1.315 . S
O165 Cd155 2.240 . S
O165 C163 1.279 . S
O166 Cd156 2.297 . S
O166 C161 1.247 . S
O167 Cd156 2.439 . S
O167 C161 1.208 . S
O168 Cd169 2.223 . S
O168 C176 1.315 . S
Cd169 O168 2.223 . S
Cd169 O172 2.297 . S
Cd169 O173 2.439 . S
Cd169 O179 2.240 . S
Cd170 O171 2.240 . S
Cd170 O178 2.223 . S
Cd170 O180 2.297 . S
Cd170 O181 2.439 . S
O171 Cd170 2.240 . S
O171 C176 1.279 . S
O172 Cd169 2.297 . S
O172 C174 1.247 . S
O173 Cd169 2.439 . S
O173 C174 1.208 . S
C174 O172 1.247 . S
C174 O173 1.208 . S
C175 O180 1.247 . S
C175 O181 1.208 . S
C176 O168 1.315 . S
C176 O171 1.279 . S
C177 O178 1.315 . S
C177 O179 1.279 . S
O178 Cd170 2.223 . S
O178 C177 1.315 . S
O179 Cd169 2.240 . S
O179 C177 1.279 . S
O180 Cd170 2.297 . S
O180 C175 1.247 . S
O181 Cd170 2.439 . S
O181 C175 1.208 . S
O182 Cd183 2.223 . S
O182 C190 1.315 . S
Cd183 O182 2.223 . S
Cd183 O186 2.297 . S
Cd183 O187 2.439 . S
Cd183 O193 2.240 . S
Cd184 O185 2.240 . S
Cd184 O192 2.223 . S
Cd184 O194 2.297 . S
Cd184 O195 2.439 . S
O185 Cd184 2.240 . S
O185 C190 1.279 . S
O186 Cd183 2.297 . S
O186 C188 1.247 . S
O187 Cd183 2.439 . S
O187 C188 1.208 . S
C188 O186 1.247 . S
C188 O187 1.208 . S
C189 O194 1.247 . S
C189 O195 1.208 . S
C190 O182 1.315 . S
C190 O185 1.279 . S
C191 O192 1.315 . S
C191 O193 1.279 . S
O192 Cd184 2.223 . S
O192 C191 1.315 . S
O193 Cd183 2.240 . S
O193 C191 1.279 . S
O194 Cd184 2.297 . S
O194 C189 1.247 . S
O195 Cd184 2.439 . S
O195 C189 1.208 . S
O196 Cd197 2.223 . S
O196 C204 1.315 . S
Cd197 O196 2.223 . S
Cd197 O200 2.297 . S
Cd197 O201 2.439 . S
Cd197 O207 2.240 . S
Cd198 O199 2.240 . S
Cd198 O206 2.223 . S
Cd198 O208 2.297 . S
Cd198 O209 2.439 . S
O199 Cd198 2.240 . S
O199 C204 1.279 . S
O200 Cd197 2.297 . S
O200 C202 1.247 . S
O201 Cd197 2.439 . S
O201 C202 1.208 . S
C202 O200 1.247 . S
C202 O201 1.208 . S
C203 O208 1.247 . S
C203 O209 1.208 . S
C204 O196 1.315 . S
C204 O199 1.279 . S
C205 O206 1.315 . S
C205 O207 1.279 . S
O206 Cd198 2.223 . S
O206 C205 1.315 . S
O207 Cd197 2.240 . S
O207 C205 1.279 . S
O208 Cd198 2.297 . S
O208 C203 1.247 . S
O209 Cd198 2.439 . S
O209 C203 1.208 . S
O210 Cd211 2.223 . S
O210 C218 1.315 . S
Cd211 O210 2.223 . S
Cd211 O214 2.297 . S
Cd211 O215 2.439 . S
Cd211 O221 2.240 . S
Cd212 O213 2.240 . S
Cd212 O220 2.223 . S
Cd212 O222 2.297 . S
Cd212 O223 2.439 . S
O213 Cd212 2.240 . S
O213 C218 1.279 . S
O214 Cd211 2.297 . S
O214 C216 1.247 . S
O215 Cd211 2.439 . S
O215 C216 1.208 . S
C216 O214 1.247 . S
C216 O215 1.208 . S
C217 O222 1.247 . S
C217 O223 1.208 . S
C218 O210 1.315 . S
C218 O213 1.279 . S
C219 O220 1.315 . S
C219 O221 1.279 . S
O220 Cd212 2.223 . S
O220 C219 1.315 . S
O221 Cd211 2.240 . S
O221 C219 1.279 . S
O222 Cd212 2.297 . S
O222 C217 1.247 . S
O223 Cd212 2.439 . S
O223 C217 1.208 . S
H224 C236 0.930 . S
H225 C238 0.930 . S
H226 C239 0.930 . S
H227 C243 0.959 . S
H228 C243 0.959 . S
H229 C243 0.961 . S
H230 C244 0.960 . S
H231 C244 0.961 . S
H232 C244 0.959 . S
H233 C247 0.929 . S
H234 C248 0.931 . S
H235 C250 0.930 . S
C236 H224 0.930 . S
C236 C237 1.399 . S
C236 C241 1.399 . S
C237 C236 1.399 . S
C237 C238 1.376 . S
C238 H225 0.930 . S
C238 C237 1.376 . S
C238 C239 1.388 . S
C239 H226 0.930 . S
C239 C238 1.388 . S
C239 C240 1.390 . S
C240 C239 1.390 . S
C240 C241 1.394 . S
C240 C246 1.465 . S
C241 C236 1.399 . S
C241 C240 1.394 . S
C241 C242 1.516 . S
C242 C241 1.516 . S
C242 C243 1.502 . S
C242 C244 1.561 . S
C242 C245 1.526 . S
C243 H227 0.959 . S
C243 H228 0.959 . S
C243 H229 0.961 . S
C243 C242 1.502 . S
C244 H230 0.960 . S
C244 H231 0.961 . S
C244 H232 0.959 . S
C244 C242 1.561 . S
C245 C242 1.526 . S
C245 C246 1.396 . S
C245 C250 1.390 . S
C246 C240 1.465 . S
C246 C245 1.396 . S
C246 C247 1.399 . S
C247 H233 0.929 . S
C247 C246 1.399 . S
C247 C248 1.385 . S
C248 H234 0.931 . S
C248 C247 1.385 . S
C248 C249 1.389 . S
C249 C248 1.389 . S
C249 C250 1.387 . S
C250 H235 0.930 . S
C250 C245 1.390 . S
C250 C249 1.387 . S
H251 C263 0.930 . S
H252 C265 0.930 . S
H253 C266 0.930 . S
H254 C270 0.959 . S
H255 C270 0.959 . S
H256 C270 0.961 . S
H257 C271 0.960 . S
H258 C271 0.961 . S
H259 C271 0.959 . S
H260 C274 0.929 . S
H261 C275 0.931 . S
H262 C277 0.930 . S
C263 H251 0.930 . S
C263 C264 1.399 . S
C263 C268 1.399 . S
C264 C263 1.399 . S
C264 C265 1.376 . S
C265 H252 0.930 . S
C265 C264 1.376 . S
C265 C266 1.388 . S
C266 H253 0.930 . S
C266 C265 1.388 . S
C266 C267 1.390 . S
C267 C266 1.390 . S
C267 C268 1.394 . S
C267 C273 1.465 . S
C268 C263 1.399 . S
C268 C267 1.394 . S
C268 C269 1.516 . S
C269 C268 1.516 . S
C269 C270 1.502 . S
C269 C271 1.561 . S
C269 C272 1.526 . S
C270 H254 0.959 . S
C270 H255 0.959 . S
C270 H256 0.961 . S
C270 C269 1.502 . S
C271 H257 0.960 . S
C271 H258 0.961 . S
C271 H259 0.959 . S
C271 C269 1.561 . S
C272 C269 1.526 . S
C272 C273 1.396 . S
C272 C277 1.390 . S
C273 C267 1.465 . S
C273 C272 1.396 . S
C273 C274 1.399 . S
C274 H260 0.929 . S
C274 C273 1.399 . S
C274 C275 1.385 . S
C275 H261 0.931 . S
C275 C274 1.385 . S
C275 C276 1.389 . S
C276 C275 1.389 . S
C276 C277 1.387 . S
C277 H262 0.930 . S
C277 C272 1.390 . S
C277 C276 1.387 . S
H278 C290 0.930 . S
H279 C292 0.930 . S
H280 C293 0.930 . S
H281 C297 0.959 . S
H282 C297 0.959 . S
H283 C297 0.961 . S
H284 C298 0.960 . S
H285 C298 0.961 . S
H286 C298 0.959 . S
H287 C301 0.929 . S
H288 C302 0.931 . S
H289 C304 0.930 . S
C290 H278 0.930 . S
C290 C291 1.399 . S
C290 C295 1.399 . S
C291 C290 1.399 . S
C291 C292 1.376 . S
C292 H279 0.930 . S
C292 C291 1.376 . S
C292 C293 1.388 . S
C293 H280 0.930 . S
C293 C292 1.388 . S
C293 C294 1.390 . S
C294 C293 1.390 . S
C294 C295 1.394 . S
C294 C300 1.465 . S
C295 C290 1.399 . S
C295 C294 1.394 . S
C295 C296 1.516 . S
C296 C295 1.516 . S
C296 C297 1.502 . S
C296 C298 1.561 . S
C296 C299 1.526 . S
C297 H281 0.959 . S
C297 H282 0.959 . S
C297 H283 0.961 . S
C297 C296 1.502 . S
C298 H284 0.960 . S
C298 H285 0.961 . S
C298 H286 0.959 . S
C298 C296 1.561 . S
C299 C296 1.526 . S
C299 C300 1.396 . S
C299 C304 1.390 . S
C300 C294 1.465 . S
C300 C299 1.396 . S
C300 C301 1.399 . S
C301 H287 0.929 . S
C301 C300 1.399 . S
C301 C302 1.385 . S
C302 H288 0.931 . S
C302 C301 1.385 . S
C302 C303 1.389 . S
C303 C302 1.389 . S
C303 C304 1.387 . S
C304 H289 0.930 . S
C304 C299 1.390 . S
C304 C303 1.387 . S
H305 C317 0.930 . S
H306 C319 0.930 . S
H307 C320 0.930 . S
H308 C324 0.959 . S
H309 C324 0.959 . S
H310 C324 0.961 . S
H311 C325 0.960 . S
H312 C325 0.961 . S
H313 C325 0.959 . S
H314 C328 0.929 . S
H315 C329 0.931 . S
H316 C331 0.930 . S
C317 H305 0.930 . S
C317 C318 1.399 . S
C317 C322 1.399 . S
C318 C317 1.399 . S
C318 C319 1.376 . S
C319 H306 0.930 . S
C319 C318 1.376 . S
C319 C320 1.388 . S
C320 H307 0.930 . S
C320 C319 1.388 . S
C320 C321 1.390 . S
C321 C320 1.390 . S
C321 C322 1.394 . S
C321 C327 1.465 . S
C322 C317 1.399 . S
C322 C321 1.394 . S
C322 C323 1.516 . S
C323 C322 1.516 . S
C323 C324 1.502 . S
C323 C325 1.561 . S
C323 C326 1.526 . S
C324 H308 0.959 . S
C324 H309 0.959 . S
C324 H310 0.961 . S
C324 C323 1.502 . S
C325 H311 0.960 . S
C325 H312 0.961 . S
C325 H313 0.959 . S
C325 C323 1.561 . S
C326 C323 1.526 . S
C326 C327 1.396 . S
C326 C331 1.390 . S
C327 C321 1.465 . S
C327 C326 1.396 . S
C327 C328 1.399 . S
C328 H314 0.929 . S
C328 C327 1.399 . S
C328 C329 1.385 . S
C329 H315 0.931 . S
C329 C328 1.385 . S
C329 C330 1.389 . S
C330 C329 1.389 . S
C330 C331 1.387 . S
C331 H316 0.930 . S
C331 C326 1.390 . S
C331 C330 1.387 . S
H332 C344 0.930 . S
H333 C346 0.930 . S
H334 C347 0.930 . S
H335 C351 0.959 . S
H336 C351 0.959 . S
H337 C351 0.961 . S
H338 C352 0.960 . S
H339 C352 0.961 . S
H340 C352 0.959 . S
H341 C355 0.929 . S
H342 C356 0.931 . S
H343 C358 0.930 . S
C344 H332 0.930 . S
C344 C345 1.399 . S
C344 C349 1.399 . S
C345 C344 1.399 . S
C345 C346 1.376 . S
C346 H333 0.930 . S
C346 C345 1.376 . S
C346 C347 1.388 . S
C347 H334 0.930 . S
C347 C346 1.388 . S
C347 C348 1.390 . S
C348 C347 1.390 . S
C348 C349 1.394 . S
C348 C354 1.465 . S
C349 C344 1.399 . S
C349 C348 1.394 . S
C349 C350 1.516 . S
C350 C349 1.516 . S
C350 C351 1.502 . S
C350 C352 1.561 . S
C350 C353 1.526 . S
C351 H335 0.959 . S
C351 H336 0.959 . S
C351 H337 0.961 . S
C351 C350 1.502 . S
C352 H338 0.960 . S
C352 H339 0.961 . S
C352 H340 0.959 . S
C352 C350 1.561 . S
C353 C350 1.526 . S
C353 C354 1.396 . S
C353 C358 1.390 . S
C354 C348 1.465 . S
C354 C353 1.396 . S
C354 C355 1.399 . S
C355 H341 0.929 . S
C355 C354 1.399 . S
C355 C356 1.385 . S
C356 H342 0.931 . S
C356 C355 1.385 . S
C356 C357 1.389 . S
C357 C356 1.389 . S
C357 C358 1.387 . S
C358 H343 0.930 . S
C358 C353 1.390 . S
C358 C357 1.387 . S
H359 C371 0.930 . S
H360 C373 0.930 . S
H361 C374 0.930 . S
H362 C378 0.959 . S
H363 C378 0.959 . S
H364 C378 0.961 . S
H365 C379 0.960 . S
H366 C379 0.961 . S
H367 C379 0.959 . S
H368 C382 0.929 . S
H369 C383 0.931 . S
H370 C385 0.930 . S
C371 H359 0.930 . S
C371 C372 1.399 . S
C371 C376 1.399 . S
C372 C371 1.399 . S
C372 C373 1.376 . S
C373 H360 0.930 . S
C373 C372 1.376 . S
C373 C374 1.388 . S
C374 H361 0.930 . S
C374 C373 1.388 . S
C374 C375 1.390 . S
C375 C374 1.390 . S
C375 C376 1.394 . S
C375 C381 1.465 . S
C376 C371 1.399 . S
C376 C375 1.394 . S
C376 C377 1.516 . S
C377 C376 1.516 . S
C377 C378 1.502 . S
C377 C379 1.561 . S
C377 C380 1.526 . S
C378 H362 0.959 . S
C378 H363 0.959 . S
C378 H364 0.961 . S
C378 C377 1.502 . S
C379 H365 0.960 . S
C379 H366 0.961 . S
C379 H367 0.959 . S
C379 C377 1.561 . S
C380 C377 1.526 . S
C380 C381 1.396 . S
C380 C385 1.390 . S
C381 C375 1.465 . S
C381 C380 1.396 . S
C381 C382 1.399 . S
C382 H368 0.929 . S
C382 C381 1.399 . S
C382 C383 1.385 . S
C383 H369 0.931 . S
C383 C382 1.385 . S
C383 C384 1.389 . S
C384 C383 1.389 . S
C384 C385 1.387 . S
C385 H370 0.930 . S
C385 C380 1.390 . S
C385 C384 1.387 . S
H386 C398 0.930 . S
H387 C400 0.930 . S
H388 C401 0.930 . S
H389 C405 0.959 . S
H390 C405 0.959 . S
H391 C405 0.961 . S
H392 C406 0.960 . S
H393 C406 0.961 . S
H394 C406 0.959 . S
H395 C409 0.929 . S
H396 C410 0.931 . S
H397 C412 0.930 . S
C398 H386 0.930 . S
C398 C399 1.399 . S
C398 C403 1.399 . S
C399 C398 1.399 . S
C399 C400 1.376 . S
C400 H387 0.930 . S
C400 C399 1.376 . S
C400 C401 1.388 . S
C401 H388 0.930 . S
C401 C400 1.388 . S
C401 C402 1.390 . S
C402 C401 1.390 . S
C402 C403 1.394 . S
C402 C408 1.465 . S
C403 C398 1.399 . S
C403 C402 1.394 . S
C403 C404 1.516 . S
C404 C403 1.516 . S
C404 C405 1.502 . S
C404 C406 1.561 . S
C404 C407 1.526 . S
C405 H389 0.959 . S
C405 H390 0.959 . S
C405 H391 0.961 . S
C405 C404 1.502 . S
C406 H392 0.960 . S
C406 H393 0.961 . S
C406 H394 0.959 . S
C406 C404 1.561 . S
C407 C404 1.526 . S
C407 C408 1.396 . S
C407 C412 1.390 . S
C408 C402 1.465 . S
C408 C407 1.396 . S
C408 C409 1.399 . S
C409 H395 0.929 . S
C409 C408 1.399 . S
C409 C410 1.385 . S
C410 H396 0.931 . S
C410 C409 1.385 . S
C410 C411 1.389 . S
C411 C410 1.389 . S
C411 C412 1.387 . S
C412 H397 0.930 . S
C412 C407 1.390 . S
C412 C411 1.387 . S
H413 C425 0.930 . S
H414 C427 0.930 . S
H415 C428 0.930 . S
H416 C432 0.959 . S
H417 C432 0.959 . S
H418 C432 0.961 . S
H419 C433 0.960 . S
H420 C433 0.961 . S
H421 C433 0.959 . S
H422 C436 0.929 . S
H423 C437 0.931 . S
H424 C439 0.930 . S
C425 H413 0.930 . S
C425 C426 1.399 . S
C425 C430 1.399 . S
C426 C425 1.399 . S
C426 C427 1.376 . S
C427 H414 0.930 . S
C427 C426 1.376 . S
C427 C428 1.388 . S
C428 H415 0.930 . S
C428 C427 1.388 . S
C428 C429 1.390 . S
C429 C428 1.390 . S
C429 C430 1.394 . S
C429 C435 1.465 . S
C430 C425 1.399 . S
C430 C429 1.394 . S
C430 C431 1.516 . S
C431 C430 1.516 . S
C431 C432 1.502 . S
C431 C433 1.561 . S
C431 C434 1.526 . S
C432 H416 0.959 . S
C432 H417 0.959 . S
C432 H418 0.961 . S
C432 C431 1.502 . S
C433 H419 0.960 . S
C433 H420 0.961 . S
C433 H421 0.959 . S
C433 C431 1.561 . S
C434 C431 1.526 . S
C434 C435 1.396 . S
C434 C439 1.390 . S
C435 C429 1.465 . S
C435 C434 1.396 . S
C435 C436 1.399 . S
C436 H422 0.929 . S
C436 C435 1.399 . S
C436 C437 1.385 . S
C437 H423 0.931 . S
C437 C436 1.385 . S
C437 C438 1.389 . S
C438 C437 1.389 . S
C438 C439 1.387 . S
C439 H424 0.930 . S
C439 C434 1.390 . S
C439 C438 1.387 . S
H440 C452 0.930 . S
H441 C454 0.930 . S
H442 C455 0.930 . S
H443 C459 0.959 . S
H444 C459 0.959 1_554 S
H445 C459 0.961 . S
H446 C460 0.960 . S
H447 C460 0.961 1_554 S
H448 C460 0.959 1_554 S
H449 C463 0.929 . S
H450 C464 0.931 . S
H451 C466 0.930 . S
C452 H440 0.930 . S
C452 C453 1.399 . S
C452 C457 1.399 . S
C453 C452 1.399 . S
C453 C454 1.376 . S
C454 H441 0.930 . S
C454 C453 1.376 . S
C454 C455 1.388 . S
C455 H442 0.930 . S
C455 C454 1.388 . S
C455 C456 1.390 . S
C456 C455 1.390 . S
C456 C457 1.394 . S
C456 C462 1.465 1_556 S
C457 C452 1.399 . S
C457 C456 1.394 . S
C457 C458 1.516 . S
C458 C457 1.516 . S
C458 C459 1.502 . S
C458 C460 1.561 . S
C458 C461 1.526 1_556 S
C459 H443 0.959 . S
C459 H444 0.959 1_556 S
C459 H445 0.961 . S
C459 C458 1.502 . S
C460 H446 0.960 . S
C460 H447 0.961 1_556 S
C460 H448 0.959 1_556 S
C460 C458 1.561 . S
C461 C458 1.526 1_554 S
C461 C462 1.396 . S
C461 C466 1.390 . S
C462 C456 1.465 1_554 S
C462 C461 1.396 . S
C462 C463 1.399 . S
C463 H449 0.929 . S
C463 C462 1.399 . S
C463 C464 1.385 . S
C464 H450 0.931 . S
C464 C463 1.385 . S
C464 C465 1.389 . S
C465 C464 1.389 . S
C465 C466 1.387 . S
C466 H451 0.930 . S
C466 C461 1.390 . S
C466 C465 1.387 . S
H467 C479 0.930 . S
H468 C481 0.930 . S
H469 C482 0.930 . S
H470 C486 0.960 1_554 S
H471 C486 0.959 1_554 S
H472 C486 0.961 . S
H473 C487 0.960 . S
H474 C487 0.961 1_554 S
H475 C487 0.959 . S
H476 C490 0.929 . S
H477 C491 0.931 . S
H478 C493 0.930 . S
C479 H467 0.930 . S
C479 C480 1.399 . S
C479 C484 1.399 . S
C480 C479 1.399 . S
C480 C481 1.376 . S
C481 H468 0.930 . S
C481 C480 1.376 . S
C481 C482 1.388 . S
C482 H469 0.930 . S
C482 C481 1.388 . S
C482 C483 1.390 . S
C483 C482 1.390 . S
C483 C484 1.394 . S
C483 C489 1.465 1_556 S
C484 C479 1.399 . S
C484 C483 1.394 . S
C484 C485 1.516 . S
C485 C484 1.516 . S
C485 C486 1.502 . S
C485 C487 1.561 . S
C485 C488 1.526 1_556 S
C486 H470 0.960 1_556 S
C486 H471 0.959 1_556 S
C486 H472 0.961 . S
C486 C485 1.502 . S
C487 H473 0.960 . S
C487 H474 0.961 1_556 S
C487 H475 0.959 . S
C487 C485 1.561 . S
C488 C485 1.526 1_554 S
C488 C489 1.396 . S
C488 C493 1.390 . S
C489 C483 1.465 1_554 S
C489 C488 1.396 . S
C489 C490 1.399 . S
C490 H476 0.929 . S
C490 C489 1.399 . S
C490 C491 1.385 . S
C491 H477 0.931 . S
C491 C490 1.385 . S
C491 C492 1.389 . S
C492 C491 1.389 . S
C492 C493 1.387 . S
C493 H478 0.930 . S
C493 C488 1.390 . S
C493 C492 1.387 . S
H494 C506 0.930 . S
H495 C508 0.930 . S
H496 C509 0.930 . S
H497 C513 0.959 . S
H498 C513 0.959 1_554 S
H499 C513 0.961 . S
H500 C514 0.960 . S
H501 C514 0.961 1_554 S
H502 C514 0.955 1_554 S
H503 C517 0.929 . S
H504 C518 0.931 . S
H505 C520 0.930 . S
C506 H494 0.930 . S
C506 C507 1.399 . S
C506 C511 1.399 . S
C507 C506 1.399 . S
C507 C508 1.376 . S
C508 H495 0.930 . S
C508 C507 1.376 . S
C508 C509 1.388 . S
C509 H496 0.930 . S
C509 C508 1.388 . S
C509 C510 1.390 . S
C510 C509 1.390 . S
C510 C511 1.394 . S
C510 C516 1.465 1_556 S
C511 C506 1.399 . S
C511 C510 1.394 . S
C511 C512 1.516 . S
C512 C511 1.516 . S
C512 C513 1.502 . S
C512 C514 1.561 . S
C512 C515 1.526 1_556 S
C513 H497 0.959 . S
C513 H498 0.959 1_556 S
C513 H499 0.961 . S
C513 C512 1.502 . S
C514 H500 0.960 . S
C514 H501 0.961 1_556 S
C514 H502 0.955 1_556 S
C514 C512 1.561 . S
C515 C512 1.526 1_554 S
C515 C516 1.396 . S
C515 C520 1.390 . S
C516 C510 1.465 1_554 S
C516 C515 1.396 . S
C516 C517 1.399 . S
C517 H503 0.929 . S
C517 C516 1.399 . S
C517 C518 1.385 . S
C518 H504 0.931 . S
C518 C517 1.385 . S
C518 C519 1.389 . S
C519 C518 1.389 . S
C519 C520 1.387 . S
C520 H505 0.930 . S
C520 C515 1.390 . S
C520 C519 1.387 . S
H521 C533 0.930 . S
H522 C535 0.930 . S
H523 C536 0.930 . S
H524 C540 0.959 . S
H525 C540 0.959 1_556 S
H526 C540 0.961 . S
H527 C541 0.960 . S
H528 C541 0.961 1_556 S
H529 C541 0.957 1_556 S
H530 C544 0.929 . S
H531 C545 0.931 . S
H532 C547 0.930 . S
C533 H521 0.930 . S
C533 C534 1.399 . S
C533 C538 1.399 . S
C534 C533 1.399 . S
C534 C535 1.376 . S
C535 H522 0.930 . S
C535 C534 1.376 . S
C535 C536 1.388 . S
C536 H523 0.930 . S
C536 C535 1.388 . S
C536 C537 1.390 . S
C537 C536 1.390 . S
C537 C538 1.394 . S
C537 C543 1.465 1_554 S
C538 C533 1.399 . S
C538 C537 1.394 . S
C538 C539 1.516 . S
C539 C538 1.516 . S
C539 C540 1.502 . S
C539 C541 1.561 . S
C539 C542 1.526 1_554 S
C540 H524 0.959 . S
C540 H525 0.959 1_554 S
C540 H526 0.961 . S
C540 C539 1.502 . S
C541 H527 0.960 . S
C541 H528 0.961 1_554 S
C541 H529 0.957 1_554 S
C541 C539 1.561 . S
C542 C539 1.526 1_556 S
C542 C543 1.396 . S
C542 C547 1.390 . S
C543 C537 1.465 1_556 S
C543 C542 1.396 . S
C543 C544 1.399 . S
C544 H530 0.929 . S
C544 C543 1.399 . S
C544 C545 1.385 . S
C545 H531 0.931 . S
C545 C544 1.385 . S
C545 C546 1.389 . S
C546 C545 1.389 . S
C546 C547 1.387 . S
C547 H532 0.930 . S
C547 C542 1.390 . S
C547 C546 1.387 . S
H548 C560 0.930 . S
H549 C562 0.930 . S
H550 C563 0.930 . S
H551 C567 0.959 . S
H552 C567 0.959 . S
H553 C567 0.961 . S
H554 C568 0.960 . S
H555 C568 0.961 . S
H556 C568 0.959 . S
H557 C571 0.929 . S
H558 C572 0.931 . S
H559 C574 0.930 . S
C560 H548 0.930 . S
C560 C561 1.399 . S
C560 C565 1.399 . S
C561 C560 1.399 . S
C561 C562 1.376 . S
C562 H549 0.930 . S
C562 C561 1.376 . S
C562 C563 1.388 . S
C563 H550 0.930 . S
C563 C562 1.388 . S
C563 C564 1.390 . S
C564 C563 1.390 . S
C564 C565 1.394 . S
C564 C570 1.465 . S
C565 C560 1.399 . S
C565 C564 1.394 . S
C565 C566 1.516 . S
C566 C565 1.516 . S
C566 C567 1.502 . S
C566 C568 1.561 . S
C566 C569 1.526 . S
C567 H551 0.959 . S
C567 H552 0.959 . S
C567 H553 0.961 . S
C567 C566 1.502 . S
C568 H554 0.960 . S
C568 H555 0.961 . S
C568 H556 0.959 . S
C568 C566 1.561 . S
C569 C566 1.526 . S
C569 C570 1.396 . S
C569 C574 1.390 . S
C570 C564 1.465 . S
C570 C569 1.396 . S
C570 C571 1.399 . S
C571 H557 0.929 . S
C571 C570 1.399 . S
C571 C572 1.385 . S
C572 H558 0.931 . S
C572 C571 1.385 . S
C572 C573 1.389 . S
C573 C572 1.389 . S
C573 C574 1.387 . S
C574 H559 0.930 . S
C574 C569 1.390 . S
C574 C573 1.387 . S
H575 C587 0.930 . S
H576 C589 0.930 . S
H577 C590 0.930 . S
H578 C594 0.959 . S
H579 C594 0.959 . S
H580 C594 0.961 . S
H581 C595 0.960 . S
H582 C595 0.961 . S
H583 C595 0.959 . S
H584 C598 0.929 . S
H585 C599 0.931 . S
H586 C601 0.930 . S
C587 H575 0.930 . S
C587 C588 1.399 . S
C587 C592 1.399 . S
C588 C587 1.399 . S
C588 C589 1.376 . S
C589 H576 0.930 . S
C589 C588 1.376 . S
C589 C590 1.388 . S
C590 H577 0.930 . S
C590 C589 1.388 . S
C590 C591 1.390 . S
C591 C590 1.390 . S
C591 C592 1.394 . S
C591 C597 1.465 . S
C592 C587 1.399 . S
C592 C591 1.394 . S
C592 C593 1.516 . S
C593 C592 1.516 . S
C593 C594 1.502 . S
C593 C595 1.561 . S
C593 C596 1.526 . S
C594 H578 0.959 . S
C594 H579 0.959 . S
C594 H580 0.961 . S
C594 C593 1.502 . S
C595 H581 0.960 . S
C595 H582 0.961 . S
C595 H583 0.959 . S
C595 C593 1.561 . S
C596 C593 1.526 . S
C596 C597 1.396 . S
C596 C601 1.390 . S
C597 C591 1.465 . S
C597 C596 1.396 . S
C597 C598 1.399 . S
C598 H584 0.929 . S
C598 C597 1.399 . S
C598 C599 1.385 . S
C599 H585 0.931 . S
C599 C598 1.385 . S
C599 C600 1.389 . S
C600 C599 1.389 . S
C600 C601 1.387 . S
C601 H586 0.930 . S
C601 C596 1.390 . S
C601 C600 1.387 . S
H602 C614 0.930 . S
H603 C616 0.930 . S
H604 C617 0.930 . S
H605 C621 0.959 . S
H606 C621 0.959 . S
H607 C621 0.961 . S
H608 C622 0.960 . S
H609 C622 0.961 . S
H610 C622 0.959 . S
H611 C625 0.929 . S
H612 C626 0.931 . S
H613 C628 0.930 . S
C614 H602 0.930 . S
C614 C615 1.399 . S
C614 C619 1.399 . S
C615 C614 1.399 . S
C615 C616 1.376 . S
C616 H603 0.930 . S
C616 C615 1.376 . S
C616 C617 1.388 . S
C617 H604 0.930 . S
C617 C616 1.388 . S
C617 C618 1.390 . S
C618 C617 1.390 . S
C618 C619 1.394 . S
C618 C624 1.465 . S
C619 C614 1.399 . S
C619 C618 1.394 . S
C619 C620 1.516 . S
C620 C619 1.516 . S
C620 C621 1.502 . S
C620 C622 1.561 . S
C620 C623 1.526 . S
C621 H605 0.959 . S
C621 H606 0.959 . S
C621 H607 0.961 . S
C621 C620 1.502 . S
C622 H608 0.960 . S
C622 H609 0.961 . S
C622 H610 0.959 . S
C622 C620 1.561 . S
C623 C620 1.526 . S
C623 C624 1.396 . S
C623 C628 1.390 . S
C624 C618 1.465 . S
C624 C623 1.396 . S
C624 C625 1.399 . S
C625 H611 0.929 . S
C625 C624 1.399 . S
C625 C626 1.385 . S
C626 H612 0.931 . S
C626 C625 1.385 . S
C626 C627 1.389 . S
C627 C626 1.389 . S
C627 C628 1.387 . S
C628 H613 0.930 . S
C628 C623 1.390 . S
C628 C627 1.387 . S
H629 C641 0.930 . S
H630 C643 0.930 . S
H631 C644 0.930 . S
H632 C648 0.959 . S
H633 C648 0.959 . S
H634 C648 0.961 . S
H635 C649 0.960 . S
H636 C649 0.961 . S
H637 C649 0.959 . S
H638 C652 0.929 . S
H639 C653 0.931 . S
H640 C655 0.930 . S
C641 H629 0.930 . S
C641 C642 1.399 . S
C641 C646 1.399 . S
C642 C641 1.399 . S
C642 C643 1.376 . S
C643 H630 0.930 . S
C643 C642 1.376 . S
C643 C644 1.388 . S
C644 H631 0.930 . S
C644 C643 1.388 . S
C644 C645 1.390 . S
C645 C644 1.390 . S
C645 C646 1.394 . S
C645 C651 1.465 . S
C646 C641 1.399 . S
C646 C645 1.394 . S
C646 C647 1.516 . S
C647 C646 1.516 . S
C647 C648 1.502 . S
C647 C649 1.561 . S
C647 C650 1.526 . S
C648 H632 0.959 . S
C648 H633 0.959 . S
C648 H634 0.961 . S
C648 C647 1.502 . S
C649 H635 0.960 . S
C649 H636 0.961 . S
C649 H637 0.959 . S
C649 C647 1.561 . S
C650 C647 1.526 . S
C650 C651 1.396 . S
C650 C655 1.390 . S
C651 C645 1.465 . S
C651 C650 1.396 . S
C651 C652 1.399 . S
C652 H638 0.929 . S
C652 C651 1.399 . S
C652 C653 1.385 . S
C653 H639 0.931 . S
C653 C652 1.385 . S
C653 C654 1.389 . S
C654 C653 1.389 . S
C654 C655 1.387 . S
C655 H640 0.930 . S
C655 C650 1.390 . S
C655 C654 1.387 . S
H656 C668 0.930 . S
H657 C670 0.930 . S
H658 C671 0.930 . S
H659 C675 0.959 . S
H660 C675 0.959 . S
H661 C675 0.961 . S
H662 C676 0.960 . S
H663 C676 0.961 . S
H664 C676 0.959 . S
H665 C679 0.929 . S
H666 C680 0.931 . S
H667 C682 0.930 . S
C668 H656 0.930 . S
C668 C669 1.399 . S
C668 C673 1.399 . S
C669 C668 1.399 . S
C669 C670 1.376 . S
C670 H657 0.930 . S
C670 C669 1.376 . S
C670 C671 1.388 . S
C671 H658 0.930 . S
C671 C670 1.388 . S
C671 C672 1.390 . S
C672 C671 1.390 . S
C672 C673 1.394 . S
C672 C678 1.465 . S
C673 C668 1.399 . S
C673 C672 1.394 . S
C673 C674 1.516 . S
C674 C673 1.516 . S
C674 C675 1.502 . S
C674 C676 1.561 . S
C674 C677 1.526 . S
C675 H659 0.959 . S
C675 H660 0.959 . S
C675 H661 0.961 . S
C675 C674 1.502 . S
C676 H662 0.960 . S
C676 H663 0.961 . S
C676 H664 0.959 . S
C676 C674 1.561 . S
C677 C674 1.526 . S
C677 C678 1.396 . S
C677 C682 1.390 . S
C678 C672 1.465 . S
C678 C677 1.396 . S
C678 C679 1.399 . S
C679 H665 0.929 . S
C679 C678 1.399 . S
C679 C680 1.385 . S
C680 H666 0.931 . S
C680 C679 1.385 . S
C680 C681 1.389 . S
C681 C680 1.389 . S
C681 C682 1.387 . S
C682 H667 0.930 . S
C682 C677 1.390 . S
C682 C681 1.387 . S
H683 C695 0.930 . S
H684 C697 0.930 . S
H685 C698 0.930 . S
H686 C702 0.959 . S
H687 C702 0.959 . S
H688 C702 0.961 . S
H689 C703 0.960 . S
H690 C703 0.961 . S
H691 C703 0.959 . S
H692 C706 0.929 . S
H693 C707 0.931 . S
H694 C709 0.930 . S
C695 H683 0.930 . S
C695 C696 1.399 . S
C695 C700 1.399 . S
C696 C695 1.399 . S
C696 C697 1.376 . S
C697 H684 0.930 . S
C697 C696 1.376 . S
C697 C698 1.388 . S
C698 H685 0.930 . S
C698 C697 1.388 . S
C698 C699 1.390 . S
C699 C698 1.390 . S
C699 C700 1.394 . S
C699 C705 1.465 . S
C700 C695 1.399 . S
C700 C699 1.394 . S
C700 C701 1.516 . S
C701 C700 1.516 . S
C701 C702 1.502 . S
C701 C703 1.561 . S
C701 C704 1.526 . S
C702 H686 0.959 . S
C702 H687 0.959 . S
C702 H688 0.961 . S
C702 C701 1.502 . S
C703 H689 0.960 . S
C703 H690 0.961 . S
C703 H691 0.959 . S
C703 C701 1.561 . S
C704 C701 1.526 . S
C704 C705 1.396 . S
C704 C709 1.390 . S
C705 C699 1.465 . S
C705 C704 1.396 . S
C705 C706 1.399 . S
C706 H692 0.929 . S
C706 C705 1.399 . S
C706 C707 1.385 . S
C707 H693 0.931 . S
C707 C706 1.385 . S
C707 C708 1.389 . S
C708 C707 1.389 . S
C708 C709 1.387 . S
C709 H694 0.930 . S
C709 C704 1.390 . S
C709 C708 1.387 . S
H710 C722 0.930 . S
H711 C724 0.930 . S
H712 C725 0.930 . S
H713 C729 0.959 . S
H714 C729 0.959 . S
H715 C729 0.961 . S
H716 C730 0.960 . S
H717 C730 0.961 . S
H718 C730 0.959 . S
H719 C733 0.929 . S
H720 C734 0.931 . S
H721 C736 0.930 . S
C722 H710 0.930 . S
C722 C723 1.399 . S
C722 C727 1.399 . S
C723 C722 1.399 . S
C723 C724 1.376 . S
C724 H711 0.930 . S
C724 C723 1.376 . S
C724 C725 1.388 . S
C725 H712 0.930 . S
C725 C724 1.388 . S
C725 C726 1.390 . S
C726 C725 1.390 . S
C726 C727 1.394 . S
C726 C732 1.465 . S
C727 C722 1.399 . S
C727 C726 1.394 . S
C727 C728 1.516 . S
C728 C727 1.516 . S
C728 C729 1.502 . S
C728 C730 1.561 . S
C728 C731 1.526 . S
C729 H713 0.959 . S
C729 H714 0.959 . S
C729 H715 0.961 . S
C729 C728 1.502 . S
C730 H716 0.960 . S
C730 H717 0.961 . S
C730 H718 0.959 . S
C730 C728 1.561 . S
C731 C728 1.526 . S
C731 C732 1.396 . S
C731 C736 1.390 . S
C732 C726 1.465 . S
C732 C731 1.396 . S
C732 C733 1.399 . S
C733 H719 0.929 . S
C733 C732 1.399 . S
C733 C734 1.385 . S
C734 H720 0.931 . S
C734 C733 1.385 . S
C734 C735 1.389 . S
C735 C734 1.389 . S
C735 C736 1.387 . S
C736 H721 0.930 . S
C736 C731 1.390 . S
C736 C735 1.387 . S
H737 C749 0.930 . S
H738 C751 0.930 . S
H739 C752 0.930 . S
H740 C756 0.959 . S
H741 C756 0.959 . S
H742 C756 0.961 . S
H743 C757 0.960 . S
H744 C757 0.961 . S
H745 C757 0.959 . S
H746 C760 0.929 . S
H747 C761 0.931 . S
H748 C763 0.930 . S
C749 H737 0.930 . S
C749 C750 1.399 . S
C749 C754 1.399 . S
C750 C749 1.399 . S
C750 C751 1.376 . S
C751 H738 0.930 . S
C751 C750 1.376 . S
C751 C752 1.388 . S
C752 H739 0.930 . S
C752 C751 1.388 . S
C752 C753 1.390 . S
C753 C752 1.390 . S
C753 C754 1.394 . S
C753 C759 1.465 . S
C754 C749 1.399 . S
C754 C753 1.394 . S
C754 C755 1.516 . S
C755 C754 1.516 . S
C755 C756 1.502 . S
C755 C757 1.561 . S
C755 C758 1.526 . S
C756 H740 0.959 . S
C756 H741 0.959 . S
C756 H742 0.961 . S
C756 C755 1.502 . S
C757 H743 0.960 . S
C757 H744 0.961 . S
C757 H745 0.959 . S
C757 C755 1.561 . S
C758 C755 1.526 . S
C758 C759 1.396 . S
C758 C763 1.390 . S
C759 C753 1.465 . S
C759 C758 1.396 . S
C759 C760 1.399 . S
C760 H746 0.929 . S
C760 C759 1.399 . S
C760 C761 1.385 . S
C761 H747 0.931 . S
C761 C760 1.385 . S
C761 C762 1.389 . S
C762 C761 1.389 . S
C762 C763 1.387 . S
C763 H748 0.930 . S
C763 C758 1.390 . S
C763 C762 1.387 . S
H764 C776 0.930 . S
H765 C778 0.930 . S
H766 C779 0.930 . S
H767 C783 0.959 . S
H768 C783 0.959 . S
H769 C783 0.961 . S
H770 C784 0.960 . S
H771 C784 0.961 . S
H772 C784 0.959 . S
H773 C787 0.929 . S
H774 C788 0.931 . S
H775 C790 0.930 . S
C776 H764 0.930 . S
C776 C777 1.399 . S
C776 C781 1.399 . S
C777 C776 1.399 . S
C777 C778 1.376 . S
C778 H765 0.930 . S
C778 C777 1.376 . S
C778 C779 1.388 . S
C779 H766 0.930 . S
C779 C778 1.388 . S
C779 C780 1.390 . S
C780 C779 1.390 . S
C780 C781 1.394 . S
C780 C786 1.465 . S
C781 C776 1.399 . S
C781 C780 1.394 . S
C781 C782 1.516 . S
C782 C781 1.516 . S
C782 C783 1.502 . S
C782 C784 1.561 . S
C782 C785 1.526 . S
C783 H767 0.959 . S
C783 H768 0.959 . S
C783 H769 0.961 . S
C783 C782 1.502 . S
C784 H770 0.960 . S
C784 H771 0.961 . S
C784 H772 0.959 . S
C784 C782 1.561 . S
C785 C782 1.526 . S
C785 C786 1.396 . S
C785 C790 1.390 . S
C786 C780 1.465 . S
C786 C785 1.396 . S
C786 C787 1.399 . S
C787 H773 0.929 . S
C787 C786 1.399 . S
C787 C788 1.385 . S
C788 H774 0.931 . S
C788 C787 1.385 . S
C788 C789 1.389 . S
C789 C788 1.389 . S
C789 C790 1.387 . S
C790 H775 0.930 . S
C790 C785 1.390 . S
C790 C789 1.387 . S
H791 C803 0.930 . S
H792 C805 0.930 . S
H793 C806 0.930 . S
H794 C810 0.959 . S
H795 C810 0.959 . S
H796 C810 0.961 . S
H797 C811 0.960 . S
H798 C811 0.961 . S
H799 C811 0.959 . S
H800 C814 0.929 . S
H801 C815 0.931 . S
H802 C817 0.930 . S
C803 H791 0.930 . S
C803 C804 1.399 . S
C803 C808 1.399 . S
C804 C803 1.399 . S
C804 C805 1.376 . S
C805 H792 0.930 . S
C805 C804 1.376 . S
C805 C806 1.388 . S
C806 H793 0.930 . S
C806 C805 1.388 . S
C806 C807 1.390 . S
C807 C806 1.390 . S
C807 C808 1.394 . S
C807 C813 1.465 . S
C808 C803 1.399 . S
C808 C807 1.394 . S
C808 C809 1.516 . S
C809 C808 1.516 . S
C809 C810 1.502 . S
C809 C811 1.561 . S
C809 C812 1.526 . S
C810 H794 0.959 . S
C810 H795 0.959 . S
C810 H796 0.961 . S
C810 C809 1.502 . S
C811 H797 0.960 . S
C811 H798 0.961 . S
C811 H799 0.959 . S
C811 C809 1.561 . S
C812 C809 1.526 . S
C812 C813 1.396 . S
C812 C817 1.390 . S
C813 C807 1.465 . S
C813 C812 1.396 . S
C813 C814 1.399 . S
C814 H800 0.929 . S
C814 C813 1.399 . S
C814 C815 1.385 . S
C815 H801 0.931 . S
C815 C814 1.385 . S
C815 C816 1.389 . S
C816 C815 1.389 . S
C816 C817 1.387 . S
C817 H802 0.930 . S
C817 C812 1.390 . S
C817 C816 1.387 . S
H818 C830 0.930 . S
H819 C832 0.930 . S
H820 C833 0.930 . S
H821 C837 0.959 . S
H822 C837 0.959 . S
H823 C837 0.961 . S
H824 C838 0.960 . S
H825 C838 0.961 . S
H826 C838 0.959 . S
H827 C841 0.929 . S
H828 C842 0.931 . S
H829 C844 0.930 . S
C830 H818 0.930 . S
C830 C831 1.399 . S
C830 C835 1.399 . S
C831 C830 1.399 . S
C831 C832 1.376 . S
C832 H819 0.930 . S
C832 C831 1.376 . S
C832 C833 1.388 . S
C833 H820 0.930 . S
C833 C832 1.388 . S
C833 C834 1.390 . S
C834 C833 1.390 . S
C834 C835 1.394 . S
C834 C840 1.465 . S
C835 C830 1.399 . S
C835 C834 1.394 . S
C835 C836 1.516 . S
C836 C835 1.516 . S
C836 C837 1.502 . S
C836 C838 1.561 . S
C836 C839 1.526 . S
C837 H821 0.959 . S
C837 H822 0.959 . S
C837 H823 0.961 . S
C837 C836 1.502 . S
C838 H824 0.960 . S
C838 H825 0.961 . S
C838 H826 0.959 . S
C838 C836 1.561 . S
C839 C836 1.526 . S
C839 C840 1.396 . S
C839 C844 1.390 . S
C840 C834 1.465 . S
C840 C839 1.396 . S
C840 C841 1.399 . S
C841 H827 0.929 . S
C841 C840 1.399 . S
C841 C842 1.385 . S
C842 H828 0.931 . S
C842 C841 1.385 . S
C842 C843 1.389 . S
C843 C842 1.389 . S
C843 C844 1.387 . S
C844 H829 0.930 . S
C844 C839 1.390 . S
C844 C843 1.387 . S
H845 C857 0.930 . S
H846 C859 0.930 . S
H847 C860 0.930 . S
H848 C864 0.959 . S
H849 C864 0.959 . S
H850 C864 0.961 . S
H851 C865 0.960 . S
H852 C865 0.961 . S
H853 C865 0.959 . S
H854 C868 0.929 . S
H855 C869 0.931 . S
H856 C871 0.930 . S
C857 H845 0.930 . S
C857 C858 1.399 . S
C857 C862 1.399 . S
C858 C857 1.399 . S
C858 C859 1.376 . S
C859 H846 0.930 . S
C859 C858 1.376 . S
C859 C860 1.388 . S
C860 H847 0.930 . S
C860 C859 1.388 . S
C860 C861 1.390 . S
C861 C860 1.390 . S
C861 C862 1.394 . S
C861 C867 1.465 . S
C862 C857 1.399 . S
C862 C861 1.394 . S
C862 C863 1.516 . S
C863 C862 1.516 . S
C863 C864 1.502 . S
C863 C865 1.561 . S
C863 C866 1.526 . S
C864 H848 0.959 . S
C864 H849 0.959 . S
C864 H850 0.961 . S
C864 C863 1.502 . S
C865 H851 0.960 . S
C865 H852 0.961 . S
C865 H853 0.959 . S
C865 C863 1.561 . S
C866 C863 1.526 . S
C866 C867 1.396 . S
C866 C871 1.390 . S
C867 C861 1.465 . S
C867 C866 1.396 . S
C867 C868 1.399 . S
C868 H854 0.929 . S
C868 C867 1.399 . S
C868 C869 1.385 . S
C869 H855 0.931 . S
C869 C868 1.385 . S
C869 C870 1.389 . S
C870 C869 1.389 . S
C870 C871 1.387 . S
C871 H856 0.930 . S
C871 C866 1.390 . S
C871 C870 1.387 . S
H872 C884 0.930 . S
H873 C886 0.930 . S
H874 C887 0.930 . S
H875 C891 0.959 . S
H876 C891 0.959 . S
H877 C891 0.961 . S
H878 C892 0.960 . S
H879 C892 0.961 . S
H880 C892 0.959 . S
H881 C895 0.929 . S
H882 C896 0.931 . S
H883 C898 0.930 . S
C884 H872 0.930 . S
C884 C885 1.399 . S
C884 C889 1.399 . S
C885 C884 1.399 . S
C885 C886 1.376 . S
C886 H873 0.930 . S
C886 C885 1.376 . S
C886 C887 1.388 . S
C887 H874 0.930 . S
C887 C886 1.388 . S
C887 C888 1.390 . S
C888 C887 1.390 . S
C888 C889 1.394 . S
C888 C894 1.465 1_545 S
C889 C884 1.399 . S
C889 C888 1.394 . S
C889 C890 1.516 1_545 S
C890 C889 1.516 1_565 S
C890 C891 1.502 . S
C890 C892 1.561 . S
C890 C893 1.526 . S
C891 H875 0.959 . S
C891 H876 0.959 . S
C891 H877 0.961 . S
C891 C890 1.502 . S
C892 H878 0.960 . S
C892 H879 0.961 . S
C892 H880 0.959 . S
C892 C890 1.561 . S
C893 C890 1.526 . S
C893 C894 1.396 . S
C893 C898 1.390 . S
C894 C888 1.465 1_565 S
C894 C893 1.396 . S
C894 C895 1.399 . S
C895 H881 0.929 . S
C895 C894 1.399 . S
C895 C896 1.385 . S
C896 H882 0.931 . S
C896 C895 1.385 . S
C896 C897 1.389 . S
C897 C896 1.389 . S
C897 C898 1.387 . S
C898 H883 0.930 . S
C898 C893 1.390 . S
C898 C897 1.387 . S
H899 C911 0.930 . S
H900 C913 0.930 . S
H901 C914 0.930 . S
H902 C918 0.959 . S
H903 C918 0.950 1_455 S
H904 C918 0.961 . S
H905 C919 0.960 1_655 S
H906 C919 0.961 . S
H907 C919 0.959 . S
H908 C922 0.929 . S
H909 C923 0.931 . S
H910 C925 0.930 . S
C911 H899 0.930 . S
C911 C912 1.399 . S
C911 C916 1.399 . S
C912 C911 1.399 . S
C912 C913 1.376 . S
C913 H900 0.930 . S
C913 C912 1.376 . S
C913 C914 1.388 . S
C914 H901 0.930 . S
C914 C913 1.388 . S
C914 C915 1.390 . S
C915 C914 1.390 . S
C915 C916 1.394 . S
C915 C921 1.465 1_655 S
C916 C911 1.399 . S
C916 C915 1.394 . S
C916 C917 1.516 . S
C917 C916 1.516 . S
C917 C918 1.502 . S
C917 C919 1.561 1_655 S
C917 C920 1.526 1_655 S
C918 H902 0.959 . S
C918 H903 0.950 1_655 S
C918 H904 0.961 . S
C918 C917 1.502 . S
C919 H905 0.960 1_455 S
C919 H906 0.961 . S
C919 H907 0.959 . S
C919 C917 1.561 1_455 S
C920 C917 1.526 1_455 S
C920 C921 1.396 . S
C920 C925 1.390 . S
C921 C915 1.465 1_455 S
C921 C920 1.396 . S
C921 C922 1.399 . S
C922 H908 0.929 . S
C922 C921 1.399 . S
C922 C923 1.385 . S
C923 H909 0.931 . S
C923 C922 1.385 . S
C923 C924 1.389 . S
C924 C923 1.389 . S
C924 C925 1.387 . S
C925 H910 0.930 . S
C925 C920 1.390 . S
C925 C924 1.387 . S
H926 C938 0.930 . S
H927 C940 0.930 . S
H928 C941 0.930 . S
H929 C945 0.959 . S
H930 C945 0.959 . S
H931 C945 0.961 . S
H932 C946 0.960 . S
H933 C946 0.961 . S
H934 C946 0.959 . S
H935 C949 0.929 . S
H936 C950 0.931 . S
H937 C952 0.930 . S
C938 H926 0.930 . S
C938 C939 1.399 . S
C938 C943 1.399 . S
C939 C938 1.399 . S
C939 C940 1.376 . S
C940 H927 0.930 . S
C940 C939 1.376 . S
C940 C941 1.388 . S
C941 H928 0.930 . S
C941 C940 1.388 . S
C941 C942 1.390 . S
C942 C941 1.390 . S
C942 C943 1.394 . S
C942 C948 1.465 1_545 S
C943 C938 1.399 . S
C943 C942 1.394 . S
C943 C944 1.516 . S
C944 C943 1.516 . S
C944 C945 1.502 . S
C944 C946 1.561 . S
C944 C947 1.526 1_545 S
C945 H929 0.959 . S
C945 H930 0.959 . S
C945 H931 0.961 . S
C945 C944 1.502 . S
C946 H932 0.960 . S
C946 H933 0.961 . S
C946 H934 0.959 . S
C946 C944 1.561 . S
C947 C944 1.526 1_565 S
C947 C948 1.396 . S
C947 C952 1.390 . S
C948 C942 1.465 1_565 S
C948 C947 1.396 . S
C948 C949 1.399 . S
C949 H935 0.929 . S
C949 C948 1.399 . S
C949 C950 1.385 . S
C950 H936 0.931 . S
C950 C949 1.385 . S
C950 C951 1.389 . S
C951 C950 1.389 . S
C951 C952 1.387 . S
C952 H937 0.930 . S
C952 C947 1.390 . S
C952 C951 1.387 . S
H953 C965 0.930 . S
H954 C967 0.930 . S
H955 C968 0.930 . S
H956 C972 0.959 . S
H957 C972 0.959 . S
H958 C972 0.961 . S
H959 C973 0.960 . S
H960 C973 0.961 . S
H961 C973 0.959 . S
H962 C976 0.929 . S
H963 C977 0.931 . S
H964 C979 0.930 . S
C965 H953 0.930 . S
C965 C966 1.399 . S
C965 C970 1.399 . S
C966 C965 1.399 . S
C966 C967 1.376 . S
C967 H954 0.930 . S
C967 C966 1.376 . S
C967 C968 1.388 . S
C968 H955 0.930 . S
C968 C967 1.388 . S
C968 C969 1.390 . S
C969 C968 1.390 . S
C969 C970 1.394 . S
C969 C975 1.465 1_455 S
C970 C965 1.399 . S
C970 C969 1.394 . S
C970 C971 1.516 . S
C971 C970 1.516 . S
C971 C972 1.502 . S
C971 C973 1.561 . S
C971 C974 1.526 1_455 S
C972 H956 0.959 . S
C972 H957 0.959 . S
C972 H958 0.961 . S
C972 C971 1.502 . S
C973 H959 0.960 . S
C973 H960 0.961 . S
C973 H961 0.959 . S
C973 C971 1.561 . S
C974 C971 1.526 1_655 S
C974 C975 1.396 . S
C974 C979 1.390 . S
C975 C969 1.465 1_655 S
C975 C974 1.396 . S
C975 C976 1.399 . S
C976 H962 0.929 . S
C976 C975 1.399 . S
C976 C977 1.385 . S
C977 H963 0.931 . S
C977 C976 1.385 . S
C977 C978 1.389 . S
C978 C977 1.389 . S
C978 C979 1.387 . S
C979 H964 0.930 . S
C979 C974 1.390 . S
C979 C978 1.387 . S
H980 C992 0.930 . S
H981 C994 0.930 . S
H982 C995 0.906 1_565 S
H983 C999 0.959 . S
H984 C999 0.959 . S
H985 C999 0.961 . S
H986 C1000 0.960 . S
H987 C1000 0.961 . S
H988 C1000 0.959 . S
H989 C1003 0.929 . S
H990 C1004 0.931 . S
H991 C1006 0.930 . S
C992 H980 0.930 . S
C992 C993 1.399 . S
C992 C997 1.399 . S
C993 C992 1.399 . S
C993 C994 1.376 . S
C994 H981 0.930 . S
C994 C993 1.376 . S
C994 C995 1.388 . S
C995 H982 0.906 1_545 S
C995 C994 1.388 . S
C995 C996 1.390 . S
C996 C995 1.390 . S
C996 C997 1.394 . S
C996 C1002 1.465 1_545 S
C997 C992 1.399 . S
C997 C996 1.394 . S
C997 C998 1.516 . S
C998 C997 1.516 . S
C998 C999 1.502 . S
C998 C1000 1.561 . S
C998 C1001 1.526 1_545 S
C999 H983 0.959 . S
C999 H984 0.959 . S
C999 H985 0.961 . S
C999 C998 1.502 . S
C1000 H986 0.960 . S
C1000 H987 0.961 . S
C1000 H988 0.959 . S
C1000 C998 1.561 . S
C1001 C998 1.526 1_565 S
C1001 C1002 1.396 . S
C1001 C1006 1.390 . S
C1002 C996 1.465 1_565 S
C1002 C1001 1.396 . S
C1002 C1003 1.399 . S
C1003 H989 0.929 . S
C1003 C1002 1.399 . S
C1003 C1004 1.385 . S
C1004 H990 0.931 . S
C1004 C1003 1.385 . S
C1004 C1005 1.389 . S
C1005 C1004 1.389 . S
C1005 C1006 1.387 . S
C1006 H991 0.930 . S
C1006 C1001 1.390 . S
C1006 C1005 1.387 . S
H1007 C1019 0.930 . S
H1008 C1021 0.930 . S
H1009 C1022 0.930 . S
H1010 C1026 0.959 . S
H1011 C1026 0.959 . S
H1012 C1026 0.961 1_655 S
H1013 C1027 0.960 . S
H1014 C1027 0.961 1_455 S
H1015 C1027 0.959 . S
H1016 C1030 0.929 . S
H1017 C1031 0.931 . S
H1018 C1033 0.930 . S
C1019 H1007 0.930 . S
C1019 C1020 1.399 . S
C1019 C1024 1.399 . S
C1020 C1019 1.399 . S
C1020 C1021 1.376 . S
C1021 H1008 0.930 . S
C1021 C1020 1.376 . S
C1021 C1022 1.388 . S
C1022 H1009 0.930 . S
C1022 C1021 1.388 . S
C1022 C1023 1.390 . S
C1023 C1022 1.390 . S
C1023 C1024 1.394 . S
C1023 C1029 1.465 1_655 S
C1024 C1019 1.399 . S
C1024 C1023 1.394 . S
C1024 C1025 1.509 1_655 S
C1025 C1024 1.509 1_455 S
C1025 C1026 1.506 . S
C1025 C1027 1.557 1_455 S
C1025 C1028 1.532 . S
C1026 H1010 0.959 . S
C1026 H1011 0.959 . S
C1026 H1012 0.961 1_455 S
C1026 C1025 1.506 . S
C1027 H1013 0.960 . S
C1027 H1014 0.961 1_655 S
C1027 H1015 0.959 . S
C1027 C1025 1.557 1_655 S
C1028 C1025 1.532 . S
C1028 C1029 1.396 . S
C1028 C1033 1.390 . S
C1029 C1023 1.465 1_455 S
C1029 C1028 1.396 . S
C1029 C1030 1.399 . S
C1030 H1016 0.929 . S
C1030 C1029 1.399 . S
C1030 C1031 1.385 . S
C1031 H1017 0.931 . S
C1031 C1030 1.385 . S
C1031 C1032 1.389 . S
C1032 C1031 1.389 . S
C1032 C1033 1.387 . S
C1033 H1018 0.930 . S
C1033 C1028 1.390 . S
C1033 C1032 1.387 . S
H1034 C1046 0.930 . S
H1035 C1048 0.930 . S
H1036 C1049 0.930 . S
H1037 C1053 0.959 . S
H1038 C1053 0.959 . S
H1039 C1053 0.961 . S
H1040 C1054 0.960 . S
H1041 C1054 0.961 . S
H1042 C1054 0.959 . S
H1043 C1057 0.928 . S
H1044 C1058 0.931 . S
H1045 C1060 0.930 . S
C1046 H1034 0.930 . S
C1046 C1047 1.399 . S
C1046 C1051 1.399 . S
C1047 C1046 1.399 . S
C1047 C1048 1.376 . S
C1048 H1035 0.930 . S
C1048 C1047 1.376 . S
C1048 C1049 1.388 . S
C1049 H1036 0.930 . S
C1049 C1048 1.388 . S
C1049 C1050 1.390 . S
C1050 C1049 1.390 . S
C1050 C1051 1.394 . S
C1050 C1056 1.465 1_565 S
C1051 C1046 1.399 . S
C1051 C1050 1.394 . S
C1051 C1052 1.516 1_565 S
C1052 C1051 1.516 1_545 S
C1052 C1053 1.502 . S
C1052 C1054 1.561 . S
C1052 C1055 1.526 . S
C1053 H1037 0.959 . S
C1053 H1038 0.959 . S
C1053 H1039 0.961 . S
C1053 C1052 1.502 . S
C1054 H1040 0.960 . S
C1054 H1041 0.961 . S
C1054 H1042 0.959 . S
C1054 C1052 1.561 . S
C1055 C1052 1.526 . S
C1055 C1056 1.396 . S
C1055 C1060 1.390 . S
C1056 C1050 1.465 1_545 S
C1056 C1055 1.396 . S
C1056 C1057 1.399 . S
C1057 H1043 0.928 . S
C1057 C1056 1.399 . S
C1057 C1058 1.385 . S
C1058 H1044 0.931 . S
C1058 C1057 1.385 . S
C1058 C1059 1.389 . S
C1059 C1058 1.389 . S
C1059 C1060 1.387 . S
C1060 H1045 0.930 . S
C1060 C1055 1.390 . S
C1060 C1059 1.387 . S
H1061 C1073 0.930 . S
H1062 C1075 0.930 . S
H1063 C1076 0.930 . S
H1064 C1080 0.959 . S
H1065 C1080 0.959 1_655 S
H1066 C1080 0.961 . S
H1067 C1081 0.960 . S
H1068 C1081 0.961 . S
H1069 C1081 0.959 . S
H1070 C1084 0.929 . S
H1071 C1085 0.931 . S
H1072 C1087 0.930 . S
C1073 H1061 0.930 . S
C1073 C1074 1.399 . S
C1073 C1078 1.399 . S
C1074 C1073 1.399 . S
C1074 C1075 1.376 . S
C1075 H1062 0.930 . S
C1075 C1074 1.376 . S
C1075 C1076 1.388 . S
C1076 H1063 0.930 . S
C1076 C1075 1.388 . S
C1076 C1077 1.390 . S
C1077 C1076 1.390 . S
C1077 C1078 1.394 . S
C1077 C1083 1.465 1_455 S
C1078 C1073 1.399 . S
C1078 C1077 1.394 . S
C1078 C1079 1.516 1_455 S
C1079 C1078 1.516 1_655 S
C1079 C1080 1.502 1_655 S
C1079 C1081 1.561 . S
C1079 C1082 1.526 . S
C1080 H1064 0.959 . S
C1080 H1065 0.959 1_455 S
C1080 H1066 0.961 . S
C1080 C1079 1.502 1_455 S
C1081 H1067 0.960 . S
C1081 H1068 0.961 . S
C1081 H1069 0.959 . S
C1081 C1079 1.561 . S
C1082 C1079 1.526 . S
C1082 C1083 1.396 . S
C1082 C1087 1.390 . S
C1083 C1077 1.465 1_655 S
C1083 C1082 1.396 . S
C1083 C1084 1.399 . S
C1084 H1070 0.929 . S
C1084 C1083 1.399 . S
C1084 C1085 1.385 . S
C1085 H1071 0.931 . S
C1085 C1084 1.385 . S
C1085 C1086 1.389 . S
C1086 C1085 1.389 . S
C1086 C1087 1.387 . S
C1087 H1072 0.930 . S
C1087 C1082 1.390 . S
C1087 C1086 1.387 . S
C237 C76 1.597 . S
C249 C6 1.580 . S
C264 C90 1.597 . S
C276 C20 1.579 . S
C291 C34 1.595 . S
C303 C104 1.558 . S
C318 C48 1.583 . S
C330 C62 1.540 . S
C345 C188 1.559 . S
C357 C118 1.528 . S
C372 C202 1.596 . S
C384 C132 1.560 . S
C399 C146 1.544 . S
C411 C216 1.587 . S
C426 C160 1.549 . S
C438 C174 1.528 . S
C453 C147 1.467 . S
C465 C7 1.522 . S
C480 C161 1.466 . S
C492 C21 1.477 . S
C507 C119 1.465 . S
C519 C35 1.520 . S
C534 C49 1.464 . S
C546 C133 1.520 . S
C561 C203 1.513 . S
C573 C63 1.460 . S
C588 C217 1.465 . S
C600 C77 1.478 . S
C615 C91 1.469 . S
C627 C175 1.474 . S
C642 C189 1.511 . S
C654 C105 1.510 . S
C669 C64 0.507 . S
C681 C8 0.557 . S
C696 C22 0.551 . S
C708 C78 0.490 . S
C723 C36 0.490 . S
C735 C92 0.543 . S
C750 C106 0.517 . S
C762 C50 0.554 . S
C777 C121 2.309 . S
C789 C177 2.314 . S
C804 C191 2.318 . S
C816 C135 2.320 . S
C831 C149 2.320 . S
C843 C205 2.315 . S
C858 C219 2.316 . S
C870 C163 2.320 . S
C885 C162 0.494 . S
C897 C190 0.533 . S
C912 C120 0.532 . S
C924 C204 0.495 . S
C939 C218 0.559 . S
C951 C134 0.502 . S
C966 C148 0.559 . S
C978 C176 0.498 . S
C993 C79 2.310 . S
C1005 C51 2.317 . S
C1020 C93 2.311 . S
C1032 C9 2.309 . S
C1047 C107 2.319 . S
C1059 C23 2.314 . S
C1074 C65 2.319 . S
C1086 C37 2.320 . S
