# Generated by pormake.
# Topology lta, (4)-cn, num edge types: 1
# Building blocks:
#     Node 0, Type 0, BuildingBlock: UXUYUI_clean_sbu_0, # of connection points: 4
#     Node 1, Type 0, BuildingBlock: UXUYUI_clean_sbu_0, # of connection points: 4
#     Node 2, Type 0, BuildingBlock: UXUYUI_clean_sbu_0, # of connection points: 4
#     Node 3, Type 0, BuildingBlock: UXUYUI_clean_sbu_0, # of connection points: 4
#     Node 4, Type 0, BuildingBlock: UXUYUI_clean_sbu_0, # of connection points: 4
#     Node 5, Type 0, BuildingBlock: UXUYUI_clean_sbu_0, # of connection points: 4
#     Node 6, Type 0, BuildingBlock: UXUYUI_clean_sbu_0, # of connection points: 4
#     Node 7, Type 0, BuildingBlock: UXUYUI_clean_sbu_0, # of connection points: 4
#     Node 8, Type 0, BuildingBlock: UXUYUI_clean_sbu_0, # of connection points: 4
#     Node 9, Type 0, BuildingBlock: UXUYUI_clean_sbu_0, # of connection points: 4
#     Node 10, Type 0, BuildingBlock: UXUYUI_clean_sbu_0, # of connection points: 4
#     Node 11, Type 0, BuildingBlock: UXUYUI_clean_sbu_0, # of connection points: 4
#     Node 12, Type 0, BuildingBlock: UXUYUI_clean_sbu_0, # of connection points: 4
#     Node 13, Type 0, BuildingBlock: UXUYUI_clean_sbu_0, # of connection points: 4
#     Node 14, Type 0, BuildingBlock: UXUYUI_clean_sbu_0, # of connection points: 4
#     Node 15, Type 0, BuildingBlock: UXUYUI_clean_sbu_0, # of connection points: 4
#     Node 16, Type 0, BuildingBlock: UXUYUI_clean_sbu_0, # of connection points: 4
#     Node 17, Type 0, BuildingBlock: UXUYUI_clean_sbu_0, # of connection points: 4
#     Node 18, Type 0, BuildingBlock: UXUYUI_clean_sbu_0, # of connection points: 4
#     Node 19, Type 0, BuildingBlock: UXUYUI_clean_sbu_0, # of connection points: 4
#     Node 20, Type 0, BuildingBlock: UXUYUI_clean_sbu_0, # of connection points: 4
#     Node 21, Type 0, BuildingBlock: UXUYUI_clean_sbu_0, # of connection points: 4
#     Node 22, Type 0, BuildingBlock: UXUYUI_clean_sbu_0, # of connection points: 4
#     Node 23, Type 0, BuildingBlock: UXUYUI_clean_sbu_0, # of connection points: 4
#     Edge 24, Type (0, 0), BuildingBlock: CIFDUS_clean_linker_0, # of connection points: 2
#     Edge 25, Type (0, 0), BuildingBlock: CIFDUS_clean_linker_0, # of connection points: 2
#     Edge 26, Type (0, 0), BuildingBlock: CIFDUS_clean_linker_0, # of connection points: 2
#     Edge 27, Type (0, 0), BuildingBlock: CIFDUS_clean_linker_0, # of connection points: 2
#     Edge 28, Type (0, 0), BuildingBlock: CIFDUS_clean_linker_0, # of connection points: 2
#     Edge 29, Type (0, 0), BuildingBlock: CIFDUS_clean_linker_0, # of connection points: 2
#     Edge 30, Type (0, 0), BuildingBlock: CIFDUS_clean_linker_0, # of connection points: 2
#     Edge 31, Type (0, 0), BuildingBlock: CIFDUS_clean_linker_0, # of connection points: 2
#     Edge 32, Type (0, 0), BuildingBlock: CIFDUS_clean_linker_0, # of connection points: 2
#     Edge 33, Type (0, 0), BuildingBlock: CIFDUS_clean_linker_0, # of connection points: 2
#     Edge 34, Type (0, 0), BuildingBlock: CIFDUS_clean_linker_0, # of connection points: 2
#     Edge 35, Type (0, 0), BuildingBlock: CIFDUS_clean_linker_0, # of connection points: 2
#     Edge 36, Type (0, 0), BuildingBlock: CIFDUS_clean_linker_0, # of connection points: 2
#     Edge 37, Type (0, 0), BuildingBlock: CIFDUS_clean_linker_0, # of connection points: 2
#     Edge 38, Type (0, 0), BuildingBlock: CIFDUS_clean_linker_0, # of connection points: 2
#     Edge 39, Type (0, 0), BuildingBlock: CIFDUS_clean_linker_0, # of connection points: 2
#     Edge 40, Type (0, 0), BuildingBlock: CIFDUS_clean_linker_0, # of connection points: 2
#     Edge 41, Type (0, 0), BuildingBlock: CIFDUS_clean_linker_0, # of connection points: 2
#     Edge 42, Type (0, 0), BuildingBlock: CIFDUS_clean_linker_0, # of connection points: 2
#     Edge 43, Type (0, 0), BuildingBlock: CIFDUS_clean_linker_0, # of connection points: 2
#     Edge 44, Type (0, 0), BuildingBlock: CIFDUS_clean_linker_0, # of connection points: 2
#     Edge 45, Type (0, 0), BuildingBlock: CIFDUS_clean_linker_0, # of connection points: 2
#     Edge 46, Type (0, 0), BuildingBlock: CIFDUS_clean_linker_0, # of connection points: 2
#     Edge 47, Type (0, 0), BuildingBlock: CIFDUS_clean_linker_0, # of connection points: 2
#     Edge 48, Type (0, 0), BuildingBlock: CIFDUS_clean_linker_0, # of connection points: 2
#     Edge 49, Type (0, 0), BuildingBlock: CIFDUS_clean_linker_0, # of connection points: 2
#     Edge 50, Type (0, 0), BuildingBlock: CIFDUS_clean_linker_0, # of connection points: 2
#     Edge 51, Type (0, 0), BuildingBlock: CIFDUS_clean_linker_0, # of connection points: 2
#     Edge 52, Type (0, 0), BuildingBlock: CIFDUS_clean_linker_0, # of connection points: 2
#     Edge 53, Type (0, 0), BuildingBlock: CIFDUS_clean_linker_0, # of connection points: 2
#     Edge 54, Type (0, 0), BuildingBlock: CIFDUS_clean_linker_0, # of connection points: 2
#     Edge 55, Type (0, 0), BuildingBlock: CIFDUS_clean_linker_0, # of connection points: 2
#     Edge 56, Type (0, 0), BuildingBlock: CIFDUS_clean_linker_0, # of connection points: 2
#     Edge 57, Type (0, 0), BuildingBlock: CIFDUS_clean_linker_0, # of connection points: 2
#     Edge 58, Type (0, 0), BuildingBlock: CIFDUS_clean_linker_0, # of connection points: 2
#     Edge 59, Type (0, 0), BuildingBlock: CIFDUS_clean_linker_0, # of connection points: 2
#     Edge 60, Type (0, 0), BuildingBlock: CIFDUS_clean_linker_0, # of connection points: 2
#     Edge 61, Type (0, 0), BuildingBlock: CIFDUS_clean_linker_0, # of connection points: 2
#     Edge 62, Type (0, 0), BuildingBlock: CIFDUS_clean_linker_0, # of connection points: 2
#     Edge 63, Type (0, 0), BuildingBlock: CIFDUS_clean_linker_0, # of connection points: 2
#     Edge 64, Type (0, 0), BuildingBlock: CIFDUS_clean_linker_0, # of connection points: 2
#     Edge 65, Type (0, 0), BuildingBlock: CIFDUS_clean_linker_0, # of connection points: 2
#     Edge 66, Type (0, 0), BuildingBlock: CIFDUS_clean_linker_0, # of connection points: 2
#     Edge 67, Type (0, 0), BuildingBlock: CIFDUS_clean_linker_0, # of connection points: 2
#     Edge 68, Type (0, 0), BuildingBlock: CIFDUS_clean_linker_0, # of connection points: 2
#     Edge 69, Type (0, 0), BuildingBlock: CIFDUS_clean_linker_0, # of connection points: 2
#     Edge 70, Type (0, 0), BuildingBlock: CIFDUS_clean_linker_0, # of connection points: 2
#     Edge 71, Type (0, 0), BuildingBlock: CIFDUS_clean_linker_0, # of connection points: 2
# Relax obj value: 0.238
# Max RMSD: 0.085
# Mean RMSD: 0.085
data_MOF--net-lta--node1-UXUYUI_clean_sbu_0--edge1-CIFDUS_clean_linker_0
_symmetry_space_group_name_H-M    P1
_symmetry_Int_Tables_number       1
_symmetry_cell_setting            triclinic
loop_
_symmetry_equiv_pos_as_xyz
'x, y, z'
_cell_length_a     76.249388
_cell_length_b     76.27044
_cell_length_c     76.256636
_cell_angle_alpha  89.987323
_cell_angle_beta   90.03788
_cell_angle_gamma 90.009799
loop_
_atom_site_label
_atom_site_type_symbol
_atom_site_fract_x
_atom_site_fract_y
_atom_site_fract_z
_atom_type_partial_charge
Li0 Li 0.1264 0.3213 0.51586 0.0
Li1 Li 0.13671 0.29861 0.49619 0.0
Li2 Li 0.12327 0.3255 0.4837 0.0
Li3 Li 0.10563 0.30256 0.49791 0.0
C4 C 0.15567 0.33781 0.49979 0.0
N5 N 0.17642 0.36727 0.50385 0.0
C6 C 0.17372 0.33609 0.50253 0.0
C7 C 0.14825 0.35453 0.49888 0.0
C8 C 0.18397 0.35113 0.50463 0.0
C9 C 0.15892 0.36925 0.50101 0.0
C10 C 0.12983 0.28194 0.5252 0.0
C11 C 0.13495 0.25087 0.52796 0.0
N12 N 0.14761 0.25413 0.5401 0.0
C13 C 0.1428 0.285 0.53779 0.0
C14 C 0.12576 0.26476 0.52031 0.0
C15 C 0.15167 0.27075 0.54515 0.0
C16 C 0.11443 0.33621 0.54711 0.0
N17 N 0.12921 0.33302 0.5377 0.0
C18 C 0.14653 0.34897 0.55838 0.0
C19 C 0.14516 0.33868 0.5433 0.0
C20 C 0.13134 0.3533 0.56787 0.0
C21 C 0.11518 0.34638 0.56229 0.0
H22 H 0.10194 0.3313 0.54247 0.0
H23 H 0.1568 0.33558 0.53588 0.0
C24 C 0.1521 0.26787 0.4824 0.0
N25 N 0.15467 0.28167 0.49334 0.0
C26 C 0.16476 0.25478 0.48094 0.0
C27 C 0.18278 0.27067 0.50164 0.0
C28 C 0.16965 0.28334 0.50283 0.0
C29 C 0.18037 0.25604 0.49067 0.0
H30 H 0.14012 0.26685 0.47497 0.0
H31 H 0.17126 0.29439 0.51157 0.0
C32 C 0.09472 0.34269 0.50307 0.0
N33 N 0.07309 0.37175 0.50526 0.0
C34 C 0.07767 0.34209 0.49633 0.0
C35 C 0.10061 0.35803 0.51124 0.0
C36 C 0.06699 0.35692 0.49745 0.0
C37 C 0.08953 0.37258 0.51214 0.0
C38 C 0.1107 0.29163 0.46423 0.0
C39 C 0.10579 0.2996 0.44846 0.0
C40 C 0.10568 0.27431 0.46756 0.0
C41 C 0.0958 0.29014 0.43635 0.0
C42 C 0.09568 0.26531 0.45513 0.0
N43 N 0.09098 0.27335 0.43991 0.0
C44 C 0.13825 0.3474 0.45754 0.0
C45 C 0.10724 0.34815 0.45945 0.0
C46 C 0.13804 0.36002 0.44427 0.0
N47 N 0.12301 0.34203 0.46506 0.0
C48 C 0.1064 0.36075 0.44623 0.0
C49 C 0.12195 0.367 0.4386 0.0
H50 H 0.1506 0.34203 0.462 0.0
H51 H 0.0953 0.34314 0.46512 0.0
C52 C 0.07769 0.28195 0.51127 0.0
N53 N 0.08312 0.29192 0.49752 0.0
C54 C 0.06079 0.27483 0.51134 0.0
C55 C 0.05574 0.28792 0.48289 0.0
C56 C 0.07254 0.29502 0.48352 0.0
C57 C 0.04962 0.27788 0.49701 0.0
H58 H 0.08634 0.27983 0.52231 0.0
H59 H 0.07702 0.30333 0.47295 0.0
O60 O 0.14544 0.32317 0.4979 0.0
O61 O 0.12138 0.29573 0.51747 0.0
O62 O 0.10527 0.32813 0.50228 0.0
O63 O 0.12039 0.30077 0.47627 0.0
H64 H 0.17977 0.32328 0.50309 0.0
H65 H 0.13446 0.35613 0.49623 0.0
H66 H 0.19794 0.34998 0.50685 0.0
H67 H 0.15331 0.38226 0.50033 0.0
H68 H 0.13203 0.2375 0.52422 0.0
H69 H 0.14612 0.29823 0.54166 0.0
H70 H 0.11572 0.26219 0.51062 0.0
H71 H 0.16183 0.27292 0.55481 0.0
H72 H 0.15926 0.35403 0.56215 0.0
H73 H 0.10319 0.34906 0.5694 0.0
H74 H 0.16216 0.24364 0.47254 0.0
H75 H 0.19468 0.27235 0.5092 0.0
H76 H 0.07274 0.33036 0.49015 0.0
H77 H 0.1135 0.35871 0.51705 0.0
H78 H 0.05383 0.35664 0.49214 0.0
H79 H 0.09396 0.38451 0.51839 0.0
H80 H 0.10967 0.31292 0.44557 0.0
H81 H 0.10919 0.26799 0.47976 0.0
H82 H 0.09187 0.29617 0.42412 0.0
H83 H 0.09159 0.25195 0.45761 0.0
H84 H 0.15034 0.3645 0.43878 0.0
H85 H 0.0937 0.36545 0.44194 0.0
H86 H 0.0564 0.26726 0.52253 0.0
H87 H 0.04735 0.29089 0.47181 0.0
Li88 Li 0.69922 0.13476 0.50324 0.0
Li89 Li 0.67298 0.12549 0.51706 0.0
Li90 Li 0.69199 0.10451 0.5028 0.0
Li91 Li 0.67323 0.12489 0.48505 0.0
C92 C 0.71058 0.12485 0.53378 0.0
N93 N 0.73804 0.13799 0.5535 0.0
C94 C 0.70723 0.13547 0.54835 0.0
C95 C 0.72791 0.12087 0.52931 0.0
C96 C 0.72129 0.14198 0.55815 0.0
C97 C 0.7416 0.12767 0.53941 0.0
C98 C 0.66576 0.15913 0.50682 0.0
C99 C 0.64195 0.17966 0.50334 0.0
N100 N 0.64562 0.1865 0.5194 0.0
C101 C 0.6693 0.16638 0.52329 0.0
C102 C 0.65196 0.16581 0.49676 0.0
C103 C 0.65897 0.18019 0.52942 0.0
C104 C 0.73071 0.14981 0.49091 0.0
N105 N 0.71804 0.15116 0.50337 0.0
C106 C 0.73262 0.17559 0.51644 0.0
C107 C 0.71865 0.16384 0.51587 0.0
C108 C 0.74596 0.17443 0.50384 0.0
C109 C 0.74488 0.16141 0.49088 0.0
H110 H 0.72983 0.13974 0.481 0.0
H111 H 0.7084 0.16477 0.52554 0.0
C112 C 0.66137 0.12077 0.55193 0.0
N113 N 0.65703 0.12813 0.53628 0.0
C114 C 0.64989 0.12183 0.56615 0.0
C115 C 0.62955 0.13778 0.54781 0.0
C116 C 0.64131 0.13619 0.53391 0.0
C117 C 0.63374 0.13052 0.56423 0.0
H118 H 0.67364 0.11379 0.55327 0.0
H119 H 0.63776 0.14125 0.52117 0.0
C120 C 0.70712 0.10719 0.47199 0.0
N121 N 0.72347 0.08175 0.45204 0.0
C122 C 0.69847 0.09976 0.45763 0.0
C123 C 0.72416 0.1018 0.47608 0.0
C124 C 0.70695 0.08689 0.44773 0.0
C125 C 0.73218 0.08888 0.46588 0.0
C126 C 0.65307 0.09802 0.51012 0.0
C127 C 0.65715 0.08568 0.52304 0.0
C128 C 0.63559 0.10265 0.50715 0.0
C129 C 0.64361 0.0782 0.53286 0.0
C130 C 0.62243 0.09488 0.51725 0.0
N131 N 0.62669 0.08293 0.5298 0.0
C132 C 0.71296 0.07544 0.51383 0.0
C133 C 0.6924 0.07 0.49114 0.0
C134 C 0.71856 0.05801 0.51335 0.0
N135 N 0.70017 0.08105 0.50275 0.0
C136 C 0.6976 0.05253 0.49018 0.0
C137 C 0.71084 0.04631 0.50139 0.0
H138 H 0.71871 0.08443 0.52314 0.0
H139 H 0.68205 0.0748 0.4827 0.0
C140 C 0.66174 0.14156 0.45375 0.0
N141 N 0.65986 0.12735 0.46433 0.0
C142 C 0.6514 0.14326 0.4387 0.0
C143 C 0.63772 0.11551 0.44565 0.0
C144 C 0.64831 0.11435 0.4605 0.0
C145 C 0.63911 0.13014 0.43454 0.0
H146 H 0.67117 0.15162 0.4571 0.0
H147 H 0.64726 0.1031 0.46906 0.0
O148 O 0.69699 0.1185 0.52389 0.0
O149 O 0.6757 0.14559 0.50052 0.0
O150 O 0.69886 0.11949 0.48211 0.0
O151 O 0.66619 0.10589 0.50077 0.0
H152 H 0.69396 0.13889 0.55194 0.0
H153 H 0.73078 0.11285 0.51799 0.0
H154 H 0.71888 0.15028 0.56939 0.0
H155 H 0.75506 0.12479 0.536 0.0
H156 H 0.63122 0.18495 0.4957 0.0
H157 H 0.67956 0.16106 0.53147 0.0
H158 H 0.64897 0.16033 0.48403 0.0
H159 H 0.66148 0.18582 0.5422 0.0
H160 H 0.73285 0.18563 0.52648 0.0
H161 H 0.75495 0.16009 0.48096 0.0
H162 H 0.65351 0.11561 0.57838 0.0
H163 H 0.61733 0.14468 0.54566 0.0
H164 H 0.68529 0.10375 0.45425 0.0
H165 H 0.73106 0.10739 0.48714 0.0
H166 H 0.70036 0.08096 0.43665 0.0
H167 H 0.74531 0.08449 0.46899 0.0
H168 H 0.67064 0.08208 0.52561 0.0
H169 H 0.63224 0.11235 0.49735 0.0
H170 H 0.64657 0.06869 0.54297 0.0
H171 H 0.60885 0.09842 0.51519 0.0
H172 H 0.7288 0.05374 0.52222 0.0
H173 H 0.691 0.04388 0.48105 0.0
H174 H 0.65303 0.15467 0.4304 0.0
H175 H 0.62828 0.1052 0.44313 0.0
Li176 Li 0.85571 0.69292 0.4913 0.0
Li177 Li 0.86556 0.66867 0.50964 0.0
Li178 Li 0.88549 0.68673 0.49234 0.0
Li179 Li 0.86482 0.66689 0.47675 0.0
C180 C 0.88216 0.70446 0.52126 0.0
N181 N 0.90644 0.7253 0.53831 0.0
C182 C 0.88992 0.69872 0.53684 0.0
C183 C 0.8865 0.72095 0.51455 0.0
C184 C 0.90223 0.70941 0.54522 0.0
C185 C 0.89888 0.73125 0.52329 0.0
C186 C 0.82839 0.67359 0.49849 0.0
C187 C 0.79737 0.67626 0.49278 0.0
N188 N 0.7953 0.68459 0.50841 0.0
C189 C 0.82591 0.68209 0.51456 0.0
C190 C 0.81399 0.67059 0.48754 0.0
C191 C 0.80909 0.68758 0.51931 0.0
C192 C 0.82691 0.71174 0.47676 0.0
N193 N 0.83891 0.71146 0.48996 0.0
C194 C 0.82655 0.73732 0.50254 0.0
C195 C 0.8389 0.72384 0.50277 0.0
C196 C 0.81416 0.73805 0.48894 0.0
C197 C 0.81444 0.72508 0.4759 0.0
H198 H 0.82691 0.70148 0.46699 0.0
H199 H 0.84834 0.72313 0.51331 0.0
C200 C 0.87912 0.65059 0.53859 0.0
N201 N 0.86391 0.65455 0.53018 0.0
C202 C 0.87904 0.63949 0.55313 0.0
C203 C 0.84763 0.63655 0.55001 0.0
C204 C 0.84834 0.64766 0.53547 0.0
C205 C 0.86314 0.63228 0.55903 0.0
H206 H 0.89139 0.65581 0.53376 0.0
H207 H 0.8365 0.65048 0.52826 0.0
C208 C 0.86517 0.70284 0.4591 0.0
N209 N 0.85147 0.72664 0.43541 0.0
C210 C 0.85595 0.69696 0.44438 0.0
C211 C 0.86765 0.72083 0.4616 0.0
C212 C 0.84908 0.70919 0.43259 0.0
C213 C 0.86055 0.73265 0.44954 0.0
C214 C 0.88706 0.64327 0.49521 0.0
C215 C 0.90403 0.6368 0.49763 0.0
C216 C 0.87286 0.63166 0.49486 0.0
C217 C 0.90654 0.61876 0.4996 0.0
C218 C 0.87592 0.61372 0.49687 0.0
N219 N 0.89255 0.60769 0.49918 0.0
C220 C 0.92047 0.68841 0.50358 0.0
C221 C 0.91375 0.70729 0.4798 0.0
C222 C 0.938 0.69366 0.50321 0.0
N223 N 0.90884 0.69519 0.49191 0.0
C224 C 0.93115 0.71291 0.47894 0.0
C225 C 0.94358 0.70592 0.49062 0.0
H226 H 0.91616 0.6787 0.51298 0.0
H227 H 0.90423 0.71237 0.47062 0.0
C228 C 0.84703 0.6475 0.45022 0.0
N229 N 0.86287 0.65109 0.45756 0.0
C230 C 0.84576 0.63567 0.43631 0.0
C231 C 0.87714 0.63143 0.43781 0.0
C232 C 0.87781 0.64351 0.45153 0.0
C233 C 0.86094 0.62732 0.42998 0.0
H234 H 0.83542 0.65394 0.45507 0.0
H235 H 0.89026 0.6467 0.45752 0.0
O236 O 0.87033 0.69403 0.51265 0.0
O237 O 0.84489 0.66861 0.49344 0.0
O238 O 0.87194 0.69102 0.47081 0.0
O239 O 0.88439 0.66092 0.49355 0.0
H240 H 0.88648 0.68619 0.54244 0.0
H241 H 0.88049 0.72569 0.50263 0.0
H242 H 0.90841 0.70507 0.55723 0.0
H243 H 0.90247 0.74396 0.51814 0.0
H244 H 0.78614 0.67409 0.48439 0.0
H245 H 0.8369 0.68463 0.52317 0.0
H246 H 0.81557 0.66407 0.47508 0.0
H247 H 0.80703 0.69427 0.53164 0.0
H248 H 0.82676 0.74713 0.5128 0.0
H249 H 0.80491 0.72506 0.46537 0.0
H250 H 0.89137 0.63625 0.5594 0.0
H251 H 0.83508 0.63134 0.55411 0.0
H252 H 0.85405 0.68312 0.44209 0.0
H253 H 0.87484 0.72565 0.47281 0.0
H254 H 0.84183 0.70481 0.4212 0.0
H255 H 0.86224 0.74661 0.45142 0.0
H256 H 0.91513 0.64564 0.49802 0.0
H257 H 0.85962 0.63645 0.49311 0.0
H258 H 0.9196 0.61356 0.50148 0.0
H259 H 0.86507 0.60459 0.49663 0.0
H260 H 0.94718 0.68771 0.51227 0.0
H261 H 0.93487 0.72247 0.46912 0.0
H262 H 0.83304 0.6332 0.4305 0.0
H263 H 0.88917 0.62517 0.43361 0.0
Li264 Li 0.32641 0.87078 0.51596 0.0
Li265 Li 0.30043 0.85885 0.50145 0.0
Li266 Li 0.32626 0.86909 0.48351 0.0
Li267 Li 0.30621 0.88955 0.498 0.0
C268 C 0.3357 0.83594 0.50493 0.0
N269 N 0.35768 0.80834 0.51328 0.0
C270 C 0.32914 0.82124 0.51369 0.0
C271 C 0.3534 0.83646 0.50018 0.0
C272 C 0.34047 0.80746 0.51787 0.0
C273 C 0.36431 0.82242 0.50458 0.0
C274 C 0.28928 0.8721 0.53234 0.0
C275 C 0.25911 0.86925 0.54138 0.0
N276 N 0.26451 0.86172 0.55663 0.0
C277 C 0.29454 0.86447 0.54816 0.0
C278 C 0.27144 0.87466 0.52896 0.0
C279 C 0.2818 0.85927 0.56026 0.0
C280 C 0.34644 0.88688 0.54175 0.0
N281 N 0.34131 0.87083 0.53599 0.0
C282 C 0.35936 0.85677 0.55741 0.0
C283 C 0.34715 0.8559 0.54379 0.0
C284 C 0.36546 0.87318 0.56317 0.0
C285 C 0.35855 0.88838 0.55537 0.0
H286 H 0.34138 0.89855 0.53546 0.0
H287 H 0.3426 0.84329 0.53933 0.0
C288 C 0.27193 0.83944 0.48875 0.0
N289 N 0.28243 0.84171 0.50297 0.0
C290 C 0.25828 0.82729 0.48922 0.0
C291 C 0.26653 0.81997 0.51895 0.0
C292 C 0.28013 0.83215 0.51784 0.0
C293 C 0.25541 0.81744 0.5045 0.0
H294 H 0.27415 0.84708 0.47702 0.0
H295 H 0.28885 0.83396 0.52885 0.0
C296 C 0.34847 0.89636 0.49625 0.0
N297 N 0.38152 0.91051 0.49156 0.0
C298 C 0.35038 0.91331 0.48954 0.0
C299 C 0.36338 0.88672 0.50081 0.0
C300 C 0.3672 0.9202 0.48718 0.0
C301 C 0.37996 0.89407 0.49829 0.0
C302 C 0.29022 0.88184 0.46816 0.0
C303 C 0.29662 0.88776 0.45205 0.0
C304 C 0.27302 0.88579 0.4731 0.0
C305 C 0.28576 0.89781 0.44124 0.0
C306 C 0.26258 0.89589 0.46193 0.0
N307 N 0.26912 0.90166 0.44637 0.0
C308 C 0.34451 0.84912 0.45795 0.0
C309 C 0.34699 0.87996 0.45512 0.0
C310 C 0.35616 0.84661 0.44404 0.0
N311 N 0.34053 0.86559 0.46344 0.0
C312 C 0.35866 0.87809 0.44119 0.0
C313 C 0.3636 0.86124 0.43564 0.0
H314 H 0.33889 0.83792 0.46458 0.0
H315 H 0.34323 0.89291 0.45945 0.0
C316 C 0.28634 0.91902 0.50886 0.0
N317 N 0.29665 0.91237 0.49594 0.0
C318 C 0.28054 0.93637 0.50798 0.0
C319 C 0.2957 0.93946 0.4803 0.0
C320 C 0.30128 0.92213 0.48178 0.0
C321 C 0.28543 0.94688 0.49366 0.0
H322 H 0.28301 0.911 0.52007 0.0
H323 H 0.30976 0.91659 0.47187 0.0
O324 O 0.32475 0.84955 0.50075 0.0
O325 O 0.30155 0.8772 0.52031 0.0
O326 O 0.33207 0.88941 0.49858 0.0
O327 O 0.30073 0.87218 0.47903 0.0
H328 H 0.31547 0.82049 0.51732 0.0
H329 H 0.35866 0.84747 0.493 0.0
H330 H 0.33557 0.79606 0.52474 0.0
H331 H 0.37804 0.82269 0.50101 0.0
H332 H 0.24526 0.87103 0.53889 0.0
H333 H 0.30829 0.86248 0.55101 0.0
H334 H 0.26716 0.88065 0.51685 0.0
H335 H 0.28567 0.85326 0.57251 0.0
H336 H 0.36436 0.8447 0.56297 0.0
H337 H 0.36258 0.90132 0.55963 0.0
H338 H 0.24991 0.82577 0.47783 0.0
H339 H 0.26487 0.81243 0.53088 0.0
H340 H 0.33901 0.92106 0.48612 0.0
H341 H 0.36217 0.87381 0.50645 0.0
H342 H 0.36886 0.93326 0.4819 0.0
H343 H 0.3916 0.88673 0.50176 0.0
H344 H 0.30986 0.88471 0.44798 0.0
H345 H 0.26784 0.88119 0.48546 0.0
H346 H 0.29057 0.90257 0.42877 0.0
H347 H 0.24928 0.89915 0.46563 0.0
H348 H 0.35937 0.8334 0.43998 0.0
H349 H 0.36413 0.88974 0.4352 0.0
H350 H 0.2726 0.9416 0.51853 0.0
H351 H 0.30004 0.9472 0.46921 0.0
Li352 Li 0.10587 0.69567 0.49561 0.0
Li353 Li 0.12662 0.67552 0.50917 0.0
Li354 Li 0.13705 0.70219 0.49394 0.0
Li355 Li 0.12539 0.67757 0.47729 0.0
C356 C 0.11416 0.70164 0.53154 0.0
N357 N 0.09813 0.70337 0.56397 0.0
C358 C 0.09867 0.69238 0.53466 0.0
C359 C 0.1215 0.71181 0.5449 0.0
C360 C 0.09076 0.69341 0.55114 0.0
C361 C 0.1132 0.71251 0.56122 0.0
C362 C 0.10036 0.65349 0.49579 0.0
C363 C 0.10391 0.62212 0.49408 0.0
N364 N 0.08752 0.61999 0.5008 0.0
C365 C 0.08349 0.65099 0.50253 0.0
C366 C 0.11061 0.63896 0.49142 0.0
C367 C 0.07727 0.63395 0.50502 0.0
C368 C 0.07142 0.69571 0.48549 0.0
N369 N 0.08264 0.70437 0.49625 0.0
C370 C 0.0592 0.72163 0.50783 0.0
C371 C 0.07703 0.71741 0.50704 0.0
C372 C 0.04721 0.71244 0.49724 0.0
C373 C 0.05358 0.69954 0.48576 0.0
H374 H 0.07632 0.68542 0.47705 0.0
H375 H 0.08631 0.72419 0.51536 0.0
C376 C 0.14742 0.65569 0.53271 0.0
N377 N 0.13066 0.65973 0.52813 0.0
C378 C 0.1507 0.64321 0.54574 0.0
C379 C 0.11942 0.63984 0.54954 0.0
C380 C 0.11677 0.65227 0.53643 0.0
C381 C 0.13656 0.63492 0.55416 0.0
H382 H 0.15825 0.66193 0.52602 0.0
H383 H 0.10357 0.65578 0.5328 0.0
C384 C 0.11523 0.7198 0.47038 0.0
N385 N 0.10631 0.75394 0.46217 0.0
C386 C 0.11169 0.72447 0.45302 0.0
C387 C 0.11419 0.73248 0.48358 0.0
C388 C 0.10722 0.74181 0.44913 0.0
C389 C 0.10967 0.74966 0.47916 0.0
C390 C 0.1606 0.66949 0.48636 0.0
C391 C 0.17394 0.67882 0.47792 0.0
C392 C 0.16217 0.65136 0.48847 0.0
C393 C 0.18847 0.66976 0.4714 0.0
C394 C 0.1769 0.64278 0.48176 0.0
N395 N 0.18962 0.65208 0.47342 0.0
C396 C 0.16337 0.72312 0.50886 0.0
C397 C 0.15869 0.72779 0.47847 0.0
C398 C 0.17706 0.73527 0.50893 0.0
N399 N 0.15458 0.71965 0.49376 0.0
C400 C 0.17217 0.74012 0.47796 0.0
C401 C 0.18166 0.74392 0.49331 0.0
H402 H 0.15994 0.71619 0.52075 0.0
H403 H 0.15168 0.72453 0.46659 0.0
C404 C 0.11095 0.65702 0.45076 0.0
N405 N 0.12623 0.66457 0.45601 0.0
C406 C 0.11052 0.64643 0.43587 0.0
C407 C 0.1414 0.65216 0.43159 0.0
C408 C 0.1412 0.66274 0.44652 0.0
C409 C 0.12596 0.64366 0.42624 0.0
H410 H 0.09913 0.65901 0.45832 0.0
H411 H 0.15301 0.6694 0.45051 0.0
O412 O 0.1222 0.70082 0.51553 0.0
O413 O 0.1067 0.6701 0.49343 0.0
O414 O 0.11955 0.70284 0.47434 0.0
O415 O 0.14633 0.67817 0.49291 0.0
H416 H 0.09279 0.68447 0.52447 0.0
H417 H 0.13348 0.71908 0.54268 0.0
H418 H 0.07876 0.6863 0.55373 0.0
H419 H 0.11873 0.72032 0.57168 0.0
H420 H 0.11172 0.61076 0.49078 0.0
H421 H 0.07536 0.66211 0.50594 0.0
H422 H 0.12354 0.64067 0.48591 0.0
H423 H 0.06429 0.63182 0.51033 0.0
H424 H 0.05481 0.73175 0.51675 0.0
H425 H 0.0448 0.69194 0.47758 0.0
H426 H 0.16413 0.63978 0.54887 0.0
H427 H 0.10813 0.63411 0.55596 0.0
H428 H 0.11241 0.7148 0.44266 0.0
H429 H 0.11687 0.72913 0.4971 0.0
H430 H 0.10446 0.74562 0.43574 0.0
H431 H 0.10883 0.7596 0.48924 0.0
H432 H 0.17303 0.69286 0.47627 0.0
H433 H 0.15221 0.64397 0.49533 0.0
H434 H 0.19883 0.6768 0.46473 0.0
H435 H 0.17824 0.62874 0.48325 0.0
H436 H 0.18419 0.73757 0.521 0.0
H437 H 0.17511 0.74661 0.46568 0.0
H438 H 0.09835 0.64006 0.43223 0.0
H439 H 0.1535 0.65061 0.42431 0.0
Li440 Li 0.32317 0.13105 0.51325 0.0
Li441 Li 0.30361 0.10872 0.49895 0.0
Li442 Li 0.32324 0.12929 0.48185 0.0
Li443 Li 0.29801 0.13986 0.49666 0.0
C444 C 0.3425 0.10283 0.50876 0.0
N445 N 0.36761 0.08814 0.53041 0.0
C446 C 0.33871 0.08765 0.5183 0.0
C447 C 0.35913 0.11046 0.51014 0.0
C448 C 0.35158 0.08043 0.52918 0.0
C449 C 0.37162 0.10288 0.5212 0.0
C450 C 0.28542 0.13216 0.52793 0.0
C451 C 0.25482 0.13436 0.53557 0.0
N452 N 0.25863 0.14796 0.54646 0.0
C453 C 0.28907 0.14608 0.53927 0.0
C454 C 0.2682 0.12617 0.5261 0.0
C455 C 0.27533 0.15393 0.5485 0.0
C456 C 0.34829 0.14887 0.53373 0.0
N457 N 0.337 0.1351 0.53352 0.0
C458 C 0.34815 0.12469 0.56087 0.0
C459 C 0.3363 0.12342 0.54697 0.0
C460 C 0.36072 0.13816 0.56088 0.0
C461 C 0.36038 0.15063 0.54733 0.0
H462 H 0.34828 0.15818 0.52308 0.0
H463 H 0.32706 0.11267 0.54648 0.0
C464 C 0.29881 0.0748 0.48669 0.0
N465 N 0.29491 0.08567 0.50022 0.0
C466 C 0.29449 0.05707 0.48762 0.0
C467 C 0.28175 0.0622 0.51621 0.0
C468 C 0.28638 0.07986 0.51474 0.0
C469 C 0.28609 0.05049 0.50265 0.0
H470 H 0.30582 0.07984 0.47544 0.0
H471 H 0.28369 0.08881 0.5254 0.0
C472 C 0.33036 0.16195 0.48587 0.0
N473 N 0.34833 0.18399 0.46338 0.0
C474 C 0.32118 0.17352 0.47499 0.0
C475 C 0.34869 0.16162 0.4853 0.0
C476 C 0.3305 0.18457 0.46374 0.0
C477 C 0.35753 0.17284 0.47382 0.0
C478 C 0.28401 0.12488 0.46725 0.0
C479 C 0.28254 0.1399 0.45684 0.0
C480 C 0.27056 0.11242 0.46715 0.0
C481 C 0.26754 0.14226 0.44658 0.0
C482 C 0.25578 0.11526 0.45668 0.0
N483 N 0.25459 0.13 0.44671 0.0
C484 C 0.35311 0.12112 0.46196 0.0
C485 C 0.33334 0.14006 0.44727 0.0
C486 C 0.36488 0.12208 0.44802 0.0
N487 N 0.33783 0.13026 0.46149 0.0
C488 C 0.34472 0.14136 0.43298 0.0
C489 C 0.36083 0.13245 0.43337 0.0
H490 H 0.35623 0.11313 0.4732 0.0
H491 H 0.32112 0.14716 0.44714 0.0
C492 C 0.28415 0.1728 0.5039 0.0
N493 N 0.27963 0.15689 0.49723 0.0
C494 C 0.27163 0.18599 0.50561 0.0
C495 C 0.24991 0.16618 0.49374 0.0
C496 C 0.26278 0.15324 0.49259 0.0
C497 C 0.25435 0.18276 0.50029 0.0
H498 H 0.2975 0.17517 0.50807 0.0
H499 H 0.25921 0.14026 0.4883 0.0
O500 O 0.32993 0.11032 0.49833 0.0
O501 O 0.29861 0.12467 0.51841 0.0
O502 O 0.32146 0.15081 0.49679 0.0
O503 O 0.29863 0.12219 0.47729 0.0
H504 H 0.32594 0.08155 0.51746 0.0
H505 H 0.36226 0.12232 0.50302 0.0
H506 H 0.34879 0.06872 0.53669 0.0
H507 H 0.38446 0.10876 0.52253 0.0
H508 H 0.24141 0.12996 0.53418 0.0
H509 H 0.30234 0.15091 0.54075 0.0
H510 H 0.26515 0.11551 0.51723 0.0
H511 H 0.27792 0.1648 0.55723 0.0
H512 H 0.34804 0.11475 0.57102 0.0
H513 H 0.36965 0.16139 0.54704 0.0
H514 H 0.2984 0.0485 0.477 0.0
H515 H 0.27519 0.05771 0.52797 0.0
H516 H 0.30701 0.17384 0.47505 0.0
H517 H 0.35603 0.15256 0.49337 0.0
H518 H 0.32356 0.19354 0.45522 0.0
H519 H 0.3717 0.17261 0.47316 0.0
H520 H 0.29267 0.14979 0.45696 0.0
H521 H 0.27148 0.10072 0.47512 0.0
H522 H 0.26617 0.15389 0.43857 0.0
H523 H 0.24526 0.10575 0.4565 0.0
H524 H 0.37701 0.11472 0.44869 0.0
H525 H 0.34114 0.14956 0.42194 0.0
H526 H 0.27545 0.19865 0.51081 0.0
H527 H 0.23657 0.16317 0.48986 0.0
Li528 Li 0.88999 0.30048 0.49538 0.0
Li529 Li 0.86811 0.31938 0.51188 0.0
Li530 Li 0.85775 0.29554 0.49363 0.0
Li531 Li 0.87099 0.32139 0.48121 0.0
C532 C 0.87001 0.27803 0.52149 0.0
N533 N 0.8624 0.24523 0.53481 0.0
C534 C 0.86057 0.27642 0.5371 0.0
C535 C 0.87569 0.263 0.5127 0.0
C536 C 0.85683 0.25971 0.54361 0.0
C537 C 0.87168 0.24652 0.51963 0.0
C538 C 0.89848 0.33999 0.49125 0.0
C539 C 0.90076 0.37069 0.48387 0.0
N540 N 0.91617 0.36747 0.47551 0.0
C541 C 0.91445 0.33706 0.48277 0.0
C542 C 0.89169 0.35701 0.49199 0.0
C543 C 0.92316 0.35109 0.47484 0.0
C544 C 0.92325 0.28867 0.4836 0.0
N545 N 0.91219 0.28967 0.4975 0.0
C546 C 0.93427 0.27856 0.51673 0.0
C547 C 0.91721 0.28442 0.51378 0.0
C548 C 0.94642 0.27849 0.50287 0.0
C549 C 0.94055 0.28321 0.48601 0.0
H550 H 0.91895 0.29311 0.47085 0.0
H551 H 0.90813 0.28541 0.52462 0.0
C552 C 0.85135 0.32859 0.54422 0.0
N553 N 0.86513 0.33163 0.53331 0.0
C554 C 0.84929 0.33861 0.55944 0.0
C555 C 0.87584 0.35428 0.55201 0.0
C556 C 0.87739 0.34397 0.53705 0.0
C557 C 0.8616 0.35176 0.56342 0.0
H558 H 0.84182 0.3186 0.54093 0.0
H559 H 0.88831 0.34599 0.52827 0.0
C560 C 0.87148 0.29662 0.45695 0.0
N561 N 0.86343 0.29845 0.42166 0.0
C562 C 0.85439 0.30055 0.45157 0.0
C563 C 0.88444 0.29348 0.44439 0.0
C564 C 0.8506 0.30146 0.43367 0.0
C565 C 0.88011 0.2945 0.42661 0.0
C566 C 0.83582 0.32939 0.50229 0.0
C567 C 0.81938 0.32199 0.5056 0.0
C568 C 0.83887 0.34689 0.50681 0.0
C569 C 0.80652 0.332 0.51396 0.0
C570 C 0.82569 0.35647 0.51517 0.0
N571 N 0.80993 0.34888 0.51858 0.0
C572 C 0.82916 0.27528 0.50514 0.0
C573 C 0.84205 0.26546 0.47863 0.0
C574 C 0.8171 0.26157 0.50473 0.0
N575 N 0.84114 0.2771 0.49209 0.0
C576 C 0.83024 0.25153 0.47768 0.0
C577 C 0.81752 0.24949 0.49083 0.0
H578 H 0.82908 0.28444 0.51597 0.0
H579 H 0.85208 0.26684 0.46874 0.0
C580 C 0.88349 0.33854 0.45033 0.0
N581 N 0.87011 0.33757 0.46207 0.0
C582 C 0.88326 0.3512 0.4371 0.0
C583 C 0.8553 0.36133 0.44806 0.0
C584 C 0.85604 0.34844 0.46099 0.0
C585 C 0.86914 0.36296 0.43604 0.0
H586 H 0.89452 0.32971 0.45145 0.0
H587 H 0.84545 0.34726 0.47029 0.0
O588 O 0.87337 0.29425 0.51463 0.0
O589 O 0.88963 0.32631 0.49886 0.0
O590 O 0.87549 0.29608 0.47443 0.0
O591 O 0.84862 0.31974 0.49415 0.0
H592 H 0.85606 0.28794 0.54403 0.0
H593 H 0.88291 0.26405 0.50052 0.0
H594 H 0.84947 0.25824 0.55564 0.0
H595 H 0.87589 0.23477 0.51291 0.0
H596 H 0.89555 0.38388 0.48423 0.0
H597 H 0.92005 0.32409 0.4822 0.0
H598 H 0.87952 0.35965 0.49868 0.0
H599 H 0.93547 0.34894 0.46813 0.0
H600 H 0.93805 0.27473 0.52988 0.0
H601 H 0.94943 0.2837 0.47495 0.0
H602 H 0.8382 0.33613 0.56794 0.0
H603 H 0.88548 0.36444 0.55433 0.0
H604 H 0.84421 0.30306 0.46113 0.0
H605 H 0.89771 0.29038 0.4483 0.0
H606 H 0.83746 0.30459 0.42932 0.0
H607 H 0.89003 0.29218 0.41674 0.0
H608 H 0.81644 0.30878 0.50151 0.0
H609 H 0.85132 0.35297 0.50406 0.0
H610 H 0.79378 0.32638 0.51667 0.0
H611 H 0.82801 0.36995 0.51895 0.0
H612 H 0.80745 0.26055 0.51509 0.0
H613 H 0.83124 0.2423 0.46694 0.0
H614 H 0.89423 0.3521 0.42814 0.0
H615 H 0.84404 0.36996 0.4475 0.0
Li616 Li 0.69606 0.88772 0.49503 0.0
Li617 Li 0.67616 0.87272 0.51497 0.0
Li618 Li 0.69981 0.85668 0.49981 0.0
Li619 Li 0.67419 0.86687 0.48355 0.0
C620 C 0.70523 0.88781 0.53072 0.0
N621 N 0.71129 0.91192 0.55712 0.0
C622 C 0.69595 0.90361 0.53111 0.0
C623 C 0.71761 0.88429 0.54378 0.0
C624 C 0.69919 0.91562 0.54454 0.0
C625 C 0.72048 0.89664 0.55701 0.0
C626 C 0.65479 0.89801 0.49732 0.0
C627 C 0.62317 0.89821 0.49776 0.0
N628 N 0.6234 0.91583 0.50049 0.0
C629 C 0.65472 0.91615 0.49994 0.0
C630 C 0.6389 0.88898 0.49607 0.0
C631 C 0.63871 0.92491 0.50159 0.0
C632 C 0.69803 0.91957 0.47804 0.0
N633 N 0.70672 0.90954 0.48992 0.0
C634 C 0.72627 0.93309 0.49653 0.0
C635 C 0.72101 0.91567 0.49866 0.0
C636 C 0.71684 0.94407 0.48513 0.0
C637 C 0.70292 0.93696 0.47538 0.0
H638 H 0.68672 0.91427 0.47131 0.0
H639 H 0.7278 0.90733 0.50789 0.0
C640 C 0.66107 0.85937 0.54577 0.0
N641 N 0.66289 0.87422 0.53608 0.0
C642 C 0.65066 0.85939 0.56082 0.0
C643 C 0.64479 0.89016 0.55605 0.0
C644 C 0.65525 0.88953 0.54108 0.0
C645 C 0.64219 0.8749 0.56601 0.0
H646 H 0.66749 0.84743 0.54161 0.0
H647 H 0.65708 0.90125 0.53341 0.0
C648 C 0.71597 0.87035 0.47024 0.0
N649 N 0.74954 0.87259 0.4568 0.0
C650 C 0.71881 0.86851 0.45224 0.0
C651 C 0.73021 0.87332 0.48142 0.0
C652 C 0.73588 0.86969 0.44569 0.0
C653 C 0.74707 0.87441 0.47437 0.0
C654 C 0.66318 0.83651 0.50275 0.0
C655 C 0.66822 0.81974 0.49733 0.0
C656 C 0.6459 0.83946 0.5081 0.0
C657 C 0.65577 0.80631 0.49695 0.0
C658 C 0.63384 0.82569 0.50755 0.0
N659 N 0.63897 0.80954 0.50201 0.0
C660 C 0.72636 0.83632 0.51564 0.0
C661 C 0.71749 0.82723 0.48725 0.0
C662 C 0.73877 0.8229 0.51641 0.0
N663 N 0.71611 0.8382 0.5012 0.0
C664 C 0.72961 0.81355 0.4875 0.0
C665 C 0.74053 0.8113 0.50219 0.0
H666 H 0.72498 0.84534 0.52647 0.0
H667 H 0.70913 0.82913 0.47594 0.0
C668 C 0.65271 0.87717 0.45592 0.0
N669 N 0.65873 0.86272 0.46442 0.0
C670 C 0.64079 0.87551 0.44215 0.0
C671 C 0.64197 0.84403 0.44565 0.0
C672 C 0.65391 0.84632 0.45937 0.0
C673 C 0.63514 0.85877 0.43695 0.0
H674 H 0.65702 0.89005 0.45999 0.0
H675 H 0.6593 0.83501 0.46591 0.0
O676 O 0.7023 0.87581 0.51769 0.0
O677 O 0.67038 0.88925 0.49575 0.0
O678 O 0.69932 0.86912 0.47679 0.0
O679 O 0.67526 0.84977 0.50328 0.0
H680 H 0.68645 0.90665 0.52107 0.0
H681 H 0.72495 0.87216 0.5437 0.0
H682 H 0.69211 0.9279 0.54495 0.0
H683 H 0.73003 0.89407 0.5672 0.0
H684 H 0.61077 0.89137 0.49684 0.0
H685 H 0.66689 0.9234 0.50084 0.0
H686 H 0.63869 0.87505 0.49359 0.0
H687 H 0.63847 0.93893 0.50374 0.0
H688 H 0.73716 0.93808 0.50416 0.0
H689 H 0.69518 0.94503 0.46662 0.0
H690 H 0.64921 0.84739 0.56828 0.0
H691 H 0.6384 0.90237 0.55949 0.0
H692 H 0.70792 0.86618 0.44342 0.0
H693 H 0.7283 0.87471 0.49539 0.0
H694 H 0.73827 0.86829 0.43178 0.0
H695 H 0.75821 0.87669 0.48287 0.0
H696 H 0.68157 0.81715 0.49333 0.0
H697 H 0.64187 0.85219 0.51284 0.0
H698 H 0.65946 0.79331 0.49265 0.0
H699 H 0.62042 0.82782 0.51162 0.0
H700 H 0.74707 0.82182 0.52788 0.0
H701 H 0.73031 0.80478 0.47636 0.0
H702 H 0.63576 0.88723 0.43592 0.0
H703 H 0.6382 0.83088 0.44184 0.0
Li704 Li 0.50225 0.13758 0.29934 0.0
Li705 Li 0.51756 0.12409 0.32408 0.0
Li706 Li 0.49696 0.10626 0.30519 0.0
Li707 Li 0.48629 0.12808 0.32606 0.0
C708 C 0.53053 0.11632 0.28504 0.0
N709 N 0.55345 0.11254 0.25721 0.0
C710 C 0.54754 0.12309 0.28609 0.0
C711 C 0.52533 0.10729 0.26995 0.0
C712 C 0.55888 0.12116 0.27185 0.0
C713 C 0.53706 0.1056 0.256 0.0
C714 C 0.51497 0.15812 0.33241 0.0
C715 C 0.52877 0.16804 0.35911 0.0
N716 N 0.53696 0.18097 0.34996 0.0
C717 C 0.52343 0.17159 0.3233 0.0
C718 C 0.51755 0.15639 0.35048 0.0
C719 C 0.53452 0.18298 0.33241 0.0
C720 C 0.48823 0.1624 0.27615 0.0
N721 N 0.50347 0.15485 0.28148 0.0
C722 C 0.51981 0.17201 0.26102 0.0
C723 C 0.51912 0.15957 0.27441 0.0
C724 C 0.50422 0.17969 0.25489 0.0
C725 C 0.48827 0.17479 0.26271 0.0
H726 H 0.47599 0.15869 0.28226 0.0
H727 H 0.5311 0.15388 0.27932 0.0
C728 C 0.54055 0.10936 0.34853 0.0
N729 N 0.53893 0.12286 0.33701 0.0
C730 C 0.55535 0.10802 0.35918 0.0
C731 C 0.56682 0.13431 0.34568 0.0
C732 C 0.55184 0.13503 0.33514 0.0
C733 C 0.56862 0.12073 0.35798 0.0
H734 H 0.53021 0.09973 0.34962 0.0
H735 H 0.55039 0.14549 0.3257 0.0
C736 C 0.46914 0.12222 0.28662 0.0
N737 N 0.44867 0.11666 0.25723 0.0
C738 C 0.45093 0.12074 0.2882 0.0
C739 C 0.4769 0.12104 0.27008 0.0
C740 C 0.44082 0.11788 0.27319 0.0
C741 C 0.46634 0.11819 0.25538 0.0
C742 C 0.49077 0.09944 0.34483 0.0
C743 C 0.47866 0.08598 0.342 0.0
C744 C 0.49327 0.106 0.36176 0.0
C745 C 0.46905 0.07946 0.35617 0.0
C746 C 0.48337 0.09917 0.37557 0.0
N747 N 0.47156 0.08616 0.37251 0.0
C748 C 0.50763 0.07294 0.29566 0.0
C749 C 0.47736 0.0778 0.29052 0.0
C750 C 0.506 0.05545 0.29063 0.0
N751 N 0.49341 0.08363 0.29567 0.0
C752 C 0.47514 0.06041 0.28528 0.0
C753 C 0.48952 0.04888 0.2856 0.0
H754 H 0.52016 0.07789 0.30013 0.0
H755 H 0.46615 0.08641 0.29106 0.0
C756 C 0.46891 0.1456 0.35384 0.0
N757 N 0.46743 0.13275 0.34159 0.0
C758 C 0.45594 0.14769 0.36657 0.0
C759 C 0.43983 0.12378 0.35335 0.0
C760 C 0.45312 0.12215 0.34089 0.0
C761 C 0.44131 0.13649 0.3666 0.0
H762 H 0.48032 0.15397 0.35397 0.0
H763 H 0.45236 0.11199 0.33104 0.0
O764 O 0.51934 0.1179 0.29899 0.0
O765 O 0.50412 0.14679 0.32369 0.0
O766 O 0.47921 0.12491 0.30124 0.0
O767 O 0.49999 0.1063 0.33105 0.0
H768 H 0.55188 0.12993 0.29772 0.0
H769 H 0.51245 0.10144 0.26906 0.0
H770 H 0.57202 0.12648 0.27244 0.0
H771 H 0.53317 0.0987 0.24423 0.0
H772 H 0.53101 0.16675 0.37306 0.0
H773 H 0.52147 0.17322 0.30936 0.0
H774 H 0.51117 0.14602 0.35774 0.0
H775 H 0.5412 0.19342 0.32551 0.0
H776 H 0.53244 0.17572 0.25569 0.0
H777 H 0.47592 0.18027 0.25834 0.0
H778 H 0.55617 0.09742 0.3686 0.0
H779 H 0.57685 0.14426 0.34425 0.0
H780 H 0.44468 0.12176 0.30089 0.0
H781 H 0.49088 0.12256 0.26857 0.0
H782 H 0.42672 0.11664 0.27423 0.0
H783 H 0.47219 0.11726 0.24249 0.0
H784 H 0.47656 0.08075 0.32899 0.0
H785 H 0.50263 0.11637 0.36418 0.0
H786 H 0.45954 0.06912 0.35416 0.0
H787 H 0.48506 0.10423 0.38871 0.0
H788 H 0.51738 0.047 0.29147 0.0
H789 H 0.46222 0.05594 0.28143 0.0
H790 H 0.45745 0.15782 0.37641 0.0
H791 H 0.42888 0.11475 0.35302 0.0
Li792 Li 0.87305 0.50862 0.31586 0.0
Li793 Li 0.86088 0.49265 0.29223 0.0
Li794 Li 0.87363 0.47752 0.31737 0.0
Li795 Li 0.89309 0.4931 0.29613 0.0
C796 C 0.84049 0.501 0.32657 0.0
N797 N 0.81615 0.51864 0.34679 0.0
C798 C 0.82567 0.50843 0.31874 0.0
C799 C 0.84287 0.50242 0.34469 0.0
C800 C 0.81352 0.51731 0.32919 0.0
C801 C 0.83044 0.51144 0.35468 0.0
C802 C 0.87324 0.53012 0.28874 0.0
C803 C 0.88248 0.56036 0.28948 0.0
N804 N 0.86561 0.56548 0.28677 0.0
C805 C 0.85599 0.53569 0.28595 0.0
C806 C 0.8866 0.54254 0.29049 0.0
C807 C 0.8524 0.55362 0.28498 0.0
C808 C 0.8867 0.53312 0.3395 0.0
N809 N 0.87213 0.52956 0.32985 0.0
C810 C 0.8577 0.55489 0.34141 0.0
C811 C 0.85793 0.54036 0.33028 0.0
C812 C 0.8724 0.55856 0.35184 0.0
C813 C 0.88715 0.54765 0.3506 0.0
H814 H 0.89798 0.52458 0.33871 0.0
H815 H 0.84668 0.53766 0.32214 0.0
C816 C 0.82867 0.48156 0.27799 0.0
N817 N 0.84347 0.49092 0.27473 0.0
C818 C 0.81586 0.47984 0.26505 0.0
C819 C 0.83393 0.49725 0.24563 0.0
C820 C 0.8464 0.4986 0.25893 0.0
C821 C 0.81838 0.48784 0.24863 0.0
H822 H 0.82689 0.47538 0.29063 0.0
H823 H 0.85842 0.50579 0.25672 0.0
C824 C 0.90262 0.48575 0.33476 0.0
N825 N 0.9209 0.46797 0.3605 0.0
C826 C 0.91764 0.47617 0.33044 0.0
C827 C 0.89701 0.48644 0.35218 0.0
C828 C 0.92668 0.46724 0.34364 0.0
C829 C 0.90639 0.47731 0.365 0.0
C830 C 0.87022 0.46133 0.28067 0.0
C831 C 0.85837 0.44862 0.28648 0.0
C832 C 0.87351 0.46318 0.26273 0.0
C833 C 0.84992 0.43798 0.2742 0.0
C834 C 0.86477 0.45229 0.25086 0.0
N835 N 0.85325 0.44003 0.25679 0.0
C836 C 0.85922 0.4559 0.34371 0.0
C837 C 0.88533 0.44512 0.33077 0.0
C838 C 0.85881 0.44182 0.35536 0.0
N839 N 0.87253 0.45745 0.33199 0.0
C840 C 0.88551 0.43085 0.34224 0.0
C841 C 0.87224 0.42921 0.35492 0.0
H842 H 0.84897 0.46566 0.3441 0.0
H843 H 0.89561 0.44658 0.32111 0.0
C844 C 0.92652 0.50609 0.29006 0.0
N845 N 0.91546 0.49282 0.28579 0.0
C846 C 0.94398 0.50555 0.28477 0.0
C847 C 0.93827 0.47779 0.27051 0.0
C848 C 0.92085 0.47891 0.27605 0.0
C849 C 0.95015 0.4911 0.27514 0.0
H850 H 0.92194 0.51668 0.29828 0.0
H851 H 0.91181 0.46836 0.27319 0.0
O852 O 0.85246 0.49215 0.31656 0.0
O853 O 0.87698 0.51262 0.28994 0.0
O854 O 0.89339 0.49431 0.32198 0.0
O855 O 0.87819 0.47225 0.29244 0.0
H856 H 0.82362 0.50751 0.30474 0.0
H857 H 0.85427 0.49679 0.35096 0.0
H858 H 0.80203 0.52319 0.3233 0.0
H859 H 0.83219 0.51275 0.3687 0.0
H860 H 0.89268 0.57011 0.29088 0.0
H861 H 0.84543 0.52629 0.28481 0.0
H862 H 0.9 0.53847 0.29271 0.0
H863 H 0.83911 0.55811 0.28292 0.0
H864 H 0.84617 0.56318 0.34185 0.0
H865 H 0.89873 0.55006 0.35848 0.0
H866 H 0.80418 0.47226 0.26781 0.0
H867 H 0.83631 0.50377 0.23324 0.0
H868 H 0.92215 0.47545 0.31702 0.0
H869 H 0.88548 0.49388 0.35575 0.0
H870 H 0.93825 0.45968 0.34048 0.0
H871 H 0.90213 0.47764 0.37853 0.0
H872 H 0.85558 0.44713 0.30031 0.0
H873 H 0.8825 0.4731 0.25802 0.0
H874 H 0.84065 0.42813 0.27849 0.0
H875 H 0.86708 0.45365 0.23694 0.0
H876 H 0.84811 0.44085 0.36463 0.0
H877 H 0.89616 0.42149 0.34148 0.0
H878 H 0.95277 0.51587 0.289 0.0
H879 H 0.94251 0.46643 0.26312 0.0
Li880 Li 0.5167 0.8701 0.32281 0.0
Li881 Li 0.50096 0.88906 0.30215 0.0
Li882 Li 0.48417 0.86988 0.32331 0.0
Li883 Li 0.49921 0.85802 0.29789 0.0
C884 C 0.50313 0.89915 0.34312 0.0
N885 N 0.50828 0.9186 0.3733 0.0
C886 C 0.51111 0.91564 0.34226 0.0
C887 C 0.49744 0.89275 0.35933 0.0
C888 C 0.5137 0.92521 0.35766 0.0
C889 C 0.50024 0.90273 0.37444 0.0
C890 C 0.53166 0.88187 0.28635 0.0
C891 C 0.53753 0.89604 0.25869 0.0
N892 N 0.55361 0.90091 0.2647 0.0
C893 C 0.5483 0.88686 0.29219 0.0
C894 C 0.52628 0.88635 0.26941 0.0
C895 C 0.55918 0.89653 0.28107 0.0
C896 C 0.54374 0.85243 0.34152 0.0
N897 N 0.53737 0.86837 0.33669 0.0
C898 C 0.56026 0.88292 0.35236 0.0
C899 C 0.5455 0.88344 0.34158 0.0
C900 C 0.56681 0.86668 0.35807 0.0
C901 C 0.55846 0.85127 0.35238 0.0
H902 H 0.53729 0.84061 0.33707 0.0
H903 H 0.54056 0.8959 0.33705 0.0
C904 C 0.4864 0.91767 0.28383 0.0
N905 N 0.50122 0.91161 0.29166 0.0
C906 C 0.48564 0.9349 0.27768 0.0
C907 C 0.51562 0.93903 0.28719 0.0
C908 C 0.51575 0.92181 0.29328 0.0
C909 C 0.5003 0.94588 0.27961 0.0
H910 H 0.47498 0.90932 0.2829 0.0
H911 H 0.52722 0.9168 0.2999 0.0
C912 C 0.4986 0.83815 0.33631 0.0
N913 N 0.49473 0.81531 0.3642 0.0
C914 C 0.49273 0.82102 0.33346 0.0
C915 C 0.50275 0.84355 0.35332 0.0
C916 C 0.49078 0.8097 0.34774 0.0
C917 C 0.50066 0.83185 0.36725 0.0
C918 C 0.46845 0.86857 0.28569 0.0
C919 C 0.454 0.85837 0.29051 0.0
C920 C 0.47171 0.87187 0.26797 0.0
C921 C 0.44322 0.85137 0.27745 0.0
C922 C 0.46064 0.86459 0.2553 0.0
N923 N 0.44675 0.85457 0.26027 0.0
C924 C 0.45678 0.88415 0.34297 0.0
C925 C 0.45647 0.85309 0.34203 0.0
C926 C 0.44197 0.88428 0.35371 0.0
N927 N 0.46385 0.86871 0.33761 0.0
C928 C 0.44166 0.8526 0.35277 0.0
C929 C 0.4343 0.86834 0.35885 0.0
H930 H 0.46278 0.89639 0.33903 0.0
H931 H 0.46195 0.84102 0.3371 0.0
C932 C 0.50846 0.84019 0.26679 0.0
N933 N 0.49755 0.8401 0.28085 0.0
C934 C 0.50653 0.82767 0.2536 0.0
C935 C 0.48243 0.815 0.26986 0.0
C936 C 0.48482 0.82777 0.28272 0.0
C937 C 0.49329 0.81494 0.25501 0.0
H938 H 0.51858 0.85003 0.26574 0.0
H939 H 0.47629 0.8281 0.29403 0.0
O940 O 0.50036 0.88968 0.32809 0.0
O941 O 0.52079 0.87249 0.29712 0.0
O942 O 0.50045 0.84942 0.32246 0.0
O943 O 0.47937 0.87523 0.29828 0.0
H944 H 0.5154 0.92095 0.32986 0.0
H945 H 0.49068 0.88035 0.36028 0.0
H946 H 0.52001 0.93791 0.35716 0.0
H947 H 0.49593 0.89789 0.38705 0.0
H948 H 0.53347 0.89972 0.2456 0.0
H949 H 0.55279 0.88332 0.30516 0.0
H950 H 0.51348 0.88254 0.26465 0.0
H951 H 0.57207 0.90055 0.28545 0.0
H952 H 0.56625 0.89512 0.35646 0.0
H953 H 0.56327 0.83848 0.35624 0.0
H954 H 0.47359 0.93973 0.2719 0.0
H955 H 0.52708 0.94717 0.28924 0.0
H956 H 0.48965 0.8165 0.32038 0.0
H957 H 0.50782 0.85654 0.35572 0.0
H958 H 0.48615 0.79644 0.34573 0.0
H959 H 0.50382 0.8359 0.38048 0.0
H960 H 0.45125 0.85573 0.30416 0.0
H961 H 0.48272 0.87987 0.26402 0.0
H962 H 0.43207 0.84334 0.28098 0.0
H963 H 0.4631 0.86692 0.24153 0.0
H964 H 0.43681 0.89672 0.35821 0.0
H965 H 0.43595 0.84004 0.35615 0.0
H966 H 0.51537 0.82788 0.2425 0.0
H967 H 0.47197 0.80551 0.27136 0.0
Li968 Li 0.12813 0.51574 0.32204 0.0
Li969 Li 0.10912 0.50036 0.30119 0.0
Li970 Li 0.12829 0.48326 0.32188 0.0
Li971 Li 0.13999 0.49876 0.29665 0.0
C972 C 0.09979 0.50107 0.34276 0.0
N973 N 0.082 0.50415 0.37422 0.0
C974 C 0.08259 0.50744 0.34307 0.0
C975 C 0.10778 0.49596 0.35846 0.0
C976 C 0.07387 0.509 0.3591 0.0
C977 C 0.09861 0.49769 0.37422 0.0
C978 C 0.11554 0.53143 0.28656 0.0
C979 C 0.10071 0.53842 0.25949 0.0
N980 N 0.09503 0.55373 0.26666 0.0
C981 C 0.10968 0.5473 0.29361 0.0
C982 C 0.11115 0.527 0.26932 0.0
C983 C 0.09929 0.55837 0.28335 0.0
C984 C 0.14668 0.54321 0.33848 0.0
N985 N 0.13051 0.53605 0.33622 0.0
C986 C 0.11768 0.5575 0.35504 0.0
C987 C 0.11609 0.54307 0.34394 0.0
C988 C 0.13429 0.56491 0.35807 0.0
C989 C 0.14889 0.55769 0.34947 0.0
H990 H 0.15788 0.53753 0.33191 0.0
H991 H 0.10332 0.53748 0.34152 0.0
C992 C 0.08115 0.48796 0.28004 0.0
N993 N 0.08666 0.50123 0.29059 0.0
C994 C 0.06422 0.4882 0.27303 0.0
C995 C 0.05921 0.51593 0.28756 0.0
C996 C 0.07615 0.51511 0.29433 0.0
C997 C 0.05296 0.50224 0.27695 0.0
H998 H 0.08976 0.47703 0.27739 0.0
H999 H 0.08082 0.52537 0.30292 0.0
C1000 C 0.16075 0.49756 0.33435 0.0
N1001 N 0.18521 0.49365 0.36085 0.0
C1002 C 0.17745 0.49099 0.33062 0.0
C1003 C 0.15664 0.50246 0.35152 0.0
C1004 C 0.18959 0.48901 0.3442 0.0
C1005 C 0.16914 0.50031 0.36474 0.0
C1006 C 0.12975 0.46817 0.2841 0.0
C1007 C 0.13929 0.45325 0.28882 0.0
C1008 C 0.12737 0.4722 0.26638 0.0
C1009 C 0.14653 0.44273 0.27569 0.0
C1010 C 0.13485 0.46137 0.25364 0.0
N1011 N 0.14421 0.44699 0.25853 0.0
C1012 C 0.11419 0.4561 0.34203 0.0
C1013 C 0.14523 0.45561 0.34058 0.0
C1014 C 0.11419 0.44187 0.35351 0.0
N1015 N 0.12957 0.46291 0.33618 0.0
C1016 C 0.14586 0.44133 0.35201 0.0
C1017 C 0.1302 0.43448 0.35886 0.0
H1018 H 0.10191 0.46195 0.33801 0.0
H1019 H 0.15725 0.46092 0.33534 0.0
C1020 C 0.1579 0.51005 0.26643 0.0
N1021 N 0.15781 0.49794 0.27949 0.0
C1022 C 0.17058 0.50929 0.25329 0.0
C1023 C 0.18299 0.48378 0.26748 0.0
C1024 C 0.17004 0.48501 0.28031 0.0
C1025 C 0.18333 0.49601 0.2537 0.0
H1026 H 0.14808 0.52024 0.26615 0.0
H1027 H 0.16961 0.47555 0.29085 0.0
O1028 O 0.10849 0.49943 0.32712 0.0
O1029 O 0.12558 0.52034 0.29648 0.0
O1030 O 0.14871 0.49956 0.32114 0.0
O1031 O 0.12283 0.47879 0.29678 0.0
H1032 H 0.07605 0.51122 0.3311 0.0
H1033 H 0.12079 0.49041 0.3585 0.0
H1034 H 0.06061 0.51403 0.35951 0.0
H1035 H 0.10468 0.49378 0.38644 0.0
H1036 H 0.09709 0.53509 0.24619 0.0
H1037 H 0.11306 0.551 0.30687 0.0
H1038 H 0.11558 0.5148 0.26365 0.0
H1039 H 0.09459 0.57065 0.28866 0.0
H1040 H 0.10607 0.56252 0.36148 0.0
H1041 H 0.16188 0.56317 0.3512 0.0
H1042 H 0.0599 0.4774 0.26488 0.0
H1043 H 0.05087 0.52682 0.29121 0.0
H1044 H 0.18101 0.48738 0.31739 0.0
H1045 H 0.14406 0.50814 0.3546 0.0
H1046 H 0.20251 0.48382 0.34151 0.0
H1047 H 0.16609 0.50402 0.37809 0.0
H1048 H 0.14121 0.44991 0.30247 0.0
H1049 H 0.11996 0.48365 0.2625 0.0
H1050 H 0.15404 0.4312 0.27915 0.0
H1051 H 0.13324 0.46441 0.23988 0.0
H1052 H 0.1018 0.43676 0.35821 0.0
H1053 H 0.15848 0.43603 0.3558 0.0
H1054 H 0.17024 0.51887 0.2428 0.0
H1055 H 0.1927 0.47347 0.26844 0.0
Li1056 Li 0.48563 0.87046 0.67596 0.0
Li1057 Li 0.50145 0.8902 0.69553 0.0
Li1058 Li 0.51807 0.87036 0.67518 0.0
Li1059 Li 0.50357 0.85921 0.70151 0.0
C1060 C 0.49821 0.89608 0.65301 0.0
N1061 N 0.49087 0.90834 0.6197 0.0
C1062 C 0.4917 0.91305 0.65065 0.0
C1063 C 0.50123 0.88546 0.6384 0.0
C1064 C 0.48799 0.91898 0.63371 0.0
C1065 C 0.49738 0.89186 0.62167 0.0
C1066 C 0.47208 0.88291 0.71333 0.0
C1067 C 0.46747 0.89407 0.74256 0.0
N1068 N 0.45235 0.90181 0.73711 0.0
C1069 C 0.45638 0.89079 0.70808 0.0
C1070 C 0.47758 0.88439 0.73075 0.0
C1071 C 0.44664 0.90037 0.72028 0.0
C1072 C 0.45894 0.85222 0.65727 0.0
N1073 N 0.46492 0.86821 0.66238 0.0
C1074 C 0.44192 0.88254 0.64671 0.0
C1075 C 0.45651 0.8832 0.65769 0.0
C1076 C 0.43581 0.86627 0.64063 0.0
C1077 C 0.44431 0.85093 0.64629 0.0
H1078 H 0.46568 0.84048 0.66149 0.0
H1079 H 0.46123 0.8957 0.66239 0.0
C1080 C 0.51254 0.91976 0.71579 0.0
N1081 N 0.5 0.91305 0.70503 0.0
C1082 C 0.5113 0.93708 0.72166 0.0
C1083 C 0.48418 0.94002 0.70546 0.0
C1084 C 0.48598 0.92274 0.69988 0.0
C1085 C 0.49703 0.94748 0.71635 0.0
H1086 H 0.52367 0.91182 0.71951 0.0
H1087 H 0.47638 0.91713 0.69109 0.0
C1088 C 0.50605 0.83572 0.66723 0.0
N1089 N 0.51456 0.80666 0.64729 0.0
C1090 C 0.51466 0.82146 0.67489 0.0
C1091 C 0.50148 0.83503 0.64949 0.0
C1092 C 0.51893 0.80694 0.66458 0.0
C1093 C 0.50597 0.82028 0.63961 0.0
C1094 C 0.53534 0.8726 0.71247 0.0
C1095 C 0.5514 0.86523 0.7076 0.0
C1096 C 0.53194 0.876 0.73015 0.0
C1097 C 0.56367 0.86107 0.72056 0.0
C1098 C 0.54454 0.87164 0.74272 0.0
N1099 N 0.56001 0.86431 0.73771 0.0
C1100 C 0.5432 0.88285 0.65129 0.0
C1101 C 0.54656 0.85283 0.65853 0.0
C1102 C 0.55712 0.88188 0.63946 0.0
N1103 N 0.53797 0.86836 0.66024 0.0
C1104 C 0.56053 0.85125 0.64683 0.0
C1105 C 0.56583 0.86585 0.63695 0.0
H1106 H 0.53638 0.89514 0.65315 0.0
H1107 H 0.54265 0.84168 0.66629 0.0
C1108 C 0.48906 0.83785 0.72747 0.0
N1109 N 0.50436 0.84181 0.71925 0.0
C1110 C 0.4886 0.82479 0.74027 0.0
C1111 C 0.51969 0.82023 0.736 0.0
C1112 C 0.5195 0.83322 0.72314 0.0
C1113 C 0.50406 0.81583 0.74464 0.0
H1114 H 0.47716 0.8447 0.72394 0.0
H1115 H 0.53136 0.83615 0.71601 0.0
O1116 O 0.50166 0.88996 0.66955 0.0
O1117 O 0.48195 0.87373 0.70151 0.0
O1118 O 0.5017 0.85001 0.6772 0.0
O1119 O 0.52317 0.87671 0.69994 0.0
H1120 H 0.48945 0.92154 0.66177 0.0
H1121 H 0.50667 0.8725 0.63994 0.0
H1122 H 0.48285 0.93204 0.63171 0.0
H1123 H 0.49964 0.88375 0.61026 0.0
H1124 H 0.47163 0.89539 0.75606 0.0
H1125 H 0.45184 0.88965 0.69469 0.0
H1126 H 0.48951 0.8781 0.7351 0.0
H1127 H 0.43454 0.90665 0.71635 0.0
H1128 H 0.43551 0.89465 0.64296 0.0
H1129 H 0.44002 0.83813 0.64189 0.0
H1130 H 0.52148 0.94234 0.73006 0.0
H1131 H 0.47318 0.94765 0.70071 0.0
H1132 H 0.51815 0.82164 0.68861 0.0
H1133 H 0.49435 0.84565 0.64341 0.0
H1134 H 0.52572 0.79589 0.67033 0.0
H1135 H 0.50255 0.81962 0.62586 0.0
H1136 H 0.55433 0.86266 0.69398 0.0
H1137 H 0.51971 0.88192 0.73414 0.0
H1138 H 0.57611 0.85527 0.71699 0.0
H1139 H 0.54203 0.8741 0.75647 0.0
H1140 H 0.56072 0.89345 0.63205 0.0
H1141 H 0.56714 0.83874 0.64557 0.0
H1142 H 0.4763 0.82176 0.7467 0.0
H1143 H 0.5318 0.81337 0.73883 0.0
Li1144 Li 0.13028 0.51394 0.66708 0.0
Li1145 Li 0.13706 0.50012 0.695 0.0
Li1146 Li 0.12745 0.48221 0.67113 0.0
Li1147 Li 0.10764 0.50265 0.68639 0.0
C1148 C 0.16524 0.50444 0.67162 0.0
N1149 N 0.19764 0.52073 0.67126 0.0
C1150 C 0.1677 0.52034 0.68044 0.0
C1151 C 0.1793 0.49683 0.66266 0.0
C1152 C 0.18417 0.52835 0.68011 0.0
C1153 C 0.19556 0.50528 0.66261 0.0
C1154 C 0.11349 0.53421 0.69879 0.0
C1155 C 0.09422 0.54249 0.72247 0.0
N1156 N 0.09118 0.5581 0.71441 0.0
C1157 C 0.11032 0.55042 0.69085 0.0
C1158 C 0.10553 0.53028 0.71483 0.0
C1159 C 0.09895 0.5623 0.69892 0.0
C1160 C 0.11827 0.53937 0.64491 0.0
N1161 N 0.13358 0.53165 0.64975 0.0
C1162 C 0.14928 0.5481 0.62814 0.0
C1163 C 0.14897 0.5357 0.64167 0.0
C1164 C 0.13356 0.55602 0.62274 0.0
C1165 C 0.11794 0.55162 0.63139 0.0
H1166 H 0.10621 0.53574 0.65141 0.0
H1167 H 0.16093 0.5291 0.64533 0.0
C1168 C 0.16648 0.48912 0.71433 0.0
N1169 N 0.15277 0.5005 0.71435 0.0
C1170 C 0.17846 0.48911 0.72814 0.0
C1171 C 0.16207 0.51263 0.74168 0.0
C1172 C 0.1504 0.51218 0.72759 0.0
C1173 C 0.17635 0.50099 0.74206 0.0
H1174 H 0.16813 0.48011 0.70351 0.0
H1175 H 0.1395 0.52119 0.72719 0.0
C1176 C 0.10878 0.49637 0.64336 0.0
N1177 N 0.10553 0.49118 0.60766 0.0
C1178 C 0.0922 0.49604 0.63558 0.0
C1179 C 0.12373 0.49407 0.633 0.0
C1180 C 0.09083 0.4934 0.6175 0.0
C1181 C 0.12181 0.49146 0.61497 0.0
C1182 C 0.1248 0.47176 0.70949 0.0
C1183 C 0.13608 0.45759 0.70674 0.0
C1184 C 0.12001 0.47637 0.72657 0.0
C1185 C 0.14259 0.44837 0.72118 0.0
C1186 C 0.12683 0.46685 0.74066 0.0
N1187 N 0.13789 0.45317 0.7377 0.0
C1188 C 0.14239 0.45478 0.65066 0.0
C1189 C 0.11211 0.45232 0.65731 0.0
C1190 C 0.14146 0.4401 0.63972 0.0
N1191 N 0.12775 0.46067 0.65892 0.0
C1192 C 0.11057 0.43766 0.64651 0.0
C1193 C 0.12528 0.43159 0.63725 0.0
H1194 H 0.15459 0.46186 0.65203 0.0
H1195 H 0.10069 0.45747 0.66397 0.0
C1196 C 0.07544 0.51887 0.68245 0.0
N1197 N 0.08368 0.50607 0.69169 0.0
C1198 C 0.05735 0.52092 0.6837 0.0
C1199 C 0.05654 0.49672 0.7042 0.0
C1200 C 0.07475 0.49522 0.70265 0.0
C1201 C 0.04758 0.50944 0.69428 0.0
H1202 H 0.0829 0.52714 0.67368 0.0
H1203 H 0.08167 0.48498 0.70961 0.0
O1204 O 0.14934 0.4961 0.67192 0.0
O1205 O 0.12446 0.52235 0.69099 0.0
O1206 O 0.1103 0.49889 0.66105 0.0
O1207 O 0.11866 0.4812 0.69554 0.0
H1208 H 0.15707 0.52649 0.68747 0.0
H1209 H 0.17766 0.48452 0.6558 0.0
H1210 H 0.18624 0.54065 0.68687 0.0
H1211 H 0.20653 0.49954 0.6557 0.0
H1212 H 0.08784 0.53953 0.73478 0.0
H1213 H 0.11664 0.55385 0.67864 0.0
H1214 H 0.10785 0.51781 0.72117 0.0
H1215 H 0.09632 0.57486 0.69288 0.0
H1216 H 0.16155 0.55105 0.62162 0.0
H1217 H 0.10557 0.55755 0.62769 0.0
H1218 H 0.18944 0.4801 0.72777 0.0
H1219 H 0.15988 0.5219 0.7522 0.0
H1220 H 0.08051 0.49781 0.64344 0.0
H1221 H 0.13668 0.4943 0.6388 0.0
H1222 H 0.07807 0.49311 0.61129 0.0
H1223 H 0.13325 0.48966 0.6068 0.0
H1224 H 0.13995 0.45388 0.6936 0.0
H1225 H 0.11124 0.48726 0.72891 0.0
H1226 H 0.15143 0.43745 0.71926 0.0
H1227 H 0.12334 0.47034 0.75396 0.0
H1228 H 0.15306 0.43596 0.63267 0.0
H1229 H 0.0979 0.43138 0.64511 0.0
H1230 H 0.05101 0.53106 0.67603 0.0
H1231 H 0.04949 0.48748 0.71236 0.0
Li1232 Li 0.49415 0.13868 0.69987 0.0
Li1233 Li 0.47826 0.12608 0.67517 0.0
Li1234 Li 0.49693 0.10814 0.69398 0.0
Li1235 Li 0.50961 0.12945 0.67361 0.0
C1236 C 0.46624 0.10885 0.70968 0.0
N1237 N 0.44882 0.08282 0.7279 0.0
C1238 C 0.452 0.10019 0.70202 0.0
C1239 C 0.47153 0.10436 0.72665 0.0
C1240 C 0.44338 0.08706 0.71144 0.0
C1241 C 0.46259 0.09112 0.73562 0.0
C1242 C 0.48056 0.15961 0.6682 0.0
C1243 C 0.46523 0.17036 0.64268 0.0
N1244 N 0.45604 0.18159 0.65303 0.0
C1245 C 0.47097 0.17127 0.67859 0.0
C1246 C 0.4777 0.15917 0.65008 0.0
C1247 C 0.45865 0.18228 0.67067 0.0
C1248 C 0.50378 0.17039 0.71587 0.0
N1249 N 0.4935 0.15594 0.71766 0.0
C1250 C 0.4825 0.1663 0.74504 0.0
C1251 C 0.48287 0.15373 0.73177 0.0
C1252 C 0.49321 0.18122 0.74372 0.0
C1253 C 0.50393 0.18322 0.72889 0.0
H1254 H 0.51186 0.1719 0.70432 0.0
H1255 H 0.47468 0.14222 0.73272 0.0
C1256 C 0.4568 0.11753 0.64659 0.0
N1257 N 0.45712 0.12647 0.66198 0.0
C1258 C 0.44232 0.11874 0.63554 0.0
C1259 C 0.42823 0.13751 0.65685 0.0
C1260 C 0.4431 0.13602 0.66748 0.0
C1261 C 0.42794 0.12909 0.64048 0.0
H1262 H 0.46792 0.10968 0.64275 0.0
H1263 H 0.44368 0.14284 0.6799 0.0
C1264 C 0.52637 0.13274 0.71044 0.0
N1265 N 0.54607 0.15035 0.73523 0.0
C1266 C 0.53908 0.14486 0.70519 0.0
C1267 C 0.52377 0.12947 0.72829 0.0
C1268 C 0.5489 0.15364 0.71793 0.0
C1269 C 0.53382 0.13856 0.74062 0.0
C1270 C 0.5055 0.10074 0.65537 0.0
C1271 C 0.51693 0.08705 0.65963 0.0
C1272 C 0.50514 0.10721 0.63821 0.0
C1273 C 0.52782 0.08008 0.64666 0.0
C1274 C 0.51629 0.09994 0.62563 0.0
N1275 N 0.5273 0.08664 0.63008 0.0
C1276 C 0.4881 0.073 0.69708 0.0
C1277 C 0.51253 0.08103 0.7146 0.0
C1278 C 0.48957 0.05561 0.70241 0.0
N1279 N 0.49944 0.08526 0.70324 0.0
C1280 C 0.51463 0.06368 0.72014 0.0
C1281 C 0.50307 0.05074 0.71395 0.0
H1282 H 0.47813 0.0767 0.68769 0.0
H1283 H 0.52155 0.09102 0.71903 0.0
C1284 C 0.52691 0.14491 0.64469 0.0
N1285 N 0.52881 0.13355 0.65828 0.0
C1286 C 0.53967 0.14581 0.63163 0.0
C1287 C 0.55667 0.12422 0.64748 0.0
C1288 C 0.54349 0.12361 0.66015 0.0
C1289 C 0.55458 0.13508 0.63276 0.0
H1290 H 0.51519 0.15275 0.64362 0.0
H1291 H 0.54456 0.11463 0.67108 0.0
O1292 O 0.47503 0.12155 0.70056 0.0
O1293 O 0.49249 0.14851 0.67575 0.0
O1294 O 0.51638 0.12428 0.69818 0.0
O1295 O 0.49507 0.10808 0.66801 0.0
H1296 H 0.44775 0.10344 0.68889 0.0
H1297 H 0.4826 0.11083 0.73273 0.0
H1298 H 0.4324 0.08019 0.70565 0.0
H1299 H 0.46664 0.08742 0.74871 0.0
H1300 H 0.46276 0.17002 0.62871 0.0
H1301 H 0.47287 0.17172 0.69262 0.0
H1302 H 0.48471 0.14998 0.64187 0.0
H1303 H 0.4511 0.19133 0.67855 0.0
H1304 H 0.47412 0.16426 0.75632 0.0
H1305 H 0.51217 0.19467 0.72726 0.0
H1306 H 0.44242 0.11175 0.62317 0.0
H1307 H 0.41737 0.14561 0.66109 0.0
H1308 H 0.5412 0.1476 0.69143 0.0
H1309 H 0.51393 0.1202 0.73257 0.0
H1310 H 0.55871 0.16312 0.71406 0.0
H1311 H 0.53186 0.13626 0.75448 0.0
H1312 H 0.51757 0.08197 0.67285 0.0
H1313 H 0.49667 0.11805 0.63472 0.0
H1314 H 0.53677 0.06953 0.6498 0.0
H1315 H 0.51628 0.10496 0.61236 0.0
H1316 H 0.48065 0.04596 0.69701 0.0
H1317 H 0.52525 0.06037 0.72898 0.0
H1318 H 0.53772 0.1545 0.62056 0.0
H1319 H 0.56795 0.11568 0.64873 0.0
Li1320 Li 0.8635 0.5086 0.66868 0.0
Li1321 Li 0.88478 0.4961 0.68925 0.0
Li1322 Li 0.86669 0.4765 0.67074 0.0
Li1323 Li 0.8542 0.49206 0.69504 0.0
C1324 C 0.88834 0.49239 0.64604 0.0
N1325 N 0.89647 0.48836 0.61099 0.0
C1326 C 0.90573 0.48984 0.64089 0.0
C1327 C 0.87508 0.49291 0.6334 0.0
C1328 C 0.90958 0.48783 0.62309 0.0
C1329 C 0.87946 0.49084 0.61573 0.0
C1330 C 0.87486 0.52663 0.7043 0.0
C1331 C 0.88277 0.53697 0.73313 0.0
N1332 N 0.89123 0.55083 0.72575 0.0
C1333 C 0.88338 0.54113 0.69702 0.0
C1334 C 0.87434 0.52465 0.72251 0.0
C1335 C 0.89168 0.55316 0.70808 0.0
C1336 C 0.84353 0.53223 0.64777 0.0
N1337 N 0.85988 0.52766 0.65317 0.0
C1338 C 0.87278 0.54947 0.6348 0.0
C1339 C 0.87438 0.53601 0.64706 0.0
C1340 C 0.85609 0.55434 0.62872 0.0
C1341 C 0.84131 0.5456 0.63543 0.0
H1342 H 0.83225 0.52534 0.65287 0.0
H1343 H 0.88724 0.53196 0.65149 0.0
C1344 C 0.91612 0.48929 0.70899 0.0
N1345 N 0.90791 0.50005 0.69738 0.0
C1346 C 0.93395 0.49156 0.71263 0.0
C1347 C 0.93431 0.51613 0.69259 0.0
C1348 C 0.91657 0.51332 0.68928 0.0
C1349 C 0.94335 0.5049 0.70406 0.0
H1350 H 0.90911 0.47847 0.71482 0.0
H1351 H 0.90983 0.52133 0.67972 0.0
C1352 C 0.82973 0.48046 0.67056 0.0
N1353 N 0.79954 0.46039 0.67083 0.0
C1354 C 0.83007 0.46338 0.67718 0.0
C1355 C 0.81403 0.48733 0.66406 0.0
C1356 C 0.81468 0.45344 0.67721 0.0
C1357 C 0.79891 0.47698 0.66431 0.0
C1358 C 0.87181 0.46448 0.71086 0.0
C1359 C 0.86716 0.44675 0.71032 0.0
C1360 C 0.87516 0.47245 0.72701 0.0
C1361 C 0.86566 0.43738 0.72599 0.0
C1362 C 0.87351 0.46265 0.74239 0.0
N1363 N 0.86882 0.44547 0.74158 0.0
C1364 C 0.87836 0.44269 0.66171 0.0
C1365 C 0.8563 0.45421 0.64306 0.0
C1366 C 0.87914 0.42733 0.6518 0.0
N1367 N 0.86706 0.45569 0.65719 0.0
C1368 C 0.85675 0.43917 0.6327 0.0
C1369 C 0.86832 0.42546 0.63698 0.0
H1370 H 0.88683 0.44432 0.67298 0.0
H1371 H 0.8475 0.46481 0.63972 0.0
C1372 C 0.8301 0.50694 0.71822 0.0
N1373 N 0.83662 0.49132 0.71269 0.0
C1374 C 0.81704 0.50747 0.731 0.0
C1375 C 0.81745 0.47579 0.73198 0.0
C1376 C 0.83043 0.47589 0.71913 0.0
C1377 C 0.8106 0.49174 0.73812 0.0
H1378 H 0.83501 0.519 0.71262 0.0
H1379 H 0.83545 0.4636 0.71429 0.0
O1380 O 0.8844 0.49434 0.66342 0.0
O1381 O 0.86673 0.51467 0.69367 0.0
O1382 O 0.84464 0.49047 0.67045 0.0
O1383 O 0.87321 0.47389 0.69564 0.0
H1384 H 0.91614 0.48942 0.65055 0.0
H1385 H 0.86154 0.49484 0.63717 0.0
H1386 H 0.92298 0.48584 0.6189 0.0
H1387 H 0.86932 0.49118 0.6058 0.0
H1388 H 0.88253 0.53555 0.74724 0.0
H1389 H 0.8837 0.54302 0.68298 0.0
H1390 H 0.86736 0.51382 0.72841 0.0
H1391 H 0.89846 0.56435 0.7026 0.0
H1392 H 0.88453 0.55567 0.62977 0.0
H1393 H 0.8282 0.54905 0.63118 0.0
H1394 H 0.94049 0.48243 0.72133 0.0
H1395 H 0.941 0.52666 0.68581 0.0
H1396 H 0.84205 0.45788 0.68233 0.0
H1397 H 0.81349 0.50053 0.6589 0.0
H1398 H 0.81478 0.44022 0.68234 0.0
H1399 H 0.78666 0.48214 0.65933 0.0
H1400 H 0.86459 0.4403 0.69795 0.0
H1401 H 0.87907 0.48604 0.72764 0.0
H1402 H 0.86196 0.42369 0.72577 0.0
H1403 H 0.87601 0.4687 0.75498 0.0
H1404 H 0.88814 0.41706 0.6557 0.0
H1405 H 0.84842 0.4385 0.62121 0.0
H1406 H 0.81189 0.52005 0.7351 0.0
H1407 H 0.81298 0.46336 0.73718 0.0
Li1408 Li 0.33007 0.51221 0.12911 0.0
Li1409 Li 0.30269 0.50025 0.14011 0.0
Li1410 Li 0.32638 0.48094 0.13122 0.0
Li1411 Li 0.30925 0.49746 0.10976 0.0
C1412 C 0.33543 0.5073 0.16273 0.0
N1413 N 0.35397 0.52761 0.18636 0.0
C1414 C 0.32654 0.51819 0.17448 0.0
C1415 C 0.35376 0.50671 0.16304 0.0
C1416 C 0.33615 0.52834 0.18634 0.0
C1417 C 0.36289 0.5171 0.17505 0.0
C1418 C 0.299 0.53009 0.11067 0.0
C1419 C 0.27498 0.53859 0.09192 0.0
N1420 N 0.28556 0.55055 0.08396 0.0
C1421 C 0.30962 0.54249 0.10235 0.0
C1422 C 0.28152 0.52815 0.10548 0.0
C1423 C 0.30258 0.5527 0.08886 0.0
C1424 C 0.36226 0.52942 0.12354 0.0
N1425 N 0.34634 0.53093 0.13133 0.0
C1426 C 0.35463 0.55815 0.14445 0.0
C1427 C 0.34217 0.54509 0.14133 0.0
C1428 C 0.37144 0.55659 0.1371 0.0
C1429 C 0.37509 0.54213 0.1263 0.0
H1430 H 0.36509 0.51823 0.11535 0.0
H1431 H 0.32931 0.54598 0.14724 0.0
C1432 C 0.28507 0.49233 0.17109 0.0
N1433 N 0.28483 0.50315 0.15695 0.0
C1434 C 0.27194 0.49347 0.18372 0.0
C1435 C 0.2589 0.51726 0.16725 0.0
C1436 C 0.27225 0.51558 0.15486 0.0
C1437 C 0.2586 0.506 0.18182 0.0
H1438 H 0.29544 0.48276 0.17248 0.0
H1439 H 0.27253 0.5241 0.14355 0.0
C1440 C 0.34659 0.4832 0.10359 0.0
N1441 N 0.36924 0.45842 0.08992 0.0
C1442 C 0.34164 0.47323 0.08901 0.0
C1443 C 0.36309 0.48059 0.11117 0.0
C1444 C 0.35329 0.4608 0.08229 0.0
C1445 C 0.37433 0.46797 0.1041 0.0
C1446 C 0.28742 0.47033 0.13301 0.0
C1447 C 0.29035 0.45639 0.14454 0.0
C1448 C 0.27029 0.47607 0.12985 0.0
C1449 C 0.27606 0.44849 0.15285 0.0
C1450 C 0.25636 0.46786 0.13846 0.0
N1451 N 0.25951 0.45436 0.14969 0.0
C1452 C 0.35024 0.45833 0.14824 0.0
C1453 C 0.33522 0.44579 0.12405 0.0
C1454 C 0.36105 0.44365 0.14954 0.0
N1455 N 0.33807 0.45935 0.13527 0.0
C1456 C 0.34569 0.4308 0.12493 0.0
C1457 C 0.35915 0.42988 0.13747 0.0
H1458 H 0.35201 0.46917 0.15714 0.0
H1459 H 0.32539 0.447 0.1139 0.0
C1460 C 0.30886 0.5063 0.07412 0.0
N1461 N 0.30036 0.49679 0.08656 0.0
C1462 C 0.30378 0.50514 0.0566 0.0
C1463 C 0.28117 0.48456 0.06504 0.0
C1464 C 0.28668 0.48615 0.08243 0.0
C1465 C 0.28992 0.49397 0.05183 0.0
H1466 H 0.31994 0.51437 0.07778 0.0
H1467 H 0.28034 0.47854 0.09255 0.0
O1468 O 0.32626 0.49749 0.15081 0.0
O1469 O 0.30573 0.51975 0.1237 0.0
O1470 O 0.3352 0.49514 0.11065 0.0
O1471 O 0.30127 0.47849 0.12504 0.0
H1472 H 0.31238 0.51897 0.17436 0.0
H1473 H 0.3609 0.49864 0.15383 0.0
H1474 H 0.32943 0.53687 0.19546 0.0
H1475 H 0.37707 0.5169 0.17531 0.0
H1476 H 0.26152 0.53715 0.08768 0.0
H1477 H 0.32319 0.54411 0.10614 0.0
H1478 H 0.27316 0.51851 0.11168 0.0
H1479 H 0.31066 0.5623 0.08225 0.0
H1480 H 0.35129 0.56908 0.15287 0.0
H1481 H 0.38775 0.54065 0.12003 0.0
H1482 H 0.27231 0.48474 0.19492 0.0
H1483 H 0.24878 0.52704 0.16531 0.0
H1484 H 0.32888 0.4749 0.08307 0.0
H1485 H 0.36704 0.48792 0.12265 0.0
H1486 H 0.34959 0.45295 0.07106 0.0
H1487 H 0.38705 0.46568 0.10996 0.0
H1488 H 0.30352 0.45184 0.14719 0.0
H1489 H 0.26781 0.48696 0.1211 0.0
H1490 H 0.27813 0.43775 0.16188 0.0
H1491 H 0.24306 0.47227 0.13627 0.0
H1492 H 0.37112 0.44328 0.15956 0.0
H1493 H 0.3439 0.42049 0.11533 0.0
H1494 H 0.31111 0.51236 0.04682 0.0
H1495 H 0.27039 0.47586 0.06192 0.0
Li1496 Li 0.31952 0.5005 0.86711 0.0
Li1497 Li 0.29968 0.48652 0.88878 0.0
Li1498 Li 0.31671 0.46767 0.86942 0.0
Li1499 Li 0.29288 0.48625 0.85922 0.0
C1500 C 0.34299 0.48244 0.88967 0.0
N1501 N 0.37858 0.47803 0.89481 0.0
C1502 C 0.34974 0.48105 0.90665 0.0
C1503 C 0.35433 0.48156 0.87529 0.0
C1504 C 0.36778 0.47884 0.90898 0.0
C1505 C 0.37228 0.47933 0.87817 0.0
C1506 C 0.28417 0.51898 0.86682 0.0
C1507 C 0.25463 0.52927 0.86211 0.0
N1508 N 0.26089 0.54215 0.85148 0.0
C1509 C 0.29033 0.53243 0.85599 0.0
C1510 C 0.26619 0.51748 0.87005 0.0
C1511 C 0.27835 0.54398 0.84832 0.0
C1512 C 0.34125 0.52535 0.84892 0.0
N1513 N 0.3361 0.51892 0.86473 0.0
C1514 C 0.3563 0.53759 0.87968 0.0
C1515 C 0.34306 0.52501 0.87996 0.0
C1516 C 0.3621 0.54426 0.86357 0.0
C1517 C 0.35425 0.53827 0.84803 0.0
H1518 H 0.3354 0.52038 0.83703 0.0
H1519 H 0.33853 0.51983 0.89236 0.0
C1520 C 0.29962 0.47731 0.92417 0.0
N1521 N 0.29243 0.48856 0.9124 0.0
C1522 C 0.29616 0.47922 0.94201 0.0
C1523 C 0.27769 0.50411 0.93522 0.0
C1524 C 0.2815 0.50168 0.91747 0.0
C1525 C 0.2853 0.49295 0.94777 0.0
H1526 H 0.30846 0.46715 0.91971 0.0
H1527 H 0.27612 0.51054 0.9078 0.0
C1528 C 0.31194 0.47757 0.83173 0.0
N1529 N 0.30102 0.46697 0.79882 0.0
C1530 C 0.30268 0.46187 0.82968 0.0
C1531 C 0.31575 0.4878 0.81701 0.0
C1532 C 0.29724 0.45676 0.81295 0.0
C1533 C 0.3101 0.48223 0.80049 0.0
C1534 C 0.28141 0.45798 0.88766 0.0
C1535 C 0.28706 0.44255 0.89578 0.0
C1536 C 0.26546 0.46551 0.89266 0.0
C1537 C 0.27684 0.43512 0.90904 0.0
C1538 C 0.25563 0.4577 0.90599 0.0
N1539 N 0.26148 0.44281 0.91386 0.0
C1540 C 0.33516 0.43961 0.88418 0.0
C1541 C 0.33694 0.4407 0.85318 0.0
C1542 C 0.34705 0.42573 0.88472 0.0
N1543 N 0.33045 0.44686 0.86859 0.0
C1544 C 0.34875 0.42672 0.85309 0.0
C1545 C 0.35421 0.41923 0.86903 0.0
H1546 H 0.33017 0.44509 0.89627 0.0
H1547 H 0.33346 0.44698 0.84098 0.0
C1548 C 0.27456 0.4991 0.82934 0.0
N1549 N 0.27405 0.48727 0.84267 0.0
C1550 C 0.26134 0.49934 0.8167 0.0
C1551 C 0.24727 0.47525 0.83174 0.0
C1552 C 0.26077 0.47547 0.84409 0.0
C1553 C 0.2475 0.48724 0.81776 0.0
H1554 H 0.28542 0.50814 0.82833 0.0
H1555 H 0.2608 0.46604 0.85465 0.0
O1556 O 0.32532 0.4844 0.8872 0.0
O1557 O 0.29572 0.50749 0.87434 0.0
O1558 O 0.31695 0.48298 0.8481 0.0
O1559 O 0.29139 0.46564 0.87487 0.0
H1560 H 0.34112 0.48167 0.91791 0.0
H1561 H 0.34933 0.48253 0.86205 0.0
H1562 H 0.3732 0.47775 0.92205 0.0
H1563 H 0.3812 0.47861 0.86717 0.0
H1564 H 0.24067 0.52816 0.86438 0.0
H1565 H 0.3042 0.53386 0.85342 0.0
H1566 H 0.26119 0.50725 0.87848 0.0
H1567 H 0.28293 0.55437 0.83982 0.0
H1568 H 0.36194 0.54209 0.89192 0.0
H1569 H 0.35844 0.54317 0.83538 0.0
H1570 H 0.30255 0.47052 0.95124 0.0
H1571 H 0.26917 0.51478 0.9391 0.0
H1572 H 0.29954 0.45382 0.84094 0.0
H1573 H 0.32286 0.49998 0.81829 0.0
H1574 H 0.28995 0.44472 0.8112 0.0
H1575 H 0.31288 0.49006 0.789 0.0
H1576 H 0.29918 0.43636 0.89188 0.0
H1577 H 0.26083 0.47736 0.88643 0.0
H1578 H 0.28111 0.42324 0.9155 0.0
H1579 H 0.24335 0.4635 0.91009 0.0
H1580 H 0.35112 0.42065 0.89734 0.0
H1581 H 0.3538 0.42207 0.84066 0.0
H1582 H 0.26221 0.50861 0.80598 0.0
H1583 H 0.23677 0.46579 0.83313 0.0
Li1584 Li 0.48993 0.32429 0.87015 0.0
Li1585 Li 0.50669 0.3051 0.88968 0.0
Li1586 Li 0.52246 0.32516 0.86874 0.0
Li1587 Li 0.50715 0.29884 0.85902 0.0
C1588 C 0.50459 0.34687 0.89691 0.0
N1589 N 0.5005 0.37873 0.91375 0.0
C1590 C 0.49693 0.34762 0.91355 0.0
C1591 C 0.5105 0.36234 0.88902 0.0
C1592 C 0.49486 0.36385 0.92179 0.0
C1593 C 0.50823 0.3783 0.8977 0.0
C1594 C 0.47616 0.28878 0.88534 0.0
C1595 C 0.47159 0.26227 0.90197 0.0
N1596 N 0.45593 0.26864 0.90765 0.0
C1597 C 0.45996 0.295 0.89122 0.0
C1598 C 0.48198 0.27222 0.89063 0.0
C1599 C 0.44995 0.28464 0.90253 0.0
C1600 C 0.46217 0.3403 0.8515 0.0
N1601 N 0.46901 0.33772 0.86777 0.0
C1602 C 0.44626 0.35492 0.88069 0.0
C1603 C 0.4612 0.34448 0.88228 0.0
C1604 C 0.43932 0.35841 0.86399 0.0
C1605 C 0.44736 0.35081 0.84927 0.0
H1606 H 0.46835 0.33436 0.84021 0.0
H1607 H 0.46654 0.34175 0.8951 0.0
C1608 C 0.52227 0.28757 0.91832 0.0
N1609 N 0.50756 0.296 0.91282 0.0
C1610 C 0.52383 0.28219 0.93576 0.0
C1611 C 0.49486 0.29383 0.94134 0.0
C1612 C 0.49391 0.29903 0.92385 0.0
C1613 C 0.5101 0.28556 0.94757 0.0
H1614 H 0.53298 0.28546 0.90929 0.0
H1615 H 0.48245 0.30596 0.91919 0.0
C1616 C 0.50625 0.33589 0.8367 0.0
N1617 N 0.50792 0.36218 0.81179 0.0
C1618 C 0.51112 0.33198 0.81947 0.0
C1619 C 0.502 0.35314 0.84118 0.0
C1620 C 0.51196 0.34547 0.80709 0.0
C1621 C 0.50297 0.36625 0.82843 0.0
C1622 C 0.53862 0.28809 0.86821 0.0
C1623 C 0.55228 0.29311 0.85708 0.0
C1624 C 0.53604 0.27035 0.872 0.0
C1625 C 0.56303 0.28022 0.84973 0.0
C1626 C 0.54704 0.25786 0.86436 0.0
N1627 N 0.56019 0.26302 0.85347 0.0
C1628 C 0.55125 0.34325 0.88163 0.0
C1629 C 0.54793 0.34654 0.85091 0.0
C1630 C 0.56571 0.35445 0.8816 0.0
N1631 N 0.54255 0.33974 0.86648 0.0
C1632 C 0.56223 0.35795 0.85029 0.0
C1633 C 0.57124 0.36221 0.86582 0.0
H1634 H 0.54678 0.33747 0.89379 0.0
H1635 H 0.54109 0.34328 0.83897 0.0
C1636 C 0.49649 0.26707 0.84337 0.0
N1637 N 0.50774 0.2808 0.84197 0.0
C1638 C 0.49675 0.25366 0.83095 0.0
C1639 C 0.5201 0.26885 0.81581 0.0
C1640 C 0.51942 0.28194 0.82856 0.0
C1641 C 0.50861 0.25448 0.81689 0.0
H1642 H 0.48727 0.26655 0.85409 0.0
H1643 H 0.52819 0.29304 0.82778 0.0
O1644 O 0.50687 0.33102 0.88875 0.0
O1645 O 0.48621 0.29881 0.87436 0.0
O1646 O 0.50547 0.32282 0.84899 0.0
O1647 O 0.52776 0.30048 0.87526 0.0
H1648 H 0.49248 0.33584 0.92 0.0
H1649 H 0.51697 0.36207 0.87644 0.0
H1650 H 0.48881 0.3646 0.93459 0.0
H1651 H 0.51271 0.39035 0.89169 0.0
H1652 H 0.476 0.24949 0.90629 0.0
H1653 H 0.45518 0.3077 0.88712 0.0
H1654 H 0.49447 0.2672 0.8862 0.0
H1655 H 0.43742 0.28933 0.90724 0.0
H1656 H 0.44044 0.36054 0.89236 0.0
H1657 H 0.44222 0.35296 0.8362 0.0
H1658 H 0.53576 0.27578 0.94003 0.0
H1659 H 0.4841 0.29697 0.95005 0.0
H1660 H 0.51426 0.3187 0.81568 0.0
H1661 H 0.49771 0.35634 0.85427 0.0
H1662 H 0.5158 0.34263 0.79373 0.0
H1663 H 0.49971 0.37965 0.83175 0.0
H1664 H 0.55445 0.30678 0.854 0.0
H1665 H 0.52557 0.26626 0.88065 0.0
H1666 H 0.57359 0.2839 0.841 0.0
H1667 H 0.54513 0.24408 0.86709 0.0
H1668 H 0.57245 0.35702 0.89384 0.0
H1669 H 0.5659 0.36368 0.83783 0.0
H1670 H 0.48781 0.24272 0.83242 0.0
H1671 H 0.5293 0.27013 0.80508 0.0
Li1672 Li 0.69781 0.50582 0.89431 0.0
Li1673 Li 0.67753 0.48875 0.87605 0.0
Li1674 Li 0.70252 0.5053 0.86248 0.0
Li1675 Li 0.67651 0.52065 0.87353 0.0
C1676 C 0.71748 0.476 0.88472 0.0
N1677 N 0.74651 0.45738 0.89583 0.0
C1678 C 0.71558 0.45891 0.89108 0.0
C1679 C 0.73415 0.48355 0.88384 0.0
C1680 C 0.73042 0.44974 0.89668 0.0
C1681 C 0.74867 0.47394 0.88956 0.0
C1682 C 0.6581 0.49957 0.90396 0.0
C1683 C 0.62723 0.49344 0.90701 0.0
N1684 N 0.63042 0.48572 0.92277 0.0
C1685 C 0.66106 0.49175 0.92027 0.0
C1686 C 0.64105 0.50059 0.89734 0.0
C1687 C 0.6469 0.48477 0.92956 0.0
C1688 C 0.70809 0.52409 0.92402 0.0
N1689 N 0.70787 0.50777 0.91689 0.0
C1690 C 0.71722 0.4951 0.94396 0.0
C1691 C 0.71255 0.4934 0.92635 0.0
C1692 C 0.71669 0.51169 0.95189 0.0
C1693 C 0.7125 0.52637 0.94162 0.0
H1694 H 0.70401 0.53522 0.91623 0.0
H1695 H 0.71169 0.48052 0.92058 0.0
C1696 C 0.65432 0.46387 0.86115 0.0
N1697 N 0.6637 0.46805 0.87572 0.0
C1698 C 0.64284 0.44962 0.86136 0.0
C1699 C 0.65134 0.4439 0.89137 0.0
C1700 C 0.6628 0.45814 0.89051 0.0
C1701 C 0.64099 0.43967 0.87674 0.0
H1702 H 0.65551 0.47178 0.84946 0.0
H1703 H 0.67073 0.46152 0.90177 0.0
C1704 C 0.71411 0.53841 0.87647 0.0
N1705 N 0.7397 0.56381 0.87291 0.0
C1706 C 0.71046 0.55395 0.86746 0.0
C1707 C 0.73065 0.53593 0.88397 0.0
C1708 C 0.72361 0.56659 0.86572 0.0
C1709 C 0.74344 0.54889 0.88195 0.0
C1710 C 0.66731 0.50833 0.8408 0.0
C1711 C 0.67468 0.5143 0.82512 0.0
C1712 C 0.64908 0.50783 0.84264 0.0
C1713 C 0.66365 0.51989 0.81159 0.0
C1714 C 0.6385 0.51355 0.82882 0.0
N1715 N 0.64594 0.51942 0.81371 0.0
C1716 C 0.72722 0.48974 0.84 0.0
C1717 C 0.72405 0.52046 0.83645 0.0
C1718 C 0.74003 0.48925 0.82697 0.0
N1719 N 0.71971 0.50522 0.8446 0.0
C1720 C 0.73689 0.52061 0.82345 0.0
C1721 C 0.74508 0.50487 0.81862 0.0
H1722 H 0.72325 0.47776 0.84647 0.0
H1723 H 0.71739 0.53245 0.83983 0.0
C1724 C 0.65314 0.54598 0.8857 0.0
N1725 N 0.66166 0.54051 0.87106 0.0
C1726 C 0.64146 0.56002 0.88489 0.0
C1727 C 0.64769 0.56273 0.85394 0.0
C1728 C 0.65958 0.5489 0.85547 0.0
C1729 C 0.63826 0.5684 0.86875 0.0
H1730 H 0.65538 0.53935 0.89804 0.0
H1731 H 0.66696 0.54475 0.84414 0.0
O1732 O 0.70307 0.48516 0.87927 0.0
O1733 O 0.67183 0.50629 0.89459 0.0
O1734 O 0.70136 0.52595 0.87836 0.0
O1735 O 0.67792 0.50287 0.8542 0.0
H1736 H 0.70277 0.45284 0.89175 0.0
H1737 H 0.73588 0.49661 0.87866 0.0
H1738 H 0.72914 0.43653 0.90171 0.0
H1739 H 0.76165 0.47964 0.88897 0.0
H1740 H 0.61397 0.49405 0.902 0.0
H1741 H 0.67418 0.49094 0.92563 0.0
H1742 H 0.6385 0.50684 0.88487 0.0
H1743 H 0.64901 0.47856 0.94214 0.0
H1744 H 0.72004 0.48344 0.95158 0.0
H1745 H 0.71192 0.53936 0.94733 0.0
H1746 H 0.63505 0.44679 0.84982 0.0
H1747 H 0.65047 0.43637 0.90338 0.0
H1748 H 0.69766 0.55614 0.86174 0.0
H1749 H 0.73355 0.52423 0.89142 0.0
H1750 H 0.72102 0.57861 0.85865 0.0
H1751 H 0.75633 0.54712 0.88763 0.0
H1752 H 0.68875 0.51465 0.82342 0.0
H1753 H 0.64317 0.50312 0.85463 0.0
H1754 H 0.66916 0.5246 0.7994 0.0
H1755 H 0.62437 0.51332 0.8301 0.0
H1756 H 0.74607 0.47685 0.8236 0.0
H1757 H 0.74016 0.53285 0.81703 0.0
H1758 H 0.63501 0.5642 0.89681 0.0
H1759 H 0.64569 0.56861 0.84118 0.0
Li1760 Li 0.48812 0.6881 0.88424 0.0
Li1761 Li 0.50604 0.66794 0.86677 0.0
Li1762 Li 0.4886 0.6916 0.85215 0.0
Li1763 Li 0.4745 0.66544 0.8642 0.0
C1764 C 0.51726 0.70883 0.87269 0.0
N1765 N 0.53514 0.73949 0.87996 0.0
C1766 C 0.53463 0.70821 0.87853 0.0
C1767 C 0.50906 0.72504 0.87035 0.0
C1768 C 0.54342 0.72386 0.88221 0.0
C1769 C 0.5183 0.7404 0.87414 0.0
C1770 C 0.49684 0.64944 0.89539 0.0
C1771 C 0.50716 0.61975 0.89886 0.0
N1772 N 0.51367 0.62398 0.91492 0.0
C1773 C 0.50347 0.65346 0.912 0.0
C1774 C 0.49853 0.63242 0.88882 0.0
C1775 C 0.51198 0.64041 0.92165 0.0
C1776 C 0.47024 0.69944 0.91417 0.0
N1777 N 0.48625 0.69914 0.90636 0.0
C1778 C 0.49982 0.71059 0.93215 0.0
C1779 C 0.50088 0.70474 0.91487 0.0
C1780 C 0.48358 0.71038 0.9408 0.0
C1781 C 0.46858 0.70509 0.93149 0.0
H1782 H 0.45889 0.69463 0.90715 0.0
H1783 H 0.51353 0.70379 0.90861 0.0
C1784 C 0.53203 0.64505 0.85336 0.0
N1785 N 0.5274 0.65526 0.86722 0.0
C1786 C 0.54669 0.63414 0.8545 0.0
C1787 C 0.55167 0.64475 0.88399 0.0
C1788 C 0.53718 0.65574 0.88212 0.0
C1789 C 0.55637 0.63365 0.87014 0.0
H1790 H 0.52409 0.64505 0.84162 0.0
H1791 H 0.53334 0.66423 0.8928 0.0
C1792 C 0.45525 0.70286 0.86692 0.0
N1793 N 0.42944 0.72821 0.86496 0.0
C1794 C 0.43925 0.69912 0.85877 0.0
C1795 C 0.458 0.71939 0.87433 0.0
C1796 C 0.4264 0.71215 0.85783 0.0
C1797 C 0.44482 0.73205 0.87313 0.0
C1798 C 0.48573 0.65623 0.83188 0.0
C1799 C 0.47822 0.66357 0.81685 0.0
C1800 C 0.48668 0.63801 0.83359 0.0
C1801 C 0.47154 0.6525 0.80386 0.0
C1802 C 0.47983 0.6274 0.82032 0.0
N1803 N 0.47245 0.63481 0.80586 0.0
C1804 C 0.50436 0.71362 0.82753 0.0
C1805 C 0.47329 0.71459 0.8271 0.0
C1806 C 0.50524 0.72634 0.81442 0.0
N1807 N 0.48856 0.70825 0.83375 0.0
C1808 C 0.47355 0.7274 0.81406 0.0
C1809 C 0.48969 0.73355 0.80765 0.0
H1810 H 0.51628 0.70811 0.83289 0.0
H1811 H 0.46091 0.70977 0.83188 0.0
C1812 C 0.45226 0.63849 0.87541 0.0
N1813 N 0.45541 0.64955 0.86183 0.0
C1814 C 0.43884 0.62612 0.87433 0.0
C1815 C 0.43192 0.63691 0.84534 0.0
C1816 C 0.44534 0.64925 0.84711 0.0
C1817 C 0.42859 0.62501 0.85902 0.0
H1818 H 0.46018 0.63927 0.88715 0.0
H1819 H 0.4478 0.6585 0.83667 0.0
O1820 O 0.50851 0.6936 0.86904 0.0
O1821 O 0.48875 0.66212 0.8856 0.0
O1822 O 0.46792 0.69021 0.868 0.0
O1823 O 0.49227 0.66686 0.84476 0.0
H1824 H 0.54121 0.69577 0.88029 0.0
H1825 H 0.49578 0.72579 0.86547 0.0
H1826 H 0.55683 0.72358 0.88683 0.0
H1827 H 0.5121 0.75303 0.87239 0.0
H1828 H 0.5087 0.60657 0.89387 0.0
H1829 H 0.50219 0.66653 0.91733 0.0
H1830 H 0.49334 0.62906 0.87606 0.0
H1831 H 0.51728 0.64336 0.93448 0.0
H1832 H 0.51173 0.71422 0.939 0.0
H1833 H 0.45583 0.70475 0.93773 0.0
H1834 H 0.55002 0.62566 0.8436 0.0
H1835 H 0.55897 0.6447 0.89618 0.0
H1836 H 0.43683 0.68634 0.85312 0.0
H1837 H 0.47008 0.72237 0.88111 0.0
H1838 H 0.41401 0.70948 0.85146 0.0
H1839 H 0.4468 0.74492 0.87877 0.0
H1840 H 0.47746 0.67764 0.81527 0.0
H1841 H 0.49257 0.63213 0.84507 0.0
H1842 H 0.46561 0.65799 0.79219 0.0
H1843 H 0.48037 0.61328 0.82152 0.0
H1844 H 0.51797 0.73041 0.80961 0.0
H1845 H 0.46123 0.73264 0.80932 0.0
H1846 H 0.43648 0.61761 0.88544 0.0
H1847 H 0.42445 0.63655 0.83327 0.0
Li1848 Li 0.69217 0.50268 0.14323 0.0
Li1849 Li 0.66641 0.48982 0.13118 0.0
Li1850 Li 0.6863 0.50836 0.11344 0.0
Li1851 Li 0.66764 0.52221 0.13572 0.0
C1852 C 0.70314 0.4737 0.12968 0.0
N1853 N 0.7283 0.45109 0.14263 0.0
C1854 C 0.69831 0.45995 0.14078 0.0
C1855 C 0.72073 0.47588 0.12503 0.0
C1856 C 0.71124 0.44867 0.14722 0.0
C1857 C 0.73327 0.46433 0.13176 0.0
C1858 C 0.6527 0.50313 0.16288 0.0
C1859 C 0.62124 0.50633 0.16363 0.0
N1860 N 0.62152 0.50396 0.18131 0.0
C1861 C 0.65269 0.50078 0.18105 0.0
C1862 C 0.63686 0.50596 0.15409 0.0
C1863 C 0.63679 0.50122 0.19013 0.0
C1864 C 0.72582 0.50629 0.15838 0.0
N1865 N 0.70979 0.49876 0.16023 0.0
C1866 C 0.71835 0.48556 0.18729 0.0
C1867 C 0.70584 0.48852 0.17427 0.0
C1868 C 0.73502 0.49322 0.18578 0.0
C1869 C 0.73873 0.50363 0.17104 0.0
H1870 H 0.72853 0.51446 0.14716 0.0
H1871 H 0.69296 0.48268 0.17532 0.0
C1872 C 0.65245 0.45996 0.11499 0.0
N1873 N 0.65198 0.46923 0.13021 0.0
C1874 C 0.64226 0.44488 0.11298 0.0
C1875 C 0.63195 0.44858 0.14268 0.0
C1876 C 0.64238 0.46354 0.14412 0.0
C1877 C 0.63166 0.43912 0.12688 0.0
H1878 H 0.66091 0.46414 0.10446 0.0
H1879 H 0.64281 0.47042 0.15644 0.0
C1880 C 0.70316 0.53749 0.12261 0.0
N1881 N 0.72324 0.56089 0.10357 0.0
C1882 C 0.69762 0.55484 0.12054 0.0
C1883 C 0.71903 0.53211 0.11517 0.0
C1884 C 0.70794 0.56646 0.11083 0.0
C1885 C 0.72895 0.54411 0.10553 0.0
C1886 C 0.64888 0.50569 0.10161 0.0
C1887 C 0.654 0.49525 0.08745 0.0
C1888 C 0.63194 0.51269 0.10201 0.0
C1889 C 0.64202 0.4918 0.07403 0.0
C1890 C 0.62033 0.50894 0.08833 0.0
N1891 N 0.62557 0.49865 0.07474 0.0
C1892 C 0.70296 0.49979 0.08116 0.0
C1893 C 0.6893 0.52766 0.08264 0.0
C1894 C 0.70657 0.50219 0.06337 0.0
N1895 N 0.69424 0.51235 0.09027 0.0
C1896 C 0.69299 0.5308 0.06504 0.0
C1897 C 0.70127 0.51777 0.05497 0.0
H1898 H 0.70638 0.48758 0.08752 0.0
H1899 H 0.68206 0.53726 0.09014 0.0
C1900 C 0.64992 0.54787 0.1566 0.0
N1901 N 0.65431 0.54262 0.14014 0.0
C1902 C 0.6389 0.56231 0.15897 0.0
C1903 C 0.63796 0.56609 0.12747 0.0
C1904 C 0.64878 0.55149 0.12572 0.0
C1905 C 0.63268 0.5715 0.14425 0.0
H1906 H 0.65467 0.54066 0.16785 0.0
H1907 H 0.65259 0.547 0.11281 0.0
O1908 O 0.69074 0.48515 0.12365 0.0
O1909 O 0.66824 0.50304 0.15391 0.0
O1910 O 0.69315 0.52591 0.13197 0.0
O1911 O 0.66048 0.50943 0.11481 0.0
H1912 H 0.68475 0.45814 0.14457 0.0
H1913 H 0.72468 0.48647 0.11645 0.0
H1914 H 0.70771 0.43804 0.15592 0.0
H1915 H 0.74695 0.46593 0.12837 0.0
H1916 H 0.60889 0.50849 0.15699 0.0
H1917 H 0.66486 0.49868 0.18807 0.0
H1918 H 0.63661 0.50778 0.14007 0.0
H1919 H 0.63659 0.49941 0.2042 0.0
H1920 H 0.71504 0.47733 0.19839 0.0
H1921 H 0.75134 0.50999 0.16951 0.0
H1922 H 0.64284 0.43773 0.10073 0.0
H1923 H 0.62401 0.44463 0.15377 0.0
H1924 H 0.68551 0.55931 0.12639 0.0
H1925 H 0.72347 0.51872 0.11652 0.0
H1926 H 0.70377 0.5799 0.10907 0.0
H1927 H 0.74116 0.54007 0.09955 0.0
H1928 H 0.66703 0.48973 0.08687 0.0
H1929 H 0.62777 0.52098 0.11273 0.0
H1930 H 0.6458 0.48366 0.06304 0.0
H1931 H 0.60718 0.51424 0.08849 0.0
H1932 H 0.71268 0.49162 0.05614 0.0
H1933 H 0.68896 0.54314 0.05931 0.0
H1934 H 0.63517 0.56618 0.17211 0.0
H1935 H 0.63328 0.57271 0.1158 0.0
Li1936 Li 0.49448 0.70565 0.13366 0.0
Li1937 Li 0.51272 0.68065 0.12564 0.0
Li1938 Li 0.49346 0.6942 0.10408 0.0
Li1939 Li 0.48213 0.67697 0.1286 0.0
C1940 C 0.52892 0.71293 0.12156 0.0
N1941 N 0.55937 0.72884 0.13313 0.0
C1942 C 0.53436 0.7109 0.13897 0.0
C1943 C 0.53901 0.72298 0.11004 0.0
C1944 C 0.54978 0.71907 0.14456 0.0
C1945 C 0.55435 0.73094 0.11614 0.0
C1946 C 0.49308 0.67376 0.16094 0.0
C1947 C 0.48816 0.64526 0.1738 0.0
N1948 N 0.4807 0.65302 0.188 0.0
C1949 C 0.48561 0.68145 0.17579 0.0
C1950 C 0.49461 0.65552 0.16007 0.0
C1951 C 0.47935 0.67075 0.18929 0.0
C1952 C 0.47847 0.72644 0.15887 0.0
N1953 N 0.49185 0.72646 0.14713 0.0
C1954 C 0.50112 0.75475 0.15681 0.0
C1955 C 0.50263 0.74056 0.14539 0.0
C1956 C 0.48824 0.75448 0.16995 0.0
C1957 C 0.47649 0.74032 0.17059 0.0
H1958 H 0.46955 0.71543 0.15935 0.0
H1959 H 0.51262 0.74075 0.1354 0.0
C1960 C 0.54618 0.66807 0.11535 0.0
N1961 N 0.53498 0.66986 0.12908 0.0
C1962 C 0.56161 0.65842 0.11726 0.0
C1963 C 0.5545 0.65414 0.14784 0.0
C1964 C 0.53908 0.66362 0.14525 0.0
C1965 C 0.56575 0.65093 0.1336 0.0
H1966 H 0.54281 0.67361 0.10274 0.0
H1967 H 0.53026 0.66575 0.15611 0.0
C1968 C 0.46546 0.71497 0.11454 0.0
N1969 N 0.4493 0.74556 0.10379 0.0
C1970 C 0.44726 0.71667 0.11572 0.0
C1971 C 0.47547 0.72884 0.10792 0.0
C1972 C 0.43933 0.73224 0.11021 0.0
C1973 C 0.46705 0.74419 0.10255 0.0
C1974 C 0.50715 0.65681 0.10061 0.0
C1975 C 0.51349 0.66005 0.08372 0.0
C1976 C 0.51169 0.64116 0.10906 0.0
C1977 C 0.52447 0.64778 0.0757 0.0
C1978 C 0.52273 0.62924 0.10063 0.0
N1979 N 0.52886 0.63277 0.08427 0.0
C1980 C 0.50187 0.70642 0.06978 0.0
C1981 C 0.4729 0.69601 0.0742 0.0
C1982 C 0.49863 0.70866 0.05189 0.0
N1983 N 0.48916 0.69982 0.08037 0.0
C1984 C 0.469 0.69829 0.0565 0.0
C1985 C 0.48209 0.70424 0.04497 0.0
H1986 H 0.51472 0.70921 0.0751 0.0
H1987 H 0.46307 0.69081 0.083 0.0
C1988 C 0.45033 0.66603 0.14511 0.0
N1989 N 0.46384 0.66123 0.13451 0.0
C1990 C 0.4366 0.65431 0.14839 0.0
C1991 C 0.45116 0.63302 0.12995 0.0
C1992 C 0.46447 0.64512 0.12697 0.0
C1993 C 0.43693 0.63756 0.1407 0.0
H1994 H 0.45015 0.67902 0.15082 0.0
H1995 H 0.47516 0.64177 0.11835 0.0
O1996 O 0.51402 0.70487 0.11563 0.0
O1997 O 0.49908 0.68399 0.14743 0.0
O1998 O 0.47336 0.6998 0.11997 0.0
O1999 O 0.49647 0.66878 0.10874 0.0
H2000 H 0.52676 0.7032 0.14811 0.0
H2001 H 0.53503 0.72462 0.09651 0.0
H2002 H 0.55412 0.71764 0.158 0.0
H2003 H 0.56227 0.73878 0.10737 0.0
H2004 H 0.48911 0.63112 0.17317 0.0
H2005 H 0.48482 0.69552 0.17705 0.0
H2006 H 0.50057 0.64935 0.14884 0.0
H2007 H 0.47347 0.67656 0.20081 0.0
H2008 H 0.51038 0.76547 0.1558 0.0
H2009 H 0.46608 0.73985 0.18024 0.0
H2010 H 0.56979 0.65628 0.10586 0.0
H2011 H 0.5574 0.64913 0.16081 0.0
H2012 H 0.43935 0.70605 0.12085 0.0
H2013 H 0.48957 0.7278 0.10694 0.0
H2014 H 0.42525 0.73373 0.11104 0.0
H2015 H 0.47462 0.75503 0.0974 0.0
H2016 H 0.51009 0.67193 0.07685 0.0
H2017 H 0.50687 0.63825 0.12204 0.0
H2018 H 0.52954 0.65021 0.06268 0.0
H2019 H 0.52645 0.61717 0.1071 0.0
H2020 H 0.50919 0.71306 0.04349 0.0
H2021 H 0.45598 0.69505 0.05185 0.0
H2022 H 0.42585 0.65828 0.15677 0.0
H2023 H 0.45176 0.62041 0.12344 0.0
Li2024 Li 0.48621 0.32415 0.12641 0.0
Li2025 Li 0.49848 0.298 0.13982 0.0
Li2026 Li 0.51768 0.32175 0.12753 0.0
Li2027 Li 0.50155 0.30186 0.10797 0.0
C2028 C 0.49251 0.33366 0.1588 0.0
N2029 N 0.47393 0.3559 0.18054 0.0
C2030 C 0.48183 0.32681 0.17202 0.0
C2031 C 0.4939 0.35182 0.15676 0.0
C2032 C 0.47252 0.33827 0.18286 0.0
C2033 C 0.48434 0.36285 0.16783 0.0
C2034 C 0.46902 0.28492 0.12112 0.0
C2035 C 0.46447 0.25454 0.1136 0.0
N2036 N 0.44762 0.25571 0.11934 0.0
C2037 C 0.45158 0.28589 0.12671 0.0
C2038 C 0.47545 0.26918 0.11432 0.0
C2039 C 0.44101 0.27095 0.1258 0.0
C2040 C 0.46794 0.35487 0.11732 0.0
N2041 N 0.46714 0.34015 0.12732 0.0
C2042 C 0.44017 0.3496 0.14016 0.0
C2043 C 0.45351 0.33717 0.13842 0.0
C2044 C 0.441 0.3652 0.13043 0.0
C2045 C 0.455 0.36768 0.11874 0.0
H2046 H 0.47877 0.35679 0.10842 0.0
H2047 H 0.45326 0.32538 0.14627 0.0
C2048 C 0.51168 0.27566 0.16545 0.0
N2049 N 0.49649 0.28154 0.15823 0.0
C2050 C 0.5113 0.26344 0.17903 0.0
C2051 C 0.4796 0.26407 0.17797 0.0
C2052 C 0.48061 0.2762 0.16431 0.0
C2053 C 0.4951 0.25745 0.18539 0.0
H2054 H 0.52412 0.28047 0.16063 0.0
H2055 H 0.46873 0.28149 0.1587 0.0
C2056 C 0.51298 0.33948 0.09764 0.0
N2057 N 0.53393 0.36267 0.07929 0.0
C2058 C 0.52081 0.33434 0.08189 0.0
C2059 C 0.51567 0.35648 0.10396 0.0
C2060 C 0.53137 0.34625 0.07282 0.0
C2061 C 0.52635 0.36798 0.09453 0.0
C2062 C 0.53044 0.28174 0.12194 0.0
C2063 C 0.54777 0.28405 0.11641 0.0
C2064 C 0.52393 0.26478 0.12439 0.0
C2065 C 0.55818 0.26935 0.11308 0.0
C2066 C 0.53475 0.25041 0.12094 0.0
N2067 N 0.5515 0.25297 0.11538 0.0
C2068 C 0.541 0.34393 0.14553 0.0
C2069 C 0.55099 0.33512 0.11745 0.0
C2070 C 0.55529 0.35519 0.14742 0.0
N2071 N 0.53891 0.33452 0.13054 0.0
C2072 C 0.5654 0.34633 0.11872 0.0
C2073 C 0.56748 0.35679 0.13373 0.0
H2074 H 0.5313 0.34307 0.15581 0.0
H2075 H 0.5491 0.32739 0.10573 0.0
C2076 C 0.48636 0.2934 0.07615 0.0
N2077 N 0.50131 0.29107 0.08556 0.0
C2078 C 0.48546 0.28792 0.05873 0.0
C2079 C 0.51517 0.27714 0.06119 0.0
C2080 C 0.51551 0.2829 0.07856 0.0
C2081 C 0.50014 0.28001 0.05091 0.0
H2082 H 0.47535 0.30015 0.08203 0.0
H2083 H 0.52736 0.28145 0.08613 0.0
O2084 O 0.50143 0.32264 0.14782 0.0
O2085 O 0.47951 0.29947 0.12191 0.0
O2086 O 0.50273 0.32792 0.1068 0.0
O2087 O 0.52013 0.29604 0.12532 0.0
H2088 H 0.48063 0.3128 0.17382 0.0
H2089 H 0.5021 0.35735 0.1466 0.0
H2090 H 0.46413 0.33315 0.19308 0.0
H2091 H 0.48517 0.37692 0.16629 0.0
H2092 H 0.46932 0.24226 0.10842 0.0
H2093 H 0.44629 0.29801 0.1318 0.0
H2094 H 0.48871 0.26828 0.10946 0.0
H2095 H 0.42754 0.27149 0.1302 0.0
H2096 H 0.42964 0.34728 0.1494 0.0
H2097 H 0.45594 0.37942 0.11081 0.0
H2098 H 0.52354 0.25889 0.18464 0.0
H2099 H 0.46686 0.25977 0.18255 0.0
H2100 H 0.51885 0.32129 0.07674 0.0
H2101 H 0.50979 0.36067 0.11616 0.0
H2102 H 0.53757 0.34242 0.06065 0.0
H2103 H 0.52868 0.38112 0.09936 0.0
H2104 H 0.55312 0.29705 0.11464 0.0
H2105 H 0.51076 0.26268 0.12914 0.0
H2106 H 0.57157 0.27096 0.10869 0.0
H2107 H 0.52986 0.23722 0.12277 0.0
H2108 H 0.55637 0.36311 0.15916 0.0
H2109 H 0.57463 0.34705 0.10795 0.0
H2110 H 0.47371 0.29069 0.05125 0.0
H2111 H 0.52674 0.27097 0.05573 0.0
H2112 H 0.11088 0.43194 0.38857 0.0
H2113 H 0.15049 0.40486 0.35863 0.0
H2114 H 0.15151 0.38161 0.38069 0.0
H2115 H 0.141 0.36895 0.40844 0.0
H2116 H 0.1015 0.39632 0.43832 0.0
H2117 H 0.1003 0.41929 0.41609 0.0
C2118 C 0.11958 0.42084 0.38676 0.0
C2119 C 0.13055 0.4201 0.37196 0.0
C2120 C 0.12008 0.40755 0.39944 0.0
C2121 C 0.14202 0.40581 0.36998 0.0
C2122 C 0.14256 0.39248 0.38255 0.0
C2123 C 0.13223 0.38001 0.41014 0.0
C2124 C 0.12134 0.38089 0.42499 0.0
C2125 C 0.13168 0.39325 0.39736 0.0
C2126 C 0.10986 0.39519 0.42689 0.0
C2127 C 0.10923 0.40839 0.41424 0.0
H2128 H 0.62924 0.10452 0.41175 0.0
H2129 H 0.62247 0.15964 0.42264 0.0
H2130 H 0.60116 0.16189 0.39882 0.0
H2131 H 0.58263 0.14767 0.37657 0.0
H2132 H 0.58853 0.09231 0.36663 0.0
H2133 H 0.6118 0.09062 0.38862 0.0
C2134 C 0.62308 0.11703 0.40895 0.0
C2135 C 0.62736 0.13185 0.41908 0.0
C2136 C 0.61056 0.11815 0.39551 0.0
C2137 C 0.61954 0.14804 0.41498 0.0
C2138 C 0.60725 0.14932 0.40145 0.0
C2139 C 0.58923 0.13531 0.37902 0.0
C2140 C 0.58383 0.12012 0.37007 0.0
C2141 C 0.60243 0.1344 0.39184 0.0
C2142 C 0.59233 0.10414 0.37352 0.0
C2143 C 0.60565 0.10317 0.38605 0.0
H2144 H 0.88429 0.6221 0.40335 0.0
H2145 H 0.83522 0.6029 0.42412 0.0
H2146 H 0.83385 0.58088 0.40101 0.0
H2147 H 0.84731 0.56601 0.37579 0.0
H2148 H 0.89726 0.58387 0.35625 0.0
H2149 H 0.89774 0.60727 0.37821 0.0
C2150 C 0.87336 0.61302 0.40296 0.0
C2151 C 0.8599 0.61422 0.41554 0.0
C2152 C 0.87286 0.60007 0.38989 0.0
C2153 C 0.84566 0.60252 0.41451 0.0
C2154 C 0.84492 0.5898 0.40136 0.0
C2155 C 0.85818 0.57518 0.37625 0.0
C2156 C 0.8722 0.5733 0.36445 0.0
C2157 C 0.85851 0.58836 0.38908 0.0
C2158 C 0.88636 0.58505 0.36529 0.0
C2159 C 0.88663 0.59842 0.37781 0.0
H2160 H 0.36688 0.87992 0.40538 0.0
H2161 H 0.3906 0.8377 0.43469 0.0
H2162 H 0.41397 0.83549 0.41295 0.0
H2163 H 0.42875 0.84688 0.38674 0.0
H2164 H 0.40544 0.88956 0.3578 0.0
H2165 H 0.38103 0.89052 0.37851 0.0
C2166 C 0.37718 0.87026 0.40703 0.0
C2167 C 0.37701 0.85905 0.42169 0.0
C2168 C 0.39076 0.86927 0.39466 0.0
C2169 C 0.39028 0.84637 0.42345 0.0
C2170 C 0.40375 0.84519 0.4111 0.0
C2171 C 0.41819 0.85622 0.38482 0.0
C2172 C 0.41896 0.86819 0.3708 0.0
C2173 C 0.40424 0.85673 0.39679 0.0
C2174 C 0.40529 0.88037 0.36863 0.0
C2175 C 0.3913 0.88088 0.38041 0.0
H2176 H 0.1548 0.58421 0.6173 0.0
H2177 H 0.1113 0.55573 0.59497 0.0
H2178 H 0.10899 0.57721 0.57136 0.0
H2179 H 0.11856 0.6045 0.55769 0.0
H2180 H 0.16124 0.63395 0.58037 0.0
H2181 H 0.16493 0.61147 0.60298 0.0
C2182 C 0.14496 0.58266 0.60713 0.0
C2183 C 0.13316 0.56852 0.6079 0.0
C2184 C 0.14356 0.5952 0.59369 0.0
C2185 C 0.12038 0.56666 0.59475 0.0
C2186 C 0.11908 0.57889 0.58124 0.0
C2187 C 0.12859 0.6061 0.56765 0.0
C2188 C 0.13947 0.62098 0.56745 0.0
C2189 C 0.13043 0.59333 0.58073 0.0
C2190 C 0.15273 0.62258 0.58018 0.0
C2191 C 0.15478 0.60978 0.59317 0.0
H2192 H 0.35797 0.13321 0.59623 0.0
H2193 H 0.39546 0.1434 0.55508 0.0
H2194 H 0.4194 0.14219 0.57624 0.0
H2195 H 0.42984 0.13709 0.6061 0.0
H2196 H 0.39282 0.12663 0.6475 0.0
H2197 H 0.36849 0.12916 0.62661 0.0
C2198 C 0.37139 0.13517 0.59194 0.0
C2199 C 0.37494 0.13842 0.57413 0.0
C2200 C 0.38514 0.13436 0.60419 0.0
C2201 C 0.39236 0.14113 0.56875 0.0
C2202 C 0.40607 0.14031 0.58081 0.0
C2203 C 0.41643 0.13531 0.61052 0.0
C2204 C 0.41309 0.13148 0.62822 0.0
C2205 C 0.40263 0.13676 0.5985 0.0
C2206 C 0.39567 0.12959 0.63391 0.0
C2207 C 0.3818 0.13097 0.62197 0.0
H2208 H 0.8417 0.40809 0.6205 0.0
H2209 H 0.8979 0.40747 0.62765 0.0
H2210 H 0.90041 0.38317 0.60709 0.0
H2211 H 0.88704 0.36374 0.58537 0.0
H2212 H 0.83122 0.36606 0.57616 0.0
H2213 H 0.82817 0.38788 0.59939 0.0
C2214 C 0.85451 0.40268 0.61753 0.0
C2215 C 0.86959 0.40972 0.62555 0.0
C2216 C 0.85594 0.38901 0.60531 0.0
C2217 C 0.88604 0.40224 0.62185 0.0
C2218 C 0.88751 0.38841 0.60997 0.0
C2219 C 0.87419 0.36903 0.5884 0.0
C2220 C 0.85942 0.3634 0.57888 0.0
C2221 C 0.87261 0.38195 0.60136 0.0
C2222 C 0.84281 0.37005 0.58334 0.0
C2223 C 0.84107 0.38266 0.59652 0.0
H2224 H 0.59242 0.88881 0.63064 0.0
H2225 H 0.57096 0.83932 0.61351 0.0
H2226 H 0.59335 0.83728 0.59073 0.0
H2227 H 0.6179 0.85034 0.57463 0.0
H2228 H 0.63923 0.89997 0.59148 0.0
H2229 H 0.6178 0.9013 0.61526 0.0
C2230 C 0.59262 0.8776 0.62189 0.0
C2231 C 0.58001 0.86427 0.62374 0.0
C2232 C 0.60541 0.87659 0.60871 0.0
C2233 C 0.58062 0.84968 0.61249 0.0
C2234 C 0.59335 0.84855 0.59939 0.0
C2235 C 0.61806 0.86131 0.58368 0.0
C2236 C 0.6301 0.87506 0.58125 0.0
C2237 C 0.60569 0.86201 0.59727 0.0
C2238 C 0.62994 0.88932 0.59293 0.0
C2239 C 0.61774 0.89006 0.60656 0.0
H2240 H 0.39591 0.13755 0.43568 0.0
H2241 H 0.35406 0.13099 0.39817 0.0
H2242 H 0.3752 0.1324 0.37408 0.0
H2243 H 0.40574 0.13445 0.3638 0.0
H2244 H 0.4475 0.14034 0.40158 0.0
H2245 H 0.42622 0.14031 0.42544 0.0
C2246 C 0.39143 0.13633 0.42223 0.0
C2247 C 0.37349 0.13402 0.4187 0.0
C2248 C 0.40363 0.13707 0.40851 0.0
C2249 C 0.36781 0.13286 0.4012 0.0
C2250 C 0.37989 0.13358 0.38744 0.0
C2251 C 0.41016 0.13569 0.37727 0.0
C2252 C 0.42817 0.13739 0.3809 0.0
C2253 C 0.39785 0.13551 0.39096 0.0
C2254 C 0.4337 0.13924 0.3984 0.0
C2255 C 0.42155 0.1391 0.41207 0.0
H2256 H 0.87728 0.36065 0.40136 0.0
H2257 H 0.86073 0.39724 0.4412 0.0
H2258 H 0.8602 0.42086 0.41962 0.0
H2259 H 0.86473 0.43119 0.38963 0.0
H2260 H 0.88076 0.39471 0.34946 0.0
H2261 H 0.8816 0.37105 0.37107 0.0
C2262 C 0.87367 0.37383 0.4053 0.0
C2263 C 0.86899 0.37719 0.42281 0.0
C2264 C 0.87338 0.38736 0.39282 0.0
C2265 C 0.86416 0.39428 0.42774 0.0
C2266 C 0.86394 0.4078 0.41544 0.0
C2267 C 0.8682 0.41802 0.38553 0.0
C2268 C 0.87261 0.41473 0.36793 0.0
C2269 C 0.86848 0.40448 0.39795 0.0
C2270 C 0.87746 0.39766 0.36295 0.0
C2271 C 0.87786 0.3841 0.37528 0.0
H2272 H 0.57056 0.84589 0.38679 0.0
H2273 H 0.59696 0.88601 0.35688 0.0
H2274 H 0.62079 0.88657 0.37828 0.0
H2275 H 0.63354 0.87647 0.40604 0.0
H2276 H 0.60692 0.83669 0.43621 0.0
H2277 H 0.58402 0.83481 0.41388 0.0
C2278 C 0.58166 0.85454 0.3848 0.0
C2279 C 0.58193 0.86596 0.37031 0.0
C2280 C 0.59529 0.85484 0.39718 0.0
C2281 C 0.59631 0.87728 0.36806 0.0
C2282 C 0.60997 0.87755 0.38025 0.0
C2283 C 0.6227 0.86742 0.40774 0.0
C2284 C 0.62189 0.85682 0.42281 0.0
C2285 C 0.60947 0.86658 0.39498 0.0
C2286 C 0.60795 0.8449 0.42466 0.0
C2287 C 0.59478 0.8439 0.41196 0.0
H2288 H 0.15003 0.61851 0.41909 0.0
H2289 H 0.10191 0.64117 0.3998 0.0
H2290 H 0.10079 0.61936 0.37634 0.0
H2291 H 0.11281 0.59314 0.36215 0.0
H2292 H 0.16034 0.5698 0.38223 0.0
H2293 H 0.16265 0.59293 0.4042 0.0
C2294 C 0.13946 0.61884 0.40957 0.0
C2295 C 0.12605 0.63138 0.41119 0.0
C2296 C 0.13881 0.60617 0.39625 0.0
C2297 C 0.11228 0.63151 0.39893 0.0
C2298 C 0.11166 0.61909 0.3855 0.0
C2299 C 0.12365 0.59307 0.37137 0.0
C2300 C 0.13632 0.57969 0.37058 0.0
C2301 C 0.12471 0.6062 0.38421 0.0
C2302 C 0.15049 0.58003 0.3824 0.0
C2303 C 0.15175 0.59318 0.39507 0.0
H2304 H 0.36938 0.85333 0.59275 0.0
H2305 H 0.39322 0.89577 0.56382 0.0
H2306 H 0.41663 0.89766 0.58548 0.0
H2307 H 0.4309 0.88672 0.61204 0.0
H2308 H 0.40779 0.8438 0.64073 0.0
H2309 H 0.38376 0.84232 0.61948 0.0
C2310 C 0.37975 0.86291 0.59112 0.0
C2311 C 0.37945 0.87444 0.5767 0.0
C2312 C 0.39338 0.86375 0.60349 0.0
C2313 C 0.3929 0.88694 0.57494 0.0
C2314 C 0.4064 0.88794 0.58724 0.0
C2315 C 0.42049 0.87717 0.61376 0.0
C2316 C 0.42107 0.86544 0.62797 0.0
C2317 C 0.4068 0.87639 0.60152 0.0
C2318 C 0.4077 0.85289 0.62982 0.0
C2319 C 0.39393 0.8521 0.61773 0.0
H2320 H 0.14726 0.40388 0.63172 0.0
H2321 H 0.09923 0.42744 0.61321 0.0
H2322 H 0.0965 0.40487 0.59076 0.0
H2323 H 0.10842 0.37943 0.57544 0.0
H2324 H 0.15635 0.35549 0.59371 0.0
H2325 H 0.15862 0.37743 0.61698 0.0
C2326 C 0.13622 0.40405 0.62275 0.0
C2327 C 0.12345 0.4173 0.62418 0.0
C2328 C 0.13477 0.39107 0.60975 0.0
C2329 C 0.10911 0.41725 0.61258 0.0
C2330 C 0.10759 0.40442 0.59965 0.0
C2331 C 0.1192 0.37877 0.58469 0.0
C2332 C 0.13219 0.36581 0.5828 0.0
C2333 C 0.1204 0.39135 0.59804 0.0
C2334 C 0.14627 0.36544 0.59472 0.0
C2335 C 0.14755 0.37794 0.60808 0.0
H2336 H 0.59016 0.13689 0.63462 0.0
H2337 H 0.54729 0.13144 0.59811 0.0
H2338 H 0.56796 0.12935 0.57375 0.0
H2339 H 0.59809 0.1284 0.56295 0.0
H2340 H 0.64114 0.13534 0.59913 0.0
H2341 H 0.62054 0.13703 0.62354 0.0
C2342 C 0.58541 0.13523 0.62131 0.0
C2343 C 0.56727 0.13438 0.61812 0.0
C2344 C 0.59737 0.13414 0.60736 0.0
C2345 C 0.5612 0.13236 0.60084 0.0
C2346 C 0.573 0.13106 0.58693 0.0
C2347 C 0.60302 0.13056 0.57612 0.0
C2348 C 0.62119 0.13173 0.57912 0.0
C2349 C 0.5911 0.13191 0.59004 0.0
C2350 C 0.62726 0.13411 0.5964 0.0
C2351 C 0.61547 0.13522 0.61038 0.0
H2352 H 0.87308 0.58563 0.62681 0.0
H2353 H 0.83506 0.55363 0.59973 0.0
H2354 H 0.83337 0.57524 0.57614 0.0
H2355 H 0.84391 0.60236 0.56245 0.0
H2356 H 0.88184 0.63447 0.58959 0.0
H2357 H 0.88263 0.61346 0.61372 0.0
C2358 C 0.86444 0.58338 0.61572 0.0
C2359 C 0.85426 0.56802 0.615 0.0
C2360 C 0.86365 0.59578 0.60214 0.0
C2361 C 0.84291 0.56542 0.6007 0.0
C2362 C 0.84203 0.57771 0.58714 0.0
C2363 C 0.85215 0.60493 0.57376 0.0
C2364 C 0.86286 0.61995 0.57413 0.0
C2365 C 0.85247 0.59284 0.58764 0.0
C2366 C 0.87367 0.62288 0.5888 0.0
C2367 C 0.87406 0.61092 0.60267 0.0
H2368 H 0.39437 0.43283 0.13883 0.0
H2369 H 0.35288 0.39464 0.13458 0.0
H2370 H 0.3746 0.37105 0.13249 0.0
H2371 H 0.4055 0.36149 0.13116 0.0
H2372 H 0.44672 0.40007 0.13489 0.0
H2373 H 0.42498 0.42335 0.13799 0.0
C2374 C 0.39009 0.41931 0.13771 0.0
C2375 C 0.37209 0.41543 0.13702 0.0
C2376 C 0.40259 0.40594 0.13633 0.0
C2377 C 0.3667 0.39792 0.13512 0.0
C2378 C 0.37909 0.38445 0.13395 0.0
C2379 C 0.40967 0.37499 0.1328 0.0
C2380 C 0.42765 0.3791 0.13273 0.0
C2381 C 0.39708 0.38833 0.13444 0.0
C2382 C 0.43293 0.39664 0.13468 0.0
C2383 C 0.42053 0.40993 0.13653 0.0
H2384 H 0.42932 0.59145 0.87119 0.0
H2385 H 0.39635 0.628 0.84315 0.0
H2386 H 0.37338 0.60583 0.84096 0.0
H2387 H 0.36208 0.57636 0.84818 0.0
H2388 H 0.3943 0.54089 0.87819 0.0
H2389 H 0.41803 0.56246 0.87873 0.0
C2390 C 0.41704 0.59471 0.86478 0.0
C2391 C 0.41462 0.61146 0.85742 0.0
C2392 C 0.40371 0.58208 0.86399 0.0
C2393 C 0.39874 0.61518 0.84876 0.0
C2394 C 0.38551 0.60254 0.84761 0.0
C2395 C 0.37437 0.57338 0.8547 0.0
C2396 C 0.37654 0.55715 0.86312 0.0
C2397 C 0.3878 0.58599 0.85528 0.0
C2398 C 0.39239 0.5534 0.87171 0.0
C2399 C 0.40593 0.56569 0.872 0.0
H2400 H 0.40902 0.35853 0.88278 0.0
H2401 H 0.43568 0.38508 0.84055 0.0
H2402 H 0.4114 0.4058 0.83794 0.0
H2403 H 0.38343 0.41726 0.84866 0.0
H2404 H 0.35626 0.3904 0.89044 0.0
H2405 H 0.38009 0.36911 0.89244 0.0
C2406 C 0.40948 0.36887 0.87302 0.0
C2407 C 0.42412 0.37033 0.86192 0.0
C2408 C 0.39548 0.38075 0.8716 0.0
C2409 C 0.42447 0.38361 0.84915 0.0
C2410 C 0.41065 0.39552 0.84772 0.0
C2411 C 0.38251 0.40657 0.85798 0.0
C2412 C 0.36805 0.40551 0.86941 0.0
C2413 C 0.39616 0.39429 0.85897 0.0
C2414 C 0.36733 0.39172 0.88165 0.0
C2415 C 0.38092 0.37947 0.88275 0.0
H2416 H 0.63492 0.41383 0.85292 0.0
H2417 H 0.61736 0.43385 0.90281 0.0
H2418 H 0.5945 0.41143 0.90401 0.0
H2419 H 0.57874 0.38709 0.8903 0.0
H2420 H 0.59682 0.36629 0.84084 0.0
H2421 H 0.62 0.38834 0.83988 0.0
C2422 C 0.62607 0.41325 0.86403 0.0
C2423 C 0.62779 0.42546 0.87774 0.0
C2424 C 0.61297 0.40032 0.86464 0.0
C2425 C 0.61639 0.42447 0.89218 0.0
C2426 C 0.60327 0.41173 0.89283 0.0
C2427 C 0.58792 0.38714 0.87944 0.0
C2428 C 0.58594 0.37504 0.86563 0.0
C2429 C 0.60137 0.39968 0.87908 0.0
C2430 C 0.5978 0.3756 0.85151 0.0
C2431 C 0.61115 0.38814 0.851 0.0
H2432 H 0.60759 0.57146 0.88696 0.0
H2433 H 0.63853 0.59738 0.84718 0.0
H2434 H 0.61574 0.61951 0.84373 0.0
H2435 H 0.58677 0.6315 0.85189 0.0
H2436 H 0.5574 0.60706 0.89349 0.0
H2437 H 0.58011 0.58459 0.89672 0.0
C2438 C 0.60964 0.58211 0.87778 0.0
C2439 C 0.62483 0.58255 0.86729 0.0
C2440 C 0.59674 0.59511 0.87622 0.0
C2441 C 0.62686 0.59636 0.85519 0.0
C2442 C 0.61388 0.60916 0.85329 0.0
C2443 C 0.58548 0.62125 0.86167 0.0
C2444 C 0.57056 0.62076 0.87241 0.0
C2445 C 0.59873 0.60861 0.86366 0.0
C2446 C 0.5689 0.6076 0.88516 0.0
C2447 C 0.58182 0.59477 0.88696 0.0
H2448 H 0.63339 0.60338 0.12836 0.0
H2449 H 0.60315 0.57179 0.16424 0.0
H2450 H 0.58022 0.59414 0.16491 0.0
H2451 H 0.56771 0.62124 0.1533 0.0
H2452 H 0.59816 0.65343 0.11802 0.0
H2453 H 0.62193 0.63203 0.11885 0.0
C2454 C 0.62181 0.60148 0.13641 0.0
C2455 C 0.61988 0.58595 0.14616 0.0
C2456 C 0.60865 0.61433 0.13665 0.0
C2457 C 0.60497 0.58371 0.15672 0.0
C2458 C 0.59181 0.59641 0.15701 0.0
C2459 C 0.57968 0.62386 0.1461 0.0
C2460 C 0.58101 0.63892 0.1355 0.0
C2461 C 0.59337 0.61161 0.14678 0.0
C2462 C 0.59658 0.64181 0.12602 0.0
C2463 C 0.61024 0.62962 0.12656 0.0
H2464 H 0.36801 0.59217 0.13752 0.0
H2465 H 0.40582 0.55069 0.14475 0.0
H2466 H 0.4292 0.57226 0.14813 0.0
H2467 H 0.4392 0.6027 0.14705 0.0
H2468 H 0.40173 0.64432 0.13912 0.0
H2469 H 0.37781 0.62294 0.13865 0.0
C2470 C 0.38132 0.58788 0.14011 0.0
C2471 C 0.38522 0.56985 0.14063 0.0
C2472 C 0.39473 0.60036 0.14198 0.0
C2473 C 0.40255 0.56448 0.14391 0.0
C2474 C 0.4159 0.5768 0.14595 0.0
C2475 C 0.42578 0.60709 0.1453 0.0
C2476 C 0.42225 0.62502 0.14294 0.0
C2477 C 0.4122 0.59474 0.14465 0.0
C2478 C 0.40478 0.63058 0.14106 0.0
C2479 C 0.39112 0.61836 0.14063 0.0
H2480 H 0.62525 0.41344 0.15091 0.0
H2481 H 0.61217 0.42975 0.09828 0.0
H2482 H 0.59219 0.40494 0.09536 0.0
H2483 H 0.57702 0.37974 0.10836 0.0
H2484 H 0.58918 0.36402 0.16133 0.0
H2485 H 0.61072 0.38768 0.16362 0.0
C2486 C 0.61796 0.41163 0.13883 0.0
C2487 C 0.62017 0.4235 0.12487 0.0
C2488 C 0.60625 0.39751 0.13733 0.0
C2489 C 0.61089 0.42073 0.10918 0.0
C2490 C 0.59935 0.40661 0.10752 0.0
C2491 C 0.58461 0.38132 0.1203 0.0
C2492 C 0.58155 0.37016 0.13465 0.0
C2493 C 0.59679 0.39504 0.12158 0.0
C2494 C 0.59123 0.37254 0.15015 0.0
C2495 C 0.60355 0.38604 0.15146 0.0
H2496 H 0.02621 0.28357 0.52287 0.0
H2497 H 0.03151 0.2604 0.4716 0.0
H2498 H -0.00028 0.25618 0.46994 0.0
H2499 H 0.97039 0.2623 0.48165 0.0
H2500 H 0.96539 0.28835 0.53173 0.0
H2501 H 0.99699 0.28757 0.53555 0.0
C2502 C 0.02041 0.27718 0.51155 0.0
C2503 C 0.03107 0.27232 0.49737 0.0
C2504 C 0.00215 0.27538 0.51045 0.0
C2505 C 0.02346 0.2643 0.48263 0.0
C2506 C 0.00532 0.26194 0.48167 0.0
C2507 C 0.97618 0.26777 0.49343 0.0
C2508 C 0.96541 0.2755 0.50627 0.0
C2509 C 0.9945 0.268 0.49525 0.0
C2510 C 0.9732 0.28211 0.52166 0.0
C2511 C 0.99136 0.28186 0.52381 0.0
H2512 H 0.71577 0.02548 0.47288 0.0
H2513 H 0.71677 0.02487 0.52947 0.0
H2514 H 0.72125 0.99319 0.52925 0.0
H2515 H 0.7212 0.96539 0.51313 0.0
H2516 H 0.71871 0.96574 0.45662 0.0
H2517 H 0.71839 0.99781 0.45664 0.0
C2518 C 0.71705 0.01841 0.48516 0.0
C2519 C 0.71574 0.02749 0.50116 0.0
C2520 C 0.71921 0.00015 0.48495 0.0
C2521 C 0.71781 0.01822 0.51696 0.0
C2522 C 0.72025 8e-05 0.51686 0.0
C2523 C 0.72107 0.9725 0.50081 0.0
C2524 C 0.7199 0.96325 0.4849 0.0
C2525 C 0.7205 0.99087 0.50095 0.0
C2526 C 0.71945 0.97261 0.46903 0.0
C2527 C 0.71925 0.99092 0.46905 0.0
H2528 H 0.96706 0.71239 0.51682 0.0
H2529 H 0.96254 0.70917 0.46048 0.0
H2530 H 0.99411 0.71317 0.45752 0.0
H2531 H 0.02325 0.71461 0.47097 0.0
H2532 H 0.0281 0.71618 0.52731 0.0
H2533 H 0.99619 0.71607 0.53023 0.0
C2534 C 0.97299 0.71263 0.5039 0.0
C2535 C 0.96246 0.71034 0.48891 0.0
C2536 C 0.99123 0.7146 0.50229 0.0
C2537 C 0.97029 0.71104 0.47224 0.0
C2538 C 0.98838 0.71319 0.47052 0.0
C2539 C 0.01731 0.71504 0.48388 0.0
C2540 C 0.02802 0.7152 0.49889 0.0
C2541 C -0.001 0.71455 0.48546 0.0
C2542 C 0.02015 0.71614 0.51553 0.0
C2543 C 0.00191 0.71591 0.51722 0.0
H2544 H 0.27517 0.0272 0.47781 0.0
H2545 H 0.29103 0.03064 0.53207 0.0
H2546 H 0.29013 -0.0012 0.53456 0.0
H2547 H 0.2882 0.97 0.52049 0.0
H2548 H 0.27379 0.96636 0.4659 0.0
H2549 H 0.27102 -0.00173 0.46431 0.0
C2550 C 0.27837 0.02098 0.4902 0.0
C2551 C 0.28329 0.03132 0.50467 0.0
C2552 C 0.27829 0.00263 0.49143 0.0
C2553 C 0.28704 0.02306 0.52074 0.0
C2554 C 0.28669 0.00482 0.52215 0.0
C2555 C 0.28405 0.97615 0.50835 0.0
C2556 C 0.2813 0.96586 0.49331 0.0
C2557 C 0.28277 0.99448 0.50747 0.0
C2558 C 0.27619 0.97405 0.4776 0.0
C2559 C 0.27458 0.99227 0.47669 0.0
H2560 H 0.47401 0.96802 0.2883 0.0
H2561 H 0.5243 0.9663 0.26249 0.0
H2562 H 0.52445 -0.0017 0.26025 0.0
H2563 H 0.51162 0.02671 0.2683 0.0
H2564 H 0.46218 0.02812 0.29586 0.0
H2565 H 0.46008 0.99631 0.29416 0.0
C2566 C 0.4848 0.97462 0.28179 0.0
C2567 C 0.49916 0.96485 0.27564 0.0
C2568 C 0.48497 0.99298 0.28091 0.0
C2569 C 0.51318 0.97359 0.26747 0.0
C2570 C 0.51327 0.99186 0.2662 0.0
C2571 C 0.50035 0.02006 0.27387 0.0
C2572 C 0.48717 0.02983 0.28232 0.0
C2573 C 0.49947 0.0017 0.27335 0.0
C2574 C 0.47246 0.02101 0.28913 0.0
C2575 C 0.47131 0.00278 0.28832 0.0
H2576 H 0.97287 0.51623 0.26401 0.0
H2577 H 0.97019 0.46173 0.27899 0.0
H2578 H 0.0021 0.45978 0.27844 0.0
H2579 H 0.0306 0.47461 0.2779 0.0
H2580 H 0.03341 0.52941 0.26411 0.0
H2581 H 0.00161 0.53024 0.26016 0.0
C2582 C 0.97929 0.50388 0.26697 0.0
C2583 C 0.96919 0.48921 0.27171 0.0
C2584 C 0.99766 0.50297 0.2671 0.0
C2585 C 0.97764 0.4732 0.27519 0.0
C2586 C 0.99591 0.47211 0.27505 0.0
C2587 C 0.02432 0.48662 0.27357 0.0
C2588 C 0.0343 0.50198 0.27151 0.0
C2589 C 0.00604 0.48706 0.27159 0.0
C2590 C 0.02594 0.51748 0.26607 0.0
C2591 C 0.00778 0.51796 0.26379 0.0
H2592 H 0.52364 0.9712 0.71609 0.0
H2593 H 0.4682 0.96625 0.72632 0.0
H2594 H 0.46556 -0.00192 0.72843 0.0
H2595 H 0.47836 0.02726 0.72399 0.0
H2596 H 0.53365 0.03223 0.7132 0.0
H2597 H 0.53712 0.00043 0.71526 0.0
C2598 C 0.51107 0.97704 0.71924 0.0
C2599 C 0.49609 0.96639 0.72079 0.0
C2600 C 0.50961 0.99536 0.72026 0.0
C2601 C 0.47986 0.9742 0.72474 0.0
C2602 C 0.47834 0.99238 0.72598 0.0
C2603 C 0.49119 0.02136 0.72231 0.0
C2604 C 0.50568 0.03199 0.71825 0.0
C2605 C 0.49302 0.00309 0.72318 0.0
C2606 C 0.52231 0.02429 0.71639 0.0
C2607 C 0.52427 0.00611 0.71743 0.0
H2608 H 0.96666 0.51021 0.67794 0.0
H2609 H 0.96351 0.50185 0.7338 0.0
H2610 H 0.99558 0.50274 0.73587 0.0
H2611 H 0.02453 0.50569 0.72156 0.0
H2612 H 0.02691 0.51366 0.66554 0.0
H2613 H 0.99507 0.51363 0.6639 0.0
C2614 C 0.97293 0.50889 0.69064 0.0
C2615 C 0.96271 0.50612 0.70571 0.0
C2616 C 0.99125 0.50942 0.69171 0.0
C2617 C 0.97111 0.50393 0.72198 0.0
C2618 C 0.98942 0.50449 0.72318 0.0
C2619 C 0.01806 0.50738 0.70901 0.0
C2620 C 0.02812 0.50983 0.69373 0.0
C2621 C -0.00036 0.50715 0.70809 0.0
C2622 C 0.01952 0.51212 0.67757 0.0
C2623 C 0.0013 0.51196 0.67657 0.0
H2624 H 0.27996 0.46906 0.97373 0.0
H2625 H 0.28609 0.52456 0.96455 0.0
H2626 H 0.28625 0.52997 0.99607 0.0
H2627 H 0.28743 0.51867 0.0262 0.0
H2628 H 0.28289 0.463 0.03531 0.0
H2629 H 0.27918 0.45796 0.00394 0.0
C2630 C 0.28126 0.48234 0.97865 0.0
C2631 C 0.28315 0.49635 0.9668 0.0
C2632 C 0.28171 0.48533 0.99679 0.0
C2633 C 0.28447 0.51354 0.97336 0.0
C2634 C 0.28472 0.51664 0.9914 0.0
C2635 C 0.28557 0.50544 0.02131 0.0
C2636 C 0.28558 0.49124 0.03306 0.0
C2637 C 0.28378 0.50259 0.00322 0.0
C2638 C 0.2828 0.4742 0.02657 0.0
C2639 C 0.28082 0.47128 0.00861 0.0
H2640 H 0.48594 0.27177 0.96996 0.0
H2641 H 0.53886 0.29173 0.96788 0.0
H2642 H 0.54106 0.28987 -0.00028 0.0
H2643 H 0.52682 0.28599 0.02815 0.0
H2644 H 0.47371 0.26654 0.03056 0.0
H2645 H 0.47263 0.26505 -0.00143 0.0
C2646 C 0.49799 0.27558 0.97649 0.0
C2647 C 0.51215 0.282 0.96658 0.0
C2648 C 0.49906 0.27481 0.99485 0.0
C2649 C 0.52781 0.28661 0.97517 0.0
C2650 C 0.52903 0.2857 0.99341 0.0
C2651 C 0.51515 0.28098 0.02174 0.0
C2652 C 0.50032 0.27652 0.03175 0.0
C2653 C 0.51459 0.28026 0.00338 0.0
C2654 C 0.48522 0.27033 0.02315 0.0
C2655 C 0.48461 0.26942 0.00486 0.0
H2656 H 0.69404 0.52812 0.97328 0.0
H2657 H 0.74198 0.49818 0.97358 0.0
H2658 H 0.7422 0.49851 0.00575 0.0
H2659 H 0.72781 0.50613 0.03365 0.0
H2660 H 0.67832 0.53377 0.03254 0.0
H2661 H 0.68 0.536 0.00087 0.0
C2662 C 0.70473 0.52197 0.9804 0.0
C2663 C 0.71806 0.51328 0.97116 0.0
C2664 C 0.70449 0.52182 -0.00125 0.0
C2665 C 0.7316 0.50497 0.98049 0.0
C2666 C 0.7317 0.50515 -0.00116 0.0
C2667 C 0.71735 0.51258 0.02651 0.0
C2668 C 0.70303 0.51985 0.03564 0.0
C2669 C 0.71803 0.51329 0.00811 0.0
C2670 C 0.68974 0.52839 0.02606 0.0
C2671 C 0.69056 0.52952 0.00786 0.0
H2672 H 0.46706 0.69049 0.96492 0.0
H2673 H 0.49878 0.73699 0.95955 0.0
H2674 H 0.50016 0.73996 0.99151 0.0
H2675 H 0.49374 0.7282 0.02091 0.0
H2676 H 0.46351 0.68051 0.02566 0.0
H2677 H 0.45973 0.67948 0.99404 0.0
C2678 C 0.47395 0.7015 0.97074 0.0
C2679 C 0.48274 0.71355 0.95994 0.0
C2680 C 0.47497 0.7029 0.98902 0.0
C2681 C 0.49196 0.72752 0.96765 0.0
C2682 C 0.49275 0.72921 0.98589 0.0
C2683 C 0.48634 0.71757 0.01503 0.0
C2684 C 0.47891 0.70449 0.02573 0.0
C2685 C 0.48459 0.71675 0.99671 0.0
C2686 C 0.46913 0.69096 0.01786 0.0
C2687 C 0.46708 0.69024 -0.00028 0.0
H2688 H 0.20071 0.24315 0.5171 0.0
H2689 H 0.19041 0.23738 0.46168 0.0
H2690 H 0.21178 0.21368 0.46003 0.0
H2691 H 0.23369 0.19478 0.47422 0.0
H2692 H 0.2455 0.2019 0.52903 0.0
H2693 H 0.22346 0.22519 0.53098 0.0
C2694 C 0.2033 0.23693 0.50459 0.0
C2695 C 0.19386 0.24204 0.48957 0.0
C2696 C 0.21589 0.22357 0.50362 0.0
C2697 C 0.19722 0.23353 0.47354 0.0
C2698 C 0.20953 0.22004 0.47254 0.0
C2699 C 0.23132 0.20142 0.48657 0.0
C2700 C 0.24102 0.19669 0.50148 0.0
C2701 C 0.21891 0.21494 0.48749 0.0
C2702 C 0.23813 0.20545 0.5174 0.0
C2703 C 0.22555 0.2187 0.51851 0.0
H2704 H 0.75953 0.19227 0.47624 0.0
H2705 H 0.76523 0.18494 0.53205 0.0
H2706 H 0.78836 0.20712 0.53283 0.0
H2707 H 0.80631 0.22909 0.51779 0.0
H2708 H 0.79999 0.23711 0.46211 0.0
H2709 H 0.77805 0.21381 0.46105 0.0
C2710 C 0.76601 0.19538 0.48851 0.0
C2711 C 0.76068 0.18706 0.50406 0.0
C2712 C 0.77917 0.20822 0.48888 0.0
C2713 C 0.769 0.19135 0.51994 0.0
C2714 C 0.78224 0.20397 0.52039 0.0
C2715 C 0.80005 0.22582 0.50544 0.0
C2716 C 0.80471 0.23489 0.49008 0.0
C2717 C 0.78727 0.21263 0.50497 0.0
C2718 C 0.79675 0.23023 0.47411 0.0
C2719 C 0.78413 0.21698 0.4735 0.0
H2720 H 0.79398 0.74947 0.51585 0.0
H2721 H 0.80457 0.75813 0.46097 0.0
H2722 H 0.78273 0.78161 0.46024 0.0
H2723 H 0.76109 0.79992 0.47533 0.0
H2724 H 0.74975 0.79055 0.53001 0.0
H2725 H 0.77177 0.76736 0.53079 0.0
C2726 C 0.79156 0.75659 0.50377 0.0
C2727 C 0.80087 0.75216 0.48851 0.0
C2728 C 0.77897 0.76999 0.50344 0.0
C2729 C 0.79745 0.76126 0.47286 0.0
C2730 C 0.78504 0.77471 0.47245 0.0
C2731 C 0.76326 0.79267 0.48737 0.0
C2732 C 0.75378 0.79702 0.50259 0.0
C2733 C 0.77573 0.77918 0.48767 0.0
C2734 C 0.75703 0.78768 0.51816 0.0
C2735 C 0.76954 0.77433 0.5186 0.0
H2736 H 0.19035 0.76819 0.51807 0.0
H2737 H 0.20633 0.74803 0.46763 0.0
H2738 H 0.2303 0.76914 0.46658 0.0
H2739 H 0.24689 0.79317 0.48002 0.0
H2740 H 0.23164 0.81277 0.53081 0.0
H2741 H 0.20747 0.79169 0.5319 0.0
C2742 C 0.19919 0.76827 0.50693 0.0
C2743 C 0.19644 0.7566 0.49291 0.0
C2744 C 0.21313 0.78027 0.50651 0.0
C2745 C 0.2079 0.75707 0.47847 0.0
C2746 C 0.22171 0.76905 0.4779 0.0
C2747 C 0.2382 0.79288 0.49127 0.0
C2748 C 0.24096 0.80451 0.50528 0.0
C2749 C 0.22441 0.78074 0.49181 0.0
C2750 C 0.22981 0.80383 0.51993 0.0
C2751 C 0.21597 0.79185 0.52051 0.0
H2752 H 0.48483 0.20953 0.25198 0.0
H2753 H 0.52442 0.17911 0.2253 0.0
H2754 H 0.5252 0.2006 0.20161 0.0
H2755 H 0.5144 0.22779 0.18829 0.0
H2756 H 0.4743 0.25783 0.21452 0.0
H2757 H 0.47359 0.23641 0.23837 0.0
C2758 C 0.49349 0.20748 0.2409 0.0
C2759 C 0.50458 0.19274 0.24047 0.0
C2760 C 0.4937 0.21974 0.2272 0.0
C2761 C 0.51594 0.19047 0.22612 0.0
C2762 C 0.51632 0.20268 0.2125 0.0
C2763 C 0.5056 0.22969 0.1993 0.0
C2764 C 0.49446 0.24436 0.1997 0.0
C2765 C 0.50527 0.21736 0.21292 0.0
C2766 C 0.48289 0.24654 0.21387 0.0
C2767 C 0.48255 0.23436 0.22753 0.0
H2768 H 0.78318 0.49096 0.25289 0.0
H2769 H 0.82288 0.48253 0.21347 0.0
H2770 H 0.80047 0.48282 0.19057 0.0
H2771 H 0.76973 0.48644 0.18171 0.0
H2772 H 0.7301 0.49499 0.22116 0.0
H2773 H 0.75231 0.49314 0.24417 0.0
C2774 C 0.7869 0.4889 0.23932 0.0
C2775 C 0.80467 0.48683 0.23488 0.0
C2776 C 0.77397 0.48906 0.22625 0.0
C2777 C 0.80931 0.48443 0.2172 0.0
C2778 C 0.79651 0.48451 0.20412 0.0
C2779 C 0.76598 0.48792 0.19535 0.0
C2780 C 0.74834 0.49093 0.19973 0.0
C2781 C 0.77883 0.48704 0.20848 0.0
C2782 C 0.74359 0.49251 0.21747 0.0
C2783 C 0.75629 0.49158 0.23062 0.0
H2784 H 0.48448 0.74984 0.20491 0.0
H2785 H 0.49158 0.78995 0.16564 0.0
H2786 H 0.49341 0.8123 0.18857 0.0
H2787 H 0.49383 0.82022 0.21979 0.0
H2788 H 0.48722 0.7799 0.25896 0.0
H2789 H 0.48395 0.75785 0.23599 0.0
C2790 C 0.48612 0.76351 0.20135 0.0
C2791 C 0.48788 0.76825 0.18363 0.0
C2792 C 0.48727 0.77621 0.21457 0.0
C2793 C 0.49034 0.78597 0.17922 0.0
C2794 C 0.49135 0.79874 0.19231 0.0
C2795 C 0.49177 0.80658 0.22328 0.0
C2796 C 0.49086 0.80168 0.24104 0.0
C2797 C 0.49005 0.79397 0.21003 0.0
C2798 C 0.48784 0.78403 0.24538 0.0
C2799 C 0.48605 0.7714 0.23227 0.0
H2800 H 0.20127 0.52297 0.23883 0.0
H2801 H 0.19598 0.46663 0.23759 0.0
H2802 H 0.21884 0.4648 0.21528 0.0
H2803 H 0.24023 0.4792 0.19608 0.0
H2804 H 0.24519 0.53554 0.19691 0.0
H2805 H 0.22215 0.53743 0.21912 0.0
C2806 C 0.20496 0.51031 0.23353 0.0
C2807 C 0.19697 0.49496 0.23991 0.0
C2808 C 0.21796 0.50936 0.22059 0.0
C2809 C 0.20212 0.47862 0.2331 0.0
C2810 C 0.2151 0.47757 0.22027 0.0
C2811 C 0.23632 0.49188 0.20122 0.0
C2812 C 0.24441 0.5072 0.19497 0.0
C2813 C 0.22314 0.49285 0.21397 0.0
C2814 C 0.23904 0.52357 0.20146 0.0
C2815 C 0.22595 0.52465 0.21421 0.0
H2816 H 0.51246 0.76096 0.80583 0.0
H2817 H 0.46815 0.73777 0.77922 0.0
H2818 H 0.46843 0.76146 0.75773 0.0
H2819 H 0.48135 0.78866 0.74637 0.0
H2820 H 0.52637 0.81117 0.77217 0.0
H2821 H 0.52597 0.78758 0.79393 0.0
C2822 C 0.50301 0.76093 0.7952 0.0
C2823 C 0.49027 0.74762 0.7942 0.0
C2824 C 0.50339 0.77444 0.78273 0.0
C2825 C 0.47793 0.74799 0.78049 0.0
C2826 C 0.47813 0.76147 0.76812 0.0
C2827 C 0.49098 0.78842 0.75685 0.0
C2828 C 0.5038 0.80161 0.75779 0.0
C2829 C 0.49076 0.77479 0.76916 0.0
C2830 C 0.51642 0.80107 0.7712 0.0
C2831 C 0.51617 0.78764 0.78364 0.0
H2832 H 0.2312 0.51506 0.80251 0.0
H2833 H 0.23275 0.45849 0.80231 0.0
H2834 H 0.21047 0.45776 0.77932 0.0
H2835 H 0.19103 0.47318 0.75884 0.0
H2836 H 0.19031 0.52976 0.75823 0.0
H2837 H 0.21177 0.53048 0.782 0.0
C2838 C 0.22674 0.50257 0.79735 0.0
C2839 C 0.23364 0.48686 0.80411 0.0
C2840 C 0.21408 0.50225 0.784 0.0
C2841 C 0.2275 0.47078 0.7975 0.0
C2842 C 0.21485 0.47035 0.78427 0.0
C2843 C 0.19567 0.48567 0.76382 0.0
C2844 C 0.18911 0.50138 0.75675 0.0
C2845 C 0.20813 0.486 0.77736 0.0
C2846 C 0.195 0.51747 0.76357 0.0
C2847 C 0.20735 0.5179 0.77709 0.0
H2848 H 0.52138 0.19711 0.75856 0.0
H2849 H 0.46485 0.19544 0.76018 0.0
H2850 H 0.46466 0.21783 0.7831 0.0
H2851 H 0.48051 0.23828 0.80213 0.0
H2852 H 0.5371 0.23959 0.80096 0.0
H2853 H 0.5373 0.2172 0.77808 0.0
C2854 C 0.50903 0.20175 0.76386 0.0
C2855 C 0.49316 0.19468 0.75769 0.0
C2856 C 0.50902 0.2146 0.77701 0.0
C2857 C 0.47724 0.20058 0.76485 0.0
C2858 C 0.47712 0.21343 0.77788 0.0
C2859 C 0.4929 0.23352 0.79704 0.0
C2860 C 0.50876 0.24062 0.80325 0.0
C2861 C 0.49293 0.22054 0.78403 0.0
C2862 C 0.52469 0.23452 0.79625 0.0
C2863 C 0.52483 0.22165 0.78324 0.0
H2864 H 0.74777 0.4824 0.79122 0.0
H2865 H 0.77276 0.52718 0.81509 0.0
H2866 H 0.79521 0.52712 0.79222 0.0
H2867 H 0.80792 0.51407 0.76577 0.0
H2868 H 0.78241 0.46979 0.74139 0.0
H2869 H 0.76017 0.46969 0.76438 0.0
C2870 C 0.75822 0.49205 0.79146 0.0
C2871 C 0.75867 0.50474 0.8048 0.0
C2872 C 0.77101 0.49198 0.77826 0.0
C2873 C 0.77209 0.51736 0.80485 0.0
C2874 C 0.78495 0.51729 0.79183 0.0
C2875 C 0.79738 0.50452 0.76535 0.0
C2876 C 0.79687 0.49193 0.75189 0.0
C2877 C 0.78452 0.50467 0.77848 0.0
C2878 C 0.78328 0.47947 0.75174 0.0
C2879 C 0.77049 0.47946 0.76482 0.0
loop_
_geom_bond_atom_site_label_1
_geom_bond_atom_site_label_2
_geom_bond_distance
_geom_bond_site_symmetry_2
_ccdc_geom_bond_type
Li0 N17 1.990 . S
Li0 O60 1.956 . S
Li0 O61 1.970 . S
Li0 O62 1.961 . S
Li1 N25 1.990 . S
Li1 O60 1.970 . S
Li1 O61 1.956 . S
Li1 O63 1.961 . S
Li2 N47 1.990 . S
Li2 O60 1.961 . S
Li2 O62 1.956 . S
Li2 O63 1.970 . S
Li3 N53 1.990 . S
Li3 O61 1.961 . S
Li3 O62 1.970 . S
Li3 O63 1.956 . S
C4 C6 1.348 . S
C4 C7 1.356 . S
C4 O60 1.325 . S
N5 C8 1.314 . S
N5 C9 1.279 . S
C6 C4 1.348 . S
C6 C8 1.353 . S
C6 H64 0.929 . S
C7 C4 1.356 . S
C7 C9 1.358 . S
C7 H65 0.930 . S
C8 N5 1.314 . S
C8 C6 1.353 . S
C8 H66 0.930 . S
C9 N5 1.279 . S
C9 C7 1.358 . S
C9 H67 0.930 . S
C10 C13 1.348 . S
C10 C14 1.356 . S
C10 O61 1.325 . S
C11 N12 1.279 . S
C11 C14 1.358 . S
C11 H68 0.930 . S
N12 C11 1.279 . S
N12 C15 1.314 . S
C13 C10 1.348 . S
C13 C15 1.353 . S
C13 H69 0.929 . S
C14 C10 1.356 . S
C14 C11 1.358 . S
C14 H70 0.930 . S
C15 N12 1.314 . S
C15 C13 1.353 . S
C15 H71 0.930 . S
C16 N17 1.314 . S
C16 C21 1.353 . S
C16 H22 0.930 . S
N17 Li0 1.990 . S
N17 C16 1.314 . S
N17 C19 1.279 . S
C18 C19 1.358 . S
C18 C20 1.356 . S
C18 H72 0.930 . S
C19 N17 1.279 . S
C19 C18 1.358 . S
C19 H23 0.930 . S
C20 C18 1.356 . S
C20 C21 1.348 . S
C21 C16 1.353 . S
C21 C20 1.348 . S
C21 H73 0.929 . S
H22 C16 0.930 . S
H23 C19 0.930 . S
C24 N25 1.314 . S
C24 C26 1.353 . S
C24 H30 0.930 . S
N25 Li1 1.990 . S
N25 C24 1.314 . S
N25 C28 1.279 . S
C26 C24 1.353 . S
C26 C29 1.348 . S
C26 H74 0.929 . S
C27 C28 1.358 . S
C27 C29 1.356 . S
C27 H75 0.930 . S
C28 N25 1.279 . S
C28 C27 1.358 . S
C28 H31 0.930 . S
C29 C26 1.348 . S
C29 C27 1.356 . S
H30 C24 0.930 . S
H31 C28 0.930 . S
C32 C34 1.348 . S
C32 C35 1.356 . S
C32 O62 1.325 . S
N33 C36 1.314 . S
N33 C37 1.279 . S
C34 C32 1.348 . S
C34 C36 1.353 . S
C34 H76 0.929 . S
C35 C32 1.356 . S
C35 C37 1.358 . S
C35 H77 0.930 . S
C36 N33 1.314 . S
C36 C34 1.353 . S
C36 H78 0.930 . S
C37 N33 1.279 . S
C37 C35 1.358 . S
C37 H79 0.930 . S
C38 C39 1.348 . S
C38 C40 1.356 . S
C38 O63 1.325 . S
C39 C38 1.348 . S
C39 C41 1.353 . S
C39 H80 0.929 . S
C40 C38 1.356 . S
C40 C42 1.358 . S
C40 H81 0.930 . S
C41 C39 1.353 . S
C41 N43 1.314 . S
C41 H82 0.930 . S
C42 C40 1.358 . S
C42 N43 1.279 . S
C42 H83 0.930 . S
N43 C41 1.314 . S
N43 C42 1.279 . S
C44 C46 1.353 . S
C44 N47 1.314 . S
C44 H50 0.930 . S
C45 N47 1.279 . S
C45 C48 1.358 . S
C45 H51 0.930 . S
C46 C44 1.353 . S
C46 C49 1.348 . S
C46 H84 0.929 . S
N47 Li2 1.990 . S
N47 C44 1.314 . S
N47 C45 1.279 . S
C48 C45 1.358 . S
C48 C49 1.356 . S
C48 H85 0.930 . S
C49 C46 1.348 . S
C49 C48 1.356 . S
H50 C44 0.930 . S
H51 C45 0.930 . S
C52 N53 1.314 . S
C52 C54 1.353 . S
C52 H58 0.930 . S
N53 Li3 1.990 . S
N53 C52 1.314 . S
N53 C56 1.279 . S
C54 C52 1.353 . S
C54 C57 1.348 . S
C54 H86 0.929 . S
C55 C56 1.358 . S
C55 C57 1.356 . S
C55 H87 0.930 . S
C56 N53 1.279 . S
C56 C55 1.358 . S
C56 H59 0.930 . S
C57 C54 1.348 . S
C57 C55 1.356 . S
H58 C52 0.930 . S
H59 C56 0.930 . S
O60 Li0 1.956 . S
O60 Li1 1.970 . S
O60 Li2 1.961 . S
O60 C4 1.325 . S
O61 Li0 1.970 . S
O61 Li1 1.956 . S
O61 Li3 1.961 . S
O61 C10 1.325 . S
O62 Li0 1.961 . S
O62 Li2 1.956 . S
O62 Li3 1.970 . S
O62 C32 1.325 . S
O63 Li1 1.961 . S
O63 Li2 1.970 . S
O63 Li3 1.956 . S
O63 C38 1.325 . S
H64 C6 0.929 . S
H65 C7 0.930 . S
H66 C8 0.930 . S
H67 C9 0.930 . S
H68 C11 0.930 . S
H69 C13 0.929 . S
H70 C14 0.930 . S
H71 C15 0.930 . S
H72 C18 0.930 . S
H73 C21 0.929 . S
H74 C26 0.929 . S
H75 C27 0.930 . S
H76 C34 0.929 . S
H77 C35 0.930 . S
H78 C36 0.930 . S
H79 C37 0.930 . S
H80 C39 0.929 . S
H81 C40 0.930 . S
H82 C41 0.930 . S
H83 C42 0.930 . S
H84 C46 0.929 . S
H85 C48 0.930 . S
H86 C54 0.929 . S
H87 C55 0.930 . S
Li88 N105 1.990 . S
Li88 O148 1.956 . S
Li88 O149 1.970 . S
Li88 O150 1.961 . S
Li89 N113 1.990 . S
Li89 O148 1.970 . S
Li89 O149 1.956 . S
Li89 O151 1.961 . S
Li90 N135 1.990 . S
Li90 O148 1.961 . S
Li90 O150 1.956 . S
Li90 O151 1.970 . S
Li91 N141 1.990 . S
Li91 O149 1.961 . S
Li91 O150 1.970 . S
Li91 O151 1.956 . S
C92 C94 1.348 . S
C92 C95 1.356 . S
C92 O148 1.325 . S
N93 C96 1.314 . S
N93 C97 1.279 . S
C94 C92 1.348 . S
C94 C96 1.353 . S
C94 H152 0.929 . S
C95 C92 1.356 . S
C95 C97 1.358 . S
C95 H153 0.930 . S
C96 N93 1.314 . S
C96 C94 1.353 . S
C96 H154 0.930 . S
C97 N93 1.279 . S
C97 C95 1.358 . S
C97 H155 0.930 . S
C98 C101 1.348 . S
C98 C102 1.356 . S
C98 O149 1.325 . S
C99 N100 1.279 . S
C99 C102 1.358 . S
C99 H156 0.930 . S
N100 C99 1.279 . S
N100 C103 1.314 . S
C101 C98 1.348 . S
C101 C103 1.353 . S
C101 H157 0.929 . S
C102 C98 1.356 . S
C102 C99 1.358 . S
C102 H158 0.930 . S
C103 N100 1.314 . S
C103 C101 1.353 . S
C103 H159 0.930 . S
C104 N105 1.314 . S
C104 C109 1.353 . S
C104 H110 0.930 . S
N105 Li88 1.990 . S
N105 C104 1.314 . S
N105 C107 1.279 . S
C106 C107 1.358 . S
C106 C108 1.356 . S
C106 H160 0.930 . S
C107 N105 1.279 . S
C107 C106 1.358 . S
C107 H111 0.930 . S
C108 C106 1.356 . S
C108 C109 1.348 . S
C109 C104 1.353 . S
C109 C108 1.348 . S
C109 H161 0.929 . S
H110 C104 0.930 . S
H111 C107 0.930 . S
C112 N113 1.314 . S
C112 C114 1.353 . S
C112 H118 0.930 . S
N113 Li89 1.990 . S
N113 C112 1.314 . S
N113 C116 1.279 . S
C114 C112 1.353 . S
C114 C117 1.348 . S
C114 H162 0.929 . S
C115 C116 1.358 . S
C115 C117 1.356 . S
C115 H163 0.930 . S
C116 N113 1.279 . S
C116 C115 1.358 . S
C116 H119 0.930 . S
C117 C114 1.348 . S
C117 C115 1.356 . S
H118 C112 0.930 . S
H119 C116 0.930 . S
C120 C122 1.348 . S
C120 C123 1.356 . S
C120 O150 1.325 . S
N121 C124 1.314 . S
N121 C125 1.279 . S
C122 C120 1.348 . S
C122 C124 1.353 . S
C122 H164 0.929 . S
C123 C120 1.356 . S
C123 C125 1.358 . S
C123 H165 0.930 . S
C124 N121 1.314 . S
C124 C122 1.353 . S
C124 H166 0.930 . S
C125 N121 1.279 . S
C125 C123 1.358 . S
C125 H167 0.930 . S
C126 C127 1.348 . S
C126 C128 1.356 . S
C126 O151 1.325 . S
C127 C126 1.348 . S
C127 C129 1.353 . S
C127 H168 0.929 . S
C128 C126 1.356 . S
C128 C130 1.358 . S
C128 H169 0.930 . S
C129 C127 1.353 . S
C129 N131 1.314 . S
C129 H170 0.930 . S
C130 C128 1.358 . S
C130 N131 1.279 . S
C130 H171 0.930 . S
N131 C129 1.314 . S
N131 C130 1.279 . S
C132 C134 1.353 . S
C132 N135 1.314 . S
C132 H138 0.930 . S
C133 N135 1.279 . S
C133 C136 1.358 . S
C133 H139 0.930 . S
C134 C132 1.353 . S
C134 C137 1.348 . S
C134 H172 0.929 . S
N135 Li90 1.990 . S
N135 C132 1.314 . S
N135 C133 1.279 . S
C136 C133 1.358 . S
C136 C137 1.356 . S
C136 H173 0.930 . S
C137 C134 1.348 . S
C137 C136 1.356 . S
H138 C132 0.930 . S
H139 C133 0.930 . S
C140 N141 1.314 . S
C140 C142 1.353 . S
C140 H146 0.930 . S
N141 Li91 1.990 . S
N141 C140 1.314 . S
N141 C144 1.279 . S
C142 C140 1.353 . S
C142 C145 1.348 . S
C142 H174 0.929 . S
C143 C144 1.358 . S
C143 C145 1.356 . S
C143 H175 0.930 . S
C144 N141 1.279 . S
C144 C143 1.358 . S
C144 H147 0.930 . S
C145 C142 1.348 . S
C145 C143 1.356 . S
H146 C140 0.930 . S
H147 C144 0.930 . S
O148 Li88 1.956 . S
O148 Li89 1.970 . S
O148 Li90 1.961 . S
O148 C92 1.325 . S
O149 Li88 1.970 . S
O149 Li89 1.956 . S
O149 Li91 1.961 . S
O149 C98 1.325 . S
O150 Li88 1.961 . S
O150 Li90 1.956 . S
O150 Li91 1.970 . S
O150 C120 1.325 . S
O151 Li89 1.961 . S
O151 Li90 1.970 . S
O151 Li91 1.956 . S
O151 C126 1.325 . S
H152 C94 0.929 . S
H153 C95 0.930 . S
H154 C96 0.930 . S
H155 C97 0.930 . S
H156 C99 0.930 . S
H157 C101 0.929 . S
H158 C102 0.930 . S
H159 C103 0.930 . S
H160 C106 0.930 . S
H161 C109 0.929 . S
H162 C114 0.929 . S
H163 C115 0.930 . S
H164 C122 0.929 . S
H165 C123 0.930 . S
H166 C124 0.930 . S
H167 C125 0.930 . S
H168 C127 0.929 . S
H169 C128 0.930 . S
H170 C129 0.930 . S
H171 C130 0.930 . S
H172 C134 0.929 . S
H173 C136 0.930 . S
H174 C142 0.929 . S
H175 C143 0.930 . S
Li176 N193 1.990 . S
Li176 O236 1.956 . S
Li176 O237 1.970 . S
Li176 O238 1.961 . S
Li177 N201 1.990 . S
Li177 O236 1.970 . S
Li177 O237 1.956 . S
Li177 O239 1.961 . S
Li178 N223 1.990 . S
Li178 O236 1.961 . S
Li178 O238 1.956 . S
Li178 O239 1.970 . S
Li179 N229 1.990 . S
Li179 O237 1.961 . S
Li179 O238 1.970 . S
Li179 O239 1.956 . S
C180 C182 1.348 . S
C180 C183 1.356 . S
C180 O236 1.325 . S
N181 C184 1.314 . S
N181 C185 1.279 . S
C182 C180 1.348 . S
C182 C184 1.353 . S
C182 H240 0.929 . S
C183 C180 1.356 . S
C183 C185 1.358 . S
C183 H241 0.930 . S
C184 N181 1.314 . S
C184 C182 1.353 . S
C184 H242 0.930 . S
C185 N181 1.279 . S
C185 C183 1.358 . S
C185 H243 0.930 . S
C186 C189 1.348 . S
C186 C190 1.356 . S
C186 O237 1.325 . S
C187 N188 1.279 . S
C187 C190 1.358 . S
C187 H244 0.930 . S
N188 C187 1.279 . S
N188 C191 1.314 . S
C189 C186 1.348 . S
C189 C191 1.353 . S
C189 H245 0.929 . S
C190 C186 1.356 . S
C190 C187 1.358 . S
C190 H246 0.930 . S
C191 N188 1.314 . S
C191 C189 1.353 . S
C191 H247 0.930 . S
C192 N193 1.314 . S
C192 C197 1.353 . S
C192 H198 0.930 . S
N193 Li176 1.990 . S
N193 C192 1.314 . S
N193 C195 1.279 . S
C194 C195 1.358 . S
C194 C196 1.356 . S
C194 H248 0.930 . S
C195 N193 1.279 . S
C195 C194 1.358 . S
C195 H199 0.930 . S
C196 C194 1.356 . S
C196 C197 1.348 . S
C197 C192 1.353 . S
C197 C196 1.348 . S
C197 H249 0.929 . S
H198 C192 0.930 . S
H199 C195 0.930 . S
C200 N201 1.314 . S
C200 C202 1.353 . S
C200 H206 0.930 . S
N201 Li177 1.990 . S
N201 C200 1.314 . S
N201 C204 1.279 . S
C202 C200 1.353 . S
C202 C205 1.348 . S
C202 H250 0.929 . S
C203 C204 1.358 . S
C203 C205 1.356 . S
C203 H251 0.930 . S
C204 N201 1.279 . S
C204 C203 1.358 . S
C204 H207 0.930 . S
C205 C202 1.348 . S
C205 C203 1.356 . S
H206 C200 0.930 . S
H207 C204 0.930 . S
C208 C210 1.348 . S
C208 C211 1.356 . S
C208 O238 1.325 . S
N209 C212 1.314 . S
N209 C213 1.279 . S
C210 C208 1.348 . S
C210 C212 1.353 . S
C210 H252 0.929 . S
C211 C208 1.356 . S
C211 C213 1.358 . S
C211 H253 0.930 . S
C212 N209 1.314 . S
C212 C210 1.353 . S
C212 H254 0.930 . S
C213 N209 1.279 . S
C213 C211 1.358 . S
C213 H255 0.930 . S
C214 C215 1.348 . S
C214 C216 1.356 . S
C214 O239 1.325 . S
C215 C214 1.348 . S
C215 C217 1.353 . S
C215 H256 0.929 . S
C216 C214 1.356 . S
C216 C218 1.358 . S
C216 H257 0.930 . S
C217 C215 1.353 . S
C217 N219 1.314 . S
C217 H258 0.930 . S
C218 C216 1.358 . S
C218 N219 1.279 . S
C218 H259 0.930 . S
N219 C217 1.314 . S
N219 C218 1.279 . S
C220 C222 1.353 . S
C220 N223 1.314 . S
C220 H226 0.930 . S
C221 N223 1.279 . S
C221 C224 1.358 . S
C221 H227 0.930 . S
C222 C220 1.353 . S
C222 C225 1.348 . S
C222 H260 0.929 . S
N223 Li178 1.990 . S
N223 C220 1.314 . S
N223 C221 1.279 . S
C224 C221 1.358 . S
C224 C225 1.356 . S
C224 H261 0.930 . S
C225 C222 1.348 . S
C225 C224 1.356 . S
H226 C220 0.930 . S
H227 C221 0.930 . S
C228 N229 1.314 . S
C228 C230 1.353 . S
C228 H234 0.930 . S
N229 Li179 1.990 . S
N229 C228 1.314 . S
N229 C232 1.279 . S
C230 C228 1.353 . S
C230 C233 1.348 . S
C230 H262 0.929 . S
C231 C232 1.358 . S
C231 C233 1.356 . S
C231 H263 0.930 . S
C232 N229 1.279 . S
C232 C231 1.358 . S
C232 H235 0.930 . S
C233 C230 1.348 . S
C233 C231 1.356 . S
H234 C228 0.930 . S
H235 C232 0.930 . S
O236 Li176 1.956 . S
O236 Li177 1.970 . S
O236 Li178 1.961 . S
O236 C180 1.325 . S
O237 Li176 1.970 . S
O237 Li177 1.956 . S
O237 Li179 1.961 . S
O237 C186 1.325 . S
O238 Li176 1.961 . S
O238 Li178 1.956 . S
O238 Li179 1.970 . S
O238 C208 1.325 . S
O239 Li177 1.961 . S
O239 Li178 1.970 . S
O239 Li179 1.956 . S
O239 C214 1.325 . S
H240 C182 0.929 . S
H241 C183 0.930 . S
H242 C184 0.930 . S
H243 C185 0.930 . S
H244 C187 0.930 . S
H245 C189 0.929 . S
H246 C190 0.930 . S
H247 C191 0.930 . S
H248 C194 0.930 . S
H249 C197 0.929 . S
H250 C202 0.929 . S
H251 C203 0.930 . S
H252 C210 0.929 . S
H253 C211 0.930 . S
H254 C212 0.930 . S
H255 C213 0.930 . S
H256 C215 0.929 . S
H257 C216 0.930 . S
H258 C217 0.930 . S
H259 C218 0.930 . S
H260 C222 0.929 . S
H261 C224 0.930 . S
H262 C230 0.929 . S
H263 C231 0.930 . S
Li264 N281 1.990 . S
Li264 O324 1.956 . S
Li264 O325 1.970 . S
Li264 O326 1.961 . S
Li265 N289 1.990 . S
Li265 O324 1.970 . S
Li265 O325 1.956 . S
Li265 O327 1.961 . S
Li266 N311 1.990 . S
Li266 O324 1.961 . S
Li266 O326 1.956 . S
Li266 O327 1.970 . S
Li267 N317 1.990 . S
Li267 O325 1.961 . S
Li267 O326 1.970 . S
Li267 O327 1.956 . S
C268 C270 1.348 . S
C268 C271 1.356 . S
C268 O324 1.325 . S
N269 C272 1.314 . S
N269 C273 1.279 . S
C270 C268 1.348 . S
C270 C272 1.353 . S
C270 H328 0.929 . S
C271 C268 1.356 . S
C271 C273 1.358 . S
C271 H329 0.930 . S
C272 N269 1.314 . S
C272 C270 1.353 . S
C272 H330 0.930 . S
C273 N269 1.279 . S
C273 C271 1.358 . S
C273 H331 0.930 . S
C274 C277 1.348 . S
C274 C278 1.356 . S
C274 O325 1.325 . S
C275 N276 1.279 . S
C275 C278 1.358 . S
C275 H332 0.930 . S
N276 C275 1.279 . S
N276 C279 1.314 . S
C277 C274 1.348 . S
C277 C279 1.353 . S
C277 H333 0.929 . S
C278 C274 1.356 . S
C278 C275 1.358 . S
C278 H334 0.930 . S
C279 N276 1.314 . S
C279 C277 1.353 . S
C279 H335 0.930 . S
C280 N281 1.314 . S
C280 C285 1.353 . S
C280 H286 0.930 . S
N281 Li264 1.990 . S
N281 C280 1.314 . S
N281 C283 1.279 . S
C282 C283 1.358 . S
C282 C284 1.356 . S
C282 H336 0.930 . S
C283 N281 1.279 . S
C283 C282 1.358 . S
C283 H287 0.930 . S
C284 C282 1.356 . S
C284 C285 1.348 . S
C285 C280 1.353 . S
C285 C284 1.348 . S
C285 H337 0.929 . S
H286 C280 0.930 . S
H287 C283 0.930 . S
C288 N289 1.314 . S
C288 C290 1.353 . S
C288 H294 0.930 . S
N289 Li265 1.990 . S
N289 C288 1.314 . S
N289 C292 1.279 . S
C290 C288 1.353 . S
C290 C293 1.348 . S
C290 H338 0.929 . S
C291 C292 1.358 . S
C291 C293 1.356 . S
C291 H339 0.930 . S
C292 N289 1.279 . S
C292 C291 1.358 . S
C292 H295 0.930 . S
C293 C290 1.348 . S
C293 C291 1.356 . S
H294 C288 0.930 . S
H295 C292 0.930 . S
C296 C298 1.348 . S
C296 C299 1.356 . S
C296 O326 1.325 . S
N297 C300 1.314 . S
N297 C301 1.279 . S
C298 C296 1.348 . S
C298 C300 1.353 . S
C298 H340 0.929 . S
C299 C296 1.356 . S
C299 C301 1.358 . S
C299 H341 0.930 . S
C300 N297 1.314 . S
C300 C298 1.353 . S
C300 H342 0.930 . S
C301 N297 1.279 . S
C301 C299 1.358 . S
C301 H343 0.930 . S
C302 C303 1.348 . S
C302 C304 1.356 . S
C302 O327 1.325 . S
C303 C302 1.348 . S
C303 C305 1.353 . S
C303 H344 0.929 . S
C304 C302 1.356 . S
C304 C306 1.358 . S
C304 H345 0.930 . S
C305 C303 1.353 . S
C305 N307 1.314 . S
C305 H346 0.930 . S
C306 C304 1.358 . S
C306 N307 1.279 . S
C306 H347 0.930 . S
N307 C305 1.314 . S
N307 C306 1.279 . S
C308 C310 1.353 . S
C308 N311 1.314 . S
C308 H314 0.930 . S
C309 N311 1.279 . S
C309 C312 1.358 . S
C309 H315 0.930 . S
C310 C308 1.353 . S
C310 C313 1.348 . S
C310 H348 0.929 . S
N311 Li266 1.990 . S
N311 C308 1.314 . S
N311 C309 1.279 . S
C312 C309 1.358 . S
C312 C313 1.356 . S
C312 H349 0.930 . S
C313 C310 1.348 . S
C313 C312 1.356 . S
H314 C308 0.930 . S
H315 C309 0.930 . S
C316 N317 1.314 . S
C316 C318 1.353 . S
C316 H322 0.930 . S
N317 Li267 1.990 . S
N317 C316 1.314 . S
N317 C320 1.279 . S
C318 C316 1.353 . S
C318 C321 1.348 . S
C318 H350 0.929 . S
C319 C320 1.358 . S
C319 C321 1.356 . S
C319 H351 0.930 . S
C320 N317 1.279 . S
C320 C319 1.358 . S
C320 H323 0.930 . S
C321 C318 1.348 . S
C321 C319 1.356 . S
H322 C316 0.930 . S
H323 C320 0.930 . S
O324 Li264 1.956 . S
O324 Li265 1.970 . S
O324 Li266 1.961 . S
O324 C268 1.325 . S
O325 Li264 1.970 . S
O325 Li265 1.956 . S
O325 Li267 1.961 . S
O325 C274 1.325 . S
O326 Li264 1.961 . S
O326 Li266 1.956 . S
O326 Li267 1.970 . S
O326 C296 1.325 . S
O327 Li265 1.961 . S
O327 Li266 1.970 . S
O327 Li267 1.956 . S
O327 C302 1.325 . S
H328 C270 0.929 . S
H329 C271 0.930 . S
H330 C272 0.930 . S
H331 C273 0.930 . S
H332 C275 0.930 . S
H333 C277 0.929 . S
H334 C278 0.930 . S
H335 C279 0.930 . S
H336 C282 0.930 . S
H337 C285 0.929 . S
H338 C290 0.929 . S
H339 C291 0.930 . S
H340 C298 0.929 . S
H341 C299 0.930 . S
H342 C300 0.930 . S
H343 C301 0.930 . S
H344 C303 0.929 . S
H345 C304 0.930 . S
H346 C305 0.930 . S
H347 C306 0.930 . S
H348 C310 0.929 . S
H349 C312 0.930 . S
H350 C318 0.929 . S
H351 C319 0.930 . S
Li352 N369 1.990 . S
Li352 O412 1.956 . S
Li352 O413 1.970 . S
Li352 O414 1.961 . S
Li353 N377 1.990 . S
Li353 O412 1.970 . S
Li353 O413 1.956 . S
Li353 O415 1.961 . S
Li354 N399 1.990 . S
Li354 O412 1.961 . S
Li354 O414 1.956 . S
Li354 O415 1.970 . S
Li355 N405 1.990 . S
Li355 O413 1.961 . S
Li355 O414 1.970 . S
Li355 O415 1.956 . S
C356 C358 1.348 . S
C356 C359 1.356 . S
C356 O412 1.325 . S
N357 C360 1.314 . S
N357 C361 1.279 . S
C358 C356 1.348 . S
C358 C360 1.353 . S
C358 H416 0.929 . S
C359 C356 1.356 . S
C359 C361 1.358 . S
C359 H417 0.930 . S
C360 N357 1.314 . S
C360 C358 1.353 . S
C360 H418 0.930 . S
C361 N357 1.279 . S
C361 C359 1.358 . S
C361 H419 0.930 . S
C362 C365 1.348 . S
C362 C366 1.356 . S
C362 O413 1.325 . S
C363 N364 1.279 . S
C363 C366 1.358 . S
C363 H420 0.930 . S
N364 C363 1.279 . S
N364 C367 1.314 . S
C365 C362 1.348 . S
C365 C367 1.353 . S
C365 H421 0.929 . S
C366 C362 1.356 . S
C366 C363 1.358 . S
C366 H422 0.930 . S
C367 N364 1.314 . S
C367 C365 1.353 . S
C367 H423 0.930 . S
C368 N369 1.314 . S
C368 C373 1.353 . S
C368 H374 0.930 . S
N369 Li352 1.990 . S
N369 C368 1.314 . S
N369 C371 1.279 . S
C370 C371 1.358 . S
C370 C372 1.356 . S
C370 H424 0.930 . S
C371 N369 1.279 . S
C371 C370 1.358 . S
C371 H375 0.930 . S
C372 C370 1.356 . S
C372 C373 1.348 . S
C373 C368 1.353 . S
C373 C372 1.348 . S
C373 H425 0.929 . S
H374 C368 0.930 . S
H375 C371 0.930 . S
C376 N377 1.314 . S
C376 C378 1.353 . S
C376 H382 0.930 . S
N377 Li353 1.990 . S
N377 C376 1.314 . S
N377 C380 1.279 . S
C378 C376 1.353 . S
C378 C381 1.348 . S
C378 H426 0.929 . S
C379 C380 1.358 . S
C379 C381 1.356 . S
C379 H427 0.930 . S
C380 N377 1.279 . S
C380 C379 1.358 . S
C380 H383 0.930 . S
C381 C378 1.348 . S
C381 C379 1.356 . S
H382 C376 0.930 . S
H383 C380 0.930 . S
C384 C386 1.348 . S
C384 C387 1.356 . S
C384 O414 1.325 . S
N385 C388 1.314 . S
N385 C389 1.279 . S
C386 C384 1.348 . S
C386 C388 1.353 . S
C386 H428 0.929 . S
C387 C384 1.356 . S
C387 C389 1.358 . S
C387 H429 0.930 . S
C388 N385 1.314 . S
C388 C386 1.353 . S
C388 H430 0.930 . S
C389 N385 1.279 . S
C389 C387 1.358 . S
C389 H431 0.930 . S
C390 C391 1.348 . S
C390 C392 1.356 . S
C390 O415 1.325 . S
C391 C390 1.348 . S
C391 C393 1.353 . S
C391 H432 0.929 . S
C392 C390 1.356 . S
C392 C394 1.358 . S
C392 H433 0.930 . S
C393 C391 1.353 . S
C393 N395 1.314 . S
C393 H434 0.930 . S
C394 C392 1.358 . S
C394 N395 1.279 . S
C394 H435 0.930 . S
N395 C393 1.314 . S
N395 C394 1.279 . S
C396 C398 1.353 . S
C396 N399 1.314 . S
C396 H402 0.930 . S
C397 N399 1.279 . S
C397 C400 1.358 . S
C397 H403 0.930 . S
C398 C396 1.353 . S
C398 C401 1.348 . S
C398 H436 0.929 . S
N399 Li354 1.990 . S
N399 C396 1.314 . S
N399 C397 1.279 . S
C400 C397 1.358 . S
C400 C401 1.356 . S
C400 H437 0.930 . S
C401 C398 1.348 . S
C401 C400 1.356 . S
H402 C396 0.930 . S
H403 C397 0.930 . S
C404 N405 1.314 . S
C404 C406 1.353 . S
C404 H410 0.930 . S
N405 Li355 1.990 . S
N405 C404 1.314 . S
N405 C408 1.279 . S
C406 C404 1.353 . S
C406 C409 1.348 . S
C406 H438 0.929 . S
C407 C408 1.358 . S
C407 C409 1.356 . S
C407 H439 0.930 . S
C408 N405 1.279 . S
C408 C407 1.358 . S
C408 H411 0.930 . S
C409 C406 1.348 . S
C409 C407 1.356 . S
H410 C404 0.930 . S
H411 C408 0.930 . S
O412 Li352 1.956 . S
O412 Li353 1.970 . S
O412 Li354 1.961 . S
O412 C356 1.325 . S
O413 Li352 1.970 . S
O413 Li353 1.956 . S
O413 Li355 1.961 . S
O413 C362 1.325 . S
O414 Li352 1.961 . S
O414 Li354 1.956 . S
O414 Li355 1.970 . S
O414 C384 1.325 . S
O415 Li353 1.961 . S
O415 Li354 1.970 . S
O415 Li355 1.956 . S
O415 C390 1.325 . S
H416 C358 0.929 . S
H417 C359 0.930 . S
H418 C360 0.930 . S
H419 C361 0.930 . S
H420 C363 0.930 . S
H421 C365 0.929 . S
H422 C366 0.930 . S
H423 C367 0.930 . S
H424 C370 0.930 . S
H425 C373 0.929 . S
H426 C378 0.929 . S
H427 C379 0.930 . S
H428 C386 0.929 . S
H429 C387 0.930 . S
H430 C388 0.930 . S
H431 C389 0.930 . S
H432 C391 0.929 . S
H433 C392 0.930 . S
H434 C393 0.930 . S
H435 C394 0.930 . S
H436 C398 0.929 . S
H437 C400 0.930 . S
H438 C406 0.929 . S
H439 C407 0.930 . S
Li440 N457 1.990 . S
Li440 O500 1.956 . S
Li440 O501 1.970 . S
Li440 O502 1.961 . S
Li441 N465 1.990 . S
Li441 O500 1.970 . S
Li441 O501 1.956 . S
Li441 O503 1.961 . S
Li442 N487 1.990 . S
Li442 O500 1.961 . S
Li442 O502 1.956 . S
Li442 O503 1.970 . S
Li443 N493 1.990 . S
Li443 O501 1.961 . S
Li443 O502 1.970 . S
Li443 O503 1.956 . S
C444 C446 1.348 . S
C444 C447 1.356 . S
C444 O500 1.325 . S
N445 C448 1.314 . S
N445 C449 1.279 . S
C446 C444 1.348 . S
C446 C448 1.353 . S
C446 H504 0.929 . S
C447 C444 1.356 . S
C447 C449 1.358 . S
C447 H505 0.930 . S
C448 N445 1.314 . S
C448 C446 1.353 . S
C448 H506 0.930 . S
C449 N445 1.279 . S
C449 C447 1.358 . S
C449 H507 0.930 . S
C450 C453 1.348 . S
C450 C454 1.356 . S
C450 O501 1.325 . S
C451 N452 1.279 . S
C451 C454 1.358 . S
C451 H508 0.930 . S
N452 C451 1.279 . S
N452 C455 1.314 . S
C453 C450 1.348 . S
C453 C455 1.353 . S
C453 H509 0.929 . S
C454 C450 1.356 . S
C454 C451 1.358 . S
C454 H510 0.930 . S
C455 N452 1.314 . S
C455 C453 1.353 . S
C455 H511 0.930 . S
C456 N457 1.314 . S
C456 C461 1.353 . S
C456 H462 0.930 . S
N457 Li440 1.990 . S
N457 C456 1.314 . S
N457 C459 1.279 . S
C458 C459 1.358 . S
C458 C460 1.356 . S
C458 H512 0.930 . S
C459 N457 1.279 . S
C459 C458 1.358 . S
C459 H463 0.930 . S
C460 C458 1.356 . S
C460 C461 1.348 . S
C461 C456 1.353 . S
C461 C460 1.348 . S
C461 H513 0.929 . S
H462 C456 0.930 . S
H463 C459 0.930 . S
C464 N465 1.314 . S
C464 C466 1.353 . S
C464 H470 0.930 . S
N465 Li441 1.990 . S
N465 C464 1.314 . S
N465 C468 1.279 . S
C466 C464 1.353 . S
C466 C469 1.348 . S
C466 H514 0.929 . S
C467 C468 1.358 . S
C467 C469 1.356 . S
C467 H515 0.930 . S
C468 N465 1.279 . S
C468 C467 1.358 . S
C468 H471 0.930 . S
C469 C466 1.348 . S
C469 C467 1.356 . S
H470 C464 0.930 . S
H471 C468 0.930 . S
C472 C474 1.348 . S
C472 C475 1.356 . S
C472 O502 1.325 . S
N473 C476 1.314 . S
N473 C477 1.279 . S
C474 C472 1.348 . S
C474 C476 1.353 . S
C474 H516 0.929 . S
C475 C472 1.356 . S
C475 C477 1.358 . S
C475 H517 0.930 . S
C476 N473 1.314 . S
C476 C474 1.353 . S
C476 H518 0.930 . S
C477 N473 1.279 . S
C477 C475 1.358 . S
C477 H519 0.930 . S
C478 C479 1.348 . S
C478 C480 1.356 . S
C478 O503 1.325 . S
C479 C478 1.348 . S
C479 C481 1.353 . S
C479 H520 0.929 . S
C480 C478 1.356 . S
C480 C482 1.358 . S
C480 H521 0.930 . S
C481 C479 1.353 . S
C481 N483 1.314 . S
C481 H522 0.930 . S
C482 C480 1.358 . S
C482 N483 1.279 . S
C482 H523 0.930 . S
N483 C481 1.314 . S
N483 C482 1.279 . S
C484 C486 1.353 . S
C484 N487 1.314 . S
C484 H490 0.930 . S
C485 N487 1.279 . S
C485 C488 1.358 . S
C485 H491 0.930 . S
C486 C484 1.353 . S
C486 C489 1.348 . S
C486 H524 0.929 . S
N487 Li442 1.990 . S
N487 C484 1.314 . S
N487 C485 1.279 . S
C488 C485 1.358 . S
C488 C489 1.356 . S
C488 H525 0.930 . S
C489 C486 1.348 . S
C489 C488 1.356 . S
H490 C484 0.930 . S
H491 C485 0.930 . S
C492 N493 1.314 . S
C492 C494 1.353 . S
C492 H498 0.930 . S
N493 Li443 1.990 . S
N493 C492 1.314 . S
N493 C496 1.279 . S
C494 C492 1.353 . S
C494 C497 1.348 . S
C494 H526 0.929 . S
C495 C496 1.358 . S
C495 C497 1.356 . S
C495 H527 0.930 . S
C496 N493 1.279 . S
C496 C495 1.358 . S
C496 H499 0.930 . S
C497 C494 1.348 . S
C497 C495 1.356 . S
H498 C492 0.930 . S
H499 C496 0.930 . S
O500 Li440 1.956 . S
O500 Li441 1.970 . S
O500 Li442 1.961 . S
O500 C444 1.325 . S
O501 Li440 1.970 . S
O501 Li441 1.956 . S
O501 Li443 1.961 . S
O501 C450 1.325 . S
O502 Li440 1.961 . S
O502 Li442 1.956 . S
O502 Li443 1.970 . S
O502 C472 1.325 . S
O503 Li441 1.961 . S
O503 Li442 1.970 . S
O503 Li443 1.956 . S
O503 C478 1.325 . S
H504 C446 0.929 . S
H505 C447 0.930 . S
H506 C448 0.930 . S
H507 C449 0.930 . S
H508 C451 0.930 . S
H509 C453 0.929 . S
H510 C454 0.930 . S
H511 C455 0.930 . S
H512 C458 0.930 . S
H513 C461 0.929 . S
H514 C466 0.929 . S
H515 C467 0.930 . S
H516 C474 0.929 . S
H517 C475 0.930 . S
H518 C476 0.930 . S
H519 C477 0.930 . S
H520 C479 0.929 . S
H521 C480 0.930 . S
H522 C481 0.930 . S
H523 C482 0.930 . S
H524 C486 0.929 . S
H525 C488 0.930 . S
H526 C494 0.929 . S
H527 C495 0.930 . S
Li528 N545 1.990 . S
Li528 O588 1.956 . S
Li528 O589 1.970 . S
Li528 O590 1.961 . S
Li529 N553 1.990 . S
Li529 O588 1.970 . S
Li529 O589 1.956 . S
Li529 O591 1.961 . S
Li530 N575 1.990 . S
Li530 O588 1.961 . S
Li530 O590 1.956 . S
Li530 O591 1.970 . S
Li531 N581 1.990 . S
Li531 O589 1.961 . S
Li531 O590 1.970 . S
Li531 O591 1.956 . S
C532 C534 1.348 . S
C532 C535 1.356 . S
C532 O588 1.325 . S
N533 C536 1.314 . S
N533 C537 1.279 . S
C534 C532 1.348 . S
C534 C536 1.353 . S
C534 H592 0.929 . S
C535 C532 1.356 . S
C535 C537 1.358 . S
C535 H593 0.930 . S
C536 N533 1.314 . S
C536 C534 1.353 . S
C536 H594 0.930 . S
C537 N533 1.279 . S
C537 C535 1.358 . S
C537 H595 0.930 . S
C538 C541 1.348 . S
C538 C542 1.356 . S
C538 O589 1.325 . S
C539 N540 1.279 . S
C539 C542 1.358 . S
C539 H596 0.930 . S
N540 C539 1.279 . S
N540 C543 1.314 . S
C541 C538 1.348 . S
C541 C543 1.353 . S
C541 H597 0.929 . S
C542 C538 1.356 . S
C542 C539 1.358 . S
C542 H598 0.930 . S
C543 N540 1.314 . S
C543 C541 1.353 . S
C543 H599 0.930 . S
C544 N545 1.314 . S
C544 C549 1.353 . S
C544 H550 0.930 . S
N545 Li528 1.990 . S
N545 C544 1.314 . S
N545 C547 1.279 . S
C546 C547 1.358 . S
C546 C548 1.356 . S
C546 H600 0.930 . S
C547 N545 1.279 . S
C547 C546 1.358 . S
C547 H551 0.930 . S
C548 C546 1.356 . S
C548 C549 1.348 . S
C549 C544 1.353 . S
C549 C548 1.348 . S
C549 H601 0.929 . S
H550 C544 0.930 . S
H551 C547 0.930 . S
C552 N553 1.314 . S
C552 C554 1.353 . S
C552 H558 0.930 . S
N553 Li529 1.990 . S
N553 C552 1.314 . S
N553 C556 1.279 . S
C554 C552 1.353 . S
C554 C557 1.348 . S
C554 H602 0.929 . S
C555 C556 1.358 . S
C555 C557 1.356 . S
C555 H603 0.930 . S
C556 N553 1.279 . S
C556 C555 1.358 . S
C556 H559 0.930 . S
C557 C554 1.348 . S
C557 C555 1.356 . S
H558 C552 0.930 . S
H559 C556 0.930 . S
C560 C562 1.348 . S
C560 C563 1.356 . S
C560 O590 1.325 . S
N561 C564 1.314 . S
N561 C565 1.279 . S
C562 C560 1.348 . S
C562 C564 1.353 . S
C562 H604 0.929 . S
C563 C560 1.356 . S
C563 C565 1.358 . S
C563 H605 0.930 . S
C564 N561 1.314 . S
C564 C562 1.353 . S
C564 H606 0.930 . S
C565 N561 1.279 . S
C565 C563 1.358 . S
C565 H607 0.930 . S
C566 C567 1.348 . S
C566 C568 1.356 . S
C566 O591 1.325 . S
C567 C566 1.348 . S
C567 C569 1.353 . S
C567 H608 0.929 . S
C568 C566 1.356 . S
C568 C570 1.358 . S
C568 H609 0.930 . S
C569 C567 1.353 . S
C569 N571 1.314 . S
C569 H610 0.930 . S
C570 C568 1.358 . S
C570 N571 1.279 . S
C570 H611 0.930 . S
N571 C569 1.314 . S
N571 C570 1.279 . S
C572 C574 1.353 . S
C572 N575 1.314 . S
C572 H578 0.930 . S
C573 N575 1.279 . S
C573 C576 1.358 . S
C573 H579 0.930 . S
C574 C572 1.353 . S
C574 C577 1.348 . S
C574 H612 0.929 . S
N575 Li530 1.990 . S
N575 C572 1.314 . S
N575 C573 1.279 . S
C576 C573 1.358 . S
C576 C577 1.356 . S
C576 H613 0.930 . S
C577 C574 1.348 . S
C577 C576 1.356 . S
H578 C572 0.930 . S
H579 C573 0.930 . S
C580 N581 1.314 . S
C580 C582 1.353 . S
C580 H586 0.930 . S
N581 Li531 1.990 . S
N581 C580 1.314 . S
N581 C584 1.279 . S
C582 C580 1.353 . S
C582 C585 1.348 . S
C582 H614 0.929 . S
C583 C584 1.358 . S
C583 C585 1.356 . S
C583 H615 0.930 . S
C584 N581 1.279 . S
C584 C583 1.358 . S
C584 H587 0.930 . S
C585 C582 1.348 . S
C585 C583 1.356 . S
H586 C580 0.930 . S
H587 C584 0.930 . S
O588 Li528 1.956 . S
O588 Li529 1.970 . S
O588 Li530 1.961 . S
O588 C532 1.325 . S
O589 Li528 1.970 . S
O589 Li529 1.956 . S
O589 Li531 1.961 . S
O589 C538 1.325 . S
O590 Li528 1.961 . S
O590 Li530 1.956 . S
O590 Li531 1.970 . S
O590 C560 1.325 . S
O591 Li529 1.961 . S
O591 Li530 1.970 . S
O591 Li531 1.956 . S
O591 C566 1.325 . S
H592 C534 0.929 . S
H593 C535 0.930 . S
H594 C536 0.930 . S
H595 C537 0.930 . S
H596 C539 0.930 . S
H597 C541 0.929 . S
H598 C542 0.930 . S
H599 C543 0.930 . S
H600 C546 0.930 . S
H601 C549 0.929 . S
H602 C554 0.929 . S
H603 C555 0.930 . S
H604 C562 0.929 . S
H605 C563 0.930 . S
H606 C564 0.930 . S
H607 C565 0.930 . S
H608 C567 0.929 . S
H609 C568 0.930 . S
H610 C569 0.930 . S
H611 C570 0.930 . S
H612 C574 0.929 . S
H613 C576 0.930 . S
H614 C582 0.929 . S
H615 C583 0.930 . S
Li616 N633 1.990 . S
Li616 O676 1.956 . S
Li616 O677 1.970 . S
Li616 O678 1.961 . S
Li617 N641 1.990 . S
Li617 O676 1.970 . S
Li617 O677 1.956 . S
Li617 O679 1.961 . S
Li618 N663 1.990 . S
Li618 O676 1.961 . S
Li618 O678 1.956 . S
Li618 O679 1.970 . S
Li619 N669 1.990 . S
Li619 O677 1.961 . S
Li619 O678 1.970 . S
Li619 O679 1.956 . S
C620 C622 1.348 . S
C620 C623 1.356 . S
C620 O676 1.325 . S
N621 C624 1.314 . S
N621 C625 1.279 . S
C622 C620 1.348 . S
C622 C624 1.353 . S
C622 H680 0.929 . S
C623 C620 1.356 . S
C623 C625 1.358 . S
C623 H681 0.930 . S
C624 N621 1.314 . S
C624 C622 1.353 . S
C624 H682 0.930 . S
C625 N621 1.279 . S
C625 C623 1.358 . S
C625 H683 0.930 . S
C626 C629 1.348 . S
C626 C630 1.356 . S
C626 O677 1.325 . S
C627 N628 1.279 . S
C627 C630 1.358 . S
C627 H684 0.930 . S
N628 C627 1.279 . S
N628 C631 1.314 . S
C629 C626 1.348 . S
C629 C631 1.353 . S
C629 H685 0.929 . S
C630 C626 1.356 . S
C630 C627 1.358 . S
C630 H686 0.930 . S
C631 N628 1.314 . S
C631 C629 1.353 . S
C631 H687 0.930 . S
C632 N633 1.314 . S
C632 C637 1.353 . S
C632 H638 0.930 . S
N633 Li616 1.990 . S
N633 C632 1.314 . S
N633 C635 1.279 . S
C634 C635 1.358 . S
C634 C636 1.356 . S
C634 H688 0.930 . S
C635 N633 1.279 . S
C635 C634 1.358 . S
C635 H639 0.930 . S
C636 C634 1.356 . S
C636 C637 1.348 . S
C637 C632 1.353 . S
C637 C636 1.348 . S
C637 H689 0.929 . S
H638 C632 0.930 . S
H639 C635 0.930 . S
C640 N641 1.314 . S
C640 C642 1.353 . S
C640 H646 0.930 . S
N641 Li617 1.990 . S
N641 C640 1.314 . S
N641 C644 1.279 . S
C642 C640 1.353 . S
C642 C645 1.348 . S
C642 H690 0.929 . S
C643 C644 1.358 . S
C643 C645 1.356 . S
C643 H691 0.930 . S
C644 N641 1.279 . S
C644 C643 1.358 . S
C644 H647 0.930 . S
C645 C642 1.348 . S
C645 C643 1.356 . S
H646 C640 0.930 . S
H647 C644 0.930 . S
C648 C650 1.348 . S
C648 C651 1.356 . S
C648 O678 1.325 . S
N649 C652 1.314 . S
N649 C653 1.279 . S
C650 C648 1.348 . S
C650 C652 1.353 . S
C650 H692 0.929 . S
C651 C648 1.356 . S
C651 C653 1.358 . S
C651 H693 0.930 . S
C652 N649 1.314 . S
C652 C650 1.353 . S
C652 H694 0.930 . S
C653 N649 1.279 . S
C653 C651 1.358 . S
C653 H695 0.930 . S
C654 C655 1.348 . S
C654 C656 1.356 . S
C654 O679 1.325 . S
C655 C654 1.348 . S
C655 C657 1.353 . S
C655 H696 0.929 . S
C656 C654 1.356 . S
C656 C658 1.358 . S
C656 H697 0.930 . S
C657 C655 1.353 . S
C657 N659 1.314 . S
C657 H698 0.930 . S
C658 C656 1.358 . S
C658 N659 1.279 . S
C658 H699 0.930 . S
N659 C657 1.314 . S
N659 C658 1.279 . S
C660 C662 1.353 . S
C660 N663 1.314 . S
C660 H666 0.930 . S
C661 N663 1.279 . S
C661 C664 1.358 . S
C661 H667 0.930 . S
C662 C660 1.353 . S
C662 C665 1.348 . S
C662 H700 0.929 . S
N663 Li618 1.990 . S
N663 C660 1.314 . S
N663 C661 1.279 . S
C664 C661 1.358 . S
C664 C665 1.356 . S
C664 H701 0.930 . S
C665 C662 1.348 . S
C665 C664 1.356 . S
H666 C660 0.930 . S
H667 C661 0.930 . S
C668 N669 1.314 . S
C668 C670 1.353 . S
C668 H674 0.930 . S
N669 Li619 1.990 . S
N669 C668 1.314 . S
N669 C672 1.279 . S
C670 C668 1.353 . S
C670 C673 1.348 . S
C670 H702 0.929 . S
C671 C672 1.358 . S
C671 C673 1.356 . S
C671 H703 0.930 . S
C672 N669 1.279 . S
C672 C671 1.358 . S
C672 H675 0.930 . S
C673 C670 1.348 . S
C673 C671 1.356 . S
H674 C668 0.930 . S
H675 C672 0.930 . S
O676 Li616 1.956 . S
O676 Li617 1.970 . S
O676 Li618 1.961 . S
O676 C620 1.325 . S
O677 Li616 1.970 . S
O677 Li617 1.956 . S
O677 Li619 1.961 . S
O677 C626 1.325 . S
O678 Li616 1.961 . S
O678 Li618 1.956 . S
O678 Li619 1.970 . S
O678 C648 1.325 . S
O679 Li617 1.961 . S
O679 Li618 1.970 . S
O679 Li619 1.956 . S
O679 C654 1.325 . S
H680 C622 0.929 . S
H681 C623 0.930 . S
H682 C624 0.930 . S
H683 C625 0.930 . S
H684 C627 0.930 . S
H685 C629 0.929 . S
H686 C630 0.930 . S
H687 C631 0.930 . S
H688 C634 0.930 . S
H689 C637 0.929 . S
H690 C642 0.929 . S
H691 C643 0.930 . S
H692 C650 0.929 . S
H693 C651 0.930 . S
H694 C652 0.930 . S
H695 C653 0.930 . S
H696 C655 0.929 . S
H697 C656 0.930 . S
H698 C657 0.930 . S
H699 C658 0.930 . S
H700 C662 0.929 . S
H701 C664 0.930 . S
H702 C670 0.929 . S
H703 C671 0.930 . S
Li704 N721 1.990 . S
Li704 O764 1.956 . S
Li704 O765 1.970 . S
Li704 O766 1.961 . S
Li705 N729 1.990 . S
Li705 O764 1.970 . S
Li705 O765 1.956 . S
Li705 O767 1.961 . S
Li706 N751 1.990 . S
Li706 O764 1.961 . S
Li706 O766 1.956 . S
Li706 O767 1.970 . S
Li707 N757 1.990 . S
Li707 O765 1.961 . S
Li707 O766 1.970 . S
Li707 O767 1.956 . S
C708 C710 1.348 . S
C708 C711 1.356 . S
C708 O764 1.325 . S
N709 C712 1.314 . S
N709 C713 1.279 . S
C710 C708 1.348 . S
C710 C712 1.353 . S
C710 H768 0.929 . S
C711 C708 1.356 . S
C711 C713 1.358 . S
C711 H769 0.930 . S
C712 N709 1.314 . S
C712 C710 1.353 . S
C712 H770 0.930 . S
C713 N709 1.279 . S
C713 C711 1.358 . S
C713 H771 0.930 . S
C714 C717 1.348 . S
C714 C718 1.356 . S
C714 O765 1.325 . S
C715 N716 1.279 . S
C715 C718 1.358 . S
C715 H772 0.930 . S
N716 C715 1.279 . S
N716 C719 1.314 . S
C717 C714 1.348 . S
C717 C719 1.353 . S
C717 H773 0.929 . S
C718 C714 1.356 . S
C718 C715 1.358 . S
C718 H774 0.930 . S
C719 N716 1.314 . S
C719 C717 1.353 . S
C719 H775 0.930 . S
C720 N721 1.314 . S
C720 C725 1.353 . S
C720 H726 0.930 . S
N721 Li704 1.990 . S
N721 C720 1.314 . S
N721 C723 1.279 . S
C722 C723 1.358 . S
C722 C724 1.356 . S
C722 H776 0.930 . S
C723 N721 1.279 . S
C723 C722 1.358 . S
C723 H727 0.930 . S
C724 C722 1.356 . S
C724 C725 1.348 . S
C725 C720 1.353 . S
C725 C724 1.348 . S
C725 H777 0.929 . S
H726 C720 0.930 . S
H727 C723 0.930 . S
C728 N729 1.314 . S
C728 C730 1.353 . S
C728 H734 0.930 . S
N729 Li705 1.990 . S
N729 C728 1.314 . S
N729 C732 1.279 . S
C730 C728 1.353 . S
C730 C733 1.348 . S
C730 H778 0.929 . S
C731 C732 1.358 . S
C731 C733 1.356 . S
C731 H779 0.930 . S
C732 N729 1.279 . S
C732 C731 1.358 . S
C732 H735 0.930 . S
C733 C730 1.348 . S
C733 C731 1.356 . S
H734 C728 0.930 . S
H735 C732 0.930 . S
C736 C738 1.348 . S
C736 C739 1.356 . S
C736 O766 1.325 . S
N737 C740 1.314 . S
N737 C741 1.279 . S
C738 C736 1.348 . S
C738 C740 1.353 . S
C738 H780 0.929 . S
C739 C736 1.356 . S
C739 C741 1.358 . S
C739 H781 0.930 . S
C740 N737 1.314 . S
C740 C738 1.353 . S
C740 H782 0.930 . S
C741 N737 1.279 . S
C741 C739 1.358 . S
C741 H783 0.930 . S
C742 C743 1.348 . S
C742 C744 1.356 . S
C742 O767 1.325 . S
C743 C742 1.348 . S
C743 C745 1.353 . S
C743 H784 0.929 . S
C744 C742 1.356 . S
C744 C746 1.358 . S
C744 H785 0.930 . S
C745 C743 1.353 . S
C745 N747 1.314 . S
C745 H786 0.930 . S
C746 C744 1.358 . S
C746 N747 1.279 . S
C746 H787 0.930 . S
N747 C745 1.314 . S
N747 C746 1.279 . S
C748 C750 1.353 . S
C748 N751 1.314 . S
C748 H754 0.930 . S
C749 N751 1.279 . S
C749 C752 1.358 . S
C749 H755 0.930 . S
C750 C748 1.353 . S
C750 C753 1.348 . S
C750 H788 0.929 . S
N751 Li706 1.990 . S
N751 C748 1.314 . S
N751 C749 1.279 . S
C752 C749 1.358 . S
C752 C753 1.356 . S
C752 H789 0.930 . S
C753 C750 1.348 . S
C753 C752 1.356 . S
H754 C748 0.930 . S
H755 C749 0.930 . S
C756 N757 1.314 . S
C756 C758 1.353 . S
C756 H762 0.930 . S
N757 Li707 1.990 . S
N757 C756 1.314 . S
N757 C760 1.279 . S
C758 C756 1.353 . S
C758 C761 1.348 . S
C758 H790 0.929 . S
C759 C760 1.358 . S
C759 C761 1.356 . S
C759 H791 0.930 . S
C760 N757 1.279 . S
C760 C759 1.358 . S
C760 H763 0.930 . S
C761 C758 1.348 . S
C761 C759 1.356 . S
H762 C756 0.930 . S
H763 C760 0.930 . S
O764 Li704 1.956 . S
O764 Li705 1.970 . S
O764 Li706 1.961 . S
O764 C708 1.325 . S
O765 Li704 1.970 . S
O765 Li705 1.956 . S
O765 Li707 1.961 . S
O765 C714 1.325 . S
O766 Li704 1.961 . S
O766 Li706 1.956 . S
O766 Li707 1.970 . S
O766 C736 1.325 . S
O767 Li705 1.961 . S
O767 Li706 1.970 . S
O767 Li707 1.956 . S
O767 C742 1.325 . S
H768 C710 0.929 . S
H769 C711 0.930 . S
H770 C712 0.930 . S
H771 C713 0.930 . S
H772 C715 0.930 . S
H773 C717 0.929 . S
H774 C718 0.930 . S
H775 C719 0.930 . S
H776 C722 0.930 . S
H777 C725 0.929 . S
H778 C730 0.929 . S
H779 C731 0.930 . S
H780 C738 0.929 . S
H781 C739 0.930 . S
H782 C740 0.930 . S
H783 C741 0.930 . S
H784 C743 0.929 . S
H785 C744 0.930 . S
H786 C745 0.930 . S
H787 C746 0.930 . S
H788 C750 0.929 . S
H789 C752 0.930 . S
H790 C758 0.929 . S
H791 C759 0.930 . S
Li792 N809 1.990 . S
Li792 O852 1.956 . S
Li792 O853 1.970 . S
Li792 O854 1.961 . S
Li793 N817 1.990 . S
Li793 O852 1.970 . S
Li793 O853 1.956 . S
Li793 O855 1.961 . S
Li794 N839 1.990 . S
Li794 O852 1.961 . S
Li794 O854 1.956 . S
Li794 O855 1.970 . S
Li795 N845 1.990 . S
Li795 O853 1.961 . S
Li795 O854 1.970 . S
Li795 O855 1.956 . S
C796 C798 1.348 . S
C796 C799 1.356 . S
C796 O852 1.325 . S
N797 C800 1.314 . S
N797 C801 1.279 . S
C798 C796 1.348 . S
C798 C800 1.353 . S
C798 H856 0.929 . S
C799 C796 1.356 . S
C799 C801 1.358 . S
C799 H857 0.930 . S
C800 N797 1.314 . S
C800 C798 1.353 . S
C800 H858 0.930 . S
C801 N797 1.279 . S
C801 C799 1.358 . S
C801 H859 0.930 . S
C802 C805 1.348 . S
C802 C806 1.356 . S
C802 O853 1.325 . S
C803 N804 1.279 . S
C803 C806 1.358 . S
C803 H860 0.930 . S
N804 C803 1.279 . S
N804 C807 1.314 . S
C805 C802 1.348 . S
C805 C807 1.353 . S
C805 H861 0.929 . S
C806 C802 1.356 . S
C806 C803 1.358 . S
C806 H862 0.930 . S
C807 N804 1.314 . S
C807 C805 1.353 . S
C807 H863 0.930 . S
C808 N809 1.314 . S
C808 C813 1.353 . S
C808 H814 0.930 . S
N809 Li792 1.990 . S
N809 C808 1.314 . S
N809 C811 1.279 . S
C810 C811 1.358 . S
C810 C812 1.356 . S
C810 H864 0.930 . S
C811 N809 1.279 . S
C811 C810 1.358 . S
C811 H815 0.930 . S
C812 C810 1.356 . S
C812 C813 1.348 . S
C813 C808 1.353 . S
C813 C812 1.348 . S
C813 H865 0.929 . S
H814 C808 0.930 . S
H815 C811 0.930 . S
C816 N817 1.314 . S
C816 C818 1.353 . S
C816 H822 0.930 . S
N817 Li793 1.990 . S
N817 C816 1.314 . S
N817 C820 1.279 . S
C818 C816 1.353 . S
C818 C821 1.348 . S
C818 H866 0.929 . S
C819 C820 1.358 . S
C819 C821 1.356 . S
C819 H867 0.930 . S
C820 N817 1.279 . S
C820 C819 1.358 . S
C820 H823 0.930 . S
C821 C818 1.348 . S
C821 C819 1.356 . S
H822 C816 0.930 . S
H823 C820 0.930 . S
C824 C826 1.348 . S
C824 C827 1.356 . S
C824 O854 1.325 . S
N825 C828 1.314 . S
N825 C829 1.279 . S
C826 C824 1.348 . S
C826 C828 1.353 . S
C826 H868 0.929 . S
C827 C824 1.356 . S
C827 C829 1.358 . S
C827 H869 0.930 . S
C828 N825 1.314 . S
C828 C826 1.353 . S
C828 H870 0.930 . S
C829 N825 1.279 . S
C829 C827 1.358 . S
C829 H871 0.930 . S
C830 C831 1.348 . S
C830 C832 1.356 . S
C830 O855 1.325 . S
C831 C830 1.348 . S
C831 C833 1.353 . S
C831 H872 0.929 . S
C832 C830 1.356 . S
C832 C834 1.358 . S
C832 H873 0.930 . S
C833 C831 1.353 . S
C833 N835 1.314 . S
C833 H874 0.930 . S
C834 C832 1.358 . S
C834 N835 1.279 . S
C834 H875 0.930 . S
N835 C833 1.314 . S
N835 C834 1.279 . S
C836 C838 1.353 . S
C836 N839 1.314 . S
C836 H842 0.930 . S
C837 N839 1.279 . S
C837 C840 1.358 . S
C837 H843 0.930 . S
C838 C836 1.353 . S
C838 C841 1.348 . S
C838 H876 0.929 . S
N839 Li794 1.990 . S
N839 C836 1.314 . S
N839 C837 1.279 . S
C840 C837 1.358 . S
C840 C841 1.356 . S
C840 H877 0.930 . S
C841 C838 1.348 . S
C841 C840 1.356 . S
H842 C836 0.930 . S
H843 C837 0.930 . S
C844 N845 1.314 . S
C844 C846 1.353 . S
C844 H850 0.930 . S
N845 Li795 1.990 . S
N845 C844 1.314 . S
N845 C848 1.279 . S
C846 C844 1.353 . S
C846 C849 1.348 . S
C846 H878 0.929 . S
C847 C848 1.358 . S
C847 C849 1.356 . S
C847 H879 0.930 . S
C848 N845 1.279 . S
C848 C847 1.358 . S
C848 H851 0.930 . S
C849 C846 1.348 . S
C849 C847 1.356 . S
H850 C844 0.930 . S
H851 C848 0.930 . S
O852 Li792 1.956 . S
O852 Li793 1.970 . S
O852 Li794 1.961 . S
O852 C796 1.325 . S
O853 Li792 1.970 . S
O853 Li793 1.956 . S
O853 Li795 1.961 . S
O853 C802 1.325 . S
O854 Li792 1.961 . S
O854 Li794 1.956 . S
O854 Li795 1.970 . S
O854 C824 1.325 . S
O855 Li793 1.961 . S
O855 Li794 1.970 . S
O855 Li795 1.956 . S
O855 C830 1.325 . S
H856 C798 0.929 . S
H857 C799 0.930 . S
H858 C800 0.930 . S
H859 C801 0.930 . S
H860 C803 0.930 . S
H861 C805 0.929 . S
H862 C806 0.930 . S
H863 C807 0.930 . S
H864 C810 0.930 . S
H865 C813 0.929 . S
H866 C818 0.929 . S
H867 C819 0.930 . S
H868 C826 0.929 . S
H869 C827 0.930 . S
H870 C828 0.930 . S
H871 C829 0.930 . S
H872 C831 0.929 . S
H873 C832 0.930 . S
H874 C833 0.930 . S
H875 C834 0.930 . S
H876 C838 0.929 . S
H877 C840 0.930 . S
H878 C846 0.929 . S
H879 C847 0.930 . S
Li880 N897 1.990 . S
Li880 O940 1.956 . S
Li880 O941 1.970 . S
Li880 O942 1.961 . S
Li881 N905 1.990 . S
Li881 O940 1.970 . S
Li881 O941 1.956 . S
Li881 O943 1.961 . S
Li882 N927 1.990 . S
Li882 O940 1.961 . S
Li882 O942 1.956 . S
Li882 O943 1.970 . S
Li883 N933 1.990 . S
Li883 O941 1.961 . S
Li883 O942 1.970 . S
Li883 O943 1.956 . S
C884 C886 1.348 . S
C884 C887 1.356 . S
C884 O940 1.325 . S
N885 C888 1.314 . S
N885 C889 1.279 . S
C886 C884 1.348 . S
C886 C888 1.353 . S
C886 H944 0.929 . S
C887 C884 1.356 . S
C887 C889 1.358 . S
C887 H945 0.930 . S
C888 N885 1.314 . S
C888 C886 1.353 . S
C888 H946 0.930 . S
C889 N885 1.279 . S
C889 C887 1.358 . S
C889 H947 0.930 . S
C890 C893 1.348 . S
C890 C894 1.356 . S
C890 O941 1.325 . S
C891 N892 1.279 . S
C891 C894 1.358 . S
C891 H948 0.930 . S
N892 C891 1.279 . S
N892 C895 1.314 . S
C893 C890 1.348 . S
C893 C895 1.353 . S
C893 H949 0.929 . S
C894 C890 1.356 . S
C894 C891 1.358 . S
C894 H950 0.930 . S
C895 N892 1.314 . S
C895 C893 1.353 . S
C895 H951 0.930 . S
C896 N897 1.314 . S
C896 C901 1.353 . S
C896 H902 0.930 . S
N897 Li880 1.990 . S
N897 C896 1.314 . S
N897 C899 1.279 . S
C898 C899 1.358 . S
C898 C900 1.356 . S
C898 H952 0.930 . S
C899 N897 1.279 . S
C899 C898 1.358 . S
C899 H903 0.930 . S
C900 C898 1.356 . S
C900 C901 1.348 . S
C901 C896 1.353 . S
C901 C900 1.348 . S
C901 H953 0.929 . S
H902 C896 0.930 . S
H903 C899 0.930 . S
C904 N905 1.314 . S
C904 C906 1.353 . S
C904 H910 0.930 . S
N905 Li881 1.990 . S
N905 C904 1.314 . S
N905 C908 1.279 . S
C906 C904 1.353 . S
C906 C909 1.348 . S
C906 H954 0.929 . S
C907 C908 1.358 . S
C907 C909 1.356 . S
C907 H955 0.930 . S
C908 N905 1.279 . S
C908 C907 1.358 . S
C908 H911 0.930 . S
C909 C906 1.348 . S
C909 C907 1.356 . S
H910 C904 0.930 . S
H911 C908 0.930 . S
C912 C914 1.348 . S
C912 C915 1.356 . S
C912 O942 1.325 . S
N913 C916 1.314 . S
N913 C917 1.279 . S
C914 C912 1.348 . S
C914 C916 1.353 . S
C914 H956 0.929 . S
C915 C912 1.356 . S
C915 C917 1.358 . S
C915 H957 0.930 . S
C916 N913 1.314 . S
C916 C914 1.353 . S
C916 H958 0.930 . S
C917 N913 1.279 . S
C917 C915 1.358 . S
C917 H959 0.930 . S
C918 C919 1.348 . S
C918 C920 1.356 . S
C918 O943 1.325 . S
C919 C918 1.348 . S
C919 C921 1.353 . S
C919 H960 0.929 . S
C920 C918 1.356 . S
C920 C922 1.358 . S
C920 H961 0.930 . S
C921 C919 1.353 . S
C921 N923 1.314 . S
C921 H962 0.930 . S
C922 C920 1.358 . S
C922 N923 1.279 . S
C922 H963 0.930 . S
N923 C921 1.314 . S
N923 C922 1.279 . S
C924 C926 1.353 . S
C924 N927 1.314 . S
C924 H930 0.930 . S
C925 N927 1.279 . S
C925 C928 1.358 . S
C925 H931 0.930 . S
C926 C924 1.353 . S
C926 C929 1.348 . S
C926 H964 0.929 . S
N927 Li882 1.990 . S
N927 C924 1.314 . S
N927 C925 1.279 . S
C928 C925 1.358 . S
C928 C929 1.356 . S
C928 H965 0.930 . S
C929 C926 1.348 . S
C929 C928 1.356 . S
H930 C924 0.930 . S
H931 C925 0.930 . S
C932 N933 1.314 . S
C932 C934 1.353 . S
C932 H938 0.930 . S
N933 Li883 1.990 . S
N933 C932 1.314 . S
N933 C936 1.279 . S
C934 C932 1.353 . S
C934 C937 1.348 . S
C934 H966 0.929 . S
C935 C936 1.358 . S
C935 C937 1.356 . S
C935 H967 0.930 . S
C936 N933 1.279 . S
C936 C935 1.358 . S
C936 H939 0.930 . S
C937 C934 1.348 . S
C937 C935 1.356 . S
H938 C932 0.930 . S
H939 C936 0.930 . S
O940 Li880 1.956 . S
O940 Li881 1.970 . S
O940 Li882 1.961 . S
O940 C884 1.325 . S
O941 Li880 1.970 . S
O941 Li881 1.956 . S
O941 Li883 1.961 . S
O941 C890 1.325 . S
O942 Li880 1.961 . S
O942 Li882 1.956 . S
O942 Li883 1.970 . S
O942 C912 1.325 . S
O943 Li881 1.961 . S
O943 Li882 1.970 . S
O943 Li883 1.956 . S
O943 C918 1.325 . S
H944 C886 0.929 . S
H945 C887 0.930 . S
H946 C888 0.930 . S
H947 C889 0.930 . S
H948 C891 0.930 . S
H949 C893 0.929 . S
H950 C894 0.930 . S
H951 C895 0.930 . S
H952 C898 0.930 . S
H953 C901 0.929 . S
H954 C906 0.929 . S
H955 C907 0.930 . S
H956 C914 0.929 . S
H957 C915 0.930 . S
H958 C916 0.930 . S
H959 C917 0.930 . S
H960 C919 0.929 . S
H961 C920 0.930 . S
H962 C921 0.930 . S
H963 C922 0.930 . S
H964 C926 0.929 . S
H965 C928 0.930 . S
H966 C934 0.929 . S
H967 C935 0.930 . S
Li968 N985 1.990 . S
Li968 O1028 1.956 . S
Li968 O1029 1.970 . S
Li968 O1030 1.961 . S
Li969 N993 1.990 . S
Li969 O1028 1.970 . S
Li969 O1029 1.956 . S
Li969 O1031 1.961 . S
Li970 N1015 1.990 . S
Li970 O1028 1.961 . S
Li970 O1030 1.956 . S
Li970 O1031 1.970 . S
Li971 N1021 1.990 . S
Li971 O1029 1.961 . S
Li971 O1030 1.970 . S
Li971 O1031 1.956 . S
C972 C974 1.348 . S
C972 C975 1.356 . S
C972 O1028 1.325 . S
N973 C976 1.314 . S
N973 C977 1.279 . S
C974 C972 1.348 . S
C974 C976 1.353 . S
C974 H1032 0.929 . S
C975 C972 1.356 . S
C975 C977 1.358 . S
C975 H1033 0.930 . S
C976 N973 1.314 . S
C976 C974 1.353 . S
C976 H1034 0.930 . S
C977 N973 1.279 . S
C977 C975 1.358 . S
C977 H1035 0.930 . S
C978 C981 1.348 . S
C978 C982 1.356 . S
C978 O1029 1.325 . S
C979 N980 1.279 . S
C979 C982 1.358 . S
C979 H1036 0.930 . S
N980 C979 1.279 . S
N980 C983 1.314 . S
C981 C978 1.348 . S
C981 C983 1.353 . S
C981 H1037 0.929 . S
C982 C978 1.356 . S
C982 C979 1.358 . S
C982 H1038 0.930 . S
C983 N980 1.314 . S
C983 C981 1.353 . S
C983 H1039 0.930 . S
C984 N985 1.314 . S
C984 C989 1.353 . S
C984 H990 0.930 . S
N985 Li968 1.990 . S
N985 C984 1.314 . S
N985 C987 1.279 . S
C986 C987 1.358 . S
C986 C988 1.356 . S
C986 H1040 0.930 . S
C987 N985 1.279 . S
C987 C986 1.358 . S
C987 H991 0.930 . S
C988 C986 1.356 . S
C988 C989 1.348 . S
C989 C984 1.353 . S
C989 C988 1.348 . S
C989 H1041 0.929 . S
H990 C984 0.930 . S
H991 C987 0.930 . S
C992 N993 1.314 . S
C992 C994 1.353 . S
C992 H998 0.930 . S
N993 Li969 1.990 . S
N993 C992 1.314 . S
N993 C996 1.279 . S
C994 C992 1.353 . S
C994 C997 1.348 . S
C994 H1042 0.929 . S
C995 C996 1.358 . S
C995 C997 1.356 . S
C995 H1043 0.930 . S
C996 N993 1.279 . S
C996 C995 1.358 . S
C996 H999 0.930 . S
C997 C994 1.348 . S
C997 C995 1.356 . S
H998 C992 0.930 . S
H999 C996 0.930 . S
C1000 C1002 1.348 . S
C1000 C1003 1.356 . S
C1000 O1030 1.325 . S
N1001 C1004 1.314 . S
N1001 C1005 1.279 . S
C1002 C1000 1.348 . S
C1002 C1004 1.353 . S
C1002 H1044 0.929 . S
C1003 C1000 1.356 . S
C1003 C1005 1.358 . S
C1003 H1045 0.930 . S
C1004 N1001 1.314 . S
C1004 C1002 1.353 . S
C1004 H1046 0.930 . S
C1005 N1001 1.279 . S
C1005 C1003 1.358 . S
C1005 H1047 0.930 . S
C1006 C1007 1.348 . S
C1006 C1008 1.356 . S
C1006 O1031 1.325 . S
C1007 C1006 1.348 . S
C1007 C1009 1.353 . S
C1007 H1048 0.929 . S
C1008 C1006 1.356 . S
C1008 C1010 1.358 . S
C1008 H1049 0.930 . S
C1009 C1007 1.353 . S
C1009 N1011 1.314 . S
C1009 H1050 0.930 . S
C1010 C1008 1.358 . S
C1010 N1011 1.279 . S
C1010 H1051 0.930 . S
N1011 C1009 1.314 . S
N1011 C1010 1.279 . S
C1012 C1014 1.353 . S
C1012 N1015 1.314 . S
C1012 H1018 0.930 . S
C1013 N1015 1.279 . S
C1013 C1016 1.358 . S
C1013 H1019 0.930 . S
C1014 C1012 1.353 . S
C1014 C1017 1.348 . S
C1014 H1052 0.929 . S
N1015 Li970 1.990 . S
N1015 C1012 1.314 . S
N1015 C1013 1.279 . S
C1016 C1013 1.358 . S
C1016 C1017 1.356 . S
C1016 H1053 0.930 . S
C1017 C1014 1.348 . S
C1017 C1016 1.356 . S
H1018 C1012 0.930 . S
H1019 C1013 0.930 . S
C1020 N1021 1.314 . S
C1020 C1022 1.353 . S
C1020 H1026 0.930 . S
N1021 Li971 1.990 . S
N1021 C1020 1.314 . S
N1021 C1024 1.279 . S
C1022 C1020 1.353 . S
C1022 C1025 1.348 . S
C1022 H1054 0.929 . S
C1023 C1024 1.358 . S
C1023 C1025 1.356 . S
C1023 H1055 0.930 . S
C1024 N1021 1.279 . S
C1024 C1023 1.358 . S
C1024 H1027 0.930 . S
C1025 C1022 1.348 . S
C1025 C1023 1.356 . S
H1026 C1020 0.930 . S
H1027 C1024 0.930 . S
O1028 Li968 1.956 . S
O1028 Li969 1.970 . S
O1028 Li970 1.961 . S
O1028 C972 1.325 . S
O1029 Li968 1.970 . S
O1029 Li969 1.956 . S
O1029 Li971 1.961 . S
O1029 C978 1.325 . S
O1030 Li968 1.961 . S
O1030 Li970 1.956 . S
O1030 Li971 1.970 . S
O1030 C1000 1.325 . S
O1031 Li969 1.961 . S
O1031 Li970 1.970 . S
O1031 Li971 1.956 . S
O1031 C1006 1.325 . S
H1032 C974 0.929 . S
H1033 C975 0.930 . S
H1034 C976 0.930 . S
H1035 C977 0.930 . S
H1036 C979 0.930 . S
H1037 C981 0.929 . S
H1038 C982 0.930 . S
H1039 C983 0.930 . S
H1040 C986 0.930 . S
H1041 C989 0.929 . S
H1042 C994 0.929 . S
H1043 C995 0.930 . S
H1044 C1002 0.929 . S
H1045 C1003 0.930 . S
H1046 C1004 0.930 . S
H1047 C1005 0.930 . S
H1048 C1007 0.929 . S
H1049 C1008 0.930 . S
H1050 C1009 0.930 . S
H1051 C1010 0.930 . S
H1052 C1014 0.929 . S
H1053 C1016 0.930 . S
H1054 C1022 0.929 . S
H1055 C1023 0.930 . S
Li1056 N1073 1.990 . S
Li1056 O1116 1.956 . S
Li1056 O1117 1.970 . S
Li1056 O1118 1.961 . S
Li1057 N1081 1.990 . S
Li1057 O1116 1.970 . S
Li1057 O1117 1.956 . S
Li1057 O1119 1.961 . S
Li1058 N1103 1.990 . S
Li1058 O1116 1.961 . S
Li1058 O1118 1.956 . S
Li1058 O1119 1.970 . S
Li1059 N1109 1.990 . S
Li1059 O1117 1.961 . S
Li1059 O1118 1.970 . S
Li1059 O1119 1.956 . S
C1060 C1062 1.348 . S
C1060 C1063 1.356 . S
C1060 O1116 1.325 . S
N1061 C1064 1.314 . S
N1061 C1065 1.279 . S
C1062 C1060 1.348 . S
C1062 C1064 1.353 . S
C1062 H1120 0.929 . S
C1063 C1060 1.356 . S
C1063 C1065 1.358 . S
C1063 H1121 0.930 . S
C1064 N1061 1.314 . S
C1064 C1062 1.353 . S
C1064 H1122 0.930 . S
C1065 N1061 1.279 . S
C1065 C1063 1.358 . S
C1065 H1123 0.930 . S
C1066 C1069 1.348 . S
C1066 C1070 1.356 . S
C1066 O1117 1.325 . S
C1067 N1068 1.279 . S
C1067 C1070 1.358 . S
C1067 H1124 0.930 . S
N1068 C1067 1.279 . S
N1068 C1071 1.314 . S
C1069 C1066 1.348 . S
C1069 C1071 1.353 . S
C1069 H1125 0.929 . S
C1070 C1066 1.356 . S
C1070 C1067 1.358 . S
C1070 H1126 0.930 . S
C1071 N1068 1.314 . S
C1071 C1069 1.353 . S
C1071 H1127 0.930 . S
C1072 N1073 1.314 . S
C1072 C1077 1.353 . S
C1072 H1078 0.930 . S
N1073 Li1056 1.990 . S
N1073 C1072 1.314 . S
N1073 C1075 1.279 . S
C1074 C1075 1.358 . S
C1074 C1076 1.356 . S
C1074 H1128 0.930 . S
C1075 N1073 1.279 . S
C1075 C1074 1.358 . S
C1075 H1079 0.930 . S
C1076 C1074 1.356 . S
C1076 C1077 1.348 . S
C1077 C1072 1.353 . S
C1077 C1076 1.348 . S
C1077 H1129 0.929 . S
H1078 C1072 0.930 . S
H1079 C1075 0.930 . S
C1080 N1081 1.314 . S
C1080 C1082 1.353 . S
C1080 H1086 0.930 . S
N1081 Li1057 1.990 . S
N1081 C1080 1.314 . S
N1081 C1084 1.279 . S
C1082 C1080 1.353 . S
C1082 C1085 1.348 . S
C1082 H1130 0.929 . S
C1083 C1084 1.358 . S
C1083 C1085 1.356 . S
C1083 H1131 0.930 . S
C1084 N1081 1.279 . S
C1084 C1083 1.358 . S
C1084 H1087 0.930 . S
C1085 C1082 1.348 . S
C1085 C1083 1.356 . S
H1086 C1080 0.930 . S
H1087 C1084 0.930 . S
C1088 C1090 1.348 . S
C1088 C1091 1.356 . S
C1088 O1118 1.325 . S
N1089 C1092 1.314 . S
N1089 C1093 1.279 . S
C1090 C1088 1.348 . S
C1090 C1092 1.353 . S
C1090 H1132 0.929 . S
C1091 C1088 1.356 . S
C1091 C1093 1.358 . S
C1091 H1133 0.930 . S
C1092 N1089 1.314 . S
C1092 C1090 1.353 . S
C1092 H1134 0.930 . S
C1093 N1089 1.279 . S
C1093 C1091 1.358 . S
C1093 H1135 0.930 . S
C1094 C1095 1.348 . S
C1094 C1096 1.356 . S
C1094 O1119 1.325 . S
C1095 C1094 1.348 . S
C1095 C1097 1.353 . S
C1095 H1136 0.929 . S
C1096 C1094 1.356 . S
C1096 C1098 1.358 . S
C1096 H1137 0.930 . S
C1097 C1095 1.353 . S
C1097 N1099 1.314 . S
C1097 H1138 0.930 . S
C1098 C1096 1.358 . S
C1098 N1099 1.279 . S
C1098 H1139 0.930 . S
N1099 C1097 1.314 . S
N1099 C1098 1.279 . S
C1100 C1102 1.353 . S
C1100 N1103 1.314 . S
C1100 H1106 0.930 . S
C1101 N1103 1.279 . S
C1101 C1104 1.358 . S
C1101 H1107 0.930 . S
C1102 C1100 1.353 . S
C1102 C1105 1.348 . S
C1102 H1140 0.929 . S
N1103 Li1058 1.990 . S
N1103 C1100 1.314 . S
N1103 C1101 1.279 . S
C1104 C1101 1.358 . S
C1104 C1105 1.356 . S
C1104 H1141 0.930 . S
C1105 C1102 1.348 . S
C1105 C1104 1.356 . S
H1106 C1100 0.930 . S
H1107 C1101 0.930 . S
C1108 N1109 1.314 . S
C1108 C1110 1.353 . S
C1108 H1114 0.930 . S
N1109 Li1059 1.990 . S
N1109 C1108 1.314 . S
N1109 C1112 1.279 . S
C1110 C1108 1.353 . S
C1110 C1113 1.348 . S
C1110 H1142 0.929 . S
C1111 C1112 1.358 . S
C1111 C1113 1.356 . S
C1111 H1143 0.930 . S
C1112 N1109 1.279 . S
C1112 C1111 1.358 . S
C1112 H1115 0.930 . S
C1113 C1110 1.348 . S
C1113 C1111 1.356 . S
H1114 C1108 0.930 . S
H1115 C1112 0.930 . S
O1116 Li1056 1.956 . S
O1116 Li1057 1.970 . S
O1116 Li1058 1.961 . S
O1116 C1060 1.325 . S
O1117 Li1056 1.970 . S
O1117 Li1057 1.956 . S
O1117 Li1059 1.961 . S
O1117 C1066 1.325 . S
O1118 Li1056 1.961 . S
O1118 Li1058 1.956 . S
O1118 Li1059 1.970 . S
O1118 C1088 1.325 . S
O1119 Li1057 1.961 . S
O1119 Li1058 1.970 . S
O1119 Li1059 1.956 . S
O1119 C1094 1.325 . S
H1120 C1062 0.929 . S
H1121 C1063 0.930 . S
H1122 C1064 0.930 . S
H1123 C1065 0.930 . S
H1124 C1067 0.930 . S
H1125 C1069 0.929 . S
H1126 C1070 0.930 . S
H1127 C1071 0.930 . S
H1128 C1074 0.930 . S
H1129 C1077 0.929 . S
H1130 C1082 0.929 . S
H1131 C1083 0.930 . S
H1132 C1090 0.929 . S
H1133 C1091 0.930 . S
H1134 C1092 0.930 . S
H1135 C1093 0.930 . S
H1136 C1095 0.929 . S
H1137 C1096 0.930 . S
H1138 C1097 0.930 . S
H1139 C1098 0.930 . S
H1140 C1102 0.929 . S
H1141 C1104 0.930 . S
H1142 C1110 0.929 . S
H1143 C1111 0.930 . S
Li1144 N1161 1.990 . S
Li1144 O1204 1.956 . S
Li1144 O1205 1.970 . S
Li1144 O1206 1.961 . S
Li1145 N1169 1.990 . S
Li1145 O1204 1.970 . S
Li1145 O1205 1.956 . S
Li1145 O1207 1.961 . S
Li1146 N1191 1.990 . S
Li1146 O1204 1.961 . S
Li1146 O1206 1.956 . S
Li1146 O1207 1.970 . S
Li1147 N1197 1.990 . S
Li1147 O1205 1.961 . S
Li1147 O1206 1.970 . S
Li1147 O1207 1.956 . S
C1148 C1150 1.348 . S
C1148 C1151 1.356 . S
C1148 O1204 1.325 . S
N1149 C1152 1.314 . S
N1149 C1153 1.279 . S
C1150 C1148 1.348 . S
C1150 C1152 1.353 . S
C1150 H1208 0.929 . S
C1151 C1148 1.356 . S
C1151 C1153 1.358 . S
C1151 H1209 0.930 . S
C1152 N1149 1.314 . S
C1152 C1150 1.353 . S
C1152 H1210 0.930 . S
C1153 N1149 1.279 . S
C1153 C1151 1.358 . S
C1153 H1211 0.930 . S
C1154 C1157 1.348 . S
C1154 C1158 1.356 . S
C1154 O1205 1.325 . S
C1155 N1156 1.279 . S
C1155 C1158 1.358 . S
C1155 H1212 0.930 . S
N1156 C1155 1.279 . S
N1156 C1159 1.314 . S
C1157 C1154 1.348 . S
C1157 C1159 1.353 . S
C1157 H1213 0.929 . S
C1158 C1154 1.356 . S
C1158 C1155 1.358 . S
C1158 H1214 0.930 . S
C1159 N1156 1.314 . S
C1159 C1157 1.353 . S
C1159 H1215 0.930 . S
C1160 N1161 1.314 . S
C1160 C1165 1.353 . S
C1160 H1166 0.930 . S
N1161 Li1144 1.990 . S
N1161 C1160 1.314 . S
N1161 C1163 1.279 . S
C1162 C1163 1.358 . S
C1162 C1164 1.356 . S
C1162 H1216 0.930 . S
C1163 N1161 1.279 . S
C1163 C1162 1.358 . S
C1163 H1167 0.930 . S
C1164 C1162 1.356 . S
C1164 C1165 1.348 . S
C1165 C1160 1.353 . S
C1165 C1164 1.348 . S
C1165 H1217 0.929 . S
H1166 C1160 0.930 . S
H1167 C1163 0.930 . S
C1168 N1169 1.314 . S
C1168 C1170 1.353 . S
C1168 H1174 0.930 . S
N1169 Li1145 1.990 . S
N1169 C1168 1.314 . S
N1169 C1172 1.279 . S
C1170 C1168 1.353 . S
C1170 C1173 1.348 . S
C1170 H1218 0.929 . S
C1171 C1172 1.358 . S
C1171 C1173 1.356 . S
C1171 H1219 0.930 . S
C1172 N1169 1.279 . S
C1172 C1171 1.358 . S
C1172 H1175 0.930 . S
C1173 C1170 1.348 . S
C1173 C1171 1.356 . S
H1174 C1168 0.930 . S
H1175 C1172 0.930 . S
C1176 C1178 1.348 . S
C1176 C1179 1.356 . S
C1176 O1206 1.325 . S
N1177 C1180 1.314 . S
N1177 C1181 1.279 . S
C1178 C1176 1.348 . S
C1178 C1180 1.353 . S
C1178 H1220 0.929 . S
C1179 C1176 1.356 . S
C1179 C1181 1.358 . S
C1179 H1221 0.930 . S
C1180 N1177 1.314 . S
C1180 C1178 1.353 . S
C1180 H1222 0.930 . S
C1181 N1177 1.279 . S
C1181 C1179 1.358 . S
C1181 H1223 0.930 . S
C1182 C1183 1.348 . S
C1182 C1184 1.356 . S
C1182 O1207 1.325 . S
C1183 C1182 1.348 . S
C1183 C1185 1.353 . S
C1183 H1224 0.929 . S
C1184 C1182 1.356 . S
C1184 C1186 1.358 . S
C1184 H1225 0.930 . S
C1185 C1183 1.353 . S
C1185 N1187 1.314 . S
C1185 H1226 0.930 . S
C1186 C1184 1.358 . S
C1186 N1187 1.279 . S
C1186 H1227 0.930 . S
N1187 C1185 1.314 . S
N1187 C1186 1.279 . S
C1188 C1190 1.353 . S
C1188 N1191 1.314 . S
C1188 H1194 0.930 . S
C1189 N1191 1.279 . S
C1189 C1192 1.358 . S
C1189 H1195 0.930 . S
C1190 C1188 1.353 . S
C1190 C1193 1.348 . S
C1190 H1228 0.929 . S
N1191 Li1146 1.990 . S
N1191 C1188 1.314 . S
N1191 C1189 1.279 . S
C1192 C1189 1.358 . S
C1192 C1193 1.356 . S
C1192 H1229 0.930 . S
C1193 C1190 1.348 . S
C1193 C1192 1.356 . S
H1194 C1188 0.930 . S
H1195 C1189 0.930 . S
C1196 N1197 1.314 . S
C1196 C1198 1.353 . S
C1196 H1202 0.930 . S
N1197 Li1147 1.990 . S
N1197 C1196 1.314 . S
N1197 C1200 1.279 . S
C1198 C1196 1.353 . S
C1198 C1201 1.348 . S
C1198 H1230 0.929 . S
C1199 C1200 1.358 . S
C1199 C1201 1.356 . S
C1199 H1231 0.930 . S
C1200 N1197 1.279 . S
C1200 C1199 1.358 . S
C1200 H1203 0.930 . S
C1201 C1198 1.348 . S
C1201 C1199 1.356 . S
H1202 C1196 0.930 . S
H1203 C1200 0.930 . S
O1204 Li1144 1.956 . S
O1204 Li1145 1.970 . S
O1204 Li1146 1.961 . S
O1204 C1148 1.325 . S
O1205 Li1144 1.970 . S
O1205 Li1145 1.956 . S
O1205 Li1147 1.961 . S
O1205 C1154 1.325 . S
O1206 Li1144 1.961 . S
O1206 Li1146 1.956 . S
O1206 Li1147 1.970 . S
O1206 C1176 1.325 . S
O1207 Li1145 1.961 . S
O1207 Li1146 1.970 . S
O1207 Li1147 1.956 . S
O1207 C1182 1.325 . S
H1208 C1150 0.929 . S
H1209 C1151 0.930 . S
H1210 C1152 0.930 . S
H1211 C1153 0.930 . S
H1212 C1155 0.930 . S
H1213 C1157 0.929 . S
H1214 C1158 0.930 . S
H1215 C1159 0.930 . S
H1216 C1162 0.930 . S
H1217 C1165 0.929 . S
H1218 C1170 0.929 . S
H1219 C1171 0.930 . S
H1220 C1178 0.929 . S
H1221 C1179 0.930 . S
H1222 C1180 0.930 . S
H1223 C1181 0.930 . S
H1224 C1183 0.929 . S
H1225 C1184 0.930 . S
H1226 C1185 0.930 . S
H1227 C1186 0.930 . S
H1228 C1190 0.929 . S
H1229 C1192 0.930 . S
H1230 C1198 0.929 . S
H1231 C1199 0.930 . S
Li1232 N1249 1.990 . S
Li1232 O1292 1.956 . S
Li1232 O1293 1.970 . S
Li1232 O1294 1.961 . S
Li1233 N1257 1.990 . S
Li1233 O1292 1.970 . S
Li1233 O1293 1.956 . S
Li1233 O1295 1.961 . S
Li1234 N1279 1.990 . S
Li1234 O1292 1.961 . S
Li1234 O1294 1.956 . S
Li1234 O1295 1.970 . S
Li1235 N1285 1.990 . S
Li1235 O1293 1.961 . S
Li1235 O1294 1.970 . S
Li1235 O1295 1.956 . S
C1236 C1238 1.348 . S
C1236 C1239 1.356 . S
C1236 O1292 1.325 . S
N1237 C1240 1.314 . S
N1237 C1241 1.279 . S
C1238 C1236 1.348 . S
C1238 C1240 1.353 . S
C1238 H1296 0.929 . S
C1239 C1236 1.356 . S
C1239 C1241 1.358 . S
C1239 H1297 0.930 . S
C1240 N1237 1.314 . S
C1240 C1238 1.353 . S
C1240 H1298 0.930 . S
C1241 N1237 1.279 . S
C1241 C1239 1.358 . S
C1241 H1299 0.930 . S
C1242 C1245 1.348 . S
C1242 C1246 1.356 . S
C1242 O1293 1.325 . S
C1243 N1244 1.279 . S
C1243 C1246 1.358 . S
C1243 H1300 0.930 . S
N1244 C1243 1.279 . S
N1244 C1247 1.314 . S
C1245 C1242 1.348 . S
C1245 C1247 1.353 . S
C1245 H1301 0.929 . S
C1246 C1242 1.356 . S
C1246 C1243 1.358 . S
C1246 H1302 0.930 . S
C1247 N1244 1.314 . S
C1247 C1245 1.353 . S
C1247 H1303 0.930 . S
C1248 N1249 1.314 . S
C1248 C1253 1.353 . S
C1248 H1254 0.930 . S
N1249 Li1232 1.990 . S
N1249 C1248 1.314 . S
N1249 C1251 1.279 . S
C1250 C1251 1.358 . S
C1250 C1252 1.356 . S
C1250 H1304 0.930 . S
C1251 N1249 1.279 . S
C1251 C1250 1.358 . S
C1251 H1255 0.930 . S
C1252 C1250 1.356 . S
C1252 C1253 1.348 . S
C1253 C1248 1.353 . S
C1253 C1252 1.348 . S
C1253 H1305 0.929 . S
H1254 C1248 0.930 . S
H1255 C1251 0.930 . S
C1256 N1257 1.314 . S
C1256 C1258 1.353 . S
C1256 H1262 0.930 . S
N1257 Li1233 1.990 . S
N1257 C1256 1.314 . S
N1257 C1260 1.279 . S
C1258 C1256 1.353 . S
C1258 C1261 1.348 . S
C1258 H1306 0.929 . S
C1259 C1260 1.358 . S
C1259 C1261 1.356 . S
C1259 H1307 0.930 . S
C1260 N1257 1.279 . S
C1260 C1259 1.358 . S
C1260 H1263 0.930 . S
C1261 C1258 1.348 . S
C1261 C1259 1.356 . S
H1262 C1256 0.930 . S
H1263 C1260 0.930 . S
C1264 C1266 1.348 . S
C1264 C1267 1.356 . S
C1264 O1294 1.325 . S
N1265 C1268 1.314 . S
N1265 C1269 1.279 . S
C1266 C1264 1.348 . S
C1266 C1268 1.353 . S
C1266 H1308 0.929 . S
C1267 C1264 1.356 . S
C1267 C1269 1.358 . S
C1267 H1309 0.930 . S
C1268 N1265 1.314 . S
C1268 C1266 1.353 . S
C1268 H1310 0.930 . S
C1269 N1265 1.279 . S
C1269 C1267 1.358 . S
C1269 H1311 0.930 . S
C1270 C1271 1.348 . S
C1270 C1272 1.356 . S
C1270 O1295 1.325 . S
C1271 C1270 1.348 . S
C1271 C1273 1.353 . S
C1271 H1312 0.929 . S
C1272 C1270 1.356 . S
C1272 C1274 1.358 . S
C1272 H1313 0.930 . S
C1273 C1271 1.353 . S
C1273 N1275 1.314 . S
C1273 H1314 0.930 . S
C1274 C1272 1.358 . S
C1274 N1275 1.279 . S
C1274 H1315 0.930 . S
N1275 C1273 1.314 . S
N1275 C1274 1.279 . S
C1276 C1278 1.353 . S
C1276 N1279 1.314 . S
C1276 H1282 0.930 . S
C1277 N1279 1.279 . S
C1277 C1280 1.358 . S
C1277 H1283 0.930 . S
C1278 C1276 1.353 . S
C1278 C1281 1.348 . S
C1278 H1316 0.929 . S
N1279 Li1234 1.990 . S
N1279 C1276 1.314 . S
N1279 C1277 1.279 . S
C1280 C1277 1.358 . S
C1280 C1281 1.356 . S
C1280 H1317 0.930 . S
C1281 C1278 1.348 . S
C1281 C1280 1.356 . S
H1282 C1276 0.930 . S
H1283 C1277 0.930 . S
C1284 N1285 1.314 . S
C1284 C1286 1.353 . S
C1284 H1290 0.930 . S
N1285 Li1235 1.990 . S
N1285 C1284 1.314 . S
N1285 C1288 1.279 . S
C1286 C1284 1.353 . S
C1286 C1289 1.348 . S
C1286 H1318 0.929 . S
C1287 C1288 1.358 . S
C1287 C1289 1.356 . S
C1287 H1319 0.930 . S
C1288 N1285 1.279 . S
C1288 C1287 1.358 . S
C1288 H1291 0.930 . S
C1289 C1286 1.348 . S
C1289 C1287 1.356 . S
H1290 C1284 0.930 . S
H1291 C1288 0.930 . S
O1292 Li1232 1.956 . S
O1292 Li1233 1.970 . S
O1292 Li1234 1.961 . S
O1292 C1236 1.325 . S
O1293 Li1232 1.970 . S
O1293 Li1233 1.956 . S
O1293 Li1235 1.961 . S
O1293 C1242 1.325 . S
O1294 Li1232 1.961 . S
O1294 Li1234 1.956 . S
O1294 Li1235 1.970 . S
O1294 C1264 1.325 . S
O1295 Li1233 1.961 . S
O1295 Li1234 1.970 . S
O1295 Li1235 1.956 . S
O1295 C1270 1.325 . S
H1296 C1238 0.929 . S
H1297 C1239 0.930 . S
H1298 C1240 0.930 . S
H1299 C1241 0.930 . S
H1300 C1243 0.930 . S
H1301 C1245 0.929 . S
H1302 C1246 0.930 . S
H1303 C1247 0.930 . S
H1304 C1250 0.930 . S
H1305 C1253 0.929 . S
H1306 C1258 0.929 . S
H1307 C1259 0.930 . S
H1308 C1266 0.929 . S
H1309 C1267 0.930 . S
H1310 C1268 0.930 . S
H1311 C1269 0.930 . S
H1312 C1271 0.929 . S
H1313 C1272 0.930 . S
H1314 C1273 0.930 . S
H1315 C1274 0.930 . S
H1316 C1278 0.929 . S
H1317 C1280 0.930 . S
H1318 C1286 0.929 . S
H1319 C1287 0.930 . S
Li1320 N1337 1.990 . S
Li1320 O1380 1.956 . S
Li1320 O1381 1.970 . S
Li1320 O1382 1.961 . S
Li1321 N1345 1.990 . S
Li1321 O1380 1.970 . S
Li1321 O1381 1.956 . S
Li1321 O1383 1.961 . S
Li1322 N1367 1.990 . S
Li1322 O1380 1.961 . S
Li1322 O1382 1.956 . S
Li1322 O1383 1.970 . S
Li1323 N1373 1.990 . S
Li1323 O1381 1.961 . S
Li1323 O1382 1.970 . S
Li1323 O1383 1.956 . S
C1324 C1326 1.348 . S
C1324 C1327 1.356 . S
C1324 O1380 1.325 . S
N1325 C1328 1.314 . S
N1325 C1329 1.279 . S
C1326 C1324 1.348 . S
C1326 C1328 1.353 . S
C1326 H1384 0.929 . S
C1327 C1324 1.356 . S
C1327 C1329 1.358 . S
C1327 H1385 0.930 . S
C1328 N1325 1.314 . S
C1328 C1326 1.353 . S
C1328 H1386 0.930 . S
C1329 N1325 1.279 . S
C1329 C1327 1.358 . S
C1329 H1387 0.930 . S
C1330 C1333 1.348 . S
C1330 C1334 1.356 . S
C1330 O1381 1.325 . S
C1331 N1332 1.279 . S
C1331 C1334 1.358 . S
C1331 H1388 0.930 . S
N1332 C1331 1.279 . S
N1332 C1335 1.314 . S
C1333 C1330 1.348 . S
C1333 C1335 1.353 . S
C1333 H1389 0.929 . S
C1334 C1330 1.356 . S
C1334 C1331 1.358 . S
C1334 H1390 0.930 . S
C1335 N1332 1.314 . S
C1335 C1333 1.353 . S
C1335 H1391 0.930 . S
C1336 N1337 1.314 . S
C1336 C1341 1.353 . S
C1336 H1342 0.930 . S
N1337 Li1320 1.990 . S
N1337 C1336 1.314 . S
N1337 C1339 1.279 . S
C1338 C1339 1.358 . S
C1338 C1340 1.356 . S
C1338 H1392 0.930 . S
C1339 N1337 1.279 . S
C1339 C1338 1.358 . S
C1339 H1343 0.930 . S
C1340 C1338 1.356 . S
C1340 C1341 1.348 . S
C1341 C1336 1.353 . S
C1341 C1340 1.348 . S
C1341 H1393 0.929 . S
H1342 C1336 0.930 . S
H1343 C1339 0.930 . S
C1344 N1345 1.314 . S
C1344 C1346 1.353 . S
C1344 H1350 0.930 . S
N1345 Li1321 1.990 . S
N1345 C1344 1.314 . S
N1345 C1348 1.279 . S
C1346 C1344 1.353 . S
C1346 C1349 1.348 . S
C1346 H1394 0.929 . S
C1347 C1348 1.358 . S
C1347 C1349 1.356 . S
C1347 H1395 0.930 . S
C1348 N1345 1.279 . S
C1348 C1347 1.358 . S
C1348 H1351 0.930 . S
C1349 C1346 1.348 . S
C1349 C1347 1.356 . S
H1350 C1344 0.930 . S
H1351 C1348 0.930 . S
C1352 C1354 1.348 . S
C1352 C1355 1.356 . S
C1352 O1382 1.325 . S
N1353 C1356 1.314 . S
N1353 C1357 1.279 . S
C1354 C1352 1.348 . S
C1354 C1356 1.353 . S
C1354 H1396 0.929 . S
C1355 C1352 1.356 . S
C1355 C1357 1.358 . S
C1355 H1397 0.930 . S
C1356 N1353 1.314 . S
C1356 C1354 1.353 . S
C1356 H1398 0.930 . S
C1357 N1353 1.279 . S
C1357 C1355 1.358 . S
C1357 H1399 0.930 . S
C1358 C1359 1.348 . S
C1358 C1360 1.356 . S
C1358 O1383 1.325 . S
C1359 C1358 1.348 . S
C1359 C1361 1.353 . S
C1359 H1400 0.929 . S
C1360 C1358 1.356 . S
C1360 C1362 1.358 . S
C1360 H1401 0.930 . S
C1361 C1359 1.353 . S
C1361 N1363 1.314 . S
C1361 H1402 0.930 . S
C1362 C1360 1.358 . S
C1362 N1363 1.279 . S
C1362 H1403 0.930 . S
N1363 C1361 1.314 . S
N1363 C1362 1.279 . S
C1364 C1366 1.353 . S
C1364 N1367 1.314 . S
C1364 H1370 0.930 . S
C1365 N1367 1.279 . S
C1365 C1368 1.358 . S
C1365 H1371 0.930 . S
C1366 C1364 1.353 . S
C1366 C1369 1.348 . S
C1366 H1404 0.929 . S
N1367 Li1322 1.990 . S
N1367 C1364 1.314 . S
N1367 C1365 1.279 . S
C1368 C1365 1.358 . S
C1368 C1369 1.356 . S
C1368 H1405 0.930 . S
C1369 C1366 1.348 . S
C1369 C1368 1.356 . S
H1370 C1364 0.930 . S
H1371 C1365 0.930 . S
C1372 N1373 1.314 . S
C1372 C1374 1.353 . S
C1372 H1378 0.930 . S
N1373 Li1323 1.990 . S
N1373 C1372 1.314 . S
N1373 C1376 1.279 . S
C1374 C1372 1.353 . S
C1374 C1377 1.348 . S
C1374 H1406 0.929 . S
C1375 C1376 1.358 . S
C1375 C1377 1.356 . S
C1375 H1407 0.930 . S
C1376 N1373 1.279 . S
C1376 C1375 1.358 . S
C1376 H1379 0.930 . S
C1377 C1374 1.348 . S
C1377 C1375 1.356 . S
H1378 C1372 0.930 . S
H1379 C1376 0.930 . S
O1380 Li1320 1.956 . S
O1380 Li1321 1.970 . S
O1380 Li1322 1.961 . S
O1380 C1324 1.325 . S
O1381 Li1320 1.970 . S
O1381 Li1321 1.956 . S
O1381 Li1323 1.961 . S
O1381 C1330 1.325 . S
O1382 Li1320 1.961 . S
O1382 Li1322 1.956 . S
O1382 Li1323 1.970 . S
O1382 C1352 1.325 . S
O1383 Li1321 1.961 . S
O1383 Li1322 1.970 . S
O1383 Li1323 1.956 . S
O1383 C1358 1.325 . S
H1384 C1326 0.929 . S
H1385 C1327 0.930 . S
H1386 C1328 0.930 . S
H1387 C1329 0.930 . S
H1388 C1331 0.930 . S
H1389 C1333 0.929 . S
H1390 C1334 0.930 . S
H1391 C1335 0.930 . S
H1392 C1338 0.930 . S
H1393 C1341 0.929 . S
H1394 C1346 0.929 . S
H1395 C1347 0.930 . S
H1396 C1354 0.929 . S
H1397 C1355 0.930 . S
H1398 C1356 0.930 . S
H1399 C1357 0.930 . S
H1400 C1359 0.929 . S
H1401 C1360 0.930 . S
H1402 C1361 0.930 . S
H1403 C1362 0.930 . S
H1404 C1366 0.929 . S
H1405 C1368 0.930 . S
H1406 C1374 0.929 . S
H1407 C1375 0.930 . S
Li1408 N1425 1.990 . S
Li1408 O1468 1.956 . S
Li1408 O1469 1.970 . S
Li1408 O1470 1.961 . S
Li1409 N1433 1.990 . S
Li1409 O1468 1.970 . S
Li1409 O1469 1.956 . S
Li1409 O1471 1.961 . S
Li1410 N1455 1.990 . S
Li1410 O1468 1.961 . S
Li1410 O1470 1.956 . S
Li1410 O1471 1.970 . S
Li1411 N1461 1.990 . S
Li1411 O1469 1.961 . S
Li1411 O1470 1.970 . S
Li1411 O1471 1.956 . S
C1412 C1414 1.348 . S
C1412 C1415 1.356 . S
C1412 O1468 1.325 . S
N1413 C1416 1.314 . S
N1413 C1417 1.279 . S
C1414 C1412 1.348 . S
C1414 C1416 1.353 . S
C1414 H1472 0.929 . S
C1415 C1412 1.356 . S
C1415 C1417 1.358 . S
C1415 H1473 0.930 . S
C1416 N1413 1.314 . S
C1416 C1414 1.353 . S
C1416 H1474 0.930 . S
C1417 N1413 1.279 . S
C1417 C1415 1.358 . S
C1417 H1475 0.930 . S
C1418 C1421 1.348 . S
C1418 C1422 1.356 . S
C1418 O1469 1.325 . S
C1419 N1420 1.279 . S
C1419 C1422 1.358 . S
C1419 H1476 0.930 . S
N1420 C1419 1.279 . S
N1420 C1423 1.314 . S
C1421 C1418 1.348 . S
C1421 C1423 1.353 . S
C1421 H1477 0.929 . S
C1422 C1418 1.356 . S
C1422 C1419 1.358 . S
C1422 H1478 0.930 . S
C1423 N1420 1.314 . S
C1423 C1421 1.353 . S
C1423 H1479 0.930 . S
C1424 N1425 1.314 . S
C1424 C1429 1.353 . S
C1424 H1430 0.930 . S
N1425 Li1408 1.990 . S
N1425 C1424 1.314 . S
N1425 C1427 1.279 . S
C1426 C1427 1.358 . S
C1426 C1428 1.356 . S
C1426 H1480 0.930 . S
C1427 N1425 1.279 . S
C1427 C1426 1.358 . S
C1427 H1431 0.930 . S
C1428 C1426 1.356 . S
C1428 C1429 1.348 . S
C1429 C1424 1.353 . S
C1429 C1428 1.348 . S
C1429 H1481 0.929 . S
H1430 C1424 0.930 . S
H1431 C1427 0.930 . S
C1432 N1433 1.314 . S
C1432 C1434 1.353 . S
C1432 H1438 0.930 . S
N1433 Li1409 1.990 . S
N1433 C1432 1.314 . S
N1433 C1436 1.279 . S
C1434 C1432 1.353 . S
C1434 C1437 1.348 . S
C1434 H1482 0.929 . S
C1435 C1436 1.358 . S
C1435 C1437 1.356 . S
C1435 H1483 0.930 . S
C1436 N1433 1.279 . S
C1436 C1435 1.358 . S
C1436 H1439 0.930 . S
C1437 C1434 1.348 . S
C1437 C1435 1.356 . S
H1438 C1432 0.930 . S
H1439 C1436 0.930 . S
C1440 C1442 1.348 . S
C1440 C1443 1.356 . S
C1440 O1470 1.325 . S
N1441 C1444 1.314 . S
N1441 C1445 1.279 . S
C1442 C1440 1.348 . S
C1442 C1444 1.353 . S
C1442 H1484 0.929 . S
C1443 C1440 1.356 . S
C1443 C1445 1.358 . S
C1443 H1485 0.930 . S
C1444 N1441 1.314 . S
C1444 C1442 1.353 . S
C1444 H1486 0.930 . S
C1445 N1441 1.279 . S
C1445 C1443 1.358 . S
C1445 H1487 0.930 . S
C1446 C1447 1.348 . S
C1446 C1448 1.356 . S
C1446 O1471 1.325 . S
C1447 C1446 1.348 . S
C1447 C1449 1.353 . S
C1447 H1488 0.929 . S
C1448 C1446 1.356 . S
C1448 C1450 1.358 . S
C1448 H1489 0.930 . S
C1449 C1447 1.353 . S
C1449 N1451 1.314 . S
C1449 H1490 0.930 . S
C1450 C1448 1.358 . S
C1450 N1451 1.279 . S
C1450 H1491 0.930 . S
N1451 C1449 1.314 . S
N1451 C1450 1.279 . S
C1452 C1454 1.353 . S
C1452 N1455 1.314 . S
C1452 H1458 0.930 . S
C1453 N1455 1.279 . S
C1453 C1456 1.358 . S
C1453 H1459 0.930 . S
C1454 C1452 1.353 . S
C1454 C1457 1.348 . S
C1454 H1492 0.929 . S
N1455 Li1410 1.990 . S
N1455 C1452 1.314 . S
N1455 C1453 1.279 . S
C1456 C1453 1.358 . S
C1456 C1457 1.356 . S
C1456 H1493 0.930 . S
C1457 C1454 1.348 . S
C1457 C1456 1.356 . S
H1458 C1452 0.930 . S
H1459 C1453 0.930 . S
C1460 N1461 1.314 . S
C1460 C1462 1.353 . S
C1460 H1466 0.930 . S
N1461 Li1411 1.990 . S
N1461 C1460 1.314 . S
N1461 C1464 1.279 . S
C1462 C1460 1.353 . S
C1462 C1465 1.348 . S
C1462 H1494 0.929 . S
C1463 C1464 1.358 . S
C1463 C1465 1.356 . S
C1463 H1495 0.930 . S
C1464 N1461 1.279 . S
C1464 C1463 1.358 . S
C1464 H1467 0.930 . S
C1465 C1462 1.348 . S
C1465 C1463 1.356 . S
H1466 C1460 0.930 . S
H1467 C1464 0.930 . S
O1468 Li1408 1.956 . S
O1468 Li1409 1.970 . S
O1468 Li1410 1.961 . S
O1468 C1412 1.325 . S
O1469 Li1408 1.970 . S
O1469 Li1409 1.956 . S
O1469 Li1411 1.961 . S
O1469 C1418 1.325 . S
O1470 Li1408 1.961 . S
O1470 Li1410 1.956 . S
O1470 Li1411 1.970 . S
O1470 C1440 1.325 . S
O1471 Li1409 1.961 . S
O1471 Li1410 1.970 . S
O1471 Li1411 1.956 . S
O1471 C1446 1.325 . S
H1472 C1414 0.929 . S
H1473 C1415 0.930 . S
H1474 C1416 0.930 . S
H1475 C1417 0.930 . S
H1476 C1419 0.930 . S
H1477 C1421 0.929 . S
H1478 C1422 0.930 . S
H1479 C1423 0.930 . S
H1480 C1426 0.930 . S
H1481 C1429 0.929 . S
H1482 C1434 0.929 . S
H1483 C1435 0.930 . S
H1484 C1442 0.929 . S
H1485 C1443 0.930 . S
H1486 C1444 0.930 . S
H1487 C1445 0.930 . S
H1488 C1447 0.929 . S
H1489 C1448 0.930 . S
H1490 C1449 0.930 . S
H1491 C1450 0.930 . S
H1492 C1454 0.929 . S
H1493 C1456 0.930 . S
H1494 C1462 0.929 . S
H1495 C1463 0.930 . S
Li1496 N1513 1.990 . S
Li1496 O1556 1.956 . S
Li1496 O1557 1.970 . S
Li1496 O1558 1.961 . S
Li1497 N1521 1.990 . S
Li1497 O1556 1.970 . S
Li1497 O1557 1.956 . S
Li1497 O1559 1.961 . S
Li1498 N1543 1.990 . S
Li1498 O1556 1.961 . S
Li1498 O1558 1.956 . S
Li1498 O1559 1.970 . S
Li1499 N1549 1.990 . S
Li1499 O1557 1.961 . S
Li1499 O1558 1.970 . S
Li1499 O1559 1.956 . S
C1500 C1502 1.348 . S
C1500 C1503 1.356 . S
C1500 O1556 1.325 . S
N1501 C1504 1.314 . S
N1501 C1505 1.279 . S
C1502 C1500 1.348 . S
C1502 C1504 1.353 . S
C1502 H1560 0.929 . S
C1503 C1500 1.356 . S
C1503 C1505 1.358 . S
C1503 H1561 0.930 . S
C1504 N1501 1.314 . S
C1504 C1502 1.353 . S
C1504 H1562 0.930 . S
C1505 N1501 1.279 . S
C1505 C1503 1.358 . S
C1505 H1563 0.930 . S
C1506 C1509 1.348 . S
C1506 C1510 1.356 . S
C1506 O1557 1.325 . S
C1507 N1508 1.279 . S
C1507 C1510 1.358 . S
C1507 H1564 0.930 . S
N1508 C1507 1.279 . S
N1508 C1511 1.314 . S
C1509 C1506 1.348 . S
C1509 C1511 1.353 . S
C1509 H1565 0.929 . S
C1510 C1506 1.356 . S
C1510 C1507 1.358 . S
C1510 H1566 0.930 . S
C1511 N1508 1.314 . S
C1511 C1509 1.353 . S
C1511 H1567 0.930 . S
C1512 N1513 1.314 . S
C1512 C1517 1.353 . S
C1512 H1518 0.930 . S
N1513 Li1496 1.990 . S
N1513 C1512 1.314 . S
N1513 C1515 1.279 . S
C1514 C1515 1.358 . S
C1514 C1516 1.356 . S
C1514 H1568 0.930 . S
C1515 N1513 1.279 . S
C1515 C1514 1.358 . S
C1515 H1519 0.930 . S
C1516 C1514 1.356 . S
C1516 C1517 1.348 . S
C1517 C1512 1.353 . S
C1517 C1516 1.348 . S
C1517 H1569 0.929 . S
H1518 C1512 0.930 . S
H1519 C1515 0.930 . S
C1520 N1521 1.314 . S
C1520 C1522 1.353 . S
C1520 H1526 0.930 . S
N1521 Li1497 1.990 . S
N1521 C1520 1.314 . S
N1521 C1524 1.279 . S
C1522 C1520 1.353 . S
C1522 C1525 1.348 . S
C1522 H1570 0.929 . S
C1523 C1524 1.358 . S
C1523 C1525 1.356 . S
C1523 H1571 0.930 . S
C1524 N1521 1.279 . S
C1524 C1523 1.358 . S
C1524 H1527 0.930 . S
C1525 C1522 1.348 . S
C1525 C1523 1.356 . S
H1526 C1520 0.930 . S
H1527 C1524 0.930 . S
C1528 C1530 1.348 . S
C1528 C1531 1.356 . S
C1528 O1558 1.325 . S
N1529 C1532 1.314 . S
N1529 C1533 1.279 . S
C1530 C1528 1.348 . S
C1530 C1532 1.353 . S
C1530 H1572 0.929 . S
C1531 C1528 1.356 . S
C1531 C1533 1.358 . S
C1531 H1573 0.930 . S
C1532 N1529 1.314 . S
C1532 C1530 1.353 . S
C1532 H1574 0.930 . S
C1533 N1529 1.279 . S
C1533 C1531 1.358 . S
C1533 H1575 0.930 . S
C1534 C1535 1.348 . S
C1534 C1536 1.356 . S
C1534 O1559 1.325 . S
C1535 C1534 1.348 . S
C1535 C1537 1.353 . S
C1535 H1576 0.929 . S
C1536 C1534 1.356 . S
C1536 C1538 1.358 . S
C1536 H1577 0.930 . S
C1537 C1535 1.353 . S
C1537 N1539 1.314 . S
C1537 H1578 0.930 . S
C1538 C1536 1.358 . S
C1538 N1539 1.279 . S
C1538 H1579 0.930 . S
N1539 C1537 1.314 . S
N1539 C1538 1.279 . S
C1540 C1542 1.353 . S
C1540 N1543 1.314 . S
C1540 H1546 0.930 . S
C1541 N1543 1.279 . S
C1541 C1544 1.358 . S
C1541 H1547 0.930 . S
C1542 C1540 1.353 . S
C1542 C1545 1.348 . S
C1542 H1580 0.929 . S
N1543 Li1498 1.990 . S
N1543 C1540 1.314 . S
N1543 C1541 1.279 . S
C1544 C1541 1.358 . S
C1544 C1545 1.356 . S
C1544 H1581 0.930 . S
C1545 C1542 1.348 . S
C1545 C1544 1.356 . S
H1546 C1540 0.930 . S
H1547 C1541 0.930 . S
C1548 N1549 1.314 . S
C1548 C1550 1.353 . S
C1548 H1554 0.930 . S
N1549 Li1499 1.990 . S
N1549 C1548 1.314 . S
N1549 C1552 1.279 . S
C1550 C1548 1.353 . S
C1550 C1553 1.348 . S
C1550 H1582 0.929 . S
C1551 C1552 1.358 . S
C1551 C1553 1.356 . S
C1551 H1583 0.930 . S
C1552 N1549 1.279 . S
C1552 C1551 1.358 . S
C1552 H1555 0.930 . S
C1553 C1550 1.348 . S
C1553 C1551 1.356 . S
H1554 C1548 0.930 . S
H1555 C1552 0.930 . S
O1556 Li1496 1.956 . S
O1556 Li1497 1.970 . S
O1556 Li1498 1.961 . S
O1556 C1500 1.325 . S
O1557 Li1496 1.970 . S
O1557 Li1497 1.956 . S
O1557 Li1499 1.961 . S
O1557 C1506 1.325 . S
O1558 Li1496 1.961 . S
O1558 Li1498 1.956 . S
O1558 Li1499 1.970 . S
O1558 C1528 1.325 . S
O1559 Li1497 1.961 . S
O1559 Li1498 1.970 . S
O1559 Li1499 1.956 . S
O1559 C1534 1.325 . S
H1560 C1502 0.929 . S
H1561 C1503 0.930 . S
H1562 C1504 0.930 . S
H1563 C1505 0.930 . S
H1564 C1507 0.930 . S
H1565 C1509 0.929 . S
H1566 C1510 0.930 . S
H1567 C1511 0.930 . S
H1568 C1514 0.930 . S
H1569 C1517 0.929 . S
H1570 C1522 0.929 . S
H1571 C1523 0.930 . S
H1572 C1530 0.929 . S
H1573 C1531 0.930 . S
H1574 C1532 0.930 . S
H1575 C1533 0.930 . S
H1576 C1535 0.929 . S
H1577 C1536 0.930 . S
H1578 C1537 0.930 . S
H1579 C1538 0.930 . S
H1580 C1542 0.929 . S
H1581 C1544 0.930 . S
H1582 C1550 0.929 . S
H1583 C1551 0.930 . S
Li1584 N1601 1.990 . S
Li1584 O1644 1.956 . S
Li1584 O1645 1.970 . S
Li1584 O1646 1.961 . S
Li1585 N1609 1.990 . S
Li1585 O1644 1.970 . S
Li1585 O1645 1.956 . S
Li1585 O1647 1.961 . S
Li1586 N1631 1.990 . S
Li1586 O1644 1.961 . S
Li1586 O1646 1.956 . S
Li1586 O1647 1.970 . S
Li1587 N1637 1.990 . S
Li1587 O1645 1.961 . S
Li1587 O1646 1.970 . S
Li1587 O1647 1.956 . S
C1588 C1590 1.348 . S
C1588 C1591 1.356 . S
C1588 O1644 1.325 . S
N1589 C1592 1.314 . S
N1589 C1593 1.279 . S
C1590 C1588 1.348 . S
C1590 C1592 1.353 . S
C1590 H1648 0.929 . S
C1591 C1588 1.356 . S
C1591 C1593 1.358 . S
C1591 H1649 0.930 . S
C1592 N1589 1.314 . S
C1592 C1590 1.353 . S
C1592 H1650 0.930 . S
C1593 N1589 1.279 . S
C1593 C1591 1.358 . S
C1593 H1651 0.930 . S
C1594 C1597 1.348 . S
C1594 C1598 1.356 . S
C1594 O1645 1.325 . S
C1595 N1596 1.279 . S
C1595 C1598 1.358 . S
C1595 H1652 0.930 . S
N1596 C1595 1.279 . S
N1596 C1599 1.314 . S
C1597 C1594 1.348 . S
C1597 C1599 1.353 . S
C1597 H1653 0.929 . S
C1598 C1594 1.356 . S
C1598 C1595 1.358 . S
C1598 H1654 0.930 . S
C1599 N1596 1.314 . S
C1599 C1597 1.353 . S
C1599 H1655 0.930 . S
C1600 N1601 1.314 . S
C1600 C1605 1.353 . S
C1600 H1606 0.930 . S
N1601 Li1584 1.990 . S
N1601 C1600 1.314 . S
N1601 C1603 1.279 . S
C1602 C1603 1.358 . S
C1602 C1604 1.356 . S
C1602 H1656 0.930 . S
C1603 N1601 1.279 . S
C1603 C1602 1.358 . S
C1603 H1607 0.930 . S
C1604 C1602 1.356 . S
C1604 C1605 1.348 . S
C1605 C1600 1.353 . S
C1605 C1604 1.348 . S
C1605 H1657 0.929 . S
H1606 C1600 0.930 . S
H1607 C1603 0.930 . S
C1608 N1609 1.314 . S
C1608 C1610 1.353 . S
C1608 H1614 0.930 . S
N1609 Li1585 1.990 . S
N1609 C1608 1.314 . S
N1609 C1612 1.279 . S
C1610 C1608 1.353 . S
C1610 C1613 1.348 . S
C1610 H1658 0.929 . S
C1611 C1612 1.358 . S
C1611 C1613 1.356 . S
C1611 H1659 0.930 . S
C1612 N1609 1.279 . S
C1612 C1611 1.358 . S
C1612 H1615 0.930 . S
C1613 C1610 1.348 . S
C1613 C1611 1.356 . S
H1614 C1608 0.930 . S
H1615 C1612 0.930 . S
C1616 C1618 1.348 . S
C1616 C1619 1.356 . S
C1616 O1646 1.325 . S
N1617 C1620 1.314 . S
N1617 C1621 1.279 . S
C1618 C1616 1.348 . S
C1618 C1620 1.353 . S
C1618 H1660 0.929 . S
C1619 C1616 1.356 . S
C1619 C1621 1.358 . S
C1619 H1661 0.930 . S
C1620 N1617 1.314 . S
C1620 C1618 1.353 . S
C1620 H1662 0.930 . S
C1621 N1617 1.279 . S
C1621 C1619 1.358 . S
C1621 H1663 0.930 . S
C1622 C1623 1.348 . S
C1622 C1624 1.356 . S
C1622 O1647 1.325 . S
C1623 C1622 1.348 . S
C1623 C1625 1.353 . S
C1623 H1664 0.929 . S
C1624 C1622 1.356 . S
C1624 C1626 1.358 . S
C1624 H1665 0.930 . S
C1625 C1623 1.353 . S
C1625 N1627 1.314 . S
C1625 H1666 0.930 . S
C1626 C1624 1.358 . S
C1626 N1627 1.279 . S
C1626 H1667 0.930 . S
N1627 C1625 1.314 . S
N1627 C1626 1.279 . S
C1628 C1630 1.353 . S
C1628 N1631 1.314 . S
C1628 H1634 0.930 . S
C1629 N1631 1.279 . S
C1629 C1632 1.358 . S
C1629 H1635 0.930 . S
C1630 C1628 1.353 . S
C1630 C1633 1.348 . S
C1630 H1668 0.929 . S
N1631 Li1586 1.990 . S
N1631 C1628 1.314 . S
N1631 C1629 1.279 . S
C1632 C1629 1.358 . S
C1632 C1633 1.356 . S
C1632 H1669 0.930 . S
C1633 C1630 1.348 . S
C1633 C1632 1.356 . S
H1634 C1628 0.930 . S
H1635 C1629 0.930 . S
C1636 N1637 1.314 . S
C1636 C1638 1.353 . S
C1636 H1642 0.930 . S
N1637 Li1587 1.990 . S
N1637 C1636 1.314 . S
N1637 C1640 1.279 . S
C1638 C1636 1.353 . S
C1638 C1641 1.348 . S
C1638 H1670 0.929 . S
C1639 C1640 1.358 . S
C1639 C1641 1.356 . S
C1639 H1671 0.930 . S
C1640 N1637 1.279 . S
C1640 C1639 1.358 . S
C1640 H1643 0.930 . S
C1641 C1638 1.348 . S
C1641 C1639 1.356 . S
H1642 C1636 0.930 . S
H1643 C1640 0.930 . S
O1644 Li1584 1.956 . S
O1644 Li1585 1.970 . S
O1644 Li1586 1.961 . S
O1644 C1588 1.325 . S
O1645 Li1584 1.970 . S
O1645 Li1585 1.956 . S
O1645 Li1587 1.961 . S
O1645 C1594 1.325 . S
O1646 Li1584 1.961 . S
O1646 Li1586 1.956 . S
O1646 Li1587 1.970 . S
O1646 C1616 1.325 . S
O1647 Li1585 1.961 . S
O1647 Li1586 1.970 . S
O1647 Li1587 1.956 . S
O1647 C1622 1.325 . S
H1648 C1590 0.929 . S
H1649 C1591 0.930 . S
H1650 C1592 0.930 . S
H1651 C1593 0.930 . S
H1652 C1595 0.930 . S
H1653 C1597 0.929 . S
H1654 C1598 0.930 . S
H1655 C1599 0.930 . S
H1656 C1602 0.930 . S
H1657 C1605 0.929 . S
H1658 C1610 0.929 . S
H1659 C1611 0.930 . S
H1660 C1618 0.929 . S
H1661 C1619 0.930 . S
H1662 C1620 0.930 . S
H1663 C1621 0.930 . S
H1664 C1623 0.929 . S
H1665 C1624 0.930 . S
H1666 C1625 0.930 . S
H1667 C1626 0.930 . S
H1668 C1630 0.929 . S
H1669 C1632 0.930 . S
H1670 C1638 0.929 . S
H1671 C1639 0.930 . S
Li1672 N1689 1.990 . S
Li1672 O1732 1.956 . S
Li1672 O1733 1.970 . S
Li1672 O1734 1.961 . S
Li1673 N1697 1.990 . S
Li1673 O1732 1.970 . S
Li1673 O1733 1.956 . S
Li1673 O1735 1.961 . S
Li1674 N1719 1.990 . S
Li1674 O1732 1.961 . S
Li1674 O1734 1.956 . S
Li1674 O1735 1.970 . S
Li1675 N1725 1.990 . S
Li1675 O1733 1.961 . S
Li1675 O1734 1.970 . S
Li1675 O1735 1.956 . S
C1676 C1678 1.348 . S
C1676 C1679 1.356 . S
C1676 O1732 1.325 . S
N1677 C1680 1.314 . S
N1677 C1681 1.279 . S
C1678 C1676 1.348 . S
C1678 C1680 1.353 . S
C1678 H1736 0.929 . S
C1679 C1676 1.356 . S
C1679 C1681 1.358 . S
C1679 H1737 0.930 . S
C1680 N1677 1.314 . S
C1680 C1678 1.353 . S
C1680 H1738 0.930 . S
C1681 N1677 1.279 . S
C1681 C1679 1.358 . S
C1681 H1739 0.930 . S
C1682 C1685 1.348 . S
C1682 C1686 1.356 . S
C1682 O1733 1.325 . S
C1683 N1684 1.279 . S
C1683 C1686 1.358 . S
C1683 H1740 0.930 . S
N1684 C1683 1.279 . S
N1684 C1687 1.314 . S
C1685 C1682 1.348 . S
C1685 C1687 1.353 . S
C1685 H1741 0.929 . S
C1686 C1682 1.356 . S
C1686 C1683 1.358 . S
C1686 H1742 0.930 . S
C1687 N1684 1.314 . S
C1687 C1685 1.353 . S
C1687 H1743 0.930 . S
C1688 N1689 1.314 . S
C1688 C1693 1.353 . S
C1688 H1694 0.930 . S
N1689 Li1672 1.990 . S
N1689 C1688 1.314 . S
N1689 C1691 1.279 . S
C1690 C1691 1.358 . S
C1690 C1692 1.356 . S
C1690 H1744 0.930 . S
C1691 N1689 1.279 . S
C1691 C1690 1.358 . S
C1691 H1695 0.930 . S
C1692 C1690 1.356 . S
C1692 C1693 1.348 . S
C1693 C1688 1.353 . S
C1693 C1692 1.348 . S
C1693 H1745 0.929 . S
H1694 C1688 0.930 . S
H1695 C1691 0.930 . S
C1696 N1697 1.314 . S
C1696 C1698 1.353 . S
C1696 H1702 0.930 . S
N1697 Li1673 1.990 . S
N1697 C1696 1.314 . S
N1697 C1700 1.279 . S
C1698 C1696 1.353 . S
C1698 C1701 1.348 . S
C1698 H1746 0.929 . S
C1699 C1700 1.358 . S
C1699 C1701 1.356 . S
C1699 H1747 0.930 . S
C1700 N1697 1.279 . S
C1700 C1699 1.358 . S
C1700 H1703 0.930 . S
C1701 C1698 1.348 . S
C1701 C1699 1.356 . S
H1702 C1696 0.930 . S
H1703 C1700 0.930 . S
C1704 C1706 1.348 . S
C1704 C1707 1.356 . S
C1704 O1734 1.325 . S
N1705 C1708 1.314 . S
N1705 C1709 1.279 . S
C1706 C1704 1.348 . S
C1706 C1708 1.353 . S
C1706 H1748 0.929 . S
C1707 C1704 1.356 . S
C1707 C1709 1.358 . S
C1707 H1749 0.930 . S
C1708 N1705 1.314 . S
C1708 C1706 1.353 . S
C1708 H1750 0.930 . S
C1709 N1705 1.279 . S
C1709 C1707 1.358 . S
C1709 H1751 0.930 . S
C1710 C1711 1.348 . S
C1710 C1712 1.356 . S
C1710 O1735 1.325 . S
C1711 C1710 1.348 . S
C1711 C1713 1.353 . S
C1711 H1752 0.929 . S
C1712 C1710 1.356 . S
C1712 C1714 1.358 . S
C1712 H1753 0.930 . S
C1713 C1711 1.353 . S
C1713 N1715 1.314 . S
C1713 H1754 0.930 . S
C1714 C1712 1.358 . S
C1714 N1715 1.279 . S
C1714 H1755 0.930 . S
N1715 C1713 1.314 . S
N1715 C1714 1.279 . S
C1716 C1718 1.353 . S
C1716 N1719 1.314 . S
C1716 H1722 0.930 . S
C1717 N1719 1.279 . S
C1717 C1720 1.358 . S
C1717 H1723 0.930 . S
C1718 C1716 1.353 . S
C1718 C1721 1.348 . S
C1718 H1756 0.929 . S
N1719 Li1674 1.990 . S
N1719 C1716 1.314 . S
N1719 C1717 1.279 . S
C1720 C1717 1.358 . S
C1720 C1721 1.356 . S
C1720 H1757 0.930 . S
C1721 C1718 1.348 . S
C1721 C1720 1.356 . S
H1722 C1716 0.930 . S
H1723 C1717 0.930 . S
C1724 N1725 1.314 . S
C1724 C1726 1.353 . S
C1724 H1730 0.930 . S
N1725 Li1675 1.990 . S
N1725 C1724 1.314 . S
N1725 C1728 1.279 . S
C1726 C1724 1.353 . S
C1726 C1729 1.348 . S
C1726 H1758 0.929 . S
C1727 C1728 1.358 . S
C1727 C1729 1.356 . S
C1727 H1759 0.930 . S
C1728 N1725 1.279 . S
C1728 C1727 1.358 . S
C1728 H1731 0.930 . S
C1729 C1726 1.348 . S
C1729 C1727 1.356 . S
H1730 C1724 0.930 . S
H1731 C1728 0.930 . S
O1732 Li1672 1.956 . S
O1732 Li1673 1.970 . S
O1732 Li1674 1.961 . S
O1732 C1676 1.325 . S
O1733 Li1672 1.970 . S
O1733 Li1673 1.956 . S
O1733 Li1675 1.961 . S
O1733 C1682 1.325 . S
O1734 Li1672 1.961 . S
O1734 Li1674 1.956 . S
O1734 Li1675 1.970 . S
O1734 C1704 1.325 . S
O1735 Li1673 1.961 . S
O1735 Li1674 1.970 . S
O1735 Li1675 1.956 . S
O1735 C1710 1.325 . S
H1736 C1678 0.929 . S
H1737 C1679 0.930 . S
H1738 C1680 0.930 . S
H1739 C1681 0.930 . S
H1740 C1683 0.930 . S
H1741 C1685 0.929 . S
H1742 C1686 0.930 . S
H1743 C1687 0.930 . S
H1744 C1690 0.930 . S
H1745 C1693 0.929 . S
H1746 C1698 0.929 . S
H1747 C1699 0.930 . S
H1748 C1706 0.929 . S
H1749 C1707 0.930 . S
H1750 C1708 0.930 . S
H1751 C1709 0.930 . S
H1752 C1711 0.929 . S
H1753 C1712 0.930 . S
H1754 C1713 0.930 . S
H1755 C1714 0.930 . S
H1756 C1718 0.929 . S
H1757 C1720 0.930 . S
H1758 C1726 0.929 . S
H1759 C1727 0.930 . S
Li1760 N1777 1.990 . S
Li1760 O1820 1.956 . S
Li1760 O1821 1.970 . S
Li1760 O1822 1.961 . S
Li1761 N1785 1.990 . S
Li1761 O1820 1.970 . S
Li1761 O1821 1.956 . S
Li1761 O1823 1.961 . S
Li1762 N1807 1.990 . S
Li1762 O1820 1.961 . S
Li1762 O1822 1.956 . S
Li1762 O1823 1.970 . S
Li1763 N1813 1.990 . S
Li1763 O1821 1.961 . S
Li1763 O1822 1.970 . S
Li1763 O1823 1.956 . S
C1764 C1766 1.348 . S
C1764 C1767 1.356 . S
C1764 O1820 1.325 . S
N1765 C1768 1.314 . S
N1765 C1769 1.279 . S
C1766 C1764 1.348 . S
C1766 C1768 1.353 . S
C1766 H1824 0.929 . S
C1767 C1764 1.356 . S
C1767 C1769 1.358 . S
C1767 H1825 0.930 . S
C1768 N1765 1.314 . S
C1768 C1766 1.353 . S
C1768 H1826 0.930 . S
C1769 N1765 1.279 . S
C1769 C1767 1.358 . S
C1769 H1827 0.930 . S
C1770 C1773 1.348 . S
C1770 C1774 1.356 . S
C1770 O1821 1.325 . S
C1771 N1772 1.279 . S
C1771 C1774 1.358 . S
C1771 H1828 0.930 . S
N1772 C1771 1.279 . S
N1772 C1775 1.314 . S
C1773 C1770 1.348 . S
C1773 C1775 1.353 . S
C1773 H1829 0.929 . S
C1774 C1770 1.356 . S
C1774 C1771 1.358 . S
C1774 H1830 0.930 . S
C1775 N1772 1.314 . S
C1775 C1773 1.353 . S
C1775 H1831 0.930 . S
C1776 N1777 1.314 . S
C1776 C1781 1.353 . S
C1776 H1782 0.930 . S
N1777 Li1760 1.990 . S
N1777 C1776 1.314 . S
N1777 C1779 1.279 . S
C1778 C1779 1.358 . S
C1778 C1780 1.356 . S
C1778 H1832 0.930 . S
C1779 N1777 1.279 . S
C1779 C1778 1.358 . S
C1779 H1783 0.930 . S
C1780 C1778 1.356 . S
C1780 C1781 1.348 . S
C1781 C1776 1.353 . S
C1781 C1780 1.348 . S
C1781 H1833 0.929 . S
H1782 C1776 0.930 . S
H1783 C1779 0.930 . S
C1784 N1785 1.314 . S
C1784 C1786 1.353 . S
C1784 H1790 0.930 . S
N1785 Li1761 1.990 . S
N1785 C1784 1.314 . S
N1785 C1788 1.279 . S
C1786 C1784 1.353 . S
C1786 C1789 1.348 . S
C1786 H1834 0.929 . S
C1787 C1788 1.358 . S
C1787 C1789 1.356 . S
C1787 H1835 0.930 . S
C1788 N1785 1.279 . S
C1788 C1787 1.358 . S
C1788 H1791 0.930 . S
C1789 C1786 1.348 . S
C1789 C1787 1.356 . S
H1790 C1784 0.930 . S
H1791 C1788 0.930 . S
C1792 C1794 1.348 . S
C1792 C1795 1.356 . S
C1792 O1822 1.325 . S
N1793 C1796 1.314 . S
N1793 C1797 1.279 . S
C1794 C1792 1.348 . S
C1794 C1796 1.353 . S
C1794 H1836 0.929 . S
C1795 C1792 1.356 . S
C1795 C1797 1.358 . S
C1795 H1837 0.930 . S
C1796 N1793 1.314 . S
C1796 C1794 1.353 . S
C1796 H1838 0.930 . S
C1797 N1793 1.279 . S
C1797 C1795 1.358 . S
C1797 H1839 0.930 . S
C1798 C1799 1.348 . S
C1798 C1800 1.356 . S
C1798 O1823 1.325 . S
C1799 C1798 1.348 . S
C1799 C1801 1.353 . S
C1799 H1840 0.929 . S
C1800 C1798 1.356 . S
C1800 C1802 1.358 . S
C1800 H1841 0.930 . S
C1801 C1799 1.353 . S
C1801 N1803 1.314 . S
C1801 H1842 0.930 . S
C1802 C1800 1.358 . S
C1802 N1803 1.279 . S
C1802 H1843 0.930 . S
N1803 C1801 1.314 . S
N1803 C1802 1.279 . S
C1804 C1806 1.353 . S
C1804 N1807 1.314 . S
C1804 H1810 0.930 . S
C1805 N1807 1.279 . S
C1805 C1808 1.358 . S
C1805 H1811 0.930 . S
C1806 C1804 1.353 . S
C1806 C1809 1.348 . S
C1806 H1844 0.929 . S
N1807 Li1762 1.990 . S
N1807 C1804 1.314 . S
N1807 C1805 1.279 . S
C1808 C1805 1.358 . S
C1808 C1809 1.356 . S
C1808 H1845 0.930 . S
C1809 C1806 1.348 . S
C1809 C1808 1.356 . S
H1810 C1804 0.930 . S
H1811 C1805 0.930 . S
C1812 N1813 1.314 . S
C1812 C1814 1.353 . S
C1812 H1818 0.930 . S
N1813 Li1763 1.990 . S
N1813 C1812 1.314 . S
N1813 C1816 1.279 . S
C1814 C1812 1.353 . S
C1814 C1817 1.348 . S
C1814 H1846 0.929 . S
C1815 C1816 1.358 . S
C1815 C1817 1.356 . S
C1815 H1847 0.930 . S
C1816 N1813 1.279 . S
C1816 C1815 1.358 . S
C1816 H1819 0.930 . S
C1817 C1814 1.348 . S
C1817 C1815 1.356 . S
H1818 C1812 0.930 . S
H1819 C1816 0.930 . S
O1820 Li1760 1.956 . S
O1820 Li1761 1.970 . S
O1820 Li1762 1.961 . S
O1820 C1764 1.325 . S
O1821 Li1760 1.970 . S
O1821 Li1761 1.956 . S
O1821 Li1763 1.961 . S
O1821 C1770 1.325 . S
O1822 Li1760 1.961 . S
O1822 Li1762 1.956 . S
O1822 Li1763 1.970 . S
O1822 C1792 1.325 . S
O1823 Li1761 1.961 . S
O1823 Li1762 1.970 . S
O1823 Li1763 1.956 . S
O1823 C1798 1.325 . S
H1824 C1766 0.929 . S
H1825 C1767 0.930 . S
H1826 C1768 0.930 . S
H1827 C1769 0.930 . S
H1828 C1771 0.930 . S
H1829 C1773 0.929 . S
H1830 C1774 0.930 . S
H1831 C1775 0.930 . S
H1832 C1778 0.930 . S
H1833 C1781 0.929 . S
H1834 C1786 0.929 . S
H1835 C1787 0.930 . S
H1836 C1794 0.929 . S
H1837 C1795 0.930 . S
H1838 C1796 0.930 . S
H1839 C1797 0.930 . S
H1840 C1799 0.929 . S
H1841 C1800 0.930 . S
H1842 C1801 0.930 . S
H1843 C1802 0.930 . S
H1844 C1806 0.929 . S
H1845 C1808 0.930 . S
H1846 C1814 0.929 . S
H1847 C1815 0.930 . S
Li1848 N1865 1.990 . S
Li1848 O1908 1.956 . S
Li1848 O1909 1.970 . S
Li1848 O1910 1.961 . S
Li1849 N1873 1.990 . S
Li1849 O1908 1.970 . S
Li1849 O1909 1.956 . S
Li1849 O1911 1.961 . S
Li1850 N1895 1.990 . S
Li1850 O1908 1.961 . S
Li1850 O1910 1.956 . S
Li1850 O1911 1.970 . S
Li1851 N1901 1.990 . S
Li1851 O1909 1.961 . S
Li1851 O1910 1.970 . S
Li1851 O1911 1.956 . S
C1852 C1854 1.348 . S
C1852 C1855 1.356 . S
C1852 O1908 1.325 . S
N1853 C1856 1.314 . S
N1853 C1857 1.279 . S
C1854 C1852 1.348 . S
C1854 C1856 1.353 . S
C1854 H1912 0.929 . S
C1855 C1852 1.356 . S
C1855 C1857 1.358 . S
C1855 H1913 0.930 . S
C1856 N1853 1.314 . S
C1856 C1854 1.353 . S
C1856 H1914 0.930 . S
C1857 N1853 1.279 . S
C1857 C1855 1.358 . S
C1857 H1915 0.930 . S
C1858 C1861 1.348 . S
C1858 C1862 1.356 . S
C1858 O1909 1.325 . S
C1859 N1860 1.279 . S
C1859 C1862 1.358 . S
C1859 H1916 0.930 . S
N1860 C1859 1.279 . S
N1860 C1863 1.314 . S
C1861 C1858 1.348 . S
C1861 C1863 1.353 . S
C1861 H1917 0.929 . S
C1862 C1858 1.356 . S
C1862 C1859 1.358 . S
C1862 H1918 0.930 . S
C1863 N1860 1.314 . S
C1863 C1861 1.353 . S
C1863 H1919 0.930 . S
C1864 N1865 1.314 . S
C1864 C1869 1.353 . S
C1864 H1870 0.930 . S
N1865 Li1848 1.990 . S
N1865 C1864 1.314 . S
N1865 C1867 1.279 . S
C1866 C1867 1.358 . S
C1866 C1868 1.356 . S
C1866 H1920 0.930 . S
C1867 N1865 1.279 . S
C1867 C1866 1.358 . S
C1867 H1871 0.930 . S
C1868 C1866 1.356 . S
C1868 C1869 1.348 . S
C1869 C1864 1.353 . S
C1869 C1868 1.348 . S
C1869 H1921 0.929 . S
H1870 C1864 0.930 . S
H1871 C1867 0.930 . S
C1872 N1873 1.314 . S
C1872 C1874 1.353 . S
C1872 H1878 0.930 . S
N1873 Li1849 1.990 . S
N1873 C1872 1.314 . S
N1873 C1876 1.279 . S
C1874 C1872 1.353 . S
C1874 C1877 1.348 . S
C1874 H1922 0.929 . S
C1875 C1876 1.358 . S
C1875 C1877 1.356 . S
C1875 H1923 0.930 . S
C1876 N1873 1.279 . S
C1876 C1875 1.358 . S
C1876 H1879 0.930 . S
C1877 C1874 1.348 . S
C1877 C1875 1.356 . S
H1878 C1872 0.930 . S
H1879 C1876 0.930 . S
C1880 C1882 1.348 . S
C1880 C1883 1.356 . S
C1880 O1910 1.325 . S
N1881 C1884 1.314 . S
N1881 C1885 1.279 . S
C1882 C1880 1.348 . S
C1882 C1884 1.353 . S
C1882 H1924 0.929 . S
C1883 C1880 1.356 . S
C1883 C1885 1.358 . S
C1883 H1925 0.930 . S
C1884 N1881 1.314 . S
C1884 C1882 1.353 . S
C1884 H1926 0.930 . S
C1885 N1881 1.279 . S
C1885 C1883 1.358 . S
C1885 H1927 0.930 . S
C1886 C1887 1.348 . S
C1886 C1888 1.356 . S
C1886 O1911 1.325 . S
C1887 C1886 1.348 . S
C1887 C1889 1.353 . S
C1887 H1928 0.929 . S
C1888 C1886 1.356 . S
C1888 C1890 1.358 . S
C1888 H1929 0.930 . S
C1889 C1887 1.353 . S
C1889 N1891 1.314 . S
C1889 H1930 0.930 . S
C1890 C1888 1.358 . S
C1890 N1891 1.279 . S
C1890 H1931 0.930 . S
N1891 C1889 1.314 . S
N1891 C1890 1.279 . S
C1892 C1894 1.353 . S
C1892 N1895 1.314 . S
C1892 H1898 0.930 . S
C1893 N1895 1.279 . S
C1893 C1896 1.358 . S
C1893 H1899 0.930 . S
C1894 C1892 1.353 . S
C1894 C1897 1.348 . S
C1894 H1932 0.929 . S
N1895 Li1850 1.990 . S
N1895 C1892 1.314 . S
N1895 C1893 1.279 . S
C1896 C1893 1.358 . S
C1896 C1897 1.356 . S
C1896 H1933 0.930 . S
C1897 C1894 1.348 . S
C1897 C1896 1.356 . S
H1898 C1892 0.930 . S
H1899 C1893 0.930 . S
C1900 N1901 1.314 . S
C1900 C1902 1.353 . S
C1900 H1906 0.930 . S
N1901 Li1851 1.990 . S
N1901 C1900 1.314 . S
N1901 C1904 1.279 . S
C1902 C1900 1.353 . S
C1902 C1905 1.348 . S
C1902 H1934 0.929 . S
C1903 C1904 1.358 . S
C1903 C1905 1.356 . S
C1903 H1935 0.930 . S
C1904 N1901 1.279 . S
C1904 C1903 1.358 . S
C1904 H1907 0.930 . S
C1905 C1902 1.348 . S
C1905 C1903 1.356 . S
H1906 C1900 0.930 . S
H1907 C1904 0.930 . S
O1908 Li1848 1.956 . S
O1908 Li1849 1.970 . S
O1908 Li1850 1.961 . S
O1908 C1852 1.325 . S
O1909 Li1848 1.970 . S
O1909 Li1849 1.956 . S
O1909 Li1851 1.961 . S
O1909 C1858 1.325 . S
O1910 Li1848 1.961 . S
O1910 Li1850 1.956 . S
O1910 Li1851 1.970 . S
O1910 C1880 1.325 . S
O1911 Li1849 1.961 . S
O1911 Li1850 1.970 . S
O1911 Li1851 1.956 . S
O1911 C1886 1.325 . S
H1912 C1854 0.929 . S
H1913 C1855 0.930 . S
H1914 C1856 0.930 . S
H1915 C1857 0.930 . S
H1916 C1859 0.930 . S
H1917 C1861 0.929 . S
H1918 C1862 0.930 . S
H1919 C1863 0.930 . S
H1920 C1866 0.930 . S
H1921 C1869 0.929 . S
H1922 C1874 0.929 . S
H1923 C1875 0.930 . S
H1924 C1882 0.929 . S
H1925 C1883 0.930 . S
H1926 C1884 0.930 . S
H1927 C1885 0.930 . S
H1928 C1887 0.929 . S
H1929 C1888 0.930 . S
H1930 C1889 0.930 . S
H1931 C1890 0.930 . S
H1932 C1894 0.929 . S
H1933 C1896 0.930 . S
H1934 C1902 0.929 . S
H1935 C1903 0.930 . S
Li1936 N1953 1.990 . S
Li1936 O1996 1.956 . S
Li1936 O1997 1.970 . S
Li1936 O1998 1.961 . S
Li1937 N1961 1.990 . S
Li1937 O1996 1.970 . S
Li1937 O1997 1.956 . S
Li1937 O1999 1.961 . S
Li1938 N1983 1.990 . S
Li1938 O1996 1.961 . S
Li1938 O1998 1.956 . S
Li1938 O1999 1.970 . S
Li1939 N1989 1.990 . S
Li1939 O1997 1.961 . S
Li1939 O1998 1.970 . S
Li1939 O1999 1.956 . S
C1940 C1942 1.348 . S
C1940 C1943 1.356 . S
C1940 O1996 1.325 . S
N1941 C1944 1.314 . S
N1941 C1945 1.279 . S
C1942 C1940 1.348 . S
C1942 C1944 1.353 . S
C1942 H2000 0.929 . S
C1943 C1940 1.356 . S
C1943 C1945 1.358 . S
C1943 H2001 0.930 . S
C1944 N1941 1.314 . S
C1944 C1942 1.353 . S
C1944 H2002 0.930 . S
C1945 N1941 1.279 . S
C1945 C1943 1.358 . S
C1945 H2003 0.930 . S
C1946 C1949 1.348 . S
C1946 C1950 1.356 . S
C1946 O1997 1.325 . S
C1947 N1948 1.279 . S
C1947 C1950 1.358 . S
C1947 H2004 0.930 . S
N1948 C1947 1.279 . S
N1948 C1951 1.314 . S
C1949 C1946 1.348 . S
C1949 C1951 1.353 . S
C1949 H2005 0.929 . S
C1950 C1946 1.356 . S
C1950 C1947 1.358 . S
C1950 H2006 0.930 . S
C1951 N1948 1.314 . S
C1951 C1949 1.353 . S
C1951 H2007 0.930 . S
C1952 N1953 1.314 . S
C1952 C1957 1.353 . S
C1952 H1958 0.930 . S
N1953 Li1936 1.990 . S
N1953 C1952 1.314 . S
N1953 C1955 1.279 . S
C1954 C1955 1.358 . S
C1954 C1956 1.356 . S
C1954 H2008 0.930 . S
C1955 N1953 1.279 . S
C1955 C1954 1.358 . S
C1955 H1959 0.930 . S
C1956 C1954 1.356 . S
C1956 C1957 1.348 . S
C1957 C1952 1.353 . S
C1957 C1956 1.348 . S
C1957 H2009 0.929 . S
H1958 C1952 0.930 . S
H1959 C1955 0.930 . S
C1960 N1961 1.314 . S
C1960 C1962 1.353 . S
C1960 H1966 0.930 . S
N1961 Li1937 1.990 . S
N1961 C1960 1.314 . S
N1961 C1964 1.279 . S
C1962 C1960 1.353 . S
C1962 C1965 1.348 . S
C1962 H2010 0.929 . S
C1963 C1964 1.358 . S
C1963 C1965 1.356 . S
C1963 H2011 0.930 . S
C1964 N1961 1.279 . S
C1964 C1963 1.358 . S
C1964 H1967 0.930 . S
C1965 C1962 1.348 . S
C1965 C1963 1.356 . S
H1966 C1960 0.930 . S
H1967 C1964 0.930 . S
C1968 C1970 1.348 . S
C1968 C1971 1.356 . S
C1968 O1998 1.325 . S
N1969 C1972 1.314 . S
N1969 C1973 1.279 . S
C1970 C1968 1.348 . S
C1970 C1972 1.353 . S
C1970 H2012 0.929 . S
C1971 C1968 1.356 . S
C1971 C1973 1.358 . S
C1971 H2013 0.930 . S
C1972 N1969 1.314 . S
C1972 C1970 1.353 . S
C1972 H2014 0.930 . S
C1973 N1969 1.279 . S
C1973 C1971 1.358 . S
C1973 H2015 0.930 . S
C1974 C1975 1.348 . S
C1974 C1976 1.356 . S
C1974 O1999 1.325 . S
C1975 C1974 1.348 . S
C1975 C1977 1.353 . S
C1975 H2016 0.929 . S
C1976 C1974 1.356 . S
C1976 C1978 1.358 . S
C1976 H2017 0.930 . S
C1977 C1975 1.353 . S
C1977 N1979 1.314 . S
C1977 H2018 0.930 . S
C1978 C1976 1.358 . S
C1978 N1979 1.279 . S
C1978 H2019 0.930 . S
N1979 C1977 1.314 . S
N1979 C1978 1.279 . S
C1980 C1982 1.353 . S
C1980 N1983 1.314 . S
C1980 H1986 0.930 . S
C1981 N1983 1.279 . S
C1981 C1984 1.358 . S
C1981 H1987 0.930 . S
C1982 C1980 1.353 . S
C1982 C1985 1.348 . S
C1982 H2020 0.929 . S
N1983 Li1938 1.990 . S
N1983 C1980 1.314 . S
N1983 C1981 1.279 . S
C1984 C1981 1.358 . S
C1984 C1985 1.356 . S
C1984 H2021 0.930 . S
C1985 C1982 1.348 . S
C1985 C1984 1.356 . S
H1986 C1980 0.930 . S
H1987 C1981 0.930 . S
C1988 N1989 1.314 . S
C1988 C1990 1.353 . S
C1988 H1994 0.930 . S
N1989 Li1939 1.990 . S
N1989 C1988 1.314 . S
N1989 C1992 1.279 . S
C1990 C1988 1.353 . S
C1990 C1993 1.348 . S
C1990 H2022 0.929 . S
C1991 C1992 1.358 . S
C1991 C1993 1.356 . S
C1991 H2023 0.930 . S
C1992 N1989 1.279 . S
C1992 C1991 1.358 . S
C1992 H1995 0.930 . S
C1993 C1990 1.348 . S
C1993 C1991 1.356 . S
H1994 C1988 0.930 . S
H1995 C1992 0.930 . S
O1996 Li1936 1.956 . S
O1996 Li1937 1.970 . S
O1996 Li1938 1.961 . S
O1996 C1940 1.325 . S
O1997 Li1936 1.970 . S
O1997 Li1937 1.956 . S
O1997 Li1939 1.961 . S
O1997 C1946 1.325 . S
O1998 Li1936 1.961 . S
O1998 Li1938 1.956 . S
O1998 Li1939 1.970 . S
O1998 C1968 1.325 . S
O1999 Li1937 1.961 . S
O1999 Li1938 1.970 . S
O1999 Li1939 1.956 . S
O1999 C1974 1.325 . S
H2000 C1942 0.929 . S
H2001 C1943 0.930 . S
H2002 C1944 0.930 . S
H2003 C1945 0.930 . S
H2004 C1947 0.930 . S
H2005 C1949 0.929 . S
H2006 C1950 0.930 . S
H2007 C1951 0.930 . S
H2008 C1954 0.930 . S
H2009 C1957 0.929 . S
H2010 C1962 0.929 . S
H2011 C1963 0.930 . S
H2012 C1970 0.929 . S
H2013 C1971 0.930 . S
H2014 C1972 0.930 . S
H2015 C1973 0.930 . S
H2016 C1975 0.929 . S
H2017 C1976 0.930 . S
H2018 C1977 0.930 . S
H2019 C1978 0.930 . S
H2020 C1982 0.929 . S
H2021 C1984 0.930 . S
H2022 C1990 0.929 . S
H2023 C1991 0.930 . S
Li2024 N2041 1.990 . S
Li2024 O2084 1.956 . S
Li2024 O2085 1.970 . S
Li2024 O2086 1.961 . S
Li2025 N2049 1.990 . S
Li2025 O2084 1.970 . S
Li2025 O2085 1.956 . S
Li2025 O2087 1.961 . S
Li2026 N2071 1.990 . S
Li2026 O2084 1.961 . S
Li2026 O2086 1.956 . S
Li2026 O2087 1.970 . S
Li2027 N2077 1.990 . S
Li2027 O2085 1.961 . S
Li2027 O2086 1.970 . S
Li2027 O2087 1.956 . S
C2028 C2030 1.348 . S
C2028 C2031 1.356 . S
C2028 O2084 1.325 . S
N2029 C2032 1.314 . S
N2029 C2033 1.279 . S
C2030 C2028 1.348 . S
C2030 C2032 1.353 . S
C2030 H2088 0.929 . S
C2031 C2028 1.356 . S
C2031 C2033 1.358 . S
C2031 H2089 0.930 . S
C2032 N2029 1.314 . S
C2032 C2030 1.353 . S
C2032 H2090 0.930 . S
C2033 N2029 1.279 . S
C2033 C2031 1.358 . S
C2033 H2091 0.930 . S
C2034 C2037 1.348 . S
C2034 C2038 1.356 . S
C2034 O2085 1.325 . S
C2035 N2036 1.279 . S
C2035 C2038 1.358 . S
C2035 H2092 0.930 . S
N2036 C2035 1.279 . S
N2036 C2039 1.314 . S
C2037 C2034 1.348 . S
C2037 C2039 1.353 . S
C2037 H2093 0.929 . S
C2038 C2034 1.356 . S
C2038 C2035 1.358 . S
C2038 H2094 0.930 . S
C2039 N2036 1.314 . S
C2039 C2037 1.353 . S
C2039 H2095 0.930 . S
C2040 N2041 1.314 . S
C2040 C2045 1.353 . S
C2040 H2046 0.930 . S
N2041 Li2024 1.990 . S
N2041 C2040 1.314 . S
N2041 C2043 1.279 . S
C2042 C2043 1.358 . S
C2042 C2044 1.356 . S
C2042 H2096 0.930 . S
C2043 N2041 1.279 . S
C2043 C2042 1.358 . S
C2043 H2047 0.930 . S
C2044 C2042 1.356 . S
C2044 C2045 1.348 . S
C2045 C2040 1.353 . S
C2045 C2044 1.348 . S
C2045 H2097 0.929 . S
H2046 C2040 0.930 . S
H2047 C2043 0.930 . S
C2048 N2049 1.314 . S
C2048 C2050 1.353 . S
C2048 H2054 0.930 . S
N2049 Li2025 1.990 . S
N2049 C2048 1.314 . S
N2049 C2052 1.279 . S
C2050 C2048 1.353 . S
C2050 C2053 1.348 . S
C2050 H2098 0.929 . S
C2051 C2052 1.358 . S
C2051 C2053 1.356 . S
C2051 H2099 0.930 . S
C2052 N2049 1.279 . S
C2052 C2051 1.358 . S
C2052 H2055 0.930 . S
C2053 C2050 1.348 . S
C2053 C2051 1.356 . S
H2054 C2048 0.930 . S
H2055 C2052 0.930 . S
C2056 C2058 1.348 . S
C2056 C2059 1.356 . S
C2056 O2086 1.325 . S
N2057 C2060 1.314 . S
N2057 C2061 1.279 . S
C2058 C2056 1.348 . S
C2058 C2060 1.353 . S
C2058 H2100 0.929 . S
C2059 C2056 1.356 . S
C2059 C2061 1.358 . S
C2059 H2101 0.930 . S
C2060 N2057 1.314 . S
C2060 C2058 1.353 . S
C2060 H2102 0.930 . S
C2061 N2057 1.279 . S
C2061 C2059 1.358 . S
C2061 H2103 0.930 . S
C2062 C2063 1.348 . S
C2062 C2064 1.356 . S
C2062 O2087 1.325 . S
C2063 C2062 1.348 . S
C2063 C2065 1.353 . S
C2063 H2104 0.929 . S
C2064 C2062 1.356 . S
C2064 C2066 1.358 . S
C2064 H2105 0.930 . S
C2065 C2063 1.353 . S
C2065 N2067 1.314 . S
C2065 H2106 0.930 . S
C2066 C2064 1.358 . S
C2066 N2067 1.279 . S
C2066 H2107 0.930 . S
N2067 C2065 1.314 . S
N2067 C2066 1.279 . S
C2068 C2070 1.353 . S
C2068 N2071 1.314 . S
C2068 H2074 0.930 . S
C2069 N2071 1.279 . S
C2069 C2072 1.358 . S
C2069 H2075 0.930 . S
C2070 C2068 1.353 . S
C2070 C2073 1.348 . S
C2070 H2108 0.929 . S
N2071 Li2026 1.990 . S
N2071 C2068 1.314 . S
N2071 C2069 1.279 . S
C2072 C2069 1.358 . S
C2072 C2073 1.356 . S
C2072 H2109 0.930 . S
C2073 C2070 1.348 . S
C2073 C2072 1.356 . S
H2074 C2068 0.930 . S
H2075 C2069 0.930 . S
C2076 N2077 1.314 . S
C2076 C2078 1.353 . S
C2076 H2082 0.930 . S
N2077 Li2027 1.990 . S
N2077 C2076 1.314 . S
N2077 C2080 1.279 . S
C2078 C2076 1.353 . S
C2078 C2081 1.348 . S
C2078 H2110 0.929 . S
C2079 C2080 1.358 . S
C2079 C2081 1.356 . S
C2079 H2111 0.930 . S
C2080 N2077 1.279 . S
C2080 C2079 1.358 . S
C2080 H2083 0.930 . S
C2081 C2078 1.348 . S
C2081 C2079 1.356 . S
H2082 C2076 0.930 . S
H2083 C2080 0.930 . S
O2084 Li2024 1.956 . S
O2084 Li2025 1.970 . S
O2084 Li2026 1.961 . S
O2084 C2028 1.325 . S
O2085 Li2024 1.970 . S
O2085 Li2025 1.956 . S
O2085 Li2027 1.961 . S
O2085 C2034 1.325 . S
O2086 Li2024 1.961 . S
O2086 Li2026 1.956 . S
O2086 Li2027 1.970 . S
O2086 C2056 1.325 . S
O2087 Li2025 1.961 . S
O2087 Li2026 1.970 . S
O2087 Li2027 1.956 . S
O2087 C2062 1.325 . S
H2088 C2030 0.929 . S
H2089 C2031 0.930 . S
H2090 C2032 0.930 . S
H2091 C2033 0.930 . S
H2092 C2035 0.930 . S
H2093 C2037 0.929 . S
H2094 C2038 0.930 . S
H2095 C2039 0.930 . S
H2096 C2042 0.930 . S
H2097 C2045 0.929 . S
H2098 C2050 0.929 . S
H2099 C2051 0.930 . S
H2100 C2058 0.929 . S
H2101 C2059 0.930 . S
H2102 C2060 0.930 . S
H2103 C2061 0.930 . S
H2104 C2063 0.929 . S
H2105 C2064 0.930 . S
H2106 C2065 0.930 . S
H2107 C2066 0.930 . S
H2108 C2070 0.929 . S
H2109 C2072 0.930 . S
H2110 C2078 0.929 . S
H2111 C2079 0.930 . S
H2112 C2118 0.930 . S
H2113 C2121 0.930 . S
H2114 C2122 0.930 . S
H2115 C2123 0.930 . S
H2116 C2126 0.930 . S
H2117 C2127 0.930 . S
C2118 H2112 0.930 . S
C2118 C2119 1.355 . S
C2118 C2120 1.415 . S
C2119 C2118 1.355 . S
C2119 C2121 1.419 . S
C2120 C2118 1.415 . S
C2120 C2125 1.425 . S
C2120 C2127 1.409 . S
C2121 H2113 0.930 . S
C2121 C2119 1.419 . S
C2121 C2122 1.362 . S
C2122 H2114 0.930 . S
C2122 C2121 1.362 . S
C2122 C2125 1.409 . S
C2123 H2115 0.930 . S
C2123 C2124 1.355 . S
C2123 C2125 1.415 . S
C2124 C2123 1.355 . S
C2124 C2126 1.419 . S
C2125 C2120 1.425 . S
C2125 C2122 1.409 . S
C2125 C2123 1.415 . S
C2126 H2116 0.930 . S
C2126 C2124 1.419 . S
C2126 C2127 1.362 . S
C2127 H2117 0.930 . S
C2127 C2120 1.409 . S
C2127 C2126 1.362 . S
H2128 C2134 0.930 . S
H2129 C2137 0.930 . S
H2130 C2138 0.930 . S
H2131 C2139 0.930 . S
H2132 C2142 0.930 . S
H2133 C2143 0.930 . S
C2134 H2128 0.930 . S
C2134 C2135 1.355 . S
C2134 C2136 1.415 . S
C2135 C2134 1.355 . S
C2135 C2137 1.419 . S
C2136 C2134 1.415 . S
C2136 C2141 1.425 . S
C2136 C2143 1.409 . S
C2137 H2129 0.930 . S
C2137 C2135 1.419 . S
C2137 C2138 1.362 . S
C2138 H2130 0.930 . S
C2138 C2137 1.362 . S
C2138 C2141 1.409 . S
C2139 H2131 0.930 . S
C2139 C2140 1.355 . S
C2139 C2141 1.415 . S
C2140 C2139 1.355 . S
C2140 C2142 1.419 . S
C2141 C2136 1.425 . S
C2141 C2138 1.409 . S
C2141 C2139 1.415 . S
C2142 H2132 0.930 . S
C2142 C2140 1.419 . S
C2142 C2143 1.362 . S
C2143 H2133 0.930 . S
C2143 C2136 1.409 . S
C2143 C2142 1.362 . S
H2144 C2150 0.930 . S
H2145 C2153 0.930 . S
H2146 C2154 0.930 . S
H2147 C2155 0.930 . S
H2148 C2158 0.930 . S
H2149 C2159 0.930 . S
C2150 H2144 0.930 . S
C2150 C2151 1.355 . S
C2150 C2152 1.415 . S
C2151 C2150 1.355 . S
C2151 C2153 1.419 . S
C2152 C2150 1.415 . S
C2152 C2157 1.425 . S
C2152 C2159 1.409 . S
C2153 H2145 0.930 . S
C2153 C2151 1.419 . S
C2153 C2154 1.362 . S
C2154 H2146 0.930 . S
C2154 C2153 1.362 . S
C2154 C2157 1.409 . S
C2155 H2147 0.930 . S
C2155 C2156 1.355 . S
C2155 C2157 1.415 . S
C2156 C2155 1.355 . S
C2156 C2158 1.419 . S
C2157 C2152 1.425 . S
C2157 C2154 1.409 . S
C2157 C2155 1.415 . S
C2158 H2148 0.930 . S
C2158 C2156 1.419 . S
C2158 C2159 1.362 . S
C2159 H2149 0.930 . S
C2159 C2152 1.409 . S
C2159 C2158 1.362 . S
H2160 C2166 0.930 . S
H2161 C2169 0.930 . S
H2162 C2170 0.930 . S
H2163 C2171 0.930 . S
H2164 C2174 0.930 . S
H2165 C2175 0.930 . S
C2166 H2160 0.930 . S
C2166 C2167 1.355 . S
C2166 C2168 1.415 . S
C2167 C2166 1.355 . S
C2167 C2169 1.419 . S
C2168 C2166 1.415 . S
C2168 C2173 1.425 . S
C2168 C2175 1.409 . S
C2169 H2161 0.930 . S
C2169 C2167 1.419 . S
C2169 C2170 1.362 . S
C2170 H2162 0.930 . S
C2170 C2169 1.362 . S
C2170 C2173 1.409 . S
C2171 H2163 0.930 . S
C2171 C2172 1.355 . S
C2171 C2173 1.415 . S
C2172 C2171 1.355 . S
C2172 C2174 1.419 . S
C2173 C2168 1.425 . S
C2173 C2170 1.409 . S
C2173 C2171 1.415 . S
C2174 H2164 0.930 . S
C2174 C2172 1.419 . S
C2174 C2175 1.362 . S
C2175 H2165 0.930 . S
C2175 C2168 1.409 . S
C2175 C2174 1.362 . S
H2176 C2182 0.930 . S
H2177 C2185 0.930 . S
H2178 C2186 0.930 . S
H2179 C2187 0.930 . S
H2180 C2190 0.930 . S
H2181 C2191 0.930 . S
C2182 H2176 0.930 . S
C2182 C2183 1.355 . S
C2182 C2184 1.415 . S
C2183 C2182 1.355 . S
C2183 C2185 1.419 . S
C2184 C2182 1.415 . S
C2184 C2189 1.425 . S
C2184 C2191 1.409 . S
C2185 H2177 0.930 . S
C2185 C2183 1.419 . S
C2185 C2186 1.362 . S
C2186 H2178 0.930 . S
C2186 C2185 1.362 . S
C2186 C2189 1.409 . S
C2187 H2179 0.930 . S
C2187 C2188 1.355 . S
C2187 C2189 1.415 . S
C2188 C2187 1.355 . S
C2188 C2190 1.419 . S
C2189 C2184 1.425 . S
C2189 C2186 1.409 . S
C2189 C2187 1.415 . S
C2190 H2180 0.930 . S
C2190 C2188 1.419 . S
C2190 C2191 1.362 . S
C2191 H2181 0.930 . S
C2191 C2184 1.409 . S
C2191 C2190 1.362 . S
H2192 C2198 0.930 . S
H2193 C2201 0.930 . S
H2194 C2202 0.930 . S
H2195 C2203 0.930 . S
H2196 C2206 0.930 . S
H2197 C2207 0.930 . S
C2198 H2192 0.930 . S
C2198 C2199 1.355 . S
C2198 C2200 1.415 . S
C2199 C2198 1.355 . S
C2199 C2201 1.419 . S
C2200 C2198 1.415 . S
C2200 C2205 1.425 . S
C2200 C2207 1.409 . S
C2201 H2193 0.930 . S
C2201 C2199 1.419 . S
C2201 C2202 1.362 . S
C2202 H2194 0.930 . S
C2202 C2201 1.362 . S
C2202 C2205 1.409 . S
C2203 H2195 0.930 . S
C2203 C2204 1.355 . S
C2203 C2205 1.415 . S
C2204 C2203 1.355 . S
C2204 C2206 1.419 . S
C2205 C2200 1.425 . S
C2205 C2202 1.409 . S
C2205 C2203 1.415 . S
C2206 H2196 0.930 . S
C2206 C2204 1.419 . S
C2206 C2207 1.362 . S
C2207 H2197 0.930 . S
C2207 C2200 1.409 . S
C2207 C2206 1.362 . S
H2208 C2214 0.930 . S
H2209 C2217 0.930 . S
H2210 C2218 0.930 . S
H2211 C2219 0.930 . S
H2212 C2222 0.930 . S
H2213 C2223 0.930 . S
C2214 H2208 0.930 . S
C2214 C2215 1.355 . S
C2214 C2216 1.415 . S
C2215 C2214 1.355 . S
C2215 C2217 1.419 . S
C2216 C2214 1.415 . S
C2216 C2221 1.425 . S
C2216 C2223 1.409 . S
C2217 H2209 0.930 . S
C2217 C2215 1.419 . S
C2217 C2218 1.362 . S
C2218 H2210 0.930 . S
C2218 C2217 1.362 . S
C2218 C2221 1.409 . S
C2219 H2211 0.930 . S
C2219 C2220 1.355 . S
C2219 C2221 1.415 . S
C2220 C2219 1.355 . S
C2220 C2222 1.419 . S
C2221 C2216 1.425 . S
C2221 C2218 1.409 . S
C2221 C2219 1.415 . S
C2222 H2212 0.930 . S
C2222 C2220 1.419 . S
C2222 C2223 1.362 . S
C2223 H2213 0.930 . S
C2223 C2216 1.409 . S
C2223 C2222 1.362 . S
H2224 C2230 0.930 . S
H2225 C2233 0.930 . S
H2226 C2234 0.930 . S
H2227 C2235 0.930 . S
H2228 C2238 0.930 . S
H2229 C2239 0.930 . S
C2230 H2224 0.930 . S
C2230 C2231 1.355 . S
C2230 C2232 1.415 . S
C2231 C2230 1.355 . S
C2231 C2233 1.419 . S
C2232 C2230 1.415 . S
C2232 C2237 1.425 . S
C2232 C2239 1.409 . S
C2233 H2225 0.930 . S
C2233 C2231 1.419 . S
C2233 C2234 1.362 . S
C2234 H2226 0.930 . S
C2234 C2233 1.362 . S
C2234 C2237 1.409 . S
C2235 H2227 0.930 . S
C2235 C2236 1.355 . S
C2235 C2237 1.415 . S
C2236 C2235 1.355 . S
C2236 C2238 1.419 . S
C2237 C2232 1.425 . S
C2237 C2234 1.409 . S
C2237 C2235 1.415 . S
C2238 H2228 0.930 . S
C2238 C2236 1.419 . S
C2238 C2239 1.362 . S
C2239 H2229 0.930 . S
C2239 C2232 1.409 . S
C2239 C2238 1.362 . S
H2240 C2246 0.930 . S
H2241 C2249 0.930 . S
H2242 C2250 0.930 . S
H2243 C2251 0.930 . S
H2244 C2254 0.930 . S
H2245 C2255 0.930 . S
C2246 H2240 0.930 . S
C2246 C2247 1.355 . S
C2246 C2248 1.415 . S
C2247 C2246 1.355 . S
C2247 C2249 1.419 . S
C2248 C2246 1.415 . S
C2248 C2253 1.425 . S
C2248 C2255 1.409 . S
C2249 H2241 0.930 . S
C2249 C2247 1.419 . S
C2249 C2250 1.362 . S
C2250 H2242 0.930 . S
C2250 C2249 1.362 . S
C2250 C2253 1.409 . S
C2251 H2243 0.930 . S
C2251 C2252 1.355 . S
C2251 C2253 1.415 . S
C2252 C2251 1.355 . S
C2252 C2254 1.419 . S
C2253 C2248 1.425 . S
C2253 C2250 1.409 . S
C2253 C2251 1.415 . S
C2254 H2244 0.930 . S
C2254 C2252 1.419 . S
C2254 C2255 1.362 . S
C2255 H2245 0.930 . S
C2255 C2248 1.409 . S
C2255 C2254 1.362 . S
H2256 C2262 0.930 . S
H2257 C2265 0.930 . S
H2258 C2266 0.930 . S
H2259 C2267 0.930 . S
H2260 C2270 0.930 . S
H2261 C2271 0.930 . S
C2262 H2256 0.930 . S
C2262 C2263 1.355 . S
C2262 C2264 1.415 . S
C2263 C2262 1.355 . S
C2263 C2265 1.419 . S
C2264 C2262 1.415 . S
C2264 C2269 1.425 . S
C2264 C2271 1.409 . S
C2265 H2257 0.930 . S
C2265 C2263 1.419 . S
C2265 C2266 1.362 . S
C2266 H2258 0.930 . S
C2266 C2265 1.362 . S
C2266 C2269 1.409 . S
C2267 H2259 0.930 . S
C2267 C2268 1.355 . S
C2267 C2269 1.415 . S
C2268 C2267 1.355 . S
C2268 C2270 1.419 . S
C2269 C2264 1.425 . S
C2269 C2266 1.409 . S
C2269 C2267 1.415 . S
C2270 H2260 0.930 . S
C2270 C2268 1.419 . S
C2270 C2271 1.362 . S
C2271 H2261 0.930 . S
C2271 C2264 1.409 . S
C2271 C2270 1.362 . S
H2272 C2278 0.930 . S
H2273 C2281 0.930 . S
H2274 C2282 0.930 . S
H2275 C2283 0.930 . S
H2276 C2286 0.930 . S
H2277 C2287 0.930 . S
C2278 H2272 0.930 . S
C2278 C2279 1.355 . S
C2278 C2280 1.415 . S
C2279 C2278 1.355 . S
C2279 C2281 1.419 . S
C2280 C2278 1.415 . S
C2280 C2285 1.425 . S
C2280 C2287 1.409 . S
C2281 H2273 0.930 . S
C2281 C2279 1.419 . S
C2281 C2282 1.362 . S
C2282 H2274 0.930 . S
C2282 C2281 1.362 . S
C2282 C2285 1.409 . S
C2283 H2275 0.930 . S
C2283 C2284 1.355 . S
C2283 C2285 1.415 . S
C2284 C2283 1.355 . S
C2284 C2286 1.419 . S
C2285 C2280 1.425 . S
C2285 C2282 1.409 . S
C2285 C2283 1.415 . S
C2286 H2276 0.930 . S
C2286 C2284 1.419 . S
C2286 C2287 1.362 . S
C2287 H2277 0.930 . S
C2287 C2280 1.409 . S
C2287 C2286 1.362 . S
H2288 C2294 0.930 . S
H2289 C2297 0.930 . S
H2290 C2298 0.930 . S
H2291 C2299 0.930 . S
H2292 C2302 0.930 . S
H2293 C2303 0.930 . S
C2294 H2288 0.930 . S
C2294 C2295 1.355 . S
C2294 C2296 1.415 . S
C2295 C2294 1.355 . S
C2295 C2297 1.419 . S
C2296 C2294 1.415 . S
C2296 C2301 1.425 . S
C2296 C2303 1.409 . S
C2297 H2289 0.930 . S
C2297 C2295 1.419 . S
C2297 C2298 1.362 . S
C2298 H2290 0.930 . S
C2298 C2297 1.362 . S
C2298 C2301 1.409 . S
C2299 H2291 0.930 . S
C2299 C2300 1.355 . S
C2299 C2301 1.415 . S
C2300 C2299 1.355 . S
C2300 C2302 1.419 . S
C2301 C2296 1.425 . S
C2301 C2298 1.409 . S
C2301 C2299 1.415 . S
C2302 H2292 0.930 . S
C2302 C2300 1.419 . S
C2302 C2303 1.362 . S
C2303 H2293 0.930 . S
C2303 C2296 1.409 . S
C2303 C2302 1.362 . S
H2304 C2310 0.930 . S
H2305 C2313 0.930 . S
H2306 C2314 0.930 . S
H2307 C2315 0.930 . S
H2308 C2318 0.930 . S
H2309 C2319 0.930 . S
C2310 H2304 0.930 . S
C2310 C2311 1.355 . S
C2310 C2312 1.415 . S
C2311 C2310 1.355 . S
C2311 C2313 1.419 . S
C2312 C2310 1.415 . S
C2312 C2317 1.425 . S
C2312 C2319 1.409 . S
C2313 H2305 0.930 . S
C2313 C2311 1.419 . S
C2313 C2314 1.362 . S
C2314 H2306 0.930 . S
C2314 C2313 1.362 . S
C2314 C2317 1.409 . S
C2315 H2307 0.930 . S
C2315 C2316 1.355 . S
C2315 C2317 1.415 . S
C2316 C2315 1.355 . S
C2316 C2318 1.419 . S
C2317 C2312 1.425 . S
C2317 C2314 1.409 . S
C2317 C2315 1.415 . S
C2318 H2308 0.930 . S
C2318 C2316 1.419 . S
C2318 C2319 1.362 . S
C2319 H2309 0.930 . S
C2319 C2312 1.409 . S
C2319 C2318 1.362 . S
H2320 C2326 0.930 . S
H2321 C2329 0.930 . S
H2322 C2330 0.930 . S
H2323 C2331 0.930 . S
H2324 C2334 0.930 . S
H2325 C2335 0.930 . S
C2326 H2320 0.930 . S
C2326 C2327 1.355 . S
C2326 C2328 1.415 . S
C2327 C2326 1.355 . S
C2327 C2329 1.419 . S
C2328 C2326 1.415 . S
C2328 C2333 1.425 . S
C2328 C2335 1.409 . S
C2329 H2321 0.930 . S
C2329 C2327 1.419 . S
C2329 C2330 1.362 . S
C2330 H2322 0.930 . S
C2330 C2329 1.362 . S
C2330 C2333 1.409 . S
C2331 H2323 0.930 . S
C2331 C2332 1.355 . S
C2331 C2333 1.415 . S
C2332 C2331 1.355 . S
C2332 C2334 1.419 . S
C2333 C2328 1.425 . S
C2333 C2330 1.409 . S
C2333 C2331 1.415 . S
C2334 H2324 0.930 . S
C2334 C2332 1.419 . S
C2334 C2335 1.362 . S
C2335 H2325 0.930 . S
C2335 C2328 1.409 . S
C2335 C2334 1.362 . S
H2336 C2342 0.930 . S
H2337 C2345 0.930 . S
H2338 C2346 0.930 . S
H2339 C2347 0.930 . S
H2340 C2350 0.930 . S
H2341 C2351 0.930 . S
C2342 H2336 0.930 . S
C2342 C2343 1.355 . S
C2342 C2344 1.415 . S
C2343 C2342 1.355 . S
C2343 C2345 1.419 . S
C2344 C2342 1.415 . S
C2344 C2349 1.425 . S
C2344 C2351 1.409 . S
C2345 H2337 0.930 . S
C2345 C2343 1.419 . S
C2345 C2346 1.362 . S
C2346 H2338 0.930 . S
C2346 C2345 1.362 . S
C2346 C2349 1.409 . S
C2347 H2339 0.930 . S
C2347 C2348 1.355 . S
C2347 C2349 1.415 . S
C2348 C2347 1.355 . S
C2348 C2350 1.419 . S
C2349 C2344 1.425 . S
C2349 C2346 1.409 . S
C2349 C2347 1.415 . S
C2350 H2340 0.930 . S
C2350 C2348 1.419 . S
C2350 C2351 1.362 . S
C2351 H2341 0.930 . S
C2351 C2344 1.409 . S
C2351 C2350 1.362 . S
H2352 C2358 0.930 . S
H2353 C2361 0.930 . S
H2354 C2362 0.930 . S
H2355 C2363 0.930 . S
H2356 C2366 0.930 . S
H2357 C2367 0.930 . S
C2358 H2352 0.930 . S
C2358 C2359 1.355 . S
C2358 C2360 1.415 . S
C2359 C2358 1.355 . S
C2359 C2361 1.419 . S
C2360 C2358 1.415 . S
C2360 C2365 1.425 . S
C2360 C2367 1.409 . S
C2361 H2353 0.930 . S
C2361 C2359 1.419 . S
C2361 C2362 1.362 . S
C2362 H2354 0.930 . S
C2362 C2361 1.362 . S
C2362 C2365 1.409 . S
C2363 H2355 0.930 . S
C2363 C2364 1.355 . S
C2363 C2365 1.415 . S
C2364 C2363 1.355 . S
C2364 C2366 1.419 . S
C2365 C2360 1.425 . S
C2365 C2362 1.409 . S
C2365 C2363 1.415 . S
C2366 H2356 0.930 . S
C2366 C2364 1.419 . S
C2366 C2367 1.362 . S
C2367 H2357 0.930 . S
C2367 C2360 1.409 . S
C2367 C2366 1.362 . S
H2368 C2374 0.930 . S
H2369 C2377 0.930 . S
H2370 C2378 0.930 . S
H2371 C2379 0.930 . S
H2372 C2382 0.930 . S
H2373 C2383 0.930 . S
C2374 H2368 0.930 . S
C2374 C2375 1.355 . S
C2374 C2376 1.415 . S
C2375 C2374 1.355 . S
C2375 C2377 1.419 . S
C2376 C2374 1.415 . S
C2376 C2381 1.425 . S
C2376 C2383 1.409 . S
C2377 H2369 0.930 . S
C2377 C2375 1.419 . S
C2377 C2378 1.362 . S
C2378 H2370 0.930 . S
C2378 C2377 1.362 . S
C2378 C2381 1.409 . S
C2379 H2371 0.930 . S
C2379 C2380 1.355 . S
C2379 C2381 1.415 . S
C2380 C2379 1.355 . S
C2380 C2382 1.419 . S
C2381 C2376 1.425 . S
C2381 C2378 1.409 . S
C2381 C2379 1.415 . S
C2382 H2372 0.930 . S
C2382 C2380 1.419 . S
C2382 C2383 1.362 . S
C2383 H2373 0.930 . S
C2383 C2376 1.409 . S
C2383 C2382 1.362 . S
H2384 C2390 0.930 . S
H2385 C2393 0.930 . S
H2386 C2394 0.930 . S
H2387 C2395 0.930 . S
H2388 C2398 0.930 . S
H2389 C2399 0.930 . S
C2390 H2384 0.930 . S
C2390 C2391 1.355 . S
C2390 C2392 1.415 . S
C2391 C2390 1.355 . S
C2391 C2393 1.419 . S
C2392 C2390 1.415 . S
C2392 C2397 1.425 . S
C2392 C2399 1.409 . S
C2393 H2385 0.930 . S
C2393 C2391 1.419 . S
C2393 C2394 1.362 . S
C2394 H2386 0.930 . S
C2394 C2393 1.362 . S
C2394 C2397 1.409 . S
C2395 H2387 0.930 . S
C2395 C2396 1.355 . S
C2395 C2397 1.415 . S
C2396 C2395 1.355 . S
C2396 C2398 1.419 . S
C2397 C2392 1.425 . S
C2397 C2394 1.409 . S
C2397 C2395 1.415 . S
C2398 H2388 0.930 . S
C2398 C2396 1.419 . S
C2398 C2399 1.362 . S
C2399 H2389 0.930 . S
C2399 C2392 1.409 . S
C2399 C2398 1.362 . S
H2400 C2406 0.930 . S
H2401 C2409 0.930 . S
H2402 C2410 0.930 . S
H2403 C2411 0.930 . S
H2404 C2414 0.930 . S
H2405 C2415 0.930 . S
C2406 H2400 0.930 . S
C2406 C2407 1.355 . S
C2406 C2408 1.415 . S
C2407 C2406 1.355 . S
C2407 C2409 1.419 . S
C2408 C2406 1.415 . S
C2408 C2413 1.425 . S
C2408 C2415 1.409 . S
C2409 H2401 0.930 . S
C2409 C2407 1.419 . S
C2409 C2410 1.362 . S
C2410 H2402 0.930 . S
C2410 C2409 1.362 . S
C2410 C2413 1.409 . S
C2411 H2403 0.930 . S
C2411 C2412 1.355 . S
C2411 C2413 1.415 . S
C2412 C2411 1.355 . S
C2412 C2414 1.419 . S
C2413 C2408 1.425 . S
C2413 C2410 1.409 . S
C2413 C2411 1.415 . S
C2414 H2404 0.930 . S
C2414 C2412 1.419 . S
C2414 C2415 1.362 . S
C2415 H2405 0.930 . S
C2415 C2408 1.409 . S
C2415 C2414 1.362 . S
H2416 C2422 0.930 . S
H2417 C2425 0.930 . S
H2418 C2426 0.930 . S
H2419 C2427 0.930 . S
H2420 C2430 0.930 . S
H2421 C2431 0.930 . S
C2422 H2416 0.930 . S
C2422 C2423 1.355 . S
C2422 C2424 1.415 . S
C2423 C2422 1.355 . S
C2423 C2425 1.419 . S
C2424 C2422 1.415 . S
C2424 C2429 1.425 . S
C2424 C2431 1.409 . S
C2425 H2417 0.930 . S
C2425 C2423 1.419 . S
C2425 C2426 1.362 . S
C2426 H2418 0.930 . S
C2426 C2425 1.362 . S
C2426 C2429 1.409 . S
C2427 H2419 0.930 . S
C2427 C2428 1.355 . S
C2427 C2429 1.415 . S
C2428 C2427 1.355 . S
C2428 C2430 1.419 . S
C2429 C2424 1.425 . S
C2429 C2426 1.409 . S
C2429 C2427 1.415 . S
C2430 H2420 0.930 . S
C2430 C2428 1.419 . S
C2430 C2431 1.362 . S
C2431 H2421 0.930 . S
C2431 C2424 1.409 . S
C2431 C2430 1.362 . S
H2432 C2438 0.930 . S
H2433 C2441 0.930 . S
H2434 C2442 0.930 . S
H2435 C2443 0.930 . S
H2436 C2446 0.930 . S
H2437 C2447 0.930 . S
C2438 H2432 0.930 . S
C2438 C2439 1.355 . S
C2438 C2440 1.415 . S
C2439 C2438 1.355 . S
C2439 C2441 1.419 . S
C2440 C2438 1.415 . S
C2440 C2445 1.425 . S
C2440 C2447 1.409 . S
C2441 H2433 0.930 . S
C2441 C2439 1.419 . S
C2441 C2442 1.362 . S
C2442 H2434 0.930 . S
C2442 C2441 1.362 . S
C2442 C2445 1.409 . S
C2443 H2435 0.930 . S
C2443 C2444 1.355 . S
C2443 C2445 1.415 . S
C2444 C2443 1.355 . S
C2444 C2446 1.419 . S
C2445 C2440 1.425 . S
C2445 C2442 1.409 . S
C2445 C2443 1.415 . S
C2446 H2436 0.930 . S
C2446 C2444 1.419 . S
C2446 C2447 1.362 . S
C2447 H2437 0.930 . S
C2447 C2440 1.409 . S
C2447 C2446 1.362 . S
H2448 C2454 0.930 . S
H2449 C2457 0.930 . S
H2450 C2458 0.930 . S
H2451 C2459 0.930 . S
H2452 C2462 0.930 . S
H2453 C2463 0.930 . S
C2454 H2448 0.930 . S
C2454 C2455 1.355 . S
C2454 C2456 1.415 . S
C2455 C2454 1.355 . S
C2455 C2457 1.419 . S
C2456 C2454 1.415 . S
C2456 C2461 1.425 . S
C2456 C2463 1.409 . S
C2457 H2449 0.930 . S
C2457 C2455 1.419 . S
C2457 C2458 1.362 . S
C2458 H2450 0.930 . S
C2458 C2457 1.362 . S
C2458 C2461 1.409 . S
C2459 H2451 0.930 . S
C2459 C2460 1.355 . S
C2459 C2461 1.415 . S
C2460 C2459 1.355 . S
C2460 C2462 1.419 . S
C2461 C2456 1.425 . S
C2461 C2458 1.409 . S
C2461 C2459 1.415 . S
C2462 H2452 0.930 . S
C2462 C2460 1.419 . S
C2462 C2463 1.362 . S
C2463 H2453 0.930 . S
C2463 C2456 1.409 . S
C2463 C2462 1.362 . S
H2464 C2470 0.930 . S
H2465 C2473 0.930 . S
H2466 C2474 0.930 . S
H2467 C2475 0.930 . S
H2468 C2478 0.930 . S
H2469 C2479 0.930 . S
C2470 H2464 0.930 . S
C2470 C2471 1.355 . S
C2470 C2472 1.415 . S
C2471 C2470 1.355 . S
C2471 C2473 1.419 . S
C2472 C2470 1.415 . S
C2472 C2477 1.425 . S
C2472 C2479 1.409 . S
C2473 H2465 0.930 . S
C2473 C2471 1.419 . S
C2473 C2474 1.362 . S
C2474 H2466 0.930 . S
C2474 C2473 1.362 . S
C2474 C2477 1.409 . S
C2475 H2467 0.930 . S
C2475 C2476 1.355 . S
C2475 C2477 1.415 . S
C2476 C2475 1.355 . S
C2476 C2478 1.419 . S
C2477 C2472 1.425 . S
C2477 C2474 1.409 . S
C2477 C2475 1.415 . S
C2478 H2468 0.930 . S
C2478 C2476 1.419 . S
C2478 C2479 1.362 . S
C2479 H2469 0.930 . S
C2479 C2472 1.409 . S
C2479 C2478 1.362 . S
H2480 C2486 0.930 . S
H2481 C2489 0.930 . S
H2482 C2490 0.930 . S
H2483 C2491 0.930 . S
H2484 C2494 0.930 . S
H2485 C2495 0.930 . S
C2486 H2480 0.930 . S
C2486 C2487 1.355 . S
C2486 C2488 1.415 . S
C2487 C2486 1.355 . S
C2487 C2489 1.419 . S
C2488 C2486 1.415 . S
C2488 C2493 1.425 . S
C2488 C2495 1.409 . S
C2489 H2481 0.930 . S
C2489 C2487 1.419 . S
C2489 C2490 1.362 . S
C2490 H2482 0.930 . S
C2490 C2489 1.362 . S
C2490 C2493 1.409 . S
C2491 H2483 0.930 . S
C2491 C2492 1.355 . S
C2491 C2493 1.415 . S
C2492 C2491 1.355 . S
C2492 C2494 1.419 . S
C2493 C2488 1.425 . S
C2493 C2490 1.409 . S
C2493 C2491 1.415 . S
C2494 H2484 0.930 . S
C2494 C2492 1.419 . S
C2494 C2495 1.362 . S
C2495 H2485 0.930 . S
C2495 C2488 1.409 . S
C2495 C2494 1.362 . S
H2496 C2502 0.930 . S
H2497 C2505 0.930 . S
H2498 C2506 0.930 . S
H2499 C2507 0.930 . S
H2500 C2510 0.930 . S
H2501 C2511 0.930 . S
C2502 H2496 0.930 . S
C2502 C2503 1.355 . S
C2502 C2504 1.415 . S
C2503 C2502 1.355 . S
C2503 C2505 1.419 . S
C2504 C2502 1.415 . S
C2504 C2509 1.425 1_455 S
C2504 C2511 1.409 1_455 S
C2505 H2497 0.930 . S
C2505 C2503 1.419 . S
C2505 C2506 1.362 . S
C2506 H2498 0.930 . S
C2506 C2505 1.362 . S
C2506 C2509 1.409 1_455 S
C2507 H2499 0.930 . S
C2507 C2508 1.355 . S
C2507 C2509 1.415 . S
C2508 C2507 1.355 . S
C2508 C2510 1.419 . S
C2509 C2504 1.425 1_655 S
C2509 C2506 1.409 1_655 S
C2509 C2507 1.415 . S
C2510 H2500 0.930 . S
C2510 C2508 1.419 . S
C2510 C2511 1.362 . S
C2511 H2501 0.930 . S
C2511 C2504 1.409 1_655 S
C2511 C2510 1.362 . S
H2512 C2518 0.930 . S
H2513 C2521 0.930 . S
H2514 C2522 0.930 . S
H2515 C2523 0.930 . S
H2516 C2526 0.930 . S
H2517 C2527 0.930 . S
C2518 H2512 0.930 . S
C2518 C2519 1.355 . S
C2518 C2520 1.415 . S
C2519 C2518 1.355 . S
C2519 C2521 1.419 . S
C2520 C2518 1.415 . S
C2520 C2525 1.425 1_545 S
C2520 C2527 1.409 1_545 S
C2521 H2513 0.930 . S
C2521 C2519 1.419 . S
C2521 C2522 1.362 . S
C2522 H2514 0.930 . S
C2522 C2521 1.362 . S
C2522 C2525 1.409 1_545 S
C2523 H2515 0.930 . S
C2523 C2524 1.355 . S
C2523 C2525 1.415 . S
C2524 C2523 1.355 . S
C2524 C2526 1.419 . S
C2525 C2520 1.425 1_565 S
C2525 C2522 1.409 1_565 S
C2525 C2523 1.415 . S
C2526 H2516 0.930 . S
C2526 C2524 1.419 . S
C2526 C2527 1.362 . S
C2527 H2517 0.930 . S
C2527 C2520 1.409 1_565 S
C2527 C2526 1.362 . S
H2528 C2534 0.930 . S
H2529 C2537 0.930 . S
H2530 C2538 0.930 . S
H2531 C2539 0.930 . S
H2532 C2542 0.930 . S
H2533 C2543 0.930 . S
C2534 H2528 0.930 . S
C2534 C2535 1.355 . S
C2534 C2536 1.415 . S
C2535 C2534 1.355 . S
C2535 C2537 1.419 . S
C2536 C2534 1.415 . S
C2536 C2541 1.425 1_655 S
C2536 C2543 1.409 1_655 S
C2537 H2529 0.930 . S
C2537 C2535 1.419 . S
C2537 C2538 1.362 . S
C2538 H2530 0.930 . S
C2538 C2537 1.362 . S
C2538 C2541 1.409 1_655 S
C2539 H2531 0.930 . S
C2539 C2540 1.355 . S
C2539 C2541 1.415 . S
C2540 C2539 1.355 . S
C2540 C2542 1.419 . S
C2541 C2536 1.425 1_455 S
C2541 C2538 1.409 1_455 S
C2541 C2539 1.415 . S
C2542 H2532 0.930 . S
C2542 C2540 1.419 . S
C2542 C2543 1.362 . S
C2543 H2533 0.930 . S
C2543 C2536 1.409 1_455 S
C2543 C2542 1.362 . S
H2544 C2550 0.930 . S
H2545 C2553 0.930 . S
H2546 C2554 0.930 . S
H2547 C2555 0.930 . S
H2548 C2558 0.930 . S
H2549 C2559 0.930 . S
C2550 H2544 0.930 . S
C2550 C2551 1.355 . S
C2550 C2552 1.415 . S
C2551 C2550 1.355 . S
C2551 C2553 1.419 . S
C2552 C2550 1.415 . S
C2552 C2557 1.425 1_545 S
C2552 C2559 1.409 1_545 S
C2553 H2545 0.930 . S
C2553 C2551 1.419 . S
C2553 C2554 1.362 . S
C2554 H2546 0.930 . S
C2554 C2553 1.362 . S
C2554 C2557 1.409 1_545 S
C2555 H2547 0.930 . S
C2555 C2556 1.355 . S
C2555 C2557 1.415 . S
C2556 C2555 1.355 . S
C2556 C2558 1.419 . S
C2557 C2552 1.425 1_565 S
C2557 C2554 1.409 1_565 S
C2557 C2555 1.415 . S
C2558 H2548 0.930 . S
C2558 C2556 1.419 . S
C2558 C2559 1.362 . S
C2559 H2549 0.930 . S
C2559 C2552 1.409 1_565 S
C2559 C2558 1.362 . S
H2560 C2566 0.930 . S
H2561 C2569 0.930 . S
H2562 C2570 0.930 . S
H2563 C2571 0.930 . S
H2564 C2574 0.930 . S
H2565 C2575 0.930 . S
C2566 H2560 0.930 . S
C2566 C2567 1.355 . S
C2566 C2568 1.415 . S
C2567 C2566 1.355 . S
C2567 C2569 1.419 . S
C2568 C2566 1.415 . S
C2568 C2573 1.425 1_565 S
C2568 C2575 1.409 1_565 S
C2569 H2561 0.930 . S
C2569 C2567 1.419 . S
C2569 C2570 1.362 . S
C2570 H2562 0.930 . S
C2570 C2569 1.362 . S
C2570 C2573 1.409 1_565 S
C2571 H2563 0.930 . S
C2571 C2572 1.355 . S
C2571 C2573 1.415 . S
C2572 C2571 1.355 . S
C2572 C2574 1.419 . S
C2573 C2568 1.425 1_545 S
C2573 C2570 1.409 1_545 S
C2573 C2571 1.415 . S
C2574 H2564 0.930 . S
C2574 C2572 1.419 . S
C2574 C2575 1.362 . S
C2575 H2565 0.930 . S
C2575 C2568 1.409 1_545 S
C2575 C2574 1.362 . S
H2576 C2582 0.930 . S
H2577 C2585 0.930 . S
H2578 C2586 0.930 . S
H2579 C2587 0.930 . S
H2580 C2590 0.930 . S
H2581 C2591 0.930 . S
C2582 H2576 0.930 . S
C2582 C2583 1.355 . S
C2582 C2584 1.415 . S
C2583 C2582 1.355 . S
C2583 C2585 1.419 . S
C2584 C2582 1.415 . S
C2584 C2589 1.425 1_655 S
C2584 C2591 1.409 1_655 S
C2585 H2577 0.930 . S
C2585 C2583 1.419 . S
C2585 C2586 1.362 . S
C2586 H2578 0.930 . S
C2586 C2585 1.362 . S
C2586 C2589 1.409 1_655 S
C2587 H2579 0.930 . S
C2587 C2588 1.355 . S
C2587 C2589 1.415 . S
C2588 C2587 1.355 . S
C2588 C2590 1.419 . S
C2589 C2584 1.425 1_455 S
C2589 C2586 1.409 1_455 S
C2589 C2587 1.415 . S
C2590 H2580 0.930 . S
C2590 C2588 1.419 . S
C2590 C2591 1.362 . S
C2591 H2581 0.930 . S
C2591 C2584 1.409 1_455 S
C2591 C2590 1.362 . S
H2592 C2598 0.930 . S
H2593 C2601 0.930 . S
H2594 C2602 0.930 . S
H2595 C2603 0.930 . S
H2596 C2606 0.930 . S
H2597 C2607 0.930 . S
C2598 H2592 0.930 . S
C2598 C2599 1.355 . S
C2598 C2600 1.415 . S
C2599 C2598 1.355 . S
C2599 C2601 1.419 . S
C2600 C2598 1.415 . S
C2600 C2605 1.425 1_565 S
C2600 C2607 1.409 1_565 S
C2601 H2593 0.930 . S
C2601 C2599 1.419 . S
C2601 C2602 1.362 . S
C2602 H2594 0.930 . S
C2602 C2601 1.362 . S
C2602 C2605 1.409 1_565 S
C2603 H2595 0.930 . S
C2603 C2604 1.355 . S
C2603 C2605 1.415 . S
C2604 C2603 1.355 . S
C2604 C2606 1.419 . S
C2605 C2600 1.425 1_545 S
C2605 C2602 1.409 1_545 S
C2605 C2603 1.415 . S
C2606 H2596 0.930 . S
C2606 C2604 1.419 . S
C2606 C2607 1.362 . S
C2607 H2597 0.930 . S
C2607 C2600 1.409 1_545 S
C2607 C2606 1.362 . S
H2608 C2614 0.930 . S
H2609 C2617 0.930 . S
H2610 C2618 0.930 . S
H2611 C2619 0.930 . S
H2612 C2622 0.930 . S
H2613 C2623 0.930 . S
C2614 H2608 0.930 . S
C2614 C2615 1.355 . S
C2614 C2616 1.415 . S
C2615 C2614 1.355 . S
C2615 C2617 1.419 . S
C2616 C2614 1.415 . S
C2616 C2621 1.425 1_655 S
C2616 C2623 1.409 1_655 S
C2617 H2609 0.930 . S
C2617 C2615 1.419 . S
C2617 C2618 1.362 . S
C2618 H2610 0.930 . S
C2618 C2617 1.362 . S
C2618 C2621 1.409 1_655 S
C2619 H2611 0.930 . S
C2619 C2620 1.355 . S
C2619 C2621 1.415 . S
C2620 C2619 1.355 . S
C2620 C2622 1.419 . S
C2621 C2616 1.425 1_455 S
C2621 C2618 1.409 1_455 S
C2621 C2619 1.415 . S
C2622 H2612 0.930 . S
C2622 C2620 1.419 . S
C2622 C2623 1.362 . S
C2623 H2613 0.930 . S
C2623 C2616 1.409 1_455 S
C2623 C2622 1.362 . S
H2624 C2630 0.930 . S
H2625 C2633 0.930 . S
H2626 C2634 0.930 . S
H2627 C2635 0.930 . S
H2628 C2638 0.930 . S
H2629 C2639 0.930 . S
C2630 H2624 0.930 . S
C2630 C2631 1.355 . S
C2630 C2632 1.415 . S
C2631 C2630 1.355 . S
C2631 C2633 1.419 . S
C2632 C2630 1.415 . S
C2632 C2637 1.425 1_556 S
C2632 C2639 1.409 1_556 S
C2633 H2625 0.930 . S
C2633 C2631 1.419 . S
C2633 C2634 1.362 . S
C2634 H2626 0.930 . S
C2634 C2633 1.362 . S
C2634 C2637 1.409 1_556 S
C2635 H2627 0.930 . S
C2635 C2636 1.355 . S
C2635 C2637 1.415 . S
C2636 C2635 1.355 . S
C2636 C2638 1.419 . S
C2637 C2632 1.425 1_554 S
C2637 C2634 1.409 1_554 S
C2637 C2635 1.415 . S
C2638 H2628 0.930 . S
C2638 C2636 1.419 . S
C2638 C2639 1.362 . S
C2639 H2629 0.930 . S
C2639 C2632 1.409 1_554 S
C2639 C2638 1.362 . S
H2640 C2646 0.930 . S
H2641 C2649 0.930 . S
H2642 C2650 0.930 . S
H2643 C2651 0.930 . S
H2644 C2654 0.930 . S
H2645 C2655 0.930 . S
C2646 H2640 0.930 . S
C2646 C2647 1.355 . S
C2646 C2648 1.415 . S
C2647 C2646 1.355 . S
C2647 C2649 1.419 . S
C2648 C2646 1.415 . S
C2648 C2653 1.425 1_556 S
C2648 C2655 1.409 1_556 S
C2649 H2641 0.930 . S
C2649 C2647 1.419 . S
C2649 C2650 1.362 . S
C2650 H2642 0.930 . S
C2650 C2649 1.362 . S
C2650 C2653 1.409 1_556 S
C2651 H2643 0.930 . S
C2651 C2652 1.355 . S
C2651 C2653 1.415 . S
C2652 C2651 1.355 . S
C2652 C2654 1.419 . S
C2653 C2648 1.425 1_554 S
C2653 C2650 1.409 1_554 S
C2653 C2651 1.415 . S
C2654 H2644 0.930 . S
C2654 C2652 1.419 . S
C2654 C2655 1.362 . S
C2655 H2645 0.930 . S
C2655 C2648 1.409 1_554 S
C2655 C2654 1.362 . S
H2656 C2662 0.930 . S
H2657 C2665 0.930 . S
H2658 C2666 0.930 . S
H2659 C2667 0.930 . S
H2660 C2670 0.930 . S
H2661 C2671 0.930 . S
C2662 H2656 0.930 . S
C2662 C2663 1.355 . S
C2662 C2664 1.415 . S
C2663 C2662 1.355 . S
C2663 C2665 1.419 . S
C2664 C2662 1.415 . S
C2664 C2669 1.425 1_556 S
C2664 C2671 1.409 1_556 S
C2665 H2657 0.930 . S
C2665 C2663 1.419 . S
C2665 C2666 1.362 . S
C2666 H2658 0.930 . S
C2666 C2665 1.362 . S
C2666 C2669 1.409 1_556 S
C2667 H2659 0.930 . S
C2667 C2668 1.355 . S
C2667 C2669 1.415 . S
C2668 C2667 1.355 . S
C2668 C2670 1.419 . S
C2669 C2664 1.425 1_554 S
C2669 C2666 1.409 1_554 S
C2669 C2667 1.415 . S
C2670 H2660 0.930 . S
C2670 C2668 1.419 . S
C2670 C2671 1.362 . S
C2671 H2661 0.930 . S
C2671 C2664 1.409 1_554 S
C2671 C2670 1.362 . S
H2672 C2678 0.930 . S
H2673 C2681 0.930 . S
H2674 C2682 0.930 . S
H2675 C2683 0.930 . S
H2676 C2686 0.930 . S
H2677 C2687 0.930 . S
C2678 H2672 0.930 . S
C2678 C2679 1.355 . S
C2678 C2680 1.415 . S
C2679 C2678 1.355 . S
C2679 C2681 1.419 . S
C2680 C2678 1.415 . S
C2680 C2685 1.425 1_556 S
C2680 C2687 1.409 1_556 S
C2681 H2673 0.930 . S
C2681 C2679 1.419 . S
C2681 C2682 1.362 . S
C2682 H2674 0.930 . S
C2682 C2681 1.362 . S
C2682 C2685 1.409 1_556 S
C2683 H2675 0.930 . S
C2683 C2684 1.355 . S
C2683 C2685 1.415 . S
C2684 C2683 1.355 . S
C2684 C2686 1.419 . S
C2685 C2680 1.425 1_554 S
C2685 C2682 1.409 1_554 S
C2685 C2683 1.415 . S
C2686 H2676 0.930 . S
C2686 C2684 1.419 . S
C2686 C2687 1.362 . S
C2687 H2677 0.930 . S
C2687 C2680 1.409 1_554 S
C2687 C2686 1.362 . S
H2688 C2694 0.930 . S
H2689 C2697 0.930 . S
H2690 C2698 0.930 . S
H2691 C2699 0.930 . S
H2692 C2702 0.930 . S
H2693 C2703 0.930 . S
C2694 H2688 0.930 . S
C2694 C2695 1.355 . S
C2694 C2696 1.415 . S
C2695 C2694 1.355 . S
C2695 C2697 1.419 . S
C2696 C2694 1.415 . S
C2696 C2701 1.425 . S
C2696 C2703 1.409 . S
C2697 H2689 0.930 . S
C2697 C2695 1.419 . S
C2697 C2698 1.362 . S
C2698 H2690 0.930 . S
C2698 C2697 1.362 . S
C2698 C2701 1.409 . S
C2699 H2691 0.930 . S
C2699 C2700 1.355 . S
C2699 C2701 1.415 . S
C2700 C2699 1.355 . S
C2700 C2702 1.419 . S
C2701 C2696 1.425 . S
C2701 C2698 1.409 . S
C2701 C2699 1.415 . S
C2702 H2692 0.930 . S
C2702 C2700 1.419 . S
C2702 C2703 1.362 . S
C2703 H2693 0.930 . S
C2703 C2696 1.409 . S
C2703 C2702 1.362 . S
H2704 C2710 0.930 . S
H2705 C2713 0.930 . S
H2706 C2714 0.930 . S
H2707 C2715 0.930 . S
H2708 C2718 0.930 . S
H2709 C2719 0.930 . S
C2710 H2704 0.930 . S
C2710 C2711 1.355 . S
C2710 C2712 1.415 . S
C2711 C2710 1.355 . S
C2711 C2713 1.419 . S
C2712 C2710 1.415 . S
C2712 C2717 1.425 . S
C2712 C2719 1.409 . S
C2713 H2705 0.930 . S
C2713 C2711 1.419 . S
C2713 C2714 1.362 . S
C2714 H2706 0.930 . S
C2714 C2713 1.362 . S
C2714 C2717 1.409 . S
C2715 H2707 0.930 . S
C2715 C2716 1.355 . S
C2715 C2717 1.415 . S
C2716 C2715 1.355 . S
C2716 C2718 1.419 . S
C2717 C2712 1.425 . S
C2717 C2714 1.409 . S
C2717 C2715 1.415 . S
C2718 H2708 0.930 . S
C2718 C2716 1.419 . S
C2718 C2719 1.362 . S
C2719 H2709 0.930 . S
C2719 C2712 1.409 . S
C2719 C2718 1.362 . S
H2720 C2726 0.930 . S
H2721 C2729 0.930 . S
H2722 C2730 0.930 . S
H2723 C2731 0.930 . S
H2724 C2734 0.930 . S
H2725 C2735 0.930 . S
C2726 H2720 0.930 . S
C2726 C2727 1.355 . S
C2726 C2728 1.415 . S
C2727 C2726 1.355 . S
C2727 C2729 1.419 . S
C2728 C2726 1.415 . S
C2728 C2733 1.425 . S
C2728 C2735 1.409 . S
C2729 H2721 0.930 . S
C2729 C2727 1.419 . S
C2729 C2730 1.362 . S
C2730 H2722 0.930 . S
C2730 C2729 1.362 . S
C2730 C2733 1.409 . S
C2731 H2723 0.930 . S
C2731 C2732 1.355 . S
C2731 C2733 1.415 . S
C2732 C2731 1.355 . S
C2732 C2734 1.419 . S
C2733 C2728 1.425 . S
C2733 C2730 1.409 . S
C2733 C2731 1.415 . S
C2734 H2724 0.930 . S
C2734 C2732 1.419 . S
C2734 C2735 1.362 . S
C2735 H2725 0.930 . S
C2735 C2728 1.409 . S
C2735 C2734 1.362 . S
H2736 C2742 0.930 . S
H2737 C2745 0.930 . S
H2738 C2746 0.930 . S
H2739 C2747 0.930 . S
H2740 C2750 0.930 . S
H2741 C2751 0.930 . S
C2742 H2736 0.930 . S
C2742 C2743 1.355 . S
C2742 C2744 1.415 . S
C2743 C2742 1.355 . S
C2743 C2745 1.419 . S
C2744 C2742 1.415 . S
C2744 C2749 1.425 . S
C2744 C2751 1.409 . S
C2745 H2737 0.930 . S
C2745 C2743 1.419 . S
C2745 C2746 1.362 . S
C2746 H2738 0.930 . S
C2746 C2745 1.362 . S
C2746 C2749 1.409 . S
C2747 H2739 0.930 . S
C2747 C2748 1.355 . S
C2747 C2749 1.415 . S
C2748 C2747 1.355 . S
C2748 C2750 1.419 . S
C2749 C2744 1.425 . S
C2749 C2746 1.409 . S
C2749 C2747 1.415 . S
C2750 H2740 0.930 . S
C2750 C2748 1.419 . S
C2750 C2751 1.362 . S
C2751 H2741 0.930 . S
C2751 C2744 1.409 . S
C2751 C2750 1.362 . S
H2752 C2758 0.930 . S
H2753 C2761 0.930 . S
H2754 C2762 0.930 . S
H2755 C2763 0.930 . S
H2756 C2766 0.930 . S
H2757 C2767 0.930 . S
C2758 H2752 0.930 . S
C2758 C2759 1.355 . S
C2758 C2760 1.415 . S
C2759 C2758 1.355 . S
C2759 C2761 1.419 . S
C2760 C2758 1.415 . S
C2760 C2765 1.425 . S
C2760 C2767 1.409 . S
C2761 H2753 0.930 . S
C2761 C2759 1.419 . S
C2761 C2762 1.362 . S
C2762 H2754 0.930 . S
C2762 C2761 1.362 . S
C2762 C2765 1.409 . S
C2763 H2755 0.930 . S
C2763 C2764 1.355 . S
C2763 C2765 1.415 . S
C2764 C2763 1.355 . S
C2764 C2766 1.419 . S
C2765 C2760 1.425 . S
C2765 C2762 1.409 . S
C2765 C2763 1.415 . S
C2766 H2756 0.930 . S
C2766 C2764 1.419 . S
C2766 C2767 1.362 . S
C2767 H2757 0.930 . S
C2767 C2760 1.409 . S
C2767 C2766 1.362 . S
H2768 C2774 0.930 . S
H2769 C2777 0.930 . S
H2770 C2778 0.930 . S
H2771 C2779 0.930 . S
H2772 C2782 0.930 . S
H2773 C2783 0.930 . S
C2774 H2768 0.930 . S
C2774 C2775 1.355 . S
C2774 C2776 1.415 . S
C2775 C2774 1.355 . S
C2775 C2777 1.419 . S
C2776 C2774 1.415 . S
C2776 C2781 1.425 . S
C2776 C2783 1.409 . S
C2777 H2769 0.930 . S
C2777 C2775 1.419 . S
C2777 C2778 1.362 . S
C2778 H2770 0.930 . S
C2778 C2777 1.362 . S
C2778 C2781 1.409 . S
C2779 H2771 0.930 . S
C2779 C2780 1.355 . S
C2779 C2781 1.415 . S
C2780 C2779 1.355 . S
C2780 C2782 1.419 . S
C2781 C2776 1.425 . S
C2781 C2778 1.409 . S
C2781 C2779 1.415 . S
C2782 H2772 0.930 . S
C2782 C2780 1.419 . S
C2782 C2783 1.362 . S
C2783 H2773 0.930 . S
C2783 C2776 1.409 . S
C2783 C2782 1.362 . S
H2784 C2790 0.930 . S
H2785 C2793 0.930 . S
H2786 C2794 0.930 . S
H2787 C2795 0.930 . S
H2788 C2798 0.930 . S
H2789 C2799 0.930 . S
C2790 H2784 0.930 . S
C2790 C2791 1.355 . S
C2790 C2792 1.415 . S
C2791 C2790 1.355 . S
C2791 C2793 1.419 . S
C2792 C2790 1.415 . S
C2792 C2797 1.425 . S
C2792 C2799 1.409 . S
C2793 H2785 0.930 . S
C2793 C2791 1.419 . S
C2793 C2794 1.362 . S
C2794 H2786 0.930 . S
C2794 C2793 1.362 . S
C2794 C2797 1.409 . S
C2795 H2787 0.930 . S
C2795 C2796 1.355 . S
C2795 C2797 1.415 . S
C2796 C2795 1.355 . S
C2796 C2798 1.419 . S
C2797 C2792 1.425 . S
C2797 C2794 1.409 . S
C2797 C2795 1.415 . S
C2798 H2788 0.930 . S
C2798 C2796 1.419 . S
C2798 C2799 1.362 . S
C2799 H2789 0.930 . S
C2799 C2792 1.409 . S
C2799 C2798 1.362 . S
H2800 C2806 0.930 . S
H2801 C2809 0.930 . S
H2802 C2810 0.930 . S
H2803 C2811 0.930 . S
H2804 C2814 0.930 . S
H2805 C2815 0.930 . S
C2806 H2800 0.930 . S
C2806 C2807 1.355 . S
C2806 C2808 1.415 . S
C2807 C2806 1.355 . S
C2807 C2809 1.419 . S
C2808 C2806 1.415 . S
C2808 C2813 1.425 . S
C2808 C2815 1.409 . S
C2809 H2801 0.930 . S
C2809 C2807 1.419 . S
C2809 C2810 1.362 . S
C2810 H2802 0.930 . S
C2810 C2809 1.362 . S
C2810 C2813 1.409 . S
C2811 H2803 0.930 . S
C2811 C2812 1.355 . S
C2811 C2813 1.415 . S
C2812 C2811 1.355 . S
C2812 C2814 1.419 . S
C2813 C2808 1.425 . S
C2813 C2810 1.409 . S
C2813 C2811 1.415 . S
C2814 H2804 0.930 . S
C2814 C2812 1.419 . S
C2814 C2815 1.362 . S
C2815 H2805 0.930 . S
C2815 C2808 1.409 . S
C2815 C2814 1.362 . S
H2816 C2822 0.930 . S
H2817 C2825 0.930 . S
H2818 C2826 0.930 . S
H2819 C2827 0.930 . S
H2820 C2830 0.930 . S
H2821 C2831 0.930 . S
C2822 H2816 0.930 . S
C2822 C2823 1.355 . S
C2822 C2824 1.415 . S
C2823 C2822 1.355 . S
C2823 C2825 1.419 . S
C2824 C2822 1.415 . S
C2824 C2829 1.425 . S
C2824 C2831 1.409 . S
C2825 H2817 0.930 . S
C2825 C2823 1.419 . S
C2825 C2826 1.362 . S
C2826 H2818 0.930 . S
C2826 C2825 1.362 . S
C2826 C2829 1.409 . S
C2827 H2819 0.930 . S
C2827 C2828 1.355 . S
C2827 C2829 1.415 . S
C2828 C2827 1.355 . S
C2828 C2830 1.419 . S
C2829 C2824 1.425 . S
C2829 C2826 1.409 . S
C2829 C2827 1.415 . S
C2830 H2820 0.930 . S
C2830 C2828 1.419 . S
C2830 C2831 1.362 . S
C2831 H2821 0.930 . S
C2831 C2824 1.409 . S
C2831 C2830 1.362 . S
H2832 C2838 0.930 . S
H2833 C2841 0.930 . S
H2834 C2842 0.930 . S
H2835 C2843 0.930 . S
H2836 C2846 0.930 . S
H2837 C2847 0.930 . S
C2838 H2832 0.930 . S
C2838 C2839 1.355 . S
C2838 C2840 1.415 . S
C2839 C2838 1.355 . S
C2839 C2841 1.419 . S
C2840 C2838 1.415 . S
C2840 C2845 1.425 . S
C2840 C2847 1.409 . S
C2841 H2833 0.930 . S
C2841 C2839 1.419 . S
C2841 C2842 1.362 . S
C2842 H2834 0.930 . S
C2842 C2841 1.362 . S
C2842 C2845 1.409 . S
C2843 H2835 0.930 . S
C2843 C2844 1.355 . S
C2843 C2845 1.415 . S
C2844 C2843 1.355 . S
C2844 C2846 1.419 . S
C2845 C2840 1.425 . S
C2845 C2842 1.409 . S
C2845 C2843 1.415 . S
C2846 H2836 0.930 . S
C2846 C2844 1.419 . S
C2846 C2847 1.362 . S
C2847 H2837 0.930 . S
C2847 C2840 1.409 . S
C2847 C2846 1.362 . S
H2848 C2854 0.930 . S
H2849 C2857 0.930 . S
H2850 C2858 0.930 . S
H2851 C2859 0.930 . S
H2852 C2862 0.930 . S
H2853 C2863 0.930 . S
C2854 H2848 0.930 . S
C2854 C2855 1.355 . S
C2854 C2856 1.415 . S
C2855 C2854 1.355 . S
C2855 C2857 1.419 . S
C2856 C2854 1.415 . S
C2856 C2861 1.425 . S
C2856 C2863 1.409 . S
C2857 H2849 0.930 . S
C2857 C2855 1.419 . S
C2857 C2858 1.362 . S
C2858 H2850 0.930 . S
C2858 C2857 1.362 . S
C2858 C2861 1.409 . S
C2859 H2851 0.930 . S
C2859 C2860 1.355 . S
C2859 C2861 1.415 . S
C2860 C2859 1.355 . S
C2860 C2862 1.419 . S
C2861 C2856 1.425 . S
C2861 C2858 1.409 . S
C2861 C2859 1.415 . S
C2862 H2852 0.930 . S
C2862 C2860 1.419 . S
C2862 C2863 1.362 . S
C2863 H2853 0.930 . S
C2863 C2856 1.409 . S
C2863 C2862 1.362 . S
H2864 C2870 0.930 . S
H2865 C2873 0.930 . S
H2866 C2874 0.930 . S
H2867 C2875 0.930 . S
H2868 C2878 0.930 . S
H2869 C2879 0.930 . S
C2870 H2864 0.930 . S
C2870 C2871 1.355 . S
C2870 C2872 1.415 . S
C2871 C2870 1.355 . S
C2871 C2873 1.419 . S
C2872 C2870 1.415 . S
C2872 C2877 1.425 . S
C2872 C2879 1.409 . S
C2873 H2865 0.930 . S
C2873 C2871 1.419 . S
C2873 C2874 1.362 . S
C2874 H2866 0.930 . S
C2874 C2873 1.362 . S
C2874 C2877 1.409 . S
C2875 H2867 0.930 . S
C2875 C2876 1.355 . S
C2875 C2877 1.415 . S
C2876 C2875 1.355 . S
C2876 C2878 1.419 . S
C2877 C2872 1.425 . S
C2877 C2874 1.409 . S
C2877 C2875 1.415 . S
C2878 H2868 0.930 . S
C2878 C2876 1.419 . S
C2878 C2879 1.362 . S
C2879 H2869 0.930 . S
C2879 C2872 1.409 . S
C2879 C2878 1.362 . S
C2119 C1017 1.570 . S
C2124 C49 1.535 . S
C2135 C145 1.559 . S
C2140 C733 1.550 . S
C2151 C233 1.562 . S
C2156 C812 1.547 . S
C2167 C313 1.549 . S
C2172 C929 1.559 . S
C2183 C1164 1.538 . S
C2188 C381 1.570 . S
C2199 C460 1.541 . S
C2204 C1261 1.566 . S
C2215 C1369 1.545 . S
C2220 C557 1.564 . S
C2231 C1105 1.541 . S
C2236 C645 1.566 . S
C2247 C489 1.569 . S
C2252 C761 1.536 . S
C2263 C585 1.546 . S
C2268 C841 1.560 . S
C2279 C900 1.552 . S
C2284 C673 1.554 . S
C2295 C409 1.568 . S
C2300 C988 1.539 . S
C2311 C284 1.540 . S
C2316 C1076 1.569 . S
C2327 C1193 1.535 . S
C2332 C20 1.571 . S
C2343 C1289 1.563 . S
C2348 C117 1.546 . S
C2359 C1340 1.550 . S
C2364 C205 1.558 . S
C2375 C1457 1.544 . S
C2380 C2044 1.561 . S
C2391 C1817 1.571 . S
C2396 C1516 1.534 . S
C2407 C1604 1.565 . S
C2412 C1545 1.544 . S
C2423 C1701 1.534 . S
C2428 C1633 1.571 . S
C2439 C1729 1.568 . S
C2444 C1789 1.537 . S
C2455 C1905 1.542 . S
C2460 C1965 1.565 . S
C2471 C1428 1.539 . S
C2476 C1993 1.569 . S
C2487 C1877 1.542 . S
C2492 C2073 1.567 . S
C2503 C57 1.396 . S
C2508 C548 1.357 . S
C2519 C137 1.355 . S
C2524 C636 1.398 . S
C2535 C225 1.379 . S
C2540 C372 1.372 . S
C2551 C469 1.362 . S
C2556 C321 1.389 . S
C2567 C909 1.394 . S
C2572 C753 1.358 . S
C2583 C849 1.374 . S
C2588 C997 1.376 . S
C2599 C1085 1.387 . S
C2604 C1281 1.364 . S
C2615 C1349 1.394 . S
C2620 C1201 1.361 . S
C2631 C1525 1.387 . S
C2636 C1465 1.364 . S
C2647 C1613 1.357 . S
C2652 C2081 1.397 . S
C2663 C1692 1.389 . S
C2668 C1897 1.363 . S
C2679 C1780 1.394 . S
C2684 C1985 1.358 . S
C2695 C29 0.626 . S
C2700 C497 0.647 . S
C2711 C108 0.643 . S
C2716 C577 0.625 . S
C2727 C196 0.642 . S
C2732 C665 0.633 . S
C2743 C401 0.627 . S
C2748 C293 0.640 . S
C2759 C724 0.644 . S
C2764 C2053 0.624 . S
C2775 C821 0.646 . S
C2780 C1868 0.624 . S
C2791 C1956 0.646 . S
C2796 C937 0.624 . S
C2807 C1025 0.642 . S
C2812 C1437 0.625 . S
C2823 C1809 0.628 . S
C2828 C1113 0.639 . S
C2839 C1553 0.635 . S
C2844 C1173 0.631 . S
C2855 C1252 0.631 . S
C2860 C1641 0.636 . S
C2871 C1721 0.647 . S
C2876 C1377 0.624 . S
