# Generated by pormake.
# Topology wmy, (6)-cn, num edge types: 1
# Building blocks:
#     Node 0, Type 0, BuildingBlock: OJICUG_clean_sbu_0, # of connection points: 6
#     Node 1, Type 0, BuildingBlock: OJICUG_clean_sbu_0, # of connection points: 6
#     Node 2, Type 0, BuildingBlock: OJICUG_clean_sbu_0, # of connection points: 6
#     Node 3, Type 0, BuildingBlock: OJICUG_clean_sbu_0, # of connection points: 6
#     Node 4, Type 0, BuildingBlock: OJICUG_clean_sbu_0, # of connection points: 6
#     Node 5, Type 0, BuildingBlock: OJICUG_clean_sbu_0, # of connection points: 6
#     Node 6, Type 0, BuildingBlock: OJICUG_clean_sbu_0, # of connection points: 6
#     Node 7, Type 0, BuildingBlock: OJICUG_clean_sbu_0, # of connection points: 6
#     Node 8, Type 0, BuildingBlock: OJICUG_clean_sbu_0, # of connection points: 6
#     Node 9, Type 0, BuildingBlock: OJICUG_clean_sbu_0, # of connection points: 6
#     Node 10, Type 0, BuildingBlock: OJICUG_clean_sbu_0, # of connection points: 6
#     Node 11, Type 0, BuildingBlock: OJICUG_clean_sbu_0, # of connection points: 6
#     Node 12, Type 0, BuildingBlock: OJICUG_clean_sbu_0, # of connection points: 6
#     Node 13, Type 0, BuildingBlock: OJICUG_clean_sbu_0, # of connection points: 6
#     Node 14, Type 0, BuildingBlock: OJICUG_clean_sbu_0, # of connection points: 6
#     Node 15, Type 0, BuildingBlock: OJICUG_clean_sbu_0, # of connection points: 6
#     Node 16, Type 0, BuildingBlock: OJICUG_clean_sbu_0, # of connection points: 6
#     Node 17, Type 0, BuildingBlock: OJICUG_clean_sbu_0, # of connection points: 6
#     Node 18, Type 0, BuildingBlock: OJICUG_clean_sbu_0, # of connection points: 6
#     Node 19, Type 0, BuildingBlock: OJICUG_clean_sbu_0, # of connection points: 6
#     Node 20, Type 0, BuildingBlock: OJICUG_clean_sbu_0, # of connection points: 6
#     Node 21, Type 0, BuildingBlock: OJICUG_clean_sbu_0, # of connection points: 6
#     Node 22, Type 0, BuildingBlock: OJICUG_clean_sbu_0, # of connection points: 6
#     Node 23, Type 0, BuildingBlock: OJICUG_clean_sbu_0, # of connection points: 6
#     Node 24, Type 0, BuildingBlock: OJICUG_clean_sbu_0, # of connection points: 6
#     Node 25, Type 0, BuildingBlock: OJICUG_clean_sbu_0, # of connection points: 6
#     Node 26, Type 0, BuildingBlock: OJICUG_clean_sbu_0, # of connection points: 6
#     Node 27, Type 0, BuildingBlock: OJICUG_clean_sbu_0, # of connection points: 6
#     Node 28, Type 0, BuildingBlock: OJICUG_clean_sbu_0, # of connection points: 6
#     Node 29, Type 0, BuildingBlock: OJICUG_clean_sbu_0, # of connection points: 6
#     Node 30, Type 0, BuildingBlock: OJICUG_clean_sbu_0, # of connection points: 6
#     Node 31, Type 0, BuildingBlock: OJICUG_clean_sbu_0, # of connection points: 6
#     Node 32, Type 0, BuildingBlock: OJICUG_clean_sbu_0, # of connection points: 6
#     Node 33, Type 0, BuildingBlock: OJICUG_clean_sbu_0, # of connection points: 6
#     Node 34, Type 0, BuildingBlock: OJICUG_clean_sbu_0, # of connection points: 6
#     Node 35, Type 0, BuildingBlock: OJICUG_clean_sbu_0, # of connection points: 6
#     Edge 36, Type (0, 0), BuildingBlock: XUDNAN_clean_linker_2, # of connection points: 2
#     Edge 37, Type (0, 0), BuildingBlock: XUDNAN_clean_linker_2, # of connection points: 2
#     Edge 38, Type (0, 0), BuildingBlock: XUDNAN_clean_linker_2, # of connection points: 2
#     Edge 39, Type (0, 0), BuildingBlock: XUDNAN_clean_linker_2, # of connection points: 2
#     Edge 40, Type (0, 0), BuildingBlock: XUDNAN_clean_linker_2, # of connection points: 2
#     Edge 41, Type (0, 0), BuildingBlock: XUDNAN_clean_linker_2, # of connection points: 2
#     Edge 42, Type (0, 0), BuildingBlock: XUDNAN_clean_linker_2, # of connection points: 2
#     Edge 43, Type (0, 0), BuildingBlock: XUDNAN_clean_linker_2, # of connection points: 2
#     Edge 44, Type (0, 0), BuildingBlock: XUDNAN_clean_linker_2, # of connection points: 2
#     Edge 45, Type (0, 0), BuildingBlock: XUDNAN_clean_linker_2, # of connection points: 2
#     Edge 46, Type (0, 0), BuildingBlock: XUDNAN_clean_linker_2, # of connection points: 2
#     Edge 47, Type (0, 0), BuildingBlock: XUDNAN_clean_linker_2, # of connection points: 2
#     Edge 48, Type (0, 0), BuildingBlock: XUDNAN_clean_linker_2, # of connection points: 2
#     Edge 49, Type (0, 0), BuildingBlock: XUDNAN_clean_linker_2, # of connection points: 2
#     Edge 50, Type (0, 0), BuildingBlock: XUDNAN_clean_linker_2, # of connection points: 2
#     Edge 51, Type (0, 0), BuildingBlock: XUDNAN_clean_linker_2, # of connection points: 2
#     Edge 52, Type (0, 0), BuildingBlock: XUDNAN_clean_linker_2, # of connection points: 2
#     Edge 53, Type (0, 0), BuildingBlock: XUDNAN_clean_linker_2, # of connection points: 2
#     Edge 54, Type (0, 0), BuildingBlock: XUDNAN_clean_linker_2, # of connection points: 2
#     Edge 55, Type (0, 0), BuildingBlock: XUDNAN_clean_linker_2, # of connection points: 2
#     Edge 56, Type (0, 0), BuildingBlock: XUDNAN_clean_linker_2, # of connection points: 2
#     Edge 57, Type (0, 0), BuildingBlock: XUDNAN_clean_linker_2, # of connection points: 2
#     Edge 58, Type (0, 0), BuildingBlock: XUDNAN_clean_linker_2, # of connection points: 2
#     Edge 59, Type (0, 0), BuildingBlock: XUDNAN_clean_linker_2, # of connection points: 2
#     Edge 60, Type (0, 0), BuildingBlock: XUDNAN_clean_linker_2, # of connection points: 2
#     Edge 61, Type (0, 0), BuildingBlock: XUDNAN_clean_linker_2, # of connection points: 2
#     Edge 62, Type (0, 0), BuildingBlock: XUDNAN_clean_linker_2, # of connection points: 2
#     Edge 63, Type (0, 0), BuildingBlock: XUDNAN_clean_linker_2, # of connection points: 2
#     Edge 64, Type (0, 0), BuildingBlock: XUDNAN_clean_linker_2, # of connection points: 2
#     Edge 65, Type (0, 0), BuildingBlock: XUDNAN_clean_linker_2, # of connection points: 2
#     Edge 66, Type (0, 0), BuildingBlock: XUDNAN_clean_linker_2, # of connection points: 2
#     Edge 67, Type (0, 0), BuildingBlock: XUDNAN_clean_linker_2, # of connection points: 2
#     Edge 68, Type (0, 0), BuildingBlock: XUDNAN_clean_linker_2, # of connection points: 2
#     Edge 69, Type (0, 0), BuildingBlock: XUDNAN_clean_linker_2, # of connection points: 2
#     Edge 70, Type (0, 0), BuildingBlock: XUDNAN_clean_linker_2, # of connection points: 2
#     Edge 71, Type (0, 0), BuildingBlock: XUDNAN_clean_linker_2, # of connection points: 2
#     Edge 72, Type (0, 0), BuildingBlock: XUDNAN_clean_linker_2, # of connection points: 2
#     Edge 73, Type (0, 0), BuildingBlock: XUDNAN_clean_linker_2, # of connection points: 2
#     Edge 74, Type (0, 0), BuildingBlock: XUDNAN_clean_linker_2, # of connection points: 2
#     Edge 75, Type (0, 0), BuildingBlock: XUDNAN_clean_linker_2, # of connection points: 2
#     Edge 76, Type (0, 0), BuildingBlock: XUDNAN_clean_linker_2, # of connection points: 2
#     Edge 77, Type (0, 0), BuildingBlock: XUDNAN_clean_linker_2, # of connection points: 2
#     Edge 78, Type (0, 0), BuildingBlock: XUDNAN_clean_linker_2, # of connection points: 2
#     Edge 79, Type (0, 0), BuildingBlock: XUDNAN_clean_linker_2, # of connection points: 2
#     Edge 80, Type (0, 0), BuildingBlock: XUDNAN_clean_linker_2, # of connection points: 2
#     Edge 81, Type (0, 0), BuildingBlock: XUDNAN_clean_linker_2, # of connection points: 2
#     Edge 82, Type (0, 0), BuildingBlock: XUDNAN_clean_linker_2, # of connection points: 2
#     Edge 83, Type (0, 0), BuildingBlock: XUDNAN_clean_linker_2, # of connection points: 2
#     Edge 84, Type (0, 0), BuildingBlock: XUDNAN_clean_linker_2, # of connection points: 2
#     Edge 85, Type (0, 0), BuildingBlock: XUDNAN_clean_linker_2, # of connection points: 2
#     Edge 86, Type (0, 0), BuildingBlock: XUDNAN_clean_linker_2, # of connection points: 2
#     Edge 87, Type (0, 0), BuildingBlock: XUDNAN_clean_linker_2, # of connection points: 2
#     Edge 88, Type (0, 0), BuildingBlock: XUDNAN_clean_linker_2, # of connection points: 2
#     Edge 89, Type (0, 0), BuildingBlock: XUDNAN_clean_linker_2, # of connection points: 2
#     Edge 90, Type (0, 0), BuildingBlock: XUDNAN_clean_linker_2, # of connection points: 2
#     Edge 91, Type (0, 0), BuildingBlock: XUDNAN_clean_linker_2, # of connection points: 2
#     Edge 92, Type (0, 0), BuildingBlock: XUDNAN_clean_linker_2, # of connection points: 2
#     Edge 93, Type (0, 0), BuildingBlock: XUDNAN_clean_linker_2, # of connection points: 2
#     Edge 94, Type (0, 0), BuildingBlock: XUDNAN_clean_linker_2, # of connection points: 2
#     Edge 95, Type (0, 0), BuildingBlock: XUDNAN_clean_linker_2, # of connection points: 2
#     Edge 96, Type (0, 0), BuildingBlock: XUDNAN_clean_linker_2, # of connection points: 2
#     Edge 97, Type (0, 0), BuildingBlock: XUDNAN_clean_linker_2, # of connection points: 2
#     Edge 98, Type (0, 0), BuildingBlock: XUDNAN_clean_linker_2, # of connection points: 2
#     Edge 99, Type (0, 0), BuildingBlock: XUDNAN_clean_linker_2, # of connection points: 2
#     Edge 100, Type (0, 0), BuildingBlock: XUDNAN_clean_linker_2, # of connection points: 2
#     Edge 101, Type (0, 0), BuildingBlock: XUDNAN_clean_linker_2, # of connection points: 2
#     Edge 102, Type (0, 0), BuildingBlock: XUDNAN_clean_linker_2, # of connection points: 2
#     Edge 103, Type (0, 0), BuildingBlock: XUDNAN_clean_linker_2, # of connection points: 2
#     Edge 104, Type (0, 0), BuildingBlock: XUDNAN_clean_linker_2, # of connection points: 2
#     Edge 105, Type (0, 0), BuildingBlock: XUDNAN_clean_linker_2, # of connection points: 2
#     Edge 106, Type (0, 0), BuildingBlock: XUDNAN_clean_linker_2, # of connection points: 2
#     Edge 107, Type (0, 0), BuildingBlock: XUDNAN_clean_linker_2, # of connection points: 2
#     Edge 108, Type (0, 0), BuildingBlock: XUDNAN_clean_linker_2, # of connection points: 2
#     Edge 109, Type (0, 0), BuildingBlock: XUDNAN_clean_linker_2, # of connection points: 2
#     Edge 110, Type (0, 0), BuildingBlock: XUDNAN_clean_linker_2, # of connection points: 2
#     Edge 111, Type (0, 0), BuildingBlock: XUDNAN_clean_linker_2, # of connection points: 2
#     Edge 112, Type (0, 0), BuildingBlock: XUDNAN_clean_linker_2, # of connection points: 2
#     Edge 113, Type (0, 0), BuildingBlock: XUDNAN_clean_linker_2, # of connection points: 2
#     Edge 114, Type (0, 0), BuildingBlock: XUDNAN_clean_linker_2, # of connection points: 2
#     Edge 115, Type (0, 0), BuildingBlock: XUDNAN_clean_linker_2, # of connection points: 2
#     Edge 116, Type (0, 0), BuildingBlock: XUDNAN_clean_linker_2, # of connection points: 2
#     Edge 117, Type (0, 0), BuildingBlock: XUDNAN_clean_linker_2, # of connection points: 2
#     Edge 118, Type (0, 0), BuildingBlock: XUDNAN_clean_linker_2, # of connection points: 2
#     Edge 119, Type (0, 0), BuildingBlock: XUDNAN_clean_linker_2, # of connection points: 2
#     Edge 120, Type (0, 0), BuildingBlock: XUDNAN_clean_linker_2, # of connection points: 2
#     Edge 121, Type (0, 0), BuildingBlock: XUDNAN_clean_linker_2, # of connection points: 2
#     Edge 122, Type (0, 0), BuildingBlock: XUDNAN_clean_linker_2, # of connection points: 2
#     Edge 123, Type (0, 0), BuildingBlock: XUDNAN_clean_linker_2, # of connection points: 2
#     Edge 124, Type (0, 0), BuildingBlock: XUDNAN_clean_linker_2, # of connection points: 2
#     Edge 125, Type (0, 0), BuildingBlock: XUDNAN_clean_linker_2, # of connection points: 2
#     Edge 126, Type (0, 0), BuildingBlock: XUDNAN_clean_linker_2, # of connection points: 2
#     Edge 127, Type (0, 0), BuildingBlock: XUDNAN_clean_linker_2, # of connection points: 2
#     Edge 128, Type (0, 0), BuildingBlock: XUDNAN_clean_linker_2, # of connection points: 2
#     Edge 129, Type (0, 0), BuildingBlock: XUDNAN_clean_linker_2, # of connection points: 2
#     Edge 130, Type (0, 0), BuildingBlock: XUDNAN_clean_linker_2, # of connection points: 2
#     Edge 131, Type (0, 0), BuildingBlock: XUDNAN_clean_linker_2, # of connection points: 2
#     Edge 132, Type (0, 0), BuildingBlock: XUDNAN_clean_linker_2, # of connection points: 2
#     Edge 133, Type (0, 0), BuildingBlock: XUDNAN_clean_linker_2, # of connection points: 2
#     Edge 134, Type (0, 0), BuildingBlock: XUDNAN_clean_linker_2, # of connection points: 2
#     Edge 135, Type (0, 0), BuildingBlock: XUDNAN_clean_linker_2, # of connection points: 2
#     Edge 136, Type (0, 0), BuildingBlock: XUDNAN_clean_linker_2, # of connection points: 2
#     Edge 137, Type (0, 0), BuildingBlock: XUDNAN_clean_linker_2, # of connection points: 2
#     Edge 138, Type (0, 0), BuildingBlock: XUDNAN_clean_linker_2, # of connection points: 2
#     Edge 139, Type (0, 0), BuildingBlock: XUDNAN_clean_linker_2, # of connection points: 2
#     Edge 140, Type (0, 0), BuildingBlock: XUDNAN_clean_linker_2, # of connection points: 2
#     Edge 141, Type (0, 0), BuildingBlock: XUDNAN_clean_linker_2, # of connection points: 2
#     Edge 142, Type (0, 0), BuildingBlock: XUDNAN_clean_linker_2, # of connection points: 2
#     Edge 143, Type (0, 0), BuildingBlock: XUDNAN_clean_linker_2, # of connection points: 2
# Relax obj value: 0.454
# Max RMSD: 0.185
# Mean RMSD: 0.185
data_MOF--net-wmy--node1-OJICUG_clean_sbu_0--edge1-XUDNAN_clean_linker_2
_symmetry_space_group_name_H-M    P1
_symmetry_Int_Tables_number       1
_symmetry_cell_setting            triclinic
loop_
_symmetry_equiv_pos_as_xyz
'x, y, z'
_cell_length_a     53.966744
_cell_length_b     53.979917
_cell_length_c     57.878201
_cell_angle_alpha  89.999697
_cell_angle_beta   90.055209
_cell_angle_gamma 120.01566
loop_
_atom_site_label
_atom_site_type_symbol
_atom_site_fract_x
_atom_site_fract_y
_atom_site_fract_z
_atom_type_partial_charge
Sc0 Sc 0.0027 0.13522 0.09531 0.0
Sc1 Sc 0.04476 0.20555 0.11405 0.0
Sc2 Sc 0.96928 0.1726 0.11425 0.0
O3 O 0.0057 0.17127 0.10801 0.0
C4 C 0.95332 0.13926 0.06768 0.0
C5 C 0.05275 0.18243 0.06534 0.0
C6 C 0.01128 0.2359 0.09585 0.0
C7 C 0.05744 0.1566 0.12815 0.0
C8 C 0.95233 0.109 0.13045 0.0
C9 C 0.00724 0.20339 0.15777 0.0
O10 O 0.96713 0.12677 0.07329 0.0
O11 O 0.06168 0.20126 0.08127 0.0
O12 O 0.9869 0.21671 0.10308 0.0
O13 O 0.03825 0.13866 0.11474 0.0
O14 O 0.94591 0.12839 0.12661 0.0
O15 O 0.03091 0.21305 0.14699 0.0
O16 O 0.97499 0.11044 0.12267 0.0
O17 O 0.06134 0.18152 0.1316 0.0
O18 O 0.98297 0.18656 0.1488 0.0
O19 O 0.03048 0.15796 0.06734 0.0
O20 O 0.95388 0.15924 0.07967 0.0
O21 O 0.03348 0.23355 0.09703 0.0
Sc22 Sc 0.87204 0.87895 0.09591 0.0
Sc23 Sc 0.80084 0.84769 0.11372 0.0
Sc24 Sc 0.83666 0.80754 0.11462 0.0
O25 O 0.83641 0.84466 0.10815 0.0
C26 C 0.87007 0.82688 0.06748 0.0
C27 C 0.82343 0.88056 0.06586 0.0
C28 C 0.7734 0.78388 0.09531 0.0
C29 C 0.84902 0.90951 0.12999 0.0
C30 C 0.89903 0.85514 0.13166 0.0
C31 C 0.8037 0.81312 0.15764 0.0
O32 O 0.87995 0.85326 0.07193 0.0
O33 O 0.80366 0.86752 0.08067 0.0
O34 O 0.7937 0.77999 0.10175 0.0
O35 O 0.86837 0.90865 0.11819 0.0
O36 O 0.87973 0.82911 0.12903 0.0
O37 O 0.79439 0.82751 0.14701 0.0
O38 O 0.89823 0.87573 0.12191 0.0
O39 O 0.82334 0.88898 0.13055 0.0
O40 O 0.82034 0.8055 0.14862 0.0
O41 O 0.84889 0.88571 0.06893 0.0
O42 O 0.85259 0.80697 0.08069 0.0
O43 O 0.77397 0.80752 0.09748 0.0
Sc44 Sc 0.12833 0.99975 0.09701 0.0
Sc45 Sc 0.15564 0.95745 0.11762 0.0
Sc46 Sc 0.20072 0.03289 0.11385 0.0
O47 O 0.16171 0.9968 0.10959 0.0
C48 C 0.18043 0.04366 0.06519 0.0
C49 C 0.12199 0.94473 0.07052 0.0
C50 C 0.22013 0.98816 0.09928 0.0
C51 C 0.09604 0.95076 0.13384 0.0
C52 C 0.15812 0.05557 0.12808 0.0
C53 C 0.19267 0.99656 0.15958 0.0
O54 O 0.15405 0.02739 0.06973 0.0
O55 O 0.13737 0.93991 0.08438 0.0
O56 O 0.22503 0.01371 0.1008 0.0
O57 O 0.09938 0.97274 0.12319 0.0
O58 O 0.18288 0.05816 0.1277 0.0
O59 O 0.17452 0.97251 0.15091 0.0
O60 O 0.13655 0.03534 0.11822 0.0
O61 O 0.11355 0.94162 0.13238 0.0
O62 O 0.2038 0.0202 0.14861 0.0
O63 O 0.11603 0.96445 0.07381 0.0
O64 O 0.20038 0.04784 0.07921 0.0
O65 O 0.19622 0.96668 0.1045 0.0
Sc66 Sc 0.13233 0.00202 0.38675 0.0
Sc67 Sc 0.20318 0.04108 0.36784 0.0
Sc68 Sc 0.16717 0.96491 0.36912 0.0
O69 O 0.16764 0.00264 0.37447 0.0
C70 C 0.13383 0.95276 0.41654 0.0
C71 C 0.18208 0.0532 0.41552 0.0
C72 C 0.23061 0.00483 0.38774 0.0
C73 C 0.15429 0.05397 0.35144 0.0
C74 C 0.10421 0.94929 0.35234 0.0
C75 C 0.20008 0.00237 0.32507 0.0
O76 O 0.12569 0.97072 0.41246 0.0
O77 O 0.2021 0.05848 0.4013 0.0
O78 O 0.20934 0.98018 0.38373 0.0
O79 O 0.13474 0.03315 0.3626 0.0
O80 O 0.12459 0.94382 0.35343 0.0
O81 O 0.20755 0.02663 0.33414 0.0
O82 O 0.10482 0.97011 0.36294 0.0
O83 O 0.18029 0.0601 0.35198 0.0
O84 O 0.18551 0.97865 0.33555 0.0
O85 O 0.15626 0.03403 0.41199 0.0
O86 O 0.14951 0.94835 0.40272 0.0
O87 O 0.23083 0.02787 0.38295 0.0
Sc88 Sc 0.99693 0.12279 0.3841 0.0
Sc89 Sc 0.95798 0.15443 0.36422 0.0
Sc90 Sc 0.0339 0.19534 0.36811 0.0
O91 O 0.99627 0.15759 0.37203 0.0
C92 C 0.04502 0.17291 0.41519 0.0
C93 C 0.94432 0.11993 0.4115 0.0
C94 C 0.99258 0.2174 0.38577 0.0
C95 C 0.94572 0.09285 0.34787 0.0
C96 C 0.05073 0.14917 0.35082 0.0
C97 C 0.9986 0.19249 0.32318 0.0
O98 O 0.0277 0.14685 0.41042 0.0
O99 O 0.93923 0.1345 0.39693 0.0
O100 O 0.01752 0.22122 0.38259 0.0
O101 O 0.96614 0.09409 0.35965 0.0
O102 O 0.05593 0.17485 0.3527 0.0
O103 O 0.97391 0.17486 0.33117 0.0
O104 O 0.02955 0.12822 0.36051 0.0
O105 O 0.93994 0.11296 0.34765 0.0
O106 O 0.02171 0.20121 0.33445 0.0
O107 O 0.96417 0.11403 0.40886 0.0
O108 O 0.04918 0.19333 0.4019 0.0
O109 O 0.96992 0.19464 0.38011 0.0
Sc110 Sc 0.87155 0.86376 0.38827 0.0
Sc111 Sc 0.84139 0.79526 0.36453 0.0
Sc112 Sc 0.79948 0.82873 0.3708 0.0
O113 O 0.83737 0.82921 0.37451 0.0
C114 C 0.82042 0.85853 0.41971 0.0
C115 C 0.87374 0.81157 0.41251 0.0
C116 C 0.77688 0.76399 0.38357 0.0
C117 C 0.90354 0.84673 0.35124 0.0
C118 C 0.84529 0.89296 0.35634 0.0
C119 C 0.80554 0.80104 0.3238 0.0
O120 O 0.84654 0.86638 0.41601 0.0
O121 O 0.85767 0.79234 0.39809 0.0
O122 O 0.77418 0.78602 0.3849 0.0
O123 O 0.90077 0.86543 0.36239 0.0
O124 O 0.8199 0.87163 0.35591 0.0
O125 O 0.82484 0.79573 0.33075 0.0
O126 O 0.86546 0.89282 0.36748 0.0
O127 O 0.88451 0.82042 0.35135 0.0
O128 O 0.79411 0.8117 0.33662 0.0
O129 O 0.88113 0.8378 0.4102 0.0
O130 O 0.80085 0.84508 0.40488 0.0
O131 O 0.7993 0.76482 0.37592 0.0
Sc132 Sc 0.03189 0.8346 0.87014 0.0
Sc133 Sc 0.9562 0.80257 0.86626 0.0
Sc134 Sc 0.99756 0.87287 0.88612 0.0
O135 O 0.99523 0.83661 0.87407 0.0
C136 C 0.04417 0.86813 0.91736 0.0
C137 C 0.98841 0.77127 0.88701 0.0
C138 C 0.94445 0.82412 0.91391 0.0
C139 C 0.99577 0.80414 0.82483 0.0
C140 C 0.05111 0.8983 0.85285 0.0
C141 C 0.94632 0.8535 0.85022 0.0
O142 O 0.04733 0.8511 0.90418 0.0
O143 O 0.96654 0.77282 0.88133 0.0
O144 O 0.9647 0.84965 0.91101 0.0
O145 O 0.01904 0.81721 0.83619 0.0
O146 O 0.03035 0.89909 0.86229 0.0
O147 O 0.9394 0.8273 0.85021 0.0
O148 O 0.05558 0.87736 0.85503 0.0
O149 O 0.97141 0.79803 0.83297 0.0
O150 O 0.96729 0.87227 0.8618 0.0
O151 O 0.01383 0.79178 0.88424 0.0
O152 O 0.02804 0.87824 0.91233 0.0
O153 O 0.93845 0.80423 0.89933 0.0
Sc154 Sc 0.16951 0.20011 0.869 0.0
Sc155 Sc 0.20254 0.1574 0.86579 0.0
Sc156 Sc 0.13194 0.12755 0.88528 0.0
O157 O 0.16805 0.16175 0.87328 0.0
C158 C 0.1352 0.17871 0.9158 0.0
C159 C 0.23236 0.22063 0.887 0.0
C160 C 0.18095 0.12367 0.91327 0.0
C161 C 0.20125 0.19549 0.82428 0.0
C162 C 0.1065 0.15509 0.85117 0.0
C163 C 0.15222 0.09642 0.84955 0.0
O164 O 0.15211 0.19881 0.90254 0.0
O165 O 0.23155 0.19756 0.88131 0.0
O166 O 0.15532 0.11825 0.91047 0.0
O167 O 0.18772 0.20527 0.83544 0.0
O168 O 0.10568 0.13373 0.86106 0.0
O169 O 0.17836 0.11586 0.84961 0.0
O170 O 0.12726 0.18057 0.85325 0.0
O171 O 0.20742 0.17733 0.83251 0.0
O172 O 0.13316 0.09807 0.86109 0.0
O173 O 0.21168 0.22513 0.88382 0.0
O174 O 0.12575 0.15245 0.91124 0.0
O175 O 0.20075 0.13776 0.8987 0.0
Sc176 Sc 0.80595 0.97721 0.86728 0.0
Sc177 Sc 0.84835 0.05318 0.86498 0.0
Sc178 Sc 0.87767 0.01261 0.88565 0.0
O179 O 0.84384 0.01428 0.87259 0.0
C180 C 0.82558 0.96502 0.91552 0.0
C181 C 0.78334 0.0192 0.88217 0.0
C182 C 0.87967 0.06491 0.91334 0.0
C183 C 0.81369 0.01441 0.82212 0.0
C184 C 0.8518 0.95894 0.85215 0.0
C185 C 0.90977 0.06371 0.85025 0.0
O186 O 0.80579 0.96107 0.90146 0.0
O187 O 0.80679 0.04149 0.87735 0.0
O188 O 0.88638 0.04571 0.91016 0.0
O189 O 0.80311 0.99068 0.83289 0.0
O190 O 0.87237 0.97961 0.86263 0.0
O191 O 0.89101 0.07129 0.85082 0.0
O192 O 0.82628 0.95444 0.85287 0.0
O193 O 0.83088 0.03858 0.83113 0.0
O194 O 0.90734 0.04229 0.86116 0.0
O195 O 0.7797 0.99411 0.88051 0.0
O196 O 0.8519 0.98229 0.91155 0.0
O197 O 0.86521 0.07018 0.89879 0.0
Sc198 Sc 0.8308 0.03056 0.61071 0.0
Sc199 Sc 0.79599 0.95478 0.61622 0.0
Sc200 Sc 0.86601 0.99303 0.59519 0.0
O201 O 0.83086 0.9928 0.60744 0.0
C202 C 0.86285 0.0397 0.56295 0.0
C203 C 0.76681 0.98853 0.59435 0.0
C204 C 0.81555 0.93907 0.56944 0.0
C205 C 0.80007 0.99668 0.6567 0.0
C206 C 0.89438 0.04818 0.62717 0.0
C207 C 0.84593 0.9433 0.6325 0.0
O208 O 0.8475 0.04482 0.57655 0.0
O209 O 0.76714 0.96624 0.6008 0.0
O210 O 0.8414 0.95878 0.57185 0.0
O211 O 0.81348 0.01933 0.64472 0.0
O212 O 0.89393 0.02693 0.61745 0.0
O213 O 0.81992 0.93716 0.63247 0.0
O214 O 0.87371 0.05318 0.62574 0.0
O215 O 0.79302 0.97178 0.64924 0.0
O216 O 0.86505 0.96376 0.62073 0.0
O217 O 0.78814 0.01361 0.59652 0.0
O218 O 0.87138 0.02221 0.5678 0.0
O219 O 0.79591 0.93494 0.58371 0.0
Sc220 Sc 0.96446 0.79743 0.61417 0.0
Sc221 Sc 0.04046 0.84038 0.6159 0.0
Sc222 Sc 0.99948 0.86884 0.59475 0.0
O223 O 0.0014 0.83539 0.60834 0.0
C224 C 0.95282 0.81576 0.56502 0.0
C225 C 0.00687 0.77529 0.59908 0.0
C226 C 0.05278 0.87213 0.56784 0.0
C227 C 0.00222 0.80593 0.65906 0.0
C228 C 0.94566 0.84312 0.62823 0.0
C229 C 0.04987 0.90139 0.63071 0.0
O230 O 0.94814 0.79651 0.57987 0.0
O231 O 0.02908 0.79903 0.60341 0.0
O232 O 0.03338 0.87858 0.57083 0.0
O233 O 0.97822 0.79527 0.64866 0.0
O234 O 0.96582 0.86322 0.61702 0.0
O235 O 0.05786 0.88293 0.63005 0.0
O236 O 0.94152 0.81773 0.62841 0.0
O237 O 0.02616 0.82291 0.64968 0.0
O238 O 0.02834 0.89871 0.61971 0.0
O239 O 0.98165 0.77122 0.60126 0.0
O240 O 0.97018 0.84221 0.5685 0.0
O241 O 0.05767 0.85731 0.58225 0.0
Sc242 Sc 0.19716 0.1603 0.61633 0.0
Sc243 Sc 0.15646 0.19554 0.61529 0.0
Sc244 Sc 0.12561 0.1243 0.59767 0.0
O245 O 0.15979 0.16013 0.60988 0.0
C246 C 0.17776 0.126 0.56954 0.0
C247 C 0.22 0.22303 0.59614 0.0
C248 C 0.12383 0.17243 0.5674 0.0
C249 C 0.19201 0.19404 0.65902 0.0
C250 C 0.14971 0.09811 0.63387 0.0
C251 C 0.09455 0.14742 0.63125 0.0
O252 O 0.1976 0.14373 0.58267 0.0
O253 O 0.19637 0.22238 0.59876 0.0
O254 O 0.11896 0.14707 0.5704 0.0
O255 O 0.19972 0.17742 0.65012 0.0
O256 O 0.12904 0.09863 0.62398 0.0
O257 O 0.11524 0.17301 0.63215 0.0
O258 O 0.17574 0.11748 0.63123 0.0
O259 O 0.17706 0.20273 0.64844 0.0
O260 O 0.09553 0.12809 0.61948 0.0
O261 O 0.22425 0.20299 0.60267 0.0
O262 O 0.15135 0.11607 0.57392 0.0
O263 O 0.13643 0.19215 0.58232 0.0
Sc264 Sc 0.67177 0.47072 0.41399 0.0
Sc265 Sc 0.71272 0.53626 0.44192 0.0
Sc266 Sc 0.63644 0.50134 0.44297 0.0
O267 O 0.67363 0.50279 0.43314 0.0
C268 C 0.62259 0.47938 0.39128 0.0
C269 C 0.72378 0.52469 0.39026 0.0
C270 C 0.6771 0.56721 0.43008 0.0
C271 C 0.72382 0.484 0.44791 0.0
C272 C 0.62046 0.43597 0.44892 0.0
C273 C 0.67551 0.5263 0.48746 0.0
O274 O 0.64048 0.47062 0.39119 0.0
O275 O 0.7308 0.54087 0.40785 0.0
O276 O 0.65246 0.54602 0.43445 0.0
O277 O 0.70347 0.4679 0.43441 0.0
O278 O 0.61551 0.45631 0.45293 0.0
O279 O 0.69918 0.53637 0.47677 0.0
O280 O 0.64025 0.43868 0.43559 0.0
O281 O 0.72993 0.50944 0.45275 0.0
O282 O 0.65123 0.5123 0.47774 0.0
O283 O 0.703 0.49924 0.39029 0.0
O284 O 0.61815 0.49078 0.4088 0.0
O285 O 0.70007 0.56626 0.43157 0.0
Sc286 Sc 0.53021 0.19195 0.41553 0.0
Sc287 Sc 0.46391 0.16927 0.44145 0.0
Sc288 Sc 0.49468 0.12448 0.44185 0.0
O289 O 0.49611 0.16177 0.43299 0.0
C290 C 0.52125 0.13415 0.39214 0.0
C291 C 0.47926 0.19356 0.38994 0.0
C292 C 0.4291 0.10301 0.42936 0.0
C293 C 0.51691 0.23128 0.44894 0.0
C294 C 0.56052 0.17199 0.45132 0.0
C295 C 0.47035 0.13869 0.48653 0.0
O296 O 0.53336 0.1612 0.39386 0.0
O297 O 0.46287 0.1857 0.40751 0.0
O298 O 0.44942 0.09803 0.43334 0.0
O299 O 0.53239 0.22709 0.43477 0.0
O300 O 0.53996 0.14613 0.4521 0.0
O301 O 0.46127 0.1532 0.47587 0.0
O302 O 0.55913 0.19125 0.43988 0.0
O303 O 0.49175 0.21193 0.4542 0.0
O304 O 0.48423 0.1282 0.47691 0.0
O305 O 0.50359 0.19524 0.38999 0.0
O306 O 0.50435 0.11711 0.40729 0.0
O307 O 0.43212 0.12785 0.43026 0.0
Sc308 Sc 0.79615 0.3163 0.41571 0.0
Sc309 Sc 0.82591 0.28236 0.44712 0.0
Sc310 Sc 0.86721 0.35656 0.43522 0.0
O311 O 0.82985 0.31846 0.43265 0.0
C312 C 0.84817 0.35927 0.38364 0.0
C313 C 0.79483 0.25893 0.39963 0.0
C314 C 0.89097 0.31399 0.4294 0.0
C315 C 0.76297 0.27225 0.45582 0.0
C316 C 0.82026 0.37539 0.44279 0.0
C317 C 0.85985 0.32885 0.4853 0.0
O318 O 0.82214 0.34022 0.38673 0.0
O319 O 0.8112 0.25858 0.41527 0.0
O320 O 0.8934 0.33825 0.42518 0.0
O321 O 0.76611 0.2923 0.44249 0.0
O322 O 0.84545 0.37956 0.44595 0.0
O323 O 0.84076 0.30355 0.47976 0.0
O324 O 0.80122 0.35408 0.4317 0.0
O325 O 0.78216 0.26541 0.45836 0.0
O326 O 0.87184 0.34924 0.47088 0.0
O327 O 0.78718 0.27766 0.3985 0.0
O328 O 0.86674 0.36779 0.39966 0.0
O329 O 0.8685 0.29339 0.43801 0.0
Sc330 Sc 0.79595 0.34003 0.7147 0.0
Sc331 Sc 0.86609 0.38293 0.69527 0.0
Sc332 Sc 0.83432 0.30715 0.69533 0.0
O333 O 0.8322 0.34334 0.70172 0.0
C334 C 0.80124 0.2917 0.74283 0.0
C335 C 0.84433 0.39232 0.74361 0.0
C336 C 0.89786 0.3499 0.71268 0.0
C337 C 0.81474 0.39257 0.68043 0.0
C338 C 0.76998 0.28787 0.67972 0.0
C339 C 0.86457 0.34651 0.65157 0.0
O340 O 0.79125 0.30826 0.73923 0.0
O341 O 0.86416 0.39901 0.72889 0.0
O342 O 0.87735 0.32468 0.709 0.0
O343 O 0.79613 0.37115 0.69167 0.0
O344 O 0.79132 0.28386 0.68065 0.0
O345 O 0.87131 0.37005 0.66154 0.0
O346 O 0.76944 0.30817 0.69028 0.0
O347 O 0.84104 0.3999 0.68031 0.0
O348 O 0.85085 0.32217 0.66133 0.0
O349 O 0.81892 0.37185 0.74057 0.0
O350 O 0.8183 0.28948 0.72899 0.0
O351 O 0.89595 0.37201 0.70894 0.0
Sc352 Sc 0.65155 0.45579 0.71777 0.0
Sc353 Sc 0.61222 0.48474 0.69377 0.0
Sc354 Sc 0.68724 0.52806 0.70116 0.0
O355 O 0.65037 0.48961 0.70424 0.0
C356 C 0.69619 0.50686 0.74991 0.0
C357 C 0.59594 0.45164 0.74136 0.0
C358 C 0.6438 0.54867 0.71403 0.0
C359 C 0.6036 0.42358 0.67993 0.0
C360 C 0.70738 0.48399 0.68628 0.0
C361 C 0.65416 0.52191 0.6538 0.0
O362 O 0.67829 0.48067 0.74602 0.0
O363 O 0.59264 0.46769 0.72702 0.0
O364 O 0.66869 0.55187 0.71562 0.0
O365 O 0.62508 0.4268 0.69133 0.0
O366 O 0.71062 0.50902 0.686 0.0
O367 O 0.62966 0.5019 0.66022 0.0
O368 O 0.68747 0.46336 0.69734 0.0
O369 O 0.59549 0.44197 0.68013 0.0
O370 O 0.6758 0.5338 0.66709 0.0
O371 O 0.61523 0.44482 0.73923 0.0
O372 O 0.70211 0.52645 0.73518 0.0
O373 O 0.6227 0.52633 0.70567 0.0
Sc374 Sc 0.53871 0.19682 0.71559 0.0
Sc375 Sc 0.509 0.12664 0.69521 0.0
Sc376 Sc 0.46672 0.16035 0.69813 0.0
O377 O 0.50472 0.16118 0.70288 0.0
C378 C 0.4873 0.19311 0.74579 0.0
C379 C 0.542 0.14728 0.74313 0.0
C380 C 0.44536 0.09707 0.71582 0.0
C381 C 0.57028 0.17745 0.67957 0.0
C382 C 0.51242 0.22389 0.68171 0.0
C383 C 0.47215 0.12929 0.65319 0.0
O384 O 0.51353 0.20192 0.74172 0.0
O385 O 0.52783 0.12747 0.72854 0.0
O386 O 0.44135 0.11808 0.71269 0.0
O387 O 0.56809 0.19617 0.69119 0.0
O388 O 0.4869 0.20287 0.68263 0.0
O389 O 0.48997 0.12268 0.66152 0.0
O390 O 0.53306 0.22409 0.69233 0.0
O391 O 0.55101 0.15118 0.67954 0.0
O392 O 0.46219 0.14257 0.66446 0.0
O393 O 0.54774 0.17292 0.74016 0.0
O394 O 0.46742 0.17741 0.73183 0.0
O395 O 0.46831 0.0975 0.7102 0.0
Sc396 Sc 0.69867 0.16258 0.20276 0.0
Sc397 Sc 0.62343 0.13129 0.19535 0.0
Sc398 Sc 0.66176 0.1933 0.22871 0.0
O399 O 0.66127 0.16236 0.20883 0.0
C400 C 0.70756 0.18256 0.25495 0.0
C401 C 0.65504 0.09656 0.20981 0.0
C402 C 0.60647 0.13721 0.24696 0.0
C403 C 0.66646 0.14272 0.15421 0.0
C404 C 0.71661 0.22835 0.1968 0.0
C405 C 0.61473 0.18527 0.19137 0.0
O406 O 0.71403 0.17271 0.23759 0.0
O407 O 0.63373 0.09879 0.20334 0.0
O408 O 0.62692 0.16276 0.24908 0.0
O409 O 0.68796 0.15157 0.16746 0.0
O410 O 0.69668 0.22617 0.20981 0.0
O411 O 0.60813 0.15999 0.18565 0.0
O412 O 0.72074 0.20748 0.19264 0.0
O413 O 0.6416 0.13628 0.16127 0.0
O414 O 0.63389 0.19969 0.20624 0.0
O415 O 0.68015 0.11796 0.21189 0.0
O416 O 0.68927 0.19074 0.25407 0.0
O417 O 0.60166 0.12268 0.22848 0.0
Sc418 Sc 0.84657 0.53889 0.2005 0.0
Sc419 Sc 0.87367 0.49154 0.19358 0.0
Sc420 Sc 0.80663 0.46743 0.21904 0.0
O421 O 0.84231 0.49934 0.20435 0.0
C422 C 0.81736 0.52106 0.24964 0.0
C423 C 0.91037 0.55592 0.21247 0.0
C424 C 0.85617 0.45886 0.24138 0.0
C425 C 0.87096 0.52949 0.1531 0.0
C426 C 0.78034 0.49787 0.18876 0.0
C427 C 0.81807 0.43144 0.18171 0.0
O428 O 0.83228 0.53996 0.23481 0.0
O429 O 0.90726 0.53237 0.20511 0.0
O430 O 0.8308 0.45459 0.24022 0.0
O431 O 0.86181 0.5422 0.16602 0.0
O432 O 0.77867 0.4767 0.19962 0.0
O433 O 0.84479 0.44901 0.18061 0.0
O434 O 0.80333 0.5219 0.18706 0.0
O435 O 0.87458 0.50908 0.15994 0.0
O436 O 0.80118 0.43645 0.1934 0.0
O437 O 0.88988 0.56107 0.21345 0.0
O438 O 0.80723 0.49442 0.24646 0.0
O439 O 0.87542 0.47361 0.22657 0.0
Sc440 Sc 0.47247 0.31243 0.20367 0.0
Sc441 Sc 0.51367 0.38729 0.19431 0.0
Sc442 Sc 0.54156 0.35216 0.22642 0.0
O443 O 0.50914 0.3506 0.20798 0.0
C444 C 0.48807 0.30239 0.25341 0.0
C445 C 0.44935 0.35525 0.21318 0.0
C446 C 0.53929 0.40526 0.24545 0.0
C447 C 0.47933 0.34185 0.15479 0.0
C448 C 0.52321 0.2983 0.19481 0.0
C449 C 0.5771 0.40165 0.18932 0.0
O450 O 0.46923 0.29973 0.23906 0.0
O451 O 0.47269 0.3772 0.20731 0.0
O452 O 0.54171 0.38334 0.24914 0.0
O453 O 0.47029 0.32037 0.16803 0.0
O454 O 0.54264 0.32119 0.20416 0.0
O455 O 0.5559 0.40197 0.18014 0.0
O456 O 0.49677 0.29129 0.19465 0.0
O457 O 0.49552 0.36747 0.16151 0.0
O458 O 0.57458 0.38596 0.20646 0.0
O459 O 0.44519 0.3299 0.21232 0.0
O460 O 0.5146 0.31896 0.25012 0.0
O461 O 0.53171 0.41079 0.22616 0.0
Sc462 Sc 0.4955 0.35964 0.9434 0.0
Sc463 Sc 0.46549 0.28402 0.94527 0.0
Sc464 Sc 0.53405 0.32725 0.92332 0.0
O465 O 0.49823 0.3237 0.93735 0.0
C466 C 0.52461 0.37214 0.89387 0.0
C467 C 0.43122 0.31537 0.92953 0.0
C468 C 0.48467 0.2728 0.89687 0.0
C469 C 0.469 0.32162 0.98864 0.0
C470 C 0.56052 0.38098 0.95698 0.0
C471 C 0.51914 0.27729 0.9588 0.0
O472 O 0.51014 0.37641 0.90909 0.0
O473 O 0.43379 0.29382 0.93414 0.0
O474 O 0.51038 0.29263 0.89984 0.0
O475 O 0.48034 0.34537 0.97788 0.0
O476 O 0.56149 0.36167 0.94529 0.0
O477 O 0.4924 0.26791 0.9581 0.0
O478 O 0.53855 0.38388 0.95759 0.0
O479 O 0.46322 0.29789 0.97944 0.0
O480 O 0.53724 0.29964 0.94825 0.0
O481 O 0.45195 0.34091 0.93082 0.0
O482 O 0.53457 0.35546 0.89702 0.0
O483 O 0.46485 0.26748 0.91126 0.0
Sc484 Sc 0.63816 0.13532 0.94343 0.0
Sc485 Sc 0.71414 0.17736 0.94201 0.0
Sc486 Sc 0.67227 0.20611 0.92342 0.0
O487 O 0.67491 0.17286 0.93635 0.0
C488 C 0.62234 0.15241 0.89604 0.0
C489 C 0.67894 0.11254 0.92523 0.0
C490 C 0.72209 0.20729 0.89317 0.0
C491 C 0.67777 0.14454 0.98677 0.0
C492 C 0.62207 0.18236 0.95946 0.0
C493 C 0.72698 0.23968 0.95609 0.0
O494 O 0.62095 0.13303 0.90938 0.0
O495 O 0.70163 0.13654 0.92733 0.0
O496 O 0.70159 0.21216 0.89628 0.0
O497 O 0.65323 0.13522 0.97762 0.0
O498 O 0.64326 0.20306 0.94963 0.0
O499 O 0.73276 0.2196 0.95719 0.0
O500 O 0.61579 0.15642 0.95709 0.0
O501 O 0.70129 0.15914 0.97596 0.0
O502 O 0.70593 0.23754 0.94466 0.0
O503 O 0.65445 0.10819 0.93123 0.0
O504 O 0.63822 0.17897 0.90023 0.0
O505 O 0.7298 0.19539 0.90827 0.0
Sc506 Sc 0.86329 0.5058 0.9421 0.0
Sc507 Sc 0.81902 0.53705 0.94634 0.0
Sc508 Sc 0.79087 0.46721 0.92601 0.0
O509 O 0.82451 0.50349 0.93819 0.0
C510 C 0.84287 0.47421 0.89427 0.0
C511 C 0.88292 0.57027 0.92745 0.0
C512 C 0.78443 0.51528 0.89928 0.0
C513 C 0.8566 0.53421 0.98782 0.0
C514 C 0.81957 0.44081 0.95734 0.0
C515 C 0.75898 0.48549 0.9627 0.0
O516 O 0.86303 0.49189 0.90723 0.0
O517 O 0.85856 0.56743 0.93133 0.0
O518 O 0.78027 0.4901 0.90167 0.0
O519 O 0.866 0.52007 0.97701 0.0
O520 O 0.7978 0.44085 0.94923 0.0
O521 O 0.77815 0.5117 0.96293 0.0
O522 O 0.84488 0.46187 0.95483 0.0
O523 O 0.8399 0.54199 0.97903 0.0
O524 O 0.76108 0.46701 0.95062 0.0
O525 O 0.88827 0.55005 0.9304 0.0
O526 O 0.81658 0.46293 0.89969 0.0
O527 O 0.79839 0.5352 0.91382 0.0
Sc528 Sc 0.33189 0.80447 0.75553 0.0
Sc529 Sc 0.3719 0.86663 0.78714 0.0
Sc530 Sc 0.29696 0.83671 0.78103 0.0
O531 O 0.33357 0.83612 0.77479 0.0
C532 C 0.28228 0.81124 0.73168 0.0
C533 C 0.38428 0.85789 0.73418 0.0
C534 C 0.3425 0.90286 0.77253 0.0
C535 C 0.38325 0.81594 0.78981 0.0
C536 C 0.28072 0.77071 0.78904 0.0
C537 C 0.32945 0.857 0.82901 0.0
O538 O 0.29631 0.79843 0.73467 0.0
O539 O 0.39285 0.87017 0.75384 0.0
O540 O 0.31664 0.88248 0.77396 0.0
O541 O 0.36724 0.80428 0.77244 0.0
O542 O 0.27389 0.79036 0.78892 0.0
O543 O 0.35451 0.86622 0.82092 0.0
O544 O 0.30336 0.77384 0.77956 0.0
O545 O 0.38424 0.83704 0.80021 0.0
O546 O 0.30696 0.84495 0.81674 0.0
O547 O 0.36047 0.83495 0.73137 0.0
O548 O 0.28329 0.82968 0.74568 0.0
O549 O 0.36382 0.89945 0.77605 0.0
Sc550 Sc 0.19024 0.52967 0.75982 0.0
Sc551 Sc 0.12461 0.50322 0.7882 0.0
Sc552 Sc 0.15672 0.45992 0.78253 0.0
O553 O 0.15718 0.4976 0.77694 0.0
C554 C 0.1817 0.47509 0.73162 0.0
C555 C 0.13694 0.53254 0.73908 0.0
C556 C 0.09206 0.43839 0.76997 0.0
C557 C 0.17817 0.56583 0.79694 0.0
C558 C 0.22184 0.50637 0.79256 0.0
C559 C 0.13149 0.46887 0.82956 0.0
O560 O 0.18887 0.50135 0.73299 0.0
O561 O 0.11943 0.51854 0.75512 0.0
O562 O 0.11339 0.43446 0.76985 0.0
O563 O 0.19503 0.56184 0.7842 0.0
O564 O 0.20027 0.48159 0.79596 0.0
O565 O 0.12616 0.48795 0.82225 0.0
O566 O 0.22104 0.52479 0.77942 0.0
O567 O 0.15207 0.54682 0.79986 0.0
O568 O 0.14152 0.45679 0.81691 0.0
O569 O 0.16284 0.53839 0.73899 0.0
O570 O 0.17115 0.45793 0.74846 0.0
O571 O 0.0933 0.46124 0.77708 0.0
Sc572 Sc 0.45727 0.65174 0.76513 0.0
Sc573 Sc 0.48535 0.61305 0.7914 0.0
Sc574 Sc 0.52731 0.68893 0.78722 0.0
O575 O 0.49005 0.6513 0.78142 0.0
C576 C 0.51074 0.6966 0.73579 0.0
C577 C 0.45205 0.59456 0.74427 0.0
C578 C 0.54976 0.64672 0.77314 0.0
C579 C 0.42385 0.60523 0.80364 0.0
C580 C 0.48228 0.70925 0.79479 0.0
C581 C 0.51965 0.65399 0.8334 0.0
O582 O 0.48468 0.67696 0.73751 0.0
O583 O 0.46823 0.59216 0.75886 0.0
O584 O 0.55357 0.67179 0.77532 0.0
O585 O 0.42737 0.62637 0.79145 0.0
O586 O 0.50623 0.71152 0.79986 0.0
O587 O 0.50285 0.62951 0.82483 0.0
O588 O 0.46378 0.68938 0.78224 0.0
O589 O 0.44242 0.59725 0.80481 0.0
O590 O 0.52993 0.67723 0.8221 0.0
O591 O 0.44577 0.61422 0.74522 0.0
O592 O 0.52839 0.7042 0.75252 0.0
O593 O 0.52665 0.62419 0.77839 0.0
Sc594 Sc 0.47228 0.68064 0.05964 0.0
Sc595 Sc 0.54152 0.7203 0.03773 0.0
Sc596 Sc 0.51011 0.64542 0.04542 0.0
O597 O 0.50801 0.68205 0.04761 0.0
C598 C 0.47781 0.63639 0.0931 0.0
C599 C 0.52291 0.73569 0.08468 0.0
C600 C 0.57431 0.68907 0.05783 0.0
C601 C 0.48969 0.7295 0.02257 0.0
C602 C 0.44593 0.62438 0.02889 0.0
C603 C 0.53783 0.67853 -0.00187 0.0
O604 O 0.46885 0.65347 0.08806 0.0
O605 O 0.54293 0.73915 0.07104 0.0
O606 O 0.55266 0.66424 0.05997 0.0
O607 O 0.47078 0.70743 0.03294 0.0
O608 O 0.4677 0.62113 0.03008 0.0
O609 O 0.54196 0.70299 0.00435 0.0
O610 O 0.44489 0.64488 0.03863 0.0
O611 O 0.51612 0.73755 0.02381 0.0
O612 O 0.52777 0.65682 0.01139 0.0
O613 O 0.49684 0.71666 0.08162 0.0
O614 O 0.49316 0.63125 0.07951 0.0
O615 O 0.57269 0.70997 0.0496 0.0
Sc616 Sc 0.33704 0.80243 0.06241 0.0
Sc617 Sc 0.292 0.82687 0.04256 0.0
Sc618 Sc 0.36743 0.87185 0.03968 0.0
O619 O 0.33212 0.83379 0.04817 0.0
C620 C 0.38603 0.85885 0.08762 0.0
C621 C 0.28592 0.79874 0.09212 0.0
C622 C 0.3244 0.89218 0.05774 0.0
C623 C 0.28275 0.7656 0.02986 0.0
C624 C 0.38647 0.82614 0.02562 0.0
C625 C 0.32638 0.85926 -0.00314 0.0
O626 O 0.37123 0.83194 0.08452 0.0
O627 O 0.27695 0.8088 0.07642 0.0
O628 O 0.34905 0.89769 0.05094 0.0
O629 O 0.30377 0.76902 0.0421 0.0
O630 O 0.39136 0.85179 0.02677 0.0
O631 O 0.30348 0.84473 0.00842 0.0
O632 O 0.36607 0.80566 0.03633 0.0
O633 O 0.27595 0.78486 0.02767 0.0
O634 O 0.35136 0.8694 0.00537 0.0
O635 O 0.30783 0.79603 0.0897 0.0
O636 O 0.38565 0.87694 0.07376 0.0
O637 O 0.30258 0.86736 0.05685 0.0
Sc638 Sc 0.21449 0.5342 0.05944 0.0
Sc639 Sc 0.18465 0.46434 0.03859 0.0
Sc640 Sc 0.14338 0.4992 0.04008 0.0
O641 O 0.1807 0.49912 0.04596 0.0
C642 C 0.16198 0.53007 0.08847 0.0
C643 C 0.2146 0.48325 0.0875 0.0
C644 C 0.11925 0.43403 0.05443 0.0
C645 C 0.24706 0.51446 0.025 0.0
C646 C 0.1905 0.56354 0.02606 0.0
C647 C 0.15172 0.47011 -0.00486 0.0
O648 O 0.18836 0.53943 0.08457 0.0
O649 O 0.20083 0.46369 0.07265 0.0
O650 O 0.11603 0.45568 0.05218 0.0
O651 O 0.2447 0.53345 0.03602 0.0
O652 O 0.16473 0.54297 0.02683 0.0
O653 O 0.1678 0.46198 0.00458 0.0
O654 O 0.21085 0.56249 0.03604 0.0
O655 O 0.22759 0.48834 0.02487 0.0
O656 O 0.1417 0.48399 0.00555 0.0
O657 O 0.22142 0.50918 0.08435 0.0
O658 O 0.14231 0.51398 0.07444 0.0
O659 O 0.14275 0.43486 0.05056 0.0
Sc660 Sc 0.35503 0.48683 0.54859 0.0
Sc661 Sc 0.28039 0.45414 0.53813 0.0
Sc662 Sc 0.31577 0.51762 0.56975 0.0
O663 O 0.31707 0.4861 0.55216 0.0
C664 C 0.35875 0.50754 0.60056 0.0
C665 C 0.31247 0.42068 0.55505 0.0
C666 C 0.25799 0.46232 0.58603 0.0
C667 C 0.32573 0.46592 0.49907 0.0
C668 C 0.37405 0.55243 0.54164 0.0
C669 C 0.27185 0.50815 0.52998 0.0
O670 O 0.36765 0.49883 0.58389 0.0
O671 O 0.29142 0.42223 0.54686 0.0
O672 O 0.27704 0.48857 0.58694 0.0
O673 O 0.34642 0.47439 0.51321 0.0
O674 O 0.35369 0.55027 0.55399 0.0
O675 O 0.26406 0.48183 0.52738 0.0
O676 O 0.37763 0.53129 0.53735 0.0
O677 O 0.30061 0.45999 0.50496 0.0
O678 O 0.29227 0.52458 0.54323 0.0
O679 O 0.33679 0.44261 0.55888 0.0
O680 O 0.3392 0.51397 0.59828 0.0
O681 O 0.2572 0.44533 0.57043 0.0
Sc682 Sc 0.50106 0.86379 0.54262 0.0
Sc683 Sc 0.53201 0.8191 0.5419 0.0
Sc684 Sc 0.46565 0.79565 0.56826 0.0
O685 O 0.49971 0.82629 0.55092 0.0
C686 C 0.47528 0.85309 0.59288 0.0
C687 C 0.56689 0.88552 0.55416 0.0
C688 C 0.51712 0.79321 0.59272 0.0
C689 C 0.52465 0.84965 0.49725 0.0
C690 C 0.4348 0.81699 0.53383 0.0
C691 C 0.47865 0.75688 0.53423 0.0
O692 O 0.49099 0.87035 0.5773 0.0
O693 O 0.56399 0.86081 0.55226 0.0
O694 O 0.49212 0.78994 0.59259 0.0
O695 O 0.51174 0.86083 0.50742 0.0
O696 O 0.43607 0.7977 0.54533 0.0
O697 O 0.50431 0.77591 0.53 0.0
O698 O 0.45585 0.84251 0.53233 0.0
O699 O 0.53324 0.8344 0.50742 0.0
O700 O 0.46254 0.76125 0.54753 0.0
O701 O 0.54627 0.89034 0.55132 0.0
O702 O 0.46394 0.82608 0.59127 0.0
O703 O 0.53441 0.8036 0.57583 0.0
Sc704 Sc 0.12664 0.63138 0.54293 0.0
Sc705 Sc 0.16767 0.70735 0.53752 0.0
Sc706 Sc 0.19587 0.66994 0.56628 0.0
O707 O 0.16335 0.66954 0.54874 0.0
C708 C 0.14166 0.6219 0.59378 0.0
C709 C 0.10236 0.67284 0.5544 0.0
C710 C 0.19393 0.72304 0.58811 0.0
C711 C 0.13493 0.66501 0.49583 0.0
C712 C 0.17594 0.61577 0.53377 0.0
C713 C 0.23111 0.71938 0.52935 0.0
O714 O 0.12365 0.61617 0.57768 0.0
O715 O 0.12553 0.69537 0.5492 0.0
O716 O 0.1996 0.7029 0.58876 0.0
O717 O 0.12477 0.64248 0.50799 0.0
O718 O 0.19459 0.63678 0.54542 0.0
O719 O 0.21108 0.7246 0.52495 0.0
O720 O 0.15015 0.61034 0.53166 0.0
O721 O 0.1517 0.68998 0.50369 0.0
O722 O 0.22822 0.70019 0.54355 0.0
O723 O 0.09902 0.64783 0.55321 0.0
O724 O 0.16803 0.64013 0.5916 0.0
O725 O 0.18318 0.72831 0.57052 0.0
Sc726 Sc 0.16794 0.69465 0.28728 0.0
Sc727 Sc 0.13442 0.6188 0.28694 0.0
Sc728 Sc 0.2057 0.66051 0.2695 0.0
O729 O 0.16932 0.65799 0.28136 0.0
C730 C 0.20244 0.70946 0.2405 0.0
C731 C 0.10573 0.65323 0.26659 0.0
C732 C 0.15814 0.60868 0.23986 0.0
C733 C 0.13451 0.65575 0.33005 0.0
C734 C 0.23139 0.71266 0.30443 0.0
C735 C 0.18408 0.60805 0.30448 0.0
O736 O 0.18509 0.71188 0.25384 0.0
O737 O 0.10683 0.63063 0.27008 0.0
O738 O 0.18342 0.62924 0.24314 0.0
O739 O 0.15035 0.68012 0.32092 0.0
O740 O 0.2317 0.69194 0.2944 0.0
O741 O 0.15798 0.60151 0.30418 0.0
O742 O 0.2105 0.71725 0.30268 0.0
O743 O 0.1268 0.63213 0.31981 0.0
O744 O 0.20345 0.62866 0.293 0.0
O745 O 0.12547 0.67792 0.27271 0.0
O746 O 0.21218 0.69277 0.24464 0.0
O747 O 0.13804 0.6019 0.25428 0.0
Sc748 Sc 0.30723 0.47039 0.28834 0.0
Sc749 Sc 0.38248 0.51723 0.29 0.0
Sc750 Sc 0.33765 0.54186 0.26982 0.0
O751 O 0.34245 0.50974 0.28275 0.0
C752 C 0.2912 0.48745 0.24099 0.0
C753 C 0.35265 0.453 0.27142 0.0
C754 C 0.39146 0.5488 0.24166 0.0
C755 C 0.34562 0.48028 0.33286 0.0
C756 C 0.28573 0.51326 0.30462 0.0
C757 C 0.38943 0.57713 0.30473 0.0
O758 O 0.29022 0.46838 0.2544 0.0
O759 O 0.3739 0.4775 0.27561 0.0
O760 O 0.36977 0.55197 0.24395 0.0
O761 O 0.32156 0.46905 0.32259 0.0
O762 O 0.30568 0.53496 0.29463 0.0
O763 O 0.39712 0.55846 0.3057 0.0
O764 O 0.28216 0.48818 0.30279 0.0
O765 O 0.36926 0.49789 0.3234 0.0
O766 O 0.36834 0.57378 0.29267 0.0
O767 O 0.32694 0.44685 0.2749 0.0
O768 O 0.30621 0.51408 0.24518 0.0
O769 O 0.39893 0.53672 0.25682 0.0
Sc770 Sc 0.53373 0.84092 0.28508 0.0
Sc771 Sc 0.49278 0.87605 0.28886 0.0
Sc772 Sc 0.46285 0.80738 0.26506 0.0
O773 O 0.49652 0.84152 0.27977 0.0
C774 C 0.51503 0.81108 0.23607 0.0
C775 C 0.55674 0.90494 0.26915 0.0
C776 C 0.46279 0.85969 0.23944 0.0
C777 C 0.52765 0.87018 0.33092 0.0
C778 C 0.48591 0.77736 0.29918 0.0
C779 C 0.43061 0.82531 0.30185 0.0
O780 O 0.53416 0.82516 0.25106 0.0
O781 O 0.53409 0.90503 0.27492 0.0
O782 O 0.45666 0.83377 0.24101 0.0
O783 O 0.53764 0.85731 0.31917 0.0
O784 O 0.46631 0.77818 0.28769 0.0
O785 O 0.45035 0.85126 0.30356 0.0
O786 O 0.51169 0.79792 0.29949 0.0
O787 O 0.51038 0.87762 0.3228 0.0
O788 O 0.43261 0.80743 0.28891 0.0
O789 O 0.56015 0.88347 0.27161 0.0
O790 O 0.48879 0.80298 0.23923 0.0
O791 O 0.47537 0.87792 0.25548 0.0
H792 H 0.04538 0.14456 0.03127 0.0
H793 H 0.09659 0.23431 0.04998 0.0
H794 H 0.12288 0.24378 0.013 0.0
H795 H 0.10139 0.13805 0.00523 0.0
H796 H 0.07871 0.11393 0.98303 0.0
H797 H 0.06375 0.11474 0.0106 0.0
H798 H 0.02676 0.12468 0.9902 0.0
H799 H 0.04161 0.12394 0.96254 0.0
H800 H 0.03913 0.15479 0.97092 0.0
H801 H 0.14344 0.2429 0.97373 0.0
H802 H 0.15765 0.23158 0.93635 0.0
H803 H 0.09264 0.14227 0.94479 0.0
C804 C 0.06202 0.1663 0.02767 0.0
C805 C 0.06888 0.18873 0.0435 0.0
C806 C 0.09101 0.21678 0.0381 0.0
C807 C 0.10597 0.22237 0.01714 0.0
C808 C 0.09853 0.19965 0.00194 0.0
C809 C 0.07713 0.17218 0.00705 0.0
C810 C 0.07348 0.15128 0.98822 0.0
C811 C 0.07972 0.12815 -0.00268 0.0
C812 C 0.04347 0.1379 0.97733 0.0
C813 C 0.0963 0.17125 0.97163 0.0
C814 C 0.11045 0.19908 0.97971 0.0
C815 C 0.13249 0.22118 0.96724 0.0
C816 C 0.14036 0.21454 0.94603 0.0
C817 C 0.12631 0.18602 0.93767 0.0
C818 C 0.10392 0.16426 0.95069 0.0
H819 H 0.86151 0.91504 0.03327 0.0
H820 H 0.77061 0.86804 0.04884 0.0
H821 H 0.76058 0.8841 0.0117 0.0
H822 H 0.86263 0.97556 0.00689 0.0
H823 H 0.88895 0.97982 0.98572 0.0
H824 H 0.88835 0.96455 0.0135 0.0
H825 H 0.88426 0.91972 -0.00677 0.0
H826 H 0.88458 0.93481 0.96542 0.0
H827 H 0.85551 0.89992 0.97307 0.0
H828 H 0.76103 0.90542 0.9721 0.0
H829 H 0.77207 0.93084 0.93456 0.0
H830 H 0.86264 0.96323 0.94655 0.0
C831 C 0.83943 0.90803 0.02899 0.0
C832 C 0.81685 0.89024 0.04399 0.0
C833 C 0.7883 0.88175 0.03765 0.0
C834 C 0.78239 0.8907 0.01658 0.0
C835 C 0.80527 0.90817 0.00218 0.0
C836 C 0.8332 0.91678 0.00824 0.0
C837 C 0.85412 0.93561 0.99 0.0
C838 C 0.87471 0.96566 -0.00039 0.0
C839 C 0.87057 0.92167 0.97983 0.0
C840 C 0.83363 0.93631 0.97264 0.0
C841 C 0.80553 0.92037 0.97981 0.0
C842 C 0.78298 0.91799 0.96634 0.0
C843 C 0.78944 0.93245 0.94505 0.0
C844 C 0.81821 0.9491 0.9376 0.0
C845 C 0.8404 0.95083 0.95168 0.0
H846 H 0.08667 0.94765 0.03826 0.0
H847 H 0.13418 0.90421 0.05367 0.0
H848 H 0.11931 0.87926 0.01601 0.0
H849 H 0.02725 0.88875 0.00876 0.0
H850 H 0.02414 0.91206 0.98814 0.0
H851 H 0.03742 0.92489 0.01677 0.0
H852 H 0.08316 0.9672 -0.00099 0.0
H853 H 0.07024 0.95423 0.97035 0.0
H854 H 0.10469 0.95997 0.97938 0.0
H855 H 0.10042 0.8606 0.97562 0.0
H856 H 0.07776 0.84854 0.93696 0.0
H857 H 0.04373 0.90528 0.94914 0.0
C858 C 0.09382 0.93272 0.03393 0.0
C859 C 0.11161 0.9279 0.04896 0.0
C860 C 0.12045 0.90818 0.04248 0.0
C861 C 0.11218 0.89397 0.02111 0.0
C862 C 0.09505 0.8997 0.00656 0.0
C863 C 0.08585 0.91848 0.01282 0.0
C864 C 0.06813 0.92156 -0.00593 0.0
C865 C 0.03742 0.91118 0.00244 0.0
C866 C 0.08242 0.95257 0.98518 0.0
C867 C 0.06887 0.90168 0.97613 0.0
C868 C 0.08444 0.88921 0.98355 0.0
C869 C 0.0881 0.87017 0.96967 0.0
C870 C 0.07523 0.86353 0.94773 0.0
C871 C 0.05893 0.87594 0.93997 0.0
C872 C 0.05598 0.89535 0.95444 0.0
H873 H 0.14367 0.05056 0.44724 0.0
H874 H 0.23502 0.09073 0.43435 0.0
H875 H 0.24452 0.11368 0.47294 0.0
H876 H 0.14494 0.10903 0.47782 0.0
H877 H 0.11703 0.08567 0.49742 0.0
H878 H 0.11814 0.07371 0.46861 0.0
H879 H 0.11846 0.0294 0.48561 0.0
H880 H 0.11776 0.0414 0.51448 0.0
H881 H 0.14582 0.03441 0.50603 0.0
H882 H 0.24328 0.1314 0.51379 0.0
H883 H 0.23158 0.14341 0.55202 0.0
H884 H 0.14101 0.08993 0.5368 0.0
C885 C 0.16577 0.06429 0.45232 0.0
C886 C 0.18862 0.06884 0.43771 0.0
C887 C 0.21715 0.08703 0.4452 0.0
C888 C 0.22274 0.10005 0.4671 0.0
C889 C 0.19956 0.09462 0.48117 0.0
C890 C 0.17166 0.07725 0.47393 0.0
C891 C 0.15035 0.07433 0.49211 0.0
C892 C 0.13153 0.08642 0.48347 0.0
C893 C 0.13204 0.04304 0.50002 0.0
C894 C 0.17056 0.09278 0.51088 0.0
C895 C 0.19885 0.10437 0.50438 0.0
C896 C 0.22119 0.12242 0.51903 0.0
C897 C 0.21432 0.12905 0.54072 0.0
C898 C 0.18536 0.1176 0.54749 0.0
C899 C 0.16337 0.09903 0.53232 0.0
H900 H 0.89857 0.03716 0.53082 0.0
H901 H 0.84574 0.07548 0.54379 0.0
H902 H 0.85944 0.0993 0.50568 0.0
H903 H 0.95566 0.0975 0.50286 0.0
H904 H 0.96225 0.07614 0.48257 0.0
H905 H 0.94771 0.06192 0.51061 0.0
H906 H 0.90466 0.0181 0.49129 0.0
H907 H 0.91903 0.03226 0.46318 0.0
H908 H 0.88316 0.02379 0.47045 0.0
H909 H 0.87967 0.1193 0.46587 0.0
H910 H 0.90572 0.13466 0.42868 0.0
H911 H 0.94451 0.08254 0.44302 0.0
C912 C 0.88975 0.05049 0.52574 0.0
C913 C 0.87104 0.05439 0.54033 0.0
C914 C 0.86016 0.07217 0.53293 0.0
C915 C 0.86775 0.08574 0.5113 0.0
C916 C 0.88622 0.0813 0.49735 0.0
C917 C 0.89711 0.06416 0.50437 0.0
C918 C 0.91693 0.06312 0.48651 0.0
C919 C 0.94743 0.07541 0.49622 0.0
C920 C 0.90523 0.0325 0.47732 0.0
C921 C 0.91561 0.08246 0.46833 0.0
C922 C 0.89776 0.09272 0.47474 0.0
C923 C 0.89365 0.11133 0.46064 0.0
C924 C 0.90846 0.11986 0.43955 0.0
C925 C 0.92717 0.10983 0.43291 0.0
C926 C 0.93044 0.09069 0.44751 0.0
H927 H 0.9617 0.85078 0.52837 0.0
H928 H 0.91091 0.76219 0.55016 0.0
H929 H 0.88692 0.74981 0.51192 0.0
H930 H 0.90708 0.85436 0.49822 0.0
H931 H 0.93069 0.87754 0.47603 0.0
H932 H 0.94436 0.87838 0.50453 0.0
H933 H 0.98269 0.8681 0.48727 0.0
H934 H 0.96908 0.86719 0.45867 0.0
H935 H 0.97164 0.83712 0.46919 0.0
H936 H 0.86692 0.74834 0.47109 0.0
H937 H 0.85236 0.75842 0.43309 0.0
H938 H 0.91792 0.84772 0.43982 0.0
C939 C 0.94562 0.82867 0.52525 0.0
C940 C 0.93817 0.80748 0.54235 0.0
C941 C 0.917 0.77884 0.53733 0.0
C942 C 0.90332 0.77159 0.51565 0.0
C943 C 0.91126 0.7932 0.49923 0.0
C944 C 0.93198 0.82114 0.50391 0.0
C945 C 0.9362 0.84085 0.484 0.0
C946 C 0.92915 0.86413 0.49113 0.0
C947 C 0.96671 0.85408 0.4742 0.0
C948 C 0.91434 0.81978 0.46735 0.0
C949 C 0.90015 0.79233 0.47619 0.0
C950 C 0.87809 0.76973 0.46395 0.0
C951 C 0.87003 0.7756 0.44238 0.0
C952 C 0.88393 0.80385 0.43353 0.0
C953 C 0.90674 0.82588 0.44607 0.0
H954 H 0.90714 0.86388 0.03548 0.0
H955 H 0.85144 0.77324 0.04898 0.0
H956 H 0.86348 0.76202 0.01056 0.0
H957 H 0.88923 0.86217 0.97649 0.0
H958 H 0.92498 0.88855 0.96793 0.0
H959 H 0.91272 0.88913 -0.00327 0.0
H960 H 0.95576 0.88646 0.01398 0.0
H961 H 0.96832 0.88629 0.98523 0.0
H962 H 0.962 0.85803 0.0051 0.0
H963 H 0.88151 0.76132 0.9698 0.0
H964 H 0.90524 0.77122 0.93157 0.0
H965 H 0.94759 0.86234 0.94611 0.0
C966 C 0.89752 0.84159 0.03057 0.0
C967 C 0.87834 0.81945 0.04531 0.0
C968 C 0.86628 0.79061 0.03802 0.0
C969 C 0.87291 0.78402 0.01621 0.0
C970 C 0.89159 0.80653 0.002 0.0
C971 C 0.90379 0.8347 0.00902 0.0
C972 C 0.92297 0.85513 0.99068 0.0
C973 C 0.91179 0.8749 0.98248 0.0
C974 C 0.9541 0.87248 -0.00073 0.0
C975 C 0.91976 0.83409 0.97216 0.0
C976 C 0.90159 0.80614 0.97884 0.0
C977 C 0.89576 0.78315 0.9644 0.0
C978 C 0.90923 0.78897 0.9427 0.0
C979 C 0.92829 0.81755 0.9358 0.0
C980 C 0.9332 0.84023 0.95075 0.0
H981 H 0.14313 0.08703 0.94501 0.0
H982 H 0.2341 0.13753 0.93041 0.0
H983 H 0.24458 0.12197 0.96761 0.0
H984 H 0.14768 0.10252 0.00453 0.0
H985 H 0.11948 0.06729 0.01243 0.0
H986 H 0.11949 0.08142 0.98428 0.0
H987 H 0.11771 0.03705 0.96509 0.0
H988 H 0.11751 0.02276 -0.00676 0.0
H989 H 0.14448 0.02772 0.97248 0.0
H990 H 0.24456 0.10182 0.00772 0.0
H991 H 0.23391 0.07822 0.04606 0.0
H992 H 0.143 0.04185 0.03273 0.0
C993 C 0.16531 0.09478 0.94945 0.0
C994 C 0.18778 0.11352 0.93477 0.0
C995 C 0.21649 0.12304 0.94134 0.0
C996 C 0.22266 0.11437 0.96245 0.0
C997 C 0.19987 0.09612 0.97662 0.0
C998 C 0.17179 0.08637 0.97025 0.0
C999 C 0.15104 0.06743 0.98852 0.0
C1000 C 0.1334 0.08046 -0.002 0.0
C1001 C 0.13155 0.03694 0.97927 0.0
C1002 C 0.17179 0.06813 0.00633 0.0
C1003 C 0.19987 0.0847 -0.0007 0.0
C1004 C 0.22262 0.08868 0.01334 0.0
C1005 C 0.21638 0.07526 0.03508 0.0
C1006 C 0.18763 0.05812 0.04245 0.0
C1007 C 0.16524 0.05467 0.02773 0.0
H1008 H 0.90773 0.05649 0.94884 0.0
H1009 H 0.87061 0.1084 0.92838 0.0
H1010 H 0.88371 0.13249 0.96655 0.0
H1011 H 0.88434 0.04584 0.00726 0.0
H1012 H 0.9165 0.04751 0.01802 0.0
H1013 H 0.90435 0.03498 0.98912 0.0
H1014 H 0.95352 0.07344 0.97276 0.0
H1015 H 0.96588 0.08597 0.00161 0.0
H1016 H 0.96718 0.11055 0.97993 0.0
H1017 H 0.90187 0.15107 0.0075 0.0
H1018 H 0.9242 0.16298 0.04634 0.0
H1019 H 0.9474 0.09711 0.03847 0.0
C1020 C 0.90235 0.07298 0.95217 0.0
C1021 C 0.88817 0.08058 0.93554 0.0
C1022 C 0.88153 0.10225 0.94084 0.0
C1023 C 0.88881 0.11598 0.96247 0.0
C1024 C 0.90256 0.10765 0.97851 0.0
C1025 C 0.90926 0.08667 0.97349 0.0
C1026 C 0.92412 0.08142 -0.00663 0.0
C1027 C 0.90625 0.05062 0.00248 0.0
C1028 C 0.95446 0.08827 0.9865 0.0
C1029 C 0.92494 0.10286 0.01047 0.0
C1030 C 0.91245 0.11785 0.00176 0.0
C1031 C 0.91158 0.13934 0.0145 0.0
C1032 C 0.92424 0.1459 0.03656 0.0
C1033 C 0.93754 0.13097 0.04552 0.0
C1034 C 0.93739 0.10894 0.03229 0.0
H1035 H 0.85653 0.8883 0.45515 0.0
H1036 H 0.76681 0.84468 0.43544 0.0
H1037 H 0.7547 0.85753 0.4731 0.0
H1038 H 0.84601 0.8689 0.51566 0.0
H1039 H 0.8751 0.90312 0.52472 0.0
H1040 H 0.87615 0.88893 0.4968 0.0
H1041 H 0.88284 0.93515 0.47719 0.0
H1042 H 0.88192 0.94949 0.50502 0.0
H1043 H 0.85729 0.94667 0.48273 0.0
H1044 H 0.7531 0.87752 0.51269 0.0
H1045 H 0.76263 0.90402 0.54968 0.0
H1046 H 0.85324 0.93346 0.54209 0.0
C1047 C 0.83426 0.88118 0.45871 0.0
C1048 C 0.81264 0.86546 0.44231 0.0
C1049 C 0.78379 0.85676 0.44774 0.0
C1050 C 0.77667 0.86386 0.4691 0.0
C1051 C 0.79863 0.87954 0.48481 0.0
C1052 C 0.82683 0.88805 0.47979 0.0
C1053 C 0.84673 0.90577 0.49898 0.0
C1054 C 0.86188 0.89077 0.50967 0.0
C1055 C 0.86846 0.93605 0.49047 0.0
C1056 C 0.8254 0.90629 0.51551 0.0
C1057 C 0.79772 0.89092 0.50725 0.0
C1058 C 0.77468 0.88943 0.51941 0.0
C1059 C 0.78026 0.90446 0.54039 0.0
C1060 C 0.80866 0.92085 0.54872 0.0
C1061 C 0.83127 0.92123 0.5362 0.0
H1062 H 0.05212 0.90903 0.53613 0.0
H1063 H 0.0911 0.8571 0.55048 0.0
H1064 H 0.1166 0.87193 0.51302 0.0
H1065 H 0.04014 0.89338 0.4766 0.0
H1066 H 0.04793 0.92885 0.46871 0.0
H1067 H 0.03388 0.91496 0.49692 0.0
H1068 H 0.07721 0.95876 0.51602 0.0
H1069 H 0.09118 0.9729 0.48783 0.0
H1070 H 0.11302 0.96735 0.5084 0.0
H1071 H 0.1366 0.89182 0.47294 0.0
H1072 H 0.1505 0.91618 0.43499 0.0
H1073 H 0.09737 0.95407 0.44841 0.0
C1074 C 0.06609 0.90078 0.53158 0.0
C1075 C 0.06956 0.88185 0.54625 0.0
C1076 C 0.08817 0.87171 0.53954 0.0
C1077 C 0.10267 0.87995 0.51829 0.0
C1078 C 0.09836 0.89837 0.50413 0.0
C1079 C 0.08062 0.90875 0.51065 0.0
C1080 C 0.07914 0.92796 0.49245 0.0
C1081 C 0.04846 0.91553 0.48312 0.0
C1082 C 0.09085 0.95855 0.50174 0.0
C1083 C 0.09876 0.92677 0.47453 0.0
C1084 C 0.10969 0.90964 0.48143 0.0
C1085 C 0.12821 0.90535 0.46741 0.0
C1086 C 0.13591 0.91919 0.44587 0.0
C1087 C 0.12507 0.93708 0.43869 0.0
C1088 C 0.10616 0.94064 0.45329 0.0
H1089 H 0.08944 0.13448 0.53461 0.0
H1090 H 0.13769 0.22537 0.55021 0.0
H1091 H 0.12327 0.23583 0.51253 0.0
H1092 H 0.10647 0.13998 0.47489 0.0
H1093 H 0.07155 0.11157 0.46646 0.0
H1094 H 0.0853 0.11138 0.49476 0.0
H1095 H 0.04035 0.10854 0.51355 0.0
H1096 H 0.02628 0.10849 0.48533 0.0
H1097 H 0.03057 0.13502 0.50632 0.0
H1098 H 0.10385 0.236 0.47267 0.0
H1099 H 0.07982 0.22582 0.43463 0.0
H1100 H 0.0448 0.13479 0.44628 0.0
C1101 C 0.09702 0.15663 0.53021 0.0
C1102 C 0.11471 0.17911 0.54535 0.0
C1103 C 0.124 0.20778 0.5389 0.0
C1104 C 0.11601 0.21393 0.51753 0.0
C1105 C 0.09869 0.19118 0.50297 0.0
C1106 C 0.08922 0.16312 0.50913 0.0
C1107 C 0.07074 0.14245 0.49058 0.0
C1108 C 0.08434 0.12536 0.48111 0.0
C1109 C 0.04018 0.12246 0.49948 0.0
C1110 C 0.07132 0.16327 0.47291 0.0
C1111 C 0.08755 0.19128 0.48028 0.0
C1112 C 0.09106 0.21415 0.46673 0.0
C1113 C 0.07738 0.20815 0.44515 0.0
C1114 C 0.06039 0.1795 0.43746 0.0
C1115 C 0.05756 0.15692 0.45159 0.0
H1116 H 0.70886 0.49946 0.34822 0.0
H1117 H 0.77759 0.57179 0.38427 0.0
H1118 H 0.80832 0.58264 0.34965 0.0
H1119 H 0.74993 0.47469 0.32567 0.0
H1120 H 0.73102 0.46262 0.29861 0.0
H1121 H 0.71264 0.46444 0.32382 0.0
H1122 H 0.69811 0.49706 0.30221 0.0
H1123 H 0.71629 0.49548 0.27666 0.0
H1124 H 0.72516 0.52965 0.2889 0.0
H1125 H 0.83316 0.58143 0.31259 0.0
H1126 H 0.84954 0.56795 0.27708 0.0
H1127 H 0.76474 0.49442 0.26822 0.0
C1128 C 0.73015 0.51803 0.34877 0.0
C1129 C 0.74093 0.5347 0.36896 0.0
C1130 C 0.76889 0.5588 0.3689 0.0
C1131 C 0.78645 0.56511 0.34934 0.0
C1132 C 0.7755 0.54724 0.3301 0.0
C1133 C 0.74784 0.52433 0.32968 0.0
C1134 C 0.74192 0.50622 0.30832 0.0
C1135 C 0.73341 0.47518 0.31449 0.0
C1136 C 0.71903 0.5072 0.29312 0.0
C1137 C 0.77096 0.52177 0.29715 0.0
C1138 C 0.78995 0.54578 0.30954 0.0
C1139 C 0.81839 0.56283 0.30268 0.0
C1140 C 0.82754 0.555 0.28267 0.0
C1141 C 0.80841 0.52996 0.27039 0.0
C1142 C 0.77984 0.51341 0.27763 0.0
H1143 H 0.51047 0.21354 0.35059 0.0
H1144 H 0.43083 0.19764 0.38215 0.0
H1145 H 0.42207 0.22105 0.3488 0.0
H1146 H 0.53216 0.28198 0.33298 0.0
H1147 H 0.54858 0.27988 0.30651 0.0
H1148 H 0.5461 0.25791 0.33072 0.0
H1149 H 0.51932 0.21226 0.30548 0.0
H1150 H 0.5221 0.23413 0.28101 0.0
H1151 H 0.48756 0.20554 0.28997 0.0
H1152 H 0.42446 0.24985 0.31278 0.0
H1153 H 0.43826 0.28165 0.27844 0.0
H1154 H 0.51776 0.28031 0.27368 0.0
C1155 C 0.49081 0.21433 0.35043 0.0
C1156 C 0.47132 0.20369 0.36901 0.0
C1157 C 0.44603 0.20552 0.36804 0.0
C1158 C 0.44088 0.21877 0.34918 0.0
C1159 C 0.46122 0.22996 0.33157 0.0
C1160 C 0.4856 0.22768 0.33209 0.0
C1161 C 0.50553 0.24345 0.31236 0.0
C1162 C 0.5348 0.26721 0.32118 0.0
C1163 C 0.5088 0.2226 0.29625 0.0
C1164 C 0.48899 0.2557 0.30088 0.0
C1165 C 0.46322 0.24734 0.3118 0.0
C1166 C 0.44455 0.25642 0.30408 0.0
C1167 C 0.45255 0.27448 0.28469 0.0
C1168 C 0.47921 0.28364 0.27376 0.0
C1169 C 0.49746 0.274 0.28197 0.0
H1170 H 0.69066 0.19012 0.29723 0.0
H1171 H 0.75687 0.18063 0.26289 0.0
H1172 H 0.78286 0.18973 0.29997 0.0
H1173 H 0.73499 0.24805 0.3286 0.0
H1174 H 0.71264 0.23864 0.35392 0.0
H1175 H 0.69674 0.22527 0.32618 0.0
H1176 H 0.67301 0.17386 0.34193 0.0
H1177 H 0.68927 0.18653 0.36983 0.0
H1178 H 0.69453 0.1604 0.35455 0.0
H1179 H 0.80554 0.20852 0.339 0.0
H1180 H 0.82299 0.23675 0.37523 0.0
H1181 H 0.74133 0.23283 0.38322 0.0
C1182 C 0.71031 0.18932 0.29755 0.0
C1183 C 0.72185 0.18485 0.27721 0.0
C1184 C 0.74762 0.18397 0.27834 0.0
C1185 C 0.76243 0.18894 0.29934 0.0
C1186 C 0.75085 0.1942 0.319 0.0
C1187 C 0.72519 0.19414 0.31823 0.0
C1188 C 0.71895 0.20402 0.34072 0.0
C1189 C 0.71568 0.23057 0.33712 0.0
C1190 C 0.69237 0.17972 0.35246 0.0
C1191 C 0.74583 0.2112 0.35389 0.0
C1192 C 0.7638 0.20482 0.34143 0.0
C1193 C 0.79137 0.21292 0.34917 0.0
C1194 C 0.8011 0.22884 0.36972 0.0
C1195 C 0.78334 0.23672 0.38178 0.0
C1196 C 0.75512 0.22675 0.37427 0.0
H1197 H 0.80552 0.4348 0.86362 0.0
H1198 H 0.89591 0.49536 0.87397 0.0
H1199 H 0.90658 0.48151 0.8361 0.0
H1200 H 0.81409 0.38004 0.83696 0.0
H1201 H 0.78465 0.36981 0.81726 0.0
H1202 H 0.78449 0.38484 0.84498 0.0
H1203 H 0.77821 0.42435 0.82488 0.0
H1204 H 0.77837 0.40946 0.79709 0.0
H1205 H 0.80354 0.4465 0.80314 0.0
H1206 H 0.90687 0.46064 0.7967 0.0
H1207 H 0.89687 0.4341 0.75982 0.0
H1208 H 0.80629 0.38777 0.77668 0.0
C1209 C 0.82762 0.44528 0.85804 0.0
C1210 C 0.84987 0.46621 0.8718 0.0
C1211 C 0.87848 0.47923 0.86374 0.0
C1212 C 0.88475 0.47154 0.84226 0.0
C1213 C 0.86218 0.45082 0.82917 0.0
C1214 C 0.83422 0.43788 0.83684 0.0
C1215 C 0.81373 0.41612 0.81977 0.0
C1216 C 0.79835 0.38592 0.83038 0.0
C1217 C 0.79221 0.42463 0.81068 0.0
C1218 C 0.83452 0.41874 0.80122 0.0
C1219 C 0.86236 0.43887 0.80682 0.0
C1220 C 0.88514 0.44482 0.79215 0.0
C1221 C 0.87924 0.42968 0.77124 0.0
C1222 C 0.8508 0.40881 0.76534 0.0
C1223 C 0.8283 0.40348 0.78062 0.0
H1224 H 0.54709 0.36138 0.85573 0.0
H1225 H 0.51386 0.41508 0.88036 0.0
H1226 H 0.52409 0.43893 0.84211 0.0
H1227 H 0.6047 0.41414 0.82469 0.0
H1228 H 0.60221 0.39031 0.80185 0.0
H1229 H 0.59006 0.37653 0.83041 0.0
H1230 H 0.54007 0.34011 0.81398 0.0
H1231 H 0.55217 0.35378 0.7853 0.0
H1232 H 0.52069 0.35276 0.79691 0.0
H1233 H 0.54156 0.45899 0.80124 0.0
H1234 H 0.56575 0.47389 0.76314 0.0
H1235 H 0.58584 0.40556 0.76693 0.0
C1236 C 0.54174 0.37804 0.85321 0.0
C1237 C 0.52977 0.38642 0.87112 0.0
C1238 C 0.52306 0.40828 0.86688 0.0
C1239 C 0.52871 0.42187 0.8452 0.0
C1240 C 0.54076 0.4131 0.82799 0.0
C1241 C 0.54708 0.3916 0.83188 0.0
C1242 C 0.56118 0.38677 0.81126 0.0
C1243 C 0.59131 0.39229 0.81743 0.0
C1244 C 0.5424 0.35657 0.80127 0.0
C1245 C 0.56249 0.40937 0.79521 0.0
C1246 C 0.55042 0.42428 0.80489 0.0
C1247 C 0.55077 0.44722 0.79342 0.0
C1248 C 0.56443 0.45547 0.77178 0.0
C1249 C 0.57771 0.44092 0.76213 0.0
C1250 C 0.57594 0.41718 0.77384 0.0
H1251 H 0.5757 0.18549 0.77585 0.0
H1252 H 0.52989 0.09451 0.76048 0.0
H1253 H 0.54459 0.085 0.79859 0.0
H1254 H 0.63511 0.18787 0.80531 0.0
H1255 H 0.63761 0.21421 0.82577 0.0
H1256 H 0.62393 0.21304 0.79719 0.0
H1257 H 0.57764 0.20833 0.815 0.0
H1258 H 0.59103 0.20908 0.84364 0.0
H1259 H 0.55688 0.17961 0.83489 0.0
H1260 H 0.56466 0.08632 0.83935 0.0
H1261 H 0.58883 0.09833 0.8775 0.0
H1262 H 0.61948 0.18833 0.86451 0.0
C1263 C 0.56873 0.16347 0.78027 0.0
C1264 C 0.55164 0.14074 0.7651 0.0
C1265 C 0.54313 0.11231 0.77177 0.0
C1266 C 0.55128 0.10671 0.7934 0.0
C1267 C 0.56786 0.12977 0.80802 0.0
C1268 C 0.5765 0.15757 0.80157 0.0
C1269 C 0.59395 0.17879 0.82014 0.0
C1270 C 0.62444 0.19969 0.81158 0.0
C1271 C 0.57897 0.19488 0.82894 0.0
C1272 C 0.59396 0.15869 0.83819 0.0
C1273 C 0.57887 0.13049 0.83107 0.0
C1274 C 0.57648 0.10835 0.84506 0.0
C1275 C 0.59021 0.11537 0.86672 0.0
C1276 C 0.60607 0.14428 0.87407 0.0
C1277 C 0.60756 0.166 0.85956 0.0
H1278 H 0.57364 0.14825 0.37651 0.0
H1279 H 0.48343 0.09525 0.36121 0.0
H1280 H 0.49544 0.08312 0.32299 0.0
H1281 H 0.59647 0.17942 0.32524 0.0
H1282 H 0.62956 0.17882 0.32435 0.0
H1283 H 0.61376 0.17851 0.35165 0.0
H1284 H 0.61446 0.13274 0.36271 0.0
H1285 H 0.62868 0.13091 0.33495 0.0
H1286 H 0.59581 0.10106 0.34511 0.0
H1287 H 0.51798 0.08444 0.28387 0.0
H1288 H 0.54856 0.09816 0.2488 0.0
H1289 H 0.62347 0.14848 0.29136 0.0
C1290 C 0.5565 0.13337 0.36534 0.0
C1291 C 0.52772 0.12255 0.37156 0.0
C1292 C 0.50564 0.10339 0.35666 0.0
C1293 C 0.5123 0.09642 0.33499 0.0
C1294 C 0.54108 0.10822 0.32897 0.0
C1295 C 0.5628 0.12579 0.34403 0.0
C1296 C 0.5919 0.13752 0.33308 0.0
C1297 C 0.60888 0.1705 0.3336 0.0
C1298 C 0.60871 0.12482 0.34467 0.0
C1299 C 0.58317 0.12609 0.30886 0.0
C1300 C 0.55388 0.10853 0.30682 0.0
C1301 C 0.54098 0.09762 0.28541 0.0
C1302 C 0.55844 0.10548 0.2656 0.0
C1303 C 0.58826 0.12445 0.26747 0.0
C1304 C 0.60067 0.13398 0.28946 0.0
H1305 H 0.81329 0.35303 0.34718 0.0
H1306 H 0.9023 0.39863 0.3688 0.0
H1307 H 0.91531 0.42637 0.33249 0.0
H1308 H 0.82635 0.3516 0.28451 0.0
H1309 H 0.79694 0.35701 0.27714 0.0
H1310 H 0.79558 0.33807 0.30318 0.0
H1311 H 0.78682 0.37358 0.32713 0.0
H1312 H 0.78839 0.39274 0.30126 0.0
H1313 H 0.81194 0.41141 0.32509 0.0
H1314 H 0.91767 0.4524 0.29518 0.0
H1315 H 0.90865 0.47448 0.26094 0.0
H1316 H 0.81809 0.41202 0.26534 0.0
C1317 C 0.83565 0.36834 0.34412 0.0
C1318 C 0.85675 0.37355 0.36085 0.0
C1319 C 0.88571 0.39417 0.35623 0.0
C1320 C 0.89334 0.40999 0.33562 0.0
C1321 C 0.87181 0.40484 0.31979 0.0
C1322 C 0.84358 0.38436 0.3238 0.0
C1323 C 0.82405 0.38447 0.30517 0.0
C1324 C 0.80991 0.3561 0.2917 0.0
C1325 C 0.80149 0.39095 0.31528 0.0
C1326 C 0.84553 0.40884 0.29044 0.0
C1327 C 0.87307 0.42009 0.2988 0.0
C1328 C 0.89621 0.44356 0.28834 0.0
C1329 C 0.89093 0.45597 0.26896 0.0
C1330 C 0.86268 0.4451 0.26064 0.0
C1331 C 0.83992 0.421 0.2714 0.0
H1332 H 0.64155 0.47986 0.34801 0.0
H1333 H 0.56883 0.47246 0.38579 0.0
H1334 H 0.5415 0.46194 0.34917 0.0
H1335 H 0.62814 0.50965 0.29244 0.0
H1336 H 0.64088 0.49006 0.27578 0.0
H1337 H 0.65569 0.50365 0.30398 0.0
H1338 H 0.64301 0.45209 0.3159 0.0
H1339 H 0.62757 0.4388 0.28802 0.0
H1340 H 0.60638 0.42347 0.31367 0.0
H1341 H 0.51965 0.44332 0.30996 0.0
H1342 H 0.50536 0.41741 0.27252 0.0
H1343 H 0.5927 0.43756 0.26109 0.0
C1344 C 0.62007 0.47666 0.3485 0.0
C1345 C 0.60712 0.4767 0.36962 0.0
C1346 C 0.57909 0.47258 0.36969 0.0
C1347 C 0.56352 0.46675 0.34898 0.0
C1348 C 0.57665 0.46589 0.32845 0.0
C1349 C 0.60451 0.47117 0.3281 0.0
C1350 C 0.61286 0.46582 0.30452 0.0
C1351 C 0.63574 0.49397 0.29352 0.0
C1352 C 0.623 0.44372 0.30562 0.0
C1353 C 0.58458 0.45424 0.29215 0.0
C1354 C 0.56415 0.45536 0.30587 0.0
C1355 C 0.53563 0.44307 0.29884 0.0
C1356 C 0.52768 0.42847 0.27762 0.0
C1357 C 0.54819 0.42612 0.26413 0.0
C1358 C 0.57697 0.43984 0.27109 0.0
H1359 H 0.52441 0.22965 0.77798 0.0
H1360 H 0.43368 0.17488 0.76405 0.0
H1361 H 0.42245 0.1881 0.80198 0.0
H1362 H 0.52223 0.21421 0.83795 0.0
H1363 H 0.54881 0.2503 0.84553 0.0
H1364 H 0.54936 0.23643 0.81737 0.0
H1365 H 0.54743 0.27876 0.79813 0.0
H1366 H 0.54688 0.29298 0.82613 0.0
H1367 H 0.51893 0.28555 0.80553 0.0
H1368 H 0.42174 0.20785 0.84198 0.0
H1369 H 0.43166 0.23351 0.87937 0.0
H1370 H 0.52284 0.27434 0.86545 0.0
C1371 C 0.50211 0.22032 0.78278 0.0
C1372 C 0.47993 0.20119 0.76803 0.0
C1373 C 0.45106 0.18965 0.77506 0.0
C1374 C 0.44447 0.19695 0.79658 0.0
C1375 C 0.467 0.21578 0.81073 0.0
C1376 C 0.49521 0.22733 0.80399 0.0
C1377 C 0.51564 0.24737 0.82195 0.0
C1378 C 0.53514 0.23641 0.83125 0.0
C1379 C 0.53324 0.27797 0.81236 0.0
C1380 C 0.49456 0.24534 0.83996 0.0
C1381 C 0.46659 0.22703 0.83335 0.0
C1382 C 0.44357 0.22222 0.84734 0.0
C1383 C 0.44941 0.23681 0.86854 0.0
C1384 C 0.47801 0.25598 0.87534 0.0
C1385 C 0.5007 0.25993 0.86083 0.0
H1386 H 0.71256 0.23507 0.85811 0.0
H1387 H 0.76605 0.19939 0.87766 0.0
H1388 H 0.79125 0.21501 0.84013 0.0
H1389 H 0.70553 0.21626 0.79794 0.0
H1390 H 0.70675 0.24884 0.78901 0.0
H1391 H 0.69259 0.23374 0.81694 0.0
H1392 H 0.72875 0.28166 0.83652 0.0
H1393 H 0.74303 0.29695 0.80869 0.0
H1394 H 0.76647 0.29694 0.83089 0.0
H1395 H 0.81139 0.23633 0.80038 0.0
H1396 H 0.82517 0.26221 0.76302 0.0
H1397 H 0.75761 0.28296 0.77127 0.0
C1398 C 0.72946 0.23031 0.85461 0.0
C1399 C 0.73733 0.21601 0.87086 0.0
C1400 C 0.75967 0.21038 0.86546 0.0
C1401 C 0.77403 0.21908 0.84419 0.0
C1402 C 0.76568 0.23327 0.82862 0.0
C1403 C 0.7439 0.2388 0.83368 0.0
C1404 C 0.73933 0.25509 0.8146 0.0
C1405 C 0.70928 0.23742 0.80399 0.0
C1406 C 0.74474 0.28439 0.82319 0.0
C1407 C 0.76222 0.25824 0.79801 0.0
C1408 C 0.77715 0.24543 0.80618 0.0
C1409 C 0.79974 0.24633 0.79378 0.0
C1410 C 0.80738 0.26101 0.7726 0.0
C1411 C 0.79254 0.27469 0.76428 0.0
C1412 C 0.76952 0.27288 0.77714 0.0
H1413 H 0.694 0.47067 0.78382 0.0
H1414 H 0.73171 0.56087 0.76712 0.0
H1415 H 0.7567 0.57347 0.80478 0.0
H1416 H 0.68347 0.47656 0.84478 0.0
H1417 H 0.6925 0.44971 0.85261 0.0
H1418 H 0.67656 0.44811 0.82488 0.0
H1419 H 0.71919 0.44769 0.80451 0.0
H1420 H 0.7352 0.44924 0.83214 0.0
H1421 H 0.75518 0.47587 0.81052 0.0
H1422 H 0.77887 0.57587 0.84413 0.0
H1423 H 0.7973 0.56754 0.88083 0.0
H1424 H 0.74454 0.47586 0.87035 0.0
C1425 C 0.70729 0.49311 0.78806 0.0
C1426 C 0.71083 0.51476 0.77252 0.0
C1427 C 0.72868 0.54387 0.77876 0.0
C1428 C 0.74288 0.55126 0.80013 0.0
C1429 C 0.73897 0.5293 0.81499 0.0
C1430 C 0.72163 0.50083 0.80915 0.0
C1431 C 0.72179 0.48117 0.82758 0.0
C1432 C 0.6918 0.46282 0.83808 0.0
C1433 C 0.73355 0.46241 0.81812 0.0
C1434 C 0.74219 0.503 0.84463 0.0
C1435 C 0.75178 0.53066 0.83727 0.0
C1436 C 0.77139 0.55428 0.85012 0.0
C1437 C 0.78169 0.54937 0.87093 0.0
C1438 C 0.77246 0.52108 0.87841 0.0
C1439 C 0.75219 0.49777 0.86513 0.0
H1440 H 0.36906 0.84198 0.68964 0.0
H1441 H 0.44222 0.89757 0.73235 0.0
H1442 H 0.47393 0.90848 0.69832 0.0
H1443 H 0.40029 0.80947 0.66245 0.0
H1444 H 0.38317 0.80566 0.63487 0.0
H1445 H 0.36601 0.80756 0.66081 0.0
H1446 H 0.36306 0.85068 0.64432 0.0
H1447 H 0.38001 0.84875 0.6181 0.0
H1448 H 0.39512 0.88175 0.63417 0.0
H1449 H 0.49805 0.90788 0.66026 0.0
H1450 H 0.5117 0.89428 0.62335 0.0
H1451 H 0.42227 0.83642 0.60813 0.0
C1452 C 0.39166 0.85705 0.69186 0.0
C1453 C 0.40315 0.8689 0.71369 0.0
C1454 C 0.43289 0.8884 0.71574 0.0
C1455 C 0.45104 0.89471 0.6965 0.0
C1456 C 0.439 0.8815 0.67542 0.0
C1457 C 0.40988 0.8632 0.67309 0.0
C1458 C 0.40223 0.84876 0.64977 0.0
C1459 C 0.38706 0.81594 0.65214 0.0
C1460 C 0.38403 0.85805 0.63576 0.0
C1461 C 0.4317 0.86074 0.63956 0.0
C1462 C 0.45271 0.88022 0.65421 0.0
C1463 C 0.48171 0.89295 0.6486 0.0
C1464 C 0.48929 0.88515 0.62769 0.0
C1465 C 0.46792 0.86433 0.61319 0.0
C1466 C 0.4389 0.85242 0.61905 0.0
H1467 H 0.17195 0.63531 0.63381 0.0
H1468 H 0.08972 0.57428 0.60416 0.0
H1469 H 0.07608 0.54745 0.64105 0.0
H1470 H 0.18403 0.58621 0.66118 0.0
H1471 H 0.2015 0.60826 0.68603 0.0
H1472 H 0.20246 0.62466 0.65881 0.0
H1473 H 0.18087 0.65273 0.67808 0.0
H1474 H 0.17923 0.6362 0.7055 0.0
H1475 H 0.14733 0.63378 0.69333 0.0
H1476 H 0.07418 0.52434 0.68002 0.0
H1477 H 0.08521 0.50686 0.71617 0.0
H1478 H 0.16875 0.58344 0.71853 0.0
C1479 C 0.15085 0.61656 0.63507 0.0
C1480 C 0.13195 0.60682 0.61608 0.0
C1481 C 0.10455 0.58218 0.61855 0.0
C1482 C 0.09658 0.56688 0.63944 0.0
C1483 C 0.11613 0.57678 0.65767 0.0
C1484 C 0.14265 0.60119 0.65561 0.0
C1485 C 0.16105 0.60612 0.67663 0.0
C1486 C 0.18887 0.60629 0.67027 0.0
C1487 C 0.16746 0.63384 0.68913 0.0
C1488 C 0.14122 0.58006 0.69055 0.0
C1489 C 0.11516 0.56355 0.6797 0.0
C1490 C 0.09434 0.53735 0.68884 0.0
C1491 C 0.10071 0.52759 0.70931 0.0
C1492 C 0.12782 0.54386 0.71988 0.0
C1493 C 0.14786 0.57064 0.71068 0.0
H1494 H 0.40132 0.57791 0.72358 0.0
H1495 H 0.47427 0.56476 0.72225 0.0
H1496 H 0.45449 0.53452 0.68725 0.0
H1497 H 0.34738 0.50585 0.70119 0.0
H1498 H 0.32946 0.52084 0.68499 0.0
H1499 H 0.3471 0.5371 0.71183 0.0
H1500 H 0.37702 0.58569 0.69084 0.0
H1501 H 0.35969 0.56963 0.66402 0.0
H1502 H 0.39816 0.58772 0.66605 0.0
H1503 H 0.43015 0.51222 0.64927 0.0
H1504 H 0.40339 0.4991 0.61245 0.0
H1505 H 0.3464 0.52684 0.64002 0.0
C1506 C 0.41287 0.56819 0.7162 0.0
C1507 C 0.43931 0.57366 0.72541 0.0
C1508 C 0.45384 0.56059 0.71542 0.0
C1509 C 0.44275 0.54342 0.69562 0.0
C1510 C 0.41694 0.5392 0.68652 0.0
C1511 C 0.40204 0.55095 0.69675 0.0
C1512 C 0.3762 0.54553 0.68275 0.0
C1513 C 0.34839 0.52617 0.69598 0.0
C1514 C 0.3779 0.57382 0.67548 0.0
C1515 C 0.3796 0.53014 0.66235 0.0
C1516 C 0.40289 0.52622 0.66491 0.0
C1517 C 0.41154 0.51466 0.64729 0.0
C1518 C 0.39626 0.50737 0.62641 0.0
C1519 C 0.37277 0.51196 0.62332 0.0
C1520 C 0.36407 0.52284 0.64181 0.0
H1521 H 0.48477 0.73988 0.11247 0.0
H1522 H 0.57567 0.77073 0.10493 0.0
H1523 H 0.58452 0.79553 0.14271 0.0
H1524 H 0.49048 0.80213 0.14047 0.0
H1525 H 0.46029 0.78112 0.15908 0.0
H1526 H 0.46185 0.76796 0.13086 0.0
H1527 H 0.45598 0.72149 0.14908 0.0
H1528 H 0.45435 0.7343 0.1774 0.0
H1529 H 0.48057 0.72384 0.17123 0.0
H1530 H 0.58211 0.81389 0.18309 0.0
H1531 H 0.56914 0.82551 0.22097 0.0
H1532 H 0.4797 0.78111 0.2004 0.0
C1533 C 0.50667 0.75206 0.1185 0.0
C1534 C 0.52954 0.75331 0.10576 0.0
C1535 C 0.55783 0.76961 0.11437 0.0
C1536 C 0.56302 0.78366 0.13581 0.0
C1537 C 0.5397 0.78121 0.14819 0.0
C1538 C 0.51214 0.76593 0.13966 0.0
C1539 C 0.49042 0.76524 0.15639 0.0
C1540 C 0.47485 0.78001 0.14609 0.0
C1541 C 0.4691 0.7344 0.16397 0.0
C1542 C 0.50997 0.7824 0.17592 0.0
C1543 C 0.53832 0.79153 0.17101 0.0
C1544 C 0.55999 0.80703 0.187 0.0
C1545 C 0.5524 0.81342 0.20849 0.0
C1546 C 0.52339 0.80422 0.2137 0.0
C1547 C 0.50209 0.78856 0.19706 0.0
H1548 H 0.24402 0.71492 0.21079 0.0
H1549 H 0.18161 0.74223 0.22147 0.0
H1550 H 0.1965 0.76909 0.18466 0.0
H1551 H 0.29901 0.78056 0.18608 0.0
H1552 H 0.31021 0.76255 0.166 0.0
H1553 H 0.29485 0.7462 0.19334 0.0
H1554 H 0.25641 0.70074 0.1721 0.0
H1555 H 0.27161 0.71696 0.1447 0.0
H1556 H 0.23429 0.70407 0.15039 0.0
H1557 H 0.21756 0.79162 0.14564 0.0
H1558 H 0.24384 0.80879 0.10867 0.0
H1559 H 0.29203 0.76637 0.12518 0.0
C1560 C 0.23344 0.72657 0.20553 0.0
C1561 C 0.21162 0.72642 0.21901 0.0
C1562 C 0.19846 0.74209 0.21143 0.0
C1563 C 0.20673 0.75736 0.19056 0.0
C1564 C 0.22822 0.75681 0.17763 0.0
C1565 C 0.24144 0.74189 0.18495 0.0
C1566 C 0.26374 0.74431 0.16799 0.0
C1567 C 0.29372 0.7593 0.17901 0.0
C1568 C 0.25604 0.71477 0.15822 0.0
C1569 C 0.26097 0.76284 0.14987 0.0
C1570 C 0.24039 0.76986 0.15559 0.0
C1571 C 0.23383 0.78637 0.14104 0.0
C1572 C 0.24879 0.79595 0.12009 0.0
C1573 C 0.27006 0.78902 0.11408 0.0
C1574 C 0.2761 0.7723 0.12929 0.0
H1575 H 0.27876 0.52044 0.21342 0.0
H1576 H 0.26738 0.43515 0.21896 0.0
H1577 H 0.24402 0.42308 0.18048 0.0
H1578 H 0.21202 0.50019 0.18357 0.0
H1579 H 0.22807 0.53192 0.16592 0.0
H1580 H 0.24166 0.53289 0.19455 0.0
H1581 H 0.29247 0.55121 0.17792 0.0
H1582 H 0.27925 0.55061 0.14928 0.0
H1583 H 0.29761 0.53116 0.15538 0.0
H1584 H 0.2247 0.42215 0.13962 0.0
H1585 H 0.21066 0.43226 0.10144 0.0
H1586 H 0.23609 0.51829 0.12466 0.0
C1587 C 0.27115 0.49908 0.20674 0.0
C1588 C 0.27497 0.47877 0.21912 0.0
C1589 C 0.26455 0.45102 0.20975 0.0
C1590 C 0.25131 0.444 0.18793 0.0
C1591 C 0.24852 0.4649 0.17595 0.0
C1592 C 0.25798 0.49178 0.18523 0.0
C1593 C 0.25372 0.51099 0.16884 0.0
C1594 C 0.23261 0.51948 0.17883 0.0
C1595 C 0.28247 0.53754 0.16248 0.0
C1596 C 0.24094 0.491 0.1486 0.0
C1597 C 0.23779 0.46441 0.15289 0.0
C1598 C 0.22691 0.44286 0.13617 0.0
C1599 C 0.21906 0.44879 0.11455 0.0
C1600 C 0.22242 0.4761 0.10998 0.0
C1601 C 0.23337 0.49721 0.1274 0.0
H1602 H 0.23333 0.49096 0.60282 0.0
H1603 H 0.23542 0.41229 0.61101 0.0
H1604 H 0.20863 0.40291 0.64786 0.0
H1605 H 0.25054 0.51362 0.65683 0.0
H1606 H 0.22836 0.52965 0.65984 0.0
H1607 H 0.2404 0.52632 0.63174 0.0
H1608 H 0.18808 0.49809 0.61697 0.0
H1609 H 0.17576 0.50188 0.64498 0.0
H1610 H 0.16212 0.46685 0.63246 0.0
H1611 H 0.19037 0.40756 0.687 0.0
H1612 H 0.18053 0.42429 0.72375 0.0
H1613 H 0.19231 0.50095 0.68943 0.0
C1614 C 0.22714 0.47118 0.61196 0.0
C1615 C 0.23618 0.45224 0.60424 0.0
C1616 C 0.22818 0.42676 0.6166 0.0
C1617 C 0.2131 0.42139 0.63753 0.0
C1618 C 0.20595 0.44152 0.64539 0.0
C1619 C 0.2123 0.46567 0.63268 0.0
C1620 C 0.20592 0.48595 0.64592 0.0
C1621 C 0.23291 0.5156 0.64875 0.0
C1622 C 0.18151 0.48831 0.6344 0.0
C1623 C 0.19654 0.47034 0.66865 0.0
C1624 C 0.19604 0.44447 0.66794 0.0
C1625 C 0.19012 0.42747 0.68757 0.0
C1626 C 0.18471 0.43724 0.70839 0.0
C1627 C 0.18576 0.46401 0.70946 0.0
C1628 C 0.19135 0.48042 0.6892 0.0
H1629 H 0.48179 0.74472 0.61526 0.0
H1630 H 0.56931 0.81505 0.61475 0.0
H1631 H 0.57938 0.7955 0.65022 0.0
H1632 H 0.47023 0.74173 0.67398 0.0
H1633 H 0.44892 0.70327 0.67534 0.0
H1634 H 0.4501 0.7216 0.6491 0.0
H1635 H 0.46675 0.69096 0.62653 0.0
H1636 H 0.4656 0.67249 0.65279 0.0
H1637 H 0.49808 0.69002 0.63606 0.0
H1638 H 0.57728 0.77035 0.68842 0.0
H1639 H 0.56406 0.74165 0.72435 0.0
H1640 H 0.47836 0.68743 0.69722 0.0
C1641 C 0.50317 0.75592 0.6225 0.0
C1642 C 0.52473 0.78149 0.61262 0.0
C1643 C 0.55256 0.79539 0.62225 0.0
C1644 C 0.55841 0.78442 0.64229 0.0
C1645 C 0.53633 0.7593 0.65191 0.0
C1646 C 0.5094 0.74508 0.64203 0.0
C1647 C 0.48888 0.71919 0.65583 0.0
C1648 C 0.46303 0.72163 0.66405 0.0
C1649 C 0.47928 0.69153 0.64197 0.0
C1650 C 0.50804 0.72158 0.67567 0.0
C1651 C 0.5354 0.74461 0.67315 0.0
C1652 C 0.55605 0.75199 0.69035 0.0
C1653 C 0.54833 0.73559 0.7107 0.0
C1654 C 0.52016 0.71222 0.71363 0.0
C1655 C 0.50013 0.70497 0.69558 0.0
H1656 H 0.19545 0.70623 0.63169 0.0
H1657 H 0.20691 0.77925 0.59184 0.0
H1658 H 0.22423 0.80943 0.62708 0.0
H1659 H 0.17596 0.72738 0.68826 0.0
H1660 H 0.19478 0.71283 0.70376 0.0
H1661 H 0.17732 0.6971 0.67674 0.0
H1662 H 0.22581 0.70398 0.66153 0.0
H1663 H 0.2432 0.72073 0.68813 0.0
H1664 H 0.25676 0.73943 0.66118 0.0
H1665 H 0.24721 0.8327 0.6655 0.0
H1666 H 0.2742 0.84665 0.7025 0.0
H1667 H 0.24864 0.75798 0.71532 0.0
C1668 C 0.201 0.72845 0.63044 0.0
C1669 C 0.20011 0.74056 0.60911 0.0
C1670 C 0.20737 0.76961 0.60813 0.0
C1671 C 0.21714 0.78683 0.62804 0.0
C1672 C 0.21891 0.77439 0.64868 0.0
C1673 C 0.21064 0.74569 0.64997 0.0
C1674 C 0.21738 0.73782 0.6732 0.0
C1675 C 0.18972 0.71759 0.68627 0.0
C1676 C 0.23696 0.72476 0.67084 0.0
C1677 C 0.23266 0.76695 0.68433 0.0
C1678 C 0.23257 0.78771 0.67036 0.0
C1679 C 0.24697 0.81654 0.67671 0.0
C1680 C 0.26223 0.82428 0.69765 0.0
C1681 C 0.26344 0.8033 0.71146 0.0
C1682 C 0.248 0.77435 0.70493 0.0
H1683 H 0.1986 0.56923 0.11946 0.0
H1684 H 0.10835 0.50945 0.10759 0.0
H1685 H 0.09697 0.52268 0.14548 0.0
H1686 H 0.19929 0.55594 0.17946 0.0
H1687 H 0.22459 0.59272 0.18621 0.0
H1688 H 0.22505 0.5786 0.15815 0.0
H1689 H 0.21945 0.61899 0.13886 0.0
H1690 H 0.21893 0.63315 0.1669 0.0
H1691 H 0.18986 0.62376 0.14699 0.0
H1692 H 0.09615 0.54228 0.18543 0.0
H1693 H 0.10576 0.56749 0.22293 0.0
H1694 H 0.19662 0.61372 0.2071 0.0
C1695 C 0.17636 0.55884 0.12468 0.0
C1696 C 0.15436 0.53823 0.11056 0.0
C1697 C 0.12557 0.52535 0.11812 0.0
C1698 C 0.11891 0.53267 0.1396 0.0
C1699 C 0.14129 0.55293 0.15315 0.0
C1700 C 0.1694 0.56589 0.14585 0.0
C1701 C 0.18967 0.58699 0.16338 0.0
C1702 C 0.21089 0.57801 0.17232 0.0
C1703 C 0.20538 0.61752 0.15344 0.0
C1704 C 0.16863 0.58386 0.18184 0.0
C1705 C 0.14082 0.56415 0.17575 0.0
C1706 C 0.11785 0.55778 0.19034 0.0
C1707 C 0.12354 0.57213 0.21162 0.0
C1708 C 0.15196 0.59259 0.21797 0.0
C1709 C 0.17464 0.59828 0.20282 0.0
H1710 H 0.43893 0.63552 0.12382 0.0
H1711 H 0.49773 0.60359 0.11339 0.0
H1712 H 0.48294 0.57841 0.15086 0.0
H1713 H 0.44924 0.64686 0.1852 0.0
H1714 H 0.41217 0.63546 0.1906 0.0
H1715 H 0.42816 0.65159 0.16334 0.0
H1716 H 0.38865 0.60717 0.14177 0.0
H1717 H 0.37257 0.59089 0.16895 0.0
H1718 H 0.38284 0.57214 0.14885 0.0
H1719 H 0.46114 0.55633 0.1895 0.0
H1720 H 0.43326 0.53824 0.22558 0.0
H1721 H 0.38861 0.5844 0.20956 0.0
C1722 C 0.4489 0.62341 0.1294 0.0
C1723 C 0.46955 0.6216 0.11566 0.0
C1724 C 0.48183 0.60528 0.1236 0.0
C1725 C 0.47363 0.59095 0.14487 0.0
C1726 C 0.4531 0.59313 0.15791 0.0
C1727 C 0.44089 0.6089 0.15042 0.0
C1728 C 0.41879 0.60733 0.16728 0.0
C1729 C 0.42763 0.63707 0.17719 0.0
C1730 C 0.38896 0.59356 0.15604 0.0
C1731 C 0.42035 0.58803 0.18541 0.0
C1732 C 0.44035 0.58017 0.17983 0.0
C1733 C 0.44543 0.56235 0.19406 0.0
C1734 C 0.42952 0.55223 0.21452 0.0
C1735 C 0.40868 0.55982 0.22038 0.0
C1736 C 0.40423 0.57803 0.20557 0.0
H1737 H 0.4107 0.83271 0.10999 0.0
H1738 H 0.39977 0.90689 0.11344 0.0
H1739 H 0.42272 0.91867 0.15216 0.0
H1740 H 0.39299 0.8102 0.16559 0.0
H1741 H 0.41919 0.79913 0.16948 0.0
H1742 H 0.4059 0.79934 0.14108 0.0
H1743 H 0.45765 0.83169 0.12701 0.0
H1744 H 0.47184 0.83328 0.15555 0.0
H1745 H 0.48007 0.86579 0.14072 0.0
H1746 H 0.44194 0.91835 0.19294 0.0
H1747 H 0.45635 0.90659 0.23034 0.0
H1748 H 0.45399 0.83277 0.19829 0.0
C1749 C 0.41364 0.85178 0.11868 0.0
C1750 C 0.40346 0.86887 0.10885 0.0
C1751 C 0.4077 0.89367 0.12067 0.0
C1752 C 0.42063 0.90046 0.14265 0.0
C1753 C 0.42959 0.88249 0.15222 0.0
C1754 C 0.42663 0.85892 0.14033 0.0
C1755 C 0.43641 0.84198 0.15454 0.0
C1756 C 0.41217 0.81084 0.15787 0.0
C1757 C 0.46306 0.84326 0.14379 0.0
C1758 C 0.44377 0.85863 0.17682 0.0
C1759 C 0.44034 0.88228 0.17522 0.0
C1760 C 0.44498 0.90004 0.19425 0.0
C1761 C 0.45309 0.89321 0.2154 0.0
C1762 C 0.45595 0.86859 0.2173 0.0
C1763 C 0.45165 0.85155 0.19757 0.0
H1764 H 0.09919 0.15718 0.10286 0.0
H1765 H 0.06201 0.13803 0.17125 0.0
H1766 H 0.09285 0.11768 0.18189 0.0
H1767 H 0.09853 0.09506 0.09467 0.0
H1768 H 0.13159 0.10964 0.07876 0.0
H1769 H 0.11146 0.12787 0.07862 0.0
H1770 H 0.15587 0.17397 0.0936 0.0
H1771 H 0.17621 0.15575 0.09384 0.0
H1772 H 0.17342 0.17274 0.11975 0.0
H1773 H 0.12041 0.09106 0.18196 0.0
H1774 H 0.14152 0.06098 0.17146 0.0
H1775 H 0.16187 0.09925 0.10351 0.0
C1776 C 0.09849 0.14972 0.12036 0.0
C1777 C 0.07889 0.14957 0.13646 0.0
C1778 C 0.07749 0.1388 0.15894 0.0
C1779 C 0.09491 0.12726 0.16506 0.0
C1780 C 0.11368 0.12702 0.14852 0.0
C1781 C 0.11574 0.13833 0.12667 0.0
C1782 C 0.13464 0.13243 0.11103 0.0
C1783 C 0.11805 0.11522 0.08953 0.0
C1784 C 0.16164 0.1604 0.10416 0.0
C1785 C 0.14185 0.1148 0.12705 0.0
C1786 C 0.13 0.11223 0.14875 0.0
C1787 C 0.13064 0.09375 0.16535 0.0
C1788 C 0.1428 0.07688 0.15935 0.0
C1789 C 0.15425 0.07882 0.13705 0.0
C1790 C 0.15448 0.09855 0.12103 0.0
H1791 H 0.90103 0.94879 0.14666 0.0
H1792 H 0.81459 0.9327 0.13726 0.0
H1793 H 0.831 0.98339 0.14618 0.0
H1794 H 0.92399 0.00851 0.19245 0.0
H1795 H 0.95928 0.02728 0.17995 0.0
H1796 H 0.93932 0.9887 0.17981 0.0
H1797 H 0.94552 0.98895 0.13541 0.0
H1798 H 0.96514 0.02724 0.13535 0.0
H1799 H 0.93366 0.00841 0.11755 0.0
H1800 H 0.85876 0.03715 0.14566 0.0
H1801 H 0.89447 0.0874 0.13676 0.0
H1802 H 0.96259 0.06823 0.14784 0.0
C1803 C 0.88536 0.95571 0.1475 0.0
C1804 C 0.8566 0.93693 0.14134 0.0
C1805 C 0.83668 0.94668 0.14226 0.0
C1806 C 0.84584 0.97547 0.1473 0.0
C1807 C 0.87482 0.99396 0.15193 0.0
C1808 C 0.89416 0.98422 0.15262 0.0
C1809 C 0.92461 0.00869 0.15454 0.0
C1810 C 0.93756 0.00827 0.1781 0.0
C1811 C 0.94328 0.00829 0.13452 0.0
C1812 C 0.91966 0.03382 0.15276 0.0
C1813 C 0.89082 0.02507 0.15193 0.0
C1814 C 0.88136 0.04432 0.14703 0.0
C1815 C 0.90181 0.07289 0.14199 0.0
C1816 C 0.93133 0.08174 0.14158 0.0
C1817 C 0.9402 0.06219 0.14818 0.0
H1818 H 0.93649 0.8362 0.12466 0.0
H1819 H 0.92084 0.89325 0.16661 0.0
H1820 H 0.97069 0.91716 0.18047 0.0
H1821 H 0.99643 0.83718 0.16369 0.0
H1822 H 0.01573 0.83735 0.13823 0.0
H1823 H 0.97712 0.81822 0.13814 0.0
H1824 H 0.97761 0.84659 0.10191 0.0
H1825 H 0.01595 0.86597 0.10202 0.0
H1826 H 0.99659 0.88516 0.10292 0.0
H1827 H 0.02279 0.94359 0.18001 0.0
H1828 H 0.07302 0.9689 0.16681 0.0
H1829 H 0.05708 0.89519 0.12603 0.0
C1830 C 0.94326 0.85249 0.1379 0.0
C1831 C 0.92491 0.86253 0.14509 0.0
C1832 C 0.93459 0.88496 0.16139 0.0
C1833 C 0.96286 0.89862 0.16934 0.0
C1834 C 0.98118 0.88958 0.16081 0.0
C1835 C 0.9717 0.86665 0.14572 0.0
C1836 C 0.99666 0.86473 0.13573 0.0
C1837 C 0.99647 0.83777 0.14448 0.0
C1838 C 0.99669 0.8657 0.10909 0.0
C1839 C 0.02158 0.89151 0.14591 0.0
C1840 C 0.01218 0.90511 0.16083 0.0
C1841 C 0.0306 0.93261 0.16918 0.0
C1842 C 0.05904 0.9469 0.16158 0.0
C1843 C 0.06883 0.93353 0.14603 0.0
C1844 C 0.05021 0.9052 0.13877 0.0
H1845 H 0.04013 0.09807 0.33364 0.0
H1846 H 0.10823 0.18563 0.34324 0.0
H1847 H 0.14387 0.17112 0.33396 0.0
H1848 H 0.06912 0.06823 0.36365 0.0
H1849 H 0.05751 0.03645 0.34643 0.0
H1850 H 0.03757 0.05477 0.34579 0.0
H1851 H 0.04318 0.05993 0.30134 0.0
H1852 H 0.06307 0.04124 0.3018 0.0
H1853 H 0.07835 0.0761 0.28864 0.0
H1854 H 0.17173 0.14535 0.33372 0.0
H1855 H 0.18843 0.11148 0.34325 0.0
H1856 H 0.102 0.04062 0.33482 0.0
C1857 C 0.06249 0.11444 0.33282 0.0
C1858 C 0.07144 0.14295 0.33917 0.0
C1859 C 0.10087 0.16372 0.33816 0.0
C1860 C 0.12126 0.15562 0.33289 0.0
C1861 C 0.11179 0.12682 0.32829 0.0
C1862 C 0.08294 0.10662 0.32781 0.0
C1863 C 0.07812 0.07652 0.32654 0.0
C1864 C 0.05953 0.05796 0.34681 0.0
C1865 C 0.06491 0.06264 0.30318 0.0
C1866 C 0.10862 0.08272 0.32844 0.0
C1867 C 0.12789 0.11183 0.32854 0.0
C1868 C 0.15694 0.12254 0.33299 0.0
C1869 C 0.16627 0.10314 0.33837 0.0
C1870 C 0.14646 0.07345 0.33975 0.0
C1871 C 0.11762 0.0632 0.33368 0.0
H1872 H 0.95745 0.05168 0.33412 0.0
H1873 H 0.88838 0.07038 0.33922 0.0
H1874 H 0.85327 0.0193 0.3328 0.0
H1875 H 0.9198 0.98804 0.29186 0.0
H1876 H 0.93558 0.96993 0.3067 0.0
H1877 H 0.95494 0.00841 0.30448 0.0
H1878 H 0.9606 0.01209 0.34898 0.0
H1879 H 0.94107 0.9739 0.35137 0.0
H1880 H 0.9291 0.99493 0.36691 0.0
H1881 H 0.82599 0.96541 0.33613 0.0
H1882 H 0.81012 0.91539 0.34753 0.0
H1883 H 0.89707 0.9323 0.33974 0.0
C1884 C 0.93499 0.04522 0.3328 0.0
C1885 C 0.92565 0.06497 0.3371 0.0
C1886 C 0.89607 0.0557 0.33563 0.0
C1887 C 0.87594 0.02665 0.33204 0.0
C1888 C 0.88579 0.00731 0.32944 0.0
C1889 C 0.91477 0.01642 0.32922 0.0
C1890 C 0.92004 0.99141 0.32965 0.0
C1891 C 0.93337 0.98933 0.30681 0.0
C1892 C 0.93876 0.9932 0.35047 0.0
C1893 C 0.88967 0.96692 0.33209 0.0
C1894 C 0.87004 0.97625 0.33129 0.0
C1895 C 0.84107 0.95775 0.33609 0.0
C1896 C 0.8322 0.92935 0.34254 0.0
C1897 C 0.85238 0.92002 0.34451 0.0
C1898 C 0.88113 0.93881 0.33826 0.0
H1899 H 0.06381 0.96142 0.33751 0.0
H1900 H 0.08223 0.8921 0.34218 0.0
H1901 H 0.0317 0.85754 0.33271 0.0
H1902 H 0.00493 0.93055 0.36818 0.0
H1903 H 0.98503 0.94384 0.35258 0.0
H1904 H 0.02335 0.96343 0.35198 0.0
H1905 H 0.02278 0.96142 0.30729 0.0
H1906 H 0.98419 0.94197 0.3077 0.0
H1907 H 0.00335 0.92739 0.29278 0.0
H1908 H 0.97785 0.83027 0.33192 0.0
H1909 H 0.92712 0.8133 0.34084 0.0
H1910 H 0.94405 0.9007 0.33848 0.0
C1911 C 0.05752 0.93907 0.33561 0.0
C1912 C 0.07696 0.92943 0.34057 0.0
C1913 C 0.06783 0.90001 0.33816 0.0
C1914 C 0.03911 0.88024 0.33281 0.0
C1915 C 0.02001 0.89033 0.3296 0.0
C1916 C 0.02904 0.91922 0.3306 0.0
C1917 C 0.00402 0.92454 0.33057 0.0
C1918 C 0.00437 0.94156 0.35211 0.0
C1919 C 0.00356 0.93972 0.30825 0.0
C1920 C 0.97938 0.89409 0.33117 0.0
C1921 C 0.98888 0.87461 0.32976 0.0
C1922 C 0.97015 0.84532 0.33245 0.0
C1923 C 0.94131 0.83585 0.33752 0.0
C1924 C 0.93163 0.8557 0.34036 0.0
C1925 C 0.95077 0.88501 0.33623 0.0
H1926 H 0.96036 0.90694 0.83595 0.0
H1927 H 0.88896 0.82031 0.84081 0.0
H1928 H 0.85553 0.83786 0.83232 0.0
H1929 H 0.93224 0.93787 0.86622 0.0
H1930 H 0.94609 0.97062 0.84995 0.0
H1931 H 0.96446 0.9507 0.84935 0.0
H1932 H 0.96085 0.94781 0.80469 0.0
H1933 H 0.94256 0.96807 0.80511 0.0
H1934 H 0.92642 0.93376 0.79092 0.0
H1935 H 0.82986 0.86606 0.83354 0.0
H1936 H 0.81532 0.90163 0.84331 0.0
H1937 H 0.90346 0.96956 0.83646 0.0
C1938 C 0.93778 0.89152 0.83422 0.0
C1939 C 0.92726 0.86231 0.839 0.0
C1940 C 0.89755 0.84276 0.83691 0.0
C1941 C 0.87838 0.85257 0.83211 0.0
C1942 C 0.88933 0.88186 0.82889 0.0
C1943 C 0.9185 0.90097 0.82935 0.0
C1944 C 0.92485 0.9316 0.82878 0.0
C1945 C 0.94294 0.94865 0.84983 0.0
C1946 C 0.93953 0.94616 0.80601 0.0
C1947 C 0.8948 0.92687 0.82991 0.0
C1948 C 0.87446 0.8981 0.82932 0.0
C1949 C 0.84552 0.88865 0.83329 0.0
C1950 C 0.8374 0.909 0.83881 0.0
C1951 C 0.85826 0.93833 0.84063 0.0
C1952 C 0.88699 0.94728 0.83503 0.0
H1953 H 0.16675 0.05753 0.86293 0.0
H1954 H 0.11596 0.07265 0.81319 0.0
H1955 H 0.09248 0.02195 0.80108 0.0
H1956 H 0.16959 0.99635 0.83067 0.0
H1957 H 0.16531 0.97772 0.85752 0.0
H1958 H 0.18455 0.0163 0.85693 0.0
H1959 H 0.15088 0.01697 0.88849 0.0
H1960 H 0.13162 0.97863 0.88914 0.0
H1961 H 0.11275 0.99771 0.88363 0.0
H1962 H 0.06706 0.96937 0.80101 0.0
H1963 H 0.03998 0.91933 0.81441 0.0
H1964 H 0.10573 0.93665 0.86499 0.0
C1965 C 0.15187 0.05034 0.84857 0.0
C1966 C 0.14378 0.06893 0.83831 0.0
C1967 C 0.12294 0.05875 0.82064 0.0
C1968 C 0.10959 0.03002 0.81368 0.0
C1969 C 0.11712 0.01174 0.82478 0.0
C1970 C 0.13789 0.02153 0.84185 0.0
C1971 C 0.13804 0.99684 0.85424 0.0
C1972 C 0.16604 0.9968 0.84955 0.0
C1973 C 0.133 0.99759 0.8804 0.0
C1974 C 0.11291 0.97163 0.84257 0.0
C1975 C 0.10176 0.9807 0.8251 0.0
C1976 C 0.07615 0.96189 0.81405 0.0
C1977 C 0.06094 0.93348 0.82169 0.0
C1978 C 0.07138 0.92412 0.84013 0.0
C1979 C 0.09815 0.9431 0.8501 0.0
H1980 H 0.94969 0.11809 0.86083 0.0
H1981 H 0.93154 0.04793 0.81477 0.0
H1982 H 0.9817 0.07328 0.80142 0.0
H1983 H 0.01128 0.17874 0.82518 0.0
H1984 H 0.03075 0.19489 0.85141 0.0
H1985 H 0.99217 0.17667 0.8513 0.0
H1986 H 0.99096 0.14455 0.88504 0.0
H1987 H 0.02927 0.16248 0.8852 0.0
H1988 H 0.00892 0.12416 0.8818 0.0
H1989 H 0.03384 0.09838 0.80092 0.0
H1990 H 0.08377 0.12004 0.8144 0.0
H1991 H 0.07024 0.17455 0.86124 0.0
C1992 C 0.95611 0.10905 0.84695 0.0
C1993 C 0.93688 0.08165 0.83819 0.0
C1994 C 0.946 0.06932 0.82112 0.0
C1995 C 0.9744 0.08363 0.81343 0.0
C1996 C 0.99343 0.11013 0.82318 0.0
C1997 C 0.98464 0.12287 0.83952 0.0
C1998 C 0.0101 0.14821 0.85078 0.0
C1999 C 0.01113 0.1763 0.84427 0.0
C2000 C 0.00978 0.14459 0.87724 0.0
C2001 C 0.0345 0.14631 0.83962 0.0
C2002 C 0.02442 0.12482 0.82313 0.0
C2003 C 0.04216 0.11594 0.8131 0.0
C2004 C 0.07049 0.12834 0.82081 0.0
C2005 C 0.0808 0.14946 0.83826 0.0
C2006 C 0.06301 0.15938 0.84709 0.0
H2007 H 0.95806 0.89498 0.64451 0.0
H2008 H 0.88806 0.80796 0.63709 0.0
H2009 H 0.85379 0.82403 0.64746 0.0
H2010 H 0.92406 0.91935 0.69084 0.0
H2011 H 0.93933 0.95401 0.67734 0.0
H2012 H 0.95827 0.93438 0.6766 0.0
H2013 H 0.96094 0.93851 0.63196 0.0
H2014 H 0.94198 0.95785 0.63256 0.0
H2015 H 0.92832 0.92563 0.61558 0.0
H2016 H 0.82713 0.85131 0.64955 0.0
H2017 H 0.81119 0.88617 0.64178 0.0
H2018 H 0.89897 0.95545 0.64663 0.0
C2019 C 0.93558 0.87908 0.64596 0.0
C2020 C 0.92567 0.85023 0.64003 0.0
C2021 C 0.89614 0.83009 0.64187 0.0
C2022 C 0.87655 0.83909 0.64774 0.0
C2023 C 0.88696 0.86816 0.65208 0.0
C2024 C 0.91596 0.88777 0.65158 0.0
C2025 C 0.92175 0.91821 0.65297 0.0
C2026 C 0.93673 0.93231 0.6758 0.0
C2027 C 0.93924 0.93605 0.63202 0.0
C2028 C 0.89149 0.91291 0.65251 0.0
C2029 C 0.87163 0.88395 0.65284 0.0
C2030 C 0.84246 0.874 0.64989 0.0
C2031 C 0.83357 0.894 0.64554 0.0
C2032 C 0.85388 0.92354 0.64365 0.0
C2033 C 0.88296 0.93303 0.64822 0.0
H2034 H 0.10567 0.9398 0.62309 0.0
H2035 H 0.03241 0.92434 0.6642 0.0
H2036 H 0.05894 0.97388 0.67895 0.0
H2037 H 0.16463 0.9977 0.66221 0.0
H2038 H 0.18404 0.01771 0.63708 0.0
H2039 H 0.16379 0.97915 0.63605 0.0
H2040 H 0.13599 0.98152 0.60038 0.0
H2041 H 0.15608 0.01981 0.60129 0.0
H2042 H 0.11753 0.00156 0.60226 0.0
H2043 H 0.08706 0.02584 0.68152 0.0
H2044 H 0.11233 0.07629 0.66924 0.0
H2045 H 0.16784 0.06031 0.62559 0.0
C2046 C 0.09599 0.94661 0.63616 0.0
C2047 C 0.06748 0.92834 0.64312 0.0
C2048 C 0.05454 0.93804 0.65917 0.0
C2049 C 0.06953 0.96607 0.6677 0.0
C2050 C 0.09732 0.98416 0.65979 0.0
C2051 C 0.11049 0.97482 0.64434 0.0
C2052 C 0.13771 0.99974 0.63472 0.0
C2053 C 0.16411 0.9985 0.64302 0.0
C2054 C 0.13673 0.0007 0.60811 0.0
C2055 C 0.13657 0.02465 0.64571 0.0
C2056 C 0.11372 0.0151 0.66084 0.0
C2057 C 0.10557 0.03366 0.67038 0.0
C2058 C 0.12005 0.0623 0.66337 0.0
C2059 C 0.1424 0.07209 0.64701 0.0
C2060 C 0.15165 0.05344 0.63892 0.0
H2061 H 0.93374 0.03648 0.64503 0.0
H2062 H 0.91708 0.1062 0.63388 0.0
H2063 H 0.96756 0.14088 0.64358 0.0
H2064 H 0.99274 0.07303 0.69062 0.0
H2065 H 0.01185 0.05686 0.67813 0.0
H2066 H 0.97326 0.03801 0.67767 0.0
H2067 H 0.97407 0.0326 0.63327 0.0
H2068 H 0.01239 0.05153 0.6335 0.0
H2069 H 0.99357 0.06416 0.61568 0.0
H2070 H 0.02155 0.16748 0.64549 0.0
H2071 H 0.07233 0.18277 0.63811 0.0
H2072 H 0.05336 0.09523 0.64639 0.0
C2073 C 0.9404 0.05903 0.64553 0.0
C2074 C 0.92152 0.06868 0.63873 0.0
C2075 C 0.93108 0.09832 0.63934 0.0
C2076 C 0.95976 0.11815 0.64482 0.0
C2077 C 0.97835 0.1079 0.64998 0.0
C2078 C 0.96882 0.07888 0.6507 0.0
C2079 C 0.99339 0.07305 0.65271 0.0
C2080 C 0.99277 0.05944 0.67618 0.0
C2081 C 0.99334 0.05427 0.63259 0.0
C2082 C 0.01845 0.1032 0.65123 0.0
C2083 C 0.00949 0.12315 0.65052 0.0
C2084 C 0.0288 0.1521 0.64664 0.0
C2085 C 0.05766 0.16063 0.64251 0.0
C2086 C 0.06673 0.14015 0.64176 0.0
C2087 C 0.04703 0.11136 0.64711 0.0
H2088 H 0.76629 0.36517 0.44984 0.0
H2089 H 0.85513 0.43221 0.4551 0.0
H2090 H 0.83939 0.4672 0.46405 0.0
H2091 H 0.74337 0.40331 0.41938 0.0
H2092 H 0.70861 0.388 0.43272 0.0
H2093 H 0.72683 0.36788 0.43165 0.0
H2094 H 0.72289 0.36194 0.47615 0.0
H2095 H 0.70452 0.38209 0.47734 0.0
H2096 H 0.73638 0.39317 0.49434 0.0
H2097 H 0.81338 0.49579 0.46637 0.0
H2098 H 0.78056 0.51486 0.46051 0.0
H2099 H 0.70944 0.42833 0.45303 0.0
C2100 C 0.78256 0.38708 0.45339 0.0
C2101 C 0.81198 0.39599 0.45171 0.0
C2102 C 0.83248 0.42487 0.45646 0.0
C2103 C 0.8237 0.44485 0.46158 0.0
C2104 C 0.7944 0.43543 0.4622 0.0
C2105 C 0.7742 0.40706 0.45843 0.0
C2106 C 0.74423 0.40255 0.45731 0.0
C2107 C 0.72996 0.38971 0.43387 0.0
C2108 C 0.72593 0.38384 0.4775 0.0
C2109 C 0.75068 0.43303 0.45992 0.0
C2110 C 0.7796 0.45172 0.46327 0.0
C2111 C 0.79067 0.48126 0.4642 0.0
C2112 C 0.77186 0.49192 0.46092 0.0
C2113 C 0.74245 0.47305 0.45635 0.0
C2114 C 0.73178 0.44327 0.45662 0.0
H2115 H 0.57272 0.27352 0.45166 0.0
H2116 H 0.48642 0.25556 0.46598 0.0
H2117 H 0.50505 0.30677 0.47459 0.0
H2118 H 0.61012 0.33315 0.49522 0.0
H2119 H 0.63985 0.3525 0.47584 0.0
H2120 H 0.62032 0.31393 0.47552 0.0
H2121 H 0.61102 0.31462 0.43166 0.0
H2122 H 0.63033 0.353 0.43188 0.0
H2123 H 0.59402 0.334 0.42136 0.0
H2124 H 0.53223 0.36114 0.4743 0.0
H2125 H 0.56524 0.41242 0.46572 0.0
H2126 H 0.63341 0.39368 0.45304 0.0
C2127 C 0.55781 0.28019 0.45727 0.0
C2128 C 0.52814 0.26058 0.45813 0.0
C2129 C 0.50929 0.27018 0.4654 0.0
C2130 C 0.51969 0.29924 0.47034 0.0
C2131 C 0.54903 0.31826 0.46841 0.0
C2132 C 0.56785 0.30894 0.46243 0.0
C2133 C 0.59787 0.33371 0.45914 0.0
C2134 C 0.61823 0.33329 0.47753 0.0
C2135 C 0.60892 0.33383 0.43456 0.0
C2136 C 0.59275 0.3585 0.46286 0.0
C2137 C 0.56463 0.34937 0.4686 0.0
C2138 C 0.55447 0.36857 0.47037 0.0
C2139 C 0.57334 0.39767 0.4655 0.0
C2140 C 0.60187 0.40706 0.45868 0.0
C2141 C 0.61174 0.38726 0.45827 0.0
H2142 H 0.72143 0.28597 0.46366 0.0
H2143 H 0.73922 0.2163 0.46951 0.0
H2144 H 0.68808 0.18273 0.47712 0.0
H2145 H 0.65995 0.25681 0.50728 0.0
H2146 H 0.64122 0.26988 0.48983 0.0
H2147 H 0.6798 0.28914 0.49065 0.0
H2148 H 0.68103 0.28627 0.44604 0.0
H2149 H 0.64269 0.26691 0.44509 0.0
H2150 H 0.66249 0.25177 0.43211 0.0
H2151 H 0.63398 0.1554 0.47477 0.0
H2152 H 0.58331 0.13815 0.46443 0.0
H2153 H 0.60151 0.226 0.46219 0.0
C2154 C 0.71475 0.26386 0.46747 0.0
C2155 C 0.73431 0.25379 0.46604 0.0
C2156 C 0.7247 0.22461 0.4708 0.0
C2157 C 0.69562 0.20533 0.47512 0.0
C2158 C 0.67657 0.21569 0.47518 0.0
C2159 C 0.68593 0.24448 0.47201 0.0
C2160 C 0.6611 0.24987 0.47004 0.0
C2161 C 0.66048 0.26746 0.49069 0.0
C2162 C 0.66188 0.26453 0.44695 0.0
C2163 C 0.63633 0.21948 0.47096 0.0
C2164 C 0.64546 0.19998 0.47436 0.0
C2165 C 0.62649 0.1705 0.4728 0.0
C2166 C 0.59772 0.16084 0.46694 0.0
C2167 C 0.58843 0.18069 0.46249 0.0
C2168 C 0.60785 0.21022 0.46557 0.0
H2169 H 0.76111 0.37778 0.6663 0.0
H2170 H 0.84724 0.45005 0.67154 0.0
H2171 H 0.82889 0.48291 0.6636 0.0
H2172 H 0.73284 0.41193 0.62232 0.0
H2173 H 0.6987 0.39496 0.6368 0.0
H2174 H 0.71946 0.37722 0.63537 0.0
H2175 H 0.71712 0.37236 0.67993 0.0
H2176 H 0.69678 0.39022 0.68153 0.0
H2177 H 0.72979 0.40403 0.6975 0.0
H2178 H 0.80021 0.50769 0.66588 0.0
H2179 H 0.76435 0.52126 0.67718 0.0
H2180 H 0.69715 0.4329 0.66978 0.0
C2181 C 0.77625 0.40045 0.66475 0.0
C2182 C 0.80552 0.4114 0.66955 0.0
C2183 C 0.82473 0.44118 0.66767 0.0
C2184 C 0.81447 0.46002 0.66314 0.0
C2185 C 0.7851 0.44864 0.66002 0.0
C2186 C 0.76633 0.4194 0.66023 0.0
C2187 C 0.73552 0.41252 0.66017 0.0
C2188 C 0.72077 0.39833 0.6373 0.0
C2189 C 0.71888 0.39372 0.68103 0.0
C2190 C 0.73984 0.44235 0.66209 0.0
C2191 C 0.76849 0.46304 0.66123 0.0
C2192 C 0.77768 0.49178 0.66584 0.0
C2193 C 0.75721 0.49935 0.67226 0.0
C2194 C 0.72807 0.47809 0.67438 0.0
C2195 C 0.71932 0.4496 0.66818 0.0
H2196 H 0.56429 0.26547 0.66676 0.0
H2197 H 0.4755 0.24372 0.67133 0.0
H2198 H 0.48953 0.29359 0.66125 0.0
H2199 H 0.59067 0.32474 0.69661 0.0
H2200 H 0.62354 0.34533 0.6808 0.0
H2201 H 0.60606 0.30707 0.68059 0.0
H2202 H 0.60414 0.30681 0.63589 0.0
H2203 H 0.62199 0.34536 0.63592 0.0
H2204 H 0.58822 0.32489 0.6212 0.0
H2205 H 0.51425 0.34723 0.66016 0.0
H2206 H 0.54649 0.39827 0.66919 0.0
H2207 H 0.61925 0.38491 0.66671 0.0
C2208 C 0.54761 0.27089 0.66472 0.0
C2209 C 0.51881 0.25075 0.66983 0.0
C2210 C 0.49765 0.2587 0.66723 0.0
C2211 C 0.50548 0.28702 0.66149 0.0
C2212 C 0.53444 0.30689 0.65809 0.0
C2213 C 0.55513 0.29896 0.65929 0.0
C2214 C 0.58502 0.32473 0.659 0.0
C2215 C 0.60228 0.32549 0.68053 0.0
C2216 C 0.60076 0.32549 0.63666 0.0
C2217 C 0.57799 0.34853 0.65936 0.0
C2218 C 0.54878 0.33796 0.65796 0.0
C2219 C 0.53715 0.35578 0.66065 0.0
C2220 C 0.55567 0.3848 0.66577 0.0
C2221 C 0.58539 0.39554 0.66866 0.0
C2222 C 0.59666 0.37735 0.66441 0.0
H2223 H 0.60819 0.23087 0.66445 0.0
H2224 H 0.59583 0.14542 0.67043 0.0
H2225 H 0.64698 0.16434 0.66146 0.0
H2226 H 0.66834 0.25872 0.61903 0.0
H2227 H 0.68582 0.29328 0.63287 0.0
H2228 H 0.6473 0.27197 0.6328 0.0
H2229 H 0.64714 0.27549 0.67741 0.0
H2230 H 0.6854 0.29646 0.67766 0.0
H2231 H 0.6676 0.2639 0.69429 0.0
H2232 H 0.70085 0.19404 0.66183 0.0
H2233 H 0.75073 0.23088 0.671 0.0
H2234 H 0.72763 0.29673 0.66411 0.0
C2235 C 0.61599 0.21596 0.66288 0.0
C2236 C 0.59808 0.1867 0.66808 0.0
C2237 C 0.60908 0.16786 0.66619 0.0
C2238 C 0.63817 0.17847 0.66112 0.0
C2239 C 0.65574 0.20783 0.6575 0.0
C2240 C 0.64482 0.22622 0.65783 0.0
C2241 C 0.66842 0.25718 0.65691 0.0
C2242 C 0.66741 0.2711 0.63403 0.0
C2243 C 0.66705 0.27421 0.67781 0.0
C2244 C 0.6944 0.2535 0.65795 0.0
C2245 C 0.68683 0.22495 0.6576 0.0
C2246 C 0.70709 0.21646 0.66141 0.0
C2247 C 0.73543 0.23754 0.66658 0.0
C2248 C 0.74306 0.26667 0.66824 0.0
C2249 C 0.72249 0.27465 0.66277 0.0
H2250 H 0.63153 0.2418 0.18849 0.0
H2251 H 0.55958 0.15724 0.17483 0.0
H2252 H 0.52889 0.17844 0.16762 0.0
H2253 H 0.59628 0.26569 0.22064 0.0
H2254 H 0.61461 0.30211 0.21041 0.0
H2255 H 0.63212 0.28131 0.2093 0.0
H2256 H 0.64039 0.29051 0.16533 0.0
H2257 H 0.62316 0.31175 0.16628 0.0
H2258 H 0.61047 0.28197 0.14658 0.0
H2259 H 0.50429 0.20797 0.16963 0.0
H2260 H 0.48891 0.24296 0.17908 0.0
H2261 H 0.57764 0.30789 0.19045 0.0
C2262 C 0.60954 0.22782 0.18323 0.0
C2263 C 0.59792 0.19791 0.18221 0.0
C2264 C 0.569 0.18027 0.17547 0.0
C2265 C 0.55141 0.19214 0.17137 0.0
C2266 C 0.56325 0.22168 0.17362 0.0
C2267 C 0.59186 0.23931 0.17896 0.0
C2268 C 0.59889 0.26983 0.18283 0.0
C2269 C 0.61117 0.28031 0.20724 0.0
C2270 C 0.61944 0.28968 0.16413 0.0
C2271 C 0.56946 0.26638 0.18019 0.0
C2272 C 0.54919 0.23863 0.17449 0.0
C2273 C 0.52009 0.22992 0.17353 0.0
C2274 C 0.51153 0.24994 0.17897 0.0
C2275 C 0.53201 0.27824 0.1855 0.0
C2276 C 0.56136 0.28655 0.18538 0.0
H2277 H 0.76211 0.38935 0.17868 0.0
H2278 H 0.84843 0.40637 0.1658 0.0
H2279 H 0.83007 0.35458 0.1615 0.0
H2280 H 0.7437 0.33538 0.21488 0.0
H2281 H 0.70689 0.31376 0.20602 0.0
H2282 H 0.7251 0.35174 0.20172 0.0
H2283 H 0.71341 0.34442 0.15801 0.0
H2284 H 0.69481 0.3062 0.16215 0.0
H2285 H 0.7233 0.32253 0.14128 0.0
H2286 H 0.80374 0.30072 0.16694 0.0
H2287 H 0.77173 0.25085 0.18009 0.0
H2288 H 0.70349 0.27016 0.18991 0.0
C2289 C 0.77707 0.38235 0.17399 0.0
C2290 C 0.80672 0.40201 0.17259 0.0
C2291 C 0.82557 0.39182 0.16676 0.0
C2292 C 0.81532 0.36236 0.16432 0.0
C2293 C 0.78615 0.34341 0.16738 0.0
C2294 C 0.76722 0.35313 0.17164 0.0
C2295 C 0.73768 0.32874 0.17737 0.0
C2296 C 0.72781 0.33265 0.20142 0.0
C2297 C 0.71603 0.32527 0.15857 0.0
C2298 C 0.74332 0.30402 0.17708 0.0
C2299 C 0.77115 0.3126 0.17078 0.0
C2300 C 0.78171 0.29366 0.17138 0.0
C2301 C 0.76345 0.26541 0.17892 0.0
C2302 C 0.7352 0.25668 0.18614 0.0
C2303 C 0.72501 0.27616 0.18457 0.0
H2304 H 0.7403 0.49485 0.21726 0.0
H2305 H 0.75805 0.49102 0.14494 0.0
H2306 H 0.70673 0.47251 0.13565 0.0
H2307 H 0.68114 0.43103 0.21942 0.0
H2308 H 0.66163 0.44015 0.2397 0.0
H2309 H 0.7 0.46 0.23961 0.0
H2310 H 0.6993 0.5072 0.23384 0.0
H2311 H 0.66073 0.48744 0.23413 0.0
H2312 H 0.67947 0.51045 0.21008 0.0
H2313 H 0.65182 0.44638 0.13577 0.0
H2314 H 0.60024 0.41528 0.14537 0.0
H2315 H 0.62014 0.4349 0.2179 0.0
C2316 C 0.73353 0.49148 0.19934 0.0
C2317 C 0.75293 0.49504 0.18168 0.0
C2318 C 0.74345 0.48922 0.15852 0.0
C2319 C 0.71436 0.47859 0.15319 0.0
C2320 C 0.69534 0.47405 0.17125 0.0
C2321 C 0.70477 0.4807 0.19389 0.0
C2322 C 0.68013 0.47013 0.21069 0.0
C2323 C 0.68078 0.44908 0.22836 0.0
C2324 C 0.6799 0.49531 0.22289 0.0
C2325 C 0.65526 0.45524 0.19419 0.0
C2326 C 0.66417 0.45821 0.17145 0.0
C2327 C 0.64465 0.44437 0.15348 0.0
C2328 C 0.61547 0.42677 0.15902 0.0
C2329 C 0.60649 0.42275 0.18233 0.0
C2330 C 0.62658 0.43767 0.19992 0.0
H2331 H 0.56587 0.1633 0.95121 0.0
H2332 H 0.63726 0.22016 -0.00548 0.0
H2333 H 0.61111 0.24433 0.0071 0.0
H2334 H 0.55561 0.21241 0.9284 0.0
H2335 H 0.51709 0.19333 0.92667 0.0
H2336 H 0.53593 0.17385 0.92735 0.0
H2337 H 0.50695 0.14546 0.96317 0.0
H2338 H 0.48751 0.1646 0.96242 0.0
H2339 H 0.50582 0.16441 0.98843 0.0
H2340 H 0.58561 0.27095 0.00536 0.0
H2341 H 0.56049 0.29589 -0.00835 0.0
H2342 H 0.50387 0.22208 0.95039 0.0
C2343 C 0.575 0.17957 0.96451 0.0
C2344 C 0.60312 0.18949 0.97244 0.0
C2345 C 0.61541 0.21194 0.98876 0.0
C2346 C 0.60069 0.22577 -0.00403 0.0
C2347 C 0.57367 0.21686 0.98668 0.0
C2348 C 0.5606 0.19387 0.97161 0.0
C2349 C 0.53404 0.19197 0.96089 0.0
C2350 C 0.53582 0.19298 0.93428 0.0
C2351 C 0.50697 0.16501 0.96923 0.0
C2352 C 0.53563 0.21875 0.97072 0.0
C2353 C 0.55828 0.23244 0.986 0.0
C2354 C 0.56707 0.25991 -0.00575 0.0
C2355 C 0.55282 0.27398 0.98635 0.0
C2356 C 0.52986 0.26043 0.97059 0.0
C2357 C 0.5206 0.23222 0.96325 0.0
H2358 H 0.71386 0.27893 0.97233 0.0
H2359 H 0.78517 0.26473 0.96131 0.0
H2360 H 0.81895 0.31592 0.96917 0.0
H2361 H 0.73924 0.33932 0.94306 0.0
H2362 H 0.72626 0.35715 0.96165 0.0
H2363 H 0.7084 0.31885 0.96117 0.0
H2364 H 0.71535 0.31803 0.00543 0.0
H2365 H 0.73322 0.35657 0.00604 0.0
H2366 H 0.75071 0.33829 0.01767 0.0
H2367 H 0.84405 0.37011 0.96882 0.0
H2368 H 0.85727 0.42045 0.96148 0.0
H2369 H 0.76961 0.3986 0.97482 0.0
C2370 C 0.7366 0.28639 0.97251 0.0
C2371 C 0.74693 0.26793 0.96631 0.0
C2372 C 0.7768 0.27845 0.96636 0.0
C2373 C 0.79614 0.30753 0.97078 0.0
C2374 C 0.78523 0.32558 0.97569 0.0
C2375 C 0.75605 0.31516 0.97712 0.0
C2376 C 0.74944 0.33912 0.9798 0.0
C2377 C 0.72971 0.33857 0.96025 0.0
C2378 C 0.73642 0.33793 0.00366 0.0
C2379 C 0.77923 0.36475 0.97788 0.0
C2380 C 0.79977 0.35671 0.97603 0.0
C2381 C 0.82828 0.3767 0.97097 0.0
C2382 C 0.83566 0.40532 0.96688 0.0
C2383 C 0.8145 0.41349 0.96761 0.0
C2384 C 0.78635 0.3931 0.9743 0.0
H2385 H 0.71973 0.43188 0.97664 0.0
H2386 H 0.73508 0.51859 0.97286 0.0
H2387 H 0.68409 0.50096 0.98108 0.0
H2388 H 0.66193 0.40178 0.94579 0.0
H2389 H 0.64232 0.36864 0.96146 0.0
H2390 H 0.68056 0.38837 0.96301 0.0
H2391 H 0.67835 0.39024 0.00762 0.0
H2392 H 0.6398 0.37009 0.00627 0.0
H2393 H 0.65758 0.40404 0.02105 0.0
H2394 H 0.63053 0.47306 0.97852 0.0
H2395 H 0.58088 0.43795 0.96689 0.0
H2396 H 0.60054 0.36968 0.97356 0.0
C2397 C 0.71258 0.44726 0.97863 0.0
C2398 C 0.73127 0.47652 0.97412 0.0
C2399 C 0.72118 0.49608 0.97653 0.0
C2400 C 0.69219 0.48623 0.98119 0.0
C2401 C 0.67379 0.45689 0.98398 0.0
C2402 C 0.68382 0.43776 0.98337 0.0
C2403 C 0.65949 0.40714 0.98322 0.0
C2404 C 0.66119 0.39057 0.96212 0.0
C2405 C 0.65876 0.39199 0.0059 0.0
C2406 C 0.6343 0.41202 0.98161 0.0
C2407 C 0.64273 0.44076 0.98279 0.0
C2408 C 0.62352 0.45046 0.97835 0.0
C2409 C 0.59536 0.43041 0.97175 0.0
C2410 C 0.58701 0.4012 0.96931 0.0
C2411 C 0.60638 0.39192 0.97541 0.0
H2412 H 0.46784 0.73596 0.76375 0.0
H2413 H 0.48271 0.73377 0.83702 0.0
H2414 H 0.46331 0.76642 0.84421 0.0
H2415 H 0.48166 0.81068 0.76043 0.0
H2416 H 0.45344 0.80036 0.73947 0.0
H2417 H 0.47353 0.78194 0.74048 0.0
H2418 H 0.42619 0.73368 0.74491 0.0
H2419 H 0.40599 0.75185 0.74434 0.0
H2420 H 0.40235 0.72909 0.76841 0.0
H2421 H 0.43592 0.79463 0.84279 0.0
H2422 H 0.40446 0.81467 0.83311 0.0
H2423 H 0.40712 0.79486 0.7609 0.0
C2424 C 0.46781 0.74307 0.78127 0.0
C2425 C 0.47678 0.7327 0.79985 0.0
C2426 C 0.47622 0.74199 0.82258 0.0
C2427 C 0.46517 0.76038 0.82674 0.0
C2428 C 0.45523 0.76926 0.80792 0.0
C2429 C 0.45689 0.76105 0.7856 0.0
C2430 C 0.44232 0.77052 0.76841 0.0
C2431 C 0.46404 0.79217 0.75119 0.0
C2432 C 0.41777 0.74475 0.75581 0.0
C2433 C 0.43116 0.78454 0.78452 0.0
C2434 C 0.4391 0.78425 0.8072 0.0
C2435 C 0.4299 0.79518 0.82504 0.0
C2436 C 0.41203 0.80643 0.81944 0.0
C2437 C 0.40317 0.80593 0.79632 0.0
C2438 C 0.41327 0.79521 0.77878 0.0
H2439 H 0.23363 0.60847 0.80229 0.0
H2440 H 0.14615 0.59021 0.80991 0.0
H2441 H 0.1636 0.64179 0.81515 0.0
H2442 H 0.26746 0.67186 0.84297 0.0
H2443 H 0.2984 0.68991 0.82455 0.0
H2444 H 0.27929 0.65141 0.82641 0.0
H2445 H 0.273 0.64821 0.78195 0.0
H2446 H 0.29171 0.68651 0.77991 0.0
H2447 H 0.25616 0.66592 0.76809 0.0
H2448 H 0.19033 0.69623 0.81159 0.0
H2449 H 0.2237 0.74703 0.80161 0.0
H2450 H 0.29318 0.7286 0.79771 0.0
C2451 C 0.21817 0.61517 0.80591 0.0
C2452 C 0.18854 0.59524 0.80575 0.0
C2453 C 0.169 0.60498 0.81025 0.0
C2454 C 0.17873 0.63432 0.81317 0.0
C2455 C 0.20808 0.65358 0.81203 0.0
C2456 C 0.22752 0.64424 0.80899 0.0
C2457 C 0.25759 0.66906 0.80596 0.0
C2458 C 0.27681 0.67065 0.82619 0.0
C2459 C 0.27032 0.66731 0.7826 0.0
C2460 C 0.2519 0.69379 0.80655 0.0
C2461 C 0.22335 0.68467 0.81037 0.0
C2462 C 0.21286 0.70368 0.80917 0.0
C2463 C 0.23195 0.73252 0.8035 0.0
C2464 C 0.26111 0.74194 0.79889 0.0
C2465 C 0.2711 0.72231 0.80122 0.0
H2466 H 0.38258 0.61932 0.81101 0.0
H2467 H 0.3993 0.54895 0.81714 0.0
H2468 H 0.34768 0.51554 0.82289 0.0
H2469 H 0.31763 0.58932 0.85107 0.0
H2470 H 0.30074 0.60319 0.83232 0.0
H2471 H 0.33914 0.62211 0.8354 0.0
H2472 H 0.34418 0.62059 0.79097 0.0
H2473 H 0.30602 0.6014 0.7878 0.0
H2474 H 0.32683 0.58653 0.77632 0.0
H2475 H 0.29362 0.48871 0.8189 0.0
H2476 H 0.24362 0.47212 0.80671 0.0
H2477 H 0.26316 0.56029 0.80297 0.0
C2478 C 0.37558 0.59708 0.81456 0.0
C2479 C 0.39502 0.5868 0.81366 0.0
C2480 C 0.3849 0.55744 0.81803 0.0
C2481 C 0.35554 0.53825 0.82127 0.0
C2482 C 0.33668 0.54885 0.8205 0.0
C2483 C 0.34647 0.57777 0.8177 0.0
C2484 C 0.32204 0.5835 0.81409 0.0
C2485 C 0.31975 0.60053 0.83444 0.0
C2486 C 0.32495 0.59888 0.79093 0.0
C2487 C 0.29711 0.55322 0.81378 0.0
C2488 C 0.30569 0.53344 0.81804 0.0
C2489 C 0.28656 0.50405 0.81613 0.0
C2490 C 0.25822 0.49477 0.80919 0.0
C2491 C 0.24959 0.51492 0.80385 0.0
C2492 C 0.26913 0.54436 0.80698 0.0
H2493 H 0.37462 0.77422 0.00964 0.0
H2494 H 0.44364 0.86197 0.01575 0.0
H2495 H 0.4784 0.84656 0.0055 0.0
H2496 H 0.40548 0.74565 0.03933 0.0
H2497 H 0.39243 0.71292 0.02312 0.0
H2498 H 0.37268 0.73146 0.023 0.0
H2499 H 0.37496 0.73416 0.97835 0.0
H2500 H 0.3946 0.71523 0.97825 0.0
H2501 H 0.40909 0.74936 0.96396 0.0
H2502 H 0.50585 0.82031 0.00404 0.0
H2503 H 0.523 0.78666 0.01261 0.0
H2504 H 0.4358 0.71582 0.00916 0.0
C2505 C 0.39695 0.79042 0.00789 0.0
C2506 C 0.40646 0.81929 0.01348 0.0
C2507 C 0.43584 0.8398 0.01125 0.0
C2508 C 0.45572 0.83118 0.00544 0.0
C2509 C 0.44576 0.80211 0.00161 0.0
C2510 C 0.41689 0.78209 0.00243 0.0
C2511 C 0.41172 0.75183 0.0018 0.0
C2512 C 0.39461 0.7345 0.02308 0.0
C2513 C 0.39671 0.73677 0.97924 0.0
C2514 C 0.44223 0.7578 0.00235 0.0
C2515 C 0.46161 0.78686 0.00137 0.0
C2516 C 0.4909 0.79753 0.00423 0.0
C2517 C 0.50046 0.77819 0.00909 0.0
C2518 C 0.48071 0.74857 0.01157 0.0
C2519 C 0.45142 0.7383 0.00717 0.0
H2520 H 0.29815 0.72631 0.01833 0.0
H2521 H 0.22556 0.73997 0.01919 0.0
H2522 H 0.19339 0.68893 0.00968 0.0
H2523 H 0.26943 0.66853 0.97174 0.0
H2524 H 0.28472 0.64983 0.9864 0.0
H2525 H 0.30234 0.68833 0.98774 0.0
H2526 H 0.30153 0.68597 0.03244 0.0
H2527 H 0.28395 0.6477 0.03127 0.0
H2528 H 0.26787 0.66481 0.04712 0.0
H2529 H 0.16852 0.63488 0.0089 0.0
H2530 H 0.15408 0.58425 0.0163 0.0
H2531 H 0.24322 0.60662 0.01404 0.0
C2532 C 0.2756 0.71877 0.01572 0.0
C2533 C 0.26433 0.73705 0.01948 0.0
C2534 C 0.23469 0.72639 0.01613 0.0
C2535 C 0.21626 0.69741 0.01072 0.0
C2536 C 0.22793 0.6796 0.00817 0.0
C2537 C 0.25708 0.6901 0.01011 0.0
C2538 C 0.26411 0.66629 0.0094 0.0
C2539 C 0.28115 0.66837 0.98751 0.0
C2540 C 0.28028 0.66619 0.03136 0.0
C2541 C 0.23426 0.64058 0.00843 0.0
C2542 C 0.2136 0.64853 0.00722 0.0
C2543 C 0.1845 0.62837 0.00917 0.0
C2544 C 0.17644 0.5996 0.01333 0.0
C2545 C 0.19749 0.59144 0.01574 0.0
C2546 C 0.22656 0.61209 0.01213 0.0
H2547 H 0.28527 0.56703 0.00869 0.0
H2548 H 0.27256 0.48193 0.01872 0.0
H2549 H 0.32387 0.5003 0.01094 0.0
H2550 H 0.34694 0.59249 0.96443 0.0
H2551 H 0.364 0.62771 0.97712 0.0
H2552 H 0.32549 0.60645 0.97625 0.0
H2553 H 0.32375 0.61225 0.02054 0.0
H2554 H 0.36197 0.63315 0.0216 0.0
H2555 H 0.34347 0.60145 0.03916 0.0
H2556 H 0.3775 0.52983 0.01256 0.0
H2557 H 0.42696 0.56703 0.02259 0.0
H2558 H 0.40444 0.63258 0.01061 0.0
C2559 C 0.29308 0.55205 0.00822 0.0
C2560 C 0.27506 0.52313 0.01426 0.0
C2561 C 0.28597 0.50414 0.01382 0.0
C2562 C 0.31512 0.51441 0.00942 0.0
C2563 C 0.33281 0.54355 0.00496 0.0
C2564 C 0.32197 0.56198 0.00379 0.0
C2565 C 0.34562 0.59285 0.00231 0.0
C2566 C 0.3455 0.60562 0.97861 0.0
C2567 C 0.34357 0.61093 0.02208 0.0
C2568 C 0.37145 0.58915 0.00494 0.0
C2569 C 0.36385 0.5606 0.00573 0.0
C2570 C 0.38382 0.55222 0.01124 0.0
C2571 C 0.41189 0.57348 0.01691 0.0
C2572 C 0.41945 0.60263 0.01737 0.0
C2573 C 0.39928 0.61043 0.01024 0.0
H2574 H 0.28743 0.56418 0.52428 0.0
H2575 H 0.21635 0.47811 0.51425 0.0
H2576 H 0.1844 0.49771 0.50668 0.0
H2577 H 0.25255 0.5877 0.55658 0.0
H2578 H 0.26938 0.62371 0.5455 0.0
H2579 H 0.28787 0.60389 0.54411 0.0
H2580 H 0.29378 0.61158 0.49987 0.0
H2581 H 0.27553 0.63184 0.50111 0.0
H2582 H 0.26274 0.60146 0.48204 0.0
H2583 H 0.15853 0.52599 0.5086 0.0
H2584 H 0.14211 0.56006 0.51866 0.0
H2585 H 0.23051 0.62721 0.527 0.0
C2586 C 0.26538 0.54948 0.51962 0.0
C2587 C 0.25442 0.51963 0.51983 0.0
C2588 C 0.22534 0.50109 0.51393 0.0
C2589 C 0.207 0.51206 0.50964 0.0
C2590 C 0.2182 0.5416 0.51088 0.0
C2591 C 0.24693 0.56007 0.5153 0.0
C2592 C 0.25317 0.59044 0.51869 0.0
C2593 C 0.26649 0.60207 0.54264 0.0
C2594 C 0.27244 0.60998 0.49926 0.0
C2595 C 0.22325 0.58594 0.5169 0.0
C2596 C 0.20334 0.55781 0.51192 0.0
C2597 C 0.17401 0.54821 0.51192 0.0
C2598 C 0.16484 0.5677 0.51767 0.0
C2599 C 0.18498 0.5963 0.52364 0.0
C2600 C 0.21451 0.60553 0.52243 0.0
H2601 H 0.42298 0.7149 0.53023 0.0
H2602 H 0.5097 0.73189 0.52012 0.0
H2603 H 0.4913 0.68018 0.5143 0.0
H2604 H 0.40112 0.65754 0.56413 0.0
H2605 H 0.36504 0.63738 0.55324 0.0
H2606 H 0.38416 0.67567 0.55118 0.0
H2607 H 0.376 0.67248 0.50691 0.0
H2608 H 0.35647 0.634 0.50886 0.0
H2609 H 0.38663 0.6516 0.4896 0.0
H2610 H 0.46395 0.62579 0.51727 0.0
H2611 H 0.43032 0.57507 0.52747 0.0
H2612 H 0.36224 0.59505 0.53498 0.0
C2613 C 0.43805 0.70789 0.52599 0.0
C2614 C 0.46774 0.7274 0.5256 0.0
C2615 C 0.48681 0.71735 0.52024 0.0
C2616 C 0.47654 0.68798 0.51694 0.0
C2617 C 0.44715 0.6691 0.51861 0.0
C2618 C 0.42816 0.67882 0.52258 0.0
C2619 C 0.39808 0.65437 0.52628 0.0
C2620 C 0.38646 0.65637 0.55012 0.0
C2621 C 0.37812 0.65304 0.50674 0.0
C2622 C 0.40331 0.62941 0.52506 0.0
C2623 C 0.43156 0.63806 0.52023 0.0
C2624 C 0.44165 0.61871 0.52053 0.0
C2625 C 0.42246 0.58997 0.52636 0.0
C2626 C 0.39375 0.58116 0.53212 0.0
C2627 C 0.38409 0.60108 0.53071 0.0
H2628 H 0.39237 0.76327 0.52386 0.0
H2629 H 0.4128 0.85179 0.52147 0.0
H2630 H 0.36209 0.8357 0.51204 0.0
H2631 H 0.33363 0.73365 0.47925 0.0
H2632 H 0.31347 0.7014 0.49591 0.0
H2633 H 0.35204 0.72013 0.4966 0.0
H2634 H 0.35086 0.72301 0.54122 0.0
H2635 H 0.31249 0.70453 0.54067 0.0
H2636 H 0.332 0.73904 0.55445 0.0
H2637 H 0.30749 0.80919 0.50988 0.0
H2638 H 0.25589 0.77594 0.51669 0.0
H2639 H 0.27233 0.70536 0.52199 0.0
C2640 C 0.38648 0.77942 0.52065 0.0
C2641 C 0.40659 0.80883 0.52338 0.0
C2642 C 0.39786 0.82918 0.51921 0.0
C2643 C 0.36908 0.82017 0.51386 0.0
C2644 C 0.34948 0.79082 0.51248 0.0
C2645 C 0.35804 0.77081 0.51556 0.0
C2646 C 0.33278 0.74068 0.51651 0.0
C2647 C 0.333 0.72293 0.49583 0.0
C2648 C 0.332 0.726 0.53958 0.0
C2649 C 0.30843 0.7468 0.5147 0.0
C2650 C 0.31832 0.77571 0.51176 0.0
C2651 C 0.29957 0.78649 0.5117 0.0
C2652 C 0.27025 0.76743 0.5155 0.0
C2653 C 0.26012 0.73806 0.51979 0.0
C2654 C 0.27942 0.72765 0.51856 0.0
H2655 H 0.23081 0.49518 0.2928 0.0
H2656 H 0.29633 0.5455 0.34295 0.0
H2657 H 0.26842 0.5677 0.35596 0.0
H2658 H 0.22325 0.54709 0.27303 0.0
H2659 H 0.18516 0.52846 0.26809 0.0
H2660 H 0.20393 0.50891 0.26846 0.0
H2661 H 0.17053 0.47577 0.30065 0.0
H2662 H 0.15119 0.49502 0.30017 0.0
H2663 H 0.16609 0.49112 0.32689 0.0
H2664 H 0.24293 0.5945 0.35479 0.0
H2665 H 0.21993 0.62157 0.34118 0.0
H2666 H 0.16925 0.5541 0.29253 0.0
C2667 C 0.23811 0.50939 0.30759 0.0
C2668 C 0.2651 0.51806 0.31746 0.0
C2669 C 0.27522 0.53807 0.33575 0.0
C2670 C 0.2595 0.55079 0.34318 0.0
C2671 C 0.23372 0.54327 0.33211 0.0
C2672 C 0.22273 0.52257 0.31495 0.0
C2673 C 0.19766 0.52229 0.30282 0.0
C2674 C 0.20285 0.527 0.27657 0.0
C2675 C 0.16971 0.49439 0.30795 0.0
C2676 C 0.19787 0.54757 0.31442 0.0
C2677 C 0.21836 0.55893 0.33169 0.0
C2678 C 0.22596 0.58513 0.34209 0.0
C2679 C 0.21288 0.60041 0.33427 0.0
C2680 C 0.19225 0.58927 0.31647 0.0
C2681 C 0.18402 0.56221 0.30696 0.0
H2682 H 0.43261 0.73678 0.31212 0.0
H2683 H 0.52082 0.75603 0.31212 0.0
H2684 H 0.50481 0.70609 0.32359 0.0
H2685 H 0.40477 0.67895 0.359 0.0
H2686 H 0.3717 0.65864 0.34333 0.0
H2687 H 0.39048 0.6972 0.34236 0.0
H2688 H 0.391 0.69539 0.2977 0.0
H2689 H 0.37255 0.6571 0.29843 0.0
H2690 H 0.40636 0.67639 0.28363 0.0
H2691 H 0.47871 0.65252 0.32586 0.0
H2692 H 0.44583 0.60144 0.31751 0.0
H2693 H 0.37467 0.61731 0.31491 0.0
C2694 C 0.4487 0.73079 0.31536 0.0
C2695 C 0.47794 0.7502 0.31119 0.0
C2696 C 0.49832 0.74156 0.31544 0.0
C2697 C 0.48938 0.71323 0.322 0.0
C2698 C 0.4601 0.69409 0.32458 0.0
C2699 C 0.4401 0.70273 0.32169 0.0
C2700 C 0.40989 0.67756 0.3215 0.0
C2701 C 0.39324 0.67812 0.34282 0.0
C2702 C 0.39407 0.67656 0.29898 0.0
C2703 C 0.41601 0.65318 0.32285 0.0
C2704 C 0.44498 0.66305 0.32547 0.0
C2705 C 0.45596 0.64453 0.32442 0.0
C2706 C 0.43709 0.6155 0.31967 0.0
C2707 C 0.40768 0.60543 0.31553 0.0
C2708 C 0.39699 0.62436 0.31817 0.0
H2709 H 0.27435 0.70427 0.3193 0.0
H2710 H 0.25 0.76935 0.31392 0.0
H2711 H 0.29981 0.80654 0.32262 0.0
H2712 H 0.33544 0.74302 0.36333 0.0
H2713 H 0.35602 0.72996 0.34852 0.0
H2714 H 0.31754 0.7084 0.3496 0.0
H2715 H 0.31607 0.70492 0.30491 0.0
H2716 H 0.35424 0.72655 0.30374 0.0
H2717 H 0.33232 0.73734 0.28802 0.0
H2718 H 0.35353 0.83686 0.32218 0.0
H2719 H 0.40453 0.85653 0.31207 0.0
H2720 H 0.39353 0.77148 0.31644 0.0
C2721 C 0.27921 0.72624 0.32092 0.0
C2722 C 0.25829 0.7339 0.31593 0.0
C2723 C 0.26556 0.7629 0.31795 0.0
C2724 C 0.29387 0.7842 0.32288 0.0
C2725 C 0.31448 0.77605 0.3261 0.0
C2726 C 0.30728 0.74759 0.32557 0.0
C2727 C 0.33359 0.7444 0.32551 0.0
C2728 C 0.33578 0.73064 0.34809 0.0
C2729 C 0.33407 0.72734 0.30428 0.0
C2730 C 0.35675 0.77547 0.3242 0.0
C2731 C 0.34551 0.79353 0.32539 0.0
C2732 C 0.36262 0.82297 0.32186 0.0
C2733 C 0.3916 0.834 0.31615 0.0
C2734 C 0.40288 0.81548 0.31352 0.0
C2735 C 0.38546 0.78612 0.31854 0.0
H2736 H 0.96039 0.16815 0.28765 0.0
H2737 H 0.04301 0.24107 0.30534 0.0
H2738 H 0.05059 0.25632 0.26472 0.0
H2739 H 0.98185 0.1503 0.23886 0.0
H2740 H 0.94995 0.1397 0.22205 0.0
H2741 H 0.94787 0.13774 0.25301 0.0
H2742 H 0.92494 0.17001 0.25342 0.0
H2743 H 0.92675 0.1719 0.22231 0.0
H2744 H 0.94288 0.20431 0.23921 0.0
H2745 H 0.05349 0.25873 0.22238 0.0
H2746 H 0.05061 0.24876 0.18059 0.0
H2747 H 0.96595 0.17486 0.19009 0.0
C2748 C 0.97961 0.18784 0.28306 0.0
C2749 C 0.00111 0.20338 0.29954 0.0
C2750 C 0.02631 0.22872 0.29289 0.0
C2751 C 0.03073 0.23773 0.26991 0.0
C2752 C 0.00962 0.22133 0.25388 0.0
C2753 C 0.98441 0.19708 0.26013 0.0
C2754 C 0.96686 0.18136 0.23917 0.0
C2755 C 0.96134 0.15047 0.23823 0.0
C2756 C 0.93869 0.18195 0.23849 0.0
C2757 C 0.98695 0.19967 0.22022 0.0
C2758 C 0.01124 0.22291 0.22907 0.0
C2759 C 0.03427 0.24107 0.21513 0.0
C2760 C 0.03256 0.2351 0.19148 0.0
C2761 C 0.00801 0.21115 0.18217 0.0
C2762 C 0.98474 0.19366 0.19668 0.0
H2763 H 0.83251 0.7917 0.28761 0.0
H2764 H 0.75823 0.79918 0.30504 0.0
H2765 H 0.74605 0.79653 0.26385 0.0
H2766 H 0.85354 0.83637 0.24132 0.0
H2767 H 0.86521 0.81673 0.22354 0.0
H2768 H 0.86538 0.81378 0.25445 0.0
H2769 H 0.83329 0.75867 0.25152 0.0
H2770 H 0.83322 0.76141 0.22048 0.0
H2771 H 0.79985 0.74358 0.23603 0.0
H2772 H 0.74626 0.80116 0.22146 0.0
H2773 H 0.75791 0.81064 0.18004 0.0
H2774 H 0.83137 0.79925 0.19004 0.0
C2775 C 0.81322 0.79191 0.28281 0.0
C2776 C 0.7964 0.79572 0.29948 0.0
C2777 C 0.77157 0.79643 0.29252 0.0
C2778 C 0.76431 0.79473 0.26918 0.0
C2779 C 0.78191 0.79202 0.2531 0.0
C2780 C 0.80567 0.79027 0.25957 0.0
C2781 C 0.82263 0.79039 0.23877 0.0
C2782 C 0.8535 0.81583 0.23958 0.0
C2783 C 0.8222 0.7618 0.23657 0.0
C2784 C 0.80543 0.79387 0.21975 0.0
C2785 C 0.78181 0.79436 0.22834 0.0
C2786 C 0.76428 0.80014 0.21438 0.0
C2787 C 0.77119 0.80573 0.19096 0.0
C2788 C 0.79541 0.8055 0.18189 0.0
C2789 C 0.8124 0.79902 0.19643 0.0
H2790 H 0.20984 0.041 0.29074 0.0
H2791 H 0.20663 0.9605 0.30499 0.0
H2792 H 0.21269 0.95467 0.2636 0.0
H2793 H 0.16767 0.01844 0.24343 0.0
H2794 H 0.18624 0.0509 0.22677 0.0
H2795 H 0.1883 0.05246 0.25776 0.0
H2796 H 0.24366 0.07856 0.25579 0.0
H2797 H 0.24182 0.07735 0.22467 0.0
H2798 H 0.26092 0.0628 0.23973 0.0
H2799 H 0.20956 0.95258 0.22154 0.0
H2800 H 0.19912 0.95524 0.18046 0.0
H2801 H 0.20511 0.03739 0.19251 0.0
C2802 C 0.21148 0.02272 0.28518 0.0
C2803 C 0.20784 0.00123 0.30095 0.0
C2804 C 0.20929 0.97715 0.2931 0.0
C2805 C 0.21296 0.97377 0.26968 0.0
C2806 C 0.21534 0.99474 0.25441 0.0
C2807 C 0.21495 0.01892 0.26178 0.0
C2808 C 0.21418 0.03627 0.24152 0.0
C2809 C 0.18751 0.03969 0.24243 0.0
C2810 C 0.2418 0.06548 0.24036 0.0
C2811 C 0.21252 0.01718 0.22173 0.0
C2812 C 0.21375 0.99362 0.22959 0.0
C2813 C 0.20934 0.97126 0.21503 0.0
C2814 C 0.20316 0.97282 0.19183 0.0
C2815 C 0.20153 0.9966 0.1835 0.0
C2816 C 0.20691 0.01933 0.19848 0.0
H2817 H 0.96145 0.79432 0.69169 0.0
H2818 H 0.04427 0.80131 0.68089 0.0
H2819 H 0.04725 0.79295 0.72239 0.0
H2820 H 0.97993 0.83399 0.74091 0.0
H2821 H 0.94615 0.81381 0.7556 0.0
H2822 H 0.94732 0.81399 0.72459 0.0
H2823 H 0.92192 0.75859 0.7242 0.0
H2824 H 0.92057 0.75823 0.75534 0.0
H2825 H 0.9369 0.7407 0.74045 0.0
H2826 H 0.04504 0.7914 0.76458 0.0
H2827 H 0.03864 0.79836 0.80565 0.0
H2828 H 0.95756 0.79333 0.78978 0.0
C2829 C 0.97974 0.79316 0.69803 0.0
C2830 C 0.00256 0.79826 0.68327 0.0
C2831 C 0.02661 0.79747 0.69208 0.0
C2832 C 0.02836 0.79246 0.71552 0.0
C2833 C 0.00587 0.7883 0.72981 0.0
C2834 C 0.98198 0.78856 0.72147 0.0
C2835 C 0.96279 0.78754 0.74093 0.0
C2836 C 0.95885 0.8139 0.74047 0.0
C2837 C 0.93383 0.75959 0.74018 0.0
C2838 C 0.98039 0.78815 0.76149 0.0
C2839 C 0.00479 0.78788 0.75464 0.0
C2840 C 0.02577 0.79106 0.77026 0.0
C2841 C 0.02204 0.79523 0.7935 0.0
C2842 C 0.9976 0.79639 0.80082 0.0
C2843 C 0.9762 0.79205 0.78469 0.0
H2844 H 0.20621 0.16733 0.69196 0.0
H2845 H 0.196 0.24116 0.68017 0.0
H2846 H 0.20662 0.25448 0.72124 0.0
H2847 H 0.16969 0.14743 0.74245 0.0
H2848 H 0.19156 0.13533 0.7565 0.0
H2849 H 0.18938 0.135 0.72554 0.0
H2850 H 0.24462 0.16628 0.72297 0.0
H2851 H 0.24697 0.1667 0.75407 0.0
H2852 H 0.26271 0.19989 0.73823 0.0
H2853 H 0.2109 0.25574 0.7635 0.0
H2854 H 0.20594 0.2436 0.80482 0.0
H2855 H 0.21264 0.16841 0.78949 0.0
C2856 C 0.20707 0.18677 0.69788 0.0
C2857 C 0.20047 0.20333 0.68298 0.0
C2858 C 0.20098 0.22818 0.6914 0.0
C2859 C 0.2073 0.23608 0.7146 0.0
C2860 C 0.21309 0.21892 0.72899 0.0
C2861 C 0.21303 0.19476 0.72099 0.0
C2862 C 0.21588 0.17778 0.74054 0.0
C2863 C 0.19009 0.1471 0.74129 0.0
C2864 C 0.24424 0.17767 0.73885 0.0
C2865 C 0.21599 0.19535 0.76089 0.0
C2866 C 0.21513 0.21938 0.75379 0.0
C2867 C 0.21215 0.23734 0.76933 0.0
C2868 C 0.20914 0.23013 0.79273 0.0
C2869 C 0.20886 0.20502 0.80026 0.0
C2870 C 0.21327 0.18797 0.78422 0.0
H2871 H 0.79953 0.9717 0.79078 0.0
H2872 H 0.81014 0.05639 0.79896 0.0
H2873 H 0.79908 0.05687 0.75767 0.0
H2874 H 0.83536 0.98562 0.73938 0.0
H2875 H 0.81315 0.95082 0.7267 0.0
H2876 H 0.81624 0.95459 0.75757 0.0
H2877 H 0.76108 0.93065 0.76101 0.0
H2878 H 0.75782 0.92685 0.73003 0.0
H2879 H 0.74248 0.94517 0.74514 0.0
H2880 H 0.79326 0.05117 0.71566 0.0
H2881 H 0.79624 0.04123 0.67463 0.0
H2882 H 0.79051 0.96054 0.69308 0.0
C2883 C 0.79873 0.98997 0.78396 0.0
C2884 C 0.80546 0.01393 0.79792 0.0
C2885 C 0.80506 0.03786 0.78841 0.0
C2886 C 0.79851 0.03819 0.7651 0.0
C2887 C 0.79247 0.01444 0.75164 0.0
C2888 C 0.79261 0.99079 0.76065 0.0
C2889 C 0.78923 0.96981 0.74188 0.0
C2890 C 0.81503 0.96496 0.74136 0.0
C2891 C 0.76096 0.94144 0.74468 0.0
C2892 C 0.78849 0.98601 0.72082 0.0
C2893 C 0.78966 0.01134 0.72694 0.0
C2894 C 0.79184 0.0312 0.7106 0.0
C2895 C 0.79371 0.02543 0.68737 0.0
C2896 C 0.79365 0.00012 0.68076 0.0
C2897 C 0.79012 0.97979 0.69765 0.0
H2898 H 0.62016 0.49363 0.61664 0.0
H2899 H 0.69926 0.57014 0.63603 0.0
H2900 H 0.71141 0.5815 0.59506 0.0
H2901 H 0.64801 0.47319 0.57249 0.0
H2902 H 0.61779 0.4605 0.55323 0.0
H2903 H 0.61258 0.46036 0.58392 0.0
H2904 H 0.58827 0.49101 0.5787 0.0
H2905 H 0.59294 0.49084 0.54788 0.0
H2906 H 0.60666 0.52432 0.5631 0.0
H2907 H 0.71876 0.58073 0.55312 0.0
H2908 H 0.71834 0.57037 0.51156 0.0
H2909 H 0.63411 0.49522 0.51915 0.0
C2910 C 0.63959 0.51322 0.61226 0.0
C2911 C 0.65881 0.53089 0.62948 0.0
C2912 C 0.68428 0.55614 0.62309 0.0
C2913 C 0.69136 0.56289 0.59987 0.0
C2914 C 0.67258 0.54437 0.58333 0.0
C2915 C 0.64699 0.52032 0.58913 0.0
C2916 C 0.63173 0.50289 0.56799 0.0
C2917 C 0.62729 0.47245 0.56951 0.0
C2918 C 0.60321 0.50225 0.56419 0.0
C2919 C 0.65331 0.52036 0.5496 0.0
C2920 C 0.67664 0.54425 0.5588 0.0
C2921 C 0.70036 0.56245 0.54554 0.0
C2922 C 0.70006 0.55623 0.52207 0.0
C2923 C 0.67613 0.53211 0.51225 0.0
C2924 C 0.65249 0.51405 0.5262 0.0
H2925 H 0.50116 0.12154 0.61768 0.0
H2926 H 0.42353 0.12332 0.63395 0.0
H2927 H 0.41212 0.12059 0.59258 0.0
H2928 H 0.52092 0.16665 0.57168 0.0
H2929 H 0.53457 0.1488 0.55383 0.0
H2930 H 0.53438 0.14537 0.58474 0.0
H2931 H 0.50493 0.09013 0.58124 0.0
H2932 H 0.50541 0.09334 0.55022 0.0
H2933 H 0.47181 0.07365 0.56524 0.0
H2934 H 0.4132 0.12622 0.55048 0.0
H2935 H 0.42465 0.13558 0.50905 0.0
H2936 H 0.50086 0.12903 0.51944 0.0
C2937 C 0.48128 0.12032 0.61253 0.0
C2938 C 0.46326 0.12268 0.62892 0.0
C2939 C 0.43772 0.12169 0.6216 0.0
C2940 C 0.43095 0.11999 0.59817 0.0
C2941 C 0.44979 0.11901 0.58235 0.0
C2942 C 0.47421 0.11868 0.58914 0.0
C2943 C 0.49215 0.12029 0.5685 0.0
C2944 C 0.52227 0.14686 0.56978 0.0
C2945 C 0.49365 0.0927 0.56616 0.0
C2946 C 0.47461 0.12287 0.54924 0.0
C2947 C 0.45015 0.12184 0.55763 0.0
C2948 C 0.4319 0.1264 0.54354 0.0
C2949 C 0.43873 0.13199 0.52014 0.0
C2950 C 0.46353 0.13286 0.51116 0.0
C2951 C 0.48151 0.12798 0.52586 0.0
H2952 H 0.83645 0.29324 0.52246 0.0
H2953 H 0.90274 0.37898 0.50317 0.0
H2954 H 0.91529 0.39067 0.54411 0.0
H2955 H 0.81187 0.31306 0.56962 0.0
H2956 H 0.8048 0.28279 0.58737 0.0
H2957 H 0.80378 0.27957 0.55644 0.0
H2958 H 0.84139 0.26309 0.55817 0.0
H2959 H 0.84248 0.26621 0.58921 0.0
H2960 H 0.87501 0.28512 0.57268 0.0
H2961 H 0.91649 0.39528 0.58648 0.0
H2962 H 0.90637 0.39225 0.62822 0.0
H2963 H 0.83995 0.30342 0.61997 0.0
C2964 C 0.854 0.31429 0.52678 0.0
C2965 C 0.86856 0.33517 0.50964 0.0
C2966 C 0.89119 0.3626 0.51603 0.0
C2967 C 0.89865 0.36943 0.53921 0.0
C2968 C 0.88348 0.34852 0.55569 0.0
C2969 C 0.86175 0.32146 0.54981 0.0
C2970 C 0.84709 0.30379 0.57096 0.0
C2971 C 0.815 0.29427 0.57109 0.0
C2972 C 0.85179 0.27803 0.57286 0.0
C2973 C 0.86321 0.32561 0.58958 0.0
C2974 C 0.88438 0.35112 0.58042 0.0
C2975 C 0.9004 0.37528 0.59398 0.0
C2976 C 0.89435 0.3734 0.61759 0.0
C2977 C 0.87245 0.34757 0.62722 0.0
C2978 C 0.85715 0.32327 0.6131 0.0
H2979 H 0.63696 0.13356 0.01921 0.0
H2980 H 0.7219 0.14487 0.01009 0.0
H2981 H 0.7258 0.1407 0.05219 0.0
H2982 H 0.65331 0.17636 0.06757 0.0
H2983 H 0.61955 0.15505 0.08203 0.0
H2984 H 0.62132 0.15445 0.05103 0.0
H2985 H 0.59881 0.09931 0.05169 0.0
H2986 H 0.59672 0.09968 0.08276 0.0
H2987 H 0.61508 0.08349 0.06899 0.0
H2988 H 0.72275 0.14037 0.0945 0.0
H2989 H 0.71332 0.14403 0.1354 0.0
H2990 H 0.63043 0.13386 0.1175 0.0
C2991 C 0.65606 0.13438 0.02603 0.0
C2992 C 0.67908 0.13934 0.01149 0.0
C2993 C 0.70405 0.14107 0.02101 0.0
C2994 C 0.70639 0.13856 0.04483 0.0
C2995 C 0.68357 0.13436 0.05873 0.0
C2996 C 0.65885 0.1322 0.04975 0.0
C2997 C 0.63867 0.13042 0.06866 0.0
C2998 C 0.63289 0.15557 0.06723 0.0
C2999 C 0.61066 0.10149 0.06798 0.0
C3000 C 0.65635 0.13277 0.08969 0.0
C3001 C 0.68196 0.13463 0.08349 0.0
C3002 C 0.70264 0.13858 0.09964 0.0
C3003 C 0.6971 0.14084 0.12283 0.0
C3004 C 0.67111 0.13931 0.12965 0.0
C3005 C 0.65035 0.13488 0.11284 0.0
H3006 H 0.87722 0.5009 0.11648 0.0
H3007 H 0.87728 0.57892 0.13506 0.0
H3008 H 0.88075 0.59197 0.0941 0.0
H3009 H 0.92573 0.53149 0.06446 0.0
H3010 H 0.90553 0.4985 0.04868 0.0
H3011 H 0.90868 0.49783 0.07966 0.0
H3012 H 0.85339 0.4692 0.0831 0.0
H3013 H 0.85005 0.47001 0.05226 0.0
H3014 H 0.83265 0.48365 0.07064 0.0
H3015 H 0.875 0.59231 0.05216 0.0
H3016 H 0.86335 0.58113 0.01088 0.0
H3017 H 0.86863 0.50396 0.01893 0.0
C3018 C 0.87887 0.52114 0.11195 0.0
C3019 C 0.87684 0.53879 0.12889 0.0
C3020 C 0.87857 0.56492 0.12232 0.0
C3021 C 0.88079 0.57268 0.09912 0.0
C3022 C 0.88163 0.55429 0.08276 0.0
C3023 C 0.88111 0.52924 0.08881 0.0
C3024 C 0.87915 0.51183 0.06772 0.0
C3025 C 0.90641 0.50981 0.06497 0.0
C3026 C 0.85221 0.48192 0.06849 0.0
C3027 C 0.87702 0.53026 0.04906 0.0
C3028 C 0.8789 0.55484 0.05809 0.0
C3029 C 0.87428 0.57358 0.0447 0.0
C3030 C 0.86741 0.56693 0.0214 0.0
C3031 C 0.86535 0.54185 0.01189 0.0
C3032 C 0.87073 0.52361 0.02578 0.0
H3033 H 0.49667 0.36517 0.01947 0.0
H3034 H 0.42708 0.27752 0.01302 0.0
H3035 H 0.41825 0.27599 0.05491 0.0
H3036 H 0.52471 0.35461 0.06934 0.0
H3037 H 0.53504 0.38879 0.08233 0.0
H3038 H 0.53281 0.38506 0.05142 0.0
H3039 H 0.49735 0.40424 0.0501 0.0
H3040 H 0.49957 0.40818 0.08109 0.0
H3041 H 0.46524 0.38719 0.06731 0.0
H3042 H 0.42044 0.2816 0.0969 0.0
H3043 H 0.43424 0.29334 0.13756 0.0
H3044 H 0.50335 0.37725 0.1174 0.0
C3045 C 0.47909 0.34596 0.02684 0.0
C3046 C 0.46241 0.32151 0.01317 0.0
C3047 C 0.44009 0.29643 0.02334 0.0
C3048 C 0.43476 0.29545 0.04701 0.0
C3049 C 0.45199 0.31971 0.06012 0.0
C3050 C 0.47371 0.34451 0.05048 0.0
C3051 C 0.49117 0.36632 0.06882 0.0
C3052 C 0.52279 0.37413 0.06792 0.0
C3053 C 0.48814 0.39306 0.0667 0.0
C3054 C 0.47651 0.34942 0.0903 0.0
C3055 C 0.45364 0.32283 0.0848 0.0
C3056 C 0.43801 0.30249 0.10151 0.0
C3057 C 0.4462 0.30932 0.12453 0.0
C3058 C 0.46996 0.33621 0.13058 0.0
C3059 C 0.48492 0.3567 0.11327 0.0
H3060 H 0.36791 0.86902 0.86442 0.0
H3061 H 0.28238 0.85353 0.84934 0.0
H3062 H 0.27455 0.85761 0.89058 0.0
H3063 H 0.34946 0.82764 0.91452 0.0
H3064 H 0.38178 0.85093 0.9302 0.0
H3065 H 0.38224 0.85018 0.89914 0.0
H3066 H 0.4022 0.90497 0.89801 0.0
H3067 H 0.40178 0.90586 0.92914 0.0
H3068 H 0.38316 0.91987 0.91266 0.0
H3069 H 0.27372 0.85851 0.93296 0.0
H3070 H 0.28009 0.85589 0.97486 0.0
H3071 H 0.36615 0.87128 0.96301 0.0
C3072 C 0.34776 0.867 0.86978 0.0
C3073 C 0.32578 0.86092 0.85368 0.0
C3074 C 0.2995 0.85801 0.86137 0.0
C3075 C 0.29488 0.8605 0.88475 0.0
C3076 C 0.31676 0.86605 0.9002 0.0
C3077 C 0.3427 0.86933 0.89313 0.0
C3078 C 0.36172 0.87301 0.91359 0.0
C3079 C 0.36922 0.84901 0.9144 0.0
C3080 C 0.38882 0.9027 0.91333 0.0
C3081 C 0.34199 0.87039 0.93318 0.0
C3082 C 0.31631 0.86672 0.92501 0.0
C3083 C 0.29388 0.8618 0.93966 0.0
C3084 C 0.29765 0.8602 0.96338 0.0
C3085 C 0.32364 0.86351 0.97212 0.0
C3086 C 0.34624 0.86917 0.95682 0.0
H3087 H 0.13947 0.49967 0.9634 0.0
H3088 H 0.14647 0.42357 0.97249 0.0
H3089 H 0.13425 0.41126 0.93144 0.0
H3090 H 0.08119 0.46995 0.91942 0.0
H3091 H 0.09706 0.50306 0.90348 0.0
H3092 H 0.10165 0.50354 0.93437 0.0
H3093 H 0.15675 0.53261 0.92925 0.0
H3094 H 0.15232 0.53229 0.89846 0.0
H3095 H 0.17393 0.5188 0.91079 0.0
H3096 H 0.12636 0.40969 0.88967 0.0
H3097 H 0.12702 0.42066 0.84844 0.0
H3098 H 0.12648 0.4987 0.86585 0.0
C3099 C 0.13779 0.4801 0.95681 0.0
C3100 C 0.14371 0.46243 0.97095 0.0
C3101 C 0.14207 0.43737 0.96178 0.0
C3102 C 0.13484 0.43006 0.93862 0.0
C3103 C 0.12942 0.44809 0.92503 0.0
C3104 C 0.13097 0.47269 0.93368 0.0
C3105 C 0.12764 0.49015 0.91478 0.0
C3106 C 0.10025 0.49176 0.91822 0.0
C3107 C 0.15425 0.52022 0.91323 0.0
C3108 C 0.12513 0.47205 0.89402 0.0
C3109 C 0.12552 0.44757 0.90045 0.0
C3110 C 0.12566 0.42855 0.88437 0.0
C3111 C 0.12622 0.4351 0.86102 0.0
C3112 C 0.12694 0.46062 0.85402 0.0
C3113 C 0.12557 0.47889 0.87073 0.0
H3114 H 0.54499 0.71273 0.96087 0.0
H3115 H 0.54275 0.63412 0.98112 0.0
H3116 H 0.54468 0.62273 0.94033 0.0
H3117 H 0.49896 0.685 0.91632 0.0
H3118 H 0.5165 0.71509 0.89699 0.0
H3119 H 0.52114 0.72059 0.92766 0.0
H3120 H 0.5762 0.74533 0.92299 0.0
H3121 H 0.57179 0.7403 0.89214 0.0
H3122 H 0.59165 0.7271 0.90789 0.0
H3123 H 0.53712 0.61497 0.89865 0.0
H3124 H 0.52456 0.61341 0.85748 0.0
H3125 H 0.53321 0.69751 0.8637 0.0
C3126 C 0.5459 0.69363 0.95674 0.0
C3127 C 0.54357 0.67426 0.97409 0.0
C3128 C 0.5443 0.64919 0.96805 0.0
C3129 C 0.54561 0.6426 0.94495 0.0
C3130 C 0.54657 0.66149 0.92818 0.0
C3131 C 0.54722 0.68673 0.93372 0.0
C3132 C 0.54511 0.70167 0.91235 0.0
C3133 C 0.51887 0.7058 0.91341 0.0
C3134 C 0.57285 0.7303 0.90862 0.0
C3135 C 0.5415 0.68003 0.89417 0.0
C3136 C 0.54279 0.6572 0.90365 0.0
C3137 C 0.53686 0.63304 0.89082 0.0
C3138 C 0.52944 0.6322 0.86759 0.0
C3139 C 0.52814 0.65543 0.85758 0.0
C3140 C 0.53465 0.67977 0.87093 0.0
H3141 H 0.30237 0.46337 0.36397 0.0
H3142 H 0.3902 0.48225 0.35666 0.0
H3143 H 0.39213 0.47428 0.39843 0.0
H3144 H 0.31307 0.50105 0.41426 0.0
H3145 H 0.279 0.47678 0.4272 0.0
H3146 H 0.28256 0.47888 0.39628 0.0
H3147 H 0.26371 0.42433 0.39419 0.0
H3148 H 0.25991 0.422 0.42518 0.0
H3149 H 0.28101 0.40914 0.41096 0.0
H3150 H 0.38661 0.46981 0.44061 0.0
H3151 H 0.37474 0.47051 0.48142 0.0
H3152 H 0.29067 0.45579 0.46162 0.0
C3153 C 0.32172 0.46503 0.37108 0.0
C3154 C 0.34607 0.4732 0.35722 0.0
C3155 C 0.37133 0.47599 0.36711 0.0
C3156 C 0.37255 0.47129 0.39071 0.0
C3157 C 0.34835 0.46387 0.40401 0.0
C3158 C 0.3234 0.46074 0.39461 0.0
C3159 C 0.30163 0.45589 0.41307 0.0
C3160 C 0.29362 0.47956 0.41267 0.0
C3161 C 0.27499 0.42606 0.4107 0.0
C3162 C 0.31868 0.45786 0.43438 0.0
C3163 C 0.34534 0.46191 0.4287 0.0
C3164 C 0.36568 0.46624 0.44534 0.0
C3165 C 0.35874 0.46678 0.46847 0.0
C3166 C 0.33175 0.46329 0.4747 0.0
C3167 C 0.31134 0.45829 0.45741 0.0
H3168 H 0.49735 0.87526 0.36686 0.0
H3169 H 0.57555 0.87472 0.35031 0.0
H3170 H 0.58526 0.87375 0.39169 0.0
H3171 H 0.52486 0.9187 0.42166 0.0
H3172 H 0.49073 0.898 0.43574 0.0
H3173 H 0.49231 0.90361 0.40495 0.0
H3174 H 0.46283 0.84876 0.39871 0.0
H3175 H 0.4616 0.84292 0.42938 0.0
H3176 H 0.47574 0.8264 0.41055 0.0
H3177 H 0.58255 0.86455 0.43336 0.0
H3178 H 0.57016 0.85288 0.47442 0.0
H3179 H 0.49456 0.86072 0.46481 0.0
C3180 C 0.51699 0.87598 0.37201 0.0
C3181 C 0.53566 0.87501 0.35547 0.0
C3182 C 0.56088 0.8753 0.36277 0.0
C3183 C 0.56666 0.87487 0.38621 0.0
C3184 C 0.54718 0.87444 0.4021 0.0
C3185 C 0.52311 0.87552 0.39544 0.0
C3186 C 0.5045 0.8724 0.41604 0.0
C3187 C 0.50303 0.89982 0.41982 0.0
C3188 C 0.4744 0.84605 0.41351 0.0
C3189 C 0.52133 0.86823 0.43507 0.0
C3190 C 0.54593 0.86964 0.42661 0.0
C3191 C 0.56371 0.86403 0.44037 0.0
C3192 C 0.55634 0.85712 0.46356 0.0
C3193 C 0.53151 0.85606 0.47268 0.0
C3194 C 0.5139 0.86184 0.45828 0.0
H3195 H 0.16042 0.69731 0.36264 0.0
H3196 H 0.0887 0.61167 0.35156 0.0
H3197 H 0.07655 0.60827 0.3929 0.0
H3198 H 0.18336 0.68224 0.41224 0.0
H3199 H 0.1943 0.71576 0.42666 0.0
H3200 H 0.19385 0.71426 0.39565 0.0
H3201 H 0.16027 0.73567 0.39425 0.0
H3202 H 0.16079 0.73748 0.42536 0.0
H3203 H 0.12716 0.71869 0.41019 0.0
H3204 H 0.07664 0.61093 0.43512 0.0
H3205 H 0.08909 0.61903 0.47631 0.0
H3206 H 0.16139 0.70281 0.46039 0.0
C3207 C 0.14161 0.67822 0.36879 0.0
C3208 C 0.12539 0.6548 0.35402 0.0
C3209 C 0.1014 0.62983 0.36271 0.0
C3210 C 0.09419 0.62781 0.38607 0.0
C3211 C 0.11115 0.65097 0.40034 0.0
C3212 C 0.13431 0.67576 0.39207 0.0
C3213 C 0.15129 0.69593 0.41147 0.0
C3214 C 0.18253 0.7024 0.4115 0.0
C3215 C 0.14977 0.72358 0.41024 0.0
C3216 C 0.13489 0.67793 0.43199 0.0
C3217 C 0.11147 0.65238 0.42513 0.0
C3218 C 0.09455 0.63106 0.44078 0.0
C3219 C 0.10199 0.63579 0.4641 0.0
C3220 C 0.12628 0.66155 0.47146 0.0
C3221 C 0.14252 0.68311 0.45525 0.0
H3222 H 0.11113 0.3835 0.03905 0.0
H3223 H 0.07166 0.42039 0.08148 0.0
H3224 H 0.03322 0.37139 0.0922 0.0
H3225 H 0.04412 0.31945 0.01955 0.0
H3226 H 0.06076 0.29766 0.02062 0.0
H3227 H 0.08185 0.3352 0.01381 0.0
H3228 H 0.11663 0.34212 0.04741 0.0
H3229 H 0.0958 0.30475 0.05418 0.0
H3230 H 0.10254 0.33106 0.07616 0.0
H3231 H 0.00321 0.31772 0.10221 0.0
H3232 H 0.98661 0.26681 0.1113 0.0
H3233 H 0.04658 0.26724 0.06141 0.0
C3234 C 0.09419 0.38137 0.05037 0.0
C3235 C 0.09444 0.40563 0.05966 0.0
C3236 C 0.07177 0.40197 0.07419 0.0
C3237 C 0.04987 0.37426 0.08027 0.0
C3238 C 0.05078 0.35069 0.07119 0.0
C3239 C 0.07234 0.3542 0.05634 0.0
C3240 C 0.07047 0.32612 0.05036 0.0
C3241 C 0.0639 0.3192 0.02455 0.0
C3242 C 0.09797 0.32602 0.05747 0.0
C3243 C 0.04533 0.30615 0.06511 0.0
C3244 C 0.0337 0.32038 0.07668 0.0
C3245 C 0.0118 0.30634 0.09286 0.0
C3246 C 0.00239 0.27742 0.09784 0.0
C3247 C 0.0153 0.26324 0.08693 0.0
C3248 C 0.0362 0.27757 0.06982 0.0
H3249 H 0.74133 0.78569 0.06055 0.0
H3250 H 0.74447 0.72889 0.11175 0.0
H3251 H 0.69344 0.69365 0.10405 0.0
H3252 H 0.67915 0.77839 0.07639 0.0
H3253 H 0.66594 0.77963 0.04805 0.0
H3254 H 0.70376 0.79654 0.05303 0.0
H3255 H 0.70894 0.76668 0.02031 0.0
H3256 H 0.67108 0.75007 0.01471 0.0
H3257 H 0.68697 0.72824 0.0206 0.0
H3258 H 0.63957 0.66948 0.09591 0.0
H3259 H 0.58997 0.65789 0.08639 0.0
H3260 H 0.62419 0.73192 0.04127 0.0
C3261 C 0.73156 0.76526 0.06938 0.0
C3262 C 0.74662 0.75975 0.08655 0.0
C3263 C 0.73325 0.73314 0.09819 0.0
C3264 C 0.70428 0.71313 0.094 0.0
C3265 C 0.68942 0.72002 0.07785 0.0
C3266 C 0.70294 0.74526 0.06536 0.0
C3267 C 0.68206 0.74961 0.05107 0.0
C3268 C 0.68278 0.77768 0.05755 0.0
C3269 C 0.68759 0.74857 0.02514 0.0
C3270 C 0.65443 0.72377 0.05843 0.0
C3271 C 0.65886 0.70653 0.07351 0.0
C3272 C 0.63593 0.68256 0.08375 0.0
C3273 C 0.60788 0.67621 0.07837 0.0
C3274 C 0.60324 0.69416 0.0633 0.0
C3275 C 0.62693 0.71787 0.05304 0.0
H3276 H 0.22354 0.94168 0.1114 0.0
H3277 H 0.26924 0.02141 0.0735 0.0
H3278 H 0.30599 0.00863 0.06237 0.0
H3279 H 0.28643 0.93921 0.13218 0.0
H3280 H 0.26851 0.90085 0.1292 0.0
H3281 H 0.24818 0.91814 0.13582 0.0
H3282 H 0.21581 0.89413 0.10009 0.0
H3283 H 0.23586 0.87667 0.09351 0.0
H3284 H 0.23205 0.89873 0.07204 0.0
H3285 H 0.33491 0.98345 0.05239 0.0
H3286 H 0.35112 0.94867 0.04381 0.0
H3287 H 0.2857 0.8872 0.08953 0.0
C3288 C 0.24134 0.95668 0.10086 0.0
C3289 C 0.24339 0.98241 0.09309 0.0
C3290 C 0.26726 0.00154 0.0796 0.0
C3291 C 0.28823 0.99447 0.0733 0.0
C3292 C 0.28517 0.96853 0.08104 0.0
C3293 C 0.2623 0.95015 0.0947 0.0
C3294 C 0.2624 0.92282 0.09984 0.0
C3295 C 0.26664 0.92012 0.1258 0.0
C3296 C 0.23492 0.89656 0.09081 0.0
C3297 C 0.2883 0.92797 0.08619 0.0
C3298 C 0.3016 0.95456 0.07568 0.0
C3299 C 0.32488 0.96281 0.06085 0.0
C3300 C 0.33405 0.94303 0.05616 0.0
C3301 C 0.31965 0.91533 0.06606 0.0
C3302 C 0.29719 0.90828 0.08179 0.0
H3303 H 0.26427 0.04365 0.41936 0.0
H3304 H 0.25713 0.97391 0.37749 0.0
H3305 H 0.30693 0.98726 0.38805 0.0
H3306 H 0.32997 0.09286 0.40261 0.0
H3307 H 0.34218 0.11063 0.43009 0.0
H3308 H 0.30465 0.09174 0.42351 0.0
H3309 H 0.29425 0.06075 0.46033 0.0
H3310 H 0.33184 0.07989 0.46732 0.0
H3311 H 0.31306 0.04143 0.46505 0.0
H3312 H 0.36078 0.01439 0.39812 0.0
H3313 H 0.41112 0.05092 0.40752 0.0
H3314 H 0.38063 0.1017 0.4423 0.0
C3315 C 0.27287 0.03057 0.41308 0.0
C3316 C 0.25704 0.00776 0.39776 0.0
C3317 C 0.26892 0.99125 0.38958 0.0
C3318 C 0.29718 0.99876 0.39543 0.0
C3319 C 0.31281 0.02241 0.40979 0.0
C3320 C 0.3007 0.03765 0.41884 0.0
C3321 C 0.32229 0.06387 0.4318 0.0
C3322 C 0.32492 0.09137 0.42136 0.0
C3323 C 0.31492 0.06132 0.45766 0.0
C3324 C 0.34888 0.06202 0.42763 0.0
C3325 C 0.34322 0.03781 0.41532 0.0
C3326 C 0.3653 0.03312 0.40814 0.0
C3327 C 0.39378 0.05393 0.41348 0.0
C3328 C 0.39969 0.07919 0.42542 0.0
C3329 C 0.37681 0.08271 0.43297 0.0
H3330 H 0.95439 0.2116 0.41819 0.0
H3331 H 0.02122 0.27432 0.37427 0.0
H3332 H 0.0064 0.30973 0.38447 0.0
H3333 H 0.90267 0.22528 0.4027 0.0
H3334 H 0.88627 0.22028 0.43072 0.0
H3335 H 0.90583 0.20243 0.4238 0.0
H3336 H 0.93858 0.22521 0.45948 0.0
H3337 H 0.91877 0.24284 0.46683 0.0
H3338 H 0.95705 0.26349 0.46325 0.0
H3339 H 0.97774 0.33468 0.39417 0.0
H3340 H 0.94082 0.3474 0.40451 0.0
H3341 H 0.89464 0.26774 0.44259 0.0
C3342 C 0.96656 0.23315 0.41142 0.0
C3343 C 0.98896 0.24047 0.39564 0.0
C3344 C 0.00425 0.26862 0.38674 0.0
C3345 C 0.99589 0.28875 0.39236 0.0
C3346 C 0.97269 0.2804 0.40726 0.0
C3347 C 0.95873 0.25338 0.41706 0.0
C3348 C 0.93293 0.2484 0.43081 0.0
C3349 C 0.90532 0.22259 0.42143 0.0
C3350 C 0.9371 0.24479 0.45663 0.0
C3351 C 0.93354 0.2762 0.42628 0.0
C3352 C 0.95669 0.29468 0.41293 0.0
C3353 C 0.9599 0.32062 0.40507 0.0
C3354 C 0.9388 0.32763 0.41093 0.0
C3355 C 0.91476 0.30858 0.42431 0.0
C3356 C 0.91267 0.2829 0.43234 0.0
H3357 H 0.76714 0.71301 0.36746 0.0
H3358 H 0.73318 0.75073 0.41493 0.0
H3359 H 0.69706 0.70204 0.42832 0.0
H3360 H 0.69853 0.64728 0.35372 0.0
H3361 H 0.71592 0.62619 0.35262 0.0
H3362 H 0.73525 0.66339 0.34443 0.0
H3363 H 0.77485 0.67267 0.37434 0.0
H3364 H 0.75575 0.63566 0.38251 0.0
H3365 H 0.7651 0.66298 0.40413 0.0
H3366 H 0.66915 0.64877 0.43994 0.0
H3367 H 0.65439 0.59823 0.44921 0.0
H3368 H 0.708 0.59781 0.39382 0.0
C3369 C 0.75183 0.71114 0.38043 0.0
C3370 C 0.75304 0.73559 0.39029 0.0
C3371 C 0.73252 0.73219 0.4071 0.0
C3372 C 0.71193 0.70464 0.41473 0.0
C3373 C 0.71196 0.68093 0.40502 0.0
C3374 C 0.73135 0.68412 0.38804 0.0
C3375 C 0.72928 0.65604 0.38173 0.0
C3376 C 0.71913 0.64774 0.35663 0.0
C3377 C 0.75792 0.65691 0.38595 0.0
C3378 C 0.70662 0.63653 0.39857 0.0
C3379 C 0.69627 0.65089 0.41159 0.0
C3380 C 0.67674 0.63727 0.42952 0.0
C3381 C 0.66837 0.60861 0.43463 0.0
C3382 C 0.68003 0.59437 0.42206 0.0
C3383 C 0.69862 0.60828 0.40347 0.0
H3384 H 0.88214 0.61926 0.93483 0.0
H3385 H 0.93619 0.58791 0.90745 0.0
H3386 H 0.97331 0.63798 0.89795 0.0
H3387 H 0.8962 0.6704 0.89299 0.0
H3388 H 0.89496 0.69544 0.91288 0.0
H3389 H 0.87483 0.65777 0.91884 0.0
H3390 H 0.90011 0.66662 0.95865 0.0
H3391 H 0.9206 0.70439 0.95264 0.0
H3392 H 0.93864 0.68495 0.95996 0.0
H3393 H 0.00266 0.69263 0.88879 0.0
H3394 H 0.01904 0.74355 0.87959 0.0
H3395 H 0.94456 0.73604 0.91437 0.0
C3396 C 0.90174 0.62264 0.92684 0.0
C3397 C 0.9061 0.59956 0.92162 0.0
C3398 C 0.93234 0.60527 0.91152 0.0
C3399 C 0.95353 0.63363 0.90618 0.0
C3400 C 0.94822 0.65586 0.91147 0.0
C3401 C 0.92287 0.65041 0.9217 0.0
C3402 C 0.92105 0.67717 0.92479 0.0
C3403 C 0.89525 0.67506 0.91158 0.0
C3404 C 0.92005 0.68366 0.95054 0.0
C3405 C 0.94899 0.69874 0.914 0.0
C3406 C 0.96477 0.68643 0.90663 0.0
C3407 C 0.99059 0.70244 0.8948 0.0
C3408 C -0.00015 0.73135 0.88978 0.0
C3409 C 0.98304 0.7436 0.89637 0.0
C3410 C 0.95789 0.72723 0.90924 0.0
H3411 H 0.38181 0.26738 0.94004 0.0
H3412 H 0.41453 0.35031 0.90738 0.0
H3413 H 0.3647 0.33788 0.89772 0.0
H3414 H 0.33104 0.22804 0.89946 0.0
H3415 H 0.3053 0.20345 0.9199 0.0
H3416 H 0.34279 0.22095 0.92656 0.0
H3417 H 0.33352 0.24065 0.96451 0.0
H3418 H 0.29589 0.22333 0.95779 0.0
H3419 H 0.31564 0.26127 0.96333 0.0
H3420 H 0.31087 0.31313 0.88813 0.0
H3421 H 0.26042 0.27833 0.87786 0.0
H3422 H 0.26549 0.21294 0.91745 0.0
C3423 C 0.37869 0.28318 0.931 0.0
C3424 C 0.40205 0.30972 0.92424 0.0
C3425 C 0.39687 0.32981 0.91268 0.0
C3426 C 0.36867 0.32297 0.90726 0.0
C3427 C 0.34613 0.29625 0.91393 0.0
C3428 C 0.35104 0.27683 0.92568 0.0
C3429 C 0.32396 0.24869 0.92944 0.0
C3430 C 0.3259 0.22385 0.91815 0.0
C3431 C 0.31684 0.24318 0.95531 0.0
C3432 C 0.30294 0.25464 0.91706 0.0
C3433 C 0.31577 0.28231 0.9086 0.0
C3434 C 0.30058 0.29163 0.89503 0.0
C3435 C 0.27196 0.27184 0.88938 0.0
C3436 C 0.25931 0.24314 0.89701 0.0
C3437 C 0.27472 0.23487 0.9116 0.0
H3438 H 0.71355 0.11586 0.8906 0.0
H3439 H 0.65351 0.05695 0.94072 0.0
H3440 H 0.66921 0.02197 0.9314 0.0
H3441 H 0.70957 0.06051 0.84849 0.0
H3442 H 0.74727 0.08222 0.84248 0.0
H3443 H 0.72655 0.09897 0.84958 0.0
H3444 H 0.76208 0.12677 0.8827 0.0
H3445 H 0.78256 0.10981 0.87609 0.0
H3446 H 0.76859 0.10717 0.90482 0.0
H3447 H 0.69838 0.9975 0.92104 0.0
H3448 H 0.73605 0.98604 0.90981 0.0
H3449 H 0.77601 0.06231 0.86726 0.0
C3450 C 0.70295 0.09513 0.89897 0.0
C3451 C 0.68229 0.08889 0.91621 0.0
C3452 C 0.66908 0.06182 0.92714 0.0
C3453 C 0.67797 0.04194 0.92201 0.0
C3454 C 0.69962 0.04942 0.90566 0.0
C3455 C 0.71145 0.07526 0.894 0.0
C3456 C 0.73637 0.08002 0.87913 0.0
C3457 C 0.72952 0.08044 0.85339 0.0
C3458 C 0.76401 0.10755 0.88613 0.0
C3459 C 0.73784 0.05362 0.88511 0.0
C3460 C 0.71629 0.03579 0.90005 0.0
C3461 C 0.71501 0.0111 0.90901 0.0
C3462 C 0.73647 0.00477 0.90264 0.0
C3463 C 0.75905 0.02346 0.88789 0.0
C3464 C 0.75917 0.04773 0.87876 0.0
H3465 H 0.73241 0.94662 0.56511 0.0
H3466 H 0.73972 0.01945 0.60248 0.0
H3467 H 0.68935 0.0044 0.59234 0.0
H3468 H 0.68244 0.94431 0.51883 0.0
H3469 H 0.66395 0.90576 0.5186 0.0
H3470 H 0.70164 0.92575 0.52516 0.0
H3471 H 0.69208 0.89785 0.56363 0.0
H3472 H 0.65445 0.87815 0.55747 0.0
H3473 H 0.66697 0.89812 0.58402 0.0
H3474 H 0.63514 0.9759 0.58295 0.0
H3475 H 0.58486 0.93874 0.5741 0.0
H3476 H 0.61568 0.88596 0.54329 0.0
C3477 C 0.72369 0.95993 0.5705 0.0
C3478 C 0.73978 0.98418 0.58443 0.0
C3479 C 0.72772 0.00099 0.59146 0.0
C3480 C 0.69914 0.99251 0.58586 0.0
C3481 C 0.68333 0.96755 0.5729 0.0
C3482 C 0.69555 0.95191 0.56496 0.0
C3483 C 0.67392 0.92462 0.55323 0.0
C3484 C 0.6809 0.92516 0.52742 0.0
C3485 C 0.67174 0.89815 0.56533 0.0
C3486 C 0.64723 0.92648 0.55673 0.0
C3487 C 0.65282 0.95147 0.56774 0.0
C3488 C 0.63067 0.9565 0.57398 0.0
C3489 C 0.60221 0.93532 0.56896 0.0
C3490 C 0.59635 0.90936 0.55823 0.0
C3491 C 0.61933 0.90543 0.55172 0.0
H3492 H 0.05181 0.77007 0.61227 0.0
H3493 H 0.97304 0.72668 0.57278 0.0
H3494 H 0.98551 0.68986 0.561 0.0
H3495 H 0.09493 0.76373 0.57262 0.0
H3496 H 0.11698 0.75901 0.59355 0.0
H3497 H 0.09923 0.7784 0.6013 0.0
H3498 H 0.07502 0.74408 0.63591 0.0
H3499 H 0.09272 0.72445 0.62817 0.0
H3500 H 0.05431 0.70605 0.63093 0.0
H3501 H 0.01076 0.66133 0.55008 0.0
H3502 H 0.04607 0.6461 0.54028 0.0
H3503 H 0.1072 0.71 0.58712 0.0
C3504 C 0.03688 0.75267 0.60134 0.0
C3505 C 0.0116 0.75133 0.59321 0.0
C3506 C 0.99254 0.72803 0.57919 0.0
C3507 C 0.99945 0.70706 0.5725 0.0
C3508 C 0.02514 0.7096 0.5804 0.0
C3509 C 0.04335 0.73184 0.5947 0.0
C3510 C 0.0708 0.73182 0.59942 0.0
C3511 C 0.097 0.75988 0.59122 0.0
C3512 C 0.07334 0.72626 0.62513 0.0
C3513 C 0.06599 0.70678 0.58476 0.0
C3514 C 0.03938 0.69366 0.57422 0.0
C3515 C 0.03139 0.67118 0.55857 0.0
C3516 C 0.05144 0.66258 0.55317 0.0
C3517 C 0.0791 0.6769 0.56312 0.0
C3518 C 0.08602 0.69862 0.57949 0.0
H3519 H 0.26901 0.3703 0.53915 0.0
H3520 H 0.3454 0.40559 0.58176 0.0
H3521 H 0.33447 0.35639 0.5915 0.0
H3522 H 0.22518 0.31766 0.57601 0.0
H3523 H 0.2051 0.29166 0.55395 0.0
H3524 H 0.222 0.32911 0.54744 0.0
H3525 H 0.2491 0.32198 0.5134 0.0
H3526 H 0.23236 0.28437 0.52002 0.0
H3527 H 0.27081 0.30581 0.5187 0.0
H3528 H 0.31091 0.30313 0.60078 0.0
H3529 H 0.27603 0.25259 0.61036 0.0
H3530 H 0.21605 0.25382 0.56129 0.0
C3531 C 0.28381 0.36783 0.55025 0.0
C3532 C 0.30799 0.39179 0.55979 0.0
C3533 C 0.32676 0.38751 0.5742 0.0
C3534 C 0.32079 0.35966 0.57971 0.0
C3535 C 0.2963 0.33647 0.57033 0.0
C3536 C 0.27826 0.34044 0.55578 0.0
C3537 C 0.25175 0.31255 0.54982 0.0
C3538 C 0.22442 0.31277 0.55727 0.0
C3539 C 0.25098 0.30579 0.52395 0.0
C3540 C 0.2568 0.29226 0.56429 0.0
C3541 C 0.2829 0.30615 0.57559 0.0
C3542 C 0.29074 0.29196 0.59163 0.0
C3543 C 0.27092 0.26325 0.59689 0.0
C3544 C 0.24358 0.2495 0.58639 0.0
C3545 C 0.23702 0.26387 0.56929 0.0
H3546 H 0.0611 0.44965 0.74028 0.0
H3547 H 0.06169 0.37982 0.77659 0.0
H3548 H 0.01202 0.34672 0.76288 0.0
H3549 H 0.9934 0.43314 0.7544 0.0
H3550 H 0.98527 0.44362 0.72714 0.0
H3551 H 0.02172 0.45994 0.73683 0.0
H3552 H 0.03613 0.44469 0.69902 0.0
H3553 H 0.99971 0.42856 0.68896 0.0
H3554 H 0.01725 0.40763 0.69036 0.0
H3555 H 0.95935 0.32329 0.74856 0.0
H3556 H 0.91131 0.31219 0.73439 0.0
H3557 H 0.94842 0.39884 0.70815 0.0
C3558 C 0.05099 0.42722 0.74493 0.0
C3559 C 0.06488 0.41711 0.75944 0.0
C3560 C 0.05122 0.38775 0.76526 0.0
C3561 C 0.02309 0.36893 0.75761 0.0
C3562 C 0.00951 0.37995 0.74389 0.0
C3563 C 0.02339 0.40842 0.73737 0.0
C3564 C 0.00415 0.41599 0.72401 0.0
C3565 C 0.00095 0.43954 0.73634 0.0
C3566 C 0.01495 0.42471 0.69911 0.0
C3567 C 0.97678 0.38763 0.72469 0.0
C3568 C 0.98003 0.36683 0.73592 0.0
C3569 C 0.95675 0.33937 0.73948 0.0
C3570 C 0.92958 0.33325 0.73145 0.0
C3571 C 0.92607 0.35471 0.72036 0.0
C3572 C 0.95019 0.38196 0.71674 0.0
H3573 H 0.5425 0.6107 0.73871 0.0
H3574 H 0.60673 0.67288 0.7848 0.0
H3575 H 0.64148 0.6586 0.77108 0.0
H3576 H 0.55598 0.55708 0.74813 0.0
H3577 H 0.54999 0.54371 0.71892 0.0
H3578 H 0.53259 0.56254 0.72916 0.0
H3579 H 0.55444 0.59885 0.69551 0.0
H3580 H 0.57168 0.57989 0.68486 0.0
H3581 H 0.59261 0.61763 0.69099 0.0
H3582 H 0.66588 0.63123 0.75653 0.0
H3583 H 0.6781 0.59566 0.74138 0.0
H3584 H 0.59706 0.55321 0.70468 0.0
C3585 C 0.56417 0.62185 0.74539 0.0
C3586 C 0.57221 0.64276 0.76267 0.0
C3587 C 0.60051 0.65695 0.7713 0.0
C3588 C 0.62025 0.64895 0.76363 0.0
C3589 C 0.61127 0.6273 0.74707 0.0
C3590 C 0.58398 0.61442 0.73776 0.0
C3591 C 0.57838 0.59018 0.72174 0.0
C3592 C 0.55274 0.56172 0.73 0.0
C3593 C 0.57404 0.59706 0.6968 0.0
C3594 C 0.6062 0.5903 0.72434 0.0
C3595 C 0.62519 0.612 0.73869 0.0
C3596 C 0.65139 0.61454 0.74489 0.0
C3597 C 0.65811 0.59423 0.73629 0.0
C3598 C 0.63848 0.5716 0.72194 0.0
C3599 C 0.61256 0.57017 0.71565 0.0
H3600 H 0.45309 0.06376 0.74625 0.0
H3601 H 0.38709 0.07075 0.70919 0.0
H3602 H 0.35074 0.02263 0.72346 0.0
H3603 H 0.43017 0.99393 0.73401 0.0
H3604 H 0.43905 0.98522 0.76172 0.0
H3605 H 0.45834 0.02136 0.75131 0.0
H3606 H 0.44523 0.03917 0.78844 0.0
H3607 H 0.42597 0.00298 0.79911 0.0
H3608 H 0.40822 0.02363 0.79675 0.0
H3609 H 0.32329 0.97015 0.73764 0.0
H3610 H 0.308 0.92088 0.7513 0.0
H3611 H 0.39279 0.95149 0.77991 0.0
C3612 C 0.43086 0.05542 0.74154 0.0
C3613 C 0.42276 0.07072 0.72664 0.0
C3614 C 0.39356 0.05928 0.7208 0.0
C3615 C 0.37286 0.03201 0.72879 0.0
C3616 C 0.38177 0.01699 0.74298 0.0
C3617 C 0.4101 0.02869 0.7496 0.0
C3618 C 0.41496 0.00802 0.76367 0.0
C3619 C 0.4369 0.00177 0.75196 0.0
C3620 C 0.42413 0.01911 0.78846 0.0
C3621 C 0.38526 0.9823 0.76312 0.0
C3622 C 0.36614 0.98766 0.75137 0.0
C3623 C 0.33799 0.96593 0.74725 0.0
C3624 C 0.32946 0.93803 0.75505 0.0
C3625 C 0.34919 0.93227 0.76658 0.0
C3626 C 0.3771 0.95501 0.77109 0.0
H3627 H 0.6069 0.04638 0.20032 0.0
H3628 H 0.68978 0.08121 0.23367 0.0
H3629 H 0.67617 0.03273 0.24795 0.0
H3630 H 0.56813 0.00446 0.24477 0.0
H3631 H 0.54185 0.97555 0.22731 0.0
H3632 H 0.56039 0.01123 0.21589 0.0
H3633 H 0.57751 0.99368 0.1809 0.0
H3634 H 0.5588 0.95776 0.1922 0.0
H3635 H 0.59647 0.97456 0.1858 0.0
H3636 H 0.65034 0.9812 0.26284 0.0
H3637 H 0.61454 0.93332 0.27797 0.0
H3638 H 0.54902 0.93499 0.23585 0.0
C3639 C 0.62257 0.04388 0.21019 0.0
C3640 C 0.64939 0.0676 0.21592 0.0
C3641 C 0.66915 0.06328 0.22895 0.0
C3642 C 0.66161 0.03582 0.23708 0.0
C3643 C 0.63445 0.01306 0.23176 0.0
C3644 C 0.61537 0.01694 0.21846 0.0
C3645 C 0.58634 0.99028 0.21734 0.0
C3646 C 0.56283 0.99572 0.22691 0.0
C3647 C 0.57939 0.97837 0.19259 0.0
C3648 C 0.59151 0.97103 0.23299 0.0
C3649 C 0.61951 0.98407 0.24073 0.0
C3650 C 0.62851 0.97067 0.25659 0.0
C3651 C 0.60815 0.94359 0.26507 0.0
C3652 C 0.57924 0.93084 0.25801 0.0
C3653 C 0.5711 0.94444 0.24143 0.0
H3654 H 0.07448 0.61439 0.23406 0.0
H3655 H 0.07735 0.68277 0.27529 0.0
H3656 H 0.02811 0.66865 0.26239 0.0
H3657 H 0.02905 0.61665 0.186 0.0
H3658 H 0.01083 0.57827 0.18315 0.0
H3659 H 0.04774 0.59754 0.19219 0.0
H3660 H 0.03449 0.56568 0.22875 0.0
H3661 H 0.99757 0.54668 0.22014 0.0
H3662 H 0.00737 0.5638 0.24803 0.0
H3663 H 0.97558 0.64147 0.24955 0.0
H3664 H 0.92659 0.606 0.23659 0.0
H3665 H 0.96007 0.55609 0.20452 0.0
C3666 C 0.06507 0.62696 0.23983 0.0
C3667 C 0.07953 0.64962 0.2556 0.0
C3668 C 0.06662 0.66552 0.26295 0.0
C3669 C 0.03867 0.65757 0.25578 0.0
C3670 C 0.02441 0.63408 0.24101 0.0
C3671 C 0.03752 0.6194 0.23282 0.0
C3672 C 0.01722 0.59341 0.21893 0.0
C3673 C 0.02678 0.59668 0.19356 0.0
C3674 C 0.01398 0.56579 0.22962 0.0
C3675 C 0.99018 0.59486 0.22141 0.0
C3676 C 0.99462 0.61859 0.23386 0.0
C3677 C 0.97202 0.62311 0.23944 0.0
C3678 C 0.94427 0.60281 0.2321 0.0
C3679 C 0.93945 0.57819 0.21962 0.0
C3680 C 0.96289 0.57458 0.21407 0.0
H3681 H 0.40365 0.45521 0.27438 0.0
H3682 H 0.31659 0.40088 0.25021 0.0
H3683 H 0.33021 0.36604 0.23544 0.0
H3684 H 0.43781 0.44685 0.22715 0.0
H3685 H 0.46643 0.44763 0.24382 0.0
H3686 H 0.4485 0.4659 0.25422 0.0
H3687 H 0.43654 0.43722 0.29257 0.0
H3688 H 0.45444 0.4188 0.28218 0.0
H3689 H 0.41777 0.39867 0.29167 0.0
H3690 H 0.35589 0.33904 0.22082 0.0
H3691 H 0.39058 0.32458 0.20709 0.0
H3692 H 0.45917 0.39841 0.24147 0.0
C3693 C 0.38721 0.43595 0.26612 0.0
C3694 C 0.35909 0.43087 0.26328 0.0
C3695 C 0.3383 0.40519 0.25256 0.0
C3696 C 0.34585 0.38531 0.24419 0.0
C3697 C 0.37408 0.3914 0.24702 0.0
C3698 C 0.39428 0.41616 0.25788 0.0
C3699 C 0.42355 0.41917 0.25781 0.0
C3700 C 0.44533 0.44649 0.24498 0.0
C3701 C 0.43365 0.4184 0.28253 0.0
C3702 C 0.41709 0.39263 0.24459 0.0
C3703 C 0.38848 0.37644 0.23871 0.0
C3704 C 0.37825 0.35148 0.22554 0.0
C3705 C 0.39798 0.34338 0.21787 0.0
C3706 C 0.42742 0.36058 0.22315 0.0
C3707 C 0.43676 0.38501 0.23707 0.0
loop_
_geom_bond_atom_site_label_1
_geom_bond_atom_site_label_2
_geom_bond_distance
_geom_bond_site_symmetry_2
_ccdc_geom_bond_type
Sc0 O3 2.025 . S
Sc0 O10 2.105 1_455 S
Sc0 O13 2.105 . S
Sc0 O16 2.105 1_455 S
Sc0 O19 2.105 . S
Sc1 O3 2.025 . S
Sc1 O11 2.105 . S
Sc1 O15 2.105 . S
Sc1 O17 2.105 . S
Sc1 O21 2.105 . S
Sc2 O3 2.025 1_655 S
Sc2 O12 2.105 1_655 S
Sc2 O14 2.105 . S
Sc2 O18 2.105 1_655 S
Sc2 O20 2.105 . S
O3 Sc0 2.025 . S
O3 Sc1 2.025 . S
O3 Sc2 2.025 1_455 S
C4 O10 1.268 . S
C4 O20 1.268 . S
C5 O11 1.268 . S
C5 O19 1.268 . S
C6 O12 1.268 . S
C6 O21 1.268 . S
C7 O13 1.268 . S
C7 O17 1.268 . S
C8 O14 1.268 . S
C8 O16 1.268 . S
C9 O15 1.268 . S
C9 O18 1.268 . S
O10 Sc0 2.105 1_655 S
O10 C4 1.268 . S
O11 Sc1 2.105 . S
O11 C5 1.268 . S
O12 Sc2 2.105 1_455 S
O12 C6 1.268 . S
O13 Sc0 2.105 . S
O13 C7 1.268 . S
O14 Sc2 2.105 . S
O14 C8 1.268 . S
O15 Sc1 2.105 . S
O15 C9 1.268 . S
O16 Sc0 2.105 1_655 S
O16 C8 1.268 . S
O17 Sc1 2.105 . S
O17 C7 1.268 . S
O18 Sc2 2.105 1_455 S
O18 C9 1.268 . S
O19 Sc0 2.105 . S
O19 C5 1.268 . S
O20 Sc2 2.105 . S
O20 C4 1.268 . S
O21 Sc1 2.105 . S
O21 C6 1.268 . S
Sc22 O25 2.025 . S
Sc22 O32 2.105 . S
Sc22 O35 2.105 . S
Sc22 O38 2.105 . S
Sc22 O41 2.105 . S
Sc23 O25 2.025 . S
Sc23 O33 2.105 . S
Sc23 O37 2.105 . S
Sc23 O39 2.105 . S
Sc23 O43 2.105 . S
Sc24 O25 2.025 . S
Sc24 O34 2.105 . S
Sc24 O36 2.105 . S
Sc24 O40 2.105 . S
Sc24 O42 2.105 . S
O25 Sc22 2.025 . S
O25 Sc23 2.025 . S
O25 Sc24 2.025 . S
C26 O32 1.268 . S
C26 O42 1.268 . S
C27 O33 1.268 . S
C27 O41 1.268 . S
C28 O34 1.268 . S
C28 O43 1.268 . S
C29 O35 1.268 . S
C29 O39 1.268 . S
C30 O36 1.268 . S
C30 O38 1.268 . S
C31 O37 1.268 . S
C31 O40 1.268 . S
O32 Sc22 2.105 . S
O32 C26 1.268 . S
O33 Sc23 2.105 . S
O33 C27 1.268 . S
O34 Sc24 2.105 . S
O34 C28 1.268 . S
O35 Sc22 2.105 . S
O35 C29 1.268 . S
O36 Sc24 2.105 . S
O36 C30 1.268 . S
O37 Sc23 2.105 . S
O37 C31 1.268 . S
O38 Sc22 2.105 . S
O38 C30 1.268 . S
O39 Sc23 2.105 . S
O39 C29 1.268 . S
O40 Sc24 2.105 . S
O40 C31 1.268 . S
O41 Sc22 2.105 . S
O41 C27 1.268 . S
O42 Sc24 2.105 . S
O42 C26 1.268 . S
O43 Sc23 2.105 . S
O43 C28 1.268 . S
Sc44 O47 2.025 . S
Sc44 O54 2.105 1_565 S
Sc44 O57 2.105 . S
Sc44 O60 2.105 1_565 S
Sc44 O63 2.105 . S
Sc45 O47 2.025 . S
Sc45 O55 2.105 . S
Sc45 O59 2.105 . S
Sc45 O61 2.105 . S
Sc45 O65 2.105 . S
Sc46 O47 2.025 1_545 S
Sc46 O56 2.105 1_545 S
Sc46 O58 2.105 . S
Sc46 O62 2.105 1_545 S
Sc46 O64 2.105 . S
O47 Sc44 2.025 . S
O47 Sc45 2.025 . S
O47 Sc46 2.025 1_565 S
C48 O54 1.268 . S
C48 O64 1.268 . S
C49 O55 1.268 . S
C49 O63 1.268 . S
C50 O56 1.268 . S
C50 O65 1.268 . S
C51 O57 1.268 . S
C51 O61 1.268 . S
C52 O58 1.268 . S
C52 O60 1.268 . S
C53 O59 1.268 . S
C53 O62 1.268 . S
O54 Sc44 2.105 1_545 S
O54 C48 1.268 . S
O55 Sc45 2.105 . S
O55 C49 1.268 . S
O56 Sc46 2.105 1_565 S
O56 C50 1.268 . S
O57 Sc44 2.105 . S
O57 C51 1.268 . S
O58 Sc46 2.105 . S
O58 C52 1.268 . S
O59 Sc45 2.105 . S
O59 C53 1.268 . S
O60 Sc44 2.105 1_545 S
O60 C52 1.268 . S
O61 Sc45 2.105 . S
O61 C51 1.268 . S
O62 Sc46 2.105 1_565 S
O62 C53 1.268 . S
O63 Sc44 2.105 . S
O63 C49 1.268 . S
O64 Sc46 2.105 . S
O64 C48 1.268 . S
O65 Sc45 2.105 . S
O65 C50 1.268 . S
Sc66 O69 2.025 . S
Sc66 O76 2.105 1_545 S
Sc66 O79 2.105 . S
Sc66 O82 2.105 1_545 S
Sc66 O85 2.105 . S
Sc67 O69 2.025 . S
Sc67 O77 2.105 . S
Sc67 O81 2.105 . S
Sc67 O83 2.105 . S
Sc67 O87 2.105 . S
Sc68 O69 2.025 1_565 S
Sc68 O78 2.105 1_565 S
Sc68 O80 2.105 . S
Sc68 O84 2.105 1_565 S
Sc68 O86 2.105 . S
O69 Sc66 2.025 . S
O69 Sc67 2.025 . S
O69 Sc68 2.025 1_545 S
C70 O76 1.268 . S
C70 O86 1.268 . S
C71 O77 1.268 . S
C71 O85 1.268 . S
C72 O78 1.268 . S
C72 O87 1.268 . S
C73 O79 1.268 . S
C73 O83 1.268 . S
C74 O80 1.268 . S
C74 O82 1.268 . S
C75 O81 1.268 . S
C75 O84 1.268 . S
O76 Sc66 2.105 1_565 S
O76 C70 1.268 . S
O77 Sc67 2.105 . S
O77 C71 1.268 . S
O78 Sc68 2.105 1_545 S
O78 C72 1.268 . S
O79 Sc66 2.105 . S
O79 C73 1.268 . S
O80 Sc68 2.105 . S
O80 C74 1.268 . S
O81 Sc67 2.105 . S
O81 C75 1.268 . S
O82 Sc66 2.105 1_565 S
O82 C74 1.268 . S
O83 Sc67 2.105 . S
O83 C73 1.268 . S
O84 Sc68 2.105 1_545 S
O84 C75 1.268 . S
O85 Sc66 2.105 . S
O85 C71 1.268 . S
O86 Sc68 2.105 . S
O86 C70 1.268 . S
O87 Sc67 2.105 . S
O87 C72 1.268 . S
Sc88 O91 2.025 . S
Sc88 O98 2.105 1_655 S
Sc88 O101 2.105 . S
Sc88 O104 2.105 1_655 S
Sc88 O107 2.105 . S
Sc89 O91 2.025 . S
Sc89 O99 2.105 . S
Sc89 O103 2.105 . S
Sc89 O105 2.105 . S
Sc89 O109 2.105 . S
Sc90 O91 2.025 1_455 S
Sc90 O100 2.105 1_455 S
Sc90 O102 2.105 . S
Sc90 O106 2.105 1_455 S
Sc90 O108 2.105 . S
O91 Sc88 2.025 . S
O91 Sc89 2.025 . S
O91 Sc90 2.025 1_655 S
C92 O98 1.268 . S
C92 O108 1.268 . S
C93 O99 1.268 . S
C93 O107 1.268 . S
C94 O100 1.268 . S
C94 O109 1.268 . S
C95 O101 1.268 . S
C95 O105 1.268 . S
C96 O102 1.268 . S
C96 O104 1.268 . S
C97 O103 1.268 . S
C97 O106 1.268 . S
O98 Sc88 2.105 1_455 S
O98 C92 1.268 . S
O99 Sc89 2.105 . S
O99 C93 1.268 . S
O100 Sc90 2.105 1_655 S
O100 C94 1.268 . S
O101 Sc88 2.105 . S
O101 C95 1.268 . S
O102 Sc90 2.105 . S
O102 C96 1.268 . S
O103 Sc89 2.105 . S
O103 C97 1.268 . S
O104 Sc88 2.105 1_455 S
O104 C96 1.268 . S
O105 Sc89 2.105 . S
O105 C95 1.268 . S
O106 Sc90 2.105 1_655 S
O106 C97 1.268 . S
O107 Sc88 2.105 . S
O107 C93 1.268 . S
O108 Sc90 2.105 . S
O108 C92 1.268 . S
O109 Sc89 2.105 . S
O109 C94 1.268 . S
Sc110 O113 2.025 . S
Sc110 O120 2.105 . S
Sc110 O123 2.105 . S
Sc110 O126 2.105 . S
Sc110 O129 2.105 . S
Sc111 O113 2.025 . S
Sc111 O121 2.105 . S
Sc111 O125 2.105 . S
Sc111 O127 2.105 . S
Sc111 O131 2.105 . S
Sc112 O113 2.025 . S
Sc112 O122 2.105 . S
Sc112 O124 2.105 . S
Sc112 O128 2.105 . S
Sc112 O130 2.105 . S
O113 Sc110 2.025 . S
O113 Sc111 2.025 . S
O113 Sc112 2.025 . S
C114 O120 1.268 . S
C114 O130 1.268 . S
C115 O121 1.268 . S
C115 O129 1.268 . S
C116 O122 1.268 . S
C116 O131 1.268 . S
C117 O123 1.268 . S
C117 O127 1.268 . S
C118 O124 1.268 . S
C118 O126 1.268 . S
C119 O125 1.268 . S
C119 O128 1.268 . S
O120 Sc110 2.105 . S
O120 C114 1.268 . S
O121 Sc111 2.105 . S
O121 C115 1.268 . S
O122 Sc112 2.105 . S
O122 C116 1.268 . S
O123 Sc110 2.105 . S
O123 C117 1.268 . S
O124 Sc112 2.105 . S
O124 C118 1.268 . S
O125 Sc111 2.105 . S
O125 C119 1.268 . S
O126 Sc110 2.105 . S
O126 C118 1.268 . S
O127 Sc111 2.105 . S
O127 C117 1.268 . S
O128 Sc112 2.105 . S
O128 C119 1.268 . S
O129 Sc110 2.105 . S
O129 C115 1.268 . S
O130 Sc112 2.105 . S
O130 C114 1.268 . S
O131 Sc111 2.105 . S
O131 C116 1.268 . S
Sc132 O135 2.025 1_455 S
Sc132 O142 2.105 . S
Sc132 O145 2.105 1_455 S
Sc132 O148 2.105 . S
Sc132 O151 2.105 1_455 S
Sc133 O135 2.025 . S
Sc133 O143 2.105 . S
Sc133 O147 2.105 . S
Sc133 O149 2.105 . S
Sc133 O153 2.105 . S
Sc134 O135 2.025 . S
Sc134 O144 2.105 . S
Sc134 O146 2.105 1_655 S
Sc134 O150 2.105 . S
Sc134 O152 2.105 1_655 S
O135 Sc132 2.025 1_655 S
O135 Sc133 2.025 . S
O135 Sc134 2.025 . S
C136 O142 1.268 . S
C136 O152 1.268 . S
C137 O143 1.268 . S
C137 O151 1.268 . S
C138 O144 1.268 . S
C138 O153 1.268 . S
C139 O145 1.268 . S
C139 O149 1.268 . S
C140 O146 1.268 . S
C140 O148 1.268 . S
C141 O147 1.268 . S
C141 O150 1.268 . S
O142 Sc132 2.105 . S
O142 C136 1.268 . S
O143 Sc133 2.105 . S
O143 C137 1.268 . S
O144 Sc134 2.105 . S
O144 C138 1.268 . S
O145 Sc132 2.105 1_655 S
O145 C139 1.268 . S
O146 Sc134 2.105 1_455 S
O146 C140 1.268 . S
O147 Sc133 2.105 . S
O147 C141 1.268 . S
O148 Sc132 2.105 . S
O148 C140 1.268 . S
O149 Sc133 2.105 . S
O149 C139 1.268 . S
O150 Sc134 2.105 . S
O150 C141 1.268 . S
O151 Sc132 2.105 1_655 S
O151 C137 1.268 . S
O152 Sc134 2.105 1_455 S
O152 C136 1.268 . S
O153 Sc133 2.105 . S
O153 C138 1.268 . S
Sc154 O157 2.025 . S
Sc154 O164 2.105 . S
Sc154 O167 2.105 . S
Sc154 O170 2.105 . S
Sc154 O173 2.105 . S
Sc155 O157 2.025 . S
Sc155 O165 2.105 . S
Sc155 O169 2.105 . S
Sc155 O171 2.105 . S
Sc155 O175 2.105 . S
Sc156 O157 2.025 . S
Sc156 O166 2.105 . S
Sc156 O168 2.105 . S
Sc156 O172 2.105 . S
Sc156 O174 2.105 . S
O157 Sc154 2.025 . S
O157 Sc155 2.025 . S
O157 Sc156 2.025 . S
C158 O164 1.268 . S
C158 O174 1.268 . S
C159 O165 1.268 . S
C159 O173 1.268 . S
C160 O166 1.268 . S
C160 O175 1.268 . S
C161 O167 1.268 . S
C161 O171 1.268 . S
C162 O168 1.268 . S
C162 O170 1.268 . S
C163 O169 1.268 . S
C163 O172 1.268 . S
O164 Sc154 2.105 . S
O164 C158 1.268 . S
O165 Sc155 2.105 . S
O165 C159 1.268 . S
O166 Sc156 2.105 . S
O166 C160 1.268 . S
O167 Sc154 2.105 . S
O167 C161 1.268 . S
O168 Sc156 2.105 . S
O168 C162 1.268 . S
O169 Sc155 2.105 . S
O169 C163 1.268 . S
O170 Sc154 2.105 . S
O170 C162 1.268 . S
O171 Sc155 2.105 . S
O171 C161 1.268 . S
O172 Sc156 2.105 . S
O172 C163 1.268 . S
O173 Sc154 2.105 . S
O173 C159 1.268 . S
O174 Sc156 2.105 . S
O174 C158 1.268 . S
O175 Sc155 2.105 . S
O175 C160 1.268 . S
Sc176 O179 2.025 1_565 S
Sc176 O186 2.105 . S
Sc176 O189 2.105 1_565 S
Sc176 O192 2.105 . S
Sc176 O195 2.105 1_565 S
Sc177 O179 2.025 . S
Sc177 O187 2.105 . S
Sc177 O191 2.105 . S
Sc177 O193 2.105 . S
Sc177 O197 2.105 . S
Sc178 O179 2.025 . S
Sc178 O188 2.105 . S
Sc178 O190 2.105 1_545 S
Sc178 O194 2.105 . S
Sc178 O196 2.105 1_545 S
O179 Sc176 2.025 1_545 S
O179 Sc177 2.025 . S
O179 Sc178 2.025 . S
C180 O186 1.268 . S
C180 O196 1.268 . S
C181 O187 1.268 . S
C181 O195 1.268 . S
C182 O188 1.268 . S
C182 O197 1.268 . S
C183 O189 1.268 . S
C183 O193 1.268 . S
C184 O190 1.268 . S
C184 O192 1.268 . S
C185 O191 1.268 . S
C185 O194 1.268 . S
O186 Sc176 2.105 . S
O186 C180 1.268 . S
O187 Sc177 2.105 . S
O187 C181 1.268 . S
O188 Sc178 2.105 . S
O188 C182 1.268 . S
O189 Sc176 2.105 1_545 S
O189 C183 1.268 . S
O190 Sc178 2.105 1_565 S
O190 C184 1.268 . S
O191 Sc177 2.105 . S
O191 C185 1.268 . S
O192 Sc176 2.105 . S
O192 C184 1.268 . S
O193 Sc177 2.105 . S
O193 C183 1.268 . S
O194 Sc178 2.105 . S
O194 C185 1.268 . S
O195 Sc176 2.105 1_545 S
O195 C181 1.268 . S
O196 Sc178 2.105 1_565 S
O196 C180 1.268 . S
O197 Sc177 2.105 . S
O197 C182 1.268 . S
Sc198 O201 2.025 1_545 S
Sc198 O208 2.105 . S
Sc198 O211 2.105 1_545 S
Sc198 O214 2.105 . S
Sc198 O217 2.105 1_545 S
Sc199 O201 2.025 . S
Sc199 O209 2.105 . S
Sc199 O213 2.105 . S
Sc199 O215 2.105 . S
Sc199 O219 2.105 . S
Sc200 O201 2.025 . S
Sc200 O210 2.105 . S
Sc200 O212 2.105 1_565 S
Sc200 O216 2.105 . S
Sc200 O218 2.105 1_565 S
O201 Sc198 2.025 1_565 S
O201 Sc199 2.025 . S
O201 Sc200 2.025 . S
C202 O208 1.268 . S
C202 O218 1.268 . S
C203 O209 1.268 . S
C203 O217 1.268 . S
C204 O210 1.268 . S
C204 O219 1.268 . S
C205 O211 1.268 . S
C205 O215 1.268 . S
C206 O212 1.268 . S
C206 O214 1.268 . S
C207 O213 1.268 . S
C207 O216 1.268 . S
O208 Sc198 2.105 . S
O208 C202 1.268 . S
O209 Sc199 2.105 . S
O209 C203 1.268 . S
O210 Sc200 2.105 . S
O210 C204 1.268 . S
O211 Sc198 2.105 1_565 S
O211 C205 1.268 . S
O212 Sc200 2.105 1_545 S
O212 C206 1.268 . S
O213 Sc199 2.105 . S
O213 C207 1.268 . S
O214 Sc198 2.105 . S
O214 C206 1.268 . S
O215 Sc199 2.105 . S
O215 C205 1.268 . S
O216 Sc200 2.105 . S
O216 C207 1.268 . S
O217 Sc198 2.105 1_565 S
O217 C203 1.268 . S
O218 Sc200 2.105 1_545 S
O218 C202 1.268 . S
O219 Sc199 2.105 . S
O219 C204 1.268 . S
Sc220 O223 2.025 1_655 S
Sc220 O230 2.105 . S
Sc220 O233 2.105 1_655 S
Sc220 O236 2.105 . S
Sc220 O239 2.105 1_655 S
Sc221 O223 2.025 . S
Sc221 O231 2.105 . S
Sc221 O235 2.105 . S
Sc221 O237 2.105 . S
Sc221 O241 2.105 . S
Sc222 O223 2.025 . S
Sc222 O232 2.105 . S
Sc222 O234 2.105 1_455 S
Sc222 O238 2.105 . S
Sc222 O240 2.105 1_455 S
O223 Sc220 2.025 1_455 S
O223 Sc221 2.025 . S
O223 Sc222 2.025 . S
C224 O230 1.268 . S
C224 O240 1.268 . S
C225 O231 1.268 . S
C225 O239 1.268 . S
C226 O232 1.268 . S
C226 O241 1.268 . S
C227 O233 1.268 . S
C227 O237 1.268 . S
C228 O234 1.268 . S
C228 O236 1.268 . S
C229 O235 1.268 . S
C229 O238 1.268 . S
O230 Sc220 2.105 . S
O230 C224 1.268 . S
O231 Sc221 2.105 . S
O231 C225 1.268 . S
O232 Sc222 2.105 . S
O232 C226 1.268 . S
O233 Sc220 2.105 1_455 S
O233 C227 1.268 . S
O234 Sc222 2.105 1_655 S
O234 C228 1.268 . S
O235 Sc221 2.105 . S
O235 C229 1.268 . S
O236 Sc220 2.105 . S
O236 C228 1.268 . S
O237 Sc221 2.105 . S
O237 C227 1.268 . S
O238 Sc222 2.105 . S
O238 C229 1.268 . S
O239 Sc220 2.105 1_455 S
O239 C225 1.268 . S
O240 Sc222 2.105 1_655 S
O240 C224 1.268 . S
O241 Sc221 2.105 . S
O241 C226 1.268 . S
Sc242 O245 2.025 . S
Sc242 O252 2.105 . S
Sc242 O255 2.105 . S
Sc242 O258 2.105 . S
Sc242 O261 2.105 . S
Sc243 O245 2.025 . S
Sc243 O253 2.105 . S
Sc243 O257 2.105 . S
Sc243 O259 2.105 . S
Sc243 O263 2.105 . S
Sc244 O245 2.025 . S
Sc244 O254 2.105 . S
Sc244 O256 2.105 . S
Sc244 O260 2.105 . S
Sc244 O262 2.105 . S
O245 Sc242 2.025 . S
O245 Sc243 2.025 . S
O245 Sc244 2.025 . S
C246 O252 1.268 . S
C246 O262 1.268 . S
C247 O253 1.268 . S
C247 O261 1.268 . S
C248 O254 1.268 . S
C248 O263 1.268 . S
C249 O255 1.268 . S
C249 O259 1.268 . S
C250 O256 1.268 . S
C250 O258 1.268 . S
C251 O257 1.268 . S
C251 O260 1.268 . S
O252 Sc242 2.105 . S
O252 C246 1.268 . S
O253 Sc243 2.105 . S
O253 C247 1.268 . S
O254 Sc244 2.105 . S
O254 C248 1.268 . S
O255 Sc242 2.105 . S
O255 C249 1.268 . S
O256 Sc244 2.105 . S
O256 C250 1.268 . S
O257 Sc243 2.105 . S
O257 C251 1.268 . S
O258 Sc242 2.105 . S
O258 C250 1.268 . S
O259 Sc243 2.105 . S
O259 C249 1.268 . S
O260 Sc244 2.105 . S
O260 C251 1.268 . S
O261 Sc242 2.105 . S
O261 C247 1.268 . S
O262 Sc244 2.105 . S
O262 C246 1.268 . S
O263 Sc243 2.105 . S
O263 C248 1.268 . S
Sc264 O267 2.025 . S
Sc264 O274 2.105 . S
Sc264 O277 2.105 . S
Sc264 O280 2.105 . S
Sc264 O283 2.105 . S
Sc265 O267 2.025 . S
Sc265 O275 2.105 . S
Sc265 O279 2.105 . S
Sc265 O281 2.105 . S
Sc265 O285 2.105 . S
Sc266 O267 2.025 . S
Sc266 O276 2.105 . S
Sc266 O278 2.105 . S
Sc266 O282 2.105 . S
Sc266 O284 2.105 . S
O267 Sc264 2.025 . S
O267 Sc265 2.025 . S
O267 Sc266 2.025 . S
C268 O274 1.268 . S
C268 O284 1.268 . S
C269 O275 1.268 . S
C269 O283 1.268 . S
C270 O276 1.268 . S
C270 O285 1.268 . S
C271 O277 1.268 . S
C271 O281 1.268 . S
C272 O278 1.268 . S
C272 O280 1.268 . S
C273 O279 1.268 . S
C273 O282 1.268 . S
O274 Sc264 2.105 . S
O274 C268 1.268 . S
O275 Sc265 2.105 . S
O275 C269 1.268 . S
O276 Sc266 2.105 . S
O276 C270 1.268 . S
O277 Sc264 2.105 . S
O277 C271 1.268 . S
O278 Sc266 2.105 . S
O278 C272 1.268 . S
O279 Sc265 2.105 . S
O279 C273 1.268 . S
O280 Sc264 2.105 . S
O280 C272 1.268 . S
O281 Sc265 2.105 . S
O281 C271 1.268 . S
O282 Sc266 2.105 . S
O282 C273 1.268 . S
O283 Sc264 2.105 . S
O283 C269 1.268 . S
O284 Sc266 2.105 . S
O284 C268 1.268 . S
O285 Sc265 2.105 . S
O285 C270 1.268 . S
Sc286 O289 2.025 . S
Sc286 O296 2.105 . S
Sc286 O299 2.105 . S
Sc286 O302 2.105 . S
Sc286 O305 2.105 . S
Sc287 O289 2.025 . S
Sc287 O297 2.105 . S
Sc287 O301 2.105 . S
Sc287 O303 2.105 . S
Sc287 O307 2.105 . S
Sc288 O289 2.025 . S
Sc288 O298 2.105 . S
Sc288 O300 2.105 . S
Sc288 O304 2.105 . S
Sc288 O306 2.105 . S
O289 Sc286 2.025 . S
O289 Sc287 2.025 . S
O289 Sc288 2.025 . S
C290 O296 1.268 . S
C290 O306 1.268 . S
C291 O297 1.268 . S
C291 O305 1.268 . S
C292 O298 1.268 . S
C292 O307 1.268 . S
C293 O299 1.268 . S
C293 O303 1.268 . S
C294 O300 1.268 . S
C294 O302 1.268 . S
C295 O301 1.268 . S
C295 O304 1.268 . S
O296 Sc286 2.105 . S
O296 C290 1.268 . S
O297 Sc287 2.105 . S
O297 C291 1.268 . S
O298 Sc288 2.105 . S
O298 C292 1.268 . S
O299 Sc286 2.105 . S
O299 C293 1.268 . S
O300 Sc288 2.105 . S
O300 C294 1.268 . S
O301 Sc287 2.105 . S
O301 C295 1.268 . S
O302 Sc286 2.105 . S
O302 C294 1.268 . S
O303 Sc287 2.105 . S
O303 C293 1.268 . S
O304 Sc288 2.105 . S
O304 C295 1.268 . S
O305 Sc286 2.105 . S
O305 C291 1.268 . S
O306 Sc288 2.105 . S
O306 C290 1.268 . S
O307 Sc287 2.105 . S
O307 C292 1.268 . S
Sc308 O311 2.025 . S
Sc308 O318 2.105 . S
Sc308 O321 2.105 . S
Sc308 O324 2.105 . S
Sc308 O327 2.105 . S
Sc309 O311 2.025 . S
Sc309 O319 2.105 . S
Sc309 O323 2.105 . S
Sc309 O325 2.105 . S
Sc309 O329 2.105 . S
Sc310 O311 2.025 . S
Sc310 O320 2.105 . S
Sc310 O322 2.105 . S
Sc310 O326 2.105 . S
Sc310 O328 2.105 . S
O311 Sc308 2.025 . S
O311 Sc309 2.025 . S
O311 Sc310 2.025 . S
C312 O318 1.268 . S
C312 O328 1.268 . S
C313 O319 1.268 . S
C313 O327 1.268 . S
C314 O320 1.268 . S
C314 O329 1.268 . S
C315 O321 1.268 . S
C315 O325 1.268 . S
C316 O322 1.268 . S
C316 O324 1.268 . S
C317 O323 1.268 . S
C317 O326 1.268 . S
O318 Sc308 2.105 . S
O318 C312 1.268 . S
O319 Sc309 2.105 . S
O319 C313 1.268 . S
O320 Sc310 2.105 . S
O320 C314 1.268 . S
O321 Sc308 2.105 . S
O321 C315 1.268 . S
O322 Sc310 2.105 . S
O322 C316 1.268 . S
O323 Sc309 2.105 . S
O323 C317 1.268 . S
O324 Sc308 2.105 . S
O324 C316 1.268 . S
O325 Sc309 2.105 . S
O325 C315 1.268 . S
O326 Sc310 2.105 . S
O326 C317 1.268 . S
O327 Sc308 2.105 . S
O327 C313 1.268 . S
O328 Sc310 2.105 . S
O328 C312 1.268 . S
O329 Sc309 2.105 . S
O329 C314 1.268 . S
Sc330 O333 2.025 . S
Sc330 O340 2.105 . S
Sc330 O343 2.105 . S
Sc330 O346 2.105 . S
Sc330 O349 2.105 . S
Sc331 O333 2.025 . S
Sc331 O341 2.105 . S
Sc331 O345 2.105 . S
Sc331 O347 2.105 . S
Sc331 O351 2.105 . S
Sc332 O333 2.025 . S
Sc332 O342 2.105 . S
Sc332 O344 2.105 . S
Sc332 O348 2.105 . S
Sc332 O350 2.105 . S
O333 Sc330 2.025 . S
O333 Sc331 2.025 . S
O333 Sc332 2.025 . S
C334 O340 1.268 . S
C334 O350 1.268 . S
C335 O341 1.268 . S
C335 O349 1.268 . S
C336 O342 1.268 . S
C336 O351 1.268 . S
C337 O343 1.268 . S
C337 O347 1.268 . S
C338 O344 1.268 . S
C338 O346 1.268 . S
C339 O345 1.268 . S
C339 O348 1.268 . S
O340 Sc330 2.105 . S
O340 C334 1.268 . S
O341 Sc331 2.105 . S
O341 C335 1.268 . S
O342 Sc332 2.105 . S
O342 C336 1.268 . S
O343 Sc330 2.105 . S
O343 C337 1.268 . S
O344 Sc332 2.105 . S
O344 C338 1.268 . S
O345 Sc331 2.105 . S
O345 C339 1.268 . S
O346 Sc330 2.105 . S
O346 C338 1.268 . S
O347 Sc331 2.105 . S
O347 C337 1.268 . S
O348 Sc332 2.105 . S
O348 C339 1.268 . S
O349 Sc330 2.105 . S
O349 C335 1.268 . S
O350 Sc332 2.105 . S
O350 C334 1.268 . S
O351 Sc331 2.105 . S
O351 C336 1.268 . S
Sc352 O355 2.025 . S
Sc352 O362 2.105 . S
Sc352 O365 2.105 . S
Sc352 O368 2.105 . S
Sc352 O371 2.105 . S
Sc353 O355 2.025 . S
Sc353 O363 2.105 . S
Sc353 O367 2.105 . S
Sc353 O369 2.105 . S
Sc353 O373 2.105 . S
Sc354 O355 2.025 . S
Sc354 O364 2.105 . S
Sc354 O366 2.105 . S
Sc354 O370 2.105 . S
Sc354 O372 2.105 . S
O355 Sc352 2.025 . S
O355 Sc353 2.025 . S
O355 Sc354 2.025 . S
C356 O362 1.268 . S
C356 O372 1.268 . S
C357 O363 1.268 . S
C357 O371 1.268 . S
C358 O364 1.268 . S
C358 O373 1.268 . S
C359 O365 1.268 . S
C359 O369 1.268 . S
C360 O366 1.268 . S
C360 O368 1.268 . S
C361 O367 1.268 . S
C361 O370 1.268 . S
O362 Sc352 2.105 . S
O362 C356 1.268 . S
O363 Sc353 2.105 . S
O363 C357 1.268 . S
O364 Sc354 2.105 . S
O364 C358 1.268 . S
O365 Sc352 2.105 . S
O365 C359 1.268 . S
O366 Sc354 2.105 . S
O366 C360 1.268 . S
O367 Sc353 2.105 . S
O367 C361 1.268 . S
O368 Sc352 2.105 . S
O368 C360 1.268 . S
O369 Sc353 2.105 . S
O369 C359 1.268 . S
O370 Sc354 2.105 . S
O370 C361 1.268 . S
O371 Sc352 2.105 . S
O371 C357 1.268 . S
O372 Sc354 2.105 . S
O372 C356 1.268 . S
O373 Sc353 2.105 . S
O373 C358 1.268 . S
Sc374 O377 2.025 . S
Sc374 O384 2.105 . S
Sc374 O387 2.105 . S
Sc374 O390 2.105 . S
Sc374 O393 2.105 . S
Sc375 O377 2.025 . S
Sc375 O385 2.105 . S
Sc375 O389 2.105 . S
Sc375 O391 2.105 . S
Sc375 O395 2.105 . S
Sc376 O377 2.025 . S
Sc376 O386 2.105 . S
Sc376 O388 2.105 . S
Sc376 O392 2.105 . S
Sc376 O394 2.105 . S
O377 Sc374 2.025 . S
O377 Sc375 2.025 . S
O377 Sc376 2.025 . S
C378 O384 1.268 . S
C378 O394 1.268 . S
C379 O385 1.268 . S
C379 O393 1.268 . S
C380 O386 1.268 . S
C380 O395 1.268 . S
C381 O387 1.268 . S
C381 O391 1.268 . S
C382 O388 1.268 . S
C382 O390 1.268 . S
C383 O389 1.268 . S
C383 O392 1.268 . S
O384 Sc374 2.105 . S
O384 C378 1.268 . S
O385 Sc375 2.105 . S
O385 C379 1.268 . S
O386 Sc376 2.105 . S
O386 C380 1.268 . S
O387 Sc374 2.105 . S
O387 C381 1.268 . S
O388 Sc376 2.105 . S
O388 C382 1.268 . S
O389 Sc375 2.105 . S
O389 C383 1.268 . S
O390 Sc374 2.105 . S
O390 C382 1.268 . S
O391 Sc375 2.105 . S
O391 C381 1.268 . S
O392 Sc376 2.105 . S
O392 C383 1.268 . S
O393 Sc374 2.105 . S
O393 C379 1.268 . S
O394 Sc376 2.105 . S
O394 C378 1.268 . S
O395 Sc375 2.105 . S
O395 C380 1.268 . S
Sc396 O399 2.025 . S
Sc396 O406 2.105 . S
Sc396 O409 2.105 . S
Sc396 O412 2.105 . S
Sc396 O415 2.105 . S
Sc397 O399 2.025 . S
Sc397 O407 2.105 . S
Sc397 O411 2.105 . S
Sc397 O413 2.105 . S
Sc397 O417 2.105 . S
Sc398 O399 2.025 . S
Sc398 O408 2.105 . S
Sc398 O410 2.105 . S
Sc398 O414 2.105 . S
Sc398 O416 2.105 . S
O399 Sc396 2.025 . S
O399 Sc397 2.025 . S
O399 Sc398 2.025 . S
C400 O406 1.268 . S
C400 O416 1.268 . S
C401 O407 1.268 . S
C401 O415 1.268 . S
C402 O408 1.268 . S
C402 O417 1.268 . S
C403 O409 1.268 . S
C403 O413 1.268 . S
C404 O410 1.268 . S
C404 O412 1.268 . S
C405 O411 1.268 . S
C405 O414 1.268 . S
O406 Sc396 2.105 . S
O406 C400 1.268 . S
O407 Sc397 2.105 . S
O407 C401 1.268 . S
O408 Sc398 2.105 . S
O408 C402 1.268 . S
O409 Sc396 2.105 . S
O409 C403 1.268 . S
O410 Sc398 2.105 . S
O410 C404 1.268 . S
O411 Sc397 2.105 . S
O411 C405 1.268 . S
O412 Sc396 2.105 . S
O412 C404 1.268 . S
O413 Sc397 2.105 . S
O413 C403 1.268 . S
O414 Sc398 2.105 . S
O414 C405 1.268 . S
O415 Sc396 2.105 . S
O415 C401 1.268 . S
O416 Sc398 2.105 . S
O416 C400 1.268 . S
O417 Sc397 2.105 . S
O417 C402 1.268 . S
Sc418 O421 2.025 . S
Sc418 O428 2.105 . S
Sc418 O431 2.105 . S
Sc418 O434 2.105 . S
Sc418 O437 2.105 . S
Sc419 O421 2.025 . S
Sc419 O429 2.105 . S
Sc419 O433 2.105 . S
Sc419 O435 2.105 . S
Sc419 O439 2.105 . S
Sc420 O421 2.025 . S
Sc420 O430 2.105 . S
Sc420 O432 2.105 . S
Sc420 O436 2.105 . S
Sc420 O438 2.105 . S
O421 Sc418 2.025 . S
O421 Sc419 2.025 . S
O421 Sc420 2.025 . S
C422 O428 1.268 . S
C422 O438 1.268 . S
C423 O429 1.268 . S
C423 O437 1.268 . S
C424 O430 1.268 . S
C424 O439 1.268 . S
C425 O431 1.268 . S
C425 O435 1.268 . S
C426 O432 1.268 . S
C426 O434 1.268 . S
C427 O433 1.268 . S
C427 O436 1.268 . S
O428 Sc418 2.105 . S
O428 C422 1.268 . S
O429 Sc419 2.105 . S
O429 C423 1.268 . S
O430 Sc420 2.105 . S
O430 C424 1.268 . S
O431 Sc418 2.105 . S
O431 C425 1.268 . S
O432 Sc420 2.105 . S
O432 C426 1.268 . S
O433 Sc419 2.105 . S
O433 C427 1.268 . S
O434 Sc418 2.105 . S
O434 C426 1.268 . S
O435 Sc419 2.105 . S
O435 C425 1.268 . S
O436 Sc420 2.105 . S
O436 C427 1.268 . S
O437 Sc418 2.105 . S
O437 C423 1.268 . S
O438 Sc420 2.105 . S
O438 C422 1.268 . S
O439 Sc419 2.105 . S
O439 C424 1.268 . S
Sc440 O443 2.025 . S
Sc440 O450 2.105 . S
Sc440 O453 2.105 . S
Sc440 O456 2.105 . S
Sc440 O459 2.105 . S
Sc441 O443 2.025 . S
Sc441 O451 2.105 . S
Sc441 O455 2.105 . S
Sc441 O457 2.105 . S
Sc441 O461 2.105 . S
Sc442 O443 2.025 . S
Sc442 O452 2.105 . S
Sc442 O454 2.105 . S
Sc442 O458 2.105 . S
Sc442 O460 2.105 . S
O443 Sc440 2.025 . S
O443 Sc441 2.025 . S
O443 Sc442 2.025 . S
C444 O450 1.268 . S
C444 O460 1.268 . S
C445 O451 1.268 . S
C445 O459 1.268 . S
C446 O452 1.268 . S
C446 O461 1.268 . S
C447 O453 1.268 . S
C447 O457 1.268 . S
C448 O454 1.268 . S
C448 O456 1.268 . S
C449 O455 1.268 . S
C449 O458 1.268 . S
O450 Sc440 2.105 . S
O450 C444 1.268 . S
O451 Sc441 2.105 . S
O451 C445 1.268 . S
O452 Sc442 2.105 . S
O452 C446 1.268 . S
O453 Sc440 2.105 . S
O453 C447 1.268 . S
O454 Sc442 2.105 . S
O454 C448 1.268 . S
O455 Sc441 2.105 . S
O455 C449 1.268 . S
O456 Sc440 2.105 . S
O456 C448 1.268 . S
O457 Sc441 2.105 . S
O457 C447 1.268 . S
O458 Sc442 2.105 . S
O458 C449 1.268 . S
O459 Sc440 2.105 . S
O459 C445 1.268 . S
O460 Sc442 2.105 . S
O460 C444 1.268 . S
O461 Sc441 2.105 . S
O461 C446 1.268 . S
Sc462 O465 2.025 . S
Sc462 O472 2.105 . S
Sc462 O475 2.105 . S
Sc462 O478 2.105 . S
Sc462 O481 2.105 . S
Sc463 O465 2.025 . S
Sc463 O473 2.105 . S
Sc463 O477 2.105 . S
Sc463 O479 2.105 . S
Sc463 O483 2.105 . S
Sc464 O465 2.025 . S
Sc464 O474 2.105 . S
Sc464 O476 2.105 . S
Sc464 O480 2.105 . S
Sc464 O482 2.105 . S
O465 Sc462 2.025 . S
O465 Sc463 2.025 . S
O465 Sc464 2.025 . S
C466 O472 1.268 . S
C466 O482 1.268 . S
C467 O473 1.268 . S
C467 O481 1.268 . S
C468 O474 1.268 . S
C468 O483 1.268 . S
C469 O475 1.268 1_554 S
C469 O479 1.268 1_554 S
C470 O476 1.268 . S
C470 O478 1.268 . S
C471 O477 1.268 . S
C471 O480 1.268 . S
O472 Sc462 2.105 . S
O472 C466 1.268 . S
O473 Sc463 2.105 . S
O473 C467 1.268 . S
O474 Sc464 2.105 . S
O474 C468 1.268 . S
O475 Sc462 2.105 . S
O475 C469 1.268 1_556 S
O476 Sc464 2.105 . S
O476 C470 1.268 . S
O477 Sc463 2.105 . S
O477 C471 1.268 . S
O478 Sc462 2.105 . S
O478 C470 1.268 . S
O479 Sc463 2.105 . S
O479 C469 1.268 1_556 S
O480 Sc464 2.105 . S
O480 C471 1.268 . S
O481 Sc462 2.105 . S
O481 C467 1.268 . S
O482 Sc464 2.105 . S
O482 C466 1.268 . S
O483 Sc463 2.105 . S
O483 C468 1.268 . S
Sc484 O487 2.025 . S
Sc484 O494 2.105 . S
Sc484 O497 2.105 . S
Sc484 O500 2.105 . S
Sc484 O503 2.105 . S
Sc485 O487 2.025 . S
Sc485 O495 2.105 . S
Sc485 O499 2.105 . S
Sc485 O501 2.105 . S
Sc485 O505 2.105 . S
Sc486 O487 2.025 . S
Sc486 O496 2.105 . S
Sc486 O498 2.105 . S
Sc486 O502 2.105 . S
Sc486 O504 2.105 . S
O487 Sc484 2.025 . S
O487 Sc485 2.025 . S
O487 Sc486 2.025 . S
C488 O494 1.268 . S
C488 O504 1.268 . S
C489 O495 1.268 . S
C489 O503 1.268 . S
C490 O496 1.268 . S
C490 O505 1.268 . S
C491 O497 1.268 1_554 S
C491 O501 1.268 1_554 S
C492 O498 1.268 . S
C492 O500 1.268 . S
C493 O499 1.268 . S
C493 O502 1.268 . S
O494 Sc484 2.105 . S
O494 C488 1.268 . S
O495 Sc485 2.105 . S
O495 C489 1.268 . S
O496 Sc486 2.105 . S
O496 C490 1.268 . S
O497 Sc484 2.105 . S
O497 C491 1.268 1_556 S
O498 Sc486 2.105 . S
O498 C492 1.268 . S
O499 Sc485 2.105 . S
O499 C493 1.268 . S
O500 Sc484 2.105 . S
O500 C492 1.268 . S
O501 Sc485 2.105 . S
O501 C491 1.268 1_556 S
O502 Sc486 2.105 . S
O502 C493 1.268 . S
O503 Sc484 2.105 . S
O503 C489 1.268 . S
O504 Sc486 2.105 . S
O504 C488 1.268 . S
O505 Sc485 2.105 . S
O505 C490 1.268 . S
Sc506 O509 2.025 . S
Sc506 O516 2.105 . S
Sc506 O519 2.105 . S
Sc506 O522 2.105 . S
Sc506 O525 2.105 . S
Sc507 O509 2.025 . S
Sc507 O517 2.105 . S
Sc507 O521 2.105 . S
Sc507 O523 2.105 . S
Sc507 O527 2.105 . S
Sc508 O509 2.025 . S
Sc508 O518 2.105 . S
Sc508 O520 2.105 . S
Sc508 O524 2.105 . S
Sc508 O526 2.105 . S
O509 Sc506 2.025 . S
O509 Sc507 2.025 . S
O509 Sc508 2.025 . S
C510 O516 1.268 . S
C510 O526 1.268 . S
C511 O517 1.268 . S
C511 O525 1.268 . S
C512 O518 1.268 . S
C512 O527 1.268 . S
C513 O519 1.268 1_554 S
C513 O523 1.268 1_554 S
C514 O520 1.268 . S
C514 O522 1.268 . S
C515 O521 1.268 . S
C515 O524 1.268 . S
O516 Sc506 2.105 . S
O516 C510 1.268 . S
O517 Sc507 2.105 . S
O517 C511 1.268 . S
O518 Sc508 2.105 . S
O518 C512 1.268 . S
O519 Sc506 2.105 . S
O519 C513 1.268 1_556 S
O520 Sc508 2.105 . S
O520 C514 1.268 . S
O521 Sc507 2.105 . S
O521 C515 1.268 . S
O522 Sc506 2.105 . S
O522 C514 1.268 . S
O523 Sc507 2.105 . S
O523 C513 1.268 1_556 S
O524 Sc508 2.105 . S
O524 C515 1.268 . S
O525 Sc506 2.105 . S
O525 C511 1.268 . S
O526 Sc508 2.105 . S
O526 C510 1.268 . S
O527 Sc507 2.105 . S
O527 C512 1.268 . S
Sc528 O531 2.025 . S
Sc528 O538 2.105 . S
Sc528 O541 2.105 . S
Sc528 O544 2.105 . S
Sc528 O547 2.105 . S
Sc529 O531 2.025 . S
Sc529 O539 2.105 . S
Sc529 O543 2.105 . S
Sc529 O545 2.105 . S
Sc529 O549 2.105 . S
Sc530 O531 2.025 . S
Sc530 O540 2.105 . S
Sc530 O542 2.105 . S
Sc530 O546 2.105 . S
Sc530 O548 2.105 . S
O531 Sc528 2.025 . S
O531 Sc529 2.025 . S
O531 Sc530 2.025 . S
C532 O538 1.268 . S
C532 O548 1.268 . S
C533 O539 1.268 . S
C533 O547 1.268 . S
C534 O540 1.268 . S
C534 O549 1.268 . S
C535 O541 1.268 . S
C535 O545 1.268 . S
C536 O542 1.268 . S
C536 O544 1.268 . S
C537 O543 1.268 . S
C537 O546 1.268 . S
O538 Sc528 2.105 . S
O538 C532 1.268 . S
O539 Sc529 2.105 . S
O539 C533 1.268 . S
O540 Sc530 2.105 . S
O540 C534 1.268 . S
O541 Sc528 2.105 . S
O541 C535 1.268 . S
O542 Sc530 2.105 . S
O542 C536 1.268 . S
O543 Sc529 2.105 . S
O543 C537 1.268 . S
O544 Sc528 2.105 . S
O544 C536 1.268 . S
O545 Sc529 2.105 . S
O545 C535 1.268 . S
O546 Sc530 2.105 . S
O546 C537 1.268 . S
O547 Sc528 2.105 . S
O547 C533 1.268 . S
O548 Sc530 2.105 . S
O548 C532 1.268 . S
O549 Sc529 2.105 . S
O549 C534 1.268 . S
Sc550 O553 2.025 . S
Sc550 O560 2.105 . S
Sc550 O563 2.105 . S
Sc550 O566 2.105 . S
Sc550 O569 2.105 . S
Sc551 O553 2.025 . S
Sc551 O561 2.105 . S
Sc551 O565 2.105 . S
Sc551 O567 2.105 . S
Sc551 O571 2.105 . S
Sc552 O553 2.025 . S
Sc552 O562 2.105 . S
Sc552 O564 2.105 . S
Sc552 O568 2.105 . S
Sc552 O570 2.105 . S
O553 Sc550 2.025 . S
O553 Sc551 2.025 . S
O553 Sc552 2.025 . S
C554 O560 1.268 . S
C554 O570 1.268 . S
C555 O561 1.268 . S
C555 O569 1.268 . S
C556 O562 1.268 . S
C556 O571 1.268 . S
C557 O563 1.268 . S
C557 O567 1.268 . S
C558 O564 1.268 . S
C558 O566 1.268 . S
C559 O565 1.268 . S
C559 O568 1.268 . S
O560 Sc550 2.105 . S
O560 C554 1.268 . S
O561 Sc551 2.105 . S
O561 C555 1.268 . S
O562 Sc552 2.105 . S
O562 C556 1.268 . S
O563 Sc550 2.105 . S
O563 C557 1.268 . S
O564 Sc552 2.105 . S
O564 C558 1.268 . S
O565 Sc551 2.105 . S
O565 C559 1.268 . S
O566 Sc550 2.105 . S
O566 C558 1.268 . S
O567 Sc551 2.105 . S
O567 C557 1.268 . S
O568 Sc552 2.105 . S
O568 C559 1.268 . S
O569 Sc550 2.105 . S
O569 C555 1.268 . S
O570 Sc552 2.105 . S
O570 C554 1.268 . S
O571 Sc551 2.105 . S
O571 C556 1.268 . S
Sc572 O575 2.025 . S
Sc572 O582 2.105 . S
Sc572 O585 2.105 . S
Sc572 O588 2.105 . S
Sc572 O591 2.105 . S
Sc573 O575 2.025 . S
Sc573 O583 2.105 . S
Sc573 O587 2.105 . S
Sc573 O589 2.105 . S
Sc573 O593 2.105 . S
Sc574 O575 2.025 . S
Sc574 O584 2.105 . S
Sc574 O586 2.105 . S
Sc574 O590 2.105 . S
Sc574 O592 2.105 . S
O575 Sc572 2.025 . S
O575 Sc573 2.025 . S
O575 Sc574 2.025 . S
C576 O582 1.268 . S
C576 O592 1.268 . S
C577 O583 1.268 . S
C577 O591 1.268 . S
C578 O584 1.268 . S
C578 O593 1.268 . S
C579 O585 1.268 . S
C579 O589 1.268 . S
C580 O586 1.268 . S
C580 O588 1.268 . S
C581 O587 1.268 . S
C581 O590 1.268 . S
O582 Sc572 2.105 . S
O582 C576 1.268 . S
O583 Sc573 2.105 . S
O583 C577 1.268 . S
O584 Sc574 2.105 . S
O584 C578 1.268 . S
O585 Sc572 2.105 . S
O585 C579 1.268 . S
O586 Sc574 2.105 . S
O586 C580 1.268 . S
O587 Sc573 2.105 . S
O587 C581 1.268 . S
O588 Sc572 2.105 . S
O588 C580 1.268 . S
O589 Sc573 2.105 . S
O589 C579 1.268 . S
O590 Sc574 2.105 . S
O590 C581 1.268 . S
O591 Sc572 2.105 . S
O591 C577 1.268 . S
O592 Sc574 2.105 . S
O592 C576 1.268 . S
O593 Sc573 2.105 . S
O593 C578 1.268 . S
Sc594 O597 2.025 . S
Sc594 O604 2.105 . S
Sc594 O607 2.105 . S
Sc594 O610 2.105 . S
Sc594 O613 2.105 . S
Sc595 O597 2.025 . S
Sc595 O605 2.105 . S
Sc595 O609 2.105 . S
Sc595 O611 2.105 . S
Sc595 O615 2.105 . S
Sc596 O597 2.025 . S
Sc596 O606 2.105 . S
Sc596 O608 2.105 . S
Sc596 O612 2.105 . S
Sc596 O614 2.105 . S
O597 Sc594 2.025 . S
O597 Sc595 2.025 . S
O597 Sc596 2.025 . S
C598 O604 1.268 . S
C598 O614 1.268 . S
C599 O605 1.268 . S
C599 O613 1.268 . S
C600 O606 1.268 . S
C600 O615 1.268 . S
C601 O607 1.268 . S
C601 O611 1.268 . S
C602 O608 1.268 . S
C602 O610 1.268 . S
C603 O609 1.268 1_556 S
C603 O612 1.268 1_556 S
O604 Sc594 2.105 . S
O604 C598 1.268 . S
O605 Sc595 2.105 . S
O605 C599 1.268 . S
O606 Sc596 2.105 . S
O606 C600 1.268 . S
O607 Sc594 2.105 . S
O607 C601 1.268 . S
O608 Sc596 2.105 . S
O608 C602 1.268 . S
O609 Sc595 2.105 . S
O609 C603 1.268 1_554 S
O610 Sc594 2.105 . S
O610 C602 1.268 . S
O611 Sc595 2.105 . S
O611 C601 1.268 . S
O612 Sc596 2.105 . S
O612 C603 1.268 1_554 S
O613 Sc594 2.105 . S
O613 C599 1.268 . S
O614 Sc596 2.105 . S
O614 C598 1.268 . S
O615 Sc595 2.105 . S
O615 C600 1.268 . S
Sc616 O619 2.025 . S
Sc616 O626 2.105 . S
Sc616 O629 2.105 . S
Sc616 O632 2.105 . S
Sc616 O635 2.105 . S
Sc617 O619 2.025 . S
Sc617 O627 2.105 . S
Sc617 O631 2.105 . S
Sc617 O633 2.105 . S
Sc617 O637 2.105 . S
Sc618 O619 2.025 . S
Sc618 O628 2.105 . S
Sc618 O630 2.105 . S
Sc618 O634 2.105 . S
Sc618 O636 2.105 . S
O619 Sc616 2.025 . S
O619 Sc617 2.025 . S
O619 Sc618 2.025 . S
C620 O626 1.268 . S
C620 O636 1.268 . S
C621 O627 1.268 . S
C621 O635 1.268 . S
C622 O628 1.268 . S
C622 O637 1.268 . S
C623 O629 1.268 . S
C623 O633 1.268 . S
C624 O630 1.268 . S
C624 O632 1.268 . S
C625 O631 1.268 1_556 S
C625 O634 1.268 1_556 S
O626 Sc616 2.105 . S
O626 C620 1.268 . S
O627 Sc617 2.105 . S
O627 C621 1.268 . S
O628 Sc618 2.105 . S
O628 C622 1.268 . S
O629 Sc616 2.105 . S
O629 C623 1.268 . S
O630 Sc618 2.105 . S
O630 C624 1.268 . S
O631 Sc617 2.105 . S
O631 C625 1.268 1_554 S
O632 Sc616 2.105 . S
O632 C624 1.268 . S
O633 Sc617 2.105 . S
O633 C623 1.268 . S
O634 Sc618 2.105 . S
O634 C625 1.268 1_554 S
O635 Sc616 2.105 . S
O635 C621 1.268 . S
O636 Sc618 2.105 . S
O636 C620 1.268 . S
O637 Sc617 2.105 . S
O637 C622 1.268 . S
Sc638 O641 2.025 . S
Sc638 O648 2.105 . S
Sc638 O651 2.105 . S
Sc638 O654 2.105 . S
Sc638 O657 2.105 . S
Sc639 O641 2.025 . S
Sc639 O649 2.105 . S
Sc639 O653 2.105 . S
Sc639 O655 2.105 . S
Sc639 O659 2.105 . S
Sc640 O641 2.025 . S
Sc640 O650 2.105 . S
Sc640 O652 2.105 . S
Sc640 O656 2.105 . S
Sc640 O658 2.105 . S
O641 Sc638 2.025 . S
O641 Sc639 2.025 . S
O641 Sc640 2.025 . S
C642 O648 1.268 . S
C642 O658 1.268 . S
C643 O649 1.268 . S
C643 O657 1.268 . S
C644 O650 1.268 . S
C644 O659 1.268 . S
C645 O651 1.268 . S
C645 O655 1.268 . S
C646 O652 1.268 . S
C646 O654 1.268 . S
C647 O653 1.268 1_556 S
C647 O656 1.268 1_556 S
O648 Sc638 2.105 . S
O648 C642 1.268 . S
O649 Sc639 2.105 . S
O649 C643 1.268 . S
O650 Sc640 2.105 . S
O650 C644 1.268 . S
O651 Sc638 2.105 . S
O651 C645 1.268 . S
O652 Sc640 2.105 . S
O652 C646 1.268 . S
O653 Sc639 2.105 . S
O653 C647 1.268 1_554 S
O654 Sc638 2.105 . S
O654 C646 1.268 . S
O655 Sc639 2.105 . S
O655 C645 1.268 . S
O656 Sc640 2.105 . S
O656 C647 1.268 1_554 S
O657 Sc638 2.105 . S
O657 C643 1.268 . S
O658 Sc640 2.105 . S
O658 C642 1.268 . S
O659 Sc639 2.105 . S
O659 C644 1.268 . S
Sc660 O663 2.025 . S
Sc660 O670 2.105 . S
Sc660 O673 2.105 . S
Sc660 O676 2.105 . S
Sc660 O679 2.105 . S
Sc661 O663 2.025 . S
Sc661 O671 2.105 . S
Sc661 O675 2.105 . S
Sc661 O677 2.105 . S
Sc661 O681 2.105 . S
Sc662 O663 2.025 . S
Sc662 O672 2.105 . S
Sc662 O674 2.105 . S
Sc662 O678 2.105 . S
Sc662 O680 2.105 . S
O663 Sc660 2.025 . S
O663 Sc661 2.025 . S
O663 Sc662 2.025 . S
C664 O670 1.268 . S
C664 O680 1.268 . S
C665 O671 1.268 . S
C665 O679 1.268 . S
C666 O672 1.268 . S
C666 O681 1.268 . S
C667 O673 1.268 . S
C667 O677 1.268 . S
C668 O674 1.268 . S
C668 O676 1.268 . S
C669 O675 1.268 . S
C669 O678 1.268 . S
O670 Sc660 2.105 . S
O670 C664 1.268 . S
O671 Sc661 2.105 . S
O671 C665 1.268 . S
O672 Sc662 2.105 . S
O672 C666 1.268 . S
O673 Sc660 2.105 . S
O673 C667 1.268 . S
O674 Sc662 2.105 . S
O674 C668 1.268 . S
O675 Sc661 2.105 . S
O675 C669 1.268 . S
O676 Sc660 2.105 . S
O676 C668 1.268 . S
O677 Sc661 2.105 . S
O677 C667 1.268 . S
O678 Sc662 2.105 . S
O678 C669 1.268 . S
O679 Sc660 2.105 . S
O679 C665 1.268 . S
O680 Sc662 2.105 . S
O680 C664 1.268 . S
O681 Sc661 2.105 . S
O681 C666 1.268 . S
Sc682 O685 2.025 . S
Sc682 O692 2.105 . S
Sc682 O695 2.105 . S
Sc682 O698 2.105 . S
Sc682 O701 2.105 . S
Sc683 O685 2.025 . S
Sc683 O693 2.105 . S
Sc683 O697 2.105 . S
Sc683 O699 2.105 . S
Sc683 O703 2.105 . S
Sc684 O685 2.025 . S
Sc684 O694 2.105 . S
Sc684 O696 2.105 . S
Sc684 O700 2.105 . S
Sc684 O702 2.105 . S
O685 Sc682 2.025 . S
O685 Sc683 2.025 . S
O685 Sc684 2.025 . S
C686 O692 1.268 . S
C686 O702 1.268 . S
C687 O693 1.268 . S
C687 O701 1.268 . S
C688 O694 1.268 . S
C688 O703 1.268 . S
C689 O695 1.268 . S
C689 O699 1.268 . S
C690 O696 1.268 . S
C690 O698 1.268 . S
C691 O697 1.268 . S
C691 O700 1.268 . S
O692 Sc682 2.105 . S
O692 C686 1.268 . S
O693 Sc683 2.105 . S
O693 C687 1.268 . S
O694 Sc684 2.105 . S
O694 C688 1.268 . S
O695 Sc682 2.105 . S
O695 C689 1.268 . S
O696 Sc684 2.105 . S
O696 C690 1.268 . S
O697 Sc683 2.105 . S
O697 C691 1.268 . S
O698 Sc682 2.105 . S
O698 C690 1.268 . S
O699 Sc683 2.105 . S
O699 C689 1.268 . S
O700 Sc684 2.105 . S
O700 C691 1.268 . S
O701 Sc682 2.105 . S
O701 C687 1.268 . S
O702 Sc684 2.105 . S
O702 C686 1.268 . S
O703 Sc683 2.105 . S
O703 C688 1.268 . S
Sc704 O707 2.025 . S
Sc704 O714 2.105 . S
Sc704 O717 2.105 . S
Sc704 O720 2.105 . S
Sc704 O723 2.105 . S
Sc705 O707 2.025 . S
Sc705 O715 2.105 . S
Sc705 O719 2.105 . S
Sc705 O721 2.105 . S
Sc705 O725 2.105 . S
Sc706 O707 2.025 . S
Sc706 O716 2.105 . S
Sc706 O718 2.105 . S
Sc706 O722 2.105 . S
Sc706 O724 2.105 . S
O707 Sc704 2.025 . S
O707 Sc705 2.025 . S
O707 Sc706 2.025 . S
C708 O714 1.268 . S
C708 O724 1.268 . S
C709 O715 1.268 . S
C709 O723 1.268 . S
C710 O716 1.268 . S
C710 O725 1.268 . S
C711 O717 1.268 . S
C711 O721 1.268 . S
C712 O718 1.268 . S
C712 O720 1.268 . S
C713 O719 1.268 . S
C713 O722 1.268 . S
O714 Sc704 2.105 . S
O714 C708 1.268 . S
O715 Sc705 2.105 . S
O715 C709 1.268 . S
O716 Sc706 2.105 . S
O716 C710 1.268 . S
O717 Sc704 2.105 . S
O717 C711 1.268 . S
O718 Sc706 2.105 . S
O718 C712 1.268 . S
O719 Sc705 2.105 . S
O719 C713 1.268 . S
O720 Sc704 2.105 . S
O720 C712 1.268 . S
O721 Sc705 2.105 . S
O721 C711 1.268 . S
O722 Sc706 2.105 . S
O722 C713 1.268 . S
O723 Sc704 2.105 . S
O723 C709 1.268 . S
O724 Sc706 2.105 . S
O724 C708 1.268 . S
O725 Sc705 2.105 . S
O725 C710 1.268 . S
Sc726 O729 2.025 . S
Sc726 O736 2.105 . S
Sc726 O739 2.105 . S
Sc726 O742 2.105 . S
Sc726 O745 2.105 . S
Sc727 O729 2.025 . S
Sc727 O737 2.105 . S
Sc727 O741 2.105 . S
Sc727 O743 2.105 . S
Sc727 O747 2.105 . S
Sc728 O729 2.025 . S
Sc728 O738 2.105 . S
Sc728 O740 2.105 . S
Sc728 O744 2.105 . S
Sc728 O746 2.105 . S
O729 Sc726 2.025 . S
O729 Sc727 2.025 . S
O729 Sc728 2.025 . S
C730 O736 1.268 . S
C730 O746 1.268 . S
C731 O737 1.268 . S
C731 O745 1.268 . S
C732 O738 1.268 . S
C732 O747 1.268 . S
C733 O739 1.268 . S
C733 O743 1.268 . S
C734 O740 1.268 . S
C734 O742 1.268 . S
C735 O741 1.268 . S
C735 O744 1.268 . S
O736 Sc726 2.105 . S
O736 C730 1.268 . S
O737 Sc727 2.105 . S
O737 C731 1.268 . S
O738 Sc728 2.105 . S
O738 C732 1.268 . S
O739 Sc726 2.105 . S
O739 C733 1.268 . S
O740 Sc728 2.105 . S
O740 C734 1.268 . S
O741 Sc727 2.105 . S
O741 C735 1.268 . S
O742 Sc726 2.105 . S
O742 C734 1.268 . S
O743 Sc727 2.105 . S
O743 C733 1.268 . S
O744 Sc728 2.105 . S
O744 C735 1.268 . S
O745 Sc726 2.105 . S
O745 C731 1.268 . S
O746 Sc728 2.105 . S
O746 C730 1.268 . S
O747 Sc727 2.105 . S
O747 C732 1.268 . S
Sc748 O751 2.025 . S
Sc748 O758 2.105 . S
Sc748 O761 2.105 . S
Sc748 O764 2.105 . S
Sc748 O767 2.105 . S
Sc749 O751 2.025 . S
Sc749 O759 2.105 . S
Sc749 O763 2.105 . S
Sc749 O765 2.105 . S
Sc749 O769 2.105 . S
Sc750 O751 2.025 . S
Sc750 O760 2.105 . S
Sc750 O762 2.105 . S
Sc750 O766 2.105 . S
Sc750 O768 2.105 . S
O751 Sc748 2.025 . S
O751 Sc749 2.025 . S
O751 Sc750 2.025 . S
C752 O758 1.268 . S
C752 O768 1.268 . S
C753 O759 1.268 . S
C753 O767 1.268 . S
C754 O760 1.268 . S
C754 O769 1.268 . S
C755 O761 1.268 . S
C755 O765 1.268 . S
C756 O762 1.268 . S
C756 O764 1.268 . S
C757 O763 1.268 . S
C757 O766 1.268 . S
O758 Sc748 2.105 . S
O758 C752 1.268 . S
O759 Sc749 2.105 . S
O759 C753 1.268 . S
O760 Sc750 2.105 . S
O760 C754 1.268 . S
O761 Sc748 2.105 . S
O761 C755 1.268 . S
O762 Sc750 2.105 . S
O762 C756 1.268 . S
O763 Sc749 2.105 . S
O763 C757 1.268 . S
O764 Sc748 2.105 . S
O764 C756 1.268 . S
O765 Sc749 2.105 . S
O765 C755 1.268 . S
O766 Sc750 2.105 . S
O766 C757 1.268 . S
O767 Sc748 2.105 . S
O767 C753 1.268 . S
O768 Sc750 2.105 . S
O768 C752 1.268 . S
O769 Sc749 2.105 . S
O769 C754 1.268 . S
Sc770 O773 2.025 . S
Sc770 O780 2.105 . S
Sc770 O783 2.105 . S
Sc770 O786 2.105 . S
Sc770 O789 2.105 . S
Sc771 O773 2.025 . S
Sc771 O781 2.105 . S
Sc771 O785 2.105 . S
Sc771 O787 2.105 . S
Sc771 O791 2.105 . S
Sc772 O773 2.025 . S
Sc772 O782 2.105 . S
Sc772 O784 2.105 . S
Sc772 O788 2.105 . S
Sc772 O790 2.105 . S
O773 Sc770 2.025 . S
O773 Sc771 2.025 . S
O773 Sc772 2.025 . S
C774 O780 1.268 . S
C774 O790 1.268 . S
C775 O781 1.268 . S
C775 O789 1.268 . S
C776 O782 1.268 . S
C776 O791 1.268 . S
C777 O783 1.268 . S
C777 O787 1.268 . S
C778 O784 1.268 . S
C778 O786 1.268 . S
C779 O785 1.268 . S
C779 O788 1.268 . S
O780 Sc770 2.105 . S
O780 C774 1.268 . S
O781 Sc771 2.105 . S
O781 C775 1.268 . S
O782 Sc772 2.105 . S
O782 C776 1.268 . S
O783 Sc770 2.105 . S
O783 C777 1.268 . S
O784 Sc772 2.105 . S
O784 C778 1.268 . S
O785 Sc771 2.105 . S
O785 C779 1.268 . S
O786 Sc770 2.105 . S
O786 C778 1.268 . S
O787 Sc771 2.105 . S
O787 C777 1.268 . S
O788 Sc772 2.105 . S
O788 C779 1.268 . S
O789 Sc770 2.105 . S
O789 C775 1.268 . S
O790 Sc772 2.105 . S
O790 C774 1.268 . S
O791 Sc771 2.105 . S
O791 C776 1.268 . S
H792 C804 0.930 . S
H793 C806 0.930 . S
H794 C807 0.930 . S
H795 C811 0.959 . S
H796 C811 0.959 . S
H797 C811 0.961 . S
H798 C812 0.960 . S
H799 C812 0.961 1_556 S
H800 C812 0.959 . S
H801 C815 0.929 . S
H802 C816 0.931 . S
H803 C818 0.930 . S
C804 H792 0.930 . S
C804 C805 1.399 . S
C804 C809 1.399 . S
C805 C804 1.399 . S
C805 C806 1.376 . S
C806 H793 0.930 . S
C806 C805 1.376 . S
C806 C807 1.388 . S
C807 H794 0.930 . S
C807 C806 1.388 . S
C807 C808 1.390 . S
C808 C807 1.390 . S
C808 C809 1.394 . S
C808 C814 1.465 1_554 S
C809 C804 1.399 . S
C809 C808 1.394 . S
C809 C810 1.516 1_554 S
C810 C809 1.516 1_556 S
C810 C811 1.502 . S
C810 C812 1.561 1_556 S
C810 C813 1.526 . S
C811 H795 0.959 . S
C811 H796 0.959 . S
C811 H797 0.961 . S
C811 C810 1.502 . S
C812 H798 0.960 . S
C812 H799 0.961 1_554 S
C812 H800 0.959 . S
C812 C810 1.561 1_554 S
C813 C810 1.526 . S
C813 C814 1.396 . S
C813 C818 1.390 . S
C814 C808 1.465 1_556 S
C814 C813 1.396 . S
C814 C815 1.399 . S
C815 H801 0.929 . S
C815 C814 1.399 . S
C815 C816 1.385 . S
C816 H802 0.931 . S
C816 C815 1.385 . S
C816 C817 1.389 . S
C817 C816 1.389 . S
C817 C818 1.387 . S
C818 H803 0.930 . S
C818 C813 1.390 . S
C818 C817 1.387 . S
H819 C831 0.930 . S
H820 C833 0.930 . S
H821 C834 0.930 . S
H822 C838 0.959 . S
H823 C838 0.959 . S
H824 C838 0.961 1_554 S
H825 C839 0.960 . S
H826 C839 0.961 . S
H827 C839 0.959 . S
H828 C842 0.929 . S
H829 C843 0.931 . S
H830 C845 0.930 . S
C831 H819 0.930 . S
C831 C832 1.399 . S
C831 C836 1.399 . S
C832 C831 1.399 . S
C832 C833 1.376 . S
C833 H820 0.930 . S
C833 C832 1.376 . S
C833 C834 1.388 . S
C834 H821 0.930 . S
C834 C833 1.388 . S
C834 C835 1.390 . S
C835 C834 1.390 . S
C835 C836 1.394 . S
C835 C841 1.465 1_554 S
C836 C831 1.399 . S
C836 C835 1.394 . S
C836 C837 1.516 . S
C837 C836 1.516 . S
C837 C838 1.502 1_554 S
C837 C839 1.561 . S
C837 C840 1.526 1_554 S
C838 H822 0.959 . S
C838 H823 0.959 . S
C838 H824 0.961 1_556 S
C838 C837 1.502 1_556 S
C839 H825 0.960 . S
C839 H826 0.961 . S
C839 H827 0.959 . S
C839 C837 1.561 . S
C840 C837 1.526 1_556 S
C840 C841 1.396 . S
C840 C845 1.390 . S
C841 C835 1.465 1_556 S
C841 C840 1.396 . S
C841 C842 1.399 . S
C842 H828 0.929 . S
C842 C841 1.399 . S
C842 C843 1.385 . S
C843 H829 0.931 . S
C843 C842 1.385 . S
C843 C844 1.389 . S
C844 C843 1.389 . S
C844 C845 1.387 . S
C845 H830 0.930 . S
C845 C840 1.390 . S
C845 C844 1.387 . S
H846 C858 0.930 . S
H847 C860 0.930 . S
H848 C861 0.930 . S
H849 C865 0.959 . S
H850 C865 0.959 . S
H851 C865 0.961 . S
H852 C866 0.960 . S
H853 C866 0.961 . S
H854 C866 0.959 . S
H855 C869 0.929 1_554 S
H856 C870 0.931 . S
H857 C872 0.930 . S
C858 H846 0.930 . S
C858 C859 1.399 . S
C858 C863 1.399 . S
C859 C858 1.399 . S
C859 C860 1.376 . S
C860 H847 0.930 . S
C860 C859 1.376 . S
C860 C861 1.388 . S
C861 H848 0.930 . S
C861 C860 1.388 . S
C861 C862 1.390 . S
C862 C861 1.390 . S
C862 C863 1.394 . S
C862 C868 1.465 1_554 S
C863 C858 1.399 . S
C863 C862 1.394 . S
C863 C864 1.516 1_554 S
C864 C863 1.516 1_556 S
C864 C865 1.502 . S
C864 C866 1.561 . S
C864 C867 1.526 . S
C865 H849 0.959 . S
C865 H850 0.959 . S
C865 H851 0.961 . S
C865 C864 1.502 . S
C866 H852 0.960 . S
C866 H853 0.961 . S
C866 H854 0.959 . S
C866 C864 1.561 . S
C867 C864 1.526 . S
C867 C868 1.396 . S
C867 C872 1.390 . S
C868 C862 1.465 1_556 S
C868 C867 1.396 . S
C868 C869 1.399 . S
C869 H855 0.929 1_556 S
C869 C868 1.399 . S
C869 C870 1.385 . S
C870 H856 0.931 . S
C870 C869 1.385 . S
C870 C871 1.389 . S
C871 C870 1.389 . S
C871 C872 1.387 . S
C872 H857 0.930 . S
C872 C867 1.390 . S
C872 C871 1.387 . S
H873 C885 0.930 . S
H874 C887 0.930 . S
H875 C888 0.930 . S
H876 C892 0.959 . S
H877 C892 0.959 . S
H878 C892 0.961 . S
H879 C893 0.960 . S
H880 C893 0.961 . S
H881 C893 0.959 . S
H882 C896 0.929 . S
H883 C897 0.931 . S
H884 C899 0.930 . S
C885 H873 0.930 . S
C885 C886 1.399 . S
C885 C890 1.399 . S
C886 C885 1.399 . S
C886 C887 1.376 . S
C887 H874 0.930 . S
C887 C886 1.376 . S
C887 C888 1.388 . S
C888 H875 0.930 . S
C888 C887 1.388 . S
C888 C889 1.390 . S
C889 C888 1.390 . S
C889 C890 1.394 . S
C889 C895 1.465 . S
C890 C885 1.399 . S
C890 C889 1.394 . S
C890 C891 1.516 . S
C891 C890 1.516 . S
C891 C892 1.502 . S
C891 C893 1.561 . S
C891 C894 1.526 . S
C892 H876 0.959 . S
C892 H877 0.959 . S
C892 H878 0.961 . S
C892 C891 1.502 . S
C893 H879 0.960 . S
C893 H880 0.961 . S
C893 H881 0.959 . S
C893 C891 1.561 . S
C894 C891 1.526 . S
C894 C895 1.396 . S
C894 C899 1.390 . S
C895 C889 1.465 . S
C895 C894 1.396 . S
C895 C896 1.399 . S
C896 H882 0.929 . S
C896 C895 1.399 . S
C896 C897 1.385 . S
C897 H883 0.931 . S
C897 C896 1.385 . S
C897 C898 1.389 . S
C898 C897 1.389 . S
C898 C899 1.387 . S
C899 H884 0.930 . S
C899 C894 1.390 . S
C899 C898 1.387 . S
H900 C912 0.930 . S
H901 C914 0.930 . S
H902 C915 0.930 . S
H903 C919 0.959 . S
H904 C919 0.959 . S
H905 C919 0.961 . S
H906 C920 0.960 1_565 S
H907 C920 0.961 . S
H908 C920 0.959 . S
H909 C923 0.929 . S
H910 C924 0.931 . S
H911 C926 0.930 . S
C912 H900 0.930 . S
C912 C913 1.399 . S
C912 C917 1.399 . S
C913 C912 1.399 . S
C913 C914 1.376 . S
C914 H901 0.930 . S
C914 C913 1.376 . S
C914 C915 1.388 . S
C915 H902 0.930 . S
C915 C914 1.388 . S
C915 C916 1.390 . S
C916 C915 1.390 . S
C916 C917 1.394 . S
C916 C922 1.465 . S
C917 C912 1.399 . S
C917 C916 1.394 . S
C917 C918 1.516 . S
C918 C917 1.516 . S
C918 C919 1.502 . S
C918 C920 1.561 . S
C918 C921 1.526 . S
C919 H903 0.959 . S
C919 H904 0.959 . S
C919 H905 0.961 . S
C919 C918 1.502 . S
C920 H906 0.960 1_545 S
C920 H907 0.961 . S
C920 H908 0.959 . S
C920 C918 1.561 . S
C921 C918 1.526 . S
C921 C922 1.396 . S
C921 C926 1.390 . S
C922 C916 1.465 . S
C922 C921 1.396 . S
C922 C923 1.399 . S
C923 H909 0.929 . S
C923 C922 1.399 . S
C923 C924 1.385 . S
C924 H910 0.931 . S
C924 C923 1.385 . S
C924 C925 1.389 . S
C925 C924 1.389 . S
C925 C926 1.387 . S
C926 H911 0.930 . S
C926 C921 1.390 . S
C926 C925 1.387 . S
H927 C939 0.930 . S
H928 C941 0.930 . S
H929 C942 0.930 . S
H930 C946 0.959 . S
H931 C946 0.959 . S
H932 C946 0.961 . S
H933 C947 0.960 . S
H934 C947 0.961 . S
H935 C947 0.959 . S
H936 C950 0.929 . S
H937 C951 0.931 . S
H938 C953 0.930 . S
C939 H927 0.930 . S
C939 C940 1.399 . S
C939 C944 1.399 . S
C940 C939 1.399 . S
C940 C941 1.376 . S
C941 H928 0.930 . S
C941 C940 1.376 . S
C941 C942 1.388 . S
C942 H929 0.930 . S
C942 C941 1.388 . S
C942 C943 1.390 . S
C943 C942 1.390 . S
C943 C944 1.394 . S
C943 C949 1.465 . S
C944 C939 1.399 . S
C944 C943 1.394 . S
C944 C945 1.516 . S
C945 C944 1.516 . S
C945 C946 1.502 . S
C945 C947 1.561 . S
C945 C948 1.526 . S
C946 H930 0.959 . S
C946 H931 0.959 . S
C946 H932 0.961 . S
C946 C945 1.502 . S
C947 H933 0.960 . S
C947 H934 0.961 . S
C947 H935 0.959 . S
C947 C945 1.561 . S
C948 C945 1.526 . S
C948 C949 1.396 . S
C948 C953 1.390 . S
C949 C943 1.465 . S
C949 C948 1.396 . S
C949 C950 1.399 . S
C950 H936 0.929 . S
C950 C949 1.399 . S
C950 C951 1.385 . S
C951 H937 0.931 . S
C951 C950 1.385 . S
C951 C952 1.389 . S
C952 C951 1.389 . S
C952 C953 1.387 . S
C953 H938 0.930 . S
C953 C948 1.390 . S
C953 C952 1.387 . S
H954 C966 0.930 . S
H955 C968 0.930 . S
H956 C969 0.930 . S
H957 C973 0.959 . S
H958 C973 0.959 . S
H959 C973 0.961 . S
H960 C974 0.960 1_554 S
H961 C974 0.961 . S
H962 C974 0.959 . S
H963 C977 0.929 . S
H964 C978 0.931 . S
H965 C980 0.930 . S
C966 H954 0.930 . S
C966 C967 1.399 . S
C966 C971 1.399 . S
C967 C966 1.399 . S
C967 C968 1.376 . S
C968 H955 0.930 . S
C968 C967 1.376 . S
C968 C969 1.388 . S
C969 H956 0.930 . S
C969 C968 1.388 . S
C969 C970 1.390 . S
C970 C969 1.390 . S
C970 C971 1.394 . S
C970 C976 1.465 1_554 S
C971 C966 1.399 . S
C971 C970 1.394 . S
C971 C972 1.516 . S
C972 C971 1.516 . S
C972 C973 1.502 . S
C972 C974 1.561 1_554 S
C972 C975 1.526 1_554 S
C973 H957 0.959 . S
C973 H958 0.959 . S
C973 H959 0.961 . S
C973 C972 1.502 . S
C974 H960 0.960 1_556 S
C974 H961 0.961 . S
C974 H962 0.959 . S
C974 C972 1.561 1_556 S
C975 C972 1.526 1_556 S
C975 C976 1.396 . S
C975 C980 1.390 . S
C976 C970 1.465 1_556 S
C976 C975 1.396 . S
C976 C977 1.399 . S
C977 H963 0.929 . S
C977 C976 1.399 . S
C977 C978 1.385 . S
C978 H964 0.931 . S
C978 C977 1.385 . S
C978 C979 1.389 . S
C979 C978 1.389 . S
C979 C980 1.387 . S
C980 H965 0.930 . S
C980 C975 1.390 . S
C980 C979 1.387 . S
H981 C993 0.930 . S
H982 C995 0.930 . S
H983 C996 0.930 . S
H984 C1000 0.959 . S
H985 C1000 0.959 1_554 S
H986 C1000 0.961 . S
H987 C1001 0.960 . S
H988 C1001 0.961 . S
H989 C1001 0.959 . S
H990 C1004 0.929 . S
H991 C1005 0.938 . S
H992 C1007 0.930 . S
C993 H981 0.930 . S
C993 C994 1.399 . S
C993 C998 1.399 . S
C994 C993 1.399 . S
C994 C995 1.376 . S
C995 H982 0.930 . S
C995 C994 1.376 . S
C995 C996 1.388 . S
C996 H983 0.930 . S
C996 C995 1.388 . S
C996 C997 1.390 . S
C997 C996 1.390 . S
C997 C998 1.394 . S
C997 C1003 1.465 1_556 S
C998 C993 1.399 . S
C998 C997 1.394 . S
C998 C999 1.516 1_556 S
C999 C998 1.516 1_554 S
C999 C1000 1.502 1_554 S
C999 C1001 1.561 . S
C999 C1002 1.526 . S
C1000 H984 0.959 . S
C1000 H985 0.959 1_556 S
C1000 H986 0.961 . S
C1000 C999 1.502 1_556 S
C1001 H987 0.960 . S
C1001 H988 0.961 . S
C1001 H989 0.959 . S
C1001 C999 1.561 . S
C1002 C999 1.526 . S
C1002 C1003 1.396 . S
C1002 C1007 1.390 . S
C1003 C997 1.465 1_554 S
C1003 C1002 1.396 . S
C1003 C1004 1.399 . S
C1004 H990 0.929 . S
C1004 C1003 1.399 . S
C1004 C1005 1.385 . S
C1005 H991 0.938 . S
C1005 C1004 1.385 . S
C1005 C1006 1.389 . S
C1006 C1005 1.389 . S
C1006 C1007 1.387 . S
C1007 H992 0.930 . S
C1007 C1002 1.390 . S
C1007 C1006 1.387 . S
H1008 C1020 0.930 . S
H1009 C1022 0.930 . S
H1010 C1023 0.930 . S
H1011 C1027 0.959 . S
H1012 C1027 0.959 . S
H1013 C1027 0.961 . S
H1014 C1028 0.960 . S
H1015 C1028 0.961 . S
H1016 C1028 0.959 . S
H1017 C1031 0.929 1_556 S
H1018 C1032 0.931 1_455 S
H1019 C1034 0.930 . S
C1020 H1008 0.930 . S
C1020 C1021 1.399 . S
C1020 C1025 1.399 . S
C1021 C1020 1.399 . S
C1021 C1022 1.376 . S
C1022 H1009 0.930 . S
C1022 C1021 1.376 . S
C1022 C1023 1.388 . S
C1023 H1010 0.930 . S
C1023 C1022 1.388 . S
C1023 C1024 1.390 . S
C1024 C1023 1.390 . S
C1024 C1025 1.394 . S
C1024 C1030 1.465 1_556 S
C1025 C1020 1.399 . S
C1025 C1024 1.394 . S
C1025 C1026 1.516 1_556 S
C1026 C1025 1.516 1_554 S
C1026 C1027 1.502 . S
C1026 C1028 1.561 . S
C1026 C1029 1.526 . S
C1027 H1011 0.959 . S
C1027 H1012 0.959 . S
C1027 H1013 0.961 . S
C1027 C1026 1.502 . S
C1028 H1014 0.960 . S
C1028 H1015 0.961 . S
C1028 H1016 0.959 . S
C1028 C1026 1.561 . S
C1029 C1026 1.526 . S
C1029 C1030 1.396 . S
C1029 C1034 1.390 . S
C1030 C1024 1.465 1_554 S
C1030 C1029 1.396 . S
C1030 C1031 1.399 . S
C1031 H1017 0.929 1_554 S
C1031 C1030 1.399 . S
C1031 C1032 1.385 . S
C1032 H1018 0.931 1_655 S
C1032 C1031 1.385 . S
C1032 C1033 1.389 . S
C1033 C1032 1.389 . S
C1033 C1034 1.387 . S
C1034 H1019 0.930 . S
C1034 C1029 1.390 . S
C1034 C1033 1.387 . S
H1035 C1047 0.930 . S
H1036 C1049 0.930 . S
H1037 C1050 0.930 . S
H1038 C1054 0.959 . S
H1039 C1054 0.959 . S
H1040 C1054 0.961 . S
H1041 C1055 0.960 . S
H1042 C1055 0.961 . S
H1043 C1055 0.959 . S
H1044 C1058 0.929 . S
H1045 C1059 0.931 . S
H1046 C1061 0.930 . S
C1047 H1035 0.930 . S
C1047 C1048 1.399 . S
C1047 C1052 1.399 . S
C1048 C1047 1.399 . S
C1048 C1049 1.376 . S
C1049 H1036 0.930 . S
C1049 C1048 1.376 . S
C1049 C1050 1.388 . S
C1050 H1037 0.930 . S
C1050 C1049 1.388 . S
C1050 C1051 1.390 . S
C1051 C1050 1.390 . S
C1051 C1052 1.394 . S
C1051 C1057 1.465 . S
C1052 C1047 1.399 . S
C1052 C1051 1.394 . S
C1052 C1053 1.516 . S
C1053 C1052 1.516 . S
C1053 C1054 1.502 . S
C1053 C1055 1.561 . S
C1053 C1056 1.526 . S
C1054 H1038 0.959 . S
C1054 H1039 0.959 . S
C1054 H1040 0.961 . S
C1054 C1053 1.502 . S
C1055 H1041 0.960 . S
C1055 H1042 0.961 . S
C1055 H1043 0.959 . S
C1055 C1053 1.561 . S
C1056 C1053 1.526 . S
C1056 C1057 1.396 . S
C1056 C1061 1.390 . S
C1057 C1051 1.465 . S
C1057 C1056 1.396 . S
C1057 C1058 1.399 . S
C1058 H1044 0.929 . S
C1058 C1057 1.399 . S
C1058 C1059 1.385 . S
C1059 H1045 0.931 . S
C1059 C1058 1.385 . S
C1059 C1060 1.389 . S
C1060 C1059 1.389 . S
C1060 C1061 1.387 . S
C1061 H1046 0.930 . S
C1061 C1056 1.390 . S
C1061 C1060 1.387 . S
H1062 C1074 0.930 . S
H1063 C1076 0.930 . S
H1064 C1077 0.930 . S
H1065 C1081 0.959 . S
H1066 C1081 0.959 1_545 S
H1067 C1081 0.961 . S
H1068 C1082 0.960 . S
H1069 C1082 0.961 . S
H1070 C1082 0.959 . S
H1071 C1085 0.929 . S
H1072 C1086 0.931 . S
H1073 C1088 0.930 . S
C1074 H1062 0.930 . S
C1074 C1075 1.399 . S
C1074 C1079 1.399 . S
C1075 C1074 1.399 . S
C1075 C1076 1.376 . S
C1076 H1063 0.930 . S
C1076 C1075 1.376 . S
C1076 C1077 1.388 . S
C1077 H1064 0.930 . S
C1077 C1076 1.388 . S
C1077 C1078 1.390 . S
C1078 C1077 1.390 . S
C1078 C1079 1.394 . S
C1078 C1084 1.465 . S
C1079 C1074 1.399 . S
C1079 C1078 1.394 . S
C1079 C1080 1.516 . S
C1080 C1079 1.516 . S
C1080 C1081 1.502 . S
C1080 C1082 1.561 . S
C1080 C1083 1.526 . S
C1081 H1065 0.959 . S
C1081 H1066 0.959 1_565 S
C1081 H1067 0.961 . S
C1081 C1080 1.502 . S
C1082 H1068 0.960 . S
C1082 H1069 0.961 . S
C1082 H1070 0.959 . S
C1082 C1080 1.561 . S
C1083 C1080 1.526 . S
C1083 C1084 1.396 . S
C1083 C1088 1.390 . S
C1084 C1078 1.465 . S
C1084 C1083 1.396 . S
C1084 C1085 1.399 . S
C1085 H1071 0.929 . S
C1085 C1084 1.399 . S
C1085 C1086 1.385 . S
C1086 H1072 0.931 . S
C1086 C1085 1.385 . S
C1086 C1087 1.389 . S
C1087 C1086 1.389 . S
C1087 C1088 1.387 . S
C1088 H1073 0.930 . S
C1088 C1083 1.390 . S
C1088 C1087 1.387 . S
H1089 C1101 0.930 . S
H1090 C1103 0.930 . S
H1091 C1104 0.930 . S
H1092 C1108 0.959 . S
H1093 C1108 0.959 . S
H1094 C1108 0.961 . S
H1095 C1109 0.960 . S
H1096 C1109 0.961 . S
H1097 C1109 0.959 . S
H1098 C1112 0.929 . S
H1099 C1113 0.931 . S
H1100 C1115 0.930 . S
C1101 H1089 0.930 . S
C1101 C1102 1.399 . S
C1101 C1106 1.399 . S
C1102 C1101 1.399 . S
C1102 C1103 1.376 . S
C1103 H1090 0.930 . S
C1103 C1102 1.376 . S
C1103 C1104 1.388 . S
C1104 H1091 0.930 . S
C1104 C1103 1.388 . S
C1104 C1105 1.390 . S
C1105 C1104 1.390 . S
C1105 C1106 1.394 . S
C1105 C1111 1.465 . S
C1106 C1101 1.399 . S
C1106 C1105 1.394 . S
C1106 C1107 1.516 . S
C1107 C1106 1.516 . S
C1107 C1108 1.502 . S
C1107 C1109 1.561 . S
C1107 C1110 1.526 . S
C1108 H1092 0.959 . S
C1108 H1093 0.959 . S
C1108 H1094 0.961 . S
C1108 C1107 1.502 . S
C1109 H1095 0.960 . S
C1109 H1096 0.961 . S
C1109 H1097 0.959 . S
C1109 C1107 1.561 . S
C1110 C1107 1.526 . S
C1110 C1111 1.396 . S
C1110 C1115 1.390 . S
C1111 C1105 1.465 . S
C1111 C1110 1.396 . S
C1111 C1112 1.399 . S
C1112 H1098 0.929 . S
C1112 C1111 1.399 . S
C1112 C1113 1.385 . S
C1113 H1099 0.931 . S
C1113 C1112 1.385 . S
C1113 C1114 1.389 . S
C1114 C1113 1.389 . S
C1114 C1115 1.387 . S
C1115 H1100 0.930 . S
C1115 C1110 1.390 . S
C1115 C1114 1.387 . S
H1116 C1128 0.930 . S
H1117 C1130 0.930 . S
H1118 C1131 0.930 . S
H1119 C1135 0.959 . S
H1120 C1135 0.959 . S
H1121 C1135 0.961 . S
H1122 C1136 0.960 . S
H1123 C1136 0.961 . S
H1124 C1136 0.959 . S
H1125 C1139 0.929 . S
H1126 C1140 0.931 . S
H1127 C1142 0.930 . S
C1128 H1116 0.930 . S
C1128 C1129 1.399 . S
C1128 C1133 1.399 . S
C1129 C1128 1.399 . S
C1129 C1130 1.376 . S
C1130 H1117 0.930 . S
C1130 C1129 1.376 . S
C1130 C1131 1.388 . S
C1131 H1118 0.930 . S
C1131 C1130 1.388 . S
C1131 C1132 1.390 . S
C1132 C1131 1.390 . S
C1132 C1133 1.394 . S
C1132 C1138 1.465 . S
C1133 C1128 1.399 . S
C1133 C1132 1.394 . S
C1133 C1134 1.516 . S
C1134 C1133 1.516 . S
C1134 C1135 1.502 . S
C1134 C1136 1.561 . S
C1134 C1137 1.526 . S
C1135 H1119 0.959 . S
C1135 H1120 0.959 . S
C1135 H1121 0.961 . S
C1135 C1134 1.502 . S
C1136 H1122 0.960 . S
C1136 H1123 0.961 . S
C1136 H1124 0.959 . S
C1136 C1134 1.561 . S
C1137 C1134 1.526 . S
C1137 C1138 1.396 . S
C1137 C1142 1.390 . S
C1138 C1132 1.465 . S
C1138 C1137 1.396 . S
C1138 C1139 1.399 . S
C1139 H1125 0.929 . S
C1139 C1138 1.399 . S
C1139 C1140 1.385 . S
C1140 H1126 0.931 . S
C1140 C1139 1.385 . S
C1140 C1141 1.389 . S
C1141 C1140 1.389 . S
C1141 C1142 1.387 . S
C1142 H1127 0.930 . S
C1142 C1137 1.390 . S
C1142 C1141 1.387 . S
H1143 C1155 0.930 . S
H1144 C1157 0.930 . S
H1145 C1158 0.930 . S
H1146 C1162 0.959 . S
H1147 C1162 0.959 . S
H1148 C1162 0.961 . S
H1149 C1163 0.960 . S
H1150 C1163 0.961 . S
H1151 C1163 0.959 . S
H1152 C1166 0.929 . S
H1153 C1167 0.931 . S
H1154 C1169 0.930 . S
C1155 H1143 0.930 . S
C1155 C1156 1.399 . S
C1155 C1160 1.399 . S
C1156 C1155 1.399 . S
C1156 C1157 1.376 . S
C1157 H1144 0.930 . S
C1157 C1156 1.376 . S
C1157 C1158 1.388 . S
C1158 H1145 0.930 . S
C1158 C1157 1.388 . S
C1158 C1159 1.390 . S
C1159 C1158 1.390 . S
C1159 C1160 1.394 . S
C1159 C1165 1.465 . S
C1160 C1155 1.399 . S
C1160 C1159 1.394 . S
C1160 C1161 1.516 . S
C1161 C1160 1.516 . S
C1161 C1162 1.502 . S
C1161 C1163 1.561 . S
C1161 C1164 1.526 . S
C1162 H1146 0.959 . S
C1162 H1147 0.959 . S
C1162 H1148 0.961 . S
C1162 C1161 1.502 . S
C1163 H1149 0.960 . S
C1163 H1150 0.961 . S
C1163 H1151 0.959 . S
C1163 C1161 1.561 . S
C1164 C1161 1.526 . S
C1164 C1165 1.396 . S
C1164 C1169 1.390 . S
C1165 C1159 1.465 . S
C1165 C1164 1.396 . S
C1165 C1166 1.399 . S
C1166 H1152 0.929 . S
C1166 C1165 1.399 . S
C1166 C1167 1.385 . S
C1167 H1153 0.931 . S
C1167 C1166 1.385 . S
C1167 C1168 1.389 . S
C1168 C1167 1.389 . S
C1168 C1169 1.387 . S
C1169 H1154 0.930 . S
C1169 C1164 1.390 . S
C1169 C1168 1.387 . S
H1170 C1182 0.930 . S
H1171 C1184 0.930 . S
H1172 C1185 0.930 . S
H1173 C1189 0.959 . S
H1174 C1189 0.959 . S
H1175 C1189 0.961 . S
H1176 C1190 0.960 . S
H1177 C1190 0.961 . S
H1178 C1190 0.959 . S
H1179 C1193 0.929 . S
H1180 C1194 0.931 . S
H1181 C1196 0.930 . S
C1182 H1170 0.930 . S
C1182 C1183 1.399 . S
C1182 C1187 1.399 . S
C1183 C1182 1.399 . S
C1183 C1184 1.376 . S
C1184 H1171 0.930 . S
C1184 C1183 1.376 . S
C1184 C1185 1.388 . S
C1185 H1172 0.930 . S
C1185 C1184 1.388 . S
C1185 C1186 1.390 . S
C1186 C1185 1.390 . S
C1186 C1187 1.394 . S
C1186 C1192 1.465 . S
C1187 C1182 1.399 . S
C1187 C1186 1.394 . S
C1187 C1188 1.516 . S
C1188 C1187 1.516 . S
C1188 C1189 1.502 . S
C1188 C1190 1.561 . S
C1188 C1191 1.526 . S
C1189 H1173 0.959 . S
C1189 H1174 0.959 . S
C1189 H1175 0.961 . S
C1189 C1188 1.502 . S
C1190 H1176 0.960 . S
C1190 H1177 0.961 . S
C1190 H1178 0.959 . S
C1190 C1188 1.561 . S
C1191 C1188 1.526 . S
C1191 C1192 1.396 . S
C1191 C1196 1.390 . S
C1192 C1186 1.465 . S
C1192 C1191 1.396 . S
C1192 C1193 1.399 . S
C1193 H1179 0.929 . S
C1193 C1192 1.399 . S
C1193 C1194 1.385 . S
C1194 H1180 0.931 . S
C1194 C1193 1.385 . S
C1194 C1195 1.389 . S
C1195 C1194 1.389 . S
C1195 C1196 1.387 . S
C1196 H1181 0.930 . S
C1196 C1191 1.390 . S
C1196 C1195 1.387 . S
H1197 C1209 0.930 . S
H1198 C1211 0.930 . S
H1199 C1212 0.930 . S
H1200 C1216 0.959 . S
H1201 C1216 0.959 . S
H1202 C1216 0.961 . S
H1203 C1217 0.960 . S
H1204 C1217 0.961 . S
H1205 C1217 0.959 . S
H1206 C1220 0.929 . S
H1207 C1221 0.931 . S
H1208 C1223 0.930 . S
C1209 H1197 0.930 . S
C1209 C1210 1.399 . S
C1209 C1214 1.399 . S
C1210 C1209 1.399 . S
C1210 C1211 1.376 . S
C1211 H1198 0.930 . S
C1211 C1210 1.376 . S
C1211 C1212 1.388 . S
C1212 H1199 0.930 . S
C1212 C1211 1.388 . S
C1212 C1213 1.390 . S
C1213 C1212 1.390 . S
C1213 C1214 1.394 . S
C1213 C1219 1.465 . S
C1214 C1209 1.399 . S
C1214 C1213 1.394 . S
C1214 C1215 1.516 . S
C1215 C1214 1.516 . S
C1215 C1216 1.502 . S
C1215 C1217 1.561 . S
C1215 C1218 1.526 . S
C1216 H1200 0.959 . S
C1216 H1201 0.959 . S
C1216 H1202 0.961 . S
C1216 C1215 1.502 . S
C1217 H1203 0.960 . S
C1217 H1204 0.961 . S
C1217 H1205 0.959 . S
C1217 C1215 1.561 . S
C1218 C1215 1.526 . S
C1218 C1219 1.396 . S
C1218 C1223 1.390 . S
C1219 C1213 1.465 . S
C1219 C1218 1.396 . S
C1219 C1220 1.399 . S
C1220 H1206 0.929 . S
C1220 C1219 1.399 . S
C1220 C1221 1.385 . S
C1221 H1207 0.931 . S
C1221 C1220 1.385 . S
C1221 C1222 1.389 . S
C1222 C1221 1.389 . S
C1222 C1223 1.387 . S
C1223 H1208 0.930 . S
C1223 C1218 1.390 . S
C1223 C1222 1.387 . S
H1224 C1236 0.930 . S
H1225 C1238 0.930 . S
H1226 C1239 0.930 . S
H1227 C1243 0.959 . S
H1228 C1243 0.959 . S
H1229 C1243 0.961 . S
H1230 C1244 0.960 . S
H1231 C1244 0.961 . S
H1232 C1244 0.959 . S
H1233 C1247 0.929 . S
H1234 C1248 0.931 . S
H1235 C1250 0.930 . S
C1236 H1224 0.930 . S
C1236 C1237 1.399 . S
C1236 C1241 1.399 . S
C1237 C1236 1.399 . S
C1237 C1238 1.376 . S
C1238 H1225 0.930 . S
C1238 C1237 1.376 . S
C1238 C1239 1.388 . S
C1239 H1226 0.930 . S
C1239 C1238 1.388 . S
C1239 C1240 1.390 . S
C1240 C1239 1.390 . S
C1240 C1241 1.394 . S
C1240 C1246 1.465 . S
C1241 C1236 1.399 . S
C1241 C1240 1.394 . S
C1241 C1242 1.516 . S
C1242 C1241 1.516 . S
C1242 C1243 1.502 . S
C1242 C1244 1.561 . S
C1242 C1245 1.526 . S
C1243 H1227 0.959 . S
C1243 H1228 0.959 . S
C1243 H1229 0.961 . S
C1243 C1242 1.502 . S
C1244 H1230 0.960 . S
C1244 H1231 0.961 . S
C1244 H1232 0.959 . S
C1244 C1242 1.561 . S
C1245 C1242 1.526 . S
C1245 C1246 1.396 . S
C1245 C1250 1.390 . S
C1246 C1240 1.465 . S
C1246 C1245 1.396 . S
C1246 C1247 1.399 . S
C1247 H1233 0.929 . S
C1247 C1246 1.399 . S
C1247 C1248 1.385 . S
C1248 H1234 0.931 . S
C1248 C1247 1.385 . S
C1248 C1249 1.389 . S
C1249 C1248 1.389 . S
C1249 C1250 1.387 . S
C1250 H1235 0.930 . S
C1250 C1245 1.390 . S
C1250 C1249 1.387 . S
H1251 C1263 0.930 . S
H1252 C1265 0.930 . S
H1253 C1266 0.930 . S
H1254 C1270 0.959 . S
H1255 C1270 0.959 . S
H1256 C1270 0.961 . S
H1257 C1271 0.960 . S
H1258 C1271 0.961 . S
H1259 C1271 0.959 . S
H1260 C1274 0.929 . S
H1261 C1275 0.931 . S
H1262 C1277 0.930 . S
C1263 H1251 0.930 . S
C1263 C1264 1.399 . S
C1263 C1268 1.399 . S
C1264 C1263 1.399 . S
C1264 C1265 1.376 . S
C1265 H1252 0.930 . S
C1265 C1264 1.376 . S
C1265 C1266 1.388 . S
C1266 H1253 0.930 . S
C1266 C1265 1.388 . S
C1266 C1267 1.390 . S
C1267 C1266 1.390 . S
C1267 C1268 1.394 . S
C1267 C1273 1.465 . S
C1268 C1263 1.399 . S
C1268 C1267 1.394 . S
C1268 C1269 1.516 . S
C1269 C1268 1.516 . S
C1269 C1270 1.502 . S
C1269 C1271 1.561 . S
C1269 C1272 1.526 . S
C1270 H1254 0.959 . S
C1270 H1255 0.959 . S
C1270 H1256 0.961 . S
C1270 C1269 1.502 . S
C1271 H1257 0.960 . S
C1271 H1258 0.961 . S
C1271 H1259 0.959 . S
C1271 C1269 1.561 . S
C1272 C1269 1.526 . S
C1272 C1273 1.396 . S
C1272 C1277 1.390 . S
C1273 C1267 1.465 . S
C1273 C1272 1.396 . S
C1273 C1274 1.399 . S
C1274 H1260 0.929 . S
C1274 C1273 1.399 . S
C1274 C1275 1.385 . S
C1275 H1261 0.931 . S
C1275 C1274 1.385 . S
C1275 C1276 1.389 . S
C1276 C1275 1.389 . S
C1276 C1277 1.387 . S
C1277 H1262 0.930 . S
C1277 C1272 1.390 . S
C1277 C1276 1.387 . S
H1278 C1290 0.930 . S
H1279 C1292 0.930 . S
H1280 C1293 0.930 . S
H1281 C1297 0.959 . S
H1282 C1297 0.959 . S
H1283 C1297 0.961 . S
H1284 C1298 0.960 . S
H1285 C1298 0.961 . S
H1286 C1298 0.959 . S
H1287 C1301 0.929 . S
H1288 C1302 0.931 . S
H1289 C1304 0.930 . S
C1290 H1278 0.930 . S
C1290 C1291 1.399 . S
C1290 C1295 1.399 . S
C1291 C1290 1.399 . S
C1291 C1292 1.376 . S
C1292 H1279 0.930 . S
C1292 C1291 1.376 . S
C1292 C1293 1.388 . S
C1293 H1280 0.930 . S
C1293 C1292 1.388 . S
C1293 C1294 1.390 . S
C1294 C1293 1.390 . S
C1294 C1295 1.394 . S
C1294 C1300 1.465 . S
C1295 C1290 1.399 . S
C1295 C1294 1.394 . S
C1295 C1296 1.516 . S
C1296 C1295 1.516 . S
C1296 C1297 1.502 . S
C1296 C1298 1.561 . S
C1296 C1299 1.526 . S
C1297 H1281 0.959 . S
C1297 H1282 0.959 . S
C1297 H1283 0.961 . S
C1297 C1296 1.502 . S
C1298 H1284 0.960 . S
C1298 H1285 0.961 . S
C1298 H1286 0.959 . S
C1298 C1296 1.561 . S
C1299 C1296 1.526 . S
C1299 C1300 1.396 . S
C1299 C1304 1.390 . S
C1300 C1294 1.465 . S
C1300 C1299 1.396 . S
C1300 C1301 1.399 . S
C1301 H1287 0.929 . S
C1301 C1300 1.399 . S
C1301 C1302 1.385 . S
C1302 H1288 0.931 . S
C1302 C1301 1.385 . S
C1302 C1303 1.389 . S
C1303 C1302 1.389 . S
C1303 C1304 1.387 . S
C1304 H1289 0.930 . S
C1304 C1299 1.390 . S
C1304 C1303 1.387 . S
H1305 C1317 0.930 . S
H1306 C1319 0.930 . S
H1307 C1320 0.930 . S
H1308 C1324 0.959 . S
H1309 C1324 0.959 . S
H1310 C1324 0.961 . S
H1311 C1325 0.960 . S
H1312 C1325 0.961 . S
H1313 C1325 0.959 . S
H1314 C1328 0.929 . S
H1315 C1329 0.931 . S
H1316 C1331 0.930 . S
C1317 H1305 0.930 . S
C1317 C1318 1.399 . S
C1317 C1322 1.399 . S
C1318 C1317 1.399 . S
C1318 C1319 1.376 . S
C1319 H1306 0.930 . S
C1319 C1318 1.376 . S
C1319 C1320 1.388 . S
C1320 H1307 0.930 . S
C1320 C1319 1.388 . S
C1320 C1321 1.390 . S
C1321 C1320 1.390 . S
C1321 C1322 1.394 . S
C1321 C1327 1.465 . S
C1322 C1317 1.399 . S
C1322 C1321 1.394 . S
C1322 C1323 1.516 . S
C1323 C1322 1.516 . S
C1323 C1324 1.502 . S
C1323 C1325 1.561 . S
C1323 C1326 1.526 . S
C1324 H1308 0.959 . S
C1324 H1309 0.959 . S
C1324 H1310 0.961 . S
C1324 C1323 1.502 . S
C1325 H1311 0.960 . S
C1325 H1312 0.961 . S
C1325 H1313 0.959 . S
C1325 C1323 1.561 . S
C1326 C1323 1.526 . S
C1326 C1327 1.396 . S
C1326 C1331 1.390 . S
C1327 C1321 1.465 . S
C1327 C1326 1.396 . S
C1327 C1328 1.399 . S
C1328 H1314 0.929 . S
C1328 C1327 1.399 . S
C1328 C1329 1.385 . S
C1329 H1315 0.931 . S
C1329 C1328 1.385 . S
C1329 C1330 1.389 . S
C1330 C1329 1.389 . S
C1330 C1331 1.387 . S
C1331 H1316 0.930 . S
C1331 C1326 1.390 . S
C1331 C1330 1.387 . S
H1332 C1344 0.930 . S
H1333 C1346 0.930 . S
H1334 C1347 0.930 . S
H1335 C1351 0.959 . S
H1336 C1351 0.959 . S
H1337 C1351 0.961 . S
H1338 C1352 0.960 . S
H1339 C1352 0.961 . S
H1340 C1352 0.959 . S
H1341 C1355 0.929 . S
H1342 C1356 0.931 . S
H1343 C1358 0.930 . S
C1344 H1332 0.930 . S
C1344 C1345 1.399 . S
C1344 C1349 1.399 . S
C1345 C1344 1.399 . S
C1345 C1346 1.376 . S
C1346 H1333 0.930 . S
C1346 C1345 1.376 . S
C1346 C1347 1.388 . S
C1347 H1334 0.930 . S
C1347 C1346 1.388 . S
C1347 C1348 1.390 . S
C1348 C1347 1.390 . S
C1348 C1349 1.394 . S
C1348 C1354 1.465 . S
C1349 C1344 1.399 . S
C1349 C1348 1.394 . S
C1349 C1350 1.516 . S
C1350 C1349 1.516 . S
C1350 C1351 1.502 . S
C1350 C1352 1.561 . S
C1350 C1353 1.526 . S
C1351 H1335 0.959 . S
C1351 H1336 0.959 . S
C1351 H1337 0.961 . S
C1351 C1350 1.502 . S
C1352 H1338 0.960 . S
C1352 H1339 0.961 . S
C1352 H1340 0.959 . S
C1352 C1350 1.561 . S
C1353 C1350 1.526 . S
C1353 C1354 1.396 . S
C1353 C1358 1.390 . S
C1354 C1348 1.465 . S
C1354 C1353 1.396 . S
C1354 C1355 1.399 . S
C1355 H1341 0.929 . S
C1355 C1354 1.399 . S
C1355 C1356 1.385 . S
C1356 H1342 0.931 . S
C1356 C1355 1.385 . S
C1356 C1357 1.389 . S
C1357 C1356 1.389 . S
C1357 C1358 1.387 . S
C1358 H1343 0.930 . S
C1358 C1353 1.390 . S
C1358 C1357 1.387 . S
H1359 C1371 0.930 . S
H1360 C1373 0.930 . S
H1361 C1374 0.930 . S
H1362 C1378 0.959 . S
H1363 C1378 0.959 . S
H1364 C1378 0.961 . S
H1365 C1379 0.960 . S
H1366 C1379 0.961 . S
H1367 C1379 0.959 . S
H1368 C1382 0.929 . S
H1369 C1383 0.931 . S
H1370 C1385 0.930 . S
C1371 H1359 0.930 . S
C1371 C1372 1.399 . S
C1371 C1376 1.399 . S
C1372 C1371 1.399 . S
C1372 C1373 1.376 . S
C1373 H1360 0.930 . S
C1373 C1372 1.376 . S
C1373 C1374 1.388 . S
C1374 H1361 0.930 . S
C1374 C1373 1.388 . S
C1374 C1375 1.390 . S
C1375 C1374 1.390 . S
C1375 C1376 1.394 . S
C1375 C1381 1.465 . S
C1376 C1371 1.399 . S
C1376 C1375 1.394 . S
C1376 C1377 1.516 . S
C1377 C1376 1.516 . S
C1377 C1378 1.502 . S
C1377 C1379 1.561 . S
C1377 C1380 1.526 . S
C1378 H1362 0.959 . S
C1378 H1363 0.959 . S
C1378 H1364 0.961 . S
C1378 C1377 1.502 . S
C1379 H1365 0.960 . S
C1379 H1366 0.961 . S
C1379 H1367 0.959 . S
C1379 C1377 1.561 . S
C1380 C1377 1.526 . S
C1380 C1381 1.396 . S
C1380 C1385 1.390 . S
C1381 C1375 1.465 . S
C1381 C1380 1.396 . S
C1381 C1382 1.399 . S
C1382 H1368 0.929 . S
C1382 C1381 1.399 . S
C1382 C1383 1.385 . S
C1383 H1369 0.931 . S
C1383 C1382 1.385 . S
C1383 C1384 1.389 . S
C1384 C1383 1.389 . S
C1384 C1385 1.387 . S
C1385 H1370 0.930 . S
C1385 C1380 1.390 . S
C1385 C1384 1.387 . S
H1386 C1398 0.930 . S
H1387 C1400 0.930 . S
H1388 C1401 0.930 . S
H1389 C1405 0.959 . S
H1390 C1405 0.959 . S
H1391 C1405 0.961 . S
H1392 C1406 0.960 . S
H1393 C1406 0.961 . S
H1394 C1406 0.959 . S
H1395 C1409 0.929 . S
H1396 C1410 0.931 . S
H1397 C1412 0.930 . S
C1398 H1386 0.930 . S
C1398 C1399 1.399 . S
C1398 C1403 1.399 . S
C1399 C1398 1.399 . S
C1399 C1400 1.376 . S
C1400 H1387 0.930 . S
C1400 C1399 1.376 . S
C1400 C1401 1.388 . S
C1401 H1388 0.930 . S
C1401 C1400 1.388 . S
C1401 C1402 1.390 . S
C1402 C1401 1.390 . S
C1402 C1403 1.394 . S
C1402 C1408 1.465 . S
C1403 C1398 1.399 . S
C1403 C1402 1.394 . S
C1403 C1404 1.516 . S
C1404 C1403 1.516 . S
C1404 C1405 1.502 . S
C1404 C1406 1.561 . S
C1404 C1407 1.526 . S
C1405 H1389 0.959 . S
C1405 H1390 0.959 . S
C1405 H1391 0.961 . S
C1405 C1404 1.502 . S
C1406 H1392 0.960 . S
C1406 H1393 0.961 . S
C1406 H1394 0.959 . S
C1406 C1404 1.561 . S
C1407 C1404 1.526 . S
C1407 C1408 1.396 . S
C1407 C1412 1.390 . S
C1408 C1402 1.465 . S
C1408 C1407 1.396 . S
C1408 C1409 1.399 . S
C1409 H1395 0.929 . S
C1409 C1408 1.399 . S
C1409 C1410 1.385 . S
C1410 H1396 0.931 . S
C1410 C1409 1.385 . S
C1410 C1411 1.389 . S
C1411 C1410 1.389 . S
C1411 C1412 1.387 . S
C1412 H1397 0.930 . S
C1412 C1407 1.390 . S
C1412 C1411 1.387 . S
H1413 C1425 0.930 . S
H1414 C1427 0.930 . S
H1415 C1428 0.930 . S
H1416 C1432 0.959 . S
H1417 C1432 0.959 . S
H1418 C1432 0.961 . S
H1419 C1433 0.960 . S
H1420 C1433 0.961 . S
H1421 C1433 0.959 . S
H1422 C1436 0.929 . S
H1423 C1437 0.931 . S
H1424 C1439 0.930 . S
C1425 H1413 0.930 . S
C1425 C1426 1.399 . S
C1425 C1430 1.399 . S
C1426 C1425 1.399 . S
C1426 C1427 1.376 . S
C1427 H1414 0.930 . S
C1427 C1426 1.376 . S
C1427 C1428 1.388 . S
C1428 H1415 0.930 . S
C1428 C1427 1.388 . S
C1428 C1429 1.390 . S
C1429 C1428 1.390 . S
C1429 C1430 1.394 . S
C1429 C1435 1.465 . S
C1430 C1425 1.399 . S
C1430 C1429 1.394 . S
C1430 C1431 1.516 . S
C1431 C1430 1.516 . S
C1431 C1432 1.502 . S
C1431 C1433 1.561 . S
C1431 C1434 1.526 . S
C1432 H1416 0.959 . S
C1432 H1417 0.959 . S
C1432 H1418 0.961 . S
C1432 C1431 1.502 . S
C1433 H1419 0.960 . S
C1433 H1420 0.961 . S
C1433 H1421 0.959 . S
C1433 C1431 1.561 . S
C1434 C1431 1.526 . S
C1434 C1435 1.396 . S
C1434 C1439 1.390 . S
C1435 C1429 1.465 . S
C1435 C1434 1.396 . S
C1435 C1436 1.399 . S
C1436 H1422 0.929 . S
C1436 C1435 1.399 . S
C1436 C1437 1.385 . S
C1437 H1423 0.931 . S
C1437 C1436 1.385 . S
C1437 C1438 1.389 . S
C1438 C1437 1.389 . S
C1438 C1439 1.387 . S
C1439 H1424 0.930 . S
C1439 C1434 1.390 . S
C1439 C1438 1.387 . S
H1440 C1452 0.930 . S
H1441 C1454 0.930 . S
H1442 C1455 0.930 . S
H1443 C1459 0.959 . S
H1444 C1459 0.959 . S
H1445 C1459 0.961 . S
H1446 C1460 0.960 . S
H1447 C1460 0.961 . S
H1448 C1460 0.959 . S
H1449 C1463 0.929 . S
H1450 C1464 0.931 . S
H1451 C1466 0.930 . S
C1452 H1440 0.930 . S
C1452 C1453 1.399 . S
C1452 C1457 1.399 . S
C1453 C1452 1.399 . S
C1453 C1454 1.376 . S
C1454 H1441 0.930 . S
C1454 C1453 1.376 . S
C1454 C1455 1.388 . S
C1455 H1442 0.930 . S
C1455 C1454 1.388 . S
C1455 C1456 1.390 . S
C1456 C1455 1.390 . S
C1456 C1457 1.394 . S
C1456 C1462 1.465 . S
C1457 C1452 1.399 . S
C1457 C1456 1.394 . S
C1457 C1458 1.516 . S
C1458 C1457 1.516 . S
C1458 C1459 1.502 . S
C1458 C1460 1.561 . S
C1458 C1461 1.526 . S
C1459 H1443 0.959 . S
C1459 H1444 0.959 . S
C1459 H1445 0.961 . S
C1459 C1458 1.502 . S
C1460 H1446 0.960 . S
C1460 H1447 0.961 . S
C1460 H1448 0.959 . S
C1460 C1458 1.561 . S
C1461 C1458 1.526 . S
C1461 C1462 1.396 . S
C1461 C1466 1.390 . S
C1462 C1456 1.465 . S
C1462 C1461 1.396 . S
C1462 C1463 1.399 . S
C1463 H1449 0.929 . S
C1463 C1462 1.399 . S
C1463 C1464 1.385 . S
C1464 H1450 0.931 . S
C1464 C1463 1.385 . S
C1464 C1465 1.389 . S
C1465 C1464 1.389 . S
C1465 C1466 1.387 . S
C1466 H1451 0.930 . S
C1466 C1461 1.390 . S
C1466 C1465 1.387 . S
H1467 C1479 0.930 . S
H1468 C1481 0.930 . S
H1469 C1482 0.930 . S
H1470 C1486 0.959 . S
H1471 C1486 0.959 . S
H1472 C1486 0.961 . S
H1473 C1487 0.960 . S
H1474 C1487 0.961 . S
H1475 C1487 0.959 . S
H1476 C1490 0.929 . S
H1477 C1491 0.931 . S
H1478 C1493 0.930 . S
C1479 H1467 0.930 . S
C1479 C1480 1.399 . S
C1479 C1484 1.399 . S
C1480 C1479 1.399 . S
C1480 C1481 1.376 . S
C1481 H1468 0.930 . S
C1481 C1480 1.376 . S
C1481 C1482 1.388 . S
C1482 H1469 0.930 . S
C1482 C1481 1.388 . S
C1482 C1483 1.390 . S
C1483 C1482 1.390 . S
C1483 C1484 1.394 . S
C1483 C1489 1.465 . S
C1484 C1479 1.399 . S
C1484 C1483 1.394 . S
C1484 C1485 1.516 . S
C1485 C1484 1.516 . S
C1485 C1486 1.502 . S
C1485 C1487 1.561 . S
C1485 C1488 1.526 . S
C1486 H1470 0.959 . S
C1486 H1471 0.959 . S
C1486 H1472 0.961 . S
C1486 C1485 1.502 . S
C1487 H1473 0.960 . S
C1487 H1474 0.961 . S
C1487 H1475 0.959 . S
C1487 C1485 1.561 . S
C1488 C1485 1.526 . S
C1488 C1489 1.396 . S
C1488 C1493 1.390 . S
C1489 C1483 1.465 . S
C1489 C1488 1.396 . S
C1489 C1490 1.399 . S
C1490 H1476 0.929 . S
C1490 C1489 1.399 . S
C1490 C1491 1.385 . S
C1491 H1477 0.931 . S
C1491 C1490 1.385 . S
C1491 C1492 1.389 . S
C1492 C1491 1.389 . S
C1492 C1493 1.387 . S
C1493 H1478 0.930 . S
C1493 C1488 1.390 . S
C1493 C1492 1.387 . S
H1494 C1506 0.930 . S
H1495 C1508 0.930 . S
H1496 C1509 0.930 . S
H1497 C1513 0.959 . S
H1498 C1513 0.959 . S
H1499 C1513 0.961 . S
H1500 C1514 0.960 . S
H1501 C1514 0.961 . S
H1502 C1514 0.959 . S
H1503 C1517 0.929 . S
H1504 C1518 0.931 . S
H1505 C1520 0.930 . S
C1506 H1494 0.930 . S
C1506 C1507 1.399 . S
C1506 C1511 1.399 . S
C1507 C1506 1.399 . S
C1507 C1508 1.376 . S
C1508 H1495 0.930 . S
C1508 C1507 1.376 . S
C1508 C1509 1.388 . S
C1509 H1496 0.930 . S
C1509 C1508 1.388 . S
C1509 C1510 1.390 . S
C1510 C1509 1.390 . S
C1510 C1511 1.394 . S
C1510 C1516 1.465 . S
C1511 C1506 1.399 . S
C1511 C1510 1.394 . S
C1511 C1512 1.516 . S
C1512 C1511 1.516 . S
C1512 C1513 1.502 . S
C1512 C1514 1.561 . S
C1512 C1515 1.526 . S
C1513 H1497 0.959 . S
C1513 H1498 0.959 . S
C1513 H1499 0.961 . S
C1513 C1512 1.502 . S
C1514 H1500 0.960 . S
C1514 H1501 0.961 . S
C1514 H1502 0.959 . S
C1514 C1512 1.561 . S
C1515 C1512 1.526 . S
C1515 C1516 1.396 . S
C1515 C1520 1.390 . S
C1516 C1510 1.465 . S
C1516 C1515 1.396 . S
C1516 C1517 1.399 . S
C1517 H1503 0.929 . S
C1517 C1516 1.399 . S
C1517 C1518 1.385 . S
C1518 H1504 0.931 . S
C1518 C1517 1.385 . S
C1518 C1519 1.389 . S
C1519 C1518 1.389 . S
C1519 C1520 1.387 . S
C1520 H1505 0.930 . S
C1520 C1515 1.390 . S
C1520 C1519 1.387 . S
H1521 C1533 0.930 . S
H1522 C1535 0.930 . S
H1523 C1536 0.930 . S
H1524 C1540 0.959 . S
H1525 C1540 0.959 . S
H1526 C1540 0.961 . S
H1527 C1541 0.960 . S
H1528 C1541 0.961 . S
H1529 C1541 0.959 . S
H1530 C1544 0.929 . S
H1531 C1545 0.931 . S
H1532 C1547 0.930 . S
C1533 H1521 0.930 . S
C1533 C1534 1.399 . S
C1533 C1538 1.399 . S
C1534 C1533 1.399 . S
C1534 C1535 1.376 . S
C1535 H1522 0.930 . S
C1535 C1534 1.376 . S
C1535 C1536 1.388 . S
C1536 H1523 0.930 . S
C1536 C1535 1.388 . S
C1536 C1537 1.390 . S
C1537 C1536 1.390 . S
C1537 C1538 1.394 . S
C1537 C1543 1.465 . S
C1538 C1533 1.399 . S
C1538 C1537 1.394 . S
C1538 C1539 1.516 . S
C1539 C1538 1.516 . S
C1539 C1540 1.502 . S
C1539 C1541 1.561 . S
C1539 C1542 1.526 . S
C1540 H1524 0.959 . S
C1540 H1525 0.959 . S
C1540 H1526 0.961 . S
C1540 C1539 1.502 . S
C1541 H1527 0.960 . S
C1541 H1528 0.961 . S
C1541 H1529 0.959 . S
C1541 C1539 1.561 . S
C1542 C1539 1.526 . S
C1542 C1543 1.396 . S
C1542 C1547 1.390 . S
C1543 C1537 1.465 . S
C1543 C1542 1.396 . S
C1543 C1544 1.399 . S
C1544 H1530 0.929 . S
C1544 C1543 1.399 . S
C1544 C1545 1.385 . S
C1545 H1531 0.931 . S
C1545 C1544 1.385 . S
C1545 C1546 1.389 . S
C1546 C1545 1.389 . S
C1546 C1547 1.387 . S
C1547 H1532 0.930 . S
C1547 C1542 1.390 . S
C1547 C1546 1.387 . S
H1548 C1560 0.930 . S
H1549 C1562 0.930 . S
H1550 C1563 0.930 . S
H1551 C1567 0.959 . S
H1552 C1567 0.959 . S
H1553 C1567 0.961 . S
H1554 C1568 0.960 . S
H1555 C1568 0.961 . S
H1556 C1568 0.959 . S
H1557 C1571 0.929 . S
H1558 C1572 0.931 . S
H1559 C1574 0.930 . S
C1560 H1548 0.930 . S
C1560 C1561 1.399 . S
C1560 C1565 1.399 . S
C1561 C1560 1.399 . S
C1561 C1562 1.376 . S
C1562 H1549 0.930 . S
C1562 C1561 1.376 . S
C1562 C1563 1.388 . S
C1563 H1550 0.930 . S
C1563 C1562 1.388 . S
C1563 C1564 1.390 . S
C1564 C1563 1.390 . S
C1564 C1565 1.394 . S
C1564 C1570 1.465 . S
C1565 C1560 1.399 . S
C1565 C1564 1.394 . S
C1565 C1566 1.516 . S
C1566 C1565 1.516 . S
C1566 C1567 1.502 . S
C1566 C1568 1.561 . S
C1566 C1569 1.526 . S
C1567 H1551 0.959 . S
C1567 H1552 0.959 . S
C1567 H1553 0.961 . S
C1567 C1566 1.502 . S
C1568 H1554 0.960 . S
C1568 H1555 0.961 . S
C1568 H1556 0.959 . S
C1568 C1566 1.561 . S
C1569 C1566 1.526 . S
C1569 C1570 1.396 . S
C1569 C1574 1.390 . S
C1570 C1564 1.465 . S
C1570 C1569 1.396 . S
C1570 C1571 1.399 . S
C1571 H1557 0.929 . S
C1571 C1570 1.399 . S
C1571 C1572 1.385 . S
C1572 H1558 0.931 . S
C1572 C1571 1.385 . S
C1572 C1573 1.389 . S
C1573 C1572 1.389 . S
C1573 C1574 1.387 . S
C1574 H1559 0.930 . S
C1574 C1569 1.390 . S
C1574 C1573 1.387 . S
H1575 C1587 0.930 . S
H1576 C1589 0.930 . S
H1577 C1590 0.930 . S
H1578 C1594 0.959 . S
H1579 C1594 0.959 . S
H1580 C1594 0.961 . S
H1581 C1595 0.960 . S
H1582 C1595 0.961 . S
H1583 C1595 0.959 . S
H1584 C1598 0.929 . S
H1585 C1599 0.931 . S
H1586 C1601 0.930 . S
C1587 H1575 0.930 . S
C1587 C1588 1.399 . S
C1587 C1592 1.399 . S
C1588 C1587 1.399 . S
C1588 C1589 1.376 . S
C1589 H1576 0.930 . S
C1589 C1588 1.376 . S
C1589 C1590 1.388 . S
C1590 H1577 0.930 . S
C1590 C1589 1.388 . S
C1590 C1591 1.390 . S
C1591 C1590 1.390 . S
C1591 C1592 1.394 . S
C1591 C1597 1.465 . S
C1592 C1587 1.399 . S
C1592 C1591 1.394 . S
C1592 C1593 1.516 . S
C1593 C1592 1.516 . S
C1593 C1594 1.502 . S
C1593 C1595 1.561 . S
C1593 C1596 1.526 . S
C1594 H1578 0.959 . S
C1594 H1579 0.959 . S
C1594 H1580 0.961 . S
C1594 C1593 1.502 . S
C1595 H1581 0.960 . S
C1595 H1582 0.961 . S
C1595 H1583 0.959 . S
C1595 C1593 1.561 . S
C1596 C1593 1.526 . S
C1596 C1597 1.396 . S
C1596 C1601 1.390 . S
C1597 C1591 1.465 . S
C1597 C1596 1.396 . S
C1597 C1598 1.399 . S
C1598 H1584 0.929 . S
C1598 C1597 1.399 . S
C1598 C1599 1.385 . S
C1599 H1585 0.931 . S
C1599 C1598 1.385 . S
C1599 C1600 1.389 . S
C1600 C1599 1.389 . S
C1600 C1601 1.387 . S
C1601 H1586 0.930 . S
C1601 C1596 1.390 . S
C1601 C1600 1.387 . S
H1602 C1614 0.930 . S
H1603 C1616 0.930 . S
H1604 C1617 0.930 . S
H1605 C1621 0.959 . S
H1606 C1621 0.959 . S
H1607 C1621 0.961 . S
H1608 C1622 0.960 . S
H1609 C1622 0.961 . S
H1610 C1622 0.959 . S
H1611 C1625 0.929 . S
H1612 C1626 0.931 . S
H1613 C1628 0.930 . S
C1614 H1602 0.930 . S
C1614 C1615 1.399 . S
C1614 C1619 1.399 . S
C1615 C1614 1.399 . S
C1615 C1616 1.376 . S
C1616 H1603 0.930 . S
C1616 C1615 1.376 . S
C1616 C1617 1.388 . S
C1617 H1604 0.930 . S
C1617 C1616 1.388 . S
C1617 C1618 1.390 . S
C1618 C1617 1.390 . S
C1618 C1619 1.394 . S
C1618 C1624 1.465 . S
C1619 C1614 1.399 . S
C1619 C1618 1.394 . S
C1619 C1620 1.516 . S
C1620 C1619 1.516 . S
C1620 C1621 1.502 . S
C1620 C1622 1.561 . S
C1620 C1623 1.526 . S
C1621 H1605 0.959 . S
C1621 H1606 0.959 . S
C1621 H1607 0.961 . S
C1621 C1620 1.502 . S
C1622 H1608 0.960 . S
C1622 H1609 0.961 . S
C1622 H1610 0.959 . S
C1622 C1620 1.561 . S
C1623 C1620 1.526 . S
C1623 C1624 1.396 . S
C1623 C1628 1.390 . S
C1624 C1618 1.465 . S
C1624 C1623 1.396 . S
C1624 C1625 1.399 . S
C1625 H1611 0.929 . S
C1625 C1624 1.399 . S
C1625 C1626 1.385 . S
C1626 H1612 0.931 . S
C1626 C1625 1.385 . S
C1626 C1627 1.389 . S
C1627 C1626 1.389 . S
C1627 C1628 1.387 . S
C1628 H1613 0.930 . S
C1628 C1623 1.390 . S
C1628 C1627 1.387 . S
H1629 C1641 0.930 . S
H1630 C1643 0.930 . S
H1631 C1644 0.930 . S
H1632 C1648 0.959 . S
H1633 C1648 0.959 . S
H1634 C1648 0.961 . S
H1635 C1649 0.960 . S
H1636 C1649 0.961 . S
H1637 C1649 0.959 . S
H1638 C1652 0.929 . S
H1639 C1653 0.931 . S
H1640 C1655 0.930 . S
C1641 H1629 0.930 . S
C1641 C1642 1.399 . S
C1641 C1646 1.399 . S
C1642 C1641 1.399 . S
C1642 C1643 1.376 . S
C1643 H1630 0.930 . S
C1643 C1642 1.376 . S
C1643 C1644 1.388 . S
C1644 H1631 0.930 . S
C1644 C1643 1.388 . S
C1644 C1645 1.390 . S
C1645 C1644 1.390 . S
C1645 C1646 1.394 . S
C1645 C1651 1.465 . S
C1646 C1641 1.399 . S
C1646 C1645 1.394 . S
C1646 C1647 1.516 . S
C1647 C1646 1.516 . S
C1647 C1648 1.502 . S
C1647 C1649 1.561 . S
C1647 C1650 1.526 . S
C1648 H1632 0.959 . S
C1648 H1633 0.959 . S
C1648 H1634 0.961 . S
C1648 C1647 1.502 . S
C1649 H1635 0.960 . S
C1649 H1636 0.961 . S
C1649 H1637 0.959 . S
C1649 C1647 1.561 . S
C1650 C1647 1.526 . S
C1650 C1651 1.396 . S
C1650 C1655 1.390 . S
C1651 C1645 1.465 . S
C1651 C1650 1.396 . S
C1651 C1652 1.399 . S
C1652 H1638 0.929 . S
C1652 C1651 1.399 . S
C1652 C1653 1.385 . S
C1653 H1639 0.931 . S
C1653 C1652 1.385 . S
C1653 C1654 1.389 . S
C1654 C1653 1.389 . S
C1654 C1655 1.387 . S
C1655 H1640 0.930 . S
C1655 C1650 1.390 . S
C1655 C1654 1.387 . S
H1656 C1668 0.930 . S
H1657 C1670 0.930 . S
H1658 C1671 0.930 . S
H1659 C1675 0.959 . S
H1660 C1675 0.959 . S
H1661 C1675 0.961 . S
H1662 C1676 0.960 . S
H1663 C1676 0.961 . S
H1664 C1676 0.959 . S
H1665 C1679 0.929 . S
H1666 C1680 0.931 . S
H1667 C1682 0.930 . S
C1668 H1656 0.930 . S
C1668 C1669 1.399 . S
C1668 C1673 1.399 . S
C1669 C1668 1.399 . S
C1669 C1670 1.376 . S
C1670 H1657 0.930 . S
C1670 C1669 1.376 . S
C1670 C1671 1.388 . S
C1671 H1658 0.930 . S
C1671 C1670 1.388 . S
C1671 C1672 1.390 . S
C1672 C1671 1.390 . S
C1672 C1673 1.394 . S
C1672 C1678 1.465 . S
C1673 C1668 1.399 . S
C1673 C1672 1.394 . S
C1673 C1674 1.516 . S
C1674 C1673 1.516 . S
C1674 C1675 1.502 . S
C1674 C1676 1.561 . S
C1674 C1677 1.526 . S
C1675 H1659 0.959 . S
C1675 H1660 0.959 . S
C1675 H1661 0.961 . S
C1675 C1674 1.502 . S
C1676 H1662 0.960 . S
C1676 H1663 0.961 . S
C1676 H1664 0.959 . S
C1676 C1674 1.561 . S
C1677 C1674 1.526 . S
C1677 C1678 1.396 . S
C1677 C1682 1.390 . S
C1678 C1672 1.465 . S
C1678 C1677 1.396 . S
C1678 C1679 1.399 . S
C1679 H1665 0.929 . S
C1679 C1678 1.399 . S
C1679 C1680 1.385 . S
C1680 H1666 0.931 . S
C1680 C1679 1.385 . S
C1680 C1681 1.389 . S
C1681 C1680 1.389 . S
C1681 C1682 1.387 . S
C1682 H1667 0.930 . S
C1682 C1677 1.390 . S
C1682 C1681 1.387 . S
H1683 C1695 0.930 . S
H1684 C1697 0.930 . S
H1685 C1698 0.930 . S
H1686 C1702 0.959 . S
H1687 C1702 0.959 . S
H1688 C1702 0.961 . S
H1689 C1703 0.960 . S
H1690 C1703 0.961 . S
H1691 C1703 0.959 . S
H1692 C1706 0.929 . S
H1693 C1707 0.931 . S
H1694 C1709 0.930 . S
C1695 H1683 0.930 . S
C1695 C1696 1.399 . S
C1695 C1700 1.399 . S
C1696 C1695 1.399 . S
C1696 C1697 1.376 . S
C1697 H1684 0.930 . S
C1697 C1696 1.376 . S
C1697 C1698 1.388 . S
C1698 H1685 0.930 . S
C1698 C1697 1.388 . S
C1698 C1699 1.390 . S
C1699 C1698 1.390 . S
C1699 C1700 1.394 . S
C1699 C1705 1.465 . S
C1700 C1695 1.399 . S
C1700 C1699 1.394 . S
C1700 C1701 1.516 . S
C1701 C1700 1.516 . S
C1701 C1702 1.502 . S
C1701 C1703 1.561 . S
C1701 C1704 1.526 . S
C1702 H1686 0.959 . S
C1702 H1687 0.959 . S
C1702 H1688 0.961 . S
C1702 C1701 1.502 . S
C1703 H1689 0.960 . S
C1703 H1690 0.961 . S
C1703 H1691 0.959 . S
C1703 C1701 1.561 . S
C1704 C1701 1.526 . S
C1704 C1705 1.396 . S
C1704 C1709 1.390 . S
C1705 C1699 1.465 . S
C1705 C1704 1.396 . S
C1705 C1706 1.399 . S
C1706 H1692 0.929 . S
C1706 C1705 1.399 . S
C1706 C1707 1.385 . S
C1707 H1693 0.931 . S
C1707 C1706 1.385 . S
C1707 C1708 1.389 . S
C1708 C1707 1.389 . S
C1708 C1709 1.387 . S
C1709 H1694 0.930 . S
C1709 C1704 1.390 . S
C1709 C1708 1.387 . S
H1710 C1722 0.930 . S
H1711 C1724 0.930 . S
H1712 C1725 0.930 . S
H1713 C1729 0.959 . S
H1714 C1729 0.959 . S
H1715 C1729 0.961 . S
H1716 C1730 0.960 . S
H1717 C1730 0.961 . S
H1718 C1730 0.959 . S
H1719 C1733 0.929 . S
H1720 C1734 0.931 . S
H1721 C1736 0.930 . S
C1722 H1710 0.930 . S
C1722 C1723 1.399 . S
C1722 C1727 1.399 . S
C1723 C1722 1.399 . S
C1723 C1724 1.376 . S
C1724 H1711 0.930 . S
C1724 C1723 1.376 . S
C1724 C1725 1.388 . S
C1725 H1712 0.930 . S
C1725 C1724 1.388 . S
C1725 C1726 1.390 . S
C1726 C1725 1.390 . S
C1726 C1727 1.394 . S
C1726 C1732 1.465 . S
C1727 C1722 1.399 . S
C1727 C1726 1.394 . S
C1727 C1728 1.516 . S
C1728 C1727 1.516 . S
C1728 C1729 1.502 . S
C1728 C1730 1.561 . S
C1728 C1731 1.526 . S
C1729 H1713 0.959 . S
C1729 H1714 0.959 . S
C1729 H1715 0.961 . S
C1729 C1728 1.502 . S
C1730 H1716 0.960 . S
C1730 H1717 0.961 . S
C1730 H1718 0.959 . S
C1730 C1728 1.561 . S
C1731 C1728 1.526 . S
C1731 C1732 1.396 . S
C1731 C1736 1.390 . S
C1732 C1726 1.465 . S
C1732 C1731 1.396 . S
C1732 C1733 1.399 . S
C1733 H1719 0.929 . S
C1733 C1732 1.399 . S
C1733 C1734 1.385 . S
C1734 H1720 0.931 . S
C1734 C1733 1.385 . S
C1734 C1735 1.389 . S
C1735 C1734 1.389 . S
C1735 C1736 1.387 . S
C1736 H1721 0.930 . S
C1736 C1731 1.390 . S
C1736 C1735 1.387 . S
H1737 C1749 0.930 . S
H1738 C1751 0.930 . S
H1739 C1752 0.930 . S
H1740 C1756 0.959 . S
H1741 C1756 0.959 . S
H1742 C1756 0.961 . S
H1743 C1757 0.960 . S
H1744 C1757 0.961 . S
H1745 C1757 0.959 . S
H1746 C1760 0.929 . S
H1747 C1761 0.931 . S
H1748 C1763 0.930 . S
C1749 H1737 0.930 . S
C1749 C1750 1.399 . S
C1749 C1754 1.399 . S
C1750 C1749 1.399 . S
C1750 C1751 1.376 . S
C1751 H1738 0.930 . S
C1751 C1750 1.376 . S
C1751 C1752 1.388 . S
C1752 H1739 0.930 . S
C1752 C1751 1.388 . S
C1752 C1753 1.390 . S
C1753 C1752 1.390 . S
C1753 C1754 1.394 . S
C1753 C1759 1.465 . S
C1754 C1749 1.399 . S
C1754 C1753 1.394 . S
C1754 C1755 1.516 . S
C1755 C1754 1.516 . S
C1755 C1756 1.502 . S
C1755 C1757 1.561 . S
C1755 C1758 1.526 . S
C1756 H1740 0.959 . S
C1756 H1741 0.959 . S
C1756 H1742 0.961 . S
C1756 C1755 1.502 . S
C1757 H1743 0.960 . S
C1757 H1744 0.961 . S
C1757 H1745 0.959 . S
C1757 C1755 1.561 . S
C1758 C1755 1.526 . S
C1758 C1759 1.396 . S
C1758 C1763 1.390 . S
C1759 C1753 1.465 . S
C1759 C1758 1.396 . S
C1759 C1760 1.399 . S
C1760 H1746 0.929 . S
C1760 C1759 1.399 . S
C1760 C1761 1.385 . S
C1761 H1747 0.931 . S
C1761 C1760 1.385 . S
C1761 C1762 1.389 . S
C1762 C1761 1.389 . S
C1762 C1763 1.387 . S
C1763 H1748 0.930 . S
C1763 C1758 1.390 . S
C1763 C1762 1.387 . S
H1764 C1776 0.930 . S
H1765 C1778 0.930 . S
H1766 C1779 0.930 . S
H1767 C1783 0.959 . S
H1768 C1783 0.959 . S
H1769 C1783 0.961 . S
H1770 C1784 0.960 . S
H1771 C1784 0.961 . S
H1772 C1784 0.959 . S
H1773 C1787 0.929 . S
H1774 C1788 0.931 . S
H1775 C1790 0.930 . S
C1776 H1764 0.930 . S
C1776 C1777 1.399 . S
C1776 C1781 1.399 . S
C1777 C1776 1.399 . S
C1777 C1778 1.376 . S
C1778 H1765 0.930 . S
C1778 C1777 1.376 . S
C1778 C1779 1.388 . S
C1779 H1766 0.930 . S
C1779 C1778 1.388 . S
C1779 C1780 1.390 . S
C1780 C1779 1.390 . S
C1780 C1781 1.394 . S
C1780 C1786 1.465 . S
C1781 C1776 1.399 . S
C1781 C1780 1.394 . S
C1781 C1782 1.516 . S
C1782 C1781 1.516 . S
C1782 C1783 1.502 . S
C1782 C1784 1.561 . S
C1782 C1785 1.526 . S
C1783 H1767 0.959 . S
C1783 H1768 0.959 . S
C1783 H1769 0.961 . S
C1783 C1782 1.502 . S
C1784 H1770 0.960 . S
C1784 H1771 0.961 . S
C1784 H1772 0.959 . S
C1784 C1782 1.561 . S
C1785 C1782 1.526 . S
C1785 C1786 1.396 . S
C1785 C1790 1.390 . S
C1786 C1780 1.465 . S
C1786 C1785 1.396 . S
C1786 C1787 1.399 . S
C1787 H1773 0.929 . S
C1787 C1786 1.399 . S
C1787 C1788 1.385 . S
C1788 H1774 0.931 . S
C1788 C1787 1.385 . S
C1788 C1789 1.389 . S
C1789 C1788 1.389 . S
C1789 C1790 1.387 . S
C1790 H1775 0.930 . S
C1790 C1785 1.390 . S
C1790 C1789 1.387 . S
H1791 C1803 0.930 . S
H1792 C1805 0.930 . S
H1793 C1806 0.930 . S
H1794 C1810 0.959 . S
H1795 C1810 0.959 . S
H1796 C1810 0.961 1_565 S
H1797 C1811 0.960 1_565 S
H1798 C1811 0.961 . S
H1799 C1811 0.959 . S
H1800 C1814 0.929 . S
H1801 C1815 0.931 . S
H1802 C1817 0.930 . S
C1803 H1791 0.930 . S
C1803 C1804 1.399 . S
C1803 C1808 1.399 . S
C1804 C1803 1.399 . S
C1804 C1805 1.376 . S
C1805 H1792 0.930 . S
C1805 C1804 1.376 . S
C1805 C1806 1.388 . S
C1806 H1793 0.930 . S
C1806 C1805 1.388 . S
C1806 C1807 1.390 1_565 S
C1807 C1806 1.390 1_545 S
C1807 C1808 1.394 1_545 S
C1807 C1813 1.465 . S
C1808 C1803 1.399 . S
C1808 C1807 1.394 1_565 S
C1808 C1809 1.516 1_565 S
C1809 C1808 1.516 1_545 S
C1809 C1810 1.502 . S
C1809 C1811 1.561 . S
C1809 C1812 1.526 . S
C1810 H1794 0.959 . S
C1810 H1795 0.959 . S
C1810 H1796 0.961 1_545 S
C1810 C1809 1.502 . S
C1811 H1797 0.960 1_545 S
C1811 H1798 0.961 . S
C1811 H1799 0.959 . S
C1811 C1809 1.561 . S
C1812 C1809 1.526 . S
C1812 C1813 1.396 . S
C1812 C1817 1.390 . S
C1813 C1807 1.465 . S
C1813 C1812 1.396 . S
C1813 C1814 1.399 . S
C1814 H1800 0.929 . S
C1814 C1813 1.399 . S
C1814 C1815 1.385 . S
C1815 H1801 0.931 . S
C1815 C1814 1.385 . S
C1815 C1816 1.389 . S
C1816 C1815 1.389 . S
C1816 C1817 1.387 . S
C1817 H1802 0.930 . S
C1817 C1812 1.390 . S
C1817 C1816 1.387 . S
H1818 C1830 0.930 . S
H1819 C1832 0.930 . S
H1820 C1833 0.930 . S
H1821 C1837 0.959 . S
H1822 C1837 0.959 . S
H1823 C1837 0.961 . S
H1824 C1838 0.960 . S
H1825 C1838 0.959 . S
H1826 C1838 0.959 . S
H1827 C1841 0.929 . S
H1828 C1842 0.931 . S
H1829 C1844 0.930 . S
C1830 H1818 0.930 . S
C1830 C1831 1.399 . S
C1830 C1835 1.399 . S
C1831 C1830 1.399 . S
C1831 C1832 1.376 . S
C1832 H1819 0.930 . S
C1832 C1831 1.376 . S
C1832 C1833 1.388 . S
C1833 H1820 0.930 . S
C1833 C1832 1.388 . S
C1833 C1834 1.390 . S
C1834 C1833 1.390 . S
C1834 C1835 1.394 . S
C1834 C1840 1.465 . S
C1835 C1830 1.399 . S
C1835 C1834 1.394 . S
C1835 C1836 1.516 . S
C1836 C1835 1.516 . S
C1836 C1837 1.502 . S
C1836 C1838 1.561 . S
C1836 C1839 1.526 1_655 S
C1837 H1821 0.959 . S
C1837 H1822 0.959 . S
C1837 H1823 0.961 . S
C1837 C1836 1.502 . S
C1838 H1824 0.960 . S
C1838 H1825 0.959 . S
C1838 H1826 0.959 . S
C1838 C1836 1.561 . S
C1839 C1836 1.526 1_455 S
C1839 C1840 1.396 1_455 S
C1839 C1844 1.390 . S
C1840 C1834 1.465 . S
C1840 C1839 1.396 1_655 S
C1840 C1841 1.399 1_655 S
C1841 H1827 0.929 . S
C1841 C1840 1.399 1_455 S
C1841 C1842 1.385 . S
C1842 H1828 0.931 . S
C1842 C1841 1.385 . S
C1842 C1843 1.389 . S
C1843 C1842 1.389 . S
C1843 C1844 1.387 . S
C1844 H1829 0.930 . S
C1844 C1839 1.390 . S
C1844 C1843 1.387 . S
H1845 C1857 0.930 . S
H1846 C1859 0.930 . S
H1847 C1860 0.930 . S
H1848 C1864 0.959 . S
H1849 C1864 0.959 . S
H1850 C1864 0.961 . S
H1851 C1865 0.960 . S
H1852 C1865 0.961 . S
H1853 C1865 0.959 . S
H1854 C1868 0.929 . S
H1855 C1869 0.931 . S
H1856 C1871 0.930 . S
C1857 H1845 0.930 . S
C1857 C1858 1.399 . S
C1857 C1862 1.399 . S
C1858 C1857 1.399 . S
C1858 C1859 1.376 . S
C1859 H1846 0.930 . S
C1859 C1858 1.376 . S
C1859 C1860 1.388 . S
C1860 H1847 0.930 . S
C1860 C1859 1.388 . S
C1860 C1861 1.390 . S
C1861 C1860 1.390 . S
C1861 C1862 1.394 . S
C1861 C1867 1.465 . S
C1862 C1857 1.399 . S
C1862 C1861 1.394 . S
C1862 C1863 1.516 . S
C1863 C1862 1.516 . S
C1863 C1864 1.502 . S
C1863 C1865 1.561 . S
C1863 C1866 1.526 . S
C1864 H1848 0.959 . S
C1864 H1849 0.959 . S
C1864 H1850 0.961 . S
C1864 C1863 1.502 . S
C1865 H1851 0.960 . S
C1865 H1852 0.961 . S
C1865 H1853 0.959 . S
C1865 C1863 1.561 . S
C1866 C1863 1.526 . S
C1866 C1867 1.396 . S
C1866 C1871 1.390 . S
C1867 C1861 1.465 . S
C1867 C1866 1.396 . S
C1867 C1868 1.399 . S
C1868 H1854 0.929 . S
C1868 C1867 1.399 . S
C1868 C1869 1.385 . S
C1869 H1855 0.931 . S
C1869 C1868 1.385 . S
C1869 C1870 1.389 . S
C1870 C1869 1.389 . S
C1870 C1871 1.387 . S
C1871 H1856 0.930 . S
C1871 C1866 1.390 . S
C1871 C1870 1.387 . S
H1872 C1884 0.930 . S
H1873 C1886 0.930 . S
H1874 C1887 0.930 . S
H1875 C1891 0.959 . S
H1876 C1891 0.959 . S
H1877 C1891 0.961 . S
H1878 C1892 0.960 . S
H1879 C1892 0.961 . S
H1880 C1892 0.959 . S
H1881 C1895 0.929 . S
H1882 C1896 0.931 . S
H1883 C1898 0.930 . S
C1884 H1872 0.930 . S
C1884 C1885 1.399 . S
C1884 C1889 1.399 . S
C1885 C1884 1.399 . S
C1885 C1886 1.376 . S
C1886 H1873 0.930 . S
C1886 C1885 1.376 . S
C1886 C1887 1.388 . S
C1887 H1874 0.930 . S
C1887 C1886 1.388 . S
C1887 C1888 1.390 1_545 S
C1888 C1887 1.390 1_565 S
C1888 C1889 1.394 1_565 S
C1888 C1894 1.465 . S
C1889 C1884 1.399 . S
C1889 C1888 1.394 1_545 S
C1889 C1890 1.516 1_545 S
C1890 C1889 1.516 1_565 S
C1890 C1891 1.502 . S
C1890 C1892 1.561 . S
C1890 C1893 1.526 . S
C1891 H1875 0.959 . S
C1891 H1876 0.959 . S
C1891 H1877 0.961 . S
C1891 C1890 1.502 . S
C1892 H1878 0.960 . S
C1892 H1879 0.961 . S
C1892 H1880 0.959 . S
C1892 C1890 1.561 . S
C1893 C1890 1.526 . S
C1893 C1894 1.396 . S
C1893 C1898 1.390 . S
C1894 C1888 1.465 . S
C1894 C1893 1.396 . S
C1894 C1895 1.399 . S
C1895 H1881 0.929 . S
C1895 C1894 1.399 . S
C1895 C1896 1.385 . S
C1896 H1882 0.931 . S
C1896 C1895 1.385 . S
C1896 C1897 1.389 . S
C1897 C1896 1.389 . S
C1897 C1898 1.387 . S
C1898 H1883 0.930 . S
C1898 C1893 1.390 . S
C1898 C1897 1.387 . S
H1899 C1911 0.930 . S
H1900 C1913 0.930 . S
H1901 C1914 0.930 . S
H1902 C1918 0.959 . S
H1903 C1918 0.956 1_655 S
H1904 C1918 0.961 . S
H1905 C1919 0.960 . S
H1906 C1919 0.961 1_655 S
H1907 C1919 0.959 . S
H1908 C1922 0.929 . S
H1909 C1923 0.931 . S
H1910 C1925 0.930 . S
C1911 H1899 0.930 . S
C1911 C1912 1.399 . S
C1911 C1916 1.399 . S
C1912 C1911 1.399 . S
C1912 C1913 1.376 . S
C1913 H1900 0.930 . S
C1913 C1912 1.376 . S
C1913 C1914 1.388 . S
C1914 H1901 0.930 . S
C1914 C1913 1.388 . S
C1914 C1915 1.390 . S
C1915 C1914 1.390 . S
C1915 C1916 1.394 . S
C1915 C1921 1.465 . S
C1916 C1911 1.399 . S
C1916 C1915 1.394 . S
C1916 C1917 1.516 . S
C1917 C1916 1.516 . S
C1917 C1918 1.502 . S
C1917 C1919 1.561 . S
C1917 C1920 1.526 1_455 S
C1918 H1902 0.959 . S
C1918 H1903 0.956 1_455 S
C1918 H1904 0.961 . S
C1918 C1917 1.502 . S
C1919 H1905 0.960 . S
C1919 H1906 0.961 1_455 S
C1919 H1907 0.959 . S
C1919 C1917 1.561 . S
C1920 C1917 1.526 1_655 S
C1920 C1921 1.396 1_655 S
C1920 C1925 1.390 . S
C1921 C1915 1.465 . S
C1921 C1920 1.396 1_455 S
C1921 C1922 1.399 1_455 S
C1922 H1908 0.929 . S
C1922 C1921 1.399 1_655 S
C1922 C1923 1.385 . S
C1923 H1909 0.931 . S
C1923 C1922 1.385 . S
C1923 C1924 1.389 . S
C1924 C1923 1.389 . S
C1924 C1925 1.387 . S
C1925 H1910 0.930 . S
C1925 C1920 1.390 . S
C1925 C1924 1.387 . S
H1926 C1938 0.930 . S
H1927 C1940 0.930 . S
H1928 C1941 0.930 . S
H1929 C1945 0.959 . S
H1930 C1945 0.959 . S
H1931 C1945 0.961 . S
H1932 C1946 0.960 . S
H1933 C1946 0.961 . S
H1934 C1946 0.959 . S
H1935 C1949 0.929 . S
H1936 C1950 0.931 . S
H1937 C1952 0.930 . S
C1938 H1926 0.930 . S
C1938 C1939 1.399 . S
C1938 C1943 1.399 . S
C1939 C1938 1.399 . S
C1939 C1940 1.376 . S
C1940 H1927 0.930 . S
C1940 C1939 1.376 . S
C1940 C1941 1.388 . S
C1941 H1928 0.930 . S
C1941 C1940 1.388 . S
C1941 C1942 1.390 . S
C1942 C1941 1.390 . S
C1942 C1943 1.394 . S
C1942 C1948 1.465 . S
C1943 C1938 1.399 . S
C1943 C1942 1.394 . S
C1943 C1944 1.516 . S
C1944 C1943 1.516 . S
C1944 C1945 1.502 . S
C1944 C1946 1.561 . S
C1944 C1947 1.526 . S
C1945 H1929 0.959 . S
C1945 H1930 0.959 . S
C1945 H1931 0.961 . S
C1945 C1944 1.502 . S
C1946 H1932 0.960 . S
C1946 H1933 0.961 . S
C1946 H1934 0.959 . S
C1946 C1944 1.561 . S
C1947 C1944 1.526 . S
C1947 C1948 1.396 . S
C1947 C1952 1.390 . S
C1948 C1942 1.465 . S
C1948 C1947 1.396 . S
C1948 C1949 1.399 . S
C1949 H1935 0.929 . S
C1949 C1948 1.399 . S
C1949 C1950 1.385 . S
C1950 H1936 0.931 . S
C1950 C1949 1.385 . S
C1950 C1951 1.389 . S
C1951 C1950 1.389 . S
C1951 C1952 1.387 . S
C1952 H1937 0.930 . S
C1952 C1947 1.390 . S
C1952 C1951 1.387 . S
H1953 C1965 0.930 . S
H1954 C1967 0.930 . S
H1955 C1968 0.930 . S
H1956 C1972 0.959 . S
H1957 C1972 0.959 . S
H1958 C1972 0.961 . S
H1959 C1973 0.960 1_545 S
H1960 C1973 0.961 . S
H1961 C1973 0.959 . S
H1962 C1976 0.929 . S
H1963 C1977 0.931 . S
H1964 C1979 0.930 . S
C1965 H1953 0.930 . S
C1965 C1966 1.399 . S
C1965 C1970 1.399 . S
C1966 C1965 1.399 . S
C1966 C1967 1.376 . S
C1967 H1954 0.930 . S
C1967 C1966 1.376 . S
C1967 C1968 1.388 . S
C1968 H1955 0.930 . S
C1968 C1967 1.388 . S
C1968 C1969 1.390 1_545 S
C1969 C1968 1.390 1_565 S
C1969 C1970 1.394 1_565 S
C1969 C1975 1.465 . S
C1970 C1965 1.399 . S
C1970 C1969 1.394 1_545 S
C1970 C1971 1.516 1_545 S
C1971 C1970 1.516 1_565 S
C1971 C1972 1.502 . S
C1971 C1973 1.561 . S
C1971 C1974 1.526 . S
C1972 H1956 0.959 . S
C1972 H1957 0.959 . S
C1972 H1958 0.961 . S
C1972 C1971 1.502 . S
C1973 H1959 0.960 1_565 S
C1973 H1960 0.961 . S
C1973 H1961 0.959 . S
C1973 C1971 1.561 . S
C1974 C1971 1.526 . S
C1974 C1975 1.396 . S
C1974 C1979 1.390 . S
C1975 C1969 1.465 . S
C1975 C1974 1.396 . S
C1975 C1976 1.399 . S
C1976 H1962 0.929 . S
C1976 C1975 1.399 . S
C1976 C1977 1.385 . S
C1977 H1963 0.931 . S
C1977 C1976 1.385 . S
C1977 C1978 1.389 . S
C1978 C1977 1.389 . S
C1978 C1979 1.387 . S
C1979 H1964 0.930 . S
C1979 C1974 1.390 . S
C1979 C1978 1.387 . S
H1980 C1992 0.930 . S
H1981 C1994 0.930 . S
H1982 C1995 0.930 . S
H1983 C1999 0.959 . S
H1984 C1999 0.959 . S
H1985 C1999 0.961 . S
H1986 C2000 0.960 . S
H1987 C2000 0.961 . S
H1988 C2000 0.959 . S
H1989 C2003 0.929 . S
H1990 C2004 0.931 . S
H1991 C2006 0.930 . S
C1992 H1980 0.930 . S
C1992 C1993 1.399 . S
C1992 C1997 1.399 . S
C1993 C1992 1.399 . S
C1993 C1994 1.376 . S
C1994 H1981 0.930 . S
C1994 C1993 1.376 . S
C1994 C1995 1.388 . S
C1995 H1982 0.930 . S
C1995 C1994 1.388 . S
C1995 C1996 1.378 1_655 S
C1996 C1995 1.378 1_455 S
C1996 C1997 1.362 1_455 S
C1996 C2002 1.508 . S
C1997 C1992 1.399 . S
C1997 C1996 1.362 1_655 S
C1997 C1998 1.516 1_655 S
C1998 C1997 1.516 1_455 S
C1998 C1999 1.502 . S
C1998 C2000 1.561 . S
C1998 C2001 1.526 . S
C1999 H1983 0.959 . S
C1999 H1984 0.959 . S
C1999 H1985 0.961 . S
C1999 C1998 1.502 . S
C2000 H1986 0.960 . S
C2000 H1987 0.961 . S
C2000 H1988 0.959 . S
C2000 C1998 1.561 . S
C2001 C1998 1.526 . S
C2001 C2002 1.396 . S
C2001 C2006 1.390 . S
C2002 C1996 1.508 . S
C2002 C2001 1.396 . S
C2002 C2003 1.399 . S
C2003 H1989 0.929 . S
C2003 C2002 1.399 . S
C2003 C2004 1.385 . S
C2004 H1990 0.931 . S
C2004 C2003 1.385 . S
C2004 C2005 1.389 . S
C2005 C2004 1.389 . S
C2005 C2006 1.387 . S
C2006 H1991 0.930 . S
C2006 C2001 1.390 . S
C2006 C2005 1.387 . S
H2007 C2019 0.930 . S
H2008 C2021 0.930 . S
H2009 C2022 0.930 . S
H2010 C2026 0.959 . S
H2011 C2026 0.959 . S
H2012 C2026 0.961 . S
H2013 C2027 0.960 . S
H2014 C2027 0.961 . S
H2015 C2027 0.959 . S
H2016 C2030 0.929 . S
H2017 C2031 0.931 . S
H2018 C2033 0.930 . S
C2019 H2007 0.930 . S
C2019 C2020 1.399 . S
C2019 C2024 1.399 . S
C2020 C2019 1.399 . S
C2020 C2021 1.376 . S
C2021 H2008 0.930 . S
C2021 C2020 1.376 . S
C2021 C2022 1.388 . S
C2022 H2009 0.930 . S
C2022 C2021 1.388 . S
C2022 C2023 1.390 . S
C2023 C2022 1.390 . S
C2023 C2024 1.394 . S
C2023 C2029 1.465 . S
C2024 C2019 1.399 . S
C2024 C2023 1.394 . S
C2024 C2025 1.516 . S
C2025 C2024 1.516 . S
C2025 C2026 1.502 . S
C2025 C2027 1.561 . S
C2025 C2028 1.526 . S
C2026 H2010 0.959 . S
C2026 H2011 0.959 . S
C2026 H2012 0.961 . S
C2026 C2025 1.502 . S
C2027 H2013 0.960 . S
C2027 H2014 0.961 . S
C2027 H2015 0.959 . S
C2027 C2025 1.561 . S
C2028 C2025 1.526 . S
C2028 C2029 1.396 . S
C2028 C2033 1.390 . S
C2029 C2023 1.465 . S
C2029 C2028 1.396 . S
C2029 C2030 1.399 . S
C2030 H2016 0.929 . S
C2030 C2029 1.399 . S
C2030 C2031 1.385 . S
C2031 H2017 0.931 . S
C2031 C2030 1.385 . S
C2031 C2032 1.389 . S
C2032 C2031 1.389 . S
C2032 C2033 1.387 . S
C2033 H2018 0.930 . S
C2033 C2028 1.390 . S
C2033 C2032 1.387 . S
H2034 C2046 0.930 . S
H2035 C2048 0.930 . S
H2036 C2049 0.930 . S
H2037 C2053 0.959 . S
H2038 C2053 0.959 . S
H2039 C2053 0.961 . S
H2040 C2054 0.960 1_565 S
H2041 C2054 0.961 . S
H2042 C2054 0.959 . S
H2043 C2057 0.929 . S
H2044 C2058 0.931 . S
H2045 C2060 0.930 . S
C2046 H2034 0.930 . S
C2046 C2047 1.399 . S
C2046 C2051 1.399 . S
C2047 C2046 1.399 . S
C2047 C2048 1.376 . S
C2048 H2035 0.930 . S
C2048 C2047 1.376 . S
C2048 C2049 1.388 . S
C2049 H2036 0.930 . S
C2049 C2048 1.388 . S
C2049 C2050 1.390 1_565 S
C2050 C2049 1.390 1_545 S
C2050 C2051 1.394 1_545 S
C2050 C2056 1.465 . S
C2051 C2046 1.399 . S
C2051 C2050 1.394 1_565 S
C2051 C2052 1.516 1_565 S
C2052 C2051 1.516 1_545 S
C2052 C2053 1.502 . S
C2052 C2054 1.561 . S
C2052 C2055 1.526 . S
C2053 H2037 0.959 . S
C2053 H2038 0.959 . S
C2053 H2039 0.961 . S
C2053 C2052 1.502 . S
C2054 H2040 0.960 1_545 S
C2054 H2041 0.961 . S
C2054 H2042 0.959 . S
C2054 C2052 1.561 . S
C2055 C2052 1.526 . S
C2055 C2056 1.396 . S
C2055 C2060 1.390 . S
C2056 C2050 1.465 . S
C2056 C2055 1.396 . S
C2056 C2057 1.399 . S
C2057 H2043 0.929 . S
C2057 C2056 1.399 . S
C2057 C2058 1.385 . S
C2058 H2044 0.931 . S
C2058 C2057 1.385 . S
C2058 C2059 1.389 . S
C2059 C2058 1.389 . S
C2059 C2060 1.387 . S
C2060 H2045 0.930 . S
C2060 C2055 1.390 . S
C2060 C2059 1.387 . S
H2061 C2073 0.930 . S
H2062 C2075 0.930 . S
H2063 C2076 0.930 . S
H2064 C2080 0.959 . S
H2065 C2080 0.959 1_455 S
H2066 C2080 0.961 . S
H2067 C2081 0.960 . S
H2068 C2081 0.961 1_455 S
H2069 C2081 0.959 . S
H2070 C2084 0.929 . S
H2071 C2085 0.931 . S
H2072 C2087 0.930 . S
C2073 H2061 0.930 . S
C2073 C2074 1.399 . S
C2073 C2078 1.399 . S
C2074 C2073 1.399 . S
C2074 C2075 1.376 . S
C2075 H2062 0.930 . S
C2075 C2074 1.376 . S
C2075 C2076 1.388 . S
C2076 H2063 0.930 . S
C2076 C2075 1.388 . S
C2076 C2077 1.390 . S
C2077 C2076 1.390 . S
C2077 C2078 1.394 . S
C2077 C2083 1.465 . S
C2078 C2073 1.399 . S
C2078 C2077 1.394 . S
C2078 C2079 1.516 . S
C2079 C2078 1.516 . S
C2079 C2080 1.502 . S
C2079 C2081 1.561 . S
C2079 C2082 1.526 1_655 S
C2080 H2064 0.959 . S
C2080 H2065 0.959 1_655 S
C2080 H2066 0.961 . S
C2080 C2079 1.502 . S
C2081 H2067 0.960 . S
C2081 H2068 0.961 1_655 S
C2081 H2069 0.959 . S
C2081 C2079 1.561 . S
C2082 C2079 1.526 1_455 S
C2082 C2083 1.396 1_455 S
C2082 C2087 1.390 . S
C2083 C2077 1.465 . S
C2083 C2082 1.396 1_655 S
C2083 C2084 1.399 1_655 S
C2084 H2070 0.929 . S
C2084 C2083 1.399 1_455 S
C2084 C2085 1.385 . S
C2085 H2071 0.931 . S
C2085 C2084 1.385 . S
C2085 C2086 1.389 . S
C2086 C2085 1.389 . S
C2086 C2087 1.387 . S
C2087 H2072 0.930 . S
C2087 C2082 1.390 . S
C2087 C2086 1.387 . S
H2088 C2100 0.930 . S
H2089 C2102 0.930 . S
H2090 C2103 0.930 . S
H2091 C2107 0.959 . S
H2092 C2107 0.959 . S
H2093 C2107 0.961 . S
H2094 C2108 0.960 . S
H2095 C2108 0.961 . S
H2096 C2108 0.959 . S
H2097 C2111 0.929 . S
H2098 C2112 0.931 . S
H2099 C2114 0.930 . S
C2100 H2088 0.930 . S
C2100 C2101 1.399 . S
C2100 C2105 1.399 . S
C2101 C2100 1.399 . S
C2101 C2102 1.376 . S
C2102 H2089 0.930 . S
C2102 C2101 1.376 . S
C2102 C2103 1.388 . S
C2103 H2090 0.930 . S
C2103 C2102 1.388 . S
C2103 C2104 1.390 . S
C2104 C2103 1.390 . S
C2104 C2105 1.394 . S
C2104 C2110 1.465 . S
C2105 C2100 1.399 . S
C2105 C2104 1.394 . S
C2105 C2106 1.516 . S
C2106 C2105 1.516 . S
C2106 C2107 1.502 . S
C2106 C2108 1.561 . S
C2106 C2109 1.526 . S
C2107 H2091 0.959 . S
C2107 H2092 0.959 . S
C2107 H2093 0.961 . S
C2107 C2106 1.502 . S
C2108 H2094 0.960 . S
C2108 H2095 0.961 . S
C2108 H2096 0.959 . S
C2108 C2106 1.561 . S
C2109 C2106 1.526 . S
C2109 C2110 1.396 . S
C2109 C2114 1.390 . S
C2110 C2104 1.465 . S
C2110 C2109 1.396 . S
C2110 C2111 1.399 . S
C2111 H2097 0.929 . S
C2111 C2110 1.399 . S
C2111 C2112 1.385 . S
C2112 H2098 0.931 . S
C2112 C2111 1.385 . S
C2112 C2113 1.389 . S
C2113 C2112 1.389 . S
C2113 C2114 1.387 . S
C2114 H2099 0.930 . S
C2114 C2109 1.390 . S
C2114 C2113 1.387 . S
H2115 C2127 0.930 . S
H2116 C2129 0.930 . S
H2117 C2130 0.930 . S
H2118 C2134 0.959 . S
H2119 C2134 0.959 . S
H2120 C2134 0.961 . S
H2121 C2135 0.960 . S
H2122 C2135 0.961 . S
H2123 C2135 0.959 . S
H2124 C2138 0.929 . S
H2125 C2139 0.931 . S
H2126 C2141 0.930 . S
C2127 H2115 0.930 . S
C2127 C2128 1.399 . S
C2127 C2132 1.399 . S
C2128 C2127 1.399 . S
C2128 C2129 1.376 . S
C2129 H2116 0.930 . S
C2129 C2128 1.376 . S
C2129 C2130 1.388 . S
C2130 H2117 0.930 . S
C2130 C2129 1.388 . S
C2130 C2131 1.390 . S
C2131 C2130 1.390 . S
C2131 C2132 1.394 . S
C2131 C2137 1.465 . S
C2132 C2127 1.399 . S
C2132 C2131 1.394 . S
C2132 C2133 1.516 . S
C2133 C2132 1.516 . S
C2133 C2134 1.502 . S
C2133 C2135 1.561 . S
C2133 C2136 1.526 . S
C2134 H2118 0.959 . S
C2134 H2119 0.959 . S
C2134 H2120 0.961 . S
C2134 C2133 1.502 . S
C2135 H2121 0.960 . S
C2135 H2122 0.961 . S
C2135 H2123 0.959 . S
C2135 C2133 1.561 . S
C2136 C2133 1.526 . S
C2136 C2137 1.396 . S
C2136 C2141 1.390 . S
C2137 C2131 1.465 . S
C2137 C2136 1.396 . S
C2137 C2138 1.399 . S
C2138 H2124 0.929 . S
C2138 C2137 1.399 . S
C2138 C2139 1.385 . S
C2139 H2125 0.931 . S
C2139 C2138 1.385 . S
C2139 C2140 1.389 . S
C2140 C2139 1.389 . S
C2140 C2141 1.387 . S
C2141 H2126 0.930 . S
C2141 C2136 1.390 . S
C2141 C2140 1.387 . S
H2142 C2154 0.930 . S
H2143 C2156 0.930 . S
H2144 C2157 0.930 . S
H2145 C2161 0.959 . S
H2146 C2161 0.959 . S
H2147 C2161 0.961 . S
H2148 C2162 0.960 . S
H2149 C2162 0.961 . S
H2150 C2162 0.959 . S
H2151 C2165 0.929 . S
H2152 C2166 0.931 . S
H2153 C2168 0.930 . S
C2154 H2142 0.930 . S
C2154 C2155 1.399 . S
C2154 C2159 1.399 . S
C2155 C2154 1.399 . S
C2155 C2156 1.376 . S
C2156 H2143 0.930 . S
C2156 C2155 1.376 . S
C2156 C2157 1.388 . S
C2157 H2144 0.930 . S
C2157 C2156 1.388 . S
C2157 C2158 1.390 . S
C2158 C2157 1.390 . S
C2158 C2159 1.394 . S
C2158 C2164 1.465 . S
C2159 C2154 1.399 . S
C2159 C2158 1.394 . S
C2159 C2160 1.516 . S
C2160 C2159 1.516 . S
C2160 C2161 1.502 . S
C2160 C2162 1.561 . S
C2160 C2163 1.526 . S
C2161 H2145 0.959 . S
C2161 H2146 0.959 . S
C2161 H2147 0.961 . S
C2161 C2160 1.502 . S
C2162 H2148 0.960 . S
C2162 H2149 0.961 . S
C2162 H2150 0.959 . S
C2162 C2160 1.561 . S
C2163 C2160 1.526 . S
C2163 C2164 1.396 . S
C2163 C2168 1.390 . S
C2164 C2158 1.465 . S
C2164 C2163 1.396 . S
C2164 C2165 1.399 . S
C2165 H2151 0.929 . S
C2165 C2164 1.399 . S
C2165 C2166 1.385 . S
C2166 H2152 0.931 . S
C2166 C2165 1.385 . S
C2166 C2167 1.389 . S
C2167 C2166 1.389 . S
C2167 C2168 1.387 . S
C2168 H2153 0.930 . S
C2168 C2163 1.390 . S
C2168 C2167 1.387 . S
H2169 C2181 0.930 . S
H2170 C2183 0.930 . S
H2171 C2184 0.930 . S
H2172 C2188 0.959 . S
H2173 C2188 0.959 . S
H2174 C2188 0.961 . S
H2175 C2189 0.960 . S
H2176 C2189 0.961 . S
H2177 C2189 0.959 . S
H2178 C2192 0.929 . S
H2179 C2193 0.931 . S
H2180 C2195 0.930 . S
C2181 H2169 0.930 . S
C2181 C2182 1.399 . S
C2181 C2186 1.399 . S
C2182 C2181 1.399 . S
C2182 C2183 1.376 . S
C2183 H2170 0.930 . S
C2183 C2182 1.376 . S
C2183 C2184 1.388 . S
C2184 H2171 0.930 . S
C2184 C2183 1.388 . S
C2184 C2185 1.390 . S
C2185 C2184 1.390 . S
C2185 C2186 1.394 . S
C2185 C2191 1.465 . S
C2186 C2181 1.399 . S
C2186 C2185 1.394 . S
C2186 C2187 1.516 . S
C2187 C2186 1.516 . S
C2187 C2188 1.502 . S
C2187 C2189 1.561 . S
C2187 C2190 1.526 . S
C2188 H2172 0.959 . S
C2188 H2173 0.959 . S
C2188 H2174 0.961 . S
C2188 C2187 1.502 . S
C2189 H2175 0.960 . S
C2189 H2176 0.961 . S
C2189 H2177 0.959 . S
C2189 C2187 1.561 . S
C2190 C2187 1.526 . S
C2190 C2191 1.396 . S
C2190 C2195 1.390 . S
C2191 C2185 1.465 . S
C2191 C2190 1.396 . S
C2191 C2192 1.399 . S
C2192 H2178 0.929 . S
C2192 C2191 1.399 . S
C2192 C2193 1.385 . S
C2193 H2179 0.931 . S
C2193 C2192 1.385 . S
C2193 C2194 1.389 . S
C2194 C2193 1.389 . S
C2194 C2195 1.387 . S
C2195 H2180 0.930 . S
C2195 C2190 1.390 . S
C2195 C2194 1.387 . S
H2196 C2208 0.930 . S
H2197 C2210 0.930 . S
H2198 C2211 0.930 . S
H2199 C2215 0.959 . S
H2200 C2215 0.959 . S
H2201 C2215 0.961 . S
H2202 C2216 0.960 . S
H2203 C2216 0.961 . S
H2204 C2216 0.959 . S
H2205 C2219 0.929 . S
H2206 C2220 0.931 . S
H2207 C2222 0.930 . S
C2208 H2196 0.930 . S
C2208 C2209 1.399 . S
C2208 C2213 1.399 . S
C2209 C2208 1.399 . S
C2209 C2210 1.376 . S
C2210 H2197 0.930 . S
C2210 C2209 1.376 . S
C2210 C2211 1.388 . S
C2211 H2198 0.930 . S
C2211 C2210 1.388 . S
C2211 C2212 1.390 . S
C2212 C2211 1.390 . S
C2212 C2213 1.394 . S
C2212 C2218 1.465 . S
C2213 C2208 1.399 . S
C2213 C2212 1.394 . S
C2213 C2214 1.516 . S
C2214 C2213 1.516 . S
C2214 C2215 1.502 . S
C2214 C2216 1.561 . S
C2214 C2217 1.526 . S
C2215 H2199 0.959 . S
C2215 H2200 0.959 . S
C2215 H2201 0.961 . S
C2215 C2214 1.502 . S
C2216 H2202 0.960 . S
C2216 H2203 0.961 . S
C2216 H2204 0.959 . S
C2216 C2214 1.561 . S
C2217 C2214 1.526 . S
C2217 C2218 1.396 . S
C2217 C2222 1.390 . S
C2218 C2212 1.465 . S
C2218 C2217 1.396 . S
C2218 C2219 1.399 . S
C2219 H2205 0.929 . S
C2219 C2218 1.399 . S
C2219 C2220 1.385 . S
C2220 H2206 0.931 . S
C2220 C2219 1.385 . S
C2220 C2221 1.389 . S
C2221 C2220 1.389 . S
C2221 C2222 1.387 . S
C2222 H2207 0.930 . S
C2222 C2217 1.390 . S
C2222 C2221 1.387 . S
H2223 C2235 0.930 . S
H2224 C2237 0.930 . S
H2225 C2238 0.930 . S
H2226 C2242 0.959 . S
H2227 C2242 0.959 . S
H2228 C2242 0.961 . S
H2229 C2243 0.960 . S
H2230 C2243 0.961 . S
H2231 C2243 0.959 . S
H2232 C2246 0.929 . S
H2233 C2247 0.931 . S
H2234 C2249 0.930 . S
C2235 H2223 0.930 . S
C2235 C2236 1.399 . S
C2235 C2240 1.399 . S
C2236 C2235 1.399 . S
C2236 C2237 1.376 . S
C2237 H2224 0.930 . S
C2237 C2236 1.376 . S
C2237 C2238 1.388 . S
C2238 H2225 0.930 . S
C2238 C2237 1.388 . S
C2238 C2239 1.390 . S
C2239 C2238 1.390 . S
C2239 C2240 1.394 . S
C2239 C2245 1.465 . S
C2240 C2235 1.399 . S
C2240 C2239 1.394 . S
C2240 C2241 1.516 . S
C2241 C2240 1.516 . S
C2241 C2242 1.502 . S
C2241 C2243 1.561 . S
C2241 C2244 1.526 . S
C2242 H2226 0.959 . S
C2242 H2227 0.959 . S
C2242 H2228 0.961 . S
C2242 C2241 1.502 . S
C2243 H2229 0.960 . S
C2243 H2230 0.961 . S
C2243 H2231 0.959 . S
C2243 C2241 1.561 . S
C2244 C2241 1.526 . S
C2244 C2245 1.396 . S
C2244 C2249 1.390 . S
C2245 C2239 1.465 . S
C2245 C2244 1.396 . S
C2245 C2246 1.399 . S
C2246 H2232 0.929 . S
C2246 C2245 1.399 . S
C2246 C2247 1.385 . S
C2247 H2233 0.931 . S
C2247 C2246 1.385 . S
C2247 C2248 1.389 . S
C2248 C2247 1.389 . S
C2248 C2249 1.387 . S
C2249 H2234 0.930 . S
C2249 C2244 1.390 . S
C2249 C2248 1.387 . S
H2250 C2262 0.930 . S
H2251 C2264 0.930 . S
H2252 C2265 0.930 . S
H2253 C2269 0.959 . S
H2254 C2269 0.959 . S
H2255 C2269 0.961 . S
H2256 C2270 0.960 . S
H2257 C2270 0.961 . S
H2258 C2270 0.959 . S
H2259 C2273 0.929 . S
H2260 C2274 0.931 . S
H2261 C2276 0.930 . S
C2262 H2250 0.930 . S
C2262 C2263 1.399 . S
C2262 C2267 1.399 . S
C2263 C2262 1.399 . S
C2263 C2264 1.376 . S
C2264 H2251 0.930 . S
C2264 C2263 1.376 . S
C2264 C2265 1.388 . S
C2265 H2252 0.930 . S
C2265 C2264 1.388 . S
C2265 C2266 1.390 . S
C2266 C2265 1.390 . S
C2266 C2267 1.394 . S
C2266 C2272 1.465 . S
C2267 C2262 1.399 . S
C2267 C2266 1.394 . S
C2267 C2268 1.516 . S
C2268 C2267 1.516 . S
C2268 C2269 1.502 . S
C2268 C2270 1.561 . S
C2268 C2271 1.526 . S
C2269 H2253 0.959 . S
C2269 H2254 0.959 . S
C2269 H2255 0.961 . S
C2269 C2268 1.502 . S
C2270 H2256 0.960 . S
C2270 H2257 0.961 . S
C2270 H2258 0.959 . S
C2270 C2268 1.561 . S
C2271 C2268 1.526 . S
C2271 C2272 1.396 . S
C2271 C2276 1.390 . S
C2272 C2266 1.465 . S
C2272 C2271 1.396 . S
C2272 C2273 1.399 . S
C2273 H2259 0.929 . S
C2273 C2272 1.399 . S
C2273 C2274 1.385 . S
C2274 H2260 0.931 . S
C2274 C2273 1.385 . S
C2274 C2275 1.389 . S
C2275 C2274 1.389 . S
C2275 C2276 1.387 . S
C2276 H2261 0.930 . S
C2276 C2271 1.390 . S
C2276 C2275 1.387 . S
H2277 C2289 0.930 . S
H2278 C2291 0.930 . S
H2279 C2292 0.930 . S
H2280 C2296 0.959 . S
H2281 C2296 0.959 . S
H2282 C2296 0.961 . S
H2283 C2297 0.960 . S
H2284 C2297 0.961 . S
H2285 C2297 0.959 . S
H2286 C2300 0.929 . S
H2287 C2301 0.931 . S
H2288 C2303 0.930 . S
C2289 H2277 0.930 . S
C2289 C2290 1.399 . S
C2289 C2294 1.399 . S
C2290 C2289 1.399 . S
C2290 C2291 1.376 . S
C2291 H2278 0.930 . S
C2291 C2290 1.376 . S
C2291 C2292 1.388 . S
C2292 H2279 0.930 . S
C2292 C2291 1.388 . S
C2292 C2293 1.390 . S
C2293 C2292 1.390 . S
C2293 C2294 1.394 . S
C2293 C2299 1.465 . S
C2294 C2289 1.399 . S
C2294 C2293 1.394 . S
C2294 C2295 1.516 . S
C2295 C2294 1.516 . S
C2295 C2296 1.502 . S
C2295 C2297 1.561 . S
C2295 C2298 1.526 . S
C2296 H2280 0.959 . S
C2296 H2281 0.959 . S
C2296 H2282 0.961 . S
C2296 C2295 1.502 . S
C2297 H2283 0.960 . S
C2297 H2284 0.961 . S
C2297 H2285 0.959 . S
C2297 C2295 1.561 . S
C2298 C2295 1.526 . S
C2298 C2299 1.396 . S
C2298 C2303 1.390 . S
C2299 C2293 1.465 . S
C2299 C2298 1.396 . S
C2299 C2300 1.399 . S
C2300 H2286 0.929 . S
C2300 C2299 1.399 . S
C2300 C2301 1.385 . S
C2301 H2287 0.931 . S
C2301 C2300 1.385 . S
C2301 C2302 1.389 . S
C2302 C2301 1.389 . S
C2302 C2303 1.387 . S
C2303 H2288 0.930 . S
C2303 C2298 1.390 . S
C2303 C2302 1.387 . S
H2304 C2316 0.930 . S
H2305 C2318 0.930 . S
H2306 C2319 0.930 . S
H2307 C2323 0.959 . S
H2308 C2323 0.959 . S
H2309 C2323 0.961 . S
H2310 C2324 0.960 . S
H2311 C2324 0.961 . S
H2312 C2324 0.959 . S
H2313 C2327 0.929 . S
H2314 C2328 0.931 . S
H2315 C2330 0.930 . S
C2316 H2304 0.930 . S
C2316 C2317 1.399 . S
C2316 C2321 1.399 . S
C2317 C2316 1.399 . S
C2317 C2318 1.376 . S
C2318 H2305 0.930 . S
C2318 C2317 1.376 . S
C2318 C2319 1.388 . S
C2319 H2306 0.930 . S
C2319 C2318 1.388 . S
C2319 C2320 1.390 . S
C2320 C2319 1.390 . S
C2320 C2321 1.394 . S
C2320 C2326 1.465 . S
C2321 C2316 1.399 . S
C2321 C2320 1.394 . S
C2321 C2322 1.516 . S
C2322 C2321 1.516 . S
C2322 C2323 1.502 . S
C2322 C2324 1.561 . S
C2322 C2325 1.526 . S
C2323 H2307 0.959 . S
C2323 H2308 0.959 . S
C2323 H2309 0.961 . S
C2323 C2322 1.502 . S
C2324 H2310 0.960 . S
C2324 H2311 0.961 . S
C2324 H2312 0.959 . S
C2324 C2322 1.561 . S
C2325 C2322 1.526 . S
C2325 C2326 1.396 . S
C2325 C2330 1.390 . S
C2326 C2320 1.465 . S
C2326 C2325 1.396 . S
C2326 C2327 1.399 . S
C2327 H2313 0.929 . S
C2327 C2326 1.399 . S
C2327 C2328 1.385 . S
C2328 H2314 0.931 . S
C2328 C2327 1.385 . S
C2328 C2329 1.389 . S
C2329 C2328 1.389 . S
C2329 C2330 1.387 . S
C2330 H2315 0.930 . S
C2330 C2325 1.390 . S
C2330 C2329 1.387 . S
H2331 C2343 0.930 . S
H2332 C2345 0.907 1_554 S
H2333 C2346 0.930 1_554 S
H2334 C2350 0.959 . S
H2335 C2350 0.959 . S
H2336 C2350 0.961 . S
H2337 C2351 0.960 . S
H2338 C2351 0.961 . S
H2339 C2351 0.959 . S
H2340 C2354 0.929 1_554 S
H2341 C2355 0.931 1_554 S
H2342 C2357 0.930 . S
C2343 H2331 0.930 . S
C2343 C2344 1.399 . S
C2343 C2348 1.399 . S
C2344 C2343 1.399 . S
C2344 C2345 1.376 . S
C2345 H2332 0.907 1_556 S
C2345 C2344 1.376 . S
C2345 C2346 1.388 . S
C2346 H2333 0.930 1_556 S
C2346 C2345 1.388 . S
C2346 C2347 1.390 . S
C2347 C2346 1.390 . S
C2347 C2348 1.394 . S
C2347 C2353 1.465 . S
C2348 C2343 1.399 . S
C2348 C2347 1.394 . S
C2348 C2349 1.516 . S
C2349 C2348 1.516 . S
C2349 C2350 1.502 . S
C2349 C2351 1.561 . S
C2349 C2352 1.526 . S
C2350 H2334 0.959 . S
C2350 H2335 0.959 . S
C2350 H2336 0.961 . S
C2350 C2349 1.502 . S
C2351 H2337 0.960 . S
C2351 H2338 0.961 . S
C2351 H2339 0.959 . S
C2351 C2349 1.561 . S
C2352 C2349 1.526 . S
C2352 C2353 1.396 . S
C2352 C2357 1.390 . S
C2353 C2347 1.465 . S
C2353 C2352 1.396 . S
C2353 C2354 1.399 . S
C2354 H2340 0.929 1_556 S
C2354 C2353 1.399 . S
C2354 C2355 1.385 . S
C2355 H2341 0.931 1_556 S
C2355 C2354 1.385 . S
C2355 C2356 1.389 . S
C2356 C2355 1.389 . S
C2356 C2357 1.387 . S
C2357 H2342 0.930 . S
C2357 C2352 1.390 . S
C2357 C2356 1.387 . S
H2358 C2370 0.930 . S
H2359 C2372 0.930 1_554 S
H2360 C2373 0.930 1_554 S
H2361 C2377 0.959 . S
H2362 C2377 0.959 . S
H2363 C2377 0.961 . S
H2364 C2378 0.960 . S
H2365 C2378 0.961 . S
H2366 C2378 0.959 . S
H2367 C2381 0.929 1_554 S
H2368 C2382 0.900 1_554 S
H2369 C2384 0.930 . S
C2370 H2358 0.930 . S
C2370 C2371 1.399 . S
C2370 C2375 1.399 . S
C2371 C2370 1.399 . S
C2371 C2372 1.376 . S
C2372 H2359 0.930 1_556 S
C2372 C2371 1.376 . S
C2372 C2373 1.388 . S
C2373 H2360 0.930 1_556 S
C2373 C2372 1.388 . S
C2373 C2374 1.390 . S
C2374 C2373 1.390 . S
C2374 C2375 1.394 . S
C2374 C2380 1.465 . S
C2375 C2370 1.399 . S
C2375 C2374 1.394 . S
C2375 C2376 1.516 . S
C2376 C2375 1.516 . S
C2376 C2377 1.502 . S
C2376 C2378 1.561 . S
C2376 C2379 1.526 . S
C2377 H2361 0.959 . S
C2377 H2362 0.959 . S
C2377 H2363 0.961 . S
C2377 C2376 1.502 . S
C2378 H2364 0.960 . S
C2378 H2365 0.961 . S
C2378 H2366 0.959 . S
C2378 C2376 1.561 . S
C2379 C2376 1.526 . S
C2379 C2380 1.396 . S
C2379 C2384 1.390 . S
C2380 C2374 1.465 . S
C2380 C2379 1.396 . S
C2380 C2381 1.399 . S
C2381 H2367 0.929 1_556 S
C2381 C2380 1.399 . S
C2381 C2382 1.385 . S
C2382 H2368 0.900 1_556 S
C2382 C2381 1.385 . S
C2382 C2383 1.389 . S
C2383 C2382 1.389 . S
C2383 C2384 1.387 . S
C2384 H2369 0.930 . S
C2384 C2379 1.390 . S
C2384 C2383 1.387 . S
H2385 C2397 0.930 . S
H2386 C2399 0.930 1_554 S
H2387 C2400 0.930 1_554 S
H2388 C2404 0.959 . S
H2389 C2404 0.959 . S
H2390 C2404 0.961 . S
H2391 C2405 0.960 . S
H2392 C2405 0.961 . S
H2393 C2405 0.959 . S
H2394 C2408 0.929 1_554 S
H2395 C2409 0.931 1_554 S
H2396 C2411 0.930 . S
C2397 H2385 0.930 . S
C2397 C2398 1.399 . S
C2397 C2402 1.399 . S
C2398 C2397 1.399 . S
C2398 C2399 1.376 . S
C2399 H2386 0.930 1_556 S
C2399 C2398 1.376 . S
C2399 C2400 1.388 . S
C2400 H2387 0.930 1_556 S
C2400 C2399 1.388 . S
C2400 C2401 1.390 . S
C2401 C2400 1.390 . S
C2401 C2402 1.394 . S
C2401 C2407 1.465 . S
C2402 C2397 1.399 . S
C2402 C2401 1.394 . S
C2402 C2403 1.516 . S
C2403 C2402 1.516 . S
C2403 C2404 1.502 . S
C2403 C2405 1.561 . S
C2403 C2406 1.526 . S
C2404 H2388 0.959 . S
C2404 H2389 0.959 . S
C2404 H2390 0.961 . S
C2404 C2403 1.502 . S
C2405 H2391 0.960 . S
C2405 H2392 0.961 . S
C2405 H2393 0.959 . S
C2405 C2403 1.561 . S
C2406 C2403 1.526 . S
C2406 C2407 1.396 . S
C2406 C2411 1.390 . S
C2407 C2401 1.465 . S
C2407 C2406 1.396 . S
C2407 C2408 1.399 . S
C2408 H2394 0.929 1_556 S
C2408 C2407 1.399 . S
C2408 C2409 1.385 . S
C2409 H2395 0.931 1_556 S
C2409 C2408 1.385 . S
C2409 C2410 1.389 . S
C2410 C2409 1.389 . S
C2410 C2411 1.387 . S
C2411 H2396 0.930 . S
C2411 C2406 1.390 . S
C2411 C2410 1.387 . S
H2412 C2424 0.930 . S
H2413 C2426 0.930 . S
H2414 C2427 0.930 . S
H2415 C2431 0.959 . S
H2416 C2431 0.959 . S
H2417 C2431 0.961 . S
H2418 C2432 0.960 . S
H2419 C2432 0.961 . S
H2420 C2432 0.959 . S
H2421 C2435 0.929 . S
H2422 C2436 0.931 . S
H2423 C2438 0.930 . S
C2424 H2412 0.930 . S
C2424 C2425 1.399 . S
C2424 C2429 1.399 . S
C2425 C2424 1.399 . S
C2425 C2426 1.376 . S
C2426 H2413 0.930 . S
C2426 C2425 1.376 . S
C2426 C2427 1.388 . S
C2427 H2414 0.930 . S
C2427 C2426 1.388 . S
C2427 C2428 1.390 . S
C2428 C2427 1.390 . S
C2428 C2429 1.394 . S
C2428 C2434 1.465 . S
C2429 C2424 1.399 . S
C2429 C2428 1.394 . S
C2429 C2430 1.516 . S
C2430 C2429 1.516 . S
C2430 C2431 1.502 . S
C2430 C2432 1.561 . S
C2430 C2433 1.526 . S
C2431 H2415 0.959 . S
C2431 H2416 0.959 . S
C2431 H2417 0.961 . S
C2431 C2430 1.502 . S
C2432 H2418 0.960 . S
C2432 H2419 0.961 . S
C2432 H2420 0.959 . S
C2432 C2430 1.561 . S
C2433 C2430 1.526 . S
C2433 C2434 1.396 . S
C2433 C2438 1.390 . S
C2434 C2428 1.465 . S
C2434 C2433 1.396 . S
C2434 C2435 1.399 . S
C2435 H2421 0.929 . S
C2435 C2434 1.399 . S
C2435 C2436 1.385 . S
C2436 H2422 0.931 . S
C2436 C2435 1.385 . S
C2436 C2437 1.389 . S
C2437 C2436 1.389 . S
C2437 C2438 1.387 . S
C2438 H2423 0.930 . S
C2438 C2433 1.390 . S
C2438 C2437 1.387 . S
H2439 C2451 0.930 . S
H2440 C2453 0.930 . S
H2441 C2454 0.930 . S
H2442 C2458 0.959 . S
H2443 C2458 0.959 . S
H2444 C2458 0.961 . S
H2445 C2459 0.960 . S
H2446 C2459 0.961 . S
H2447 C2459 0.959 . S
H2448 C2462 0.929 . S
H2449 C2463 0.931 . S
H2450 C2465 0.930 . S
C2451 H2439 0.930 . S
C2451 C2452 1.399 . S
C2451 C2456 1.399 . S
C2452 C2451 1.399 . S
C2452 C2453 1.376 . S
C2453 H2440 0.930 . S
C2453 C2452 1.376 . S
C2453 C2454 1.388 . S
C2454 H2441 0.930 . S
C2454 C2453 1.388 . S
C2454 C2455 1.390 . S
C2455 C2454 1.390 . S
C2455 C2456 1.394 . S
C2455 C2461 1.465 . S
C2456 C2451 1.399 . S
C2456 C2455 1.394 . S
C2456 C2457 1.516 . S
C2457 C2456 1.516 . S
C2457 C2458 1.502 . S
C2457 C2459 1.561 . S
C2457 C2460 1.526 . S
C2458 H2442 0.959 . S
C2458 H2443 0.959 . S
C2458 H2444 0.961 . S
C2458 C2457 1.502 . S
C2459 H2445 0.960 . S
C2459 H2446 0.961 . S
C2459 H2447 0.959 . S
C2459 C2457 1.561 . S
C2460 C2457 1.526 . S
C2460 C2461 1.396 . S
C2460 C2465 1.390 . S
C2461 C2455 1.465 . S
C2461 C2460 1.396 . S
C2461 C2462 1.399 . S
C2462 H2448 0.929 . S
C2462 C2461 1.399 . S
C2462 C2463 1.385 . S
C2463 H2449 0.931 . S
C2463 C2462 1.385 . S
C2463 C2464 1.389 . S
C2464 C2463 1.389 . S
C2464 C2465 1.387 . S
C2465 H2450 0.930 . S
C2465 C2460 1.390 . S
C2465 C2464 1.387 . S
H2466 C2478 0.930 . S
H2467 C2480 0.930 . S
H2468 C2481 0.930 . S
H2469 C2485 0.959 . S
H2470 C2485 0.959 . S
H2471 C2485 0.961 . S
H2472 C2486 0.960 . S
H2473 C2486 0.961 . S
H2474 C2486 0.959 . S
H2475 C2489 0.929 . S
H2476 C2490 0.931 . S
H2477 C2492 0.930 . S
C2478 H2466 0.930 . S
C2478 C2479 1.399 . S
C2478 C2483 1.399 . S
C2479 C2478 1.399 . S
C2479 C2480 1.376 . S
C2480 H2467 0.930 . S
C2480 C2479 1.376 . S
C2480 C2481 1.388 . S
C2481 H2468 0.930 . S
C2481 C2480 1.388 . S
C2481 C2482 1.390 . S
C2482 C2481 1.390 . S
C2482 C2483 1.394 . S
C2482 C2488 1.465 . S
C2483 C2478 1.399 . S
C2483 C2482 1.394 . S
C2483 C2484 1.516 . S
C2484 C2483 1.516 . S
C2484 C2485 1.502 . S
C2484 C2486 1.561 . S
C2484 C2487 1.526 . S
C2485 H2469 0.959 . S
C2485 H2470 0.959 . S
C2485 H2471 0.961 . S
C2485 C2484 1.502 . S
C2486 H2472 0.960 . S
C2486 H2473 0.961 . S
C2486 H2474 0.959 . S
C2486 C2484 1.561 . S
C2487 C2484 1.526 . S
C2487 C2488 1.396 . S
C2487 C2492 1.390 . S
C2488 C2482 1.465 . S
C2488 C2487 1.396 . S
C2488 C2489 1.399 . S
C2489 H2475 0.929 . S
C2489 C2488 1.399 . S
C2489 C2490 1.385 . S
C2490 H2476 0.931 . S
C2490 C2489 1.385 . S
C2490 C2491 1.389 . S
C2491 C2490 1.389 . S
C2491 C2492 1.387 . S
C2492 H2477 0.930 . S
C2492 C2487 1.390 . S
C2492 C2491 1.387 . S
H2493 C2505 0.930 . S
H2494 C2507 0.930 . S
H2495 C2508 0.930 . S
H2496 C2512 0.959 . S
H2497 C2512 0.944 1_556 S
H2498 C2512 0.961 . S
H2499 C2513 0.960 . S
H2500 C2513 0.961 . S
H2501 C2513 0.959 . S
H2502 C2516 0.929 . S
H2503 C2517 0.931 . S
H2504 C2519 0.930 . S
C2505 H2493 0.930 . S
C2505 C2506 1.399 . S
C2505 C2510 1.399 . S
C2506 C2505 1.399 . S
C2506 C2507 1.376 . S
C2507 H2494 0.930 . S
C2507 C2506 1.376 . S
C2507 C2508 1.388 . S
C2508 H2495 0.930 . S
C2508 C2507 1.388 . S
C2508 C2509 1.390 . S
C2509 C2508 1.390 . S
C2509 C2510 1.394 . S
C2509 C2515 1.465 . S
C2510 C2505 1.399 . S
C2510 C2509 1.394 . S
C2510 C2511 1.516 . S
C2511 C2510 1.516 . S
C2511 C2512 1.502 . S
C2511 C2513 1.561 1_554 S
C2511 C2514 1.526 . S
C2512 H2496 0.959 . S
C2512 H2497 0.944 1_554 S
C2512 H2498 0.961 . S
C2512 C2511 1.502 . S
C2513 H2499 0.960 . S
C2513 H2500 0.961 . S
C2513 H2501 0.959 . S
C2513 C2511 1.561 1_556 S
C2514 C2511 1.526 . S
C2514 C2515 1.396 . S
C2514 C2519 1.390 . S
C2515 C2509 1.465 . S
C2515 C2514 1.396 . S
C2515 C2516 1.399 . S
C2516 H2502 0.929 . S
C2516 C2515 1.399 . S
C2516 C2517 1.385 . S
C2517 H2503 0.931 . S
C2517 C2516 1.385 . S
C2517 C2518 1.389 . S
C2518 C2517 1.389 . S
C2518 C2519 1.387 . S
C2519 H2504 0.930 . S
C2519 C2514 1.390 . S
C2519 C2518 1.387 . S
H2520 C2532 0.930 . S
H2521 C2534 0.930 1_556 S
H2522 C2535 0.930 1_556 S
H2523 C2539 0.959 . S
H2524 C2539 0.959 . S
H2525 C2539 0.961 . S
H2526 C2540 0.960 . S
H2527 C2540 0.961 . S
H2528 C2540 0.959 . S
H2529 C2543 0.929 1_556 S
H2530 C2544 0.931 1_556 S
H2531 C2546 0.930 . S
C2532 H2520 0.930 . S
C2532 C2533 1.399 . S
C2532 C2537 1.399 . S
C2533 C2532 1.399 . S
C2533 C2534 1.376 . S
C2534 H2521 0.930 1_554 S
C2534 C2533 1.376 . S
C2534 C2535 1.388 . S
C2535 H2522 0.930 1_554 S
C2535 C2534 1.388 . S
C2535 C2536 1.390 . S
C2536 C2535 1.390 . S
C2536 C2537 1.394 . S
C2536 C2542 1.465 . S
C2537 C2532 1.399 . S
C2537 C2536 1.394 . S
C2537 C2538 1.516 . S
C2538 C2537 1.516 . S
C2538 C2539 1.502 . S
C2538 C2540 1.561 . S
C2538 C2541 1.526 . S
C2539 H2523 0.959 . S
C2539 H2524 0.959 . S
C2539 H2525 0.961 . S
C2539 C2538 1.502 . S
C2540 H2526 0.960 . S
C2540 H2527 0.961 . S
C2540 H2528 0.959 . S
C2540 C2538 1.561 . S
C2541 C2538 1.526 . S
C2541 C2542 1.396 . S
C2541 C2546 1.390 . S
C2542 C2536 1.465 . S
C2542 C2541 1.396 . S
C2542 C2543 1.399 . S
C2543 H2529 0.929 1_554 S
C2543 C2542 1.399 . S
C2543 C2544 1.385 . S
C2544 H2530 0.931 1_554 S
C2544 C2543 1.385 . S
C2544 C2545 1.389 . S
C2545 C2544 1.389 . S
C2545 C2546 1.387 . S
C2546 H2531 0.930 . S
C2546 C2541 1.390 . S
C2546 C2545 1.387 . S
H2547 C2559 0.930 . S
H2548 C2561 0.930 1_556 S
H2549 C2562 0.930 1_556 S
H2550 C2566 0.959 . S
H2551 C2566 0.959 . S
H2552 C2566 0.961 . S
H2553 C2567 0.960 . S
H2554 C2567 0.961 . S
H2555 C2567 0.959 . S
H2556 C2570 0.929 1_556 S
H2557 C2571 0.931 1_556 S
H2558 C2573 0.930 . S
C2559 H2547 0.930 . S
C2559 C2560 1.399 . S
C2559 C2564 1.399 . S
C2560 C2559 1.399 . S
C2560 C2561 1.376 . S
C2561 H2548 0.930 1_554 S
C2561 C2560 1.376 . S
C2561 C2562 1.388 . S
C2562 H2549 0.930 1_554 S
C2562 C2561 1.388 . S
C2562 C2563 1.390 . S
C2563 C2562 1.390 . S
C2563 C2564 1.394 . S
C2563 C2569 1.465 . S
C2564 C2559 1.399 . S
C2564 C2563 1.394 . S
C2564 C2565 1.516 . S
C2565 C2564 1.516 . S
C2565 C2566 1.502 . S
C2565 C2567 1.561 . S
C2565 C2568 1.526 . S
C2566 H2550 0.959 . S
C2566 H2551 0.959 . S
C2566 H2552 0.961 . S
C2566 C2565 1.502 . S
C2567 H2553 0.960 . S
C2567 H2554 0.961 . S
C2567 H2555 0.959 . S
C2567 C2565 1.561 . S
C2568 C2565 1.526 . S
C2568 C2569 1.396 . S
C2568 C2573 1.390 . S
C2569 C2563 1.465 . S
C2569 C2568 1.396 . S
C2569 C2570 1.399 . S
C2570 H2556 0.929 1_554 S
C2570 C2569 1.399 . S
C2570 C2571 1.385 . S
C2571 H2557 0.931 1_554 S
C2571 C2570 1.385 . S
C2571 C2572 1.389 . S
C2572 C2571 1.389 . S
C2572 C2573 1.387 . S
C2573 H2558 0.930 . S
C2573 C2568 1.390 . S
C2573 C2572 1.387 . S
H2574 C2586 0.930 . S
H2575 C2588 0.930 . S
H2576 C2589 0.930 . S
H2577 C2593 0.959 . S
H2578 C2593 0.959 . S
H2579 C2593 0.961 . S
H2580 C2594 0.960 . S
H2581 C2594 0.961 . S
H2582 C2594 0.959 . S
H2583 C2597 0.929 . S
H2584 C2598 0.931 . S
H2585 C2600 0.930 . S
C2586 H2574 0.930 . S
C2586 C2587 1.399 . S
C2586 C2591 1.399 . S
C2587 C2586 1.399 . S
C2587 C2588 1.376 . S
C2588 H2575 0.930 . S
C2588 C2587 1.376 . S
C2588 C2589 1.388 . S
C2589 H2576 0.930 . S
C2589 C2588 1.388 . S
C2589 C2590 1.390 . S
C2590 C2589 1.390 . S
C2590 C2591 1.394 . S
C2590 C2596 1.465 . S
C2591 C2586 1.399 . S
C2591 C2590 1.394 . S
C2591 C2592 1.516 . S
C2592 C2591 1.516 . S
C2592 C2593 1.502 . S
C2592 C2594 1.561 . S
C2592 C2595 1.526 . S
C2593 H2577 0.959 . S
C2593 H2578 0.959 . S
C2593 H2579 0.961 . S
C2593 C2592 1.502 . S
C2594 H2580 0.960 . S
C2594 H2581 0.961 . S
C2594 H2582 0.959 . S
C2594 C2592 1.561 . S
C2595 C2592 1.526 . S
C2595 C2596 1.396 . S
C2595 C2600 1.390 . S
C2596 C2590 1.465 . S
C2596 C2595 1.396 . S
C2596 C2597 1.399 . S
C2597 H2583 0.929 . S
C2597 C2596 1.399 . S
C2597 C2598 1.385 . S
C2598 H2584 0.931 . S
C2598 C2597 1.385 . S
C2598 C2599 1.389 . S
C2599 C2598 1.389 . S
C2599 C2600 1.387 . S
C2600 H2585 0.930 . S
C2600 C2595 1.390 . S
C2600 C2599 1.387 . S
H2601 C2613 0.930 . S
H2602 C2615 0.930 . S
H2603 C2616 0.930 . S
H2604 C2620 0.959 . S
H2605 C2620 0.959 . S
H2606 C2620 0.961 . S
H2607 C2621 0.960 . S
H2608 C2621 0.961 . S
H2609 C2621 0.959 . S
H2610 C2624 0.929 . S
H2611 C2625 0.931 . S
H2612 C2627 0.930 . S
C2613 H2601 0.930 . S
C2613 C2614 1.399 . S
C2613 C2618 1.399 . S
C2614 C2613 1.399 . S
C2614 C2615 1.376 . S
C2615 H2602 0.930 . S
C2615 C2614 1.376 . S
C2615 C2616 1.388 . S
C2616 H2603 0.930 . S
C2616 C2615 1.388 . S
C2616 C2617 1.390 . S
C2617 C2616 1.390 . S
C2617 C2618 1.394 . S
C2617 C2623 1.465 . S
C2618 C2613 1.399 . S
C2618 C2617 1.394 . S
C2618 C2619 1.516 . S
C2619 C2618 1.516 . S
C2619 C2620 1.502 . S
C2619 C2621 1.561 . S
C2619 C2622 1.526 . S
C2620 H2604 0.959 . S
C2620 H2605 0.959 . S
C2620 H2606 0.961 . S
C2620 C2619 1.502 . S
C2621 H2607 0.960 . S
C2621 H2608 0.961 . S
C2621 H2609 0.959 . S
C2621 C2619 1.561 . S
C2622 C2619 1.526 . S
C2622 C2623 1.396 . S
C2622 C2627 1.390 . S
C2623 C2617 1.465 . S
C2623 C2622 1.396 . S
C2623 C2624 1.399 . S
C2624 H2610 0.929 . S
C2624 C2623 1.399 . S
C2624 C2625 1.385 . S
C2625 H2611 0.931 . S
C2625 C2624 1.385 . S
C2625 C2626 1.389 . S
C2626 C2625 1.389 . S
C2626 C2627 1.387 . S
C2627 H2612 0.930 . S
C2627 C2622 1.390 . S
C2627 C2626 1.387 . S
H2628 C2640 0.930 . S
H2629 C2642 0.930 . S
H2630 C2643 0.930 . S
H2631 C2647 0.959 . S
H2632 C2647 0.959 . S
H2633 C2647 0.961 . S
H2634 C2648 0.960 . S
H2635 C2648 0.961 . S
H2636 C2648 0.959 . S
H2637 C2651 0.929 . S
H2638 C2652 0.931 . S
H2639 C2654 0.930 . S
C2640 H2628 0.930 . S
C2640 C2641 1.399 . S
C2640 C2645 1.399 . S
C2641 C2640 1.399 . S
C2641 C2642 1.376 . S
C2642 H2629 0.930 . S
C2642 C2641 1.376 . S
C2642 C2643 1.388 . S
C2643 H2630 0.930 . S
C2643 C2642 1.388 . S
C2643 C2644 1.390 . S
C2644 C2643 1.390 . S
C2644 C2645 1.394 . S
C2644 C2650 1.465 . S
C2645 C2640 1.399 . S
C2645 C2644 1.394 . S
C2645 C2646 1.516 . S
C2646 C2645 1.516 . S
C2646 C2647 1.502 . S
C2646 C2648 1.561 . S
C2646 C2649 1.526 . S
C2647 H2631 0.959 . S
C2647 H2632 0.959 . S
C2647 H2633 0.961 . S
C2647 C2646 1.502 . S
C2648 H2634 0.960 . S
C2648 H2635 0.961 . S
C2648 H2636 0.959 . S
C2648 C2646 1.561 . S
C2649 C2646 1.526 . S
C2649 C2650 1.396 . S
C2649 C2654 1.390 . S
C2650 C2644 1.465 . S
C2650 C2649 1.396 . S
C2650 C2651 1.399 . S
C2651 H2637 0.929 . S
C2651 C2650 1.399 . S
C2651 C2652 1.385 . S
C2652 H2638 0.931 . S
C2652 C2651 1.385 . S
C2652 C2653 1.389 . S
C2653 C2652 1.389 . S
C2653 C2654 1.387 . S
C2654 H2639 0.930 . S
C2654 C2649 1.390 . S
C2654 C2653 1.387 . S
H2655 C2667 0.930 . S
H2656 C2669 0.930 . S
H2657 C2670 0.930 . S
H2658 C2674 0.959 . S
H2659 C2674 0.959 . S
H2660 C2674 0.961 . S
H2661 C2675 0.960 . S
H2662 C2675 0.961 . S
H2663 C2675 0.959 . S
H2664 C2678 0.929 . S
H2665 C2679 0.931 . S
H2666 C2681 0.930 . S
C2667 H2655 0.930 . S
C2667 C2668 1.399 . S
C2667 C2672 1.399 . S
C2668 C2667 1.399 . S
C2668 C2669 1.376 . S
C2669 H2656 0.930 . S
C2669 C2668 1.376 . S
C2669 C2670 1.388 . S
C2670 H2657 0.930 . S
C2670 C2669 1.388 . S
C2670 C2671 1.390 . S
C2671 C2670 1.390 . S
C2671 C2672 1.394 . S
C2671 C2677 1.465 . S
C2672 C2667 1.399 . S
C2672 C2671 1.394 . S
C2672 C2673 1.516 . S
C2673 C2672 1.516 . S
C2673 C2674 1.502 . S
C2673 C2675 1.561 . S
C2673 C2676 1.526 . S
C2674 H2658 0.959 . S
C2674 H2659 0.959 . S
C2674 H2660 0.961 . S
C2674 C2673 1.502 . S
C2675 H2661 0.960 . S
C2675 H2662 0.961 . S
C2675 H2663 0.959 . S
C2675 C2673 1.561 . S
C2676 C2673 1.526 . S
C2676 C2677 1.396 . S
C2676 C2681 1.390 . S
C2677 C2671 1.465 . S
C2677 C2676 1.396 . S
C2677 C2678 1.399 . S
C2678 H2664 0.929 . S
C2678 C2677 1.399 . S
C2678 C2679 1.385 . S
C2679 H2665 0.931 . S
C2679 C2678 1.385 . S
C2679 C2680 1.389 . S
C2680 C2679 1.389 . S
C2680 C2681 1.387 . S
C2681 H2666 0.930 . S
C2681 C2676 1.390 . S
C2681 C2680 1.387 . S
H2682 C2694 0.930 . S
H2683 C2696 0.930 . S
H2684 C2697 0.930 . S
H2685 C2701 0.959 . S
H2686 C2701 0.959 . S
H2687 C2701 0.961 . S
H2688 C2702 0.960 . S
H2689 C2702 0.961 . S
H2690 C2702 0.959 . S
H2691 C2705 0.929 . S
H2692 C2706 0.931 . S
H2693 C2708 0.930 . S
C2694 H2682 0.930 . S
C2694 C2695 1.399 . S
C2694 C2699 1.399 . S
C2695 C2694 1.399 . S
C2695 C2696 1.376 . S
C2696 H2683 0.930 . S
C2696 C2695 1.376 . S
C2696 C2697 1.388 . S
C2697 H2684 0.930 . S
C2697 C2696 1.388 . S
C2697 C2698 1.390 . S
C2698 C2697 1.390 . S
C2698 C2699 1.394 . S
C2698 C2704 1.465 . S
C2699 C2694 1.399 . S
C2699 C2698 1.394 . S
C2699 C2700 1.516 . S
C2700 C2699 1.516 . S
C2700 C2701 1.502 . S
C2700 C2702 1.561 . S
C2700 C2703 1.526 . S
C2701 H2685 0.959 . S
C2701 H2686 0.959 . S
C2701 H2687 0.961 . S
C2701 C2700 1.502 . S
C2702 H2688 0.960 . S
C2702 H2689 0.961 . S
C2702 H2690 0.959 . S
C2702 C2700 1.561 . S
C2703 C2700 1.526 . S
C2703 C2704 1.396 . S
C2703 C2708 1.390 . S
C2704 C2698 1.465 . S
C2704 C2703 1.396 . S
C2704 C2705 1.399 . S
C2705 H2691 0.929 . S
C2705 C2704 1.399 . S
C2705 C2706 1.385 . S
C2706 H2692 0.931 . S
C2706 C2705 1.385 . S
C2706 C2707 1.389 . S
C2707 C2706 1.389 . S
C2707 C2708 1.387 . S
C2708 H2693 0.930 . S
C2708 C2703 1.390 . S
C2708 C2707 1.387 . S
H2709 C2721 0.930 . S
H2710 C2723 0.930 . S
H2711 C2724 0.930 . S
H2712 C2728 0.959 . S
H2713 C2728 0.959 . S
H2714 C2728 0.961 . S
H2715 C2729 0.960 . S
H2716 C2729 0.961 . S
H2717 C2729 0.959 . S
H2718 C2732 0.929 . S
H2719 C2733 0.931 . S
H2720 C2735 0.930 . S
C2721 H2709 0.930 . S
C2721 C2722 1.399 . S
C2721 C2726 1.399 . S
C2722 C2721 1.399 . S
C2722 C2723 1.376 . S
C2723 H2710 0.930 . S
C2723 C2722 1.376 . S
C2723 C2724 1.388 . S
C2724 H2711 0.930 . S
C2724 C2723 1.388 . S
C2724 C2725 1.390 . S
C2725 C2724 1.390 . S
C2725 C2726 1.394 . S
C2725 C2731 1.465 . S
C2726 C2721 1.399 . S
C2726 C2725 1.394 . S
C2726 C2727 1.516 . S
C2727 C2726 1.516 . S
C2727 C2728 1.502 . S
C2727 C2729 1.561 . S
C2727 C2730 1.526 . S
C2728 H2712 0.959 . S
C2728 H2713 0.959 . S
C2728 H2714 0.961 . S
C2728 C2727 1.502 . S
C2729 H2715 0.960 . S
C2729 H2716 0.961 . S
C2729 H2717 0.959 . S
C2729 C2727 1.561 . S
C2730 C2727 1.526 . S
C2730 C2731 1.396 . S
C2730 C2735 1.390 . S
C2731 C2725 1.465 . S
C2731 C2730 1.396 . S
C2731 C2732 1.399 . S
C2732 H2718 0.929 . S
C2732 C2731 1.399 . S
C2732 C2733 1.385 . S
C2733 H2719 0.931 . S
C2733 C2732 1.385 . S
C2733 C2734 1.389 . S
C2734 C2733 1.389 . S
C2734 C2735 1.387 . S
C2735 H2720 0.930 . S
C2735 C2730 1.390 . S
C2735 C2734 1.387 . S
H2736 C2748 0.930 . S
H2737 C2750 0.930 . S
H2738 C2751 0.930 . S
H2739 C2755 0.959 . S
H2740 C2755 0.959 . S
H2741 C2755 0.961 . S
H2742 C2756 0.960 . S
H2743 C2756 0.961 . S
H2744 C2756 0.959 . S
H2745 C2759 0.929 . S
H2746 C2760 0.931 . S
H2747 C2762 0.930 . S
C2748 H2736 0.930 . S
C2748 C2749 1.399 . S
C2748 C2753 1.399 . S
C2749 C2748 1.399 . S
C2749 C2750 1.376 . S
C2750 H2737 0.930 . S
C2750 C2749 1.376 . S
C2750 C2751 1.388 . S
C2751 H2738 0.930 . S
C2751 C2750 1.388 . S
C2751 C2752 1.390 . S
C2752 C2751 1.390 . S
C2752 C2753 1.394 . S
C2752 C2758 1.465 1_655 S
C2753 C2748 1.399 . S
C2753 C2752 1.394 . S
C2753 C2754 1.516 . S
C2754 C2753 1.516 . S
C2754 C2755 1.502 1_655 S
C2754 C2756 1.561 . S
C2754 C2757 1.526 1_655 S
C2755 H2739 0.959 . S
C2755 H2740 0.959 . S
C2755 H2741 0.961 . S
C2755 C2754 1.502 1_455 S
C2756 H2742 0.960 . S
C2756 H2743 0.961 . S
C2756 H2744 0.959 . S
C2756 C2754 1.561 . S
C2757 C2754 1.526 1_455 S
C2757 C2758 1.396 . S
C2757 C2762 1.390 . S
C2758 C2752 1.465 1_455 S
C2758 C2757 1.396 . S
C2758 C2759 1.399 . S
C2759 H2745 0.929 . S
C2759 C2758 1.399 . S
C2759 C2760 1.385 . S
C2760 H2746 0.931 . S
C2760 C2759 1.385 . S
C2760 C2761 1.389 . S
C2761 C2760 1.389 . S
C2761 C2762 1.387 . S
C2762 H2747 0.930 . S
C2762 C2757 1.390 . S
C2762 C2761 1.387 . S
H2763 C2775 0.930 . S
H2764 C2777 0.930 . S
H2765 C2778 0.930 . S
H2766 C2782 0.959 . S
H2767 C2782 0.959 . S
H2768 C2782 0.961 . S
H2769 C2783 0.960 . S
H2770 C2783 0.961 . S
H2771 C2783 0.959 . S
H2772 C2786 0.929 . S
H2773 C2787 0.931 . S
H2774 C2789 0.930 . S
C2775 H2763 0.930 . S
C2775 C2776 1.399 . S
C2775 C2780 1.399 . S
C2776 C2775 1.399 . S
C2776 C2777 1.376 . S
C2777 H2764 0.930 . S
C2777 C2776 1.376 . S
C2777 C2778 1.388 . S
C2778 H2765 0.930 . S
C2778 C2777 1.388 . S
C2778 C2779 1.390 . S
C2779 C2778 1.390 . S
C2779 C2780 1.394 . S
C2779 C2785 1.465 . S
C2780 C2775 1.399 . S
C2780 C2779 1.394 . S
C2780 C2781 1.516 . S
C2781 C2780 1.516 . S
C2781 C2782 1.502 . S
C2781 C2783 1.561 . S
C2781 C2784 1.526 . S
C2782 H2766 0.959 . S
C2782 H2767 0.959 . S
C2782 H2768 0.961 . S
C2782 C2781 1.502 . S
C2783 H2769 0.960 . S
C2783 H2770 0.961 . S
C2783 H2771 0.959 . S
C2783 C2781 1.561 . S
C2784 C2781 1.526 . S
C2784 C2785 1.396 . S
C2784 C2789 1.390 . S
C2785 C2779 1.465 . S
C2785 C2784 1.396 . S
C2785 C2786 1.399 . S
C2786 H2772 0.929 . S
C2786 C2785 1.399 . S
C2786 C2787 1.385 . S
C2787 H2773 0.931 . S
C2787 C2786 1.385 . S
C2787 C2788 1.389 . S
C2788 C2787 1.389 . S
C2788 C2789 1.387 . S
C2789 H2774 0.930 . S
C2789 C2784 1.390 . S
C2789 C2788 1.387 . S
H2790 C2802 0.930 . S
H2791 C2804 0.909 1_565 S
H2792 C2805 0.930 . S
H2793 C2809 0.959 . S
H2794 C2809 0.959 . S
H2795 C2809 0.961 . S
H2796 C2810 0.960 . S
H2797 C2810 0.961 . S
H2798 C2810 0.959 . S
H2799 C2813 0.929 . S
H2800 C2814 0.931 . S
H2801 C2816 0.930 1_545 S
C2802 H2790 0.930 . S
C2802 C2803 1.399 . S
C2802 C2807 1.399 . S
C2803 C2802 1.399 . S
C2803 C2804 1.376 . S
C2804 H2791 0.909 1_545 S
C2804 C2803 1.376 . S
C2804 C2805 1.388 1_545 S
C2805 H2792 0.930 . S
C2805 C2804 1.388 1_565 S
C2805 C2806 1.390 . S
C2806 C2805 1.390 . S
C2806 C2807 1.394 1_565 S
C2806 C2812 1.465 . S
C2807 C2802 1.399 . S
C2807 C2806 1.394 1_545 S
C2807 C2808 1.516 . S
C2808 C2807 1.516 . S
C2808 C2809 1.502 . S
C2808 C2810 1.561 . S
C2808 C2811 1.526 . S
C2809 H2793 0.959 . S
C2809 H2794 0.959 . S
C2809 H2795 0.961 . S
C2809 C2808 1.502 . S
C2810 H2796 0.960 . S
C2810 H2797 0.961 . S
C2810 H2798 0.959 . S
C2810 C2808 1.561 . S
C2811 C2808 1.526 . S
C2811 C2812 1.396 1_545 S
C2811 C2816 1.390 1_545 S
C2812 C2806 1.465 . S
C2812 C2811 1.396 1_565 S
C2812 C2813 1.399 . S
C2813 H2799 0.929 . S
C2813 C2812 1.399 . S
C2813 C2814 1.385 . S
C2814 H2800 0.931 . S
C2814 C2813 1.385 . S
C2814 C2815 1.389 . S
C2815 C2814 1.389 . S
C2815 C2816 1.387 . S
C2816 H2801 0.930 1_565 S
C2816 C2811 1.390 1_565 S
C2816 C2815 1.387 . S
H2817 C2829 0.930 1_655 S
H2818 C2831 0.930 . S
H2819 C2832 0.930 . S
H2820 C2836 0.959 . S
H2821 C2836 0.959 . S
H2822 C2836 0.961 . S
H2823 C2837 0.960 . S
H2824 C2837 0.961 . S
H2825 C2837 0.959 . S
H2826 C2840 0.929 . S
H2827 C2841 0.931 . S
H2828 C2843 0.930 . S
C2829 H2817 0.930 1_455 S
C2829 C2830 1.399 . S
C2829 C2834 1.399 1_455 S
C2830 C2829 1.399 . S
C2830 C2831 1.376 . S
C2831 H2818 0.930 . S
C2831 C2830 1.376 . S
C2831 C2832 1.388 . S
C2832 H2819 0.930 . S
C2832 C2831 1.388 . S
C2832 C2833 1.390 . S
C2833 C2832 1.390 . S
C2833 C2834 1.394 1_455 S
C2833 C2839 1.465 . S
C2834 C2829 1.399 1_655 S
C2834 C2833 1.394 1_655 S
C2834 C2835 1.516 . S
C2835 C2834 1.516 . S
C2835 C2836 1.502 . S
C2835 C2837 1.561 . S
C2835 C2838 1.526 . S
C2836 H2820 0.959 . S
C2836 H2821 0.959 . S
C2836 H2822 0.961 . S
C2836 C2835 1.502 . S
C2837 H2823 0.960 . S
C2837 H2824 0.961 . S
C2837 H2825 0.959 . S
C2837 C2835 1.561 . S
C2838 C2835 1.526 . S
C2838 C2839 1.396 1_655 S
C2838 C2843 1.390 . S
C2839 C2833 1.465 . S
C2839 C2838 1.396 1_455 S
C2839 C2840 1.399 . S
C2840 H2826 0.929 . S
C2840 C2839 1.399 . S
C2840 C2841 1.385 . S
C2841 H2827 0.931 . S
C2841 C2840 1.385 . S
C2841 C2842 1.389 1_455 S
C2842 C2841 1.389 1_655 S
C2842 C2843 1.387 . S
C2843 H2828 0.930 . S
C2843 C2838 1.390 . S
C2843 C2842 1.387 . S
H2844 C2856 0.930 . S
H2845 C2858 0.930 . S
H2846 C2859 0.930 . S
H2847 C2863 0.959 . S
H2848 C2863 0.959 . S
H2849 C2863 0.961 . S
H2850 C2864 0.960 . S
H2851 C2864 0.961 . S
H2852 C2864 0.959 . S
H2853 C2867 0.929 . S
H2854 C2868 0.931 . S
H2855 C2870 0.930 . S
C2856 H2844 0.930 . S
C2856 C2857 1.399 . S
C2856 C2861 1.399 . S
C2857 C2856 1.399 . S
C2857 C2858 1.376 . S
C2858 H2845 0.930 . S
C2858 C2857 1.376 . S
C2858 C2859 1.388 . S
C2859 H2846 0.930 . S
C2859 C2858 1.388 . S
C2859 C2860 1.390 . S
C2860 C2859 1.390 . S
C2860 C2861 1.394 . S
C2860 C2866 1.465 . S
C2861 C2856 1.399 . S
C2861 C2860 1.394 . S
C2861 C2862 1.516 . S
C2862 C2861 1.516 . S
C2862 C2863 1.502 . S
C2862 C2864 1.561 . S
C2862 C2865 1.526 . S
C2863 H2847 0.959 . S
C2863 H2848 0.959 . S
C2863 H2849 0.961 . S
C2863 C2862 1.502 . S
C2864 H2850 0.960 . S
C2864 H2851 0.961 . S
C2864 H2852 0.959 . S
C2864 C2862 1.561 . S
C2865 C2862 1.526 . S
C2865 C2866 1.396 . S
C2865 C2870 1.390 . S
C2866 C2860 1.465 . S
C2866 C2865 1.396 . S
C2866 C2867 1.399 . S
C2867 H2853 0.929 . S
C2867 C2866 1.399 . S
C2867 C2868 1.385 . S
C2868 H2854 0.931 . S
C2868 C2867 1.385 . S
C2868 C2869 1.389 . S
C2869 C2868 1.389 . S
C2869 C2870 1.387 . S
C2870 H2855 0.930 . S
C2870 C2865 1.390 . S
C2870 C2869 1.387 . S
H2871 C2883 0.930 . S
H2872 C2885 0.930 . S
H2873 C2886 0.930 . S
H2874 C2890 0.959 . S
H2875 C2890 0.959 . S
H2876 C2890 0.961 . S
H2877 C2891 0.960 . S
H2878 C2891 0.961 1_565 S
H2879 C2891 0.959 . S
H2880 C2894 0.929 . S
H2881 C2895 0.931 . S
H2882 C2897 0.930 . S
C2883 H2871 0.930 . S
C2883 C2884 1.399 . S
C2883 C2888 1.399 . S
C2884 C2883 1.399 . S
C2884 C2885 1.376 . S
C2885 H2872 0.930 . S
C2885 C2884 1.376 . S
C2885 C2886 1.388 . S
C2886 H2873 0.930 . S
C2886 C2885 1.388 . S
C2886 C2887 1.390 . S
C2887 C2886 1.390 . S
C2887 C2888 1.394 . S
C2887 C2893 1.465 . S
C2888 C2883 1.399 . S
C2888 C2887 1.394 . S
C2888 C2889 1.516 1_545 S
C2889 C2888 1.516 1_565 S
C2889 C2890 1.502 . S
C2889 C2891 1.561 1_565 S
C2889 C2892 1.526 . S
C2890 H2874 0.959 . S
C2890 H2875 0.959 . S
C2890 H2876 0.961 . S
C2890 C2889 1.502 . S
C2891 H2877 0.960 . S
C2891 H2878 0.961 1_545 S
C2891 H2879 0.959 . S
C2891 C2889 1.561 1_545 S
C2892 C2889 1.526 . S
C2892 C2893 1.396 1_565 S
C2892 C2897 1.390 . S
C2893 C2887 1.465 . S
C2893 C2892 1.396 1_545 S
C2893 C2894 1.399 . S
C2894 H2880 0.929 . S
C2894 C2893 1.399 . S
C2894 C2895 1.385 1_545 S
C2895 H2881 0.931 . S
C2895 C2894 1.385 1_565 S
C2895 C2896 1.389 . S
C2896 C2895 1.389 . S
C2896 C2897 1.387 . S
C2897 H2882 0.930 . S
C2897 C2892 1.390 . S
C2897 C2896 1.387 . S
H2898 C2910 0.930 . S
H2899 C2912 0.930 . S
H2900 C2913 0.930 . S
H2901 C2917 0.959 . S
H2902 C2917 0.959 . S
H2903 C2917 0.961 . S
H2904 C2918 0.960 . S
H2905 C2918 0.961 . S
H2906 C2918 0.959 . S
H2907 C2921 0.929 . S
H2908 C2922 0.931 . S
H2909 C2924 0.930 . S
C2910 H2898 0.930 . S
C2910 C2911 1.399 . S
C2910 C2915 1.399 . S
C2911 C2910 1.399 . S
C2911 C2912 1.376 . S
C2912 H2899 0.930 . S
C2912 C2911 1.376 . S
C2912 C2913 1.388 . S
C2913 H2900 0.930 . S
C2913 C2912 1.388 . S
C2913 C2914 1.390 . S
C2914 C2913 1.390 . S
C2914 C2915 1.394 . S
C2914 C2920 1.465 . S
C2915 C2910 1.399 . S
C2915 C2914 1.394 . S
C2915 C2916 1.516 . S
C2916 C2915 1.516 . S
C2916 C2917 1.502 . S
C2916 C2918 1.561 . S
C2916 C2919 1.526 . S
C2917 H2901 0.959 . S
C2917 H2902 0.959 . S
C2917 H2903 0.961 . S
C2917 C2916 1.502 . S
C2918 H2904 0.960 . S
C2918 H2905 0.961 . S
C2918 H2906 0.959 . S
C2918 C2916 1.561 . S
C2919 C2916 1.526 . S
C2919 C2920 1.396 . S
C2919 C2924 1.390 . S
C2920 C2914 1.465 . S
C2920 C2919 1.396 . S
C2920 C2921 1.399 . S
C2921 H2907 0.929 . S
C2921 C2920 1.399 . S
C2921 C2922 1.385 . S
C2922 H2908 0.931 . S
C2922 C2921 1.385 . S
C2922 C2923 1.389 . S
C2923 C2922 1.389 . S
C2923 C2924 1.387 . S
C2924 H2909 0.930 . S
C2924 C2919 1.390 . S
C2924 C2923 1.387 . S
H2925 C2937 0.930 . S
H2926 C2939 0.930 . S
H2927 C2940 0.930 . S
H2928 C2944 0.959 . S
H2929 C2944 0.959 . S
H2930 C2944 0.961 . S
H2931 C2945 0.960 . S
H2932 C2945 0.961 . S
H2933 C2945 0.959 . S
H2934 C2948 0.929 . S
H2935 C2949 0.931 . S
H2936 C2951 0.930 . S
C2937 H2925 0.930 . S
C2937 C2938 1.399 . S
C2937 C2942 1.399 . S
C2938 C2937 1.399 . S
C2938 C2939 1.376 . S
C2939 H2926 0.930 . S
C2939 C2938 1.376 . S
C2939 C2940 1.388 . S
C2940 H2927 0.930 . S
C2940 C2939 1.388 . S
C2940 C2941 1.390 . S
C2941 C2940 1.390 . S
C2941 C2942 1.394 . S
C2941 C2947 1.465 . S
C2942 C2937 1.399 . S
C2942 C2941 1.394 . S
C2942 C2943 1.516 . S
C2943 C2942 1.516 . S
C2943 C2944 1.502 . S
C2943 C2945 1.561 . S
C2943 C2946 1.526 . S
C2944 H2928 0.959 . S
C2944 H2929 0.959 . S
C2944 H2930 0.961 . S
C2944 C2943 1.502 . S
C2945 H2931 0.960 . S
C2945 H2932 0.961 . S
C2945 H2933 0.959 . S
C2945 C2943 1.561 . S
C2946 C2943 1.526 . S
C2946 C2947 1.396 . S
C2946 C2951 1.390 . S
C2947 C2941 1.465 . S
C2947 C2946 1.396 . S
C2947 C2948 1.399 . S
C2948 H2934 0.929 . S
C2948 C2947 1.399 . S
C2948 C2949 1.385 . S
C2949 H2935 0.931 . S
C2949 C2948 1.385 . S
C2949 C2950 1.389 . S
C2950 C2949 1.389 . S
C2950 C2951 1.387 . S
C2951 H2936 0.930 . S
C2951 C2946 1.390 . S
C2951 C2950 1.387 . S
H2952 C2964 0.930 . S
H2953 C2966 0.930 . S
H2954 C2967 0.930 . S
H2955 C2971 0.959 . S
H2956 C2971 0.959 . S
H2957 C2971 0.961 . S
H2958 C2972 0.960 . S
H2959 C2972 0.961 . S
H2960 C2972 0.959 . S
H2961 C2975 0.929 . S
H2962 C2976 0.931 . S
H2963 C2978 0.930 . S
C2964 H2952 0.930 . S
C2964 C2965 1.399 . S
C2964 C2969 1.399 . S
C2965 C2964 1.399 . S
C2965 C2966 1.376 . S
C2966 H2953 0.930 . S
C2966 C2965 1.376 . S
C2966 C2967 1.388 . S
C2967 H2954 0.930 . S
C2967 C2966 1.388 . S
C2967 C2968 1.390 . S
C2968 C2967 1.390 . S
C2968 C2969 1.394 . S
C2968 C2974 1.465 . S
C2969 C2964 1.399 . S
C2969 C2968 1.394 . S
C2969 C2970 1.516 . S
C2970 C2969 1.516 . S
C2970 C2971 1.502 . S
C2970 C2972 1.561 . S
C2970 C2973 1.526 . S
C2971 H2955 0.959 . S
C2971 H2956 0.959 . S
C2971 H2957 0.961 . S
C2971 C2970 1.502 . S
C2972 H2958 0.960 . S
C2972 H2959 0.961 . S
C2972 H2960 0.959 . S
C2972 C2970 1.561 . S
C2973 C2970 1.526 . S
C2973 C2974 1.396 . S
C2973 C2978 1.390 . S
C2974 C2968 1.465 . S
C2974 C2973 1.396 . S
C2974 C2975 1.399 . S
C2975 H2961 0.929 . S
C2975 C2974 1.399 . S
C2975 C2976 1.385 . S
C2976 H2962 0.931 . S
C2976 C2975 1.385 . S
C2976 C2977 1.389 . S
C2977 C2976 1.389 . S
C2977 C2978 1.387 . S
C2978 H2963 0.930 . S
C2978 C2973 1.390 . S
C2978 C2977 1.387 . S
H2979 C2991 0.930 . S
H2980 C2993 0.930 . S
H2981 C2994 0.930 . S
H2982 C2998 0.959 . S
H2983 C2998 0.959 . S
H2984 C2998 0.961 . S
H2985 C2999 0.960 . S
H2986 C2999 0.961 . S
H2987 C2999 0.959 . S
H2988 C3002 0.929 . S
H2989 C3003 0.931 . S
H2990 C3005 0.930 . S
C2991 H2979 0.930 . S
C2991 C2992 1.399 . S
C2991 C2996 1.399 . S
C2992 C2991 1.399 . S
C2992 C2993 1.376 . S
C2993 H2980 0.930 . S
C2993 C2992 1.376 . S
C2993 C2994 1.388 . S
C2994 H2981 0.930 . S
C2994 C2993 1.388 . S
C2994 C2995 1.390 . S
C2995 C2994 1.390 . S
C2995 C2996 1.394 . S
C2995 C3001 1.465 . S
C2996 C2991 1.399 . S
C2996 C2995 1.394 . S
C2996 C2997 1.516 . S
C2997 C2996 1.516 . S
C2997 C2998 1.502 . S
C2997 C2999 1.561 . S
C2997 C3000 1.526 . S
C2998 H2982 0.959 . S
C2998 H2983 0.959 . S
C2998 H2984 0.961 . S
C2998 C2997 1.502 . S
C2999 H2985 0.960 . S
C2999 H2986 0.961 . S
C2999 H2987 0.959 . S
C2999 C2997 1.561 . S
C3000 C2997 1.526 . S
C3000 C3001 1.396 . S
C3000 C3005 1.390 . S
C3001 C2995 1.465 . S
C3001 C3000 1.396 . S
C3001 C3002 1.399 . S
C3002 H2988 0.929 . S
C3002 C3001 1.399 . S
C3002 C3003 1.385 . S
C3003 H2989 0.931 . S
C3003 C3002 1.385 . S
C3003 C3004 1.389 . S
C3004 C3003 1.389 . S
C3004 C3005 1.387 . S
C3005 H2990 0.930 . S
C3005 C3000 1.390 . S
C3005 C3004 1.387 . S
H3006 C3018 0.930 . S
H3007 C3020 0.930 . S
H3008 C3021 0.930 . S
H3009 C3025 0.959 . S
H3010 C3025 0.959 . S
H3011 C3025 0.961 . S
H3012 C3026 0.960 . S
H3013 C3026 0.961 . S
H3014 C3026 0.959 . S
H3015 C3029 0.929 . S
H3016 C3030 0.931 . S
H3017 C3032 0.930 . S
C3018 H3006 0.930 . S
C3018 C3019 1.399 . S
C3018 C3023 1.399 . S
C3019 C3018 1.399 . S
C3019 C3020 1.376 . S
C3020 H3007 0.930 . S
C3020 C3019 1.376 . S
C3020 C3021 1.388 . S
C3021 H3008 0.930 . S
C3021 C3020 1.388 . S
C3021 C3022 1.390 . S
C3022 C3021 1.390 . S
C3022 C3023 1.394 . S
C3022 C3028 1.465 . S
C3023 C3018 1.399 . S
C3023 C3022 1.394 . S
C3023 C3024 1.516 . S
C3024 C3023 1.516 . S
C3024 C3025 1.502 . S
C3024 C3026 1.561 . S
C3024 C3027 1.526 . S
C3025 H3009 0.959 . S
C3025 H3010 0.959 . S
C3025 H3011 0.961 . S
C3025 C3024 1.502 . S
C3026 H3012 0.960 . S
C3026 H3013 0.961 . S
C3026 H3014 0.959 . S
C3026 C3024 1.561 . S
C3027 C3024 1.526 . S
C3027 C3028 1.396 . S
C3027 C3032 1.390 . S
C3028 C3022 1.465 . S
C3028 C3027 1.396 . S
C3028 C3029 1.399 . S
C3029 H3015 0.929 . S
C3029 C3028 1.399 . S
C3029 C3030 1.385 . S
C3030 H3016 0.931 . S
C3030 C3029 1.385 . S
C3030 C3031 1.389 . S
C3031 C3030 1.389 . S
C3031 C3032 1.387 . S
C3032 H3017 0.930 . S
C3032 C3027 1.390 . S
C3032 C3031 1.387 . S
H3033 C3045 0.930 . S
H3034 C3047 0.930 . S
H3035 C3048 0.930 . S
H3036 C3052 0.959 . S
H3037 C3052 0.959 . S
H3038 C3052 0.961 . S
H3039 C3053 0.960 . S
H3040 C3053 0.961 . S
H3041 C3053 0.959 . S
H3042 C3056 0.929 . S
H3043 C3057 0.931 . S
H3044 C3059 0.930 . S
C3045 H3033 0.930 . S
C3045 C3046 1.399 . S
C3045 C3050 1.399 . S
C3046 C3045 1.399 . S
C3046 C3047 1.376 . S
C3047 H3034 0.930 . S
C3047 C3046 1.376 . S
C3047 C3048 1.388 . S
C3048 H3035 0.930 . S
C3048 C3047 1.388 . S
C3048 C3049 1.390 . S
C3049 C3048 1.390 . S
C3049 C3050 1.394 . S
C3049 C3055 1.465 . S
C3050 C3045 1.399 . S
C3050 C3049 1.394 . S
C3050 C3051 1.516 . S
C3051 C3050 1.516 . S
C3051 C3052 1.502 . S
C3051 C3053 1.561 . S
C3051 C3054 1.526 . S
C3052 H3036 0.959 . S
C3052 H3037 0.959 . S
C3052 H3038 0.961 . S
C3052 C3051 1.502 . S
C3053 H3039 0.960 . S
C3053 H3040 0.961 . S
C3053 H3041 0.959 . S
C3053 C3051 1.561 . S
C3054 C3051 1.526 . S
C3054 C3055 1.396 . S
C3054 C3059 1.390 . S
C3055 C3049 1.465 . S
C3055 C3054 1.396 . S
C3055 C3056 1.399 . S
C3056 H3042 0.929 . S
C3056 C3055 1.399 . S
C3056 C3057 1.385 . S
C3057 H3043 0.931 . S
C3057 C3056 1.385 . S
C3057 C3058 1.389 . S
C3058 C3057 1.389 . S
C3058 C3059 1.387 . S
C3059 H3044 0.930 . S
C3059 C3054 1.390 . S
C3059 C3058 1.387 . S
H3060 C3072 0.930 . S
H3061 C3074 0.930 . S
H3062 C3075 0.930 . S
H3063 C3079 0.959 . S
H3064 C3079 0.959 . S
H3065 C3079 0.961 . S
H3066 C3080 0.960 . S
H3067 C3080 0.961 . S
H3068 C3080 0.959 . S
H3069 C3083 0.929 . S
H3070 C3084 0.931 . S
H3071 C3086 0.930 . S
C3072 H3060 0.930 . S
C3072 C3073 1.399 . S
C3072 C3077 1.399 . S
C3073 C3072 1.399 . S
C3073 C3074 1.376 . S
C3074 H3061 0.930 . S
C3074 C3073 1.376 . S
C3074 C3075 1.388 . S
C3075 H3062 0.930 . S
C3075 C3074 1.388 . S
C3075 C3076 1.390 . S
C3076 C3075 1.390 . S
C3076 C3077 1.394 . S
C3076 C3082 1.465 . S
C3077 C3072 1.399 . S
C3077 C3076 1.394 . S
C3077 C3078 1.516 . S
C3078 C3077 1.516 . S
C3078 C3079 1.502 . S
C3078 C3080 1.561 . S
C3078 C3081 1.526 . S
C3079 H3063 0.959 . S
C3079 H3064 0.959 . S
C3079 H3065 0.961 . S
C3079 C3078 1.502 . S
C3080 H3066 0.960 . S
C3080 H3067 0.961 . S
C3080 H3068 0.959 . S
C3080 C3078 1.561 . S
C3081 C3078 1.526 . S
C3081 C3082 1.396 . S
C3081 C3086 1.390 . S
C3082 C3076 1.465 . S
C3082 C3081 1.396 . S
C3082 C3083 1.399 . S
C3083 H3069 0.929 . S
C3083 C3082 1.399 . S
C3083 C3084 1.385 . S
C3084 H3070 0.931 . S
C3084 C3083 1.385 . S
C3084 C3085 1.389 . S
C3085 C3084 1.389 . S
C3085 C3086 1.387 . S
C3086 H3071 0.930 . S
C3086 C3081 1.390 . S
C3086 C3085 1.387 . S
H3087 C3099 0.930 . S
H3088 C3101 0.930 . S
H3089 C3102 0.930 . S
H3090 C3106 0.959 . S
H3091 C3106 0.959 . S
H3092 C3106 0.961 . S
H3093 C3107 0.960 . S
H3094 C3107 0.961 . S
H3095 C3107 0.959 . S
H3096 C3110 0.929 . S
H3097 C3111 0.931 . S
H3098 C3113 0.930 . S
C3099 H3087 0.930 . S
C3099 C3100 1.399 . S
C3099 C3104 1.399 . S
C3100 C3099 1.399 . S
C3100 C3101 1.376 . S
C3101 H3088 0.930 . S
C3101 C3100 1.376 . S
C3101 C3102 1.388 . S
C3102 H3089 0.930 . S
C3102 C3101 1.388 . S
C3102 C3103 1.390 . S
C3103 C3102 1.390 . S
C3103 C3104 1.394 . S
C3103 C3109 1.465 . S
C3104 C3099 1.399 . S
C3104 C3103 1.394 . S
C3104 C3105 1.516 . S
C3105 C3104 1.516 . S
C3105 C3106 1.502 . S
C3105 C3107 1.561 . S
C3105 C3108 1.526 . S
C3106 H3090 0.959 . S
C3106 H3091 0.959 . S
C3106 H3092 0.961 . S
C3106 C3105 1.502 . S
C3107 H3093 0.960 . S
C3107 H3094 0.961 . S
C3107 H3095 0.959 . S
C3107 C3105 1.561 . S
C3108 C3105 1.526 . S
C3108 C3109 1.396 . S
C3108 C3113 1.390 . S
C3109 C3103 1.465 . S
C3109 C3108 1.396 . S
C3109 C3110 1.399 . S
C3110 H3096 0.929 . S
C3110 C3109 1.399 . S
C3110 C3111 1.385 . S
C3111 H3097 0.931 . S
C3111 C3110 1.385 . S
C3111 C3112 1.389 . S
C3112 C3111 1.389 . S
C3112 C3113 1.387 . S
C3113 H3098 0.930 . S
C3113 C3108 1.390 . S
C3113 C3112 1.387 . S
H3114 C3126 0.930 . S
H3115 C3128 0.930 . S
H3116 C3129 0.930 . S
H3117 C3133 0.959 . S
H3118 C3133 0.959 . S
H3119 C3133 0.961 . S
H3120 C3134 0.960 . S
H3121 C3134 0.961 . S
H3122 C3134 0.959 . S
H3123 C3137 0.929 . S
H3124 C3138 0.931 . S
H3125 C3140 0.930 . S
C3126 H3114 0.930 . S
C3126 C3127 1.399 . S
C3126 C3131 1.399 . S
C3127 C3126 1.399 . S
C3127 C3128 1.376 . S
C3128 H3115 0.930 . S
C3128 C3127 1.376 . S
C3128 C3129 1.388 . S
C3129 H3116 0.930 . S
C3129 C3128 1.388 . S
C3129 C3130 1.390 . S
C3130 C3129 1.390 . S
C3130 C3131 1.394 . S
C3130 C3136 1.465 . S
C3131 C3126 1.399 . S
C3131 C3130 1.394 . S
C3131 C3132 1.516 . S
C3132 C3131 1.516 . S
C3132 C3133 1.502 . S
C3132 C3134 1.561 . S
C3132 C3135 1.526 . S
C3133 H3117 0.959 . S
C3133 H3118 0.959 . S
C3133 H3119 0.961 . S
C3133 C3132 1.502 . S
C3134 H3120 0.960 . S
C3134 H3121 0.961 . S
C3134 H3122 0.959 . S
C3134 C3132 1.561 . S
C3135 C3132 1.526 . S
C3135 C3136 1.396 . S
C3135 C3140 1.390 . S
C3136 C3130 1.465 . S
C3136 C3135 1.396 . S
C3136 C3137 1.399 . S
C3137 H3123 0.929 . S
C3137 C3136 1.399 . S
C3137 C3138 1.385 . S
C3138 H3124 0.931 . S
C3138 C3137 1.385 . S
C3138 C3139 1.389 . S
C3139 C3138 1.389 . S
C3139 C3140 1.387 . S
C3140 H3125 0.930 . S
C3140 C3135 1.390 . S
C3140 C3139 1.387 . S
H3141 C3153 0.930 . S
H3142 C3155 0.930 . S
H3143 C3156 0.930 . S
H3144 C3160 0.959 . S
H3145 C3160 0.959 . S
H3146 C3160 0.961 . S
H3147 C3161 0.960 . S
H3148 C3161 0.961 . S
H3149 C3161 0.959 . S
H3150 C3164 0.929 . S
H3151 C3165 0.931 . S
H3152 C3167 0.930 . S
C3153 H3141 0.930 . S
C3153 C3154 1.399 . S
C3153 C3158 1.399 . S
C3154 C3153 1.399 . S
C3154 C3155 1.376 . S
C3155 H3142 0.930 . S
C3155 C3154 1.376 . S
C3155 C3156 1.388 . S
C3156 H3143 0.930 . S
C3156 C3155 1.388 . S
C3156 C3157 1.390 . S
C3157 C3156 1.390 . S
C3157 C3158 1.394 . S
C3157 C3163 1.465 . S
C3158 C3153 1.399 . S
C3158 C3157 1.394 . S
C3158 C3159 1.516 . S
C3159 C3158 1.516 . S
C3159 C3160 1.502 . S
C3159 C3161 1.561 . S
C3159 C3162 1.526 . S
C3160 H3144 0.959 . S
C3160 H3145 0.959 . S
C3160 H3146 0.961 . S
C3160 C3159 1.502 . S
C3161 H3147 0.960 . S
C3161 H3148 0.961 . S
C3161 H3149 0.959 . S
C3161 C3159 1.561 . S
C3162 C3159 1.526 . S
C3162 C3163 1.396 . S
C3162 C3167 1.390 . S
C3163 C3157 1.465 . S
C3163 C3162 1.396 . S
C3163 C3164 1.399 . S
C3164 H3150 0.929 . S
C3164 C3163 1.399 . S
C3164 C3165 1.385 . S
C3165 H3151 0.931 . S
C3165 C3164 1.385 . S
C3165 C3166 1.389 . S
C3166 C3165 1.389 . S
C3166 C3167 1.387 . S
C3167 H3152 0.930 . S
C3167 C3162 1.390 . S
C3167 C3166 1.387 . S
H3168 C3180 0.930 . S
H3169 C3182 0.930 . S
H3170 C3183 0.930 . S
H3171 C3187 0.959 . S
H3172 C3187 0.959 . S
H3173 C3187 0.961 . S
H3174 C3188 0.960 . S
H3175 C3188 0.961 . S
H3176 C3188 0.959 . S
H3177 C3191 0.929 . S
H3178 C3192 0.931 . S
H3179 C3194 0.930 . S
C3180 H3168 0.930 . S
C3180 C3181 1.399 . S
C3180 C3185 1.399 . S
C3181 C3180 1.399 . S
C3181 C3182 1.376 . S
C3182 H3169 0.930 . S
C3182 C3181 1.376 . S
C3182 C3183 1.388 . S
C3183 H3170 0.930 . S
C3183 C3182 1.388 . S
C3183 C3184 1.390 . S
C3184 C3183 1.390 . S
C3184 C3185 1.394 . S
C3184 C3190 1.465 . S
C3185 C3180 1.399 . S
C3185 C3184 1.394 . S
C3185 C3186 1.516 . S
C3186 C3185 1.516 . S
C3186 C3187 1.502 . S
C3186 C3188 1.561 . S
C3186 C3189 1.526 . S
C3187 H3171 0.959 . S
C3187 H3172 0.959 . S
C3187 H3173 0.961 . S
C3187 C3186 1.502 . S
C3188 H3174 0.960 . S
C3188 H3175 0.961 . S
C3188 H3176 0.959 . S
C3188 C3186 1.561 . S
C3189 C3186 1.526 . S
C3189 C3190 1.396 . S
C3189 C3194 1.390 . S
C3190 C3184 1.465 . S
C3190 C3189 1.396 . S
C3190 C3191 1.399 . S
C3191 H3177 0.929 . S
C3191 C3190 1.399 . S
C3191 C3192 1.385 . S
C3192 H3178 0.931 . S
C3192 C3191 1.385 . S
C3192 C3193 1.389 . S
C3193 C3192 1.389 . S
C3193 C3194 1.387 . S
C3194 H3179 0.930 . S
C3194 C3189 1.390 . S
C3194 C3193 1.387 . S
H3195 C3207 0.930 . S
H3196 C3209 0.930 . S
H3197 C3210 0.930 . S
H3198 C3214 0.959 . S
H3199 C3214 0.959 . S
H3200 C3214 0.961 . S
H3201 C3215 0.960 . S
H3202 C3215 0.961 . S
H3203 C3215 0.959 . S
H3204 C3218 0.929 . S
H3205 C3219 0.931 . S
H3206 C3221 0.930 . S
C3207 H3195 0.930 . S
C3207 C3208 1.399 . S
C3207 C3212 1.399 . S
C3208 C3207 1.399 . S
C3208 C3209 1.376 . S
C3209 H3196 0.930 . S
C3209 C3208 1.376 . S
C3209 C3210 1.388 . S
C3210 H3197 0.930 . S
C3210 C3209 1.388 . S
C3210 C3211 1.390 . S
C3211 C3210 1.390 . S
C3211 C3212 1.394 . S
C3211 C3217 1.465 . S
C3212 C3207 1.399 . S
C3212 C3211 1.394 . S
C3212 C3213 1.516 . S
C3213 C3212 1.516 . S
C3213 C3214 1.502 . S
C3213 C3215 1.561 . S
C3213 C3216 1.526 . S
C3214 H3198 0.959 . S
C3214 H3199 0.959 . S
C3214 H3200 0.961 . S
C3214 C3213 1.502 . S
C3215 H3201 0.960 . S
C3215 H3202 0.961 . S
C3215 H3203 0.959 . S
C3215 C3213 1.561 . S
C3216 C3213 1.526 . S
C3216 C3217 1.396 . S
C3216 C3221 1.390 . S
C3217 C3211 1.465 . S
C3217 C3216 1.396 . S
C3217 C3218 1.399 . S
C3218 H3204 0.929 . S
C3218 C3217 1.399 . S
C3218 C3219 1.385 . S
C3219 H3205 0.931 . S
C3219 C3218 1.385 . S
C3219 C3220 1.389 . S
C3220 C3219 1.389 . S
C3220 C3221 1.387 . S
C3221 H3206 0.930 . S
C3221 C3216 1.390 . S
C3221 C3220 1.387 . S
H3222 C3234 0.930 . S
H3223 C3236 0.930 . S
H3224 C3237 0.930 . S
H3225 C3241 0.959 . S
H3226 C3241 0.959 . S
H3227 C3241 0.961 . S
H3228 C3242 0.960 . S
H3229 C3242 0.961 . S
H3230 C3242 0.959 . S
H3231 C3245 0.929 . S
H3232 C3246 0.931 . S
H3233 C3248 0.930 . S
C3234 H3222 0.930 . S
C3234 C3235 1.399 . S
C3234 C3239 1.399 . S
C3235 C3234 1.399 . S
C3235 C3236 1.376 . S
C3236 H3223 0.930 . S
C3236 C3235 1.376 . S
C3236 C3237 1.388 . S
C3237 H3224 0.930 . S
C3237 C3236 1.388 . S
C3237 C3238 1.390 . S
C3238 C3237 1.390 . S
C3238 C3239 1.394 . S
C3238 C3244 1.465 . S
C3239 C3234 1.399 . S
C3239 C3238 1.394 . S
C3239 C3240 1.516 . S
C3240 C3239 1.516 . S
C3240 C3241 1.502 . S
C3240 C3242 1.561 . S
C3240 C3243 1.526 . S
C3241 H3225 0.959 . S
C3241 H3226 0.959 . S
C3241 H3227 0.961 . S
C3241 C3240 1.502 . S
C3242 H3228 0.960 . S
C3242 H3229 0.961 . S
C3242 H3230 0.959 . S
C3242 C3240 1.561 . S
C3243 C3240 1.526 . S
C3243 C3244 1.396 . S
C3243 C3248 1.390 . S
C3244 C3238 1.465 . S
C3244 C3243 1.396 . S
C3244 C3245 1.399 . S
C3245 H3231 0.929 . S
C3245 C3244 1.399 . S
C3245 C3246 1.385 . S
C3246 H3232 0.931 . S
C3246 C3245 1.385 . S
C3246 C3247 1.389 . S
C3247 C3246 1.389 . S
C3247 C3248 1.387 . S
C3248 H3233 0.930 . S
C3248 C3243 1.390 . S
C3248 C3247 1.387 . S
H3249 C3261 0.930 . S
H3250 C3263 0.930 . S
H3251 C3264 0.930 . S
H3252 C3268 0.959 . S
H3253 C3268 0.959 . S
H3254 C3268 0.961 . S
H3255 C3269 0.960 . S
H3256 C3269 0.961 . S
H3257 C3269 0.959 . S
H3258 C3272 0.929 . S
H3259 C3273 0.931 . S
H3260 C3275 0.930 . S
C3261 H3249 0.930 . S
C3261 C3262 1.399 . S
C3261 C3266 1.399 . S
C3262 C3261 1.399 . S
C3262 C3263 1.376 . S
C3263 H3250 0.930 . S
C3263 C3262 1.376 . S
C3263 C3264 1.388 . S
C3264 H3251 0.930 . S
C3264 C3263 1.388 . S
C3264 C3265 1.390 . S
C3265 C3264 1.390 . S
C3265 C3266 1.394 . S
C3265 C3271 1.465 . S
C3266 C3261 1.399 . S
C3266 C3265 1.394 . S
C3266 C3267 1.516 . S
C3267 C3266 1.516 . S
C3267 C3268 1.502 . S
C3267 C3269 1.561 . S
C3267 C3270 1.526 . S
C3268 H3252 0.959 . S
C3268 H3253 0.959 . S
C3268 H3254 0.961 . S
C3268 C3267 1.502 . S
C3269 H3255 0.960 . S
C3269 H3256 0.961 . S
C3269 H3257 0.959 . S
C3269 C3267 1.561 . S
C3270 C3267 1.526 . S
C3270 C3271 1.396 . S
C3270 C3275 1.390 . S
C3271 C3265 1.465 . S
C3271 C3270 1.396 . S
C3271 C3272 1.399 . S
C3272 H3258 0.929 . S
C3272 C3271 1.399 . S
C3272 C3273 1.385 . S
C3273 H3259 0.931 . S
C3273 C3272 1.385 . S
C3273 C3274 1.389 . S
C3274 C3273 1.389 . S
C3274 C3275 1.387 . S
C3275 H3260 0.930 . S
C3275 C3270 1.390 . S
C3275 C3274 1.387 . S
H3276 C3288 0.930 . S
H3277 C3290 0.930 . S
H3278 C3291 0.930 . S
H3279 C3295 0.959 . S
H3280 C3295 0.959 . S
H3281 C3295 0.961 . S
H3282 C3296 0.960 . S
H3283 C3296 0.961 . S
H3284 C3296 0.959 . S
H3285 C3299 0.929 . S
H3286 C3300 0.931 . S
H3287 C3302 0.930 . S
C3288 H3276 0.930 . S
C3288 C3289 1.399 . S
C3288 C3293 1.399 . S
C3289 C3288 1.399 . S
C3289 C3290 1.376 . S
C3290 H3277 0.930 . S
C3290 C3289 1.376 . S
C3290 C3291 1.388 . S
C3291 H3278 0.930 . S
C3291 C3290 1.388 . S
C3291 C3292 1.390 . S
C3292 C3291 1.390 . S
C3292 C3293 1.394 . S
C3292 C3298 1.465 . S
C3293 C3288 1.399 . S
C3293 C3292 1.394 . S
C3293 C3294 1.516 . S
C3294 C3293 1.516 . S
C3294 C3295 1.502 . S
C3294 C3296 1.561 . S
C3294 C3297 1.526 . S
C3295 H3279 0.959 . S
C3295 H3280 0.959 . S
C3295 H3281 0.961 . S
C3295 C3294 1.502 . S
C3296 H3282 0.960 . S
C3296 H3283 0.961 . S
C3296 H3284 0.959 . S
C3296 C3294 1.561 . S
C3297 C3294 1.526 . S
C3297 C3298 1.396 . S
C3297 C3302 1.390 . S
C3298 C3292 1.465 . S
C3298 C3297 1.396 . S
C3298 C3299 1.399 . S
C3299 H3285 0.929 . S
C3299 C3298 1.399 . S
C3299 C3300 1.385 . S
C3300 H3286 0.931 . S
C3300 C3299 1.385 . S
C3300 C3301 1.389 . S
C3301 C3300 1.389 . S
C3301 C3302 1.387 . S
C3302 H3287 0.930 . S
C3302 C3297 1.390 . S
C3302 C3301 1.387 . S
H3303 C3315 0.930 . S
H3304 C3317 0.930 . S
H3305 C3318 0.930 . S
H3306 C3322 0.959 . S
H3307 C3322 0.959 . S
H3308 C3322 0.961 . S
H3309 C3323 0.960 . S
H3310 C3323 0.961 . S
H3311 C3323 0.959 . S
H3312 C3326 0.929 . S
H3313 C3327 0.931 . S
H3314 C3329 0.930 . S
C3315 H3303 0.930 . S
C3315 C3316 1.399 . S
C3315 C3320 1.399 . S
C3316 C3315 1.399 . S
C3316 C3317 1.376 . S
C3317 H3304 0.930 . S
C3317 C3316 1.376 . S
C3317 C3318 1.388 . S
C3318 H3305 0.930 . S
C3318 C3317 1.388 . S
C3318 C3319 1.390 . S
C3319 C3318 1.390 . S
C3319 C3320 1.394 . S
C3319 C3325 1.465 . S
C3320 C3315 1.399 . S
C3320 C3319 1.394 . S
C3320 C3321 1.516 . S
C3321 C3320 1.516 . S
C3321 C3322 1.502 . S
C3321 C3323 1.561 . S
C3321 C3324 1.526 . S
C3322 H3306 0.959 . S
C3322 H3307 0.959 . S
C3322 H3308 0.961 . S
C3322 C3321 1.502 . S
C3323 H3309 0.960 . S
C3323 H3310 0.961 . S
C3323 H3311 0.959 . S
C3323 C3321 1.561 . S
C3324 C3321 1.526 . S
C3324 C3325 1.396 . S
C3324 C3329 1.390 . S
C3325 C3319 1.465 . S
C3325 C3324 1.396 . S
C3325 C3326 1.399 . S
C3326 H3312 0.929 . S
C3326 C3325 1.399 . S
C3326 C3327 1.385 . S
C3327 H3313 0.931 . S
C3327 C3326 1.385 . S
C3327 C3328 1.389 . S
C3328 C3327 1.389 . S
C3328 C3329 1.387 . S
C3329 H3314 0.930 . S
C3329 C3324 1.390 . S
C3329 C3328 1.387 . S
H3330 C3342 0.930 . S
H3331 C3344 0.930 . S
H3332 C3345 0.930 . S
H3333 C3349 0.959 . S
H3334 C3349 0.959 . S
H3335 C3349 0.961 . S
H3336 C3350 0.960 . S
H3337 C3350 0.961 . S
H3338 C3350 0.959 . S
H3339 C3353 0.929 . S
H3340 C3354 0.931 . S
H3341 C3356 0.930 . S
C3342 H3330 0.930 . S
C3342 C3343 1.399 . S
C3342 C3347 1.399 . S
C3343 C3342 1.399 . S
C3343 C3344 1.376 . S
C3344 H3331 0.930 . S
C3344 C3343 1.376 . S
C3344 C3345 1.388 . S
C3345 H3332 0.930 . S
C3345 C3344 1.388 . S
C3345 C3346 1.390 . S
C3346 C3345 1.390 . S
C3346 C3347 1.394 . S
C3346 C3352 1.465 . S
C3347 C3342 1.399 . S
C3347 C3346 1.394 . S
C3347 C3348 1.516 . S
C3348 C3347 1.516 . S
C3348 C3349 1.502 . S
C3348 C3350 1.561 . S
C3348 C3351 1.526 . S
C3349 H3333 0.959 . S
C3349 H3334 0.959 . S
C3349 H3335 0.961 . S
C3349 C3348 1.502 . S
C3350 H3336 0.960 . S
C3350 H3337 0.961 . S
C3350 H3338 0.959 . S
C3350 C3348 1.561 . S
C3351 C3348 1.526 . S
C3351 C3352 1.396 . S
C3351 C3356 1.390 . S
C3352 C3346 1.465 . S
C3352 C3351 1.396 . S
C3352 C3353 1.399 . S
C3353 H3339 0.929 . S
C3353 C3352 1.399 . S
C3353 C3354 1.385 . S
C3354 H3340 0.931 . S
C3354 C3353 1.385 . S
C3354 C3355 1.389 . S
C3355 C3354 1.389 . S
C3355 C3356 1.387 . S
C3356 H3341 0.930 . S
C3356 C3351 1.390 . S
C3356 C3355 1.387 . S
H3357 C3369 0.930 . S
H3358 C3371 0.930 . S
H3359 C3372 0.930 . S
H3360 C3376 0.959 . S
H3361 C3376 0.959 . S
H3362 C3376 0.961 . S
H3363 C3377 0.960 . S
H3364 C3377 0.961 . S
H3365 C3377 0.959 . S
H3366 C3380 0.929 . S
H3367 C3381 0.931 . S
H3368 C3383 0.930 . S
C3369 H3357 0.930 . S
C3369 C3370 1.399 . S
C3369 C3374 1.399 . S
C3370 C3369 1.399 . S
C3370 C3371 1.376 . S
C3371 H3358 0.930 . S
C3371 C3370 1.376 . S
C3371 C3372 1.388 . S
C3372 H3359 0.930 . S
C3372 C3371 1.388 . S
C3372 C3373 1.390 . S
C3373 C3372 1.390 . S
C3373 C3374 1.394 . S
C3373 C3379 1.465 . S
C3374 C3369 1.399 . S
C3374 C3373 1.394 . S
C3374 C3375 1.516 . S
C3375 C3374 1.516 . S
C3375 C3376 1.502 . S
C3375 C3377 1.561 . S
C3375 C3378 1.526 . S
C3376 H3360 0.959 . S
C3376 H3361 0.959 . S
C3376 H3362 0.961 . S
C3376 C3375 1.502 . S
C3377 H3363 0.960 . S
C3377 H3364 0.961 . S
C3377 H3365 0.959 . S
C3377 C3375 1.561 . S
C3378 C3375 1.526 . S
C3378 C3379 1.396 . S
C3378 C3383 1.390 . S
C3379 C3373 1.465 . S
C3379 C3378 1.396 . S
C3379 C3380 1.399 . S
C3380 H3366 0.929 . S
C3380 C3379 1.399 . S
C3380 C3381 1.385 . S
C3381 H3367 0.931 . S
C3381 C3380 1.385 . S
C3381 C3382 1.389 . S
C3382 C3381 1.389 . S
C3382 C3383 1.387 . S
C3383 H3368 0.930 . S
C3383 C3378 1.390 . S
C3383 C3382 1.387 . S
H3384 C3396 0.930 . S
H3385 C3398 0.930 . S
H3386 C3399 0.930 . S
H3387 C3403 0.959 . S
H3388 C3403 0.959 . S
H3389 C3403 0.961 . S
H3390 C3404 0.960 . S
H3391 C3404 0.961 . S
H3392 C3404 0.959 . S
H3393 C3407 0.929 . S
H3394 C3408 0.931 . S
H3395 C3410 0.930 . S
C3396 H3384 0.930 . S
C3396 C3397 1.399 . S
C3396 C3401 1.399 . S
C3397 C3396 1.399 . S
C3397 C3398 1.376 . S
C3398 H3385 0.930 . S
C3398 C3397 1.376 . S
C3398 C3399 1.388 . S
C3399 H3386 0.930 . S
C3399 C3398 1.388 . S
C3399 C3400 1.390 . S
C3400 C3399 1.390 . S
C3400 C3401 1.394 . S
C3400 C3406 1.465 . S
C3401 C3396 1.399 . S
C3401 C3400 1.394 . S
C3401 C3402 1.516 . S
C3402 C3401 1.516 . S
C3402 C3403 1.502 . S
C3402 C3404 1.561 . S
C3402 C3405 1.526 . S
C3403 H3387 0.959 . S
C3403 H3388 0.959 . S
C3403 H3389 0.961 . S
C3403 C3402 1.502 . S
C3404 H3390 0.960 . S
C3404 H3391 0.961 . S
C3404 H3392 0.959 . S
C3404 C3402 1.561 . S
C3405 C3402 1.526 . S
C3405 C3406 1.396 . S
C3405 C3410 1.390 . S
C3406 C3400 1.465 . S
C3406 C3405 1.396 . S
C3406 C3407 1.399 . S
C3407 H3393 0.929 . S
C3407 C3406 1.399 . S
C3407 C3408 1.385 . S
C3408 H3394 0.931 . S
C3408 C3407 1.385 . S
C3408 C3409 1.389 . S
C3409 C3408 1.389 . S
C3409 C3410 1.387 . S
C3410 H3395 0.930 . S
C3410 C3405 1.390 . S
C3410 C3409 1.387 . S
H3411 C3423 0.930 . S
H3412 C3425 0.930 . S
H3413 C3426 0.930 . S
H3414 C3430 0.959 . S
H3415 C3430 0.959 . S
H3416 C3430 0.961 . S
H3417 C3431 0.960 . S
H3418 C3431 0.961 . S
H3419 C3431 0.959 . S
H3420 C3434 0.929 . S
H3421 C3435 0.931 . S
H3422 C3437 0.930 . S
C3423 H3411 0.930 . S
C3423 C3424 1.399 . S
C3423 C3428 1.399 . S
C3424 C3423 1.399 . S
C3424 C3425 1.376 . S
C3425 H3412 0.930 . S
C3425 C3424 1.376 . S
C3425 C3426 1.388 . S
C3426 H3413 0.930 . S
C3426 C3425 1.388 . S
C3426 C3427 1.390 . S
C3427 C3426 1.390 . S
C3427 C3428 1.394 . S
C3427 C3433 1.465 . S
C3428 C3423 1.399 . S
C3428 C3427 1.394 . S
C3428 C3429 1.516 . S
C3429 C3428 1.516 . S
C3429 C3430 1.502 . S
C3429 C3431 1.561 . S
C3429 C3432 1.526 . S
C3430 H3414 0.959 . S
C3430 H3415 0.959 . S
C3430 H3416 0.961 . S
C3430 C3429 1.502 . S
C3431 H3417 0.960 . S
C3431 H3418 0.961 . S
C3431 H3419 0.959 . S
C3431 C3429 1.561 . S
C3432 C3429 1.526 . S
C3432 C3433 1.396 . S
C3432 C3437 1.390 . S
C3433 C3427 1.465 . S
C3433 C3432 1.396 . S
C3433 C3434 1.399 . S
C3434 H3420 0.929 . S
C3434 C3433 1.399 . S
C3434 C3435 1.385 . S
C3435 H3421 0.931 . S
C3435 C3434 1.385 . S
C3435 C3436 1.389 . S
C3436 C3435 1.389 . S
C3436 C3437 1.387 . S
C3437 H3422 0.930 . S
C3437 C3432 1.390 . S
C3437 C3436 1.387 . S
H3438 C3450 0.930 . S
H3439 C3452 0.930 . S
H3440 C3453 0.930 . S
H3441 C3457 0.959 . S
H3442 C3457 0.959 . S
H3443 C3457 0.961 . S
H3444 C3458 0.960 . S
H3445 C3458 0.961 . S
H3446 C3458 0.959 . S
H3447 C3461 0.929 . S
H3448 C3462 0.931 . S
H3449 C3464 0.930 . S
C3450 H3438 0.930 . S
C3450 C3451 1.399 . S
C3450 C3455 1.399 . S
C3451 C3450 1.399 . S
C3451 C3452 1.376 . S
C3452 H3439 0.930 . S
C3452 C3451 1.376 . S
C3452 C3453 1.388 . S
C3453 H3440 0.930 . S
C3453 C3452 1.388 . S
C3453 C3454 1.390 . S
C3454 C3453 1.390 . S
C3454 C3455 1.394 . S
C3454 C3460 1.465 . S
C3455 C3450 1.399 . S
C3455 C3454 1.394 . S
C3455 C3456 1.516 . S
C3456 C3455 1.516 . S
C3456 C3457 1.502 . S
C3456 C3458 1.561 . S
C3456 C3459 1.526 . S
C3457 H3441 0.959 . S
C3457 H3442 0.959 . S
C3457 H3443 0.961 . S
C3457 C3456 1.502 . S
C3458 H3444 0.960 . S
C3458 H3445 0.961 . S
C3458 H3446 0.959 . S
C3458 C3456 1.561 . S
C3459 C3456 1.526 . S
C3459 C3460 1.396 . S
C3459 C3464 1.390 . S
C3460 C3454 1.465 . S
C3460 C3459 1.396 . S
C3460 C3461 1.399 . S
C3461 H3447 0.929 . S
C3461 C3460 1.399 . S
C3461 C3462 1.385 . S
C3462 H3448 0.931 . S
C3462 C3461 1.385 . S
C3462 C3463 1.389 . S
C3463 C3462 1.389 . S
C3463 C3464 1.387 . S
C3464 H3449 0.930 . S
C3464 C3459 1.390 . S
C3464 C3463 1.387 . S
H3465 C3477 0.930 . S
H3466 C3479 0.930 . S
H3467 C3480 0.930 . S
H3468 C3484 0.959 . S
H3469 C3484 0.959 . S
H3470 C3484 0.961 . S
H3471 C3485 0.960 . S
H3472 C3485 0.961 . S
H3473 C3485 0.959 . S
H3474 C3488 0.929 . S
H3475 C3489 0.931 . S
H3476 C3491 0.930 . S
C3477 H3465 0.930 . S
C3477 C3478 1.399 . S
C3477 C3482 1.399 . S
C3478 C3477 1.399 . S
C3478 C3479 1.376 . S
C3479 H3466 0.930 . S
C3479 C3478 1.376 . S
C3479 C3480 1.388 . S
C3480 H3467 0.930 . S
C3480 C3479 1.388 . S
C3480 C3481 1.390 . S
C3481 C3480 1.390 . S
C3481 C3482 1.394 . S
C3481 C3487 1.465 . S
C3482 C3477 1.399 . S
C3482 C3481 1.394 . S
C3482 C3483 1.516 . S
C3483 C3482 1.516 . S
C3483 C3484 1.502 . S
C3483 C3485 1.561 . S
C3483 C3486 1.526 . S
C3484 H3468 0.959 . S
C3484 H3469 0.959 . S
C3484 H3470 0.961 . S
C3484 C3483 1.502 . S
C3485 H3471 0.960 . S
C3485 H3472 0.961 . S
C3485 H3473 0.959 . S
C3485 C3483 1.561 . S
C3486 C3483 1.526 . S
C3486 C3487 1.396 . S
C3486 C3491 1.390 . S
C3487 C3481 1.465 . S
C3487 C3486 1.396 . S
C3487 C3488 1.399 . S
C3488 H3474 0.929 . S
C3488 C3487 1.399 . S
C3488 C3489 1.385 . S
C3489 H3475 0.931 . S
C3489 C3488 1.385 . S
C3489 C3490 1.389 . S
C3490 C3489 1.389 . S
C3490 C3491 1.387 . S
C3491 H3476 0.930 . S
C3491 C3486 1.390 . S
C3491 C3490 1.387 . S
H3492 C3504 0.930 . S
H3493 C3506 0.930 . S
H3494 C3507 0.930 . S
H3495 C3511 0.959 . S
H3496 C3511 0.959 . S
H3497 C3511 0.961 . S
H3498 C3512 0.960 . S
H3499 C3512 0.961 . S
H3500 C3512 0.959 . S
H3501 C3515 0.929 . S
H3502 C3516 0.931 . S
H3503 C3518 0.930 . S
C3504 H3492 0.930 . S
C3504 C3505 1.399 . S
C3504 C3509 1.399 . S
C3505 C3504 1.399 . S
C3505 C3506 1.376 . S
C3506 H3493 0.930 . S
C3506 C3505 1.376 . S
C3506 C3507 1.388 . S
C3507 H3494 0.930 . S
C3507 C3506 1.388 . S
C3507 C3508 1.390 . S
C3508 C3507 1.390 . S
C3508 C3509 1.394 . S
C3508 C3514 1.465 . S
C3509 C3504 1.399 . S
C3509 C3508 1.394 . S
C3509 C3510 1.516 . S
C3510 C3509 1.516 . S
C3510 C3511 1.502 . S
C3510 C3512 1.561 . S
C3510 C3513 1.526 . S
C3511 H3495 0.959 . S
C3511 H3496 0.959 . S
C3511 H3497 0.961 . S
C3511 C3510 1.502 . S
C3512 H3498 0.960 . S
C3512 H3499 0.961 . S
C3512 H3500 0.959 . S
C3512 C3510 1.561 . S
C3513 C3510 1.526 . S
C3513 C3514 1.396 . S
C3513 C3518 1.390 . S
C3514 C3508 1.465 . S
C3514 C3513 1.396 . S
C3514 C3515 1.399 . S
C3515 H3501 0.929 . S
C3515 C3514 1.399 . S
C3515 C3516 1.385 . S
C3516 H3502 0.931 . S
C3516 C3515 1.385 . S
C3516 C3517 1.389 . S
C3517 C3516 1.389 . S
C3517 C3518 1.387 . S
C3518 H3503 0.930 . S
C3518 C3513 1.390 . S
C3518 C3517 1.387 . S
H3519 C3531 0.930 . S
H3520 C3533 0.930 . S
H3521 C3534 0.930 . S
H3522 C3538 0.959 . S
H3523 C3538 0.959 . S
H3524 C3538 0.961 . S
H3525 C3539 0.960 . S
H3526 C3539 0.961 . S
H3527 C3539 0.959 . S
H3528 C3542 0.929 . S
H3529 C3543 0.931 . S
H3530 C3545 0.930 . S
C3531 H3519 0.930 . S
C3531 C3532 1.399 . S
C3531 C3536 1.399 . S
C3532 C3531 1.399 . S
C3532 C3533 1.376 . S
C3533 H3520 0.930 . S
C3533 C3532 1.376 . S
C3533 C3534 1.388 . S
C3534 H3521 0.930 . S
C3534 C3533 1.388 . S
C3534 C3535 1.390 . S
C3535 C3534 1.390 . S
C3535 C3536 1.394 . S
C3535 C3541 1.465 . S
C3536 C3531 1.399 . S
C3536 C3535 1.394 . S
C3536 C3537 1.516 . S
C3537 C3536 1.516 . S
C3537 C3538 1.502 . S
C3537 C3539 1.561 . S
C3537 C3540 1.526 . S
C3538 H3522 0.959 . S
C3538 H3523 0.959 . S
C3538 H3524 0.961 . S
C3538 C3537 1.502 . S
C3539 H3525 0.960 . S
C3539 H3526 0.961 . S
C3539 H3527 0.959 . S
C3539 C3537 1.561 . S
C3540 C3537 1.526 . S
C3540 C3541 1.396 . S
C3540 C3545 1.390 . S
C3541 C3535 1.465 . S
C3541 C3540 1.396 . S
C3541 C3542 1.399 . S
C3542 H3528 0.929 . S
C3542 C3541 1.399 . S
C3542 C3543 1.385 . S
C3543 H3529 0.931 . S
C3543 C3542 1.385 . S
C3543 C3544 1.389 . S
C3544 C3543 1.389 . S
C3544 C3545 1.387 . S
C3545 H3530 0.930 . S
C3545 C3540 1.390 . S
C3545 C3544 1.387 . S
H3546 C3558 0.930 . S
H3547 C3560 0.930 . S
H3548 C3561 0.930 . S
H3549 C3565 0.959 1_655 S
H3550 C3565 0.959 1_655 S
H3551 C3565 0.961 . S
H3552 C3566 0.960 . S
H3553 C3566 0.961 . S
H3554 C3566 0.959 . S
H3555 C3569 0.929 . S
H3556 C3570 0.931 . S
H3557 C3572 0.930 . S
C3558 H3546 0.930 . S
C3558 C3559 1.399 . S
C3558 C3563 1.399 . S
C3559 C3558 1.399 . S
C3559 C3560 1.376 . S
C3560 H3547 0.930 . S
C3560 C3559 1.376 . S
C3560 C3561 1.388 . S
C3561 H3548 0.930 . S
C3561 C3560 1.388 . S
C3561 C3562 1.390 . S
C3562 C3561 1.390 . S
C3562 C3563 1.394 . S
C3562 C3568 1.465 1_455 S
C3563 C3558 1.399 . S
C3563 C3562 1.394 . S
C3563 C3564 1.516 . S
C3564 C3563 1.516 . S
C3564 C3565 1.502 . S
C3564 C3566 1.561 . S
C3564 C3567 1.526 1_455 S
C3565 H3549 0.959 1_455 S
C3565 H3550 0.959 1_455 S
C3565 H3551 0.961 . S
C3565 C3564 1.502 . S
C3566 H3552 0.960 . S
C3566 H3553 0.961 . S
C3566 H3554 0.959 . S
C3566 C3564 1.561 . S
C3567 C3564 1.526 1_655 S
C3567 C3568 1.396 . S
C3567 C3572 1.390 . S
C3568 C3562 1.465 1_655 S
C3568 C3567 1.396 . S
C3568 C3569 1.399 . S
C3569 H3555 0.929 . S
C3569 C3568 1.399 . S
C3569 C3570 1.385 . S
C3570 H3556 0.931 . S
C3570 C3569 1.385 . S
C3570 C3571 1.389 . S
C3571 C3570 1.389 . S
C3571 C3572 1.387 . S
C3572 H3557 0.930 . S
C3572 C3567 1.390 . S
C3572 C3571 1.387 . S
H3573 C3585 0.930 . S
H3574 C3587 0.930 . S
H3575 C3588 0.930 . S
H3576 C3592 0.959 . S
H3577 C3592 0.959 . S
H3578 C3592 0.961 . S
H3579 C3593 0.960 . S
H3580 C3593 0.961 . S
H3581 C3593 0.959 . S
H3582 C3596 0.929 . S
H3583 C3597 0.931 . S
H3584 C3599 0.930 . S
C3585 H3573 0.930 . S
C3585 C3586 1.399 . S
C3585 C3590 1.399 . S
C3586 C3585 1.399 . S
C3586 C3587 1.376 . S
C3587 H3574 0.930 . S
C3587 C3586 1.376 . S
C3587 C3588 1.388 . S
C3588 H3575 0.930 . S
C3588 C3587 1.388 . S
C3588 C3589 1.390 . S
C3589 C3588 1.390 . S
C3589 C3590 1.394 . S
C3589 C3595 1.465 . S
C3590 C3585 1.399 . S
C3590 C3589 1.394 . S
C3590 C3591 1.516 . S
C3591 C3590 1.516 . S
C3591 C3592 1.502 . S
C3591 C3593 1.561 . S
C3591 C3594 1.526 . S
C3592 H3576 0.959 . S
C3592 H3577 0.959 . S
C3592 H3578 0.961 . S
C3592 C3591 1.502 . S
C3593 H3579 0.960 . S
C3593 H3580 0.961 . S
C3593 H3581 0.959 . S
C3593 C3591 1.561 . S
C3594 C3591 1.526 . S
C3594 C3595 1.396 . S
C3594 C3599 1.390 . S
C3595 C3589 1.465 . S
C3595 C3594 1.396 . S
C3595 C3596 1.399 . S
C3596 H3582 0.929 . S
C3596 C3595 1.399 . S
C3596 C3597 1.385 . S
C3597 H3583 0.931 . S
C3597 C3596 1.385 . S
C3597 C3598 1.389 . S
C3598 C3597 1.389 . S
C3598 C3599 1.387 . S
C3599 H3584 0.930 . S
C3599 C3594 1.390 . S
C3599 C3598 1.387 . S
H3600 C3612 0.930 . S
H3601 C3614 0.930 . S
H3602 C3615 0.930 . S
H3603 C3619 0.954 1_565 S
H3604 C3619 0.959 1_565 S
H3605 C3619 0.961 . S
H3606 C3620 0.960 . S
H3607 C3620 0.961 . S
H3608 C3620 0.959 . S
H3609 C3623 0.929 . S
H3610 C3624 0.931 . S
H3611 C3626 0.930 . S
C3612 H3600 0.930 . S
C3612 C3613 1.399 . S
C3612 C3617 1.399 . S
C3613 C3612 1.399 . S
C3613 C3614 1.376 . S
C3614 H3601 0.930 . S
C3614 C3613 1.376 . S
C3614 C3615 1.388 . S
C3615 H3602 0.930 . S
C3615 C3614 1.388 . S
C3615 C3616 1.390 . S
C3616 C3615 1.390 . S
C3616 C3617 1.394 . S
C3616 C3622 1.465 1_545 S
C3617 C3612 1.399 . S
C3617 C3616 1.394 . S
C3617 C3618 1.516 . S
C3618 C3617 1.516 . S
C3618 C3619 1.502 . S
C3618 C3620 1.561 . S
C3618 C3621 1.526 1_545 S
C3619 H3603 0.954 1_545 S
C3619 H3604 0.959 1_545 S
C3619 H3605 0.961 . S
C3619 C3618 1.502 . S
C3620 H3606 0.960 . S
C3620 H3607 0.961 . S
C3620 H3608 0.959 . S
C3620 C3618 1.561 . S
C3621 C3618 1.526 1_565 S
C3621 C3622 1.396 . S
C3621 C3626 1.390 . S
C3622 C3616 1.465 1_565 S
C3622 C3621 1.396 . S
C3622 C3623 1.399 . S
C3623 H3609 0.929 . S
C3623 C3622 1.399 . S
C3623 C3624 1.385 . S
C3624 H3610 0.931 . S
C3624 C3623 1.385 . S
C3624 C3625 1.389 . S
C3625 C3624 1.389 . S
C3625 C3626 1.387 . S
C3626 H3611 0.930 . S
C3626 C3621 1.390 . S
C3626 C3625 1.387 . S
H3627 C3639 0.930 . S
H3628 C3641 0.930 . S
H3629 C3642 0.930 . S
H3630 C3646 0.959 . S
H3631 C3646 0.959 . S
H3632 C3646 0.961 . S
H3633 C3647 0.960 . S
H3634 C3647 0.961 . S
H3635 C3647 0.959 . S
H3636 C3650 0.929 . S
H3637 C3651 0.931 . S
H3638 C3653 0.930 . S
C3639 H3627 0.930 . S
C3639 C3640 1.399 . S
C3639 C3644 1.399 . S
C3640 C3639 1.399 . S
C3640 C3641 1.376 . S
C3641 H3628 0.930 . S
C3641 C3640 1.376 . S
C3641 C3642 1.388 . S
C3642 H3629 0.930 . S
C3642 C3641 1.388 . S
C3642 C3643 1.390 . S
C3643 C3642 1.390 . S
C3643 C3644 1.394 . S
C3643 C3649 1.465 1_545 S
C3644 C3639 1.399 . S
C3644 C3643 1.394 . S
C3644 C3645 1.516 1_545 S
C3645 C3644 1.516 1_565 S
C3645 C3646 1.502 . S
C3645 C3647 1.561 . S
C3645 C3648 1.526 . S
C3646 H3630 0.959 . S
C3646 H3631 0.959 . S
C3646 H3632 0.961 . S
C3646 C3645 1.502 . S
C3647 H3633 0.960 . S
C3647 H3634 0.961 . S
C3647 H3635 0.959 . S
C3647 C3645 1.561 . S
C3648 C3645 1.526 . S
C3648 C3649 1.396 . S
C3648 C3653 1.390 . S
C3649 C3643 1.465 1_565 S
C3649 C3648 1.396 . S
C3649 C3650 1.399 . S
C3650 H3636 0.929 . S
C3650 C3649 1.399 . S
C3650 C3651 1.385 . S
C3651 H3637 0.931 . S
C3651 C3650 1.385 . S
C3651 C3652 1.389 . S
C3652 C3651 1.389 . S
C3652 C3653 1.387 . S
C3653 H3638 0.930 . S
C3653 C3648 1.390 . S
C3653 C3652 1.387 . S
H3654 C3666 0.930 . S
H3655 C3668 0.930 . S
H3656 C3669 0.930 . S
H3657 C3673 0.959 . S
H3658 C3673 0.959 . S
H3659 C3673 0.961 . S
H3660 C3674 0.960 . S
H3661 C3674 0.961 . S
H3662 C3674 0.959 . S
H3663 C3677 0.929 . S
H3664 C3678 0.931 . S
H3665 C3680 0.930 . S
C3666 H3654 0.930 . S
C3666 C3667 1.399 . S
C3666 C3671 1.399 . S
C3667 C3666 1.399 . S
C3667 C3668 1.376 . S
C3668 H3655 0.930 . S
C3668 C3667 1.376 . S
C3668 C3669 1.388 . S
C3669 H3656 0.930 . S
C3669 C3668 1.388 . S
C3669 C3670 1.390 . S
C3670 C3669 1.390 . S
C3670 C3671 1.394 . S
C3670 C3676 1.465 1_455 S
C3671 C3666 1.399 . S
C3671 C3670 1.394 . S
C3671 C3672 1.516 . S
C3672 C3671 1.516 . S
C3672 C3673 1.502 . S
C3672 C3674 1.561 . S
C3672 C3675 1.526 1_455 S
C3673 H3657 0.959 . S
C3673 H3658 0.959 . S
C3673 H3659 0.961 . S
C3673 C3672 1.502 . S
C3674 H3660 0.960 . S
C3674 H3661 0.961 . S
C3674 H3662 0.959 . S
C3674 C3672 1.561 . S
C3675 C3672 1.526 1_655 S
C3675 C3676 1.396 . S
C3675 C3680 1.390 . S
C3676 C3670 1.465 1_655 S
C3676 C3675 1.396 . S
C3676 C3677 1.399 . S
C3677 H3663 0.929 . S
C3677 C3676 1.399 . S
C3677 C3678 1.385 . S
C3678 H3664 0.931 . S
C3678 C3677 1.385 . S
C3678 C3679 1.389 . S
C3679 C3678 1.389 . S
C3679 C3680 1.387 . S
C3680 H3665 0.930 . S
C3680 C3675 1.390 . S
C3680 C3679 1.387 . S
H3681 C3693 0.930 . S
H3682 C3695 0.930 . S
H3683 C3696 0.930 . S
H3684 C3700 0.959 . S
H3685 C3700 0.959 . S
H3686 C3700 0.961 . S
H3687 C3701 0.960 . S
H3688 C3701 0.961 . S
H3689 C3701 0.959 . S
H3690 C3704 0.929 . S
H3691 C3705 0.931 . S
H3692 C3707 0.930 . S
C3693 H3681 0.930 . S
C3693 C3694 1.399 . S
C3693 C3698 1.399 . S
C3694 C3693 1.399 . S
C3694 C3695 1.376 . S
C3695 H3682 0.930 . S
C3695 C3694 1.376 . S
C3695 C3696 1.388 . S
C3696 H3683 0.930 . S
C3696 C3695 1.388 . S
C3696 C3697 1.390 . S
C3697 C3696 1.390 . S
C3697 C3698 1.394 . S
C3697 C3703 1.465 . S
C3698 C3693 1.399 . S
C3698 C3697 1.394 . S
C3698 C3699 1.516 . S
C3699 C3698 1.516 . S
C3699 C3700 1.502 . S
C3699 C3701 1.561 . S
C3699 C3702 1.526 . S
C3700 H3684 0.959 . S
C3700 H3685 0.959 . S
C3700 H3686 0.961 . S
C3700 C3699 1.502 . S
C3701 H3687 0.960 . S
C3701 H3688 0.961 . S
C3701 H3689 0.959 . S
C3701 C3699 1.561 . S
C3702 C3699 1.526 . S
C3702 C3703 1.396 . S
C3702 C3707 1.390 . S
C3703 C3697 1.465 . S
C3703 C3702 1.396 . S
C3703 C3704 1.399 . S
C3704 H3690 0.929 . S
C3704 C3703 1.399 . S
C3704 C3705 1.385 . S
C3705 H3691 0.931 . S
C3705 C3704 1.385 . S
C3705 C3706 1.389 . S
C3706 C3705 1.389 . S
C3706 C3707 1.387 . S
C3707 H3692 0.930 . S
C3707 C3702 1.390 . S
C3707 C3706 1.387 . S
C805 C5 1.217 . S
C817 C158 1.212 . S
C832 C27 1.214 . S
C844 C180 1.196 . S
C859 C49 1.282 . S
C871 C136 1.286 . S
C886 C71 1.297 . S
C898 C246 1.288 . S
C913 C202 1.267 . S
C925 C93 1.303 . S
C940 C224 1.283 . S
C952 C115 1.275 . S
C967 C26 1.241 . S
C979 C138 1.217 . S
C994 C160 1.222 . S
C1006 C48 1.194 . S
C1021 C182 1.214 . S
C1033 C4 1.233 . S
C1048 C114 1.185 . S
C1060 C204 1.230 . S
C1075 C226 1.303 . S
C1087 C70 1.232 . S
C1102 C248 1.275 . S
C1114 C92 1.288 . S
C1129 C269 1.220 . S
C1141 C422 1.218 . S
C1156 C291 1.236 . S
C1168 C444 1.245 . S
C1183 C400 1.185 . S
C1195 C313 1.247 . S
C1210 C510 1.194 . S
C1222 C335 1.258 . S
C1237 C466 1.251 . S
C1249 C357 1.298 . S
C1264 C379 1.219 . S
C1276 C488 1.215 . S
C1291 C290 1.236 . S
C1303 C402 1.216 . S
C1318 C312 1.187 . S
C1330 C424 1.276 . S
C1345 C268 1.178 . S
C1357 C446 1.245 . S
C1372 C378 1.181 . S
C1384 C468 1.236 . S
C1399 C490 1.216 . S
C1411 C334 1.206 . S
C1426 C356 1.266 . S
C1438 C512 1.301 . S
C1453 C533 1.218 . S
C1465 C686 1.214 . S
C1480 C708 1.277 . S
C1492 C555 1.304 . S
C1507 C577 1.236 . S
C1519 C664 1.181 . S
C1534 C599 1.304 . S
C1546 C774 1.277 . S
C1561 C730 1.212 . S
C1573 C621 1.219 . S
C1588 C752 1.285 . S
C1600 C643 1.279 . S
C1615 C666 1.237 . S
C1627 C554 1.181 . S
C1642 C688 1.300 . S
C1654 C576 1.221 . S
C1669 C710 1.249 . S
C1681 C532 1.283 . S
C1696 C642 1.201 . S
C1708 C732 1.219 . S
C1723 C598 1.281 . S
C1735 C754 1.244 . S
C1750 C620 1.229 . S
C1762 C776 1.215 . S
C1777 C7 0.971 . S
C1789 C52 0.923 . S
C1804 C29 0.974 . S
C1816 C8 1.011 . S
C1831 C30 0.973 . S
C1843 C51 1.009 . S
C1858 C96 0.979 . S
C1870 C73 1.011 . S
C1885 C95 0.912 . S
C1897 C118 0.893 . S
C1912 C74 1.005 . S
C1924 C117 1.011 . S
C1939 C141 0.896 . S
C1951 C184 0.921 . S
C1966 C163 1.011 . S
C1978 C140 1.003 . S
C1993 C185 0.920 . S
C2005 C162 0.916 . S
C2020 C228 1.014 . S
C2032 C207 1.010 . S
C2047 C229 1.011 . S
C2059 C250 1.004 . S
C2074 C206 0.973 . S
C2086 C251 0.951 . S
C2101 C316 0.925 . S
C2113 C271 0.880 . S
C2128 C293 0.981 . S
C2140 C272 1.013 . S
C2155 C315 0.911 . S
C2167 C294 0.893 . S
C2182 C337 0.896 . S
C2194 C360 0.893 . S
C2209 C382 0.990 . S
C2221 C359 1.013 . S
C2236 C381 0.905 . S
C2248 C338 0.892 . S
C2263 C405 0.981 . S
C2275 C448 0.970 . S
C2290 C427 0.897 . S
C2302 C404 0.923 . S
C2317 C426 1.005 . S
C2329 C449 0.992 . S
C2344 C492 1.012 . S
C2356 C471 1.013 . S
C2371 C493 1.007 . S
C2383 C514 0.998 . S
C2398 C515 1.015 . S
C2410 C470 1.011 . S
C2425 C580 0.961 . S
C2437 C535 1.003 . S
C2452 C557 0.905 . S
C2464 C536 0.892 . S
C2479 C579 0.968 . S
C2491 C558 1.009 . S
C2506 C624 0.949 . S
C2518 C601 0.891 . S
C2533 C623 0.988 . S
C2545 C646 1.013 . S
C2560 C645 0.995 . S
C2572 C602 1.014 . S
C2587 C669 0.960 . S
C2599 C712 0.949 . S
C2614 C691 1.006 . S
C2626 C668 0.997 . S
C2641 C690 0.997 . S
C2653 C713 0.981 . S
C2668 C756 0.918 . S
C2680 C735 0.924 . S
C2695 C778 0.895 . S
C2707 C757 0.893 . S
C2722 C734 0.895 . S
C2734 C779 0.892 . S
C2749 C97 1.438 . S
C2761 C9 1.429 . S
C2776 C119 1.430 . S
C2788 C31 1.436 . S
C2803 C75 1.424 . S
C2815 C53 1.443 . S
C2830 C227 1.459 . S
C2842 C139 1.423 . S
C2857 C249 1.424 . S
C2869 C161 1.431 . S
C2884 C183 1.460 . S
C2896 C205 1.436 . S
C2911 C361 1.436 . S
C2923 C273 1.452 . S
C2938 C383 1.420 . S
C2950 C295 1.461 . S
C2965 C317 1.417 . S
C2977 C339 1.453 . S
C2992 C491 1.459 . S
C3004 C403 1.423 . S
C3019 C425 1.417 . S
C3031 C513 1.451 . S
C3046 C469 1.459 . S
C3058 C447 1.423 . S
C3073 C537 1.420 . S
C3085 C625 1.461 . S
C3100 C647 1.461 . S
C3112 C559 1.421 . S
C3127 C603 1.419 . S
C3139 C581 1.450 . S
C3154 C755 1.457 . S
C3166 C667 1.420 . S
C3181 C777 1.450 . S
C3193 C689 1.452 . S
C3208 C733 1.444 . S
C3220 C711 1.417 . S
C3235 C644 1.308 . S
C3247 C6 1.303 . S
C3262 C28 1.330 . S
C3274 C600 1.334 . S
C3289 C50 1.294 . S
C3301 C622 1.292 . S
C3316 C72 1.314 . S
C3328 C292 1.321 . S
C3343 C94 1.334 . S
C3355 C314 1.333 . S
C3370 C116 1.303 . S
C3382 C270 1.298 . S
C3397 C511 1.333 . S
C3409 C137 1.317 . S
C3424 C467 1.336 . S
C3436 C159 1.329 . S
C3451 C489 1.291 . S
C3463 C181 1.303 . S
C3478 C203 1.316 . S
C3490 C687 1.332 . S
C3505 C225 1.326 . S
C3517 C709 1.334 . S
C3532 C665 1.336 . S
C3544 C247 1.327 . S
C3559 C556 1.332 . S
C3571 C336 1.334 . S
C3586 C578 1.313 . S
C3598 C358 1.320 . S
C3613 C380 1.331 . S
C3625 C534 1.334 . S
C3640 C401 1.332 . S
C3652 C775 1.316 . S
C3667 C731 1.294 . S
C3679 C423 1.309 . S
C3694 C753 1.318 . S
C3706 C445 1.299 . S
