# Generated by pormake.
# Topology dmp, (4)-cn, num edge types: 1
# Building blocks:
#     Node 0, Type 0, BuildingBlock: ESEHIV_clean_sbu_0, # of connection points: 4
#     Node 1, Type 0, BuildingBlock: ESEHIV_clean_sbu_0, # of connection points: 4
#     Node 2, Type 0, BuildingBlock: ESEHIV_clean_sbu_0, # of connection points: 4
#     Node 3, Type 0, BuildingBlock: ESEHIV_clean_sbu_0, # of connection points: 4
#     Edge 4, Type (0, 0), BuildingBlock: UVAHIK_clean_linker_0, # of connection points: 2
#     Edge 5, Type (0, 0), BuildingBlock: UVAHIK_clean_linker_0, # of connection points: 2
#     Edge 6, Type (0, 0), BuildingBlock: UVAHIK_clean_linker_0, # of connection points: 2
#     Edge 7, Type (0, 0), BuildingBlock: UVAHIK_clean_linker_0, # of connection points: 2
#     Edge 8, Type (0, 0), BuildingBlock: UVAHIK_clean_linker_0, # of connection points: 2
#     Edge 9, Type (0, 0), BuildingBlock: UVAHIK_clean_linker_0, # of connection points: 2
#     Edge 10, Type (0, 0), BuildingBlock: UVAHIK_clean_linker_0, # of connection points: 2
#     Edge 11, Type (0, 0), BuildingBlock: UVAHIK_clean_linker_0, # of connection points: 2
# Relax obj value: 0.000
# Max RMSD: 0.012
# Mean RMSD: 0.012
data_MOF--net-dmp--node1-ESEHIV_clean_sbu_0--edge1-UVAHIK_clean_linker_0
_symmetry_space_group_name_H-M    P1
_symmetry_Int_Tables_number       1
_symmetry_cell_setting            triclinic
loop_
_symmetry_equiv_pos_as_xyz
'x, y, z'
_cell_length_a     49.485002
_cell_length_b     31.409986
_cell_length_c     7.1928701
_cell_angle_alpha  89.862827
_cell_angle_beta   90.038098
_cell_angle_gamma 97.824516
loop_
_atom_site_label
_atom_site_type_symbol
_atom_site_fract_x
_atom_site_fract_y
_atom_site_fract_z
_atom_type_partial_charge
Cu0 Cu 0.14968 0.28176 0.21322 0.0
N1 N 0.17476 0.26037 0.05506 0.0
N2 N 0.20158 0.21361 0.95056 0.0
C3 C 0.18176 0.22055 0.07121 0.0
C4 C 0.20718 0.2506 0.85336 0.0
C5 C 0.19071 0.27953 0.91927 0.0
O6 O 0.12137 0.23308 0.25704 0.0
C7 C 0.19442 0.31308 0.45016 0.0
O8 O 0.20839 0.28773 0.35612 0.0
H9 H 0.17278 0.19736 0.17281 0.0
H10 H 0.19107 0.31258 0.87676 0.0
N11 N 0.13227 0.32604 0.11382 0.0
N12 N 0.10648 0.37952 0.12576 0.0
C13 C 0.11539 0.34643 0.21725 0.0
C14 C 0.13422 0.3466 0.94914 0.0
C15 C 0.11826 0.37954 0.95588 0.0
C16 C 0.10854 0.22077 0.10832 0.0
O17 O 0.1149 0.24256 0.95466 0.0
H18 H 0.11002 0.33697 0.35852 0.0
H19 H 0.14664 0.33881 0.83379 0.0
O20 O 0.16862 0.30951 0.42885 0.0
H21 H 0.22284 0.25693 0.74815 0.0
H22 H 0.11616 0.40229 0.8454 0.0
Cu23 Cu 0.38462 0.76262 0.21432 0.0
N24 N 0.35966 0.78453 0.05567 0.0
N25 N 0.33323 0.83193 0.95058 0.0
C26 C 0.35106 0.82296 0.08235 0.0
C27 C 0.33055 0.79774 0.83526 0.0
C28 C 0.34677 0.7684 0.90133 0.0
O29 O 0.41293 0.8113 0.2581 0.0
C30 C 0.33978 0.72649 0.43903 0.0
O31 O 0.32491 0.74694 0.32754 0.0
H32 H 0.35793 0.84406 0.19669 0.0
H33 H 0.34871 0.73736 0.84298 0.0
N34 N 0.40226 0.71853 0.11627 0.0
N35 N 0.42821 0.66522 0.13051 0.0
C36 C 0.41822 0.69707 0.22325 0.0
C37 C 0.40206 0.69994 0.94795 0.0
C38 C 0.41805 0.66707 0.95625 0.0
C39 C 0.42489 0.82471 0.10755 0.0
O40 O 0.4178 0.80377 0.95326 0.0
H41 H 0.42231 0.70516 0.36744 0.0
H42 H 0.39107 0.70932 0.8281 0.0
O43 O 0.36572 0.73473 0.43058 0.0
H44 H 0.31736 0.79378 0.71468 0.0
H45 H 0.42148 0.64593 0.84276 0.0
Cu46 Cu 0.88486 0.76263 0.79063 0.0
N47 N 0.86039 0.78501 0.95084 0.0
N48 N 0.83432 0.83281 0.05587 0.0
C49 C 0.85178 0.82342 0.92277 0.0
C50 C 0.83191 0.79893 0.17352 0.0
C51 C 0.84791 0.76934 0.10755 0.0
O52 O 0.91328 0.81099 0.74364 0.0
C53 C 0.83952 0.72658 0.57072 0.0
O54 O 0.82488 0.74629 0.68615 0.0
H55 H 0.85837 0.84419 0.80643 0.0
H56 H 0.84995 0.73846 0.16766 0.0
N57 N 0.9024 0.71818 0.88781 0.0
N58 N 0.92827 0.66478 0.87282 0.0
C59 C 0.91826 0.69678 0.78039 0.0
C60 C 0.90228 0.69939 0.05606 0.0
C61 C 0.91821 0.66648 0.0473 0.0
C62 C 0.92633 0.8234 0.89142 0.0
O63 O 0.92009 0.80185 0.04583 0.0
H64 H 0.92228 0.70504 0.63616 0.0
H65 H 0.89143 0.70872 0.17631 0.0
O66 O 0.86547 0.73508 0.57585 0.0
H67 H 0.81904 0.79533 0.29571 0.0
H68 H 0.92169 0.64525 0.16081 0.0
Cu69 Cu 0.64998 0.28193 0.78797 0.0
N70 N 0.67553 0.26095 0.9443 0.0
N71 N 0.7027 0.21451 0.0484 0.0
C72 C 0.68262 0.22116 0.92907 0.0
C73 C 0.7084 0.25165 0.14372 0.0
C74 C 0.69172 0.28037 0.07803 0.0
O75 O 0.62173 0.23301 0.74773 0.0
C76 C 0.69416 0.31337 0.54659 0.0
O77 O 0.70828 0.28766 0.63795 0.0
H78 H 0.67347 0.19779 0.8292 0.0
H79 H 0.69205 0.31346 0.11932 0.0
N80 N 0.63257 0.32599 0.88806 0.0
N81 N 0.60681 0.37952 0.8766 0.0
C82 C 0.6157 0.34658 0.78478 0.0
C83 C 0.63451 0.34626 0.05301 0.0
C84 C 0.61856 0.37923 0.04656 0.0
C85 C 0.60998 0.21979 0.89925 0.0
O86 O 0.61723 0.24099 0.05266 0.0
H87 H 0.61035 0.33739 0.64333 0.0
H88 H 0.64694 0.33827 0.16827 0.0
O89 O 0.66842 0.30985 0.57057 0.0
H90 H 0.72425 0.25819 0.24757 0.0
H91 H 0.61647 0.40182 0.15722 0.0
C92 C 0.31329 0.88728 0.76835 0.0
C93 C 0.31958 0.86974 0.94053 0.0
C94 C 0.30104 0.92503 0.7602 0.0
C95 C 0.28795 1.01838 0.05525 0.0
H96 H 0.23604 0.03596 0.66804 0.0
C97 C 0.21869 0.15156 0.101 0.0
C98 C 0.21529 0.17586 0.94023 0.0
C99 C 0.23202 0.1151 0.09278 0.0
C100 C 0.2507 0.03171 0.77608 0.0
H101 H 0.31681 0.87704 0.2389 0.0
H102 H 0.29479 0.94155 0.2259 0.0
H103 H 0.25751 0.9704 0.66981 0.0
H104 H 0.22306 0.18053 0.64415 0.0
H105 H 0.24625 0.11634 0.62903 0.0
H106 H 0.28059 0.07917 0.16385 0.0
C107 C 0.30019 0.92745 0.09621 0.0
C108 C 0.26311 0.99409 0.77705 0.0
C109 C 0.31274 0.89019 0.10408 0.0
C110 C 0.2255 0.16262 0.77046 0.0
C111 C 0.23858 0.1257 0.76171 0.0
C112 C 0.27534 0.05564 0.05532 0.0
C113 C 0.29443 0.94587 0.92427 0.0
C114 C 0.28176 0.98664 0.91784 0.0
C115 C 0.24213 0.10162 0.92319 0.0
C116 C 0.25638 0.06267 0.9168 0.0
H117 H 0.3185 0.87242 0.63996 0.0
H118 H 0.29729 0.93828 0.62501 0.0
H119 H 0.30271 1.01469 0.16321 0.0
H120 H 0.21137 0.16109 0.23433 0.0
H121 H 0.23416 0.09716 0.21953 0.0
C122 C 0.19619 0.38848 0.57134 0.0
C123 C 0.20923 0.35204 0.54018 0.0
C124 C 0.21138 0.42798 0.61826 0.0
C125 C 0.2817 0.48444 0.56106 0.0
H126 H 0.25356 0.57512 0.83427 0.0
C127 C 0.342 0.6543 0.58629 0.0
C128 C 0.32665 0.68703 0.53502 0.0
C129 C 0.32895 0.61347 0.63658 0.0
C130 C 0.26172 0.55011 0.75772 0.0
H131 H 0.24811 0.32766 0.55139 0.0
H132 H 0.27441 0.39592 0.63905 0.0
H133 H 0.22825 0.50261 0.83455 0.0
H134 H 0.28563 0.70349 0.51249 0.0
H135 H 0.26297 0.63257 0.60042 0.0
H136 H 0.31483 0.53193 0.4811 0.0
C137 C 0.2526 0.39456 0.6205 0.0
C138 C 0.24717 0.5085 0.75731 0.0
C139 C 0.23746 0.35522 0.57177 0.0
C140 C 0.29807 0.67896 0.54999 0.0
C141 C 0.28505 0.63825 0.60131 0.0
C142 C 0.29629 0.52585 0.56251 0.0
C143 C 0.23996 0.43194 0.63697 0.0
C144 C 0.2567 0.47521 0.656 0.0
C145 C 0.30027 0.60449 0.63819 0.0
C146 C 0.28628 0.55946 0.65788 0.0
H147 H 0.17446 0.38725 0.54818 0.0
H148 H 0.20083 0.45589 0.62885 0.0
H149 H 0.28954 0.46015 0.47809 0.0
H150 H 0.36405 0.65933 0.57652 0.0
H151 H 0.34132 0.58841 0.66726 0.0
C152 C 0.71963 0.15234 0.8993 0.0
C153 C 0.71648 0.17684 0.05932 0.0
C154 C 0.733 0.11591 0.90813 0.0
C155 C 0.75223 0.03299 0.22718 0.0
H156 H 0.80351 1.01531 0.83707 0.0
C157 C 0.8148 0.88856 0.23693 0.0
C158 C 0.82074 0.87069 0.06513 0.0
C159 C 0.80258 0.92634 0.24424 0.0
C160 C 0.78895 1.0192 0.94593 0.0
H161 H 0.72474 0.18193 0.35469 0.0
H162 H 0.748 0.1178 0.37089 0.0
H163 H 0.7814 0.07981 0.83518 0.0
H164 H 0.8174 0.87748 0.76664 0.0
H165 H 0.79546 0.94205 0.77829 0.0
H166 H 0.75923 0.97186 0.33568 0.0
C167 C 0.7401 0.12697 0.23834 0.0
C168 C 0.77635 0.05646 0.94512 0.0
C169 C 0.72699 0.16386 0.22894 0.0
C170 C 0.8136 0.89088 0.90115 0.0
C171 C 0.80109 0.92818 0.90822 0.0
C172 C 0.76464 0.99537 0.22699 0.0
C173 C 0.7434 0.10267 0.07761 0.0
C174 C 0.75765 0.06373 0.08469 0.0
C175 C 0.79567 0.9469 0.0797 0.0
C176 C 0.78302 0.98768 0.0852 0.0
H177 H 0.71209 0.16168 0.76608 0.0
H178 H 0.73494 0.0978 0.78197 0.0
H179 H 0.73777 0.03743 0.33608 0.0
H180 H 0.82025 0.87392 0.36564 0.0
H181 H 0.7991 0.93983 0.37907 0.0
C182 C 0.79765 0.67947 0.46039 0.0
C183 C 0.82625 0.68753 0.47317 0.0
C184 C 0.78455 0.63897 0.40746 0.0
C185 C 0.7959 0.52648 0.43785 0.0
H186 H 0.72743 0.50429 0.17008 0.0
C187 C 0.73703 0.35593 0.42398 0.0
C188 C 0.70884 0.35263 0.45744 0.0
C189 C 0.7521 0.39543 0.37615 0.0
C190 C 0.74647 0.50988 0.2461 0.0
H191 H 0.86359 0.66009 0.42641 0.0
H192 H 0.84074 0.58953 0.33286 0.0
H193 H 0.75272 0.57681 0.17271 0.0
H194 H 0.67407 0.38787 0.45373 0.0
H195 H 0.70032 0.45679 0.37479 0.0
H196 H 0.78929 0.46047 0.5189 0.0
C197 C 0.82841 0.61443 0.36636 0.0
C198 C 0.76102 0.55149 0.24702 0.0
C199 C 0.84152 0.65507 0.41824 0.0
C200 C 0.69576 0.38918 0.42908 0.0
C201 C 0.71089 0.42885 0.38312 0.0
C202 C 0.78132 0.48508 0.43802 0.0
C203 C 0.79974 0.60542 0.3668 0.0
C204 C 0.78573 0.56046 0.34539 0.0
C205 C 0.73945 0.43287 0.36255 0.0
C206 C 0.75616 0.47621 0.34463 0.0
H207 H 0.78526 0.70381 0.50081 0.0
H208 H 0.76247 0.63325 0.41003 0.0
H209 H 0.81456 0.53226 0.51807 0.0
H210 H 0.74771 0.32831 0.44222 0.0
H211 H 0.77388 0.39685 0.35606 0.0
C212 C 0.08448 0.15149 0.24524 0.0
C213 C 0.08828 0.18133 0.09849 0.0
C214 C 0.06684 0.11276 0.22396 0.0
C215 C 0.03398 0.0404 0.85377 0.0
H216 H 0.98793 0.9907 0.25554 0.0
C217 C 0.95028 0.89259 0.75273 0.0
C218 C 0.94666 0.86278 0.89968 0.0
C219 C 0.96793 0.93135 0.77313 0.0
C220 C 1.00087 1.00385 0.14214 0.0
H221 H 0.07563 0.19451 0.81722 0.0
H222 H 0.04493 0.12816 0.78216 0.0
H223 H 1.01771 0.05806 0.30512 0.0
H224 H 0.95968 0.84964 0.18013 0.0
H225 H 0.99037 0.91604 0.21368 0.0
H226 H 1.01711 0.98618 0.69079 0.0
C227 C 0.05594 0.13379 0.91191 0.0
C228 C 1.018 0.04255 0.17093 0.0
C229 C 0.07348 0.17217 0.93292 0.0
C230 C 0.96168 0.87196 0.06435 0.0
C231 C 0.97921 0.91037 0.08451 0.0
C232 C 1.01683 1.0017 0.82496 0.0
C233 C 0.05268 0.10317 0.05556 0.0
C234 C 0.03477 0.06142 0.02708 0.0
C235 C 0.98226 0.94098 0.94085 0.0
C236 C 1.0001 0.98281 0.96891 0.0
H237 H 0.0956 0.15752 0.37435 0.0
H238 H 0.0649 0.08986 0.33755 0.0
H239 H 0.04693 0.05353 0.7404 0.0
H240 H 0.93899 0.88654 0.62428 0.0
H241 H 0.96973 0.95425 0.65954 0.0
C242 C 0.57841 0.1675 0.08544 0.0
C243 C 0.58987 0.18017 0.91149 0.0
C244 C 0.56049 0.12947 0.10511 0.0
C245 C 0.53985 0.02407 0.88514 0.0
H246 H 0.47804 1.01971 0.21961 0.0
C247 C 0.45673 0.87709 0.92389 0.0
C248 C 0.44509 0.86426 0.09713 0.0
C249 C 0.47474 0.91506 0.90564 0.0
C250 C 0.49542 1.02018 0.12786 0.0
H251 H 0.59102 0.16274 0.62058 0.0
H252 H 0.5592 0.09606 0.65432 0.0
H253 H 0.50747 0.08754 0.16942 0.0
H254 H 0.44369 0.88136 0.38831 0.0
H255 H 0.47567 0.94796 0.35706 0.0
H256 H 0.52781 0.95672 0.84357 0.0
C257 C 0.5645 0.11561 0.77623 0.0
C258 C 0.51227 0.05916 0.09832 0.0
C259 C 0.58259 0.15393 0.75642 0.0
C260 C 0.45227 0.89029 0.25299 0.0
C261 C 0.47045 0.92857 0.23461 0.0
C262 C 0.52301 0.98509 0.91472 0.0
C263 C 0.55332 0.10285 0.95136 0.0
C264 C 0.53474 0.06164 0.97664 0.0
C265 C 0.48182 0.94147 0.06015 0.0
C266 C 0.50051 0.98263 0.0361 0.0
H267 H 0.58356 0.18668 0.20861 0.0
H268 H 0.55274 0.12047 0.24253 0.0
H269 H 0.55722 0.02453 0.79329 0.0
H270 H 0.45167 0.85808 0.80012 0.0
H271 H 0.48261 0.92418 0.76866 0.0
C272 C 0.95047 0.63296 0.60569 0.0
C273 C 0.9458 0.63531 0.79859 0.0
C274 C 0.96778 0.60539 0.53378 0.0
C275 C 0.0235 0.54291 0.66697 0.0
H276 H 1.00583 0.48592 0.19602 0.0
C277 C 0.08412 0.41152 0.39105 0.0
C278 C 0.08889 0.40899 0.19843 0.0
C279 C 0.06681 0.43923 0.46178 0.0
C280 C 1.01132 0.50197 0.32645 0.0
H281 H 0.95594 0.6091 0.0652 0.0
H282 H 0.98546 0.56035 0.9395 0.0
H283 H 0.97521 0.53252 0.32596 0.0
H284 H 0.07897 0.43478 0.93072 0.0
H285 H 0.04942 0.48391 0.05442 0.0
H286 H 0.0596 0.51237 0.66752 0.0
C287 C 0.97607 0.58069 0.84412 0.0
C288 C 0.99368 0.52876 0.40148 0.0
C289 C 0.95882 0.60853 0.91651 0.0
C290 C 0.07598 0.43566 0.07933 0.0
C291 C 0.05873 0.46365 0.15053 0.0
C292 C 0.04114 0.51613 0.59196 0.0
C293 C 0.98086 0.57882 0.65148 0.0
C294 C 0.9995 0.54965 0.57292 0.0
C295 C 0.05386 0.46577 0.34306 0.0
C296 C 0.03529 0.49517 0.42072 0.0
H297 H 0.9408 0.65229 0.50815 0.0
H298 H 0.97125 0.60548 0.3853 0.0
H299 H 0.029 0.55894 0.79742 0.0
H300 H 0.09379 0.39232 0.48915 0.0
H301 H 0.06328 0.43933 0.61018 0.0
C302 C 0.45011 0.63257 0.39755 0.0
C303 C 0.44577 0.63569 0.20447 0.0
C304 C 0.46747 0.60498 0.4693 0.0
C305 C 0.52385 0.54389 0.33703 0.0
H306 H 0.50577 0.48501 0.80433 0.0
C307 C 0.58476 0.41234 0.61128 0.0
C308 C 0.58924 0.40913 0.80408 0.0
C309 C 0.56744 0.44013 0.54063 0.0
C310 C 0.51138 0.50159 0.67497 0.0
H311 H 0.45655 0.61087 0.93729 0.0
H312 H 0.48614 0.56198 0.06259 0.0
H313 H 0.47505 0.53158 0.67434 0.0
H314 H 0.57883 0.43377 0.07222 0.0
H315 H 0.54924 0.48307 0.94876 0.0
H316 H 0.56017 0.51389 0.33758 0.0
C317 C 0.47646 0.58175 0.15834 0.0
C318 C 0.49367 0.52837 0.59989 0.0
C319 C 0.45917 0.60963 0.08613 0.0
C320 C 0.57606 0.43521 0.92348 0.0
C321 C 0.55879 0.46328 0.85238 0.0
C322 C 0.54155 0.51711 0.41208 0.0
C323 C 0.48093 0.57912 0.35123 0.0
C324 C 0.49964 0.54994 0.42973 0.0
C325 C 0.55419 0.46606 0.65964 0.0
C326 C 0.53556 0.49548 0.58204 0.0
H327 H 0.44012 0.65131 0.49527 0.0
H328 H 0.47068 0.60447 0.61801 0.0
H329 H 0.52946 0.56046 0.20766 0.0
H330 H 0.59468 0.3936 0.51306 0.0
H331 H 0.56414 0.44076 0.39203 0.0
loop_
_geom_bond_atom_site_label_1
_geom_bond_atom_site_label_2
_geom_bond_distance
_geom_bond_site_symmetry_2
_ccdc_geom_bond_type
Cu0 N1 1.999 . S
Cu0 O6 1.974 . S
Cu0 N11 1.985 . S
Cu0 O20 1.959 . S
N1 Cu0 1.999 . S
N1 C3 1.263 . S
N1 C5 1.389 . S
N2 C3 1.358 . S
N2 C4 1.400 . S
C3 N1 1.263 . S
C3 N2 1.358 . S
C3 H9 0.930 . S
C4 N2 1.400 . S
C4 C5 1.351 . S
C4 H21 0.930 . S
C5 N1 1.389 . S
C5 C4 1.351 . S
C5 H10 0.930 . S
O6 Cu0 1.974 . S
O6 C16 1.282 . S
C7 O8 1.261 . S
C7 O20 1.251 . S
O8 C7 1.261 . S
H9 C3 0.930 . S
H10 C5 0.930 . S
N11 Cu0 1.985 . S
N11 C13 1.335 . S
N11 C14 1.390 . S
N12 C13 1.345 . S
N12 C15 1.336 . S
C13 N11 1.335 . S
C13 N12 1.345 . S
C13 H18 0.930 . S
C14 N11 1.390 . S
C14 C15 1.346 . S
C14 H19 0.930 . S
C15 N12 1.336 . S
C15 C14 1.346 . S
C15 H22 0.929 . S
C16 O6 1.282 . S
C16 O17 1.216 . S
O17 C16 1.216 . S
H18 C13 0.930 . S
H19 C14 0.930 . S
O20 Cu0 1.959 . S
O20 C7 1.251 . S
H21 C4 0.930 . S
H22 C15 0.929 . S
Cu23 N24 1.999 . S
Cu23 O29 1.974 . S
Cu23 N34 1.985 . S
Cu23 O43 1.959 . S
N24 Cu23 1.999 . S
N24 C26 1.263 . S
N24 C28 1.389 . S
N25 C26 1.358 . S
N25 C27 1.400 . S
C26 N24 1.263 . S
C26 N25 1.358 . S
C26 H32 0.930 . S
C27 N25 1.400 . S
C27 C28 1.351 . S
C27 H44 0.930 . S
C28 N24 1.389 . S
C28 C27 1.351 . S
C28 H33 0.930 . S
O29 Cu23 1.974 . S
O29 C39 1.282 . S
C30 O31 1.261 . S
C30 O43 1.251 . S
O31 C30 1.261 . S
H32 C26 0.930 . S
H33 C28 0.930 . S
N34 Cu23 1.985 . S
N34 C36 1.335 . S
N34 C37 1.390 . S
N35 C36 1.345 . S
N35 C38 1.336 . S
C36 N34 1.335 . S
C36 N35 1.345 . S
C36 H41 0.930 . S
C37 N34 1.390 . S
C37 C38 1.346 . S
C37 H42 0.930 . S
C38 N35 1.336 . S
C38 C37 1.346 . S
C38 H45 0.929 . S
C39 O29 1.282 . S
C39 O40 1.216 . S
O40 C39 1.216 . S
H41 C36 0.930 . S
H42 C37 0.930 . S
O43 Cu23 1.959 . S
O43 C30 1.251 . S
H44 C27 0.930 . S
H45 C38 0.929 . S
Cu46 N47 1.999 . S
Cu46 O52 1.974 . S
Cu46 N57 1.985 . S
Cu46 O66 1.959 . S
N47 Cu46 1.999 . S
N47 C49 1.263 . S
N47 C51 1.389 . S
N48 C49 1.358 . S
N48 C50 1.400 . S
C49 N47 1.263 . S
C49 N48 1.358 . S
C49 H55 0.930 . S
C50 N48 1.400 . S
C50 C51 1.351 . S
C50 H67 0.930 . S
C51 N47 1.389 . S
C51 C50 1.351 . S
C51 H56 0.930 . S
O52 Cu46 1.974 . S
O52 C62 1.282 . S
C53 O54 1.261 . S
C53 O66 1.251 . S
O54 C53 1.261 . S
H55 C49 0.930 . S
H56 C51 0.930 . S
N57 Cu46 1.985 . S
N57 C59 1.335 . S
N57 C60 1.390 . S
N58 C59 1.345 . S
N58 C61 1.336 . S
C59 N57 1.335 . S
C59 N58 1.345 . S
C59 H64 0.930 . S
C60 N57 1.390 . S
C60 C61 1.346 . S
C60 H65 0.930 . S
C61 N58 1.336 . S
C61 C60 1.346 . S
C61 H68 0.929 . S
C62 O52 1.282 . S
C62 O63 1.216 . S
O63 C62 1.216 . S
H64 C59 0.930 . S
H65 C60 0.930 . S
O66 Cu46 1.959 . S
O66 C53 1.251 . S
H67 C50 0.930 . S
H68 C61 0.929 . S
Cu69 N70 1.999 . S
Cu69 O75 1.974 . S
Cu69 N80 1.985 . S
Cu69 O89 1.959 . S
N70 Cu69 1.999 . S
N70 C72 1.263 . S
N70 C74 1.389 . S
N71 C72 1.358 . S
N71 C73 1.400 . S
C72 N70 1.263 . S
C72 N71 1.358 . S
C72 H78 0.930 . S
C73 N71 1.400 . S
C73 C74 1.351 . S
C73 H90 0.930 . S
C74 N70 1.389 . S
C74 C73 1.351 . S
C74 H79 0.930 . S
O75 Cu69 1.974 . S
O75 C85 1.282 . S
C76 O77 1.261 . S
C76 O89 1.251 . S
O77 C76 1.261 . S
H78 C72 0.930 . S
H79 C74 0.930 . S
N80 Cu69 1.985 . S
N80 C82 1.335 . S
N80 C83 1.390 . S
N81 C82 1.345 . S
N81 C84 1.336 . S
C82 N80 1.335 . S
C82 N81 1.345 . S
C82 H87 0.930 . S
C83 N80 1.390 . S
C83 C84 1.346 . S
C83 H88 0.930 . S
C84 N81 1.336 . S
C84 C83 1.346 . S
C84 H91 0.929 . S
C85 O75 1.282 . S
C85 O86 1.216 . S
O86 C85 1.216 . S
H87 C82 0.930 . S
H88 C83 0.930 . S
O89 Cu69 1.959 . S
O89 C76 1.251 . S
H90 C73 0.930 . S
H91 C84 0.929 . S
C92 C93 1.349 . S
C92 C94 1.327 . S
C92 H117 0.950 . S
C93 C92 1.349 . S
C93 C109 1.349 . S
C94 C92 1.327 . S
C94 C113 1.429 . S
C94 H118 0.950 . S
C95 C112 1.574 1_565 S
C95 C114 1.368 . S
C95 H119 0.949 . S
H96 C100 0.949 . S
C97 C98 1.349 . S
C97 C99 1.327 . S
C97 H120 0.950 . S
C98 C97 1.349 . S
C98 C110 1.349 . S
C99 C97 1.327 . S
C99 C115 1.429 . S
C99 H121 0.950 . S
C100 H96 0.949 . S
C100 C108 1.574 1_545 S
C100 C116 1.368 . S
H101 C109 0.950 . S
H102 C107 0.950 . S
H103 C108 0.949 . S
H104 C110 0.950 . S
H105 C111 0.950 . S
H106 C112 0.949 . S
C107 H102 0.950 . S
C107 C109 1.327 . S
C107 C113 1.429 . S
C108 C100 1.574 1_565 S
C108 H103 0.949 . S
C108 C114 1.368 . S
C109 C93 1.349 . S
C109 H101 0.950 . S
C109 C107 1.327 . S
C110 C98 1.349 . S
C110 H104 0.950 . S
C110 C111 1.327 . S
C111 H105 0.950 . S
C111 C110 1.327 . S
C111 C115 1.429 . S
C112 C95 1.574 1_545 S
C112 H106 0.949 . S
C112 C116 1.368 . S
C113 C94 1.429 . S
C113 C107 1.429 . S
C113 C114 1.523 . S
C114 C95 1.368 . S
C114 C108 1.368 . S
C114 C113 1.523 . S
C115 C99 1.429 . S
C115 C111 1.429 . S
C115 C116 1.523 . S
C116 C100 1.368 . S
C116 C112 1.368 . S
C116 C115 1.523 . S
H117 C92 0.950 . S
H118 C94 0.950 . S
H119 C95 0.949 . S
H120 C97 0.950 . S
H121 C99 0.950 . S
C122 C123 1.349 . S
C122 C124 1.327 . S
C122 H147 0.950 . S
C123 C122 1.349 . S
C123 C139 1.349 . S
C124 C122 1.327 . S
C124 C143 1.429 . S
C124 H148 0.950 . S
C125 C142 1.574 . S
C125 C144 1.368 . S
C125 H149 0.949 . S
H126 C130 0.949 . S
C127 C128 1.349 . S
C127 C129 1.327 . S
C127 H150 0.950 . S
C128 C127 1.349 . S
C128 C140 1.349 . S
C129 C127 1.327 . S
C129 C145 1.429 . S
C129 H151 0.950 . S
C130 H126 0.949 . S
C130 C138 1.574 . S
C130 C146 1.368 . S
H131 C139 0.950 . S
H132 C137 0.950 . S
H133 C138 0.949 . S
H134 C140 0.950 . S
H135 C141 0.950 . S
H136 C142 0.949 . S
C137 H132 0.950 . S
C137 C139 1.327 . S
C137 C143 1.429 . S
C138 C130 1.574 . S
C138 H133 0.949 . S
C138 C144 1.368 . S
C139 C123 1.349 . S
C139 H131 0.950 . S
C139 C137 1.327 . S
C140 C128 1.349 . S
C140 H134 0.950 . S
C140 C141 1.327 . S
C141 H135 0.950 . S
C141 C140 1.327 . S
C141 C145 1.429 . S
C142 C125 1.574 . S
C142 H136 0.949 . S
C142 C146 1.368 . S
C143 C124 1.429 . S
C143 C137 1.429 . S
C143 C144 1.523 . S
C144 C125 1.368 . S
C144 C138 1.368 . S
C144 C143 1.523 . S
C145 C129 1.429 . S
C145 C141 1.429 . S
C145 C146 1.523 . S
C146 C130 1.368 . S
C146 C142 1.368 . S
C146 C145 1.523 . S
H147 C122 0.950 . S
H148 C124 0.950 . S
H149 C125 0.949 . S
H150 C127 0.950 . S
H151 C129 0.950 . S
C152 C153 1.349 . S
C152 C154 1.327 . S
C152 H177 0.950 . S
C153 C152 1.349 . S
C153 C169 1.349 . S
C154 C152 1.327 . S
C154 C173 1.429 . S
C154 H178 0.950 . S
C155 C172 1.574 1_545 S
C155 C174 1.368 . S
C155 H179 0.949 . S
H156 C160 0.949 . S
C157 C158 1.349 . S
C157 C159 1.327 . S
C157 H180 0.950 . S
C158 C157 1.349 . S
C158 C170 1.349 . S
C159 C157 1.327 . S
C159 C175 1.429 . S
C159 H181 0.950 . S
C160 H156 0.949 . S
C160 C168 1.574 1_565 S
C160 C176 1.368 . S
H161 C169 0.950 . S
H162 C167 0.950 . S
H163 C168 0.949 . S
H164 C170 0.950 . S
H165 C171 0.950 . S
H166 C172 0.949 . S
C167 H162 0.950 . S
C167 C169 1.327 . S
C167 C173 1.429 . S
C168 C160 1.574 1_545 S
C168 H163 0.949 . S
C168 C174 1.368 . S
C169 C153 1.349 . S
C169 H161 0.950 . S
C169 C167 1.327 . S
C170 C158 1.349 . S
C170 H164 0.950 . S
C170 C171 1.327 . S
C171 H165 0.950 . S
C171 C170 1.327 . S
C171 C175 1.429 . S
C172 C155 1.574 1_565 S
C172 H166 0.949 . S
C172 C176 1.368 . S
C173 C154 1.429 . S
C173 C167 1.429 . S
C173 C174 1.523 . S
C174 C155 1.368 . S
C174 C168 1.368 . S
C174 C173 1.523 . S
C175 C159 1.429 . S
C175 C171 1.429 . S
C175 C176 1.523 . S
C176 C160 1.368 . S
C176 C172 1.368 . S
C176 C175 1.523 . S
H177 C152 0.950 . S
H178 C154 0.950 . S
H179 C155 0.949 . S
H180 C157 0.950 . S
H181 C159 0.950 . S
C182 C183 1.349 . S
C182 C184 1.327 . S
C182 H207 0.950 . S
C183 C182 1.349 . S
C183 C199 1.349 . S
C184 C182 1.327 . S
C184 C203 1.429 . S
C184 H208 0.950 . S
C185 C202 1.574 . S
C185 C204 1.368 . S
C185 H209 0.949 . S
H186 C190 0.949 . S
C187 C188 1.349 . S
C187 C189 1.327 . S
C187 H210 0.950 . S
C188 C187 1.349 . S
C188 C200 1.349 . S
C189 C187 1.327 . S
C189 C205 1.429 . S
C189 H211 0.950 . S
C190 H186 0.949 . S
C190 C198 1.574 . S
C190 C206 1.368 . S
H191 C199 0.950 . S
H192 C197 0.950 . S
H193 C198 0.949 . S
H194 C200 0.950 . S
H195 C201 0.950 . S
H196 C202 0.949 . S
C197 H192 0.950 . S
C197 C199 1.327 . S
C197 C203 1.429 . S
C198 C190 1.574 . S
C198 H193 0.949 . S
C198 C204 1.368 . S
C199 C183 1.349 . S
C199 H191 0.950 . S
C199 C197 1.327 . S
C200 C188 1.349 . S
C200 H194 0.950 . S
C200 C201 1.327 . S
C201 H195 0.950 . S
C201 C200 1.327 . S
C201 C205 1.429 . S
C202 C185 1.574 . S
C202 H196 0.949 . S
C202 C206 1.368 . S
C203 C184 1.429 . S
C203 C197 1.429 . S
C203 C204 1.523 . S
C204 C185 1.368 . S
C204 C198 1.368 . S
C204 C203 1.523 . S
C205 C189 1.429 . S
C205 C201 1.429 . S
C205 C206 1.523 . S
C206 C190 1.368 . S
C206 C202 1.368 . S
C206 C205 1.523 . S
H207 C182 0.950 . S
H208 C184 0.950 . S
H209 C185 0.949 . S
H210 C187 0.950 . S
H211 C189 0.950 . S
C212 C213 1.349 . S
C212 C214 1.327 . S
C212 H237 0.950 . S
C213 C212 1.349 . S
C213 C229 1.349 . S
C214 C212 1.327 . S
C214 C233 1.429 . S
C214 H238 0.950 . S
C215 C232 1.574 1_545 S
C215 C234 1.368 1_556 S
C215 H239 0.949 . S
H216 C220 0.949 . S
C217 C218 1.349 . S
C217 C219 1.327 . S
C217 H240 0.950 . S
C218 C217 1.349 . S
C218 C230 1.349 . S
C219 C217 1.327 . S
C219 C235 1.429 . S
C219 H241 0.950 . S
C220 H216 0.949 . S
C220 C228 1.574 1_565 S
C220 C236 1.368 1_554 S
H221 C229 0.950 1_556 S
H222 C227 0.950 . S
H223 C228 0.949 . S
H224 C230 0.950 1_554 S
H225 C231 0.950 . S
H226 C232 0.949 . S
C227 H222 0.950 . S
C227 C229 1.327 1_556 S
C227 C233 1.429 1_556 S
C228 C220 1.574 1_545 S
C228 H223 0.949 . S
C228 C234 1.368 1_655 S
C229 C213 1.349 . S
C229 H221 0.950 1_554 S
C229 C227 1.327 1_554 S
C230 C218 1.349 . S
C230 H224 0.950 1_556 S
C230 C231 1.327 1_556 S
C231 H225 0.950 . S
C231 C230 1.327 1_554 S
C231 C235 1.429 1_554 S
C232 C215 1.574 1_565 S
C232 H226 0.949 . S
C232 C236 1.368 1_455 S
C233 C214 1.429 . S
C233 C227 1.429 1_554 S
C233 C234 1.523 . S
C234 C215 1.368 1_554 S
C234 C228 1.368 1_455 S
C234 C233 1.523 . S
C235 C219 1.429 . S
C235 C231 1.429 1_556 S
C235 C236 1.523 . S
C236 C220 1.368 1_556 S
C236 C232 1.368 1_655 S
C236 C235 1.523 . S
H237 C212 0.950 . S
H238 C214 0.950 . S
H239 C215 0.949 . S
H240 C217 0.950 . S
H241 C219 0.950 . S
C242 C243 1.349 . S
C242 C244 1.327 1_556 S
C242 H267 0.950 1_556 S
C243 C242 1.349 . S
C243 C259 1.349 . S
C244 C242 1.327 1_554 S
C244 C263 1.429 1_554 S
C244 H268 0.950 . S
C245 C262 1.563 1_545 S
C245 C264 1.380 . S
C245 H269 0.948 . S
H246 C250 0.948 . S
C247 C248 1.349 . S
C247 C249 1.327 1_554 S
C247 H270 0.950 1_554 S
C248 C247 1.349 . S
C248 C260 1.349 . S
C249 C247 1.327 1_556 S
C249 C265 1.429 1_556 S
C249 H271 0.950 . S
C250 H246 0.948 . S
C250 C258 1.563 1_565 S
C250 C266 1.380 . S
H251 C259 0.950 . S
H252 C257 0.950 . S
H253 C258 0.949 . S
H254 C260 0.950 . S
H255 C261 0.950 . S
H256 C262 0.949 . S
C257 H252 0.950 . S
C257 C259 1.327 . S
C257 C263 1.429 . S
C258 C250 1.563 1_545 S
C258 H253 0.949 . S
C258 C264 1.368 1_554 S
C259 C243 1.349 . S
C259 H251 0.950 . S
C259 C257 1.327 . S
C260 C248 1.349 . S
C260 H254 0.950 . S
C260 C261 1.327 . S
C261 H255 0.950 . S
C261 C260 1.327 . S
C261 C265 1.429 . S
C262 C245 1.563 1_565 S
C262 H256 0.949 . S
C262 C266 1.368 1_556 S
C263 C244 1.429 1_556 S
C263 C257 1.429 . S
C263 C264 1.523 . S
C264 C245 1.380 . S
C264 C258 1.368 1_556 S
C264 C263 1.523 . S
C265 C249 1.429 1_554 S
C265 C261 1.429 . S
C265 C266 1.523 . S
C266 C250 1.380 . S
C266 C262 1.368 1_554 S
C266 C265 1.523 . S
H267 C242 0.950 1_554 S
H268 C244 0.950 . S
H269 C245 0.948 . S
H270 C247 0.950 1_556 S
H271 C249 0.950 . S
C272 C273 1.349 . S
C272 C274 1.327 . S
C272 H297 0.950 . S
C273 C272 1.349 . S
C273 C289 1.349 . S
C274 C272 1.327 . S
C274 C293 1.429 . S
C274 H298 0.950 . S
C275 C292 1.574 . S
C275 C294 1.368 1_455 S
C275 H299 0.949 . S
H276 C280 0.949 . S
C277 C278 1.349 . S
C277 C279 1.327 . S
C277 H300 0.950 . S
C278 C277 1.349 . S
C278 C290 1.349 . S
C279 C277 1.327 . S
C279 C295 1.429 . S
C279 H301 0.950 . S
C280 H276 0.949 . S
C280 C288 1.574 . S
C280 C296 1.368 1_655 S
H281 C289 0.950 . S
H282 C287 0.950 . S
H283 C288 0.949 . S
H284 C290 0.950 . S
H285 C291 0.950 . S
H286 C292 0.949 . S
C287 H282 0.950 . S
C287 C289 1.327 . S
C287 C293 1.429 . S
C288 C280 1.574 . S
C288 H283 0.949 . S
C288 C294 1.368 . S
C289 C273 1.349 . S
C289 H281 0.950 . S
C289 C287 1.327 . S
C290 C278 1.349 . S
C290 H284 0.950 . S
C290 C291 1.327 . S
C291 H285 0.950 . S
C291 C290 1.327 . S
C291 C295 1.429 . S
C292 C275 1.574 . S
C292 H286 0.949 . S
C292 C296 1.368 . S
C293 C274 1.429 . S
C293 C287 1.429 . S
C293 C294 1.523 . S
C294 C275 1.368 1_655 S
C294 C288 1.368 . S
C294 C293 1.523 . S
C295 C279 1.429 . S
C295 C291 1.429 . S
C295 C296 1.523 . S
C296 C280 1.368 1_455 S
C296 C292 1.368 . S
C296 C295 1.523 . S
H297 C272 0.950 . S
H298 C274 0.950 . S
H299 C275 0.949 . S
H300 C277 0.950 . S
H301 C279 0.950 . S
C302 C303 1.349 . S
C302 C304 1.327 . S
C302 H327 0.950 . S
C303 C302 1.349 . S
C303 C319 1.349 . S
C304 C302 1.327 . S
C304 C323 1.429 . S
C304 H328 0.950 . S
C305 C322 1.574 . S
C305 C324 1.368 . S
C305 H329 0.949 . S
H306 C310 0.949 . S
C307 C308 1.349 . S
C307 C309 1.327 . S
C307 H330 0.950 . S
C308 C307 1.349 . S
C308 C320 1.349 . S
C309 C307 1.327 . S
C309 C325 1.429 . S
C309 H331 0.950 . S
C310 H306 0.949 . S
C310 C318 1.574 . S
C310 C326 1.368 . S
H311 C319 0.950 . S
H312 C317 0.950 . S
H313 C318 0.949 . S
H314 C320 0.950 . S
H315 C321 0.950 . S
H316 C322 0.949 . S
C317 H312 0.950 . S
C317 C319 1.327 . S
C317 C323 1.429 . S
C318 C310 1.574 . S
C318 H313 0.949 . S
C318 C324 1.368 . S
C319 C303 1.349 . S
C319 H311 0.950 . S
C319 C317 1.327 . S
C320 C308 1.349 . S
C320 H314 0.950 . S
C320 C321 1.327 . S
C321 H315 0.950 . S
C321 C320 1.327 . S
C321 C325 1.429 . S
C322 C305 1.574 . S
C322 H316 0.949 . S
C322 C326 1.368 . S
C323 C304 1.429 . S
C323 C317 1.429 . S
C323 C324 1.523 . S
C324 C305 1.368 . S
C324 C318 1.368 . S
C324 C323 1.523 . S
C325 C309 1.429 . S
C325 C321 1.429 . S
C325 C326 1.523 . S
C326 C310 1.368 . S
C326 C322 1.368 . S
C326 C325 1.523 . S
H327 C302 0.950 . S
H328 C304 0.950 . S
H329 C305 0.949 . S
H330 C307 0.950 . S
H331 C309 0.950 . S
C93 N25 1.449 . S
C98 N2 1.449 . S
C123 C7 1.486 . S
C128 C30 1.486 . S
C153 N71 1.449 . S
C158 N48 1.449 . S
C183 C53 1.486 . S
C188 C76 1.486 . S
C213 C16 1.484 . S
C218 C62 1.484 . S
C243 C85 1.484 . S
C248 C39 1.484 . S
C273 N58 1.469 . S
C278 N12 1.469 . S
C303 N35 1.469 . S
C308 N81 1.469 . S
