# Generated by pormake.
# Topology umv, (4)-cn, num edge types: 1
# Building blocks:
#     Node 0, Type 0, BuildingBlock: CEKHIL_clean_sbu_0, # of connection points: 4
#     Node 1, Type 0, BuildingBlock: CEKHIL_clean_sbu_0, # of connection points: 4
#     Node 2, Type 0, BuildingBlock: CEKHIL_clean_sbu_0, # of connection points: 4
#     Node 3, Type 0, BuildingBlock: CEKHIL_clean_sbu_0, # of connection points: 4
#     Node 4, Type 0, BuildingBlock: CEKHIL_clean_sbu_0, # of connection points: 4
#     Node 5, Type 0, BuildingBlock: CEKHIL_clean_sbu_0, # of connection points: 4
#     Node 6, Type 0, BuildingBlock: CEKHIL_clean_sbu_0, # of connection points: 4
#     Node 7, Type 0, BuildingBlock: CEKHIL_clean_sbu_0, # of connection points: 4
#     Node 8, Type 0, BuildingBlock: CEKHIL_clean_sbu_0, # of connection points: 4
#     Node 9, Type 0, BuildingBlock: CEKHIL_clean_sbu_0, # of connection points: 4
#     Node 10, Type 0, BuildingBlock: CEKHIL_clean_sbu_0, # of connection points: 4
#     Node 11, Type 0, BuildingBlock: CEKHIL_clean_sbu_0, # of connection points: 4
#     Node 12, Type 0, BuildingBlock: CEKHIL_clean_sbu_0, # of connection points: 4
#     Node 13, Type 0, BuildingBlock: CEKHIL_clean_sbu_0, # of connection points: 4
#     Node 14, Type 0, BuildingBlock: CEKHIL_clean_sbu_0, # of connection points: 4
#     Node 15, Type 0, BuildingBlock: CEKHIL_clean_sbu_0, # of connection points: 4
#     Node 16, Type 0, BuildingBlock: CEKHIL_clean_sbu_0, # of connection points: 4
#     Node 17, Type 0, BuildingBlock: CEKHIL_clean_sbu_0, # of connection points: 4
#     Node 18, Type 0, BuildingBlock: CEKHIL_clean_sbu_0, # of connection points: 4
#     Node 19, Type 0, BuildingBlock: CEKHIL_clean_sbu_0, # of connection points: 4
#     Node 20, Type 0, BuildingBlock: CEKHIL_clean_sbu_0, # of connection points: 4
#     Node 21, Type 0, BuildingBlock: CEKHIL_clean_sbu_0, # of connection points: 4
#     Node 22, Type 0, BuildingBlock: CEKHIL_clean_sbu_0, # of connection points: 4
#     Node 23, Type 0, BuildingBlock: CEKHIL_clean_sbu_0, # of connection points: 4
#     Node 24, Type 0, BuildingBlock: CEKHIL_clean_sbu_0, # of connection points: 4
#     Node 25, Type 0, BuildingBlock: CEKHIL_clean_sbu_0, # of connection points: 4
#     Node 26, Type 0, BuildingBlock: CEKHIL_clean_sbu_0, # of connection points: 4
#     Node 27, Type 0, BuildingBlock: CEKHIL_clean_sbu_0, # of connection points: 4
#     Node 28, Type 0, BuildingBlock: CEKHIL_clean_sbu_0, # of connection points: 4
#     Node 29, Type 0, BuildingBlock: CEKHIL_clean_sbu_0, # of connection points: 4
#     Node 30, Type 0, BuildingBlock: CEKHIL_clean_sbu_0, # of connection points: 4
#     Node 31, Type 0, BuildingBlock: CEKHIL_clean_sbu_0, # of connection points: 4
#     Edge 32, Type (0, 0), BuildingBlock: XUDNAN_clean_linker_2, # of connection points: 2
#     Edge 33, Type (0, 0), BuildingBlock: XUDNAN_clean_linker_2, # of connection points: 2
#     Edge 34, Type (0, 0), BuildingBlock: XUDNAN_clean_linker_2, # of connection points: 2
#     Edge 35, Type (0, 0), BuildingBlock: XUDNAN_clean_linker_2, # of connection points: 2
#     Edge 36, Type (0, 0), BuildingBlock: XUDNAN_clean_linker_2, # of connection points: 2
#     Edge 37, Type (0, 0), BuildingBlock: XUDNAN_clean_linker_2, # of connection points: 2
#     Edge 38, Type (0, 0), BuildingBlock: XUDNAN_clean_linker_2, # of connection points: 2
#     Edge 39, Type (0, 0), BuildingBlock: XUDNAN_clean_linker_2, # of connection points: 2
#     Edge 40, Type (0, 0), BuildingBlock: XUDNAN_clean_linker_2, # of connection points: 2
#     Edge 41, Type (0, 0), BuildingBlock: XUDNAN_clean_linker_2, # of connection points: 2
#     Edge 42, Type (0, 0), BuildingBlock: XUDNAN_clean_linker_2, # of connection points: 2
#     Edge 43, Type (0, 0), BuildingBlock: XUDNAN_clean_linker_2, # of connection points: 2
#     Edge 44, Type (0, 0), BuildingBlock: XUDNAN_clean_linker_2, # of connection points: 2
#     Edge 45, Type (0, 0), BuildingBlock: XUDNAN_clean_linker_2, # of connection points: 2
#     Edge 46, Type (0, 0), BuildingBlock: XUDNAN_clean_linker_2, # of connection points: 2
#     Edge 47, Type (0, 0), BuildingBlock: XUDNAN_clean_linker_2, # of connection points: 2
#     Edge 48, Type (0, 0), BuildingBlock: XUDNAN_clean_linker_2, # of connection points: 2
#     Edge 49, Type (0, 0), BuildingBlock: XUDNAN_clean_linker_2, # of connection points: 2
#     Edge 50, Type (0, 0), BuildingBlock: XUDNAN_clean_linker_2, # of connection points: 2
#     Edge 51, Type (0, 0), BuildingBlock: XUDNAN_clean_linker_2, # of connection points: 2
#     Edge 52, Type (0, 0), BuildingBlock: XUDNAN_clean_linker_2, # of connection points: 2
#     Edge 53, Type (0, 0), BuildingBlock: XUDNAN_clean_linker_2, # of connection points: 2
#     Edge 54, Type (0, 0), BuildingBlock: XUDNAN_clean_linker_2, # of connection points: 2
#     Edge 55, Type (0, 0), BuildingBlock: XUDNAN_clean_linker_2, # of connection points: 2
#     Edge 56, Type (0, 0), BuildingBlock: XUDNAN_clean_linker_2, # of connection points: 2
#     Edge 57, Type (0, 0), BuildingBlock: XUDNAN_clean_linker_2, # of connection points: 2
#     Edge 58, Type (0, 0), BuildingBlock: XUDNAN_clean_linker_2, # of connection points: 2
#     Edge 59, Type (0, 0), BuildingBlock: XUDNAN_clean_linker_2, # of connection points: 2
#     Edge 60, Type (0, 0), BuildingBlock: XUDNAN_clean_linker_2, # of connection points: 2
#     Edge 61, Type (0, 0), BuildingBlock: XUDNAN_clean_linker_2, # of connection points: 2
#     Edge 62, Type (0, 0), BuildingBlock: XUDNAN_clean_linker_2, # of connection points: 2
#     Edge 63, Type (0, 0), BuildingBlock: XUDNAN_clean_linker_2, # of connection points: 2
#     Edge 64, Type (0, 0), BuildingBlock: XUDNAN_clean_linker_2, # of connection points: 2
#     Edge 65, Type (0, 0), BuildingBlock: XUDNAN_clean_linker_2, # of connection points: 2
#     Edge 66, Type (0, 0), BuildingBlock: XUDNAN_clean_linker_2, # of connection points: 2
#     Edge 67, Type (0, 0), BuildingBlock: XUDNAN_clean_linker_2, # of connection points: 2
#     Edge 68, Type (0, 0), BuildingBlock: XUDNAN_clean_linker_2, # of connection points: 2
#     Edge 69, Type (0, 0), BuildingBlock: XUDNAN_clean_linker_2, # of connection points: 2
#     Edge 70, Type (0, 0), BuildingBlock: XUDNAN_clean_linker_2, # of connection points: 2
#     Edge 71, Type (0, 0), BuildingBlock: XUDNAN_clean_linker_2, # of connection points: 2
#     Edge 72, Type (0, 0), BuildingBlock: XUDNAN_clean_linker_2, # of connection points: 2
#     Edge 73, Type (0, 0), BuildingBlock: XUDNAN_clean_linker_2, # of connection points: 2
#     Edge 74, Type (0, 0), BuildingBlock: XUDNAN_clean_linker_2, # of connection points: 2
#     Edge 75, Type (0, 0), BuildingBlock: XUDNAN_clean_linker_2, # of connection points: 2
#     Edge 76, Type (0, 0), BuildingBlock: XUDNAN_clean_linker_2, # of connection points: 2
#     Edge 77, Type (0, 0), BuildingBlock: XUDNAN_clean_linker_2, # of connection points: 2
#     Edge 78, Type (0, 0), BuildingBlock: XUDNAN_clean_linker_2, # of connection points: 2
#     Edge 79, Type (0, 0), BuildingBlock: XUDNAN_clean_linker_2, # of connection points: 2
#     Edge 80, Type (0, 0), BuildingBlock: XUDNAN_clean_linker_2, # of connection points: 2
#     Edge 81, Type (0, 0), BuildingBlock: XUDNAN_clean_linker_2, # of connection points: 2
#     Edge 82, Type (0, 0), BuildingBlock: XUDNAN_clean_linker_2, # of connection points: 2
#     Edge 83, Type (0, 0), BuildingBlock: XUDNAN_clean_linker_2, # of connection points: 2
#     Edge 84, Type (0, 0), BuildingBlock: XUDNAN_clean_linker_2, # of connection points: 2
#     Edge 85, Type (0, 0), BuildingBlock: XUDNAN_clean_linker_2, # of connection points: 2
#     Edge 86, Type (0, 0), BuildingBlock: XUDNAN_clean_linker_2, # of connection points: 2
#     Edge 87, Type (0, 0), BuildingBlock: XUDNAN_clean_linker_2, # of connection points: 2
#     Edge 88, Type (0, 0), BuildingBlock: XUDNAN_clean_linker_2, # of connection points: 2
#     Edge 89, Type (0, 0), BuildingBlock: XUDNAN_clean_linker_2, # of connection points: 2
#     Edge 90, Type (0, 0), BuildingBlock: XUDNAN_clean_linker_2, # of connection points: 2
#     Edge 91, Type (0, 0), BuildingBlock: XUDNAN_clean_linker_2, # of connection points: 2
#     Edge 92, Type (0, 0), BuildingBlock: XUDNAN_clean_linker_2, # of connection points: 2
#     Edge 93, Type (0, 0), BuildingBlock: XUDNAN_clean_linker_2, # of connection points: 2
#     Edge 94, Type (0, 0), BuildingBlock: XUDNAN_clean_linker_2, # of connection points: 2
#     Edge 95, Type (0, 0), BuildingBlock: XUDNAN_clean_linker_2, # of connection points: 2
# Relax obj value: 0.129
# Max RMSD: 0.111
# Mean RMSD: 0.111
data_MOF--net-umv--node1-CEKHIL_clean_sbu_0--edge1-XUDNAN_clean_linker_2
_symmetry_space_group_name_H-M    P1
_symmetry_Int_Tables_number       1
_symmetry_cell_setting            triclinic
loop_
_symmetry_equiv_pos_as_xyz
'x, y, z'
_cell_length_a     104.29086
_cell_length_b     25.418423
_cell_length_c     57.733556
_cell_angle_alpha  89.983316
_cell_angle_beta   90.045637
_cell_angle_gamma 90.072709
loop_
_atom_site_label
_atom_site_type_symbol
_atom_site_fract_x
_atom_site_fract_y
_atom_site_fract_z
_atom_type_partial_charge
Co0 Co 0.059 0.11727 0.31936 0.0
O1 O 0.04047 0.11802 0.31898 0.0
O2 O 0.05252 0.1366 0.28869 0.0
C3 C 0.06125 0.04241 0.34054 0.0
O4 O 0.07854 0.11993 0.31331 0.0
Co5 Co 0.07336 0.12555 0.36703 0.0
O6 O 0.08894 0.12183 0.34768 0.0
C7 C 0.05765 0.21186 0.34921 0.0
C8 C 0.04107 0.13415 0.29768 0.0
C9 C 0.08894 0.12146 0.32559 0.0
O10 O 0.05868 0.19324 0.32861 0.0
O11 O 0.06147 0.187 0.36719 0.0
O12 O 0.05925 0.03901 0.31826 0.0
O13 O 0.06072 0.08907 0.34874 0.0
Co14 Co 0.21042 0.11993 0.31641 0.0
O15 O 0.22886 0.11585 0.31711 0.0
O16 O 0.21729 0.10118 0.28583 0.0
C17 C 0.20887 0.19387 0.33818 0.0
O18 O 0.1909 0.12156 0.3098 0.0
Co19 Co 0.19557 0.11226 0.36368 0.0
O20 O 0.18084 0.13299 0.34411 0.0
C21 C 0.21046 0.02377 0.3451 0.0
C22 C 0.22857 0.10123 0.29562 0.0
C23 C 0.1807 0.1303 0.32205 0.0
O24 O 0.20977 0.0437 0.32472 0.0
O25 O 0.20649 0.04763 0.36324 0.0
O26 O 0.21107 0.198 0.31601 0.0
O27 O 0.20873 0.14676 0.34596 0.0
Co28 Co 0.05811 0.14473 0.94332 0.0
O29 O 0.03972 0.14232 0.94634 0.0
O30 O 0.05299 0.10297 0.97043 0.0
C31 C 0.0594 0.23123 0.93426 0.0
O32 O 0.07787 0.13967 0.94552 0.0
Co33 Co 0.06988 0.17532 0.89509 0.0
O34 O 0.08643 0.16672 0.91156 0.0
C35 C 0.05538 0.07775 0.90124 0.0
C36 C 0.04118 0.11144 0.96402 0.0
C37 C 0.08759 0.14983 0.93228 0.0
O38 O 0.05716 0.08045 0.92328 0.0
O39 O 0.05829 0.1151 0.88735 0.0
O40 O 0.05878 0.21734 0.956 0.0
O41 O 0.0583 0.19359 0.91972 0.0
Co42 Co 0.21028 0.11724 0.93794 0.0
O43 O 0.22875 0.11581 0.94008 0.0
O44 O 0.21615 0.1431 0.9682 0.0
C45 C 0.20786 0.03791 0.92041 0.0
O46 O 0.19052 0.12276 0.94148 0.0
Co47 Co 0.19801 0.11618 0.88822 0.0
O48 O 0.18188 0.10974 0.90605 0.0
C49 C 0.21425 0.20248 0.90402 0.0
C50 C 0.22779 0.13673 0.96047 0.0
C51 C 0.18073 0.11616 0.92788 0.0
O52 O 0.21157 0.19052 0.9251 0.0
O53 O 0.21102 0.17382 0.88679 0.0
O54 O 0.2093 0.03974 0.94284 0.0
O55 O 0.2092 0.08206 0.91005 0.0
Co56 Co 0.96457 0.86779 0.69049 0.0
O57 O 0.98268 0.86372 0.6986 0.0
O58 O 0.9667 0.84721 0.72257 0.0
C59 C 0.96508 0.94343 0.66949 0.0
O60 O 0.94476 0.86768 0.68891 0.0
Co61 Co 0.95589 0.8621 0.63877 0.0
O62 O 0.93837 0.86875 0.6516 0.0
C63 C 0.96975 0.77635 0.66104 0.0
C64 C 0.97901 0.84688 0.71881 0.0
C65 C 0.93587 0.86859 0.67323 0.0
O66 O 0.96556 0.79203 0.68078 0.0
O67 O 0.96834 0.80299 0.64244 0.0
O68 O 0.9645 0.94608 0.69206 0.0
O69 O 0.96655 0.89699 0.66138 0.0
Co70 Co 0.8124 0.862 0.68336 0.0
O71 O 0.79405 0.85877 0.68679 0.0
O72 O 0.80714 0.88667 0.71415 0.0
C73 C 0.81492 0.78368 0.66512 0.0
O74 O 0.83217 0.86902 0.68534 0.0
Co75 Co 0.8231 0.86502 0.6326 0.0
O76 O 0.83973 0.85887 0.64895 0.0
C77 C 0.80687 0.94827 0.65076 0.0
C78 C 0.79537 0.87969 0.70712 0.0
C79 C 0.84154 0.86383 0.67072 0.0
O80 O 0.81045 0.93559 0.6713 0.0
O81 O 0.80964 0.9209 0.6329 0.0
O82 O 0.81395 0.78452 0.68765 0.0
O83 O 0.81297 0.82796 0.6552 0.0
Co84 Co 0.96047 0.85465 0.06518 0.0
O85 O 0.97858 0.86673 0.05831 0.0
O86 O 0.96254 0.88701 0.03508 0.0
C87 C 0.96221 0.77258 0.07996 0.0
O88 O 0.94072 0.84983 0.06548 0.0
Co89 Co 0.95092 0.83788 0.11599 0.0
O90 O 0.9336 0.83727 0.10191 0.0
C91 C 0.96117 0.93974 0.10094 0.0
C92 C 0.97479 0.88886 0.03918 0.0
C93 C 0.93155 0.84467 0.08038 0.0
O94 O 0.95983 0.92578 0.07973 0.0
O95 O 0.95937 0.9086 0.11806 0.0
O96 O 0.96196 0.77929 0.05758 0.0
O97 O 0.96261 0.81485 0.09209 0.0
Co98 Co 0.81029 0.87061 0.06376 0.0
O99 O 0.79276 0.8469 0.05827 0.0
O100 O 0.80921 0.82785 0.03591 0.0
C101 C 0.80474 0.95409 0.07321 0.0
O102 O 0.82973 0.88637 0.06309 0.0
Co103 Co 0.81958 0.91735 0.11111 0.0
O104 O 0.83621 0.9278 0.09545 0.0
C105 C 0.81452 0.8031 0.10562 0.0
C106 C 0.79703 0.82226 0.04016 0.0
C107 C 0.83858 0.90766 0.07571 0.0
O108 O 0.81357 0.80686 0.08342 0.0
O109 O 0.81558 0.84277 0.11913 0.0
O110 O 0.80604 0.94153 0.05145 0.0
O111 O 0.80646 0.91679 0.08772 0.0
Co112 Co 0.06524 0.63038 0.82249 0.0
O113 O 0.04676 0.63263 0.82258 0.0
O114 O 0.05857 0.65121 0.79203 0.0
C115 C 0.06722 0.55474 0.84312 0.0
O116 O 0.08481 0.63166 0.81646 0.0
Co117 Co 0.07937 0.63732 0.87049 0.0
O118 O 0.09494 0.63226 0.85114 0.0
C119 C 0.06396 0.72436 0.85256 0.0
C120 C 0.0472 0.64958 0.80141 0.0
C121 C 0.09512 0.63211 0.82905 0.0
O122 O 0.0653 0.70605 0.832 0.0
O123 O 0.06762 0.6994 0.87064 0.0
O124 O 0.0651 0.55226 0.82087 0.0
O125 O 0.06691 0.60116 0.85165 0.0
Co126 Co 0.21712 0.6343 0.81567 0.0
O127 O 0.23548 0.63195 0.81238 0.0
O128 O 0.22203 0.59801 0.787 0.0
C129 C 0.21605 0.71876 0.82764 0.0
O130 O 0.19734 0.63085 0.81339 0.0
Co131 Co 0.20532 0.65613 0.86462 0.0
O132 O 0.18935 0.66499 0.84639 0.0
C133 C 0.21825 0.55602 0.85472 0.0
C134 C 0.23388 0.60511 0.79352 0.0
C135 C 0.18787 0.64783 0.82579 0.0
O136 O 0.2179 0.56598 0.83289 0.0
O137 O 0.21469 0.58868 0.8703 0.0
O138 O 0.21659 0.7085 0.80552 0.0
O139 O 0.21717 0.67887 0.84105 0.0
Co140 Co 0.06115 0.63132 0.44098 0.0
O141 O 0.04326 0.6202 0.44982 0.0
O142 O 0.05992 0.588 0.46854 0.0
C143 C 0.05971 0.71804 0.43262 0.0
O144 O 0.08093 0.63383 0.43823 0.0
Co145 Co 0.06931 0.66931 0.3916 0.0
O146 O 0.08699 0.66929 0.40424 0.0
C147 C 0.05694 0.56676 0.39878 0.0
C148 C 0.04752 0.59077 0.46657 0.0
C149 C 0.0897 0.64997 0.42403 0.0
O150 O 0.05995 0.56784 0.42044 0.0
O151 O 0.05853 0.60597 0.3852 0.0
O152 O 0.06119 0.70339 0.45414 0.0
O153 O 0.05834 0.68063 0.41803 0.0
Co154 Co 0.21299 0.60798 0.43587 0.0
O155 O 0.23132 0.6083 0.43979 0.0
O156 O 0.21809 0.65056 0.46287 0.0
C157 C 0.21131 0.52126 0.42751 0.0
O158 O 0.19319 0.61523 0.43668 0.0
Co159 Co 0.20207 0.57636 0.387 0.0
O160 O 0.18529 0.58632 0.40247 0.0
C161 C 0.21722 0.67204 0.39343 0.0
C162 C 0.22991 0.64025 0.45707 0.0
C163 C 0.1837 0.60482 0.42282 0.0
O164 O 0.21474 0.67094 0.41526 0.0
O165 O 0.2144 0.63429 0.37969 0.0
O166 O 0.21169 0.53597 0.44917 0.0
O167 O 0.21286 0.55823 0.4128 0.0
Co168 Co 0.96022 0.37546 0.18917 0.0
O169 O 0.97806 0.36182 0.19746 0.0
O170 O 0.96135 0.33703 0.21814 0.0
C171 C 0.96327 0.45995 0.17766 0.0
O172 O 0.94049 0.38069 0.18711 0.0
Co173 Co 0.95179 0.40649 0.13909 0.0
O174 O 0.93411 0.40536 0.15149 0.0
C175 C 0.96261 0.30232 0.1495 0.0
C176 C 0.97373 0.33638 0.21536 0.0
C177 C 0.9316 0.39114 0.17217 0.0
O178 O 0.96008 0.3081 0.17116 0.0
O179 O 0.96149 0.33941 0.13465 0.0
O180 O 0.96165 0.44982 0.19962 0.0
O181 O 0.96349 0.41982 0.16432 0.0
Co182 Co 0.80999 0.34411 0.18694 0.0
O183 O 0.79223 0.36197 0.19396 0.0
O184 O 0.80853 0.37433 0.21768 0.0
C185 C 0.8063 0.26447 0.17078 0.0
O186 O 0.82957 0.33227 0.18614 0.0
Co187 Co 0.81871 0.32849 0.13545 0.0
O188 O 0.83584 0.31681 0.14943 0.0
C189 C 0.81312 0.43414 0.15323 0.0
C190 C 0.79635 0.3806 0.21355 0.0
C191 C 0.83838 0.3234 0.17086 0.0
O192 O 0.8126 0.41594 0.17393 0.0
O193 O 0.81413 0.40511 0.13521 0.0
O194 O 0.80675 0.26901 0.19324 0.0
O195 O 0.80686 0.30783 0.15942 0.0
Co196 Co 0.96232 0.35618 0.56816 0.0
O197 O 0.98079 0.3578 0.56578 0.0
O198 O 0.96787 0.39412 0.54023 0.0
C199 C 0.96094 0.27072 0.57904 0.0
O200 O 0.94255 0.36116 0.56479 0.0
Co201 Co 0.94949 0.33155 0.61615 0.0
O202 O 0.9333 0.33623 0.59845 0.0
C203 C 0.96385 0.42943 0.6086 0.0
C204 C 0.9796 0.38575 0.54712 0.0
C205 C 0.93255 0.35146 0.57745 0.0
O206 O 0.96317 0.42295 0.58654 0.0
O207 O 0.96002 0.39527 0.62333 0.0
O208 O 0.96188 0.2826 0.55712 0.0
O209 O 0.96171 0.30981 0.59297 0.0
Co210 Co 0.80983 0.37285 0.56468 0.0
O211 O 0.79148 0.3717 0.56131 0.0
O212 O 0.80465 0.33471 0.53643 0.0
C213 C 0.81126 0.45795 0.57564 0.0
O214 O 0.82968 0.36806 0.56311 0.0
Co215 Co 0.82091 0.39623 0.6142 0.0
O216 O 0.83728 0.40019 0.59689 0.0
C217 C 0.80694 0.29864 0.60463 0.0
C218 C 0.79284 0.34291 0.54298 0.0
C219 C 0.83906 0.38321 0.57633 0.0
O220 O 0.80852 0.30596 0.58279 0.0
O221 O 0.81021 0.3322 0.62006 0.0
O222 O 0.81075 0.44645 0.55363 0.0
O223 O 0.80985 0.41889 0.58941 0.0
Co224 Co 0.56154 0.12475 0.82525 0.0
O225 O 0.54314 0.12733 0.82289 0.0
O226 O 0.55608 0.14277 0.79355 0.0
C227 C 0.56229 0.05131 0.84748 0.0
O228 O 0.58138 0.12434 0.82224 0.0
Co229 Co 0.57335 0.13483 0.87523 0.0
O230 O 0.58938 0.11808 0.85852 0.0
C231 C 0.55926 0.22132 0.85335 0.0
C232 C 0.54437 0.14196 0.80153 0.0
C233 C 0.59089 0.11889 0.83659 0.0
O234 O 0.5614 0.20114 0.83335 0.0
O235 O 0.56204 0.1979 0.87231 0.0
O236 O 0.5613 0.04655 0.82504 0.0
O237 O 0.56172 0.09852 0.85498 0.0
Co238 Co 0.71354 0.11832 0.81364 0.0
O239 O 0.73148 0.10964 0.80481 0.0
O240 O 0.71496 0.08026 0.78472 0.0
C241 C 0.71435 0.20338 0.82495 0.0
O242 O 0.69379 0.11946 0.81615 0.0
Co243 Co 0.70545 0.14411 0.86444 0.0
O244 O 0.68776 0.14515 0.85183 0.0
C245 C 0.7166 0.04163 0.8529 0.0
C246 C 0.72735 0.08258 0.78719 0.0
C247 C 0.68507 0.13111 0.83118 0.0
O248 O 0.71471 0.05049 0.83124 0.0
O249 O 0.71462 0.07577 0.86876 0.0
O250 O 0.71321 0.19205 0.803 0.0
O251 O 0.71612 0.1639 0.83843 0.0
Co252 Co 0.55856 0.13891 0.4351 0.0
O253 O 0.54094 0.12287 0.44395 0.0
O254 O 0.55798 0.10382 0.46494 0.0
C255 C 0.5545 0.22101 0.42171 0.0
O256 O 0.57819 0.14851 0.43246 0.0
Co257 Co 0.56631 0.16613 0.38419 0.0
O258 O 0.58383 0.17537 0.39676 0.0
C259 C 0.55678 0.06101 0.39716 0.0
C260 C 0.54561 0.10048 0.46234 0.0
C261 C 0.58674 0.1627 0.41747 0.0
O262 O 0.55939 0.0695 0.41863 0.0
O263 O 0.55742 0.09664 0.38154 0.0
O264 O 0.5564 0.21413 0.44384 0.0
O265 O 0.55464 0.17926 0.40939 0.0
Co266 Co 0.70961 0.12288 0.43395 0.0
O267 O 0.72771 0.12263 0.44264 0.0
O268 O 0.71183 0.14712 0.46545 0.0
C269 C 0.70863 0.0446 0.41527 0.0
O270 O 0.68989 0.12897 0.43167 0.0
Co271 Co 0.70151 0.12529 0.38197 0.0
O272 O 0.68376 0.12627 0.39426 0.0
C273 C 0.71684 0.20871 0.40257 0.0
C274 C 0.72415 0.14319 0.46224 0.0
C275 C 0.68112 0.12937 0.41579 0.0
O276 O 0.71211 0.19654 0.42239 0.0
O277 O 0.71506 0.18071 0.38447 0.0
O278 O 0.70806 0.04554 0.43785 0.0
O279 O 0.71114 0.08893 0.40568 0.0
Co280 Co 0.46124 0.87216 0.18634 0.0
O281 O 0.47973 0.87641 0.18767 0.0
O282 O 0.46776 0.84352 0.21559 0.0
C283 C 0.45771 0.95314 0.17085 0.0
O284 O 0.44171 0.8619 0.19094 0.0
Co285 Co 0.44778 0.87724 0.13774 0.0
O286 O 0.43192 0.87714 0.15667 0.0
C287 C 0.46495 0.79108 0.15021 0.0
C288 C 0.47922 0.85243 0.2075 0.0
C289 C 0.43151 0.86743 0.17834 0.0
O290 O 0.46298 0.80094 0.17174 0.0
O291 O 0.46099 0.82093 0.13388 0.0
O292 O 0.45957 0.94878 0.19312 0.0
O293 O 0.45926 0.91059 0.15936 0.0
Co294 Co 0.311 0.85882 0.19123 0.0
O295 O 0.29365 0.88603 0.19472 0.0
O296 O 0.30831 0.88663 0.22222 0.0
C297 C 0.30483 0.78493 0.17201 0.0
O298 O 0.32994 0.83611 0.19459 0.0
Co299 Co 0.3231 0.83283 0.14269 0.0
O300 O 0.33818 0.80925 0.16052 0.0
C301 C 0.32202 0.94286 0.1606 0.0
C302 C 0.29678 0.89943 0.21566 0.0
C303 C 0.33929 0.81856 0.18209 0.0
O304 O 0.3171 0.9293 0.18015 0.0
O305 O 0.32418 0.9111 0.14385 0.0
O306 O 0.30466 0.78539 0.19459 0.0
O307 O 0.30837 0.8279 0.16243 0.0
Co308 Co 0.46503 0.84428 0.56606 0.0
O309 O 0.48335 0.84784 0.56171 0.0
O310 O 0.46945 0.88962 0.53967 0.0
C311 C 0.46408 0.75678 0.57285 0.0
O312 O 0.44517 0.84854 0.56548 0.0
Co313 Co 0.45436 0.8065 0.61417 0.0
O314 O 0.4377 0.80968 0.59792 0.0
C315 C 0.46871 0.90478 0.60975 0.0
C316 C 0.48142 0.88047 0.54481 0.0
C317 C 0.43583 0.83171 0.57834 0.0
O318 O 0.46638 0.90549 0.58783 0.0
O319 O 0.46599 0.86567 0.62278 0.0
O320 O 0.46435 0.77353 0.55148 0.0
O321 O 0.4654 0.79244 0.58826 0.0
Co322 Co 0.31318 0.87616 0.56066 0.0
O323 O 0.29497 0.87294 0.55261 0.0
O324 O 0.3108 0.84602 0.53025 0.0
C325 C 0.31395 0.95781 0.5764 0.0
O326 O 0.33295 0.87254 0.56208 0.0
Co327 Co 0.32209 0.88472 0.61213 0.0
O328 O 0.3396 0.87686 0.59917 0.0
C329 C 0.30739 0.79494 0.59573 0.0
C330 C 0.2985 0.84943 0.53363 0.0
C331 C 0.34191 0.87248 0.57758 0.0
O332 O 0.31133 0.80453 0.57506 0.0
O333 O 0.30916 0.82677 0.61255 0.0
O334 O 0.31423 0.95272 0.55391 0.0
O335 O 0.31182 0.91526 0.58768 0.0
Co336 Co 0.56315 0.61668 0.31085 0.0
O337 O 0.54511 0.62988 0.30405 0.0
O338 O 0.56115 0.65112 0.28103 0.0
C339 C 0.56088 0.53395 0.32457 0.0
O340 O 0.58293 0.60991 0.31152 0.0
Co341 Co 0.57218 0.5959 0.36183 0.0
O342 O 0.58942 0.59024 0.34778 0.0
C343 C 0.56261 0.6995 0.34773 0.0
C344 C 0.54888 0.65273 0.28511 0.0
C345 C 0.59182 0.6 0.32655 0.0
O346 O 0.56401 0.68684 0.32635 0.0
O347 O 0.56423 0.66733 0.36452 0.0
O348 O 0.56132 0.54199 0.30228 0.0
O349 O 0.56067 0.57551 0.33717 0.0
Co350 Co 0.71509 0.63086 0.31684 0.0
O351 O 0.73339 0.63037 0.31219 0.0
O352 O 0.71967 0.59136 0.28879 0.0
C353 C 0.71354 0.71659 0.32697 0.0
O354 O 0.69528 0.62433 0.31631 0.0
Co355 Co 0.70452 0.65675 0.36642 0.0
O356 O 0.6878 0.65629 0.35012 0.0
C357 C 0.71853 0.55899 0.35758 0.0
C358 C 0.7316 0.60041 0.29431 0.0
C359 C 0.68593 0.63798 0.32981 0.0
O360 O 0.71694 0.56517 0.33566 0.0
O361 O 0.71526 0.5932 0.3727 0.0
O362 O 0.71372 0.70382 0.30508 0.0
O363 O 0.71531 0.67841 0.34107 0.0
Co364 Co 0.55975 0.63585 0.94352 0.0
O365 O 0.54133 0.63239 0.94565 0.0
O366 O 0.55433 0.59157 0.96972 0.0
C367 C 0.56072 0.72306 0.93603 0.0
O368 O 0.57955 0.63189 0.94638 0.0
Co369 Co 0.57215 0.67273 0.89654 0.0
O370 O 0.58805 0.67287 0.91526 0.0
C371 C 0.55774 0.5739 0.89999 0.0
C372 C 0.54259 0.60047 0.963 0.0
C373 C 0.58925 0.65051 0.93494 0.0
O374 O 0.55922 0.57385 0.92215 0.0
O375 O 0.56098 0.61256 0.88707 0.0
O376 O 0.55987 0.70737 0.9575 0.0
O377 O 0.56008 0.68654 0.92091 0.0
Co378 Co 0.71143 0.60179 0.93698 0.0
O379 O 0.72997 0.59988 0.93799 0.0
O380 O 0.71783 0.62561 0.96709 0.0
C381 C 0.70849 0.52359 0.9186 0.0
O382 O 0.69187 0.60813 0.9423 0.0
Co383 Co 0.69759 0.60425 0.88876 0.0
O384 O 0.68177 0.60683 0.90763 0.0
C385 C 0.71475 0.68836 0.90366 0.0
C386 C 0.72933 0.61972 0.95867 0.0
C387 C 0.68159 0.60933 0.92969 0.0
O388 O 0.7126 0.67579 0.92487 0.0
O389 O 0.71098 0.66032 0.88658 0.0
O390 O 0.71042 0.52403 0.94093 0.0
O391 O 0.70958 0.56841 0.90869 0.0
Co392 Co 0.46407 0.35393 0.68226 0.0
O393 O 0.48199 0.34727 0.69132 0.0
O394 O 0.46553 0.33485 0.71469 0.0
C395 C 0.46597 0.42779 0.66068 0.0
O396 O 0.4443 0.35707 0.67947 0.0
Co397 Co 0.45604 0.34861 0.63003 0.0
O398 O 0.43857 0.3624 0.64191 0.0
C399 C 0.46782 0.25891 0.65395 0.0
C400 C 0.47789 0.33238 0.71153 0.0
C401 C 0.4357 0.36148 0.66338 0.0
O402 O 0.46435 0.27795 0.67355 0.0
O403 O 0.46665 0.28408 0.63487 0.0
O404 O 0.46487 0.43187 0.68314 0.0
O405 O 0.46694 0.38078 0.65301 0.0
Co406 Co 0.31274 0.36124 0.68253 0.0
O407 O 0.295 0.36981 0.69251 0.0
O408 O 0.31194 0.39795 0.71183 0.0
C409 C 0.3115 0.27679 0.67071 0.0
O410 O 0.33241 0.35999 0.67883 0.0
Co411 Co 0.32009 0.33691 0.6313 0.0
O412 O 0.33795 0.33351 0.64305 0.0
C413 C 0.30904 0.439 0.64405 0.0
C414 C 0.29951 0.3958 0.71014 0.0
C415 C 0.34094 0.34768 0.66354 0.0
O416 O 0.31129 0.42964 0.66555 0.0
O417 O 0.31084 0.40537 0.6279 0.0
O418 O 0.31318 0.28728 0.69262 0.0
O419 O 0.30962 0.31674 0.65754 0.0
Co420 Co 0.46009 0.35976 0.06613 0.0
O421 O 0.47806 0.36345 0.0568 0.0
O422 O 0.46183 0.3949 0.03656 0.0
C423 C 0.45984 0.27565 0.07879 0.0
O424 O 0.4404 0.36402 0.06918 0.0
Co425 Co 0.45202 0.34075 0.11737 0.0
O426 O 0.43418 0.34408 0.10543 0.0
C427 C 0.46521 0.43779 0.10373 0.0
C428 C 0.47419 0.39001 0.03885 0.0
C429 C 0.43157 0.35679 0.08458 0.0
O430 O 0.46245 0.42841 0.08245 0.0
O431 O 0.46296 0.4053 0.12017 0.0
O432 O 0.45859 0.28553 0.05672 0.0
O433 O 0.46223 0.31569 0.09164 0.0
Co434 Co 0.3095 0.37756 0.06838 0.0
O435 O 0.2919 0.3558 0.06232 0.0
O436 O 0.30821 0.33969 0.03916 0.0
C437 C 0.30497 0.46032 0.08041 0.0
O438 O 0.32896 0.39296 0.0687 0.0
Co439 Co 0.31775 0.40939 0.11881 0.0
O440 O 0.33488 0.41916 0.10447 0.0
C441 C 0.31357 0.29889 0.10681 0.0
C442 C 0.29603 0.33392 0.04344 0.0
C443 C 0.3376 0.40727 0.08356 0.0
O444 O 0.31297 0.31022 0.08515 0.0
O445 O 0.31368 0.33308 0.12304 0.0
O446 O 0.30566 0.45011 0.05833 0.0
O447 O 0.30588 0.42018 0.09376 0.0
H448 H 0.10779 0.18798 0.33809 0.0
H449 H 0.09921 0.06355 0.28933 0.0
H450 H 0.12218 0.06166 0.2775 0.0
H451 H 0.13358 0.25424 0.30318 0.0
H452 H 0.14256 0.26911 0.32906 0.0
H453 H 0.12529 0.26646 0.33003 0.0
H454 H 0.12648 0.19767 0.36313 0.0
H455 H 0.14366 0.20002 0.36224 0.0
H456 H 0.13549 0.13799 0.35875 0.0
H457 H 0.14719 0.06477 0.2763 0.0
H458 H 0.17036 0.07189 0.28608 0.0
H459 H 0.16163 0.19543 0.33514 0.0
C460 C 0.11066 0.16143 0.32437 0.0
C461 C 0.10174 0.12617 0.31449 0.0
C462 C 0.10587 0.09151 0.29683 0.0
C463 C 0.11891 0.09015 0.2901 0.0
C464 C 0.12759 0.12442 0.30089 0.0
C465 C 0.12349 0.16001 0.31742 0.0
C466 C 0.1346 0.18941 0.32821 0.0
C467 C 0.13397 0.2483 0.32225 0.0
C468 C 0.13508 0.1807 0.35462 0.0
C469 C 0.14574 0.16319 0.31614 0.0
C470 C 0.14163 0.12642 0.30009 0.0
C471 C 0.15044 0.09431 0.28846 0.0
C472 C 0.16361 0.09881 0.29397 0.0
C473 C 0.16781 0.13462 0.31118 0.0
C474 C 0.15874 0.16822 0.32166 0.0
H475 H 0.15957 0.07784 0.9062 0.0
H476 H 0.17116 0.15714 0.96934 0.0
H477 H 0.14819 0.16641 0.98031 0.0
H478 H 0.1342 0.15906 0.89298 0.0
H479 H 0.12427 0.1076 0.88111 0.0
H480 H 0.14142 0.10129 0.88045 0.0
H481 H 0.13981 0.01225 0.90218 0.0
H482 H 0.1226 0.01824 0.90289 0.0
H483 H 0.13143 0.00901 0.92944 0.0
H484 H 0.12294 0.1731 0.98195 0.0
H485 H 0.09957 0.17928 0.97324 0.0
H486 H 0.10585 0.09836 0.9083 0.0
C487 C 0.1574 0.0966 0.92257 0.0
C488 C 0.16727 0.11686 0.93687 0.0
C489 C 0.16383 0.14091 0.95813 0.0
C490 C 0.15077 0.1464 0.96445 0.0
C491 C 0.14128 0.1272 0.94945 0.0
C492 C 0.14457 0.10249 0.92898 0.0
C493 C 0.13289 0.08841 0.91474 0.0
C494 C 0.13322 0.11574 0.89093 0.0
C495 C 0.13161 0.02842 0.91217 0.0
C496 C 0.1224 0.1104 0.9299 0.0
C497 C 0.12726 0.13183 0.95012 0.0
C498 C 0.11912 0.15592 0.96624 0.0
C499 C 0.10585 0.15905 0.96126 0.0
C500 C 0.10091 0.13908 0.94015 0.0
C501 C 0.10934 0.11375 0.92463 0.0
H502 H 0.91594 0.83473 0.6468 0.0
H503 H 0.92433 0.90018 0.71446 0.0
H504 H 0.90095 0.90253 0.72311 0.0
H505 H 0.8887 0.90965 0.63447 0.0
H506 H 0.88039 0.85685 0.61997 0.0
H507 H 0.89763 0.85816 0.62033 0.0
H508 H 0.89799 0.76473 0.63841 0.0
H509 H 0.88072 0.76313 0.63809 0.0
H510 H 0.88927 0.75235 0.66482 0.0
H511 H 0.87554 0.90187 0.72244 0.0
H512 H 0.85229 0.89716 0.71267 0.0
H513 H 0.86206 0.83004 0.64592 0.0
C514 C 0.91295 0.84946 0.66354 0.0
C515 C 0.92203 0.86766 0.67987 0.0
C516 C 0.91758 0.88593 0.70165 0.0
C517 C 0.9043 0.88745 0.70667 0.0
C518 C 0.8956 0.86982 0.68988 0.0
C519 C 0.89988 0.85069 0.66884 0.0
C520 C 0.88889 0.83464 0.65332 0.0
C521 C 0.88891 0.86675 0.6307 0.0
C522 C 0.88924 0.77519 0.64838 0.0
C523 C 0.87764 0.84887 0.66851 0.0
C524 C 0.88153 0.86883 0.68964 0.0
C525 C 0.87249 0.88589 0.70596 0.0
C526 C 0.85928 0.88299 0.70032 0.0
C527 C 0.85524 0.86351 0.67847 0.0
C528 C 0.86467 0.84557 0.66274 0.0
H529 H 0.91266 0.88935 0.10587 0.0
H530 H 0.91977 0.81979 0.03859 0.0
H531 H 0.8968 0.83293 0.02825 0.0
H532 H 0.88201 0.83636 0.11593 0.0
H533 H 0.8759 0.89497 0.12956 0.0
H534 H 0.89277 0.88058 0.13076 0.0
H535 H 0.8978 0.97167 0.11266 0.0
H536 H 0.88091 0.98621 0.11126 0.0
H537 H 0.89056 0.98955 0.08541 0.0
H538 H 0.87198 0.84873 0.02725 0.0
H539 H 0.84905 0.86797 0.03502 0.0
H540 H 0.85958 0.93277 0.10192 0.0
C541 C 0.90942 0.87668 0.08893 0.0
C542 C 0.91798 0.85277 0.07315 0.0
C543 C 0.91337 0.83793 0.051 0.0
C544 C 0.90034 0.84531 0.04501 0.0
C545 C 0.89214 0.86877 0.06117 0.0
C546 C 0.89663 0.8848 0.08256 0.0
C547 C 0.88613 0.90934 0.09699 0.0
C548 C 0.88408 0.87845 0.11964 0.0
C549 C 0.88902 0.96765 0.10186 0.0
C550 C 0.87483 0.90337 0.08077 0.0
C551 C 0.87837 0.87996 0.06014 0.0
C552 C 0.86921 0.8678 0.04324 0.0
C553 C 0.85618 0.87902 0.04777 0.0
C554 C 0.85239 0.90252 0.06898 0.0
C555 C 0.86201 0.91561 0.08533 0.0
H556 H 0.11388 0.69864 0.84179 0.0
H557 H 0.1058 0.5721 0.79381 0.0
H558 H 0.12897 0.56852 0.78336 0.0
H559 H 0.14022 0.76221 0.80789 0.0
H560 H 0.14883 0.77809 0.83405 0.0
H561 H 0.13156 0.77559 0.83424 0.0
H562 H 0.1323 0.70827 0.86795 0.0
H563 H 0.14951 0.71012 0.86774 0.0
H564 H 0.14127 0.6482 0.86442 0.0
H565 H 0.15411 0.57193 0.78296 0.0
H566 H 0.17727 0.58256 0.79215 0.0
H567 H 0.1678 0.70729 0.84034 0.0
C568 C 0.11691 0.67124 0.82851 0.0
C569 C 0.10805 0.63599 0.81843 0.0
C570 C 0.1124 0.60014 0.80141 0.0
C571 C 0.12556 0.59773 0.79551 0.0
C572 C 0.13416 0.632 0.80654 0.0
C573 C 0.12986 0.66867 0.82243 0.0
C574 C 0.14085 0.69839 0.83346 0.0
C575 C 0.14033 0.75705 0.82702 0.0
C576 C 0.14098 0.69074 0.85994 0.0
C577 C 0.15212 0.67153 0.82212 0.0
C578 C 0.14822 0.6338 0.80636 0.0
C579 C 0.15719 0.60201 0.79501 0.0
C580 C 0.17036 0.60837 0.80027 0.0
C581 C 0.17441 0.64574 0.81698 0.0
C582 C 0.16509 0.67832 0.82747 0.0
H583 H 0.1102 0.65668 0.39462 0.0
H584 H 0.10088 0.62929 0.46682 0.0
H585 H 0.12408 0.61936 0.47561 0.0
H586 H 0.13494 0.56159 0.39098 0.0
H587 H 0.14455 0.6002 0.37137 0.0
H588 H 0.1274 0.60779 0.37159 0.0
H589 H 0.13007 0.70783 0.37896 0.0
H590 H 0.14724 0.70049 0.37884 0.0
H591 H 0.13938 0.72998 0.40341 0.0
H592 H 0.14925 0.61232 0.47576 0.0
H593 H 0.17247 0.60231 0.46659 0.0
H594 H 0.1641 0.63151 0.39418 0.0
C595 C 0.11295 0.6491 0.41239 0.0
C596 C 0.10361 0.64429 0.43005 0.0
C597 C 0.10779 0.63337 0.45295 0.0
C598 C 0.12099 0.62781 0.45811 0.0
C599 C 0.12992 0.63287 0.44017 0.0
C600 C 0.12597 0.64291 0.41773 0.0
C601 C 0.13719 0.64427 0.40116 0.0
C602 C 0.13594 0.60088 0.3827 0.0
C603 C 0.13855 0.69889 0.38994 0.0
C604 C 0.14816 0.63323 0.41761 0.0
C605 C 0.14392 0.6273 0.44014 0.0
C606 C 0.15259 0.61686 0.45813 0.0
C607 C 0.16578 0.61148 0.45282 0.0
C608 C 0.17015 0.61577 0.42966 0.0
C609 C 0.16113 0.62748 0.41206 0.0
H610 H 0.91187 0.37404 0.14205 0.0
H611 H 0.92011 0.38463 0.21554 0.0
H612 H 0.89721 0.36544 0.22414 0.0
H613 H 0.88082 0.43259 0.14276 0.0
H614 H 0.87453 0.38878 0.12098 0.0
H615 H 0.89135 0.40453 0.12134 0.0
H616 H 0.89679 0.30509 0.12326 0.0
H617 H 0.87997 0.28908 0.12315 0.0
H618 H 0.89013 0.2654 0.14617 0.0
H619 H 0.87241 0.34751 0.22381 0.0
H620 H 0.84946 0.3313 0.21465 0.0
H621 H 0.8589 0.32718 0.14148 0.0
C622 C 0.90892 0.37293 0.16002 0.0
C623 C 0.91784 0.38167 0.17811 0.0
C624 C 0.91348 0.3785 0.20135 0.0
C625 C 0.90048 0.36752 0.20637 0.0
C626 C 0.89197 0.35887 0.188 0.0
C627 C 0.89614 0.36116 0.16529 0.0
C628 C 0.88539 0.34932 0.14847 0.0
C629 C 0.88288 0.39662 0.13246 0.0
C630 C 0.88824 0.29925 0.13444 0.0
C631 C 0.87439 0.34068 0.16511 0.0
C632 C 0.87824 0.34646 0.18787 0.0
C633 C 0.8694 0.34241 0.20601 0.0
C634 C 0.85636 0.333 0.20066 0.0
C635 C 0.85226 0.32721 0.17735 0.0
C636 C 0.86158 0.33044 0.15955 0.0
H637 H 0.91383 0.40455 0.59941 0.0
H638 H 0.92125 0.31727 0.53651 0.0
H639 H 0.89796 0.32061 0.52681 0.0
H640 H 0.88579 0.3426 0.61479 0.0
H641 H 0.87804 0.40055 0.62605 0.0
H642 H 0.89524 0.39627 0.62604 0.0
H643 H 0.89673 0.48322 0.60272 0.0
H644 H 0.8795 0.48813 0.60285 0.0
H645 H 0.8881 0.48945 0.57579 0.0
H646 H 0.87263 0.32573 0.52731 0.0
H647 H 0.84948 0.33591 0.53681 0.0
H648 H 0.86003 0.42206 0.59885 0.0
C649 C 0.91061 0.38725 0.58327 0.0
C650 C 0.91934 0.36099 0.56862 0.0
C651 C 0.91475 0.33835 0.54779 0.0
C652 C 0.90152 0.33982 0.54227 0.0
C653 C 0.89307 0.36484 0.55758 0.0
C654 C 0.89759 0.38895 0.57746 0.0
C655 C 0.8868 0.41136 0.59183 0.0
C656 C 0.88645 0.38617 0.6161 0.0
C657 C 0.88785 0.47161 0.59338 0.0
C658 C 0.87536 0.39489 0.57746 0.0
C659 C 0.87901 0.3683 0.55767 0.0
C660 C 0.86977 0.3472 0.54264 0.0
C661 C 0.85661 0.35316 0.54815 0.0
C662 C 0.85277 0.3798 0.5686 0.0
C663 C 0.86243 0.40144 0.58304 0.0
H664 H 0.66566 0.10347 0.86007 0.0
H665 H 0.67307 0.1472 0.7888 0.0
H666 H 0.64963 0.14405 0.78066 0.0
H667 H 0.6395 0.01213 0.84745 0.0
H668 H 0.63099 0.02958 0.87349 0.0
H669 H 0.64823 0.03334 0.87274 0.0
H670 H 0.64721 0.13121 0.88531 0.0
H671 H 0.63 0.12771 0.88611 0.0
H672 H 0.63779 0.17687 0.86854 0.0
H673 H 0.6243 0.14237 0.78213 0.0
H674 H 0.60116 0.13947 0.79272 0.0
H675 H 0.61175 0.09198 0.86234 0.0
C676 C 0.6624 0.11216 0.84267 0.0
C677 C 0.67121 0.12603 0.82513 0.0
C678 C 0.66651 0.13639 0.80253 0.0
C679 C 0.6532 0.13476 0.79779 0.0
C680 C 0.64474 0.1216 0.81571 0.0
C681 C 0.64929 0.10975 0.83761 0.0
C682 C 0.63851 0.09701 0.85413 0.0
C683 C 0.63936 0.03961 0.86243 0.0
C684 C 0.63837 0.1355 0.87472 0.0
C685 C 0.62706 0.10512 0.83847 0.0
C686 C 0.63068 0.11908 0.8163 0.0
C687 C 0.62145 0.13083 0.79942 0.0
C688 C 0.60829 0.12896 0.80554 0.0
C689 C 0.6045 0.11556 0.82838 0.0
C690 C 0.61415 0.10253 0.84469 0.0
H691 H 0.66118 0.15476 0.38708 0.0
H692 H 0.66954 0.11684 0.45879 0.0
H693 H 0.64634 0.1242 0.46804 0.0
H694 H 0.63649 0.25051 0.39857 0.0
H695 H 0.62712 0.23136 0.37371 0.0
H696 H 0.64428 0.22383 0.37331 0.0
H697 H 0.64167 0.12477 0.3637 0.0
H698 H 0.62452 0.13201 0.36401 0.0
H699 H 0.63207 0.08377 0.38238 0.0
H700 H 0.62137 0.1322 0.46839 0.0
H701 H 0.59814 0.14173 0.46002 0.0
H702 H 0.60718 0.17708 0.38832 0.0
C703 C 0.65823 0.14795 0.40481 0.0
C704 C 0.66728 0.13487 0.42218 0.0
C705 C 0.66285 0.12691 0.44514 0.0
C706 C 0.64967 0.13098 0.45054 0.0
C707 C 0.64102 0.14364 0.43285 0.0
C708 C 0.64522 0.15233 0.41048 0.0
C709 C 0.6342 0.16522 0.39439 0.0
C710 C 0.63561 0.22105 0.38442 0.0
C711 C 0.63305 0.12398 0.37498 0.0
C712 C 0.62303 0.16185 0.41103 0.0
C713 C 0.62705 0.14935 0.43317 0.0
C714 C 0.6182 0.14243 0.45111 0.0
C715 C 0.60499 0.14799 0.44621 0.0
C716 C 0.6007 0.16058 0.42353 0.0
C717 C 0.60999 0.16802 0.40593 0.0
H718 H 0.35639 0.88916 0.16743 0.0
H719 H 0.35238 0.75816 0.21473 0.0
H720 H 0.37582 0.76278 0.22333 0.0
H721 H 0.38469 0.85046 0.14244 0.0
H722 H 0.39116 0.91583 0.13921 0.0
H723 H 0.3741 0.90619 0.13987 0.0
H724 H 0.37222 0.97179 0.17404 0.0
H725 H 0.38933 0.98178 0.17348 0.0
H726 H 0.38159 0.96132 0.19989 0.0
H727 H 0.40073 0.7778 0.2229 0.0
H728 H 0.42335 0.79879 0.21271 0.0
H729 H 0.40998 0.91937 0.16554 0.0
C730 C 0.3604 0.86225 0.18006 0.0
C731 C 0.35263 0.82367 0.19063 0.0
C732 C 0.35818 0.7885 0.20675 0.0
C733 C 0.37148 0.79091 0.21165 0.0
C734 C 0.37898 0.82902 0.20044 0.0
C735 C 0.3735 0.86431 0.18511 0.0
C736 C 0.38347 0.89905 0.1738 0.0
C737 C 0.38334 0.89244 0.14728 0.0
C738 C 0.38154 0.95691 0.18073 0.0
C739 C 0.39556 0.87688 0.1844 0.0
C740 C 0.3929 0.83711 0.20004 0.0
C741 C 0.40283 0.80936 0.2109 0.0
C742 C 0.41567 0.8217 0.20514 0.0
C743 C 0.41845 0.86085 0.1884 0.0
C744 C 0.4082 0.88939 0.17848 0.0
H745 H 0.36094 0.82837 0.60314 0.0
H746 H 0.354 0.9032 0.53688 0.0
H747 H 0.37736 0.899 0.52823 0.0
H748 H 0.38969 0.89224 0.61689 0.0
H749 H 0.39692 0.8353 0.63013 0.0
H750 H 0.37976 0.84231 0.62997 0.0
H751 H 0.37747 0.75156 0.60985 0.0
H752 H 0.39464 0.74416 0.61004 0.0
H753 H 0.38592 0.73933 0.58316 0.0
H754 H 0.4026 0.89134 0.529 0.0
H755 H 0.42566 0.87689 0.53815 0.0
H756 H 0.41461 0.80455 0.60326 0.0
C757 C 0.36427 0.84364 0.58669 0.0
C758 C 0.35562 0.86641 0.57075 0.0
C759 C 0.36043 0.88537 0.54934 0.0
C760 C 0.3737 0.88329 0.54434 0.0
C761 C 0.382 0.86131 0.56077 0.0
C762 C 0.37733 0.84119 0.58137 0.0
C763 C 0.38797 0.8198 0.59643 0.0
C764 C 0.38862 0.84918 0.61972 0.0
C765 C 0.3864 0.76018 0.60007 0.0
C766 C 0.39948 0.83198 0.58147 0.0
C767 C 0.39601 0.85586 0.56092 0.0
C768 C 0.40533 0.87213 0.54499 0.0
C769 C 0.41844 0.8638 0.55031 0.0
C770 C 0.42211 0.83934 0.57139 0.0
C771 C 0.41234 0.82309 0.58689 0.0
H772 H 0.66465 0.65792 0.35582 0.0
H773 H 0.67585 0.60138 0.28787 0.0
H774 H 0.65282 0.58812 0.27805 0.0
H775 H 0.63986 0.56706 0.36548 0.0
H776 H 0.62987 0.61355 0.3806 0.0
H777 H 0.64702 0.6211 0.38107 0.0
H778 H 0.64478 0.71588 0.36493 0.0
H779 H 0.6276 0.70866 0.36444 0.0
H780 H 0.63605 0.72663 0.33839 0.0
H781 H 0.62744 0.58101 0.27665 0.0
H782 H 0.60398 0.5765 0.28477 0.0
H783 H 0.61101 0.63451 0.35418 0.0
C784 C 0.66241 0.64305 0.33871 0.0
C785 C 0.67221 0.63093 0.32261 0.0
C786 C 0.66859 0.61122 0.30055 0.0
C787 C 0.6555 0.60361 0.29483 0.0
C788 C 0.64613 0.61577 0.31135 0.0
C789 C 0.64956 0.63499 0.33287 0.0
C790 C 0.63801 0.64359 0.34818 0.0
C791 C 0.63874 0.60927 0.37012 0.0
C792 C 0.63653 0.70216 0.35434 0.0
C793 C 0.62743 0.62547 0.33221 0.0
C794 C 0.63211 0.6102 0.31085 0.0
C795 C 0.62378 0.59275 0.2934 0.0
C796 C 0.61046 0.5904 0.2981 0.0
C797 C 0.60565 0.60447 0.3202 0.0
C798 C 0.61435 0.62259 0.33721 0.0
H799 H 0.66389 0.68152 0.91772 0.0
H800 H 0.67005 0.55049 0.96423 0.0
H801 H 0.64694 0.55229 0.97501 0.0
H802 H 0.63899 0.74987 0.95355 0.0
H803 H 0.63046 0.77046 0.92794 0.0
H804 H 0.64764 0.763 0.92714 0.0
H805 H 0.6454 0.69902 0.89242 0.0
H806 H 0.62827 0.70585 0.89322 0.0
H807 H 0.6354 0.64145 0.89527 0.0
H808 H 0.62193 0.56173 0.97569 0.0
H809 H 0.59894 0.57929 0.96721 0.0
H810 H 0.61024 0.70593 0.92119 0.0
C811 C 0.66045 0.6543 0.93077 0.0
C812 C 0.66875 0.61628 0.94036 0.0
C813 C 0.66389 0.58063 0.95704 0.0
C814 C 0.65075 0.58127 0.96313 0.0
C815 C 0.6427 0.61844 0.95268 0.0
C816 C 0.64752 0.65495 0.93717 0.0
C817 C 0.63699 0.68867 0.92699 0.0
C818 C 0.63862 0.74642 0.93435 0.0
C819 C 0.63649 0.68338 0.90042 0.0
C820 C 0.62535 0.66416 0.93829 0.0
C821 C 0.62871 0.62409 0.9533 0.0
C822 C 0.61928 0.59372 0.96428 0.0
C823 C 0.60621 0.60402 0.95943 0.0
C824 C 0.60269 0.64403 0.94354 0.0
C825 C 0.6125 0.67506 0.93346 0.0
H826 H 0.36112 0.35151 0.63328 0.0
H827 H 0.35249 0.35352 0.70676 0.0
H828 H 0.37577 0.35913 0.71546 0.0
H829 H 0.38926 0.27313 0.63597 0.0
H830 H 0.39742 0.30946 0.61357 0.0
H831 H 0.38019 0.306 0.61365 0.0
H832 H 0.37897 0.40787 0.61353 0.0
H833 H 0.39621 0.41164 0.6135 0.0
H834 H 0.38717 0.4446 0.63577 0.0
H835 H 0.40081 0.36165 0.71549 0.0
H836 H 0.42413 0.36307 0.7068 0.0
H837 H 0.41537 0.36233 0.63329 0.0
C838 C 0.36405 0.35296 0.65127 0.0
C839 C 0.35489 0.35166 0.66934 0.0
C840 C 0.35927 0.3544 0.69258 0.0
C841 C 0.3725 0.35755 0.69767 0.0
C842 C 0.38126 0.35858 0.67935 0.0
C843 C 0.37713 0.35672 0.65661 0.0
C844 C 0.38828 0.3589 0.63988 0.0
C845 C 0.38881 0.30889 0.62489 0.0
C846 C 0.38761 0.40872 0.62478 0.0
C847 C 0.39942 0.3614 0.65665 0.0
C848 C 0.39529 0.36122 0.67937 0.0
C849 C 0.40408 0.36212 0.69771 0.0
C850 C 0.41734 0.36295 0.69262 0.0
C851 C 0.42173 0.36304 0.66936 0.0
C852 C 0.4125 0.36262 0.65131 0.0
H853 H 0.358 0.41011 0.11336 0.0
H854 H 0.34899 0.39572 0.04025 0.0
H855 H 0.37217 0.38393 0.03177 0.0
H856 H 0.38823 0.47906 0.10776 0.0
H857 H 0.39539 0.44384 0.13157 0.0
H858 H 0.37835 0.45511 0.13112 0.0
H859 H 0.37437 0.35488 0.13527 0.0
H860 H 0.39138 0.34324 0.13557 0.0
H861 H 0.38139 0.31035 0.11458 0.0
H862 H 0.39709 0.37211 0.03206 0.0
H863 H 0.42013 0.35833 0.04119 0.0
H864 H 0.41168 0.37584 0.11432 0.0
C865 C 0.36081 0.40546 0.09543 0.0
C866 C 0.35155 0.40468 0.07743 0.0
C867 C 0.35583 0.39708 0.05435 0.0
C868 C 0.36901 0.39026 0.04939 0.0
C869 C 0.37782 0.39056 0.0677 0.0
C870 C 0.37379 0.39784 0.09027 0.0
C871 C 0.38487 0.39385 0.10717 0.0
C872 C 0.38682 0.44607 0.12016 0.0
C873 C 0.38288 0.34784 0.12414 0.0
C874 C 0.39584 0.38306 0.09072 0.0
C875 C 0.3917 0.38177 0.06797 0.0
C876 C 0.40034 0.37295 0.04986 0.0
C877 C 0.41344 0.36518 0.0552 0.0
C878 C 0.41779 0.36549 0.07849 0.0
C879 C 0.40875 0.37468 0.09633 0.0
H880 H 0.03934 0.19888 0.25885 0.0
H881 H 0.01624 0.11875 0.31047 0.0
H882 H 0.99685 0.16159 0.2951 0.0
H883 H 0.02264 0.32063 0.26093 0.0
H884 H 0.02356 0.334 0.23031 0.0
H885 H 0.0357 0.29449 0.24407 0.0
H886 H 0.03135 0.21876 0.21512 0.0
H887 H 0.01931 0.25831 0.20107 0.0
H888 H 0.01527 0.19381 0.21182 0.0
H889 H 0.98001 0.21667 0.27589 0.0
H890 H 0.96661 0.27599 0.25234 0.0
H891 H 1.00011 0.32171 0.21251 0.0
C892 C 0.03016 0.18947 0.26656 0.0
C893 C 0.02937 0.1549 0.28583 0.0
C894 C 0.01716 0.1447 0.29569 0.0
C895 C 1.00605 0.16904 0.2871 0.0
C896 C 1.00719 0.20379 0.26854 0.0
C897 C 0.01889 0.21372 0.25818 0.0
C898 C 0.01738 0.25392 0.23879 0.0
C899 C 0.02529 0.30371 0.24383 0.0
C900 C 0.02104 0.22975 0.21531 0.0
C901 C 1.00305 0.26521 0.24004 0.0
C902 C 0.9974 0.23581 0.25738 0.0
C903 C 0.98433 0.23967 0.26218 0.0
C904 C 0.97678 0.27377 0.24872 0.0
C905 C 0.98224 0.30387 0.23054 0.0
C906 C 0.99561 0.29954 0.22631 0.0
H907 H 0.23123 0.04489 0.25424 0.0
H908 H 0.25282 0.10672 0.31255 0.0
H909 H 0.27219 0.06202 0.29851 0.0
H910 H 0.2461 0.91902 0.25278 0.0
H911 H 0.24665 0.91363 0.22167 0.0
H912 H 0.23438 0.95271 0.23526 0.0
H913 H 0.24129 0.03382 0.21116 0.0
H914 H 0.25348 0.9948 0.19727 0.0
H915 H 0.25779 0.05501 0.21182 0.0
H916 H 0.28897 0.00585 0.28022 0.0
H917 H 0.30269 0.94831 0.25643 0.0
H918 H 0.2711 0.92369 0.20864 0.0
C919 C 0.2401 0.04989 0.26376 0.0
C920 C 0.24042 0.07971 0.28455 0.0
C921 C 0.25223 0.08438 0.29661 0.0
C922 C 0.26334 0.05892 0.2888 0.0
C923 C 0.26265 0.02887 0.2687 0.0
C924 C 0.25142 0.02474 0.25608 0.0
C925 C 0.25342 0.98926 0.23512 0.0
C926 C 0.24461 0.94078 0.23629 0.0
C927 C 0.25138 0.02007 0.2125 0.0
C928 C 0.26745 0.97385 0.23816 0.0
C929 C 0.27252 -0.00297 0.25776 0.0
C930 C 0.28514 0.98784 0.2647 0.0
C931 C 0.29286 0.95479 0.2511 0.0
C932 C 0.28805 0.93134 0.2306 0.0
C933 C 0.27511 0.94104 0.22417 0.0
H934 H 0.03995 0.04013 1.00114 0.0
H935 H 0.01658 0.11746 0.94897 0.0
H936 H 0.99785 0.0666 0.96156 0.0
H937 H 0.02508 0.91236 0.99709 0.0
H938 H 0.0254 0.89897 0.02774 0.0
H939 H 0.03732 0.94149 0.01506 0.0
H940 H 0.03121 0.0157 0.04367 0.0
H941 H 0.01937 0.9732 0.05662 0.0
H942 H 0.01474 0.03672 0.04558 0.0
H943 H 0.9817 0.00573 0.97807 0.0
H944 H 0.96833 0.9447 1.00067 0.0
H945 H 1.00108 0.90707 0.04412 0.0
C946 C 0.03086 0.04668 0.99256 0.0
C947 C 0.02985 0.08313 0.97397 0.0
C948 C 0.01773 0.09017 0.96322 0.0
C949 C 1.00697 0.06117 0.97019 0.0
C950 C 1.0083 0.02519 0.98819 0.0
C951 C 0.01984 0.01823 0.99955 0.0
C952 C 0.01836 0.97749 0.01878 0.0
C953 C 0.02706 0.92975 0.0144 0.0
C954 C 0.02108 0.00227 0.04258 0.0
C955 C 1.00423 0.96275 0.01628 0.0
C956 C 0.99872 0.99057 0.99831 0.0
C957 C 0.98588 0.98391 0.99228 0.0
C958 C 0.97836 0.94881 0.00521 0.0
C959 C 0.98357 0.92074 0.02422 0.0
C960 C 0.99678 0.92759 0.02964 0.0
H961 H 0.22966 0.20356 0.99882 0.0
H962 H 0.25261 0.11818 0.94869 0.0
H963 H 0.27217 0.15905 0.96431 0.0
H964 H 0.24762 0.32301 0.99681 0.0
H965 H 0.24649 0.33705 0.02735 0.0
H966 H 0.23412 0.29925 0.01326 0.0
H967 H 0.23738 0.22349 0.04265 0.0
H968 H 0.24967 0.2613 0.05698 0.0
H969 H 0.25316 0.19599 0.0466 0.0
H970 H 0.2893 0.21295 0.98344 0.0
H971 H 0.30301 0.27124 0.00707 0.0
H972 H 0.2696 0.32149 0.04596 0.0
C973 C 0.23882 0.19273 0.99145 0.0
C974 C 0.23951 0.15723 0.97249 0.0
C975 C 0.25173 0.14496 0.96318 0.0
C976 C 0.26296 0.16816 0.97192 0.0
C977 C 0.26195 0.20374 0.99016 0.0
C978 C 0.25024 0.21563 1.00006 0.0
C979 C 0.25196 0.2559 0.01936 0.0
C980 C 0.24461 0.30682 0.01386 0.0
C981 C 0.2478 0.23278 0.04279 0.0
C982 C 0.26641 0.26488 0.01859 0.0
C983 C 0.27194 0.23448 1.0015 0.0
C984 C 0.28508 0.23665 0.997 0.0
C985 C 0.29281 0.27014 0.01048 0.0
C986 C 0.28747 0.30109 0.02845 0.0
C987 C 0.27403 0.29835 0.03242 0.0
H988 H 1.00511 0.82771 0.71351 0.0
H989 H 0.97332 0.80367 0.76087 0.0
H990 H 0.98715 0.74903 0.78574 0.0
H991 H 0.01828 0.69867 0.71777 0.0
H992 H 0.03483 0.71917 0.71712 0.0
H993 H 0.02274 0.75866 0.70317 0.0
H994 H 0.02963 0.83966 0.72736 0.0
H995 H 0.04187 0.80064 0.74112 0.0
H996 H 0.03018 0.83471 0.7585 0.0
H997 H 1.00379 0.69276 0.8044 0.0
H998 H 0.02292 0.64619 0.81835 0.0
H999 H 0.04478 0.70692 0.76019 0.0
C1000 C 1.00112 0.81174 0.72934 0.0
C1001 C 0.98806 0.82041 0.73521 0.0
C1002 C 0.98325 0.79809 0.75596 0.0
C1003 C 0.99103 0.76664 0.77018 0.0
C1004 C 1.00371 0.7578 0.76363 0.0
C1005 C 1.00883 0.78029 0.74392 0.0
C1006 C 0.02283 0.76425 0.74104 0.0
C1007 C 0.02478 0.73335 0.71843 0.0
C1008 C 0.03165 0.8127 0.74207 0.0
C1009 C 0.02473 0.729 0.76213 0.0
C1010 C 0.01349 0.72572 0.77474 0.0
C1011 C 0.01266 0.69537 0.79475 0.0
C1012 C 0.02363 0.66875 0.80249 0.0
C1013 C 0.03545 0.67251 0.79044 0.0
C1014 C 0.03591 0.7027 0.76974 0.0
H1015 H 0.75405 0.07576 0.78832 0.0
H1016 H 0.72046 0.01461 0.75287 0.0
H1017 H 0.73415 0.95394 0.73078 0.0
H1018 H 0.77534 0.06988 0.73788 0.0
H1019 H 0.7892 0.05095 0.75456 0.0
H1020 H 0.77679 0.09015 0.76769 0.0
H1021 H 0.77446 0.02078 0.80027 0.0
H1022 H 0.78673 0.981 0.78705 0.0
H1023 H 0.77114 0.95328 0.79278 0.0
H1024 H 0.75107 0.89772 0.71331 0.0
H1025 H 0.77052 0.85549 0.6982 0.0
H1026 H 0.79395 0.95269 0.74335 0.0
C1027 C 0.7496 0.04998 0.77573 0.0
C1028 C 0.73609 0.05026 0.77239 0.0
C1029 C 0.73071 0.01559 0.75578 0.0
C1030 C 0.73843 0.98062 0.74318 0.0
C1031 C 0.75161 0.98065 0.74715 0.0
C1032 C 0.75723 0.01485 0.76273 0.0
C1033 C 0.77174 0.00711 0.76313 0.0
C1034 C 0.77868 0.05752 0.75535 0.0
C1035 C 0.77628 0.9895 0.78725 0.0
C1036 C 0.77334 0.96316 0.7454 0.0
C1037 C 0.76154 0.94842 0.73663 0.0
C1038 C 0.76037 0.90907 0.72 0.0
C1039 C 0.77152 0.8851 0.71156 0.0
C1040 C 0.78384 0.90034 0.71956 0.0
C1041 C 0.78471 0.93949 0.73706 0.0
H1042 H 0.7313 0.68439 0.99747 0.0
H1043 H 0.75414 0.60366 0.94573 0.0
H1044 H 0.77368 0.64531 0.96125 0.0
H1045 H 0.74839 0.80521 0.99583 0.0
H1046 H 0.74748 0.81802 0.02649 0.0
H1047 H 0.73523 0.77927 0.01257 0.0
H1048 H 0.73934 0.70289 0.0413 0.0
H1049 H 0.75152 0.74163 0.05547 0.0
H1050 H 0.75535 0.67714 0.0445 0.0
H1051 H 0.79072 0.69976 0.9806 0.0
H1052 H 0.8042 0.75957 0.00391 0.0
H1053 H 0.77079 0.80558 0.0438 0.0
C1054 C 0.74044 0.67465 0.98973 0.0
C1055 C 0.74112 0.64025 0.97039 0.0
C1056 C 0.7533 0.6295 0.96057 0.0
C1057 C 0.76449 0.65313 0.96925 0.0
C1058 C 0.76348 0.68763 0.98791 0.0
C1059 C 0.7518 0.69807 0.99822 0.0
C1060 C 0.75343 0.73785 0.01774 0.0
C1061 C 0.74567 0.78806 0.01285 0.0
C1062 C 0.74969 0.71341 0.04114 0.0
C1063 C 0.76779 0.74852 0.01654 0.0
C1064 C 0.77338 0.71904 0.99919 0.0
C1065 C 0.78645 0.72277 0.99435 0.0
C1066 C 0.79405 0.75709 0.00766 0.0
C1067 C 0.78863 0.78749 0.02575 0.0
C1068 C 0.77528 0.78296 0.03015 0.0
H1069 H 0.23454 0.53479 0.75614 0.0
H1070 H 0.25891 0.61723 0.80526 0.0
H1071 H 0.27773 0.57088 0.79007 0.0
H1072 H 0.251 0.41085 0.75853 0.0
H1073 H 0.24961 0.39671 0.72804 0.0
H1074 H 0.23775 0.43704 0.74212 0.0
H1075 H 0.24183 0.51176 0.71254 0.0
H1076 H 0.2536 0.4714 0.6982 0.0
H1077 H 0.25792 0.53604 0.7084 0.0
H1078 H 0.29395 0.51388 0.77123 0.0
H1079 H 0.30702 0.45481 0.74714 0.0
H1080 H 0.27299 0.40887 0.70871 0.0
C1081 C 0.24386 0.54353 0.76347 0.0
C1082 C 0.24515 0.57996 0.78198 0.0
C1083 C 0.25756 0.58977 0.79112 0.0
C1084 C 0.26837 0.56342 0.78265 0.0
C1085 C 0.26678 0.52723 0.76481 0.0
C1086 C 0.2549 0.51758 0.75504 0.0
C1087 C 0.25607 0.47677 0.7358 0.0
C1088 C 0.24813 0.42742 0.74147 0.0
C1089 C 0.25212 0.50041 0.71234 0.0
C1090 C 0.2704 0.465 0.7365 0.0
C1091 C 0.27632 0.4945 0.75351 0.0
C1092 C 0.28944 0.49073 0.75776 0.0
C1093 C 0.29679 0.45678 0.744 0.0
C1094 C 0.29111 0.42686 0.726 0.0
C1095 C 0.27766 0.43082 0.7224 0.0
H1096 H 0.02087 0.58159 0.46501 0.0
H1097 H 0.05449 0.52483 0.50164 0.0
H1098 H 0.04083 0.46585 0.5248 0.0
H1099 H 0.99931 0.57937 0.51486 0.0
H1100 H 0.9856 0.55771 0.49838 0.0
H1101 H 0.99795 0.59624 0.48463 0.0
H1102 H 1.00075 0.52365 0.45362 0.0
H1103 H 0.98849 0.48467 0.46739 0.0
H1104 H 1.0042 0.45722 0.46261 0.0
H1105 H 0.02388 0.41141 0.54354 0.0
H1106 H 1.00451 0.36819 0.55852 0.0
H1107 H 0.98109 0.45905 0.51089 0.0
C1108 C 0.02533 0.55708 0.47805 0.0
C1109 C 0.03884 0.55822 0.48147 0.0
C1110 C 0.04424 0.5251 0.49865 0.0
C1111 C 0.03654 0.49119 0.51189 0.0
C1112 C 0.02335 0.49056 0.50794 0.0
C1113 C 0.01773 0.52283 0.49159 0.0
C1114 C 1.00324 0.51416 0.49108 0.0
C1115 C 0.99611 0.56489 0.49763 0.0
C1116 C 0.99892 0.49371 0.46726 0.0
C1117 C 1.00165 0.47205 0.50968 0.0
C1118 C 0.01343 0.45904 0.51901 0.0
C1119 C 0.0146 0.42139 0.53639 0.0
C1120 C 1.00348 0.39688 0.54477 0.0
C1121 C 0.99118 0.40983 0.53595 0.0
C1122 C 0.99031 0.44783 0.51795 0.0
H1123 H 0.23169 0.71124 0.49447 0.0
H1124 H 0.2544 0.63195 0.44198 0.0
H1125 H 0.2735 0.68009 0.45465 0.0
H1126 H 0.24774 0.83735 0.49111 0.0
H1127 H 0.2476 0.84974 0.52185 0.0
H1128 H 0.23526 0.80955 0.50894 0.0
H1129 H 0.24073 0.73349 0.53706 0.0
H1130 H 0.25297 0.77367 0.55023 0.0
H1131 H 0.25699 0.70984 0.53877 0.0
H1132 H 0.29015 0.73789 0.47129 0.0
H1133 H 0.30419 0.79526 0.49436 0.0
H1134 H 0.27196 0.83673 0.5383 0.0
C1135 C 0.24071 0.70377 0.48581 0.0
C1136 C 0.24141 0.66749 0.4671 0.0
C1137 C 0.25346 0.65914 0.45631 0.0
C1138 C 0.26444 0.68662 0.46331 0.0
C1139 C 0.26343 0.7224 0.48143 0.0
C1140 C 0.25197 0.73064 0.49287 0.0
C1141 C 0.25388 0.7705 0.51237 0.0
C1142 C 0.24562 0.8197 0.50832 0.0
C1143 C 0.25097 0.74537 0.53601 0.0
C1144 C 0.26814 0.78315 0.50991 0.0
C1145 C 0.27333 0.75518 0.4917 0.0
C1146 C 0.28621 0.75984 0.48568 0.0
C1147 C 0.29413 0.79286 0.4989 0.0
C1148 C 0.28927 0.82088 0.51821 0.0
C1149 C 0.276 0.81631 0.52357 0.0
H1150 H 0.77005 0.39872 0.21075 0.0
H1151 H 0.80387 0.43761 0.2512 0.0
H1152 H 0.79104 0.49866 0.2748 0.0
H1153 H 0.75613 0.52758 0.21018 0.0
H1154 H 0.73979 0.50555 0.21349 0.0
H1155 H 0.75142 0.46359 0.19971 0.0
H1156 H 0.74644 0.38942 0.22909 0.0
H1157 H 0.73469 0.43095 0.2428 0.0
H1158 H 0.74752 0.4029 0.25969 0.0
H1159 H 0.77514 0.55902 0.29273 0.0
H1160 H 0.75658 0.60848 0.30705 0.0
H1161 H 0.7321 0.52968 0.25697 0.0
C1162 C 0.77472 0.41964 0.22475 0.0
C1163 C 0.78804 0.41307 0.22907 0.0
C1164 C 0.79373 0.44148 0.24753 0.0
C1165 C 0.78651 0.47659 0.26101 0.0
C1166 C 0.77351 0.48283 0.25609 0.0
C1167 C 0.76757 0.45465 0.23867 0.0
C1168 C 0.75335 0.46859 0.23743 0.0
C1169 C 0.74998 0.49276 0.21379 0.0
C1170 C 0.74501 0.42007 0.24256 0.0
C1171 C 0.7523 0.50928 0.25673 0.0
C1172 C 0.76413 0.51698 0.26703 0.0
C1173 C 0.76582 0.55301 0.28491 0.0
C1174 C 0.75515 0.58121 0.29287 0.0
C1175 C 0.74277 0.57333 0.28323 0.0
C1176 C 0.74139 0.53694 0.26471 0.0
H1177 H 0.79084 0.27852 0.50334 0.0
H1178 H 0.7686 0.34575 0.55964 0.0
H1179 H 0.74957 0.29813 0.54633 0.0
H1180 H 0.76484 0.28549 0.46062 0.0
H1181 H 0.76899 0.22437 0.44671 0.0
H1182 H 0.78124 0.26312 0.46066 0.0
H1183 H 0.78753 0.18265 0.48568 0.0
H1184 H 0.77519 0.14386 0.47199 0.0
H1185 H 0.77548 0.15052 0.50307 0.0
H1186 H 0.73288 0.24242 0.52836 0.0
H1187 H 0.71872 0.18878 0.50375 0.0
H1188 H 0.75053 0.15802 0.45721 0.0
C1189 C 0.78194 0.28346 0.51272 0.0
C1190 C 0.78135 0.31623 0.53265 0.0
C1191 C 0.76945 0.32132 0.54435 0.0
C1192 C 0.75851 0.29408 0.53699 0.0
C1193 C 0.7594 0.2618 0.51764 0.0
C1194 C 0.77071 0.25678 0.50536 0.0
C1195 C 0.76868 0.22049 0.4846 0.0
C1196 C 0.77108 0.25014 0.46179 0.0
C1197 C 0.77723 0.17147 0.48645 0.0
C1198 C 0.75453 0.20613 0.48732 0.0
C1199 C 0.74949 0.23015 0.50671 0.0
C1200 C 0.7367 0.22349 0.51307 0.0
C1201 C 0.72872 0.19263 0.49898 0.0
C1202 C 0.73343 0.16875 0.47851 0.0
C1203 C 0.74662 0.17515 0.47284 0.0
H1204 H 0.50421 0.31558 0.7089 0.0
H1205 H 0.47105 0.28692 0.75256 0.0
H1206 H 0.48435 0.23283 0.77856 0.0
H1207 H 0.51821 0.1877 0.71417 0.0
H1208 H 0.53458 0.21035 0.71552 0.0
H1209 H 0.52271 0.24852 0.70029 0.0
H1210 H 0.52808 0.32989 0.72546 0.0
H1211 H 0.54011 0.29222 0.74052 0.0
H1212 H 0.52756 0.32441 0.75658 0.0
H1213 H 0.50063 0.17793 0.79871 0.0
H1214 H 0.51955 0.13404 0.81493 0.0
H1215 H 0.54312 0.19908 0.75991 0.0
C1216 C 0.4998 0.2986 0.72414 0.0
C1217 C 0.48651 0.30588 0.72865 0.0
C1218 C 0.48115 0.28244 0.7487 0.0
C1219 C 0.48863 0.25126 0.76354 0.0
C1220 C 0.50156 0.2439 0.75834 0.0
C1221 C 0.5072 0.26752 0.73937 0.0
C1222 C 0.5214 0.25337 0.73811 0.0
C1223 C 0.5244 0.22319 0.71569 0.0
C1224 C 0.52978 0.30293 0.7403 0.0
C1225 C 0.52282 0.21796 0.75927 0.0
C1226 C 0.51116 0.21283 0.77045 0.0
C1227 C 0.50982 0.18201 0.7902 0.0
C1228 C 0.52069 0.15696 0.79925 0.0
C1229 C 0.53293 0.16281 0.78881 0.0
C1230 C 0.53393 0.19327 0.76825 0.0
H1231 H 0.48157 0.95425 0.50867 0.0
H1232 H 0.50653 0.87174 0.55672 0.0
H1233 H 0.52505 0.92096 0.54188 0.0
H1234 H 0.50451 0.95706 0.46084 0.0
H1235 H 0.49993 0.02178 0.45115 0.0
H1236 H 0.48839 0.98028 0.46552 0.0
H1237 H 0.48432 0.05366 0.49571 0.0
H1238 H 0.49594 0.09521 0.48155 0.0
H1239 H 0.49763 0.08016 0.51192 0.0
H1240 H 0.54099 0.98016 0.52304 0.0
H1241 H 0.55367 0.04082 0.49886 0.0
H1242 H 0.51919 0.08483 0.46142 0.0
C1243 C 0.49095 0.94631 0.51592 0.0
C1244 C 0.49249 0.90878 0.53395 0.0
C1245 C 0.50498 0.89992 0.54293 0.0
C1246 C 0.51562 0.92793 0.53466 0.0
C1247 C 0.51379 0.96486 0.51717 0.0
C1248 C 0.50182 0.97385 0.50766 0.0
C1249 C 0.50271 0.01532 0.48864 0.0
C1250 C 0.49865 0.99222 0.46515 0.0
C1251 C 0.49467 0.06397 0.49483 0.0
C1252 C 0.51701 0.02799 0.48905 0.0
C1253 C 0.52314 -0.00138 0.50584 0.0
C1254 C 0.53629 0.00327 0.50978 0.0
C1255 C 0.54343 0.03811 0.49597 0.0
C1256 C 0.5375 0.06791 0.4782 0.0
C1257 C 0.52404 0.06289 0.47489 0.0
H1258 H 0.48182 0.78488 0.24542 0.0
H1259 H 0.5038 0.86914 0.19343 0.0
H1260 H 0.52354 0.82642 0.20718 0.0
H1261 H 0.50662 0.79067 0.29097 0.0
H1262 H 0.50308 0.72569 0.30174 0.0
H1263 H 0.49061 0.76439 0.28846 0.0
H1264 H 0.48618 0.68872 0.25952 0.0
H1265 H 0.49874 0.65007 0.27252 0.0
H1266 H 0.49909 0.66392 0.2419 0.0
H1267 H 0.54088 0.77132 0.2248 0.0
H1268 H 0.555 0.71316 0.24755 0.0
H1269 H 0.52247 0.66473 0.28933 0.0
C1270 C 0.49082 0.79501 0.23721 0.0
C1271 C 0.49117 0.83079 0.21831 0.0
C1272 C 0.50318 0.84222 0.20793 0.0
C1273 C 0.5145 0.81792 0.21558 0.0
C1274 C 0.5138 0.78215 0.23381 0.0
C1275 C 0.50232 0.77111 0.24476 0.0
C1276 C 0.50437 0.73077 0.26395 0.0
C1277 C 0.50097 0.75429 0.28769 0.0
C1278 C 0.49663 0.68039 0.25918 0.0
C1279 C 0.51873 0.72073 0.26191 0.0
C1280 C 0.52393 0.75068 0.24429 0.0
C1281 C 0.53693 0.74791 0.23874 0.0
C1282 C 0.54488 0.71445 0.25173 0.0
C1283 C 0.53992 0.68405 0.27026 0.0
C1284 C 0.5266 0.6872 0.27525 0.0
H1285 H 0.50065 0.40229 0.04304 0.0
H1286 H 0.46816 0.44615 1.00015 0.0
H1287 H 0.48216 0.50362 0.97696 0.0
H1288 H 0.51556 0.52858 0.04413 0.0
H1289 H 0.5318 0.50474 0.04229 0.0
H1290 H 0.51953 0.46428 0.05517 0.0
H1291 H 0.52473 0.38911 0.02645 0.0
H1292 H 0.53712 0.42909 0.01366 0.0
H1293 H 0.52456 0.4022 0.99576 0.0
H1294 H 0.49899 0.56049 0.95988 0.0
H1295 H 0.51815 0.60862 0.94738 0.0
H1296 H 0.54075 0.52844 0.99983 0.0
C1297 C 0.49654 0.42326 0.0285 0.0
C1298 C 0.48323 0.41928 0.02342 0.0
C1299 C 0.47826 0.44811 0.00442 0.0
C1300 C 0.48616 0.48111 0.99115 0.0
C1301 C 0.49911 0.48503 0.99688 0.0
C1302 C 0.50436 0.45651 0.01488 0.0
C1303 C 0.51863 0.46887 0.01731 0.0
C1304 C 0.52155 0.49305 0.04114 0.0
C1305 C 0.52674 0.41937 0.01304 0.0
C1306 C 0.52049 0.50911 0.99799 0.0
C1307 C 0.50903 0.51774 0.9866 0.0
C1308 C 0.50804 0.55374 0.96854 0.0
C1309 C 0.51905 0.58116 0.96163 0.0
C1310 C 0.53108 0.57265 0.97253 0.0
C1311 C 0.53175 0.53605 0.99111 0.0
H1312 H 0.05399 0.47132 0.41993 0.0
H1313 H 0.04894 0.55165 0.35415 0.0
H1314 H 0.04376 0.46759 0.33545 0.0
H1315 H 0.0707 0.3713 0.39988 0.0
H1316 H 0.064 0.32039 0.41796 0.0
H1317 H 0.06377 0.38738 0.4276 0.0
H1318 H 0.03909 0.38286 0.43266 0.0
H1319 H 0.03925 0.31529 0.42313 0.0
H1320 H 0.02917 0.3626 0.40868 0.0
H1321 H 0.04419 0.37558 0.3222 0.0
H1322 H 0.04983 0.28241 0.31593 0.0
H1323 H 0.0541 0.26192 0.39024 0.0
C1324 C 0.05138 0.47145 0.40177 0.0
C1325 C 0.05199 0.51783 0.38851 0.0
C1326 C 0.04863 0.51645 0.3647 0.0
C1327 C 0.04553 0.46894 0.35392 0.0
C1328 C 0.04562 0.4234 0.36724 0.0
C1329 C 0.04827 0.42433 0.39075 0.0
C1330 C 0.04964 0.3695 0.40043 0.0
C1331 C 0.06281 0.36173 0.41212 0.0
C1332 C 0.03863 0.35682 0.41721 0.0
C1333 C 0.04847 0.33802 0.37835 0.0
C1334 C 0.04577 0.36953 0.35949 0.0
C1335 C 0.04593 0.35011 0.33689 0.0
C1336 C 0.04925 0.29731 0.33347 0.0
C1337 C 0.0525 0.26513 0.35258 0.0
C1338 C 0.05162 0.28545 0.37526 0.0
H1339 H 0.22067 0.76629 0.41487 0.0
H1340 H 0.22482 0.68773 0.34856 0.0
H1341 H 0.2286 0.77299 0.32973 0.0
H1342 H 0.20189 0.85881 0.39717 0.0
H1343 H 0.20799 0.91259 0.41432 0.0
H1344 H 0.2101 0.84635 0.42414 0.0
H1345 H 0.2347 0.85973 0.42637 0.0
H1346 H 0.23268 0.92688 0.41696 0.0
H1347 H 0.24328 0.88358 0.40138 0.0
H1348 H 0.22599 0.86437 0.31675 0.0
H1349 H 0.21821 0.95509 0.31113 0.0
H1350 H 0.21553 0.97414 0.38573 0.0
C1351 C 0.22292 0.76682 0.39657 0.0
C1352 C 0.2223 0.72068 0.38316 0.0
C1353 C 0.22514 0.72282 0.35918 0.0
C1354 C 0.22742 0.77105 0.34833 0.0
C1355 C 0.22703 0.81643 0.36177 0.0
C1356 C 0.2251 0.81467 0.3855 0.0
C1357 C 0.22281 0.8688 0.39537 0.0
C1358 C 0.20994 0.87175 0.40848 0.0
C1359 C 0.23404 0.88575 0.41093 0.0
C1360 C 0.22251 0.90037 0.37325 0.0
C1361 C 0.22541 0.86998 0.35413 0.0
C1362 C 0.22409 0.88908 0.33161 0.0
C1363 C 0.21952 0.94039 0.32858 0.0
C1364 C 0.21614 0.97134 0.348 0.0
C1365 C 0.21803 0.95142 0.37053 0.0
H1366 H 0.05353 0.98255 0.92264 0.0
H1367 H 0.04777 0.06042 0.85653 0.0
H1368 H 0.04475 0.97453 0.83774 0.0
H1369 H 0.07297 0.89153 0.90374 0.0
H1370 H 0.06749 0.83745 0.92136 0.0
H1371 H 0.0652 0.90369 0.93111 0.0
H1372 H 0.04073 0.88782 0.93481 0.0
H1373 H 0.04296 0.8208 0.9254 0.0
H1374 H 0.03184 0.86297 0.91036 0.0
H1375 H 0.04765 0.88302 0.82473 0.0
H1376 H 0.05546 0.79243 0.81892 0.0
H1377 H 0.05949 0.77436 0.89339 0.0
C1378 C 0.0511 0.98163 0.90441 0.0
C1379 C 0.05098 0.02793 0.89103 0.0
C1380 C 0.04799 0.02525 0.86712 0.0
C1381 C 0.04615 0.97666 0.8563 0.0
C1382 C 0.04714 0.93137 0.86971 0.0
C1383 C 0.04934 0.93345 0.89336 0.0
C1384 C 0.0521 0.8796 0.90318 0.0
C1385 C 0.06521 0.87803 0.91554 0.0
C1386 C 0.04126 0.86175 0.91939 0.0
C1387 C 0.05219 0.84782 0.8811 0.0
C1388 C 0.04892 0.87791 0.86207 0.0
C1389 C 0.04987 0.85857 0.83954 0.0
C1390 C 0.05445 0.80731 0.83639 0.0
C1391 C 0.05818 0.77659 0.85571 0.0
C1392 C 0.05668 0.7968 0.87828 0.0
H1393 H 0.21306 0.50694 0.8956 0.0
H1394 H 0.23316 0.48738 0.83038 0.0
H1395 H 0.23885 0.3968 0.84147 0.0
H1396 H 0.23425 0.41536 0.93167 0.0
H1397 H 0.22047 0.39129 0.94724 0.0
H1398 H 0.2209 0.45851 0.93725 0.0
H1399 H 0.19943 0.44417 0.91548 0.0
H1400 H 0.19893 0.37733 0.92538 0.0
H1401 H 0.19816 0.39127 0.89479 0.0
H1402 H 0.2385 0.30629 0.85513 0.0
H1403 H 0.23115 0.2202 0.86941 0.0
H1404 H 0.21129 0.29641 0.92611 0.0
C1405 C 0.21904 0.48414 0.88403 0.0
C1406 C 0.2227 0.50395 0.86219 0.0
C1407 C 0.23022 0.47271 0.84718 0.0
C1408 C 0.23364 0.42152 0.85347 0.0
C1409 C 0.22953 0.40247 0.87485 0.0
C1410 C 0.22242 0.43284 0.88997 0.0
C1411 C 0.21735 0.4005 0.90999 0.0
C1412 C 0.22362 0.41743 0.93289 0.0
C1413 C 0.2026 0.40348 0.91146 0.0
C1414 C 0.22186 0.34646 0.90277 0.0
C1415 C 0.22925 0.34885 0.88287 0.0
C1416 C 0.23304 0.30386 0.87103 0.0
C1417 C 0.22875 0.25525 0.87915 0.0
C1418 C 0.22071 0.25222 0.89883 0.0
C1419 C 0.21769 0.298 0.91136 0.0
H1420 H 0.96224 0.68608 0.68238 0.0
H1421 H 0.9893 0.74963 0.63284 0.0
H1422 H 0.99434 0.66034 0.61936 0.0
H1423 H 0.97977 0.55038 0.69098 0.0
H1424 H 0.96441 0.51799 0.69272 0.0
H1425 H 0.96637 0.58348 0.70423 0.0
H1426 H 0.94741 0.61487 0.67881 0.0
H1427 H 0.9456 0.55039 0.66671 0.0
H1428 H 0.94815 0.60594 0.64784 0.0
H1429 H 0.99119 0.57338 0.60296 0.0
H1430 H 0.98236 0.48959 0.58838 0.0
H1431 H 0.95769 0.47929 0.64867 0.0
C1432 C 0.96977 0.68058 0.6697 0.0
C1433 C 0.9754 0.72405 0.65859 0.0
C1434 C 0.9849 0.71632 0.64148 0.0
C1435 C 0.98788 0.66579 0.63381 0.0
C1436 C 0.98135 0.6236 0.64365 0.0
C1437 C 0.97274 0.63012 0.66171 0.0
C1438 C 0.96541 0.57982 0.66641 0.0
C1439 C 0.96922 0.55653 0.68998 0.0
C1440 C 0.95079 0.58832 0.66482 0.0
C1441 C 0.97029 0.54612 0.64673 0.0
C1442 C 0.9797 0.57163 0.63416 0.0
C1443 C 0.98421 0.55197 0.61314 0.0
C1444 C 0.97901 0.50492 0.60481 0.0
C1445 C 0.96943 0.47825 0.61755 0.0
C1446 C 0.96522 0.49858 0.63893 0.0
H1447 H 0.80985 0.03933 0.67486 0.0
H1448 H 0.78949 0.96924 0.61716 0.0
H1449 H 0.78236 0.05676 0.60454 0.0
H1450 H 0.7874 0.16265 0.68145 0.0
H1451 H 0.80122 0.20271 0.68787 0.0
H1452 H 0.80065 0.13517 0.69744 0.0
H1453 H 0.82224 0.11784 0.67669 0.0
H1454 H 0.82278 0.18449 0.6667 0.0
H1455 H 0.82359 0.13129 0.64611 0.0
H1456 H 0.78326 0.14688 0.5914 0.0
H1457 H 0.79088 0.23496 0.58015 0.0
H1458 H 0.81059 0.24977 0.64603 0.0
C1459 C 0.80334 0.04255 0.66032 0.0
C1460 C 0.80022 -0.00183 0.6469 0.0
C1461 C 0.792 0.00323 0.62755 0.0
C1462 C 0.7878 0.05269 0.6204 0.0
C1463 C 0.79184 0.09648 0.63291 0.0
C1464 C 0.79922 0.09197 0.65279 0.0
C1465 C 0.80436 0.14493 0.66038 0.0
C1466 C 0.79802 0.1624 0.68313 0.0
C1467 C 0.8191 0.14455 0.66256 0.0
C1468 C 0.79991 0.17855 0.64032 0.0
C1469 C 0.79232 0.15026 0.62511 0.0
C1470 C 0.78879 0.17014 0.60353 0.0
C1471 C 0.79331 0.21981 0.59714 0.0
C1472 C 0.8013 0.24877 0.61229 0.0
C1473 C 0.80428 0.22862 0.63438 0.0
H1474 H 0.95947 0.20672 0.17059 0.0
H1475 H 0.97424 0.28126 0.10835 0.0
H1476 H 0.97821 0.19438 0.09119 0.0
H1477 H 0.98118 0.08804 0.1688 0.0
H1478 H 0.9685 0.04559 0.17888 0.0
H1479 H 0.9691 0.1133 0.18813 0.0
H1480 H 0.9459 0.1269 0.17312 0.0
H1481 H 0.94527 0.05965 0.16361 0.0
H1482 H 0.94221 0.11204 0.14331 0.0
H1483 H 0.97727 0.10248 0.0783 0.0
H1484 H 0.97222 0.00927 0.07098 0.0
H1485 H 0.95821 0.99357 0.14151 0.0
C1486 C 0.96391 0.20467 0.15366 0.0
C1487 C 0.96651 0.25053 0.14077 0.0
C1488 C 0.97209 0.24648 0.11847 0.0
C1489 C 0.97448 0.19735 0.10863 0.0
C1490 C 0.97135 0.15283 0.1214 0.0
C1491 C 0.96632 0.15587 0.14352 0.0
C1492 C 0.9625 0.1022 0.15245 0.0
C1493 C 0.97082 0.08635 0.1733 0.0
C1494 C 0.94812 0.10012 0.15846 0.0
C1495 C 0.96556 0.06912 0.13143 0.0
C1496 C 0.97086 0.09898 0.11387 0.0
C1497 C 0.97339 0.07829 0.09204 0.0
C1498 C 0.97038 0.02553 0.088 0.0
C1499 C 0.96484 0.99439 0.10572 0.0
C1500 C 0.96261 0.01632 0.12778 0.0
H1501 H 0.80985 0.49037 0.11305 0.0
H1502 H 0.81655 0.50754 0.18704 0.0
H1503 H 0.81749 0.60349 0.18244 0.0
H1504 H 0.83075 0.593 0.09455 0.0
H1505 H 0.8204 0.61564 0.07161 0.0
H1506 H 0.81992 0.54775 0.0805 0.0
H1507 H 0.7955 0.5552 0.0881 0.0
H1508 H 0.79589 0.62308 0.07913 0.0
H1509 H 0.78962 0.60579 0.10721 0.0
H1510 H 0.81841 0.69545 0.17028 0.0
H1511 H 0.81844 0.78154 0.1513 0.0
H1512 H 0.81081 0.70651 0.08493 0.0
C1513 C 0.81148 0.51433 0.12828 0.0
C1514 C 0.81314 0.49153 0.15038 0.0
C1515 C 0.81519 0.52415 0.16994 0.0
C1516 C 0.81578 0.57867 0.16753 0.0
C1517 C 0.8142 0.59979 0.14552 0.0
C1518 C 0.812 0.56894 0.12624 0.0
C1519 C 0.81059 0.60212 0.10461 0.0
C1520 C 0.82104 0.58883 0.08677 0.0
C1521 C 0.7971 0.59619 0.09416 0.0
C1522 C 0.81254 0.65634 0.11481 0.0
C1523 C 0.81459 0.65379 0.13842 0.0
C1524 C 0.81675 0.69821 0.15181 0.0
C1525 C 0.81673 0.74695 0.14079 0.0
C1526 C 0.81456 0.75086 0.11658 0.0
C1527 C 0.81248 0.70482 0.10344 0.0
H1528 H 0.55166 0.27189 0.89231 0.0
H1529 H 0.5548 0.29082 0.8178 0.0
H1530 H 0.54889 0.38421 0.82174 0.0
H1531 H 0.52575 0.37794 0.90211 0.0
H1532 H 0.53346 0.39682 0.92881 0.0
H1533 H 0.53364 0.32899 0.91964 0.0
H1534 H 0.55844 0.32853 0.92266 0.0
H1535 H 0.55835 0.39598 0.93155 0.0
H1536 H 0.56756 0.37651 0.90656 0.0
H1537 H 0.54839 0.47619 0.8341 0.0
H1538 H 0.55347 0.55937 0.85365 0.0
H1539 H 0.55091 0.4813 0.92041 0.0
C1540 C 0.55071 0.29522 0.87672 0.0
C1541 C 0.55384 0.27449 0.85481 0.0
C1542 C 0.5525 0.30612 0.83481 0.0
C1543 C 0.54902 0.35904 0.83686 0.0
C1544 C 0.5467 0.37909 0.85894 0.0
C1545 C 0.54731 0.34788 0.87853 0.0
C1546 C 0.54677 0.38014 0.90048 0.0
C1547 C 0.53415 0.3704 0.91352 0.0
C1548 C 0.55848 0.36968 0.91619 0.0
C1549 C 0.54709 0.43464 0.8902 0.0
C1550 C 0.54651 0.43326 0.86624 0.0
C1551 C 0.54847 0.47801 0.85283 0.0
C1552 C 0.55149 0.525 0.86412 0.0
C1553 C 0.55272 0.52651 0.88857 0.0
C1554 C 0.54997 0.48129 0.90171 0.0
H1555 H 0.71199 0.78248 0.92571 0.0
H1556 H 0.73102 0.70614 0.86815 0.0
H1557 H 0.73754 0.79233 0.85275 0.0
H1558 H 0.6977 0.87384 0.89515 0.0
H1559 H 0.69909 0.92831 0.91498 0.0
H1560 H 0.69937 0.86219 0.92582 0.0
H1561 H 0.72131 0.87902 0.94554 0.0
H1562 H 0.72101 0.94593 0.93514 0.0
H1563 H 0.7345 0.90422 0.92868 0.0
H1564 H 0.73685 0.88225 0.83824 0.0
H1565 H 0.73063 0.97248 0.82727 0.0
H1566 H 0.71229 0.99275 0.89411 0.0
C1567 C 0.71809 0.78415 0.91055 0.0
C1568 C 0.72107 0.73822 0.89808 0.0
C1569 C 0.72867 0.74129 0.87786 0.0
C1570 C 0.73249 0.78998 0.86908 0.0
C1571 C 0.72868 0.83505 0.88086 0.0
C1572 C 0.72186 0.83273 0.90142 0.0
C1573 C 0.71717 0.88668 0.90853 0.0
C1574 C 0.70247 0.88776 0.91125 0.0
C1575 C 0.72391 0.90505 0.93079 0.0
C1576 C 0.72152 0.91858 0.88785 0.0
C1577 C 0.72839 0.8883 0.87235 0.0
C1578 C 0.73186 0.90699 0.85053 0.0
C1579 C 0.72816 0.95793 0.84434 0.0
C1580 C 0.72107 0.98934 0.85994 0.0
C1581 C 0.71796 0.96979 0.8821 0.0
H1582 H 0.56711 0.75446 0.38755 0.0
H1583 H 0.54926 0.76587 0.31974 0.0
H1584 H 0.54281 0.85703 0.32827 0.0
H1585 H 0.54406 0.84024 0.41917 0.0
H1586 H 0.55659 0.86962 0.43639 0.0
H1587 H 0.55811 0.80255 0.4266 0.0
H1588 H 0.5799 0.82513 0.40738 0.0
H1589 H 0.57848 0.89196 0.4172 0.0
H1590 H 0.58072 0.87844 0.38682 0.0
H1591 H 0.54023 0.94746 0.34198 0.0
H1592 H 0.54315 0.03546 0.35875 0.0
H1593 H 0.56301 0.96715 0.41765 0.0
C1594 C 0.56162 0.77591 0.37472 0.0
C1595 C 0.55863 0.7534 0.35306 0.0
C1596 C 0.55169 0.78273 0.33642 0.0
C1597 C 0.54786 0.8342 0.3412 0.0
C1598 C 0.55105 0.85548 0.36265 0.0
C1599 C 0.55784 0.82752 0.37912 0.0
C1600 C 0.56133 0.86168 0.39964 0.0
C1601 C 0.55462 0.84236 0.42176 0.0
C1602 C 0.57597 0.86447 0.40293 0.0
C1603 C 0.5559 0.91374 0.39166 0.0
C1604 C 0.54975 0.90881 0.37053 0.0
C1605 C 0.54485 0.95185 0.35866 0.0
C1606 C 0.54663 0.00163 0.36827 0.0
C1607 C 0.55335 0.00787 0.38943 0.0
C1608 C 0.55768 0.96327 0.40163 0.0
H1609 H 0.71323 0.29946 0.42663 0.0
H1610 H 0.73542 0.22991 0.37114 0.0
H1611 H 0.74309 0.31747 0.35963 0.0
H1612 H 0.70065 0.3921 0.39678 0.0
H1613 H 0.70087 0.44494 0.4176 0.0
H1614 H 0.70098 0.37813 0.42741 0.0
H1615 H 0.72187 0.39474 0.45055 0.0
H1616 H 0.72173 0.46244 0.44115 0.0
H1617 H 0.73567 0.42218 0.43614 0.0
H1618 H 0.74256 0.40763 0.34648 0.0
H1619 H 0.73529 0.49578 0.33459 0.0
H1620 H 0.71379 0.51021 0.39852 0.0
C1621 C 0.72023 0.30277 0.41286 0.0
C1622 C 0.72371 0.25854 0.39966 0.0
C1623 C 0.7326 0.26375 0.38133 0.0
C1624 C 0.73711 0.31325 0.37483 0.0
C1625 C 0.73273 0.35691 0.38699 0.0
C1626 C 0.72469 0.35222 0.406 0.0
C1627 C 0.71941 0.40515 0.41319 0.0
C1628 C 0.70461 0.40501 0.41374 0.0
C1629 C 0.72501 0.42213 0.43665 0.0
C1630 C 0.72456 0.439 0.39377 0.0
C1631 C 0.73257 0.41082 0.37929 0.0
C1632 C 0.73673 0.43085 0.3581 0.0
C1633 C 0.73242 0.48055 0.35134 0.0
C1634 C 0.72405 0.50941 0.36576 0.0
C1635 C 0.72043 0.48916 0.38751 0.0
H1636 H 0.4645 0.48721 0.14551 0.0
H1637 H 0.47805 0.5045 0.07488 0.0
H1638 H 0.48483 0.59524 0.08344 0.0
H1639 H 0.44963 0.60067 0.14847 0.0
H1640 H 0.45323 0.61682 0.17818 0.0
H1641 H 0.45315 0.54942 0.16912 0.0
H1642 H 0.47646 0.53826 0.18393 0.0
H1643 H 0.4766 0.60607 0.19314 0.0
H1644 H 0.48883 0.58216 0.17378 0.0
H1645 H 0.48525 0.68645 0.09594 0.0
H1646 H 0.4786 0.77265 0.11102 0.0
H1647 H 0.4648 0.6984 0.17388 0.0
C1648 C 0.46936 0.50951 0.13214 0.0
C1649 C 0.47076 0.48917 0.10958 0.0
C1650 C 0.47684 0.51967 0.09228 0.0
C1651 C 0.48088 0.57095 0.09707 0.0
C1652 C 0.47885 0.59082 0.11926 0.0
C1653 C 0.47331 0.56093 0.13661 0.0
C1654 C 0.47003 0.59413 0.15753 0.0
C1655 C 0.45567 0.59003 0.16364 0.0
C1656 C 0.47849 0.57927 0.17833 0.0
C1657 C 0.4735 0.64801 0.14839 0.0
C1658 C 0.47902 0.64494 0.12663 0.0
C1659 C 0.4813 0.68946 0.11321 0.0
C1660 C 0.47738 0.73814 0.12182 0.0
C1661 C 0.47119 0.74172 0.14356 0.0
C1662 C 0.46976 0.69655 0.15742 0.0
H1663 H 0.3091 0.02987 0.17582 0.0
H1664 H 0.34162 0.9791 0.13466 0.0
H1665 H 0.34385 0.06823 0.11873 0.0
H1666 H 0.29491 0.10362 0.1351 0.0
H1667 H 0.28965 0.15745 0.15304 0.0
H1668 H 0.292 0.0934 0.16556 0.0
H1669 H 0.30796 0.13151 0.19558 0.0
H1670 H 0.30536 0.19623 0.18369 0.0
H1671 H 0.32139 0.17029 0.18581 0.0
H1672 H 0.33953 0.1528 0.10069 0.0
H1673 H 0.33175 0.23901 0.0871 0.0
H1674 H 0.30292 0.23951 0.14123 0.0
C1675 C 0.31701 0.03837 0.16427 0.0
C1676 C 0.32512 -0.00196 0.15624 0.0
C1677 C 0.33524 0.00975 0.14076 0.0
C1678 C 0.33661 0.06015 0.13168 0.0
C1679 C 0.32792 0.09833 0.13861 0.0
C1680 C 0.31856 0.08883 0.15507 0.0
C1681 C 0.30983 0.13596 0.15787 0.0
C1682 C 0.29577 0.12171 0.15257 0.0
C1683 C 0.31122 0.15993 0.18218 0.0
C1684 C 0.31535 0.1719 0.13952 0.0
C1685 C 0.32576 0.14919 0.12864 0.0
C1686 C 0.33165 0.1719 0.10947 0.0
C1687 C 0.32704 0.22021 0.10165 0.0
C1688 C 0.31678 0.24516 0.11321 0.0
C1689 C 0.31085 0.2209 0.13233 0.0
H1690 H 0.47544 0.20645 0.61547 0.0
H1691 H 0.47166 0.19012 0.69002 0.0
H1692 H 0.47745 0.09643 0.68681 0.0
H1693 H 0.45942 0.10168 0.60161 0.0
H1694 H 0.46876 0.0813 0.57693 0.0
H1695 H 0.46869 0.14901 0.58542 0.0
H1696 H 0.49347 0.14816 0.58888 0.0
H1697 H 0.49363 0.08003 0.58016 0.0
H1698 H 0.5012 0.09965 0.60688 0.0
H1699 H 0.47814 0.00406 0.67508 0.0
H1700 H 0.47301 0.9204 0.65601 0.0
H1701 H 0.47594 -0.0038 0.5888 0.0
C1702 C 0.47624 0.18368 0.63124 0.0
C1703 C 0.47298 0.20524 0.65294 0.0
C1704 C 0.47405 0.17416 0.67316 0.0
C1705 C 0.47748 0.12111 0.67154 0.0
C1706 C 0.47998 0.10031 0.64965 0.0
C1707 C 0.47954 0.13087 0.62985 0.0
C1708 C 0.48017 0.09788 0.60813 0.0
C1709 C 0.46857 0.10806 0.59213 0.0
C1710 C 0.49288 0.10697 0.59526 0.0
C1711 C 0.47973 0.04375 0.61875 0.0
C1712 C 0.48018 0.04591 0.6427 0.0
C1713 C 0.47814 0.00163 0.65636 0.0
C1714 C 0.47511 0.95435 0.64534 0.0
C1715 C 0.47393 0.95213 0.62089 0.0
C1716 C 0.47682 -0.00318 0.60749 0.0
H1717 H 0.3129 0.49031 0.60334 0.0
H1718 H 0.29464 0.50508 0.67051 0.0
H1719 H 0.28766 0.59489 0.66041 0.0
H1720 H 0.32652 0.61015 0.60359 0.0
H1721 H 0.3248 0.62379 0.57309 0.0
H1722 H 0.32548 0.55697 0.583 0.0
H1723 H 0.30373 0.5377 0.56286 0.0
H1724 H 0.30296 0.60495 0.55298 0.0
H1725 H 0.28995 0.57755 0.56961 0.0
H1726 H 0.28589 0.6852 0.6464 0.0
H1727 H 0.29133 0.7729 0.6314 0.0
H1728 H 0.31123 0.70158 0.57342 0.0
C1729 C 0.30708 0.51198 0.61559 0.0
C1730 C 0.30421 0.49107 0.63759 0.0
C1731 C 0.29693 0.52076 0.65355 0.0
C1732 C 0.29278 0.57139 0.64784 0.0
C1733 C 0.296 0.59147 0.62614 0.0
C1734 C 0.30304 0.5628 0.61027 0.0
C1735 C 0.30713 0.59635 0.58993 0.0
C1736 C 0.32185 0.59686 0.58728 0.0
C1737 C 0.30055 0.57804 0.56752 0.0
C1738 C 0.30206 0.64919 0.59762 0.0
C1739 C 0.29526 0.64501 0.61812 0.0
C1740 C 0.29094 0.68896 0.63012 0.0
C1741 C 0.29416 0.73856 0.62154 0.0
C1742 C 0.30174 0.74364 0.60133 0.0
C1743 C 0.30522 0.69857 0.58866 0.0
H1744 H 0.05436 0.75053 0.3891 0.0
H1745 H 0.06776 0.80811 0.45565 0.0
H1746 H 0.07078 0.89683 0.43827 0.0
H1747 H 0.07625 0.8238 0.35375 0.0
H1748 H 0.06468 0.83495 0.33106 0.0
H1749 H 0.06359 0.77678 0.34879 0.0
H1750 H 0.04025 0.80078 0.35989 0.0
H1751 H 0.04121 0.8587 0.34203 0.0
H1752 H 0.03692 0.86453 0.37216 0.0
H1753 H 0.07223 0.97818 0.4133 0.0
H1754 H 0.07079 0.04807 0.3842 0.0
H1755 H 0.05662 0.93607 0.3335 0.0
C1756 C 0.05794 0.78166 0.40016 0.0
C1757 C 0.06088 0.77245 0.42379 0.0
C1758 C 0.06543 0.81441 0.43758 0.0
C1759 C 0.06723 0.86466 0.42779 0.0
C1760 C 0.06444 0.87185 0.40427 0.0
C1761 C 0.05982 0.83147 0.39072 0.0
C1762 C 0.05734 0.84914 0.36602 0.0
C1763 C 0.06598 0.8194 0.3489 0.0
C1764 C 0.04308 0.84293 0.35966 0.0
C1765 C 0.06114 0.90642 0.3677 0.0
C1766 C 0.0653 0.91847 0.38989 0.0
C1767 C 0.06902 0.96906 0.39593 0.0
C1768 C 0.06818 0.00855 0.37912 0.0
C1769 C 0.06362 -0.00236 0.35642 0.0
C1770 C 0.06028 0.94554 0.35055 0.0
H1771 H 0.21355 0.48871 0.3832 0.0
H1772 H 0.20483 0.43138 0.45226 0.0
H1773 H 0.20182 0.34148 0.43606 0.0
H1774 H 0.19111 0.40757 0.35168 0.0
H1775 H 0.20187 0.39854 0.32759 0.0
H1776 H 0.20265 0.4579 0.34458 0.0
H1777 H 0.22677 0.4414 0.35254 0.0
H1778 H 0.22609 0.38213 0.33555 0.0
H1779 H 0.23173 0.37968 0.36505 0.0
H1780 H 0.20049 0.25839 0.41205 0.0
H1781 H 0.20188 0.18739 0.3834 0.0
H1782 H 0.21171 0.30055 0.32992 0.0
C1783 C 0.21087 0.45754 0.39504 0.0
C1784 C 0.20932 0.46702 0.41905 0.0
C1785 C 0.20602 0.42489 0.43386 0.0
C1786 C 0.20426 0.37395 0.42476 0.0
C1787 C 0.20586 0.36629 0.40092 0.0
C1788 C 0.20915 0.40703 0.38633 0.0
C1789 C 0.21089 0.38864 0.36157 0.0
C1790 C 0.20104 0.41471 0.34541 0.0
C1791 C 0.22469 0.39854 0.3532 0.0
C1792 C 0.20821 0.3306 0.36437 0.0
C1793 C 0.20522 0.31866 0.38717 0.0
C1794 C 0.20275 0.26743 0.39419 0.0
C1795 C 0.20356 0.22734 0.37767 0.0
C1796 C 0.20687 0.2384 0.35429 0.0
C1797 C 0.20904 0.29092 0.34754 0.0
H1798 H 0.0605 0.45075 0.83582 0.0
H1799 H 0.07765 0.55625 0.88617 0.0
H1800 H 0.07779 0.48554 0.91516 0.0
H1801 H 0.0397 0.38733 0.87469 0.0
H1802 H 0.04132 0.32269 0.86221 0.0
H1803 H 0.0436 0.38012 0.84444 0.0
H1804 H 0.06623 0.34749 0.83276 0.0
H1805 H 0.06393 0.28949 0.85022 0.0
H1806 H 0.07768 0.33109 0.85502 0.0
H1807 H 0.07433 0.40505 0.94016 0.0
H1808 H 0.06931 0.31774 0.95744 0.0
H1809 H 0.05464 0.26575 0.8909 0.0
C1810 C 0.06458 0.45846 0.85274 0.0
C1811 C 0.06908 0.50903 0.85865 0.0
C1812 C 0.07412 0.51787 0.88117 0.0
C1813 C 0.07424 0.47793 0.89786 0.0
C1814 C 0.06931 0.42904 0.89183 0.0
C1815 C 0.06474 0.41887 0.86973 0.0
C1816 C 0.05957 0.36339 0.86804 0.0
C1817 C 0.0452 0.36343 0.86199 0.0
C1818 C 0.06732 0.33095 0.85047 0.0
C1819 C 0.06183 0.3445 0.8926 0.0
C1820 C 0.06743 0.3828 0.90615 0.0
C1821 C 0.07006 0.37445 0.92965 0.0
C1822 C 0.06711 0.32506 0.93939 0.0
C1823 C 0.06167 0.28505 0.92553 0.0
C1824 C 0.05892 0.29542 0.90195 0.0
H1825 H 0.21634 0.936 0.92742 0.0
H1826 H 0.19356 0.03314 0.88138 0.0
H1827 H 0.19276 0.9618 0.85288 0.0
H1828 H 0.23536 0.87955 0.88507 0.0
H1829 H 0.23596 0.81434 0.89729 0.0
H1830 H 0.23349 0.87027 0.91585 0.0
H1831 H 0.2125 0.82903 0.93161 0.0
H1832 H 0.21506 0.77234 0.91345 0.0
H1833 H 0.20022 0.80837 0.91158 0.0
H1834 H 0.19689 0.88508 0.82683 0.0
H1835 H 0.20315 0.80158 0.80762 0.0
H1836 H 0.22248 0.75259 0.87057 0.0
C1837 C 0.2108 0.94137 0.91173 0.0
C1838 C 0.20503 0.99022 0.90666 0.0
C1839 C 0.19813 -0.00372 0.88565 0.0
C1840 C 0.19761 0.95589 0.86925 0.0
C1841 C 0.20394 0.9092 0.87413 0.0
C1842 C 0.21016 0.90109 0.89505 0.0
C1843 C 0.21664 0.84779 0.89535 0.0
C1844 C 0.23123 0.85336 0.89858 0.0
C1845 C 0.21075 0.81228 0.91411 0.0
C1846 C 0.21335 0.82823 0.87123 0.0
C1847 C 0.20605 0.86427 0.85922 0.0
C1848 C 0.20244 0.85603 0.83617 0.0
C1849 C 0.20613 0.80892 0.82531 0.0
C1850 C 0.21324 0.77084 0.83763 0.0
C1851 C 0.21694 0.78097 0.86079 0.0
H1852 H 0.96125 0.24142 0.62445 0.0
H1853 H 0.95847 0.178 0.5548 0.0
H1854 H 0.95805 0.08783 0.57113 0.0
H1855 H 0.98243 0.1451 0.64627 0.0
H1856 H 0.97541 0.14288 0.67477 0.0
H1857 H 0.97449 0.20228 0.65786 0.0
H1858 H 0.94976 0.20216 0.66185 0.0
H1859 H 0.95059 0.14281 0.67887 0.0
H1860 H 0.94078 0.14481 0.65316 0.0
H1861 H 0.95952 0.00612 0.59451 0.0
H1862 H 0.96231 0.93615 0.62295 0.0
H1863 H 0.9638 0.05145 0.67846 0.0
C1864 C 0.96037 0.20864 0.61257 0.0
C1865 C 0.95982 0.21664 0.58828 0.0
C1866 C 0.95884 0.17272 0.5734 0.0
C1867 C 0.95859 0.1215 0.58255 0.0
C1868 C 0.95932 0.11514 0.60656 0.0
C1869 C 0.96015 0.15746 0.62139 0.0
C1870 C 0.96143 0.13975 0.64645 0.0
C1871 C 0.9742 0.15863 0.65694 0.0
C1872 C 0.94995 0.1585 0.66093 0.0
C1873 C 0.96129 0.08052 0.64343 0.0
C1874 C 0.96005 0.06754 0.62023 0.0
C1875 C 0.9603 0.01579 0.61272 0.0
C1876 C 0.96188 0.97617 0.62921 0.0
C1877 C 0.96308 0.98792 0.65318 0.0
C1878 C 0.96272 0.04105 0.66038 0.0
H1879 H 0.80627 0.49061 0.61936 0.0
H1880 H 0.82166 0.54431 0.55366 0.0
H1881 H 0.82638 0.63123 0.57136 0.0
H1882 H 0.79056 0.60974 0.63397 0.0
H1883 H 0.79373 0.60409 0.66457 0.0
H1884 H 0.79243 0.54579 0.64704 0.0
H1885 H 0.81492 0.51616 0.66095 0.0
H1886 H 0.81636 0.57475 0.67834 0.0
H1887 H 0.82846 0.55947 0.6571 0.0
H1888 H 0.82894 0.71149 0.59592 0.0
H1889 H 0.82711 0.78373 0.62373 0.0
H1890 H 0.80944 0.6788 0.67369 0.0
C1891 C 0.81072 0.52054 0.60869 0.0
C1892 C 0.8137 0.51085 0.58516 0.0
C1893 C 0.81931 0.55113 0.57168 0.0
C1894 C 0.8221 0.60028 0.58166 0.0
C1895 C 0.81914 0.60824 0.60501 0.0
C1896 C 0.81343 0.56968 0.61828 0.0
C1897 C 0.81044 0.5892 0.64252 0.0
C1898 C 0.79593 0.58709 0.64729 0.0
C1899 C 0.818 0.55803 0.6608 0.0
C1900 C 0.81521 0.64533 0.64082 0.0
C1901 C 0.82036 0.65502 0.61912 0.0
C1902 C 0.82496 0.70429 0.61294 0.0
C1903 C 0.82385 0.7452 0.62896 0.0
C1904 C 0.81811 0.73704 0.65095 0.0
C1905 C 0.81406 0.68601 0.6572 0.0
H1906 H 0.94921 0.5528 0.17684 0.0
H1907 H 0.98447 0.47992 0.15355 0.0
H1908 H 0.98774 0.55143 0.12544 0.0
H1909 H 0.93838 0.59436 0.12338 0.0
H1910 H 0.9322 0.65751 0.1321 0.0
H1911 H 0.9331 0.60457 0.15277 0.0
H1912 H 0.94683 0.66193 0.18035 0.0
H1913 H 0.94563 0.71569 0.1601 0.0
H1914 H 0.96116 0.69312 0.16953 0.0
H1915 H 0.98533 0.62066 0.09539 0.0
H1916 H 0.9802 0.69829 0.07115 0.0
H1917 H 0.94774 0.73297 0.11536 0.0
C1918 C 0.95792 0.55355 0.16663 0.0
C1919 C 0.96672 0.51137 0.1676 0.0
C1920 C 0.97774 0.5124 0.15329 0.0
C1921 C 0.97962 0.55254 0.13709 0.0
C1922 C 0.97046 0.59204 0.13556 0.0
C1923 C 0.96007 0.59419 0.15044 0.0
C1924 C 0.95162 0.64106 0.1446 0.0
C1925 C 0.93802 0.62328 0.13781 0.0
C1926 C 0.95129 0.68028 0.16485 0.0
C1927 C 0.95874 0.66366 0.12388 0.0
C1928 C 0.96946 0.63409 0.11875 0.0
C1929 C 0.97711 0.64486 0.09948 0.0
C1930 C 0.97404 0.68844 0.08562 0.0
C1931 C 0.96358 0.72109 0.09138 0.0
C1932 C 0.95578 0.7083 0.11062 0.0
H1933 H 0.8192 0.22888 0.13279 0.0
H1934 H 0.78876 0.18839 0.18066 0.0
H1935 H 0.78315 0.11135 0.15634 0.0
H1936 H 0.80393 0.1888 0.07978 0.0
H1937 H 0.81819 0.16054 0.0673 0.0
H1938 H 0.8195 0.21408 0.08764 0.0
H1939 H 0.83441 0.15831 0.11385 0.0
H1940 H 0.83343 0.10531 0.09326 0.0
H1941 H 0.82923 0.09398 0.12313 0.0
H1942 H 0.78034 0.04185 0.12629 0.0
H1943 H 0.78369 0.97025 0.09825 0.0
H1944 H 0.81725 0.05001 0.07134 0.0
C1945 C 0.81142 0.20341 0.13818 0.0
C1946 C 0.80434 0.21431 0.1585 0.0
C1947 C 0.79432 0.1802 0.16525 0.0
C1948 C 0.79098 0.13692 0.15137 0.0
C1949 C 0.79793 0.12799 0.13108 0.0
C1950 C 0.80821 0.15918 0.12488 0.0
C1951 C 0.81482 0.13801 0.10337 0.0
C1952 C 0.81406 0.17774 0.08334 0.0
C1953 C 0.8288 0.12299 0.10873 0.0
C1954 C 0.80665 0.08981 0.09842 0.0
C1955 C 0.79675 0.08591 0.11429 0.0
C1956 C 0.78803 0.04451 0.11379 0.0
C1957 C 0.78992 0.00438 0.09759 0.0
C1958 C 0.80053 0.0053 0.0823 0.0
C1959 C 0.8088 0.04936 0.08221 0.0
H1960 H 0.56173 0.75548 0.89155 0.0
H1961 H 0.56338 0.81438 0.96209 0.0
H1962 H 0.5654 0.90544 0.94662 0.0
H1963 H 0.58433 0.84742 0.8661 0.0
H1964 H 0.5754 0.85169 0.83942 0.0
H1965 H 0.57501 0.79198 0.85624 0.0
H1966 H 0.5502 0.79649 0.85762 0.0
H1967 H 0.55049 0.85622 0.8409 0.0
H1968 H 0.54254 0.85492 0.86862 0.0
H1969 H 0.56614 0.98922 0.92299 0.0
H1970 H 0.56504 0.05979 0.89408 0.0
H1971 H 0.56273 0.94416 0.83888 0.0
C1972 C 0.5627 0.7872 0.90394 0.0
C1973 C 0.56248 0.77785 0.92812 0.0
C1974 C 0.56358 0.82074 0.94355 0.0
C1975 C 0.56475 0.87236 0.93488 0.0
C1976 C 0.56484 0.87985 0.91085 0.0
C1977 C 0.56385 0.83828 0.89566 0.0
C1978 C 0.56356 0.85631 0.87065 0.0
C1979 C 0.57527 0.83562 0.85732 0.0
C1980 C 0.55095 0.84003 0.85876 0.0
C1981 C 0.5643 0.91511 0.87398 0.0
C1982 C 0.56516 0.92779 0.89728 0.0
C1983 C 0.56557 0.97964 0.90475 0.0
C1984 C 0.56493 0.01947 0.88808 0.0
C1985 C 0.56385 0.0075 0.86411 0.0
C1986 C 0.56366 0.95452 0.857 0.0
H1987 H 0.71649 0.42058 0.92508 0.0
H1988 H 0.69456 0.52118 0.87911 0.0
H1989 H 0.69346 0.4505 0.85026 0.0
H1990 H 0.7353 0.3618 0.88257 0.0
H1991 H 0.7353 0.29651 0.89476 0.0
H1992 H 0.73328 0.35276 0.91333 0.0
H1993 H 0.71192 0.31451 0.9289 0.0
H1994 H 0.714 0.25757 0.91071 0.0
H1995 H 0.6995 0.29581 0.90876 0.0
H1996 H 0.69687 0.37297 0.82419 0.0
H1997 H 0.70219 0.28835 0.80509 0.0
H1998 H 0.72127 0.23671 0.86791 0.0
C1999 C 0.7111 0.42696 0.90929 0.0
C2000 C 0.70563 0.47653 0.90438 0.0
C2001 C 0.69891 0.48377 0.88325 0.0
C2002 C 0.69822 0.44378 0.86666 0.0
C2003 C 0.70421 0.39625 0.87145 0.0
C2004 C 0.71029 0.38709 0.89241 0.0
C2005 C 0.71629 0.33282 0.89269 0.0
C2006 C 0.73091 0.33621 0.89603 0.0
C2007 C 0.71005 0.29812 0.91137 0.0
C2008 C 0.71289 0.31382 0.86852 0.0
C2009 C 0.70594 0.35101 0.85651 0.0
C2010 C 0.70216 0.34312 0.83353 0.0
C2011 C 0.70531 0.29527 0.82272 0.0
C2012 C 0.71209 0.25605 0.835 0.0
C2013 C 0.71599 0.26588 0.85811 0.0
H2014 H 0.57251 0.49666 0.36363 0.0
H2015 H 0.54488 0.45577 0.31042 0.0
H2016 H 0.53876 0.37638 0.33273 0.0
H2017 H 0.58278 0.36045 0.37423 0.0
H2018 H 0.58526 0.37136 0.40476 0.0
H2019 H 0.58728 0.4248 0.38459 0.0
H2020 H 0.57087 0.47961 0.40804 0.0
H2021 H 0.56854 0.42574 0.4279 0.0
H2022 H 0.555 0.4537 0.4129 0.0
H2023 H 0.53456 0.30649 0.3617 0.0
H2024 H 0.5359 0.23618 0.39081 0.0
H2025 H 0.56755 0.31656 0.42442 0.0
C2026 C 0.56532 0.47038 0.35656 0.0
C2027 C 0.55913 0.48195 0.33534 0.0
C2028 C 0.54981 0.44701 0.3265 0.0
C2029 C 0.54617 0.40236 0.3392 0.0
C2030 C 0.55215 0.39293 0.36044 0.0
C2031 C 0.56183 0.42484 0.36872 0.0
C2032 C 0.56725 0.40364 0.39134 0.0
C2033 C 0.58149 0.38919 0.38856 0.0
C2034 C 0.5653 0.44304 0.41122 0.0
C2035 C 0.55899 0.35499 0.39464 0.0
C2036 C 0.55017 0.35057 0.37678 0.0
C2037 C 0.54147 0.3093 0.37565 0.0
C2038 C 0.54224 0.26983 0.3924 0.0
C2039 C 0.55174 0.27125 0.40996 0.0
C2040 C 0.56 0.31521 0.41156 0.0
H2041 H 0.71358 0.93952 0.42439 0.0
H2042 H 0.69803 0.04489 0.3724 0.0
H2043 H 0.69676 0.97239 0.34459 0.0
H2044 H 0.73334 0.86877 0.38684 0.0
H2045 H 0.7308 0.80524 0.39994 0.0
H2046 H 0.72919 0.86398 0.41708 0.0
H2047 H 0.70611 0.83674 0.42862 0.0
H2048 H 0.70772 0.77748 0.41175 0.0
H2049 H 0.69457 0.82173 0.40631 0.0
H2050 H 0.69934 0.89094 0.32065 0.0
H2051 H 0.70399 0.80314 0.3038 0.0
H2052 H 0.71744 0.75013 0.37102 0.0
C2053 C 0.70957 0.94682 0.40738 0.0
C2054 C 0.70594 -0.00195 0.40062 0.0
C2055 C 0.70099 0.00628 0.37802 0.0
C2056 C 0.70018 0.96518 0.362 0.0
C2057 C 0.7043 0.91563 0.36878 0.0
C2058 C 0.70873 0.90593 0.39102 0.0
C2059 C 0.71315 0.84944 0.39333 0.0
C2060 C 0.72747 0.84674 0.39967 0.0
C2061 C 0.70489 0.81958 0.41105 0.0
C2062 C 0.71076 0.82969 0.3689 0.0
C2063 C 0.70563 0.86838 0.35498 0.0
C2064 C 0.70319 0.85994 0.33145 0.0
C2065 C 0.70592 0.81023 0.32197 0.0
C2066 C 0.71098 0.76987 0.33608 0.0
C2067 C 0.71343 0.78005 0.3598 0.0
H2068 H 0.46884 0.24129 0.12036 0.0
H2069 H 0.44559 0.19332 0.06169 0.0
H2070 H 0.44055 0.10953 0.08175 0.0
H2071 H 0.48251 0.1144 0.13102 0.0
H2072 H 0.4828 0.12229 0.16204 0.0
H2073 H 0.48389 0.17913 0.14354 0.0
H2074 H 0.46431 0.21992 0.16444 0.0
H2075 H 0.46302 0.16271 0.18275 0.0
H2076 H 0.44946 0.18366 0.16574 0.0
H2077 H 0.43812 0.03208 0.10794 0.0
H2078 H 0.44087 0.95952 0.13541 0.0
H2079 H 0.46647 0.05522 0.17703 0.0
C2080 C 0.46266 0.21313 0.11174 0.0
C2081 C 0.45752 0.22371 0.08951 0.0
C2082 C 0.44964 0.18579 0.07865 0.0
C2083 C 0.44665 0.13845 0.09002 0.0
C2084 C 0.45171 0.12966 0.11211 0.0
C2085 C 0.45974 0.16549 0.12269 0.0
C2086 C 0.46463 0.1449 0.14578 0.0
C2087 C 0.47933 0.13987 0.14557 0.0
C2088 C 0.46008 0.17989 0.16586 0.0
C2089 C 0.45818 0.09142 0.1465 0.0
C2090 C 0.45061 0.08409 0.12705 0.0
C2091 C 0.44401 0.03744 0.12321 0.0
C2092 C 0.44563 -0.00366 0.13903 0.0
C2093 C 0.45384 0.00162 0.15847 0.0
C2094 C 0.45991 0.05044 0.16265 0.0
H2095 H 0.30746 0.67747 0.1808 0.0
H2096 H 0.29585 0.7907 0.12856 0.0
H2097 H 0.29406 0.72019 0.09974 0.0
H2098 H 0.32676 0.60064 0.14435 0.0
H2099 H 0.32233 0.53778 0.15641 0.0
H2100 H 0.32157 0.59606 0.17406 0.0
H2101 H 0.29763 0.57771 0.18298 0.0
H2102 H 0.29838 0.51889 0.16561 0.0
H2103 H 0.28652 0.56846 0.15938 0.0
H2104 H 0.29574 0.64002 0.07522 0.0
H2105 H 0.29865 0.55178 0.05776 0.0
H2106 H 0.30835 0.48939 0.12555 0.0
C2107 C 0.30419 0.68695 0.16349 0.0
C2108 C 0.3018 0.73954 0.15695 0.0
C2109 C 0.29779 0.75066 0.13396 0.0
C2110 C 0.29673 0.7109 0.11739 0.0
C2111 C 0.29961 0.65981 0.124 0.0
C2112 C 0.30305 0.64735 0.14654 0.0
C2113 C 0.30605 0.58919 0.14861 0.0
C2114 C 0.32001 0.58044 0.15631 0.0
C2115 C 0.29658 0.56195 0.16512 0.0
C2116 C 0.30398 0.57165 0.12373 0.0
C2117 C 0.30031 0.61302 0.10981 0.0
C2118 C 0.29843 0.60698 0.08599 0.0
C2119 C 0.30017 0.55692 0.07618 0.0
C2120 C 0.30367 0.51374 0.09024 0.0
C2121 C 0.3056 0.5215 0.1143 0.0
H2122 H 0.46164 0.53384 0.66908 0.0
H2123 H 0.46849 0.42076 0.61408 0.0
H2124 H 0.46687 0.49083 0.58507 0.0
H2125 H 0.43897 0.61571 0.63682 0.0
H2126 H 0.4451 0.67635 0.64864 0.0
H2127 H 0.44598 0.6166 0.66537 0.0
H2128 H 0.47057 0.62859 0.6698 0.0
H2129 H 0.46971 0.68856 0.65332 0.0
H2130 H 0.48031 0.63656 0.64425 0.0
H2131 H 0.46545 0.57418 0.56155 0.0
H2132 H 0.46544 0.66585 0.54649 0.0
H2133 H 0.45968 0.72291 0.61657 0.0
C2134 C 0.46272 0.52391 0.65095 0.0
C2135 C 0.46509 0.47174 0.64395 0.0
C2136 C 0.46655 0.46038 0.61999 0.0
C2137 C 0.46563 0.49991 0.60324 0.0
C2138 C 0.46323 0.55088 0.6106 0.0
C2139 C 0.46185 0.56309 0.63387 0.0
C2140 C 0.45996 0.62151 0.63714 0.0
C2141 C 0.44671 0.63321 0.64761 0.0
C2142 C 0.47078 0.64519 0.652 0.0
C2143 C 0.46075 0.63993 0.61222 0.0
C2144 C 0.4625 0.59874 0.59706 0.0
C2145 C 0.46398 0.60689 0.57323 0.0
C2146 C 0.46393 0.65889 0.56479 0.0
C2147 C 0.46251 0.70153 0.58025 0.0
C2148 C 0.46068 0.69141 0.60414 0.0
H2149 H 0.3042 0.05856 0.57177 0.0
H2150 H 0.33107 0.96457 0.6113 0.0
H2151 H 0.33346 0.03559 0.63962 0.0
H2152 H 0.32036 0.18817 0.58377 0.0
H2153 H 0.30527 0.22235 0.58581 0.0
H2154 H 0.30678 0.16603 0.56706 0.0
H2155 H 0.28756 0.12226 0.58797 0.0
H2156 H 0.28619 0.17782 0.60713 0.0
H2157 H 0.28821 0.11267 0.6189 0.0
H2158 H 0.33087 0.11139 0.66661 0.0
H2159 H 0.32592 0.19452 0.68722 0.0
H2160 H 0.30147 0.24189 0.63009 0.0
C2161 C 0.31094 0.05394 0.5859 0.0
C2162 C 0.31749 0.00597 0.58925 0.0
C2163 C 0.32593 0.00073 0.60835 0.0
C2164 C 0.32735 0.04096 0.62464 0.0
C2165 C 0.32032 0.08672 0.62159 0.0
C2166 C 0.3125 0.09416 0.60245 0.0
C2167 C 0.30569 0.14672 0.60397 0.0
C2168 C 0.30977 0.18297 0.58396 0.0
C2169 C 0.29104 0.13939 0.60453 0.0
C2170 C 0.3107 0.16665 0.62706 0.0
C2171 C 0.31907 0.13129 0.63702 0.0
C2172 C 0.32447 0.13991 0.65886 0.0
C2173 C 0.32152 0.18682 0.67056 0.0
C2174 C 0.31336 0.22443 0.66023 0.0
C2175 C 0.30782 0.21382 0.63833 0.0
loop_
_geom_bond_atom_site_label_1
_geom_bond_atom_site_label_2
_geom_bond_distance
_geom_bond_site_symmetry_2
_ccdc_geom_bond_type
Co0 O1 2.216 . S
Co0 O2 2.091 . S
Co0 O4 2.004 . S
Co0 O10 2.021 . S
Co0 O12 2.137 . S
Co0 O13 2.244 . S
O1 Co0 2.216 . S
O1 C8 1.247 . S
O2 Co0 2.091 . S
O2 C8 1.261 . S
C3 O12 1.247 . S
C3 O13 1.272 . S
O4 Co0 2.004 . S
O4 C9 1.259 . S
Co5 O6 2.061 . S
Co5 O11 2.052 . S
Co5 O13 2.135 . S
O6 Co5 2.061 . S
O6 C9 1.235 . S
C7 O10 1.238 . S
C7 O11 1.241 . S
C8 O1 1.247 . S
C8 O2 1.261 . S
C9 O4 1.259 . S
C9 O6 1.235 . S
O10 Co0 2.021 . S
O10 C7 1.238 . S
O11 Co5 2.052 . S
O11 C7 1.241 . S
O12 Co0 2.137 . S
O12 C3 1.247 . S
O13 Co0 2.244 . S
O13 C3 1.272 . S
O13 Co5 2.135 . S
Co14 O15 2.216 . S
Co14 O16 2.091 . S
Co14 O18 2.004 . S
Co14 O24 2.021 . S
Co14 O26 2.137 . S
Co14 O27 2.244 . S
O15 Co14 2.216 . S
O15 C22 1.247 . S
O16 Co14 2.091 . S
O16 C22 1.261 . S
C17 O26 1.247 . S
C17 O27 1.272 . S
O18 Co14 2.004 . S
O18 C23 1.259 . S
Co19 O20 2.061 . S
Co19 O25 2.052 . S
Co19 O27 2.135 . S
O20 Co19 2.061 . S
O20 C23 1.235 . S
C21 O24 1.238 . S
C21 O25 1.241 . S
C22 O15 1.247 . S
C22 O16 1.261 . S
C23 O18 1.259 . S
C23 O20 1.235 . S
O24 Co14 2.021 . S
O24 C21 1.238 . S
O25 Co19 2.052 . S
O25 C21 1.241 . S
O26 Co14 2.137 . S
O26 C17 1.247 . S
O27 Co14 2.244 . S
O27 C17 1.272 . S
O27 Co19 2.135 . S
Co28 O29 2.216 . S
Co28 O30 2.091 . S
Co28 O32 2.004 . S
Co28 O38 2.021 . S
Co28 O40 2.137 . S
Co28 O41 2.244 . S
O29 Co28 2.216 . S
O29 C36 1.247 . S
O30 Co28 2.091 . S
O30 C36 1.261 . S
C31 O40 1.247 . S
C31 O41 1.272 . S
O32 Co28 2.004 . S
O32 C37 1.259 . S
Co33 O34 2.061 . S
Co33 O39 2.052 . S
Co33 O41 2.135 . S
O34 Co33 2.061 . S
O34 C37 1.235 . S
C35 O38 1.238 . S
C35 O39 1.241 . S
C36 O29 1.247 . S
C36 O30 1.261 . S
C37 O32 1.259 . S
C37 O34 1.235 . S
O38 Co28 2.021 . S
O38 C35 1.238 . S
O39 Co33 2.052 . S
O39 C35 1.241 . S
O40 Co28 2.137 . S
O40 C31 1.247 . S
O41 Co28 2.244 . S
O41 C31 1.272 . S
O41 Co33 2.135 . S
Co42 O43 2.216 . S
Co42 O44 2.091 . S
Co42 O46 2.004 . S
Co42 O52 2.021 . S
Co42 O54 2.137 . S
Co42 O55 2.244 . S
O43 Co42 2.216 . S
O43 C50 1.247 . S
O44 Co42 2.091 . S
O44 C50 1.261 . S
C45 O54 1.247 . S
C45 O55 1.272 . S
O46 Co42 2.004 . S
O46 C51 1.259 . S
Co47 O48 2.061 . S
Co47 O53 2.052 . S
Co47 O55 2.135 . S
O48 Co47 2.061 . S
O48 C51 1.235 . S
C49 O52 1.238 . S
C49 O53 1.241 . S
C50 O43 1.247 . S
C50 O44 1.261 . S
C51 O46 1.259 . S
C51 O48 1.235 . S
O52 Co42 2.021 . S
O52 C49 1.238 . S
O53 Co47 2.052 . S
O53 C49 1.241 . S
O54 Co42 2.137 . S
O54 C45 1.247 . S
O55 Co42 2.244 . S
O55 C45 1.272 . S
O55 Co47 2.135 . S
Co56 O57 2.216 . S
Co56 O58 2.091 . S
Co56 O60 2.004 . S
Co56 O66 2.021 . S
Co56 O68 2.137 . S
Co56 O69 2.244 . S
O57 Co56 2.216 . S
O57 C64 1.247 . S
O58 Co56 2.091 . S
O58 C64 1.261 . S
C59 O68 1.247 . S
C59 O69 1.272 . S
O60 Co56 2.004 . S
O60 C65 1.259 . S
Co61 O62 2.061 . S
Co61 O67 2.052 . S
Co61 O69 2.135 . S
O62 Co61 2.061 . S
O62 C65 1.235 . S
C63 O66 1.238 . S
C63 O67 1.241 . S
C64 O57 1.247 . S
C64 O58 1.261 . S
C65 O60 1.259 . S
C65 O62 1.235 . S
O66 Co56 2.021 . S
O66 C63 1.238 . S
O67 Co61 2.052 . S
O67 C63 1.241 . S
O68 Co56 2.137 . S
O68 C59 1.247 . S
O69 Co56 2.244 . S
O69 C59 1.272 . S
O69 Co61 2.135 . S
Co70 O71 2.216 . S
Co70 O72 2.091 . S
Co70 O74 2.004 . S
Co70 O80 2.021 . S
Co70 O82 2.137 . S
Co70 O83 2.244 . S
O71 Co70 2.216 . S
O71 C78 1.247 . S
O72 Co70 2.091 . S
O72 C78 1.261 . S
C73 O82 1.247 . S
C73 O83 1.272 . S
O74 Co70 2.004 . S
O74 C79 1.259 . S
Co75 O76 2.061 . S
Co75 O81 2.052 . S
Co75 O83 2.135 . S
O76 Co75 2.061 . S
O76 C79 1.235 . S
C77 O80 1.238 . S
C77 O81 1.241 . S
C78 O71 1.247 . S
C78 O72 1.261 . S
C79 O74 1.259 . S
C79 O76 1.235 . S
O80 Co70 2.021 . S
O80 C77 1.238 . S
O81 Co75 2.052 . S
O81 C77 1.241 . S
O82 Co70 2.137 . S
O82 C73 1.247 . S
O83 Co70 2.244 . S
O83 C73 1.272 . S
O83 Co75 2.135 . S
Co84 O85 2.216 . S
Co84 O86 2.091 . S
Co84 O88 2.004 . S
Co84 O94 2.021 . S
Co84 O96 2.137 . S
Co84 O97 2.244 . S
O85 Co84 2.216 . S
O85 C92 1.247 . S
O86 Co84 2.091 . S
O86 C92 1.261 . S
C87 O96 1.247 . S
C87 O97 1.272 . S
O88 Co84 2.004 . S
O88 C93 1.259 . S
Co89 O90 2.061 . S
Co89 O95 2.052 . S
Co89 O97 2.135 . S
O90 Co89 2.061 . S
O90 C93 1.235 . S
C91 O94 1.238 . S
C91 O95 1.241 . S
C92 O85 1.247 . S
C92 O86 1.261 . S
C93 O88 1.259 . S
C93 O90 1.235 . S
O94 Co84 2.021 . S
O94 C91 1.238 . S
O95 Co89 2.052 . S
O95 C91 1.241 . S
O96 Co84 2.137 . S
O96 C87 1.247 . S
O97 Co84 2.244 . S
O97 C87 1.272 . S
O97 Co89 2.135 . S
Co98 O99 2.216 . S
Co98 O100 2.091 . S
Co98 O102 2.004 . S
Co98 O108 2.021 . S
Co98 O110 2.137 . S
Co98 O111 2.244 . S
O99 Co98 2.216 . S
O99 C106 1.247 . S
O100 Co98 2.091 . S
O100 C106 1.261 . S
C101 O110 1.247 . S
C101 O111 1.272 . S
O102 Co98 2.004 . S
O102 C107 1.259 . S
Co103 O104 2.061 . S
Co103 O109 2.052 . S
Co103 O111 2.135 . S
O104 Co103 2.061 . S
O104 C107 1.235 . S
C105 O108 1.238 . S
C105 O109 1.241 . S
C106 O99 1.247 . S
C106 O100 1.261 . S
C107 O102 1.259 . S
C107 O104 1.235 . S
O108 Co98 2.021 . S
O108 C105 1.238 . S
O109 Co103 2.052 . S
O109 C105 1.241 . S
O110 Co98 2.137 . S
O110 C101 1.247 . S
O111 Co98 2.244 . S
O111 C101 1.272 . S
O111 Co103 2.135 . S
Co112 O113 2.216 . S
Co112 O114 2.091 . S
Co112 O116 2.004 . S
Co112 O122 2.021 . S
Co112 O124 2.137 . S
Co112 O125 2.244 . S
O113 Co112 2.216 . S
O113 C120 1.247 . S
O114 Co112 2.091 . S
O114 C120 1.261 . S
C115 O124 1.247 . S
C115 O125 1.272 . S
O116 Co112 2.004 . S
O116 C121 1.259 . S
Co117 O118 2.061 . S
Co117 O123 2.052 . S
Co117 O125 2.135 . S
O118 Co117 2.061 . S
O118 C121 1.235 . S
C119 O122 1.238 . S
C119 O123 1.241 . S
C120 O113 1.247 . S
C120 O114 1.261 . S
C121 O116 1.259 . S
C121 O118 1.235 . S
O122 Co112 2.021 . S
O122 C119 1.238 . S
O123 Co117 2.052 . S
O123 C119 1.241 . S
O124 Co112 2.137 . S
O124 C115 1.247 . S
O125 Co112 2.244 . S
O125 C115 1.272 . S
O125 Co117 2.135 . S
Co126 O127 2.216 . S
Co126 O128 2.091 . S
Co126 O130 2.004 . S
Co126 O136 2.021 . S
Co126 O138 2.137 . S
Co126 O139 2.244 . S
O127 Co126 2.216 . S
O127 C134 1.247 . S
O128 Co126 2.091 . S
O128 C134 1.261 . S
C129 O138 1.247 . S
C129 O139 1.272 . S
O130 Co126 2.004 . S
O130 C135 1.259 . S
Co131 O132 2.061 . S
Co131 O137 2.052 . S
Co131 O139 2.135 . S
O132 Co131 2.061 . S
O132 C135 1.235 . S
C133 O136 1.238 . S
C133 O137 1.241 . S
C134 O127 1.247 . S
C134 O128 1.261 . S
C135 O130 1.259 . S
C135 O132 1.235 . S
O136 Co126 2.021 . S
O136 C133 1.238 . S
O137 Co131 2.052 . S
O137 C133 1.241 . S
O138 Co126 2.137 . S
O138 C129 1.247 . S
O139 Co126 2.244 . S
O139 C129 1.272 . S
O139 Co131 2.135 . S
Co140 O141 2.216 . S
Co140 O142 2.091 . S
Co140 O144 2.004 . S
Co140 O150 2.021 . S
Co140 O152 2.137 . S
Co140 O153 2.244 . S
O141 Co140 2.216 . S
O141 C148 1.247 . S
O142 Co140 2.091 . S
O142 C148 1.261 . S
C143 O152 1.247 . S
C143 O153 1.272 . S
O144 Co140 2.004 . S
O144 C149 1.259 . S
Co145 O146 2.061 . S
Co145 O151 2.052 . S
Co145 O153 2.135 . S
O146 Co145 2.061 . S
O146 C149 1.235 . S
C147 O150 1.238 . S
C147 O151 1.241 . S
C148 O141 1.247 . S
C148 O142 1.261 . S
C149 O144 1.259 . S
C149 O146 1.235 . S
O150 Co140 2.021 . S
O150 C147 1.238 . S
O151 Co145 2.052 . S
O151 C147 1.241 . S
O152 Co140 2.137 . S
O152 C143 1.247 . S
O153 Co140 2.244 . S
O153 C143 1.272 . S
O153 Co145 2.135 . S
Co154 O155 2.216 . S
Co154 O156 2.091 . S
Co154 O158 2.004 . S
Co154 O164 2.021 . S
Co154 O166 2.137 . S
Co154 O167 2.244 . S
O155 Co154 2.216 . S
O155 C162 1.247 . S
O156 Co154 2.091 . S
O156 C162 1.261 . S
C157 O166 1.247 . S
C157 O167 1.272 . S
O158 Co154 2.004 . S
O158 C163 1.259 . S
Co159 O160 2.061 . S
Co159 O165 2.052 . S
Co159 O167 2.135 . S
O160 Co159 2.061 . S
O160 C163 1.235 . S
C161 O164 1.238 . S
C161 O165 1.241 . S
C162 O155 1.247 . S
C162 O156 1.261 . S
C163 O158 1.259 . S
C163 O160 1.235 . S
O164 Co154 2.021 . S
O164 C161 1.238 . S
O165 Co159 2.052 . S
O165 C161 1.241 . S
O166 Co154 2.137 . S
O166 C157 1.247 . S
O167 Co154 2.244 . S
O167 C157 1.272 . S
O167 Co159 2.135 . S
Co168 O169 2.216 . S
Co168 O170 2.091 . S
Co168 O172 2.004 . S
Co168 O178 2.021 . S
Co168 O180 2.137 . S
Co168 O181 2.244 . S
O169 Co168 2.216 . S
O169 C176 1.247 . S
O170 Co168 2.091 . S
O170 C176 1.261 . S
C171 O180 1.247 . S
C171 O181 1.272 . S
O172 Co168 2.004 . S
O172 C177 1.259 . S
Co173 O174 2.061 . S
Co173 O179 2.052 . S
Co173 O181 2.135 . S
O174 Co173 2.061 . S
O174 C177 1.235 . S
C175 O178 1.238 . S
C175 O179 1.241 . S
C176 O169 1.247 . S
C176 O170 1.261 . S
C177 O172 1.259 . S
C177 O174 1.235 . S
O178 Co168 2.021 . S
O178 C175 1.238 . S
O179 Co173 2.052 . S
O179 C175 1.241 . S
O180 Co168 2.137 . S
O180 C171 1.247 . S
O181 Co168 2.244 . S
O181 C171 1.272 . S
O181 Co173 2.135 . S
Co182 O183 2.216 . S
Co182 O184 2.091 . S
Co182 O186 2.004 . S
Co182 O192 2.021 . S
Co182 O194 2.137 . S
Co182 O195 2.244 . S
O183 Co182 2.216 . S
O183 C190 1.247 . S
O184 Co182 2.091 . S
O184 C190 1.261 . S
C185 O194 1.247 . S
C185 O195 1.272 . S
O186 Co182 2.004 . S
O186 C191 1.259 . S
Co187 O188 2.061 . S
Co187 O193 2.052 . S
Co187 O195 2.135 . S
O188 Co187 2.061 . S
O188 C191 1.235 . S
C189 O192 1.238 . S
C189 O193 1.241 . S
C190 O183 1.247 . S
C190 O184 1.261 . S
C191 O186 1.259 . S
C191 O188 1.235 . S
O192 Co182 2.021 . S
O192 C189 1.238 . S
O193 Co187 2.052 . S
O193 C189 1.241 . S
O194 Co182 2.137 . S
O194 C185 1.247 . S
O195 Co182 2.244 . S
O195 C185 1.272 . S
O195 Co187 2.135 . S
Co196 O197 2.216 . S
Co196 O198 2.091 . S
Co196 O200 2.004 . S
Co196 O206 2.021 . S
Co196 O208 2.137 . S
Co196 O209 2.244 . S
O197 Co196 2.216 . S
O197 C204 1.247 . S
O198 Co196 2.091 . S
O198 C204 1.261 . S
C199 O208 1.247 . S
C199 O209 1.272 . S
O200 Co196 2.004 . S
O200 C205 1.259 . S
Co201 O202 2.061 . S
Co201 O207 2.052 . S
Co201 O209 2.135 . S
O202 Co201 2.061 . S
O202 C205 1.235 . S
C203 O206 1.238 . S
C203 O207 1.241 . S
C204 O197 1.247 . S
C204 O198 1.261 . S
C205 O200 1.259 . S
C205 O202 1.235 . S
O206 Co196 2.021 . S
O206 C203 1.238 . S
O207 Co201 2.052 . S
O207 C203 1.241 . S
O208 Co196 2.137 . S
O208 C199 1.247 . S
O209 Co196 2.244 . S
O209 C199 1.272 . S
O209 Co201 2.135 . S
Co210 O211 2.216 . S
Co210 O212 2.091 . S
Co210 O214 2.004 . S
Co210 O220 2.021 . S
Co210 O222 2.137 . S
Co210 O223 2.244 . S
O211 Co210 2.216 . S
O211 C218 1.247 . S
O212 Co210 2.091 . S
O212 C218 1.261 . S
C213 O222 1.247 . S
C213 O223 1.272 . S
O214 Co210 2.004 . S
O214 C219 1.259 . S
Co215 O216 2.061 . S
Co215 O221 2.052 . S
Co215 O223 2.135 . S
O216 Co215 2.061 . S
O216 C219 1.235 . S
C217 O220 1.238 . S
C217 O221 1.241 . S
C218 O211 1.247 . S
C218 O212 1.261 . S
C219 O214 1.259 . S
C219 O216 1.235 . S
O220 Co210 2.021 . S
O220 C217 1.238 . S
O221 Co215 2.052 . S
O221 C217 1.241 . S
O222 Co210 2.137 . S
O222 C213 1.247 . S
O223 Co210 2.244 . S
O223 C213 1.272 . S
O223 Co215 2.135 . S
Co224 O225 2.216 . S
Co224 O226 2.091 . S
Co224 O228 2.004 . S
Co224 O234 2.021 . S
Co224 O236 2.137 . S
Co224 O237 2.244 . S
O225 Co224 2.216 . S
O225 C232 1.247 . S
O226 Co224 2.091 . S
O226 C232 1.261 . S
C227 O236 1.247 . S
C227 O237 1.272 . S
O228 Co224 2.004 . S
O228 C233 1.259 . S
Co229 O230 2.061 . S
Co229 O235 2.052 . S
Co229 O237 2.135 . S
O230 Co229 2.061 . S
O230 C233 1.235 . S
C231 O234 1.238 . S
C231 O235 1.241 . S
C232 O225 1.247 . S
C232 O226 1.261 . S
C233 O228 1.259 . S
C233 O230 1.235 . S
O234 Co224 2.021 . S
O234 C231 1.238 . S
O235 Co229 2.052 . S
O235 C231 1.241 . S
O236 Co224 2.137 . S
O236 C227 1.247 . S
O237 Co224 2.244 . S
O237 C227 1.272 . S
O237 Co229 2.135 . S
Co238 O239 2.216 . S
Co238 O240 2.091 . S
Co238 O242 2.004 . S
Co238 O248 2.021 . S
Co238 O250 2.137 . S
Co238 O251 2.244 . S
O239 Co238 2.216 . S
O239 C246 1.247 . S
O240 Co238 2.091 . S
O240 C246 1.261 . S
C241 O250 1.247 . S
C241 O251 1.272 . S
O242 Co238 2.004 . S
O242 C247 1.259 . S
Co243 O244 2.061 . S
Co243 O249 2.052 . S
Co243 O251 2.135 . S
O244 Co243 2.061 . S
O244 C247 1.235 . S
C245 O248 1.238 . S
C245 O249 1.241 . S
C246 O239 1.247 . S
C246 O240 1.261 . S
C247 O242 1.259 . S
C247 O244 1.235 . S
O248 Co238 2.021 . S
O248 C245 1.238 . S
O249 Co243 2.052 . S
O249 C245 1.241 . S
O250 Co238 2.137 . S
O250 C241 1.247 . S
O251 Co238 2.244 . S
O251 C241 1.272 . S
O251 Co243 2.135 . S
Co252 O253 2.216 . S
Co252 O254 2.091 . S
Co252 O256 2.004 . S
Co252 O262 2.021 . S
Co252 O264 2.137 . S
Co252 O265 2.244 . S
O253 Co252 2.216 . S
O253 C260 1.247 . S
O254 Co252 2.091 . S
O254 C260 1.261 . S
C255 O264 1.247 . S
C255 O265 1.272 . S
O256 Co252 2.004 . S
O256 C261 1.259 . S
Co257 O258 2.061 . S
Co257 O263 2.052 . S
Co257 O265 2.135 . S
O258 Co257 2.061 . S
O258 C261 1.235 . S
C259 O262 1.238 . S
C259 O263 1.241 . S
C260 O253 1.247 . S
C260 O254 1.261 . S
C261 O256 1.259 . S
C261 O258 1.235 . S
O262 Co252 2.021 . S
O262 C259 1.238 . S
O263 Co257 2.052 . S
O263 C259 1.241 . S
O264 Co252 2.137 . S
O264 C255 1.247 . S
O265 Co252 2.244 . S
O265 C255 1.272 . S
O265 Co257 2.135 . S
Co266 O267 2.216 . S
Co266 O268 2.091 . S
Co266 O270 2.004 . S
Co266 O276 2.021 . S
Co266 O278 2.137 . S
Co266 O279 2.244 . S
O267 Co266 2.216 . S
O267 C274 1.247 . S
O268 Co266 2.091 . S
O268 C274 1.261 . S
C269 O278 1.247 . S
C269 O279 1.272 . S
O270 Co266 2.004 . S
O270 C275 1.259 . S
Co271 O272 2.061 . S
Co271 O277 2.052 . S
Co271 O279 2.135 . S
O272 Co271 2.061 . S
O272 C275 1.235 . S
C273 O276 1.238 . S
C273 O277 1.241 . S
C274 O267 1.247 . S
C274 O268 1.261 . S
C275 O270 1.259 . S
C275 O272 1.235 . S
O276 Co266 2.021 . S
O276 C273 1.238 . S
O277 Co271 2.052 . S
O277 C273 1.241 . S
O278 Co266 2.137 . S
O278 C269 1.247 . S
O279 Co266 2.244 . S
O279 C269 1.272 . S
O279 Co271 2.135 . S
Co280 O281 2.216 . S
Co280 O282 2.091 . S
Co280 O284 2.004 . S
Co280 O290 2.021 . S
Co280 O292 2.137 . S
Co280 O293 2.244 . S
O281 Co280 2.216 . S
O281 C288 1.247 . S
O282 Co280 2.091 . S
O282 C288 1.261 . S
C283 O292 1.247 . S
C283 O293 1.272 . S
O284 Co280 2.004 . S
O284 C289 1.259 . S
Co285 O286 2.061 . S
Co285 O291 2.052 . S
Co285 O293 2.135 . S
O286 Co285 2.061 . S
O286 C289 1.235 . S
C287 O290 1.238 . S
C287 O291 1.241 . S
C288 O281 1.247 . S
C288 O282 1.261 . S
C289 O284 1.259 . S
C289 O286 1.235 . S
O290 Co280 2.021 . S
O290 C287 1.238 . S
O291 Co285 2.052 . S
O291 C287 1.241 . S
O292 Co280 2.137 . S
O292 C283 1.247 . S
O293 Co280 2.244 . S
O293 C283 1.272 . S
O293 Co285 2.135 . S
Co294 O295 2.216 . S
Co294 O296 2.091 . S
Co294 O298 2.004 . S
Co294 O304 2.021 . S
Co294 O306 2.137 . S
Co294 O307 2.244 . S
O295 Co294 2.216 . S
O295 C302 1.247 . S
O296 Co294 2.091 . S
O296 C302 1.261 . S
C297 O306 1.247 . S
C297 O307 1.272 . S
O298 Co294 2.004 . S
O298 C303 1.259 . S
Co299 O300 2.061 . S
Co299 O305 2.052 . S
Co299 O307 2.135 . S
O300 Co299 2.061 . S
O300 C303 1.235 . S
C301 O304 1.238 . S
C301 O305 1.241 . S
C302 O295 1.247 . S
C302 O296 1.261 . S
C303 O298 1.259 . S
C303 O300 1.235 . S
O304 Co294 2.021 . S
O304 C301 1.238 . S
O305 Co299 2.052 . S
O305 C301 1.241 . S
O306 Co294 2.137 . S
O306 C297 1.247 . S
O307 Co294 2.244 . S
O307 C297 1.272 . S
O307 Co299 2.135 . S
Co308 O309 2.216 . S
Co308 O310 2.091 . S
Co308 O312 2.004 . S
Co308 O318 2.021 . S
Co308 O320 2.137 . S
Co308 O321 2.244 . S
O309 Co308 2.216 . S
O309 C316 1.247 . S
O310 Co308 2.091 . S
O310 C316 1.261 . S
C311 O320 1.247 . S
C311 O321 1.272 . S
O312 Co308 2.004 . S
O312 C317 1.259 . S
Co313 O314 2.061 . S
Co313 O319 2.052 . S
Co313 O321 2.135 . S
O314 Co313 2.061 . S
O314 C317 1.235 . S
C315 O318 1.238 . S
C315 O319 1.241 . S
C316 O309 1.247 . S
C316 O310 1.261 . S
C317 O312 1.259 . S
C317 O314 1.235 . S
O318 Co308 2.021 . S
O318 C315 1.238 . S
O319 Co313 2.052 . S
O319 C315 1.241 . S
O320 Co308 2.137 . S
O320 C311 1.247 . S
O321 Co308 2.244 . S
O321 C311 1.272 . S
O321 Co313 2.135 . S
Co322 O323 2.216 . S
Co322 O324 2.091 . S
Co322 O326 2.004 . S
Co322 O332 2.021 . S
Co322 O334 2.137 . S
Co322 O335 2.244 . S
O323 Co322 2.216 . S
O323 C330 1.247 . S
O324 Co322 2.091 . S
O324 C330 1.261 . S
C325 O334 1.247 . S
C325 O335 1.272 . S
O326 Co322 2.004 . S
O326 C331 1.259 . S
Co327 O328 2.061 . S
Co327 O333 2.052 . S
Co327 O335 2.135 . S
O328 Co327 2.061 . S
O328 C331 1.235 . S
C329 O332 1.238 . S
C329 O333 1.241 . S
C330 O323 1.247 . S
C330 O324 1.261 . S
C331 O326 1.259 . S
C331 O328 1.235 . S
O332 Co322 2.021 . S
O332 C329 1.238 . S
O333 Co327 2.052 . S
O333 C329 1.241 . S
O334 Co322 2.137 . S
O334 C325 1.247 . S
O335 Co322 2.244 . S
O335 C325 1.272 . S
O335 Co327 2.135 . S
Co336 O337 2.216 . S
Co336 O338 2.091 . S
Co336 O340 2.004 . S
Co336 O346 2.021 . S
Co336 O348 2.137 . S
Co336 O349 2.244 . S
O337 Co336 2.216 . S
O337 C344 1.247 . S
O338 Co336 2.091 . S
O338 C344 1.261 . S
C339 O348 1.247 . S
C339 O349 1.272 . S
O340 Co336 2.004 . S
O340 C345 1.259 . S
Co341 O342 2.061 . S
Co341 O347 2.052 . S
Co341 O349 2.135 . S
O342 Co341 2.061 . S
O342 C345 1.235 . S
C343 O346 1.238 . S
C343 O347 1.241 . S
C344 O337 1.247 . S
C344 O338 1.261 . S
C345 O340 1.259 . S
C345 O342 1.235 . S
O346 Co336 2.021 . S
O346 C343 1.238 . S
O347 Co341 2.052 . S
O347 C343 1.241 . S
O348 Co336 2.137 . S
O348 C339 1.247 . S
O349 Co336 2.244 . S
O349 C339 1.272 . S
O349 Co341 2.135 . S
Co350 O351 2.216 . S
Co350 O352 2.091 . S
Co350 O354 2.004 . S
Co350 O360 2.021 . S
Co350 O362 2.137 . S
Co350 O363 2.244 . S
O351 Co350 2.216 . S
O351 C358 1.247 . S
O352 Co350 2.091 . S
O352 C358 1.261 . S
C353 O362 1.247 . S
C353 O363 1.272 . S
O354 Co350 2.004 . S
O354 C359 1.259 . S
Co355 O356 2.061 . S
Co355 O361 2.052 . S
Co355 O363 2.135 . S
O356 Co355 2.061 . S
O356 C359 1.235 . S
C357 O360 1.238 . S
C357 O361 1.241 . S
C358 O351 1.247 . S
C358 O352 1.261 . S
C359 O354 1.259 . S
C359 O356 1.235 . S
O360 Co350 2.021 . S
O360 C357 1.238 . S
O361 Co355 2.052 . S
O361 C357 1.241 . S
O362 Co350 2.137 . S
O362 C353 1.247 . S
O363 Co350 2.244 . S
O363 C353 1.272 . S
O363 Co355 2.135 . S
Co364 O365 2.216 . S
Co364 O366 2.091 . S
Co364 O368 2.004 . S
Co364 O374 2.021 . S
Co364 O376 2.137 . S
Co364 O377 2.244 . S
O365 Co364 2.216 . S
O365 C372 1.247 . S
O366 Co364 2.091 . S
O366 C372 1.261 . S
C367 O376 1.247 . S
C367 O377 1.272 . S
O368 Co364 2.004 . S
O368 C373 1.259 . S
Co369 O370 2.061 . S
Co369 O375 2.052 . S
Co369 O377 2.135 . S
O370 Co369 2.061 . S
O370 C373 1.235 . S
C371 O374 1.238 . S
C371 O375 1.241 . S
C372 O365 1.247 . S
C372 O366 1.261 . S
C373 O368 1.259 . S
C373 O370 1.235 . S
O374 Co364 2.021 . S
O374 C371 1.238 . S
O375 Co369 2.052 . S
O375 C371 1.241 . S
O376 Co364 2.137 . S
O376 C367 1.247 . S
O377 Co364 2.244 . S
O377 C367 1.272 . S
O377 Co369 2.135 . S
Co378 O379 2.216 . S
Co378 O380 2.091 . S
Co378 O382 2.004 . S
Co378 O388 2.021 . S
Co378 O390 2.137 . S
Co378 O391 2.244 . S
O379 Co378 2.216 . S
O379 C386 1.247 . S
O380 Co378 2.091 . S
O380 C386 1.261 . S
C381 O390 1.247 . S
C381 O391 1.272 . S
O382 Co378 2.004 . S
O382 C387 1.259 . S
Co383 O384 2.061 . S
Co383 O389 2.052 . S
Co383 O391 2.135 . S
O384 Co383 2.061 . S
O384 C387 1.235 . S
C385 O388 1.238 . S
C385 O389 1.241 . S
C386 O379 1.247 . S
C386 O380 1.261 . S
C387 O382 1.259 . S
C387 O384 1.235 . S
O388 Co378 2.021 . S
O388 C385 1.238 . S
O389 Co383 2.052 . S
O389 C385 1.241 . S
O390 Co378 2.137 . S
O390 C381 1.247 . S
O391 Co378 2.244 . S
O391 C381 1.272 . S
O391 Co383 2.135 . S
Co392 O393 2.216 . S
Co392 O394 2.091 . S
Co392 O396 2.004 . S
Co392 O402 2.021 . S
Co392 O404 2.137 . S
Co392 O405 2.244 . S
O393 Co392 2.216 . S
O393 C400 1.247 . S
O394 Co392 2.091 . S
O394 C400 1.261 . S
C395 O404 1.247 . S
C395 O405 1.272 . S
O396 Co392 2.004 . S
O396 C401 1.259 . S
Co397 O398 2.061 . S
Co397 O403 2.052 . S
Co397 O405 2.135 . S
O398 Co397 2.061 . S
O398 C401 1.235 . S
C399 O402 1.238 . S
C399 O403 1.241 . S
C400 O393 1.247 . S
C400 O394 1.261 . S
C401 O396 1.259 . S
C401 O398 1.235 . S
O402 Co392 2.021 . S
O402 C399 1.238 . S
O403 Co397 2.052 . S
O403 C399 1.241 . S
O404 Co392 2.137 . S
O404 C395 1.247 . S
O405 Co392 2.244 . S
O405 C395 1.272 . S
O405 Co397 2.135 . S
Co406 O407 2.216 . S
Co406 O408 2.091 . S
Co406 O410 2.004 . S
Co406 O416 2.021 . S
Co406 O418 2.137 . S
Co406 O419 2.244 . S
O407 Co406 2.216 . S
O407 C414 1.247 . S
O408 Co406 2.091 . S
O408 C414 1.261 . S
C409 O418 1.247 . S
C409 O419 1.272 . S
O410 Co406 2.004 . S
O410 C415 1.259 . S
Co411 O412 2.061 . S
Co411 O417 2.052 . S
Co411 O419 2.135 . S
O412 Co411 2.061 . S
O412 C415 1.235 . S
C413 O416 1.238 . S
C413 O417 1.241 . S
C414 O407 1.247 . S
C414 O408 1.261 . S
C415 O410 1.259 . S
C415 O412 1.235 . S
O416 Co406 2.021 . S
O416 C413 1.238 . S
O417 Co411 2.052 . S
O417 C413 1.241 . S
O418 Co406 2.137 . S
O418 C409 1.247 . S
O419 Co406 2.244 . S
O419 C409 1.272 . S
O419 Co411 2.135 . S
Co420 O421 2.216 . S
Co420 O422 2.091 . S
Co420 O424 2.004 . S
Co420 O430 2.021 . S
Co420 O432 2.137 . S
Co420 O433 2.244 . S
O421 Co420 2.216 . S
O421 C428 1.247 . S
O422 Co420 2.091 . S
O422 C428 1.261 . S
C423 O432 1.247 . S
C423 O433 1.272 . S
O424 Co420 2.004 . S
O424 C429 1.259 . S
Co425 O426 2.061 . S
Co425 O431 2.052 . S
Co425 O433 2.135 . S
O426 Co425 2.061 . S
O426 C429 1.235 . S
C427 O430 1.238 . S
C427 O431 1.241 . S
C428 O421 1.247 . S
C428 O422 1.261 . S
C429 O424 1.259 . S
C429 O426 1.235 . S
O430 Co420 2.021 . S
O430 C427 1.238 . S
O431 Co425 2.052 . S
O431 C427 1.241 . S
O432 Co420 2.137 . S
O432 C423 1.247 . S
O433 Co420 2.244 . S
O433 C423 1.272 . S
O433 Co425 2.135 . S
Co434 O435 2.216 . S
Co434 O436 2.091 . S
Co434 O438 2.004 . S
Co434 O444 2.021 . S
Co434 O446 2.137 . S
Co434 O447 2.244 . S
O435 Co434 2.216 . S
O435 C442 1.247 . S
O436 Co434 2.091 . S
O436 C442 1.261 . S
C437 O446 1.247 . S
C437 O447 1.272 . S
O438 Co434 2.004 . S
O438 C443 1.259 . S
Co439 O440 2.061 . S
Co439 O445 2.052 . S
Co439 O447 2.135 . S
O440 Co439 2.061 . S
O440 C443 1.235 . S
C441 O444 1.238 . S
C441 O445 1.241 . S
C442 O435 1.247 . S
C442 O436 1.261 . S
C443 O438 1.259 . S
C443 O440 1.235 . S
O444 Co434 2.021 . S
O444 C441 1.238 . S
O445 Co439 2.052 . S
O445 C441 1.241 . S
O446 Co434 2.137 . S
O446 C437 1.247 . S
O447 Co434 2.244 . S
O447 C437 1.272 . S
O447 Co439 2.135 . S
H448 C460 0.930 . S
H449 C462 0.930 . S
H450 C463 0.930 . S
H451 C467 0.959 . S
H452 C467 0.959 . S
H453 C467 0.961 . S
H454 C468 0.960 . S
H455 C468 0.961 . S
H456 C468 0.959 . S
H457 C471 0.929 . S
H458 C472 0.931 . S
H459 C474 0.930 . S
C460 H448 0.930 . S
C460 C461 1.399 . S
C460 C465 1.399 . S
C461 C460 1.399 . S
C461 C462 1.376 . S
C462 H449 0.930 . S
C462 C461 1.376 . S
C462 C463 1.388 . S
C463 H450 0.930 . S
C463 C462 1.388 . S
C463 C464 1.390 . S
C464 C463 1.390 . S
C464 C465 1.394 . S
C464 C470 1.465 . S
C465 C460 1.399 . S
C465 C464 1.394 . S
C465 C466 1.516 . S
C466 C465 1.516 . S
C466 C467 1.502 . S
C466 C468 1.561 . S
C466 C469 1.526 . S
C467 H451 0.959 . S
C467 H452 0.959 . S
C467 H453 0.961 . S
C467 C466 1.502 . S
C468 H454 0.960 . S
C468 H455 0.961 . S
C468 H456 0.959 . S
C468 C466 1.561 . S
C469 C466 1.526 . S
C469 C470 1.396 . S
C469 C474 1.390 . S
C470 C464 1.465 . S
C470 C469 1.396 . S
C470 C471 1.399 . S
C471 H457 0.929 . S
C471 C470 1.399 . S
C471 C472 1.385 . S
C472 H458 0.931 . S
C472 C471 1.385 . S
C472 C473 1.389 . S
C473 C472 1.389 . S
C473 C474 1.387 . S
C474 H459 0.930 . S
C474 C469 1.390 . S
C474 C473 1.387 . S
H475 C487 0.930 . S
H476 C489 0.930 . S
H477 C490 0.930 . S
H478 C494 0.959 . S
H479 C494 0.959 . S
H480 C494 0.961 . S
H481 C495 0.960 . S
H482 C495 0.961 . S
H483 C495 0.959 . S
H484 C498 0.929 . S
H485 C499 0.931 . S
H486 C501 0.930 . S
C487 H475 0.930 . S
C487 C488 1.399 . S
C487 C492 1.399 . S
C488 C487 1.399 . S
C488 C489 1.376 . S
C489 H476 0.930 . S
C489 C488 1.376 . S
C489 C490 1.388 . S
C490 H477 0.930 . S
C490 C489 1.388 . S
C490 C491 1.390 . S
C491 C490 1.390 . S
C491 C492 1.394 . S
C491 C497 1.465 . S
C492 C487 1.399 . S
C492 C491 1.394 . S
C492 C493 1.516 . S
C493 C492 1.516 . S
C493 C494 1.502 . S
C493 C495 1.561 . S
C493 C496 1.526 . S
C494 H478 0.959 . S
C494 H479 0.959 . S
C494 H480 0.961 . S
C494 C493 1.502 . S
C495 H481 0.960 . S
C495 H482 0.961 . S
C495 H483 0.959 . S
C495 C493 1.561 . S
C496 C493 1.526 . S
C496 C497 1.396 . S
C496 C501 1.390 . S
C497 C491 1.465 . S
C497 C496 1.396 . S
C497 C498 1.399 . S
C498 H484 0.929 . S
C498 C497 1.399 . S
C498 C499 1.385 . S
C499 H485 0.931 . S
C499 C498 1.385 . S
C499 C500 1.389 . S
C500 C499 1.389 . S
C500 C501 1.387 . S
C501 H486 0.930 . S
C501 C496 1.390 . S
C501 C500 1.387 . S
H502 C514 0.930 . S
H503 C516 0.930 . S
H504 C517 0.930 . S
H505 C521 0.959 . S
H506 C521 0.959 . S
H507 C521 0.961 . S
H508 C522 0.960 . S
H509 C522 0.961 . S
H510 C522 0.959 . S
H511 C525 0.929 . S
H512 C526 0.931 . S
H513 C528 0.930 . S
C514 H502 0.930 . S
C514 C515 1.399 . S
C514 C519 1.399 . S
C515 C514 1.399 . S
C515 C516 1.376 . S
C516 H503 0.930 . S
C516 C515 1.376 . S
C516 C517 1.388 . S
C517 H504 0.930 . S
C517 C516 1.388 . S
C517 C518 1.390 . S
C518 C517 1.390 . S
C518 C519 1.394 . S
C518 C524 1.465 . S
C519 C514 1.399 . S
C519 C518 1.394 . S
C519 C520 1.516 . S
C520 C519 1.516 . S
C520 C521 1.502 . S
C520 C522 1.561 . S
C520 C523 1.526 . S
C521 H505 0.959 . S
C521 H506 0.959 . S
C521 H507 0.961 . S
C521 C520 1.502 . S
C522 H508 0.960 . S
C522 H509 0.961 . S
C522 H510 0.959 . S
C522 C520 1.561 . S
C523 C520 1.526 . S
C523 C524 1.396 . S
C523 C528 1.390 . S
C524 C518 1.465 . S
C524 C523 1.396 . S
C524 C525 1.399 . S
C525 H511 0.929 . S
C525 C524 1.399 . S
C525 C526 1.385 . S
C526 H512 0.931 . S
C526 C525 1.385 . S
C526 C527 1.389 . S
C527 C526 1.389 . S
C527 C528 1.387 . S
C528 H513 0.930 . S
C528 C523 1.390 . S
C528 C527 1.387 . S
H529 C541 0.930 . S
H530 C543 0.930 . S
H531 C544 0.930 . S
H532 C548 0.959 . S
H533 C548 0.959 1_545 S
H534 C548 0.961 1_545 S
H535 C549 0.960 . S
H536 C549 0.961 . S
H537 C549 0.959 . S
H538 C552 0.929 . S
H539 C553 0.931 . S
H540 C555 0.930 . S
C541 H529 0.930 . S
C541 C542 1.399 . S
C541 C546 1.399 . S
C542 C541 1.399 . S
C542 C543 1.376 . S
C543 H530 0.930 . S
C543 C542 1.376 . S
C543 C544 1.388 . S
C544 H531 0.930 . S
C544 C543 1.388 . S
C544 C545 1.390 . S
C545 C544 1.390 . S
C545 C546 1.394 . S
C545 C551 1.465 . S
C546 C541 1.399 . S
C546 C545 1.394 . S
C546 C547 1.516 . S
C547 C546 1.516 . S
C547 C548 1.502 . S
C547 C549 1.561 . S
C547 C550 1.526 . S
C548 H532 0.959 . S
C548 H533 0.959 1_565 S
C548 H534 0.961 1_565 S
C548 C547 1.502 . S
C549 H535 0.960 . S
C549 H536 0.961 . S
C549 H537 0.959 . S
C549 C547 1.561 . S
C550 C547 1.526 . S
C550 C551 1.396 . S
C550 C555 1.390 . S
C551 C545 1.465 . S
C551 C550 1.396 . S
C551 C552 1.399 . S
C552 H538 0.929 . S
C552 C551 1.399 . S
C552 C553 1.385 . S
C553 H539 0.931 . S
C553 C552 1.385 . S
C553 C554 1.389 . S
C554 C553 1.389 . S
C554 C555 1.387 . S
C555 H540 0.930 . S
C555 C550 1.390 . S
C555 C554 1.387 . S
H556 C568 0.930 . S
H557 C570 0.930 . S
H558 C571 0.930 . S
H559 C575 0.959 . S
H560 C575 0.959 . S
H561 C575 0.961 . S
H562 C576 0.960 . S
H563 C576 0.961 . S
H564 C576 0.959 . S
H565 C579 0.929 . S
H566 C580 0.931 . S
H567 C582 0.930 . S
C568 H556 0.930 . S
C568 C569 1.399 . S
C568 C573 1.399 . S
C569 C568 1.399 . S
C569 C570 1.376 . S
C570 H557 0.930 . S
C570 C569 1.376 . S
C570 C571 1.388 . S
C571 H558 0.930 . S
C571 C570 1.388 . S
C571 C572 1.390 . S
C572 C571 1.390 . S
C572 C573 1.394 . S
C572 C578 1.465 . S
C573 C568 1.399 . S
C573 C572 1.394 . S
C573 C574 1.516 . S
C574 C573 1.516 . S
C574 C575 1.502 . S
C574 C576 1.561 . S
C574 C577 1.526 . S
C575 H559 0.959 . S
C575 H560 0.959 . S
C575 H561 0.961 . S
C575 C574 1.502 . S
C576 H562 0.960 . S
C576 H563 0.961 . S
C576 H564 0.959 . S
C576 C574 1.561 . S
C577 C574 1.526 . S
C577 C578 1.396 . S
C577 C582 1.390 . S
C578 C572 1.465 . S
C578 C577 1.396 . S
C578 C579 1.399 . S
C579 H565 0.929 . S
C579 C578 1.399 . S
C579 C580 1.385 . S
C580 H566 0.931 . S
C580 C579 1.385 . S
C580 C581 1.389 . S
C581 C580 1.389 . S
C581 C582 1.387 . S
C582 H567 0.930 . S
C582 C577 1.390 . S
C582 C581 1.387 . S
H583 C595 0.930 . S
H584 C597 0.930 . S
H585 C598 0.930 . S
H586 C602 0.959 . S
H587 C602 0.959 . S
H588 C602 0.961 . S
H589 C603 0.960 . S
H590 C603 0.961 . S
H591 C603 0.959 . S
H592 C606 0.929 . S
H593 C607 0.931 . S
H594 C609 0.930 . S
C595 H583 0.930 . S
C595 C596 1.399 . S
C595 C600 1.399 . S
C596 C595 1.399 . S
C596 C597 1.376 . S
C597 H584 0.930 . S
C597 C596 1.376 . S
C597 C598 1.388 . S
C598 H585 0.930 . S
C598 C597 1.388 . S
C598 C599 1.390 . S
C599 C598 1.390 . S
C599 C600 1.394 . S
C599 C605 1.465 . S
C600 C595 1.399 . S
C600 C599 1.394 . S
C600 C601 1.516 . S
C601 C600 1.516 . S
C601 C602 1.502 . S
C601 C603 1.561 . S
C601 C604 1.526 . S
C602 H586 0.959 . S
C602 H587 0.959 . S
C602 H588 0.961 . S
C602 C601 1.502 . S
C603 H589 0.960 . S
C603 H590 0.961 . S
C603 H591 0.959 . S
C603 C601 1.561 . S
C604 C601 1.526 . S
C604 C605 1.396 . S
C604 C609 1.390 . S
C605 C599 1.465 . S
C605 C604 1.396 . S
C605 C606 1.399 . S
C606 H592 0.929 . S
C606 C605 1.399 . S
C606 C607 1.385 . S
C607 H593 0.931 . S
C607 C606 1.385 . S
C607 C608 1.389 . S
C608 C607 1.389 . S
C608 C609 1.387 . S
C609 H594 0.930 . S
C609 C604 1.390 . S
C609 C608 1.387 . S
H610 C622 0.930 . S
H611 C624 0.930 . S
H612 C625 0.930 . S
H613 C629 0.959 . S
H614 C629 0.959 . S
H615 C629 0.961 . S
H616 C630 0.960 . S
H617 C630 0.961 . S
H618 C630 0.959 . S
H619 C633 0.929 . S
H620 C634 0.931 . S
H621 C636 0.930 . S
C622 H610 0.930 . S
C622 C623 1.399 . S
C622 C627 1.399 . S
C623 C622 1.399 . S
C623 C624 1.376 . S
C624 H611 0.930 . S
C624 C623 1.376 . S
C624 C625 1.388 . S
C625 H612 0.930 . S
C625 C624 1.388 . S
C625 C626 1.390 . S
C626 C625 1.390 . S
C626 C627 1.394 . S
C626 C632 1.465 . S
C627 C622 1.399 . S
C627 C626 1.394 . S
C627 C628 1.516 . S
C628 C627 1.516 . S
C628 C629 1.502 . S
C628 C630 1.561 . S
C628 C631 1.526 . S
C629 H613 0.959 . S
C629 H614 0.959 . S
C629 H615 0.961 . S
C629 C628 1.502 . S
C630 H616 0.960 . S
C630 H617 0.961 . S
C630 H618 0.959 . S
C630 C628 1.561 . S
C631 C628 1.526 . S
C631 C632 1.396 . S
C631 C636 1.390 . S
C632 C626 1.465 . S
C632 C631 1.396 . S
C632 C633 1.399 . S
C633 H619 0.929 . S
C633 C632 1.399 . S
C633 C634 1.385 . S
C634 H620 0.931 . S
C634 C633 1.385 . S
C634 C635 1.389 . S
C635 C634 1.389 . S
C635 C636 1.387 . S
C636 H621 0.930 . S
C636 C631 1.390 . S
C636 C635 1.387 . S
H637 C649 0.930 . S
H638 C651 0.930 . S
H639 C652 0.930 . S
H640 C656 0.959 . S
H641 C656 0.959 . S
H642 C656 0.961 . S
H643 C657 0.960 . S
H644 C657 0.961 . S
H645 C657 0.959 . S
H646 C660 0.929 . S
H647 C661 0.931 . S
H648 C663 0.930 . S
C649 H637 0.930 . S
C649 C650 1.399 . S
C649 C654 1.399 . S
C650 C649 1.399 . S
C650 C651 1.376 . S
C651 H638 0.930 . S
C651 C650 1.376 . S
C651 C652 1.388 . S
C652 H639 0.930 . S
C652 C651 1.388 . S
C652 C653 1.390 . S
C653 C652 1.390 . S
C653 C654 1.394 . S
C653 C659 1.465 . S
C654 C649 1.399 . S
C654 C653 1.394 . S
C654 C655 1.516 . S
C655 C654 1.516 . S
C655 C656 1.502 . S
C655 C657 1.561 . S
C655 C658 1.526 . S
C656 H640 0.959 . S
C656 H641 0.959 . S
C656 H642 0.961 . S
C656 C655 1.502 . S
C657 H643 0.960 . S
C657 H644 0.961 . S
C657 H645 0.959 . S
C657 C655 1.561 . S
C658 C655 1.526 . S
C658 C659 1.396 . S
C658 C663 1.390 . S
C659 C653 1.465 . S
C659 C658 1.396 . S
C659 C660 1.399 . S
C660 H646 0.929 . S
C660 C659 1.399 . S
C660 C661 1.385 . S
C661 H647 0.931 . S
C661 C660 1.385 . S
C661 C662 1.389 . S
C662 C661 1.389 . S
C662 C663 1.387 . S
C663 H648 0.930 . S
C663 C658 1.390 . S
C663 C662 1.387 . S
H664 C676 0.930 . S
H665 C678 0.930 . S
H666 C679 0.930 . S
H667 C683 0.959 . S
H668 C683 0.959 . S
H669 C683 0.965 . S
H670 C684 0.960 . S
H671 C684 0.961 . S
H672 C684 0.959 . S
H673 C687 0.929 . S
H674 C688 0.931 . S
H675 C690 0.930 . S
C676 H664 0.930 . S
C676 C677 1.399 . S
C676 C681 1.399 . S
C677 C676 1.399 . S
C677 C678 1.376 . S
C678 H665 0.930 . S
C678 C677 1.376 . S
C678 C679 1.388 . S
C679 H666 0.930 . S
C679 C678 1.388 . S
C679 C680 1.390 . S
C680 C679 1.390 . S
C680 C681 1.394 . S
C680 C686 1.465 . S
C681 C676 1.399 . S
C681 C680 1.394 . S
C681 C682 1.516 . S
C682 C681 1.516 . S
C682 C683 1.502 . S
C682 C684 1.561 . S
C682 C685 1.526 . S
C683 H667 0.959 . S
C683 H668 0.959 . S
C683 H669 0.965 . S
C683 C682 1.502 . S
C684 H670 0.960 . S
C684 H671 0.961 . S
C684 H672 0.959 . S
C684 C682 1.561 . S
C685 C682 1.526 . S
C685 C686 1.396 . S
C685 C690 1.390 . S
C686 C680 1.465 . S
C686 C685 1.396 . S
C686 C687 1.399 . S
C687 H673 0.929 . S
C687 C686 1.399 . S
C687 C688 1.385 . S
C688 H674 0.931 . S
C688 C687 1.385 . S
C688 C689 1.389 . S
C689 C688 1.389 . S
C689 C690 1.387 . S
C690 H675 0.930 . S
C690 C685 1.390 . S
C690 C689 1.387 . S
H691 C703 0.930 . S
H692 C705 0.930 . S
H693 C706 0.930 . S
H694 C710 0.959 . S
H695 C710 0.959 . S
H696 C710 0.961 . S
H697 C711 0.960 . S
H698 C711 0.961 . S
H699 C711 0.959 . S
H700 C714 0.929 . S
H701 C715 0.931 . S
H702 C717 0.930 . S
C703 H691 0.930 . S
C703 C704 1.399 . S
C703 C708 1.399 . S
C704 C703 1.399 . S
C704 C705 1.376 . S
C705 H692 0.930 . S
C705 C704 1.376 . S
C705 C706 1.388 . S
C706 H693 0.930 . S
C706 C705 1.388 . S
C706 C707 1.390 . S
C707 C706 1.390 . S
C707 C708 1.394 . S
C707 C713 1.465 . S
C708 C703 1.399 . S
C708 C707 1.394 . S
C708 C709 1.516 . S
C709 C708 1.516 . S
C709 C710 1.502 . S
C709 C711 1.561 . S
C709 C712 1.526 . S
C710 H694 0.959 . S
C710 H695 0.959 . S
C710 H696 0.961 . S
C710 C709 1.502 . S
C711 H697 0.960 . S
C711 H698 0.961 . S
C711 H699 0.959 . S
C711 C709 1.561 . S
C712 C709 1.526 . S
C712 C713 1.396 . S
C712 C717 1.390 . S
C713 C707 1.465 . S
C713 C712 1.396 . S
C713 C714 1.399 . S
C714 H700 0.929 . S
C714 C713 1.399 . S
C714 C715 1.385 . S
C715 H701 0.931 . S
C715 C714 1.385 . S
C715 C716 1.389 . S
C716 C715 1.389 . S
C716 C717 1.387 . S
C717 H702 0.930 . S
C717 C712 1.390 . S
C717 C716 1.387 . S
H718 C730 0.930 . S
H719 C732 0.930 . S
H720 C733 0.930 . S
H721 C737 0.959 . S
H722 C737 0.959 . S
H723 C737 0.961 . S
H724 C738 0.960 . S
H725 C738 0.961 . S
H726 C738 0.959 . S
H727 C741 0.929 . S
H728 C742 0.931 . S
H729 C744 0.930 . S
C730 H718 0.930 . S
C730 C731 1.399 . S
C730 C735 1.399 . S
C731 C730 1.399 . S
C731 C732 1.376 . S
C732 H719 0.930 . S
C732 C731 1.376 . S
C732 C733 1.388 . S
C733 H720 0.930 . S
C733 C732 1.388 . S
C733 C734 1.390 . S
C734 C733 1.390 . S
C734 C735 1.394 . S
C734 C740 1.465 . S
C735 C730 1.399 . S
C735 C734 1.394 . S
C735 C736 1.516 . S
C736 C735 1.516 . S
C736 C737 1.502 . S
C736 C738 1.561 . S
C736 C739 1.526 . S
C737 H721 0.959 . S
C737 H722 0.959 . S
C737 H723 0.961 . S
C737 C736 1.502 . S
C738 H724 0.960 . S
C738 H725 0.961 . S
C738 H726 0.959 . S
C738 C736 1.561 . S
C739 C736 1.526 . S
C739 C740 1.396 . S
C739 C744 1.390 . S
C740 C734 1.465 . S
C740 C739 1.396 . S
C740 C741 1.399 . S
C741 H727 0.929 . S
C741 C740 1.399 . S
C741 C742 1.385 . S
C742 H728 0.931 . S
C742 C741 1.385 . S
C742 C743 1.389 . S
C743 C742 1.389 . S
C743 C744 1.387 . S
C744 H729 0.930 . S
C744 C739 1.390 . S
C744 C743 1.387 . S
H745 C757 0.930 . S
H746 C759 0.930 . S
H747 C760 0.930 . S
H748 C764 0.959 . S
H749 C764 0.959 . S
H750 C764 0.961 . S
H751 C765 0.960 . S
H752 C765 0.961 . S
H753 C765 0.959 . S
H754 C768 0.929 . S
H755 C769 0.931 . S
H756 C771 0.930 . S
C757 H745 0.930 . S
C757 C758 1.399 . S
C757 C762 1.399 . S
C758 C757 1.399 . S
C758 C759 1.376 . S
C759 H746 0.930 . S
C759 C758 1.376 . S
C759 C760 1.388 . S
C760 H747 0.930 . S
C760 C759 1.388 . S
C760 C761 1.390 . S
C761 C760 1.390 . S
C761 C762 1.394 . S
C761 C767 1.465 . S
C762 C757 1.399 . S
C762 C761 1.394 . S
C762 C763 1.516 . S
C763 C762 1.516 . S
C763 C764 1.502 . S
C763 C765 1.561 . S
C763 C766 1.526 . S
C764 H748 0.959 . S
C764 H749 0.959 . S
C764 H750 0.961 . S
C764 C763 1.502 . S
C765 H751 0.960 . S
C765 H752 0.961 . S
C765 H753 0.959 . S
C765 C763 1.561 . S
C766 C763 1.526 . S
C766 C767 1.396 . S
C766 C771 1.390 . S
C767 C761 1.465 . S
C767 C766 1.396 . S
C767 C768 1.399 . S
C768 H754 0.929 . S
C768 C767 1.399 . S
C768 C769 1.385 . S
C769 H755 0.931 . S
C769 C768 1.385 . S
C769 C770 1.389 . S
C770 C769 1.389 . S
C770 C771 1.387 . S
C771 H756 0.930 . S
C771 C766 1.390 . S
C771 C770 1.387 . S
H772 C784 0.930 . S
H773 C786 0.930 . S
H774 C787 0.930 . S
H775 C791 0.959 . S
H776 C791 0.959 . S
H777 C791 0.961 . S
H778 C792 0.960 . S
H779 C792 0.961 . S
H780 C792 0.959 . S
H781 C795 0.929 . S
H782 C796 0.931 . S
H783 C798 0.930 . S
C784 H772 0.930 . S
C784 C785 1.399 . S
C784 C789 1.399 . S
C785 C784 1.399 . S
C785 C786 1.376 . S
C786 H773 0.930 . S
C786 C785 1.376 . S
C786 C787 1.388 . S
C787 H774 0.930 . S
C787 C786 1.388 . S
C787 C788 1.390 . S
C788 C787 1.390 . S
C788 C789 1.394 . S
C788 C794 1.465 . S
C789 C784 1.399 . S
C789 C788 1.394 . S
C789 C790 1.516 . S
C790 C789 1.516 . S
C790 C791 1.502 . S
C790 C792 1.561 . S
C790 C793 1.526 . S
C791 H775 0.959 . S
C791 H776 0.959 . S
C791 H777 0.961 . S
C791 C790 1.502 . S
C792 H778 0.960 . S
C792 H779 0.961 . S
C792 H780 0.959 . S
C792 C790 1.561 . S
C793 C790 1.526 . S
C793 C794 1.396 . S
C793 C798 1.390 . S
C794 C788 1.465 . S
C794 C793 1.396 . S
C794 C795 1.399 . S
C795 H781 0.929 . S
C795 C794 1.399 . S
C795 C796 1.385 . S
C796 H782 0.931 . S
C796 C795 1.385 . S
C796 C797 1.389 . S
C797 C796 1.389 . S
C797 C798 1.387 . S
C798 H783 0.930 . S
C798 C793 1.390 . S
C798 C797 1.387 . S
H799 C811 0.930 . S
H800 C813 0.930 . S
H801 C814 0.930 . S
H802 C818 0.959 . S
H803 C818 0.959 . S
H804 C818 0.961 . S
H805 C819 0.960 . S
H806 C819 0.961 . S
H807 C819 0.959 . S
H808 C822 0.929 . S
H809 C823 0.931 . S
H810 C825 0.930 . S
C811 H799 0.930 . S
C811 C812 1.399 . S
C811 C816 1.399 . S
C812 C811 1.399 . S
C812 C813 1.376 . S
C813 H800 0.930 . S
C813 C812 1.376 . S
C813 C814 1.388 . S
C814 H801 0.930 . S
C814 C813 1.388 . S
C814 C815 1.390 . S
C815 C814 1.390 . S
C815 C816 1.394 . S
C815 C821 1.465 . S
C816 C811 1.399 . S
C816 C815 1.394 . S
C816 C817 1.516 . S
C817 C816 1.516 . S
C817 C818 1.502 . S
C817 C819 1.561 . S
C817 C820 1.526 . S
C818 H802 0.959 . S
C818 H803 0.959 . S
C818 H804 0.961 . S
C818 C817 1.502 . S
C819 H805 0.960 . S
C819 H806 0.961 . S
C819 H807 0.959 . S
C819 C817 1.561 . S
C820 C817 1.526 . S
C820 C821 1.396 . S
C820 C825 1.390 . S
C821 C815 1.465 . S
C821 C820 1.396 . S
C821 C822 1.399 . S
C822 H808 0.929 . S
C822 C821 1.399 . S
C822 C823 1.385 . S
C823 H809 0.931 . S
C823 C822 1.385 . S
C823 C824 1.389 . S
C824 C823 1.389 . S
C824 C825 1.387 . S
C825 H810 0.930 . S
C825 C820 1.390 . S
C825 C824 1.387 . S
H826 C838 0.930 . S
H827 C840 0.930 . S
H828 C841 0.930 . S
H829 C845 0.959 . S
H830 C845 0.959 . S
H831 C845 0.961 . S
H832 C846 0.960 . S
H833 C846 0.961 . S
H834 C846 0.959 . S
H835 C849 0.929 . S
H836 C850 0.931 . S
H837 C852 0.930 . S
C838 H826 0.930 . S
C838 C839 1.399 . S
C838 C843 1.399 . S
C839 C838 1.399 . S
C839 C840 1.376 . S
C840 H827 0.930 . S
C840 C839 1.376 . S
C840 C841 1.388 . S
C841 H828 0.930 . S
C841 C840 1.388 . S
C841 C842 1.390 . S
C842 C841 1.390 . S
C842 C843 1.394 . S
C842 C848 1.465 . S
C843 C838 1.399 . S
C843 C842 1.394 . S
C843 C844 1.516 . S
C844 C843 1.516 . S
C844 C845 1.502 . S
C844 C846 1.561 . S
C844 C847 1.526 . S
C845 H829 0.959 . S
C845 H830 0.959 . S
C845 H831 0.961 . S
C845 C844 1.502 . S
C846 H832 0.960 . S
C846 H833 0.961 . S
C846 H834 0.959 . S
C846 C844 1.561 . S
C847 C844 1.526 . S
C847 C848 1.396 . S
C847 C852 1.390 . S
C848 C842 1.465 . S
C848 C847 1.396 . S
C848 C849 1.399 . S
C849 H835 0.929 . S
C849 C848 1.399 . S
C849 C850 1.385 . S
C850 H836 0.931 . S
C850 C849 1.385 . S
C850 C851 1.389 . S
C851 C850 1.389 . S
C851 C852 1.387 . S
C852 H837 0.930 . S
C852 C847 1.390 . S
C852 C851 1.387 . S
H853 C865 0.930 . S
H854 C867 0.930 . S
H855 C868 0.930 . S
H856 C872 0.959 . S
H857 C872 0.959 . S
H858 C872 0.961 . S
H859 C873 0.960 . S
H860 C873 0.961 . S
H861 C873 0.959 . S
H862 C876 0.929 . S
H863 C877 0.931 . S
H864 C879 0.930 . S
C865 H853 0.930 . S
C865 C866 1.399 . S
C865 C870 1.399 . S
C866 C865 1.399 . S
C866 C867 1.376 . S
C867 H854 0.930 . S
C867 C866 1.376 . S
C867 C868 1.388 . S
C868 H855 0.930 . S
C868 C867 1.388 . S
C868 C869 1.390 . S
C869 C868 1.390 . S
C869 C870 1.394 . S
C869 C875 1.465 . S
C870 C865 1.399 . S
C870 C869 1.394 . S
C870 C871 1.516 . S
C871 C870 1.516 . S
C871 C872 1.502 . S
C871 C873 1.561 . S
C871 C874 1.526 . S
C872 H856 0.959 . S
C872 H857 0.959 . S
C872 H858 0.961 . S
C872 C871 1.502 . S
C873 H859 0.960 . S
C873 H860 0.961 . S
C873 H861 0.959 . S
C873 C871 1.561 . S
C874 C871 1.526 . S
C874 C875 1.396 . S
C874 C879 1.390 . S
C875 C869 1.465 . S
C875 C874 1.396 . S
C875 C876 1.399 . S
C876 H862 0.929 . S
C876 C875 1.399 . S
C876 C877 1.385 . S
C877 H863 0.931 . S
C877 C876 1.385 . S
C877 C878 1.389 . S
C878 C877 1.389 . S
C878 C879 1.387 . S
C879 H864 0.930 . S
C879 C874 1.390 . S
C879 C878 1.387 . S
H880 C892 0.930 . S
H881 C894 0.930 . S
H882 C895 0.930 . S
H883 C899 0.959 . S
H884 C899 0.959 . S
H885 C899 0.961 . S
H886 C900 0.960 1_455 S
H887 C900 0.961 . S
H888 C900 0.959 . S
H889 C903 0.929 . S
H890 C904 0.931 . S
H891 C906 0.930 . S
C892 H880 0.930 . S
C892 C893 1.399 . S
C892 C897 1.399 . S
C893 C892 1.399 . S
C893 C894 1.376 . S
C894 H881 0.930 . S
C894 C893 1.376 . S
C894 C895 1.388 . S
C895 H882 0.930 . S
C895 C894 1.388 . S
C895 C896 1.390 . S
C896 C895 1.390 . S
C896 C897 1.394 . S
C896 C902 1.465 1_455 S
C897 C892 1.399 . S
C897 C896 1.394 . S
C897 C898 1.516 . S
C898 C897 1.516 . S
C898 C899 1.502 . S
C898 C900 1.561 1_455 S
C898 C901 1.526 1_455 S
C899 H883 0.959 . S
C899 H884 0.959 . S
C899 H885 0.961 . S
C899 C898 1.502 . S
C900 H886 0.960 1_655 S
C900 H887 0.961 . S
C900 H888 0.959 . S
C900 C898 1.561 1_655 S
C901 C898 1.526 1_655 S
C901 C902 1.396 . S
C901 C906 1.390 . S
C902 C896 1.465 1_655 S
C902 C901 1.396 . S
C902 C903 1.399 . S
C903 H889 0.929 . S
C903 C902 1.399 . S
C903 C904 1.385 . S
C904 H890 0.931 . S
C904 C903 1.385 . S
C904 C905 1.389 . S
C905 C904 1.389 . S
C905 C906 1.387 . S
C906 H891 0.930 . S
C906 C901 1.390 . S
C906 C905 1.387 . S
H907 C919 0.930 . S
H908 C921 0.930 . S
H909 C922 0.930 . S
H910 C926 0.959 . S
H911 C926 0.959 . S
H912 C926 0.961 . S
H913 C927 0.960 . S
H914 C927 0.961 . S
H915 C927 0.959 . S
H916 C930 0.929 1_545 S
H917 C931 0.931 . S
H918 C933 0.930 . S
C919 H907 0.930 . S
C919 C920 1.399 . S
C919 C924 1.399 . S
C920 C919 1.399 . S
C920 C921 1.376 . S
C921 H908 0.930 . S
C921 C920 1.376 . S
C921 C922 1.388 . S
C922 H909 0.930 . S
C922 C921 1.388 . S
C922 C923 1.390 . S
C923 C922 1.390 . S
C923 C924 1.394 . S
C923 C929 1.465 1_545 S
C924 C919 1.399 . S
C924 C923 1.394 . S
C924 C925 1.516 1_545 S
C925 C924 1.516 1_565 S
C925 C926 1.502 . S
C925 C927 1.561 1_565 S
C925 C928 1.526 . S
C926 H910 0.959 . S
C926 H911 0.959 . S
C926 H912 0.961 . S
C926 C925 1.502 . S
C927 H913 0.960 . S
C927 H914 0.961 . S
C927 H915 0.959 . S
C927 C925 1.561 1_545 S
C928 C925 1.526 . S
C928 C929 1.396 . S
C928 C933 1.390 . S
C929 C923 1.465 1_565 S
C929 C928 1.396 . S
C929 C930 1.399 . S
C930 H916 0.929 1_565 S
C930 C929 1.399 . S
C930 C931 1.385 . S
C931 H917 0.931 . S
C931 C930 1.385 . S
C931 C932 1.389 . S
C932 C931 1.389 . S
C932 C933 1.387 . S
C933 H918 0.930 . S
C933 C928 1.390 . S
C933 C932 1.387 . S
H934 C946 0.930 1_554 S
H935 C948 0.930 . S
H936 C949 0.898 1_655 S
H937 C953 0.959 . S
H938 C953 0.959 . S
H939 C953 0.961 1_545 S
H940 C954 0.919 1_455 S
H941 C954 0.983 . S
H942 C954 1.001 . S
H943 C957 0.929 . S
H944 C958 0.935 . S
H945 C960 0.930 . S
C946 H934 0.930 1_556 S
C946 C947 1.399 . S
C946 C951 1.399 1_556 S
C947 C946 1.399 . S
C947 C948 1.376 . S
C948 H935 0.930 . S
C948 C947 1.376 . S
C948 C949 1.388 . S
C949 H936 0.898 1_455 S
C949 C948 1.388 . S
C949 C950 1.390 . S
C950 C949 1.390 . S
C950 C951 1.394 1_556 S
C950 C956 1.465 1_445 S
C951 C946 1.399 1_554 S
C951 C950 1.394 1_554 S
C951 C952 1.516 . S
C952 C951 1.516 . S
C952 C953 1.502 1_545 S
C952 C954 1.542 1_455 S
C952 C955 1.526 1_445 S
C953 H937 0.959 . S
C953 H938 0.959 . S
C953 H939 0.961 1_565 S
C953 C952 1.502 1_565 S
C954 H940 0.919 1_655 S
C954 H941 0.983 . S
C954 H942 1.001 . S
C954 C952 1.542 1_655 S
C955 C952 1.526 1_665 S
C955 C956 1.396 1_554 S
C955 C960 1.390 . S
C956 C950 1.465 1_665 S
C956 C955 1.396 1_556 S
C956 C957 1.399 . S
C957 H943 0.929 . S
C957 C956 1.399 . S
C957 C958 1.392 . S
C958 H944 0.935 . S
C958 C957 1.392 . S
C958 C959 1.378 1_556 S
C959 C958 1.378 1_554 S
C959 C960 1.387 . S
C960 H945 0.930 . S
C960 C955 1.390 . S
C960 C959 1.387 . S
H961 C973 0.930 1_554 S
H962 C975 0.930 . S
H963 C976 0.930 . S
H964 C980 0.959 . S
H965 C980 0.959 . S
H966 C980 0.961 . S
H967 C981 0.960 . S
H968 C981 0.961 . S
H969 C981 0.959 . S
H970 C984 0.929 . S
H971 C985 0.920 1_556 S
H972 C987 0.930 . S
C973 H961 0.930 1_556 S
C973 C974 1.399 . S
C973 C978 1.398 1_556 S
C974 C973 1.399 . S
C974 C975 1.376 . S
C975 H962 0.930 . S
C975 C974 1.376 . S
C975 C976 1.388 . S
C976 H963 0.930 . S
C976 C975 1.388 . S
C976 C977 1.390 . S
C977 C976 1.390 . S
C977 C978 1.390 1_556 S
C977 C983 1.465 . S
C978 C973 1.398 1_554 S
C978 C977 1.390 1_554 S
C978 C979 1.520 . S
C979 C978 1.520 . S
C979 C980 1.502 . S
C979 C981 1.561 . S
C979 C982 1.526 . S
C980 H964 0.959 . S
C980 H965 0.959 . S
C980 H966 0.961 . S
C980 C979 1.502 . S
C981 H967 0.960 . S
C981 H968 0.961 . S
C981 H969 0.959 . S
C981 C979 1.561 . S
C982 C979 1.526 . S
C982 C983 1.396 1_554 S
C982 C987 1.390 . S
C983 C977 1.465 . S
C983 C982 1.396 1_556 S
C983 C984 1.399 . S
C984 H970 0.929 . S
C984 C983 1.399 . S
C984 C985 1.366 1_556 S
C985 H971 0.920 1_554 S
C985 C984 1.366 1_554 S
C985 C986 1.419 . S
C986 C985 1.419 . S
C986 C987 1.387 . S
C987 H972 0.930 . S
C987 C982 1.390 . S
C987 C986 1.387 . S
H988 C1000 0.930 . S
H989 C1002 0.930 . S
H990 C1003 0.930 . S
H991 C1007 0.959 . S
H992 C1007 0.959 . S
H993 C1007 0.961 . S
H994 C1008 0.960 . S
H995 C1008 0.961 . S
H996 C1008 0.959 . S
H997 C1011 0.863 1_655 S
H998 C1012 0.931 . S
H999 C1014 0.930 . S
C1000 H988 0.930 . S
C1000 C1001 1.399 . S
C1000 C1005 1.399 . S
C1001 C1000 1.399 . S
C1001 C1002 1.376 . S
C1002 H989 0.930 . S
C1002 C1001 1.376 . S
C1002 C1003 1.388 . S
C1003 H990 0.930 . S
C1003 C1002 1.388 . S
C1003 C1004 1.390 . S
C1004 C1003 1.390 . S
C1004 C1005 1.394 . S
C1004 C1010 1.420 1_655 S
C1005 C1000 1.399 . S
C1005 C1004 1.394 . S
C1005 C1006 1.516 1_655 S
C1006 C1005 1.516 1_455 S
C1006 C1007 1.502 . S
C1006 C1008 1.561 . S
C1006 C1009 1.526 . S
C1007 H991 0.959 . S
C1007 H992 0.959 . S
C1007 H993 0.961 . S
C1007 C1006 1.502 . S
C1008 H994 0.960 . S
C1008 H995 0.961 . S
C1008 H996 0.959 . S
C1008 C1006 1.561 . S
C1009 C1006 1.526 . S
C1009 C1010 1.448 . S
C1009 C1014 1.390 . S
C1010 C1004 1.420 1_455 S
C1010 C1009 1.448 . S
C1010 C1011 1.399 . S
C1011 H997 0.863 1_455 S
C1011 C1010 1.399 . S
C1011 C1012 1.457 . S
C1012 H998 0.931 . S
C1012 C1011 1.457 . S
C1012 C1013 1.389 . S
C1013 C1012 1.389 . S
C1013 C1014 1.387 . S
C1014 H999 0.930 . S
C1014 C1009 1.390 . S
C1014 C1013 1.387 . S
H1015 C1027 0.930 . S
H1016 C1029 0.930 . S
H1017 C1030 0.930 . S
H1018 C1034 0.959 . S
H1019 C1034 0.959 . S
H1020 C1034 0.961 . S
H1021 C1035 0.960 . S
H1022 C1035 0.961 . S
H1023 C1035 0.959 . S
H1024 C1038 0.929 . S
H1025 C1039 0.931 . S
H1026 C1041 0.937 . S
C1027 H1015 0.930 . S
C1027 C1028 1.399 . S
C1027 C1032 1.399 . S
C1028 C1027 1.399 . S
C1028 C1029 1.376 . S
C1029 H1016 0.930 . S
C1029 C1028 1.376 . S
C1029 C1030 1.388 1_545 S
C1030 H1017 0.930 . S
C1030 C1029 1.388 1_565 S
C1030 C1031 1.390 . S
C1031 C1030 1.390 . S
C1031 C1032 1.394 1_565 S
C1031 C1037 1.465 . S
C1032 C1027 1.399 . S
C1032 C1031 1.394 1_545 S
C1032 C1033 1.516 . S
C1033 C1032 1.516 . S
C1033 C1034 1.502 . S
C1033 C1035 1.561 . S
C1033 C1036 1.526 1_545 S
C1034 H1018 0.959 . S
C1034 H1019 0.959 . S
C1034 H1020 0.961 . S
C1034 C1033 1.502 . S
C1035 H1021 0.960 . S
C1035 H1022 0.961 . S
C1035 H1023 0.959 . S
C1035 C1033 1.561 . S
C1036 C1033 1.526 1_565 S
C1036 C1037 1.396 . S
C1036 C1041 1.390 . S
C1037 C1031 1.465 . S
C1037 C1036 1.396 . S
C1037 C1038 1.399 . S
C1038 H1024 0.929 . S
C1038 C1037 1.399 . S
C1038 C1039 1.385 . S
C1039 H1025 0.931 . S
C1039 C1038 1.385 . S
C1039 C1040 1.389 . S
C1040 C1039 1.389 . S
C1040 C1041 1.387 . S
C1041 H1026 0.937 . S
C1041 C1036 1.390 . S
C1041 C1040 1.387 . S
H1042 C1054 0.930 1_554 S
H1043 C1056 0.930 . S
H1044 C1057 0.930 . S
H1045 C1061 0.959 . S
H1046 C1061 0.959 . S
H1047 C1061 0.961 . S
H1048 C1062 0.960 . S
H1049 C1062 0.961 . S
H1050 C1062 0.959 . S
H1051 C1065 0.929 . S
H1052 C1066 0.919 1_556 S
H1053 C1068 0.930 . S
C1054 H1042 0.930 1_556 S
C1054 C1055 1.399 . S
C1054 C1059 1.399 1_556 S
C1055 C1054 1.399 . S
C1055 C1056 1.376 . S
C1056 H1043 0.930 . S
C1056 C1055 1.376 . S
C1056 C1057 1.388 . S
C1057 H1044 0.930 . S
C1057 C1056 1.388 . S
C1057 C1058 1.390 . S
C1058 C1057 1.390 . S
C1058 C1059 1.393 1_556 S
C1058 C1064 1.465 . S
C1059 C1054 1.399 1_554 S
C1059 C1058 1.393 1_554 S
C1059 C1060 1.517 . S
C1060 C1059 1.517 . S
C1060 C1061 1.502 . S
C1060 C1062 1.561 . S
C1060 C1063 1.526 . S
C1061 H1045 0.959 . S
C1061 H1046 0.959 . S
C1061 H1047 0.961 . S
C1061 C1060 1.502 . S
C1062 H1048 0.960 . S
C1062 H1049 0.961 . S
C1062 H1050 0.959 . S
C1062 C1060 1.561 . S
C1063 C1060 1.526 . S
C1063 C1064 1.396 1_554 S
C1063 C1068 1.390 . S
C1064 C1058 1.465 . S
C1064 C1063 1.396 1_556 S
C1064 C1065 1.399 . S
C1065 H1051 0.929 . S
C1065 C1064 1.399 . S
C1065 C1066 1.363 1_556 S
C1066 H1052 0.919 1_554 S
C1066 C1065 1.363 1_554 S
C1066 C1067 1.425 . S
C1067 C1066 1.425 . S
C1067 C1068 1.387 . S
C1068 H1053 0.930 . S
C1068 C1063 1.390 . S
C1068 C1067 1.387 . S
H1069 C1081 0.930 . S
H1070 C1083 0.930 . S
H1071 C1084 0.930 . S
H1072 C1088 0.959 . S
H1073 C1088 0.959 . S
H1074 C1088 0.961 . S
H1075 C1089 0.960 . S
H1076 C1089 0.961 . S
H1077 C1089 0.959 . S
H1078 C1092 0.929 . S
H1079 C1093 0.931 . S
H1080 C1095 0.930 . S
C1081 H1069 0.930 . S
C1081 C1082 1.399 . S
C1081 C1086 1.399 . S
C1082 C1081 1.399 . S
C1082 C1083 1.376 . S
C1083 H1070 0.930 . S
C1083 C1082 1.376 . S
C1083 C1084 1.388 . S
C1084 H1071 0.930 . S
C1084 C1083 1.388 . S
C1084 C1085 1.390 . S
C1085 C1084 1.390 . S
C1085 C1086 1.394 . S
C1085 C1091 1.465 . S
C1086 C1081 1.399 . S
C1086 C1085 1.394 . S
C1086 C1087 1.516 . S
C1087 C1086 1.516 . S
C1087 C1088 1.502 . S
C1087 C1089 1.561 . S
C1087 C1090 1.526 . S
C1088 H1072 0.959 . S
C1088 H1073 0.959 . S
C1088 H1074 0.961 . S
C1088 C1087 1.502 . S
C1089 H1075 0.960 . S
C1089 H1076 0.961 . S
C1089 H1077 0.959 . S
C1089 C1087 1.561 . S
C1090 C1087 1.526 . S
C1090 C1091 1.396 . S
C1090 C1095 1.390 . S
C1091 C1085 1.465 . S
C1091 C1090 1.396 . S
C1091 C1092 1.399 . S
C1092 H1078 0.929 . S
C1092 C1091 1.399 . S
C1092 C1093 1.385 . S
C1093 H1079 0.931 . S
C1093 C1092 1.385 . S
C1093 C1094 1.389 . S
C1094 C1093 1.389 . S
C1094 C1095 1.387 . S
C1095 H1080 0.930 . S
C1095 C1090 1.390 . S
C1095 C1094 1.387 . S
H1096 C1108 0.930 . S
H1097 C1110 0.930 . S
H1098 C1111 0.930 . S
H1099 C1115 0.959 . S
H1100 C1115 0.959 . S
H1101 C1115 0.961 . S
H1102 C1116 0.921 1_455 S
H1103 C1116 1.035 . S
H1104 C1116 0.906 1_455 S
H1105 C1119 0.929 1_455 S
H1106 C1120 0.931 . S
H1107 C1122 0.930 . S
C1108 H1096 0.930 . S
C1108 C1109 1.399 . S
C1108 C1113 1.399 . S
C1109 C1108 1.399 . S
C1109 C1110 1.376 . S
C1110 H1097 0.930 . S
C1110 C1109 1.376 . S
C1110 C1111 1.388 . S
C1111 H1098 0.930 . S
C1111 C1110 1.388 . S
C1111 C1112 1.390 . S
C1112 C1111 1.390 . S
C1112 C1113 1.394 . S
C1112 C1118 1.465 1_455 S
C1113 C1108 1.399 . S
C1113 C1112 1.394 . S
C1113 C1114 1.516 1_455 S
C1114 C1113 1.516 1_655 S
C1114 C1115 1.502 . S
C1114 C1116 1.590 . S
C1114 C1117 1.526 . S
C1115 H1099 0.959 . S
C1115 H1100 0.959 . S
C1115 H1101 0.961 . S
C1115 C1114 1.502 . S
C1116 H1102 0.921 1_655 S
C1116 H1103 1.035 . S
C1116 H1104 0.906 1_655 S
C1116 C1114 1.590 . S
C1117 C1114 1.526 . S
C1117 C1118 1.396 . S
C1117 C1122 1.390 . S
C1118 C1112 1.465 1_655 S
C1118 C1117 1.396 . S
C1118 C1119 1.399 . S
C1119 H1105 0.929 1_655 S
C1119 C1118 1.399 . S
C1119 C1120 1.385 . S
C1120 H1106 0.931 . S
C1120 C1119 1.385 . S
C1120 C1121 1.389 . S
C1121 C1120 1.389 . S
C1121 C1122 1.387 . S
C1122 H1107 0.930 . S
C1122 C1117 1.390 . S
C1122 C1121 1.387 . S
H1123 C1135 0.930 . S
H1124 C1137 0.930 . S
H1125 C1138 0.930 . S
H1126 C1142 0.959 . S
H1127 C1142 0.959 . S
H1128 C1142 0.961 . S
H1129 C1143 0.960 . S
H1130 C1143 0.961 . S
H1131 C1143 0.959 . S
H1132 C1146 0.929 . S
H1133 C1147 0.931 . S
H1134 C1149 0.930 . S
C1135 H1123 0.930 . S
C1135 C1136 1.399 . S
C1135 C1140 1.399 . S
C1136 C1135 1.399 . S
C1136 C1137 1.376 . S
C1137 H1124 0.930 . S
C1137 C1136 1.376 . S
C1137 C1138 1.388 . S
C1138 H1125 0.930 . S
C1138 C1137 1.388 . S
C1138 C1139 1.390 . S
C1139 C1138 1.390 . S
C1139 C1140 1.394 . S
C1139 C1145 1.465 . S
C1140 C1135 1.399 . S
C1140 C1139 1.394 . S
C1140 C1141 1.516 . S
C1141 C1140 1.516 . S
C1141 C1142 1.502 . S
C1141 C1143 1.561 . S
C1141 C1144 1.526 . S
C1142 H1126 0.959 . S
C1142 H1127 0.959 . S
C1142 H1128 0.961 . S
C1142 C1141 1.502 . S
C1143 H1129 0.960 . S
C1143 H1130 0.961 . S
C1143 H1131 0.959 . S
C1143 C1141 1.561 . S
C1144 C1141 1.526 . S
C1144 C1145 1.396 . S
C1144 C1149 1.390 . S
C1145 C1139 1.465 . S
C1145 C1144 1.396 . S
C1145 C1146 1.399 . S
C1146 H1132 0.929 . S
C1146 C1145 1.399 . S
C1146 C1147 1.385 . S
C1147 H1133 0.931 . S
C1147 C1146 1.385 . S
C1147 C1148 1.389 . S
C1148 C1147 1.389 . S
C1148 C1149 1.387 . S
C1149 H1134 0.930 . S
C1149 C1144 1.390 . S
C1149 C1148 1.387 . S
H1150 C1162 0.930 . S
H1151 C1164 0.930 . S
H1152 C1165 0.930 . S
H1153 C1169 0.959 . S
H1154 C1169 0.959 . S
H1155 C1169 0.961 . S
H1156 C1170 0.960 . S
H1157 C1170 0.961 . S
H1158 C1170 0.959 . S
H1159 C1173 0.929 . S
H1160 C1174 0.931 . S
H1161 C1176 0.930 . S
C1162 H1150 0.930 . S
C1162 C1163 1.399 . S
C1162 C1167 1.399 . S
C1163 C1162 1.399 . S
C1163 C1164 1.376 . S
C1164 H1151 0.930 . S
C1164 C1163 1.376 . S
C1164 C1165 1.388 . S
C1165 H1152 0.930 . S
C1165 C1164 1.388 . S
C1165 C1166 1.390 . S
C1166 C1165 1.390 . S
C1166 C1167 1.394 . S
C1166 C1172 1.465 . S
C1167 C1162 1.399 . S
C1167 C1166 1.394 . S
C1167 C1168 1.516 . S
C1168 C1167 1.516 . S
C1168 C1169 1.502 . S
C1168 C1170 1.561 . S
C1168 C1171 1.526 . S
C1169 H1153 0.959 . S
C1169 H1154 0.959 . S
C1169 H1155 0.961 . S
C1169 C1168 1.502 . S
C1170 H1156 0.960 . S
C1170 H1157 0.961 . S
C1170 H1158 0.959 . S
C1170 C1168 1.561 . S
C1171 C1168 1.526 . S
C1171 C1172 1.396 . S
C1171 C1176 1.390 . S
C1172 C1166 1.465 . S
C1172 C1171 1.396 . S
C1172 C1173 1.399 . S
C1173 H1159 0.929 . S
C1173 C1172 1.399 . S
C1173 C1174 1.385 . S
C1174 H1160 0.931 . S
C1174 C1173 1.385 . S
C1174 C1175 1.389 . S
C1175 C1174 1.389 . S
C1175 C1176 1.387 . S
C1176 H1161 0.930 . S
C1176 C1171 1.390 . S
C1176 C1175 1.387 . S
H1177 C1189 0.930 . S
H1178 C1191 0.930 . S
H1179 C1192 0.930 . S
H1180 C1196 0.959 . S
H1181 C1196 0.959 . S
H1182 C1196 0.961 . S
H1183 C1197 0.960 . S
H1184 C1197 0.961 . S
H1185 C1197 0.959 . S
H1186 C1200 0.929 . S
H1187 C1201 0.931 . S
H1188 C1203 0.930 . S
C1189 H1177 0.930 . S
C1189 C1190 1.399 . S
C1189 C1194 1.399 . S
C1190 C1189 1.399 . S
C1190 C1191 1.376 . S
C1191 H1178 0.930 . S
C1191 C1190 1.376 . S
C1191 C1192 1.388 . S
C1192 H1179 0.930 . S
C1192 C1191 1.388 . S
C1192 C1193 1.390 . S
C1193 C1192 1.390 . S
C1193 C1194 1.394 . S
C1193 C1199 1.465 . S
C1194 C1189 1.399 . S
C1194 C1193 1.394 . S
C1194 C1195 1.516 . S
C1195 C1194 1.516 . S
C1195 C1196 1.502 . S
C1195 C1197 1.561 . S
C1195 C1198 1.526 . S
C1196 H1180 0.959 . S
C1196 H1181 0.959 . S
C1196 H1182 0.961 . S
C1196 C1195 1.502 . S
C1197 H1183 0.960 . S
C1197 H1184 0.961 . S
C1197 H1185 0.959 . S
C1197 C1195 1.561 . S
C1198 C1195 1.526 . S
C1198 C1199 1.396 . S
C1198 C1203 1.390 . S
C1199 C1193 1.465 . S
C1199 C1198 1.396 . S
C1199 C1200 1.399 . S
C1200 H1186 0.929 . S
C1200 C1199 1.399 . S
C1200 C1201 1.385 . S
C1201 H1187 0.931 . S
C1201 C1200 1.385 . S
C1201 C1202 1.389 . S
C1202 C1201 1.389 . S
C1202 C1203 1.387 . S
C1203 H1188 0.930 . S
C1203 C1198 1.390 . S
C1203 C1202 1.387 . S
H1204 C1216 0.930 . S
H1205 C1218 0.930 . S
H1206 C1219 0.930 . S
H1207 C1223 0.959 . S
H1208 C1223 0.959 . S
H1209 C1223 0.961 . S
H1210 C1224 0.960 . S
H1211 C1224 0.961 . S
H1212 C1224 0.959 . S
H1213 C1227 0.929 . S
H1214 C1228 0.931 . S
H1215 C1230 0.930 . S
C1216 H1204 0.930 . S
C1216 C1217 1.399 . S
C1216 C1221 1.399 . S
C1217 C1216 1.399 . S
C1217 C1218 1.376 . S
C1218 H1205 0.930 . S
C1218 C1217 1.376 . S
C1218 C1219 1.388 . S
C1219 H1206 0.930 . S
C1219 C1218 1.388 . S
C1219 C1220 1.390 . S
C1220 C1219 1.390 . S
C1220 C1221 1.394 . S
C1220 C1226 1.465 . S
C1221 C1216 1.399 . S
C1221 C1220 1.394 . S
C1221 C1222 1.516 . S
C1222 C1221 1.516 . S
C1222 C1223 1.502 . S
C1222 C1224 1.561 . S
C1222 C1225 1.526 . S
C1223 H1207 0.959 . S
C1223 H1208 0.959 . S
C1223 H1209 0.961 . S
C1223 C1222 1.502 . S
C1224 H1210 0.960 . S
C1224 H1211 0.961 . S
C1224 H1212 0.959 . S
C1224 C1222 1.561 . S
C1225 C1222 1.526 . S
C1225 C1226 1.396 . S
C1225 C1230 1.390 . S
C1226 C1220 1.465 . S
C1226 C1225 1.396 . S
C1226 C1227 1.399 . S
C1227 H1213 0.929 . S
C1227 C1226 1.399 . S
C1227 C1228 1.385 . S
C1228 H1214 0.931 . S
C1228 C1227 1.385 . S
C1228 C1229 1.389 . S
C1229 C1228 1.389 . S
C1229 C1230 1.387 . S
C1230 H1215 0.930 . S
C1230 C1225 1.390 . S
C1230 C1229 1.387 . S
H1231 C1243 0.930 . S
H1232 C1245 0.930 . S
H1233 C1246 0.930 . S
H1234 C1250 0.959 . S
H1235 C1250 0.959 . S
H1236 C1250 0.961 . S
H1237 C1251 0.960 . S
H1238 C1251 0.961 . S
H1239 C1251 0.959 . S
H1240 C1254 0.929 . S
H1241 C1255 0.931 . S
H1242 C1257 0.930 . S
C1243 H1231 0.930 . S
C1243 C1244 1.399 . S
C1243 C1248 1.399 . S
C1244 C1243 1.399 . S
C1244 C1245 1.376 . S
C1245 H1232 0.930 . S
C1245 C1244 1.376 . S
C1245 C1246 1.388 . S
C1246 H1233 0.930 . S
C1246 C1245 1.388 . S
C1246 C1247 1.390 . S
C1247 C1246 1.390 . S
C1247 C1248 1.394 . S
C1247 C1253 1.465 . S
C1248 C1243 1.399 . S
C1248 C1247 1.394 . S
C1248 C1249 1.516 1_565 S
C1249 C1248 1.516 1_545 S
C1249 C1250 1.502 . S
C1249 C1251 1.561 . S
C1249 C1252 1.526 . S
C1250 H1234 0.959 . S
C1250 H1235 0.959 . S
C1250 H1236 0.961 . S
C1250 C1249 1.502 . S
C1251 H1237 0.960 . S
C1251 H1238 0.961 . S
C1251 H1239 0.959 . S
C1251 C1249 1.561 . S
C1252 C1249 1.526 . S
C1252 C1253 1.396 1_545 S
C1252 C1257 1.390 . S
C1253 C1247 1.465 . S
C1253 C1252 1.396 1_565 S
C1253 C1254 1.399 . S
C1254 H1240 0.929 . S
C1254 C1253 1.399 . S
C1254 C1255 1.385 1_565 S
C1255 H1241 0.931 . S
C1255 C1254 1.385 1_545 S
C1255 C1256 1.389 . S
C1256 C1255 1.389 . S
C1256 C1257 1.387 . S
C1257 H1242 0.930 . S
C1257 C1252 1.390 . S
C1257 C1256 1.387 . S
H1258 C1270 0.930 . S
H1259 C1272 0.930 . S
H1260 C1273 0.930 . S
H1261 C1277 0.959 . S
H1262 C1277 0.959 . S
H1263 C1277 0.961 . S
H1264 C1278 0.960 . S
H1265 C1278 0.961 . S
H1266 C1278 0.959 . S
H1267 C1281 0.929 . S
H1268 C1282 0.931 . S
H1269 C1284 0.930 . S
C1270 H1258 0.930 . S
C1270 C1271 1.399 . S
C1270 C1275 1.399 . S
C1271 C1270 1.399 . S
C1271 C1272 1.376 . S
C1272 H1259 0.930 . S
C1272 C1271 1.376 . S
C1272 C1273 1.388 . S
C1273 H1260 0.930 . S
C1273 C1272 1.388 . S
C1273 C1274 1.390 . S
C1274 C1273 1.390 . S
C1274 C1275 1.394 . S
C1274 C1280 1.465 . S
C1275 C1270 1.399 . S
C1275 C1274 1.394 . S
C1275 C1276 1.516 . S
C1276 C1275 1.516 . S
C1276 C1277 1.502 . S
C1276 C1278 1.561 . S
C1276 C1279 1.526 . S
C1277 H1261 0.959 . S
C1277 H1262 0.959 . S
C1277 H1263 0.961 . S
C1277 C1276 1.502 . S
C1278 H1264 0.960 . S
C1278 H1265 0.961 . S
C1278 H1266 0.959 . S
C1278 C1276 1.561 . S
C1279 C1276 1.526 . S
C1279 C1280 1.396 . S
C1279 C1284 1.390 . S
C1280 C1274 1.465 . S
C1280 C1279 1.396 . S
C1280 C1281 1.399 . S
C1281 H1267 0.929 . S
C1281 C1280 1.399 . S
C1281 C1282 1.385 . S
C1282 H1268 0.931 . S
C1282 C1281 1.385 . S
C1282 C1283 1.389 . S
C1283 C1282 1.389 . S
C1283 C1284 1.387 . S
C1284 H1269 0.930 . S
C1284 C1279 1.390 . S
C1284 C1283 1.387 . S
H1285 C1297 0.930 . S
H1286 C1299 0.930 1_556 S
H1287 C1300 0.930 . S
H1288 C1304 0.959 . S
H1289 C1304 0.959 . S
H1290 C1304 0.961 . S
H1291 C1305 0.960 . S
H1292 C1305 0.961 . S
H1293 C1305 0.959 . S
H1294 C1308 0.929 . S
H1295 C1309 0.931 . S
H1296 C1311 0.930 1_554 S
C1297 H1285 0.930 . S
C1297 C1298 1.399 . S
C1297 C1302 1.399 . S
C1298 C1297 1.399 . S
C1298 C1299 1.376 . S
C1299 H1286 0.930 1_554 S
C1299 C1298 1.376 . S
C1299 C1300 1.388 1_554 S
C1300 H1287 0.930 . S
C1300 C1299 1.388 1_556 S
C1300 C1301 1.390 . S
C1301 C1300 1.390 . S
C1301 C1302 1.394 1_556 S
C1301 C1307 1.465 . S
C1302 C1297 1.399 . S
C1302 C1301 1.394 1_554 S
C1302 C1303 1.516 . S
C1303 C1302 1.516 . S
C1303 C1304 1.502 . S
C1303 C1305 1.561 . S
C1303 C1306 1.498 1_554 S
C1304 H1288 0.959 . S
C1304 H1289 0.959 . S
C1304 H1290 0.961 . S
C1304 C1303 1.502 . S
C1305 H1291 0.960 . S
C1305 H1292 0.961 . S
C1305 H1293 0.959 . S
C1305 C1303 1.561 . S
C1306 C1303 1.498 1_556 S
C1306 C1307 1.418 . S
C1306 C1311 1.398 . S
C1307 C1301 1.465 . S
C1307 C1306 1.418 . S
C1307 C1308 1.399 . S
C1308 H1294 0.929 . S
C1308 C1307 1.399 . S
C1308 C1309 1.385 . S
C1309 H1295 0.931 . S
C1309 C1308 1.385 . S
C1309 C1310 1.389 . S
C1310 C1309 1.389 . S
C1310 C1311 1.387 . S
C1311 H1296 0.930 1_556 S
C1311 C1306 1.398 . S
C1311 C1310 1.387 . S
H1312 C1324 0.930 . S
H1313 C1326 0.930 . S
H1314 C1327 0.930 . S
H1315 C1331 0.959 . S
H1316 C1331 0.959 . S
H1317 C1331 0.961 . S
H1318 C1332 0.960 . S
H1319 C1332 0.961 . S
H1320 C1332 0.959 . S
H1321 C1335 0.929 . S
H1322 C1336 0.931 . S
H1323 C1338 0.930 . S
C1324 H1312 0.930 . S
C1324 C1325 1.399 . S
C1324 C1329 1.399 . S
C1325 C1324 1.399 . S
C1325 C1326 1.376 . S
C1326 H1313 0.930 . S
C1326 C1325 1.376 . S
C1326 C1327 1.388 . S
C1327 H1314 0.930 . S
C1327 C1326 1.388 . S
C1327 C1328 1.390 . S
C1328 C1327 1.390 . S
C1328 C1329 1.394 . S
C1328 C1334 1.465 . S
C1329 C1324 1.399 . S
C1329 C1328 1.394 . S
C1329 C1330 1.516 . S
C1330 C1329 1.516 . S
C1330 C1331 1.502 . S
C1330 C1332 1.561 . S
C1330 C1333 1.526 . S
C1331 H1315 0.959 . S
C1331 H1316 0.959 . S
C1331 H1317 0.961 . S
C1331 C1330 1.502 . S
C1332 H1318 0.960 . S
C1332 H1319 0.961 . S
C1332 H1320 0.959 . S
C1332 C1330 1.561 . S
C1333 C1330 1.526 . S
C1333 C1334 1.396 . S
C1333 C1338 1.390 . S
C1334 C1328 1.465 . S
C1334 C1333 1.396 . S
C1334 C1335 1.399 . S
C1335 H1321 0.929 . S
C1335 C1334 1.399 . S
C1335 C1336 1.385 . S
C1336 H1322 0.931 . S
C1336 C1335 1.385 . S
C1336 C1337 1.389 . S
C1337 C1336 1.389 . S
C1337 C1338 1.387 . S
C1338 H1323 0.930 . S
C1338 C1333 1.390 . S
C1338 C1337 1.387 . S
H1339 C1351 0.930 . S
H1340 C1353 0.930 . S
H1341 C1354 0.930 . S
H1342 C1358 0.959 . S
H1343 C1358 0.959 . S
H1344 C1358 0.961 . S
H1345 C1359 0.960 . S
H1346 C1359 0.961 . S
H1347 C1359 0.959 . S
H1348 C1362 0.929 . S
H1349 C1363 0.931 . S
H1350 C1365 0.930 1_545 S
C1351 H1339 0.930 . S
C1351 C1352 1.399 . S
C1351 C1356 1.399 . S
C1352 C1351 1.399 . S
C1352 C1353 1.376 . S
C1353 H1340 0.930 . S
C1353 C1352 1.376 . S
C1353 C1354 1.388 . S
C1354 H1341 0.930 . S
C1354 C1353 1.388 . S
C1354 C1355 1.390 . S
C1355 C1354 1.390 . S
C1355 C1356 1.394 . S
C1355 C1361 1.465 . S
C1356 C1351 1.399 . S
C1356 C1355 1.394 . S
C1356 C1357 1.516 . S
C1357 C1356 1.516 . S
C1357 C1358 1.502 . S
C1357 C1359 1.561 . S
C1357 C1360 1.526 . S
C1358 H1342 0.959 . S
C1358 H1343 0.959 . S
C1358 H1344 0.961 . S
C1358 C1357 1.502 . S
C1359 H1345 0.960 . S
C1359 H1346 0.961 . S
C1359 H1347 0.959 . S
C1359 C1357 1.561 . S
C1360 C1357 1.526 . S
C1360 C1361 1.396 . S
C1360 C1365 1.390 . S
C1361 C1355 1.465 . S
C1361 C1360 1.396 . S
C1361 C1362 1.399 . S
C1362 H1348 0.929 . S
C1362 C1361 1.399 . S
C1362 C1363 1.385 . S
C1363 H1349 0.931 . S
C1363 C1362 1.385 . S
C1363 C1364 1.389 . S
C1364 C1363 1.389 . S
C1364 C1365 1.387 . S
C1365 H1350 0.930 1_565 S
C1365 C1360 1.390 . S
C1365 C1364 1.387 . S
H1366 C1378 0.930 . S
H1367 C1380 0.935 . S
H1368 C1381 0.930 . S
H1369 C1385 0.959 . S
H1370 C1385 0.959 . S
H1371 C1385 0.961 . S
H1372 C1386 0.960 . S
H1373 C1386 0.961 . S
H1374 C1386 0.959 . S
H1375 C1389 0.929 . S
H1376 C1390 0.931 . S
H1377 C1392 0.930 . S
C1378 H1366 0.930 . S
C1378 C1379 1.399 . S
C1378 C1383 1.399 . S
C1379 C1378 1.399 . S
C1379 C1380 1.376 1_565 S
C1380 H1367 0.935 . S
C1380 C1379 1.376 1_545 S
C1380 C1381 1.384 1_545 S
C1381 H1368 0.930 . S
C1381 C1380 1.384 1_565 S
C1381 C1382 1.390 . S
C1382 C1381 1.390 . S
C1382 C1383 1.394 . S
C1382 C1388 1.465 . S
C1383 C1378 1.399 . S
C1383 C1382 1.394 . S
C1383 C1384 1.516 . S
C1384 C1383 1.516 . S
C1384 C1385 1.502 . S
C1384 C1386 1.561 . S
C1384 C1387 1.526 . S
C1385 H1369 0.959 . S
C1385 H1370 0.959 . S
C1385 H1371 0.961 . S
C1385 C1384 1.502 . S
C1386 H1372 0.960 . S
C1386 H1373 0.961 . S
C1386 H1374 0.959 . S
C1386 C1384 1.561 . S
C1387 C1384 1.526 . S
C1387 C1388 1.396 . S
C1387 C1392 1.390 . S
C1388 C1382 1.465 . S
C1388 C1387 1.396 . S
C1388 C1389 1.399 . S
C1389 H1375 0.929 . S
C1389 C1388 1.399 . S
C1389 C1390 1.385 . S
C1390 H1376 0.931 . S
C1390 C1389 1.385 . S
C1390 C1391 1.389 . S
C1391 C1390 1.389 . S
C1391 C1392 1.387 . S
C1392 H1377 0.930 . S
C1392 C1387 1.390 . S
C1392 C1391 1.387 . S
H1393 C1405 0.930 . S
H1394 C1407 0.930 . S
H1395 C1408 0.930 . S
H1396 C1412 0.959 . S
H1397 C1412 0.959 . S
H1398 C1412 0.961 . S
H1399 C1413 0.960 . S
H1400 C1413 0.961 . S
H1401 C1413 0.959 . S
H1402 C1416 0.929 . S
H1403 C1417 0.931 . S
H1404 C1419 0.930 . S
C1405 H1393 0.930 . S
C1405 C1406 1.399 . S
C1405 C1410 1.399 . S
C1406 C1405 1.399 . S
C1406 C1407 1.376 . S
C1407 H1394 0.930 . S
C1407 C1406 1.376 . S
C1407 C1408 1.388 . S
C1408 H1395 0.930 . S
C1408 C1407 1.388 . S
C1408 C1409 1.390 . S
C1409 C1408 1.390 . S
C1409 C1410 1.394 . S
C1409 C1415 1.465 . S
C1410 C1405 1.399 . S
C1410 C1409 1.394 . S
C1410 C1411 1.516 . S
C1411 C1410 1.516 . S
C1411 C1412 1.502 . S
C1411 C1413 1.561 . S
C1411 C1414 1.526 . S
C1412 H1396 0.959 . S
C1412 H1397 0.959 . S
C1412 H1398 0.961 . S
C1412 C1411 1.502 . S
C1413 H1399 0.960 . S
C1413 H1400 0.961 . S
C1413 H1401 0.959 . S
C1413 C1411 1.561 . S
C1414 C1411 1.526 . S
C1414 C1415 1.396 . S
C1414 C1419 1.390 . S
C1415 C1409 1.465 . S
C1415 C1414 1.396 . S
C1415 C1416 1.399 . S
C1416 H1402 0.929 . S
C1416 C1415 1.399 . S
C1416 C1417 1.385 . S
C1417 H1403 0.931 . S
C1417 C1416 1.385 . S
C1417 C1418 1.389 . S
C1418 C1417 1.389 . S
C1418 C1419 1.387 . S
C1419 H1404 0.930 . S
C1419 C1414 1.390 . S
C1419 C1418 1.387 . S
H1420 C1432 0.930 . S
H1421 C1434 0.930 . S
H1422 C1435 0.930 . S
H1423 C1439 0.959 . S
H1424 C1439 0.959 . S
H1425 C1439 0.961 . S
H1426 C1440 0.960 . S
H1427 C1440 0.961 . S
H1428 C1440 0.959 . S
H1429 C1443 0.929 . S
H1430 C1444 0.931 . S
H1431 C1446 0.930 . S
C1432 H1420 0.930 . S
C1432 C1433 1.399 . S
C1432 C1437 1.399 . S
C1433 C1432 1.399 . S
C1433 C1434 1.376 . S
C1434 H1421 0.930 . S
C1434 C1433 1.376 . S
C1434 C1435 1.388 . S
C1435 H1422 0.930 . S
C1435 C1434 1.388 . S
C1435 C1436 1.390 . S
C1436 C1435 1.390 . S
C1436 C1437 1.394 . S
C1436 C1442 1.465 . S
C1437 C1432 1.399 . S
C1437 C1436 1.394 . S
C1437 C1438 1.516 . S
C1438 C1437 1.516 . S
C1438 C1439 1.502 . S
C1438 C1440 1.561 . S
C1438 C1441 1.526 . S
C1439 H1423 0.959 . S
C1439 H1424 0.959 . S
C1439 H1425 0.961 . S
C1439 C1438 1.502 . S
C1440 H1426 0.960 . S
C1440 H1427 0.961 . S
C1440 H1428 0.959 . S
C1440 C1438 1.561 . S
C1441 C1438 1.526 . S
C1441 C1442 1.396 . S
C1441 C1446 1.390 . S
C1442 C1436 1.465 . S
C1442 C1441 1.396 . S
C1442 C1443 1.399 . S
C1443 H1429 0.929 . S
C1443 C1442 1.399 . S
C1443 C1444 1.385 . S
C1444 H1430 0.931 . S
C1444 C1443 1.385 . S
C1444 C1445 1.389 . S
C1445 C1444 1.389 . S
C1445 C1446 1.387 . S
C1446 H1431 0.930 . S
C1446 C1441 1.390 . S
C1446 C1445 1.387 . S
H1447 C1459 0.930 . S
H1448 C1461 0.930 . S
H1449 C1462 0.930 . S
H1450 C1466 0.959 . S
H1451 C1466 0.959 . S
H1452 C1466 0.961 . S
H1453 C1467 0.960 . S
H1454 C1467 0.961 . S
H1455 C1467 0.959 . S
H1456 C1470 0.929 . S
H1457 C1471 0.931 . S
H1458 C1473 0.930 . S
C1459 H1447 0.930 . S
C1459 C1460 1.399 . S
C1459 C1464 1.399 . S
C1460 C1459 1.399 . S
C1460 C1461 1.376 1_545 S
C1461 H1448 0.930 . S
C1461 C1460 1.376 1_565 S
C1461 C1462 1.388 1_565 S
C1462 H1449 0.930 . S
C1462 C1461 1.388 1_545 S
C1462 C1463 1.390 . S
C1463 C1462 1.390 . S
C1463 C1464 1.394 . S
C1463 C1469 1.465 . S
C1464 C1459 1.399 . S
C1464 C1463 1.394 . S
C1464 C1465 1.516 . S
C1465 C1464 1.516 . S
C1465 C1466 1.502 . S
C1465 C1467 1.561 . S
C1465 C1468 1.526 . S
C1466 H1450 0.959 . S
C1466 H1451 0.959 . S
C1466 H1452 0.961 . S
C1466 C1465 1.502 . S
C1467 H1453 0.960 . S
C1467 H1454 0.961 . S
C1467 H1455 0.959 . S
C1467 C1465 1.561 . S
C1468 C1465 1.526 . S
C1468 C1469 1.396 . S
C1468 C1473 1.390 . S
C1469 C1463 1.465 . S
C1469 C1468 1.396 . S
C1469 C1470 1.399 . S
C1470 H1456 0.929 . S
C1470 C1469 1.399 . S
C1470 C1471 1.385 . S
C1471 H1457 0.931 . S
C1471 C1470 1.385 . S
C1471 C1472 1.389 . S
C1472 C1471 1.389 . S
C1472 C1473 1.387 . S
C1473 H1458 0.930 . S
C1473 C1468 1.390 . S
C1473 C1472 1.387 . S
H1474 C1486 0.930 . S
H1475 C1488 0.930 . S
H1476 C1489 0.930 . S
H1477 C1493 0.959 . S
H1478 C1493 0.959 . S
H1479 C1493 0.961 . S
H1480 C1494 0.960 . S
H1481 C1494 0.961 . S
H1482 C1494 0.959 . S
H1483 C1497 0.929 . S
H1484 C1498 0.931 . S
H1485 C1500 0.930 1_565 S
C1486 H1474 0.930 . S
C1486 C1487 1.399 . S
C1486 C1491 1.399 . S
C1487 C1486 1.399 . S
C1487 C1488 1.376 . S
C1488 H1475 0.930 . S
C1488 C1487 1.376 . S
C1488 C1489 1.388 . S
C1489 H1476 0.930 . S
C1489 C1488 1.388 . S
C1489 C1490 1.390 . S
C1490 C1489 1.390 . S
C1490 C1491 1.394 . S
C1490 C1496 1.465 . S
C1491 C1486 1.399 . S
C1491 C1490 1.394 . S
C1491 C1492 1.516 . S
C1492 C1491 1.516 . S
C1492 C1493 1.502 . S
C1492 C1494 1.561 . S
C1492 C1495 1.526 . S
C1493 H1477 0.959 . S
C1493 H1478 0.959 . S
C1493 H1479 0.961 . S
C1493 C1492 1.502 . S
C1494 H1480 0.960 . S
C1494 H1481 0.961 . S
C1494 H1482 0.959 . S
C1494 C1492 1.561 . S
C1495 C1492 1.526 . S
C1495 C1496 1.396 . S
C1495 C1500 1.390 . S
C1496 C1490 1.465 . S
C1496 C1495 1.396 . S
C1496 C1497 1.399 . S
C1497 H1483 0.929 . S
C1497 C1496 1.399 . S
C1497 C1498 1.385 . S
C1498 H1484 0.931 . S
C1498 C1497 1.385 . S
C1498 C1499 1.389 . S
C1499 C1498 1.389 . S
C1499 C1500 1.387 . S
C1500 H1485 0.930 1_545 S
C1500 C1495 1.390 . S
C1500 C1499 1.387 . S
H1501 C1513 0.930 . S
H1502 C1515 0.930 . S
H1503 C1516 0.930 . S
H1504 C1520 0.959 . S
H1505 C1520 0.959 . S
H1506 C1520 0.961 . S
H1507 C1521 0.960 . S
H1508 C1521 0.961 . S
H1509 C1521 0.959 . S
H1510 C1524 0.929 . S
H1511 C1525 0.931 . S
H1512 C1527 0.930 . S
C1513 H1501 0.930 . S
C1513 C1514 1.399 . S
C1513 C1518 1.399 . S
C1514 C1513 1.399 . S
C1514 C1515 1.376 . S
C1515 H1502 0.930 . S
C1515 C1514 1.376 . S
C1515 C1516 1.388 . S
C1516 H1503 0.930 . S
C1516 C1515 1.388 . S
C1516 C1517 1.390 . S
C1517 C1516 1.390 . S
C1517 C1518 1.394 . S
C1517 C1523 1.465 . S
C1518 C1513 1.399 . S
C1518 C1517 1.394 . S
C1518 C1519 1.516 . S
C1519 C1518 1.516 . S
C1519 C1520 1.502 . S
C1519 C1521 1.561 . S
C1519 C1522 1.526 . S
C1520 H1504 0.959 . S
C1520 H1505 0.959 . S
C1520 H1506 0.961 . S
C1520 C1519 1.502 . S
C1521 H1507 0.960 . S
C1521 H1508 0.961 . S
C1521 H1509 0.959 . S
C1521 C1519 1.561 . S
C1522 C1519 1.526 . S
C1522 C1523 1.396 . S
C1522 C1527 1.390 . S
C1523 C1517 1.465 . S
C1523 C1522 1.396 . S
C1523 C1524 1.399 . S
C1524 H1510 0.929 . S
C1524 C1523 1.399 . S
C1524 C1525 1.385 . S
C1525 H1511 0.931 . S
C1525 C1524 1.385 . S
C1525 C1526 1.389 . S
C1526 C1525 1.389 . S
C1526 C1527 1.387 . S
C1527 H1512 0.930 . S
C1527 C1522 1.390 . S
C1527 C1526 1.387 . S
H1528 C1540 0.930 . S
H1529 C1542 0.930 . S
H1530 C1543 0.930 . S
H1531 C1547 0.959 . S
H1532 C1547 0.959 . S
H1533 C1547 0.961 . S
H1534 C1548 0.960 . S
H1535 C1548 0.961 . S
H1536 C1548 0.959 . S
H1537 C1551 0.929 . S
H1538 C1552 0.931 . S
H1539 C1554 0.930 . S
C1540 H1528 0.930 . S
C1540 C1541 1.399 . S
C1540 C1545 1.399 . S
C1541 C1540 1.399 . S
C1541 C1542 1.376 . S
C1542 H1529 0.930 . S
C1542 C1541 1.376 . S
C1542 C1543 1.388 . S
C1543 H1530 0.930 . S
C1543 C1542 1.388 . S
C1543 C1544 1.390 . S
C1544 C1543 1.390 . S
C1544 C1545 1.394 . S
C1544 C1550 1.465 . S
C1545 C1540 1.399 . S
C1545 C1544 1.394 . S
C1545 C1546 1.516 . S
C1546 C1545 1.516 . S
C1546 C1547 1.502 . S
C1546 C1548 1.561 . S
C1546 C1549 1.526 . S
C1547 H1531 0.959 . S
C1547 H1532 0.959 . S
C1547 H1533 0.961 . S
C1547 C1546 1.502 . S
C1548 H1534 0.960 . S
C1548 H1535 0.961 . S
C1548 H1536 0.959 . S
C1548 C1546 1.561 . S
C1549 C1546 1.526 . S
C1549 C1550 1.396 . S
C1549 C1554 1.390 . S
C1550 C1544 1.465 . S
C1550 C1549 1.396 . S
C1550 C1551 1.399 . S
C1551 H1537 0.929 . S
C1551 C1550 1.399 . S
C1551 C1552 1.385 . S
C1552 H1538 0.931 . S
C1552 C1551 1.385 . S
C1552 C1553 1.389 . S
C1553 C1552 1.389 . S
C1553 C1554 1.387 . S
C1554 H1539 0.930 . S
C1554 C1549 1.390 . S
C1554 C1553 1.387 . S
H1555 C1567 0.930 . S
H1556 C1569 0.930 . S
H1557 C1570 0.930 . S
H1558 C1574 0.959 . S
H1559 C1574 0.959 . S
H1560 C1574 0.961 . S
H1561 C1575 0.960 . S
H1562 C1575 0.961 . S
H1563 C1575 0.959 . S
H1564 C1578 0.929 . S
H1565 C1579 0.931 . S
H1566 C1581 0.930 1_545 S
C1567 H1555 0.930 . S
C1567 C1568 1.399 . S
C1567 C1572 1.399 . S
C1568 C1567 1.399 . S
C1568 C1569 1.376 . S
C1569 H1556 0.930 . S
C1569 C1568 1.376 . S
C1569 C1570 1.388 . S
C1570 H1557 0.930 . S
C1570 C1569 1.388 . S
C1570 C1571 1.390 . S
C1571 C1570 1.390 . S
C1571 C1572 1.394 . S
C1571 C1577 1.465 . S
C1572 C1567 1.399 . S
C1572 C1571 1.394 . S
C1572 C1573 1.516 . S
C1573 C1572 1.516 . S
C1573 C1574 1.502 . S
C1573 C1575 1.561 . S
C1573 C1576 1.526 . S
C1574 H1558 0.959 . S
C1574 H1559 0.959 . S
C1574 H1560 0.961 . S
C1574 C1573 1.502 . S
C1575 H1561 0.960 . S
C1575 H1562 0.961 . S
C1575 H1563 0.959 . S
C1575 C1573 1.561 . S
C1576 C1573 1.526 . S
C1576 C1577 1.396 . S
C1576 C1581 1.390 . S
C1577 C1571 1.465 . S
C1577 C1576 1.396 . S
C1577 C1578 1.399 . S
C1578 H1564 0.929 . S
C1578 C1577 1.399 . S
C1578 C1579 1.385 . S
C1579 H1565 0.931 . S
C1579 C1578 1.385 . S
C1579 C1580 1.389 . S
C1580 C1579 1.389 . S
C1580 C1581 1.387 . S
C1581 H1566 0.930 1_565 S
C1581 C1576 1.390 . S
C1581 C1580 1.387 . S
H1582 C1594 0.930 . S
H1583 C1596 0.930 . S
H1584 C1597 0.930 . S
H1585 C1601 0.959 . S
H1586 C1601 0.959 . S
H1587 C1601 0.961 . S
H1588 C1602 0.960 . S
H1589 C1602 0.961 . S
H1590 C1602 0.959 . S
H1591 C1605 0.929 . S
H1592 C1606 0.931 . S
H1593 C1608 0.930 . S
C1594 H1582 0.930 . S
C1594 C1595 1.399 . S
C1594 C1599 1.399 . S
C1595 C1594 1.399 . S
C1595 C1596 1.376 . S
C1596 H1583 0.930 . S
C1596 C1595 1.376 . S
C1596 C1597 1.388 . S
C1597 H1584 0.930 . S
C1597 C1596 1.388 . S
C1597 C1598 1.390 . S
C1598 C1597 1.390 . S
C1598 C1599 1.394 . S
C1598 C1604 1.465 . S
C1599 C1594 1.399 . S
C1599 C1598 1.394 . S
C1599 C1600 1.516 . S
C1600 C1599 1.516 . S
C1600 C1601 1.502 . S
C1600 C1602 1.561 . S
C1600 C1603 1.526 . S
C1601 H1585 0.959 . S
C1601 H1586 0.959 . S
C1601 H1587 0.961 . S
C1601 C1600 1.502 . S
C1602 H1588 0.960 . S
C1602 H1589 0.961 . S
C1602 H1590 0.959 . S
C1602 C1600 1.561 . S
C1603 C1600 1.526 . S
C1603 C1604 1.396 . S
C1603 C1608 1.390 . S
C1604 C1598 1.465 . S
C1604 C1603 1.396 . S
C1604 C1605 1.399 . S
C1605 H1591 0.929 . S
C1605 C1604 1.399 . S
C1605 C1606 1.385 1_565 S
C1606 H1592 0.931 . S
C1606 C1605 1.385 1_545 S
C1606 C1607 1.389 1_545 S
C1607 C1606 1.389 1_565 S
C1607 C1608 1.387 . S
C1608 H1593 0.930 . S
C1608 C1603 1.390 . S
C1608 C1607 1.387 . S
H1609 C1621 0.930 . S
H1610 C1623 0.930 . S
H1611 C1624 0.930 . S
H1612 C1628 0.959 . S
H1613 C1628 0.959 . S
H1614 C1628 0.961 . S
H1615 C1629 0.960 . S
H1616 C1629 0.961 . S
H1617 C1629 0.959 . S
H1618 C1632 0.929 . S
H1619 C1633 0.931 . S
H1620 C1635 0.930 . S
C1621 H1609 0.930 . S
C1621 C1622 1.399 . S
C1621 C1626 1.399 . S
C1622 C1621 1.399 . S
C1622 C1623 1.376 . S
C1623 H1610 0.930 . S
C1623 C1622 1.376 . S
C1623 C1624 1.388 . S
C1624 H1611 0.930 . S
C1624 C1623 1.388 . S
C1624 C1625 1.390 . S
C1625 C1624 1.390 . S
C1625 C1626 1.394 . S
C1625 C1631 1.465 . S
C1626 C1621 1.399 . S
C1626 C1625 1.394 . S
C1626 C1627 1.516 . S
C1627 C1626 1.516 . S
C1627 C1628 1.502 . S
C1627 C1629 1.561 . S
C1627 C1630 1.526 . S
C1628 H1612 0.959 . S
C1628 H1613 0.959 . S
C1628 H1614 0.961 . S
C1628 C1627 1.502 . S
C1629 H1615 0.960 . S
C1629 H1616 0.961 . S
C1629 H1617 0.959 . S
C1629 C1627 1.561 . S
C1630 C1627 1.526 . S
C1630 C1631 1.396 . S
C1630 C1635 1.390 . S
C1631 C1625 1.465 . S
C1631 C1630 1.396 . S
C1631 C1632 1.399 . S
C1632 H1618 0.929 . S
C1632 C1631 1.399 . S
C1632 C1633 1.385 . S
C1633 H1619 0.931 . S
C1633 C1632 1.385 . S
C1633 C1634 1.389 . S
C1634 C1633 1.389 . S
C1634 C1635 1.387 . S
C1635 H1620 0.930 . S
C1635 C1630 1.390 . S
C1635 C1634 1.387 . S
H1636 C1648 0.930 . S
H1637 C1650 0.930 . S
H1638 C1651 0.930 . S
H1639 C1655 0.959 . S
H1640 C1655 0.959 . S
H1641 C1655 0.961 . S
H1642 C1656 0.960 . S
H1643 C1656 0.961 . S
H1644 C1656 0.959 . S
H1645 C1659 0.929 . S
H1646 C1660 0.931 . S
H1647 C1662 0.930 . S
C1648 H1636 0.930 . S
C1648 C1649 1.399 . S
C1648 C1653 1.399 . S
C1649 C1648 1.399 . S
C1649 C1650 1.376 . S
C1650 H1637 0.930 . S
C1650 C1649 1.376 . S
C1650 C1651 1.388 . S
C1651 H1638 0.930 . S
C1651 C1650 1.388 . S
C1651 C1652 1.390 . S
C1652 C1651 1.390 . S
C1652 C1653 1.394 . S
C1652 C1658 1.465 . S
C1653 C1648 1.399 . S
C1653 C1652 1.394 . S
C1653 C1654 1.516 . S
C1654 C1653 1.516 . S
C1654 C1655 1.502 . S
C1654 C1656 1.561 . S
C1654 C1657 1.526 . S
C1655 H1639 0.959 . S
C1655 H1640 0.959 . S
C1655 H1641 0.961 . S
C1655 C1654 1.502 . S
C1656 H1642 0.960 . S
C1656 H1643 0.961 . S
C1656 H1644 0.959 . S
C1656 C1654 1.561 . S
C1657 C1654 1.526 . S
C1657 C1658 1.396 . S
C1657 C1662 1.390 . S
C1658 C1652 1.465 . S
C1658 C1657 1.396 . S
C1658 C1659 1.399 . S
C1659 H1645 0.929 . S
C1659 C1658 1.399 . S
C1659 C1660 1.385 . S
C1660 H1646 0.931 . S
C1660 C1659 1.385 . S
C1660 C1661 1.389 . S
C1661 C1660 1.389 . S
C1661 C1662 1.387 . S
C1662 H1647 0.930 . S
C1662 C1657 1.390 . S
C1662 C1661 1.387 . S
H1663 C1675 0.930 . S
H1664 C1677 0.930 1_565 S
H1665 C1678 0.930 . S
H1666 C1682 0.959 . S
H1667 C1682 0.959 . S
H1668 C1682 0.961 . S
H1669 C1683 0.960 . S
H1670 C1683 0.961 . S
H1671 C1683 0.959 . S
H1672 C1686 0.929 . S
H1673 C1687 0.931 . S
H1674 C1689 0.930 . S
C1675 H1663 0.930 . S
C1675 C1676 1.399 . S
C1675 C1680 1.399 . S
C1676 C1675 1.399 . S
C1676 C1677 1.376 . S
C1677 H1664 0.930 1_545 S
C1677 C1676 1.376 . S
C1677 C1678 1.388 . S
C1678 H1665 0.930 . S
C1678 C1677 1.388 . S
C1678 C1679 1.390 . S
C1679 C1678 1.390 . S
C1679 C1680 1.394 . S
C1679 C1685 1.465 . S
C1680 C1675 1.399 . S
C1680 C1679 1.394 . S
C1680 C1681 1.516 . S
C1681 C1680 1.516 . S
C1681 C1682 1.502 . S
C1681 C1683 1.561 . S
C1681 C1684 1.526 . S
C1682 H1666 0.959 . S
C1682 H1667 0.959 . S
C1682 H1668 0.961 . S
C1682 C1681 1.502 . S
C1683 H1669 0.960 . S
C1683 H1670 0.961 . S
C1683 H1671 0.959 . S
C1683 C1681 1.561 . S
C1684 C1681 1.526 . S
C1684 C1685 1.396 . S
C1684 C1689 1.390 . S
C1685 C1679 1.465 . S
C1685 C1684 1.396 . S
C1685 C1686 1.399 . S
C1686 H1672 0.929 . S
C1686 C1685 1.399 . S
C1686 C1687 1.385 . S
C1687 H1673 0.931 . S
C1687 C1686 1.385 . S
C1687 C1688 1.389 . S
C1688 C1687 1.389 . S
C1688 C1689 1.387 . S
C1689 H1674 0.930 . S
C1689 C1684 1.390 . S
C1689 C1688 1.387 . S
H1690 C1702 0.930 . S
H1691 C1704 0.930 . S
H1692 C1705 0.930 . S
H1693 C1709 0.959 . S
H1694 C1709 0.959 . S
H1695 C1709 0.961 . S
H1696 C1710 0.960 . S
H1697 C1710 0.961 . S
H1698 C1710 0.959 . S
H1699 C1713 0.929 . S
H1700 C1714 0.931 . S
H1701 C1716 0.930 . S
C1702 H1690 0.930 . S
C1702 C1703 1.399 . S
C1702 C1707 1.399 . S
C1703 C1702 1.399 . S
C1703 C1704 1.376 . S
C1704 H1691 0.930 . S
C1704 C1703 1.376 . S
C1704 C1705 1.388 . S
C1705 H1692 0.930 . S
C1705 C1704 1.388 . S
C1705 C1706 1.390 . S
C1706 C1705 1.390 . S
C1706 C1707 1.394 . S
C1706 C1712 1.465 . S
C1707 C1702 1.399 . S
C1707 C1706 1.394 . S
C1707 C1708 1.516 . S
C1708 C1707 1.516 . S
C1708 C1709 1.502 . S
C1708 C1710 1.561 . S
C1708 C1711 1.526 . S
C1709 H1693 0.959 . S
C1709 H1694 0.959 . S
C1709 H1695 0.961 . S
C1709 C1708 1.502 . S
C1710 H1696 0.960 . S
C1710 H1697 0.961 . S
C1710 H1698 0.959 . S
C1710 C1708 1.561 . S
C1711 C1708 1.526 . S
C1711 C1712 1.396 . S
C1711 C1716 1.390 . S
C1712 C1706 1.465 . S
C1712 C1711 1.396 . S
C1712 C1713 1.399 . S
C1713 H1699 0.929 . S
C1713 C1712 1.399 . S
C1713 C1714 1.385 1_545 S
C1714 H1700 0.931 . S
C1714 C1713 1.385 1_565 S
C1714 C1715 1.387 1_565 S
C1715 C1714 1.387 1_545 S
C1715 C1716 1.407 . S
C1716 H1701 0.930 . S
C1716 C1711 1.390 . S
C1716 C1715 1.407 . S
H1717 C1729 0.930 . S
H1718 C1731 0.930 . S
H1719 C1732 0.930 . S
H1720 C1736 0.959 . S
H1721 C1736 0.959 . S
H1722 C1736 0.961 . S
H1723 C1737 0.960 . S
H1724 C1737 0.961 . S
H1725 C1737 0.959 . S
H1726 C1740 0.929 . S
H1727 C1741 0.931 . S
H1728 C1743 0.930 . S
C1729 H1717 0.930 . S
C1729 C1730 1.399 . S
C1729 C1734 1.399 . S
C1730 C1729 1.399 . S
C1730 C1731 1.376 . S
C1731 H1718 0.930 . S
C1731 C1730 1.376 . S
C1731 C1732 1.388 . S
C1732 H1719 0.930 . S
C1732 C1731 1.388 . S
C1732 C1733 1.390 . S
C1733 C1732 1.390 . S
C1733 C1734 1.394 . S
C1733 C1739 1.465 . S
C1734 C1729 1.399 . S
C1734 C1733 1.394 . S
C1734 C1735 1.516 . S
C1735 C1734 1.516 . S
C1735 C1736 1.502 . S
C1735 C1737 1.561 . S
C1735 C1738 1.526 . S
C1736 H1720 0.959 . S
C1736 H1721 0.959 . S
C1736 H1722 0.961 . S
C1736 C1735 1.502 . S
C1737 H1723 0.960 . S
C1737 H1724 0.961 . S
C1737 H1725 0.959 . S
C1737 C1735 1.561 . S
C1738 C1735 1.526 . S
C1738 C1739 1.396 . S
C1738 C1743 1.390 . S
C1739 C1733 1.465 . S
C1739 C1738 1.396 . S
C1739 C1740 1.399 . S
C1740 H1726 0.929 . S
C1740 C1739 1.399 . S
C1740 C1741 1.385 . S
C1741 H1727 0.931 . S
C1741 C1740 1.385 . S
C1741 C1742 1.389 . S
C1742 C1741 1.389 . S
C1742 C1743 1.387 . S
C1743 H1728 0.930 . S
C1743 C1738 1.390 . S
C1743 C1742 1.387 . S
H1744 C1756 0.930 . S
H1745 C1758 0.930 . S
H1746 C1759 0.930 . S
H1747 C1763 0.959 . S
H1748 C1763 0.959 . S
H1749 C1763 0.961 . S
H1750 C1764 0.960 . S
H1751 C1764 0.961 . S
H1752 C1764 0.959 . S
H1753 C1767 0.929 . S
H1754 C1768 0.931 1_545 S
H1755 C1770 0.930 . S
C1756 H1744 0.930 . S
C1756 C1757 1.399 . S
C1756 C1761 1.399 . S
C1757 C1756 1.399 . S
C1757 C1758 1.376 . S
C1758 H1745 0.930 . S
C1758 C1757 1.376 . S
C1758 C1759 1.388 . S
C1759 H1746 0.930 . S
C1759 C1758 1.388 . S
C1759 C1760 1.390 . S
C1760 C1759 1.390 . S
C1760 C1761 1.394 . S
C1760 C1766 1.465 . S
C1761 C1756 1.399 . S
C1761 C1760 1.394 . S
C1761 C1762 1.516 . S
C1762 C1761 1.516 . S
C1762 C1763 1.502 . S
C1762 C1764 1.561 . S
C1762 C1765 1.526 . S
C1763 H1747 0.959 . S
C1763 H1748 0.959 . S
C1763 H1749 0.961 . S
C1763 C1762 1.502 . S
C1764 H1750 0.960 . S
C1764 H1751 0.961 . S
C1764 H1752 0.959 . S
C1764 C1762 1.561 . S
C1765 C1762 1.526 . S
C1765 C1766 1.396 . S
C1765 C1770 1.390 . S
C1766 C1760 1.465 . S
C1766 C1765 1.396 . S
C1766 C1767 1.399 . S
C1767 H1753 0.929 . S
C1767 C1766 1.399 . S
C1767 C1768 1.385 . S
C1768 H1754 0.931 1_565 S
C1768 C1767 1.385 . S
C1768 C1769 1.389 . S
C1769 C1768 1.389 . S
C1769 C1770 1.387 . S
C1770 H1755 0.930 . S
C1770 C1765 1.390 . S
C1770 C1769 1.387 . S
H1771 C1783 0.930 . S
H1772 C1785 0.930 . S
H1773 C1786 0.930 . S
H1774 C1790 0.959 . S
H1775 C1790 0.959 . S
H1776 C1790 0.961 . S
H1777 C1791 0.960 . S
H1778 C1791 0.961 . S
H1779 C1791 0.959 . S
H1780 C1794 0.929 . S
H1781 C1795 0.931 . S
H1782 C1797 0.930 . S
C1783 H1771 0.930 . S
C1783 C1784 1.399 . S
C1783 C1788 1.399 . S
C1784 C1783 1.399 . S
C1784 C1785 1.376 . S
C1785 H1772 0.930 . S
C1785 C1784 1.376 . S
C1785 C1786 1.388 . S
C1786 H1773 0.930 . S
C1786 C1785 1.388 . S
C1786 C1787 1.390 . S
C1787 C1786 1.390 . S
C1787 C1788 1.394 . S
C1787 C1793 1.465 . S
C1788 C1783 1.399 . S
C1788 C1787 1.394 . S
C1788 C1789 1.516 . S
C1789 C1788 1.516 . S
C1789 C1790 1.502 . S
C1789 C1791 1.561 . S
C1789 C1792 1.526 . S
C1790 H1774 0.959 . S
C1790 H1775 0.959 . S
C1790 H1776 0.961 . S
C1790 C1789 1.502 . S
C1791 H1777 0.960 . S
C1791 H1778 0.961 . S
C1791 H1779 0.959 . S
C1791 C1789 1.561 . S
C1792 C1789 1.526 . S
C1792 C1793 1.396 . S
C1792 C1797 1.390 . S
C1793 C1787 1.465 . S
C1793 C1792 1.396 . S
C1793 C1794 1.399 . S
C1794 H1780 0.929 . S
C1794 C1793 1.399 . S
C1794 C1795 1.385 . S
C1795 H1781 0.931 . S
C1795 C1794 1.385 . S
C1795 C1796 1.389 . S
C1796 C1795 1.389 . S
C1796 C1797 1.387 . S
C1797 H1782 0.930 . S
C1797 C1792 1.390 . S
C1797 C1796 1.387 . S
H1798 C1810 0.930 . S
H1799 C1812 0.930 . S
H1800 C1813 0.930 . S
H1801 C1817 0.959 . S
H1802 C1817 0.959 . S
H1803 C1817 0.961 . S
H1804 C1818 0.960 . S
H1805 C1818 0.961 . S
H1806 C1818 0.959 . S
H1807 C1821 0.929 . S
H1808 C1822 0.931 . S
H1809 C1824 0.930 . S
C1810 H1798 0.930 . S
C1810 C1811 1.399 . S
C1810 C1815 1.399 . S
C1811 C1810 1.399 . S
C1811 C1812 1.376 . S
C1812 H1799 0.930 . S
C1812 C1811 1.376 . S
C1812 C1813 1.388 . S
C1813 H1800 0.930 . S
C1813 C1812 1.388 . S
C1813 C1814 1.390 . S
C1814 C1813 1.390 . S
C1814 C1815 1.394 . S
C1814 C1820 1.465 . S
C1815 C1810 1.399 . S
C1815 C1814 1.394 . S
C1815 C1816 1.516 . S
C1816 C1815 1.516 . S
C1816 C1817 1.502 . S
C1816 C1818 1.561 . S
C1816 C1819 1.526 . S
C1817 H1801 0.959 . S
C1817 H1802 0.959 . S
C1817 H1803 0.961 . S
C1817 C1816 1.502 . S
C1818 H1804 0.960 . S
C1818 H1805 0.961 . S
C1818 H1806 0.959 . S
C1818 C1816 1.561 . S
C1819 C1816 1.526 . S
C1819 C1820 1.396 . S
C1819 C1824 1.390 . S
C1820 C1814 1.465 . S
C1820 C1819 1.396 . S
C1820 C1821 1.399 . S
C1821 H1807 0.929 . S
C1821 C1820 1.399 . S
C1821 C1822 1.385 . S
C1822 H1808 0.931 . S
C1822 C1821 1.385 . S
C1822 C1823 1.389 . S
C1823 C1822 1.389 . S
C1823 C1824 1.387 . S
C1824 H1809 0.930 . S
C1824 C1819 1.390 . S
C1824 C1823 1.387 . S
H1825 C1837 0.930 . S
H1826 C1839 0.916 1_545 S
H1827 C1840 0.930 . S
H1828 C1844 0.959 . S
H1829 C1844 0.959 . S
H1830 C1844 0.961 . S
H1831 C1845 0.960 . S
H1832 C1845 0.961 . S
H1833 C1845 0.959 . S
H1834 C1848 0.929 . S
H1835 C1849 0.931 . S
H1836 C1851 0.930 . S
C1837 H1825 0.930 . S
C1837 C1838 1.399 . S
C1837 C1842 1.399 . S
C1838 C1837 1.399 . S
C1838 C1839 1.378 . S
C1839 H1826 0.916 1_565 S
C1839 C1838 1.378 . S
C1839 C1840 1.401 . S
C1840 H1827 0.930 . S
C1840 C1839 1.401 . S
C1840 C1841 1.390 . S
C1841 C1840 1.390 . S
C1841 C1842 1.394 . S
C1841 C1847 1.465 . S
C1842 C1837 1.399 . S
C1842 C1841 1.394 . S
C1842 C1843 1.516 . S
C1843 C1842 1.516 . S
C1843 C1844 1.502 . S
C1843 C1845 1.561 . S
C1843 C1846 1.526 . S
C1844 H1828 0.959 . S
C1844 H1829 0.959 . S
C1844 H1830 0.961 . S
C1844 C1843 1.502 . S
C1845 H1831 0.960 . S
C1845 H1832 0.961 . S
C1845 H1833 0.959 . S
C1845 C1843 1.561 . S
C1846 C1843 1.526 . S
C1846 C1847 1.396 . S
C1846 C1851 1.390 . S
C1847 C1841 1.465 . S
C1847 C1846 1.396 . S
C1847 C1848 1.399 . S
C1848 H1834 0.929 . S
C1848 C1847 1.399 . S
C1848 C1849 1.385 . S
C1849 H1835 0.931 . S
C1849 C1848 1.385 . S
C1849 C1850 1.389 . S
C1850 C1849 1.389 . S
C1850 C1851 1.387 . S
C1851 H1836 0.930 . S
C1851 C1846 1.390 . S
C1851 C1850 1.387 . S
H1852 C1864 0.930 . S
H1853 C1866 0.930 . S
H1854 C1867 0.930 . S
H1855 C1871 0.959 . S
H1856 C1871 0.959 . S
H1857 C1871 0.961 . S
H1858 C1872 0.960 . S
H1859 C1872 0.961 . S
H1860 C1872 0.959 . S
H1861 C1875 0.929 . S
H1862 C1876 0.931 . S
H1863 C1878 0.930 . S
C1864 H1852 0.930 . S
C1864 C1865 1.399 . S
C1864 C1869 1.399 . S
C1865 C1864 1.399 . S
C1865 C1866 1.376 . S
C1866 H1853 0.930 . S
C1866 C1865 1.376 . S
C1866 C1867 1.388 . S
C1867 H1854 0.930 . S
C1867 C1866 1.388 . S
C1867 C1868 1.390 . S
C1868 C1867 1.390 . S
C1868 C1869 1.394 . S
C1868 C1874 1.465 . S
C1869 C1864 1.399 . S
C1869 C1868 1.394 . S
C1869 C1870 1.516 . S
C1870 C1869 1.516 . S
C1870 C1871 1.502 . S
C1870 C1872 1.561 . S
C1870 C1873 1.526 . S
C1871 H1855 0.959 . S
C1871 H1856 0.959 . S
C1871 H1857 0.961 . S
C1871 C1870 1.502 . S
C1872 H1858 0.960 . S
C1872 H1859 0.961 . S
C1872 H1860 0.959 . S
C1872 C1870 1.561 . S
C1873 C1870 1.526 . S
C1873 C1874 1.396 . S
C1873 C1878 1.390 . S
C1874 C1868 1.465 . S
C1874 C1873 1.396 . S
C1874 C1875 1.399 . S
C1875 H1861 0.929 . S
C1875 C1874 1.399 . S
C1875 C1876 1.385 1_545 S
C1876 H1862 0.931 . S
C1876 C1875 1.385 1_565 S
C1876 C1877 1.389 1_565 S
C1877 C1876 1.389 1_545 S
C1877 C1878 1.387 . S
C1878 H1863 0.930 . S
C1878 C1873 1.390 . S
C1878 C1877 1.387 . S
H1879 C1891 0.930 . S
H1880 C1893 0.930 . S
H1881 C1894 0.930 . S
H1882 C1898 0.959 . S
H1883 C1898 0.959 . S
H1884 C1898 0.961 . S
H1885 C1899 0.960 . S
H1886 C1899 0.961 . S
H1887 C1899 0.959 . S
H1888 C1902 0.929 . S
H1889 C1903 0.931 . S
H1890 C1905 0.930 . S
C1891 H1879 0.930 . S
C1891 C1892 1.399 . S
C1891 C1896 1.399 . S
C1892 C1891 1.399 . S
C1892 C1893 1.376 . S
C1893 H1880 0.930 . S
C1893 C1892 1.376 . S
C1893 C1894 1.388 . S
C1894 H1881 0.930 . S
C1894 C1893 1.388 . S
C1894 C1895 1.390 . S
C1895 C1894 1.390 . S
C1895 C1896 1.394 . S
C1895 C1901 1.465 . S
C1896 C1891 1.399 . S
C1896 C1895 1.394 . S
C1896 C1897 1.516 . S
C1897 C1896 1.516 . S
C1897 C1898 1.502 . S
C1897 C1899 1.561 . S
C1897 C1900 1.526 . S
C1898 H1882 0.959 . S
C1898 H1883 0.959 . S
C1898 H1884 0.961 . S
C1898 C1897 1.502 . S
C1899 H1885 0.960 . S
C1899 H1886 0.961 . S
C1899 H1887 0.959 . S
C1899 C1897 1.561 . S
C1900 C1897 1.526 . S
C1900 C1901 1.396 . S
C1900 C1905 1.390 . S
C1901 C1895 1.465 . S
C1901 C1900 1.396 . S
C1901 C1902 1.399 . S
C1902 H1888 0.929 . S
C1902 C1901 1.399 . S
C1902 C1903 1.385 . S
C1903 H1889 0.931 . S
C1903 C1902 1.385 . S
C1903 C1904 1.389 . S
C1904 C1903 1.389 . S
C1904 C1905 1.387 . S
C1905 H1890 0.930 . S
C1905 C1900 1.390 . S
C1905 C1904 1.387 . S
H1906 C1918 0.930 . S
H1907 C1920 0.930 . S
H1908 C1921 0.930 . S
H1909 C1925 0.959 . S
H1910 C1925 0.959 . S
H1911 C1925 0.961 . S
H1912 C1926 0.960 . S
H1913 C1926 0.961 . S
H1914 C1926 0.959 . S
H1915 C1929 0.929 . S
H1916 C1930 0.931 . S
H1917 C1932 0.930 . S
C1918 H1906 0.930 . S
C1918 C1919 1.399 . S
C1918 C1923 1.399 . S
C1919 C1918 1.399 . S
C1919 C1920 1.376 . S
C1920 H1907 0.930 . S
C1920 C1919 1.376 . S
C1920 C1921 1.388 . S
C1921 H1908 0.930 . S
C1921 C1920 1.388 . S
C1921 C1922 1.390 . S
C1922 C1921 1.390 . S
C1922 C1923 1.394 . S
C1922 C1928 1.465 . S
C1923 C1918 1.399 . S
C1923 C1922 1.394 . S
C1923 C1924 1.516 . S
C1924 C1923 1.516 . S
C1924 C1925 1.502 . S
C1924 C1926 1.561 . S
C1924 C1927 1.526 . S
C1925 H1909 0.959 . S
C1925 H1910 0.959 . S
C1925 H1911 0.961 . S
C1925 C1924 1.502 . S
C1926 H1912 0.960 . S
C1926 H1913 0.961 . S
C1926 H1914 0.959 . S
C1926 C1924 1.561 . S
C1927 C1924 1.526 . S
C1927 C1928 1.396 . S
C1927 C1932 1.390 . S
C1928 C1922 1.465 . S
C1928 C1927 1.396 . S
C1928 C1929 1.399 . S
C1929 H1915 0.929 . S
C1929 C1928 1.399 . S
C1929 C1930 1.385 . S
C1930 H1916 0.931 . S
C1930 C1929 1.385 . S
C1930 C1931 1.389 . S
C1931 C1930 1.389 . S
C1931 C1932 1.387 . S
C1932 H1917 0.930 . S
C1932 C1927 1.390 . S
C1932 C1931 1.387 . S
H1933 C1945 0.930 . S
H1934 C1947 0.930 . S
H1935 C1948 0.930 . S
H1936 C1952 0.959 . S
H1937 C1952 0.959 . S
H1938 C1952 0.961 . S
H1939 C1953 0.960 . S
H1940 C1953 0.961 . S
H1941 C1953 0.959 . S
H1942 C1956 0.929 . S
H1943 C1957 0.931 . S
H1944 C1959 0.930 . S
C1945 H1933 0.930 . S
C1945 C1946 1.399 . S
C1945 C1950 1.399 . S
C1946 C1945 1.399 . S
C1946 C1947 1.376 . S
C1947 H1934 0.930 . S
C1947 C1946 1.376 . S
C1947 C1948 1.388 . S
C1948 H1935 0.930 . S
C1948 C1947 1.388 . S
C1948 C1949 1.390 . S
C1949 C1948 1.390 . S
C1949 C1950 1.394 . S
C1949 C1955 1.465 . S
C1950 C1945 1.399 . S
C1950 C1949 1.394 . S
C1950 C1951 1.516 . S
C1951 C1950 1.516 . S
C1951 C1952 1.502 . S
C1951 C1953 1.561 . S
C1951 C1954 1.526 . S
C1952 H1936 0.959 . S
C1952 H1937 0.959 . S
C1952 H1938 0.961 . S
C1952 C1951 1.502 . S
C1953 H1939 0.960 . S
C1953 H1940 0.961 . S
C1953 H1941 0.959 . S
C1953 C1951 1.561 . S
C1954 C1951 1.526 . S
C1954 C1955 1.396 . S
C1954 C1959 1.390 . S
C1955 C1949 1.465 . S
C1955 C1954 1.396 . S
C1955 C1956 1.399 . S
C1956 H1942 0.929 . S
C1956 C1955 1.399 . S
C1956 C1957 1.385 1_545 S
C1957 H1943 0.931 . S
C1957 C1956 1.385 1_565 S
C1957 C1958 1.389 1_565 S
C1958 C1957 1.389 1_545 S
C1958 C1959 1.387 . S
C1959 H1944 0.930 . S
C1959 C1954 1.390 . S
C1959 C1958 1.387 . S
H1960 C1972 0.930 . S
H1961 C1974 0.930 . S
H1962 C1975 0.930 . S
H1963 C1979 0.959 . S
H1964 C1979 0.959 . S
H1965 C1979 0.961 . S
H1966 C1980 0.960 . S
H1967 C1980 0.961 . S
H1968 C1980 0.959 . S
H1969 C1983 0.929 . S
H1970 C1984 0.931 . S
H1971 C1986 0.930 . S
C1972 H1960 0.930 . S
C1972 C1973 1.399 . S
C1972 C1977 1.399 . S
C1973 C1972 1.399 . S
C1973 C1974 1.376 . S
C1974 H1961 0.930 . S
C1974 C1973 1.376 . S
C1974 C1975 1.388 . S
C1975 H1962 0.930 . S
C1975 C1974 1.388 . S
C1975 C1976 1.390 . S
C1976 C1975 1.390 . S
C1976 C1977 1.394 . S
C1976 C1982 1.465 . S
C1977 C1972 1.399 . S
C1977 C1976 1.394 . S
C1977 C1978 1.516 . S
C1978 C1977 1.516 . S
C1978 C1979 1.502 . S
C1978 C1980 1.561 . S
C1978 C1981 1.526 . S
C1979 H1963 0.959 . S
C1979 H1964 0.959 . S
C1979 H1965 0.961 . S
C1979 C1978 1.502 . S
C1980 H1966 0.960 . S
C1980 H1967 0.961 . S
C1980 H1968 0.959 . S
C1980 C1978 1.561 . S
C1981 C1978 1.526 . S
C1981 C1982 1.396 . S
C1981 C1986 1.390 . S
C1982 C1976 1.465 . S
C1982 C1981 1.396 . S
C1982 C1983 1.399 . S
C1983 H1969 0.929 . S
C1983 C1982 1.399 . S
C1983 C1984 1.385 1_565 S
C1984 H1970 0.931 . S
C1984 C1983 1.385 1_545 S
C1984 C1985 1.389 1_545 S
C1985 C1984 1.389 1_565 S
C1985 C1986 1.387 . S
C1986 H1971 0.930 . S
C1986 C1981 1.390 . S
C1986 C1985 1.387 . S
H1987 C1999 0.930 . S
H1988 C2001 0.930 . S
H1989 C2002 0.930 . S
H1990 C2006 0.959 . S
H1991 C2006 0.959 . S
H1992 C2006 0.961 . S
H1993 C2007 0.960 . S
H1994 C2007 0.961 . S
H1995 C2007 0.959 . S
H1996 C2010 0.929 . S
H1997 C2011 0.931 . S
H1998 C2013 0.930 . S
C1999 H1987 0.930 . S
C1999 C2000 1.399 . S
C1999 C2004 1.399 . S
C2000 C1999 1.399 . S
C2000 C2001 1.376 . S
C2001 H1988 0.930 . S
C2001 C2000 1.376 . S
C2001 C2002 1.388 . S
C2002 H1989 0.930 . S
C2002 C2001 1.388 . S
C2002 C2003 1.390 . S
C2003 C2002 1.390 . S
C2003 C2004 1.394 . S
C2003 C2009 1.465 . S
C2004 C1999 1.399 . S
C2004 C2003 1.394 . S
C2004 C2005 1.516 . S
C2005 C2004 1.516 . S
C2005 C2006 1.502 . S
C2005 C2007 1.561 . S
C2005 C2008 1.526 . S
C2006 H1990 0.959 . S
C2006 H1991 0.959 . S
C2006 H1992 0.961 . S
C2006 C2005 1.502 . S
C2007 H1993 0.960 . S
C2007 H1994 0.961 . S
C2007 H1995 0.959 . S
C2007 C2005 1.561 . S
C2008 C2005 1.526 . S
C2008 C2009 1.396 . S
C2008 C2013 1.390 . S
C2009 C2003 1.465 . S
C2009 C2008 1.396 . S
C2009 C2010 1.399 . S
C2010 H1996 0.929 . S
C2010 C2009 1.399 . S
C2010 C2011 1.385 . S
C2011 H1997 0.931 . S
C2011 C2010 1.385 . S
C2011 C2012 1.389 . S
C2012 C2011 1.389 . S
C2012 C2013 1.387 . S
C2013 H1998 0.930 . S
C2013 C2008 1.390 . S
C2013 C2012 1.387 . S
H2014 C2026 0.930 . S
H2015 C2028 0.930 . S
H2016 C2029 0.930 . S
H2017 C2033 0.959 . S
H2018 C2033 0.959 . S
H2019 C2033 0.961 . S
H2020 C2034 0.960 . S
H2021 C2034 0.961 . S
H2022 C2034 0.959 . S
H2023 C2037 0.929 . S
H2024 C2038 0.931 . S
H2025 C2040 0.930 . S
C2026 H2014 0.930 . S
C2026 C2027 1.399 . S
C2026 C2031 1.399 . S
C2027 C2026 1.399 . S
C2027 C2028 1.376 . S
C2028 H2015 0.930 . S
C2028 C2027 1.376 . S
C2028 C2029 1.388 . S
C2029 H2016 0.930 . S
C2029 C2028 1.388 . S
C2029 C2030 1.390 . S
C2030 C2029 1.390 . S
C2030 C2031 1.394 . S
C2030 C2036 1.465 . S
C2031 C2026 1.399 . S
C2031 C2030 1.394 . S
C2031 C2032 1.516 . S
C2032 C2031 1.516 . S
C2032 C2033 1.502 . S
C2032 C2034 1.561 . S
C2032 C2035 1.526 . S
C2033 H2017 0.959 . S
C2033 H2018 0.959 . S
C2033 H2019 0.961 . S
C2033 C2032 1.502 . S
C2034 H2020 0.960 . S
C2034 H2021 0.961 . S
C2034 H2022 0.959 . S
C2034 C2032 1.561 . S
C2035 C2032 1.526 . S
C2035 C2036 1.396 . S
C2035 C2040 1.390 . S
C2036 C2030 1.465 . S
C2036 C2035 1.396 . S
C2036 C2037 1.399 . S
C2037 H2023 0.929 . S
C2037 C2036 1.399 . S
C2037 C2038 1.385 . S
C2038 H2024 0.931 . S
C2038 C2037 1.385 . S
C2038 C2039 1.389 . S
C2039 C2038 1.389 . S
C2039 C2040 1.387 . S
C2040 H2025 0.930 . S
C2040 C2035 1.390 . S
C2040 C2039 1.387 . S
H2041 C2053 0.930 . S
H2042 C2055 0.930 1_545 S
H2043 C2056 0.930 . S
H2044 C2060 0.959 . S
H2045 C2060 0.959 . S
H2046 C2060 0.961 . S
H2047 C2061 0.960 . S
H2048 C2061 0.961 . S
H2049 C2061 0.959 . S
H2050 C2064 0.929 . S
H2051 C2065 0.931 . S
H2052 C2067 0.930 . S
C2053 H2041 0.930 . S
C2053 C2054 1.399 . S
C2053 C2058 1.399 . S
C2054 C2053 1.399 . S
C2054 C2055 1.376 . S
C2055 H2042 0.930 1_565 S
C2055 C2054 1.376 . S
C2055 C2056 1.388 . S
C2056 H2043 0.930 . S
C2056 C2055 1.388 . S
C2056 C2057 1.390 . S
C2057 C2056 1.390 . S
C2057 C2058 1.394 . S
C2057 C2063 1.465 . S
C2058 C2053 1.399 . S
C2058 C2057 1.394 . S
C2058 C2059 1.516 . S
C2059 C2058 1.516 . S
C2059 C2060 1.502 . S
C2059 C2061 1.561 . S
C2059 C2062 1.526 . S
C2060 H2044 0.959 . S
C2060 H2045 0.959 . S
C2060 H2046 0.961 . S
C2060 C2059 1.502 . S
C2061 H2047 0.960 . S
C2061 H2048 0.961 . S
C2061 H2049 0.959 . S
C2061 C2059 1.561 . S
C2062 C2059 1.526 . S
C2062 C2063 1.396 . S
C2062 C2067 1.390 . S
C2063 C2057 1.465 . S
C2063 C2062 1.396 . S
C2063 C2064 1.399 . S
C2064 H2050 0.929 . S
C2064 C2063 1.399 . S
C2064 C2065 1.385 . S
C2065 H2051 0.931 . S
C2065 C2064 1.385 . S
C2065 C2066 1.389 . S
C2066 C2065 1.389 . S
C2066 C2067 1.387 . S
C2067 H2052 0.930 . S
C2067 C2062 1.390 . S
C2067 C2066 1.387 . S
H2068 C2080 0.930 . S
H2069 C2082 0.930 . S
H2070 C2083 0.930 . S
H2071 C2087 0.959 . S
H2072 C2087 0.959 . S
H2073 C2087 0.961 . S
H2074 C2088 0.960 . S
H2075 C2088 0.961 . S
H2076 C2088 0.959 . S
H2077 C2091 0.929 . S
H2078 C2092 0.931 . S
H2079 C2094 0.930 . S
C2080 H2068 0.930 . S
C2080 C2081 1.399 . S
C2080 C2085 1.399 . S
C2081 C2080 1.399 . S
C2081 C2082 1.376 . S
C2082 H2069 0.930 . S
C2082 C2081 1.376 . S
C2082 C2083 1.388 . S
C2083 H2070 0.930 . S
C2083 C2082 1.388 . S
C2083 C2084 1.390 . S
C2084 C2083 1.390 . S
C2084 C2085 1.394 . S
C2084 C2090 1.465 . S
C2085 C2080 1.399 . S
C2085 C2084 1.394 . S
C2085 C2086 1.516 . S
C2086 C2085 1.516 . S
C2086 C2087 1.502 . S
C2086 C2088 1.561 . S
C2086 C2089 1.526 . S
C2087 H2071 0.959 . S
C2087 H2072 0.959 . S
C2087 H2073 0.961 . S
C2087 C2086 1.502 . S
C2088 H2074 0.960 . S
C2088 H2075 0.961 . S
C2088 H2076 0.959 . S
C2088 C2086 1.561 . S
C2089 C2086 1.526 . S
C2089 C2090 1.396 . S
C2089 C2094 1.390 . S
C2090 C2084 1.465 . S
C2090 C2089 1.396 . S
C2090 C2091 1.399 . S
C2091 H2077 0.929 . S
C2091 C2090 1.399 . S
C2091 C2092 1.385 1_545 S
C2092 H2078 0.931 . S
C2092 C2091 1.385 1_565 S
C2092 C2093 1.389 1_565 S
C2093 C2092 1.389 1_545 S
C2093 C2094 1.387 . S
C2094 H2079 0.930 . S
C2094 C2089 1.390 . S
C2094 C2093 1.387 . S
H2095 C2107 0.930 . S
H2096 C2109 0.930 . S
H2097 C2110 0.930 . S
H2098 C2114 0.959 . S
H2099 C2114 0.959 . S
H2100 C2114 0.961 . S
H2101 C2115 0.960 . S
H2102 C2115 0.961 . S
H2103 C2115 0.959 . S
H2104 C2118 0.929 . S
H2105 C2119 0.931 . S
H2106 C2121 0.930 . S
C2107 H2095 0.930 . S
C2107 C2108 1.399 . S
C2107 C2112 1.399 . S
C2108 C2107 1.399 . S
C2108 C2109 1.376 . S
C2109 H2096 0.930 . S
C2109 C2108 1.376 . S
C2109 C2110 1.388 . S
C2110 H2097 0.930 . S
C2110 C2109 1.388 . S
C2110 C2111 1.390 . S
C2111 C2110 1.390 . S
C2111 C2112 1.394 . S
C2111 C2117 1.465 . S
C2112 C2107 1.399 . S
C2112 C2111 1.394 . S
C2112 C2113 1.516 . S
C2113 C2112 1.516 . S
C2113 C2114 1.502 . S
C2113 C2115 1.561 . S
C2113 C2116 1.526 . S
C2114 H2098 0.959 . S
C2114 H2099 0.959 . S
C2114 H2100 0.961 . S
C2114 C2113 1.502 . S
C2115 H2101 0.960 . S
C2115 H2102 0.961 . S
C2115 H2103 0.959 . S
C2115 C2113 1.561 . S
C2116 C2113 1.526 . S
C2116 C2117 1.396 . S
C2116 C2121 1.390 . S
C2117 C2111 1.465 . S
C2117 C2116 1.396 . S
C2117 C2118 1.399 . S
C2118 H2104 0.929 . S
C2118 C2117 1.399 . S
C2118 C2119 1.385 . S
C2119 H2105 0.931 . S
C2119 C2118 1.385 . S
C2119 C2120 1.389 . S
C2120 C2119 1.389 . S
C2120 C2121 1.387 . S
C2121 H2106 0.930 . S
C2121 C2116 1.390 . S
C2121 C2120 1.387 . S
H2122 C2134 0.930 . S
H2123 C2136 0.930 . S
H2124 C2137 0.930 . S
H2125 C2141 0.959 . S
H2126 C2141 0.959 . S
H2127 C2141 0.961 . S
H2128 C2142 0.960 . S
H2129 C2142 0.961 . S
H2130 C2142 0.959 . S
H2131 C2145 0.929 . S
H2132 C2146 0.931 . S
H2133 C2148 0.930 . S
C2134 H2122 0.930 . S
C2134 C2135 1.399 . S
C2134 C2139 1.399 . S
C2135 C2134 1.399 . S
C2135 C2136 1.376 . S
C2136 H2123 0.930 . S
C2136 C2135 1.376 . S
C2136 C2137 1.388 . S
C2137 H2124 0.930 . S
C2137 C2136 1.388 . S
C2137 C2138 1.390 . S
C2138 C2137 1.390 . S
C2138 C2139 1.394 . S
C2138 C2144 1.465 . S
C2139 C2134 1.399 . S
C2139 C2138 1.394 . S
C2139 C2140 1.516 . S
C2140 C2139 1.516 . S
C2140 C2141 1.502 . S
C2140 C2142 1.561 . S
C2140 C2143 1.526 . S
C2141 H2125 0.959 . S
C2141 H2126 0.959 . S
C2141 H2127 0.961 . S
C2141 C2140 1.502 . S
C2142 H2128 0.960 . S
C2142 H2129 0.961 . S
C2142 H2130 0.959 . S
C2142 C2140 1.561 . S
C2143 C2140 1.526 . S
C2143 C2144 1.396 . S
C2143 C2148 1.390 . S
C2144 C2138 1.465 . S
C2144 C2143 1.396 . S
C2144 C2145 1.399 . S
C2145 H2131 0.929 . S
C2145 C2144 1.399 . S
C2145 C2146 1.385 . S
C2146 H2132 0.931 . S
C2146 C2145 1.385 . S
C2146 C2147 1.389 . S
C2147 C2146 1.389 . S
C2147 C2148 1.387 . S
C2148 H2133 0.930 . S
C2148 C2143 1.390 . S
C2148 C2147 1.387 . S
H2149 C2161 0.930 . S
H2150 C2163 0.930 . S
H2151 C2164 0.930 . S
H2152 C2168 0.959 . S
H2153 C2168 0.959 . S
H2154 C2168 0.961 . S
H2155 C2169 0.960 . S
H2156 C2169 0.961 . S
H2157 C2169 0.959 . S
H2158 C2172 0.929 . S
H2159 C2173 0.931 . S
H2160 C2175 0.930 . S
C2161 H2149 0.930 . S
C2161 C2162 1.399 . S
C2161 C2166 1.399 . S
C2162 C2161 1.399 . S
C2162 C2163 1.376 1_545 S
C2163 H2150 0.930 . S
C2163 C2162 1.376 1_565 S
C2163 C2164 1.388 1_565 S
C2164 H2151 0.930 . S
C2164 C2163 1.388 1_545 S
C2164 C2165 1.390 . S
C2165 C2164 1.390 . S
C2165 C2166 1.394 . S
C2165 C2171 1.465 . S
C2166 C2161 1.399 . S
C2166 C2165 1.394 . S
C2166 C2167 1.516 . S
C2167 C2166 1.516 . S
C2167 C2168 1.502 . S
C2167 C2169 1.561 . S
C2167 C2170 1.526 . S
C2168 H2152 0.959 . S
C2168 H2153 0.959 . S
C2168 H2154 0.961 . S
C2168 C2167 1.502 . S
C2169 H2155 0.960 . S
C2169 H2156 0.961 . S
C2169 H2157 0.959 . S
C2169 C2167 1.561 . S
C2170 C2167 1.526 . S
C2170 C2171 1.396 . S
C2170 C2175 1.390 . S
C2171 C2165 1.465 . S
C2171 C2170 1.396 . S
C2171 C2172 1.399 . S
C2172 H2158 0.929 . S
C2172 C2171 1.399 . S
C2172 C2173 1.385 . S
C2173 H2159 0.931 . S
C2173 C2172 1.385 . S
C2173 C2174 1.389 . S
C2174 C2173 1.389 . S
C2174 C2175 1.387 . S
C2175 H2160 0.930 . S
C2175 C2170 1.390 . S
C2175 C2174 1.387 . S
C461 C9 1.408 . S
C473 C23 1.418 . S
C488 C51 1.370 . S
C500 C37 1.364 . S
C515 C65 1.402 . S
C527 C79 1.397 . S
C542 C93 1.399 . S
C554 C107 1.393 . S
C569 C121 1.361 . S
C581 C135 1.365 . S
C596 C149 1.418 . S
C608 C163 1.423 . S
C623 C177 1.409 . S
C635 C191 1.404 . S
C650 C205 1.423 . S
C662 C219 1.420 . S
C677 C247 1.396 . S
C689 C233 1.408 . S
C704 C275 1.424 . S
C716 C261 1.423 . S
C731 C303 1.363 . S
C743 C289 1.362 . S
C758 C331 1.369 . S
C770 C317 1.366 . S
C785 C359 1.382 . S
C797 C345 1.371 . S
C812 C387 1.380 . S
C824 C373 1.393 . S
C839 C415 1.367 . S
C851 C401 1.365 . S
C866 C443 1.418 . S
C878 C429 1.421 . S
C893 C8 1.461 . S
C905 C176 1.485 . S
C920 C22 1.483 . S
C932 C302 1.465 . S
C947 C36 1.467 . S
C959 C92 1.480 . S
C974 C50 1.458 . S
C986 C442 1.487 . S
C1001 C64 1.457 . S
C1013 C120 1.489 . S
C1028 C246 1.445 . S
C1040 C78 1.496 . S
C1055 C386 1.458 . S
C1067 C106 1.488 . S
C1082 C134 1.460 . S
C1094 C414 1.486 . S
C1109 C148 1.470 . S
C1121 C204 1.462 . S
C1136 C162 1.492 . S
C1148 C330 1.445 . S
C1163 C190 1.492 . S
C1175 C358 1.453 . S
C1190 C218 1.493 . S
C1202 C274 1.444 . S
C1217 C400 1.496 . S
C1229 C232 1.444 . S
C1244 C316 1.494 . S
C1256 C260 1.444 . S
C1271 C288 1.443 . S
C1283 C344 1.495 . S
C1298 C428 1.483 . S
C1310 C372 1.464 . S
C1325 C147 0.806 . S
C1337 C7 0.842 . S
C1352 C161 0.789 . S
C1364 C21 0.838 1_565 S
C1379 C35 0.810 1_565 S
C1391 C119 0.842 . S
C1406 C133 0.802 . S
C1418 C49 0.750 . S
C1433 C63 0.745 . S
C1445 C203 0.819 . S
C1460 C77 0.744 1_545 S
C1472 C217 0.808 . S
C1487 C175 0.745 . S
C1499 C91 0.802 1_545 S
C1514 C189 0.822 . S
C1526 C105 0.747 . S
C1541 C231 0.820 . S
C1553 C371 0.762 . S
C1568 C385 0.799 . S
C1580 C245 0.841 1_565 S
C1595 C343 0.793 . S
C1607 C259 0.747 1_565 S
C1622 C273 0.808 . S
C1634 C357 0.842 . S
C1649 C427 0.842 . S
C1661 C287 0.770 . S
C1676 C301 0.755 1_545 S
C1688 C441 0.779 . S
C1703 C399 0.843 . S
C1715 C315 0.755 1_545 S
C1730 C413 0.843 . S
C1742 C329 0.788 . S
C1757 C143 1.592 . S
C1769 C3 1.590 1_565 S
C1784 C157 1.591 . S
C1796 C17 1.583 . S
C1811 C115 1.573 . S
C1823 C31 1.570 . S
C1838 C45 1.569 1_565 S
C1850 C129 1.576 . S
C1865 C199 1.575 . S
C1877 C59 1.572 1_545 S
C1892 C213 1.575 . S
C1904 C73 1.572 . S
C1919 C171 1.583 . S
C1931 C87 1.587 . S
C1946 C185 1.574 . S
C1958 C101 1.572 1_545 S
C1973 C367 1.592 . S
C1985 C227 1.583 1_565 S
C2000 C381 1.570 . S
C2012 C241 1.580 . S
C2027 C339 1.589 . S
C2039 C255 1.579 . S
C2054 C269 1.569 1_565 S
C2066 C353 1.574 . S
C2081 C423 1.574 . S
C2093 C283 1.571 1_545 S
C2108 C297 1.575 . S
C2120 C437 1.579 . S
C2135 C395 1.587 . S
C2147 C311 1.591 . S
C2162 C325 1.576 1_545 S
C2174 C409 1.580 . S
