# Generated by pormake.
# Topology unh, (4)-cn, num edge types: 1
# Building blocks:
#     Node 0, Type 0, BuildingBlock: CEKHIL_clean_sbu_0, # of connection points: 4
#     Node 1, Type 0, BuildingBlock: CEKHIL_clean_sbu_0, # of connection points: 4
#     Node 2, Type 0, BuildingBlock: CEKHIL_clean_sbu_0, # of connection points: 4
#     Node 3, Type 0, BuildingBlock: CEKHIL_clean_sbu_0, # of connection points: 4
#     Node 4, Type 0, BuildingBlock: CEKHIL_clean_sbu_0, # of connection points: 4
#     Node 5, Type 0, BuildingBlock: CEKHIL_clean_sbu_0, # of connection points: 4
#     Edge 6, Type (0, 0), BuildingBlock: MIFKUJ_clean_linker_0, # of connection points: 2
#     Edge 7, Type (0, 0), BuildingBlock: MIFKUJ_clean_linker_0, # of connection points: 2
#     Edge 8, Type (0, 0), BuildingBlock: MIFKUJ_clean_linker_0, # of connection points: 2
#     Edge 9, Type (0, 0), BuildingBlock: MIFKUJ_clean_linker_0, # of connection points: 2
#     Edge 10, Type (0, 0), BuildingBlock: MIFKUJ_clean_linker_0, # of connection points: 2
#     Edge 11, Type (0, 0), BuildingBlock: MIFKUJ_clean_linker_0, # of connection points: 2
#     Edge 12, Type (0, 0), BuildingBlock: MIFKUJ_clean_linker_0, # of connection points: 2
#     Edge 13, Type (0, 0), BuildingBlock: MIFKUJ_clean_linker_0, # of connection points: 2
#     Edge 14, Type (0, 0), BuildingBlock: MIFKUJ_clean_linker_0, # of connection points: 2
#     Edge 15, Type (0, 0), BuildingBlock: MIFKUJ_clean_linker_0, # of connection points: 2
#     Edge 16, Type (0, 0), BuildingBlock: MIFKUJ_clean_linker_0, # of connection points: 2
#     Edge 17, Type (0, 0), BuildingBlock: MIFKUJ_clean_linker_0, # of connection points: 2
# Relax obj value: 0.073
# Max RMSD: 0.184
# Mean RMSD: 0.184
data_MOF--net-unh--node1-CEKHIL_clean_sbu_0--edge1-MIFKUJ_clean_linker_0
_symmetry_space_group_name_H-M    P1
_symmetry_Int_Tables_number       1
_symmetry_cell_setting            triclinic
loop_
_symmetry_equiv_pos_as_xyz
'x, y, z'
_cell_length_a     54.372682
_cell_length_b     54.430746
_cell_length_c     28.797983
_cell_angle_alpha  90.040222
_cell_angle_beta   89.912584
_cell_angle_gamma 120.10563
loop_
_atom_site_label
_atom_site_type_symbol
_atom_site_fract_x
_atom_site_fract_y
_atom_site_fract_z
_atom_type_partial_charge
Co0 Co 0.1244 0.54177 0.09958 0.0
O1 O 0.0941 0.51582 0.13954 0.0
O2 O 0.10017 0.55716 0.11577 0.0
C3 C 0.15931 0.53978 0.13836 0.0
O4 O 0.15387 0.5747 0.06021 0.0
Co5 Co 0.15918 0.52134 0.04237 0.0
O6 O 0.1846 0.56245 0.03101 0.0
C7 C 0.10247 0.50801 0.00919 0.0
C8 C 0.08594 0.53449 0.14108 0.0
C9 C 0.17685 0.58068 0.0381 0.0
O10 O 0.10083 0.52289 0.04256 0.0
O11 O 0.12315 0.50321 0.00489 0.0
O12 O 0.1498 0.55603 0.15284 0.0
O13 O 0.14583 0.52334 0.10379 0.0
Co14 Co 0.58332 0.12731 0.26382 0.0
O15 O 0.5775 0.09789 0.30689 0.0
O16 O 0.54353 0.10543 0.28101 0.0
C17 C 0.62128 0.16277 0.29983 0.0
O18 O 0.58143 0.15618 0.22109 0.0
Co19 Co 0.63835 0.15768 0.20536 0.0
O20 O 0.62448 0.18408 0.18938 0.0
C21 C 0.59283 0.10098 0.17643 0.0
C22 C 0.55096 0.09104 0.30786 0.0
C23 C 0.59886 0.17783 0.19667 0.0
O24 O 0.57701 0.1013 0.2095 0.0
O25 O 0.61871 0.12061 0.17082 0.0
O26 O 0.59568 0.15493 0.31375 0.0
O27 O 0.62341 0.14721 0.26786 0.0
Co28 Co 0.44917 0.57975 0.43806 0.0
O29 O 0.47317 0.57525 0.48186 0.0
O30 O 0.43223 0.54013 0.45613 0.0
C31 C 0.45039 0.61746 0.47265 0.0
O32 O 0.41829 0.57689 0.39455 0.0
Co33 Co 0.47449 0.63419 0.37833 0.0
O34 O 0.43468 0.61859 0.35721 0.0
C35 C 0.48659 0.58922 0.35248 0.0
C36 C 0.45421 0.54849 0.48314 0.0
C37 C 0.41491 0.59344 0.36662 0.0
O38 O 0.46937 0.57344 0.38449 0.0
O39 O 0.49362 0.61526 0.34679 0.0
O40 O 0.4331 0.59185 0.48702 0.0
O41 O 0.46865 0.61986 0.44147 0.0
Co42 Co 0.86868 0.45295 0.59893 0.0
O43 O 0.8973 0.47742 0.64238 0.0
O44 O 0.89311 0.43763 0.6144 0.0
C45 C 0.8319 0.45225 0.63668 0.0
O46 O 0.84096 0.42165 0.55543 0.0
Co47 Co 0.83559 0.47536 0.54292 0.0
O48 O 0.81185 0.43518 0.5237 0.0
C49 C 0.89315 0.4903 0.51238 0.0
C50 C 0.90615 0.45931 0.64216 0.0
C51 C 0.8194 0.41675 0.53021 0.0
O52 O 0.89402 0.47451 0.54484 0.0
O53 O 0.87245 0.495 0.50762 0.0
O54 O 0.84143 0.43565 0.64914 0.0
O55 O 0.84653 0.47065 0.60484 0.0
Co56 Co 0.40874 0.86996 0.76205 0.0
O57 O 0.41224 0.89865 0.80478 0.0
O58 O 0.44829 0.89428 0.7794 0.0
C59 C 0.37182 0.83343 0.79862 0.0
O60 O 0.41301 0.84193 0.72016 0.0
Co61 Co 0.35431 0.83598 0.70351 0.0
O62 O 0.36953 0.81006 0.69425 0.0
C63 C 0.39806 0.89295 0.67192 0.0
C64 C 0.4392 0.90731 0.80625 0.0
C65 C 0.39579 0.81835 0.6998 0.0
O66 O 0.41355 0.89524 0.70726 0.0
O67 O 0.37339 0.87142 0.66482 0.0
O68 O 0.3977 0.8428 0.81256 0.0
O69 O 0.36869 0.84794 0.76591 0.0
Co70 Co 0.54085 0.41378 0.93501 0.0
O71 O 0.51477 0.41753 0.97547 0.0
O72 O 0.55557 0.45339 0.95067 0.0
C73 C 0.54035 0.37772 0.97447 0.0
O74 O 0.57385 0.41797 0.89499 0.0
Co75 Co 0.52222 0.35857 0.87925 0.0
O76 O 0.56377 0.3743 0.87274 0.0
C77 C 0.50706 0.40039 0.84459 0.0
C78 C 0.53302 0.44453 0.97653 0.0
C79 C 0.58108 0.40082 0.87703 0.0
O80 O 0.52079 0.41715 0.87848 0.0
O81 O 0.50407 0.37562 0.83992 0.0
O82 O 0.55639 0.40383 0.98777 0.0
O83 O 0.52334 0.37396 0.94035 0.0
H84 H 0.09901 0.47737 0.93123 0.0
H85 H 0.06559 0.46446 0.86685 0.0
H86 H 0.02323 0.50272 0.93777 0.0
H87 H 0.05625 0.51538 0.00266 0.0
H88 H 0.9853 0.45435 0.89751 0.0
H89 H 0.07132 0.53798 0.85207 0.0
H90 H 0.1228 0.56759 0.83756 0.0
H91 H 0.11827 0.50791 0.73549 0.0
H92 H 0.06677 0.47772 0.74988 0.0
H93 H 0.92692 0.49537 0.71541 0.0
H94 H 0.96035 0.49824 0.77443 0.0
H95 H 0.96948 0.43352 0.70348 0.0
H96 H 0.93519 0.42993 0.64421 0.0
H97 H 0.02378 0.48997 0.73991 0.0
H98 H 0.93437 0.40814 0.78487 0.0
H99 H 0.8827 0.38296 0.79944 0.0
H100 H 0.89412 0.44452 0.90315 0.0
H101 H 0.94585 0.47033 0.88867 0.0
C102 C 0.08242 0.48282 0.93348 0.0
C103 C 0.08051 0.49764 0.97216 0.0
C104 C 0.0634 0.47551 0.89645 0.0
C105 C 0.04218 0.48301 0.89712 0.0
C106 C 0.03949 0.49677 0.93641 0.0
C107 C 0.05846 0.50406 0.97351 0.0
C108 C 0.02333 0.47737 0.85638 0.0
C109 C 0.99378 0.46218 0.86313 0.0
C110 C 0.03432 0.48731 0.81127 0.0
C111 C 0.06526 0.50541 0.80248 0.0
C112 C 0.08135 0.53104 0.82683 0.0
C113 C 0.11052 0.54796 0.81858 0.0
C114 C 0.12383 0.53959 0.78575 0.0
C115 C 0.10795 0.51433 0.76099 0.0
C116 C 0.07876 0.49731 0.76917 0.0
C117 C 0.93617 0.48187 0.71193 0.0
C118 C 0.92836 0.46236 0.67514 0.0
C119 C 0.95524 0.48354 0.74579 0.0
C120 C 0.96722 0.46603 0.74331 0.0
C121 C 0.96038 0.44719 0.70583 0.0
C122 C 0.94081 0.44515 0.67215 0.0
C123 C 0.98597 0.46701 0.78131 0.0
C124 C 0.01544 0.48158 0.77414 0.0
C125 C 0.97498 0.45693 0.82618 0.0
C126 C 0.94394 0.44129 0.83537 0.0
C127 C 0.92583 0.41645 0.81049 0.0
C128 C 0.89655 0.40203 0.81879 0.0
C129 C 0.88513 0.41217 0.85212 0.0
C130 C 0.903 0.4367 0.87732 0.0
C131 C 0.9323 0.45121 0.86911 0.0
H132 H 0.86245 0.40099 0.85849 0.0
H133 H 0.14642 0.55271 0.77939 0.0
H134 H 0.49768 0.93854 0.80852 0.0
H135 H 0.52742 0.97289 0.86814 0.0
H136 H 0.45189 0.95779 0.9419 0.0
H137 H 0.42245 0.92499 0.88161 0.0
H138 H 0.48676 0.01025 0.94555 0.0
H139 H 0.49611 0.92727 0.97198 0.0
H140 H 0.50833 0.89081 0.95034 0.0
H141 H 0.59435 0.95585 0.92236 0.0
H142 H 0.58255 0.99271 0.94336 0.0
H143 H 0.5373 0.05805 0.17045 0.0
H144 H 0.51464 0.02529 0.10582 0.0
H145 H 0.5955 0.05985 0.03608 0.0
H146 H 0.61852 0.09264 0.10066 0.0
H147 H 0.56228 0.00106 0.02628 0.0
H148 H 0.55268 0.08347 0.00795 0.0
H149 H 0.53999 0.11882 0.03389 0.0
H150 H 0.45275 0.05323 0.04876 0.0
H151 H 0.46508 0.0173 0.02419 0.0
C152 C 0.48754 0.94283 0.8373 0.0
C153 C 0.45775 0.92912 0.84034 0.0
C154 C 0.50452 0.96227 0.8716 0.0
C155 C 0.49197 0.96767 0.91017 0.0
C156 C 0.46221 0.95417 0.91262 0.0
C157 C 0.44534 0.93533 0.87802 0.0
C158 C 0.50937 0.98715 0.94838 0.0
C159 C 0.50304 0.00794 0.9634 0.0
C160 C 0.53127 0.98487 0.97113 0.0
C161 C 0.53837 0.96273 0.95874 0.0
C162 C 0.51758 0.93378 0.96093 0.0
C163 C 0.52444 0.91305 0.94883 0.0
C164 C 0.55208 0.92101 0.93485 0.0
C165 C 0.57294 0.94972 0.93311 0.0
C166 C 0.56619 0.97053 0.94513 0.0
C167 C 0.55044 0.05847 0.14177 0.0
C168 C 0.57975 0.0783 0.14066 0.0
C169 C 0.53738 0.03974 0.10476 0.0
C170 C 0.55331 0.04049 0.06581 0.0
C171 C 0.5828 0.05902 0.06572 0.0
C172 C 0.59591 0.07782 0.10269 0.0
C173 C 0.53887 0.02327 0.02403 0.0
C174 C 0.54597 0.00323 0.00822 0.0
C175 C 0.51745 0.02599 0.00078 0.0
C176 C 0.50986 0.04765 0.01458 0.0
C177 C 0.53082 0.07654 0.01704 0.0
C178 C 0.52368 0.0967 0.03148 0.0
C179 C 0.49557 0.08831 0.0429 0.0
C180 C 0.47452 0.05971 0.0399 0.0
C181 C 0.48158 0.03943 0.02577 0.0
H182 H 0.49009 0.10397 0.05404 0.0
H183 H 0.55734 0.90493 0.92549 0.0
H184 H 0.46019 0.53351 0.32763 0.0
H185 H 0.47232 0.51217 0.26391 0.0
H186 H 0.54721 0.59291 0.23478 0.0
H187 H 0.53412 0.61482 0.2972 0.0
H188 H 0.52384 0.57137 0.15798 0.0
H189 H 0.5487 0.53307 0.28635 0.0
H190 H 0.54248 0.50909 0.36168 0.0
H191 H 0.47157 0.43317 0.30713 0.0
H192 H 0.47712 0.4568 0.23165 0.0
H193 H 0.5711 0.50018 -0.00197 0.0
H194 H 0.56733 0.52819 0.06159 0.0
H195 H 0.48361 0.45893 0.09444 0.0
H196 H 0.48725 0.43092 0.03154 0.0
H197 H 0.51805 0.47776 0.17046 0.0
H198 H 0.49291 0.51928 0.04289 0.0
H199 H 0.50139 0.54419 0.96794 0.0
H200 H 0.57707 0.6154 0.02255 0.0
H201 H 0.56923 0.59074 0.09766 0.0
C202 C 0.47952 0.54667 0.30821 0.0
C203 C 0.49629 0.57584 0.31769 0.0
C204 C 0.48654 0.53438 0.27175 0.0
C205 C 0.51104 0.55072 0.24481 0.0
C206 C 0.52822 0.57978 0.25497 0.0
C207 C 0.52081 0.59227 0.29082 0.0
C208 C 0.51767 0.53771 0.20461 0.0
C209 C 0.52313 0.55116 0.16105 0.0
C210 C 0.51651 0.51117 0.20811 0.0
C211 C 0.51323 0.4968 0.2534 0.0
C212 C 0.53168 0.51132 0.29049 0.0
C213 C 0.52828 0.49778 0.33321 0.0
C214 C 0.50661 0.46965 0.33921 0.0
C215 C 0.48834 0.45496 0.30244 0.0
C216 C 0.49163 0.46841 0.25966 0.0
C217 C 0.5517 0.49115 0.01828 0.0
C218 C 0.52952 0.46329 0.00985 0.0
C219 C 0.54959 0.50716 0.05462 0.0
C220 C 0.52522 0.49559 0.0829 0.0
C221 C 0.50268 0.46821 0.07329 0.0
C222 C 0.50476 0.45228 0.03713 0.0
C223 C 0.52348 0.51111 0.12407 0.0
C224 C 0.51907 0.49813 0.16776 0.0
C225 C 0.52604 0.53822 0.12079 0.0
C226 C 0.53065 0.55304 0.0757 0.0
C227 C 0.51149 0.54015 0.03878 0.0
C228 C 0.51615 0.55425 0.9963 0.0
C229 C 0.5398 0.58133 0.99044 0.0
C230 C 0.55879 0.59441 0.02711 0.0
C231 C 0.55423 0.58039 0.06964 0.0
H232 H 0.54337 0.5922 0.95753 0.0
H233 H 0.50401 0.45921 0.37232 0.0
H234 H 0.89806 0.52234 0.43557 0.0
H235 H 0.9314 0.53461 0.37106 0.0
H236 H 0.97226 0.49483 0.44161 0.0
H237 H 0.93934 0.48281 0.50663 0.0
H238 H 0.01091 0.54199 0.39881 0.0
H239 H 0.92283 0.45968 0.35927 0.0
H240 H 0.87097 0.4313 0.3482 0.0
H241 H 0.87554 0.48942 0.24318 0.0
H242 H 0.92743 0.51855 0.25439 0.0
H243 H 0.06289 0.49615 0.21118 0.0
H244 H 0.03024 0.49376 0.27161 0.0
H245 H 0.02547 0.56261 0.20689 0.0
H246 H 0.05899 0.56574 0.14644 0.0
H247 H 0.96914 0.50504 0.24345 0.0
H248 H 0.06072 0.58638 0.28524 0.0
H249 H 0.11255 0.6099 0.29717 0.0
H250 H 0.10054 0.54708 0.39872 0.0
H251 H 0.04863 0.52293 0.3868 0.0
C252 C 0.91438 0.51654 0.43781 0.0
C253 C 0.91576 0.5013 0.47626 0.0
C254 C 0.93336 0.52347 0.40071 0.0
C255 C 0.954 0.51519 0.40109 0.0
C256 C 0.95644 0.50135 0.44044 0.0
C257 C 0.93751 0.49444 0.47762 0.0
C258 C 0.97206 0.51954 0.35962 0.0
C259 C 0.00171 0.5339 0.36491 0.0
C260 C 0.96014 0.50905 0.3152 0.0
C261 C 0.92897 0.49151 0.30811 0.0
C262 C 0.91275 0.46656 0.33411 0.0
C263 C 0.88335 0.45032 0.32777 0.0
C264 C 0.86995 0.45858 0.29507 0.0
C265 C 0.88594 0.48308 0.26858 0.0
C266 C 0.91535 0.49949 0.27494 0.0
C267 C 0.05468 0.5106 0.20931 0.0
C268 C 0.06357 0.5312 0.17404 0.0
C269 C 0.03606 0.50921 0.24396 0.0
C270 C 0.02562 0.52807 0.2437 0.0
C271 C 0.03338 0.54788 0.20753 0.0
C272 C 0.0525 0.54965 0.17314 0.0
C273 C 0.00777 0.52768 0.28282 0.0
C274 C 0.97821 0.51371 0.27719 0.0
C275 C 0.01969 0.53802 0.32709 0.0
C276 C 0.05083 0.55271 0.33477 0.0
C277 C 0.06915 0.57744 0.30978 0.0
C278 C 0.09854 0.59092 0.31661 0.0
C279 C 0.10984 0.57995 0.34859 0.0
C280 C 0.09176 0.55553 0.37392 0.0
C281 C 0.06236 0.54196 0.36717 0.0
H282 H 0.1326 0.59041 0.35382 0.0
H283 H 0.84718 0.44596 0.29019 0.0
H284 H 0.49954 0.08273 0.33842 0.0
H285 H 0.47037 0.05142 0.40164 0.0
H286 H 0.52817 0.01923 0.41478 0.0
H287 H 0.55775 0.05102 0.35304 0.0
H288 H 0.44114 0.99741 0.41881 0.0
H289 H 0.53751 0.00769 0.52472 0.0
H290 H 0.58778 0.0435 0.53858 0.0
H291 H 0.5708 0.11011 0.50259 0.0
H292 H 0.52037 0.07476 0.48918 0.0
H293 H 0.39201 0.8854 0.57872 0.0
H294 H 0.41496 0.92096 0.51807 0.0
H295 H 0.45344 0.98653 0.62246 0.0
H296 H 0.43215 0.95035 0.68342 0.0
H297 H 0.49029 -0.00206 0.56412 0.0
H298 H 0.39468 0.97551 0.54546 0.0
H299 H 0.34277 0.94539 0.53635 0.0
H300 H 0.35491 0.91325 0.40736 0.0
H301 H 0.4069 0.94289 0.41597 0.0
C302 C 0.50581 0.06873 0.35451 0.0
C303 C 0.53106 0.06951 0.34112 0.0
C304 C 0.48915 0.05087 0.39067 0.0
C305 C 0.49741 0.03343 0.4138 0.0
C306 C 0.52175 0.03305 0.39845 0.0
C307 C 0.53855 0.05111 0.36289 0.0
C308 C 0.48121 0.01611 0.45468 0.0
C309 C 0.45182 0.99756 0.45068 0.0
C310 C 0.4949 0.01708 0.49703 0.0
C311 C 0.52519 0.03851 0.50556 0.0
C312 C 0.54447 0.02998 0.51998 0.0
C313 C 0.573 0.0502 0.52772 0.0
C314 C 0.58249 0.07905 0.52134 0.0
C315 C 0.56345 0.08775 0.50736 0.0
C316 C 0.5349 0.06762 0.49964 0.0
C317 C 0.40513 0.90746 0.58868 0.0
C318 C 0.41015 0.91518 0.63573 0.0
C319 C 0.41811 0.92789 0.5539 0.0
C320 C 0.43551 0.95674 0.56527 0.0
C321 C 0.44014 0.9645 0.61249 0.0
C322 C 0.42788 0.94388 0.64738 0.0
C323 C 0.45015 0.97839 0.52798 0.0
C324 C 0.47937 -0.00216 0.53258 0.0
C325 C 0.436 0.97908 0.48703 0.0
C326 C 0.40471 0.96131 0.48154 0.0
C327 C 0.38629 0.9619 0.51528 0.0
C328 C 0.35685 0.94492 0.51019 0.0
C329 C 0.34555 0.92738 0.47134 0.0
C330 C 0.36368 0.92684 0.43744 0.0
C331 C 0.39314 0.94376 0.44237 0.0
H332 H 0.32275 0.91425 0.46748 0.0
H333 H 0.60459 0.09467 0.52731 0.0
H334 H 0.49471 0.38168 0.75502 0.0
H335 H 0.48122 0.40229 0.69148 0.0
H336 H 0.48043 0.46337 0.7859 0.0
H337 H 0.49456 0.44326 0.84974 0.0
H338 H 0.43301 0.43753 0.71748 0.0
H339 H 0.53508 0.48729 0.73049 0.0
H340 H 0.58225 0.49138 0.73561 0.0
H341 H 0.56919 0.45042 0.60313 0.0
H342 H 0.52165 0.44564 0.59761 0.0
H343 H 0.49731 0.56251 0.54396 0.0
H344 H 0.50167 0.53265 0.60217 0.0
H345 H 0.42298 0.4609 0.55536 0.0
H346 H 0.41809 0.49118 0.49715 0.0
H347 H 0.5076 0.48825 0.59809 0.0
H348 H 0.39065 0.41719 0.6501 0.0
H349 H 0.34545 0.41758 0.64956 0.0
H350 H 0.39133 0.5086 0.65914 0.0
H351 H 0.43675 0.50869 0.66024 0.0
C352 C 0.49125 0.39922 0.76254 0.0
C353 C 0.49584 0.41092 0.80746 0.0
C354 C 0.48356 0.41096 0.72613 0.0
C355 C 0.47985 0.43431 0.73407 0.0
C356 C 0.48307 0.44523 0.77921 0.0
C357 C 0.49129 0.43384 0.81554 0.0
C358 C 0.47508 0.44883 0.69458 0.0
C359 C 0.44918 0.44847 0.69113 0.0
C360 C 0.49631 0.46329 0.66058 0.0
C361 C 0.52468 0.46576 0.66394 0.0
C362 C 0.54211 0.47882 0.70272 0.0
C363 C 0.56894 0.48134 0.70565 0.0
C364 C 0.57867 0.47111 0.66978 0.0
C365 C 0.56158 0.45828 0.63093 0.0
C366 C 0.53469 0.45566 0.62789 0.0
C367 C 0.48092 0.54035 0.54574 0.0
C368 C 0.45727 0.52925 0.51597 0.0
C369 C 0.48351 0.52325 0.57907 0.0
C370 C 0.46258 0.49455 0.58352 0.0
C371 C 0.43922 0.48309 0.55305 0.0
C372 C 0.43652 0.50035 0.51964 0.0
C373 C 0.46548 0.47724 0.62076 0.0
C374 C 0.49112 0.47695 0.62384 0.0
C375 C 0.44418 0.46269 0.65485 0.0
C376 C 0.41705 0.46293 0.65471 0.0
C377 C 0.39105 0.43726 0.6522 0.0
C378 C 0.36541 0.4374 0.65178 0.0
C379 C 0.36552 0.46311 0.65415 0.0
C380 C 0.39128 0.48871 0.65712 0.0
C381 C 0.41697 0.48868 0.65758 0.0
H382 H 0.34565 0.46317 0.65379 0.0
H383 H 0.59952 0.47328 0.67203 0.0
H384 H 0.16445 0.53298 0.22993 0.0
H385 H 0.20513 0.53539 0.27021 0.0
H386 H 0.24974 0.55138 0.13947 0.0
H387 H 0.20777 0.54611 0.09892 0.0
H388 H 0.26461 0.52304 0.18629 0.0
H389 H 0.25956 0.60596 0.22501 0.0
H390 H 0.23751 0.63318 0.25359 0.0
H391 H 0.22541 0.59442 0.38783 0.0
H392 H 0.24709 0.56671 0.35987 0.0
H393 H 0.4051 0.60908 0.28214 0.0
H394 H 0.35923 0.59364 0.24484 0.0
H395 H 0.31603 0.53973 0.36197 0.0
H396 H 0.36208 0.55452 0.3992 0.0
H397 H 0.29989 0.58442 0.32607 0.0
H398 H 0.31155 0.50485 0.28096 0.0
H399 H 0.33859 0.48394 0.24714 0.0
H400 H 0.34447 0.52534 0.11735 0.0
H401 H 0.31783 0.54686 0.15064 0.0
C402 C 0.18288 0.53664 0.20992 0.0
C403 C 0.18324 0.53958 0.16155 0.0
C404 C 0.20626 0.53832 0.23294 0.0
C405 C 0.23108 0.54458 0.20827 0.0
C406 C 0.23102 0.54669 0.15953 0.0
C407 C 0.20711 0.54381 0.1363 0.0
C408 C 0.25724 0.54963 0.23325 0.0
C409 C 0.27232 0.53667 0.2166 0.0
C410 C 0.26751 0.56726 0.27319 0.0
C411 C 0.25467 0.58406 0.2902 0.0
C412 C 0.25205 0.60313 0.26055 0.0
C413 C 0.23963 0.61865 0.27664 0.0
C414 C 0.22999 0.61546 0.32245 0.0
C415 C 0.23284 0.59683 0.35233 0.0
C416 C 0.24521 0.58123 0.33639 0.0
C417 C 0.38585 0.5938 0.29988 0.0
C418 C 0.38713 0.58304 0.34365 0.0
C419 C 0.35972 0.58494 0.27844 0.0
C420 C 0.33439 0.56555 0.30068 0.0
C421 C 0.33547 0.55466 0.3443 0.0
C422 C 0.36171 0.56305 0.3654 0.0
C423 C 0.30685 0.55787 0.27893 0.0
C424 C 0.29175 0.57055 0.29605 0.0
C425 C 0.29717 0.54086 0.23862 0.0
C426 C 0.31291 0.52766 0.21844 0.0
C427 C 0.31882 0.5097 0.24535 0.0
C428 C 0.33404 0.49769 0.22624 0.0
C429 C 0.34331 0.50336 0.18016 0.0
C430 C 0.3373 0.52099 0.15305 0.0
C431 C 0.32212 0.53306 0.17201 0.0
H432 H 0.35509 0.49405 0.16543 0.0
H433 H 0.22036 0.62748 0.33484 0.0
H434 H 0.67537 0.17264 0.31275 0.0
H435 H 0.7149 0.21403 0.35139 0.0
H436 H 0.6623 0.25206 0.36638 0.0
H437 H 0.6226 0.21049 0.32985 0.0
H438 H 0.73576 0.2813 0.32495 0.0
H439 H 0.65887 0.24708 0.45213 0.0
H440 H 0.62293 0.20636 0.49756 0.0
H441 H 0.685 0.18245 0.53126 0.0
H442 H 0.7211 0.22272 0.48503 0.0
H443 H 0.7821 0.40377 0.45874 0.0
H444 H 0.75509 0.3587 0.41833 0.0
H445 H 0.79226 0.32161 0.50558 0.0
H446 H 0.81976 0.36707 0.54655 0.0
H447 H 0.7334 0.28749 0.49683 0.0
H448 H 0.81339 0.33432 0.39761 0.0
H449 H 0.85041 0.37318 0.35067 0.0
H450 H 0.78634 0.37186 0.26205 0.0
H451 H 0.74887 0.33326 0.30885 0.0
C452 C 0.67241 0.18995 0.32414 0.0
C453 C 0.64597 0.18838 0.31883 0.0
C454 C 0.69488 0.21345 0.34619 0.0
C455 C 0.69122 0.23575 0.36229 0.0
C456 C 0.66527 0.23475 0.35496 0.0
C457 C 0.64269 0.21108 0.33404 0.0
C458 C 0.7141 0.26003 0.38771 0.0
C459 C 0.73539 0.28277 0.36249 0.0
C460 C 0.71396 0.26142 0.43664 0.0
C461 C 0.69246 0.23754 0.46469 0.0
C462 C 0.66472 0.23293 0.46883 0.0
C463 C 0.64435 0.20997 0.49473 0.0
C464 C 0.65164 0.19175 0.51713 0.0
C465 C 0.67935 0.1965 0.51374 0.0
C466 C 0.69974 0.21934 0.48761 0.0
C467 C 0.78464 0.38612 0.46952 0.0
C468 C 0.80311 0.38907 0.50603 0.0
C469 C 0.76929 0.36038 0.44607 0.0
C470 C 0.77191 0.33692 0.45858 0.0
C471 C 0.79009 0.33956 0.49525 0.0
C472 C 0.80579 0.36552 0.51854 0.0
C473 C 0.75467 0.30954 0.43401 0.0
C474 C 0.73432 0.28607 0.45935 0.0
C475 C 0.75586 0.30754 0.38507 0.0
C476 C 0.77829 0.33096 0.35695 0.0
C477 C 0.80716 0.34247 0.36836 0.0
C478 C 0.82823 0.36442 0.34171 0.0
C479 C 0.82072 0.37497 0.3034 0.0
C480 C 0.79212 0.36364 0.29171 0.0
C481 C 0.77095 0.34169 0.31825 0.0
H482 H 0.83707 0.39186 0.28267 0.0
H483 H 0.63586 0.174 0.53721 0.0
H484 H 0.4514 0.83098 0.68878 0.0
H485 H 0.46804 0.80076 0.65353 0.0
H486 H 0.38111 0.73485 0.63168 0.0
H487 H 0.36441 0.76441 0.66678 0.0
H488 H 0.41326 0.71408 0.66768 0.0
H489 H 0.42147 0.77961 0.54402 0.0
H490 H 0.44087 0.82748 0.5103 0.0
H491 H 0.52572 0.84199 0.52521 0.0
H492 H 0.50681 0.79431 0.55955 0.0
H493 H 0.40361 0.61773 0.50326 0.0
H494 H 0.40113 0.65591 0.54322 0.0
H495 H 0.49197 0.70993 0.52882 0.0
H496 H 0.4942 0.6719 0.48614 0.0
H497 H 0.46787 0.74084 0.52015 0.0
H498 H 0.46064 0.67385 0.63307 0.0
H499 H 0.44276 0.62655 0.66813 0.0
H500 H 0.35909 0.61573 0.67805 0.0
H501 H 0.37635 0.66278 0.64245 0.0
C502 C 0.43587 0.80998 0.67668 0.0
C503 C 0.40656 0.80022 0.68046 0.0
C504 C 0.44541 0.79281 0.65638 0.0
C505 C 0.42579 0.76562 0.63971 0.0
C506 C 0.39663 0.75573 0.64432 0.0
C507 C 0.38713 0.77279 0.66429 0.0
C508 C 0.43499 0.74708 0.61693 0.0
C509 C 0.42516 0.71988 0.63537 0.0
C510 C 0.45151 0.75508 0.57581 0.0
C511 C 0.46276 0.78357 0.55481 0.0
C512 C 0.44427 0.7931 0.5404 0.0
C513 C 0.45517 0.82017 0.52113 0.0
C514 C 0.48451 0.8378 0.51575 0.0
C515 C 0.503 0.82835 0.52948 0.0
C516 C 0.49221 0.8013 0.54882 0.0
C517 C 0.42301 0.63786 0.50818 0.0
C518 C 0.44913 0.64184 0.49214 0.0
C519 C 0.42164 0.65962 0.53136 0.0
C520 C 0.4465 0.68551 0.54059 0.0
C521 C 0.47253 0.69004 0.52263 0.0
C522 C 0.47381 0.66837 0.49825 0.0
C523 C 0.44498 0.70728 0.56982 0.0
C524 C 0.45641 0.7351 0.55285 0.0
C525 C 0.4302 0.70001 0.61278 0.0
C526 C 0.41979 0.67183 0.63488 0.0
C527 C 0.4384 0.66133 0.64254 0.0
C528 C 0.42837 0.63456 0.66251 0.0
C529 C 0.3998 0.61813 0.67525 0.0
C530 C 0.38121 0.62848 0.66817 0.0
C531 C 0.39112 0.65522 0.64817 0.0
H532 H 0.39208 0.5974 0.69067 0.0
H533 H 0.49291 0.85875 0.50084 0.0
H534 H 0.61571 0.45303 0.83791 0.0
H535 H 0.66137 0.46894 0.79831 0.0
H536 H 0.6571 0.3899 0.83349 0.0
H537 H 0.61144 0.3737 0.87205 0.0
H538 H 0.71176 0.43941 0.84735 0.0
H539 H 0.63712 0.3949 0.73233 0.0
H540 H 0.59624 0.38895 0.68645 0.0
H541 H 0.64633 0.47379 0.63365 0.0
H542 H 0.6874 0.48044 0.67997 0.0
H543 H 0.79646 0.41273 0.69866 0.0
H544 H 0.75683 0.41126 0.74058 0.0
H545 H 0.77119 0.48725 0.67003 0.0
H546 H 0.81088 0.48854 0.62692 0.0
H547 H 0.71513 0.44881 0.6757 0.0
H548 H 0.79214 0.4908 0.78234 0.0
H549 H 0.83324 0.49565 0.82624 0.0
H550 H 0.77951 0.41618 0.89456 0.0
H551 H 0.73813 0.41063 0.85058 0.0
C552 C 0.62476 0.43927 0.83771 0.0
C553 C 0.61002 0.41209 0.85787 0.0
C554 C 0.65072 0.44831 0.81495 0.0
C555 C 0.66248 0.43051 0.81286 0.0
C556 C 0.64838 0.40394 0.83477 0.0
C557 C 0.62226 0.39469 0.85662 0.0
C558 C 0.68878 0.43866 0.78612 0.0
C559 C 0.71256 0.44148 0.80983 0.0
C560 C 0.68999 0.4421 0.73732 0.0
C561 C 0.66519 0.43831 0.71014 0.0
C562 C 0.63931 0.41243 0.71143 0.0
C563 C 0.61613 0.40889 0.68524 0.0
C564 C 0.61867 0.43099 0.65723 0.0
C565 C 0.64439 0.4567 0.65542 0.0
C566 C 0.66761 0.46038 0.68168 0.0
C567 C 0.7912 0.42913 0.69187 0.0
C568 C 0.80693 0.45089 0.65974 0.0
C569 C 0.76861 0.42835 0.71611 0.0
C570 C 0.76143 0.44952 0.70928 0.0
C571 C 0.77653 0.47085 0.67615 0.0
C572 C 0.79916 0.47156 0.65157 0.0
C573 C 0.73799 0.44891 0.7368 0.0
C574 C 0.71471 0.44746 0.7133 0.0
C575 C 0.73727 0.44684 0.78589 0.0
C576 C 0.76204 0.45023 0.81293 0.0
C577 C 0.7891 0.47427 0.80653 0.0
C578 C 0.81245 0.47716 0.83145 0.0
C579 C 0.80899 0.45621 0.86312 0.0
C580 C 0.78215 0.43238 0.87002 0.0
C581 C 0.75873 0.42938 0.84515 0.0
H582 H 0.82711 0.45847 0.88234 0.0
H583 H 0.60073 0.42816 0.63681 0.0
H584 H 0.31563 0.81841 0.80212 0.0
H585 H 0.27674 0.7764 0.84051 0.0
H586 H 0.33526 0.748 0.87737 0.0
H587 H 0.37415 0.79011 0.84057 0.0
H588 H 0.27899 0.70546 0.83389 0.0
H589 H 0.32279 0.77684 0.95699 0.0
H590 H 0.33759 0.82373 0.99141 0.0
H591 H 0.25149 0.80663 0.98553 0.0
H592 H 0.23627 0.75976 0.9504 0.0
H593 H 0.23108 0.60409 0.00582 0.0
H594 H 0.25821 0.64807 0.96266 0.0
H595 H 0.18987 0.66605 0.97797 0.0
H596 H 0.16236 0.62175 0.02204 0.0
H597 H 0.2425 0.71428 0.98749 0.0
H598 H 0.19629 0.64093 0.87737 0.0
H599 H 0.17933 0.5941 0.84123 0.0
H600 H 0.26552 0.6145 0.81748 0.0
H601 H 0.28305 0.66132 0.85422 0.0
C602 C 0.32006 0.80308 0.81823 0.0
C603 C 0.34785 0.80749 0.81862 0.0
C604 C 0.29792 0.77921 0.84016 0.0
C605 C 0.30325 0.75924 0.86176 0.0
C606 C 0.33079 0.76322 0.86086 0.0
C607 C 0.35296 0.7873 0.83998 0.0
C608 C 0.2805 0.73432 0.88635 0.0
C609 C 0.27098 0.7073 0.86747 0.0
C610 C 0.26932 0.73693 0.92925 0.0
C611 C 0.27848 0.76501 0.95049 0.0
C612 C 0.30708 0.78321 0.96257 0.0
C613 C 0.31553 0.80975 0.98232 0.0
C614 C 0.29551 0.8182 0.99049 0.0
C615 C 0.26698 0.80008 0.97907 0.0
C616 C 0.25844 0.77354 0.95926 0.0
C617 C 0.22176 0.6174 0.00041 0.0
C618 C 0.19434 0.60916 0.01692 0.0
C619 C 0.23732 0.64255 0.97555 0.0
C620 C 0.22579 0.66 0.96613 0.0
C621 C 0.19905 0.65273 0.98453 0.0
C622 C 0.18339 0.62745 0.00975 0.0
C623 C 0.24172 0.68523 0.93582 0.0
C624 C 0.24996 0.71231 0.95349 0.0
C625 C 0.25135 0.6827 0.89128 0.0
C626 C 0.24099 0.65461 0.86884 0.0
C627 C 0.21165 0.63537 0.86475 0.0
C628 C 0.20192 0.60883 0.84411 0.0
C629 C 0.22132 0.60131 0.82711 0.0
C630 C 0.25051 0.62035 0.83067 0.0
C631 C 0.26036 0.64692 0.85135 0.0
H632 H 0.21375 0.58075 0.81113 0.0
H633 H 0.30209 0.83875 0.00579 0.0
H634 H 0.51089 0.32116 0.95201 0.0
H635 H 0.51379 0.28241 0.99022 0.0
H636 H 0.57664 0.34252 0.08487 0.0
H637 H 0.57364 0.38109 0.04738 0.0
H638 H 0.55744 0.2731 -0.00077 0.0
H639 H 0.5693 0.31264 0.19016 0.0
H640 H 0.55246 0.33828 0.23953 0.0
H641 H 0.47966 0.31121 0.15154 0.0
H642 H 0.49582 0.28507 0.10202 0.0
H643 H 0.62838 0.22304 0.1385 0.0
H644 H 0.61168 0.25187 0.10044 0.0
H645 H 0.52971 0.20245 0.16577 0.0
H646 H 0.54631 0.17336 0.20456 0.0
H647 H 0.54846 0.25909 0.17004 0.0
H648 H 0.53546 0.19222 0.05218 0.0
H649 H 0.5484 0.16401 0.00133 0.0
H650 H 0.61631 0.24049 0.94225 0.0
H651 H 0.6038 0.26921 0.99282 0.0
C652 C 0.52523 0.32604 0.98107 0.0
C653 C 0.54197 0.35413 0.9968 0.0
C654 C 0.52689 0.30392 0.00282 0.0
C655 C 0.54513 0.30952 0.04082 0.0
C656 C 0.562 0.3376 0.05622 0.0
C657 C 0.56039 0.35967 0.03454 0.0
C658 C 0.54743 0.28631 0.06361 0.0
C659 C 0.55529 0.26992 0.03653 0.0
C660 C 0.54401 0.2817 0.11218 0.0
C661 C 0.53391 0.29706 0.14217 0.0
C662 C 0.54962 0.31203 0.18148 0.0
C663 C 0.54021 0.32668 0.20946 0.0
C664 C 0.51505 0.32644 0.19861 0.0
C665 C 0.49919 0.31146 0.15982 0.0
C666 C 0.5085 0.29675 0.13174 0.0
C667 C 0.60678 0.2182 0.14496 0.0
C668 C 0.58868 0.19574 0.17457 0.0
C669 C 0.59721 0.23465 0.12289 0.0
C670 C 0.56932 0.22904 0.12972 0.0
C671 C 0.55128 0.20702 0.15985 0.0
C672 C 0.56082 0.19042 0.18192 0.0
C673 C 0.55945 0.24667 0.10581 0.0
C674 C 0.55025 0.26204 0.13268 0.0
C675 C 0.56114 0.25 0.05696 0.0
C676 C 0.5688 0.23286 0.02652 0.0
C677 C 0.55328 0.20303 0.02857 0.0
C678 C 0.56051 0.18694 -0.00024 0.0
C679 C 0.58325 0.20043 0.96875 0.0
C680 C 0.59872 0.23006 0.96633 0.0
C681 C 0.59151 0.24626 0.99495 0.0
H682 H 0.58882 0.18793 0.94651 0.0
H683 H 0.50781 0.33781 0.2203 0.0
loop_
_geom_bond_atom_site_label_1
_geom_bond_atom_site_label_2
_geom_bond_distance
_geom_bond_site_symmetry_2
_ccdc_geom_bond_type
Co0 O1 2.216 . S
Co0 O2 2.091 . S
Co0 O4 2.004 . S
Co0 O10 2.021 . S
Co0 O12 2.137 . S
Co0 O13 2.244 . S
O1 Co0 2.216 . S
O1 C8 1.247 . S
O2 Co0 2.091 . S
O2 C8 1.261 . S
C3 O12 1.247 . S
C3 O13 1.272 . S
O4 Co0 2.004 . S
O4 C9 1.259 . S
Co5 O6 2.061 . S
Co5 O11 2.053 . S
Co5 O13 2.135 . S
O6 Co5 2.061 . S
O6 C9 1.235 . S
C7 O10 1.238 . S
C7 O11 1.243 . S
C8 O1 1.247 . S
C8 O2 1.261 . S
C9 O4 1.259 . S
C9 O6 1.235 . S
O10 Co0 2.021 . S
O10 C7 1.238 . S
O11 Co5 2.053 . S
O11 C7 1.243 . S
O12 Co0 2.137 . S
O12 C3 1.247 . S
O13 Co0 2.244 . S
O13 C3 1.272 . S
O13 Co5 2.135 . S
Co14 O15 2.216 . S
Co14 O16 2.091 . S
Co14 O18 2.004 . S
Co14 O24 2.021 . S
Co14 O26 2.137 . S
Co14 O27 2.244 . S
O15 Co14 2.216 . S
O15 C22 1.247 . S
O16 Co14 2.091 . S
O16 C22 1.261 . S
C17 O26 1.247 . S
C17 O27 1.272 . S
O18 Co14 2.004 . S
O18 C23 1.259 . S
Co19 O20 2.061 . S
Co19 O25 2.052 . S
Co19 O27 2.135 . S
O20 Co19 2.061 . S
O20 C23 1.235 . S
C21 O24 1.238 . S
C21 O25 1.241 . S
C22 O15 1.247 . S
C22 O16 1.261 . S
C23 O18 1.259 . S
C23 O20 1.235 . S
O24 Co14 2.021 . S
O24 C21 1.238 . S
O25 Co19 2.052 . S
O25 C21 1.241 . S
O26 Co14 2.137 . S
O26 C17 1.247 . S
O27 Co14 2.244 . S
O27 C17 1.272 . S
O27 Co19 2.135 . S
Co28 O29 2.216 . S
Co28 O30 2.091 . S
Co28 O32 2.004 . S
Co28 O38 2.021 . S
Co28 O40 2.137 . S
Co28 O41 2.244 . S
O29 Co28 2.216 . S
O29 C36 1.247 . S
O30 Co28 2.091 . S
O30 C36 1.261 . S
C31 O40 1.247 . S
C31 O41 1.272 . S
O32 Co28 2.004 . S
O32 C37 1.259 . S
Co33 O34 2.061 . S
Co33 O39 2.052 . S
Co33 O41 2.135 . S
O34 Co33 2.061 . S
O34 C37 1.235 . S
C35 O38 1.238 . S
C35 O39 1.241 . S
C36 O29 1.247 . S
C36 O30 1.261 . S
C37 O32 1.259 . S
C37 O34 1.235 . S
O38 Co28 2.021 . S
O38 C35 1.238 . S
O39 Co33 2.052 . S
O39 C35 1.241 . S
O40 Co28 2.137 . S
O40 C31 1.247 . S
O41 Co28 2.244 . S
O41 C31 1.272 . S
O41 Co33 2.135 . S
Co42 O43 2.216 . S
Co42 O44 2.091 . S
Co42 O46 2.004 . S
Co42 O52 2.021 . S
Co42 O54 2.137 . S
Co42 O55 2.244 . S
O43 Co42 2.216 . S
O43 C50 1.247 . S
O44 Co42 2.091 . S
O44 C50 1.261 . S
C45 O54 1.247 . S
C45 O55 1.272 . S
O46 Co42 2.004 . S
O46 C51 1.259 . S
Co47 O48 2.061 . S
Co47 O53 2.052 . S
Co47 O55 2.135 . S
O48 Co47 2.061 . S
O48 C51 1.235 . S
C49 O52 1.238 . S
C49 O53 1.241 . S
C50 O43 1.247 . S
C50 O44 1.261 . S
C51 O46 1.259 . S
C51 O48 1.235 . S
O52 Co42 2.021 . S
O52 C49 1.238 . S
O53 Co47 2.052 . S
O53 C49 1.241 . S
O54 Co42 2.137 . S
O54 C45 1.247 . S
O55 Co42 2.244 . S
O55 C45 1.272 . S
O55 Co47 2.135 . S
Co56 O57 2.216 . S
Co56 O58 2.091 . S
Co56 O60 2.004 . S
Co56 O66 2.021 . S
Co56 O68 2.137 . S
Co56 O69 2.244 . S
O57 Co56 2.216 . S
O57 C64 1.247 . S
O58 Co56 2.091 . S
O58 C64 1.261 . S
C59 O68 1.247 . S
C59 O69 1.272 . S
O60 Co56 2.004 . S
O60 C65 1.259 . S
Co61 O62 2.061 . S
Co61 O67 2.052 . S
Co61 O69 2.135 . S
O62 Co61 2.061 . S
O62 C65 1.235 . S
C63 O66 1.238 . S
C63 O67 1.241 . S
C64 O57 1.247 . S
C64 O58 1.261 . S
C65 O60 1.259 . S
C65 O62 1.235 . S
O66 Co56 2.021 . S
O66 C63 1.238 . S
O67 Co61 2.052 . S
O67 C63 1.241 . S
O68 Co56 2.137 . S
O68 C59 1.247 . S
O69 Co56 2.244 . S
O69 C59 1.272 . S
O69 Co61 2.135 . S
Co70 O71 2.216 . S
Co70 O72 2.091 . S
Co70 O74 2.004 . S
Co70 O80 2.021 . S
Co70 O82 2.137 . S
Co70 O83 2.244 . S
O71 Co70 2.216 . S
O71 C78 1.247 . S
O72 Co70 2.091 . S
O72 C78 1.261 . S
C73 O82 1.247 . S
C73 O83 1.272 . S
O74 Co70 2.004 . S
O74 C79 1.259 . S
Co75 O76 2.061 . S
Co75 O81 2.052 . S
Co75 O83 2.135 . S
O76 Co75 2.061 . S
O76 C79 1.235 . S
C77 O80 1.238 . S
C77 O81 1.241 . S
C78 O71 1.247 . S
C78 O72 1.261 . S
C79 O74 1.259 . S
C79 O76 1.235 . S
O80 Co70 2.021 . S
O80 C77 1.238 . S
O81 Co75 2.052 . S
O81 C77 1.241 . S
O82 Co70 2.137 . S
O82 C73 1.247 . S
O83 Co70 2.244 . S
O83 C73 1.272 . S
O83 Co75 2.135 . S
H84 C102 0.951 . S
H85 C104 0.951 . S
H86 C106 0.950 . S
H87 C107 0.950 1_554 S
H88 C109 0.950 . S
H89 C112 0.950 . S
H90 C113 0.950 . S
H91 C115 0.950 . S
H92 C116 0.950 . S
H93 C117 0.951 . S
H94 C119 0.951 . S
H95 C121 0.950 . S
H96 C122 0.950 . S
H97 C124 0.950 . S
H98 C127 0.950 . S
H99 C128 0.950 . S
H100 C130 0.950 . S
H101 C131 0.950 . S
C102 H84 0.951 . S
C102 C103 1.366 . S
C102 C104 1.388 . S
C103 C102 1.366 . S
C103 C107 1.385 . S
C104 H85 0.951 . S
C104 C102 1.388 . S
C104 C105 1.366 . S
C105 C104 1.366 . S
C105 C106 1.414 . S
C105 C108 1.499 . S
C106 H86 0.950 . S
C106 C105 1.414 . S
C106 C107 1.374 . S
C107 H87 0.950 1_556 S
C107 C103 1.385 . S
C107 C106 1.374 . S
C108 C105 1.499 . S
C108 C109 1.373 1_455 S
C108 C110 1.389 . S
C109 H88 0.950 . S
C109 C108 1.373 1_655 S
C109 C125 1.377 . S
C110 C108 1.389 . S
C110 C111 1.524 . S
C110 C124 1.377 . S
C111 C110 1.524 . S
C111 C112 1.397 . S
C111 C116 1.363 . S
C112 H89 0.950 . S
C112 C111 1.397 . S
C112 C113 1.334 . S
C113 H90 0.950 . S
C113 C112 1.334 . S
C113 C114 1.287 . S
C114 C113 1.287 . S
C114 C115 1.524 . S
C114 H133 0.913 . S
C115 H91 0.950 . S
C115 C114 1.524 . S
C115 C116 1.415 . S
C116 H92 0.950 . S
C116 C111 1.363 . S
C116 C115 1.415 . S
C117 H93 0.951 . S
C117 C118 1.366 . S
C117 C119 1.388 . S
C118 C117 1.366 . S
C118 C122 1.385 . S
C119 H94 0.951 . S
C119 C117 1.388 . S
C119 C120 1.366 . S
C120 C119 1.366 . S
C120 C121 1.414 . S
C120 C123 1.499 . S
C121 H95 0.950 . S
C121 C120 1.414 . S
C121 C122 1.374 . S
C122 H96 0.950 . S
C122 C118 1.385 . S
C122 C121 1.374 . S
C123 C120 1.499 . S
C123 C124 1.373 1_655 S
C123 C125 1.389 . S
C124 H97 0.950 . S
C124 C110 1.377 . S
C124 C123 1.373 1_455 S
C125 C109 1.377 . S
C125 C123 1.389 . S
C125 C126 1.524 . S
C126 C125 1.524 . S
C126 C127 1.397 . S
C126 C131 1.363 . S
C127 H98 0.950 . S
C127 C126 1.397 . S
C127 C128 1.334 . S
C128 H99 0.950 . S
C128 C127 1.334 . S
C128 C129 1.287 . S
C129 C128 1.287 . S
C129 C130 1.524 . S
C129 H132 0.999 . S
C130 H100 0.950 . S
C130 C129 1.524 . S
C130 C131 1.415 . S
C131 H101 0.950 . S
C131 C126 1.363 . S
C131 C130 1.415 . S
H132 C129 0.999 . S
H133 C114 0.913 . S
H134 C152 0.951 . S
H135 C154 0.951 . S
H136 C156 0.950 . S
H137 C157 0.950 . S
H138 C159 0.950 . S
H139 C162 0.950 . S
H140 C163 0.950 . S
H141 C165 0.950 . S
H142 C166 0.950 . S
H143 C167 0.951 . S
H144 C169 0.951 . S
H145 C171 0.950 . S
H146 C172 0.950 . S
H147 C174 0.950 . S
H148 C177 0.950 . S
H149 C178 0.950 . S
H150 C180 0.950 . S
H151 C181 0.950 . S
C152 H134 0.951 . S
C152 C153 1.366 . S
C152 C154 1.388 . S
C153 C152 1.366 . S
C153 C157 1.385 . S
C154 H135 0.951 . S
C154 C152 1.388 . S
C154 C155 1.366 . S
C155 C154 1.366 . S
C155 C156 1.414 . S
C155 C158 1.499 . S
C156 H136 0.950 . S
C156 C155 1.414 . S
C156 C157 1.374 . S
C157 H137 0.950 . S
C157 C153 1.385 . S
C157 C156 1.374 . S
C158 C155 1.499 . S
C158 C159 1.373 . S
C158 C160 1.389 . S
C159 H138 0.950 . S
C159 C158 1.373 . S
C159 C175 1.377 1_566 S
C160 C158 1.389 . S
C160 C161 1.524 . S
C160 C174 1.377 1_566 S
C161 C160 1.524 . S
C161 C162 1.397 . S
C161 C166 1.363 1_565 S
C162 H139 0.950 . S
C162 C161 1.397 . S
C162 C163 1.334 . S
C163 H140 0.950 . S
C163 C162 1.334 . S
C163 C164 1.287 . S
C164 C163 1.287 . S
C164 C165 1.524 1_565 S
C164 H183 0.913 . S
C165 H141 0.950 . S
C165 C164 1.524 1_545 S
C165 C166 1.415 . S
C166 H142 0.950 . S
C166 C161 1.363 1_545 S
C166 C165 1.415 . S
C167 H143 0.951 . S
C167 C168 1.366 . S
C167 C169 1.388 . S
C168 C167 1.366 . S
C168 C172 1.385 . S
C169 H144 0.951 . S
C169 C167 1.388 . S
C169 C170 1.366 . S
C170 C169 1.366 . S
C170 C171 1.414 . S
C170 C173 1.499 . S
C171 H145 0.950 . S
C171 C170 1.414 . S
C171 C172 1.374 . S
C172 H146 0.950 . S
C172 C168 1.385 . S
C172 C171 1.374 . S
C173 C170 1.499 . S
C173 C174 1.373 . S
C173 C175 1.389 . S
C174 H147 0.950 . S
C174 C160 1.377 1_544 S
C174 C173 1.373 . S
C175 C159 1.377 1_544 S
C175 C173 1.389 . S
C175 C176 1.524 . S
C176 C175 1.524 . S
C176 C177 1.397 . S
C176 C181 1.363 1_545 S
C177 H148 0.950 . S
C177 C176 1.397 . S
C177 C178 1.334 . S
C178 H149 0.950 . S
C178 C177 1.334 . S
C178 C179 1.287 . S
C179 C178 1.287 . S
C179 C180 1.524 1_545 S
C179 H182 0.999 . S
C180 H150 0.950 . S
C180 C179 1.524 1_565 S
C180 C181 1.415 . S
C181 H151 0.950 . S
C181 C176 1.363 1_565 S
C181 C180 1.415 . S
H182 C179 0.999 . S
H183 C164 0.913 . S
H184 C202 0.951 . S
H185 C204 0.951 . S
H186 C206 0.950 . S
H187 C207 0.950 . S
H188 C209 0.950 . S
H189 C212 0.950 . S
H190 C213 0.950 . S
H191 C215 0.950 . S
H192 C216 0.950 . S
H193 C217 0.951 . S
H194 C219 0.951 . S
H195 C221 0.950 . S
H196 C222 0.950 . S
H197 C224 0.950 . S
H198 C227 0.950 . S
H199 C228 0.948 . S
H200 C230 0.950 . S
H201 C231 0.950 . S
C202 H184 0.951 . S
C202 C203 1.366 . S
C202 C204 1.388 . S
C203 C202 1.366 . S
C203 C207 1.385 . S
C204 H185 0.951 . S
C204 C202 1.388 . S
C204 C205 1.366 . S
C205 C204 1.366 . S
C205 C206 1.414 . S
C205 C208 1.499 . S
C206 H186 0.950 . S
C206 C205 1.414 . S
C206 C207 1.374 . S
C207 H187 0.950 . S
C207 C203 1.385 . S
C207 C206 1.374 . S
C208 C205 1.499 . S
C208 C209 1.373 . S
C208 C210 1.389 . S
C209 H188 0.950 . S
C209 C208 1.373 . S
C209 C225 1.377 . S
C210 C208 1.389 . S
C210 C211 1.524 . S
C210 C224 1.377 . S
C211 C210 1.524 . S
C211 C212 1.397 . S
C211 C216 1.363 . S
C212 H189 0.950 . S
C212 C211 1.397 . S
C212 C213 1.334 . S
C213 H190 0.950 . S
C213 C212 1.334 . S
C213 C214 1.287 . S
C214 C213 1.287 . S
C214 C215 1.524 . S
C214 H233 0.913 . S
C215 H191 0.950 . S
C215 C214 1.524 . S
C215 C216 1.415 . S
C216 H192 0.950 . S
C216 C211 1.363 . S
C216 C215 1.415 . S
C217 H193 0.951 . S
C217 C218 1.366 . S
C217 C219 1.388 . S
C218 C217 1.366 . S
C218 C222 1.385 . S
C219 H194 0.951 . S
C219 C217 1.388 . S
C219 C220 1.366 . S
C220 C219 1.366 . S
C220 C221 1.414 . S
C220 C223 1.499 . S
C221 H195 0.950 . S
C221 C220 1.414 . S
C221 C222 1.374 . S
C222 H196 0.950 . S
C222 C218 1.385 . S
C222 C221 1.374 . S
C223 C220 1.499 . S
C223 C224 1.373 . S
C223 C225 1.389 . S
C224 H197 0.950 . S
C224 C210 1.377 . S
C224 C223 1.373 . S
C225 C209 1.377 . S
C225 C223 1.389 . S
C225 C226 1.524 . S
C226 C225 1.524 . S
C226 C227 1.397 . S
C226 C231 1.363 . S
C227 H198 0.950 . S
C227 C226 1.397 . S
C227 C228 1.334 . S
C228 H199 0.948 . S
C228 C227 1.334 . S
C228 C229 1.287 . S
C229 C228 1.287 . S
C229 C230 1.524 . S
C229 H232 0.999 . S
C230 H200 0.950 . S
C230 C229 1.524 . S
C230 C231 1.415 . S
C231 H201 0.950 . S
C231 C226 1.363 . S
C231 C230 1.415 . S
H232 C229 0.999 . S
H233 C214 0.913 . S
H234 C252 0.951 . S
H235 C254 0.951 . S
H236 C256 0.950 . S
H237 C257 0.950 . S
H238 C259 0.950 . S
H239 C262 0.950 . S
H240 C263 0.950 . S
H241 C265 0.950 . S
H242 C266 0.950 . S
H243 C267 0.951 . S
H244 C269 0.951 . S
H245 C271 0.950 . S
H246 C272 0.950 . S
H247 C274 0.950 . S
H248 C277 0.950 . S
H249 C278 0.950 . S
H250 C280 0.950 . S
H251 C281 0.950 . S
C252 H234 0.951 . S
C252 C253 1.366 . S
C252 C254 1.388 . S
C253 C252 1.366 . S
C253 C257 1.385 . S
C254 H235 0.951 . S
C254 C252 1.388 . S
C254 C255 1.366 . S
C255 C254 1.366 . S
C255 C256 1.414 . S
C255 C258 1.499 . S
C256 H236 0.950 . S
C256 C255 1.414 . S
C256 C257 1.374 . S
C257 H237 0.950 . S
C257 C253 1.385 . S
C257 C256 1.374 . S
C258 C255 1.499 . S
C258 C259 1.373 1_655 S
C258 C260 1.389 . S
C259 H238 0.950 . S
C259 C258 1.373 1_455 S
C259 C275 1.377 . S
C260 C258 1.389 . S
C260 C261 1.524 . S
C260 C274 1.377 . S
C261 C260 1.524 . S
C261 C262 1.397 . S
C261 C266 1.363 . S
C262 H239 0.950 . S
C262 C261 1.397 . S
C262 C263 1.334 . S
C263 H240 0.950 . S
C263 C262 1.334 . S
C263 C264 1.287 . S
C264 C263 1.287 . S
C264 C265 1.524 . S
C264 H283 0.913 . S
C265 H241 0.950 . S
C265 C264 1.524 . S
C265 C266 1.415 . S
C266 H242 0.950 . S
C266 C261 1.363 . S
C266 C265 1.415 . S
C267 H243 0.951 . S
C267 C268 1.366 . S
C267 C269 1.388 . S
C268 C267 1.366 . S
C268 C272 1.385 . S
C269 H244 0.951 . S
C269 C267 1.388 . S
C269 C270 1.366 . S
C270 C269 1.366 . S
C270 C271 1.414 . S
C270 C273 1.499 . S
C271 H245 0.950 . S
C271 C270 1.414 . S
C271 C272 1.374 . S
C272 H246 0.950 . S
C272 C268 1.385 . S
C272 C271 1.374 . S
C273 C270 1.499 . S
C273 C274 1.373 1_455 S
C273 C275 1.389 . S
C274 H247 0.950 . S
C274 C260 1.377 . S
C274 C273 1.373 1_655 S
C275 C259 1.377 . S
C275 C273 1.389 . S
C275 C276 1.524 . S
C276 C275 1.524 . S
C276 C277 1.397 . S
C276 C281 1.363 . S
C277 H248 0.950 . S
C277 C276 1.397 . S
C277 C278 1.334 . S
C278 H249 0.950 . S
C278 C277 1.334 . S
C278 C279 1.287 . S
C279 C278 1.287 . S
C279 C280 1.524 . S
C279 H282 0.999 . S
C280 H250 0.950 . S
C280 C279 1.524 . S
C280 C281 1.415 . S
C281 H251 0.950 . S
C281 C276 1.363 . S
C281 C280 1.415 . S
H282 C279 0.999 . S
H283 C264 0.913 . S
H284 C302 0.951 . S
H285 C304 0.951 . S
H286 C306 0.950 . S
H287 C307 0.950 . S
H288 C309 0.950 . S
H289 C312 0.950 . S
H290 C313 0.950 . S
H291 C315 0.950 . S
H292 C316 0.950 . S
H293 C317 0.951 . S
H294 C319 0.951 . S
H295 C321 0.950 . S
H296 C322 0.950 . S
H297 C324 0.950 . S
H298 C327 0.950 . S
H299 C328 0.950 . S
H300 C330 0.950 . S
H301 C331 0.950 . S
C302 H284 0.951 . S
C302 C303 1.366 . S
C302 C304 1.388 . S
C303 C302 1.366 . S
C303 C307 1.385 . S
C304 H285 0.951 . S
C304 C302 1.388 . S
C304 C305 1.366 . S
C305 C304 1.366 . S
C305 C306 1.414 . S
C305 C308 1.499 . S
C306 H286 0.950 . S
C306 C305 1.414 . S
C306 C307 1.374 . S
C307 H287 0.950 . S
C307 C303 1.385 . S
C307 C306 1.374 . S
C308 C305 1.499 . S
C308 C309 1.373 1_545 S
C308 C310 1.389 . S
C309 H288 0.950 . S
C309 C308 1.373 1_565 S
C309 C325 1.377 . S
C310 C308 1.389 . S
C310 C311 1.524 . S
C310 C324 1.377 . S
C311 C310 1.524 . S
C311 C312 1.397 . S
C311 C316 1.363 . S
C312 H289 0.950 . S
C312 C311 1.397 . S
C312 C313 1.334 . S
C313 H290 0.950 . S
C313 C312 1.334 . S
C313 C314 1.287 . S
C314 C313 1.287 . S
C314 C315 1.524 . S
C314 H333 0.913 . S
C315 H291 0.950 . S
C315 C314 1.524 . S
C315 C316 1.415 . S
C316 H292 0.950 . S
C316 C311 1.363 . S
C316 C315 1.415 . S
C317 H293 0.951 . S
C317 C318 1.366 . S
C317 C319 1.388 . S
C318 C317 1.366 . S
C318 C322 1.385 . S
C319 H294 0.951 . S
C319 C317 1.388 . S
C319 C320 1.366 . S
C320 C319 1.366 . S
C320 C321 1.414 . S
C320 C323 1.499 . S
C321 H295 0.950 . S
C321 C320 1.414 . S
C321 C322 1.374 . S
C322 H296 0.950 . S
C322 C318 1.385 . S
C322 C321 1.374 . S
C323 C320 1.499 . S
C323 C324 1.373 1_565 S
C323 C325 1.389 . S
C324 H297 0.950 . S
C324 C310 1.377 . S
C324 C323 1.373 1_545 S
C325 C309 1.377 . S
C325 C323 1.389 . S
C325 C326 1.524 . S
C326 C325 1.524 . S
C326 C327 1.397 . S
C326 C331 1.363 . S
C327 H298 0.950 . S
C327 C326 1.397 . S
C327 C328 1.334 . S
C328 H299 0.950 . S
C328 C327 1.334 . S
C328 C329 1.287 . S
C329 C328 1.287 . S
C329 C330 1.524 . S
C329 H332 0.999 . S
C330 H300 0.950 . S
C330 C329 1.524 . S
C330 C331 1.415 . S
C331 H301 0.950 . S
C331 C326 1.363 . S
C331 C330 1.415 . S
H332 C329 0.999 . S
H333 C314 0.913 . S
H334 C352 0.951 . S
H335 C354 0.951 . S
H336 C356 0.950 . S
H337 C357 0.950 . S
H338 C359 0.950 . S
H339 C362 0.950 . S
H340 C363 0.950 . S
H341 C365 0.950 . S
H342 C366 0.950 . S
H343 C367 0.951 . S
H344 C369 0.951 . S
H345 C371 0.950 . S
H346 C372 0.950 . S
H347 C374 0.950 . S
H348 C377 0.950 . S
H349 C378 0.950 . S
H350 C380 0.950 . S
H351 C381 0.950 . S
C352 H334 0.951 . S
C352 C353 1.366 . S
C352 C354 1.388 . S
C353 C352 1.366 . S
C353 C357 1.385 . S
C354 H335 0.951 . S
C354 C352 1.388 . S
C354 C355 1.366 . S
C355 C354 1.366 . S
C355 C356 1.414 . S
C355 C358 1.499 . S
C356 H336 0.950 . S
C356 C355 1.414 . S
C356 C357 1.374 . S
C357 H337 0.950 . S
C357 C353 1.385 . S
C357 C356 1.374 . S
C358 C355 1.499 . S
C358 C359 1.373 . S
C358 C360 1.389 . S
C359 H338 0.950 . S
C359 C358 1.373 . S
C359 C375 1.377 . S
C360 C358 1.389 . S
C360 C361 1.524 . S
C360 C374 1.377 . S
C361 C360 1.524 . S
C361 C362 1.397 . S
C361 C366 1.363 . S
C362 H339 0.950 . S
C362 C361 1.397 . S
C362 C363 1.334 . S
C363 H340 0.950 . S
C363 C362 1.334 . S
C363 C364 1.287 . S
C364 C363 1.287 . S
C364 C365 1.524 . S
C364 H383 0.913 . S
C365 H341 0.950 . S
C365 C364 1.524 . S
C365 C366 1.415 . S
C366 H342 0.950 . S
C366 C361 1.363 . S
C366 C365 1.415 . S
C367 H343 0.951 . S
C367 C368 1.366 . S
C367 C369 1.388 . S
C368 C367 1.366 . S
C368 C372 1.385 . S
C369 H344 0.951 . S
C369 C367 1.388 . S
C369 C370 1.366 . S
C370 C369 1.366 . S
C370 C371 1.414 . S
C370 C373 1.499 . S
C371 H345 0.950 . S
C371 C370 1.414 . S
C371 C372 1.374 . S
C372 H346 0.950 . S
C372 C368 1.385 . S
C372 C371 1.374 . S
C373 C370 1.499 . S
C373 C374 1.373 . S
C373 C375 1.389 . S
C374 H347 0.950 . S
C374 C360 1.377 . S
C374 C373 1.373 . S
C375 C359 1.377 . S
C375 C373 1.389 . S
C375 C376 1.524 . S
C376 C375 1.524 . S
C376 C377 1.397 . S
C376 C381 1.363 . S
C377 H348 0.950 . S
C377 C376 1.397 . S
C377 C378 1.334 . S
C378 H349 0.950 . S
C378 C377 1.334 . S
C378 C379 1.287 . S
C379 C378 1.287 . S
C379 C380 1.524 . S
C379 H382 0.999 . S
C380 H350 0.950 . S
C380 C379 1.524 . S
C380 C381 1.415 . S
C381 H351 0.950 . S
C381 C376 1.363 . S
C381 C380 1.415 . S
H382 C379 0.999 . S
H383 C364 0.913 . S
H384 C402 0.951 . S
H385 C404 0.951 . S
H386 C406 0.950 . S
H387 C407 0.950 . S
H388 C409 0.950 . S
H389 C412 0.950 . S
H390 C413 0.950 . S
H391 C415 0.950 . S
H392 C416 0.950 . S
H393 C417 0.951 . S
H394 C419 0.951 . S
H395 C421 0.950 . S
H396 C422 0.950 . S
H397 C424 0.950 . S
H398 C427 0.950 . S
H399 C428 0.950 . S
H400 C430 0.950 . S
H401 C431 0.950 . S
C402 H384 0.951 . S
C402 C403 1.366 . S
C402 C404 1.388 . S
C403 C402 1.366 . S
C403 C407 1.385 . S
C404 H385 0.951 . S
C404 C402 1.388 . S
C404 C405 1.366 . S
C405 C404 1.366 . S
C405 C406 1.414 . S
C405 C408 1.499 . S
C406 H386 0.950 . S
C406 C405 1.414 . S
C406 C407 1.374 . S
C407 H387 0.950 . S
C407 C403 1.385 . S
C407 C406 1.374 . S
C408 C405 1.499 . S
C408 C409 1.373 . S
C408 C410 1.389 . S
C409 H388 0.950 . S
C409 C408 1.373 . S
C409 C425 1.377 . S
C410 C408 1.389 . S
C410 C411 1.524 . S
C410 C424 1.377 . S
C411 C410 1.524 . S
C411 C412 1.397 . S
C411 C416 1.363 . S
C412 H389 0.950 . S
C412 C411 1.397 . S
C412 C413 1.334 . S
C413 H390 0.950 . S
C413 C412 1.334 . S
C413 C414 1.287 . S
C414 C413 1.287 . S
C414 C415 1.524 . S
C414 H433 0.913 . S
C415 H391 0.950 . S
C415 C414 1.524 . S
C415 C416 1.415 . S
C416 H392 0.950 . S
C416 C411 1.363 . S
C416 C415 1.415 . S
C417 H393 0.951 . S
C417 C418 1.366 . S
C417 C419 1.388 . S
C418 C417 1.366 . S
C418 C422 1.385 . S
C419 H394 0.951 . S
C419 C417 1.388 . S
C419 C420 1.366 . S
C420 C419 1.366 . S
C420 C421 1.414 . S
C420 C423 1.499 . S
C421 H395 0.950 . S
C421 C420 1.414 . S
C421 C422 1.374 . S
C422 H396 0.950 . S
C422 C418 1.385 . S
C422 C421 1.374 . S
C423 C420 1.499 . S
C423 C424 1.373 . S
C423 C425 1.389 . S
C424 H397 0.950 . S
C424 C410 1.377 . S
C424 C423 1.373 . S
C425 C409 1.377 . S
C425 C423 1.389 . S
C425 C426 1.524 . S
C426 C425 1.524 . S
C426 C427 1.397 . S
C426 C431 1.363 . S
C427 H398 0.950 . S
C427 C426 1.397 . S
C427 C428 1.334 . S
C428 H399 0.950 . S
C428 C427 1.334 . S
C428 C429 1.287 . S
C429 C428 1.287 . S
C429 C430 1.524 . S
C429 H432 0.999 . S
C430 H400 0.950 . S
C430 C429 1.524 . S
C430 C431 1.415 . S
C431 H401 0.950 . S
C431 C426 1.363 . S
C431 C430 1.415 . S
H432 C429 0.999 . S
H433 C414 0.913 . S
H434 C452 0.951 . S
H435 C454 0.951 . S
H436 C456 0.950 . S
H437 C457 0.950 . S
H438 C459 0.950 . S
H439 C462 0.950 . S
H440 C463 0.950 . S
H441 C465 0.950 . S
H442 C466 0.950 . S
H443 C467 0.951 . S
H444 C469 0.951 . S
H445 C471 0.950 . S
H446 C472 0.950 . S
H447 C474 0.950 . S
H448 C477 0.950 . S
H449 C478 0.950 . S
H450 C480 0.950 . S
H451 C481 0.950 . S
C452 H434 0.951 . S
C452 C453 1.366 . S
C452 C454 1.388 . S
C453 C452 1.366 . S
C453 C457 1.385 . S
C454 H435 0.951 . S
C454 C452 1.388 . S
C454 C455 1.366 . S
C455 C454 1.366 . S
C455 C456 1.414 . S
C455 C458 1.499 . S
C456 H436 0.950 . S
C456 C455 1.414 . S
C456 C457 1.374 . S
C457 H437 0.950 . S
C457 C453 1.385 . S
C457 C456 1.374 . S
C458 C455 1.499 . S
C458 C459 1.373 . S
C458 C460 1.389 . S
C459 H438 0.950 . S
C459 C458 1.373 . S
C459 C475 1.377 . S
C460 C458 1.389 . S
C460 C461 1.524 . S
C460 C474 1.377 . S
C461 C460 1.524 . S
C461 C462 1.397 . S
C461 C466 1.363 . S
C462 H439 0.950 . S
C462 C461 1.397 . S
C462 C463 1.334 . S
C463 H440 0.950 . S
C463 C462 1.334 . S
C463 C464 1.287 . S
C464 C463 1.287 . S
C464 C465 1.524 . S
C464 H483 0.913 . S
C465 H441 0.950 . S
C465 C464 1.524 . S
C465 C466 1.415 . S
C466 H442 0.950 . S
C466 C461 1.363 . S
C466 C465 1.415 . S
C467 H443 0.951 . S
C467 C468 1.366 . S
C467 C469 1.388 . S
C468 C467 1.366 . S
C468 C472 1.385 . S
C469 H444 0.951 . S
C469 C467 1.388 . S
C469 C470 1.366 . S
C470 C469 1.366 . S
C470 C471 1.414 . S
C470 C473 1.499 . S
C471 H445 0.950 . S
C471 C470 1.414 . S
C471 C472 1.374 . S
C472 H446 0.950 . S
C472 C468 1.385 . S
C472 C471 1.374 . S
C473 C470 1.499 . S
C473 C474 1.373 . S
C473 C475 1.389 . S
C474 H447 0.950 . S
C474 C460 1.377 . S
C474 C473 1.373 . S
C475 C459 1.377 . S
C475 C473 1.389 . S
C475 C476 1.524 . S
C476 C475 1.524 . S
C476 C477 1.397 . S
C476 C481 1.363 . S
C477 H448 0.950 . S
C477 C476 1.397 . S
C477 C478 1.334 . S
C478 H449 0.950 . S
C478 C477 1.334 . S
C478 C479 1.287 . S
C479 C478 1.287 . S
C479 C480 1.524 . S
C479 H482 0.999 . S
C480 H450 0.950 . S
C480 C479 1.524 . S
C480 C481 1.415 . S
C481 H451 0.950 . S
C481 C476 1.363 . S
C481 C480 1.415 . S
H482 C479 0.999 . S
H483 C464 0.913 . S
H484 C502 0.951 . S
H485 C504 0.951 . S
H486 C506 0.950 . S
H487 C507 0.950 . S
H488 C509 0.950 . S
H489 C512 0.950 . S
H490 C513 0.950 . S
H491 C515 0.950 . S
H492 C516 0.950 . S
H493 C517 0.951 . S
H494 C519 0.951 . S
H495 C521 0.950 . S
H496 C522 0.950 . S
H497 C524 0.950 . S
H498 C527 0.950 . S
H499 C528 0.950 . S
H500 C530 0.950 . S
H501 C531 0.950 . S
C502 H484 0.951 . S
C502 C503 1.366 . S
C502 C504 1.388 . S
C503 C502 1.366 . S
C503 C507 1.385 . S
C504 H485 0.951 . S
C504 C502 1.388 . S
C504 C505 1.366 . S
C505 C504 1.366 . S
C505 C506 1.414 . S
C505 C508 1.499 . S
C506 H486 0.950 . S
C506 C505 1.414 . S
C506 C507 1.374 . S
C507 H487 0.950 . S
C507 C503 1.385 . S
C507 C506 1.374 . S
C508 C505 1.499 . S
C508 C509 1.373 . S
C508 C510 1.389 . S
C509 H488 0.950 . S
C509 C508 1.373 . S
C509 C525 1.377 . S
C510 C508 1.389 . S
C510 C511 1.524 . S
C510 C524 1.377 . S
C511 C510 1.524 . S
C511 C512 1.397 . S
C511 C516 1.363 . S
C512 H489 0.950 . S
C512 C511 1.397 . S
C512 C513 1.334 . S
C513 H490 0.950 . S
C513 C512 1.334 . S
C513 C514 1.287 . S
C514 C513 1.287 . S
C514 C515 1.524 . S
C514 H533 0.913 . S
C515 H491 0.950 . S
C515 C514 1.524 . S
C515 C516 1.415 . S
C516 H492 0.950 . S
C516 C511 1.363 . S
C516 C515 1.415 . S
C517 H493 0.951 . S
C517 C518 1.366 . S
C517 C519 1.388 . S
C518 C517 1.366 . S
C518 C522 1.385 . S
C519 H494 0.951 . S
C519 C517 1.388 . S
C519 C520 1.366 . S
C520 C519 1.366 . S
C520 C521 1.414 . S
C520 C523 1.499 . S
C521 H495 0.950 . S
C521 C520 1.414 . S
C521 C522 1.374 . S
C522 H496 0.950 . S
C522 C518 1.385 . S
C522 C521 1.374 . S
C523 C520 1.499 . S
C523 C524 1.373 . S
C523 C525 1.389 . S
C524 H497 0.950 . S
C524 C510 1.377 . S
C524 C523 1.373 . S
C525 C509 1.377 . S
C525 C523 1.389 . S
C525 C526 1.524 . S
C526 C525 1.524 . S
C526 C527 1.397 . S
C526 C531 1.363 . S
C527 H498 0.950 . S
C527 C526 1.397 . S
C527 C528 1.334 . S
C528 H499 0.950 . S
C528 C527 1.334 . S
C528 C529 1.287 . S
C529 C528 1.287 . S
C529 C530 1.524 . S
C529 H532 0.999 . S
C530 H500 0.950 . S
C530 C529 1.524 . S
C530 C531 1.415 . S
C531 H501 0.950 . S
C531 C526 1.363 . S
C531 C530 1.415 . S
H532 C529 0.999 . S
H533 C514 0.913 . S
H534 C552 0.951 . S
H535 C554 0.951 . S
H536 C556 0.950 . S
H537 C557 0.950 . S
H538 C559 0.950 . S
H539 C562 0.950 . S
H540 C563 0.950 . S
H541 C565 0.950 . S
H542 C566 0.950 . S
H543 C567 0.951 . S
H544 C569 0.951 . S
H545 C571 0.950 . S
H546 C572 0.950 . S
H547 C574 0.950 . S
H548 C577 0.950 . S
H549 C578 0.950 . S
H550 C580 0.950 . S
H551 C581 0.950 . S
C552 H534 0.951 . S
C552 C553 1.366 . S
C552 C554 1.388 . S
C553 C552 1.366 . S
C553 C557 1.385 . S
C554 H535 0.951 . S
C554 C552 1.388 . S
C554 C555 1.366 . S
C555 C554 1.366 . S
C555 C556 1.414 . S
C555 C558 1.499 . S
C556 H536 0.950 . S
C556 C555 1.414 . S
C556 C557 1.374 . S
C557 H537 0.950 . S
C557 C553 1.385 . S
C557 C556 1.374 . S
C558 C555 1.499 . S
C558 C559 1.373 . S
C558 C560 1.389 . S
C559 H538 0.950 . S
C559 C558 1.373 . S
C559 C575 1.377 . S
C560 C558 1.389 . S
C560 C561 1.524 . S
C560 C574 1.377 . S
C561 C560 1.524 . S
C561 C562 1.397 . S
C561 C566 1.363 . S
C562 H539 0.950 . S
C562 C561 1.397 . S
C562 C563 1.334 . S
C563 H540 0.950 . S
C563 C562 1.334 . S
C563 C564 1.287 . S
C564 C563 1.287 . S
C564 C565 1.524 . S
C564 H583 0.913 . S
C565 H541 0.950 . S
C565 C564 1.524 . S
C565 C566 1.415 . S
C566 H542 0.950 . S
C566 C561 1.363 . S
C566 C565 1.415 . S
C567 H543 0.951 . S
C567 C568 1.366 . S
C567 C569 1.388 . S
C568 C567 1.366 . S
C568 C572 1.385 . S
C569 H544 0.951 . S
C569 C567 1.388 . S
C569 C570 1.366 . S
C570 C569 1.366 . S
C570 C571 1.414 . S
C570 C573 1.499 . S
C571 H545 0.950 . S
C571 C570 1.414 . S
C571 C572 1.374 . S
C572 H546 0.950 . S
C572 C568 1.385 . S
C572 C571 1.374 . S
C573 C570 1.499 . S
C573 C574 1.373 . S
C573 C575 1.389 . S
C574 H547 0.950 . S
C574 C560 1.377 . S
C574 C573 1.373 . S
C575 C559 1.377 . S
C575 C573 1.389 . S
C575 C576 1.524 . S
C576 C575 1.524 . S
C576 C577 1.397 . S
C576 C581 1.363 . S
C577 H548 0.950 . S
C577 C576 1.397 . S
C577 C578 1.334 . S
C578 H549 0.950 . S
C578 C577 1.334 . S
C578 C579 1.287 . S
C579 C578 1.287 . S
C579 C580 1.524 . S
C579 H582 0.999 . S
C580 H550 0.950 . S
C580 C579 1.524 . S
C580 C581 1.415 . S
C581 H551 0.950 . S
C581 C576 1.363 . S
C581 C580 1.415 . S
H582 C579 0.999 . S
H583 C564 0.913 . S
H584 C602 0.951 . S
H585 C604 0.951 . S
H586 C606 0.950 . S
H587 C607 0.950 . S
H588 C609 0.950 . S
H589 C612 0.950 . S
H590 C613 0.950 . S
H591 C615 0.950 . S
H592 C616 0.950 . S
H593 C617 0.951 . S
H594 C619 0.951 . S
H595 C621 0.950 . S
H596 C622 0.950 . S
H597 C624 0.950 . S
H598 C627 0.950 . S
H599 C628 0.950 . S
H600 C630 0.950 . S
H601 C631 0.950 . S
C602 H584 0.951 . S
C602 C603 1.366 . S
C602 C604 1.388 . S
C603 C602 1.366 . S
C603 C607 1.385 . S
C604 H585 0.951 . S
C604 C602 1.388 . S
C604 C605 1.366 . S
C605 C604 1.366 . S
C605 C606 1.414 . S
C605 C608 1.499 . S
C606 H586 0.950 . S
C606 C605 1.414 . S
C606 C607 1.374 . S
C607 H587 0.950 . S
C607 C603 1.385 . S
C607 C606 1.374 . S
C608 C605 1.499 . S
C608 C609 1.373 . S
C608 C610 1.389 . S
C609 H588 0.950 . S
C609 C608 1.373 . S
C609 C625 1.377 . S
C610 C608 1.389 . S
C610 C611 1.524 . S
C610 C624 1.377 . S
C611 C610 1.524 . S
C611 C612 1.397 . S
C611 C616 1.363 . S
C612 H589 0.950 . S
C612 C611 1.397 . S
C612 C613 1.334 . S
C613 H590 0.950 . S
C613 C612 1.334 . S
C613 C614 1.287 . S
C614 C613 1.287 . S
C614 C615 1.524 . S
C614 H633 0.913 1_556 S
C615 H591 0.950 . S
C615 C614 1.524 . S
C615 C616 1.415 . S
C616 H592 0.950 . S
C616 C611 1.363 . S
C616 C615 1.415 . S
C617 H593 0.951 . S
C617 C618 1.366 . S
C617 C619 1.388 1_554 S
C618 C617 1.366 . S
C618 C622 1.385 . S
C619 H594 0.951 . S
C619 C617 1.388 1_556 S
C619 C620 1.366 . S
C620 C619 1.366 . S
C620 C621 1.414 . S
C620 C623 1.499 . S
C621 H595 0.950 . S
C621 C620 1.414 . S
C621 C622 1.374 1_556 S
C622 H596 0.950 . S
C622 C618 1.385 . S
C622 C621 1.374 1_554 S
C623 C620 1.499 . S
C623 C624 1.373 . S
C623 C625 1.389 . S
C624 H597 0.950 . S
C624 C610 1.377 . S
C624 C623 1.373 . S
C625 C609 1.377 . S
C625 C623 1.389 . S
C625 C626 1.524 . S
C626 C625 1.524 . S
C626 C627 1.397 . S
C626 C631 1.363 . S
C627 H598 0.950 . S
C627 C626 1.397 . S
C627 C628 1.334 . S
C628 H599 0.950 . S
C628 C627 1.334 . S
C628 C629 1.287 . S
C629 C628 1.287 . S
C629 C630 1.524 . S
C629 H632 0.999 . S
C630 H600 0.950 . S
C630 C629 1.524 . S
C630 C631 1.415 . S
C631 H601 0.950 . S
C631 C626 1.363 . S
C631 C630 1.415 . S
H632 C629 0.999 . S
H633 C614 0.913 1_554 S
H634 C652 0.951 . S
H635 C654 0.951 . S
H636 C656 0.950 . S
H637 C657 0.950 . S
H638 C659 0.950 . S
H639 C662 0.950 . S
H640 C663 0.950 . S
H641 C665 0.950 . S
H642 C666 0.950 . S
H643 C667 0.951 . S
H644 C669 0.951 . S
H645 C671 0.950 . S
H646 C672 0.950 . S
H647 C674 0.950 . S
H648 C677 0.950 . S
H649 C678 0.950 . S
H650 C680 0.950 . S
H651 C681 0.950 . S
C652 H634 0.951 . S
C652 C653 1.366 . S
C652 C654 1.388 1_556 S
C653 C652 1.366 . S
C653 C657 1.385 . S
C654 H635 0.951 . S
C654 C652 1.388 1_554 S
C654 C655 1.366 . S
C655 C654 1.366 . S
C655 C656 1.414 . S
C655 C658 1.499 . S
C656 H636 0.950 . S
C656 C655 1.414 . S
C656 C657 1.374 1_554 S
C657 H637 0.950 . S
C657 C653 1.385 . S
C657 C656 1.374 1_556 S
C658 C655 1.499 . S
C658 C659 1.373 . S
C658 C660 1.389 . S
C659 H638 0.950 . S
C659 C658 1.373 . S
C659 C675 1.377 . S
C660 C658 1.389 . S
C660 C661 1.524 . S
C660 C674 1.377 . S
C661 C660 1.524 . S
C661 C662 1.397 . S
C661 C666 1.363 . S
C662 H639 0.950 . S
C662 C661 1.397 . S
C662 C663 1.334 . S
C663 H640 0.950 . S
C663 C662 1.334 . S
C663 C664 1.287 . S
C664 C663 1.287 . S
C664 C665 1.524 . S
C664 H683 0.913 . S
C665 H641 0.950 . S
C665 C664 1.524 . S
C665 C666 1.415 . S
C666 H642 0.950 . S
C666 C661 1.363 . S
C666 C665 1.415 . S
C667 H643 0.951 . S
C667 C668 1.366 . S
C667 C669 1.388 . S
C668 C667 1.366 . S
C668 C672 1.385 . S
C669 H644 0.951 . S
C669 C667 1.388 . S
C669 C670 1.366 . S
C670 C669 1.366 . S
C670 C671 1.414 . S
C670 C673 1.499 . S
C671 H645 0.950 . S
C671 C670 1.414 . S
C671 C672 1.374 . S
C672 H646 0.950 . S
C672 C668 1.385 . S
C672 C671 1.374 . S
C673 C670 1.499 . S
C673 C674 1.373 . S
C673 C675 1.389 . S
C674 H647 0.950 . S
C674 C660 1.377 . S
C674 C673 1.373 . S
C675 C659 1.377 . S
C675 C673 1.389 . S
C675 C676 1.524 . S
C676 C675 1.524 . S
C676 C677 1.397 . S
C676 C681 1.363 . S
C677 H648 0.950 . S
C677 C676 1.397 . S
C677 C678 1.334 . S
C678 H649 0.950 . S
C678 C677 1.334 . S
C678 C679 1.287 1_554 S
C679 C678 1.287 1_556 S
C679 C680 1.524 . S
C679 H682 0.999 . S
C680 H650 0.950 . S
C680 C679 1.524 . S
C680 C681 1.415 1_556 S
C681 H651 0.950 . S
C681 C676 1.363 . S
C681 C680 1.415 1_554 S
H682 C679 0.999 . S
H683 C664 0.913 . S
C103 C7 1.248 1_556 S
C118 C50 1.260 . S
C153 C64 1.260 . S
C168 C21 1.248 . S
C203 C35 1.247 . S
C218 C78 1.260 1_554 S
C253 C49 1.248 . S
C268 C8 1.261 . S
C303 C22 1.261 . S
C318 C63 1.248 . S
C353 C77 1.248 . S
C368 C36 1.260 . S
C403 C3 1.153 . S
C418 C37 1.134 . S
C453 C17 1.153 . S
C468 C51 1.134 . S
C503 C65 1.134 . S
C518 C31 1.153 . S
C553 C79 1.135 . S
C568 C45 1.152 . S
C603 C59 1.152 . S
C618 C9 1.135 . S
C653 C73 1.153 . S
C668 C23 1.135 . S
