# Generated by pormake.
# Topology atn, (4)-cn, num edge types: 1
# Building blocks:
#     Node 0, Type 0, BuildingBlock: KUFVIS_clean_sbu_0, # of connection points: 4
#     Node 1, Type 0, BuildingBlock: KUFVIS_clean_sbu_0, # of connection points: 4
#     Node 2, Type 0, BuildingBlock: KUFVIS_clean_sbu_0, # of connection points: 4
#     Node 3, Type 0, BuildingBlock: KUFVIS_clean_sbu_0, # of connection points: 4
#     Node 4, Type 0, BuildingBlock: KUFVIS_clean_sbu_0, # of connection points: 4
#     Node 5, Type 0, BuildingBlock: KUFVIS_clean_sbu_0, # of connection points: 4
#     Node 6, Type 0, BuildingBlock: KUFVIS_clean_sbu_0, # of connection points: 4
#     Node 7, Type 0, BuildingBlock: KUFVIS_clean_sbu_0, # of connection points: 4
#     Node 8, Type 0, BuildingBlock: KUFVIS_clean_sbu_0, # of connection points: 4
#     Node 9, Type 0, BuildingBlock: KUFVIS_clean_sbu_0, # of connection points: 4
#     Node 10, Type 0, BuildingBlock: KUFVIS_clean_sbu_0, # of connection points: 4
#     Node 11, Type 0, BuildingBlock: KUFVIS_clean_sbu_0, # of connection points: 4
#     Node 12, Type 0, BuildingBlock: KUFVIS_clean_sbu_0, # of connection points: 4
#     Node 13, Type 0, BuildingBlock: KUFVIS_clean_sbu_0, # of connection points: 4
#     Node 14, Type 0, BuildingBlock: KUFVIS_clean_sbu_0, # of connection points: 4
#     Node 15, Type 0, BuildingBlock: KUFVIS_clean_sbu_0, # of connection points: 4
#     Edge 16, Type (0, 0), BuildingBlock: CIFDUS_clean_linker_0, # of connection points: 2
#     Edge 17, Type (0, 0), BuildingBlock: CIFDUS_clean_linker_0, # of connection points: 2
#     Edge 18, Type (0, 0), BuildingBlock: CIFDUS_clean_linker_0, # of connection points: 2
#     Edge 19, Type (0, 0), BuildingBlock: CIFDUS_clean_linker_0, # of connection points: 2
#     Edge 20, Type (0, 0), BuildingBlock: CIFDUS_clean_linker_0, # of connection points: 2
#     Edge 21, Type (0, 0), BuildingBlock: CIFDUS_clean_linker_0, # of connection points: 2
#     Edge 22, Type (0, 0), BuildingBlock: CIFDUS_clean_linker_0, # of connection points: 2
#     Edge 23, Type (0, 0), BuildingBlock: CIFDUS_clean_linker_0, # of connection points: 2
#     Edge 24, Type (0, 0), BuildingBlock: CIFDUS_clean_linker_0, # of connection points: 2
#     Edge 25, Type (0, 0), BuildingBlock: CIFDUS_clean_linker_0, # of connection points: 2
#     Edge 26, Type (0, 0), BuildingBlock: CIFDUS_clean_linker_0, # of connection points: 2
#     Edge 27, Type (0, 0), BuildingBlock: CIFDUS_clean_linker_0, # of connection points: 2
#     Edge 28, Type (0, 0), BuildingBlock: CIFDUS_clean_linker_0, # of connection points: 2
#     Edge 29, Type (0, 0), BuildingBlock: CIFDUS_clean_linker_0, # of connection points: 2
#     Edge 30, Type (0, 0), BuildingBlock: CIFDUS_clean_linker_0, # of connection points: 2
#     Edge 31, Type (0, 0), BuildingBlock: CIFDUS_clean_linker_0, # of connection points: 2
#     Edge 32, Type (0, 0), BuildingBlock: CIFDUS_clean_linker_0, # of connection points: 2
#     Edge 33, Type (0, 0), BuildingBlock: CIFDUS_clean_linker_0, # of connection points: 2
#     Edge 34, Type (0, 0), BuildingBlock: CIFDUS_clean_linker_0, # of connection points: 2
#     Edge 35, Type (0, 0), BuildingBlock: CIFDUS_clean_linker_0, # of connection points: 2
#     Edge 36, Type (0, 0), BuildingBlock: CIFDUS_clean_linker_0, # of connection points: 2
#     Edge 37, Type (0, 0), BuildingBlock: CIFDUS_clean_linker_0, # of connection points: 2
#     Edge 38, Type (0, 0), BuildingBlock: CIFDUS_clean_linker_0, # of connection points: 2
#     Edge 39, Type (0, 0), BuildingBlock: CIFDUS_clean_linker_0, # of connection points: 2
#     Edge 40, Type (0, 0), BuildingBlock: CIFDUS_clean_linker_0, # of connection points: 2
#     Edge 41, Type (0, 0), BuildingBlock: CIFDUS_clean_linker_0, # of connection points: 2
#     Edge 42, Type (0, 0), BuildingBlock: CIFDUS_clean_linker_0, # of connection points: 2
#     Edge 43, Type (0, 0), BuildingBlock: CIFDUS_clean_linker_0, # of connection points: 2
#     Edge 44, Type (0, 0), BuildingBlock: CIFDUS_clean_linker_0, # of connection points: 2
#     Edge 45, Type (0, 0), BuildingBlock: CIFDUS_clean_linker_0, # of connection points: 2
#     Edge 46, Type (0, 0), BuildingBlock: CIFDUS_clean_linker_0, # of connection points: 2
#     Edge 47, Type (0, 0), BuildingBlock: CIFDUS_clean_linker_0, # of connection points: 2
# Relax obj value: 0.056
# Max RMSD: 0.082
# Mean RMSD: 0.082
data_MOF--net-atn--node1-KUFVIS_clean_sbu_0--edge1-CIFDUS_clean_linker_0
_symmetry_space_group_name_H-M    P1
_symmetry_Int_Tables_number       1
_symmetry_cell_setting            triclinic
loop_
_symmetry_equiv_pos_as_xyz
'x, y, z'
_cell_length_a     53.029573
_cell_length_b     52.871883
_cell_length_c     23.238645
_cell_angle_alpha  89.957076
_cell_angle_beta   90.018564
_cell_angle_gamma 89.795956
loop_
_atom_site_label
_atom_site_type_symbol
_atom_site_fract_x
_atom_site_fract_y
_atom_site_fract_z
_atom_type_partial_charge
Mn0 Mn 0.21419 0.38201 0.01319 0.0
Mn1 Mn 0.15372 0.40057 0.00109 0.0
C2 C 0.18887 0.38236 0.09478 0.0
C3 C 0.24364 0.34895 0.0062 0.0
C4 C 0.19869 0.43606 0.99203 0.0
O5 O 0.20668 0.38049 0.92694 0.0
O6 O 0.16416 0.38406 0.92833 0.0
C7 C 0.12568 0.35253 0.98912 0.0
N8 N 0.12977 0.37466 0.0175 0.0
C9 C 0.09467 0.36711 0.08077 0.0
C10 C 0.09008 0.34423 0.0522 0.0
C11 C 0.10571 0.33687 0.00631 0.0
C12 C 0.11487 0.3819 0.06178 0.0
H13 H 0.13763 0.34686 0.95385 0.0
C14 C 0.18503 0.3791 0.90289 0.0
O15 O 0.25049 0.37241 0.00086 0.0
O16 O 0.21987 0.34487 0.01488 0.0
N17 N 0.14171 0.41643 0.06982 0.0
C18 C 0.14969 0.43823 0.0951 0.0
C19 C 0.1363 0.44808 0.1421 0.0
C20 C 0.11482 0.43549 0.16247 0.0
C21 C 0.10728 0.41278 0.13663 0.0
C22 C 0.12125 0.40399 0.0896 0.0
H23 H 0.1659 0.44826 0.07912 0.0
O24 O 0.21329 0.38261 0.09917 0.0
O25 O 0.18012 0.38199 0.04256 0.0
O26 O 0.21568 0.42088 0.01005 0.0
O27 O 0.17591 0.42948 0.98309 0.0
C28 C 0.08641 0.39856 0.15547 0.0
C29 C 0.08024 0.37564 0.12785 0.0
H30 H 0.07472 0.33208 0.06539 0.0
H31 H 0.10234 0.3192 0.98418 0.0
H32 H 0.14231 0.46553 0.16209 0.0
H33 H 0.10423 0.44362 0.19767 0.0
H34 H 0.07506 0.40494 0.19136 0.0
H35 H 0.06441 0.36468 0.14332 0.0
Mn36 Mn 0.63526 0.21602 0.00633 0.0
Mn37 Mn 0.62329 0.15321 0.00353 0.0
C38 C 0.64027 0.19186 0.08878 0.0
C39 C 0.6631 0.24988 0.99455 0.0
C40 C 0.58198 0.19309 0.00842 0.0
O41 O 0.6361 0.20814 0.9207 0.0
O42 O 0.62809 0.16627 0.92437 0.0
C43 C 0.67288 0.13581 0.95985 0.0
N44 N 0.65434 0.1348 0.00034 0.0
C45 C 0.67652 0.1024 0.05284 0.0
C46 C 0.69574 0.10295 0.01146 0.0
C47 C 0.69394 0.11979 0.96485 0.0
C48 C 0.65589 0.1187 0.04535 0.0
H49 H 0.67163 0.14875 0.92403 0.0
C50 C 0.63293 0.18666 0.89701 0.0
O51 O 0.63884 0.25312 0.99147 0.0
O52 O 0.67108 0.22702 0.00361 0.0
N53 N 0.61869 0.13765 0.07702 0.0
C54 C 0.59968 0.14103 0.11573 0.0
C55 C 0.59932 0.12638 0.16614 0.0
C56 C 0.61834 0.1083 0.17574 0.0
C57 C 0.6376 0.10509 0.13531 0.0
C58 C 0.63692 0.1201 0.08577 0.0
H59 H 0.58505 0.15491 0.10834 0.0
O60 O 0.63661 0.2161 0.0922 0.0
O61 O 0.64077 0.18236 0.03718 0.0
O62 O 0.59646 0.21238 0.00756 0.0
O63 O 0.59024 0.17036 0.00763 0.0
C64 C 0.65782 0.08807 0.14309 0.0
C65 C 0.6773 0.08676 0.1019 0.0
H66 H 0.7121 0.09074 0.01539 0.0
H67 H 0.70877 0.12045 0.93291 0.0
H68 H 0.58445 0.129 0.19746 0.0
H69 H 0.61824 0.09702 0.21434 0.0
H70 H 0.65882 0.07627 0.18116 0.0
H71 H 0.69299 0.07394 0.10884 0.0
Mn72 Mn 0.8059 0.63492 0.01877 0.0
Mn73 Mn 0.86919 0.63 0.01635 0.0
C74 C 0.82886 0.64155 0.10279 0.0
C75 C 0.77044 0.66108 0.0062 0.0
C76 C 0.83357 0.58466 0.00979 0.0
O77 O 0.81486 0.63677 0.9332 0.0
O78 O 0.85722 0.64095 0.93934 0.0
C79 C 0.88511 0.68302 0.9975 0.0
N80 N 0.88603 0.66139 0.02923 0.0
C81 C 0.91625 0.67955 0.0944 0.0
C82 C 0.91593 0.70188 0.06182 0.0
C83 C 0.90021 0.70366 0.01331 0.0
C84 C 0.90107 0.65948 0.07604 0.0
H85 H 0.8728 0.68456 0.96078 0.0
C86 C 0.83645 0.64147 0.91114 0.0
O87 O 0.76868 0.63661 0.00215 0.0
O88 O 0.79266 0.67007 0.01634 0.0
N89 N 0.88268 0.62001 0.08919 0.0
C90 C 0.87812 0.59859 0.12008 0.0
C91 C 0.89071 0.59472 0.17238 0.0
C92 C 0.90784 0.61287 0.19224 0.0
C93 C 0.9121 0.63486 0.16012 0.0
C94 C 0.89912 0.63763 0.1081 0.0
H95 H 0.86481 0.58467 0.1053 0.0
O96 O 0.80506 0.63599 0.10529 0.0
O97 O 0.83833 0.64294 0.05146 0.0
O98 O 0.81283 0.59632 0.01943 0.0
O99 O 0.85455 0.59618 0.00385 0.0
C100 C 0.92811 0.65446 0.17857 0.0
C101 C 0.93024 0.67678 0.14562 0.0
H102 H 0.9273 0.71795 0.07431 0.0
H103 H 0.8996 0.72094 0.98837 0.0
H104 H 0.88717 0.57784 0.19744 0.0
H105 H 0.91734 0.60989 0.23253 0.0
H106 H 0.9384 0.65281 0.2187 0.0
H107 H 0.94214 0.69197 0.1609 0.0
Mn108 Mn 0.38076 0.80794 0.01692 0.0
Mn109 Mn 0.39007 0.87113 0.01447 0.0
C110 C 0.37383 0.83176 0.09876 0.0
C111 C 0.35404 0.7732 0.00479 0.0
C112 C 0.43294 0.8333 0.02523 0.0
O113 O 0.38035 0.81555 0.93139 0.0
O114 O 0.38841 0.85735 0.9353 0.0
C115 C 0.34108 0.88551 0.96216 0.0
N116 N 0.35831 0.88791 0.0053 0.0
C117 C 0.33326 0.91997 0.05167 0.0
C118 C 0.31537 0.91801 0.00749 0.0
C119 C 0.31926 0.90063 0.96264 0.0
C120 C 0.35472 0.90451 0.04869 0.0
H121 H 0.34394 0.87219 0.92762 0.0
C122 C 0.38417 0.8369 0.90771 0.0
O123 O 0.37841 0.77061 0.00262 0.0
O124 O 0.34543 0.79588 0.01271 0.0
N125 N 0.3916 0.88764 0.08752 0.0
C126 C 0.40935 0.88542 0.12956 0.0
C127 C 0.40766 0.90078 0.17862 0.0
C128 C 0.38783 0.91833 0.18374 0.0
C129 C 0.36973 0.92018 0.1401 0.0
C130 C 0.37249 0.90454 0.09198 0.0
H131 H 0.42443 0.87178 0.12605 0.0
O132 O 0.37865 0.80774 0.10236 0.0
O133 O 0.37331 0.84137 0.04717 0.0
O134 O 0.41957 0.81327 0.02039 0.0
O135 O 0.42354 0.85559 0.02498 0.0
C136 C 0.34864 0.93641 0.14333 0.0
C137 C 0.33038 0.93627 0.09918 0.0
H138 H 0.29844 0.92954 0.00789 0.0
H139 H 0.30547 0.89889 0.92854 0.0
H140 H 0.42161 0.89902 0.2123 0.0
H141 H 0.38639 0.93014 0.22148 0.0
H142 H 0.34602 0.9487 0.18014 0.0
H143 H 0.31402 0.94848 0.10261 0.0
Mn144 Mn 0.21167 0.64065 0.99157 0.0
Mn145 Mn 0.15148 0.61974 0.99566 0.0
C146 C 0.18812 0.63851 0.90729 0.0
C147 C 0.24088 0.67361 0.99701 0.0
C148 C 0.19712 0.58493 0.00387 0.0
O149 O 0.20255 0.64461 0.07618 0.0
O150 O 0.16217 0.63175 0.07267 0.0
C151 C 0.12554 0.66814 0.02195 0.0
N152 N 0.12827 0.64731 0.988 0.0
C153 C 0.09303 0.65983 0.92909 0.0
C154 C 0.08977 0.68133 0.9636 0.0
C155 C 0.10616 0.68555 0.01008 0.0
C156 C 0.11272 0.64318 0.94292 0.0
H157 H 0.13806 0.67148 0.05776 0.0
C158 C 0.18108 0.64102 0.09955 0.0
O159 O 0.24753 0.65031 0.00644 0.0
O160 O 0.2173 0.6777 0.98532 0.0
N161 N 0.13814 0.6082 0.92388 0.0
C162 C 0.14442 0.5871 0.89351 0.0
C163 C 0.12968 0.57997 0.84611 0.0
C164 C 0.10866 0.59464 0.83038 0.0
C165 C 0.10281 0.61654 0.86156 0.0
C166 C 0.11787 0.62238 0.90916 0.0
H167 H 0.16022 0.57553 0.90605 0.0
O168 O 0.2126 0.63789 0.90595 0.0
O169 O 0.17806 0.63972 0.95826 0.0
O170 O 0.21398 0.60197 0.00015 0.0
O171 O 0.17349 0.58957 0.00289 0.0
C172 C 0.08252 0.63269 0.84757 0.0
C173 C 0.07776 0.65444 0.88104 0.0
H174 H 0.07485 0.69482 0.95456 0.0
H175 H 0.10384 0.70216 0.03677 0.0
H176 H 0.13437 0.56306 0.82211 0.0
H177 H 0.0971 0.58887 0.79432 0.0
H178 H 0.07058 0.62867 0.81089 0.0
H179 H 0.06233 0.66691 0.86938 0.0
Mn180 Mn 0.38078 0.20999 0.99386 0.0
Mn181 Mn 0.38626 0.1463 0.99832 0.0
C182 C 0.37609 0.18671 0.90993 0.0
C183 C 0.35469 0.24577 0.00217 0.0
C184 C 0.43096 0.18241 0.00798 0.0
O185 O 0.37667 0.20166 0.07895 0.0
O186 O 0.37507 0.15907 0.07397 0.0
C187 C 0.33311 0.13124 0.01679 0.0
N188 N 0.35496 0.12934 0.98632 0.0
C189 C 0.33749 0.09701 0.92554 0.0
C190 C 0.31494 0.0983 0.95692 0.0
C191 C 0.31269 0.11561 0.0025 0.0
C192 C 0.35723 0.11296 0.94198 0.0
H193 H 0.33121 0.14475 0.05127 0.0
C194 C 0.37274 0.17995 0.10129 0.0
O195 O 0.37896 0.24735 0.0093 0.0
O196 O 0.34578 0.22352 0.99123 0.0
N197 N 0.39652 0.13137 0.92715 0.0
C198 C 0.41864 0.13415 0.89812 0.0
C199 C 0.42361 0.11876 0.85022 0.0
C200 C 0.4058 0.10071 0.83276 0.0
C201 C 0.38295 0.09858 0.86253 0.0
C202 C 0.37925 0.11408 0.91055 0.0
H203 H 0.43255 0.14772 0.91192 0.0
O204 O 0.38194 0.21052 0.90795 0.0
O205 O 0.37356 0.17713 0.96108 0.0
O206 O 0.41915 0.20312 -0.0014 0.0
O207 O 0.41988 0.16105 0.01081 0.0
C208 C 0.36368 0.08175 0.84627 0.0
C209 C 0.3409 0.08106 0.87759 0.0
H210 H 0.29908 0.0864 0.94578 0.0
H211 H 0.29523 0.11696 0.02643 0.0
H212 H 0.44125 0.1206 0.82719 0.0
H213 H 0.40985 0.08851 0.79656 0.0
H214 H 0.36602 0.06956 0.8092 0.0
H215 H 0.326 0.06845 0.86395 0.0
Mn216 Mn 0.8082 0.37937 0.96907 0.0
Mn217 Mn 0.86943 0.39522 0.97245 0.0
C218 C 0.82988 0.38369 0.88205 0.0
C219 C 0.77786 0.3474 0.97425 0.0
C220 C 0.82659 0.43279 0.99381 0.0
O221 O 0.81847 0.37273 0.05262 0.0
O222 O 0.86036 0.3781 0.04588 0.0
C223 C 0.8933 0.3445 0.9739 0.0
N224 N 0.89087 0.3679 0.95001 0.0
C225 C 0.92536 0.36013 0.88513 0.0
C226 C 0.92825 0.3359 0.90891 0.0
C227 C 0.91202 0.32799 0.95321 0.0
C228 C 0.90598 0.37547 0.90653 0.0
H229 H 0.88111 0.33859 0.0086 0.0
C230 C 0.84065 0.37148 0.07386 0.0
O231 O 0.77226 0.3707 0.98685 0.0
O232 O 0.8009 0.34283 0.95883 0.0
N233 N 0.88136 0.41197 0.90497 0.0
C234 C 0.87553 0.43562 0.88566 0.0
C235 C 0.89071 0.44696 0.84361 0.0
C236 C 0.91179 0.43394 0.82216 0.0
C237 C 0.91682 0.40919 0.84085 0.0
C238 C 0.9012 0.39901 0.88337 0.0
H239 H 0.85988 0.44611 0.90336 0.0
O240 O 0.80545 0.3848 0.88442 0.0
O241 O 0.84106 0.37965 0.93128 0.0
O242 O 0.80826 0.41801 0.98233 0.0
O243 O 0.84948 0.42522 0.99509 0.0
C244 C 0.93704 0.39446 0.82003 0.0
C245 C 0.94101 0.36975 0.84132 0.0
H246 H 0.94286 0.32323 0.89356 0.0
H247 H 0.91414 0.30933 0.97179 0.0
H248 H 0.88655 0.46594 0.82882 0.0
H249 H 0.92398 0.44317 0.7913 0.0
H250 H 0.9496 0.40193 0.78753 0.0
H251 H 0.95635 0.35844 0.82427 0.0
Mn252 Mn 0.63661 0.80386 0.98586 0.0
Mn253 Mn 0.61924 0.86486 0.99603 0.0
C254 C 0.63689 0.82875 0.90302 0.0
C255 C 0.66908 0.77378 0.99381 0.0
C256 C 0.58289 0.82041 0.00638 0.0
O257 O 0.63845 0.81193 0.07186 0.0
O258 O 0.63592 0.8546 0.06878 0.0
C259 C 0.66745 0.8926 0.00632 0.0
N260 N 0.64519 0.88861 0.97862 0.0
C261 C 0.65244 0.92386 0.91518 0.0
C262 C 0.67549 0.9283 0.94295 0.0
C263 C 0.68306 0.91254 0.98857 0.0
C264 C 0.63776 0.90361 0.93453 0.0
H265 H 0.67329 0.88056 0.0414 0.0
C266 C 0.64054 0.83377 0.09501 0.0
O267 O 0.64558 0.76735 -0.00051 0.0
O268 O 0.67352 0.79749 0.98424 0.0
N269 N 0.60314 0.87688 0.92755 0.0
C270 C 0.58088 0.86941 0.90381 0.0
C271 C 0.5704 0.88343 0.85841 0.0
C272 C 0.58286 0.90499 0.83796 0.0
C273 C 0.60615 0.91189 0.86177 0.0
C274 C 0.61548 0.89741 0.90756 0.0
H275 H 0.57084 0.85323 0.92008 0.0
O276 O 0.63598 0.80424 0.89981 0.0
O277 O 0.63731 0.8379 0.95496 0.0
O278 O 0.59776 0.80298 0.98915 0.0
O279 O 0.59021 0.84307 0.01481 0.0
C280 C 0.62034 0.9327 0.84235 0.0
C281 C 0.64358 0.93854 0.86869 0.0
H282 H 0.68758 0.94367 0.92942 0.0
H283 H 0.70085 0.91581 0.01011 0.0
H284 H 0.55252 0.87788 0.83989 0.0
H285 H 0.57423 0.91619 0.80424 0.0
H286 H 0.61363 0.94424 0.80693 0.0
H287 H 0.65448 0.95437 0.85287 0.0
Mn288 Mn 0.71152 0.88278 0.51642 0.0
Mn289 Mn 0.64824 0.88731 0.51303 0.0
C290 C 0.68846 0.87663 0.60048 0.0
C291 C 0.74706 0.85657 0.50523 0.0
C292 C 0.68368 0.93272 0.50377 0.0
O293 O 0.70265 0.88022 0.43088 0.0
O294 O 0.66033 0.87552 0.43687 0.0
C295 C 0.63214 0.83417 0.49705 0.0
N296 N 0.63141 0.85607 0.52779 0.0
C297 C 0.60124 0.83863 0.59413 0.0
C298 C 0.60144 0.81599 0.56272 0.0
C299 C 0.61703 0.81373 0.5141 0.0
C300 C 0.61644 0.85847 0.57459 0.0
H301 H 0.64428 0.83229 0.46012 0.0
C302 C 0.68115 0.87507 0.40886 0.0
O303 O 0.74878 0.88101 0.50017 0.0
O304 O 0.72484 0.84764 0.51563 0.0
N305 N 0.63473 0.89813 0.58518 0.0
C306 C 0.63916 0.91998 0.6145 0.0
C307 C 0.62661 0.92443 0.66659 0.0
C308 C 0.60962 0.90642 0.68779 0.0
C309 C 0.60545 0.88402 0.65719 0.0
C310 C 0.61841 0.88067 0.60534 0.0
H311 H 0.65228 0.93385 0.59856 0.0
O312 O 0.71221 0.88236 0.603 0.0
O313 O 0.6791 0.87485 0.54909 0.0
O314 O 0.70444 0.92139 0.51513 0.0
O315 O 0.66284 0.92092 0.49828 0.0
C316 C 0.5895 0.8646 0.67691 0.0
C317 C 0.58734 0.84194 0.64528 0.0
H318 H 0.59006 0.80007 0.57615 0.0
H319 H 0.6175 0.79623 0.49 0.0
H320 H 0.63003 0.94166 0.69041 0.0
H321 H 0.60011 0.9099 0.72786 0.0
H322 H 0.57924 0.86668 0.71694 0.0
H323 H 0.57545 0.82692 0.66148 0.0
Mn324 Mn 0.13671 0.71139 0.5179 0.0
Mn325 Mn 0.12816 0.64806 0.51693 0.0
C326 C 0.14384 0.68785 0.60043 0.0
C327 C 0.16303 0.74657 0.50557 0.0
C328 C 0.08482 0.68538 0.52663 0.0
O329 O 0.13735 0.70339 0.43231 0.0
O330 O 0.1296 0.66156 0.43748 0.0
C331 C 0.17734 0.63419 0.46502 0.0
N332 N 0.16015 0.63172 0.50821 0.0
C333 C 0.18573 0.60031 0.55553 0.0
C334 C 0.20359 0.60235 0.51131 0.0
C335 C 0.1994 0.61944 0.46596 0.0
C336 C 0.16403 0.61541 0.5521 0.0
H337 H 0.17426 0.64729 0.43009 0.0
C338 C 0.13366 0.68187 0.40921 0.0
O339 O 0.13863 0.74878 0.50292 0.0
O340 O 0.1719 0.72401 0.51386 0.0
N341 N 0.12683 0.63179 0.59033 0.0
C342 C 0.10895 0.63378 0.63214 0.0
C343 C 0.11087 0.61866 0.68159 0.0
C344 C 0.13104 0.60153 0.68725 0.0
C345 C 0.14921 0.59983 0.64379 0.0
C346 C 0.14624 0.61526 0.59532 0.0
H347 H 0.0936 0.6471 0.62816 0.0
O348 O 0.13874 0.71183 0.60356 0.0
O349 O 0.14451 0.67815 0.54899 0.0
O350 O 0.09795 0.70555 0.52122 0.0
O351 O 0.0945 0.6632 0.52703 0.0
C352 C 0.17057 0.58398 0.64751 0.0
C353 C 0.18885 0.58426 0.60345 0.0
H354 H 0.2207 0.5911 0.51205 0.0
H355 H 0.21316 0.62124 0.43183 0.0
H356 H 0.09688 0.62031 0.71522 0.0
H357 H 0.13267 0.5899 0.72526 0.0
H358 H 0.17337 0.57188 0.68462 0.0
H359 H 0.20541 0.57233 0.60724 0.0
Mn360 Mn 0.30066 0.13586 0.52291 0.0
Mn361 Mn 0.36423 0.1318 0.51741 0.0
C362 C 0.32423 0.14291 0.60551 0.0
C363 C 0.26501 0.16182 0.51162 0.0
C364 C 0.32917 0.08589 0.51615 0.0
O365 O 0.30832 0.13734 0.43714 0.0
O366 O 0.35075 0.14073 0.44065 0.0
C367 C 0.37752 0.18501 0.49179 0.0
N368 N 0.3804 0.16387 0.52461 0.0
C369 C 0.41284 0.18364 0.58112 0.0
C370 C 0.4106 0.20544 0.54708 0.0
C371 C 0.39272 0.20619 0.50248 0.0
C372 C 0.39732 0.16305 0.56806 0.0
H373 H 0.36357 0.18573 0.45818 0.0
C374 C 0.3297 0.14128 0.41377 0.0
O375 O 0.26319 0.13734 0.50819 0.0
O376 O 0.2873 0.17082 0.52059 0.0
N377 N 0.37995 0.12376 0.58925 0.0
C378 C 0.37747 0.10263 0.62232 0.0
C379 C 0.39296 0.09951 0.67084 0.0
C380 C 0.41083 0.11811 0.68466 0.0
C381 C 0.41274 0.13985 0.65061 0.0
C382 C 0.39706 0.14177 0.60238 0.0
H383 H 0.3639 0.08823 0.6116 0.0
O384 O 0.30051 0.1371 0.60888 0.0
O385 O 0.33346 0.14446 0.55392 0.0
O386 O 0.30815 0.09738 0.52379 0.0
O387 O 0.35011 0.09753 0.51057 0.0
C388 C 0.42925 0.15992 0.6633 0.0
C389 C 0.42925 0.18184 0.62866 0.0
H390 H 0.42214 0.22189 0.55554 0.0
H391 H 0.39059 0.22308 0.47656 0.0
H392 H 0.39125 0.08273 0.6972 0.0
H393 H 0.42301 0.11563 0.72152 0.0
H394 H 0.44161 0.15892 0.70037 0.0
H395 H 0.44155 0.19741 0.63969 0.0
Mn396 Mn 0.88056 0.30289 0.50114 0.0
Mn397 Mn 0.89511 0.36498 0.50542 0.0
C398 C 0.88077 0.32416 0.5892 0.0
C399 C 0.85154 0.26981 0.4909 0.0
C400 C 0.93477 0.32381 0.49717 0.0
O401 O 0.87628 0.31348 0.41694 0.0
O402 O 0.88767 0.35426 0.42527 0.0
C403 C 0.84486 0.38507 0.47261 0.0
N404 N 0.8648 0.38454 0.50956 0.0
C405 C 0.84668 0.41772 0.56726 0.0
C406 C 0.82601 0.41873 0.52967 0.0
C407 C 0.82505 0.40225 0.4823 0.0
C408 C 0.8658 0.40015 0.55548 0.0
H409 H 0.84413 0.37253 0.436 0.0
C410 C 0.88053 0.33526 0.39549 0.0
O411 O 0.87542 0.26652 0.48118 0.0
O412 O 0.84443 0.29245 0.50529 0.0
N413 N 0.90278 0.37874 0.57906 0.0
C414 C 0.92296 0.37381 0.61357 0.0
C415 C 0.92649 0.3882 0.66345 0.0
C416 C 0.90931 0.40754 0.67698 0.0
C417 C 0.88851 0.41208 0.64132 0.0
C418 C 0.8861 0.39727 0.59191 0.0
H419 H 0.9361 0.35888 0.60334 0.0
O420 O 0.8833 0.29979 0.5865 0.0
O421 O 0.87779 0.3357 0.53986 0.0
O422 O 0.91948 0.30521 0.49414 0.0
O423 O 0.92747 0.34673 0.50233 0.0
C424 C 0.8699 0.43043 0.6533 0.0
C425 C 0.84894 0.43319 0.61636 0.0
H426 H 0.81069 0.43195 0.537 0.0
H427 H 0.80911 0.40285 0.45322 0.0
H428 H 0.94249 0.38448 0.69107 0.0
H429 H 0.91221 0.41879 0.71476 0.0
H430 H 0.87129 0.44216 0.69138 0.0
H431 H 0.8345 0.44702 0.62652 0.0
Mn432 Mn 0.70642 0.1395 0.4785 0.0
Mn433 Mn 0.64504 0.12294 0.48412 0.0
C434 C 0.68242 0.13944 0.39447 0.0
C435 C 0.73679 0.17156 0.48554 0.0
C436 C 0.68846 0.08492 0.49195 0.0
O437 O 0.69794 0.14292 0.56378 0.0
O438 O 0.65617 0.13574 0.5599 0.0
C439 C 0.62127 0.17287 0.50539 0.0
N440 N 0.62309 0.1513 0.47362 0.0
C441 C 0.58795 0.16376 0.41441 0.0
C442 C 0.5856 0.18604 0.44667 0.0
C443 C 0.60242 0.19067 0.49216 0.0
C444 C 0.60719 0.14679 0.42939 0.0
H445 H 0.63412 0.17647 0.54046 0.0
C446 C 0.67609 0.14246 0.58684 0.0
O447 O 0.74282 0.14792 0.4929 0.0
O448 O 0.71332 0.1764 0.47461 0.0
N449 N 0.63141 0.11067 0.41329 0.0
C450 C 0.63701 0.08889 0.38466 0.0
C451 C 0.6217 0.08127 0.33857 0.0
C452 C 0.60084 0.09612 0.32247 0.0
C453 C 0.59591 0.11882 0.35137 0.0
C454 C 0.6115 0.12519 0.39767 0.0
H455 H 0.65271 0.07716 0.39758 0.0
O456 O 0.70684 0.13774 0.3926 0.0
O457 O 0.67271 0.14077 0.44575 0.0
O458 O 0.70664 0.1004 0.48445 0.0
O459 O 0.66546 0.09204 0.49462 0.0
C460 C 0.57599 0.13527 0.33641 0.0
C461 C 0.57216 0.15785 0.36757 0.0
H462 H 0.57107 0.19981 0.43665 0.0
H463 H 0.60081 0.20788 0.51709 0.0
H464 H 0.62577 0.06384 0.31598 0.0
H465 H 0.58874 0.08995 0.28768 0.0
H466 H 0.56363 0.13083 0.30072 0.0
H467 H 0.55703 0.17053 0.35512 0.0
Mn468 Mn 0.88086 0.71365 0.48836 0.0
Mn469 Mn 0.8984 0.65267 0.49834 0.0
C470 C 0.88075 0.68888 0.40539 0.0
C471 C 0.84835 0.74372 0.49603 0.0
C472 C 0.93465 0.69719 0.50894 0.0
O473 O 0.87888 0.70542 0.57435 0.0
O474 O 0.88167 0.66279 0.57105 0.0
C475 C 0.85018 0.62491 0.50823 0.0
N476 N 0.87249 0.62891 0.48074 0.0
C477 C 0.86535 0.59368 0.41731 0.0
C478 C 0.84226 0.58922 0.44486 0.0
C479 C 0.83461 0.60497 0.49036 0.0
C480 C 0.87997 0.61395 0.43671 0.0
H481 H 0.84428 0.63696 0.54319 0.0
C482 C 0.87688 0.68353 0.59737 0.0
O483 O 0.87183 0.75014 0.50201 0.0
O484 O 0.84392 0.72001 0.4864 0.0
N485 N 0.91457 0.64072 0.42994 0.0
C486 C 0.93691 0.64816 0.40651 0.0
C487 C 0.94752 0.63408 0.36143 0.0
C488 C 0.93512 0.61249 0.34101 0.0
C489 C 0.91176 0.60564 0.36445 0.0
C490 C 0.9023 0.62017 0.40994 0.0
H491 H 0.94691 0.66434 0.42282 0.0
O492 O 0.88162 0.71339 0.40231 0.0
O493 O 0.88028 0.67965 0.45728 0.0
O494 O 0.91969 0.7146 0.49193 0.0
O495 O 0.92741 0.67448 0.51727 0.0
C496 C 0.89763 0.5848 0.34499 0.0
C497 C 0.87432 0.57898 0.37102 0.0
H498 H 0.83021 0.57384 0.43128 0.0
H499 H 0.81679 0.60169 0.51173 0.0
H500 H 0.96545 0.6396 0.34316 0.0
H501 H 0.94383 0.60126 0.30747 0.0
H502 H 0.90443 0.57324 0.30976 0.0
H503 H 0.86346 0.56313 0.35516 0.0
Mn504 Mn 0.30569 0.87947 0.49047 0.0
Mn505 Mn 0.36708 0.8963 0.49316 0.0
C506 C 0.32893 0.88001 0.40553 0.0
C507 C 0.27554 0.84725 0.49775 0.0
C508 C 0.32364 0.93403 0.50392 0.0
O509 O 0.3151 0.87557 0.57527 0.0
O510 O 0.3567 0.88347 0.56922 0.0
C511 C 0.39138 0.84655 0.51357 0.0
N512 N 0.38899 0.86801 0.48151 0.0
C513 C 0.42329 0.85551 0.41993 0.0
C514 C 0.42615 0.83329 0.4523 0.0
C515 C 0.41005 0.82875 0.49918 0.0
C516 C 0.40427 0.87249 0.43614 0.0
H517 H 0.37914 0.84306 0.54983 0.0
C518 C 0.33719 0.87641 0.59719 0.0
O519 O 0.26942 0.87078 0.50625 0.0
O520 O 0.29895 0.84265 0.48582 0.0
N521 N 0.3799 0.90865 0.42166 0.0
C522 C 0.37395 0.93047 0.39347 0.0
C523 C 0.38849 0.93799 0.34605 0.0
C524 C 0.40897 0.92302 0.3282 0.0
C525 C 0.41438 0.90036 0.357 0.0
C526 C 0.39953 0.89409 0.40462 0.0
H527 H 0.35854 0.9423 0.40773 0.0
O528 O 0.3045 0.88166 0.40453 0.0
O529 O 0.33905 0.87851 0.45633 0.0
O530 O 0.3054 0.91853 0.49731 0.0
O531 O 0.34668 0.927 0.50484 0.0
C532 C 0.43406 0.88388 0.34071 0.0
C533 C 0.43837 0.86135 0.37183 0.0
H534 H 0.44054 0.81952 0.44136 0.0
H535 H 0.4121 0.81162 0.52429 0.0
H536 H 0.38413 0.95545 0.32376 0.0
H537 H 0.42047 0.92917 0.29238 0.0
H538 H 0.44589 0.88825 0.30407 0.0
H539 H 0.45331 0.84865 0.35839 0.0
Mn540 Mn 0.13705 0.30955 0.48102 0.0
Mn541 Mn 0.12705 0.37227 0.48698 0.0
C542 C 0.14011 0.33351 0.39739 0.0
C543 C 0.16698 0.27708 0.49163 0.0
C544 C 0.08549 0.33257 0.4991 0.0
O545 O 0.13941 0.3182 0.5665 0.0
O546 O 0.14121 0.36088 0.56169 0.0
C547 C 0.17849 0.39323 0.49912 0.0
N548 N 0.15628 0.39192 0.4699 0.0
C549 C 0.1699 0.42358 0.40233 0.0
C550 C 0.19288 0.42537 0.43193 0.0
C551 C 0.1972 0.41008 0.48044 0.0
C552 C 0.15187 0.40662 0.4233 0.0
H553 H 0.18194 0.3814 0.53614 0.0
C554 C 0.14335 0.3399 0.58894 0.0
O555 O 0.143 0.27241 0.49676 0.0
O556 O 0.17314 0.30019 0.48044 0.0
N557 N 0.11379 0.38511 0.4162 0.0
C558 C 0.09168 0.37931 0.38949 0.0
C559 C 0.08501 0.39201 0.33869 0.0
C560 C 0.1011 0.41051 0.31603 0.0
C561 C 0.12391 0.41594 0.34376 0.0
C562 C 0.12945 0.40284 0.39457 0.0
H563 H 0.07918 0.36518 0.40679 0.0
O564 O 0.13675 0.30923 0.39451 0.0
O565 O 0.14144 0.34276 0.44894 0.0
O566 O 0.0982 0.31302 0.48436 0.0
O567 O 0.09538 0.35445 0.50455 0.0
C568 C 0.14151 0.43354 0.32258 0.0
C569 C 0.1645 0.43735 0.35184 0.0
H570 H 0.20745 0.43815 0.41733 0.0
H571 H 0.21496 0.41121 0.50327 0.0
H572 H 0.06745 0.38763 0.31717 0.0
H573 H 0.0957 0.42039 0.27736 0.0
H574 H 0.13774 0.44398 0.28339 0.0
H575 H 0.17809 0.45059 0.33457 0.0
H576 H 0.19482 0.54998 0.91984 0.0
H577 H 0.21637 0.56004 0.09684 0.0
H578 H 0.22262 0.51416 0.10721 0.0
H579 H 0.21669 0.47074 0.0684 0.0
H580 H 0.19199 0.46156 0.89304 0.0
H581 H 0.19234 0.50736 0.87905 0.0
C582 C 0.20104 0.5421 0.9605 0.0
C583 C 0.2049 0.55816 0.00769 0.0
C584 C 0.20398 0.51581 0.96626 0.0
C585 C 0.21339 0.5479 0.05995 0.0
C586 C 0.21681 0.5217 0.06588 0.0
C587 C 0.21217 0.47886 0.02676 0.0
C588 C 0.20461 0.46291 0.98151 0.0
C589 C 0.21152 0.50537 0.01971 0.0
C590 C 0.19809 0.47355 0.92816 0.0
C591 C 0.19812 0.49971 0.9203 0.0
H592 H 0.46535 0.22122 0.99129 0.0
H593 H 0.46004 0.14244 0.03993 0.0
H594 H 0.50544 0.13942 0.04579 0.0
H595 H 0.5468 0.1579 0.03413 0.0
H596 H 0.55417 0.23637 0.98624 0.0
H597 H 0.50808 0.24067 0.9837 0.0
C598 C 0.47413 0.20348 0.00356 0.0
C599 C 0.45897 0.18209 0.01464 0.0
C600 C 0.50074 0.20168 0.00691 0.0
C601 C 0.4709 0.15926 0.03058 0.0
C602 C 0.49703 0.15742 0.03406 0.0
C603 C 0.53847 0.17604 0.02315 0.0
C604 C 0.55408 0.1967 0.00993 0.0
C605 C 0.51212 0.17835 0.0217 0.0
C606 C 0.5427 0.22008 0.99659 0.0
C607 C 0.5163 0.22253 0.99497 0.0
H608 H 0.86194 0.4689 0.00895 0.0
H609 H 0.78139 0.45965 0.99442 0.0
H610 H 0.77585 0.5058 -0.00069 0.0
H611 H 0.79459 0.54933 0.00443 0.0
H612 H 0.87581 0.5558 0.01409 0.0
H613 H 0.88007 0.51043 0.01387 0.0
C614 C 0.84302 0.47673 0.00718 0.0
C615 C 0.82214 0.46055 0.00141 0.0
C616 C 0.84005 0.50307 0.0086 0.0
C617 C 0.79789 0.47149 -0.00096 0.0
C618 C 0.79472 0.49794 0.00159 0.0
C619 C 0.81317 0.54078 0.0065 0.0
C620 C 0.83478 0.55638 0.00898 0.0
C621 C 0.81575 0.51404 0.00577 0.0
C622 C 0.85871 0.54471 0.01163 0.0
C623 C 0.86129 0.51855 0.01175 0.0
H624 H 0.5491 0.85037 0.06023 0.0
H625 H 0.55439 0.77995 0.9674 0.0
H626 H 0.50818 0.77629 0.96875 0.0
H627 H 0.46583 0.79548 0.98959 0.0
H628 H 0.46306 0.86747 0.07732 0.0
H629 H 0.5085 0.86798 0.08451 0.0
C630 C 0.54032 0.83403 0.04049 0.0
C631 C 0.55534 0.8156 0.01328 0.0
C632 C 0.51396 0.83242 0.04017 0.0
C633 C 0.54338 0.79446 0.98873 0.0
C634 C 0.51691 0.79246 0.98918 0.0
C635 C 0.47522 0.81107 0.01086 0.0
C636 C 0.46079 0.83143 0.03274 0.0
C637 C 0.50191 0.81165 0.01375 0.0
C638 C 0.47339 0.85156 0.05985 0.0
C639 C 0.49953 0.85194 0.06402 0.0
H640 H 0.65365 0.04784 0.48934 0.0
H641 H 0.73404 0.05886 0.50133 0.0
H642 H 0.74027 0.01275 0.50595 0.0
H643 H 0.72218 0.96879 0.50689 0.0
H644 H 0.64121 0.96085 0.49197 0.0
H645 H 0.63626 1.00604 0.48811 0.0
C646 C 0.67267 0.04041 0.49314 0.0
C647 C 0.6933 0.05706 0.49532 0.0
C648 C 0.67607 0.01415 0.4951 0.0
C649 C 0.71772 0.04663 0.49969 0.0
C650 C 0.72128 0.02021 0.50231 0.0
C651 C 0.7035 0.97697 0.50262 0.0
C652 C 0.68219 0.96096 0.49971 0.0
C653 C 0.70052 1.00366 0.50005 0.0
C654 C 0.65814 0.9722 0.49414 0.0
C655 C 0.65514 0.99828 0.49204 0.0
H656 H 0.96879 0.6671 0.56155 0.0
H657 H 0.96282 0.738 0.47058 0.0
H658 H 0.00899 0.74198 0.47155 0.0
H659 H 0.05152 0.72304 0.4917 0.0
H660 H 0.05501 0.65065 0.5779 0.0
H661 H 0.00958 0.64969 0.58516 0.0
C662 C 0.97741 0.68361 0.54214 0.0
C663 C 0.9622 0.7021 0.5156 0.0
C664 C 1.00376 0.68543 0.54165 0.0
C665 C 0.97396 0.72344 0.49143 0.0
C666 C 1.00042 0.72563 0.49166 0.0
C667 C 0.0423 0.70725 0.51263 0.0
C668 C 0.05693 0.68692 0.53404 0.0
C669 C 0.01561 0.70643 0.51564 0.0
C670 C 0.04452 0.66654 0.56075 0.0
C671 C 0.01839 0.66591 0.56497 0.0
H672 H 0.29048 0.05029 0.51064 0.0
H673 H 0.37163 0.05746 0.52187 0.0
H674 H 0.37629 0.01217 0.52096 0.0
H675 H 0.35858 0.97063 0.51549 0.0
H676 H 0.27809 0.96043 0.50202 0.0
H677 H 0.27211 1.00658 0.50568 0.0
C678 C 0.30913 0.0419 0.51298 0.0
C679 C 0.3306 0.05766 0.51599 0.0
C680 C 0.31195 0.01521 0.51211 0.0
C681 C 0.35463 0.04623 0.51901 0.0
C682 C 0.35745 0.02013 0.51867 0.0
C683 C 0.33957 0.97823 0.51351 0.0
C684 C 0.31884 0.96183 0.50848 0.0
C685 C 0.33635 1.00449 0.51497 0.0
C686 C 0.29448 0.97247 0.50597 0.0
C687 C 0.29106 0.99891 0.50795 0.0
H688 H 0.05094 0.29621 0.46353 0.0
H689 H 0.05731 0.36635 0.558 0.0
H690 H 0.012 0.36919 0.56588 0.0
H691 H 0.97062 0.35406 0.54133 0.0
H692 H 0.96153 0.28336 0.45163 0.0
H693 H 1.00766 0.27851 0.44656 0.0
C694 C 0.04238 0.31187 0.4865 0.0
C695 C 0.05776 0.33124 0.5092 0.0
C696 C 0.01577 0.31352 0.4913 0.0
C697 C 0.0462 0.35135 0.53906 0.0
C698 C 0.02014 0.35306 0.54376 0.0
C699 C 0.97853 0.3374 0.52102 0.0
C700 C 0.96251 0.31923 0.49652 0.0
C701 C 1.00478 0.33462 0.51908 0.0
C702 C 0.97338 0.2977 0.47081 0.0
C703 C 0.99978 0.29496 0.46783 0.0
H704 H 0.29541 0.35028 0.01085 0.0
H705 H 0.23242 0.29921 0.99561 0.0
H706 H 0.2611 0.2632 0.99343 0.0
H707 H 0.30375 0.24591 0.99636 0.0
H708 H 0.36738 0.29593 0.01361 0.0
H709 H 0.33884 0.33253 0.01484 0.0
C710 C 0.28802 0.33127 0.00679 0.0
C711 C 0.26176 0.32752 0.00328 0.0
C712 C 0.30472 0.31041 0.00623 0.0
C713 C 0.25249 0.30272 -0.00151 0.0
C714 C 0.26889 0.28205 0.99725 0.0
C715 C 0.31146 0.2648 0.00046 0.0
C716 C 0.3377 0.26813 0.00484 0.0
C717 C 0.29499 0.28565 0.00128 0.0
C718 C 0.34726 0.29279 0.0103 0.0
C719 C 0.33093 0.31374 0.01085 0.0
H720 H 0.72648 0.35117 0.98289 0.0
H721 H 0.78735 0.29694 0.97258 0.0
H722 H 0.75733 0.26226 0.97755 0.0
H723 H 0.71396 0.24709 0.98524 0.0
H724 H 0.65251 0.30066 0.99266 0.0
H725 H 0.68249 0.33574 0.98806 0.0
C726 C 0.73312 0.33176 0.98186 0.0
C727 C 0.75915 0.32669 0.97756 0.0
C728 C 0.71565 0.31175 0.98401 0.0
C729 C 0.76745 0.30142 0.97578 0.0
C730 C 0.75029 0.28152 0.97866 0.0
C731 C 0.70708 0.26644 0.98577 0.0
C732 C 0.68103 0.27123 0.98947 0.0
C733 C 0.72437 0.28645 0.98278 0.0
C734 C 0.67247 0.29643 0.98974 0.0
C735 C 0.68961 0.3165 0.98727 0.0
H736 H 0.77094 0.71217 0.0064 0.0
H737 H 0.72019 0.64878 0.99595 0.0
H738 H 0.68407 0.67789 0.9924 0.0
H739 H 0.66696 0.72178 0.99305 0.0
H740 H 0.71888 0.78439 0.00208 0.0
H741 H 0.75435 0.75516 0.00576 0.0
C742 C 0.752 0.70462 0.00323 0.0
C743 C 0.74832 0.6783 0.00151 0.0
C744 C 0.73145 0.7214 0.00123 0.0
C745 C 0.7236 0.66896 0.99722 0.0
C746 C 0.70292 0.68561 0.99536 0.0
C747 C 0.68604 0.72897 0.99604 0.0
C748 C 0.69018 0.7553 0.99741 0.0
C749 C 0.70661 0.71193 0.99758 0.0
C750 C 0.71506 0.76428 0.00087 0.0
C751 C 0.73543 0.74756 0.00296 0.0
H752 H 0.29239 0.67078 0.00015 0.0
H753 H 0.23042 0.72393 0.99652 0.0
H754 H 0.25995 0.75912 0.99738 0.0
H755 H 0.30311 0.77497 -0.00029 0.0
H756 H 0.36563 0.72255 0.00162 0.0
H757 H 0.33618 0.68693 0.00038 0.0
C758 C 0.28539 0.69007 -0.00027 0.0
C759 C 0.25921 0.69469 -0.00149 0.0
C760 C 0.30255 0.71035 -0.00038 0.0
C761 C 0.25044 0.7198 0.99748 0.0
C762 C 0.26732 0.73998 0.99794 0.0
C763 C 0.31036 0.75577 -0.00031 0.0
C764 C 0.33655 0.75145 0.00087 0.0
C765 C 0.29338 0.73548 -0.00101 0.0
C766 C 0.34556 0.72642 0.00059 0.0
C767 C 0.32872 0.70604 8e-05 0.0
H768 H 0.85051 0.79571 0.49427 0.0
H769 H 0.79853 0.73319 0.50443 0.0
H770 H 0.76308 0.76246 0.50734 0.0
H771 H 0.74652 0.80547 0.50687 0.0
H772 H 0.79734 0.86877 0.49507 0.0
H773 H 0.83344 0.83962 0.49251 0.0
C774 C 0.83142 0.78855 0.49736 0.0
C775 C 0.82726 0.76223 0.49927 0.0
C776 C 0.81087 0.80562 0.4984 0.0
C777 C 0.80237 0.75328 0.50281 0.0
C778 C 0.78201 0.77003 0.50446 0.0
C779 C 0.76548 0.81299 0.50363 0.0
C780 C 0.76918 0.83931 0.50123 0.0
C781 C 0.78601 0.79618 0.50215 0.0
C782 C 0.79392 0.84861 0.49685 0.0
C783 C 0.81457 0.83192 0.49556 0.0
H784 H 0.22371 0.8499 0.49868 0.0
H785 H 0.28605 0.79716 0.50266 0.0
H786 H 0.25687 0.76181 0.50435 0.0
H787 H 0.21399 0.74553 0.50448 0.0
H788 H 0.15086 0.79714 0.49903 0.0
H789 H 0.17992 0.83314 0.49764 0.0
C790 C 0.23084 0.83067 0.50019 0.0
C791 C 0.25707 0.82626 0.50066 0.0
C792 C 0.21383 0.81017 0.50051 0.0
C793 C 0.266 0.80119 0.50216 0.0
C794 C 0.24932 0.78088 0.5031 0.0
C795 C 0.20649 0.76464 0.50283 0.0
C796 C 0.18026 0.7686 0.50188 0.0
C797 C 0.22324 0.78513 0.50211 0.0
C798 C 0.17098 0.79353 0.49963 0.0
C799 C 0.1876 0.81413 0.49903 0.0
H800 H 0.26617 0.21261 0.5161 0.0
H801 H 0.21454 0.15037 0.49673 0.0
H802 H 0.17905 0.18033 0.49065 0.0
H803 H 0.16293 0.22489 0.4901 0.0
H804 H 0.21641 0.28581 0.50864 0.0
H805 H 0.25076 0.25566 0.51618 0.0
C806 C 0.24719 0.20544 0.51051 0.0
C807 C 0.24307 0.17925 0.50679 0.0
C808 C 0.2271 0.22264 0.50709 0.0
C809 C 0.21827 0.17045 0.49958 0.0
C810 C 0.19798 0.18759 0.49622 0.0
C811 C 0.1821 0.23146 0.49611 0.0
C812 C 0.18701 0.25765 0.49862 0.0
C813 C 0.20216 0.21382 0.49992 0.0
C814 C 0.21199 0.26585 0.50616 0.0
C815 C 0.23175 0.24861 0.51053 0.0
H816 H 0.80039 0.27226 0.49803 0.0
H817 H 0.86189 0.21944 0.47715 0.0
H818 H 0.83211 0.18423 0.4755 0.0
H819 H 0.78832 0.16831 0.48015 0.0
H820 H 0.72707 0.2217 0.49768 0.0
H821 H 0.75693 0.25661 0.50078 0.0
C822 C 0.8073 0.25305 0.49302 0.0
C823 C 0.83336 0.24854 0.48778 0.0
C824 C 0.79006 0.2329 0.49174 0.0
C825 C 0.84193 0.22351 0.48111 0.0
C826 C 0.8249 0.20332 0.48033 0.0
C827 C 0.78156 0.18758 0.48492 0.0
C828 C 0.75548 0.19233 0.48887 0.0
C829 C 0.7989 0.20776 0.48576 0.0
C830 C 0.74702 0.21746 0.49446 0.0
C831 C 0.76409 0.23749 0.49623 0.0
H832 H 0.1232 0.33026 0.28742 0.0
H833 H 0.18063 0.36412 0.39246 0.0
H834 H 0.19715 0.38703 0.30961 0.0
H835 H 0.19722 0.39498 0.20557 0.0
H836 H 0.15048 0.34855 0.09824 0.0
H837 H 0.12708 0.33371 0.18182 0.0
C838 C 0.13901 0.34306 0.29202 0.0
C839 C 0.14933 0.34741 0.34668 0.0
C840 C 0.14993 0.35423 0.24311 0.0
C841 C 0.17097 0.36243 0.35166 0.0
C842 C 0.18077 0.37508 0.30404 0.0
C843 C 0.1815 0.38208 0.20062 0.0
C844 C 0.17372 0.37492 0.14528 0.0
C845 C 0.17044 0.37107 0.24943 0.0
C846 C 0.15471 0.35669 0.13967 0.0
C847 C 0.14198 0.34744 0.18781 0.0
H848 H 0.69314 0.12776 0.28375 0.0
H849 H 0.64488 0.17429 0.38817 0.0
H850 H 0.62398 0.19092 0.30286 0.0
H851 H 0.62256 0.19563 0.19749 0.0
H852 H 0.67985 0.15944 0.09526 0.0
H853 H 0.695 0.13617 0.17958 0.0
C854 C 0.67765 0.14111 0.28761 0.0
C855 C 0.66872 0.14786 0.34244 0.0
C856 C 0.66793 0.15294 0.23813 0.0
C857 C 0.64995 0.16654 0.34684 0.0
C858 C 0.6387 0.17681 0.29781 0.0
C859 C 0.63812 0.18235 0.1938 0.0
C860 C 0.649 0.17778 0.13979 0.0
C861 C 0.64778 0.17042 0.24316 0.0
C862 C 0.67012 0.16181 0.13585 0.0
C863 C 0.679 0.14882 0.18418 0.0
H864 H 0.89001 0.6998 0.29367 0.0
H865 H 0.84743 0.64993 0.40182 0.0
H866 H 0.83183 0.6271 0.31829 0.0
H867 H 0.82699 0.62412 0.2127 0.0
H868 H 0.85639 0.68437 0.10831 0.0
H869 H 0.87929 0.70142 0.19076 0.0
C870 C 0.87777 0.68356 0.29881 0.0
C871 C 0.87235 0.67448 0.35427 0.0
C872 C 0.86594 0.67298 0.25037 0.0
C873 C 0.85475 0.65487 0.36013 0.0
C874 C 0.84489 0.64258 0.31203 0.0
C875 C 0.83874 0.64075 0.20812 0.0
C876 C 0.84189 0.65179 0.1537 0.0
C877 C 0.85018 0.65162 0.25675 0.0
C878 C 0.85553 0.67438 0.14892 0.0
C879 C 0.86827 0.68437 0.19623 0.0
H880 H 0.31853 0.8929 0.29501 0.0
H881 H 0.36569 0.84464 0.39829 0.0
H882 H 0.38735 0.82924 0.31288 0.0
H883 H 0.39025 0.82665 0.20771 0.0
H884 H 0.33389 0.86399 0.1048 0.0
H885 H 0.31773 0.88602 0.18988 0.0
C886 C 0.33391 0.87941 0.29858 0.0
C887 C 0.34241 0.87184 0.35322 0.0
C888 C 0.34416 0.86838 0.24875 0.0
C889 C 0.36095 0.85293 0.35721 0.0
C890 C 0.3727 0.84344 0.30814 0.0
C891 C 0.37466 0.8399 0.20403 0.0
C892 C 0.36439 0.84526 0.14979 0.0
C893 C 0.3643 0.85087 0.25361 0.0
C894 C 0.34322 0.86114 0.14572 0.0
C895 C 0.33373 0.87336 0.19446 0.0
H896 H 0.12637 0.69162 0.70914 0.0
H897 H 0.18472 0.65698 0.60722 0.0
H898 H 0.201 0.63491 0.69218 0.0
H899 H 0.19961 0.62701 0.79673 0.0
H900 H 0.14921 0.67169 0.90024 0.0
H901 H 0.12793 0.68737 0.81447 0.0
C902 C 0.14244 0.67896 0.70567 0.0
C903 C 0.15337 0.67448 0.65167 0.0
C904 C 0.1526 0.66767 0.75524 0.0
C905 C 0.17506 0.65929 0.64791 0.0
C906 C 0.18456 0.64699 0.69657 0.0
C907 C 0.18361 0.63976 0.80028 0.0
C908 C 0.17432 0.6463 0.85493 0.0
C909 C 0.17342 0.65098 0.75054 0.0
C910 C 0.15479 0.66419 0.85896 0.0
C911 C 0.14323 0.67389 0.80973 0.0
H912 H 0.3182 0.12766 0.71548 0.0
H913 H 0.3553 0.18338 0.61146 0.0
H914 H 0.37933 0.19819 0.69464 0.0
H915 H 0.38841 0.19592 0.79876 0.0
H916 H 0.33603 0.1553 0.90439 0.0
H917 H 0.31937 0.13325 0.82063 0.0
C918 C 0.33188 0.14276 0.7111 0.0
C919 C 0.33749 0.15248 0.65652 0.0
C920 C 0.34303 0.1533 0.76017 0.0
C921 C 0.35327 0.1736 0.652 0.0
C922 C 0.36637 0.18254 0.69984 0.0
C923 C 0.3737 0.18185 0.80328 0.0
C924 C 0.36575 0.1744 0.85829 0.0
C925 C 0.36158 0.1723 0.75425 0.0
C926 C 0.34495 0.15826 0.86328 0.0
C927 C 0.33473 0.14649 0.81508 0.0
H928 H 0.86845 0.35162 0.85186 0.0
H929 H 0.81542 0.40526 0.78194 0.0
H930 H 0.82585 0.39143 0.68462 0.0
H931 H 0.84721 0.36103 0.62009 0.0
H932 H 0.90529 0.31251 0.68832 0.0
H933 H 0.8964 0.32781 0.78571 0.0
C934 C 0.86059 0.36168 0.81551 0.0
C935 C 0.84183 0.38016 0.82463 0.0
C936 C 0.86738 0.35427 0.7592 0.0
C937 C 0.83023 0.39131 0.77635 0.0
C938 C 0.83608 0.3833 0.72056 0.0
C939 C 0.85877 0.35476 0.65582 0.0
C940 C 0.87749 0.33632 0.64649 0.0
C941 C 0.85425 0.36441 0.71147 0.0
C942 C 0.89108 0.32705 0.6941 0.0
C943 C 0.88601 0.33581 0.74984 0.0
H944 H 0.62764 0.81796 0.79131 0.0
H945 H 0.67023 0.86771 0.89959 0.0
H946 H 0.68563 0.89079 0.81613 0.0
H947 H 0.69025 0.89404 0.71045 0.0
H948 H 0.6613 0.8336 0.60617 0.0
H949 H 0.63843 0.81642 0.6885 0.0
C950 C 0.63984 0.83423 0.7965 0.0
C951 C 0.64528 0.84323 0.85198 0.0
C952 C 0.6516 0.84491 0.74809 0.0
C953 C 0.66286 0.86284 0.85789 0.0
C954 C 0.67261 0.87528 0.80982 0.0
C955 C 0.67859 0.87735 0.70586 0.0
C956 C 0.67549 0.86632 0.65143 0.0
C957 C 0.66727 0.86634 0.75451 0.0
C958 C 0.66204 0.84362 0.64671 0.0
C959 C 0.64934 0.83355 0.69398 0.0
H960 H 0.8447 0.64929 0.64212 0.0
H961 H 0.89071 0.71333 0.68749 0.0
H962 H 0.88105 0.70659 0.78948 0.0
H963 H 0.8622 0.6804 0.86528 0.0
H964 H 0.81427 0.61784 0.82012 0.0
H965 H 0.82172 0.62619 0.71762 0.0
C966 C 0.85242 0.66188 0.67435 0.0
C967 C 0.86867 0.68155 0.65772 0.0
C968 C 0.84648 0.65809 0.73249 0.0
C969 C 0.87819 0.69807 0.69954 0.0
C970 C 0.87276 0.69414 0.7577 0.0
C971 C 0.85324 0.66875 0.83299 0.0
C972 C 0.83803 0.64833 0.84987 0.0
C973 C 0.85736 0.6739 0.77463 0.0
C974 C 0.82607 0.63363 0.80781 0.0
C975 C 0.83044 0.63834 0.74942 0.0
H976 H 0.38181 0.87349 0.65339 0.0
H977 H 0.30245 0.85755 0.67419 0.0
H978 H 0.3108 0.84044 0.77033 0.0
H979 H 0.34062 0.83185 0.85001 0.0
H980 H 0.41916 0.85024 0.82928 0.0
H981 H 0.41129 0.8639 0.73019 0.0
C982 C 0.36619 0.86636 0.67868 0.0
C983 C 0.34145 0.86706 0.65656 0.0
C984 C 0.37112 0.85654 0.7334 0.0
C985 C 0.32163 0.8575 0.69024 0.0
C986 C 0.32642 0.84756 0.74505 0.0
C987 C 0.35602 0.83818 0.82292 0.0
C988 C 0.38052 0.83956 0.84569 0.0
C989 C 0.35109 0.84705 0.76707 0.0
C990 C 0.40032 0.84859 0.81165 0.0
C991 C 0.39574 0.85665 0.7555 0.0
H992 H 0.18031 0.36848 0.63441 0.0
H993 H 0.12296 0.31435 0.67912 0.0
H994 H 0.13194 0.32074 0.78158 0.0
H995 H 0.15378 0.34442 0.85767 0.0
H996 H 0.21275 0.39676 0.81308 0.0
H997 H 0.20576 0.3882 0.71057 0.0
C998 C 0.16997 0.35795 0.66666 0.0
C999 C 0.15078 0.34128 0.64976 0.0
C1000 C 0.17551 0.36146 0.72504 0.0
C1001 C 0.13778 0.32731 0.69153 0.0
C1002 C 0.14284 0.33105 0.7499 0.0
C1003 C 0.16523 0.35372 0.82542 0.0
C1004 C 0.18349 0.3714 0.84232 0.0
C1005 C 0.16129 0.34847 0.76706 0.0
C1006 C 0.1986 0.38307 0.80063 0.0
C1007 C 0.19451 0.37829 0.74224 0.0
H1008 H 0.67755 0.18308 0.843 0.0
H1009 H 0.59728 0.18211 0.81494 0.0
H1010 H 0.60381 0.16846 0.71531 0.0
H1011 H 0.63202 0.15388 0.63975 0.0
H1012 H 0.7126 0.15331 0.66729 0.0
H1013 H 0.70631 0.17016 0.76439 0.0
C1014 C 0.66162 0.18048 0.81431 0.0
C1015 C 0.63701 0.18401 0.83513 0.0
C1016 C 0.66556 0.17179 0.75793 0.0
C1017 C 0.61634 0.17995 0.79885 0.0
C1018 C 0.62009 0.17189 0.74236 0.0
C1019 C 0.64832 0.15734 0.66679 0.0
C1020 C 0.67277 0.15201 0.64632 0.0
C1021 C 0.64458 0.16717 0.72201 0.0
C1022 C 0.69357 0.15702 0.68203 0.0
C1023 C 0.68999 0.16676 0.73744 0.0
H1024 H 0.83874 0.32767 0.32896 0.0
H1025 H 0.9156 0.3537 0.32325 0.0
H1026 H 0.91037 0.36627 0.22272 0.0
H1027 H 0.88349 0.37213 0.13844 0.0
H1028 H 0.80562 0.34875 0.14424 0.0
H1029 H 0.8116 0.33311 0.24246 0.0
C1030 C 0.85439 0.33566 0.30512 0.0
C1031 C 0.87764 0.33946 0.33296 0.0
C1032 C 0.85095 0.34369 0.24766 0.0
C1033 C 0.89764 0.35041 0.30235 0.0
C1034 C 0.89461 0.35772 0.24503 0.0
C1035 C 0.86777 0.36354 0.16089 0.0
C1036 C 0.84409 0.36176 0.13365 0.0
C1037 C 0.87125 0.35485 0.21754 0.0
C1038 C 0.82402 0.35058 0.16398 0.0
C1039 C 0.82745 0.34153 0.22022 0.0
H1040 H 0.67354 0.86712 0.13989 0.0
H1041 H 0.62572 0.80439 0.18501 0.0
H1042 H 0.63533 0.8109 0.28711 0.0
H1043 H 0.65462 0.83667 0.36306 0.0
H1044 H 0.70432 0.89789 0.31806 0.0
H1045 H 0.69696 0.88961 0.21555 0.0
C1046 C 0.66542 0.85476 0.17211 0.0
C1047 C 0.64867 0.83555 0.15541 0.0
C1048 C 0.67132 0.85841 0.23029 0.0
C1049 C 0.63862 0.81931 0.19717 0.0
C1050 C 0.64402 0.8231 0.25537 0.0
C1051 C 0.66401 0.84802 0.33078 0.0
C1052 C 0.67969 0.86806 0.3477 0.0
C1053 C 0.65992 0.84293 0.27239 0.0
C1054 C 0.69216 0.88238 0.30572 0.0
C1055 C 0.68785 0.87773 0.24731 0.0
H1056 H 0.17672 0.68815 0.34987 0.0
H1057 H 0.09896 0.66622 0.3323 0.0
H1058 H 0.10701 0.65139 0.23422 0.0
H1059 H 0.1366 0.64197 0.15716 0.0
H1060 H 0.21517 0.66188 0.17507 0.0
H1061 H 0.20651 0.67973 0.27017 0.0
C1062 C 0.16148 0.68081 0.32364 0.0
C1063 C 0.13716 0.67879 0.34711 0.0
C1064 C 0.16656 0.67131 0.26837 0.0
C1065 C 0.11764 0.66841 0.31415 0.0
C1066 C 0.12234 0.65966 0.25856 0.0
C1067 C 0.15198 0.65007 0.18172 0.0
C1068 C 0.1766 0.65031 0.15895 0.0
C1069 C 0.14684 0.66045 0.23588 0.0
C1070 C 0.19609 0.66118 0.19159 0.0
C1071 C 0.19112 0.67157 0.24582 0.0
H1072 H 0.34982 0.18283 0.36633 0.0
H1073 H 0.31257 0.11292 0.32473 0.0
H1074 H 0.32202 0.11943 0.22242 0.0
H1075 H 0.34453 0.14285 0.14789 0.0
H1076 H 0.38094 0.2135 0.18892 0.0
H1077 H 0.36836 0.20876 0.28977 0.0
C1078 C 0.34359 0.16919 0.33474 0.0
C1079 C 0.33086 0.1473 0.35244 0.0
C1080 C 0.34923 0.17304 0.27667 0.0
C1081 C 0.32233 0.12992 0.31148 0.0
C1082 C 0.32793 0.13355 0.25336 0.0
C1083 C 0.34957 0.15736 0.17866 0.0
C1084 C 0.36397 0.17833 0.16127 0.0
C1085 C 0.34198 0.15468 0.23588 0.0
C1086 C 0.37001 0.19713 0.2015 0.0
C1087 C 0.36284 0.19442 0.25899 0.0
loop_
_geom_bond_atom_site_label_1
_geom_bond_atom_site_label_2
_geom_bond_distance
_geom_bond_site_symmetry_2
_ccdc_geom_bond_type
Mn0 O5 2.095 1_554 S
Mn0 O15 2.162 1_554 S
Mn0 O16 2.297 . S
Mn0 O24 2.385 . S
Mn0 O25 2.209 . S
Mn0 O26 2.094 . S
Mn1 O6 2.121 1_554 S
Mn1 N8 2.257 . S
Mn1 N17 2.282 . S
Mn1 O25 2.215 . S
Mn1 O27 2.117 . S
C2 O24 1.234 . S
C2 O25 1.283 . S
C3 O15 1.281 1_554 S
C3 O16 1.236 . S
C4 O26 1.240 . S
C4 O27 1.264 . S
O5 Mn0 2.095 1_556 S
O5 C14 1.250 . S
O6 Mn1 2.121 1_556 S
O6 C14 1.258 . S
C7 N8 1.326 1_556 S
C7 C11 1.460 1_556 S
C7 H13 0.929 . S
N8 Mn1 2.257 . S
N8 C7 1.326 1_554 S
N8 C12 1.362 . S
C9 C10 1.258 . S
C9 C12 1.431 . S
C9 C29 1.449 . S
C10 C9 1.258 . S
C10 C11 1.477 . S
C10 H30 0.931 . S
C11 C7 1.460 1_554 S
C11 C10 1.477 . S
C11 H31 0.930 1_554 S
C12 N8 1.362 . S
C12 C9 1.431 . S
C12 C22 1.476 . S
H13 C7 0.929 . S
C14 O5 1.250 . S
C14 O6 1.258 . S
O15 Mn0 2.162 1_556 S
O15 C3 1.281 1_556 S
O16 Mn0 2.297 . S
O16 C3 1.236 . S
N17 Mn1 2.282 . S
N17 C18 1.328 . S
N17 C22 1.318 . S
C18 N17 1.328 . S
C18 C19 1.457 . S
C18 H23 0.929 . S
C19 C18 1.457 . S
C19 C20 1.291 . S
C19 H32 0.931 . S
C20 C19 1.291 . S
C20 C21 1.373 . S
C20 H33 0.929 . S
C21 C20 1.373 . S
C21 C22 1.396 . S
C21 C28 1.403 . S
C22 C12 1.476 . S
C22 N17 1.318 . S
C22 C21 1.396 . S
H23 C18 0.929 . S
O24 Mn0 2.385 . S
O24 C2 1.234 . S
O25 Mn0 2.209 . S
O25 Mn1 2.215 . S
O25 C2 1.283 . S
O26 Mn0 2.094 . S
O26 C4 1.240 . S
O27 Mn1 2.117 . S
O27 C4 1.264 . S
C28 C21 1.403 . S
C28 C29 1.399 . S
C28 H34 0.929 . S
C29 C9 1.449 . S
C29 C28 1.399 . S
C29 H35 0.930 . S
H30 C10 0.931 . S
H31 C11 0.930 1_556 S
H32 C19 0.931 . S
H33 C20 0.929 . S
H34 C28 0.929 . S
H35 C29 0.930 . S
Mn36 O41 2.095 1_554 S
Mn36 O51 2.162 1_554 S
Mn36 O52 2.297 . S
Mn36 O60 2.385 . S
Mn36 O61 2.209 . S
Mn36 O62 2.094 . S
Mn37 O42 2.121 1_554 S
Mn37 N44 2.257 . S
Mn37 N53 2.282 . S
Mn37 O61 2.215 . S
Mn37 O63 2.117 . S
C38 O60 1.234 . S
C38 O61 1.283 . S
C39 O51 1.281 1_554 S
C39 O52 1.236 . S
C40 O62 1.240 . S
C40 O63 1.264 . S
O41 Mn36 2.095 1_556 S
O41 C50 1.250 . S
O42 Mn37 2.121 1_556 S
O42 C50 1.258 . S
C43 N44 1.326 1_556 S
C43 C47 1.460 1_556 S
C43 H49 0.929 . S
N44 Mn37 2.257 . S
N44 C43 1.326 1_554 S
N44 C48 1.362 . S
C45 C46 1.258 . S
C45 C48 1.431 . S
C45 C65 1.449 . S
C46 C45 1.258 . S
C46 C47 1.477 . S
C46 H66 0.931 . S
C47 C43 1.460 1_554 S
C47 C46 1.477 . S
C47 H67 0.930 1_554 S
C48 N44 1.362 . S
C48 C45 1.431 . S
C48 C58 1.476 . S
H49 C43 0.929 . S
C50 O41 1.250 . S
C50 O42 1.258 . S
O51 Mn36 2.162 1_556 S
O51 C39 1.281 1_556 S
O52 Mn36 2.297 . S
O52 C39 1.236 . S
N53 Mn37 2.282 . S
N53 C54 1.328 . S
N53 C58 1.318 . S
C54 N53 1.328 . S
C54 C55 1.457 . S
C54 H59 0.929 . S
C55 C54 1.457 . S
C55 C56 1.291 . S
C55 H68 0.931 . S
C56 C55 1.291 . S
C56 C57 1.373 . S
C56 H69 0.929 . S
C57 C56 1.373 . S
C57 C58 1.396 . S
C57 C64 1.403 . S
C58 C48 1.476 . S
C58 N53 1.318 . S
C58 C57 1.396 . S
H59 C54 0.929 . S
O60 Mn36 2.385 . S
O60 C38 1.234 . S
O61 Mn36 2.209 . S
O61 Mn37 2.215 . S
O61 C38 1.283 . S
O62 Mn36 2.094 . S
O62 C40 1.240 . S
O63 Mn37 2.117 . S
O63 C40 1.264 . S
C64 C57 1.403 . S
C64 C65 1.399 . S
C64 H70 0.929 . S
C65 C45 1.449 . S
C65 C64 1.399 . S
C65 H71 0.930 . S
H66 C46 0.931 . S
H67 C47 0.930 1_556 S
H68 C55 0.931 . S
H69 C56 0.929 . S
H70 C64 0.929 . S
H71 C65 0.930 . S
Mn72 O77 2.095 1_554 S
Mn72 O87 2.162 1_554 S
Mn72 O88 2.297 . S
Mn72 O96 2.385 . S
Mn72 O97 2.209 . S
Mn72 O98 2.094 . S
Mn73 O78 2.121 1_554 S
Mn73 N80 2.257 . S
Mn73 N89 2.282 . S
Mn73 O97 2.215 . S
Mn73 O99 2.117 . S
C74 O96 1.234 . S
C74 O97 1.283 . S
C75 O87 1.281 1_554 S
C75 O88 1.236 . S
C76 O98 1.240 . S
C76 O99 1.264 . S
O77 Mn72 2.095 1_556 S
O77 C86 1.250 . S
O78 Mn73 2.121 1_556 S
O78 C86 1.258 . S
C79 N80 1.326 1_556 S
C79 C83 1.460 1_556 S
C79 H85 0.929 . S
N80 Mn73 2.257 . S
N80 C79 1.326 1_554 S
N80 C84 1.362 . S
C81 C82 1.258 . S
C81 C84 1.431 . S
C81 C101 1.449 . S
C82 C81 1.258 . S
C82 C83 1.477 . S
C82 H102 0.931 . S
C83 C79 1.460 1_554 S
C83 C82 1.477 . S
C83 H103 0.930 1_554 S
C84 N80 1.362 . S
C84 C81 1.431 . S
C84 C94 1.476 . S
H85 C79 0.929 . S
C86 O77 1.250 . S
C86 O78 1.258 . S
O87 Mn72 2.162 1_556 S
O87 C75 1.281 1_556 S
O88 Mn72 2.297 . S
O88 C75 1.236 . S
N89 Mn73 2.282 . S
N89 C90 1.328 . S
N89 C94 1.318 . S
C90 N89 1.328 . S
C90 C91 1.457 . S
C90 H95 0.929 . S
C91 C90 1.457 . S
C91 C92 1.291 . S
C91 H104 0.931 . S
C92 C91 1.291 . S
C92 C93 1.373 . S
C92 H105 0.929 . S
C93 C92 1.373 . S
C93 C94 1.396 . S
C93 C100 1.403 . S
C94 C84 1.476 . S
C94 N89 1.318 . S
C94 C93 1.396 . S
H95 C90 0.929 . S
O96 Mn72 2.385 . S
O96 C74 1.234 . S
O97 Mn72 2.209 . S
O97 Mn73 2.215 . S
O97 C74 1.283 . S
O98 Mn72 2.094 . S
O98 C76 1.240 . S
O99 Mn73 2.117 . S
O99 C76 1.264 . S
C100 C93 1.403 . S
C100 C101 1.399 . S
C100 H106 0.929 . S
C101 C81 1.449 . S
C101 C100 1.399 . S
C101 H107 0.930 . S
H102 C82 0.931 . S
H103 C83 0.930 1_556 S
H104 C91 0.931 . S
H105 C92 0.929 . S
H106 C100 0.929 . S
H107 C101 0.930 . S
Mn108 O113 2.095 1_554 S
Mn108 O123 2.162 1_554 S
Mn108 O124 2.297 . S
Mn108 O132 2.385 . S
Mn108 O133 2.209 . S
Mn108 O134 2.094 . S
Mn109 O114 2.121 1_554 S
Mn109 N116 2.257 . S
Mn109 N125 2.282 . S
Mn109 O133 2.215 . S
Mn109 O135 2.117 . S
C110 O132 1.234 . S
C110 O133 1.283 . S
C111 O123 1.281 1_554 S
C111 O124 1.236 . S
C112 O134 1.240 . S
C112 O135 1.264 . S
O113 Mn108 2.095 1_556 S
O113 C122 1.250 . S
O114 Mn109 2.121 1_556 S
O114 C122 1.258 . S
C115 N116 1.326 1_556 S
C115 C119 1.460 1_556 S
C115 H121 0.929 . S
N116 Mn109 2.257 . S
N116 C115 1.326 1_554 S
N116 C120 1.362 . S
C117 C118 1.258 . S
C117 C120 1.431 . S
C117 C137 1.449 . S
C118 C117 1.258 . S
C118 C119 1.477 . S
C118 H138 0.931 . S
C119 C115 1.460 1_554 S
C119 C118 1.477 . S
C119 H139 0.930 1_554 S
C120 N116 1.362 . S
C120 C117 1.431 . S
C120 C130 1.476 . S
H121 C115 0.929 . S
C122 O113 1.250 . S
C122 O114 1.258 . S
O123 Mn108 2.162 1_556 S
O123 C111 1.281 1_556 S
O124 Mn108 2.297 . S
O124 C111 1.236 . S
N125 Mn109 2.282 . S
N125 C126 1.328 . S
N125 C130 1.318 . S
C126 N125 1.328 . S
C126 C127 1.457 . S
C126 H131 0.929 . S
C127 C126 1.457 . S
C127 C128 1.291 . S
C127 H140 0.931 . S
C128 C127 1.291 . S
C128 C129 1.373 . S
C128 H141 0.929 . S
C129 C128 1.373 . S
C129 C130 1.396 . S
C129 C136 1.403 . S
C130 C120 1.476 . S
C130 N125 1.318 . S
C130 C129 1.396 . S
H131 C126 0.929 . S
O132 Mn108 2.385 . S
O132 C110 1.234 . S
O133 Mn108 2.209 . S
O133 Mn109 2.215 . S
O133 C110 1.283 . S
O134 Mn108 2.094 . S
O134 C112 1.240 . S
O135 Mn109 2.117 . S
O135 C112 1.264 . S
C136 C129 1.403 . S
C136 C137 1.399 . S
C136 H142 0.929 . S
C137 C117 1.449 . S
C137 C136 1.399 . S
C137 H143 0.930 . S
H138 C118 0.931 . S
H139 C119 0.930 1_556 S
H140 C127 0.931 . S
H141 C128 0.929 . S
H142 C136 0.929 . S
H143 C137 0.930 . S
Mn144 O149 2.095 1_556 S
Mn144 O159 2.162 1_556 S
Mn144 O160 2.297 . S
Mn144 O168 2.385 . S
Mn144 O169 2.209 . S
Mn144 O170 2.094 . S
Mn145 O150 2.121 1_556 S
Mn145 N152 2.257 . S
Mn145 N161 2.282 . S
Mn145 O169 2.215 . S
Mn145 O171 2.117 . S
C146 O168 1.234 . S
C146 O169 1.283 . S
C147 O159 1.280 1_556 S
C147 O160 1.236 . S
C148 O170 1.240 . S
C148 O171 1.264 . S
O149 Mn144 2.095 1_554 S
O149 C158 1.250 . S
O150 Mn145 2.121 1_554 S
O150 C158 1.258 . S
C151 N152 1.326 1_554 S
C151 C155 1.460 1_554 S
C151 H157 0.929 . S
N152 Mn145 2.257 . S
N152 C151 1.326 1_556 S
N152 C156 1.362 . S
C153 C154 1.258 . S
C153 C156 1.431 . S
C153 C173 1.449 . S
C154 C153 1.258 . S
C154 C155 1.477 . S
C154 H174 0.931 . S
C155 C151 1.460 1_556 S
C155 C154 1.477 . S
C155 H175 0.930 1_556 S
C156 N152 1.362 . S
C156 C153 1.431 . S
C156 C166 1.476 . S
H157 C151 0.929 . S
C158 O149 1.250 . S
C158 O150 1.258 . S
O159 Mn144 2.162 1_554 S
O159 C147 1.280 1_554 S
O160 Mn144 2.297 . S
O160 C147 1.236 . S
N161 Mn145 2.282 . S
N161 C162 1.328 . S
N161 C166 1.318 . S
C162 N161 1.328 . S
C162 C163 1.457 . S
C162 H167 0.929 . S
C163 C162 1.457 . S
C163 C164 1.291 . S
C163 H176 0.931 . S
C164 C163 1.291 . S
C164 C165 1.373 . S
C164 H177 0.929 . S
C165 C164 1.373 . S
C165 C166 1.396 . S
C165 C172 1.403 . S
C166 C156 1.476 . S
C166 N161 1.318 . S
C166 C165 1.396 . S
H167 C162 0.929 . S
O168 Mn144 2.385 . S
O168 C146 1.234 . S
O169 Mn144 2.209 . S
O169 Mn145 2.215 . S
O169 C146 1.283 . S
O170 Mn144 2.094 . S
O170 C148 1.240 . S
O171 Mn145 2.117 . S
O171 C148 1.264 . S
C172 C165 1.403 . S
C172 C173 1.399 . S
C172 H178 0.929 . S
C173 C153 1.449 . S
C173 C172 1.399 . S
C173 H179 0.930 . S
H174 C154 0.931 . S
H175 C155 0.930 1_554 S
H176 C163 0.931 . S
H177 C164 0.929 . S
H178 C172 0.929 . S
H179 C173 0.930 . S
Mn180 O185 2.095 1_556 S
Mn180 O195 2.162 1_556 S
Mn180 O196 2.297 . S
Mn180 O204 2.385 . S
Mn180 O205 2.209 . S
Mn180 O206 2.094 . S
Mn181 O186 2.121 1_556 S
Mn181 N188 2.257 . S
Mn181 N197 2.282 . S
Mn181 O205 2.215 . S
Mn181 O207 2.117 . S
C182 O204 1.234 . S
C182 O205 1.283 . S
C183 O195 1.280 1_556 S
C183 O196 1.236 . S
C184 O206 1.240 . S
C184 O207 1.264 . S
O185 Mn180 2.095 1_554 S
O185 C194 1.250 . S
O186 Mn181 2.121 1_554 S
O186 C194 1.258 . S
C187 N188 1.326 1_554 S
C187 C191 1.460 1_554 S
C187 H193 0.929 . S
N188 Mn181 2.257 . S
N188 C187 1.326 1_556 S
N188 C192 1.362 . S
C189 C190 1.258 . S
C189 C192 1.431 . S
C189 C209 1.449 . S
C190 C189 1.258 . S
C190 C191 1.477 . S
C190 H210 0.931 . S
C191 C187 1.460 1_556 S
C191 C190 1.477 . S
C191 H211 0.930 1_556 S
C192 N188 1.362 . S
C192 C189 1.431 . S
C192 C202 1.476 . S
H193 C187 0.929 . S
C194 O185 1.250 . S
C194 O186 1.258 . S
O195 Mn180 2.162 1_554 S
O195 C183 1.280 1_554 S
O196 Mn180 2.297 . S
O196 C183 1.236 . S
N197 Mn181 2.282 . S
N197 C198 1.328 . S
N197 C202 1.318 . S
C198 N197 1.328 . S
C198 C199 1.457 . S
C198 H203 0.929 . S
C199 C198 1.457 . S
C199 C200 1.291 . S
C199 H212 0.931 . S
C200 C199 1.291 . S
C200 C201 1.373 . S
C200 H213 0.929 . S
C201 C200 1.373 . S
C201 C202 1.396 . S
C201 C208 1.403 . S
C202 C192 1.476 . S
C202 N197 1.318 . S
C202 C201 1.396 . S
H203 C198 0.929 . S
O204 Mn180 2.385 . S
O204 C182 1.234 . S
O205 Mn180 2.209 . S
O205 Mn181 2.215 . S
O205 C182 1.283 . S
O206 Mn180 2.094 . S
O206 C184 1.240 . S
O207 Mn181 2.117 . S
O207 C184 1.264 . S
C208 C201 1.403 . S
C208 C209 1.399 . S
C208 H214 0.929 . S
C209 C189 1.449 . S
C209 C208 1.399 . S
C209 H215 0.930 . S
H210 C190 0.931 . S
H211 C191 0.930 1_554 S
H212 C199 0.931 . S
H213 C200 0.929 . S
H214 C208 0.929 . S
H215 C209 0.930 . S
Mn216 O221 2.095 1_556 S
Mn216 O231 2.162 1_556 S
Mn216 O232 2.297 . S
Mn216 O240 2.385 . S
Mn216 O241 2.209 . S
Mn216 O242 2.094 . S
Mn217 O222 2.121 1_556 S
Mn217 N224 2.257 . S
Mn217 N233 2.282 . S
Mn217 O241 2.215 . S
Mn217 O243 2.117 . S
C218 O240 1.234 . S
C218 O241 1.283 . S
C219 O231 1.280 1_556 S
C219 O232 1.236 . S
C220 O242 1.240 . S
C220 O243 1.264 . S
O221 Mn216 2.095 1_554 S
O221 C230 1.250 . S
O222 Mn217 2.121 1_554 S
O222 C230 1.258 . S
C223 N224 1.326 1_554 S
C223 C227 1.460 1_554 S
C223 H229 0.929 . S
N224 Mn217 2.257 . S
N224 C223 1.326 1_556 S
N224 C228 1.362 . S
C225 C226 1.258 . S
C225 C228 1.431 . S
C225 C245 1.449 . S
C226 C225 1.258 . S
C226 C227 1.477 . S
C226 H246 0.931 . S
C227 C223 1.460 1_556 S
C227 C226 1.477 . S
C227 H247 0.930 1_556 S
C228 N224 1.362 . S
C228 C225 1.431 . S
C228 C238 1.476 . S
H229 C223 0.929 . S
C230 O221 1.250 . S
C230 O222 1.258 . S
O231 Mn216 2.162 1_554 S
O231 C219 1.280 1_554 S
O232 Mn216 2.297 . S
O232 C219 1.236 . S
N233 Mn217 2.282 . S
N233 C234 1.328 . S
N233 C238 1.318 . S
C234 N233 1.328 . S
C234 C235 1.457 . S
C234 H239 0.929 . S
C235 C234 1.457 . S
C235 C236 1.291 . S
C235 H248 0.931 . S
C236 C235 1.291 . S
C236 C237 1.373 . S
C236 H249 0.929 . S
C237 C236 1.373 . S
C237 C238 1.396 . S
C237 C244 1.403 . S
C238 C228 1.476 . S
C238 N233 1.318 . S
C238 C237 1.396 . S
H239 C234 0.929 . S
O240 Mn216 2.385 . S
O240 C218 1.234 . S
O241 Mn216 2.209 . S
O241 Mn217 2.215 . S
O241 C218 1.283 . S
O242 Mn216 2.094 . S
O242 C220 1.240 . S
O243 Mn217 2.117 . S
O243 C220 1.264 . S
C244 C237 1.403 . S
C244 C245 1.399 . S
C244 H250 0.929 . S
C245 C225 1.449 . S
C245 C244 1.399 . S
C245 H251 0.930 . S
H246 C226 0.931 . S
H247 C227 0.930 1_554 S
H248 C235 0.931 . S
H249 C236 0.929 . S
H250 C244 0.929 . S
H251 C245 0.930 . S
Mn252 O257 2.095 1_556 S
Mn252 O267 2.162 1_556 S
Mn252 O268 2.297 . S
Mn252 O276 2.385 . S
Mn252 O277 2.209 . S
Mn252 O278 2.094 . S
Mn253 O258 2.121 1_556 S
Mn253 N260 2.257 . S
Mn253 N269 2.282 . S
Mn253 O277 2.215 . S
Mn253 O279 2.117 . S
C254 O276 1.234 . S
C254 O277 1.283 . S
C255 O267 1.280 1_556 S
C255 O268 1.236 . S
C256 O278 1.240 . S
C256 O279 1.264 . S
O257 Mn252 2.095 1_554 S
O257 C266 1.250 . S
O258 Mn253 2.121 1_554 S
O258 C266 1.258 . S
C259 N260 1.326 1_554 S
C259 C263 1.460 1_554 S
C259 H265 0.929 . S
N260 Mn253 2.257 . S
N260 C259 1.326 1_556 S
N260 C264 1.362 . S
C261 C262 1.258 . S
C261 C264 1.431 . S
C261 C281 1.449 . S
C262 C261 1.258 . S
C262 C263 1.477 . S
C262 H282 0.931 . S
C263 C259 1.460 1_556 S
C263 C262 1.477 . S
C263 H283 0.930 1_556 S
C264 N260 1.362 . S
C264 C261 1.431 . S
C264 C274 1.476 . S
H265 C259 0.929 . S
C266 O257 1.250 . S
C266 O258 1.258 . S
O267 Mn252 2.162 1_554 S
O267 C255 1.280 1_554 S
O268 Mn252 2.297 . S
O268 C255 1.236 . S
N269 Mn253 2.282 . S
N269 C270 1.328 . S
N269 C274 1.318 . S
C270 N269 1.328 . S
C270 C271 1.457 . S
C270 H275 0.929 . S
C271 C270 1.457 . S
C271 C272 1.291 . S
C271 H284 0.931 . S
C272 C271 1.291 . S
C272 C273 1.373 . S
C272 H285 0.929 . S
C273 C272 1.373 . S
C273 C274 1.396 . S
C273 C280 1.403 . S
C274 C264 1.476 . S
C274 N269 1.318 . S
C274 C273 1.396 . S
H275 C270 0.929 . S
O276 Mn252 2.385 . S
O276 C254 1.234 . S
O277 Mn252 2.209 . S
O277 Mn253 2.215 . S
O277 C254 1.283 . S
O278 Mn252 2.094 . S
O278 C256 1.240 . S
O279 Mn253 2.117 . S
O279 C256 1.264 . S
C280 C273 1.403 . S
C280 C281 1.399 . S
C280 H286 0.929 . S
C281 C261 1.449 . S
C281 C280 1.399 . S
C281 H287 0.930 . S
H282 C262 0.931 . S
H283 C263 0.930 1_554 S
H284 C271 0.931 . S
H285 C272 0.929 . S
H286 C280 0.929 . S
H287 C281 0.930 . S
Mn288 O293 2.095 . S
Mn288 O303 2.162 . S
Mn288 O304 2.297 . S
Mn288 O312 2.385 . S
Mn288 O313 2.209 . S
Mn288 O314 2.094 . S
Mn289 O294 2.121 . S
Mn289 N296 2.257 . S
Mn289 N305 2.282 . S
Mn289 O313 2.215 . S
Mn289 O315 2.117 . S
C290 O312 1.234 . S
C290 O313 1.283 . S
C291 O303 1.281 . S
C291 O304 1.236 . S
C292 O314 1.240 . S
C292 O315 1.264 . S
O293 Mn288 2.095 . S
O293 C302 1.250 . S
O294 Mn289 2.121 . S
O294 C302 1.258 . S
C295 N296 1.326 . S
C295 C299 1.460 . S
C295 H301 0.929 . S
N296 Mn289 2.257 . S
N296 C295 1.326 . S
N296 C300 1.362 . S
C297 C298 1.258 . S
C297 C300 1.431 . S
C297 C317 1.449 . S
C298 C297 1.258 . S
C298 C299 1.477 . S
C298 H318 0.931 . S
C299 C295 1.460 . S
C299 C298 1.477 . S
C299 H319 0.930 . S
C300 N296 1.362 . S
C300 C297 1.431 . S
C300 C310 1.476 . S
H301 C295 0.929 . S
C302 O293 1.250 . S
C302 O294 1.258 . S
O303 Mn288 2.162 . S
O303 C291 1.281 . S
O304 Mn288 2.297 . S
O304 C291 1.236 . S
N305 Mn289 2.282 . S
N305 C306 1.328 . S
N305 C310 1.318 . S
C306 N305 1.328 . S
C306 C307 1.457 . S
C306 H311 0.929 . S
C307 C306 1.457 . S
C307 C308 1.291 . S
C307 H320 0.931 . S
C308 C307 1.291 . S
C308 C309 1.373 . S
C308 H321 0.929 . S
C309 C308 1.373 . S
C309 C310 1.396 . S
C309 C316 1.403 . S
C310 C300 1.476 . S
C310 N305 1.318 . S
C310 C309 1.396 . S
H311 C306 0.929 . S
O312 Mn288 2.385 . S
O312 C290 1.234 . S
O313 Mn288 2.209 . S
O313 Mn289 2.215 . S
O313 C290 1.283 . S
O314 Mn288 2.094 . S
O314 C292 1.240 . S
O315 Mn289 2.117 . S
O315 C292 1.264 . S
C316 C309 1.403 . S
C316 C317 1.399 . S
C316 H322 0.929 . S
C317 C297 1.449 . S
C317 C316 1.399 . S
C317 H323 0.930 . S
H318 C298 0.931 . S
H319 C299 0.930 . S
H320 C307 0.931 . S
H321 C308 0.929 . S
H322 C316 0.929 . S
H323 C317 0.930 . S
Mn324 O329 2.095 . S
Mn324 O339 2.162 . S
Mn324 O340 2.297 . S
Mn324 O348 2.385 . S
Mn324 O349 2.209 . S
Mn324 O350 2.094 . S
Mn325 O330 2.121 . S
Mn325 N332 2.257 . S
Mn325 N341 2.282 . S
Mn325 O349 2.215 . S
Mn325 O351 2.117 . S
C326 O348 1.234 . S
C326 O349 1.283 . S
C327 O339 1.281 . S
C327 O340 1.236 . S
C328 O350 1.240 . S
C328 O351 1.264 . S
O329 Mn324 2.095 . S
O329 C338 1.250 . S
O330 Mn325 2.121 . S
O330 C338 1.258 . S
C331 N332 1.326 . S
C331 C335 1.460 . S
C331 H337 0.929 . S
N332 Mn325 2.257 . S
N332 C331 1.326 . S
N332 C336 1.362 . S
C333 C334 1.258 . S
C333 C336 1.431 . S
C333 C353 1.449 . S
C334 C333 1.258 . S
C334 C335 1.477 . S
C334 H354 0.931 . S
C335 C331 1.460 . S
C335 C334 1.477 . S
C335 H355 0.930 . S
C336 N332 1.362 . S
C336 C333 1.431 . S
C336 C346 1.476 . S
H337 C331 0.929 . S
C338 O329 1.250 . S
C338 O330 1.258 . S
O339 Mn324 2.162 . S
O339 C327 1.281 . S
O340 Mn324 2.297 . S
O340 C327 1.236 . S
N341 Mn325 2.282 . S
N341 C342 1.328 . S
N341 C346 1.318 . S
C342 N341 1.328 . S
C342 C343 1.457 . S
C342 H347 0.929 . S
C343 C342 1.457 . S
C343 C344 1.291 . S
C343 H356 0.931 . S
C344 C343 1.291 . S
C344 C345 1.373 . S
C344 H357 0.929 . S
C345 C344 1.373 . S
C345 C346 1.396 . S
C345 C352 1.403 . S
C346 C336 1.476 . S
C346 N341 1.318 . S
C346 C345 1.396 . S
H347 C342 0.929 . S
O348 Mn324 2.385 . S
O348 C326 1.234 . S
O349 Mn324 2.209 . S
O349 Mn325 2.215 . S
O349 C326 1.283 . S
O350 Mn324 2.094 . S
O350 C328 1.240 . S
O351 Mn325 2.117 . S
O351 C328 1.264 . S
C352 C345 1.403 . S
C352 C353 1.399 . S
C352 H358 0.929 . S
C353 C333 1.449 . S
C353 C352 1.399 . S
C353 H359 0.930 . S
H354 C334 0.931 . S
H355 C335 0.930 . S
H356 C343 0.931 . S
H357 C344 0.929 . S
H358 C352 0.929 . S
H359 C353 0.930 . S
Mn360 O365 2.095 . S
Mn360 O375 2.162 . S
Mn360 O376 2.297 . S
Mn360 O384 2.385 . S
Mn360 O385 2.209 . S
Mn360 O386 2.094 . S
Mn361 O366 2.121 . S
Mn361 N368 2.257 . S
Mn361 N377 2.282 . S
Mn361 O385 2.215 . S
Mn361 O387 2.117 . S
C362 O384 1.234 . S
C362 O385 1.283 . S
C363 O375 1.281 . S
C363 O376 1.236 . S
C364 O386 1.240 . S
C364 O387 1.264 . S
O365 Mn360 2.095 . S
O365 C374 1.250 . S
O366 Mn361 2.121 . S
O366 C374 1.258 . S
C367 N368 1.326 . S
C367 C371 1.460 . S
C367 H373 0.929 . S
N368 Mn361 2.257 . S
N368 C367 1.326 . S
N368 C372 1.362 . S
C369 C370 1.258 . S
C369 C372 1.431 . S
C369 C389 1.449 . S
C370 C369 1.258 . S
C370 C371 1.477 . S
C370 H390 0.931 . S
C371 C367 1.460 . S
C371 C370 1.477 . S
C371 H391 0.930 . S
C372 N368 1.362 . S
C372 C369 1.431 . S
C372 C382 1.476 . S
H373 C367 0.929 . S
C374 O365 1.250 . S
C374 O366 1.258 . S
O375 Mn360 2.162 . S
O375 C363 1.281 . S
O376 Mn360 2.297 . S
O376 C363 1.236 . S
N377 Mn361 2.282 . S
N377 C378 1.328 . S
N377 C382 1.318 . S
C378 N377 1.328 . S
C378 C379 1.457 . S
C378 H383 0.929 . S
C379 C378 1.457 . S
C379 C380 1.291 . S
C379 H392 0.931 . S
C380 C379 1.291 . S
C380 C381 1.373 . S
C380 H393 0.929 . S
C381 C380 1.373 . S
C381 C382 1.396 . S
C381 C388 1.403 . S
C382 C372 1.476 . S
C382 N377 1.318 . S
C382 C381 1.396 . S
H383 C378 0.929 . S
O384 Mn360 2.385 . S
O384 C362 1.234 . S
O385 Mn360 2.209 . S
O385 Mn361 2.215 . S
O385 C362 1.283 . S
O386 Mn360 2.094 . S
O386 C364 1.240 . S
O387 Mn361 2.117 . S
O387 C364 1.264 . S
C388 C381 1.403 . S
C388 C389 1.399 . S
C388 H394 0.929 . S
C389 C369 1.449 . S
C389 C388 1.399 . S
C389 H395 0.930 . S
H390 C370 0.931 . S
H391 C371 0.930 . S
H392 C379 0.931 . S
H393 C380 0.929 . S
H394 C388 0.929 . S
H395 C389 0.930 . S
Mn396 O401 2.095 . S
Mn396 O411 2.162 . S
Mn396 O412 2.297 . S
Mn396 O420 2.385 . S
Mn396 O421 2.209 . S
Mn396 O422 2.094 . S
Mn397 O402 2.121 . S
Mn397 N404 2.257 . S
Mn397 N413 2.282 . S
Mn397 O421 2.215 . S
Mn397 O423 2.117 . S
C398 O420 1.234 . S
C398 O421 1.283 . S
C399 O411 1.281 . S
C399 O412 1.236 . S
C400 O422 1.240 . S
C400 O423 1.264 . S
O401 Mn396 2.095 . S
O401 C410 1.250 . S
O402 Mn397 2.121 . S
O402 C410 1.258 . S
C403 N404 1.326 . S
C403 C407 1.460 . S
C403 H409 0.929 . S
N404 Mn397 2.257 . S
N404 C403 1.326 . S
N404 C408 1.362 . S
C405 C406 1.258 . S
C405 C408 1.431 . S
C405 C425 1.449 . S
C406 C405 1.258 . S
C406 C407 1.477 . S
C406 H426 0.931 . S
C407 C403 1.460 . S
C407 C406 1.477 . S
C407 H427 0.930 . S
C408 N404 1.362 . S
C408 C405 1.431 . S
C408 C418 1.476 . S
H409 C403 0.929 . S
C410 O401 1.250 . S
C410 O402 1.258 . S
O411 Mn396 2.162 . S
O411 C399 1.281 . S
O412 Mn396 2.297 . S
O412 C399 1.236 . S
N413 Mn397 2.282 . S
N413 C414 1.328 . S
N413 C418 1.318 . S
C414 N413 1.328 . S
C414 C415 1.457 . S
C414 H419 0.929 . S
C415 C414 1.457 . S
C415 C416 1.291 . S
C415 H428 0.931 . S
C416 C415 1.291 . S
C416 C417 1.373 . S
C416 H429 0.929 . S
C417 C416 1.373 . S
C417 C418 1.396 . S
C417 C424 1.403 . S
C418 C408 1.476 . S
C418 N413 1.318 . S
C418 C417 1.396 . S
H419 C414 0.929 . S
O420 Mn396 2.385 . S
O420 C398 1.234 . S
O421 Mn396 2.209 . S
O421 Mn397 2.215 . S
O421 C398 1.283 . S
O422 Mn396 2.094 . S
O422 C400 1.240 . S
O423 Mn397 2.117 . S
O423 C400 1.264 . S
C424 C417 1.403 . S
C424 C425 1.399 . S
C424 H430 0.929 . S
C425 C405 1.449 . S
C425 C424 1.399 . S
C425 H431 0.930 . S
H426 C406 0.931 . S
H427 C407 0.930 . S
H428 C415 0.931 . S
H429 C416 0.929 . S
H430 C424 0.929 . S
H431 C425 0.930 . S
Mn432 O437 2.095 . S
Mn432 O447 2.162 . S
Mn432 O448 2.297 . S
Mn432 O456 2.385 . S
Mn432 O457 2.209 . S
Mn432 O458 2.094 . S
Mn433 O438 2.121 . S
Mn433 N440 2.257 . S
Mn433 N449 2.282 . S
Mn433 O457 2.215 . S
Mn433 O459 2.117 . S
C434 O456 1.234 . S
C434 O457 1.283 . S
C435 O447 1.281 . S
C435 O448 1.236 . S
C436 O458 1.240 . S
C436 O459 1.264 . S
O437 Mn432 2.095 . S
O437 C446 1.250 . S
O438 Mn433 2.121 . S
O438 C446 1.258 . S
C439 N440 1.326 . S
C439 C443 1.460 . S
C439 H445 0.929 . S
N440 Mn433 2.257 . S
N440 C439 1.326 . S
N440 C444 1.362 . S
C441 C442 1.258 . S
C441 C444 1.431 . S
C441 C461 1.449 . S
C442 C441 1.258 . S
C442 C443 1.477 . S
C442 H462 0.931 . S
C443 C439 1.460 . S
C443 C442 1.477 . S
C443 H463 0.930 . S
C444 N440 1.362 . S
C444 C441 1.431 . S
C444 C454 1.476 . S
H445 C439 0.929 . S
C446 O437 1.250 . S
C446 O438 1.258 . S
O447 Mn432 2.162 . S
O447 C435 1.281 . S
O448 Mn432 2.297 . S
O448 C435 1.236 . S
N449 Mn433 2.282 . S
N449 C450 1.328 . S
N449 C454 1.318 . S
C450 N449 1.328 . S
C450 C451 1.457 . S
C450 H455 0.929 . S
C451 C450 1.457 . S
C451 C452 1.291 . S
C451 H464 0.931 . S
C452 C451 1.291 . S
C452 C453 1.373 . S
C452 H465 0.929 . S
C453 C452 1.373 . S
C453 C454 1.396 . S
C453 C460 1.403 . S
C454 C444 1.476 . S
C454 N449 1.318 . S
C454 C453 1.396 . S
H455 C450 0.929 . S
O456 Mn432 2.385 . S
O456 C434 1.234 . S
O457 Mn432 2.209 . S
O457 Mn433 2.215 . S
O457 C434 1.283 . S
O458 Mn432 2.094 . S
O458 C436 1.240 . S
O459 Mn433 2.117 . S
O459 C436 1.264 . S
C460 C453 1.403 . S
C460 C461 1.399 . S
C460 H466 0.929 . S
C461 C441 1.449 . S
C461 C460 1.399 . S
C461 H467 0.930 . S
H462 C442 0.931 . S
H463 C443 0.930 . S
H464 C451 0.931 . S
H465 C452 0.929 . S
H466 C460 0.929 . S
H467 C461 0.930 . S
Mn468 O473 2.095 . S
Mn468 O483 2.162 . S
Mn468 O484 2.297 . S
Mn468 O492 2.385 . S
Mn468 O493 2.209 . S
Mn468 O494 2.094 . S
Mn469 O474 2.121 . S
Mn469 N476 2.257 . S
Mn469 N485 2.282 . S
Mn469 O493 2.215 . S
Mn469 O495 2.117 . S
C470 O492 1.234 . S
C470 O493 1.283 . S
C471 O483 1.281 . S
C471 O484 1.236 . S
C472 O494 1.240 . S
C472 O495 1.264 . S
O473 Mn468 2.095 . S
O473 C482 1.250 . S
O474 Mn469 2.121 . S
O474 C482 1.258 . S
C475 N476 1.326 . S
C475 C479 1.460 . S
C475 H481 0.929 . S
N476 Mn469 2.257 . S
N476 C475 1.326 . S
N476 C480 1.362 . S
C477 C478 1.258 . S
C477 C480 1.431 . S
C477 C497 1.449 . S
C478 C477 1.258 . S
C478 C479 1.477 . S
C478 H498 0.931 . S
C479 C475 1.460 . S
C479 C478 1.477 . S
C479 H499 0.930 . S
C480 N476 1.362 . S
C480 C477 1.431 . S
C480 C490 1.476 . S
H481 C475 0.929 . S
C482 O473 1.250 . S
C482 O474 1.258 . S
O483 Mn468 2.162 . S
O483 C471 1.281 . S
O484 Mn468 2.297 . S
O484 C471 1.236 . S
N485 Mn469 2.282 . S
N485 C486 1.328 . S
N485 C490 1.318 . S
C486 N485 1.328 . S
C486 C487 1.457 . S
C486 H491 0.929 . S
C487 C486 1.457 . S
C487 C488 1.291 . S
C487 H500 0.931 . S
C488 C487 1.291 . S
C488 C489 1.373 . S
C488 H501 0.929 . S
C489 C488 1.373 . S
C489 C490 1.396 . S
C489 C496 1.403 . S
C490 C480 1.476 . S
C490 N485 1.318 . S
C490 C489 1.396 . S
H491 C486 0.929 . S
O492 Mn468 2.385 . S
O492 C470 1.234 . S
O493 Mn468 2.209 . S
O493 Mn469 2.215 . S
O493 C470 1.283 . S
O494 Mn468 2.094 . S
O494 C472 1.240 . S
O495 Mn469 2.117 . S
O495 C472 1.264 . S
C496 C489 1.403 . S
C496 C497 1.399 . S
C496 H502 0.929 . S
C497 C477 1.449 . S
C497 C496 1.399 . S
C497 H503 0.930 . S
H498 C478 0.931 . S
H499 C479 0.930 . S
H500 C487 0.931 . S
H501 C488 0.929 . S
H502 C496 0.929 . S
H503 C497 0.930 . S
Mn504 O509 2.095 . S
Mn504 O519 2.162 . S
Mn504 O520 2.297 . S
Mn504 O528 2.385 . S
Mn504 O529 2.209 . S
Mn504 O530 2.094 . S
Mn505 O510 2.121 . S
Mn505 N512 2.257 . S
Mn505 N521 2.282 . S
Mn505 O529 2.215 . S
Mn505 O531 2.117 . S
C506 O528 1.234 . S
C506 O529 1.283 . S
C507 O519 1.281 . S
C507 O520 1.236 . S
C508 O530 1.240 . S
C508 O531 1.264 . S
O509 Mn504 2.095 . S
O509 C518 1.250 . S
O510 Mn505 2.121 . S
O510 C518 1.258 . S
C511 N512 1.326 . S
C511 C515 1.460 . S
C511 H517 0.929 . S
N512 Mn505 2.257 . S
N512 C511 1.326 . S
N512 C516 1.362 . S
C513 C514 1.258 . S
C513 C516 1.431 . S
C513 C533 1.449 . S
C514 C513 1.258 . S
C514 C515 1.477 . S
C514 H534 0.931 . S
C515 C511 1.460 . S
C515 C514 1.477 . S
C515 H535 0.930 . S
C516 N512 1.362 . S
C516 C513 1.431 . S
C516 C526 1.476 . S
H517 C511 0.929 . S
C518 O509 1.250 . S
C518 O510 1.258 . S
O519 Mn504 2.162 . S
O519 C507 1.281 . S
O520 Mn504 2.297 . S
O520 C507 1.236 . S
N521 Mn505 2.282 . S
N521 C522 1.328 . S
N521 C526 1.318 . S
C522 N521 1.328 . S
C522 C523 1.457 . S
C522 H527 0.929 . S
C523 C522 1.457 . S
C523 C524 1.291 . S
C523 H536 0.931 . S
C524 C523 1.291 . S
C524 C525 1.373 . S
C524 H537 0.929 . S
C525 C524 1.373 . S
C525 C526 1.396 . S
C525 C532 1.403 . S
C526 C516 1.476 . S
C526 N521 1.318 . S
C526 C525 1.396 . S
H527 C522 0.929 . S
O528 Mn504 2.385 . S
O528 C506 1.234 . S
O529 Mn504 2.209 . S
O529 Mn505 2.215 . S
O529 C506 1.283 . S
O530 Mn504 2.094 . S
O530 C508 1.240 . S
O531 Mn505 2.117 . S
O531 C508 1.264 . S
C532 C525 1.403 . S
C532 C533 1.399 . S
C532 H538 0.929 . S
C533 C513 1.449 . S
C533 C532 1.399 . S
C533 H539 0.930 . S
H534 C514 0.931 . S
H535 C515 0.930 . S
H536 C523 0.931 . S
H537 C524 0.929 . S
H538 C532 0.929 . S
H539 C533 0.930 . S
Mn540 O545 2.095 . S
Mn540 O555 2.162 . S
Mn540 O556 2.297 . S
Mn540 O564 2.385 . S
Mn540 O565 2.209 . S
Mn540 O566 2.094 . S
Mn541 O546 2.121 . S
Mn541 N548 2.257 . S
Mn541 N557 2.282 . S
Mn541 O565 2.215 . S
Mn541 O567 2.117 . S
C542 O564 1.234 . S
C542 O565 1.283 . S
C543 O555 1.281 . S
C543 O556 1.236 . S
C544 O566 1.240 . S
C544 O567 1.264 . S
O545 Mn540 2.095 . S
O545 C554 1.250 . S
O546 Mn541 2.121 . S
O546 C554 1.258 . S
C547 N548 1.326 . S
C547 C551 1.460 . S
C547 H553 0.929 . S
N548 Mn541 2.257 . S
N548 C547 1.326 . S
N548 C552 1.362 . S
C549 C550 1.258 . S
C549 C552 1.431 . S
C549 C569 1.449 . S
C550 C549 1.258 . S
C550 C551 1.477 . S
C550 H570 0.931 . S
C551 C547 1.460 . S
C551 C550 1.477 . S
C551 H571 0.930 . S
C552 N548 1.362 . S
C552 C549 1.431 . S
C552 C562 1.476 . S
H553 C547 0.929 . S
C554 O545 1.250 . S
C554 O546 1.258 . S
O555 Mn540 2.162 . S
O555 C543 1.281 . S
O556 Mn540 2.297 . S
O556 C543 1.236 . S
N557 Mn541 2.282 . S
N557 C558 1.328 . S
N557 C562 1.318 . S
C558 N557 1.328 . S
C558 C559 1.457 . S
C558 H563 0.929 . S
C559 C558 1.457 . S
C559 C560 1.291 . S
C559 H572 0.931 . S
C560 C559 1.291 . S
C560 C561 1.373 . S
C560 H573 0.929 . S
C561 C560 1.373 . S
C561 C562 1.396 . S
C561 C568 1.403 . S
C562 C552 1.476 . S
C562 N557 1.318 . S
C562 C561 1.396 . S
H563 C558 0.929 . S
O564 Mn540 2.385 . S
O564 C542 1.234 . S
O565 Mn540 2.209 . S
O565 Mn541 2.215 . S
O565 C542 1.283 . S
O566 Mn540 2.094 . S
O566 C544 1.240 . S
O567 Mn541 2.117 . S
O567 C544 1.264 . S
C568 C561 1.403 . S
C568 C569 1.399 . S
C568 H574 0.929 . S
C569 C549 1.449 . S
C569 C568 1.399 . S
C569 H575 0.930 . S
H570 C550 0.931 . S
H571 C551 0.930 . S
H572 C559 0.931 . S
H573 C560 0.929 . S
H574 C568 0.929 . S
H575 C569 0.930 . S
H576 C582 0.930 . S
H577 C585 0.930 . S
H578 C586 0.930 . S
H579 C587 0.930 . S
H580 C590 0.930 . S
H581 C591 0.930 . S
C582 H576 0.930 . S
C582 C583 1.355 1_556 S
C582 C584 1.415 . S
C583 C582 1.355 1_554 S
C583 C585 1.419 . S
C584 C582 1.415 . S
C584 C589 1.425 1_556 S
C584 C591 1.409 . S
C585 H577 0.930 . S
C585 C583 1.419 . S
C585 C586 1.362 . S
C586 H578 0.930 . S
C586 C585 1.362 . S
C586 C589 1.409 . S
C587 H579 0.930 . S
C587 C588 1.355 1_554 S
C587 C589 1.415 . S
C588 C587 1.355 1_556 S
C588 C590 1.419 . S
C589 C584 1.425 1_554 S
C589 C586 1.409 . S
C589 C587 1.415 . S
C590 H580 0.930 . S
C590 C588 1.419 . S
C590 C591 1.362 . S
C591 H581 0.930 . S
C591 C584 1.409 . S
C591 C590 1.362 . S
H592 C598 0.930 . S
H593 C601 0.930 . S
H594 C602 0.930 . S
H595 C603 0.930 . S
H596 C606 0.930 . S
H597 C607 0.930 . S
C598 H592 0.930 . S
C598 C599 1.355 1_556 S
C598 C600 1.415 . S
C599 C598 1.355 1_554 S
C599 C601 1.419 . S
C600 C598 1.415 . S
C600 C605 1.425 1_556 S
C600 C607 1.409 . S
C601 H593 0.930 . S
C601 C599 1.419 . S
C601 C602 1.362 . S
C602 H594 0.930 . S
C602 C601 1.362 . S
C602 C605 1.409 . S
C603 H595 0.930 . S
C603 C604 1.355 1_554 S
C603 C605 1.415 . S
C604 C603 1.355 1_556 S
C604 C606 1.419 . S
C605 C600 1.425 1_554 S
C605 C602 1.409 . S
C605 C603 1.415 . S
C606 H596 0.930 . S
C606 C604 1.419 . S
C606 C607 1.362 . S
C607 H597 0.930 . S
C607 C600 1.409 . S
C607 C606 1.362 . S
H608 C614 0.930 . S
H609 C617 0.930 . S
H610 C618 0.930 . S
H611 C619 0.930 . S
H612 C622 0.930 . S
H613 C623 0.930 . S
C614 H608 0.930 . S
C614 C615 1.355 1_556 S
C614 C616 1.415 . S
C615 C614 1.355 1_554 S
C615 C617 1.419 . S
C616 C614 1.415 . S
C616 C621 1.425 1_556 S
C616 C623 1.409 . S
C617 H609 0.930 . S
C617 C615 1.419 . S
C617 C618 1.362 . S
C618 H610 0.930 . S
C618 C617 1.362 . S
C618 C621 1.409 . S
C619 H611 0.930 . S
C619 C620 1.355 1_554 S
C619 C621 1.415 . S
C620 C619 1.355 1_556 S
C620 C622 1.419 . S
C621 C616 1.425 1_554 S
C621 C618 1.409 . S
C621 C619 1.415 . S
C622 H612 0.930 . S
C622 C620 1.419 . S
C622 C623 1.362 . S
C623 H613 0.930 . S
C623 C616 1.409 . S
C623 C622 1.362 . S
H624 C630 0.930 . S
H625 C633 0.930 . S
H626 C634 0.930 . S
H627 C635 0.930 . S
H628 C638 0.930 . S
H629 C639 0.930 . S
C630 H624 0.930 . S
C630 C631 1.355 1_554 S
C630 C632 1.415 . S
C631 C630 1.355 1_556 S
C631 C633 1.419 . S
C632 C630 1.415 . S
C632 C637 1.425 1_554 S
C632 C639 1.409 . S
C633 H625 0.930 . S
C633 C631 1.419 . S
C633 C634 1.362 . S
C634 H626 0.930 . S
C634 C633 1.362 . S
C634 C637 1.409 . S
C635 H627 0.930 . S
C635 C636 1.355 1_556 S
C635 C637 1.415 . S
C636 C635 1.355 1_554 S
C636 C638 1.419 . S
C637 C632 1.425 1_556 S
C637 C634 1.409 . S
C637 C635 1.415 . S
C638 H628 0.930 . S
C638 C636 1.419 . S
C638 C639 1.362 . S
C639 H629 0.930 . S
C639 C632 1.409 . S
C639 C638 1.362 . S
H640 C646 0.930 . S
H641 C649 0.930 . S
H642 C650 0.930 . S
H643 C651 0.930 . S
H644 C654 0.930 . S
H645 C655 0.930 . S
C646 H640 0.930 . S
C646 C647 1.355 . S
C646 C648 1.415 . S
C647 C646 1.355 . S
C647 C649 1.419 . S
C648 C646 1.415 . S
C648 C653 1.425 1_545 S
C648 C655 1.409 1_545 S
C649 H641 0.930 . S
C649 C647 1.419 . S
C649 C650 1.362 . S
C650 H642 0.930 . S
C650 C649 1.362 . S
C650 C653 1.409 1_545 S
C651 H643 0.930 . S
C651 C652 1.355 . S
C651 C653 1.415 . S
C652 C651 1.355 . S
C652 C654 1.419 . S
C653 C648 1.425 1_565 S
C653 C650 1.409 1_565 S
C653 C651 1.415 . S
C654 H644 0.930 . S
C654 C652 1.419 . S
C654 C655 1.362 . S
C655 H645 0.930 . S
C655 C648 1.409 1_565 S
C655 C654 1.362 . S
H656 C662 0.930 . S
H657 C665 0.930 . S
H658 C666 0.930 . S
H659 C667 0.930 . S
H660 C670 0.930 . S
H661 C671 0.930 . S
C662 H656 0.930 . S
C662 C663 1.355 . S
C662 C664 1.415 . S
C663 C662 1.355 . S
C663 C665 1.419 . S
C664 C662 1.415 . S
C664 C669 1.425 1_655 S
C664 C671 1.409 1_655 S
C665 H657 0.930 . S
C665 C663 1.419 . S
C665 C666 1.362 . S
C666 H658 0.930 . S
C666 C665 1.362 . S
C666 C669 1.409 1_655 S
C667 H659 0.930 . S
C667 C668 1.355 . S
C667 C669 1.415 . S
C668 C667 1.355 . S
C668 C670 1.419 . S
C669 C664 1.425 1_455 S
C669 C666 1.409 1_455 S
C669 C667 1.415 . S
C670 H660 0.930 . S
C670 C668 1.419 . S
C670 C671 1.362 . S
C671 H661 0.930 . S
C671 C664 1.409 1_455 S
C671 C670 1.362 . S
H672 C678 0.930 . S
H673 C681 0.930 . S
H674 C682 0.930 . S
H675 C683 0.930 . S
H676 C686 0.930 . S
H677 C687 0.930 . S
C678 H672 0.930 . S
C678 C679 1.355 . S
C678 C680 1.415 . S
C679 C678 1.355 . S
C679 C681 1.419 . S
C680 C678 1.415 . S
C680 C685 1.425 1_545 S
C680 C687 1.409 1_545 S
C681 H673 0.930 . S
C681 C679 1.419 . S
C681 C682 1.362 . S
C682 H674 0.930 . S
C682 C681 1.362 . S
C682 C685 1.409 1_545 S
C683 H675 0.930 . S
C683 C684 1.355 . S
C683 C685 1.415 . S
C684 C683 1.355 . S
C684 C686 1.419 . S
C685 C680 1.425 1_565 S
C685 C682 1.409 1_565 S
C685 C683 1.415 . S
C686 H676 0.930 . S
C686 C684 1.419 . S
C686 C687 1.362 . S
C687 H677 0.930 . S
C687 C680 1.409 1_565 S
C687 C686 1.362 . S
H688 C694 0.930 . S
H689 C697 0.930 . S
H690 C698 0.930 . S
H691 C699 0.930 . S
H692 C702 0.930 . S
H693 C703 0.930 . S
C694 H688 0.930 . S
C694 C695 1.355 . S
C694 C696 1.415 . S
C695 C694 1.355 . S
C695 C697 1.419 . S
C696 C694 1.415 . S
C696 C701 1.425 1_455 S
C696 C703 1.409 1_455 S
C697 H689 0.930 . S
C697 C695 1.419 . S
C697 C698 1.362 . S
C698 H690 0.930 . S
C698 C697 1.362 . S
C698 C701 1.409 1_455 S
C699 H691 0.930 . S
C699 C700 1.355 . S
C699 C701 1.415 . S
C700 C699 1.355 . S
C700 C702 1.419 . S
C701 C696 1.425 1_655 S
C701 C698 1.409 1_655 S
C701 C699 1.415 . S
C702 H692 0.930 . S
C702 C700 1.419 . S
C702 C703 1.362 . S
C703 H693 0.930 . S
C703 C696 1.409 1_655 S
C703 C702 1.362 . S
H704 C710 0.930 . S
H705 C713 0.930 . S
H706 C714 0.930 . S
H707 C715 0.930 . S
H708 C718 0.930 . S
H709 C719 0.930 . S
C710 H704 0.930 . S
C710 C711 1.355 1_556 S
C710 C712 1.415 . S
C711 C710 1.355 1_554 S
C711 C713 1.419 . S
C712 C710 1.415 . S
C712 C717 1.425 1_556 S
C712 C719 1.409 . S
C713 H705 0.930 . S
C713 C711 1.419 . S
C713 C714 1.362 . S
C714 H706 0.930 . S
C714 C713 1.362 . S
C714 C717 1.409 . S
C715 H707 0.930 . S
C715 C716 1.355 1_554 S
C715 C717 1.415 . S
C716 C715 1.355 1_556 S
C716 C718 1.419 . S
C717 C712 1.425 1_554 S
C717 C714 1.409 . S
C717 C715 1.415 . S
C718 H708 0.930 . S
C718 C716 1.419 . S
C718 C719 1.362 . S
C719 H709 0.930 . S
C719 C712 1.409 . S
C719 C718 1.362 . S
H720 C726 0.930 . S
H721 C729 0.930 . S
H722 C730 0.930 . S
H723 C731 0.930 . S
H724 C734 0.930 . S
H725 C735 0.930 . S
C726 H720 0.930 . S
C726 C727 1.355 1_554 S
C726 C728 1.415 . S
C727 C726 1.355 1_556 S
C727 C729 1.419 . S
C728 C726 1.415 . S
C728 C733 1.425 1_554 S
C728 C735 1.409 . S
C729 H721 0.930 . S
C729 C727 1.419 . S
C729 C730 1.362 . S
C730 H722 0.930 . S
C730 C729 1.362 . S
C730 C733 1.409 . S
C731 H723 0.930 . S
C731 C732 1.355 1_556 S
C731 C733 1.415 . S
C732 C731 1.355 1_554 S
C732 C734 1.419 . S
C733 C728 1.425 1_556 S
C733 C730 1.409 . S
C733 C731 1.415 . S
C734 H724 0.930 . S
C734 C732 1.419 . S
C734 C735 1.362 . S
C735 H725 0.930 . S
C735 C728 1.409 . S
C735 C734 1.362 . S
H736 C742 0.930 . S
H737 C745 0.930 . S
H738 C746 0.930 . S
H739 C747 0.930 . S
H740 C750 0.930 . S
H741 C751 0.930 . S
C742 H736 0.930 . S
C742 C743 1.355 . S
C742 C744 1.415 . S
C743 C742 1.355 . S
C743 C745 1.419 1_554 S
C744 C742 1.415 . S
C744 C749 1.425 1_554 S
C744 C751 1.409 . S
C745 H737 0.930 . S
C745 C743 1.419 1_556 S
C745 C746 1.362 . S
C746 H738 0.930 . S
C746 C745 1.362 . S
C746 C749 1.409 . S
C747 H739 0.930 . S
C747 C748 1.355 . S
C747 C749 1.415 . S
C748 C747 1.355 . S
C748 C750 1.419 1_556 S
C749 C744 1.425 1_556 S
C749 C746 1.409 . S
C749 C747 1.415 . S
C750 H740 0.930 . S
C750 C748 1.419 1_554 S
C750 C751 1.362 . S
C751 H741 0.930 . S
C751 C744 1.409 . S
C751 C750 1.362 . S
H752 C758 0.930 . S
H753 C761 0.930 . S
H754 C762 0.930 . S
H755 C763 0.930 . S
H756 C766 0.930 . S
H757 C767 0.930 . S
C758 H752 0.930 . S
C758 C759 1.355 1_554 S
C758 C760 1.415 . S
C759 C758 1.355 1_556 S
C759 C761 1.419 . S
C760 C758 1.415 . S
C760 C765 1.425 1_554 S
C760 C767 1.409 . S
C761 H753 0.930 . S
C761 C759 1.419 . S
C761 C762 1.362 . S
C762 H754 0.930 . S
C762 C761 1.362 . S
C762 C765 1.409 . S
C763 H755 0.930 . S
C763 C764 1.355 1_556 S
C763 C765 1.415 . S
C764 C763 1.355 1_554 S
C764 C766 1.419 . S
C765 C760 1.425 1_556 S
C765 C762 1.409 . S
C765 C763 1.415 . S
C766 H756 0.930 . S
C766 C764 1.419 . S
C766 C767 1.362 . S
C767 H757 0.930 . S
C767 C760 1.409 . S
C767 C766 1.362 . S
H768 C774 0.930 . S
H769 C777 0.930 . S
H770 C778 0.930 . S
H771 C779 0.930 . S
H772 C782 0.930 . S
H773 C783 0.930 . S
C774 H768 0.930 . S
C774 C775 1.355 . S
C774 C776 1.415 . S
C775 C774 1.355 . S
C775 C777 1.419 . S
C776 C774 1.415 . S
C776 C781 1.425 . S
C776 C783 1.409 . S
C777 H769 0.930 . S
C777 C775 1.419 . S
C777 C778 1.362 . S
C778 H770 0.930 . S
C778 C777 1.362 . S
C778 C781 1.409 . S
C779 H771 0.930 . S
C779 C780 1.355 . S
C779 C781 1.415 . S
C780 C779 1.355 . S
C780 C782 1.419 . S
C781 C776 1.425 . S
C781 C778 1.409 . S
C781 C779 1.415 . S
C782 H772 0.930 . S
C782 C780 1.419 . S
C782 C783 1.362 . S
C783 H773 0.930 . S
C783 C776 1.409 . S
C783 C782 1.362 . S
H784 C790 0.930 . S
H785 C793 0.930 . S
H786 C794 0.930 . S
H787 C795 0.930 . S
H788 C798 0.930 . S
H789 C799 0.930 . S
C790 H784 0.930 . S
C790 C791 1.355 . S
C790 C792 1.415 . S
C791 C790 1.355 . S
C791 C793 1.419 . S
C792 C790 1.415 . S
C792 C797 1.425 . S
C792 C799 1.409 . S
C793 H785 0.930 . S
C793 C791 1.419 . S
C793 C794 1.362 . S
C794 H786 0.930 . S
C794 C793 1.362 . S
C794 C797 1.409 . S
C795 H787 0.930 . S
C795 C796 1.355 . S
C795 C797 1.415 . S
C796 C795 1.355 . S
C796 C798 1.419 . S
C797 C792 1.425 . S
C797 C794 1.409 . S
C797 C795 1.415 . S
C798 H788 0.930 . S
C798 C796 1.419 . S
C798 C799 1.362 . S
C799 H789 0.930 . S
C799 C792 1.409 . S
C799 C798 1.362 . S
H800 C806 0.930 . S
H801 C809 0.930 . S
H802 C810 0.930 . S
H803 C811 0.930 . S
H804 C814 0.930 . S
H805 C815 0.930 . S
C806 H800 0.930 . S
C806 C807 1.355 . S
C806 C808 1.415 . S
C807 C806 1.355 . S
C807 C809 1.419 . S
C808 C806 1.415 . S
C808 C813 1.425 . S
C808 C815 1.409 . S
C809 H801 0.930 . S
C809 C807 1.419 . S
C809 C810 1.362 . S
C810 H802 0.930 . S
C810 C809 1.362 . S
C810 C813 1.409 . S
C811 H803 0.930 . S
C811 C812 1.355 . S
C811 C813 1.415 . S
C812 C811 1.355 . S
C812 C814 1.419 . S
C813 C808 1.425 . S
C813 C810 1.409 . S
C813 C811 1.415 . S
C814 H804 0.930 . S
C814 C812 1.419 . S
C814 C815 1.362 . S
C815 H805 0.930 . S
C815 C808 1.409 . S
C815 C814 1.362 . S
H816 C822 0.930 . S
H817 C825 0.930 . S
H818 C826 0.930 . S
H819 C827 0.930 . S
H820 C830 0.930 . S
H821 C831 0.930 . S
C822 H816 0.930 . S
C822 C823 1.355 . S
C822 C824 1.415 . S
C823 C822 1.355 . S
C823 C825 1.419 . S
C824 C822 1.415 . S
C824 C829 1.425 . S
C824 C831 1.409 . S
C825 H817 0.930 . S
C825 C823 1.419 . S
C825 C826 1.362 . S
C826 H818 0.930 . S
C826 C825 1.362 . S
C826 C829 1.409 . S
C827 H819 0.930 . S
C827 C828 1.355 . S
C827 C829 1.415 . S
C828 C827 1.355 . S
C828 C830 1.419 . S
C829 C824 1.425 . S
C829 C826 1.409 . S
C829 C827 1.415 . S
C830 H820 0.930 . S
C830 C828 1.419 . S
C830 C831 1.362 . S
C831 H821 0.930 . S
C831 C824 1.409 . S
C831 C830 1.362 . S
H832 C838 0.930 . S
H833 C841 0.930 . S
H834 C842 0.930 . S
H835 C843 0.930 . S
H836 C846 0.930 . S
H837 C847 0.930 . S
C838 H832 0.930 . S
C838 C839 1.355 . S
C838 C840 1.415 . S
C839 C838 1.355 . S
C839 C841 1.419 . S
C840 C838 1.415 . S
C840 C845 1.425 . S
C840 C847 1.409 . S
C841 H833 0.930 . S
C841 C839 1.419 . S
C841 C842 1.362 . S
C842 H834 0.930 . S
C842 C841 1.362 . S
C842 C845 1.409 . S
C843 H835 0.930 . S
C843 C844 1.355 . S
C843 C845 1.415 . S
C844 C843 1.355 . S
C844 C846 1.419 . S
C845 C840 1.425 . S
C845 C842 1.409 . S
C845 C843 1.415 . S
C846 H836 0.930 . S
C846 C844 1.419 . S
C846 C847 1.362 . S
C847 H837 0.930 . S
C847 C840 1.409 . S
C847 C846 1.362 . S
H848 C854 0.930 . S
H849 C857 0.930 . S
H850 C858 0.930 . S
H851 C859 0.930 . S
H852 C862 0.930 . S
H853 C863 0.930 . S
C854 H848 0.930 . S
C854 C855 1.355 . S
C854 C856 1.415 . S
C855 C854 1.355 . S
C855 C857 1.419 . S
C856 C854 1.415 . S
C856 C861 1.425 . S
C856 C863 1.409 . S
C857 H849 0.930 . S
C857 C855 1.419 . S
C857 C858 1.362 . S
C858 H850 0.930 . S
C858 C857 1.362 . S
C858 C861 1.409 . S
C859 H851 0.930 . S
C859 C860 1.355 . S
C859 C861 1.415 . S
C860 C859 1.355 . S
C860 C862 1.419 . S
C861 C856 1.425 . S
C861 C858 1.409 . S
C861 C859 1.415 . S
C862 H852 0.930 . S
C862 C860 1.419 . S
C862 C863 1.362 . S
C863 H853 0.930 . S
C863 C856 1.409 . S
C863 C862 1.362 . S
H864 C870 0.930 . S
H865 C873 0.930 . S
H866 C874 0.930 . S
H867 C875 0.930 . S
H868 C878 0.930 . S
H869 C879 0.930 . S
C870 H864 0.930 . S
C870 C871 1.355 . S
C870 C872 1.415 . S
C871 C870 1.355 . S
C871 C873 1.419 . S
C872 C870 1.415 . S
C872 C877 1.425 . S
C872 C879 1.409 . S
C873 H865 0.930 . S
C873 C871 1.419 . S
C873 C874 1.362 . S
C874 H866 0.930 . S
C874 C873 1.362 . S
C874 C877 1.409 . S
C875 H867 0.930 . S
C875 C876 1.355 . S
C875 C877 1.415 . S
C876 C875 1.355 . S
C876 C878 1.419 . S
C877 C872 1.425 . S
C877 C874 1.409 . S
C877 C875 1.415 . S
C878 H868 0.930 . S
C878 C876 1.419 . S
C878 C879 1.362 . S
C879 H869 0.930 . S
C879 C872 1.409 . S
C879 C878 1.362 . S
H880 C886 0.930 . S
H881 C889 0.930 . S
H882 C890 0.930 . S
H883 C891 0.930 . S
H884 C894 0.930 . S
H885 C895 0.930 . S
C886 H880 0.930 . S
C886 C887 1.355 . S
C886 C888 1.415 . S
C887 C886 1.355 . S
C887 C889 1.419 . S
C888 C886 1.415 . S
C888 C893 1.425 . S
C888 C895 1.409 . S
C889 H881 0.930 . S
C889 C887 1.419 . S
C889 C890 1.362 . S
C890 H882 0.930 . S
C890 C889 1.362 . S
C890 C893 1.409 . S
C891 H883 0.930 . S
C891 C892 1.355 . S
C891 C893 1.415 . S
C892 C891 1.355 . S
C892 C894 1.419 . S
C893 C888 1.425 . S
C893 C890 1.409 . S
C893 C891 1.415 . S
C894 H884 0.930 . S
C894 C892 1.419 . S
C894 C895 1.362 . S
C895 H885 0.930 . S
C895 C888 1.409 . S
C895 C894 1.362 . S
H896 C902 0.930 . S
H897 C905 0.930 . S
H898 C906 0.930 . S
H899 C907 0.930 . S
H900 C910 0.930 . S
H901 C911 0.930 . S
C902 H896 0.930 . S
C902 C903 1.355 . S
C902 C904 1.415 . S
C903 C902 1.355 . S
C903 C905 1.419 . S
C904 C902 1.415 . S
C904 C909 1.425 . S
C904 C911 1.409 . S
C905 H897 0.930 . S
C905 C903 1.419 . S
C905 C906 1.362 . S
C906 H898 0.930 . S
C906 C905 1.362 . S
C906 C909 1.409 . S
C907 H899 0.930 . S
C907 C908 1.355 . S
C907 C909 1.415 . S
C908 C907 1.355 . S
C908 C910 1.419 . S
C909 C904 1.425 . S
C909 C906 1.409 . S
C909 C907 1.415 . S
C910 H900 0.930 . S
C910 C908 1.419 . S
C910 C911 1.362 . S
C911 H901 0.930 . S
C911 C904 1.409 . S
C911 C910 1.362 . S
H912 C918 0.930 . S
H913 C921 0.930 . S
H914 C922 0.930 . S
H915 C923 0.930 . S
H916 C926 0.930 . S
H917 C927 0.930 . S
C918 H912 0.930 . S
C918 C919 1.355 . S
C918 C920 1.415 . S
C919 C918 1.355 . S
C919 C921 1.419 . S
C920 C918 1.415 . S
C920 C925 1.425 . S
C920 C927 1.409 . S
C921 H913 0.930 . S
C921 C919 1.419 . S
C921 C922 1.362 . S
C922 H914 0.930 . S
C922 C921 1.362 . S
C922 C925 1.409 . S
C923 H915 0.930 . S
C923 C924 1.355 . S
C923 C925 1.415 . S
C924 C923 1.355 . S
C924 C926 1.419 . S
C925 C920 1.425 . S
C925 C922 1.409 . S
C925 C923 1.415 . S
C926 H916 0.930 . S
C926 C924 1.419 . S
C926 C927 1.362 . S
C927 H917 0.930 . S
C927 C920 1.409 . S
C927 C926 1.362 . S
H928 C934 0.930 . S
H929 C937 0.930 . S
H930 C938 0.930 . S
H931 C939 0.930 . S
H932 C942 0.930 . S
H933 C943 0.930 . S
C934 H928 0.930 . S
C934 C935 1.355 . S
C934 C936 1.415 . S
C935 C934 1.355 . S
C935 C937 1.419 . S
C936 C934 1.415 . S
C936 C941 1.425 . S
C936 C943 1.409 . S
C937 H929 0.930 . S
C937 C935 1.419 . S
C937 C938 1.362 . S
C938 H930 0.930 . S
C938 C937 1.362 . S
C938 C941 1.409 . S
C939 H931 0.930 . S
C939 C940 1.355 . S
C939 C941 1.415 . S
C940 C939 1.355 . S
C940 C942 1.419 . S
C941 C936 1.425 . S
C941 C938 1.409 . S
C941 C939 1.415 . S
C942 H932 0.930 . S
C942 C940 1.419 . S
C942 C943 1.362 . S
C943 H933 0.930 . S
C943 C936 1.409 . S
C943 C942 1.362 . S
H944 C950 0.930 . S
H945 C953 0.930 . S
H946 C954 0.930 . S
H947 C955 0.930 . S
H948 C958 0.930 . S
H949 C959 0.930 . S
C950 H944 0.930 . S
C950 C951 1.355 . S
C950 C952 1.415 . S
C951 C950 1.355 . S
C951 C953 1.419 . S
C952 C950 1.415 . S
C952 C957 1.425 . S
C952 C959 1.409 . S
C953 H945 0.930 . S
C953 C951 1.419 . S
C953 C954 1.362 . S
C954 H946 0.930 . S
C954 C953 1.362 . S
C954 C957 1.409 . S
C955 H947 0.930 . S
C955 C956 1.355 . S
C955 C957 1.415 . S
C956 C955 1.355 . S
C956 C958 1.419 . S
C957 C952 1.425 . S
C957 C954 1.409 . S
C957 C955 1.415 . S
C958 H948 0.930 . S
C958 C956 1.419 . S
C958 C959 1.362 . S
C959 H949 0.930 . S
C959 C952 1.409 . S
C959 C958 1.362 . S
H960 C966 0.930 . S
H961 C969 0.930 . S
H962 C970 0.930 . S
H963 C971 0.930 . S
H964 C974 0.930 . S
H965 C975 0.930 . S
C966 H960 0.930 . S
C966 C967 1.355 . S
C966 C968 1.415 . S
C967 C966 1.355 . S
C967 C969 1.419 . S
C968 C966 1.415 . S
C968 C973 1.425 . S
C968 C975 1.409 . S
C969 H961 0.930 . S
C969 C967 1.419 . S
C969 C970 1.362 . S
C970 H962 0.930 . S
C970 C969 1.362 . S
C970 C973 1.409 . S
C971 H963 0.930 . S
C971 C972 1.355 . S
C971 C973 1.415 . S
C972 C971 1.355 . S
C972 C974 1.419 . S
C973 C968 1.425 . S
C973 C970 1.409 . S
C973 C971 1.415 . S
C974 H964 0.930 . S
C974 C972 1.419 . S
C974 C975 1.362 . S
C975 H965 0.930 . S
C975 C968 1.409 . S
C975 C974 1.362 . S
H976 C982 0.930 . S
H977 C985 0.930 . S
H978 C986 0.930 . S
H979 C987 0.930 . S
H980 C990 0.930 . S
H981 C991 0.930 . S
C982 H976 0.930 . S
C982 C983 1.355 . S
C982 C984 1.415 . S
C983 C982 1.355 . S
C983 C985 1.419 . S
C984 C982 1.415 . S
C984 C989 1.425 . S
C984 C991 1.409 . S
C985 H977 0.930 . S
C985 C983 1.419 . S
C985 C986 1.362 . S
C986 H978 0.930 . S
C986 C985 1.362 . S
C986 C989 1.409 . S
C987 H979 0.930 . S
C987 C988 1.355 . S
C987 C989 1.415 . S
C988 C987 1.355 . S
C988 C990 1.419 . S
C989 C984 1.425 . S
C989 C986 1.409 . S
C989 C987 1.415 . S
C990 H980 0.930 . S
C990 C988 1.419 . S
C990 C991 1.362 . S
C991 H981 0.930 . S
C991 C984 1.409 . S
C991 C990 1.362 . S
H992 C998 0.930 . S
H993 C1001 0.930 . S
H994 C1002 0.930 . S
H995 C1003 0.930 . S
H996 C1006 0.930 . S
H997 C1007 0.930 . S
C998 H992 0.930 . S
C998 C999 1.355 . S
C998 C1000 1.415 . S
C999 C998 1.355 . S
C999 C1001 1.419 . S
C1000 C998 1.415 . S
C1000 C1005 1.425 . S
C1000 C1007 1.409 . S
C1001 H993 0.930 . S
C1001 C999 1.419 . S
C1001 C1002 1.362 . S
C1002 H994 0.930 . S
C1002 C1001 1.362 . S
C1002 C1005 1.409 . S
C1003 H995 0.930 . S
C1003 C1004 1.355 . S
C1003 C1005 1.415 . S
C1004 C1003 1.355 . S
C1004 C1006 1.419 . S
C1005 C1000 1.425 . S
C1005 C1002 1.409 . S
C1005 C1003 1.415 . S
C1006 H996 0.930 . S
C1006 C1004 1.419 . S
C1006 C1007 1.362 . S
C1007 H997 0.930 . S
C1007 C1000 1.409 . S
C1007 C1006 1.362 . S
H1008 C1014 0.930 . S
H1009 C1017 0.930 . S
H1010 C1018 0.930 . S
H1011 C1019 0.930 . S
H1012 C1022 0.930 . S
H1013 C1023 0.930 . S
C1014 H1008 0.930 . S
C1014 C1015 1.355 . S
C1014 C1016 1.415 . S
C1015 C1014 1.355 . S
C1015 C1017 1.419 . S
C1016 C1014 1.415 . S
C1016 C1021 1.425 . S
C1016 C1023 1.409 . S
C1017 H1009 0.930 . S
C1017 C1015 1.419 . S
C1017 C1018 1.362 . S
C1018 H1010 0.930 . S
C1018 C1017 1.362 . S
C1018 C1021 1.409 . S
C1019 H1011 0.930 . S
C1019 C1020 1.355 . S
C1019 C1021 1.415 . S
C1020 C1019 1.355 . S
C1020 C1022 1.419 . S
C1021 C1016 1.425 . S
C1021 C1018 1.409 . S
C1021 C1019 1.415 . S
C1022 H1012 0.930 . S
C1022 C1020 1.419 . S
C1022 C1023 1.362 . S
C1023 H1013 0.930 . S
C1023 C1016 1.409 . S
C1023 C1022 1.362 . S
H1024 C1030 0.930 . S
H1025 C1033 0.930 . S
H1026 C1034 0.930 . S
H1027 C1035 0.930 . S
H1028 C1038 0.930 . S
H1029 C1039 0.930 . S
C1030 H1024 0.930 . S
C1030 C1031 1.355 . S
C1030 C1032 1.415 . S
C1031 C1030 1.355 . S
C1031 C1033 1.419 . S
C1032 C1030 1.415 . S
C1032 C1037 1.425 . S
C1032 C1039 1.409 . S
C1033 H1025 0.930 . S
C1033 C1031 1.419 . S
C1033 C1034 1.362 . S
C1034 H1026 0.930 . S
C1034 C1033 1.362 . S
C1034 C1037 1.409 . S
C1035 H1027 0.930 . S
C1035 C1036 1.355 . S
C1035 C1037 1.415 . S
C1036 C1035 1.355 . S
C1036 C1038 1.419 . S
C1037 C1032 1.425 . S
C1037 C1034 1.409 . S
C1037 C1035 1.415 . S
C1038 H1028 0.930 . S
C1038 C1036 1.419 . S
C1038 C1039 1.362 . S
C1039 H1029 0.930 . S
C1039 C1032 1.409 . S
C1039 C1038 1.362 . S
H1040 C1046 0.930 . S
H1041 C1049 0.930 . S
H1042 C1050 0.930 . S
H1043 C1051 0.930 . S
H1044 C1054 0.930 . S
H1045 C1055 0.930 . S
C1046 H1040 0.930 . S
C1046 C1047 1.355 . S
C1046 C1048 1.415 . S
C1047 C1046 1.355 . S
C1047 C1049 1.419 . S
C1048 C1046 1.415 . S
C1048 C1053 1.425 . S
C1048 C1055 1.409 . S
C1049 H1041 0.930 . S
C1049 C1047 1.419 . S
C1049 C1050 1.362 . S
C1050 H1042 0.930 . S
C1050 C1049 1.362 . S
C1050 C1053 1.409 . S
C1051 H1043 0.930 . S
C1051 C1052 1.355 . S
C1051 C1053 1.415 . S
C1052 C1051 1.355 . S
C1052 C1054 1.419 . S
C1053 C1048 1.425 . S
C1053 C1050 1.409 . S
C1053 C1051 1.415 . S
C1054 H1044 0.930 . S
C1054 C1052 1.419 . S
C1054 C1055 1.362 . S
C1055 H1045 0.930 . S
C1055 C1048 1.409 . S
C1055 C1054 1.362 . S
H1056 C1062 0.930 . S
H1057 C1065 0.930 . S
H1058 C1066 0.930 . S
H1059 C1067 0.930 . S
H1060 C1070 0.930 . S
H1061 C1071 0.930 . S
C1062 H1056 0.930 . S
C1062 C1063 1.355 . S
C1062 C1064 1.415 . S
C1063 C1062 1.355 . S
C1063 C1065 1.419 . S
C1064 C1062 1.415 . S
C1064 C1069 1.425 . S
C1064 C1071 1.409 . S
C1065 H1057 0.930 . S
C1065 C1063 1.419 . S
C1065 C1066 1.362 . S
C1066 H1058 0.930 . S
C1066 C1065 1.362 . S
C1066 C1069 1.409 . S
C1067 H1059 0.930 . S
C1067 C1068 1.355 . S
C1067 C1069 1.415 . S
C1068 C1067 1.355 . S
C1068 C1070 1.419 . S
C1069 C1064 1.425 . S
C1069 C1066 1.409 . S
C1069 C1067 1.415 . S
C1070 H1060 0.930 . S
C1070 C1068 1.419 . S
C1070 C1071 1.362 . S
C1071 H1061 0.930 . S
C1071 C1064 1.409 . S
C1071 C1070 1.362 . S
H1072 C1078 0.930 . S
H1073 C1081 0.930 . S
H1074 C1082 0.930 . S
H1075 C1083 0.930 . S
H1076 C1086 0.930 . S
H1077 C1087 0.930 . S
C1078 H1072 0.930 . S
C1078 C1079 1.355 . S
C1078 C1080 1.415 . S
C1079 C1078 1.355 . S
C1079 C1081 1.419 . S
C1080 C1078 1.415 . S
C1080 C1085 1.425 . S
C1080 C1087 1.409 . S
C1081 H1073 0.930 . S
C1081 C1079 1.419 . S
C1081 C1082 1.362 . S
C1082 H1074 0.930 . S
C1082 C1081 1.362 . S
C1082 C1085 1.409 . S
C1083 H1075 0.930 . S
C1083 C1084 1.355 . S
C1083 C1085 1.415 . S
C1084 C1083 1.355 . S
C1084 C1086 1.419 . S
C1085 C1080 1.425 . S
C1085 C1082 1.409 . S
C1085 C1083 1.415 . S
C1086 H1076 0.930 . S
C1086 C1084 1.419 . S
C1086 C1087 1.362 . S
C1087 H1077 0.930 . S
C1087 C1080 1.409 . S
C1087 C1086 1.362 . S
C583 C148 1.349 1_554 S
C588 C4 1.367 1_556 S
C599 C184 1.351 1_554 S
C604 C40 1.365 1_556 S
C615 C220 1.367 1_554 S
C620 C76 1.348 1_556 S
C631 C256 1.366 . S
C636 C112 1.341 . S
C647 C436 1.364 . S
C652 C292 1.342 . S
C663 C472 1.356 . S
C668 C328 1.347 . S
C679 C364 1.345 . S
C684 C508 1.369 . S
C695 C544 1.347 . S
C700 C400 1.368 . S
C711 C3 1.450 . S
C716 C183 1.458 . S
C727 C219 1.451 . S
C732 C39 1.459 . S
C743 C75 1.459 . S
C748 C255 1.451 . S
C759 C147 1.450 . S
C764 C111 1.458 . S
C775 C471 1.456 . S
C780 C291 1.463 . S
C791 C507 1.462 . S
C796 C327 1.464 . S
C807 C363 1.464 . S
C812 C543 1.458 . S
C823 C399 1.453 . S
C828 C435 1.447 . S
C839 C542 1.431 . S
C844 C2 1.458 . S
C855 C434 1.466 . S
C860 C38 1.467 . S
C871 C470 1.460 . S
C876 C74 1.470 . S
C887 C506 1.471 . S
C892 C110 1.457 . S
C903 C326 1.451 . S
C908 C146 1.470 . S
C919 C362 1.442 . S
C924 C182 1.467 . S
C935 C218 1.423 . S
C940 C398 1.446 . S
C951 C254 1.470 . S
C956 C290 1.460 . S
C967 C482 1.312 . S
C972 C86 1.361 . S
C983 C518 1.358 . S
C988 C122 1.316 . S
C999 C554 1.327 . S
C1004 C14 1.346 . S
C1015 C50 1.320 . S
C1020 C446 1.355 . S
C1031 C410 1.312 . S
C1036 C230 1.362 . S
C1047 C266 1.327 . S
C1052 C302 1.348 . S
C1063 C338 1.335 . S
C1068 C158 1.338 . S
C1079 C374 1.320 . S
C1084 C194 1.355 . S
