# Generated by pormake.
# Topology ecn, (8)-cn, num edge types: 1
# Building blocks:
#     Node 0, Type 0, BuildingBlock: EBIMEJ_clean_sbu_0, # of connection points: 8
#     Node 1, Type 0, BuildingBlock: EBIMEJ_clean_sbu_0, # of connection points: 8
#     Node 2, Type 0, BuildingBlock: EBIMEJ_clean_sbu_0, # of connection points: 8
#     Node 3, Type 0, BuildingBlock: EBIMEJ_clean_sbu_0, # of connection points: 8
#     Node 4, Type 0, BuildingBlock: EBIMEJ_clean_sbu_0, # of connection points: 8
#     Node 5, Type 0, BuildingBlock: EBIMEJ_clean_sbu_0, # of connection points: 8
#     Node 6, Type 0, BuildingBlock: EBIMEJ_clean_sbu_0, # of connection points: 8
#     Node 7, Type 0, BuildingBlock: EBIMEJ_clean_sbu_0, # of connection points: 8
#     Node 8, Type 0, BuildingBlock: EBIMEJ_clean_sbu_0, # of connection points: 8
#     Edge 9, Type (0, 0), BuildingBlock: OJICUG_clean_linker_0, # of connection points: 2
#     Edge 10, Type (0, 0), BuildingBlock: OJICUG_clean_linker_0, # of connection points: 2
#     Edge 11, Type (0, 0), BuildingBlock: OJICUG_clean_linker_0, # of connection points: 2
#     Edge 12, Type (0, 0), BuildingBlock: OJICUG_clean_linker_0, # of connection points: 2
#     Edge 13, Type (0, 0), BuildingBlock: OJICUG_clean_linker_0, # of connection points: 2
#     Edge 14, Type (0, 0), BuildingBlock: OJICUG_clean_linker_0, # of connection points: 2
#     Edge 15, Type (0, 0), BuildingBlock: OJICUG_clean_linker_0, # of connection points: 2
#     Edge 16, Type (0, 0), BuildingBlock: OJICUG_clean_linker_0, # of connection points: 2
#     Edge 17, Type (0, 0), BuildingBlock: OJICUG_clean_linker_0, # of connection points: 2
#     Edge 18, Type (0, 0), BuildingBlock: OJICUG_clean_linker_0, # of connection points: 2
#     Edge 19, Type (0, 0), BuildingBlock: OJICUG_clean_linker_0, # of connection points: 2
#     Edge 20, Type (0, 0), BuildingBlock: OJICUG_clean_linker_0, # of connection points: 2
#     Edge 21, Type (0, 0), BuildingBlock: OJICUG_clean_linker_0, # of connection points: 2
#     Edge 22, Type (0, 0), BuildingBlock: OJICUG_clean_linker_0, # of connection points: 2
#     Edge 23, Type (0, 0), BuildingBlock: OJICUG_clean_linker_0, # of connection points: 2
#     Edge 24, Type (0, 0), BuildingBlock: OJICUG_clean_linker_0, # of connection points: 2
#     Edge 25, Type (0, 0), BuildingBlock: OJICUG_clean_linker_0, # of connection points: 2
#     Edge 26, Type (0, 0), BuildingBlock: OJICUG_clean_linker_0, # of connection points: 2
#     Edge 27, Type (0, 0), BuildingBlock: OJICUG_clean_linker_0, # of connection points: 2
#     Edge 28, Type (0, 0), BuildingBlock: OJICUG_clean_linker_0, # of connection points: 2
#     Edge 29, Type (0, 0), BuildingBlock: OJICUG_clean_linker_0, # of connection points: 2
#     Edge 30, Type (0, 0), BuildingBlock: OJICUG_clean_linker_0, # of connection points: 2
#     Edge 31, Type (0, 0), BuildingBlock: OJICUG_clean_linker_0, # of connection points: 2
#     Edge 32, Type (0, 0), BuildingBlock: OJICUG_clean_linker_0, # of connection points: 2
#     Edge 33, Type (0, 0), BuildingBlock: OJICUG_clean_linker_0, # of connection points: 2
#     Edge 34, Type (0, 0), BuildingBlock: OJICUG_clean_linker_0, # of connection points: 2
#     Edge 35, Type (0, 0), BuildingBlock: OJICUG_clean_linker_0, # of connection points: 2
#     Edge 36, Type (0, 0), BuildingBlock: OJICUG_clean_linker_0, # of connection points: 2
#     Edge 37, Type (0, 0), BuildingBlock: OJICUG_clean_linker_0, # of connection points: 2
#     Edge 38, Type (0, 0), BuildingBlock: OJICUG_clean_linker_0, # of connection points: 2
#     Edge 39, Type (0, 0), BuildingBlock: OJICUG_clean_linker_0, # of connection points: 2
#     Edge 40, Type (0, 0), BuildingBlock: OJICUG_clean_linker_0, # of connection points: 2
#     Edge 41, Type (0, 0), BuildingBlock: OJICUG_clean_linker_0, # of connection points: 2
#     Edge 42, Type (0, 0), BuildingBlock: OJICUG_clean_linker_0, # of connection points: 2
#     Edge 43, Type (0, 0), BuildingBlock: OJICUG_clean_linker_0, # of connection points: 2
#     Edge 44, Type (0, 0), BuildingBlock: OJICUG_clean_linker_0, # of connection points: 2
# Relax obj value: 0.176
# Max RMSD: 0.237
# Mean RMSD: 0.237
data_MOF--net-ecn--node1-EBIMEJ_clean_sbu_0--edge1-OJICUG_clean_linker_0
_symmetry_space_group_name_H-M    P1
_symmetry_Int_Tables_number       1
_symmetry_cell_setting            triclinic
loop_
_symmetry_equiv_pos_as_xyz
'x, y, z'
_cell_length_a     41.739883
_cell_length_b     41.777197
_cell_length_c     11.649323
_cell_angle_alpha  90.176931
_cell_angle_beta   90.002355
_cell_angle_gamma 119.97628
loop_
_atom_site_label
_atom_site_type_symbol
_atom_site_fract_x
_atom_site_fract_y
_atom_site_fract_z
_atom_type_partial_charge
Co0 Co 0.2039 0.31511 0.91632 0.0
Co1 Co 0.15831 0.23832 0.0444 0.0
Co2 Co 0.11656 0.27665 0.9834 0.0
H3 H 0.16077 0.29303 0.97664 0.0
O4 O 0.16779 0.28904 0.04191 0.0
H5 H 0.11536 0.21981 0.03789 0.0
O6 O 0.1079 0.22575 0.97736 0.0
Co7 Co 0.07295 0.18927 0.08832 0.0
O8 O 0.09346 0.15421 0.11344 0.0
O9 O 0.14997 0.18769 0.04104 0.0
O10 O 0.04136 0.21332 0.10191 0.0
O11 O 0.06202 0.25977 0.9729 0.0
O12 O 0.2429 0.37011 0.89478 0.0
O13 O 0.25403 0.32948 0.83935 0.0
O14 O 0.08817 0.2198 0.23062 0.0
O15 O 0.14747 0.23646 0.21284 0.0
C16 C 0.15528 0.35288 0.90408 0.0
C17 C 0.2388 0.27525 0.04468 0.0
C18 C 1.01774 0.12684 0.06889 0.0
C19 C 0.14481 0.27083 0.7532 0.0
C20 C 0.12421 0.15762 0.08079 0.0
C21 C 0.03762 0.23731 0.04473 0.0
C22 C 0.26598 0.36358 0.84647 0.0
C23 C 0.12034 0.2332 0.2724 0.0
O24 O 0.18316 0.3494 0.87546 0.0
O25 O 0.12902 0.32921 0.96779 0.0
O26 O 0.20842 0.25375 0.09293 0.0
O27 O 0.24168 0.29901 0.96983 0.0
O28 O 1.01719 0.15389 0.1137 0.0
O29 O 0.04937 0.13534 0.03374 0.0
O30 O 0.17566 0.27746 0.79478 0.0
O31 O 0.12124 0.27488 0.81214 0.0
Co32 Co 0.73747 0.89837 0.91397 0.0
Co33 Co 0.813 0.93034 0.05031 0.0
Co34 Co 0.77627 0.85042 0.98461 0.0
H35 H 0.75939 0.87768 0.97672 0.0
O36 O 0.76262 0.88838 0.04242 0.0
H37 H 0.83257 0.90669 0.04129 0.0
O38 O 0.82671 0.89359 0.97993 0.0
Co39 Co 0.86394 0.89494 0.08709 0.0
O40 O 0.90003 0.95058 0.09427 0.0
O41 O 0.86329 0.97349 0.05372 0.0
O42 O 0.83963 0.83956 0.10791 0.0
O43 O 0.79414 0.8135 0.9753 0.0
O44 O 0.7228 0.93167 0.82279 0.0
O45 O 0.68263 0.88414 0.90218 0.0
O46 O 0.83642 0.88145 0.23523 0.0
O47 O 0.81442 0.91997 0.2169 0.0
C48 C 0.70029 0.81208 0.90179 0.0
C49 C 0.77335 0.97132 0.0527 0.0
C50 C 0.92604 0.9015 0.06205 0.0
C51 C 0.78359 0.88492 0.75657 0.0
C52 C 0.89492 0.97775 0.07581 0.0
C53 C 0.81611 0.81167 0.04971 0.0
C54 C 0.68883 0.91148 0.84153 0.0
C55 C 0.82093 0.89834 0.27676 0.0
O56 O 0.70373 0.84332 0.87244 0.0
O57 O 0.72394 0.80973 0.96676 0.0
O58 O 0.79576 0.96362 0.10144 0.0
O59 O 0.7517 0.95123 0.97191 0.0
O60 O 0.90117 0.87777 0.12505 0.0
O61 O 0.91555 0.92131 0.01251 0.0
O62 O 0.77728 0.90922 0.79926 0.0
O63 O 0.77827 0.85665 0.81369 0.0
Co64 Co 0.15343 0.84802 0.92017 0.0
Co65 Co 0.12213 0.89314 0.05342 0.0
Co66 Co 0.20166 0.93552 0.98687 0.0
H67 H 0.1743 0.89125 0.98003 0.0
O68 O 0.16382 0.88431 0.04598 0.0
H69 H 0.1461 0.93637 0.04479 0.0
O70 O 0.15881 0.9433 0.98287 0.0
Co71 Co 0.1585 0.97947 0.0924 0.0
O72 O 0.10327 0.96146 0.06964 0.0
O73 O 0.07926 0.90053 0.05809 0.0
O74 O 0.21417 1.0078 0.11872 0.0
O75 O 0.2383 0.99001 0.97568 0.0
O76 O 0.12406 0.80229 0.81494 0.0
O77 O 0.16159 0.80334 0.93336 0.0
O78 O 0.17302 0.96511 0.2381 0.0
O79 O 0.13283 0.90506 0.21938 0.0
C80 C 0.23977 0.89745 0.90576 0.0
C81 C 0.08042 0.81263 0.05879 0.0
C82 C 0.15094 0.03484 0.09733 0.0
C83 C 0.16786 0.90699 0.75717 0.0
C84 C 0.07568 0.92884 0.06215 0.0
C85 C 0.24138 1.01266 0.05609 0.0
C86 C 0.13882 0.78495 0.85554 0.0
C87 C 0.15545 0.93279 0.27915 0.0
O88 O 0.20845 0.86934 0.87778 0.0
O89 O 0.24227 0.92379 0.96946 0.0
O90 O 0.08879 0.8432 0.10526 0.0
O91 O 0.10043 0.81007 0.97977 0.0
O92 O 0.13093 1.00552 0.15115 0.0
O93 O 0.17521 0.03271 0.03949 0.0
O94 O 0.14413 0.87577 0.79724 0.0
O95 O 0.19513 0.93076 0.81656 0.0
Co96 Co 0.8705 0.6484 0.25 0.0
Co97 Co 0.82434 0.57054 0.37386 0.0
Co98 Co 0.78305 0.60965 0.3159 0.0
H99 H 0.82725 0.62589 0.30962 0.0
O100 O 0.83416 0.62145 0.37444 0.0
H101 H 0.78152 0.55261 0.3699 0.0
O102 O 0.77375 0.5585 0.30996 0.0
Co103 Co 0.73965 0.52261 0.42424 0.0
O104 O 0.75985 0.48714 0.44512 0.0
O105 O 0.81538 0.51971 0.36588 0.0
O106 O 0.70751 0.54613 0.43279 0.0
O107 O 0.72859 0.5931 0.30535 0.0
O108 O 0.91555 0.66558 0.1419 0.0
O109 O 0.91549 0.70093 0.26694 0.0
O110 O 0.75643 0.55643 0.5592 0.0
O111 O 0.81413 0.56791 0.5437 0.0
C112 C 0.82216 0.68627 0.23774 0.0
C113 C 0.90524 0.6079 0.37567 0.0
C114 C 0.68528 0.45914 0.42141 0.0
C115 C 0.81173 0.60424 0.08505 0.0
C116 C 0.78966 0.48979 0.40663 0.0
C117 C 0.7039 0.57025 0.37584 0.0
C118 C 0.93331 0.69719 0.18598 0.0
C119 C 0.78809 0.56758 0.60226 0.0
O120 O 0.85004 0.68284 0.20877 0.0
O121 O 0.79584 0.6624 0.30089 0.0
O122 O 0.87451 0.58515 0.41961 0.0
O123 O 0.90847 0.63275 0.30476 0.0
O124 O 0.71271 0.46956 0.48641 0.0
O125 O 0.68876 0.48472 0.35694 0.0
O126 O 0.84269 0.61124 0.12669 0.0
O127 O 0.78792 0.60792 0.14422 0.0
Co128 Co 0.40273 0.23095 0.25281 0.0
Co129 Co 0.48077 0.26394 0.37989 0.0
Co130 Co 0.44204 0.1835 0.32237 0.0
H131 H 0.42561 0.21111 0.31487 0.0
O132 O 0.42992 0.22269 0.37937 0.0
H133 H 0.49899 0.23923 0.37601 0.0
O134 O 0.49307 0.22551 0.31597 0.0
Co135 Co 0.52912 0.22732 0.42999 0.0
O136 O 0.56485 0.28303 0.44779 0.0
O137 O 0.53154 0.30594 0.37317 0.0
O138 O 0.50578 0.17171 0.44059 0.0
O139 O 0.45872 0.14568 0.31267 0.0
O140 O 0.34788 0.21539 0.22853 0.0
O141 O 0.38897 0.26602 0.16822 0.0
O142 O 0.49546 0.21047 0.56494 0.0
O143 O 0.4834 0.25631 0.54994 0.0
C144 C 0.366 0.14512 0.24072 0.0
C145 C 0.43977 0.30434 0.39077 0.0
C146 C 0.59255 0.2362 0.4257 0.0
C147 C 0.44791 0.21729 0.09154 0.0
C148 C 0.56183 0.31011 0.41108 0.0
C149 C 0.48156 0.1439 0.38363 0.0
C150 C 0.35476 0.24438 0.17601 0.0
C151 C 0.48408 0.23078 0.60824 0.0
O152 O 0.36959 0.17603 0.20695 0.0
O153 O 0.38927 0.14351 0.30929 0.0
O154 O 0.46562 0.29924 0.42528 0.0
O155 O 0.41457 0.28198 0.32142 0.0
O156 O 0.58258 0.25375 0.49001 0.0
O157 O 0.56653 0.21366 0.3628 0.0
O158 O 0.44136 0.24145 0.13403 0.0
O159 O 0.44354 0.1895 0.15008 0.0
Co160 Co 0.82036 0.18083 0.2528 0.0
Co161 Co 0.78782 0.22747 0.37431 0.0
Co162 Co 0.86836 0.26864 0.31734 0.0
H163 H 0.84053 0.22438 0.31104 0.0
O164 O 0.82899 0.21764 0.37557 0.0
H165 H 0.81277 0.27026 0.37133 0.0
O166 O 0.82651 0.27798 0.31153 0.0
Co167 Co 0.82466 0.31215 0.42625 0.0
O168 O 0.76898 0.29199 0.44733 0.0
O169 O 0.74606 0.2366 0.36636 0.0
O170 O 0.88036 0.34411 0.4362 0.0
O171 O 0.90625 0.32309 0.30765 0.0
O172 O 0.80198 0.14041 0.12607 0.0
O173 O 0.8177 0.13101 0.2853 0.0
O174 O 0.84128 0.29532 0.56162 0.0
O175 O 0.7953 0.23757 0.54458 0.0
C176 C 0.90618 0.22997 0.23703 0.0
C177 C 0.74664 0.14602 0.38822 0.0
C178 C 0.81561 0.36656 0.422 0.0
C179 C 0.83498 0.23916 0.08494 0.0
C180 C 0.74184 0.26226 0.40813 0.0
C181 C 0.90813 0.3477 0.37915 0.0
C182 C 0.80578 0.11781 0.1871 0.0
C183 C 0.82089 0.2636 0.60378 0.0
O184 O 0.875 0.20198 0.20801 0.0
O185 O 0.90843 0.25595 0.30189 0.0
O186 O 0.75204 0.17736 0.41907 0.0
O187 O 0.76916 0.14233 0.32215 0.0
O188 O 0.79855 0.33936 0.48732 0.0
O189 O 0.83775 0.36282 0.35804 0.0
O190 O 0.81186 0.20764 0.12482 0.0
O191 O 0.86161 0.26367 0.14554 0.0
Co192 Co 0.53731 0.98174 0.58532 0.0
Co193 Co 0.49131 0.90438 0.71075 0.0
Co194 Co 0.44987 0.94319 0.65216 0.0
H195 H 0.49412 0.95947 0.64542 0.0
O196 O 0.50103 0.9552 0.71049 0.0
H197 H 0.44845 0.88625 0.70638 0.0
O198 O 0.4407 0.8921 0.64629 0.0
Co199 Co 0.40651 0.8562 0.76036 0.0
O200 O 0.42648 0.82042 0.7774 0.0
O201 O 0.48269 0.85371 0.70324 0.0
O202 O 0.37456 0.87991 0.77049 0.0
O203 O 0.39538 0.92658 0.64208 0.0
O204 O 0.58329 0.99801 0.48185 0.0
O205 O 0.5817 0.03489 0.59767 0.0
O206 O 0.42314 0.89003 0.8954 0.0
O207 O 0.48088 0.90162 0.88028 0.0
C208 C 0.48872 1.01943 0.57251 0.0
C209 C 0.57209 0.94162 0.71274 0.0
C210 C 0.35205 0.79275 0.75846 0.0
C211 C 0.47818 0.93726 0.4217 0.0
C212 C 0.45667 0.82347 0.74096 0.0
C213 C 0.37085 0.90394 0.71337 0.0
C214 C 0.60034 0.03032 0.52127 0.0
C215 C 0.45477 0.90116 0.9387 0.0
O216 O 0.51652 1.01589 0.5432 0.0
O217 O 0.46263 0.99584 0.63688 0.0
O218 O 0.54139 0.91929 0.75759 0.0
O219 O 0.57523 0.96593 0.63975 0.0
O220 O 0.37942 0.80328 0.82383 0.0
O221 O 0.35567 0.81819 0.6931 0.0
O222 O 0.5091 0.9441 0.46342 0.0
O223 O 0.45461 0.94138 0.48056 0.0
Co224 Co 0.07012 0.56516 0.58568 0.0
Co225 Co 0.14847 0.59743 0.70943 0.0
Co226 Co 0.10938 0.51698 0.65121 0.0
H227 H 0.093 0.54479 0.64515 0.0
O228 O 0.09754 0.55629 0.70988 0.0
H229 H 0.16638 0.57255 0.70605 0.0
O230 O 0.1605 0.55881 0.64606 0.0
Co231 Co 0.19637 0.56072 0.76101 0.0
O232 O 0.23181 0.61637 0.7831 0.0
O233 O 0.19933 0.63914 0.70184 0.0
O234 O 0.17277 0.50508 0.77019 0.0
O235 O 0.12605 0.47917 0.64093 0.0
O236 O 1.01527 0.54929 0.56001 0.0
O237 O 0.05625 0.60078 0.50511 0.0
O238 O 0.16242 0.54378 0.89512 0.0
O239 O 0.15117 0.59011 0.87965 0.0
C240 C 0.03286 0.4792 0.57074 0.0
C241 C 0.10801 0.63851 0.72294 0.0
C242 C 0.25995 0.57008 0.75645 0.0
C243 C 0.11468 0.55109 0.42086 0.0
C244 C 0.22922 0.64341 0.74364 0.0
C245 C 0.14872 0.47733 0.71254 0.0
C246 C 1.02206 0.57872 0.51058 0.0
C247 C 0.15136 0.56437 0.93816 0.0
O248 O 0.03615 0.5104 0.54201 0.0
O249 O 0.05664 0.47691 0.63511 0.0
O250 O 0.13391 0.63313 0.75452 0.0
O251 O 0.08208 0.61608 0.6557 0.0
O252 O 0.24917 0.58565 0.82617 0.0
O253 O 0.23466 0.5493 0.68835 0.0
O254 O 0.1075 0.57489 0.46295 0.0
O255 O 0.11114 0.52364 0.47953 0.0
Co256 Co 0.48651 0.51443 0.58281 0.0
Co257 Co 0.45488 0.56155 0.70499 0.0
Co258 Co 0.53527 0.60212 0.64788 0.0
H259 H 0.50716 0.55792 0.64153 0.0
O260 O 0.49569 0.55125 0.70618 0.0
H261 H 0.48006 0.60428 0.70203 0.0
O262 O 0.49378 0.61193 0.64219 0.0
Co263 Co 0.49217 0.64616 0.75729 0.0
O264 O 0.43652 0.62607 0.78021 0.0
O265 O 0.41342 0.57109 0.69637 0.0
O266 O 0.54794 0.67786 0.76628 0.0
O267 O 0.57344 0.65638 0.63784 0.0
O268 O 0.46139 0.47054 0.46851 0.0
O269 O 0.49008 0.4674 0.609 0.0
O270 O 0.50889 0.62912 0.89185 0.0
O271 O 0.46235 0.57166 0.87521 0.0
C272 C 0.5725 0.56294 0.56778 0.0
C273 C 0.41142 0.48051 0.70977 0.0
C274 C 0.48297 0.70046 0.75339 0.0
C275 C 0.50176 0.57291 0.41544 0.0
C276 C 0.40933 0.59665 0.7395 0.0
C277 C 0.57557 0.68111 0.7092 0.0
C278 C 0.47162 0.45099 0.52099 0.0
C279 C 0.48822 0.5975 0.93418 0.0
O280 O 0.54121 0.5351 0.53872 0.0
O281 O 0.57498 0.58901 0.63262 0.0
O282 O 0.41882 0.5116 0.74967 0.0
O283 O 0.43342 0.47674 0.64157 0.0
O284 O 0.46489 0.67255 0.81517 0.0
O285 O 0.5063 0.69758 0.69291 0.0
O286 O 0.4783 0.54155 0.45536 0.0
O287 O 0.52855 0.59719 0.47605 0.0
C288 C 0.26127 0.23457 0.1227 0.0
C289 C 0.26989 0.26876 0.07315 0.0
H290 H 0.28085 0.20031 0.19233 0.0
C291 C 0.30726 0.29491 0.0538 0.0
H292 H 0.23286 0.21329 0.1376 0.0
C293 C 0.33521 0.28715 0.08628 0.0
C294 C 0.32611 0.25301 0.13717 0.0
H295 H 0.31484 0.32139 0.01575 0.0
H296 H 0.36388 0.30791 0.07261 0.0
C297 C 0.28885 0.22686 0.15397 0.0
C298 C 0.77995 0.06546 0.04287 0.0
C299 C 0.79438 0.07934 0.15286 0.0
H300 H 0.76103 1.01975 0.92457 0.0
C301 C 0.79775 0.05591 0.23175 0.0
H302 H 0.77674 0.08285 0.98055 0.0
C303 C 0.78854 1.02008 0.2003 0.0
C304 C 0.77562 1.0065 0.08901 0.0
H305 H 0.80825 0.06551 0.31755 0.0
H306 H 0.79266 1.00325 0.26264 0.0
C307 C 0.77053 0.02925 0.0112 0.0
C308 C 1.02536 0.7855 0.18765 0.0
C309 C 0.0444 0.78061 0.09517 0.0
H310 H 0.97582 0.76368 0.28653 0.0
C311 C 1.0269 0.74688 0.03493 0.0
H312 H 0.03771 0.81089 0.23722 0.0
C313 C 0.99078 0.71935 0.06458 0.0
C314 C 0.97162 0.72524 0.15443 0.0
H315 H 0.04064 0.74215 0.96343 0.0
H316 H 0.97765 0.69374 0.0162 0.0
C317 C 0.98958 0.75839 0.21626 0.0
C318 C 0.84874 0.77651 0.08422 0.0
C319 C 0.81506 0.77643 0.07745 0.0
H320 H 0.87747 0.74897 0.14031 0.0
C321 C 0.78322 0.74616 0.12364 0.0
H322 H 0.87395 0.79986 0.05215 0.0
C323 C 0.78538 0.7171 0.17779 0.0
C324 C 0.81939 0.71763 0.18618 0.0
H325 H 0.75713 0.74586 0.12312 0.0
H326 H 0.76046 0.69433 0.21339 0.0
C327 C 0.85083 0.74751 0.13662 0.0
C328 C 0.29023 0.07893 0.03528 0.0
C329 C 0.27766 0.04463 0.08835 0.0
H330 H 0.32755 0.1374 0.042 0.0
C331 C 0.29477 0.04333 0.191 0.0
H332 H 0.27672 0.08091 0.95839 0.0
C333 C 0.32376 0.07567 0.23989 0.0
C334 C 0.33567 0.11029 0.18886 0.0
H335 H 0.28463 1.01739 0.23606 0.0
H336 H 0.33595 0.07369 0.31972 0.0
C337 C 0.31886 0.11135 0.08482 0.0
C338 C 0.96981 0.20471 0.07619 0.0
C339 C 1.00338 0.23839 0.07152 0.0
H340 H 0.91367 0.17553 0.13289 0.0
C341 C 1.00487 0.2699 0.12076 0.0
H342 H 0.96801 0.17974 0.04169 0.0
C343 C 0.97364 0.26736 0.17635 0.0
C344 C 0.94028 0.23326 0.18335 0.0
H345 H 1.03066 0.29597 0.1218 0.0
H346 H 0.97571 0.292 0.21443 0.0
C347 C 0.93876 0.20221 0.13038 0.0
C348 C 0.92825 0.56725 0.4501 0.0
C349 C 0.93659 0.60191 0.40507 0.0
H350 H 0.94824 0.53303 0.51723 0.0
C351 C 0.97395 0.62905 0.39145 0.0
H352 H 0.89989 0.54524 0.46052 0.0
C353 C 1.00211 0.62172 0.42494 0.0
C354 C 0.99325 0.58707 0.47131 0.0
H355 H 0.98133 0.65593 0.3571 0.0
H356 H 1.03073 0.64319 0.4156 0.0
C357 C 0.95604 0.55999 0.48254 0.0
C358 C 0.43857 0.39489 0.39231 0.0
C359 C 0.46036 0.4123 0.49017 0.0
H360 H 0.41407 0.34643 0.28411 0.0
C361 C 0.47136 0.39229 0.56003 0.0
H362 H 0.42934 0.4096 0.33749 0.0
C363 C 0.46228 0.35636 0.53062 0.0
C364 C 0.44204 0.33931 0.43002 0.0
H365 H 0.48771 0.40464 0.63665 0.0
H366 H 0.4723 0.34229 0.58534 0.0
C367 C 0.42942 0.35862 0.36243 0.0
C368 C 0.65571 0.09264 0.54557 0.0
C369 C 0.6387 0.05838 0.48965 0.0
H370 H 0.70298 0.14613 0.56043 0.0
C371 C 0.65879 0.05147 0.4053 0.0
H372 H 0.64125 0.09875 0.61163 0.0
C373 C 0.69481 0.07907 0.3747 0.0
C374 C 0.71123 0.11393 0.4283 0.0
H375 H 0.64643 0.02502 0.36163 0.0
H376 H 0.70918 0.07356 0.30693 0.0
C377 C 0.69137 0.11985 0.51593 0.0
C378 C 0.5141 0.10847 0.41341 0.0
C379 C 0.48049 0.1086 0.40997 0.0
H380 H 0.54316 0.08108 0.46768 0.0
C381 C 0.44906 0.07876 0.45955 0.0
H382 H 0.53904 0.13154 0.37878 0.0
C383 C 0.4516 0.05 0.51412 0.0
C384 C 0.48559 0.0504 0.51964 0.0
H385 H 0.42308 0.07868 0.46167 0.0
H386 H 0.42701 0.0276 0.5526 0.0
C387 C 0.51657 0.07975 0.46633 0.0
C388 C 1.00274 0.41186 0.50789 0.0
C389 C 1.00183 0.4451 0.51748 0.0
H390 H 0.9744 0.35499 0.45137 0.0
C391 C 0.97186 0.44648 0.46741 0.0
H392 H 1.02564 0.40989 0.54369 0.0
C393 C 0.94311 0.41543 0.41356 0.0
C394 C 0.94345 0.382 0.40608 0.0
H395 H 0.97009 0.47146 0.47199 0.0
H396 H 0.91961 0.41712 0.38152 0.0
C397 C 0.97388 0.38065 0.45244 0.0
C398 C 0.60509 0.5349 0.46276 0.0
C399 C 0.60651 0.56612 0.51397 0.0
H400 H 0.63449 0.51226 0.37583 0.0
C401 C 0.63969 0.60032 0.50509 0.0
H402 H 0.58013 0.50814 0.46679 0.0
C403 C 0.67089 0.60282 0.44942 0.0
C404 C 0.66955 0.57116 0.40214 0.0
H405 H 0.64165 0.62509 0.54173 0.0
H406 H 0.69655 0.62901 0.44905 0.0
C407 C 0.63614 0.53735 0.40863 0.0
C408 C 0.59557 0.90376 0.80656 0.0
C409 C 0.60347 0.93582 0.74411 0.0
H410 H 0.61578 0.87111 0.88423 0.0
C411 C 0.64035 0.96012 0.71233 0.0
H412 H 0.5676 0.88392 0.83224 0.0
C413 C 0.66846 0.95242 0.74339 0.0
C414 C 0.66 0.9202 0.80562 0.0
H415 H 0.64744 0.98494 0.66426 0.0
H416 H 0.69674 0.97163 0.719 0.0
C417 C 0.62327 0.8961 0.83645 0.0
C418 C 0.09349 0.69066 0.70719 0.0
C419 C 0.11114 0.67387 0.76306 0.0
H420 H 0.08858 0.73941 0.6922 0.0
C421 C 0.13618 0.6934 0.85276 0.0
H422 H 0.07421 0.67653 0.6377 0.0
C423 C 0.14476 0.72914 0.88223 0.0
C424 C 0.12834 0.74653 0.82404 0.0
H425 H 0.15021 0.68148 0.89895 0.0
H426 H 0.16477 0.74336 0.94993 0.0
C427 C 0.10201 0.72674 0.73764 0.0
C428 C 0.31283 0.42959 0.81793 0.0
C429 C 0.30312 0.39247 0.80812 0.0
H430 H 0.35375 0.48571 0.79393 0.0
C431 C 0.3292 0.3837 0.76298 0.0
H432 H 0.2934 0.43729 0.85152 0.0
C433 C 0.36457 0.41188 0.72905 0.0
C434 C 0.37434 0.44917 0.74083 0.0
H435 H 0.32237 0.35515 0.75472 0.0
H436 H 0.38426 0.40456 0.69546 0.0
C437 C 0.34776 0.45742 0.78492 0.0
C438 C 0.18363 0.41354 0.8 0.0
C439 C 0.15232 0.38388 0.85081 0.0
H440 H 0.20652 0.46552 0.71351 0.0
C441 C 0.11822 0.38315 0.84183 0.0
H442 H 0.21033 0.41514 0.80403 0.0
C443 C 0.11589 0.4119 0.78632 0.0
C444 C 0.14764 0.44204 0.73926 0.0
H445 H 0.09338 0.36048 0.8782 0.0
H446 H 0.08977 0.41156 0.78579 0.0
C447 C 0.18136 0.44221 0.74608 0.0
C448 C 0.6694 0.74433 0.84306 0.0
C449 C 0.66931 0.77805 0.84808 0.0
H450 H 0.64035 0.68714 0.79 0.0
C451 C 0.64025 0.77995 0.79318 0.0
H452 H 0.69154 0.74192 0.88284 0.0
C453 C 0.61155 0.74895 0.73896 0.0
C454 C 0.61108 0.71509 0.73602 0.0
H455 H 0.63913 0.8053 0.79414 0.0
H456 H 0.5887 0.75105 0.70314 0.0
C457 C 0.64059 0.71318 0.78736 0.0
C458 C 0.3032 0.87117 0.74848 0.0
C459 C 0.33656 0.90496 0.74017 0.0
H460 H 0.24734 0.84221 0.80801 0.0
C461 C 0.33795 0.93686 0.7857 0.0
H462 H 0.30149 0.84592 0.71699 0.0
C463 C 0.30685 0.93461 0.84137 0.0
C464 C 0.27372 0.90044 0.85201 0.0
H465 H 0.36357 0.96307 0.78388 0.0
H466 H 0.30884 0.95956 0.87659 0.0
C467 C 0.27226 0.86897 0.80261 0.0
C468 C 0.16938 0.09917 0.04033 0.0
C469 C 0.14415 0.06618 0.09432 0.0
H470 H 0.18292 0.15381 0.99402 0.0
C471 C 0.11191 0.06303 0.14338 0.0
H472 H 0.19434 0.10223 0.00144 0.0
C473 C 0.10506 0.09254 0.13864 0.0
C474 C 0.1305 0.12577 0.08538 0.0
H475 H 0.09181 0.03765 0.18471 0.0
H476 H 0.08002 0.08937 0.17711 0.0
C477 C 0.16272 0.12869 0.03625 0.0
C478 C 0.99241 0.05886 0.05566 0.0
C479 C 0.98632 0.08885 0.06883 0.0
H480 H 0.96829 1.00007 0.05125 0.0
C481 C 0.95029 0.08216 0.08633 0.0
H482 H 1.02008 0.06337 0.04305 0.0
C483 C 0.92066 0.04599 0.08899 0.0
C484 C 0.92665 1.01584 0.0765 0.0
H485 H 0.94498 0.10486 0.09715 0.0
H486 H 0.89305 0.04166 0.1016 0.0
C487 C 0.96285 0.02265 0.0609 0.0
C488 C 0.97261 0.88281 0.10751 0.0
C489 C 0.96418 0.9082 0.05777 0.0
H490 H 1.01458 0.86955 0.14727 0.0
C491 C 0.99277 0.94079 0.00911 0.0
H492 H 0.95114 0.85753 0.14577 0.0
C493 C 1.02939 0.94826 0.01275 0.0
C494 C 0.03769 0.92264 0.0618 0.0
H495 H 0.98693 0.96067 0.96919 0.0
H496 H 0.05102 0.97362 0.97538 0.0
C497 C 1.00893 0.88977 0.10847 0.0
C498 C 0.77872 0.39631 0.47722 0.0
C499 C 0.80867 0.39778 0.4173 0.0
H500 H 0.7489 0.42412 0.52027 0.0
C501 C 0.83174 0.42919 0.3526 0.0
H502 H 0.76044 0.3723 0.52763 0.0
C503 C 0.82529 0.45886 0.34893 0.0
C504 C 0.79539 0.4576 0.40908 0.0
H505 H 0.85499 0.43099 0.30562 0.0
H506 H 0.84386 0.48283 0.29874 0.0
C507 C 0.77201 0.42588 0.47267 0.0
C508 C 0.65577 0.3928 0.47817 0.0
C509 C 0.65406 0.42098 0.41767 0.0
H510 H 0.62807 0.33544 0.52297 0.0
C511 C 0.62238 0.41237 0.35343 0.0
H512 H 0.68002 0.39875 0.52814 0.0
C513 C 0.59265 0.37627 0.351 0.0
C514 C 0.59412 0.34795 0.41198 0.0
H515 H 0.62041 0.43358 0.30594 0.0
H516 H 0.56847 0.37063 0.30111 0.0
C517 C 0.62613 0.35653 0.47485 0.0
C518 C 0.65934 0.27352 0.47878 0.0
C519 C 0.63072 0.24314 0.42053 0.0
H520 H 0.71709 0.3037 0.51999 0.0
C521 C 0.63894 0.21968 0.35687 0.0
H522 H 0.65369 0.29213 0.52825 0.0
C523 C 0.6751 0.22619 0.35255 0.0
C524 C 0.70388 0.25651 0.4111 0.0
H525 H 0.61739 0.1961 0.31118 0.0
H526 H 0.68041 0.20732 0.30317 0.0
C527 C 0.69565 0.28026 0.47368 0.0
C528 C 0.49416 0.79393 0.68975 0.0
C529 C 0.46255 0.79136 0.74242 0.0
H530 H 0.52528 0.76713 0.65172 0.0
C531 C 0.43752 0.75835 0.79746 0.0
H532 H 0.51408 0.81892 0.64632 0.0
C533 C 0.44425 0.72878 0.80113 0.0
C534 C 0.47593 0.7316 0.74893 0.0
H535 H 0.41302 0.75549 0.8389 0.0
H536 H 0.4246 0.7037 0.84468 0.0
C537 C 0.50067 0.76429 0.69256 0.0
C538 C 0.293 0.69004 0.81144 0.0
C539 C 0.2614 0.68131 0.74605 0.0
H540 H 0.34633 0.73252 0.86813 0.0
C541 C 0.26016 0.70958 0.68401 0.0
H542 H 0.29478 0.66897 0.86027 0.0
C543 C 0.28968 0.74575 0.68774 0.0
C544 C 0.32094 0.75453 0.75435 0.0
H545 H 0.2363 0.70384 0.63223 0.0
H546 H 0.28788 0.76688 0.6392 0.0
C547 C 0.32243 0.72643 0.81615 0.0
C548 C 0.36246 0.61256 0.81353 0.0
C549 C 0.37151 0.59116 0.74195 0.0
H550 H 0.31969 0.62227 0.87516 0.0
C551 C 0.34357 0.56314 0.67409 0.0
H552 H 0.38328 0.63413 0.86722 0.0
C553 C 0.30737 0.55645 0.67835 0.0
C554 C 0.29824 0.5774 0.75122 0.0
H555 H 0.34961 0.54622 0.61744 0.0
H556 H 0.28647 0.53466 0.62533 0.0
C557 C 0.32606 0.6056 0.81852 0.0
C558 C 0.16727 0.26591 0.55976 0.0
C559 C 0.13783 0.26075 0.6307 0.0
H560 H 0.18496 0.26173 0.39157 0.0
C561 C 0.10249 0.247 0.5826 0.0
H562 H 0.195 0.27695 0.59367 0.0
C563 C 0.09671 0.2382 0.46579 0.0
C564 C 0.12623 0.24326 0.39516 0.0
H565 H 0.07932 0.24282 0.63518 0.0
H566 H 0.06909 0.2273 0.43111 0.0
C567 C 0.16157 0.25735 0.44344 0.0
C568 C 0.80156 0.91856 0.45126 0.0
C569 C 0.81163 0.89447 0.39972 0.0
H570 H 0.78531 0.93468 0.60379 0.0
C571 C 0.81322 0.86742 0.46705 0.0
H572 H 0.80026 0.93986 0.4021 0.0
C573 C 0.8045 0.86435 0.58379 0.0
C574 C 0.79441 0.88853 0.63493 0.0
H575 H 0.82091 0.84846 0.42951 0.0
H576 H 0.80555 0.84306 0.63368 0.0
C577 C 0.79321 0.91572 0.56744 0.0
C578 C 0.18667 0.94989 0.58923 0.0
C579 C 0.16483 0.91443 0.63563 0.0
H580 H 0.20086 0.98372 0.4391 0.0
C581 C 0.14056 0.88529 0.56381 0.0
H582 H 0.2057 0.97283 0.64273 0.0
C583 C 0.13801 0.89139 0.44808 0.0
C584 C 0.15953 0.92683 0.40135 0.0
H585 H 0.12367 0.85751 0.59647 0.0
H586 H 0.11895 0.86817 0.39553 0.0
C587 C 0.18394 0.95609 0.47283 0.0
C588 C 0.76528 0.57578 0.79343 0.0
C589 C 0.79394 0.57733 0.72552 0.0
H590 H 0.74824 0.58285 0.96065 0.0
C591 C 0.82806 0.58738 0.77718 0.0
H592 H 0.73858 0.56801 0.75625 0.0
C593 C 0.83344 0.59558 0.89396 0.0
C594 C 0.80488 0.59409 0.96216 0.0
H595 H 0.85071 0.58884 0.7276 0.0
H596 H 0.86027 0.60343 0.93037 0.0
C597 C 0.77073 0.58415 0.91064 0.0
C598 C 0.46699 0.19599 0.91546 0.0
C599 C 0.45797 0.22067 0.96852 0.0
H600 H 0.48226 0.17971 0.75982 0.0
C601 C 0.45724 0.24833 0.90165 0.0
H602 H 0.46767 0.17432 0.96433 0.0
C603 C 0.46527 0.25127 0.78478 0.0
C604 C 0.47443 0.22675 0.73159 0.0
H605 H 0.45012 0.26771 0.9392 0.0
H606 H 0.46443 0.27294 0.73636 0.0
C607 C 0.47523 0.19905 0.79817 0.0
C608 C 0.80302 0.22259 0.77553 0.0
C609 C 0.82507 0.25755 0.7266 0.0
H610 H 0.78882 0.18946 0.92604 0.0
C611 C 0.85056 0.28676 0.79672 0.0
H612 H 0.78321 0.19946 0.72413 0.0
C613 C 0.85381 0.28107 0.91341 0.0
C614 C 0.83156 0.24608 0.96227 0.0
H615 H 0.86792 0.31413 0.76174 0.0
H616 H 0.87363 0.30406 0.96521 0.0
C617 C 0.8062 0.21693 0.89179 0.0
C618 C 0.49865 0.92543 0.23287 0.0
C619 C 0.47118 0.92687 0.29901 0.0
H620 H 0.5152 0.9166 0.068 0.0
C621 C 0.43816 0.91992 0.2454 0.0
H622 H 0.52454 0.93076 0.271 0.0
C623 C 0.43282 0.91176 0.12805 0.0
C624 C 0.46048 0.91058 0.06212 0.0
H625 H 0.41654 0.92098 0.29374 0.0
H626 H 0.40707 0.9065 0.08905 0.0
C627 C 0.49341 0.91749 0.11595 0.0
C628 C 0.13458 0.53023 0.24586 0.0
C629 C 0.12487 0.55453 0.298 0.0
H630 H 0.1505 0.51417 0.09116 0.0
C631 C 0.12361 0.58177 0.2304 0.0
H632 H 0.1357 0.50889 0.29531 0.0
C633 C 0.1318 0.58466 0.11363 0.0
C634 C 0.14162 0.56048 0.06138 0.0
H635 H 0.11595 0.60083 0.26728 0.0
H636 H 0.13053 0.60597 0.06452 0.0
C637 C 0.14294 0.53322 0.12874 0.0
C638 C 0.47315 0.55078 0.22213 0.0
C639 C 0.49853 0.57988 0.29271 0.0
H640 H 0.45028 0.53338 0.05432 0.0
C641 C 0.52095 0.61484 0.24393 0.0
H642 H 0.45566 0.52332 0.25632 0.0
C643 C 0.51784 0.62056 0.12719 0.0
C644 C 0.49232 0.5914 0.05698 0.0
H645 H 0.54078 0.63778 0.29584 0.0
H646 H 0.53531 0.64791 0.09224 0.0
C647 C 0.47011 0.55646 0.10582 0.0
loop_
_geom_bond_atom_site_label_1
_geom_bond_atom_site_label_2
_geom_bond_distance
_geom_bond_site_symmetry_2
_ccdc_geom_bond_type
Co0 H3 2.400 1_556 S
Co0 O4 2.009 1_556 S
Co0 O12 2.115 . S
Co0 O13 2.315 1_556 S
Co0 O24 2.053 . S
Co0 O27 2.094 . S
Co0 O30 2.122 . S
Co1 O4 2.126 . S
Co1 H5 2.388 1_554 S
Co1 O6 2.053 1_554 S
Co1 O9 2.047 . S
Co1 O15 2.113 . S
Co1 O26 2.063 . S
Co2 H3 2.388 1_556 S
Co2 O4 2.053 1_556 S
Co2 O6 2.126 . S
Co2 O11 2.063 . S
Co2 O25 2.047 . S
Co2 O31 2.113 . S
H3 Co0 2.400 1_554 S
H3 Co2 2.388 1_554 S
H3 O4 0.760 . S
O4 Co0 2.009 1_554 S
O4 Co1 2.126 . S
O4 Co2 2.053 1_554 S
O4 H3 0.760 . S
H5 Co1 2.388 1_556 S
H5 O6 0.760 . S
H5 Co7 2.400 1_556 S
O6 Co1 2.053 1_556 S
O6 Co2 2.126 . S
O6 H5 0.760 . S
O6 Co7 2.009 1_556 S
Co7 H5 2.400 1_554 S
Co7 O6 2.009 1_554 S
Co7 O8 2.053 . S
Co7 O10 2.094 . S
Co7 O14 2.122 . S
Co7 O28 2.115 . S
Co7 O29 2.315 1_554 S
O8 Co7 2.053 . S
O8 C20 1.259 . S
O9 Co1 2.047 . S
O9 C20 1.257 . S
O10 Co7 2.094 . S
O10 C21 1.253 . S
O11 Co2 2.063 . S
O11 C21 1.268 1_556 S
O12 Co0 2.115 . S
O12 C22 1.281 . S
O13 Co0 2.315 1_554 S
O13 C22 1.252 1_554 S
O14 Co7 2.122 . S
O14 C23 1.272 . S
O15 Co1 2.113 . S
O15 C23 1.245 . S
C16 O24 1.259 . S
C16 O25 1.257 . S
C17 O26 1.268 1_556 S
C17 O27 1.253 . S
C18 O28 1.281 1_655 S
C18 O29 1.252 1_654 S
C19 O30 1.272 . S
C19 O31 1.245 . S
C20 O8 1.259 . S
C20 O9 1.257 . S
C21 O10 1.253 . S
C21 O11 1.268 1_554 S
C22 O12 1.281 . S
C22 O13 1.252 1_556 S
C23 O14 1.272 . S
C23 O15 1.245 . S
O24 Co0 2.053 . S
O24 C16 1.259 . S
O25 Co2 2.047 . S
O25 C16 1.257 . S
O26 Co1 2.063 . S
O26 C17 1.268 1_554 S
O27 Co0 2.094 . S
O27 C17 1.253 . S
O28 Co7 2.115 . S
O28 C18 1.281 1_455 S
O29 Co7 2.315 1_556 S
O29 C18 1.252 1_456 S
O30 Co0 2.122 . S
O30 C19 1.272 . S
O31 Co2 2.113 . S
O31 C19 1.245 . S
Co32 H35 2.400 1_556 S
Co32 O36 2.009 1_556 S
Co32 O44 2.115 . S
Co32 O45 2.315 1_556 S
Co32 O56 2.053 . S
Co32 O59 2.094 . S
Co32 O62 2.122 . S
Co33 O36 2.126 . S
Co33 H37 2.388 1_554 S
Co33 O38 2.053 1_554 S
Co33 O41 2.047 . S
Co33 O47 2.113 . S
Co33 O58 2.063 . S
Co34 H35 2.388 1_556 S
Co34 O36 2.053 1_556 S
Co34 O38 2.126 . S
Co34 O43 2.063 . S
Co34 O57 2.047 . S
Co34 O63 2.113 . S
H35 Co32 2.400 1_554 S
H35 Co34 2.388 1_554 S
H35 O36 0.760 . S
O36 Co32 2.009 1_554 S
O36 Co33 2.126 . S
O36 Co34 2.053 1_554 S
O36 H35 0.760 . S
H37 Co33 2.388 1_556 S
H37 O38 0.760 . S
H37 Co39 2.400 1_556 S
O38 Co33 2.053 1_556 S
O38 Co34 2.126 . S
O38 H37 0.760 . S
O38 Co39 2.009 1_556 S
Co39 H37 2.400 1_554 S
Co39 O38 2.009 1_554 S
Co39 O40 2.053 . S
Co39 O42 2.094 . S
Co39 O46 2.122 . S
Co39 O60 2.115 . S
Co39 O61 2.315 1_554 S
O40 Co39 2.053 . S
O40 C52 1.259 . S
O41 Co33 2.047 . S
O41 C52 1.257 . S
O42 Co39 2.094 . S
O42 C53 1.253 . S
O43 Co34 2.063 . S
O43 C53 1.268 1_556 S
O44 Co32 2.115 . S
O44 C54 1.281 . S
O45 Co32 2.315 1_554 S
O45 C54 1.252 1_554 S
O46 Co39 2.122 . S
O46 C55 1.272 . S
O47 Co33 2.113 . S
O47 C55 1.245 . S
C48 O56 1.259 . S
C48 O57 1.257 . S
C49 O58 1.268 1_556 S
C49 O59 1.253 . S
C50 O60 1.281 . S
C50 O61 1.252 1_554 S
C51 O62 1.272 . S
C51 O63 1.245 . S
C52 O40 1.259 . S
C52 O41 1.257 . S
C53 O42 1.253 . S
C53 O43 1.268 1_554 S
C54 O44 1.281 . S
C54 O45 1.252 1_556 S
C55 O46 1.272 . S
C55 O47 1.245 . S
O56 Co32 2.053 . S
O56 C48 1.259 . S
O57 Co34 2.047 . S
O57 C48 1.257 . S
O58 Co33 2.063 . S
O58 C49 1.268 1_554 S
O59 Co32 2.094 . S
O59 C49 1.253 . S
O60 Co39 2.115 . S
O60 C50 1.281 . S
O61 Co39 2.315 1_556 S
O61 C50 1.252 1_556 S
O62 Co32 2.122 . S
O62 C51 1.272 . S
O63 Co34 2.113 . S
O63 C51 1.245 . S
Co64 H67 2.400 1_556 S
Co64 O68 2.009 1_556 S
Co64 O76 2.115 . S
Co64 O77 2.315 1_556 S
Co64 O88 2.053 . S
Co64 O91 2.094 . S
Co64 O94 2.122 . S
Co65 O68 2.126 . S
Co65 H69 2.388 1_554 S
Co65 O70 2.053 1_554 S
Co65 O73 2.047 . S
Co65 O79 2.113 . S
Co65 O90 2.063 . S
Co66 H67 2.388 1_556 S
Co66 O68 2.053 1_556 S
Co66 O70 2.126 . S
Co66 O75 2.063 . S
Co66 O89 2.047 . S
Co66 O95 2.113 . S
H67 Co64 2.400 1_554 S
H67 Co66 2.388 1_554 S
H67 O68 0.760 . S
O68 Co64 2.009 1_554 S
O68 Co65 2.126 . S
O68 Co66 2.053 1_554 S
O68 H67 0.760 . S
H69 Co65 2.388 1_556 S
H69 O70 0.760 . S
H69 Co71 2.400 1_556 S
O70 Co65 2.053 1_556 S
O70 Co66 2.126 . S
O70 H69 0.760 . S
O70 Co71 2.009 1_556 S
Co71 H69 2.400 1_554 S
Co71 O70 2.009 1_554 S
Co71 O72 2.053 . S
Co71 O74 2.094 . S
Co71 O78 2.122 . S
Co71 O92 2.115 . S
Co71 O93 2.315 1_554 S
O72 Co71 2.053 . S
O72 C84 1.259 . S
O73 Co65 2.047 . S
O73 C84 1.257 . S
O74 Co71 2.094 . S
O74 C85 1.253 . S
O75 Co66 2.063 . S
O75 C85 1.268 1_556 S
O76 Co64 2.115 . S
O76 C86 1.281 . S
O77 Co64 2.315 1_554 S
O77 C86 1.252 1_554 S
O78 Co71 2.122 . S
O78 C87 1.272 . S
O79 Co65 2.113 . S
O79 C87 1.245 . S
C80 O88 1.259 . S
C80 O89 1.257 . S
C81 O90 1.268 1_556 S
C81 O91 1.253 . S
C82 O92 1.281 1_545 S
C82 O93 1.252 1_544 S
C83 O94 1.272 . S
C83 O95 1.245 . S
C84 O72 1.259 . S
C84 O73 1.257 . S
C85 O74 1.253 . S
C85 O75 1.268 1_554 S
C86 O76 1.281 . S
C86 O77 1.252 1_556 S
C87 O78 1.272 . S
C87 O79 1.245 . S
O88 Co64 2.053 . S
O88 C80 1.259 . S
O89 Co66 2.047 . S
O89 C80 1.257 . S
O90 Co65 2.063 . S
O90 C81 1.268 1_554 S
O91 Co64 2.094 . S
O91 C81 1.253 . S
O92 Co71 2.115 . S
O92 C82 1.281 1_565 S
O93 Co71 2.315 1_556 S
O93 C82 1.252 1_566 S
O94 Co64 2.122 . S
O94 C83 1.272 . S
O95 Co66 2.113 . S
O95 C83 1.245 . S
Co96 H99 2.400 . S
Co96 O100 2.009 . S
Co96 O108 2.115 . S
Co96 O109 2.315 . S
Co96 O120 2.053 . S
Co96 O123 2.094 . S
Co96 O126 2.122 . S
Co97 O100 2.126 . S
Co97 H101 2.388 . S
Co97 O102 2.053 . S
Co97 O105 2.047 . S
Co97 O111 2.113 . S
Co97 O122 2.063 . S
Co98 H99 2.388 . S
Co98 O100 2.053 . S
Co98 O102 2.126 . S
Co98 O107 2.063 . S
Co98 O121 2.047 . S
Co98 O127 2.113 . S
H99 Co96 2.400 . S
H99 Co98 2.388 . S
H99 O100 0.760 . S
O100 Co96 2.009 . S
O100 Co97 2.126 . S
O100 Co98 2.053 . S
O100 H99 0.760 . S
H101 Co97 2.388 . S
H101 O102 0.760 . S
H101 Co103 2.400 . S
O102 Co97 2.053 . S
O102 Co98 2.126 . S
O102 H101 0.760 . S
O102 Co103 2.009 . S
Co103 H101 2.400 . S
Co103 O102 2.009 . S
Co103 O104 2.053 . S
Co103 O106 2.094 . S
Co103 O110 2.122 . S
Co103 O124 2.115 . S
Co103 O125 2.315 . S
O104 Co103 2.053 . S
O104 C116 1.259 . S
O105 Co97 2.047 . S
O105 C116 1.257 . S
O106 Co103 2.094 . S
O106 C117 1.253 . S
O107 Co98 2.063 . S
O107 C117 1.268 . S
O108 Co96 2.115 . S
O108 C118 1.281 . S
O109 Co96 2.315 . S
O109 C118 1.252 . S
O110 Co103 2.122 . S
O110 C119 1.272 . S
O111 Co97 2.113 . S
O111 C119 1.245 . S
C112 O120 1.259 . S
C112 O121 1.257 . S
C113 O122 1.268 . S
C113 O123 1.253 . S
C114 O124 1.281 . S
C114 O125 1.252 . S
C115 O126 1.272 . S
C115 O127 1.245 . S
C116 O104 1.259 . S
C116 O105 1.257 . S
C117 O106 1.253 . S
C117 O107 1.268 . S
C118 O108 1.281 . S
C118 O109 1.252 . S
C119 O110 1.272 . S
C119 O111 1.245 . S
O120 Co96 2.053 . S
O120 C112 1.259 . S
O121 Co98 2.047 . S
O121 C112 1.257 . S
O122 Co97 2.063 . S
O122 C113 1.268 . S
O123 Co96 2.094 . S
O123 C113 1.253 . S
O124 Co103 2.115 . S
O124 C114 1.281 . S
O125 Co103 2.315 . S
O125 C114 1.252 . S
O126 Co96 2.122 . S
O126 C115 1.272 . S
O127 Co98 2.113 . S
O127 C115 1.245 . S
Co128 H131 2.400 . S
Co128 O132 2.009 . S
Co128 O140 2.115 . S
Co128 O141 2.315 . S
Co128 O152 2.053 . S
Co128 O155 2.094 . S
Co128 O158 2.122 . S
Co129 O132 2.126 . S
Co129 H133 2.388 . S
Co129 O134 2.053 . S
Co129 O137 2.047 . S
Co129 O143 2.113 . S
Co129 O154 2.063 . S
Co130 H131 2.388 . S
Co130 O132 2.053 . S
Co130 O134 2.126 . S
Co130 O139 2.063 . S
Co130 O153 2.047 . S
Co130 O159 2.113 . S
H131 Co128 2.400 . S
H131 Co130 2.388 . S
H131 O132 0.760 . S
O132 Co128 2.009 . S
O132 Co129 2.126 . S
O132 Co130 2.053 . S
O132 H131 0.760 . S
H133 Co129 2.388 . S
H133 O134 0.760 . S
H133 Co135 2.400 . S
O134 Co129 2.053 . S
O134 Co130 2.126 . S
O134 H133 0.760 . S
O134 Co135 2.009 . S
Co135 H133 2.400 . S
Co135 O134 2.009 . S
Co135 O136 2.053 . S
Co135 O138 2.094 . S
Co135 O142 2.122 . S
Co135 O156 2.115 . S
Co135 O157 2.315 . S
O136 Co135 2.053 . S
O136 C148 1.259 . S
O137 Co129 2.047 . S
O137 C148 1.257 . S
O138 Co135 2.094 . S
O138 C149 1.253 . S
O139 Co130 2.063 . S
O139 C149 1.268 . S
O140 Co128 2.115 . S
O140 C150 1.281 . S
O141 Co128 2.315 . S
O141 C150 1.252 . S
O142 Co135 2.122 . S
O142 C151 1.272 . S
O143 Co129 2.113 . S
O143 C151 1.245 . S
C144 O152 1.259 . S
C144 O153 1.257 . S
C145 O154 1.268 . S
C145 O155 1.253 . S
C146 O156 1.281 . S
C146 O157 1.252 . S
C147 O158 1.272 . S
C147 O159 1.245 . S
C148 O136 1.259 . S
C148 O137 1.257 . S
C149 O138 1.253 . S
C149 O139 1.268 . S
C150 O140 1.281 . S
C150 O141 1.252 . S
C151 O142 1.272 . S
C151 O143 1.245 . S
O152 Co128 2.053 . S
O152 C144 1.259 . S
O153 Co130 2.047 . S
O153 C144 1.257 . S
O154 Co129 2.063 . S
O154 C145 1.268 . S
O155 Co128 2.094 . S
O155 C145 1.253 . S
O156 Co135 2.115 . S
O156 C146 1.281 . S
O157 Co135 2.315 . S
O157 C146 1.252 . S
O158 Co128 2.122 . S
O158 C147 1.272 . S
O159 Co130 2.113 . S
O159 C147 1.245 . S
Co160 H163 2.400 . S
Co160 O164 2.009 . S
Co160 O172 2.115 . S
Co160 O173 2.315 . S
Co160 O184 2.053 . S
Co160 O187 2.094 . S
Co160 O190 2.122 . S
Co161 O164 2.126 . S
Co161 H165 2.388 . S
Co161 O166 2.053 . S
Co161 O169 2.047 . S
Co161 O175 2.113 . S
Co161 O186 2.063 . S
Co162 H163 2.388 . S
Co162 O164 2.053 . S
Co162 O166 2.126 . S
Co162 O171 2.063 . S
Co162 O185 2.047 . S
Co162 O191 2.113 . S
H163 Co160 2.400 . S
H163 Co162 2.388 . S
H163 O164 0.760 . S
O164 Co160 2.009 . S
O164 Co161 2.126 . S
O164 Co162 2.053 . S
O164 H163 0.760 . S
H165 Co161 2.388 . S
H165 O166 0.760 . S
H165 Co167 2.400 . S
O166 Co161 2.053 . S
O166 Co162 2.126 . S
O166 H165 0.760 . S
O166 Co167 2.009 . S
Co167 H165 2.400 . S
Co167 O166 2.009 . S
Co167 O168 2.053 . S
Co167 O170 2.094 . S
Co167 O174 2.122 . S
Co167 O188 2.115 . S
Co167 O189 2.315 . S
O168 Co167 2.053 . S
O168 C180 1.259 . S
O169 Co161 2.047 . S
O169 C180 1.257 . S
O170 Co167 2.094 . S
O170 C181 1.253 . S
O171 Co162 2.063 . S
O171 C181 1.268 . S
O172 Co160 2.115 . S
O172 C182 1.281 . S
O173 Co160 2.315 . S
O173 C182 1.252 . S
O174 Co167 2.122 . S
O174 C183 1.272 . S
O175 Co161 2.113 . S
O175 C183 1.245 . S
C176 O184 1.259 . S
C176 O185 1.257 . S
C177 O186 1.268 . S
C177 O187 1.253 . S
C178 O188 1.281 . S
C178 O189 1.252 . S
C179 O190 1.272 . S
C179 O191 1.245 . S
C180 O168 1.259 . S
C180 O169 1.257 . S
C181 O170 1.253 . S
C181 O171 1.268 . S
C182 O172 1.281 . S
C182 O173 1.252 . S
C183 O174 1.272 . S
C183 O175 1.245 . S
O184 Co160 2.053 . S
O184 C176 1.259 . S
O185 Co162 2.047 . S
O185 C176 1.257 . S
O186 Co161 2.063 . S
O186 C177 1.268 . S
O187 Co160 2.094 . S
O187 C177 1.253 . S
O188 Co167 2.115 . S
O188 C178 1.281 . S
O189 Co167 2.315 . S
O189 C178 1.252 . S
O190 Co160 2.122 . S
O190 C179 1.272 . S
O191 Co162 2.113 . S
O191 C179 1.245 . S
Co192 H195 2.400 . S
Co192 O196 2.009 . S
Co192 O204 2.108 1_565 S
Co192 O205 2.303 1_565 S
Co192 O216 2.053 . S
Co192 O219 2.094 . S
Co192 O222 2.122 . S
Co193 O196 2.126 . S
Co193 H197 2.388 . S
Co193 O198 2.053 . S
Co193 O201 2.047 . S
Co193 O207 2.113 . S
Co193 O218 2.063 . S
Co194 H195 2.388 . S
Co194 O196 2.053 . S
Co194 O198 2.126 . S
Co194 O203 2.063 . S
Co194 O217 2.047 . S
Co194 O223 2.113 . S
H195 Co192 2.400 . S
H195 Co194 2.388 . S
H195 O196 0.760 . S
O196 Co192 2.009 . S
O196 Co193 2.126 . S
O196 Co194 2.053 . S
O196 H195 0.760 . S
H197 Co193 2.388 . S
H197 O198 0.760 . S
H197 Co199 2.400 . S
O198 Co193 2.053 . S
O198 Co194 2.126 . S
O198 H197 0.760 . S
O198 Co199 2.009 . S
Co199 H197 2.400 . S
Co199 O198 2.009 . S
Co199 O200 2.053 . S
Co199 O202 2.094 . S
Co199 O206 2.122 . S
Co199 O220 2.115 . S
Co199 O221 2.315 . S
O200 Co199 2.053 . S
O200 C212 1.259 . S
O201 Co193 2.047 . S
O201 C212 1.257 . S
O202 Co199 2.094 . S
O202 C213 1.253 . S
O203 Co194 2.063 . S
O203 C213 1.268 . S
O204 Co192 2.108 1_545 S
O204 C214 1.284 . S
O205 Co192 2.303 1_545 S
O205 C214 1.255 . S
O206 Co199 2.122 . S
O206 C215 1.272 . S
O207 Co193 2.113 . S
O207 C215 1.245 . S
C208 O216 1.259 . S
C208 O217 1.257 . S
C209 O218 1.268 . S
C209 O219 1.253 . S
C210 O220 1.281 . S
C210 O221 1.252 . S
C211 O222 1.272 . S
C211 O223 1.245 . S
C212 O200 1.259 . S
C212 O201 1.257 . S
C213 O202 1.253 . S
C213 O203 1.268 . S
C214 O204 1.284 . S
C214 O205 1.255 . S
C215 O206 1.272 . S
C215 O207 1.245 . S
O216 Co192 2.053 . S
O216 C208 1.259 . S
O217 Co194 2.047 . S
O217 C208 1.257 . S
O218 Co193 2.063 . S
O218 C209 1.268 . S
O219 Co192 2.094 . S
O219 C209 1.253 . S
O220 Co199 2.115 . S
O220 C210 1.281 . S
O221 Co199 2.315 . S
O221 C210 1.252 . S
O222 Co192 2.122 . S
O222 C211 1.272 . S
O223 Co194 2.113 . S
O223 C211 1.245 . S
Co224 H227 2.400 . S
Co224 O228 2.009 . S
Co224 O236 2.097 1_455 S
Co224 O237 2.288 1_455 S
Co224 O248 2.053 . S
Co224 O251 2.094 . S
Co224 O254 2.122 . S
Co225 O228 2.126 . S
Co225 H229 2.388 . S
Co225 O230 2.053 . S
Co225 O233 2.047 . S
Co225 O239 2.113 . S
Co225 O250 2.063 . S
Co226 H227 2.388 . S
Co226 O228 2.053 . S
Co226 O230 2.126 . S
Co226 O235 2.063 . S
Co226 O249 2.047 . S
Co226 O255 2.113 . S
H227 Co224 2.400 . S
H227 Co226 2.388 . S
H227 O228 0.760 . S
O228 Co224 2.009 . S
O228 Co225 2.126 . S
O228 Co226 2.053 . S
O228 H227 0.760 . S
H229 Co225 2.388 . S
H229 O230 0.760 . S
H229 Co231 2.400 . S
O230 Co225 2.053 . S
O230 Co226 2.126 . S
O230 H229 0.760 . S
O230 Co231 2.009 . S
Co231 H229 2.400 . S
Co231 O230 2.009 . S
Co231 O232 2.053 . S
Co231 O234 2.094 . S
Co231 O238 2.122 . S
Co231 O252 2.115 . S
Co231 O253 2.315 . S
O232 Co231 2.053 . S
O232 C244 1.259 . S
O233 Co225 2.047 . S
O233 C244 1.257 . S
O234 Co231 2.094 . S
O234 C245 1.253 . S
O235 Co226 2.063 . S
O235 C245 1.268 . S
O236 Co224 2.097 1_655 S
O236 C246 1.290 . S
O237 Co224 2.288 1_655 S
O237 C246 1.268 . S
O238 Co231 2.122 . S
O238 C247 1.272 . S
O239 Co225 2.113 . S
O239 C247 1.245 . S
C240 O248 1.259 . S
C240 O249 1.257 . S
C241 O250 1.268 . S
C241 O251 1.253 . S
C242 O252 1.281 . S
C242 O253 1.252 . S
C243 O254 1.272 . S
C243 O255 1.245 . S
C244 O232 1.259 . S
C244 O233 1.257 . S
C245 O234 1.253 . S
C245 O235 1.268 . S
C246 O236 1.290 . S
C246 O237 1.268 . S
C247 O238 1.272 . S
C247 O239 1.245 . S
O248 Co224 2.053 . S
O248 C240 1.259 . S
O249 Co226 2.047 . S
O249 C240 1.257 . S
O250 Co225 2.063 . S
O250 C241 1.268 . S
O251 Co224 2.094 . S
O251 C241 1.253 . S
O252 Co231 2.115 . S
O252 C242 1.281 . S
O253 Co231 2.315 . S
O253 C242 1.252 . S
O254 Co224 2.122 . S
O254 C243 1.272 . S
O255 Co226 2.113 . S
O255 C243 1.245 . S
Co256 H259 2.400 . S
Co256 O260 2.009 . S
Co256 O268 2.115 . S
Co256 O269 2.315 . S
Co256 O280 2.053 . S
Co256 O283 2.094 . S
Co256 O286 2.122 . S
Co257 O260 2.126 . S
Co257 H261 2.388 . S
Co257 O262 2.053 . S
Co257 O265 2.047 . S
Co257 O271 2.113 . S
Co257 O282 2.063 . S
Co258 H259 2.388 . S
Co258 O260 2.053 . S
Co258 O262 2.126 . S
Co258 O267 2.063 . S
Co258 O281 2.047 . S
Co258 O287 2.113 . S
H259 Co256 2.400 . S
H259 Co258 2.388 . S
H259 O260 0.760 . S
O260 Co256 2.009 . S
O260 Co257 2.126 . S
O260 Co258 2.053 . S
O260 H259 0.760 . S
H261 Co257 2.388 . S
H261 O262 0.760 . S
H261 Co263 2.400 . S
O262 Co257 2.053 . S
O262 Co258 2.126 . S
O262 H261 0.760 . S
O262 Co263 2.009 . S
Co263 H261 2.400 . S
Co263 O262 2.009 . S
Co263 O264 2.053 . S
Co263 O266 2.094 . S
Co263 O270 2.122 . S
Co263 O284 2.115 . S
Co263 O285 2.315 . S
O264 Co263 2.053 . S
O264 C276 1.259 . S
O265 Co257 2.047 . S
O265 C276 1.257 . S
O266 Co263 2.094 . S
O266 C277 1.253 . S
O267 Co258 2.063 . S
O267 C277 1.268 . S
O268 Co256 2.115 . S
O268 C278 1.281 . S
O269 Co256 2.315 . S
O269 C278 1.252 . S
O270 Co263 2.122 . S
O270 C279 1.272 . S
O271 Co257 2.113 . S
O271 C279 1.245 . S
C272 O280 1.259 . S
C272 O281 1.257 . S
C273 O282 1.268 . S
C273 O283 1.253 . S
C274 O284 1.281 . S
C274 O285 1.252 . S
C275 O286 1.272 . S
C275 O287 1.245 . S
C276 O264 1.259 . S
C276 O265 1.257 . S
C277 O266 1.253 . S
C277 O267 1.268 . S
C278 O268 1.281 . S
C278 O269 1.252 . S
C279 O270 1.272 . S
C279 O271 1.245 . S
O280 Co256 2.053 . S
O280 C272 1.259 . S
O281 Co258 2.047 . S
O281 C272 1.257 . S
O282 Co257 2.063 . S
O282 C273 1.268 . S
O283 Co256 2.094 . S
O283 C273 1.253 . S
O284 Co263 2.115 . S
O284 C274 1.281 . S
O285 Co263 2.315 . S
O285 C274 1.252 . S
O286 Co256 2.122 . S
O286 C275 1.272 . S
O287 Co258 2.113 . S
O287 C275 1.245 . S
C288 C289 1.387 . S
C288 H292 0.950 . S
C288 C297 1.390 . S
C289 C288 1.387 . S
C289 C291 1.387 . S
H290 C297 0.950 . S
C291 C289 1.387 . S
C291 C293 1.390 . S
C291 H295 0.950 . S
H292 C288 0.950 . S
C293 C291 1.390 . S
C293 C294 1.387 . S
C293 H296 0.950 . S
C294 C293 1.387 . S
C294 C297 1.387 . S
H295 C291 0.950 . S
H296 C293 0.950 . S
C297 C288 1.390 . S
C297 H290 0.950 . S
C297 C294 1.387 . S
C298 C299 1.387 . S
C298 H302 0.950 . S
C298 C307 1.390 . S
C299 C298 1.387 . S
C299 C301 1.387 . S
H300 C307 0.950 1_556 S
C301 C299 1.387 . S
C301 C303 1.390 1_545 S
C301 H305 0.950 . S
H302 C298 0.950 . S
C303 C301 1.390 1_565 S
C303 C304 1.388 . S
C303 H306 0.950 . S
C304 C303 1.388 . S
C304 C307 1.373 1_565 S
H305 C301 0.950 . S
H306 C303 0.950 . S
C307 C298 1.390 . S
C307 H300 0.950 1_554 S
C307 C304 1.373 1_545 S
C308 C309 1.380 1_655 S
C308 H312 0.950 1_655 S
C308 C317 1.390 . S
C309 C308 1.380 1_455 S
C309 C311 1.385 1_455 S
H310 C317 0.950 . S
C311 C309 1.385 1_655 S
C311 C313 1.390 . S
C311 H315 0.950 1_554 S
H312 C308 0.950 1_455 S
C313 C311 1.390 . S
C313 C314 1.387 . S
C313 H316 0.950 . S
C314 C313 1.387 . S
C314 C317 1.387 . S
H315 C311 0.950 1_556 S
H316 C313 0.950 . S
C317 C308 1.390 . S
C317 H310 0.950 . S
C317 C314 1.387 . S
C318 C319 1.387 . S
C318 H322 0.950 1_554 S
C318 C327 1.390 . S
C319 C318 1.387 . S
C319 C321 1.387 . S
H320 C327 0.950 . S
C321 C319 1.387 . S
C321 C323 1.390 . S
C321 H325 0.950 . S
H322 C318 0.950 1_556 S
C323 C321 1.390 . S
C323 C324 1.387 . S
C323 H326 0.950 . S
C324 C323 1.387 . S
C324 C327 1.387 . S
H325 C321 0.950 . S
H326 C323 0.950 . S
C327 C318 1.390 . S
C327 H320 0.950 . S
C327 C324 1.387 . S
C328 C329 1.387 1_556 S
C328 H332 0.950 . S
C328 C337 1.390 1_556 S
C329 C328 1.387 1_554 S
C329 C331 1.387 . S
H330 C337 0.950 1_556 S
C331 C329 1.387 . S
C331 C333 1.390 . S
C331 H335 0.950 . S
H332 C328 0.950 . S
C333 C331 1.390 . S
C333 C334 1.387 . S
C333 H336 0.950 . S
C334 C333 1.387 . S
C334 C337 1.387 . S
H335 C331 0.950 . S
H336 C333 0.950 . S
C337 C328 1.390 1_554 S
C337 H330 0.950 1_554 S
C337 C334 1.387 . S
C338 C339 1.387 . S
C338 H342 0.950 . S
C338 C347 1.390 . S
C339 C338 1.387 . S
C339 C341 1.387 . S
H340 C347 0.950 . S
C341 C339 1.387 . S
C341 C343 1.390 . S
C341 H345 0.950 . S
H342 C338 0.950 . S
C343 C341 1.390 . S
C343 C344 1.387 . S
C343 H346 0.950 . S
C344 C343 1.387 . S
C344 C347 1.387 . S
H345 C341 0.950 . S
H346 C343 0.950 . S
C347 C338 1.390 . S
C347 H340 0.950 . S
C347 C344 1.387 . S
C348 C349 1.387 . S
C348 H352 0.950 . S
C348 C357 1.390 . S
C349 C348 1.387 . S
C349 C351 1.387 . S
H350 C357 0.950 . S
C351 C349 1.387 . S
C351 C353 1.390 . S
C351 H355 0.950 . S
H352 C348 0.950 . S
C353 C351 1.390 . S
C353 C354 1.387 . S
C353 H356 0.950 . S
C354 C353 1.387 . S
C354 C357 1.387 . S
H355 C351 0.950 . S
H356 C353 0.950 . S
C357 C348 1.390 . S
C357 H350 0.950 . S
C357 C354 1.387 . S
C358 C359 1.387 . S
C358 H362 0.950 . S
C358 C367 1.390 . S
C359 C358 1.387 . S
C359 C361 1.387 . S
H360 C367 0.950 . S
C361 C359 1.387 . S
C361 C363 1.390 . S
C361 H365 0.950 . S
H362 C358 0.950 . S
C363 C361 1.390 . S
C363 C364 1.387 . S
C363 H366 0.950 . S
C364 C363 1.387 . S
C364 C367 1.387 . S
H365 C361 0.950 . S
H366 C363 0.950 . S
C367 C358 1.390 . S
C367 H360 0.950 . S
C367 C364 1.387 . S
C368 C369 1.387 . S
C368 H372 0.950 . S
C368 C377 1.390 . S
C369 C368 1.387 . S
C369 C371 1.387 . S
H370 C377 0.950 . S
C371 C369 1.387 . S
C371 C373 1.390 . S
C371 H375 0.950 . S
H372 C368 0.950 . S
C373 C371 1.390 . S
C373 C374 1.387 . S
C373 H376 0.950 . S
C374 C373 1.387 . S
C374 C377 1.387 . S
H375 C371 0.950 . S
H376 C373 0.950 . S
C377 C368 1.390 . S
C377 H370 0.950 . S
C377 C374 1.387 . S
C378 C379 1.387 . S
C378 H382 0.950 . S
C378 C387 1.390 . S
C379 C378 1.387 . S
C379 C381 1.387 . S
H380 C387 0.950 . S
C381 C379 1.387 . S
C381 C383 1.390 . S
C381 H385 0.950 . S
H382 C378 0.950 . S
C383 C381 1.390 . S
C383 C384 1.387 . S
C383 H386 0.950 . S
C384 C383 1.387 . S
C384 C387 1.387 . S
H385 C381 0.950 . S
H386 C383 0.950 . S
C387 C378 1.390 . S
C387 H380 0.950 . S
C387 C384 1.387 . S
C388 C389 1.387 . S
C388 H392 0.950 . S
C388 C397 1.390 . S
C389 C388 1.387 . S
C389 C391 1.387 . S
H390 C397 0.950 . S
C391 C389 1.387 . S
C391 C393 1.390 . S
C391 H395 0.950 . S
H392 C388 0.950 . S
C393 C391 1.390 . S
C393 C394 1.387 . S
C393 H396 0.950 . S
C394 C393 1.387 . S
C394 C397 1.387 . S
H395 C391 0.950 . S
H396 C393 0.950 . S
C397 C388 1.390 . S
C397 H390 0.950 . S
C397 C394 1.387 . S
C398 C399 1.387 . S
C398 H402 0.950 . S
C398 C407 1.390 . S
C399 C398 1.387 . S
C399 C401 1.387 . S
H400 C407 0.950 . S
C401 C399 1.387 . S
C401 C403 1.390 . S
C401 H405 0.950 . S
H402 C398 0.950 . S
C403 C401 1.390 . S
C403 C404 1.387 . S
C403 H406 0.950 . S
C404 C403 1.387 . S
C404 C407 1.387 . S
H405 C401 0.950 . S
H406 C403 0.950 . S
C407 C398 1.390 . S
C407 H400 0.950 . S
C407 C404 1.387 . S
C408 C409 1.387 . S
C408 H412 0.950 . S
C408 C417 1.390 . S
C409 C408 1.387 . S
C409 C411 1.387 . S
H410 C417 0.950 . S
C411 C409 1.387 . S
C411 C413 1.390 . S
C411 H415 0.950 . S
H412 C408 0.950 . S
C413 C411 1.390 . S
C413 C414 1.387 . S
C413 H416 0.950 . S
C414 C413 1.387 . S
C414 C417 1.387 . S
H415 C411 0.950 . S
H416 C413 0.950 . S
C417 C408 1.390 . S
C417 H410 0.950 . S
C417 C414 1.387 . S
C418 C419 1.387 . S
C418 H422 0.950 . S
C418 C427 1.390 . S
C419 C418 1.387 . S
C419 C421 1.387 . S
H420 C427 0.950 . S
C421 C419 1.387 . S
C421 C423 1.390 . S
C421 H425 0.950 . S
H422 C418 0.950 . S
C423 C421 1.390 . S
C423 C424 1.387 . S
C423 H426 0.950 . S
C424 C423 1.387 . S
C424 C427 1.387 . S
H425 C421 0.950 . S
H426 C423 0.950 . S
C427 C418 1.390 . S
C427 H420 0.950 . S
C427 C424 1.387 . S
C428 C429 1.387 . S
C428 H432 0.950 . S
C428 C437 1.390 . S
C429 C428 1.387 . S
C429 C431 1.387 . S
H430 C437 0.950 . S
C431 C429 1.387 . S
C431 C433 1.390 . S
C431 H435 0.950 . S
H432 C428 0.950 . S
C433 C431 1.390 . S
C433 C434 1.387 . S
C433 H436 0.950 . S
C434 C433 1.387 . S
C434 C437 1.387 . S
H435 C431 0.950 . S
H436 C433 0.950 . S
C437 C428 1.390 . S
C437 H430 0.950 . S
C437 C434 1.387 . S
C438 C439 1.387 . S
C438 H442 0.950 . S
C438 C447 1.390 . S
C439 C438 1.387 . S
C439 C441 1.387 . S
H440 C447 0.950 . S
C441 C439 1.387 . S
C441 C443 1.390 . S
C441 H445 0.950 . S
H442 C438 0.950 . S
C443 C441 1.390 . S
C443 C444 1.387 . S
C443 H446 0.950 . S
C444 C443 1.387 . S
C444 C447 1.387 . S
H445 C441 0.950 . S
H446 C443 0.950 . S
C447 C438 1.390 . S
C447 H440 0.950 . S
C447 C444 1.387 . S
C448 C449 1.387 . S
C448 H452 0.950 . S
C448 C457 1.390 . S
C449 C448 1.387 . S
C449 C451 1.387 . S
H450 C457 0.950 . S
C451 C449 1.387 . S
C451 C453 1.390 . S
C451 H455 0.950 . S
H452 C448 0.950 . S
C453 C451 1.390 . S
C453 C454 1.387 . S
C453 H456 0.950 . S
C454 C453 1.387 . S
C454 C457 1.387 . S
H455 C451 0.950 . S
H456 C453 0.950 . S
C457 C448 1.390 . S
C457 H450 0.950 . S
C457 C454 1.387 . S
C458 C459 1.387 . S
C458 H462 0.950 . S
C458 C467 1.390 . S
C459 C458 1.387 . S
C459 C461 1.387 . S
H460 C467 0.950 . S
C461 C459 1.387 . S
C461 C463 1.390 . S
C461 H465 0.950 . S
H462 C458 0.950 . S
C463 C461 1.390 . S
C463 C464 1.387 . S
C463 H466 0.950 . S
C464 C463 1.387 . S
C464 C467 1.387 . S
H465 C461 0.950 . S
H466 C463 0.950 . S
C467 C458 1.390 . S
C467 H460 0.950 . S
C467 C464 1.387 . S
C468 C469 1.387 . S
C468 H472 0.950 1_554 S
C468 C477 1.390 . S
C469 C468 1.387 . S
C469 C471 1.387 . S
H470 C477 0.950 1_556 S
C471 C469 1.387 . S
C471 C473 1.390 . S
C471 H475 0.950 . S
H472 C468 0.950 1_556 S
C473 C471 1.390 . S
C473 C474 1.387 . S
C473 H476 0.950 . S
C474 C473 1.387 . S
C474 C477 1.387 . S
H475 C471 0.950 . S
H476 C473 0.950 . S
C477 C468 1.390 . S
C477 H470 0.950 1_554 S
C477 C474 1.387 . S
C478 C479 1.387 . S
C478 H482 0.950 . S
C478 C487 1.390 . S
C479 C478 1.387 . S
C479 C481 1.387 . S
H480 C487 0.950 1_565 S
C481 C479 1.387 . S
C481 C483 1.390 . S
C481 H485 0.950 . S
H482 C478 0.950 . S
C483 C481 1.390 . S
C483 C484 1.387 . S
C483 H486 0.950 . S
C484 C483 1.387 . S
C484 C487 1.387 . S
H485 C481 0.950 . S
H486 C483 0.950 . S
C487 C478 1.390 . S
C487 H480 0.950 1_545 S
C487 C484 1.387 . S
C488 C489 1.387 . S
C488 H492 0.950 . S
C488 C497 1.390 . S
C489 C488 1.387 . S
C489 C491 1.387 . S
H490 C497 0.950 . S
C491 C489 1.387 . S
C491 C493 1.390 . S
C491 H495 0.950 1_554 S
H492 C488 0.950 . S
C493 C491 1.390 . S
C493 C494 1.387 . S
C493 H496 0.950 1_554 S
C494 C493 1.387 . S
C494 C497 1.387 . S
H495 C491 0.950 1_556 S
H496 C493 0.950 1_556 S
C497 C488 1.390 . S
C497 H490 0.950 . S
C497 C494 1.387 . S
C498 C499 1.387 . S
C498 H502 0.950 . S
C498 C507 1.390 . S
C499 C498 1.387 . S
C499 C501 1.387 . S
H500 C507 0.950 . S
C501 C499 1.387 . S
C501 C503 1.390 . S
C501 H505 0.950 . S
H502 C498 0.950 . S
C503 C501 1.390 . S
C503 C504 1.387 . S
C503 H506 0.950 . S
C504 C503 1.387 . S
C504 C507 1.387 . S
H505 C501 0.950 . S
H506 C503 0.950 . S
C507 C498 1.390 . S
C507 H500 0.950 . S
C507 C504 1.387 . S
C508 C509 1.387 . S
C508 H512 0.950 . S
C508 C517 1.390 . S
C509 C508 1.387 . S
C509 C511 1.387 . S
H510 C517 0.950 . S
C511 C509 1.387 . S
C511 C513 1.390 . S
C511 H515 0.950 . S
H512 C508 0.950 . S
C513 C511 1.390 . S
C513 C514 1.387 . S
C513 H516 0.950 . S
C514 C513 1.387 . S
C514 C517 1.387 . S
H515 C511 0.950 . S
H516 C513 0.950 . S
C517 C508 1.390 . S
C517 H510 0.950 . S
C517 C514 1.387 . S
C518 C519 1.387 . S
C518 H522 0.950 . S
C518 C527 1.390 . S
C519 C518 1.387 . S
C519 C521 1.387 . S
H520 C527 0.950 . S
C521 C519 1.387 . S
C521 C523 1.390 . S
C521 H525 0.950 . S
H522 C518 0.950 . S
C523 C521 1.390 . S
C523 C524 1.387 . S
C523 H526 0.950 . S
C524 C523 1.387 . S
C524 C527 1.387 . S
H525 C521 0.950 . S
H526 C523 0.950 . S
C527 C518 1.390 . S
C527 H520 0.950 . S
C527 C524 1.387 . S
C528 C529 1.387 . S
C528 H532 0.950 . S
C528 C537 1.390 . S
C529 C528 1.387 . S
C529 C531 1.387 . S
H530 C537 0.950 . S
C531 C529 1.387 . S
C531 C533 1.390 . S
C531 H535 0.950 . S
H532 C528 0.950 . S
C533 C531 1.390 . S
C533 C534 1.387 . S
C533 H536 0.950 . S
C534 C533 1.387 . S
C534 C537 1.387 . S
H535 C531 0.950 . S
H536 C533 0.950 . S
C537 C528 1.390 . S
C537 H530 0.950 . S
C537 C534 1.387 . S
C538 C539 1.387 . S
C538 H542 0.950 . S
C538 C547 1.390 . S
C539 C538 1.387 . S
C539 C541 1.387 . S
H540 C547 0.950 . S
C541 C539 1.387 . S
C541 C543 1.390 . S
C541 H545 0.950 . S
H542 C538 0.950 . S
C543 C541 1.390 . S
C543 C544 1.387 . S
C543 H546 0.950 . S
C544 C543 1.387 . S
C544 C547 1.387 . S
H545 C541 0.950 . S
H546 C543 0.950 . S
C547 C538 1.390 . S
C547 H540 0.950 . S
C547 C544 1.387 . S
C548 C549 1.387 . S
C548 H552 0.950 . S
C548 C557 1.390 . S
C549 C548 1.387 . S
C549 C551 1.387 . S
H550 C557 0.950 . S
C551 C549 1.387 . S
C551 C553 1.390 . S
C551 H555 0.950 . S
H552 C548 0.950 . S
C553 C551 1.390 . S
C553 C554 1.387 . S
C553 H556 0.950 . S
C554 C553 1.387 . S
C554 C557 1.387 . S
H555 C551 0.950 . S
H556 C553 0.950 . S
C557 C548 1.390 . S
C557 H550 0.950 . S
C557 C554 1.387 . S
C558 C559 1.387 . S
C558 H562 0.950 . S
C558 C567 1.390 . S
C559 C558 1.387 . S
C559 C561 1.387 . S
H560 C567 0.950 . S
C561 C559 1.387 . S
C561 C563 1.390 . S
C561 H565 0.950 . S
H562 C558 0.950 . S
C563 C561 1.390 . S
C563 C564 1.387 . S
C563 H566 0.950 . S
C564 C563 1.387 . S
C564 C567 1.387 . S
H565 C561 0.950 . S
H566 C563 0.950 . S
C567 C558 1.390 . S
C567 H560 0.950 . S
C567 C564 1.387 . S
C568 C569 1.387 . S
C568 H572 0.950 . S
C568 C577 1.390 . S
C569 C568 1.387 . S
C569 C571 1.387 . S
H570 C577 0.950 . S
C571 C569 1.387 . S
C571 C573 1.390 . S
C571 H575 0.950 . S
H572 C568 0.950 . S
C573 C571 1.390 . S
C573 C574 1.387 . S
C573 H576 0.950 . S
C574 C573 1.387 . S
C574 C577 1.387 . S
H575 C571 0.950 . S
H576 C573 0.950 . S
C577 C568 1.390 . S
C577 H570 0.950 . S
C577 C574 1.387 . S
C578 C579 1.387 . S
C578 H582 0.950 . S
C578 C587 1.390 . S
C579 C578 1.387 . S
C579 C581 1.387 . S
H580 C587 0.950 . S
C581 C579 1.387 . S
C581 C583 1.390 . S
C581 H585 0.950 . S
H582 C578 0.950 . S
C583 C581 1.390 . S
C583 C584 1.387 . S
C583 H586 0.950 . S
C584 C583 1.387 . S
C584 C587 1.387 . S
H585 C581 0.950 . S
H586 C583 0.950 . S
C587 C578 1.390 . S
C587 H580 0.950 . S
C587 C584 1.387 . S
C588 C589 1.387 . S
C588 H592 0.950 . S
C588 C597 1.390 . S
C589 C588 1.387 . S
C589 C591 1.387 . S
H590 C597 0.950 . S
C591 C589 1.387 . S
C591 C593 1.390 . S
C591 H595 0.950 . S
H592 C588 0.950 . S
C593 C591 1.390 . S
C593 C594 1.387 . S
C593 H596 0.950 . S
C594 C593 1.387 . S
C594 C597 1.387 . S
H595 C591 0.950 . S
H596 C593 0.950 . S
C597 C588 1.390 . S
C597 H590 0.950 . S
C597 C594 1.387 . S
C598 C599 1.387 . S
C598 H602 0.950 . S
C598 C607 1.390 . S
C599 C598 1.387 . S
C599 C601 1.387 . S
H600 C607 0.950 . S
C601 C599 1.387 . S
C601 C603 1.390 . S
C601 H605 0.950 . S
H602 C598 0.950 . S
C603 C601 1.390 . S
C603 C604 1.387 . S
C603 H606 0.950 . S
C604 C603 1.387 . S
C604 C607 1.387 . S
H605 C601 0.950 . S
H606 C603 0.950 . S
C607 C598 1.390 . S
C607 H600 0.950 . S
C607 C604 1.387 . S
C608 C609 1.387 . S
C608 H612 0.950 . S
C608 C617 1.390 . S
C609 C608 1.387 . S
C609 C611 1.387 . S
H610 C617 0.950 . S
C611 C609 1.387 . S
C611 C613 1.390 . S
C611 H615 0.950 . S
H612 C608 0.950 . S
C613 C611 1.390 . S
C613 C614 1.387 . S
C613 H616 0.950 . S
C614 C613 1.387 . S
C614 C617 1.387 . S
H615 C611 0.950 . S
H616 C613 0.950 . S
C617 C608 1.390 . S
C617 H610 0.950 . S
C617 C614 1.387 . S
C618 C619 1.387 . S
C618 H622 0.950 . S
C618 C627 1.390 . S
C619 C618 1.387 . S
C619 C621 1.387 . S
H620 C627 0.950 . S
C621 C619 1.387 . S
C621 C623 1.390 . S
C621 H625 0.950 . S
H622 C618 0.950 . S
C623 C621 1.390 . S
C623 C624 1.387 . S
C623 H626 0.950 . S
C624 C623 1.387 . S
C624 C627 1.387 . S
H625 C621 0.950 . S
H626 C623 0.950 . S
C627 C618 1.390 . S
C627 H620 0.950 . S
C627 C624 1.387 . S
C628 C629 1.387 . S
C628 H632 0.950 . S
C628 C637 1.390 . S
C629 C628 1.387 . S
C629 C631 1.387 . S
H630 C637 0.950 . S
C631 C629 1.387 . S
C631 C633 1.390 . S
C631 H635 0.950 . S
H632 C628 0.950 . S
C633 C631 1.390 . S
C633 C634 1.387 . S
C633 H636 0.950 . S
C634 C633 1.387 . S
C634 C637 1.387 . S
H635 C631 0.950 . S
H636 C633 0.950 . S
C637 C628 1.390 . S
C637 H630 0.950 . S
C637 C634 1.387 . S
C638 C639 1.387 . S
C638 H642 0.950 . S
C638 C647 1.390 . S
C639 C638 1.387 . S
C639 C641 1.387 . S
H640 C647 0.950 . S
C641 C639 1.387 . S
C641 C643 1.390 . S
C641 H645 0.950 . S
H642 C638 0.950 . S
C643 C641 1.390 . S
C643 C644 1.387 . S
C643 H646 0.950 . S
C644 C643 1.387 . S
C644 C647 1.387 . S
H645 C641 0.950 . S
H646 C643 0.950 . S
C647 C638 1.390 . S
C647 H640 0.950 . S
C647 C644 1.387 . S
C289 C17 1.656 1_554 S
C294 C150 1.634 . S
C299 C182 1.635 . S
C304 C49 1.673 1_554 S
C309 C81 1.668 1_554 S
C314 C118 1.634 . S
C319 C53 2.189 . S
C324 C112 2.248 . S
C329 C85 2.188 1_545 S
C334 C144 2.248 . S
C339 C21 2.190 1_655 S
C344 C176 2.249 . S
C349 C113 1.656 . S
C354 C246 1.634 . S
C359 C278 1.636 . S
C364 C145 1.656 . S
C369 C214 1.634 . S
C374 C177 1.657 . S
C379 C149 2.189 . S
C384 C208 2.248 1_545 S
C389 C240 2.248 1_655 S
C394 C181 2.188 . S
C399 C272 2.249 . S
C404 C117 2.190 . S
C409 C209 1.656 . S
C414 C54 1.634 . S
C419 C241 1.657 . S
C424 C86 1.637 . S
C429 C22 1.634 . S
C434 C273 1.656 . S
C439 C16 2.248 . S
C444 C245 2.189 . S
C449 C48 2.248 . S
C454 C277 2.188 . S
C459 C213 2.190 . S
C464 C80 2.249 . S
C469 C82 1.475 . S
C474 C20 1.499 . S
C479 C18 1.474 . S
C484 C52 1.499 1_545 S
C489 C50 1.472 . S
C494 C84 1.498 1_655 S
C499 C178 1.472 . S
C504 C116 1.498 . S
C509 C114 1.472 . S
C514 C148 1.498 . S
C519 C146 1.472 . S
C524 C180 1.498 . S
C529 C212 1.498 . S
C534 C274 1.474 . S
C539 C244 1.498 . S
C544 C210 1.472 . S
C549 C276 1.498 . S
C554 C242 1.472 . S
C559 C19 1.326 . S
C564 C23 1.326 . S
C569 C55 1.325 . S
C574 C51 1.325 . S
C579 C83 1.324 . S
C584 C87 1.324 . S
C589 C119 1.325 . S
C594 C115 1.325 1_556 S
C599 C147 1.326 1_556 S
C604 C151 1.326 . S
C609 C183 1.326 . S
C614 C179 1.326 1_556 S
C619 C211 1.324 . S
C624 C215 1.324 1_554 S
C629 C243 1.326 . S
C634 C247 1.326 1_554 S
C639 C275 1.326 . S
C644 C279 1.326 1_554 S
