# Generated by pormake.
# Topology zfv, (5)-cn, num edge types: 1
# Building blocks:
#     Node 0, Type 0, BuildingBlock: XOMCOT_clean_sbu_0, # of connection points: 5
#     Node 1, Type 0, BuildingBlock: XOMCOT_clean_sbu_0, # of connection points: 5
#     Node 2, Type 0, BuildingBlock: XOMCOT_clean_sbu_0, # of connection points: 5
#     Node 3, Type 0, BuildingBlock: XOMCOT_clean_sbu_0, # of connection points: 5
#     Node 4, Type 0, BuildingBlock: XOMCOT_clean_sbu_0, # of connection points: 5
#     Node 5, Type 0, BuildingBlock: XOMCOT_clean_sbu_0, # of connection points: 5
#     Node 6, Type 0, BuildingBlock: XOMCOT_clean_sbu_0, # of connection points: 5
#     Node 7, Type 0, BuildingBlock: XOMCOT_clean_sbu_0, # of connection points: 5
#     Node 8, Type 0, BuildingBlock: XOMCOT_clean_sbu_0, # of connection points: 5
#     Node 9, Type 0, BuildingBlock: XOMCOT_clean_sbu_0, # of connection points: 5
#     Node 10, Type 0, BuildingBlock: XOMCOT_clean_sbu_0, # of connection points: 5
#     Node 11, Type 0, BuildingBlock: XOMCOT_clean_sbu_0, # of connection points: 5
#     Node 12, Type 0, BuildingBlock: XOMCOT_clean_sbu_0, # of connection points: 5
#     Node 13, Type 0, BuildingBlock: XOMCOT_clean_sbu_0, # of connection points: 5
#     Node 14, Type 0, BuildingBlock: XOMCOT_clean_sbu_0, # of connection points: 5
#     Node 15, Type 0, BuildingBlock: XOMCOT_clean_sbu_0, # of connection points: 5
#     Edge 16, Type (0, 0), BuildingBlock: UVAHIK_clean_linker_0, # of connection points: 2
#     Edge 17, Type (0, 0), BuildingBlock: UVAHIK_clean_linker_0, # of connection points: 2
#     Edge 18, Type (0, 0), BuildingBlock: UVAHIK_clean_linker_0, # of connection points: 2
#     Edge 19, Type (0, 0), BuildingBlock: UVAHIK_clean_linker_0, # of connection points: 2
#     Edge 20, Type (0, 0), BuildingBlock: UVAHIK_clean_linker_0, # of connection points: 2
#     Edge 21, Type (0, 0), BuildingBlock: UVAHIK_clean_linker_0, # of connection points: 2
#     Edge 22, Type (0, 0), BuildingBlock: UVAHIK_clean_linker_0, # of connection points: 2
#     Edge 23, Type (0, 0), BuildingBlock: UVAHIK_clean_linker_0, # of connection points: 2
#     Edge 24, Type (0, 0), BuildingBlock: UVAHIK_clean_linker_0, # of connection points: 2
#     Edge 25, Type (0, 0), BuildingBlock: UVAHIK_clean_linker_0, # of connection points: 2
#     Edge 26, Type (0, 0), BuildingBlock: UVAHIK_clean_linker_0, # of connection points: 2
#     Edge 27, Type (0, 0), BuildingBlock: UVAHIK_clean_linker_0, # of connection points: 2
#     Edge 28, Type (0, 0), BuildingBlock: UVAHIK_clean_linker_0, # of connection points: 2
#     Edge 29, Type (0, 0), BuildingBlock: UVAHIK_clean_linker_0, # of connection points: 2
#     Edge 30, Type (0, 0), BuildingBlock: UVAHIK_clean_linker_0, # of connection points: 2
#     Edge 31, Type (0, 0), BuildingBlock: UVAHIK_clean_linker_0, # of connection points: 2
#     Edge 32, Type (0, 0), BuildingBlock: UVAHIK_clean_linker_0, # of connection points: 2
#     Edge 33, Type (0, 0), BuildingBlock: UVAHIK_clean_linker_0, # of connection points: 2
#     Edge 34, Type (0, 0), BuildingBlock: UVAHIK_clean_linker_0, # of connection points: 2
#     Edge 35, Type (0, 0), BuildingBlock: UVAHIK_clean_linker_0, # of connection points: 2
#     Edge 36, Type (0, 0), BuildingBlock: UVAHIK_clean_linker_0, # of connection points: 2
#     Edge 37, Type (0, 0), BuildingBlock: UVAHIK_clean_linker_0, # of connection points: 2
#     Edge 38, Type (0, 0), BuildingBlock: UVAHIK_clean_linker_0, # of connection points: 2
#     Edge 39, Type (0, 0), BuildingBlock: UVAHIK_clean_linker_0, # of connection points: 2
#     Edge 40, Type (0, 0), BuildingBlock: UVAHIK_clean_linker_0, # of connection points: 2
#     Edge 41, Type (0, 0), BuildingBlock: UVAHIK_clean_linker_0, # of connection points: 2
#     Edge 42, Type (0, 0), BuildingBlock: UVAHIK_clean_linker_0, # of connection points: 2
#     Edge 43, Type (0, 0), BuildingBlock: UVAHIK_clean_linker_0, # of connection points: 2
#     Edge 44, Type (0, 0), BuildingBlock: UVAHIK_clean_linker_0, # of connection points: 2
#     Edge 45, Type (0, 0), BuildingBlock: UVAHIK_clean_linker_0, # of connection points: 2
#     Edge 46, Type (0, 0), BuildingBlock: UVAHIK_clean_linker_0, # of connection points: 2
#     Edge 47, Type (0, 0), BuildingBlock: UVAHIK_clean_linker_0, # of connection points: 2
#     Edge 48, Type (0, 0), BuildingBlock: UVAHIK_clean_linker_0, # of connection points: 2
#     Edge 49, Type (0, 0), BuildingBlock: UVAHIK_clean_linker_0, # of connection points: 2
#     Edge 50, Type (0, 0), BuildingBlock: UVAHIK_clean_linker_0, # of connection points: 2
#     Edge 51, Type (0, 0), BuildingBlock: UVAHIK_clean_linker_0, # of connection points: 2
#     Edge 52, Type (0, 0), BuildingBlock: UVAHIK_clean_linker_0, # of connection points: 2
#     Edge 53, Type (0, 0), BuildingBlock: UVAHIK_clean_linker_0, # of connection points: 2
#     Edge 54, Type (0, 0), BuildingBlock: UVAHIK_clean_linker_0, # of connection points: 2
#     Edge 55, Type (0, 0), BuildingBlock: UVAHIK_clean_linker_0, # of connection points: 2
# Relax obj value: 0.145
# Max RMSD: 0.146
# Mean RMSD: 0.146
data_MOF--net-zfv--node1-XOMCOT_clean_sbu_0--edge1-UVAHIK_clean_linker_0
_symmetry_space_group_name_H-M    P1
_symmetry_Int_Tables_number       1
_symmetry_cell_setting            triclinic
loop_
_symmetry_equiv_pos_as_xyz
'x, y, z'
_cell_length_a     97.105886
_cell_length_b     97.050751
_cell_length_c     22.113174
_cell_angle_alpha  90.016899
_cell_angle_beta   90.005009
_cell_angle_gamma 89.999709
loop_
_atom_site_label
_atom_site_type_symbol
_atom_site_fract_x
_atom_site_fract_y
_atom_site_fract_z
_atom_type_partial_charge
Co0 Co 0.06631 0.5861 0.12903 0.0
C1 C 0.06761 0.58919 0.99596 0.0
C2 C 0.08721 0.59289 0.03795 0.0
C3 C 0.08873 0.59418 0.97639 0.0
N4 N 0.07397 0.58986 0.05014 0.0
N5 N 0.07642 0.59181 0.95003 0.0
H6 H 0.05681 0.58673 0.99037 0.0
H7 H 0.09531 0.59376 0.07127 0.0
C8 C 0.0797 0.60902 0.20067 0.0
O9 O 0.06785 0.61244 0.22511 0.0
N10 N 0.05885 0.58193 0.20905 0.0
C11 C 0.04688 0.57543 0.22148 0.0
C12 C 0.04569 0.57371 0.28287 0.0
C13 C 0.06507 0.58335 0.26348 0.0
N14 N 0.0571 0.57876 0.30942 0.0
C15 C 0.03953 0.59852 0.12122 0.0
C16 C 0.04856 0.62525 0.10461 0.0
C17 C 0.03458 0.62292 0.11697 0.0
C18 C 0.03002 0.60926 0.12196 0.0
C19 C 0.0577 0.61413 0.10346 0.0
N20 N 0.05329 0.60114 0.11749 0.0
H21 H 0.03579 0.58813 0.12414 0.0
H22 H 0.06845 0.61608 0.09416 0.0
H23 H 0.03962 0.57163 0.18853 0.0
H24 H 0.07542 0.58718 0.26949 0.0
O25 O 0.05565 0.57126 0.09504 0.0
O26 O 0.07682 0.56931 0.13226 0.0
O27 O 0.08056 0.59875 0.16477 0.0
C28 C 0.06624 0.56349 0.1067 0.0
H29 H 0.09828 0.59619 0.95273 0.0
H30 H 0.03702 0.56908 0.30597 0.0
H31 H 0.05254 0.63558 0.09857 0.0
H32 H 0.01919 0.60687 0.12754 0.0
Co33 Co 0.71077 0.76002 0.36038 0.0
C34 C 0.70874 0.76229 0.22706 0.0
C35 C 0.70524 0.78169 0.27118 0.0
C36 C 0.70458 0.78368 0.2097 0.0
N37 N 0.70779 0.76828 0.28198 0.0
N38 N 0.70686 0.7715 0.18181 0.0
H39 H 0.71117 0.75151 0.22061 0.0
H40 H 0.70417 0.78955 0.30551 0.0
C41 C 0.68733 0.77293 0.4295 0.0
O42 O 0.68362 0.76082 0.4505 0.0
N43 N 0.71421 0.75196 0.4401 0.0
C44 C 0.72061 0.73989 0.45198 0.0
C45 C 0.72172 0.73821 0.51344 0.0
C46 C 0.71232 0.75778 0.49516 0.0
N47 N 0.71643 0.74943 0.54063 0.0
C48 C 0.69782 0.73349 0.34875 0.0
C49 C 0.67167 0.74327 0.32455 0.0
C50 C 0.67347 0.7292 0.33645 0.0
C51 C 0.68686 0.72425 0.34588 0.0
C52 C 0.68301 0.75212 0.3272 0.0
N53 N 0.69564 0.74733 0.34462 0.0
H54 H 0.70802 0.72946 0.35502 0.0
H55 H 0.68147 0.76295 0.3181 0.0
H56 H 0.72481 0.73294 0.41867 0.0
H57 H 0.70822 0.768 0.50219 0.0
O58 O 0.72569 0.74934 0.32715 0.0
O59 O 0.72769 0.77023 0.36747 0.0
O60 O 0.69799 0.77417 0.39617 0.0
C61 C 0.73353 0.75976 0.34109 0.0
H62 H 0.70261 0.79341 0.18749 0.0
H63 H 0.72648 0.72957 0.5363 0.0
H64 H 0.66158 0.74743 0.31461 0.0
H65 H 0.6888 0.7134 0.35357 0.0
Co66 Co 0.53716 0.40363 0.59736 0.0
C67 C 0.53201 0.40452 0.46361 0.0
C68 C 0.52854 0.38453 0.50195 0.0
C69 C 0.52639 0.38375 0.44066 0.0
N70 N 0.53198 0.39757 0.51666 0.0
N71 N 0.52858 0.39631 0.41645 0.0
H72 H 0.53465 0.41528 0.45918 0.0
H73 H 0.52811 0.376 0.53332 0.0
C74 C 0.51088 0.3911 0.63218 0.0
O75 O 0.50522 0.40294 0.61785 0.0
N76 N 0.54246 0.40938 0.67778 0.0
C77 C 0.55487 0.41455 0.69276 0.0
C78 C 0.55514 0.41694 0.75396 0.0
C79 C 0.53533 0.40861 0.73011 0.0
N80 N 0.54288 0.4132 0.77752 0.0
C81 C 0.56144 0.39045 0.55435 0.0
C82 C 0.56301 0.37091 0.64523 0.0
C83 C 0.57318 0.37109 0.60011 0.0
C84 C 0.57229 0.38104 0.55422 0.0
C85 C 0.55237 0.38054 0.64376 0.0
N86 N 0.55166 0.39006 0.59849 0.0
H87 H 0.56086 0.39814 0.51906 0.0
H88 H 0.54477 0.38044 0.67945 0.0
H89 H 0.56327 0.41616 0.66145 0.0
H90 H 0.52492 0.40473 0.73354 0.0
O91 O 0.54733 0.41901 0.56463 0.0
O92 O 0.5253 0.41953 0.59062 0.0
O93 O 0.52393 0.38981 0.63101 0.0
C94 C 0.53601 0.42606 0.57003 0.0
H95 H 0.52397 0.37448 0.41564 0.0
H96 H 0.56389 0.42069 0.77945 0.0
H97 H 0.56321 0.36335 0.68121 0.0
H98 H 0.58002 0.38169 0.51904 0.0
Co99 Co 0.89452 0.22832 0.87822 0.0
C100 C 0.89497 0.22557 0.74497 0.0
C101 C 0.89783 0.20612 0.7896 0.0
C102 C 0.89799 0.20396 0.72812 0.0
N103 N 0.89598 0.21966 0.79999 0.0
N104 N 0.89616 0.21618 0.69997 0.0
H105 H 0.89315 0.23646 0.73828 0.0
H106 H 0.89891 0.19835 0.82432 0.0
C107 C 0.9192 0.2166 0.94293 0.0
O108 O 0.92239 0.22884 0.96416 0.0
N109 N 0.89275 0.2368 0.95784 0.0
C110 C 0.88819 0.24961 0.97078 0.0
C111 C 0.88758 0.25123 0.03241 0.0
C112 C 0.89414 0.2306 0.01234 0.0
N113 N 0.8914 0.2393 0.05861 0.0
C114 C 0.90517 0.25509 0.84874 0.0
C115 C 0.93216 0.24703 0.83187 0.0
C116 C 0.92916 0.26113 0.83665 0.0
C117 C 0.91531 0.2651 0.84123 0.0
C118 C 0.92159 0.23738 0.83866 0.0
N119 N 0.90858 0.24152 0.85376 0.0
H120 H 0.89459 0.25833 0.85124 0.0
H121 H 0.92403 0.22658 0.83425 0.0
H122 H 0.88476 0.25715 0.93843 0.0
H123 H 0.89702 0.21992 0.0181 0.0
O124 O 0.87838 0.2381 0.85141 0.0
O125 O 0.87837 0.21746 0.8949 0.0
O126 O 0.90858 0.21493 0.90972 0.0
C127 C 0.87142 0.22752 0.87074 0.0
H128 H 0.89946 0.19412 0.70604 0.0
H129 H 0.88408 0.26034 0.05606 0.0
H130 H 0.94262 0.2434 0.82592 0.0
H131 H 0.91236 0.27586 0.84065 0.0
Co132 Co 0.06687 0.39775 0.9213 0.0
C133 C 0.0685 0.39507 0.05442 0.0
C134 C 0.08829 0.39289 0.01209 0.0
C135 C 0.08997 0.39179 0.07363 0.0
N136 N 0.07484 0.39482 1.00015 0.0
N137 N 0.07754 0.39319 0.10019 0.0
H138 H 0.05755 0.39666 0.06018 0.0
H139 H 0.09638 0.39268 0.97856 0.0
C140 C 0.08018 0.37453 0.8515 0.0
O141 O 0.06831 0.37123 0.82689 0.0
N142 N 0.05909 0.4011 0.84121 0.0
C143 C 0.04682 0.40699 0.82846 0.0
C144 C 0.04558 0.40856 0.76703 0.0
C145 C 0.06541 0.39991 0.78692 0.0
N146 N 0.05726 0.40406 0.74076 0.0
C147 C 0.04026 0.38527 0.93564 0.0
C148 C 0.04955 0.3587 0.95421 0.0
C149 C 0.03543 0.36098 0.94586 0.0
C150 C 0.03077 0.37454 0.93911 0.0
C151 C 0.05867 0.36982 0.95116 0.0
N152 N 0.05406 0.3827 0.93652 0.0
H153 H 0.03645 0.39563 0.93197 0.0
H154 H 0.0695 0.36796 0.95877 0.0
H155 H 0.03942 0.4106 0.86114 0.0
H156 H 0.07594 0.39658 0.78125 0.0
O157 O 0.05616 0.41277 0.95333 0.0
O158 O 0.07718 0.41462 0.91431 0.0
O159 O 0.08111 0.38487 0.88697 0.0
C160 C 0.06661 0.42056 0.93956 0.0
H161 H 0.09967 0.39056 0.09715 0.0
H162 H 0.03674 0.41278 0.74375 0.0
H163 H 0.05351 0.34843 0.96227 0.0
H164 H 0.01991 0.37684 0.93432 0.0
Co165 Co 0.89982 0.76116 0.17514 0.0
C166 C 0.90001 0.76387 0.30851 0.0
C167 C 0.90033 0.7835 0.26378 0.0
C168 C 0.90017 0.7857 0.3252 0.0
N169 N 0.90031 0.76985 0.25349 0.0
N170 N 0.89993 0.77335 0.35341 0.0
H171 H 0.89956 0.75284 0.31527 0.0
H172 H 0.90027 0.79133 0.22899 0.0
C173 C 0.9239 0.77469 0.11248 0.0
O174 O 0.92745 0.76286 0.08807 0.0
N175 N 0.89897 0.75267 0.09533 0.0
C176 C 0.89565 0.7395 0.08198 0.0
C177 C 0.89525 0.73792 0.02033 0.0
C178 C 0.89979 0.75905 0.04103 0.0
N179 N 0.89792 0.75019 0.99453 0.0
C180 C 0.9121 0.73518 0.20635 0.0
C181 C 0.93843 0.74502 0.22528 0.0
C182 C 0.9363 0.73076 0.22246 0.0
C183 C 0.92281 0.72587 0.21595 0.0
C184 C 0.92734 0.75395 0.2162 0.0
N185 N 0.91466 0.74893 0.20063 0.0
H186 H 0.90177 0.73125 0.20295 0.0
H187 H 0.92907 0.76489 0.22044 0.0
H188 H 0.89292 0.73162 0.114 0.0
H189 H 0.90168 0.76997 0.03563 0.0
O190 O 0.88426 0.75027 0.20045 0.0
O191 O 0.88301 0.77091 0.15741 0.0
O192 O 0.91316 0.77553 0.14563 0.0
C193 C 0.87667 0.76041 0.1812 0.0
H194 H 0.90028 0.79566 0.34719 0.0
H195 H 0.89264 0.72855 0.99637 0.0
H196 H 0.94859 0.74923 0.23351 0.0
H197 H 0.92059 0.71493 0.21575 0.0
Co198 Co 0.5365 0.59434 0.44694 0.0
C199 C 0.53423 0.59556 0.5804 0.0
C200 C 0.51453 0.59672 0.53653 0.0
C201 C 0.51251 0.59727 0.59802 0.0
N202 N 0.52813 0.59576 0.52564 0.0
N203 N 0.52489 0.59654 0.62556 0.0
H204 H 0.54525 0.59476 0.58693 0.0
H205 H 0.50662 0.59675 0.50214 0.0
C206 C 0.52384 0.61846 0.38008 0.0
O207 O 0.53554 0.6211 0.35247 0.0
N208 N 0.54468 0.59262 0.36693 0.0
C209 C 0.55779 0.58923 0.35331 0.0
C210 C 0.55905 0.58789 0.29179 0.0
C211 C 0.53803 0.59271 0.31317 0.0
N212 N 0.54663 0.5901 0.26643 0.0
C213 C 0.56323 0.60467 0.47851 0.0
C214 C 0.55608 0.63217 0.48314 0.0
C215 C 0.57008 0.6286 0.48104 0.0
C216 C 0.57355 0.61459 0.48293 0.0
C217 C 0.54609 0.62183 0.47956 0.0
N218 N 0.54983 0.60843 0.47018 0.0
H219 H 0.56612 0.59396 0.47975 0.0
H220 H 0.5354 0.62475 0.4823 0.0
H221 H 0.56591 0.58724 0.38524 0.0
H222 H 0.52706 0.59435 0.30854 0.0
O223 O 0.54638 0.57815 0.47259 0.0
O224 O 0.52559 0.57817 0.43086 0.0
O225 O 0.5229 0.60839 0.41697 0.0
C226 C 0.53576 0.57119 0.45382 0.0
H227 H 0.50264 0.59779 0.62071 0.0
H228 H 0.56844 0.58543 0.26773 0.0
H229 H 0.55282 0.64283 0.48441 0.0
H230 H 0.58419 0.61129 0.48565 0.0
Co231 Co 0.70831 0.2291 0.66064 0.0
C232 C 0.70583 0.22797 0.79541 0.0
C233 C 0.68722 0.22181 0.75074 0.0
C234 C 0.68528 0.22061 0.81211 0.0
N235 N 0.70018 0.22622 0.74002 0.0
N236 N 0.69698 0.22451 0.83993 0.0
H237 H 0.71621 0.23152 0.80356 0.0
H238 H 0.67957 0.21969 0.71651 0.0
C239 C 0.69705 0.20295 0.61554 0.0
O240 O 0.70972 0.19822 0.61602 0.0
N241 N 0.71619 0.23201 0.58058 0.0
C242 C 0.72776 0.23912 0.56691 0.0
C243 C 0.72972 0.23889 0.50537 0.0
C244 C 0.71121 0.22775 0.5266 0.0
N245 N 0.71928 0.2318 0.48025 0.0
C246 C 0.69658 0.25529 0.68473 0.0
C247 C 0.67665 0.25462 0.59539 0.0
C248 C 0.67738 0.26611 0.63374 0.0
C249 C 0.68758 0.26639 0.67863 0.0
C250 C 0.6859 0.24374 0.60291 0.0
N251 N 0.69565 0.24416 0.64736 0.0
H252 H 0.70423 0.25555 0.72016 0.0
H253 H 0.68506 0.23498 0.57318 0.0
H254 H 0.73435 0.24434 0.59889 0.0
H255 H 0.70187 0.22184 0.52082 0.0
O256 O 0.72337 0.23922 0.69627 0.0
O257 O 0.72319 0.21667 0.68072 0.0
O258 O 0.69473 0.21555 0.62769 0.0
C259 C 0.72975 0.22747 0.70009 0.0
H260 H 0.67594 0.21734 0.83464 0.0
H261 H 0.73796 0.24391 0.48078 0.0
H262 H 0.66884 0.25387 0.56062 0.0
H263 H 0.68864 0.27512 0.70878 0.0
Co264 Co 0.40099 0.25972 0.65747 0.0
C265 C 0.40443 0.26068 0.79049 0.0
C266 C 0.40935 0.28005 0.74881 0.0
C267 C 0.41073 0.28144 0.8104 0.0
N268 N 0.40549 0.26702 0.73637 0.0
N269 N 0.40758 0.26928 0.83658 0.0
H270 H 0.40125 0.25007 0.79596 0.0
H271 H 0.41068 0.28813 0.71569 0.0
C272 C 0.42393 0.27268 0.58447 0.0
O273 O 0.42724 0.26074 0.56051 0.0
N274 N 0.39606 0.25262 0.57751 0.0
C275 C 0.38882 0.24106 0.56529 0.0
C276 C 0.3869 0.23997 0.50395 0.0
C277 C 0.39774 0.25874 0.523 0.0
N278 N 0.39259 0.25107 0.47721 0.0
C279 C 0.41274 0.23259 0.66058 0.0
C280 C 0.43969 0.24079 0.67828 0.0
C281 C 0.43697 0.22694 0.66453 0.0
C282 C 0.42321 0.22279 0.65877 0.0
C283 C 0.42882 0.25023 0.68046 0.0
N284 N 0.41571 0.24625 0.66622 0.0
H285 H 0.40226 0.22914 0.6571 0.0
H286 H 0.43107 0.26088 0.69069 0.0
H287 H 0.38474 0.23399 0.59842 0.0
H288 H 0.40215 0.26885 0.51675 0.0
O289 O 0.38614 0.24932 0.69288 0.0
O290 O 0.38448 0.27068 0.65727 0.0
O291 O 0.41375 0.27373 0.62071 0.0
C292 C 0.37858 0.26017 0.68314 0.0
H293 H 0.41329 0.29084 0.83422 0.0
H294 H 0.38175 0.23158 0.481 0.0
H295 H 0.45011 0.24446 0.68478 0.0
H296 H 0.42052 0.21206 0.65201 0.0
Co297 Co 0.20326 0.72856 0.14714 0.0
C298 C 0.20301 0.72651 0.2816 0.0
C299 C 0.20249 0.70672 0.23866 0.0
C300 C 0.20275 0.70477 0.30012 0.0
N301 N 0.20251 0.72034 0.22689 0.0
N302 N 0.20309 0.71722 0.32717 0.0
H303 H 0.20381 0.73749 0.28818 0.0
H304 H 0.20267 0.69865 0.20515 0.0
C305 C 0.19057 0.70304 0.0979 0.0
O306 O 0.20295 0.6986 0.08406 0.0
N307 N 0.20405 0.73675 0.06772 0.0
C308 C 0.20589 0.75026 0.05635 0.0
C309 C 0.20582 0.75227 0.99486 0.0
C310 C 0.20303 0.73067 0.01305 0.0
N311 N 0.20402 0.73996 0.96768 0.0
C312 C 0.19263 0.75348 0.19977 0.0
C313 C 0.16624 0.75103 0.15435 0.0
C314 C 0.1699 0.76308 0.185 0.0
C315 C 0.18324 0.76423 0.20839 0.0
C316 C 0.17596 0.74068 0.14576 0.0
N317 N 0.189 0.74187 0.16855 0.0
H318 H 0.20302 0.75483 0.216 0.0
H319 H 0.17296 0.73217 0.11763 0.0
H320 H 0.20729 0.75812 0.09043 0.0
H321 H 0.2015 0.71975 1.00646 0.0
O322 O 0.21942 0.7389 0.16999 0.0
O323 O 0.21965 0.71795 0.13033 0.0
O324 O 0.18896 0.71502 0.12036 0.0
C325 C 0.22652 0.72833 0.15198 0.0
H326 H 0.20269 0.69492 0.32299 0.0
H327 H 0.20726 0.76202 0.97195 0.0
H328 H 0.15615 0.74994 0.13394 0.0
H329 H 0.18649 0.77348 0.23179 0.0
Co330 Co 0.21239 0.26127 0.84515 0.0
C331 C 0.212 0.26397 0.71175 0.0
C332 C 0.21153 0.28362 0.75648 0.0
C333 C 0.21127 0.28579 0.69502 0.0
N334 N 0.21189 0.26996 0.7668 0.0
N335 N 0.21155 0.27345 0.66692 0.0
H336 H 0.21225 0.25294 0.70479 0.0
H337 H 0.21161 0.29145 0.79127 0.0
C338 C 0.18824 0.27424 0.90899 0.0
O339 O 0.18526 0.26239 0.93458 0.0
N340 N 0.21321 0.2528 0.92492 0.0
C341 C 0.21579 0.2395 0.93861 0.0
C342 C 0.21683 0.23814 1.00022 0.0
C343 C 0.21328 0.25941 0.97882 0.0
N344 N 0.21524 0.25066 0.02565 0.0
C345 C 0.20086 0.23516 0.81012 0.0
C346 C 0.17423 0.24437 0.79355 0.0
C347 C 0.17682 0.23018 0.7931 0.0
C348 C 0.19044 0.22563 0.79842 0.0
C349 C 0.18502 0.25352 0.80438 0.0
N350 N 0.19787 0.24876 0.81873 0.0
H351 H 0.21132 0.23152 0.81281 0.0
H352 H 0.18294 0.26442 0.8019 0.0
H353 H 0.21747 0.23129 0.90679 0.0
H354 H 0.21226 0.27046 0.98346 0.0
O355 O 0.22823 0.25071 0.82065 0.0
O356 O 0.22893 0.27137 0.86382 0.0
O357 O 0.19871 0.27533 0.87439 0.0
C358 C 0.23555 0.26099 0.8405 0.0
H359 H 0.21116 0.29573 0.67277 0.0
H360 H 0.2187 0.22862 0.02429 0.0
H361 H 0.16392 0.24832 0.78632 0.0
H362 H 0.19296 0.21477 0.79599 0.0
Co363 Co 0.39212 0.73162 0.33062 0.0
C364 C 0.39553 0.7307 0.19761 0.0
C365 C 0.3998 0.71115 0.2391 0.0
C366 C 0.40129 0.70978 0.17758 0.0
N367 N 0.39633 0.72428 0.25159 0.0
N368 N 0.39857 0.72205 0.15157 0.0
H369 H 0.39269 0.74141 0.1922 0.0
H370 H 0.40077 0.70302 0.27216 0.0
C371 C 0.41626 0.72029 0.40004 0.0
O372 O 0.41859 0.73253 0.42346 0.0
N373 N 0.38736 0.73864 0.41092 0.0
C374 C 0.37926 0.74961 0.42341 0.0
C375 C 0.3775 0.75065 0.48479 0.0
C376 C 0.38967 0.73273 0.46543 0.0
N377 N 0.38409 0.74005 0.51138 0.0
C378 C 0.40328 0.75912 0.3297 0.0
C379 C 0.42972 0.75172 0.29671 0.0
C380 C 0.42705 0.76534 0.3138 0.0
C381 C 0.41357 0.76911 0.3286 0.0
C382 C 0.41913 0.74199 0.29934 0.0
N383 N 0.4063 0.74559 0.31956 0.0
H384 H 0.39292 0.76233 0.33882 0.0
H385 H 0.4214 0.73144 0.28732 0.0
H386 H 0.3745 0.75628 0.39039 0.0
H387 H 0.39479 0.72296 0.47154 0.0
O388 O 0.37675 0.74138 0.29653 0.0
O389 O 0.37599 0.72006 0.33314 0.0
O390 O 0.40583 0.71829 0.36591 0.0
C391 C 0.3696 0.73031 0.30746 0.0
H392 H 0.40365 0.70034 0.15363 0.0
H393 H 0.37177 0.75864 0.50782 0.0
H394 H 0.43999 0.74849 0.2838 0.0
H395 H 0.41103 0.77969 0.33952 0.0
Co396 Co 0.57019 0.08648 0.62511 0.0
C397 C 0.57302 0.08674 0.49189 0.0
C398 C 0.5926 0.0881 0.53662 0.0
C399 C 0.59478 0.08813 0.47514 0.0
N400 N 0.57898 0.08728 0.54694 0.0
N401 N 0.58246 0.08725 0.44692 0.0
H402 H 0.56202 0.08577 0.48518 0.0
H403 H 0.60042 0.08858 0.57137 0.0
C404 C 0.5836 0.11033 0.68891 0.0
O405 O 0.57154 0.11433 0.7094 0.0
N406 N 0.56157 0.08532 0.70471 0.0
C407 C 0.54861 0.08122 0.71765 0.0
C408 C 0.54694 0.08075 0.77928 0.0
C409 C 0.56779 0.08651 0.75928 0.0
N410 N 0.55899 0.08414 0.80551 0.0
C411 C 0.5444 0.09963 0.59726 0.0
C412 C 0.55518 0.12536 0.57246 0.0
C413 C 0.54087 0.12381 0.57659 0.0
C414 C 0.53549 0.11062 0.58641 0.0
C415 C 0.5637 0.11401 0.58274 0.0
N416 N 0.55827 0.10166 0.60066 0.0
H417 H 0.54009 0.08952 0.60288 0.0
H418 H 0.57469 0.11528 0.57779 0.0
H419 H 0.541 0.07792 0.68531 0.0
H420 H 0.57858 0.08889 0.76515 0.0
O421 O 0.55911 0.07124 0.59763 0.0
O422 O 0.57963 0.06945 0.64139 0.0
O423 O 0.58465 0.09944 0.65687 0.0
C424 C 0.56909 0.06339 0.61655 0.0
H425 H 0.6047 0.08888 0.45312 0.0
H426 H 0.53772 0.07756 0.80293 0.0
H427 H 0.55973 0.13527 0.56209 0.0
H428 H 0.52448 0.10886 0.58786 0.0
Co429 Co 0.03834 0.90541 0.10988 0.0
C430 C 0.03644 0.90318 0.97663 0.0
C431 C 0.01669 0.90128 0.01962 0.0
C432 C 0.01489 0.90016 0.95815 0.0
N433 N 0.03019 0.90304 0.03108 0.0
N434 N 0.0273 0.90137 0.93122 0.0
H435 H 0.04742 0.90452 0.97052 0.0
H436 H 0.00869 0.9011 0.05354 0.0
C437 C 0.02623 0.88092 0.17481 0.0
O438 O 0.03832 0.87796 0.19813 0.0
N439 N 0.04624 0.90823 0.19014 0.0
C440 C 0.05818 0.91471 0.20337 0.0
C441 C 0.05946 0.91591 0.2649 0.0
C442 C 0.04011 0.90631 0.24443 0.0
N443 N 0.0481 0.9106 0.2909 0.0
C444 C 0.06531 0.89373 0.09435 0.0
C445 C 0.05664 0.86737 0.06688 0.0
C446 C 0.07066 0.86968 0.07839 0.0
C447 C 0.07501 0.88322 0.08961 0.0
C448 C 0.04729 0.87824 0.07226 0.0
N449 N 0.05158 0.89095 0.09107 0.0
H450 H 0.06891 0.90406 0.10126 0.0
H451 H 0.03653 0.87629 0.06336 0.0
H452 H 0.06526 0.91908 0.17103 0.0
H453 H 0.02975 0.90244 0.24989 0.0
O454 O 0.04846 0.92105 0.08021 0.0
O455 O 0.02754 0.92187 0.12089 0.0
O456 O 0.02467 0.89166 0.14217 0.0
C457 C 0.03786 0.92838 0.0964 0.0
H458 H 0.00515 0.89895 0.93495 0.0
H459 H 0.06807 0.92052 0.2884 0.0
H460 H 0.05288 0.85721 0.05509 0.0
H461 H 0.08576 0.88565 0.09713 0.0
Co462 Co 0.56964 0.89958 0.40141 0.0
C463 C 0.57409 0.89956 0.53596 0.0
C464 C 0.57721 0.87974 0.4953 0.0
C465 C 0.57938 0.87856 0.55646 0.0
N466 N 0.57397 0.8929 0.48214 0.0
N467 N 0.57743 0.89102 0.58209 0.0
H468 H 0.57181 0.91037 0.54167 0.0
H469 H 0.57772 0.87144 0.46272 0.0
C470 C 0.59705 0.88872 0.37318 0.0
O471 O 0.60185 0.90059 0.39231 0.0
N472 N 0.56517 0.90588 0.32075 0.0
C473 C 0.55291 0.91115 0.30409 0.0
C474 C 0.55304 0.91344 0.24282 0.0
C475 C 0.57259 0.90493 0.26924 0.0
N476 N 0.56539 0.9095 0.22077 0.0
C477 C 0.54514 0.88509 0.43267 0.0
C478 C 0.54667 0.8658 0.34074 0.0
C479 C 0.53541 0.86539 0.38051 0.0
C480 C 0.53474 0.87525 0.42698 0.0
C481 C 0.55672 0.87593 0.34745 0.0
N482 N 0.55591 0.88531 0.39326 0.0
H483 H 0.54454 0.89264 0.46852 0.0
H484 H 0.56507 0.8763 0.31525 0.0
H485 H 0.54427 0.91277 0.33412 0.0
H486 H 0.58291 0.90077 0.26705 0.0
O487 O 0.55827 0.91413 0.43441 0.0
O488 O 0.58055 0.91592 0.41451 0.0
O489 O 0.5841 0.88682 0.36933 0.0
C490 C 0.5693 0.92172 0.43357 0.0
H491 H 0.58183 0.86915 0.58036 0.0
H492 H 0.54444 0.91712 0.2162 0.0
H493 H 0.54779 0.85833 0.30467 0.0
H494 H 0.52615 0.87556 0.45814 0.0
Co495 Co 0.0388 0.09268 0.89203 0.0
C496 C 0.03486 0.09349 0.02657 0.0
C497 C 0.03233 0.11328 0.98503 0.0
C498 C 0.03057 0.11473 0.04642 0.0
N499 N 0.03499 0.09996 0.97236 0.0
N500 N 0.03217 0.10228 0.07261 0.0
H501 H 0.03671 0.08261 0.0326 0.0
H502 H 0.03201 0.12149 0.952 0.0
C503 C 0.01193 0.10394 0.85727 0.0
O504 O 0.00692 0.09159 0.86719 0.0
N505 N 0.0427 0.08562 0.81175 0.0
C506 C 0.05441 0.07911 0.79585 0.0
C507 C 0.05417 0.07662 0.73475 0.0
C508 C 0.03551 0.08711 0.7598 0.0
N509 N 0.04232 0.08169 0.71196 0.0
C510 C 0.06328 0.10741 0.92328 0.0
C511 C 0.06352 0.12404 0.82155 0.0
C512 C 0.07398 0.12547 0.86459 0.0
C513 C 0.07379 0.11711 0.91621 0.0
C514 C 0.05307 0.11445 0.83095 0.0
N515 N 0.05307 0.1063 0.88122 0.0
H516 H 0.06325 0.10079 0.96262 0.0
H517 H 0.04504 0.11349 0.79743 0.0
H518 H 0.06283 0.07679 0.82617 0.0
H519 H 0.0257 0.09232 0.75663 0.0
O520 O 0.04965 0.07787 0.92603 0.0
O521 O 0.02723 0.07693 0.90777 0.0
O522 O 0.02487 0.10596 0.85971 0.0
C523 C 0.0383 0.07075 0.92655 0.0
H524 H 0.02867 0.12432 0.06995 0.0
H525 H 0.06241 0.07204 0.70866 0.0
H526 H 0.06332 0.13042 0.78133 0.0
H527 H 0.08178 0.11792 0.9502 0.0
C528 C 0.08145 0.59935 0.84573 0.0
C529 C 0.07372 0.59126 0.88598 0.0
C530 C 0.07951 0.59823 0.78333 0.0
C531 C 0.05518 0.58524 0.66696 0.0
H532 H 0.0875 0.58629 0.56397 0.0
C533 C 0.05302 0.57073 0.41421 0.0
C534 C 0.05986 0.57953 0.37354 0.0
C535 C 0.0549 0.5721 0.47655 0.0
C536 C 0.07837 0.5861 0.59207 0.0
H537 H 0.05778 0.57571 0.89225 0.0
H538 H 0.05447 0.5736 0.78326 0.0
H539 H 0.09008 0.58897 0.673 0.0
H540 H 0.07424 0.59658 0.36715 0.0
H541 H 0.07766 0.59883 0.47597 0.0
H542 H 0.04351 0.58219 0.58588 0.0
C543 C 0.06189 0.58101 0.79992 0.0
C544 C 0.07982 0.58768 0.6546 0.0
C545 C 0.06378 0.5822 0.86245 0.0
C546 C 0.06893 0.58951 0.39691 0.0
C547 C 0.07087 0.59083 0.45936 0.0
C548 C 0.05374 0.58359 0.60446 0.0
C549 C 0.06984 0.58891 0.75953 0.0
C550 C 0.06825 0.58729 0.69288 0.0
C551 C 0.06374 0.58225 0.49989 0.0
C552 C 0.06531 0.584 0.56631 0.0
H553 H 0.08902 0.60659 0.86254 0.0
H554 H 0.0856 0.60471 0.75375 0.0
H555 H 0.04601 0.58511 0.69485 0.0
H556 H 0.04617 0.56275 0.39802 0.0
H557 H 0.04946 0.56516 0.50656 0.0
C558 C 0.71025 0.78008 0.0773 0.0
C559 C 0.70768 0.7691 0.11735 0.0
C560 C 0.71098 0.77785 0.01497 0.0
C561 C 0.71747 0.75105 0.90098 0.0
H562 H 0.69941 0.77659 0.79186 0.0
C563 C 0.71383 0.74057 0.6447 0.0
C564 C 0.7153 0.75176 0.6049 0.0
C565 C 0.71273 0.74268 0.70699 0.0
C566 C 0.70467 0.76946 0.82158 0.0
H567 H 0.7038 0.74711 0.12233 0.0
H568 H 0.70524 0.74322 0.01348 0.0
H569 H 0.69779 0.78013 0.9008 0.0
H570 H 0.71684 0.774 0.5996 0.0
H571 H 0.71512 0.77773 0.70852 0.0
H572 H 0.72453 0.74047 0.822 0.0
C573 C 0.70677 0.75355 0.03071 0.0
C574 C 0.7037 0.77147 0.88407 0.0
C575 C 0.70596 0.75579 0.09318 0.0
C576 C 0.71558 0.76516 0.62893 0.0
C577 C 0.71456 0.76729 0.69143 0.0
C578 C 0.71851 0.74908 0.83848 0.0
C579 C 0.70924 0.76458 0.9909 0.0
C580 C 0.71009 0.76229 0.92449 0.0
C581 C 0.71315 0.75607 0.7313 0.0
C582 C 0.71212 0.75825 0.79791 0.0
H583 H 0.71193 0.79042 0.09392 0.0
H584 H 0.71313 0.78653 0.98564 0.0
H585 H 0.72268 0.74392 0.93089 0.0
H586 H 0.71331 0.73013 0.6276 0.0
H587 H 0.71136 0.73381 0.73603 0.0
C588 C 0.53625 0.4107 0.33009 0.0
C589 C 0.52828 0.39978 0.35292 0.0
C590 C 0.53665 0.4134 0.26794 0.0
C591 C 0.51868 0.40617 0.12258 0.0
H592 H 0.55448 0.41401 0.05309 0.0
C593 C 0.53012 0.40347 0.86481 0.0
C594 C 0.53926 0.41329 0.84083 0.0
C595 C 0.52773 0.4028 0.92724 0.0
C596 C 0.54436 0.41202 0.07176 0.0
H597 H 0.51398 0.38356 0.32815 0.0
H598 H 0.51493 0.38804 0.22005 0.0
H599 H 0.55225 0.41127 0.16195 0.0
H600 H 0.55235 0.43064 0.86329 0.0
H601 H 0.54816 0.42953 0.97167 0.0
H602 H 0.51086 0.40671 0.03192 0.0
C603 C 0.52081 0.3946 0.25011 0.0
C604 C 0.54308 0.41047 0.13432 0.0
C605 C 0.5204 0.39191 0.31218 0.0
C606 C 0.54549 0.42276 0.88039 0.0
C607 C 0.5431 0.42212 0.94257 0.0
C608 C 0.51997 0.4077 0.05987 0.0
C609 C 0.52908 0.40526 0.22707 0.0
C610 C 0.53024 0.40747 0.16058 0.0
C611 C 0.53441 0.41196 0.96696 0.0
C612 C 0.53284 0.41062 0.0337 0.0
H613 H 0.54251 0.41694 0.3599 0.0
H614 H 0.54299 0.42182 0.25187 0.0
H615 H 0.5086 0.40404 0.14133 0.0
H616 H 0.52524 0.39595 0.83567 0.0
H617 H 0.52105 0.39479 0.94456 0.0
C618 C 0.89841 0.23161 0.61103 0.0
C619 C 0.89551 0.21854 0.63549 0.0
C620 C 0.89797 0.23378 0.54848 0.0
C621 C 0.89982 0.21533 0.40247 0.0
H622 H 0.88295 0.24844 0.3384 0.0
C623 C 0.89019 0.22329 0.14592 0.0
C624 C 0.89223 0.23662 0.1227 0.0
C625 C 0.89065 0.22091 0.20838 0.0
C626 C 0.88786 0.23921 0.35549 0.0
H627 H 0.8895 0.19763 0.61272 0.0
H628 H 0.88885 0.2014 0.5041 0.0
H629 H 0.88371 0.24481 0.44737 0.0
H630 H 0.8969 0.25776 0.14686 0.0
H631 H 0.89783 0.25362 0.25516 0.0
H632 H 0.90407 0.20976 0.31064 0.0
C633 C 0.89168 0.20991 0.53326 0.0
C634 C 0.88828 0.23713 0.41802 0.0
C635 C 0.89207 0.20775 0.59571 0.0
C636 C 0.89498 0.24743 0.16326 0.0
C637 C 0.8955 0.24505 0.22548 0.0
C638 C 0.89945 0.21743 0.33989 0.0
C639 C 0.89465 0.22293 0.50884 0.0
C640 C 0.89426 0.22517 0.44228 0.0
C641 C 0.89323 0.23179 0.24898 0.0
C642 C 0.89349 0.22941 0.31557 0.0
H643 H 0.90127 0.24012 0.64003 0.0
H644 H 0.90047 0.2439 0.53106 0.0
H645 H 0.90467 0.20608 0.41974 0.0
H646 H 0.88793 0.21477 0.11598 0.0
H647 H 0.8887 0.21059 0.22488 0.0
C648 C 0.06432 0.40178 0.18808 0.0
C649 C 0.07485 0.39348 0.16425 0.0
C650 C 0.06238 0.40274 0.25064 0.0
C651 C 0.08073 0.39699 0.39578 0.0
H652 H 0.04413 0.40001 0.46442 0.0
C653 C 0.06975 0.39405 0.65337 0.0
C654 C 0.06014 0.4035 0.67671 0.0
C655 C 0.07183 0.39291 0.59093 0.0
C656 C 0.05443 0.3993 0.44586 0.0
H657 H 0.0912 0.37922 0.18709 0.0
H658 H 0.08768 0.38065 0.29595 0.0
H659 H 0.04683 0.39744 0.3554 0.0
H660 H 0.04563 0.41959 0.65225 0.0
H661 H 0.04915 0.41747 0.54379 0.0
H662 H 0.08828 0.39868 0.48655 0.0
C663 C 0.08116 0.38675 0.26661 0.0
C664 C 0.05598 0.39785 0.38333 0.0
C665 C 0.08315 0.38588 0.20418 0.0
C666 C 0.0529 0.41199 0.63608 0.0
C667 C 0.05491 0.41079 0.57378 0.0
C668 C 0.07917 0.39834 0.45836 0.0
C669 C 0.07086 0.39533 0.29075 0.0
C670 C 0.06916 0.39671 0.35744 0.0
C671 C 0.06429 0.40115 0.55045 0.0
C672 C 0.066 0.39957 0.48405 0.0
H673 H 0.05787 0.40789 0.15848 0.0
H674 H 0.05446 0.40959 0.26755 0.0
H675 H 0.09105 0.39639 0.37742 0.0
H676 H 0.07539 0.38723 0.68312 0.0
H677 H 0.07906 0.38531 0.57426 0.0
C678 C 0.90403 0.75839 0.44257 0.0
C679 C 0.8995 0.77096 0.41788 0.0
C680 C 0.90381 0.75624 0.50514 0.0
C681 C 0.90339 0.77489 0.65058 0.0
H682 H 0.89055 0.74009 0.71537 0.0
C683 C 0.89498 0.766 0.90738 0.0
C684 C 0.89853 0.75299 0.93053 0.0
C685 C 0.89513 0.76841 0.84492 0.0
C686 C 0.89433 0.74981 0.69808 0.0
H687 H 0.89083 0.79095 0.44019 0.0
H688 H 0.89061 0.78722 0.54885 0.0
H689 H 0.89083 0.74367 0.60633 0.0
H690 H 0.90559 0.73253 0.90643 0.0
H691 H 0.90602 0.73674 0.79813 0.0
H692 H 0.90703 0.781 0.74225 0.0
C693 C 0.89451 0.77912 0.51985 0.0
C694 C 0.89447 0.75186 0.63552 0.0
C695 C 0.89466 0.78125 0.45739 0.0
C696 C 0.90251 0.74257 0.89 0.0
C697 C 0.90273 0.74499 0.8278 0.0
C698 C 0.90332 0.77282 0.71318 0.0
C699 C 0.89912 0.76661 0.5445 0.0
C700 C 0.89901 0.76442 0.61103 0.0
C701 C 0.89891 0.75789 0.80432 0.0
C702 C 0.89882 0.76024 0.73774 0.0
H703 H 0.90798 0.7503 0.41375 0.0
H704 H 0.90757 0.74653 0.5228 0.0
H705 H 0.90711 0.78463 0.63307 0.0
H706 H 0.89176 0.7742 0.93738 0.0
H707 H 0.89199 0.77843 0.8284 0.0
C708 C 0.53868 0.58927 0.71415 0.0
C709 C 0.52737 0.5964 0.68984 0.0
C710 C 0.54064 0.58862 0.77678 0.0
C711 C 0.52183 0.59271 0.92181 0.0
H712 H 0.55857 0.59458 0.98984 0.0
C713 C 0.53256 0.59783 0.17924 0.0
C714 C 0.5435 0.58997 0.20262 0.0
C715 C 0.53023 0.59844 0.1168 0.0
C716 C 0.54825 0.59391 0.97149 0.0
H717 H 0.50956 0.60887 0.71212 0.0
H718 H 0.51306 0.60791 0.82104 0.0
H719 H 0.5555 0.59629 0.88074 0.0
H720 H 0.5601 0.57603 0.17859 0.0
H721 H 0.55608 0.57717 0.0702 0.0
H722 H 0.51461 0.59045 0.01285 0.0
C723 C 0.52023 0.6025 0.79196 0.0
C724 C 0.54649 0.59487 0.90891 0.0
C725 C 0.51823 0.60308 0.72946 0.0
C726 C 0.55178 0.58244 0.16222 0.0
C727 C 0.54948 0.58308 0.09998 0.0
C728 C 0.5236 0.59181 0.98446 0.0
C729 C 0.53138 0.59516 0.8165 0.0
C730 C 0.53326 0.59424 0.88322 0.0
C731 C 0.5388 0.59123 0.07645 0.0
C732 C 0.53683 0.59235 1.00998 0.0
H733 H 0.5458 0.58387 0.68488 0.0
H734 H 0.54925 0.58272 0.79408 0.0
H735 H 0.51151 0.59196 0.90357 0.0
H736 H 0.52608 0.60387 0.20896 0.0
H737 H 0.52196 0.60488 0.10001 0.0
C738 C 0.72805 0.22729 0.37766 0.0
C739 C 0.71694 0.22978 0.4167 0.0
C740 C 0.72592 0.22599 0.31546 0.0
C741 C 0.69832 0.22117 0.19954 0.0
H742 H 0.72665 0.23501 0.09214 0.0
C743 C 0.69422 0.21433 0.9412 0.0
C744 C 0.69949 0.22477 0.90395 0.0
C745 C 0.69658 0.21456 1.0035 0.0
C746 C 0.71852 0.23126 0.12129 0.0
H747 H 0.69492 0.23291 0.42177 0.0
H748 H 0.69117 0.23122 0.31297 0.0
H749 H 0.72995 0.23643 0.20054 0.0
H750 H 0.71117 0.24373 0.90224 0.0
H751 H 0.71483 0.24457 0.0113 0.0
H752 H 0.68654 0.21676 0.12036 0.0
C753 C 0.7015 0.22979 0.33017 0.0
C754 C 0.72054 0.23183 0.1838 0.0
C755 C 0.70362 0.23082 0.39256 0.0
C756 C 0.70714 0.23549 0.93007 0.0
C757 C 0.70927 0.23589 0.99256 0.0
C758 C 0.6962 0.22083 0.13705 0.0
C759 C 0.71264 0.22744 0.29064 0.0
C760 C 0.71048 0.22676 0.22388 0.0
C761 C 0.70404 0.22541 0.03022 0.0
C762 C 0.70629 0.22582 0.09696 0.0
H763 H 0.73839 0.22629 0.39544 0.0
H764 H 0.73472 0.22382 0.28695 0.0
H765 H 0.6904 0.21697 0.22866 0.0
H766 H 0.68845 0.20585 0.92187 0.0
H767 H 0.69265 0.20613 0.03049 0.0
C768 C 0.40397 0.2622 0.38953 0.0
C769 C 0.39349 0.25374 0.41303 0.0
C770 C 0.40539 0.26403 0.32706 0.0
C771 C 0.3971 0.2473 0.18198 0.0
H772 H 0.40497 0.2832 0.11344 0.0
C773 C 0.39697 0.2573 0.92372 0.0
C774 C 0.40671 0.26662 0.90061 0.0
C775 C 0.39549 0.25552 0.9862 0.0
C776 C 0.40297 0.27305 0.13183 0.0
H777 H 0.37594 0.24104 0.38872 0.0
H778 H 0.3785 0.24414 0.28011 0.0
H779 H 0.40196 0.28085 0.22238 0.0
H780 H 0.42294 0.2809 0.92479 0.0
H781 H 0.42056 0.27765 0.03351 0.0
H782 H 0.39824 0.23945 0.09166 0.0
C783 C 0.38575 0.24918 0.31005 0.0
C784 C 0.40121 0.27173 0.19433 0.0
C785 C 0.38429 0.24741 0.37244 0.0
C786 C 0.41519 0.27382 0.94126 0.0
C787 C 0.41378 0.27199 1.00361 0.0
C788 C 0.39894 0.24861 0.11951 0.0
C789 C 0.39639 0.2574 0.28659 0.0
C790 C 0.39823 0.25884 0.22012 0.0
C791 C 0.40379 0.26295 0.02699 0.0
C792 C 0.40189 0.2615 0.09359 0.0
H793 H 0.41136 0.2671 0.41919 0.0
H794 H 0.41377 0.27033 0.31039 0.0
H795 H 0.39502 0.23719 0.20056 0.0
H796 H 0.39017 0.25173 0.89362 0.0
H797 H 0.38757 0.2486 1.00251 0.0
C798 C 0.19863 0.73232 0.41535 0.0
C799 C 0.20363 0.71988 0.39131 0.0
C800 C 0.19871 0.73462 0.47781 0.0
C801 C 0.19957 0.71603 0.62313 0.0
H802 H 0.21057 0.75137 0.68905 0.0
C803 C 0.2078 0.72477 0.87931 0.0
C804 C 0.20343 0.73742 0.90352 0.0
C805 C 0.2077 0.72258 0.81678 0.0
C806 C 0.2073 0.74149 0.67136 0.0
H807 H 0.21314 0.70032 0.41424 0.0
H808 H 0.21321 0.7043 0.52278 0.0
H809 H 0.21071 0.74786 0.57985 0.0
H810 H 0.19505 0.75749 0.88121 0.0
H811 H 0.19475 0.75365 0.77248 0.0
H812 H 0.19608 0.70967 0.71449 0.0
C813 C 0.20898 0.71217 0.49345 0.0
C814 C 0.2074 0.73948 0.60878 0.0
C815 C 0.20893 0.70989 0.43114 0.0
C816 C 0.19873 0.74773 0.86394 0.0
C817 C 0.19858 0.74553 0.80156 0.0
C818 C 0.19942 0.71805 0.68569 0.0
C819 C 0.20378 0.72451 0.51755 0.0
C820 C 0.20357 0.72672 0.58399 0.0
C821 C 0.20316 0.73297 0.77715 0.0
C822 C 0.2033 0.7308 0.71058 0.0
H823 H 0.19434 0.74016 0.38609 0.0
H824 H 0.19452 0.74418 0.49507 0.0
H825 H 0.19636 0.70614 0.60534 0.0
H826 H 0.21162 0.71668 0.90853 0.0
H827 H 0.21146 0.71284 0.79945 0.0
C828 C 0.2179 0.25931 0.57793 0.0
C829 C 0.21155 0.27105 0.60253 0.0
C830 C 0.21825 0.25727 0.51528 0.0
C831 C 0.21482 0.27609 0.36982 0.0
H832 H 0.21035 0.2394 0.30339 0.0
C833 C 0.20845 0.26527 0.11279 0.0
C834 C 0.21553 0.25379 0.08951 0.0
C835 C 0.20807 0.26773 0.17521 0.0
C836 C 0.21175 0.2497 0.32125 0.0
H837 H 0.2002 0.28963 0.58058 0.0
H838 H 0.20068 0.28603 0.47167 0.0
H839 H 0.20925 0.24279 0.41245 0.0
H840 H 0.2283 0.23629 0.1138 0.0
H841 H 0.22756 0.24053 0.22205 0.0
H842 H 0.21721 0.28299 0.27833 0.0
C843 C 0.20569 0.27854 0.50056 0.0
C844 C 0.21114 0.25164 0.38384 0.0
C845 C 0.20539 0.2806 0.56309 0.0
C846 C 0.22249 0.24505 0.13003 0.0
C847 C 0.22207 0.24748 0.19223 0.0
C848 C 0.21537 0.27416 0.30716 0.0
C849 C 0.2122 0.2669 0.47576 0.0
C850 C 0.21272 0.26485 0.40899 0.0
C851 C 0.21473 0.25875 0.21567 0.0
C852 C 0.21391 0.26092 0.28217 0.0
H853 H 0.22288 0.25185 0.60697 0.0
H854 H 0.22353 0.24828 0.49781 0.0
H855 H 0.21629 0.28639 0.3876 0.0
H856 H 0.20287 0.27213 0.083 0.0
H857 H 0.20225 0.27646 0.19189 0.0
C858 C 0.39621 0.72957 0.59873 0.0
C859 C 0.38525 0.73745 0.57552 0.0
C860 C 0.39779 0.72781 0.66115 0.0
C861 C 0.38904 0.74412 0.80608 0.0
H862 H 0.39752 0.70838 0.87485 0.0
C863 C 0.38834 0.73411 0.06396 0.0
C864 C 0.39802 0.72482 0.08766 0.0
C865 C 0.38712 0.73593 1.00142 0.0
C866 C 0.39537 0.71849 0.8564 0.0
H867 H 0.36706 0.74917 0.60036 0.0
H868 H 0.36996 0.74625 0.70882 0.0
H869 H 0.39468 0.71068 0.7658 0.0
H870 H 0.41442 0.71063 0.06482 0.0
H871 H 0.41256 0.71401 0.95595 0.0
H872 H 0.3899 0.752 0.89636 0.0
C873 C 0.37742 0.7416 0.67865 0.0
C874 C 0.39369 0.71977 0.79387 0.0
C875 C 0.37578 0.74328 0.61635 0.0
C876 C 0.40673 0.7177 0.04772 0.0
C877 C 0.40561 0.7196 0.98532 0.0
C878 C 0.39083 0.74286 0.86856 0.0
C879 C 0.38851 0.73396 0.70177 0.0
C880 C 0.39045 0.73259 0.76808 0.0
C881 C 0.39565 0.72858 0.96126 0.0
C882 C 0.39398 0.73001 0.89459 0.0
H883 H 0.40381 0.72508 0.5689 0.0
H884 H 0.4065 0.72195 0.67769 0.0
H885 H 0.38674 0.75417 0.78738 0.0
H886 H 0.38138 0.73961 0.09363 0.0
H887 H 0.37922 0.7428 0.98459 0.0
C888 C 0.57491 0.08216 0.89284 0.0
C889 C 0.5617 0.08484 0.86961 0.0
C890 C 0.57731 0.08249 0.9553 0.0
C891 C 0.55889 0.08063 0.10245 0.0
H892 H 0.59292 0.09551 0.16671 0.0
C893 C 0.5672 0.09061 0.35807 0.0
C894 C 0.58005 0.08684 0.38242 0.0
C895 C 0.56499 0.09036 0.29552 0.0
C896 C 0.58341 0.09121 0.14943 0.0
H897 H 0.54082 0.0905 0.8937 0.0
H898 H 0.545 0.09125 1.00205 0.0
H899 H 0.58917 0.0952 0.05763 0.0
H900 H 0.60052 0.07953 0.35937 0.0
H901 H 0.59668 0.07924 0.25076 0.0
H902 H 0.55309 0.07675 0.19434 0.0
C903 C 0.55344 0.08851 0.97239 0.0
C904 C 0.58127 0.091 0.08686 0.0
C905 C 0.55104 0.0881 0.91015 0.0
C906 C 0.59058 0.08276 0.3425 0.0
C907 C 0.58838 0.08257 0.28005 0.0
C908 C 0.561 0.0809 0.16498 0.0
C909 C 0.56657 0.08559 0.99591 0.0
C910 C 0.56897 0.08572 0.06253 0.0
C911 C 0.57557 0.08639 0.25577 0.0
C912 C 0.57329 0.08619 0.18924 0.0
H913 H 0.58331 0.07948 0.86291 0.0
H914 H 0.58752 0.08003 0.9718 0.0
H915 H 0.5494 0.07624 0.08538 0.0
H916 H 0.5589 0.09398 0.38715 0.0
H917 H 0.55504 0.09351 0.2782 0.0
C918 C 0.04053 0.90937 0.84245 0.0
C919 C 0.02994 0.90129 0.86715 0.0
C920 C 0.04252 0.9099 0.77985 0.0
C921 C 0.02432 0.90316 0.63509 0.0
H922 H 0.06102 0.90613 0.56733 0.0
C923 C 0.03591 0.89995 0.37771 0.0
C924 C 0.04524 0.90976 0.35489 0.0
C925 C 0.03377 0.89868 0.44006 0.0
C926 C 0.0507 0.9054 0.58567 0.0
H927 H 0.01352 0.88698 0.84597 0.0
H928 H 0.01715 0.88763 0.73701 0.0
H929 H 0.05817 0.90395 0.67642 0.0
H930 H 0.05917 0.92629 0.38031 0.0
H931 H 0.0556 0.92388 0.48849 0.0
H932 H 0.01692 0.90445 0.54394 0.0
C933 C 0.02367 0.8939 0.76564 0.0
C934 C 0.04905 0.90419 0.6482 0.0
C935 C 0.02162 0.89348 0.82812 0.0
C936 C 0.05215 0.91841 0.39598 0.0
C937 C 0.0501 0.91706 0.45815 0.0
C938 C 0.02598 0.90426 0.57247 0.0
C939 C 0.03405 0.90225 0.74059 0.0
C940 C 0.03584 0.90315 0.67381 0.0
C941 C 0.04099 0.90711 0.48091 0.0
C942 C 0.03918 0.9055 0.54717 0.0
H943 H 0.047 0.91563 0.87138 0.0
H944 H 0.05048 0.9166 0.76222 0.0
H945 H 0.01397 0.90262 0.65318 0.0
H946 H 0.03052 0.89301 0.34761 0.0
H947 H 0.02674 0.89085 0.4564 0.0
C948 C 0.57857 0.89922 0.1359 0.0
C949 C 0.56926 0.90913 0.15772 0.0
C950 C 0.58122 0.89808 0.07382 0.0
C951 C 0.57721 0.9164 0.92666 0.0
H952 H 0.57766 0.87946 0.86006 0.0
C953 C 0.57045 0.90501 0.67088 0.0
C954 C 0.57824 0.89421 0.64581 0.0
C955 C 0.57065 0.90749 0.73328 0.0
C956 C 0.57776 0.88985 0.87791 0.0
H957 H 0.55602 0.9261 0.13148 0.0
H958 H 0.56038 0.92395 0.02367 0.0
H959 H 0.5761 0.88264 0.969 0.0
H960 H 0.59287 0.87801 0.6666 0.0
H961 H 0.59321 0.88231 0.775 0.0
H962 H 0.57862 0.92359 0.83523 0.0
C963 C 0.56572 0.91708 0.05431 0.0
C964 C 0.57689 0.89167 0.9405 0.0
C965 C 0.56309 0.91821 0.11621 0.0
C966 C 0.58652 0.88622 0.68444 0.0
C967 C 0.58672 0.88869 0.74668 0.0
C968 C 0.57806 0.91457 0.86398 0.0
C969 C 0.57464 0.90686 0.03214 0.0
C970 C 0.57649 0.90497 0.96572 0.0
C971 C 0.57865 0.89923 0.77204 0.0
C972 C 0.57825 0.90127 0.8388 0.0
H973 H 0.58346 0.89202 0.16647 0.0
H974 H 0.5883 0.89021 0.0584 0.0
H975 H 0.57713 0.92679 0.94454 0.0
H976 H 0.56386 0.91129 0.64264 0.0
H977 H 0.56419 0.91561 0.75136 0.0
C978 C 0.02462 0.10795 0.17683 0.0
C979 C 0.03167 0.0992 0.13658 0.0
C980 C 0.02461 0.10532 0.23903 0.0
C981 C 0.04446 0.08685 0.35649 0.0
H982 H 0.0123 0.09375 0.45601 0.0
C983 C 0.04384 0.07243 0.60819 0.0
C984 C 0.03875 0.08237 0.64867 0.0
C985 C 0.04181 0.07382 0.54599 0.0
C986 C 0.02139 0.09187 0.42887 0.0
H987 H 0.04412 0.08067 0.13094 0.0
H988 H 0.04381 0.07592 0.23886 0.0
H989 H 0.01101 0.09729 0.34672 0.0
H990 H 0.02705 0.10133 0.65543 0.0
H991 H 0.02346 0.10376 0.54649 0.0
H992 H 0.05486 0.08148 0.43838 0.0
C993 C 0.03845 0.08496 0.22238 0.0
C994 C 0.02066 0.09391 0.36623 0.0
C995 C 0.03849 0.0876 0.16019 0.0
C996 C 0.03102 0.09344 0.62556 0.0
C997 C 0.02898 0.09483 0.5631 0.0
C998 C 0.04516 0.08478 0.41892 0.0
C999 C 0.03163 0.09386 0.2627 0.0
C1000 C 0.03221 0.09144 0.32924 0.0
C1001 C 0.03463 0.08519 0.52252 0.0
C1002 C 0.03365 0.08726 0.45593 0.0
H1003 H 0.01908 0.11687 0.1604 0.0
H1004 H 0.01934 0.11248 0.26867 0.0
H1005 H 0.05364 0.08512 0.32974 0.0
H1006 H 0.04958 0.06364 0.62459 0.0
H1007 H 0.04602 0.06604 0.51614 0.0
C1008 C 0.05396 0.54204 0.07594 0.0
C1009 C 0.06631 0.54878 0.09061 0.0
C1010 C 0.05404 0.52814 0.05976 0.0
C1011 C 0.07566 0.50153 0.99395 0.0
H1012 H 0.05069 0.47593 0.07198 0.0
C1013 C 0.07892 0.44288 0.95417 0.0
C1014 C 0.06657 0.43538 0.95347 0.0
C1015 C 0.07893 0.4568 0.97022 0.0
C1016 C 0.05757 0.48296 0.04897 0.0
H1017 H 0.08842 0.54638 0.09964 0.0
H1018 H 0.08856 0.52207 0.07027 0.0
H1019 H 0.05053 0.50013 0.10143 0.0
H1020 H 0.0445 0.43656 0.96707 0.0
H1021 H 0.0444 0.46094 0.99286 0.0
H1022 H 0.08249 0.48454 0.94028 0.0
C1023 C 0.07885 0.52756 0.07162 0.0
C1024 C 0.05752 0.4968 0.06615 0.0
C1025 C 0.07875 0.5414 0.08872 0.0
C1026 C 0.05419 0.44208 0.96779 0.0
C1027 C 0.05416 0.45604 0.98299 0.0
C1028 C 0.07559 0.48773 0.97612 0.0
C1029 C 0.06649 0.52081 0.05709 0.0
C1030 C 0.06658 0.50618 0.03889 0.0
C1031 C 0.06655 0.46354 0.98508 0.0
C1032 C 0.06657 0.47826 1.00351 0.0
H1033 H 0.04423 0.54748 0.07714 0.0
H1034 H 0.04439 0.52316 0.04837 0.0
H1035 H 0.08264 0.50863 0.97184 0.0
H1036 H 0.08863 0.43793 0.9437 0.0
H1037 H 0.08869 0.46218 0.97222 0.0
C1038 C 0.85476 0.74797 0.20325 0.0
C1039 C 0.86163 0.76031 0.18949 0.0
C1040 C 0.84066 0.74803 0.21553 0.0
C1041 C 0.81395 0.76983 0.27732 0.0
H1042 H 0.78844 0.74428 0.20235 0.0
C1043 C 0.75558 0.77231 0.3235 0.0
C1044 C 0.74825 0.75986 0.32536 0.0
C1045 C 0.76935 0.7725 0.30539 0.0
C1046 C 0.79545 0.75134 0.22446 0.0
H1047 H 0.85919 0.78233 0.17677 0.0
H1048 H 0.83453 0.78244 0.19945 0.0
H1049 H 0.81257 0.74427 0.17174 0.0
H1050 H 0.74959 0.7378 0.31145 0.0
H1051 H 0.77377 0.73801 0.28227 0.0
H1052 H 0.79708 0.77661 0.33167 0.0
C1053 C 0.84007 0.77275 0.20036 0.0
C1054 C 0.80923 0.75138 0.20654 0.0
C1055 C 0.85413 0.77267 0.18709 0.0
C1056 C 0.75499 0.74756 0.30998 0.0
C1057 C 0.76882 0.74771 0.29277 0.0
C1058 C 0.80021 0.76966 0.29594 0.0
C1059 C 0.83325 0.76045 0.2152 0.0
C1060 C 0.81858 0.76063 0.23279 0.0
C1061 C 0.77615 0.76021 0.28964 0.0
C1062 C 0.79078 0.76041 0.26975 0.0
H1063 H 0.86031 0.7383 0.20528 0.0
H1064 H 0.83562 0.73843 0.22718 0.0
H1065 H 0.82103 0.77693 0.2988 0.0
H1066 H 0.75058 0.78197 0.33462 0.0
H1067 H 0.77456 0.78234 0.30259 0.0
C1068 C 0.54726 0.54859 0.47164 0.0
C1069 C 0.53524 0.55608 0.45895 0.0
C1070 C 0.54676 0.53429 0.47768 0.0
C1071 C 0.52386 0.50646 0.52065 0.0
H1072 H 0.55056 0.48296 0.44076 0.0
C1073 C 0.52257 0.44735 0.5468 0.0
C1074 C 0.53532 0.44066 0.55244 0.0
C1075 C 0.52198 0.46124 0.53043 0.0
C1076 C 0.54312 0.48938 0.46396 0.0
H1077 H 0.51328 0.55456 0.44238 0.0
H1078 H 0.51237 0.5295 0.45409 0.0
H1079 H 0.55071 0.50771 0.42143 0.0
H1080 H 0.55745 0.44318 0.54571 0.0
H1081 H 0.55648 0.46748 0.51916 0.0
H1082 H 0.51657 0.48832 0.56503 0.0
C1083 C 0.52217 0.53473 0.45902 0.0
C1084 C 0.54318 0.50353 0.45261 0.0
C1085 C 0.52271 0.54902 0.45211 0.0
C1086 C 0.54747 0.44807 0.54134 0.0
C1087 C 0.5469 0.46198 0.52566 0.0
C1088 C 0.5239 0.49234 0.53262 0.0
C1089 C 0.53419 0.52725 0.47193 0.0
C1090 C 0.53363 0.51219 0.48123 0.0
C1091 C 0.53415 0.46874 0.52002 0.0
C1092 C 0.53362 0.48364 0.50484 0.0
H1093 H 0.55707 0.55377 0.47696 0.0
H1094 H 0.55615 0.52875 0.48817 0.0
H1095 H 0.51648 0.51297 0.54375 0.0
H1096 H 0.51304 0.44184 0.55466 0.0
H1097 H 0.51199 0.46605 0.52558 0.0
C1098 C 0.84939 0.21425 0.87098 0.0
C1099 C 0.85636 0.22682 0.86391 0.0
C1100 C 0.8352 0.21348 0.86103 0.0
C1101 C 0.80371 0.23422 0.85443 0.0
H1102 H 0.7908 0.2067 0.74058 0.0
C1103 C 0.75119 0.23861 0.73778 0.0
C1104 C 0.74373 0.22655 0.72554 0.0
C1105 C 0.76452 0.23786 0.76093 0.0
C1106 C 0.79416 0.21428 0.77337 0.0
H1107 H 0.854 0.24851 0.84273 0.0
H1108 H 0.82919 0.24718 0.82607 0.0
H1109 H 0.81488 0.20674 0.77176 0.0
H1110 H 0.74419 0.20423 0.72887 0.0
H1111 H 0.76743 0.20289 0.77065 0.0
H1112 H 0.78306 0.2418 0.85624 0.0
C1113 C 0.83469 0.23794 0.83918 0.0
C1114 C 0.80796 0.21431 0.79106 0.0
C1115 C 0.84888 0.23868 0.84833 0.0
C1116 C 0.74976 0.2137 0.73757 0.0
C1117 C 0.76308 0.21294 0.76125 0.0
C1118 C 0.78989 0.23411 0.83727 0.0
C1119 C 0.82776 0.22531 0.84474 0.0
C1120 C 0.8129 0.22445 0.83082 0.0
C1121 C 0.77064 0.22502 0.77291 0.0
C1122 C 0.78501 0.22432 0.79554 0.0
H1123 H 0.85492 0.20495 0.8829 0.0
H1124 H 0.83006 0.20363 0.86586 0.0
H1125 H 0.80726 0.24203 0.8858 0.0
H1126 H 0.74682 0.24867 0.72863 0.0
H1127 H 0.77012 0.24736 0.76819 0.0
C1128 C 0.25796 0.27355 0.83837 0.0
C1129 C 0.25063 0.26112 0.83399 0.0
C1130 C 0.27211 0.27384 0.82722 0.0
C1131 C 0.30319 0.25269 0.8229 0.0
H1132 H 0.31581 0.27845 0.70086 0.0
C1133 C 0.35711 0.24842 0.71707 0.0
C1134 C 0.36406 0.26062 0.70206 0.0
C1135 C 0.34341 0.24883 0.73602 0.0
C1136 C 0.31255 0.27136 0.73582 0.0
H1137 H 0.25233 0.23918 0.81689 0.0
H1138 H 0.27714 0.23967 0.79852 0.0
H1139 H 0.29177 0.27871 0.73229 0.0
H1140 H 0.36229 0.28283 0.69575 0.0
H1141 H 0.33851 0.28364 0.73069 0.0
H1142 H 0.32393 0.24544 0.8274 0.0
C1143 C 0.27192 0.24917 0.81017 0.0
C1144 C 0.29876 0.2715 0.75363 0.0
C1145 C 0.25774 0.24891 0.82038 0.0
C1146 C 0.35711 0.27325 0.70653 0.0
C1147 C 0.34347 0.27369 0.72631 0.0
C1148 C 0.31702 0.25267 0.80576 0.0
C1149 C 0.27917 0.26167 0.81252 0.0
C1150 C 0.29394 0.26207 0.7968 0.0
C1151 C 0.33643 0.26148 0.74121 0.0
C1152 C 0.32184 0.2619 0.76144 0.0
H1153 H 0.25271 0.28312 0.84868 0.0
H1154 H 0.27752 0.28359 0.82962 0.0
H1155 H 0.29971 0.24541 0.85671 0.0
H1156 H 0.36221 0.23852 0.71365 0.0
H1157 H 0.33825 0.2392 0.74586 0.0
C1158 C 0.24867 0.71531 0.15642 0.0
C1159 C 0.24159 0.72792 0.15869 0.0
C1160 C 0.26283 0.71484 0.16752 0.0
C1161 C 0.2942 0.73564 0.16758 0.0
H1162 H 0.30688 0.71078 0.2931 0.0
C1163 C 0.34777 0.74136 0.27389 0.0
C1164 C 0.35501 0.7294 0.28986 0.0
C1165 C 0.33408 0.74056 0.25519 0.0
C1166 C 0.30358 0.71762 0.25719 0.0
H1167 H 0.24373 0.74994 0.17221 0.0
H1168 H 0.26852 0.74913 0.19048 0.0
H1169 H 0.28279 0.7103 0.26183 0.0
H1170 H 0.35371 0.7072 0.29876 0.0
H1171 H 0.32988 0.70571 0.26446 0.0
H1172 H 0.31493 0.74289 0.16214 0.0
C1173 C 0.26311 0.73963 0.18047 0.0
C1174 C 0.28979 0.71735 0.23944 0.0
C1175 C 0.24894 0.74008 0.17031 0.0
C1176 C 0.34832 0.7166 0.28708 0.0
C1177 C 0.33465 0.71576 0.26763 0.0
C1178 C 0.30803 0.7358 0.18472 0.0
C1179 C 0.27014 0.72699 0.18003 0.0
C1180 C 0.28495 0.7265 0.19515 0.0
C1181 C 0.32738 0.72774 0.25124 0.0
C1182 C 0.31285 0.72695 0.23048 0.0
H1183 H 0.24323 0.70577 0.1477 0.0
H1184 H 0.26806 0.70498 0.16663 0.0
H1185 H 0.29072 0.74269 0.1328 0.0
H1186 H 0.35265 0.75139 0.27608 0.0
H1187 H 0.32872 0.75002 0.24433 0.0
C1188 C 0.58086 0.04056 0.61357 0.0
C1189 C 0.56879 0.04838 0.60709 0.0
C1190 C 0.58087 0.02654 0.59955 0.0
C1191 C 0.55887 -0.00376 0.58071 0.0
H1192 H 0.58706 0.98399 0.46874 0.0
C1193 C 0.55672 0.94293 0.46563 0.0
C1194 C 0.56921 0.93601 0.45583 0.0
C1195 C 0.55668 0.9565 0.48673 0.0
C1196 C 0.57925 0.98715 0.50082 0.0
H1197 H 0.54714 0.04762 0.58322 0.0
H1198 H 0.54713 0.02302 0.55952 0.0
H1199 H 0.58705 0.00776 0.50388 0.0
H1200 H 0.59144 0.93767 0.46149 0.0
H1201 H 0.59139 0.96116 0.49999 0.0
H1202 H 0.55116 0.97561 0.57852 0.0
C1203 C 0.55657 0.02777 0.57518 0.0
C1204 C 0.57924 0.00078 0.52077 0.0
C1205 C 0.5566 0.04184 0.58845 0.0
C1206 C 0.58165 0.94282 0.46806 0.0
C1207 C 0.58161 0.95631 0.48985 0.0
C1208 C 0.55897 0.98254 0.56134 0.0
C1209 C 0.56877 0.02006 0.57959 0.0
C1210 C 0.56901 0.00546 0.56062 0.0
C1211 C 0.56913 0.96335 0.49913 0.0
C1212 C 0.56913 0.97784 0.52087 0.0
H1213 H 0.59041 0.04534 0.62783 0.0
H1214 H 0.59038 0.02077 0.60378 0.0
H1215 H 0.55093 -0.0004 0.61183 0.0
H1216 H 0.54698 0.93793 0.4563 0.0
H1217 H 0.54688 0.96167 0.49238 0.0
C1218 C 0.02515 0.95074 0.09194 0.0
C1219 C 0.03754 0.94338 0.08662 0.0
C1220 C 0.0248 0.96487 0.08003 0.0
C1221 C 0.04642 -0.00425 0.07124 0.0
H1222 H 0.01893 0.00901 0.95815 0.0
C1223 C 0.05014 0.04926 0.96025 0.0
C1224 C 0.03789 0.05652 0.94949 0.0
C1225 C 0.04973 0.0357 0.98119 0.0
C1226 C 0.02653 0.00555 0.99063 0.0
H1227 H 0.05933 0.94501 0.06633 0.0
H1228 H 0.05873 0.96971 0.04612 0.0
H1229 H 0.01873 0.98492 0.98913 0.0
H1230 H 0.0156 0.05547 0.95345 0.0
H1231 H 0.01486 0.03193 0.99146 0.0
H1232 H 0.05419 0.01636 0.07322 0.0
C1233 C 0.04931 0.96456 0.0594 0.0
C1234 C 0.02642 0.99175 1.00821 0.0
C1235 C 0.04963 0.95042 0.07058 0.0
C1236 C 0.02521 0.05006 0.96083 0.0
C1237 C 0.02479 0.03656 0.98235 0.0
C1238 C 0.04645 0.0096 0.05416 0.0
C1239 C 0.03687 0.97188 0.06342 0.0
C1240 C 0.03646 0.98669 0.0481 0.0
C1241 C 0.03704 0.02917 0.99238 0.0
C1242 C 0.03661 0.01463 0.01306 0.0
H1243 H 0.01568 0.94555 0.10424 0.0
H1244 H 0.0151 0.97031 0.08379 0.0
H1245 H 0.05418 0.99212 0.10263 0.0
H1246 H 0.06005 0.05399 0.95164 0.0
H1247 H 0.05936 0.03026 0.98744 0.0
C1248 C 0.16566 0.6982 0.11634 0.0
C1249 C 0.17876 0.69342 0.09911 0.0
C1250 C 0.15493 0.68898 0.12705 0.0
C1251 C 0.14905 0.65294 0.17067 0.0
H1252 H 0.11114 0.66117 0.12899 0.0
C1253 C 0.10475 0.61358 0.18709 0.0
C1254 C 0.09168 0.61831 0.20495 0.0
C1255 C 0.11565 0.62277 0.17989 0.0
C1256 C 0.12166 0.65884 0.14177 0.0
H1257 H 0.19063 0.6752 0.07647 0.0
H1258 H 0.17176 0.65906 0.09423 0.0
H1259 H 0.12939 0.67686 0.09772 0.0
H1260 H 0.08 0.63627 0.23268 0.0
H1261 H 0.09916 0.65239 0.22048 0.0
H1262 H 0.14129 0.63483 0.2142 0.0
C1263 C 0.16991 0.66997 0.10059 0.0
C1264 C 0.13212 0.66779 0.12359 0.0
C1265 C 0.18068 0.67923 0.08981 0.0
C1266 C 0.08995 0.63232 0.21899 0.0
C1267 C 0.10087 0.64156 0.21138 0.0
C1268 C 0.13858 0.64396 0.1887 0.0
C1269 C 0.15701 0.67474 0.12066 0.0
C1270 C 0.14594 0.66494 0.1378 0.0
C1271 C 0.11372 0.63692 0.19016 0.0
C1272 C 0.12478 0.64682 0.17441 0.0
H1273 H 0.16378 0.70905 0.12392 0.0
H1274 H 0.14518 0.693 0.14289 0.0
H1275 H 0.15956 0.65059 0.1834 0.0
H1276 H 0.10641 0.60282 0.1762 0.0
H1277 H 0.12539 0.61889 0.16321 0.0
C1278 C 0.62077 0.87871 0.37064 0.0
C1279 C 0.60645 0.87681 0.36771 0.0
C1280 C 0.62957 0.86738 0.37552 0.0
C1281 C 0.63104 0.82913 0.36307 0.0
H1282 H 0.66149 0.8334 0.47512 0.0
C1283 C 0.66388 0.78308 0.44352 0.0
C1284 C 0.67811 0.78492 0.43551 0.0
C1285 C 0.65492 0.79431 0.4388 0.0
C1286 C 0.65305 0.83209 0.44365 0.0
H1287 H 0.59016 0.86151 0.36439 0.0
H1288 H 0.60544 0.84183 0.3744 0.0
H1289 H 0.64647 0.85294 0.45429 0.0
H1290 H 0.69422 0.79997 0.4197 0.0
H1291 H 0.67861 0.81959 0.41278 0.0
H1292 H 0.63757 0.80816 0.3535 0.0
C1293 C 0.60994 0.85202 0.3721 0.0
C1294 C 0.6445 0.8433 0.43123 0.0
C1295 C 0.60116 0.86333 0.36653 0.0
C1296 C 0.68328 0.79826 0.42604 0.0
C1297 C 0.67437 0.80949 0.42221 0.0
C1298 C 0.63951 0.81788 0.37604 0.0
C1299 C 0.62423 0.85392 0.37822 0.0
C1300 C 0.63344 0.84199 0.39048 0.0
C1301 C 0.66008 0.80757 0.427 0.0
C1302 C 0.65063 0.81927 0.41621 0.0
H1303 H 0.62517 0.88896 0.37105 0.0
H1304 H 0.64055 0.86921 0.37846 0.0
H1305 H 0.62275 0.82779 0.3309 0.0
H1306 H 0.6596 0.77289 0.4504 0.0
H1307 H 0.64394 0.7926 0.4432 0.0
C1308 C 0.48777 0.37985 0.63865 0.0
C1309 C 0.50218 0.37868 0.63775 0.0
C1310 C 0.47949 0.36814 0.63366 0.0
C1311 C 0.4799 0.32983 0.63974 0.0
H1312 H 0.44798 0.33366 0.53557 0.0
C1313 C 0.44704 0.28319 0.56497 0.0
C1314 C 0.43292 0.28478 0.5767 0.0
C1315 C 0.45587 0.29456 0.56779 0.0
C1316 C 0.45685 0.33245 0.56479 0.0
H1317 H 0.51921 0.3642 0.63437 0.0
H1318 H 0.5048 0.34386 0.62432 0.0
H1319 H 0.46253 0.3536 0.55536 0.0
H1320 H 0.41681 0.29955 0.59714 0.0
H1321 H 0.43215 0.31939 0.60088 0.0
H1322 H 0.47421 0.30859 0.64841 0.0
C1323 C 0.49985 0.35379 0.62954 0.0
C1324 C 0.46513 0.34389 0.57662 0.0
C1325 C 0.50813 0.36548 0.63515 0.0
C1326 C 0.42767 0.29802 0.58798 0.0
C1327 C 0.43643 0.30939 0.58994 0.0
C1328 C 0.47167 0.31836 0.62742 0.0
C1329 C 0.48544 0.35501 0.6271 0.0
C1330 C 0.47668 0.34277 0.61476 0.0
C1331 C 0.45066 0.30772 0.58137 0.0
C1332 C 0.46 0.3196 0.59028 0.0
H1333 H 0.48286 0.38986 0.64123 0.0
H1334 H 0.46841 0.36943 0.63364 0.0
H1335 H 0.48862 0.32862 0.66977 0.0
H1336 H 0.45137 0.27308 0.55659 0.0
H1337 H 0.46679 0.29305 0.56052 0.0
C1338 C 0.98822 0.114 0.85647 0.0
C1339 C 0.00255 0.11593 0.85508 0.0
C1340 C 0.97941 0.12519 0.86528 0.0
C1341 C 0.97765 0.16342 0.86609 0.0
H1342 H 0.94757 0.15697 0.97799 0.0
C1343 C 0.94319 0.20754 0.95462 0.0
C1344 C 0.92903 0.20507 0.94736 0.0
C1345 C 0.95264 0.19675 0.94819 0.0
C1346 C 0.95591 0.15891 0.9466 0.0
H1347 H 0.01883 0.13125 0.85796 0.0
H1348 H 0.0035 0.1507 0.87438 0.0
H1349 H 0.9629 0.13806 0.95108 0.0
H1350 H 0.91358 0.18936 0.93127 0.0
H1351 H 0.93001 0.17057 0.92101 0.0
H1352 H 0.97064 0.18433 0.8621 0.0
C1353 C -0.00097 0.14057 0.86827 0.0
C1354 C 0.96463 0.14807 0.93076 0.0
C1355 C 0.00784 0.12939 0.85902 0.0
C1356 C 0.92444 0.19155 0.93701 0.0
C1357 C 0.93384 0.18078 0.93133 0.0
C1358 C 0.96897 0.1743 0.88228 0.0
C1359 C 0.98475 0.13854 0.87324 0.0
C1360 C 0.97552 0.15015 0.88981 0.0
C1361 C 0.94805 0.18333 0.93531 0.0
C1362 C 0.95794 0.17211 0.92225 0.0
H1363 H 0.98381 0.10378 0.85299 0.0
H1364 H 0.96843 0.12333 0.86727 0.0
H1365 H 0.98586 0.16536 0.83405 0.0
H1366 H 0.94701 0.21788 0.96222 0.0
H1367 H 0.96354 0.19895 0.95203 0.0
C1368 C 0.16585 0.28467 0.94302 0.0
C1369 C 0.17802 0.28556 0.90894 0.0
C1370 C 0.15557 0.2947 0.93693 0.0
C1371 C 0.13216 0.31192 0.88594 0.0
H1372 H 0.14175 0.35001 0.8544 0.0
C1373 C 0.09085 0.35205 0.82001 0.0
C1374 C 0.0921 0.36508 0.84721 0.0
C1375 C 0.10164 0.34251 0.82376 0.0
C1376 C 0.13885 0.33945 0.86363 0.0
H1377 H 0.18907 0.29789 0.84284 0.0
H1378 H 0.17119 0.31496 0.83109 0.0
H1379 H 0.1598 0.33349 0.87608 0.0
H1380 H 0.10592 0.37853 0.89694 0.0
H1381 H 0.12435 0.36193 0.90511 0.0
H1382 H 0.11112 0.31807 0.87629 0.0
C1383 C 0.16959 0.30676 0.86353 0.0
C1384 C 0.14925 0.3299 0.87535 0.0
C1385 C 0.17987 0.29688 0.8701 0.0
C1386 C 0.10454 0.36856 0.87584 0.0
C1387 C 0.11522 0.35904 0.88008 0.0
C1388 C 0.12172 0.32152 0.87496 0.0
C1389 C 0.15723 0.30575 0.89628 0.0
C1390 C 0.14606 0.316 0.88644 0.0
C1391 C 0.11385 0.34581 0.85499 0.0
C1392 C 0.12494 0.33542 0.86371 0.0
H1393 H 0.16413 0.27611 0.97346 0.0
H1394 H 0.14629 0.29373 0.96373 0.0
H1395 H 0.12931 0.30126 0.89335 0.0
H1396 H 0.08142 0.34906 0.79744 0.0
H1397 H 0.10034 0.33251 0.80287 0.0
C1398 C 0.01664 0.85785 0.20483 0.0
C1399 C 0.0149 0.87073 0.17685 0.0
C1400 C 0.00647 0.84769 0.19973 0.0
C1401 C 0.98789 0.8254 0.14792 0.0
H1402 H 0.94929 0.8354 0.13995 0.0
C1403 C 0.94608 0.78584 0.08008 0.0
C1404 C 0.93362 0.78643 0.11231 0.0
C1405 C 0.95583 0.79639 0.08593 0.0
C1406 C 0.96 0.83236 0.1426 0.0
H1407 H 0.00084 0.88318 0.1235 0.0
H1408 H 0.98349 0.86551 0.11306 0.0
H1409 H 0.96632 0.85296 0.1618 0.0
H1410 H 0.92154 0.79877 0.17483 0.0
H1411 H 0.93853 0.81674 0.18629 0.0
H1412 H 0.98146 0.80466 0.13144 0.0
C1413 C 0.99252 0.86323 0.13993 0.0
C1414 C 0.96982 0.8425 0.15439 0.0
C1415 C 0.00258 0.87338 0.14556 0.0
C1416 C 0.93098 0.79796 0.14906 0.0
C1417 C 0.94074 0.80837 0.15541 0.0
C1418 C 0.97803 0.8152 0.13691 0.0
C1419 C 0.99438 0.85019 0.16623 0.0
C1420 C 0.98391 0.83919 0.15685 0.0
C1421 C 0.95336 0.80768 0.12447 0.0
C1422 C 0.96395 0.81856 0.13403 0.0
H1423 H 0.026 0.85549 0.22941 0.0
H1424 H 0.00814 0.83785 0.22157 0.0
H1425 H -0.00135 0.82249 0.14857 0.0
H1426 H 0.94841 0.77712 0.05127 0.0
H1427 H 0.96534 0.79564 0.06054 0.0
C1428 C 0.50081 0.62654 0.41509 0.0
C1429 C 0.51229 0.62838 0.37718 0.0
C1430 C 0.49035 0.63633 0.41716 0.0
C1431 C 0.46609 0.65465 0.3934 0.0
H1432 H 0.47524 0.69349 0.38627 0.0
C1433 C 0.42439 0.69644 0.3775 0.0
C1434 C 0.42663 0.70921 0.40579 0.0
C1435 C 0.43474 0.68651 0.37576 0.0
C1436 C 0.47253 0.68269 0.38915 0.0
H1437 H 0.52156 0.64182 0.3103 0.0
H1438 H 0.50296 0.65883 0.3125 0.0
H1439 H 0.49346 0.67635 0.37715 0.0
H1440 H 0.44135 0.7213 0.45708 0.0
H1441 H 0.45933 0.70372 0.45591 0.0
H1442 H 0.44528 0.66091 0.40788 0.0
C1443 C 0.50227 0.64991 0.34175 0.0
C1444 C 0.48295 0.67285 0.38282 0.0
C1445 C 0.51286 0.64011 0.34007 0.0
C1446 C 0.4393 0.71159 0.43472 0.0
C1447 C 0.44966 0.70157 0.43345 0.0
C1448 C 0.45572 0.66446 0.40036 0.0
C1449 C 0.49095 0.64818 0.3808 0.0
C1450 C 0.47986 0.65871 0.38495 0.0
C1451 C 0.44758 0.689 0.403 0.0
C1452 C 0.45878 0.6786 0.39811 0.0
H1453 H 0.50001 0.61769 0.44461 0.0
H1454 H 0.48195 0.63475 0.44861 0.0
H1455 H 0.46328 0.64386 0.39448 0.0
H1456 H 0.41474 0.6942 0.35501 0.0
H1457 H 0.43278 0.67705 0.35127 0.0
C1458 C 0.67174 0.19829 0.61646 0.0
C1459 C 0.68528 0.19334 0.61076 0.0
C1460 C 0.66073 0.18916 0.62248 0.0
C1461 C 0.65363 0.15365 0.67272 0.0
H1462 H 0.61715 0.16112 0.60945 0.0
C1463 C 0.60881 0.11458 0.67855 0.0
C1464 C 0.5956 0.11963 0.69213 0.0
C1465 C 0.6199 0.12359 0.672 0.0
C1466 C 0.62725 0.15901 0.62801 0.0
H1467 H 0.69776 0.1749 0.60236 0.0
H1468 H 0.67847 0.15894 0.61111 0.0
H1469 H 0.63616 0.17647 0.58387 0.0
H1470 H 0.58375 0.13803 0.7119 0.0
H1471 H 0.6032 0.15382 0.7004 0.0
H1472 H 0.6447 0.13606 0.71608 0.0
C1473 C 0.67643 0.16991 0.61286 0.0
C1474 C 0.63816 0.16777 0.61325 0.0
C1475 C 0.68747 0.17905 0.60721 0.0
C1476 C 0.59382 0.13383 0.70169 0.0
C1477 C 0.60491 0.14287 0.69451 0.0
C1478 C 0.64275 0.14484 0.68709 0.0
C1479 C 0.66298 0.17486 0.62236 0.0
C1480 C 0.65148 0.16521 0.63555 0.0
C1481 C 0.61798 0.13785 0.67839 0.0
C1482 C 0.62944 0.14745 0.66502 0.0
H1483 H 0.66967 0.20924 0.61893 0.0
H1484 H 0.65054 0.19336 0.63003 0.0
H1485 H 0.66369 0.15153 0.69176 0.0
H1486 H 0.6105 0.10368 0.67098 0.0
H1487 H 0.62984 0.11944 0.65929 0.0
C1488 C 0.01261 0.35006 0.96811 0.0
C1489 C 0.02563 0.34934 0.94066 0.0
C1490 C 0.0027 0.34 0.95646 0.0
C1491 C -0.00263 0.30497 0.89416 0.0
H1492 H 0.96035 0.3186 0.86646 0.0
C1493 C 0.95272 0.2702 0.80918 0.0
C1494 C 0.94031 0.27157 0.84145 0.0
C1495 C 0.96346 0.27962 0.81786 0.0
C1496 C 0.97062 0.31463 0.87435 0.0
H1497 H 0.03865 0.33729 0.88114 0.0
H1498 H 0.0213 0.31971 0.86053 0.0
H1499 H 0.97866 0.33473 0.8917 0.0
H1500 H 0.92959 0.28388 0.90871 0.0
H1501 H 0.94811 0.30033 0.9227 0.0
H1502 H 0.98922 0.28483 0.87661 0.0
C1503 C 0.0188 0.32797 0.89156 0.0
C1504 C 0.9811 0.32385 0.88912 0.0
C1505 C 0.02875 0.33802 0.90344 0.0
C1506 C 0.93884 0.28267 0.88185 0.0
C1507 C 0.94949 0.29209 0.89015 0.0
C1508 C 0.98686 0.29572 0.87916 0.0
C1509 C 0.00556 0.32903 0.91684 0.0
C1510 C 0.99456 0.31912 0.89999 0.0
C1511 C 0.96195 0.29063 0.85863 0.0
C1512 C 0.97335 0.30046 0.86986 0.0
H1513 H 0.01 0.35856 0.99772 0.0
H1514 H 0.99271 0.34092 0.97783 0.0
H1515 H 0.00761 0.30099 0.90258 0.0
H1516 H 0.95416 0.26186 0.77728 0.0
H1517 H 0.97292 0.27833 0.79253 0.0
C1518 C 0.51925 0.13542 0.54161 0.0
C1519 C 0.5316 0.13591 0.57447 0.0
C1520 C 0.50969 0.14611 0.54619 0.0
C1521 C 0.50477 0.182 0.60211 0.0
H1522 H 0.46669 0.17031 0.6152 0.0
C1523 C 0.46055 0.21734 0.68744 0.0
C1524 C 0.4483 0.21695 0.65351 0.0
C1525 C 0.47117 0.20796 0.67573 0.0
C1526 C 0.47726 0.17375 0.61113 0.0
H1527 H 0.54387 0.14812 0.63639 0.0
H1528 H 0.5271 0.16668 0.64533 0.0
H1529 H 0.48451 0.15329 0.59575 0.0
H1530 H 0.43787 0.20668 0.57922 0.0
H1531 H 0.45619 0.19021 0.55998 0.0
H1532 H 0.49739 0.20247 0.61904 0.0
C1533 C 0.52486 0.15819 0.6151 0.0
C1534 C 0.48749 0.16401 0.59962 0.0
C1535 C 0.53448 0.14755 0.61003 0.0
C1536 C 0.44699 0.20706 0.60737 0.0
C1537 C 0.45752 0.19765 0.59605 0.0
C1538 C 0.49452 0.19175 0.61414 0.0
C1539 C 0.51221 0.15745 0.58431 0.0
C1540 C 0.50137 0.168 0.59476 0.0
C1541 C 0.46969 0.19797 0.63019 0.0
C1542 C 0.48067 0.18771 0.61856 0.0
H1543 H 0.51686 0.12663 0.51325 0.0
H1544 H 0.5002 0.14537 0.52069 0.0
H1545 H 0.51533 0.18545 0.59804 0.0
H1546 H 0.46187 0.22475 0.72359 0.0
H1547 H 0.48042 0.20834 0.70306 0.0
C1548 C 0.65014 0.72393 0.37853 0.0
C1549 C 0.66151 0.71986 0.34346 0.0
C1550 C 0.63974 0.71452 0.39268 0.0
C1551 C 0.63448 0.67712 0.40763 0.0
H1552 H 0.59575 0.68669 0.41595 0.0
C1553 C 0.592 0.63644 0.43271 0.0
C1554 C 0.58091 0.63922 0.47182 0.0
C1555 C 0.60175 0.64655 0.41983 0.0
C1556 C 0.60655 0.68393 0.41458 0.0
H1557 H 0.67046 0.70302 0.29247 0.0
H1558 H 0.65221 0.68664 0.31635 0.0
H1559 H 0.6125 0.70398 0.38353 0.0
H1560 H 0.57159 0.65483 0.5289 0.0
H1561 H 0.58867 0.6726 0.50579 0.0
H1562 H 0.62856 0.65707 0.43814 0.0
C1563 C 0.65151 0.697 0.33428 0.0
C1564 C 0.61614 0.69381 0.39587 0.0
C1565 C 0.66193 0.70639 0.32035 0.0
C1566 C 0.57991 0.65238 0.49817 0.0
C1567 C 0.58968 0.66255 0.48495 0.0
C1568 C 0.62492 0.66726 0.42613 0.0
C1569 C 0.64048 0.70086 0.37188 0.0
C1570 C 0.6302 0.69047 0.3917 0.0
C1571 C 0.60066 0.65974 0.4454 0.0
C1572 C 0.61084 0.67052 0.42934 0.0
H1573 H 0.64963 0.73421 0.3976 0.0
H1574 H 0.63145 0.7178 0.42211 0.0
H1575 H 0.64527 0.6743 0.40638 0.0
H1576 H 0.59293 0.62657 0.41027 0.0
H1577 H 0.60995 0.64413 0.38835 0.0
C1578 C 0.09428 0.85957 0.06371 0.0
C1579 C 0.08055 0.85806 0.08294 0.0
C1580 C 0.10397 0.84927 0.07529 0.0
C1581 C 0.1078 0.81262 0.11267 0.0
H1582 H 0.14244 0.82402 0.18441 0.0
C1583 C 0.14627 0.77261 0.20102 0.0
C1584 C 0.16017 0.77479 0.18646 0.0
C1585 C 0.13663 0.78312 0.19311 0.0
C1586 C 0.13288 0.82067 0.16387 0.0
H1587 H 0.06621 0.8443 0.12796 0.0
H1588 H 0.08305 0.82622 0.14677 0.0
H1589 H 0.12545 0.84136 0.15582 0.0
H1590 H 0.17501 0.78975 0.15423 0.0
H1591 H 0.15818 0.80807 0.1395 0.0
H1592 H 0.11525 0.79197 0.11952 0.0
C1593 C 0.08629 0.83539 0.12275 0.0
C1594 C 0.12317 0.8306 0.14745 0.0
C1595 C 0.07662 0.84573 0.11164 0.0
C1596 C 0.16438 0.78786 0.16651 0.0
C1597 C 0.15471 0.79835 0.15804 0.0
C1598 C 0.11754 0.80269 0.12862 0.0
C1599 C 0.10011 0.83718 0.10578 0.0
C1600 C 0.11053 0.82666 0.12176 0.0
C1601 C 0.14067 0.79599 0.16981 0.0
C1602 C 0.13019 0.80659 0.15455 0.0
H1603 H 0.0976 0.86881 0.04049 0.0
H1604 H 0.11451 0.8508 0.06077 0.0
H1605 H 0.0982 0.80931 0.09237 0.0
H1606 H 0.14281 0.76265 0.21701 0.0
H1607 H 0.12596 0.78106 0.20404 0.0
C1608 C 0.95943 0.72352 0.18439 0.0
C1609 C 0.94805 0.72102 0.22205 0.0
C1610 C 0.96958 0.71348 0.17666 0.0
C1611 C 0.97385 0.67584 0.18775 0.0
H1612 H 0.01259 0.68404 0.16474 0.0
C1613 C 0.01489 0.63341 0.17361 0.0
C1614 C 0.0249 0.63453 0.12791 0.0
C1615 C 0.00591 0.64428 0.18557 0.0
C1616 C 0.00177 0.68164 0.17052 0.0
H1617 H 0.93881 0.70646 0.28423 0.0
H1618 H 0.95668 0.68902 0.27183 0.0
H1619 H -0.00344 0.70266 0.18913 0.0
H1620 H 0.03331 0.64804 0.05903 0.0
H1621 H 0.01763 0.66715 0.08055 0.0
H1622 H 0.97906 0.65484 0.16952 0.0
C1623 C 0.95757 0.69857 0.24688 0.0
C1624 C 0.9926 0.69228 0.18456 0.0
C1625 C 0.94738 0.70858 0.25426 0.0
C1626 C 0.0258 0.64687 0.09483 0.0
C1627 C 0.01683 0.65781 0.10712 0.0
C1628 C 0.98301 0.66523 0.17409 0.0
C1629 C 0.9686 0.70075 0.2067 0.0
C1630 C 0.97852 0.68949 0.19346 0.0
C1631 C 0.00676 0.65658 0.15248 0.0
C1632 C -0.00293 0.668 0.16545 0.0
H1633 H 0.96013 0.73296 0.15842 0.0
H1634 H 0.97785 0.71545 0.14496 0.0
H1635 H 0.96304 0.67336 0.19279 0.0
H1636 H 0.01413 0.62422 0.20113 0.0
H1637 H -0.00158 0.64312 0.22152 0.0
C1638 C 0.16579 0.2087 0.75278 0.0
C1639 C 0.16536 0.22018 0.79133 0.0
C1640 C 0.15548 0.19867 0.75557 0.0
C1641 C 0.12056 0.19178 0.82004 0.0
H1642 H 0.13162 0.1536 0.80173 0.0
C1643 C 0.08764 0.14572 0.90009 0.0
C1644 C 0.08495 0.13579 0.8555 0.0
C1645 C 0.0974 0.15602 0.88976 0.0
C1646 C 0.12841 0.16424 0.80661 0.0
H1647 H 0.15393 0.23024 0.86289 0.0
H1648 H 0.13624 0.21261 0.86943 0.0
H1649 H 0.14853 0.17187 0.78663 0.0
H1650 H 0.0905 0.12848 0.76619 0.0
H1651 H 0.10792 0.14633 0.74881 0.0
H1652 H 0.10056 0.18397 0.84259 0.0
C1653 C 0.14419 0.21147 0.83552 0.0
C1654 C 0.13804 0.17473 0.79752 0.0
C1655 C 0.15436 0.22159 0.83198 0.0
C1656 C 0.0924 0.13608 0.80109 0.0
C1657 C 0.10236 0.14622 0.79127 0.0
C1658 C 0.11101 0.18128 0.83021 0.0
C1659 C 0.14467 0.1998 0.79778 0.0
C1660 C 0.13426 0.18865 0.80439 0.0
C1661 C 0.1048 0.15637 0.83521 0.0
C1662 C 0.11488 0.16744 0.82378 0.0
H1663 H 0.17414 0.20745 0.72078 0.0
H1664 H 0.15605 0.18999 0.72492 0.0
H1665 H 0.11716 0.20236 0.82446 0.0
H1666 H 0.08194 0.14571 0.94221 0.0
H1667 H 0.0992 0.16371 0.9244 0.0
C1668 C 0.66311 0.28219 0.57052 0.0
C1669 C 0.6674 0.27761 0.62783 0.0
C1670 C 0.65351 0.29285 0.56522 0.0
C1671 C 0.63858 0.32212 0.64803 0.0
H1672 H 0.60778 0.31755 0.5382 0.0
C1673 C 0.59085 0.35724 0.65618 0.0
C1674 C 0.58465 0.361 0.60117 0.0
C1675 C 0.60147 0.34755 0.6574 0.0
C1676 C 0.61643 0.31909 0.5684 0.0
H1677 H 0.66483 0.28055 0.72449 0.0
H1678 H 0.64824 0.29924 0.71511 0.0
H1679 H 0.62551 0.29981 0.54358 0.0
H1680 H 0.58479 0.35754 0.50423 0.0
H1681 H 0.60358 0.34091 0.50619 0.0
H1682 H 0.62955 0.3414 0.67289 0.0
C1683 C 0.65242 0.29469 0.67434 0.0
C1684 C 0.62657 0.30892 0.57152 0.0
C1685 C 0.66195 0.284 0.67966 0.0
C1686 C 0.58943 0.35496 0.54731 0.0
C1687 C 0.60008 0.34531 0.54851 0.0
C1688 C 0.62849 0.33234 0.64469 0.0
C1689 C 0.64807 0.29918 0.61709 0.0
C1690 C 0.63767 0.31027 0.61176 0.0
C1691 C 0.60618 0.34144 0.60361 0.0
C1692 C 0.61723 0.33088 0.60525 0.0
H1693 H 0.66726 0.27764 0.52969 0.0
H1694 H 0.65045 0.29622 0.52051 0.0
H1695 H 0.64715 0.32352 0.67883 0.0
H1696 H 0.58755 0.36182 0.69841 0.0
H1697 H 0.60582 0.34468 0.7007 0.0
C1698 C 0.51763 0.84928 0.42366 0.0
C1699 C 0.52437 0.85489 0.37297 0.0
C1700 C 0.50714 0.83957 0.41639 0.0
C1701 C 0.49435 0.81297 0.316 0.0
H1702 H 0.4589 0.81963 0.39113 0.0
C1703 C 0.44749 0.77771 0.27093 0.0
C1704 C 0.43831 0.7755 0.31889 0.0
C1705 C 0.45803 0.78745 0.27639 0.0
C1706 C 0.46878 0.81746 0.37064 0.0
H1707 H 0.52515 0.85468 0.27471 0.0
H1708 H 0.50724 0.83731 0.26257 0.0
H1709 H 0.47745 0.83625 0.40443 0.0
H1710 H 0.4331 0.78127 0.41066 0.0
H1711 H 0.45174 0.79782 0.42136 0.0
H1712 H 0.48596 0.79398 0.28383 0.0
C1713 C 0.51012 0.84052 0.30777 0.0
C1714 C 0.47937 0.82704 0.37806 0.0
C1715 C 0.52044 0.8504 0.3149 0.0
C1716 C 0.43995 0.78298 0.37269 0.0
C1717 C 0.45059 0.79252 0.37859 0.0
C1718 C 0.48384 0.80325 0.30942 0.0
C1719 C 0.50335 0.83509 0.35842 0.0
C1720 C 0.49221 0.82488 0.35075 0.0
C1721 C 0.45972 0.79498 0.33036 0.0
C1722 C 0.47091 0.80537 0.33666 0.0
H1723 H 0.52053 0.85225 0.46909 0.0
H1724 H 0.50212 0.83541 0.45614 0.0
H1725 H 0.50423 0.81107 0.29489 0.0
H1726 H 0.44636 0.77207 0.22891 0.0
H1727 H 0.46471 0.7892 0.23795 0.0
loop_
_geom_bond_atom_site_label_1
_geom_bond_atom_site_label_2
_geom_bond_distance
_geom_bond_site_symmetry_2
_ccdc_geom_bond_type
Co0 N4 2.148 1_554 S
Co0 N10 2.128 . S
Co0 N20 2.194 . S
Co0 O25 2.351 . S
Co0 O26 2.155 . S
Co0 O27 2.096 . S
C1 N4 1.301 . S
C1 N5 1.328 . S
C1 H6 0.930 . S
C2 C3 1.333 . S
C2 N4 1.317 . S
C2 H7 0.930 . S
C3 C2 1.333 . S
C3 N5 1.350 . S
C3 H29 0.931 . S
N4 Co0 2.148 1_556 S
N4 C1 1.301 . S
N4 C2 1.317 . S
N5 C1 1.328 . S
N5 C3 1.350 . S
H6 C1 0.930 . S
H7 C2 0.930 . S
C8 O9 1.224 . S
C8 O27 1.247 . S
O9 C8 1.224 . S
N10 Co0 2.128 . S
N10 C11 1.355 . S
N10 C13 1.311 . S
C11 N10 1.355 . S
C11 C12 1.363 . S
C11 H23 0.929 . S
C12 C11 1.363 . S
C12 N14 1.375 . S
C12 H30 0.931 . S
C13 N10 1.311 . S
C13 N14 1.347 . S
C13 H24 0.929 . S
N14 C12 1.375 . S
N14 C13 1.347 . S
C15 C18 1.365 . S
C15 N20 1.328 . S
C15 H21 0.929 . S
C16 C17 1.362 . S
C16 C19 1.378 . S
C16 H31 0.929 . S
C17 C16 1.362 . S
C17 C18 1.366 . S
C18 C15 1.365 . S
C18 C17 1.366 . S
C18 H32 0.930 . S
C19 C16 1.378 . S
C19 N20 1.315 . S
C19 H22 0.930 . S
N20 Co0 2.194 . S
N20 C15 1.328 . S
N20 C19 1.315 . S
H21 C15 0.929 . S
H22 C19 0.930 . S
H23 C11 0.929 . S
H24 C13 0.929 . S
O25 Co0 2.351 . S
O25 C28 1.244 . S
O26 Co0 2.155 . S
O26 C28 1.240 . S
O27 Co0 2.096 . S
O27 C8 1.247 . S
C28 O25 1.244 . S
C28 O26 1.240 . S
H29 C3 0.931 . S
H30 C12 0.931 . S
H31 C16 0.929 . S
H32 C18 0.930 . S
Co33 N37 2.148 . S
Co33 N43 2.128 . S
Co33 N53 2.194 . S
Co33 O58 2.351 . S
Co33 O59 2.155 . S
Co33 O60 2.096 . S
C34 N37 1.301 . S
C34 N38 1.328 . S
C34 H39 0.930 . S
C35 C36 1.333 . S
C35 N37 1.317 . S
C35 H40 0.930 . S
C36 C35 1.333 . S
C36 N38 1.350 . S
C36 H62 0.931 . S
N37 Co33 2.148 . S
N37 C34 1.301 . S
N37 C35 1.317 . S
N38 C34 1.328 . S
N38 C36 1.350 . S
H39 C34 0.930 . S
H40 C35 0.930 . S
C41 O42 1.224 . S
C41 O60 1.247 . S
O42 C41 1.224 . S
N43 Co33 2.128 . S
N43 C44 1.355 . S
N43 C46 1.311 . S
C44 N43 1.355 . S
C44 C45 1.363 . S
C44 H56 0.929 . S
C45 C44 1.363 . S
C45 N47 1.375 . S
C45 H63 0.931 . S
C46 N43 1.311 . S
C46 N47 1.347 . S
C46 H57 0.929 . S
N47 C45 1.375 . S
N47 C46 1.347 . S
C48 C51 1.365 . S
C48 N53 1.328 . S
C48 H54 0.929 . S
C49 C50 1.362 . S
C49 C52 1.378 . S
C49 H64 0.929 . S
C50 C49 1.362 . S
C50 C51 1.366 . S
C51 C48 1.365 . S
C51 C50 1.366 . S
C51 H65 0.930 . S
C52 C49 1.378 . S
C52 N53 1.315 . S
C52 H55 0.930 . S
N53 Co33 2.194 . S
N53 C48 1.328 . S
N53 C52 1.315 . S
H54 C48 0.929 . S
H55 C52 0.930 . S
H56 C44 0.929 . S
H57 C46 0.929 . S
O58 Co33 2.351 . S
O58 C61 1.244 . S
O59 Co33 2.155 . S
O59 C61 1.240 . S
O60 Co33 2.096 . S
O60 C41 1.247 . S
C61 O58 1.244 . S
C61 O59 1.240 . S
H62 C36 0.931 . S
H63 C45 0.931 . S
H64 C49 0.929 . S
H65 C51 0.930 . S
Co66 N70 2.148 . S
Co66 N76 2.128 . S
Co66 N86 2.194 . S
Co66 O91 2.351 . S
Co66 O92 2.155 . S
Co66 O93 2.096 . S
C67 N70 1.301 . S
C67 N71 1.328 . S
C67 H72 0.930 . S
C68 C69 1.333 . S
C68 N70 1.317 . S
C68 H73 0.930 . S
C69 C68 1.333 . S
C69 N71 1.350 . S
C69 H95 0.931 . S
N70 Co66 2.148 . S
N70 C67 1.301 . S
N70 C68 1.317 . S
N71 C67 1.328 . S
N71 C69 1.350 . S
H72 C67 0.930 . S
H73 C68 0.930 . S
C74 O75 1.224 . S
C74 O93 1.247 . S
O75 C74 1.224 . S
N76 Co66 2.128 . S
N76 C77 1.355 . S
N76 C79 1.311 . S
C77 N76 1.355 . S
C77 C78 1.363 . S
C77 H89 0.929 . S
C78 C77 1.363 . S
C78 N80 1.375 . S
C78 H96 0.931 . S
C79 N76 1.311 . S
C79 N80 1.347 . S
C79 H90 0.929 . S
N80 C78 1.375 . S
N80 C79 1.347 . S
C81 C84 1.365 . S
C81 N86 1.328 . S
C81 H87 0.929 . S
C82 C83 1.362 . S
C82 C85 1.378 . S
C82 H97 0.929 . S
C83 C82 1.362 . S
C83 C84 1.366 . S
C84 C81 1.365 . S
C84 C83 1.366 . S
C84 H98 0.930 . S
C85 C82 1.378 . S
C85 N86 1.315 . S
C85 H88 0.930 . S
N86 Co66 2.194 . S
N86 C81 1.328 . S
N86 C85 1.315 . S
H87 C81 0.929 . S
H88 C85 0.930 . S
H89 C77 0.929 . S
H90 C79 0.929 . S
O91 Co66 2.351 . S
O91 C94 1.244 . S
O92 Co66 2.155 . S
O92 C94 1.240 . S
O93 Co66 2.096 . S
O93 C74 1.247 . S
C94 O91 1.244 . S
C94 O92 1.240 . S
H95 C69 0.931 . S
H96 C78 0.931 . S
H97 C82 0.929 . S
H98 C84 0.930 . S
Co99 N103 2.148 . S
Co99 N109 2.128 . S
Co99 N119 2.194 . S
Co99 O124 2.351 . S
Co99 O125 2.155 . S
Co99 O126 2.096 . S
C100 N103 1.301 . S
C100 N104 1.328 . S
C100 H105 0.930 . S
C101 C102 1.333 . S
C101 N103 1.317 . S
C101 H106 0.930 . S
C102 C101 1.333 . S
C102 N104 1.350 . S
C102 H128 0.931 . S
N103 Co99 2.148 . S
N103 C100 1.301 . S
N103 C101 1.317 . S
N104 C100 1.328 . S
N104 C102 1.350 . S
H105 C100 0.930 . S
H106 C101 0.930 . S
C107 O108 1.224 . S
C107 O126 1.247 . S
O108 C107 1.224 . S
N109 Co99 2.128 . S
N109 C110 1.355 . S
N109 C112 1.311 . S
C110 N109 1.355 . S
C110 C111 1.363 1_556 S
C110 H122 0.929 . S
C111 C110 1.363 1_554 S
C111 N113 1.375 . S
C111 H129 0.931 . S
C112 N109 1.311 . S
C112 N113 1.347 1_556 S
C112 H123 0.929 . S
N113 C111 1.375 . S
N113 C112 1.347 1_554 S
C114 C117 1.365 . S
C114 N119 1.328 . S
C114 H120 0.929 . S
C115 C116 1.362 . S
C115 C118 1.378 . S
C115 H130 0.929 . S
C116 C115 1.362 . S
C116 C117 1.366 . S
C117 C114 1.365 . S
C117 C116 1.366 . S
C117 H131 0.930 . S
C118 C115 1.378 . S
C118 N119 1.315 . S
C118 H121 0.930 . S
N119 Co99 2.194 . S
N119 C114 1.328 . S
N119 C118 1.315 . S
H120 C114 0.929 . S
H121 C118 0.930 . S
H122 C110 0.929 . S
H123 C112 0.929 . S
O124 Co99 2.351 . S
O124 C127 1.244 . S
O125 Co99 2.155 . S
O125 C127 1.240 . S
O126 Co99 2.096 . S
O126 C107 1.247 . S
C127 O124 1.244 . S
C127 O125 1.240 . S
H128 C102 0.931 . S
H129 C111 0.931 . S
H130 C115 0.929 . S
H131 C117 0.930 . S
Co132 N136 2.148 1_556 S
Co132 N142 2.128 . S
Co132 N152 2.194 . S
Co132 O157 2.351 . S
Co132 O158 2.155 . S
Co132 O159 2.096 . S
C133 N136 1.301 . S
C133 N137 1.328 . S
C133 H138 0.930 . S
C134 C135 1.333 . S
C134 N136 1.317 . S
C134 H139 0.930 . S
C135 C134 1.333 . S
C135 N137 1.350 . S
C135 H161 0.931 . S
N136 Co132 2.148 1_554 S
N136 C133 1.301 . S
N136 C134 1.317 . S
N137 C133 1.328 . S
N137 C135 1.350 . S
H138 C133 0.930 . S
H139 C134 0.930 . S
C140 O141 1.224 . S
C140 O159 1.247 . S
O141 C140 1.224 . S
N142 Co132 2.128 . S
N142 C143 1.355 . S
N142 C145 1.311 . S
C143 N142 1.355 . S
C143 C144 1.363 . S
C143 H155 0.929 . S
C144 C143 1.363 . S
C144 N146 1.375 . S
C144 H162 0.931 . S
C145 N142 1.311 . S
C145 N146 1.347 . S
C145 H156 0.929 . S
N146 C144 1.375 . S
N146 C145 1.347 . S
C147 C150 1.365 . S
C147 N152 1.328 . S
C147 H153 0.929 . S
C148 C149 1.362 . S
C148 C151 1.378 . S
C148 H163 0.929 . S
C149 C148 1.362 . S
C149 C150 1.366 . S
C150 C147 1.365 . S
C150 C149 1.366 . S
C150 H164 0.930 . S
C151 C148 1.378 . S
C151 N152 1.315 . S
C151 H154 0.930 . S
N152 Co132 2.194 . S
N152 C147 1.328 . S
N152 C151 1.315 . S
H153 C147 0.929 . S
H154 C151 0.930 . S
H155 C143 0.929 . S
H156 C145 0.929 . S
O157 Co132 2.351 . S
O157 C160 1.244 . S
O158 Co132 2.155 . S
O158 C160 1.240 . S
O159 Co132 2.096 . S
O159 C140 1.247 . S
C160 O157 1.244 . S
C160 O158 1.240 . S
H161 C135 0.931 . S
H162 C144 0.931 . S
H163 C148 0.929 . S
H164 C150 0.930 . S
Co165 N169 2.148 . S
Co165 N175 2.128 . S
Co165 N185 2.194 . S
Co165 O190 2.351 . S
Co165 O191 2.155 . S
Co165 O192 2.096 . S
C166 N169 1.301 . S
C166 N170 1.328 . S
C166 H171 0.930 . S
C167 C168 1.333 . S
C167 N169 1.317 . S
C167 H172 0.930 . S
C168 C167 1.333 . S
C168 N170 1.350 . S
C168 H194 0.931 . S
N169 Co165 2.148 . S
N169 C166 1.301 . S
N169 C167 1.317 . S
N170 C166 1.328 . S
N170 C168 1.350 . S
H171 C166 0.930 . S
H172 C167 0.930 . S
C173 O174 1.224 . S
C173 O192 1.247 . S
O174 C173 1.224 . S
N175 Co165 2.128 . S
N175 C176 1.355 . S
N175 C178 1.311 . S
C176 N175 1.355 . S
C176 C177 1.363 1_554 S
C176 H188 0.929 . S
C177 C176 1.363 1_556 S
C177 N179 1.375 . S
C177 H195 0.931 . S
C178 N175 1.311 . S
C178 N179 1.347 1_554 S
C178 H189 0.929 . S
N179 C177 1.375 . S
N179 C178 1.347 1_556 S
C180 C183 1.365 . S
C180 N185 1.328 . S
C180 H186 0.929 . S
C181 C182 1.362 . S
C181 C184 1.378 . S
C181 H196 0.929 . S
C182 C181 1.362 . S
C182 C183 1.366 . S
C183 C180 1.365 . S
C183 C182 1.366 . S
C183 H197 0.930 . S
C184 C181 1.378 . S
C184 N185 1.315 . S
C184 H187 0.930 . S
N185 Co165 2.194 . S
N185 C180 1.328 . S
N185 C184 1.315 . S
H186 C180 0.929 . S
H187 C184 0.930 . S
H188 C176 0.929 . S
H189 C178 0.929 . S
O190 Co165 2.351 . S
O190 C193 1.244 . S
O191 Co165 2.155 . S
O191 C193 1.240 . S
O192 Co165 2.096 . S
O192 C173 1.247 . S
C193 O190 1.244 . S
C193 O191 1.240 . S
H194 C168 0.931 . S
H195 C177 0.931 . S
H196 C181 0.929 . S
H197 C183 0.930 . S
Co198 N202 2.148 . S
Co198 N208 2.128 . S
Co198 N218 2.194 . S
Co198 O223 2.351 . S
Co198 O224 2.155 . S
Co198 O225 2.096 . S
C199 N202 1.301 . S
C199 N203 1.328 . S
C199 H204 0.930 . S
C200 C201 1.333 . S
C200 N202 1.317 . S
C200 H205 0.930 . S
C201 C200 1.333 . S
C201 N203 1.350 . S
C201 H227 0.931 . S
N202 Co198 2.148 . S
N202 C199 1.301 . S
N202 C200 1.317 . S
N203 C199 1.328 . S
N203 C201 1.350 . S
H204 C199 0.930 . S
H205 C200 0.930 . S
C206 O207 1.224 . S
C206 O225 1.247 . S
O207 C206 1.224 . S
N208 Co198 2.128 . S
N208 C209 1.355 . S
N208 C211 1.311 . S
C209 N208 1.355 . S
C209 C210 1.363 . S
C209 H221 0.929 . S
C210 C209 1.363 . S
C210 N212 1.375 . S
C210 H228 0.931 . S
C211 N208 1.311 . S
C211 N212 1.347 . S
C211 H222 0.929 . S
N212 C210 1.375 . S
N212 C211 1.347 . S
C213 C216 1.365 . S
C213 N218 1.328 . S
C213 H219 0.929 . S
C214 C215 1.362 . S
C214 C217 1.378 . S
C214 H229 0.929 . S
C215 C214 1.362 . S
C215 C216 1.366 . S
C216 C213 1.365 . S
C216 C215 1.366 . S
C216 H230 0.930 . S
C217 C214 1.378 . S
C217 N218 1.315 . S
C217 H220 0.930 . S
N218 Co198 2.194 . S
N218 C213 1.328 . S
N218 C217 1.315 . S
H219 C213 0.929 . S
H220 C217 0.930 . S
H221 C209 0.929 . S
H222 C211 0.929 . S
O223 Co198 2.351 . S
O223 C226 1.244 . S
O224 Co198 2.155 . S
O224 C226 1.240 . S
O225 Co198 2.096 . S
O225 C206 1.247 . S
C226 O223 1.244 . S
C226 O224 1.240 . S
H227 C201 0.931 . S
H228 C210 0.931 . S
H229 C214 0.929 . S
H230 C216 0.930 . S
Co231 N235 2.148 . S
Co231 N241 2.128 . S
Co231 N251 2.194 . S
Co231 O256 2.351 . S
Co231 O257 2.155 . S
Co231 O258 2.096 . S
C232 N235 1.301 . S
C232 N236 1.328 . S
C232 H237 0.930 . S
C233 C234 1.333 . S
C233 N235 1.317 . S
C233 H238 0.930 . S
C234 C233 1.333 . S
C234 N236 1.350 . S
C234 H260 0.931 . S
N235 Co231 2.148 . S
N235 C232 1.301 . S
N235 C233 1.317 . S
N236 C232 1.328 . S
N236 C234 1.350 . S
H237 C232 0.930 . S
H238 C233 0.930 . S
C239 O240 1.224 . S
C239 O258 1.247 . S
O240 C239 1.224 . S
N241 Co231 2.128 . S
N241 C242 1.355 . S
N241 C244 1.311 . S
C242 N241 1.355 . S
C242 C243 1.363 . S
C242 H254 0.929 . S
C243 C242 1.363 . S
C243 N245 1.375 . S
C243 H261 0.931 . S
C244 N241 1.311 . S
C244 N245 1.347 . S
C244 H255 0.929 . S
N245 C243 1.375 . S
N245 C244 1.347 . S
C246 C249 1.365 . S
C246 N251 1.328 . S
C246 H252 0.929 . S
C247 C248 1.362 . S
C247 C250 1.378 . S
C247 H262 0.929 . S
C248 C247 1.362 . S
C248 C249 1.366 . S
C249 C246 1.365 . S
C249 C248 1.366 . S
C249 H263 0.930 . S
C250 C247 1.378 . S
C250 N251 1.315 . S
C250 H253 0.930 . S
N251 Co231 2.194 . S
N251 C246 1.328 . S
N251 C250 1.315 . S
H252 C246 0.929 . S
H253 C250 0.930 . S
H254 C242 0.929 . S
H255 C244 0.929 . S
O256 Co231 2.351 . S
O256 C259 1.244 . S
O257 Co231 2.155 . S
O257 C259 1.240 . S
O258 Co231 2.096 . S
O258 C239 1.247 . S
C259 O256 1.244 . S
C259 O257 1.240 . S
H260 C234 0.931 . S
H261 C243 0.931 . S
H262 C247 0.929 . S
H263 C249 0.930 . S
Co264 N268 2.148 . S
Co264 N274 2.128 . S
Co264 N284 2.194 . S
Co264 O289 2.351 . S
Co264 O290 2.155 . S
Co264 O291 2.096 . S
C265 N268 1.301 . S
C265 N269 1.328 . S
C265 H270 0.930 . S
C266 C267 1.333 . S
C266 N268 1.317 . S
C266 H271 0.930 . S
C267 C266 1.333 . S
C267 N269 1.350 . S
C267 H293 0.931 . S
N268 Co264 2.148 . S
N268 C265 1.301 . S
N268 C266 1.317 . S
N269 C265 1.328 . S
N269 C267 1.350 . S
H270 C265 0.930 . S
H271 C266 0.930 . S
C272 O273 1.224 . S
C272 O291 1.247 . S
O273 C272 1.224 . S
N274 Co264 2.128 . S
N274 C275 1.355 . S
N274 C277 1.311 . S
C275 N274 1.355 . S
C275 C276 1.363 . S
C275 H287 0.929 . S
C276 C275 1.363 . S
C276 N278 1.375 . S
C276 H294 0.931 . S
C277 N274 1.311 . S
C277 N278 1.347 . S
C277 H288 0.929 . S
N278 C276 1.375 . S
N278 C277 1.347 . S
C279 C282 1.365 . S
C279 N284 1.328 . S
C279 H285 0.929 . S
C280 C281 1.362 . S
C280 C283 1.378 . S
C280 H295 0.929 . S
C281 C280 1.362 . S
C281 C282 1.366 . S
C282 C279 1.365 . S
C282 C281 1.366 . S
C282 H296 0.930 . S
C283 C280 1.378 . S
C283 N284 1.315 . S
C283 H286 0.930 . S
N284 Co264 2.194 . S
N284 C279 1.328 . S
N284 C283 1.315 . S
H285 C279 0.929 . S
H286 C283 0.930 . S
H287 C275 0.929 . S
H288 C277 0.929 . S
O289 Co264 2.351 . S
O289 C292 1.244 . S
O290 Co264 2.155 . S
O290 C292 1.240 . S
O291 Co264 2.096 . S
O291 C272 1.247 . S
C292 O289 1.244 . S
C292 O290 1.240 . S
H293 C267 0.931 . S
H294 C276 0.931 . S
H295 C280 0.929 . S
H296 C282 0.930 . S
Co297 N301 2.148 . S
Co297 N307 2.128 . S
Co297 N317 2.194 . S
Co297 O322 2.351 . S
Co297 O323 2.155 . S
Co297 O324 2.096 . S
C298 N301 1.301 . S
C298 N302 1.328 . S
C298 H303 0.930 . S
C299 C300 1.333 . S
C299 N301 1.317 . S
C299 H304 0.930 . S
C300 C299 1.333 . S
C300 N302 1.350 . S
C300 H326 0.931 . S
N301 Co297 2.148 . S
N301 C298 1.301 . S
N301 C299 1.317 . S
N302 C298 1.328 . S
N302 C300 1.350 . S
H303 C298 0.930 . S
H304 C299 0.930 . S
C305 O306 1.224 . S
C305 O324 1.247 . S
O306 C305 1.224 . S
N307 Co297 2.128 . S
N307 C308 1.355 . S
N307 C310 1.311 . S
C308 N307 1.355 . S
C308 C309 1.363 1_554 S
C308 H320 0.929 . S
C309 C308 1.363 1_556 S
C309 N311 1.375 . S
C309 H327 0.931 . S
C310 N307 1.311 . S
C310 N311 1.347 1_554 S
C310 H321 0.929 . S
N311 C309 1.375 . S
N311 C310 1.347 1_556 S
C312 C315 1.365 . S
C312 N317 1.328 . S
C312 H318 0.929 . S
C313 C314 1.362 . S
C313 C316 1.378 . S
C313 H328 0.929 . S
C314 C313 1.362 . S
C314 C315 1.366 . S
C315 C312 1.365 . S
C315 C314 1.366 . S
C315 H329 0.930 . S
C316 C313 1.378 . S
C316 N317 1.315 . S
C316 H319 0.930 . S
N317 Co297 2.194 . S
N317 C312 1.328 . S
N317 C316 1.315 . S
H318 C312 0.929 . S
H319 C316 0.930 . S
H320 C308 0.929 . S
H321 C310 0.929 . S
O322 Co297 2.351 . S
O322 C325 1.244 . S
O323 Co297 2.155 . S
O323 C325 1.240 . S
O324 Co297 2.096 . S
O324 C305 1.247 . S
C325 O322 1.244 . S
C325 O323 1.240 . S
H326 C300 0.931 . S
H327 C309 0.931 . S
H328 C313 0.929 . S
H329 C315 0.930 . S
Co330 N334 2.148 . S
Co330 N340 2.128 . S
Co330 N350 2.194 . S
Co330 O355 2.351 . S
Co330 O356 2.155 . S
Co330 O357 2.096 . S
C331 N334 1.301 . S
C331 N335 1.328 . S
C331 H336 0.930 . S
C332 C333 1.333 . S
C332 N334 1.317 . S
C332 H337 0.930 . S
C333 C332 1.333 . S
C333 N335 1.350 . S
C333 H359 0.931 . S
N334 Co330 2.148 . S
N334 C331 1.301 . S
N334 C332 1.317 . S
N335 C331 1.328 . S
N335 C333 1.350 . S
H336 C331 0.930 . S
H337 C332 0.930 . S
C338 O339 1.224 . S
C338 O357 1.247 . S
O339 C338 1.224 . S
N340 Co330 2.128 . S
N340 C341 1.355 . S
N340 C343 1.311 . S
C341 N340 1.355 . S
C341 C342 1.363 1_556 S
C341 H353 0.929 . S
C342 C341 1.363 1_554 S
C342 N344 1.375 . S
C342 H360 0.931 . S
C343 N340 1.311 . S
C343 N344 1.347 1_556 S
C343 H354 0.929 . S
N344 C342 1.375 . S
N344 C343 1.347 1_554 S
C345 C348 1.365 . S
C345 N350 1.328 . S
C345 H351 0.929 . S
C346 C347 1.362 . S
C346 C349 1.378 . S
C346 H361 0.929 . S
C347 C346 1.362 . S
C347 C348 1.366 . S
C348 C345 1.365 . S
C348 C347 1.366 . S
C348 H362 0.930 . S
C349 C346 1.378 . S
C349 N350 1.315 . S
C349 H352 0.930 . S
N350 Co330 2.194 . S
N350 C345 1.328 . S
N350 C349 1.315 . S
H351 C345 0.929 . S
H352 C349 0.930 . S
H353 C341 0.929 . S
H354 C343 0.929 . S
O355 Co330 2.351 . S
O355 C358 1.244 . S
O356 Co330 2.155 . S
O356 C358 1.240 . S
O357 Co330 2.096 . S
O357 C338 1.247 . S
C358 O355 1.244 . S
C358 O356 1.240 . S
H359 C333 0.931 . S
H360 C342 0.931 . S
H361 C346 0.929 . S
H362 C348 0.930 . S
Co363 N367 2.148 . S
Co363 N373 2.128 . S
Co363 N383 2.194 . S
Co363 O388 2.351 . S
Co363 O389 2.155 . S
Co363 O390 2.096 . S
C364 N367 1.301 . S
C364 N368 1.328 . S
C364 H369 0.930 . S
C365 C366 1.333 . S
C365 N367 1.317 . S
C365 H370 0.930 . S
C366 C365 1.333 . S
C366 N368 1.350 . S
C366 H392 0.931 . S
N367 Co363 2.148 . S
N367 C364 1.301 . S
N367 C365 1.317 . S
N368 C364 1.328 . S
N368 C366 1.350 . S
H369 C364 0.930 . S
H370 C365 0.930 . S
C371 O372 1.224 . S
C371 O390 1.247 . S
O372 C371 1.224 . S
N373 Co363 2.128 . S
N373 C374 1.355 . S
N373 C376 1.311 . S
C374 N373 1.355 . S
C374 C375 1.363 . S
C374 H386 0.929 . S
C375 C374 1.363 . S
C375 N377 1.375 . S
C375 H393 0.931 . S
C376 N373 1.311 . S
C376 N377 1.347 . S
C376 H387 0.929 . S
N377 C375 1.375 . S
N377 C376 1.347 . S
C378 C381 1.365 . S
C378 N383 1.328 . S
C378 H384 0.929 . S
C379 C380 1.362 . S
C379 C382 1.378 . S
C379 H394 0.929 . S
C380 C379 1.362 . S
C380 C381 1.366 . S
C381 C378 1.365 . S
C381 C380 1.366 . S
C381 H395 0.930 . S
C382 C379 1.378 . S
C382 N383 1.315 . S
C382 H385 0.930 . S
N383 Co363 2.194 . S
N383 C378 1.328 . S
N383 C382 1.315 . S
H384 C378 0.929 . S
H385 C382 0.930 . S
H386 C374 0.929 . S
H387 C376 0.929 . S
O388 Co363 2.351 . S
O388 C391 1.244 . S
O389 Co363 2.155 . S
O389 C391 1.240 . S
O390 Co363 2.096 . S
O390 C371 1.247 . S
C391 O388 1.244 . S
C391 O389 1.240 . S
H392 C366 0.931 . S
H393 C375 0.931 . S
H394 C379 0.929 . S
H395 C381 0.930 . S
Co396 N400 2.148 . S
Co396 N406 2.128 . S
Co396 N416 2.194 . S
Co396 O421 2.351 . S
Co396 O422 2.155 . S
Co396 O423 2.096 . S
C397 N400 1.301 . S
C397 N401 1.328 . S
C397 H402 0.930 . S
C398 C399 1.333 . S
C398 N400 1.317 . S
C398 H403 0.930 . S
C399 C398 1.333 . S
C399 N401 1.350 . S
C399 H425 0.931 . S
N400 Co396 2.148 . S
N400 C397 1.301 . S
N400 C398 1.317 . S
N401 C397 1.328 . S
N401 C399 1.350 . S
H402 C397 0.930 . S
H403 C398 0.930 . S
C404 O405 1.224 . S
C404 O423 1.247 . S
O405 C404 1.224 . S
N406 Co396 2.128 . S
N406 C407 1.355 . S
N406 C409 1.311 . S
C407 N406 1.355 . S
C407 C408 1.363 . S
C407 H419 0.929 . S
C408 C407 1.363 . S
C408 N410 1.375 . S
C408 H426 0.931 . S
C409 N406 1.311 . S
C409 N410 1.347 . S
C409 H420 0.929 . S
N410 C408 1.375 . S
N410 C409 1.347 . S
C411 C414 1.365 . S
C411 N416 1.328 . S
C411 H417 0.929 . S
C412 C413 1.362 . S
C412 C415 1.378 . S
C412 H427 0.929 . S
C413 C412 1.362 . S
C413 C414 1.366 . S
C414 C411 1.365 . S
C414 C413 1.366 . S
C414 H428 0.930 . S
C415 C412 1.378 . S
C415 N416 1.315 . S
C415 H418 0.930 . S
N416 Co396 2.194 . S
N416 C411 1.328 . S
N416 C415 1.315 . S
H417 C411 0.929 . S
H418 C415 0.930 . S
H419 C407 0.929 . S
H420 C409 0.929 . S
O421 Co396 2.351 . S
O421 C424 1.244 . S
O422 Co396 2.155 . S
O422 C424 1.240 . S
O423 Co396 2.096 . S
O423 C404 1.247 . S
C424 O421 1.244 . S
C424 O422 1.240 . S
H425 C399 0.931 . S
H426 C408 0.931 . S
H427 C412 0.929 . S
H428 C414 0.930 . S
Co429 N433 2.148 1_554 S
Co429 N439 2.128 . S
Co429 N449 2.194 . S
Co429 O454 2.351 . S
Co429 O455 2.155 . S
Co429 O456 2.096 . S
C430 N433 1.301 . S
C430 N434 1.328 . S
C430 H435 0.930 . S
C431 C432 1.333 . S
C431 N433 1.317 . S
C431 H436 0.930 . S
C432 C431 1.333 . S
C432 N434 1.350 . S
C432 H458 0.931 . S
N433 Co429 2.148 1_556 S
N433 C430 1.301 . S
N433 C431 1.317 . S
N434 C430 1.328 . S
N434 C432 1.350 . S
H435 C430 0.930 . S
H436 C431 0.930 . S
C437 O438 1.224 . S
C437 O456 1.247 . S
O438 C437 1.224 . S
N439 Co429 2.128 . S
N439 C440 1.355 . S
N439 C442 1.311 . S
C440 N439 1.355 . S
C440 C441 1.363 . S
C440 H452 0.929 . S
C441 C440 1.363 . S
C441 N443 1.375 . S
C441 H459 0.931 . S
C442 N439 1.311 . S
C442 N443 1.347 . S
C442 H453 0.929 . S
N443 C441 1.375 . S
N443 C442 1.347 . S
C444 C447 1.365 . S
C444 N449 1.328 . S
C444 H450 0.929 . S
C445 C446 1.362 . S
C445 C448 1.378 . S
C445 H460 0.929 . S
C446 C445 1.362 . S
C446 C447 1.366 . S
C447 C444 1.365 . S
C447 C446 1.366 . S
C447 H461 0.930 . S
C448 C445 1.378 . S
C448 N449 1.315 . S
C448 H451 0.930 . S
N449 Co429 2.194 . S
N449 C444 1.328 . S
N449 C448 1.315 . S
H450 C444 0.929 . S
H451 C448 0.930 . S
H452 C440 0.929 . S
H453 C442 0.929 . S
O454 Co429 2.351 . S
O454 C457 1.244 . S
O455 Co429 2.155 . S
O455 C457 1.240 . S
O456 Co429 2.096 . S
O456 C437 1.247 . S
C457 O454 1.244 . S
C457 O455 1.240 . S
H458 C432 0.931 . S
H459 C441 0.931 . S
H460 C445 0.929 . S
H461 C447 0.930 . S
Co462 N466 2.148 . S
Co462 N472 2.128 . S
Co462 N482 2.194 . S
Co462 O487 2.351 . S
Co462 O488 2.155 . S
Co462 O489 2.096 . S
C463 N466 1.301 . S
C463 N467 1.328 . S
C463 H468 0.930 . S
C464 C465 1.333 . S
C464 N466 1.317 . S
C464 H469 0.930 . S
C465 C464 1.333 . S
C465 N467 1.350 . S
C465 H491 0.931 . S
N466 Co462 2.148 . S
N466 C463 1.301 . S
N466 C464 1.317 . S
N467 C463 1.328 . S
N467 C465 1.350 . S
H468 C463 0.930 . S
H469 C464 0.930 . S
C470 O471 1.224 . S
C470 O489 1.247 . S
O471 C470 1.224 . S
N472 Co462 2.128 . S
N472 C473 1.355 . S
N472 C475 1.311 . S
C473 N472 1.355 . S
C473 C474 1.363 . S
C473 H485 0.929 . S
C474 C473 1.363 . S
C474 N476 1.375 . S
C474 H492 0.931 . S
C475 N472 1.311 . S
C475 N476 1.347 . S
C475 H486 0.929 . S
N476 C474 1.375 . S
N476 C475 1.347 . S
C477 C480 1.365 . S
C477 N482 1.328 . S
C477 H483 0.929 . S
C478 C479 1.362 . S
C478 C481 1.378 . S
C478 H493 0.929 . S
C479 C478 1.362 . S
C479 C480 1.366 . S
C480 C477 1.365 . S
C480 C479 1.366 . S
C480 H494 0.930 . S
C481 C478 1.378 . S
C481 N482 1.315 . S
C481 H484 0.930 . S
N482 Co462 2.194 . S
N482 C477 1.328 . S
N482 C481 1.315 . S
H483 C477 0.929 . S
H484 C481 0.930 . S
H485 C473 0.929 . S
H486 C475 0.929 . S
O487 Co462 2.351 . S
O487 C490 1.244 . S
O488 Co462 2.155 . S
O488 C490 1.240 . S
O489 Co462 2.096 . S
O489 C470 1.247 . S
C490 O487 1.244 . S
C490 O488 1.240 . S
H491 C465 0.931 . S
H492 C474 0.931 . S
H493 C478 0.929 . S
H494 C480 0.930 . S
Co495 N499 2.148 1_556 S
Co495 N505 2.128 . S
Co495 N515 2.194 . S
Co495 O520 2.351 . S
Co495 O521 2.155 . S
Co495 O522 2.096 . S
C496 N499 1.301 . S
C496 N500 1.328 . S
C496 H501 0.930 . S
C497 C498 1.333 . S
C497 N499 1.317 . S
C497 H502 0.930 . S
C498 C497 1.333 . S
C498 N500 1.350 . S
C498 H524 0.931 . S
N499 Co495 2.148 1_554 S
N499 C496 1.301 . S
N499 C497 1.317 . S
N500 C496 1.328 . S
N500 C498 1.350 . S
H501 C496 0.930 . S
H502 C497 0.930 . S
C503 O504 1.224 . S
C503 O522 1.247 . S
O504 C503 1.224 . S
N505 Co495 2.128 . S
N505 C506 1.355 . S
N505 C508 1.311 . S
C506 N505 1.355 . S
C506 C507 1.363 . S
C506 H518 0.929 . S
C507 C506 1.363 . S
C507 N509 1.375 . S
C507 H525 0.931 . S
C508 N505 1.311 . S
C508 N509 1.347 . S
C508 H519 0.929 . S
N509 C507 1.375 . S
N509 C508 1.347 . S
C510 C513 1.365 . S
C510 N515 1.328 . S
C510 H516 0.929 . S
C511 C512 1.362 . S
C511 C514 1.378 . S
C511 H526 0.929 . S
C512 C511 1.362 . S
C512 C513 1.366 . S
C513 C510 1.365 . S
C513 C512 1.366 . S
C513 H527 0.930 . S
C514 C511 1.378 . S
C514 N515 1.315 . S
C514 H517 0.930 . S
N515 Co495 2.194 . S
N515 C510 1.328 . S
N515 C514 1.315 . S
H516 C510 0.929 . S
H517 C514 0.930 . S
H518 C506 0.929 . S
H519 C508 0.929 . S
O520 Co495 2.351 . S
O520 C523 1.244 . S
O521 Co495 2.155 . S
O521 C523 1.240 . S
O522 Co495 2.096 . S
O522 C503 1.247 . S
C523 O520 1.244 . S
C523 O521 1.240 . S
H524 C498 0.931 . S
H525 C507 0.931 . S
H526 C511 0.929 . S
H527 C513 0.930 . S
C528 C529 1.349 . S
C528 C530 1.327 . S
C528 H553 0.950 . S
C529 C528 1.349 . S
C529 C545 1.349 . S
C530 C528 1.327 . S
C530 C549 1.429 . S
C530 H554 0.950 . S
C531 C548 1.574 . S
C531 C550 1.368 . S
C531 H555 0.949 . S
H532 C536 0.949 . S
C533 C534 1.349 . S
C533 C535 1.327 . S
C533 H556 0.950 . S
C534 C533 1.349 . S
C534 C546 1.349 . S
C535 C533 1.327 . S
C535 C551 1.429 . S
C535 H557 0.950 . S
C536 H532 0.949 . S
C536 C544 1.574 . S
C536 C552 1.368 . S
H537 C545 0.950 . S
H538 C543 0.950 . S
H539 C544 0.949 . S
H540 C546 0.950 . S
H541 C547 0.950 . S
H542 C548 0.949 . S
C543 H538 0.950 . S
C543 C545 1.327 . S
C543 C549 1.429 . S
C544 C536 1.574 . S
C544 H539 0.949 . S
C544 C550 1.368 . S
C545 C529 1.349 . S
C545 H537 0.950 . S
C545 C543 1.327 . S
C546 C534 1.349 . S
C546 H540 0.950 . S
C546 C547 1.327 . S
C547 H541 0.950 . S
C547 C546 1.327 . S
C547 C551 1.429 . S
C548 C531 1.574 . S
C548 H542 0.949 . S
C548 C552 1.368 . S
C549 C530 1.429 . S
C549 C543 1.429 . S
C549 C550 1.523 . S
C550 C531 1.368 . S
C550 C544 1.368 . S
C550 C549 1.523 . S
C551 C535 1.429 . S
C551 C547 1.429 . S
C551 C552 1.523 . S
C552 C536 1.368 . S
C552 C548 1.368 . S
C552 C551 1.523 . S
H553 C528 0.950 . S
H554 C530 0.950 . S
H555 C531 0.949 . S
H556 C533 0.950 . S
H557 C535 0.950 . S
C558 C559 1.349 . S
C558 C560 1.323 1_554 S
C558 H583 0.950 . S
C559 C558 1.349 . S
C559 C575 1.349 . S
C560 C558 1.323 1_556 S
C560 C579 1.431 . S
C560 H584 0.952 . S
C561 C578 1.574 . S
C561 C580 1.368 . S
C561 H585 0.949 . S
H562 C566 0.949 . S
C563 C564 1.349 . S
C563 C565 1.327 . S
C563 H586 0.950 . S
C564 C563 1.349 . S
C564 C576 1.349 . S
C565 C563 1.327 . S
C565 C581 1.429 . S
C565 H587 0.950 . S
C566 H562 0.949 . S
C566 C574 1.574 . S
C566 C582 1.368 . S
H567 C575 0.950 . S
H568 C573 0.950 . S
H569 C574 0.949 . S
H570 C576 0.950 . S
H571 C577 0.950 . S
H572 C578 0.949 . S
C573 H568 0.950 . S
C573 C575 1.327 1_556 S
C573 C579 1.429 . S
C574 C566 1.574 . S
C574 H569 0.949 . S
C574 C580 1.368 . S
C575 C559 1.349 . S
C575 H567 0.950 . S
C575 C573 1.327 1_554 S
C576 C564 1.349 . S
C576 H570 0.950 . S
C576 C577 1.327 . S
C577 H571 0.950 . S
C577 C576 1.327 . S
C577 C581 1.429 . S
C578 C561 1.574 . S
C578 H572 0.949 . S
C578 C582 1.368 . S
C579 C560 1.431 . S
C579 C573 1.429 . S
C579 C580 1.523 . S
C580 C561 1.368 . S
C580 C574 1.368 . S
C580 C579 1.523 . S
C581 C565 1.429 . S
C581 C577 1.429 . S
C581 C582 1.523 . S
C582 C566 1.368 . S
C582 C578 1.368 . S
C582 C581 1.523 . S
H583 C558 0.950 . S
H584 C560 0.952 . S
H585 C561 0.949 . S
H586 C563 0.950 . S
H587 C565 0.950 . S
C588 C589 1.349 . S
C588 C590 1.327 . S
C588 H613 0.950 . S
C589 C588 1.349 . S
C589 C605 1.349 . S
C590 C588 1.327 . S
C590 C609 1.429 . S
C590 H614 0.950 . S
C591 C608 1.574 . S
C591 C610 1.368 . S
C591 H615 0.949 . S
H592 C596 0.949 . S
C593 C594 1.349 . S
C593 C595 1.327 . S
C593 H616 0.950 . S
C594 C593 1.349 . S
C594 C606 1.349 . S
C595 C593 1.327 . S
C595 C611 1.429 . S
C595 H617 0.950 . S
C596 H592 0.949 . S
C596 C604 1.574 . S
C596 C612 1.368 . S
H597 C605 0.950 . S
H598 C603 0.950 . S
H599 C604 0.949 . S
H600 C606 0.950 . S
H601 C607 0.950 . S
H602 C608 0.949 . S
C603 H598 0.950 . S
C603 C605 1.327 . S
C603 C609 1.429 . S
C604 C596 1.574 . S
C604 H599 0.949 . S
C604 C610 1.368 . S
C605 C589 1.349 . S
C605 H597 0.950 . S
C605 C603 1.327 . S
C606 C594 1.349 . S
C606 H600 0.950 . S
C606 C607 1.327 . S
C607 H601 0.950 . S
C607 C606 1.327 . S
C607 C611 1.429 . S
C608 C591 1.574 . S
C608 H602 0.949 . S
C608 C612 1.368 . S
C609 C590 1.429 . S
C609 C603 1.429 . S
C609 C610 1.523 . S
C610 C591 1.368 . S
C610 C604 1.368 . S
C610 C609 1.523 . S
C611 C595 1.429 . S
C611 C607 1.429 . S
C611 C612 1.523 1_556 S
C612 C596 1.368 . S
C612 C608 1.368 . S
C612 C611 1.523 1_554 S
H613 C588 0.950 . S
H614 C590 0.950 . S
H615 C591 0.949 . S
H616 C593 0.950 . S
H617 C595 0.950 . S
C618 C619 1.349 . S
C618 C620 1.327 . S
C618 H643 0.950 . S
C619 C618 1.349 . S
C619 C635 1.349 . S
C620 C618 1.327 . S
C620 C639 1.429 . S
C620 H644 0.950 . S
C621 C638 1.574 . S
C621 C640 1.368 . S
C621 H645 0.949 . S
H622 C626 0.949 . S
C623 C624 1.349 . S
C623 C625 1.327 . S
C623 H646 0.950 . S
C624 C623 1.349 . S
C624 C636 1.349 . S
C625 C623 1.327 . S
C625 C641 1.429 . S
C625 H647 0.950 . S
C626 H622 0.949 . S
C626 C634 1.574 . S
C626 C642 1.368 . S
H627 C635 0.950 . S
H628 C633 0.950 . S
H629 C634 0.949 . S
H630 C636 0.950 . S
H631 C637 0.950 . S
H632 C638 0.949 . S
C633 H628 0.950 . S
C633 C635 1.327 . S
C633 C639 1.429 . S
C634 C626 1.574 . S
C634 H629 0.949 . S
C634 C640 1.368 . S
C635 C619 1.349 . S
C635 H627 0.950 . S
C635 C633 1.327 . S
C636 C624 1.349 . S
C636 H630 0.950 . S
C636 C637 1.327 . S
C637 H631 0.950 . S
C637 C636 1.327 . S
C637 C641 1.429 . S
C638 C621 1.574 . S
C638 H632 0.949 . S
C638 C642 1.368 . S
C639 C620 1.429 . S
C639 C633 1.429 . S
C639 C640 1.523 . S
C640 C621 1.368 . S
C640 C634 1.368 . S
C640 C639 1.523 . S
C641 C625 1.429 . S
C641 C637 1.429 . S
C641 C642 1.523 . S
C642 C626 1.368 . S
C642 C638 1.368 . S
C642 C641 1.523 . S
H643 C618 0.950 . S
H644 C620 0.950 . S
H645 C621 0.949 . S
H646 C623 0.950 . S
H647 C625 0.950 . S
C648 C649 1.349 . S
C648 C650 1.327 . S
C648 H673 0.950 . S
C649 C648 1.349 . S
C649 C665 1.349 . S
C650 C648 1.327 . S
C650 C669 1.429 . S
C650 H674 0.950 . S
C651 C668 1.574 . S
C651 C670 1.368 . S
C651 H675 0.949 . S
H652 C656 0.949 . S
C653 C654 1.349 . S
C653 C655 1.327 . S
C653 H676 0.950 . S
C654 C653 1.349 . S
C654 C666 1.349 . S
C655 C653 1.327 . S
C655 C671 1.429 . S
C655 H677 0.950 . S
C656 H652 0.949 . S
C656 C664 1.574 . S
C656 C672 1.368 . S
H657 C665 0.950 . S
H658 C663 0.950 . S
H659 C664 0.949 . S
H660 C666 0.950 . S
H661 C667 0.950 . S
H662 C668 0.949 . S
C663 H658 0.950 . S
C663 C665 1.327 . S
C663 C669 1.429 . S
C664 C656 1.574 . S
C664 H659 0.949 . S
C664 C670 1.368 . S
C665 C649 1.349 . S
C665 H657 0.950 . S
C665 C663 1.327 . S
C666 C654 1.349 . S
C666 H660 0.950 . S
C666 C667 1.327 . S
C667 H661 0.950 . S
C667 C666 1.327 . S
C667 C671 1.429 . S
C668 C651 1.574 . S
C668 H662 0.949 . S
C668 C672 1.368 . S
C669 C650 1.429 . S
C669 C663 1.429 . S
C669 C670 1.523 . S
C670 C651 1.368 . S
C670 C664 1.368 . S
C670 C669 1.523 . S
C671 C655 1.429 . S
C671 C667 1.429 . S
C671 C672 1.523 . S
C672 C656 1.368 . S
C672 C668 1.368 . S
C672 C671 1.523 . S
H673 C648 0.950 . S
H674 C650 0.950 . S
H675 C651 0.949 . S
H676 C653 0.950 . S
H677 C655 0.950 . S
C678 C679 1.349 . S
C678 C680 1.327 . S
C678 H703 0.950 . S
C679 C678 1.349 . S
C679 C695 1.349 . S
C680 C678 1.327 . S
C680 C699 1.429 . S
C680 H704 0.950 . S
C681 C698 1.574 . S
C681 C700 1.368 . S
C681 H705 0.949 . S
H682 C686 0.949 . S
C683 C684 1.349 . S
C683 C685 1.327 . S
C683 H706 0.950 . S
C684 C683 1.349 . S
C684 C696 1.349 . S
C685 C683 1.327 . S
C685 C701 1.429 . S
C685 H707 0.950 . S
C686 H682 0.949 . S
C686 C694 1.574 . S
C686 C702 1.368 . S
H687 C695 0.950 . S
H688 C693 0.950 . S
H689 C694 0.949 . S
H690 C696 0.950 . S
H691 C697 0.950 . S
H692 C698 0.949 . S
C693 H688 0.950 . S
C693 C695 1.327 . S
C693 C699 1.429 . S
C694 C686 1.574 . S
C694 H689 0.949 . S
C694 C700 1.368 . S
C695 C679 1.349 . S
C695 H687 0.950 . S
C695 C693 1.327 . S
C696 C684 1.349 . S
C696 H690 0.950 . S
C696 C697 1.327 . S
C697 H691 0.950 . S
C697 C696 1.327 . S
C697 C701 1.429 . S
C698 C681 1.574 . S
C698 H692 0.949 . S
C698 C702 1.368 . S
C699 C680 1.429 . S
C699 C693 1.429 . S
C699 C700 1.523 . S
C700 C681 1.368 . S
C700 C694 1.368 . S
C700 C699 1.523 . S
C701 C685 1.429 . S
C701 C697 1.429 . S
C701 C702 1.523 . S
C702 C686 1.368 . S
C702 C698 1.368 . S
C702 C701 1.523 . S
H703 C678 0.950 . S
H704 C680 0.950 . S
H705 C681 0.949 . S
H706 C683 0.950 . S
H707 C685 0.950 . S
C708 C709 1.349 . S
C708 C710 1.327 . S
C708 H733 0.950 . S
C709 C708 1.349 . S
C709 C725 1.349 . S
C710 C708 1.327 . S
C710 C729 1.429 . S
C710 H734 0.950 . S
C711 C728 1.574 . S
C711 C730 1.368 . S
C711 H735 0.949 . S
H712 C716 0.949 . S
C713 C714 1.349 . S
C713 C715 1.327 . S
C713 H736 0.950 . S
C714 C713 1.349 . S
C714 C726 1.349 . S
C715 C713 1.327 . S
C715 C731 1.429 . S
C715 H737 0.950 . S
C716 H712 0.949 . S
C716 C724 1.574 . S
C716 C732 1.368 . S
H717 C725 0.950 . S
H718 C723 0.950 . S
H719 C724 0.949 . S
H720 C726 0.950 . S
H721 C727 0.950 . S
H722 C728 0.949 . S
C723 H718 0.950 . S
C723 C725 1.327 . S
C723 C729 1.429 . S
C724 C716 1.574 . S
C724 H719 0.949 . S
C724 C730 1.368 . S
C725 C709 1.349 . S
C725 H717 0.950 . S
C725 C723 1.327 . S
C726 C714 1.349 . S
C726 H720 0.950 . S
C726 C727 1.327 . S
C727 H721 0.950 . S
C727 C726 1.327 . S
C727 C731 1.429 . S
C728 C711 1.574 . S
C728 H722 0.949 . S
C728 C732 1.368 . S
C729 C710 1.429 . S
C729 C723 1.429 . S
C729 C730 1.523 . S
C730 C711 1.368 . S
C730 C724 1.368 . S
C730 C729 1.523 . S
C731 C715 1.429 . S
C731 C727 1.429 . S
C731 C732 1.523 1_554 S
C732 C716 1.368 . S
C732 C728 1.368 . S
C732 C731 1.523 1_556 S
H733 C708 0.950 . S
H734 C710 0.950 . S
H735 C711 0.949 . S
H736 C713 0.950 . S
H737 C715 0.950 . S
C738 C739 1.349 . S
C738 C740 1.327 . S
C738 H763 0.950 . S
C739 C738 1.349 . S
C739 C755 1.349 . S
C740 C738 1.327 . S
C740 C759 1.429 . S
C740 H764 0.950 . S
C741 C758 1.574 . S
C741 C760 1.368 . S
C741 H765 0.949 . S
H742 C746 0.949 . S
C743 C744 1.349 . S
C743 C745 1.329 . S
C743 H766 0.950 . S
C744 C743 1.349 . S
C744 C756 1.349 . S
C745 C743 1.329 . S
C745 C761 1.427 1_556 S
C745 H767 0.949 1_556 S
C746 H742 0.949 . S
C746 C754 1.574 . S
C746 C762 1.368 . S
H747 C755 0.950 . S
H748 C753 0.950 . S
H749 C754 0.949 . S
H750 C756 0.950 . S
H751 C757 0.950 . S
H752 C758 0.949 . S
C753 H748 0.950 . S
C753 C755 1.327 . S
C753 C759 1.429 . S
C754 C746 1.574 . S
C754 H749 0.949 . S
C754 C760 1.368 . S
C755 C739 1.349 . S
C755 H747 0.950 . S
C755 C753 1.327 . S
C756 C744 1.349 . S
C756 H750 0.950 . S
C756 C757 1.327 1_556 S
C757 H751 0.950 . S
C757 C756 1.327 1_554 S
C757 C761 1.429 . S
C758 C741 1.574 . S
C758 H752 0.949 . S
C758 C762 1.368 . S
C759 C740 1.429 . S
C759 C753 1.429 . S
C759 C760 1.523 . S
C760 C741 1.368 . S
C760 C754 1.368 . S
C760 C759 1.523 . S
C761 C745 1.427 1_554 S
C761 C757 1.429 . S
C761 C762 1.523 . S
C762 C746 1.368 . S
C762 C758 1.368 . S
C762 C761 1.523 . S
H763 C738 0.950 . S
H764 C740 0.950 . S
H765 C741 0.949 . S
H766 C743 0.950 . S
H767 C745 0.949 1_554 S
C768 C769 1.349 . S
C768 C770 1.327 . S
C768 H793 0.950 . S
C769 C768 1.349 . S
C769 C785 1.349 . S
C770 C768 1.327 . S
C770 C789 1.429 . S
C770 H794 0.950 . S
C771 C788 1.574 . S
C771 C790 1.368 . S
C771 H795 0.949 . S
H772 C776 0.949 . S
C773 C774 1.349 . S
C773 C775 1.327 1_556 S
C773 H796 0.950 . S
C774 C773 1.349 . S
C774 C786 1.349 . S
C775 C773 1.327 1_554 S
C775 C791 1.429 . S
C775 H797 0.950 . S
C776 H772 0.949 . S
C776 C784 1.574 . S
C776 C792 1.368 . S
H777 C785 0.950 . S
H778 C783 0.950 . S
H779 C784 0.949 . S
H780 C786 0.950 . S
H781 C787 0.950 1_554 S
H782 C788 0.949 . S
C783 H778 0.950 . S
C783 C785 1.327 . S
C783 C789 1.429 . S
C784 C776 1.574 . S
C784 H779 0.949 . S
C784 C790 1.368 . S
C785 C769 1.349 . S
C785 H777 0.950 . S
C785 C783 1.327 . S
C786 C774 1.349 . S
C786 H780 0.950 . S
C786 C787 1.325 . S
C787 H781 0.950 1_556 S
C787 C786 1.325 . S
C787 C791 1.430 1_556 S
C788 C771 1.574 . S
C788 H782 0.949 . S
C788 C792 1.368 . S
C789 C770 1.429 . S
C789 C783 1.429 . S
C789 C790 1.523 . S
C790 C771 1.368 . S
C790 C784 1.368 . S
C790 C789 1.523 . S
C791 C775 1.429 . S
C791 C787 1.430 1_554 S
C791 C792 1.523 . S
C792 C776 1.368 . S
C792 C788 1.368 . S
C792 C791 1.523 . S
H793 C768 0.950 . S
H794 C770 0.950 . S
H795 C771 0.949 . S
H796 C773 0.950 . S
H797 C775 0.950 . S
C798 C799 1.349 . S
C798 C800 1.327 . S
C798 H823 0.950 . S
C799 C798 1.349 . S
C799 C815 1.349 . S
C800 C798 1.327 . S
C800 C819 1.429 . S
C800 H824 0.950 . S
C801 C818 1.574 . S
C801 C820 1.368 . S
C801 H825 0.949 . S
H802 C806 0.949 . S
C803 C804 1.349 . S
C803 C805 1.327 . S
C803 H826 0.950 . S
C804 C803 1.349 . S
C804 C816 1.349 . S
C805 C803 1.327 . S
C805 C821 1.429 . S
C805 H827 0.950 . S
C806 H802 0.949 . S
C806 C814 1.574 . S
C806 C822 1.368 . S
H807 C815 0.950 . S
H808 C813 0.950 . S
H809 C814 0.949 . S
H810 C816 0.950 . S
H811 C817 0.950 . S
H812 C818 0.949 . S
C813 H808 0.950 . S
C813 C815 1.327 . S
C813 C819 1.429 . S
C814 C806 1.574 . S
C814 H809 0.949 . S
C814 C820 1.368 . S
C815 C799 1.349 . S
C815 H807 0.950 . S
C815 C813 1.327 . S
C816 C804 1.349 . S
C816 H810 0.950 . S
C816 C817 1.327 . S
C817 H811 0.950 . S
C817 C816 1.327 . S
C817 C821 1.429 . S
C818 C801 1.574 . S
C818 H812 0.949 . S
C818 C822 1.368 . S
C819 C800 1.429 . S
C819 C813 1.429 . S
C819 C820 1.523 . S
C820 C801 1.368 . S
C820 C814 1.368 . S
C820 C819 1.523 . S
C821 C805 1.429 . S
C821 C817 1.429 . S
C821 C822 1.523 . S
C822 C806 1.368 . S
C822 C818 1.368 . S
C822 C821 1.523 . S
H823 C798 0.950 . S
H824 C800 0.950 . S
H825 C801 0.949 . S
H826 C803 0.950 . S
H827 C805 0.950 . S
C828 C829 1.349 . S
C828 C830 1.327 . S
C828 H853 0.950 . S
C829 C828 1.349 . S
C829 C845 1.349 . S
C830 C828 1.327 . S
C830 C849 1.429 . S
C830 H854 0.950 . S
C831 C848 1.574 . S
C831 C850 1.368 . S
C831 H855 0.949 . S
H832 C836 0.949 . S
C833 C834 1.349 . S
C833 C835 1.327 . S
C833 H856 0.950 . S
C834 C833 1.349 . S
C834 C846 1.349 . S
C835 C833 1.327 . S
C835 C851 1.429 . S
C835 H857 0.950 . S
C836 H832 0.949 . S
C836 C844 1.574 . S
C836 C852 1.368 . S
H837 C845 0.950 . S
H838 C843 0.950 . S
H839 C844 0.949 . S
H840 C846 0.950 . S
H841 C847 0.950 . S
H842 C848 0.949 . S
C843 H838 0.950 . S
C843 C845 1.327 . S
C843 C849 1.429 . S
C844 C836 1.574 . S
C844 H839 0.949 . S
C844 C850 1.368 . S
C845 C829 1.349 . S
C845 H837 0.950 . S
C845 C843 1.327 . S
C846 C834 1.349 . S
C846 H840 0.950 . S
C846 C847 1.327 . S
C847 H841 0.950 . S
C847 C846 1.327 . S
C847 C851 1.429 . S
C848 C831 1.574 . S
C848 H842 0.949 . S
C848 C852 1.368 . S
C849 C830 1.429 . S
C849 C843 1.429 . S
C849 C850 1.523 . S
C850 C831 1.368 . S
C850 C844 1.368 . S
C850 C849 1.523 . S
C851 C835 1.429 . S
C851 C847 1.429 . S
C851 C852 1.523 . S
C852 C836 1.368 . S
C852 C848 1.368 . S
C852 C851 1.523 . S
H853 C828 0.950 . S
H854 C830 0.950 . S
H855 C831 0.949 . S
H856 C833 0.950 . S
H857 C835 0.950 . S
C858 C859 1.349 . S
C858 C860 1.327 . S
C858 H883 0.950 . S
C859 C858 1.349 . S
C859 C875 1.349 . S
C860 C858 1.327 . S
C860 C879 1.429 . S
C860 H884 0.950 . S
C861 C878 1.574 . S
C861 C880 1.368 . S
C861 H885 0.949 . S
H862 C866 0.949 . S
C863 C864 1.349 . S
C863 C865 1.327 1_554 S
C863 H886 0.950 . S
C864 C863 1.349 . S
C864 C876 1.349 . S
C865 C863 1.327 1_556 S
C865 C881 1.429 . S
C865 H887 0.950 . S
C866 H862 0.949 . S
C866 C874 1.574 . S
C866 C882 1.368 . S
H867 C875 0.950 . S
H868 C873 0.950 . S
H869 C874 0.949 . S
H870 C876 0.950 . S
H871 C877 0.950 1_556 S
H872 C878 0.949 . S
C873 H868 0.950 . S
C873 C875 1.327 . S
C873 C879 1.429 . S
C874 C866 1.574 . S
C874 H869 0.949 . S
C874 C880 1.368 . S
C875 C859 1.349 . S
C875 H867 0.950 . S
C875 C873 1.327 . S
C876 C864 1.349 . S
C876 H870 0.950 . S
C876 C877 1.325 . S
C877 H871 0.950 1_554 S
C877 C876 1.325 . S
C877 C881 1.430 1_554 S
C878 C861 1.574 . S
C878 H872 0.949 . S
C878 C882 1.368 . S
C879 C860 1.429 . S
C879 C873 1.429 . S
C879 C880 1.523 . S
C880 C861 1.368 . S
C880 C874 1.368 . S
C880 C879 1.523 . S
C881 C865 1.429 . S
C881 C877 1.430 1_556 S
C881 C882 1.523 . S
C882 C866 1.368 . S
C882 C878 1.368 . S
C882 C881 1.523 . S
H883 C858 0.950 . S
H884 C860 0.950 . S
H885 C861 0.949 . S
H886 C863 0.950 . S
H887 C865 0.950 . S
C888 C889 1.349 . S
C888 C890 1.327 . S
C888 H913 0.950 . S
C889 C888 1.349 . S
C889 C905 1.349 . S
C890 C888 1.327 . S
C890 C909 1.429 . S
C890 H914 0.950 . S
C891 C908 1.574 . S
C891 C910 1.368 . S
C891 H915 0.949 . S
H892 C896 0.949 . S
C893 C894 1.349 . S
C893 C895 1.327 . S
C893 H916 0.950 . S
C894 C893 1.349 . S
C894 C906 1.349 . S
C895 C893 1.327 . S
C895 C911 1.429 . S
C895 H917 0.950 . S
C896 H892 0.949 . S
C896 C904 1.574 . S
C896 C912 1.368 . S
H897 C905 0.950 . S
H898 C903 0.950 . S
H899 C904 0.949 . S
H900 C906 0.950 . S
H901 C907 0.950 . S
H902 C908 0.949 . S
C903 H898 0.950 . S
C903 C905 1.327 . S
C903 C909 1.429 . S
C904 C896 1.574 . S
C904 H899 0.949 . S
C904 C910 1.368 . S
C905 C889 1.349 . S
C905 H897 0.950 . S
C905 C903 1.327 . S
C906 C894 1.349 . S
C906 H900 0.950 . S
C906 C907 1.327 . S
C907 H901 0.950 . S
C907 C906 1.327 . S
C907 C911 1.429 . S
C908 C891 1.574 . S
C908 H902 0.949 . S
C908 C912 1.368 . S
C909 C890 1.429 . S
C909 C903 1.429 . S
C909 C910 1.523 1_556 S
C910 C891 1.368 . S
C910 C904 1.368 . S
C910 C909 1.523 1_554 S
C911 C895 1.429 . S
C911 C907 1.429 . S
C911 C912 1.523 . S
C912 C896 1.368 . S
C912 C908 1.368 . S
C912 C911 1.523 . S
H913 C888 0.950 . S
H914 C890 0.950 . S
H915 C891 0.949 . S
H916 C893 0.950 . S
H917 C895 0.950 . S
C918 C919 1.349 . S
C918 C920 1.327 . S
C918 H943 0.950 . S
C919 C918 1.349 . S
C919 C935 1.349 . S
C920 C918 1.327 . S
C920 C939 1.429 . S
C920 H944 0.950 . S
C921 C938 1.574 . S
C921 C940 1.368 . S
C921 H945 0.949 . S
H922 C926 0.949 . S
C923 C924 1.349 . S
C923 C925 1.327 . S
C923 H946 0.950 . S
C924 C923 1.349 . S
C924 C936 1.349 . S
C925 C923 1.327 . S
C925 C941 1.429 . S
C925 H947 0.950 . S
C926 H922 0.949 . S
C926 C934 1.574 . S
C926 C942 1.368 . S
H927 C935 0.950 . S
H928 C933 0.950 . S
H929 C934 0.949 . S
H930 C936 0.950 . S
H931 C937 0.950 . S
H932 C938 0.949 . S
C933 H928 0.950 . S
C933 C935 1.327 . S
C933 C939 1.429 . S
C934 C926 1.574 . S
C934 H929 0.949 . S
C934 C940 1.368 . S
C935 C919 1.349 . S
C935 H927 0.950 . S
C935 C933 1.327 . S
C936 C924 1.349 . S
C936 H930 0.950 . S
C936 C937 1.327 . S
C937 H931 0.950 . S
C937 C936 1.327 . S
C937 C941 1.429 . S
C938 C921 1.574 . S
C938 H932 0.949 . S
C938 C942 1.368 . S
C939 C920 1.429 . S
C939 C933 1.429 . S
C939 C940 1.523 . S
C940 C921 1.368 . S
C940 C934 1.368 . S
C940 C939 1.523 . S
C941 C925 1.429 . S
C941 C937 1.429 . S
C941 C942 1.523 . S
C942 C926 1.368 . S
C942 C938 1.368 . S
C942 C941 1.523 . S
H943 C918 0.950 . S
H944 C920 0.950 . S
H945 C921 0.949 . S
H946 C923 0.950 . S
H947 C925 0.950 . S
C948 C949 1.349 . S
C948 C950 1.327 . S
C948 H973 0.950 . S
C949 C948 1.349 . S
C949 C965 1.349 . S
C950 C948 1.327 . S
C950 C969 1.429 . S
C950 H974 0.950 . S
C951 C968 1.574 . S
C951 C970 1.368 . S
C951 H975 0.949 . S
H952 C956 0.949 . S
C953 C954 1.349 . S
C953 C955 1.327 . S
C953 H976 0.950 . S
C954 C953 1.349 . S
C954 C966 1.349 . S
C955 C953 1.327 . S
C955 C971 1.429 . S
C955 H977 0.950 . S
C956 H952 0.949 . S
C956 C964 1.574 . S
C956 C972 1.368 . S
H957 C965 0.950 . S
H958 C963 0.950 . S
H959 C964 0.949 . S
H960 C966 0.950 . S
H961 C967 0.950 . S
H962 C968 0.949 . S
C963 H958 0.950 . S
C963 C965 1.327 . S
C963 C969 1.429 . S
C964 C956 1.574 . S
C964 H959 0.949 . S
C964 C970 1.368 . S
C965 C949 1.349 . S
C965 H957 0.950 . S
C965 C963 1.327 . S
C966 C954 1.349 . S
C966 H960 0.950 . S
C966 C967 1.327 . S
C967 H961 0.950 . S
C967 C966 1.327 . S
C967 C971 1.429 . S
C968 C951 1.574 . S
C968 H962 0.949 . S
C968 C972 1.368 . S
C969 C950 1.429 . S
C969 C963 1.429 . S
C969 C970 1.523 1_554 S
C970 C951 1.368 . S
C970 C964 1.368 . S
C970 C969 1.523 1_556 S
C971 C955 1.429 . S
C971 C967 1.429 . S
C971 C972 1.523 . S
C972 C956 1.368 . S
C972 C968 1.368 . S
C972 C971 1.523 . S
H973 C948 0.950 . S
H974 C950 0.950 . S
H975 C951 0.949 . S
H976 C953 0.950 . S
H977 C955 0.950 . S
C978 C979 1.349 . S
C978 C980 1.327 . S
C978 H1003 0.950 . S
C979 C978 1.349 . S
C979 C995 1.349 . S
C980 C978 1.327 . S
C980 C999 1.429 . S
C980 H1004 0.950 . S
C981 C998 1.574 . S
C981 C1000 1.368 . S
C981 H1005 0.949 . S
H982 C986 0.949 . S
C983 C984 1.349 . S
C983 C985 1.327 . S
C983 H1006 0.950 . S
C984 C983 1.349 . S
C984 C996 1.349 . S
C985 C983 1.327 . S
C985 C1001 1.429 . S
C985 H1007 0.950 . S
C986 H982 0.949 . S
C986 C994 1.574 . S
C986 C1002 1.368 . S
H987 C995 0.950 . S
H988 C993 0.950 . S
H989 C994 0.949 . S
H990 C996 0.950 . S
H991 C997 0.950 . S
H992 C998 0.949 . S
C993 H988 0.950 . S
C993 C995 1.327 . S
C993 C999 1.429 . S
C994 C986 1.574 . S
C994 H989 0.949 . S
C994 C1000 1.368 . S
C995 C979 1.349 . S
C995 H987 0.950 . S
C995 C993 1.327 . S
C996 C984 1.349 . S
C996 H990 0.950 . S
C996 C997 1.327 . S
C997 H991 0.950 . S
C997 C996 1.327 . S
C997 C1001 1.429 . S
C998 C981 1.574 . S
C998 H992 0.949 . S
C998 C1002 1.368 . S
C999 C980 1.429 . S
C999 C993 1.429 . S
C999 C1000 1.523 . S
C1000 C981 1.368 . S
C1000 C994 1.368 . S
C1000 C999 1.523 . S
C1001 C985 1.429 . S
C1001 C997 1.429 . S
C1001 C1002 1.523 . S
C1002 C986 1.368 . S
C1002 C998 1.368 . S
C1002 C1001 1.523 . S
H1003 C978 0.950 . S
H1004 C980 0.950 . S
H1005 C981 0.949 . S
H1006 C983 0.950 . S
H1007 C985 0.950 . S
C1008 C1009 1.349 . S
C1008 C1010 1.327 . S
C1008 H1033 0.950 . S
C1009 C1008 1.349 . S
C1009 C1025 1.349 . S
C1010 C1008 1.327 . S
C1010 C1029 1.429 . S
C1010 H1034 0.950 . S
C1011 C1028 1.574 . S
C1011 C1030 1.368 1_556 S
C1011 H1035 0.949 . S
H1012 C1016 0.949 . S
C1013 C1014 1.349 . S
C1013 C1015 1.327 . S
C1013 H1036 0.950 . S
C1014 C1013 1.349 . S
C1014 C1026 1.349 . S
C1015 C1013 1.327 . S
C1015 C1031 1.429 . S
C1015 H1037 0.950 . S
C1016 H1012 0.949 . S
C1016 C1024 1.574 . S
C1016 C1032 1.368 1_554 S
H1017 C1025 0.950 1_556 S
H1018 C1023 0.950 . S
H1019 C1024 0.949 . S
H1020 C1026 0.950 1_554 S
H1021 C1027 0.950 . S
H1022 C1028 0.949 . S
C1023 H1018 0.950 . S
C1023 C1025 1.327 1_556 S
C1023 C1029 1.429 1_556 S
C1024 C1016 1.574 . S
C1024 H1019 0.949 . S
C1024 C1030 1.368 . S
C1025 C1009 1.349 . S
C1025 H1017 0.950 1_554 S
C1025 C1023 1.327 1_554 S
C1026 C1014 1.349 . S
C1026 H1020 0.950 1_556 S
C1026 C1027 1.327 1_556 S
C1027 H1021 0.950 . S
C1027 C1026 1.327 1_554 S
C1027 C1031 1.429 1_554 S
C1028 C1011 1.574 . S
C1028 H1022 0.949 . S
C1028 C1032 1.368 . S
C1029 C1010 1.429 . S
C1029 C1023 1.429 1_554 S
C1029 C1030 1.523 . S
C1030 C1011 1.368 1_554 S
C1030 C1024 1.368 . S
C1030 C1029 1.523 . S
C1031 C1015 1.429 . S
C1031 C1027 1.429 1_556 S
C1031 C1032 1.523 . S
C1032 C1016 1.368 1_556 S
C1032 C1028 1.368 . S
C1032 C1031 1.523 . S
H1033 C1008 0.950 . S
H1034 C1010 0.950 . S
H1035 C1011 0.949 . S
H1036 C1013 0.950 . S
H1037 C1015 0.950 . S
C1038 C1039 1.349 . S
C1038 C1040 1.327 . S
C1038 H1063 0.950 . S
C1039 C1038 1.349 . S
C1039 C1055 1.349 . S
C1040 C1038 1.327 . S
C1040 C1059 1.429 . S
C1040 H1064 0.950 . S
C1041 C1058 1.574 . S
C1041 C1060 1.368 . S
C1041 H1065 0.949 . S
H1042 C1046 0.949 . S
C1043 C1044 1.349 . S
C1043 C1045 1.327 . S
C1043 H1066 0.950 . S
C1044 C1043 1.349 . S
C1044 C1056 1.349 . S
C1045 C1043 1.327 . S
C1045 C1061 1.429 . S
C1045 H1067 0.950 . S
C1046 H1042 0.949 . S
C1046 C1054 1.574 . S
C1046 C1062 1.368 . S
H1047 C1055 0.950 . S
H1048 C1053 0.950 . S
H1049 C1054 0.949 . S
H1050 C1056 0.950 . S
H1051 C1057 0.950 . S
H1052 C1058 0.949 . S
C1053 H1048 0.950 . S
C1053 C1055 1.327 . S
C1053 C1059 1.429 . S
C1054 C1046 1.574 . S
C1054 H1049 0.949 . S
C1054 C1060 1.368 . S
C1055 C1039 1.349 . S
C1055 H1047 0.950 . S
C1055 C1053 1.327 . S
C1056 C1044 1.349 . S
C1056 H1050 0.950 . S
C1056 C1057 1.327 . S
C1057 H1051 0.950 . S
C1057 C1056 1.327 . S
C1057 C1061 1.429 . S
C1058 C1041 1.574 . S
C1058 H1052 0.949 . S
C1058 C1062 1.368 . S
C1059 C1040 1.429 . S
C1059 C1053 1.429 . S
C1059 C1060 1.523 . S
C1060 C1041 1.368 . S
C1060 C1054 1.368 . S
C1060 C1059 1.523 . S
C1061 C1045 1.429 . S
C1061 C1057 1.429 . S
C1061 C1062 1.523 . S
C1062 C1046 1.368 . S
C1062 C1058 1.368 . S
C1062 C1061 1.523 . S
H1063 C1038 0.950 . S
H1064 C1040 0.950 . S
H1065 C1041 0.949 . S
H1066 C1043 0.950 . S
H1067 C1045 0.950 . S
C1068 C1069 1.349 . S
C1068 C1070 1.327 . S
C1068 H1093 0.950 . S
C1069 C1068 1.349 . S
C1069 C1085 1.349 . S
C1070 C1068 1.327 . S
C1070 C1089 1.429 . S
C1070 H1094 0.950 . S
C1071 C1088 1.574 . S
C1071 C1090 1.368 . S
C1071 H1095 0.949 . S
H1072 C1076 0.949 . S
C1073 C1074 1.349 . S
C1073 C1075 1.327 . S
C1073 H1096 0.950 . S
C1074 C1073 1.349 . S
C1074 C1086 1.349 . S
C1075 C1073 1.327 . S
C1075 C1091 1.429 . S
C1075 H1097 0.950 . S
C1076 H1072 0.949 . S
C1076 C1084 1.574 . S
C1076 C1092 1.368 . S
H1077 C1085 0.950 . S
H1078 C1083 0.950 . S
H1079 C1084 0.949 . S
H1080 C1086 0.950 . S
H1081 C1087 0.950 . S
H1082 C1088 0.949 . S
C1083 H1078 0.950 . S
C1083 C1085 1.327 . S
C1083 C1089 1.429 . S
C1084 C1076 1.574 . S
C1084 H1079 0.949 . S
C1084 C1090 1.368 . S
C1085 C1069 1.349 . S
C1085 H1077 0.950 . S
C1085 C1083 1.327 . S
C1086 C1074 1.349 . S
C1086 H1080 0.950 . S
C1086 C1087 1.327 . S
C1087 H1081 0.950 . S
C1087 C1086 1.327 . S
C1087 C1091 1.429 . S
C1088 C1071 1.574 . S
C1088 H1082 0.949 . S
C1088 C1092 1.368 . S
C1089 C1070 1.429 . S
C1089 C1083 1.429 . S
C1089 C1090 1.523 . S
C1090 C1071 1.368 . S
C1090 C1084 1.368 . S
C1090 C1089 1.523 . S
C1091 C1075 1.429 . S
C1091 C1087 1.429 . S
C1091 C1092 1.523 . S
C1092 C1076 1.368 . S
C1092 C1088 1.368 . S
C1092 C1091 1.523 . S
H1093 C1068 0.950 . S
H1094 C1070 0.950 . S
H1095 C1071 0.949 . S
H1096 C1073 0.950 . S
H1097 C1075 0.950 . S
C1098 C1099 1.349 . S
C1098 C1100 1.327 . S
C1098 H1123 0.950 . S
C1099 C1098 1.349 . S
C1099 C1115 1.349 . S
C1100 C1098 1.327 . S
C1100 C1119 1.429 . S
C1100 H1124 0.950 . S
C1101 C1118 1.574 . S
C1101 C1120 1.368 . S
C1101 H1125 0.949 . S
H1102 C1106 0.949 . S
C1103 C1104 1.349 . S
C1103 C1105 1.327 . S
C1103 H1126 0.950 . S
C1104 C1103 1.349 . S
C1104 C1116 1.349 . S
C1105 C1103 1.327 . S
C1105 C1121 1.429 . S
C1105 H1127 0.950 . S
C1106 H1102 0.949 . S
C1106 C1114 1.574 . S
C1106 C1122 1.368 . S
H1107 C1115 0.950 . S
H1108 C1113 0.950 . S
H1109 C1114 0.949 . S
H1110 C1116 0.950 . S
H1111 C1117 0.950 . S
H1112 C1118 0.949 . S
C1113 H1108 0.950 . S
C1113 C1115 1.327 . S
C1113 C1119 1.429 . S
C1114 C1106 1.574 . S
C1114 H1109 0.949 . S
C1114 C1120 1.368 . S
C1115 C1099 1.349 . S
C1115 H1107 0.950 . S
C1115 C1113 1.327 . S
C1116 C1104 1.349 . S
C1116 H1110 0.950 . S
C1116 C1117 1.327 . S
C1117 H1111 0.950 . S
C1117 C1116 1.327 . S
C1117 C1121 1.429 . S
C1118 C1101 1.574 . S
C1118 H1112 0.949 . S
C1118 C1122 1.368 . S
C1119 C1100 1.429 . S
C1119 C1113 1.429 . S
C1119 C1120 1.523 . S
C1120 C1101 1.368 . S
C1120 C1114 1.368 . S
C1120 C1119 1.523 . S
C1121 C1105 1.429 . S
C1121 C1117 1.429 . S
C1121 C1122 1.523 . S
C1122 C1106 1.368 . S
C1122 C1118 1.368 . S
C1122 C1121 1.523 . S
H1123 C1098 0.950 . S
H1124 C1100 0.950 . S
H1125 C1101 0.949 . S
H1126 C1103 0.950 . S
H1127 C1105 0.950 . S
C1128 C1129 1.349 . S
C1128 C1130 1.327 . S
C1128 H1153 0.950 . S
C1129 C1128 1.349 . S
C1129 C1145 1.349 . S
C1130 C1128 1.327 . S
C1130 C1149 1.429 . S
C1130 H1154 0.950 . S
C1131 C1148 1.574 . S
C1131 C1150 1.368 . S
C1131 H1155 0.949 . S
H1132 C1136 0.949 . S
C1133 C1134 1.349 . S
C1133 C1135 1.327 . S
C1133 H1156 0.950 . S
C1134 C1133 1.349 . S
C1134 C1146 1.349 . S
C1135 C1133 1.327 . S
C1135 C1151 1.429 . S
C1135 H1157 0.950 . S
C1136 H1132 0.949 . S
C1136 C1144 1.574 . S
C1136 C1152 1.368 . S
H1137 C1145 0.950 . S
H1138 C1143 0.950 . S
H1139 C1144 0.949 . S
H1140 C1146 0.950 . S
H1141 C1147 0.950 . S
H1142 C1148 0.949 . S
C1143 H1138 0.950 . S
C1143 C1145 1.327 . S
C1143 C1149 1.429 . S
C1144 C1136 1.574 . S
C1144 H1139 0.949 . S
C1144 C1150 1.368 . S
C1145 C1129 1.349 . S
C1145 H1137 0.950 . S
C1145 C1143 1.327 . S
C1146 C1134 1.349 . S
C1146 H1140 0.950 . S
C1146 C1147 1.327 . S
C1147 H1141 0.950 . S
C1147 C1146 1.327 . S
C1147 C1151 1.429 . S
C1148 C1131 1.574 . S
C1148 H1142 0.949 . S
C1148 C1152 1.368 . S
C1149 C1130 1.429 . S
C1149 C1143 1.429 . S
C1149 C1150 1.523 . S
C1150 C1131 1.368 . S
C1150 C1144 1.368 . S
C1150 C1149 1.523 . S
C1151 C1135 1.429 . S
C1151 C1147 1.429 . S
C1151 C1152 1.523 . S
C1152 C1136 1.368 . S
C1152 C1148 1.368 . S
C1152 C1151 1.523 . S
H1153 C1128 0.950 . S
H1154 C1130 0.950 . S
H1155 C1131 0.949 . S
H1156 C1133 0.950 . S
H1157 C1135 0.950 . S
C1158 C1159 1.349 . S
C1158 C1160 1.327 . S
C1158 H1183 0.950 . S
C1159 C1158 1.349 . S
C1159 C1175 1.349 . S
C1160 C1158 1.327 . S
C1160 C1179 1.429 . S
C1160 H1184 0.950 . S
C1161 C1178 1.574 . S
C1161 C1180 1.368 . S
C1161 H1185 0.949 . S
H1162 C1166 0.949 . S
C1163 C1164 1.349 . S
C1163 C1165 1.327 . S
C1163 H1186 0.950 . S
C1164 C1163 1.349 . S
C1164 C1176 1.349 . S
C1165 C1163 1.327 . S
C1165 C1181 1.429 . S
C1165 H1187 0.950 . S
C1166 H1162 0.949 . S
C1166 C1174 1.574 . S
C1166 C1182 1.368 . S
H1167 C1175 0.950 . S
H1168 C1173 0.950 . S
H1169 C1174 0.949 . S
H1170 C1176 0.950 . S
H1171 C1177 0.950 . S
H1172 C1178 0.949 . S
C1173 H1168 0.950 . S
C1173 C1175 1.327 . S
C1173 C1179 1.429 . S
C1174 C1166 1.574 . S
C1174 H1169 0.949 . S
C1174 C1180 1.368 . S
C1175 C1159 1.349 . S
C1175 H1167 0.950 . S
C1175 C1173 1.327 . S
C1176 C1164 1.349 . S
C1176 H1170 0.950 . S
C1176 C1177 1.327 . S
C1177 H1171 0.950 . S
C1177 C1176 1.327 . S
C1177 C1181 1.429 . S
C1178 C1161 1.574 . S
C1178 H1172 0.949 . S
C1178 C1182 1.368 . S
C1179 C1160 1.429 . S
C1179 C1173 1.429 . S
C1179 C1180 1.523 . S
C1180 C1161 1.368 . S
C1180 C1174 1.368 . S
C1180 C1179 1.523 . S
C1181 C1165 1.429 . S
C1181 C1177 1.429 . S
C1181 C1182 1.523 . S
C1182 C1166 1.368 . S
C1182 C1178 1.368 . S
C1182 C1181 1.523 . S
H1183 C1158 0.950 . S
H1184 C1160 0.950 . S
H1185 C1161 0.949 . S
H1186 C1163 0.950 . S
H1187 C1165 0.950 . S
C1188 C1189 1.349 . S
C1188 C1190 1.327 . S
C1188 H1213 0.950 . S
C1189 C1188 1.349 . S
C1189 C1205 1.349 . S
C1190 C1188 1.327 . S
C1190 C1209 1.429 . S
C1190 H1214 0.950 . S
C1191 C1208 1.574 1_545 S
C1191 C1210 1.368 . S
C1191 H1215 0.949 . S
H1192 C1196 0.949 . S
C1193 C1194 1.349 . S
C1193 C1195 1.327 . S
C1193 H1216 0.950 . S
C1194 C1193 1.349 . S
C1194 C1206 1.349 . S
C1195 C1193 1.327 . S
C1195 C1211 1.429 . S
C1195 H1217 0.950 . S
C1196 H1192 0.949 . S
C1196 C1204 1.574 1_565 S
C1196 C1212 1.368 . S
H1197 C1205 0.950 . S
H1198 C1203 0.950 . S
H1199 C1204 0.949 . S
H1200 C1206 0.950 . S
H1201 C1207 0.950 . S
H1202 C1208 0.949 . S
C1203 H1198 0.950 . S
C1203 C1205 1.327 . S
C1203 C1209 1.429 . S
C1204 C1196 1.574 1_545 S
C1204 H1199 0.949 . S
C1204 C1210 1.368 . S
C1205 C1189 1.349 . S
C1205 H1197 0.950 . S
C1205 C1203 1.327 . S
C1206 C1194 1.349 . S
C1206 H1200 0.950 . S
C1206 C1207 1.327 . S
C1207 H1201 0.950 . S
C1207 C1206 1.327 . S
C1207 C1211 1.429 . S
C1208 C1191 1.574 1_565 S
C1208 H1202 0.949 . S
C1208 C1212 1.368 . S
C1209 C1190 1.429 . S
C1209 C1203 1.429 . S
C1209 C1210 1.523 . S
C1210 C1191 1.368 . S
C1210 C1204 1.368 . S
C1210 C1209 1.523 . S
C1211 C1195 1.429 . S
C1211 C1207 1.429 . S
C1211 C1212 1.523 . S
C1212 C1196 1.368 . S
C1212 C1208 1.368 . S
C1212 C1211 1.523 . S
H1213 C1188 0.950 . S
H1214 C1190 0.950 . S
H1215 C1191 0.949 . S
H1216 C1193 0.950 . S
H1217 C1195 0.950 . S
C1218 C1219 1.349 . S
C1218 C1220 1.327 1_554 S
C1218 H1243 0.950 1_554 S
C1219 C1218 1.349 . S
C1219 C1235 1.349 . S
C1220 C1218 1.327 1_556 S
C1220 C1239 1.429 1_556 S
C1220 H1244 0.950 . S
C1221 C1238 1.574 1_565 S
C1221 C1240 1.368 . S
C1221 H1245 0.949 . S
H1222 C1226 0.949 . S
C1223 C1224 1.349 . S
C1223 C1225 1.327 1_556 S
C1223 H1246 0.950 1_556 S
C1224 C1223 1.349 . S
C1224 C1236 1.349 . S
C1225 C1223 1.327 1_554 S
C1225 C1241 1.429 1_554 S
C1225 H1247 0.950 . S
C1226 H1222 0.949 . S
C1226 C1234 1.574 1_545 S
C1226 C1242 1.368 . S
H1227 C1235 0.950 . S
H1228 C1233 0.950 . S
H1229 C1234 0.949 . S
H1230 C1236 0.950 . S
H1231 C1237 0.950 . S
H1232 C1238 0.949 . S
C1233 H1228 0.950 . S
C1233 C1235 1.327 . S
C1233 C1239 1.429 . S
C1234 C1226 1.574 1_565 S
C1234 H1229 0.949 . S
C1234 C1240 1.368 1_556 S
C1235 C1219 1.349 . S
C1235 H1227 0.950 . S
C1235 C1233 1.327 . S
C1236 C1224 1.349 . S
C1236 H1230 0.950 . S
C1236 C1237 1.327 . S
C1237 H1231 0.950 . S
C1237 C1236 1.327 . S
C1237 C1241 1.429 . S
C1238 C1221 1.574 1_545 S
C1238 H1232 0.949 . S
C1238 C1242 1.368 1_554 S
C1239 C1220 1.429 1_554 S
C1239 C1233 1.429 . S
C1239 C1240 1.523 . S
C1240 C1221 1.368 . S
C1240 C1234 1.368 1_554 S
C1240 C1239 1.523 . S
C1241 C1225 1.429 1_556 S
C1241 C1237 1.429 . S
C1241 C1242 1.523 . S
C1242 C1226 1.368 . S
C1242 C1238 1.368 1_556 S
C1242 C1241 1.523 . S
H1243 C1218 0.950 1_556 S
H1244 C1220 0.950 . S
H1245 C1221 0.949 . S
H1246 C1223 0.950 1_554 S
H1247 C1225 0.950 . S
C1248 C1249 1.349 . S
C1248 C1250 1.327 . S
C1248 H1273 0.950 . S
C1249 C1248 1.349 . S
C1249 C1265 1.349 . S
C1250 C1248 1.327 . S
C1250 C1269 1.429 . S
C1250 H1274 0.950 . S
C1251 C1268 1.574 . S
C1251 C1270 1.368 . S
C1251 H1275 0.949 . S
H1252 C1256 0.949 . S
C1253 C1254 1.349 . S
C1253 C1255 1.327 . S
C1253 H1276 0.950 . S
C1254 C1253 1.349 . S
C1254 C1266 1.349 . S
C1255 C1253 1.327 . S
C1255 C1271 1.429 . S
C1255 H1277 0.950 . S
C1256 H1252 0.949 . S
C1256 C1264 1.574 . S
C1256 C1272 1.368 . S
H1257 C1265 0.950 . S
H1258 C1263 0.950 . S
H1259 C1264 0.949 . S
H1260 C1266 0.950 . S
H1261 C1267 0.950 . S
H1262 C1268 0.949 . S
C1263 H1258 0.950 . S
C1263 C1265 1.327 . S
C1263 C1269 1.429 . S
C1264 C1256 1.574 . S
C1264 H1259 0.949 . S
C1264 C1270 1.368 . S
C1265 C1249 1.349 . S
C1265 H1257 0.950 . S
C1265 C1263 1.327 . S
C1266 C1254 1.349 . S
C1266 H1260 0.950 . S
C1266 C1267 1.327 . S
C1267 H1261 0.950 . S
C1267 C1266 1.327 . S
C1267 C1271 1.429 . S
C1268 C1251 1.574 . S
C1268 H1262 0.949 . S
C1268 C1272 1.368 . S
C1269 C1250 1.429 . S
C1269 C1263 1.429 . S
C1269 C1270 1.523 . S
C1270 C1251 1.368 . S
C1270 C1264 1.368 . S
C1270 C1269 1.523 . S
C1271 C1255 1.429 . S
C1271 C1267 1.429 . S
C1271 C1272 1.523 . S
C1272 C1256 1.368 . S
C1272 C1268 1.368 . S
C1272 C1271 1.523 . S
H1273 C1248 0.950 . S
H1274 C1250 0.950 . S
H1275 C1251 0.949 . S
H1276 C1253 0.950 . S
H1277 C1255 0.950 . S
C1278 C1279 1.349 . S
C1278 C1280 1.327 . S
C1278 H1303 0.950 . S
C1279 C1278 1.349 . S
C1279 C1295 1.349 . S
C1280 C1278 1.327 . S
C1280 C1299 1.429 . S
C1280 H1304 0.950 . S
C1281 C1298 1.574 . S
C1281 C1300 1.368 . S
C1281 H1305 0.949 . S
H1282 C1286 0.949 . S
C1283 C1284 1.349 . S
C1283 C1285 1.327 . S
C1283 H1306 0.950 . S
C1284 C1283 1.349 . S
C1284 C1296 1.349 . S
C1285 C1283 1.327 . S
C1285 C1301 1.429 . S
C1285 H1307 0.950 . S
C1286 H1282 0.949 . S
C1286 C1294 1.574 . S
C1286 C1302 1.368 . S
H1287 C1295 0.950 . S
H1288 C1293 0.950 . S
H1289 C1294 0.949 . S
H1290 C1296 0.950 . S
H1291 C1297 0.950 . S
H1292 C1298 0.949 . S
C1293 H1288 0.950 . S
C1293 C1295 1.327 . S
C1293 C1299 1.429 . S
C1294 C1286 1.574 . S
C1294 H1289 0.949 . S
C1294 C1300 1.368 . S
C1295 C1279 1.349 . S
C1295 H1287 0.950 . S
C1295 C1293 1.327 . S
C1296 C1284 1.349 . S
C1296 H1290 0.950 . S
C1296 C1297 1.327 . S
C1297 H1291 0.950 . S
C1297 C1296 1.327 . S
C1297 C1301 1.429 . S
C1298 C1281 1.574 . S
C1298 H1292 0.949 . S
C1298 C1302 1.368 . S
C1299 C1280 1.429 . S
C1299 C1293 1.429 . S
C1299 C1300 1.523 . S
C1300 C1281 1.368 . S
C1300 C1294 1.368 . S
C1300 C1299 1.523 . S
C1301 C1285 1.429 . S
C1301 C1297 1.429 . S
C1301 C1302 1.523 . S
C1302 C1286 1.368 . S
C1302 C1298 1.368 . S
C1302 C1301 1.523 . S
H1303 C1278 0.950 . S
H1304 C1280 0.950 . S
H1305 C1281 0.949 . S
H1306 C1283 0.950 . S
H1307 C1285 0.950 . S
C1308 C1309 1.349 . S
C1308 C1310 1.327 . S
C1308 H1333 0.950 . S
C1309 C1308 1.349 . S
C1309 C1325 1.349 . S
C1310 C1308 1.327 . S
C1310 C1329 1.429 . S
C1310 H1334 0.950 . S
C1311 C1328 1.574 . S
C1311 C1330 1.368 . S
C1311 H1335 0.949 . S
H1312 C1316 0.949 . S
C1313 C1314 1.349 . S
C1313 C1315 1.327 . S
C1313 H1336 0.950 . S
C1314 C1313 1.349 . S
C1314 C1326 1.349 . S
C1315 C1313 1.327 . S
C1315 C1331 1.429 . S
C1315 H1337 0.950 . S
C1316 H1312 0.949 . S
C1316 C1324 1.574 . S
C1316 C1332 1.368 . S
H1317 C1325 0.950 . S
H1318 C1323 0.950 . S
H1319 C1324 0.949 . S
H1320 C1326 0.950 . S
H1321 C1327 0.950 . S
H1322 C1328 0.949 . S
C1323 H1318 0.950 . S
C1323 C1325 1.327 . S
C1323 C1329 1.429 . S
C1324 C1316 1.574 . S
C1324 H1319 0.949 . S
C1324 C1330 1.368 . S
C1325 C1309 1.349 . S
C1325 H1317 0.950 . S
C1325 C1323 1.327 . S
C1326 C1314 1.349 . S
C1326 H1320 0.950 . S
C1326 C1327 1.327 . S
C1327 H1321 0.950 . S
C1327 C1326 1.327 . S
C1327 C1331 1.429 . S
C1328 C1311 1.574 . S
C1328 H1322 0.949 . S
C1328 C1332 1.368 . S
C1329 C1310 1.429 . S
C1329 C1323 1.429 . S
C1329 C1330 1.523 . S
C1330 C1311 1.368 . S
C1330 C1324 1.368 . S
C1330 C1329 1.523 . S
C1331 C1315 1.429 . S
C1331 C1327 1.429 . S
C1331 C1332 1.523 . S
C1332 C1316 1.368 . S
C1332 C1328 1.368 . S
C1332 C1331 1.523 . S
H1333 C1308 0.950 . S
H1334 C1310 0.950 . S
H1335 C1311 0.949 . S
H1336 C1313 0.950 . S
H1337 C1315 0.950 . S
C1338 C1339 1.349 1_655 S
C1338 C1340 1.327 . S
C1338 H1363 0.950 . S
C1339 C1338 1.349 1_455 S
C1339 C1355 1.349 . S
C1340 C1338 1.327 . S
C1340 C1359 1.429 . S
C1340 H1364 0.950 . S
C1341 C1358 1.574 . S
C1341 C1360 1.368 . S
C1341 H1365 0.949 . S
H1342 C1346 0.949 . S
C1343 C1344 1.349 . S
C1343 C1345 1.327 . S
C1343 H1366 0.950 . S
C1344 C1343 1.349 . S
C1344 C1356 1.349 . S
C1345 C1343 1.327 . S
C1345 C1361 1.429 . S
C1345 H1367 0.950 . S
C1346 H1342 0.949 . S
C1346 C1354 1.574 . S
C1346 C1362 1.368 . S
H1347 C1355 0.950 . S
H1348 C1353 0.949 . S
H1349 C1354 0.949 . S
H1350 C1356 0.950 . S
H1351 C1357 0.950 . S
H1352 C1358 0.949 . S
C1353 H1348 0.949 . S
C1353 C1355 1.269 1_655 S
C1353 C1359 1.492 . S
C1354 C1346 1.574 . S
C1354 H1349 0.949 . S
C1354 C1360 1.368 . S
C1355 C1339 1.349 . S
C1355 H1347 0.950 . S
C1355 C1353 1.269 1_455 S
C1356 C1344 1.349 . S
C1356 H1350 0.950 . S
C1356 C1357 1.327 . S
C1357 H1351 0.950 . S
C1357 C1356 1.327 . S
C1357 C1361 1.429 . S
C1358 C1341 1.574 . S
C1358 H1352 0.949 . S
C1358 C1362 1.368 . S
C1359 C1340 1.429 . S
C1359 C1353 1.492 . S
C1359 C1360 1.523 . S
C1360 C1341 1.368 . S
C1360 C1354 1.368 . S
C1360 C1359 1.523 . S
C1361 C1345 1.429 . S
C1361 C1357 1.429 . S
C1361 C1362 1.523 . S
C1362 C1346 1.368 . S
C1362 C1358 1.368 . S
C1362 C1361 1.523 . S
H1363 C1338 0.950 . S
H1364 C1340 0.950 . S
H1365 C1341 0.949 . S
H1366 C1343 0.950 . S
H1367 C1345 0.950 . S
C1368 C1369 1.349 . S
C1368 C1370 1.327 . S
C1368 H1393 0.950 . S
C1369 C1368 1.349 . S
C1369 C1385 1.349 . S
C1370 C1368 1.327 . S
C1370 C1389 1.429 . S
C1370 H1394 0.950 . S
C1371 C1388 1.574 . S
C1371 C1390 1.368 . S
C1371 H1395 0.949 . S
H1372 C1376 0.949 . S
C1373 C1374 1.349 . S
C1373 C1375 1.327 . S
C1373 H1396 0.950 . S
C1374 C1373 1.349 . S
C1374 C1386 1.349 . S
C1375 C1373 1.327 . S
C1375 C1391 1.429 . S
C1375 H1397 0.950 . S
C1376 H1372 0.949 . S
C1376 C1384 1.574 . S
C1376 C1392 1.368 . S
H1377 C1385 0.950 . S
H1378 C1383 0.950 . S
H1379 C1384 0.949 . S
H1380 C1386 0.950 . S
H1381 C1387 0.950 . S
H1382 C1388 0.949 . S
C1383 H1378 0.950 . S
C1383 C1385 1.327 . S
C1383 C1389 1.429 . S
C1384 C1376 1.574 . S
C1384 H1379 0.949 . S
C1384 C1390 1.368 . S
C1385 C1369 1.349 . S
C1385 H1377 0.950 . S
C1385 C1383 1.327 . S
C1386 C1374 1.349 . S
C1386 H1380 0.950 . S
C1386 C1387 1.327 . S
C1387 H1381 0.950 . S
C1387 C1386 1.327 . S
C1387 C1391 1.429 . S
C1388 C1371 1.574 . S
C1388 H1382 0.949 . S
C1388 C1392 1.368 . S
C1389 C1370 1.429 . S
C1389 C1383 1.429 . S
C1389 C1390 1.523 . S
C1390 C1371 1.368 . S
C1390 C1384 1.368 . S
C1390 C1389 1.523 . S
C1391 C1375 1.429 . S
C1391 C1387 1.429 . S
C1391 C1392 1.523 . S
C1392 C1376 1.368 . S
C1392 C1388 1.368 . S
C1392 C1391 1.523 . S
H1393 C1368 0.950 . S
H1394 C1370 0.950 . S
H1395 C1371 0.949 . S
H1396 C1373 0.950 . S
H1397 C1375 0.950 . S
C1398 C1399 1.306 1_655 S
C1398 C1400 1.375 . S
C1398 H1423 0.948 . S
C1399 C1398 1.306 1_455 S
C1399 C1415 1.349 . S
C1400 C1398 1.375 . S
C1400 C1419 1.429 . S
C1400 H1424 0.950 . S
C1401 C1418 1.574 . S
C1401 C1420 1.368 . S
C1401 H1425 0.949 . S
H1402 C1406 0.949 . S
C1403 C1404 1.349 . S
C1403 C1405 1.327 . S
C1403 H1426 0.950 . S
C1404 C1403 1.349 . S
C1404 C1416 1.349 . S
C1405 C1403 1.327 . S
C1405 C1421 1.429 . S
C1405 H1427 0.950 . S
C1406 H1402 0.949 . S
C1406 C1414 1.574 . S
C1406 C1422 1.368 . S
H1407 C1415 0.950 . S
H1408 C1413 0.950 . S
H1409 C1414 0.949 . S
H1410 C1416 0.950 . S
H1411 C1417 0.950 . S
H1412 C1418 0.949 . S
C1413 H1408 0.950 . S
C1413 C1415 1.327 1_655 S
C1413 C1419 1.429 . S
C1414 C1406 1.574 . S
C1414 H1409 0.949 . S
C1414 C1420 1.368 . S
C1415 C1399 1.349 . S
C1415 H1407 0.950 . S
C1415 C1413 1.327 1_455 S
C1416 C1404 1.349 . S
C1416 H1410 0.950 . S
C1416 C1417 1.327 . S
C1417 H1411 0.950 . S
C1417 C1416 1.327 . S
C1417 C1421 1.429 . S
C1418 C1401 1.574 . S
C1418 H1412 0.949 . S
C1418 C1422 1.368 . S
C1419 C1400 1.429 . S
C1419 C1413 1.429 . S
C1419 C1420 1.523 . S
C1420 C1401 1.368 . S
C1420 C1414 1.368 . S
C1420 C1419 1.523 . S
C1421 C1405 1.429 . S
C1421 C1417 1.429 . S
C1421 C1422 1.523 . S
C1422 C1406 1.368 . S
C1422 C1418 1.368 . S
C1422 C1421 1.523 . S
H1423 C1398 0.948 . S
H1424 C1400 0.950 . S
H1425 C1401 0.949 . S
H1426 C1403 0.950 . S
H1427 C1405 0.950 . S
C1428 C1429 1.349 . S
C1428 C1430 1.327 . S
C1428 H1453 0.950 . S
C1429 C1428 1.349 . S
C1429 C1445 1.349 . S
C1430 C1428 1.327 . S
C1430 C1449 1.429 . S
C1430 H1454 0.950 . S
C1431 C1448 1.574 . S
C1431 C1450 1.368 . S
C1431 H1455 0.949 . S
H1432 C1436 0.949 . S
C1433 C1434 1.349 . S
C1433 C1435 1.327 . S
C1433 H1456 0.950 . S
C1434 C1433 1.349 . S
C1434 C1446 1.349 . S
C1435 C1433 1.327 . S
C1435 C1451 1.429 . S
C1435 H1457 0.950 . S
C1436 H1432 0.949 . S
C1436 C1444 1.574 . S
C1436 C1452 1.368 . S
H1437 C1445 0.950 . S
H1438 C1443 0.950 . S
H1439 C1444 0.949 . S
H1440 C1446 0.950 . S
H1441 C1447 0.950 . S
H1442 C1448 0.949 . S
C1443 H1438 0.950 . S
C1443 C1445 1.327 . S
C1443 C1449 1.429 . S
C1444 C1436 1.574 . S
C1444 H1439 0.949 . S
C1444 C1450 1.368 . S
C1445 C1429 1.349 . S
C1445 H1437 0.950 . S
C1445 C1443 1.327 . S
C1446 C1434 1.349 . S
C1446 H1440 0.950 . S
C1446 C1447 1.327 . S
C1447 H1441 0.950 . S
C1447 C1446 1.327 . S
C1447 C1451 1.429 . S
C1448 C1431 1.574 . S
C1448 H1442 0.949 . S
C1448 C1452 1.368 . S
C1449 C1430 1.429 . S
C1449 C1443 1.429 . S
C1449 C1450 1.523 . S
C1450 C1431 1.368 . S
C1450 C1444 1.368 . S
C1450 C1449 1.523 . S
C1451 C1435 1.429 . S
C1451 C1447 1.429 . S
C1451 C1452 1.523 . S
C1452 C1436 1.368 . S
C1452 C1448 1.368 . S
C1452 C1451 1.523 . S
H1453 C1428 0.950 . S
H1454 C1430 0.950 . S
H1455 C1431 0.949 . S
H1456 C1433 0.950 . S
H1457 C1435 0.950 . S
C1458 C1459 1.349 . S
C1458 C1460 1.327 . S
C1458 H1483 0.950 . S
C1459 C1458 1.349 . S
C1459 C1475 1.349 . S
C1460 C1458 1.327 . S
C1460 C1479 1.429 . S
C1460 H1484 0.950 . S
C1461 C1478 1.574 . S
C1461 C1480 1.368 . S
C1461 H1485 0.949 . S
H1462 C1466 0.949 . S
C1463 C1464 1.349 . S
C1463 C1465 1.327 . S
C1463 H1486 0.950 . S
C1464 C1463 1.349 . S
C1464 C1476 1.349 . S
C1465 C1463 1.327 . S
C1465 C1481 1.429 . S
C1465 H1487 0.950 . S
C1466 H1462 0.949 . S
C1466 C1474 1.574 . S
C1466 C1482 1.368 . S
H1467 C1475 0.950 . S
H1468 C1473 0.950 . S
H1469 C1474 0.949 . S
H1470 C1476 0.950 . S
H1471 C1477 0.950 . S
H1472 C1478 0.949 . S
C1473 H1468 0.950 . S
C1473 C1475 1.327 . S
C1473 C1479 1.429 . S
C1474 C1466 1.574 . S
C1474 H1469 0.949 . S
C1474 C1480 1.368 . S
C1475 C1459 1.349 . S
C1475 H1467 0.950 . S
C1475 C1473 1.327 . S
C1476 C1464 1.349 . S
C1476 H1470 0.950 . S
C1476 C1477 1.327 . S
C1477 H1471 0.950 . S
C1477 C1476 1.327 . S
C1477 C1481 1.429 . S
C1478 C1461 1.574 . S
C1478 H1472 0.949 . S
C1478 C1482 1.368 . S
C1479 C1460 1.429 . S
C1479 C1473 1.429 . S
C1479 C1480 1.523 . S
C1480 C1461 1.368 . S
C1480 C1474 1.368 . S
C1480 C1479 1.523 . S
C1481 C1465 1.429 . S
C1481 C1477 1.429 . S
C1481 C1482 1.523 . S
C1482 C1466 1.368 . S
C1482 C1478 1.368 . S
C1482 C1481 1.523 . S
H1483 C1458 0.950 . S
H1484 C1460 0.950 . S
H1485 C1461 0.949 . S
H1486 C1463 0.950 . S
H1487 C1465 0.950 . S
C1488 C1489 1.349 . S
C1488 C1490 1.327 1_455 S
C1488 H1513 0.950 . S
C1489 C1488 1.349 . S
C1489 C1505 1.349 . S
C1490 C1488 1.327 1_655 S
C1490 C1509 1.429 . S
C1490 H1514 0.950 . S
C1491 C1508 1.574 . S
C1491 C1510 1.368 . S
C1491 H1515 0.949 . S
H1492 C1496 0.949 . S
C1493 C1494 1.349 . S
C1493 C1495 1.327 . S
C1493 H1516 0.950 . S
C1494 C1493 1.349 . S
C1494 C1506 1.349 . S
C1495 C1493 1.327 . S
C1495 C1511 1.429 . S
C1495 H1517 0.950 . S
C1496 H1492 0.949 . S
C1496 C1504 1.574 . S
C1496 C1512 1.368 . S
H1497 C1505 0.950 . S
H1498 C1503 0.950 . S
H1499 C1504 0.949 . S
H1500 C1506 0.950 . S
H1501 C1507 0.950 . S
H1502 C1508 0.949 . S
C1503 H1498 0.950 . S
C1503 C1505 1.327 . S
C1503 C1509 1.429 1_455 S
C1504 C1496 1.574 . S
C1504 H1499 0.949 . S
C1504 C1510 1.368 . S
C1505 C1489 1.349 . S
C1505 H1497 0.950 . S
C1505 C1503 1.327 . S
C1506 C1494 1.349 . S
C1506 H1500 0.950 . S
C1506 C1507 1.327 . S
C1507 H1501 0.950 . S
C1507 C1506 1.327 . S
C1507 C1511 1.429 . S
C1508 C1491 1.574 . S
C1508 H1502 0.949 . S
C1508 C1512 1.368 . S
C1509 C1490 1.429 . S
C1509 C1503 1.429 1_655 S
C1509 C1510 1.523 . S
C1510 C1491 1.368 . S
C1510 C1504 1.368 . S
C1510 C1509 1.523 . S
C1511 C1495 1.429 . S
C1511 C1507 1.429 . S
C1511 C1512 1.523 . S
C1512 C1496 1.368 . S
C1512 C1508 1.368 . S
C1512 C1511 1.523 . S
H1513 C1488 0.950 . S
H1514 C1490 0.950 . S
H1515 C1491 0.949 . S
H1516 C1493 0.950 . S
H1517 C1495 0.950 . S
C1518 C1519 1.349 . S
C1518 C1520 1.327 . S
C1518 H1543 0.950 . S
C1519 C1518 1.349 . S
C1519 C1535 1.349 . S
C1520 C1518 1.327 . S
C1520 C1539 1.429 . S
C1520 H1544 0.950 . S
C1521 C1538 1.574 . S
C1521 C1540 1.368 . S
C1521 H1545 0.949 . S
H1522 C1526 0.949 . S
C1523 C1524 1.349 . S
C1523 C1525 1.327 . S
C1523 H1546 0.950 . S
C1524 C1523 1.349 . S
C1524 C1536 1.349 . S
C1525 C1523 1.327 . S
C1525 C1541 1.429 . S
C1525 H1547 0.950 . S
C1526 H1522 0.949 . S
C1526 C1534 1.574 . S
C1526 C1542 1.368 . S
H1527 C1535 0.950 . S
H1528 C1533 0.950 . S
H1529 C1534 0.949 . S
H1530 C1536 0.950 . S
H1531 C1537 0.950 . S
H1532 C1538 0.949 . S
C1533 H1528 0.950 . S
C1533 C1535 1.327 . S
C1533 C1539 1.429 . S
C1534 C1526 1.574 . S
C1534 H1529 0.949 . S
C1534 C1540 1.368 . S
C1535 C1519 1.349 . S
C1535 H1527 0.950 . S
C1535 C1533 1.327 . S
C1536 C1524 1.349 . S
C1536 H1530 0.950 . S
C1536 C1537 1.327 . S
C1537 H1531 0.950 . S
C1537 C1536 1.327 . S
C1537 C1541 1.429 . S
C1538 C1521 1.574 . S
C1538 H1532 0.949 . S
C1538 C1542 1.368 . S
C1539 C1520 1.429 . S
C1539 C1533 1.429 . S
C1539 C1540 1.523 . S
C1540 C1521 1.368 . S
C1540 C1534 1.368 . S
C1540 C1539 1.523 . S
C1541 C1525 1.429 . S
C1541 C1537 1.429 . S
C1541 C1542 1.523 . S
C1542 C1526 1.368 . S
C1542 C1538 1.368 . S
C1542 C1541 1.523 . S
H1543 C1518 0.950 . S
H1544 C1520 0.950 . S
H1545 C1521 0.949 . S
H1546 C1523 0.950 . S
H1547 C1525 0.950 . S
C1548 C1549 1.349 . S
C1548 C1550 1.327 . S
C1548 H1573 0.950 . S
C1549 C1548 1.349 . S
C1549 C1565 1.349 . S
C1550 C1548 1.327 . S
C1550 C1569 1.429 . S
C1550 H1574 0.950 . S
C1551 C1568 1.574 . S
C1551 C1570 1.368 . S
C1551 H1575 0.949 . S
H1552 C1556 0.949 . S
C1553 C1554 1.349 . S
C1553 C1555 1.327 . S
C1553 H1576 0.950 . S
C1554 C1553 1.349 . S
C1554 C1566 1.349 . S
C1555 C1553 1.327 . S
C1555 C1571 1.429 . S
C1555 H1577 0.950 . S
C1556 H1552 0.949 . S
C1556 C1564 1.574 . S
C1556 C1572 1.368 . S
H1557 C1565 0.950 . S
H1558 C1563 0.950 . S
H1559 C1564 0.949 . S
H1560 C1566 0.950 . S
H1561 C1567 0.950 . S
H1562 C1568 0.949 . S
C1563 H1558 0.950 . S
C1563 C1565 1.327 . S
C1563 C1569 1.429 . S
C1564 C1556 1.574 . S
C1564 H1559 0.949 . S
C1564 C1570 1.368 . S
C1565 C1549 1.349 . S
C1565 H1557 0.950 . S
C1565 C1563 1.327 . S
C1566 C1554 1.349 . S
C1566 H1560 0.950 . S
C1566 C1567 1.327 . S
C1567 H1561 0.950 . S
C1567 C1566 1.327 . S
C1567 C1571 1.429 . S
C1568 C1551 1.574 . S
C1568 H1562 0.949 . S
C1568 C1572 1.368 . S
C1569 C1550 1.429 . S
C1569 C1563 1.429 . S
C1569 C1570 1.523 . S
C1570 C1551 1.368 . S
C1570 C1564 1.368 . S
C1570 C1569 1.523 . S
C1571 C1555 1.429 . S
C1571 C1567 1.429 . S
C1571 C1572 1.523 . S
C1572 C1556 1.368 . S
C1572 C1568 1.368 . S
C1572 C1571 1.523 . S
H1573 C1548 0.950 . S
H1574 C1550 0.950 . S
H1575 C1551 0.949 . S
H1576 C1553 0.950 . S
H1577 C1555 0.950 . S
C1578 C1579 1.349 . S
C1578 C1580 1.327 . S
C1578 H1603 0.950 . S
C1579 C1578 1.349 . S
C1579 C1595 1.349 . S
C1580 C1578 1.327 . S
C1580 C1599 1.429 . S
C1580 H1604 0.950 . S
C1581 C1598 1.574 . S
C1581 C1600 1.368 . S
C1581 H1605 0.949 . S
H1582 C1586 0.949 . S
C1583 C1584 1.349 . S
C1583 C1585 1.327 . S
C1583 H1606 0.950 . S
C1584 C1583 1.349 . S
C1584 C1596 1.349 . S
C1585 C1583 1.327 . S
C1585 C1601 1.429 . S
C1585 H1607 0.950 . S
C1586 H1582 0.949 . S
C1586 C1594 1.574 . S
C1586 C1602 1.368 . S
H1587 C1595 0.950 . S
H1588 C1593 0.950 . S
H1589 C1594 0.949 . S
H1590 C1596 0.950 . S
H1591 C1597 0.950 . S
H1592 C1598 0.949 . S
C1593 H1588 0.950 . S
C1593 C1595 1.327 . S
C1593 C1599 1.429 . S
C1594 C1586 1.574 . S
C1594 H1589 0.949 . S
C1594 C1600 1.368 . S
C1595 C1579 1.349 . S
C1595 H1587 0.950 . S
C1595 C1593 1.327 . S
C1596 C1584 1.349 . S
C1596 H1590 0.950 . S
C1596 C1597 1.327 . S
C1597 H1591 0.950 . S
C1597 C1596 1.327 . S
C1597 C1601 1.429 . S
C1598 C1581 1.574 . S
C1598 H1592 0.949 . S
C1598 C1602 1.368 . S
C1599 C1580 1.429 . S
C1599 C1593 1.429 . S
C1599 C1600 1.523 . S
C1600 C1581 1.368 . S
C1600 C1594 1.368 . S
C1600 C1599 1.523 . S
C1601 C1585 1.429 . S
C1601 C1597 1.429 . S
C1601 C1602 1.523 . S
C1602 C1586 1.368 . S
C1602 C1598 1.368 . S
C1602 C1601 1.523 . S
H1603 C1578 0.950 . S
H1604 C1580 0.950 . S
H1605 C1581 0.949 . S
H1606 C1583 0.950 . S
H1607 C1585 0.950 . S
C1608 C1609 1.349 . S
C1608 C1610 1.327 . S
C1608 H1633 0.950 . S
C1609 C1608 1.349 . S
C1609 C1625 1.349 . S
C1610 C1608 1.327 . S
C1610 C1629 1.429 . S
C1610 H1634 0.950 . S
C1611 C1628 1.574 . S
C1611 C1630 1.368 . S
C1611 H1635 0.949 . S
H1612 C1616 0.977 . S
C1613 C1614 1.349 . S
C1613 C1615 1.327 1_455 S
C1613 H1636 0.950 . S
C1614 C1613 1.349 . S
C1614 C1626 1.349 . S
C1615 C1613 1.327 1_655 S
C1615 C1631 1.429 . S
C1615 H1637 0.950 . S
C1616 H1612 0.977 . S
C1616 C1624 1.574 . S
C1616 C1632 1.368 . S
H1617 C1625 0.950 . S
H1618 C1623 0.950 . S
H1619 C1624 0.949 . S
H1620 C1626 0.950 . S
H1621 C1627 0.950 . S
H1622 C1628 0.949 . S
C1623 H1618 0.950 . S
C1623 C1625 1.327 . S
C1623 C1629 1.429 . S
C1624 C1616 1.574 . S
C1624 H1619 0.949 . S
C1624 C1630 1.368 . S
C1625 C1609 1.349 . S
C1625 H1617 0.950 . S
C1625 C1623 1.327 . S
C1626 C1614 1.349 . S
C1626 H1620 0.950 . S
C1626 C1627 1.327 . S
C1627 H1621 0.950 . S
C1627 C1626 1.327 . S
C1627 C1631 1.429 1_455 S
C1628 C1611 1.574 . S
C1628 H1622 0.949 . S
C1628 C1632 1.368 . S
C1629 C1610 1.429 . S
C1629 C1623 1.429 . S
C1629 C1630 1.523 . S
C1630 C1611 1.368 . S
C1630 C1624 1.368 . S
C1630 C1629 1.523 . S
C1631 C1615 1.429 . S
C1631 C1627 1.429 1_655 S
C1631 C1632 1.523 . S
C1632 C1616 1.368 . S
C1632 C1628 1.368 . S
C1632 C1631 1.523 . S
H1633 C1608 0.950 . S
H1634 C1610 0.950 . S
H1635 C1611 0.949 . S
H1636 C1613 0.950 . S
H1637 C1615 0.950 . S
C1638 C1639 1.349 . S
C1638 C1640 1.327 . S
C1638 H1663 0.950 . S
C1639 C1638 1.349 . S
C1639 C1655 1.349 . S
C1640 C1638 1.327 . S
C1640 C1659 1.429 . S
C1640 H1664 0.950 . S
C1641 C1658 1.574 . S
C1641 C1660 1.368 . S
C1641 H1665 0.949 . S
H1642 C1646 0.949 . S
C1643 C1644 1.349 . S
C1643 C1645 1.327 . S
C1643 H1666 0.950 . S
C1644 C1643 1.349 . S
C1644 C1656 1.349 . S
C1645 C1643 1.327 . S
C1645 C1661 1.429 . S
C1645 H1667 0.950 . S
C1646 H1642 0.949 . S
C1646 C1654 1.574 . S
C1646 C1662 1.368 . S
H1647 C1655 0.950 . S
H1648 C1653 0.950 . S
H1649 C1654 0.949 . S
H1650 C1656 0.950 . S
H1651 C1657 0.950 . S
H1652 C1658 0.949 . S
C1653 H1648 0.950 . S
C1653 C1655 1.327 . S
C1653 C1659 1.429 . S
C1654 C1646 1.574 . S
C1654 H1649 0.949 . S
C1654 C1660 1.368 . S
C1655 C1639 1.349 . S
C1655 H1647 0.950 . S
C1655 C1653 1.327 . S
C1656 C1644 1.349 . S
C1656 H1650 0.950 . S
C1656 C1657 1.327 . S
C1657 H1651 0.950 . S
C1657 C1656 1.327 . S
C1657 C1661 1.429 . S
C1658 C1641 1.574 . S
C1658 H1652 0.949 . S
C1658 C1662 1.368 . S
C1659 C1640 1.429 . S
C1659 C1653 1.429 . S
C1659 C1660 1.523 . S
C1660 C1641 1.368 . S
C1660 C1654 1.368 . S
C1660 C1659 1.523 . S
C1661 C1645 1.429 . S
C1661 C1657 1.429 . S
C1661 C1662 1.523 . S
C1662 C1646 1.368 . S
C1662 C1658 1.368 . S
C1662 C1661 1.523 . S
H1663 C1638 0.950 . S
H1664 C1640 0.950 . S
H1665 C1641 0.949 . S
H1666 C1643 0.950 . S
H1667 C1645 0.950 . S
C1668 C1669 1.349 . S
C1668 C1670 1.327 . S
C1668 H1693 0.950 . S
C1669 C1668 1.349 . S
C1669 C1685 1.349 . S
C1670 C1668 1.327 . S
C1670 C1689 1.429 . S
C1670 H1694 0.950 . S
C1671 C1688 1.574 . S
C1671 C1690 1.368 . S
C1671 H1695 0.949 . S
H1672 C1676 0.949 . S
C1673 C1674 1.349 . S
C1673 C1675 1.327 . S
C1673 H1696 0.950 . S
C1674 C1673 1.349 . S
C1674 C1686 1.349 . S
C1675 C1673 1.327 . S
C1675 C1691 1.429 . S
C1675 H1697 0.950 . S
C1676 H1672 0.949 . S
C1676 C1684 1.574 . S
C1676 C1692 1.368 . S
H1677 C1685 0.950 . S
H1678 C1683 0.950 . S
H1679 C1684 0.949 . S
H1680 C1686 0.950 . S
H1681 C1687 0.950 . S
H1682 C1688 0.949 . S
C1683 H1678 0.950 . S
C1683 C1685 1.327 . S
C1683 C1689 1.429 . S
C1684 C1676 1.574 . S
C1684 H1679 0.949 . S
C1684 C1690 1.368 . S
C1685 C1669 1.349 . S
C1685 H1677 0.950 . S
C1685 C1683 1.327 . S
C1686 C1674 1.349 . S
C1686 H1680 0.950 . S
C1686 C1687 1.327 . S
C1687 H1681 0.950 . S
C1687 C1686 1.327 . S
C1687 C1691 1.429 . S
C1688 C1671 1.574 . S
C1688 H1682 0.949 . S
C1688 C1692 1.368 . S
C1689 C1670 1.429 . S
C1689 C1683 1.429 . S
C1689 C1690 1.523 . S
C1690 C1671 1.368 . S
C1690 C1684 1.368 . S
C1690 C1689 1.523 . S
C1691 C1675 1.429 . S
C1691 C1687 1.429 . S
C1691 C1692 1.523 . S
C1692 C1676 1.368 . S
C1692 C1688 1.368 . S
C1692 C1691 1.523 . S
H1693 C1668 0.950 . S
H1694 C1670 0.950 . S
H1695 C1671 0.949 . S
H1696 C1673 0.950 . S
H1697 C1675 0.950 . S
C1698 C1699 1.349 . S
C1698 C1700 1.327 . S
C1698 H1723 0.950 . S
C1699 C1698 1.349 . S
C1699 C1715 1.349 . S
C1700 C1698 1.327 . S
C1700 C1719 1.429 . S
C1700 H1724 0.950 . S
C1701 C1718 1.574 . S
C1701 C1720 1.368 . S
C1701 H1725 0.949 . S
H1702 C1706 0.949 . S
C1703 C1704 1.349 . S
C1703 C1705 1.327 . S
C1703 H1726 0.950 . S
C1704 C1703 1.349 . S
C1704 C1716 1.349 . S
C1705 C1703 1.327 . S
C1705 C1721 1.429 . S
C1705 H1727 0.950 . S
C1706 H1702 0.949 . S
C1706 C1714 1.574 . S
C1706 C1722 1.368 . S
H1707 C1715 0.950 . S
H1708 C1713 0.950 . S
H1709 C1714 0.949 . S
H1710 C1716 0.950 . S
H1711 C1717 0.950 . S
H1712 C1718 0.949 . S
C1713 H1708 0.950 . S
C1713 C1715 1.327 . S
C1713 C1719 1.429 . S
C1714 C1706 1.574 . S
C1714 H1709 0.949 . S
C1714 C1720 1.368 . S
C1715 C1699 1.349 . S
C1715 H1707 0.950 . S
C1715 C1713 1.327 . S
C1716 C1704 1.349 . S
C1716 H1710 0.950 . S
C1716 C1717 1.327 . S
C1717 H1711 0.950 . S
C1717 C1716 1.327 . S
C1717 C1721 1.429 . S
C1718 C1701 1.574 . S
C1718 H1712 0.949 . S
C1718 C1722 1.368 . S
C1719 C1700 1.429 . S
C1719 C1713 1.429 . S
C1719 C1720 1.523 . S
C1720 C1701 1.368 . S
C1720 C1714 1.368 . S
C1720 C1719 1.523 . S
C1721 C1705 1.429 . S
C1721 C1717 1.429 . S
C1721 C1722 1.523 . S
C1722 C1706 1.368 . S
C1722 C1718 1.368 . S
C1722 C1721 1.523 . S
H1723 C1698 0.950 . S
H1724 C1700 0.950 . S
H1725 C1701 0.949 . S
H1726 C1703 0.950 . S
H1727 C1705 0.950 . S
C529 N5 1.439 . S
C534 N14 1.431 . S
C559 N38 1.439 . S
C564 N47 1.431 . S
C589 N71 1.439 . S
C594 N80 1.431 . S
C619 N104 1.439 . S
C624 N113 1.431 . S
C649 N137 1.439 . S
C654 N146 1.431 . S
C679 N170 1.439 . S
C684 N179 1.431 . S
C709 N203 1.439 . S
C714 N212 1.431 . S
C739 N245 1.431 . S
C744 N236 1.439 . S
C769 N278 1.431 . S
C774 N269 1.439 . S
C799 N302 1.439 . S
C804 N311 1.431 . S
C829 N335 1.439 . S
C834 N344 1.431 . S
C859 N377 1.431 . S
C864 N368 1.439 . S
C889 N410 1.431 . S
C894 N401 1.439 . S
C919 N434 1.439 . S
C924 N443 1.431 . S
C949 N476 1.431 . S
C954 N467 1.439 . S
C979 N500 1.439 . S
C984 N509 1.431 . S
C1009 C28 0.859 . S
C1014 C160 0.859 . S
C1039 C193 0.860 . S
C1044 C61 0.860 . S
C1069 C226 0.859 . S
C1074 C94 0.859 . S
C1099 C127 0.860 . S
C1104 C259 0.860 . S
C1129 C358 0.860 . S
C1134 C292 0.860 . S
C1159 C325 0.860 . S
C1164 C391 0.860 . S
C1189 C424 0.859 . S
C1194 C490 0.859 . S
C1219 C457 0.859 . S
C1224 C523 0.859 . S
C1249 C305 1.344 . S
C1254 C8 1.344 . S
C1279 C470 1.344 . S
C1284 C41 1.344 . S
C1309 C74 1.344 . S
C1314 C272 1.344 . S
C1339 C503 1.344 . S
C1344 C107 1.344 . S
C1369 C338 1.344 . S
C1374 C140 1.344 . S
C1399 C437 1.344 . S
C1404 C173 1.344 . S
C1429 C206 1.344 . S
C1434 C371 1.344 . S
C1459 C239 1.344 . S
C1464 C404 1.344 . S
C1489 C149 1.483 . S
C1494 C116 1.483 . S
C1519 C413 1.483 . S
C1524 C281 1.483 . S
C1549 C50 1.483 . S
C1554 C215 1.483 . S
C1579 C446 1.483 . S
C1584 C314 1.483 . S
C1609 C182 1.483 . S
C1614 C17 1.483 . S
C1639 C347 1.483 . S
C1644 C512 1.483 . S
C1669 C248 1.483 . S
C1674 C83 1.483 . S
C1699 C479 1.483 . S
C1704 C380 1.483 . S
