# Generated by pormake.
# Topology ukk, (4)-cn, num edge types: 1
# Building blocks:
#     Node 0, Type 0, BuildingBlock: ESEHIV_clean_sbu_0, # of connection points: 4
#     Node 1, Type 0, BuildingBlock: ESEHIV_clean_sbu_0, # of connection points: 4
#     Node 2, Type 0, BuildingBlock: ESEHIV_clean_sbu_0, # of connection points: 4
#     Node 3, Type 0, BuildingBlock: ESEHIV_clean_sbu_0, # of connection points: 4
#     Node 4, Type 0, BuildingBlock: ESEHIV_clean_sbu_0, # of connection points: 4
#     Node 5, Type 0, BuildingBlock: ESEHIV_clean_sbu_0, # of connection points: 4
#     Node 6, Type 0, BuildingBlock: ESEHIV_clean_sbu_0, # of connection points: 4
#     Node 7, Type 0, BuildingBlock: ESEHIV_clean_sbu_0, # of connection points: 4
#     Node 8, Type 0, BuildingBlock: ESEHIV_clean_sbu_0, # of connection points: 4
#     Node 9, Type 0, BuildingBlock: ESEHIV_clean_sbu_0, # of connection points: 4
#     Node 10, Type 0, BuildingBlock: ESEHIV_clean_sbu_0, # of connection points: 4
#     Node 11, Type 0, BuildingBlock: ESEHIV_clean_sbu_0, # of connection points: 4
#     Node 12, Type 0, BuildingBlock: ESEHIV_clean_sbu_0, # of connection points: 4
#     Node 13, Type 0, BuildingBlock: ESEHIV_clean_sbu_0, # of connection points: 4
#     Node 14, Type 0, BuildingBlock: ESEHIV_clean_sbu_0, # of connection points: 4
#     Node 15, Type 0, BuildingBlock: ESEHIV_clean_sbu_0, # of connection points: 4
#     Edge 16, Type (0, 0), BuildingBlock: KIFKEQ_clean_linker_1, # of connection points: 2
#     Edge 17, Type (0, 0), BuildingBlock: KIFKEQ_clean_linker_1, # of connection points: 2
#     Edge 18, Type (0, 0), BuildingBlock: KIFKEQ_clean_linker_1, # of connection points: 2
#     Edge 19, Type (0, 0), BuildingBlock: KIFKEQ_clean_linker_1, # of connection points: 2
#     Edge 20, Type (0, 0), BuildingBlock: KIFKEQ_clean_linker_1, # of connection points: 2
#     Edge 21, Type (0, 0), BuildingBlock: KIFKEQ_clean_linker_1, # of connection points: 2
#     Edge 22, Type (0, 0), BuildingBlock: KIFKEQ_clean_linker_1, # of connection points: 2
#     Edge 23, Type (0, 0), BuildingBlock: KIFKEQ_clean_linker_1, # of connection points: 2
#     Edge 24, Type (0, 0), BuildingBlock: KIFKEQ_clean_linker_1, # of connection points: 2
#     Edge 25, Type (0, 0), BuildingBlock: KIFKEQ_clean_linker_1, # of connection points: 2
#     Edge 26, Type (0, 0), BuildingBlock: KIFKEQ_clean_linker_1, # of connection points: 2
#     Edge 27, Type (0, 0), BuildingBlock: KIFKEQ_clean_linker_1, # of connection points: 2
#     Edge 28, Type (0, 0), BuildingBlock: KIFKEQ_clean_linker_1, # of connection points: 2
#     Edge 29, Type (0, 0), BuildingBlock: KIFKEQ_clean_linker_1, # of connection points: 2
#     Edge 30, Type (0, 0), BuildingBlock: KIFKEQ_clean_linker_1, # of connection points: 2
#     Edge 31, Type (0, 0), BuildingBlock: KIFKEQ_clean_linker_1, # of connection points: 2
#     Edge 32, Type (0, 0), BuildingBlock: KIFKEQ_clean_linker_1, # of connection points: 2
#     Edge 33, Type (0, 0), BuildingBlock: KIFKEQ_clean_linker_1, # of connection points: 2
#     Edge 34, Type (0, 0), BuildingBlock: KIFKEQ_clean_linker_1, # of connection points: 2
#     Edge 35, Type (0, 0), BuildingBlock: KIFKEQ_clean_linker_1, # of connection points: 2
#     Edge 36, Type (0, 0), BuildingBlock: KIFKEQ_clean_linker_1, # of connection points: 2
#     Edge 37, Type (0, 0), BuildingBlock: KIFKEQ_clean_linker_1, # of connection points: 2
#     Edge 38, Type (0, 0), BuildingBlock: KIFKEQ_clean_linker_1, # of connection points: 2
#     Edge 39, Type (0, 0), BuildingBlock: KIFKEQ_clean_linker_1, # of connection points: 2
#     Edge 40, Type (0, 0), BuildingBlock: KIFKEQ_clean_linker_1, # of connection points: 2
#     Edge 41, Type (0, 0), BuildingBlock: KIFKEQ_clean_linker_1, # of connection points: 2
#     Edge 42, Type (0, 0), BuildingBlock: KIFKEQ_clean_linker_1, # of connection points: 2
#     Edge 43, Type (0, 0), BuildingBlock: KIFKEQ_clean_linker_1, # of connection points: 2
#     Edge 44, Type (0, 0), BuildingBlock: KIFKEQ_clean_linker_1, # of connection points: 2
#     Edge 45, Type (0, 0), BuildingBlock: KIFKEQ_clean_linker_1, # of connection points: 2
#     Edge 46, Type (0, 0), BuildingBlock: KIFKEQ_clean_linker_1, # of connection points: 2
#     Edge 47, Type (0, 0), BuildingBlock: KIFKEQ_clean_linker_1, # of connection points: 2
# Relax obj value: 0.042
# Max RMSD: 0.118
# Mean RMSD: 0.118
data_MOF--net-ukk--node1-ESEHIV_clean_sbu_0--edge1-KIFKEQ_clean_linker_1
_symmetry_space_group_name_H-M    P1
_symmetry_Int_Tables_number       1
_symmetry_cell_setting            triclinic
loop_
_symmetry_equiv_pos_as_xyz
'x, y, z'
_cell_length_a     57.421631
_cell_length_b     57.646914
_cell_length_c     23.069735
_cell_angle_alpha  89.753785
_cell_angle_beta   89.824544
_cell_angle_gamma 89.883232
loop_
_atom_site_label
_atom_site_type_symbol
_atom_site_fract_x
_atom_site_fract_y
_atom_site_fract_z
_atom_type_partial_charge
Cu0 Cu 0.38408 0.1455 0.1472 0.0
N1 N 0.39525 0.14418 0.22307 0.0
N2 N 0.42647 0.14533 0.28114 0.0
C3 C 0.415 0.15544 0.23682 0.0
C4 C 0.41318 0.12699 0.29665 0.0
C5 C 0.39397 0.12629 0.26059 0.0
O6 O 0.40018 0.11905 0.11347 0.0
C7 C 0.38404 0.19208 0.15164 0.0
O8 O 0.36952 0.18593 0.19306 0.0
H9 H 0.42257 0.1687 0.20931 0.0
H10 H 0.38172 0.11213 0.25719 0.0
N11 N 0.3516 0.14304 0.13877 0.0
N12 N 0.31692 0.14222 0.09427 0.0
C13 C 0.34028 0.14351 0.08759 0.0
C14 C 0.33484 0.14156 0.17947 0.0
C15 C 0.31342 0.14108 0.15216 0.0
C16 C 0.38986 0.09951 0.11152 0.0
O17 O 0.36704 0.09918 0.10871 0.0
H18 H 0.3491 0.14497 0.04621 0.0
H19 H 0.33797 0.14097 0.22567 0.0
O20 O 0.39298 0.17622 0.12017 0.0
H21 H 0.41798 0.1139 0.3282 0.0
H22 H 0.29663 0.13962 0.17329 0.0
Cu23 Cu 0.15552 0.64775 0.92494 0.0
N24 N 0.1603 0.6159 0.93731 0.0
N25 N 0.16372 0.57789 0.9194 0.0
C26 C 0.15228 0.59776 0.90639 0.0
C27 C 0.17921 0.58367 0.96071 0.0
C28 C 0.17701 0.60704 0.97172 0.0
O29 O 0.13152 0.65354 0.8672 0.0
C30 C 0.20056 0.65174 0.87358 0.0
O31 O 0.19493 0.63306 0.84447 0.0
H32 H 0.13948 0.59929 0.87232 0.0
H33 H 0.18789 0.61723 1.00006 0.0
N34 N 0.14601 0.66242 0.99309 0.0
N35 N 0.14104 0.69081 0.05791 0.0
C36 C 0.15222 0.68397 1.00927 0.0
C37 C 0.13041 0.65526 0.03287 0.0
C38 C 0.12727 0.67276 0.07291 0.0
C39 C 0.13048 0.64482 0.81669 0.0
O40 O 0.14745 0.63147 0.79807 0.0
H41 H 0.16402 0.69477 0.9844 0.0
H42 H 0.12154 0.63873 0.03197 0.0
O43 O 0.18546 0.66134 0.90602 0.0
H44 H 0.19188 0.57203 0.97982 0.0
H45 H 0.11561 0.6723 0.10984 0.0
Cu46 Cu 0.68571 0.89573 0.1404 0.0
N47 N 0.67031 0.88762 0.20867 0.0
N48 N 0.63823 0.8819 0.26208 0.0
C49 C 0.64822 0.89422 0.21894 0.0
C50 C 0.65485 0.86691 0.2801 0.0
C51 C 0.67467 0.87048 0.24693 0.0
O52 O 0.66956 0.92391 0.11603 0.0
C53 C 0.69766 0.85247 0.09923 0.0
O54 O 0.71433 0.85589 0.137 0.0
H55 H 0.63891 0.9063 0.19138 0.0
H56 H 0.69041 0.86015 0.24769 0.0
N57 N 0.71735 0.90223 0.15141 0.0
N58 N 0.75497 0.90708 0.12858 0.0
C59 C 0.73335 0.90261 0.10867 0.0
C60 C 0.72911 0.9066 0.20043 0.0
C61 C 0.75234 0.90965 0.18649 0.0
C62 C 0.68 0.94288 0.10474 0.0
O63 O 0.70215 0.94233 0.09061 0.0
H64 H 0.72897 0.89986 0.06366 0.0
H65 H 0.72139 0.90728 0.24322 0.0
O66 O 0.68273 0.86854 0.09065 0.0
H67 H 0.65249 0.85357 0.31273 0.0
H68 H 0.76619 0.91311 0.2169 0.0
Cu69 Cu 0.90214 0.41796 0.92946 0.0
N70 N 0.89748 0.44992 0.93972 0.0
N71 N 0.89497 0.48797 0.9202 0.0
C72 C 0.90406 0.46732 0.90385 0.0
C73 C 0.88232 0.48336 0.96825 0.0
C74 C 0.88392 0.45994 0.98019 0.0
O75 O 0.92644 0.41481 0.87023 0.0
C76 C 0.85611 0.40117 0.94284 0.0
O77 O 0.86099 0.40312 0.99817 0.0
H78 H 0.91434 0.46471 0.86499 0.0
H79 H 0.87515 0.4507 1.01479 0.0
N80 N 0.91197 0.4043 0.99977 0.0
N81 N 0.91661 0.37997 0.0753 0.0
C82 C 0.90799 0.38273 0.02102 0.0
C83 C 0.9238 0.41534 0.04156 0.0
C84 C 0.92667 0.40049 0.08794 0.0
C85 C 0.93906 0.39686 0.86275 0.0
O86 O 0.93496 0.37821 0.89404 0.0
H87 H 0.89824 0.36965 0.99796 0.0
H88 H 0.92961 0.43315 0.03878 0.0
O89 O 0.87187 0.40571 0.90535 0.0
H90 H 0.87232 0.49597 0.99255 0.0
H91 H 0.9355 0.40459 0.12797 0.0
Cu92 Cu 0.38981 0.40969 0.10815 0.0
N93 N 0.40378 0.41188 0.03466 0.0
N94 N 0.43507 0.41191 0.97626 0.0
C95 C 0.42698 0.4149 0.03062 0.0
C96 C 0.41608 0.40691 0.94429 0.0
C97 C 0.39673 0.407 0.9804 0.0
O98 O 0.40351 0.43637 0.14681 0.0
C99 C 0.39245 0.36319 0.10185 0.0
O100 O 0.37956 0.36895 0.05711 0.0
H101 H 0.43798 0.41755 0.06803 0.0
H102 H 0.37918 0.40239 0.96841 0.0
N103 N 0.35696 0.41063 0.11199 0.0
N104 N 0.32137 0.40976 0.15255 0.0
C105 C 0.34458 0.41025 0.16191 0.0
C106 C 0.34096 0.41019 0.06947 0.0
C107 C 0.31901 0.4096 0.09436 0.0
C108 C 0.39211 0.45527 0.15142 0.0
O109 O 0.36928 0.45459 0.15012 0.0
H110 H 0.35253 0.41011 0.2044 0.0
H111 H 0.34489 0.41012 0.02365 0.0
O112 O 0.39916 0.37917 0.13601 0.0
H113 H 0.41625 0.4027 0.89861 0.0
H114 H 0.3026 0.40937 0.07141 0.0
Cu115 Cu 0.41942 0.66679 0.90136 0.0
N116 N 0.42236 0.63446 0.89744 0.0
N117 N 0.42508 0.59764 0.92813 0.0
C118 C 0.42818 0.6202 0.94153 0.0
C119 C 0.41742 0.59773 0.87282 0.0
C120 C 0.41569 0.62045 0.85412 0.0
O121 O 0.43914 0.67776 0.96369 0.0
C122 C 0.37214 0.66255 0.9376 0.0
O123 O 0.37966 0.645 0.96887 0.0
H124 H 0.43378 0.62624 0.98342 0.0
H125 H 0.40886 0.62639 0.813 0.0
N126 N 0.43 0.68088 0.83339 0.0
N127 N 0.43648 0.70876 0.76755 0.0
C128 C 0.42611 0.70313 0.81836 0.0
C129 C 0.44329 0.67199 0.79084 0.0
C130 C 0.44728 0.68913 0.75005 0.0
C131 C 0.43642 0.67276 0.01702 0.0
O132 O 0.41739 0.66212 0.03407 0.0
H133 H 0.41573 0.71487 0.84428 0.0
H134 H 0.44983 0.65438 0.7899 0.0
O135 O 0.38663 0.67468 0.90875 0.0
H136 H 0.41202 0.58259 0.8488 0.0
H137 H 0.45773 0.68735 0.71121 0.0
Cu138 Cu 0.66088 0.64029 0.15821 0.0
N139 N 0.63126 0.64578 0.1887 0.0
N140 N 0.59317 0.65331 0.193 0.0
C141 C 0.61078 0.64479 0.16054 0.0
C142 C 0.60286 0.65984 0.24348 0.0
C143 C 0.62637 0.65506 0.2408 0.0
O144 O 0.65961 0.61475 0.1035 0.0
C145 C 0.67474 0.68639 0.15355 0.0
O146 O 0.67314 0.68398 0.21005 0.0
H147 H 0.60902 0.63915 0.11609 0.0
H148 H 0.63919 0.65898 0.27358 0.0
N149 N 0.68092 0.6318 0.21872 0.0
N150 N 0.71113 0.62926 0.27955 0.0
C151 C 0.70214 0.64016 0.23261 0.0
C152 C 0.67646 0.61509 0.25803 0.0
C153 C 0.69502 0.61344 0.29547 0.0
C154 C 0.65202 0.61656 0.05189 0.0
O155 O 0.64482 0.63686 0.03293 0.0
H156 H 0.71092 0.6537 0.20841 0.0
H157 H 0.66071 0.60484 0.25931 0.0
O158 O 0.67077 0.66901 0.12131 0.0
H159 H 0.59369 0.66793 0.27915 0.0
H160 H 0.6964 0.60172 0.33208 0.0
Cu161 Cu 0.6445 0.40288 0.79803 0.0
N162 N 0.64705 0.43482 0.78347 0.0
N163 N 0.64774 0.47279 0.80404 0.0
C164 C 0.6385 0.45186 0.81731 0.0
C165 C 0.66223 0.46875 0.75892 0.0
C166 C 0.66185 0.44535 0.74658 0.0
O167 O 0.61403 0.39722 0.83316 0.0
C168 C 0.68373 0.40746 0.87212 0.0
O169 O 0.67439 0.42765 0.88438 0.0
H170 H 0.62698 0.44863 0.85355 0.0
H171 H 0.67291 0.43641 0.71589 0.0
N172 N 0.64484 0.38628 0.72855 0.0
N173 N 0.64517 0.35618 0.66741 0.0
C174 C 0.64689 0.36308 0.72322 0.0
C175 C 0.64173 0.39441 0.67441 0.0
C176 C 0.64196 0.37593 0.63663 0.0
C177 C 0.60718 0.40256 0.88392 0.0
O178 O 0.62224 0.41075 0.92134 0.0
H179 H 0.64889 0.35148 0.75987 0.0
H180 H 0.6391 0.41246 0.66325 0.0
O181 O 0.67224 0.39314 0.84144 0.0
H182 H 0.67371 0.4814 0.7392 0.0
H183 H 0.6399 0.37702 0.59009 0.0
Cu184 Cu 0.90911 0.66868 0.60731 0.0
N185 N 0.9411 0.66779 0.59097 0.0
N186 N 0.97974 0.66565 0.60222 0.0
C187 C 0.95875 0.6582 0.62137 0.0
C188 C 0.97513 0.68016 0.55772 0.0
C189 C 0.95137 0.68146 0.55099 0.0
O190 O 0.90108 0.64447 0.66379 0.0
C191 C 0.88545 0.71255 0.63732 0.0
O192 O 0.86515 0.70242 0.6314 0.0
H193 H 0.95635 0.64726 0.65905 0.0
H194 H 0.94211 0.69265 0.52117 0.0
N195 N 0.89311 0.66248 0.53823 0.0
N196 N 0.86517 0.65502 0.47341 0.0
C197 C 0.86997 0.6624 0.52771 0.0
C198 C 0.90313 0.65492 0.48897 0.0
C199 C 0.88603 0.65035 0.44905 0.0
C200 C 0.91034 0.64199 0.71356 0.0
O201 O 0.92479 0.65788 0.73244 0.0
H202 H 0.85689 0.66671 0.55979 0.0
H203 H 0.92162 0.65229 0.48291 0.0
O204 O 0.90409 0.70073 0.63186 0.0
H205 H 0.98797 0.68992 0.53339 0.0
H206 H 0.88873 0.64389 0.40556 0.0
Cu207 Cu 0.64103 0.15004 0.3749 0.0
N208 N 0.64041 0.11767 0.37873 0.0
N209 N 0.64167 0.08146 0.34406 0.0
C210 C 0.64025 0.10429 0.33112 0.0
C211 C 0.64258 0.08053 0.4026 0.0
C212 C 0.64183 0.1029 0.42387 0.0
O213 O 0.61238 0.15789 0.33323 0.0
C214 C 0.68829 0.14824 0.36102 0.0
O215 O 0.68486 0.13531 0.40727 0.0
H216 H 0.63946 0.1114 0.2877 0.0
H217 H 0.64312 0.108 0.46878 0.0
N218 N 0.6406 0.16419 0.4479 0.0
N219 N 0.64219 0.19329 0.512 0.0
C220 C 0.64846 0.18576 0.4587 0.0
C221 C 0.62917 0.15763 0.49619 0.0
C222 C 0.63022 0.17546 0.53587 0.0
C223 C 0.59748 0.17268 0.35114 0.0
O224 O 0.60331 0.18711 0.39245 0.0
H225 H 0.65754 0.1961 0.42662 0.0
H226 H 0.61946 0.14168 0.50086 0.0
O227 O 0.67066 0.15791 0.33733 0.0
H228 H 0.64459 0.06492 0.42831 0.0
H229 H 0.62148 0.17579 0.57748 0.0
Cu230 Cu 0.15194 0.40486 0.58536 0.0
N231 N 0.11932 0.40233 0.57902 0.0
N232 N 0.08151 0.39994 0.60357 0.0
C233 C 0.10288 0.40763 0.61894 0.0
C234 C 0.08463 0.38978 0.55149 0.0
C235 C 0.10787 0.39129 0.53655 0.0
O236 O 0.15946 0.42889 0.64194 0.0
C237 C 0.15348 0.36012 0.63688 0.0
O238 O 0.13423 0.36713 0.66225 0.0
H239 H 0.10664 0.41576 0.65991 0.0
H240 H 0.11606 0.38393 0.49854 0.0
N241 N 0.16478 0.41446 0.51412 0.0
N242 N 0.18938 0.41948 0.43935 0.0
C243 C 0.18379 0.40624 0.48602 0.0
C244 C 0.15812 0.43334 0.48395 0.0
C245 C 0.17322 0.4365 0.43804 0.0
C246 C 0.15391 0.4286 0.69545 0.0
O247 O 0.14393 0.4101 0.71763 0.0
H248 H 0.1939 0.39152 0.50092 0.0
H249 H 0.14368 0.44446 0.4957 0.0
O250 O 0.16454 0.37422 0.60427 0.0
H251 H 0.07121 0.38132 0.52649 0.0
H252 H 0.17254 0.45044 0.40648 0.0
Cu253 Cu 0.43069 0.89974 0.41465 0.0
N254 N 0.43494 0.93185 0.40829 0.0
N255 N 0.43528 0.96702 0.36671 0.0
C256 C 0.42653 0.94529 0.36523 0.0
C257 C 0.44956 0.9673 0.41313 0.0
C258 C 0.44944 0.94554 0.43841 0.0
O259 O 0.45656 0.88484 0.37496 0.0
C260 C 0.38317 0.90173 0.41448 0.0
O261 O 0.38849 0.9158 0.45709 0.0
H262 H 0.41483 0.93891 0.33227 0.0
H263 H 0.46003 0.93981 0.47442 0.0
N264 N 0.43215 0.88909 0.49103 0.0
N265 N 0.43306 0.86321 0.56351 0.0
C266 C 0.4323 0.86647 0.50558 0.0
C267 C 0.43281 0.90071 0.54145 0.0
C268 C 0.43346 0.88476 0.58633 0.0
C269 C 0.46566 0.89286 0.32872 0.0
O270 O 0.45485 0.90944 0.30028 0.0
H271 H 0.43205 0.85269 0.4739 0.0
H272 H 0.43255 0.91939 0.54538 0.0
O273 O 0.39972 0.89213 0.38642 0.0
H274 H 0.46024 0.9818 0.42618 0.0
H275 H 0.43376 0.88873 0.63213 0.0
Cu276 Cu 0.93043 0.92577 0.72277 0.0
N277 N 0.96305 0.92444 0.72493 0.0
N278 N 1.00018 0.92037 0.69696 0.0
C279 C 0.9785 0.927 0.68111 0.0
C280 C 0.99832 0.91347 0.75266 0.0
C281 C 0.97547 0.91599 0.76972 0.0
O282 O 0.91985 0.95371 0.68183 0.0
C283 C 0.90069 0.88737 0.68317 0.0
O284 O 0.88242 0.90108 0.68571 0.0
H285 H 0.97378 0.93213 0.63756 0.0
H286 H 0.96815 0.91082 0.81104 0.0
N287 N 0.91961 0.92909 0.79882 0.0
N288 N 0.89667 0.92879 0.87739 0.0
C289 C 0.9 0.92057 0.82314 0.0
C290 C 0.92897 0.94307 0.83901 0.0
C291 C 0.91493 0.94289 0.88747 0.0
C292 C 0.92344 0.95985 0.62946 0.0
O293 O 0.9339 0.94543 0.5939 0.0
H294 H 0.88792 0.90941 0.80071 0.0
H295 H 0.94463 0.95319 0.83278 0.0
O296 O 0.92086 0.89547 0.69366 0.0
H297 H 1.01236 0.90642 0.77858 0.0
H298 H 0.9178 0.95263 0.9268 0.0
Cu299 Cu 0.9031 0.17286 0.37611 0.0
N300 N 0.89878 0.15795 0.44767 0.0
N301 N 0.89857 0.1271 0.50742 0.0
C302 C 0.90589 0.13591 0.45625 0.0
C303 C 0.88619 0.14442 0.53222 0.0
C304 C 0.88635 0.16346 0.49521 0.0
O305 O 0.9326 0.15898 0.35088 0.0
C306 C 0.85724 0.17877 0.34543 0.0
O307 O 0.85991 0.19489 0.3849 0.0
H308 H 0.91519 0.12606 0.42373 0.0
H309 H 0.87732 0.17975 0.50154 0.0
N310 N 0.90648 0.20535 0.37915 0.0
N311 N 0.90927 0.24199 0.34637 0.0
C312 C 0.9043 0.21972 0.33307 0.0
C313 C 0.91288 0.21897 0.42348 0.0
C314 C 0.91464 0.24155 0.40342 0.0
C315 C 0.95126 0.17087 0.3467 0.0
O316 O 0.94968 0.19321 0.33625 0.0
H317 H 0.90001 0.21369 0.29006 0.0
H318 H 0.91647 0.21284 0.46693 0.0
O319 O 0.87479 0.16622 0.33183 0.0
H320 H 0.8773 0.14332 0.57357 0.0
H321 H 0.9196 0.25643 0.42896 0.0
Cu322 Cu 0.15622 0.141 0.64309 0.0
N323 N 0.12409 0.13484 0.63939 0.0
N324 N 0.08829 0.13385 0.60062 0.0
C325 C 0.10938 0.14424 0.60024 0.0
C326 C 0.0896 0.11764 0.64292 0.0
C327 C 0.11167 0.11824 0.66656 0.0
O328 O 0.17031 0.1228 0.58105 0.0
C329 C 0.1779 0.18648 0.63123 0.0
O330 O 0.19829 0.1761 0.63101 0.0
H331 H 0.11433 0.15803 0.57079 0.0
H332 H 0.11841 0.10664 0.69937 0.0
N333 N 0.16932 0.13033 0.71306 0.0
N334 N 0.19326 0.12578 0.78909 0.0
C335 C 0.18483 0.1407 0.74863 0.0
C336 C 0.16797 0.10826 0.73192 0.0
C337 C 0.18252 0.10543 0.77866 0.0
C338 C 0.16274 0.12325 0.52924 0.0
O339 O 0.14793 0.13951 0.51392 0.0
H340 H 0.19084 0.15834 0.74293 0.0
H341 H 0.15803 0.09477 0.71107 0.0
O342 O 0.15941 0.17442 0.63473 0.0
H343 H 0.07604 0.10536 0.65395 0.0
H344 H 0.18548 0.0894 0.80213 0.0
Cu345 Cu 0.16567 0.90136 0.33805 0.0
N346 N 0.16822 0.93248 0.31445 0.0
N347 N 0.17063 0.97114 0.32073 0.0
C348 C 0.1618 0.95155 0.34431 0.0
C349 C 0.18276 0.96423 0.27373 0.0
C350 C 0.18114 0.94043 0.26983 0.0
O351 O 0.14248 0.89888 0.39961 0.0
C352 C 0.2121 0.8876 0.3237 0.0
O353 O 0.20595 0.88811 0.26891 0.0
H354 H 0.1521 0.95106 0.38449 0.0
H355 H 0.18985 0.92958 0.23836 0.0
N356 N 0.1556 0.88287 0.2765 0.0
N357 N 0.14787 0.85185 0.2218 0.0
C358 C 0.15852 0.8598 0.27 0.0
C359 C 0.14272 0.88976 0.23098 0.0
C360 C 0.13791 0.87069 0.19721 0.0
C361 C 0.14389 0.90903 0.44835 0.0
O362 O 0.1628 0.92071 0.46111 0.0
H363 H 0.16783 0.84901 0.30071 0.0
H364 H 0.13702 0.9074 0.22329 0.0
O365 O 0.19673 0.8917 0.36236 0.0
H366 H 0.19273 0.9755 0.24543 0.0
H367 H 0.12794 0.87074 0.15746 0.0
H368 H 0.43845 1.01338 0.38474 0.0
H369 H 0.42428 0.96244 0.2529 0.0
H370 H 0.43139 0.04438 0.31469 0.0
H371 H 0.4174 0.99335 0.18273 0.0
H372 H 0.43122 0.09671 0.17082 0.0
H373 H 0.44517 0.06377 0.22786 0.0
H374 H 0.38828 1.02221 0.16402 0.0
H375 H 0.3747 0.05487 0.10627 0.0
C376 C 0.4341 1.00878 0.34066 0.0
C377 C 0.43168 0.98539 0.32478 0.0
C378 C 0.43016 1.02656 0.3003 0.0
C379 C 0.42379 1.02142 0.24289 0.0
C380 C 0.42191 0.998 0.22672 0.0
C381 C 0.42577 0.98024 0.26711 0.0
C382 C 0.42214 0.08032 0.16745 0.0
C383 C 0.40177 0.07845 0.13402 0.0
C384 C 0.42994 0.06151 0.20089 0.0
C385 C 0.41766 0.04039 0.20136 0.0
C386 C 0.39829 0.0381 0.16464 0.0
C387 C 0.39046 0.05689 0.13146 0.0
H388 H 0.09828 0.67948 0.82594 0.0
H389 H 0.11444 0.61766 0.72845 0.0
H390 H 0.06214 0.68408 0.77134 0.0
H391 H 0.07798 0.62211 0.67451 0.0
H392 H 0.99561 0.62636 0.65352 0.0
H393 H 1.03313 0.62103 0.70287 0.0
H394 H 0.0513 0.69197 0.66329 0.0
H395 H 1.01411 0.69719 0.61384 0.0
C396 C 0.09416 0.66692 0.79272 0.0
C397 C 0.10925 0.64825 0.78135 0.0
C398 C 0.07351 0.66959 0.76143 0.0
C399 C 0.06728 0.65342 0.71886 0.0
C400 C 0.08233 0.63474 0.70737 0.0
C401 C 0.10325 0.63232 0.73791 0.0
C402 C 1.00771 0.64072 0.65526 0.0
C403 C 1.002 0.66213 0.62962 0.0
C404 C 1.02917 0.63765 0.6831 0.0
C405 C 0.04506 0.65611 0.68684 0.0
C406 C 0.03933 0.67749 0.66118 0.0
C407 C 1.01814 0.68041 0.6325 0.0
H408 H 0.63794 0.94975 0.15926 0.0
H409 H 0.699 0.98621 0.09809 0.0
H410 H 0.62553 0.98431 0.21162 0.0
H411 H 0.68691 1.02044 0.15134 0.0
H412 H 0.65517 0.08361 0.23082 0.0
H413 H 0.65996 0.0516 0.164 0.0
H414 H 0.63886 1.00356 0.29831 0.0
H415 H 0.63291 0.03578 0.36464 0.0
C416 C 0.6485 0.96524 0.15595 0.0
C417 C 0.66964 0.96507 0.1249 0.0
C418 C 0.64149 0.985 0.18656 0.0
C419 C 0.65541 1.00507 0.18665 0.0
C420 C 0.67566 1.00538 0.15217 0.0
C421 C 0.68265 0.98566 0.12161 0.0
C422 C 0.65107 0.06634 0.24611 0.0
C423 C 0.64369 0.06242 0.30362 0.0
C424 C 0.65408 0.04788 0.2077 0.0
C425 C 0.64992 1.02493 0.22566 0.0
C426 C 0.64198 1.02101 0.28266 0.0
C427 C 0.63889 0.03951 0.32109 0.0
H428 H 0.04619 0.36867 0.60173 0.0
H429 H 0.06897 0.4315 0.68519 0.0
H430 H 1.01124 0.36835 0.66194 0.0
H431 H 0.03408 0.43096 0.74632 0.0
H432 H 0.95709 0.43445 0.80455 0.0
H433 H 0.99108 0.43561 0.74055 0.0
H434 H 1.0008 0.36192 0.76455 0.0
H435 H 0.96683 0.3607 0.82831 0.0
C436 C 0.04369 0.38255 0.63256 0.0
C437 C 0.06046 0.40016 0.63836 0.0
C438 C 1.02372 0.38221 0.6676 0.0
C439 C 1.01982 0.39959 0.70916 0.0
C440 C 0.03641 0.4174 0.71447 0.0
C441 C 0.05653 0.41761 0.67976 0.0
C442 C 0.96639 0.41845 0.79595 0.0
C443 C 0.95915 0.39746 0.82165 0.0
C444 C 0.986 0.41916 0.75954 0.0
C445 C 0.99874 0.39887 0.74738 0.0
C446 C 0.99129 0.37784 0.77244 0.0
C447 C 0.97183 0.37717 0.80926 0.0
H448 H 0.43409 0.46217 0.09675 0.0
H449 H 0.37533 0.49878 0.16997 0.0
H450 H 0.44681 0.49782 0.04874 0.0
H451 H 0.38797 0.53427 0.12196 0.0
H452 H 0.41948 0.59815 0.04523 0.0
H453 H 0.41725 0.56482 0.11006 0.0
H454 H 0.42952 0.51905 0.96544 0.0
H455 H 0.4324 0.5525 0.9006 0.0
C456 C 0.4243 0.47796 0.10421 0.0
C457 C 0.40355 0.47759 0.13685 0.0
C458 C 0.43146 0.49834 0.0761 0.0
C459 C 0.41821 0.5188 0.08074 0.0
C460 C 0.39865 0.51887 0.11756 0.0
C461 C 0.39137 0.49849 0.14513 0.0
C462 C 0.42226 0.58106 0.02726 0.0
C463 C 0.426 0.57805 0.96739 0.0
C464 C 0.42078 0.56191 0.06451 0.0
C465 C 0.4231 0.53926 0.04298 0.0
C466 C 0.42788 0.53627 0.98361 0.0
C467 C 0.42925 0.55543 0.94626 0.0
H468 H 0.44685 0.64308 0.10534 0.0
H469 H 0.473 0.70286 1.01247 0.0
H470 H 0.48434 0.63899 0.15459 0.0
H471 H 0.51028 0.69909 0.06322 0.0
H472 H 0.56642 0.69107 0.2125 0.0
H473 H 0.52658 0.69781 0.17762 0.0
H474 H 0.52658 0.63005 0.09894 0.0
H475 H 0.56662 0.62361 0.13246 0.0
C476 C 0.46033 0.65578 0.09685 0.0
C477 C 0.45703 0.67333 0.05516 0.0
C478 C 0.48179 0.6533 0.12468 0.0
C479 C 0.50009 0.66868 0.11237 0.0
C480 C 0.49634 0.6871 0.07351 0.0
C481 C 0.47507 0.68925 0.0446 0.0
C482 C 0.55777 0.67759 0.18819 0.0
C483 C 0.56946 0.65681 0.17509 0.0
C484 C 0.53511 0.68148 0.16816 0.0
C485 C 0.5236 0.66438 0.13606 0.0
C486 C 0.53509 0.64339 0.12411 0.0
C487 C 0.55793 0.63976 0.14288 0.0
H488 H 0.63615 0.47683 0.91813 0.0
H489 H 0.65609 0.51687 0.76725 0.0
H490 H 0.63599 0.51182 0.9761 0.0
H491 H 0.65687 0.55191 0.82621 0.0
H492 H 0.63534 0.61365 0.9408 0.0
H493 H 0.63283 0.57923 0.8798 0.0
H494 H 0.66407 0.53816 0.01609 0.0
H495 H 0.66613 0.57234 0.07732 0.0
C496 C 0.64028 0.49308 0.89695 0.0
C497 C 0.64614 0.49388 0.83768 0.0
C498 C 0.64052 0.51319 0.9306 0.0
C499 C 0.64666 0.53471 0.9061 0.0
C500 C 0.65194 0.53567 0.84653 0.0
C501 C 0.65169 0.51552 0.81278 0.0
C502 C 0.64167 0.59727 0.95775 0.0
C503 C 0.65089 0.59579 1.01408 0.0
C504 C 0.64033 0.57754 0.92263 0.0
C505 C 0.64814 0.55585 0.94303 0.0
C506 C 0.6575 0.55446 0.99925 0.0
C507 C 0.65883 0.57414 0.03429 0.0
H508 H 0.45525 0.38395 0.896 0.0
H509 H 0.46998 0.43804 0.01893 0.0
H510 H 0.49676 0.38037 0.87444 0.0
H511 H 0.51137 0.43513 0.99645 0.0
H512 H 0.58595 0.4098 0.98915 0.0
H513 H 0.54436 0.41161 1.01014 0.0
H514 H 0.52935 0.39757 0.8302 0.0
H515 H 0.57083 0.39482 0.80994 0.0
C516 C 0.46734 0.39537 0.91762 0.0
C517 C 0.45932 0.41123 0.95929 0.0
C518 C 0.49121 0.39334 0.90535 0.0
C519 C 0.50768 0.40731 0.93399 0.0
C520 C 0.49945 0.42362 0.9745 0.0
C521 C 0.47565 0.42545 0.98716 0.0
C522 C 0.57377 0.40687 0.9542 0.0
C523 C 0.58183 0.40214 0.89789 0.0
C524 C 0.54983 0.40814 0.96608 0.0
C525 C 0.53325 0.40496 0.92183 0.0
C526 C 0.54141 0.39984 0.8657 0.0
C527 C 0.56532 0.39835 0.85398 0.0
H528 H 0.86155 0.52087 0.90925 0.0
H529 H 0.93273 0.50507 0.86386 0.0
H530 H 0.8648 0.55843 0.85997 0.0
H531 H 0.93612 0.54286 0.8151 0.0
H532 H 0.93841 0.62377 0.79791 0.0
H533 H 0.93468 0.58633 0.84738 0.0
H534 H 0.87127 0.57285 0.7537 0.0
H535 H 0.87518 0.61013 0.70321 0.0
C536 C 0.87794 0.52549 0.889 0.0
C537 C 0.89692 0.51004 0.89058 0.0
C538 C 0.87974 0.54693 0.86046 0.0
C539 C 0.90073 0.55363 0.8338 0.0
C540 C 0.91977 0.53823 0.83559 0.0
C541 C 0.9178 0.51657 0.86312 0.0
C542 C 0.92356 0.61293 0.78812 0.0
C543 C 0.90705 0.62001 0.74668 0.0
C544 C 0.92155 0.59139 0.81615 0.0
C545 C 0.90273 0.57661 0.80429 0.0
C546 C 0.88591 0.58391 0.76389 0.0
C547 C 0.88817 0.60524 0.73496 0.0
H548 H 0.5614 0.20133 0.38092 0.0
H549 H 0.57686 0.13877 0.28565 0.0
H550 H 0.51992 0.1949 0.36653 0.0
H551 H 0.53527 0.13255 0.27049 0.0
H552 H 0.4596 0.11405 0.31348 0.0
H553 H 0.50102 0.12156 0.32804 0.0
H554 H 0.48947 0.19441 0.29397 0.0
H555 H 0.448 0.18693 0.281 0.0
C556 C 0.55599 0.18639 0.35605 0.0
C557 C 0.57255 0.17057 0.33452 0.0
C558 C 0.53214 0.18272 0.34776 0.0
C559 C 0.52417 0.16306 0.31788 0.0
C560 C 0.54076 0.14764 0.29465 0.0
C561 C 0.56464 0.15137 0.30272 0.0
C562 C 0.46581 0.13172 0.31029 0.0
C563 C 0.45044 0.14992 0.29625 0.0
C564 C 0.48965 0.136 0.3177 0.0
C565 C 0.49869 0.15857 0.31159 0.0
C566 C 0.48317 0.17683 0.29928 0.0
C567 C 0.4594 0.17255 0.29161 0.0
H568 H 0.12495 0.55708 0.87832 0.0
H569 H 0.19951 0.54953 0.89112 0.0
H570 H 0.12288 0.52023 0.82545 0.0
H571 H 0.19751 0.513 0.83775 0.0
H572 H 0.18284 0.46557 0.67609 0.0
H573 H 0.1853 0.50154 0.73186 0.0
H574 H 0.13235 0.47623 0.849 0.0
H575 H 0.13017 0.44006 0.79413 0.0
C576 C 0.14085 0.54753 0.86979 0.0
C577 C 0.16235 0.55608 0.88916 0.0
C578 C 0.13967 0.52645 0.83986 0.0
C579 C 0.16005 0.51378 0.82754 0.0
C580 C 0.18155 0.52244 0.84648 0.0
C581 C 0.18266 0.54323 0.87741 0.0
C582 C 0.17186 0.4676 0.71401 0.0
C583 C 0.15639 0.44991 0.73082 0.0
C584 C 0.1733 0.48816 0.74594 0.0
C585 C 0.15894 0.49169 0.7946 0.0
C586 C 0.1435 0.47403 0.81145 0.0
C587 C 0.1424 0.45326 0.78027 0.0
H588 H 0.4915 0.90875 0.23718 0.0
H589 H 0.49573 0.86458 0.38863 0.0
H590 H 0.5333 0.90461 0.22235 0.0
H591 H 0.53768 0.86082 0.37433 0.0
H592 H 0.6114 0.8458 0.2988 0.0
H593 H 0.56912 0.84599 0.3125 0.0
H594 H 0.56745 0.91919 0.27188 0.0
H595 H 0.60947 0.91892 0.25813 0.0
C596 C 0.50128 0.89792 0.26695 0.0
C597 C 0.49024 0.88716 0.31436 0.0
C598 C 0.52531 0.89573 0.25877 0.0
C599 C 0.53895 0.88274 0.29781 0.0
C600 C 0.52773 0.87092 0.3434 0.0
C601 C 0.50364 0.87311 0.3516 0.0
C602 C 0.60203 0.86198 0.29374 0.0
C603 C 0.61379 0.88232 0.27693 0.0
C604 C 0.57778 0.86208 0.30132 0.0
C605 C 0.56481 0.88252 0.29225 0.0
C606 C 0.57676 0.90299 0.27762 0.0
C607 C 0.60089 0.90289 0.27006 0.0
H608 H 0.90404 0.99485 0.69401 0.0
H609 H 0.93032 0.97991 0.52256 0.0
H610 H 0.89781 0.03519 0.66596 0.0
H611 H 0.92358 1.02014 0.49406 0.0
H612 H 0.9345 0.0983 0.48174 0.0
H613 H 0.9393 0.05794 0.51059 0.0
H614 H 0.87502 0.06143 0.60793 0.0
H615 H 0.87034 0.10203 0.57919 0.0
C616 C 0.90825 1.00007 0.65006 0.0
C617 C 0.9178 0.98402 0.61066 0.0
C618 C 0.90457 1.02327 0.63386 0.0
C619 C 0.91031 0.03114 0.57778 0.0
C620 C 0.91933 1.01492 0.53797 0.0
C621 C 0.92303 0.99172 0.55418 0.0
C622 C 0.92129 0.09047 0.50904 0.0
C623 C 0.90193 0.10349 0.52772 0.0
C624 C 0.92401 0.06721 0.52551 0.0
C625 C 0.90744 0.05617 0.56118 0.0
C626 C 0.88827 0.06932 0.58085 0.0
C627 C 0.88558 0.09267 0.56442 0.0
H628 H 0.95872 0.12944 0.4038 0.0
H629 H 0.9938 0.19193 0.34808 0.0
H630 H 0.99266 0.11867 0.46148 0.0
H631 H 1.02738 0.18146 0.40644 0.0
H632 H 0.04227 0.12555 0.61851 0.0
H633 H 1.01043 0.13173 0.55032 0.0
H634 H 0.05961 0.156 0.42171 0.0
H635 H 0.0913 0.14999 0.48998 0.0
C636 C 0.97379 0.14068 0.40288 0.0
C637 C 0.97338 0.16166 0.37142 0.0
C638 C 0.99319 0.13464 0.43661 0.0
C639 C 1.01271 0.14934 0.4395 0.0
C640 C 1.0128 0.16959 0.40521 0.0
C641 C 0.99344 0.17564 0.37165 0.0
C642 C 0.0463 0.13206 0.57559 0.0
C643 C 0.06938 0.13749 0.56017 0.0
C644 C 1.02804 0.1355 0.53624 0.0
C645 C 1.03236 0.14439 0.48027 0.0
C646 C 0.0555 0.1495 0.46464 0.0
C647 C 0.07373 0.14613 0.50401 0.0
H648 H 0.13426 0.99163 0.37467 0.0
H649 H 0.20582 1.00224 0.32395 0.0
H650 H 0.13368 1.03 0.42027 0.0
H651 H 0.20539 0.04042 0.37043 0.0
H652 H 0.19705 0.09015 0.536 0.0
H653 H 0.1997 0.05399 0.48077 0.0
H654 H 0.13869 0.07362 0.38344 0.0
H655 H 0.13627 0.10991 0.43734 0.0
C656 C 0.14981 1.00221 0.37322 0.0
C657 C 0.17002 0.99405 0.34553 0.0
C658 C 0.14947 1.02415 0.399 0.0
C659 C 0.1695 0.03814 0.39873 0.0
C660 C 0.18974 1.02996 0.37126 0.0
C661 C 0.18992 1.00823 0.34436 0.0
C662 C 0.18448 0.08695 0.50206 0.0
C663 C 0.16649 0.10294 0.49101 0.0
C664 C 0.18601 0.06627 0.47051 0.0
C665 C 0.16928 0.06098 0.42821 0.0
C666 C 0.1517 0.07722 0.4161 0.0
C667 C 0.15046 0.09808 0.44672 0.0
H668 H 1.0153 0.9514 0.61721 0.0
H669 H 1.03101 0.88502 0.69471 0.0
H670 H 0.05078 0.94856 0.55756 0.0
H671 H 0.06604 0.88188 0.63426 0.0
H672 H 0.10827 0.87777 0.45644 0.0
H673 H 0.0732 0.88041 0.51699 0.0
H674 H 0.09729 0.94547 0.58599 0.0
H675 H 0.13269 0.94259 0.52684 0.0
C676 C 1.02627 0.93618 0.62108 0.0
C677 C 1.02054 0.9185 0.66065 0.0
C678 C 0.04656 0.93459 0.58733 0.0
C679 C 0.0611 0.91501 0.59151 0.0
C680 C 0.0551 0.89713 0.63021 0.0
C681 C 0.03517 0.89898 0.66491 0.0
C682 C 0.10617 0.89253 0.48491 0.0
C683 C 0.12329 0.9099 0.48716 0.0
C684 C 0.08613 0.89402 0.51947 0.0
C685 C 0.08255 0.9132 0.5558 0.0
C686 C 0.09961 0.93059 0.55803 0.0
C687 C 0.11992 0.92882 0.52456 0.0
H688 H 0.40569 0.34073 0.20226 0.0
H689 H 0.39244 0.32975 0.02026 0.0
H690 H 0.40961 0.29866 0.21612 0.0
H691 H 0.39594 0.2882 0.03401 0.0
H692 H 0.41117 0.21305 0.06768 0.0
H693 H 0.41987 0.25454 0.05833 0.0
H694 H 0.38018 0.26808 0.21399 0.0
H695 H 0.37185 0.22712 0.2237 0.0
C696 C 0.40402 0.3294 0.16519 0.0
C697 C 0.39835 0.33846 0.11049 0.0
C698 C 0.40616 0.30535 0.17305 0.0
C699 C 0.40287 0.29006 0.12619 0.0
C700 C 0.39877 0.29939 0.07091 0.0
C701 C 0.39649 0.32326 0.06322 0.0
C702 C 0.40452 0.22492 0.10003 0.0
C703 C 0.39055 0.21682 0.14587 0.0
C704 C 0.4095 0.24864 0.09479 0.0
C705 C 0.40073 0.26462 0.13552 0.0
C706 C 0.38753 0.25629 0.18239 0.0
C707 C 0.38248 0.23274 0.18744 0.0
H708 H 0.22084 0.67756 0.95846 0.0
H709 H 0.23627 0.64134 0.79923 0.0
H710 H 0.26241 0.68391 0.97386 0.0
H711 H 0.27789 0.64825 0.81427 0.0
H712 H 0.35004 0.68264 0.84538 0.0
H713 H 0.30806 0.68382 0.82679 0.0
H714 H 0.29517 0.65151 0.99281 0.0
H715 H 0.3371 0.64974 1.01093 0.0
C716 C 0.23304 0.67143 0.92603 0.0
C717 C 0.22527 0.65883 0.87769 0.0
C718 C 0.25682 0.67498 0.93509 0.0
C719 C 0.27327 0.66648 0.89538 0.0
C720 C 0.2655 0.65507 0.84536 0.0
C721 C 0.24172 0.65107 0.83687 0.0
C722 C 0.33822 0.67611 0.87829 0.0
C723 C 0.34683 0.66606 0.92963 0.0
C724 C 0.31426 0.67669 0.86745 0.0
C725 C 0.29848 0.66776 0.90837 0.0
C726 C 0.30701 0.65865 0.96076 0.0
C727 C 0.33097 0.65758 0.97103 0.0
H728 H 0.65678 0.8297 0.07558 0.0
H729 H 0.73149 0.82121 0.07708 0.0
H730 H 0.65221 0.78738 0.07229 0.0
H731 H 0.7269 0.77923 0.07402 0.0
H732 H 0.70223 0.71922 0.20041 0.0
H733 H 0.70826 0.75884 0.16656 0.0
H734 H 0.66423 0.74596 0.01889 0.0
H735 H 0.65863 0.70567 0.05228 0.0
C736 C 0.67217 0.81888 0.07254 0.0
C737 C 0.69448 0.82865 0.07744 0.0
C738 C 0.66956 0.79469 0.0708 0.0
C739 C 0.68923 0.78014 0.0739 0.0
C740 C 0.71148 0.79009 0.07222 0.0
C741 C 0.71408 0.8141 0.0739 0.0
C742 C 0.69414 0.7247 0.16022 0.0
C743 C 0.68004 0.70943 0.12886 0.0
C744 C 0.69765 0.74732 0.14072 0.0
C745 C 0.68678 0.75537 0.08999 0.0
C746 C 0.67285 0.74008 0.058 0.0
C747 C 0.66977 0.71711 0.0769 0.0
H748 H 0.70834 0.36625 0.87456 0.0
H749 H 0.71633 0.44032 0.89423 0.0
H750 H 0.75066 0.36133 0.88742 0.0
H751 H 0.75824 0.43535 0.90491 0.0
H752 H 0.83368 0.41695 0.84582 0.0
H753 H 0.79165 0.41601 0.82703 0.0
H754 H 0.78109 0.37535 0.98214 0.0
H755 H 0.82298 0.37686 1.0021 0.0
C756 C 0.71904 0.38141 0.8818 0.0
C757 C 0.7089 0.40365 0.88379 0.0
C758 C 0.74319 0.37859 0.88893 0.0
C759 C 0.75763 0.39801 0.89643 0.0
C760 C 0.7475 0.42014 0.89859 0.0
C761 C 0.72344 0.42291 0.89299 0.0
C762 C 0.82247 0.40737 0.87519 0.0
C763 C 0.83161 0.39703 0.92551 0.0
C764 C 0.79845 0.40692 0.86457 0.0
C765 C 0.78322 0.39561 0.90321 0.0
C766 C 0.7925 0.38405 0.95156 0.0
C767 C 0.81643 0.38498 0.96297 0.0
H768 H 0.85092 0.74332 0.66895 0.0
H769 H 0.92366 0.73992 0.62186 0.0
H770 H 0.85405 0.78539 0.67975 0.0
H771 H 0.92658 0.7817 0.62962 0.0
H772 H 0.93286 0.85343 0.70321 0.0
H773 H 0.92842 0.81185 0.69451 0.0
H774 H 0.85804 0.82155 0.6327 0.0
H775 H 0.86223 0.86349 0.6444 0.0
C776 C 0.86755 0.75154 0.66071 0.0
C777 C 0.88708 0.73815 0.64514 0.0
C778 C 0.86933 0.77575 0.66638 0.0
C779 C 0.89063 0.78721 0.65589 0.0
C780 C 0.91001 0.77368 0.63961 0.0
C781 C 0.90831 0.74957 0.63482 0.0
C782 C 0.91643 0.84679 0.68744 0.0
C783 C 0.89795 0.86193 0.67419 0.0
C784 C 0.9139 0.82277 0.6821 0.0
C785 C 0.8929 0.81303 0.66236 0.0
C786 C 0.87439 0.82822 0.64877 0.0
C787 C 0.87684 0.85235 0.65495 0.0
H788 H 0.83867 0.13792 0.30462 0.0
H789 H 0.82161 0.20948 0.33935 0.0
H790 H 0.79721 0.12956 0.29038 0.0
H791 H 0.78053 0.20119 0.32621 0.0
H792 H 0.70624 0.18283 0.29056 0.0
H793 H 0.74748 0.18951 0.26733 0.0
H794 H 0.76594 0.12712 0.36104 0.0
H795 H 0.72524 0.12042 0.38326 0.0
C796 C 0.82617 0.15196 0.30765 0.0
C797 C 0.83337 0.17427 0.32382 0.0
C798 C 0.8024 0.14717 0.3 0.0
C799 C 0.78543 0.16464 0.30791 0.0
C800 C 0.79298 0.18732 0.31936 0.0
C801 C 0.8166 0.19204 0.32738 0.0
C802 C 0.71912 0.17037 0.3051 0.0
C803 C 0.71249 0.15129 0.3394 0.0
C804 C 0.74275 0.17421 0.29204 0.0
C805 C 0.76012 0.15889 0.31248 0.0
C806 C 0.75316 0.13915 0.34387 0.0
C807 C 0.72974 0.13545 0.35723 0.0
H808 H 0.13443 0.32677 0.70619 0.0
H809 H 0.18785 0.3371 0.57638 0.0
H810 H 0.14212 0.28531 0.70563 0.0
H811 H 0.19536 0.29526 0.57532 0.0
H812 H 0.21325 0.21878 0.62853 0.0
H813 H 0.20952 0.26112 0.63259 0.0
H814 H 0.13463 0.2545 0.63627 0.0
H815 H 0.13827 0.21259 0.63288 0.0
C816 C 0.14796 0.32024 0.67775 0.0
C817 C 0.16036 0.3353 0.64093 0.0
C818 C 0.15227 0.29639 0.67719 0.0
C819 C 0.16908 0.28688 0.63972 0.0
C820 C 0.18231 0.30202 0.60477 0.0
C821 C 0.17797 0.32599 0.60531 0.0
C822 C 0.196 0.2264 0.63002 0.0
C823 C 0.17608 0.21222 0.63071 0.0
C824 C 0.19388 0.25066 0.63218 0.0
C825 C 0.17178 0.26121 0.63547 0.0
C826 C 0.15193 0.24698 0.63503 0.0
C827 C 0.15404 0.22288 0.63267 0.0
H828 H 0.23205 0.88803 0.43176 0.0
H829 H 0.24887 0.88201 0.24977 0.0
H830 H 0.27351 0.88839 0.45479 0.0
H831 H 0.29014 0.88309 0.27252 0.0
H832 H 0.36454 0.87129 0.33529 0.0
H833 H 0.32324 0.86426 0.31588 0.0
H834 H 0.30455 0.91556 0.444 0.0
H835 H 0.34538 0.92207 0.4642 0.0
C836 C 0.24456 0.8866 0.39672 0.0
C837 C 0.23709 0.8852 0.33892 0.0
C838 C 0.26836 0.88698 0.40983 0.0
C839 C 0.28526 0.88606 0.36544 0.0
C840 C 0.27772 0.88364 0.30789 0.0
C841 C 0.25396 0.88317 0.29483 0.0
C842 C 0.35157 0.88098 0.35932 0.0
C843 C 0.35831 0.89725 0.40123 0.0
C844 C 0.32789 0.87701 0.34816 0.0
C845 C 0.31048 0.88923 0.37864 0.0
C846 C 0.31736 0.90543 0.42053 0.0
C847 C 0.34089 0.90934 0.43172 0.0
H848 H 0.20244 0.16525 0.849 0.0
H849 H 0.22585 0.09485 0.82388 0.0
H850 H 0.23284 0.17075 0.92254 0.0
H851 H 0.2559 0.10022 0.89681 0.0
H852 H 0.32201 0.12486 0.98593 0.0
H853 H 0.29255 0.12259 0.91019 0.0
H854 H 0.24259 0.15537 0.02364 0.0
H855 H 0.27224 0.15783 0.09951 0.0
C856 C 0.21414 0.15104 0.85892 0.0
C857 C 0.21161 0.12958 0.83084 0.0
C858 C 0.23142 0.1541 0.90128 0.0
C859 C 0.24682 0.13591 0.91558 0.0
C860 C 0.24449 0.11465 0.88663 0.0
C861 C 0.22709 0.1115 0.84514 0.0
C862 C 0.30484 0.13182 0.99462 0.0
C863 C 0.29953 0.14148 0.04898 0.0
C864 C 0.28787 0.13036 0.9513 0.0
C865 C 0.26516 0.13874 0.96084 0.0
C866 C 0.25994 0.14889 1.01472 0.0
C867 C 0.27687 0.15008 0.0584 0.0
H868 H 0.11299 0.83187 0.16116 0.0
H869 H 0.18052 0.81818 0.23556 0.0
H870 H 0.11163 0.79233 0.12401 0.0
H871 H 0.17906 0.77842 0.19892 0.0
H872 H 0.17823 0.71968 0.06041 0.0
H873 H 0.17998 0.75845 0.10268 0.0
H874 H 0.10871 0.75168 0.16034 0.0
H875 H 0.10688 0.71306 0.11741 0.0
C876 C 0.12757 0.82042 0.16952 0.0
C877 C 0.1469 0.82823 0.20119 0.0
C878 C 0.12669 0.79768 0.14872 0.0
C879 C 0.14523 0.78219 0.15853 0.0
C880 C 0.16457 0.78996 0.19029 0.0
C881 C 0.16532 0.81267 0.2117 0.0
C882 C 0.16294 0.72648 0.08204 0.0
C883 C 0.14239 0.71327 0.08533 0.0
C884 C 0.164 0.74861 0.10673 0.0
C885 C 0.14447 0.75819 0.13478 0.0
C886 C 0.12401 0.74489 0.1386 0.0
C887 C 0.12302 0.72266 0.11447 0.0
H888 H 0.76288 0.88991 0.0205 0.0
H889 H 0.79554 0.92818 0.15882 0.0
H890 H 0.79734 0.89492 0.96102 0.0
H891 H 0.83066 0.93197 0.10037 0.0
H892 H 0.87843 0.95856 0.95588 0.0
H893 H 0.84477 0.95238 0.01817 0.0
H894 H 0.83657 0.88354 0.94762 0.0
H895 H 0.87005 0.89009 0.88419 0.0
C896 C 0.77737 0.89937 0.0385 0.0
C897 C 0.77613 0.90888 0.09457 0.0
C898 C 0.79739 0.90194 1.00447 0.0
C899 C 0.81688 0.91391 0.02561 0.0
C900 C 0.81588 0.92296 0.08216 0.0
C901 C 0.79577 0.92054 0.11611 0.0
C902 C 0.86959 0.94203 0.95405 0.0
C903 C 0.87696 0.9248 0.91508 0.0
C904 C 0.85028 0.93843 0.98997 0.0
C905 C 0.83788 0.91742 0.98826 0.0
C906 C 0.84541 0.90009 0.94957 0.0
C907 C 0.86464 0.90379 0.91323 0.0
H908 H 0.93491 0.28135 0.35708 0.0
H909 H 0.88517 0.24766 0.24582 0.0
H910 H 0.93643 0.31423 0.29075 0.0
H911 H 0.88646 0.28072 0.17953 0.0
H912 H 0.91199 0.33457 0.04483 0.0
H913 H 0.91003 0.30096 0.10971 0.0
H914 H 0.91445 0.34647 0.25751 0.0
H915 H 0.91666 0.37976 0.19297 0.0
C916 C 0.92407 0.28102 0.31883 0.0
C917 C 0.90988 0.26174 0.30716 0.0
C918 C 0.92492 0.29997 0.28057 0.0
C919 C 0.91151 0.30033 0.22951 0.0
C920 C 0.89732 0.28102 0.2178 0.0
C921 C 0.89653 0.26201 0.25602 0.0
C922 C 0.9124 0.33739 0.09116 0.0
C923 C 0.91472 0.35996 0.1134 0.0
C924 C 0.91124 0.31808 0.12852 0.0
C925 C 0.91226 0.32083 0.18918 0.0
C926 C 0.91417 0.34348 0.21121 0.0
C927 C 0.91542 0.36268 0.17399 0.0
H928 H 0.20838 0.37969 0.3977 0.0
H929 H 0.21526 0.45414 0.39359 0.0
H930 H 0.24098 0.37625 0.32875 0.0
H931 H 0.24789 0.45075 0.32579 0.0
H932 H 0.32133 0.43238 0.25515 0.0
H933 H 0.28985 0.43383 0.32696 0.0
H934 H 0.24827 0.3889 0.22 0.0
H935 H 0.27971 0.38773 0.14772 0.0
C936 C 0.21699 0.39527 0.38246 0.0
C937 C 0.20919 0.41718 0.40088 0.0
C938 C 0.23552 0.39332 0.34277 0.0
C939 C 0.24701 0.41324 0.32181 0.0
C940 C 0.2395 0.43509 0.34131 0.0
C941 C 0.22071 0.43704 0.37985 0.0
C942 C 0.30554 0.42269 0.24718 0.0
C943 C 0.303 0.40998 0.19568 0.0
C944 C 0.28747 0.42361 0.28813 0.0
C945 C 0.26656 0.41146 0.2792 0.0
C946 C 0.26421 0.39833 0.22831 0.0
C947 C 0.28212 0.3978 0.18674 0.0
H948 H 0.45135 0.85402 0.66962 0.0
H949 H 0.41507 0.82242 0.52669 0.0
H950 H 0.45253 0.81662 0.71954 0.0
H951 H 0.4161 0.78517 0.57648 0.0
H952 H 0.44334 0.71747 0.65291 0.0
H953 H 0.44303 0.75506 0.60442 0.0
H954 H 0.42789 0.78848 0.76751 0.0
H955 H 0.42919 0.75102 0.8164 0.0
C956 C 0.44344 0.83917 0.64907 0.0
C957 C 0.43325 0.84125 0.59394 0.0
C958 C 0.4441 0.8177 0.67768 0.0
C959 C 0.43452 0.7978 0.65193 0.0
C960 C 0.42409 0.79998 0.59712 0.0
C961 C 0.42348 0.8214 0.56852 0.0
C962 C 0.4402 0.73282 0.67861 0.0
C963 C 0.43625 0.73108 0.73868 0.0
C964 C 0.43975 0.7544 0.65064 0.0
C965 C 0.43534 0.77485 0.68196 0.0
C966 C 0.43155 0.77314 0.74206 0.0
C967 C 0.432 0.75157 0.77003 0.0
H968 H 0.73838 0.59753 0.3331 0.0
H969 H 0.73396 0.67025 0.28927 0.0
H970 H 0.77536 0.60426 0.38198 0.0
H971 H 0.7712 0.67703 0.33825 0.0
H972 H 0.82596 0.68063 0.48929 0.0
H973 H 0.78811 0.67499 0.442 0.0
H974 H 0.81589 0.61578 0.35086 0.0
H975 H 0.85341 0.62139 0.3979 0.0
C976 C 0.74528 0.61498 0.33412 0.0
C977 C 0.73324 0.63335 0.30729 0.0
C978 C 0.76654 0.61881 0.3618 0.0
C979 C 0.77619 0.64117 0.364 0.0
C980 C 0.7641 0.65964 0.3376 0.0
C981 C 0.74293 0.65573 0.3091 0.0
C982 C 0.82386 0.66637 0.4594 0.0
C983 C 0.84266 0.65149 0.4472 0.0
C984 C 0.80231 0.66325 0.43198 0.0
C985 C 0.79905 0.64495 0.39268 0.0
C986 C 0.8178 0.62996 0.38114 0.0
C987 C 0.83935 0.63327 0.40778 0.0
H988 H 0.6406 0.20632 0.62516 0.0
H989 H 0.6491 0.2334 0.45148 0.0
H990 H 0.64179 0.24569 0.66329 0.0
H991 H 0.6513 0.27247 0.48972 0.0
H992 H 0.6253 0.34024 0.56866 0.0
H993 H 0.62581 0.3008 0.53192 0.0
H994 H 0.66664 0.2789 0.67934 0.0
H995 H 0.66602 0.3185 0.71634 0.0
C996 C 0.64285 0.22059 0.59507 0.0
C997 C 0.64464 0.2165 0.53509 0.0
C998 C 0.64379 0.2432 0.61704 0.0
C999 C 0.64651 0.26236 0.57962 0.0
C1000 C 0.64882 0.25822 0.51983 0.0
C1001 C 0.64787 0.23565 0.49789 0.0
C1002 C 0.63461 0.32713 0.59305 0.0
C1003 C 0.64567 0.33269 0.6455 0.0
C1004 C 0.63493 0.30443 0.57188 0.0
C1005 C 0.64636 0.28658 0.60245 0.0
C1006 C 0.65741 0.2921 0.65497 0.0
C1007 C 0.65706 0.31485 0.67622 0.0
loop_
_geom_bond_atom_site_label_1
_geom_bond_atom_site_label_2
_geom_bond_distance
_geom_bond_site_symmetry_2
_ccdc_geom_bond_type
Cu0 N1 1.999 . S
Cu0 O6 1.974 . S
Cu0 N11 1.985 . S
Cu0 O20 1.959 . S
N1 Cu0 1.999 . S
N1 C3 1.263 . S
N1 C5 1.389 . S
N2 C3 1.358 . S
N2 C4 1.400 . S
C3 N1 1.263 . S
C3 N2 1.358 . S
C3 H9 0.930 . S
C4 N2 1.400 . S
C4 C5 1.351 . S
C4 H21 0.930 . S
C5 N1 1.389 . S
C5 C4 1.351 . S
C5 H10 0.930 . S
O6 Cu0 1.974 . S
O6 C16 1.282 . S
C7 O8 1.261 . S
C7 O20 1.251 . S
O8 C7 1.261 . S
H9 C3 0.930 . S
H10 C5 0.930 . S
N11 Cu0 1.985 . S
N11 C13 1.335 . S
N11 C14 1.390 . S
N12 C13 1.345 . S
N12 C15 1.336 . S
C13 N11 1.335 . S
C13 N12 1.345 . S
C13 H18 0.930 . S
C14 N11 1.390 . S
C14 C15 1.346 . S
C14 H19 0.930 . S
C15 N12 1.336 . S
C15 C14 1.346 . S
C15 H22 0.929 . S
C16 O6 1.282 . S
C16 O17 1.216 . S
O17 C16 1.216 . S
H18 C13 0.930 . S
H19 C14 0.930 . S
O20 Cu0 1.959 . S
O20 C7 1.251 . S
H21 C4 0.930 . S
H22 C15 0.929 . S
Cu23 N24 1.999 . S
Cu23 O29 1.974 . S
Cu23 N34 1.985 . S
Cu23 O43 1.959 . S
N24 Cu23 1.999 . S
N24 C26 1.263 . S
N24 C28 1.389 . S
N25 C26 1.358 . S
N25 C27 1.400 . S
C26 N24 1.263 . S
C26 N25 1.358 . S
C26 H32 0.930 . S
C27 N25 1.400 . S
C27 C28 1.351 . S
C27 H44 0.930 . S
C28 N24 1.389 . S
C28 C27 1.351 . S
C28 H33 0.930 . S
O29 Cu23 1.974 . S
O29 C39 1.282 . S
C30 O31 1.261 . S
C30 O43 1.251 . S
O31 C30 1.261 . S
H32 C26 0.930 . S
H33 C28 0.930 . S
N34 Cu23 1.985 . S
N34 C36 1.335 . S
N34 C37 1.390 . S
N35 C36 1.345 . S
N35 C38 1.336 . S
C36 N34 1.335 . S
C36 N35 1.345 . S
C36 H41 0.930 . S
C37 N34 1.390 . S
C37 C38 1.346 . S
C37 H42 0.930 . S
C38 N35 1.336 . S
C38 C37 1.346 . S
C38 H45 0.929 . S
C39 O29 1.282 . S
C39 O40 1.216 . S
O40 C39 1.216 . S
H41 C36 0.930 . S
H42 C37 0.930 . S
O43 Cu23 1.959 . S
O43 C30 1.251 . S
H44 C27 0.930 . S
H45 C38 0.929 . S
Cu46 N47 1.999 . S
Cu46 O52 1.974 . S
Cu46 N57 1.985 . S
Cu46 O66 1.959 . S
N47 Cu46 1.999 . S
N47 C49 1.263 . S
N47 C51 1.389 . S
N48 C49 1.358 . S
N48 C50 1.400 . S
C49 N47 1.263 . S
C49 N48 1.358 . S
C49 H55 0.930 . S
C50 N48 1.400 . S
C50 C51 1.351 . S
C50 H67 0.930 . S
C51 N47 1.389 . S
C51 C50 1.351 . S
C51 H56 0.930 . S
O52 Cu46 1.974 . S
O52 C62 1.282 . S
C53 O54 1.261 . S
C53 O66 1.251 . S
O54 C53 1.261 . S
H55 C49 0.930 . S
H56 C51 0.930 . S
N57 Cu46 1.985 . S
N57 C59 1.335 . S
N57 C60 1.390 . S
N58 C59 1.345 . S
N58 C61 1.336 . S
C59 N57 1.335 . S
C59 N58 1.345 . S
C59 H64 0.930 . S
C60 N57 1.390 . S
C60 C61 1.346 . S
C60 H65 0.930 . S
C61 N58 1.336 . S
C61 C60 1.346 . S
C61 H68 0.929 . S
C62 O52 1.282 . S
C62 O63 1.216 . S
O63 C62 1.216 . S
H64 C59 0.930 . S
H65 C60 0.930 . S
O66 Cu46 1.959 . S
O66 C53 1.251 . S
H67 C50 0.930 . S
H68 C61 0.929 . S
Cu69 N70 1.999 . S
Cu69 O75 1.974 . S
Cu69 N80 1.985 . S
Cu69 O89 1.959 . S
N70 Cu69 1.999 . S
N70 C72 1.263 . S
N70 C74 1.389 . S
N71 C72 1.358 . S
N71 C73 1.400 . S
C72 N70 1.263 . S
C72 N71 1.358 . S
C72 H78 0.930 . S
C73 N71 1.400 . S
C73 C74 1.351 . S
C73 H90 0.930 . S
C74 N70 1.389 . S
C74 C73 1.351 . S
C74 H79 0.930 . S
O75 Cu69 1.974 . S
O75 C85 1.282 . S
C76 O77 1.261 . S
C76 O89 1.251 . S
O77 C76 1.261 . S
H78 C72 0.930 . S
H79 C74 0.930 . S
N80 Cu69 1.985 . S
N80 C82 1.335 . S
N80 C83 1.390 . S
N81 C82 1.345 . S
N81 C84 1.336 . S
C82 N80 1.335 . S
C82 N81 1.345 . S
C82 H87 0.930 . S
C83 N80 1.390 . S
C83 C84 1.346 . S
C83 H88 0.930 . S
C84 N81 1.336 . S
C84 C83 1.346 . S
C84 H91 0.929 . S
C85 O75 1.282 . S
C85 O86 1.216 . S
O86 C85 1.216 . S
H87 C82 0.930 . S
H88 C83 0.930 . S
O89 Cu69 1.959 . S
O89 C76 1.251 . S
H90 C73 0.930 . S
H91 C84 0.929 . S
Cu92 N93 1.999 . S
Cu92 O98 1.974 . S
Cu92 N103 1.985 . S
Cu92 O112 1.959 . S
N93 Cu92 1.999 . S
N93 C95 1.263 . S
N93 C97 1.389 . S
N94 C95 1.358 . S
N94 C96 1.400 . S
C95 N93 1.263 . S
C95 N94 1.358 . S
C95 H101 0.930 . S
C96 N94 1.400 . S
C96 C97 1.351 . S
C96 H113 0.930 . S
C97 N93 1.389 . S
C97 C96 1.351 . S
C97 H102 0.930 . S
O98 Cu92 1.974 . S
O98 C108 1.282 . S
C99 O100 1.261 . S
C99 O112 1.251 . S
O100 C99 1.261 . S
H101 C95 0.930 . S
H102 C97 0.930 . S
N103 Cu92 1.985 . S
N103 C105 1.335 . S
N103 C106 1.390 . S
N104 C105 1.345 . S
N104 C107 1.336 . S
C105 N103 1.335 . S
C105 N104 1.345 . S
C105 H110 0.930 . S
C106 N103 1.390 . S
C106 C107 1.346 . S
C106 H111 0.930 . S
C107 N104 1.336 . S
C107 C106 1.346 . S
C107 H114 0.929 . S
C108 O98 1.282 . S
C108 O109 1.216 . S
O109 C108 1.216 . S
H110 C105 0.930 . S
H111 C106 0.930 . S
O112 Cu92 1.959 . S
O112 C99 1.251 . S
H113 C96 0.930 . S
H114 C107 0.929 . S
Cu115 N116 1.999 . S
Cu115 O121 1.974 . S
Cu115 N126 1.985 . S
Cu115 O135 1.959 . S
N116 Cu115 1.999 . S
N116 C118 1.263 . S
N116 C120 1.389 . S
N117 C118 1.358 . S
N117 C119 1.400 . S
C118 N116 1.263 . S
C118 N117 1.358 . S
C118 H124 0.930 . S
C119 N117 1.400 . S
C119 C120 1.351 . S
C119 H136 0.930 . S
C120 N116 1.389 . S
C120 C119 1.351 . S
C120 H125 0.930 . S
O121 Cu115 1.974 . S
O121 C131 1.282 . S
C122 O123 1.261 . S
C122 O135 1.251 . S
O123 C122 1.261 . S
H124 C118 0.930 . S
H125 C120 0.930 . S
N126 Cu115 1.985 . S
N126 C128 1.335 . S
N126 C129 1.390 . S
N127 C128 1.345 . S
N127 C130 1.336 . S
C128 N126 1.335 . S
C128 N127 1.345 . S
C128 H133 0.930 . S
C129 N126 1.390 . S
C129 C130 1.346 . S
C129 H134 0.930 . S
C130 N127 1.336 . S
C130 C129 1.346 . S
C130 H137 0.929 . S
C131 O121 1.282 . S
C131 O132 1.216 . S
O132 C131 1.216 . S
H133 C128 0.930 . S
H134 C129 0.930 . S
O135 Cu115 1.959 . S
O135 C122 1.251 . S
H136 C119 0.930 . S
H137 C130 0.929 . S
Cu138 N139 1.999 . S
Cu138 O144 1.974 . S
Cu138 N149 1.985 . S
Cu138 O158 1.959 . S
N139 Cu138 1.999 . S
N139 C141 1.263 . S
N139 C143 1.389 . S
N140 C141 1.358 . S
N140 C142 1.400 . S
C141 N139 1.263 . S
C141 N140 1.358 . S
C141 H147 0.930 . S
C142 N140 1.400 . S
C142 C143 1.351 . S
C142 H159 0.930 . S
C143 N139 1.389 . S
C143 C142 1.351 . S
C143 H148 0.930 . S
O144 Cu138 1.974 . S
O144 C154 1.282 . S
C145 O146 1.261 . S
C145 O158 1.251 . S
O146 C145 1.261 . S
H147 C141 0.930 . S
H148 C143 0.930 . S
N149 Cu138 1.985 . S
N149 C151 1.335 . S
N149 C152 1.390 . S
N150 C151 1.345 . S
N150 C153 1.336 . S
C151 N149 1.335 . S
C151 N150 1.345 . S
C151 H156 0.930 . S
C152 N149 1.390 . S
C152 C153 1.346 . S
C152 H157 0.930 . S
C153 N150 1.336 . S
C153 C152 1.346 . S
C153 H160 0.929 . S
C154 O144 1.282 . S
C154 O155 1.216 . S
O155 C154 1.216 . S
H156 C151 0.930 . S
H157 C152 0.930 . S
O158 Cu138 1.959 . S
O158 C145 1.251 . S
H159 C142 0.930 . S
H160 C153 0.929 . S
Cu161 N162 1.999 . S
Cu161 O167 1.974 . S
Cu161 N172 1.985 . S
Cu161 O181 1.959 . S
N162 Cu161 1.999 . S
N162 C164 1.263 . S
N162 C166 1.389 . S
N163 C164 1.358 . S
N163 C165 1.400 . S
C164 N162 1.263 . S
C164 N163 1.358 . S
C164 H170 0.930 . S
C165 N163 1.400 . S
C165 C166 1.351 . S
C165 H182 0.930 . S
C166 N162 1.389 . S
C166 C165 1.351 . S
C166 H171 0.930 . S
O167 Cu161 1.974 . S
O167 C177 1.282 . S
C168 O169 1.261 . S
C168 O181 1.251 . S
O169 C168 1.261 . S
H170 C164 0.930 . S
H171 C166 0.930 . S
N172 Cu161 1.985 . S
N172 C174 1.335 . S
N172 C175 1.390 . S
N173 C174 1.345 . S
N173 C176 1.336 . S
C174 N172 1.335 . S
C174 N173 1.345 . S
C174 H179 0.930 . S
C175 N172 1.390 . S
C175 C176 1.346 . S
C175 H180 0.930 . S
C176 N173 1.336 . S
C176 C175 1.346 . S
C176 H183 0.929 . S
C177 O167 1.282 . S
C177 O178 1.216 . S
O178 C177 1.216 . S
H179 C174 0.930 . S
H180 C175 0.930 . S
O181 Cu161 1.959 . S
O181 C168 1.251 . S
H182 C165 0.930 . S
H183 C176 0.929 . S
Cu184 N185 1.999 . S
Cu184 O190 1.974 . S
Cu184 N195 1.985 . S
Cu184 O204 1.959 . S
N185 Cu184 1.999 . S
N185 C187 1.263 . S
N185 C189 1.389 . S
N186 C187 1.358 . S
N186 C188 1.400 . S
C187 N185 1.263 . S
C187 N186 1.358 . S
C187 H193 0.930 . S
C188 N186 1.400 . S
C188 C189 1.351 . S
C188 H205 0.930 . S
C189 N185 1.389 . S
C189 C188 1.351 . S
C189 H194 0.930 . S
O190 Cu184 1.974 . S
O190 C200 1.282 . S
C191 O192 1.261 . S
C191 O204 1.251 . S
O192 C191 1.261 . S
H193 C187 0.930 . S
H194 C189 0.930 . S
N195 Cu184 1.985 . S
N195 C197 1.335 . S
N195 C198 1.390 . S
N196 C197 1.345 . S
N196 C199 1.336 . S
C197 N195 1.335 . S
C197 N196 1.345 . S
C197 H202 0.930 . S
C198 N195 1.390 . S
C198 C199 1.346 . S
C198 H203 0.930 . S
C199 N196 1.336 . S
C199 C198 1.346 . S
C199 H206 0.929 . S
C200 O190 1.282 . S
C200 O201 1.216 . S
O201 C200 1.216 . S
H202 C197 0.930 . S
H203 C198 0.930 . S
O204 Cu184 1.959 . S
O204 C191 1.251 . S
H205 C188 0.930 . S
H206 C199 0.929 . S
Cu207 N208 1.999 . S
Cu207 O213 1.974 . S
Cu207 N218 1.985 . S
Cu207 O227 1.959 . S
N208 Cu207 1.999 . S
N208 C210 1.263 . S
N208 C212 1.389 . S
N209 C210 1.358 . S
N209 C211 1.400 . S
C210 N208 1.263 . S
C210 N209 1.358 . S
C210 H216 0.930 . S
C211 N209 1.400 . S
C211 C212 1.351 . S
C211 H228 0.930 . S
C212 N208 1.389 . S
C212 C211 1.351 . S
C212 H217 0.930 . S
O213 Cu207 1.974 . S
O213 C223 1.282 . S
C214 O215 1.261 . S
C214 O227 1.251 . S
O215 C214 1.261 . S
H216 C210 0.930 . S
H217 C212 0.930 . S
N218 Cu207 1.985 . S
N218 C220 1.335 . S
N218 C221 1.390 . S
N219 C220 1.345 . S
N219 C222 1.336 . S
C220 N218 1.335 . S
C220 N219 1.345 . S
C220 H225 0.930 . S
C221 N218 1.390 . S
C221 C222 1.346 . S
C221 H226 0.930 . S
C222 N219 1.336 . S
C222 C221 1.346 . S
C222 H229 0.929 . S
C223 O213 1.282 . S
C223 O224 1.216 . S
O224 C223 1.216 . S
H225 C220 0.930 . S
H226 C221 0.930 . S
O227 Cu207 1.959 . S
O227 C214 1.251 . S
H228 C211 0.930 . S
H229 C222 0.929 . S
Cu230 N231 1.999 . S
Cu230 O236 1.974 . S
Cu230 N241 1.985 . S
Cu230 O250 1.959 . S
N231 Cu230 1.999 . S
N231 C233 1.263 . S
N231 C235 1.389 . S
N232 C233 1.358 . S
N232 C234 1.400 . S
C233 N231 1.263 . S
C233 N232 1.358 . S
C233 H239 0.930 . S
C234 N232 1.400 . S
C234 C235 1.351 . S
C234 H251 0.930 . S
C235 N231 1.389 . S
C235 C234 1.351 . S
C235 H240 0.930 . S
O236 Cu230 1.974 . S
O236 C246 1.282 . S
C237 O238 1.261 . S
C237 O250 1.251 . S
O238 C237 1.261 . S
H239 C233 0.930 . S
H240 C235 0.930 . S
N241 Cu230 1.985 . S
N241 C243 1.335 . S
N241 C244 1.390 . S
N242 C243 1.345 . S
N242 C245 1.336 . S
C243 N241 1.335 . S
C243 N242 1.345 . S
C243 H248 0.930 . S
C244 N241 1.390 . S
C244 C245 1.346 . S
C244 H249 0.930 . S
C245 N242 1.336 . S
C245 C244 1.346 . S
C245 H252 0.929 . S
C246 O236 1.282 . S
C246 O247 1.216 . S
O247 C246 1.216 . S
H248 C243 0.930 . S
H249 C244 0.930 . S
O250 Cu230 1.959 . S
O250 C237 1.251 . S
H251 C234 0.930 . S
H252 C245 0.929 . S
Cu253 N254 1.999 . S
Cu253 O259 1.974 . S
Cu253 N264 1.985 . S
Cu253 O273 1.959 . S
N254 Cu253 1.999 . S
N254 C256 1.263 . S
N254 C258 1.389 . S
N255 C256 1.358 . S
N255 C257 1.400 . S
C256 N254 1.263 . S
C256 N255 1.358 . S
C256 H262 0.930 . S
C257 N255 1.400 . S
C257 C258 1.351 . S
C257 H274 0.930 . S
C258 N254 1.389 . S
C258 C257 1.351 . S
C258 H263 0.930 . S
O259 Cu253 1.974 . S
O259 C269 1.282 . S
C260 O261 1.261 . S
C260 O273 1.251 . S
O261 C260 1.261 . S
H262 C256 0.930 . S
H263 C258 0.930 . S
N264 Cu253 1.985 . S
N264 C266 1.335 . S
N264 C267 1.390 . S
N265 C266 1.345 . S
N265 C268 1.336 . S
C266 N264 1.335 . S
C266 N265 1.345 . S
C266 H271 0.930 . S
C267 N264 1.390 . S
C267 C268 1.346 . S
C267 H272 0.930 . S
C268 N265 1.336 . S
C268 C267 1.346 . S
C268 H275 0.929 . S
C269 O259 1.282 . S
C269 O270 1.216 . S
O270 C269 1.216 . S
H271 C266 0.930 . S
H272 C267 0.930 . S
O273 Cu253 1.959 . S
O273 C260 1.251 . S
H274 C257 0.930 . S
H275 C268 0.929 . S
Cu276 N277 1.999 . S
Cu276 O282 1.974 . S
Cu276 N287 1.985 . S
Cu276 O296 1.959 . S
N277 Cu276 1.999 . S
N277 C279 1.263 . S
N277 C281 1.389 . S
N278 C279 1.358 . S
N278 C280 1.400 . S
C279 N277 1.263 . S
C279 N278 1.358 . S
C279 H285 0.930 . S
C280 N278 1.400 . S
C280 C281 1.351 . S
C280 H297 0.930 . S
C281 N277 1.389 . S
C281 C280 1.351 . S
C281 H286 0.930 . S
O282 Cu276 1.974 . S
O282 C292 1.282 . S
C283 O284 1.261 . S
C283 O296 1.251 . S
O284 C283 1.261 . S
H285 C279 0.930 . S
H286 C281 0.930 . S
N287 Cu276 1.985 . S
N287 C289 1.335 . S
N287 C290 1.390 . S
N288 C289 1.345 . S
N288 C291 1.336 . S
C289 N287 1.335 . S
C289 N288 1.345 . S
C289 H294 0.930 . S
C290 N287 1.390 . S
C290 C291 1.346 . S
C290 H295 0.930 . S
C291 N288 1.336 . S
C291 C290 1.346 . S
C291 H298 0.929 . S
C292 O282 1.282 . S
C292 O293 1.216 . S
O293 C292 1.216 . S
H294 C289 0.930 . S
H295 C290 0.930 . S
O296 Cu276 1.959 . S
O296 C283 1.251 . S
H297 C280 0.930 . S
H298 C291 0.929 . S
Cu299 N300 1.999 . S
Cu299 O305 1.974 . S
Cu299 N310 1.985 . S
Cu299 O319 1.959 . S
N300 Cu299 1.999 . S
N300 C302 1.263 . S
N300 C304 1.389 . S
N301 C302 1.358 . S
N301 C303 1.400 . S
C302 N300 1.263 . S
C302 N301 1.358 . S
C302 H308 0.930 . S
C303 N301 1.400 . S
C303 C304 1.351 . S
C303 H320 0.930 . S
C304 N300 1.389 . S
C304 C303 1.351 . S
C304 H309 0.930 . S
O305 Cu299 1.974 . S
O305 C315 1.282 . S
C306 O307 1.261 . S
C306 O319 1.251 . S
O307 C306 1.261 . S
H308 C302 0.930 . S
H309 C304 0.930 . S
N310 Cu299 1.985 . S
N310 C312 1.335 . S
N310 C313 1.390 . S
N311 C312 1.345 . S
N311 C314 1.336 . S
C312 N310 1.335 . S
C312 N311 1.345 . S
C312 H317 0.930 . S
C313 N310 1.390 . S
C313 C314 1.346 . S
C313 H318 0.930 . S
C314 N311 1.336 . S
C314 C313 1.346 . S
C314 H321 0.929 . S
C315 O305 1.282 . S
C315 O316 1.216 . S
O316 C315 1.216 . S
H317 C312 0.930 . S
H318 C313 0.930 . S
O319 Cu299 1.959 . S
O319 C306 1.251 . S
H320 C303 0.930 . S
H321 C314 0.929 . S
Cu322 N323 1.999 . S
Cu322 O328 1.974 . S
Cu322 N333 1.985 . S
Cu322 O342 1.959 . S
N323 Cu322 1.999 . S
N323 C325 1.263 . S
N323 C327 1.389 . S
N324 C325 1.358 . S
N324 C326 1.400 . S
C325 N323 1.263 . S
C325 N324 1.358 . S
C325 H331 0.930 . S
C326 N324 1.400 . S
C326 C327 1.351 . S
C326 H343 0.930 . S
C327 N323 1.389 . S
C327 C326 1.351 . S
C327 H332 0.930 . S
O328 Cu322 1.974 . S
O328 C338 1.282 . S
C329 O330 1.261 . S
C329 O342 1.251 . S
O330 C329 1.261 . S
H331 C325 0.930 . S
H332 C327 0.930 . S
N333 Cu322 1.985 . S
N333 C335 1.335 . S
N333 C336 1.390 . S
N334 C335 1.345 . S
N334 C337 1.336 . S
C335 N333 1.335 . S
C335 N334 1.345 . S
C335 H340 0.930 . S
C336 N333 1.390 . S
C336 C337 1.346 . S
C336 H341 0.930 . S
C337 N334 1.336 . S
C337 C336 1.346 . S
C337 H344 0.929 . S
C338 O328 1.282 . S
C338 O339 1.216 . S
O339 C338 1.216 . S
H340 C335 0.930 . S
H341 C336 0.930 . S
O342 Cu322 1.959 . S
O342 C329 1.251 . S
H343 C326 0.930 . S
H344 C337 0.929 . S
Cu345 N346 1.999 . S
Cu345 O351 1.974 . S
Cu345 N356 1.985 . S
Cu345 O365 1.959 . S
N346 Cu345 1.999 . S
N346 C348 1.263 . S
N346 C350 1.389 . S
N347 C348 1.358 . S
N347 C349 1.400 . S
C348 N346 1.263 . S
C348 N347 1.358 . S
C348 H354 0.930 . S
C349 N347 1.400 . S
C349 C350 1.351 . S
C349 H366 0.930 . S
C350 N346 1.389 . S
C350 C349 1.351 . S
C350 H355 0.930 . S
O351 Cu345 1.974 . S
O351 C361 1.282 . S
C352 O353 1.261 . S
C352 O365 1.251 . S
O353 C352 1.261 . S
H354 C348 0.930 . S
H355 C350 0.930 . S
N356 Cu345 1.985 . S
N356 C358 1.335 . S
N356 C359 1.390 . S
N357 C358 1.345 . S
N357 C360 1.336 . S
C358 N356 1.335 . S
C358 N357 1.345 . S
C358 H363 0.930 . S
C359 N356 1.390 . S
C359 C360 1.346 . S
C359 H364 0.930 . S
C360 N357 1.336 . S
C360 C359 1.346 . S
C360 H367 0.929 . S
C361 O351 1.282 . S
C361 O362 1.216 . S
O362 C361 1.216 . S
H363 C358 0.930 . S
H364 C359 0.930 . S
O365 Cu345 1.959 . S
O365 C352 1.251 . S
H366 C349 0.930 . S
H367 C360 0.929 . S
H368 C376 0.950 . S
H369 C381 0.950 . S
H370 C378 0.950 . S
H371 C380 0.950 . S
H372 C382 0.950 . S
H373 C384 0.950 . S
H374 C386 0.950 . S
H375 C387 0.950 . S
C376 H368 0.950 . S
C376 C377 1.386 . S
C376 C378 1.391 . S
C377 C376 1.386 . S
C377 C381 1.393 . S
C378 H370 0.950 . S
C378 C376 1.391 . S
C378 C379 1.400 . S
C379 C378 1.400 . S
C379 C380 1.398 . S
C379 C385 1.491 1_565 S
C380 H371 0.950 . S
C380 C379 1.398 . S
C380 C381 1.391 . S
C381 H369 0.950 . S
C381 C377 1.393 . S
C381 C380 1.391 . S
C382 H372 0.950 . S
C382 C383 1.386 . S
C382 C384 1.391 . S
C383 C382 1.386 . S
C383 C387 1.393 . S
C384 H373 0.950 . S
C384 C382 1.391 . S
C384 C385 1.400 . S
C385 C379 1.491 1_545 S
C385 C384 1.400 . S
C385 C386 1.398 . S
C386 H374 0.950 . S
C386 C385 1.398 . S
C386 C387 1.391 . S
C387 H375 0.950 . S
C387 C383 1.393 . S
C387 C386 1.391 . S
H388 C396 0.950 . S
H389 C401 0.950 . S
H390 C398 0.950 . S
H391 C400 0.950 . S
H392 C402 0.950 . S
H393 C404 0.950 . S
H394 C406 0.950 . S
H395 C407 0.950 . S
C396 H388 0.950 . S
C396 C397 1.386 . S
C396 C398 1.391 . S
C397 C396 1.386 . S
C397 C401 1.393 . S
C398 H390 0.950 . S
C398 C396 1.391 . S
C398 C399 1.400 . S
C399 C398 1.400 . S
C399 C400 1.398 . S
C399 C405 1.491 1_455 S
C400 H391 0.950 . S
C400 C399 1.398 . S
C400 C401 1.391 . S
C401 H389 0.950 . S
C401 C397 1.393 . S
C401 C400 1.391 . S
C402 H392 0.950 . S
C402 C403 1.386 . S
C402 C404 1.391 . S
C403 C402 1.386 . S
C403 C407 1.393 . S
C404 H393 0.950 . S
C404 C402 1.391 . S
C404 C405 1.400 . S
C405 C399 1.491 1_655 S
C405 C404 1.400 . S
C405 C406 1.398 . S
C406 H394 0.950 . S
C406 C405 1.398 . S
C406 C407 1.391 . S
C407 H395 0.950 . S
C407 C403 1.393 . S
C407 C406 1.391 . S
H408 C416 0.950 . S
H409 C421 0.950 . S
H410 C418 0.950 . S
H411 C420 0.950 . S
H412 C422 0.950 . S
H413 C424 0.950 . S
H414 C426 0.950 . S
H415 C427 0.950 . S
C416 H408 0.950 . S
C416 C417 1.386 . S
C416 C418 1.391 . S
C417 C416 1.386 . S
C417 C421 1.393 . S
C418 H410 0.950 . S
C418 C416 1.391 . S
C418 C419 1.400 . S
C419 C418 1.400 . S
C419 C420 1.398 . S
C419 C425 1.491 1_565 S
C420 H411 0.950 . S
C420 C419 1.398 . S
C420 C421 1.391 . S
C421 H409 0.950 . S
C421 C417 1.393 . S
C421 C420 1.391 . S
C422 H412 0.950 . S
C422 C423 1.386 . S
C422 C424 1.391 . S
C423 C422 1.386 . S
C423 C427 1.393 . S
C424 H413 0.950 . S
C424 C422 1.391 . S
C424 C425 1.400 . S
C425 C419 1.491 1_545 S
C425 C424 1.400 . S
C425 C426 1.398 . S
C426 H414 0.950 . S
C426 C425 1.398 . S
C426 C427 1.391 . S
C427 H415 0.950 . S
C427 C423 1.393 . S
C427 C426 1.391 . S
H428 C436 0.950 . S
H429 C441 0.950 . S
H430 C438 0.950 . S
H431 C440 0.950 . S
H432 C442 0.950 . S
H433 C444 0.950 . S
H434 C446 0.950 . S
H435 C447 0.950 . S
C436 H428 0.950 . S
C436 C437 1.386 . S
C436 C438 1.391 . S
C437 C436 1.386 . S
C437 C441 1.393 . S
C438 H430 0.950 . S
C438 C436 1.391 . S
C438 C439 1.400 . S
C439 C438 1.400 . S
C439 C440 1.398 . S
C439 C445 1.491 1_455 S
C440 H431 0.950 . S
C440 C439 1.398 . S
C440 C441 1.391 . S
C441 H429 0.950 . S
C441 C437 1.393 . S
C441 C440 1.391 . S
C442 H432 0.950 . S
C442 C443 1.386 . S
C442 C444 1.391 . S
C443 C442 1.386 . S
C443 C447 1.393 . S
C444 H433 0.950 . S
C444 C442 1.391 . S
C444 C445 1.400 . S
C445 C439 1.491 1_655 S
C445 C444 1.400 . S
C445 C446 1.398 . S
C446 H434 0.950 . S
C446 C445 1.398 . S
C446 C447 1.391 . S
C447 H435 0.950 . S
C447 C443 1.393 . S
C447 C446 1.391 . S
H448 C456 0.950 . S
H449 C461 0.950 . S
H450 C458 0.950 . S
H451 C460 0.950 . S
H452 C462 0.950 . S
H453 C464 0.949 1_556 S
H454 C466 0.950 . S
H455 C467 0.950 . S
C456 H448 0.950 . S
C456 C457 1.386 . S
C456 C458 1.391 . S
C457 C456 1.386 . S
C457 C461 1.393 . S
C458 H450 0.950 . S
C458 C456 1.391 . S
C458 C459 1.400 . S
C459 C458 1.400 . S
C459 C460 1.398 . S
C459 C465 1.491 . S
C460 H451 0.950 . S
C460 C459 1.398 . S
C460 C461 1.391 . S
C461 H449 0.950 . S
C461 C457 1.393 . S
C461 C460 1.391 . S
C462 H452 0.950 . S
C462 C463 1.386 . S
C462 C464 1.388 1_556 S
C463 C462 1.386 . S
C463 C467 1.393 1_556 S
C464 H453 0.949 1_554 S
C464 C462 1.388 1_554 S
C464 C465 1.405 . S
C465 C459 1.491 . S
C465 C464 1.405 . S
C465 C466 1.398 . S
C466 H454 0.950 . S
C466 C465 1.398 . S
C466 C467 1.391 . S
C467 H455 0.950 . S
C467 C463 1.393 1_554 S
C467 C466 1.391 . S
H468 C476 0.950 . S
H469 C481 0.950 . S
H470 C478 0.950 1_554 S
H471 C480 0.950 . S
H472 C482 0.950 . S
H473 C484 0.950 . S
H474 C486 0.950 . S
H475 C487 0.950 . S
C476 H468 0.950 . S
C476 C477 1.386 . S
C476 C478 1.391 . S
C477 C476 1.386 . S
C477 C481 1.393 . S
C478 H470 0.950 1_556 S
C478 C476 1.391 . S
C478 C479 1.400 . S
C479 C478 1.400 . S
C479 C480 1.398 . S
C479 C485 1.491 . S
C480 H471 0.950 . S
C480 C479 1.398 . S
C480 C481 1.391 . S
C481 H469 0.950 . S
C481 C477 1.393 . S
C481 C480 1.391 . S
C482 H472 0.950 . S
C482 C483 1.386 1_556 S
C482 C484 1.391 . S
C483 C482 1.386 1_554 S
C483 C487 1.393 . S
C484 H473 0.950 . S
C484 C482 1.391 . S
C484 C485 1.400 . S
C485 C479 1.491 . S
C485 C484 1.400 . S
C485 C486 1.398 1_556 S
C486 H474 0.950 . S
C486 C485 1.398 1_554 S
C486 C487 1.391 . S
C487 H475 0.950 . S
C487 C483 1.393 . S
C487 C486 1.391 . S
H488 C496 0.950 . S
H489 C501 0.950 . S
H490 C498 0.950 . S
H491 C500 0.950 . S
H492 C502 0.950 . S
H493 C504 0.950 . S
H494 C506 0.950 . S
H495 C507 0.950 . S
C496 H488 0.950 . S
C496 C497 1.386 1_554 S
C496 C498 1.391 . S
C497 C496 1.386 1_556 S
C497 C501 1.393 . S
C498 H490 0.950 . S
C498 C496 1.391 . S
C498 C499 1.400 . S
C499 C498 1.400 . S
C499 C500 1.398 1_554 S
C499 C505 1.491 . S
C500 H491 0.950 . S
C500 C499 1.398 1_556 S
C500 C501 1.391 . S
C501 H489 0.950 . S
C501 C497 1.393 . S
C501 C500 1.391 . S
C502 H492 0.950 . S
C502 C503 1.386 . S
C502 C504 1.391 . S
C503 C502 1.386 . S
C503 C507 1.393 . S
C504 H493 0.950 . S
C504 C502 1.391 . S
C504 C505 1.400 . S
C505 C499 1.491 . S
C505 C504 1.400 . S
C505 C506 1.398 . S
C506 H494 0.950 . S
C506 C505 1.398 . S
C506 C507 1.391 . S
C507 H495 0.950 . S
C507 C503 1.393 . S
C507 C506 1.391 . S
H508 C516 0.950 . S
H509 C521 0.950 . S
H510 C518 0.950 . S
H511 C520 0.950 . S
H512 C522 0.950 1_554 S
H513 C524 0.950 . S
H514 C526 0.950 . S
H515 C527 0.950 . S
C516 H508 0.950 . S
C516 C517 1.386 1_556 S
C516 C518 1.391 . S
C517 C516 1.386 1_554 S
C517 C521 1.393 . S
C518 H510 0.950 . S
C518 C516 1.391 . S
C518 C519 1.400 . S
C519 C518 1.400 . S
C519 C520 1.398 1_556 S
C519 C525 1.491 . S
C520 H511 0.950 . S
C520 C519 1.398 1_554 S
C520 C521 1.391 . S
C521 H509 0.950 . S
C521 C517 1.393 . S
C521 C520 1.391 . S
C522 H512 0.950 1_556 S
C522 C523 1.386 . S
C522 C524 1.391 1_556 S
C523 C522 1.386 . S
C523 C527 1.393 . S
C524 H513 0.950 . S
C524 C522 1.391 1_554 S
C524 C525 1.400 1_554 S
C525 C519 1.491 . S
C525 C524 1.400 1_556 S
C525 C526 1.398 . S
C526 H514 0.950 . S
C526 C525 1.398 . S
C526 C527 1.391 . S
C527 H515 0.950 . S
C527 C523 1.393 . S
C527 C526 1.391 . S
H528 C536 0.950 . S
H529 C541 0.950 . S
H530 C538 0.950 . S
H531 C540 0.950 . S
H532 C542 0.950 . S
H533 C544 0.950 . S
H534 C546 0.950 . S
H535 C547 0.950 . S
C536 H528 0.950 . S
C536 C537 1.386 . S
C536 C538 1.391 . S
C537 C536 1.386 . S
C537 C541 1.393 . S
C538 H530 0.950 . S
C538 C536 1.391 . S
C538 C539 1.400 . S
C539 C538 1.400 . S
C539 C540 1.398 . S
C539 C545 1.491 . S
C540 H531 0.950 . S
C540 C539 1.398 . S
C540 C541 1.391 . S
C541 H529 0.950 . S
C541 C537 1.393 . S
C541 C540 1.391 . S
C542 H532 0.950 . S
C542 C543 1.386 . S
C542 C544 1.391 . S
C543 C542 1.386 . S
C543 C547 1.393 . S
C544 H533 0.950 . S
C544 C542 1.391 . S
C544 C545 1.400 . S
C545 C539 1.491 . S
C545 C544 1.400 . S
C545 C546 1.398 . S
C546 H534 0.950 . S
C546 C545 1.398 . S
C546 C547 1.391 . S
C547 H535 0.950 . S
C547 C543 1.393 . S
C547 C546 1.391 . S
H548 C556 0.950 . S
H549 C561 0.950 . S
H550 C558 0.950 . S
H551 C560 0.950 . S
H552 C562 0.950 . S
H553 C564 0.950 . S
H554 C566 0.950 . S
H555 C567 0.950 . S
C556 H548 0.950 . S
C556 C557 1.386 . S
C556 C558 1.391 . S
C557 C556 1.386 . S
C557 C561 1.393 . S
C558 H550 0.950 . S
C558 C556 1.391 . S
C558 C559 1.400 . S
C559 C558 1.400 . S
C559 C560 1.398 . S
C559 C565 1.491 . S
C560 H551 0.950 . S
C560 C559 1.398 . S
C560 C561 1.391 . S
C561 H549 0.950 . S
C561 C557 1.393 . S
C561 C560 1.391 . S
C562 H552 0.950 . S
C562 C563 1.386 . S
C562 C564 1.391 . S
C563 C562 1.386 . S
C563 C567 1.393 . S
C564 H553 0.950 . S
C564 C562 1.391 . S
C564 C565 1.400 . S
C565 C559 1.491 . S
C565 C564 1.400 . S
C565 C566 1.398 . S
C566 H554 0.950 . S
C566 C565 1.398 . S
C566 C567 1.391 . S
C567 H555 0.950 . S
C567 C563 1.393 . S
C567 C566 1.391 . S
H568 C576 0.950 . S
H569 C581 0.950 . S
H570 C578 0.950 . S
H571 C580 0.950 . S
H572 C582 0.950 . S
H573 C584 0.950 . S
H574 C586 0.950 . S
H575 C587 0.950 . S
C576 H568 0.950 . S
C576 C577 1.386 . S
C576 C578 1.391 . S
C577 C576 1.386 . S
C577 C581 1.393 . S
C578 H570 0.950 . S
C578 C576 1.391 . S
C578 C579 1.400 . S
C579 C578 1.400 . S
C579 C580 1.398 . S
C579 C585 1.491 . S
C580 H571 0.950 . S
C580 C579 1.398 . S
C580 C581 1.391 . S
C581 H569 0.950 . S
C581 C577 1.393 . S
C581 C580 1.391 . S
C582 H572 0.950 . S
C582 C583 1.386 . S
C582 C584 1.391 . S
C583 C582 1.386 . S
C583 C587 1.393 . S
C584 H573 0.950 . S
C584 C582 1.391 . S
C584 C585 1.400 . S
C585 C579 1.491 . S
C585 C584 1.400 . S
C585 C586 1.398 . S
C586 H574 0.950 . S
C586 C585 1.398 . S
C586 C587 1.391 . S
C587 H575 0.950 . S
C587 C583 1.393 . S
C587 C586 1.391 . S
H588 C596 0.950 . S
H589 C601 0.950 . S
H590 C598 0.950 . S
H591 C600 0.950 . S
H592 C602 0.950 . S
H593 C604 0.950 . S
H594 C606 0.950 . S
H595 C607 0.950 . S
C596 H588 0.950 . S
C596 C597 1.386 . S
C596 C598 1.391 . S
C597 C596 1.386 . S
C597 C601 1.393 . S
C598 H590 0.950 . S
C598 C596 1.391 . S
C598 C599 1.400 . S
C599 C598 1.400 . S
C599 C600 1.398 . S
C599 C605 1.491 . S
C600 H591 0.950 . S
C600 C599 1.398 . S
C600 C601 1.391 . S
C601 H589 0.950 . S
C601 C597 1.393 . S
C601 C600 1.391 . S
C602 H592 0.950 . S
C602 C603 1.386 . S
C602 C604 1.391 . S
C603 C602 1.386 . S
C603 C607 1.393 . S
C604 H593 0.950 . S
C604 C602 1.391 . S
C604 C605 1.400 . S
C605 C599 1.491 . S
C605 C604 1.400 . S
C605 C606 1.398 . S
C606 H594 0.950 . S
C606 C605 1.398 . S
C606 C607 1.391 . S
C607 H595 0.950 . S
C607 C603 1.393 . S
C607 C606 1.391 . S
H608 C616 0.950 . S
H609 C621 0.950 . S
H610 C618 0.950 . S
H611 C620 0.950 . S
H612 C622 0.950 . S
H613 C624 0.950 . S
H614 C626 0.950 . S
H615 C627 0.950 . S
C616 H608 0.950 . S
C616 C617 1.386 . S
C616 C618 1.391 . S
C617 C616 1.386 . S
C617 C621 1.393 . S
C618 H610 0.950 . S
C618 C616 1.391 . S
C618 C619 1.400 . S
C619 C618 1.400 . S
C619 C620 1.398 . S
C619 C625 1.491 1_565 S
C620 H611 0.950 . S
C620 C619 1.398 . S
C620 C621 1.391 . S
C621 H609 0.950 . S
C621 C617 1.393 . S
C621 C620 1.391 . S
C622 H612 0.950 . S
C622 C623 1.386 . S
C622 C624 1.391 . S
C623 C622 1.386 . S
C623 C627 1.393 . S
C624 H613 0.950 . S
C624 C622 1.391 . S
C624 C625 1.400 . S
C625 C619 1.491 1_545 S
C625 C624 1.400 . S
C625 C626 1.398 . S
C626 H614 0.950 . S
C626 C625 1.398 . S
C626 C627 1.391 . S
C627 H615 0.950 . S
C627 C623 1.393 . S
C627 C626 1.391 . S
H628 C636 0.950 . S
H629 C641 0.950 . S
H630 C638 0.950 . S
H631 C640 0.950 . S
H632 C642 0.950 . S
H633 C644 0.950 . S
H634 C646 0.950 . S
H635 C647 0.950 . S
C636 H628 0.950 . S
C636 C637 1.386 . S
C636 C638 1.391 . S
C637 C636 1.386 . S
C637 C641 1.393 . S
C638 H630 0.950 . S
C638 C636 1.391 . S
C638 C639 1.400 . S
C639 C638 1.400 . S
C639 C640 1.398 . S
C639 C645 1.491 1_655 S
C640 H631 0.950 . S
C640 C639 1.398 . S
C640 C641 1.391 . S
C641 H629 0.950 . S
C641 C637 1.393 . S
C641 C640 1.391 . S
C642 H632 0.950 . S
C642 C643 1.386 . S
C642 C644 1.391 . S
C643 C642 1.386 . S
C643 C647 1.393 . S
C644 H633 0.950 . S
C644 C642 1.391 . S
C644 C645 1.400 . S
C645 C639 1.491 1_455 S
C645 C644 1.400 . S
C645 C646 1.398 . S
C646 H634 0.950 . S
C646 C645 1.398 . S
C646 C647 1.391 . S
C647 H635 0.950 . S
C647 C643 1.393 . S
C647 C646 1.391 . S
H648 C656 0.950 . S
H649 C661 0.950 . S
H650 C658 0.950 . S
H651 C660 0.950 . S
H652 C662 0.950 . S
H653 C664 0.950 . S
H654 C666 0.950 . S
H655 C667 0.950 . S
C656 H648 0.950 . S
C656 C657 1.386 . S
C656 C658 1.391 . S
C657 C656 1.386 . S
C657 C661 1.393 . S
C658 H650 0.950 . S
C658 C656 1.391 . S
C658 C659 1.400 . S
C659 C658 1.400 . S
C659 C660 1.398 . S
C659 C665 1.491 1_565 S
C660 H651 0.950 . S
C660 C659 1.398 . S
C660 C661 1.391 . S
C661 H649 0.950 . S
C661 C657 1.393 . S
C661 C660 1.391 . S
C662 H652 0.950 . S
C662 C663 1.386 . S
C662 C664 1.391 . S
C663 C662 1.386 . S
C663 C667 1.393 . S
C664 H653 0.950 . S
C664 C662 1.391 . S
C664 C665 1.400 . S
C665 C659 1.491 1_545 S
C665 C664 1.400 . S
C665 C666 1.398 . S
C666 H654 0.950 . S
C666 C665 1.398 . S
C666 C667 1.391 . S
C667 H655 0.950 . S
C667 C663 1.393 . S
C667 C666 1.391 . S
H668 C676 0.950 . S
H669 C681 0.950 . S
H670 C678 0.950 . S
H671 C680 0.950 . S
H672 C682 0.950 . S
H673 C684 0.950 . S
H674 C686 0.950 . S
H675 C687 0.950 . S
C676 H668 0.950 . S
C676 C677 1.386 . S
C676 C678 1.391 . S
C677 C676 1.386 . S
C677 C681 1.393 . S
C678 H670 0.950 . S
C678 C676 1.391 . S
C678 C679 1.400 . S
C679 C678 1.400 . S
C679 C680 1.398 . S
C679 C685 1.491 1_655 S
C680 H671 0.950 . S
C680 C679 1.398 . S
C680 C681 1.391 . S
C681 H669 0.950 . S
C681 C677 1.393 . S
C681 C680 1.391 . S
C682 H672 0.950 . S
C682 C683 1.386 . S
C682 C684 1.391 . S
C683 C682 1.386 . S
C683 C687 1.393 . S
C684 H673 0.950 . S
C684 C682 1.391 . S
C684 C685 1.400 . S
C685 C679 1.491 1_455 S
C685 C684 1.400 . S
C685 C686 1.398 . S
C686 H674 0.950 . S
C686 C685 1.398 . S
C686 C687 1.391 . S
C687 H675 0.950 . S
C687 C683 1.393 . S
C687 C686 1.391 . S
H688 C696 0.950 . S
H689 C701 0.950 . S
H690 C698 0.950 . S
H691 C700 0.950 . S
H692 C702 0.950 . S
H693 C704 0.950 . S
H694 C706 0.950 . S
H695 C707 0.950 . S
C696 H688 0.950 . S
C696 C697 1.386 . S
C696 C698 1.391 . S
C697 C696 1.386 . S
C697 C701 1.393 . S
C698 H690 0.950 . S
C698 C696 1.391 . S
C698 C699 1.400 . S
C699 C698 1.400 . S
C699 C700 1.398 . S
C699 C705 1.491 . S
C700 H691 0.950 . S
C700 C699 1.398 . S
C700 C701 1.391 . S
C701 H689 0.950 . S
C701 C697 1.393 . S
C701 C700 1.391 . S
C702 H692 0.950 . S
C702 C703 1.386 . S
C702 C704 1.391 . S
C703 C702 1.386 . S
C703 C707 1.393 . S
C704 H693 0.950 . S
C704 C702 1.391 . S
C704 C705 1.400 . S
C705 C699 1.491 . S
C705 C704 1.400 . S
C705 C706 1.398 . S
C706 H694 0.950 . S
C706 C705 1.398 . S
C706 C707 1.391 . S
C707 H695 0.950 . S
C707 C703 1.393 . S
C707 C706 1.391 . S
H708 C716 0.950 . S
H709 C721 0.950 . S
H710 C718 0.950 . S
H711 C720 0.950 . S
H712 C722 0.950 . S
H713 C724 0.950 . S
H714 C726 0.950 . S
H715 C727 0.950 . S
C716 H708 0.950 . S
C716 C717 1.386 . S
C716 C718 1.391 . S
C717 C716 1.386 . S
C717 C721 1.393 . S
C718 H710 0.950 . S
C718 C716 1.391 . S
C718 C719 1.400 . S
C719 C718 1.400 . S
C719 C720 1.398 . S
C719 C725 1.491 . S
C720 H711 0.950 . S
C720 C719 1.398 . S
C720 C721 1.391 . S
C721 H709 0.950 . S
C721 C717 1.393 . S
C721 C720 1.391 . S
C722 H712 0.950 . S
C722 C723 1.386 . S
C722 C724 1.391 . S
C723 C722 1.386 . S
C723 C727 1.393 . S
C724 H713 0.950 . S
C724 C722 1.391 . S
C724 C725 1.400 . S
C725 C719 1.491 . S
C725 C724 1.400 . S
C725 C726 1.398 . S
C726 H714 0.950 . S
C726 C725 1.398 . S
C726 C727 1.391 . S
C727 H715 0.950 . S
C727 C723 1.393 . S
C727 C726 1.391 . S
H728 C736 0.950 . S
H729 C741 0.950 . S
H730 C738 0.950 . S
H731 C740 0.950 . S
H732 C742 0.950 . S
H733 C744 0.950 . S
H734 C746 0.950 . S
H735 C747 0.950 . S
C736 H728 0.950 . S
C736 C737 1.386 . S
C736 C738 1.391 . S
C737 C736 1.386 . S
C737 C741 1.393 . S
C738 H730 0.950 . S
C738 C736 1.391 . S
C738 C739 1.400 . S
C739 C738 1.400 . S
C739 C740 1.398 . S
C739 C745 1.491 . S
C740 H731 0.950 . S
C740 C739 1.398 . S
C740 C741 1.391 . S
C741 H729 0.950 . S
C741 C737 1.393 . S
C741 C740 1.391 . S
C742 H732 0.950 . S
C742 C743 1.386 . S
C742 C744 1.391 . S
C743 C742 1.386 . S
C743 C747 1.393 . S
C744 H733 0.950 . S
C744 C742 1.391 . S
C744 C745 1.400 . S
C745 C739 1.491 . S
C745 C744 1.400 . S
C745 C746 1.398 . S
C746 H734 0.950 . S
C746 C745 1.398 . S
C746 C747 1.391 . S
C747 H735 0.950 . S
C747 C743 1.393 . S
C747 C746 1.391 . S
H748 C756 0.950 . S
H749 C761 0.950 . S
H750 C758 0.950 . S
H751 C760 0.950 . S
H752 C762 0.950 . S
H753 C764 0.950 . S
H754 C766 0.950 . S
H755 C767 0.950 . S
C756 H748 0.950 . S
C756 C757 1.386 . S
C756 C758 1.391 . S
C757 C756 1.386 . S
C757 C761 1.393 . S
C758 H750 0.950 . S
C758 C756 1.391 . S
C758 C759 1.400 . S
C759 C758 1.400 . S
C759 C760 1.398 . S
C759 C765 1.491 . S
C760 H751 0.950 . S
C760 C759 1.398 . S
C760 C761 1.391 . S
C761 H749 0.950 . S
C761 C757 1.393 . S
C761 C760 1.391 . S
C762 H752 0.950 . S
C762 C763 1.386 . S
C762 C764 1.391 . S
C763 C762 1.386 . S
C763 C767 1.393 . S
C764 H753 0.950 . S
C764 C762 1.391 . S
C764 C765 1.400 . S
C765 C759 1.491 . S
C765 C764 1.400 . S
C765 C766 1.398 . S
C766 H754 0.950 . S
C766 C765 1.398 . S
C766 C767 1.391 . S
C767 H755 0.950 . S
C767 C763 1.393 . S
C767 C766 1.391 . S
H768 C776 0.950 . S
H769 C781 0.950 . S
H770 C778 0.950 . S
H771 C780 0.950 . S
H772 C782 0.950 . S
H773 C784 0.950 . S
H774 C786 0.950 . S
H775 C787 0.950 . S
C776 H768 0.950 . S
C776 C777 1.386 . S
C776 C778 1.391 . S
C777 C776 1.386 . S
C777 C781 1.393 . S
C778 H770 0.950 . S
C778 C776 1.391 . S
C778 C779 1.400 . S
C779 C778 1.400 . S
C779 C780 1.398 . S
C779 C785 1.491 . S
C780 H771 0.950 . S
C780 C779 1.398 . S
C780 C781 1.391 . S
C781 H769 0.950 . S
C781 C777 1.393 . S
C781 C780 1.391 . S
C782 H772 0.950 . S
C782 C783 1.386 . S
C782 C784 1.391 . S
C783 C782 1.386 . S
C783 C787 1.393 . S
C784 H773 0.950 . S
C784 C782 1.391 . S
C784 C785 1.400 . S
C785 C779 1.491 . S
C785 C784 1.400 . S
C785 C786 1.398 . S
C786 H774 0.950 . S
C786 C785 1.398 . S
C786 C787 1.391 . S
C787 H775 0.950 . S
C787 C783 1.393 . S
C787 C786 1.391 . S
H788 C796 0.950 . S
H789 C801 0.950 . S
H790 C798 0.950 . S
H791 C800 0.950 . S
H792 C802 0.950 . S
H793 C804 0.950 . S
H794 C806 0.950 . S
H795 C807 0.950 . S
C796 H788 0.950 . S
C796 C797 1.386 . S
C796 C798 1.391 . S
C797 C796 1.386 . S
C797 C801 1.393 . S
C798 H790 0.950 . S
C798 C796 1.391 . S
C798 C799 1.400 . S
C799 C798 1.400 . S
C799 C800 1.398 . S
C799 C805 1.491 . S
C800 H791 0.950 . S
C800 C799 1.398 . S
C800 C801 1.391 . S
C801 H789 0.950 . S
C801 C797 1.393 . S
C801 C800 1.391 . S
C802 H792 0.950 . S
C802 C803 1.386 . S
C802 C804 1.391 . S
C803 C802 1.386 . S
C803 C807 1.393 . S
C804 H793 0.950 . S
C804 C802 1.391 . S
C804 C805 1.400 . S
C805 C799 1.491 . S
C805 C804 1.400 . S
C805 C806 1.398 . S
C806 H794 0.950 . S
C806 C805 1.398 . S
C806 C807 1.391 . S
C807 H795 0.950 . S
C807 C803 1.393 . S
C807 C806 1.391 . S
H808 C816 0.950 . S
H809 C821 0.950 . S
H810 C818 0.950 . S
H811 C820 0.950 . S
H812 C822 0.950 . S
H813 C824 0.950 . S
H814 C826 0.950 . S
H815 C827 0.950 . S
C816 H808 0.950 . S
C816 C817 1.386 . S
C816 C818 1.391 . S
C817 C816 1.386 . S
C817 C821 1.393 . S
C818 H810 0.950 . S
C818 C816 1.391 . S
C818 C819 1.400 . S
C819 C818 1.400 . S
C819 C820 1.398 . S
C819 C825 1.491 . S
C820 H811 0.950 . S
C820 C819 1.398 . S
C820 C821 1.391 . S
C821 H809 0.950 . S
C821 C817 1.393 . S
C821 C820 1.391 . S
C822 H812 0.950 . S
C822 C823 1.386 . S
C822 C824 1.391 . S
C823 C822 1.386 . S
C823 C827 1.393 . S
C824 H813 0.950 . S
C824 C822 1.391 . S
C824 C825 1.400 . S
C825 C819 1.491 . S
C825 C824 1.400 . S
C825 C826 1.398 . S
C826 H814 0.950 . S
C826 C825 1.398 . S
C826 C827 1.391 . S
C827 H815 0.950 . S
C827 C823 1.393 . S
C827 C826 1.391 . S
H828 C836 0.950 . S
H829 C841 0.950 . S
H830 C838 0.950 . S
H831 C840 0.950 . S
H832 C842 0.950 . S
H833 C844 0.950 . S
H834 C846 0.950 . S
H835 C847 0.950 . S
C836 H828 0.950 . S
C836 C837 1.386 . S
C836 C838 1.391 . S
C837 C836 1.386 . S
C837 C841 1.393 . S
C838 H830 0.950 . S
C838 C836 1.391 . S
C838 C839 1.400 . S
C839 C838 1.400 . S
C839 C840 1.398 . S
C839 C845 1.491 . S
C840 H831 0.950 . S
C840 C839 1.398 . S
C840 C841 1.391 . S
C841 H829 0.950 . S
C841 C837 1.393 . S
C841 C840 1.391 . S
C842 H832 0.950 . S
C842 C843 1.386 . S
C842 C844 1.391 . S
C843 C842 1.386 . S
C843 C847 1.393 . S
C844 H833 0.950 . S
C844 C842 1.391 . S
C844 C845 1.400 . S
C845 C839 1.491 . S
C845 C844 1.400 . S
C845 C846 1.398 . S
C846 H834 0.950 . S
C846 C845 1.398 . S
C846 C847 1.391 . S
C847 H835 0.950 . S
C847 C843 1.393 . S
C847 C846 1.391 . S
H848 C856 0.950 . S
H849 C861 0.950 . S
H850 C858 0.950 . S
H851 C860 0.950 . S
H852 C862 0.950 . S
H853 C864 0.950 . S
H854 C866 0.950 . S
H855 C867 0.934 1_554 S
C856 H848 0.950 . S
C856 C857 1.386 . S
C856 C858 1.391 . S
C857 C856 1.386 . S
C857 C861 1.393 . S
C858 H850 0.950 . S
C858 C856 1.391 . S
C858 C859 1.400 . S
C859 C858 1.400 . S
C859 C860 1.398 . S
C859 C865 1.491 . S
C860 H851 0.950 . S
C860 C859 1.398 . S
C860 C861 1.391 . S
C861 H849 0.950 . S
C861 C857 1.393 . S
C861 C860 1.391 . S
C862 H852 0.950 . S
C862 C863 1.386 . S
C862 C864 1.391 . S
C863 C862 1.386 . S
C863 C867 1.396 . S
C864 H853 0.950 . S
C864 C862 1.391 . S
C864 C865 1.400 . S
C865 C859 1.491 . S
C865 C864 1.400 . S
C865 C866 1.398 . S
C866 H854 0.950 . S
C866 C865 1.398 . S
C866 C867 1.404 . S
C867 H855 0.934 1_556 S
C867 C863 1.396 . S
C867 C866 1.404 . S
H868 C876 0.950 . S
H869 C881 0.950 . S
H870 C878 0.950 . S
H871 C880 0.950 . S
H872 C882 0.950 . S
H873 C884 0.950 . S
H874 C886 0.950 . S
H875 C887 0.950 . S
C876 H868 0.950 . S
C876 C877 1.386 . S
C876 C878 1.391 . S
C877 C876 1.386 . S
C877 C881 1.393 . S
C878 H870 0.950 . S
C878 C876 1.391 . S
C878 C879 1.400 . S
C879 C878 1.400 . S
C879 C880 1.398 . S
C879 C885 1.491 . S
C880 H871 0.950 . S
C880 C879 1.398 . S
C880 C881 1.391 . S
C881 H869 0.950 . S
C881 C877 1.393 . S
C881 C880 1.391 . S
C882 H872 0.950 . S
C882 C883 1.386 . S
C882 C884 1.391 . S
C883 C882 1.386 . S
C883 C887 1.393 . S
C884 H873 0.950 . S
C884 C882 1.391 . S
C884 C885 1.400 . S
C885 C879 1.491 . S
C885 C884 1.400 . S
C885 C886 1.398 . S
C886 H874 0.950 . S
C886 C885 1.398 . S
C886 C887 1.391 . S
C887 H875 0.950 . S
C887 C883 1.393 . S
C887 C886 1.391 . S
H888 C896 0.950 . S
H889 C901 0.950 1_554 S
H890 C898 0.950 . S
H891 C900 0.950 . S
H892 C902 0.950 . S
H893 C904 0.950 . S
H894 C906 0.950 . S
H895 C907 0.950 . S
C896 H888 0.950 . S
C896 C897 1.386 . S
C896 C898 1.391 . S
C897 C896 1.386 . S
C897 C901 1.393 . S
C898 H890 0.950 . S
C898 C896 1.391 . S
C898 C899 1.400 . S
C899 C898 1.400 . S
C899 C900 1.398 . S
C899 C905 1.491 . S
C900 H891 0.950 . S
C900 C899 1.398 . S
C900 C901 1.391 . S
C901 H889 0.950 1_556 S
C901 C897 1.393 . S
C901 C900 1.391 . S
C902 H892 0.950 . S
C902 C903 1.386 . S
C902 C904 1.391 . S
C903 C902 1.386 . S
C903 C907 1.393 . S
C904 H893 0.950 . S
C904 C902 1.391 . S
C904 C905 1.400 . S
C905 C899 1.491 . S
C905 C904 1.400 . S
C905 C906 1.398 . S
C906 H894 0.950 . S
C906 C905 1.398 . S
C906 C907 1.391 . S
C907 H895 0.950 . S
C907 C903 1.393 . S
C907 C906 1.391 . S
H908 C916 0.950 . S
H909 C921 0.950 . S
H910 C918 0.950 . S
H911 C920 0.950 . S
H912 C922 0.959 . S
H913 C924 0.950 . S
H914 C926 0.950 . S
H915 C927 0.950 . S
C916 H908 0.950 . S
C916 C917 1.386 . S
C916 C918 1.391 . S
C917 C916 1.386 . S
C917 C921 1.393 . S
C918 H910 0.950 . S
C918 C916 1.391 . S
C918 C919 1.400 . S
C919 C918 1.400 . S
C919 C920 1.398 . S
C919 C925 1.491 . S
C920 H911 0.950 . S
C920 C919 1.398 . S
C920 C921 1.391 . S
C921 H909 0.950 . S
C921 C917 1.393 . S
C921 C920 1.391 . S
C922 H912 0.959 . S
C922 C923 1.386 . S
C922 C924 1.391 . S
C923 C922 1.386 . S
C923 C927 1.393 . S
C924 H913 0.950 . S
C924 C922 1.391 . S
C924 C925 1.400 . S
C925 C919 1.491 . S
C925 C924 1.400 . S
C925 C926 1.398 . S
C926 H914 0.950 . S
C926 C925 1.398 . S
C926 C927 1.391 . S
C927 H915 0.950 . S
C927 C923 1.393 . S
C927 C926 1.391 . S
H928 C936 0.950 . S
H929 C941 0.950 . S
H930 C938 0.950 . S
H931 C940 0.950 . S
H932 C942 0.950 . S
H933 C944 0.950 . S
H934 C946 0.950 . S
H935 C947 0.950 . S
C936 H928 0.950 . S
C936 C937 1.386 . S
C936 C938 1.391 . S
C937 C936 1.386 . S
C937 C941 1.393 . S
C938 H930 0.950 . S
C938 C936 1.391 . S
C938 C939 1.400 . S
C939 C938 1.400 . S
C939 C940 1.398 . S
C939 C945 1.491 . S
C940 H931 0.950 . S
C940 C939 1.398 . S
C940 C941 1.391 . S
C941 H929 0.950 . S
C941 C937 1.393 . S
C941 C940 1.391 . S
C942 H932 0.950 . S
C942 C943 1.386 . S
C942 C944 1.391 . S
C943 C942 1.386 . S
C943 C947 1.393 . S
C944 H933 0.950 . S
C944 C942 1.391 . S
C944 C945 1.400 . S
C945 C939 1.491 . S
C945 C944 1.400 . S
C945 C946 1.398 . S
C946 H934 0.950 . S
C946 C945 1.398 . S
C946 C947 1.391 . S
C947 H935 0.950 . S
C947 C943 1.393 . S
C947 C946 1.391 . S
H948 C956 0.950 . S
H949 C961 0.950 . S
H950 C958 0.950 . S
H951 C960 0.950 . S
H952 C962 0.950 . S
H953 C964 0.950 . S
H954 C966 0.950 . S
H955 C967 0.950 . S
C956 H948 0.950 . S
C956 C957 1.386 . S
C956 C958 1.391 . S
C957 C956 1.386 . S
C957 C961 1.393 . S
C958 H950 0.950 . S
C958 C956 1.391 . S
C958 C959 1.400 . S
C959 C958 1.400 . S
C959 C960 1.398 . S
C959 C965 1.491 . S
C960 H951 0.950 . S
C960 C959 1.398 . S
C960 C961 1.391 . S
C961 H949 0.950 . S
C961 C957 1.393 . S
C961 C960 1.391 . S
C962 H952 0.950 . S
C962 C963 1.386 . S
C962 C964 1.391 . S
C963 C962 1.386 . S
C963 C967 1.393 . S
C964 H953 0.950 . S
C964 C962 1.391 . S
C964 C965 1.400 . S
C965 C959 1.491 . S
C965 C964 1.400 . S
C965 C966 1.398 . S
C966 H954 0.950 . S
C966 C965 1.398 . S
C966 C967 1.391 . S
C967 H955 0.950 . S
C967 C963 1.393 . S
C967 C966 1.391 . S
H968 C976 0.950 . S
H969 C981 0.950 . S
H970 C978 0.950 . S
H971 C980 0.950 . S
H972 C982 0.950 . S
H973 C984 0.950 . S
H974 C986 0.950 . S
H975 C987 0.950 . S
C976 H968 0.950 . S
C976 C977 1.386 . S
C976 C978 1.391 . S
C977 C976 1.386 . S
C977 C981 1.393 . S
C978 H970 0.950 . S
C978 C976 1.391 . S
C978 C979 1.400 . S
C979 C978 1.400 . S
C979 C980 1.398 . S
C979 C985 1.491 . S
C980 H971 0.950 . S
C980 C979 1.398 . S
C980 C981 1.391 . S
C981 H969 0.950 . S
C981 C977 1.393 . S
C981 C980 1.391 . S
C982 H972 0.950 . S
C982 C983 1.386 . S
C982 C984 1.391 . S
C983 C982 1.386 . S
C983 C987 1.393 . S
C984 H973 0.950 . S
C984 C982 1.391 . S
C984 C985 1.400 . S
C985 C979 1.491 . S
C985 C984 1.400 . S
C985 C986 1.398 . S
C986 H974 0.950 . S
C986 C985 1.398 . S
C986 C987 1.391 . S
C987 H975 0.950 . S
C987 C983 1.393 . S
C987 C986 1.391 . S
H988 C996 0.950 . S
H989 C1001 0.950 . S
H990 C998 0.950 . S
H991 C1000 0.950 . S
H992 C1002 0.950 . S
H993 C1004 0.950 . S
H994 C1006 0.950 . S
H995 C1007 0.950 . S
C996 H988 0.950 . S
C996 C997 1.386 . S
C996 C998 1.391 . S
C997 C996 1.386 . S
C997 C1001 1.393 . S
C998 H990 0.950 . S
C998 C996 1.391 . S
C998 C999 1.400 . S
C999 C998 1.400 . S
C999 C1000 1.398 . S
C999 C1005 1.491 . S
C1000 H991 0.950 . S
C1000 C999 1.398 . S
C1000 C1001 1.391 . S
C1001 H989 0.950 . S
C1001 C997 1.393 . S
C1001 C1000 1.391 . S
C1002 H992 0.950 . S
C1002 C1003 1.386 . S
C1002 C1004 1.391 . S
C1003 C1002 1.386 . S
C1003 C1007 1.393 . S
C1004 H993 0.950 . S
C1004 C1002 1.391 . S
C1004 C1005 1.400 . S
C1005 C999 1.491 . S
C1005 C1004 1.400 . S
C1005 C1006 1.398 . S
C1006 H994 0.950 . S
C1006 C1005 1.398 . S
C1006 C1007 1.391 . S
C1007 H995 0.950 . S
C1007 C1003 1.393 . S
C1007 C1006 1.391 . S
C377 N255 1.481 . S
C383 C16 1.614 . S
C397 C39 1.606 . S
C403 N186 1.515 . S
C417 C62 1.612 . S
C423 N209 1.483 . S
C437 N232 1.511 . S
C443 C85 1.608 . S
C457 C108 1.607 . S
C463 N117 1.513 . S
C477 C131 1.613 . S
C483 N140 1.481 . S
C497 N163 1.509 . S
C503 C154 1.608 . S
C517 N94 1.512 . S
C523 C177 1.604 . S
C537 N71 1.481 . S
C543 C200 1.613 . S
C557 C223 1.612 . S
C563 N2 1.496 . S
C577 N25 1.515 . S
C583 C246 1.604 . S
C597 C269 1.614 . S
C603 N48 1.485 . S
C617 C292 1.613 . S
C623 N301 1.492 . S
C637 C315 1.613 . S
C643 N324 1.481 . S
C657 N347 1.515 . S
C663 C338 1.605 . S
C677 N278 1.482 . S
C683 C361 1.614 . S
C697 C99 1.348 . S
C703 C7 1.341 . S
C717 C30 1.344 . S
C723 C122 1.353 . S
C737 C53 1.351 . S
C743 C145 1.356 . S
C757 C168 1.346 . S
C763 C76 1.354 . S
C777 C191 1.342 . S
C783 C283 1.341 . S
C797 C306 1.342 . S
C803 C214 1.341 . S
C817 C237 1.350 . S
C823 C329 1.356 . S
C837 C352 1.340 . S
C843 C260 1.347 . S
C857 N334 1.831 . S
C863 N12 1.847 1_556 S
C877 N357 1.838 . S
C883 N35 1.834 1_554 S
C897 N58 1.829 1_556 S
C903 N288 1.843 . S
C917 N311 1.834 . S
C923 N81 1.838 1_554 S
C937 N242 1.833 . S
C943 N104 1.838 . S
C957 N265 1.843 . S
C963 N127 1.830 . S
C977 N150 1.831 . S
C983 N196 1.847 . S
C997 N219 1.844 . S
C1003 N173 1.837 . S
