# Generated by pormake.
# Topology snk, (6)-cn, num edge types: 1
# Building blocks:
#     Node 0, Type 0, BuildingBlock: HISSIN_clean_sbu_0, # of connection points: 6
#     Node 1, Type 0, BuildingBlock: HISSIN_clean_sbu_0, # of connection points: 6
#     Node 2, Type 0, BuildingBlock: HISSIN_clean_sbu_0, # of connection points: 6
#     Node 3, Type 0, BuildingBlock: HISSIN_clean_sbu_0, # of connection points: 6
#     Node 4, Type 0, BuildingBlock: HISSIN_clean_sbu_0, # of connection points: 6
#     Node 5, Type 0, BuildingBlock: HISSIN_clean_sbu_0, # of connection points: 6
#     Node 6, Type 0, BuildingBlock: HISSIN_clean_sbu_0, # of connection points: 6
#     Node 7, Type 0, BuildingBlock: HISSIN_clean_sbu_0, # of connection points: 6
#     Edge 8, Type (0, 0), BuildingBlock: UVAHIK_clean_linker_0, # of connection points: 2
#     Edge 9, Type (0, 0), BuildingBlock: UVAHIK_clean_linker_0, # of connection points: 2
#     Edge 10, Type (0, 0), BuildingBlock: UVAHIK_clean_linker_0, # of connection points: 2
#     Edge 11, Type (0, 0), BuildingBlock: UVAHIK_clean_linker_0, # of connection points: 2
#     Edge 12, Type (0, 0), BuildingBlock: UVAHIK_clean_linker_0, # of connection points: 2
#     Edge 13, Type (0, 0), BuildingBlock: UVAHIK_clean_linker_0, # of connection points: 2
#     Edge 14, Type (0, 0), BuildingBlock: UVAHIK_clean_linker_0, # of connection points: 2
#     Edge 15, Type (0, 0), BuildingBlock: UVAHIK_clean_linker_0, # of connection points: 2
#     Edge 16, Type (0, 0), BuildingBlock: UVAHIK_clean_linker_0, # of connection points: 2
#     Edge 17, Type (0, 0), BuildingBlock: UVAHIK_clean_linker_0, # of connection points: 2
#     Edge 18, Type (0, 0), BuildingBlock: UVAHIK_clean_linker_0, # of connection points: 2
#     Edge 19, Type (0, 0), BuildingBlock: UVAHIK_clean_linker_0, # of connection points: 2
#     Edge 20, Type (0, 0), BuildingBlock: UVAHIK_clean_linker_0, # of connection points: 2
#     Edge 21, Type (0, 0), BuildingBlock: UVAHIK_clean_linker_0, # of connection points: 2
#     Edge 22, Type (0, 0), BuildingBlock: UVAHIK_clean_linker_0, # of connection points: 2
#     Edge 23, Type (0, 0), BuildingBlock: UVAHIK_clean_linker_0, # of connection points: 2
#     Edge 24, Type (0, 0), BuildingBlock: UVAHIK_clean_linker_0, # of connection points: 2
#     Edge 25, Type (0, 0), BuildingBlock: UVAHIK_clean_linker_0, # of connection points: 2
#     Edge 26, Type (0, 0), BuildingBlock: UVAHIK_clean_linker_0, # of connection points: 2
#     Edge 27, Type (0, 0), BuildingBlock: UVAHIK_clean_linker_0, # of connection points: 2
#     Edge 28, Type (0, 0), BuildingBlock: UVAHIK_clean_linker_0, # of connection points: 2
#     Edge 29, Type (0, 0), BuildingBlock: UVAHIK_clean_linker_0, # of connection points: 2
#     Edge 30, Type (0, 0), BuildingBlock: UVAHIK_clean_linker_0, # of connection points: 2
#     Edge 31, Type (0, 0), BuildingBlock: UVAHIK_clean_linker_0, # of connection points: 2
# Relax obj value: 0.069
# Max RMSD: 0.132
# Mean RMSD: 0.117
data_MOF--net-snk--node1-HISSIN_clean_sbu_0--edge1-UVAHIK_clean_linker_0
_symmetry_space_group_name_H-M    P1
_symmetry_Int_Tables_number       1
_symmetry_cell_setting            triclinic
loop_
_symmetry_equiv_pos_as_xyz
'x, y, z'
_cell_length_a     50.477961
_cell_length_b     50.261616
_cell_length_c     30.078139
_cell_angle_alpha  95.530876
_cell_angle_beta   95.714377
_cell_angle_gamma 91.914212
loop_
_atom_site_label
_atom_site_type_symbol
_atom_site_fract_x
_atom_site_fract_y
_atom_site_fract_z
_atom_type_partial_charge
Eu0 Eu 0.99391 0.98572 0.44972 0.0
Eu1 Eu 0.00384 0.01941 0.55163 0.0
C2 C 0.96614 0.04184 0.47204 0.0
C3 C 0.98647 0.96628 0.32225 0.0
C4 C 0.99126 0.99254 0.31191 0.0
C5 C 0.98228 0.95095 0.24266 0.0
C6 C 0.99174 0.99794 0.26712 0.0
C7 C 0.98179 0.9456 0.28736 0.0
C8 C 0.98751 0.97714 0.23191 0.0
C9 C 0.98755 0.95991 0.36915 0.0
O10 O 0.96528 0.99503 0.54977 0.0
O11 O 0.97193 0.96143 0.49522 0.0
C12 C 0.95973 0.97077 0.52977 0.0
O13 O 0.02978 0.96937 0.48672 0.0
O14 O 0.98963 0.04441 0.60706 0.0
O15 O 0.03032 0.03174 0.61255 0.0
O16 O 0.01875 0.97813 0.55832 0.0
C17 C 0.03185 0.9645 0.52895 0.0
O18 O 0.01829 0.0227 0.44062 0.0
O19 O 0.03741 0.03321 0.51308 0.0
O20 O 0.98323 0.04786 0.50777 0.0
O21 O 0.01054 0.96452 0.39299 0.0
O22 O 0.96779 0.96738 0.39161 0.0
O23 O 0.96385 0.01782 0.4501 0.0
C24 C 0.00931 0.03767 0.67944 0.0
C25 C 0.00309 0.01156 0.68909 0.0
C26 C 0.0106 0.05301 0.75879 0.0
C27 C 1.0007 0.0062 0.73344 0.0
C28 C 0.01304 0.05831 0.71453 0.0
C29 C 0.00438 0.02689 0.76887 0.0
C30 C 0.01182 0.04382 0.63311 0.0
C31 C 0.03655 0.03561 0.46969 0.0
H32 H 0.99506 0.00877 0.33849 0.0
H33 H 0.9785 0.93452 0.21646 0.0
H34 H 0.99608 0.01828 0.26017 0.0
H35 H 0.97806 0.92521 0.29473 0.0
H36 H 1.00003 0.99537 0.66233 0.0
H37 H 0.01395 0.06936 0.7852 0.0
H38 H 0.99561 0.98592 0.73988 0.0
H39 H 0.01789 0.07859 0.7077 0.0
Eu40 Eu 0.27621 0.7629 0.69739 0.0
Eu41 Eu 0.24225 0.76077 0.78736 0.0
C42 C 0.24672 0.7099 0.71796 0.0
C43 C 0.29505 0.76202 0.57662 0.0
C44 C 0.26856 0.761 0.55703 0.0
C45 C 0.31024 0.75846 0.50226 0.0
C46 C 0.26296 0.75883 0.51021 0.0
C47 C 0.31579 0.76063 0.54898 0.0
C48 C 0.28377 0.75766 0.48221 0.0
C49 C 0.30144 0.76475 0.6257 0.0
O50 O 0.2852 0.75706 0.81337 0.0
O51 O 0.30291 0.74306 0.74771 0.0
C52 C 0.30394 0.74568 0.7918 0.0
O53 O 0.28909 0.79859 0.74654 0.0
O54 O 0.21493 0.74146 0.82804 0.0
O55 O 0.23235 0.78109 0.8502 0.0
O56 O 0.24865 0.80324 0.77293 0.0
C57 C 0.2719 0.81342 0.76618 0.0
O58 O 0.23671 0.78043 0.67878 0.0
O59 O 0.21061 0.76451 0.73017 0.0
O60 O 0.2495 0.71863 0.76072 0.0
O61 O 0.29264 0.78574 0.64767 0.0
O62 O 0.2984 0.74314 0.64578 0.0
O63 O 0.24887 0.72625 0.68694 0.0
C64 C 0.22333 0.7539 0.90666 0.0
C65 C 0.24951 0.75086 0.92544 0.0
C66 C 0.20754 0.74904 0.97931 0.0
C67 C 0.25471 0.74738 0.97105 0.0
C68 C 0.20237 0.75253 0.9337 0.0
C69 C 0.23383 0.74692 0.99877 0.0
C70 C 0.21792 0.76098 0.86034 0.0
C71 C 0.21338 0.77618 0.69344 0.0
H72 H 0.25227 0.76206 0.57793 0.0
H73 H 0.32674 0.75715 0.48183 0.0
H74 H 0.24237 0.75854 0.49598 0.0
H75 H 0.33635 0.76127 0.56355 0.0
H76 H 0.26597 0.75198 0.90512 0.0
H77 H 0.19101 0.74906 0.99967 0.0
H78 H 0.27515 0.74543 0.98474 0.0
H79 H 0.18206 0.75505 0.91987 0.0
Eu80 Eu 0.49836 0.98197 0.07945 0.0
Eu81 Eu 0.49731 0.01415 0.98774 0.0
C82 C 0.54911 0.01385 0.05643 0.0
C83 C 0.50099 0.96364 0.20065 0.0
C84 C 0.50324 0.99036 0.2195 0.0
C85 C 0.50224 0.94901 0.27532 0.0
C86 C 0.5049 0.99637 0.26616 0.0
C87 C 0.50061 0.94305 0.22878 0.0
C88 C 0.50426 0.97574 0.29461 0.0
C89 C 0.49868 0.95688 0.1518 0.0
O90 O 0.50298 0.97091 0.96399 0.0
O91 O 0.52037 0.9567 0.03074 0.0
C92 C 0.51687 0.95405 0.98663 0.0
O93 O 0.4628 0.9668 0.03161 0.0
O94 O 0.51408 0.04285 0.94652 0.0
O95 O 0.47652 0.02123 0.92353 0.0
O96 O 0.45564 0.00676 1.00425 0.0
C97 C 0.44666 0.98333 0.0128 0.0
O98 O 0.47924 0.02077 0.09758 0.0
O99 O 0.49216 0.0465 0.04325 0.0
O100 O 0.53997 0.00987 0.0139 0.0
O101 O 0.47703 0.964 0.12944 0.0
O102 O 0.5199 0.96158 0.13189 0.0
O103 O 0.5334 0.01136 0.08815 0.0
C104 C 0.50321 0.03268 0.86794 0.0
C105 C 0.50697 0.00662 0.849 0.0
C106 C 0.50918 0.04944 0.79636 0.0
C107 C 0.51113 1.00193 0.80368 0.0
C108 C 0.50487 0.05408 0.84162 0.0
C109 C 0.51174 0.02324 0.77662 0.0
C110 C 0.49519 0.03756 0.91359 0.0
C111 C 0.4815 0.0439 0.08091 0.0
H112 H 0.50351 0.00652 0.19813 0.0
H113 H 0.50211 0.93264 0.29624 0.0
H114 H 0.50618 0.01716 0.27988 0.0
H115 H 0.49896 0.92231 0.21471 0.0
H116 H 0.50586 0.98983 0.86889 0.0
H117 H 0.50932 0.06624 0.77638 0.0
H118 H 0.5134 0.98158 0.7896 0.0
H119 H 0.50192 0.07431 0.85566 0.0
Eu120 Eu 0.26807 0.26272 0.31534 0.0
Eu121 Eu 0.23433 0.25157 0.2133 0.0
C122 C 0.21204 0.29007 0.29207 0.0
C123 C 0.28636 0.27092 0.443 0.0
C124 C 0.26069 0.26323 0.45242 0.0
C125 C 0.30022 0.27834 0.52312 0.0
C126 C 0.25489 0.26283 0.49697 0.0
C127 C 0.30599 0.27865 0.4786 0.0
C128 C 0.27466 0.2702 0.53294 0.0
C129 C 0.29328 0.26983 0.3964 0.0
O130 O 0.25884 0.28989 0.21307 0.0
O131 O 0.29194 0.28506 0.2697 0.0
C132 C 0.28274 0.29623 0.23373 0.0
O133 O 0.28499 0.22679 0.27945 0.0
O134 O 0.20919 0.26522 0.15738 0.0
O135 O 0.2221 0.22447 0.15298 0.0
O136 O 0.27552 0.23666 0.20713 0.0
C137 C 0.28951 0.22414 0.2371 0.0
O138 O 0.23135 0.23812 0.32473 0.0
O139 O 0.22112 0.21809 0.2528 0.0
O140 O 0.20598 0.27263 0.25676 0.0
O141 O 0.28932 0.24665 0.37279 0.0
O142 O 0.28571 0.28944 0.37335 0.0
O143 O 0.23609 0.29277 0.31354 0.0
C144 C 0.21615 0.24508 0.08547 0.0
C145 C 0.24125 0.25481 0.07646 0.0
C146 C 0.20196 0.23964 1.00538 0.0
C147 C 0.24667 0.25692 0.03207 0.0
C148 C 0.19659 0.23755 0.04969 0.0
C149 C 0.22709 0.24931 0.9959 0.0
C150 C 0.20996 0.24281 0.13184 0.0
C151 C 0.21872 0.21937 0.29619 0.0
H152 H 0.24523 0.25723 0.42532 0.0
H153 H 0.31602 0.28382 0.54985 0.0
H154 H 0.23492 0.25679 0.50324 0.0
H155 H 0.32596 0.28452 0.47197 0.0
H156 H 0.25663 0.26071 0.10373 0.0
H157 H 0.18626 0.23401 0.97857 0.0
H158 H 0.26631 0.26417 0.02608 0.0
H159 H 0.17706 0.23012 0.05603 0.0
Eu160 Eu 0.76785 0.25802 0.19184 0.0
Eu161 Eu 0.73451 0.24637 0.27922 0.0
C162 C 0.73358 0.20528 0.19159 0.0
C163 C 0.78486 0.26434 0.07145 0.0
C164 C 0.76062 0.25234 0.0509 0.0
C165 C 0.79677 0.27428 0.99831 0.0
C166 C 0.75457 0.25119 1.00424 0.0
C167 C 0.80281 0.27535 0.04488 0.0
C168 C 0.77261 0.26211 0.97731 0.0
C169 C 0.79189 0.26527 0.12032 0.0
O170 O 0.77774 0.24245 0.30269 0.0
O171 O 0.79215 0.23074 0.23371 0.0
C172 C 0.79492 0.23104 0.27774 0.0
O173 O 0.78567 0.28755 0.24852 0.0
O174 O 0.72325 0.21891 0.32683 0.0
O175 O 0.70709 0.25824 0.32866 0.0
O176 O 0.75063 0.28879 0.29229 0.0
C177 C 0.77286 0.29909 0.28064 0.0
O178 O 0.73245 0.2838 0.19042 0.0
O179 O 0.70404 0.25793 0.22492 0.0
O180 O 0.73734 0.20796 0.23551 0.0
O181 O 0.78219 0.28457 0.14506 0.0
O182 O 0.79054 0.24253 0.13768 0.0
O183 O 0.73648 0.22573 0.16846 0.0
C184 C 0.71442 0.23922 0.39751 0.0
C185 C 0.73797 0.25208 0.41918 0.0
C186 C 0.7005 0.23083 0.47013 0.0
C187 C 0.74276 0.2543 0.46613 0.0
C188 C 0.69574 0.22867 0.42327 0.0
C189 C 0.7241 0.24361 0.49223 0.0
C190 C 0.70921 0.23624 0.34819 0.0
C191 C 0.70841 0.27743 0.20005 0.0
H192 H 0.74644 0.24381 0.07093 0.0
H193 H 0.81128 0.28257 0.97866 0.0
H194 H 0.73566 0.24196 0.9893 0.0
H195 H 0.82164 0.28463 0.06015 0.0
H196 H 0.7527 0.26025 0.39976 0.0
H197 H 0.68552 0.22272 0.48909 0.0
H198 H 0.76127 0.264 0.48192 0.0
H199 H 0.67743 0.21871 0.40711 0.0
Eu200 Eu 0.76489 0.76263 0.80855 0.0
Eu201 Eu 0.73174 0.7521 0.7066 0.0
C202 C 0.7097 0.79135 0.78438 0.0
C203 C 0.78335 0.77084 0.93626 0.0
C204 C 0.75734 0.76474 0.94599 0.0
C205 C 0.79778 0.77727 0.01623 0.0
C206 C 0.75165 0.76464 0.99064 0.0
C207 C 0.80344 0.7773 0.97163 0.0
C208 C 0.77187 0.7707 0.02636 0.0
C209 C 0.79011 0.76924 0.88959 0.0
O210 O 0.75677 0.79029 0.70729 0.0
O211 O 0.78976 0.78382 0.763 0.0
C212 C 0.78088 0.79575 0.72771 0.0
O213 O 0.78089 0.72602 0.7729 0.0
O214 O 0.70702 0.76613 0.65056 0.0
O215 O 0.71936 0.72518 0.64616 0.0
O216 O 0.77272 0.73658 0.70081 0.0
C217 C 0.78597 0.7235 0.73082 0.0
O218 O 0.72733 0.73931 0.81754 0.0
O219 O 0.71798 0.7187 0.74593 0.0
O220 O 0.70347 0.7737 0.74943 0.0
O221 O 0.7853 0.74607 0.86623 0.0
O222 O 0.78323 0.78901 0.86641 0.0
O223 O 0.73368 0.79359 0.80623 0.0
C224 C 0.71377 0.74586 0.57871 0.0
C225 C 0.7394 0.7539 0.56959 0.0
C226 C 0.69916 0.74203 0.49883 0.0
C227 C 0.74488 0.75596 0.52523 0.0
C228 C 0.69373 0.73999 0.5431 0.0
C229 C 0.72481 0.75 0.48924 0.0
C230 C 0.7075 0.74369 0.62503 0.0
C231 C 0.71486 0.72043 0.7891 0.0
H232 H 0.74154 0.7597 0.91906 0.0
H233 H 0.81391 0.78168 0.04276 0.0
H234 H 0.73142 0.75983 0.99718 0.0
H235 H 0.82366 0.7819 0.96473 0.0
H236 H 0.75514 0.75852 0.59675 0.0
H237 H 0.68311 0.73772 0.47215 0.0
H238 H 0.76491 0.76188 0.51911 0.0
H239 H 0.67379 0.73389 0.54956 0.0
Eu240 Eu 0.49079 0.49039 0.95636 0.0
Eu241 Eu 0.50432 0.52434 0.0584 0.0
C242 C 0.46589 0.54787 0.97963 0.0
C243 C 0.48491 0.47064 0.82913 0.0
C244 C 0.494 0.49593 0.81946 0.0
C245 C 0.48074 0.45547 0.74941 0.0
C246 C 0.49643 0.50096 0.77495 0.0
C247 C 0.47833 0.45049 0.79385 0.0
C248 C 0.48979 0.48079 0.73927 0.0
C249 C 0.48239 0.46487 0.87572 0.0
O250 O 0.47855 0.48825 0.0675 0.0
O251 O 0.45724 0.47845 0.99638 0.0
C252 C 0.45915 0.47608 0.03982 0.0
O253 O 0.51017 0.46198 1.00182 0.0
O254 O 0.48984 0.54525 0.11747 0.0
O255 O 0.53214 0.53993 0.11639 0.0
O256 O 0.53486 0.49293 0.05129 0.0
C257 C 0.52989 0.46819 0.03331 0.0
O258 O 0.52841 0.51588 0.95384 0.0
O259 O 0.52617 0.54832 0.01282 0.0
O260 O 0.47163 0.54641 0.02291 0.0
O261 O 0.50461 0.46439 0.90177 0.0
O262 O 0.46399 0.47725 0.89609 0.0
O263 O 0.47434 0.53078 0.94896 0.0
C264 C 0.51451 0.54056 0.18678 0.0
C265 C 0.50696 0.51463 0.19569 0.0
C266 C 0.52158 0.55391 0.2671 0.0
C267 C 0.50651 0.50844 0.2401 0.0
C268 C 0.522 0.56006 0.22275 0.0
C269 C 0.5136 0.52808 0.27643 0.0
C270 C 0.51324 0.54802 0.1404 0.0
C271 C 0.53577 0.53948 0.97531 0.0
H272 H 0.49918 0.51177 0.84632 0.0
H273 H 0.47586 0.43933 0.72303 0.0
H274 H 0.50318 0.52076 0.76846 0.0
H275 H 0.47141 0.4308 0.80069 0.0
H276 H 0.50109 0.49929 0.16832 0.0
H277 H 0.52681 0.56965 0.29405 0.0
H278 H 0.50058 0.48828 0.24595 0.0
H279 H 0.52769 0.58024 0.21653 0.0
Eu280 Eu 0.00724 0.48582 0.59604 0.0
Eu281 Eu 0.0119 0.51929 0.50609 0.0
C282 C 0.05732 0.52203 0.58816 0.0
C283 C 0.00675 0.46691 0.71652 0.0
C284 C 0.00876 0.49357 0.73565 0.0
C285 C 0.00659 0.452 0.79087 0.0
C286 C 0.00968 0.49942 0.78226 0.0
C287 C 0.00567 0.44621 0.74435 0.0
C288 C 0.00862 0.47868 0.81045 0.0
C289 C 0.00559 0.46033 0.6677 0.0
O290 O 0.01579 0.4761 0.48173 0.0
O291 O 0.03235 0.46236 0.54919 0.0
C292 C 0.02922 0.45928 0.50499 0.0
O293 O 0.97433 0.46824 0.54524 0.0
O294 O 0.03708 0.53326 0.45752 0.0
O295 O 0.99607 0.54458 0.45532 0.0
O296 O 0.96996 0.50213 0.49874 0.0
C297 C 0.96083 0.48048 0.51427 0.0
O298 O 0.9826 0.52182 0.60639 0.0
O299 O 1.00121 0.54989 0.56066 0.0
O300 O 0.05229 0.51756 0.5445 0.0
O301 O 0.98448 0.46758 0.64402 0.0
O302 O 0.02741 0.46511 0.64943 0.0
O303 O 0.03874 0.51847 0.61456 0.0
C304 C 0.01506 0.53906 0.38657 0.0
C305 C 0.01176 0.51263 0.36643 0.0
C306 C 0.01443 0.55492 0.31276 0.0
C307 C 0.01001 0.50737 0.31965 0.0
C308 C 0.01624 0.56013 0.35949 0.0
C309 C 0.01144 0.52847 0.29224 0.0
C310 C 0.01793 0.54495 0.43567 0.0
C311 C 0.98594 0.54558 0.59247 0.0
H312 H 0.00965 0.50981 0.71454 0.0
H313 H 0.00531 0.43557 0.81145 0.0
H314 H 0.01153 0.52015 0.79624 0.0
H315 H 0.004 0.42552 0.73005 0.0
H316 H 0.01072 0.4961 0.3869 0.0
H317 H 0.01596 0.57159 0.29275 0.0
H318 H 0.00739 0.48681 0.30492 0.0
H319 H 0.01887 0.58065 0.37453 0.0
C320 C 0.07453 0.07039 0.4823 0.0
C321 C 0.05635 0.05373 0.45267 0.0
C322 C 0.09264 0.08782 0.46581 0.0
C323 C 0.12519 0.09962 0.36352 0.0
H324 H 0.13722 0.17205 0.42072 0.0
C325 C 0.18437 0.18099 0.28464 0.0
C326 C 0.20087 0.19956 0.3138 0.0
C327 C 0.16717 0.16288 0.30163 0.0
C328 C 0.13442 0.15179 0.40462 0.0
H329 H 0.04326 0.04234 0.38221 0.0
H330 H 0.07466 0.0726 0.35375 0.0
H331 H 0.10708 0.14108 0.45072 0.0
H332 H 0.21238 0.2132 0.38399 0.0
H333 H 0.18294 0.1815 0.41339 0.0
H334 H 0.15261 0.11024 0.31755 0.0
C335 C 0.0751 0.07209 0.38973 0.0
C336 C 0.11707 0.13401 0.42188 0.0
C337 C 0.05694 0.05481 0.40616 0.0
C338 C 0.19988 0.19935 0.36037 0.0
C339 C 0.1828 0.18121 0.37733 0.0
C340 C 0.14263 0.11737 0.34636 0.0
C341 C 0.09315 0.08892 0.41928 0.0
C342 C 0.11215 0.1077 0.40151 0.0
C343 C 0.16606 0.16279 0.34826 0.0
C344 C 0.14748 0.14375 0.36659 0.0
H345 H 0.07469 0.07013 0.51828 0.0
H346 H 0.10643 0.10029 0.48956 0.0
H347 H 0.12218 0.0794 0.34731 0.0
H348 H 0.18448 0.18062 0.24859 0.0
H349 H 0.15437 0.14927 0.2781 0.0
C350 C 0.06525 0.92989 0.51372 0.0
C351 C 0.04876 0.94274 0.54333 0.0
C352 C 0.08106 0.90921 0.52707 0.0
C353 C 0.08821 0.85885 0.60811 0.0
H354 H 0.16227 0.86133 0.58434 0.0
C355 C 0.16836 0.79557 0.69398 0.0
C356 C 0.19005 0.78802 0.67045 0.0
C357 C 0.14878 0.81133 0.675 0.0
C358 C 0.14152 0.85994 0.5905 0.0
H359 H 0.03572 0.94369 0.61007 0.0
H360 H 0.0634 0.90755 0.63331 0.0
H361 H 0.13299 0.8953 0.55842 0.0
H362 H 0.20706 0.78907 0.6072 0.0
H363 H 0.1725 0.81567 0.5735 0.0
H364 H 0.09675 0.82345 0.64027 0.0
C365 C 0.06395 0.91344 0.5997 0.0
C366 C 0.12477 0.87954 0.57578 0.0
C367 C 0.04827 0.93428 0.58648 0.0
C368 C 0.19076 0.79489 0.6264 0.0
C369 C 0.17105 0.81032 0.60723 0.0
C370 C 0.10494 0.83906 0.62258 0.0
C371 C 0.0806 0.90078 0.57019 0.0
C372 C 0.098 0.87934 0.58469 0.0
C373 C 0.15036 0.8196 0.6319 0.0
C374 C 0.13188 0.83947 0.6142 0.0
H375 H 0.06605 0.93584 0.48019 0.0
H376 H 0.09353 0.89966 0.50347 0.0
H377 H 0.06755 0.85804 0.615 0.0
H378 H 0.16733 0.79071 0.7281 0.0
H379 H 0.13326 0.81821 0.69513 0.0
C380 C 0.30409 0.85282 0.77796 0.0
C381 C 0.27951 0.84102 0.78516 0.0
C382 C 0.313 0.87726 0.80143 0.0
C383 C 0.30958 0.91063 0.91097 0.0
H384 H 0.35652 0.96273 0.86768 0.0
C385 C 0.40893 0.94916 1.00241 0.0
C386 C 0.41876 0.975 0.99735 0.0
C387 C 0.38379 0.94016 0.98203 0.0
C388 C 0.34296 0.94885 0.88042 0.0
H389 H 0.24396 0.84655 0.81971 0.0
H390 H 0.25985 0.88906 0.86119 0.0
H391 H 0.32591 0.93427 0.8142 0.0
H392 H 0.40912 0.01254 0.97046 0.0
H393 H 0.36538 0.99658 0.9345 0.0
H394 H 0.32793 0.92398 0.97695 0.0
C395 C 0.27217 0.87934 0.83751 0.0
C396 C 0.32561 0.93246 0.84976 0.0
C397 C 0.26316 0.855 0.81378 0.0
C398 C 0.40226 0.99233 0.9744 0.0
C399 C 0.37718 0.98329 0.95389 0.0
C400 C 0.32704 0.92693 0.94163 0.0
C401 C 0.29753 0.89021 0.83263 0.0
C402 C 0.30979 0.91232 0.86464 0.0
C403 C 0.36813 0.95684 0.95622 0.0
C404 C 0.34481 0.94521 0.92637 0.0
H405 H 0.317 0.84263 0.75581 0.0
H406 H 0.33278 0.88506 0.79738 0.0
H407 H 0.29764 0.89519 0.92335 0.0
H408 H 0.42109 0.93545 0.02024 0.0
H409 H 0.37742 0.91955 0.98399 0.0
C410 C 0.46035 0.08816 0.07804 0.0
C411 C 0.46858 0.06698 0.10267 0.0
C412 C 0.44393 0.10745 0.09589 0.0
C413 C 0.39518 0.11471 0.17973 0.0
H414 H 0.39554 0.18846 0.15198 0.0
C415 C 0.32435 0.19106 0.25345 0.0
C416 C 0.31127 0.20717 0.22321 0.0
C417 C 0.34506 0.17523 0.24062 0.0
C418 C 0.39514 0.16786 0.15976 0.0
H419 H 0.4678 0.0506 0.16667 0.0
H420 H 0.43998 0.08467 0.19835 0.0
H421 H 0.43056 0.15957 0.12815 0.0
H422 H 0.30993 0.21945 0.15581 0.0
H423 H 0.34615 0.19176 0.13349 0.0
H424 H 0.35982 0.12302 0.21135 0.0
C425 C 0.44537 0.08592 0.16464 0.0
C426 C 0.41518 0.15129 0.14611 0.0
C427 C 0.46152 0.06649 0.14661 0.0
C428 C 0.31952 0.20721 0.1799 0.0
C429 C 0.3404 0.19152 0.1672 0.0
C430 C 0.37532 0.13131 0.19365 0.0
C431 C 0.4356 0.10612 0.13895 0.0
C432 C 0.41536 0.12443 0.15567 0.0
C433 C 0.35332 0.17529 0.19738 0.0
C434 C 0.37495 0.158 0.18356 0.0
H435 H 0.46531 0.08904 0.04398 0.0
H436 H 0.43667 0.12256 0.07496 0.0
H437 H 0.39424 0.09401 0.18683 0.0
H438 H 0.31856 0.19058 0.2871 0.0
H439 H 0.35479 0.1631 0.26473 0.0
C440 C 0.92518 0.9634 0.58268 0.0
C441 C 0.94014 0.95316 0.54833 0.0
C442 C 0.90757 0.94668 0.60158 0.0
C443 C 0.89412 0.87593 0.61889 0.0
H444 H 0.8246 0.89993 0.64504 0.0
C445 C 0.82606 0.81806 0.7248 0.0
C446 C 0.79885 0.8149 0.70888 0.0
C447 C 0.84318 0.83513 0.70548 0.0
C448 C 0.8439 0.89286 0.63779 0.0
H449 H 0.9481 0.91711 0.50695 0.0
H450 H 0.91741 0.88798 0.54001 0.0
H451 H 0.85423 0.92891 0.60958 0.0
H452 H 0.76837 0.82761 0.66027 0.0
H453 H 0.79813 0.85742 0.62696 0.0
H454 H 0.88374 0.83983 0.64691 0.0
C455 C 0.91942 0.90898 0.55242 0.0
C456 C 0.86099 0.90958 0.6178 0.0
C457 C 0.93689 0.92575 0.53323 0.0
C458 C 0.78916 0.82955 0.67356 0.0
C459 C 0.80623 0.84677 0.65452 0.0
C460 C 0.87713 0.8593 0.63924 0.0
C461 C 0.90459 0.91921 0.58695 0.0
C462 C 0.88631 0.90132 0.60799 0.0
C463 C 0.83349 0.84965 0.67 0.0
C464 C 0.85176 0.86752 0.64888 0.0
H465 H 0.92717 0.98436 0.59531 0.0
H466 H 0.89669 0.95521 0.6284 0.0
H467 H 0.91357 0.86902 0.61221 0.0
H468 H 0.83428 0.80709 0.75185 0.0
H469 H 0.864 0.83709 0.71856 0.0
C470 C 0.94546 0.0864 0.48226 0.0
C471 C 0.94972 0.06309 0.45456 0.0
C472 C 0.93037 0.10668 0.46521 0.0
C473 C 0.90965 0.13536 0.36106 0.0
H474 H 0.84981 0.16174 0.42104 0.0
C475 C 0.82963 0.19683 0.27356 0.0
C476 C 0.81646 0.21598 0.29937 0.0
C477 C 0.84796 0.18051 0.29422 0.0
C478 C 0.86676 0.15507 0.40427 0.0
H479 H 0.94178 0.0429 0.38721 0.0
H480 H 0.91584 0.07852 0.35739 0.0
H481 H 0.87784 0.12878 0.45442 0.0
H482 H 0.81308 0.23387 0.36701 0.0
H483 H 0.84582 0.20608 0.403 0.0
H484 H 0.89904 0.16177 0.31125 0.0
C485 C 0.92405 0.08098 0.39229 0.0
C486 C 0.88271 0.13607 0.42335 0.0
C487 C 0.93871 0.06053 0.40948 0.0
C488 C 0.82277 0.21916 0.3462 0.0
C489 C 0.8414 0.20306 0.36685 0.0
C490 C 0.89398 0.15465 0.34231 0.0
C491 C 0.91973 0.10423 0.41997 0.0
C492 C 0.904 0.12572 0.4015 0.0
C493 C 0.85388 0.18317 0.3412 0.0
C494 C 0.87201 0.16442 0.36321 0.0
H495 H 0.95366 0.08892 0.51715 0.0
H496 H 0.92736 0.12447 0.48717 0.0
H497 H 0.92621 0.12795 0.34391 0.0
H498 H 0.82505 0.19368 0.23744 0.0
H499 H 0.85673 0.16516 0.27331 0.0
C500 C 0.7365 0.15596 0.18728 0.0
C501 C 0.72673 0.1786 0.1684 0.0
C502 C 0.72797 0.1304 0.16808 0.0
C503 C 0.68382 0.09391 0.07209 0.0
H504 H 0.66362 0.05192 0.16586 0.0
C505 C 0.59563 0.01874 0.03626 0.0
C506 C 0.57731 0.02213 0.06839 0.0
C507 C 0.6218 0.02898 0.04615 0.0
C508 C 0.6692 0.0633 0.13917 0.0
H509 H 0.70189 0.19269 0.11344 0.0
H510 H 0.68544 0.14825 0.08144 0.0
H511 H 0.69628 0.08856 0.18445 0.0
H512 H 0.57225 0.03737 0.13676 0.0
H513 H 0.61733 0.05626 0.15347 0.0
H514 H 0.6544 0.07053 0.02794 0.0
C515 C 0.70041 0.14987 0.11005 0.0
C516 C 0.68833 0.08416 0.14966 0.0
C517 C 0.70953 0.17542 0.12863 0.0
C518 C 0.58593 0.03457 0.11131 0.0
C519 C 0.61195 0.04513 0.121 0.0
C520 C 0.66424 0.0734 0.06182 0.0
C521 C 0.70886 0.12705 0.13044 0.0
C522 C 0.69472 0.10071 0.11673 0.0
C523 C 0.63 0.04311 0.08813 0.0
C524 C 0.65563 0.05894 0.09588 0.0
H525 H 0.75037 0.15804 0.21745 0.0
H526 H 0.7355 0.11333 0.18392 0.0
H527 H 0.68897 0.10564 0.04559 0.0
H528 H 0.5896 0.0087 1.00311 0.0
H529 H 0.63532 0.02665 0.02039 0.0
C530 C 0.69198 0.82062 0.84557 0.0
C531 C 0.68877 0.80841 0.80127 0.0
C532 C 0.672 0.83598 0.8624 0.0
C533 C 0.59998 0.84974 0.84114 0.0
H534 H 0.62058 0.91015 0.92941 0.0
C535 C 0.52921 0.92963 0.91491 0.0
C536 C 0.53213 0.93372 0.96215 0.0
C537 C 0.54646 0.91317 0.8922 0.0
C538 C 0.61457 0.8933 0.90482 0.0
H539 H 0.66215 0.803 0.73963 0.0
H540 H 0.6276 0.83069 0.76844 0.0
H541 H 0.65483 0.88517 0.89458 0.0
H542 H 0.55483 0.92275 0.02242 0.0
H543 H 0.58494 0.89463 0.98277 0.0
H544 H 0.5595 0.85871 0.85106 0.0
C545 C 0.64529 0.82784 0.79065 0.0
C546 C 0.63417 0.87882 0.88502 0.0
C547 C 0.66518 0.81209 0.77399 0.0
C548 C 0.55193 0.92014 0.98607 0.0
C549 C 0.56932 0.90412 0.96343 0.0
C550 C 0.58029 0.86459 0.86049 0.0
C551 C 0.64841 0.83995 0.83516 0.0
C552 C 0.62723 0.85648 0.85358 0.0
C553 C 0.56711 0.90092 0.91636 0.0
C554 C 0.58749 0.88616 0.89313 0.0
H555 H 0.70974 0.81786 0.86772 0.0
H556 H 0.67495 0.84434 0.89715 0.0
H557 H 0.5938 0.83254 0.81743 0.0
H558 H 0.51417 0.93977 0.89546 0.0
H559 H 0.5444 0.91097 0.85582 0.0
C560 C 0.56197 0.55068 0.91197 0.0
C561 C 0.55503 0.55701 0.95581 0.0
C562 C 0.57918 0.56779 0.89294 0.0
C563 C 0.60679 0.63821 0.90609 0.0
H564 H 0.65786 0.60978 0.82783 0.0
C565 C 0.69086 0.70466 0.85161 0.0
C566 C 0.69649 0.70104 0.80656 0.0
C567 C 0.67345 0.68681 0.86845 0.0
C568 C 0.64352 0.61805 0.84923 0.0
H569 H 0.56131 0.58623 0.01422 0.0
H570 H 0.59168 0.61562 0.98162 0.0
H571 H 0.62836 0.57917 0.86028 0.0
H572 H 0.68818 0.67547 0.74406 0.0
H573 H 0.65779 0.6442 0.77363 0.0
H574 H 0.62221 0.67706 0.89551 0.0
C575 C 0.58337 0.59774 0.9614 0.0
C576 C 0.62654 0.60049 0.86786 0.0
C577 C 0.56605 0.58072 0.9803 0.0
C578 C 0.68433 0.67892 0.77889 0.0
C579 C 0.667 0.6609 0.7959 0.0
C580 C 0.62385 0.65573 0.88771 0.0
C581 C 0.59005 0.59167 0.91729 0.0
C582 C 0.608 0.61031 0.89678 0.0
C583 C 0.66123 0.66472 0.84087 0.0
C584 C 0.64254 0.64591 0.85922 0.0
H585 H 0.55372 0.5327 0.8919 0.0
H586 H 0.58349 0.56254 0.85873 0.0
H587 H 0.59243 0.64665 0.92729 0.0
H588 H 0.69984 0.72139 0.87408 0.0
H589 H 0.66979 0.69019 0.90338 0.0
C590 C 0.69261 0.32102 0.17813 0.0
C591 C 0.68654 0.29438 0.18532 0.0
C592 C 0.67251 0.33771 0.16475 0.0
C593 C 0.60958 0.34018 0.10114 0.0
H594 H 0.60492 0.40888 0.17007 0.0
C595 C 0.53672 0.41981 0.04279 0.0
C596 C 0.54601 0.4467 0.05075 0.0
C597 C 0.55135 0.39966 0.06128 0.0
C598 C 0.60611 0.38992 0.1501 0.0
H599 H 0.65467 0.26423 0.18382 0.0
H600 H 0.61921 0.29357 0.15856 0.0
H601 H 0.6347 0.37598 0.19912 0.0
H602 H 0.57821 0.47347 0.08342 0.0
H603 H 0.60417 0.43841 0.11414 0.0
H604 H 0.58222 0.35454 0.05083 0.0
C605 C 0.63966 0.30137 0.16407 0.0
C606 C 0.62295 0.37101 0.16705 0.0
C607 C 0.65985 0.28469 0.17856 0.0
C608 C 0.57041 0.45297 0.07693 0.0
C609 C 0.58518 0.43283 0.09492 0.0
C610 C 0.59299 0.35928 0.08377 0.0
C611 C 0.64591 0.32807 0.15746 0.0
C612 C 0.62518 0.34621 0.14236 0.0
C613 C 0.57573 0.40593 0.08777 0.0
C614 C 0.5915 0.38464 0.10763 0.0
H615 H 0.71295 0.32916 0.18341 0.0
H616 H 0.6778 0.35817 0.15953 0.0
H617 H 0.61123 0.32123 0.08136 0.0
H618 H 0.51785 0.41436 0.02307 0.0
H619 H 0.54328 0.37925 0.05544 0.0
C620 C 0.91833 0.45591 0.5221 0.0
C621 C 0.93465 0.46898 0.49521 0.0
C622 C 0.89408 0.44363 0.50344 0.0
C623 C 0.84753 0.4339 0.39749 0.0
H624 H 0.8359 0.36379 0.43758 0.0
C625 C 0.8029 0.34002 0.28805 0.0
C626 C 0.78427 0.32393 0.30611 0.0
C627 C 0.81487 0.36268 0.31351 0.0
C628 C 0.83856 0.38353 0.4266 0.0
H629 H 0.93842 0.48044 0.42847 0.0
H630 H 0.89697 0.45758 0.39503 0.0
H631 H 0.86921 0.39477 0.47943 0.0
H632 H 0.76279 0.3193 0.36419 0.0
H633 H 0.78445 0.35855 0.40911 0.0
H634 H 0.81818 0.42123 0.34226 0.0
C635 C 0.90214 0.45756 0.43083 0.0
C636 C 0.85757 0.40142 0.45069 0.0
C637 C 0.92606 0.47043 0.4498 0.0
C638 C 0.77712 0.33136 0.34942 0.0
C639 C 0.78941 0.35376 0.3751 0.0
C640 C 0.82885 0.41571 0.37285 0.0
C641 C 0.8861 0.44354 0.45725 0.0
C642 C 0.86284 0.42656 0.43577 0.0
C643 C 0.80865 0.36931 0.35755 0.0
C644 C 0.82474 0.3902 0.38676 0.0
H645 H 0.9244 0.45505 0.5575 0.0
H646 H 0.88192 0.43366 0.52505 0.0
H647 H 0.85061 0.45332 0.38564 0.0
H648 H 0.80856 0.33485 0.25459 0.0
H649 H 0.82994 0.37428 0.2996 0.0
C650 C 0.81717 0.7071 0.67523 0.0
C651 C 0.80757 0.70616 0.71741 0.0
C652 C 0.83803 0.69118 0.66315 0.0
C653 C 0.87053 0.62933 0.68737 0.0
H654 H 0.92993 0.65898 0.63293 0.0
C655 C 0.95969 0.56574 0.65233 0.0
C656 C 0.97026 0.56753 0.61121 0.0
C657 C 0.94191 0.58441 0.66744 0.0
C658 C 0.91336 0.6503 0.64766 0.0
H659 H 0.81232 0.68768 0.77985 0.0
H660 H 0.84846 0.65973 0.75848 0.0
H661 H 0.89408 0.68768 0.65376 0.0
H662 H 0.97126 0.59089 0.55442 0.0
H663 H 0.93966 0.62315 0.58016 0.0
H664 H 0.88915 0.59187 0.68038 0.0
C665 C 0.83984 0.67278 0.73481 0.0
C666 C 0.89286 0.66677 0.65963 0.0
C667 C 0.81919 0.68887 0.74709 0.0
C668 C 0.96356 0.58907 0.5864 0.0
C669 C 0.94546 0.60761 0.60125 0.0
C670 C 0.89083 0.61284 0.67506 0.0
C671 C 0.84952 0.67379 0.69276 0.0
C672 C 0.87127 0.65645 0.67974 0.0
C673 C 0.93391 0.60513 0.64147 0.0
C674 C 0.9126 0.62309 0.65519 0.0
H675 H 0.80872 0.72028 0.65164 0.0
H676 H 0.84493 0.6922 0.63036 0.0
H677 H 0.85394 0.62072 0.70216 0.0
H678 H 0.96473 0.54954 0.6725 0.0
H679 H 0.93405 0.58228 0.69918 0.0
C680 C 0.32432 0.32598 0.23782 0.0
C681 C 0.30013 0.31564 0.2143 0.0
C682 C 0.34097 0.34358 0.21863 0.0
C683 C 0.34165 0.38836 0.12623 0.0
H684 H 0.41819 0.38345 0.14872 0.0
C685 C 0.41745 0.44593 0.03197 0.0
C686 C 0.43995 0.4581 0.05852 0.0
C687 C 0.39991 0.42865 0.05013 0.0
C688 C 0.39685 0.38523 0.14235 0.0
H689 H 0.27466 0.31568 0.15174 0.0
H690 H 0.30379 0.34573 0.11811 0.0
H691 H 0.38879 0.35344 0.18216 0.0
H692 H 0.46142 0.46154 0.12527 0.0
H693 H 0.43108 0.43157 0.15646 0.0
H694 H 0.34991 0.41998 0.08583 0.0
C695 C 0.30972 0.34083 0.15184 0.0
C696 C 0.37993 0.36806 0.16172 0.0
C697 C 0.293 0.32342 0.17114 0.0
C698 C 0.44437 0.45259 0.10363 0.0
C699 C 0.42703 0.43521 0.12157 0.0
C700 C 0.3586 0.40541 0.10656 0.0
C701 C 0.334 0.35115 0.17521 0.0
C702 C 0.35206 0.36944 0.1542 0.0
C703 C 0.40462 0.42293 0.0951 0.0
C704 C 0.38643 0.40419 0.11462 0.0
H705 H 0.33043 0.32052 0.27116 0.0
H706 H 0.35924 0.3514 0.2381 0.0
H707 H 0.32035 0.39039 0.12009 0.0
H708 H 0.41341 0.44969 0.99714 0.0
H709 H 0.3829 0.41939 0.02874 0.0
C710 C 0.45026 0.59462 0.99133 0.0
C711 C 0.45013 0.57016 0.96442 0.0
C712 C 0.43679 0.61623 0.97532 0.0
C713 C 0.40652 0.64001 0.86849 0.0
H714 H 0.37288 0.68994 0.94922 0.0
C715 C 0.34912 0.72651 0.79969 0.0
C716 C 0.32512 0.7323 0.81768 0.0
C717 C 0.36738 0.71034 0.82109 0.0
C718 C 0.38195 0.67609 0.92604 0.0
H719 H 0.43502 0.54879 0.90042 0.0
H720 H 0.41048 0.58578 0.87342 0.0
H721 H 0.39696 0.6534 0.9789 0.0
H722 H 0.30173 0.72633 0.87283 0.0
H723 H 0.33278 0.69743 0.90906 0.0
H724 H 0.39005 0.66142 0.81525 0.0
C725 C 0.42183 0.58887 0.90611 0.0
C726 C 0.39617 0.65527 0.94325 0.0
C727 C 0.43571 0.5675 0.92175 0.0
C728 C 0.32022 0.72252 0.85841 0.0
C729 C 0.33817 0.70592 0.87931 0.0
C730 C 0.39192 0.66048 0.85122 0.0
C731 C 0.4225 0.6137 0.93233 0.0
C732 C 0.40838 0.63672 0.91461 0.0
C733 C 0.36174 0.69906 0.86041 0.0
C734 C 0.37918 0.67869 0.87963 0.0
H735 H 0.46144 0.59732 0.02422 0.0
H736 H 0.43811 0.63506 0.99632 0.0
H737 H 0.41615 0.62661 0.8454 0.0
H738 H 0.35353 0.73396 0.7685 0.0
H739 H 0.38562 0.7062 0.8061 0.0
C740 C 0.22699 0.67335 0.66164 0.0
C741 C 0.23952 0.68148 0.70469 0.0
C742 C 0.21712 0.64709 0.65077 0.0
C743 C 0.19141 0.59229 0.7083 0.0
H744 H 0.17298 0.56368 0.58449 0.0
C745 C 0.089 0.54644 0.64807 0.0
C746 C 0.08454 0.53002 0.60753 0.0
C747 C 0.11474 0.55602 0.66416 0.0
C748 C 0.17831 0.57066 0.61951 0.0
H749 H 0.25398 0.66816 0.76882 0.0
H750 H 0.23748 0.62193 0.74938 0.0
H751 H 0.20958 0.59635 0.60289 0.0
H752 H 0.10332 0.50851 0.55399 0.0
H753 H 0.14847 0.52418 0.58308 0.0
H754 H 0.16037 0.56634 0.72502 0.0
C755 C 0.23439 0.63602 0.72449 0.0
C756 C 0.19914 0.58983 0.62995 0.0
C757 C 0.24385 0.66247 0.73563 0.0
C758 C 0.1063 0.52174 0.58489 0.0
C759 C 0.13214 0.53074 0.60156 0.0
C760 C 0.17104 0.57258 0.69803 0.0
C761 C 0.21999 0.62826 0.68252 0.0
C762 C 0.20459 0.60228 0.67392 0.0
C763 C 0.13661 0.54881 0.64052 0.0
C764 C 0.16298 0.56299 0.65311 0.0
H765 H 0.22346 0.6876 0.63709 0.0
H766 H 0.20578 0.64215 0.61838 0.0
H767 H 0.19512 0.60115 0.74271 0.0
H768 H 0.07247 0.55299 0.66614 0.0
H769 H 0.11715 0.57026 0.6938 0.0
C770 C 0.19406 0.31727 0.35529 0.0
C771 C 0.19084 0.30618 0.31025 0.0
C772 C 0.17378 0.3315 0.37354 0.0
C773 C 0.11763 0.37208 0.34644 0.0
H774 H 0.0958 0.35455 0.46055 0.0
C775 C 0.03835 0.43213 0.43403 0.0
C776 C 0.04336 0.43792 0.48085 0.0
C777 C 0.05342 0.41356 0.41095 0.0
C778 C 0.10182 0.35993 0.42892 0.0
H779 H 0.16397 0.30169 0.24884 0.0
H780 H 0.12863 0.32736 0.28073 0.0
H781 H 0.12831 0.32758 0.42428 0.0
H782 H 0.06787 0.42843 0.54018 0.0
H783 H 0.0945 0.39684 0.50011 0.0
H784 H 0.09221 0.40518 0.35186 0.0
C785 C 0.14684 0.32469 0.30179 0.0
C786 C 0.12033 0.34437 0.40807 0.0
C787 C 0.167 0.30998 0.28365 0.0
C788 C 0.06331 0.4243 0.50417 0.0
C789 C 0.07854 0.40601 0.48109 0.0
C790 C 0.09937 0.38794 0.36761 0.0
C791 C 0.14998 0.33532 0.34704 0.0
C792 C 0.1287 0.35052 0.36699 0.0
C793 C 0.07401 0.40055 0.43411 0.0
C794 C 0.09154 0.38232 0.40952 0.0
H795 H 0.21209 0.31456 0.3768 0.0
H796 H 0.17679 0.33972 0.4084 0.0
H797 H 0.12391 0.37733 0.31487 0.0
H798 H 0.02302 0.44218 0.41507 0.0
H799 H 0.04902 0.40956 0.37491 0.0
C800 C 0.01218 0.99827 0.83295 0.0
C801 C 1.00182 0.02139 0.81618 0.0
C802 C 0.01028 0.99347 0.87765 0.0
C803 C 1.00001 0.02791 0.98906 0.0
H804 H 0.98461 0.95601 0.01863 0.0
C805 C 0.97821 0.00554 0.16781 0.0
C806 C 0.98902 0.98253 0.18427 0.0
C807 C 0.97955 0.01038 0.12296 0.0
C808 C 0.98922 0.97617 1.01106 0.0
H809 H 0.98068 0.05721 0.83326 0.0
H810 H 0.97731 0.04882 0.91099 0.0
H811 H 0.98724 0.96405 0.94054 0.0
H812 H 0.01036 0.94694 0.16644 0.0
H813 H 0.01269 0.95536 0.08851 0.0
H814 H 1.00201 0.04002 0.05962 0.0
C815 C 0.98738 0.03463 0.88985 0.0
C816 C 0.99074 0.98079 0.9662 0.0
C817 C 0.9893 0.03944 0.84519 0.0
C818 C 1.00135 0.9646 0.15477 0.0
C819 C 0.00269 0.96943 0.11 0.0
C820 C 0.99849 0.0233 0.03393 0.0
C821 C 0.99794 0.01164 0.90676 0.0
C822 C 0.99619 0.00672 0.95458 0.0
C823 C 0.99175 0.99235 0.09342 0.0
C824 C 0.99311 0.99735 0.04556 0.0
H825 H 0.02229 0.98412 0.81178 0.0
H826 H 0.01898 0.97574 0.88963 0.0
H827 H 0.00467 0.04807 0.98151 0.0
H828 H 0.96828 0.01962 0.18938 0.0
H829 H 0.9706 0.02805 0.11125 0.0
C830 C 0.29416 0.77016 0.40661 0.0
C831 C 0.27804 0.75578 0.43236 0.0
C832 C 0.28923 0.76807 0.35981 0.0
C833 C 0.23696 0.74877 0.26596 0.0
H834 H 0.29687 0.74489 0.19465 0.0
C835 C 0.22278 0.73049 0.07169 0.0
C836 C 0.23953 0.74567 0.04813 0.0
C837 C 0.22753 0.73042 0.11835 0.0
C838 C 0.27991 0.74622 0.21403 0.0
H839 H 0.24402 0.72784 0.42873 0.0
H840 H 0.23536 0.72427 0.34699 0.0
H841 H 0.30476 0.74754 0.27623 0.0
H842 H 0.27432 0.77286 0.05552 0.0
H843 H 0.28259 0.77273 0.13659 0.0
H844 H 0.21212 0.74766 0.20372 0.0
C845 C 0.25169 0.73739 0.36315 0.0
C846 C 0.28444 0.74774 0.26086 0.0
C847 C 0.25664 0.73946 0.41004 0.0
C848 C 0.2613 0.76054 0.07238 0.0
C849 C 0.26603 0.76049 0.11898 0.0
C850 C 0.23242 0.74728 0.21908 0.0
C851 C 0.26801 0.75157 0.33742 0.0
C852 C 0.26304 0.74922 0.28747 0.0
C853 C 0.24914 0.74554 0.14264 0.0
C854 C 0.25386 0.74616 0.1925 0.0
H855 H 0.31048 0.78333 0.42266 0.0
H856 H 0.30189 0.77968 0.34116 0.0
H857 H 0.22003 0.75021 0.2854 0.0
H858 H 0.20603 0.71854 0.05402 0.0
H859 H 0.21435 0.71835 0.13536 0.0
C860 C 0.52904 0.0347 0.70483 0.0
C861 C 0.51317 0.01805 0.72744 0.0
C862 C 0.52895 0.03069 0.65811 0.0
C863 C 0.48702 1.00133 0.55697 0.0
H864 H 0.55214 1.00435 0.49896 0.0
C865 C 0.48913 0.96715 0.36916 0.0
C866 C 0.50536 0.98192 0.34417 0.0
C867 C 0.49035 0.97252 0.41576 0.0
C868 C 0.53374 1.00381 0.51459 0.0
H869 H 0.48482 0.98411 0.71868 0.0
H870 H 0.48487 0.97696 0.63739 0.0
H871 H 0.55424 0.01163 0.58075 0.0
H872 H 0.53565 0.01398 0.34878 0.0
H873 H 0.53742 0.02371 0.4302 0.0
H874 H 0.46645 0.99364 0.49107 0.0
C875 C 0.49728 0.9932 0.65572 0.0
C876 C 0.53496 0.00792 0.56146 0.0
C877 C 0.49751 0.9971 0.70237 0.0
C878 C 0.52272 1.00237 0.36697 0.0
C879 C 0.52395 0.00774 0.41369 0.0
C880 C 0.48578 0.99732 0.51019 0.0
C881 C 0.51279 0.0101 0.63298 0.0
C882 C 0.51162 0.00647 0.58318 0.0
C883 C 0.50779 0.99285 0.43866 0.0
C884 C 0.50913 0.99825 0.4884 0.0
H885 H 0.54145 0.05091 0.72326 0.0
H886 H 0.54103 0.04412 0.64154 0.0
H887 H 0.46862 1.00061 0.57263 0.0
H888 H 0.47529 0.95149 0.35265 0.0
H889 H 0.47784 0.96043 0.43391 0.0
C890 C 0.24751 0.27353 0.93703 0.0
C891 C 0.23268 0.25145 0.94848 0.0
C892 C 0.2522 0.27575 0.89236 0.0
C893 C 0.25239 0.23573 0.78177 0.0
H894 H 0.24843 0.30486 0.73494 0.0
C895 C 0.25363 0.24718 0.59235 0.0
C896 C 0.26893 0.26879 0.58043 0.0
C897 C 0.24907 0.24533 0.63714 0.0
C898 C 0.24989 0.28545 0.74758 0.0
H899 H 0.21166 0.2141 0.92164 0.0
H900 H 0.21933 0.21823 0.84393 0.0
H901 H 0.24121 0.30105 0.8131 0.0
H902 H 0.29092 0.30574 0.6065 0.0
H903 H 0.28328 0.30233 0.6846 0.0
H904 H 0.26099 0.22012 0.71622 0.0
C905 C 0.22757 0.23376 0.86949 0.0
C906 C 0.24578 0.28326 0.79248 0.0
C907 C 0.22288 0.23155 0.9141 0.0
C908 C 0.27927 0.28868 0.61447 0.0
C909 C 0.27465 0.28686 0.65925 0.0
C910 C 0.25646 0.23791 0.73687 0.0
C911 C 0.24223 0.25592 0.85794 0.0
C912 C 0.24694 0.25835 0.8102 0.0
C913 C 0.25963 0.26507 0.67124 0.0
C914 C 0.25523 0.26279 0.71913 0.0
H915 H 0.25517 0.28937 0.96249 0.0
H916 H 0.26383 0.29295 0.88487 0.0
H917 H 0.2539 0.2163 0.79435 0.0
H918 H 0.24556 0.23136 0.56716 0.0
H919 H 0.23715 0.22843 0.64502 0.0
C920 C 0.77301 0.28241 0.90398 0.0
C921 C 0.76649 0.26064 0.92754 0.0
C922 C 0.76802 0.28079 0.85717 0.0
C923 C 0.72828 0.24261 0.75972 0.0
H924 H 0.78125 0.27283 0.69185 0.0
C925 C 0.72237 0.22406 0.56599 0.0
C926 C 0.72919 0.24564 0.54222 0.0
C927 C 0.72679 0.22601 0.6129 0.0
C928 C 0.76609 0.26456 0.71026 0.0
H929 H 0.74962 0.22001 0.91997 0.0
H930 H 0.74095 0.21717 0.83837 0.0
H931 H 0.78886 0.27605 0.77351 0.0
H932 H 0.74584 0.28634 0.54953 0.0
H933 H 0.75355 0.28976 0.63129 0.0
H934 H 0.70553 0.23107 0.69643 0.0
C935 C 0.74959 0.23567 0.85618 0.0
C936 C 0.77046 0.26641 0.75717 0.0
C937 C 0.75456 0.2373 0.90304 0.0
C938 C 0.74069 0.26919 0.56664 0.0
C939 C 0.74511 0.27115 0.61358 0.0
C940 C 0.72392 0.24075 0.71279 0.0
C941 C 0.75639 0.25735 0.83258 0.0
C942 C 0.75162 0.25546 0.78256 0.0
C943 C 0.73817 0.2496 0.63736 0.0
C944 C 0.74277 0.25168 0.68741 0.0
H945 H 0.78178 0.30087 0.92179 0.0
H946 H 0.77306 0.29806 0.84027 0.0
H947 H 0.71315 0.2343 0.77814 0.0
H948 H 0.7139 0.20544 0.54831 0.0
H949 H 0.72163 0.20884 0.62996 0.0
C950 C 0.71931 0.73304 0.40712 0.0
C951 C 0.73046 0.75209 0.44188 0.0
C952 C 0.72404 0.73524 0.36255 0.0
C953 C 0.74509 0.78415 0.28678 0.0
H954 H 0.75608 0.72045 0.20846 0.0
C955 C 0.77789 0.78856 0.10815 0.0
C956 C 0.76623 0.76946 0.0739 0.0
C957 C 0.77339 0.78679 0.15298 0.0
C958 C 0.75273 0.73842 0.2297 0.0
H959 H 0.75539 0.78847 0.45663 0.0
H960 H 0.76409 0.79202 0.37901 0.0
H961 H 0.7491 0.71657 0.28662 0.0
H962 H 0.74063 0.73348 0.06027 0.0
H963 H 0.73242 0.73066 0.13824 0.0
H964 H 0.74878 0.80599 0.2298 0.0
C965 C 0.75139 0.77552 0.38621 0.0
C966 C 0.74874 0.7362 0.2746 0.0
C967 C 0.74667 0.7733 0.43085 0.0
C968 C 0.74972 0.7487 0.08564 0.0
C969 C 0.74528 0.74689 0.13048 0.0
C970 C 0.74911 0.78638 0.24186 0.0
C971 C 0.74008 0.75655 0.35143 0.0
C972 C 0.74479 0.75902 0.30374 0.0
C973 C 0.75717 0.76583 0.16479 0.0
C974 C 0.75292 0.76353 0.21269 0.0
H975 H 0.707 0.71625 0.41436 0.0
H976 H 0.71476 0.72041 0.33669 0.0
H977 H 0.7417 0.80211 0.308 0.0
H978 H 0.79049 0.80497 0.10031 0.0
H979 H 0.78305 0.80161 0.1785 0.0
C980 C 0.47313 0.47522 0.65686 0.0
C981 C 0.4923 0.48599 0.69171 0.0
C982 C 0.47564 0.47966 0.6122 0.0
C983 C 0.52517 0.49917 0.5365 0.0
H984 H 0.46239 0.51207 0.45763 0.0
C985 C 0.53139 0.53266 0.3584 0.0
C986 C 0.51202 0.522 0.3238 0.0
C987 C 0.52931 0.52786 0.40306 0.0
C988 C 0.4801 0.50817 0.47899 0.0
H989 H 0.52927 0.50988 0.7064 0.0
H990 H 0.53336 0.51806 0.62868 0.0
H991 H 0.45805 0.505 0.53563 0.0
H992 H 0.47523 0.49776 0.30949 0.0
H993 H 0.4719 0.48896 0.38708 0.0
H994 H 0.54722 0.5024 0.47982 0.0
C995 C 0.5165 0.50589 0.63588 0.0
C996 C 0.47762 0.50412 0.52384 0.0
C997 C 0.51398 0.50147 0.6806 0.0
C998 C 0.49068 0.5061 0.33508 0.0
C999 C 0.48858 0.50133 0.37975 0.0
C1000 C 0.52766 0.50324 0.49164 0.0
C1001 C 0.49739 0.49501 0.60102 0.0
C1002 C 0.50011 0.49954 0.55324 0.0
C1003 C 0.50777 0.51228 0.41442 0.0
C1004 C 0.50516 0.50777 0.46223 0.0
H1005 H 0.45599 0.46347 0.66409 0.0
H1006 H 0.46066 0.47071 0.58631 0.0
H1007 H 0.54289 0.49529 0.55789 0.0
H1008 H 0.54826 0.54475 0.351 0.0
H1009 H 0.54436 0.53681 0.42881 0.0
C1010 C 0.99528 0.50584 0.8788 0.0
C1011 C 0.00949 0.4847 0.86005 0.0
C1012 C 0.99555 0.51097 0.92541 0.0
C1013 C 0.03351 0.49826 0.03272 0.0
H1014 H 0.96777 0.51569 0.08332 0.0
C1015 C 0.02422 0.5018 0.22308 0.0
C1016 C 0.01035 0.52298 0.24254 0.0
C1017 C 0.02393 0.49721 0.17642 0.0
C1018 C 0.98636 0.51113 0.06972 0.0
H1019 H 0.03566 0.45279 0.87581 0.0
H1020 H 0.03572 0.46139 0.95689 0.0
H1021 H 0.96796 0.50802 1.00204 0.0
H1022 H 0.98479 0.55557 0.22801 0.0
H1023 H 0.98459 0.54778 0.14667 0.0
H1024 H 0.05188 0.50128 0.1004 0.0
C1025 C 0.02451 0.47416 0.93563 0.0
C1026 C 0.98648 0.50676 0.0231 0.0
C1027 C 0.02422 0.46902 0.88907 0.0
C1028 C 0.99592 0.53925 0.21416 0.0
C1029 C 0.99557 0.53461 0.1675 0.0
C1030 C 0.03338 0.5026 0.07933 0.0
C1031 C 0.01009 0.49512 0.95441 0.0
C1032 C 0.01005 0.50022 1.00401 0.0
C1033 C 0.0097 0.51363 0.14805 0.0
C1034 C 0.0098 0.50903 0.09842 0.0
H1035 H 0.98354 0.51817 0.85745 0.0
H1036 H 0.98447 0.52747 0.93873 0.0
H1037 H 0.05211 0.49369 0.01917 0.0
H1038 H 0.03574 0.48904 0.24394 0.0
H1039 H 0.03478 0.48068 0.16255 0.0
loop_
_geom_bond_atom_site_label_1
_geom_bond_atom_site_label_2
_geom_bond_distance
_geom_bond_site_symmetry_2
_ccdc_geom_bond_type
Eu0 C9 2.828 1_655 S
Eu0 O11 2.392 . S
Eu0 O13 2.418 1_655 S
Eu0 O18 2.373 1_665 S
Eu0 O21 2.488 1_655 S
Eu0 O22 2.471 . S
Eu0 O23 2.349 1_565 S
Eu1 O10 2.373 1_445 S
Eu1 O14 2.488 1_455 S
Eu1 O15 2.471 . S
Eu1 O16 2.349 1_545 S
Eu1 O19 2.392 . S
Eu1 O20 2.418 1_455 S
Eu1 C30 2.828 1_455 S
C2 O20 1.244 . S
C2 O23 1.265 . S
C3 C4 1.373 1_465 S
C3 C7 1.373 . S
C3 C9 1.505 . S
C4 C3 1.373 1_645 S
C4 C6 1.361 1_655 S
C4 H32 0.944 . S
C5 C7 1.383 . S
C5 C8 1.382 . S
C5 H33 0.930 . S
C6 C4 1.361 1_455 S
C6 C8 1.392 1_545 S
C6 H34 0.930 1_455 S
C7 C3 1.373 . S
C7 C5 1.383 . S
C7 H35 0.931 . S
C8 C5 1.382 . S
C8 C6 1.392 1_565 S
C9 Eu0 2.828 1_455 S
C9 C3 1.505 . S
C9 O21 1.249 . S
C9 O22 1.244 1_455 S
O10 Eu1 2.373 1_665 S
O10 C12 1.258 . S
O11 Eu0 2.392 . S
O11 C12 1.242 . S
C12 O10 1.258 . S
C12 O11 1.242 . S
O13 Eu0 2.418 1_455 S
O13 C17 1.244 . S
O14 Eu1 2.488 1_655 S
O14 C30 1.249 . S
O15 Eu1 2.471 . S
O15 C30 1.244 1_455 S
O16 Eu1 2.349 1_565 S
O16 C17 1.265 . S
C17 O13 1.244 . S
C17 O16 1.265 . S
O18 Eu0 2.373 1_445 S
O18 C31 1.258 . S
O19 Eu1 2.392 . S
O19 C31 1.242 . S
O20 Eu1 2.418 1_655 S
O20 C2 1.244 . S
O21 Eu0 2.488 1_455 S
O21 C9 1.249 . S
O22 Eu0 2.471 . S
O22 C9 1.244 1_655 S
O23 Eu0 2.349 1_545 S
O23 C2 1.265 . S
C24 C25 1.371 1_645 S
C24 C28 1.373 . S
C24 C30 1.505 . S
C25 C24 1.371 1_465 S
C25 C27 1.359 1_455 S
C25 H36 0.949 . S
C26 C28 1.383 . S
C26 C29 1.382 . S
C26 H37 0.930 . S
C27 C25 1.359 1_655 S
C27 C29 1.392 1_565 S
C27 H38 0.930 1_655 S
C28 C24 1.373 . S
C28 C26 1.383 . S
C28 H39 0.931 . S
C29 C26 1.382 . S
C29 C27 1.392 1_545 S
C30 Eu1 2.828 1_655 S
C30 O14 1.249 . S
C30 O15 1.244 1_655 S
C30 C24 1.505 . S
C31 O18 1.258 . S
C31 O19 1.242 . S
H32 C4 0.944 . S
H33 C5 0.930 . S
H34 C6 0.930 1_655 S
H35 C7 0.931 . S
H36 C25 0.949 . S
H37 C26 0.930 . S
H38 C27 0.930 1_455 S
H39 C28 0.931 . S
Eu40 C49 2.828 . S
Eu40 O51 2.392 . S
Eu40 O53 2.418 . S
Eu40 O58 2.373 . S
Eu40 O61 2.488 . S
Eu40 O62 2.471 . S
Eu40 O63 2.349 . S
Eu41 O50 2.373 . S
Eu41 O54 2.488 . S
Eu41 O55 2.471 . S
Eu41 O56 2.349 . S
Eu41 O59 2.392 . S
Eu41 O60 2.418 . S
Eu41 C70 2.828 . S
C42 O60 1.244 . S
C42 O63 1.265 . S
C43 C44 1.379 . S
C43 C47 1.373 . S
C43 C49 1.505 . S
C44 C43 1.379 . S
C44 C46 1.369 . S
C44 H72 0.930 . S
C45 C47 1.383 . S
C45 C48 1.382 . S
C45 H73 0.930 . S
C46 C44 1.369 . S
C46 C48 1.392 . S
C46 H74 0.930 . S
C47 C43 1.373 . S
C47 C45 1.383 . S
C47 H75 0.931 . S
C48 C45 1.382 . S
C48 C46 1.392 . S
C49 Eu40 2.828 . S
C49 C43 1.505 . S
C49 O61 1.249 . S
C49 O62 1.244 . S
O50 Eu41 2.373 . S
O50 C52 1.258 . S
O51 Eu40 2.392 . S
O51 C52 1.242 . S
C52 O50 1.258 . S
C52 O51 1.242 . S
O53 Eu40 2.418 . S
O53 C57 1.244 . S
O54 Eu41 2.488 . S
O54 C70 1.249 . S
O55 Eu41 2.471 . S
O55 C70 1.244 . S
O56 Eu41 2.349 . S
O56 C57 1.265 . S
C57 O53 1.244 . S
C57 O56 1.265 . S
O58 Eu40 2.373 . S
O58 C71 1.258 . S
O59 Eu41 2.392 . S
O59 C71 1.242 . S
O60 Eu41 2.418 . S
O60 C42 1.244 . S
O61 Eu40 2.488 . S
O61 C49 1.249 . S
O62 Eu40 2.471 . S
O62 C49 1.244 . S
O63 Eu40 2.349 . S
O63 C42 1.265 . S
C64 C65 1.379 . S
C64 C68 1.373 . S
C64 C70 1.505 . S
C65 C64 1.379 . S
C65 C67 1.369 1_556 S
C65 H76 0.930 . S
C66 C68 1.403 . S
C66 C69 1.374 1_556 S
C66 H77 0.918 1_556 S
C67 C65 1.369 1_554 S
C67 C69 1.392 . S
C67 H78 0.930 . S
C68 C64 1.373 . S
C68 C66 1.403 . S
C68 H79 0.931 . S
C69 C66 1.374 1_554 S
C69 C67 1.392 . S
C70 Eu41 2.828 . S
C70 O54 1.249 . S
C70 O55 1.244 . S
C70 C64 1.505 . S
C71 O58 1.258 . S
C71 O59 1.242 . S
H72 C44 0.930 . S
H73 C45 0.930 . S
H74 C46 0.930 . S
H75 C47 0.931 . S
H76 C65 0.930 . S
H77 C66 0.918 1_554 S
H78 C67 0.930 . S
H79 C68 0.931 . S
Eu80 C89 2.828 . S
Eu80 O91 2.392 1_554 S
Eu80 O93 2.418 . S
Eu80 O98 2.373 1_565 S
Eu80 O101 2.488 . S
Eu80 O102 2.471 1_565 S
Eu80 O103 2.349 1_565 S
Eu81 O90 2.373 1_545 S
Eu81 O94 2.488 . S
Eu81 O95 2.471 1_545 S
Eu81 O96 2.349 1_545 S
Eu81 O99 2.392 1_556 S
Eu81 O100 2.418 . S
Eu81 C110 2.828 . S
C82 O100 1.244 1_554 S
C82 O103 1.265 . S
C83 C84 1.379 1_565 S
C83 C87 1.373 . S
C83 C89 1.505 . S
C84 C83 1.379 1_545 S
C84 C86 1.369 . S
C84 H112 0.930 . S
C85 C87 1.383 . S
C85 C88 1.382 1_565 S
C85 H113 0.930 . S
C86 C84 1.369 . S
C86 C88 1.392 . S
C86 H114 0.930 . S
C87 C83 1.373 . S
C87 C85 1.383 . S
C87 H115 0.931 . S
C88 C85 1.382 1_545 S
C88 C86 1.392 . S
C89 Eu80 2.828 . S
C89 C83 1.505 . S
C89 O101 1.249 . S
C89 O102 1.244 1_565 S
O90 Eu81 2.373 1_565 S
O90 C92 1.258 . S
O91 Eu80 2.392 1_556 S
O91 C92 1.242 . S
C92 O90 1.258 . S
C92 O91 1.242 . S
O93 Eu80 2.418 . S
O93 C97 1.244 1_554 S
O94 Eu81 2.488 . S
O94 C110 1.249 . S
O95 Eu81 2.471 1_565 S
O95 C110 1.244 1_565 S
O96 Eu81 2.349 1_565 S
O96 C97 1.265 . S
C97 O93 1.244 1_556 S
C97 O96 1.265 . S
O98 Eu80 2.373 1_545 S
O98 C111 1.258 . S
O99 Eu81 2.392 1_554 S
O99 C111 1.242 . S
O100 Eu81 2.418 . S
O100 C82 1.244 1_556 S
O101 Eu80 2.488 . S
O101 C89 1.249 . S
O102 Eu80 2.471 1_545 S
O102 C89 1.244 1_545 S
O103 Eu80 2.349 1_545 S
O103 C82 1.265 . S
C104 C105 1.379 1_545 S
C104 C108 1.373 . S
C104 C110 1.505 . S
C105 C104 1.379 1_565 S
C105 C107 1.369 . S
C105 H116 0.930 . S
C106 C108 1.383 . S
C106 C109 1.382 1_545 S
C106 H117 0.930 . S
C107 C105 1.369 . S
C107 C109 1.392 . S
C107 H118 0.930 . S
C108 C104 1.373 . S
C108 C106 1.383 . S
C108 H119 0.931 . S
C109 C106 1.382 1_565 S
C109 C107 1.392 . S
C110 Eu81 2.828 . S
C110 O94 1.249 . S
C110 O95 1.244 1_545 S
C110 C104 1.505 . S
C111 O98 1.258 . S
C111 O99 1.242 . S
H112 C84 0.930 . S
H113 C85 0.930 . S
H114 C86 0.930 . S
H115 C87 0.931 . S
H116 C105 0.930 . S
H117 C106 0.930 . S
H118 C107 0.930 . S
H119 C108 0.931 . S
Eu120 C129 2.828 . S
Eu120 O131 2.392 . S
Eu120 O133 2.418 . S
Eu120 O138 2.373 . S
Eu120 O141 2.488 . S
Eu120 O142 2.471 . S
Eu120 O143 2.349 . S
Eu121 O130 2.373 . S
Eu121 O134 2.488 . S
Eu121 O135 2.471 . S
Eu121 O136 2.349 . S
Eu121 O139 2.392 . S
Eu121 O140 2.418 . S
Eu121 C150 2.828 . S
C122 O140 1.244 . S
C122 O143 1.265 . S
C123 C124 1.379 . S
C123 C127 1.373 . S
C123 C129 1.505 . S
C124 C123 1.379 . S
C124 C126 1.369 . S
C124 H152 0.930 . S
C125 C127 1.383 . S
C125 C128 1.382 . S
C125 H153 0.930 . S
C126 C124 1.369 . S
C126 C128 1.392 . S
C126 H154 0.930 . S
C127 C123 1.373 . S
C127 C125 1.383 . S
C127 H155 0.931 . S
C128 C125 1.382 . S
C128 C126 1.392 . S
C129 Eu120 2.828 . S
C129 C123 1.505 . S
C129 O141 1.249 . S
C129 O142 1.244 . S
O130 Eu121 2.373 . S
O130 C132 1.258 . S
O131 Eu120 2.392 . S
O131 C132 1.242 . S
C132 O130 1.258 . S
C132 O131 1.242 . S
O133 Eu120 2.418 . S
O133 C137 1.244 . S
O134 Eu121 2.488 . S
O134 C150 1.249 . S
O135 Eu121 2.471 . S
O135 C150 1.244 . S
O136 Eu121 2.349 . S
O136 C137 1.265 . S
C137 O133 1.244 . S
C137 O136 1.265 . S
O138 Eu120 2.373 . S
O138 C151 1.258 . S
O139 Eu121 2.392 . S
O139 C151 1.242 . S
O140 Eu121 2.418 . S
O140 C122 1.244 . S
O141 Eu120 2.488 . S
O141 C129 1.249 . S
O142 Eu120 2.471 . S
O142 C129 1.244 . S
O143 Eu120 2.349 . S
O143 C122 1.265 . S
C144 C145 1.379 . S
C144 C148 1.373 . S
C144 C150 1.505 . S
C145 C144 1.379 . S
C145 C147 1.369 . S
C145 H156 0.930 . S
C146 C148 1.383 1_556 S
C146 C149 1.382 . S
C146 H157 0.930 . S
C147 C145 1.369 . S
C147 C149 1.392 1_554 S
C147 H158 0.930 1_554 S
C148 C144 1.373 . S
C148 C146 1.383 1_554 S
C148 H159 0.931 . S
C149 C146 1.382 . S
C149 C147 1.392 1_556 S
C150 Eu121 2.828 . S
C150 O134 1.249 . S
C150 O135 1.244 . S
C150 C144 1.505 . S
C151 O138 1.258 . S
C151 O139 1.242 . S
H152 C124 0.930 . S
H153 C125 0.930 . S
H154 C126 0.930 . S
H155 C127 0.931 . S
H156 C145 0.930 . S
H157 C146 0.930 . S
H158 C147 0.930 1_556 S
H159 C148 0.931 . S
Eu160 C169 2.828 . S
Eu160 O171 2.392 . S
Eu160 O173 2.418 . S
Eu160 O178 2.373 . S
Eu160 O181 2.488 . S
Eu160 O182 2.471 . S
Eu160 O183 2.349 . S
Eu161 O170 2.373 . S
Eu161 O174 2.488 . S
Eu161 O175 2.471 . S
Eu161 O176 2.349 . S
Eu161 O179 2.392 . S
Eu161 O180 2.418 . S
Eu161 C190 2.828 . S
C162 O180 1.244 . S
C162 O183 1.265 . S
C163 C164 1.379 . S
C163 C167 1.373 . S
C163 C169 1.505 . S
C164 C163 1.379 . S
C164 C166 1.369 1_554 S
C164 H192 0.930 . S
C165 C167 1.403 . S
C165 C168 1.374 1_554 S
C165 H193 0.918 1_554 S
C166 C164 1.369 1_556 S
C166 C168 1.392 . S
C166 H194 0.930 . S
C167 C163 1.373 . S
C167 C165 1.403 . S
C167 H195 0.931 . S
C168 C165 1.374 1_556 S
C168 C166 1.392 . S
C169 Eu160 2.828 . S
C169 C163 1.505 . S
C169 O181 1.249 . S
C169 O182 1.244 . S
O170 Eu161 2.373 . S
O170 C172 1.258 . S
O171 Eu160 2.392 . S
O171 C172 1.242 . S
C172 O170 1.258 . S
C172 O171 1.242 . S
O173 Eu160 2.418 . S
O173 C177 1.244 . S
O174 Eu161 2.488 . S
O174 C190 1.249 . S
O175 Eu161 2.471 . S
O175 C190 1.244 . S
O176 Eu161 2.349 . S
O176 C177 1.265 . S
C177 O173 1.244 . S
C177 O176 1.265 . S
O178 Eu160 2.373 . S
O178 C191 1.258 . S
O179 Eu161 2.392 . S
O179 C191 1.242 . S
O180 Eu161 2.418 . S
O180 C162 1.244 . S
O181 Eu160 2.488 . S
O181 C169 1.249 . S
O182 Eu160 2.471 . S
O182 C169 1.244 . S
O183 Eu160 2.349 . S
O183 C162 1.265 . S
C184 C185 1.379 . S
C184 C188 1.373 . S
C184 C190 1.505 . S
C185 C184 1.379 . S
C185 C187 1.369 . S
C185 H196 0.930 . S
C186 C188 1.383 . S
C186 C189 1.382 . S
C186 H197 0.930 . S
C187 C185 1.369 . S
C187 C189 1.392 . S
C187 H198 0.930 . S
C188 C184 1.373 . S
C188 C186 1.383 . S
C188 H199 0.931 . S
C189 C186 1.382 . S
C189 C187 1.392 . S
C190 Eu161 2.828 . S
C190 O174 1.249 . S
C190 O175 1.244 . S
C190 C184 1.505 . S
C191 O178 1.258 . S
C191 O179 1.242 . S
H192 C164 0.930 . S
H193 C165 0.918 1_556 S
H194 C166 0.930 . S
H195 C167 0.931 . S
H196 C185 0.930 . S
H197 C186 0.930 . S
H198 C187 0.930 . S
H199 C188 0.931 . S
Eu200 C209 2.828 . S
Eu200 O211 2.392 . S
Eu200 O213 2.418 . S
Eu200 O218 2.373 . S
Eu200 O221 2.488 . S
Eu200 O222 2.471 . S
Eu200 O223 2.349 . S
Eu201 O210 2.373 . S
Eu201 O214 2.488 . S
Eu201 O215 2.471 . S
Eu201 O216 2.349 . S
Eu201 O219 2.392 . S
Eu201 O220 2.418 . S
Eu201 C230 2.828 . S
C202 O220 1.244 . S
C202 O223 1.265 . S
C203 C204 1.379 . S
C203 C207 1.373 . S
C203 C209 1.505 . S
C204 C203 1.379 . S
C204 C206 1.369 . S
C204 H232 0.930 . S
C205 C207 1.383 1_554 S
C205 C208 1.382 . S
C205 H233 0.930 . S
C206 C204 1.369 . S
C206 C208 1.392 1_556 S
C206 H234 0.930 1_556 S
C207 C203 1.373 . S
C207 C205 1.383 1_556 S
C207 H235 0.931 . S
C208 C205 1.382 . S
C208 C206 1.392 1_554 S
C209 Eu200 2.828 . S
C209 C203 1.505 . S
C209 O221 1.249 . S
C209 O222 1.244 . S
O210 Eu201 2.373 . S
O210 C212 1.258 . S
O211 Eu200 2.392 . S
O211 C212 1.242 . S
C212 O210 1.258 . S
C212 O211 1.242 . S
O213 Eu200 2.418 . S
O213 C217 1.244 . S
O214 Eu201 2.488 . S
O214 C230 1.249 . S
O215 Eu201 2.471 . S
O215 C230 1.244 . S
O216 Eu201 2.349 . S
O216 C217 1.265 . S
C217 O213 1.244 . S
C217 O216 1.265 . S
O218 Eu200 2.373 . S
O218 C231 1.258 . S
O219 Eu201 2.392 . S
O219 C231 1.242 . S
O220 Eu201 2.418 . S
O220 C202 1.244 . S
O221 Eu200 2.488 . S
O221 C209 1.249 . S
O222 Eu200 2.471 . S
O222 C209 1.244 . S
O223 Eu200 2.349 . S
O223 C202 1.265 . S
C224 C225 1.379 . S
C224 C228 1.373 . S
C224 C230 1.505 . S
C225 C224 1.379 . S
C225 C227 1.369 . S
C225 H236 0.930 . S
C226 C228 1.383 . S
C226 C229 1.382 . S
C226 H237 0.930 . S
C227 C225 1.369 . S
C227 C229 1.392 . S
C227 H238 0.930 . S
C228 C224 1.373 . S
C228 C226 1.383 . S
C228 H239 0.931 . S
C229 C226 1.382 . S
C229 C227 1.392 . S
C230 Eu201 2.828 . S
C230 O214 1.249 . S
C230 O215 1.244 . S
C230 C224 1.505 . S
C231 O218 1.258 . S
C231 O219 1.242 . S
H232 C204 0.930 . S
H233 C205 0.930 . S
H234 C206 0.930 1_554 S
H235 C207 0.931 . S
H236 C225 0.930 . S
H237 C226 0.930 . S
H238 C227 0.930 . S
H239 C228 0.931 . S
Eu240 C249 2.828 . S
Eu240 O251 2.392 . S
Eu240 O253 2.418 . S
Eu240 O258 2.373 . S
Eu240 O261 2.488 . S
Eu240 O262 2.471 . S
Eu240 O263 2.349 . S
Eu241 O250 2.373 . S
Eu241 O254 2.488 . S
Eu241 O255 2.471 . S
Eu241 O256 2.349 . S
Eu241 O259 2.392 . S
Eu241 O260 2.418 . S
Eu241 C270 2.828 . S
C242 O260 1.244 1_556 S
C242 O263 1.265 . S
C243 C244 1.379 . S
C243 C247 1.373 . S
C243 C249 1.505 . S
C244 C243 1.379 . S
C244 C246 1.369 . S
C244 H272 0.930 . S
C245 C247 1.383 . S
C245 C248 1.382 . S
C245 H273 0.930 . S
C246 C244 1.369 . S
C246 C248 1.392 . S
C246 H274 0.930 . S
C247 C243 1.373 . S
C247 C245 1.383 . S
C247 H275 0.931 . S
C248 C245 1.382 . S
C248 C246 1.392 . S
C249 Eu240 2.828 . S
C249 C243 1.505 . S
C249 O261 1.249 . S
C249 O262 1.244 . S
O250 Eu241 2.373 . S
O250 C252 1.258 . S
O251 Eu240 2.392 . S
O251 C252 1.242 1_556 S
C252 O250 1.258 . S
C252 O251 1.242 1_554 S
O253 Eu240 2.418 . S
O253 C257 1.244 1_556 S
O254 Eu241 2.488 . S
O254 C270 1.249 . S
O255 Eu241 2.471 . S
O255 C270 1.244 . S
O256 Eu241 2.349 . S
O256 C257 1.265 . S
C257 O253 1.244 1_554 S
C257 O256 1.265 . S
O258 Eu240 2.373 . S
O258 C271 1.258 . S
O259 Eu241 2.392 . S
O259 C271 1.242 1_554 S
O260 Eu241 2.418 . S
O260 C242 1.244 1_554 S
O261 Eu240 2.488 . S
O261 C249 1.249 . S
O262 Eu240 2.471 . S
O262 C249 1.244 . S
O263 Eu240 2.349 . S
O263 C242 1.265 . S
C264 C265 1.379 . S
C264 C268 1.373 . S
C264 C270 1.505 . S
C265 C264 1.379 . S
C265 C267 1.369 . S
C265 H276 0.930 . S
C266 C268 1.383 . S
C266 C269 1.382 . S
C266 H277 0.930 . S
C267 C265 1.369 . S
C267 C269 1.392 . S
C267 H278 0.930 . S
C268 C264 1.373 . S
C268 C266 1.383 . S
C268 H279 0.931 . S
C269 C266 1.382 . S
C269 C267 1.392 . S
C270 Eu241 2.828 . S
C270 O254 1.249 . S
C270 O255 1.244 . S
C270 C264 1.505 . S
C271 O258 1.258 . S
C271 O259 1.242 1_556 S
H272 C244 0.930 . S
H273 C245 0.930 . S
H274 C246 0.930 . S
H275 C247 0.931 . S
H276 C265 0.930 . S
H277 C266 0.930 . S
H278 C267 0.930 . S
H279 C268 0.931 . S
Eu280 C289 2.828 1_455 S
Eu280 O291 2.392 . S
Eu280 O293 2.418 1_455 S
Eu280 O298 2.373 1_455 S
Eu280 O301 2.488 1_455 S
Eu280 O302 2.471 . S
Eu280 O303 2.349 . S
Eu281 O290 2.373 1_655 S
Eu281 O294 2.488 1_655 S
Eu281 O295 2.471 . S
Eu281 O296 2.349 . S
Eu281 O299 2.392 . S
Eu281 O300 2.418 1_655 S
Eu281 C310 2.828 1_655 S
C282 O300 1.244 . S
C282 O303 1.265 . S
C283 C284 1.379 1_655 S
C283 C287 1.373 . S
C283 C289 1.505 . S
C284 C283 1.379 1_455 S
C284 C286 1.369 1_455 S
C284 H312 0.930 . S
C285 C287 1.383 . S
C285 C288 1.382 . S
C285 H313 0.930 . S
C286 C284 1.369 1_655 S
C286 C288 1.392 . S
C286 H314 0.930 1_655 S
C287 C283 1.373 . S
C287 C285 1.383 . S
C287 H315 0.931 . S
C288 C285 1.382 . S
C288 C286 1.392 . S
C289 Eu280 2.828 1_655 S
C289 C283 1.505 . S
C289 O301 1.249 . S
C289 O302 1.244 1_655 S
O290 Eu281 2.373 1_455 S
O290 C292 1.258 . S
O291 Eu280 2.392 . S
O291 C292 1.242 . S
C292 O290 1.258 . S
C292 O291 1.242 . S
O293 Eu280 2.418 1_655 S
O293 C297 1.244 . S
O294 Eu281 2.488 1_455 S
O294 C310 1.249 . S
O295 Eu281 2.471 . S
O295 C310 1.244 1_655 S
O296 Eu281 2.349 . S
O296 C297 1.265 . S
C297 O293 1.244 . S
C297 O296 1.265 . S
O298 Eu280 2.373 1_655 S
O298 C311 1.258 . S
O299 Eu281 2.392 . S
O299 C311 1.242 . S
O300 Eu281 2.418 1_455 S
O300 C282 1.244 . S
O301 Eu280 2.488 1_655 S
O301 C289 1.249 . S
O302 Eu280 2.471 . S
O302 C289 1.244 1_455 S
O303 Eu280 2.349 . S
O303 C282 1.265 . S
C304 C305 1.371 1_455 S
C304 C308 1.373 . S
C304 C310 1.505 . S
C305 C304 1.371 1_655 S
C305 C307 1.357 1_655 S
C305 H316 0.951 . S
C306 C308 1.383 . S
C306 C309 1.382 . S
C306 H317 0.930 . S
C307 C305 1.357 1_455 S
C307 C309 1.392 . S
C307 H318 0.930 1_455 S
C308 C304 1.373 . S
C308 C306 1.383 . S
C308 H319 0.931 . S
C309 C306 1.382 . S
C309 C307 1.392 . S
C310 Eu281 2.828 1_455 S
C310 O294 1.249 . S
C310 O295 1.244 1_455 S
C310 C304 1.505 . S
C311 O298 1.258 . S
C311 O299 1.242 . S
H312 C284 0.930 . S
H313 C285 0.930 . S
H314 C286 0.930 1_455 S
H315 C287 0.931 . S
H316 C305 0.951 . S
H317 C306 0.930 . S
H318 C307 0.930 1_655 S
H319 C308 0.931 . S
C320 C321 1.349 . S
C320 C322 1.327 . S
C320 H345 0.950 . S
C321 C320 1.349 . S
C321 C337 1.349 . S
C322 C320 1.327 . S
C322 C341 1.429 . S
C322 H346 0.950 . S
C323 C340 1.574 . S
C323 C342 1.368 . S
C323 H347 0.949 . S
H324 C328 0.949 . S
C325 C326 1.349 . S
C325 C327 1.327 . S
C325 H348 0.950 . S
C326 C325 1.349 . S
C326 C338 1.349 . S
C327 C325 1.327 . S
C327 C343 1.429 . S
C327 H349 0.950 . S
C328 H324 0.949 . S
C328 C336 1.574 . S
C328 C344 1.368 . S
H329 C337 0.950 . S
H330 C335 0.950 . S
H331 C336 0.949 . S
H332 C338 0.950 . S
H333 C339 0.950 . S
H334 C340 0.949 . S
C335 H330 0.950 . S
C335 C337 1.327 . S
C335 C341 1.429 . S
C336 C328 1.574 . S
C336 H331 0.949 . S
C336 C342 1.368 . S
C337 C321 1.349 . S
C337 H329 0.950 . S
C337 C335 1.327 . S
C338 C326 1.349 . S
C338 H332 0.950 . S
C338 C339 1.327 . S
C339 H333 0.950 . S
C339 C338 1.327 . S
C339 C343 1.429 . S
C340 C323 1.574 . S
C340 H334 0.949 . S
C340 C344 1.368 . S
C341 C322 1.429 . S
C341 C335 1.429 . S
C341 C342 1.523 . S
C342 C323 1.368 . S
C342 C336 1.368 . S
C342 C341 1.523 . S
C343 C327 1.429 . S
C343 C339 1.429 . S
C343 C344 1.523 . S
C344 C328 1.368 . S
C344 C340 1.368 . S
C344 C343 1.523 . S
H345 C320 0.950 . S
H346 C322 0.950 . S
H347 C323 0.949 . S
H348 C325 0.950 . S
H349 C327 0.950 . S
C350 C351 1.349 . S
C350 C352 1.327 . S
C350 H375 0.950 . S
C351 C350 1.349 . S
C351 C367 1.349 . S
C352 C350 1.327 . S
C352 C371 1.429 . S
C352 H376 0.950 . S
C353 C370 1.574 . S
C353 C372 1.368 . S
C353 H377 0.949 . S
H354 C358 0.949 . S
C355 C356 1.349 . S
C355 C357 1.327 . S
C355 H378 0.950 . S
C356 C355 1.349 . S
C356 C368 1.349 . S
C357 C355 1.327 . S
C357 C373 1.429 . S
C357 H379 0.950 . S
C358 H354 0.949 . S
C358 C366 1.574 . S
C358 C374 1.368 . S
H359 C367 0.950 . S
H360 C365 0.950 . S
H361 C366 0.949 . S
H362 C368 0.950 . S
H363 C369 0.950 . S
H364 C370 0.949 . S
C365 H360 0.950 . S
C365 C367 1.327 . S
C365 C371 1.429 . S
C366 C358 1.574 . S
C366 H361 0.949 . S
C366 C372 1.368 . S
C367 C351 1.349 . S
C367 H359 0.950 . S
C367 C365 1.327 . S
C368 C356 1.349 . S
C368 H362 0.950 . S
C368 C369 1.327 . S
C369 H363 0.950 . S
C369 C368 1.327 . S
C369 C373 1.429 . S
C370 C353 1.574 . S
C370 H364 0.949 . S
C370 C374 1.368 . S
C371 C352 1.429 . S
C371 C365 1.429 . S
C371 C372 1.523 . S
C372 C353 1.368 . S
C372 C366 1.368 . S
C372 C371 1.523 . S
C373 C357 1.429 . S
C373 C369 1.429 . S
C373 C374 1.523 . S
C374 C358 1.368 . S
C374 C370 1.368 . S
C374 C373 1.523 . S
H375 C350 0.950 . S
H376 C352 0.950 . S
H377 C353 0.949 . S
H378 C355 0.950 . S
H379 C357 0.950 . S
C380 C381 1.349 . S
C380 C382 1.327 . S
C380 H405 0.950 . S
C381 C380 1.349 . S
C381 C397 1.349 . S
C382 C380 1.327 . S
C382 C401 1.429 . S
C382 H406 0.950 . S
C383 C400 1.574 . S
C383 C402 1.368 . S
C383 H407 0.949 . S
H384 C388 0.949 . S
C385 C386 1.349 . S
C385 C387 1.327 . S
C385 H408 0.950 1_556 S
C386 C385 1.349 . S
C386 C398 1.349 . S
C387 C385 1.327 . S
C387 C403 1.429 . S
C387 H409 0.950 . S
C388 H384 0.949 . S
C388 C396 1.574 . S
C388 C404 1.368 . S
H389 C397 0.950 . S
H390 C395 0.950 . S
H391 C396 0.949 . S
H392 C398 0.950 . S
H393 C399 0.950 . S
H394 C400 0.949 . S
C395 H390 0.950 . S
C395 C397 1.327 . S
C395 C401 1.429 . S
C396 C388 1.574 . S
C396 H391 0.949 . S
C396 C402 1.368 . S
C397 C381 1.349 . S
C397 H389 0.950 . S
C397 C395 1.327 . S
C398 C386 1.349 . S
C398 H392 0.950 . S
C398 C399 1.327 . S
C399 H393 0.950 . S
C399 C398 1.327 . S
C399 C403 1.429 . S
C400 C383 1.574 . S
C400 H394 0.949 . S
C400 C404 1.368 . S
C401 C382 1.429 . S
C401 C395 1.429 . S
C401 C402 1.523 . S
C402 C383 1.368 . S
C402 C396 1.368 . S
C402 C401 1.523 . S
C403 C387 1.429 . S
C403 C399 1.429 . S
C403 C404 1.523 . S
C404 C388 1.368 . S
C404 C400 1.368 . S
C404 C403 1.523 . S
H405 C380 0.950 . S
H406 C382 0.950 . S
H407 C383 0.949 . S
H408 C385 0.950 1_554 S
H409 C387 0.950 . S
C410 C411 1.349 . S
C410 C412 1.327 . S
C410 H435 0.950 . S
C411 C410 1.349 . S
C411 C427 1.349 . S
C412 C410 1.327 . S
C412 C431 1.429 . S
C412 H436 0.950 . S
C413 C430 1.574 . S
C413 C432 1.368 . S
C413 H437 0.949 . S
H414 C418 0.949 . S
C415 C416 1.349 . S
C415 C417 1.327 . S
C415 H438 0.950 . S
C416 C415 1.349 . S
C416 C428 1.349 . S
C417 C415 1.327 . S
C417 C433 1.429 . S
C417 H439 0.950 . S
C418 H414 0.949 . S
C418 C426 1.574 . S
C418 C434 1.368 . S
H419 C427 0.950 . S
H420 C425 0.950 . S
H421 C426 0.949 . S
H422 C428 0.950 . S
H423 C429 0.950 . S
H424 C430 0.949 . S
C425 H420 0.950 . S
C425 C427 1.327 . S
C425 C431 1.429 . S
C426 C418 1.574 . S
C426 H421 0.949 . S
C426 C432 1.368 . S
C427 C411 1.349 . S
C427 H419 0.950 . S
C427 C425 1.327 . S
C428 C416 1.349 . S
C428 H422 0.950 . S
C428 C429 1.327 . S
C429 H423 0.950 . S
C429 C428 1.327 . S
C429 C433 1.429 . S
C430 C413 1.574 . S
C430 H424 0.949 . S
C430 C434 1.368 . S
C431 C412 1.429 . S
C431 C425 1.429 . S
C431 C432 1.523 . S
C432 C413 1.368 . S
C432 C426 1.368 . S
C432 C431 1.523 . S
C433 C417 1.429 . S
C433 C429 1.429 . S
C433 C434 1.523 . S
C434 C418 1.368 . S
C434 C430 1.368 . S
C434 C433 1.523 . S
H435 C410 0.950 . S
H436 C412 0.950 . S
H437 C413 0.949 . S
H438 C415 0.950 . S
H439 C417 0.950 . S
C440 C441 1.349 . S
C440 C442 1.327 . S
C440 H465 0.950 . S
C441 C440 1.349 . S
C441 C457 1.349 . S
C442 C440 1.327 . S
C442 C461 1.429 . S
C442 H466 0.950 . S
C443 C460 1.574 . S
C443 C462 1.368 . S
C443 H467 0.949 . S
H444 C448 0.949 . S
C445 C446 1.349 . S
C445 C447 1.327 . S
C445 H468 0.950 . S
C446 C445 1.349 . S
C446 C458 1.349 . S
C447 C445 1.327 . S
C447 C463 1.429 . S
C447 H469 0.950 . S
C448 H444 0.949 . S
C448 C456 1.574 . S
C448 C464 1.368 . S
H449 C457 0.950 . S
H450 C455 0.950 . S
H451 C456 0.949 . S
H452 C458 0.950 . S
H453 C459 0.950 . S
H454 C460 0.949 . S
C455 H450 0.950 . S
C455 C457 1.327 . S
C455 C461 1.429 . S
C456 C448 1.574 . S
C456 H451 0.949 . S
C456 C462 1.368 . S
C457 C441 1.349 . S
C457 H449 0.950 . S
C457 C455 1.327 . S
C458 C446 1.349 . S
C458 H452 0.950 . S
C458 C459 1.327 . S
C459 H453 0.950 . S
C459 C458 1.327 . S
C459 C463 1.429 . S
C460 C443 1.574 . S
C460 H454 0.949 . S
C460 C464 1.368 . S
C461 C442 1.429 . S
C461 C455 1.429 . S
C461 C462 1.523 . S
C462 C443 1.368 . S
C462 C456 1.368 . S
C462 C461 1.523 . S
C463 C447 1.429 . S
C463 C459 1.429 . S
C463 C464 1.523 . S
C464 C448 1.368 . S
C464 C460 1.368 . S
C464 C463 1.523 . S
H465 C440 0.950 . S
H466 C442 0.950 . S
H467 C443 0.949 . S
H468 C445 0.950 . S
H469 C447 0.950 . S
C470 C471 1.349 . S
C470 C472 1.327 . S
C470 H495 0.950 . S
C471 C470 1.349 . S
C471 C487 1.349 . S
C472 C470 1.327 . S
C472 C491 1.429 . S
C472 H496 0.950 . S
C473 C490 1.574 . S
C473 C492 1.368 . S
C473 H497 0.949 . S
H474 C478 0.949 . S
C475 C476 1.349 . S
C475 C477 1.327 . S
C475 H498 0.950 . S
C476 C475 1.349 . S
C476 C488 1.349 . S
C477 C475 1.327 . S
C477 C493 1.429 . S
C477 H499 0.950 . S
C478 H474 0.949 . S
C478 C486 1.574 . S
C478 C494 1.368 . S
H479 C487 0.950 . S
H480 C485 0.950 . S
H481 C486 0.949 . S
H482 C488 0.950 . S
H483 C489 0.950 . S
H484 C490 0.949 . S
C485 H480 0.950 . S
C485 C487 1.327 . S
C485 C491 1.429 . S
C486 C478 1.574 . S
C486 H481 0.949 . S
C486 C492 1.368 . S
C487 C471 1.349 . S
C487 H479 0.950 . S
C487 C485 1.327 . S
C488 C476 1.349 . S
C488 H482 0.950 . S
C488 C489 1.327 . S
C489 H483 0.950 . S
C489 C488 1.327 . S
C489 C493 1.429 . S
C490 C473 1.574 . S
C490 H484 0.949 . S
C490 C494 1.368 . S
C491 C472 1.429 . S
C491 C485 1.429 . S
C491 C492 1.523 . S
C492 C473 1.368 . S
C492 C486 1.368 . S
C492 C491 1.523 . S
C493 C477 1.429 . S
C493 C489 1.429 . S
C493 C494 1.523 . S
C494 C478 1.368 . S
C494 C490 1.368 . S
C494 C493 1.523 . S
H495 C470 0.950 . S
H496 C472 0.950 . S
H497 C473 0.949 . S
H498 C475 0.950 . S
H499 C477 0.950 . S
C500 C501 1.349 . S
C500 C502 1.327 . S
C500 H525 0.950 . S
C501 C500 1.349 . S
C501 C517 1.349 . S
C502 C500 1.327 . S
C502 C521 1.429 . S
C502 H526 0.950 . S
C503 C520 1.574 . S
C503 C522 1.368 . S
C503 H527 0.949 . S
H504 C508 0.949 . S
C505 C506 1.349 . S
C505 C507 1.327 . S
C505 H528 0.950 1_554 S
C506 C505 1.349 . S
C506 C518 1.349 . S
C507 C505 1.327 . S
C507 C523 1.429 . S
C507 H529 0.950 . S
C508 H504 0.949 . S
C508 C516 1.574 . S
C508 C524 1.368 . S
H509 C517 0.950 . S
H510 C515 0.950 . S
H511 C516 0.949 . S
H512 C518 0.950 . S
H513 C519 0.950 . S
H514 C520 0.949 . S
C515 H510 0.950 . S
C515 C517 1.327 . S
C515 C521 1.429 . S
C516 C508 1.574 . S
C516 H511 0.949 . S
C516 C522 1.368 . S
C517 C501 1.349 . S
C517 H509 0.950 . S
C517 C515 1.327 . S
C518 C506 1.349 . S
C518 H512 0.950 . S
C518 C519 1.327 . S
C519 H513 0.950 . S
C519 C518 1.327 . S
C519 C523 1.429 . S
C520 C503 1.574 . S
C520 H514 0.949 . S
C520 C524 1.368 . S
C521 C502 1.429 . S
C521 C515 1.429 . S
C521 C522 1.523 . S
C522 C503 1.368 . S
C522 C516 1.368 . S
C522 C521 1.523 . S
C523 C507 1.429 . S
C523 C519 1.429 . S
C523 C524 1.523 . S
C524 C508 1.368 . S
C524 C520 1.368 . S
C524 C523 1.523 . S
H525 C500 0.950 . S
H526 C502 0.950 . S
H527 C503 0.949 . S
H528 C505 0.950 1_556 S
H529 C507 0.950 . S
C530 C531 1.349 . S
C530 C532 1.327 . S
C530 H555 0.950 . S
C531 C530 1.349 . S
C531 C547 1.349 . S
C532 C530 1.327 . S
C532 C551 1.429 . S
C532 H556 0.950 . S
C533 C550 1.574 . S
C533 C552 1.368 . S
C533 H557 0.949 . S
H534 C538 0.949 . S
C535 C536 1.349 . S
C535 C537 1.327 . S
C535 H558 0.950 . S
C536 C535 1.349 . S
C536 C548 1.349 . S
C537 C535 1.327 . S
C537 C553 1.429 . S
C537 H559 0.950 . S
C538 H534 0.949 . S
C538 C546 1.574 . S
C538 C554 1.368 . S
H539 C547 0.950 . S
H540 C545 0.950 . S
H541 C546 0.949 . S
H542 C548 0.950 . S
H543 C549 0.950 . S
H544 C550 0.949 . S
C545 H540 0.950 . S
C545 C547 1.327 . S
C545 C551 1.429 . S
C546 C538 1.574 . S
C546 H541 0.949 . S
C546 C552 1.368 . S
C547 C531 1.349 . S
C547 H539 0.950 . S
C547 C545 1.327 . S
C548 C536 1.349 . S
C548 H542 0.950 . S
C548 C549 1.327 . S
C549 H543 0.950 . S
C549 C548 1.327 . S
C549 C553 1.429 . S
C550 C533 1.574 . S
C550 H544 0.949 . S
C550 C554 1.368 . S
C551 C532 1.429 . S
C551 C545 1.429 . S
C551 C552 1.523 . S
C552 C533 1.368 . S
C552 C546 1.368 . S
C552 C551 1.523 . S
C553 C537 1.429 . S
C553 C549 1.429 . S
C553 C554 1.523 . S
C554 C538 1.368 . S
C554 C550 1.368 . S
C554 C553 1.523 . S
H555 C530 0.950 . S
H556 C532 0.950 . S
H557 C533 0.949 . S
H558 C535 0.950 . S
H559 C537 0.950 . S
C560 C561 1.349 . S
C560 C562 1.327 . S
C560 H585 0.950 . S
C561 C560 1.349 . S
C561 C577 1.349 . S
C562 C560 1.327 . S
C562 C581 1.429 . S
C562 H586 0.950 . S
C563 C580 1.574 . S
C563 C582 1.368 . S
C563 H587 0.949 . S
H564 C568 0.949 . S
C565 C566 1.349 . S
C565 C567 1.327 . S
C565 H588 0.950 . S
C566 C565 1.349 . S
C566 C578 1.349 . S
C567 C565 1.327 . S
C567 C583 1.429 . S
C567 H589 0.950 . S
C568 H564 0.949 . S
C568 C576 1.574 . S
C568 C584 1.368 . S
H569 C577 0.950 . S
H570 C575 0.950 . S
H571 C576 0.949 . S
H572 C578 0.950 . S
H573 C579 0.950 . S
H574 C580 0.949 . S
C575 H570 0.950 . S
C575 C577 1.327 . S
C575 C581 1.429 . S
C576 C568 1.574 . S
C576 H571 0.949 . S
C576 C582 1.368 . S
C577 C561 1.349 . S
C577 H569 0.950 . S
C577 C575 1.327 . S
C578 C566 1.349 . S
C578 H572 0.950 . S
C578 C579 1.327 . S
C579 H573 0.950 . S
C579 C578 1.327 . S
C579 C583 1.429 . S
C580 C563 1.574 . S
C580 H574 0.949 . S
C580 C584 1.368 . S
C581 C562 1.429 . S
C581 C575 1.429 . S
C581 C582 1.523 . S
C582 C563 1.368 . S
C582 C576 1.368 . S
C582 C581 1.523 . S
C583 C567 1.429 . S
C583 C579 1.429 . S
C583 C584 1.523 . S
C584 C568 1.368 . S
C584 C580 1.368 . S
C584 C583 1.523 . S
H585 C560 0.950 . S
H586 C562 0.950 . S
H587 C563 0.949 . S
H588 C565 0.950 . S
H589 C567 0.950 . S
C590 C591 1.349 . S
C590 C592 1.327 . S
C590 H615 0.950 . S
C591 C590 1.349 . S
C591 C607 1.349 . S
C592 C590 1.327 . S
C592 C611 1.429 . S
C592 H616 0.950 . S
C593 C610 1.574 . S
C593 C612 1.368 . S
C593 H617 0.949 . S
H594 C598 0.949 . S
C595 C596 1.349 . S
C595 C597 1.327 . S
C595 H618 0.950 . S
C596 C595 1.349 . S
C596 C608 1.349 . S
C597 C595 1.327 . S
C597 C613 1.429 . S
C597 H619 0.950 . S
C598 H594 0.949 . S
C598 C606 1.574 . S
C598 C614 1.368 . S
H599 C607 0.950 . S
H600 C605 0.950 . S
H601 C606 0.949 . S
H602 C608 0.950 . S
H603 C609 0.950 . S
H604 C610 0.949 . S
C605 H600 0.950 . S
C605 C607 1.327 . S
C605 C611 1.429 . S
C606 C598 1.574 . S
C606 H601 0.949 . S
C606 C612 1.368 . S
C607 C591 1.349 . S
C607 H599 0.950 . S
C607 C605 1.327 . S
C608 C596 1.349 . S
C608 H602 0.950 . S
C608 C609 1.327 . S
C609 H603 0.950 . S
C609 C608 1.327 . S
C609 C613 1.429 . S
C610 C593 1.574 . S
C610 H604 0.949 . S
C610 C614 1.368 . S
C611 C592 1.429 . S
C611 C605 1.429 . S
C611 C612 1.523 . S
C612 C593 1.368 . S
C612 C606 1.368 . S
C612 C611 1.523 . S
C613 C597 1.429 . S
C613 C609 1.429 . S
C613 C614 1.523 . S
C614 C598 1.368 . S
C614 C610 1.368 . S
C614 C613 1.523 . S
H615 C590 0.950 . S
H616 C592 0.950 . S
H617 C593 0.949 . S
H618 C595 0.950 . S
H619 C597 0.950 . S
C620 C621 1.349 . S
C620 C622 1.327 . S
C620 H645 0.950 . S
C621 C620 1.349 . S
C621 C637 1.349 . S
C622 C620 1.327 . S
C622 C641 1.429 . S
C622 H646 0.950 . S
C623 C640 1.574 . S
C623 C642 1.368 . S
C623 H647 0.949 . S
H624 C628 0.949 . S
C625 C626 1.349 . S
C625 C627 1.327 . S
C625 H648 0.950 . S
C626 C625 1.349 . S
C626 C638 1.349 . S
C627 C625 1.327 . S
C627 C643 1.429 . S
C627 H649 0.950 . S
C628 H624 0.949 . S
C628 C636 1.574 . S
C628 C644 1.368 . S
H629 C637 0.950 . S
H630 C635 0.950 . S
H631 C636 0.949 . S
H632 C638 0.950 . S
H633 C639 0.950 . S
H634 C640 0.949 . S
C635 H630 0.950 . S
C635 C637 1.327 . S
C635 C641 1.429 . S
C636 C628 1.574 . S
C636 H631 0.949 . S
C636 C642 1.368 . S
C637 C621 1.349 . S
C637 H629 0.950 . S
C637 C635 1.327 . S
C638 C626 1.349 . S
C638 H632 0.950 . S
C638 C639 1.327 . S
C639 H633 0.950 . S
C639 C638 1.327 . S
C639 C643 1.429 . S
C640 C623 1.574 . S
C640 H634 0.949 . S
C640 C644 1.368 . S
C641 C622 1.429 . S
C641 C635 1.429 . S
C641 C642 1.523 . S
C642 C623 1.368 . S
C642 C636 1.368 . S
C642 C641 1.523 . S
C643 C627 1.429 . S
C643 C639 1.429 . S
C643 C644 1.523 . S
C644 C628 1.368 . S
C644 C640 1.368 . S
C644 C643 1.523 . S
H645 C620 0.950 . S
H646 C622 0.950 . S
H647 C623 0.949 . S
H648 C625 0.950 . S
H649 C627 0.950 . S
C650 C651 1.349 . S
C650 C652 1.327 . S
C650 H675 0.950 . S
C651 C650 1.349 . S
C651 C667 1.349 . S
C652 C650 1.327 . S
C652 C671 1.429 . S
C652 H676 0.950 . S
C653 C670 1.574 . S
C653 C672 1.368 . S
C653 H677 0.949 . S
H654 C658 0.949 . S
C655 C656 1.349 . S
C655 C657 1.327 . S
C655 H678 0.950 . S
C656 C655 1.349 . S
C656 C668 1.349 . S
C657 C655 1.327 . S
C657 C673 1.429 . S
C657 H679 0.950 . S
C658 H654 0.949 . S
C658 C666 1.574 . S
C658 C674 1.368 . S
H659 C667 0.950 . S
H660 C665 0.950 . S
H661 C666 0.949 . S
H662 C668 0.950 . S
H663 C669 0.950 . S
H664 C670 0.949 . S
C665 H660 0.950 . S
C665 C667 1.327 . S
C665 C671 1.429 . S
C666 C658 1.574 . S
C666 H661 0.949 . S
C666 C672 1.368 . S
C667 C651 1.349 . S
C667 H659 0.950 . S
C667 C665 1.327 . S
C668 C656 1.349 . S
C668 H662 0.950 . S
C668 C669 1.327 . S
C669 H663 0.950 . S
C669 C668 1.327 . S
C669 C673 1.429 . S
C670 C653 1.574 . S
C670 H664 0.949 . S
C670 C674 1.368 . S
C671 C652 1.429 . S
C671 C665 1.429 . S
C671 C672 1.523 . S
C672 C653 1.368 . S
C672 C666 1.368 . S
C672 C671 1.523 . S
C673 C657 1.429 . S
C673 C669 1.429 . S
C673 C674 1.523 . S
C674 C658 1.368 . S
C674 C670 1.368 . S
C674 C673 1.523 . S
H675 C650 0.950 . S
H676 C652 0.950 . S
H677 C653 0.949 . S
H678 C655 0.950 . S
H679 C657 0.950 . S
C680 C681 1.349 . S
C680 C682 1.327 . S
C680 H705 0.950 . S
C681 C680 1.349 . S
C681 C697 1.349 . S
C682 C680 1.327 . S
C682 C701 1.429 . S
C682 H706 0.950 . S
C683 C700 1.574 . S
C683 C702 1.368 . S
C683 H707 0.949 . S
H684 C688 0.949 . S
C685 C686 1.349 . S
C685 C687 1.327 . S
C685 H708 0.950 . S
C686 C685 1.349 . S
C686 C698 1.349 . S
C687 C685 1.327 . S
C687 C703 1.429 . S
C687 H709 0.950 . S
C688 H684 0.949 . S
C688 C696 1.574 . S
C688 C704 1.368 . S
H689 C697 0.950 . S
H690 C695 0.950 . S
H691 C696 0.949 . S
H692 C698 0.950 . S
H693 C699 0.950 . S
H694 C700 0.949 . S
C695 H690 0.950 . S
C695 C697 1.327 . S
C695 C701 1.429 . S
C696 C688 1.574 . S
C696 H691 0.949 . S
C696 C702 1.368 . S
C697 C681 1.349 . S
C697 H689 0.950 . S
C697 C695 1.327 . S
C698 C686 1.349 . S
C698 H692 0.950 . S
C698 C699 1.327 . S
C699 H693 0.950 . S
C699 C698 1.327 . S
C699 C703 1.429 . S
C700 C683 1.574 . S
C700 H694 0.949 . S
C700 C704 1.368 . S
C701 C682 1.429 . S
C701 C695 1.429 . S
C701 C702 1.523 . S
C702 C683 1.368 . S
C702 C696 1.368 . S
C702 C701 1.523 . S
C703 C687 1.429 . S
C703 C699 1.429 . S
C703 C704 1.523 . S
C704 C688 1.368 . S
C704 C700 1.368 . S
C704 C703 1.523 . S
H705 C680 0.950 . S
H706 C682 0.950 . S
H707 C683 0.949 . S
H708 C685 0.950 . S
H709 C687 0.950 . S
C710 C711 1.349 . S
C710 C712 1.327 . S
C710 H735 0.950 1_556 S
C711 C710 1.349 . S
C711 C727 1.349 . S
C712 C710 1.327 . S
C712 C731 1.429 . S
C712 H736 0.950 . S
C713 C730 1.574 . S
C713 C732 1.368 . S
C713 H737 0.949 . S
H714 C718 0.949 . S
C715 C716 1.349 . S
C715 C717 1.327 . S
C715 H738 0.950 . S
C716 C715 1.349 . S
C716 C728 1.349 . S
C717 C715 1.327 . S
C717 C733 1.429 . S
C717 H739 0.950 . S
C718 H714 0.949 . S
C718 C726 1.574 . S
C718 C734 1.368 . S
H719 C727 0.950 . S
H720 C725 0.950 . S
H721 C726 0.949 . S
H722 C728 0.950 . S
H723 C729 0.950 . S
H724 C730 0.949 . S
C725 H720 0.950 . S
C725 C727 1.327 . S
C725 C731 1.429 . S
C726 C718 1.574 . S
C726 H721 0.949 . S
C726 C732 1.368 . S
C727 C711 1.349 . S
C727 H719 0.950 . S
C727 C725 1.327 . S
C728 C716 1.349 . S
C728 H722 0.950 . S
C728 C729 1.327 . S
C729 H723 0.950 . S
C729 C728 1.327 . S
C729 C733 1.429 . S
C730 C713 1.574 . S
C730 H724 0.949 . S
C730 C734 1.368 . S
C731 C712 1.429 . S
C731 C725 1.429 . S
C731 C732 1.523 . S
C732 C713 1.368 . S
C732 C726 1.368 . S
C732 C731 1.523 . S
C733 C717 1.429 . S
C733 C729 1.429 . S
C733 C734 1.523 . S
C734 C718 1.368 . S
C734 C730 1.368 . S
C734 C733 1.523 . S
H735 C710 0.950 1_554 S
H736 C712 0.950 . S
H737 C713 0.949 . S
H738 C715 0.950 . S
H739 C717 0.950 . S
C740 C741 1.349 . S
C740 C742 1.327 . S
C740 H765 0.950 . S
C741 C740 1.349 . S
C741 C757 1.349 . S
C742 C740 1.327 . S
C742 C761 1.429 . S
C742 H766 0.950 . S
C743 C760 1.574 . S
C743 C762 1.368 . S
C743 H767 0.949 . S
H744 C748 0.949 . S
C745 C746 1.349 . S
C745 C747 1.327 . S
C745 H768 0.950 . S
C746 C745 1.349 . S
C746 C758 1.349 . S
C747 C745 1.327 . S
C747 C763 1.429 . S
C747 H769 0.950 . S
C748 H744 0.949 . S
C748 C756 1.574 . S
C748 C764 1.368 . S
H749 C757 0.950 . S
H750 C755 0.950 . S
H751 C756 0.949 . S
H752 C758 0.950 . S
H753 C759 0.950 . S
H754 C760 0.949 . S
C755 H750 0.950 . S
C755 C757 1.327 . S
C755 C761 1.429 . S
C756 C748 1.574 . S
C756 H751 0.949 . S
C756 C762 1.368 . S
C757 C741 1.349 . S
C757 H749 0.950 . S
C757 C755 1.327 . S
C758 C746 1.349 . S
C758 H752 0.950 . S
C758 C759 1.327 . S
C759 H753 0.950 . S
C759 C758 1.327 . S
C759 C763 1.429 . S
C760 C743 1.574 . S
C760 H754 0.949 . S
C760 C764 1.368 . S
C761 C742 1.429 . S
C761 C755 1.429 . S
C761 C762 1.523 . S
C762 C743 1.368 . S
C762 C756 1.368 . S
C762 C761 1.523 . S
C763 C747 1.429 . S
C763 C759 1.429 . S
C763 C764 1.523 . S
C764 C748 1.368 . S
C764 C760 1.368 . S
C764 C763 1.523 . S
H765 C740 0.950 . S
H766 C742 0.950 . S
H767 C743 0.949 . S
H768 C745 0.950 . S
H769 C747 0.950 . S
C770 C771 1.349 . S
C770 C772 1.327 . S
C770 H795 0.950 . S
C771 C770 1.349 . S
C771 C787 1.349 . S
C772 C770 1.327 . S
C772 C791 1.429 . S
C772 H796 0.950 . S
C773 C790 1.574 . S
C773 C792 1.368 . S
C773 H797 0.949 . S
H774 C778 0.949 . S
C775 C776 1.349 . S
C775 C777 1.327 . S
C775 H798 0.950 . S
C776 C775 1.349 . S
C776 C788 1.349 . S
C777 C775 1.327 . S
C777 C793 1.429 . S
C777 H799 0.950 . S
C778 H774 0.949 . S
C778 C786 1.574 . S
C778 C794 1.368 . S
H779 C787 0.950 . S
H780 C785 0.950 . S
H781 C786 0.949 . S
H782 C788 0.950 . S
H783 C789 0.950 . S
H784 C790 0.949 . S
C785 H780 0.950 . S
C785 C787 1.327 . S
C785 C791 1.429 . S
C786 C778 1.574 . S
C786 H781 0.949 . S
C786 C792 1.368 . S
C787 C771 1.349 . S
C787 H779 0.950 . S
C787 C785 1.327 . S
C788 C776 1.349 . S
C788 H782 0.950 . S
C788 C789 1.327 . S
C789 H783 0.950 . S
C789 C788 1.327 . S
C789 C793 1.429 . S
C790 C773 1.574 . S
C790 H784 0.949 . S
C790 C794 1.368 . S
C791 C772 1.429 . S
C791 C785 1.429 . S
C791 C792 1.523 . S
C792 C773 1.368 . S
C792 C786 1.368 . S
C792 C791 1.523 . S
C793 C777 1.429 . S
C793 C789 1.429 . S
C793 C794 1.523 . S
C794 C778 1.368 . S
C794 C790 1.368 . S
C794 C793 1.523 . S
H795 C770 0.950 . S
H796 C772 0.950 . S
H797 C773 0.949 . S
H798 C775 0.950 . S
H799 C777 0.950 . S
C800 C801 1.349 1_565 S
C800 C802 1.327 1_655 S
C800 H825 0.950 1_655 S
C801 C800 1.349 1_545 S
C801 C817 1.349 . S
C802 C800 1.327 1_455 S
C802 C821 1.429 1_465 S
C802 H826 0.950 . S
C803 C820 1.574 1_556 S
C803 C822 1.368 . S
C803 H827 0.949 . S
H804 C808 0.949 . S
C805 C806 1.349 1_545 S
C805 C807 1.327 1_455 S
C805 H828 0.950 1_455 S
C806 C805 1.349 1_565 S
C806 C818 1.349 . S
C807 C805 1.327 1_655 S
C807 C823 1.429 1_645 S
C807 H829 0.950 . S
C808 H804 0.949 . S
C808 C816 1.574 1_554 S
C808 C824 1.368 . S
H809 C817 0.950 . S
H810 C815 0.950 . S
H811 C816 0.949 . S
H812 C818 0.950 . S
H813 C819 0.950 . S
H814 C820 0.949 . S
C815 H810 0.950 . S
C815 C817 1.327 . S
C815 C821 1.429 . S
C816 C808 1.574 1_556 S
C816 H811 0.949 . S
C816 C822 1.368 1_465 S
C817 C801 1.349 . S
C817 H809 0.950 . S
C817 C815 1.327 . S
C818 C806 1.349 . S
C818 H812 0.950 . S
C818 C819 1.327 . S
C819 H813 0.950 . S
C819 C818 1.327 . S
C819 C823 1.429 . S
C820 C803 1.574 1_554 S
C820 H814 0.949 . S
C820 C824 1.368 1_645 S
C821 C802 1.429 1_645 S
C821 C815 1.429 . S
C821 C822 1.523 . S
C822 C803 1.368 . S
C822 C816 1.368 1_645 S
C822 C821 1.523 . S
C823 C807 1.429 1_465 S
C823 C819 1.429 . S
C823 C824 1.523 . S
C824 C808 1.368 . S
C824 C820 1.368 1_465 S
C824 C823 1.523 . S
H825 C800 0.950 1_455 S
H826 C802 0.950 . S
H827 C803 0.949 . S
H828 C805 0.950 1_655 S
H829 C807 0.950 . S
C830 C831 1.349 . S
C830 C832 1.327 . S
C830 H855 0.950 . S
C831 C830 1.349 . S
C831 C847 1.349 . S
C832 C830 1.327 . S
C832 C851 1.429 . S
C832 H856 0.950 . S
C833 C850 1.574 . S
C833 C852 1.368 . S
C833 H857 0.949 . S
H834 C838 0.949 . S
C835 C836 1.349 . S
C835 C837 1.327 . S
C835 H858 0.950 . S
C836 C835 1.349 . S
C836 C848 1.349 . S
C837 C835 1.327 . S
C837 C853 1.429 . S
C837 H859 0.950 . S
C838 H834 0.949 . S
C838 C846 1.574 . S
C838 C854 1.368 . S
H839 C847 0.950 . S
H840 C845 0.950 . S
H841 C846 0.949 . S
H842 C848 0.950 . S
H843 C849 0.950 . S
H844 C850 0.949 . S
C845 H840 0.950 . S
C845 C847 1.327 . S
C845 C851 1.429 . S
C846 C838 1.574 . S
C846 H841 0.949 . S
C846 C852 1.368 . S
C847 C831 1.349 . S
C847 H839 0.950 . S
C847 C845 1.327 . S
C848 C836 1.349 . S
C848 H842 0.950 . S
C848 C849 1.327 . S
C849 H843 0.950 . S
C849 C848 1.327 . S
C849 C853 1.429 . S
C850 C833 1.574 . S
C850 H844 0.949 . S
C850 C854 1.368 . S
C851 C832 1.429 . S
C851 C845 1.429 . S
C851 C852 1.523 . S
C852 C833 1.368 . S
C852 C846 1.368 . S
C852 C851 1.523 . S
C853 C837 1.429 . S
C853 C849 1.429 . S
C853 C854 1.523 . S
C854 C838 1.368 . S
C854 C850 1.368 . S
C854 C853 1.523 . S
H855 C830 0.950 . S
H856 C832 0.950 . S
H857 C833 0.949 . S
H858 C835 0.950 . S
H859 C837 0.950 . S
C860 C861 1.349 . S
C860 C862 1.327 . S
C860 H885 0.950 . S
C861 C860 1.349 . S
C861 C877 1.349 . S
C862 C860 1.327 . S
C862 C881 1.429 . S
C862 H886 0.951 . S
C863 C880 1.574 . S
C863 C882 1.368 . S
C863 H887 0.949 . S
H864 C868 0.949 . S
C865 C866 1.349 . S
C865 C867 1.327 . S
C865 H888 0.950 . S
C866 C865 1.349 . S
C866 C878 1.349 . S
C867 C865 1.327 . S
C867 C883 1.429 . S
C867 H889 0.953 . S
C868 H864 0.949 . S
C868 C876 1.574 . S
C868 C884 1.368 . S
H869 C877 0.950 . S
H870 C875 0.950 . S
H871 C876 0.949 . S
H872 C878 0.950 . S
H873 C879 0.950 . S
H874 C880 0.949 . S
C875 H870 0.950 . S
C875 C877 1.327 . S
C875 C881 1.429 . S
C876 C868 1.574 . S
C876 H871 0.949 . S
C876 C882 1.368 1_545 S
C877 C861 1.349 . S
C877 H869 0.950 . S
C877 C875 1.327 . S
C878 C866 1.349 . S
C878 H872 0.950 . S
C878 C879 1.327 . S
C879 H873 0.950 . S
C879 C878 1.327 . S
C879 C883 1.429 . S
C880 C863 1.574 . S
C880 H874 0.949 . S
C880 C884 1.368 1_565 S
C881 C862 1.429 . S
C881 C875 1.429 . S
C881 C882 1.523 . S
C882 C863 1.368 . S
C882 C876 1.368 1_565 S
C882 C881 1.523 . S
C883 C867 1.429 . S
C883 C879 1.429 . S
C883 C884 1.523 . S
C884 C868 1.368 . S
C884 C880 1.368 1_545 S
C884 C883 1.523 . S
H885 C860 0.950 . S
H886 C862 0.951 . S
H887 C863 0.949 . S
H888 C865 0.950 . S
H889 C867 0.953 . S
C890 C891 1.349 . S
C890 C892 1.327 . S
C890 H915 0.950 . S
C891 C890 1.349 . S
C891 C907 1.349 . S
C892 C890 1.327 . S
C892 C911 1.429 . S
C892 H916 0.950 . S
C893 C910 1.574 . S
C893 C912 1.368 . S
C893 H917 0.949 . S
H894 C898 0.949 . S
C895 C896 1.349 . S
C895 C897 1.327 . S
C895 H918 0.950 . S
C896 C895 1.349 . S
C896 C908 1.349 . S
C897 C895 1.327 . S
C897 C913 1.429 . S
C897 H919 0.950 . S
C898 H894 0.949 . S
C898 C906 1.574 . S
C898 C914 1.368 . S
H899 C907 0.950 . S
H900 C905 0.950 . S
H901 C906 0.949 . S
H902 C908 0.950 . S
H903 C909 0.950 . S
H904 C910 0.949 . S
C905 H900 0.950 . S
C905 C907 1.327 . S
C905 C911 1.429 . S
C906 C898 1.574 . S
C906 H901 0.949 . S
C906 C912 1.368 . S
C907 C891 1.349 . S
C907 H899 0.950 . S
C907 C905 1.327 . S
C908 C896 1.349 . S
C908 H902 0.950 . S
C908 C909 1.327 . S
C909 H903 0.950 . S
C909 C908 1.327 . S
C909 C913 1.429 . S
C910 C893 1.574 . S
C910 H904 0.949 . S
C910 C914 1.368 . S
C911 C892 1.429 . S
C911 C905 1.429 . S
C911 C912 1.523 . S
C912 C893 1.368 . S
C912 C906 1.368 . S
C912 C911 1.523 . S
C913 C897 1.429 . S
C913 C909 1.429 . S
C913 C914 1.523 . S
C914 C898 1.368 . S
C914 C910 1.368 . S
C914 C913 1.523 . S
H915 C890 0.950 . S
H916 C892 0.950 . S
H917 C893 0.949 . S
H918 C895 0.950 . S
H919 C897 0.950 . S
C920 C921 1.349 . S
C920 C922 1.327 . S
C920 H945 0.950 . S
C921 C920 1.349 . S
C921 C937 1.349 . S
C922 C920 1.327 . S
C922 C941 1.429 . S
C922 H946 0.950 . S
C923 C940 1.574 . S
C923 C942 1.368 . S
C923 H947 0.949 . S
H924 C928 0.949 . S
C925 C926 1.349 . S
C925 C927 1.327 . S
C925 H948 0.950 . S
C926 C925 1.349 . S
C926 C938 1.349 . S
C927 C925 1.327 . S
C927 C943 1.429 . S
C927 H949 0.950 . S
C928 H924 0.949 . S
C928 C936 1.574 . S
C928 C944 1.368 . S
H929 C937 0.950 . S
H930 C935 0.950 . S
H931 C936 0.949 . S
H932 C938 0.950 . S
H933 C939 0.950 . S
H934 C940 0.949 . S
C935 H930 0.950 . S
C935 C937 1.327 . S
C935 C941 1.429 . S
C936 C928 1.574 . S
C936 H931 0.949 . S
C936 C942 1.368 . S
C937 C921 1.349 . S
C937 H929 0.950 . S
C937 C935 1.327 . S
C938 C926 1.349 . S
C938 H932 0.950 . S
C938 C939 1.327 . S
C939 H933 0.950 . S
C939 C938 1.327 . S
C939 C943 1.429 . S
C940 C923 1.574 . S
C940 H934 0.949 . S
C940 C944 1.368 . S
C941 C922 1.429 . S
C941 C935 1.429 . S
C941 C942 1.523 . S
C942 C923 1.368 . S
C942 C936 1.368 . S
C942 C941 1.523 . S
C943 C927 1.429 . S
C943 C939 1.429 . S
C943 C944 1.523 . S
C944 C928 1.368 . S
C944 C940 1.368 . S
C944 C943 1.523 . S
H945 C920 0.950 . S
H946 C922 0.950 . S
H947 C923 0.949 . S
H948 C925 0.950 . S
H949 C927 0.950 . S
C950 C951 1.349 . S
C950 C952 1.327 . S
C950 H975 0.950 . S
C951 C950 1.349 . S
C951 C967 1.349 . S
C952 C950 1.327 . S
C952 C971 1.429 . S
C952 H976 0.950 . S
C953 C970 1.574 . S
C953 C972 1.368 . S
C953 H977 0.949 . S
H954 C958 0.949 . S
C955 C956 1.349 . S
C955 C957 1.327 . S
C955 H978 0.950 . S
C956 C955 1.349 . S
C956 C968 1.349 . S
C957 C955 1.327 . S
C957 C973 1.429 . S
C957 H979 0.950 . S
C958 H954 0.949 . S
C958 C966 1.574 . S
C958 C974 1.368 . S
H959 C967 0.950 . S
H960 C965 0.950 . S
H961 C966 0.949 . S
H962 C968 0.950 . S
H963 C969 0.950 . S
H964 C970 0.949 . S
C965 H960 0.950 . S
C965 C967 1.327 . S
C965 C971 1.429 . S
C966 C958 1.574 . S
C966 H961 0.949 . S
C966 C972 1.368 . S
C967 C951 1.349 . S
C967 H959 0.950 . S
C967 C965 1.327 . S
C968 C956 1.349 . S
C968 H962 0.950 . S
C968 C969 1.327 . S
C969 H963 0.950 . S
C969 C968 1.327 . S
C969 C973 1.429 . S
C970 C953 1.574 . S
C970 H964 0.949 . S
C970 C974 1.368 . S
C971 C952 1.429 . S
C971 C965 1.429 . S
C971 C972 1.523 . S
C972 C953 1.368 . S
C972 C966 1.368 . S
C972 C971 1.523 . S
C973 C957 1.429 . S
C973 C969 1.429 . S
C973 C974 1.523 . S
C974 C958 1.368 . S
C974 C970 1.368 . S
C974 C973 1.523 . S
H975 C950 0.950 . S
H976 C952 0.950 . S
H977 C953 0.949 . S
H978 C955 0.950 . S
H979 C957 0.950 . S
C980 C981 1.349 . S
C980 C982 1.327 . S
C980 H1005 0.950 . S
C981 C980 1.349 . S
C981 C997 1.349 . S
C982 C980 1.327 . S
C982 C1001 1.429 . S
C982 H1006 0.950 . S
C983 C1000 1.574 . S
C983 C1002 1.368 . S
C983 H1007 0.949 . S
H984 C988 0.949 . S
C985 C986 1.349 . S
C985 C987 1.327 . S
C985 H1008 0.950 . S
C986 C985 1.349 . S
C986 C998 1.349 . S
C987 C985 1.327 . S
C987 C1003 1.429 . S
C987 H1009 0.950 . S
C988 H984 0.949 . S
C988 C996 1.574 . S
C988 C1004 1.368 . S
H989 C997 0.950 . S
H990 C995 0.950 . S
H991 C996 0.949 . S
H992 C998 0.950 . S
H993 C999 0.950 . S
H994 C1000 0.949 . S
C995 H990 0.950 . S
C995 C997 1.327 . S
C995 C1001 1.429 . S
C996 C988 1.574 . S
C996 H991 0.949 . S
C996 C1002 1.368 . S
C997 C981 1.349 . S
C997 H989 0.950 . S
C997 C995 1.327 . S
C998 C986 1.349 . S
C998 H992 0.950 . S
C998 C999 1.327 . S
C999 H993 0.950 . S
C999 C998 1.327 . S
C999 C1003 1.429 . S
C1000 C983 1.574 . S
C1000 H994 0.949 . S
C1000 C1004 1.368 . S
C1001 C982 1.429 . S
C1001 C995 1.429 . S
C1001 C1002 1.523 . S
C1002 C983 1.368 . S
C1002 C996 1.368 . S
C1002 C1001 1.523 . S
C1003 C987 1.429 . S
C1003 C999 1.429 . S
C1003 C1004 1.523 . S
C1004 C988 1.368 . S
C1004 C1000 1.368 . S
C1004 C1003 1.523 . S
H1005 C980 0.950 . S
H1006 C982 0.950 . S
H1007 C983 0.949 . S
H1008 C985 0.950 . S
H1009 C987 0.950 . S
C1010 C1011 1.349 . S
C1010 C1012 1.327 . S
C1010 H1035 0.950 . S
C1011 C1010 1.349 . S
C1011 C1027 1.349 . S
C1012 C1010 1.327 . S
C1012 C1031 1.429 . S
C1012 H1036 0.950 . S
C1013 C1030 1.574 1_556 S
C1013 C1032 1.368 1_455 S
C1013 H1037 0.949 . S
H1014 C1018 0.949 . S
C1015 C1016 1.349 . S
C1015 C1017 1.327 . S
C1015 H1038 0.950 . S
C1016 C1015 1.349 . S
C1016 C1028 1.349 . S
C1017 C1015 1.327 . S
C1017 C1033 1.429 . S
C1017 H1039 0.950 . S
C1018 H1014 0.949 . S
C1018 C1026 1.574 1_554 S
C1018 C1034 1.368 1_655 S
H1019 C1027 0.950 1_455 S
H1020 C1025 0.950 . S
H1021 C1026 0.949 . S
H1022 C1028 0.950 1_655 S
H1023 C1029 0.971 . S
H1024 C1030 0.949 . S
C1025 H1020 0.950 . S
C1025 C1027 1.327 1_455 S
C1025 C1031 1.429 1_455 S
C1026 C1018 1.574 1_556 S
C1026 H1021 0.949 . S
C1026 C1032 1.368 . S
C1027 C1011 1.349 . S
C1027 H1019 0.950 1_655 S
C1027 C1025 1.327 1_655 S
C1028 C1016 1.349 . S
C1028 H1022 0.950 1_455 S
C1028 C1029 1.327 1_455 S
C1029 H1023 0.971 . S
C1029 C1028 1.327 1_655 S
C1029 C1033 1.410 1_655 S
C1030 C1013 1.574 1_554 S
C1030 H1024 0.949 . S
C1030 C1034 1.368 . S
C1031 C1012 1.429 . S
C1031 C1025 1.429 1_655 S
C1031 C1032 1.523 . S
C1032 C1013 1.368 1_655 S
C1032 C1026 1.368 . S
C1032 C1031 1.523 . S
C1033 C1017 1.429 . S
C1033 C1029 1.410 1_455 S
C1033 C1034 1.523 . S
C1034 C1018 1.368 1_455 S
C1034 C1030 1.368 . S
C1034 C1033 1.523 . S
H1035 C1010 0.950 . S
H1036 C1012 0.950 . S
H1037 C1013 0.949 . S
H1038 C1015 0.950 . S
H1039 C1017 0.950 . S
C321 C31 2.088 . S
C326 C151 2.082 . S
C351 C17 1.514 . S
C356 C71 1.535 . S
C381 C57 0.877 . S
C386 C97 0.880 . S
C411 C111 1.534 . S
C416 C137 1.509 . S
C441 C12 2.089 . S
C446 C212 2.095 . S
C471 C2 1.513 . S
C476 C172 1.533 . S
C501 C162 0.877 . S
C506 C82 0.873 . S
C531 C202 1.514 . S
C536 C92 1.538 . S
C561 C271 2.088 . S
C566 C231 2.090 . S
C591 C191 1.534 . S
C596 C257 1.512 . S
C621 C297 0.877 . S
C626 C177 0.878 . S
C651 C217 1.514 . S
C656 C311 1.537 . S
C681 C132 2.089 . S
C686 C252 2.087 . S
C711 C242 1.513 . S
C716 C52 1.535 . S
C741 C42 0.877 . S
C746 C282 0.873 . S
C771 C122 1.514 . S
C776 C292 1.531 . S
C801 C29 1.462 . S
C806 C8 1.462 . S
C831 C48 1.437 . S
C836 C69 1.437 . S
C861 C109 1.437 . S
C866 C88 1.437 . S
C891 C149 1.462 . S
C896 C128 1.462 . S
C921 C168 1.437 . S
C926 C189 1.437 . S
C951 C229 1.462 . S
C956 C208 1.462 . S
C981 C248 1.462 . S
C986 C269 1.462 . S
C1011 C288 1.437 . S
C1016 C309 1.437 . S
