# Generated by pormake.
# Topology ukt, (4)-cn, num edge types: 1
# Building blocks:
#     Node 0, Type 0, BuildingBlock: QUQFOY_clean_sbu_1, # of connection points: 4
#     Node 1, Type 0, BuildingBlock: QUQFOY_clean_sbu_1, # of connection points: 4
#     Node 2, Type 0, BuildingBlock: QUQFOY_clean_sbu_1, # of connection points: 4
#     Node 3, Type 0, BuildingBlock: QUQFOY_clean_sbu_1, # of connection points: 4
#     Node 4, Type 0, BuildingBlock: QUQFOY_clean_sbu_1, # of connection points: 4
#     Node 5, Type 0, BuildingBlock: QUQFOY_clean_sbu_1, # of connection points: 4
#     Node 6, Type 0, BuildingBlock: QUQFOY_clean_sbu_1, # of connection points: 4
#     Node 7, Type 0, BuildingBlock: QUQFOY_clean_sbu_1, # of connection points: 4
#     Node 8, Type 0, BuildingBlock: QUQFOY_clean_sbu_1, # of connection points: 4
#     Node 9, Type 0, BuildingBlock: QUQFOY_clean_sbu_1, # of connection points: 4
#     Node 10, Type 0, BuildingBlock: QUQFOY_clean_sbu_1, # of connection points: 4
#     Node 11, Type 0, BuildingBlock: QUQFOY_clean_sbu_1, # of connection points: 4
#     Node 12, Type 0, BuildingBlock: QUQFOY_clean_sbu_1, # of connection points: 4
#     Node 13, Type 0, BuildingBlock: QUQFOY_clean_sbu_1, # of connection points: 4
#     Node 14, Type 0, BuildingBlock: QUQFOY_clean_sbu_1, # of connection points: 4
#     Node 15, Type 0, BuildingBlock: QUQFOY_clean_sbu_1, # of connection points: 4
#     Edge 16, Type (0, 0), BuildingBlock: XUDNAN_clean_linker_2, # of connection points: 2
#     Edge 17, Type (0, 0), BuildingBlock: XUDNAN_clean_linker_2, # of connection points: 2
#     Edge 18, Type (0, 0), BuildingBlock: XUDNAN_clean_linker_2, # of connection points: 2
#     Edge 19, Type (0, 0), BuildingBlock: XUDNAN_clean_linker_2, # of connection points: 2
#     Edge 20, Type (0, 0), BuildingBlock: XUDNAN_clean_linker_2, # of connection points: 2
#     Edge 21, Type (0, 0), BuildingBlock: XUDNAN_clean_linker_2, # of connection points: 2
#     Edge 22, Type (0, 0), BuildingBlock: XUDNAN_clean_linker_2, # of connection points: 2
#     Edge 23, Type (0, 0), BuildingBlock: XUDNAN_clean_linker_2, # of connection points: 2
#     Edge 24, Type (0, 0), BuildingBlock: XUDNAN_clean_linker_2, # of connection points: 2
#     Edge 25, Type (0, 0), BuildingBlock: XUDNAN_clean_linker_2, # of connection points: 2
#     Edge 26, Type (0, 0), BuildingBlock: XUDNAN_clean_linker_2, # of connection points: 2
#     Edge 27, Type (0, 0), BuildingBlock: XUDNAN_clean_linker_2, # of connection points: 2
#     Edge 28, Type (0, 0), BuildingBlock: XUDNAN_clean_linker_2, # of connection points: 2
#     Edge 29, Type (0, 0), BuildingBlock: XUDNAN_clean_linker_2, # of connection points: 2
#     Edge 30, Type (0, 0), BuildingBlock: XUDNAN_clean_linker_2, # of connection points: 2
#     Edge 31, Type (0, 0), BuildingBlock: XUDNAN_clean_linker_2, # of connection points: 2
#     Edge 32, Type (0, 0), BuildingBlock: XUDNAN_clean_linker_2, # of connection points: 2
#     Edge 33, Type (0, 0), BuildingBlock: XUDNAN_clean_linker_2, # of connection points: 2
#     Edge 34, Type (0, 0), BuildingBlock: XUDNAN_clean_linker_2, # of connection points: 2
#     Edge 35, Type (0, 0), BuildingBlock: XUDNAN_clean_linker_2, # of connection points: 2
#     Edge 36, Type (0, 0), BuildingBlock: XUDNAN_clean_linker_2, # of connection points: 2
#     Edge 37, Type (0, 0), BuildingBlock: XUDNAN_clean_linker_2, # of connection points: 2
#     Edge 38, Type (0, 0), BuildingBlock: XUDNAN_clean_linker_2, # of connection points: 2
#     Edge 39, Type (0, 0), BuildingBlock: XUDNAN_clean_linker_2, # of connection points: 2
#     Edge 40, Type (0, 0), BuildingBlock: XUDNAN_clean_linker_2, # of connection points: 2
#     Edge 41, Type (0, 0), BuildingBlock: XUDNAN_clean_linker_2, # of connection points: 2
#     Edge 42, Type (0, 0), BuildingBlock: XUDNAN_clean_linker_2, # of connection points: 2
#     Edge 43, Type (0, 0), BuildingBlock: XUDNAN_clean_linker_2, # of connection points: 2
#     Edge 44, Type (0, 0), BuildingBlock: XUDNAN_clean_linker_2, # of connection points: 2
#     Edge 45, Type (0, 0), BuildingBlock: XUDNAN_clean_linker_2, # of connection points: 2
#     Edge 46, Type (0, 0), BuildingBlock: XUDNAN_clean_linker_2, # of connection points: 2
#     Edge 47, Type (0, 0), BuildingBlock: XUDNAN_clean_linker_2, # of connection points: 2
# Relax obj value: 0.122
# Max RMSD: 0.085
# Mean RMSD: 0.085
data_MOF--net-ukt--node1-QUQFOY_clean_sbu_1--edge1-XUDNAN_clean_linker_2
_symmetry_space_group_name_H-M    P1
_symmetry_Int_Tables_number       1
_symmetry_cell_setting            triclinic
loop_
_symmetry_equiv_pos_as_xyz
'x, y, z'
_cell_length_a     44.608657
_cell_length_b     44.611395
_cell_length_c     40.634114
_cell_angle_alpha  90.021492
_cell_angle_beta   90.000134
_cell_angle_gamma 90.086741
loop_
_atom_site_label
_atom_site_type_symbol
_atom_site_fract_x
_atom_site_fract_y
_atom_site_fract_z
_atom_type_partial_charge
O0 O 0.59105 0.11106 0.03941 0.0
Cd1 Cd 0.55154 0.13354 0.04678 0.0
Cd2 Cd 0.58772 0.16014 0.08922 0.0
O3 O 0.61374 0.12211 0.08589 0.0
O4 O 0.52547 0.10818 0.01892 0.0
O5 O 0.52146 0.10994 0.07308 0.0
C6 C 0.51434 0.09726 0.04557 0.0
C7 C 0.57381 0.1816 0.13914 0.0
C8 C 0.61206 0.1065 0.05983 0.0
C9 C 0.5698 0.19366 0.02862 0.0
O10 O 0.59011 0.1894 0.05005 0.0
O11 O 0.54781 0.17565 0.02644 0.0
O12 O 0.601 0.18322 0.12847 0.0
O13 O 0.55458 0.1665 0.12201 0.0
O14 O 0.36628 0.57894 0.02199 0.0
Cd15 Cd 0.34599 0.54132 0.03977 0.0
Cd16 Cd 0.32834 0.57986 0.08644 0.0
O17 O 0.36513 0.60351 0.06881 0.0
O18 O 0.36876 0.51025 0.01621 0.0
O19 O 0.37153 0.51697 0.07019 0.0
C20 C 0.38187 0.50452 0.04378 0.0
C21 C 0.31738 0.58348 0.14255 0.0
C22 C 0.37507 0.60061 0.03969 0.0
C23 C 0.28328 0.55613 0.03618 0.0
O24 O 0.29063 0.57622 0.05694 0.0
O25 O 0.30186 0.53602 0.02783 0.0
O26 O 0.31457 0.60601 0.12306 0.0
O27 O 0.32714 0.55857 0.13045 0.0
O28 O 0.89903 0.37643 0.05316 0.0
Cd29 Cd 0.939 0.35538 0.06256 0.0
Cd30 Cd 0.90165 0.3282 0.10331 0.0
O31 O 0.87491 0.36557 0.0988 0.0
O32 O 0.96471 0.38079 0.03433 0.0
O33 O 0.96779 0.38083 0.08859 0.0
C34 C 0.97499 0.39289 0.06078 0.0
C35 C 0.91552 0.30762 0.15362 0.0
C36 C 0.87719 0.38081 0.07256 0.0
C37 C 0.92302 0.29463 0.04446 0.0
O38 O 0.90128 0.29887 0.06412 0.0
O39 O 0.94489 0.31287 0.04379 0.0
O40 O 0.88853 0.30499 0.1425 0.0
O41 O 0.93448 0.32325 0.13669 0.0
O42 O 0.13489 0.90429 0.03608 0.0
Cd43 Cd 0.1491 0.94747 0.04156 0.0
Cd44 Cd 0.17342 0.92381 0.09507 0.0
O45 O 0.13834 0.89362 0.08866 0.0
O46 O 0.12069 0.96889 0.01286 0.0
O47 O 0.12158 0.97408 0.06713 0.0
C48 C 0.10845 0.97915 0.0393 0.0
C49 C 0.18886 0.93582 0.14851 0.0
C50 C 0.12841 0.88745 0.06015 0.0
C51 C 0.21237 0.94026 0.03591 0.0
O52 O 0.20836 0.92402 0.0613 0.0
O53 O 0.19127 0.95651 0.0251 0.0
O54 O 0.19334 0.90968 0.13604 0.0
O55 O 0.1745 0.95521 0.13097 0.0
O56 O 0.58615 0.36797 0.44855 0.0
Cd57 Cd 0.54211 0.35594 0.45124 0.0
Cd58 Cd 0.5672 0.32442 0.39189 0.0
O59 O 0.60058 0.35629 0.39827 0.0
O60 O 0.53343 0.37727 0.49314 0.0
O61 O 0.51295 0.39034 0.44597 0.0
C62 C 0.51744 0.39592 0.47674 0.0
C63 C 0.56036 0.30437 0.33897 0.0
C64 C 0.60537 0.36921 0.42563 0.0
C65 C 0.54649 0.29017 0.454 0.0
O66 O 0.56192 0.29195 0.42774 0.0
O67 O 0.53307 0.31292 0.46555 0.0
O68 O 0.58441 0.29975 0.35562 0.0
O69 O 0.54024 0.32156 0.35178 0.0
O70 O 0.12262 0.59005 0.44474 0.0
Cd71 Cd 0.14089 0.55132 0.46247 0.0
Cd72 Cd 0.18602 0.57875 0.40419 0.0
O73 O 0.15231 0.61035 0.40706 0.0
O74 O 0.11605 0.54897 0.50306 0.0
O75 O 0.11229 0.51603 0.46285 0.0
C76 C 0.10265 0.52616 0.49065 0.0
C77 C 0.21551 0.58293 0.35623 0.0
C78 C 0.12852 0.61056 0.42419 0.0
C79 C 0.2078 0.56024 0.47441 0.0
O80 O 0.21148 0.57004 0.44531 0.0
O81 O 0.1823 0.55191 0.48489 0.0
O82 O 0.21589 0.60282 0.37906 0.0
O83 O 0.19804 0.56015 0.36024 0.0
O84 O 0.90461 0.11911 0.46095 0.0
Cd85 Cd 0.94831 0.13202 0.45854 0.0
Cd86 Cd 0.92373 0.16336 0.40538 0.0
O87 O 0.89188 0.12952 0.40994 0.0
O88 O 0.96622 0.1022 0.48873 0.0
O89 O 0.97564 0.10325 0.43529 0.0
C90 C 0.97793 0.08965 0.46326 0.0
C91 C 0.93063 0.18484 0.35322 0.0
C92 C 0.88645 0.11658 0.43714 0.0
C93 C 0.94357 0.19578 0.46886 0.0
O94 O 0.92797 0.19487 0.44265 0.0
O95 O 0.95775 0.17284 0.47869 0.0
O96 O 0.90621 0.18835 0.36959 0.0
O97 O 0.95114 0.16804 0.36591 0.0
O98 O 0.36144 0.90985 0.46535 0.0
Cd99 Cd 0.34343 0.95117 0.47373 0.0
Cd100 Cd 0.31162 0.92842 0.41389 0.0
O101 O 0.34628 0.89757 0.41549 0.0
O102 O 0.36616 0.96067 0.5145 0.0
O103 O 0.37269 0.9853 0.46797 0.0
C104 C 0.38102 0.98013 0.49786 0.0
C105 C 0.29169 0.93952 0.36186 0.0
C106 C 0.36255 0.89265 0.44055 0.0
C107 C 0.27812 0.93986 0.47912 0.0
O108 O 0.27956 0.92783 0.45075 0.0
O109 O 0.30058 0.95324 0.49145 0.0
O110 O 0.28809 0.91373 0.37544 0.0
O111 O 0.30733 0.95927 0.37754 0.0
O112 O 0.41227 0.85128 0.96827 0.0
Cd113 Cd 0.45739 0.84545 0.96917 0.0
Cd114 Cd 0.44138 0.82744 0.90347 0.0
O115 O 0.40788 0.85827 0.91494 0.0
O116 O 0.46727 0.86659 0.01083 0.0
O117 O 0.48156 0.8828 0.96182 0.0
C118 C 0.47918 0.88737 0.99313 0.0
C119 C 0.45025 0.81689 0.84779 0.0
C120 C 0.39759 0.86117 0.94393 0.0
C121 C 0.46096 0.78207 0.95699 0.0
O122 O 0.44678 0.78852 0.93077 0.0
O123 O 0.47148 0.80246 0.97544 0.0
O124 O 0.42537 0.81003 0.86188 0.0
O125 O 0.46989 0.83145 0.86483 0.0
O126 O 0.62073 0.3955 0.95202 0.0
Cd127 Cd 0.63122 0.43796 0.96656 0.0
Cd128 Cd 0.67157 0.42598 0.90304 0.0
O129 O 0.64702 0.38661 0.90673 0.0
O130 O 0.60716 0.43992 0.00777 0.0
O131 O 0.59729 0.46755 0.964 0.0
C132 C 0.58997 0.45881 0.99321 0.0
C133 C 0.69109 0.43607 0.85052 0.0
C134 C 0.62789 0.3787 0.92817 0.0
C135 C 0.6985 0.44569 0.97008 0.0
O136 O 0.70086 0.43811 0.94003 0.0
O137 O 0.6733 0.44699 0.98449 0.0
O138 O 0.70027 0.41385 0.86791 0.0
O139 O 0.6702 0.45274 0.86261 0.0
O140 O 0.07696 0.63648 0.97708 0.0
Cd141 Cd 0.03188 0.64363 0.97846 0.0
Cd142 Cd 0.0507 0.66835 0.91647 0.0
O143 O 0.08327 0.63568 0.92341 0.0
O144 O 0.02319 0.62247 0.0205 0.0
O145 O 0.00635 0.60668 0.97246 0.0
C146 C 0.00981 0.6021 0.0036 0.0
C147 C 0.04096 0.68382 0.8622 0.0
C148 C 0.09257 0.6296 0.95218 0.0
C149 C 0.03345 0.70802 0.97561 0.0
O150 O 0.04875 0.7038 0.94956 0.0
O151 O 0.01929 0.6865 0.98887 0.0
O152 O 0.06614 0.68918 0.87643 0.0
O153 O 0.02121 0.66863 0.87839 0.0
O154 O 0.87461 0.09149 0.95212 0.0
Cd155 Cd 0.86065 0.04865 0.96078 0.0
Cd156 Cd 0.81877 0.07411 0.90068 0.0
O157 O 0.84591 0.11018 0.91265 0.0
O158 O 0.88299 0.04219 0.00246 0.0
O159 O 0.89322 0.01754 0.95675 0.0
C160 C 0.89991 0.02374 0.98691 0.0
C161 C 0.79657 0.07908 0.84859 0.0
C162 C 0.86719 0.11274 0.93319 0.0
C163 C 0.79255 0.04402 0.96332 0.0
O164 O 0.7901 0.05592 0.93504 0.0
O165 O 0.8178 0.04011 0.97707 0.0
O166 O 0.7897 0.09631 0.87273 0.0
O167 O 0.8162 0.0584 0.85369 0.0
O168 O 0.4106 0.63665 0.53852 0.0
Cd169 Cd 0.45436 0.64938 0.5362 0.0
Cd170 Cd 0.43286 0.68512 0.58874 0.0
O171 O 0.39794 0.65422 0.5872 0.0
O172 O 0.46942 0.61822 0.50568 0.0
O173 O 0.48352 0.6212 0.55773 0.0
C174 C 0.48342 0.60662 0.53025 0.0
C175 C 0.44491 0.70692 0.63956 0.0
C176 C 0.39212 0.63819 0.56213 0.0
C177 C 0.45118 0.71336 0.5224 0.0
O178 O 0.43775 0.71484 0.54998 0.0
O179 O 0.46271 0.68897 0.51255 0.0
O180 O 0.41997 0.71242 0.62489 0.0
O181 O 0.46298 0.68805 0.62592 0.0
O182 O 0.86574 0.39953 0.53673 0.0
Cd183 Cd 0.85265 0.44314 0.53952 0.0
Cd184 Cd 0.82003 0.41914 0.58985 0.0
O185 O 0.85187 0.38529 0.58622 0.0
O186 O 0.88355 0.46168 0.51122 0.0
O187 O 0.87989 0.47088 0.56458 0.0
C188 C 0.89459 0.47373 0.53735 0.0
C189 C 0.80098 0.43133 0.64179 0.0
C190 C 0.86611 0.38036 0.5597 0.0
C191 C 0.78909 0.4391 0.52622 0.0
O192 O 0.78869 0.42349 0.55245 0.0
O193 O 0.81272 0.45275 0.51744 0.0
O194 O 0.7952 0.40602 0.62796 0.0
O195 O 0.81854 0.44973 0.62658 0.0
O196 O 0.07741 0.85112 0.54523 0.0
Cd197 Cd 0.03297 0.8392 0.54453 0.0
Cd198 Cd 0.05862 0.81043 0.59934 0.0
O199 O 0.08765 0.84646 0.59785 0.0
O200 O 0.02301 0.85989 0.50262 0.0
O201 O 0.00449 0.87405 0.55041 0.0
C202 C 0.00798 0.87908 0.51937 0.0
C203 C 0.04588 0.78902 0.65014 0.0
C204 C 0.09425 0.85669 0.56963 0.0
C205 C 0.04328 0.77655 0.53728 0.0
O206 O 0.06197 0.78056 0.5605 0.0
O207 O 0.02315 0.79587 0.53155 0.0
O208 O 0.07245 0.78669 0.63803 0.0
O209 O 0.02637 0.80428 0.6337 0.0
O210 O 0.62867 0.08748 0.5232 0.0
Cd211 Cd 0.63775 0.04362 0.53235 0.0
Cd212 Cd 0.66879 0.07044 0.58465 0.0
O213 O 0.63452 0.1008 0.57483 0.0
O214 O 0.60552 0.02355 0.50739 0.0
O215 O 0.6086 0.02257 0.56185 0.0
C216 C 0.59356 0.0169 0.53535 0.0
C217 C 0.69076 0.07698 0.63668 0.0
C218 C 0.62431 0.10607 0.54624 0.0
C219 C 0.70133 0.04184 0.52472 0.0
O220 O 0.70061 0.0597 0.54916 0.0
O221 O 0.67775 0.02862 0.51506 0.0
O222 O 0.69347 0.09654 0.61369 0.0
O223 O 0.67519 0.05324 0.63051 0.0
H224 H 0.62131 0.22208 0.01127 0.0
H225 H 0.52542 0.22191 0.99353 0.0
H226 H 0.53124 0.26586 0.95679 0.0
H227 H 0.63091 0.29828 0.01688 0.0
H228 H 0.66677 0.29921 0.99644 0.0
H229 H 0.65506 0.26591 0.01769 0.0
H230 H 0.6627 0.23504 0.96422 0.0
H231 H 0.67415 0.26848 0.94269 0.0
H232 H 0.64363 0.2461 0.92706 0.0
H233 H 0.54671 0.31424 0.92988 0.0
H234 H 0.57063 0.36241 0.91455 0.0
H235 H 0.65667 0.32847 0.94623 0.0
C236 C 0.60155 0.23105 0.99934 0.0
C237 C 0.57289 0.21882 0.00534 0.0
C238 C 0.54759 0.23101 0.98917 0.0
C239 C 0.55072 0.25583 0.96818 0.0
C240 C 0.57936 0.26758 0.96308 0.0
C241 C 0.60436 0.25533 0.97795 0.0
C242 C 0.63236 0.27317 0.9704 0.0
C243 C 0.64711 0.28484 0.00224 0.0
C244 C 0.65452 0.25458 0.94986 0.0
C245 C 0.61906 0.29834 0.95031 0.0
C246 C 0.58849 0.29459 0.94599 0.0
C247 C 0.57074 0.31694 0.93204 0.0
C248 C 0.58445 0.34411 0.92327 0.0
C249 C 0.61553 0.34835 0.92811 0.0
C250 C 0.63313 0.32497 0.94087 0.0
H251 H 0.12401 0.62822 0.00912 0.0
H252 H 0.12647 0.59689 0.90804 0.0
H253 H 0.17402 0.57005 0.91987 0.0
H254 H 0.20139 0.64273 0.01646 0.0
H255 H 0.20312 0.63134 0.05897 0.0
H256 H 0.16879 0.64609 0.04243 0.0
H257 H 0.14076 0.59801 0.06107 0.0
H258 H 0.17514 0.58293 0.07734 0.0
H259 H 0.15391 0.56188 0.04747 0.0
H260 H 0.22188 0.54705 0.94371 0.0
H261 H 0.26807 0.53517 0.97491 0.0
H262 H 0.23318 0.58352 0.05921 0.0
C263 C 0.13434 0.61556 0.98941 0.0
C264 C 0.12149 0.61441 0.95771 0.0
C265 C 0.13603 0.59803 0.93251 0.0
C266 C 0.16284 0.58258 0.93909 0.0
C267 C 0.17469 0.58396 0.97087 0.0
C268 C 0.16096 0.60037 0.99544 0.0
C269 C 0.17878 0.60004 0.027 0.0
C270 C 0.18861 0.63193 0.03676 0.0
C271 C 0.16109 0.5848 0.05486 0.0
C272 C 0.20508 0.58119 0.01638 0.0
C273 C 0.2022 0.57162 0.98415 0.0
C274 C 0.22428 0.55437 0.96897 0.0
C275 C 0.25032 0.54759 0.98692 0.0
C276 C 0.2541 0.55848 0.01942 0.0
C277 C 0.23087 0.57489 0.03441 0.0
H278 H 0.84036 0.16571 0.94629 0.0
H279 H 0.92706 0.12358 0.93473 0.0
H280 H 0.95191 0.16963 0.95507 0.0
H281 H 0.86402 0.24589 0.93032 0.0
H282 H 0.83962 0.25939 0.96241 0.0
H283 H 0.82944 0.22651 0.93911 0.0
H284 H 0.82414 0.19656 0.99344 0.0
H285 H 0.83475 0.22905 0.01685 0.0
H286 H 0.85551 0.19466 0.02136 0.0
H287 H 0.9667 0.21762 0.98315 0.0
H288 H 0.96995 0.26224 0.01941 0.0
H289 H 0.8731 0.27015 0.01743 0.0
C290 C 0.86462 0.16687 0.94657 0.0
C291 C 0.882 0.14174 0.93809 0.0
C292 C 0.91359 0.14309 0.94044 0.0
C293 C 0.92783 0.1691 0.95193 0.0
C294 C 0.91002 0.19325 0.96141 0.0
C295 C 0.87907 0.19234 0.95888 0.0
C296 C 0.86481 0.21906 0.97555 0.0
C297 C 0.84851 0.23889 0.95034 0.0
C298 C 0.84357 0.20923 0.00345 0.0
C299 C 0.89242 0.23451 0.9889 0.0
C300 C 0.91836 0.21984 0.97971 0.0
C301 C 0.94656 0.22949 0.99021 0.0
C302 C 0.94821 0.25471 0.01082 0.0
C303 C 0.92176 0.26929 0.02132 0.0
C304 C 0.89365 0.2592 0.00991 0.0
H305 H 0.37027 0.86783 0.00314 0.0
H306 H 0.36086 0.89085 0.89984 0.0
H307 H 0.31415 0.91859 0.91289 0.0
H308 H 0.29428 0.85421 0.01881 0.0
H309 H 0.29547 0.86941 0.0599 0.0
H310 H 0.32867 0.85338 0.04209 0.0
H311 H 0.35738 0.90306 0.05288 0.0
H312 H 0.32409 0.91937 0.07043 0.0
H313 H 0.34281 0.93771 0.03665 0.0
H314 H 0.2672 0.94231 0.93802 0.0
H315 H 0.22287 0.95587 0.97148 0.0
H316 H 0.26485 0.91647 0.05749 0.0
C317 C 0.35861 0.87878 0.98311 0.0
C318 C 0.36924 0.8772 0.95044 0.0
C319 C 0.35307 0.89174 0.92506 0.0
C320 C 0.32668 0.90769 0.93229 0.0
C321 C 0.31701 0.90889 0.96496 0.0
C322 C 0.33253 0.89464 0.98984 0.0
C323 C 0.31703 0.89775 0.02266 0.0
C324 C 0.30834 0.86686 0.03666 0.0
C325 C 0.33649 0.91554 0.04709 0.0
C326 C 0.28983 0.91543 0.0124 0.0
C327 C 0.2903 0.92212 0.97917 0.0
C328 C 0.26675 0.93736 0.96408 0.0
C329 C 0.24174 0.94509 0.98331 0.0
C330 C 0.24047 0.93719 0.01707 0.0
C331 C 0.2652 0.92287 0.03178 0.0
H332 H 0.56145 0.23458 0.43183 0.0
H333 H 0.53599 0.28313 0.52002 0.0
H334 H 0.54884 0.2389 0.55375 0.0
H335 H 0.53615 0.15858 0.46081 0.0
H336 H 0.56735 0.14074 0.44059 0.0
H337 H 0.55121 0.17429 0.42341 0.0
H338 H 0.6036 0.19949 0.42422 0.0
H339 H 0.6198 0.16636 0.44192 0.0
H340 H 0.62394 0.20193 0.46249 0.0
H341 H 0.57288 0.19272 0.57818 0.0
H342 H 0.60103 0.14631 0.59072 0.0
H343 H 0.60919 0.12826 0.48613 0.0
C344 C 0.55768 0.2356 0.45814 0.0
C345 C 0.54774 0.26221 0.47333 0.0
C346 C 0.54331 0.26281 0.50785 0.0
C347 C 0.55065 0.23784 0.52722 0.0
C348 C 0.56178 0.21238 0.51156 0.0
C349 C 0.56461 0.21088 0.4777 0.0
C350 C 0.57912 0.18191 0.46696 0.0
C351 C 0.55714 0.16275 0.44675 0.0
C352 C 0.60834 0.1878 0.44779 0.0
C353 C 0.58531 0.16794 0.50009 0.0
C354 C 0.575 0.18565 0.52558 0.0
C355 C 0.58044 0.17833 0.55842 0.0
C356 C 0.59663 0.15209 0.5653 0.0
C357 C 0.60712 0.13361 0.53941 0.0
C358 C 0.60111 0.14167 0.5065 0.0
H359 H 0.37395 0.60454 0.51017 0.0
H360 H 0.34535 0.63472 0.60675 0.0
H361 H 0.29639 0.60945 0.5983 0.0
H362 H 0.30835 0.61977 0.47069 0.0
H363 H 0.31008 0.58821 0.44303 0.0
H364 H 0.34404 0.60385 0.45942 0.0
H365 H 0.3589 0.55168 0.48236 0.0
H366 H 0.32476 0.53586 0.4661 0.0
H367 H 0.33345 0.53196 0.50921 0.0
H368 H 0.24864 0.58553 0.57611 0.0
H369 H 0.20605 0.5699 0.541 0.0
H370 H 0.26688 0.55737 0.45898 0.0
C371 C 0.35774 0.60541 0.52999 0.0
C372 C 0.36354 0.62154 0.5592 0.0
C373 C 0.34143 0.62238 0.5842 0.0
C374 C 0.31366 0.60793 0.57968 0.0
C375 C 0.30857 0.59266 0.55018 0.0
C376 C 0.33012 0.59141 0.5258 0.0
C377 C 0.31835 0.57687 0.49481 0.0
C378 C 0.32031 0.59847 0.46528 0.0
C379 C 0.33485 0.54733 0.48772 0.0
C380 C 0.28631 0.5712 0.50492 0.0
C381 C 0.28116 0.57966 0.5372 0.0
C382 C 0.25256 0.57842 0.55102 0.0
C383 C 0.22853 0.56939 0.53095 0.0
C384 C 0.23331 0.5624 0.49735 0.0
C385 C 0.26268 0.56238 0.48466 0.0
H386 H 0.88781 0.35963 0.50168 0.0
H387 H 0.88135 0.33703 0.60532 0.0
H388 H 0.90807 0.28931 0.59437 0.0
H389 H 0.87107 0.28897 0.47232 0.0
H390 H 0.89579 0.29122 0.43732 0.0
H391 H 0.88023 0.32486 0.45454 0.0
H392 H 0.93381 0.34647 0.46218 0.0
H393 H 0.94958 0.31267 0.44516 0.0
H394 H 0.96117 0.32548 0.48527 0.0
H395 H 0.93255 0.24243 0.57065 0.0
H396 H 0.94676 0.19897 0.5361 0.0
H397 H 0.93468 0.25292 0.44841 0.0
C398 C 0.89244 0.34499 0.52232 0.0
C399 C 0.88273 0.35214 0.55442 0.0
C400 C 0.8887 0.332 0.58053 0.0
C401 C 0.90405 0.305 0.57456 0.0
C402 C 0.91316 0.29864 0.54243 0.0
C403 C 0.90732 0.31808 0.51677 0.0
C404 C 0.91641 0.30504 0.48397 0.0
C405 C 0.88926 0.30235 0.4607 0.0
C406 C 0.94175 0.32352 0.46823 0.0
C407 C 0.92747 0.27471 0.49491 0.0
C408 C 0.92619 0.27159 0.52875 0.0
C409 C 0.93392 0.24477 0.54419 0.0
C410 C 0.94212 0.22028 0.52441 0.0
C411 C 0.94183 0.22275 0.48966 0.0
C412 C 0.93525 0.25054 0.47494 0.0
H413 H 0.11675 0.87388 0.51053 0.0
H414 H 0.13469 0.87837 0.61543 0.0
H415 H 0.18187 0.90594 0.6039 0.0
H416 H 0.18972 0.85828 0.48656 0.0
H417 H 0.18785 0.87967 0.449 0.0
H418 H 0.15428 0.86369 0.4661 0.0
H419 H 0.12954 0.91627 0.46692 0.0
H420 H 0.16315 0.93247 0.44989 0.0
H421 H 0.14801 0.94674 0.48791 0.0
H422 H 0.22869 0.93036 0.57988 0.0
H423 H 0.27224 0.94555 0.54608 0.0
H424 H 0.22276 0.9231 0.45746 0.0
C425 C 0.13025 0.881 0.53127 0.0
C426 C 0.12195 0.87413 0.56394 0.0
C427 C 0.1406 0.88349 0.59021 0.0
C428 C 0.16731 0.89927 0.58388 0.0
C429 C 0.17487 0.90544 0.55122 0.0
C430 C 0.15684 0.89643 0.52541 0.0
C431 C 0.17081 0.90338 0.49244 0.0
C432 C 0.17598 0.87454 0.47237 0.0
C433 C 0.15174 0.92607 0.47317 0.0
C434 C 0.20001 0.91713 0.50357 0.0
C435 C 0.20181 0.91868 0.53751 0.0
C436 C 0.22738 0.92947 0.5533 0.0
C437 C 0.25195 0.93814 0.53389 0.0
C438 C 0.25085 0.93548 0.49914 0.0
C439 C 0.22425 0.92547 0.48394 0.0
H440 H 0.44767 0.76127 0.01795 0.0
H441 H 0.47145 0.7329 0.91943 0.0
H442 H 0.45998 0.68043 0.9342 0.0
H443 H 0.47005 0.68953 0.06325 0.0
H444 H 0.43772 0.69232 0.08968 0.0
H445 H 0.45571 0.72585 0.07463 0.0
H446 H 0.40495 0.74381 0.05088 0.0
H447 H 0.38692 0.71027 0.06527 0.0
H448 H 0.385 0.72014 0.02231 0.0
H449 H 0.43754 0.63395 0.9555 0.0
H450 H 0.40527 0.59609 0.98156 0.0
H451 H 0.39301 0.65463 0.06591 0.0
C452 C 0.45192 0.74369 1.00016 0.0
C453 C 0.46114 0.75073 0.96788 0.0
C454 C 0.46496 0.72763 0.94447 0.0
C455 C 0.45855 0.69784 0.95268 0.0
C456 C 0.4481 0.69169 0.9843 0.0
C457 C 0.44492 0.71392 0.0078 0.0
C458 C 0.42857 0.70229 0.03793 0.0
C459 C 0.44926 0.7025 0.06817 0.0
C460 C 0.39966 0.72019 0.04444 0.0
C461 C 0.4217 0.67058 0.02698 0.0
C462 C 0.43384 0.66476 0.99633 0.0
C463 C 0.42842 0.63799 0.97978 0.0
C464 C 0.40984 0.61671 0.99472 0.0
C465 C 0.39657 0.62242 0.02579 0.0
C466 C 0.4031 0.6495 0.04234 0.0
H467 H 0.71102 0.42228 0.03006 0.0
H468 H 0.74856 0.47591 0.95137 0.0
H469 H 0.79817 0.4741 0.97822 0.0
H470 H 0.76389 0.44829 0.09921 0.0
H471 H 0.76581 0.41072 0.11538 0.0
H472 H 0.73185 0.42378 0.09604 0.0
H473 H 0.73344 0.37854 0.05609 0.0
H474 H 0.76735 0.36553 0.07499 0.0
H475 H 0.76642 0.3725 0.03131 0.0
H476 H 0.84413 0.45832 0.00596 0.0
H477 H 0.88398 0.42784 0.03089 0.0
H478 H 0.81795 0.38179 0.09086 0.0
C479 C 0.72945 0.43486 0.01953 0.0
C480 C 0.7261 0.44984 0.9892 0.0
C481 C 0.75081 0.46479 0.97494 0.0
C482 C 0.77895 0.46399 0.99012 0.0
C483 C 0.78197 0.4479 0.01935 0.0
C484 C 0.75788 0.4336 0.03401 0.0
C485 C 0.7681 0.41321 0.06167 0.0
C486 C 0.75674 0.4247 0.09506 0.0
C487 C 0.75826 0.38053 0.05562 0.0
C488 C 0.80177 0.41679 0.05884 0.0
C489 C 0.80917 0.43766 0.03499 0.0
C490 C 0.83868 0.44247 0.02521 0.0
C491 C 0.86113 0.42488 0.03936 0.0
C492 C 0.85396 0.40253 0.06283 0.0
C493 C 0.82405 0.39917 0.0735 0.0
H494 H 0.05419 0.76087 0.9509 0.0
H495 H 0.02195 0.71937 0.04075 0.0
H496 H 0.03898 0.76344 0.07251 0.0
H497 H 0.11939 0.78758 0.98165 0.0
H498 H 0.11987 0.82244 0.95923 0.0
H499 H 0.10023 0.79062 0.94272 0.0
H500 H 0.05115 0.82146 0.93913 0.0
H501 H 0.07079 0.85371 0.95501 0.0
H502 H 0.03734 0.84047 0.97523 0.0
H503 H 0.06768 0.80787 0.09528 0.0
H504 H 0.10043 0.85169 0.10616 0.0
H505 H 0.11261 0.86365 1.00099 0.0
C506 C 0.04977 0.76147 0.9771 0.0
C507 C 0.03674 0.73674 0.99334 0.0
C508 C 0.03163 0.73822 0.02773 0.0
C509 C 0.04135 0.76311 0.04601 0.0
C510 C 0.0556 0.78645 0.02941 0.0
C511 C 0.05914 0.78612 0.99559 0.0
C512 C 0.07716 0.81274 0.98381 0.0
C513 C 0.10585 0.80272 0.96581 0.0
C514 C 0.05795 0.83332 0.96201 0.0
C515 C 0.08433 0.82741 0.01636 0.0
C516 C 0.07161 0.81214 0.04244 0.0
C517 C 0.0772 0.82039 0.075 0.0
C518 C 0.096 0.84512 0.08096 0.0
C519 C 0.10891 0.86117 0.05444 0.0
C520 C 0.10279 0.85212 0.02183 0.0
H521 H 0.67036 0.10458 0.08119 0.0
H522 H 0.6063 0.05942 0.01796 0.0
H523 H 0.64677 0.0287 0.99468 0.0
H524 H 0.72295 0.11447 0.02486 0.0
H525 H 0.75546 0.1081 0.05026 0.0
H526 H 0.7211 0.12042 0.06872 0.0
H527 H 0.72156 0.07453 0.10777 0.0
H528 H 0.75621 0.06207 0.08945 0.0
H529 H 0.72428 0.03728 0.09083 0.0
H530 H 0.69348 0.01352 0.96824 0.0
H531 H 0.74367 0.01306 0.9426 0.0
H532 H 0.77886 0.06504 0.02386 0.0
C533 C 0.66477 0.08726 0.06355 0.0
C534 C 0.63529 0.08431 0.05139 0.0
C535 C 0.6288 0.06206 0.02757 0.0
C536 C 0.65162 0.04432 0.01437 0.0
C537 C 0.68078 0.0488 0.02551 0.0
C538 C 0.68744 0.06937 0.04998 0.0
C539 C 0.72103 0.07302 0.05395 0.0
C540 C 0.73067 0.10594 0.04913 0.0
C541 C 0.73138 0.061 0.0875 0.0
C542 C 0.73204 0.05321 0.02617 0.0
C543 C 0.70845 0.03891 0.01056 0.0
C544 C 0.71232 0.0235 0.98098 0.0
C545 C 0.7408 0.0234 0.96652 0.0
C546 C 0.76499 0.03826 0.98189 0.0
C547 C 0.76083 0.05242 0.01256 0.0
H548 H 0.45146 0.77182 0.54011 0.0
H549 H 0.44501 0.71315 0.45546 0.0
H550 H 0.42849 0.75593 0.42125 0.0
H551 H 0.38842 0.80899 0.5286 0.0
H552 H 0.40119 0.84557 0.54127 0.0
H553 H 0.41947 0.81269 0.55675 0.0
H554 H 0.47065 0.83179 0.53497 0.0
H555 H 0.4526 0.8652 0.51984 0.0
H556 H 0.4744 0.84223 0.49231 0.0
H557 H 0.4015 0.80212 0.40043 0.0
H558 H 0.37153 0.84847 0.39377 0.0
H559 H 0.39813 0.87662 0.49179 0.0
C560 C 0.44781 0.76832 0.51403 0.0
C561 C 0.44956 0.73941 0.5003 0.0
C562 C 0.4442 0.73534 0.46626 0.0
C563 C 0.43471 0.75949 0.44669 0.0
C564 C 0.43154 0.78754 0.46147 0.0
C565 C 0.43878 0.79218 0.49422 0.0
C566 C 0.43052 0.82338 0.50535 0.0
C567 C 0.4086 0.82257 0.53469 0.0
C568 C 0.45873 0.84174 0.51359 0.0
C569 C 0.41556 0.83488 0.47454 0.0
C570 C 0.41668 0.81423 0.44923 0.0
C571 C 0.40125 0.81883 0.41974 0.0
C572 C 0.38414 0.84511 0.41623 0.0
C573 C 0.38252 0.86623 0.44219 0.0
C574 C 0.39907 0.86115 0.47127 0.0
H575 H 0.73102 0.431 0.54399 0.0
H576 H 0.7884 0.44358 0.45902 0.0
H577 H 0.74577 0.4316 0.42224 0.0
H578 H 0.69395 0.36948 0.51677 0.0
H579 H 0.65773 0.37919 0.53327 0.0
H580 H 0.69114 0.3935 0.55234 0.0
H581 H 0.67198 0.44796 0.54517 0.0
H582 H 0.63817 0.43378 0.52647 0.0
H583 H 0.66086 0.4609 0.50497 0.0
H584 H 0.69881 0.40945 0.39573 0.0
H585 H 0.65059 0.38455 0.38203 0.0
H586 H 0.62477 0.38923 0.48491 0.0
C587 C 0.73436 0.43212 0.51761 0.0
C588 C 0.76284 0.43822 0.50427 0.0
C589 C 0.76655 0.43928 0.46967 0.0
C590 C 0.74252 0.43239 0.44862 0.0
C591 C 0.71491 0.42522 0.46266 0.0
C592 C 0.71061 0.42579 0.4964 0.0
C593 C 0.67954 0.41543 0.50567 0.0
C594 C 0.68069 0.38776 0.52833 0.0
C595 C 0.66157 0.44105 0.5215 0.0
C596 C 0.66743 0.40759 0.47208 0.0
C597 C 0.68792 0.41346 0.44743 0.0
C598 C 0.68232 0.40544 0.41476 0.0
C599 C 0.655 0.39116 0.40721 0.0
C600 C 0.6338 0.38516 0.4323 0.0
C601 C 0.6402 0.39387 0.46497 0.0
H602 H 0.14699 0.66657 0.43756 0.0
H603 H 0.06787 0.61326 0.41825 0.0
H604 H 0.03577 0.65483 0.43772 0.0
H605 H 0.12485 0.6884 0.51144 0.0
H606 H 0.14042 0.72571 0.51108 0.0
H607 H 0.15678 0.69702 0.48589 0.0
H608 H 0.1494 0.72944 0.43365 0.0
H609 H 0.13372 0.75879 0.45882 0.0
H610 H 0.11283 0.74433 0.4243 0.0
H611 H 0.01305 0.69858 0.46787 0.0
H612 H 0.00215 0.73965 0.50743 0.0
H613 H 0.09693 0.76042 0.51264 0.0
C614 C 0.12286 0.66452 0.43556 0.0
C615 C 0.10969 0.6374 0.4254 0.0
C616 C 0.07813 0.6344 0.42506 0.0
C617 C 0.05981 0.65783 0.43615 0.0
C618 C 0.07353 0.68381 0.44795 0.0
C619 C 0.10441 0.68729 0.44759 0.0
C620 C 0.11402 0.71448 0.46719 0.0
C621 C 0.13525 0.70586 0.49557 0.0
C622 C 0.12833 0.73817 0.44464 0.0
C623 C 0.08397 0.72484 0.47993 0.0
C624 C 0.06074 0.70758 0.46776 0.0
C625 C 0.03105 0.71245 0.47727 0.0
C626 C 0.02505 0.73557 0.49982 0.0
C627 C 0.0488 0.7526 0.51328 0.0
C628 C 0.07847 0.7473 0.50297 0.0
H629 H 0.75832 0.04805 0.54669 0.0
H630 H 0.70595 0.03496 0.45804 0.0
H631 H 0.75054 0.04679 0.42423 0.0
H632 H 0.79464 0.10946 0.52305 0.0
H633 H 0.83046 0.10113 0.54139 0.0
H634 H 0.79694 0.08505 0.55832 0.0
H635 H 0.81862 0.03156 0.55124 0.0
H636 H 0.85266 0.0475 0.53488 0.0
H637 H 0.8323 0.01979 0.51154 0.0
H638 H 0.79753 0.07092 0.40117 0.0
H639 H 0.84454 0.09913 0.39086 0.0
H640 H 0.86573 0.09428 0.49497 0.0
C641 C 0.75662 0.04646 0.52015 0.0
C642 C 0.7289 0.04052 0.5049 0.0
C643 C 0.7272 0.03904 0.47014 0.0
C644 C 0.75237 0.04587 0.45077 0.0
C645 C 0.77907 0.05335 0.46665 0.0
C646 C 0.78152 0.0528 0.50061 0.0
C647 C 0.81162 0.06438 0.51195 0.0
C648 C 0.80818 0.09161 0.53501 0.0
C649 C 0.82988 0.03931 0.52836 0.0
C650 C 0.82504 0.07327 0.47929 0.0
C651 C 0.80622 0.06651 0.45332 0.0
C652 C 0.81282 0.07555 0.42121 0.0
C653 C 0.8394 0.09176 0.41561 0.0
C654 C 0.85888 0.09874 0.44205 0.0
C655 C 0.85159 0.08896 0.4741 0.0
H656 H 0.49016 0.94007 0.9608 0.0
H657 H 0.48097 0.90189 0.05853 0.0
H658 H 0.48334 0.95265 0.08268 0.0
H659 H 0.54197 -0.00105 0.98276 0.0
H660 H 0.52551 0.02541 0.95458 0.0
H661 H 0.52372 0.98591 0.94583 0.0
H662 H 0.46586 0.98996 0.94097 0.0
H663 H 0.46747 0.02933 0.95073 0.0
H664 H 0.44455 0.00452 0.9751 0.0
H665 H 0.48661 0.00789 0.09609 0.0
H666 H 0.49682 0.06235 0.09787 0.0
H667 H 0.50147 0.06394 0.99118 0.0
C668 C 0.48917 0.94231 0.98732 0.0
C669 C 0.48557 0.91701 0.00779 0.0
C670 C 0.48391 0.92096 0.04236 0.0
C671 C 0.48496 0.94972 0.0563 0.0
C672 C 0.48746 0.97427 0.03532 0.0
C673 C 0.4899 0.97081 1.00161 0.0
C674 C 0.49283 0.00075 0.98449 0.0
C675 C 0.52279 0.00288 0.96584 0.0
C676 C 0.46608 0.00646 0.96147 0.0
C677 C 0.49214 0.02158 0.01387 0.0
C678 C 0.48873 0.00597 0.04297 0.0
C679 C 0.4891 0.0204 0.07343 0.0
C680 C 0.49463 0.0514 0.07421 0.0
C681 C 0.49981 0.06747 0.04469 0.0
C682 C 0.49725 0.05244 0.01419 0.0
H683 H 0.41587 0.49211 0.99018 0.0
H684 H 0.41573 0.48636 0.09681 0.0
H685 H 0.46973 0.47347 0.09572 0.0
H686 H 0.47172 0.43341 0.97328 0.0
H687 H 0.48783 0.45475 0.94 0.0
H688 H 0.44858 0.45847 0.94953 0.0
H689 H 0.45588 0.51589 0.95544 0.0
H690 H 0.4953 0.5123 0.94698 0.0
H691 H 0.48299 0.5301 0.98443 0.0
H692 H 0.52472 0.46475 0.08258 0.0
H693 H 0.57533 0.45865 0.05851 0.0
H694 H 0.53896 0.47513 0.96121 0.0
C695 C 0.42681 0.48713 0.01333 0.0
C696 C 0.41149 0.48982 0.04359 0.0
C697 C 0.42697 0.48398 0.07332 0.0
C698 C 0.45765 0.47686 0.07293 0.0
C699 C 0.47239 0.47599 0.04266 0.0
C700 C 0.45737 0.48075 0.01341 0.0
C701 C 0.47852 0.48109 0.98434 0.0
C702 C 0.47123 0.45539 0.96038 0.0
C703 C 0.47814 0.51166 0.96679 0.0
C704 C 0.50796 0.47596 1.00174 0.0
C705 C 0.50401 0.47279 0.03532 0.0
C706 C 0.52804 0.46723 0.05634 0.0
C707 C 0.55667 0.464 0.0425 0.0
C708 C 0.561 0.46686 0.0081 0.0
C709 C 0.53639 0.47347 0.98765 0.0
H710 H -0.00247 0.54904 0.97242 0.0
H711 H 0.00826 0.58881 0.06921 0.0
H712 H 0.00539 0.53855 0.09447 0.0
H713 H 0.94524 0.49075 0.9965 0.0
H714 H 0.96122 0.46369 0.96864 0.0
H715 H 0.96303 0.50302 0.959 0.0
H716 H 0.02079 0.49867 0.95326 0.0
H717 H 0.01918 0.4595 0.96388 0.0
H718 H 0.04253 0.48466 0.98734 0.0
H719 H 0.00198 0.48364 0.10908 0.0
H720 H 0.99233 0.42911 0.11213 0.0
H721 H 0.98625 0.42565 0.00556 0.0
C722 C -0.00133 0.54726 0.99897 0.0
C723 C 0.00292 0.57285 0.01887 0.0
C724 C 0.00484 0.5695 0.0535 0.0
C725 C 0.00348 0.54103 0.06806 0.0
C726 C 0.00039 0.51615 0.04764 0.0
C727 C -0.00235 0.51903 0.01389 0.0
C728 C 0.9944 0.48878 0.99745 0.0
C729 C 0.96418 0.48642 0.97935 0.0
C730 C 0.0208 0.48255 0.97411 0.0
C731 C 0.9954 0.46848 0.02726 0.0
C732 C -0.0009 0.48461 0.05598 0.0
C733 C -0.00077 0.47072 0.08673 0.0
C734 C 0.99401 0.43969 0.08822 0.0
C735 C 0.9887 0.42304 0.05911 0.0
C736 C 0.9906 0.43759 0.02827 0.0
H737 H 0.07299 0.98446 0.98506 0.0
H738 H 0.07415 8e-05 0.09055 0.0
H739 H 0.01983 0.01107 0.08903 0.0
H740 H 0.01766 0.04139 0.9639 0.0
H741 H 0.00093 0.01818 0.93255 0.0
H742 H 0.04014 0.01431 0.94212 0.0
H743 H 0.03174 0.95762 0.95286 0.0
H744 H 0.99234 0.96148 0.94425 0.0
H745 H 0.00444 0.94601 0.983 0.0
H746 H 0.96494 0.01776 0.07613 0.0
H747 H 0.91459 0.0247 0.05208 0.0
H748 H 0.94965 0.00228 0.95555 0.0
C749 C 0.06207 0.99089 0.00779 0.0
C750 C 0.07785 0.99161 0.03792 0.0
C751 C 0.06255 -0.00033 0.06714 0.0
C752 C 0.03167 0.0057 0.06655 0.0
C753 C 0.01658 0.00344 0.03659 0.0
C754 C 0.03135 -0.00339 0.0077 0.0
C755 C 0.00996 0.99475 0.97888 0.0
C756 C 0.01762 0.01858 0.95284 0.0
C757 C 0.00961 0.96308 0.96388 0.0
C758 C 0.98073 0.00166 0.99603 0.0
C759 C 0.98499 0.00653 0.02932 0.0
C760 C 0.96135 0.014 0.05011 0.0
C761 C 0.93283 0.01771 0.03626 0.0
C762 C 0.92823 0.0138 0.00201 0.0
C763 C 0.95238 0.0049 0.98188 0.0
H764 H 0.48461 0.57087 0.47573 0.0
H765 H 0.50551 0.57152 0.5801 0.0
H766 H 0.51403 0.5168 0.57817 0.0
H767 H 0.44382 0.50361 0.47542 0.0
H768 H 0.45738 0.49089 0.43604 0.0
H769 H 0.45529 0.53042 0.4447 0.0
H770 H 0.51179 0.53671 0.43138 0.0
H771 H 0.51387 0.49737 0.42177 0.0
H772 H 0.53882 0.5133 0.452 0.0
H773 H 0.51679 0.46169 0.56554 0.0
H774 H 0.52051 0.411 0.54172 0.0
H775 H 0.49708 0.44657 0.44568 0.0
C776 C 0.49163 0.55968 0.49808 0.0
C777 C 0.49449 0.57549 0.52807 0.0
C778 C 0.50344 0.55992 0.55679 0.0
C779 C 0.50806 0.52881 0.55599 0.0
C780 C 0.50371 0.51375 0.52629 0.0
C781 C 0.49623 0.52874 0.49774 0.0
C782 C 0.49253 0.50734 0.46909 0.0
C783 C 0.46034 0.50812 0.45553 0.0
C784 C 0.51564 0.51408 0.44197 0.0
C785 C 0.499 0.47786 0.486 0.0
C786 C 0.5052 0.48204 0.51903 0.0
C787 C 0.51212 0.45817 0.53969 0.0
C788 C 0.51397 0.42943 0.52594 0.0
C789 C 0.50898 0.42481 0.49185 0.0
C790 C 0.50063 0.44929 0.47188 0.0
H791 H 0.05666 0.49652 0.46047 0.0
H792 H 0.08488 0.53324 0.55437 0.0
H793 H 0.03422 0.52438 0.57693 0.0
H794 H 0.98634 0.53025 0.45962 0.0
H795 H 0.96687 0.49926 0.44074 0.0
H796 H 0.00621 0.50479 0.43296 0.0
H797 H 0.01783 0.45095 0.4533 0.0
H798 H 0.9784 0.44496 0.4603 0.0
H799 H 0.0048 0.43923 0.49328 0.0
H800 H 0.97935 0.51461 0.588 0.0
H801 H 0.92551 0.50101 0.58773 0.0
H802 H 0.93336 0.47339 0.48562 0.0
C803 C 0.05245 0.50177 0.48608 0.0
C804 C 0.07471 0.51522 0.50581 0.0
C805 C 0.06813 0.52265 0.53894 0.0
C806 C 0.03941 0.51785 0.55192 0.0
C807 C 0.01755 0.50574 0.53138 0.0
C808 C 0.02382 0.4975 0.49928 0.0
C809 C 0.99601 0.48646 0.48178 0.0
C810 C 0.98842 0.50639 0.45202 0.0
C811 C -0.00053 0.45344 0.47158 0.0
C812 C 0.97311 0.49005 0.50893 0.0
C813 C 0.98591 0.50107 0.53741 0.0
C814 C 0.96907 0.50589 0.56585 0.0
C815 C 0.93849 0.49834 0.56541 0.0
C816 C 0.92518 0.48637 0.53662 0.0
C817 C 0.94272 0.48281 0.50794 0.0
H818 H 0.99165 0.93106 0.55059 0.0
H819 H 0.0076 0.89277 0.45395 0.0
H820 H 0.00454 0.94315 0.42923 0.0
H821 H 0.93912 0.98951 0.52356 0.0
H822 H 0.95347 0.01631 0.55282 0.0
H823 H 0.95467 0.97686 0.56207 0.0
H824 H 0.01195 0.98122 0.57197 0.0
H825 H 0.01105 0.02049 0.56178 0.0
H826 H 0.03567 0.99559 0.53968 0.0
H827 H 0.00298 -0.0019 0.41545 0.0
H828 H 0.99603 0.05301 0.41278 0.0
H829 H 0.98219 0.05515 0.51854 0.0
C830 C 0.99366 0.93316 0.52413 0.0
C831 C -0.00029 0.90797 0.50418 0.0
C832 C 0.0028 0.91175 0.4697 0.0
C833 C 0.00132 0.9403 0.45544 0.0
C834 C -0.0033 0.96482 0.47598 0.0
C835 C 0.99238 0.96151 0.50949 0.0
C836 C 0.98822 0.99157 0.52612 0.0
C837 C 0.95701 0.99368 0.54207 0.0
C838 C 0.01321 -0.00245 0.55137 0.0
C839 C 0.99097 0.01225 0.49675 0.0
C840 C 0.99603 0.99644 0.46808 0.0
C841 C -0.00108 0.01075 0.43774 0.0
C842 C 0.99523 0.04197 0.4365 0.0
C843 C 0.98867 0.0584 0.46543 0.0
C844 C 0.98742 0.04331 0.49599 0.0
H845 H 0.55459 0.01255 0.48395 0.0
H846 H 0.56035 0.00211 0.59 0.0
H847 H 0.50531 0.99536 0.59254 0.0
H848 H 0.48811 0.05562 0.48345 0.0
H849 H 0.47329 0.03881 0.44652 0.0
H850 H 0.51322 0.04094 0.45266 0.0
H851 H 0.51793 0.98339 0.44521 0.0
H852 H 0.47817 0.98121 0.4381 0.0
H853 H 0.49509 0.95881 0.46997 0.0
H854 H 0.44951 0.99065 0.5832 0.0
H855 H 0.39799 0.98353 0.56227 0.0
H856 H 0.42924 -0.0001 0.46279 0.0
C857 C 0.54445 0.00828 0.50771 0.0
C858 C 0.56179 0.00765 0.53679 0.0
C859 C 0.54751 0.00242 0.56738 0.0
C860 C 0.51627 -0.00117 0.56908 0.0
C861 C 0.49976 0.00075 0.54001 0.0
C862 C 0.51342 0.00503 0.50988 0.0
C863 C 0.49074 0.00652 0.48226 0.0
C864 C 0.49139 0.03731 0.46523 0.0
C865 C 0.49578 0.98096 0.45744 0.0
C866 C 0.46207 0.00218 0.50148 0.0
C867 C 0.46771 -0.001 0.53477 0.0
C868 C 0.44482 0.9933 0.55723 0.0
C869 C 0.41563 0.98949 0.54515 0.0
C870 C 0.40962 0.99157 0.51098 0.0
C871 C 0.43302 -0.00106 0.4891 0.0
H872 H 0.60298 0.27788 0.30082 0.0
H873 H 0.50739 0.29501 0.30586 0.0
H874 H 0.49982 0.26417 0.25576 0.0
H875 H 0.60886 0.281 0.21194 0.0
H876 H 0.63679 0.25187 0.21038 0.0
H877 H 0.63417 0.2757 0.24603 0.0
H878 H 0.62841 0.22874 0.28309 0.0
H879 H 0.6306 0.20478 0.24751 0.0
H880 H 0.59879 0.20227 0.27473 0.0
H881 H 0.50293 0.22868 0.20648 0.0
H882 H 0.51695 0.19658 0.15917 0.0
H883 H 0.61065 0.20476 0.18641 0.0
C884 C 0.58045 0.27539 0.29127 0.0
C885 C 0.55574 0.28878 0.30723 0.0
C886 C 0.52665 0.28507 0.29388 0.0
C887 C 0.52213 0.26745 0.26558 0.0
C888 C 0.54699 0.25402 0.25084 0.0
C889 C 0.57562 0.25822 0.26301 0.0
C890 C 0.5987 0.24179 0.24259 0.0
C891 C 0.62093 0.26391 0.22679 0.0
C892 C 0.61508 0.21799 0.26322 0.0
C893 C 0.57863 0.22746 0.21706 0.0
C894 C 0.54884 0.23448 0.22231 0.0
C895 C 0.52621 0.22324 0.20205 0.0
C896 C 0.53436 0.20488 0.17537 0.0
C897 C 0.56488 0.19824 0.16908 0.0
C898 C 0.58713 0.20951 0.19048 0.0
H899 H 0.22619 0.54255 0.30575 0.0
H900 H 0.24786 0.63234 0.3398 0.0
H901 H 0.27919 0.64033 0.29086 0.0
H902 H 0.30037 0.52648 0.27069 0.0
H903 H 0.28542 0.50611 0.23605 0.0
H904 H 0.26537 0.50653 0.27456 0.0
H905 H 0.21812 0.52672 0.24491 0.0
H906 H 0.23797 0.52622 0.20634 0.0
H907 H 0.22087 0.56042 0.22061 0.0
H908 H 0.30476 0.64063 0.23702 0.0
H909 H 0.32433 0.63254 0.18094 0.0
H910 H 0.28922 0.54183 0.18172 0.0
C911 C 0.23767 0.5638 0.30294 0.0
C912 C 0.23451 0.58682 0.32665 0.0
C913 C 0.24992 0.61432 0.32208 0.0
C914 C 0.26786 0.6191 0.29436 0.0
C915 C 0.2705 0.59608 0.27147 0.0
C916 C 0.25603 0.5689 0.27541 0.0
C917 C 0.26229 0.54829 0.24646 0.0
C918 C 0.27938 0.52019 0.25762 0.0
C919 C 0.23307 0.53993 0.22852 0.0
C920 C 0.28196 0.56845 0.22544 0.0
C921 C 0.28637 0.59589 0.2405 0.0
C922 C 0.30192 0.61909 0.22517 0.0
C923 C 0.31291 0.61431 0.19335 0.0
C924 C 0.30866 0.58647 0.17737 0.0
C925 C 0.29342 0.56306 0.19383 0.0
H926 H 0.87888 0.28352 0.2005 0.0
H927 H 0.97257 0.29463 0.17452 0.0
H928 H 0.98708 0.26316 0.22213 0.0
H929 H 0.88973 0.28666 0.28892 0.0
H930 H 0.86079 0.25938 0.29692 0.0
H931 H 0.85836 0.28312 0.2612 0.0
H932 H 0.85403 0.23605 0.22406 0.0
H933 H 0.85685 0.21215 0.25962 0.0
H934 H 0.88275 0.2077 0.22592 0.0
H935 H 0.99079 0.22774 0.27134 0.0
H936 H 0.98364 0.19632 0.32105 0.0
H937 H 0.88761 0.21052 0.31491 0.0
C938 C 0.90249 0.27956 0.20494 0.0
C939 C 0.92461 0.29146 0.18379 0.0
C940 C 0.95525 0.28585 0.19054 0.0
C941 C 0.96369 0.26787 0.21739 0.0
C942 C 0.94121 0.25597 0.23739 0.0
C943 C 0.91126 0.26202 0.23173 0.0
C944 C 0.8914 0.24701 0.257 0.0
C945 C 0.87406 0.27044 0.27721 0.0
C946 C 0.87 0.22439 0.24066 0.0
C947 C 0.91477 0.23133 0.27768 0.0
C948 C 0.94338 0.23649 0.26592 0.0
C949 C 0.96849 0.22374 0.28086 0.0
C950 C 0.96422 0.20579 0.30893 0.0
C951 C 0.93511 0.20105 0.32186 0.0
C952 C 0.91017 0.21382 0.30572 0.0
H953 H 0.26963 0.89901 0.31795 0.0
H954 H 0.2812 0.99454 0.33348 0.0
H955 H 0.25414 0.0046 0.28132 0.0
H956 H 0.28116 0.90043 0.2304 0.0
H957 H 0.25398 0.87132 0.22268 0.0
H958 H 0.27389 0.87226 0.2612 0.0
H959 H 0.22328 0.87277 0.29258 0.0
H960 H 0.20321 0.87215 0.25414 0.0
H961 H 0.19616 0.90154 0.28358 0.0
H962 H 0.22395 0.00365 0.22768 0.0
H963 H 0.19814 0.99174 0.17522 0.0
H964 H 0.20857 0.89682 0.19529 0.0
C965 C 0.26655 0.92209 0.31041 0.0
C966 C 0.27739 0.94602 0.32981 0.0
C967 C 0.27313 0.97587 0.31891 0.0
C968 C 0.25766 0.98178 0.28944 0.0
C969 C 0.24689 0.95757 0.27112 0.0
C970 C 0.25154 0.92832 0.28106 0.0
C971 C 0.2386 0.90616 0.25674 0.0
C972 C 0.26339 0.88639 0.24187 0.0
C973 C 0.21384 0.88704 0.27272 0.0
C974 C 0.2258 0.92743 0.23147 0.0
C975 C 0.23048 0.95702 0.24023 0.0
C976 C 0.2203 0.98055 0.22057 0.0
C977 C 0.20553 0.97359 0.19093 0.0
C978 C 0.20142 0.94338 0.18117 0.0
C979 C 0.21145 0.92015 0.202 0.0
H980 H 0.40958 0.80127 0.8009 0.0
H981 H 0.50513 0.80568 0.81992 0.0
H982 H 0.51481 0.77834 0.76787 0.0
H983 H 0.40733 0.72899 0.76935 0.0
H984 H 0.37966 0.73659 0.73813 0.0
H985 H 0.38047 0.75869 0.77516 0.0
H986 H 0.38532 0.8074 0.74081 0.0
H987 H 0.38395 0.7855 0.70359 0.0
H988 H 0.41492 0.81066 0.71081 0.0
H989 H 0.51311 0.74514 0.7166 0.0
H990 H 0.50066 0.71517 0.66702 0.0
H991 H 0.4064 0.73498 0.68142 0.0
C992 C 0.43259 0.79705 0.79378 0.0
C993 C 0.45663 0.80559 0.81434 0.0
C994 C 0.48642 0.79959 0.80429 0.0
C995 C 0.49209 0.78389 0.77492 0.0
C996 C 0.46774 0.77487 0.75573 0.0
C997 C 0.43862 0.78186 0.76446 0.0
C998 C 0.41628 0.76934 0.74005 0.0
C999 C 0.39467 0.74708 0.75668 0.0
C1000 C 0.39912 0.79474 0.72278 0.0
C1001 C 0.43726 0.75355 0.71657 0.0
C1002 C 0.46686 0.75679 0.726 0.0
C1003 C 0.49004 0.74286 0.70875 0.0
C1004 C 0.48276 0.7257 0.6808 0.0
C1005 C 0.45261 0.72289 0.67032 0.0
C1006 C 0.4297 0.73694 0.68864 0.0
H1007 H 0.7811 0.39266 0.68872 0.0
H1008 H 0.78784 0.48734 0.66575 0.0
H1009 H 0.7588 0.49939 0.71611 0.0
H1010 H 0.70717 0.39291 0.72046 0.0
H1011 H 0.71488 0.36628 0.75271 0.0
H1012 H 0.73631 0.36537 0.71518 0.0
H1013 H 0.78567 0.37048 0.74844 0.0
H1014 H 0.76441 0.371 0.7861 0.0
H1015 H 0.79 0.40117 0.77694 0.0
H1016 H 0.7256 0.50023 0.76761 0.0
H1017 H 0.69766 0.49033 0.81934 0.0
H1018 H 0.71622 0.39541 0.80922 0.0
C1019 C 0.77665 0.41596 0.6944 0.0
C1020 C 0.78656 0.4391 0.67337 0.0
C1021 C 0.78054 0.46931 0.68172 0.0
C1022 C 0.76391 0.47632 0.7101 0.0
C1023 C 0.75394 0.45285 0.73003 0.0
C1024 C 0.76065 0.42332 0.7228 0.0
C1025 C 0.7482 0.4022 0.74849 0.0
C1026 C 0.72528 0.38042 0.73329 0.0
C1027 C 0.77358 0.38522 0.76603 0.0
C1028 C 0.73317 0.42436 0.77124 0.0
C1029 C 0.73629 0.45346 0.76007 0.0
C1030 C 0.72331 0.47755 0.77672 0.0
C1031 C 0.70733 0.47174 0.8059 0.0
C1032 C 0.70499 0.44216 0.81825 0.0
C1033 C 0.71789 0.41828 0.80047 0.0
H1034 H 0.08471 0.76667 0.69575 0.0
H1035 H 0.98985 0.77679 0.6751 0.0
H1036 H 0.97778 0.7487 0.72606 0.0
H1037 H 0.08156 0.69247 0.72904 0.0
H1038 H 0.10943 0.69973 0.76017 0.0
H1039 H 0.11035 0.72013 0.72195 0.0
H1040 H 0.10872 0.77045 0.75386 0.0
H1041 H 0.1081 0.7502 0.79217 0.0
H1042 H 0.07904 0.77699 0.7831 0.0
H1043 H 0.9766 0.71797 0.77926 0.0
H1044 H 0.98631 0.6921 0.8322 0.0
H1045 H 0.0819 0.70438 0.81782 0.0
C1046 C 0.06136 0.76301 0.7019 0.0
C1047 C 0.0382 0.7738 0.6814 0.0
C1048 C 0.00795 0.76878 0.69051 0.0
C1049 C 0.0009 0.75271 0.71929 0.0
C1050 C 0.02436 0.74209 0.73877 0.0
C1051 C 0.05398 0.7474 0.73058 0.0
C1052 C 0.07512 0.73459 0.75602 0.0
C1053 C 0.0953 0.71029 0.74088 0.0
C1054 C 0.09384 0.75955 0.77225 0.0
C1055 C 0.05285 0.7212 0.77992 0.0
C1056 C 0.02367 0.72539 0.76947 0.0
C1057 C -0.00063 0.71468 0.78768 0.0
C1058 C 0.00509 0.69988 0.8176 0.0
C1059 C 0.03483 0.6963 0.82913 0.0
C1060 C 0.05889 0.70685 0.80973 0.0
H1061 H 0.71271 0.03526 0.68066 0.0
H1062 H 0.70214 0.13084 0.66453 0.0
H1063 H 0.72868 0.14124 0.71646 0.0
H1064 H 0.70442 0.03625 0.76961 0.0
H1065 H 0.73292 0.00837 0.77662 0.0
H1066 H 0.71185 0.00813 0.7388 0.0
H1067 H 0.76137 0.01047 0.7056 0.0
H1068 H 0.78259 0.01096 0.74333 0.0
H1069 H 0.78765 0.04038 0.71344 0.0
H1070 H 0.75482 0.14174 0.76991 0.0
H1071 H 0.78136 0.13234 0.82209 0.0
H1072 H 0.77916 0.03668 0.80292 0.0
C1073 C 0.71572 0.05831 0.68838 0.0
C1074 C 0.70519 0.08229 0.66881 0.0
C1075 C 0.71001 0.11218 0.67923 0.0
C1076 C 0.72504 0.11832 0.70867 0.0
C1077 C 0.73552 0.09431 0.72719 0.0
C1078 C 0.7313 0.0649 0.71753 0.0
C1079 C 0.7459 0.04347 0.74173 0.0
C1080 C 0.72236 0.02284 0.75763 0.0
C1081 C 0.77086 0.02525 0.72502 0.0
C1082 C 0.75871 0.06551 0.76652 0.0
C1083 C 0.75216 0.09468 0.75763 0.0
C1084 C 0.76033 0.11904 0.77706 0.0
C1085 C 0.77535 0.11349 0.80661 0.0
C1086 C 0.7825 0.08387 0.81623 0.0
C1087 C 0.7744 0.05956 0.79575 0.0
loop_
_geom_bond_atom_site_label_1
_geom_bond_atom_site_label_2
_geom_bond_distance
_geom_bond_site_symmetry_2
_ccdc_geom_bond_type
O0 Cd1 2.223 . S
O0 C8 1.315 . S
Cd1 O0 2.223 . S
Cd1 O4 2.297 . S
Cd1 O5 2.439 . S
Cd1 O11 2.240 . S
Cd2 O3 2.240 . S
Cd2 O10 2.223 . S
Cd2 O12 2.297 . S
Cd2 O13 2.439 . S
O3 Cd2 2.240 . S
O3 C8 1.279 . S
O4 Cd1 2.297 . S
O4 C6 1.247 . S
O5 Cd1 2.439 . S
O5 C6 1.208 . S
C6 O4 1.247 . S
C6 O5 1.208 . S
C7 O12 1.247 . S
C7 O13 1.208 . S
C8 O0 1.315 . S
C8 O3 1.279 . S
C9 O10 1.315 . S
C9 O11 1.279 . S
O10 Cd2 2.223 . S
O10 C9 1.315 . S
O11 Cd1 2.240 . S
O11 C9 1.279 . S
O12 Cd2 2.297 . S
O12 C7 1.247 . S
O13 Cd2 2.439 . S
O13 C7 1.208 . S
O14 Cd15 2.223 . S
O14 C22 1.315 . S
Cd15 O14 2.223 . S
Cd15 O18 2.297 . S
Cd15 O19 2.439 . S
Cd15 O25 2.240 . S
Cd16 O17 2.240 . S
Cd16 O24 2.223 . S
Cd16 O26 2.297 . S
Cd16 O27 2.439 . S
O17 Cd16 2.240 . S
O17 C22 1.279 . S
O18 Cd15 2.297 . S
O18 C20 1.247 . S
O19 Cd15 2.439 . S
O19 C20 1.208 . S
C20 O18 1.247 . S
C20 O19 1.208 . S
C21 O26 1.247 . S
C21 O27 1.208 . S
C22 O14 1.315 . S
C22 O17 1.279 . S
C23 O24 1.315 . S
C23 O25 1.279 . S
O24 Cd16 2.223 . S
O24 C23 1.315 . S
O25 Cd15 2.240 . S
O25 C23 1.279 . S
O26 Cd16 2.297 . S
O26 C21 1.247 . S
O27 Cd16 2.439 . S
O27 C21 1.208 . S
O28 Cd29 2.223 . S
O28 C36 1.315 . S
Cd29 O28 2.223 . S
Cd29 O32 2.297 . S
Cd29 O33 2.439 . S
Cd29 O39 2.240 . S
Cd30 O31 2.240 . S
Cd30 O38 2.223 . S
Cd30 O40 2.297 . S
Cd30 O41 2.439 . S
O31 Cd30 2.240 . S
O31 C36 1.279 . S
O32 Cd29 2.297 . S
O32 C34 1.247 . S
O33 Cd29 2.439 . S
O33 C34 1.208 . S
C34 O32 1.247 . S
C34 O33 1.208 . S
C35 O40 1.247 . S
C35 O41 1.208 . S
C36 O28 1.315 . S
C36 O31 1.279 . S
C37 O38 1.315 . S
C37 O39 1.279 . S
O38 Cd30 2.223 . S
O38 C37 1.315 . S
O39 Cd29 2.240 . S
O39 C37 1.279 . S
O40 Cd30 2.297 . S
O40 C35 1.247 . S
O41 Cd30 2.439 . S
O41 C35 1.208 . S
O42 Cd43 2.223 . S
O42 C50 1.315 . S
Cd43 O42 2.223 . S
Cd43 O46 2.297 . S
Cd43 O47 2.439 . S
Cd43 O53 2.240 . S
Cd44 O45 2.240 . S
Cd44 O52 2.223 . S
Cd44 O54 2.297 . S
Cd44 O55 2.439 . S
O45 Cd44 2.240 . S
O45 C50 1.279 . S
O46 Cd43 2.297 . S
O46 C48 1.247 . S
O47 Cd43 2.439 . S
O47 C48 1.208 . S
C48 O46 1.247 . S
C48 O47 1.208 . S
C49 O54 1.247 . S
C49 O55 1.208 . S
C50 O42 1.315 . S
C50 O45 1.279 . S
C51 O52 1.315 . S
C51 O53 1.279 . S
O52 Cd44 2.223 . S
O52 C51 1.315 . S
O53 Cd43 2.240 . S
O53 C51 1.279 . S
O54 Cd44 2.297 . S
O54 C49 1.247 . S
O55 Cd44 2.439 . S
O55 C49 1.208 . S
O56 Cd57 2.223 . S
O56 C64 1.315 . S
Cd57 O56 2.223 . S
Cd57 O60 2.297 . S
Cd57 O61 2.439 . S
Cd57 O67 2.240 . S
Cd58 O59 2.240 . S
Cd58 O66 2.223 . S
Cd58 O68 2.297 . S
Cd58 O69 2.439 . S
O59 Cd58 2.240 . S
O59 C64 1.279 . S
O60 Cd57 2.297 . S
O60 C62 1.247 . S
O61 Cd57 2.439 . S
O61 C62 1.208 . S
C62 O60 1.247 . S
C62 O61 1.208 . S
C63 O68 1.247 . S
C63 O69 1.208 . S
C64 O56 1.315 . S
C64 O59 1.279 . S
C65 O66 1.315 . S
C65 O67 1.279 . S
O66 Cd58 2.223 . S
O66 C65 1.315 . S
O67 Cd57 2.240 . S
O67 C65 1.279 . S
O68 Cd58 2.297 . S
O68 C63 1.247 . S
O69 Cd58 2.439 . S
O69 C63 1.208 . S
O70 Cd71 2.223 . S
O70 C78 1.315 . S
Cd71 O70 2.223 . S
Cd71 O74 2.297 . S
Cd71 O75 2.439 . S
Cd71 O81 2.240 . S
Cd72 O73 2.240 . S
Cd72 O80 2.223 . S
Cd72 O82 2.297 . S
Cd72 O83 2.439 . S
O73 Cd72 2.240 . S
O73 C78 1.279 . S
O74 Cd71 2.297 . S
O74 C76 1.247 . S
O75 Cd71 2.439 . S
O75 C76 1.208 . S
C76 O74 1.247 . S
C76 O75 1.208 . S
C77 O82 1.247 . S
C77 O83 1.208 . S
C78 O70 1.315 . S
C78 O73 1.279 . S
C79 O80 1.315 . S
C79 O81 1.279 . S
O80 Cd72 2.223 . S
O80 C79 1.315 . S
O81 Cd71 2.240 . S
O81 C79 1.279 . S
O82 Cd72 2.297 . S
O82 C77 1.247 . S
O83 Cd72 2.439 . S
O83 C77 1.208 . S
O84 Cd85 2.223 . S
O84 C92 1.315 . S
Cd85 O84 2.223 . S
Cd85 O88 2.297 . S
Cd85 O89 2.439 . S
Cd85 O95 2.240 . S
Cd86 O87 2.240 . S
Cd86 O94 2.223 . S
Cd86 O96 2.297 . S
Cd86 O97 2.439 . S
O87 Cd86 2.240 . S
O87 C92 1.279 . S
O88 Cd85 2.297 . S
O88 C90 1.247 . S
O89 Cd85 2.439 . S
O89 C90 1.208 . S
C90 O88 1.247 . S
C90 O89 1.208 . S
C91 O96 1.247 . S
C91 O97 1.208 . S
C92 O84 1.315 . S
C92 O87 1.279 . S
C93 O94 1.315 . S
C93 O95 1.279 . S
O94 Cd86 2.223 . S
O94 C93 1.315 . S
O95 Cd85 2.240 . S
O95 C93 1.279 . S
O96 Cd86 2.297 . S
O96 C91 1.247 . S
O97 Cd86 2.439 . S
O97 C91 1.208 . S
O98 Cd99 2.223 . S
O98 C106 1.315 . S
Cd99 O98 2.223 . S
Cd99 O102 2.297 . S
Cd99 O103 2.439 . S
Cd99 O109 2.240 . S
Cd100 O101 2.240 . S
Cd100 O108 2.223 . S
Cd100 O110 2.297 . S
Cd100 O111 2.439 . S
O101 Cd100 2.240 . S
O101 C106 1.279 . S
O102 Cd99 2.297 . S
O102 C104 1.247 . S
O103 Cd99 2.439 . S
O103 C104 1.208 . S
C104 O102 1.247 . S
C104 O103 1.208 . S
C105 O110 1.247 . S
C105 O111 1.208 . S
C106 O98 1.315 . S
C106 O101 1.279 . S
C107 O108 1.315 . S
C107 O109 1.279 . S
O108 Cd100 2.223 . S
O108 C107 1.315 . S
O109 Cd99 2.240 . S
O109 C107 1.279 . S
O110 Cd100 2.297 . S
O110 C105 1.247 . S
O111 Cd100 2.439 . S
O111 C105 1.208 . S
O112 Cd113 2.223 . S
O112 C120 1.315 . S
Cd113 O112 2.223 . S
Cd113 O116 2.297 . S
Cd113 O117 2.439 . S
Cd113 O123 2.240 . S
Cd114 O115 2.240 . S
Cd114 O122 2.223 . S
Cd114 O124 2.297 . S
Cd114 O125 2.439 . S
O115 Cd114 2.240 . S
O115 C120 1.279 . S
O116 Cd113 2.297 . S
O116 C118 1.247 . S
O117 Cd113 2.439 . S
O117 C118 1.208 . S
C118 O116 1.247 . S
C118 O117 1.208 . S
C119 O124 1.247 . S
C119 O125 1.208 . S
C120 O112 1.315 . S
C120 O115 1.279 . S
C121 O122 1.315 . S
C121 O123 1.279 . S
O122 Cd114 2.223 . S
O122 C121 1.315 . S
O123 Cd113 2.240 . S
O123 C121 1.279 . S
O124 Cd114 2.297 . S
O124 C119 1.247 . S
O125 Cd114 2.439 . S
O125 C119 1.208 . S
O126 Cd127 2.223 . S
O126 C134 1.315 . S
Cd127 O126 2.223 . S
Cd127 O130 2.297 . S
Cd127 O131 2.439 . S
Cd127 O137 2.240 . S
Cd128 O129 2.240 . S
Cd128 O136 2.223 . S
Cd128 O138 2.297 . S
Cd128 O139 2.439 . S
O129 Cd128 2.240 . S
O129 C134 1.279 . S
O130 Cd127 2.297 . S
O130 C132 1.247 . S
O131 Cd127 2.439 . S
O131 C132 1.208 . S
C132 O130 1.247 . S
C132 O131 1.208 . S
C133 O138 1.247 . S
C133 O139 1.208 . S
C134 O126 1.315 . S
C134 O129 1.279 . S
C135 O136 1.315 . S
C135 O137 1.279 . S
O136 Cd128 2.223 . S
O136 C135 1.315 . S
O137 Cd127 2.240 . S
O137 C135 1.279 . S
O138 Cd128 2.297 . S
O138 C133 1.247 . S
O139 Cd128 2.439 . S
O139 C133 1.208 . S
O140 Cd141 2.223 . S
O140 C148 1.315 . S
Cd141 O140 2.223 . S
Cd141 O144 2.297 . S
Cd141 O145 2.439 . S
Cd141 O151 2.240 . S
Cd142 O143 2.240 . S
Cd142 O150 2.223 . S
Cd142 O152 2.297 . S
Cd142 O153 2.439 . S
O143 Cd142 2.240 . S
O143 C148 1.279 . S
O144 Cd141 2.297 . S
O144 C146 1.247 . S
O145 Cd141 2.439 . S
O145 C146 1.208 . S
C146 O144 1.247 . S
C146 O145 1.208 . S
C147 O152 1.247 . S
C147 O153 1.208 . S
C148 O140 1.315 . S
C148 O143 1.279 . S
C149 O150 1.315 . S
C149 O151 1.279 . S
O150 Cd142 2.223 . S
O150 C149 1.315 . S
O151 Cd141 2.240 . S
O151 C149 1.279 . S
O152 Cd142 2.297 . S
O152 C147 1.247 . S
O153 Cd142 2.439 . S
O153 C147 1.208 . S
O154 Cd155 2.223 . S
O154 C162 1.315 . S
Cd155 O154 2.223 . S
Cd155 O158 2.297 . S
Cd155 O159 2.439 . S
Cd155 O165 2.240 . S
Cd156 O157 2.240 . S
Cd156 O164 2.223 . S
Cd156 O166 2.297 . S
Cd156 O167 2.439 . S
O157 Cd156 2.240 . S
O157 C162 1.279 . S
O158 Cd155 2.297 . S
O158 C160 1.247 . S
O159 Cd155 2.439 . S
O159 C160 1.208 . S
C160 O158 1.247 . S
C160 O159 1.208 . S
C161 O166 1.247 . S
C161 O167 1.208 . S
C162 O154 1.315 . S
C162 O157 1.279 . S
C163 O164 1.315 . S
C163 O165 1.279 . S
O164 Cd156 2.223 . S
O164 C163 1.315 . S
O165 Cd155 2.240 . S
O165 C163 1.279 . S
O166 Cd156 2.297 . S
O166 C161 1.247 . S
O167 Cd156 2.439 . S
O167 C161 1.208 . S
O168 Cd169 2.223 . S
O168 C176 1.315 . S
Cd169 O168 2.223 . S
Cd169 O172 2.297 . S
Cd169 O173 2.439 . S
Cd169 O179 2.240 . S
Cd170 O171 2.240 . S
Cd170 O178 2.223 . S
Cd170 O180 2.297 . S
Cd170 O181 2.439 . S
O171 Cd170 2.240 . S
O171 C176 1.279 . S
O172 Cd169 2.297 . S
O172 C174 1.247 . S
O173 Cd169 2.439 . S
O173 C174 1.208 . S
C174 O172 1.247 . S
C174 O173 1.208 . S
C175 O180 1.247 . S
C175 O181 1.208 . S
C176 O168 1.315 . S
C176 O171 1.279 . S
C177 O178 1.315 . S
C177 O179 1.279 . S
O178 Cd170 2.223 . S
O178 C177 1.315 . S
O179 Cd169 2.240 . S
O179 C177 1.279 . S
O180 Cd170 2.297 . S
O180 C175 1.247 . S
O181 Cd170 2.439 . S
O181 C175 1.208 . S
O182 Cd183 2.223 . S
O182 C190 1.315 . S
Cd183 O182 2.223 . S
Cd183 O186 2.297 . S
Cd183 O187 2.439 . S
Cd183 O193 2.240 . S
Cd184 O185 2.240 . S
Cd184 O192 2.223 . S
Cd184 O194 2.297 . S
Cd184 O195 2.439 . S
O185 Cd184 2.240 . S
O185 C190 1.279 . S
O186 Cd183 2.297 . S
O186 C188 1.247 . S
O187 Cd183 2.439 . S
O187 C188 1.208 . S
C188 O186 1.247 . S
C188 O187 1.208 . S
C189 O194 1.247 . S
C189 O195 1.208 . S
C190 O182 1.315 . S
C190 O185 1.279 . S
C191 O192 1.315 . S
C191 O193 1.279 . S
O192 Cd184 2.223 . S
O192 C191 1.315 . S
O193 Cd183 2.240 . S
O193 C191 1.279 . S
O194 Cd184 2.297 . S
O194 C189 1.247 . S
O195 Cd184 2.439 . S
O195 C189 1.208 . S
O196 Cd197 2.223 . S
O196 C204 1.315 . S
Cd197 O196 2.223 . S
Cd197 O200 2.297 . S
Cd197 O201 2.439 . S
Cd197 O207 2.240 . S
Cd198 O199 2.240 . S
Cd198 O206 2.223 . S
Cd198 O208 2.297 . S
Cd198 O209 2.439 . S
O199 Cd198 2.240 . S
O199 C204 1.279 . S
O200 Cd197 2.297 . S
O200 C202 1.247 . S
O201 Cd197 2.439 . S
O201 C202 1.208 . S
C202 O200 1.247 . S
C202 O201 1.208 . S
C203 O208 1.247 . S
C203 O209 1.208 . S
C204 O196 1.315 . S
C204 O199 1.279 . S
C205 O206 1.315 . S
C205 O207 1.279 . S
O206 Cd198 2.223 . S
O206 C205 1.315 . S
O207 Cd197 2.240 . S
O207 C205 1.279 . S
O208 Cd198 2.297 . S
O208 C203 1.247 . S
O209 Cd198 2.439 . S
O209 C203 1.208 . S
O210 Cd211 2.223 . S
O210 C218 1.315 . S
Cd211 O210 2.223 . S
Cd211 O214 2.297 . S
Cd211 O215 2.439 . S
Cd211 O221 2.240 . S
Cd212 O213 2.240 . S
Cd212 O220 2.223 . S
Cd212 O222 2.297 . S
Cd212 O223 2.439 . S
O213 Cd212 2.240 . S
O213 C218 1.279 . S
O214 Cd211 2.297 . S
O214 C216 1.247 . S
O215 Cd211 2.439 . S
O215 C216 1.208 . S
C216 O214 1.247 . S
C216 O215 1.208 . S
C217 O222 1.247 . S
C217 O223 1.208 . S
C218 O210 1.315 . S
C218 O213 1.279 . S
C219 O220 1.315 . S
C219 O221 1.279 . S
O220 Cd212 2.223 . S
O220 C219 1.315 . S
O221 Cd211 2.240 . S
O221 C219 1.279 . S
O222 Cd212 2.297 . S
O222 C217 1.247 . S
O223 Cd212 2.439 . S
O223 C217 1.208 . S
H224 C236 0.930 1_556 S
H225 C238 0.930 . S
H226 C239 0.930 . S
H227 C243 0.959 . S
H228 C243 0.959 . S
H229 C243 0.961 . S
H230 C244 0.960 . S
H231 C244 0.961 . S
H232 C244 0.959 . S
H233 C247 0.929 . S
H234 C248 0.931 . S
H235 C250 0.930 . S
C236 H224 0.930 1_554 S
C236 C237 1.399 . S
C236 C241 1.399 1_554 S
C237 C236 1.399 . S
C237 C238 1.376 . S
C238 H225 0.930 . S
C238 C237 1.376 . S
C238 C239 1.388 . S
C239 H226 0.930 . S
C239 C238 1.388 . S
C239 C240 1.390 . S
C240 C239 1.390 . S
C240 C241 1.394 1_554 S
C240 C246 1.465 . S
C241 C236 1.399 1_556 S
C241 C240 1.394 1_556 S
C241 C242 1.516 . S
C242 C241 1.516 . S
C242 C243 1.502 . S
C242 C244 1.561 . S
C242 C245 1.526 . S
C243 H227 0.959 . S
C243 H228 0.959 . S
C243 H229 0.961 . S
C243 C242 1.502 . S
C244 H230 0.960 . S
C244 H231 0.961 . S
C244 H232 0.959 . S
C244 C242 1.561 . S
C245 C242 1.526 . S
C245 C246 1.396 1_556 S
C245 C250 1.390 . S
C246 C240 1.465 . S
C246 C245 1.396 1_554 S
C246 C247 1.399 . S
C247 H233 0.929 . S
C247 C246 1.399 . S
C247 C248 1.385 . S
C248 H234 0.931 . S
C248 C247 1.385 . S
C248 C249 1.389 1_554 S
C249 C248 1.389 1_556 S
C249 C250 1.387 . S
C250 H235 0.930 . S
C250 C245 1.390 . S
C250 C249 1.387 . S
H251 C263 0.930 1_554 S
H252 C265 0.930 . S
H253 C266 0.930 . S
H254 C270 0.959 . S
H255 C270 0.959 . S
H256 C270 0.961 . S
H257 C271 0.960 . S
H258 C271 0.961 . S
H259 C271 0.959 . S
H260 C274 0.929 . S
H261 C275 0.931 1_556 S
H262 C277 0.930 . S
C263 H251 0.930 1_556 S
C263 C264 1.399 . S
C263 C268 1.399 1_556 S
C264 C263 1.399 . S
C264 C265 1.376 . S
C265 H252 0.930 . S
C265 C264 1.376 . S
C265 C266 1.388 . S
C266 H253 0.930 . S
C266 C265 1.388 . S
C266 C267 1.390 . S
C267 C266 1.390 . S
C267 C268 1.394 1_556 S
C267 C273 1.465 . S
C268 C263 1.399 1_554 S
C268 C267 1.394 1_554 S
C268 C269 1.516 . S
C269 C268 1.516 . S
C269 C270 1.502 . S
C269 C271 1.561 . S
C269 C272 1.526 . S
C270 H254 0.959 . S
C270 H255 0.959 . S
C270 H256 0.961 . S
C270 C269 1.502 . S
C271 H257 0.960 . S
C271 H258 0.961 . S
C271 H259 0.959 . S
C271 C269 1.561 . S
C272 C269 1.526 . S
C272 C273 1.396 1_554 S
C272 C277 1.390 . S
C273 C267 1.465 . S
C273 C272 1.396 1_556 S
C273 C274 1.399 . S
C274 H260 0.929 . S
C274 C273 1.399 . S
C274 C275 1.385 1_556 S
C275 H261 0.931 1_554 S
C275 C274 1.385 1_554 S
C275 C276 1.389 . S
C276 C275 1.389 . S
C276 C277 1.387 . S
C277 H262 0.930 . S
C277 C272 1.390 . S
C277 C276 1.387 . S
H278 C290 0.930 . S
H279 C292 0.930 . S
H280 C293 0.930 . S
H281 C297 0.959 . S
H282 C297 0.959 . S
H283 C297 0.961 . S
H284 C298 0.960 . S
H285 C298 0.961 . S
H286 C298 0.959 . S
H287 C301 0.929 . S
H288 C302 0.931 . S
H289 C304 0.930 1_556 S
C290 H278 0.930 . S
C290 C291 1.399 . S
C290 C295 1.399 . S
C291 C290 1.399 . S
C291 C292 1.376 1_556 S
C292 H279 0.930 . S
C292 C291 1.376 1_554 S
C292 C293 1.388 . S
C293 H280 0.930 . S
C293 C292 1.388 . S
C293 C294 1.390 . S
C294 C293 1.390 . S
C294 C295 1.394 1_554 S
C294 C300 1.465 . S
C295 C290 1.399 . S
C295 C294 1.394 1_556 S
C295 C296 1.516 . S
C296 C295 1.516 . S
C296 C297 1.502 . S
C296 C298 1.561 . S
C296 C299 1.526 . S
C297 H281 0.959 . S
C297 H282 0.959 . S
C297 H283 0.961 . S
C297 C296 1.502 . S
C298 H284 0.960 . S
C298 H285 0.961 . S
C298 H286 0.959 . S
C298 C296 1.561 . S
C299 C296 1.526 . S
C299 C300 1.396 1_556 S
C299 C304 1.390 1_556 S
C300 C294 1.465 . S
C300 C299 1.396 1_554 S
C300 C301 1.399 . S
C301 H287 0.929 . S
C301 C300 1.399 . S
C301 C302 1.385 . S
C302 H288 0.931 . S
C302 C301 1.385 . S
C302 C303 1.389 . S
C303 C302 1.389 . S
C303 C304 1.387 . S
C304 H289 0.930 1_554 S
C304 C299 1.390 1_554 S
C304 C303 1.387 . S
H305 C317 0.923 1_554 S
H306 C319 0.930 . S
H307 C320 0.930 . S
H308 C324 0.959 1_556 S
H309 C324 0.959 . S
H310 C324 0.961 . S
H311 C325 0.960 . S
H312 C325 0.961 . S
H313 C325 0.959 . S
H314 C328 0.929 . S
H315 C329 0.931 . S
H316 C331 0.930 . S
C317 H305 0.923 1_556 S
C317 C318 1.399 . S
C317 C322 1.399 1_556 S
C318 C317 1.399 . S
C318 C319 1.376 . S
C319 H306 0.930 . S
C319 C318 1.376 . S
C319 C320 1.388 . S
C320 H307 0.930 . S
C320 C319 1.388 . S
C320 C321 1.390 . S
C321 C320 1.390 . S
C321 C322 1.394 1_556 S
C321 C327 1.465 1_556 S
C322 C317 1.399 1_554 S
C322 C321 1.394 1_554 S
C322 C323 1.516 . S
C323 C322 1.516 . S
C323 C324 1.502 . S
C323 C325 1.561 . S
C323 C326 1.526 . S
C324 H308 0.959 1_554 S
C324 H309 0.959 . S
C324 H310 0.961 . S
C324 C323 1.502 . S
C325 H311 0.960 . S
C325 H312 0.961 . S
C325 H313 0.959 . S
C325 C323 1.561 . S
C326 C323 1.526 . S
C326 C327 1.396 . S
C326 C331 1.390 . S
C327 C321 1.465 1_554 S
C327 C326 1.396 . S
C327 C328 1.399 1_554 S
C328 H314 0.929 . S
C328 C327 1.399 1_556 S
C328 C329 1.385 1_556 S
C329 H315 0.931 . S
C329 C328 1.385 1_554 S
C329 C330 1.389 . S
C330 C329 1.389 . S
C330 C331 1.387 . S
C331 H316 0.930 . S
C331 C326 1.390 . S
C331 C330 1.387 . S
H332 C344 0.930 . S
H333 C346 0.930 . S
H334 C347 0.930 . S
H335 C351 0.959 . S
H336 C351 0.959 . S
H337 C351 0.961 . S
H338 C352 0.960 . S
H339 C352 0.961 . S
H340 C352 0.959 . S
H341 C355 0.929 . S
H342 C356 0.931 . S
H343 C358 0.930 . S
C344 H332 0.930 . S
C344 C345 1.399 . S
C344 C349 1.399 . S
C345 C344 1.399 . S
C345 C346 1.376 . S
C346 H333 0.930 . S
C346 C345 1.376 . S
C346 C347 1.388 . S
C347 H334 0.930 . S
C347 C346 1.388 . S
C347 C348 1.390 . S
C348 C347 1.390 . S
C348 C349 1.394 . S
C348 C354 1.465 . S
C349 C344 1.399 . S
C349 C348 1.394 . S
C349 C350 1.516 . S
C350 C349 1.516 . S
C350 C351 1.502 . S
C350 C352 1.561 . S
C350 C353 1.526 . S
C351 H335 0.959 . S
C351 H336 0.959 . S
C351 H337 0.961 . S
C351 C350 1.502 . S
C352 H338 0.960 . S
C352 H339 0.961 . S
C352 H340 0.959 . S
C352 C350 1.561 . S
C353 C350 1.526 . S
C353 C354 1.396 . S
C353 C358 1.390 . S
C354 C348 1.465 . S
C354 C353 1.396 . S
C354 C355 1.399 . S
C355 H341 0.929 . S
C355 C354 1.399 . S
C355 C356 1.385 . S
C356 H342 0.931 . S
C356 C355 1.385 . S
C356 C357 1.389 . S
C357 C356 1.389 . S
C357 C358 1.387 . S
C358 H343 0.930 . S
C358 C353 1.390 . S
C358 C357 1.387 . S
H359 C371 0.930 . S
H360 C373 0.930 . S
H361 C374 0.930 . S
H362 C378 0.959 . S
H363 C378 0.959 . S
H364 C378 0.961 . S
H365 C379 0.960 . S
H366 C379 0.961 . S
H367 C379 0.959 . S
H368 C382 0.929 . S
H369 C383 0.931 . S
H370 C385 0.930 . S
C371 H359 0.930 . S
C371 C372 1.399 . S
C371 C376 1.399 . S
C372 C371 1.399 . S
C372 C373 1.376 . S
C373 H360 0.930 . S
C373 C372 1.376 . S
C373 C374 1.388 . S
C374 H361 0.930 . S
C374 C373 1.388 . S
C374 C375 1.390 . S
C375 C374 1.390 . S
C375 C376 1.394 . S
C375 C381 1.465 . S
C376 C371 1.399 . S
C376 C375 1.394 . S
C376 C377 1.516 . S
C377 C376 1.516 . S
C377 C378 1.502 . S
C377 C379 1.561 . S
C377 C380 1.526 . S
C378 H362 0.959 . S
C378 H363 0.959 . S
C378 H364 0.961 . S
C378 C377 1.502 . S
C379 H365 0.960 . S
C379 H366 0.961 . S
C379 H367 0.959 . S
C379 C377 1.561 . S
C380 C377 1.526 . S
C380 C381 1.396 . S
C380 C385 1.390 . S
C381 C375 1.465 . S
C381 C380 1.396 . S
C381 C382 1.399 . S
C382 H368 0.929 . S
C382 C381 1.399 . S
C382 C383 1.385 . S
C383 H369 0.931 . S
C383 C382 1.385 . S
C383 C384 1.389 . S
C384 C383 1.389 . S
C384 C385 1.387 . S
C385 H370 0.930 . S
C385 C380 1.390 . S
C385 C384 1.387 . S
H386 C398 0.930 . S
H387 C400 0.930 . S
H388 C401 0.930 . S
H389 C405 0.959 . S
H390 C405 0.959 . S
H391 C405 0.961 . S
H392 C406 0.960 . S
H393 C406 0.961 . S
H394 C406 0.959 . S
H395 C409 0.929 . S
H396 C410 0.931 . S
H397 C412 0.930 . S
C398 H386 0.930 . S
C398 C399 1.399 . S
C398 C403 1.399 . S
C399 C398 1.399 . S
C399 C400 1.376 . S
C400 H387 0.930 . S
C400 C399 1.376 . S
C400 C401 1.388 . S
C401 H388 0.930 . S
C401 C400 1.388 . S
C401 C402 1.390 . S
C402 C401 1.390 . S
C402 C403 1.394 . S
C402 C408 1.465 . S
C403 C398 1.399 . S
C403 C402 1.394 . S
C403 C404 1.516 . S
C404 C403 1.516 . S
C404 C405 1.502 . S
C404 C406 1.561 . S
C404 C407 1.526 . S
C405 H389 0.959 . S
C405 H390 0.959 . S
C405 H391 0.961 . S
C405 C404 1.502 . S
C406 H392 0.960 . S
C406 H393 0.961 . S
C406 H394 0.959 . S
C406 C404 1.561 . S
C407 C404 1.526 . S
C407 C408 1.396 . S
C407 C412 1.390 . S
C408 C402 1.465 . S
C408 C407 1.396 . S
C408 C409 1.399 . S
C409 H395 0.929 . S
C409 C408 1.399 . S
C409 C410 1.385 . S
C410 H396 0.931 . S
C410 C409 1.385 . S
C410 C411 1.389 . S
C411 C410 1.389 . S
C411 C412 1.387 . S
C412 H397 0.930 . S
C412 C407 1.390 . S
C412 C411 1.387 . S
H413 C425 0.930 . S
H414 C427 0.930 . S
H415 C428 0.930 . S
H416 C432 0.959 . S
H417 C432 0.959 . S
H418 C432 0.961 . S
H419 C433 0.960 . S
H420 C433 0.961 . S
H421 C433 0.959 . S
H422 C436 0.929 . S
H423 C437 0.931 . S
H424 C439 0.930 . S
C425 H413 0.930 . S
C425 C426 1.399 . S
C425 C430 1.399 . S
C426 C425 1.399 . S
C426 C427 1.376 . S
C427 H414 0.930 . S
C427 C426 1.376 . S
C427 C428 1.388 . S
C428 H415 0.930 . S
C428 C427 1.388 . S
C428 C429 1.390 . S
C429 C428 1.390 . S
C429 C430 1.394 . S
C429 C435 1.465 . S
C430 C425 1.399 . S
C430 C429 1.394 . S
C430 C431 1.516 . S
C431 C430 1.516 . S
C431 C432 1.502 . S
C431 C433 1.561 . S
C431 C434 1.526 . S
C432 H416 0.959 . S
C432 H417 0.959 . S
C432 H418 0.961 . S
C432 C431 1.502 . S
C433 H419 0.960 . S
C433 H420 0.961 . S
C433 H421 0.959 . S
C433 C431 1.561 . S
C434 C431 1.526 . S
C434 C435 1.396 . S
C434 C439 1.390 . S
C435 C429 1.465 . S
C435 C434 1.396 . S
C435 C436 1.399 . S
C436 H422 0.929 . S
C436 C435 1.399 . S
C436 C437 1.385 . S
C437 H423 0.931 . S
C437 C436 1.385 . S
C437 C438 1.389 . S
C438 C437 1.389 . S
C438 C439 1.387 . S
C439 H424 0.930 . S
C439 C434 1.390 . S
C439 C438 1.387 . S
H440 C452 0.927 1_554 S
H441 C454 0.930 . S
H442 C455 0.930 . S
H443 C459 0.959 . S
H444 C459 0.959 . S
H445 C459 0.961 . S
H446 C460 0.960 . S
H447 C460 0.961 . S
H448 C460 0.959 . S
H449 C463 0.929 . S
H450 C464 0.931 . S
H451 C466 0.930 . S
C452 H440 0.927 1_556 S
C452 C453 1.402 . S
C452 C457 1.399 1_556 S
C453 C452 1.402 . S
C453 C454 1.376 . S
C454 H441 0.930 . S
C454 C453 1.376 . S
C454 C455 1.388 . S
C455 H442 0.930 . S
C455 C454 1.388 . S
C455 C456 1.390 . S
C456 C455 1.390 . S
C456 C457 1.394 1_556 S
C456 C462 1.465 . S
C457 C452 1.399 1_554 S
C457 C456 1.394 1_554 S
C457 C458 1.516 . S
C458 C457 1.516 . S
C458 C459 1.502 . S
C458 C460 1.561 . S
C458 C461 1.526 . S
C459 H443 0.959 . S
C459 H444 0.959 . S
C459 H445 0.961 . S
C459 C458 1.502 . S
C460 H446 0.960 . S
C460 H447 0.961 . S
C460 H448 0.959 . S
C460 C458 1.561 . S
C461 C458 1.526 . S
C461 C462 1.396 1_554 S
C461 C466 1.390 . S
C462 C456 1.465 . S
C462 C461 1.396 1_556 S
C462 C463 1.399 . S
C463 H449 0.929 . S
C463 C462 1.399 . S
C463 C464 1.385 . S
C464 H450 0.931 . S
C464 C463 1.385 . S
C464 C465 1.389 1_556 S
C465 C464 1.389 1_554 S
C465 C466 1.387 . S
C466 H451 0.930 . S
C466 C461 1.390 . S
C466 C465 1.387 . S
H467 C479 0.930 1_554 S
H468 C481 0.930 . S
H469 C482 0.930 . S
H470 C486 0.959 . S
H471 C486 0.959 . S
H472 C486 0.961 . S
H473 C487 0.960 . S
H474 C487 0.961 . S
H475 C487 0.959 1_556 S
H476 C490 0.929 . S
H477 C491 0.931 . S
H478 C493 0.930 . S
C479 H467 0.930 1_556 S
C479 C480 1.399 . S
C479 C484 1.399 . S
C480 C479 1.399 . S
C480 C481 1.376 . S
C481 H468 0.930 . S
C481 C480 1.376 . S
C481 C482 1.388 . S
C482 H469 0.930 . S
C482 C481 1.388 . S
C482 C483 1.390 . S
C483 C482 1.390 . S
C483 C484 1.394 . S
C483 C489 1.465 . S
C484 C479 1.399 . S
C484 C483 1.394 . S
C484 C485 1.516 1_556 S
C485 C484 1.516 1_554 S
C485 C486 1.502 . S
C485 C487 1.561 . S
C485 C488 1.526 . S
C486 H470 0.959 . S
C486 H471 0.959 . S
C486 H472 0.961 . S
C486 C485 1.502 . S
C487 H473 0.960 . S
C487 H474 0.961 . S
C487 H475 0.959 1_554 S
C487 C485 1.561 . S
C488 C485 1.526 . S
C488 C489 1.396 1_554 S
C488 C493 1.390 . S
C489 C483 1.465 . S
C489 C488 1.396 1_556 S
C489 C490 1.399 . S
C490 H476 0.929 . S
C490 C489 1.399 . S
C490 C491 1.385 . S
C491 H477 0.931 . S
C491 C490 1.385 . S
C491 C492 1.389 1_556 S
C492 C491 1.389 1_554 S
C492 C493 1.387 . S
C493 H478 0.930 . S
C493 C488 1.390 . S
C493 C492 1.387 . S
H494 C506 0.930 . S
H495 C508 0.930 . S
H496 C509 0.930 . S
H497 C513 0.959 . S
H498 C513 0.959 . S
H499 C513 0.961 . S
H500 C514 0.960 . S
H501 C514 0.961 . S
H502 C514 0.959 . S
H503 C517 0.929 . S
H504 C518 0.931 . S
H505 C520 0.930 . S
C506 H494 0.930 . S
C506 C507 1.399 . S
C506 C511 1.399 . S
C507 C506 1.399 . S
C507 C508 1.376 1_556 S
C508 H495 0.930 . S
C508 C507 1.376 1_554 S
C508 C509 1.388 . S
C509 H496 0.930 . S
C509 C508 1.388 . S
C509 C510 1.390 . S
C510 C509 1.390 . S
C510 C511 1.394 1_554 S
C510 C516 1.465 . S
C511 C506 1.399 . S
C511 C510 1.394 1_556 S
C511 C512 1.516 . S
C512 C511 1.516 . S
C512 C513 1.502 . S
C512 C514 1.561 . S
C512 C515 1.526 . S
C513 H497 0.959 . S
C513 H498 0.959 . S
C513 H499 0.961 . S
C513 C512 1.502 . S
C514 H500 0.960 . S
C514 H501 0.961 . S
C514 H502 0.959 . S
C514 C512 1.561 . S
C515 C512 1.526 . S
C515 C516 1.396 1_556 S
C515 C520 1.390 . S
C516 C510 1.465 . S
C516 C515 1.396 1_554 S
C516 C517 1.399 . S
C517 H503 0.929 . S
C517 C516 1.399 . S
C517 C518 1.385 . S
C518 H504 0.931 . S
C518 C517 1.385 . S
C518 C519 1.389 . S
C519 C518 1.389 . S
C519 C520 1.387 1_554 S
C520 H505 0.930 . S
C520 C515 1.390 . S
C520 C519 1.387 1_556 S
H521 C533 0.930 . S
H522 C535 0.930 . S
H523 C536 0.930 . S
H524 C540 0.959 . S
H525 C540 0.959 . S
H526 C540 0.961 . S
H527 C541 0.960 . S
H528 C541 0.961 . S
H529 C541 0.959 . S
H530 C544 0.929 . S
H531 C545 0.931 . S
H532 C547 0.930 1_554 S
C533 H521 0.930 . S
C533 C534 1.399 . S
C533 C538 1.399 . S
C534 C533 1.399 . S
C534 C535 1.376 1_554 S
C535 H522 0.930 . S
C535 C534 1.376 1_556 S
C535 C536 1.388 . S
C536 H523 0.930 . S
C536 C535 1.388 . S
C536 C537 1.390 . S
C537 C536 1.390 . S
C537 C538 1.394 1_556 S
C537 C543 1.465 . S
C538 C533 1.399 . S
C538 C537 1.394 1_554 S
C538 C539 1.516 . S
C539 C538 1.516 . S
C539 C540 1.502 . S
C539 C541 1.561 . S
C539 C542 1.526 . S
C540 H524 0.959 . S
C540 H525 0.959 . S
C540 H526 0.961 . S
C540 C539 1.502 . S
C541 H527 0.960 . S
C541 H528 0.961 . S
C541 H529 0.959 . S
C541 C539 1.561 . S
C542 C539 1.526 . S
C542 C543 1.396 1_554 S
C542 C547 1.390 1_554 S
C543 C537 1.465 . S
C543 C542 1.396 1_556 S
C543 C544 1.399 . S
C544 H530 0.929 . S
C544 C543 1.399 . S
C544 C545 1.385 . S
C545 H531 0.931 . S
C545 C544 1.385 . S
C545 C546 1.389 . S
C546 C545 1.389 . S
C546 C547 1.387 . S
C547 H532 0.930 1_556 S
C547 C542 1.390 1_556 S
C547 C546 1.387 . S
H548 C560 0.930 . S
H549 C562 0.930 . S
H550 C563 0.930 . S
H551 C567 0.959 . S
H552 C567 0.959 . S
H553 C567 0.961 . S
H554 C568 0.960 . S
H555 C568 0.961 . S
H556 C568 0.959 . S
H557 C571 0.929 . S
H558 C572 0.931 . S
H559 C574 0.930 . S
C560 H548 0.930 . S
C560 C561 1.399 . S
C560 C565 1.399 . S
C561 C560 1.399 . S
C561 C562 1.376 . S
C562 H549 0.930 . S
C562 C561 1.376 . S
C562 C563 1.388 . S
C563 H550 0.930 . S
C563 C562 1.388 . S
C563 C564 1.390 . S
C564 C563 1.390 . S
C564 C565 1.394 . S
C564 C570 1.465 . S
C565 C560 1.399 . S
C565 C564 1.394 . S
C565 C566 1.516 . S
C566 C565 1.516 . S
C566 C567 1.502 . S
C566 C568 1.561 . S
C566 C569 1.526 . S
C567 H551 0.959 . S
C567 H552 0.959 . S
C567 H553 0.961 . S
C567 C566 1.502 . S
C568 H554 0.960 . S
C568 H555 0.961 . S
C568 H556 0.959 . S
C568 C566 1.561 . S
C569 C566 1.526 . S
C569 C570 1.396 . S
C569 C574 1.390 . S
C570 C564 1.465 . S
C570 C569 1.396 . S
C570 C571 1.399 . S
C571 H557 0.929 . S
C571 C570 1.399 . S
C571 C572 1.385 . S
C572 H558 0.931 . S
C572 C571 1.385 . S
C572 C573 1.389 . S
C573 C572 1.389 . S
C573 C574 1.387 . S
C574 H559 0.930 . S
C574 C569 1.390 . S
C574 C573 1.387 . S
H575 C587 0.930 . S
H576 C589 0.930 . S
H577 C590 0.930 . S
H578 C594 0.959 . S
H579 C594 0.959 . S
H580 C594 0.961 . S
H581 C595 0.960 . S
H582 C595 0.961 . S
H583 C595 0.959 . S
H584 C598 0.929 . S
H585 C599 0.931 . S
H586 C601 0.930 . S
C587 H575 0.930 . S
C587 C588 1.399 . S
C587 C592 1.399 . S
C588 C587 1.399 . S
C588 C589 1.376 . S
C589 H576 0.930 . S
C589 C588 1.376 . S
C589 C590 1.388 . S
C590 H577 0.930 . S
C590 C589 1.388 . S
C590 C591 1.390 . S
C591 C590 1.390 . S
C591 C592 1.394 . S
C591 C597 1.465 . S
C592 C587 1.399 . S
C592 C591 1.394 . S
C592 C593 1.516 . S
C593 C592 1.516 . S
C593 C594 1.502 . S
C593 C595 1.561 . S
C593 C596 1.526 . S
C594 H578 0.959 . S
C594 H579 0.959 . S
C594 H580 0.961 . S
C594 C593 1.502 . S
C595 H581 0.960 . S
C595 H582 0.961 . S
C595 H583 0.959 . S
C595 C593 1.561 . S
C596 C593 1.526 . S
C596 C597 1.396 . S
C596 C601 1.390 . S
C597 C591 1.465 . S
C597 C596 1.396 . S
C597 C598 1.399 . S
C598 H584 0.929 . S
C598 C597 1.399 . S
C598 C599 1.385 . S
C599 H585 0.931 . S
C599 C598 1.385 . S
C599 C600 1.389 . S
C600 C599 1.389 . S
C600 C601 1.387 . S
C601 H586 0.930 . S
C601 C596 1.390 . S
C601 C600 1.387 . S
H602 C614 0.930 . S
H603 C616 0.930 . S
H604 C617 0.930 . S
H605 C621 0.959 . S
H606 C621 0.959 . S
H607 C621 0.961 . S
H608 C622 0.960 . S
H609 C622 0.961 . S
H610 C622 0.959 . S
H611 C625 0.929 . S
H612 C626 0.931 . S
H613 C628 0.930 . S
C614 H602 0.930 . S
C614 C615 1.399 . S
C614 C619 1.399 . S
C615 C614 1.399 . S
C615 C616 1.376 . S
C616 H603 0.930 . S
C616 C615 1.376 . S
C616 C617 1.388 . S
C617 H604 0.930 . S
C617 C616 1.388 . S
C617 C618 1.390 . S
C618 C617 1.390 . S
C618 C619 1.394 . S
C618 C624 1.465 . S
C619 C614 1.399 . S
C619 C618 1.394 . S
C619 C620 1.516 . S
C620 C619 1.516 . S
C620 C621 1.502 . S
C620 C622 1.561 . S
C620 C623 1.526 . S
C621 H605 0.959 . S
C621 H606 0.959 . S
C621 H607 0.961 . S
C621 C620 1.502 . S
C622 H608 0.960 . S
C622 H609 0.961 . S
C622 H610 0.959 . S
C622 C620 1.561 . S
C623 C620 1.526 . S
C623 C624 1.396 . S
C623 C628 1.390 . S
C624 C618 1.465 . S
C624 C623 1.396 . S
C624 C625 1.399 . S
C625 H611 0.929 . S
C625 C624 1.399 . S
C625 C626 1.385 . S
C626 H612 0.931 . S
C626 C625 1.385 . S
C626 C627 1.389 . S
C627 C626 1.389 . S
C627 C628 1.387 . S
C628 H613 0.930 . S
C628 C623 1.390 . S
C628 C627 1.387 . S
H629 C641 0.930 . S
H630 C643 0.930 . S
H631 C644 0.930 . S
H632 C648 0.959 . S
H633 C648 0.959 . S
H634 C648 0.961 . S
H635 C649 0.960 . S
H636 C649 0.961 . S
H637 C649 0.959 . S
H638 C652 0.929 . S
H639 C653 0.931 . S
H640 C655 0.930 . S
C641 H629 0.930 . S
C641 C642 1.399 . S
C641 C646 1.399 . S
C642 C641 1.399 . S
C642 C643 1.376 . S
C643 H630 0.930 . S
C643 C642 1.376 . S
C643 C644 1.388 . S
C644 H631 0.930 . S
C644 C643 1.388 . S
C644 C645 1.390 . S
C645 C644 1.390 . S
C645 C646 1.394 . S
C645 C651 1.465 . S
C646 C641 1.399 . S
C646 C645 1.394 . S
C646 C647 1.516 . S
C647 C646 1.516 . S
C647 C648 1.502 . S
C647 C649 1.561 . S
C647 C650 1.526 . S
C648 H632 0.959 . S
C648 H633 0.959 . S
C648 H634 0.961 . S
C648 C647 1.502 . S
C649 H635 0.960 . S
C649 H636 0.961 . S
C649 H637 0.959 . S
C649 C647 1.561 . S
C650 C647 1.526 . S
C650 C651 1.396 . S
C650 C655 1.390 . S
C651 C645 1.465 . S
C651 C650 1.396 . S
C651 C652 1.399 . S
C652 H638 0.929 . S
C652 C651 1.399 . S
C652 C653 1.385 . S
C653 H639 0.931 . S
C653 C652 1.385 . S
C653 C654 1.389 . S
C654 C653 1.389 . S
C654 C655 1.387 . S
C655 H640 0.930 . S
C655 C650 1.390 . S
C655 C654 1.387 . S
H656 C668 0.930 . S
H657 C670 0.930 . S
H658 C671 0.930 . S
H659 C675 0.971 1_565 S
H660 C675 0.959 . S
H661 C675 0.961 1_565 S
H662 C676 0.960 . S
H663 C676 0.961 . S
H664 C676 0.959 . S
H665 C679 0.929 . S
H666 C680 0.931 . S
H667 C682 0.931 . S
C668 H656 0.930 . S
C668 C669 1.399 . S
C668 C673 1.399 . S
C669 C668 1.399 . S
C669 C670 1.376 . S
C670 H657 0.930 . S
C670 C669 1.376 . S
C670 C671 1.388 1_556 S
C671 H658 0.930 . S
C671 C670 1.388 1_554 S
C671 C672 1.391 . S
C672 C671 1.391 . S
C672 C673 1.390 1_554 S
C672 C678 1.467 1_565 S
C673 C668 1.399 . S
C673 C672 1.390 1_556 S
C673 C674 1.516 1_565 S
C674 C673 1.516 1_545 S
C674 C675 1.502 . S
C674 C676 1.561 . S
C674 C677 1.526 1_556 S
C675 H659 0.971 1_545 S
C675 H660 0.959 . S
C675 H661 0.961 1_545 S
C675 C674 1.502 . S
C676 H662 0.960 . S
C676 H663 0.961 . S
C676 H664 0.959 . S
C676 C674 1.561 . S
C677 C674 1.526 1_554 S
C677 C678 1.396 . S
C677 C682 1.390 . S
C678 C672 1.467 1_545 S
C678 C677 1.396 . S
C678 C679 1.399 . S
C679 H665 0.929 . S
C679 C678 1.399 . S
C679 C680 1.385 . S
C680 H666 0.931 . S
C680 C679 1.385 . S
C680 C681 1.389 . S
C681 C680 1.389 . S
C681 C682 1.387 . S
C682 H667 0.931 . S
C682 C677 1.390 . S
C682 C681 1.387 . S
H683 C695 0.930 . S
H684 C697 0.930 . S
H685 C698 0.930 . S
H686 C702 0.959 . S
H687 C702 0.959 . S
H688 C702 0.961 . S
H689 C703 0.960 . S
H690 C703 0.961 1_556 S
H691 C703 0.959 . S
H692 C706 0.929 . S
H693 C707 0.931 . S
H694 C709 0.930 . S
C695 H683 0.930 . S
C695 C696 1.399 . S
C695 C700 1.399 . S
C696 C695 1.399 . S
C696 C697 1.376 . S
C697 H684 0.930 . S
C697 C696 1.376 . S
C697 C698 1.388 . S
C698 H685 0.930 . S
C698 C697 1.388 . S
C698 C699 1.390 . S
C699 C698 1.390 . S
C699 C700 1.394 . S
C699 C705 1.465 . S
C700 C695 1.399 . S
C700 C699 1.394 . S
C700 C701 1.516 1_554 S
C701 C700 1.516 1_556 S
C701 C702 1.502 . S
C701 C703 1.561 1_556 S
C701 C704 1.526 . S
C702 H686 0.959 . S
C702 H687 0.959 . S
C702 H688 0.961 . S
C702 C701 1.502 . S
C703 H689 0.960 . S
C703 H690 0.961 1_554 S
C703 H691 0.959 . S
C703 C701 1.561 1_554 S
C704 C701 1.526 . S
C704 C705 1.396 1_556 S
C704 C709 1.390 . S
C705 C699 1.465 . S
C705 C704 1.396 1_554 S
C705 C706 1.399 . S
C706 H692 0.929 . S
C706 C705 1.399 . S
C706 C707 1.385 1_554 S
C707 H693 0.931 . S
C707 C706 1.385 1_556 S
C707 C708 1.389 . S
C708 C707 1.389 . S
C708 C709 1.387 . S
C709 H694 0.930 . S
C709 C704 1.390 . S
C709 C708 1.387 . S
H710 C722 0.930 . S
H711 C724 0.930 1_554 S
H712 C725 0.930 . S
H713 C729 0.959 . S
H714 C729 0.959 . S
H715 C729 0.961 . S
H716 C730 0.960 . S
H717 C730 0.961 . S
H718 C730 0.959 1_455 S
H719 C733 0.929 . S
H720 C734 0.931 . S
H721 C736 0.930 1_556 S
C722 H710 0.930 . S
C722 C723 1.399 1_655 S
C722 C727 1.399 . S
C723 C722 1.399 1_455 S
C723 C724 1.376 . S
C724 H711 0.930 1_556 S
C724 C723 1.376 . S
C724 C725 1.388 1_556 S
C725 H712 0.930 . S
C725 C724 1.388 1_554 S
C725 C726 1.390 . S
C726 C725 1.390 . S
C726 C727 1.394 1_454 S
C726 C732 1.465 . S
C727 C722 1.399 . S
C727 C726 1.394 1_656 S
C727 C728 1.516 . S
C728 C727 1.516 . S
C728 C729 1.502 . S
C728 C730 1.561 . S
C728 C731 1.526 . S
C729 H713 0.959 . S
C729 H714 0.959 . S
C729 H715 0.961 . S
C729 C728 1.502 . S
C730 H716 0.960 . S
C730 H717 0.961 . S
C730 H718 0.959 1_655 S
C730 C728 1.561 . S
C731 C728 1.526 . S
C731 C732 1.396 1_656 S
C731 C736 1.390 1_556 S
C732 C726 1.465 . S
C732 C731 1.396 1_454 S
C732 C733 1.399 . S
C733 H719 0.929 . S
C733 C732 1.399 . S
C733 C734 1.385 . S
C734 H720 0.931 . S
C734 C733 1.385 . S
C734 C735 1.389 1_455 S
C735 C734 1.389 1_655 S
C735 C736 1.387 . S
C736 H721 0.930 1_554 S
C736 C731 1.390 1_554 S
C736 C735 1.387 . S
H737 C749 0.930 . S
H738 C751 0.930 . S
H739 C752 0.930 . S
H740 C756 0.958 1_654 S
H741 C756 0.960 1_655 S
H742 C756 0.961 1_554 S
H743 C757 0.960 . S
H744 C757 0.961 . S
H745 C757 0.959 . S
H746 C760 0.929 1_554 S
H747 C761 0.931 . S
H748 C763 0.930 . S
C749 H737 0.930 . S
C749 C750 1.399 1_545 S
C749 C754 1.399 . S
C750 C749 1.399 1_565 S
C750 C751 1.376 . S
C751 H738 0.930 . S
C751 C750 1.376 . S
C751 C752 1.388 . S
C752 H739 0.930 . S
C752 C751 1.388 . S
C752 C753 1.390 . S
C753 C752 1.390 . S
C753 C754 1.394 1_565 S
C753 C759 1.465 1_454 S
C754 C749 1.399 . S
C754 C753 1.394 1_545 S
C754 C755 1.516 1_554 S
C755 C754 1.516 1_556 S
C755 C756 1.502 . S
C755 C757 1.561 . S
C755 C758 1.526 1_455 S
C756 H740 0.958 1_456 S
C756 H741 0.960 1_455 S
C756 H742 0.961 1_556 S
C756 C755 1.502 . S
C757 H743 0.960 . S
C757 H744 0.961 . S
C757 H745 0.959 . S
C757 C755 1.561 . S
C758 C755 1.526 1_655 S
C758 C759 1.396 1_545 S
C758 C763 1.390 . S
C759 C753 1.465 1_656 S
C759 C758 1.396 1_565 S
C759 C760 1.399 . S
C760 H746 0.929 1_556 S
C760 C759 1.399 . S
C760 C761 1.385 . S
C761 H747 0.931 . S
C761 C760 1.385 . S
C761 C762 1.389 1_565 S
C762 C761 1.389 1_545 S
C762 C763 1.387 . S
C763 H748 0.930 . S
C763 C758 1.390 . S
C763 C762 1.387 . S
H764 C776 0.930 . S
H765 C778 0.930 . S
H766 C779 0.930 . S
H767 C783 0.959 . S
H768 C783 0.959 . S
H769 C783 0.961 . S
H770 C784 0.960 . S
H771 C784 0.961 . S
H772 C784 0.959 . S
H773 C787 0.929 . S
H774 C788 0.931 . S
H775 C790 0.930 . S
C776 H764 0.930 . S
C776 C777 1.399 . S
C776 C781 1.399 . S
C777 C776 1.399 . S
C777 C778 1.376 . S
C778 H765 0.930 . S
C778 C777 1.376 . S
C778 C779 1.388 . S
C779 H766 0.930 . S
C779 C778 1.388 . S
C779 C780 1.390 . S
C780 C779 1.390 . S
C780 C781 1.394 . S
C780 C786 1.465 . S
C781 C776 1.399 . S
C781 C780 1.394 . S
C781 C782 1.516 . S
C782 C781 1.516 . S
C782 C783 1.502 . S
C782 C784 1.561 . S
C782 C785 1.526 . S
C783 H767 0.959 . S
C783 H768 0.959 . S
C783 H769 0.961 . S
C783 C782 1.502 . S
C784 H770 0.960 . S
C784 H771 0.961 . S
C784 H772 0.959 . S
C784 C782 1.561 . S
C785 C782 1.526 . S
C785 C786 1.396 . S
C785 C790 1.390 . S
C786 C780 1.465 . S
C786 C785 1.396 . S
C786 C787 1.399 . S
C787 H773 0.929 . S
C787 C786 1.399 . S
C787 C788 1.385 . S
C788 H774 0.931 . S
C788 C787 1.385 . S
C788 C789 1.389 . S
C789 C788 1.389 . S
C789 C790 1.387 . S
C790 H775 0.930 . S
C790 C785 1.390 . S
C790 C789 1.387 . S
H791 C803 0.930 . S
H792 C805 0.930 . S
H793 C806 0.930 . S
H794 C810 0.959 . S
H795 C810 0.959 . S
H796 C810 0.961 . S
H797 C811 0.960 1_455 S
H798 C811 0.961 . S
H799 C811 0.959 1_455 S
H800 C814 0.929 . S
H801 C815 0.931 . S
H802 C817 0.930 . S
C803 H791 0.930 . S
C803 C804 1.399 . S
C803 C808 1.399 . S
C804 C803 1.399 . S
C804 C805 1.376 . S
C805 H792 0.930 . S
C805 C804 1.376 . S
C805 C806 1.388 . S
C806 H793 0.930 . S
C806 C805 1.388 . S
C806 C807 1.390 . S
C807 C806 1.390 . S
C807 C808 1.394 . S
C807 C813 1.465 1_455 S
C808 C803 1.399 . S
C808 C807 1.394 . S
C808 C809 1.516 1_455 S
C809 C808 1.516 1_655 S
C809 C810 1.502 . S
C809 C811 1.561 . S
C809 C812 1.526 . S
C810 H794 0.959 . S
C810 H795 0.959 . S
C810 H796 0.961 . S
C810 C809 1.502 . S
C811 H797 0.960 1_655 S
C811 H798 0.961 . S
C811 H799 0.959 1_655 S
C811 C809 1.561 . S
C812 C809 1.526 . S
C812 C813 1.396 . S
C812 C817 1.390 . S
C813 C807 1.465 1_655 S
C813 C812 1.396 . S
C813 C814 1.399 . S
C814 H800 0.929 . S
C814 C813 1.399 . S
C814 C815 1.385 . S
C815 H801 0.931 . S
C815 C814 1.385 . S
C815 C816 1.389 . S
C816 C815 1.389 . S
C816 C817 1.387 . S
C817 H802 0.930 . S
C817 C812 1.390 . S
C817 C816 1.387 . S
H818 C830 0.930 . S
H819 C832 0.930 . S
H820 C833 0.930 . S
H821 C837 0.959 . S
H822 C837 0.959 . S
H823 C837 0.977 . S
H824 C838 0.960 . S
H825 C838 0.961 . S
H826 C838 0.959 . S
H827 C841 0.929 . S
H828 C842 0.931 . S
H829 C844 0.930 . S
C830 H818 0.930 . S
C830 C831 1.399 1_655 S
C830 C835 1.399 . S
C831 C830 1.399 1_455 S
C831 C832 1.376 . S
C832 H819 0.930 . S
C832 C831 1.376 . S
C832 C833 1.388 . S
C833 H820 0.930 . S
C833 C832 1.388 . S
C833 C834 1.390 . S
C834 C833 1.390 . S
C834 C835 1.394 1_455 S
C834 C840 1.465 1_565 S
C835 C830 1.399 . S
C835 C834 1.394 1_655 S
C835 C836 1.516 1_565 S
C836 C835 1.516 1_545 S
C836 C837 1.502 . S
C836 C838 1.561 1_655 S
C836 C839 1.526 . S
C837 H821 0.959 . S
C837 H822 0.959 . S
C837 H823 0.977 . S
C837 C836 1.502 . S
C838 H824 0.960 . S
C838 H825 0.961 . S
C838 H826 0.959 . S
C838 C836 1.561 1_455 S
C839 C836 1.526 . S
C839 C840 1.396 1_655 S
C839 C844 1.390 . S
C840 C834 1.465 1_545 S
C840 C839 1.396 1_455 S
C840 C841 1.399 . S
C841 H827 0.929 . S
C841 C840 1.399 . S
C841 C842 1.385 . S
C842 H828 0.931 . S
C842 C841 1.385 . S
C842 C843 1.389 1_455 S
C843 C842 1.389 1_655 S
C843 C844 1.387 . S
C844 H829 0.930 . S
C844 C839 1.390 . S
C844 C843 1.387 . S
H845 C857 0.930 . S
H846 C859 0.930 . S
H847 C860 0.930 . S
H848 C864 0.959 . S
H849 C864 0.959 . S
H850 C864 0.961 . S
H851 C865 0.960 . S
H852 C865 0.961 . S
H853 C865 0.959 . S
H854 C868 0.929 . S
H855 C869 0.931 . S
H856 C871 0.930 . S
C857 H845 0.930 . S
C857 C858 1.399 . S
C857 C862 1.399 . S
C858 C857 1.399 . S
C858 C859 1.376 1_545 S
C859 H846 0.930 . S
C859 C858 1.376 1_565 S
C859 C860 1.388 . S
C860 H847 0.930 . S
C860 C859 1.388 . S
C860 C861 1.390 . S
C861 C860 1.390 . S
C861 C862 1.394 1_565 S
C861 C867 1.465 . S
C862 C857 1.399 . S
C862 C861 1.394 1_545 S
C862 C863 1.516 . S
C863 C862 1.516 . S
C863 C864 1.502 . S
C863 C865 1.561 . S
C863 C866 1.526 . S
C864 H848 0.959 . S
C864 H849 0.959 . S
C864 H850 0.961 . S
C864 C863 1.502 . S
C865 H851 0.960 . S
C865 H852 0.961 . S
C865 H853 0.959 . S
C865 C863 1.561 . S
C866 C863 1.526 . S
C866 C867 1.396 1_545 S
C866 C871 1.390 . S
C867 C861 1.465 . S
C867 C866 1.396 1_565 S
C867 C868 1.399 . S
C868 H854 0.929 . S
C868 C867 1.399 . S
C868 C869 1.385 . S
C869 H855 0.931 . S
C869 C868 1.385 . S
C869 C870 1.389 . S
C870 C869 1.389 . S
C870 C871 1.387 1_565 S
C871 H856 0.930 . S
C871 C866 1.390 . S
C871 C870 1.387 1_545 S
H872 C884 0.930 . S
H873 C886 0.930 . S
H874 C887 0.930 . S
H875 C891 0.959 . S
H876 C891 0.959 . S
H877 C891 0.961 . S
H878 C892 0.960 . S
H879 C892 0.961 . S
H880 C892 0.959 . S
H881 C895 0.929 . S
H882 C896 0.931 . S
H883 C898 0.930 . S
C884 H872 0.930 . S
C884 C885 1.399 . S
C884 C889 1.399 . S
C885 C884 1.399 . S
C885 C886 1.376 . S
C886 H873 0.930 . S
C886 C885 1.376 . S
C886 C887 1.388 . S
C887 H874 0.930 . S
C887 C886 1.388 . S
C887 C888 1.390 . S
C888 C887 1.390 . S
C888 C889 1.394 . S
C888 C894 1.465 . S
C889 C884 1.399 . S
C889 C888 1.394 . S
C889 C890 1.516 . S
C890 C889 1.516 . S
C890 C891 1.502 . S
C890 C892 1.561 . S
C890 C893 1.526 . S
C891 H875 0.959 . S
C891 H876 0.959 . S
C891 H877 0.961 . S
C891 C890 1.502 . S
C892 H878 0.960 . S
C892 H879 0.961 . S
C892 H880 0.959 . S
C892 C890 1.561 . S
C893 C890 1.526 . S
C893 C894 1.396 . S
C893 C898 1.390 . S
C894 C888 1.465 . S
C894 C893 1.396 . S
C894 C895 1.399 . S
C895 H881 0.929 . S
C895 C894 1.399 . S
C895 C896 1.385 . S
C896 H882 0.931 . S
C896 C895 1.385 . S
C896 C897 1.389 . S
C897 C896 1.389 . S
C897 C898 1.387 . S
C898 H883 0.930 . S
C898 C893 1.390 . S
C898 C897 1.387 . S
H899 C911 0.930 . S
H900 C913 0.930 . S
H901 C914 0.930 . S
H902 C918 0.959 . S
H903 C918 0.959 . S
H904 C918 0.961 . S
H905 C919 0.960 . S
H906 C919 0.961 . S
H907 C919 0.959 . S
H908 C922 0.929 . S
H909 C923 0.931 . S
H910 C925 0.930 . S
C911 H899 0.930 . S
C911 C912 1.399 . S
C911 C916 1.399 . S
C912 C911 1.399 . S
C912 C913 1.376 . S
C913 H900 0.930 . S
C913 C912 1.376 . S
C913 C914 1.388 . S
C914 H901 0.930 . S
C914 C913 1.388 . S
C914 C915 1.390 . S
C915 C914 1.390 . S
C915 C916 1.394 . S
C915 C921 1.465 . S
C916 C911 1.399 . S
C916 C915 1.394 . S
C916 C917 1.516 . S
C917 C916 1.516 . S
C917 C918 1.502 . S
C917 C919 1.561 . S
C917 C920 1.526 . S
C918 H902 0.959 . S
C918 H903 0.959 . S
C918 H904 0.961 . S
C918 C917 1.502 . S
C919 H905 0.960 . S
C919 H906 0.961 . S
C919 H907 0.959 . S
C919 C917 1.561 . S
C920 C917 1.526 . S
C920 C921 1.396 . S
C920 C925 1.390 . S
C921 C915 1.465 . S
C921 C920 1.396 . S
C921 C922 1.399 . S
C922 H908 0.929 . S
C922 C921 1.399 . S
C922 C923 1.385 . S
C923 H909 0.931 . S
C923 C922 1.385 . S
C923 C924 1.389 . S
C924 C923 1.389 . S
C924 C925 1.387 . S
C925 H910 0.930 . S
C925 C920 1.390 . S
C925 C924 1.387 . S
H926 C938 0.930 . S
H927 C940 0.930 . S
H928 C941 0.930 . S
H929 C945 0.959 1_455 S
H930 C945 0.959 . S
H931 C945 0.961 . S
H932 C946 0.960 . S
H933 C946 0.961 . S
H934 C946 0.959 . S
H935 C949 0.929 . S
H936 C950 0.931 . S
H937 C952 0.930 . S
C938 H926 0.930 . S
C938 C939 1.399 . S
C938 C943 1.399 . S
C939 C938 1.399 . S
C939 C940 1.376 . S
C940 H927 0.930 . S
C940 C939 1.376 . S
C940 C941 1.388 . S
C941 H928 0.930 . S
C941 C940 1.388 . S
C941 C942 1.390 . S
C942 C941 1.390 . S
C942 C943 1.394 . S
C942 C948 1.465 . S
C943 C938 1.399 . S
C943 C942 1.394 . S
C943 C944 1.516 . S
C944 C943 1.516 . S
C944 C945 1.502 . S
C944 C946 1.561 . S
C944 C947 1.526 . S
C945 H929 0.959 1_655 S
C945 H930 0.959 . S
C945 H931 0.961 . S
C945 C944 1.502 . S
C946 H932 0.960 . S
C946 H933 0.961 . S
C946 H934 0.959 . S
C946 C944 1.561 . S
C947 C944 1.526 . S
C947 C948 1.396 . S
C947 C952 1.390 . S
C948 C942 1.465 . S
C948 C947 1.396 . S
C948 C949 1.399 . S
C949 H935 0.929 . S
C949 C948 1.399 . S
C949 C950 1.385 . S
C950 H936 0.931 . S
C950 C949 1.385 . S
C950 C951 1.389 . S
C951 C950 1.389 . S
C951 C952 1.387 . S
C952 H937 0.930 . S
C952 C947 1.390 . S
C952 C951 1.387 . S
H953 C965 0.930 . S
H954 C967 0.930 . S
H955 C968 0.930 . S
H956 C972 0.959 . S
H957 C972 0.959 . S
H958 C972 0.961 . S
H959 C973 0.960 . S
H960 C973 0.961 . S
H961 C973 0.959 . S
H962 C976 0.929 . S
H963 C977 0.931 . S
H964 C979 0.930 . S
C965 H953 0.930 . S
C965 C966 1.399 . S
C965 C970 1.399 . S
C966 C965 1.399 . S
C966 C967 1.376 . S
C967 H954 0.930 . S
C967 C966 1.376 . S
C967 C968 1.388 . S
C968 H955 0.930 . S
C968 C967 1.388 . S
C968 C969 1.390 . S
C969 C968 1.390 . S
C969 C970 1.394 . S
C969 C975 1.465 . S
C970 C965 1.399 . S
C970 C969 1.394 . S
C970 C971 1.516 . S
C971 C970 1.516 . S
C971 C972 1.502 . S
C971 C973 1.561 . S
C971 C974 1.526 . S
C972 H956 0.959 . S
C972 H957 0.959 . S
C972 H958 0.961 . S
C972 C971 1.502 . S
C973 H959 0.960 . S
C973 H960 0.961 . S
C973 H961 0.959 . S
C973 C971 1.561 . S
C974 C971 1.526 . S
C974 C975 1.396 . S
C974 C979 1.390 . S
C975 C969 1.465 . S
C975 C974 1.396 . S
C975 C976 1.399 . S
C976 H962 0.929 . S
C976 C975 1.399 . S
C976 C977 1.385 . S
C977 H963 0.931 . S
C977 C976 1.385 . S
C977 C978 1.389 . S
C978 C977 1.389 . S
C978 C979 1.387 . S
C979 H964 0.930 . S
C979 C974 1.390 . S
C979 C978 1.387 . S
H980 C992 0.930 . S
H981 C994 0.930 . S
H982 C995 0.930 . S
H983 C999 0.959 . S
H984 C999 0.959 . S
H985 C999 0.961 . S
H986 C1000 0.960 . S
H987 C1000 0.961 . S
H988 C1000 0.959 . S
H989 C1003 0.929 . S
H990 C1004 0.931 . S
H991 C1006 0.930 . S
C992 H980 0.930 . S
C992 C993 1.399 . S
C992 C997 1.399 . S
C993 C992 1.399 . S
C993 C994 1.376 . S
C994 H981 0.930 . S
C994 C993 1.376 . S
C994 C995 1.388 . S
C995 H982 0.930 . S
C995 C994 1.388 . S
C995 C996 1.390 . S
C996 C995 1.390 . S
C996 C997 1.394 . S
C996 C1002 1.465 . S
C997 C992 1.399 . S
C997 C996 1.394 . S
C997 C998 1.516 . S
C998 C997 1.516 . S
C998 C999 1.502 . S
C998 C1000 1.561 . S
C998 C1001 1.526 . S
C999 H983 0.959 . S
C999 H984 0.959 . S
C999 H985 0.961 . S
C999 C998 1.502 . S
C1000 H986 0.960 . S
C1000 H987 0.961 . S
C1000 H988 0.959 . S
C1000 C998 1.561 . S
C1001 C998 1.526 . S
C1001 C1002 1.396 . S
C1001 C1006 1.390 . S
C1002 C996 1.465 . S
C1002 C1001 1.396 . S
C1002 C1003 1.399 . S
C1003 H989 0.929 . S
C1003 C1002 1.399 . S
C1003 C1004 1.385 . S
C1004 H990 0.931 . S
C1004 C1003 1.385 . S
C1004 C1005 1.389 . S
C1005 C1004 1.389 . S
C1005 C1006 1.387 . S
C1006 H991 0.930 . S
C1006 C1001 1.390 . S
C1006 C1005 1.387 . S
H1007 C1019 0.930 . S
H1008 C1021 0.930 . S
H1009 C1022 0.930 . S
H1010 C1026 0.959 . S
H1011 C1026 0.959 . S
H1012 C1026 0.961 . S
H1013 C1027 0.960 . S
H1014 C1027 0.961 . S
H1015 C1027 0.959 . S
H1016 C1030 0.929 . S
H1017 C1031 0.931 . S
H1018 C1033 0.930 . S
C1019 H1007 0.930 . S
C1019 C1020 1.399 . S
C1019 C1024 1.399 . S
C1020 C1019 1.399 . S
C1020 C1021 1.376 . S
C1021 H1008 0.930 . S
C1021 C1020 1.376 . S
C1021 C1022 1.388 . S
C1022 H1009 0.930 . S
C1022 C1021 1.388 . S
C1022 C1023 1.390 . S
C1023 C1022 1.390 . S
C1023 C1024 1.394 . S
C1023 C1029 1.465 . S
C1024 C1019 1.399 . S
C1024 C1023 1.394 . S
C1024 C1025 1.516 . S
C1025 C1024 1.516 . S
C1025 C1026 1.502 . S
C1025 C1027 1.561 . S
C1025 C1028 1.526 . S
C1026 H1010 0.959 . S
C1026 H1011 0.959 . S
C1026 H1012 0.961 . S
C1026 C1025 1.502 . S
C1027 H1013 0.960 . S
C1027 H1014 0.961 . S
C1027 H1015 0.959 . S
C1027 C1025 1.561 . S
C1028 C1025 1.526 . S
C1028 C1029 1.396 . S
C1028 C1033 1.390 . S
C1029 C1023 1.465 . S
C1029 C1028 1.396 . S
C1029 C1030 1.399 . S
C1030 H1016 0.929 . S
C1030 C1029 1.399 . S
C1030 C1031 1.385 . S
C1031 H1017 0.931 . S
C1031 C1030 1.385 . S
C1031 C1032 1.389 . S
C1032 C1031 1.389 . S
C1032 C1033 1.387 . S
C1033 H1018 0.930 . S
C1033 C1028 1.390 . S
C1033 C1032 1.387 . S
H1034 C1046 0.930 . S
H1035 C1048 0.930 . S
H1036 C1049 0.930 . S
H1037 C1053 0.959 . S
H1038 C1053 0.959 . S
H1039 C1053 0.961 . S
H1040 C1054 0.960 . S
H1041 C1054 0.961 . S
H1042 C1054 0.959 . S
H1043 C1057 0.929 . S
H1044 C1058 0.931 . S
H1045 C1060 0.930 . S
C1046 H1034 0.930 . S
C1046 C1047 1.399 . S
C1046 C1051 1.399 . S
C1047 C1046 1.399 . S
C1047 C1048 1.376 . S
C1048 H1035 0.930 . S
C1048 C1047 1.376 . S
C1048 C1049 1.388 . S
C1049 H1036 0.930 . S
C1049 C1048 1.388 . S
C1049 C1050 1.390 . S
C1050 C1049 1.390 . S
C1050 C1051 1.394 . S
C1050 C1056 1.465 . S
C1051 C1046 1.399 . S
C1051 C1050 1.394 . S
C1051 C1052 1.516 . S
C1052 C1051 1.516 . S
C1052 C1053 1.502 . S
C1052 C1054 1.561 . S
C1052 C1055 1.526 . S
C1053 H1037 0.959 . S
C1053 H1038 0.959 . S
C1053 H1039 0.961 . S
C1053 C1052 1.502 . S
C1054 H1040 0.960 . S
C1054 H1041 0.961 . S
C1054 H1042 0.959 . S
C1054 C1052 1.561 . S
C1055 C1052 1.526 . S
C1055 C1056 1.396 . S
C1055 C1060 1.390 . S
C1056 C1050 1.465 . S
C1056 C1055 1.396 . S
C1056 C1057 1.399 . S
C1057 H1043 0.929 . S
C1057 C1056 1.399 . S
C1057 C1058 1.385 . S
C1058 H1044 0.931 . S
C1058 C1057 1.385 . S
C1058 C1059 1.389 . S
C1059 C1058 1.389 . S
C1059 C1060 1.387 . S
C1060 H1045 0.930 . S
C1060 C1055 1.390 . S
C1060 C1059 1.387 . S
H1061 C1073 0.930 . S
H1062 C1075 0.930 . S
H1063 C1076 0.930 . S
H1064 C1080 0.959 1_545 S
H1065 C1080 0.959 . S
H1066 C1080 0.961 . S
H1067 C1081 0.960 . S
H1068 C1081 0.961 . S
H1069 C1081 0.959 . S
H1070 C1084 0.929 . S
H1071 C1085 0.931 . S
H1072 C1087 0.930 . S
C1073 H1061 0.930 . S
C1073 C1074 1.399 . S
C1073 C1078 1.399 . S
C1074 C1073 1.399 . S
C1074 C1075 1.376 . S
C1075 H1062 0.930 . S
C1075 C1074 1.376 . S
C1075 C1076 1.388 . S
C1076 H1063 0.930 . S
C1076 C1075 1.388 . S
C1076 C1077 1.390 . S
C1077 C1076 1.390 . S
C1077 C1078 1.394 . S
C1077 C1083 1.465 . S
C1078 C1073 1.399 . S
C1078 C1077 1.394 . S
C1078 C1079 1.516 . S
C1079 C1078 1.516 . S
C1079 C1080 1.502 1_545 S
C1079 C1081 1.561 1_545 S
C1079 C1082 1.526 . S
C1080 H1064 0.959 1_565 S
C1080 H1065 0.959 . S
C1080 H1066 0.961 . S
C1080 C1079 1.502 1_565 S
C1081 H1067 0.960 . S
C1081 H1068 0.961 . S
C1081 H1069 0.959 . S
C1081 C1079 1.561 1_565 S
C1082 C1079 1.526 . S
C1082 C1083 1.396 . S
C1082 C1087 1.390 . S
C1083 C1077 1.465 . S
C1083 C1082 1.396 . S
C1083 C1084 1.399 . S
C1084 H1070 0.929 . S
C1084 C1083 1.399 . S
C1084 C1085 1.385 . S
C1085 H1071 0.931 . S
C1085 C1084 1.385 . S
C1085 C1086 1.389 . S
C1086 C1085 1.389 . S
C1086 C1087 1.387 . S
C1087 H1072 0.930 . S
C1087 C1082 1.390 . S
C1087 C1086 1.387 . S
C237 C9 1.106 . S
C249 C134 1.105 . S
C264 C148 1.113 . S
C276 C23 1.149 . S
C291 C162 1.142 . S
C303 C37 1.042 . S
C318 C120 1.108 . S
C330 C51 1.144 . S
C345 C65 1.049 . S
C357 C218 1.153 . S
C372 C176 1.158 . S
C384 C79 1.070 . S
C399 C190 1.152 . S
C411 C93 1.112 . S
C426 C204 1.158 . S
C438 C107 1.074 . S
C453 C121 1.041 . S
C465 C22 1.128 . S
C480 C135 1.063 . S
C492 C36 1.107 . S
C507 C149 1.152 . S
C519 C50 1.139 . S
C534 C8 1.115 . S
C546 C163 1.047 . S
C561 C177 1.152 . S
C573 C106 1.135 . S
C588 C191 1.140 . S
C600 C64 1.118 . S
C615 C78 1.103 . S
C627 C205 1.084 . S
C642 C219 1.099 . S
C654 C92 1.157 . S
C669 C118 1.569 . S
C681 C6 1.644 . S
C696 C20 1.647 . S
C708 C132 1.564 . S
C723 C146 1.563 . S
C735 C34 1.646 . S
C750 C48 1.574 . S
C762 C160 1.624 . S
C777 C174 1.635 . S
C789 C62 1.566 . S
C804 C76 1.568 . S
C816 C188 1.645 . S
C831 C202 1.561 . S
C843 C90 1.646 . S
C858 C216 1.623 . S
C870 C104 1.575 . S
C885 C63 1.539 . S
C897 C7 1.566 . S
C912 C77 1.560 . S
C924 C21 1.536 . S
C939 C35 1.539 . S
C951 C91 1.566 . S
C966 C105 1.572 . S
C978 C49 1.599 . S
C993 C119 1.590 . S
C1005 C175 1.594 . S
C1020 C189 1.601 . S
C1032 C133 1.597 . S
C1047 C203 1.597 . S
C1059 C147 1.600 . S
C1074 C217 1.537 . S
C1086 C161 1.541 . S
