# Generated by pormake.
# Topology lcy-e, (6)-cn, num edge types: 1
# Building blocks:
#     Node 0, Type 0, BuildingBlock: JUFBIX_clean_sbu_0, # of connection points: 6
#     Node 1, Type 0, BuildingBlock: JUFBIX_clean_sbu_0, # of connection points: 6
#     Node 2, Type 0, BuildingBlock: JUFBIX_clean_sbu_0, # of connection points: 6
#     Node 3, Type 0, BuildingBlock: JUFBIX_clean_sbu_0, # of connection points: 6
#     Node 4, Type 0, BuildingBlock: JUFBIX_clean_sbu_0, # of connection points: 6
#     Node 5, Type 0, BuildingBlock: JUFBIX_clean_sbu_0, # of connection points: 6
#     Node 6, Type 0, BuildingBlock: JUFBIX_clean_sbu_0, # of connection points: 6
#     Node 7, Type 0, BuildingBlock: JUFBIX_clean_sbu_0, # of connection points: 6
#     Node 8, Type 0, BuildingBlock: JUFBIX_clean_sbu_0, # of connection points: 6
#     Node 9, Type 0, BuildingBlock: JUFBIX_clean_sbu_0, # of connection points: 6
#     Node 10, Type 0, BuildingBlock: JUFBIX_clean_sbu_0, # of connection points: 6
#     Node 11, Type 0, BuildingBlock: JUFBIX_clean_sbu_0, # of connection points: 6
#     Edge 12, Type (0, 0), BuildingBlock: UVAHIK_clean_linker_0, # of connection points: 2
#     Edge 13, Type (0, 0), BuildingBlock: UVAHIK_clean_linker_0, # of connection points: 2
#     Edge 14, Type (0, 0), BuildingBlock: UVAHIK_clean_linker_0, # of connection points: 2
#     Edge 15, Type (0, 0), BuildingBlock: UVAHIK_clean_linker_0, # of connection points: 2
#     Edge 16, Type (0, 0), BuildingBlock: UVAHIK_clean_linker_0, # of connection points: 2
#     Edge 17, Type (0, 0), BuildingBlock: UVAHIK_clean_linker_0, # of connection points: 2
#     Edge 18, Type (0, 0), BuildingBlock: UVAHIK_clean_linker_0, # of connection points: 2
#     Edge 19, Type (0, 0), BuildingBlock: UVAHIK_clean_linker_0, # of connection points: 2
#     Edge 20, Type (0, 0), BuildingBlock: UVAHIK_clean_linker_0, # of connection points: 2
#     Edge 21, Type (0, 0), BuildingBlock: UVAHIK_clean_linker_0, # of connection points: 2
#     Edge 22, Type (0, 0), BuildingBlock: UVAHIK_clean_linker_0, # of connection points: 2
#     Edge 23, Type (0, 0), BuildingBlock: UVAHIK_clean_linker_0, # of connection points: 2
#     Edge 24, Type (0, 0), BuildingBlock: UVAHIK_clean_linker_0, # of connection points: 2
#     Edge 25, Type (0, 0), BuildingBlock: UVAHIK_clean_linker_0, # of connection points: 2
#     Edge 26, Type (0, 0), BuildingBlock: UVAHIK_clean_linker_0, # of connection points: 2
#     Edge 27, Type (0, 0), BuildingBlock: UVAHIK_clean_linker_0, # of connection points: 2
#     Edge 28, Type (0, 0), BuildingBlock: UVAHIK_clean_linker_0, # of connection points: 2
#     Edge 29, Type (0, 0), BuildingBlock: UVAHIK_clean_linker_0, # of connection points: 2
#     Edge 30, Type (0, 0), BuildingBlock: UVAHIK_clean_linker_0, # of connection points: 2
#     Edge 31, Type (0, 0), BuildingBlock: UVAHIK_clean_linker_0, # of connection points: 2
#     Edge 32, Type (0, 0), BuildingBlock: UVAHIK_clean_linker_0, # of connection points: 2
#     Edge 33, Type (0, 0), BuildingBlock: UVAHIK_clean_linker_0, # of connection points: 2
#     Edge 34, Type (0, 0), BuildingBlock: UVAHIK_clean_linker_0, # of connection points: 2
#     Edge 35, Type (0, 0), BuildingBlock: UVAHIK_clean_linker_0, # of connection points: 2
#     Edge 36, Type (0, 0), BuildingBlock: UVAHIK_clean_linker_0, # of connection points: 2
#     Edge 37, Type (0, 0), BuildingBlock: UVAHIK_clean_linker_0, # of connection points: 2
#     Edge 38, Type (0, 0), BuildingBlock: UVAHIK_clean_linker_0, # of connection points: 2
#     Edge 39, Type (0, 0), BuildingBlock: UVAHIK_clean_linker_0, # of connection points: 2
#     Edge 40, Type (0, 0), BuildingBlock: UVAHIK_clean_linker_0, # of connection points: 2
#     Edge 41, Type (0, 0), BuildingBlock: UVAHIK_clean_linker_0, # of connection points: 2
#     Edge 42, Type (0, 0), BuildingBlock: UVAHIK_clean_linker_0, # of connection points: 2
#     Edge 43, Type (0, 0), BuildingBlock: UVAHIK_clean_linker_0, # of connection points: 2
#     Edge 44, Type (0, 0), BuildingBlock: UVAHIK_clean_linker_0, # of connection points: 2
#     Edge 45, Type (0, 0), BuildingBlock: UVAHIK_clean_linker_0, # of connection points: 2
#     Edge 46, Type (0, 0), BuildingBlock: UVAHIK_clean_linker_0, # of connection points: 2
#     Edge 47, Type (0, 0), BuildingBlock: UVAHIK_clean_linker_0, # of connection points: 2
# Relax obj value: 0.452
# Max RMSD: 0.335
# Mean RMSD: 0.290
data_MOF--net-lcy-e--node1-JUFBIX_clean_sbu_0--edge1-UVAHIK_clean_linker_0
_symmetry_space_group_name_H-M    P1
_symmetry_Int_Tables_number       1
_symmetry_cell_setting            triclinic
loop_
_symmetry_equiv_pos_as_xyz
'x, y, z'
_cell_length_a     46.884252
_cell_length_b     49.515568
_cell_length_c     46.794675
_cell_angle_alpha  88.175686
_cell_angle_beta   89.980671
_cell_angle_gamma 84.430356
loop_
_atom_site_label
_atom_site_type_symbol
_atom_site_fract_x
_atom_site_fract_y
_atom_site_fract_z
_atom_type_partial_charge
Co0 Co 0.15051 0.22835 0.44739 0.0
C1 C 0.09346 0.22838 0.46379 0.0
Co2 Co 0.12676 0.20006 0.42353 0.0
C3 C 0.18446 0.27196 0.45634 0.0
C4 C 0.16878 0.2566 0.49597 0.0
N5 N 0.16957 0.25233 0.46769 0.0
N6 N 0.19236 0.28898 0.47619 0.0
C7 C 0.18274 0.27915 0.50127 0.0
H8 H 0.18829 0.27431 0.43366 0.0
H9 H 0.15737 0.24505 0.51145 0.0
C10 C 0.18476 0.20017 0.4087 0.0
N11 N 0.10779 0.17666 0.40183 0.0
C12 C 0.0846 0.16336 0.40802 0.0
C13 C 0.11354 0.17154 0.37416 0.0
N14 N 0.0758 0.15015 0.38525 0.0
C15 C 0.09409 0.15524 0.364 0.0
C16 C 0.12552 0.25093 0.39732 0.0
O17 O 0.18474 0.21729 0.42824 0.0
O18 O 0.16148 0.1904 0.40267 0.0
O19 O 0.11597 0.22793 0.39627 0.0
O20 O 0.14131 0.25574 0.41824 0.0
O21 O 0.09256 0.20985 0.44561 0.0
H22 H 0.13012 0.18003 0.36169 0.0
H23 H 0.07408 0.1638 0.42861 0.0
O24 O 0.11643 0.23958 0.46681 0.0
O25 O 0.15946 0.20046 0.47606 0.0
O26 O 0.13763 0.17225 0.45028 0.0
C27 C 0.15203 0.17677 0.47229 0.0
H28 H 0.18386 0.28859 0.52173 0.0
H29 H 0.0927 0.14876 0.34222 0.0
Co30 Co 0.0353 0.86861 0.70236 0.0
C31 C 0.99543 0.90719 0.72312 0.0
Co32 Co 0.0479 0.90998 0.69521 0.0
C33 C 0.04135 0.81306 0.72189 0.0
C34 C 0.00245 0.82231 0.69826 0.0
N35 N 0.02583 0.83336 0.70738 0.0
N36 N 0.02854 0.78977 0.72271 0.0
C37 C 0.00403 0.79555 0.70765 0.0
H38 H 0.0612 0.81576 0.73267 0.0
H39 H 0.98505 0.83314 0.68615 0.0
C40 C 0.08625 0.8707 0.67285 0.0
N41 N 0.05801 0.94486 0.69054 0.0
C42 C 0.07264 0.95504 0.66862 0.0
C43 C 0.05398 0.96516 0.70905 0.0
N44 N 0.07814 0.98093 0.67262 0.0
C45 C 0.06622 0.98738 0.69807 0.0
C46 C 0.06988 0.88488 0.74559 0.0
O47 O 0.06892 0.85532 0.68396 0.0
O48 O 0.08153 0.89621 0.6752 0.0
O49 O 0.06881 0.90643 0.73006 0.0
O50 O 0.05538 0.86585 0.7382 0.0
O51 O 0.01351 0.92329 0.7147 0.0
H52 H 0.04321 0.96377 0.72941 0.0
H53 H 0.07962 0.94328 0.6504 0.0
O54 O 0.00123 0.88183 0.7204 0.0
O55 O 0.01585 0.87185 0.6664 0.0
O56 O 0.02773 0.9134 0.65998 0.0
C57 C 0.01537 0.89355 0.65105 0.0
H58 H 0.98789 0.78179 0.70424 0.0
H59 H 0.06618 0.00672 0.70818 0.0
Co60 Co 0.34218 0.77876 0.97211 0.0
C61 C 0.39906 0.76995 0.98891 0.0
Co62 Co 0.37171 0.79873 0.94324 0.0
C63 C 0.30242 0.74027 0.98824 0.0
C64 C 0.3162 0.76081 0.02452 0.0
N65 N 0.31804 0.76047 0.99579 0.0
N66 N 0.29163 0.72735 0.01106 0.0
C67 C 0.29999 0.74053 0.03395 0.0
H68 H 0.30017 0.73429 0.9664 0.0
H69 H 0.32753 0.77369 0.03787 0.0
C70 C 0.31388 0.80735 0.92721 0.0
N71 N 0.39612 0.81629 0.91936 0.0
C72 C 0.41817 0.83036 0.92669 0.0
C73 C 0.39554 0.81762 0.89056 0.0
N74 N 0.43135 0.84051 0.90358 0.0
C75 C 0.41709 0.83249 0.88081 0.0
C76 C 0.36322 0.74735 0.92672 0.0
O77 O 0.31051 0.79316 0.94983 0.0
O78 O 0.33909 0.81247 0.92 0.0
O79 O 0.37702 0.76759 0.92073 0.0
O80 O 0.34684 0.74813 0.94832 0.0
O81 O 0.40359 0.78506 0.96719 0.0
H82 H 0.38045 0.80829 0.87748 0.0
H83 H 0.42414 0.83341 0.94861 0.0
O84 O 0.37378 0.76423 0.99428 0.0
O85 O 0.33828 0.81015 0.9957 0.0
O86 O 0.36652 0.82942 0.96551 0.0
C87 C 0.35167 0.83044 0.98818 0.0
H88 H 0.29655 0.73469 0.05607 0.0
H89 H 0.42208 0.83672 0.85864 0.0
Co90 Co 0.48514 0.13441 0.21835 0.0
C91 C 0.50398 0.07994 0.22767 0.0
Co92 Co 0.45813 0.1065 0.19771 0.0
C93 C 0.49902 0.17753 0.25312 0.0
C94 C 0.53706 0.15608 0.2368 0.0
N95 N 0.50825 0.15731 0.23574 0.0
N96 N 0.5208 0.18868 0.26561 0.0
C97 C 0.54485 0.17536 0.25516 0.0
H98 H 0.47658 0.18338 0.25714 0.0
H99 H 0.55142 0.14134 0.22599 0.0
C100 C 0.44071 0.16164 0.18809 0.0
N101 N 0.43331 0.08422 0.18158 0.0
C102 C 0.43806 0.061 0.16713 0.0
C103 C 0.40456 0.08812 0.18448 0.0
N104 N 0.41332 0.05022 0.16146 0.0
C105 C 0.39229 0.06726 0.1723 0.0
C106 C 0.4402 0.12084 0.25244 0.0
O107 O 0.46276 0.16466 0.20282 0.0
O108 O 0.43421 0.13779 0.18358 0.0
O109 O 0.43615 0.10587 0.23166 0.0
O110 O 0.46116 0.13521 0.25141 0.0
O111 O 0.48306 0.07557 0.2116 0.0
H112 H 0.39321 0.10488 0.19531 0.0
H113 H 0.45916 0.05181 0.16163 0.0
O114 O 0.5077 0.10411 0.2339 0.0
O115 O 0.50865 0.13345 0.18468 0.0
O116 O 0.47976 0.10744 0.164 0.0
C117 C 0.50171 0.12064 0.16291 0.0
H118 H 0.56652 0.17824 0.26149 0.0
H119 H 0.36961 0.06482 0.17136 0.0
Co120 Co 0.629 0.33313 0.5314 0.0
C121 C 0.57513 0.32655 0.51063 0.0
Co122 Co 0.5941 0.34721 0.56069 0.0
C123 C 0.6781 0.29934 0.51397 0.0
C124 C 0.66054 0.32405 0.47875 0.0
N125 N 0.6581 0.31998 0.50724 0.0
N126 N 0.69203 0.28938 0.4908 0.0
C127 C 0.68142 0.30521 0.46857 0.0
H128 H 0.68092 0.29036 0.53529 0.0
H129 H 0.6464 0.33813 0.46592 0.0
C130 C 0.6489 0.35305 0.58095 0.0
N131 N 0.56523 0.35934 0.58536 0.0
C132 C 0.53993 0.37367 0.57911 0.0
C133 C 0.56473 0.35457 0.61387 0.0
N134 N 0.52357 0.378 0.60262 0.0
C135 C 0.5392 0.36601 0.62453 0.0
C136 C 0.61328 0.29347 0.57056 0.0
O137 O 0.65622 0.343 0.55715 0.0
O138 O 0.62242 0.35694 0.58719 0.0
O139 O 0.59515 0.31239 0.57847 0.0
O140 O 0.63007 0.29815 0.55014 0.0
O141 O 0.56628 0.33727 0.53375 0.0
H142 H 0.5817 0.34315 0.62605 0.0
H143 H 0.53378 0.38088 0.55771 0.0
O144 O 0.60176 0.32294 0.50562 0.0
O145 O 0.62741 0.36841 0.51322 0.0
O146 O 0.59318 0.38201 0.54307 0.0
C147 C 0.60971 0.38725 0.52252 0.0
H148 H 0.68634 0.30176 0.4463 0.0
H149 H 0.53251 0.36508 0.64664 0.0
Co150 Co 0.96023 0.38926 0.7386 0.0
C151 C 0.9672 0.34012 0.71093 0.0
Co152 Co 0.94946 0.3543 0.76578 0.0
C153 C 0.98781 0.43644 0.72141 0.0
C154 C 0.95974 0.42514 0.68874 0.0
N155 N 0.96924 0.41819 0.7154 0.0
N156 N 0.99049 0.45443 0.69954 0.0
C157 C 0.97273 0.44744 0.67895 0.0
H158 H -0.00073 0.43642 0.74148 0.0
H159 H 0.94482 0.41434 0.67697 0.0
C160 C 0.9431 0.40474 0.79221 0.0
N161 N 0.94084 0.32543 0.78985 0.0
C162 C 0.92269 0.30614 0.78616 0.0
C163 C 0.95169 0.32022 0.81635 0.0
N164 N 0.92198 0.28906 0.80931 0.0
C165 C 0.94028 0.29797 0.82827 0.0
C166 C 0.00614 0.36524 0.77033 0.0
O167 O 0.95106 0.413 0.76789 0.0
O168 O 0.94046 0.37952 0.79651 0.0
O169 O 0.9879 0.34922 0.77816 0.0
O170 O 0.99879 0.38437 0.75232 0.0
O171 O 0.95856 0.32994 0.73445 0.0
H172 H 0.96665 0.33215 0.82661 0.0
H173 H 0.91024 0.30472 0.76688 0.0
O174 O 0.9696 0.36543 0.70901 0.0
O175 O 0.92123 0.39399 0.72558 0.0
O176 O 0.91128 0.35968 0.75348 0.0
C177 C 0.90312 0.37856 0.73547 0.0
H178 H 0.97006 0.45712 0.65792 0.0
H179 H 0.94453 0.28953 0.84963 0.0
Co180 Co 0.9065 0.66868 0.01435 0.0
C181 C 0.85523 0.69601 0.99562 0.0
Co182 Co 0.86832 0.65121 0.03154 0.0
C183 C 0.95767 0.67197 0.981 0.0
C184 C 0.94686 0.70851 0.00339 0.0
N185 N 0.93851 0.68352 -0.00042 0.0
N186 N 0.97726 0.68877 0.97272 0.0
C187 C 0.97071 0.71176 0.98691 0.0
H188 H 0.95686 0.65188 0.9728 0.0
H189 H 0.93563 0.72387 0.01625 0.0
C190 C 0.91995 0.62539 0.05141 0.0
N191 N 0.83723 0.63531 0.04632 0.0
C192 C 0.81767 0.64524 0.06536 0.0
C193 C 0.83224 0.60912 0.04365 0.0
N194 N 0.80101 0.62616 0.07501 0.0
C195 C 0.80997 0.60349 0.06113 0.0
C196 C 0.88838 0.62741 0.9816 0.0
O197 O 0.93052 0.6436 0.03626 0.0
O198 O 0.893 0.62436 0.05175 0.0
O199 O 0.86835 0.6283 -0.00019 0.0
O200 O 0.9075 0.64372 0.9837 0.0
O201 O 0.84389 0.67868 0.0116 0.0
H202 H 0.84516 0.59448 0.03129 0.0
H203 H 0.81653 0.66572 0.07295 0.0
O204 O 0.8823 0.69418 0.99274 0.0
O205 O 0.90495 0.69314 0.04522 0.0
O206 O 0.86845 0.67415 0.06331 0.0
C207 C 0.88621 0.69186 0.06472 0.0
H208 H 0.98115 0.73022 0.98404 0.0
H209 H 0.80243 0.5837 0.06487 0.0
Co210 Co 0.52502 0.62705 0.28838 0.0
C211 C 0.51851 0.67179 0.25122 0.0
Co212 Co 0.53779 0.66413 0.3074 0.0
C213 C 0.49815 0.5783 0.2846 0.0
C214 C 0.52416 0.58436 0.2478 0.0
N215 N 0.51535 0.59566 0.27253 0.0
N216 N 0.49569 0.55663 0.26846 0.0
C217 C 0.51207 0.56026 0.24524 0.0
H218 H 0.48769 0.58147 0.30502 0.0
H219 H 0.5383 0.59314 0.23261 0.0
C220 C 0.54415 0.61843 0.34379 0.0
N221 N 0.54744 0.69504 0.32463 0.0
C222 C 0.56868 0.71059 0.3179 0.0
C223 C 0.53656 0.70476 0.34938 0.0
N224 N 0.5717 0.72942 0.33765 0.0
C225 C 0.55133 0.7259 0.35737 0.0
C226 C 0.48076 0.65558 0.31626 0.0
O227 O 0.53459 0.6074 0.32223 0.0
O228 O 0.54768 0.64357 0.34234 0.0
O229 O 0.49987 0.67146 0.32034 0.0
O230 O 0.48696 0.63452 0.30191 0.0
O231 O 0.52808 0.68427 0.27209 0.0
H232 H 0.51996 0.69612 0.3617 0.0
H233 H 0.58229 0.70752 0.29938 0.0
O234 O 0.51534 0.64669 0.25436 0.0
O235 O 0.5631 0.61972 0.27517 0.0
O236 O 0.57561 0.65655 0.29447 0.0
C237 C 0.58217 0.63548 0.28026 0.0
H238 H 0.5144 0.54693 0.22733 0.0
H239 H 0.54844 0.73666 0.37709 0.0
Co240 Co 0.21976 0.43611 0.12443 0.0
C241 C 0.22736 0.45949 0.07119 0.0
Co242 Co 0.20207 0.41348 0.08997 0.0
C243 C 0.25088 0.44421 0.17488 0.0
C244 C 0.23097 0.48202 0.15784 0.0
N245 N 0.23369 0.45511 0.15362 0.0
N246 N 0.25966 0.46317 0.19199 0.0
C247 C 0.24699 0.48706 0.18142 0.0
H248 H 0.25747 0.4227 0.17717 0.0
H249 H 0.21907 0.49702 0.14403 0.0
C250 C 0.19443 0.39152 0.14464 0.0
N251 N 0.18884 0.39308 0.06127 0.0
C252 C 0.17475 0.40063 0.03669 0.0
C253 C 0.19328 0.3658 0.06075 0.0
N254 N 0.17023 0.379 0.0209 0.0
C255 C 0.18195 0.35712 0.03609 0.0
C256 C 0.2587 0.39619 0.10401 0.0
O257 O 0.20697 0.41187 0.1514 0.0
O258 O 0.19019 0.38748 0.11833 0.0
O259 O 0.23821 0.39331 0.0871 0.0
O260 O 0.25546 0.41439 0.12253 0.0
O261 O 0.21359 0.44041 0.06224 0.0
H262 H 0.20459 0.353 0.07708 0.0
H263 H 0.16798 0.42153 0.03058 0.0
O264 O 0.23272 0.46061 0.09763 0.0
O265 O 0.1837 0.45744 0.12622 0.0
O266 O 0.16613 0.43315 0.0931 0.0
C267 C 0.16269 0.45197 0.11095 0.0
H268 H 0.25039 0.5069 0.18905 0.0
H269 H 0.18297 0.33627 0.02959 0.0
Co270 Co 0.71462 0.03268 0.89453 0.0
C271 C 0.73009 0.01677 0.83933 0.0
Co272 Co 0.68807 0.05309 0.86 0.0
C273 C 0.74156 0.98544 0.92199 0.0
C274 C 0.75082 0.02008 0.94516 0.0
N275 N 0.73725 0.01276 0.92165 0.0
N276 N 0.75686 0.97515 0.94485 0.0
C277 C 0.76303 0.99691 0.95947 0.0
H278 H 0.73336 0.97329 0.90564 0.0
H279 H 0.75122 0.04076 0.9518 0.0
C280 C 0.67345 0.06863 0.91607 0.0
N281 N 0.66426 0.07146 0.83288 0.0
C282 C 0.67068 0.08463 0.80836 0.0
C283 C 0.63541 0.07408 0.8341 0.0
N284 N 0.64686 0.09542 0.79425 0.0
C285 C 0.62468 0.08868 0.81045 0.0
C286 C 0.66621 0.00658 0.88074 0.0
O287 O 0.69534 0.05274 0.92311 0.0
O288 O 0.66615 0.07135 0.88984 0.0
O289 O 0.66344 0.02511 0.86139 0.0
O290 O 0.68704 0.00621 0.89815 0.0
O291 O 0.71045 0.03471 0.83067 0.0
H292 H 0.62292 0.06578 0.8511 0.0
H293 H 0.69239 0.08653 0.80127 0.0
O294 O 0.73407 0.01267 0.86595 0.0
O295 O 0.74168 0.05964 0.89056 0.0
O296 O 0.71274 0.08098 0.85852 0.0
C297 C 0.73576 0.07974 0.87306 0.0
H298 H 0.77474 0.99616 0.97945 0.0
H299 H 0.60221 0.09361 0.80547 0.0
Co300 Co 0.8014 0.962 0.37647 0.0
C301 C 0.7744 0.97031 0.32355 0.0
Co302 Co 0.82539 0.94182 0.34117 0.0
C303 C 0.78986 0.00109 0.41982 0.0
C304 C 0.75287 0.98059 0.41122 0.0
N305 N 0.78095 0.98054 0.40498 0.0
N306 N 0.76834 0.01474 0.43412 0.0
C307 C 0.74506 0.0016 0.42915 0.0
H308 H 0.8114 0.00713 0.41866 0.0
H309 H 0.7385 0.96769 0.40152 0.0
C310 C 0.85099 0.93338 0.39527 0.0
N311 N 0.84642 0.92388 0.31266 0.0
C312 C 0.83843 0.90608 0.29357 0.0
C313 C 0.8745 0.92561 0.30759 0.0
N314 N 0.86048 0.89675 0.27674 0.0
C315 C 0.88315 0.90908 0.28558 0.0
C316 C 0.84097 0.99306 0.34991 0.0
O317 O 0.8285 0.94729 0.4034 0.0
O318 O 0.85464 0.92896 0.36879 0.0
O319 O 0.84483 0.97315 0.33351 0.0
O320 O 0.82284 0.99218 0.36993 0.0
O321 O 0.79543 0.9548 0.31419 0.0
H322 H 0.888 0.93777 0.31951 0.0
H323 H 0.8169 0.90009 0.29213 0.0
O324 O 0.77408 0.9765 0.34965 0.0
O325 O 0.78038 0.93161 0.38243 0.0
O326 O 0.806 0.91069 0.34902 0.0
C327 C 0.7863 0.91069 0.36768 0.0
H328 H 0.72344 0.00819 0.43577 0.0
H329 H 0.90474 0.9058 0.27734 0.0
Co330 Co 0.24203 0.60491 0.56546 0.0
C331 C 0.21398 0.60708 0.61752 0.0
Co332 Co 0.26738 0.62013 0.60008 0.0
C333 C 0.23003 0.56975 0.5211 0.0
C334 C 0.19354 0.59781 0.52927 0.0
N335 N 0.221 0.59096 0.53718 0.0
N336 N 0.20928 0.56264 0.50376 0.0
C337 C 0.1862 0.5803 0.50879 0.0
H338 H 0.25105 0.55874 0.52331 0.0
H339 H 0.17951 0.61382 0.53856 0.0
C340 C 0.29442 0.61771 0.54702 0.0
N341 N 0.28897 0.63439 0.62783 0.0
C342 C 0.29382 0.62591 0.65526 0.0
C343 C 0.30411 0.65601 0.62406 0.0
N344 N 0.31157 0.64136 0.66868 0.0
C345 C 0.31798 0.66034 0.64907 0.0
C346 C 0.27716 0.56508 0.59614 0.0
O347 O 0.27163 0.60808 0.53963 0.0
O348 O 0.29731 0.62475 0.57267 0.0
O349 O 0.28419 0.58521 0.60966 0.0
O350 O 0.25855 0.56893 0.57628 0.0
O351 O 0.237 0.61526 0.627 0.0
H352 H 0.30491 0.66796 0.60436 0.0
H353 H 0.28475 0.60858 0.66503 0.0
O354 O 0.21202 0.60173 0.59132 0.0
O355 O 0.22634 0.64091 0.55483 0.0
O356 O 0.25076 0.65517 0.59032 0.0
C357 C 0.23391 0.66035 0.56925 0.0
H358 H 0.16528 0.58002 0.4991 0.0
H359 H 0.33125 0.67662 0.65268 0.0
C360 C 0.20012 0.32821 0.44393 0.0
C361 C 0.2033 0.31494 0.47098 0.0
C362 C 0.20691 0.35487 0.43992 0.0
C363 C 0.24134 0.41037 0.47384 0.0
H364 H 0.17995 0.45632 0.4361 0.0
C365 C 0.23691 0.52608 0.47807 0.0
C366 C 0.2105 0.53806 0.48803 0.0
C367 C 0.23928 0.49977 0.46791 0.0
C368 C 0.19737 0.44376 0.44652 0.0
H369 H 0.2184 0.31877 0.51433 0.0
H370 H 0.22929 0.36556 0.50759 0.0
H371 H 0.18029 0.40721 0.43491 0.0
H372 H 0.16545 0.53255 0.49316 0.0
H373 H 0.1695 0.48676 0.47546 0.0
H374 H 0.25736 0.44698 0.48701 0.0
C375 C 0.22176 0.35523 0.48941 0.0
C376 C 0.19776 0.41559 0.44559 0.0
C377 C 0.21513 0.32848 0.4934 0.0
C378 C 0.18606 0.52401 0.4855 0.0
C379 C 0.18841 0.49771 0.47532 0.0
C380 C 0.24092 0.43856 0.47479 0.0
C381 C 0.21689 0.36898 0.46283 0.0
C382 C 0.21927 0.39859 0.45998 0.0
C383 C 0.21523 0.48496 0.4674 0.0
C384 C 0.21842 0.45552 0.46189 0.0
H385 H 0.19105 0.31869 0.42605 0.0
H386 H 0.20337 0.36475 0.41906 0.0
H387 H 0.2584 0.3978 0.48479 0.0
H388 H 0.256 0.53668 0.47918 0.0
H389 H 0.26012 0.49064 0.46144 0.0
C390 C 0.76661 0.97848 0.83004 0.0
C391 C 0.75038 0.0021 0.8197 0.0
C392 C 0.78992 0.96704 0.81473 0.0
C393 C 0.84317 0.98605 0.76183 0.0
H394 H 0.86818 0.90931 0.77037 0.0
C395 C 0.96108 0.94416 0.74274 0.0
C396 C 0.96655 0.91775 0.73271 0.0
C397 C 0.93318 0.95422 0.7502 0.0
C398 C 0.86153 0.93074 0.7672 0.0
H399 H 0.74475 0.03135 0.78427 0.0
H400 H 0.78544 0.0108 0.7568 0.0
H401 H 0.82048 0.92586 0.78525 0.0
H402 H 0.94701 0.88151 0.72164 0.0
H403 H 0.89863 0.89927 0.73329 0.0
H404 H 0.884 0.99073 0.74283 0.0
C405 C 0.78035 0.0015 0.77718 0.0
C406 C 0.83414 0.94033 0.77618 0.0
C407 C 0.75684 0.01307 0.79269 0.0
C408 C 0.9436 0.90176 0.72991 0.0
C409 C 0.91575 0.91199 0.73671 0.0
C410 C 0.87049 0.97636 0.75233 0.0
C411 C 0.79763 0.97873 0.78844 0.0
C412 C 0.82486 0.9682 0.77443 0.0
C413 C 0.91007 0.93829 0.74717 0.0
C414 C 0.88031 0.94862 0.75547 0.0
H415 H 0.76215 0.96946 0.85077 0.0
H416 H 0.80279 0.94983 0.82442 0.0
H417 H 0.83691 0.00768 0.7603 0.0
H418 H 0.97836 0.95696 0.74499 0.0
H419 H 0.92987 0.97438 0.75864 0.0
C420 C 0.28461 0.68342 0.98921 0.0
C421 C 0.27909 0.70177 0.01141 0.0
C422 C 0.27553 0.65733 0.99126 0.0
C423 C 0.26057 0.60668 0.04635 0.0
H424 H 0.23399 0.56646 0.98336 0.0
C425 C 0.21503 0.49695 0.03476 0.0
C426 C 0.23541 0.48202 0.0525 0.0
C427 C 0.21975 0.52321 0.02474 0.0
C428 C 0.24131 0.5775 0.00112 0.0
H429 H 0.25784 0.7075 0.05221 0.0
H430 H 0.24214 0.66197 0.05586 0.0
H431 H 0.24037 0.61491 0.97641 0.0
H432 H 0.2776 0.48141 0.07141 0.0
H433 H 0.28619 0.52653 0.05333 0.0
H434 H 0.2617 0.5696 0.07107 0.0
C435 C 0.25395 0.66767 0.03707 0.0
C436 C 0.24508 0.60516 0.99714 0.0
C437 C 0.26297 0.69377 0.03501 0.0
C438 C 0.26156 0.49255 0.05777 0.0
C439 C 0.26633 0.5185 0.04769 0.0
C440 C 0.25706 0.57917 0.05022 0.0
C441 C 0.26077 0.6489 0.01558 0.0
C442 C 0.25488 0.62002 0.01973 0.0
C443 C 0.2449 0.53468 0.03238 0.0
C444 C 0.24774 0.56414 0.02762 0.0
H445 H 0.2972 0.68858 0.97083 0.0
H446 H 0.28138 0.64331 0.97445 0.0
H447 H 0.26849 0.61734 0.06411 0.0
H448 H 0.19452 0.4894 0.03079 0.0
H449 H 0.20288 0.53522 0.01293 0.0
C450 C 0.53999 0.06046 0.26327 0.0
C451 C 0.52595 0.05811 0.23713 0.0
C452 C 0.56494 0.04388 0.27011 0.0
C453 C 0.62724 0.00911 0.23594 0.0
H454 H 0.64614 0.98659 0.31432 0.0
C455 C 0.74097 0.96474 0.28218 0.0
C456 C 0.74858 0.97908 0.30608 0.0
C457 C 0.71351 0.97004 0.26991 0.0
C458 C 0.64113 0.99255 0.29227 0.0
H459 H 0.52635 0.03591 0.19799 0.0
H460 H 0.57049 0.0067 0.20994 0.0
H461 H 0.59651 0.00091 0.30133 0.0
H462 H 0.73419 0.01158 0.33433 0.0
H463 H 0.68687 0.02055 0.31317 0.0
H464 H 0.67237 0.00146 0.22734 0.0
C465 C 0.56197 0.02139 0.22516 0.0
C466 C 0.61273 0.00078 0.28483 0.0
C467 C 0.53657 0.03784 0.21848 0.0
C468 C 0.72898 -9e-05 0.31617 0.0
C469 C 0.70177 0.005 0.30416 0.0
C470 C 0.6558 0.00066 0.2434 0.0
C471 C 0.57675 0.02468 0.25082 0.0
C472 C 0.60558 0.01024 0.25688 0.0
C473 C 0.69338 0.98957 0.28158 0.0
C474 C 0.66308 0.99337 0.27191 0.0
H475 H 0.53239 0.07608 0.27792 0.0
H476 H 0.57588 0.04725 0.28988 0.0
H477 H 0.62246 0.01641 0.21424 0.0
H478 H 0.75555 0.94848 0.27403 0.0
H479 H 0.70753 0.958 0.25235 0.0
C480 C 0.72868 0.2577 0.46807 0.0
C481 C 0.70787 0.26305 0.48925 0.0
C482 C 0.74183 0.23132 0.46497 0.0
C483 C 0.74988 0.16202 0.50054 0.0
H484 H 0.75753 0.13818 0.42259 0.0
C485 C 0.74895 0.05054 0.46649 0.0
C486 C 0.76848 0.04153 0.44525 0.0
C487 C 0.74684 0.0776 0.47472 0.0
C488 C 0.75589 0.14461 0.44449 0.0
H489 H 0.68455 0.24484 0.52372 0.0
H490 H 0.70681 0.19931 0.51814 0.0
H491 H 0.74497 0.186 0.43134 0.0
H492 H 0.80152 0.05387 0.41648 0.0
H493 H 0.79785 0.10076 0.43084 0.0
H494 H 0.75937 0.12014 0.51344 0.0
C495 C 0.71387 0.21538 0.50444 0.0
C496 C 0.74884 0.17208 0.44955 0.0
C497 C 0.701 0.24165 0.50766 0.0
C498 C 0.78654 0.05991 0.43317 0.0
C499 C 0.78425 0.08691 0.44117 0.0
C500 C 0.75655 0.13446 0.49544 0.0
C501 C 0.73415 0.20973 0.4828 0.0
C502 C 0.74523 0.1811 0.47763 0.0
C503 C 0.764 0.09616 0.46158 0.0
C504 C 0.75922 0.12548 0.46736 0.0
H505 H 0.73444 0.27384 0.45369 0.0
H506 H 0.75768 0.22779 0.44832 0.0
H507 H 0.74785 0.16828 0.52247 0.0
H508 H 0.73488 0.03681 0.47623 0.0
H509 H 0.73092 0.08427 0.49042 0.0
C510 C 0.03606 0.4723 0.71273 0.0
C511 C 0.00996 0.47524 0.69759 0.0
C512 C 0.05597 0.4914 0.70901 0.0
C513 C 0.07676 0.54133 0.65516 0.0
H514 H 0.12664 0.56254 0.71488 0.0
C515 C 0.16187 0.61111 0.62634 0.0
C516 C 0.18959 0.60236 0.63613 0.0
C517 C 0.1381 0.60079 0.63893 0.0
C518 C 0.11289 0.55675 0.698 0.0
H519 H 0.98361 0.50142 0.66807 0.0
H520 H 0.01817 0.53485 0.6617 0.0
H521 H 0.08804 0.53425 0.72708 0.0
H522 H 0.21438 0.57744 0.66781 0.0
H523 H 0.17269 0.55865 0.68959 0.0
H524 H 0.10178 0.56293 0.62595 0.0
C525 C 0.02356 0.51744 0.67596 0.0
C526 C 0.09081 0.54054 0.70495 0.0
C527 C 0.00374 0.49829 0.67958 0.0
C528 C 0.1931 0.5847 0.66018 0.0
C529 C 0.16923 0.57393 0.67255 0.0
C530 C 0.0987 0.55743 0.64824 0.0
C531 C 0.05019 0.51393 0.69014 0.0
C532 C 0.07259 0.53252 0.68354 0.0
C533 C 0.14159 0.58093 0.66112 0.0
C534 C 0.11715 0.5653 0.66949 0.0
H535 H 0.04167 0.45466 0.72657 0.0
H536 H 0.07638 0.48788 0.72 0.0
H537 H 0.06366 0.53503 0.638 0.0
H538 H 0.15871 0.62478 0.60782 0.0
H539 H 0.11707 0.60722 0.63013 0.0
C540 C 0.74685 0.92723 0.94171 0.0
C541 C 0.76393 0.9467 0.95197 0.0
C542 C 0.75448 0.89956 0.94679 0.0
C543 C 0.81729 0.85109 0.96435 0.0
H544 H 0.7599 0.80039 0.97567 0.0
C545 C 0.81366 0.7314 -0.00076 0.0
C546 C 0.8383 0.72091 0.98468 0.0
C547 C 0.80202 0.75818 0.99376 0.0
C548 C 0.77622 0.81426 0.97268 0.0
H549 H 0.80191 0.95222 0.97662 0.0
H550 H 0.81493 0.90378 0.9862 0.0
H551 H 0.74526 0.849 0.97245 0.0
H552 H 0.86847 0.72925 0.9512 0.0
H553 H 0.8475 0.77543 0.94079 0.0
H554 H 0.84834 0.81656 0.96552 0.0
C555 C 0.79592 0.91 0.9736 0.0
C556 C 0.76781 0.84216 0.97057 0.0
C557 C 0.78831 0.93779 0.9684 0.0
C558 C 0.84959 0.73687 0.96291 0.0
C559 C 0.83778 0.76347 0.95721 0.0
C560 C 0.8257 0.82327 0.96661 0.0
C561 C 0.77929 0.89053 0.9625 0.0
C562 C 0.78824 0.86093 0.96622 0.0
C563 C 0.81464 0.77486 0.97343 0.0
C564 C 0.80528 0.80445 0.97059 0.0
H565 H 0.72755 0.93329 0.92954 0.0
H566 H 0.74126 0.88524 0.93769 0.0
H567 H 0.8336 0.86486 0.96066 0.0
H568 H 0.80466 0.71966 0.01633 0.0
H569 H 0.78425 0.76626 0.00672 0.0
C570 C 0.48361 0.50961 0.26332 0.0
C571 C 0.47686 0.53578 0.27354 0.0
C572 C 0.46371 0.49038 0.26548 0.0
C573 C 0.39033 0.47956 0.29349 0.0
H574 H 0.38211 0.4498 0.2187 0.0
C575 C 0.2851 0.47902 0.23356 0.0
C576 C 0.2821 0.45927 0.21318 0.0
C577 C 0.30975 0.47782 0.25047 0.0
C578 C 0.38429 0.45722 0.24005 0.0
H579 H 0.4447 0.56199 0.29529 0.0
H580 H 0.40978 0.52918 0.29813 0.0
H581 H 0.42663 0.46708 0.23129 0.0
H582 H 0.30161 0.42126 0.19665 0.0
H583 H 0.3442 0.41917 0.22627 0.0
H584 H 0.3467 0.47176 0.30092 0.0
C585 C 0.4306 0.52291 0.28923 0.0
C586 C 0.41001 0.46714 0.24736 0.0
C587 C 0.45059 0.54191 0.2874 0.0
C588 C 0.30305 0.43693 0.212 0.0
C589 C 0.32763 0.43573 0.22892 0.0
C590 C 0.3644 0.4699 0.286 0.0
C591 C 0.4365 0.49719 0.27746 0.0
C592 C 0.41281 0.47978 0.27354 0.0
C593 C 0.33183 0.45682 0.24731 0.0
C594 C 0.36075 0.45987 0.25866 0.0
H595 H 0.50399 0.50424 0.25307 0.0
H596 H 0.46919 0.47058 0.2567 0.0
H597 H 0.39207 0.48848 0.31417 0.0
H598 H 0.26908 0.49613 0.23546 0.0
H599 H 0.31241 0.49447 0.26438 0.0
C600 C 0.54149 0.22333 0.29413 0.0
C601 C 0.51868 0.20789 0.28828 0.0
C602 C 0.54031 0.24029 0.31753 0.0
C603 C 0.50635 0.24701 0.388 0.0
H604 H 0.54169 0.31463 0.38776 0.0
C605 C 0.55596 0.28838 0.48712 0.0
C606 C 0.55551 0.31646 0.49009 0.0
C607 C 0.5435 0.27801 0.46328 0.0
C608 C 0.53121 0.29606 0.38812 0.0
H609 H 0.47634 0.19885 0.30233 0.0
H610 H 0.47412 0.22875 0.34252 0.0
H611 H 0.53565 0.2921 0.34285 0.0
H612 H 0.54124 0.35594 0.47139 0.0
H613 H 0.5191 0.33783 0.42938 0.0
H614 H 0.50244 0.25068 0.43333 0.0
C615 C 0.49307 0.22751 0.3292 0.0
C616 C 0.52812 0.28297 0.36243 0.0
C617 C 0.49426 0.21056 0.30587 0.0
C618 C 0.54125 0.33418 0.46966 0.0
C619 C 0.52894 0.3238 0.44556 0.0
C620 C 0.50946 0.26008 0.41367 0.0
C621 C 0.51628 0.24222 0.33563 0.0
C622 C 0.51634 0.25793 0.36218 0.0
C623 C 0.53074 0.2956 0.44172 0.0
C624 C 0.52265 0.28437 0.41413 0.0
H625 H 0.56046 0.22203 0.28088 0.0
H626 H 0.5587 0.25113 0.32201 0.0
H627 H 0.49735 0.22767 0.38866 0.0
H628 H 0.56743 0.27445 0.50243 0.0
H629 H 0.54568 0.25623 0.46083 0.0
C630 C 0.05616 0.21576 0.49894 0.0
C631 C 0.06951 0.2358 0.48345 0.0
C632 C 0.03845 0.22284 0.52232 0.0
C633 C 0.99694 0.28067 0.55603 0.0
H634 H 0.02146 0.24645 0.62881 0.0
C635 C 0.98109 0.33706 0.65961 0.0
C636 C 0.97402 0.32368 0.68526 0.0
C637 C 0.98756 0.32269 0.63496 0.0
C638 C 0.01386 0.25585 0.60866 0.0
H639 H 0.07386 0.27886 0.47925 0.0
H640 H 0.04214 0.29132 0.51899 0.0
H641 H 0.04077 0.2276 0.5842 0.0
H642 H 0.96831 0.28434 0.70488 0.0
H643 H 0.97989 0.2589 0.66129 0.0
H644 H 0.97064 0.3093 0.58018 0.0
C645 C 0.04541 0.27018 0.51342 0.0
C646 C 0.02493 0.24504 0.58309 0.0
C647 C 0.06354 0.26307 0.49062 0.0
C648 C 0.97366 0.29528 0.68551 0.0
C649 C 0.98034 0.28073 0.66058 0.0
C650 C 0.98574 0.2913 0.58144 0.0
C651 C 0.0333 0.25012 0.53007 0.0
C652 C 0.01737 0.25797 0.55657 0.0
C653 C 0.98718 0.29438 0.63493 0.0
C654 C 0.99493 0.27973 0.60816 0.0
H655 H 0.06087 0.19454 0.49416 0.0
H656 H 0.02937 0.20697 0.53477 0.0
H657 H 0.99039 0.29084 0.53591 0.0
H658 H 0.98173 0.35888 0.65842 0.0
H659 H 0.99339 0.33389 0.61593 0.0
C660 C 0.01657 0.74812 0.749 0.0
C661 C 0.03686 0.76598 0.74062 0.0
C662 C 0.02272 0.72889 0.77115 0.0
C663 C 0.04358 0.68723 0.81845 0.0
H664 H 0.05491 0.73262 0.88263 0.0
C665 C 0.98728 0.67338 0.92403 0.0
C666 C 0.99626 0.68549 0.94874 0.0
C667 C 0.00314 0.67441 0.89891 0.0
C668 C 0.05269 0.71906 0.86526 0.0
H669 H 0.08112 0.77454 0.7463 0.0
H670 H 0.09109 0.74196 0.78591 0.0
H671 H 0.06418 0.74907 0.83474 0.0
H672 H 0.03011 0.70575 0.96758 0.0
H673 H 0.05885 0.70647 0.924 0.0
H674 H 0.03147 0.65738 0.8489 0.0
C675 C 0.07043 0.7431 0.77535 0.0
C676 C 0.05796 0.72865 0.83763 0.0
C677 C 0.06447 0.76203 0.75288 0.0
C678 C 0.02261 0.69666 0.94858 0.0
C679 C 0.03891 0.69715 0.92357 0.0
C680 C 0.03895 0.67731 0.8462 0.0
C681 C 0.04915 0.72726 0.78549 0.0
C682 C 0.05194 0.71346 0.81395 0.0
C683 C 0.0287 0.68719 0.898 0.0
C684 C 0.04169 0.69382 0.86985 0.0
H685 H 0.99519 0.75018 0.74006 0.0
H686 H 0.00585 0.71699 0.7787 0.0
H687 H 0.03908 0.67506 0.80046 0.0
H688 H 0.96689 0.66484 0.92349 0.0
H689 H 0.99411 0.66687 0.87979 0.0
C690 C 0.49973 0.67082 0.20153 0.0
C691 C 0.51181 0.68541 0.22298 0.0
C692 C 0.49439 0.68236 0.17433 0.0
C693 C 0.48168 0.74704 0.13387 0.0
H694 H 0.49227 0.69925 0.06978 0.0
C695 C 0.44173 0.77818 0.01847 0.0
C696 C 0.422 0.76057 0.00945 0.0
C697 C 0.45955 0.77092 0.04213 0.0
C698 C 0.48948 0.71293 0.0874 0.0
H699 H 0.52742 0.72391 0.23262 0.0
H700 H 0.51794 0.74432 0.18455 0.0
H701 H 0.51064 0.68374 0.11683 0.0
H702 H 0.40635 0.72122 0.01683 0.0
H703 H 0.43812 0.70812 0.05719 0.0
H704 H 0.45981 0.77596 0.10425 0.0
C705 C 0.51264 0.72382 0.18909 0.0
C706 C 0.49982 0.70403 0.11439 0.0
C707 C 0.51805 0.71216 0.21658 0.0
C708 C 0.42153 0.73506 0.02328 0.0
C709 C 0.43972 0.72758 0.04634 0.0
C710 C 0.47154 0.75606 0.10668 0.0
C711 C 0.50105 0.70885 0.16756 0.0
C712 C 0.49495 0.72051 0.13821 0.0
C713 C 0.45835 0.74569 0.05652 0.0
C714 C 0.4744 0.73867 0.08347 0.0
H715 H 0.49439 0.65025 0.20565 0.0
H716 H 0.4847 0.67048 0.1586 0.0
H717 H 0.47754 0.76022 0.15174 0.0
H718 H 0.44216 0.79813 0.00836 0.0
H719 H 0.47373 0.78522 0.0496 0.0
C720 C 0.137 0.29295 0.37035 0.0
C721 C 0.12152 0.27008 0.37246 0.0
C722 C 0.13754 0.30798 0.34462 0.0
C723 C 0.13188 0.29781 0.2678 0.0
H724 H 0.14026 0.3749 0.26293 0.0
C725 C 0.16175 0.35752 0.16344 0.0
C726 C 0.18362 0.37445 0.16789 0.0
C727 C 0.1492 0.34476 0.18685 0.0
C728 C 0.13785 0.35335 0.26396 0.0
H729 H 0.09263 0.24632 0.34996 0.0
H730 H 0.09336 0.27277 0.30522 0.0
H731 H 0.12504 0.35448 0.30782 0.0
H732 H 0.21071 0.3899 0.20003 0.0
H733 H 0.18911 0.36776 0.24027 0.0
H734 H 0.14559 0.29667 0.22406 0.0
C735 C 0.10553 0.27873 0.32325 0.0
C736 C 0.12919 0.34168 0.28964 0.0
C737 C 0.10499 0.26371 0.34896 0.0
C738 C 0.1936 0.37732 0.19585 0.0
C739 C 0.18109 0.3648 0.21899 0.0
C740 C 0.14049 0.30954 0.24202 0.0
C741 C 0.12256 0.30047 0.32051 0.0
C742 C 0.12701 0.31363 0.29213 0.0
C743 C 0.15831 0.34898 0.21487 0.0
C744 C 0.14451 0.33724 0.2402 0.0
H745 H 0.14998 0.29837 0.38805 0.0
H746 H 0.15106 0.3245 0.34318 0.0
H747 H 0.13063 0.27608 0.26907 0.0
H748 H 0.15362 0.355 0.14212 0.0
H749 H 0.13179 0.33243 0.18315 0.0
C750 C 0.01078 0.91282 0.60108 0.0
C751 C 0.00154 0.89532 0.62261 0.0
C752 C 0.99831 0.91402 0.57388 0.0
C753 C 0.94985 0.87784 0.52758 0.0
H754 H 0.9409 0.94726 0.48617 0.0
C755 C 0.86299 0.91279 0.44327 0.0
C756 C 0.87236 0.92285 0.41688 0.0
C757 C 0.88246 0.90579 0.46543 0.0
C758 C 0.94369 0.92766 0.49733 0.0
H759 H 0.97186 0.86556 0.63279 0.0
H760 H 0.94888 0.86873 0.58602 0.0
H761 H 0.96675 0.94316 0.53146 0.0
H762 H 0.90928 0.93317 0.39256 0.0
H763 H 0.94351 0.92192 0.43212 0.0
H764 H 0.92472 0.86316 0.4941 0.0
C765 C 0.96653 0.8808 0.58952 0.0
C766 C 0.95859 0.92521 0.5233 0.0
C767 C 0.97948 0.87915 0.61652 0.0
C768 C 0.90168 0.92518 0.41269 0.0
C769 C 0.92114 0.91889 0.43523 0.0
C770 C 0.93439 0.88052 0.50193 0.0
C771 C 0.97581 0.8982 0.56772 0.0
C772 C 0.96157 0.90034 0.53905 0.0
C773 C 0.91154 0.90941 0.46183 0.0
C774 C 0.93097 0.90551 0.48677 0.0
H775 H 0.02807 0.92524 0.60509 0.0
H776 H 0.00659 0.92721 0.55766 0.0
H777 H 0.95226 0.85817 0.53853 0.0
H778 H 0.84044 0.91087 0.44696 0.0
H779 H 0.87458 0.89872 0.48584 0.0
C780 C 0.30338 0.62902 0.71952 0.0
C781 C 0.32077 0.63931 0.6981 0.0
C782 C 0.3108 0.63029 0.74837 0.0
C783 C 0.36962 0.64611 0.7973 0.0
H784 H 0.30683 0.67865 0.84247 0.0
C785 C 0.38226 0.72351 0.88338 0.0
C786 C 0.36395 0.72444 0.90716 0.0
C787 C 0.37987 0.70438 0.86247 0.0
C788 C 0.32455 0.66897 0.8305 0.0
H789 H 0.3607 0.65688 0.69006 0.0
H790 H 0.37319 0.65985 0.74006 0.0
H791 H 0.29692 0.66012 0.7965 0.0
H792 H 0.33013 0.70478 0.92869 0.0
H793 H 0.32585 0.67147 0.89197 0.0
H794 H 0.39736 0.65663 0.83072 0.0
C795 C 0.35394 0.6506 0.73479 0.0
C796 C 0.31886 0.65829 0.80408 0.0
C797 C 0.34654 0.64932 0.70606 0.0
C798 C 0.34443 0.70473 0.91051 0.0
C799 C 0.34191 0.68569 0.88947 0.0
C800 C 0.37532 0.65696 0.82366 0.0
C801 C 0.33579 0.64181 0.75635 0.0
C802 C 0.34142 0.64767 0.78668 0.0
C803 C 0.35903 0.68585 0.86483 0.0
C804 C 0.35291 0.66938 0.84004 0.0
H805 H 0.2834 0.62116 0.71409 0.0
H806 H 0.29653 0.62303 0.76446 0.0
H807 H 0.38743 0.63754 0.78468 0.0
H808 H 0.39761 0.73833 0.88025 0.0
H809 H 0.39319 0.7052 0.8436 0.0
C810 C 0.54773 0.12525 0.13665 0.0
C811 C 0.51855 0.1211 0.13628 0.0
C812 C 0.56376 0.12388 0.11138 0.0
C813 C 0.56131 0.09674 0.03816 0.0
H814 H 0.62672 0.13785 0.02554 0.0
C815 C 0.62651 0.09008 0.93391 0.0
C816 C 0.65575 0.08209 0.93858 0.0
C817 C 0.60902 0.09925 0.95653 0.0
C818 C 0.60841 0.12635 0.0288 0.0
H819 H 0.48283 0.11379 0.10913 0.0
H820 H 0.51021 0.11271 0.06509 0.0
H821 H 0.59715 0.1456 0.06809 0.0
H822 H 0.68999 0.07901 0.97002 0.0
H823 H 0.65953 0.09558 0.00932 0.0
H824 H 0.57249 0.07774 0.99872 0.0
C825 C 0.52123 0.11583 0.08486 0.0
C826 C 0.59159 0.13059 0.05327 0.0
C827 C 0.50543 0.11663 0.11012 0.0
C828 C 0.66748 0.08492 0.96584 0.0
C829 C 0.65011 0.09453 0.98829 0.0
C830 C 0.5778 0.09287 0.01354 0.0
C831 C 0.55077 0.11885 0.08517 0.0
C832 C 0.56798 0.11558 0.05846 0.0
C833 C 0.62059 0.10109 0.98403 0.0
C834 C 0.6017 0.10738 0.00879 0.0
H835 H 0.55837 0.12866 0.15658 0.0
H836 H 0.58649 0.12597 0.11263 0.0
H837 H 0.5438 0.08428 0.0416 0.0
H838 H 0.61688 0.08804 0.91314 0.0
H839 H 0.58631 0.10432 0.95272 0.0
C840 C 0.59536 0.26102 0.60664 0.0
C841 C 0.61616 0.2671 0.58647 0.0
C842 C 0.59944 0.23756 0.62403 0.0
C843 C 0.65683 0.19177 0.65637 0.0
H844 H 0.59389 0.15112 0.68045 0.0
C845 C 0.66742 0.10895 0.74767 0.0
C846 C 0.64504 0.1112 0.76775 0.0
C847 C 0.66518 0.12414 0.72187 0.0
C848 C 0.61169 0.16228 0.67393 0.0
H849 H 0.65714 0.25292 0.56805 0.0
H850 H 0.66428 0.21179 0.59854 0.0
H851 H 0.58709 0.18411 0.64063 0.0
H852 H 0.60314 0.13185 0.77664 0.0
H853 H 0.59923 0.15796 0.73194 0.0
H854 H 0.6811 0.17058 0.69037 0.0
C855 C 0.64487 0.22529 0.6009 0.0
C856 C 0.6078 0.18113 0.65113 0.0
C857 C 0.64067 0.24872 0.58332 0.0
C858 C 0.62052 0.12905 0.76149 0.0
C859 C 0.61824 0.14406 0.73577 0.0
C860 C 0.66072 0.17288 0.67923 0.0
C861 C 0.62449 0.21972 0.62176 0.0
C862 C 0.63004 0.19667 0.64267 0.0
C863 C 0.64046 0.14174 0.71562 0.0
C864 C 0.63789 0.15858 0.6888 0.0
H865 H 0.57623 0.27477 0.60958 0.0
H866 H 0.5835 0.23403 0.64013 0.0
H867 H 0.67431 0.20359 0.65049 0.0
H868 H 0.68649 0.09521 0.75167 0.0
H869 H 0.68262 0.12191 0.70668 0.0
C870 C 0.14421 0.3553 0.98511 0.0
C871 C 0.15622 0.37874 0.99349 0.0
C872 C 0.13137 0.35437 0.9584 0.0
C873 C 0.12655 0.38662 0.88608 0.0
H874 H 0.05718 0.35007 0.88305 0.0
C875 C 0.04648 0.38849 0.7901 0.0
C876 C 0.03325 0.36452 0.78645 0.0
C877 C 0.06642 0.38989 0.81216 0.0
C878 C 0.07678 0.35999 0.88344 0.0
H879 H 0.16412 0.41969 0.98011 0.0
H880 H 0.14078 0.41833 0.93346 0.0
H881 H 0.08021 0.35481 0.92874 0.0
H882 H 0.03302 0.32239 0.80046 0.0
H883 H 0.06813 0.32469 0.83839 0.0
H884 H 0.12236 0.39227 0.84047 0.0
C885 C 0.14181 0.40051 0.94759 0.0
C886 C 0.08996 0.36276 0.90967 0.0
C887 C 0.15484 0.40141 0.97445 0.0
C888 C 0.04262 0.34122 0.80301 0.0
C889 C 0.06257 0.34258 0.82484 0.0
C890 C 0.11313 0.38401 0.85967 0.0
C891 C 0.12984 0.37697 0.93935 0.0
C892 C 0.11523 0.37573 0.91132 0.0
C893 C 0.0734 0.36731 0.83067 0.0
C894 C 0.08834 0.37027 0.85812 0.0
H895 H 0.14448 0.33758 -0.00074 0.0
H896 H 0.12276 0.33577 0.95262 0.0
H897 H 0.14607 0.39663 0.88665 0.0
H898 H 0.03962 0.4068 0.77767 0.0
H899 H 0.07452 0.40918 0.81613 0.0
C900 C 0.84174 0.8565 0.25591 0.0
C901 C 0.86068 0.87686 0.25483 0.0
C902 C 0.84359 0.83611 0.2357 0.0
C903 C 0.89506 0.80208 0.18539 0.0
H904 H 0.82777 0.77631 0.1514 0.0
C905 C 0.9024 0.73235 0.08867 0.0
C906 C 0.88405 0.71156 0.08798 0.0
C907 C 0.89934 0.75179 0.10976 0.0
C908 C 0.84678 0.78303 0.16097 0.0
H909 H 0.89534 0.89253 0.23073 0.0
H910 H 0.89853 0.85719 0.19567 0.0
H911 H 0.82209 0.81189 0.1865 0.0
H912 H 0.8483 0.69471 0.10924 0.0
H913 H 0.84324 0.72842 0.14622 0.0
H914 H 0.91979 0.77332 0.15995 0.0
C915 C 0.88271 0.85653 0.21248 0.0
C916 C 0.84351 0.80345 0.18106 0.0
C917 C 0.88086 0.87683 0.2326 0.0
C918 C 0.8628 0.71047 0.1091 0.0
C919 C 0.85974 0.72992 0.1302 0.0
C920 C 0.89833 0.78168 0.16537 0.0
C921 C 0.86442 0.83568 0.21402 0.0
C922 C 0.86763 0.81338 0.19331 0.0
C923 C 0.87787 0.75092 0.1307 0.0
C924 C 0.87426 0.77203 0.15273 0.0
H925 H 0.82611 0.85579 0.27287 0.0
H926 H 0.82928 0.82025 0.23758 0.0
H927 H 0.9141 0.80887 0.19484 0.0
H928 H 0.9189 0.73388 0.07265 0.0
H929 H 0.91344 0.76788 0.10927 0.0
C930 C 0.31724 0.60618 0.50076 0.0
C931 C 0.31583 0.62228 0.52495 0.0
C932 C 0.33356 0.61291 0.47725 0.0
C933 C 0.39067 0.6542 0.45276 0.0
H934 H 0.3568 0.64457 0.37849 0.0
C935 C 0.44869 0.68139 0.35038 0.0
C936 C 0.4538 0.65912 0.33253 0.0
C937 C 0.42773 0.6814 0.37149 0.0
C938 C 0.36641 0.64744 0.39909 0.0
H939 H 0.33123 0.65732 0.54424 0.0
H940 H 0.3597 0.66948 0.5027 0.0
H941 H 0.33026 0.63484 0.42186 0.0
H942 H 0.43895 0.62082 0.32074 0.0
H943 H 0.40212 0.621 0.35753 0.0
H944 H 0.42691 0.66662 0.42988 0.0
C945 C 0.34836 0.65147 0.50207 0.0
C946 C 0.35139 0.6417 0.42392 0.0
C947 C 0.3322 0.6445 0.52586 0.0
C948 C 0.43559 0.63821 0.33424 0.0
C949 C 0.41449 0.63832 0.3553 0.0
C950 C 0.40559 0.66017 0.42791 0.0
C951 C 0.34854 0.63613 0.47723 0.0
C952 C 0.36364 0.64439 0.45102 0.0
C953 C 0.41135 0.65929 0.37494 0.0
C954 C 0.39381 0.65635 0.40087 0.0
H955 H 0.30502 0.58874 0.49969 0.0
H956 H 0.33399 0.60016 0.45884 0.0
H957 H 0.40079 0.65628 0.47327 0.0
H958 H 0.46214 0.69799 0.34936 0.0
H959 H 0.42532 0.69803 0.38607 0.0
C960 C 0.23679 0.20393 0.39947 0.0
C961 C 0.21184 0.19132 0.39393 0.0
C962 C 0.26271 0.19518 0.38646 0.0
C963 C 0.30077 0.13633 0.35199 0.0
H964 H 0.34872 0.18953 0.32071 0.0
C965 C 0.39422 0.1094 0.27462 0.0
C966 C 0.41824 0.12432 0.27513 0.0
C967 C 0.37084 0.11589 0.29243 0.0
C968 C 0.3359 0.17437 0.32981 0.0
H969 H 0.19452 0.15972 0.37017 0.0
H970 H 0.2399 0.14445 0.3473 0.0
H971 H 0.30379 0.20468 0.34397 0.0
H972 H 0.43727 0.15668 0.29609 0.0
H973 H 0.39661 0.16767 0.32769 0.0
H974 H 0.33281 0.10601 0.33771 0.0
C975 C 0.23938 0.16098 0.36196 0.0
C976 C 0.31005 0.18308 0.34303 0.0
C977 C 0.21336 0.16985 0.37489 0.0
C978 C 0.41908 0.14482 0.29512 0.0
C979 C 0.39564 0.1513 0.31302 0.0
C980 C 0.3267 0.12761 0.33887 0.0
C981 C 0.26436 0.17352 0.36766 0.0
C982 C 0.29207 0.16417 0.35406 0.0
C983 C 0.3709 0.13742 0.31129 0.0
C984 C 0.34448 0.14652 0.32738 0.0
H985 H 0.2364 0.22053 0.41405 0.0
H986 H 0.28159 0.2051 0.3915 0.0
H987 H 0.28761 0.12127 0.3607 0.0
H988 H 0.39284 0.09348 0.25946 0.0
H989 H 0.35212 0.10489 0.29031 0.0
C990 C 0.15917 0.16007 0.52297 0.0
C991 C 0.15828 0.15472 0.49373 0.0
C992 C 0.15885 0.13877 0.54332 0.0
C993 C 0.12905 0.07399 0.54772 0.0
H994 H 0.16419 0.06565 0.62286 0.0
C995 C 0.09927 0.9905 0.62531 0.0
C996 C 0.09356 0.99791 0.65368 0.0
C997 C 0.11309 0.00736 0.60664 0.0
C998 C 0.15416 0.06785 0.60197 0.0
H999 H 0.15975 0.12311 0.46261 0.0
H1000 H 0.15992 0.08601 0.49799 0.0
H1001 H 0.17975 0.09959 0.58844 0.0
H1002 H 0.09947 0.02865 0.68475 0.0
H1003 H 0.12225 0.05859 0.65172 0.0
H1004 H 0.10267 0.04336 0.56117 0.0
C1005 C 0.15995 0.10656 0.5053 0.0
C1006 C 0.16312 0.08716 0.58231 0.0
C1007 C 0.15989 0.12775 0.48508 0.0
C1008 C 0.10288 0.02236 0.66301 0.0
C1009 C 0.11643 0.03942 0.64417 0.0
C1010 C 0.12003 0.05493 0.56727 0.0
C1011 C 0.15791 0.11197 0.53453 0.0
C1012 C 0.15054 0.09042 0.55503 0.0
C1013 C 0.12119 0.03231 0.61563 0.0
C1014 C 0.13235 0.05167 0.59465 0.0
H1015 H 0.15797 0.18076 0.53008 0.0
H1016 H 0.15724 0.1435 0.56573 0.0
H1017 H 0.11837 0.07653 0.52714 0.0
H1018 H 0.09254 0.97201 0.61704 0.0
H1019 H 0.11692 0.00106 0.58491 0.0
C1020 C 0.09298 0.85667 0.78657 0.0
C1021 C 0.09111 0.88053 0.76924 0.0
C1022 C 0.11584 0.85077 0.80579 0.0
C1023 C 0.19088 0.86251 0.81431 0.0
H1024 H 0.18241 0.83717 0.89274 0.0
C1025 C 0.28936 0.83851 0.88916 0.0
C1026 C 0.2885 0.81711 0.90948 0.0
C1027 C 0.2649 0.84773 0.87305 0.0
C1028 C 0.18529 0.84379 0.87076 0.0
H1029 H 0.11133 0.91735 0.75939 0.0
H1030 H 0.15121 0.90682 0.79259 0.0
H1031 H 0.13987 0.8502 0.86361 0.0
H1032 H 0.2615 0.78813 0.92826 0.0
H1033 H 0.21957 0.80326 0.89959 0.0
H1034 H 0.23613 0.85519 0.82079 0.0
C1035 C 0.13502 0.89271 0.79127 0.0
C1036 C 0.16082 0.85142 0.85415 0.0
C1037 C 0.11201 0.89881 0.77241 0.0
C1038 C 0.26283 0.8049 0.91303 0.0
C1039 C 0.2386 0.81378 0.89667 0.0
C1040 C 0.21536 0.85447 0.83074 0.0
C1041 C 0.13749 0.8684 0.80776 0.0
C1042 C 0.16335 0.86085 0.82575 0.0
C1043 C 0.23912 0.83547 0.87656 0.0
C1044 C 0.21298 0.84488 0.85921 0.0
H1045 H 0.07734 0.8421 0.7846 0.0
H1046 H 0.11725 0.83184 0.8182 0.0
H1047 H 0.19348 0.86939 0.79234 0.0
H1048 H 0.30878 0.84842 0.88604 0.0
H1049 H 0.26616 0.86473 0.85813 0.0
C1050 C 0.42434 0.01935 0.12174 0.0
C1051 C 0.40932 0.02574 0.14694 0.0
C1052 C 0.41744 0.99753 0.10565 0.0
C1053 C 0.38352 0.93386 0.10816 0.0
H1054 H 0.36556 0.9512 0.02842 0.0
C1055 C 0.34085 0.85507 0.03391 0.0
C1056 C 0.3527 0.85427 0.00634 0.0
C1057 C 0.34528 0.87652 0.05179 0.0
C1058 C 0.3708 0.94585 0.05055 0.0
H1059 H 0.37668 0.01362 0.17609 0.0
H1060 H 0.36505 0.9751 0.14834 0.0
H1061 H 0.38152 0.98598 0.0586 0.0
H1062 H 0.37776 0.87583 0.97565 0.0
H1063 H 0.38596 0.91226 0.00661 0.0
H1064 H 0.37369 0.89348 0.09998 0.0
C1065 C 0.38185 0.98709 0.14083 0.0
C1066 C 0.37995 0.96582 0.06779 0.0
C1067 C 0.38838 0.00915 0.15658 0.0
C1068 C 0.3682 0.87573 0.99673 0.0
C1069 C 0.37277 0.89688 0.01451 0.0
C1070 C 0.37478 0.91369 0.09077 0.0
C1071 C 0.39581 0.98148 0.11486 0.0
C1072 C 0.38659 0.95997 0.09668 0.0
C1073 C 0.36169 0.89748 0.0424 0.0
C1074 C 0.36857 0.91936 0.06164 0.0
H1075 H 0.44043 0.03198 0.11387 0.0
H1076 H 0.42864 0.99345 0.08577 0.0
H1077 H 0.38848 0.92889 0.13043 0.0
H1078 H 0.32886 0.83882 0.04194 0.0
H1079 H 0.33611 0.87652 0.07302 0.0
C1080 C 0.85305 0.3659 0.73906 0.0
C1081 C 0.87298 0.38161 0.72574 0.0
C1082 C 0.82523 0.36652 0.72849 0.0
C1083 C 0.77137 0.40263 0.67955 0.0
H1084 H 0.75024 0.33003 0.66728 0.0
C1085 C 0.66546 0.37591 0.62441 0.0
C1086 C 0.67141 0.35892 0.6012 0.0
C1087 C 0.68744 0.38105 0.6432 0.0
C1088 C 0.75572 0.35042 0.67087 0.0
H1089 H 0.8789 0.41144 0.69186 0.0
H1090 H 0.83014 0.41217 0.673 0.0
H1091 H 0.79346 0.33588 0.69422 0.0
H1092 H 0.70486 0.33386 0.5796 0.0
H1093 H 0.7427 0.34241 0.61252 0.0
H1094 H 0.7338 0.4169 0.6551 0.0
C1095 C 0.8361 0.39959 0.69183 0.0
C1096 C 0.78035 0.35381 0.68642 0.0
C1097 C 0.86405 0.39903 0.70248 0.0
C1098 C 0.69955 0.34712 0.59721 0.0
C1099 C 0.72123 0.35188 0.61611 0.0
C1100 C 0.74643 0.39921 0.66415 0.0
C1101 C 0.81668 0.38277 0.70429 0.0
C1102 C 0.78879 0.37989 0.69043 0.0
C1103 C 0.71541 0.36878 0.63928 0.0
C1104 C 0.73889 0.37302 0.65913 0.0
H1105 H 0.85911 0.35254 0.75729 0.0
H1106 H 0.81059 0.35366 0.73879 0.0
H1107 H 0.77732 0.42295 0.6825 0.0
H1108 H 0.64396 0.38531 0.6279 0.0
H1109 H 0.68256 0.39415 0.661 0.0
C1110 C 0.91763 0.42228 0.83653 0.0
C1111 C 0.93782 0.42496 0.8147 0.0
C1112 C 0.91086 0.44362 0.85526 0.0
C1113 C 0.91554 0.51817 0.85905 0.0
H1114 H 0.89988 0.50729 0.93967 0.0
C1115 C 0.91275 0.60454 0.9397 0.0
C1116 C 0.89087 0.60575 0.96029 0.0
C1117 C 0.91669 0.58254 0.92154 0.0
C1118 C 0.90394 0.51063 0.91711 0.0
H1119 H 0.96818 0.45112 0.79662 0.0
H1120 H 0.95725 0.48745 0.82947 0.0
H1121 H 0.9106 0.46792 0.90984 0.0
H1122 H 0.85559 0.58499 0.97749 0.0
H1123 H 0.8626 0.5467 0.94591 0.0
H1124 H 0.90949 0.5608 0.86641 0.0
C1125 C 0.94566 0.46961 0.83163 0.0
C1126 C 0.91002 0.48806 0.9 0.0
C1127 C 0.95211 0.44862 0.81289 0.0
C1128 C 0.87266 0.58476 0.96187 0.0
C1129 C 0.87679 0.56266 0.94394 0.0
C1130 C 0.90973 0.54064 0.87615 0.0
C1131 C 0.92439 0.46782 0.85257 0.0
C1132 C 0.91627 0.49155 0.87079 0.0
C1133 C 0.89902 0.56116 0.92376 0.0
C1134 C 0.90411 0.53717 0.90543 0.0
H1135 H 0.90628 0.40427 0.83837 0.0
H1136 H 0.89437 0.44152 0.87116 0.0
H1137 H 0.91946 0.52173 0.8365 0.0
H1138 H 0.92722 0.62029 0.93797 0.0
H1139 H 0.93412 0.58189 0.90631 0.0
C1140 C 0.7845 0.64631 0.12049 0.0
C1141 C 0.7814 0.62792 0.09865 0.0
C1142 C 0.76693 0.64634 0.14457 0.0
C1143 C 0.72184 0.60299 0.18606 0.0
H1144 H 0.68266 0.67075 0.21086 0.0
C1145 C 0.61694 0.60954 0.24864 0.0
C1146 C 0.61091 0.63069 0.26766 0.0
C1147 C 0.64251 0.60744 0.23336 0.0
C1148 C 0.69394 0.6517 0.20471 0.0
H1149 H 0.75681 0.59592 0.08449 0.0
H1150 H 0.72624 0.59594 0.12657 0.0
H1151 H 0.71788 0.6714 0.17268 0.0
H1152 H 0.62782 0.66494 0.28735 0.0
H1153 H 0.67273 0.66102 0.26085 0.0
H1154 H 0.69743 0.58322 0.21763 0.0
C1155 C 0.74261 0.60994 0.12526 0.0
C1156 C 0.71401 0.6521 0.18275 0.0
C1157 C 0.76002 0.61 0.10115 0.0
C1158 C 0.63175 0.6486 0.27257 0.0
C1159 C 0.6574 0.64643 0.25734 0.0
C1160 C 0.70189 0.60259 0.20813 0.0
C1161 C 0.7461 0.62792 0.14729 0.0
C1162 C 0.7275 0.6277 0.17272 0.0
C1163 C 0.66261 0.62637 0.23692 0.0
C1164 C 0.68715 0.62689 0.21711 0.0
H1165 H 0.80103 0.66009 0.1195 0.0
H1166 H 0.77007 0.66036 0.16134 0.0
H1167 H 0.73242 0.58394 0.17902 0.0
H1168 H 0.60133 0.59537 0.24448 0.0
H1169 H 0.64575 0.59192 0.21757 0.0
C1170 C 0.62088 0.42064 0.48349 0.0
C1171 C 0.60778 0.41507 0.50974 0.0
C1172 C 0.617 0.44672 0.47076 0.0
C1173 C 0.56466 0.50694 0.4699 0.0
H1174 H 0.62134 0.5389 0.42267 0.0
C1175 C 0.53524 0.5791 0.37529 0.0
C1176 C 0.55086 0.60147 0.36978 0.0
C1177 C 0.54316 0.56057 0.3975 0.0
C1178 C 0.60545 0.53049 0.43622 0.0
H1179 H 0.58179 0.43282 0.54405 0.0
H1180 H 0.57546 0.47814 0.52214 0.0
H1181 H 0.63538 0.49788 0.45193 0.0
H1182 H 0.58652 0.62259 0.38359 0.0
H1183 H 0.60091 0.58952 0.42263 0.0
H1184 H 0.53462 0.53904 0.45373 0.0
C1185 C 0.58814 0.46233 0.511 0.0
C1186 C 0.61338 0.50683 0.45266 0.0
C1187 C 0.59183 0.43632 0.52358 0.0
C1188 C 0.57407 0.60555 0.38758 0.0
C1189 C 0.58237 0.5866 0.40969 0.0
C1190 C 0.55677 0.53046 0.45349 0.0
C1191 C 0.60009 0.46772 0.48413 0.0
C1192 C 0.59289 0.49444 0.46916 0.0
C1193 C 0.56713 0.56377 0.41457 0.0
C1194 C 0.57687 0.54204 0.43587 0.0
H1195 H 0.63334 0.40468 0.47236 0.0
H1196 H 0.62627 0.45011 0.44991 0.0
H1197 H 0.54824 0.49786 0.48212 0.0
H1198 H 0.51719 0.57553 0.36192 0.0
H1199 H 0.53121 0.54304 0.4005 0.0
C1200 C 0.3048 0.37602 0.12634 0.0
C1201 C 0.284 0.37593 0.10472 0.0
C1202 C 0.32535 0.35382 0.13043 0.0
C1203 C 0.33108 0.28102 0.12233 0.0
H1204 H 0.41096 0.28336 0.14239 0.0
C1205 C 0.40387 0.18371 0.15373 0.0
C1206 C 0.42345 0.18582 0.17604 0.0
C1207 C 0.38868 0.20703 0.14168 0.0
C1208 C 0.38861 0.28238 0.13709 0.0
H1209 H 0.26989 0.35354 0.06902 0.0
H1210 H 0.30568 0.31491 0.07631 0.0
H1211 H 0.38244 0.325 0.12642 0.0
H1212 H 0.44203 0.21385 0.2037 0.0
H1213 H 0.41492 0.25419 0.18351 0.0
H1214 H 0.33662 0.23882 0.13412 0.0
C1215 C 0.30585 0.33196 0.09025 0.0
C1216 C 0.37239 0.30621 0.12781 0.0
C1217 C 0.28546 0.35416 0.08603 0.0
C1218 C 0.42725 0.21157 0.18634 0.0
C1219 C 0.41188 0.23477 0.17457 0.0
C1220 C 0.34716 0.25728 0.13191 0.0
C1221 C 0.32532 0.33117 0.11308 0.0
C1222 C 0.34341 0.30577 0.12059 0.0
C1223 C 0.39255 0.23286 0.15194 0.0
C1224 C 0.37604 0.25772 0.13977 0.0
H1225 H 0.30425 0.3925 0.14107 0.0
H1226 H 0.34011 0.35368 0.14826 0.0
H1227 H 0.30862 0.28019 0.11733 0.0
H1228 H 0.40067 0.16413 0.14523 0.0
H1229 H 0.37418 0.20481 0.12408 0.0
C1230 C 0.87777 0.2667 0.80046 0.0
C1231 C 0.90454 0.26678 0.81397 0.0
C1232 C 0.8601 0.24603 0.80677 0.0
C1233 C 0.86049 0.17615 0.83873 0.0
H1234 H 0.77935 0.19671 0.84903 0.0
C1235 C 0.78231 0.10002 0.88204 0.0
C1236 C 0.75546 0.10126 0.86841 0.0
C1237 C 0.80094 0.12009 0.87624 0.0
C1238 C 0.80191 0.19052 0.84598 0.0
H1239 H 0.93415 0.24443 0.84378 0.0
H1240 H 0.90335 0.20875 0.85501 0.0
H1241 H 0.81091 0.23129 0.83581 0.0
H1242 H 0.72721 0.12475 0.83806 0.0
H1243 H 0.75947 0.15918 0.82794 0.0
H1244 H 0.8514 0.13533 0.84885 0.0
C1245 C 0.89594 0.22458 0.8395 0.0
C1246 C 0.82002 0.2104 0.83831 0.0
C1247 C 0.91352 0.24526 0.83328 0.0
C1248 C 0.74764 0.12311 0.84912 0.0
C1249 C 0.76613 0.14306 0.84339 0.0
C1250 C 0.84233 0.15624 0.84638 0.0
C1251 C 0.86884 0.22484 0.82661 0.0
C1252 C 0.84954 0.20349 0.83446 0.0
C1253 C 0.79306 0.14186 0.85678 0.0
C1254 C 0.81276 0.16314 0.84995 0.0
H1255 H 0.8701 0.283 0.78561 0.0
H1256 H 0.83952 0.24669 0.79614 0.0
H1257 H 0.88306 0.17003 0.83567 0.0
H1258 H 0.78903 0.08347 0.89697 0.0
H1259 H 0.82142 0.11864 0.88714 0.0
C1260 C 0.10967 0.4534 0.10884 0.0
C1261 C 0.13418 0.46654 0.11443 0.0
C1262 C 0.08249 0.46727 0.11091 0.0
C1263 C 0.04348 0.53257 0.1337 0.0
H1264 H 0.99314 0.5192 0.07102 0.0
C1265 C 0.96623 0.61249 0.07632 0.0
C1266 C 0.93906 0.6057 0.06827 0.0
C1267 C 0.98551 0.59334 0.09025 0.0
C1268 C 0.00662 0.52276 0.08905 0.0
H1269 H 0.14976 0.50402 0.12744 0.0
H1270 H 0.10236 0.52893 0.1294 0.0
H1271 H 0.03649 0.48918 0.07939 0.0
H1272 H 0.91011 0.5741 0.06944 0.0
H1273 H 0.94453 0.54003 0.09304 0.0
H1274 H 0.01436 0.56767 0.14155 0.0
C1275 C 0.10389 0.50765 0.12438 0.0
C1276 C 0.03153 0.50552 0.09395 0.0
C1277 C 0.1311 0.49353 0.12297 0.0
C1278 C 0.931 0.57975 0.0754 0.0
C1279 C 0.95057 0.56035 0.08888 0.0
C1280 C 0.01875 0.5501 0.12845 0.0
C1281 C 0.07926 0.4948 0.11789 0.0
C1282 C 0.05073 0.51067 0.11579 0.0
C1283 C 0.97813 0.56692 0.09596 0.0
C1284 C 0.00059 0.54571 0.10557 0.0
H1285 H 0.11152 0.43236 0.10279 0.0
H1286 H 0.06403 0.45649 0.10651 0.0
H1287 H 0.05739 0.53677 0.15114 0.0
H1288 H 0.97283 0.63247 0.0713 0.0
H1289 H 0.00676 0.59876 0.09517 0.0
C1290 C 0.74316 0.88985 0.38589 0.0
C1291 C 0.76863 0.88769 0.36998 0.0
C1292 C 0.72425 0.86984 0.38459 0.0
C1293 C 0.70397 0.81856 0.33565 0.0
H1294 H 0.65655 0.79795 0.39907 0.0
C1295 C 0.62124 0.73983 0.32728 0.0
C1296 C 0.59438 0.74685 0.33981 0.0
C1297 C 0.6439 0.75559 0.33145 0.0
C1298 C 0.66957 0.80367 0.38116 0.0
H1299 H 0.79526 0.86203 0.34178 0.0
H1300 H 0.76252 0.82682 0.34001 0.0
H1301 H 0.69513 0.82653 0.40739 0.0
H1302 H 0.56999 0.77655 0.36552 0.0
H1303 H 0.60962 0.80397 0.37293 0.0
H1304 H 0.67826 0.79582 0.30942 0.0
C1305 C 0.75682 0.8443 0.35292 0.0
C1306 C 0.69164 0.81998 0.38591 0.0
C1307 C 0.77565 0.86438 0.35409 0.0
C1308 C 0.59053 0.77034 0.35601 0.0
C1309 C 0.61321 0.786 0.3603 0.0
C1310 C 0.682 0.80213 0.33094 0.0
C1311 C 0.73055 0.84721 0.36748 0.0
C1312 C 0.70883 0.8279 0.36313 0.0
C1313 C 0.64018 0.7786 0.34833 0.0
C1314 C 0.66435 0.79487 0.35357 0.0
H1315 H 0.73714 0.9076 0.39831 0.0
H1316 H 0.70407 0.87281 0.39587 0.0
H1317 H 0.71649 0.82469 0.31754 0.0
H1318 H 0.62511 0.72167 0.31504 0.0
H1319 H 0.66456 0.74936 0.32213 0.0
C1320 C 0.47717 0.39508 0.58017 0.0
C1321 C 0.49544 0.3925 0.60415 0.0
C1322 C 0.45021 0.40979 0.58157 0.0
C1323 C 0.41225 0.46482 0.62132 0.0
H1324 H 0.34417 0.44295 0.58496 0.0
C1325 C 0.3078 0.53269 0.62736 0.0
C1326 C 0.2935 0.5384 0.60121 0.0
C1327 C 0.32854 0.51062 0.63034 0.0
C1328 C 0.36303 0.44935 0.59513 0.0
H1329 H 0.4994 0.40316 0.6485 0.0
H1330 H 0.4524 0.42837 0.65103 0.0
H1331 H 0.38879 0.41282 0.58462 0.0
H1332 H 0.28795 0.52442 0.55834 0.0
H1333 H 0.32479 0.48613 0.56326 0.0
H1334 H 0.38714 0.50153 0.63116 0.0
C1335 C 0.459 0.41922 0.63106 0.0
C1336 C 0.38855 0.43213 0.59491 0.0
C1337 C 0.48588 0.40453 0.62968 0.0
C1338 C 0.29863 0.5204 0.57878 0.0
C1339 C 0.31974 0.49845 0.58163 0.0
C1340 C 0.38689 0.48198 0.62148 0.0
C1341 C 0.441 0.4223 0.60694 0.0
C1342 C 0.41346 0.43978 0.60792 0.0
C1343 C 0.33578 0.49406 0.60706 0.0
C1344 C 0.36196 0.47455 0.60834 0.0
H1345 H 0.48365 0.38575 0.56031 0.0
H1346 H 0.43692 0.41198 0.56255 0.0
H1347 H 0.43118 0.47159 0.631 0.0
H1348 H 0.30397 0.54608 0.64513 0.0
H1349 H 0.33989 0.50732 0.6505 0.0
C1350 C 0.19998 0.69568 0.54394 0.0
C1351 C 0.22335 0.68886 0.56239 0.0
C1352 C 0.18799 0.72267 0.54105 0.0
C1353 C 0.19616 0.79307 0.56639 0.0
H1354 H 0.11622 0.79056 0.58614 0.0
C1355 C 0.11766 0.87234 0.62961 0.0
C1356 C 0.1091 0.85854 0.65444 0.0
C1357 C 0.1335 0.85807 0.6085 0.0
C1358 C 0.13834 0.79185 0.57997 0.0
H1359 H 0.25444 0.70516 0.58978 0.0
H1360 H 0.23327 0.75143 0.58562 0.0
H1361 H 0.14128 0.75277 0.56201 0.0
H1362 H 0.11252 0.81996 0.67804 0.0
H1363 H 0.14024 0.79535 0.64157 0.0
H1364 H 0.19345 0.83116 0.58749 0.0
C1365 C 0.22412 0.73644 0.57302 0.0
C1366 C 0.15274 0.77025 0.5659 0.0
C1367 C 0.23602 0.70966 0.57586 0.0
C1368 C 0.11862 0.83101 0.65899 0.0
C1369 C 0.13429 0.81691 0.6381 0.0
C1370 C 0.1817 0.81468 0.58071 0.0
C1371 C 0.1992 0.74316 0.55661 0.0
C1372 C 0.18233 0.76973 0.56081 0.0
C1373 C 0.14077 0.83003 0.61225 0.0
C1374 C 0.15321 0.81325 0.58913 0.0
H1375 H 0.19008 0.68008 0.53291 0.0
H1376 H 0.16903 0.72724 0.52789 0.0
H1377 H 0.2188 0.79358 0.56206 0.0
H1378 H 0.11038 0.89357 0.62559 0.0
H1379 H 0.13859 0.8685 0.58873 0.0
C1380 C 0.47566 0.85446 0.92546 0.0
C1381 C 0.4554 0.85669 0.90311 0.0
C1382 C 0.49915 0.86996 0.92463 0.0
C1383 C 0.52339 0.93238 0.89121 0.0
H1384 H 0.5999 0.89993 0.91036 0.0
C1385 C 0.62213 0.98755 0.8634 0.0
C1386 C 0.64431 0.98696 0.88368 0.0
C1387 C 0.60001 0.97082 0.86695 0.0
C1388 C 0.57863 0.90938 0.90528 0.0
H1389 H 0.44385 0.87735 0.86261 0.0
H1390 H 0.48473 0.90406 0.86103 0.0
H1391 H 0.55919 0.87268 0.91493 0.0
H1392 H 0.66105 0.96764 0.92325 0.0
H1393 H 0.62209 0.93844 0.92961 0.0
H1394 H 0.54257 0.96901 0.88157 0.0
C1395 C 0.48245 0.89044 0.87929 0.0
C1396 C 0.5553 0.89377 0.9079 0.0
C1397 C 0.45914 0.87488 0.88004 0.0
C1398 C 0.64427 0.96859 0.90724 0.0
C1399 C 0.62199 0.95181 0.91083 0.0
C1400 C 0.54661 0.94795 0.88867 0.0
C1401 C 0.50275 0.88821 0.90156 0.0
C1402 C 0.52746 0.90501 0.90049 0.0
C1403 C 0.59932 0.95308 0.89095 0.0
C1404 C 0.5746 0.93658 0.89524 0.0
H1405 H 0.4736 0.84047 0.94341 0.0
H1406 H 0.5143 0.86788 0.94221 0.0
H1407 H 0.50217 0.94185 0.88593 0.0
H1408 H 0.62156 0.00127 0.84487 0.0
H1409 H 0.58332 0.97189 0.85085 0.0
C1410 C 0.85574 0.03692 0.36706 0.0
C1411 C 0.85985 0.01527 0.3483 0.0
C1412 C 0.87626 0.05537 0.36925 0.0
C1413 C 0.94105 0.07924 0.33504 0.0
H1414 H 0.963 0.09183 0.41309 0.0
C1415 C 0.04989 0.1156 0.36235 0.0
C1416 C 0.0507 0.13578 0.3827 0.0
C1417 C 0.02491 0.10316 0.35792 0.0
C1418 C 0.95688 0.08886 0.39118 0.0
H1419 H 0.88785 0.997 0.31584 0.0
H1420 H 0.92375 0.02908 0.31978 0.0
H1421 H 0.9213 0.0675 0.40415 0.0
H1422 H 0.02597 0.15835 0.41477 0.0
H1423 H 0.98222 0.13637 0.4072 0.0
H1424 H 0.97705 0.10009 0.32212 0.0
C1425 C 0.90459 0.03192 0.3327 0.0
C1426 C 0.93293 0.07498 0.38602 0.0
C1427 C 0.88403 0.01346 0.33048 0.0
C1428 C 0.02613 0.14268 0.39916 0.0
C1429 C 0.00106 0.13018 0.39473 0.0
C1430 C 0.965 0.09309 0.34019 0.0
C1431 C 0.90133 0.05258 0.35272 0.0
C1432 C 0.92501 0.06966 0.35791 0.0
C1433 C 0.0001 0.11056 0.37376 0.0
C1434 C 0.97345 0.09764 0.36833 0.0
H1435 H 0.83721 0.039 0.38089 0.0
H1436 H 0.87287 0.07139 0.38448 0.0
H1437 H 0.93525 0.07581 0.31314 0.0
H1438 H 0.06861 0.10943 0.34974 0.0
H1439 H 0.02507 0.08764 0.34211 0.0
loop_
_geom_bond_atom_site_label_1
_geom_bond_atom_site_label_2
_geom_bond_distance
_geom_bond_site_symmetry_2
_ccdc_geom_bond_type
Co0 N5 2.057 . S
Co0 O17 2.021 . S
Co0 O20 2.062 . S
Co0 O24 2.117 . S
Co0 O25 2.020 . S
C1 O21 1.259 . S
C1 O24 1.258 . S
Co2 N11 2.057 . S
Co2 O18 2.117 . S
Co2 O19 2.020 . S
Co2 O21 2.021 . S
Co2 O26 2.062 . S
C3 N5 1.316 . S
C3 N6 1.347 . S
C3 H8 0.931 . S
C4 N5 1.375 . S
C4 C7 1.350 . S
C4 H9 0.930 . S
N5 Co0 2.057 . S
N5 C3 1.316 . S
N5 C4 1.375 . S
N6 C3 1.347 . S
N6 C7 1.373 . S
C7 C4 1.350 . S
C7 N6 1.373 . S
C7 H28 0.931 . S
H8 C3 0.931 . S
H9 C4 0.930 . S
C10 O17 1.259 . S
C10 O18 1.258 . S
N11 Co2 2.057 . S
N11 C12 1.316 . S
N11 C13 1.375 . S
C12 N11 1.316 . S
C12 N14 1.347 . S
C12 H23 0.931 . S
C13 N11 1.375 . S
C13 C15 1.350 . S
C13 H22 0.930 . S
N14 C12 1.347 . S
N14 C15 1.373 . S
C15 C13 1.350 . S
C15 N14 1.373 . S
C15 H29 0.931 . S
C16 O19 1.256 . S
C16 O20 1.255 . S
O17 Co0 2.021 . S
O17 C10 1.259 . S
O18 Co2 2.117 . S
O18 C10 1.258 . S
O19 Co2 2.020 . S
O19 C16 1.256 . S
O20 Co0 2.062 . S
O20 C16 1.255 . S
O21 C1 1.259 . S
O21 Co2 2.021 . S
H22 C13 0.930 . S
H23 C12 0.931 . S
O24 Co0 2.117 . S
O24 C1 1.258 . S
O25 Co0 2.020 . S
O25 C27 1.256 . S
O26 Co2 2.062 . S
O26 C27 1.255 . S
C27 O25 1.256 . S
C27 O26 1.255 . S
H28 C7 0.931 . S
H29 C15 0.931 . S
Co30 N35 2.057 . S
Co30 O47 2.021 . S
Co30 O50 2.062 . S
Co30 O54 2.117 . S
Co30 O55 2.020 . S
C31 O51 1.259 . S
C31 O54 1.258 . S
Co32 N41 2.057 . S
Co32 O48 2.117 . S
Co32 O49 2.020 . S
Co32 O51 2.021 . S
Co32 O56 2.062 . S
C33 N35 1.316 . S
C33 N36 1.347 . S
C33 H38 0.931 . S
C34 N35 1.375 . S
C34 C37 1.350 1_455 S
C34 H39 0.930 1_455 S
N35 Co30 2.057 . S
N35 C33 1.316 . S
N35 C34 1.375 . S
N36 C33 1.347 . S
N36 C37 1.373 1_455 S
C37 C34 1.350 1_655 S
C37 N36 1.373 1_655 S
C37 H58 0.931 . S
H38 C33 0.931 . S
H39 C34 0.930 1_655 S
C40 O47 1.259 . S
C40 O48 1.258 . S
N41 Co32 2.057 . S
N41 C42 1.316 . S
N41 C43 1.375 . S
C42 N41 1.316 . S
C42 N44 1.347 . S
C42 H53 0.931 . S
C43 N41 1.375 . S
C43 C45 1.350 . S
C43 H52 0.930 . S
N44 C42 1.347 . S
N44 C45 1.373 . S
C45 C43 1.350 . S
C45 N44 1.373 . S
C45 H59 0.931 . S
C46 O49 1.256 . S
C46 O50 1.255 . S
O47 Co30 2.021 . S
O47 C40 1.259 . S
O48 Co32 2.117 . S
O48 C40 1.258 . S
O49 Co32 2.020 . S
O49 C46 1.256 . S
O50 Co30 2.062 . S
O50 C46 1.255 . S
O51 C31 1.259 . S
O51 Co32 2.021 . S
H52 C43 0.930 . S
H53 C42 0.931 . S
O54 Co30 2.117 . S
O54 C31 1.258 . S
O55 Co30 2.020 . S
O55 C57 1.256 . S
O56 Co32 2.062 . S
O56 C57 1.255 . S
C57 O55 1.256 . S
C57 O56 1.255 . S
H58 C37 0.931 . S
H59 C45 0.931 . S
Co60 N65 2.057 . S
Co60 O77 2.021 . S
Co60 O80 2.062 . S
Co60 O84 2.117 . S
Co60 O85 2.020 . S
C61 O81 1.259 . S
C61 O84 1.258 . S
Co62 N71 2.057 . S
Co62 O78 2.117 . S
Co62 O79 2.020 . S
Co62 O81 2.021 . S
Co62 O86 2.062 . S
C63 N65 1.316 . S
C63 N66 1.347 1_556 S
C63 H68 0.931 . S
C64 N65 1.375 1_554 S
C64 C67 1.350 . S
C64 H69 0.930 . S
N65 Co60 2.057 . S
N65 C63 1.316 . S
N65 C64 1.375 1_556 S
N66 C63 1.347 1_554 S
N66 C67 1.373 . S
C67 C64 1.350 . S
C67 N66 1.373 . S
C67 H88 0.931 . S
H68 C63 0.931 . S
H69 C64 0.930 . S
C70 O77 1.259 . S
C70 O78 1.258 . S
N71 Co62 2.057 . S
N71 C72 1.316 . S
N71 C73 1.375 . S
C72 N71 1.316 . S
C72 N74 1.347 . S
C72 H83 0.931 . S
C73 N71 1.375 . S
C73 C75 1.350 . S
C73 H82 0.930 . S
N74 C72 1.347 . S
N74 C75 1.373 . S
C75 C73 1.350 . S
C75 N74 1.373 . S
C75 H89 0.931 . S
C76 O79 1.256 . S
C76 O80 1.255 . S
O77 Co60 2.021 . S
O77 C70 1.259 . S
O78 Co62 2.117 . S
O78 C70 1.258 . S
O79 Co62 2.020 . S
O79 C76 1.256 . S
O80 Co60 2.062 . S
O80 C76 1.255 . S
O81 C61 1.259 . S
O81 Co62 2.021 . S
H82 C73 0.930 . S
H83 C72 0.931 . S
O84 Co60 2.117 . S
O84 C61 1.258 . S
O85 Co60 2.020 . S
O85 C87 1.256 . S
O86 Co62 2.062 . S
O86 C87 1.255 . S
C87 O85 1.256 . S
C87 O86 1.255 . S
H88 C67 0.931 . S
H89 C75 0.931 . S
Co90 N95 2.057 . S
Co90 O107 2.021 . S
Co90 O110 2.062 . S
Co90 O114 2.117 . S
Co90 O115 2.020 . S
C91 O111 1.259 . S
C91 O114 1.258 . S
Co92 N101 2.057 . S
Co92 O108 2.117 . S
Co92 O109 2.020 . S
Co92 O111 2.021 . S
Co92 O116 2.062 . S
C93 N95 1.316 . S
C93 N96 1.347 . S
C93 H98 0.931 . S
C94 N95 1.375 . S
C94 C97 1.350 . S
C94 H99 0.930 . S
N95 Co90 2.057 . S
N95 C93 1.316 . S
N95 C94 1.375 . S
N96 C93 1.347 . S
N96 C97 1.373 . S
C97 C94 1.350 . S
C97 N96 1.373 . S
C97 H118 0.931 . S
H98 C93 0.931 . S
H99 C94 0.930 . S
C100 O107 1.259 . S
C100 O108 1.258 . S
N101 Co92 2.057 . S
N101 C102 1.316 . S
N101 C103 1.375 . S
C102 N101 1.316 . S
C102 N104 1.347 . S
C102 H113 0.931 . S
C103 N101 1.375 . S
C103 C105 1.350 . S
C103 H112 0.930 . S
N104 C102 1.347 . S
N104 C105 1.373 . S
C105 C103 1.350 . S
C105 N104 1.373 . S
C105 H119 0.931 . S
C106 O109 1.256 . S
C106 O110 1.255 . S
O107 Co90 2.021 . S
O107 C100 1.259 . S
O108 Co92 2.117 . S
O108 C100 1.258 . S
O109 Co92 2.020 . S
O109 C106 1.256 . S
O110 Co90 2.062 . S
O110 C106 1.255 . S
O111 C91 1.259 . S
O111 Co92 2.021 . S
H112 C103 0.930 . S
H113 C102 0.931 . S
O114 Co90 2.117 . S
O114 C91 1.258 . S
O115 Co90 2.020 . S
O115 C117 1.256 . S
O116 Co92 2.062 . S
O116 C117 1.255 . S
C117 O115 1.256 . S
C117 O116 1.255 . S
H118 C97 0.931 . S
H119 C105 0.931 . S
Co120 N125 2.057 . S
Co120 O137 2.021 . S
Co120 O140 2.062 . S
Co120 O144 2.117 . S
Co120 O145 2.020 . S
C121 O141 1.259 . S
C121 O144 1.258 . S
Co122 N131 2.057 . S
Co122 O138 2.117 . S
Co122 O139 2.020 . S
Co122 O141 2.021 . S
Co122 O146 2.062 . S
C123 N125 1.316 . S
C123 N126 1.347 . S
C123 H128 0.931 . S
C124 N125 1.375 . S
C124 C127 1.350 . S
C124 H129 0.930 . S
N125 Co120 2.057 . S
N125 C123 1.316 . S
N125 C124 1.375 . S
N126 C123 1.347 . S
N126 C127 1.373 . S
C127 C124 1.350 . S
C127 N126 1.373 . S
C127 H148 0.931 . S
H128 C123 0.931 . S
H129 C124 0.930 . S
C130 O137 1.259 . S
C130 O138 1.258 . S
N131 Co122 2.057 . S
N131 C132 1.316 . S
N131 C133 1.375 . S
C132 N131 1.316 . S
C132 N134 1.347 . S
C132 H143 0.931 . S
C133 N131 1.375 . S
C133 C135 1.350 . S
C133 H142 0.930 . S
N134 C132 1.347 . S
N134 C135 1.373 . S
C135 C133 1.350 . S
C135 N134 1.373 . S
C135 H149 0.931 . S
C136 O139 1.256 . S
C136 O140 1.255 . S
O137 Co120 2.021 . S
O137 C130 1.259 . S
O138 Co122 2.117 . S
O138 C130 1.258 . S
O139 Co122 2.020 . S
O139 C136 1.256 . S
O140 Co120 2.062 . S
O140 C136 1.255 . S
O141 C121 1.259 . S
O141 Co122 2.021 . S
H142 C133 0.930 . S
H143 C132 0.931 . S
O144 Co120 2.117 . S
O144 C121 1.258 . S
O145 Co120 2.020 . S
O145 C147 1.256 . S
O146 Co122 2.062 . S
O146 C147 1.255 . S
C147 O145 1.256 . S
C147 O146 1.255 . S
H148 C127 0.931 . S
H149 C135 0.931 . S
Co150 N155 2.057 . S
Co150 O167 2.021 . S
Co150 O170 2.062 . S
Co150 O174 2.117 . S
Co150 O175 2.020 . S
C151 O171 1.259 . S
C151 O174 1.258 . S
Co152 N161 2.057 . S
Co152 O168 2.117 . S
Co152 O169 2.020 . S
Co152 O171 2.021 . S
Co152 O176 2.062 . S
C153 N155 1.316 . S
C153 N156 1.347 1_655 S
C153 H158 0.931 . S
C154 N155 1.375 . S
C154 C157 1.350 1_655 S
C154 H159 0.930 . S
N155 Co150 2.057 . S
N155 C153 1.316 . S
N155 C154 1.375 . S
N156 C153 1.347 1_455 S
N156 C157 1.373 . S
C157 C154 1.350 1_455 S
C157 N156 1.373 . S
C157 H178 0.931 . S
H158 C153 0.931 . S
H159 C154 0.930 . S
C160 O167 1.259 . S
C160 O168 1.258 . S
N161 Co152 2.057 . S
N161 C162 1.316 . S
N161 C163 1.375 . S
C162 N161 1.316 . S
C162 N164 1.347 . S
C162 H173 0.931 . S
C163 N161 1.375 . S
C163 C165 1.350 . S
C163 H172 0.930 . S
N164 C162 1.347 . S
N164 C165 1.373 . S
C165 C163 1.350 . S
C165 N164 1.373 . S
C165 H179 0.931 . S
C166 O169 1.256 . S
C166 O170 1.255 . S
O167 Co150 2.021 . S
O167 C160 1.259 . S
O168 Co152 2.117 . S
O168 C160 1.258 . S
O169 Co152 2.020 . S
O169 C166 1.256 . S
O170 Co150 2.062 . S
O170 C166 1.255 . S
O171 C151 1.259 . S
O171 Co152 2.021 . S
H172 C163 0.930 . S
H173 C162 0.931 . S
O174 Co150 2.117 . S
O174 C151 1.258 . S
O175 Co150 2.020 . S
O175 C177 1.256 . S
O176 Co152 2.062 . S
O176 C177 1.255 . S
C177 O175 1.256 . S
C177 O176 1.255 . S
H178 C157 0.931 . S
H179 C165 0.931 . S
Co180 N185 2.057 1_554 S
Co180 O197 2.021 . S
Co180 O200 2.062 1_554 S
Co180 O204 2.117 . S
Co180 O205 2.020 . S
C181 O201 1.259 . S
C181 O204 1.258 . S
Co182 N191 2.057 . S
Co182 O198 2.117 . S
Co182 O199 2.020 . S
Co182 O201 2.021 . S
Co182 O206 2.062 . S
C183 N185 1.316 . S
C183 N186 1.347 . S
C183 H188 0.931 . S
C184 N185 1.375 . S
C184 C187 1.350 . S
C184 H189 0.930 . S
N185 Co180 2.057 1_556 S
N185 C183 1.316 . S
N185 C184 1.375 . S
N186 C183 1.347 . S
N186 C187 1.373 . S
C187 C184 1.350 . S
C187 N186 1.373 . S
C187 H208 0.931 . S
H188 C183 0.931 . S
H189 C184 0.930 . S
C190 O197 1.259 . S
C190 O198 1.258 . S
N191 Co182 2.057 . S
N191 C192 1.316 . S
N191 C193 1.375 . S
C192 N191 1.316 . S
C192 N194 1.347 . S
C192 H203 0.931 . S
C193 N191 1.375 . S
C193 C195 1.350 . S
C193 H202 0.930 . S
N194 C192 1.347 . S
N194 C195 1.373 . S
C195 C193 1.350 . S
C195 N194 1.373 . S
C195 H209 0.931 . S
C196 O199 1.272 . S
C196 O200 1.254 1_554 S
O197 Co180 2.021 . S
O197 C190 1.259 . S
O198 Co182 2.117 . S
O198 C190 1.258 . S
O199 Co182 2.020 . S
O199 C196 1.272 . S
O200 Co180 2.062 1_556 S
O200 C196 1.254 1_556 S
O201 C181 1.259 . S
O201 Co182 2.021 . S
H202 C193 0.930 . S
H203 C192 0.931 . S
O204 Co180 2.117 . S
O204 C181 1.258 . S
O205 Co180 2.020 . S
O205 C207 1.256 . S
O206 Co182 2.062 . S
O206 C207 1.255 . S
C207 O205 1.256 . S
C207 O206 1.255 . S
H208 C187 0.931 . S
H209 C195 0.931 . S
Co210 N215 2.057 . S
Co210 O227 2.021 . S
Co210 O230 2.062 . S
Co210 O234 2.117 . S
Co210 O235 2.020 . S
C211 O231 1.259 . S
C211 O234 1.258 . S
Co212 N221 2.057 . S
Co212 O228 2.117 . S
Co212 O229 2.020 . S
Co212 O231 2.021 . S
Co212 O236 2.062 . S
C213 N215 1.316 . S
C213 N216 1.347 . S
C213 H218 0.931 . S
C214 N215 1.375 . S
C214 C217 1.350 . S
C214 H219 0.930 . S
N215 Co210 2.057 . S
N215 C213 1.316 . S
N215 C214 1.375 . S
N216 C213 1.347 . S
N216 C217 1.373 . S
C217 C214 1.350 . S
C217 N216 1.373 . S
C217 H238 0.931 . S
H218 C213 0.931 . S
H219 C214 0.930 . S
C220 O227 1.259 . S
C220 O228 1.258 . S
N221 Co212 2.057 . S
N221 C222 1.316 . S
N221 C223 1.375 . S
C222 N221 1.316 . S
C222 N224 1.347 . S
C222 H233 0.931 . S
C223 N221 1.375 . S
C223 C225 1.350 . S
C223 H232 0.930 . S
N224 C222 1.347 . S
N224 C225 1.373 . S
C225 C223 1.350 . S
C225 N224 1.373 . S
C225 H239 0.931 . S
C226 O229 1.256 . S
C226 O230 1.255 . S
O227 Co210 2.021 . S
O227 C220 1.259 . S
O228 Co212 2.117 . S
O228 C220 1.258 . S
O229 Co212 2.020 . S
O229 C226 1.256 . S
O230 Co210 2.062 . S
O230 C226 1.255 . S
O231 C211 1.259 . S
O231 Co212 2.021 . S
H232 C223 0.930 . S
H233 C222 0.931 . S
O234 Co210 2.117 . S
O234 C211 1.258 . S
O235 Co210 2.020 . S
O235 C237 1.256 . S
O236 Co212 2.062 . S
O236 C237 1.255 . S
C237 O235 1.256 . S
C237 O236 1.255 . S
H238 C217 0.931 . S
H239 C225 0.931 . S
Co240 N245 2.057 . S
Co240 O257 2.021 . S
Co240 O260 2.062 . S
Co240 O264 2.117 . S
Co240 O265 2.020 . S
C241 O261 1.259 . S
C241 O264 1.258 . S
Co242 N251 2.057 . S
Co242 O258 2.117 . S
Co242 O259 2.020 . S
Co242 O261 2.021 . S
Co242 O266 2.062 . S
C243 N245 1.316 . S
C243 N246 1.347 . S
C243 H248 0.931 . S
C244 N245 1.375 . S
C244 C247 1.350 . S
C244 H249 0.930 . S
N245 Co240 2.057 . S
N245 C243 1.316 . S
N245 C244 1.375 . S
N246 C243 1.347 . S
N246 C247 1.373 . S
C247 C244 1.350 . S
C247 N246 1.373 . S
C247 H268 0.931 . S
H248 C243 0.931 . S
H249 C244 0.930 . S
C250 O257 1.259 . S
C250 O258 1.258 . S
N251 Co242 2.057 . S
N251 C252 1.316 . S
N251 C253 1.375 . S
C252 N251 1.316 . S
C252 N254 1.347 . S
C252 H263 0.931 . S
C253 N251 1.375 . S
C253 C255 1.350 . S
C253 H262 0.930 . S
N254 C252 1.347 . S
N254 C255 1.373 . S
C255 C253 1.350 . S
C255 N254 1.373 . S
C255 H269 0.931 . S
C256 O259 1.256 . S
C256 O260 1.255 . S
O257 Co240 2.021 . S
O257 C250 1.259 . S
O258 Co242 2.117 . S
O258 C250 1.258 . S
O259 Co242 2.020 . S
O259 C256 1.256 . S
O260 Co240 2.062 . S
O260 C256 1.255 . S
O261 C241 1.259 . S
O261 Co242 2.021 . S
H262 C253 0.930 . S
H263 C252 0.931 . S
O264 Co240 2.117 . S
O264 C241 1.258 . S
O265 Co240 2.020 . S
O265 C267 1.256 . S
O266 Co242 2.062 . S
O266 C267 1.255 . S
C267 O265 1.256 . S
C267 O266 1.255 . S
H268 C247 0.931 . S
H269 C255 0.931 . S
Co270 N275 2.057 1_545 S
Co270 O287 2.021 . S
Co270 O290 2.062 . S
Co270 O294 2.117 . S
Co270 O295 2.020 . S
C271 O291 1.259 . S
C271 O294 1.258 . S
Co272 N281 2.057 . S
Co272 O288 2.117 . S
Co272 O289 2.020 . S
Co272 O291 2.021 . S
Co272 O296 2.062 . S
C273 N275 1.316 . S
C273 N276 1.347 . S
C273 H278 0.931 . S
C274 N275 1.375 . S
C274 C277 1.350 . S
C274 H279 0.930 . S
N275 Co270 2.057 1_565 S
N275 C273 1.316 . S
N275 C274 1.375 . S
N276 C273 1.347 . S
N276 C277 1.373 . S
C277 C274 1.350 . S
C277 N276 1.373 . S
C277 H298 0.931 . S
H278 C273 0.931 . S
H279 C274 0.930 . S
C280 O287 1.259 . S
C280 O288 1.258 . S
N281 Co272 2.057 . S
N281 C282 1.316 . S
N281 C283 1.375 . S
C282 N281 1.316 . S
C282 N284 1.347 . S
C282 H293 0.931 . S
C283 N281 1.375 . S
C283 C285 1.350 . S
C283 H292 0.930 . S
N284 C282 1.347 . S
N284 C285 1.373 . S
C285 C283 1.350 . S
C285 N284 1.373 . S
C285 H299 0.931 . S
C286 O289 1.256 . S
C286 O290 1.255 . S
O287 Co270 2.021 . S
O287 C280 1.259 . S
O288 Co272 2.117 . S
O288 C280 1.258 . S
O289 Co272 2.020 . S
O289 C286 1.256 . S
O290 Co270 2.062 . S
O290 C286 1.255 . S
O291 C271 1.259 . S
O291 Co272 2.021 . S
H292 C283 0.930 . S
H293 C282 0.931 . S
O294 Co270 2.117 . S
O294 C271 1.258 . S
O295 Co270 2.020 . S
O295 C297 1.256 . S
O296 Co272 2.062 . S
O296 C297 1.255 . S
C297 O295 1.256 . S
C297 O296 1.255 . S
H298 C277 0.931 . S
H299 C285 0.931 . S
Co300 N305 2.057 . S
Co300 O317 2.021 . S
Co300 O320 2.062 . S
Co300 O324 2.117 . S
Co300 O325 2.020 . S
C301 O321 1.259 . S
C301 O324 1.258 . S
Co302 N311 2.057 . S
Co302 O318 2.117 . S
Co302 O319 2.020 . S
Co302 O321 2.021 . S
Co302 O326 2.062 . S
C303 N305 1.316 . S
C303 N306 1.347 1_565 S
C303 H308 0.931 . S
C304 N305 1.375 1_545 S
C304 C307 1.350 . S
C304 H309 0.930 . S
N305 Co300 2.057 . S
N305 C303 1.316 . S
N305 C304 1.375 1_565 S
N306 C303 1.347 1_545 S
N306 C307 1.373 . S
C307 C304 1.350 . S
C307 N306 1.373 . S
C307 H328 0.931 . S
H308 C303 0.931 . S
H309 C304 0.930 . S
C310 O317 1.259 . S
C310 O318 1.258 . S
N311 Co302 2.057 . S
N311 C312 1.316 . S
N311 C313 1.375 . S
C312 N311 1.316 . S
C312 N314 1.347 . S
C312 H323 0.931 . S
C313 N311 1.375 . S
C313 C315 1.350 . S
C313 H322 0.930 . S
N314 C312 1.347 . S
N314 C315 1.373 . S
C315 C313 1.350 . S
C315 N314 1.373 . S
C315 H329 0.931 . S
C316 O319 1.256 . S
C316 O320 1.255 . S
O317 Co300 2.021 . S
O317 C310 1.259 . S
O318 Co302 2.117 . S
O318 C310 1.258 . S
O319 Co302 2.020 . S
O319 C316 1.256 . S
O320 Co300 2.062 . S
O320 C316 1.255 . S
O321 C301 1.259 . S
O321 Co302 2.021 . S
H322 C313 0.930 . S
H323 C312 0.931 . S
O324 Co300 2.117 . S
O324 C301 1.258 . S
O325 Co300 2.020 . S
O325 C327 1.256 . S
O326 Co302 2.062 . S
O326 C327 1.255 . S
C327 O325 1.256 . S
C327 O326 1.255 . S
H328 C307 0.931 . S
H329 C315 0.931 . S
Co330 N335 2.057 . S
Co330 O347 2.021 . S
Co330 O350 2.062 . S
Co330 O354 2.117 . S
Co330 O355 2.020 . S
C331 O351 1.259 . S
C331 O354 1.258 . S
Co332 N341 2.057 . S
Co332 O348 2.117 . S
Co332 O349 2.020 . S
Co332 O351 2.021 . S
Co332 O356 2.062 . S
C333 N335 1.316 . S
C333 N336 1.347 . S
C333 H338 0.931 . S
C334 N335 1.375 . S
C334 C337 1.350 . S
C334 H339 0.930 . S
N335 Co330 2.057 . S
N335 C333 1.316 . S
N335 C334 1.375 . S
N336 C333 1.347 . S
N336 C337 1.373 . S
C337 C334 1.350 . S
C337 N336 1.373 . S
C337 H358 0.931 . S
H338 C333 0.931 . S
H339 C334 0.930 . S
C340 O347 1.259 . S
C340 O348 1.258 . S
N341 Co332 2.057 . S
N341 C342 1.316 . S
N341 C343 1.375 . S
C342 N341 1.316 . S
C342 N344 1.347 . S
C342 H353 0.931 . S
C343 N341 1.375 . S
C343 C345 1.350 . S
C343 H352 0.930 . S
N344 C342 1.347 . S
N344 C345 1.373 . S
C345 C343 1.350 . S
C345 N344 1.373 . S
C345 H359 0.931 . S
C346 O349 1.256 . S
C346 O350 1.255 . S
O347 Co330 2.021 . S
O347 C340 1.259 . S
O348 Co332 2.117 . S
O348 C340 1.258 . S
O349 Co332 2.020 . S
O349 C346 1.256 . S
O350 Co330 2.062 . S
O350 C346 1.255 . S
O351 C331 1.259 . S
O351 Co332 2.021 . S
H352 C343 0.930 . S
H353 C342 0.931 . S
O354 Co330 2.117 . S
O354 C331 1.258 . S
O355 Co330 2.020 . S
O355 C357 1.256 . S
O356 Co332 2.062 . S
O356 C357 1.255 . S
C357 O355 1.256 . S
C357 O356 1.255 . S
H358 C337 0.931 . S
H359 C345 0.931 . S
C360 C361 1.349 . S
C360 C362 1.327 . S
C360 H385 0.950 . S
C361 C360 1.349 . S
C361 C377 1.349 . S
C362 C360 1.327 . S
C362 C381 1.429 . S
C362 H386 0.950 . S
C363 C380 1.574 . S
C363 C382 1.368 . S
C363 H387 0.949 . S
H364 C368 0.949 . S
C365 C366 1.349 . S
C365 C367 1.327 . S
C365 H388 0.950 . S
C366 C365 1.349 . S
C366 C378 1.349 . S
C367 C365 1.327 . S
C367 C383 1.429 . S
C367 H389 0.950 . S
C368 H364 0.949 . S
C368 C376 1.574 . S
C368 C384 1.368 . S
H369 C377 0.950 . S
H370 C375 0.950 . S
H371 C376 0.949 . S
H372 C378 0.950 . S
H373 C379 0.950 . S
H374 C380 0.949 . S
C375 H370 0.950 . S
C375 C377 1.327 . S
C375 C381 1.429 . S
C376 C368 1.574 . S
C376 H371 0.949 . S
C376 C382 1.368 . S
C377 C361 1.349 . S
C377 H369 0.950 . S
C377 C375 1.327 . S
C378 C366 1.349 . S
C378 H372 0.950 . S
C378 C379 1.327 . S
C379 H373 0.950 . S
C379 C378 1.327 . S
C379 C383 1.429 . S
C380 C363 1.574 . S
C380 H374 0.949 . S
C380 C384 1.368 . S
C381 C362 1.429 . S
C381 C375 1.429 . S
C381 C382 1.523 . S
C382 C363 1.368 . S
C382 C376 1.368 . S
C382 C381 1.523 . S
C383 C367 1.429 . S
C383 C379 1.429 . S
C383 C384 1.523 . S
C384 C368 1.368 . S
C384 C380 1.368 . S
C384 C383 1.523 . S
H385 C360 0.950 . S
H386 C362 0.950 . S
H387 C363 0.949 . S
H388 C365 0.950 . S
H389 C367 0.950 . S
C390 C391 1.349 1_565 S
C390 C392 1.327 . S
C390 H415 0.950 . S
C391 C390 1.349 1_545 S
C391 C407 1.349 . S
C392 C390 1.327 . S
C392 C411 1.429 . S
C392 H416 0.950 . S
C393 C410 1.567 1_545 S
C393 C412 1.344 1_545 S
C393 H417 0.977 . S
H394 C398 0.949 . S
C395 C396 1.349 . S
C395 C397 1.327 . S
C395 H418 0.950 . S
C396 C395 1.349 . S
C396 C408 1.349 . S
C397 C395 1.327 . S
C397 C413 1.429 . S
C397 H419 0.950 . S
C398 H394 0.949 . S
C398 C406 1.574 . S
C398 C414 1.368 . S
H399 C407 0.950 . S
H400 C405 0.950 . S
H401 C406 0.949 . S
H402 C408 0.950 . S
H403 C409 0.950 . S
H404 C410 0.949 1_545 S
C405 H400 0.950 . S
C405 C407 1.327 . S
C405 C411 1.429 1_545 S
C406 C398 1.574 . S
C406 H401 0.949 . S
C406 C412 1.368 . S
C407 C391 1.349 . S
C407 H399 0.950 . S
C407 C405 1.327 . S
C408 C396 1.349 . S
C408 H402 0.950 . S
C408 C409 1.327 . S
C409 H403 0.950 . S
C409 C408 1.327 . S
C409 C413 1.429 . S
C410 C393 1.567 1_565 S
C410 H404 0.949 1_565 S
C410 C414 1.368 . S
C411 C392 1.429 . S
C411 C405 1.429 1_565 S
C411 C412 1.523 . S
C412 C393 1.344 1_565 S
C412 C406 1.368 . S
C412 C411 1.523 . S
C413 C397 1.429 . S
C413 C409 1.429 . S
C413 C414 1.523 . S
C414 C398 1.368 . S
C414 C410 1.368 . S
C414 C413 1.523 . S
H415 C390 0.950 . S
H416 C392 0.950 . S
H417 C393 0.977 . S
H418 C395 0.950 . S
H419 C397 0.950 . S
C420 C421 1.349 1_556 S
C420 C422 1.327 . S
C420 H445 0.950 . S
C421 C420 1.349 1_554 S
C421 C437 1.349 . S
C422 C420 1.327 . S
C422 C441 1.429 1_556 S
C422 H446 0.950 . S
C423 C440 1.574 . S
C423 C442 1.368 . S
C423 H447 0.949 . S
H424 C428 0.949 1_556 S
C425 C426 1.349 . S
C425 C427 1.327 . S
C425 H448 0.950 . S
C426 C425 1.349 . S
C426 C438 1.349 . S
C427 C425 1.327 . S
C427 C443 1.429 . S
C427 H449 0.950 . S
C428 H424 0.949 1_554 S
C428 C436 1.574 . S
C428 C444 1.368 . S
H429 C437 0.950 . S
H430 C435 0.950 . S
H431 C436 0.949 1_556 S
H432 C438 0.950 . S
H433 C439 0.950 . S
H434 C440 0.949 . S
C435 H430 0.950 . S
C435 C437 1.327 . S
C435 C441 1.429 . S
C436 C428 1.574 . S
C436 H431 0.949 1_554 S
C436 C442 1.368 . S
C437 C421 1.349 . S
C437 H429 0.950 . S
C437 C435 1.327 . S
C438 C426 1.349 . S
C438 H432 0.950 . S
C438 C439 1.327 . S
C439 H433 0.950 . S
C439 C438 1.327 . S
C439 C443 1.429 . S
C440 C423 1.574 . S
C440 H434 0.949 . S
C440 C444 1.368 . S
C441 C422 1.429 1_554 S
C441 C435 1.429 . S
C441 C442 1.523 . S
C442 C423 1.368 . S
C442 C436 1.368 . S
C442 C441 1.523 . S
C443 C427 1.429 . S
C443 C439 1.429 . S
C443 C444 1.523 . S
C444 C428 1.368 . S
C444 C440 1.368 . S
C444 C443 1.523 . S
H445 C420 0.950 . S
H446 C422 0.950 . S
H447 C423 0.949 . S
H448 C425 0.950 . S
H449 C427 0.950 . S
C450 C451 1.349 . S
C450 C452 1.327 . S
C450 H475 0.950 . S
C451 C450 1.349 . S
C451 C467 1.349 . S
C452 C450 1.327 . S
C452 C471 1.429 . S
C452 H476 0.950 . S
C453 C470 1.574 . S
C453 C472 1.368 . S
C453 H477 0.949 . S
H454 C458 0.949 . S
C455 C456 1.349 . S
C455 C457 1.327 . S
C455 H478 0.950 . S
C456 C455 1.349 . S
C456 C468 1.376 . S
C457 C455 1.327 . S
C457 C473 1.429 1_565 S
C457 H479 0.950 . S
C458 H454 0.949 . S
C458 C466 1.574 . S
C458 C474 1.368 . S
H459 C467 0.950 . S
H460 C465 0.950 . S
H461 C466 0.949 . S
H462 C468 0.936 1_545 S
H463 C469 0.950 . S
H464 C470 0.949 1_565 S
C465 H460 0.950 . S
C465 C467 1.327 . S
C465 C471 1.429 . S
C466 C458 1.574 . S
C466 H461 0.949 . S
C466 C472 1.368 . S
C467 C451 1.349 . S
C467 H459 0.950 . S
C467 C465 1.327 . S
C468 C456 1.376 . S
C468 H462 0.936 1_565 S
C468 C469 1.315 1_565 S
C469 H463 0.950 . S
C469 C468 1.315 1_545 S
C469 C473 1.429 . S
C470 C453 1.574 . S
C470 H464 0.949 1_545 S
C470 C474 1.368 . S
C471 C452 1.429 . S
C471 C465 1.429 . S
C471 C472 1.523 . S
C472 C453 1.368 . S
C472 C466 1.368 . S
C472 C471 1.523 . S
C473 C457 1.429 1_545 S
C473 C469 1.429 . S
C473 C474 1.523 . S
C474 C458 1.368 . S
C474 C470 1.368 . S
C474 C473 1.523 . S
H475 C450 0.950 . S
H476 C452 0.950 . S
H477 C453 0.949 . S
H478 C455 0.950 . S
H479 C457 0.950 . S
C480 C481 1.349 . S
C480 C482 1.327 . S
C480 H505 0.950 . S
C481 C480 1.349 . S
C481 C497 1.349 . S
C482 C480 1.327 . S
C482 C501 1.429 . S
C482 H506 0.950 . S
C483 C500 1.574 . S
C483 C502 1.368 . S
C483 H507 0.949 . S
H484 C488 0.949 . S
C485 C486 1.349 . S
C485 C487 1.327 . S
C485 H508 0.950 . S
C486 C485 1.349 . S
C486 C498 1.349 . S
C487 C485 1.327 . S
C487 C503 1.429 . S
C487 H509 0.950 . S
C488 H484 0.949 . S
C488 C496 1.574 . S
C488 C504 1.368 . S
H489 C497 0.950 . S
H490 C495 0.950 . S
H491 C496 0.949 . S
H492 C498 0.950 . S
H493 C499 0.950 . S
H494 C500 0.949 . S
C495 H490 0.950 . S
C495 C497 1.327 . S
C495 C501 1.429 . S
C496 C488 1.574 . S
C496 H491 0.949 . S
C496 C502 1.368 . S
C497 C481 1.349 . S
C497 H489 0.950 . S
C497 C495 1.327 . S
C498 C486 1.349 . S
C498 H492 0.950 . S
C498 C499 1.327 . S
C499 H493 0.950 . S
C499 C498 1.327 . S
C499 C503 1.429 . S
C500 C483 1.574 . S
C500 H494 0.949 . S
C500 C504 1.368 . S
C501 C482 1.429 . S
C501 C495 1.429 . S
C501 C502 1.523 . S
C502 C483 1.368 . S
C502 C496 1.368 . S
C502 C501 1.523 . S
C503 C487 1.429 . S
C503 C499 1.429 . S
C503 C504 1.523 . S
C504 C488 1.368 . S
C504 C500 1.368 . S
C504 C503 1.523 . S
H505 C480 0.950 . S
H506 C482 0.950 . S
H507 C483 0.949 . S
H508 C485 0.950 . S
H509 C487 0.950 . S
C510 C511 1.349 . S
C510 C512 1.327 . S
C510 H535 0.950 . S
C511 C510 1.349 . S
C511 C527 1.349 . S
C512 C510 1.327 . S
C512 C531 1.429 . S
C512 H536 0.950 . S
C513 C530 1.574 . S
C513 C532 1.368 . S
C513 H537 0.949 . S
H514 C518 0.949 . S
C515 C516 1.349 . S
C515 C517 1.327 . S
C515 H538 0.950 . S
C516 C515 1.349 . S
C516 C528 1.349 . S
C517 C515 1.327 . S
C517 C533 1.429 . S
C517 H539 0.950 . S
C518 H514 0.949 . S
C518 C526 1.574 . S
C518 C534 1.368 . S
H519 C527 0.950 . S
H520 C525 0.950 . S
H521 C526 0.949 . S
H522 C528 0.950 . S
H523 C529 0.950 . S
H524 C530 0.949 . S
C525 H520 0.950 . S
C525 C527 1.327 . S
C525 C531 1.429 . S
C526 C518 1.574 . S
C526 H521 0.949 . S
C526 C532 1.368 . S
C527 C511 1.349 . S
C527 H519 0.950 . S
C527 C525 1.327 . S
C528 C516 1.349 . S
C528 H522 0.950 . S
C528 C529 1.327 . S
C529 H523 0.950 . S
C529 C528 1.327 . S
C529 C533 1.429 . S
C530 C513 1.574 . S
C530 H524 0.949 . S
C530 C534 1.368 . S
C531 C512 1.429 . S
C531 C525 1.429 . S
C531 C532 1.523 . S
C532 C513 1.368 . S
C532 C526 1.368 . S
C532 C531 1.523 . S
C533 C517 1.429 . S
C533 C529 1.429 . S
C533 C534 1.523 . S
C534 C518 1.368 . S
C534 C530 1.368 . S
C534 C533 1.523 . S
H535 C510 0.950 . S
H536 C512 0.950 . S
H537 C513 0.949 . S
H538 C515 0.950 . S
H539 C517 0.950 . S
C540 C541 1.349 . S
C540 C542 1.327 . S
C540 H565 0.950 . S
C541 C540 1.349 . S
C541 C557 1.349 . S
C542 C540 1.327 . S
C542 C561 1.429 . S
C542 H566 0.950 . S
C543 C560 1.574 . S
C543 C562 1.368 . S
C543 H567 0.949 . S
H544 C548 0.949 . S
C545 C546 1.349 . S
C545 C547 1.327 . S
C545 H568 0.950 . S
C546 C545 1.349 . S
C546 C558 1.356 . S
C547 C545 1.327 . S
C547 C563 1.429 1_554 S
C547 H569 0.950 . S
C548 H544 0.949 . S
C548 C556 1.574 . S
C548 C564 1.368 . S
H549 C557 0.950 . S
H550 C555 0.950 . S
H551 C556 0.949 . S
H552 C558 0.946 1_556 S
H553 C559 0.950 . S
H554 C560 0.949 1_554 S
C555 H550 0.950 . S
C555 C557 1.327 . S
C555 C561 1.429 . S
C556 C548 1.574 . S
C556 H551 0.949 . S
C556 C562 1.368 . S
C557 C541 1.349 . S
C557 H549 0.950 . S
C557 C555 1.327 . S
C558 C546 1.356 . S
C558 H552 0.946 1_554 S
C558 C559 1.324 1_554 S
C559 H553 0.950 . S
C559 C558 1.324 1_556 S
C559 C563 1.429 . S
C560 C543 1.574 . S
C560 H554 0.949 1_556 S
C560 C564 1.368 . S
C561 C542 1.429 . S
C561 C555 1.429 . S
C561 C562 1.523 . S
C562 C543 1.368 . S
C562 C556 1.368 . S
C562 C561 1.523 . S
C563 C547 1.429 1_556 S
C563 C559 1.429 . S
C563 C564 1.523 . S
C564 C548 1.368 . S
C564 C560 1.368 . S
C564 C563 1.523 . S
H565 C540 0.950 . S
H566 C542 0.950 . S
H567 C543 0.949 . S
H568 C545 0.950 . S
H569 C547 0.950 . S
C570 C571 1.349 . S
C570 C572 1.327 . S
C570 H595 0.950 . S
C571 C570 1.349 . S
C571 C587 1.349 . S
C572 C570 1.327 . S
C572 C591 1.429 . S
C572 H596 0.950 . S
C573 C590 1.574 . S
C573 C592 1.368 . S
C573 H597 0.949 . S
H574 C578 0.949 . S
C575 C576 1.349 . S
C575 C577 1.327 . S
C575 H598 0.950 . S
C576 C575 1.349 . S
C576 C588 1.349 . S
C577 C575 1.327 . S
C577 C593 1.429 . S
C577 H599 0.950 . S
C578 H574 0.949 . S
C578 C586 1.574 . S
C578 C594 1.368 . S
H579 C587 0.950 . S
H580 C585 0.950 . S
H581 C586 0.949 . S
H582 C588 0.950 . S
H583 C589 0.950 . S
H584 C590 0.949 . S
C585 H580 0.950 . S
C585 C587 1.327 . S
C585 C591 1.429 . S
C586 C578 1.574 . S
C586 H581 0.949 . S
C586 C592 1.368 . S
C587 C571 1.349 . S
C587 H579 0.950 . S
C587 C585 1.327 . S
C588 C576 1.349 . S
C588 H582 0.950 . S
C588 C589 1.327 . S
C589 H583 0.950 . S
C589 C588 1.327 . S
C589 C593 1.429 . S
C590 C573 1.574 . S
C590 H584 0.949 . S
C590 C594 1.368 . S
C591 C572 1.429 . S
C591 C585 1.429 . S
C591 C592 1.523 . S
C592 C573 1.368 . S
C592 C586 1.368 . S
C592 C591 1.523 . S
C593 C577 1.429 . S
C593 C589 1.429 . S
C593 C594 1.523 . S
C594 C578 1.368 . S
C594 C590 1.368 . S
C594 C593 1.523 . S
H595 C570 0.950 . S
H596 C572 0.950 . S
H597 C573 0.949 . S
H598 C575 0.950 . S
H599 C577 0.950 . S
C600 C601 1.349 . S
C600 C602 1.327 . S
C600 H625 0.950 . S
C601 C600 1.349 . S
C601 C617 1.349 . S
C602 C600 1.327 . S
C602 C621 1.429 . S
C602 H626 0.950 . S
C603 C620 1.574 . S
C603 C622 1.368 . S
C603 H627 0.949 . S
H604 C608 0.949 . S
C605 C606 1.349 . S
C605 C607 1.327 . S
C605 H628 0.950 . S
C606 C605 1.349 . S
C606 C618 1.349 . S
C607 C605 1.327 . S
C607 C623 1.429 . S
C607 H629 0.950 . S
C608 H604 0.949 . S
C608 C616 1.574 . S
C608 C624 1.368 . S
H609 C617 0.950 . S
H610 C615 0.950 . S
H611 C616 0.949 . S
H612 C618 0.950 . S
H613 C619 0.950 . S
H614 C620 0.949 . S
C615 H610 0.950 . S
C615 C617 1.327 . S
C615 C621 1.429 . S
C616 C608 1.574 . S
C616 H611 0.949 . S
C616 C622 1.368 . S
C617 C601 1.349 . S
C617 H609 0.950 . S
C617 C615 1.327 . S
C618 C606 1.349 . S
C618 H612 0.950 . S
C618 C619 1.327 . S
C619 H613 0.950 . S
C619 C618 1.327 . S
C619 C623 1.429 . S
C620 C603 1.574 . S
C620 H614 0.949 . S
C620 C624 1.368 . S
C621 C602 1.429 . S
C621 C615 1.429 . S
C621 C622 1.523 . S
C622 C603 1.368 . S
C622 C616 1.368 . S
C622 C621 1.523 . S
C623 C607 1.429 . S
C623 C619 1.429 . S
C623 C624 1.523 . S
C624 C608 1.368 . S
C624 C620 1.368 . S
C624 C623 1.523 . S
H625 C600 0.950 . S
H626 C602 0.950 . S
H627 C603 0.949 . S
H628 C605 0.950 . S
H629 C607 0.950 . S
C630 C631 1.349 . S
C630 C632 1.327 . S
C630 H655 0.950 . S
C631 C630 1.349 . S
C631 C647 1.349 . S
C632 C630 1.327 . S
C632 C651 1.429 . S
C632 H656 0.950 . S
C633 C650 1.574 . S
C633 C652 1.368 . S
C633 H657 0.949 . S
H634 C638 0.949 . S
C635 C636 1.349 . S
C635 C637 1.327 . S
C635 H658 0.950 . S
C636 C635 1.349 . S
C636 C648 1.349 . S
C637 C635 1.327 . S
C637 C653 1.432 . S
C637 H659 0.950 . S
C638 H634 0.949 . S
C638 C646 1.574 . S
C638 C654 1.368 . S
H639 C647 0.950 . S
H640 C645 0.950 . S
H641 C646 0.949 . S
H642 C648 0.950 . S
H643 C649 0.950 . S
H644 C650 0.949 1_655 S
C645 H640 0.950 . S
C645 C647 1.327 . S
C645 C651 1.429 . S
C646 C638 1.574 . S
C646 H641 0.949 . S
C646 C652 1.368 . S
C647 C631 1.349 . S
C647 H639 0.950 . S
C647 C645 1.327 . S
C648 C636 1.349 . S
C648 H642 0.950 . S
C648 C649 1.327 1_655 S
C649 H643 0.950 . S
C649 C648 1.327 1_455 S
C649 C653 1.428 1_455 S
C650 C633 1.574 . S
C650 H644 0.949 1_455 S
C650 C654 1.368 . S
C651 C632 1.429 . S
C651 C645 1.429 . S
C651 C652 1.523 . S
C652 C633 1.368 . S
C652 C646 1.368 . S
C652 C651 1.523 . S
C653 C637 1.432 . S
C653 C649 1.428 1_655 S
C653 C654 1.520 1_655 S
C654 C638 1.368 . S
C654 C650 1.368 . S
C654 C653 1.520 1_455 S
H655 C630 0.950 . S
H656 C632 0.950 . S
H657 C633 0.949 . S
H658 C635 0.950 . S
H659 C637 0.950 . S
C660 C661 1.332 1_655 S
C660 C662 1.334 . S
C660 H685 0.960 . S
C661 C660 1.332 1_455 S
C661 C677 1.349 . S
C662 C660 1.334 . S
C662 C681 1.429 1_655 S
C662 H686 0.950 . S
C663 C680 1.574 . S
C663 C682 1.374 . S
C663 H687 0.949 . S
H664 C668 0.949 . S
C665 C666 1.349 . S
C665 C667 1.327 . S
C665 H688 0.960 . S
C666 C665 1.349 . S
C666 C678 1.349 . S
C667 C665 1.327 . S
C667 C683 1.429 . S
C667 H689 0.950 1_655 S
C668 H664 0.949 . S
C668 C676 1.574 . S
C668 C684 1.368 . S
H669 C677 0.950 . S
H670 C675 0.950 . S
H671 C676 0.949 . S
H672 C678 0.950 . S
H673 C679 0.950 . S
H674 C680 0.949 . S
C675 H670 0.950 . S
C675 C677 1.327 . S
C675 C681 1.429 . S
C676 C668 1.574 . S
C676 H671 0.949 . S
C676 C682 1.360 1_655 S
C677 C661 1.349 . S
C677 H669 0.950 . S
C677 C675 1.327 . S
C678 C666 1.349 . S
C678 H672 0.950 . S
C678 C679 1.327 . S
C679 H673 0.950 . S
C679 C678 1.327 . S
C679 C683 1.429 . S
C680 C663 1.574 . S
C680 H674 0.949 . S
C680 C684 1.368 1_455 S
C681 C662 1.429 1_455 S
C681 C675 1.429 . S
C681 C682 1.526 . S
C682 C663 1.374 . S
C682 C676 1.360 1_455 S
C682 C681 1.526 . S
C683 C667 1.429 . S
C683 C679 1.429 . S
C683 C684 1.523 . S
C684 C668 1.368 . S
C684 C680 1.368 1_655 S
C684 C683 1.523 . S
H685 C660 0.960 . S
H686 C662 0.950 . S
H687 C663 0.949 . S
H688 C665 0.960 . S
H689 C667 0.950 1_455 S
C690 C691 1.349 . S
C690 C692 1.327 . S
C690 H715 0.950 . S
C691 C690 1.349 . S
C691 C707 1.349 . S
C692 C690 1.327 . S
C692 C711 1.429 . S
C692 H716 0.950 . S
C693 C710 1.574 . S
C693 C712 1.368 . S
C693 H717 0.949 . S
H694 C698 0.949 . S
C695 C696 1.349 . S
C695 C697 1.327 . S
C695 H718 0.950 . S
C696 C695 1.349 . S
C696 C708 1.349 . S
C697 C695 1.327 . S
C697 C713 1.429 . S
C697 H719 0.950 . S
C698 H694 0.949 . S
C698 C706 1.574 . S
C698 C714 1.368 . S
H699 C707 0.950 . S
H700 C705 0.950 . S
H701 C706 0.949 . S
H702 C708 0.950 . S
H703 C709 0.950 . S
H704 C710 0.949 . S
C705 H700 0.950 . S
C705 C707 1.327 . S
C705 C711 1.429 . S
C706 C698 1.574 . S
C706 H701 0.949 . S
C706 C712 1.368 . S
C707 C691 1.349 . S
C707 H699 0.950 . S
C707 C705 1.327 . S
C708 C696 1.349 . S
C708 H702 0.950 . S
C708 C709 1.327 . S
C709 H703 0.950 . S
C709 C708 1.327 . S
C709 C713 1.429 . S
C710 C693 1.574 . S
C710 H704 0.949 . S
C710 C714 1.368 . S
C711 C692 1.429 . S
C711 C705 1.429 . S
C711 C712 1.523 . S
C712 C693 1.368 . S
C712 C706 1.368 . S
C712 C711 1.523 . S
C713 C697 1.429 . S
C713 C709 1.429 . S
C713 C714 1.523 . S
C714 C698 1.368 . S
C714 C710 1.368 . S
C714 C713 1.523 . S
H715 C690 0.950 . S
H716 C692 0.950 . S
H717 C693 0.949 . S
H718 C695 0.950 . S
H719 C697 0.950 . S
C720 C721 1.349 . S
C720 C722 1.327 . S
C720 H745 0.950 . S
C721 C720 1.349 . S
C721 C737 1.349 . S
C722 C720 1.327 . S
C722 C741 1.429 . S
C722 H746 0.950 . S
C723 C740 1.574 . S
C723 C742 1.368 . S
C723 H747 0.949 . S
H724 C728 0.949 . S
C725 C726 1.349 . S
C725 C727 1.327 . S
C725 H748 0.950 . S
C726 C725 1.349 . S
C726 C738 1.349 . S
C727 C725 1.327 . S
C727 C743 1.429 . S
C727 H749 0.950 . S
C728 H724 0.949 . S
C728 C736 1.574 . S
C728 C744 1.368 . S
H729 C737 0.950 . S
H730 C735 0.950 . S
H731 C736 0.949 . S
H732 C738 0.950 . S
H733 C739 0.950 . S
H734 C740 0.949 . S
C735 H730 0.950 . S
C735 C737 1.327 . S
C735 C741 1.429 . S
C736 C728 1.574 . S
C736 H731 0.949 . S
C736 C742 1.368 . S
C737 C721 1.349 . S
C737 H729 0.950 . S
C737 C735 1.327 . S
C738 C726 1.349 . S
C738 H732 0.950 . S
C738 C739 1.327 . S
C739 H733 0.950 . S
C739 C738 1.327 . S
C739 C743 1.429 . S
C740 C723 1.574 . S
C740 H734 0.949 . S
C740 C744 1.368 . S
C741 C722 1.429 . S
C741 C735 1.429 . S
C741 C742 1.523 . S
C742 C723 1.368 . S
C742 C736 1.368 . S
C742 C741 1.523 . S
C743 C727 1.429 . S
C743 C739 1.429 . S
C743 C744 1.523 . S
C744 C728 1.368 . S
C744 C740 1.368 . S
C744 C743 1.523 . S
H745 C720 0.950 . S
H746 C722 0.950 . S
H747 C723 0.949 . S
H748 C725 0.950 . S
H749 C727 0.950 . S
C750 C751 1.349 . S
C750 C752 1.327 1_455 S
C750 H775 0.950 . S
C751 C750 1.349 . S
C751 C767 1.349 1_455 S
C752 C750 1.327 1_655 S
C752 C771 1.429 . S
C752 H776 0.950 . S
C753 C770 1.574 . S
C753 C772 1.368 . S
C753 H777 0.949 . S
H754 C758 0.949 . S
C755 C756 1.349 . S
C755 C757 1.327 . S
C755 H778 0.950 . S
C756 C755 1.349 . S
C756 C768 1.349 . S
C757 C755 1.327 . S
C757 C773 1.429 . S
C757 H779 0.950 . S
C758 H754 0.949 . S
C758 C766 1.574 . S
C758 C774 1.368 . S
H759 C767 0.950 . S
H760 C765 0.950 . S
H761 C766 0.949 . S
H762 C768 0.950 . S
H763 C769 0.950 . S
H764 C770 0.949 . S
C765 H760 0.950 . S
C765 C767 1.327 . S
C765 C771 1.429 . S
C766 C758 1.574 . S
C766 H761 0.949 . S
C766 C772 1.368 . S
C767 C751 1.349 1_655 S
C767 H759 0.950 . S
C767 C765 1.327 . S
C768 C756 1.349 . S
C768 H762 0.950 . S
C768 C769 1.327 . S
C769 H763 0.950 . S
C769 C768 1.327 . S
C769 C773 1.429 . S
C770 C753 1.574 . S
C770 H764 0.949 . S
C770 C774 1.368 . S
C771 C752 1.429 . S
C771 C765 1.429 . S
C771 C772 1.523 . S
C772 C753 1.368 . S
C772 C766 1.368 . S
C772 C771 1.523 . S
C773 C757 1.429 . S
C773 C769 1.429 . S
C773 C774 1.523 . S
C774 C758 1.368 . S
C774 C770 1.368 . S
C774 C773 1.523 . S
H775 C750 0.950 . S
H776 C752 0.950 . S
H777 C753 0.949 . S
H778 C755 0.950 . S
H779 C757 0.950 . S
C780 C781 1.349 . S
C780 C782 1.327 . S
C780 H805 0.950 . S
C781 C780 1.349 . S
C781 C797 1.349 . S
C782 C780 1.327 . S
C782 C801 1.429 . S
C782 H806 0.950 . S
C783 C800 1.574 . S
C783 C802 1.368 . S
C783 H807 0.949 . S
H784 C788 0.949 . S
C785 C786 1.349 . S
C785 C787 1.327 . S
C785 H808 0.950 . S
C786 C785 1.349 . S
C786 C798 1.349 . S
C787 C785 1.327 . S
C787 C803 1.429 . S
C787 H809 0.950 . S
C788 H784 0.949 . S
C788 C796 1.574 . S
C788 C804 1.368 . S
H789 C797 0.950 . S
H790 C795 0.950 . S
H791 C796 0.949 . S
H792 C798 0.950 . S
H793 C799 0.950 . S
H794 C800 0.949 . S
C795 H790 0.950 . S
C795 C797 1.327 . S
C795 C801 1.429 . S
C796 C788 1.574 . S
C796 H791 0.949 . S
C796 C802 1.368 . S
C797 C781 1.349 . S
C797 H789 0.950 . S
C797 C795 1.327 . S
C798 C786 1.349 . S
C798 H792 0.950 . S
C798 C799 1.327 . S
C799 H793 0.950 . S
C799 C798 1.327 . S
C799 C803 1.429 . S
C800 C783 1.574 . S
C800 H794 0.949 . S
C800 C804 1.368 . S
C801 C782 1.429 . S
C801 C795 1.429 . S
C801 C802 1.523 . S
C802 C783 1.368 . S
C802 C796 1.368 . S
C802 C801 1.523 . S
C803 C787 1.429 . S
C803 C799 1.429 . S
C803 C804 1.523 . S
C804 C788 1.368 . S
C804 C800 1.368 . S
C804 C803 1.523 . S
H805 C780 0.950 . S
H806 C782 0.950 . S
H807 C783 0.949 . S
H808 C785 0.950 . S
H809 C787 0.950 . S
C810 C811 1.349 . S
C810 C812 1.327 . S
C810 H835 0.950 . S
C811 C810 1.349 . S
C811 C827 1.349 . S
C812 C810 1.327 . S
C812 C831 1.429 . S
C812 H836 0.950 . S
C813 C830 1.574 . S
C813 C832 1.368 . S
C813 H837 0.949 . S
H814 C818 0.949 . S
C815 C816 1.349 . S
C815 C817 1.327 . S
C815 H838 0.950 . S
C816 C815 1.349 . S
C816 C828 1.349 . S
C817 C815 1.327 . S
C817 C833 1.429 . S
C817 H839 0.950 . S
C818 H814 0.949 . S
C818 C826 1.574 . S
C818 C834 1.368 . S
H819 C827 0.950 . S
H820 C825 0.950 . S
H821 C826 0.949 . S
H822 C828 0.950 . S
H823 C829 0.950 . S
H824 C830 0.949 1_556 S
C825 H820 0.950 . S
C825 C827 1.327 . S
C825 C831 1.429 . S
C826 C818 1.574 . S
C826 H821 0.949 . S
C826 C832 1.368 . S
C827 C811 1.349 . S
C827 H819 0.950 . S
C827 C825 1.327 . S
C828 C816 1.349 . S
C828 H822 0.950 . S
C828 C829 1.327 . S
C829 H823 0.950 . S
C829 C828 1.327 . S
C829 C833 1.429 . S
C830 C813 1.574 . S
C830 H824 0.949 1_554 S
C830 C834 1.368 . S
C831 C812 1.429 . S
C831 C825 1.429 . S
C831 C832 1.523 . S
C832 C813 1.368 . S
C832 C826 1.368 . S
C832 C831 1.523 . S
C833 C817 1.429 . S
C833 C829 1.429 . S
C833 C834 1.523 1_556 S
C834 C818 1.368 . S
C834 C830 1.368 . S
C834 C833 1.523 1_554 S
H835 C810 0.950 . S
H836 C812 0.950 . S
H837 C813 0.949 . S
H838 C815 0.950 . S
H839 C817 0.950 . S
C840 C841 1.349 . S
C840 C842 1.327 . S
C840 H865 0.950 . S
C841 C840 1.349 . S
C841 C857 1.349 . S
C842 C840 1.327 . S
C842 C861 1.429 . S
C842 H866 0.950 . S
C843 C860 1.574 . S
C843 C862 1.368 . S
C843 H867 0.949 . S
H844 C848 0.949 . S
C845 C846 1.349 . S
C845 C847 1.327 . S
C845 H868 0.950 . S
C846 C845 1.349 . S
C846 C858 1.349 . S
C847 C845 1.327 . S
C847 C863 1.429 . S
C847 H869 0.950 . S
C848 H844 0.949 . S
C848 C856 1.574 . S
C848 C864 1.368 . S
H849 C857 0.950 . S
H850 C855 0.950 . S
H851 C856 0.949 . S
H852 C858 0.950 . S
H853 C859 0.950 . S
H854 C860 0.949 . S
C855 H850 0.950 . S
C855 C857 1.327 . S
C855 C861 1.429 . S
C856 C848 1.574 . S
C856 H851 0.949 . S
C856 C862 1.368 . S
C857 C841 1.349 . S
C857 H849 0.950 . S
C857 C855 1.327 . S
C858 C846 1.349 . S
C858 H852 0.950 . S
C858 C859 1.327 . S
C859 H853 0.950 . S
C859 C858 1.327 . S
C859 C863 1.429 . S
C860 C843 1.574 . S
C860 H854 0.949 . S
C860 C864 1.368 . S
C861 C842 1.429 . S
C861 C855 1.429 . S
C861 C862 1.523 . S
C862 C843 1.368 . S
C862 C856 1.368 . S
C862 C861 1.523 . S
C863 C847 1.429 . S
C863 C859 1.429 . S
C863 C864 1.523 . S
C864 C848 1.368 . S
C864 C860 1.368 . S
C864 C863 1.523 . S
H865 C840 0.950 . S
H866 C842 0.950 . S
H867 C843 0.949 . S
H868 C845 0.950 . S
H869 C847 0.950 . S
C870 C871 1.349 . S
C870 C872 1.327 1_554 S
C870 H895 0.950 . S
C871 C870 1.349 . S
C871 C887 1.349 1_554 S
C872 C870 1.327 1_556 S
C872 C891 1.429 . S
C872 H896 0.950 . S
C873 C890 1.574 . S
C873 C892 1.368 . S
C873 H897 0.949 . S
H874 C878 0.949 . S
C875 C876 1.349 1_455 S
C875 C877 1.327 . S
C875 H898 0.950 . S
C876 C875 1.349 1_655 S
C876 C888 1.349 . S
C877 C875 1.327 . S
C877 C893 1.429 . S
C877 H899 0.950 . S
C878 H874 0.949 . S
C878 C886 1.574 . S
C878 C894 1.368 . S
H879 C887 0.950 . S
H880 C885 0.950 . S
H881 C886 0.949 . S
H882 C888 0.950 . S
H883 C889 0.950 . S
H884 C890 0.949 . S
C885 H880 0.950 . S
C885 C887 1.327 . S
C885 C891 1.429 . S
C886 C878 1.574 . S
C886 H881 0.949 . S
C886 C892 1.368 . S
C887 C871 1.349 1_556 S
C887 H879 0.950 . S
C887 C885 1.327 . S
C888 C876 1.349 . S
C888 H882 0.950 . S
C888 C889 1.327 1_655 S
C889 H883 0.950 . S
C889 C888 1.327 1_455 S
C889 C893 1.429 . S
C890 C873 1.574 . S
C890 H884 0.949 . S
C890 C894 1.368 . S
C891 C872 1.429 . S
C891 C885 1.429 . S
C891 C892 1.523 . S
C892 C873 1.368 . S
C892 C886 1.368 . S
C892 C891 1.523 . S
C893 C877 1.429 . S
C893 C889 1.429 . S
C893 C894 1.523 . S
C894 C878 1.368 . S
C894 C890 1.368 . S
C894 C893 1.523 . S
H895 C870 0.950 . S
H896 C872 0.950 . S
H897 C873 0.949 . S
H898 C875 0.950 . S
H899 C877 0.950 . S
C900 C901 1.349 . S
C900 C902 1.327 . S
C900 H925 0.950 . S
C901 C900 1.349 . S
C901 C917 1.349 . S
C902 C900 1.327 . S
C902 C921 1.429 . S
C902 H926 0.950 . S
C903 C920 1.574 . S
C903 C922 1.368 . S
C903 H927 0.949 . S
H904 C908 0.949 . S
C905 C906 1.349 . S
C905 C907 1.327 . S
C905 H928 0.950 . S
C906 C905 1.349 . S
C906 C918 1.349 . S
C907 C905 1.327 . S
C907 C923 1.429 . S
C907 H929 0.950 . S
C908 H904 0.949 . S
C908 C916 1.574 . S
C908 C924 1.368 . S
H909 C917 0.950 . S
H910 C915 0.950 . S
H911 C916 0.949 . S
H912 C918 0.950 . S
H913 C919 0.950 . S
H914 C920 0.949 . S
C915 H910 0.950 . S
C915 C917 1.327 . S
C915 C921 1.429 . S
C916 C908 1.574 . S
C916 H911 0.949 . S
C916 C922 1.368 . S
C917 C901 1.349 . S
C917 H909 0.950 . S
C917 C915 1.327 . S
C918 C906 1.349 . S
C918 H912 0.950 . S
C918 C919 1.327 . S
C919 H913 0.950 . S
C919 C918 1.327 . S
C919 C923 1.429 . S
C920 C903 1.574 . S
C920 H914 0.949 . S
C920 C924 1.368 . S
C921 C902 1.429 . S
C921 C915 1.429 . S
C921 C922 1.523 . S
C922 C903 1.368 . S
C922 C916 1.368 . S
C922 C921 1.523 . S
C923 C907 1.429 . S
C923 C919 1.429 . S
C923 C924 1.523 . S
C924 C908 1.368 . S
C924 C920 1.368 . S
C924 C923 1.523 . S
H925 C900 0.950 . S
H926 C902 0.950 . S
H927 C903 0.949 . S
H928 C905 0.950 . S
H929 C907 0.950 . S
C930 C931 1.349 . S
C930 C932 1.327 . S
C930 H955 0.950 . S
C931 C930 1.349 . S
C931 C947 1.349 . S
C932 C930 1.327 . S
C932 C951 1.429 . S
C932 H956 0.950 . S
C933 C950 1.574 . S
C933 C952 1.368 . S
C933 H957 0.949 . S
H934 C938 0.949 . S
C935 C936 1.349 . S
C935 C937 1.327 . S
C935 H958 0.950 . S
C936 C935 1.349 . S
C936 C948 1.349 . S
C937 C935 1.327 . S
C937 C953 1.429 . S
C937 H959 0.950 . S
C938 H934 0.949 . S
C938 C946 1.574 . S
C938 C954 1.368 . S
H939 C947 0.950 . S
H940 C945 0.950 . S
H941 C946 0.949 . S
H942 C948 0.950 . S
H943 C949 0.950 . S
H944 C950 0.949 . S
C945 H940 0.950 . S
C945 C947 1.327 . S
C945 C951 1.429 . S
C946 C938 1.574 . S
C946 H941 0.949 . S
C946 C952 1.368 . S
C947 C931 1.349 . S
C947 H939 0.950 . S
C947 C945 1.327 . S
C948 C936 1.349 . S
C948 H942 0.950 . S
C948 C949 1.327 . S
C949 H943 0.950 . S
C949 C948 1.327 . S
C949 C953 1.429 . S
C950 C933 1.574 . S
C950 H944 0.949 . S
C950 C954 1.368 . S
C951 C932 1.429 . S
C951 C945 1.429 . S
C951 C952 1.523 . S
C952 C933 1.368 . S
C952 C946 1.368 . S
C952 C951 1.523 . S
C953 C937 1.429 . S
C953 C949 1.429 . S
C953 C954 1.523 . S
C954 C938 1.368 . S
C954 C950 1.368 . S
C954 C953 1.523 . S
H955 C930 0.950 . S
H956 C932 0.950 . S
H957 C933 0.949 . S
H958 C935 0.950 . S
H959 C937 0.950 . S
C960 C961 1.349 . S
C960 C962 1.327 . S
C960 H985 0.950 . S
C961 C960 1.349 . S
C961 C977 1.349 . S
C962 C960 1.327 . S
C962 C981 1.429 . S
C962 H986 0.950 . S
C963 C980 1.574 . S
C963 C982 1.368 . S
C963 H987 0.949 . S
H964 C968 0.949 . S
C965 C966 1.349 . S
C965 C967 1.327 . S
C965 H988 0.950 . S
C966 C965 1.349 . S
C966 C978 1.349 . S
C967 C965 1.327 . S
C967 C983 1.429 . S
C967 H989 0.950 . S
C968 H964 0.949 . S
C968 C976 1.574 . S
C968 C984 1.368 . S
H969 C977 0.950 . S
H970 C975 0.950 . S
H971 C976 0.949 . S
H972 C978 0.950 . S
H973 C979 0.950 . S
H974 C980 0.949 . S
C975 H970 0.950 . S
C975 C977 1.327 . S
C975 C981 1.429 . S
C976 C968 1.574 . S
C976 H971 0.949 . S
C976 C982 1.368 . S
C977 C961 1.349 . S
C977 H969 0.950 . S
C977 C975 1.327 . S
C978 C966 1.349 . S
C978 H972 0.950 . S
C978 C979 1.327 . S
C979 H973 0.950 . S
C979 C978 1.327 . S
C979 C983 1.429 . S
C980 C963 1.574 . S
C980 H974 0.949 . S
C980 C984 1.368 . S
C981 C962 1.429 . S
C981 C975 1.429 . S
C981 C982 1.523 . S
C982 C963 1.368 . S
C982 C976 1.368 . S
C982 C981 1.523 . S
C983 C967 1.429 . S
C983 C979 1.429 . S
C983 C984 1.523 . S
C984 C968 1.368 . S
C984 C980 1.368 . S
C984 C983 1.523 . S
H985 C960 0.950 . S
H986 C962 0.950 . S
H987 C963 0.949 . S
H988 C965 0.950 . S
H989 C967 0.950 . S
C990 C991 1.349 . S
C990 C992 1.327 . S
C990 H1015 0.950 . S
C991 C990 1.349 . S
C991 C1007 1.349 . S
C992 C990 1.327 . S
C992 C1011 1.429 . S
C992 H1016 0.950 . S
C993 C1010 1.574 . S
C993 C1012 1.368 . S
C993 H1017 0.949 . S
H994 C998 0.949 . S
C995 C996 1.349 . S
C995 C997 1.356 . S
C995 H1018 0.950 . S
C996 C995 1.349 . S
C996 C1008 1.349 . S
C997 C995 1.356 . S
C997 C1013 1.398 1_565 S
C997 H1019 0.953 . S
C998 H994 0.949 . S
C998 C1006 1.574 . S
C998 C1014 1.368 . S
H999 C1007 0.950 . S
H1000 C1005 0.950 . S
H1001 C1006 0.949 . S
H1002 C1008 0.950 . S
H1003 C1009 0.950 . S
H1004 C1010 0.949 . S
C1005 H1000 0.950 . S
C1005 C1007 1.327 . S
C1005 C1011 1.429 . S
C1006 C998 1.574 . S
C1006 H1001 0.949 . S
C1006 C1012 1.368 . S
C1007 C991 1.349 . S
C1007 H999 0.950 . S
C1007 C1005 1.327 . S
C1008 C996 1.349 . S
C1008 H1002 0.950 . S
C1008 C1009 1.327 1_565 S
C1009 H1003 0.950 . S
C1009 C1008 1.327 1_545 S
C1009 C1013 1.429 . S
C1010 C993 1.574 . S
C1010 H1004 0.949 . S
C1010 C1014 1.368 . S
C1011 C992 1.429 . S
C1011 C1005 1.429 . S
C1011 C1012 1.523 . S
C1012 C993 1.368 . S
C1012 C1006 1.368 . S
C1012 C1011 1.523 . S
C1013 C997 1.398 1_545 S
C1013 C1009 1.429 . S
C1013 C1014 1.523 . S
C1014 C998 1.368 . S
C1014 C1010 1.368 . S
C1014 C1013 1.523 . S
H1015 C990 0.950 . S
H1016 C992 0.950 . S
H1017 C993 0.949 . S
H1018 C995 0.950 . S
H1019 C997 0.953 . S
C1020 C1021 1.349 . S
C1020 C1022 1.327 . S
C1020 H1045 0.950 . S
C1021 C1020 1.349 . S
C1021 C1037 1.349 . S
C1022 C1020 1.327 . S
C1022 C1041 1.429 . S
C1022 H1046 0.950 . S
C1023 C1040 1.574 . S
C1023 C1042 1.368 . S
C1023 H1047 0.949 . S
H1024 C1028 0.949 . S
C1025 C1026 1.349 . S
C1025 C1027 1.327 . S
C1025 H1048 0.950 . S
C1026 C1025 1.349 . S
C1026 C1038 1.349 . S
C1027 C1025 1.327 . S
C1027 C1043 1.429 . S
C1027 H1049 0.950 . S
C1028 H1024 0.949 . S
C1028 C1036 1.574 . S
C1028 C1044 1.368 . S
H1029 C1037 0.950 . S
H1030 C1035 0.950 . S
H1031 C1036 0.949 . S
H1032 C1038 0.950 . S
H1033 C1039 0.950 . S
H1034 C1040 0.949 . S
C1035 H1030 0.950 . S
C1035 C1037 1.327 . S
C1035 C1041 1.429 . S
C1036 C1028 1.574 . S
C1036 H1031 0.949 . S
C1036 C1042 1.368 . S
C1037 C1021 1.349 . S
C1037 H1029 0.950 . S
C1037 C1035 1.327 . S
C1038 C1026 1.349 . S
C1038 H1032 0.950 . S
C1038 C1039 1.327 . S
C1039 H1033 0.950 . S
C1039 C1038 1.327 . S
C1039 C1043 1.429 . S
C1040 C1023 1.574 . S
C1040 H1034 0.949 . S
C1040 C1044 1.368 . S
C1041 C1022 1.429 . S
C1041 C1035 1.429 . S
C1041 C1042 1.523 . S
C1042 C1023 1.368 . S
C1042 C1036 1.368 . S
C1042 C1041 1.523 . S
C1043 C1027 1.429 . S
C1043 C1039 1.429 . S
C1043 C1044 1.523 . S
C1044 C1028 1.368 . S
C1044 C1040 1.368 . S
C1044 C1043 1.523 . S
H1045 C1020 0.950 . S
H1046 C1022 0.950 . S
H1047 C1023 0.949 . S
H1048 C1025 0.950 . S
H1049 C1027 0.950 . S
C1050 C1051 1.349 . S
C1050 C1052 1.327 . S
C1050 H1075 0.950 . S
C1051 C1050 1.349 . S
C1051 C1067 1.349 . S
C1052 C1050 1.327 . S
C1052 C1071 1.429 1_545 S
C1052 H1076 0.936 1_545 S
C1053 C1070 1.574 . S
C1053 C1072 1.368 . S
C1053 H1077 0.949 . S
H1054 C1058 0.949 . S
C1055 C1056 1.349 . S
C1055 C1057 1.327 . S
C1055 H1078 0.950 . S
C1056 C1055 1.349 . S
C1056 C1068 1.342 1_554 S
C1057 C1055 1.327 . S
C1057 C1073 1.429 . S
C1057 H1079 0.950 . S
C1058 H1054 0.949 . S
C1058 C1066 1.574 . S
C1058 C1074 1.368 . S
H1059 C1067 0.950 . S
H1060 C1065 0.950 . S
H1061 C1066 0.949 . S
H1062 C1068 0.971 . S
H1063 C1069 0.950 . S
H1064 C1070 0.949 . S
C1065 H1060 0.950 . S
C1065 C1067 1.327 . S
C1065 C1071 1.429 1_545 S
C1066 C1058 1.574 . S
C1066 H1061 0.949 . S
C1066 C1072 1.368 . S
C1067 C1051 1.349 . S
C1067 H1059 0.950 . S
C1067 C1065 1.327 . S
C1068 C1056 1.342 1_556 S
C1068 H1062 0.971 . S
C1068 C1069 1.313 1_556 S
C1069 H1063 0.950 . S
C1069 C1068 1.313 1_554 S
C1069 C1073 1.429 . S
C1070 C1053 1.574 . S
C1070 H1064 0.949 . S
C1070 C1074 1.368 . S
C1071 C1052 1.429 1_565 S
C1071 C1065 1.429 1_565 S
C1071 C1072 1.523 . S
C1072 C1053 1.368 . S
C1072 C1066 1.368 . S
C1072 C1071 1.523 . S
C1073 C1057 1.429 . S
C1073 C1069 1.429 . S
C1073 C1074 1.523 . S
C1074 C1058 1.368 . S
C1074 C1070 1.368 . S
C1074 C1073 1.523 . S
H1075 C1050 0.950 . S
H1076 C1052 0.936 1_565 S
H1077 C1053 0.949 . S
H1078 C1055 0.950 . S
H1079 C1057 0.950 . S
C1080 C1081 1.349 . S
C1080 C1082 1.327 . S
C1080 H1105 0.950 . S
C1081 C1080 1.349 . S
C1081 C1097 1.349 . S
C1082 C1080 1.327 . S
C1082 C1101 1.429 . S
C1082 H1106 0.950 . S
C1083 C1100 1.574 . S
C1083 C1102 1.368 . S
C1083 H1107 0.949 . S
H1084 C1088 0.949 . S
C1085 C1086 1.349 . S
C1085 C1087 1.327 . S
C1085 H1108 0.950 . S
C1086 C1085 1.349 . S
C1086 C1098 1.349 . S
C1087 C1085 1.327 . S
C1087 C1103 1.429 . S
C1087 H1109 0.950 . S
C1088 H1084 0.949 . S
C1088 C1096 1.574 . S
C1088 C1104 1.368 . S
H1089 C1097 0.950 . S
H1090 C1095 0.950 . S
H1091 C1096 0.949 . S
H1092 C1098 0.950 . S
H1093 C1099 0.950 . S
H1094 C1100 0.949 . S
C1095 H1090 0.950 . S
C1095 C1097 1.327 . S
C1095 C1101 1.429 . S
C1096 C1088 1.574 . S
C1096 H1091 0.949 . S
C1096 C1102 1.368 . S
C1097 C1081 1.349 . S
C1097 H1089 0.950 . S
C1097 C1095 1.327 . S
C1098 C1086 1.349 . S
C1098 H1092 0.950 . S
C1098 C1099 1.327 . S
C1099 H1093 0.950 . S
C1099 C1098 1.327 . S
C1099 C1103 1.429 . S
C1100 C1083 1.574 . S
C1100 H1094 0.949 . S
C1100 C1104 1.368 . S
C1101 C1082 1.429 . S
C1101 C1095 1.429 . S
C1101 C1102 1.523 . S
C1102 C1083 1.368 . S
C1102 C1096 1.368 . S
C1102 C1101 1.523 . S
C1103 C1087 1.429 . S
C1103 C1099 1.429 . S
C1103 C1104 1.523 . S
C1104 C1088 1.368 . S
C1104 C1100 1.368 . S
C1104 C1103 1.523 . S
H1105 C1080 0.950 . S
H1106 C1082 0.950 . S
H1107 C1083 0.949 . S
H1108 C1085 0.950 . S
H1109 C1087 0.950 . S
C1110 C1111 1.349 . S
C1110 C1112 1.327 . S
C1110 H1135 0.950 . S
C1111 C1110 1.349 . S
C1111 C1127 1.349 . S
C1112 C1110 1.327 . S
C1112 C1131 1.429 . S
C1112 H1136 0.950 . S
C1113 C1130 1.574 . S
C1113 C1132 1.368 . S
C1113 H1137 0.949 . S
H1114 C1118 0.949 . S
C1115 C1116 1.349 . S
C1115 C1117 1.327 . S
C1115 H1138 0.950 . S
C1116 C1115 1.349 . S
C1116 C1128 1.349 . S
C1117 C1115 1.327 . S
C1117 C1133 1.429 . S
C1117 H1139 0.950 . S
C1118 H1114 0.949 . S
C1118 C1126 1.574 . S
C1118 C1134 1.368 . S
H1119 C1127 0.950 . S
H1120 C1125 0.950 . S
H1121 C1126 0.949 . S
H1122 C1128 0.950 1_554 S
H1123 C1129 0.950 . S
H1124 C1130 0.949 . S
C1125 H1120 0.950 . S
C1125 C1127 1.327 . S
C1125 C1131 1.429 . S
C1126 C1118 1.574 . S
C1126 H1121 0.949 . S
C1126 C1132 1.368 . S
C1127 C1111 1.349 . S
C1127 H1119 0.950 . S
C1127 C1125 1.327 . S
C1128 C1116 1.349 . S
C1128 H1122 0.950 1_556 S
C1128 C1129 1.327 . S
C1129 H1123 0.950 . S
C1129 C1128 1.327 . S
C1129 C1133 1.429 . S
C1130 C1113 1.574 . S
C1130 H1124 0.949 . S
C1130 C1134 1.368 . S
C1131 C1112 1.429 . S
C1131 C1125 1.429 . S
C1131 C1132 1.523 . S
C1132 C1113 1.368 . S
C1132 C1126 1.368 . S
C1132 C1131 1.523 . S
C1133 C1117 1.429 . S
C1133 C1129 1.429 . S
C1133 C1134 1.523 . S
C1134 C1118 1.368 . S
C1134 C1130 1.368 . S
C1134 C1133 1.523 . S
H1135 C1110 0.950 . S
H1136 C1112 0.950 . S
H1137 C1113 0.949 . S
H1138 C1115 0.950 . S
H1139 C1117 0.950 . S
C1140 C1141 1.349 . S
C1140 C1142 1.327 . S
C1140 H1165 0.950 . S
C1141 C1140 1.349 . S
C1141 C1157 1.349 . S
C1142 C1140 1.327 . S
C1142 C1161 1.429 . S
C1142 H1166 0.950 . S
C1143 C1160 1.574 . S
C1143 C1162 1.368 . S
C1143 H1167 0.949 . S
H1144 C1148 0.949 . S
C1145 C1146 1.349 . S
C1145 C1147 1.327 . S
C1145 H1168 0.950 . S
C1146 C1145 1.349 . S
C1146 C1158 1.349 . S
C1147 C1145 1.327 . S
C1147 C1163 1.429 . S
C1147 H1169 0.950 . S
C1148 H1144 0.949 . S
C1148 C1156 1.574 . S
C1148 C1164 1.368 . S
H1149 C1157 0.950 . S
H1150 C1155 0.950 . S
H1151 C1156 0.949 . S
H1152 C1158 0.950 . S
H1153 C1159 0.950 . S
H1154 C1160 0.949 . S
C1155 H1150 0.950 . S
C1155 C1157 1.327 . S
C1155 C1161 1.429 . S
C1156 C1148 1.574 . S
C1156 H1151 0.949 . S
C1156 C1162 1.368 . S
C1157 C1141 1.349 . S
C1157 H1149 0.950 . S
C1157 C1155 1.327 . S
C1158 C1146 1.349 . S
C1158 H1152 0.950 . S
C1158 C1159 1.327 . S
C1159 H1153 0.950 . S
C1159 C1158 1.327 . S
C1159 C1163 1.429 . S
C1160 C1143 1.574 . S
C1160 H1154 0.949 . S
C1160 C1164 1.368 . S
C1161 C1142 1.429 . S
C1161 C1155 1.429 . S
C1161 C1162 1.523 . S
C1162 C1143 1.368 . S
C1162 C1156 1.368 . S
C1162 C1161 1.523 . S
C1163 C1147 1.429 . S
C1163 C1159 1.429 . S
C1163 C1164 1.523 . S
C1164 C1148 1.368 . S
C1164 C1160 1.368 . S
C1164 C1163 1.523 . S
H1165 C1140 0.950 . S
H1166 C1142 0.950 . S
H1167 C1143 0.949 . S
H1168 C1145 0.950 . S
H1169 C1147 0.950 . S
C1170 C1171 1.349 . S
C1170 C1172 1.327 . S
C1170 H1195 0.950 . S
C1171 C1170 1.349 . S
C1171 C1187 1.349 . S
C1172 C1170 1.327 . S
C1172 C1191 1.429 . S
C1172 H1196 0.950 . S
C1173 C1190 1.574 . S
C1173 C1192 1.368 . S
C1173 H1197 0.949 . S
H1174 C1178 0.949 . S
C1175 C1176 1.349 . S
C1175 C1177 1.327 . S
C1175 H1198 0.950 . S
C1176 C1175 1.349 . S
C1176 C1188 1.349 . S
C1177 C1175 1.327 . S
C1177 C1193 1.429 . S
C1177 H1199 0.950 . S
C1178 H1174 0.949 . S
C1178 C1186 1.574 . S
C1178 C1194 1.368 . S
H1179 C1187 0.950 . S
H1180 C1185 0.950 . S
H1181 C1186 0.949 . S
H1182 C1188 0.950 . S
H1183 C1189 0.950 . S
H1184 C1190 0.949 . S
C1185 H1180 0.950 . S
C1185 C1187 1.327 . S
C1185 C1191 1.429 . S
C1186 C1178 1.574 . S
C1186 H1181 0.949 . S
C1186 C1192 1.368 . S
C1187 C1171 1.349 . S
C1187 H1179 0.950 . S
C1187 C1185 1.327 . S
C1188 C1176 1.349 . S
C1188 H1182 0.950 . S
C1188 C1189 1.327 . S
C1189 H1183 0.950 . S
C1189 C1188 1.327 . S
C1189 C1193 1.429 . S
C1190 C1173 1.574 . S
C1190 H1184 0.949 . S
C1190 C1194 1.368 . S
C1191 C1172 1.429 . S
C1191 C1185 1.429 . S
C1191 C1192 1.523 . S
C1192 C1173 1.368 . S
C1192 C1186 1.368 . S
C1192 C1191 1.523 . S
C1193 C1177 1.429 . S
C1193 C1189 1.429 . S
C1193 C1194 1.523 . S
C1194 C1178 1.368 . S
C1194 C1190 1.368 . S
C1194 C1193 1.523 . S
H1195 C1170 0.950 . S
H1196 C1172 0.950 . S
H1197 C1173 0.949 . S
H1198 C1175 0.950 . S
H1199 C1177 0.950 . S
C1200 C1201 1.349 . S
C1200 C1202 1.327 . S
C1200 H1225 0.950 . S
C1201 C1200 1.349 . S
C1201 C1217 1.349 . S
C1202 C1200 1.327 . S
C1202 C1221 1.429 . S
C1202 H1226 0.950 . S
C1203 C1220 1.574 . S
C1203 C1222 1.368 . S
C1203 H1227 0.949 . S
H1204 C1208 0.949 . S
C1205 C1206 1.349 . S
C1205 C1207 1.327 . S
C1205 H1228 0.950 . S
C1206 C1205 1.349 . S
C1206 C1218 1.349 . S
C1207 C1205 1.327 . S
C1207 C1223 1.429 . S
C1207 H1229 0.950 . S
C1208 H1204 0.949 . S
C1208 C1216 1.574 . S
C1208 C1224 1.368 . S
H1209 C1217 0.950 . S
H1210 C1215 0.950 . S
H1211 C1216 0.949 . S
H1212 C1218 0.950 . S
H1213 C1219 0.950 . S
H1214 C1220 0.949 . S
C1215 H1210 0.950 . S
C1215 C1217 1.327 . S
C1215 C1221 1.429 . S
C1216 C1208 1.574 . S
C1216 H1211 0.949 . S
C1216 C1222 1.368 . S
C1217 C1201 1.349 . S
C1217 H1209 0.950 . S
C1217 C1215 1.327 . S
C1218 C1206 1.349 . S
C1218 H1212 0.950 . S
C1218 C1219 1.327 . S
C1219 H1213 0.950 . S
C1219 C1218 1.327 . S
C1219 C1223 1.429 . S
C1220 C1203 1.574 . S
C1220 H1214 0.949 . S
C1220 C1224 1.368 . S
C1221 C1202 1.429 . S
C1221 C1215 1.429 . S
C1221 C1222 1.523 . S
C1222 C1203 1.368 . S
C1222 C1216 1.368 . S
C1222 C1221 1.523 . S
C1223 C1207 1.429 . S
C1223 C1219 1.429 . S
C1223 C1224 1.523 . S
C1224 C1208 1.368 . S
C1224 C1220 1.368 . S
C1224 C1223 1.523 . S
H1225 C1200 0.950 . S
H1226 C1202 0.950 . S
H1227 C1203 0.949 . S
H1228 C1205 0.950 . S
H1229 C1207 0.950 . S
C1230 C1231 1.349 . S
C1230 C1232 1.327 . S
C1230 H1255 0.950 . S
C1231 C1230 1.349 . S
C1231 C1247 1.349 . S
C1232 C1230 1.327 . S
C1232 C1251 1.429 . S
C1232 H1256 0.950 . S
C1233 C1250 1.574 . S
C1233 C1252 1.368 . S
C1233 H1257 0.949 . S
H1234 C1238 0.949 . S
C1235 C1236 1.349 . S
C1235 C1237 1.327 . S
C1235 H1258 0.950 . S
C1236 C1235 1.349 . S
C1236 C1248 1.349 . S
C1237 C1235 1.327 . S
C1237 C1253 1.429 . S
C1237 H1259 0.950 . S
C1238 H1234 0.949 . S
C1238 C1246 1.574 . S
C1238 C1254 1.368 . S
H1239 C1247 0.950 . S
H1240 C1245 0.950 . S
H1241 C1246 0.949 . S
H1242 C1248 0.950 . S
H1243 C1249 0.950 . S
H1244 C1250 0.949 . S
C1245 H1240 0.950 . S
C1245 C1247 1.327 . S
C1245 C1251 1.429 . S
C1246 C1238 1.574 . S
C1246 H1241 0.949 . S
C1246 C1252 1.368 . S
C1247 C1231 1.349 . S
C1247 H1239 0.950 . S
C1247 C1245 1.327 . S
C1248 C1236 1.349 . S
C1248 H1242 0.950 . S
C1248 C1249 1.327 . S
C1249 H1243 0.950 . S
C1249 C1248 1.327 . S
C1249 C1253 1.429 . S
C1250 C1233 1.574 . S
C1250 H1244 0.949 . S
C1250 C1254 1.368 . S
C1251 C1232 1.429 . S
C1251 C1245 1.429 . S
C1251 C1252 1.523 . S
C1252 C1233 1.368 . S
C1252 C1246 1.368 . S
C1252 C1251 1.523 . S
C1253 C1237 1.429 . S
C1253 C1249 1.429 . S
C1253 C1254 1.523 . S
C1254 C1238 1.368 . S
C1254 C1250 1.368 . S
C1254 C1253 1.523 . S
H1255 C1230 0.950 . S
H1256 C1232 0.950 . S
H1257 C1233 0.949 . S
H1258 C1235 0.950 . S
H1259 C1237 0.950 . S
C1260 C1261 1.349 . S
C1260 C1262 1.327 . S
C1260 H1285 0.950 . S
C1261 C1260 1.349 . S
C1261 C1277 1.349 . S
C1262 C1260 1.327 . S
C1262 C1281 1.429 . S
C1262 H1286 0.950 . S
C1263 C1280 1.574 . S
C1263 C1282 1.368 . S
C1263 H1287 0.949 . S
H1264 C1268 0.949 1_655 S
C1265 C1266 1.349 . S
C1265 C1267 1.327 . S
C1265 H1288 0.950 . S
C1266 C1265 1.349 . S
C1266 C1278 1.349 . S
C1267 C1265 1.327 . S
C1267 C1283 1.429 . S
C1267 H1289 0.950 . S
C1268 H1264 0.949 1_455 S
C1268 C1276 1.574 . S
C1268 C1284 1.368 . S
H1269 C1277 0.950 . S
H1270 C1275 0.950 . S
H1271 C1276 0.949 . S
H1272 C1278 0.950 . S
H1273 C1279 0.950 . S
H1274 C1280 0.949 . S
C1275 H1270 0.950 . S
C1275 C1277 1.327 . S
C1275 C1281 1.429 . S
C1276 C1268 1.574 . S
C1276 H1271 0.949 . S
C1276 C1282 1.368 . S
C1277 C1261 1.349 . S
C1277 H1269 0.950 . S
C1277 C1275 1.327 . S
C1278 C1266 1.349 . S
C1278 H1272 0.950 . S
C1278 C1279 1.327 . S
C1279 H1273 0.950 . S
C1279 C1278 1.327 . S
C1279 C1283 1.429 . S
C1280 C1263 1.574 . S
C1280 H1274 0.949 . S
C1280 C1284 1.368 . S
C1281 C1262 1.429 . S
C1281 C1275 1.429 . S
C1281 C1282 1.523 . S
C1282 C1263 1.368 . S
C1282 C1276 1.368 . S
C1282 C1281 1.523 . S
C1283 C1267 1.429 . S
C1283 C1279 1.429 . S
C1283 C1284 1.523 1_655 S
C1284 C1268 1.368 . S
C1284 C1280 1.368 . S
C1284 C1283 1.523 1_455 S
H1285 C1260 0.950 . S
H1286 C1262 0.950 . S
H1287 C1263 0.949 . S
H1288 C1265 0.950 . S
H1289 C1267 0.950 . S
C1290 C1291 1.349 . S
C1290 C1292 1.327 . S
C1290 H1315 0.950 . S
C1291 C1290 1.349 . S
C1291 C1307 1.349 . S
C1292 C1290 1.327 . S
C1292 C1311 1.429 . S
C1292 H1316 0.950 . S
C1293 C1310 1.574 . S
C1293 C1312 1.368 . S
C1293 H1317 0.949 . S
H1294 C1298 0.949 . S
C1295 C1296 1.349 . S
C1295 C1297 1.327 . S
C1295 H1318 0.950 . S
C1296 C1295 1.349 . S
C1296 C1308 1.349 . S
C1297 C1295 1.327 . S
C1297 C1313 1.429 . S
C1297 H1319 0.950 . S
C1298 H1294 0.949 . S
C1298 C1306 1.574 . S
C1298 C1314 1.368 . S
H1299 C1307 0.950 . S
H1300 C1305 0.950 . S
H1301 C1306 0.949 . S
H1302 C1308 0.950 . S
H1303 C1309 0.950 . S
H1304 C1310 0.949 . S
C1305 H1300 0.950 . S
C1305 C1307 1.327 . S
C1305 C1311 1.429 . S
C1306 C1298 1.574 . S
C1306 H1301 0.949 . S
C1306 C1312 1.368 . S
C1307 C1291 1.349 . S
C1307 H1299 0.950 . S
C1307 C1305 1.327 . S
C1308 C1296 1.349 . S
C1308 H1302 0.950 . S
C1308 C1309 1.327 . S
C1309 H1303 0.950 . S
C1309 C1308 1.327 . S
C1309 C1313 1.429 . S
C1310 C1293 1.574 . S
C1310 H1304 0.949 . S
C1310 C1314 1.368 . S
C1311 C1292 1.429 . S
C1311 C1305 1.429 . S
C1311 C1312 1.523 . S
C1312 C1293 1.368 . S
C1312 C1306 1.368 . S
C1312 C1311 1.523 . S
C1313 C1297 1.429 . S
C1313 C1309 1.429 . S
C1313 C1314 1.523 . S
C1314 C1298 1.368 . S
C1314 C1310 1.368 . S
C1314 C1313 1.523 . S
H1315 C1290 0.950 . S
H1316 C1292 0.950 . S
H1317 C1293 0.949 . S
H1318 C1295 0.950 . S
H1319 C1297 0.950 . S
C1320 C1321 1.349 . S
C1320 C1322 1.327 . S
C1320 H1345 0.950 . S
C1321 C1320 1.349 . S
C1321 C1337 1.349 . S
C1322 C1320 1.327 . S
C1322 C1341 1.429 . S
C1322 H1346 0.950 . S
C1323 C1340 1.574 . S
C1323 C1342 1.368 . S
C1323 H1347 0.949 . S
H1324 C1328 0.949 . S
C1325 C1326 1.349 . S
C1325 C1327 1.327 . S
C1325 H1348 0.950 . S
C1326 C1325 1.349 . S
C1326 C1338 1.349 . S
C1327 C1325 1.327 . S
C1327 C1343 1.429 . S
C1327 H1349 0.950 . S
C1328 H1324 0.949 . S
C1328 C1336 1.574 . S
C1328 C1344 1.368 . S
H1329 C1337 0.950 . S
H1330 C1335 0.950 . S
H1331 C1336 0.949 . S
H1332 C1338 0.950 . S
H1333 C1339 0.950 . S
H1334 C1340 0.949 . S
C1335 H1330 0.950 . S
C1335 C1337 1.327 . S
C1335 C1341 1.429 . S
C1336 C1328 1.574 . S
C1336 H1331 0.949 . S
C1336 C1342 1.368 . S
C1337 C1321 1.349 . S
C1337 H1329 0.950 . S
C1337 C1335 1.327 . S
C1338 C1326 1.349 . S
C1338 H1332 0.950 . S
C1338 C1339 1.327 . S
C1339 H1333 0.950 . S
C1339 C1338 1.327 . S
C1339 C1343 1.429 . S
C1340 C1323 1.574 . S
C1340 H1334 0.949 . S
C1340 C1344 1.368 . S
C1341 C1322 1.429 . S
C1341 C1335 1.429 . S
C1341 C1342 1.523 . S
C1342 C1323 1.368 . S
C1342 C1336 1.368 . S
C1342 C1341 1.523 . S
C1343 C1327 1.429 . S
C1343 C1339 1.429 . S
C1343 C1344 1.523 . S
C1344 C1328 1.368 . S
C1344 C1340 1.368 . S
C1344 C1343 1.523 . S
H1345 C1320 0.950 . S
H1346 C1322 0.950 . S
H1347 C1323 0.949 . S
H1348 C1325 0.950 . S
H1349 C1327 0.950 . S
C1350 C1351 1.349 . S
C1350 C1352 1.327 . S
C1350 H1375 0.950 . S
C1351 C1350 1.349 . S
C1351 C1367 1.349 . S
C1352 C1350 1.327 . S
C1352 C1371 1.429 . S
C1352 H1376 0.950 . S
C1353 C1370 1.574 . S
C1353 C1372 1.368 . S
C1353 H1377 0.949 . S
H1354 C1358 0.949 . S
C1355 C1356 1.349 . S
C1355 C1357 1.327 . S
C1355 H1378 0.950 . S
C1356 C1355 1.349 . S
C1356 C1368 1.349 . S
C1357 C1355 1.327 . S
C1357 C1373 1.429 . S
C1357 H1379 0.950 . S
C1358 H1354 0.949 . S
C1358 C1366 1.574 . S
C1358 C1374 1.368 . S
H1359 C1367 0.950 . S
H1360 C1365 0.950 . S
H1361 C1366 0.949 . S
H1362 C1368 0.950 . S
H1363 C1369 0.950 . S
H1364 C1370 0.949 . S
C1365 H1360 0.950 . S
C1365 C1367 1.327 . S
C1365 C1371 1.429 . S
C1366 C1358 1.574 . S
C1366 H1361 0.949 . S
C1366 C1372 1.368 . S
C1367 C1351 1.349 . S
C1367 H1359 0.950 . S
C1367 C1365 1.327 . S
C1368 C1356 1.349 . S
C1368 H1362 0.950 . S
C1368 C1369 1.327 . S
C1369 H1363 0.950 . S
C1369 C1368 1.327 . S
C1369 C1373 1.429 . S
C1370 C1353 1.574 . S
C1370 H1364 0.949 . S
C1370 C1374 1.368 . S
C1371 C1352 1.429 . S
C1371 C1365 1.429 . S
C1371 C1372 1.523 . S
C1372 C1353 1.368 . S
C1372 C1366 1.368 . S
C1372 C1371 1.523 . S
C1373 C1357 1.429 . S
C1373 C1369 1.429 . S
C1373 C1374 1.523 . S
C1374 C1358 1.368 . S
C1374 C1370 1.368 . S
C1374 C1373 1.523 . S
H1375 C1350 0.950 . S
H1376 C1352 0.950 . S
H1377 C1353 0.949 . S
H1378 C1355 0.950 . S
H1379 C1357 0.950 . S
C1380 C1381 1.349 . S
C1380 C1382 1.327 . S
C1380 H1405 0.950 . S
C1381 C1380 1.349 . S
C1381 C1397 1.349 . S
C1382 C1380 1.327 . S
C1382 C1401 1.429 . S
C1382 H1406 0.950 . S
C1383 C1400 1.574 . S
C1383 C1402 1.368 . S
C1383 H1407 0.949 . S
H1384 C1388 0.949 . S
C1385 C1386 1.349 . S
C1385 C1387 1.327 . S
C1385 H1408 0.950 . S
C1386 C1385 1.349 . S
C1386 C1398 1.349 . S
C1387 C1385 1.327 . S
C1387 C1403 1.429 . S
C1387 H1409 0.950 . S
C1388 H1384 0.949 . S
C1388 C1396 1.574 . S
C1388 C1404 1.368 . S
H1389 C1397 0.950 . S
H1390 C1395 0.950 . S
H1391 C1396 0.949 . S
H1392 C1398 0.950 . S
H1393 C1399 0.950 . S
H1394 C1400 0.949 . S
C1395 H1390 0.950 . S
C1395 C1397 1.327 . S
C1395 C1401 1.429 . S
C1396 C1388 1.574 . S
C1396 H1391 0.949 . S
C1396 C1402 1.368 . S
C1397 C1381 1.349 . S
C1397 H1389 0.950 . S
C1397 C1395 1.327 . S
C1398 C1386 1.349 . S
C1398 H1392 0.950 . S
C1398 C1399 1.327 . S
C1399 H1393 0.950 . S
C1399 C1398 1.327 . S
C1399 C1403 1.429 . S
C1400 C1383 1.574 . S
C1400 H1394 0.949 . S
C1400 C1404 1.368 . S
C1401 C1382 1.429 . S
C1401 C1395 1.429 . S
C1401 C1402 1.523 . S
C1402 C1383 1.368 . S
C1402 C1396 1.368 . S
C1402 C1401 1.523 . S
C1403 C1387 1.429 . S
C1403 C1399 1.429 . S
C1403 C1404 1.523 . S
C1404 C1388 1.368 . S
C1404 C1400 1.368 . S
C1404 C1403 1.523 . S
H1405 C1380 0.950 . S
H1406 C1382 0.950 . S
H1407 C1383 0.949 . S
H1408 C1385 0.950 . S
H1409 C1387 0.950 . S
C1410 C1411 1.349 . S
C1410 C1412 1.327 1_565 S
C1410 H1435 0.950 . S
C1411 C1410 1.349 . S
C1411 C1427 1.349 1_565 S
C1412 C1410 1.327 1_545 S
C1412 C1431 1.429 . S
C1412 H1436 0.950 . S
C1413 C1430 1.574 . S
C1413 C1432 1.368 . S
C1413 H1437 0.949 . S
H1414 C1418 0.949 . S
C1415 C1416 1.349 . S
C1415 C1417 1.327 1_455 S
C1415 H1438 0.950 . S
C1416 C1415 1.349 . S
C1416 C1428 1.349 . S
C1417 C1415 1.327 1_655 S
C1417 C1433 1.429 . S
C1417 H1439 0.950 . S
C1418 H1414 0.949 . S
C1418 C1426 1.574 . S
C1418 C1434 1.368 . S
H1419 C1427 0.950 . S
H1420 C1425 0.950 . S
H1421 C1426 0.949 . S
H1422 C1428 0.950 . S
H1423 C1429 0.950 . S
H1424 C1430 0.949 . S
C1425 H1420 0.950 . S
C1425 C1427 1.327 . S
C1425 C1431 1.429 . S
C1426 C1418 1.574 . S
C1426 H1421 0.949 . S
C1426 C1432 1.368 . S
C1427 C1411 1.349 1_545 S
C1427 H1419 0.950 . S
C1427 C1425 1.327 . S
C1428 C1416 1.349 . S
C1428 H1422 0.950 . S
C1428 C1429 1.327 . S
C1429 H1423 0.950 . S
C1429 C1428 1.327 . S
C1429 C1433 1.429 1_455 S
C1430 C1413 1.574 . S
C1430 H1424 0.949 . S
C1430 C1434 1.368 . S
C1431 C1412 1.429 . S
C1431 C1425 1.429 . S
C1431 C1432 1.523 . S
C1432 C1413 1.368 . S
C1432 C1426 1.368 . S
C1432 C1431 1.523 . S
C1433 C1417 1.429 . S
C1433 C1429 1.429 1_655 S
C1433 C1434 1.523 . S
C1434 C1418 1.368 . S
C1434 C1430 1.368 . S
C1434 C1433 1.523 . S
H1435 C1410 0.950 . S
H1436 C1412 0.950 . S
H1437 C1413 0.949 . S
H1438 C1415 0.950 . S
H1439 C1417 0.950 . S
C361 N6 1.032 . S
C366 N336 1.019 . S
C391 C271 2.002 . S
C396 C31 2.006 1_655 S
C421 N66 1.648 . S
C426 C241 1.741 . S
C451 C91 2.006 . S
C456 C301 2.001 . S
C481 N126 0.821 . S
C486 N306 0.829 . S
C511 N156 1.336 . S
C516 C331 1.398 . S
C541 N276 1.423 . S
C546 C181 1.503 . S
C571 N216 0.601 . S
C576 N246 0.630 . S
C601 N96 1.276 . S
C606 C121 1.341 . S
C631 C1 2.152 . S
C636 C151 2.171 . S
C661 N36 0.520 . S
C666 N186 0.587 . S
C691 C211 2.068 . S
C696 C61 2.067 1_554 S
C721 C16 0.942 . S
C726 C250 0.943 . S
C751 C57 1.219 . S
C756 C310 1.199 . S
C781 N344 0.666 . S
C786 C76 0.673 . S
C811 C117 1.554 . S
C816 C280 1.556 . S
C841 C136 0.691 . S
C846 N284 0.691 . S
C871 N254 0.754 . S
C876 C166 0.754 . S
C901 N314 0.916 . S
C906 C207 0.916 . S
C931 C340 0.948 . S
C936 C226 0.954 . S
C961 C10 1.414 . S
C966 C106 1.412 . S
C991 C27 0.820 . S
C996 N44 0.821 . S
C1021 C46 1.489 . S
C1026 C70 1.481 . S
C1051 N104 1.015 . S
C1056 C87 1.007 1_554 S
C1081 C177 1.007 . S
C1086 C130 1.005 . S
C1111 C160 1.414 . S
C1116 C196 1.412 1_556 S
C1141 N194 0.659 . S
C1146 C237 0.659 . S
C1171 C147 0.990 . S
C1176 C220 0.985 . S
C1201 C256 1.233 . S
C1206 C100 1.235 . S
C1231 N164 1.235 . S
C1236 C297 1.224 . S
C1261 C267 0.867 . S
C1266 C190 0.862 . S
C1291 C327 0.964 . S
C1296 N224 0.965 . S
C1321 N134 0.309 . S
C1326 C346 0.349 . S
C1351 C357 0.688 . S
C1356 C40 0.689 . S
C1381 N74 1.030 . S
C1386 C286 1.023 1_565 S
C1411 C316 0.976 . S
C1416 N14 0.978 . S
