# Generated by pormake.
# Topology bcs, (6)-cn, num edge types: 1
# Building blocks:
#     Node 0, Type 0, BuildingBlock: BETDIP_clean_sbu_0, # of connection points: 6
#     Node 1, Type 0, BuildingBlock: BETDIP_clean_sbu_0, # of connection points: 6
#     Node 2, Type 0, BuildingBlock: BETDIP_clean_sbu_0, # of connection points: 6
#     Node 3, Type 0, BuildingBlock: BETDIP_clean_sbu_0, # of connection points: 6
#     Node 4, Type 0, BuildingBlock: BETDIP_clean_sbu_0, # of connection points: 6
#     Node 5, Type 0, BuildingBlock: BETDIP_clean_sbu_0, # of connection points: 6
#     Node 6, Type 0, BuildingBlock: BETDIP_clean_sbu_0, # of connection points: 6
#     Node 7, Type 0, BuildingBlock: BETDIP_clean_sbu_0, # of connection points: 6
#     Node 8, Type 0, BuildingBlock: BETDIP_clean_sbu_0, # of connection points: 6
#     Node 9, Type 0, BuildingBlock: BETDIP_clean_sbu_0, # of connection points: 6
#     Node 10, Type 0, BuildingBlock: BETDIP_clean_sbu_0, # of connection points: 6
#     Node 11, Type 0, BuildingBlock: BETDIP_clean_sbu_0, # of connection points: 6
#     Node 12, Type 0, BuildingBlock: BETDIP_clean_sbu_0, # of connection points: 6
#     Node 13, Type 0, BuildingBlock: BETDIP_clean_sbu_0, # of connection points: 6
#     Node 14, Type 0, BuildingBlock: BETDIP_clean_sbu_0, # of connection points: 6
#     Node 15, Type 0, BuildingBlock: BETDIP_clean_sbu_0, # of connection points: 6
#     Edge 16, Type (0, 0), BuildingBlock: XUDNAN_clean_linker_2, # of connection points: 2
#     Edge 17, Type (0, 0), BuildingBlock: XUDNAN_clean_linker_2, # of connection points: 2
#     Edge 18, Type (0, 0), BuildingBlock: XUDNAN_clean_linker_2, # of connection points: 2
#     Edge 19, Type (0, 0), BuildingBlock: XUDNAN_clean_linker_2, # of connection points: 2
#     Edge 20, Type (0, 0), BuildingBlock: XUDNAN_clean_linker_2, # of connection points: 2
#     Edge 21, Type (0, 0), BuildingBlock: XUDNAN_clean_linker_2, # of connection points: 2
#     Edge 22, Type (0, 0), BuildingBlock: XUDNAN_clean_linker_2, # of connection points: 2
#     Edge 23, Type (0, 0), BuildingBlock: XUDNAN_clean_linker_2, # of connection points: 2
#     Edge 24, Type (0, 0), BuildingBlock: XUDNAN_clean_linker_2, # of connection points: 2
#     Edge 25, Type (0, 0), BuildingBlock: XUDNAN_clean_linker_2, # of connection points: 2
#     Edge 26, Type (0, 0), BuildingBlock: XUDNAN_clean_linker_2, # of connection points: 2
#     Edge 27, Type (0, 0), BuildingBlock: XUDNAN_clean_linker_2, # of connection points: 2
#     Edge 28, Type (0, 0), BuildingBlock: XUDNAN_clean_linker_2, # of connection points: 2
#     Edge 29, Type (0, 0), BuildingBlock: XUDNAN_clean_linker_2, # of connection points: 2
#     Edge 30, Type (0, 0), BuildingBlock: XUDNAN_clean_linker_2, # of connection points: 2
#     Edge 31, Type (0, 0), BuildingBlock: XUDNAN_clean_linker_2, # of connection points: 2
#     Edge 32, Type (0, 0), BuildingBlock: XUDNAN_clean_linker_2, # of connection points: 2
#     Edge 33, Type (0, 0), BuildingBlock: XUDNAN_clean_linker_2, # of connection points: 2
#     Edge 34, Type (0, 0), BuildingBlock: XUDNAN_clean_linker_2, # of connection points: 2
#     Edge 35, Type (0, 0), BuildingBlock: XUDNAN_clean_linker_2, # of connection points: 2
#     Edge 36, Type (0, 0), BuildingBlock: XUDNAN_clean_linker_2, # of connection points: 2
#     Edge 37, Type (0, 0), BuildingBlock: XUDNAN_clean_linker_2, # of connection points: 2
#     Edge 38, Type (0, 0), BuildingBlock: XUDNAN_clean_linker_2, # of connection points: 2
#     Edge 39, Type (0, 0), BuildingBlock: XUDNAN_clean_linker_2, # of connection points: 2
#     Edge 40, Type (0, 0), BuildingBlock: XUDNAN_clean_linker_2, # of connection points: 2
#     Edge 41, Type (0, 0), BuildingBlock: XUDNAN_clean_linker_2, # of connection points: 2
#     Edge 42, Type (0, 0), BuildingBlock: XUDNAN_clean_linker_2, # of connection points: 2
#     Edge 43, Type (0, 0), BuildingBlock: XUDNAN_clean_linker_2, # of connection points: 2
#     Edge 44, Type (0, 0), BuildingBlock: XUDNAN_clean_linker_2, # of connection points: 2
#     Edge 45, Type (0, 0), BuildingBlock: XUDNAN_clean_linker_2, # of connection points: 2
#     Edge 46, Type (0, 0), BuildingBlock: XUDNAN_clean_linker_2, # of connection points: 2
#     Edge 47, Type (0, 0), BuildingBlock: XUDNAN_clean_linker_2, # of connection points: 2
#     Edge 48, Type (0, 0), BuildingBlock: XUDNAN_clean_linker_2, # of connection points: 2
#     Edge 49, Type (0, 0), BuildingBlock: XUDNAN_clean_linker_2, # of connection points: 2
#     Edge 50, Type (0, 0), BuildingBlock: XUDNAN_clean_linker_2, # of connection points: 2
#     Edge 51, Type (0, 0), BuildingBlock: XUDNAN_clean_linker_2, # of connection points: 2
#     Edge 52, Type (0, 0), BuildingBlock: XUDNAN_clean_linker_2, # of connection points: 2
#     Edge 53, Type (0, 0), BuildingBlock: XUDNAN_clean_linker_2, # of connection points: 2
#     Edge 54, Type (0, 0), BuildingBlock: XUDNAN_clean_linker_2, # of connection points: 2
#     Edge 55, Type (0, 0), BuildingBlock: XUDNAN_clean_linker_2, # of connection points: 2
#     Edge 56, Type (0, 0), BuildingBlock: XUDNAN_clean_linker_2, # of connection points: 2
#     Edge 57, Type (0, 0), BuildingBlock: XUDNAN_clean_linker_2, # of connection points: 2
#     Edge 58, Type (0, 0), BuildingBlock: XUDNAN_clean_linker_2, # of connection points: 2
#     Edge 59, Type (0, 0), BuildingBlock: XUDNAN_clean_linker_2, # of connection points: 2
#     Edge 60, Type (0, 0), BuildingBlock: XUDNAN_clean_linker_2, # of connection points: 2
#     Edge 61, Type (0, 0), BuildingBlock: XUDNAN_clean_linker_2, # of connection points: 2
#     Edge 62, Type (0, 0), BuildingBlock: XUDNAN_clean_linker_2, # of connection points: 2
#     Edge 63, Type (0, 0), BuildingBlock: XUDNAN_clean_linker_2, # of connection points: 2
# Relax obj value: 0.206
# Max RMSD: 0.236
# Mean RMSD: 0.196
data_MOF--net-bcs--node1-BETDIP_clean_sbu_0--edge1-XUDNAN_clean_linker_2
_symmetry_space_group_name_H-M    P1
_symmetry_Int_Tables_number       1
_symmetry_cell_setting            triclinic
loop_
_symmetry_equiv_pos_as_xyz
'x, y, z'
_cell_length_a     43.143479
_cell_length_b     43.051059
_cell_length_c     39.387852
_cell_angle_alpha  72.428044
_cell_angle_beta   121.9769
_cell_angle_gamma 112.18231
loop_
_atom_site_label
_atom_site_type_symbol
_atom_site_fract_x
_atom_site_fract_y
_atom_site_fract_z
_atom_type_partial_charge
Tb0 Tb 1.03225 1.00292 0.9861 0.0
Tb1 Tb 0.07177 0.05445 0.02645 0.0
C2 C 1.01178 0.96375 0.93682 0.0
C3 C 1.03067 0.95355 0.92098 0.0
C4 C 0.06584 0.9459 0.94663 0.0
C5 C 0.08156 0.93328 0.93198 0.0
C6 C 0.06266 0.92804 0.89122 0.0
C7 C 1.02801 0.93676 0.86542 0.0
C8 C 1.01223 0.94923 0.88015 0.0
C9 C 1.0016 0.97979 0.04069 0.0
C10 C 0.11226 0.99719 0.05853 0.0
C11 C 0.09309 0.09412 0.07565 0.0
C12 C 0.0754 0.10335 0.09371 0.0
C13 C 1.05313 0.07879 0.11073 0.0
C14 C 1.03566 0.0884 0.12611 0.0
C15 C 1.0399 0.12283 0.12479 0.0
C16 C 0.06247 0.14729 0.10797 0.0
C17 C 0.07995 0.13766 0.09269 0.0
C18 C 0.10209 0.07731 0.97128 0.0
C19 C 0.99141 0.05993 0.9551 0.0
O20 O 1.00846 0.99466 0.9257 0.0
O21 O 1.02158 0.95434 0.97504 0.0
O22 O 1.02803 1.0085 0.03905 0.0
O23 O 0.99305 0.96635 1.01048 0.0
O24 O 0.0823 0.98399 0.02703 0.0
O25 O 0.115 1.02632 0.06559 0.0
O26 O 0.0984 0.0639 0.0867 0.0
O27 O 0.08025 0.10282 0.03688 0.0
O28 O 0.07588 0.0487 0.9735 0.0
O29 O 0.11043 0.09111 1.00112 0.0
O30 O 1.02143 0.07295 0.98665 0.0
O31 O 0.9887 0.031 0.94751 0.0
H32 H 0.08086 0.94884 0.97834 0.0
H33 H 0.10797 0.92658 0.95304 0.0
H34 H 1.0128 0.93378 0.83374 0.0
H35 H 0.98516 0.95493 0.85968 0.0
H36 H 1.04898 0.05215 0.11186 0.0
H37 H 1.01822 0.06876 0.13838 0.0
H38 H 0.06696 0.174 0.10691 0.0
H39 H 0.09697 0.15715 0.07979 0.0
Tb40 Tb 0.26787 0.75859 0.26649 0.0
Tb41 Tb 0.33618 0.79765 0.25945 0.0
C42 C 0.20032 0.72765 0.25036 0.0
C43 C 0.17757 0.69249 0.24909 0.0
C44 C 0.18975 0.66717 0.24774 0.0
C45 C 0.17046 0.63314 0.25261 0.0
C46 C 0.13941 0.62402 0.26004 0.0
C47 C 0.12598 0.65002 0.25834 0.0
C48 C 0.14481 0.68385 0.25273 0.0
C49 C 0.32062 0.79504 0.32634 0.0
C50 C 0.3318 0.72145 0.30644 0.0
C51 C 0.40375 0.83041 0.27903 0.0
C52 C 0.42413 0.8662 0.2818 0.0
C53 C 0.46323 0.87544 0.3076 0.0
C54 C 0.48427 0.90885 0.30368 0.0
C55 C 0.4664 0.93279 0.27309 0.0
C56 C 0.42657 0.92458 0.25217 0.0
C57 C 0.40548 0.89128 0.25634 0.0
C58 C 0.28393 0.76178 0.19899 0.0
C59 C 0.27152 0.83411 0.21778 0.0
O60 O 0.21195 0.74024 0.22313 0.0
O61 O 0.22692 0.73562 0.28629 0.0
O62 O 0.31069 0.80378 0.28936 0.0
O63 O 0.29907 0.76523 0.33092 0.0
O64 O 0.29478 0.71682 0.2909 0.0
O65 O 0.35344 0.75176 0.30027 0.0
O66 O 0.39104 0.81556 0.30518 0.0
O67 O 0.37892 0.8224 0.24255 0.0
O68 O 0.29313 0.75261 0.23586 0.0
O69 O 0.30639 0.79131 0.19518 0.0
O70 O 0.30858 0.83899 0.23371 0.0
O71 O 0.25007 0.80378 0.22417 0.0
H72 H 0.21512 0.67364 0.24481 0.0
H73 H 0.18129 0.61402 0.25301 0.0
H74 H 0.10288 0.6447 0.26476 0.0
H75 H 0.1351 0.70323 0.25376 0.0
H76 H 0.47786 0.85644 0.32827 0.0
H77 H 0.51488 0.91482 0.32026 0.0
H78 H 0.41196 0.94254 0.22854 0.0
H79 H 0.37506 0.88467 0.23711 0.0
Tb80 Tb 0.55011 1.01952 0.55239 0.0
Tb81 Tb 0.56043 0.02963 0.48154 0.0
C82 C 0.54624 1.02561 0.61151 0.0
C83 C 0.5418 0.05088 0.62597 0.0
C84 C 0.57395 0.07413 0.6506 0.0
C85 C 0.57024 0.09554 0.66794 0.0
C86 C 0.53435 0.0941 0.66123 0.0
C87 C 0.50211 0.07158 0.63565 0.0
C88 C 0.50581 0.0501 0.61833 0.0
C89 C 0.5123 0.96693 0.51099 0.0
C90 C 0.50623 0.0664 0.47294 0.0
C91 C 0.56187 1.02251 0.42144 0.0
C92 C 0.56924 0.99788 0.40985 0.0
C93 C 0.57068 1.00539 0.37353 0.0
C94 C 0.57918 0.983 0.36252 0.0
C95 C 0.58647 0.95281 0.3878 0.0
C96 C 0.58358 0.94469 0.42352 0.0
C97 C 0.57504 0.96719 0.43453 0.0
C98 C 0.59897 0.08162 0.52359 0.0
C99 C 0.60943 0.98772 0.56388 0.0
O100 O 0.57803 0.03283 0.61047 0.0
O101 O 0.51694 1.01145 0.58014 0.0
O102 O 0.51644 0.99779 0.49638 0.0
O103 O 0.52758 0.96503 0.54977 0.0
O104 O 0.52023 0.05846 0.51259 0.0
O105 O 0.51542 0.05517 0.45263 0.0
O106 O 0.53129 1.01191 0.42564 0.0
O107 O 0.59101 0.03959 0.45042 0.0
O108 O 0.59418 0.05072 0.53759 0.0
O109 O 0.58398 0.08423 0.48472 0.0
O110 O 0.59469 0.99312 0.52389 0.0
O111 O 0.59861 0.99942 0.58211 0.0
H112 H 0.60216 0.07526 0.65739 0.0
H113 H 0.5956 0.11286 0.68719 0.0
H114 H 0.47412 0.06952 0.63034 0.0
H115 H 0.48056 0.0322 0.59992 0.0
H116 H 0.5657 0.02878 0.35393 0.0
H117 H 0.58045 0.98945 0.33439 0.0
H118 H 0.58908 0.92156 0.44345 0.0
H119 H 0.57351 0.96088 0.46248 0.0
Tb120 Tb 0.32697 0.25286 0.77422 0.0
Tb121 Tb 0.27479 0.29561 0.7302 0.0
C122 C 0.36163 0.21171 0.78689 0.0
C123 C 0.39323 0.21046 0.78306 0.0
C124 C 0.40039 0.2295 0.75084 0.0
C125 C 0.42664 0.22396 0.74431 0.0
C126 C 0.44622 0.19939 0.76996 0.0
C127 C 0.44039 0.18171 0.8034 0.0
C128 C 0.41406 0.18718 0.8098 0.0
C129 C 0.34839 0.30596 0.80813 0.0
C130 C 0.34391 0.31875 0.70406 0.0
C131 C 0.23797 0.33504 0.71694 0.0
C132 C 0.21463 0.33536 0.73374 0.0
C133 C 0.22741 0.32843 0.77564 0.0
C134 C 0.20725 0.33205 0.79187 0.0
C135 C 0.17363 0.34204 0.76653 0.0
C136 C 0.15972 0.34731 0.72453 0.0
C137 C 0.18027 0.34419 0.70823 0.0
C138 C 0.2539 0.24237 0.69681 0.0
C139 C 0.25896 0.23025 0.80134 0.0
O140 O 0.33159 0.21683 0.75294 0.0
O141 O 0.37008 0.22846 0.81481 0.0
O142 O 0.33305 0.30425 0.77109 0.0
O143 O 0.35488 0.2771 0.82861 0.0
O144 O 0.35294 0.29116 0.73211 0.0
O145 O 0.31277 0.32545 0.69814 0.0
O146 O 0.27412 0.33919 0.74227 0.0
O147 O 0.2245 0.31138 0.69445 0.0
O148 O 0.26866 0.24416 0.73376 0.0
O149 O 0.24833 0.27145 0.67608 0.0
O150 O 0.2523 0.26002 0.777 0.0
O151 O 0.28666 0.22159 0.80235 0.0
H152 H 0.3847 0.2477 0.72983 0.0
H153 H 0.43088 0.23824 0.71859 0.0
H154 H 0.45469 0.16236 0.82346 0.0
H155 H 0.40879 0.17215 0.83471 0.0
H156 H 0.25361 0.32118 0.79606 0.0
H157 H 0.21833 0.32776 0.82434 0.0
H158 H 0.13391 0.35528 0.70453 0.0
H159 H 0.1699 0.34952 0.67588 0.0
Tb160 Tb 1.02671 0.99894 0.50923 0.0
Tb161 Tb 0.08328 0.04587 0.48192 0.0
C162 C 0.98205 0.94639 0.52444 0.0
C163 C 0.98707 0.92137 0.5604 0.0
C164 C 0.95581 0.89505 0.56073 0.0
C165 C 0.95813 0.87577 0.59717 0.0
C166 C 0.99172 0.88274 0.63348 0.0
C167 C 1.02391 0.90725 0.63266 0.0
C168 C 1.02165 0.92643 0.59619 0.0
C169 C 0.07573 0.0476 0.55369 0.0
C170 C 0.10705 0.98336 0.54194 0.0
C171 C 0.12543 0.09692 0.46157 0.0
C172 C 0.11678 0.12194 0.42552 0.0
C173 C 0.14571 0.15016 0.42361 0.0
C174 C 0.13941 0.17161 0.38753 0.0
C175 C 0.10383 0.1653 0.35257 0.0
C176 C 0.07415 0.13791 0.35535 0.0
C177 C 0.08059 0.11636 0.39168 0.0
C178 C 1.03449 0.99619 0.43856 0.0
C179 C 1.00707 0.06537 0.45323 0.0
O180 O 0.99974 0.94708 0.50552 0.0
O181 O 0.98598 0.97668 0.52921 0.0
O182 O 0.08233 0.03156 0.53761 0.0
O183 O 1.04239 0.03285 0.55098 0.0
O184 O 0.07144 0.97145 0.53624 0.0
O185 O 0.11991 1.01509 0.52877 0.0
O186 O 0.11333 0.09709 0.48574 0.0
O187 O 0.11862 0.06642 0.45502 0.0
O188 O 1.02758 1.01321 0.45341 0.0
O189 O 0.06927 1.00865 0.44526 0.0
O190 O 1.04241 0.07472 0.4594 0.0
O191 O 0.99185 0.03385 0.46525 0.0
H192 H 0.92893 0.89096 0.53336 0.0
H193 H 0.9328 0.85742 0.59747 0.0
H194 H 1.04975 0.91341 0.66052 0.0
H195 H 1.04601 0.94682 0.59638 0.0
H196 H 0.17375 0.15471 0.44945 0.0
H197 H 0.16341 0.19185 0.38663 0.0
H198 H 1.04654 0.13239 0.32913 0.0
H199 H 1.05785 0.09454 0.39289 0.0
Tb200 Tb 0.30386 0.78231 0.79053 0.0
Tb201 Tb 0.33917 0.79293 0.73693 0.0
C202 C 0.27883 0.78871 0.83266 0.0
C203 C 0.25689 0.80877 0.83191 0.0
C204 C 0.26466 0.81654 0.86828 0.0
C205 C 0.24089 0.83098 0.8692 0.0
C206 C 0.20858 0.83792 0.83368 0.0
C207 C 0.20189 0.83147 0.79698 0.0
C208 C 0.22567 0.81705 0.79611 0.0
C209 C 0.27423 0.7358 0.74286 0.0
C210 C 0.27785 0.83249 0.70773 0.0
C211 C 0.35372 0.79018 0.68399 0.0
C212 C 0.38142 0.77825 0.68344 0.0
C213 C 0.3735 0.77008 0.64728 0.0
C214 C 0.39714 0.75539 0.64665 0.0
C215 C 0.42941 0.7485 0.68228 0.0
C216 C 0.43763 0.75743 0.71843 0.0
C217 C 0.4138 0.77198 0.71903 0.0
C218 C 0.38172 0.82817 0.79939 0.0
C219 C 0.36442 0.74347 0.81845 0.0
O220 O 0.31351 0.804 0.83801 0.0
O221 O 0.26027 0.76774 0.80577 0.0
O222 O 0.28586 0.76713 0.73491 0.0
O223 O 0.27769 0.72907 0.77891 0.0
O224 O 0.27394 0.81763 0.74058 0.0
O225 O 0.30185 0.82677 0.70032 0.0
O226 O 0.32911 0.76632 0.69401 0.0
O227 O 0.3667 0.81737 0.70118 0.0
O228 O 0.3462 0.82156 0.77781 0.0
O229 O 0.39443 0.81608 0.78417 0.0
O230 O 0.35816 0.7499 0.7806 0.0
O231 O 0.35016 0.75769 0.83085 0.0
H232 H 0.28837 0.8102 0.89636 0.0
H233 H 0.24692 0.83525 0.89808 0.0
H234 H 0.17775 0.83694 0.76887 0.0
H235 H 0.21884 0.81129 0.76761 0.0
H236 H 0.34833 0.7742 0.61959 0.0
H237 H 0.38925 0.74838 0.61837 0.0
H238 H 0.46237 0.75298 0.74643 0.0
H239 H 0.42024 0.77772 0.74741 0.0
Tb240 Tb 0.57057 0.99824 0.02843 0.0
Tb241 Tb 0.56096 0.07028 0.99847 0.0
C242 C 0.57743 0.94219 0.03052 0.0
C243 C 0.59524 0.93327 0.01258 0.0
C244 C 0.57818 0.90343 0.99476 0.0
C245 C 0.59388 0.89586 0.97581 0.0
C246 C 0.62711 0.91801 0.97437 0.0
C247 C 0.64426 0.94774 0.9927 0.0
C248 C 0.62849 0.95531 1.0114 0.0
C249 C 0.61679 0.04276 0.08014 0.0
C250 C 0.60797 0.05105 0.97447 0.0
C251 C 0.55775 0.12729 0.9991 0.0
C252 C 0.54766 0.14027 0.02213 0.0
C253 C 0.57616 0.1563 0.05649 0.0
C254 C 0.56687 0.16856 0.07824 0.0
C255 C 0.52877 0.16539 0.06608 0.0
C256 C 0.50029 0.14951 0.03156 0.0
C257 C 0.50959 0.13718 1.00989 0.0
C258 C 0.51502 1.02659 0.9461 0.0
C259 C 0.52426 1.01634 0.05337 0.0
O260 O 0.54662 0.95208 1.0048 0.0
O261 O 0.60044 0.96125 0.05958 0.0
O262 O 0.60536 0.04778 0.04272 0.0
O263 O 0.60335 1.01097 0.09037 0.0
O264 O 0.59437 1.0195 0.98702 0.0
O265 O 0.6023 0.07725 0.97929 0.0
O266 O 0.58917 0.11773 0.01954 0.0
O267 O 0.53028 0.10659 0.97302 0.0
O268 O 0.52606 1.02074 0.98358 0.0
O269 O 0.52768 0.05872 0.93622 0.0
O270 O 0.53772 0.04821 0.04092 0.0
O271 O 0.52858 0.99062 0.04604 0.0
H272 H 0.55246 0.88613 0.99512 0.0
H273 H 0.57952 0.87297 0.96162 0.0
H274 H 0.67016 0.9652 0.99295 0.0
H275 H 0.64233 0.97859 0.02479 0.0
H276 H 0.60577 0.1595 0.06656 0.0
H277 H 0.5897 0.18099 0.10429 0.0
H278 H 0.47064 0.14614 0.0215 0.0
H279 H 0.4868 0.12512 0.98353 0.0
Tb280 Tb 0.32193 0.2851 0.23382 0.0
Tb281 Tb 0.32457 0.2904 0.31152 0.0
C282 C 0.3429 0.28697 0.18419 0.0
C283 C 0.37071 0.27666 0.18176 0.0
C284 C 0.38071 0.29303 0.15092 0.0
C285 C 0.40396 0.28179 0.14519 0.0
C286 C 0.41805 0.25397 0.17042 0.0
C287 C 0.40908 0.23839 0.20235 0.0
C288 C 0.38559 0.24957 0.2079 0.0
C289 C 0.25727 0.25628 0.23553 0.0
C290 C 0.3516 0.23153 0.31413 0.0
C291 C 0.31913 0.29579 0.36995 0.0
C292 C 0.29719 0.30367 0.38339 0.0
C293 C 0.27728 0.32851 0.362 0.0
C294 C 0.25548 0.33374 0.37545 0.0
C295 C 0.25321 0.31409 0.41028 0.0
C296 C 0.27386 0.2898 0.43181 0.0
C297 C 0.2956 0.28472 0.41853 0.0
C298 C 0.3881 0.31695 0.30674 0.0
C299 C 0.28204 0.33596 0.22804 0.0
O300 O 0.35627 0.31147 0.20558 0.0
O301 O 0.31562 0.26264 0.18938 0.0
O302 O 0.28992 0.25805 0.26555 0.0
O303 O 0.25999 0.26701 0.20242 0.0
O304 O 0.35205 0.24674 0.27938 0.0
O305 O 0.33668 0.24188 0.32926 0.0
O306 O 0.30419 0.26781 0.35368 0.0
O307 O 0.33711 0.32066 0.35246 0.0
O308 O 0.35529 0.31769 0.27917 0.0
O309 O 0.38656 0.30101 0.3395 0.0
O310 O 0.28748 0.32219 0.26523 0.0
O311 O 0.29673 0.32809 0.21035 0.0
H312 H 0.36983 0.31417 0.13058 0.0
H313 H 0.41085 0.29489 0.12089 0.0
H314 H 0.41921 0.21684 0.22235 0.0
H315 H 0.37838 0.23657 0.232 0.0
H316 H 0.27802 0.34334 0.33469 0.0
H317 H 0.2397 0.35252 0.35812 0.0
H318 H 0.27329 0.27467 0.45909 0.0
H319 H 0.31088 0.26554 0.43555 0.0
Tb320 Tb 0.53039 0.50773 0.02122 0.0
Tb321 Tb 0.58628 0.54781 0.99044 0.0
C322 C 0.48464 0.45824 0.03823 0.0
C323 C 0.49118 0.42923 0.06978 0.0
C324 C 0.46175 0.39958 0.06636 0.0
C325 C 0.46602 0.37455 0.0996 0.0
C326 C 0.49971 0.3792 0.13634 0.0
C327 C 0.53062 0.40697 0.13801 0.0
C328 C 0.52631 0.43199 0.10495 0.0
C329 C 0.58582 0.55544 0.06435 0.0
C330 C 0.60322 0.48205 0.05086 0.0
C331 C 0.62978 0.59384 0.96655 0.0
C332 C 0.62187 0.61075 0.92557 0.0
C333 C 0.64745 0.6406 0.91934 0.0
C334 C 0.64229 0.65404 0.88024 0.0
C335 C 0.6117 0.63749 0.84708 0.0
C336 C 0.58488 0.60873 0.85325 0.0
C337 C 0.58973 0.59564 0.89224 0.0
C338 C 0.53037 0.50063 0.9474 0.0
C339 C 0.51464 0.57442 0.96627 0.0
O340 O 0.4926 0.4595 1.01001 0.0
O341 O 0.49766 0.48754 0.05122 0.0
O342 O 0.58827 0.53676 0.04732 0.0
O343 O 0.55216 0.54532 0.06128 0.0
O344 O 0.568 0.47504 0.04438 0.0
O345 O 0.61951 0.51247 0.0374 0.0
O346 O 0.61265 0.59968 0.98224 0.0
O347 O 0.62758 0.56174 0.97199 0.0
O348 O 0.52832 0.51972 0.96407 0.0
O349 O 0.56347 0.51056 0.94961 0.0
O350 O 0.54892 0.5817 0.96937 0.0
O351 O 0.49886 0.54407 0.97977 0.0
H352 H 0.43465 0.39694 0.03916 0.0
H353 H 0.44158 0.35366 0.09806 0.0
H354 H 0.55653 0.4113 0.1663 0.0
H355 H 0.54954 0.4546 0.10788 0.0
H356 H 0.67223 0.65263 0.94474 0.0
H357 H 0.66363 0.67603 0.87622 0.0
H358 H 0.5612 0.59558 0.82814 0.0
H359 H 0.56939 0.57275 0.89657 0.0
Tb360 Tb 0.79029 0.26684 0.29686 0.0
Tb361 Tb 0.821 0.28334 0.23756 0.0
C362 C 0.7777 0.26692 0.35247 0.0
C363 C 0.74922 0.27717 0.3539 0.0
C364 C 0.71898 0.28705 0.31827 0.0
C365 C 0.69374 0.29906 0.31985 0.0
C366 C 0.69813 0.3016 0.35715 0.0
C367 C 0.72851 0.29156 0.39278 0.0
C368 C 0.75372 0.27952 0.39113 0.0
C369 C 0.74295 0.23766 0.23015 0.0
C370 C 0.7634 0.3211 0.2188 0.0
C371 C 0.84479 0.28127 0.192 0.0
C372 C 0.8635 0.26031 0.18874 0.0
C373 C 0.85669 0.22524 0.2011 0.0
C374 C 0.87588 0.20655 0.19857 0.0
C375 C 0.90247 0.22249 0.18377 0.0
C376 C 0.90895 0.25764 0.17138 0.0
C377 C 0.88973 0.2762 0.17382 0.0
C378 C 0.85502 0.32484 0.2925 0.0
C379 C 0.8472 0.22695 0.3145 0.0
O380 O 0.8013 0.29179 0.34181 0.0
O381 O 0.76547 0.2401 0.33486 0.0
O382 O 0.77855 0.24269 0.24916 0.0
O383 O 0.73318 0.2478 0.25002 0.0
O384 O 0.77137 0.31165 0.25729 0.0
O385 O 0.77597 0.30946 0.20211 0.0
O386 O 0.80941 0.26813 0.185 0.0
O387 O 0.86523 0.29833 0.22284 0.0
O388 O 0.84265 0.29331 0.29702 0.0
O389 O 0.84969 0.33474 0.2557 0.0
O390 O 0.84811 0.24404 0.2807 0.0
O391 O 0.82659 0.23148 0.32765 0.0
H392 H 0.71522 0.28596 0.28916 0.0
H393 H 0.67119 0.307 0.2917 0.0
H394 H 0.73269 0.29272 0.42205 0.0
H395 H 0.77703 0.27234 0.41903 0.0
H396 H 0.8367 0.21231 0.21287 0.0
H397 H 0.86961 0.17953 0.20796 0.0
H398 H 0.92953 0.2711 0.16051 0.0
H399 H 0.8957 0.30325 0.16437 0.0
Tb400 Tb 0.08601 0.49114 0.55073 0.0
Tb401 Tb 1.05858 0.5548 0.50649 0.0
C402 C 0.09937 0.4347 0.56743 0.0
C403 C 0.10878 0.41623 0.54951 0.0
C404 C 0.10386 0.42623 0.50993 0.0
C405 C 0.11604 0.41029 0.49472 0.0
C406 C 0.13271 0.38361 0.51855 0.0
C407 C 0.1367 0.37306 0.5578 0.0
C408 C 0.12507 0.38941 0.57321 0.0
C409 C 0.13346 0.54747 0.58059 0.0
C410 C 0.09207 0.53055 0.47041 0.0
C411 C 1.04528 0.6109 0.49176 0.0
C412 C 1.02567 0.62285 0.50471 0.0
C413 C 1.03598 0.65703 0.50901 0.0
C414 C 1.01728 0.66821 0.52139 0.0
C415 C 0.98795 0.64532 0.52977 0.0
C416 C 0.97829 0.61098 0.52603 0.0
C417 C 0.99676 0.59994 0.51347 0.0
C418 C 1.01086 0.49888 0.47565 0.0
C419 C 1.05317 0.51609 0.58771 0.0
O420 O 0.06513 0.43887 0.54724 0.0
O421 O 0.12529 0.46225 0.58172 0.0
O422 O 0.1123 0.54425 0.54357 0.0
O423 O 0.13039 0.51811 0.6021 0.0
O424 O 0.09062 0.50233 0.49551 0.0
O425 O 0.08618 0.55767 0.47274 0.0
O426 O 0.07739 0.60441 0.52015 0.0
O427 O 1.02393 0.58731 0.46797 0.0
O428 O 1.03203 0.5015 0.51291 0.0
O429 O 1.01349 0.52865 0.45501 0.0
O430 O 1.05093 0.54275 0.5598 0.0
O431 O 0.06222 0.48984 0.58791 0.0
H432 H 0.09087 0.44645 0.49077 0.0
H433 H 0.11215 0.41866 0.4642 0.0
H434 H 0.14962 0.35268 0.57693 0.0
H435 H 0.12929 0.38138 0.60387 0.0
H436 H 1.05833 0.67512 0.50254 0.0
H437 H 1.02531 0.69486 0.52362 0.0
H438 H 0.95653 0.59243 0.53309 0.0
H439 H 0.98849 0.57336 0.51076 0.0
Tb440 Tb 0.81647 0.75118 0.26555 0.0
Tb441 Tb 0.7807 0.80385 0.24136 0.0
C442 C 0.8361 0.70521 0.26093 0.0
C443 C 0.85266 0.70125 0.23836 0.0
C444 C 0.82884 0.6866 0.20229 0.0
C445 C 0.84413 0.68134 0.18157 0.0
C446 C 0.88359 0.69026 0.1967 0.0
C447 C 0.90745 0.70525 0.23251 0.0
C448 C 0.89215 0.71068 0.25317 0.0
C449 C 0.85133 0.79265 0.31948 0.0
C450 C 0.84328 0.82369 0.20796 0.0
C451 C 0.7562 0.84862 0.24078 0.0
C452 C 0.73096 0.8503 0.25404 0.0
C453 C 0.72617 0.82733 0.28598 0.0
C454 C 0.70455 0.83105 0.30039 0.0
C455 C 0.68779 0.858 0.28335 0.0
C456 C 0.69166 0.88031 0.25055 0.0
C457 C 0.71305 0.87641 0.23597 0.0
C458 C 0.74802 0.76154 0.18924 0.0
C459 C 0.75472 0.73229 0.30032 0.0
O460 O 0.80161 0.70872 0.2394 0.0
O461 O 0.85782 0.72533 0.28893 0.0
O462 O 0.83709 0.80071 0.28165 0.0
O463 O 0.84829 0.7604 0.32809 0.0
O464 O 0.84278 0.79041 0.22338 0.0
O465 O 0.82189 0.835 0.2147 0.0
O466 O 0.78797 0.84182 0.26956 0.0
O467 O 0.74037 0.83194 0.21028 0.0
O468 O 0.76059 0.7545 0.22669 0.0
O469 O 0.75183 0.79377 0.17866 0.0
O470 O 0.75199 0.76396 0.28008 0.0
O471 O 0.77941 0.72145 0.29831 0.0
H472 H 0.79832 0.67859 0.1904 0.0
H473 H 0.82504 0.6692 0.15445 0.0
H474 H 0.93799 0.71253 0.24475 0.0
H475 H 0.91129 0.72184 0.28098 0.0
H476 H 0.74011 0.80721 0.3007 0.0
H477 H 0.70231 0.81375 0.32596 0.0
H478 H 0.67868 0.90111 0.23666 0.0
H479 H 0.71643 0.89432 0.21126 0.0
Tb480 Tb 0.76942 0.2638 0.76122 0.0
Tb481 Tb 0.84038 0.29962 0.75592 0.0
C482 C 0.70759 0.22175 0.75245 0.0
C483 C 0.69503 0.18485 0.75783 0.0
C484 C 0.66539 0.16916 0.76745 0.0
C485 C 0.65872 0.13496 0.78211 0.0
C486 C 0.68141 0.11583 0.78707 0.0
C487 C 0.70896 0.131 0.77395 0.0
C488 C 0.71557 0.16542 0.75906 0.0
C489 C 0.81564 0.30977 0.81157 0.0
C490 C 0.83691 0.22696 0.80336 0.0
C491 C 0.9016 0.33996 0.76004 0.0
C492 C 0.92166 0.37578 0.76509 0.0
C493 C 0.95717 0.38409 0.79905 0.0
C494 C 0.97928 0.41757 0.80168 0.0
C495 C 0.96713 0.4429 0.76949 0.0
C496 C 0.92993 0.43504 0.73748 0.0
C497 C 0.90729 0.40175 0.7354 0.0
C498 C 0.78974 0.25557 0.70368 0.0
C499 C 0.77352 0.33647 0.71447 0.0
O500 O 0.71607 0.23553 0.72293 0.0
O501 O 0.73269 0.23542 0.78572 0.0
O502 O 0.82557 0.29049 0.8025 0.0
O503 O 0.77893 0.30076 0.79571 0.0
O504 O 0.80024 0.22379 0.78867 0.0
O505 O 0.85976 0.25636 0.79788 0.0
O506 O 0.89824 0.32071 0.7913 0.0
O507 O 0.87083 0.3329 0.7258 0.0
O508 O 0.78413 0.27628 0.71485 0.0
O509 O 0.82603 0.26051 0.71985 0.0
O510 O 0.81076 0.34029 0.73184 0.0
O511 O 0.75035 0.30657 0.71795 0.0
H512 H 0.6494 0.18385 0.76674 0.0
H513 H 0.63851 0.12447 0.79369 0.0
H514 H 0.72718 0.11694 0.77814 0.0
H515 H 0.73825 0.17724 0.75105 0.0
H516 H 0.96854 0.36451 0.82272 0.0
H517 H 1.0071 0.42346 0.82734 0.0
H518 H 0.91952 0.45383 0.71195 0.0
H519 H 0.87966 0.39616 0.70922 0.0
Tb520 Tb 0.82104 0.78695 0.72287 0.0
Tb521 Tb 0.81109 0.78085 0.79609 0.0
C522 C 0.84941 0.79542 0.67771 0.0
C523 C 0.86583 0.77656 0.66854 0.0
C524 C 0.89169 0.79433 0.6534 0.0
C525 C 0.90397 0.77701 0.63978 0.0
C526 C 0.89031 0.74162 0.64083 0.0
C527 C 0.86606 0.72383 0.65817 0.0
C528 C 0.85402 0.74111 0.67199 0.0
C529 C 0.75558 0.74912 0.71819 0.0
C530 C 0.84927 0.72977 0.79999 0.0
C531 C 0.78659 0.77473 0.84412 0.0
C532 C 0.76764 0.79241 0.85143 0.0
C533 C 0.75264 0.81885 0.82358 0.0
C534 C 0.736 0.83597 0.83197 0.0
C535 C 0.73429 0.82718 0.86858 0.0
C536 C 0.749 0.80031 0.8961 0.0
C537 C 0.76543 0.78314 0.88754 0.0
C538 C 0.87671 0.8185 0.79954 0.0
C539 C 0.7794 0.83546 0.71798 0.0
O540 O 0.86892 0.80519 0.7135 0.0
O541 O 0.81311 0.7835 0.66675 0.0
O542 O 0.78724 0.75121 0.74933 0.0
O543 O 0.76006 0.76521 0.68687 0.0
O544 O 0.85106 0.74774 0.76657 0.0
O545 O 0.83002 0.73565 0.81369 0.0
O546 O 0.76673 0.76018 0.81119 0.0
O547 O 0.82143 0.79065 0.85076 0.0
O548 O 0.84436 0.81672 0.76942 0.0
O549 O 0.87305 0.799 0.83022 0.0
O550 O 0.77954 0.81777 0.75213 0.0
O551 O 0.79808 0.83066 0.70277 0.0
H552 H 0.90135 0.8217 0.65077 0.0
H553 H 0.92266 0.79146 0.62665 0.0
H554 H 0.85565 0.69651 0.66017 0.0
H555 H 0.83449 0.72686 0.68412 0.0
H556 H 0.75377 0.82627 0.79539 0.0
H557 H 0.72444 0.85608 0.80969 0.0
H558 H 0.74879 0.79306 0.92481 0.0
H559 H 0.77696 0.76287 0.90952 0.0
Tb560 Tb 0.53146 0.50354 0.48243 0.0
Tb561 Tb 0.56998 0.5494 0.52439 0.0
C562 C 0.51071 0.45851 0.43933 0.0
C563 C 0.52885 0.44287 0.42779 0.0
C564 C 0.5144 0.44057 0.38696 0.0
C565 C 0.52931 0.4241 0.37543 0.0
C566 C 0.55913 0.40927 0.40444 0.0
C567 C 0.57409 0.41218 0.44533 0.0
C568 C 0.55911 0.42867 0.45683 0.0
C569 C 0.50101 0.48367 0.53753 0.0
C570 C 0.61181 0.49617 0.55363 0.0
C571 C 0.59321 0.59521 0.56739 0.0
C572 C 0.578 0.60893 0.58427 0.0
C573 C 0.5441 0.61889 0.56007 0.0
C574 C 0.53119 0.63286 0.57662 0.0
C575 C 0.55176 0.6371 0.61782 0.0
C576 C 0.58557 0.62696 0.64188 0.0
C577 C 0.59856 0.61321 0.6253 0.0
C578 C 0.59943 0.56857 0.46828 0.0
C579 C 0.4895 0.55688 0.45541 0.0
O580 O 0.51078 0.49001 0.4252 0.0
O581 O 0.51785 0.45234 0.4768 0.0
O582 O 0.53656 0.49798 0.54394 0.0
O583 O 0.48323 0.48376 0.49853 0.0
O584 O 0.58496 0.48816 0.51774 0.0
O585 O 0.6111 0.52061 0.56605 0.0
O586 O 0.59705 0.5647 0.58204 0.0
O587 O 0.57989 0.60023 0.52846 0.0
O588 O 0.56417 0.5551 0.46267 0.0
O589 O 0.61757 0.56817 0.50727 0.0
O590 O 0.51648 0.56427 0.49145 0.0
O591 O 0.48987 0.53266 0.44211 0.0
H592 H 0.49112 0.4512 0.36386 0.0
H593 H 0.51735 0.42301 0.34362 0.0
H594 H 0.5967 0.40088 0.46867 0.0
H595 H 0.57083 0.42973 0.48856 0.0
H596 H 0.52751 0.61598 0.52834 0.0
H597 H 0.50477 0.63988 0.55719 0.0
H598 H 0.60234 0.63003 0.67356 0.0
H599 H 0.62493 0.60605 0.6446 0.0
Tb600 Tb 1.05747 0.53121 0.04004 0.0
Tb601 Tb 0.07112 0.53413 0.97309 0.0
C602 C 0.06176 0.53942 0.10295 0.0
C603 C 1.03996 0.55359 0.11009 0.0
C604 C 1.05882 0.57298 0.14185 0.0
C605 C 1.03971 0.59047 0.14588 0.0
C606 C 1.00131 0.58883 0.11815 0.0
C607 C 0.98233 0.56863 0.08691 0.0
C608 C 1.00155 0.55138 0.08274 0.0
C609 C 1.00119 0.49143 0.98476 0.0
C610 C 1.01634 0.57456 0.95859 0.0
C611 C 0.07613 0.52373 0.91692 0.0
C612 C 0.082 0.49761 0.90565 0.0
C613 C 0.07139 0.46309 0.9194 0.0
C614 C 0.0772 0.439 0.90758 0.0
C615 C 0.0942 0.44924 0.88238 0.0
C616 C 0.10463 0.48383 0.86874 0.0
C617 C 0.0985 0.50773 0.8802 0.0
C618 C 0.11052 0.58798 0.01251 0.0
C619 C 0.11017 0.48769 0.05612 0.0
O620 O 0.08103 0.5615 0.08506 0.0
O621 O 1.04428 0.51063 0.08791 0.0
O622 O 1.03631 0.49661 0.99765 0.0
O623 O 0.99716 0.50751 1.0046 0.0
O624 O 1.03221 0.57173 0.99831 0.0
O625 O 1.02363 0.55808 0.94117 0.0
O626 O 1.04392 0.51677 0.91716 0.0
O627 O 0.10512 0.53889 0.94768 0.0
O628 O 0.1037 0.55744 0.02745 0.0
O629 O 0.09632 0.58903 0.97402 0.0
O630 O 0.10487 0.49834 0.01848 0.0
O631 O 0.0941 0.49759 0.07023 0.0
H632 H 0.08869 0.57549 0.16277 0.0
H633 H 1.05541 0.60612 0.16996 0.0
H634 H 0.95264 0.5663 0.06545 0.0
H635 H 0.98662 0.53697 0.0576 0.0
H636 H 1.05873 0.45481 0.93924 0.0
H637 H 0.06889 0.41251 0.91849 0.0
H638 H 0.11711 0.49243 0.84871 0.0
H639 H 0.10664 0.53422 0.8691 0.0
H640 H 0.2259 0.23674 0.85206 0.0
H641 H 0.23112 0.1588 0.80861 0.0
H642 H 0.19404 0.11561 0.84079 0.0
H643 H 0.23592 0.18484 0.95217 0.0
H644 H 0.20486 0.201 0.95557 0.0
H645 H 0.23014 0.22648 0.92751 0.0
H646 H 0.1672 0.2327 0.8648 0.0
H647 H 0.14175 0.20718 0.89269 0.0
H648 H 0.12946 0.19535 0.84603 0.0
H649 H 0.14834 0.075 0.88052 0.0
H650 H 0.11434 0.0496 0.92142 0.0
H651 H 0.14111 0.14921 0.94925 0.0
C652 C 0.21939 0.21068 0.84861 0.0
C653 C 0.23334 0.2037 0.82482 0.0
C654 C 0.2226 0.16764 0.82459 0.0
C655 C 0.20059 0.14187 0.84359 0.0
C656 C 0.1877 0.14957 0.86604 0.0
C657 C 0.19766 0.18367 0.86913 0.0
C658 C 0.18199 0.18498 0.8971 0.0
C659 C 0.21519 0.20027 0.93535 0.0
C660 C 0.15343 0.20636 0.8738 0.0
C661 C 0.16156 0.14719 0.90887 0.0
C662 C 0.16478 0.1271 0.88987 0.0
C663 C 0.14688 0.09164 0.89514 0.0
C664 C 0.12663 0.07672 0.91925 0.0
C665 C 0.12281 0.09537 0.94109 0.0
C666 C 0.14179 0.13209 0.93457 0.0
H667 H 0.10542 0.92897 0.06723 0.0
H668 H 0.18754 1.02254 0.11212 0.0
H669 H 0.23712 0.99176 0.15567 0.0
H670 H 0.13978 0.87577 0.16306 0.0
H671 H 0.13049 0.84006 0.14104 0.0
H672 H 0.10216 0.86971 0.11238 0.0
H673 H 0.11894 0.87957 0.05518 0.0
H674 H 0.14739 0.84997 0.08371 0.0
H675 H 0.16805 0.89244 0.06667 0.0
H676 H 0.27896 0.95009 0.1931 0.0
H677 H 0.30702 0.90155 0.22551 0.0
H678 H 0.19671 0.83392 0.16073 0.0
C679 C 0.13387 0.9431 0.08613 0.0
C680 C 0.14242 0.97852 0.08578 0.0
C681 C 0.18003 0.99562 0.11157 0.0
C682 C 0.20849 0.97825 0.1364 0.0
C683 C 0.19909 0.94344 0.13589 0.0
C684 C 0.16246 0.92599 0.11176 0.0
C685 C 0.15928 0.88838 0.11801 0.0
C686 C 0.13126 0.86724 0.13461 0.0
C687 C 0.14773 0.87692 0.07854 0.0
C688 C 0.19981 0.88726 0.14935 0.0
C689 C 0.22249 0.9194 0.15881 0.0
C690 C 0.26123 0.92488 0.18602 0.0
C691 C 0.27704 0.89703 0.20425 0.0
C692 C 0.25429 0.86362 0.19608 0.0
C693 C 0.21502 0.85895 0.16806 0.0
H694 H 0.46972 0.96448 0.42758 0.0
H695 H 0.49508 0.90169 0.54345 0.0
H696 H 0.45029 0.85169 0.50895 0.0
H697 H 0.37075 0.92298 0.37623 0.0
H698 H 0.36923 0.92548 0.32887 0.0
H699 H 0.40399 0.95674 0.36224 0.0
H700 H 0.45822 0.94334 0.36304 0.0
H701 H 0.42309 0.91272 0.32897 0.0
H702 H 0.46094 0.90021 0.37601 0.0
H703 H 0.40029 0.80868 0.46274 0.0
H704 H 0.35075 0.77474 0.40725 0.0
H705 H 0.35871 0.86321 0.31986 0.0
C706 C 0.4661 0.94017 0.44561 0.0
C707 C 0.48604 0.9372 0.48842 0.0
C708 C 0.48022 0.90482 0.51076 0.0
C709 C 0.45476 0.87614 0.49139 0.0
C710 C 0.43534 0.87985 0.44937 0.0
C711 C 0.44092 0.91092 0.4266 0.0
C712 C 0.41633 0.90752 0.38173 0.0
C713 C 0.38842 0.92949 0.36106 0.0
C714 C 0.44116 0.91647 0.36126 0.0
C715 C 0.39557 0.86992 0.38299 0.0
C716 C 0.40707 0.85457 0.42245 0.0
C717 C 0.39128 0.82036 0.43171 0.0
C718 C 0.36303 0.80126 0.39996 0.0
C719 C 0.3508 0.81615 0.35922 0.0
C720 C 0.36756 0.85101 0.35071 0.0
H721 H 0.42952 0.18977 0.69592 0.0
H722 H 0.51541 0.186 0.82171 0.0
H723 H 0.5504 0.16307 0.80607 0.0
H724 H 0.42609 0.1137 0.68017 0.0
H725 H 0.41954 0.12712 0.62933 0.0
H726 H 0.40383 0.14733 0.64908 0.0
H727 H 0.44467 0.2058 0.63293 0.0
H728 H 0.46024 0.1858 0.61267 0.0
H729 H 0.49465 0.21197 0.65224 0.0
H730 H 0.57198 0.1349 0.77827 0.0
H731 H 0.57889 0.10394 0.74015 0.0
H732 H 0.48044 0.12808 0.63201 0.0
C733 C 0.45633 0.18518 0.71995 0.0
C734 C 0.46991 0.1899 0.75999 0.0
C735 C 0.50447 0.1825 0.79084 0.0
C736 C 0.52462 0.16965 0.7822 0.0
C737 C 0.50993 0.16455 0.74255 0.0
C738 C 0.47673 0.17234 0.71185 0.0
C739 C 0.46551 0.16211 0.67243 0.0
C740 C 0.42644 0.13602 0.65687 0.0
C741 C 0.46633 0.19328 0.6407 0.0
C742 C 0.49698 0.14644 0.686 0.0
C743 C 0.52253 0.14844 0.72645 0.0
C744 C 0.55264 0.13383 0.74641 0.0
C745 C 0.5566 0.11661 0.72449 0.0
C746 C 0.53083 0.11426 0.68304 0.0
C747 C 0.50077 0.12962 0.66361 0.0
H748 H 0.11394 0.92979 0.60535 0.0
H749 H 0.16055 0.98757 0.52362 0.0
H750 H 0.20715 0.95457 0.55567 0.0
H751 H 0.20453 0.92551 0.69257 0.0
H752 H 0.18785 0.88308 0.7132 0.0
H753 H 0.15577 0.90942 0.68269 0.0
H754 H 0.10983 0.86403 0.6345 0.0
H755 H 0.14146 0.83727 0.66512 0.0
H756 H 0.12721 0.84844 0.61192 0.0
H757 H 0.24931 0.9163 0.59597 0.0
H758 H 0.28641 0.87607 0.64446 0.0
H759 H 0.21622 0.84339 0.70365 0.0
C760 C 0.13374 0.93515 0.59405 0.0
C761 C 0.13345 0.96136 0.56179 0.0
C762 C 0.16024 0.96787 0.54833 0.0
C763 C 0.18683 0.94913 0.56627 0.0
C764 C 0.18688 0.92392 0.5982 0.0
C765 C 0.16128 0.91689 0.6123 0.0
C766 C 0.16912 0.88929 0.64847 0.0
C767 C 0.17995 0.90263 0.68648 0.0
C768 C 0.13486 0.85789 0.63945 0.0
C769 C 0.20286 0.88205 0.65215 0.0
C770 C 0.21231 0.90224 0.62256 0.0
C771 C 0.24221 0.90034 0.61934 0.0
C772 C 0.26317 0.87729 0.6471 0.0
C773 C 0.25457 0.85641 0.67817 0.0
C774 C 0.22383 0.85898 0.68052 0.0
H775 H 0.39396 0.8444 0.86893 0.0
H776 H 0.41905 0.88427 0.76852 0.0
H777 H 0.45452 0.93948 0.7945 0.0
H778 H 0.38262 0.92027 0.87674 0.0
H779 H 0.40612 0.91475 0.93114 0.0
H780 H 0.38196 0.87837 0.90442 0.0
H781 H 0.44364 0.85908 0.9441 0.0
H782 H 0.46836 0.89551 0.9708 0.0
H783 H 0.48637 0.88753 0.94301 0.0
H784 H 0.48414 0.99098 0.82882 0.0
H785 H 0.51224 0.03435 0.87365 0.0
H786 H 0.47339 0.96085 0.95563 0.0
C787 C 0.40704 0.86484 0.85263 0.0
C788 C 0.40389 0.86029 0.81677 0.0
C789 C 0.42142 0.88736 0.79618 0.0
C790 C 0.44145 0.9188 0.81059 0.0
C791 C 0.4441 0.92266 0.84596 0.0
C792 C 0.4279 0.89637 0.86712 0.0
C793 C 0.4364 0.90718 0.90518 0.0
C794 C 0.39958 0.90501 0.9043 0.0
C795 C 0.4601 0.88607 0.94303 0.0
C796 C 0.45942 0.94366 0.90174 0.0
C797 C 0.46312 0.95207 0.86707 0.0
C798 C 0.48191 0.98456 0.85635 0.0
C799 C 0.49783 1.00902 0.88202 0.0
C800 C 0.49583 1.0007 0.91854 0.0
C801 C 0.47599 0.96767 0.92826 0.0
H802 H 0.47252 0.19714 0.03669 0.0
H803 H 0.56201 0.16286 0.14852 0.0
H804 H 0.54519 0.18349 0.18711 0.0
H805 H 0.48307 0.27286 0.06855 0.0
H806 H 0.43283 0.26882 0.0424 0.0
H807 H 0.45276 0.25248 0.02344 0.0
H808 H 0.40621 0.19332 0.02566 0.0
H809 H 0.38608 0.20952 0.04448 0.0
H810 H 0.40461 0.17332 0.07225 0.0
H811 H 0.51717 0.20661 0.21393 0.0
H812 H 0.48044 0.2301 0.22638 0.0
H813 H 0.40826 0.24799 0.0972 0.0
C814 C 0.48854 0.19378 0.0693 0.0
C815 C 0.51875 0.17833 0.0894 0.0
C816 C 0.53915 0.17498 0.1322 0.0
C817 C 0.52966 0.1865 0.15447 0.0
C818 C 0.4997 0.20146 0.13369 0.0
C819 C 0.47948 0.20518 0.09203 0.0
C820 C 0.44816 0.2217 0.07701 0.0
C821 C 0.45461 0.256 0.05134 0.0
C822 C 0.40895 0.19805 0.05347 0.0
C823 C 0.45357 0.22629 0.11672 0.0
C824 C 0.48355 0.21461 0.14907 0.0
C825 C 0.49362 0.21579 0.18876 0.0
C826 C 0.47239 0.22901 0.19556 0.0
C827 C 0.44126 0.24091 0.16288 0.0
C828 C 0.43211 0.2396 0.12295 0.0
H829 H 0.13443 0.23201 0.33643 0.0
H830 H 0.06863 0.14024 0.28039 0.0
H831 H 0.08963 0.16446 0.22857 0.0
H832 H 0.1518 0.29635 0.2517 0.0
H833 H 0.20126 0.30928 0.28762 0.0
H834 H 0.16558 0.29628 0.30368 0.0
H835 H 0.2009 0.2545 0.35884 0.0
H836 H 0.23415 0.26113 0.34159 0.0
H837 H 0.20419 0.21969 0.34544 0.0
H838 H 0.13254 0.19001 0.19658 0.0
H839 H 0.19205 0.21145 0.19109 0.0
H840 H 0.24163 0.27546 0.28323 0.0
C841 C 0.12281 0.21782 0.31185 0.0
C842 C 0.10067 0.18416 0.31294 0.0
C843 C 0.08569 0.16623 0.28031 0.0
C844 C 0.09773 0.17983 0.2507 0.0
C845 C 0.12516 0.21092 0.25472 0.0
C846 C 0.13744 0.22978 0.28472 0.0
C847 C 0.17574 0.25465 0.29339 0.0
C848 C 0.17343 0.29132 0.28349 0.0
C849 C 0.2054 0.24705 0.33745 0.0
C850 C 0.18362 0.24664 0.26449 0.0
C851 C 0.15356 0.22247 0.24109 0.0
C852 C 0.15591 0.20939 0.21435 0.0
C853 C 0.18983 0.22138 0.2117 0.0
C854 C 0.22134 0.24481 0.2371 0.0
C855 C 0.21799 0.25765 0.26346 0.0
H856 H 0.92466 0.23163 0.12609 0.0
H857 H 0.92953 0.1689 0.23738 0.0
H858 H 0.965 0.13696 0.23468 0.0
H859 H 0.91298 0.16702 0.07752 0.0
H860 H 0.94276 0.19403 0.05497 0.0
H861 H 0.91763 0.21188 0.06557 0.0
H862 H 0.98097 0.25317 0.10818 0.0
H863 H 1.00625 0.23544 0.09761 0.0
H864 H 1.01961 0.23651 0.14912 0.0
H865 H 0.99976 0.11109 0.21925 0.0
H866 H 1.03145 0.09449 0.19317 0.0
H867 H 1.00518 0.17483 0.0928 0.0
C868 C 0.93338 0.21139 0.15018 0.0
C869 C 0.92385 0.20287 0.18189 0.0
C870 C 0.93562 0.17573 0.21231 0.0
C871 C 0.95613 0.15753 0.21123 0.0
C872 C 0.96494 0.16664 0.17957 0.0
C873 C 0.95402 0.19303 0.14966 0.0
C874 C 0.96714 0.1978 0.11898 0.0
C875 C 0.9331 0.19235 0.07677 0.0
C876 C 0.99516 0.23281 0.11846 0.0
C877 C 0.98687 0.16983 0.13606 0.0
C878 C 0.9853 0.15212 0.17103 0.0
C879 C 1.00108 0.12483 0.19186 0.0
C880 C 1.01885 0.11542 0.17661 0.0
C881 C 1.02094 0.1332 0.1408 0.0
C882 C 1.00466 0.16087 0.1205 0.0
H883 H 1.04889 0.54862 0.39126 0.0
H884 H 0.14692 0.51029 0.47533 0.0
H885 H 0.15813 0.51242 0.41911 0.0
H886 H 1.02128 0.5053 0.30296 0.0
H887 H 1.00743 0.54072 0.26598 0.0
H888 H 0.99933 0.53014 0.30907 0.0
H889 H 1.03656 0.58855 0.33162 0.0
H890 H 1.04388 0.60241 0.28826 0.0
H891 H 0.08408 0.60686 0.33761 0.0
H892 H 0.16967 0.53551 0.36085 0.0
H893 H 0.18133 0.578 0.30888 0.0
H894 H 0.0688 0.5913 0.25433 0.0
C895 C 0.07218 0.54007 0.39737 0.0
C896 C 0.09773 0.53021 0.43715 0.0
C897 C 0.12755 0.51848 0.44474 0.0
C898 C 0.13366 0.51908 0.41298 0.0
C899 C 0.10863 0.53002 0.37383 0.0
C900 C 0.07783 0.53948 0.36581 0.0
C901 C 1.05847 0.55484 0.32241 0.0
C902 C 1.01929 0.53134 0.29875 0.0
C903 C 1.05564 0.59023 0.3199 0.0
C904 C 0.08584 0.55649 0.30859 0.0
C905 C 0.11397 0.54105 0.3383 0.0
C906 C 0.14713 0.5465 0.33666 0.0
C907 C 0.15343 0.5708 0.30648 0.0
C908 C 0.12637 0.58907 0.27802 0.0
C909 C 0.09047 0.57854 0.2764 0.0
H910 H 0.63072 0.94297 0.54516 0.0
H911 H 0.65698 0.99038 0.64372 0.0
H912 H 0.7042 0.95907 0.69093 0.0
H913 H 0.63928 0.86108 0.60262 0.0
H914 H 0.66144 0.85252 0.57969 0.0
H915 H 0.63032 0.87987 0.55178 0.0
H916 H 0.68352 0.92733 0.53987 0.0
H917 H 0.71486 0.90014 0.56775 0.0
H918 H 0.72897 0.94109 0.5825 0.0
H919 H 0.74548 0.92093 0.72938 0.0
H920 H 0.7809 0.87823 0.757 0.0
H921 H 0.73245 0.85426 0.63637 0.0
C922 C 0.64677 0.94701 0.57658 0.0
C923 C 0.63963 0.96929 0.59041 0.0
C924 C 0.66124 0.97345 0.63198 0.0
C925 C 0.68845 0.95579 0.6593 0.0
C926 C 0.69438 0.93378 0.6451 0.0
C927 C 0.67447 0.92926 0.6048 0.0
C928 C 0.68634 0.90299 0.59857 0.0
C929 C 0.65231 0.8723 0.58219 0.0
C930 C 0.7045 0.91884 0.5705 0.0
C931 C 0.71559 0.89349 0.64165 0.0
C932 C 0.71948 0.91174 0.66775 0.0
C933 C 0.74303 0.90673 0.70921 0.0
C934 C 0.76302 0.8823 0.72468 0.0
C935 C 0.75989 0.86307 0.699 0.0
C936 C 0.73607 0.86905 0.65671 0.0
H937 H 0.51052 0.4327 0.96695 0.0
H938 H 0.47821 0.51438 0.87052 0.0
H939 H 0.42393 0.47291 0.82579 0.0
H940 H 0.48987 0.37374 0.90813 0.0
H941 H 0.47091 0.33731 0.93569 0.0
H942 H 0.50548 0.3735 0.96067 0.0
H943 H 0.45948 0.37767 0.98145 0.0
H944 H 0.42475 0.34136 0.95655 0.0
H945 H 0.41237 0.38051 0.94322 0.0
H946 H 0.3792 0.42324 0.79026 0.0
H947 H 0.34344 0.36804 0.76557 0.0
H948 H 0.4001 0.31758 0.8866 0.0
C949 C 0.49158 0.44163 0.93651 0.0
C950 C 0.49794 0.47631 0.92163 0.0
C951 C 0.47325 0.48766 0.88193 0.0
C952 C 0.44248 0.4644 0.85659 0.0
C953 C 0.43678 0.43017 0.87199 0.0
C954 C 0.46033 0.41877 0.91112 0.0
C955 C 0.44847 0.38054 0.91966 0.0
C956 C 0.48059 0.3654 0.93173 0.0
C957 C 0.43549 0.36936 0.95214 0.0
C958 C 0.41546 0.37216 0.87866 0.0
C959 C 0.40922 0.40126 0.85179 0.0
C960 C 0.38287 0.40027 0.8112 0.0
C961 C 0.36244 0.36871 0.79754 0.0
C962 C 0.36793 0.3385 0.82446 0.0
C963 C 0.39454 0.34027 0.86564 0.0
H964 H 0.84984 0.8523 0.32908 0.0
H965 H 0.92303 0.78746 0.37219 0.0
H966 H 0.97786 0.83148 0.41189 0.0
H967 H 0.91082 0.92794 0.31501 0.0
H968 H 0.89865 0.95341 0.33272 0.0
H969 H 0.86447 0.9155 0.31157 0.0
H970 H 0.85758 0.89245 0.37678 0.0
H971 H 0.89144 0.93056 0.39802 0.0
H972 H 0.89927 0.8899 0.42489 0.0
H973 H 1.0254 0.88534 0.43777 0.0
H974 H 0.06202 0.94333 0.4551 0.0
H975 H 0.95736 0.97199 0.39917 0.0
C976 C 0.8772 0.84718 0.34728 0.0
C977 C 0.88235 0.81669 0.34749 0.0
C978 C 0.91858 0.81067 0.37202 0.0
C979 C 0.94983 0.83551 0.39452 0.0
C980 C 0.94399 0.86579 0.39277 0.0
C981 C 0.90843 0.87142 0.37055 0.0
C982 C 0.91002 0.90655 0.37276 0.0
C983 C 0.89512 0.92705 0.3305 0.0
C984 C 0.88829 0.90474 0.39441 0.0
C985 C 0.9523 0.92041 0.39806 0.0
C986 C 0.97135 0.89643 0.40935 0.0
C987 C 1.01079 0.90409 0.4299 0.0
C988 C 1.03131 0.93709 0.43927 0.0
C989 C 1.01229 0.96178 0.42849 0.0
C990 C 0.97235 0.95327 0.4081 0.0
H991 H 0.51737 0.68943 0.58427 0.0
H992 H 0.55383 0.61706 0.69199 0.0
H993 H 0.53122 0.6405 0.72219 0.0
H994 H 0.53945 0.75941 0.63454 0.0
H995 H 0.49813 0.77313 0.59506 0.0
H996 H 0.51999 0.7524 0.58331 0.0
H997 H 0.45568 0.70769 0.55118 0.0
H998 H 0.43375 0.72827 0.56296 0.0
H999 H 0.43135 0.68403 0.5806 0.0
H1000 H 0.50082 0.6695 0.73908 0.0
H1001 H 0.46462 0.70102 0.74101 0.0
H1002 H 0.44764 0.75476 0.62226 0.0
C1003 C 0.52057 0.67842 0.61419 0.0
C1004 C 0.5379 0.65153 0.63586 0.0
C1005 C 0.54159 0.63815 0.67506 0.0
C1006 C 0.52855 0.65116 0.69241 0.0
C1007 C 0.51155 0.67754 0.67017 0.0
C1008 C 0.5075 0.69102 0.63189 0.0
C1009 C 0.48688 0.71842 0.61379 0.0
C1010 C 0.51266 0.75288 0.60625 0.0
C1011 C 0.44972 0.70903 0.57483 0.0
C1012 C 0.47921 0.71773 0.64748 0.0
C1013 C 0.49398 0.69418 0.67988 0.0
C1014 C 0.48947 0.68825 0.71402 0.0
C1015 C 0.46901 0.70656 0.71493 0.0
C1016 C 0.45319 0.7307 0.6819 0.0
C1017 C 0.4589 0.7364 0.64796 0.0
H1018 H 0.57669 0.03437 0.90082 0.0
H1019 H 0.68413 0.07447 1.00058 0.0
H1020 H 0.7178 0.07313 0.9661 0.0
H1021 H 0.61075 0.9831 0.86928 0.0
H1022 H 0.58031 0.99471 0.81686 0.0
H1023 H 0.566 0.98948 0.85424 0.0
H1024 H 0.55722 0.05019 0.83011 0.0
H1025 H 0.57007 0.05442 0.79232 0.0
H1026 H 0.59589 0.08511 0.82745 0.0
H1027 H 0.7384 0.07649 0.91781 0.0
H1028 H 0.74303 0.10273 0.85571 0.0
H1029 H 0.62247 0.06125 0.78472 0.0
C1030 C 0.60731 0.04278 0.91519 0.0
C1031 C 0.62806 0.05531 0.95248 0.0
C1032 C 0.668 0.06569 0.97127 0.0
C1033 C 0.68719 0.06405 0.95243 0.0
C1034 C 0.66585 0.05157 0.91523 0.0
C1035 C 0.62663 0.04171 0.8965 0.0
C1036 C 0.60986 0.03631 0.8533 0.0
C1037 C 0.59062 0.99866 0.84816 0.0
C1038 C 0.5817 0.05784 0.82412 0.0
C1039 C 0.64569 0.04832 0.84914 0.0
C1040 C 0.67784 0.05457 0.88607 0.0
C1041 C 0.71366 0.07118 0.88895 0.0
C1042 C 0.71615 0.08574 0.85331 0.0
C1043 C 0.68276 0.08449 0.81579 0.0
C1044 C 0.64816 0.06209 0.81337 0.0
H1045 H 0.15583 0.46066 0.04688 0.0
H1046 H 0.12003 0.46016 0.13168 0.0
H1047 H 0.15945 0.4231 0.18165 0.0
H1048 H 0.15895 0.37173 0.07692 0.0
H1049 H 0.20085 0.37923 0.07264 0.0
H1050 H 0.16942 0.40614 0.0416 0.0
H1051 H 0.22555 0.45864 0.06834 0.0
H1052 H 0.25712 0.43188 0.09958 0.0
H1053 H 0.25343 0.46029 0.12199 0.0
H1054 H 0.2022 0.38737 0.22393 0.0
H1055 H 0.24622 0.35241 0.25698 0.0
H1056 H 0.25791 0.37187 0.14873 0.0
C1057 C 0.15624 0.45263 0.0759 0.0
C1058 C 0.13443 0.4639 0.08479 0.0
C1059 C 0.13612 0.45251 0.12343 0.0
C1060 C 0.15861 0.43121 0.15242 0.0
C1061 C 0.17976 0.42091 0.14304 0.0
C1062 C 0.17893 0.4309 0.10586 0.0
C1063 C 0.20503 0.41539 0.10476 0.0
C1064 C 0.1822 0.39172 0.07203 0.0
C1065 C 0.23719 0.44321 0.09828 0.0
C1066 C 0.22045 0.39546 0.14711 0.0
C1067 C 0.20517 0.39936 0.16826 0.0
C1068 C 0.2144 0.38409 0.20771 0.0
C1069 C 0.23979 0.36415 0.22635 0.0
C1070 C 0.25621 0.35907 0.20597 0.0
C1071 C 0.24623 0.37515 0.16548 0.0
H1072 H 0.617 0.6998 0.80258 0.0
H1073 H 0.61059 0.59615 0.80643 0.0
H1074 H 0.63239 0.61402 0.7554 0.0
H1075 H 0.59603 0.72583 0.68673 0.0
H1076 H 0.62735 0.76727 0.69886 0.0
H1077 H 0.59752 0.74489 0.72265 0.0
H1078 H 0.65722 0.75281 0.79213 0.0
H1079 H 0.68742 0.77344 0.76914 0.0
H1080 H 0.69541 0.73613 0.80562 0.0
H1081 H 0.67423 0.64343 0.72521 0.0
H1082 H 0.7274 0.68216 0.71268 0.0
H1083 H 0.70584 0.76751 0.72469 0.0
C1084 C 0.61814 0.68084 0.7907 0.0
C1085 C 0.6121 0.64674 0.80805 0.0
C1086 C 0.61456 0.62236 0.79293 0.0
C1087 C 0.62696 0.63232 0.76393 0.0
C1088 C 0.63547 0.66657 0.74937 0.0
C1089 C 0.62982 0.69042 0.76108 0.0
C1090 C 0.64671 0.72598 0.74601 0.0
C1091 C 0.61503 0.74194 0.71152 0.0
C1092 C 0.67331 0.74834 0.7803 0.0
C1093 C 0.66799 0.71846 0.73012 0.0
C1094 C 0.6595 0.68401 0.73038 0.0
C1095 C 0.67987 0.67048 0.72309 0.0
C1096 C 0.71014 0.69251 0.71629 0.0
C1097 C 0.71973 0.72748 0.71711 0.0
C1098 C 0.69787 0.74079 0.72283 0.0
H1099 H 0.76857 0.38225 0.16721 0.0
H1100 H 0.69514 0.30667 0.21406 0.0
H1101 H 0.64754 0.33915 0.17545 0.0
H1102 H 0.74689 0.45418 0.17249 0.0
H1103 H 0.74811 0.47855 0.1269 0.0
H1104 H 0.77633 0.44881 0.15623 0.0
H1105 H 0.74491 0.41882 0.09337 0.0
H1106 H 0.71662 0.44849 0.06383 0.0
H1107 H 0.69393 0.4037 0.06651 0.0
H1108 H 0.60721 0.37755 0.1316 0.0
H1109 H 0.57682 0.42244 0.08836 0.0
H1110 H 0.67602 0.47902 0.07123 0.0
C1111 C 0.74225 0.37252 0.16885 0.0
C1112 C 0.73538 0.34159 0.19346 0.0
C1113 C 0.701 0.3301 0.19551 0.0
C1114 C 0.67371 0.34839 0.17355 0.0
C1115 C 0.68122 0.37871 0.14991 0.0
C1116 C 0.71468 0.39111 0.14757 0.0
C1117 C 0.71562 0.42549 0.12109 0.0
C1118 C 0.74871 0.45341 0.14565 0.0
C1119 C 0.71791 0.42403 0.08399 0.0
C1120 C 0.67738 0.43014 0.10884 0.0
C1121 C 0.6582 0.40243 0.12576 0.0
C1122 C 0.62215 0.39958 0.1186 0.0
C1123 C 0.6051 0.42564 0.09385 0.0
C1124 C 0.62389 0.45513 0.07651 0.0
C1125 C 0.66081 0.45723 0.08418 0.0
H1126 H 0.98054 0.49351 0.39678 0.0
H1127 H 0.99079 0.43373 0.51092 0.0
H1128 H 0.95284 0.38209 0.47657 0.0
H1129 H 0.88512 0.45163 0.33503 0.0
H1130 H 0.89235 0.45433 0.29303 0.0
H1131 H 0.92173 0.48584 0.32703 0.0
H1132 H 0.98282 0.47327 0.34241 0.0
H1133 H 0.9531 0.44321 0.30652 0.0
H1134 H 0.98606 0.43033 0.3574 0.0
H1135 H 0.91356 0.33721 0.42874 0.0
H1136 H 0.8753 0.30306 0.3722 0.0
H1137 H 0.88836 0.39342 0.28893 0.0
C1138 C 0.97484 0.46954 0.41465 0.0
C1139 C 0.98882 0.46745 0.4566 0.0
C1140 C 0.98083 0.4357 0.47889 0.0
C1141 C 0.95917 0.40636 0.45956 0.0
C1142 C 0.94572 0.40939 0.418 0.0
C1143 C 0.9533 0.44025 0.39589 0.0
C1144 C 0.93543 0.43704 0.35162 0.0
C1145 C 0.90696 0.45848 0.32513 0.0
C1146 C 0.96616 0.44651 0.33869 0.0
C1147 C 0.91566 0.39959 0.35183 0.0
C1148 C 0.92235 0.38399 0.39049 0.0
C1149 C 0.90787 0.34929 0.39837 0.0
C1150 C 0.88595 0.33014 0.36598 0.0
C1151 C 0.87811 0.34573 0.32603 0.0
C1152 C 0.89341 0.3809 0.31903 0.0
H1153 H 0.67587 0.58862 0.4697 0.0
H1154 H 0.56709 0.6107 0.39253 0.0
H1155 H 0.59243 0.65114 0.34732 0.0
H1156 H 0.73744 0.67448 0.45487 0.0
H1157 H 0.77044 0.65983 0.453 0.0
H1158 H 0.74471 0.63338 0.4803 0.0
H1159 H 0.71934 0.58549 0.43852 0.0
H1160 H 0.74508 0.61181 0.41118 0.0
H1161 H 0.69463 0.59349 0.3842 0.0
H1162 H 0.6355 0.69735 0.30725 0.0
H1163 H 0.68026 0.73045 0.27999 0.0
H1164 H 0.76258 0.67743 0.37473 0.0
C1165 C 0.65666 0.60163 0.44325 0.0
C1166 C 0.61746 0.59413 0.43728 0.0
C1167 C 0.59613 0.61357 0.40059 0.0
C1168 C 0.61104 0.63763 0.37381 0.0
C1169 C 0.64891 0.64408 0.38079 0.0
C1170 C 0.67126 0.62569 0.41484 0.0
C1171 C 0.71065 0.63619 0.41452 0.0
C1172 C 0.74274 0.65187 0.45299 0.0
C1173 C 0.7179 0.60488 0.412 0.0
C1174 C 0.70773 0.66326 0.37587 0.0
C1175 C 0.67167 0.66775 0.35727 0.0
C1176 C 0.66305 0.69258 0.32242 0.0
C1177 C 0.68975 0.71213 0.30646 0.0
C1178 C 0.72723 0.70856 0.32256 0.0
C1179 C 0.73514 0.68249 0.35898 0.0
H1180 H 0.88941 0.35107 0.8309 0.0
H1181 H 0.79776 0.3255 0.85945 0.0
H1182 H 0.83551 0.36783 0.90705 0.0
H1183 H 0.96947 0.36821 0.92964 0.0
H1184 H 0.9964 0.40433 0.90971 0.0
H1185 H 0.96239 0.37067 0.87967 0.0
H1186 H 0.92522 0.4151 0.82125 0.0
H1187 H 0.96391 0.44655 0.85267 0.0
H1188 H 0.91542 0.44397 0.83646 0.0
H1189 H 0.88154 0.41455 0.94937 0.0
H1190 H 0.93372 0.46139 0.98541 0.0
H1191 H 0.99781 0.45754 0.93198 0.0
C1192 C 0.87767 0.35389 0.84778 0.0
C1193 C 0.84073 0.3343 0.84186 0.0
C1194 C 0.82598 0.33985 0.86358 0.0
C1195 C 0.84725 0.36393 0.89075 0.0
C1196 C 0.88334 0.38291 0.89577 0.0
C1197 C 0.89848 0.37841 0.87481 0.0
C1198 C 0.93717 0.40377 0.88434 0.0
C1199 C 0.96821 0.38568 0.90188 0.0
C1200 C 0.93547 0.42883 0.8465 0.0
C1201 C 0.94232 0.42175 0.9156 0.0
C1202 C 0.91034 0.4098 0.92081 0.0
C1203 C 0.90686 0.42382 0.94581 0.0
C1204 C 0.93673 0.45059 0.96613 0.0
C1205 C 0.97023 0.46308 0.96204 0.0
C1206 C 0.97295 0.44831 0.93633 0.0
H1207 H 0.87378 0.81842 0.15397 0.0
H1208 H 0.87473 0.8946 0.20543 0.0
H1209 H 0.91247 0.93825 0.17439 0.0
H1210 H 0.97056 0.85786 0.16027 0.0
H1211 H 0.95711 0.84807 0.11209 0.0
H1212 H 0.9313 0.82195 0.13941 0.0
H1213 H 0.86907 0.83159 0.07795 0.0
H1214 H 0.89471 0.85769 0.05044 0.0
H1215 H 0.8653 0.87417 0.05621 0.0
H1216 H 0.95751 0.97962 0.1345 0.0
H1217 H 0.99104 1.00601 0.09324 0.0
H1218 H 0.9602 0.90799 0.05911 0.0
C1219 C 0.8818 0.84416 0.15942 0.0
C1220 C 0.86926 0.85046 0.185 0.0
C1221 C 0.88201 0.88623 0.18789 0.0
C1222 C 0.90442 0.91228 0.16959 0.0
C1223 C 0.91589 0.90524 0.14537 0.0
C1224 C 0.90417 0.87151 0.13984 0.0
C1225 C 0.91893 0.87102 0.11067 0.0
C1226 C 0.94606 0.84834 0.13184 0.0
C1227 C 0.88499 0.85779 0.07149 0.0
C1228 C 0.94078 0.90882 0.10094 0.0
C1229 C 0.93898 0.92819 0.12193 0.0
C1230 C 0.958 0.96353 0.11843 0.0
C1231 C 0.97805 0.97903 0.09417 0.0
C1232 C 0.98074 0.96114 0.07065 0.0
C1233 C 0.96054 0.92453 0.07528 0.0
H1234 H 0.91102 0.22496 0.85909 0.0
H1235 H 0.79886 0.15965 0.79479 0.0
H1236 H 0.82525 0.11006 0.82525 0.0
H1237 H 0.96412 0.18239 0.85228 0.0
H1238 H 1.00295 0.18775 0.90252 0.0
H1239 H 0.97518 0.21792 0.87567 0.0
H1240 H 0.96065 0.20794 0.9346 0.0
H1241 H 0.98855 0.17787 0.96174 0.0
H1242 H 0.93995 0.16555 0.95179 0.0
H1243 H 0.86623 0.06702 0.86069 0.0
H1244 H 0.91526 0.03535 0.90228 0.0
H1245 H 0.99954 0.12809 0.94723 0.0
C1246 C 0.8919 0.20021 0.85152 0.0
C1247 C 0.85261 0.19651 0.82426 0.0
C1248 C 0.82885 0.16343 0.81564 0.0
C1249 C 0.84374 0.135 0.83272 0.0
C1250 C 0.88261 0.13959 0.85916 0.0
C1251 C 0.90621 0.17142 0.86902 0.0
C1252 C 0.94673 0.16955 0.89912 0.0
C1253 C 0.97384 0.19066 0.88133 0.0
C1254 C 0.95973 0.1809 0.93919 0.0
C1255 C 0.94252 0.13188 0.90432 0.0
C1256 C 0.90542 0.11496 0.88072 0.0
C1257 C 0.89522 0.08015 0.87955 0.0
C1258 C 0.92336 0.06227 0.90322 0.0
C1259 C 0.96142 0.07888 0.92851 0.0
C1260 C 0.97074 0.11429 0.92874 0.0
H1261 H 0.77587 0.18711 0.7041 0.0
H1262 H 0.73388 0.27477 0.63283 0.0
H1263 H 0.68047 0.23957 0.5802 0.0
H1264 H 0.74987 0.14512 0.62213 0.0
H1265 H 0.73439 0.1032 0.64481 0.0
H1266 H 0.77037 0.13541 0.6763 0.0
H1267 H 0.72999 0.12563 0.71082 0.0
H1268 H 0.69352 0.09362 0.67921 0.0
H1269 H 0.68194 0.12917 0.68053 0.0
H1270 H 0.63339 0.196 0.53397 0.0
H1271 H 0.59261 0.14564 0.49846 0.0
H1272 H 0.65993 0.0837 0.60119 0.0
C1273 C 0.75567 0.19882 0.67704 0.0
C1274 C 0.75944 0.23386 0.67189 0.0
C1275 C 0.73178 0.24813 0.63693 0.0
C1276 C 0.7013 0.22831 0.60697 0.0
C1277 C 0.69815 0.19388 0.61279 0.0
C1278 C 0.72421 0.17903 0.64714 0.0
C1279 C 0.71281 0.14105 0.64638 0.0
C1280 C 0.7437 0.13059 0.64746 0.0
C1281 C 0.70403 0.1212 0.68131 0.0
C1282 C 0.67697 0.13715 0.60581 0.0
C1283 C 0.66927 0.16809 0.58701 0.0
C1284 C 0.63888 0.17158 0.54857 0.0
C1285 C 0.61589 0.14284 0.52859 0.0
C1286 C 0.62286 0.11077 0.54711 0.0
C1287 C 0.65359 0.10783 0.58653 0.0
H1288 H 0.641 0.97274 0.36486 0.0
H1289 H 0.56018 0.88387 0.38788 0.0
H1290 H 0.57865 0.84867 0.36563 0.0
H1291 H 0.62691 0.95401 0.27696 0.0
H1292 H 0.67598 0.96976 0.28838 0.0
H1293 H 0.65804 0.98703 0.30868 0.0
H1294 H 0.70934 0.97239 0.38116 0.0
H1295 H 0.72754 0.95523 0.361 0.0
H1296 H 0.71338 0.92958 0.39861 0.0
H1297 H 0.60387 0.82427 0.3368 0.0
H1298 H 0.63487 0.81252 0.30577 0.0
H1299 H 0.69884 0.918 0.30283 0.0
C1300 C 0.62726 0.94584 0.36531 0.0
C1301 C 0.59889 0.93096 0.37751 0.0
C1302 C 0.58205 0.89562 0.37859 0.0
C1303 C 0.59227 0.87553 0.36594 0.0
C1304 C 0.61987 0.89123 0.35321 0.0
C1305 C 0.63746 0.92553 0.35338 0.0
C1306 C 0.66602 0.93651 0.3381 0.0
C1307 C 0.65615 0.96344 0.30082 0.0
C1308 C 0.70646 0.94916 0.37173 0.0
C1309 C 0.66053 0.90332 0.32744 0.0
C1310 C 0.63428 0.87733 0.33689 0.0
C1311 C 0.62459 0.8444 0.32945 0.0
C1312 C 0.64225 0.83796 0.31187 0.0
C1313 C 0.66884 0.86446 0.30161 0.0
C1314 C 0.6781 0.89741 0.30974 0.0
H1315 H 0.83822 0.15923 0.35283 0.0
H1316 H 0.9201 0.24866 0.33219 0.0
H1317 H 0.96775 0.21684 0.36555 0.0
H1318 H 0.90801 0.12571 0.45284 0.0
H1319 H 0.88573 0.08215 0.44375 0.0
H1320 H 0.85761 0.11199 0.42051 0.0
H1321 H 0.83294 0.09648 0.3503 0.0
H1322 H 0.86123 0.06681 0.37328 0.0
H1323 H 0.86645 0.10002 0.33429 0.0
H1324 H 1.00548 0.17684 0.39609 0.0
H1325 H 1.03477 0.13031 0.42726 0.0
H1326 H 0.93193 0.06274 0.43178 0.0
C1327 C 0.86647 0.17212 0.35629 0.0
C1328 C 0.87548 0.20673 0.34008 0.0
C1329 C 0.9125 0.22239 0.34436 0.0
C1330 C 0.93985 0.20447 0.36327 0.0
C1331 C 0.93012 0.17051 0.378 0.0
C1332 C 0.89462 0.15426 0.37525 0.0
C1333 C 0.89233 0.11698 0.39304 0.0
C1334 C 0.88551 0.10872 0.42972 0.0
C1335 C 0.86139 0.0937 0.3608 0.0
C1336 C 0.93192 0.11514 0.40574 0.0
C1337 C 0.9528 0.14659 0.39645 0.0
C1338 C 0.98958 0.15212 0.40386 0.0
C1339 C 1.00597 0.12511 0.42169 0.0
C1340 C 0.98606 0.09229 0.43249 0.0
C1341 C 0.94816 0.0873 0.42413 0.0
H1342 H 0.75169 0.21364 0.17894 0.0
H1343 H 0.67525 0.19806 0.22609 0.0
H1344 H 0.63485 0.14691 0.19252 0.0
H1345 H 0.6744 0.18587 0.07973 0.0
H1346 H 0.70231 0.16653 0.07522 0.0
H1347 H 0.72522 0.20265 0.10221 0.0
H1348 H 0.76806 0.16882 0.16509 0.0
H1349 H 0.74528 0.13241 0.13869 0.0
H1350 H 0.74663 0.1289 0.18621 0.0
H1351 H 0.60849 0.09315 0.16318 0.0
H1352 H 0.58951 0.04592 0.12697 0.0
H1353 H 0.67577 0.09985 0.08886 0.0
C1354 C 0.72614 0.19974 0.18159 0.0
C1355 C 0.71684 0.20969 0.20542 0.0
C1356 C 0.68305 0.19093 0.20809 0.0
C1357 C 0.65995 0.16171 0.18927 0.0
C1358 C 0.6704 0.15203 0.16693 0.0
C1359 C 0.70194 0.17099 0.1618 0.0
C1360 C 0.70588 0.15526 0.13505 0.0
C1361 C 0.70169 0.17899 0.09571 0.0
C1362 C 0.74371 0.14579 0.15763 0.0
C1363 C 0.67238 0.12399 0.12719 0.0
C1364 C 0.65276 0.1224 0.14653 0.0
C1365 C 0.62292 0.09452 0.14695 0.0
C1366 C 0.61237 0.0678 0.1264 0.0
C1367 C 0.63059 0.06975 0.10447 0.0
C1368 C 0.661 0.09817 0.10488 0.0
H1369 H 0.69172 0.80313 0.90918 0.0
H1370 H 0.74178 0.89564 0.85183 0.0
H1371 H 0.71783 0.92825 0.87028 0.0
H1372 H 0.60762 0.82557 0.88189 0.0
H1373 H 0.60766 0.80638 0.9294 0.0
H1374 H 0.62708 0.78991 0.90998 0.0
H1375 H 0.69075 0.7977 0.97628 0.0
H1376 H 0.67151 0.81414 0.99592 0.0
H1377 H 0.7148 0.8387 0.99357 0.0
H1378 H 0.69044 0.95135 0.89705 0.0
H1379 H 0.66155 0.9631 0.92987 0.0
H1380 H 0.63095 0.85594 0.97197 0.0
C1381 C 0.69778 0.83025 0.90052 0.0
C1382 C 0.71857 0.84665 0.87872 0.0
C1383 C 0.72537 0.88223 0.86777 0.0
C1384 C 0.71208 0.90108 0.87838 0.0
C1385 C 0.69198 0.88413 0.90003 0.0
C1386 C 0.68482 0.84951 0.91098 0.0
C1387 C 0.66329 0.8376 0.93507 0.0
C1388 C 0.62409 0.81344 0.91274 0.0
C1389 C 0.68648 0.82107 0.97774 0.0
C1390 C 0.65978 0.87099 0.93625 0.0
C1391 C 0.67642 0.89747 0.91574 0.0
C1392 C 0.6773 0.93076 0.91317 0.0
C1393 C 0.66091 0.93719 0.93216 0.0
C1394 C 0.64374 0.91051 0.95362 0.0
C1395 C 0.6432 0.87694 0.95539 0.0
H1396 H 0.96882 0.91407 0.66139 0.0
H1397 H 1.00731 0.82603 0.68846 0.0
H1398 H 0.99496 0.80586 0.74755 0.0
H1399 H 1.00051 0.92424 0.76687 0.0
H1400 H 0.95823 0.93526 0.75207 0.0
H1401 H 0.97745 0.94671 0.7176 0.0
H1402 H 0.91395 0.91588 0.66292 0.0
H1403 H 0.89331 0.905 0.69566 0.0
H1404 H 0.89205 0.87222 0.67494 0.0
H1405 H 0.96979 0.79208 0.79719 0.0
H1406 H 0.92658 0.78174 0.8251 0.0
H1407 H 0.9016 0.87758 0.7617 0.0
C1408 C 0.97583 0.89113 0.68075 0.0
C1409 C 0.98959 0.87178 0.67141 0.0
C1410 C 0.99739 0.84133 0.69603 0.0
C1411 C 0.9906 0.82989 0.72956 0.0
C1412 C 0.97618 0.84938 0.73765 0.0
C1413 C 0.96883 0.87936 0.71368 0.0
C1414 C 0.94786 0.89307 0.72409 0.0
C1415 C 0.97248 0.92682 0.7412 0.0
C1416 C 0.90954 0.8967 0.68725 0.0
C1417 C 0.94264 0.86529 0.75632 0.0
C1418 C 0.96039 0.84089 0.76495 0.0
C1419 C 0.95638 0.81128 0.79116 0.0
C1420 C 0.93195 0.80565 0.80702 0.0
C1421 C 0.91115 0.82907 0.79539 0.0
C1422 C 0.9179 0.85978 0.77141 0.0
H1423 H 0.22268 0.88346 0.8807 0.0
H1424 H 0.1308 0.81835 0.79071 0.0
H1425 H 0.08428 0.83538 0.79438 0.0
H1426 H 0.1777 0.86638 0.94173 0.0
H1427 H 0.19564 0.90903 0.95356 0.0
H1428 H 0.22207 0.8928 0.94298 0.0
H1429 H 0.2218 0.94294 0.88644 0.0
H1430 H 0.19543 0.95937 0.89692 0.0
H1431 H 0.17727 0.95091 0.84661 0.0
H1432 H 1.04744 0.85671 0.81072 0.0
H1433 H 1.02265 0.88321 0.8353 0.0
H1434 H 0.13796 0.93613 0.91352 0.0
C1435 C 0.1928 0.87273 0.86176 0.0
C1436 C 0.18067 0.84961 0.83518 0.0
C1437 C 0.14112 0.83652 0.81078 0.0
C1438 C 0.11434 0.84585 0.81287 0.0
C1439 C 0.12728 0.86843 0.8395 0.0
C1440 C 0.16556 0.88189 0.86336 0.0
C1441 C 0.17179 0.90558 0.88957 0.0
C1442 C 0.19306 0.89267 0.93463 0.0
C1443 C 0.19282 0.94185 0.87925 0.0
C1444 C 0.13106 0.90309 0.87696 0.0
C1445 C 0.10588 0.88145 0.84811 0.0
C1446 C 0.06681 0.87424 0.83266 0.0
C1447 C 1.05301 0.88966 0.84675 0.0
C1448 C 0.0781 0.91235 0.87605 0.0
C1449 C 0.11777 0.91895 0.89125 0.0
H1450 H 0.07857 0.48115 0.66388 0.0
H1451 H 1.01553 0.55524 0.58629 0.0
H1452 H 1.00606 0.55895 0.64091 0.0
H1453 H 1.02421 0.43378 0.70486 0.0
H1454 H 0.06076 0.4262 0.75577 0.0
H1455 H 0.07114 0.43699 0.71472 0.0
H1456 H 0.127 0.48833 0.74897 0.0
H1457 H 0.11574 0.47604 0.79013 0.0
H1458 H 0.11809 0.51843 0.76379 0.0
H1459 H 0.98999 0.545 0.69522 0.0
H1460 H 0.96042 0.50785 0.73737 0.0
H1461 H 1.03615 0.44493 0.78343 0.0
C1462 C 0.06328 0.49846 0.65878 0.0
C1463 C 1.04748 0.51764 0.62081 0.0
C1464 C 1.02789 0.54027 0.61515 0.0
C1465 C 1.02287 0.54297 0.64628 0.0
C1466 C 1.03839 0.52346 0.68338 0.0
C1467 C 1.05842 0.50174 0.68987 0.0
C1468 C 0.06719 0.4799 0.73021 0.0
C1469 C 1.055 0.44202 0.72607 0.0
C1470 C 0.10953 0.49135 0.76008 0.0
C1471 C 1.04349 0.48867 0.74195 0.0
C1472 C 1.02936 0.51561 0.71605 0.0
C1473 C 1.00154 0.52447 0.71632 0.0
C1474 C 0.98482 0.50322 0.74039 0.0
C1475 C 0.99551 0.47319 0.76294 0.0
C1476 C 1.02775 0.46794 0.7669 0.0
H1477 H 0.49073 0.1103 0.40033 0.0
H1478 H 0.46106 0.07225 0.4977 0.0
H1479 H 0.4169 0.10776 0.46532 0.0
H1480 H 0.48955 0.19654 0.39024 0.0
H1481 H 0.46989 0.20401 0.33608 0.0
H1482 H 0.49811 0.17428 0.36521 0.0
H1483 H 0.44306 0.12767 0.32262 0.0
H1484 H 0.41472 0.15732 0.29344 0.0
H1485 H 0.39683 0.11798 0.31852 0.0
H1486 H 0.37629 0.14659 0.42405 0.0
H1487 H 0.34412 0.19027 0.37838 0.0
H1488 H 0.40002 0.20765 0.30677 0.0
C1489 C 0.47462 0.10927 0.41453 0.0
C1490 C 0.4793 0.08811 0.45161 0.0
C1491 C 0.45816 0.08807 0.4695 0.0
C1492 C 0.4328 0.10813 0.4512 0.0
C1493 C 0.42889 0.12867 0.41499 0.0
C1494 C 0.44937 0.12982 0.39685 0.0
C1495 C 0.44073 0.15576 0.35885 0.0
C1496 C 0.47671 0.18434 0.36284 0.0
C1497 C 0.42276 0.13865 0.32112 0.0
C1498 C 0.41221 0.16875 0.35865 0.0
C1499 C 0.40581 0.15236 0.3913 0.0
C1500 C 0.38114 0.15966 0.39842 0.0
C1501 C 0.36293 0.18473 0.37207 0.0
C1502 C 0.36931 0.20282 0.33866 0.0
C1503 C 0.39414 0.19429 0.33169 0.0
H1504 H 0.58352 0.59828 0.10136 0.0
H1505 H 0.65347 0.58272 0.06299 0.0
H1506 H 0.70012 0.63716 0.08502 0.0
H1507 H 0.6019 0.68887 0.07513 0.0
H1508 H 0.60409 0.69576 0.11936 0.0
H1509 H 0.57505 0.65659 0.09836 0.0
H1510 H 0.61029 0.62276 0.16739 0.0
H1511 H 0.63903 0.66178 0.18868 0.0
H1512 H 0.6613 0.63239 0.19162 0.0
H1513 H 0.739 0.69355 0.11105 0.0
H1514 H 0.77106 0.74389 0.14733 0.0
H1515 H 0.67789 0.72024 0.17271 0.0
C1516 C 0.60863 0.60641 0.09755 0.0
C1517 C 0.61467 0.58676 0.07984 0.0
C1518 C 0.6481 0.59781 0.07592 0.0
C1519 C 0.67468 0.62867 0.08825 0.0
C1520 C 0.6676 0.64783 0.105 0.0
C1521 C 0.63574 0.63683 0.11036 0.0
C1522 C 0.63606 0.661 0.13162 0.0
C1523 C 0.60226 0.67647 0.10449 0.0
C1524 C 0.63673 0.64343 0.17223 0.0
C1525 C 0.67315 0.6872 0.13759 0.0
C1526 C 0.69063 0.67952 0.12138 0.0
C1527 C 0.72548 0.69992 0.12365 0.0
C1528 C 0.74333 0.72849 0.14394 0.0
C1529 C 0.72637 0.73583 0.16189 0.0
C1530 C 0.69085 0.71521 0.15843 0.0
H1531 H 0.20189 0.23084 0.61839 0.0
H1532 H 0.26001 0.18039 0.73902 0.0
H1533 H 0.22227 0.12503 0.7146 0.0
H1534 H 0.11151 0.17509 0.59544 0.0
H1535 H 0.09674 0.17539 0.54314 0.0
H1536 H 0.1312 0.21149 0.56846 0.0
H1537 H 0.17852 0.20758 0.54951 0.0
H1538 H 0.14408 0.17163 0.52372 0.0
H1539 H 0.19076 0.16834 0.56287 0.0
H1540 H 0.17578 0.07534 0.67898 0.0
H1541 H 0.12363 0.03393 0.63272 0.0
H1542 H 0.09403 0.11587 0.53572 0.0
C1543 C 0.20719 0.20811 0.63935 0.0
C1544 C 0.23415 0.20983 0.68045 0.0
C1545 C 0.23984 0.17961 0.70728 0.0
C1546 C 0.21847 0.14803 0.69374 0.0
C1547 C 0.19148 0.1471 0.65331 0.0
C1548 C 0.18585 0.17625 0.62634 0.0
C1549 C 0.15342 0.16799 0.58498 0.0
C1550 C 0.12133 0.1834 0.57228 0.0
C1551 C 0.16756 0.17957 0.55341 0.0
C1552 C 0.14138 0.12976 0.59327 0.0
C1553 C 0.16393 0.11825 0.63281 0.0
C1554 C 0.15801 0.08396 0.6479 0.0
C1555 C 0.12838 0.06072 0.62168 0.0
C1556 C 0.10517 0.0721 0.58125 0.0
C1557 C 0.11159 0.10689 0.56679 0.0
H1558 H 0.71355 0.34306 0.40939 0.0
H1559 H 0.6209 0.2893 0.30856 0.0
H1560 H 0.5761 0.31074 0.30995 0.0
H1561 H 0.66057 0.32821 0.46274 0.0
H1562 H 0.6833 0.36938 0.47952 0.0
H1563 H 0.70836 0.34979 0.47089 0.0
H1564 H 0.72004 0.40236 0.42128 0.0
H1565 H 0.69504 0.42212 0.42977 0.0
H1566 H 0.68023 0.41676 0.37918 0.0
H1567 H 0.54103 0.33712 0.32299 0.0
H1568 H 0.51788 0.36799 0.34468 0.0
H1569 H 0.63312 0.406 0.43651 0.0
C1570 C 0.6838 0.33548 0.38783 0.0
C1571 C 0.67101 0.31442 0.35873 0.0
C1572 C 0.63176 0.3057 0.33077 0.0
C1573 C 0.60594 0.31759 0.3315 0.0
C1574 C 0.61954 0.33827 0.36043 0.0
C1575 C 0.65754 0.3472 0.38808 0.0
C1576 C 0.6647 0.37014 0.4157 0.0
C1577 C 0.68015 0.35337 0.45983 0.0
C1578 C 0.69159 0.40491 0.4112 0.0
C1579 C 0.62482 0.3728 0.39915 0.0
C1580 C 0.59925 0.35406 0.36741 0.0
C1581 C 0.56075 0.35222 0.34744 0.0
C1582 C 0.54796 0.37012 0.3599 0.0
C1583 C 0.57355 0.39005 0.39202 0.0
C1584 C 0.61259 0.39105 0.41197 0.0
H1585 H 0.52389 0.96138 0.10929 0.0
H1586 H 0.49898 0.05888 0.06687 0.0
H1587 H 0.48985 0.05262 0.12586 0.0
H1588 H 0.45817 0.91968 0.14917 0.0
H1589 H 0.49031 0.89655 0.19074 0.0
H1590 H 0.49194 0.90928 0.14373 0.0
H1591 H 0.56357 0.93907 0.18285 0.0
H1592 H 0.56157 0.92807 0.22967 0.0
H1593 H 0.57836 0.97184 0.21211 0.0
H1594 H 0.47945 0.03272 0.1881 0.0
H1595 H 0.46595 0.99981 0.24472 0.0
H1596 H 0.50789 0.92088 0.24931 0.0
C1597 C 0.51562 0.98111 0.11175 0.0
C1598 C 0.51151 1.01029 0.08329 0.0
C1599 C 0.50172 0.036 0.08823 0.0
C1600 C 0.49691 0.03286 0.1218 0.0
C1601 C 0.50273 1.00421 0.15025 0.0
C1602 C 0.5117 0.97881 0.14529 0.0
C1603 C 0.51683 0.95065 0.17986 0.0
C1604 C 0.48757 0.91708 0.16499 0.0
C1605 C 0.55753 0.94723 0.20248 0.0
C1606 C 0.50895 0.96386 0.2051 0.0
C1607 C 0.50052 0.99464 0.18758 0.0
C1608 C 0.48696 1.00907 0.20272 0.0
C1609 C 0.47976 0.99049 0.23507 0.0
C1610 C 0.48683 0.9583 0.25198 0.0
C1611 C 0.50372 0.94604 0.23823 0.0
H1612 H 1.00249 0.62172 0.8879 0.0
H1613 H 0.96263 0.57016 0.97641 0.0
H1614 H 0.91446 0.60163 0.94283 0.0
H1615 H 0.99263 0.70289 0.88265 0.0
H1616 H 0.97697 0.71478 0.82925 0.0
H1617 H 1.00692 0.68642 0.85763 0.0
H1618 H 0.95734 0.64202 0.80891 0.0
H1619 H 0.92726 0.67029 0.78035 0.0
H1620 H 0.90907 0.62816 0.80046 0.0
H1621 H 0.87196 0.63872 0.90249 0.0
H1622 H 0.83845 0.68203 0.85898 0.0
H1623 H 0.90483 0.71416 0.79541 0.0
C1624 C 0.98312 0.61675 0.89963 0.0
C1625 C 0.98619 0.59303 0.93474 0.0
C1626 C 0.9609 0.58796 0.94967 0.0
C1627 C 0.93328 0.60571 0.93069 0.0
C1628 C 0.93116 0.62906 0.89669 0.0
C1629 C 0.95539 0.63497 0.8812 0.0
C1630 C 0.94783 0.66328 0.84553 0.0
C1631 C 0.9832 0.69364 0.8543 0.0
C1632 C 0.93459 0.65015 0.80649 0.0
C1633 C 0.91583 0.6722 0.84377 0.0
C1634 C 0.90672 0.65172 0.87353 0.0
C1635 C 0.8788 0.65489 0.87903 0.0
C1636 C 0.85986 0.67982 0.85396 0.0
C1637 C 0.86866 0.70188 0.82341 0.0
C1638 C 0.89699 0.69766 0.81809 0.0
H1639 H 0.48467 0.41033 0.17171 0.0
H1640 H 0.50509 0.31617 0.18187 0.0
H1641 H 0.49069 0.29298 0.23969 0.0
H1642 H 0.51542 0.41127 0.27879 0.0
H1643 H 0.47654 0.42705 0.26524 0.0
H1644 H 0.49712 0.4385 0.23206 0.0
H1645 H 0.43131 0.41586 0.17314 0.0
H1646 H 0.41005 0.40456 0.2054 0.0
H1647 H 0.40414 0.37294 0.1796 0.0
H1648 H 0.46629 0.27889 0.29088 0.0
H1649 H 0.42752 0.27258 0.32296 0.0
H1650 H 0.41717 0.37444 0.27105 0.0
C1651 C 0.48743 0.38523 0.18718 0.0
C1652 C 0.49681 0.36516 0.17362 0.0
C1653 C 0.49871 0.33196 0.19289 0.0
C1654 C 0.49067 0.31879 0.22559 0.0
C1655 C 0.48032 0.33915 0.23757 0.0
C1656 C 0.47854 0.37165 0.21857 0.0
C1657 C 0.46065 0.3867 0.23146 0.0
C1658 C 0.48914 0.4177 0.25321 0.0
C1659 C 0.4244 0.39549 0.19527 0.0
C1660 C 0.45159 0.35738 0.26015 0.0
C1661 C 0.46398 0.33043 0.26435 0.0
C1662 C 0.45669 0.29992 0.2879 0.0
C1663 C 0.43475 0.29654 0.30598 0.0
C1664 C 0.41945 0.32308 0.29883 0.0
C1665 C 0.42905 0.35407 0.277 0.0
H1666 H 0.50166 0.6226 0.89706 0.0
H1667 H 0.47974 0.58551 0.99971 0.0
H1668 H 0.44201 0.626 0.9749 0.0
H1669 H 0.50625 0.71192 0.88789 0.0
H1670 H 0.48142 0.71727 0.83348 0.0
H1671 H 0.5095 0.68732 0.86064 0.0
H1672 H 0.45103 0.63984 0.82334 0.0
H1673 H 0.42292 0.66973 0.79621 0.0
H1674 H 0.40775 0.63184 0.82515 0.0
H1675 H 0.40569 0.6698 0.93916 0.0
H1676 H 0.3701 0.71175 0.89257 0.0
H1677 H 0.41094 0.71937 0.80977 0.0
C1678 C 0.48933 0.62345 0.91449 0.0
C1679 C 0.49399 0.60095 0.95065 0.0
C1680 C 0.47666 0.6024 0.97206 0.0
C1681 C 0.4552 0.62543 0.95823 0.0
C1682 C 0.45059 0.64689 0.92238 0.0
C1683 C 0.46688 0.64605 0.90051 0.0
C1684 C 0.45529 0.6707 0.86161 0.0
C1685 C 0.4902 0.69845 0.86088 0.0
C1686 C 0.43291 0.6519 0.82438 0.0
C1687 C 0.42999 0.68522 0.86517 0.0
C1688 C 0.42815 0.67137 0.90077 0.0
C1689 C 0.40688 0.68079 0.91114 0.0
C1690 C 0.38674 0.70477 0.88443 0.0
C1691 C 0.38738 0.719 0.84728 0.0
C1692 C 0.40955 0.70898 0.83777 0.0
H1693 H 0.16444 0.5569 0.65875 0.0
H1694 H 0.15143 0.61045 0.54132 0.0
H1695 H 0.18611 0.66455 0.57041 0.0
H1696 H 0.15213 0.6197 0.6895 0.0
H1697 H 0.18703 0.61324 0.74154 0.0
H1698 H 0.16153 0.57889 0.71153 0.0
H1699 H 0.22509 0.57124 0.72812 0.0
H1700 H 0.25086 0.60553 0.75826 0.0
H1701 H 0.25924 0.60682 0.71755 0.0
H1702 H 0.22056 0.71255 0.61187 0.0
H1703 H 0.25425 0.75148 0.663 0.0
H1704 H 0.24706 0.66649 0.75444 0.0
C1705 C 0.1691 0.58002 0.63922 0.0
C1706 C 0.15509 0.57971 0.59773 0.0
C1707 C 0.16164 0.61034 0.57308 0.0
C1708 C 0.18134 0.64108 0.58936 0.0
C1709 C 0.19448 0.64057 0.63036 0.0
C1710 C 0.18879 0.61083 0.65501 0.0
C1711 C 0.20574 0.61721 0.69805 0.0
C1712 C 0.17476 0.60664 0.7109 0.0
C1713 C 0.2371 0.59913 0.72721 0.0
C1714 C 0.222 0.65527 0.69383 0.0
C1715 C 0.21502 0.66819 0.65447 0.0
C1716 C 0.22654 0.70269 0.64283 0.0
C1717 C 0.24586 0.72457 0.67217 0.0
C1718 C 0.25392 0.71191 0.71281 0.0
C1719 C 0.24162 0.6768 0.72368 0.0
H1720 H 0.33318 0.36738 0.62403 0.0
H1721 H 0.4221 0.32876 0.73096 0.0
H1722 H 0.46744 0.36341 0.70493 0.0
H1723 H 0.36837 0.36859 0.55318 0.0
H1724 H 0.35555 0.40642 0.52123 0.0
H1725 H 0.32985 0.37973 0.54847 0.0
H1726 H 0.34421 0.43062 0.58041 0.0
H1727 H 0.37022 0.45737 0.55351 0.0
H1728 H 0.39271 0.4545 0.60768 0.0
H1729 H 0.51 0.40958 0.66436 0.0
H1730 H 0.53516 0.44877 0.61845 0.0
H1731 H 0.42172 0.45717 0.53083 0.0
C1732 C 0.36218 0.36581 0.64271 0.0
C1733 C 0.3716 0.34319 0.68209 0.0
C1734 C 0.41122 0.34416 0.70201 0.0
C1735 C 0.4383 0.36468 0.68678 0.0
C1736 C 0.42818 0.38608 0.64903 0.0
C1737 C 0.39025 0.38616 0.62683 0.0
C1738 C 0.38643 0.41029 0.58598 0.0
C1739 C 0.35835 0.39008 0.55006 0.0
C1740 C 0.37252 0.43996 0.5816 0.0
C1741 C 0.42733 0.42409 0.58844 0.0
C1742 C 0.45115 0.40989 0.62574 0.0
C1743 C 0.49028 0.41978 0.63538 0.0
C1744 C 0.50507 0.4431 0.60812 0.0
C1745 C 0.48254 0.45844 0.56839 0.0
C1746 C 0.442 0.44745 0.55972 0.0
H1747 H 0.25357 0.69193 0.2046 0.0
H1748 H 0.25202 0.78293 0.1184 0.0
H1749 H 0.20672 0.74858 0.0623 0.0
H1750 H 0.25098 0.64017 0.14482 0.0
H1751 H 0.22176 0.60214 0.15957 0.0
H1752 H 0.25288 0.63387 0.1932 0.0
H1753 H 0.19623 0.63571 0.1965 0.0
H1754 H 0.16335 0.60568 0.16118 0.0
H1755 H 0.15581 0.64665 0.15132 0.0
H1756 H 0.16166 0.70467 0.01521 0.0
H1757 H 0.12177 0.65402 0.98016 0.0
H1758 H 0.15361 0.59007 0.09556 0.0
C1759 C 0.2434 0.70458 0.17389 0.0
C1760 C 0.25619 0.74029 0.16588 0.0
C1761 C 0.24267 0.75575 0.12528 0.0
C1762 C 0.21684 0.7364 0.09319 0.0
C1763 C 0.20494 0.70136 0.10194 0.0
C1764 C 0.21795 0.68545 0.14126 0.0
C1765 C 0.20181 0.64718 0.14192 0.0
C1766 C 0.23376 0.62982 0.16101 0.0
C1767 C 0.17779 0.63299 0.16398 0.0
C1768 C 0.17724 0.64419 0.09702 0.0
C1769 C 0.17953 0.67583 0.07459 0.0
C1770 C 0.15971 0.67979 0.03253 0.0
C1771 C 0.13709 0.6508 0.01284 0.0
C1772 C 0.13429 0.618 0.03495 0.0
C1773 C 0.15476 0.61476 0.07773 0.0
H1774 H 0.70035 0.33613 0.65442 0.0
H1775 H 0.80869 0.40413 0.72312 0.0
H1776 H 0.77982 0.4523 0.68916 0.0
H1777 H 0.67313 0.3951 0.56035 0.0
H1778 H 0.6236 0.38077 0.5474 0.0
H1779 H 0.65312 0.3521 0.57672 0.0
H1780 H 0.63363 0.34022 0.63232 0.0
H1781 H 0.60434 0.36905 0.6032 0.0
H1782 H 0.64079 0.37508 0.65432 0.0
H1783 H 0.73675 0.49283 0.65074 0.0
H1784 H 0.68604 0.52229 0.60719 0.0
H1785 H 0.60682 0.42876 0.55989 0.0
C1786 C 0.71814 0.36119 0.6622 0.0
C1787 C 0.75697 0.36615 0.6918 0.0
C1788 C 0.77907 0.39951 0.70063 0.0
C1789 C 0.76278 0.42707 0.68151 0.0
C1790 C 0.72435 0.42122 0.65285 0.0
C1791 C 0.7025 0.3891 0.64273 0.0
C1792 C 0.66205 0.38957 0.61047 0.0
C1793 C 0.65242 0.37874 0.57142 0.0
C1794 C 0.63353 0.36715 0.62602 0.0
C1795 C 0.66421 0.42682 0.60447 0.0
C1796 C 0.70033 0.44464 0.62942 0.0
C1797 C 0.70861 0.47909 0.63071 0.0
C1798 C 0.67953 0.49566 0.60589 0.0
C1799 C 0.64249 0.47817 0.57936 0.0
C1800 C 0.635 0.4432 0.57882 0.0
H1801 H 0.94221 0.6615 0.23259 0.0
H1802 H 0.86054 0.69864 0.11555 0.0
H1803 H 0.88399 0.67935 0.08228 0.0
H1804 H 1.01815 0.68362 0.20703 0.0
H1805 H 1.03399 0.64625 0.23455 0.0
H1806 H 1.01362 0.66356 0.25211 0.0
H1807 H 0.9633 0.60809 0.25141 0.0
H1808 H 0.98107 0.58767 0.23424 0.0
H1809 H 0.93219 0.58828 0.20588 0.0
H1810 H 0.91442 0.65311 0.0621 0.0
H1811 H 0.94883 0.62191 0.05648 0.0
H1812 H 1.0085 0.60043 0.18716 0.0
C1813 C 0.9299 0.6664 0.20001 0.0
C1814 C 0.89974 0.68175 0.17663 0.0
C1815 C 0.88362 0.6868 0.13399 0.0
C1816 C 0.89687 0.67611 0.11487 0.0
C1817 C 0.92626 0.66051 0.13888 0.0
C1818 C 0.94267 0.65584 0.18051 0.0
C1819 C 0.97223 0.63665 0.19938 0.0
C1820 C 1.01182 0.65881 0.22483 0.0
C1821 C 0.96156 0.60322 0.22423 0.0
C1822 C 0.96932 0.63046 0.16192 0.0
C1823 C 0.94304 0.64477 0.1273 0.0
C1824 C 0.93511 0.64184 0.08905 0.0
C1825 C 0.95455 0.62376 0.08619 0.0
C1826 C 0.98131 0.60849 0.12139 0.0
C1827 C 0.98871 0.61213 0.15966 0.0
H1828 H 1.01578 0.69349 0.57977 0.0
H1829 H 0.91177 0.62379 0.50594 0.0
H1830 H 0.87646 0.64057 0.52693 0.0
H1831 H 0.99646 0.6809 0.66149 0.0
H1832 H 1.01625 0.72463 0.66999 0.0
H1833 H 1.03389 0.70749 0.64919 0.0
H1834 H 1.01949 0.75428 0.58775 0.0
H1835 H 1.00194 0.77165 0.60845 0.0
H1836 H 0.97228 0.75985 0.55818 0.0
H1837 H 0.85229 0.66349 0.55662 0.0
H1838 H 0.84018 0.69312 0.59125 0.0
H1839 H 0.95891 0.74962 0.64477 0.0
C1840 C 0.98551 0.68201 0.56765 0.0
C1841 C 0.96674 0.65694 0.54148 0.0
C1842 C 0.9271 0.64244 0.52669 0.0
C1843 C 0.90666 0.65198 0.53821 0.0
C1844 C 0.92607 0.67632 0.56437 0.0
C1845 C 0.96452 0.69139 0.57872 0.0
C1846 C 0.97829 0.717 0.60649 0.0
C1847 C 1.00798 0.70689 0.64933 0.0
C1848 C 0.99392 0.75282 0.58917 0.0
C1849 C 0.94158 0.71376 0.60559 0.0
C1850 C 0.91189 0.69005 0.58116 0.0
C1851 C 0.87531 0.68212 0.57585 0.0
C1852 C 0.86877 0.69892 0.59591 0.0
C1853 C 0.8986 0.72352 0.621 0.0
C1854 C 0.93549 0.73105 0.6257 0.0
H1855 H 0.49623 0.62393 0.45379 0.0
H1856 H 0.41521 0.53366 0.39923 0.0
H1857 H 0.36593 0.56488 0.35781 0.0
H1858 H 0.43105 0.65683 0.45606 0.0
H1859 H 0.45267 0.70031 0.44296 0.0
H1860 H 0.48077 0.67036 0.46984 0.0
H1861 H 0.50087 0.68533 0.41426 0.0
H1862 H 0.47284 0.71529 0.38721 0.0
H1863 H 0.46492 0.68199 0.36242 0.0
H1864 H 0.3243 0.60635 0.3232 0.0
H1865 H 0.29651 0.65501 0.29346 0.0
H1866 H 0.40566 0.72023 0.36563 0.0
C1867 C 0.46798 0.61059 0.43351 0.0
C1868 C 0.45958 0.57594 0.43044 0.0
C1869 C 0.42245 0.55995 0.40249 0.0
C1870 C 0.39418 0.57756 0.37885 0.0
C1871 C 0.40335 0.6116 0.38267 0.0
C1872 C 0.43958 0.62809 0.40894 0.0
C1873 C 0.44267 0.66528 0.40563 0.0
C1874 C 0.45237 0.67369 0.44602 0.0
C1875 C 0.47207 0.68833 0.39154 0.0
C1876 C 0.40258 0.66724 0.37342 0.0
C1877 C 0.38016 0.63582 0.3611 0.0
C1878 C 0.34182 0.63104 0.33254 0.0
C1879 C 0.32614 0.65892 0.31585 0.0
C1880 C 0.34869 0.69171 0.32686 0.0
C1881 C 0.38755 0.69567 0.3562 0.0
H1882 H 0.20536 0.38894 0.81663 0.0
H1883 H 0.10074 0.31415 0.7552 0.0
H1884 H 0.07054 0.32946 0.78457 0.0
H1885 H 0.19811 0.38079 0.90843 0.0
H1886 H 0.2173 0.42568 0.9109 0.0
H1887 H 0.23157 0.40524 0.88969 0.0
H1888 H 0.21206 0.44777 0.82569 0.0
H1889 H 0.19445 0.46774 0.84358 0.0
H1890 H 0.16371 0.45003 0.79656 0.0
H1891 H 1.0528 0.35298 0.82208 0.0
H1892 H 1.045 0.38882 0.85404 0.0
H1893 H 0.159 0.45269 0.88303 0.0
C1894 C 0.17631 0.37538 0.81007 0.0
C1895 C 0.15536 0.35006 0.78436 0.0
C1896 C 0.11712 0.33345 0.77521 0.0
C1897 C 0.09996 0.34182 0.79194 0.0
C1898 C 0.12145 0.36705 0.81727 0.0
C1899 C 0.15868 0.38382 0.82588 0.0
C1900 C 0.17447 0.41231 0.85035 0.0
C1901 C 0.2073 0.40558 0.89233 0.0
C1902 C 0.18688 0.44652 0.82772 0.0
C1903 C 0.13998 0.40965 0.85325 0.0
C1904 C 0.11012 0.38268 0.83528 0.0
C1905 C 0.07579 0.37451 0.83562 0.0
C1906 C 0.07153 0.39513 0.85365 0.0
C1907 C 0.1008 0.42436 0.86947 0.0
C1908 C 0.13577 0.43102 0.87019 0.0
H1909 H 0.24721 0.37331 0.417 0.0
H1910 H 0.20525 0.26406 0.43583 0.0
H1911 H 0.16937 0.27 0.46467 0.0
H1912 H 0.25927 0.38889 0.50777 0.0
H1913 H 0.24423 0.42723 0.4856 0.0
H1914 H 0.26567 0.41447 0.46518 0.0
H1915 H 0.2068 0.41652 0.39455 0.0
H1916 H 0.18526 0.4293 0.41487 0.0
H1917 H 0.16031 0.39237 0.389 0.0
H1918 H 0.14087 0.28751 0.49492 0.0
H1919 H 0.11861 0.31573 0.5209 0.0
H1920 H 0.17711 0.41364 0.48069 0.0
C1921 C 0.22996 0.35069 0.42658 0.0
C1922 C 0.22923 0.31821 0.42438 0.0
C1923 C 0.2067 0.28919 0.43775 0.0
C1924 C 0.18608 0.2923 0.45403 0.0
C1925 C 0.18803 0.32462 0.45655 0.0
C1926 C 0.20913 0.35334 0.44293 0.0
C1927 C 0.20691 0.38506 0.4499 0.0
C1928 C 0.24636 0.40508 0.47883 0.0
C1929 C 0.18873 0.40711 0.40968 0.0
C1930 C 0.18121 0.36966 0.46944 0.0
C1931 C 0.17088 0.33475 0.47325 0.0
C1932 C 0.14848 0.31485 0.49177 0.0
C1933 C 0.13612 0.33106 0.5066 0.0
C1934 C 0.14592 0.36682 0.50257 0.0
C1935 C 0.1687 0.38627 0.48362 0.0
loop_
_geom_bond_atom_site_label_1
_geom_bond_atom_site_label_2
_geom_bond_distance
_geom_bond_site_symmetry_2
_ccdc_geom_bond_type
Tb0 C2 2.818 . S
Tb0 O20 2.484 1_655 S
Tb0 O21 2.440 . S
Tb0 O22 2.658 1_556 S
Tb0 O23 2.409 . S
Tb0 O24 2.378 1_656 S
Tb0 O28 2.325 1_665 S
Tb0 O31 2.341 1_565 S
Tb1 C11 2.840 . S
Tb1 O22 2.325 1_445 S
Tb1 O25 2.341 1_545 S
Tb1 O26 2.484 1_455 S
Tb1 O27 2.440 . S
Tb1 O28 2.658 1_554 S
Tb1 O29 2.409 . S
Tb1 O30 2.378 1_454 S
C2 Tb0 2.818 . S
C2 C3 1.504 1_655 S
C2 O20 1.246 1_655 S
C2 O21 1.277 . S
C3 C2 1.504 1_455 S
C3 C4 1.359 . S
C3 C8 1.348 1_455 S
C4 C3 1.359 . S
C4 C5 1.380 . S
C4 H32 0.929 . S
C5 C4 1.380 . S
C5 C6 1.347 . S
C5 H33 0.931 . S
C6 C5 1.347 . S
C6 C7 1.369 . S
C7 C6 1.369 . S
C7 C8 1.408 1_455 S
C7 H34 0.930 1_455 S
C8 C3 1.348 1_655 S
C8 C7 1.408 1_655 S
C8 H35 0.930 . S
C9 O22 1.281 . S
C9 O23 1.254 1_554 S
C10 O24 1.236 . S
C10 O25 1.266 . S
C11 Tb1 2.840 . S
C11 C12 1.484 1_455 S
C11 O26 1.241 1_455 S
C11 O27 1.303 . S
C12 C11 1.484 1_655 S
C12 C13 1.359 . S
C12 C17 1.348 1_655 S
C13 C12 1.359 . S
C13 C14 1.380 . S
C13 H36 0.929 . S
C14 C13 1.380 . S
C14 C15 1.347 . S
C14 H37 0.931 . S
C15 C14 1.347 . S
C15 C16 1.402 . S
C16 C15 1.402 . S
C16 C17 1.382 1_655 S
C16 H38 0.925 1_655 S
C17 C12 1.348 1_455 S
C17 C16 1.382 1_455 S
C17 H39 0.930 . S
C18 O28 1.281 . S
C18 O29 1.254 1_556 S
C19 O30 1.236 . S
C19 O31 1.266 . S
O20 Tb0 2.484 1_455 S
O20 C2 1.246 1_455 S
O21 Tb0 2.440 . S
O21 C2 1.277 . S
O22 Tb0 2.658 1_554 S
O22 Tb1 2.325 1_665 S
O22 C9 1.281 . S
O23 Tb0 2.409 . S
O23 C9 1.254 1_556 S
O24 Tb0 2.378 1_454 S
O24 C10 1.236 . S
O25 Tb1 2.341 1_565 S
O25 C10 1.266 . S
O26 Tb1 2.484 1_655 S
O26 C11 1.241 1_655 S
O27 Tb1 2.440 . S
O27 C11 1.303 . S
O28 Tb0 2.325 1_445 S
O28 Tb1 2.658 1_556 S
O28 C18 1.281 . S
O29 Tb1 2.409 . S
O29 C18 1.254 1_554 S
O30 Tb1 2.378 1_656 S
O30 C19 1.236 . S
O31 Tb0 2.341 1_545 S
O31 C19 1.266 . S
H32 C4 0.929 . S
H33 C5 0.931 . S
H34 C7 0.930 1_655 S
H35 C8 0.930 . S
H36 C13 0.929 . S
H37 C14 0.931 . S
H38 C16 0.925 1_455 S
H39 C17 0.930 . S
Tb40 C42 2.809 . S
Tb40 O60 2.484 . S
Tb40 O61 2.440 . S
Tb40 O62 2.658 . S
Tb40 O63 2.409 . S
Tb40 O64 2.378 . S
Tb40 O68 2.325 . S
Tb40 O71 2.341 . S
Tb41 C51 2.809 . S
Tb41 O62 2.325 . S
Tb41 O65 2.341 . S
Tb41 O66 2.484 . S
Tb41 O67 2.440 . S
Tb41 O68 2.658 . S
Tb41 O69 2.409 . S
Tb41 O70 2.378 . S
C42 Tb40 2.809 . S
C42 C43 1.514 . S
C42 O60 1.248 . S
C42 O61 1.266 . S
C43 C42 1.514 . S
C43 C44 1.359 . S
C43 C48 1.348 . S
C44 C43 1.359 . S
C44 C45 1.380 . S
C44 H72 0.929 . S
C45 C44 1.380 . S
C45 C46 1.347 . S
C45 H73 0.931 . S
C46 C45 1.347 . S
C46 C47 1.369 . S
C47 C46 1.369 . S
C47 C48 1.408 . S
C47 H74 0.930 . S
C48 C43 1.348 . S
C48 C47 1.408 . S
C48 H75 0.930 . S
C49 O62 1.281 . S
C49 O63 1.254 . S
C50 O64 1.236 . S
C50 O65 1.266 . S
C51 Tb41 2.809 . S
C51 C52 1.514 . S
C51 O66 1.248 . S
C51 O67 1.266 . S
C52 C51 1.514 . S
C52 C53 1.359 . S
C52 C57 1.348 . S
C53 C52 1.359 . S
C53 C54 1.380 . S
C53 H76 0.929 . S
C54 C53 1.380 . S
C54 C55 1.347 . S
C54 H77 0.931 . S
C55 C54 1.347 . S
C55 C56 1.369 . S
C56 C55 1.369 . S
C56 C57 1.408 . S
C56 H78 0.930 . S
C57 C52 1.348 . S
C57 C56 1.408 . S
C57 H79 0.930 . S
C58 O68 1.281 . S
C58 O69 1.254 . S
C59 O70 1.236 . S
C59 O71 1.266 . S
O60 Tb40 2.484 . S
O60 C42 1.248 . S
O61 Tb40 2.440 . S
O61 C42 1.266 . S
O62 Tb40 2.658 . S
O62 Tb41 2.325 . S
O62 C49 1.281 . S
O63 Tb40 2.409 . S
O63 C49 1.254 . S
O64 Tb40 2.378 . S
O64 C50 1.236 . S
O65 Tb41 2.341 . S
O65 C50 1.266 . S
O66 Tb41 2.484 . S
O66 C51 1.248 . S
O67 Tb41 2.440 . S
O67 C51 1.266 . S
O68 Tb40 2.325 . S
O68 Tb41 2.658 . S
O68 C58 1.281 . S
O69 Tb41 2.409 . S
O69 C58 1.254 . S
O70 Tb41 2.378 . S
O70 C59 1.236 . S
O71 Tb40 2.341 . S
O71 C59 1.266 . S
H72 C44 0.929 . S
H73 C45 0.931 . S
H74 C47 0.930 . S
H75 C48 0.930 . S
H76 C53 0.929 . S
H77 C54 0.931 . S
H78 C56 0.930 . S
H79 C57 0.930 . S
Tb80 C82 2.809 1_565 S
Tb80 O100 2.484 1_565 S
Tb80 O101 2.440 . S
Tb80 O102 2.658 . S
Tb80 O103 2.409 . S
Tb80 O104 2.378 1_565 S
Tb80 O108 2.325 1_565 S
Tb80 O111 2.341 . S
Tb81 C91 2.809 1_545 S
Tb81 O102 2.325 1_545 S
Tb81 O105 2.341 . S
Tb81 O106 2.484 1_545 S
Tb81 O107 2.440 . S
Tb81 O108 2.658 . S
Tb81 O109 2.409 . S
Tb81 O110 2.378 1_545 S
C82 Tb80 2.809 1_545 S
C82 C83 1.514 . S
C82 O100 1.248 . S
C82 O101 1.266 1_545 S
C83 C82 1.514 . S
C83 C84 1.359 . S
C83 C88 1.348 . S
C84 C83 1.359 . S
C84 C85 1.380 . S
C84 H112 0.929 . S
C85 C84 1.380 . S
C85 C86 1.347 . S
C85 H113 0.931 . S
C86 C85 1.347 . S
C86 C87 1.369 . S
C87 C86 1.369 . S
C87 C88 1.408 . S
C87 H114 0.930 . S
C88 C83 1.348 . S
C88 C87 1.408 . S
C88 H115 0.930 1_545 S
C89 O102 1.281 . S
C89 O103 1.254 . S
C90 O104 1.236 . S
C90 O105 1.266 . S
C91 Tb81 2.809 1_565 S
C91 C92 1.514 . S
C91 O106 1.248 . S
C91 O107 1.266 1_565 S
C92 C91 1.514 . S
C92 C93 1.359 . S
C92 C97 1.348 . S
C93 C92 1.359 . S
C93 C94 1.380 . S
C93 H116 0.929 . S
C94 C93 1.380 . S
C94 C95 1.347 . S
C94 H117 0.931 . S
C95 C94 1.347 . S
C95 C96 1.369 . S
C96 C95 1.369 . S
C96 C97 1.408 . S
C96 H118 0.930 . S
C97 C92 1.348 . S
C97 C96 1.408 . S
C97 H119 0.930 1_565 S
C98 O108 1.281 . S
C98 O109 1.254 . S
C99 O110 1.236 . S
C99 O111 1.266 . S
O100 Tb80 2.484 1_545 S
O100 C82 1.248 . S
O101 Tb80 2.440 . S
O101 C82 1.266 1_565 S
O102 Tb80 2.658 . S
O102 Tb81 2.325 1_565 S
O102 C89 1.281 . S
O103 Tb80 2.409 . S
O103 C89 1.254 . S
O104 Tb80 2.378 1_545 S
O104 C90 1.236 . S
O105 Tb81 2.341 . S
O105 C90 1.266 . S
O106 Tb81 2.484 1_565 S
O106 C91 1.248 . S
O107 Tb81 2.440 . S
O107 C91 1.266 1_545 S
O108 Tb80 2.325 1_545 S
O108 Tb81 2.658 . S
O108 C98 1.281 . S
O109 Tb81 2.409 . S
O109 C98 1.254 . S
O110 Tb81 2.378 1_565 S
O110 C99 1.236 . S
O111 Tb80 2.341 . S
O111 C99 1.266 . S
H112 C84 0.929 . S
H113 C85 0.931 . S
H114 C87 0.930 . S
H115 C88 0.930 1_565 S
H116 C93 0.929 . S
H117 C94 0.931 . S
H118 C96 0.930 . S
H119 C97 0.930 1_545 S
Tb120 C122 2.809 . S
Tb120 O140 2.484 . S
Tb120 O141 2.440 . S
Tb120 O142 2.658 . S
Tb120 O143 2.409 . S
Tb120 O144 2.378 . S
Tb120 O148 2.325 . S
Tb120 O151 2.341 . S
Tb121 C131 2.809 . S
Tb121 O142 2.325 . S
Tb121 O145 2.341 . S
Tb121 O146 2.484 . S
Tb121 O147 2.440 . S
Tb121 O148 2.658 . S
Tb121 O149 2.409 . S
Tb121 O150 2.378 . S
C122 Tb120 2.809 . S
C122 C123 1.514 . S
C122 O140 1.248 . S
C122 O141 1.266 . S
C123 C122 1.514 . S
C123 C124 1.359 . S
C123 C128 1.348 . S
C124 C123 1.359 . S
C124 C125 1.380 . S
C124 H152 0.929 . S
C125 C124 1.380 . S
C125 C126 1.347 . S
C125 H153 0.931 . S
C126 C125 1.347 . S
C126 C127 1.369 . S
C127 C126 1.369 . S
C127 C128 1.408 . S
C127 H154 0.930 . S
C128 C123 1.348 . S
C128 C127 1.408 . S
C128 H155 0.930 . S
C129 O142 1.281 . S
C129 O143 1.254 . S
C130 O144 1.236 . S
C130 O145 1.266 . S
C131 Tb121 2.809 . S
C131 C132 1.514 . S
C131 O146 1.248 . S
C131 O147 1.266 . S
C132 C131 1.514 . S
C132 C133 1.359 . S
C132 C137 1.348 . S
C133 C132 1.359 . S
C133 C134 1.380 . S
C133 H156 0.929 . S
C134 C133 1.380 . S
C134 C135 1.347 . S
C134 H157 0.931 . S
C135 C134 1.347 . S
C135 C136 1.369 . S
C136 C135 1.369 . S
C136 C137 1.408 . S
C136 H158 0.930 . S
C137 C132 1.348 . S
C137 C136 1.408 . S
C137 H159 0.930 . S
C138 O148 1.281 . S
C138 O149 1.254 . S
C139 O150 1.236 . S
C139 O151 1.266 . S
O140 Tb120 2.484 . S
O140 C122 1.248 . S
O141 Tb120 2.440 . S
O141 C122 1.266 . S
O142 Tb120 2.658 . S
O142 Tb121 2.325 . S
O142 C129 1.281 . S
O143 Tb120 2.409 . S
O143 C129 1.254 . S
O144 Tb120 2.378 . S
O144 C130 1.236 . S
O145 Tb121 2.341 . S
O145 C130 1.266 . S
O146 Tb121 2.484 . S
O146 C131 1.248 . S
O147 Tb121 2.440 . S
O147 C131 1.266 . S
O148 Tb120 2.325 . S
O148 Tb121 2.658 . S
O148 C138 1.281 . S
O149 Tb121 2.409 . S
O149 C138 1.254 . S
O150 Tb121 2.378 . S
O150 C139 1.236 . S
O151 Tb120 2.341 . S
O151 C139 1.266 . S
H152 C124 0.929 . S
H153 C125 0.931 . S
H154 C127 0.930 . S
H155 C128 0.930 . S
H156 C133 0.929 . S
H157 C134 0.931 . S
H158 C136 0.930 . S
H159 C137 0.930 . S
Tb160 C162 2.809 . S
Tb160 O180 2.484 . S
Tb160 O181 2.440 . S
Tb160 O182 2.658 1_665 S
Tb160 O183 2.409 1_665 S
Tb160 O184 2.378 1_655 S
Tb160 O188 2.325 . S
Tb160 O191 2.341 1_565 S
Tb161 C171 2.809 . S
Tb161 O182 2.325 . S
Tb161 O185 2.341 1_545 S
Tb161 O186 2.484 . S
Tb161 O187 2.440 . S
Tb161 O188 2.658 1_445 S
Tb161 O189 2.409 1_445 S
Tb161 O190 2.378 1_455 S
C162 Tb160 2.809 . S
C162 C163 1.514 . S
C162 O180 1.248 . S
C162 O181 1.266 . S
C163 C162 1.514 . S
C163 C164 1.359 . S
C163 C168 1.348 . S
C164 C163 1.359 . S
C164 C165 1.380 . S
C164 H192 0.929 . S
C165 C164 1.380 . S
C165 C166 1.347 . S
C165 H193 0.931 . S
C166 C165 1.347 . S
C166 C167 1.369 . S
C167 C166 1.369 . S
C167 C168 1.408 . S
C167 H194 0.930 . S
C168 C163 1.348 . S
C168 C167 1.408 . S
C168 H195 0.930 . S
C169 O182 1.281 . S
C169 O183 1.254 . S
C170 O184 1.236 . S
C170 O185 1.266 . S
C171 Tb161 2.809 . S
C171 C172 1.514 . S
C171 O186 1.248 . S
C171 O187 1.266 . S
C172 C171 1.514 . S
C172 C173 1.359 . S
C172 C177 1.348 . S
C173 C172 1.359 . S
C173 C174 1.380 . S
C173 H196 0.929 . S
C174 C173 1.380 . S
C174 C175 1.347 . S
C174 H197 0.931 . S
C175 C174 1.347 . S
C175 C176 1.369 . S
C176 C175 1.369 . S
C176 C177 1.408 . S
C176 H198 0.930 . S
C177 C172 1.348 . S
C177 C176 1.408 . S
C177 H199 0.930 . S
C178 O188 1.281 . S
C178 O189 1.254 . S
C179 O190 1.236 . S
C179 O191 1.266 . S
O180 Tb160 2.484 . S
O180 C162 1.248 . S
O181 Tb160 2.440 . S
O181 C162 1.266 . S
O182 Tb160 2.658 1_445 S
O182 Tb161 2.325 . S
O182 C169 1.281 . S
O183 Tb160 2.409 1_445 S
O183 C169 1.254 . S
O184 Tb160 2.378 1_455 S
O184 C170 1.236 . S
O185 Tb161 2.341 1_565 S
O185 C170 1.266 . S
O186 Tb161 2.484 . S
O186 C171 1.248 . S
O187 Tb161 2.440 . S
O187 C171 1.266 . S
O188 Tb160 2.325 . S
O188 Tb161 2.658 1_665 S
O188 C178 1.281 . S
O189 Tb161 2.409 1_665 S
O189 C178 1.254 . S
O190 Tb161 2.378 1_655 S
O190 C179 1.236 . S
O191 Tb160 2.341 1_545 S
O191 C179 1.266 . S
H192 C164 0.929 . S
H193 C165 0.931 . S
H194 C167 0.930 . S
H195 C168 0.930 . S
H196 C173 0.929 . S
H197 C174 0.931 . S
H198 C176 0.930 . S
H199 C177 0.930 . S
Tb200 C202 2.809 . S
Tb200 O220 2.484 . S
Tb200 O221 2.440 . S
Tb200 O222 2.658 . S
Tb200 O223 2.409 . S
Tb200 O224 2.378 . S
Tb200 O228 2.325 . S
Tb200 O231 2.341 . S
Tb201 C211 2.809 . S
Tb201 O222 2.325 . S
Tb201 O225 2.341 . S
Tb201 O226 2.484 . S
Tb201 O227 2.440 . S
Tb201 O228 2.658 . S
Tb201 O229 2.409 . S
Tb201 O230 2.378 . S
C202 Tb200 2.809 . S
C202 C203 1.514 . S
C202 O220 1.248 . S
C202 O221 1.266 . S
C203 C202 1.514 . S
C203 C204 1.359 . S
C203 C208 1.348 . S
C204 C203 1.359 . S
C204 C205 1.380 . S
C204 H232 0.929 . S
C205 C204 1.380 . S
C205 C206 1.347 . S
C205 H233 0.931 . S
C206 C205 1.347 . S
C206 C207 1.369 . S
C207 C206 1.369 . S
C207 C208 1.408 . S
C207 H234 0.930 . S
C208 C203 1.348 . S
C208 C207 1.408 . S
C208 H235 0.930 . S
C209 O222 1.281 . S
C209 O223 1.254 . S
C210 O224 1.236 . S
C210 O225 1.266 . S
C211 Tb201 2.809 . S
C211 C212 1.514 . S
C211 O226 1.248 . S
C211 O227 1.266 . S
C212 C211 1.514 . S
C212 C213 1.359 . S
C212 C217 1.348 . S
C213 C212 1.359 . S
C213 C214 1.380 . S
C213 H236 0.929 . S
C214 C213 1.380 . S
C214 C215 1.347 . S
C214 H237 0.931 . S
C215 C214 1.347 . S
C215 C216 1.369 . S
C216 C215 1.369 . S
C216 C217 1.408 . S
C216 H238 0.930 . S
C217 C212 1.348 . S
C217 C216 1.408 . S
C217 H239 0.930 . S
C218 O228 1.281 . S
C218 O229 1.254 . S
C219 O230 1.236 . S
C219 O231 1.266 . S
O220 Tb200 2.484 . S
O220 C202 1.248 . S
O221 Tb200 2.440 . S
O221 C202 1.266 . S
O222 Tb200 2.658 . S
O222 Tb201 2.325 . S
O222 C209 1.281 . S
O223 Tb200 2.409 . S
O223 C209 1.254 . S
O224 Tb200 2.378 . S
O224 C210 1.236 . S
O225 Tb201 2.341 . S
O225 C210 1.266 . S
O226 Tb201 2.484 . S
O226 C211 1.248 . S
O227 Tb201 2.440 . S
O227 C211 1.266 . S
O228 Tb200 2.325 . S
O228 Tb201 2.658 . S
O228 C218 1.281 . S
O229 Tb201 2.409 . S
O229 C218 1.254 . S
O230 Tb201 2.378 . S
O230 C219 1.236 . S
O231 Tb200 2.341 . S
O231 C219 1.266 . S
H232 C204 0.929 . S
H233 C205 0.931 . S
H234 C207 0.930 . S
H235 C208 0.930 . S
H236 C213 0.929 . S
H237 C214 0.931 . S
H238 C216 0.930 . S
H239 C217 0.930 . S
Tb240 C242 2.809 1_554 S
Tb240 O260 2.484 1_554 S
Tb240 O261 2.440 . S
Tb240 O262 2.658 1_565 S
Tb240 O263 2.409 1_565 S
Tb240 O264 2.378 1_564 S
Tb240 O268 2.325 1_554 S
Tb240 O271 2.341 . S
Tb241 C251 2.809 1_556 S
Tb241 O262 2.325 1_556 S
Tb241 O265 2.341 . S
Tb241 O266 2.484 1_556 S
Tb241 O267 2.440 . S
Tb241 O268 2.658 1_545 S
Tb241 O269 2.409 1_545 S
Tb241 O270 2.378 1_546 S
C242 Tb240 2.809 1_556 S
C242 C243 1.514 . S
C242 O260 1.248 . S
C242 O261 1.266 1_556 S
C243 C242 1.514 . S
C243 C244 1.359 . S
C243 C248 1.348 1_556 S
C244 C243 1.359 . S
C244 C245 1.380 . S
C244 H272 0.929 . S
C245 C244 1.380 . S
C245 C246 1.347 . S
C245 H273 0.931 . S
C246 C245 1.347 . S
C246 C247 1.369 . S
C247 C246 1.369 . S
C247 C248 1.408 1_556 S
C247 H274 0.930 1_556 S
C248 C243 1.348 1_554 S
C248 C247 1.408 1_554 S
C248 H275 0.930 . S
C249 O262 1.281 . S
C249 O263 1.254 . S
C250 O264 1.236 . S
C250 O265 1.266 . S
C251 Tb241 2.809 1_554 S
C251 C252 1.514 . S
C251 O266 1.248 . S
C251 O267 1.266 1_554 S
C252 C251 1.514 . S
C252 C253 1.359 . S
C252 C257 1.348 1_554 S
C253 C252 1.359 . S
C253 C254 1.380 . S
C253 H276 0.929 . S
C254 C253 1.380 . S
C254 C255 1.347 . S
C254 H277 0.931 . S
C255 C254 1.347 . S
C255 C256 1.369 . S
C256 C255 1.369 . S
C256 C257 1.408 1_554 S
C256 H278 0.930 1_554 S
C257 C252 1.348 1_556 S
C257 C256 1.408 1_556 S
C257 H279 0.930 . S
C258 O268 1.281 . S
C258 O269 1.254 . S
C259 O270 1.236 . S
C259 O271 1.266 . S
O260 Tb240 2.484 1_556 S
O260 C242 1.248 . S
O261 Tb240 2.440 . S
O261 C242 1.266 1_554 S
O262 Tb240 2.658 1_545 S
O262 Tb241 2.325 1_554 S
O262 C249 1.281 . S
O263 Tb240 2.409 1_545 S
O263 C249 1.254 . S
O264 Tb240 2.378 1_546 S
O264 C250 1.236 . S
O265 Tb241 2.341 . S
O265 C250 1.266 . S
O266 Tb241 2.484 1_554 S
O266 C251 1.248 . S
O267 Tb241 2.440 . S
O267 C251 1.266 1_556 S
O268 Tb240 2.325 1_556 S
O268 Tb241 2.658 1_565 S
O268 C258 1.281 . S
O269 Tb241 2.409 1_565 S
O269 C258 1.254 . S
O270 Tb241 2.378 1_564 S
O270 C259 1.236 . S
O271 Tb240 2.341 . S
O271 C259 1.266 . S
H272 C244 0.929 . S
H273 C245 0.931 . S
H274 C247 0.930 1_554 S
H275 C248 0.930 . S
H276 C253 0.929 . S
H277 C254 0.931 . S
H278 C256 0.930 1_556 S
H279 C257 0.930 . S
Tb280 C282 2.809 . S
Tb280 O300 2.484 . S
Tb280 O301 2.440 . S
Tb280 O302 2.658 . S
Tb280 O303 2.409 . S
Tb280 O304 2.378 . S
Tb280 O308 2.325 . S
Tb280 O311 2.341 . S
Tb281 C291 2.809 . S
Tb281 O302 2.325 . S
Tb281 O305 2.341 . S
Tb281 O306 2.484 . S
Tb281 O307 2.440 . S
Tb281 O308 2.658 . S
Tb281 O309 2.409 . S
Tb281 O310 2.378 . S
C282 Tb280 2.809 . S
C282 C283 1.514 . S
C282 O300 1.248 . S
C282 O301 1.266 . S
C283 C282 1.514 . S
C283 C284 1.359 . S
C283 C288 1.348 . S
C284 C283 1.359 . S
C284 C285 1.380 . S
C284 H312 0.929 . S
C285 C284 1.380 . S
C285 C286 1.347 . S
C285 H313 0.931 . S
C286 C285 1.347 . S
C286 C287 1.369 . S
C287 C286 1.369 . S
C287 C288 1.408 . S
C287 H314 0.930 . S
C288 C283 1.348 . S
C288 C287 1.408 . S
C288 H315 0.930 . S
C289 O302 1.281 . S
C289 O303 1.254 . S
C290 O304 1.236 . S
C290 O305 1.266 . S
C291 Tb281 2.809 . S
C291 C292 1.514 . S
C291 O306 1.248 . S
C291 O307 1.266 . S
C292 C291 1.514 . S
C292 C293 1.359 . S
C292 C297 1.348 . S
C293 C292 1.359 . S
C293 C294 1.380 . S
C293 H316 0.929 . S
C294 C293 1.380 . S
C294 C295 1.347 . S
C294 H317 0.931 . S
C295 C294 1.347 . S
C295 C296 1.369 . S
C296 C295 1.369 . S
C296 C297 1.408 . S
C296 H318 0.930 . S
C297 C292 1.348 . S
C297 C296 1.408 . S
C297 H319 0.930 . S
C298 O308 1.281 . S
C298 O309 1.254 . S
C299 O310 1.236 . S
C299 O311 1.266 . S
O300 Tb280 2.484 . S
O300 C282 1.248 . S
O301 Tb280 2.440 . S
O301 C282 1.266 . S
O302 Tb280 2.658 . S
O302 Tb281 2.325 . S
O302 C289 1.281 . S
O303 Tb280 2.409 . S
O303 C289 1.254 . S
O304 Tb280 2.378 . S
O304 C290 1.236 . S
O305 Tb281 2.341 . S
O305 C290 1.266 . S
O306 Tb281 2.484 . S
O306 C291 1.248 . S
O307 Tb281 2.440 . S
O307 C291 1.266 . S
O308 Tb280 2.325 . S
O308 Tb281 2.658 . S
O308 C298 1.281 . S
O309 Tb281 2.409 . S
O309 C298 1.254 . S
O310 Tb281 2.378 . S
O310 C299 1.236 . S
O311 Tb280 2.341 . S
O311 C299 1.266 . S
H312 C284 0.929 . S
H313 C285 0.931 . S
H314 C287 0.930 . S
H315 C288 0.930 . S
H316 C293 0.929 . S
H317 C294 0.931 . S
H318 C296 0.930 . S
H319 C297 0.930 . S
Tb320 C322 2.809 . S
Tb320 O340 2.484 . S
Tb320 O341 2.440 . S
Tb320 O342 2.658 . S
Tb320 O343 2.409 . S
Tb320 O344 2.378 . S
Tb320 O348 2.325 1_554 S
Tb320 O351 2.341 1_554 S
Tb321 C331 2.809 . S
Tb321 O342 2.325 1_556 S
Tb321 O345 2.341 1_556 S
Tb321 O346 2.484 . S
Tb321 O347 2.440 . S
Tb321 O348 2.658 . S
Tb321 O349 2.409 . S
Tb321 O350 2.378 . S
C322 Tb320 2.809 . S
C322 C323 1.514 . S
C322 O340 1.248 . S
C322 O341 1.266 . S
C323 C322 1.514 . S
C323 C324 1.359 . S
C323 C328 1.348 . S
C324 C323 1.359 . S
C324 C325 1.380 . S
C324 H352 0.929 . S
C325 C324 1.380 . S
C325 C326 1.347 . S
C325 H353 0.931 . S
C326 C325 1.347 . S
C326 C327 1.369 . S
C327 C326 1.369 . S
C327 C328 1.408 . S
C327 H354 0.930 . S
C328 C323 1.348 . S
C328 C327 1.408 . S
C328 H355 0.930 . S
C329 O342 1.281 . S
C329 O343 1.254 . S
C330 O344 1.236 . S
C330 O345 1.266 . S
C331 Tb321 2.809 . S
C331 C332 1.514 . S
C331 O346 1.248 . S
C331 O347 1.266 . S
C332 C331 1.514 . S
C332 C333 1.359 . S
C332 C337 1.348 . S
C333 C332 1.359 . S
C333 C334 1.380 . S
C333 H356 0.929 . S
C334 C333 1.380 . S
C334 C335 1.347 . S
C334 H357 0.931 . S
C335 C334 1.347 . S
C335 C336 1.369 . S
C336 C335 1.369 . S
C336 C337 1.408 . S
C336 H358 0.930 . S
C337 C332 1.348 . S
C337 C336 1.408 . S
C337 H359 0.930 . S
C338 O348 1.281 . S
C338 O349 1.254 . S
C339 O350 1.236 . S
C339 O351 1.266 . S
O340 Tb320 2.484 . S
O340 C322 1.248 . S
O341 Tb320 2.440 . S
O341 C322 1.266 . S
O342 Tb320 2.658 . S
O342 Tb321 2.325 1_554 S
O342 C329 1.281 . S
O343 Tb320 2.409 . S
O343 C329 1.254 . S
O344 Tb320 2.378 . S
O344 C330 1.236 . S
O345 Tb321 2.341 1_554 S
O345 C330 1.266 . S
O346 Tb321 2.484 . S
O346 C331 1.248 . S
O347 Tb321 2.440 . S
O347 C331 1.266 . S
O348 Tb320 2.325 1_556 S
O348 Tb321 2.658 . S
O348 C338 1.281 . S
O349 Tb321 2.409 . S
O349 C338 1.254 . S
O350 Tb321 2.378 . S
O350 C339 1.236 . S
O351 Tb320 2.341 1_556 S
O351 C339 1.266 . S
H352 C324 0.929 . S
H353 C325 0.931 . S
H354 C327 0.930 . S
H355 C328 0.930 . S
H356 C333 0.929 . S
H357 C334 0.931 . S
H358 C336 0.930 . S
H359 C337 0.930 . S
Tb360 C362 2.809 . S
Tb360 O380 2.484 . S
Tb360 O381 2.440 . S
Tb360 O382 2.658 . S
Tb360 O383 2.409 . S
Tb360 O384 2.378 . S
Tb360 O388 2.325 . S
Tb360 O391 2.341 . S
Tb361 C371 2.809 . S
Tb361 O382 2.325 . S
Tb361 O385 2.341 . S
Tb361 O386 2.484 . S
Tb361 O387 2.440 . S
Tb361 O388 2.658 . S
Tb361 O389 2.409 . S
Tb361 O390 2.378 . S
C362 Tb360 2.809 . S
C362 C363 1.514 . S
C362 O380 1.248 . S
C362 O381 1.266 . S
C363 C362 1.514 . S
C363 C364 1.359 . S
C363 C368 1.348 . S
C364 C363 1.359 . S
C364 C365 1.380 . S
C364 H392 0.929 . S
C365 C364 1.380 . S
C365 C366 1.347 . S
C365 H393 0.931 . S
C366 C365 1.347 . S
C366 C367 1.369 . S
C367 C366 1.369 . S
C367 C368 1.408 . S
C367 H394 0.930 . S
C368 C363 1.348 . S
C368 C367 1.408 . S
C368 H395 0.930 . S
C369 O382 1.281 . S
C369 O383 1.254 . S
C370 O384 1.236 . S
C370 O385 1.266 . S
C371 Tb361 2.809 . S
C371 C372 1.514 . S
C371 O386 1.248 . S
C371 O387 1.266 . S
C372 C371 1.514 . S
C372 C373 1.359 . S
C372 C377 1.348 . S
C373 C372 1.359 . S
C373 C374 1.380 . S
C373 H396 0.929 . S
C374 C373 1.380 . S
C374 C375 1.347 . S
C374 H397 0.931 . S
C375 C374 1.347 . S
C375 C376 1.369 . S
C376 C375 1.369 . S
C376 C377 1.408 . S
C376 H398 0.930 . S
C377 C372 1.348 . S
C377 C376 1.408 . S
C377 H399 0.930 . S
C378 O388 1.281 . S
C378 O389 1.254 . S
C379 O390 1.236 . S
C379 O391 1.266 . S
O380 Tb360 2.484 . S
O380 C362 1.248 . S
O381 Tb360 2.440 . S
O381 C362 1.266 . S
O382 Tb360 2.658 . S
O382 Tb361 2.325 . S
O382 C369 1.281 . S
O383 Tb360 2.409 . S
O383 C369 1.254 . S
O384 Tb360 2.378 . S
O384 C370 1.236 . S
O385 Tb361 2.341 . S
O385 C370 1.266 . S
O386 Tb361 2.484 . S
O386 C371 1.248 . S
O387 Tb361 2.440 . S
O387 C371 1.266 . S
O388 Tb360 2.325 . S
O388 Tb361 2.658 . S
O388 C378 1.281 . S
O389 Tb361 2.409 . S
O389 C378 1.254 . S
O390 Tb361 2.378 . S
O390 C379 1.236 . S
O391 Tb360 2.341 . S
O391 C379 1.266 . S
H392 C364 0.929 . S
H393 C365 0.931 . S
H394 C367 0.930 . S
H395 C368 0.930 . S
H396 C373 0.929 . S
H397 C374 0.931 . S
H398 C376 0.930 . S
H399 C377 0.930 . S
Tb400 C402 2.809 . S
Tb400 O420 2.484 . S
Tb400 O421 2.440 . S
Tb400 O422 2.658 . S
Tb400 O423 2.409 . S
Tb400 O424 2.378 . S
Tb400 O428 2.325 1_455 S
Tb400 O431 2.341 1_455 S
Tb401 C411 2.809 . S
Tb401 O422 2.325 1_655 S
Tb401 O425 2.341 1_655 S
Tb401 O426 2.484 . S
Tb401 O427 2.440 . S
Tb401 O428 2.658 . S
Tb401 O429 2.409 . S
Tb401 O430 2.378 . S
C402 Tb400 2.809 . S
C402 C403 1.514 . S
C402 O420 1.248 . S
C402 O421 1.266 . S
C403 C402 1.514 . S
C403 C404 1.359 . S
C403 C408 1.348 . S
C404 C403 1.359 . S
C404 C405 1.380 . S
C404 H432 0.929 . S
C405 C404 1.380 . S
C405 C406 1.347 . S
C405 H433 0.931 . S
C406 C405 1.347 . S
C406 C407 1.369 . S
C407 C406 1.369 . S
C407 C408 1.408 . S
C407 H434 0.930 . S
C408 C403 1.348 . S
C408 C407 1.408 . S
C408 H435 0.930 . S
C409 O422 1.281 . S
C409 O423 1.254 . S
C410 O424 1.236 . S
C410 O425 1.266 . S
C411 Tb401 2.809 . S
C411 C412 1.514 . S
C411 O426 1.248 . S
C411 O427 1.266 . S
C412 C411 1.514 . S
C412 C413 1.359 . S
C412 C417 1.348 . S
C413 C412 1.359 . S
C413 C414 1.380 . S
C413 H436 0.929 . S
C414 C413 1.380 . S
C414 C415 1.347 . S
C414 H437 0.931 . S
C415 C414 1.347 . S
C415 C416 1.369 . S
C416 C415 1.369 . S
C416 C417 1.408 . S
C416 H438 0.930 . S
C417 C412 1.348 . S
C417 C416 1.408 . S
C417 H439 0.930 . S
C418 O428 1.281 . S
C418 O429 1.254 . S
C419 O430 1.236 . S
C419 O431 1.266 . S
O420 Tb400 2.484 . S
O420 C402 1.248 . S
O421 Tb400 2.440 . S
O421 C402 1.266 . S
O422 Tb400 2.658 . S
O422 Tb401 2.325 1_455 S
O422 C409 1.281 . S
O423 Tb400 2.409 . S
O423 C409 1.254 . S
O424 Tb400 2.378 . S
O424 C410 1.236 . S
O425 Tb401 2.341 1_455 S
O425 C410 1.266 . S
O426 Tb401 2.484 . S
O426 C411 1.248 . S
O427 Tb401 2.440 . S
O427 C411 1.266 . S
O428 Tb400 2.325 1_655 S
O428 Tb401 2.658 . S
O428 C418 1.281 . S
O429 Tb401 2.409 . S
O429 C418 1.254 . S
O430 Tb401 2.378 . S
O430 C419 1.236 . S
O431 Tb400 2.341 1_655 S
O431 C419 1.266 . S
H432 C404 0.929 . S
H433 C405 0.931 . S
H434 C407 0.930 . S
H435 C408 0.930 . S
H436 C413 0.929 . S
H437 C414 0.931 . S
H438 C416 0.930 . S
H439 C417 0.930 . S
Tb440 C442 2.809 . S
Tb440 O460 2.484 . S
Tb440 O461 2.440 . S
Tb440 O462 2.658 . S
Tb440 O463 2.409 . S
Tb440 O464 2.378 . S
Tb440 O468 2.325 . S
Tb440 O471 2.341 . S
Tb441 C451 2.809 . S
Tb441 O462 2.325 . S
Tb441 O465 2.341 . S
Tb441 O466 2.484 . S
Tb441 O467 2.440 . S
Tb441 O468 2.658 . S
Tb441 O469 2.409 . S
Tb441 O470 2.378 . S
C442 Tb440 2.809 . S
C442 C443 1.514 . S
C442 O460 1.248 . S
C442 O461 1.266 . S
C443 C442 1.514 . S
C443 C444 1.359 . S
C443 C448 1.348 . S
C444 C443 1.359 . S
C444 C445 1.380 . S
C444 H472 0.929 . S
C445 C444 1.380 . S
C445 C446 1.347 . S
C445 H473 0.931 . S
C446 C445 1.347 . S
C446 C447 1.369 . S
C447 C446 1.369 . S
C447 C448 1.408 . S
C447 H474 0.930 . S
C448 C443 1.348 . S
C448 C447 1.408 . S
C448 H475 0.930 . S
C449 O462 1.281 . S
C449 O463 1.254 . S
C450 O464 1.236 . S
C450 O465 1.266 . S
C451 Tb441 2.809 . S
C451 C452 1.514 . S
C451 O466 1.248 . S
C451 O467 1.266 . S
C452 C451 1.514 . S
C452 C453 1.359 . S
C452 C457 1.348 . S
C453 C452 1.359 . S
C453 C454 1.380 . S
C453 H476 0.929 . S
C454 C453 1.380 . S
C454 C455 1.347 . S
C454 H477 0.931 . S
C455 C454 1.347 . S
C455 C456 1.369 . S
C456 C455 1.369 . S
C456 C457 1.408 . S
C456 H478 0.930 . S
C457 C452 1.348 . S
C457 C456 1.408 . S
C457 H479 0.930 . S
C458 O468 1.281 . S
C458 O469 1.254 . S
C459 O470 1.236 . S
C459 O471 1.266 . S
O460 Tb440 2.484 . S
O460 C442 1.248 . S
O461 Tb440 2.440 . S
O461 C442 1.266 . S
O462 Tb440 2.658 . S
O462 Tb441 2.325 . S
O462 C449 1.281 . S
O463 Tb440 2.409 . S
O463 C449 1.254 . S
O464 Tb440 2.378 . S
O464 C450 1.236 . S
O465 Tb441 2.341 . S
O465 C450 1.266 . S
O466 Tb441 2.484 . S
O466 C451 1.248 . S
O467 Tb441 2.440 . S
O467 C451 1.266 . S
O468 Tb440 2.325 . S
O468 Tb441 2.658 . S
O468 C458 1.281 . S
O469 Tb441 2.409 . S
O469 C458 1.254 . S
O470 Tb441 2.378 . S
O470 C459 1.236 . S
O471 Tb440 2.341 . S
O471 C459 1.266 . S
H472 C444 0.929 . S
H473 C445 0.931 . S
H474 C447 0.930 . S
H475 C448 0.930 . S
H476 C453 0.929 . S
H477 C454 0.931 . S
H478 C456 0.930 . S
H479 C457 0.930 . S
Tb480 C482 2.809 . S
Tb480 O500 2.484 . S
Tb480 O501 2.440 . S
Tb480 O502 2.658 . S
Tb480 O503 2.409 . S
Tb480 O504 2.378 . S
Tb480 O508 2.325 . S
Tb480 O511 2.341 . S
Tb481 C491 2.809 . S
Tb481 O502 2.325 . S
Tb481 O505 2.341 . S
Tb481 O506 2.484 . S
Tb481 O507 2.440 . S
Tb481 O508 2.658 . S
Tb481 O509 2.409 . S
Tb481 O510 2.378 . S
C482 Tb480 2.809 . S
C482 C483 1.514 . S
C482 O500 1.248 . S
C482 O501 1.266 . S
C483 C482 1.514 . S
C483 C484 1.359 . S
C483 C488 1.348 . S
C484 C483 1.359 . S
C484 C485 1.380 . S
C484 H512 0.929 . S
C485 C484 1.380 . S
C485 C486 1.347 . S
C485 H513 0.931 . S
C486 C485 1.347 . S
C486 C487 1.369 . S
C487 C486 1.369 . S
C487 C488 1.408 . S
C487 H514 0.930 . S
C488 C483 1.348 . S
C488 C487 1.408 . S
C488 H515 0.930 . S
C489 O502 1.281 . S
C489 O503 1.254 . S
C490 O504 1.236 . S
C490 O505 1.266 . S
C491 Tb481 2.809 . S
C491 C492 1.514 . S
C491 O506 1.248 . S
C491 O507 1.266 . S
C492 C491 1.514 . S
C492 C493 1.359 . S
C492 C497 1.348 . S
C493 C492 1.359 . S
C493 C494 1.380 . S
C493 H516 0.929 . S
C494 C493 1.380 . S
C494 C495 1.347 . S
C494 H517 0.931 . S
C495 C494 1.347 . S
C495 C496 1.369 . S
C496 C495 1.369 . S
C496 C497 1.408 . S
C496 H518 0.930 . S
C497 C492 1.348 . S
C497 C496 1.408 . S
C497 H519 0.930 . S
C498 O508 1.281 . S
C498 O509 1.254 . S
C499 O510 1.236 . S
C499 O511 1.266 . S
O500 Tb480 2.484 . S
O500 C482 1.248 . S
O501 Tb480 2.440 . S
O501 C482 1.266 . S
O502 Tb480 2.658 . S
O502 Tb481 2.325 . S
O502 C489 1.281 . S
O503 Tb480 2.409 . S
O503 C489 1.254 . S
O504 Tb480 2.378 . S
O504 C490 1.236 . S
O505 Tb481 2.341 . S
O505 C490 1.266 . S
O506 Tb481 2.484 . S
O506 C491 1.248 . S
O507 Tb481 2.440 . S
O507 C491 1.266 . S
O508 Tb480 2.325 . S
O508 Tb481 2.658 . S
O508 C498 1.281 . S
O509 Tb481 2.409 . S
O509 C498 1.254 . S
O510 Tb481 2.378 . S
O510 C499 1.236 . S
O511 Tb480 2.341 . S
O511 C499 1.266 . S
H512 C484 0.929 . S
H513 C485 0.931 . S
H514 C487 0.930 . S
H515 C488 0.930 . S
H516 C493 0.929 . S
H517 C494 0.931 . S
H518 C496 0.930 . S
H519 C497 0.930 . S
Tb520 C522 2.809 . S
Tb520 O540 2.484 . S
Tb520 O541 2.440 . S
Tb520 O542 2.658 . S
Tb520 O543 2.409 . S
Tb520 O544 2.378 . S
Tb520 O548 2.325 . S
Tb520 O551 2.341 . S
Tb521 C531 2.809 . S
Tb521 O542 2.325 . S
Tb521 O545 2.341 . S
Tb521 O546 2.484 . S
Tb521 O547 2.440 . S
Tb521 O548 2.658 . S
Tb521 O549 2.409 . S
Tb521 O550 2.378 . S
C522 Tb520 2.809 . S
C522 C523 1.514 . S
C522 O540 1.248 . S
C522 O541 1.266 . S
C523 C522 1.514 . S
C523 C524 1.359 . S
C523 C528 1.348 . S
C524 C523 1.359 . S
C524 C525 1.380 . S
C524 H552 0.929 . S
C525 C524 1.380 . S
C525 C526 1.347 . S
C525 H553 0.931 . S
C526 C525 1.347 . S
C526 C527 1.369 . S
C527 C526 1.369 . S
C527 C528 1.408 . S
C527 H554 0.930 . S
C528 C523 1.348 . S
C528 C527 1.408 . S
C528 H555 0.930 . S
C529 O542 1.281 . S
C529 O543 1.254 . S
C530 O544 1.236 . S
C530 O545 1.266 . S
C531 Tb521 2.809 . S
C531 C532 1.514 . S
C531 O546 1.248 . S
C531 O547 1.266 . S
C532 C531 1.514 . S
C532 C533 1.359 . S
C532 C537 1.348 . S
C533 C532 1.359 . S
C533 C534 1.380 . S
C533 H556 0.929 . S
C534 C533 1.380 . S
C534 C535 1.347 . S
C534 H557 0.931 . S
C535 C534 1.347 . S
C535 C536 1.369 . S
C536 C535 1.369 . S
C536 C537 1.408 . S
C536 H558 0.930 . S
C537 C532 1.348 . S
C537 C536 1.408 . S
C537 H559 0.930 . S
C538 O548 1.281 . S
C538 O549 1.254 . S
C539 O550 1.236 . S
C539 O551 1.266 . S
O540 Tb520 2.484 . S
O540 C522 1.248 . S
O541 Tb520 2.440 . S
O541 C522 1.266 . S
O542 Tb520 2.658 . S
O542 Tb521 2.325 . S
O542 C529 1.281 . S
O543 Tb520 2.409 . S
O543 C529 1.254 . S
O544 Tb520 2.378 . S
O544 C530 1.236 . S
O545 Tb521 2.341 . S
O545 C530 1.266 . S
O546 Tb521 2.484 . S
O546 C531 1.248 . S
O547 Tb521 2.440 . S
O547 C531 1.266 . S
O548 Tb520 2.325 . S
O548 Tb521 2.658 . S
O548 C538 1.281 . S
O549 Tb521 2.409 . S
O549 C538 1.254 . S
O550 Tb521 2.378 . S
O550 C539 1.236 . S
O551 Tb520 2.341 . S
O551 C539 1.266 . S
H552 C524 0.929 . S
H553 C525 0.931 . S
H554 C527 0.930 . S
H555 C528 0.930 . S
H556 C533 0.929 . S
H557 C534 0.931 . S
H558 C536 0.930 . S
H559 C537 0.930 . S
Tb560 C562 2.809 . S
Tb560 O580 2.484 . S
Tb560 O581 2.440 . S
Tb560 O582 2.658 . S
Tb560 O583 2.409 . S
Tb560 O584 2.378 . S
Tb560 O588 2.325 . S
Tb560 O591 2.341 . S
Tb561 C571 2.809 . S
Tb561 O582 2.325 . S
Tb561 O585 2.341 . S
Tb561 O586 2.484 . S
Tb561 O587 2.440 . S
Tb561 O588 2.658 . S
Tb561 O589 2.409 . S
Tb561 O590 2.378 . S
C562 Tb560 2.809 . S
C562 C563 1.514 . S
C562 O580 1.248 . S
C562 O581 1.266 . S
C563 C562 1.514 . S
C563 C564 1.359 . S
C563 C568 1.348 . S
C564 C563 1.359 . S
C564 C565 1.380 . S
C564 H592 0.929 . S
C565 C564 1.380 . S
C565 C566 1.347 . S
C565 H593 0.931 . S
C566 C565 1.347 . S
C566 C567 1.369 . S
C567 C566 1.369 . S
C567 C568 1.408 . S
C567 H594 0.930 . S
C568 C563 1.348 . S
C568 C567 1.408 . S
C568 H595 0.930 . S
C569 O582 1.281 . S
C569 O583 1.254 . S
C570 O584 1.236 . S
C570 O585 1.266 . S
C571 Tb561 2.809 . S
C571 C572 1.514 . S
C571 O586 1.248 . S
C571 O587 1.266 . S
C572 C571 1.514 . S
C572 C573 1.359 . S
C572 C577 1.348 . S
C573 C572 1.359 . S
C573 C574 1.380 . S
C573 H596 0.929 . S
C574 C573 1.380 . S
C574 C575 1.347 . S
C574 H597 0.931 . S
C575 C574 1.347 . S
C575 C576 1.369 . S
C576 C575 1.369 . S
C576 C577 1.408 . S
C576 H598 0.930 . S
C577 C572 1.348 . S
C577 C576 1.408 . S
C577 H599 0.930 . S
C578 O588 1.281 . S
C578 O589 1.254 . S
C579 O590 1.236 . S
C579 O591 1.266 . S
O580 Tb560 2.484 . S
O580 C562 1.248 . S
O581 Tb560 2.440 . S
O581 C562 1.266 . S
O582 Tb560 2.658 . S
O582 Tb561 2.325 . S
O582 C569 1.281 . S
O583 Tb560 2.409 . S
O583 C569 1.254 . S
O584 Tb560 2.378 . S
O584 C570 1.236 . S
O585 Tb561 2.341 . S
O585 C570 1.266 . S
O586 Tb561 2.484 . S
O586 C571 1.248 . S
O587 Tb561 2.440 . S
O587 C571 1.266 . S
O588 Tb560 2.325 . S
O588 Tb561 2.658 . S
O588 C578 1.281 . S
O589 Tb561 2.409 . S
O589 C578 1.254 . S
O590 Tb561 2.378 . S
O590 C579 1.236 . S
O591 Tb560 2.341 . S
O591 C579 1.266 . S
H592 C564 0.929 . S
H593 C565 0.931 . S
H594 C567 0.930 . S
H595 C568 0.930 . S
H596 C573 0.929 . S
H597 C574 0.931 . S
H598 C576 0.930 . S
H599 C577 0.930 . S
Tb600 C602 2.809 . S
Tb600 O620 2.484 . S
Tb600 O621 2.440 . S
Tb600 O622 2.658 1_554 S
Tb600 O623 2.409 1_554 S
Tb600 O624 2.378 1_554 S
Tb600 O628 2.325 1_655 S
Tb600 O631 2.341 1_655 S
Tb601 C611 2.809 . S
Tb601 O622 2.325 1_455 S
Tb601 O625 2.341 1_455 S
Tb601 O626 2.484 . S
Tb601 O627 2.440 . S
Tb601 O628 2.658 1_556 S
Tb601 O629 2.409 1_556 S
Tb601 O630 2.378 1_556 S
C602 Tb600 2.809 . S
C602 C603 1.514 . S
C602 O620 1.248 . S
C602 O621 1.266 . S
C603 C602 1.514 . S
C603 C604 1.359 . S
C603 C608 1.348 . S
C604 C603 1.359 . S
C604 C605 1.380 . S
C604 H632 0.929 . S
C605 C604 1.380 . S
C605 C606 1.347 . S
C605 H633 0.931 . S
C606 C605 1.347 . S
C606 C607 1.369 . S
C607 C606 1.369 . S
C607 C608 1.408 . S
C607 H634 0.930 . S
C608 C603 1.348 . S
C608 C607 1.408 . S
C608 H635 0.930 . S
C609 O622 1.281 . S
C609 O623 1.254 . S
C610 O624 1.236 . S
C610 O625 1.266 . S
C611 Tb601 2.809 . S
C611 C612 1.514 . S
C611 O626 1.248 . S
C611 O627 1.266 . S
C612 C611 1.514 . S
C612 C613 1.359 . S
C612 C617 1.348 . S
C613 C612 1.359 . S
C613 C614 1.380 . S
C613 H636 0.929 . S
C614 C613 1.380 . S
C614 C615 1.347 . S
C614 H637 0.931 . S
C615 C614 1.347 . S
C615 C616 1.369 . S
C616 C615 1.369 . S
C616 C617 1.408 . S
C616 H638 0.930 . S
C617 C612 1.348 . S
C617 C616 1.408 . S
C617 H639 0.930 . S
C618 O628 1.281 . S
C618 O629 1.254 . S
C619 O630 1.236 . S
C619 O631 1.266 . S
O620 Tb600 2.484 . S
O620 C602 1.248 . S
O621 Tb600 2.440 . S
O621 C602 1.266 . S
O622 Tb600 2.658 1_556 S
O622 Tb601 2.325 1_655 S
O622 C609 1.281 . S
O623 Tb600 2.409 1_556 S
O623 C609 1.254 . S
O624 Tb600 2.378 1_556 S
O624 C610 1.236 . S
O625 Tb601 2.341 1_655 S
O625 C610 1.266 . S
O626 Tb601 2.484 . S
O626 C611 1.248 . S
O627 Tb601 2.440 . S
O627 C611 1.266 . S
O628 Tb600 2.325 1_455 S
O628 Tb601 2.658 1_554 S
O628 C618 1.281 . S
O629 Tb601 2.409 1_554 S
O629 C618 1.254 . S
O630 Tb601 2.378 1_554 S
O630 C619 1.236 . S
O631 Tb600 2.341 1_455 S
O631 C619 1.266 . S
H632 C604 0.929 . S
H633 C605 0.931 . S
H634 C607 0.930 . S
H635 C608 0.930 . S
H636 C613 0.929 . S
H637 C614 0.931 . S
H638 C616 0.930 . S
H639 C617 0.930 . S
H640 C652 0.930 . S
H641 C654 0.930 . S
H642 C655 0.930 . S
H643 C659 0.959 . S
H644 C659 0.959 . S
H645 C659 0.961 . S
H646 C660 0.960 . S
H647 C660 0.961 . S
H648 C660 0.959 . S
H649 C663 0.929 . S
H650 C664 0.931 . S
H651 C666 0.930 . S
C652 H640 0.930 . S
C652 C653 1.399 . S
C652 C657 1.399 . S
C653 C652 1.399 . S
C653 C654 1.376 . S
C654 H641 0.930 . S
C654 C653 1.376 . S
C654 C655 1.388 . S
C655 H642 0.930 . S
C655 C654 1.388 . S
C655 C656 1.390 . S
C656 C655 1.390 . S
C656 C657 1.394 . S
C656 C662 1.465 . S
C657 C652 1.399 . S
C657 C656 1.394 . S
C657 C658 1.516 . S
C658 C657 1.516 . S
C658 C659 1.502 . S
C658 C660 1.561 . S
C658 C661 1.526 . S
C659 H643 0.959 . S
C659 H644 0.959 . S
C659 H645 0.961 . S
C659 C658 1.502 . S
C660 H646 0.960 . S
C660 H647 0.961 . S
C660 H648 0.959 . S
C660 C658 1.561 . S
C661 C658 1.526 . S
C661 C662 1.396 . S
C661 C666 1.390 . S
C662 C656 1.465 . S
C662 C661 1.396 . S
C662 C663 1.399 . S
C663 H649 0.929 . S
C663 C662 1.399 . S
C663 C664 1.385 . S
C664 H650 0.931 . S
C664 C663 1.385 . S
C664 C665 1.389 . S
C665 C664 1.389 . S
C665 C666 1.387 . S
C666 H651 0.930 . S
C666 C661 1.390 . S
C666 C665 1.387 . S
H667 C679 0.930 . S
H668 C681 0.930 . S
H669 C682 0.930 . S
H670 C686 0.959 . S
H671 C686 0.959 . S
H672 C686 0.961 . S
H673 C687 0.960 . S
H674 C687 0.961 . S
H675 C687 0.959 . S
H676 C690 0.929 . S
H677 C691 0.931 . S
H678 C693 0.930 . S
C679 H667 0.930 . S
C679 C680 1.399 . S
C679 C684 1.399 . S
C680 C679 1.399 . S
C680 C681 1.376 . S
C681 H668 0.930 . S
C681 C680 1.376 . S
C681 C682 1.388 . S
C682 H669 0.930 . S
C682 C681 1.388 . S
C682 C683 1.390 . S
C683 C682 1.390 . S
C683 C684 1.394 . S
C683 C689 1.465 . S
C684 C679 1.399 . S
C684 C683 1.394 . S
C684 C685 1.516 . S
C685 C684 1.516 . S
C685 C686 1.502 . S
C685 C687 1.561 . S
C685 C688 1.526 . S
C686 H670 0.959 . S
C686 H671 0.959 . S
C686 H672 0.961 . S
C686 C685 1.502 . S
C687 H673 0.960 . S
C687 H674 0.961 . S
C687 H675 0.959 . S
C687 C685 1.561 . S
C688 C685 1.526 . S
C688 C689 1.396 . S
C688 C693 1.390 . S
C689 C683 1.465 . S
C689 C688 1.396 . S
C689 C690 1.399 . S
C690 H676 0.929 . S
C690 C689 1.399 . S
C690 C691 1.385 . S
C691 H677 0.931 . S
C691 C690 1.385 . S
C691 C692 1.389 . S
C692 C691 1.389 . S
C692 C693 1.387 . S
C693 H678 0.930 . S
C693 C688 1.390 . S
C693 C692 1.387 . S
H694 C706 0.930 . S
H695 C708 0.930 . S
H696 C709 0.930 . S
H697 C713 0.959 . S
H698 C713 0.959 . S
H699 C713 0.961 . S
H700 C714 0.960 . S
H701 C714 0.961 . S
H702 C714 0.959 . S
H703 C717 0.929 . S
H704 C718 0.931 . S
H705 C720 0.930 . S
C706 H694 0.930 . S
C706 C707 1.399 . S
C706 C711 1.399 . S
C707 C706 1.399 . S
C707 C708 1.376 . S
C708 H695 0.930 . S
C708 C707 1.376 . S
C708 C709 1.388 . S
C709 H696 0.930 . S
C709 C708 1.388 . S
C709 C710 1.390 . S
C710 C709 1.390 . S
C710 C711 1.394 . S
C710 C716 1.465 . S
C711 C706 1.399 . S
C711 C710 1.394 . S
C711 C712 1.516 . S
C712 C711 1.516 . S
C712 C713 1.502 . S
C712 C714 1.561 . S
C712 C715 1.526 . S
C713 H697 0.959 . S
C713 H698 0.959 . S
C713 H699 0.961 . S
C713 C712 1.502 . S
C714 H700 0.960 . S
C714 H701 0.961 . S
C714 H702 0.959 . S
C714 C712 1.561 . S
C715 C712 1.526 . S
C715 C716 1.396 . S
C715 C720 1.390 . S
C716 C710 1.465 . S
C716 C715 1.396 . S
C716 C717 1.399 . S
C717 H703 0.929 . S
C717 C716 1.399 . S
C717 C718 1.385 . S
C718 H704 0.931 . S
C718 C717 1.385 . S
C718 C719 1.389 . S
C719 C718 1.389 . S
C719 C720 1.387 . S
C720 H705 0.930 . S
C720 C715 1.390 . S
C720 C719 1.387 . S
H721 C733 0.930 . S
H722 C735 0.930 . S
H723 C736 0.930 . S
H724 C740 0.959 . S
H725 C740 0.959 . S
H726 C740 0.961 . S
H727 C741 0.960 . S
H728 C741 0.961 . S
H729 C741 0.959 . S
H730 C744 0.929 . S
H731 C745 0.931 . S
H732 C747 0.930 . S
C733 H721 0.930 . S
C733 C734 1.399 . S
C733 C738 1.399 . S
C734 C733 1.399 . S
C734 C735 1.376 . S
C735 H722 0.930 . S
C735 C734 1.376 . S
C735 C736 1.388 . S
C736 H723 0.930 . S
C736 C735 1.388 . S
C736 C737 1.390 . S
C737 C736 1.390 . S
C737 C738 1.394 . S
C737 C743 1.465 . S
C738 C733 1.399 . S
C738 C737 1.394 . S
C738 C739 1.516 . S
C739 C738 1.516 . S
C739 C740 1.502 . S
C739 C741 1.561 . S
C739 C742 1.526 . S
C740 H724 0.959 . S
C740 H725 0.959 . S
C740 H726 0.961 . S
C740 C739 1.502 . S
C741 H727 0.960 . S
C741 H728 0.961 . S
C741 H729 0.959 . S
C741 C739 1.561 . S
C742 C739 1.526 . S
C742 C743 1.396 . S
C742 C747 1.390 . S
C743 C737 1.465 . S
C743 C742 1.396 . S
C743 C744 1.399 . S
C744 H730 0.929 . S
C744 C743 1.399 . S
C744 C745 1.385 . S
C745 H731 0.931 . S
C745 C744 1.385 . S
C745 C746 1.389 . S
C746 C745 1.389 . S
C746 C747 1.387 . S
C747 H732 0.930 . S
C747 C742 1.390 . S
C747 C746 1.387 . S
H748 C760 0.930 . S
H749 C762 0.930 . S
H750 C763 0.930 . S
H751 C767 0.959 . S
H752 C767 0.959 . S
H753 C767 0.961 . S
H754 C768 0.960 . S
H755 C768 0.961 . S
H756 C768 0.959 . S
H757 C771 0.929 . S
H758 C772 0.931 . S
H759 C774 0.930 . S
C760 H748 0.930 . S
C760 C761 1.399 . S
C760 C765 1.399 . S
C761 C760 1.399 . S
C761 C762 1.376 . S
C762 H749 0.930 . S
C762 C761 1.376 . S
C762 C763 1.388 . S
C763 H750 0.930 . S
C763 C762 1.388 . S
C763 C764 1.390 . S
C764 C763 1.390 . S
C764 C765 1.394 . S
C764 C770 1.465 . S
C765 C760 1.399 . S
C765 C764 1.394 . S
C765 C766 1.516 . S
C766 C765 1.516 . S
C766 C767 1.502 . S
C766 C768 1.561 . S
C766 C769 1.526 . S
C767 H751 0.959 . S
C767 H752 0.959 . S
C767 H753 0.961 . S
C767 C766 1.502 . S
C768 H754 0.960 . S
C768 H755 0.961 . S
C768 H756 0.959 . S
C768 C766 1.561 . S
C769 C766 1.526 . S
C769 C770 1.396 . S
C769 C774 1.390 . S
C770 C764 1.465 . S
C770 C769 1.396 . S
C770 C771 1.399 . S
C771 H757 0.929 . S
C771 C770 1.399 . S
C771 C772 1.385 . S
C772 H758 0.931 . S
C772 C771 1.385 . S
C772 C773 1.389 . S
C773 C772 1.389 . S
C773 C774 1.387 . S
C774 H759 0.930 . S
C774 C769 1.390 . S
C774 C773 1.387 . S
H775 C787 0.930 . S
H776 C789 0.930 . S
H777 C790 0.930 . S
H778 C794 0.959 . S
H779 C794 0.959 . S
H780 C794 0.961 . S
H781 C795 0.960 . S
H782 C795 0.961 . S
H783 C795 0.959 . S
H784 C798 0.929 . S
H785 C799 0.931 . S
H786 C801 0.930 . S
C787 H775 0.930 . S
C787 C788 1.399 . S
C787 C792 1.399 . S
C788 C787 1.399 . S
C788 C789 1.376 . S
C789 H776 0.930 . S
C789 C788 1.376 . S
C789 C790 1.388 . S
C790 H777 0.930 . S
C790 C789 1.388 . S
C790 C791 1.390 . S
C791 C790 1.390 . S
C791 C792 1.394 . S
C791 C797 1.465 . S
C792 C787 1.399 . S
C792 C791 1.394 . S
C792 C793 1.516 . S
C793 C792 1.516 . S
C793 C794 1.502 . S
C793 C795 1.561 . S
C793 C796 1.526 . S
C794 H778 0.959 . S
C794 H779 0.959 . S
C794 H780 0.961 . S
C794 C793 1.502 . S
C795 H781 0.960 . S
C795 H782 0.961 . S
C795 H783 0.959 . S
C795 C793 1.561 . S
C796 C793 1.526 . S
C796 C797 1.396 . S
C796 C801 1.390 . S
C797 C791 1.465 . S
C797 C796 1.396 . S
C797 C798 1.399 . S
C798 H784 0.929 . S
C798 C797 1.399 . S
C798 C799 1.385 . S
C799 H785 0.931 . S
C799 C798 1.385 . S
C799 C800 1.389 . S
C800 C799 1.389 . S
C800 C801 1.387 . S
C801 H786 0.930 . S
C801 C796 1.390 . S
C801 C800 1.387 . S
H802 C814 0.930 . S
H803 C816 0.930 . S
H804 C817 0.930 . S
H805 C821 0.959 . S
H806 C821 0.959 . S
H807 C821 0.961 . S
H808 C822 0.960 . S
H809 C822 0.961 . S
H810 C822 0.959 . S
H811 C825 0.929 . S
H812 C826 0.931 . S
H813 C828 0.930 . S
C814 H802 0.930 . S
C814 C815 1.399 . S
C814 C819 1.399 . S
C815 C814 1.399 . S
C815 C816 1.376 . S
C816 H803 0.930 . S
C816 C815 1.376 . S
C816 C817 1.388 . S
C817 H804 0.930 . S
C817 C816 1.388 . S
C817 C818 1.390 . S
C818 C817 1.390 . S
C818 C819 1.394 . S
C818 C824 1.465 . S
C819 C814 1.399 . S
C819 C818 1.394 . S
C819 C820 1.516 . S
C820 C819 1.516 . S
C820 C821 1.502 . S
C820 C822 1.561 . S
C820 C823 1.526 . S
C821 H805 0.959 . S
C821 H806 0.959 . S
C821 H807 0.961 . S
C821 C820 1.502 . S
C822 H808 0.960 . S
C822 H809 0.961 . S
C822 H810 0.959 . S
C822 C820 1.561 . S
C823 C820 1.526 . S
C823 C824 1.396 . S
C823 C828 1.390 . S
C824 C818 1.465 . S
C824 C823 1.396 . S
C824 C825 1.399 . S
C825 H811 0.929 . S
C825 C824 1.399 . S
C825 C826 1.385 . S
C826 H812 0.931 . S
C826 C825 1.385 . S
C826 C827 1.389 . S
C827 C826 1.389 . S
C827 C828 1.387 . S
C828 H813 0.930 . S
C828 C823 1.390 . S
C828 C827 1.387 . S
H829 C841 0.930 . S
H830 C843 0.930 . S
H831 C844 0.930 . S
H832 C848 0.959 . S
H833 C848 0.959 . S
H834 C848 0.961 . S
H835 C849 0.960 . S
H836 C849 0.961 . S
H837 C849 0.959 . S
H838 C852 0.929 . S
H839 C853 0.931 . S
H840 C855 0.930 . S
C841 H829 0.930 . S
C841 C842 1.399 . S
C841 C846 1.399 . S
C842 C841 1.399 . S
C842 C843 1.376 . S
C843 H830 0.930 . S
C843 C842 1.376 . S
C843 C844 1.388 . S
C844 H831 0.930 . S
C844 C843 1.388 . S
C844 C845 1.390 . S
C845 C844 1.390 . S
C845 C846 1.394 . S
C845 C851 1.465 . S
C846 C841 1.399 . S
C846 C845 1.394 . S
C846 C847 1.516 . S
C847 C846 1.516 . S
C847 C848 1.502 . S
C847 C849 1.561 . S
C847 C850 1.526 . S
C848 H832 0.959 . S
C848 H833 0.959 . S
C848 H834 0.961 . S
C848 C847 1.502 . S
C849 H835 0.960 . S
C849 H836 0.961 . S
C849 H837 0.959 . S
C849 C847 1.561 . S
C850 C847 1.526 . S
C850 C851 1.396 . S
C850 C855 1.390 . S
C851 C845 1.465 . S
C851 C850 1.396 . S
C851 C852 1.399 . S
C852 H838 0.929 . S
C852 C851 1.399 . S
C852 C853 1.385 . S
C853 H839 0.931 . S
C853 C852 1.385 . S
C853 C854 1.389 . S
C854 C853 1.389 . S
C854 C855 1.387 . S
C855 H840 0.930 . S
C855 C850 1.390 . S
C855 C854 1.387 . S
H856 C868 0.930 . S
H857 C870 0.930 . S
H858 C871 0.930 . S
H859 C875 0.959 . S
H860 C875 0.959 . S
H861 C875 0.961 . S
H862 C876 0.960 . S
H863 C876 0.961 . S
H864 C876 0.959 . S
H865 C879 0.929 . S
H866 C880 0.931 . S
H867 C882 0.930 . S
C868 H856 0.930 . S
C868 C869 1.399 . S
C868 C873 1.399 . S
C869 C868 1.399 . S
C869 C870 1.376 . S
C870 H857 0.930 . S
C870 C869 1.376 . S
C870 C871 1.388 . S
C871 H858 0.930 . S
C871 C870 1.388 . S
C871 C872 1.390 . S
C872 C871 1.390 . S
C872 C873 1.394 . S
C872 C878 1.465 . S
C873 C868 1.399 . S
C873 C872 1.394 . S
C873 C874 1.516 . S
C874 C873 1.516 . S
C874 C875 1.502 . S
C874 C876 1.561 . S
C874 C877 1.526 . S
C875 H859 0.959 . S
C875 H860 0.959 . S
C875 H861 0.961 . S
C875 C874 1.502 . S
C876 H862 0.960 . S
C876 H863 0.961 . S
C876 H864 0.959 . S
C876 C874 1.561 . S
C877 C874 1.526 . S
C877 C878 1.396 . S
C877 C882 1.390 . S
C878 C872 1.465 . S
C878 C877 1.396 . S
C878 C879 1.399 . S
C879 H865 0.929 . S
C879 C878 1.399 . S
C879 C880 1.385 . S
C880 H866 0.931 . S
C880 C879 1.385 . S
C880 C881 1.389 . S
C881 C880 1.389 . S
C881 C882 1.387 . S
C882 H867 0.930 . S
C882 C877 1.390 . S
C882 C881 1.387 . S
H883 C895 0.930 . S
H884 C897 0.930 . S
H885 C898 0.930 . S
H886 C902 0.959 . S
H887 C902 0.959 . S
H888 C902 0.961 . S
H889 C903 0.960 . S
H890 C903 0.961 . S
H891 C903 0.959 . S
H892 C906 0.929 . S
H893 C907 0.931 . S
H894 C909 0.930 . S
C895 H883 0.930 . S
C895 C896 1.399 . S
C895 C900 1.399 . S
C896 C895 1.399 . S
C896 C897 1.376 . S
C897 H884 0.930 . S
C897 C896 1.376 . S
C897 C898 1.388 . S
C898 H885 0.930 . S
C898 C897 1.388 . S
C898 C899 1.390 . S
C899 C898 1.390 . S
C899 C900 1.394 . S
C899 C905 1.465 . S
C900 C895 1.399 . S
C900 C899 1.394 . S
C900 C901 1.516 . S
C901 C900 1.516 . S
C901 C902 1.502 . S
C901 C903 1.561 . S
C901 C904 1.526 . S
C902 H886 0.959 . S
C902 H887 0.959 . S
C902 H888 0.961 . S
C902 C901 1.502 . S
C903 H889 0.960 . S
C903 H890 0.961 . S
C903 H891 0.959 . S
C903 C901 1.561 . S
C904 C901 1.526 . S
C904 C905 1.396 . S
C904 C909 1.390 . S
C905 C899 1.465 . S
C905 C904 1.396 . S
C905 C906 1.399 . S
C906 H892 0.929 . S
C906 C905 1.399 . S
C906 C907 1.385 . S
C907 H893 0.931 . S
C907 C906 1.385 . S
C907 C908 1.389 . S
C908 C907 1.389 . S
C908 C909 1.387 . S
C909 H894 0.930 . S
C909 C904 1.390 . S
C909 C908 1.387 . S
H910 C922 0.930 . S
H911 C924 0.930 . S
H912 C925 0.930 . S
H913 C929 0.959 . S
H914 C929 0.959 . S
H915 C929 0.961 . S
H916 C930 0.960 . S
H917 C930 0.961 . S
H918 C930 0.959 . S
H919 C933 0.929 . S
H920 C934 0.931 . S
H921 C936 0.930 . S
C922 H910 0.930 . S
C922 C923 1.399 . S
C922 C927 1.399 . S
C923 C922 1.399 . S
C923 C924 1.376 . S
C924 H911 0.930 . S
C924 C923 1.376 . S
C924 C925 1.388 . S
C925 H912 0.930 . S
C925 C924 1.388 . S
C925 C926 1.390 . S
C926 C925 1.390 . S
C926 C927 1.394 . S
C926 C932 1.465 . S
C927 C922 1.399 . S
C927 C926 1.394 . S
C927 C928 1.516 . S
C928 C927 1.516 . S
C928 C929 1.502 . S
C928 C930 1.561 . S
C928 C931 1.526 . S
C929 H913 0.959 . S
C929 H914 0.959 . S
C929 H915 0.961 . S
C929 C928 1.502 . S
C930 H916 0.960 . S
C930 H917 0.961 . S
C930 H918 0.959 . S
C930 C928 1.561 . S
C931 C928 1.526 . S
C931 C932 1.396 . S
C931 C936 1.390 . S
C932 C926 1.465 . S
C932 C931 1.396 . S
C932 C933 1.399 . S
C933 H919 0.929 . S
C933 C932 1.399 . S
C933 C934 1.385 . S
C934 H920 0.931 . S
C934 C933 1.385 . S
C934 C935 1.389 . S
C935 C934 1.389 . S
C935 C936 1.387 . S
C936 H921 0.930 . S
C936 C931 1.390 . S
C936 C935 1.387 . S
H937 C949 0.930 . S
H938 C951 0.930 . S
H939 C952 0.930 . S
H940 C956 0.959 . S
H941 C956 0.959 . S
H942 C956 0.961 . S
H943 C957 0.960 . S
H944 C957 0.961 . S
H945 C957 0.959 . S
H946 C960 0.929 . S
H947 C961 0.931 . S
H948 C963 0.930 . S
C949 H937 0.930 . S
C949 C950 1.399 . S
C949 C954 1.399 . S
C950 C949 1.399 . S
C950 C951 1.376 . S
C951 H938 0.930 . S
C951 C950 1.376 . S
C951 C952 1.388 . S
C952 H939 0.930 . S
C952 C951 1.388 . S
C952 C953 1.390 . S
C953 C952 1.390 . S
C953 C954 1.394 . S
C953 C959 1.465 . S
C954 C949 1.399 . S
C954 C953 1.394 . S
C954 C955 1.516 . S
C955 C954 1.516 . S
C955 C956 1.502 . S
C955 C957 1.561 . S
C955 C958 1.526 . S
C956 H940 0.959 . S
C956 H941 0.959 . S
C956 H942 0.961 . S
C956 C955 1.502 . S
C957 H943 0.960 . S
C957 H944 0.961 . S
C957 H945 0.959 . S
C957 C955 1.561 . S
C958 C955 1.526 . S
C958 C959 1.396 . S
C958 C963 1.390 . S
C959 C953 1.465 . S
C959 C958 1.396 . S
C959 C960 1.399 . S
C960 H946 0.929 . S
C960 C959 1.399 . S
C960 C961 1.385 . S
C961 H947 0.931 . S
C961 C960 1.385 . S
C961 C962 1.389 . S
C962 C961 1.389 . S
C962 C963 1.387 . S
C963 H948 0.930 . S
C963 C958 1.390 . S
C963 C962 1.387 . S
H964 C976 0.930 . S
H965 C978 0.930 . S
H966 C979 0.930 . S
H967 C983 0.959 . S
H968 C983 0.959 . S
H969 C983 0.961 . S
H970 C984 0.960 . S
H971 C984 0.961 . S
H972 C984 0.959 . S
H973 C987 0.929 . S
H974 C988 0.931 . S
H975 C990 0.930 . S
C976 H964 0.930 . S
C976 C977 1.399 . S
C976 C981 1.399 . S
C977 C976 1.399 . S
C977 C978 1.376 . S
C978 H965 0.930 . S
C978 C977 1.376 . S
C978 C979 1.388 . S
C979 H966 0.930 . S
C979 C978 1.388 . S
C979 C980 1.390 . S
C980 C979 1.390 . S
C980 C981 1.394 . S
C980 C986 1.465 . S
C981 C976 1.399 . S
C981 C980 1.394 . S
C981 C982 1.516 . S
C982 C981 1.516 . S
C982 C983 1.502 . S
C982 C984 1.561 . S
C982 C985 1.526 . S
C983 H967 0.959 . S
C983 H968 0.959 . S
C983 H969 0.961 . S
C983 C982 1.502 . S
C984 H970 0.960 . S
C984 H971 0.961 . S
C984 H972 0.959 . S
C984 C982 1.561 . S
C985 C982 1.526 . S
C985 C986 1.396 . S
C985 C990 1.390 . S
C986 C980 1.465 . S
C986 C985 1.396 . S
C986 C987 1.399 . S
C987 H973 0.929 . S
C987 C986 1.399 . S
C987 C988 1.385 . S
C988 H974 0.931 . S
C988 C987 1.385 . S
C988 C989 1.389 . S
C989 C988 1.389 . S
C989 C990 1.387 . S
C990 H975 0.930 . S
C990 C985 1.390 . S
C990 C989 1.387 . S
H991 C1003 0.930 . S
H992 C1005 0.930 . S
H993 C1006 0.930 . S
H994 C1010 0.959 . S
H995 C1010 0.959 . S
H996 C1010 0.961 . S
H997 C1011 0.960 . S
H998 C1011 0.961 . S
H999 C1011 0.959 . S
H1000 C1014 0.929 . S
H1001 C1015 0.931 . S
H1002 C1017 0.930 . S
C1003 H991 0.930 . S
C1003 C1004 1.399 . S
C1003 C1008 1.399 . S
C1004 C1003 1.399 . S
C1004 C1005 1.376 . S
C1005 H992 0.930 . S
C1005 C1004 1.376 . S
C1005 C1006 1.388 . S
C1006 H993 0.930 . S
C1006 C1005 1.388 . S
C1006 C1007 1.390 . S
C1007 C1006 1.390 . S
C1007 C1008 1.394 . S
C1007 C1013 1.465 . S
C1008 C1003 1.399 . S
C1008 C1007 1.394 . S
C1008 C1009 1.516 . S
C1009 C1008 1.516 . S
C1009 C1010 1.502 . S
C1009 C1011 1.561 . S
C1009 C1012 1.526 . S
C1010 H994 0.959 . S
C1010 H995 0.959 . S
C1010 H996 0.961 . S
C1010 C1009 1.502 . S
C1011 H997 0.960 . S
C1011 H998 0.961 . S
C1011 H999 0.959 . S
C1011 C1009 1.561 . S
C1012 C1009 1.526 . S
C1012 C1013 1.396 . S
C1012 C1017 1.390 . S
C1013 C1007 1.465 . S
C1013 C1012 1.396 . S
C1013 C1014 1.399 . S
C1014 H1000 0.929 . S
C1014 C1013 1.399 . S
C1014 C1015 1.385 . S
C1015 H1001 0.931 . S
C1015 C1014 1.385 . S
C1015 C1016 1.389 . S
C1016 C1015 1.389 . S
C1016 C1017 1.387 . S
C1017 H1002 0.930 . S
C1017 C1012 1.390 . S
C1017 C1016 1.387 . S
H1018 C1030 0.930 . S
H1019 C1032 0.930 . S
H1020 C1033 0.930 . S
H1021 C1037 0.959 . S
H1022 C1037 0.959 . S
H1023 C1037 0.961 1_565 S
H1024 C1038 0.960 . S
H1025 C1038 0.961 . S
H1026 C1038 0.959 . S
H1027 C1041 0.929 . S
H1028 C1042 0.931 . S
H1029 C1044 0.930 . S
C1030 H1018 0.930 . S
C1030 C1031 1.399 . S
C1030 C1035 1.399 . S
C1031 C1030 1.399 . S
C1031 C1032 1.376 . S
C1032 H1019 0.930 . S
C1032 C1031 1.376 . S
C1032 C1033 1.388 . S
C1033 H1020 0.930 . S
C1033 C1032 1.388 . S
C1033 C1034 1.390 . S
C1034 C1033 1.390 . S
C1034 C1035 1.394 . S
C1034 C1040 1.465 . S
C1035 C1030 1.399 . S
C1035 C1034 1.394 . S
C1035 C1036 1.516 . S
C1036 C1035 1.516 . S
C1036 C1037 1.502 . S
C1036 C1038 1.561 . S
C1036 C1039 1.526 . S
C1037 H1021 0.959 . S
C1037 H1022 0.959 . S
C1037 H1023 0.961 1_545 S
C1037 C1036 1.502 . S
C1038 H1024 0.960 . S
C1038 H1025 0.961 . S
C1038 H1026 0.959 . S
C1038 C1036 1.561 . S
C1039 C1036 1.526 . S
C1039 C1040 1.396 . S
C1039 C1044 1.390 . S
C1040 C1034 1.465 . S
C1040 C1039 1.396 . S
C1040 C1041 1.399 . S
C1041 H1027 0.929 . S
C1041 C1040 1.399 . S
C1041 C1042 1.385 . S
C1042 H1028 0.931 . S
C1042 C1041 1.385 . S
C1042 C1043 1.389 . S
C1043 C1042 1.389 . S
C1043 C1044 1.387 . S
C1044 H1029 0.930 . S
C1044 C1039 1.390 . S
C1044 C1043 1.387 . S
H1045 C1057 0.930 . S
H1046 C1059 0.930 . S
H1047 C1060 0.930 . S
H1048 C1064 0.959 . S
H1049 C1064 0.959 . S
H1050 C1064 0.961 . S
H1051 C1065 0.960 . S
H1052 C1065 0.961 . S
H1053 C1065 0.959 . S
H1054 C1068 0.929 . S
H1055 C1069 0.931 . S
H1056 C1071 0.930 . S
C1057 H1045 0.930 . S
C1057 C1058 1.399 . S
C1057 C1062 1.399 . S
C1058 C1057 1.399 . S
C1058 C1059 1.376 . S
C1059 H1046 0.930 . S
C1059 C1058 1.376 . S
C1059 C1060 1.388 . S
C1060 H1047 0.930 . S
C1060 C1059 1.388 . S
C1060 C1061 1.390 . S
C1061 C1060 1.390 . S
C1061 C1062 1.394 . S
C1061 C1067 1.465 . S
C1062 C1057 1.399 . S
C1062 C1061 1.394 . S
C1062 C1063 1.516 . S
C1063 C1062 1.516 . S
C1063 C1064 1.502 . S
C1063 C1065 1.561 . S
C1063 C1066 1.526 . S
C1064 H1048 0.959 . S
C1064 H1049 0.959 . S
C1064 H1050 0.961 . S
C1064 C1063 1.502 . S
C1065 H1051 0.960 . S
C1065 H1052 0.961 . S
C1065 H1053 0.959 . S
C1065 C1063 1.561 . S
C1066 C1063 1.526 . S
C1066 C1067 1.396 . S
C1066 C1071 1.390 . S
C1067 C1061 1.465 . S
C1067 C1066 1.396 . S
C1067 C1068 1.399 . S
C1068 H1054 0.929 . S
C1068 C1067 1.399 . S
C1068 C1069 1.385 . S
C1069 H1055 0.931 . S
C1069 C1068 1.385 . S
C1069 C1070 1.389 . S
C1070 C1069 1.389 . S
C1070 C1071 1.387 . S
C1071 H1056 0.930 . S
C1071 C1066 1.390 . S
C1071 C1070 1.387 . S
H1072 C1084 0.930 . S
H1073 C1086 0.930 . S
H1074 C1087 0.930 . S
H1075 C1091 0.959 . S
H1076 C1091 0.959 . S
H1077 C1091 0.961 . S
H1078 C1092 0.960 . S
H1079 C1092 0.961 . S
H1080 C1092 0.959 . S
H1081 C1095 0.929 . S
H1082 C1096 0.931 . S
H1083 C1098 0.930 . S
C1084 H1072 0.930 . S
C1084 C1085 1.399 . S
C1084 C1089 1.399 . S
C1085 C1084 1.399 . S
C1085 C1086 1.376 . S
C1086 H1073 0.930 . S
C1086 C1085 1.376 . S
C1086 C1087 1.388 . S
C1087 H1074 0.930 . S
C1087 C1086 1.388 . S
C1087 C1088 1.390 . S
C1088 C1087 1.390 . S
C1088 C1089 1.394 . S
C1088 C1094 1.465 . S
C1089 C1084 1.399 . S
C1089 C1088 1.394 . S
C1089 C1090 1.516 . S
C1090 C1089 1.516 . S
C1090 C1091 1.502 . S
C1090 C1092 1.561 . S
C1090 C1093 1.526 . S
C1091 H1075 0.959 . S
C1091 H1076 0.959 . S
C1091 H1077 0.961 . S
C1091 C1090 1.502 . S
C1092 H1078 0.960 . S
C1092 H1079 0.961 . S
C1092 H1080 0.959 . S
C1092 C1090 1.561 . S
C1093 C1090 1.526 . S
C1093 C1094 1.396 . S
C1093 C1098 1.390 . S
C1094 C1088 1.465 . S
C1094 C1093 1.396 . S
C1094 C1095 1.399 . S
C1095 H1081 0.929 . S
C1095 C1094 1.399 . S
C1095 C1096 1.385 . S
C1096 H1082 0.931 . S
C1096 C1095 1.385 . S
C1096 C1097 1.389 . S
C1097 C1096 1.389 . S
C1097 C1098 1.387 . S
C1098 H1083 0.930 . S
C1098 C1093 1.390 . S
C1098 C1097 1.387 . S
H1099 C1111 0.930 . S
H1100 C1113 0.930 . S
H1101 C1114 0.930 . S
H1102 C1118 0.959 . S
H1103 C1118 0.959 . S
H1104 C1118 0.961 . S
H1105 C1119 0.960 . S
H1106 C1119 0.961 . S
H1107 C1119 0.959 . S
H1108 C1122 0.929 . S
H1109 C1123 0.931 . S
H1110 C1125 0.930 . S
C1111 H1099 0.930 . S
C1111 C1112 1.399 . S
C1111 C1116 1.399 . S
C1112 C1111 1.399 . S
C1112 C1113 1.376 . S
C1113 H1100 0.930 . S
C1113 C1112 1.376 . S
C1113 C1114 1.388 . S
C1114 H1101 0.930 . S
C1114 C1113 1.388 . S
C1114 C1115 1.390 . S
C1115 C1114 1.390 . S
C1115 C1116 1.394 . S
C1115 C1121 1.465 . S
C1116 C1111 1.399 . S
C1116 C1115 1.394 . S
C1116 C1117 1.516 . S
C1117 C1116 1.516 . S
C1117 C1118 1.502 . S
C1117 C1119 1.561 . S
C1117 C1120 1.526 . S
C1118 H1102 0.959 . S
C1118 H1103 0.959 . S
C1118 H1104 0.961 . S
C1118 C1117 1.502 . S
C1119 H1105 0.960 . S
C1119 H1106 0.961 . S
C1119 H1107 0.959 . S
C1119 C1117 1.561 . S
C1120 C1117 1.526 . S
C1120 C1121 1.396 . S
C1120 C1125 1.390 . S
C1121 C1115 1.465 . S
C1121 C1120 1.396 . S
C1121 C1122 1.399 . S
C1122 H1108 0.929 . S
C1122 C1121 1.399 . S
C1122 C1123 1.385 . S
C1123 H1109 0.931 . S
C1123 C1122 1.385 . S
C1123 C1124 1.389 . S
C1124 C1123 1.389 . S
C1124 C1125 1.387 . S
C1125 H1110 0.930 . S
C1125 C1120 1.390 . S
C1125 C1124 1.387 . S
H1126 C1138 0.930 . S
H1127 C1140 0.930 . S
H1128 C1141 0.930 . S
H1129 C1145 0.959 . S
H1130 C1145 0.959 . S
H1131 C1145 0.961 . S
H1132 C1146 0.960 . S
H1133 C1146 0.961 . S
H1134 C1146 0.959 . S
H1135 C1149 0.929 . S
H1136 C1150 0.931 . S
H1137 C1152 0.930 . S
C1138 H1126 0.930 . S
C1138 C1139 1.399 . S
C1138 C1143 1.399 . S
C1139 C1138 1.399 . S
C1139 C1140 1.376 . S
C1140 H1127 0.930 . S
C1140 C1139 1.376 . S
C1140 C1141 1.388 . S
C1141 H1128 0.930 . S
C1141 C1140 1.388 . S
C1141 C1142 1.390 . S
C1142 C1141 1.390 . S
C1142 C1143 1.394 . S
C1142 C1148 1.465 . S
C1143 C1138 1.399 . S
C1143 C1142 1.394 . S
C1143 C1144 1.516 . S
C1144 C1143 1.516 . S
C1144 C1145 1.502 . S
C1144 C1146 1.561 . S
C1144 C1147 1.526 . S
C1145 H1129 0.959 . S
C1145 H1130 0.959 . S
C1145 H1131 0.961 . S
C1145 C1144 1.502 . S
C1146 H1132 0.960 . S
C1146 H1133 0.961 . S
C1146 H1134 0.959 . S
C1146 C1144 1.561 . S
C1147 C1144 1.526 . S
C1147 C1148 1.396 . S
C1147 C1152 1.390 . S
C1148 C1142 1.465 . S
C1148 C1147 1.396 . S
C1148 C1149 1.399 . S
C1149 H1135 0.929 . S
C1149 C1148 1.399 . S
C1149 C1150 1.385 . S
C1150 H1136 0.931 . S
C1150 C1149 1.385 . S
C1150 C1151 1.389 . S
C1151 C1150 1.389 . S
C1151 C1152 1.387 . S
C1152 H1137 0.930 . S
C1152 C1147 1.390 . S
C1152 C1151 1.387 . S
H1153 C1165 0.930 . S
H1154 C1167 0.930 . S
H1155 C1168 0.930 . S
H1156 C1172 0.959 . S
H1157 C1172 0.959 . S
H1158 C1172 0.961 . S
H1159 C1173 0.960 . S
H1160 C1173 0.961 . S
H1161 C1173 0.959 . S
H1162 C1176 0.929 . S
H1163 C1177 0.931 . S
H1164 C1179 0.930 . S
C1165 H1153 0.930 . S
C1165 C1166 1.399 . S
C1165 C1170 1.399 . S
C1166 C1165 1.399 . S
C1166 C1167 1.376 . S
C1167 H1154 0.930 . S
C1167 C1166 1.376 . S
C1167 C1168 1.388 . S
C1168 H1155 0.930 . S
C1168 C1167 1.388 . S
C1168 C1169 1.390 . S
C1169 C1168 1.390 . S
C1169 C1170 1.394 . S
C1169 C1175 1.465 . S
C1170 C1165 1.399 . S
C1170 C1169 1.394 . S
C1170 C1171 1.516 . S
C1171 C1170 1.516 . S
C1171 C1172 1.502 . S
C1171 C1173 1.561 . S
C1171 C1174 1.526 . S
C1172 H1156 0.959 . S
C1172 H1157 0.959 . S
C1172 H1158 0.961 . S
C1172 C1171 1.502 . S
C1173 H1159 0.960 . S
C1173 H1160 0.961 . S
C1173 H1161 0.959 . S
C1173 C1171 1.561 . S
C1174 C1171 1.526 . S
C1174 C1175 1.396 . S
C1174 C1179 1.390 . S
C1175 C1169 1.465 . S
C1175 C1174 1.396 . S
C1175 C1176 1.399 . S
C1176 H1162 0.929 . S
C1176 C1175 1.399 . S
C1176 C1177 1.385 . S
C1177 H1163 0.931 . S
C1177 C1176 1.385 . S
C1177 C1178 1.389 . S
C1178 C1177 1.389 . S
C1178 C1179 1.387 . S
C1179 H1164 0.930 . S
C1179 C1174 1.390 . S
C1179 C1178 1.387 . S
H1180 C1192 0.930 . S
H1181 C1194 0.930 . S
H1182 C1195 0.930 . S
H1183 C1199 0.959 . S
H1184 C1199 0.959 . S
H1185 C1199 0.961 . S
H1186 C1200 0.960 . S
H1187 C1200 0.961 . S
H1188 C1200 0.959 . S
H1189 C1203 0.929 . S
H1190 C1204 0.931 . S
H1191 C1206 0.930 . S
C1192 H1180 0.930 . S
C1192 C1193 1.399 . S
C1192 C1197 1.399 . S
C1193 C1192 1.399 . S
C1193 C1194 1.376 . S
C1194 H1181 0.930 . S
C1194 C1193 1.376 . S
C1194 C1195 1.388 . S
C1195 H1182 0.930 . S
C1195 C1194 1.388 . S
C1195 C1196 1.390 . S
C1196 C1195 1.390 . S
C1196 C1197 1.394 . S
C1196 C1202 1.465 . S
C1197 C1192 1.399 . S
C1197 C1196 1.394 . S
C1197 C1198 1.516 . S
C1198 C1197 1.516 . S
C1198 C1199 1.502 . S
C1198 C1200 1.561 . S
C1198 C1201 1.526 . S
C1199 H1183 0.959 . S
C1199 H1184 0.959 . S
C1199 H1185 0.961 . S
C1199 C1198 1.502 . S
C1200 H1186 0.960 . S
C1200 H1187 0.961 . S
C1200 H1188 0.959 . S
C1200 C1198 1.561 . S
C1201 C1198 1.526 . S
C1201 C1202 1.396 . S
C1201 C1206 1.390 . S
C1202 C1196 1.465 . S
C1202 C1201 1.396 . S
C1202 C1203 1.399 . S
C1203 H1189 0.929 . S
C1203 C1202 1.399 . S
C1203 C1204 1.385 . S
C1204 H1190 0.931 . S
C1204 C1203 1.385 . S
C1204 C1205 1.389 . S
C1205 C1204 1.389 . S
C1205 C1206 1.387 . S
C1206 H1191 0.930 . S
C1206 C1201 1.390 . S
C1206 C1205 1.387 . S
H1207 C1219 0.930 . S
H1208 C1221 0.930 . S
H1209 C1222 0.930 . S
H1210 C1226 0.959 . S
H1211 C1226 0.959 . S
H1212 C1226 0.961 . S
H1213 C1227 0.960 . S
H1214 C1227 0.961 . S
H1215 C1227 0.959 . S
H1216 C1230 0.929 . S
H1217 C1231 0.931 . S
H1218 C1233 0.930 . S
C1219 H1207 0.930 . S
C1219 C1220 1.399 . S
C1219 C1224 1.399 . S
C1220 C1219 1.399 . S
C1220 C1221 1.376 . S
C1221 H1208 0.930 . S
C1221 C1220 1.376 . S
C1221 C1222 1.388 . S
C1222 H1209 0.930 . S
C1222 C1221 1.388 . S
C1222 C1223 1.390 . S
C1223 C1222 1.390 . S
C1223 C1224 1.394 . S
C1223 C1229 1.465 . S
C1224 C1219 1.399 . S
C1224 C1223 1.394 . S
C1224 C1225 1.516 . S
C1225 C1224 1.516 . S
C1225 C1226 1.502 . S
C1225 C1227 1.561 . S
C1225 C1228 1.526 . S
C1226 H1210 0.959 . S
C1226 H1211 0.959 . S
C1226 H1212 0.961 . S
C1226 C1225 1.502 . S
C1227 H1213 0.960 . S
C1227 H1214 0.961 . S
C1227 H1215 0.959 . S
C1227 C1225 1.561 . S
C1228 C1225 1.526 . S
C1228 C1229 1.396 . S
C1228 C1233 1.390 . S
C1229 C1223 1.465 . S
C1229 C1228 1.396 . S
C1229 C1230 1.399 . S
C1230 H1216 0.929 . S
C1230 C1229 1.399 . S
C1230 C1231 1.385 . S
C1231 H1217 0.931 . S
C1231 C1230 1.385 . S
C1231 C1232 1.389 . S
C1232 C1231 1.389 . S
C1232 C1233 1.387 . S
C1233 H1218 0.930 . S
C1233 C1228 1.390 . S
C1233 C1232 1.387 . S
H1234 C1246 0.930 . S
H1235 C1248 0.930 . S
H1236 C1249 0.930 . S
H1237 C1253 0.959 . S
H1238 C1253 0.959 . S
H1239 C1253 0.961 . S
H1240 C1254 0.960 . S
H1241 C1254 0.961 . S
H1242 C1254 0.959 . S
H1243 C1257 0.929 . S
H1244 C1258 0.931 . S
H1245 C1260 0.930 . S
C1246 H1234 0.930 . S
C1246 C1247 1.399 . S
C1246 C1251 1.399 . S
C1247 C1246 1.399 . S
C1247 C1248 1.376 . S
C1248 H1235 0.930 . S
C1248 C1247 1.376 . S
C1248 C1249 1.388 . S
C1249 H1236 0.930 . S
C1249 C1248 1.388 . S
C1249 C1250 1.390 . S
C1250 C1249 1.390 . S
C1250 C1251 1.394 . S
C1250 C1256 1.465 . S
C1251 C1246 1.399 . S
C1251 C1250 1.394 . S
C1251 C1252 1.516 . S
C1252 C1251 1.516 . S
C1252 C1253 1.502 . S
C1252 C1254 1.561 . S
C1252 C1255 1.526 . S
C1253 H1237 0.959 . S
C1253 H1238 0.959 . S
C1253 H1239 0.961 . S
C1253 C1252 1.502 . S
C1254 H1240 0.960 . S
C1254 H1241 0.961 . S
C1254 H1242 0.959 . S
C1254 C1252 1.561 . S
C1255 C1252 1.526 . S
C1255 C1256 1.396 . S
C1255 C1260 1.390 . S
C1256 C1250 1.465 . S
C1256 C1255 1.396 . S
C1256 C1257 1.399 . S
C1257 H1243 0.929 . S
C1257 C1256 1.399 . S
C1257 C1258 1.385 . S
C1258 H1244 0.931 . S
C1258 C1257 1.385 . S
C1258 C1259 1.389 . S
C1259 C1258 1.389 . S
C1259 C1260 1.387 . S
C1260 H1245 0.930 . S
C1260 C1255 1.390 . S
C1260 C1259 1.387 . S
H1261 C1273 0.930 . S
H1262 C1275 0.930 . S
H1263 C1276 0.930 . S
H1264 C1280 0.959 . S
H1265 C1280 0.959 . S
H1266 C1280 0.961 . S
H1267 C1281 0.960 . S
H1268 C1281 0.961 . S
H1269 C1281 0.959 . S
H1270 C1284 0.929 . S
H1271 C1285 0.931 . S
H1272 C1287 0.930 . S
C1273 H1261 0.930 . S
C1273 C1274 1.399 . S
C1273 C1278 1.399 . S
C1274 C1273 1.399 . S
C1274 C1275 1.376 . S
C1275 H1262 0.930 . S
C1275 C1274 1.376 . S
C1275 C1276 1.388 . S
C1276 H1263 0.930 . S
C1276 C1275 1.388 . S
C1276 C1277 1.390 . S
C1277 C1276 1.390 . S
C1277 C1278 1.394 . S
C1277 C1283 1.465 . S
C1278 C1273 1.399 . S
C1278 C1277 1.394 . S
C1278 C1279 1.516 . S
C1279 C1278 1.516 . S
C1279 C1280 1.502 . S
C1279 C1281 1.561 . S
C1279 C1282 1.526 . S
C1280 H1264 0.959 . S
C1280 H1265 0.959 . S
C1280 H1266 0.961 . S
C1280 C1279 1.502 . S
C1281 H1267 0.960 . S
C1281 H1268 0.961 . S
C1281 H1269 0.959 . S
C1281 C1279 1.561 . S
C1282 C1279 1.526 . S
C1282 C1283 1.396 . S
C1282 C1287 1.390 . S
C1283 C1277 1.465 . S
C1283 C1282 1.396 . S
C1283 C1284 1.399 . S
C1284 H1270 0.929 . S
C1284 C1283 1.399 . S
C1284 C1285 1.385 . S
C1285 H1271 0.931 . S
C1285 C1284 1.385 . S
C1285 C1286 1.389 . S
C1286 C1285 1.389 . S
C1286 C1287 1.387 . S
C1287 H1272 0.930 . S
C1287 C1282 1.390 . S
C1287 C1286 1.387 . S
H1288 C1300 0.930 . S
H1289 C1302 0.930 . S
H1290 C1303 0.930 . S
H1291 C1307 0.959 . S
H1292 C1307 0.959 . S
H1293 C1307 0.961 . S
H1294 C1308 0.960 . S
H1295 C1308 0.961 . S
H1296 C1308 0.959 . S
H1297 C1311 0.929 . S
H1298 C1312 0.931 . S
H1299 C1314 0.930 . S
C1300 H1288 0.930 . S
C1300 C1301 1.399 . S
C1300 C1305 1.399 . S
C1301 C1300 1.399 . S
C1301 C1302 1.376 . S
C1302 H1289 0.930 . S
C1302 C1301 1.376 . S
C1302 C1303 1.388 . S
C1303 H1290 0.930 . S
C1303 C1302 1.388 . S
C1303 C1304 1.390 . S
C1304 C1303 1.390 . S
C1304 C1305 1.394 . S
C1304 C1310 1.465 . S
C1305 C1300 1.399 . S
C1305 C1304 1.394 . S
C1305 C1306 1.516 . S
C1306 C1305 1.516 . S
C1306 C1307 1.502 . S
C1306 C1308 1.561 . S
C1306 C1309 1.526 . S
C1307 H1291 0.959 . S
C1307 H1292 0.959 . S
C1307 H1293 0.961 . S
C1307 C1306 1.502 . S
C1308 H1294 0.960 . S
C1308 H1295 0.961 . S
C1308 H1296 0.959 . S
C1308 C1306 1.561 . S
C1309 C1306 1.526 . S
C1309 C1310 1.396 . S
C1309 C1314 1.390 . S
C1310 C1304 1.465 . S
C1310 C1309 1.396 . S
C1310 C1311 1.399 . S
C1311 H1297 0.929 . S
C1311 C1310 1.399 . S
C1311 C1312 1.385 . S
C1312 H1298 0.931 . S
C1312 C1311 1.385 . S
C1312 C1313 1.389 . S
C1313 C1312 1.389 . S
C1313 C1314 1.387 . S
C1314 H1299 0.930 . S
C1314 C1309 1.390 . S
C1314 C1313 1.387 . S
H1315 C1327 0.930 . S
H1316 C1329 0.930 . S
H1317 C1330 0.930 . S
H1318 C1334 0.959 . S
H1319 C1334 0.959 . S
H1320 C1334 0.961 . S
H1321 C1335 0.960 . S
H1322 C1335 0.961 . S
H1323 C1335 0.959 . S
H1324 C1338 0.929 . S
H1325 C1339 0.931 . S
H1326 C1341 0.930 . S
C1327 H1315 0.930 . S
C1327 C1328 1.399 . S
C1327 C1332 1.399 . S
C1328 C1327 1.399 . S
C1328 C1329 1.376 . S
C1329 H1316 0.930 . S
C1329 C1328 1.376 . S
C1329 C1330 1.388 . S
C1330 H1317 0.930 . S
C1330 C1329 1.388 . S
C1330 C1331 1.390 . S
C1331 C1330 1.390 . S
C1331 C1332 1.394 . S
C1331 C1337 1.465 . S
C1332 C1327 1.399 . S
C1332 C1331 1.394 . S
C1332 C1333 1.516 . S
C1333 C1332 1.516 . S
C1333 C1334 1.502 . S
C1333 C1335 1.561 . S
C1333 C1336 1.526 . S
C1334 H1318 0.959 . S
C1334 H1319 0.959 . S
C1334 H1320 0.961 . S
C1334 C1333 1.502 . S
C1335 H1321 0.960 . S
C1335 H1322 0.961 . S
C1335 H1323 0.959 . S
C1335 C1333 1.561 . S
C1336 C1333 1.526 . S
C1336 C1337 1.396 . S
C1336 C1341 1.390 . S
C1337 C1331 1.465 . S
C1337 C1336 1.396 . S
C1337 C1338 1.399 . S
C1338 H1324 0.929 . S
C1338 C1337 1.399 . S
C1338 C1339 1.385 . S
C1339 H1325 0.931 . S
C1339 C1338 1.385 . S
C1339 C1340 1.389 . S
C1340 C1339 1.389 . S
C1340 C1341 1.387 . S
C1341 H1326 0.930 . S
C1341 C1336 1.390 . S
C1341 C1340 1.387 . S
H1342 C1354 0.930 . S
H1343 C1356 0.930 . S
H1344 C1357 0.930 . S
H1345 C1361 0.959 . S
H1346 C1361 0.959 . S
H1347 C1361 0.961 . S
H1348 C1362 0.960 . S
H1349 C1362 0.961 . S
H1350 C1362 0.959 . S
H1351 C1365 0.929 . S
H1352 C1366 0.931 . S
H1353 C1368 0.930 . S
C1354 H1342 0.930 . S
C1354 C1355 1.399 . S
C1354 C1359 1.399 . S
C1355 C1354 1.399 . S
C1355 C1356 1.376 . S
C1356 H1343 0.930 . S
C1356 C1355 1.376 . S
C1356 C1357 1.388 . S
C1357 H1344 0.930 . S
C1357 C1356 1.388 . S
C1357 C1358 1.390 . S
C1358 C1357 1.390 . S
C1358 C1359 1.394 . S
C1358 C1364 1.465 . S
C1359 C1354 1.399 . S
C1359 C1358 1.394 . S
C1359 C1360 1.516 . S
C1360 C1359 1.516 . S
C1360 C1361 1.502 . S
C1360 C1362 1.561 . S
C1360 C1363 1.526 . S
C1361 H1345 0.959 . S
C1361 H1346 0.959 . S
C1361 H1347 0.961 . S
C1361 C1360 1.502 . S
C1362 H1348 0.960 . S
C1362 H1349 0.961 . S
C1362 H1350 0.959 . S
C1362 C1360 1.561 . S
C1363 C1360 1.526 . S
C1363 C1364 1.396 . S
C1363 C1368 1.390 . S
C1364 C1358 1.465 . S
C1364 C1363 1.396 . S
C1364 C1365 1.399 . S
C1365 H1351 0.929 . S
C1365 C1364 1.399 . S
C1365 C1366 1.385 . S
C1366 H1352 0.931 . S
C1366 C1365 1.385 . S
C1366 C1367 1.389 . S
C1367 C1366 1.389 . S
C1367 C1368 1.387 . S
C1368 H1353 0.930 . S
C1368 C1363 1.390 . S
C1368 C1367 1.387 . S
H1369 C1381 0.930 . S
H1370 C1383 0.930 . S
H1371 C1384 0.930 . S
H1372 C1388 0.959 . S
H1373 C1388 0.959 . S
H1374 C1388 0.961 . S
H1375 C1389 0.960 . S
H1376 C1389 0.961 . S
H1377 C1389 0.959 . S
H1378 C1392 0.929 . S
H1379 C1393 0.931 . S
H1380 C1395 0.930 . S
C1381 H1369 0.930 . S
C1381 C1382 1.399 . S
C1381 C1386 1.399 . S
C1382 C1381 1.399 . S
C1382 C1383 1.376 . S
C1383 H1370 0.930 . S
C1383 C1382 1.376 . S
C1383 C1384 1.388 . S
C1384 H1371 0.930 . S
C1384 C1383 1.388 . S
C1384 C1385 1.390 . S
C1385 C1384 1.390 . S
C1385 C1386 1.394 . S
C1385 C1391 1.465 . S
C1386 C1381 1.399 . S
C1386 C1385 1.394 . S
C1386 C1387 1.516 . S
C1387 C1386 1.516 . S
C1387 C1388 1.502 . S
C1387 C1389 1.561 . S
C1387 C1390 1.526 . S
C1388 H1372 0.959 . S
C1388 H1373 0.959 . S
C1388 H1374 0.961 . S
C1388 C1387 1.502 . S
C1389 H1375 0.960 . S
C1389 H1376 0.961 . S
C1389 H1377 0.959 . S
C1389 C1387 1.561 . S
C1390 C1387 1.526 . S
C1390 C1391 1.396 . S
C1390 C1395 1.390 . S
C1391 C1385 1.465 . S
C1391 C1390 1.396 . S
C1391 C1392 1.399 . S
C1392 H1378 0.929 . S
C1392 C1391 1.399 . S
C1392 C1393 1.385 . S
C1393 H1379 0.931 . S
C1393 C1392 1.385 . S
C1393 C1394 1.389 . S
C1394 C1393 1.389 . S
C1394 C1395 1.387 . S
C1395 H1380 0.930 . S
C1395 C1390 1.390 . S
C1395 C1394 1.387 . S
H1396 C1408 0.930 . S
H1397 C1410 0.930 . S
H1398 C1411 0.930 . S
H1399 C1415 0.959 . S
H1400 C1415 0.959 . S
H1401 C1415 0.961 . S
H1402 C1416 0.960 . S
H1403 C1416 0.961 . S
H1404 C1416 0.959 . S
H1405 C1419 0.929 . S
H1406 C1420 0.931 . S
H1407 C1422 0.930 . S
C1408 H1396 0.930 . S
C1408 C1409 1.399 . S
C1408 C1413 1.399 . S
C1409 C1408 1.399 . S
C1409 C1410 1.376 . S
C1410 H1397 0.930 . S
C1410 C1409 1.376 . S
C1410 C1411 1.388 . S
C1411 H1398 0.930 . S
C1411 C1410 1.388 . S
C1411 C1412 1.390 . S
C1412 C1411 1.390 . S
C1412 C1413 1.394 . S
C1412 C1418 1.465 . S
C1413 C1408 1.399 . S
C1413 C1412 1.394 . S
C1413 C1414 1.516 . S
C1414 C1413 1.516 . S
C1414 C1415 1.502 . S
C1414 C1416 1.561 . S
C1414 C1417 1.526 . S
C1415 H1399 0.959 . S
C1415 H1400 0.959 . S
C1415 H1401 0.961 . S
C1415 C1414 1.502 . S
C1416 H1402 0.960 . S
C1416 H1403 0.961 . S
C1416 H1404 0.959 . S
C1416 C1414 1.561 . S
C1417 C1414 1.526 . S
C1417 C1418 1.396 . S
C1417 C1422 1.390 . S
C1418 C1412 1.465 . S
C1418 C1417 1.396 . S
C1418 C1419 1.399 . S
C1419 H1405 0.929 . S
C1419 C1418 1.399 . S
C1419 C1420 1.385 . S
C1420 H1406 0.931 . S
C1420 C1419 1.385 . S
C1420 C1421 1.389 . S
C1421 C1420 1.389 . S
C1421 C1422 1.387 . S
C1422 H1407 0.930 . S
C1422 C1417 1.390 . S
C1422 C1421 1.387 . S
H1423 C1435 0.930 . S
H1424 C1437 0.930 . S
H1425 C1438 0.930 . S
H1426 C1442 0.959 . S
H1427 C1442 0.959 . S
H1428 C1442 0.961 . S
H1429 C1443 0.960 . S
H1430 C1443 0.961 . S
H1431 C1443 0.959 . S
H1432 C1446 0.929 . S
H1433 C1447 0.931 . S
H1434 C1449 0.930 . S
C1435 H1423 0.930 . S
C1435 C1436 1.399 . S
C1435 C1440 1.399 . S
C1436 C1435 1.399 . S
C1436 C1437 1.376 . S
C1437 H1424 0.930 . S
C1437 C1436 1.376 . S
C1437 C1438 1.388 . S
C1438 H1425 0.930 . S
C1438 C1437 1.388 . S
C1438 C1439 1.390 . S
C1439 C1438 1.390 . S
C1439 C1440 1.394 . S
C1439 C1445 1.465 . S
C1440 C1435 1.399 . S
C1440 C1439 1.394 . S
C1440 C1441 1.516 . S
C1441 C1440 1.516 . S
C1441 C1442 1.502 . S
C1441 C1443 1.561 . S
C1441 C1444 1.526 . S
C1442 H1426 0.959 . S
C1442 H1427 0.959 . S
C1442 H1428 0.961 . S
C1442 C1441 1.502 . S
C1443 H1429 0.960 . S
C1443 H1430 0.961 . S
C1443 H1431 0.959 . S
C1443 C1441 1.561 . S
C1444 C1441 1.526 . S
C1444 C1445 1.396 . S
C1444 C1449 1.390 . S
C1445 C1439 1.465 . S
C1445 C1444 1.396 . S
C1445 C1446 1.399 . S
C1446 H1432 0.929 . S
C1446 C1445 1.399 . S
C1446 C1447 1.385 . S
C1447 H1433 0.931 . S
C1447 C1446 1.385 . S
C1447 C1448 1.389 . S
C1448 C1447 1.389 . S
C1448 C1449 1.387 . S
C1449 H1434 0.930 . S
C1449 C1444 1.390 . S
C1449 C1448 1.387 . S
H1450 C1462 0.930 . S
H1451 C1464 0.930 . S
H1452 C1465 0.930 . S
H1453 C1469 0.959 . S
H1454 C1469 0.959 . S
H1455 C1469 0.961 . S
H1456 C1470 0.960 . S
H1457 C1470 0.961 . S
H1458 C1470 0.959 . S
H1459 C1473 0.929 . S
H1460 C1474 0.931 . S
H1461 C1476 0.930 . S
C1462 H1450 0.930 . S
C1462 C1463 1.399 . S
C1462 C1467 1.399 . S
C1463 C1462 1.399 . S
C1463 C1464 1.376 . S
C1464 H1451 0.930 . S
C1464 C1463 1.376 . S
C1464 C1465 1.388 . S
C1465 H1452 0.930 . S
C1465 C1464 1.388 . S
C1465 C1466 1.390 . S
C1466 C1465 1.390 . S
C1466 C1467 1.394 . S
C1466 C1472 1.465 . S
C1467 C1462 1.399 . S
C1467 C1466 1.394 . S
C1467 C1468 1.516 . S
C1468 C1467 1.516 . S
C1468 C1469 1.502 . S
C1468 C1470 1.561 . S
C1468 C1471 1.526 . S
C1469 H1453 0.959 . S
C1469 H1454 0.959 . S
C1469 H1455 0.961 . S
C1469 C1468 1.502 . S
C1470 H1456 0.960 . S
C1470 H1457 0.961 . S
C1470 H1458 0.959 . S
C1470 C1468 1.561 . S
C1471 C1468 1.526 . S
C1471 C1472 1.396 . S
C1471 C1476 1.390 . S
C1472 C1466 1.465 . S
C1472 C1471 1.396 . S
C1472 C1473 1.399 . S
C1473 H1459 0.929 . S
C1473 C1472 1.399 . S
C1473 C1474 1.385 . S
C1474 H1460 0.931 . S
C1474 C1473 1.385 . S
C1474 C1475 1.389 . S
C1475 C1474 1.389 . S
C1475 C1476 1.387 . S
C1476 H1461 0.930 . S
C1476 C1471 1.390 . S
C1476 C1475 1.387 . S
H1477 C1489 0.930 . S
H1478 C1491 0.930 . S
H1479 C1492 0.930 . S
H1480 C1496 0.959 . S
H1481 C1496 0.959 . S
H1482 C1496 0.961 . S
H1483 C1497 0.960 . S
H1484 C1497 0.961 . S
H1485 C1497 0.959 . S
H1486 C1500 0.929 . S
H1487 C1501 0.931 . S
H1488 C1503 0.930 . S
C1489 H1477 0.930 . S
C1489 C1490 1.399 . S
C1489 C1494 1.399 . S
C1490 C1489 1.399 . S
C1490 C1491 1.376 . S
C1491 H1478 0.930 . S
C1491 C1490 1.376 . S
C1491 C1492 1.388 . S
C1492 H1479 0.930 . S
C1492 C1491 1.388 . S
C1492 C1493 1.390 . S
C1493 C1492 1.390 . S
C1493 C1494 1.394 . S
C1493 C1499 1.465 . S
C1494 C1489 1.399 . S
C1494 C1493 1.394 . S
C1494 C1495 1.516 . S
C1495 C1494 1.516 . S
C1495 C1496 1.502 . S
C1495 C1497 1.561 . S
C1495 C1498 1.526 . S
C1496 H1480 0.959 . S
C1496 H1481 0.959 . S
C1496 H1482 0.961 . S
C1496 C1495 1.502 . S
C1497 H1483 0.960 . S
C1497 H1484 0.961 . S
C1497 H1485 0.959 . S
C1497 C1495 1.561 . S
C1498 C1495 1.526 . S
C1498 C1499 1.396 . S
C1498 C1503 1.390 . S
C1499 C1493 1.465 . S
C1499 C1498 1.396 . S
C1499 C1500 1.399 . S
C1500 H1486 0.929 . S
C1500 C1499 1.399 . S
C1500 C1501 1.385 . S
C1501 H1487 0.931 . S
C1501 C1500 1.385 . S
C1501 C1502 1.389 . S
C1502 C1501 1.389 . S
C1502 C1503 1.387 . S
C1503 H1488 0.930 . S
C1503 C1498 1.390 . S
C1503 C1502 1.387 . S
H1504 C1516 0.930 . S
H1505 C1518 0.930 . S
H1506 C1519 0.930 . S
H1507 C1523 0.959 . S
H1508 C1523 0.959 . S
H1509 C1523 0.961 . S
H1510 C1524 0.960 . S
H1511 C1524 0.961 . S
H1512 C1524 0.959 . S
H1513 C1527 0.929 . S
H1514 C1528 0.931 . S
H1515 C1530 0.930 . S
C1516 H1504 0.930 . S
C1516 C1517 1.399 . S
C1516 C1521 1.399 . S
C1517 C1516 1.399 . S
C1517 C1518 1.376 . S
C1518 H1505 0.930 . S
C1518 C1517 1.376 . S
C1518 C1519 1.388 . S
C1519 H1506 0.930 . S
C1519 C1518 1.388 . S
C1519 C1520 1.390 . S
C1520 C1519 1.390 . S
C1520 C1521 1.394 . S
C1520 C1526 1.465 . S
C1521 C1516 1.399 . S
C1521 C1520 1.394 . S
C1521 C1522 1.516 . S
C1522 C1521 1.516 . S
C1522 C1523 1.502 . S
C1522 C1524 1.561 . S
C1522 C1525 1.526 . S
C1523 H1507 0.959 . S
C1523 H1508 0.959 . S
C1523 H1509 0.961 . S
C1523 C1522 1.502 . S
C1524 H1510 0.960 . S
C1524 H1511 0.961 . S
C1524 H1512 0.959 . S
C1524 C1522 1.561 . S
C1525 C1522 1.526 . S
C1525 C1526 1.396 . S
C1525 C1530 1.390 . S
C1526 C1520 1.465 . S
C1526 C1525 1.396 . S
C1526 C1527 1.399 . S
C1527 H1513 0.929 . S
C1527 C1526 1.399 . S
C1527 C1528 1.385 . S
C1528 H1514 0.931 . S
C1528 C1527 1.385 . S
C1528 C1529 1.389 . S
C1529 C1528 1.389 . S
C1529 C1530 1.387 . S
C1530 H1515 0.930 . S
C1530 C1525 1.390 . S
C1530 C1529 1.387 . S
H1531 C1543 0.930 . S
H1532 C1545 0.930 . S
H1533 C1546 0.930 . S
H1534 C1550 0.959 . S
H1535 C1550 0.959 . S
H1536 C1550 0.961 . S
H1537 C1551 0.960 . S
H1538 C1551 0.961 . S
H1539 C1551 0.959 . S
H1540 C1554 0.929 . S
H1541 C1555 0.931 . S
H1542 C1557 0.930 . S
C1543 H1531 0.930 . S
C1543 C1544 1.399 . S
C1543 C1548 1.399 . S
C1544 C1543 1.399 . S
C1544 C1545 1.376 . S
C1545 H1532 0.930 . S
C1545 C1544 1.376 . S
C1545 C1546 1.388 . S
C1546 H1533 0.930 . S
C1546 C1545 1.388 . S
C1546 C1547 1.390 . S
C1547 C1546 1.390 . S
C1547 C1548 1.394 . S
C1547 C1553 1.465 . S
C1548 C1543 1.399 . S
C1548 C1547 1.394 . S
C1548 C1549 1.516 . S
C1549 C1548 1.516 . S
C1549 C1550 1.502 . S
C1549 C1551 1.561 . S
C1549 C1552 1.526 . S
C1550 H1534 0.959 . S
C1550 H1535 0.959 . S
C1550 H1536 0.961 . S
C1550 C1549 1.502 . S
C1551 H1537 0.960 . S
C1551 H1538 0.961 . S
C1551 H1539 0.959 . S
C1551 C1549 1.561 . S
C1552 C1549 1.526 . S
C1552 C1553 1.396 . S
C1552 C1557 1.390 . S
C1553 C1547 1.465 . S
C1553 C1552 1.396 . S
C1553 C1554 1.399 . S
C1554 H1540 0.929 . S
C1554 C1553 1.399 . S
C1554 C1555 1.385 . S
C1555 H1541 0.931 . S
C1555 C1554 1.385 . S
C1555 C1556 1.389 . S
C1556 C1555 1.389 . S
C1556 C1557 1.387 . S
C1557 H1542 0.930 . S
C1557 C1552 1.390 . S
C1557 C1556 1.387 . S
H1558 C1570 0.930 . S
H1559 C1572 0.930 . S
H1560 C1573 0.930 . S
H1561 C1577 0.959 . S
H1562 C1577 0.959 . S
H1563 C1577 0.961 . S
H1564 C1578 0.960 . S
H1565 C1578 0.961 . S
H1566 C1578 0.959 . S
H1567 C1581 0.929 . S
H1568 C1582 0.931 . S
H1569 C1584 0.930 . S
C1570 H1558 0.930 . S
C1570 C1571 1.399 . S
C1570 C1575 1.399 . S
C1571 C1570 1.399 . S
C1571 C1572 1.376 . S
C1572 H1559 0.930 . S
C1572 C1571 1.376 . S
C1572 C1573 1.388 . S
C1573 H1560 0.930 . S
C1573 C1572 1.388 . S
C1573 C1574 1.390 . S
C1574 C1573 1.390 . S
C1574 C1575 1.394 . S
C1574 C1580 1.465 . S
C1575 C1570 1.399 . S
C1575 C1574 1.394 . S
C1575 C1576 1.516 . S
C1576 C1575 1.516 . S
C1576 C1577 1.502 . S
C1576 C1578 1.561 . S
C1576 C1579 1.526 . S
C1577 H1561 0.959 . S
C1577 H1562 0.959 . S
C1577 H1563 0.961 . S
C1577 C1576 1.502 . S
C1578 H1564 0.960 . S
C1578 H1565 0.961 . S
C1578 H1566 0.959 . S
C1578 C1576 1.561 . S
C1579 C1576 1.526 . S
C1579 C1580 1.396 . S
C1579 C1584 1.390 . S
C1580 C1574 1.465 . S
C1580 C1579 1.396 . S
C1580 C1581 1.399 . S
C1581 H1567 0.929 . S
C1581 C1580 1.399 . S
C1581 C1582 1.385 . S
C1582 H1568 0.931 . S
C1582 C1581 1.385 . S
C1582 C1583 1.389 . S
C1583 C1582 1.389 . S
C1583 C1584 1.387 . S
C1584 H1569 0.930 . S
C1584 C1579 1.390 . S
C1584 C1583 1.387 . S
H1585 C1597 0.930 . S
H1586 C1599 0.930 1_545 S
H1587 C1600 0.930 . S
H1588 C1604 0.959 . S
H1589 C1604 0.959 . S
H1590 C1604 0.961 . S
H1591 C1605 0.960 . S
H1592 C1605 0.961 . S
H1593 C1605 0.959 . S
H1594 C1608 0.929 . S
H1595 C1609 0.931 . S
H1596 C1611 0.930 . S
C1597 H1585 0.930 . S
C1597 C1598 1.399 . S
C1597 C1602 1.399 . S
C1598 C1597 1.399 . S
C1598 C1599 1.376 . S
C1599 H1586 0.930 1_565 S
C1599 C1598 1.376 . S
C1599 C1600 1.388 . S
C1600 H1587 0.930 . S
C1600 C1599 1.388 . S
C1600 C1601 1.390 . S
C1601 C1600 1.390 . S
C1601 C1602 1.394 . S
C1601 C1607 1.465 . S
C1602 C1597 1.399 . S
C1602 C1601 1.394 . S
C1602 C1603 1.516 . S
C1603 C1602 1.516 . S
C1603 C1604 1.502 . S
C1603 C1605 1.561 . S
C1603 C1606 1.526 . S
C1604 H1588 0.959 . S
C1604 H1589 0.959 . S
C1604 H1590 0.961 . S
C1604 C1603 1.502 . S
C1605 H1591 0.960 . S
C1605 H1592 0.961 . S
C1605 H1593 0.959 . S
C1605 C1603 1.561 . S
C1606 C1603 1.526 . S
C1606 C1607 1.396 . S
C1606 C1611 1.390 . S
C1607 C1601 1.465 . S
C1607 C1606 1.396 . S
C1607 C1608 1.399 . S
C1608 H1594 0.929 . S
C1608 C1607 1.399 . S
C1608 C1609 1.385 . S
C1609 H1595 0.931 . S
C1609 C1608 1.385 . S
C1609 C1610 1.389 . S
C1610 C1609 1.389 . S
C1610 C1611 1.387 . S
C1611 H1596 0.930 . S
C1611 C1606 1.390 . S
C1611 C1610 1.387 . S
H1612 C1624 0.930 . S
H1613 C1626 0.930 . S
H1614 C1627 0.930 . S
H1615 C1631 0.959 . S
H1616 C1631 0.959 . S
H1617 C1631 0.961 . S
H1618 C1632 0.960 . S
H1619 C1632 0.961 . S
H1620 C1632 0.959 . S
H1621 C1635 0.929 . S
H1622 C1636 0.931 . S
H1623 C1638 0.930 . S
C1624 H1612 0.930 . S
C1624 C1625 1.399 . S
C1624 C1629 1.399 . S
C1625 C1624 1.399 . S
C1625 C1626 1.376 . S
C1626 H1613 0.930 . S
C1626 C1625 1.376 . S
C1626 C1627 1.388 . S
C1627 H1614 0.930 . S
C1627 C1626 1.388 . S
C1627 C1628 1.390 . S
C1628 C1627 1.390 . S
C1628 C1629 1.394 . S
C1628 C1634 1.465 . S
C1629 C1624 1.399 . S
C1629 C1628 1.394 . S
C1629 C1630 1.516 . S
C1630 C1629 1.516 . S
C1630 C1631 1.502 . S
C1630 C1632 1.561 . S
C1630 C1633 1.526 . S
C1631 H1615 0.959 . S
C1631 H1616 0.959 . S
C1631 H1617 0.961 . S
C1631 C1630 1.502 . S
C1632 H1618 0.960 . S
C1632 H1619 0.961 . S
C1632 H1620 0.959 . S
C1632 C1630 1.561 . S
C1633 C1630 1.526 . S
C1633 C1634 1.396 . S
C1633 C1638 1.390 . S
C1634 C1628 1.465 . S
C1634 C1633 1.396 . S
C1634 C1635 1.399 . S
C1635 H1621 0.929 . S
C1635 C1634 1.399 . S
C1635 C1636 1.385 . S
C1636 H1622 0.931 . S
C1636 C1635 1.385 . S
C1636 C1637 1.389 . S
C1637 C1636 1.389 . S
C1637 C1638 1.387 . S
C1638 H1623 0.930 . S
C1638 C1633 1.390 . S
C1638 C1637 1.387 . S
H1639 C1651 0.930 . S
H1640 C1653 0.930 . S
H1641 C1654 0.930 . S
H1642 C1658 0.959 . S
H1643 C1658 0.959 . S
H1644 C1658 0.961 . S
H1645 C1659 0.960 . S
H1646 C1659 0.961 . S
H1647 C1659 0.959 . S
H1648 C1662 0.929 . S
H1649 C1663 0.931 . S
H1650 C1665 0.930 . S
C1651 H1639 0.930 . S
C1651 C1652 1.399 . S
C1651 C1656 1.399 . S
C1652 C1651 1.399 . S
C1652 C1653 1.376 . S
C1653 H1640 0.930 . S
C1653 C1652 1.376 . S
C1653 C1654 1.388 . S
C1654 H1641 0.930 . S
C1654 C1653 1.388 . S
C1654 C1655 1.390 . S
C1655 C1654 1.390 . S
C1655 C1656 1.394 . S
C1655 C1661 1.465 . S
C1656 C1651 1.399 . S
C1656 C1655 1.394 . S
C1656 C1657 1.516 . S
C1657 C1656 1.516 . S
C1657 C1658 1.502 . S
C1657 C1659 1.561 . S
C1657 C1660 1.526 . S
C1658 H1642 0.959 . S
C1658 H1643 0.959 . S
C1658 H1644 0.961 . S
C1658 C1657 1.502 . S
C1659 H1645 0.960 . S
C1659 H1646 0.961 . S
C1659 H1647 0.959 . S
C1659 C1657 1.561 . S
C1660 C1657 1.526 . S
C1660 C1661 1.396 . S
C1660 C1665 1.390 . S
C1661 C1655 1.465 . S
C1661 C1660 1.396 . S
C1661 C1662 1.399 . S
C1662 H1648 0.929 . S
C1662 C1661 1.399 . S
C1662 C1663 1.385 . S
C1663 H1649 0.931 . S
C1663 C1662 1.385 . S
C1663 C1664 1.389 . S
C1664 C1663 1.389 . S
C1664 C1665 1.387 . S
C1665 H1650 0.930 . S
C1665 C1660 1.390 . S
C1665 C1664 1.387 . S
H1666 C1678 0.930 . S
H1667 C1680 0.930 . S
H1668 C1681 0.930 . S
H1669 C1685 0.959 . S
H1670 C1685 0.959 . S
H1671 C1685 0.961 . S
H1672 C1686 0.960 . S
H1673 C1686 0.961 . S
H1674 C1686 0.959 . S
H1675 C1689 0.929 . S
H1676 C1690 0.931 . S
H1677 C1692 0.930 . S
C1678 H1666 0.930 . S
C1678 C1679 1.399 . S
C1678 C1683 1.399 . S
C1679 C1678 1.399 . S
C1679 C1680 1.376 . S
C1680 H1667 0.930 . S
C1680 C1679 1.376 . S
C1680 C1681 1.388 . S
C1681 H1668 0.930 . S
C1681 C1680 1.388 . S
C1681 C1682 1.390 . S
C1682 C1681 1.390 . S
C1682 C1683 1.394 . S
C1682 C1688 1.465 . S
C1683 C1678 1.399 . S
C1683 C1682 1.394 . S
C1683 C1684 1.516 . S
C1684 C1683 1.516 . S
C1684 C1685 1.502 . S
C1684 C1686 1.561 . S
C1684 C1687 1.526 . S
C1685 H1669 0.959 . S
C1685 H1670 0.959 . S
C1685 H1671 0.961 . S
C1685 C1684 1.502 . S
C1686 H1672 0.960 . S
C1686 H1673 0.961 . S
C1686 H1674 0.959 . S
C1686 C1684 1.561 . S
C1687 C1684 1.526 . S
C1687 C1688 1.396 . S
C1687 C1692 1.390 . S
C1688 C1682 1.465 . S
C1688 C1687 1.396 . S
C1688 C1689 1.399 . S
C1689 H1675 0.929 . S
C1689 C1688 1.399 . S
C1689 C1690 1.385 . S
C1690 H1676 0.931 . S
C1690 C1689 1.385 . S
C1690 C1691 1.389 . S
C1691 C1690 1.389 . S
C1691 C1692 1.387 . S
C1692 H1677 0.930 . S
C1692 C1687 1.390 . S
C1692 C1691 1.387 . S
H1693 C1705 0.930 . S
H1694 C1707 0.930 . S
H1695 C1708 0.930 . S
H1696 C1712 0.959 . S
H1697 C1712 0.959 . S
H1698 C1712 0.961 . S
H1699 C1713 0.960 . S
H1700 C1713 0.961 . S
H1701 C1713 0.959 . S
H1702 C1716 0.929 . S
H1703 C1717 0.931 . S
H1704 C1719 0.930 . S
C1705 H1693 0.930 . S
C1705 C1706 1.399 . S
C1705 C1710 1.399 . S
C1706 C1705 1.399 . S
C1706 C1707 1.376 . S
C1707 H1694 0.930 . S
C1707 C1706 1.376 . S
C1707 C1708 1.388 . S
C1708 H1695 0.930 . S
C1708 C1707 1.388 . S
C1708 C1709 1.390 . S
C1709 C1708 1.390 . S
C1709 C1710 1.394 . S
C1709 C1715 1.465 . S
C1710 C1705 1.399 . S
C1710 C1709 1.394 . S
C1710 C1711 1.516 . S
C1711 C1710 1.516 . S
C1711 C1712 1.502 . S
C1711 C1713 1.561 . S
C1711 C1714 1.526 . S
C1712 H1696 0.959 . S
C1712 H1697 0.959 . S
C1712 H1698 0.961 . S
C1712 C1711 1.502 . S
C1713 H1699 0.960 . S
C1713 H1700 0.961 . S
C1713 H1701 0.959 . S
C1713 C1711 1.561 . S
C1714 C1711 1.526 . S
C1714 C1715 1.396 . S
C1714 C1719 1.390 . S
C1715 C1709 1.465 . S
C1715 C1714 1.396 . S
C1715 C1716 1.399 . S
C1716 H1702 0.929 . S
C1716 C1715 1.399 . S
C1716 C1717 1.385 . S
C1717 H1703 0.931 . S
C1717 C1716 1.385 . S
C1717 C1718 1.389 . S
C1718 C1717 1.389 . S
C1718 C1719 1.387 . S
C1719 H1704 0.930 . S
C1719 C1714 1.390 . S
C1719 C1718 1.387 . S
H1720 C1732 0.930 . S
H1721 C1734 0.930 . S
H1722 C1735 0.930 . S
H1723 C1739 0.959 . S
H1724 C1739 0.959 . S
H1725 C1739 0.961 . S
H1726 C1740 0.960 . S
H1727 C1740 0.961 . S
H1728 C1740 0.959 . S
H1729 C1743 0.929 . S
H1730 C1744 0.931 . S
H1731 C1746 0.930 . S
C1732 H1720 0.930 . S
C1732 C1733 1.399 . S
C1732 C1737 1.399 . S
C1733 C1732 1.399 . S
C1733 C1734 1.376 . S
C1734 H1721 0.930 . S
C1734 C1733 1.376 . S
C1734 C1735 1.388 . S
C1735 H1722 0.930 . S
C1735 C1734 1.388 . S
C1735 C1736 1.390 . S
C1736 C1735 1.390 . S
C1736 C1737 1.394 . S
C1736 C1742 1.465 . S
C1737 C1732 1.399 . S
C1737 C1736 1.394 . S
C1737 C1738 1.516 . S
C1738 C1737 1.516 . S
C1738 C1739 1.502 . S
C1738 C1740 1.561 . S
C1738 C1741 1.526 . S
C1739 H1723 0.959 . S
C1739 H1724 0.959 . S
C1739 H1725 0.961 . S
C1739 C1738 1.502 . S
C1740 H1726 0.960 . S
C1740 H1727 0.961 . S
C1740 H1728 0.959 . S
C1740 C1738 1.561 . S
C1741 C1738 1.526 . S
C1741 C1742 1.396 . S
C1741 C1746 1.390 . S
C1742 C1736 1.465 . S
C1742 C1741 1.396 . S
C1742 C1743 1.399 . S
C1743 H1729 0.929 . S
C1743 C1742 1.399 . S
C1743 C1744 1.385 . S
C1744 H1730 0.931 . S
C1744 C1743 1.385 . S
C1744 C1745 1.389 . S
C1745 C1744 1.389 . S
C1745 C1746 1.387 . S
C1746 H1731 0.930 . S
C1746 C1741 1.390 . S
C1746 C1745 1.387 . S
H1747 C1759 0.930 . S
H1748 C1761 0.930 . S
H1749 C1762 0.930 . S
H1750 C1766 0.959 . S
H1751 C1766 0.959 . S
H1752 C1766 0.961 . S
H1753 C1767 0.960 . S
H1754 C1767 0.961 . S
H1755 C1767 0.959 . S
H1756 C1770 0.929 . S
H1757 C1771 0.931 . S
H1758 C1773 0.930 . S
C1759 H1747 0.930 . S
C1759 C1760 1.399 . S
C1759 C1764 1.399 . S
C1760 C1759 1.399 . S
C1760 C1761 1.376 . S
C1761 H1748 0.930 . S
C1761 C1760 1.376 . S
C1761 C1762 1.388 . S
C1762 H1749 0.930 . S
C1762 C1761 1.388 . S
C1762 C1763 1.390 . S
C1763 C1762 1.390 . S
C1763 C1764 1.394 . S
C1763 C1769 1.465 . S
C1764 C1759 1.399 . S
C1764 C1763 1.394 . S
C1764 C1765 1.516 . S
C1765 C1764 1.516 . S
C1765 C1766 1.502 . S
C1765 C1767 1.561 . S
C1765 C1768 1.526 . S
C1766 H1750 0.959 . S
C1766 H1751 0.959 . S
C1766 H1752 0.961 . S
C1766 C1765 1.502 . S
C1767 H1753 0.960 . S
C1767 H1754 0.961 . S
C1767 H1755 0.959 . S
C1767 C1765 1.561 . S
C1768 C1765 1.526 . S
C1768 C1769 1.396 . S
C1768 C1773 1.390 . S
C1769 C1763 1.465 . S
C1769 C1768 1.396 . S
C1769 C1770 1.399 . S
C1770 H1756 0.929 . S
C1770 C1769 1.399 . S
C1770 C1771 1.385 . S
C1771 H1757 0.931 . S
C1771 C1770 1.385 . S
C1771 C1772 1.389 . S
C1772 C1771 1.389 . S
C1772 C1773 1.387 . S
C1773 H1758 0.930 . S
C1773 C1768 1.390 . S
C1773 C1772 1.387 . S
H1774 C1786 0.930 . S
H1775 C1788 0.930 . S
H1776 C1789 0.930 . S
H1777 C1793 0.959 . S
H1778 C1793 0.959 . S
H1779 C1793 0.961 . S
H1780 C1794 0.960 . S
H1781 C1794 0.961 . S
H1782 C1794 0.959 . S
H1783 C1797 0.929 . S
H1784 C1798 0.931 . S
H1785 C1800 0.930 . S
C1786 H1774 0.930 . S
C1786 C1787 1.399 . S
C1786 C1791 1.399 . S
C1787 C1786 1.399 . S
C1787 C1788 1.376 . S
C1788 H1775 0.930 . S
C1788 C1787 1.376 . S
C1788 C1789 1.388 . S
C1789 H1776 0.930 . S
C1789 C1788 1.388 . S
C1789 C1790 1.390 . S
C1790 C1789 1.390 . S
C1790 C1791 1.394 . S
C1790 C1796 1.465 . S
C1791 C1786 1.399 . S
C1791 C1790 1.394 . S
C1791 C1792 1.516 . S
C1792 C1791 1.516 . S
C1792 C1793 1.502 . S
C1792 C1794 1.561 . S
C1792 C1795 1.526 . S
C1793 H1777 0.959 . S
C1793 H1778 0.959 . S
C1793 H1779 0.961 . S
C1793 C1792 1.502 . S
C1794 H1780 0.960 . S
C1794 H1781 0.961 . S
C1794 H1782 0.959 . S
C1794 C1792 1.561 . S
C1795 C1792 1.526 . S
C1795 C1796 1.396 . S
C1795 C1800 1.390 . S
C1796 C1790 1.465 . S
C1796 C1795 1.396 . S
C1796 C1797 1.399 . S
C1797 H1783 0.929 . S
C1797 C1796 1.399 . S
C1797 C1798 1.385 . S
C1798 H1784 0.931 . S
C1798 C1797 1.385 . S
C1798 C1799 1.389 . S
C1799 C1798 1.389 . S
C1799 C1800 1.387 . S
C1800 H1785 0.930 . S
C1800 C1795 1.390 . S
C1800 C1799 1.387 . S
H1801 C1813 0.930 . S
H1802 C1815 0.930 . S
H1803 C1816 0.930 . S
H1804 C1820 0.959 . S
H1805 C1820 0.959 . S
H1806 C1820 0.961 . S
H1807 C1821 0.960 . S
H1808 C1821 0.961 . S
H1809 C1821 0.959 . S
H1810 C1824 0.929 . S
H1811 C1825 0.931 . S
H1812 C1827 0.930 . S
C1813 H1801 0.930 . S
C1813 C1814 1.399 . S
C1813 C1818 1.399 . S
C1814 C1813 1.399 . S
C1814 C1815 1.376 . S
C1815 H1802 0.930 . S
C1815 C1814 1.376 . S
C1815 C1816 1.388 . S
C1816 H1803 0.930 . S
C1816 C1815 1.388 . S
C1816 C1817 1.390 . S
C1817 C1816 1.390 . S
C1817 C1818 1.394 . S
C1817 C1823 1.465 . S
C1818 C1813 1.399 . S
C1818 C1817 1.394 . S
C1818 C1819 1.516 . S
C1819 C1818 1.516 . S
C1819 C1820 1.502 . S
C1819 C1821 1.561 . S
C1819 C1822 1.526 . S
C1820 H1804 0.959 . S
C1820 H1805 0.959 . S
C1820 H1806 0.961 . S
C1820 C1819 1.502 . S
C1821 H1807 0.960 . S
C1821 H1808 0.961 . S
C1821 H1809 0.959 . S
C1821 C1819 1.561 . S
C1822 C1819 1.526 . S
C1822 C1823 1.396 . S
C1822 C1827 1.390 . S
C1823 C1817 1.465 . S
C1823 C1822 1.396 . S
C1823 C1824 1.399 . S
C1824 H1810 0.929 . S
C1824 C1823 1.399 . S
C1824 C1825 1.385 . S
C1825 H1811 0.931 . S
C1825 C1824 1.385 . S
C1825 C1826 1.389 . S
C1826 C1825 1.389 . S
C1826 C1827 1.387 . S
C1827 H1812 0.930 . S
C1827 C1822 1.390 . S
C1827 C1826 1.387 . S
H1828 C1840 0.930 . S
H1829 C1842 0.930 . S
H1830 C1843 0.930 . S
H1831 C1847 0.959 . S
H1832 C1847 0.959 . S
H1833 C1847 0.961 . S
H1834 C1848 0.960 . S
H1835 C1848 0.961 . S
H1836 C1848 0.959 . S
H1837 C1851 0.929 . S
H1838 C1852 0.931 . S
H1839 C1854 0.930 . S
C1840 H1828 0.930 . S
C1840 C1841 1.399 . S
C1840 C1845 1.399 . S
C1841 C1840 1.399 . S
C1841 C1842 1.376 . S
C1842 H1829 0.930 . S
C1842 C1841 1.376 . S
C1842 C1843 1.388 . S
C1843 H1830 0.930 . S
C1843 C1842 1.388 . S
C1843 C1844 1.390 . S
C1844 C1843 1.390 . S
C1844 C1845 1.394 . S
C1844 C1850 1.465 . S
C1845 C1840 1.399 . S
C1845 C1844 1.394 . S
C1845 C1846 1.516 . S
C1846 C1845 1.516 . S
C1846 C1847 1.502 . S
C1846 C1848 1.561 . S
C1846 C1849 1.526 . S
C1847 H1831 0.959 . S
C1847 H1832 0.959 . S
C1847 H1833 0.961 . S
C1847 C1846 1.502 . S
C1848 H1834 0.960 . S
C1848 H1835 0.961 . S
C1848 H1836 0.959 . S
C1848 C1846 1.561 . S
C1849 C1846 1.526 . S
C1849 C1850 1.396 . S
C1849 C1854 1.390 . S
C1850 C1844 1.465 . S
C1850 C1849 1.396 . S
C1850 C1851 1.399 . S
C1851 H1837 0.929 . S
C1851 C1850 1.399 . S
C1851 C1852 1.385 . S
C1852 H1838 0.931 . S
C1852 C1851 1.385 . S
C1852 C1853 1.389 . S
C1853 C1852 1.389 . S
C1853 C1854 1.387 . S
C1854 H1839 0.930 . S
C1854 C1849 1.390 . S
C1854 C1853 1.387 . S
H1855 C1867 0.930 . S
H1856 C1869 0.930 . S
H1857 C1870 0.930 . S
H1858 C1874 0.959 . S
H1859 C1874 0.959 . S
H1860 C1874 0.961 . S
H1861 C1875 0.960 . S
H1862 C1875 0.961 . S
H1863 C1875 0.959 . S
H1864 C1878 0.929 . S
H1865 C1879 0.931 . S
H1866 C1881 0.930 . S
C1867 H1855 0.930 . S
C1867 C1868 1.399 . S
C1867 C1872 1.399 . S
C1868 C1867 1.399 . S
C1868 C1869 1.376 . S
C1869 H1856 0.930 . S
C1869 C1868 1.376 . S
C1869 C1870 1.388 . S
C1870 H1857 0.930 . S
C1870 C1869 1.388 . S
C1870 C1871 1.390 . S
C1871 C1870 1.390 . S
C1871 C1872 1.394 . S
C1871 C1877 1.465 . S
C1872 C1867 1.399 . S
C1872 C1871 1.394 . S
C1872 C1873 1.516 . S
C1873 C1872 1.516 . S
C1873 C1874 1.502 . S
C1873 C1875 1.561 . S
C1873 C1876 1.526 . S
C1874 H1858 0.959 . S
C1874 H1859 0.959 . S
C1874 H1860 0.961 . S
C1874 C1873 1.502 . S
C1875 H1861 0.960 . S
C1875 H1862 0.961 . S
C1875 H1863 0.959 . S
C1875 C1873 1.561 . S
C1876 C1873 1.526 . S
C1876 C1877 1.396 . S
C1876 C1881 1.390 . S
C1877 C1871 1.465 . S
C1877 C1876 1.396 . S
C1877 C1878 1.399 . S
C1878 H1864 0.929 . S
C1878 C1877 1.399 . S
C1878 C1879 1.385 . S
C1879 H1865 0.931 . S
C1879 C1878 1.385 . S
C1879 C1880 1.389 . S
C1880 C1879 1.389 . S
C1880 C1881 1.387 . S
C1881 H1866 0.930 . S
C1881 C1876 1.390 . S
C1881 C1880 1.387 . S
H1882 C1894 0.930 . S
H1883 C1896 0.930 . S
H1884 C1897 0.930 . S
H1885 C1901 0.959 . S
H1886 C1901 0.959 . S
H1887 C1901 0.961 . S
H1888 C1902 0.960 . S
H1889 C1902 0.961 . S
H1890 C1902 0.959 . S
H1891 C1905 0.929 . S
H1892 C1906 0.931 . S
H1893 C1908 0.930 . S
C1894 H1882 0.930 . S
C1894 C1895 1.399 . S
C1894 C1899 1.399 . S
C1895 C1894 1.399 . S
C1895 C1896 1.376 . S
C1896 H1883 0.930 . S
C1896 C1895 1.376 . S
C1896 C1897 1.388 . S
C1897 H1884 0.930 . S
C1897 C1896 1.388 . S
C1897 C1898 1.390 . S
C1898 C1897 1.390 . S
C1898 C1899 1.394 . S
C1898 C1904 1.465 . S
C1899 C1894 1.399 . S
C1899 C1898 1.394 . S
C1899 C1900 1.516 . S
C1900 C1899 1.516 . S
C1900 C1901 1.502 . S
C1900 C1902 1.561 . S
C1900 C1903 1.526 . S
C1901 H1885 0.959 . S
C1901 H1886 0.959 . S
C1901 H1887 0.961 . S
C1901 C1900 1.502 . S
C1902 H1888 0.960 . S
C1902 H1889 0.961 . S
C1902 H1890 0.959 . S
C1902 C1900 1.561 . S
C1903 C1900 1.526 . S
C1903 C1904 1.396 . S
C1903 C1908 1.390 . S
C1904 C1898 1.465 . S
C1904 C1903 1.396 . S
C1904 C1905 1.399 . S
C1905 H1891 0.929 . S
C1905 C1904 1.399 . S
C1905 C1906 1.385 . S
C1906 H1892 0.931 . S
C1906 C1905 1.385 . S
C1906 C1907 1.389 . S
C1907 C1906 1.389 . S
C1907 C1908 1.387 . S
C1908 H1893 0.930 . S
C1908 C1903 1.390 . S
C1908 C1907 1.387 . S
H1909 C1921 0.930 . S
H1910 C1923 0.930 . S
H1911 C1924 0.930 . S
H1912 C1928 0.959 . S
H1913 C1928 0.959 . S
H1914 C1928 0.961 . S
H1915 C1929 0.960 . S
H1916 C1929 0.961 . S
H1917 C1929 0.959 . S
H1918 C1932 0.929 . S
H1919 C1933 0.931 . S
H1920 C1935 0.930 . S
C1921 H1909 0.930 . S
C1921 C1922 1.399 . S
C1921 C1926 1.399 . S
C1922 C1921 1.399 . S
C1922 C1923 1.376 . S
C1923 H1910 0.930 . S
C1923 C1922 1.376 . S
C1923 C1924 1.388 . S
C1924 H1911 0.930 . S
C1924 C1923 1.388 . S
C1924 C1925 1.390 . S
C1925 C1924 1.390 . S
C1925 C1926 1.394 . S
C1925 C1931 1.465 . S
C1926 C1921 1.399 . S
C1926 C1925 1.394 . S
C1926 C1927 1.516 . S
C1927 C1926 1.516 . S
C1927 C1928 1.502 . S
C1927 C1929 1.561 . S
C1927 C1930 1.526 . S
C1928 H1912 0.959 . S
C1928 H1913 0.959 . S
C1928 H1914 0.961 . S
C1928 C1927 1.502 . S
C1929 H1915 0.960 . S
C1929 H1916 0.961 . S
C1929 H1917 0.959 . S
C1929 C1927 1.561 . S
C1930 C1927 1.526 . S
C1930 C1931 1.396 . S
C1930 C1935 1.390 . S
C1931 C1925 1.465 . S
C1931 C1930 1.396 . S
C1931 C1932 1.399 . S
C1932 H1918 0.929 . S
C1932 C1931 1.399 . S
C1932 C1933 1.385 . S
C1933 H1919 0.931 . S
C1933 C1932 1.385 . S
C1933 C1934 1.389 . S
C1934 C1933 1.389 . S
C1934 C1935 1.387 . S
C1935 H1920 0.930 . S
C1935 C1930 1.390 . S
C1935 C1934 1.387 . S
C653 C139 3.510 . S
C665 C18 3.540 . S
C680 C10 2.358 . S
C692 C59 2.352 . S
C707 C89 0.964 . S
C719 C49 0.989 . S
C734 C126 1.435 . S
C746 C86 1.357 . S
C761 C170 2.325 . S
C773 C210 2.341 . S
C788 C218 0.993 . S
C800 C258 1.037 . S
C815 C255 1.264 . S
C827 C286 1.286 . S
C842 C175 0.844 . S
C854 C289 0.967 . S
C869 C375 1.205 . S
C881 C15 1.153 . S
C896 C410 0.825 . S
C908 C46 0.846 . S
C923 C99 2.312 . S
C935 C539 2.275 . S
C950 C338 1.027 . S
C962 C129 1.035 . S
C977 C449 1.005 . S
C989 C178 0.959 . S
C1004 C575 1.138 . S
C1016 C215 1.206 . S
C1031 C250 0.870 . S
C1043 C486 0.802 . S
C1058 C619 2.311 . S
C1070 C299 2.280 . S
C1085 C335 0.848 . S
C1097 C529 0.948 . S
C1112 C370 2.352 . S
C1124 C330 2.321 . S
C1139 C418 1.062 . S
C1151 C378 1.063 . S
C1166 C578 3.533 . S
C1178 C459 3.526 . S
C1193 C489 0.941 . S
C1205 C609 0.947 . S
C1220 C450 3.511 . S
C1232 C9 3.544 . S
C1247 C490 2.343 . S
C1259 C19 2.343 . S
C1274 C498 1.006 . S
C1286 C98 0.955 . S
C1301 C95 1.444 . S
C1313 C455 1.340 . S
C1328 C379 2.345 . S
C1340 C179 2.336 . S
C1355 C369 0.988 . S
C1367 C249 1.028 . S
C1382 C535 1.286 . S
C1394 C246 1.271 . S
C1409 C166 0.960 . S
C1421 C538 0.921 . S
C1436 C206 1.190 . S
C1448 C6 1.206 . S
C1463 C419 0.840 . S
C1475 C495 0.927 . S
C1490 C90 2.317 . S
C1502 C290 2.260 . S
C1517 C329 1.047 . S
C1529 C458 1.029 . S
C1544 C138 1.038 . S
C1556 C169 1.005 . S
C1571 C366 1.194 . S
C1583 C566 1.129 . S
C1598 C259 0.880 . S
C1610 C55 0.906 . S
C1625 C610 2.325 . S
C1637 C530 2.274 . S
C1652 C326 0.954 . S
C1664 C298 0.926 . S
C1679 C339 2.297 . S
C1691 C219 2.357 . S
C1706 C409 1.041 . S
C1718 C209 1.068 . S
C1733 C130 3.516 . S
C1745 C569 3.537 . S
C1760 C58 0.917 . S
C1772 C618 0.977 . S
C1787 C499 2.339 . S
C1799 C570 2.332 . S
C1814 C446 1.341 . S
C1826 C606 1.437 . S
C1841 C415 1.279 . S
C1853 C526 1.216 . S
C1868 C579 2.357 . S
C1880 C50 2.357 . S
C1895 C135 1.434 . S
C1907 C615 1.358 . S
C1922 C295 1.221 . S
C1934 C406 1.294 . S
