# Generated by pormake.
# Topology ghw, (5)-cn, num edge types: 1
# Building blocks:
#     Node 0, Type 0, BuildingBlock: BEQFEK_clean_sbu_0, # of connection points: 5
#     Node 1, Type 0, BuildingBlock: BEQFEK_clean_sbu_0, # of connection points: 5
#     Node 2, Type 0, BuildingBlock: BEQFEK_clean_sbu_0, # of connection points: 5
#     Node 3, Type 0, BuildingBlock: BEQFEK_clean_sbu_0, # of connection points: 5
#     Node 4, Type 0, BuildingBlock: BEQFEK_clean_sbu_0, # of connection points: 5
#     Node 5, Type 0, BuildingBlock: BEQFEK_clean_sbu_0, # of connection points: 5
#     Node 6, Type 0, BuildingBlock: BEQFEK_clean_sbu_0, # of connection points: 5
#     Node 7, Type 0, BuildingBlock: BEQFEK_clean_sbu_0, # of connection points: 5
#     Node 8, Type 0, BuildingBlock: BEQFEK_clean_sbu_0, # of connection points: 5
#     Node 9, Type 0, BuildingBlock: BEQFEK_clean_sbu_0, # of connection points: 5
#     Node 10, Type 0, BuildingBlock: BEQFEK_clean_sbu_0, # of connection points: 5
#     Node 11, Type 0, BuildingBlock: BEQFEK_clean_sbu_0, # of connection points: 5
#     Node 12, Type 0, BuildingBlock: BEQFEK_clean_sbu_0, # of connection points: 5
#     Node 13, Type 0, BuildingBlock: BEQFEK_clean_sbu_0, # of connection points: 5
#     Node 14, Type 0, BuildingBlock: BEQFEK_clean_sbu_0, # of connection points: 5
#     Node 15, Type 0, BuildingBlock: BEQFEK_clean_sbu_0, # of connection points: 5
#     Edge 16, Type (0, 0), BuildingBlock: AJUNOK_clean_linker_0, # of connection points: 2
#     Edge 17, Type (0, 0), BuildingBlock: AJUNOK_clean_linker_0, # of connection points: 2
#     Edge 18, Type (0, 0), BuildingBlock: AJUNOK_clean_linker_0, # of connection points: 2
#     Edge 19, Type (0, 0), BuildingBlock: AJUNOK_clean_linker_0, # of connection points: 2
#     Edge 20, Type (0, 0), BuildingBlock: AJUNOK_clean_linker_0, # of connection points: 2
#     Edge 21, Type (0, 0), BuildingBlock: AJUNOK_clean_linker_0, # of connection points: 2
#     Edge 22, Type (0, 0), BuildingBlock: AJUNOK_clean_linker_0, # of connection points: 2
#     Edge 23, Type (0, 0), BuildingBlock: AJUNOK_clean_linker_0, # of connection points: 2
#     Edge 24, Type (0, 0), BuildingBlock: AJUNOK_clean_linker_0, # of connection points: 2
#     Edge 25, Type (0, 0), BuildingBlock: AJUNOK_clean_linker_0, # of connection points: 2
#     Edge 26, Type (0, 0), BuildingBlock: AJUNOK_clean_linker_0, # of connection points: 2
#     Edge 27, Type (0, 0), BuildingBlock: AJUNOK_clean_linker_0, # of connection points: 2
#     Edge 28, Type (0, 0), BuildingBlock: AJUNOK_clean_linker_0, # of connection points: 2
#     Edge 29, Type (0, 0), BuildingBlock: AJUNOK_clean_linker_0, # of connection points: 2
#     Edge 30, Type (0, 0), BuildingBlock: AJUNOK_clean_linker_0, # of connection points: 2
#     Edge 31, Type (0, 0), BuildingBlock: AJUNOK_clean_linker_0, # of connection points: 2
#     Edge 32, Type (0, 0), BuildingBlock: AJUNOK_clean_linker_0, # of connection points: 2
#     Edge 33, Type (0, 0), BuildingBlock: AJUNOK_clean_linker_0, # of connection points: 2
#     Edge 34, Type (0, 0), BuildingBlock: AJUNOK_clean_linker_0, # of connection points: 2
#     Edge 35, Type (0, 0), BuildingBlock: AJUNOK_clean_linker_0, # of connection points: 2
#     Edge 36, Type (0, 0), BuildingBlock: AJUNOK_clean_linker_0, # of connection points: 2
#     Edge 37, Type (0, 0), BuildingBlock: AJUNOK_clean_linker_0, # of connection points: 2
#     Edge 38, Type (0, 0), BuildingBlock: AJUNOK_clean_linker_0, # of connection points: 2
#     Edge 39, Type (0, 0), BuildingBlock: AJUNOK_clean_linker_0, # of connection points: 2
#     Edge 40, Type (0, 0), BuildingBlock: AJUNOK_clean_linker_0, # of connection points: 2
#     Edge 41, Type (0, 0), BuildingBlock: AJUNOK_clean_linker_0, # of connection points: 2
#     Edge 42, Type (0, 0), BuildingBlock: AJUNOK_clean_linker_0, # of connection points: 2
#     Edge 43, Type (0, 0), BuildingBlock: AJUNOK_clean_linker_0, # of connection points: 2
#     Edge 44, Type (0, 0), BuildingBlock: AJUNOK_clean_linker_0, # of connection points: 2
#     Edge 45, Type (0, 0), BuildingBlock: AJUNOK_clean_linker_0, # of connection points: 2
#     Edge 46, Type (0, 0), BuildingBlock: AJUNOK_clean_linker_0, # of connection points: 2
#     Edge 47, Type (0, 0), BuildingBlock: AJUNOK_clean_linker_0, # of connection points: 2
#     Edge 48, Type (0, 0), BuildingBlock: AJUNOK_clean_linker_0, # of connection points: 2
#     Edge 49, Type (0, 0), BuildingBlock: AJUNOK_clean_linker_0, # of connection points: 2
#     Edge 50, Type (0, 0), BuildingBlock: AJUNOK_clean_linker_0, # of connection points: 2
#     Edge 51, Type (0, 0), BuildingBlock: AJUNOK_clean_linker_0, # of connection points: 2
#     Edge 52, Type (0, 0), BuildingBlock: AJUNOK_clean_linker_0, # of connection points: 2
#     Edge 53, Type (0, 0), BuildingBlock: AJUNOK_clean_linker_0, # of connection points: 2
#     Edge 54, Type (0, 0), BuildingBlock: AJUNOK_clean_linker_0, # of connection points: 2
#     Edge 55, Type (0, 0), BuildingBlock: AJUNOK_clean_linker_0, # of connection points: 2
# Relax obj value: 0.495
# Max RMSD: 0.301
# Mean RMSD: 0.301
data_MOF--net-ghw--node1-BEQFEK_clean_sbu_0--edge1-AJUNOK_clean_linker_0
_symmetry_space_group_name_H-M    P1
_symmetry_Int_Tables_number       1
_symmetry_cell_setting            triclinic
loop_
_symmetry_equiv_pos_as_xyz
'x, y, z'
_cell_length_a     27.956817
_cell_length_b     32.552566
_cell_length_c     22.064343
_cell_angle_alpha  115.52897
_cell_angle_beta   89.748919
_cell_angle_gamma 90.060217
loop_
_atom_site_label
_atom_site_type_symbol
_atom_site_fract_x
_atom_site_fract_y
_atom_site_fract_z
_atom_type_partial_charge
Co0 Co 0.14561 0.08628 0.33253 0.0
Co1 Co 0.06397 0.15873 0.38592 0.0
C2 C 0.09273 0.11617 0.24059 0.0
O3 O 0.12353 0.09098 0.25045 0.0
O4 O 0.06681 0.14378 0.28831 0.0
C5 C 0.23229 0.06333 0.28599 0.0
O6 O 0.21808 0.09655 0.27179 0.0
C7 C 0.96486 0.18921 0.3995 0.0
C8 C 0.96608 0.25268 0.49336 0.0
C9 C 0.93603 0.2239 0.44336 0.0
N10 N 0.00994 0.19714 0.42201 0.0
N11 N 0.01072 0.23579 0.47729 0.0
C12 C 0.94923 0.1475 0.33952 0.0
H13 H 0.97758 0.12102 0.32353 0.0
H14 H 0.91562 0.13382 0.35062 0.0
H15 H 0.94185 0.15678 0.29761 0.0
C16 C 0.08603 0.03973 0.39551 0.0
N17 N 0.09502 0.07403 0.37836 0.0
N18 N 0.06022 0.10434 0.40089 0.0
C19 C 0.02781 0.0896 0.43256 0.0
C20 C 0.04276 0.0481 0.42915 0.0
C21 C 0.11862 1.00033 0.38215 0.0
H22 H 0.14943 1.00026 0.35055 0.0
H23 H 0.09838 0.96797 0.35758 0.0
H24 H 0.13228 1.00242 0.43053 0.0
O25 O 0.17545 0.14281 0.39188 0.0
O26 O 0.12061 0.19638 0.43123 0.0
H27 H -0.00641 0.15271 0.49518 0.0
H28 H 0.9729 0.10448 0.50813 0.0
C29 C 0.98508 0.11592 0.46993 0.0
H30 H 0.95558 0.11021 0.43387 0.0
H31 H 0.0414 0.24967 0.50544 0.0
O32 O 0.20209 0.0463 0.31194 0.0
C33 C 0.16393 0.1837 0.42739 0.0
Co34 Co 0.13916 0.16365 0.89836 0.0
Co35 Co 0.05906 0.08923 0.8419 0.0
C36 C 0.08862 0.13016 0.98727 0.0
O37 O 0.11852 0.15686 0.97911 0.0
O38 O 0.06331 0.10264 0.939 0.0
C39 C 0.22769 0.19135 0.94404 0.0
O40 O 0.21834 0.1582 0.96114 0.0
C41 C 0.95989 0.06004 0.83395 0.0
C42 C 0.95727 0.99944 0.73655 0.0
C43 C 0.92919 0.02731 0.79056 0.0
N44 N 0.00414 0.05169 0.80751 0.0
N45 N 0.0026 0.01473 0.74989 0.0
C46 C 0.9465 0.1013 0.89631 0.0
H47 H 0.97514 0.12739 0.91045 0.0
H48 H 0.91227 0.11587 0.88913 0.0
H49 H 0.94126 0.0912 0.93792 0.0
C50 C 0.07995 0.20835 0.83314 0.0
N51 N 0.08817 0.17482 0.85205 0.0
N52 N 0.05376 0.14423 0.82902 0.0
C53 C 0.02194 0.1583 0.79591 0.0
C54 C 0.03752 0.19934 0.79783 0.0
C55 C 0.11332 0.24693 0.84499 0.0
H56 H 0.13975 0.25056 0.88387 0.0
H57 H 0.09293 0.27906 0.85942 0.0
H58 H 0.13316 0.24007 0.79798 0.0
O59 O 0.16969 0.10796 0.83937 0.0
O60 O 0.11698 0.05279 0.79442 0.0
H61 H 0.96593 0.14416 0.72228 0.0
H62 H 0.95048 0.13467 0.79445 0.0
C63 C 0.9795 0.13149 0.75832 0.0
H64 H 0.98917 0.09506 0.73058 0.0
H65 H 0.03199 1.00131 0.71806 0.0
O66 O 0.19431 0.20537 0.91871 0.0
C67 C 0.15996 0.06712 0.80104 0.0
Co68 Co 0.83936 0.90906 0.64226 0.0
Co69 Co 0.91922 0.8341 0.59184 0.0
C70 C 0.88939 0.88265 0.73806 0.0
O71 O 0.85994 0.90872 0.72772 0.0
O72 O 0.91388 0.85317 0.69047 0.0
C73 C 0.75113 0.94016 0.68684 0.0
O74 O 0.76084 0.91164 0.71281 0.0
C75 C 0.01899 0.81167 0.5922 0.0
C76 C 0.02525 0.74207 0.51076 0.0
C77 C 0.05123 0.77694 0.55924 0.0
N78 N 0.9758 0.79831 0.56437 0.0
N79 N 0.97958 0.75658 0.51585 0.0
C80 C 0.02824 0.85608 0.65157 0.0
H81 H 0.02665 0.85064 0.69785 0.0
H82 H 0.00058 0.88152 0.65537 0.0
H83 H 0.06429 0.86934 0.64869 0.0
C84 C 0.8993 0.94779 0.56825 0.0
N85 N 0.89026 0.91651 0.59154 0.0
N86 N 0.92387 0.88502 0.57002 0.0
C87 C 0.95558 0.89577 0.53278 0.0
C88 C 0.94117 0.93591 0.53101 0.0
C89 C 0.86792 0.98761 0.57962 0.0
H90 H 0.8419 0.99346 0.6202 0.0
H91 H 0.88994 0.01852 0.59157 0.0
H92 H 0.84767 0.98065 0.53311 0.0
O93 O 0.80904 0.85116 0.59018 0.0
O94 O 0.86226 0.7958 0.54784 0.0
H95 H 0.98803 0.83045 0.47547 0.0
H96 H 0.00872 0.87498 0.45374 0.0
C97 C -0.0027 0.86702 0.49576 0.0
H98 H 0.02768 0.87407 0.53088 0.0
H99 H 0.95108 0.73805 0.48611 0.0
O100 O 0.78435 0.95026 0.65619 0.0
C101 C 0.81903 0.80964 0.55569 0.0
Co102 Co 0.8418 0.84539 0.09141 0.0
Co103 Co 0.92028 0.92168 0.14011 0.0
C104 C 0.89041 0.8732 -0.00527 0.0
O105 O 0.86229 0.84629 0.00553 0.0
O106 O 0.91423 0.90333 0.04197 0.0
C107 C 0.75458 0.81888 0.04818 0.0
O108 O 0.76815 0.84973 0.02842 0.0
C109 C 0.01703 0.95046 0.13449 0.0
C110 C 0.0234 0.0154 0.22541 0.0
C111 C 0.04839 0.98535 0.16951 0.0
N112 N 0.97499 0.95964 0.16704 0.0
N113 N 0.97859 0.99898 0.22082 0.0
C114 C 0.02803 0.90706 0.07411 0.0
H115 H 0.0017 0.88027 0.06919 0.0
H116 H 0.06473 0.89517 0.07734 0.0
H117 H 0.02629 0.91335 0.02858 0.0
C118 C 0.90273 0.80848 0.16648 0.0
N119 N 0.89345 0.83868 0.14137 0.0
N120 N 0.92683 0.87039 0.16135 0.0
C121 C 0.95887 0.86068 0.19898 0.0
C122 C 0.94461 0.82118 0.20345 0.0
C123 C 0.87125 0.76908 0.15707 0.0
H124 H 0.84562 0.76245 0.11599 0.0
H125 H 0.89317 0.73834 0.14679 0.0
H126 H 0.85037 0.77717 0.20366 0.0
O127 O 0.81132 0.90303 0.14586 0.0
O128 O 0.8635 0.95904 0.18597 0.0
H129 H 0.98873 0.92644 0.2589 0.0
H130 H 0.01573 0.8807 0.27247 0.0
C131 C 0.00035 0.89038 0.23417 0.0
H132 H 0.02846 0.88718 0.19678 0.0
H133 H 0.95092 0.01398 0.25515 0.0
O134 O 0.78561 0.80437 0.07638 0.0
C135 C 0.8207 0.94457 0.18052 0.0
Co136 Co 0.14557 0.58632 0.8299 0.0
Co137 Co 0.06413 0.65929 0.88566 0.0
C138 C 0.09145 0.6157 0.73932 0.0
O139 O 0.12312 0.59084 0.74827 0.0
O140 O 0.06612 0.64349 0.78768 0.0
C141 C 0.23384 0.56044 0.78263 0.0
O142 O 0.22209 0.59209 0.76344 0.0
C143 C 0.96497 0.68964 0.89797 0.0
C144 C 0.96448 0.75025 -0.00442 0.0
C145 C 0.93535 0.7229 0.943 0.0
N146 N 0.00969 0.69718 0.92217 0.0
N147 N 0.00941 0.73411 0.97989 0.0
C148 C 0.95002 0.64857 0.8366 0.0
H149 H 0.97937 0.62317 0.81812 0.0
H150 H 0.91799 0.6329 0.84787 0.0
H151 H 0.94013 0.65913 0.79674 0.0
C152 C 0.08726 0.54136 0.89669 0.0
N153 N 0.09533 0.57515 0.87821 0.0
N154 N 0.06046 0.60532 0.90119 0.0
C155 C 0.02864 0.59088 0.93409 0.0
C156 C 0.04448 0.54986 0.93189 0.0
C157 C 0.1205 0.50237 0.8827 0.0
H158 H 0.14101 0.5086 0.92872 0.0
H159 H 0.14645 0.4992 0.84317 0.0
H160 H 0.10005 0.47028 0.86814 0.0
O161 O 0.17596 0.6428 0.88665 0.0
O162 O 0.12175 0.69679 0.92972 0.0
H163 H -0.0059 0.65372 -0.00216 0.0
H164 H 0.97234 0.60479 0.0079 0.0
C165 C 0.98547 0.61703 0.97102 0.0
H166 H 0.9565 0.61254 0.93462 0.0
H167 H 0.03945 0.74698 0.0102 0.0
O168 O 0.20178 0.54588 0.80957 0.0
C169 C 0.16514 0.68368 0.92331 0.0
Co170 Co 0.14252 0.66681 0.40268 0.0
Co171 Co 0.06259 0.59394 0.34079 0.0
C172 C 0.09108 0.62879 0.4856 0.0
O173 O 0.12202 0.65534 0.47933 0.0
O174 O 0.06517 0.60327 0.43645 0.0
C175 C 0.23033 0.68962 0.44685 0.0
O176 O 0.2189 0.65496 0.4596 0.0
C177 C 0.96329 0.56514 0.3263 0.0
C178 C 0.9634 0.50368 0.2297 0.0
C179 C 0.93384 0.53198 0.28132 0.0
N180 N 0.00828 0.5568 0.30294 0.0
N181 N 0.00839 0.51933 0.24592 0.0
C182 C 0.9483 0.60604 0.38817 0.0
H183 H 0.97775 0.63127 0.40671 0.0
H184 H 0.91611 0.62194 0.37795 0.0
H185 H 0.93856 0.5951 0.42779 0.0
C186 C 0.08203 0.71893 0.35084 0.0
N187 N 0.09128 0.68216 0.36192 0.0
N188 N 0.0576 0.65137 0.33427 0.0
C189 C 0.02586 0.66809 0.30458 0.0
C190 C 0.04004 0.71145 0.3149 0.0
C191 C 0.11348 0.75985 0.37217 0.0
H192 H 0.13431 0.75803 0.32816 0.0
H193 H 0.13868 0.76122 0.41145 0.0
H194 H 0.09139 0.79127 0.39081 0.0
O195 O 0.17303 0.61273 0.33759 0.0
O196 O 0.12001 0.55822 0.2912 0.0
H197 H -0.00617 0.60549 0.23557 0.0
H198 H 0.97499 0.65519 0.22521 0.0
C199 C 0.9848 0.64212 0.2624 0.0
H200 H 0.95346 0.64648 0.29549 0.0
H201 H 0.03888 0.50553 0.21686 0.0
O202 O 0.19777 0.70798 0.42671 0.0
C203 C 0.16291 0.5725 0.29704 0.0
Co204 Co 0.84172 0.40683 0.13942 0.0
Co205 Co 0.92018 0.33026 0.08733 0.0
C206 C 0.89121 0.37891 0.23383 0.0
O207 O 0.86215 0.40559 0.22429 0.0
O208 O 0.91481 0.34886 0.18577 0.0
C209 C 0.75372 0.4379 0.18359 0.0
O210 O 0.76297 0.40814 0.2075 0.0
C211 C 0.01955 0.30554 0.08702 0.0
C212 C 0.02662 0.24063 -0.00347 0.0
C213 C 0.05252 0.27278 0.04906 0.0
N214 N 0.97621 0.29325 0.0591 0.0
N215 N 0.98038 0.25377 0.00572 0.0
C216 C 0.02987 0.35009 0.1456 0.0
H217 H 0.00045 0.37474 0.15334 0.0
H218 H 0.0642 0.36452 0.13825 0.0
H219 H 0.0332 0.34433 0.19144 0.0
C220 C 0.90238 0.44561 0.0669 0.0
N221 N 0.89285 0.41385 0.08899 0.0
N222 N 0.92635 0.38224 0.06737 0.0
C223 C 0.95882 0.39384 0.03187 0.0
C224 C 0.94493 0.43457 0.03126 0.0
C225 C 0.87005 0.48434 0.07623 0.0
H226 H 0.84641 0.49253 0.12012 0.0
H227 H 0.89122 0.51457 0.08174 0.0
H228 H 0.8473 0.4744 0.03103 0.0
O229 O 0.81073 0.34985 0.08667 0.0
O230 O 0.8621 0.29314 0.04294 0.0
H231 H 0.99099 0.32874 0.97268 0.0
H232 H 0.01337 0.37453 0.95488 0.0
C233 C 0.00069 0.3653 -0.00485 0.0
H234 H 0.03028 0.37124 0.03114 0.0
H235 H 0.95223 0.23707 0.97353 0.0
O236 O 0.78725 0.44878 0.15423 0.0
C237 C 0.81929 0.30822 0.05116 0.0
Co238 Co 0.84205 0.34692 0.59113 0.0
Co239 Co 0.92455 0.41879 0.63584 0.0
C240 C 0.89152 0.37192 0.4921 0.0
O241 O 0.86149 0.34745 0.50526 0.0
O242 O 0.91802 0.40039 0.53766 0.0
C243 C 0.75278 0.31951 0.55191 0.0
O244 O 0.7614 0.35181 0.53269 0.0
C245 C 0.0242 0.44325 0.63609 0.0
C246 C 0.02996 0.50834 0.72659 0.0
C247 C 0.05652 0.47633 0.67446 0.0
N248 N 0.98057 0.45519 0.66352 0.0
N249 N 0.98393 0.49478 0.71682 0.0
C250 C 0.0354 0.39879 0.57777 0.0
H251 H 0.04396 0.40508 0.53332 0.0
H252 H 0.00453 0.37518 0.56588 0.0
H253 H 0.06728 0.38292 0.58868 0.0
C254 C 0.90137 0.30573 0.66071 0.0
N255 N 0.89355 0.33736 0.63791 0.0
N256 N 0.92912 0.3668 0.65617 0.0
C257 C 0.96133 0.35378 0.69005 0.0
C258 C 0.94494 0.31447 0.69322 0.0
C259 C 0.86619 0.26999 0.6561 0.0
H260 H 0.84305 0.26093 0.61181 0.0
H261 H 0.88485 0.2394 0.65416 0.0
H262 H 0.84309 0.28362 0.70155 0.0
O263 O 0.81334 0.40472 0.64648 0.0
O264 O 0.86875 0.45807 0.6827 0.0
H265 H 0.01738 0.37078 0.76401 0.0
H266 H 0.03403 0.37246 0.68639 0.0
C267 C 0.00494 0.38021 0.72396 0.0
H268 H -0.00267 0.41721 0.74625 0.0
H269 H 0.95533 0.51131 0.7485 0.0
O270 O 0.78676 0.30622 0.57721 0.0
C271 C 0.82525 0.44579 0.67986 0.0
Co272 Co 0.63817 0.09039 0.83415 0.0
Co273 Co 0.55804 0.16527 0.88616 0.0
C274 C 0.58943 0.1218 0.74131 0.0
O275 O 0.61893 0.09559 0.75126 0.0
O276 O 0.56345 0.14973 0.78859 0.0
C277 C 0.7268 0.06334 0.79029 0.0
O278 O 0.7166 0.09602 0.77262 0.0
C279 C 0.45906 0.1948 0.89457 0.0
C280 C 0.45775 0.25863 0.98776 0.0
C281 C 0.42893 0.2289 0.93676 0.0
N282 N 0.50367 0.20396 0.9189 0.0
N283 N 0.50294 0.24285 0.97376 0.0
C284 C 0.44482 0.15186 0.83565 0.0
H285 H 0.4749 0.12719 0.8188 0.0
H286 H 0.41351 0.13633 0.84886 0.0
H287 H 0.43395 0.16011 0.79385 0.0
C288 C 0.57629 0.04842 0.90233 0.0
N289 N 0.58572 0.08069 0.88107 0.0
N290 N 0.55179 0.11195 0.90285 0.0
C291 C 0.51948 0.09994 0.93809 0.0
C292 C 0.53374 0.0592 0.93823 0.0
C293 C 0.6087 0.00948 0.89214 0.0
H294 H 0.63638 0.00537 0.85418 0.0
H295 H 0.58765 0.97769 0.87726 0.0
H296 H 0.62711 0.01624 0.93989 0.0
O297 O 0.66908 0.14644 0.89241 0.0
O298 O 0.61545 0.20134 0.93252 0.0
H299 H 0.48893 0.16527 0.00041 0.0
H300 H 0.46646 0.11919 0.01723 0.0
C301 C 0.47846 0.12891 0.97716 0.0
H302 H 0.44799 0.1242 0.94289 0.0
H303 H 0.53285 0.25743 0.00345 0.0
O304 O 0.6937 0.04886 0.81586 0.0
C305 C 0.65848 0.18757 0.9282 0.0
Co306 Co 0.64687 0.16844 0.3978 0.0
Co307 Co 0.56418 0.09728 0.34458 0.0
C308 C 0.59304 0.13747 0.48886 0.0
O309 O 0.62456 0.16227 0.47921 0.0
O310 O 0.56636 0.11123 0.44148 0.0
C311 C 0.73333 0.19242 0.44646 0.0
O312 O 0.72017 0.15794 0.45849 0.0
C313 C 0.4647 0.06922 0.33215 0.0
C314 C 0.46524 1.00306 0.24264 0.0
C315 C 0.43544 0.03409 0.29093 0.0
N316 N 0.50979 0.05954 0.30971 0.0
N317 N 0.51017 0.01935 0.25714 0.0
C318 C 0.44975 0.11228 0.39061 0.0
H319 H 0.47896 0.13783 0.40547 0.0
H320 H 0.41704 0.12646 0.37842 0.0
H321 H 0.44101 0.10454 0.4337 0.0
C322 C 0.59038 0.21419 0.33057 0.0
N323 N 0.59714 0.1811 0.35103 0.0
N324 N 0.56165 0.15162 0.32933 0.0
C325 C 0.53082 0.16598 0.29557 0.0
C326 C 0.54763 0.20614 0.29604 0.0
C327 C 0.62563 0.25083 0.3392 0.0
H328 H 0.65344 0.25318 0.37583 0.0
H329 H 0.60701 0.28396 0.3547 0.0
H330 H 0.64369 0.24269 0.29052 0.0
O331 O 0.67672 0.11201 0.33793 0.0
O332 O 0.62077 0.05941 0.29915 0.0
H333 H 0.49472 0.1033 0.23667 0.0
H334 H 0.4777 0.15017 0.21819 0.0
C335 C 0.48783 0.14041 0.25882 0.0
H336 H 0.45767 0.14906 0.29491 0.0
H337 H 0.54086 0.00371 0.23001 0.0
O338 O 0.70284 0.20919 0.4208 0.0
C339 C 0.66436 0.07134 0.30248 0.0
Co340 Co 0.3321 0.91121 0.14643 0.0
Co341 Co 0.41728 0.84153 0.09833 0.0
C342 C 0.38178 0.88211 0.24142 0.0
O343 O 0.35061 0.90628 0.22976 0.0
O344 O 0.41024 0.85639 0.19555 0.0
C345 C 0.24971 0.9505 0.11906 0.0
O346 O 0.26227 0.92529 0.05643 0.0
C347 C 0.51873 0.81776 0.09325 0.0
C348 C 0.52377 0.75342 0.00124 0.0
C349 C 0.55092 0.78503 0.05259 0.0
N350 N 0.4746 0.80601 0.06767 0.0
N351 N 0.47771 0.76689 0.0134 0.0
C352 C 0.53027 0.86121 0.15301 0.0
H353 H 0.49898 0.8845 0.16811 0.0
H354 H 0.56128 0.87815 0.14187 0.0
H355 H 0.54048 0.85333 0.1954 0.0
C356 C 0.39164 0.95746 0.08204 0.0
N357 N 0.38397 0.92438 0.10237 0.0
N358 N 0.42015 0.89555 0.08282 0.0
C359 C 0.45206 0.91021 0.05038 0.0
C360 C 0.43554 0.95016 0.05002 0.0
C361 C 0.35612 0.99305 0.08748 0.0
H362 H 0.33363 0.97985 0.04172 0.0
H363 H 0.33262 1.00118 0.13139 0.0
H364 H 0.37448 0.02409 0.09061 0.0
O365 O 0.30389 0.85388 0.08737 0.0
O366 O 0.36172 0.80264 0.0495 0.0
H367 H 0.48876 0.8477 -0.00822 0.0
H368 H 0.50729 0.89505 0.97525 0.0
C369 C 0.49562 0.88482 0.01494 0.0
H370 H 0.52462 0.89319 0.0523 0.0
H371 H 0.4487 0.75043 0.98294 0.0
O372 O 0.2773 0.95292 0.16614 0.0
C373 C 0.31772 0.81354 0.05187 0.0
Co374 Co 0.33909 0.84402 0.59684 0.0
Co375 Co 0.41941 0.91924 0.64093 0.0
C376 C 0.38408 0.87051 0.49715 0.0
O377 O 0.35426 0.8455 0.50982 0.0
O378 O 0.41093 0.89882 0.54246 0.0
C379 C 0.2561 0.77682 0.60082 0.0
O380 O 0.27332 0.75266 0.63038 0.0
C381 C 0.51871 0.9452 0.6397 0.0
C382 C 0.52312 0.01172 0.72786 0.0
C383 C 0.55036 0.97935 0.67713 0.0
N384 N 0.47479 0.95691 0.66633 0.0
N385 N 0.47738 0.99731 0.71816 0.0
C386 C 0.53089 0.90005 0.58346 0.0
H387 H 0.5006 0.8759 0.57283 0.0
H388 H 0.56336 0.8856 0.59575 0.0
H389 H 0.53896 0.90495 0.53772 0.0
C390 C 0.40657 0.80329 0.65964 0.0
N391 N 0.39401 0.83621 0.64133 0.0
N392 N 0.42655 0.86868 0.66321 0.0
C393 C 0.46007 0.85753 0.69765 0.0
C394 C 0.4484 0.81572 0.69615 0.0
C395 C 0.38064 0.75947 0.63947 0.0
H396 H 0.35809 0.76119 0.68194 0.0
H397 H 0.3579 0.75356 0.5958 0.0
H398 H 0.40633 0.73091 0.62676 0.0
O399 O 0.30944 0.90223 0.65107 0.0
O400 O 0.36316 0.95713 0.68707 0.0
H401 H 0.4909 0.92359 0.75479 0.0
H402 H 0.51225 0.8795 0.77709 0.0
C403 C 0.50097 0.88719 0.73489 0.0
H404 H 0.5318 0.88044 0.70018 0.0
H405 H 0.44845 0.01385 0.7492 0.0
O406 O 0.28236 0.80597 0.59265 0.0
C407 C 0.32006 0.94378 0.68373 0.0
Co408 Co 0.64432 0.58784 0.32992 0.0
Co409 Co 0.56296 0.65967 0.38778 0.0
C410 C 0.59008 0.61874 0.24179 0.0
O411 O 0.62051 0.59195 0.24822 0.0
O412 O 0.56673 0.64723 0.29166 0.0
C413 C 0.73096 0.56434 0.27998 0.0
O414 O 0.71685 0.59719 0.26475 0.0
C415 C 0.46388 0.6867 0.39551 0.0
C416 C 0.46042 0.74956 0.49001 0.0
C417 C 0.43291 0.72007 0.43702 0.0
N418 N 0.50783 0.69619 0.42194 0.0
N419 N 0.50587 0.7344 0.47776 0.0
C420 C 0.45117 0.64448 0.33432 0.0
H421 H 0.48123 0.61979 0.31883 0.0
H422 H 0.41882 0.62846 0.34406 0.0
H423 H 0.4427 0.65378 0.29273 0.0
C424 C 0.58729 0.54098 0.3957 0.0
N425 N 0.59485 0.57507 0.37764 0.0
N426 N 0.55928 0.60451 0.40007 0.0
C427 C 0.52738 0.5891 0.4316 0.0
C428 C 0.5439 0.54821 0.42899 0.0
C429 C 0.62214 0.50386 0.38589 0.0
H430 H 0.65176 0.50341 0.35236 0.0
H431 H 0.60356 0.47049 0.3658 0.0
H432 H 0.63742 0.50967 0.43525 0.0
O433 O 0.67443 0.64475 0.38818 0.0
O434 O 0.61897 0.69709 0.43522 0.0
H435 H 0.4915 0.65135 0.49488 0.0
H436 H 0.47148 0.6021 0.50559 0.0
C437 C 0.48382 0.61444 0.46846 0.0
H438 H 0.45459 0.60897 0.43207 0.0
H439 H 0.53512 0.74906 0.50898 0.0
O440 O 0.70084 0.54796 0.30703 0.0
C441 C 0.66264 0.68498 0.42733 0.0
Co442 Co 0.64491 0.66529 0.90103 0.0
Co443 Co 0.56604 0.59057 0.84049 0.0
C444 C 0.59217 0.63154 0.98766 0.0
O445 O 0.62122 0.65979 0.98181 0.0
O446 O 0.56959 0.60301 0.937 0.0
C447 C 0.73221 0.69267 0.94987 0.0
O448 O 0.72077 0.66079 0.96884 0.0
C449 C 0.46719 0.56074 0.83027 0.0
C450 C 0.46538 0.50078 0.73205 0.0
C451 C 0.43691 0.52815 0.78591 0.0
N452 N 0.51162 0.55284 0.80452 0.0
N453 N 0.51058 0.51626 0.7464 0.0
C454 C 0.45315 0.60156 0.89278 0.0
H455 H 0.4829 0.62648 0.91081 0.0
H456 H 0.42117 0.61798 0.88322 0.0
H457 H 0.44352 0.59052 0.93233 0.0
C458 C 0.58786 0.70991 0.83377 0.0
N459 N 0.59544 0.6762 0.85241 0.0
N460 N 0.5609 0.64586 0.8288 0.0
C461 C 0.52939 0.66044 0.79603 0.0
C462 C 0.5453 0.70167 0.79882 0.0
C463 C 0.6226 0.74715 0.84422 0.0
H464 H 0.64677 0.73602 0.79997 0.0
H465 H 0.64474 0.75434 0.88897 0.0
H466 H 0.6036 0.77822 0.84873 0.0
O467 O 0.67649 0.60969 0.8433 0.0
O468 O 0.62387 0.55507 0.79355 0.0
H469 H 0.49663 0.59746 0.72966 0.0
H470 H 0.47392 0.64686 0.72178 0.0
C471 C 0.48704 0.63388 0.7577 0.0
H472 H 0.45772 0.63693 0.79334 0.0
H473 H 0.54023 0.50327 0.71495 0.0
O474 O 0.70019 0.70681 0.92266 0.0
C475 C 0.66688 0.56928 0.80284 0.0
Co476 Co 0.34468 0.40544 0.63987 0.0
Co477 Co 0.4229 0.32931 0.58726 0.0
C478 C 0.39377 0.3768 0.73362 0.0
O479 O 0.36463 0.4034 0.72413 0.0
O480 O 0.4177 0.34714 0.68552 0.0
C481 C 0.25671 0.43511 0.68351 0.0
O482 O 0.26602 0.4044 0.70562 0.0
C483 C 0.52168 0.30313 0.58582 0.0
C484 C 0.52771 0.23902 0.49378 0.0
C485 C 0.55399 0.27016 0.54687 0.0
N486 N 0.47822 0.2919 0.55802 0.0
N487 N 0.48172 0.25285 0.50373 0.0
C488 C 0.53317 0.34742 0.64419 0.0
H489 H 0.50232 0.37113 0.65737 0.0
H490 H 0.56478 0.36346 0.63256 0.0
H491 H 0.54255 0.34076 0.68794 0.0
C492 C 0.40554 0.44524 0.56857 0.0
N493 N 0.39606 0.41336 0.59047 0.0
N494 N 0.4293 0.3815 0.56799 0.0
C495 C 0.46136 0.39281 0.53168 0.0
C496 C 0.44737 0.43355 0.53132 0.0
C497 C 0.3743 0.48525 0.58058 0.0
H498 H 0.34806 0.49066 0.62077 0.0
H499 H 0.39644 0.51621 0.59351 0.0
H500 H 0.35441 0.47885 0.534 0.0
O501 O 0.31352 0.34869 0.58526 0.0
O502 O 0.36538 0.29242 0.54201 0.0
H503 H 0.49251 0.32747 0.47112 0.0
H504 H 0.51507 0.37326 0.45348 0.0
C505 C 0.50271 0.3639 0.49377 0.0
H506 H 0.53277 0.36916 0.52888 0.0
H507 H 0.45332 0.23702 0.47147 0.0
O508 O 0.29033 0.44734 0.65596 0.0
C509 C 0.32258 0.30726 0.5491 0.0
Co510 Co 0.34105 0.34867 0.09162 0.0
Co511 Co 0.42217 0.42254 0.13813 0.0
C512 C 0.39243 0.37285 -0.00669 0.0
O513 O 0.36155 0.34862 0.00557 0.0
O514 O 0.41772 0.40211 0.03962 0.0
C515 C 0.25263 0.31886 0.04891 0.0
O516 O 0.26202 0.34962 0.02684 0.0
C517 C 0.52162 0.44829 0.13932 0.0
C518 C 0.52672 0.51292 0.23064 0.0
C519 C 0.55365 0.48139 0.17845 0.0
N520 N 0.47778 0.45977 0.16632 0.0
N521 N 0.48076 0.49916 0.22005 0.0
C522 C 0.5335 0.40398 0.08115 0.0
H523 H 0.50287 0.38007 0.06848 0.0
H524 H 0.56525 0.38831 0.09273 0.0
H525 H 0.5427 0.41048 0.0371 0.0
C526 C 0.40308 0.30829 0.16129 0.0
N527 N 0.39287 0.34052 0.14033 0.0
N528 N 0.42693 0.3716 0.16038 0.0
C529 C 0.45993 0.35961 0.19442 0.0
C530 C 0.44614 0.31895 0.19519 0.0
C531 C 0.37203 0.26838 0.15059 0.0
H532 H 0.34326 0.26449 0.11442 0.0
H533 H 0.394 0.23693 0.13281 0.0
H534 H 0.35553 0.27353 0.19918 0.0
O535 O 0.31058 0.40674 0.14464 0.0
O536 O 0.36513 0.46097 0.18114 0.0
H537 H 0.49347 0.42428 0.25137 0.0
H538 H 0.51487 0.37874 0.27012 0.0
C539 C 0.50241 0.38758 0.2295 0.0
H540 H 0.53199 0.38059 0.19284 0.0
H541 H 0.45193 0.51536 0.25152 0.0
O542 O 0.28606 0.30713 0.07709 0.0
C543 C 0.32171 0.44821 0.17694 0.0
C544 C 0.30192 0.0235 0.30912 0.0
C545 C 0.28371 0.05199 0.28133 0.0
C546 C 0.35138 0.01648 0.31067 0.0
C547 C 0.38369 0.03754 0.28419 0.0
H548 H 0.278 0.00743 0.33117 0.0
H549 H 0.36446 0.99546 0.33403 0.0
S550 S 0.35513 0.11344 0.20363 0.0
N551 N 0.30279 0.10031 0.22521 0.0
N552 N 0.3949 0.08596 0.2273 0.0
C553 C 0.36608 0.06495 0.25498 0.0
C554 C 0.31622 0.07249 0.25374 0.0
C555 C 0.85217 0.23897 0.41975 0.0
C556 C 0.8842 0.22071 0.45045 0.0
C557 C 0.80273 0.23167 0.42123 0.0
C558 C 0.78429 0.20557 0.45301 0.0
H559 H 0.86547 0.25791 0.39312 0.0
H560 H 0.7791 0.24524 0.39553 0.0
S561 S 0.85479 0.15154 0.5418 0.0
N562 N 0.89489 0.17695 0.5146 0.0
N563 N 0.80264 0.16286 0.51772 0.0
C564 C 0.81642 0.18824 0.48525 0.0
C565 C 0.86631 0.19582 0.48372 0.0
C566 C 0.3599 0.20324 0.98112 0.0
C567 C 0.37703 0.22439 0.94196 0.0
C568 C 0.31115 0.1948 0.98376 0.0
C569 C 0.27772 0.20673 0.94653 0.0
H570 H 0.3846 0.19219 0.00884 0.0
H571 H 0.29982 0.17782 0.01417 0.0
S572 S 0.30551 0.26176 0.83413 0.0
N573 N 0.35802 0.25661 0.86431 0.0
N574 N 0.26569 0.24071 0.86865 0.0
C575 C 0.29453 0.22845 0.90748 0.0
C576 C 0.34446 0.23706 0.90501 0.0
C577 C 0.85875 0.05302 0.74967 0.0
C578 C 0.8771 0.03218 0.78838 0.0
C579 C 0.80977 0.06096 0.74867 0.0
C580 C 0.77726 0.04892 0.78721 0.0
H581 H 0.88264 0.06393 0.72063 0.0
H582 H 0.79751 0.07745 0.71813 0.0
S583 S 0.80854 0.99553 0.90028 0.0
N584 N 0.86032 1.0007 0.86779 0.0
N585 N 0.76754 0.01583 0.86669 0.0
C586 C 0.79534 0.0279 0.82637 0.0
C587 C 0.84554 0.01974 0.82712 0.0
C588 C 0.66674 0.9436 0.72413 0.0
C589 C 0.70097 0.95454 0.68646 0.0
C590 C 0.61824 0.95252 0.72106 0.0
C591 C 0.60205 0.9732 0.68101 0.0
H592 H 0.67721 0.92731 0.75572 0.0
H593 H 0.59302 0.94267 0.74978 0.0
S594 S 0.67554 0.00697 0.57023 0.0
N595 N 0.71456 0.98632 0.60601 0.0
N596 N 0.62261 0.00333 0.60118 0.0
C597 C 0.63529 0.98451 0.64302 0.0
C598 C 0.68503 0.97529 0.64576 0.0
C599 C 0.12371 0.74804 0.59358 0.0
C600 C 0.10316 0.7775 0.56977 0.0
C601 C 0.1733 0.74745 0.6025 0.0
C602 C 0.20396 0.77651 0.58804 0.0
H603 H 0.1012 0.72555 0.60583 0.0
H604 H 0.18756 0.72417 0.62115 0.0
S605 S 0.16639 0.86065 0.52491 0.0
N606 N 0.11608 0.83671 0.53261 0.0
N607 N 0.20917 0.83587 0.54854 0.0
C608 C 0.18334 0.80632 0.56422 0.0
C609 C 0.13292 0.8069 0.55559 0.0
C610 C 0.68509 0.78079 0.07703 0.0
C611 C 0.70301 0.80735 0.04563 0.0
C612 C 0.63565 0.77291 0.07864 0.0
C613 C 0.60288 0.7914 0.04909 0.0
H614 H 0.70925 0.76653 0.10117 0.0
H615 H 0.62291 0.75291 0.1039 0.0
S616 S 0.63031 0.86407 0.96252 0.0
N617 N 0.68283 0.85261 0.98526 0.0
N618 N 0.5911 0.83695 0.98801 0.0
C619 C 0.62018 0.81764 0.01762 0.0
C620 C 0.66999 0.82581 0.01589 0.0
C621 C 0.12863 0.97199 0.20275 0.0
C622 C 0.1004 0.98346 0.16019 0.0
C623 C 0.17748 0.96342 0.19053 0.0
C624 C 0.19977 0.96597 0.13499 0.0
H625 H 0.11211 0.96712 0.24353 0.0
H626 H 0.19748 0.95284 0.22335 0.0
S627 S 0.14053 0.99415 0.0076 0.0
N628 N 0.09711 0.99676 0.06024 0.0
N629 N 0.18959 0.98082 0.03676 0.0
C630 C 0.17182 0.97792 0.09218 0.0
C631 C 0.12189 0.98664 0.10487 0.0
C632 C 0.31739 0.56245 0.74538 0.0
C633 C 0.28479 0.54765 0.78062 0.0
C634 C 0.36649 0.55541 0.74719 0.0
C635 C 0.38486 0.53272 0.78334 0.0
H636 H 0.30509 0.58029 0.71675 0.0
H637 H 0.39041 0.56818 0.72046 0.0
S638 S 0.31619 0.48911 0.88693 0.0
N639 N 0.27512 0.51043 0.85494 0.0
N640 N 0.3681 0.49691 0.85733 0.0
C641 C 0.35328 0.5178 0.81909 0.0
C642 C 0.30299 0.52512 0.81766 0.0
C643 C 0.81514 0.69352 -0.00996 0.0
C644 C 0.78302 0.7058 0.95169 0.0
C645 C 0.86432 0.70011 0.98751 0.0
C646 C 0.88322 0.71957 0.94711 0.0
H647 H 0.80238 0.67789 0.0216 0.0
H648 H 0.88791 0.68916 0.01659 0.0
S649 S 0.81586 0.75584 0.83458 0.0
N650 N 0.77429 0.73752 0.87046 0.0
N651 N 0.86742 0.74988 0.86625 0.0
C652 C 0.85206 0.73216 0.90848 0.0
C653 C 0.80169 0.72553 0.91095 0.0
C654 C 0.36351 0.68872 0.47141 0.0
C655 C 0.3811 0.71485 0.43986 0.0
C656 C 0.3145 0.68248 0.47551 0.0
C657 C 0.28128 0.70153 0.4471 0.0
H658 H 0.38791 0.67328 0.49364 0.0
H659 H 0.30273 0.66211 0.50072 0.0
S660 S 0.31058 0.76799 0.35115 0.0
N661 N 0.36307 0.75701 0.3751 0.0
N662 N 0.27008 0.74516 0.38209 0.0
C663 C 0.29869 0.72711 0.41403 0.0
C664 C 0.34893 0.73356 0.41018 0.0
C665 C 0.80054 0.52622 0.30639 0.0
C666 C 0.78223 0.55217 0.27446 0.0
C667 C 0.84988 0.51843 0.30708 0.0
C668 C 0.88209 0.53647 0.27603 0.0
H669 H 0.77677 0.51262 0.33215 0.0
H670 H 0.86297 0.49909 0.3331 0.0
S671 S 0.85345 0.60637 0.18585 0.0
N672 N 0.80111 0.59513 0.21008 0.0
N673 N 0.89334 0.58095 0.21296 0.0
C674 C 0.86451 0.56201 0.24374 0.0
C675 C 0.81462 0.56968 0.24241 0.0
C676 C 0.6208 0.45057 0.21771 0.0
C677 C 0.60522 0.47413 0.18137 0.0
C678 C 0.66907 0.44037 0.2194 0.0
C679 C 0.70374 0.45311 0.18426 0.0
H680 H 0.59525 0.43935 0.24441 0.0
H681 H 0.679 0.42177 0.24799 0.0
S682 S 0.68014 0.5148 0.07972 0.0
N683 N 0.62688 0.50934 0.10816 0.0
N684 N 0.71848 0.49055 0.11113 0.0
C685 C 0.68842 0.47683 0.14735 0.0
C686 C 0.63888 0.48715 0.14579 0.0
C687 C 0.16825 0.31703 0.01332 0.0
C688 C 0.20269 0.30307 0.04694 0.0
C689 C 0.12 0.30626 0.01388 0.0
C690 C 0.10416 0.28069 0.04727 0.0
H691 H 0.17834 0.33693 0.98663 0.0
H692 H 0.09479 0.31815 0.98789 0.0
S693 S 0.17851 0.23611 0.14394 0.0
N694 N 0.21696 0.26237 0.11557 0.0
N695 N 0.12546 0.24201 0.11583 0.0
C696 C 0.13764 0.26618 0.08101 0.0
C697 C 0.18716 0.27733 0.08089 0.0
C698 C 0.62194 0.30039 0.5078 0.0
C699 C 0.60556 0.27778 0.54528 0.0
C700 C 0.66989 0.31261 0.50931 0.0
C701 C 0.70336 0.30262 0.54848 0.0
H702 H 0.59713 0.30961 0.47816 0.0
H703 H 0.6806 0.33037 0.47971 0.0
S704 S 0.67687 0.24692 0.66036 0.0
N705 N 0.62485 0.24803 0.6258 0.0
N706 N 0.716 0.27018 0.62813 0.0
C707 C 0.68726 0.28004 0.5867 0.0
C708 C 0.638 0.26796 0.58544 0.0
C709 C 0.12325 0.44438 0.71264 0.0
C710 C 0.10797 0.46885 0.67746 0.0
C711 C 0.17159 0.43494 0.71559 0.0
C712 C 0.20657 0.44936 0.68293 0.0
H713 H 0.09752 0.43236 0.73814 0.0
H714 H 0.18137 0.41583 0.7435 0.0
S715 S 0.18372 0.51247 0.58026 0.0
N716 N 0.13017 0.506 0.60698 0.0
N717 N 0.22187 0.48829 0.61198 0.0
C718 C 0.19151 0.47362 0.64672 0.0
C719 C 0.14193 0.48329 0.64398 0.0
C720 C 0.0478 0.12485 0.14833 0.0
C721 C 0.09113 0.11726 0.17427 0.0
C722 C 0.04669 0.12841 0.087 0.0
C723 C 0.0891 0.12608 0.05121 0.0
H724 H 0.01461 0.12787 0.17548 0.0
H725 H 0.01274 0.13394 0.06818 0.0
S726 S 0.21151 0.10619 0.09689 0.0
N727 N 0.17718 0.10666 0.15822 0.0
N728 N 0.17508 0.11459 0.04464 0.0
C729 C 0.13243 0.1184 0.07649 0.0
C730 C 0.13346 0.11368 0.13765 0.0
C731 C 0.93335 0.87761 0.89757 0.0
C732 C 0.89034 0.87399 0.92829 0.0
C733 C 0.93313 0.88053 0.83576 0.0
C734 C 0.88982 0.88161 0.80425 0.0
H735 H 0.9673 0.87774 0.92113 0.0
H736 H 0.9669 0.88246 0.81286 0.0
S737 S 0.76765 0.87417 0.86496 0.0
N738 N 0.80352 0.87229 0.92294 0.0
N739 N 0.80311 0.87815 0.8077 0.0
C740 C 0.84673 0.8784 0.83484 0.0
C741 C 0.84698 0.87458 0.89675 0.0
C742 C 0.13198 0.62671 0.58384 0.0
C743 C 0.08907 0.6247 0.54966 0.0
C744 C 0.13215 0.62256 0.6443 0.0
C745 C 0.08936 0.61717 0.67362 0.0
H746 H 0.16588 0.63109 0.56334 0.0
H747 H 0.16606 0.62445 0.66899 0.0
S748 S 0.96734 0.61059 0.60531 0.0
N749 N 0.00258 0.61667 0.54936 0.0
N750 N 0.00288 0.61042 0.66488 0.0
C751 C 0.04609 0.61551 0.64059 0.0
C752 C 0.04597 0.61871 0.57795 0.0
C753 C 0.93372 0.38264 0.39921 0.0
C754 C 0.89197 0.37102 0.42438 0.0
C755 C 0.93366 0.38503 0.33707 0.0
C756 C 0.89145 0.37746 0.29951 0.0
H757 H 0.96666 0.3898 0.42763 0.0
H758 H 0.96651 0.39351 0.3188 0.0
S759 S 0.77305 0.34539 0.34185 0.0
N760 N 0.80769 0.35067 0.40519 0.0
N761 N 0.80748 0.35687 0.29013 0.0
C762 C 0.84968 0.36578 0.32381 0.0
C763 C 0.84995 0.36209 0.38584 0.0
C764 C 0.54832 0.1328 0.5847 0.0
C765 C 0.59195 0.13442 0.55376 0.0
C766 C 0.54744 0.12859 0.64558 0.0
C767 C 0.59011 0.12434 0.67602 0.0
H768 H 0.51478 0.13535 0.56213 0.0
H769 H 0.51324 0.12825 0.66865 0.0
S770 S 0.7135 0.12586 0.61432 0.0
N771 N 0.67864 0.13087 0.55769 0.0
N772 N 0.67698 0.12279 0.67121 0.0
C773 C 0.6338 0.12551 0.6451 0.0
C774 C 0.63471 0.13054 0.58412 0.0
C775 C 0.42466 0.87015 0.33242 0.0
C776 C 0.38221 0.8806 0.30774 0.0
C777 C 0.4252 0.86657 0.3937 0.0
C778 C 0.38299 0.87178 0.43114 0.0
H779 H 0.45781 0.86511 0.30448 0.0
H780 H 0.45869 0.85932 0.41166 0.0
S781 S 0.26252 0.89906 0.38914 0.0
N782 N 0.29692 0.89643 0.32653 0.0
N783 N 0.29798 0.88846 0.44037 0.0
C784 C 0.34039 0.88201 0.4071 0.0
C785 C 0.33996 0.8867 0.34571 0.0
C786 C 0.61958 0.65526 0.10575 0.0
C787 C 0.58801 0.6294 0.05348 0.0
C788 C 0.61947 0.65164 0.16666 0.0
C789 C 0.58781 0.62219 0.1778 0.0
H790 H 0.64554 0.67777 0.09925 0.0
H791 H 0.64479 0.67168 0.20517 0.0
S792 S 0.49735 0.54751 0.0597 0.0
N793 N 0.52348 0.57342 0.01839 0.0
N794 N 0.52359 0.56735 0.13381 0.0
C795 C 0.55556 0.59663 0.12722 0.0
C796 C 0.5556 0.60005 0.06478 0.0
C797 C 0.35188 0.37549 0.83211 0.0
C798 C 0.39514 0.37633 0.80001 0.0
C799 C 0.35152 0.37282 0.89374 0.0
C800 C 0.39441 0.37153 0.9258 0.0
H801 H 0.318 0.37637 0.809 0.0
H802 H 0.31738 0.37275 0.91716 0.0
S803 S 0.51713 0.37295 0.8626 0.0
N804 N 0.48189 0.37506 0.80405 0.0
N805 N 0.48125 0.37132 0.92125 0.0
C806 C 0.43793 0.37252 0.89443 0.0
C807 C 0.43828 0.3744 0.83097 0.0
C808 C 0.28875 0.2294 0.48406 0.0
C809 C 0.28165 0.27657 0.5176 0.0
C810 C 0.25025 0.19989 0.4563 0.0
C811 C 0.20295 0.21628 0.46088 0.0
H812 H 0.32425 0.215 0.4794 0.0
H813 H 0.25795 0.16378 0.43071 0.0
S814 S 0.16491 0.33716 0.54255 0.0
N815 N 0.22337 0.33863 0.55295 0.0
N816 N 0.15128 0.28279 0.5012 0.0
C817 C 0.19522 0.26336 0.4943 0.0
C818 C 0.23446 0.29356 0.5224 0.0
C819 C 0.01294 0.97958 0.52606 0.0
C820 C 0.96722 0.96256 0.50189 0.0
C821 C 0.03755 0.0071 0.50197 0.0
C822 C 0.01702 0.01836 0.45314 0.0
H823 H 0.02932 0.97228 0.56478 0.0
H824 H 0.07233 0.02037 0.52261 0.0
S825 S 0.90035 0.97864 0.36914 0.0
N826 N 0.90395 0.95603 0.42317 0.0
N827 N 0.94993 0.00841 0.37858 0.0
C828 C 0.97184 1.00073 0.42758 0.0
C829 C 0.94694 0.97258 0.45181 0.0
C830 C 0.23332 0.9596 0.71222 0.0
C831 C 0.2803 0.97632 0.71454 0.0
C832 C 0.19433 0.989 0.7384 0.0
C833 C 0.20067 0.03634 0.76801 0.0
H834 H 0.22634 0.92334 0.69013 0.0
H835 H 0.15919 0.97443 0.7364 0.0
S836 S 0.31591 0.09779 0.78375 0.0
N837 N 0.33055 0.0434 0.74711 0.0
N838 N 0.25757 0.09886 0.7956 0.0
C839 C 0.24739 0.05362 0.76958 0.0
C840 C 0.28709 0.02361 0.74321 0.0
C841 C 0.94753 0.27668 0.77078 0.0
C842 C 0.96955 0.28613 0.72079 0.0
C843 C 0.96956 0.24797 0.79492 0.0
C844 C 0.0141 0.22779 0.76953 0.0
H845 H 0.9132 0.29171 0.79145 0.0
H846 H 0.95196 0.24187 0.83413 0.0
S847 S 0.08433 0.23882 0.63448 0.0
N848 N 0.03703 0.27155 0.64465 0.0
N849 N 0.07807 0.21701 0.68923 0.0
C850 C 0.03604 0.23641 0.71886 0.0
C851 C 0.01382 0.26581 0.69468 0.0
C852 C 0.78733 0.73442 0.47363 0.0
C853 C 0.77878 0.77792 0.52511 0.0
C854 C 0.74944 0.70478 0.44269 0.0
C855 C 0.70145 0.71741 0.46209 0.0
H856 H 0.82345 0.72334 0.45631 0.0
H857 H 0.75807 0.67176 0.40264 0.0
S858 S 0.65981 0.82669 0.59725 0.0
N859 N 0.71851 0.83161 0.59626 0.0
N860 N 0.64767 0.77572 0.53764 0.0
C861 C 0.69237 0.76053 0.51414 0.0
C862 C 0.73092 0.79079 0.54577 0.0
C863 C 0.7504 0.05335 0.2729 0.0
C864 C 0.70273 0.03797 0.26862 0.0
C865 C 0.78832 0.02301 0.24515 0.0
C866 C 0.78023 0.97599 0.21187 0.0
H867 H 0.75885 0.08928 0.29833 0.0
H868 H 0.82417 0.03666 0.24969 0.0
S869 S 0.66206 0.91794 0.18726 0.0
N870 N 0.64954 0.97259 0.22858 0.0
N871 N 0.72061 0.91518 0.17669 0.0
C872 C 0.73264 0.96 0.20718 0.0
C873 C 0.69398 0.99105 0.23532 0.0
C874 C 0.01619 0.77979 0.2159 0.0
C875 C 0.96969 0.79649 0.23668 0.0
C876 C 0.03934 0.75303 0.24258 0.0
C877 C 0.01649 0.74197 0.29041 0.0
H878 H 0.03424 0.78648 0.17752 0.0
H879 H 0.07475 0.73989 0.22437 0.0
S880 S 0.89747 0.78198 0.36747 0.0
N881 N 0.90374 0.80395 0.3129 0.0
N882 N 0.94668 0.75234 0.36126 0.0
C883 C 0.97074 0.75963 0.31315 0.0
C884 C 0.94743 0.78728 0.28668 0.0
C885 C 0.23262 0.79384 0.01801 0.0
C886 C 0.28045 0.77934 0.01618 0.0
C887 C 0.19555 0.76282 -0.01126 0.0
C888 C 0.20465 0.71594 0.95614 0.0
H889 H 0.22335 0.82964 0.04269 0.0
H890 H 0.15956 0.77583 -0.00854 0.0
S891 S 0.32363 0.65996 0.93681 0.0
N892 N 0.33487 0.71483 0.97861 0.0
N893 N 0.26543 0.65619 0.92367 0.0
C894 C 0.25243 0.70082 0.95353 0.0
C895 C 0.29024 0.73256 0.98335 0.0
C896 C 0.97393 0.50362 0.93443 0.0
C897 C 0.01988 0.52043 0.95782 0.0
C898 C 0.95002 0.47514 0.95753 0.0
C899 C 0.97148 0.46245 0.0044 0.0
H900 H 0.95652 0.51237 0.89777 0.0
H901 H 0.9146 0.46291 0.93857 0.0
S902 S 0.08969 0.50006 0.08467 0.0
N903 N 0.0847 0.52453 0.03314 0.0
N904 N 0.04022 0.47018 0.07538 0.0
C905 C 0.01726 0.4792 0.02832 0.0
C906 C 0.04139 0.50846 0.0053 0.0
C907 C 0.19633 0.49451 0.23106 0.0
C908 C 0.20314 0.54178 0.26173 0.0
C909 C 0.23502 0.46486 0.20434 0.0
C910 C 0.2822 0.4812 0.20706 0.0
H911 H 0.16107 0.48015 0.22906 0.0
H912 H 0.22766 0.42866 0.18186 0.0
S913 S 0.31883 0.60243 0.27744 0.0
N914 N 0.26048 0.60394 0.28968 0.0
N915 N 0.33304 0.54794 0.24004 0.0
C916 C 0.28941 0.52845 0.23609 0.0
C917 C 0.24995 0.55876 0.26308 0.0
C918 C 0.78471 0.2315 0.97967 0.0
C919 C 0.77776 0.27796 0.0208 0.0
C920 C 0.74581 0.20269 0.95087 0.0
C921 C 0.69824 0.21911 0.962 0.0
H922 H 0.82043 0.21719 0.96929 0.0
H923 H 0.7534 0.16718 0.91906 0.0
S924 S 0.66013 0.33787 0.06705 0.0
N925 N 0.71898 0.33908 0.0721 0.0
N926 N 0.6464 0.28457 0.01784 0.0
C927 C 0.69064 0.26534 0.00347 0.0
C928 C 0.7302 0.29481 0.03283 0.0
C929 C 0.73961 0.46211 0.71292 0.0
C930 C 0.78632 0.47871 0.71276 0.0
C931 C 0.70097 0.49151 0.74047 0.0
C932 C 0.70741 0.53876 0.76931 0.0
H933 H 0.7325 0.42587 0.6916 0.0
H934 H 0.66602 0.477 0.74012 0.0
S935 S 0.82182 0.60004 0.77924 0.0
N936 N 0.83644 0.54561 0.7423 0.0
N937 N 0.76383 0.60127 0.7941 0.0
C938 C 0.75382 0.55604 0.76894 0.0
C939 C 0.79326 0.52595 0.74084 0.0
C940 C 0.43906 0.98849 0.97293 0.0
C941 C 0.4603 0.97906 0.02317 0.0
C942 C 0.46294 0.01501 0.94622 0.0
C943 C 0.50867 0.03287 0.96904 0.0
H944 H 0.4042 0.97467 0.95345 0.0
H945 H 0.44591 0.02101 0.90673 0.0
S946 S 0.57716 0.02194 0.10473 0.0
N947 N 0.5281 0.99188 0.09753 0.0
N948 N 0.57248 0.04244 0.04832 0.0
C949 C 0.52959 0.02476 0.02053 0.0
C950 C 0.50548 0.99761 0.04735 0.0
C951 C 0.45326 0.28115 0.27214 0.0
C952 C 0.4731 0.29117 0.22149 0.0
C953 C 0.47794 0.25373 0.29618 0.0
C954 C 0.52305 0.23539 0.27007 0.0
H955 H 0.41862 0.29478 0.29348 0.0
H956 H 0.46173 0.2469 0.33561 0.0
S957 S 0.58829 0.24858 0.133 0.0
N958 N 0.53923 0.27928 0.14399 0.0
N959 N 0.58519 0.22691 0.18822 0.0
C960 C 0.54292 0.24469 0.21882 0.0
C961 C 0.51799 0.27285 0.19473 0.0
C962 C 0.52055 0.77317 0.70439 0.0
C963 C 0.47413 0.78951 0.72627 0.0
C964 C 0.54366 0.74468 0.72809 0.0
C965 C 0.52089 0.73173 0.77415 0.0
H966 H 0.53854 0.78155 0.66757 0.0
H967 H 0.57914 0.73209 0.70946 0.0
S968 S 0.40178 0.76984 0.85245 0.0
N969 N 0.4079 0.79386 0.80042 0.0
N970 N 0.45121 0.74018 0.84459 0.0
C971 C 0.47515 0.74903 0.7978 0.0
C972 C 0.45176 0.77802 0.77393 0.0
C973 C 0.54064 0.50787 0.50304 0.0
C974 C 0.51958 0.51785 0.45323 0.0
C975 C 0.51745 0.47949 0.52695 0.0
C976 C 0.47265 0.4603 0.5016 0.0
H977 H 0.57473 0.52277 0.5245 0.0
H978 H 0.53409 0.4733 0.56652 0.0
S979 S 0.40523 0.4722 0.36585 0.0
N980 N 0.45326 0.50412 0.37625 0.0
N981 N 0.40985 0.45039 0.42076 0.0
C982 C 0.45197 0.46898 0.45047 0.0
C983 C 0.47544 0.49793 0.42637 0.0
loop_
_geom_bond_atom_site_label_1
_geom_bond_atom_site_label_2
_geom_bond_distance
_geom_bond_site_symmetry_2
_ccdc_geom_bond_type
Co0 O3 1.970 . S
Co0 N17 1.989 . S
Co0 O25 1.967 . S
Co0 O32 1.920 . S
Co1 O4 1.966 . S
Co1 N10 2.022 1_455 S
Co1 N18 1.993 . S
Co1 O26 1.941 . S
C2 O3 1.258 . S
C2 O4 1.263 . S
O3 Co0 1.970 . S
O3 C2 1.258 . S
O4 Co1 1.966 . S
O4 C2 1.263 . S
C5 O6 1.235 . S
C5 O32 1.289 . S
O6 C5 1.235 . S
C7 C9 1.400 . S
C7 N10 1.351 . S
C7 C12 1.501 . S
C8 C9 1.387 . S
C8 N11 1.341 . S
C9 C7 1.400 . S
C9 C8 1.387 . S
N10 Co1 2.022 1_655 S
N10 C7 1.351 . S
N10 N11 1.365 . S
N11 C8 1.341 . S
N11 N10 1.365 . S
N11 H31 0.862 . S
C12 C7 1.501 . S
C12 H13 0.961 . S
C12 H14 0.961 . S
C12 H15 0.960 . S
H13 C12 0.961 . S
H14 C12 0.961 . S
H15 C12 0.960 . S
C16 N17 1.342 . S
C16 C20 1.401 . S
C16 C21 1.499 . S
N17 Co0 1.989 . S
N17 C16 1.342 . S
N17 N18 1.388 . S
N18 Co1 1.993 . S
N18 N17 1.388 . S
N18 C19 1.346 . S
C19 N18 1.346 . S
C19 C20 1.396 . S
C19 C29 1.510 1_455 S
C20 C16 1.401 . S
C20 C19 1.396 . S
C21 C16 1.499 . S
C21 H22 0.959 . S
C21 H23 0.960 . S
C21 H24 0.961 . S
H22 C21 0.959 . S
H23 C21 0.960 . S
H24 C21 0.961 . S
O25 Co0 1.967 . S
O25 C33 1.258 . S
O26 Co1 1.941 . S
O26 C33 1.266 . S
H27 C29 0.959 . S
H28 C29 0.961 . S
C29 C19 1.510 1_655 S
C29 H27 0.959 . S
C29 H28 0.961 . S
C29 H30 0.960 . S
H30 C29 0.960 . S
H31 N11 0.862 . S
O32 Co0 1.920 . S
O32 C5 1.289 . S
C33 O25 1.258 . S
C33 O26 1.266 . S
Co34 O37 1.970 . S
Co34 N51 1.989 . S
Co34 O59 1.967 . S
Co34 O66 1.920 . S
Co35 O38 1.966 . S
Co35 N44 2.022 1_455 S
Co35 N52 1.993 . S
Co35 O60 1.941 . S
C36 O37 1.258 . S
C36 O38 1.263 . S
O37 Co34 1.970 . S
O37 C36 1.258 . S
O38 Co35 1.966 . S
O38 C36 1.263 . S
C39 O40 1.235 . S
C39 O66 1.289 . S
O40 C39 1.235 . S
C41 C43 1.400 . S
C41 N44 1.351 . S
C41 C46 1.501 . S
C42 C43 1.387 . S
C42 N45 1.341 . S
C43 C41 1.400 . S
C43 C42 1.387 . S
N44 Co35 2.022 1_655 S
N44 C41 1.351 . S
N44 N45 1.365 . S
N45 C42 1.341 . S
N45 N44 1.365 . S
N45 H65 0.862 . S
C46 C41 1.501 . S
C46 H47 0.961 . S
C46 H48 0.961 . S
C46 H49 0.960 . S
H47 C46 0.961 . S
H48 C46 0.961 . S
H49 C46 0.960 . S
C50 N51 1.342 . S
C50 C54 1.401 . S
C50 C55 1.499 . S
N51 Co34 1.989 . S
N51 C50 1.342 . S
N51 N52 1.388 . S
N52 Co35 1.993 . S
N52 N51 1.388 . S
N52 C53 1.346 . S
C53 N52 1.346 . S
C53 C54 1.396 . S
C53 C63 1.510 1_455 S
C54 C50 1.401 . S
C54 C53 1.396 . S
C55 C50 1.499 . S
C55 H56 0.959 . S
C55 H57 0.960 . S
C55 H58 0.961 . S
H56 C55 0.959 . S
H57 C55 0.960 . S
H58 C55 0.961 . S
O59 Co34 1.967 . S
O59 C67 1.258 . S
O60 Co35 1.941 . S
O60 C67 1.266 . S
H61 C63 0.959 . S
H62 C63 0.961 . S
C63 C53 1.510 1_655 S
C63 H61 0.959 . S
C63 H62 0.961 . S
C63 H64 0.960 . S
H64 C63 0.960 . S
H65 N45 0.862 . S
O66 Co34 1.920 . S
O66 C39 1.289 . S
C67 O59 1.258 . S
C67 O60 1.266 . S
Co68 O71 1.970 . S
Co68 N85 1.989 . S
Co68 O93 1.967 . S
Co68 O100 1.920 . S
Co69 O72 1.966 . S
Co69 N78 2.022 1_655 S
Co69 N86 1.993 . S
Co69 O94 1.941 . S
C70 O71 1.258 . S
C70 O72 1.263 . S
O71 Co68 1.970 . S
O71 C70 1.258 . S
O72 Co69 1.966 . S
O72 C70 1.263 . S
C73 O74 1.235 . S
C73 O100 1.289 . S
O74 C73 1.235 . S
C75 C77 1.400 . S
C75 N78 1.351 . S
C75 C80 1.501 . S
C76 C77 1.387 . S
C76 N79 1.341 . S
C77 C75 1.400 . S
C77 C76 1.387 . S
N78 Co69 2.022 1_455 S
N78 C75 1.351 . S
N78 N79 1.365 . S
N79 C76 1.341 . S
N79 N78 1.365 . S
N79 H99 0.862 . S
C80 C75 1.501 . S
C80 H81 0.961 . S
C80 H82 0.961 . S
C80 H83 0.960 . S
H81 C80 0.961 . S
H82 C80 0.961 . S
H83 C80 0.960 . S
C84 N85 1.342 . S
C84 C88 1.401 . S
C84 C89 1.499 . S
N85 Co68 1.989 . S
N85 C84 1.342 . S
N85 N86 1.388 . S
N86 Co69 1.993 . S
N86 N85 1.388 . S
N86 C87 1.346 . S
C87 N86 1.346 . S
C87 C88 1.396 . S
C87 C97 1.510 1_655 S
C88 C84 1.401 . S
C88 C87 1.396 . S
C89 C84 1.499 . S
C89 H90 0.959 . S
C89 H91 0.960 . S
C89 H92 0.961 . S
H90 C89 0.959 . S
H91 C89 0.960 . S
H92 C89 0.961 . S
O93 Co68 1.967 . S
O93 C101 1.258 . S
O94 Co69 1.941 . S
O94 C101 1.266 . S
H95 C97 0.959 . S
H96 C97 0.961 . S
C97 C87 1.510 1_455 S
C97 H95 0.959 . S
C97 H96 0.961 . S
C97 H98 0.960 . S
H98 C97 0.960 . S
H99 N79 0.862 . S
O100 Co68 1.920 . S
O100 C73 1.289 . S
C101 O93 1.258 . S
C101 O94 1.266 . S
Co102 O105 1.970 . S
Co102 N119 1.989 . S
Co102 O127 1.967 . S
Co102 O134 1.920 . S
Co103 O106 1.966 . S
Co103 N112 2.022 1_655 S
Co103 N120 1.993 . S
Co103 O128 1.941 . S
C104 O105 1.258 . S
C104 O106 1.263 . S
O105 Co102 1.970 . S
O105 C104 1.258 . S
O106 Co103 1.966 . S
O106 C104 1.263 . S
C107 O108 1.235 . S
C107 O134 1.289 . S
O108 C107 1.235 . S
C109 C111 1.400 . S
C109 N112 1.351 . S
C109 C114 1.501 . S
C110 C111 1.387 . S
C110 N113 1.341 . S
C111 C109 1.400 . S
C111 C110 1.387 . S
N112 Co103 2.022 1_455 S
N112 C109 1.351 . S
N112 N113 1.365 . S
N113 C110 1.341 . S
N113 N112 1.365 . S
N113 H133 0.862 . S
C114 C109 1.501 . S
C114 H115 0.961 . S
C114 H116 0.961 . S
C114 H117 0.960 . S
H115 C114 0.961 . S
H116 C114 0.961 . S
H117 C114 0.960 . S
C118 N119 1.342 . S
C118 C122 1.401 . S
C118 C123 1.499 . S
N119 Co102 1.989 . S
N119 C118 1.342 . S
N119 N120 1.388 . S
N120 Co103 1.993 . S
N120 N119 1.388 . S
N120 C121 1.346 . S
C121 N120 1.346 . S
C121 C122 1.396 . S
C121 C131 1.510 1_655 S
C122 C118 1.401 . S
C122 C121 1.396 . S
C123 C118 1.499 . S
C123 H124 0.959 . S
C123 H125 0.960 . S
C123 H126 0.961 . S
H124 C123 0.959 . S
H125 C123 0.960 . S
H126 C123 0.961 . S
O127 Co102 1.967 . S
O127 C135 1.258 . S
O128 Co103 1.941 . S
O128 C135 1.266 . S
H129 C131 0.959 . S
H130 C131 0.961 . S
C131 C121 1.510 1_455 S
C131 H129 0.959 . S
C131 H130 0.961 . S
C131 H132 0.960 . S
H132 C131 0.960 . S
H133 N113 0.862 . S
O134 Co102 1.920 . S
O134 C107 1.289 . S
C135 O127 1.258 . S
C135 O128 1.266 . S
Co136 O139 1.970 . S
Co136 N153 1.989 . S
Co136 O161 1.967 . S
Co136 O168 1.920 . S
Co137 O140 1.966 . S
Co137 N146 2.022 1_455 S
Co137 N154 1.993 . S
Co137 O162 1.941 . S
C138 O139 1.258 . S
C138 O140 1.263 . S
O139 Co136 1.970 . S
O139 C138 1.258 . S
O140 Co137 1.966 . S
O140 C138 1.263 . S
C141 O142 1.235 . S
C141 O168 1.289 . S
O142 C141 1.235 . S
C143 C145 1.400 . S
C143 N146 1.351 . S
C143 C148 1.501 . S
C144 C145 1.387 . S
C144 N147 1.341 . S
C145 C143 1.400 . S
C145 C144 1.387 . S
N146 Co137 2.022 1_655 S
N146 C143 1.351 . S
N146 N147 1.365 . S
N147 C144 1.341 . S
N147 N146 1.365 . S
N147 H167 0.862 1_556 S
C148 C143 1.501 . S
C148 H149 0.961 . S
C148 H150 0.961 . S
C148 H151 0.960 . S
H149 C148 0.961 . S
H150 C148 0.961 . S
H151 C148 0.960 . S
C152 N153 1.342 . S
C152 C156 1.401 . S
C152 C157 1.499 . S
N153 Co136 1.989 . S
N153 C152 1.342 . S
N153 N154 1.388 . S
N154 Co137 1.993 . S
N154 N153 1.388 . S
N154 C155 1.346 . S
C155 N154 1.346 . S
C155 C156 1.396 . S
C155 C165 1.510 1_455 S
C156 C152 1.401 . S
C156 C155 1.396 . S
C157 C152 1.499 . S
C157 H158 0.959 . S
C157 H159 0.960 . S
C157 H160 0.961 . S
H158 C157 0.959 . S
H159 C157 0.960 . S
H160 C157 0.961 . S
O161 Co136 1.967 . S
O161 C169 1.258 . S
O162 Co137 1.941 . S
O162 C169 1.266 . S
H163 C165 0.959 . S
H164 C165 0.961 . S
C165 C155 1.510 1_655 S
C165 H163 0.959 . S
C165 H164 0.961 . S
C165 H166 0.960 . S
H166 C165 0.960 . S
H167 N147 0.862 1_554 S
O168 Co136 1.920 . S
O168 C141 1.289 . S
C169 O161 1.258 . S
C169 O162 1.266 . S
Co170 O173 1.970 . S
Co170 N187 1.989 . S
Co170 O195 1.967 . S
Co170 O202 1.920 . S
Co171 O174 1.966 . S
Co171 N180 2.022 1_455 S
Co171 N188 1.993 . S
Co171 O196 1.941 . S
C172 O173 1.258 . S
C172 O174 1.263 . S
O173 Co170 1.970 . S
O173 C172 1.258 . S
O174 Co171 1.966 . S
O174 C172 1.263 . S
C175 O176 1.235 . S
C175 O202 1.289 . S
O176 C175 1.235 . S
C177 C179 1.400 . S
C177 N180 1.351 . S
C177 C182 1.501 . S
C178 C179 1.387 . S
C178 N181 1.341 . S
C179 C177 1.400 . S
C179 C178 1.387 . S
N180 Co171 2.022 1_655 S
N180 C177 1.351 . S
N180 N181 1.365 . S
N181 C178 1.341 . S
N181 N180 1.365 . S
N181 H201 0.862 . S
C182 C177 1.501 . S
C182 H183 0.961 . S
C182 H184 0.961 . S
C182 H185 0.960 . S
H183 C182 0.961 . S
H184 C182 0.961 . S
H185 C182 0.960 . S
C186 N187 1.342 . S
C186 C190 1.401 . S
C186 C191 1.499 . S
N187 Co170 1.989 . S
N187 C186 1.342 . S
N187 N188 1.388 . S
N188 Co171 1.993 . S
N188 N187 1.388 . S
N188 C189 1.346 . S
C189 N188 1.346 . S
C189 C190 1.396 . S
C189 C199 1.510 1_455 S
C190 C186 1.401 . S
C190 C189 1.396 . S
C191 C186 1.499 . S
C191 H192 0.959 . S
C191 H193 0.960 . S
C191 H194 0.961 . S
H192 C191 0.959 . S
H193 C191 0.960 . S
H194 C191 0.961 . S
O195 Co170 1.967 . S
O195 C203 1.258 . S
O196 Co171 1.941 . S
O196 C203 1.266 . S
H197 C199 0.959 . S
H198 C199 0.961 . S
C199 C189 1.510 1_655 S
C199 H197 0.959 . S
C199 H198 0.961 . S
C199 H200 0.960 . S
H200 C199 0.960 . S
H201 N181 0.862 . S
O202 Co170 1.920 . S
O202 C175 1.289 . S
C203 O195 1.258 . S
C203 O196 1.266 . S
Co204 O207 1.970 . S
Co204 N221 1.989 . S
Co204 O229 1.967 . S
Co204 O236 1.920 . S
Co205 O208 1.966 . S
Co205 N214 2.022 1_655 S
Co205 N222 1.993 . S
Co205 O230 1.941 . S
C206 O207 1.258 . S
C206 O208 1.263 . S
O207 Co204 1.970 . S
O207 C206 1.258 . S
O208 Co205 1.966 . S
O208 C206 1.263 . S
C209 O210 1.235 . S
C209 O236 1.289 . S
O210 C209 1.235 . S
C211 C213 1.400 . S
C211 N214 1.351 . S
C211 C216 1.501 . S
C212 C213 1.387 . S
C212 N215 1.341 . S
C213 C211 1.400 . S
C213 C212 1.387 . S
N214 Co205 2.022 1_455 S
N214 C211 1.351 . S
N214 N215 1.365 . S
N215 C212 1.341 . S
N215 N214 1.365 . S
N215 H235 0.862 1_554 S
C216 C211 1.501 . S
C216 H217 0.961 . S
C216 H218 0.961 . S
C216 H219 0.960 . S
H217 C216 0.961 . S
H218 C216 0.961 . S
H219 C216 0.960 . S
C220 N221 1.342 . S
C220 C224 1.401 . S
C220 C225 1.499 . S
N221 Co204 1.989 . S
N221 C220 1.342 . S
N221 N222 1.388 . S
N222 Co205 1.993 . S
N222 N221 1.388 . S
N222 C223 1.346 . S
C223 N222 1.346 . S
C223 C224 1.396 . S
C223 C233 1.510 1_655 S
C224 C220 1.401 . S
C224 C223 1.396 . S
C225 C220 1.499 . S
C225 H226 0.959 . S
C225 H227 0.960 . S
C225 H228 0.961 . S
H226 C225 0.959 . S
H227 C225 0.960 . S
H228 C225 0.961 . S
O229 Co204 1.967 . S
O229 C237 1.258 . S
O230 Co205 1.941 . S
O230 C237 1.266 . S
H231 C233 0.959 . S
H232 C233 0.961 . S
C233 C223 1.510 1_455 S
C233 H231 0.959 . S
C233 H232 0.961 . S
C233 H234 0.960 . S
H234 C233 0.960 . S
H235 N215 0.862 1_556 S
O236 Co204 1.920 . S
O236 C209 1.289 . S
C237 O229 1.258 . S
C237 O230 1.266 . S
Co238 O241 1.970 . S
Co238 N255 1.989 . S
Co238 O263 1.967 . S
Co238 O270 1.920 . S
Co239 O242 1.966 . S
Co239 N248 2.022 1_655 S
Co239 N256 1.993 . S
Co239 O264 1.941 . S
C240 O241 1.258 . S
C240 O242 1.263 . S
O241 Co238 1.970 . S
O241 C240 1.258 . S
O242 Co239 1.966 . S
O242 C240 1.263 . S
C243 O244 1.235 . S
C243 O270 1.289 . S
O244 C243 1.235 . S
C245 C247 1.400 . S
C245 N248 1.351 . S
C245 C250 1.501 . S
C246 C247 1.387 . S
C246 N249 1.341 . S
C247 C245 1.400 . S
C247 C246 1.387 . S
N248 Co239 2.022 1_455 S
N248 C245 1.351 . S
N248 N249 1.365 . S
N249 C246 1.341 . S
N249 N248 1.365 . S
N249 H269 0.862 . S
C250 C245 1.501 . S
C250 H251 0.961 . S
C250 H252 0.961 . S
C250 H253 0.960 . S
H251 C250 0.961 . S
H252 C250 0.961 . S
H253 C250 0.960 . S
C254 N255 1.342 . S
C254 C258 1.401 . S
C254 C259 1.499 . S
N255 Co238 1.989 . S
N255 C254 1.342 . S
N255 N256 1.388 . S
N256 Co239 1.993 . S
N256 N255 1.388 . S
N256 C257 1.346 . S
C257 N256 1.346 . S
C257 C258 1.396 . S
C257 C267 1.510 1_655 S
C258 C254 1.401 . S
C258 C257 1.396 . S
C259 C254 1.499 . S
C259 H260 0.959 . S
C259 H261 0.960 . S
C259 H262 0.961 . S
H260 C259 0.959 . S
H261 C259 0.960 . S
H262 C259 0.961 . S
O263 Co238 1.967 . S
O263 C271 1.258 . S
O264 Co239 1.941 . S
O264 C271 1.266 . S
H265 C267 0.959 . S
H266 C267 0.961 . S
C267 C257 1.510 1_455 S
C267 H265 0.959 . S
C267 H266 0.961 . S
C267 H268 0.960 . S
H268 C267 0.960 . S
H269 N249 0.862 . S
O270 Co238 1.920 . S
O270 C243 1.289 . S
C271 O263 1.258 . S
C271 O264 1.266 . S
Co272 O275 1.970 . S
Co272 N289 1.989 . S
Co272 O297 1.967 . S
Co272 O304 1.920 . S
Co273 O276 1.966 . S
Co273 N282 2.022 . S
Co273 N290 1.993 . S
Co273 O298 1.941 . S
C274 O275 1.258 . S
C274 O276 1.263 . S
O275 Co272 1.970 . S
O275 C274 1.258 . S
O276 Co273 1.966 . S
O276 C274 1.263 . S
C277 O278 1.235 . S
C277 O304 1.289 . S
O278 C277 1.235 . S
C279 C281 1.400 . S
C279 N282 1.351 . S
C279 C284 1.501 . S
C280 C281 1.387 . S
C280 N283 1.341 . S
C281 C279 1.400 . S
C281 C280 1.387 . S
N282 Co273 2.022 . S
N282 C279 1.351 . S
N282 N283 1.365 . S
N283 C280 1.341 . S
N283 N282 1.365 . S
N283 H303 0.862 1_556 S
C284 C279 1.501 . S
C284 H285 0.961 . S
C284 H286 0.961 . S
C284 H287 0.960 . S
H285 C284 0.961 . S
H286 C284 0.961 . S
H287 C284 0.960 . S
C288 N289 1.342 . S
C288 C292 1.401 . S
C288 C293 1.499 . S
N289 Co272 1.989 . S
N289 C288 1.342 . S
N289 N290 1.388 . S
N290 Co273 1.993 . S
N290 N289 1.388 . S
N290 C291 1.346 . S
C291 N290 1.346 . S
C291 C292 1.396 . S
C291 C301 1.510 . S
C292 C288 1.401 . S
C292 C291 1.396 . S
C293 C288 1.499 . S
C293 H294 0.959 . S
C293 H295 0.960 . S
C293 H296 0.961 . S
H294 C293 0.959 . S
H295 C293 0.960 . S
H296 C293 0.961 . S
O297 Co272 1.967 . S
O297 C305 1.258 . S
O298 Co273 1.941 . S
O298 C305 1.266 . S
H299 C301 0.959 . S
H300 C301 0.961 . S
C301 C291 1.510 . S
C301 H299 0.959 . S
C301 H300 0.961 . S
C301 H302 0.960 . S
H302 C301 0.960 . S
H303 N283 0.862 1_554 S
O304 Co272 1.920 . S
O304 C277 1.289 . S
C305 O297 1.258 . S
C305 O298 1.266 . S
Co306 O309 1.970 . S
Co306 N323 1.989 . S
Co306 O331 1.967 . S
Co306 O338 1.920 . S
Co307 O310 1.966 . S
Co307 N316 2.022 . S
Co307 N324 1.993 . S
Co307 O332 1.941 . S
C308 O309 1.258 . S
C308 O310 1.263 . S
O309 Co306 1.970 . S
O309 C308 1.258 . S
O310 Co307 1.966 . S
O310 C308 1.263 . S
C311 O312 1.235 . S
C311 O338 1.289 . S
O312 C311 1.235 . S
C313 C315 1.400 . S
C313 N316 1.351 . S
C313 C318 1.501 . S
C314 C315 1.387 . S
C314 N317 1.341 . S
C315 C313 1.400 . S
C315 C314 1.387 . S
N316 Co307 2.022 . S
N316 C313 1.351 . S
N316 N317 1.365 . S
N317 C314 1.341 . S
N317 N316 1.365 . S
N317 H337 0.862 . S
C318 C313 1.501 . S
C318 H319 0.961 . S
C318 H320 0.961 . S
C318 H321 0.960 . S
H319 C318 0.961 . S
H320 C318 0.961 . S
H321 C318 0.960 . S
C322 N323 1.342 . S
C322 C326 1.401 . S
C322 C327 1.499 . S
N323 Co306 1.989 . S
N323 C322 1.342 . S
N323 N324 1.388 . S
N324 Co307 1.993 . S
N324 N323 1.388 . S
N324 C325 1.346 . S
C325 N324 1.346 . S
C325 C326 1.396 . S
C325 C335 1.510 . S
C326 C322 1.401 . S
C326 C325 1.396 . S
C327 C322 1.499 . S
C327 H328 0.959 . S
C327 H329 0.960 . S
C327 H330 0.961 . S
H328 C327 0.959 . S
H329 C327 0.960 . S
H330 C327 0.961 . S
O331 Co306 1.967 . S
O331 C339 1.258 . S
O332 Co307 1.941 . S
O332 C339 1.266 . S
H333 C335 0.959 . S
H334 C335 0.961 . S
C335 C325 1.510 . S
C335 H333 0.959 . S
C335 H334 0.961 . S
C335 H336 0.960 . S
H336 C335 0.960 . S
H337 N317 0.862 . S
O338 Co306 1.920 . S
O338 C311 1.289 . S
C339 O331 1.258 . S
C339 O332 1.266 . S
Co340 O343 1.970 . S
Co340 N357 1.989 . S
Co340 O365 1.967 . S
Co340 O372 1.920 . S
Co341 O344 1.966 . S
Co341 N350 2.022 . S
Co341 N358 1.993 . S
Co341 O366 1.941 . S
C342 O343 1.258 . S
C342 O344 1.263 . S
O343 Co340 1.970 . S
O343 C342 1.258 . S
O344 Co341 1.966 . S
O344 C342 1.263 . S
C345 O346 1.235 . S
C345 O372 1.289 . S
O346 C345 1.235 . S
C347 C349 1.400 . S
C347 N350 1.351 . S
C347 C352 1.501 . S
C348 C349 1.387 . S
C348 N351 1.341 . S
C349 C347 1.400 . S
C349 C348 1.387 . S
N350 Co341 2.022 . S
N350 C347 1.351 . S
N350 N351 1.365 . S
N351 C348 1.341 . S
N351 N350 1.365 . S
N351 H371 0.862 1_554 S
C352 C347 1.501 . S
C352 H353 0.961 . S
C352 H354 0.961 . S
C352 H355 0.960 . S
H353 C352 0.961 . S
H354 C352 0.961 . S
H355 C352 0.960 . S
C356 N357 1.342 . S
C356 C360 1.401 . S
C356 C361 1.499 . S
N357 Co340 1.989 . S
N357 C356 1.342 . S
N357 N358 1.388 . S
N358 Co341 1.993 . S
N358 N357 1.388 . S
N358 C359 1.346 . S
C359 N358 1.346 . S
C359 C360 1.396 . S
C359 C369 1.510 . S
C360 C356 1.401 . S
C360 C359 1.396 . S
C361 C356 1.499 . S
C361 H362 0.959 . S
C361 H363 0.960 . S
C361 H364 0.961 . S
H362 C361 0.959 . S
H363 C361 0.960 . S
H364 C361 0.961 . S
O365 Co340 1.967 . S
O365 C373 1.258 . S
O366 Co341 1.941 . S
O366 C373 1.266 . S
H367 C369 0.959 . S
H368 C369 0.961 . S
C369 C359 1.510 . S
C369 H367 0.959 . S
C369 H368 0.961 . S
C369 H370 0.960 . S
H370 C369 0.960 . S
H371 N351 0.862 1_556 S
O372 Co340 1.920 . S
O372 C345 1.289 . S
C373 O365 1.258 . S
C373 O366 1.266 . S
Co374 O377 1.970 . S
Co374 N391 1.989 . S
Co374 O399 1.967 . S
Co374 O406 1.920 . S
Co375 O378 1.966 . S
Co375 N384 2.022 . S
Co375 N392 1.993 . S
Co375 O400 1.941 . S
C376 O377 1.258 . S
C376 O378 1.263 . S
O377 Co374 1.970 . S
O377 C376 1.258 . S
O378 Co375 1.966 . S
O378 C376 1.263 . S
C379 O380 1.235 . S
C379 O406 1.289 . S
O380 C379 1.235 . S
C381 C383 1.400 . S
C381 N384 1.351 . S
C381 C386 1.501 . S
C382 C383 1.387 . S
C382 N385 1.341 . S
C383 C381 1.400 . S
C383 C382 1.387 . S
N384 Co375 2.022 . S
N384 C381 1.351 . S
N384 N385 1.365 . S
N385 C382 1.341 . S
N385 N384 1.365 . S
N385 H405 0.862 . S
C386 C381 1.501 . S
C386 H387 0.961 . S
C386 H388 0.961 . S
C386 H389 0.960 . S
H387 C386 0.961 . S
H388 C386 0.961 . S
H389 C386 0.960 . S
C390 N391 1.342 . S
C390 C394 1.401 . S
C390 C395 1.499 . S
N391 Co374 1.989 . S
N391 C390 1.342 . S
N391 N392 1.388 . S
N392 Co375 1.993 . S
N392 N391 1.388 . S
N392 C393 1.346 . S
C393 N392 1.346 . S
C393 C394 1.396 . S
C393 C403 1.510 . S
C394 C390 1.401 . S
C394 C393 1.396 . S
C395 C390 1.499 . S
C395 H396 0.959 . S
C395 H397 0.960 . S
C395 H398 0.961 . S
H396 C395 0.959 . S
H397 C395 0.960 . S
H398 C395 0.961 . S
O399 Co374 1.967 . S
O399 C407 1.258 . S
O400 Co375 1.941 . S
O400 C407 1.266 . S
H401 C403 0.959 . S
H402 C403 0.961 . S
C403 C393 1.510 . S
C403 H401 0.959 . S
C403 H402 0.961 . S
C403 H404 0.960 . S
H404 C403 0.960 . S
H405 N385 0.862 . S
O406 Co374 1.920 . S
O406 C379 1.289 . S
C407 O399 1.258 . S
C407 O400 1.266 . S
Co408 O411 1.970 . S
Co408 N425 1.989 . S
Co408 O433 1.967 . S
Co408 O440 1.920 . S
Co409 O412 1.966 . S
Co409 N418 2.022 . S
Co409 N426 1.993 . S
Co409 O434 1.941 . S
C410 O411 1.258 . S
C410 O412 1.263 . S
O411 Co408 1.970 . S
O411 C410 1.258 . S
O412 Co409 1.966 . S
O412 C410 1.263 . S
C413 O414 1.235 . S
C413 O440 1.289 . S
O414 C413 1.235 . S
C415 C417 1.400 . S
C415 N418 1.351 . S
C415 C420 1.501 . S
C416 C417 1.387 . S
C416 N419 1.341 . S
C417 C415 1.400 . S
C417 C416 1.387 . S
N418 Co409 2.022 . S
N418 C415 1.351 . S
N418 N419 1.365 . S
N419 C416 1.341 . S
N419 N418 1.365 . S
N419 H439 0.862 . S
C420 C415 1.501 . S
C420 H421 0.961 . S
C420 H422 0.961 . S
C420 H423 0.960 . S
H421 C420 0.961 . S
H422 C420 0.961 . S
H423 C420 0.960 . S
C424 N425 1.342 . S
C424 C428 1.401 . S
C424 C429 1.499 . S
N425 Co408 1.989 . S
N425 C424 1.342 . S
N425 N426 1.388 . S
N426 Co409 1.993 . S
N426 N425 1.388 . S
N426 C427 1.346 . S
C427 N426 1.346 . S
C427 C428 1.396 . S
C427 C437 1.510 . S
C428 C424 1.401 . S
C428 C427 1.396 . S
C429 C424 1.499 . S
C429 H430 0.959 . S
C429 H431 0.960 . S
C429 H432 0.961 . S
H430 C429 0.959 . S
H431 C429 0.960 . S
H432 C429 0.961 . S
O433 Co408 1.967 . S
O433 C441 1.258 . S
O434 Co409 1.941 . S
O434 C441 1.266 . S
H435 C437 0.959 . S
H436 C437 0.961 . S
C437 C427 1.510 . S
C437 H435 0.959 . S
C437 H436 0.961 . S
C437 H438 0.960 . S
H438 C437 0.960 . S
H439 N419 0.862 . S
O440 Co408 1.920 . S
O440 C413 1.289 . S
C441 O433 1.258 . S
C441 O434 1.266 . S
Co442 O445 1.970 . S
Co442 N459 1.989 . S
Co442 O467 1.967 . S
Co442 O474 1.920 . S
Co443 O446 1.966 . S
Co443 N452 2.022 . S
Co443 N460 1.993 . S
Co443 O468 1.941 . S
C444 O445 1.258 . S
C444 O446 1.263 . S
O445 Co442 1.970 . S
O445 C444 1.258 . S
O446 Co443 1.966 . S
O446 C444 1.263 . S
C447 O448 1.235 . S
C447 O474 1.289 . S
O448 C447 1.235 . S
C449 C451 1.400 . S
C449 N452 1.351 . S
C449 C454 1.501 . S
C450 C451 1.387 . S
C450 N453 1.341 . S
C451 C449 1.400 . S
C451 C450 1.387 . S
N452 Co443 2.022 . S
N452 C449 1.351 . S
N452 N453 1.365 . S
N453 C450 1.341 . S
N453 N452 1.365 . S
N453 H473 0.862 . S
C454 C449 1.501 . S
C454 H455 0.961 . S
C454 H456 0.961 . S
C454 H457 0.960 . S
H455 C454 0.961 . S
H456 C454 0.961 . S
H457 C454 0.960 . S
C458 N459 1.342 . S
C458 C462 1.401 . S
C458 C463 1.499 . S
N459 Co442 1.989 . S
N459 C458 1.342 . S
N459 N460 1.388 . S
N460 Co443 1.993 . S
N460 N459 1.388 . S
N460 C461 1.346 . S
C461 N460 1.346 . S
C461 C462 1.396 . S
C461 C471 1.510 . S
C462 C458 1.401 . S
C462 C461 1.396 . S
C463 C458 1.499 . S
C463 H464 0.959 . S
C463 H465 0.960 . S
C463 H466 0.961 . S
H464 C463 0.959 . S
H465 C463 0.960 . S
H466 C463 0.961 . S
O467 Co442 1.967 . S
O467 C475 1.258 . S
O468 Co443 1.941 . S
O468 C475 1.266 . S
H469 C471 0.959 . S
H470 C471 0.961 . S
C471 C461 1.510 . S
C471 H469 0.959 . S
C471 H470 0.961 . S
C471 H472 0.960 . S
H472 C471 0.960 . S
H473 N453 0.862 . S
O474 Co442 1.920 . S
O474 C447 1.289 . S
C475 O467 1.258 . S
C475 O468 1.266 . S
Co476 O479 1.970 . S
Co476 N493 1.989 . S
Co476 O501 1.967 . S
Co476 O508 1.920 . S
Co477 O480 1.966 . S
Co477 N486 2.022 . S
Co477 N494 1.993 . S
Co477 O502 1.941 . S
C478 O479 1.258 . S
C478 O480 1.263 . S
O479 Co476 1.970 . S
O479 C478 1.258 . S
O480 Co477 1.966 . S
O480 C478 1.263 . S
C481 O482 1.235 . S
C481 O508 1.289 . S
O482 C481 1.235 . S
C483 C485 1.400 . S
C483 N486 1.351 . S
C483 C488 1.501 . S
C484 C485 1.387 . S
C484 N487 1.341 . S
C485 C483 1.400 . S
C485 C484 1.387 . S
N486 Co477 2.022 . S
N486 C483 1.351 . S
N486 N487 1.365 . S
N487 C484 1.341 . S
N487 N486 1.365 . S
N487 H507 0.862 . S
C488 C483 1.501 . S
C488 H489 0.961 . S
C488 H490 0.961 . S
C488 H491 0.960 . S
H489 C488 0.961 . S
H490 C488 0.961 . S
H491 C488 0.960 . S
C492 N493 1.342 . S
C492 C496 1.401 . S
C492 C497 1.499 . S
N493 Co476 1.989 . S
N493 C492 1.342 . S
N493 N494 1.388 . S
N494 Co477 1.993 . S
N494 N493 1.388 . S
N494 C495 1.346 . S
C495 N494 1.346 . S
C495 C496 1.396 . S
C495 C505 1.510 . S
C496 C492 1.401 . S
C496 C495 1.396 . S
C497 C492 1.499 . S
C497 H498 0.959 . S
C497 H499 0.960 . S
C497 H500 0.961 . S
H498 C497 0.959 . S
H499 C497 0.960 . S
H500 C497 0.961 . S
O501 Co476 1.967 . S
O501 C509 1.258 . S
O502 Co477 1.941 . S
O502 C509 1.266 . S
H503 C505 0.959 . S
H504 C505 0.961 . S
C505 C495 1.510 . S
C505 H503 0.959 . S
C505 H504 0.961 . S
C505 H506 0.960 . S
H506 C505 0.960 . S
H507 N487 0.862 . S
O508 Co476 1.920 . S
O508 C481 1.289 . S
C509 O501 1.258 . S
C509 O502 1.266 . S
Co510 O513 1.970 . S
Co510 N527 1.989 . S
Co510 O535 1.967 . S
Co510 O542 1.920 . S
Co511 O514 1.966 . S
Co511 N520 2.022 . S
Co511 N528 1.993 . S
Co511 O536 1.941 . S
C512 O513 1.258 . S
C512 O514 1.263 . S
O513 Co510 1.970 . S
O513 C512 1.258 . S
O514 Co511 1.966 . S
O514 C512 1.263 . S
C515 O516 1.235 . S
C515 O542 1.289 . S
O516 C515 1.235 . S
C517 C519 1.400 . S
C517 N520 1.351 . S
C517 C522 1.501 . S
C518 C519 1.387 . S
C518 N521 1.341 . S
C519 C517 1.400 . S
C519 C518 1.387 . S
N520 Co511 2.022 . S
N520 C517 1.351 . S
N520 N521 1.365 . S
N521 C518 1.341 . S
N521 N520 1.365 . S
N521 H541 0.862 . S
C522 C517 1.501 . S
C522 H523 0.961 . S
C522 H524 0.961 . S
C522 H525 0.960 . S
H523 C522 0.961 . S
H524 C522 0.961 . S
H525 C522 0.960 . S
C526 N527 1.342 . S
C526 C530 1.401 . S
C526 C531 1.499 . S
N527 Co510 1.989 . S
N527 C526 1.342 . S
N527 N528 1.388 . S
N528 Co511 1.993 . S
N528 N527 1.388 . S
N528 C529 1.346 . S
C529 N528 1.346 . S
C529 C530 1.396 . S
C529 C539 1.510 . S
C530 C526 1.401 . S
C530 C529 1.396 . S
C531 C526 1.499 . S
C531 H532 0.959 . S
C531 H533 0.960 . S
C531 H534 0.961 . S
H532 C531 0.959 . S
H533 C531 0.960 . S
H534 C531 0.961 . S
O535 Co510 1.967 . S
O535 C543 1.258 . S
O536 Co511 1.941 . S
O536 C543 1.266 . S
H537 C539 0.959 . S
H538 C539 0.961 . S
C539 C529 1.510 . S
C539 H537 0.959 . S
C539 H538 0.961 . S
C539 H540 0.960 . S
H540 C539 0.960 . S
H541 N521 0.862 . S
O542 Co510 1.920 . S
O542 C515 1.289 . S
C543 O535 1.258 . S
C543 O536 1.266 . S
C544 C545 1.369 . S
C544 C546 1.419 . S
C544 H548 0.930 1_545 S
C545 C544 1.369 . S
C545 C554 1.429 . S
C546 C544 1.419 . S
C546 C547 1.363 . S
C546 H549 0.929 . S
C547 C546 1.363 . S
C547 C553 1.428 . S
H548 C544 0.930 1_565 S
H549 C546 0.929 . S
S550 N551 1.613 . S
S550 N552 1.610 . S
N551 S550 1.613 . S
N551 C554 1.350 . S
N552 S550 1.610 . S
N552 C553 1.351 . S
C553 C547 1.428 . S
C553 N552 1.351 . S
C553 C554 1.434 . S
C554 C545 1.429 . S
C554 N551 1.350 . S
C554 C553 1.434 . S
C555 C556 1.369 . S
C555 C557 1.419 . S
C555 H559 0.930 . S
C556 C555 1.369 . S
C556 C565 1.429 . S
C557 C555 1.419 . S
C557 C558 1.363 . S
C557 H560 0.929 . S
C558 C557 1.363 . S
C558 C564 1.428 . S
H559 C555 0.930 . S
H560 C557 0.929 . S
S561 N562 1.613 . S
S561 N563 1.610 . S
N562 S561 1.613 . S
N562 C565 1.350 . S
N563 S561 1.610 . S
N563 C564 1.351 . S
C564 C558 1.428 . S
C564 N563 1.351 . S
C564 C565 1.434 . S
C565 C556 1.429 . S
C565 N562 1.350 . S
C565 C564 1.434 . S
C566 C567 1.369 . S
C566 C568 1.419 . S
C566 H570 0.930 . S
C567 C566 1.369 . S
C567 C576 1.429 . S
C568 C566 1.419 . S
C568 C569 1.363 . S
C568 H571 0.929 1_556 S
C569 C568 1.363 . S
C569 C575 1.428 . S
H570 C566 0.930 . S
H571 C568 0.929 1_554 S
S572 N573 1.613 . S
S572 N574 1.610 . S
N573 S572 1.613 . S
N573 C576 1.350 . S
N574 S572 1.610 . S
N574 C575 1.351 . S
C575 C569 1.428 . S
C575 N574 1.351 . S
C575 C576 1.434 . S
C576 C567 1.429 . S
C576 N573 1.350 . S
C576 C575 1.434 . S
C577 C578 1.369 . S
C577 C579 1.419 . S
C577 H581 0.930 . S
C578 C577 1.369 . S
C578 C587 1.429 . S
C579 C577 1.419 . S
C579 C580 1.363 . S
C579 H582 0.929 . S
C580 C579 1.363 . S
C580 C586 1.428 . S
H581 C577 0.930 . S
H582 C579 0.929 . S
S583 N584 1.613 1_554 S
S583 N585 1.610 1_554 S
N584 S583 1.613 1_556 S
N584 C587 1.350 . S
N585 S583 1.610 1_556 S
N585 C586 1.351 . S
C586 C580 1.428 . S
C586 N585 1.351 . S
C586 C587 1.434 . S
C587 C578 1.429 . S
C587 N584 1.350 . S
C587 C586 1.434 . S
C588 C589 1.369 . S
C588 C590 1.419 . S
C588 H592 0.930 . S
C589 C588 1.369 . S
C589 C598 1.429 . S
C590 C588 1.419 . S
C590 C591 1.363 . S
C590 H593 0.929 . S
C591 C590 1.363 . S
C591 C597 1.428 . S
H592 C588 0.930 . S
H593 C590 0.929 . S
S594 N595 1.613 . S
S594 N596 1.610 1_545 S
N595 S594 1.613 . S
N595 C598 1.350 1_545 S
N596 S594 1.610 1_565 S
N596 C597 1.351 . S
C597 C591 1.428 . S
C597 N596 1.351 . S
C597 C598 1.434 . S
C598 C589 1.429 . S
C598 N595 1.350 1_565 S
C598 C597 1.434 . S
C599 C600 1.369 . S
C599 C601 1.419 . S
C599 H603 0.930 . S
C600 C599 1.369 . S
C600 C609 1.429 . S
C601 C599 1.419 . S
C601 C602 1.363 . S
C601 H604 0.929 . S
C602 C601 1.363 . S
C602 C608 1.428 . S
H603 C599 0.930 . S
H604 C601 0.929 . S
S605 N606 1.613 . S
S605 N607 1.610 . S
N606 S605 1.613 . S
N606 C609 1.350 . S
N607 S605 1.610 . S
N607 C608 1.351 . S
C608 C602 1.428 . S
C608 N607 1.351 . S
C608 C609 1.434 . S
C609 C600 1.429 . S
C609 N606 1.350 . S
C609 C608 1.434 . S
C610 C611 1.369 . S
C610 C612 1.419 . S
C610 H614 0.930 . S
C611 C610 1.369 . S
C611 C620 1.429 . S
C612 C610 1.419 . S
C612 C613 1.363 . S
C612 H615 0.929 . S
C613 C612 1.363 . S
C613 C619 1.428 . S
H614 C610 0.930 . S
H615 C612 0.929 . S
S616 N617 1.613 . S
S616 N618 1.610 . S
N617 S616 1.613 . S
N617 C620 1.350 . S
N618 S616 1.610 . S
N618 C619 1.351 . S
C619 C613 1.428 . S
C619 N618 1.351 . S
C619 C620 1.434 . S
C620 C611 1.429 . S
C620 N617 1.350 . S
C620 C619 1.434 . S
C621 C622 1.369 . S
C621 C623 1.419 . S
C621 H625 0.930 . S
C622 C621 1.369 . S
C622 C631 1.429 . S
C623 C621 1.419 . S
C623 C624 1.363 . S
C623 H626 0.929 . S
C624 C623 1.363 . S
C624 C630 1.428 . S
H625 C621 0.930 . S
H626 C623 0.929 . S
S627 N628 1.613 1_556 S
S627 N629 1.610 1_556 S
N628 S627 1.613 1_554 S
N628 C631 1.350 . S
N629 S627 1.610 1_554 S
N629 C630 1.351 . S
C630 C624 1.428 . S
C630 N629 1.351 . S
C630 C631 1.434 . S
C631 C622 1.429 . S
C631 N628 1.350 . S
C631 C630 1.434 . S
C632 C633 1.369 . S
C632 C634 1.419 . S
C632 H636 0.930 . S
C633 C632 1.369 . S
C633 C642 1.429 . S
C634 C632 1.419 . S
C634 C635 1.363 . S
C634 H637 0.929 . S
C635 C634 1.363 . S
C635 C641 1.428 . S
H636 C632 0.930 . S
H637 C634 0.929 . S
S638 N639 1.613 1_554 S
S638 N640 1.610 1_554 S
N639 S638 1.613 1_556 S
N639 C642 1.350 . S
N640 S638 1.610 1_556 S
N640 C641 1.351 . S
C641 C635 1.428 . S
C641 N640 1.351 . S
C641 C642 1.434 . S
C642 C633 1.429 . S
C642 N639 1.350 . S
C642 C641 1.434 . S
C643 C644 1.369 . S
C643 C645 1.419 . S
C643 H647 0.930 1_556 S
C644 C643 1.369 . S
C644 C653 1.429 . S
C645 C643 1.419 . S
C645 C646 1.363 . S
C645 H648 0.929 . S
C646 C645 1.363 . S
C646 C652 1.428 . S
H647 C643 0.930 1_554 S
H648 C645 0.929 . S
S649 N650 1.613 . S
S649 N651 1.610 . S
N650 S649 1.613 . S
N650 C653 1.350 . S
N651 S649 1.610 . S
N651 C652 1.351 . S
C652 C646 1.428 . S
C652 N651 1.351 . S
C652 C653 1.434 . S
C653 C644 1.429 . S
C653 N650 1.350 . S
C653 C652 1.434 . S
C654 C655 1.369 . S
C654 C656 1.419 . S
C654 H658 0.930 . S
C655 C654 1.369 . S
C655 C664 1.429 . S
C656 C654 1.419 . S
C656 C657 1.363 . S
C656 H659 0.929 . S
C657 C656 1.363 . S
C657 C663 1.428 . S
H658 C654 0.930 . S
H659 C656 0.929 . S
S660 N661 1.613 . S
S660 N662 1.610 . S
N661 S660 1.613 . S
N661 C664 1.350 . S
N662 S660 1.610 . S
N662 C663 1.351 . S
C663 C657 1.428 . S
C663 N662 1.351 . S
C663 C664 1.434 . S
C664 C655 1.429 . S
C664 N661 1.350 . S
C664 C663 1.434 . S
C665 C666 1.369 . S
C665 C667 1.419 . S
C665 H669 0.930 . S
C666 C665 1.369 . S
C666 C675 1.429 . S
C667 C665 1.419 . S
C667 C668 1.363 . S
C667 H670 0.929 . S
C668 C667 1.363 . S
C668 C674 1.428 . S
H669 C665 0.930 . S
H670 C667 0.929 . S
S671 N672 1.613 . S
S671 N673 1.610 . S
N672 S671 1.613 . S
N672 C675 1.350 . S
N673 S671 1.610 . S
N673 C674 1.351 . S
C674 C668 1.428 . S
C674 N673 1.351 . S
C674 C675 1.434 . S
C675 C666 1.429 . S
C675 N672 1.350 . S
C675 C674 1.434 . S
C676 C677 1.369 . S
C676 C678 1.419 . S
C676 H680 0.930 . S
C677 C676 1.369 . S
C677 C686 1.429 . S
C678 C676 1.419 . S
C678 C679 1.363 . S
C678 H681 0.929 . S
C679 C678 1.363 . S
C679 C685 1.428 . S
H680 C676 0.930 . S
H681 C678 0.929 . S
S682 N683 1.613 . S
S682 N684 1.610 . S
N683 S682 1.613 . S
N683 C686 1.350 . S
N684 S682 1.610 . S
N684 C685 1.351 . S
C685 C679 1.428 . S
C685 N684 1.351 . S
C685 C686 1.434 . S
C686 C677 1.429 . S
C686 N683 1.350 . S
C686 C685 1.434 . S
C687 C688 1.369 . S
C687 C689 1.419 . S
C687 H691 0.930 1_554 S
C688 C687 1.369 . S
C688 C697 1.429 . S
C689 C687 1.419 . S
C689 C690 1.363 . S
C689 H692 0.929 . S
C690 C689 1.363 . S
C690 C696 1.428 . S
H691 C687 0.930 1_556 S
H692 C689 0.929 . S
S693 N694 1.613 . S
S693 N695 1.610 . S
N694 S693 1.613 . S
N694 C697 1.350 . S
N695 S693 1.610 . S
N695 C696 1.351 . S
C696 C690 1.428 . S
C696 N695 1.351 . S
C696 C697 1.434 . S
C697 C688 1.429 . S
C697 N694 1.350 . S
C697 C696 1.434 . S
C698 C699 1.369 . S
C698 C700 1.419 . S
C698 H702 0.930 . S
C699 C698 1.369 . S
C699 C708 1.429 . S
C700 C698 1.419 . S
C700 C701 1.363 . S
C700 H703 0.929 . S
C701 C700 1.363 . S
C701 C707 1.428 . S
H702 C698 0.930 . S
H703 C700 0.929 . S
S704 N705 1.613 . S
S704 N706 1.610 . S
N705 S704 1.613 . S
N705 C708 1.350 . S
N706 S704 1.610 . S
N706 C707 1.351 . S
C707 C701 1.428 . S
C707 N706 1.351 . S
C707 C708 1.434 . S
C708 C699 1.429 . S
C708 N705 1.350 . S
C708 C707 1.434 . S
C709 C710 1.369 . S
C709 C711 1.419 . S
C709 H713 0.930 . S
C710 C709 1.369 . S
C710 C719 1.429 . S
C711 C709 1.419 . S
C711 C712 1.363 . S
C711 H714 0.929 . S
C712 C711 1.363 . S
C712 C718 1.428 . S
H713 C709 0.930 . S
H714 C711 0.929 . S
S715 N716 1.613 . S
S715 N717 1.610 . S
N716 S715 1.613 . S
N716 C719 1.350 . S
N717 S715 1.610 . S
N717 C718 1.351 . S
C718 C712 1.428 . S
C718 N717 1.351 . S
C718 C719 1.434 . S
C719 C710 1.429 . S
C719 N716 1.350 . S
C719 C718 1.434 . S
C720 C721 1.369 . S
C720 C722 1.419 . S
C720 H724 0.930 . S
C721 C720 1.369 . S
C721 C730 1.429 . S
C722 C720 1.419 . S
C722 C723 1.363 . S
C722 H725 0.929 . S
C723 C722 1.363 . S
C723 C729 1.428 . S
H724 C720 0.930 . S
H725 C722 0.929 . S
S726 N727 1.613 . S
S726 N728 1.610 . S
N727 S726 1.613 . S
N727 C730 1.350 . S
N728 S726 1.610 . S
N728 C729 1.351 . S
C729 C723 1.428 . S
C729 N728 1.351 . S
C729 C730 1.434 . S
C730 C721 1.429 . S
C730 N727 1.350 . S
C730 C729 1.434 . S
C731 C732 1.369 . S
C731 C733 1.419 . S
C731 H735 0.930 . S
C732 C731 1.369 . S
C732 C741 1.429 . S
C733 C731 1.419 . S
C733 C734 1.363 . S
C733 H736 0.929 . S
C734 C733 1.363 . S
C734 C740 1.428 . S
H735 C731 0.930 . S
H736 C733 0.929 . S
S737 N738 1.613 . S
S737 N739 1.610 . S
N738 S737 1.613 . S
N738 C741 1.350 . S
N739 S737 1.610 . S
N739 C740 1.351 . S
C740 C734 1.428 . S
C740 N739 1.351 . S
C740 C741 1.434 . S
C741 C732 1.429 . S
C741 N738 1.350 . S
C741 C740 1.434 . S
C742 C743 1.369 . S
C742 C744 1.419 . S
C742 H746 0.930 . S
C743 C742 1.369 . S
C743 C752 1.429 . S
C744 C742 1.419 . S
C744 C745 1.363 . S
C744 H747 0.929 . S
C745 C744 1.363 . S
C745 C751 1.428 . S
H746 C742 0.930 . S
H747 C744 0.929 . S
S748 N749 1.613 . S
S748 N750 1.610 . S
N749 S748 1.613 . S
N749 C752 1.350 . S
N750 S748 1.610 . S
N750 C751 1.351 . S
C751 C745 1.428 . S
C751 N750 1.351 . S
C751 C752 1.434 . S
C752 C743 1.429 . S
C752 N749 1.350 . S
C752 C751 1.434 . S
C753 C754 1.369 . S
C753 C755 1.419 . S
C753 H757 0.930 . S
C754 C753 1.369 . S
C754 C763 1.429 . S
C755 C753 1.419 . S
C755 C756 1.363 . S
C755 H758 0.929 . S
C756 C755 1.363 . S
C756 C762 1.428 . S
H757 C753 0.930 . S
H758 C755 0.929 . S
S759 N760 1.613 . S
S759 N761 1.610 . S
N760 S759 1.613 . S
N760 C763 1.350 . S
N761 S759 1.610 . S
N761 C762 1.351 . S
C762 C756 1.428 . S
C762 N761 1.351 . S
C762 C763 1.434 . S
C763 C754 1.429 . S
C763 N760 1.350 . S
C763 C762 1.434 . S
C764 C765 1.369 . S
C764 C766 1.419 . S
C764 H768 0.930 . S
C765 C764 1.369 . S
C765 C774 1.429 . S
C766 C764 1.419 . S
C766 C767 1.363 . S
C766 H769 0.929 . S
C767 C766 1.363 . S
C767 C773 1.428 . S
H768 C764 0.930 . S
H769 C766 0.929 . S
S770 N771 1.613 . S
S770 N772 1.610 . S
N771 S770 1.613 . S
N771 C774 1.350 . S
N772 S770 1.610 . S
N772 C773 1.351 . S
C773 C767 1.428 . S
C773 N772 1.351 . S
C773 C774 1.434 . S
C774 C765 1.429 . S
C774 N771 1.350 . S
C774 C773 1.434 . S
C775 C776 1.369 . S
C775 C777 1.419 . S
C775 H779 0.930 . S
C776 C775 1.369 . S
C776 C785 1.429 . S
C777 C775 1.419 . S
C777 C778 1.363 . S
C777 H780 0.929 . S
C778 C777 1.363 . S
C778 C784 1.428 . S
H779 C775 0.930 . S
H780 C777 0.929 . S
S781 N782 1.613 . S
S781 N783 1.610 . S
N782 S781 1.613 . S
N782 C785 1.350 . S
N783 S781 1.610 . S
N783 C784 1.351 . S
C784 C778 1.428 . S
C784 N783 1.351 . S
C784 C785 1.434 . S
C785 C776 1.429 . S
C785 N782 1.350 . S
C785 C784 1.434 . S
C786 C787 1.369 . S
C786 C788 1.419 . S
C786 H790 0.930 . S
C787 C786 1.369 . S
C787 C796 1.429 . S
C788 C786 1.419 . S
C788 C789 1.363 . S
C788 H791 0.929 . S
C789 C788 1.363 . S
C789 C795 1.428 . S
H790 C786 0.930 . S
H791 C788 0.929 . S
S792 N793 1.613 . S
S792 N794 1.610 . S
N793 S792 1.613 . S
N793 C796 1.350 . S
N794 S792 1.610 . S
N794 C795 1.351 . S
C795 C789 1.428 . S
C795 N794 1.351 . S
C795 C796 1.434 . S
C796 C787 1.429 . S
C796 N793 1.350 . S
C796 C795 1.434 . S
C797 C798 1.369 . S
C797 C799 1.419 . S
C797 H801 0.930 . S
C798 C797 1.369 . S
C798 C807 1.429 . S
C799 C797 1.419 . S
C799 C800 1.363 . S
C799 H802 0.929 . S
C800 C799 1.363 . S
C800 C806 1.428 . S
H801 C797 0.930 . S
H802 C799 0.929 . S
S803 N804 1.613 . S
S803 N805 1.610 . S
N804 S803 1.613 . S
N804 C807 1.350 . S
N805 S803 1.610 . S
N805 C806 1.351 . S
C806 C800 1.428 . S
C806 N805 1.351 . S
C806 C807 1.434 . S
C807 C798 1.429 . S
C807 N804 1.350 . S
C807 C806 1.434 . S
C808 C809 1.369 . S
C808 C810 1.419 . S
C808 H812 0.930 . S
C809 C808 1.369 . S
C809 C818 1.429 . S
C810 C808 1.419 . S
C810 C811 1.363 . S
C810 H813 0.929 . S
C811 C810 1.363 . S
C811 C817 1.428 . S
H812 C808 0.930 . S
H813 C810 0.929 . S
S814 N815 1.613 . S
S814 N816 1.610 . S
N815 S814 1.613 . S
N815 C818 1.350 . S
N816 S814 1.610 . S
N816 C817 1.351 . S
C817 C811 1.428 . S
C817 N816 1.351 . S
C817 C818 1.434 . S
C818 C809 1.429 . S
C818 N815 1.350 . S
C818 C817 1.434 . S
C819 C820 1.369 1_545 S
C819 C821 1.419 . S
C819 H823 0.930 . S
C820 C819 1.369 1_565 S
C820 C829 1.429 1_655 S
C821 C819 1.419 . S
C821 C822 1.363 1_655 S
C821 H824 0.929 . S
C822 C821 1.363 1_455 S
C822 C828 1.428 1_545 S
H823 C819 0.930 . S
H824 C821 0.929 . S
S825 N826 1.613 . S
S825 N827 1.610 . S
N826 S825 1.613 . S
N826 C829 1.350 . S
N827 S825 1.610 . S
N827 C828 1.351 . S
C828 C822 1.428 1_565 S
C828 N827 1.351 . S
C828 C829 1.434 . S
C829 C820 1.429 1_455 S
C829 N826 1.350 . S
C829 C828 1.434 . S
C830 C831 1.369 . S
C830 C832 1.419 . S
C830 H834 0.930 . S
C831 C830 1.369 . S
C831 C840 1.429 1_565 S
C832 C830 1.419 . S
C832 C833 1.363 1_565 S
C832 H835 0.929 . S
C833 C832 1.363 1_545 S
C833 C839 1.428 . S
H834 C830 0.930 . S
H835 C832 0.929 . S
S836 N837 1.613 . S
S836 N838 1.610 . S
N837 S836 1.613 . S
N837 C840 1.350 . S
N838 S836 1.610 . S
N838 C839 1.351 . S
C839 C833 1.428 . S
C839 N838 1.351 . S
C839 C840 1.434 . S
C840 C831 1.429 1_545 S
C840 N837 1.350 . S
C840 C839 1.434 . S
C841 C842 1.369 . S
C841 C843 1.419 . S
C841 H845 0.930 . S
C842 C841 1.369 . S
C842 C851 1.429 1_655 S
C843 C841 1.419 . S
C843 C844 1.363 1_655 S
C843 H846 0.929 . S
C844 C843 1.363 1_455 S
C844 C850 1.428 . S
H845 C841 0.930 . S
H846 C843 0.929 . S
S847 N848 1.613 . S
S847 N849 1.610 . S
N848 S847 1.613 . S
N848 C851 1.350 . S
N849 S847 1.610 . S
N849 C850 1.351 . S
C850 C844 1.428 . S
C850 N849 1.351 . S
C850 C851 1.434 . S
C851 C842 1.429 1_455 S
C851 N848 1.350 . S
C851 C850 1.434 . S
C852 C853 1.369 . S
C852 C854 1.419 . S
C852 H856 0.930 . S
C853 C852 1.369 . S
C853 C862 1.429 . S
C854 C852 1.419 . S
C854 C855 1.363 . S
C854 H857 0.929 . S
C855 C854 1.363 . S
C855 C861 1.428 . S
H856 C852 0.930 . S
H857 C854 0.929 . S
S858 N859 1.613 . S
S858 N860 1.610 . S
N859 S858 1.613 . S
N859 C862 1.350 . S
N860 S858 1.610 . S
N860 C861 1.351 . S
C861 C855 1.428 . S
C861 N860 1.351 . S
C861 C862 1.434 . S
C862 C853 1.429 . S
C862 N859 1.350 . S
C862 C861 1.434 . S
C863 C864 1.369 . S
C863 C865 1.419 . S
C863 H867 0.930 . S
C864 C863 1.369 . S
C864 C873 1.429 1_545 S
C865 C863 1.419 . S
C865 C866 1.363 1_545 S
C865 H868 0.929 . S
C866 C865 1.363 1_565 S
C866 C872 1.428 . S
H867 C863 0.930 . S
H868 C865 0.929 . S
S869 N870 1.613 . S
S869 N871 1.610 . S
N870 S869 1.613 . S
N870 C873 1.350 . S
N871 S869 1.610 . S
N871 C872 1.351 . S
C872 C866 1.428 . S
C872 N871 1.351 . S
C872 C873 1.434 . S
C873 C864 1.429 1_565 S
C873 N870 1.350 . S
C873 C872 1.434 . S
C874 C875 1.369 . S
C874 C876 1.419 . S
C874 H878 0.930 . S
C875 C874 1.369 . S
C875 C884 1.429 1_655 S
C876 C874 1.419 . S
C876 C877 1.363 1_655 S
C876 H879 0.929 . S
C877 C876 1.363 1_455 S
C877 C883 1.428 . S
H878 C874 0.930 . S
H879 C876 0.929 . S
S880 N881 1.613 . S
S880 N882 1.610 . S
N881 S880 1.613 . S
N881 C884 1.350 . S
N882 S880 1.610 . S
N882 C883 1.351 . S
C883 C877 1.428 . S
C883 N882 1.351 . S
C883 C884 1.434 . S
C884 C875 1.429 1_455 S
C884 N881 1.350 . S
C884 C883 1.434 . S
C885 C886 1.369 1_556 S
C885 C887 1.419 . S
C885 H889 0.930 . S
C886 C885 1.369 1_554 S
C886 C895 1.429 . S
C887 C885 1.419 . S
C887 C888 1.363 . S
C887 H890 0.929 . S
C888 C887 1.363 . S
C888 C894 1.428 1_556 S
H889 C885 0.930 . S
H890 C887 0.929 . S
S891 N892 1.613 . S
S891 N893 1.610 . S
N892 S891 1.613 . S
N892 C895 1.350 . S
N893 S891 1.610 . S
N893 C894 1.351 . S
C894 C888 1.428 1_554 S
C894 N893 1.351 . S
C894 C895 1.434 . S
C895 C886 1.429 . S
C895 N892 1.350 . S
C895 C894 1.434 . S
C896 C897 1.369 . S
C896 C898 1.421 . S
C896 H900 0.930 . S
C897 C896 1.369 . S
C897 C906 1.429 1_456 S
C898 C896 1.421 . S
C898 C899 1.361 1_456 S
C898 H901 0.929 . S
C899 C898 1.361 1_654 S
C899 C905 1.428 . S
H900 C896 0.930 . S
H901 C898 0.929 . S
S902 N903 1.613 . S
S902 N904 1.610 . S
N903 S902 1.613 . S
N903 C906 1.350 . S
N904 S902 1.610 . S
N904 C905 1.351 . S
C905 C899 1.428 . S
C905 N904 1.351 . S
C905 C906 1.434 . S
C906 C897 1.429 1_654 S
C906 N903 1.350 . S
C906 C905 1.434 . S
C907 C908 1.369 . S
C907 C909 1.419 . S
C907 H911 0.930 . S
C908 C907 1.369 . S
C908 C917 1.429 . S
C909 C907 1.419 . S
C909 C910 1.363 . S
C909 H912 0.929 . S
C910 C909 1.363 . S
C910 C916 1.428 . S
H911 C907 0.930 . S
H912 C909 0.929 . S
S913 N914 1.613 . S
S913 N915 1.610 . S
N914 S913 1.613 . S
N914 C917 1.350 . S
N915 S913 1.610 . S
N915 C916 1.351 . S
C916 C910 1.428 . S
C916 N915 1.351 . S
C916 C917 1.434 . S
C917 C908 1.429 . S
C917 N914 1.350 . S
C917 C916 1.434 . S
C918 C919 1.369 1_556 S
C918 C920 1.419 . S
C918 H922 0.930 . S
C919 C918 1.369 1_554 S
C919 C928 1.429 . S
C920 C918 1.419 . S
C920 C921 1.363 . S
C920 H923 0.929 . S
C921 C920 1.363 . S
C921 C927 1.428 1_556 S
H922 C918 0.930 . S
H923 C920 0.929 . S
S924 N925 1.613 . S
S924 N926 1.610 . S
N925 S924 1.613 . S
N925 C928 1.350 . S
N926 S924 1.610 . S
N926 C927 1.351 . S
C927 C921 1.428 1_554 S
C927 N926 1.351 . S
C927 C928 1.434 . S
C928 C919 1.429 . S
C928 N925 1.350 . S
C928 C927 1.434 . S
C929 C930 1.369 . S
C929 C931 1.419 . S
C929 H933 0.930 . S
C930 C929 1.369 . S
C930 C939 1.429 . S
C931 C929 1.419 . S
C931 C932 1.363 . S
C931 H934 0.929 . S
C932 C931 1.363 . S
C932 C938 1.428 . S
H933 C929 0.930 . S
H934 C931 0.929 . S
S935 N936 1.613 . S
S935 N937 1.610 . S
N936 S935 1.613 . S
N936 C939 1.350 . S
N937 S935 1.610 . S
N937 C938 1.351 . S
C938 C932 1.428 . S
C938 N937 1.351 . S
C938 C939 1.434 . S
C939 C930 1.429 . S
C939 N936 1.350 . S
C939 C938 1.434 . S
C940 C941 1.369 1_556 S
C940 C942 1.419 . S
C940 H944 0.930 . S
C941 C940 1.369 1_554 S
C941 C950 1.429 1_565 S
C942 C940 1.419 . S
C942 C943 1.363 1_565 S
C942 H945 0.929 . S
C943 C942 1.363 1_545 S
C943 C949 1.428 1_556 S
H944 C940 0.930 . S
H945 C942 0.929 . S
S946 N947 1.613 . S
S946 N948 1.610 . S
N947 S946 1.613 . S
N947 C950 1.350 . S
N948 S946 1.610 . S
N948 C949 1.351 . S
C949 C943 1.428 1_554 S
C949 N948 1.351 . S
C949 C950 1.434 . S
C950 C941 1.429 1_545 S
C950 N947 1.350 . S
C950 C949 1.434 . S
C951 C952 1.369 . S
C951 C953 1.419 . S
C951 H955 0.930 . S
C952 C951 1.369 . S
C952 C961 1.429 . S
C953 C951 1.419 . S
C953 C954 1.363 . S
C953 H956 0.929 . S
C954 C953 1.363 . S
C954 C960 1.428 . S
H955 C951 0.930 . S
H956 C953 0.929 . S
S957 N958 1.613 . S
S957 N959 1.610 . S
N958 S957 1.613 . S
N958 C961 1.350 . S
N959 S957 1.610 . S
N959 C960 1.351 . S
C960 C954 1.428 . S
C960 N959 1.351 . S
C960 C961 1.434 . S
C961 C952 1.429 . S
C961 N958 1.350 . S
C961 C960 1.434 . S
C962 C963 1.369 . S
C962 C964 1.419 . S
C962 H966 0.930 . S
C963 C962 1.369 . S
C963 C972 1.429 . S
C964 C962 1.419 . S
C964 C965 1.363 . S
C964 H967 0.929 . S
C965 C964 1.363 . S
C965 C971 1.428 . S
H966 C962 0.930 . S
H967 C964 0.929 . S
S968 N969 1.613 . S
S968 N970 1.610 . S
N969 S968 1.613 . S
N969 C972 1.350 . S
N970 S968 1.610 . S
N970 C971 1.351 . S
C971 C965 1.428 . S
C971 N970 1.351 . S
C971 C972 1.434 . S
C972 C963 1.429 . S
C972 N969 1.350 . S
C972 C971 1.434 . S
C973 C974 1.369 . S
C973 C975 1.419 . S
C973 H977 0.930 . S
C974 C973 1.369 . S
C974 C983 1.429 . S
C975 C973 1.419 . S
C975 C976 1.363 . S
C975 H978 0.929 . S
C976 C975 1.363 . S
C976 C982 1.428 . S
H977 C973 0.930 . S
H978 C975 0.929 . S
S979 N980 1.613 . S
S979 N981 1.610 . S
N980 S979 1.613 . S
N980 C983 1.350 . S
N981 S979 1.610 . S
N981 C982 1.351 . S
C982 C976 1.428 . S
C982 N981 1.351 . S
C982 C983 1.434 . S
C983 C974 1.429 . S
C983 N980 1.350 . S
C983 C982 1.434 . S
C545 C5 0.884 . S
C547 C315 0.868 . S
C556 C9 0.859 . S
C558 C311 0.890 . S
C567 C281 0.872 . S
C569 C39 0.890 . S
C578 C43 0.868 . S
C580 C277 0.892 . S
C589 C73 0.897 . S
C591 C383 0.854 . S
C600 C77 0.871 . S
C602 C379 0.885 . S
C611 C107 0.884 . S
C613 C349 0.868 . S
C622 C111 0.874 . S
C624 C345 0.888 . S
C633 C141 0.885 . S
C635 C451 0.872 . S
C644 C447 0.885 . S
C646 C145 0.872 . S
C655 C417 0.853 . S
C657 C175 0.897 . S
C666 C413 0.896 . S
C668 C179 0.855 . S
C677 C519 0.874 . S
C679 C209 0.885 . S
C688 C515 0.891 . S
C690 C213 0.870 . S
C699 C485 0.869 . S
C701 C243 0.893 . S
C710 C247 0.854 . S
C712 C481 0.897 . S
C721 C2 1.626 . S
C723 C36 1.627 1_554 S
C732 C104 1.626 1_556 S
C734 C70 1.628 . S
C743 C172 1.628 . S
C745 C138 1.627 . S
C754 C240 1.626 . S
C756 C206 1.628 . S
C765 C308 1.628 . S
C767 C274 1.627 . S
C776 C342 1.627 . S
C778 C376 1.627 . S
C787 C444 1.628 1_554 S
C789 C410 1.627 . S
C798 C478 1.628 . S
C800 C512 1.627 1_556 S
C809 C509 1.758 . S
C811 C33 1.768 . S
C820 C88 1.876 . S
C822 C20 1.883 . S
C831 C407 1.768 . S
C833 C67 1.760 . S
C842 C258 1.877 . S
C844 C54 1.883 . S
C853 C101 1.758 . S
C855 C441 1.768 . S
C864 C339 1.761 . S
C866 C135 1.765 . S
C875 C122 1.876 . S
C877 C190 1.883 . S
C886 C373 1.769 . S
C888 C169 1.760 . S
C897 C156 1.879 . S
C899 C224 1.881 . S
C908 C203 1.763 . S
C910 C543 1.765 . S
C919 C237 1.766 . S
C921 C305 1.762 . S
C930 C271 1.769 . S
C932 C475 1.760 . S
C941 C360 1.884 . S
C943 C292 1.878 . S
C952 C530 1.883 . S
C954 C326 1.878 . S
C963 C394 1.876 . S
C965 C462 1.883 . S
C974 C428 1.880 . S
C976 C496 1.880 . S
