# Generated by pormake.
# Topology sxe, (6)-cn, num edge types: 1
# Building blocks:
#     Node 0, Type 0, BuildingBlock: IZENUY_clean_sbu_0, # of connection points: 6
#     Node 1, Type 0, BuildingBlock: IZENUY_clean_sbu_0, # of connection points: 6
#     Node 2, Type 0, BuildingBlock: IZENUY_clean_sbu_0, # of connection points: 6
#     Node 3, Type 0, BuildingBlock: IZENUY_clean_sbu_0, # of connection points: 6
#     Node 4, Type 0, BuildingBlock: IZENUY_clean_sbu_0, # of connection points: 6
#     Node 5, Type 0, BuildingBlock: IZENUY_clean_sbu_0, # of connection points: 6
#     Node 6, Type 0, BuildingBlock: IZENUY_clean_sbu_0, # of connection points: 6
#     Node 7, Type 0, BuildingBlock: IZENUY_clean_sbu_0, # of connection points: 6
#     Node 8, Type 0, BuildingBlock: IZENUY_clean_sbu_0, # of connection points: 6
#     Node 9, Type 0, BuildingBlock: IZENUY_clean_sbu_0, # of connection points: 6
#     Node 10, Type 0, BuildingBlock: IZENUY_clean_sbu_0, # of connection points: 6
#     Node 11, Type 0, BuildingBlock: IZENUY_clean_sbu_0, # of connection points: 6
#     Node 12, Type 0, BuildingBlock: IZENUY_clean_sbu_0, # of connection points: 6
#     Node 13, Type 0, BuildingBlock: IZENUY_clean_sbu_0, # of connection points: 6
#     Node 14, Type 0, BuildingBlock: IZENUY_clean_sbu_0, # of connection points: 6
#     Node 15, Type 0, BuildingBlock: IZENUY_clean_sbu_0, # of connection points: 6
#     Node 16, Type 0, BuildingBlock: IZENUY_clean_sbu_0, # of connection points: 6
#     Node 17, Type 0, BuildingBlock: IZENUY_clean_sbu_0, # of connection points: 6
#     Node 18, Type 0, BuildingBlock: IZENUY_clean_sbu_0, # of connection points: 6
#     Node 19, Type 0, BuildingBlock: IZENUY_clean_sbu_0, # of connection points: 6
#     Node 20, Type 0, BuildingBlock: IZENUY_clean_sbu_0, # of connection points: 6
#     Node 21, Type 0, BuildingBlock: IZENUY_clean_sbu_0, # of connection points: 6
#     Node 22, Type 0, BuildingBlock: IZENUY_clean_sbu_0, # of connection points: 6
#     Node 23, Type 0, BuildingBlock: IZENUY_clean_sbu_0, # of connection points: 6
#     Edge 24, Type (0, 0), BuildingBlock: CIFDUS_clean_linker_0, # of connection points: 2
#     Edge 25, Type (0, 0), BuildingBlock: CIFDUS_clean_linker_0, # of connection points: 2
#     Edge 26, Type (0, 0), BuildingBlock: CIFDUS_clean_linker_0, # of connection points: 2
#     Edge 27, Type (0, 0), BuildingBlock: CIFDUS_clean_linker_0, # of connection points: 2
#     Edge 28, Type (0, 0), BuildingBlock: CIFDUS_clean_linker_0, # of connection points: 2
#     Edge 29, Type (0, 0), BuildingBlock: CIFDUS_clean_linker_0, # of connection points: 2
#     Edge 30, Type (0, 0), BuildingBlock: CIFDUS_clean_linker_0, # of connection points: 2
#     Edge 31, Type (0, 0), BuildingBlock: CIFDUS_clean_linker_0, # of connection points: 2
#     Edge 32, Type (0, 0), BuildingBlock: CIFDUS_clean_linker_0, # of connection points: 2
#     Edge 33, Type (0, 0), BuildingBlock: CIFDUS_clean_linker_0, # of connection points: 2
#     Edge 34, Type (0, 0), BuildingBlock: CIFDUS_clean_linker_0, # of connection points: 2
#     Edge 35, Type (0, 0), BuildingBlock: CIFDUS_clean_linker_0, # of connection points: 2
#     Edge 36, Type (0, 0), BuildingBlock: CIFDUS_clean_linker_0, # of connection points: 2
#     Edge 37, Type (0, 0), BuildingBlock: CIFDUS_clean_linker_0, # of connection points: 2
#     Edge 38, Type (0, 0), BuildingBlock: CIFDUS_clean_linker_0, # of connection points: 2
#     Edge 39, Type (0, 0), BuildingBlock: CIFDUS_clean_linker_0, # of connection points: 2
#     Edge 40, Type (0, 0), BuildingBlock: CIFDUS_clean_linker_0, # of connection points: 2
#     Edge 41, Type (0, 0), BuildingBlock: CIFDUS_clean_linker_0, # of connection points: 2
#     Edge 42, Type (0, 0), BuildingBlock: CIFDUS_clean_linker_0, # of connection points: 2
#     Edge 43, Type (0, 0), BuildingBlock: CIFDUS_clean_linker_0, # of connection points: 2
#     Edge 44, Type (0, 0), BuildingBlock: CIFDUS_clean_linker_0, # of connection points: 2
#     Edge 45, Type (0, 0), BuildingBlock: CIFDUS_clean_linker_0, # of connection points: 2
#     Edge 46, Type (0, 0), BuildingBlock: CIFDUS_clean_linker_0, # of connection points: 2
#     Edge 47, Type (0, 0), BuildingBlock: CIFDUS_clean_linker_0, # of connection points: 2
#     Edge 48, Type (0, 0), BuildingBlock: CIFDUS_clean_linker_0, # of connection points: 2
#     Edge 49, Type (0, 0), BuildingBlock: CIFDUS_clean_linker_0, # of connection points: 2
#     Edge 50, Type (0, 0), BuildingBlock: CIFDUS_clean_linker_0, # of connection points: 2
#     Edge 51, Type (0, 0), BuildingBlock: CIFDUS_clean_linker_0, # of connection points: 2
#     Edge 52, Type (0, 0), BuildingBlock: CIFDUS_clean_linker_0, # of connection points: 2
#     Edge 53, Type (0, 0), BuildingBlock: CIFDUS_clean_linker_0, # of connection points: 2
#     Edge 54, Type (0, 0), BuildingBlock: CIFDUS_clean_linker_0, # of connection points: 2
#     Edge 55, Type (0, 0), BuildingBlock: CIFDUS_clean_linker_0, # of connection points: 2
#     Edge 56, Type (0, 0), BuildingBlock: CIFDUS_clean_linker_0, # of connection points: 2
#     Edge 57, Type (0, 0), BuildingBlock: CIFDUS_clean_linker_0, # of connection points: 2
#     Edge 58, Type (0, 0), BuildingBlock: CIFDUS_clean_linker_0, # of connection points: 2
#     Edge 59, Type (0, 0), BuildingBlock: CIFDUS_clean_linker_0, # of connection points: 2
#     Edge 60, Type (0, 0), BuildingBlock: CIFDUS_clean_linker_0, # of connection points: 2
#     Edge 61, Type (0, 0), BuildingBlock: CIFDUS_clean_linker_0, # of connection points: 2
#     Edge 62, Type (0, 0), BuildingBlock: CIFDUS_clean_linker_0, # of connection points: 2
#     Edge 63, Type (0, 0), BuildingBlock: CIFDUS_clean_linker_0, # of connection points: 2
#     Edge 64, Type (0, 0), BuildingBlock: CIFDUS_clean_linker_0, # of connection points: 2
#     Edge 65, Type (0, 0), BuildingBlock: CIFDUS_clean_linker_0, # of connection points: 2
#     Edge 66, Type (0, 0), BuildingBlock: CIFDUS_clean_linker_0, # of connection points: 2
#     Edge 67, Type (0, 0), BuildingBlock: CIFDUS_clean_linker_0, # of connection points: 2
#     Edge 68, Type (0, 0), BuildingBlock: CIFDUS_clean_linker_0, # of connection points: 2
#     Edge 69, Type (0, 0), BuildingBlock: CIFDUS_clean_linker_0, # of connection points: 2
#     Edge 70, Type (0, 0), BuildingBlock: CIFDUS_clean_linker_0, # of connection points: 2
#     Edge 71, Type (0, 0), BuildingBlock: CIFDUS_clean_linker_0, # of connection points: 2
#     Edge 72, Type (0, 0), BuildingBlock: CIFDUS_clean_linker_0, # of connection points: 2
#     Edge 73, Type (0, 0), BuildingBlock: CIFDUS_clean_linker_0, # of connection points: 2
#     Edge 74, Type (0, 0), BuildingBlock: CIFDUS_clean_linker_0, # of connection points: 2
#     Edge 75, Type (0, 0), BuildingBlock: CIFDUS_clean_linker_0, # of connection points: 2
#     Edge 76, Type (0, 0), BuildingBlock: CIFDUS_clean_linker_0, # of connection points: 2
#     Edge 77, Type (0, 0), BuildingBlock: CIFDUS_clean_linker_0, # of connection points: 2
#     Edge 78, Type (0, 0), BuildingBlock: CIFDUS_clean_linker_0, # of connection points: 2
#     Edge 79, Type (0, 0), BuildingBlock: CIFDUS_clean_linker_0, # of connection points: 2
#     Edge 80, Type (0, 0), BuildingBlock: CIFDUS_clean_linker_0, # of connection points: 2
#     Edge 81, Type (0, 0), BuildingBlock: CIFDUS_clean_linker_0, # of connection points: 2
#     Edge 82, Type (0, 0), BuildingBlock: CIFDUS_clean_linker_0, # of connection points: 2
#     Edge 83, Type (0, 0), BuildingBlock: CIFDUS_clean_linker_0, # of connection points: 2
#     Edge 84, Type (0, 0), BuildingBlock: CIFDUS_clean_linker_0, # of connection points: 2
#     Edge 85, Type (0, 0), BuildingBlock: CIFDUS_clean_linker_0, # of connection points: 2
#     Edge 86, Type (0, 0), BuildingBlock: CIFDUS_clean_linker_0, # of connection points: 2
#     Edge 87, Type (0, 0), BuildingBlock: CIFDUS_clean_linker_0, # of connection points: 2
#     Edge 88, Type (0, 0), BuildingBlock: CIFDUS_clean_linker_0, # of connection points: 2
#     Edge 89, Type (0, 0), BuildingBlock: CIFDUS_clean_linker_0, # of connection points: 2
#     Edge 90, Type (0, 0), BuildingBlock: CIFDUS_clean_linker_0, # of connection points: 2
#     Edge 91, Type (0, 0), BuildingBlock: CIFDUS_clean_linker_0, # of connection points: 2
#     Edge 92, Type (0, 0), BuildingBlock: CIFDUS_clean_linker_0, # of connection points: 2
#     Edge 93, Type (0, 0), BuildingBlock: CIFDUS_clean_linker_0, # of connection points: 2
#     Edge 94, Type (0, 0), BuildingBlock: CIFDUS_clean_linker_0, # of connection points: 2
#     Edge 95, Type (0, 0), BuildingBlock: CIFDUS_clean_linker_0, # of connection points: 2
# Relax obj value: 0.306
# Max RMSD: 0.231
# Mean RMSD: 0.230
data_MOF--net-sxe--node1-IZENUY_clean_sbu_0--edge1-CIFDUS_clean_linker_0
_symmetry_space_group_name_H-M    P1
_symmetry_Int_Tables_number       1
_symmetry_cell_setting            triclinic
loop_
_symmetry_equiv_pos_as_xyz
'x, y, z'
_cell_length_a     41.689266
_cell_length_b     41.861051
_cell_length_c     41.837514
_cell_angle_alpha  89.764209
_cell_angle_beta   89.714933
_cell_angle_gamma 90.165878
loop_
_atom_site_label
_atom_site_type_symbol
_atom_site_fract_x
_atom_site_fract_y
_atom_site_fract_z
_atom_type_partial_charge
Fe0 Fe 0.16149 0.43359 0.26649 0.0
Fe1 Fe 0.19159 0.38487 0.22132 0.0
O2 O 0.18855 0.42468 0.23493 0.0
Fe3 Fe 0.21297 0.45488 0.21709 0.0
O4 O 0.21867 0.47775 0.25426 0.0
O5 O 0.19325 0.44945 0.2909 0.0
O6 O 0.16761 0.39551 0.28754 0.0
C7 C 0.19042 0.3756 0.28594 0.0
C8 C 0.156 0.4875 0.22471 0.0
O9 O 0.20586 0.3716 0.26015 0.0
C10 C 0.19228 0.41655 0.16456 0.0
O11 O 0.12697 0.4179 0.24499 0.0
O12 O 0.15047 0.37338 0.23137 0.0
O13 O 0.17828 0.47879 0.20612 0.0
O14 O 0.15112 0.47335 0.25114 0.0
C15 C 0.25589 0.40584 0.21665 0.0
O16 O 0.17763 0.39652 0.18207 0.0
O17 O 0.21121 0.43707 0.17666 0.0
C18 C 0.12519 0.38921 0.23608 0.0
O19 O 0.2333 0.38772 0.20826 0.0
O20 O 0.25011 0.43362 0.22665 0.0
C21 C 0.21318 0.47086 0.28333 0.0
Fe22 Fe 0.3581 0.56569 0.76864 0.0
Fe23 Fe 0.32497 0.61593 0.72712 0.0
O24 O 0.33005 0.57551 0.73828 0.0
Fe25 Fe 0.3067 0.54553 0.71906 0.0
O26 O 0.30284 0.51967 0.75485 0.0
O27 O 0.32756 0.54629 0.79274 0.0
O28 O 0.35032 0.6019 0.7924 0.0
C29 C 0.32653 0.62077 0.79213 0.0
C30 C 0.36481 0.51513 0.72315 0.0
O31 O 0.31097 0.6258 0.7668 0.0
C32 C 0.32482 0.58819 0.66847 0.0
O33 O 0.39162 0.58474 0.74758 0.0
O34 O 0.36577 0.62876 0.73645 0.0
O35 O 0.34216 0.52465 0.70571 0.0
O36 O 0.37004 0.5276 0.75026 0.0
C37 C 0.26173 0.59237 0.72439 0.0
O38 O 0.33855 0.60769 0.68692 0.0
O39 O 0.30681 0.56619 0.6797 0.0
C40 C 0.39181 0.61386 0.7396 0.0
O41 O 0.28307 0.61194 0.71561 0.0
O42 O 0.26879 0.56386 0.73087 0.0
C43 C 0.30864 0.52444 0.78422 0.0
Fe44 Fe 0.71359 0.0531 0.79222 0.0
Fe45 Fe 0.66508 0.06422 0.73783 0.0
O46 O 0.68946 0.07926 0.76919 0.0
Fe47 Fe 0.69046 0.12067 0.77746 0.0
O48 O 0.73238 0.12116 0.79027 0.0
O49 O 0.75028 0.07308 0.77934 0.0
O50 O 0.7204 0.02416 0.76011 0.0
C51 C 0.7183 0.02657 0.73005 0.0
C52 C 0.69207 0.09838 0.83842 0.0
O53 O 0.69921 0.04625 0.71766 0.0
C54 C 0.62491 0.1106 0.75989 0.0
O55 O 0.6786 0.03153 0.80618 0.0
O56 O 0.65507 0.02652 0.75929 0.0
O57 O 0.67618 0.11434 0.81823 0.0
O58 O 0.71147 0.07705 0.82904 0.0
C59 C 0.69262 0.12099 0.71195 0.0
O60 O 0.62867 0.08118 0.7547 0.0
O61 O 0.64891 0.12835 0.76527 0.0
C62 C 0.65846 0.01786 0.78832 0.0
O63 O 0.67125 0.09932 0.71127 0.0
O64 O 0.70541 0.1294 0.73779 0.0
C65 C 0.75509 0.10255 0.78313 0.0
Fe66 Fe 0.85589 0.95093 0.23555 0.0
Fe67 Fe 0.83441 0.89609 0.27925 0.0
O68 O 0.83261 0.93702 0.26855 0.0
Fe69 Fe 0.80717 0.96356 0.28988 0.0
O70 O 0.78595 0.97551 0.25403 0.0
O71 O 0.82825 0.98279 0.22357 0.0
O72 O 0.83448 0.92467 0.20822 0.0
C73 C 0.83191 0.89492 0.21256 0.0
C74 C 0.86523 0.99844 0.27923 0.0
O75 O 0.84087 0.88222 0.23844 0.0
C76 C 0.82758 0.92674 0.33974 0.0
O77 O 0.88837 0.92175 0.24111 0.0
O78 O 0.87723 0.89802 0.28673 0.0
O79 O 0.83562 0.99708 0.28664 0.0
O80 O 0.87797 0.978 0.26099 0.0
C81 C 0.76974 0.90736 0.28334 0.0
O82 O 0.82737 0.9023 0.32207 0.0
O83 O 0.82544 0.95434 0.32796 0.0
C84 C 0.89703 0.90489 0.26481 0.0
O85 O 0.79228 0.89114 0.27176 0.0
O86 O 0.77483 0.93403 0.29666 0.0
C87 C 0.7988 0.98709 0.22929 0.0
Fe88 Fe 0.22319 0.19542 0.45621 0.0
Fe89 Fe 0.26975 0.14004 0.44177 0.0
O90 O 0.24106 0.16847 0.42864 0.0
Fe91 Fe 0.23141 0.17027 0.38757 0.0
O92 O 0.24487 0.21106 0.38477 0.0
O93 O 0.22091 0.22933 0.42786 0.0
O94 O 0.26243 0.21089 0.46858 0.0
C95 C 0.28538 0.19387 0.47845 0.0
C96 C 0.17143 0.18137 0.41803 0.0
O97 O 0.28481 0.164 0.47475 0.0
C98 C 0.23621 0.10623 0.39314 0.0
O99 O 0.22218 0.16571 0.48889 0.0
O100 O 0.2404 0.12089 0.46768 0.0
O101 O 0.18971 0.18202 0.39385 0.0
O102 O 0.18255 0.18262 0.44606 0.0
C103 C 0.29809 0.1633 0.3874 0.0
O104 O 0.26032 0.11041 0.41097 0.0
O105 O 0.21766 0.12917 0.38723 0.0
C106 C 0.22502 0.13542 0.48935 0.0
O107 O 0.30099 0.15832 0.417 0.0
O108 O 0.27145 0.15918 0.37375 0.0
C109 C 0.2353 0.23402 0.40148 0.0
Fe110 Fe 0.2695 0.82218 0.8896 0.0
Fe111 Fe 0.2888 0.80087 0.9567 0.0
O112 O 0.26509 0.82529 0.93138 0.0
Fe113 Fe 0.23675 0.8525 0.94748 0.0
O114 O 0.20358 0.83343 0.92717 0.0
O115 O 0.22783 0.83157 0.88053 0.0
O116 O 0.25743 0.78085 0.89074 0.0
C117 C 0.2723 0.75945 0.90571 0.0
C118 C 0.26373 0.8863 0.89398 0.0
O119 O 0.29054 0.76668 0.92881 0.0
C120 C 0.28575 0.86048 0.98941 0.0
O121 O 0.31212 0.81218 0.89057 0.0
O122 O 0.32618 0.81748 0.94075 0.0
O123 O 0.24199 0.88241 0.91511 0.0
O124 O 0.28154 0.86341 0.88605 0.0
C125 C 0.23012 0.79744 0.98699 0.0
O126 O 0.29103 0.83064 0.98882 0.0
O127 O 0.26758 0.87344 0.96923 0.0
C128 C 0.33336 0.81741 0.91137 0.0
O129 O 0.25328 0.78256 0.97439 0.0
O130 O 0.22636 0.82715 0.98217 0.0
C131 C 0.20288 0.82909 0.89752 0.0
Fe132 Fe 0.71844 0.3104 0.54968 0.0
Fe133 Fe 0.7719 0.35665 0.57083 0.0
O134 O 0.73688 0.3341 0.57937 0.0
Fe135 Fe 0.72008 0.33484 0.61827 0.0
O136 O 0.70262 0.29456 0.61649 0.0
O137 O 0.72374 0.27396 0.57321 0.0
O138 O 0.75606 0.3004 0.52825 0.0
C139 C 0.78532 0.30309 0.53608 0.0
C140 C 0.66571 0.33809 0.5839 0.0
O141 O 0.79359 0.32205 0.55766 0.0
C142 C 0.74341 0.39836 0.6115 0.0
O143 O 0.71184 0.34479 0.52445 0.0
O144 O 0.75944 0.3673 0.52967 0.0
O145 O 0.6836 0.35268 0.60334 0.0
O146 O 0.67737 0.31674 0.5656 0.0
C147 C 0.78389 0.32664 0.63036 0.0
O148 O 0.75346 0.39363 0.58356 0.0
O149 O 0.73451 0.37501 0.62862 0.0
C150 C 0.73275 0.36467 0.51523 0.0
O151 O 0.79019 0.34889 0.61043 0.0
O152 O 0.75556 0.31662 0.63424 0.0
C153 C 0.71131 0.27051 0.60056 0.0
Fe154 Fe 0.77898 0.717 0.05458 0.0
Fe155 Fe 0.73129 0.66096 0.0589 0.0
O156 O 0.76069 0.68568 0.07729 0.0
Fe157 Fe 0.77076 0.67928 0.11803 0.0
O158 O 0.76163 0.72002 0.12862 0.0
O159 O 0.78296 0.74515 0.08761 0.0
O160 O 0.74032 0.73548 0.04569 0.0
C161 C 0.71749 0.72101 0.03235 0.0
C162 C 0.83115 0.69467 0.08832 0.0
O163 O 0.71762 0.69097 0.03039 0.0
C164 C 0.7603 0.6171 0.10238 0.0
O165 O 0.7788 0.69402 0.0175 0.0
O166 O 0.76107 0.64591 0.03034 0.0
O167 O 0.81363 0.6885 0.11249 0.0
O168 O 0.81911 0.70188 0.06159 0.0
C169 C 0.70295 0.67573 0.11649 0.0
O170 O 0.73804 0.62586 0.08405 0.0
O171 O 0.78048 0.63726 0.11216 0.0
C172 C 0.77753 0.6642 0.01228 0.0
O173 O 0.70033 0.6753 0.08635 0.0
O174 O 0.72943 0.66995 0.13012 0.0
C175 C 0.77165 0.74528 0.11561 0.0
Fe176 Fe 0.4609 0.21852 0.21088 0.0
Fe177 Fe 0.45081 0.26146 0.15186 0.0
O178 O 0.43523 0.23424 0.18077 0.0
Fe179 Fe 0.39409 0.22377 0.17969 0.0
O180 O 0.38767 0.2375 0.22001 0.0
O181 O 0.4302 0.21656 0.24248 0.0
O182 O 0.4713 0.25863 0.22515 0.0
C183 C 0.48272 0.28047 0.20748 0.0
C184 C 0.42495 0.16507 0.19652 0.0
O185 O 0.48199 0.27771 0.1775 0.0
C186 C 0.40356 0.22779 0.11582 0.0
O187 O 0.49589 0.21695 0.1841 0.0
O188 O 0.47815 0.23119 0.13643 0.0
O189 O 0.4003 0.18234 0.19284 0.0
O190 O 0.45251 0.17733 0.19966 0.0
C191 C 0.39439 0.29055 0.16842 0.0
O192 O 0.42222 0.2512 0.12023 0.0
O193 O 0.39671 0.20948 0.13884 0.0
C194 C 0.49832 0.21666 0.1538 0.0
O195 O 0.42454 0.29328 0.16623 0.0
O196 O 0.38081 0.2635 0.16672 0.0
C197 C 0.40249 0.22857 0.24456 0.0
Fe198 Fe 0.96049 0.30145 0.80373 0.0
Fe199 Fe 0.94993 0.24673 0.85264 0.0
O200 O 0.93455 0.27652 0.82654 0.0
Fe201 Fe 0.89266 0.28115 0.82326 0.0
O202 O 0.89305 0.29512 0.78215 0.0
O203 O 0.9427 0.28964 0.76582 0.0
O204 O 0.9906 0.27025 0.79713 0.0
C205 C 0.98929 0.24012 0.80014 0.0
C206 C 0.91151 0.34324 0.82575 0.0
O207 O 0.97024 0.22702 0.8198 0.0
C208 C 0.90049 0.26976 0.88876 0.0
O209 O 0.98058 0.31566 0.83914 0.0
O210 O 0.9865 0.26924 0.86303 0.0
O211 O 0.8947 0.32143 0.83829 0.0
O212 O 0.9345 0.33667 0.80688 0.0
C213 C 0.89691 0.21645 0.82319 0.0
O214 O 0.93031 0.26452 0.8875 0.0
O215 O 0.88374 0.26828 0.86383 0.0
C216 C 0.99447 0.29831 0.85941 0.0
O217 O 0.91632 0.21851 0.8464 0.0
O218 O 0.88865 0.24109 0.80792 0.0
C219 C 0.91319 0.2917 0.75995 0.0
Fe220 Fe 0.62065 0.72948 0.33241 0.0
Fe221 Fe 0.55155 0.7215 0.30895 0.0
O222 O 0.58005 0.74121 0.33347 0.0
Fe223 Fe 0.56844 0.77293 0.35901 0.0
O224 O 0.60639 0.79524 0.35495 0.0
O225 O 0.63277 0.7686 0.31816 0.0
O226 O 0.62061 0.71672 0.29071 0.0
C227 C 0.60271 0.72435 0.26771 0.0
C228 C 0.61109 0.74405 0.39806 0.0
O229 O 0.57363 0.7313 0.27231 0.0
C230 C 0.51645 0.7291 0.36435 0.0
O231 O 0.61049 0.68985 0.34633 0.0
O232 O 0.5713 0.68189 0.31213 0.0
O233 O 0.58224 0.75208 0.39445 0.0
O234 O 0.62899 0.74009 0.37393 0.0
C235 C 0.53366 0.78735 0.30564 0.0
O236 O 0.52715 0.71013 0.34346 0.0
O237 O 0.52837 0.75676 0.36745 0.0
C238 C 0.59226 0.67106 0.3314 0.0
O239 O 0.52732 0.75787 0.30162 0.0
O240 O 0.55417 0.79611 0.32575 0.0
C241 C 0.62725 0.79426 0.33288 0.0
Fe242 Fe 0.05514 0.79251 0.70709 0.0
Fe243 Fe 0.07076 0.73686 0.66111 0.0
O244 O 0.08327 0.77019 0.68419 0.0
Fe245 Fe 0.12447 0.7804 0.68521 0.0
O246 O 0.12565 0.77306 0.72776 0.0
O247 O 0.08249 0.8004 0.74033 0.0
O248 O 0.04188 0.75738 0.72905 0.0
C249 C 0.03185 0.73177 0.71691 0.0
C250 C 0.09403 0.84091 0.68606 0.0
O251 O 0.03774 0.7251 0.68798 0.0
C252 C 0.1198 0.76614 0.62228 0.0
O253 O 0.02312 0.78827 0.67784 0.0
O254 O 0.04405 0.76175 0.63726 0.0
O255 O 0.11802 0.82319 0.69073 0.0
O256 O 0.0659 0.82989 0.68748 0.0
C257 C 0.12585 0.71377 0.6883 0.0
O258 O 0.10184 0.74262 0.62985 0.0
O259 O 0.12585 0.78767 0.64245 0.0
C260 C 0.02279 0.78008 0.64872 0.0
O261 O 0.09618 0.70955 0.68413 0.0
O262 O 0.13897 0.73971 0.6801 0.0
C263 C 0.10742 0.78536 0.74838 0.0
Fe264 Fe 0.83587 0.6228 0.7813 0.0
Fe265 Fe 0.85372 0.56591 0.73958 0.0
O266 O 0.83061 0.5821 0.77123 0.0
Fe267 Fe 0.80235 0.55776 0.79212 0.0
O268 O 0.77257 0.58985 0.7974 0.0
O269 O 0.79448 0.6311 0.77262 0.0
O270 O 0.84492 0.63563 0.74035 0.0
C271 C 0.83805 0.62307 0.71378 0.0
C272 C 0.82442 0.59331 0.84213 0.0
O273 O 0.83602 0.59318 0.71079 0.0
C274 C 0.85766 0.51887 0.78461 0.0
O275 O 0.87832 0.61756 0.79011 0.0
O276 O 0.88832 0.59224 0.74545 0.0
O277 O 0.82031 0.56589 0.8306 0.0
O278 O 0.82699 0.61752 0.82404 0.0
C279 C 0.79413 0.53445 0.73165 0.0
O280 O 0.87244 0.53823 0.76662 0.0
O281 O 0.82785 0.52197 0.79038 0.0
C282 C 0.89801 0.60846 0.76898 0.0
O283 O 0.82406 0.53615 0.72737 0.0
O284 O 0.78127 0.54711 0.75573 0.0
C285 C 0.77026 0.6171 0.78422 0.0
Fe286 Fe 0.70505 0.45982 0.29037 0.0
Fe287 Fe 0.67762 0.39255 0.27883 0.0
O288 O 0.67859 0.43382 0.26954 0.0
Fe289 Fe 0.65329 0.44847 0.23879 0.0
O290 O 0.68085 0.4802 0.22523 0.0
O291 O 0.72445 0.47324 0.25368 0.0
O292 O 0.73747 0.42997 0.29406 0.0
C293 C 0.74212 0.40403 0.27909 0.0
C294 C 0.64709 0.49578 0.28352 0.0
O295 O 0.71909 0.38842 0.26756 0.0
C296 C 0.61415 0.40113 0.27035 0.0
O297 O 0.68853 0.44893 0.32929 0.0
O298 O 0.68766 0.39717 0.32107 0.0
O299 O 0.63329 0.47531 0.26619 0.0
O300 O 0.6768 0.49368 0.28998 0.0
C301 C 0.67261 0.39274 0.21172 0.0
O302 O 0.6357 0.39426 0.29026 0.0
O303 O 0.62075 0.41915 0.24661 0.0
C304 C 0.68659 0.42073 0.33976 0.0
O305 O 0.66765 0.3795 0.23843 0.0
O306 O 0.67194 0.42271 0.20896 0.0
C307 C 0.71056 0.48471 0.22955 0.0
Fe308 Fe 0.30273 0.95049 0.21653 0.0
Fe309 Fe 0.32627 0.88216 0.22629 0.0
O310 O 0.32889 0.92317 0.23568 0.0
Fe311 Fe 0.35729 0.93593 0.26453 0.0
O312 O 0.32619 0.9526 0.28925 0.0
O313 O 0.29728 0.97603 0.25201 0.0
O314 O 0.26687 0.92904 0.22981 0.0
C315 C 0.26158 0.90011 0.22385 0.0
C316 C 0.3577 0.98695 0.21833 0.0
O317 O 0.284 0.8821 0.21506 0.0
C318 C 0.39288 0.89008 0.2354 0.0
O319 O 0.30432 0.92925 0.1777 0.0
O320 O 0.33867 0.89007 0.18584 0.0
O321 O 0.36542 0.97513 0.24524 0.0
O322 O 0.33577 0.97449 0.20187 0.0
C323 C 0.33023 0.87949 0.29106 0.0
O324 O 0.3679 0.87307 0.23529 0.0
O325 O 0.39111 0.91941 0.24216 0.0
C326 C 0.3241 0.90861 0.16707 0.0
O327 O 0.31376 0.87297 0.26667 0.0
O328 O 0.35329 0.89941 0.28941 0.0
C329 C 0.30417 0.97145 0.2812 0.0
Fe330 Fe 0.18434 0.118 0.72423 0.0
Fe331 Fe 0.15638 0.06945 0.77141 0.0
O332 O 0.18123 0.07826 0.73816 0.0
Fe333 Fe 0.20363 0.04801 0.71887 0.0
O334 O 0.24133 0.06812 0.72792 0.0
O335 O 0.22531 0.1141 0.70877 0.0
O336 O 0.20184 0.13028 0.76143 0.0
C337 C 0.18962 0.12576 0.78871 0.0
C338 C 0.18098 0.0875 0.66766 0.0
O339 O 0.16555 0.10731 0.79239 0.0
C340 C 0.14655 0.01689 0.72886 0.0
O341 O 0.14425 0.13025 0.73738 0.0
O342 O 0.12118 0.08567 0.7521 0.0
O343 O 0.20069 0.06697 0.67866 0.0
O344 O 0.16731 0.10691 0.68628 0.0
C345 C 0.20701 0.03045 0.78474 0.0
O346 O 0.14391 0.02993 0.75617 0.0
O347 O 0.16767 0.02604 0.7091 0.0
C348 C 0.11912 0.11444 0.74364 0.0
O349 O 0.18921 0.0529 0.79349 0.0
O350 O 0.21004 0.02365 0.75534 0.0
C351 C 0.24739 0.09619 0.71878 0.0
Fe352 Fe 0.78638 0.8267 0.61786 0.0
Fe353 Fe 0.74669 0.85265 0.56188 0.0
O354 O 0.77767 0.82769 0.57667 0.0
Fe355 Fe 0.79998 0.80305 0.55052 0.0
O356 O 0.78679 0.76694 0.57089 0.0
O357 O 0.79938 0.78497 0.61829 0.0
O358 O 0.74648 0.81232 0.62701 0.0
C359 C 0.72078 0.82618 0.61937 0.0
C360 C 0.84702 0.82533 0.59407 0.0
O361 O 0.72054 0.84751 0.59759 0.0
C362 C 0.79668 0.85709 0.51449 0.0
O363 O 0.77465 0.86807 0.62544 0.0
O364 O 0.76499 0.88858 0.57817 0.0
O365 O 0.8373 0.80514 0.57376 0.0
O366 O 0.82706 0.84077 0.61075 0.0
C367 C 0.73719 0.79887 0.52585 0.0
O368 O 0.76776 0.86151 0.52346 0.0
O369 O 0.81432 0.83727 0.52868 0.0
C370 C 0.77077 0.89214 0.60753 0.0
O371 O 0.72544 0.8189 0.54493 0.0
O372 O 0.76721 0.79654 0.52235 0.0
C373 C 0.79227 0.76208 0.60002 0.0
Fe374 Fe 0.72547 0.18927 0.11592 0.0
Fe375 Fe 0.77747 0.16567 0.06974 0.0
O376 O 0.74327 0.18943 0.07744 0.0
Fe377 Fe 0.72677 0.214 0.04716 0.0
O378 O 0.73403 0.24998 0.07047 0.0
O379 O 0.71085 0.23051 0.11353 0.0
O380 O 0.76153 0.20536 0.133 0.0
C381 C 0.78946 0.19421 0.13007 0.0
C382 C 0.67157 0.18964 0.08038 0.0
O383 O 0.79544 0.17234 0.10981 0.0
C384 C 0.73884 0.15944 0.01331 0.0
O385 O 0.73732 0.14819 0.12654 0.0
O386 O 0.75712 0.12943 0.08205 0.0
O387 O 0.68511 0.21015 0.06221 0.0
O388 O 0.68805 0.17379 0.10019 0.0
C389 C 0.794 0.21849 0.03496 0.0
O390 O 0.76519 0.15581 0.02826 0.0
O391 O 0.71859 0.17996 0.02216 0.0
C392 C 0.74644 0.12476 0.10982 0.0
O393 O 0.80102 0.1995 0.05705 0.0
O394 O 0.76512 0.22189 0.0263 0.0
C395 C 0.72147 0.25406 0.09762 0.0
Fe396 Fe 0.29029 0.69797 0.45903 0.0
Fe397 Fe 0.28364 0.67445 0.38964 0.0
O398 O 0.27153 0.67298 0.43023 0.0
Fe399 Fe 0.23959 0.6469 0.44134 0.0
O400 O 0.22466 0.67149 0.47389 0.0
O401 O 0.25207 0.7162 0.47101 0.0
O402 O 0.29633 0.73214 0.43163 0.0
C403 C 0.28369 0.73815 0.40481 0.0
C404 C 0.28162 0.63788 0.49081 0.0
O405 O 0.27362 0.71619 0.387 0.0
C406 C 0.27357 0.61085 0.39437 0.0
O407 O 0.33024 0.68238 0.44993 0.0
O408 O 0.32551 0.68333 0.39762 0.0
O409 O 0.26536 0.62497 0.46876 0.0
O410 O 0.28749 0.66771 0.49078 0.0
C411 C 0.21714 0.67326 0.38571 0.0
O412 O 0.29417 0.63246 0.38951 0.0
O413 O 0.24855 0.61678 0.41065 0.0
C414 C 0.34247 0.68071 0.42231 0.0
O415 O 0.24394 0.66604 0.3738 0.0
O416 O 0.21166 0.66831 0.41505 0.0
C417 C 0.2273 0.7009 0.47971 0.0
Fe418 Fe 0.22445 0.3132 0.89364 0.0
Fe419 Fe 0.27648 0.34265 0.93631 0.0
O420 O 0.242 0.31803 0.93174 0.0
Fe421 Fe 0.22483 0.29751 0.96498 0.0
O422 O 0.23161 0.25862 0.94674 0.0
O423 O 0.20997 0.27264 0.90107 0.0
O424 O 0.26074 0.29549 0.87833 0.0
C425 C 0.28857 0.30736 0.87953 0.0
C426 C 0.17013 0.31719 0.929 0.0
O427 O 0.29475 0.33081 0.89775 0.0
C428 C 0.23737 0.35614 0.9912 0.0
O429 O 0.23603 0.35243 0.878 0.0
O430 O 0.25727 0.37751 0.91851 0.0
O431 O 0.18347 0.29939 0.94967 0.0
O432 O 0.18677 0.33033 0.90724 0.0
C433 C 0.29168 0.2938 0.97782 0.0
O434 O 0.26382 0.35788 0.97591 0.0
O435 O 0.21699 0.33468 0.98513 0.0
C436 C 0.24561 0.37798 0.89074 0.0
O437 O 0.29944 0.31053 0.95396 0.0
O438 O 0.2627 0.29187 0.98676 0.0
C439 C 0.22017 0.25141 0.91989 0.0
Fe440 Fe 0.56448 0.74573 0.8575 0.0
Fe441 Fe 0.54956 0.79018 0.80041 0.0
O442 O 0.57731 0.77442 0.82863 0.0
Fe443 Fe 0.6181 0.78638 0.82789 0.0
O444 O 0.63344 0.7473 0.83979 0.0
O445 O 0.59128 0.71561 0.84107 0.0
O446 O 0.53284 0.72841 0.83294 0.0
C447 C 0.52942 0.72744 0.803 0.0
C448 C 0.61069 0.78194 0.89221 0.0
O449 O 0.53921 0.7503 0.78565 0.0
C450 C 0.58489 0.84415 0.81382 0.0
O451 O 0.53671 0.77403 0.87508 0.0
O452 O 0.51589 0.78995 0.82925 0.0
O453 O 0.61687 0.80027 0.869 0.0
O454 O 0.59387 0.75711 0.88795 0.0
C455 C 0.60644 0.78158 0.76348 0.0
O456 O 0.55745 0.83135 0.81216 0.0
O457 O 0.61006 0.82745 0.81541 0.0
C458 C 0.51466 0.78779 0.85961 0.0
O459 O 0.57873 0.79348 0.76707 0.0
O460 O 0.62291 0.77316 0.78715 0.0
C461 C 0.62097 0.7199 0.83691 0.0
Fe462 Fe 0.04616 0.70787 0.20804 0.0
Fe463 Fe 0.11421 0.72397 0.1851 0.0
O464 O 0.07255 0.73158 0.18421 0.0
Fe465 Fe 0.0576 0.76306 0.15987 0.0
O466 O 0.04007 0.78284 0.19409 0.0
O467 O 0.01765 0.74059 0.2163 0.0
O468 O 0.06618 0.71859 0.245 0.0
C469 C 0.0957 0.71461 0.24963 0.0
C470 C 0.0098 0.71379 0.15424 0.0
O471 O 0.11469 0.70992 0.2265 0.0
C472 C 0.10438 0.74148 0.11985 0.0
O473 O 0.07012 0.6709 0.20405 0.0
O474 O 0.10853 0.68379 0.17008 0.0
O475 O 0.01928 0.74249 0.15052 0.0
O476 O 0.024 0.69527 0.1733 0.0
C477 C 0.11462 0.78913 0.18659 0.0
O478 O 0.1221 0.73698 0.1439 0.0
O479 O 0.07465 0.74621 0.12348 0.0
C480 C 0.09214 0.66278 0.18458 0.0
O481 O 0.12231 0.76351 0.20049 0.0
O482 O 0.09296 0.78931 0.16534 0.0
C483 C 0.02052 0.7707 0.21377 0.0
Fe484 Fe 0.39174 0.27681 0.67981 0.0
Fe485 Fe 0.44638 0.23719 0.65041 0.0
O486 O 0.43321 0.26868 0.67573 0.0
Fe487 Fe 0.46143 0.29208 0.69729 0.0
O488 O 0.44396 0.28068 0.73582 0.0
O489 O 0.39418 0.28951 0.72122 0.0
O490 O 0.38369 0.23676 0.69482 0.0
C491 C 0.39062 0.21143 0.68011 0.0
C492 C 0.4149 0.33785 0.67833 0.0
O493 O 0.41166 0.21133 0.65822 0.0
C494 C 0.49229 0.28667 0.63955 0.0
O495 O 0.38122 0.26551 0.63921 0.0
O496 O 0.42684 0.25436 0.61525 0.0
O497 O 0.43777 0.32894 0.69601 0.0
O498 O 0.39688 0.3175 0.66523 0.0
C499 C 0.48772 0.22963 0.7011 0.0
O500 O 0.48332 0.25775 0.63799 0.0
O501 O 0.48099 0.30515 0.66057 0.0
C502 C 0.39743 0.26165 0.61399 0.0
O503 O 0.46684 0.21692 0.68335 0.0
O504 O 0.4903 0.2597 0.7026 0.0
C505 C 0.41462 0.28393 0.74262 0.0
Fe506 Fe 0.96312 0.22156 0.31014 0.0
Fe507 Fe 0.89232 0.22941 0.328 0.0
O508 O 0.9328 0.241 0.33286 0.0
Fe509 Fe 0.9421 0.27203 0.36029 0.0
O510 O 0.96119 0.29582 0.32944 0.0
O511 O 0.9879 0.25775 0.3047 0.0
O512 O 0.94423 0.23134 0.27194 0.0
C513 C 0.91577 0.22387 0.26521 0.0
C514 C 0.9941 0.2281 0.36797 0.0
O515 O 0.89619 0.21619 0.28685 0.0
C516 C 0.89416 0.24256 0.39401 0.0
O517 O 0.94312 0.18206 0.31206 0.0
O518 O 0.90085 0.18988 0.34294 0.0
O519 O 0.98077 0.25489 0.37267 0.0
O520 O 0.98491 0.20997 0.34577 0.0
C521 C 0.88666 0.29417 0.32804 0.0
O522 O 0.87931 0.24005 0.36803 0.0
O523 O 0.92328 0.25097 0.39397 0.0
C524 C 0.92082 0.17125 0.33004 0.0
O525 O 0.8823 0.26857 0.31276 0.0
O526 O 0.90528 0.29495 0.35198 0.0
C527 C 0.98252 0.28712 0.30991 0.0
H528 H 0.26057 0.51634 0.2791 0.0
H529 H 0.19641 0.47009 0.34636 0.0
H530 H 0.21293 0.5068 0.38797 0.0
H531 H 0.24058 0.5558 0.40377 0.0
H532 H 0.30523 0.60233 0.33745 0.0
H533 H 0.29415 0.5614 0.29749 0.0
C534 C 0.2505 0.51406 0.30295 0.0
C535 C 0.22681 0.49079 0.30926 0.0
C536 C 0.26017 0.53534 0.32708 0.0
C537 C 0.21443 0.48791 0.34053 0.0
C538 C 0.22383 0.50895 0.36448 0.0
C539 C 0.25277 0.55662 0.38081 0.0
C540 C 0.27334 0.58231 0.37352 0.0
C541 C 0.24597 0.5333 0.3578 0.0
C542 C 0.28925 0.58283 0.34377 0.0
C543 C 0.28268 0.55957 0.32073 0.0
H544 H 0.28018 0.43277 0.90185 0.0
H545 H 0.21908 0.38785 0.83209 0.0
H546 H 0.23178 0.42976 0.79349 0.0
H547 H 0.26401 0.47664 0.77759 0.0
H548 H 0.32487 0.52179 0.84743 0.0
H549 H 0.3084 0.48266 0.88752 0.0
C550 C 0.26913 0.43246 0.87845 0.0
C551 C 0.24891 0.40687 0.86998 0.0
C552 C 0.27684 0.45658 0.85599 0.0
C553 C 0.23492 0.40702 0.83937 0.0
C554 C 0.24227 0.43097 0.81711 0.0
C555 C 0.27348 0.47811 0.80163 0.0
C556 C 0.29598 0.50206 0.80915 0.0
C557 C 0.26387 0.45542 0.82483 0.0
C558 C 0.30767 0.50363 0.84067 0.0
C559 C 0.29828 0.48117 0.86375 0.0
H560 H 0.78783 0.90907 0.66742 0.0
H561 H 0.7412 0.94556 0.58303 0.0
H562 H 0.7229 0.99223 0.61304 0.0
H563 H 0.71482 0.01923 0.66495 0.0
H564 H 0.76058 0.98091 0.74919 0.0
H565 H 0.78437 0.93849 0.71749 0.0
C566 C 0.77408 0.92746 0.65537 0.0
C567 C 0.7656 0.92355 0.62309 0.0
C568 C 0.763 0.95373 0.67291 0.0
C569 C 0.7481 0.94787 0.60784 0.0
C570 C 0.73737 0.97445 0.62509 0.0
C571 C 0.73028 1.00182 0.67632 0.0
C572 C 0.7354 1.0031 0.70961 0.0
C573 C 0.74379 0.9771 0.65792 0.0
C574 C 0.7558 0.98042 0.72378 0.0
C575 C 0.7695 0.95609 0.70564 0.0
H576 H 0.8066 0.99912 0.16599 0.0
H577 H 0.75076 0.02709 0.2482 0.0
H578 H 0.72676 0.07065 0.21743 0.0
H579 H 0.72618 0.10421 0.16878 0.0
H580 H 0.78079 0.0746 0.0861 0.0
H581 H 0.8001 0.02809 0.1152 0.0
C582 C 0.78885 0.01452 0.177 0.0
C583 C 0.78078 0.01017 0.2094 0.0
C584 C 0.77495 0.03933 0.15911 0.0
C585 C 0.75739 0.02996 0.22328 0.0
C586 C 0.74377 0.05497 0.20574 0.0
C587 C 0.74182 0.08728 0.15692 0.0
C588 C 0.75235 0.09334 0.12541 0.0
C589 C 0.75299 0.0604 0.17385 0.0
C590 C 0.77236 0.07083 0.11036 0.0
C591 C 0.78364 0.04422 0.12706 0.0
H592 H 0.40553 0.2192 0.56553 0.0
H593 H 0.34701 0.29817 0.59605 0.0
H594 H 0.30815 0.28663 0.55406 0.0
H595 H 0.28707 0.24942 0.51343 0.0
H596 H 0.34462 0.16862 0.48547 0.0
H597 H 0.38726 0.18553 0.52119 0.0
C598 C 0.38482 0.23448 0.56226 0.0
C599 C 0.37922 0.25954 0.58376 0.0
C600 C 0.36188 0.22693 0.53883 0.0
C601 C 0.35187 0.27875 0.57969 0.0
C602 C 0.32949 0.27201 0.55583 0.0
C603 C 0.30917 0.23589 0.51477 0.0
C604 C 0.31234 0.20753 0.49714 0.0
C605 C 0.3336 0.24541 0.536 0.0
C606 C 0.34123 0.19027 0.49918 0.0
C607 C 0.36576 0.19994 0.51958 0.0
H608 H 0.16225 0.72059 0.0987 0.0
H609 H 0.08331 0.78152 0.07247 0.0
H610 H 0.11509 0.80382 0.02835 0.0
H611 H 0.16731 0.80972 1.00047 0.0
H612 H 0.24535 0.7472 0.02567 0.0
H613 H 0.21204 0.72195 0.06691 0.0
C614 C 0.15176 0.73829 0.08292 0.0
C615 C 0.12046 0.74944 0.08902 0.0
C616 C 0.17025 0.75115 0.05772 0.0
C617 C 0.1072 0.77228 0.06824 0.0
C618 C 0.12552 0.78533 0.04319 0.0
C619 C 0.17692 0.79044 0.01491 0.0
C620 C 0.20894 0.78068 0.01032 0.0
C621 C 0.15739 0.7756 0.03827 0.0
C622 C 0.22087 0.75526 0.02878 0.0
C623 C 0.20183 0.74083 0.0524 0.0
H624 H 0.90621 0.2728 0.45078 0.0
H625 H 0.83685 0.21325 0.40309 0.0
H626 H 0.79727 0.22437 0.4445 0.0
H627 H 0.77982 0.25712 0.49 0.0
H628 H 0.84949 0.31593 0.53835 0.0
H629 H 0.89109 0.29878 0.50138 0.0
C630 C 0.88278 0.26153 0.44997 0.0
C631 C 0.87438 0.24274 0.42355 0.0
C632 C 0.85977 0.26836 0.47375 0.0
C633 C 0.84382 0.22826 0.42294 0.0
C634 C 0.82104 0.2347 0.44654 0.0
C635 C 0.80419 0.2658 0.49275 0.0
C636 C 0.81116 0.28828 0.51657 0.0
C637 C 0.82829 0.25579 0.47135 0.0
C638 C 0.84312 0.29886 0.52004 0.0
C639 C 0.86709 0.28911 0.49883 0.0
H640 H 0.59873 0.75237 0.94861 0.0
H641 H 0.66708 0.81476 0.90203 0.0
H642 H 0.70542 0.80551 0.94516 0.0
H643 H 0.72281 0.77192 0.99112 0.0
H644 H 0.65466 0.70728 0.03472 0.0
H645 H 0.61304 0.72537 0.99821 0.0
C646 C 0.62173 0.76457 0.94823 0.0
C647 C 0.63014 0.78378 0.92183 0.0
C648 C 0.64397 0.75836 0.97253 0.0
C649 C 0.65992 0.79973 0.92197 0.0
C650 C 0.68203 0.79421 0.94654 0.0
C651 C 0.69856 0.76265 0.99316 0.0
C652 C 0.69175 0.73821 0.01541 0.0
C653 C 0.67486 0.77244 0.97123 0.0
C654 C 0.6604 0.72601 0.01764 0.0
C655 C 0.63663 0.73624 0.99669 0.0
H656 H 0.51694 0.28566 0.26363 0.0
H657 H 0.48728 0.33865 0.18022 0.0
H658 H 0.52191 0.38295 0.19498 0.0
H659 H 0.56555 0.40391 0.22732 0.0
H660 H 0.5974 0.35116 0.31006 0.0
H661 H 0.55676 0.31024 0.30027 0.0
C662 C 0.51763 0.30718 0.24913 0.0
C663 C 0.49993 0.30858 0.22059 0.0
C664 C 0.53824 0.33267 0.25747 0.0
C665 C 0.50108 0.33668 0.20203 0.0
C666 C 0.52087 0.36213 0.21044 0.0
C667 C 0.56325 0.38384 0.24367 0.0
C668 C 0.58494 0.38056 0.2691 0.0
C669 C 0.54036 0.35997 0.23749 0.0
C670 C 0.58125 0.35437 0.29011 0.0
C671 C 0.55809 0.33074 0.28441 0.0
H672 H 0.99297 0.17505 0.79876 0.0
H673 H 0.03877 0.2605 0.76219 0.0
H674 H 0.08075 0.2284 0.73769 0.0
H675 H 0.10729 0.17692 0.73122 0.0
H676 H 0.0627 0.09136 0.76887 0.0
H677 H 0.01707 0.12268 0.78766 0.0
C678 C 0.01199 0.18666 0.78524 0.0
C679 C 0.01295 0.22021 0.78283 0.0
C680 C 0.03629 0.16806 0.77134 0.0
C681 C 0.03755 0.23477 0.76477 0.0
C682 C 0.06161 0.21643 0.75071 0.0
C683 C 0.08739 0.16496 0.74309 0.0
C684 C 0.08873 0.13189 0.74905 0.0
C685 C 0.06163 0.18316 0.75449 0.0
C686 C 0.06247 0.11682 0.76413 0.0
C687 C 0.03644 0.13474 0.77509 0.0
H688 H 0.49246 0.78138 0.25526 0.0
H689 H 0.53069 0.85041 0.32146 0.0
H690 H 0.49409 0.89076 0.30135 0.0
H691 H 0.44613 0.90446 0.27022 0.0
H692 H 0.40769 0.83562 0.2042 0.0
H693 H 0.44983 0.79784 0.21823 0.0
C694 C 0.49302 0.80534 0.26501 0.0
C695 C 0.51389 0.81249 0.29027 0.0
C696 C 0.47185 0.8287 0.25328 0.0
C697 C 0.51467 0.84394 0.30222 0.0
C698 C 0.49371 0.86719 0.29074 0.0
C699 C 0.4477 0.88166 0.25809 0.0
C700 C 0.42369 0.87274 0.23645 0.0
C701 C 0.47153 0.85962 0.26692 0.0
C702 C 0.42586 0.84295 0.22111 0.0
C703 C 0.44977 0.82118 0.22933 0.0
H704 H 0.91734 0.66669 0.79178 0.0
H705 H 0.94964 0.58574 0.73693 0.0
H706 H 0.99567 0.6163 0.7176 0.0
H707 H 0.02244 0.66808 0.71024 0.0
H708 H 0.99101 0.74925 0.7651 0.0
H709 H 0.94919 0.71663 0.79048 0.0
C710 C 0.93501 0.65542 0.77645 0.0
C711 C 0.92983 0.62404 0.76557 0.0
C712 C 0.96125 0.67342 0.76481 0.0
C713 C 0.95291 0.60992 0.7455 0.0
C714 C 0.97915 0.62746 0.73421 0.0
C715 C 0.00666 0.67851 0.72804 0.0
C716 C 0.00947 0.71112 0.73537 0.0
C717 C 0.98281 0.6596 0.74264 0.0
C718 C 0.98925 0.7242 0.75891 0.0
C719 C 0.96526 0.70557 0.77339 0.0
H720 H 0.72041 0.41988 0.66871 0.0
H721 H 0.78057 0.44739 0.58884 0.0
H722 H 0.79929 0.49394 0.61817 0.0
H723 H 0.80381 0.52298 0.66885 0.0
H724 H 0.74299 0.49682 0.74843 0.0
H725 H 0.71906 0.45388 0.7168 0.0
C726 C 0.73717 0.43638 0.6575 0.0
C727 C 0.74943 0.42976 0.62679 0.0
C728 C 0.74798 0.46321 0.67458 0.0
C729 C 0.77081 0.45167 0.61248 0.0
C730 C 0.78172 0.47827 0.62932 0.0
C731 C 0.78491 0.50819 0.67905 0.0
C732 C 0.77545 0.51275 0.711 0.0
C733 C 0.77129 0.48366 0.66074 0.0
C734 C 0.75066 0.49377 0.72386 0.0
C735 C 0.73714 0.46909 0.70584 0.0
H736 H 0.70056 0.49482 0.16621 0.0
H737 H 0.76025 0.52471 0.24446 0.0
H738 H 0.7847 0.56608 0.21063 0.0
H739 H 0.78451 0.5977 0.1604 0.0
H740 H 0.72556 0.56617 0.08201 0.0
H741 H 0.7062 0.52127 0.11392 0.0
C742 C 0.71919 0.51017 0.17573 0.0
C743 C 0.72821 0.50698 0.20794 0.0
C744 C 0.73339 0.53368 0.15604 0.0
C745 C 0.75278 0.5267 0.21978 0.0
C746 C 0.76673 0.55045 0.20044 0.0
C747 C 0.76818 0.58049 0.14996 0.0
C748 C 0.75626 0.5857 0.11887 0.0
C749 C 0.75669 0.55469 0.1687 0.0
C750 C 0.73498 0.56305 0.10591 0.0
C751 C 0.72367 0.53739 0.12424 0.0
H752 H 0.26603 0.04995 0.40304 0.0
H753 H 0.20814 0.1003 0.33422 0.0
H754 H 0.22202 0.06103 0.29338 0.0
H755 H 0.25715 0.01698 0.27541 0.0
H756 H 0.31552 0.96793 0.3451 0.0
H757 H 0.29498 1.00211 0.38707 0.0
C758 C 0.25583 0.05193 0.3793 0.0
C759 C 0.23653 0.07826 0.37161 0.0
C760 C 0.26459 0.02986 0.35577 0.0
C761 C 0.22314 0.08027 0.34084 0.0
C762 C 0.23138 0.05801 0.31732 0.0
C763 C 0.2651 0.01356 0.29982 0.0
C764 C 0.28847 0.99035 0.30677 0.0
C765 C 0.2532 0.03348 0.32418 0.0
C766 C 0.29804 0.98593 0.33874 0.0
C767 C 0.28624 0.00543 0.36293 0.0
H768 H 0.2325 0.94236 0.90399 0.0
H769 H 0.29245 0.89363 0.83545 0.0
H770 H 0.28199 0.93506 0.79584 0.0
H771 H 0.25081 0.98206 0.77862 0.0
H772 H 0.19228 0.03125 0.84818 0.0
H773 H 0.20738 0.99297 0.88905 0.0
C774 C 0.24373 0.94108 0.88058 0.0
C775 C 0.26275 0.91464 0.87266 0.0
C776 C 0.23756 0.96493 0.85776 0.0
C777 C 0.27749 0.91361 0.84229 0.0
C778 C 0.27138 0.93722 0.81944 0.0
C779 C 0.24168 0.98459 0.8028 0.0
C780 C 0.21999 0.00921 0.80998 0.0
C781 C 0.25061 0.96248 0.82657 0.0
C782 C 0.20879 0.0124 0.84167 0.0
C783 C 0.21735 0.99046 0.86522 0.0
H784 H 0.67186 0.80229 0.52114 0.0
H785 H 0.75468 0.75374 0.4825 0.0
H786 H 0.72117 0.72784 0.44283 0.0
H787 H 0.67017 0.72426 0.41493 0.0
H788 H 0.58748 0.77444 0.4513 0.0
H789 H 0.61891 0.79347 0.49662 0.0
C790 C 0.68252 0.78577 0.50428 0.0
C791 C 0.71589 0.78056 0.50441 0.0
C792 C 0.66314 0.77115 0.48113 0.0
C793 C 0.72919 0.75869 0.48265 0.0
C794 C 0.71004 0.74375 0.45995 0.0
C795 C 0.6588 0.73887 0.43309 0.0
C796 C 0.62672 0.74838 0.42941 0.0
C797 C 0.67723 0.75059 0.45836 0.0
C798 C 0.6122 0.76685 0.45344 0.0
C799 C 0.63026 0.77803 0.47921 0.0
H800 H 0.91361 0.24004 0.9456 0.0
H801 H 0.84694 0.30378 0.89966 0.0
H802 H 0.80876 0.29659 0.94335 0.0
H803 H 0.79081 0.26541 0.98981 0.0
H804 H 0.85719 0.20141 0.03605 0.0
H805 H 0.8988 0.21574 0.99753 0.0
C806 C 0.89119 0.25311 0.94577 0.0
C807 C 0.88284 0.27195 0.9193 0.0
C808 C 0.8689 0.24833 0.97074 0.0
C809 C 0.85365 0.28876 0.91969 0.0
C810 C 0.83171 0.28455 0.94456 0.0
C811 C 0.81454 0.25503 0.99179 0.0
C812 C 0.82054 0.23188 0.01534 0.0
C813 C 0.83845 0.26324 0.96944 0.0
C814 C 0.85166 0.21907 0.01793 0.0
C815 C 0.87557 0.22717 0.99582 0.0
H816 H 0.11055 0.72751 0.57109 0.0
H817 H 0.17487 0.79947 0.6074 0.0
H818 H 0.21299 0.78827 0.56432 0.0
H819 H 0.23102 0.75311 0.5199 0.0
H820 H 0.16579 0.68122 0.4848 0.0
H821 H 0.12538 0.6975 0.52338 0.0
C822 C 0.13266 0.74115 0.56933 0.0
C823 C 0.13987 0.76399 0.59279 0.0
C824 C 0.15468 0.73434 0.54474 0.0
C825 C 0.16858 0.78165 0.5898 0.0
C826 C 0.19058 0.77511 0.56521 0.0
C827 C 0.20774 0.7415 0.52032 0.0
C828 C 0.20178 0.71558 0.49978 0.0
C829 C 0.18436 0.75078 0.54306 0.0
C830 C 0.17136 0.70085 0.50066 0.0
C831 C 0.1481 0.71014 0.52275 0.0
H832 H 0.28623 0.24759 0.02421 0.0
H833 H 0.35555 0.30796 0.97611 0.0
H834 H 0.39743 0.28926 0.01188 0.0
H835 H 0.41331 0.26021 0.06021 0.0
H836 H 0.34465 0.19935 0.10846 0.0
H837 H 0.30408 0.21307 0.06882 0.0
C838 C 0.31056 0.25642 0.02138 0.0
C839 C 0.31749 0.27955 0.99773 0.0
C840 C 0.33481 0.24539 0.04202 0.0
C841 C 0.34933 0.29033 0.99414 0.0
C842 C 0.3734 0.27966 0.01465 0.0
C843 C 0.3897 0.24935 0.06168 0.0
C844 C 0.38209 0.22901 0.08754 0.0
C845 C 0.36627 0.25776 0.03912 0.0
C846 C 0.35135 0.21501 0.08885 0.0
C847 C 0.32795 0.22315 0.06634 0.0
H848 H 0.49145 0.72642 0.7494 0.0
H849 H 0.52491 0.66748 0.8271 0.0
H850 H 0.48881 0.6246 0.81115 0.0
H851 H 0.44285 0.60622 0.77943 0.0
H852 H 0.40659 0.66631 0.70403 0.0
H853 H 0.44869 0.70571 0.71422 0.0
C854 C 0.49126 0.70396 0.7624 0.0
C855 C 0.51067 0.70037 0.7896 0.0
C856 C 0.46969 0.67947 0.75356 0.0
C857 C 0.50995 0.67109 0.8063 0.0
C858 C 0.48929 0.64646 0.79719 0.0
C859 C 0.44479 0.62747 0.7646 0.0
C860 C 0.42168 0.63324 0.74093 0.0
C861 C 0.46835 0.65068 0.77144 0.0
C862 C 0.42415 0.66127 0.72237 0.0
C863 C 0.44811 0.68394 0.72833 0.0
H864 H 0.01917 0.83574 0.21211 0.0
H865 H 0.9713 0.75429 0.25461 0.0
H866 H 0.93136 0.78962 0.27862 0.0
H867 H 0.90673 0.84302 0.28259 0.0
H868 H 0.95301 0.92354 0.23698 0.0
H869 H 0.99717 0.88931 0.21972 0.0
C870 C 1.00021 0.82562 0.22687 0.0
C871 C 0.99812 0.79225 0.23114 0.0
C872 C 0.97701 0.84601 0.24015 0.0
C873 C 0.97345 0.7798 0.25063 0.0
C874 C 0.95055 0.80002 0.2644 0.0
C875 C 0.92696 0.85323 0.26969 0.0
C876 C 0.92671 0.88585 0.26122 0.0
C877 C 0.95166 0.8331 0.25872 0.0
C878 C 0.95275 0.89856 0.2439 0.0
C879 C 0.97787 0.87894 0.23381 0.0
H880 H 0.49707 0.16424 0.69905 0.0
H881 H 0.53363 0.2507 0.74185 0.0
H882 H 0.5769 0.22095 0.76636 0.0
H883 H 0.60727 0.17166 0.77242 0.0
H884 H 0.57227 0.08461 0.72997 0.0
H885 H 0.52548 0.1131 0.70937 0.0
C886 C 0.51432 0.1765 0.71398 0.0
C887 C 0.51212 0.20988 0.71805 0.0
C888 C 0.5396 0.15913 0.72821 0.0
C889 C 0.5347 0.22518 0.73778 0.0
C890 C 0.55958 0.20816 0.75196 0.0
C891 C 0.58921 0.1587 0.75906 0.0
C892 C 0.59358 0.12603 0.75262 0.0
C893 C 0.56267 0.1753 0.74685 0.0
C894 C 0.56965 0.10974 0.73543 0.0
C895 C 0.54294 0.1261 0.72338 0.0
H896 H 0.07343 0.40285 0.27397 0.0
H897 H 0.10972 0.33342 0.20711 0.0
H898 H 0.06736 0.29607 0.22261 0.0
H899 H 0.02418 0.2806 0.25978 0.0
H900 H 0.98807 0.34983 0.32705 0.0
H901 H 0.02597 0.38953 0.30676 0.0
C902 C 0.07149 0.37993 0.26213 0.0
C903 C 0.09487 0.3709 0.23958 0.0
C904 C 0.04746 0.35815 0.27172 0.0
C905 C 0.09213 0.34093 0.22467 0.0
C906 C 0.06804 0.31943 0.23368 0.0
C907 C 0.02441 0.30444 0.26983 0.0
C908 C 1.0036 0.31193 0.29527 0.0
C909 C 0.04631 0.32731 0.25803 0.0
C910 C 1.00394 0.34319 0.30762 0.0
C911 C 0.02565 0.36601 0.29603 0.0
H912 H 0.18272 0.36033 0.02641 0.0
H913 H 0.27964 0.39666 0.02112 0.0
H914 H 0.2726 0.42247 0.07305 0.0
H915 H 0.24103 0.42913 0.12269 0.0
H916 H 0.14547 0.38957 0.12856 0.0
H917 H 0.1498 0.37087 0.07352 0.0
C918 C 0.20227 0.3742 0.03634 0.0
C919 C 0.23184 0.37614 0.01997 0.0
C920 C 0.19832 0.38829 0.06646 0.0
C921 C 0.25667 0.3946 0.03317 0.0
C922 C 0.2527 0.40926 0.06297 0.0
C923 C 0.22088 0.4171 0.11163 0.0
C924 C 0.19296 0.41068 0.1297 0.0
C925 C 0.22393 0.40551 0.08023 0.0
C926 C 0.16723 0.39469 0.11519 0.0
C927 C 0.16974 0.3839 0.08376 0.0
H928 H 0.3297 0.65064 0.53178 0.0
H929 H 0.25241 0.58411 0.51543 0.0
H930 H 0.2611 0.56023 0.56828 0.0
H931 H 0.28671 0.56273 0.62155 0.0
H932 H 0.3637 0.63019 0.63688 0.0
H933 H 0.35917 0.64896 0.58201 0.0
C934 C 0.315 0.63062 0.53959 0.0
C935 C 0.29018 0.61946 0.51988 0.0
C936 C 0.3199 0.61733 0.57 0.0
C937 C 0.27168 0.59318 0.53013 0.0
C938 C 0.27651 0.57967 0.56046 0.0
C939 C 0.30287 0.58114 0.61274 0.0
C940 C 0.32516 0.59535 0.63363 0.0
C941 C 0.29996 0.59219 0.58099 0.0
C942 C 0.34601 0.61907 0.62161 0.0
C943 C 0.34344 0.6299 0.59017 0.0
H944 H 0.6886 0.16725 0.97249 0.0
H945 H 0.77546 0.11276 0.9851 0.0
H946 H 0.76705 0.08725 0.9333 0.0
H947 H 0.73684 0.08277 0.88315 0.0
H948 H 0.65135 0.13914 0.86971 0.0
H949 H 0.65737 0.16133 0.92333 0.0
C950 C 0.70567 0.14962 0.96414 0.0
C951 C 0.73278 0.14212 0.98283 0.0
C952 C 0.70094 0.13539 0.93411 0.0
C953 C 0.75448 0.11916 0.97135 0.0
C954 C 0.74968 0.10455 0.94166 0.0
C955 C 0.71921 0.09959 0.89203 0.0
C956 C 0.6936 0.10923 0.87225 0.0
C957 C 0.72323 0.1128 0.92266 0.0
C958 C 0.67127 0.13128 0.88426 0.0
C959 C 0.67476 0.14405 0.91493 0.0
H960 H 0.77807 0.91118 0.48173 0.0
H961 H 0.84201 0.8303 0.47676 0.0
H962 H 0.85898 0.84601 0.42349 0.0
H963 H 0.85296 0.88004 0.37634 0.0
H964 H 0.79194 0.9628 0.38088 0.0
H965 H 0.77707 0.94944 0.43607 0.0
C966 C 0.79591 0.89726 0.46904 0.0
C967 C 0.80846 0.86949 0.48327 0.0
C968 C 0.80621 0.90673 0.43822 0.0
C969 C 0.83188 0.85185 0.46659 0.0
C970 C 0.84163 0.86071 0.43595 0.0
C971 C 0.83686 0.89544 0.38965 0.0
C972 C 0.82351 0.92223 0.3746 0.0
C973 C 0.8286 0.88775 0.42132 0.0
C974 C 0.80278 0.94213 0.39209 0.0
C975 C 0.79402 0.93434 0.42355 0.0
H976 H 0.12593 0.22155 0.44261 0.0
H977 H 0.13928 0.14236 0.37847 0.0
H978 H 0.0841 0.1475 0.35988 0.0
H979 H 0.0343 0.17797 0.35742 0.0
H980 H 0.02141 0.25983 0.41847 0.0
H981 H 0.07373 0.2501 0.44278 0.0
C982 C 0.11636 0.20498 0.42521 0.0
C983 C 0.13648 0.18142 0.41209 0.0
C984 C 0.08479 0.20886 0.41369 0.0
C985 C 0.12412 0.16054 0.38899 0.0
C986 C 0.09264 0.16358 0.37824 0.0
C987 C 0.04261 0.19348 0.37637 0.0
C988 C 0.02384 0.21976 0.38583 0.0
C989 C 0.07306 0.18821 0.38972 0.0
C990 C 0.03528 0.23951 0.41049 0.0
C991 C 0.06531 0.23399 0.42441 0.0
H992 H 0.38829 0.80015 0.94319 0.0
H993 H 0.35402 0.83929 0.85413 0.0
H994 H 0.40773 0.83639 0.83132 0.0
H995 H 0.46304 0.81815 0.83458 0.0
H996 H 0.4981 0.77724 0.92254 0.0
H997 H 0.44583 0.78577 0.94782 0.0
C998 C 0.39278 0.80855 0.91902 0.0
C999 C 0.36711 0.81961 0.90029 0.0
C1000 C 0.42384 0.80623 0.90567 0.0
C1001 C 0.37327 0.8303 0.86894 0.0
C1002 C 0.404 0.82865 0.85582 0.0
C1003 C 0.45946 0.81136 0.8594 0.0
C1004 C 0.48446 0.7967 0.87641 0.0
C1005 C 0.42926 0.81587 0.87364 0.0
C1006 C 0.4793 0.78841 0.9087 0.0
C1007 C 0.44932 0.7932 0.9232 0.0
H1008 H 0.52871 0.34069 0.64611 0.0
H1009 H 0.51917 0.25548 0.58906 0.0
H1010 H 0.57025 0.26692 0.56287 0.0
H1011 H 0.62072 0.29676 0.56149 0.0
H1012 H 0.63171 0.38063 0.62019 0.0
H1013 H 0.57677 0.37441 0.63975 0.0
C1014 C 0.53748 0.32493 0.62753 0.0
C1015 C 0.52031 0.29696 0.62003 0.0
C1016 C 0.5673 0.33129 0.61292 0.0
C1017 C 0.53205 0.27694 0.59571 0.0
C1018 C 0.56132 0.28344 0.58068 0.0
C1019 C 0.61093 0.31417 0.57799 0.0
C1020 C 0.63057 0.33884 0.58969 0.0
C1021 C 0.57965 0.30992 0.58989 0.0
C1022 C 0.61729 0.36119 0.611 0.0
C1023 C 0.58589 0.35756 0.62235 0.0
H1024 H 0.97512 0.73967 0.10467 0.0
H1025 H 0.97279 0.66434 0.17548 0.0
H1026 H 0.91825 0.65073 0.16042 0.0
H1027 H 0.8693 0.66267 0.13018 0.0
H1028 H 0.87185 0.73548 0.05705 0.0
H1029 H 0.92786 0.74726 0.06969 0.0
C1030 C 0.96281 0.72003 0.1165 0.0
C1031 C 0.97818 0.70335 0.1414 0.0
C1032 C 0.93124 0.71187 0.10742 0.0
C1033 C 0.96182 0.67772 0.15623 0.0
C1034 C 0.93041 0.66992 0.14775 0.0
C1035 C 0.88227 0.68081 0.11673 0.0
C1036 C 0.86631 0.69827 0.09287 0.0
C1037 C 0.91464 0.68721 0.12384 0.0
C1038 C 0.88356 0.72153 0.07545 0.0
C1039 C 0.91559 0.72845 0.08281 0.0
H1040 H 0.40914 0.02124 0.24209 0.0
H1041 H 0.33472 0.02473 0.17063 0.0
H1042 H 0.34986 0.07904 0.1568 0.0
H1043 H 0.38131 0.12735 0.16726 0.0
H1044 H 0.45785 0.12441 0.23599 0.0
H1045 H 0.44507 0.06842 0.24828 0.0
C1046 C 0.39651 0.03374 0.22324 0.0
C1047 C 0.37054 0.01868 0.20777 0.0
C1048 C 0.4056 0.06531 0.21492 0.0
C1049 C 0.35472 0.03539 0.18316 0.0
C1050 C 0.36327 0.06668 0.1752 0.0
C1051 C 0.39544 0.11432 0.18466 0.0
C1052 C 0.42033 0.13008 0.20083 0.0
C1053 C 0.38821 0.0821 0.19129 0.0
C1054 C 0.43865 0.11279 0.22309 0.0
C1055 C 0.4312 0.08081 0.23026 0.0
H1056 H 0.94117 0.39602 0.80239 0.0
H1057 H 0.85628 0.36518 0.85363 0.0
H1058 H 0.83323 0.41837 0.84803 0.0
H1059 H 0.8345 0.47137 0.82285 0.0
H1060 H 0.91913 0.50139 0.77062 0.0
H1061 H 0.94492 0.45073 0.78256 0.0
C1062 C 0.9178 0.401 0.81272 0.0
C1063 C 0.90021 0.37651 0.82775 0.0
C1064 C 0.90443 0.43136 0.80892 0.0
C1065 C 0.87021 0.38352 0.84156 0.0
C1066 C 0.85692 0.41389 0.83826 0.0
C1067 C 0.85869 0.46696 0.81433 0.0
C1068 C 0.87453 0.48984 0.79529 0.0
C1069 C 0.87336 0.43763 0.82101 0.0
C1070 C 0.90613 0.484 0.78494 0.0
C1071 C 0.92097 0.45503 0.79174 0.0
H1072 H 0.66168 0.53781 0.33078 0.0
H1073 H 0.59249 0.51973 0.25661 0.0
H1074 H 0.56705 0.57112 0.26706 0.0
H1075 H 0.56778 0.62355 0.29366 0.0
H1076 H 0.63662 0.64086 0.36849 0.0
H1077 H 0.65832 0.58744 0.36166 0.0
C1078 C 0.64084 0.54497 0.31712 0.0
C1079 C 0.62934 0.52508 0.29268 0.0
C1080 C 0.62621 0.57456 0.32328 0.0
C1081 C 0.60197 0.53455 0.27553 0.0
C1082 C 0.58743 0.56404 0.2814 0.0
C1083 C 0.58711 0.61547 0.3089 0.0
C1084 C 0.60078 0.63657 0.3312 0.0
C1085 C 0.59979 0.58459 0.30474 0.0
C1086 C 0.62576 0.62542 0.35084 0.0
C1087 C 0.63834 0.59482 0.34691 0.0
H1088 H 0.15458 0.97727 0.67818 0.0
H1089 H 0.09724 0.98971 0.76341 0.0
H1090 H 0.07189 0.93771 0.75468 0.0
H1091 H 0.07066 0.88599 0.72613 0.0
H1092 H 0.132 0.87248 0.64416 0.0
H1093 H 0.15078 0.92775 0.64792 0.0
C1094 C 0.13621 0.96893 0.69468 0.0
C1095 C 0.12809 0.98738 0.7216 0.0
C1096 C 0.12243 0.93868 0.69002 0.0
C1097 C 0.10417 0.97599 0.74262 0.0
C1098 C 0.08967 0.9462 0.73765 0.0
C1099 C 0.0874 0.89561 0.70861 0.0
C1100 C 0.09965 0.87559 0.68458 0.0
C1101 C 0.0992 0.92698 0.71188 0.0
C1102 C 0.12205 0.88775 0.66255 0.0
C1103 C 0.13293 0.91921 0.66486 0.0
H1104 H 0.84036 0.64558 0.87659 0.0
H1105 H 0.79675 0.55243 0.88586 0.0
H1106 H 0.77981 0.56494 0.94044 0.0
H1107 H 0.77265 0.6048 0.98379 0.0
H1108 H 0.81729 0.69758 0.97303 0.0
H1109 H 0.83834 0.68264 0.92122 0.0
C1110 C 0.82757 0.62779 0.89068 0.0
C1111 C 0.81961 0.59828 0.87695 0.0
C1112 C 0.8176 0.63523 0.92185 0.0
C1113 C 0.80328 0.5754 0.89576 0.0
C1114 C 0.79333 0.58262 0.92696 0.0
C1115 C 0.78724 0.62158 0.97024 0.0
C1116 C 0.79266 0.65253 0.98224 0.0
C1117 C 0.79957 0.61285 0.94 0.0
C1118 C 0.81204 0.67379 0.96437 0.0
C1119 C 0.82428 0.66529 0.93461 0.0
H1120 H 0.68087 0.35977 0.4765 0.0
H1121 H 0.7713 0.40942 0.48529 0.0
H1122 H 0.76292 0.43471 0.43309 0.0
H1123 H 0.73186 0.43897 0.38268 0.0
H1124 H 0.64393 0.38557 0.37335 0.0
H1125 H 0.64909 0.36585 0.42818 0.0
C1126 C 0.69873 0.37634 0.46728 0.0
C1127 C 0.72683 0.38244 0.48489 0.0
C1128 C 0.69408 0.39023 0.43706 0.0
C1129 C 0.74952 0.4041 0.47231 0.0
C1130 C 0.74474 0.41858 0.44241 0.0
C1131 C 0.7135 0.4237 0.3931 0.0
C1132 C 0.68724 0.41409 0.37438 0.0
C1133 C 0.71737 0.41139 0.42429 0.0
C1134 C 0.66405 0.39353 0.38759 0.0
C1135 C 0.66714 0.38211 0.41881 0.0
H1136 H 0.29008 0.93599 0.11839 0.0
H1137 H 0.36298 0.86542 0.13774 0.0
H1138 H 0.3603 0.84687 0.0829 0.0
H1139 H 0.33248 0.84583 0.03165 0.0
H1140 H 0.25972 0.91613 0.01158 0.0
H1141 H 0.26765 0.9399 0.06413 0.0
C1142 C 0.30574 0.91692 0.11048 0.0
C1143 C 0.32607 0.90166 0.13245 0.0
C1144 C 0.30402 0.9061 0.07877 0.0
C1145 C 0.34659 0.87727 0.12159 0.0
C1146 C 0.34512 0.86657 0.09017 0.0
C1147 C 0.31874 0.86669 0.03857 0.0
C1148 C 0.29519 0.87879 0.018 0.0
C1149 C 0.32314 0.88004 0.0689 0.0
C1150 C 0.27794 0.90618 0.02705 0.0
C1151 C 0.28229 0.9197 0.0572 0.0
H1152 H 0.21587 0.05975 0.61948 0.0
H1153 H 0.14383 0.13159 0.63726 0.0
H1154 H 0.14915 0.15091 0.58261 0.0
H1155 H 0.17866 0.15178 0.53181 0.0
H1156 H 0.25003 0.07979 0.51303 0.0
H1157 H 0.24025 0.05606 0.5657 0.0
C1158 C 0.20089 0.07923 0.61125 0.0
C1159 C 0.17995 0.09452 0.63281 0.0
C1160 C 0.20415 0.09049 0.57962 0.0
C1161 C 0.16051 0.11956 0.62148 0.0
C1162 C 0.16357 0.13076 0.59016 0.0
C1163 C 0.19175 0.13062 0.53907 0.0
C1164 C 0.21533 0.11787 0.51871 0.0
C1165 C 0.18605 0.11712 0.56937 0.0
C1166 C 0.23176 0.09014 0.52826 0.0
C1167 C 0.22631 0.07664 0.55848 0.0
H1168 H 0.98146 0.82806 0.66107 0.0
H1169 H 0.99967 0.75204 0.59406 0.0
H1170 H 0.9477 0.76189 0.56884 0.0
H1171 H 0.89488 0.78806 0.56999 0.0
H1172 H 0.8766 0.86281 0.63857 0.0
H1173 H 0.93106 0.85754 0.65888 0.0
C1174 C 0.97426 0.8138 0.64071 0.0
C1175 C 0.99422 0.789 0.62978 0.0
C1176 C 0.94425 0.81921 0.6268 0.0
C1177 C 0.98475 0.77119 0.60303 0.0
C1178 C 0.95495 0.77671 0.58874 0.0
C1179 C 0.90289 0.80355 0.58908 0.0
C1180 C 0.88141 0.82553 0.60302 0.0
C1181 C 0.93413 0.80004 0.60104 0.0
C1182 C 0.89241 0.84551 0.62757 0.0
C1183 C 0.92357 0.84247 0.63927 0.0
H1184 H 0.5274 0.23158 0.0966 0.0
H1185 H 0.53616 0.17103 0.17982 0.0
H1186 H 0.58899 0.15372 0.162 0.0
H1187 H 0.63522 0.16055 0.12649 0.0
H1188 H 0.62811 0.2228 0.04434 0.0
H1189 H 0.5722 0.23407 0.05769 0.0
C1190 C 0.54063 0.21415 0.11048 0.0
C1191 C 0.52796 0.20297 0.13972 0.0
C1192 C 0.57151 0.20471 0.10042 0.0
C1193 C 0.5455 0.1804 0.15745 0.0
C1194 C 0.57576 0.17044 0.14728 0.0
C1195 C 0.62134 0.1761 0.11108 0.0
C1196 C 0.63614 0.19107 0.08466 0.0
C1197 C 0.58943 0.18317 0.11934 0.0
C1198 C 0.61753 0.21108 0.065 0.0
C1199 C 0.58552 0.21769 0.07269 0.0
H1200 H 0.3871 0.72279 0.44361 0.0
H1201 H 0.37514 0.63779 0.38725 0.0
H1202 H 0.42976 0.64331 0.36635 0.0
H1203 H 0.47811 0.6762 0.35869 0.0
H1204 H 0.4888 0.76323 0.41267 0.0
H1205 H 0.43791 0.75306 0.43979 0.0
C1206 C 0.39699 0.70493 0.42767 0.0
C1207 C 0.37747 0.67965 0.41733 0.0
C1208 C 0.42799 0.70906 0.41467 0.0
C1209 C 0.39004 0.65717 0.39584 0.0
C1210 C 0.42112 0.66052 0.38364 0.0
C1211 C 0.46956 0.69275 0.37668 0.0
C1212 C 0.4872 0.72068 0.38318 0.0
C1213 C 0.43991 0.68701 0.39197 0.0
C1214 C 0.47566 0.74171 0.40677 0.0
C1215 C 0.44649 0.73591 0.42241 0.0
H1216 H 0.13157 0.35314 0.89032 0.0
H1217 H 0.12903 0.27562 0.95871 0.0
H1218 H 0.07338 0.2646 0.94529 0.0
H1219 H 0.02733 0.27279 0.90968 0.0
H1220 H 0.02929 0.3511 0.84222 0.0
H1221 H 0.08279 0.36602 0.86001 0.0
C1222 C 0.11868 0.3342 0.90269 0.0
C1223 C 0.13477 0.31501 0.92513 0.0
C1224 C 0.08651 0.32783 0.89483 0.0
C1225 C 0.11747 0.29078 0.9412 0.0
C1226 C 0.08558 0.28427 0.93342 0.0
C1227 C 0.03925 0.29342 0.89922 0.0
C1228 C 0.02439 0.31041 0.87432 0.0
C1229 C 0.07016 0.30199 0.90957 0.0
C1230 C 0.04009 0.33738 0.86134 0.0
C1231 C 0.07085 0.34592 0.87139 0.0
H1232 H 0.60749 0.98446 0.76305 0.0
H1233 H 0.6757 0.98304 0.84047 0.0
H1234 H 0.65689 0.9305 0.85674 0.0
H1235 H 0.625 0.88255 0.84617 0.0
H1236 H 0.55482 0.88343 0.77102 0.0
H1237 H 0.57003 0.93849 0.75703 0.0
C1238 C 0.61792 0.97282 0.78371 0.0
C1239 C 0.64333 0.98773 0.80015 0.0
C1240 C 0.60669 0.94237 0.79337 0.0
C1241 C 0.65625 0.97233 0.82716 0.0
C1242 C 0.64558 0.9421 0.83653 0.0
C1243 C 0.61259 0.89509 0.82716 0.0
C1244 C 0.58892 0.87904 0.8096 0.0
C1245 C 0.62138 0.9266 0.81941 0.0
C1246 C 0.57292 0.89546 0.78507 0.0
C1247 C 0.58185 0.92682 0.77689 0.0
H1248 H 0.16685 0.53179 0.1773 0.0
H1249 H 0.10319 0.5099 0.25618 0.0
H1250 H 0.07586 0.56072 0.24868 0.0
H1251 H 0.07274 0.61331 0.22285 0.0
H1252 H 0.13725 0.6362 0.14499 0.0
H1253 H 0.16106 0.58311 0.14878 0.0
C1254 C 0.14675 0.53792 0.19261 0.0
C1255 C 0.1374 0.51699 0.21748 0.0
C1256 C 0.13127 0.56755 0.18847 0.0
C1257 C 0.11121 0.52551 0.23702 0.0
C1258 C 0.0955 0.55466 0.23277 0.0
C1259 C 0.09166 0.60659 0.20634 0.0
C1260 C 0.10324 0.62898 0.18381 0.0
C1261 C 0.10572 0.57616 0.20902 0.0
C1262 C 0.12788 0.61965 0.1627 0.0
C1263 C 0.14163 0.58925 0.16491 0.0
H1264 H 0.44031 0.38553 0.71425 0.0
H1265 H 0.36853 0.36725 0.64248 0.0
H1266 H 0.3491 0.42204 0.64758 0.0
H1267 H 0.34911 0.47315 0.6761 0.0
H1268 H 0.41895 0.49012 0.75007 0.0
H1269 H 0.44271 0.43783 0.7401 0.0
C1270 C 0.42068 0.39356 0.69935 0.0
C1271 C 0.40574 0.3721 0.67819 0.0
C1272 C 0.40914 0.42482 0.70295 0.0
C1273 C 0.38036 0.3831 0.65912 0.0
C1274 C 0.36919 0.41444 0.66206 0.0
C1275 C 0.36986 0.4657 0.68974 0.0
C1276 C 0.38207 0.48556 0.71399 0.0
C1277 C 0.38289 0.43524 0.68447 0.0
C1278 C 0.40892 0.47532 0.73142 0.0
C1279 C 0.42248 0.44536 0.72578 0.0
H1280 H 0.94559 0.12509 0.29126 0.0
H1281 H 0.87811 0.13982 0.36847 0.0
H1282 H 0.85686 0.08612 0.36122 0.0
H1283 H 0.85283 0.0378 0.32882 0.0
H1284 H 0.91964 0.02275 0.25127 0.0
H1285 H 0.94592 0.07363 0.26303 0.0
C1286 C 0.92672 0.11633 0.30697 0.0
C1287 C 0.91311 0.13671 0.33 0.0
C1288 C 0.91415 0.08553 0.30234 0.0
C1289 C 0.88876 0.12484 0.35025 0.0
C1290 C 0.87648 0.09414 0.34607 0.0
C1291 C 0.87334 0.04551 0.31468 0.0
C1292 C 0.88389 0.02685 0.28887 0.0
C1293 C 0.88819 0.07477 0.32145 0.0
C1294 C 0.91091 0.0368 0.27116 0.0
C1295 C 0.92589 0.06594 0.27781 0.0
H1296 H 0.2448 0.343 0.30003 0.0
H1297 H 0.1483 0.35995 0.33354 0.0
H1298 H 0.15546 0.32083 0.37631 0.0
H1299 H 0.18705 0.2773 0.40025 0.0
H1300 H 0.28348 0.26069 0.36686 0.0
H1301 H 0.27875 0.30449 0.32849 0.0
C1302 C 0.22545 0.33826 0.31685 0.0
C1303 C 0.19594 0.35391 0.3133 0.0
C1304 C 0.22975 0.31585 0.3415 0.0
C1305 C 0.17124 0.34804 0.33563 0.0
C1306 C 0.17528 0.32567 0.36012 0.0
C1307 C 0.20733 0.28403 0.3853 0.0
C1308 C 0.2354 0.26564 0.38595 0.0
C1309 C 0.20419 0.3089 0.36287 0.0
C1310 C 0.26145 0.27428 0.36627 0.0
C1311 C 0.25872 0.29923 0.34429 0.0
H1312 H 0.32254 0.71801 0.90611 0.0
H1313 H 0.22667 0.73076 0.86989 0.0
H1314 H 0.2341 0.68619 0.83336 0.0
H1315 H 0.27024 0.64898 0.80659 0.0
H1316 H 0.36676 0.63672 0.84112 0.0
H1317 H 0.35662 0.67543 0.88365 0.0
C1318 C 0.30298 0.71036 0.89092 0.0
C1319 C 0.27423 0.72782 0.89043 0.0
C1320 C 0.30775 0.68521 0.86926 0.0
C1321 C 0.24913 0.71783 0.87047 0.0
C1322 C 0.25341 0.69247 0.84945 0.0
C1323 C 0.28895 0.65455 0.82363 0.0
C1324 C 0.31935 0.64055 0.82038 0.0
C1325 C 0.28305 0.67691 0.84773 0.0
C1326 C 0.34319 0.64739 0.84301 0.0
C1327 C 0.33744 0.66958 0.86727 0.0
H1328 H 0.75033 0.22129 0.61623 0.0
H1329 H 0.65127 0.24999 0.61351 0.0
H1330 H 0.63555 0.20214 0.6436 0.0
H1331 H 0.65106 0.1564 0.67738 0.0
H1332 H 0.75068 0.13078 0.68463 0.0
H1333 H 0.76525 0.17252 0.646 0.0
C1334 C 0.72527 0.2164 0.62147 0.0
C1335 C 0.7019 0.23872 0.61253 0.0
C1336 C 0.71661 0.18951 0.63996 0.0
C1337 C 0.66954 0.23282 0.62006 0.0
C1338 C 0.6606 0.2056 0.63738 0.0
C1339 C 0.67576 0.15939 0.6696 0.0
C1340 C 0.69981 0.14059 0.68349 0.0
C1341 C 0.68403 0.18431 0.64839 0.0
C1342 C 0.73187 0.14508 0.67406 0.0
C1343 C 0.74019 0.169 0.6521 0.0
H1344 H 0.79863 0.80279 0.09907 0.0
H1345 H 0.75101 0.75322 0.1769 0.0
H1346 H 0.76336 0.79701 0.21267 0.0
H1347 H 0.79324 0.84552 0.22359 0.0
H1348 H 0.84027 0.89697 0.14717 0.0
H1349 H 0.82265 0.85608 0.10889 0.0
C1350 C 0.79052 0.80179 0.12372 0.0
C1351 C 0.77444 0.77439 0.13536 0.0
C1352 C 0.79801 0.82705 0.14445 0.0
C1353 C 0.76376 0.77372 0.1673 0.0
C1354 C 0.7709 0.79872 0.18788 0.0
C1355 C 0.79923 0.84806 0.19844 0.0
C1356 C 0.81834 0.87377 0.18812 0.0
C1357 C 0.78892 0.82486 0.17696 0.0
C1358 C 0.82565 0.87717 0.15553 0.0
C1359 C 0.81569 0.85378 0.13378 0.0
H1360 H 0.41618 0.19266 0.29772 0.0
H1361 H 0.34719 0.25925 0.25923 0.0
H1362 H 0.30981 0.24601 0.30204 0.0
H1363 H 0.29364 0.20985 0.34456 0.0
H1364 H 0.36167 0.14503 0.38644 0.0
H1365 H 0.40271 0.16287 0.34763 0.0
C1366 C 0.39331 0.20487 0.2992 0.0
C1367 C 0.38418 0.22635 0.27484 0.0
C1368 C 0.37162 0.19691 0.32388 0.0
C1369 C 0.35457 0.24217 0.27727 0.0
C1370 C 0.3331 0.23454 0.30166 0.0
C1371 C 0.31769 0.20021 0.34579 0.0
C1372 C 0.32469 0.17605 0.36794 0.0
C1373 C 0.34087 0.21101 0.32414 0.0
C1374 C 0.35586 0.16361 0.36936 0.0
C1375 C 0.37918 0.17379 0.34719 0.0
H1376 H 0.18548 0.77334 0.87363 0.0
H1377 H 0.15577 0.87119 0.88278 0.0
H1378 H 0.11765 0.86436 0.8388 0.0
H1379 H 0.10199 0.83355 0.79114 0.0
H1380 H 0.13573 0.73693 0.78027 0.0
H1381 H 0.1631 0.7399 0.83157 0.0
C1382 C 0.1696 0.79264 0.86672 0.0
C1383 C 0.1729 0.82252 0.88112 0.0
C1384 C 0.14925 0.78891 0.8406 0.0
C1385 C 0.15293 0.84783 0.87207 0.0
C1386 C 0.1316 0.84402 0.84669 0.0
C1387 C 0.11467 0.81297 0.80051 0.0
C1388 C 0.11791 0.78542 0.78176 0.0
C1389 C 0.13089 0.81516 0.82971 0.0
C1390 C 0.1341 0.75874 0.79396 0.0
C1391 C 0.14947 0.76034 0.82334 0.0
H1392 H 0.84518 0.34889 0.64104 0.0
H1393 H 0.7796 0.27225 0.66527 0.0
H1394 H 0.81781 0.25075 0.70308 0.0
H1395 H 0.86598 0.25771 0.73476 0.0
H1396 H 0.93141 0.33476 0.71386 0.0
H1397 H 0.89788 0.35149 0.66863 0.0
C1398 C 0.83947 0.32733 0.65437 0.0
C1399 C 0.80915 0.31281 0.65094 0.0
C1400 C 0.86164 0.315 0.67654 0.0
C1401 C 0.80233 0.28452 0.66802 0.0
C1402 C 0.82427 0.27198 0.68955 0.0
C1403 C 0.87343 0.27746 0.7195 0.0
C1404 C 0.90098 0.29493 0.72727 0.0
C1405 C 0.85347 0.28756 0.69472 0.0
C1406 C 0.91047 0.32069 0.70781 0.0
C1407 C 0.891 0.33054 0.68236 0.0
H1408 H 0.58953 0.68626 0.21613 0.0
H1409 H 0.65072 0.76231 0.24894 0.0
H1410 H 0.68516 0.75643 0.20217 0.0
H1411 H 0.70211 0.72489 0.15641 0.0
H1412 H 0.64367 0.64709 0.12315 0.0
H1413 H 0.60367 0.6583 0.16519 0.0
C1414 C 0.60978 0.70215 0.21229 0.0
C1415 C 0.61745 0.72508 0.23562 0.0
C1416 C 0.63023 0.69784 0.1856 0.0
C1417 C 0.64419 0.74498 0.23099 0.0
C1418 C 0.66405 0.74138 0.20442 0.0
C1419 C 0.68031 0.71077 0.15806 0.0
C1420 C 0.6758 0.68513 0.1371 0.0
C1421 C 0.65796 0.71717 0.18227 0.0
C1422 C 0.64747 0.66704 0.13911 0.0
C1423 C 0.62477 0.67336 0.16324 0.0
H1424 H 0.38857 0.3354 0.21513 0.0
H1425 H 0.35237 0.3074 0.12306 0.0
H1426 H 0.30845 0.34557 0.128 0.0
H1427 H 0.27589 0.38001 0.16188 0.0
H1428 H 0.30893 0.40647 0.25548 0.0
H1429 H 0.35881 0.37638 0.24663 0.0
C1430 C 0.37159 0.33858 0.19582 0.0
C1431 C 0.37363 0.31893 0.16865 0.0
C1432 C 0.34565 0.35989 0.19939 0.0
C1433 C 0.35124 0.32253 0.144 0.0
C1434 C 0.32605 0.34416 0.14693 0.0
C1435 C 0.2944 0.37979 0.18005 0.0
C1436 C 0.28883 0.39513 0.20935 0.0
C1437 C 0.32233 0.36194 0.17502 0.0
C1438 C 0.31289 0.39494 0.23268 0.0
C1439 C 0.34121 0.37748 0.22769 0.0
H1440 H 0.86728 0.19876 0.76888 0.0
H1441 H 0.88478 0.16794 0.86573 0.0
H1442 H 0.84525 0.12505 0.85987 0.0
H1443 H 0.79948 0.10231 0.82994 0.0
H1444 H 0.78101 0.13526 0.73422 0.0
H1445 H 0.82738 0.17102 0.73654 0.0
C1446 C 0.86287 0.18226 0.7885 0.0
C1447 C 0.87845 0.1868 0.81784 0.0
C1448 C 0.83984 0.1581 0.78512 0.0
C1449 C 0.87295 0.165 0.84293 0.0
C1450 C 0.85021 0.14059 0.83965 0.0
C1451 C 0.80654 0.11647 0.80928 0.0
C1452 C 0.78745 0.11606 0.78175 0.0
C1453 C 0.83266 0.13768 0.81126 0.0
C1454 C 0.79591 0.135 0.75533 0.0
C1455 C 0.82217 0.15562 0.75681 0.0
H1456 H 0.72785 0.9066 0.33339 0.0
H1457 H 0.74174 0.8726 0.23716 0.0
H1458 H 0.69641 0.83612 0.24322 0.0
H1459 H 0.65751 0.8094 0.27792 0.0
H1460 H 0.64382 0.84152 0.37474 0.0
H1461 H 0.68398 0.88361 0.36641 0.0
C1462 C 0.72023 0.89186 0.31353 0.0
C1463 C 0.73811 0.8919 0.285 0.0
C1464 C 0.69457 0.87032 0.31748 0.0
C1465 C 0.72841 0.87255 0.25945 0.0
C1466 C 0.7026 0.85167 0.26292 0.0
C1467 C 0.66322 0.82571 0.29712 0.0
C1468 C 0.64834 0.822 0.32702 0.0
C1469 C 0.68635 0.8495 0.29221 0.0
C1470 C 0.65521 0.84382 0.35151 0.0
C1471 C 0.6782 0.86781 0.34679 0.0
H1472 H 0.24016 0.64428 0.75302 0.0
H1473 H 0.20986 0.5671 0.69262 0.0
H1474 H 0.16059 0.59646 0.67918 0.0
H1475 H 0.1313 0.64875 0.67772 0.0
H1476 H 0.16765 0.72656 0.73447 0.0
H1477 H 0.20859 0.6924 0.75683 0.0
C1478 C 0.22218 0.63347 0.73775 0.0
C1479 C 0.22837 0.60376 0.72386 0.0
C1480 C 0.19503 0.65096 0.72922 0.0
C1481 C 0.20525 0.58989 0.70389 0.0
C1482 C 0.17735 0.6069 0.69589 0.0
C1483 C 0.14772 0.65776 0.69558 0.0
C1484 C 0.14627 0.6901 0.70465 0.0
C1485 C 0.17267 0.63815 0.70731 0.0
C1486 C 0.16799 0.70173 0.72741 0.0
C1487 C 0.19165 0.68226 0.74007 0.0
H1488 H 0.79065 0.62999 0.67013 0.0
H1489 H 0.88485 0.66345 0.69611 0.0
H1490 H 0.88057 0.70771 0.65829 0.0
H1491 H 0.8467 0.74148 0.62527 0.0
H1492 H 0.75129 0.711 0.60066 0.0
H1493 H 0.75917 0.66068 0.63017 0.0
C1494 C 0.81048 0.64648 0.66658 0.0
C1495 C 0.83793 0.64388 0.68567 0.0
C1496 C 0.80734 0.67256 0.64557 0.0
C1497 C 0.86351 0.66536 0.68152 0.0
C1498 C 0.86101 0.69066 0.6601 0.0
C1499 C 0.82794 0.72342 0.62589 0.0
C1500 C 0.79841 0.72965 0.61144 0.0
C1501 C 0.83252 0.69525 0.64317 0.0
C1502 C 0.77421 0.70635 0.61183 0.0
C1503 C 0.77868 0.67781 0.6288 0.0
H1504 H 0.66658 0.27394 0.12403 0.0
H1505 H 0.76159 0.30599 0.09849 0.0
H1506 H 0.75295 0.35586 0.12814 0.0
H1507 H 0.72077 0.3862 0.16806 0.0
H1508 H 0.6266 0.35181 0.19407 0.0
H1509 H 0.63203 0.30732 0.15697 0.0
C1510 C 0.68516 0.29216 0.1245 0.0
C1511 C 0.71477 0.28637 0.10962 0.0
C1512 C 0.68007 0.32029 0.1417 0.0
C1513 C 0.73859 0.31012 0.10988 0.0
C1514 C 0.73369 0.33847 0.12697 0.0
C1515 C 0.70115 0.36951 0.16462 0.0
C1516 C 0.6733 0.37209 0.18349 0.0
C1517 C 0.70488 0.34334 0.14388 0.0
C1518 C 0.64814 0.35015 0.17954 0.0
C1519 C 0.65134 0.32464 0.15857 0.0
H1520 H 0.33462 0.77873 0.40263 0.0
H1521 H 0.23564 0.76881 0.37497 0.0
H1522 H 0.24058 0.81501 0.3395 0.0
H1523 H 0.27498 0.8526 0.31072 0.0
H1524 H 0.37457 0.86219 0.33613 0.0
H1525 H 0.36753 0.82214 0.37855 0.0
C1526 C 0.31396 0.78747 0.3896 0.0
C1527 C 0.28488 0.77045 0.39102 0.0
C1528 C 0.31728 0.81357 0.36854 0.0
C1529 C 0.25829 0.78151 0.37384 0.0
C1530 C 0.26114 0.8078 0.35353 0.0
C1531 C 0.29502 0.84624 0.32584 0.0
C1532 C 0.32531 0.85979 0.31999 0.0
C1533 C 0.29085 0.82308 0.3497 0.0
C1534 C 0.35101 0.85189 0.34012 0.0
C1535 C 0.34702 0.82891 0.36425 0.0
H1536 H 0.25916 0.22142 0.8801 0.0
H1537 H 0.17154 0.21009 0.93355 0.0
H1538 H 0.15524 0.16588 0.89877 0.0
H1539 H 0.16187 0.13773 0.84713 0.0
H1540 H 0.2474 0.15524 0.79099 0.0
H1541 H 0.2685 0.18967 0.83237 0.0
C1542 C 0.23717 0.20827 0.88481 0.0
C1543 C 0.21681 0.21832 0.90942 0.0
C1544 C 0.22713 0.18465 0.86347 0.0
C1545 C 0.18791 0.20195 0.91513 0.0
C1546 C 0.17835 0.17718 0.89484 0.0
C1547 C 0.18529 0.14872 0.84425 0.0
C1548 C 0.20279 0.1442 0.81577 0.0
C1549 C 0.19705 0.16945 0.86794 0.0
C1550 C 0.2332 0.15855 0.81244 0.0
C1551 C 0.24542 0.17823 0.83617 0.0
H1552 H 0.70733 0.77275 0.65319 0.0
H1553 H 0.66985 0.86612 0.63111 0.0
H1554 H 0.62735 0.85866 0.67122 0.0
H1555 H 0.60539 0.82812 0.71752 0.0
H1556 H 0.64468 0.73549 0.73951 0.0
H1557 H 0.68163 0.73991 0.69435 0.0
C1558 C 0.68962 0.79134 0.65685 0.0
C1559 C 0.69203 0.82013 0.63955 0.0
C1560 C 0.66562 0.78702 0.6801 0.0
C1561 C 0.66858 0.84376 0.64418 0.0
C1562 C 0.64437 0.83955 0.66723 0.0
C1563 C 0.62141 0.80858 0.71176 0.0
C1564 C 0.62257 0.78161 0.73195 0.0
C1565 C 0.64321 0.81163 0.68601 0.0
C1566 C 0.64368 0.7566 0.72452 0.0
C1567 C 0.66485 0.75915 0.69874 0.0
H1568 H 0.87016 0.25895 0.23856 0.0
H1569 H 0.9334 0.18015 0.22002 0.0
H1570 H 0.90074 0.16455 0.1738 0.0
H1571 H 0.84939 0.16932 0.14369 0.0
H1572 H 0.78611 0.24799 0.1655 0.0
H1573 H 0.82338 0.26755 0.20514 0.0
C1574 C 0.87744 0.23912 0.22357 0.0
C1575 C 0.90432 0.22107 0.23214 0.0
C1576 C 0.85793 0.22972 0.19809 0.0
C1577 C 0.91321 0.19489 0.21322 0.0
C1578 C 0.89419 0.18567 0.18719 0.0
C1579 C 0.844 0.1909 0.15689 0.0
C1580 C 0.8145 0.2066 0.15203 0.0
C1581 C 0.8657 0.2022 0.18016 0.0
C1582 C 0.80814 0.23482 0.16915 0.0
C1583 C 0.82957 0.24627 0.19179 0.0
H1584 H 0.15152 0.66429 0.37968 0.0
H1585 H 0.23206 0.71834 0.34287 0.0
H1586 H 0.19924 0.74077 0.30116 0.0
H1587 H 0.15088 0.73875 0.26978 0.0
H1588 H 0.07012 0.68252 0.3015 0.0
H1589 H 0.09924 0.6675 0.35035 0.0
C1590 C 0.16147 0.6815 0.3629 0.0
C1591 C 0.19423 0.6896 0.36443 0.0
C1592 C 0.14252 0.69356 0.33765 0.0
C1593 C 0.20698 0.71172 0.34237 0.0
C1594 C 0.18826 0.72452 0.31827 0.0
C1595 C 0.13941 0.72375 0.28777 0.0
C1596 C 0.10874 0.71147 0.28212 0.0
C1597 C 0.15648 0.71465 0.31493 0.0
C1598 C 0.09383 0.69232 0.30555 0.0
C1599 C 0.1106 0.6835 0.33327 0.0
H1600 H 0.3497 0.33004 0.86845 0.0
H1601 H 0.28273 0.25667 0.83961 0.0
H1602 H 0.31982 0.23873 0.7988 0.0
H1603 H 0.36737 0.2484 0.76625 0.0
H1604 H 0.43382 0.32288 0.79149 0.0
H1605 H 0.40148 0.33533 0.83915 0.0
C1606 C 0.34342 0.30991 0.85348 0.0
C1607 C 0.31313 0.29514 0.85691 0.0
C1608 C 0.36486 0.29982 0.82941 0.0
C1609 C 0.30559 0.26883 0.83745 0.0
C1610 C 0.32685 0.25843 0.81401 0.0
C1611 C 0.37529 0.26662 0.78288 0.0
C1612 C 0.40283 0.2846 0.77574 0.0
C1613 C 0.35602 0.27433 0.80917 0.0
C1614 C 0.41291 0.3084 0.79699 0.0
C1615 C 0.39412 0.31582 0.82387 0.0
H1616 H 0.71711 0.60518 0.82162 0.0
H1617 H 0.75543 0.67036 0.75055 0.0
H1618 H 0.71091 0.7065 0.75938 0.0
H1619 H 0.66541 0.72282 0.79156 0.0
H1620 H 0.6241 0.65863 0.86117 0.0
H1621 H 0.66563 0.61869 0.84878 0.0
C1622 C 0.71536 0.627 0.80769 0.0
C1623 C 0.74001 0.63538 0.78601 0.0
C1624 C 0.68954 0.64799 0.81295 0.0
C1625 C 0.73721 0.6636 0.76788 0.0
C1626 C 0.71176 0.68435 0.77288 0.0
C1627 C 0.66512 0.69982 0.80357 0.0
C1628 C 0.64219 0.69361 0.82737 0.0
C1629 C 0.68852 0.67729 0.79607 0.0
C1630 C 0.64175 0.66378 0.84276 0.0
C1631 C 0.66551 0.64112 0.83575 0.0
H1632 H 0.217 0.8995 0.17703 0.0
H1633 H 0.23524 0.86815 0.2733 0.0
H1634 H 0.18868 0.83249 0.2715 0.0
H1635 H 0.14751 0.80515 0.23985 0.0
H1636 H 0.12876 0.83633 0.14338 0.0
H1637 H 0.17028 0.8775 0.14794 0.0
C1638 C 0.20994 0.88568 0.19791 0.0
C1639 C 0.2291 0.8865 0.22541 0.0
C1640 C 0.18337 0.86489 0.19642 0.0
C1641 C 0.22045 0.86802 0.25212 0.0
C1642 C 0.19403 0.84748 0.25095 0.0
C1643 C 0.15214 0.82136 0.22004 0.0
C1644 C 0.13539 0.81747 0.19121 0.0
C1645 C 0.17604 0.84489 0.22283 0.0
C1646 C 0.14133 0.83884 0.16584 0.0
C1647 C 0.1652 0.86228 0.16837 0.0
H1648 H 0.28352 0.10726 0.66668 0.0
H1649 H 0.28297 0.11487 0.76921 0.0
H1650 H 0.32928 0.15114 0.76691 0.0
H1651 H 0.36518 0.18604 0.73465 0.0
H1652 H 0.36747 0.17522 0.63218 0.0
H1653 H 0.32557 0.13449 0.63536 0.0
C1654 C 0.29441 0.11599 0.6885 0.0
C1655 C 0.2802 0.10869 0.71804 0.0
C1656 C 0.32098 0.13655 0.68689 0.0
C1657 C 0.29391 0.12024 0.74627 0.0
C1658 C 0.32013 0.14114 0.7449 0.0
C1659 C 0.35682 0.17426 0.71318 0.0
C1660 C 0.36901 0.18372 0.68323 0.0
C1661 C 0.3331 0.15038 0.71523 0.0
C1662 C 0.35839 0.1682 0.6555 0.0
C1663 C 0.33437 0.14502 0.65727 0.0
H1664 H 0.78754 0.40719 0.32555 0.0
H1665 H 0.76644 0.36432 0.23439 0.0
H1666 H 0.81211 0.32852 0.24008 0.0
H1667 H 0.85314 0.30479 0.27392 0.0
H1668 H 0.8735 0.34565 0.36617 0.0
H1669 H 0.8333 0.38707 0.35697 0.0
C1670 C 0.79355 0.39061 0.30659 0.0
C1671 C 0.77359 0.38814 0.27974 0.0
C1672 C 0.81934 0.3694 0.31045 0.0
C1673 C 0.78138 0.3664 0.25541 0.0
C1674 C 0.80738 0.34585 0.2587 0.0
C1675 C 0.84905 0.32294 0.2919 0.0
C1676 C 0.86583 0.32178 0.3209 0.0
C1677 C 0.82571 0.34633 0.28664 0.0
C1678 C 0.8607 0.34585 0.3437 0.0
C1679 C 0.83765 0.3695 0.3385 0.0
loop_
_geom_bond_atom_site_label_1
_geom_bond_atom_site_label_2
_geom_bond_distance
_geom_bond_site_symmetry_2
_ccdc_geom_bond_type
Fe0 O2 1.918 . S
Fe0 O5 1.997 . S
Fe0 O6 2.002 . S
Fe0 O11 1.976 . S
Fe0 O14 1.996 . S
Fe1 O2 1.918 . S
Fe1 O9 1.997 . S
Fe1 O12 1.996 . S
Fe1 O16 1.976 . S
Fe1 O19 2.002 . S
O2 Fe0 1.918 . S
O2 Fe1 1.918 . S
O2 Fe3 1.918 . S
Fe3 O2 1.918 . S
Fe3 O4 2.002 . S
Fe3 O13 1.976 . S
Fe3 O17 1.996 . S
Fe3 O20 1.997 . S
O4 Fe3 2.002 . S
O4 C21 1.295 . S
O5 Fe0 1.997 . S
O5 C21 1.235 . S
O6 Fe0 2.002 . S
O6 C7 1.295 . S
C7 O6 1.295 . S
C7 O9 1.235 . S
C8 O13 1.287 . S
C8 O14 1.255 . S
O9 Fe1 1.997 . S
O9 C7 1.235 . S
C10 O16 1.287 . S
C10 O17 1.255 . S
O11 Fe0 1.976 . S
O11 C18 1.287 . S
O12 Fe1 1.996 . S
O12 C18 1.255 . S
O13 Fe3 1.976 . S
O13 C8 1.287 . S
O14 Fe0 1.996 . S
O14 C8 1.255 . S
C15 O19 1.295 . S
C15 O20 1.235 . S
O16 Fe1 1.976 . S
O16 C10 1.287 . S
O17 Fe3 1.996 . S
O17 C10 1.255 . S
C18 O11 1.287 . S
C18 O12 1.255 . S
O19 Fe1 2.002 . S
O19 C15 1.295 . S
O20 Fe3 1.997 . S
O20 C15 1.235 . S
C21 O4 1.295 . S
C21 O5 1.235 . S
Fe22 O24 1.918 . S
Fe22 O27 1.997 . S
Fe22 O28 2.002 . S
Fe22 O33 1.976 . S
Fe22 O36 1.996 . S
Fe23 O24 1.918 . S
Fe23 O31 1.997 . S
Fe23 O34 1.996 . S
Fe23 O38 1.976 . S
Fe23 O41 2.002 . S
O24 Fe22 1.918 . S
O24 Fe23 1.918 . S
O24 Fe25 1.918 . S
Fe25 O24 1.918 . S
Fe25 O26 2.002 . S
Fe25 O35 1.976 . S
Fe25 O39 1.996 . S
Fe25 O42 1.997 . S
O26 Fe25 2.002 . S
O26 C43 1.295 . S
O27 Fe22 1.997 . S
O27 C43 1.235 . S
O28 Fe22 2.002 . S
O28 C29 1.295 . S
C29 O28 1.295 . S
C29 O31 1.235 . S
C30 O35 1.287 . S
C30 O36 1.255 . S
O31 Fe23 1.997 . S
O31 C29 1.235 . S
C32 O38 1.287 . S
C32 O39 1.255 . S
O33 Fe22 1.976 . S
O33 C40 1.287 . S
O34 Fe23 1.996 . S
O34 C40 1.255 . S
O35 Fe25 1.976 . S
O35 C30 1.287 . S
O36 Fe22 1.996 . S
O36 C30 1.255 . S
C37 O41 1.295 . S
C37 O42 1.235 . S
O38 Fe23 1.976 . S
O38 C32 1.287 . S
O39 Fe25 1.996 . S
O39 C32 1.255 . S
C40 O33 1.287 . S
C40 O34 1.255 . S
O41 Fe23 2.002 . S
O41 C37 1.295 . S
O42 Fe25 1.997 . S
O42 C37 1.235 . S
C43 O26 1.295 . S
C43 O27 1.235 . S
Fe44 O46 1.918 . S
Fe44 O49 1.997 . S
Fe44 O50 2.002 . S
Fe44 O55 1.976 . S
Fe44 O58 1.996 . S
Fe45 O46 1.918 . S
Fe45 O53 1.997 . S
Fe45 O56 1.996 . S
Fe45 O60 1.976 . S
Fe45 O63 2.002 . S
O46 Fe44 1.918 . S
O46 Fe45 1.918 . S
O46 Fe47 1.918 . S
Fe47 O46 1.918 . S
Fe47 O48 2.002 . S
Fe47 O57 1.976 . S
Fe47 O61 1.996 . S
Fe47 O64 1.997 . S
O48 Fe47 2.002 . S
O48 C65 1.295 . S
O49 Fe44 1.997 . S
O49 C65 1.235 . S
O50 Fe44 2.002 . S
O50 C51 1.295 . S
C51 O50 1.295 . S
C51 O53 1.235 . S
C52 O57 1.287 . S
C52 O58 1.255 . S
O53 Fe45 1.997 . S
O53 C51 1.235 . S
C54 O60 1.287 . S
C54 O61 1.255 . S
O55 Fe44 1.976 . S
O55 C62 1.287 . S
O56 Fe45 1.996 . S
O56 C62 1.255 . S
O57 Fe47 1.976 . S
O57 C52 1.287 . S
O58 Fe44 1.996 . S
O58 C52 1.255 . S
C59 O63 1.295 . S
C59 O64 1.235 . S
O60 Fe45 1.976 . S
O60 C54 1.287 . S
O61 Fe47 1.996 . S
O61 C54 1.255 . S
C62 O55 1.287 . S
C62 O56 1.255 . S
O63 Fe45 2.002 . S
O63 C59 1.295 . S
O64 Fe47 1.997 . S
O64 C59 1.235 . S
C65 O48 1.295 . S
C65 O49 1.235 . S
Fe66 O68 1.918 . S
Fe66 O71 1.997 . S
Fe66 O72 2.002 . S
Fe66 O77 1.976 . S
Fe66 O80 1.996 . S
Fe67 O68 1.918 . S
Fe67 O75 1.997 . S
Fe67 O78 1.996 . S
Fe67 O82 1.976 . S
Fe67 O85 2.002 . S
O68 Fe66 1.918 . S
O68 Fe67 1.918 . S
O68 Fe69 1.918 . S
Fe69 O68 1.918 . S
Fe69 O70 2.002 . S
Fe69 O79 1.976 . S
Fe69 O83 1.996 . S
Fe69 O86 1.997 . S
O70 Fe69 2.002 . S
O70 C87 1.295 . S
O71 Fe66 1.997 . S
O71 C87 1.235 . S
O72 Fe66 2.002 . S
O72 C73 1.295 . S
C73 O72 1.295 . S
C73 O75 1.235 . S
C74 O79 1.287 . S
C74 O80 1.255 . S
O75 Fe67 1.997 . S
O75 C73 1.235 . S
C76 O82 1.287 . S
C76 O83 1.255 . S
O77 Fe66 1.976 . S
O77 C84 1.287 . S
O78 Fe67 1.996 . S
O78 C84 1.255 . S
O79 Fe69 1.976 . S
O79 C74 1.287 . S
O80 Fe66 1.996 . S
O80 C74 1.255 . S
C81 O85 1.295 . S
C81 O86 1.235 . S
O82 Fe67 1.976 . S
O82 C76 1.287 . S
O83 Fe69 1.996 . S
O83 C76 1.255 . S
C84 O77 1.287 . S
C84 O78 1.255 . S
O85 Fe67 2.002 . S
O85 C81 1.295 . S
O86 Fe69 1.997 . S
O86 C81 1.235 . S
C87 O70 1.295 . S
C87 O71 1.235 . S
Fe88 O90 1.918 . S
Fe88 O93 1.997 . S
Fe88 O94 2.002 . S
Fe88 O99 1.976 . S
Fe88 O102 1.996 . S
Fe89 O90 1.918 . S
Fe89 O97 1.997 . S
Fe89 O100 1.996 . S
Fe89 O104 1.976 . S
Fe89 O107 2.002 . S
O90 Fe88 1.918 . S
O90 Fe89 1.918 . S
O90 Fe91 1.918 . S
Fe91 O90 1.918 . S
Fe91 O92 2.002 . S
Fe91 O101 1.976 . S
Fe91 O105 1.996 . S
Fe91 O108 1.997 . S
O92 Fe91 2.002 . S
O92 C109 1.295 . S
O93 Fe88 1.997 . S
O93 C109 1.235 . S
O94 Fe88 2.002 . S
O94 C95 1.295 . S
C95 O94 1.295 . S
C95 O97 1.235 . S
C96 O101 1.287 . S
C96 O102 1.255 . S
O97 Fe89 1.997 . S
O97 C95 1.235 . S
C98 O104 1.287 . S
C98 O105 1.255 . S
O99 Fe88 1.976 . S
O99 C106 1.287 . S
O100 Fe89 1.996 . S
O100 C106 1.255 . S
O101 Fe91 1.976 . S
O101 C96 1.287 . S
O102 Fe88 1.996 . S
O102 C96 1.255 . S
C103 O107 1.295 . S
C103 O108 1.235 . S
O104 Fe89 1.976 . S
O104 C98 1.287 . S
O105 Fe91 1.996 . S
O105 C98 1.255 . S
C106 O99 1.287 . S
C106 O100 1.255 . S
O107 Fe89 2.002 . S
O107 C103 1.295 . S
O108 Fe91 1.997 . S
O108 C103 1.235 . S
C109 O92 1.295 . S
C109 O93 1.235 . S
Fe110 O112 1.918 . S
Fe110 O115 1.997 . S
Fe110 O116 2.002 . S
Fe110 O121 1.976 . S
Fe110 O124 1.996 . S
Fe111 O112 1.918 . S
Fe111 O119 1.997 . S
Fe111 O122 1.996 . S
Fe111 O126 1.976 . S
Fe111 O129 2.002 . S
O112 Fe110 1.918 . S
O112 Fe111 1.918 . S
O112 Fe113 1.918 . S
Fe113 O112 1.918 . S
Fe113 O114 2.002 . S
Fe113 O123 1.976 . S
Fe113 O127 1.996 . S
Fe113 O130 1.997 . S
O114 Fe113 2.002 . S
O114 C131 1.295 . S
O115 Fe110 1.997 . S
O115 C131 1.235 . S
O116 Fe110 2.002 . S
O116 C117 1.295 . S
C117 O116 1.295 . S
C117 O119 1.235 . S
C118 O123 1.287 . S
C118 O124 1.255 . S
O119 Fe111 1.997 . S
O119 C117 1.235 . S
C120 O126 1.287 . S
C120 O127 1.255 . S
O121 Fe110 1.976 . S
O121 C128 1.287 . S
O122 Fe111 1.996 . S
O122 C128 1.255 . S
O123 Fe113 1.976 . S
O123 C118 1.287 . S
O124 Fe110 1.996 . S
O124 C118 1.255 . S
C125 O129 1.295 . S
C125 O130 1.235 . S
O126 Fe111 1.976 . S
O126 C120 1.287 . S
O127 Fe113 1.996 . S
O127 C120 1.255 . S
C128 O121 1.287 . S
C128 O122 1.255 . S
O129 Fe111 2.002 . S
O129 C125 1.295 . S
O130 Fe113 1.997 . S
O130 C125 1.235 . S
C131 O114 1.295 . S
C131 O115 1.235 . S
Fe132 O134 1.918 . S
Fe132 O137 1.997 . S
Fe132 O138 2.002 . S
Fe132 O143 1.976 . S
Fe132 O146 1.996 . S
Fe133 O134 1.918 . S
Fe133 O141 1.997 . S
Fe133 O144 1.996 . S
Fe133 O148 1.976 . S
Fe133 O151 2.002 . S
O134 Fe132 1.918 . S
O134 Fe133 1.918 . S
O134 Fe135 1.918 . S
Fe135 O134 1.918 . S
Fe135 O136 2.002 . S
Fe135 O145 1.976 . S
Fe135 O149 1.996 . S
Fe135 O152 1.997 . S
O136 Fe135 2.002 . S
O136 C153 1.295 . S
O137 Fe132 1.997 . S
O137 C153 1.235 . S
O138 Fe132 2.002 . S
O138 C139 1.295 . S
C139 O138 1.295 . S
C139 O141 1.235 . S
C140 O145 1.287 . S
C140 O146 1.255 . S
O141 Fe133 1.997 . S
O141 C139 1.235 . S
C142 O148 1.287 . S
C142 O149 1.255 . S
O143 Fe132 1.976 . S
O143 C150 1.287 . S
O144 Fe133 1.996 . S
O144 C150 1.255 . S
O145 Fe135 1.976 . S
O145 C140 1.287 . S
O146 Fe132 1.996 . S
O146 C140 1.255 . S
C147 O151 1.295 . S
C147 O152 1.235 . S
O148 Fe133 1.976 . S
O148 C142 1.287 . S
O149 Fe135 1.996 . S
O149 C142 1.255 . S
C150 O143 1.287 . S
C150 O144 1.255 . S
O151 Fe133 2.002 . S
O151 C147 1.295 . S
O152 Fe135 1.997 . S
O152 C147 1.235 . S
C153 O136 1.295 . S
C153 O137 1.235 . S
Fe154 O156 1.918 . S
Fe154 O159 1.997 . S
Fe154 O160 2.002 . S
Fe154 O165 1.976 . S
Fe154 O168 1.996 . S
Fe155 O156 1.918 . S
Fe155 O163 1.997 . S
Fe155 O166 1.996 . S
Fe155 O170 1.976 . S
Fe155 O173 2.002 . S
O156 Fe154 1.918 . S
O156 Fe155 1.918 . S
O156 Fe157 1.918 . S
Fe157 O156 1.918 . S
Fe157 O158 2.002 . S
Fe157 O167 1.976 . S
Fe157 O171 1.996 . S
Fe157 O174 1.997 . S
O158 Fe157 2.002 . S
O158 C175 1.295 . S
O159 Fe154 1.997 . S
O159 C175 1.235 . S
O160 Fe154 2.002 . S
O160 C161 1.295 . S
C161 O160 1.295 . S
C161 O163 1.235 . S
C162 O167 1.287 . S
C162 O168 1.255 . S
O163 Fe155 1.997 . S
O163 C161 1.235 . S
C164 O170 1.287 . S
C164 O171 1.255 . S
O165 Fe154 1.976 . S
O165 C172 1.287 . S
O166 Fe155 1.996 . S
O166 C172 1.255 . S
O167 Fe157 1.976 . S
O167 C162 1.287 . S
O168 Fe154 1.996 . S
O168 C162 1.255 . S
C169 O173 1.295 . S
C169 O174 1.235 . S
O170 Fe155 1.976 . S
O170 C164 1.287 . S
O171 Fe157 1.996 . S
O171 C164 1.255 . S
C172 O165 1.287 . S
C172 O166 1.255 . S
O173 Fe155 2.002 . S
O173 C169 1.295 . S
O174 Fe157 1.997 . S
O174 C169 1.235 . S
C175 O158 1.295 . S
C175 O159 1.235 . S
Fe176 O178 1.918 . S
Fe176 O181 1.997 . S
Fe176 O182 2.002 . S
Fe176 O187 1.976 . S
Fe176 O190 1.996 . S
Fe177 O178 1.918 . S
Fe177 O185 1.997 . S
Fe177 O188 1.996 . S
Fe177 O192 1.976 . S
Fe177 O195 2.002 . S
O178 Fe176 1.918 . S
O178 Fe177 1.918 . S
O178 Fe179 1.918 . S
Fe179 O178 1.918 . S
Fe179 O180 2.002 . S
Fe179 O189 1.976 . S
Fe179 O193 1.996 . S
Fe179 O196 1.997 . S
O180 Fe179 2.002 . S
O180 C197 1.295 . S
O181 Fe176 1.997 . S
O181 C197 1.235 . S
O182 Fe176 2.002 . S
O182 C183 1.295 . S
C183 O182 1.295 . S
C183 O185 1.235 . S
C184 O189 1.287 . S
C184 O190 1.255 . S
O185 Fe177 1.997 . S
O185 C183 1.235 . S
C186 O192 1.287 . S
C186 O193 1.255 . S
O187 Fe176 1.976 . S
O187 C194 1.287 . S
O188 Fe177 1.996 . S
O188 C194 1.255 . S
O189 Fe179 1.976 . S
O189 C184 1.287 . S
O190 Fe176 1.996 . S
O190 C184 1.255 . S
C191 O195 1.295 . S
C191 O196 1.235 . S
O192 Fe177 1.976 . S
O192 C186 1.287 . S
O193 Fe179 1.996 . S
O193 C186 1.255 . S
C194 O187 1.287 . S
C194 O188 1.255 . S
O195 Fe177 2.002 . S
O195 C191 1.295 . S
O196 Fe179 1.997 . S
O196 C191 1.235 . S
C197 O180 1.295 . S
C197 O181 1.235 . S
Fe198 O200 1.918 . S
Fe198 O203 1.997 . S
Fe198 O204 2.002 . S
Fe198 O209 1.976 . S
Fe198 O212 1.996 . S
Fe199 O200 1.918 . S
Fe199 O207 1.997 . S
Fe199 O210 1.996 . S
Fe199 O214 1.976 . S
Fe199 O217 2.002 . S
O200 Fe198 1.918 . S
O200 Fe199 1.918 . S
O200 Fe201 1.918 . S
Fe201 O200 1.918 . S
Fe201 O202 2.002 . S
Fe201 O211 1.976 . S
Fe201 O215 1.996 . S
Fe201 O218 1.997 . S
O202 Fe201 2.002 . S
O202 C219 1.295 . S
O203 Fe198 1.997 . S
O203 C219 1.235 . S
O204 Fe198 2.002 . S
O204 C205 1.295 . S
C205 O204 1.295 . S
C205 O207 1.235 . S
C206 O211 1.287 . S
C206 O212 1.255 . S
O207 Fe199 1.997 . S
O207 C205 1.235 . S
C208 O214 1.287 . S
C208 O215 1.255 . S
O209 Fe198 1.976 . S
O209 C216 1.287 . S
O210 Fe199 1.996 . S
O210 C216 1.255 . S
O211 Fe201 1.976 . S
O211 C206 1.287 . S
O212 Fe198 1.996 . S
O212 C206 1.255 . S
C213 O217 1.295 . S
C213 O218 1.235 . S
O214 Fe199 1.976 . S
O214 C208 1.287 . S
O215 Fe201 1.996 . S
O215 C208 1.255 . S
C216 O209 1.287 . S
C216 O210 1.255 . S
O217 Fe199 2.002 . S
O217 C213 1.295 . S
O218 Fe201 1.997 . S
O218 C213 1.235 . S
C219 O202 1.295 . S
C219 O203 1.235 . S
Fe220 O222 1.918 . S
Fe220 O225 1.997 . S
Fe220 O226 2.002 . S
Fe220 O231 1.976 . S
Fe220 O234 1.996 . S
Fe221 O222 1.918 . S
Fe221 O229 1.997 . S
Fe221 O232 1.996 . S
Fe221 O236 1.976 . S
Fe221 O239 2.002 . S
O222 Fe220 1.918 . S
O222 Fe221 1.918 . S
O222 Fe223 1.918 . S
Fe223 O222 1.918 . S
Fe223 O224 2.002 . S
Fe223 O233 1.976 . S
Fe223 O237 1.996 . S
Fe223 O240 1.997 . S
O224 Fe223 2.002 . S
O224 C241 1.295 . S
O225 Fe220 1.997 . S
O225 C241 1.235 . S
O226 Fe220 2.002 . S
O226 C227 1.295 . S
C227 O226 1.295 . S
C227 O229 1.235 . S
C228 O233 1.287 . S
C228 O234 1.255 . S
O229 Fe221 1.997 . S
O229 C227 1.235 . S
C230 O236 1.287 . S
C230 O237 1.255 . S
O231 Fe220 1.976 . S
O231 C238 1.287 . S
O232 Fe221 1.996 . S
O232 C238 1.255 . S
O233 Fe223 1.976 . S
O233 C228 1.287 . S
O234 Fe220 1.996 . S
O234 C228 1.255 . S
C235 O239 1.295 . S
C235 O240 1.235 . S
O236 Fe221 1.976 . S
O236 C230 1.287 . S
O237 Fe223 1.996 . S
O237 C230 1.255 . S
C238 O231 1.287 . S
C238 O232 1.255 . S
O239 Fe221 2.002 . S
O239 C235 1.295 . S
O240 Fe223 1.997 . S
O240 C235 1.235 . S
C241 O224 1.295 . S
C241 O225 1.235 . S
Fe242 O244 1.918 . S
Fe242 O247 1.997 . S
Fe242 O248 2.002 . S
Fe242 O253 1.976 . S
Fe242 O256 1.996 . S
Fe243 O244 1.918 . S
Fe243 O251 1.997 . S
Fe243 O254 1.996 . S
Fe243 O258 1.976 . S
Fe243 O261 2.002 . S
O244 Fe242 1.918 . S
O244 Fe243 1.918 . S
O244 Fe245 1.918 . S
Fe245 O244 1.918 . S
Fe245 O246 2.002 . S
Fe245 O255 1.976 . S
Fe245 O259 1.996 . S
Fe245 O262 1.997 . S
O246 Fe245 2.002 . S
O246 C263 1.295 . S
O247 Fe242 1.997 . S
O247 C263 1.235 . S
O248 Fe242 2.002 . S
O248 C249 1.295 . S
C249 O248 1.295 . S
C249 O251 1.235 . S
C250 O255 1.287 . S
C250 O256 1.255 . S
O251 Fe243 1.997 . S
O251 C249 1.235 . S
C252 O258 1.287 . S
C252 O259 1.255 . S
O253 Fe242 1.976 . S
O253 C260 1.287 . S
O254 Fe243 1.996 . S
O254 C260 1.255 . S
O255 Fe245 1.976 . S
O255 C250 1.287 . S
O256 Fe242 1.996 . S
O256 C250 1.255 . S
C257 O261 1.295 . S
C257 O262 1.235 . S
O258 Fe243 1.976 . S
O258 C252 1.287 . S
O259 Fe245 1.996 . S
O259 C252 1.255 . S
C260 O253 1.287 . S
C260 O254 1.255 . S
O261 Fe243 2.002 . S
O261 C257 1.295 . S
O262 Fe245 1.997 . S
O262 C257 1.235 . S
C263 O246 1.295 . S
C263 O247 1.235 . S
Fe264 O266 1.918 . S
Fe264 O269 1.997 . S
Fe264 O270 2.002 . S
Fe264 O275 1.976 . S
Fe264 O278 1.996 . S
Fe265 O266 1.918 . S
Fe265 O273 1.997 . S
Fe265 O276 1.996 . S
Fe265 O280 1.976 . S
Fe265 O283 2.002 . S
O266 Fe264 1.918 . S
O266 Fe265 1.918 . S
O266 Fe267 1.918 . S
Fe267 O266 1.918 . S
Fe267 O268 2.002 . S
Fe267 O277 1.976 . S
Fe267 O281 1.996 . S
Fe267 O284 1.997 . S
O268 Fe267 2.002 . S
O268 C285 1.295 . S
O269 Fe264 1.997 . S
O269 C285 1.235 . S
O270 Fe264 2.002 . S
O270 C271 1.295 . S
C271 O270 1.295 . S
C271 O273 1.235 . S
C272 O277 1.287 . S
C272 O278 1.255 . S
O273 Fe265 1.997 . S
O273 C271 1.235 . S
C274 O280 1.287 . S
C274 O281 1.255 . S
O275 Fe264 1.976 . S
O275 C282 1.287 . S
O276 Fe265 1.996 . S
O276 C282 1.255 . S
O277 Fe267 1.976 . S
O277 C272 1.287 . S
O278 Fe264 1.996 . S
O278 C272 1.255 . S
C279 O283 1.295 . S
C279 O284 1.235 . S
O280 Fe265 1.976 . S
O280 C274 1.287 . S
O281 Fe267 1.996 . S
O281 C274 1.255 . S
C282 O275 1.287 . S
C282 O276 1.255 . S
O283 Fe265 2.002 . S
O283 C279 1.295 . S
O284 Fe267 1.997 . S
O284 C279 1.235 . S
C285 O268 1.295 . S
C285 O269 1.235 . S
Fe286 O288 1.918 . S
Fe286 O291 1.997 . S
Fe286 O292 2.002 . S
Fe286 O297 1.976 . S
Fe286 O300 1.996 . S
Fe287 O288 1.918 . S
Fe287 O295 1.997 . S
Fe287 O298 1.996 . S
Fe287 O302 1.976 . S
Fe287 O305 2.002 . S
O288 Fe286 1.918 . S
O288 Fe287 1.918 . S
O288 Fe289 1.918 . S
Fe289 O288 1.918 . S
Fe289 O290 2.002 . S
Fe289 O299 1.976 . S
Fe289 O303 1.996 . S
Fe289 O306 1.997 . S
O290 Fe289 2.002 . S
O290 C307 1.295 . S
O291 Fe286 1.997 . S
O291 C307 1.235 . S
O292 Fe286 2.002 . S
O292 C293 1.295 . S
C293 O292 1.295 . S
C293 O295 1.235 . S
C294 O299 1.287 . S
C294 O300 1.255 . S
O295 Fe287 1.997 . S
O295 C293 1.235 . S
C296 O302 1.287 . S
C296 O303 1.255 . S
O297 Fe286 1.976 . S
O297 C304 1.287 . S
O298 Fe287 1.996 . S
O298 C304 1.255 . S
O299 Fe289 1.976 . S
O299 C294 1.287 . S
O300 Fe286 1.996 . S
O300 C294 1.255 . S
C301 O305 1.295 . S
C301 O306 1.235 . S
O302 Fe287 1.976 . S
O302 C296 1.287 . S
O303 Fe289 1.996 . S
O303 C296 1.255 . S
C304 O297 1.287 . S
C304 O298 1.255 . S
O305 Fe287 2.002 . S
O305 C301 1.295 . S
O306 Fe289 1.997 . S
O306 C301 1.235 . S
C307 O290 1.295 . S
C307 O291 1.235 . S
Fe308 O310 1.918 . S
Fe308 O313 1.997 . S
Fe308 O314 2.002 . S
Fe308 O319 1.976 . S
Fe308 O322 1.996 . S
Fe309 O310 1.918 . S
Fe309 O317 1.997 . S
Fe309 O320 1.996 . S
Fe309 O324 1.976 . S
Fe309 O327 2.002 . S
O310 Fe308 1.918 . S
O310 Fe309 1.918 . S
O310 Fe311 1.918 . S
Fe311 O310 1.918 . S
Fe311 O312 2.002 . S
Fe311 O321 1.976 . S
Fe311 O325 1.996 . S
Fe311 O328 1.997 . S
O312 Fe311 2.002 . S
O312 C329 1.295 . S
O313 Fe308 1.997 . S
O313 C329 1.235 . S
O314 Fe308 2.002 . S
O314 C315 1.295 . S
C315 O314 1.295 . S
C315 O317 1.235 . S
C316 O321 1.287 . S
C316 O322 1.255 . S
O317 Fe309 1.997 . S
O317 C315 1.235 . S
C318 O324 1.287 . S
C318 O325 1.255 . S
O319 Fe308 1.976 . S
O319 C326 1.287 . S
O320 Fe309 1.996 . S
O320 C326 1.255 . S
O321 Fe311 1.976 . S
O321 C316 1.287 . S
O322 Fe308 1.996 . S
O322 C316 1.255 . S
C323 O327 1.295 . S
C323 O328 1.235 . S
O324 Fe309 1.976 . S
O324 C318 1.287 . S
O325 Fe311 1.996 . S
O325 C318 1.255 . S
C326 O319 1.287 . S
C326 O320 1.255 . S
O327 Fe309 2.002 . S
O327 C323 1.295 . S
O328 Fe311 1.997 . S
O328 C323 1.235 . S
C329 O312 1.295 . S
C329 O313 1.235 . S
Fe330 O332 1.918 . S
Fe330 O335 1.997 . S
Fe330 O336 2.002 . S
Fe330 O341 1.976 . S
Fe330 O344 1.996 . S
Fe331 O332 1.918 . S
Fe331 O339 1.997 . S
Fe331 O342 1.996 . S
Fe331 O346 1.976 . S
Fe331 O349 2.002 . S
O332 Fe330 1.918 . S
O332 Fe331 1.918 . S
O332 Fe333 1.918 . S
Fe333 O332 1.918 . S
Fe333 O334 2.002 . S
Fe333 O343 1.976 . S
Fe333 O347 1.996 . S
Fe333 O350 1.997 . S
O334 Fe333 2.002 . S
O334 C351 1.295 . S
O335 Fe330 1.997 . S
O335 C351 1.235 . S
O336 Fe330 2.002 . S
O336 C337 1.295 . S
C337 O336 1.295 . S
C337 O339 1.235 . S
C338 O343 1.287 . S
C338 O344 1.255 . S
O339 Fe331 1.997 . S
O339 C337 1.235 . S
C340 O346 1.287 . S
C340 O347 1.255 . S
O341 Fe330 1.976 . S
O341 C348 1.287 . S
O342 Fe331 1.996 . S
O342 C348 1.255 . S
O343 Fe333 1.976 . S
O343 C338 1.287 . S
O344 Fe330 1.996 . S
O344 C338 1.255 . S
C345 O349 1.295 . S
C345 O350 1.235 . S
O346 Fe331 1.976 . S
O346 C340 1.287 . S
O347 Fe333 1.996 . S
O347 C340 1.255 . S
C348 O341 1.287 . S
C348 O342 1.255 . S
O349 Fe331 2.002 . S
O349 C345 1.295 . S
O350 Fe333 1.997 . S
O350 C345 1.235 . S
C351 O334 1.295 . S
C351 O335 1.235 . S
Fe352 O354 1.918 . S
Fe352 O357 1.997 . S
Fe352 O358 2.002 . S
Fe352 O363 1.976 . S
Fe352 O366 1.996 . S
Fe353 O354 1.918 . S
Fe353 O361 1.997 . S
Fe353 O364 1.996 . S
Fe353 O368 1.976 . S
Fe353 O371 2.002 . S
O354 Fe352 1.918 . S
O354 Fe353 1.918 . S
O354 Fe355 1.918 . S
Fe355 O354 1.918 . S
Fe355 O356 2.002 . S
Fe355 O365 1.976 . S
Fe355 O369 1.996 . S
Fe355 O372 1.997 . S
O356 Fe355 2.002 . S
O356 C373 1.295 . S
O357 Fe352 1.997 . S
O357 C373 1.235 . S
O358 Fe352 2.002 . S
O358 C359 1.295 . S
C359 O358 1.295 . S
C359 O361 1.235 . S
C360 O365 1.287 . S
C360 O366 1.255 . S
O361 Fe353 1.997 . S
O361 C359 1.235 . S
C362 O368 1.287 . S
C362 O369 1.255 . S
O363 Fe352 1.976 . S
O363 C370 1.287 . S
O364 Fe353 1.996 . S
O364 C370 1.255 . S
O365 Fe355 1.976 . S
O365 C360 1.287 . S
O366 Fe352 1.996 . S
O366 C360 1.255 . S
C367 O371 1.295 . S
C367 O372 1.235 . S
O368 Fe353 1.976 . S
O368 C362 1.287 . S
O369 Fe355 1.996 . S
O369 C362 1.255 . S
C370 O363 1.287 . S
C370 O364 1.255 . S
O371 Fe353 2.002 . S
O371 C367 1.295 . S
O372 Fe355 1.997 . S
O372 C367 1.235 . S
C373 O356 1.295 . S
C373 O357 1.235 . S
Fe374 O376 1.918 . S
Fe374 O379 1.997 . S
Fe374 O380 2.002 . S
Fe374 O385 1.976 . S
Fe374 O388 1.996 . S
Fe375 O376 1.918 . S
Fe375 O383 1.997 . S
Fe375 O386 1.996 . S
Fe375 O390 1.976 . S
Fe375 O393 2.002 . S
O376 Fe374 1.918 . S
O376 Fe375 1.918 . S
O376 Fe377 1.918 . S
Fe377 O376 1.918 . S
Fe377 O378 2.002 . S
Fe377 O387 1.976 . S
Fe377 O391 1.996 . S
Fe377 O394 1.997 . S
O378 Fe377 2.002 . S
O378 C395 1.295 . S
O379 Fe374 1.997 . S
O379 C395 1.235 . S
O380 Fe374 2.002 . S
O380 C381 1.295 . S
C381 O380 1.295 . S
C381 O383 1.235 . S
C382 O387 1.287 . S
C382 O388 1.255 . S
O383 Fe375 1.997 . S
O383 C381 1.235 . S
C384 O390 1.287 . S
C384 O391 1.255 . S
O385 Fe374 1.976 . S
O385 C392 1.287 . S
O386 Fe375 1.996 . S
O386 C392 1.255 . S
O387 Fe377 1.976 . S
O387 C382 1.287 . S
O388 Fe374 1.996 . S
O388 C382 1.255 . S
C389 O393 1.295 . S
C389 O394 1.235 . S
O390 Fe375 1.976 . S
O390 C384 1.287 . S
O391 Fe377 1.996 . S
O391 C384 1.255 . S
C392 O385 1.287 . S
C392 O386 1.255 . S
O393 Fe375 2.002 . S
O393 C389 1.295 . S
O394 Fe377 1.997 . S
O394 C389 1.235 . S
C395 O378 1.295 . S
C395 O379 1.235 . S
Fe396 O398 1.918 . S
Fe396 O401 1.997 . S
Fe396 O402 2.002 . S
Fe396 O407 1.976 . S
Fe396 O410 1.996 . S
Fe397 O398 1.918 . S
Fe397 O405 1.997 . S
Fe397 O408 1.996 . S
Fe397 O412 1.976 . S
Fe397 O415 2.002 . S
O398 Fe396 1.918 . S
O398 Fe397 1.918 . S
O398 Fe399 1.918 . S
Fe399 O398 1.918 . S
Fe399 O400 2.002 . S
Fe399 O409 1.976 . S
Fe399 O413 1.996 . S
Fe399 O416 1.997 . S
O400 Fe399 2.002 . S
O400 C417 1.295 . S
O401 Fe396 1.997 . S
O401 C417 1.235 . S
O402 Fe396 2.002 . S
O402 C403 1.295 . S
C403 O402 1.295 . S
C403 O405 1.235 . S
C404 O409 1.287 . S
C404 O410 1.255 . S
O405 Fe397 1.997 . S
O405 C403 1.235 . S
C406 O412 1.287 . S
C406 O413 1.255 . S
O407 Fe396 1.976 . S
O407 C414 1.287 . S
O408 Fe397 1.996 . S
O408 C414 1.255 . S
O409 Fe399 1.976 . S
O409 C404 1.287 . S
O410 Fe396 1.996 . S
O410 C404 1.255 . S
C411 O415 1.295 . S
C411 O416 1.235 . S
O412 Fe397 1.976 . S
O412 C406 1.287 . S
O413 Fe399 1.996 . S
O413 C406 1.255 . S
C414 O407 1.287 . S
C414 O408 1.255 . S
O415 Fe397 2.002 . S
O415 C411 1.295 . S
O416 Fe399 1.997 . S
O416 C411 1.235 . S
C417 O400 1.295 . S
C417 O401 1.235 . S
Fe418 O420 1.918 . S
Fe418 O423 1.997 . S
Fe418 O424 2.002 . S
Fe418 O429 1.976 . S
Fe418 O432 1.996 . S
Fe419 O420 1.918 . S
Fe419 O427 1.997 . S
Fe419 O430 1.996 . S
Fe419 O434 1.976 . S
Fe419 O437 2.002 . S
O420 Fe418 1.918 . S
O420 Fe419 1.918 . S
O420 Fe421 1.918 . S
Fe421 O420 1.918 . S
Fe421 O422 2.002 . S
Fe421 O431 1.976 . S
Fe421 O435 1.996 . S
Fe421 O438 1.997 . S
O422 Fe421 2.002 . S
O422 C439 1.295 . S
O423 Fe418 1.997 . S
O423 C439 1.235 . S
O424 Fe418 2.002 . S
O424 C425 1.295 . S
C425 O424 1.295 . S
C425 O427 1.235 . S
C426 O431 1.287 . S
C426 O432 1.255 . S
O427 Fe419 1.997 . S
O427 C425 1.235 . S
C428 O434 1.287 . S
C428 O435 1.255 . S
O429 Fe418 1.976 . S
O429 C436 1.287 . S
O430 Fe419 1.996 . S
O430 C436 1.255 . S
O431 Fe421 1.976 . S
O431 C426 1.287 . S
O432 Fe418 1.996 . S
O432 C426 1.255 . S
C433 O437 1.295 . S
C433 O438 1.235 . S
O434 Fe419 1.976 . S
O434 C428 1.287 . S
O435 Fe421 1.996 . S
O435 C428 1.255 . S
C436 O429 1.287 . S
C436 O430 1.255 . S
O437 Fe419 2.002 . S
O437 C433 1.295 . S
O438 Fe421 1.997 . S
O438 C433 1.235 . S
C439 O422 1.295 . S
C439 O423 1.235 . S
Fe440 O442 1.918 . S
Fe440 O445 1.997 . S
Fe440 O446 2.002 . S
Fe440 O451 1.976 . S
Fe440 O454 1.996 . S
Fe441 O442 1.918 . S
Fe441 O449 1.997 . S
Fe441 O452 1.996 . S
Fe441 O456 1.976 . S
Fe441 O459 2.002 . S
O442 Fe440 1.918 . S
O442 Fe441 1.918 . S
O442 Fe443 1.918 . S
Fe443 O442 1.918 . S
Fe443 O444 2.002 . S
Fe443 O453 1.976 . S
Fe443 O457 1.996 . S
Fe443 O460 1.997 . S
O444 Fe443 2.002 . S
O444 C461 1.295 . S
O445 Fe440 1.997 . S
O445 C461 1.235 . S
O446 Fe440 2.002 . S
O446 C447 1.295 . S
C447 O446 1.295 . S
C447 O449 1.235 . S
C448 O453 1.287 . S
C448 O454 1.255 . S
O449 Fe441 1.997 . S
O449 C447 1.235 . S
C450 O456 1.287 . S
C450 O457 1.255 . S
O451 Fe440 1.976 . S
O451 C458 1.287 . S
O452 Fe441 1.996 . S
O452 C458 1.255 . S
O453 Fe443 1.976 . S
O453 C448 1.287 . S
O454 Fe440 1.996 . S
O454 C448 1.255 . S
C455 O459 1.295 . S
C455 O460 1.235 . S
O456 Fe441 1.976 . S
O456 C450 1.287 . S
O457 Fe443 1.996 . S
O457 C450 1.255 . S
C458 O451 1.287 . S
C458 O452 1.255 . S
O459 Fe441 2.002 . S
O459 C455 1.295 . S
O460 Fe443 1.997 . S
O460 C455 1.235 . S
C461 O444 1.295 . S
C461 O445 1.235 . S
Fe462 O464 1.918 . S
Fe462 O467 1.997 . S
Fe462 O468 2.002 . S
Fe462 O473 1.976 . S
Fe462 O476 1.996 . S
Fe463 O464 1.918 . S
Fe463 O471 1.997 . S
Fe463 O474 1.996 . S
Fe463 O478 1.976 . S
Fe463 O481 2.002 . S
O464 Fe462 1.918 . S
O464 Fe463 1.918 . S
O464 Fe465 1.918 . S
Fe465 O464 1.918 . S
Fe465 O466 2.002 . S
Fe465 O475 1.976 . S
Fe465 O479 1.996 . S
Fe465 O482 1.997 . S
O466 Fe465 2.002 . S
O466 C483 1.295 . S
O467 Fe462 1.997 . S
O467 C483 1.235 . S
O468 Fe462 2.002 . S
O468 C469 1.295 . S
C469 O468 1.295 . S
C469 O471 1.235 . S
C470 O475 1.287 . S
C470 O476 1.255 . S
O471 Fe463 1.997 . S
O471 C469 1.235 . S
C472 O478 1.287 . S
C472 O479 1.255 . S
O473 Fe462 1.976 . S
O473 C480 1.287 . S
O474 Fe463 1.996 . S
O474 C480 1.255 . S
O475 Fe465 1.976 . S
O475 C470 1.287 . S
O476 Fe462 1.996 . S
O476 C470 1.255 . S
C477 O481 1.295 . S
C477 O482 1.235 . S
O478 Fe463 1.976 . S
O478 C472 1.287 . S
O479 Fe465 1.996 . S
O479 C472 1.255 . S
C480 O473 1.287 . S
C480 O474 1.255 . S
O481 Fe463 2.002 . S
O481 C477 1.295 . S
O482 Fe465 1.997 . S
O482 C477 1.235 . S
C483 O466 1.295 . S
C483 O467 1.235 . S
Fe484 O486 1.918 . S
Fe484 O489 1.997 . S
Fe484 O490 2.002 . S
Fe484 O495 1.976 . S
Fe484 O498 1.996 . S
Fe485 O486 1.918 . S
Fe485 O493 1.997 . S
Fe485 O496 1.996 . S
Fe485 O500 1.976 . S
Fe485 O503 2.002 . S
O486 Fe484 1.918 . S
O486 Fe485 1.918 . S
O486 Fe487 1.918 . S
Fe487 O486 1.918 . S
Fe487 O488 2.002 . S
Fe487 O497 1.976 . S
Fe487 O501 1.996 . S
Fe487 O504 1.997 . S
O488 Fe487 2.002 . S
O488 C505 1.295 . S
O489 Fe484 1.997 . S
O489 C505 1.235 . S
O490 Fe484 2.002 . S
O490 C491 1.295 . S
C491 O490 1.295 . S
C491 O493 1.235 . S
C492 O497 1.287 . S
C492 O498 1.255 . S
O493 Fe485 1.997 . S
O493 C491 1.235 . S
C494 O500 1.287 . S
C494 O501 1.255 . S
O495 Fe484 1.976 . S
O495 C502 1.287 . S
O496 Fe485 1.996 . S
O496 C502 1.255 . S
O497 Fe487 1.976 . S
O497 C492 1.287 . S
O498 Fe484 1.996 . S
O498 C492 1.255 . S
C499 O503 1.295 . S
C499 O504 1.235 . S
O500 Fe485 1.976 . S
O500 C494 1.287 . S
O501 Fe487 1.996 . S
O501 C494 1.255 . S
C502 O495 1.287 . S
C502 O496 1.255 . S
O503 Fe485 2.002 . S
O503 C499 1.295 . S
O504 Fe487 1.997 . S
O504 C499 1.235 . S
C505 O488 1.295 . S
C505 O489 1.235 . S
Fe506 O508 1.918 . S
Fe506 O511 1.997 . S
Fe506 O512 2.002 . S
Fe506 O517 1.976 . S
Fe506 O520 1.996 . S
Fe507 O508 1.918 . S
Fe507 O515 1.997 . S
Fe507 O518 1.996 . S
Fe507 O522 1.976 . S
Fe507 O525 2.002 . S
O508 Fe506 1.918 . S
O508 Fe507 1.918 . S
O508 Fe509 1.918 . S
Fe509 O508 1.918 . S
Fe509 O510 2.002 . S
Fe509 O519 1.976 . S
Fe509 O523 1.996 . S
Fe509 O526 1.997 . S
O510 Fe509 2.002 . S
O510 C527 1.295 . S
O511 Fe506 1.997 . S
O511 C527 1.235 . S
O512 Fe506 2.002 . S
O512 C513 1.295 . S
C513 O512 1.295 . S
C513 O515 1.235 . S
C514 O519 1.287 . S
C514 O520 1.255 . S
O515 Fe507 1.997 . S
O515 C513 1.235 . S
C516 O522 1.287 . S
C516 O523 1.255 . S
O517 Fe506 1.976 . S
O517 C524 1.287 . S
O518 Fe507 1.996 . S
O518 C524 1.255 . S
O519 Fe509 1.976 . S
O519 C514 1.287 . S
O520 Fe506 1.996 . S
O520 C514 1.255 . S
C521 O525 1.295 . S
C521 O526 1.235 . S
O522 Fe507 1.976 . S
O522 C516 1.287 . S
O523 Fe509 1.996 . S
O523 C516 1.255 . S
C524 O517 1.287 . S
C524 O518 1.255 . S
O525 Fe507 2.002 . S
O525 C521 1.295 . S
O526 Fe509 1.997 . S
O526 C521 1.235 . S
C527 O510 1.295 . S
C527 O511 1.235 . S
H528 C534 0.930 . S
H529 C537 0.930 . S
H530 C538 0.930 . S
H531 C539 0.930 . S
H532 C542 0.930 . S
H533 C543 0.930 . S
C534 H528 0.930 . S
C534 C535 1.355 . S
C534 C536 1.415 . S
C535 C534 1.355 . S
C535 C537 1.419 . S
C536 C534 1.415 . S
C536 C541 1.425 . S
C536 C543 1.409 . S
C537 H529 0.930 . S
C537 C535 1.419 . S
C537 C538 1.362 . S
C538 H530 0.930 . S
C538 C537 1.362 . S
C538 C541 1.409 . S
C539 H531 0.930 . S
C539 C540 1.355 . S
C539 C541 1.415 . S
C540 C539 1.355 . S
C540 C542 1.419 . S
C541 C536 1.425 . S
C541 C538 1.409 . S
C541 C539 1.415 . S
C542 H532 0.930 . S
C542 C540 1.419 . S
C542 C543 1.362 . S
C543 H533 0.930 . S
C543 C536 1.409 . S
C543 C542 1.362 . S
H544 C550 0.930 . S
H545 C553 0.930 . S
H546 C554 0.930 . S
H547 C555 0.930 . S
H548 C558 0.930 . S
H549 C559 0.930 . S
C550 H544 0.930 . S
C550 C551 1.355 . S
C550 C552 1.415 . S
C551 C550 1.355 . S
C551 C553 1.419 . S
C552 C550 1.415 . S
C552 C557 1.425 . S
C552 C559 1.409 . S
C553 H545 0.930 . S
C553 C551 1.419 . S
C553 C554 1.362 . S
C554 H546 0.930 . S
C554 C553 1.362 . S
C554 C557 1.409 . S
C555 H547 0.930 . S
C555 C556 1.355 . S
C555 C557 1.415 . S
C556 C555 1.355 . S
C556 C558 1.419 . S
C557 C552 1.425 . S
C557 C554 1.409 . S
C557 C555 1.415 . S
C558 H548 0.930 . S
C558 C556 1.419 . S
C558 C559 1.362 . S
C559 H549 0.930 . S
C559 C552 1.409 . S
C559 C558 1.362 . S
H560 C566 0.930 . S
H561 C569 0.930 . S
H562 C570 0.930 . S
H563 C571 0.930 . S
H564 C574 0.930 . S
H565 C575 0.930 . S
C566 H560 0.930 . S
C566 C567 1.355 . S
C566 C568 1.415 . S
C567 C566 1.355 . S
C567 C569 1.419 . S
C568 C566 1.415 . S
C568 C573 1.425 . S
C568 C575 1.409 . S
C569 H561 0.930 . S
C569 C567 1.419 . S
C569 C570 1.362 . S
C570 H562 0.930 . S
C570 C569 1.362 . S
C570 C573 1.409 . S
C571 H563 0.930 . S
C571 C572 1.355 . S
C571 C573 1.415 1_545 S
C572 C571 1.355 . S
C572 C574 1.419 1_545 S
C573 C568 1.425 . S
C573 C570 1.409 . S
C573 C571 1.415 1_565 S
C574 H564 0.930 . S
C574 C572 1.419 1_565 S
C574 C575 1.362 . S
C575 H565 0.930 . S
C575 C568 1.409 . S
C575 C574 1.362 . S
H576 C582 0.930 . S
H577 C585 0.930 . S
H578 C586 0.930 . S
H579 C587 0.930 . S
H580 C590 0.930 . S
H581 C591 0.930 . S
C582 H576 0.930 . S
C582 C583 1.355 . S
C582 C584 1.415 1_565 S
C583 C582 1.355 . S
C583 C585 1.419 1_565 S
C584 C582 1.415 1_545 S
C584 C589 1.425 . S
C584 C591 1.409 . S
C585 H577 0.930 . S
C585 C583 1.419 1_545 S
C585 C586 1.362 . S
C586 H578 0.930 . S
C586 C585 1.362 . S
C586 C589 1.409 . S
C587 H579 0.930 . S
C587 C588 1.355 . S
C587 C589 1.415 . S
C588 C587 1.355 . S
C588 C590 1.419 . S
C589 C584 1.425 . S
C589 C586 1.409 . S
C589 C587 1.415 . S
C590 H580 0.930 . S
C590 C588 1.419 . S
C590 C591 1.362 . S
C591 H581 0.930 . S
C591 C584 1.409 . S
C591 C590 1.362 . S
H592 C598 0.930 . S
H593 C601 0.930 . S
H594 C602 0.930 . S
H595 C603 0.930 . S
H596 C606 0.930 . S
H597 C607 0.930 . S
C598 H592 0.930 . S
C598 C599 1.355 . S
C598 C600 1.415 . S
C599 C598 1.355 . S
C599 C601 1.419 . S
C600 C598 1.415 . S
C600 C605 1.425 . S
C600 C607 1.409 . S
C601 H593 0.930 . S
C601 C599 1.419 . S
C601 C602 1.362 . S
C602 H594 0.930 . S
C602 C601 1.362 . S
C602 C605 1.409 . S
C603 H595 0.930 . S
C603 C604 1.355 . S
C603 C605 1.415 . S
C604 C603 1.355 . S
C604 C606 1.419 . S
C605 C600 1.425 . S
C605 C602 1.409 . S
C605 C603 1.415 . S
C606 H596 0.930 . S
C606 C604 1.419 . S
C606 C607 1.362 . S
C607 H597 0.930 . S
C607 C600 1.409 . S
C607 C606 1.362 . S
H608 C614 0.930 . S
H609 C617 0.930 . S
H610 C618 0.930 . S
H611 C619 0.930 1_556 S
H612 C622 0.930 . S
H613 C623 0.930 . S
C614 H608 0.930 . S
C614 C615 1.355 . S
C614 C616 1.415 . S
C615 C614 1.355 . S
C615 C617 1.419 . S
C616 C614 1.415 . S
C616 C621 1.425 . S
C616 C623 1.409 . S
C617 H609 0.930 . S
C617 C615 1.419 . S
C617 C618 1.362 . S
C618 H610 0.930 . S
C618 C617 1.362 . S
C618 C621 1.409 . S
C619 H611 0.930 1_554 S
C619 C620 1.355 1_554 S
C619 C621 1.415 . S
C620 C619 1.355 1_556 S
C620 C622 1.419 . S
C621 C616 1.425 . S
C621 C618 1.409 . S
C621 C619 1.415 . S
C622 H612 0.930 . S
C622 C620 1.419 . S
C622 C623 1.362 1_556 S
C623 H613 0.930 . S
C623 C616 1.409 . S
C623 C622 1.362 1_554 S
H624 C630 0.930 . S
H625 C633 0.930 . S
H626 C634 0.930 . S
H627 C635 0.930 . S
H628 C638 0.930 . S
H629 C639 0.930 . S
C630 H624 0.930 . S
C630 C631 1.355 . S
C630 C632 1.415 . S
C631 C630 1.355 . S
C631 C633 1.419 . S
C632 C630 1.415 . S
C632 C637 1.425 . S
C632 C639 1.409 . S
C633 H625 0.930 . S
C633 C631 1.419 . S
C633 C634 1.362 . S
C634 H626 0.930 . S
C634 C633 1.362 . S
C634 C637 1.409 . S
C635 H627 0.930 . S
C635 C636 1.355 . S
C635 C637 1.415 . S
C636 C635 1.355 . S
C636 C638 1.419 . S
C637 C632 1.425 . S
C637 C634 1.409 . S
C637 C635 1.415 . S
C638 H628 0.930 . S
C638 C636 1.419 . S
C638 C639 1.362 . S
C639 H629 0.930 . S
C639 C632 1.409 . S
C639 C638 1.362 . S
H640 C646 0.930 . S
H641 C649 0.930 . S
H642 C650 0.930 . S
H643 C651 0.930 . S
H644 C654 0.930 . S
H645 C655 0.937 . S
C646 H640 0.930 . S
C646 C647 1.355 . S
C646 C648 1.415 . S
C647 C646 1.355 . S
C647 C649 1.419 . S
C648 C646 1.415 . S
C648 C653 1.425 . S
C648 C655 1.391 1_556 S
C649 H641 0.930 . S
C649 C647 1.419 . S
C649 C650 1.362 . S
C650 H642 0.930 . S
C650 C649 1.362 . S
C650 C653 1.409 . S
C651 H643 0.930 . S
C651 C652 1.355 1_556 S
C651 C653 1.415 . S
C652 C651 1.355 1_554 S
C652 C654 1.419 . S
C653 C648 1.425 . S
C653 C650 1.409 . S
C653 C651 1.415 . S
C654 H644 0.930 . S
C654 C652 1.419 . S
C654 C655 1.375 . S
C655 H645 0.937 . S
C655 C648 1.391 1_554 S
C655 C654 1.375 . S
H656 C662 0.930 . S
H657 C665 0.930 . S
H658 C666 0.930 . S
H659 C667 0.930 . S
H660 C670 0.930 . S
H661 C671 0.930 . S
C662 H656 0.930 . S
C662 C663 1.355 . S
C662 C664 1.415 . S
C663 C662 1.355 . S
C663 C665 1.419 . S
C664 C662 1.415 . S
C664 C669 1.425 . S
C664 C671 1.409 . S
C665 H657 0.930 . S
C665 C663 1.419 . S
C665 C666 1.362 . S
C666 H658 0.930 . S
C666 C665 1.362 . S
C666 C669 1.409 . S
C667 H659 0.930 . S
C667 C668 1.355 . S
C667 C669 1.415 . S
C668 C667 1.355 . S
C668 C670 1.419 . S
C669 C664 1.425 . S
C669 C666 1.409 . S
C669 C667 1.415 . S
C670 H660 0.930 . S
C670 C668 1.419 . S
C670 C671 1.362 . S
C671 H661 0.930 . S
C671 C664 1.409 . S
C671 C670 1.362 . S
H672 C678 0.930 . S
H673 C681 0.930 . S
H674 C682 0.930 . S
H675 C683 0.930 . S
H676 C686 0.930 . S
H677 C687 0.930 1_655 S
C678 H672 0.930 . S
C678 C679 1.355 . S
C678 C680 1.415 1_655 S
C679 C678 1.355 . S
C679 C681 1.419 1_655 S
C680 C678 1.415 1_455 S
C680 C685 1.425 . S
C680 C687 1.409 . S
C681 H673 0.930 . S
C681 C679 1.419 1_455 S
C681 C682 1.362 . S
C682 H674 0.930 . S
C682 C681 1.362 . S
C682 C685 1.409 . S
C683 H675 0.930 . S
C683 C684 1.355 . S
C683 C685 1.415 . S
C684 C683 1.355 . S
C684 C686 1.419 . S
C685 C680 1.425 . S
C685 C682 1.409 . S
C685 C683 1.415 . S
C686 H676 0.930 . S
C686 C684 1.419 . S
C686 C687 1.362 . S
C687 H677 0.930 1_455 S
C687 C680 1.409 . S
C687 C686 1.362 . S
H688 C694 0.930 . S
H689 C697 0.930 . S
H690 C698 0.930 . S
H691 C699 0.930 . S
H692 C702 0.930 . S
H693 C703 0.930 . S
C694 H688 0.930 . S
C694 C695 1.355 . S
C694 C696 1.415 . S
C695 C694 1.355 . S
C695 C697 1.419 . S
C696 C694 1.415 . S
C696 C701 1.425 . S
C696 C703 1.409 . S
C697 H689 0.930 . S
C697 C695 1.419 . S
C697 C698 1.362 . S
C698 H690 0.930 . S
C698 C697 1.362 . S
C698 C701 1.409 . S
C699 H691 0.930 . S
C699 C700 1.355 . S
C699 C701 1.415 . S
C700 C699 1.355 . S
C700 C702 1.419 . S
C701 C696 1.425 . S
C701 C698 1.409 . S
C701 C699 1.415 . S
C702 H692 0.930 . S
C702 C700 1.419 . S
C702 C703 1.362 . S
C703 H693 0.930 . S
C703 C696 1.409 . S
C703 C702 1.362 . S
H704 C710 0.930 . S
H705 C713 0.930 . S
H706 C714 0.930 . S
H707 C715 0.930 . S
H708 C718 0.930 . S
H709 C719 0.928 1_455 S
C710 H704 0.930 . S
C710 C711 1.355 . S
C710 C712 1.415 . S
C711 C710 1.355 . S
C711 C713 1.419 . S
C712 C710 1.415 . S
C712 C717 1.425 . S
C712 C719 1.409 . S
C713 H705 0.930 . S
C713 C711 1.419 . S
C713 C714 1.362 . S
C714 H706 0.930 . S
C714 C713 1.362 . S
C714 C717 1.409 . S
C715 H707 0.930 . S
C715 C716 1.355 1_655 S
C715 C717 1.415 . S
C716 C715 1.355 1_455 S
C716 C718 1.419 . S
C717 C712 1.425 . S
C717 C714 1.409 . S
C717 C715 1.415 . S
C718 H708 0.930 . S
C718 C716 1.419 . S
C718 C719 1.362 1_455 S
C719 H709 0.928 1_655 S
C719 C712 1.409 . S
C719 C718 1.362 1_655 S
H720 C726 0.930 . S
H721 C729 0.930 . S
H722 C730 0.930 . S
H723 C731 0.930 . S
H724 C734 0.930 . S
H725 C735 0.930 . S
C726 H720 0.930 . S
C726 C727 1.355 . S
C726 C728 1.415 . S
C727 C726 1.355 . S
C727 C729 1.419 . S
C728 C726 1.415 . S
C728 C733 1.425 . S
C728 C735 1.409 . S
C729 H721 0.930 . S
C729 C727 1.419 . S
C729 C730 1.362 . S
C730 H722 0.930 . S
C730 C729 1.362 . S
C730 C733 1.409 . S
C731 H723 0.930 . S
C731 C732 1.355 . S
C731 C733 1.415 . S
C732 C731 1.355 . S
C732 C734 1.419 . S
C733 C728 1.425 . S
C733 C730 1.409 . S
C733 C731 1.415 . S
C734 H724 0.930 . S
C734 C732 1.419 . S
C734 C735 1.362 . S
C735 H725 0.930 . S
C735 C728 1.409 . S
C735 C734 1.362 . S
H736 C742 0.930 . S
H737 C745 0.930 . S
H738 C746 0.930 . S
H739 C747 0.930 . S
H740 C750 0.930 . S
H741 C751 0.930 . S
C742 H736 0.930 . S
C742 C743 1.355 . S
C742 C744 1.415 . S
C743 C742 1.355 . S
C743 C745 1.419 . S
C744 C742 1.415 . S
C744 C749 1.425 . S
C744 C751 1.409 . S
C745 H737 0.930 . S
C745 C743 1.419 . S
C745 C746 1.362 . S
C746 H738 0.930 . S
C746 C745 1.362 . S
C746 C749 1.409 . S
C747 H739 0.930 . S
C747 C748 1.355 . S
C747 C749 1.415 . S
C748 C747 1.355 . S
C748 C750 1.419 . S
C749 C744 1.425 . S
C749 C746 1.409 . S
C749 C747 1.415 . S
C750 H740 0.930 . S
C750 C748 1.419 . S
C750 C751 1.362 . S
C751 H741 0.930 . S
C751 C744 1.409 . S
C751 C750 1.362 . S
H752 C758 0.930 . S
H753 C761 0.930 . S
H754 C762 0.930 . S
H755 C763 0.930 . S
H756 C766 0.930 . S
H757 C767 0.930 . S
C758 H752 0.930 . S
C758 C759 1.355 . S
C758 C760 1.415 . S
C759 C758 1.355 . S
C759 C761 1.419 . S
C760 C758 1.415 . S
C760 C765 1.425 . S
C760 C767 1.409 . S
C761 H753 0.930 . S
C761 C759 1.419 . S
C761 C762 1.362 . S
C762 H754 0.930 . S
C762 C761 1.362 . S
C762 C765 1.409 . S
C763 H755 0.930 . S
C763 C764 1.355 . S
C763 C765 1.415 1_565 S
C764 C763 1.355 . S
C764 C766 1.419 1_565 S
C765 C760 1.425 . S
C765 C762 1.409 . S
C765 C763 1.415 1_545 S
C766 H756 0.930 . S
C766 C764 1.419 1_545 S
C766 C767 1.362 . S
C767 H757 0.930 . S
C767 C760 1.409 . S
C767 C766 1.362 . S
H768 C774 0.930 . S
H769 C777 0.930 . S
H770 C778 0.930 . S
H771 C779 0.930 . S
H772 C782 0.930 . S
H773 C783 0.930 1_545 S
C774 H768 0.930 . S
C774 C775 1.355 . S
C774 C776 1.415 . S
C775 C774 1.355 . S
C775 C777 1.419 . S
C776 C774 1.415 . S
C776 C781 1.425 . S
C776 C783 1.409 . S
C777 H769 0.930 . S
C777 C775 1.419 . S
C777 C778 1.362 . S
C778 H770 0.930 . S
C778 C777 1.362 . S
C778 C781 1.409 . S
C779 H771 0.930 . S
C779 C780 1.355 1_565 S
C779 C781 1.415 . S
C780 C779 1.355 1_545 S
C780 C782 1.419 . S
C781 C776 1.425 . S
C781 C778 1.409 . S
C781 C779 1.415 . S
C782 H772 0.930 . S
C782 C780 1.419 . S
C782 C783 1.362 1_545 S
C783 H773 0.930 1_565 S
C783 C776 1.409 . S
C783 C782 1.362 1_565 S
H784 C790 0.930 . S
H785 C793 0.930 . S
H786 C794 0.930 . S
H787 C795 0.930 . S
H788 C798 0.930 . S
H789 C799 0.930 . S
C790 H784 0.930 . S
C790 C791 1.355 . S
C790 C792 1.415 . S
C791 C790 1.355 . S
C791 C793 1.419 . S
C792 C790 1.415 . S
C792 C797 1.425 . S
C792 C799 1.409 . S
C793 H785 0.930 . S
C793 C791 1.419 . S
C793 C794 1.362 . S
C794 H786 0.930 . S
C794 C793 1.362 . S
C794 C797 1.409 . S
C795 H787 0.930 . S
C795 C796 1.355 . S
C795 C797 1.415 . S
C796 C795 1.355 . S
C796 C798 1.419 . S
C797 C792 1.425 . S
C797 C794 1.409 . S
C797 C795 1.415 . S
C798 H788 0.930 . S
C798 C796 1.419 . S
C798 C799 1.362 . S
C799 H789 0.930 . S
C799 C792 1.409 . S
C799 C798 1.362 . S
H800 C806 0.930 . S
H801 C809 0.930 . S
H802 C810 0.930 . S
H803 C811 0.930 . S
H804 C814 0.930 . S
H805 C815 0.930 . S
C806 H800 0.930 . S
C806 C807 1.355 . S
C806 C808 1.415 . S
C807 C806 1.355 . S
C807 C809 1.419 . S
C808 C806 1.415 . S
C808 C813 1.425 . S
C808 C815 1.409 . S
C809 H801 0.930 . S
C809 C807 1.419 . S
C809 C810 1.362 . S
C810 H802 0.930 . S
C810 C809 1.362 . S
C810 C813 1.409 . S
C811 H803 0.930 . S
C811 C812 1.355 1_556 S
C811 C813 1.415 . S
C812 C811 1.355 1_554 S
C812 C814 1.419 . S
C813 C808 1.425 . S
C813 C810 1.409 . S
C813 C811 1.415 . S
C814 H804 0.930 . S
C814 C812 1.419 . S
C814 C815 1.362 1_554 S
C815 H805 0.930 . S
C815 C808 1.409 . S
C815 C814 1.362 1_556 S
H816 C822 0.930 . S
H817 C825 0.930 . S
H818 C826 0.930 . S
H819 C827 0.930 . S
H820 C830 0.930 . S
H821 C831 0.930 . S
C822 H816 0.930 . S
C822 C823 1.355 . S
C822 C824 1.415 . S
C823 C822 1.355 . S
C823 C825 1.419 . S
C824 C822 1.415 . S
C824 C829 1.425 . S
C824 C831 1.409 . S
C825 H817 0.930 . S
C825 C823 1.419 . S
C825 C826 1.362 . S
C826 H818 0.930 . S
C826 C825 1.362 . S
C826 C829 1.409 . S
C827 H819 0.930 . S
C827 C828 1.355 . S
C827 C829 1.415 . S
C828 C827 1.355 . S
C828 C830 1.419 . S
C829 C824 1.425 . S
C829 C826 1.409 . S
C829 C827 1.415 . S
C830 H820 0.930 . S
C830 C828 1.419 . S
C830 C831 1.362 . S
C831 H821 0.930 . S
C831 C824 1.409 . S
C831 C830 1.362 . S
H832 C838 0.930 . S
H833 C841 0.930 . S
H834 C842 0.930 . S
H835 C843 0.930 . S
H836 C846 0.930 . S
H837 C847 0.930 . S
C838 H832 0.930 . S
C838 C839 1.355 1_554 S
C838 C840 1.415 . S
C839 C838 1.355 1_556 S
C839 C841 1.419 . S
C840 C838 1.415 . S
C840 C845 1.425 . S
C840 C847 1.409 . S
C841 H833 0.930 . S
C841 C839 1.419 . S
C841 C842 1.362 . S
C842 H834 0.930 . S
C842 C841 1.362 . S
C842 C845 1.409 1_556 S
C843 H835 0.930 . S
C843 C844 1.355 . S
C843 C845 1.415 . S
C844 C843 1.355 . S
C844 C846 1.419 . S
C845 C840 1.425 . S
C845 C842 1.409 1_554 S
C845 C843 1.415 . S
C846 H836 0.930 . S
C846 C844 1.419 . S
C846 C847 1.362 . S
C847 H837 0.930 . S
C847 C840 1.409 . S
C847 C846 1.362 . S
H848 C854 0.930 . S
H849 C857 0.930 . S
H850 C858 0.930 . S
H851 C859 0.930 . S
H852 C862 0.930 . S
H853 C863 0.930 . S
C854 H848 0.930 . S
C854 C855 1.355 . S
C854 C856 1.415 . S
C855 C854 1.355 . S
C855 C857 1.419 . S
C856 C854 1.415 . S
C856 C861 1.425 . S
C856 C863 1.409 . S
C857 H849 0.930 . S
C857 C855 1.419 . S
C857 C858 1.362 . S
C858 H850 0.930 . S
C858 C857 1.362 . S
C858 C861 1.409 . S
C859 H851 0.930 . S
C859 C860 1.355 . S
C859 C861 1.415 . S
C860 C859 1.355 . S
C860 C862 1.419 . S
C861 C856 1.425 . S
C861 C858 1.409 . S
C861 C859 1.415 . S
C862 H852 0.930 . S
C862 C860 1.419 . S
C862 C863 1.362 . S
C863 H853 0.930 . S
C863 C856 1.409 . S
C863 C862 1.362 . S
H864 C870 0.930 . S
H865 C873 0.930 . S
H866 C874 0.930 . S
H867 C875 0.930 . S
H868 C878 0.930 . S
H869 C879 0.930 . S
C870 H864 0.930 . S
C870 C871 1.355 1_655 S
C870 C872 1.415 . S
C871 C870 1.355 1_455 S
C871 C873 1.419 . S
C872 C870 1.415 . S
C872 C877 1.425 . S
C872 C879 1.409 . S
C873 H865 0.930 . S
C873 C871 1.419 . S
C873 C874 1.362 1_455 S
C874 H866 0.930 . S
C874 C873 1.362 1_655 S
C874 C877 1.409 . S
C875 H867 0.930 . S
C875 C876 1.355 . S
C875 C877 1.415 . S
C876 C875 1.355 . S
C876 C878 1.419 . S
C877 C872 1.425 . S
C877 C874 1.409 . S
C877 C875 1.415 . S
C878 H868 0.930 . S
C878 C876 1.419 . S
C878 C879 1.362 . S
C879 H869 0.930 . S
C879 C872 1.409 . S
C879 C878 1.362 . S
H880 C886 0.930 . S
H881 C889 0.930 . S
H882 C890 0.930 . S
H883 C891 0.930 . S
H884 C894 0.930 . S
H885 C895 0.930 . S
C886 H880 0.930 . S
C886 C887 1.355 . S
C886 C888 1.415 . S
C887 C886 1.355 . S
C887 C889 1.419 . S
C888 C886 1.415 . S
C888 C893 1.425 . S
C888 C895 1.409 . S
C889 H881 0.930 . S
C889 C887 1.419 . S
C889 C890 1.362 . S
C890 H882 0.930 . S
C890 C889 1.362 . S
C890 C893 1.409 . S
C891 H883 0.930 . S
C891 C892 1.355 . S
C891 C893 1.415 . S
C892 C891 1.355 . S
C892 C894 1.419 . S
C893 C888 1.425 . S
C893 C890 1.409 . S
C893 C891 1.415 . S
C894 H884 0.930 . S
C894 C892 1.419 . S
C894 C895 1.362 . S
C895 H885 0.930 . S
C895 C888 1.409 . S
C895 C894 1.362 . S
H896 C902 0.930 . S
H897 C905 0.930 . S
H898 C906 0.930 . S
H899 C907 0.950 . S
H900 C910 0.930 . S
H901 C911 0.930 . S
C902 H896 0.930 . S
C902 C903 1.355 . S
C902 C904 1.415 . S
C903 C902 1.355 . S
C903 C905 1.419 . S
C904 C902 1.415 . S
C904 C909 1.425 . S
C904 C911 1.409 . S
C905 H897 0.930 . S
C905 C903 1.419 . S
C905 C906 1.362 . S
C906 H898 0.930 . S
C906 C905 1.362 . S
C906 C909 1.409 . S
C907 H899 0.950 . S
C907 C908 1.364 . S
C907 C909 1.386 1_655 S
C908 C907 1.364 . S
C908 C910 1.419 1_655 S
C909 C904 1.425 . S
C909 C906 1.409 . S
C909 C907 1.386 1_455 S
C910 H900 0.930 . S
C910 C908 1.419 1_455 S
C910 C911 1.362 . S
C911 H901 0.930 . S
C911 C904 1.409 . S
C911 C910 1.362 . S
H912 C918 0.930 . S
H913 C921 0.930 1_556 S
H914 C922 0.930 . S
H915 C923 0.930 . S
H916 C926 0.930 . S
H917 C927 0.930 . S
C918 H912 0.930 . S
C918 C919 1.355 . S
C918 C920 1.415 . S
C919 C918 1.355 . S
C919 C921 1.419 . S
C920 C918 1.415 . S
C920 C925 1.425 . S
C920 C927 1.409 . S
C921 H913 0.930 1_554 S
C921 C919 1.419 . S
C921 C922 1.362 . S
C922 H914 0.930 . S
C922 C921 1.362 . S
C922 C925 1.409 . S
C923 H915 0.930 . S
C923 C924 1.355 . S
C923 C925 1.415 . S
C924 C923 1.355 . S
C924 C926 1.419 . S
C925 C920 1.425 . S
C925 C922 1.409 . S
C925 C923 1.415 . S
C926 H916 0.930 . S
C926 C924 1.419 . S
C926 C927 1.362 . S
C927 H917 0.930 . S
C927 C920 1.409 . S
C927 C926 1.362 . S
H928 C934 0.930 . S
H929 C937 0.930 . S
H930 C938 0.930 . S
H931 C939 0.930 . S
H932 C942 0.930 . S
H933 C943 0.930 . S
C934 H928 0.930 . S
C934 C935 1.355 . S
C934 C936 1.415 . S
C935 C934 1.355 . S
C935 C937 1.419 . S
C936 C934 1.415 . S
C936 C941 1.425 . S
C936 C943 1.409 . S
C937 H929 0.930 . S
C937 C935 1.419 . S
C937 C938 1.362 . S
C938 H930 0.930 . S
C938 C937 1.362 . S
C938 C941 1.409 . S
C939 H931 0.930 . S
C939 C940 1.355 . S
C939 C941 1.415 . S
C940 C939 1.355 . S
C940 C942 1.419 . S
C941 C936 1.425 . S
C941 C938 1.409 . S
C941 C939 1.415 . S
C942 H932 0.930 . S
C942 C940 1.419 . S
C942 C943 1.362 . S
C943 H933 0.930 . S
C943 C936 1.409 . S
C943 C942 1.362 . S
H944 C950 0.930 . S
H945 C953 0.930 . S
H946 C954 0.930 . S
H947 C955 0.930 . S
H948 C958 0.930 . S
H949 C959 0.930 . S
C950 H944 0.930 . S
C950 C951 1.355 . S
C950 C952 1.415 . S
C951 C950 1.355 . S
C951 C953 1.419 . S
C952 C950 1.415 . S
C952 C957 1.425 . S
C952 C959 1.409 . S
C953 H945 0.930 . S
C953 C951 1.419 . S
C953 C954 1.362 . S
C954 H946 0.930 . S
C954 C953 1.362 . S
C954 C957 1.409 . S
C955 H947 0.930 . S
C955 C956 1.355 . S
C955 C957 1.415 . S
C956 C955 1.355 . S
C956 C958 1.419 . S
C957 C952 1.425 . S
C957 C954 1.409 . S
C957 C955 1.415 . S
C958 H948 0.930 . S
C958 C956 1.419 . S
C958 C959 1.362 . S
C959 H949 0.930 . S
C959 C952 1.409 . S
C959 C958 1.362 . S
H960 C966 0.930 . S
H961 C969 0.930 . S
H962 C970 0.930 . S
H963 C971 0.930 . S
H964 C974 0.930 . S
H965 C975 0.930 . S
C966 H960 0.930 . S
C966 C967 1.355 . S
C966 C968 1.415 . S
C967 C966 1.355 . S
C967 C969 1.419 . S
C968 C966 1.415 . S
C968 C973 1.425 . S
C968 C975 1.409 . S
C969 H961 0.930 . S
C969 C967 1.419 . S
C969 C970 1.362 . S
C970 H962 0.930 . S
C970 C969 1.362 . S
C970 C973 1.409 . S
C971 H963 0.930 . S
C971 C972 1.355 . S
C971 C973 1.415 . S
C972 C971 1.355 . S
C972 C974 1.419 . S
C973 C968 1.425 . S
C973 C970 1.409 . S
C973 C971 1.415 . S
C974 H964 0.930 . S
C974 C972 1.419 . S
C974 C975 1.362 . S
C975 H965 0.930 . S
C975 C968 1.409 . S
C975 C974 1.362 . S
H976 C982 0.930 . S
H977 C985 0.930 . S
H978 C986 0.930 . S
H979 C987 0.930 . S
H980 C990 0.930 1_655 S
H981 C991 0.930 . S
C982 H976 0.930 . S
C982 C983 1.355 . S
C982 C984 1.415 . S
C983 C982 1.355 . S
C983 C985 1.419 . S
C984 C982 1.415 . S
C984 C989 1.425 . S
C984 C991 1.409 . S
C985 H977 0.930 . S
C985 C983 1.419 . S
C985 C986 1.362 . S
C986 H978 0.930 . S
C986 C985 1.362 . S
C986 C989 1.409 . S
C987 H979 0.930 . S
C987 C988 1.355 . S
C987 C989 1.415 . S
C988 C987 1.355 . S
C988 C990 1.419 . S
C989 C984 1.425 . S
C989 C986 1.409 . S
C989 C987 1.415 . S
C990 H980 0.930 1_455 S
C990 C988 1.419 . S
C990 C991 1.362 . S
C991 H981 0.930 . S
C991 C984 1.409 . S
C991 C990 1.362 . S
H992 C998 0.930 . S
H993 C1001 0.930 . S
H994 C1002 0.930 . S
H995 C1003 0.930 . S
H996 C1006 0.930 . S
H997 C1007 0.930 . S
C998 H992 0.930 . S
C998 C999 1.355 . S
C998 C1000 1.415 . S
C999 C998 1.355 . S
C999 C1001 1.419 . S
C1000 C998 1.415 . S
C1000 C1005 1.425 . S
C1000 C1007 1.409 . S
C1001 H993 0.930 . S
C1001 C999 1.419 . S
C1001 C1002 1.362 . S
C1002 H994 0.930 . S
C1002 C1001 1.362 . S
C1002 C1005 1.409 . S
C1003 H995 0.930 . S
C1003 C1004 1.355 . S
C1003 C1005 1.415 . S
C1004 C1003 1.355 . S
C1004 C1006 1.419 . S
C1005 C1000 1.425 . S
C1005 C1002 1.409 . S
C1005 C1003 1.415 . S
C1006 H996 0.930 . S
C1006 C1004 1.419 . S
C1006 C1007 1.362 . S
C1007 H997 0.930 . S
C1007 C1000 1.409 . S
C1007 C1006 1.362 . S
H1008 C1014 0.930 . S
H1009 C1017 0.930 . S
H1010 C1018 0.930 . S
H1011 C1019 0.930 . S
H1012 C1022 0.930 . S
H1013 C1023 0.930 . S
C1014 H1008 0.930 . S
C1014 C1015 1.355 . S
C1014 C1016 1.415 . S
C1015 C1014 1.355 . S
C1015 C1017 1.419 . S
C1016 C1014 1.415 . S
C1016 C1021 1.425 . S
C1016 C1023 1.409 . S
C1017 H1009 0.930 . S
C1017 C1015 1.419 . S
C1017 C1018 1.362 . S
C1018 H1010 0.930 . S
C1018 C1017 1.362 . S
C1018 C1021 1.409 . S
C1019 H1011 0.930 . S
C1019 C1020 1.355 . S
C1019 C1021 1.415 . S
C1020 C1019 1.355 . S
C1020 C1022 1.419 . S
C1021 C1016 1.425 . S
C1021 C1018 1.409 . S
C1021 C1019 1.415 . S
C1022 H1012 0.930 . S
C1022 C1020 1.419 . S
C1022 C1023 1.362 . S
C1023 H1013 0.930 . S
C1023 C1016 1.409 . S
C1023 C1022 1.362 . S
H1024 C1030 0.930 . S
H1025 C1033 0.930 . S
H1026 C1034 0.930 . S
H1027 C1035 0.930 . S
H1028 C1038 0.930 . S
H1029 C1039 0.930 . S
C1030 H1024 0.930 . S
C1030 C1031 1.355 . S
C1030 C1032 1.415 . S
C1031 C1030 1.355 . S
C1031 C1033 1.419 . S
C1032 C1030 1.415 . S
C1032 C1037 1.425 . S
C1032 C1039 1.409 . S
C1033 H1025 0.930 . S
C1033 C1031 1.419 . S
C1033 C1034 1.362 . S
C1034 H1026 0.930 . S
C1034 C1033 1.362 . S
C1034 C1037 1.409 . S
C1035 H1027 0.930 . S
C1035 C1036 1.355 . S
C1035 C1037 1.415 . S
C1036 C1035 1.355 . S
C1036 C1038 1.419 . S
C1037 C1032 1.425 . S
C1037 C1034 1.409 . S
C1037 C1035 1.415 . S
C1038 H1028 0.930 . S
C1038 C1036 1.419 . S
C1038 C1039 1.362 . S
C1039 H1029 0.930 . S
C1039 C1032 1.409 . S
C1039 C1038 1.362 . S
H1040 C1046 0.930 . S
H1041 C1049 0.930 1_565 S
H1042 C1050 0.930 . S
H1043 C1051 0.930 . S
H1044 C1054 0.930 . S
H1045 C1055 0.930 . S
C1046 H1040 0.930 . S
C1046 C1047 1.355 . S
C1046 C1048 1.415 . S
C1047 C1046 1.355 . S
C1047 C1049 1.419 . S
C1048 C1046 1.415 . S
C1048 C1053 1.425 . S
C1048 C1055 1.409 . S
C1049 H1041 0.930 1_545 S
C1049 C1047 1.419 . S
C1049 C1050 1.362 . S
C1050 H1042 0.930 . S
C1050 C1049 1.362 . S
C1050 C1053 1.409 . S
C1051 H1043 0.930 . S
C1051 C1052 1.355 . S
C1051 C1053 1.415 . S
C1052 C1051 1.355 . S
C1052 C1054 1.419 . S
C1053 C1048 1.425 . S
C1053 C1050 1.409 . S
C1053 C1051 1.415 . S
C1054 H1044 0.930 . S
C1054 C1052 1.419 . S
C1054 C1055 1.362 . S
C1055 H1045 0.930 . S
C1055 C1048 1.409 . S
C1055 C1054 1.362 . S
H1056 C1062 0.930 . S
H1057 C1065 0.930 . S
H1058 C1066 0.930 . S
H1059 C1067 0.930 . S
H1060 C1070 0.930 . S
H1061 C1071 0.930 . S
C1062 H1056 0.930 . S
C1062 C1063 1.355 . S
C1062 C1064 1.415 . S
C1063 C1062 1.355 . S
C1063 C1065 1.419 . S
C1064 C1062 1.415 . S
C1064 C1069 1.425 . S
C1064 C1071 1.409 . S
C1065 H1057 0.930 . S
C1065 C1063 1.419 . S
C1065 C1066 1.362 . S
C1066 H1058 0.930 . S
C1066 C1065 1.362 . S
C1066 C1069 1.409 . S
C1067 H1059 0.930 . S
C1067 C1068 1.355 . S
C1067 C1069 1.415 . S
C1068 C1067 1.355 . S
C1068 C1070 1.419 . S
C1069 C1064 1.425 . S
C1069 C1066 1.409 . S
C1069 C1067 1.415 . S
C1070 H1060 0.930 . S
C1070 C1068 1.419 . S
C1070 C1071 1.362 . S
C1071 H1061 0.930 . S
C1071 C1064 1.409 . S
C1071 C1070 1.362 . S
H1072 C1078 0.930 . S
H1073 C1081 0.930 . S
H1074 C1082 0.930 . S
H1075 C1083 0.930 . S
H1076 C1086 0.930 . S
H1077 C1087 0.930 . S
C1078 H1072 0.930 . S
C1078 C1079 1.355 . S
C1078 C1080 1.415 . S
C1079 C1078 1.355 . S
C1079 C1081 1.419 . S
C1080 C1078 1.415 . S
C1080 C1085 1.425 . S
C1080 C1087 1.409 . S
C1081 H1073 0.930 . S
C1081 C1079 1.419 . S
C1081 C1082 1.362 . S
C1082 H1074 0.930 . S
C1082 C1081 1.362 . S
C1082 C1085 1.409 . S
C1083 H1075 0.930 . S
C1083 C1084 1.355 . S
C1083 C1085 1.415 . S
C1084 C1083 1.355 . S
C1084 C1086 1.419 . S
C1085 C1080 1.425 . S
C1085 C1082 1.409 . S
C1085 C1083 1.415 . S
C1086 H1076 0.930 . S
C1086 C1084 1.419 . S
C1086 C1087 1.362 . S
C1087 H1077 0.930 . S
C1087 C1080 1.409 . S
C1087 C1086 1.362 . S
H1088 C1094 0.930 . S
H1089 C1097 0.930 . S
H1090 C1098 0.930 . S
H1091 C1099 0.930 . S
H1092 C1102 0.930 . S
H1093 C1103 0.930 . S
C1094 H1088 0.930 . S
C1094 C1095 1.355 . S
C1094 C1096 1.415 . S
C1095 C1094 1.355 . S
C1095 C1097 1.419 . S
C1096 C1094 1.415 . S
C1096 C1101 1.425 . S
C1096 C1103 1.409 . S
C1097 H1089 0.930 . S
C1097 C1095 1.419 . S
C1097 C1098 1.362 . S
C1098 H1090 0.930 . S
C1098 C1097 1.362 . S
C1098 C1101 1.409 . S
C1099 H1091 0.930 . S
C1099 C1100 1.355 . S
C1099 C1101 1.415 . S
C1100 C1099 1.355 . S
C1100 C1102 1.419 . S
C1101 C1096 1.425 . S
C1101 C1098 1.409 . S
C1101 C1099 1.415 . S
C1102 H1092 0.930 . S
C1102 C1100 1.419 . S
C1102 C1103 1.362 . S
C1103 H1093 0.930 . S
C1103 C1096 1.409 . S
C1103 C1102 1.362 . S
H1104 C1110 0.930 . S
H1105 C1113 0.930 . S
H1106 C1114 0.930 . S
H1107 C1115 0.930 . S
H1108 C1118 0.930 . S
H1109 C1119 0.930 . S
C1110 H1104 0.930 . S
C1110 C1111 1.355 . S
C1110 C1112 1.415 . S
C1111 C1110 1.355 . S
C1111 C1113 1.419 . S
C1112 C1110 1.415 . S
C1112 C1117 1.425 . S
C1112 C1119 1.409 . S
C1113 H1105 0.930 . S
C1113 C1111 1.419 . S
C1113 C1114 1.362 . S
C1114 H1106 0.930 . S
C1114 C1113 1.362 . S
C1114 C1117 1.409 . S
C1115 H1107 0.930 . S
C1115 C1116 1.355 . S
C1115 C1117 1.415 . S
C1116 C1115 1.355 . S
C1116 C1118 1.419 . S
C1117 C1112 1.425 . S
C1117 C1114 1.409 . S
C1117 C1115 1.415 . S
C1118 H1108 0.930 . S
C1118 C1116 1.419 . S
C1118 C1119 1.362 . S
C1119 H1109 0.930 . S
C1119 C1112 1.409 . S
C1119 C1118 1.362 . S
H1120 C1126 0.930 . S
H1121 C1129 0.930 . S
H1122 C1130 0.930 . S
H1123 C1131 0.930 . S
H1124 C1134 0.930 . S
H1125 C1135 0.930 . S
C1126 H1120 0.930 . S
C1126 C1127 1.355 . S
C1126 C1128 1.415 . S
C1127 C1126 1.355 . S
C1127 C1129 1.419 . S
C1128 C1126 1.415 . S
C1128 C1133 1.425 . S
C1128 C1135 1.409 . S
C1129 H1121 0.930 . S
C1129 C1127 1.419 . S
C1129 C1130 1.362 . S
C1130 H1122 0.930 . S
C1130 C1129 1.362 . S
C1130 C1133 1.409 . S
C1131 H1123 0.930 . S
C1131 C1132 1.355 . S
C1131 C1133 1.415 . S
C1132 C1131 1.355 . S
C1132 C1134 1.419 . S
C1133 C1128 1.425 . S
C1133 C1130 1.409 . S
C1133 C1131 1.415 . S
C1134 H1124 0.930 . S
C1134 C1132 1.419 . S
C1134 C1135 1.362 . S
C1135 H1125 0.930 . S
C1135 C1128 1.409 . S
C1135 C1134 1.362 . S
H1136 C1142 0.930 . S
H1137 C1145 0.930 . S
H1138 C1146 0.930 . S
H1139 C1147 0.930 . S
H1140 C1150 0.930 . S
H1141 C1151 0.930 . S
C1142 H1136 0.930 . S
C1142 C1143 1.355 . S
C1142 C1144 1.415 . S
C1143 C1142 1.355 . S
C1143 C1145 1.419 . S
C1144 C1142 1.415 . S
C1144 C1149 1.425 . S
C1144 C1151 1.409 . S
C1145 H1137 0.930 . S
C1145 C1143 1.419 . S
C1145 C1146 1.362 . S
C1146 H1138 0.930 . S
C1146 C1145 1.362 . S
C1146 C1149 1.409 . S
C1147 H1139 0.930 . S
C1147 C1148 1.355 . S
C1147 C1149 1.415 . S
C1148 C1147 1.355 . S
C1148 C1150 1.419 . S
C1149 C1144 1.425 . S
C1149 C1146 1.409 . S
C1149 C1147 1.415 . S
C1150 H1140 0.930 . S
C1150 C1148 1.419 . S
C1150 C1151 1.362 . S
C1151 H1141 0.930 . S
C1151 C1144 1.409 . S
C1151 C1150 1.362 . S
H1152 C1158 0.930 . S
H1153 C1161 0.930 . S
H1154 C1162 0.930 . S
H1155 C1163 0.930 . S
H1156 C1166 0.930 . S
H1157 C1167 0.930 . S
C1158 H1152 0.930 . S
C1158 C1159 1.355 . S
C1158 C1160 1.415 . S
C1159 C1158 1.355 . S
C1159 C1161 1.419 . S
C1160 C1158 1.415 . S
C1160 C1165 1.425 . S
C1160 C1167 1.409 . S
C1161 H1153 0.930 . S
C1161 C1159 1.419 . S
C1161 C1162 1.362 . S
C1162 H1154 0.930 . S
C1162 C1161 1.362 . S
C1162 C1165 1.409 . S
C1163 H1155 0.930 . S
C1163 C1164 1.355 . S
C1163 C1165 1.415 . S
C1164 C1163 1.355 . S
C1164 C1166 1.419 . S
C1165 C1160 1.425 . S
C1165 C1162 1.409 . S
C1165 C1163 1.415 . S
C1166 H1156 0.930 . S
C1166 C1164 1.419 . S
C1166 C1167 1.362 . S
C1167 H1157 0.930 . S
C1167 C1160 1.409 . S
C1167 C1166 1.362 . S
H1168 C1174 0.930 . S
H1169 C1177 0.930 1_455 S
H1170 C1178 0.930 . S
H1171 C1179 0.930 . S
H1172 C1182 0.930 . S
H1173 C1183 0.930 . S
C1174 H1168 0.930 . S
C1174 C1175 1.355 . S
C1174 C1176 1.415 . S
C1175 C1174 1.355 . S
C1175 C1177 1.419 . S
C1176 C1174 1.415 . S
C1176 C1181 1.425 . S
C1176 C1183 1.409 . S
C1177 H1169 0.930 1_655 S
C1177 C1175 1.419 . S
C1177 C1178 1.362 . S
C1178 H1170 0.930 . S
C1178 C1177 1.362 . S
C1178 C1181 1.409 . S
C1179 H1171 0.930 . S
C1179 C1180 1.355 . S
C1179 C1181 1.415 . S
C1180 C1179 1.355 . S
C1180 C1182 1.419 . S
C1181 C1176 1.425 . S
C1181 C1178 1.409 . S
C1181 C1179 1.415 . S
C1182 H1172 0.930 . S
C1182 C1180 1.419 . S
C1182 C1183 1.362 . S
C1183 H1173 0.930 . S
C1183 C1176 1.409 . S
C1183 C1182 1.362 . S
H1184 C1190 0.930 . S
H1185 C1193 0.930 . S
H1186 C1194 0.930 . S
H1187 C1195 0.930 . S
H1188 C1198 0.930 . S
H1189 C1199 0.930 . S
C1190 H1184 0.930 . S
C1190 C1191 1.355 . S
C1190 C1192 1.415 . S
C1191 C1190 1.355 . S
C1191 C1193 1.419 . S
C1192 C1190 1.415 . S
C1192 C1197 1.425 . S
C1192 C1199 1.409 . S
C1193 H1185 0.930 . S
C1193 C1191 1.419 . S
C1193 C1194 1.362 . S
C1194 H1186 0.930 . S
C1194 C1193 1.362 . S
C1194 C1197 1.409 . S
C1195 H1187 0.930 . S
C1195 C1196 1.355 . S
C1195 C1197 1.415 . S
C1196 C1195 1.355 . S
C1196 C1198 1.419 . S
C1197 C1192 1.425 . S
C1197 C1194 1.409 . S
C1197 C1195 1.415 . S
C1198 H1188 0.930 . S
C1198 C1196 1.419 . S
C1198 C1199 1.362 . S
C1199 H1189 0.930 . S
C1199 C1192 1.409 . S
C1199 C1198 1.362 . S
H1200 C1206 0.930 . S
H1201 C1209 0.930 . S
H1202 C1210 0.930 . S
H1203 C1211 0.930 . S
H1204 C1214 0.930 . S
H1205 C1215 0.930 . S
C1206 H1200 0.930 . S
C1206 C1207 1.355 . S
C1206 C1208 1.415 . S
C1207 C1206 1.355 . S
C1207 C1209 1.419 . S
C1208 C1206 1.415 . S
C1208 C1213 1.425 . S
C1208 C1215 1.409 . S
C1209 H1201 0.930 . S
C1209 C1207 1.419 . S
C1209 C1210 1.362 . S
C1210 H1202 0.930 . S
C1210 C1209 1.362 . S
C1210 C1213 1.409 . S
C1211 H1203 0.930 . S
C1211 C1212 1.355 . S
C1211 C1213 1.415 . S
C1212 C1211 1.355 . S
C1212 C1214 1.419 . S
C1213 C1208 1.425 . S
C1213 C1210 1.409 . S
C1213 C1211 1.415 . S
C1214 H1204 0.930 . S
C1214 C1212 1.419 . S
C1214 C1215 1.362 . S
C1215 H1205 0.930 . S
C1215 C1208 1.409 . S
C1215 C1214 1.362 . S
H1216 C1222 0.930 . S
H1217 C1225 0.930 . S
H1218 C1226 0.930 . S
H1219 C1227 0.930 . S
H1220 C1230 0.930 . S
H1221 C1231 0.930 . S
C1222 H1216 0.930 . S
C1222 C1223 1.355 . S
C1222 C1224 1.415 . S
C1223 C1222 1.355 . S
C1223 C1225 1.419 . S
C1224 C1222 1.415 . S
C1224 C1229 1.425 . S
C1224 C1231 1.409 . S
C1225 H1217 0.930 . S
C1225 C1223 1.419 . S
C1225 C1226 1.362 . S
C1226 H1218 0.930 . S
C1226 C1225 1.362 . S
C1226 C1229 1.409 . S
C1227 H1219 0.930 . S
C1227 C1228 1.355 . S
C1227 C1229 1.415 . S
C1228 C1227 1.355 . S
C1228 C1230 1.419 . S
C1229 C1224 1.425 . S
C1229 C1226 1.409 . S
C1229 C1227 1.415 . S
C1230 H1220 0.930 . S
C1230 C1228 1.419 . S
C1230 C1231 1.362 . S
C1231 H1221 0.930 . S
C1231 C1224 1.409 . S
C1231 C1230 1.362 . S
H1232 C1238 0.930 . S
H1233 C1241 0.930 . S
H1234 C1242 0.930 . S
H1235 C1243 0.930 . S
H1236 C1246 0.930 . S
H1237 C1247 0.930 . S
C1238 H1232 0.930 . S
C1238 C1239 1.355 . S
C1238 C1240 1.415 . S
C1239 C1238 1.355 . S
C1239 C1241 1.419 . S
C1240 C1238 1.415 . S
C1240 C1245 1.425 . S
C1240 C1247 1.409 . S
C1241 H1233 0.930 . S
C1241 C1239 1.419 . S
C1241 C1242 1.362 . S
C1242 H1234 0.930 . S
C1242 C1241 1.362 . S
C1242 C1245 1.409 . S
C1243 H1235 0.930 . S
C1243 C1244 1.355 . S
C1243 C1245 1.415 . S
C1244 C1243 1.355 . S
C1244 C1246 1.419 . S
C1245 C1240 1.425 . S
C1245 C1242 1.409 . S
C1245 C1243 1.415 . S
C1246 H1236 0.930 . S
C1246 C1244 1.419 . S
C1246 C1247 1.362 . S
C1247 H1237 0.930 . S
C1247 C1240 1.409 . S
C1247 C1246 1.362 . S
H1248 C1254 0.930 . S
H1249 C1257 0.930 . S
H1250 C1258 0.930 . S
H1251 C1259 0.930 . S
H1252 C1262 0.930 . S
H1253 C1263 0.930 . S
C1254 H1248 0.930 . S
C1254 C1255 1.355 . S
C1254 C1256 1.415 . S
C1255 C1254 1.355 . S
C1255 C1257 1.419 . S
C1256 C1254 1.415 . S
C1256 C1261 1.425 . S
C1256 C1263 1.409 . S
C1257 H1249 0.930 . S
C1257 C1255 1.419 . S
C1257 C1258 1.362 . S
C1258 H1250 0.930 . S
C1258 C1257 1.362 . S
C1258 C1261 1.409 . S
C1259 H1251 0.930 . S
C1259 C1260 1.355 . S
C1259 C1261 1.415 . S
C1260 C1259 1.355 . S
C1260 C1262 1.419 . S
C1261 C1256 1.425 . S
C1261 C1258 1.409 . S
C1261 C1259 1.415 . S
C1262 H1252 0.930 . S
C1262 C1260 1.419 . S
C1262 C1263 1.362 . S
C1263 H1253 0.930 . S
C1263 C1256 1.409 . S
C1263 C1262 1.362 . S
H1264 C1270 0.930 . S
H1265 C1273 0.930 . S
H1266 C1274 0.930 . S
H1267 C1275 0.930 . S
H1268 C1278 0.930 . S
H1269 C1279 0.930 . S
C1270 H1264 0.930 . S
C1270 C1271 1.355 . S
C1270 C1272 1.415 . S
C1271 C1270 1.355 . S
C1271 C1273 1.419 . S
C1272 C1270 1.415 . S
C1272 C1277 1.425 . S
C1272 C1279 1.409 . S
C1273 H1265 0.930 . S
C1273 C1271 1.419 . S
C1273 C1274 1.362 . S
C1274 H1266 0.930 . S
C1274 C1273 1.362 . S
C1274 C1277 1.409 . S
C1275 H1267 0.930 . S
C1275 C1276 1.355 . S
C1275 C1277 1.415 . S
C1276 C1275 1.355 . S
C1276 C1278 1.419 . S
C1277 C1272 1.425 . S
C1277 C1274 1.409 . S
C1277 C1275 1.415 . S
C1278 H1268 0.930 . S
C1278 C1276 1.419 . S
C1278 C1279 1.362 . S
C1279 H1269 0.930 . S
C1279 C1272 1.409 . S
C1279 C1278 1.362 . S
H1280 C1286 0.930 . S
H1281 C1289 0.930 . S
H1282 C1290 0.930 . S
H1283 C1291 0.930 . S
H1284 C1294 0.930 1_565 S
H1285 C1295 0.930 . S
C1286 H1280 0.930 . S
C1286 C1287 1.355 . S
C1286 C1288 1.415 . S
C1287 C1286 1.355 . S
C1287 C1289 1.419 . S
C1288 C1286 1.415 . S
C1288 C1293 1.425 . S
C1288 C1295 1.409 . S
C1289 H1281 0.930 . S
C1289 C1287 1.419 . S
C1289 C1290 1.362 . S
C1290 H1282 0.930 . S
C1290 C1289 1.362 . S
C1290 C1293 1.409 . S
C1291 H1283 0.930 . S
C1291 C1292 1.355 . S
C1291 C1293 1.415 . S
C1292 C1291 1.355 . S
C1292 C1294 1.419 . S
C1293 C1288 1.425 . S
C1293 C1290 1.409 . S
C1293 C1291 1.415 . S
C1294 H1284 0.930 1_545 S
C1294 C1292 1.419 . S
C1294 C1295 1.362 . S
C1295 H1285 0.930 . S
C1295 C1288 1.409 . S
C1295 C1294 1.362 . S
H1296 C1302 0.930 . S
H1297 C1305 0.930 . S
H1298 C1306 0.930 . S
H1299 C1307 0.930 . S
H1300 C1310 0.930 . S
H1301 C1311 0.930 . S
C1302 H1296 0.930 . S
C1302 C1303 1.355 . S
C1302 C1304 1.415 . S
C1303 C1302 1.355 . S
C1303 C1305 1.419 . S
C1304 C1302 1.415 . S
C1304 C1309 1.425 . S
C1304 C1311 1.409 . S
C1305 H1297 0.930 . S
C1305 C1303 1.419 . S
C1305 C1306 1.362 . S
C1306 H1298 0.930 . S
C1306 C1305 1.362 . S
C1306 C1309 1.409 . S
C1307 H1299 0.930 . S
C1307 C1308 1.355 . S
C1307 C1309 1.415 . S
C1308 C1307 1.355 . S
C1308 C1310 1.419 . S
C1309 C1304 1.425 . S
C1309 C1306 1.409 . S
C1309 C1307 1.415 . S
C1310 H1300 0.930 . S
C1310 C1308 1.419 . S
C1310 C1311 1.362 . S
C1311 H1301 0.930 . S
C1311 C1304 1.409 . S
C1311 C1310 1.362 . S
H1312 C1318 0.930 . S
H1313 C1321 0.930 . S
H1314 C1322 0.930 . S
H1315 C1323 0.930 . S
H1316 C1326 0.930 . S
H1317 C1327 0.930 . S
C1318 H1312 0.930 . S
C1318 C1319 1.355 . S
C1318 C1320 1.415 . S
C1319 C1318 1.355 . S
C1319 C1321 1.419 . S
C1320 C1318 1.415 . S
C1320 C1325 1.425 . S
C1320 C1327 1.409 . S
C1321 H1313 0.930 . S
C1321 C1319 1.419 . S
C1321 C1322 1.362 . S
C1322 H1314 0.930 . S
C1322 C1321 1.362 . S
C1322 C1325 1.409 . S
C1323 H1315 0.930 . S
C1323 C1324 1.355 . S
C1323 C1325 1.415 . S
C1324 C1323 1.355 . S
C1324 C1326 1.419 . S
C1325 C1320 1.425 . S
C1325 C1322 1.409 . S
C1325 C1323 1.415 . S
C1326 H1316 0.930 . S
C1326 C1324 1.419 . S
C1326 C1327 1.362 . S
C1327 H1317 0.930 . S
C1327 C1320 1.409 . S
C1327 C1326 1.362 . S
H1328 C1334 0.930 . S
H1329 C1337 0.930 . S
H1330 C1338 0.930 . S
H1331 C1339 0.930 . S
H1332 C1342 0.930 . S
H1333 C1343 0.930 . S
C1334 H1328 0.930 . S
C1334 C1335 1.355 . S
C1334 C1336 1.415 . S
C1335 C1334 1.355 . S
C1335 C1337 1.419 . S
C1336 C1334 1.415 . S
C1336 C1341 1.425 . S
C1336 C1343 1.409 . S
C1337 H1329 0.930 . S
C1337 C1335 1.419 . S
C1337 C1338 1.362 . S
C1338 H1330 0.930 . S
C1338 C1337 1.362 . S
C1338 C1341 1.409 . S
C1339 H1331 0.930 . S
C1339 C1340 1.355 . S
C1339 C1341 1.415 . S
C1340 C1339 1.355 . S
C1340 C1342 1.419 . S
C1341 C1336 1.425 . S
C1341 C1338 1.409 . S
C1341 C1339 1.415 . S
C1342 H1332 0.930 . S
C1342 C1340 1.419 . S
C1342 C1343 1.362 . S
C1343 H1333 0.930 . S
C1343 C1336 1.409 . S
C1343 C1342 1.362 . S
H1344 C1350 0.930 . S
H1345 C1353 0.930 . S
H1346 C1354 0.930 . S
H1347 C1355 0.930 . S
H1348 C1358 0.930 . S
H1349 C1359 0.930 . S
C1350 H1344 0.930 . S
C1350 C1351 1.355 . S
C1350 C1352 1.415 . S
C1351 C1350 1.355 . S
C1351 C1353 1.419 . S
C1352 C1350 1.415 . S
C1352 C1357 1.425 . S
C1352 C1359 1.409 . S
C1353 H1345 0.930 . S
C1353 C1351 1.419 . S
C1353 C1354 1.362 . S
C1354 H1346 0.930 . S
C1354 C1353 1.362 . S
C1354 C1357 1.409 . S
C1355 H1347 0.930 . S
C1355 C1356 1.355 . S
C1355 C1357 1.415 . S
C1356 C1355 1.355 . S
C1356 C1358 1.419 . S
C1357 C1352 1.425 . S
C1357 C1354 1.409 . S
C1357 C1355 1.415 . S
C1358 H1348 0.930 . S
C1358 C1356 1.419 . S
C1358 C1359 1.362 . S
C1359 H1349 0.930 . S
C1359 C1352 1.409 . S
C1359 C1358 1.362 . S
H1360 C1366 0.930 . S
H1361 C1369 0.930 . S
H1362 C1370 0.930 . S
H1363 C1371 0.930 . S
H1364 C1374 0.930 . S
H1365 C1375 0.930 . S
C1366 H1360 0.930 . S
C1366 C1367 1.355 . S
C1366 C1368 1.415 . S
C1367 C1366 1.355 . S
C1367 C1369 1.419 . S
C1368 C1366 1.415 . S
C1368 C1373 1.425 . S
C1368 C1375 1.409 . S
C1369 H1361 0.930 . S
C1369 C1367 1.419 . S
C1369 C1370 1.362 . S
C1370 H1362 0.930 . S
C1370 C1369 1.362 . S
C1370 C1373 1.409 . S
C1371 H1363 0.930 . S
C1371 C1372 1.355 . S
C1371 C1373 1.415 . S
C1372 C1371 1.355 . S
C1372 C1374 1.419 . S
C1373 C1368 1.425 . S
C1373 C1370 1.409 . S
C1373 C1371 1.415 . S
C1374 H1364 0.930 . S
C1374 C1372 1.419 . S
C1374 C1375 1.362 . S
C1375 H1365 0.930 . S
C1375 C1368 1.409 . S
C1375 C1374 1.362 . S
H1376 C1382 0.930 . S
H1377 C1385 0.930 . S
H1378 C1386 0.930 . S
H1379 C1387 0.930 . S
H1380 C1390 0.930 . S
H1381 C1391 0.930 . S
C1382 H1376 0.930 . S
C1382 C1383 1.355 . S
C1382 C1384 1.415 . S
C1383 C1382 1.355 . S
C1383 C1385 1.419 . S
C1384 C1382 1.415 . S
C1384 C1389 1.425 . S
C1384 C1391 1.409 . S
C1385 H1377 0.930 . S
C1385 C1383 1.419 . S
C1385 C1386 1.362 . S
C1386 H1378 0.930 . S
C1386 C1385 1.362 . S
C1386 C1389 1.409 . S
C1387 H1379 0.930 . S
C1387 C1388 1.355 . S
C1387 C1389 1.415 . S
C1388 C1387 1.355 . S
C1388 C1390 1.419 . S
C1389 C1384 1.425 . S
C1389 C1386 1.409 . S
C1389 C1387 1.415 . S
C1390 H1380 0.930 . S
C1390 C1388 1.419 . S
C1390 C1391 1.362 . S
C1391 H1381 0.930 . S
C1391 C1384 1.409 . S
C1391 C1390 1.362 . S
H1392 C1398 0.930 . S
H1393 C1401 0.930 . S
H1394 C1402 0.930 . S
H1395 C1403 0.930 . S
H1396 C1406 0.930 . S
H1397 C1407 0.930 . S
C1398 H1392 0.930 . S
C1398 C1399 1.355 . S
C1398 C1400 1.415 . S
C1399 C1398 1.355 . S
C1399 C1401 1.419 . S
C1400 C1398 1.415 . S
C1400 C1405 1.425 . S
C1400 C1407 1.409 . S
C1401 H1393 0.930 . S
C1401 C1399 1.419 . S
C1401 C1402 1.362 . S
C1402 H1394 0.930 . S
C1402 C1401 1.362 . S
C1402 C1405 1.409 . S
C1403 H1395 0.930 . S
C1403 C1404 1.355 . S
C1403 C1405 1.415 . S
C1404 C1403 1.355 . S
C1404 C1406 1.419 . S
C1405 C1400 1.425 . S
C1405 C1402 1.409 . S
C1405 C1403 1.415 . S
C1406 H1396 0.930 . S
C1406 C1404 1.419 . S
C1406 C1407 1.362 . S
C1407 H1397 0.930 . S
C1407 C1400 1.409 . S
C1407 C1406 1.362 . S
H1408 C1414 0.930 . S
H1409 C1417 0.930 . S
H1410 C1418 0.930 . S
H1411 C1419 0.930 . S
H1412 C1422 0.930 . S
H1413 C1423 0.930 . S
C1414 H1408 0.930 . S
C1414 C1415 1.355 . S
C1414 C1416 1.415 . S
C1415 C1414 1.355 . S
C1415 C1417 1.419 . S
C1416 C1414 1.415 . S
C1416 C1421 1.425 . S
C1416 C1423 1.409 . S
C1417 H1409 0.930 . S
C1417 C1415 1.419 . S
C1417 C1418 1.362 . S
C1418 H1410 0.930 . S
C1418 C1417 1.362 . S
C1418 C1421 1.409 . S
C1419 H1411 0.930 . S
C1419 C1420 1.355 . S
C1419 C1421 1.415 . S
C1420 C1419 1.355 . S
C1420 C1422 1.419 . S
C1421 C1416 1.425 . S
C1421 C1418 1.409 . S
C1421 C1419 1.415 . S
C1422 H1412 0.930 . S
C1422 C1420 1.419 . S
C1422 C1423 1.362 . S
C1423 H1413 0.930 . S
C1423 C1416 1.409 . S
C1423 C1422 1.362 . S
H1424 C1430 0.930 . S
H1425 C1433 0.930 . S
H1426 C1434 0.930 . S
H1427 C1435 0.930 . S
H1428 C1438 0.930 . S
H1429 C1439 0.930 . S
C1430 H1424 0.930 . S
C1430 C1431 1.355 . S
C1430 C1432 1.415 . S
C1431 C1430 1.355 . S
C1431 C1433 1.419 . S
C1432 C1430 1.415 . S
C1432 C1437 1.425 . S
C1432 C1439 1.409 . S
C1433 H1425 0.930 . S
C1433 C1431 1.419 . S
C1433 C1434 1.362 . S
C1434 H1426 0.930 . S
C1434 C1433 1.362 . S
C1434 C1437 1.409 . S
C1435 H1427 0.930 . S
C1435 C1436 1.355 . S
C1435 C1437 1.415 . S
C1436 C1435 1.355 . S
C1436 C1438 1.419 . S
C1437 C1432 1.425 . S
C1437 C1434 1.409 . S
C1437 C1435 1.415 . S
C1438 H1428 0.930 . S
C1438 C1436 1.419 . S
C1438 C1439 1.362 . S
C1439 H1429 0.930 . S
C1439 C1432 1.409 . S
C1439 C1438 1.362 . S
H1440 C1446 0.930 . S
H1441 C1449 0.930 . S
H1442 C1450 0.930 . S
H1443 C1451 0.930 . S
H1444 C1454 0.930 . S
H1445 C1455 0.930 . S
C1446 H1440 0.930 . S
C1446 C1447 1.355 . S
C1446 C1448 1.415 . S
C1447 C1446 1.355 . S
C1447 C1449 1.419 . S
C1448 C1446 1.415 . S
C1448 C1453 1.425 . S
C1448 C1455 1.409 . S
C1449 H1441 0.930 . S
C1449 C1447 1.419 . S
C1449 C1450 1.362 . S
C1450 H1442 0.930 . S
C1450 C1449 1.362 . S
C1450 C1453 1.409 . S
C1451 H1443 0.930 . S
C1451 C1452 1.355 . S
C1451 C1453 1.415 . S
C1452 C1451 1.355 . S
C1452 C1454 1.419 . S
C1453 C1448 1.425 . S
C1453 C1450 1.409 . S
C1453 C1451 1.415 . S
C1454 H1444 0.930 . S
C1454 C1452 1.419 . S
C1454 C1455 1.362 . S
C1455 H1445 0.930 . S
C1455 C1448 1.409 . S
C1455 C1454 1.362 . S
H1456 C1462 0.930 . S
H1457 C1465 0.930 . S
H1458 C1466 0.930 . S
H1459 C1467 0.930 . S
H1460 C1470 0.930 . S
H1461 C1471 0.930 . S
C1462 H1456 0.930 . S
C1462 C1463 1.355 . S
C1462 C1464 1.415 . S
C1463 C1462 1.355 . S
C1463 C1465 1.419 . S
C1464 C1462 1.415 . S
C1464 C1469 1.425 . S
C1464 C1471 1.409 . S
C1465 H1457 0.930 . S
C1465 C1463 1.419 . S
C1465 C1466 1.362 . S
C1466 H1458 0.930 . S
C1466 C1465 1.362 . S
C1466 C1469 1.409 . S
C1467 H1459 0.930 . S
C1467 C1468 1.355 . S
C1467 C1469 1.415 . S
C1468 C1467 1.355 . S
C1468 C1470 1.419 . S
C1469 C1464 1.425 . S
C1469 C1466 1.409 . S
C1469 C1467 1.415 . S
C1470 H1460 0.930 . S
C1470 C1468 1.419 . S
C1470 C1471 1.362 . S
C1471 H1461 0.930 . S
C1471 C1464 1.409 . S
C1471 C1470 1.362 . S
H1472 C1478 0.930 . S
H1473 C1481 0.930 . S
H1474 C1482 0.930 . S
H1475 C1483 0.930 . S
H1476 C1486 0.930 . S
H1477 C1487 0.930 . S
C1478 H1472 0.930 . S
C1478 C1479 1.355 . S
C1478 C1480 1.415 . S
C1479 C1478 1.355 . S
C1479 C1481 1.419 . S
C1480 C1478 1.415 . S
C1480 C1485 1.425 . S
C1480 C1487 1.409 . S
C1481 H1473 0.930 . S
C1481 C1479 1.419 . S
C1481 C1482 1.362 . S
C1482 H1474 0.930 . S
C1482 C1481 1.362 . S
C1482 C1485 1.409 . S
C1483 H1475 0.930 . S
C1483 C1484 1.355 . S
C1483 C1485 1.415 . S
C1484 C1483 1.355 . S
C1484 C1486 1.419 . S
C1485 C1480 1.425 . S
C1485 C1482 1.409 . S
C1485 C1483 1.415 . S
C1486 H1476 0.930 . S
C1486 C1484 1.419 . S
C1486 C1487 1.362 . S
C1487 H1477 0.930 . S
C1487 C1480 1.409 . S
C1487 C1486 1.362 . S
H1488 C1494 0.930 . S
H1489 C1497 0.930 . S
H1490 C1498 0.930 . S
H1491 C1499 0.930 . S
H1492 C1502 0.930 . S
H1493 C1503 0.930 . S
C1494 H1488 0.930 . S
C1494 C1495 1.355 . S
C1494 C1496 1.415 . S
C1495 C1494 1.355 . S
C1495 C1497 1.419 . S
C1496 C1494 1.415 . S
C1496 C1501 1.425 . S
C1496 C1503 1.409 . S
C1497 H1489 0.930 . S
C1497 C1495 1.419 . S
C1497 C1498 1.362 . S
C1498 H1490 0.930 . S
C1498 C1497 1.362 . S
C1498 C1501 1.409 . S
C1499 H1491 0.930 . S
C1499 C1500 1.355 . S
C1499 C1501 1.415 . S
C1500 C1499 1.355 . S
C1500 C1502 1.419 . S
C1501 C1496 1.425 . S
C1501 C1498 1.409 . S
C1501 C1499 1.415 . S
C1502 H1492 0.930 . S
C1502 C1500 1.419 . S
C1502 C1503 1.362 . S
C1503 H1493 0.930 . S
C1503 C1496 1.409 . S
C1503 C1502 1.362 . S
H1504 C1510 0.930 . S
H1505 C1513 0.930 . S
H1506 C1514 0.930 . S
H1507 C1515 0.930 . S
H1508 C1518 0.930 . S
H1509 C1519 0.930 . S
C1510 H1504 0.930 . S
C1510 C1511 1.355 . S
C1510 C1512 1.415 . S
C1511 C1510 1.355 . S
C1511 C1513 1.419 . S
C1512 C1510 1.415 . S
C1512 C1517 1.425 . S
C1512 C1519 1.409 . S
C1513 H1505 0.930 . S
C1513 C1511 1.419 . S
C1513 C1514 1.362 . S
C1514 H1506 0.930 . S
C1514 C1513 1.362 . S
C1514 C1517 1.409 . S
C1515 H1507 0.930 . S
C1515 C1516 1.355 . S
C1515 C1517 1.415 . S
C1516 C1515 1.355 . S
C1516 C1518 1.419 . S
C1517 C1512 1.425 . S
C1517 C1514 1.409 . S
C1517 C1515 1.415 . S
C1518 H1508 0.930 . S
C1518 C1516 1.419 . S
C1518 C1519 1.362 . S
C1519 H1509 0.930 . S
C1519 C1512 1.409 . S
C1519 C1518 1.362 . S
H1520 C1526 0.930 . S
H1521 C1529 0.930 . S
H1522 C1530 0.930 . S
H1523 C1531 0.930 . S
H1524 C1534 0.930 . S
H1525 C1535 0.930 . S
C1526 H1520 0.930 . S
C1526 C1527 1.355 . S
C1526 C1528 1.415 . S
C1527 C1526 1.355 . S
C1527 C1529 1.419 . S
C1528 C1526 1.415 . S
C1528 C1533 1.425 . S
C1528 C1535 1.409 . S
C1529 H1521 0.930 . S
C1529 C1527 1.419 . S
C1529 C1530 1.362 . S
C1530 H1522 0.930 . S
C1530 C1529 1.362 . S
C1530 C1533 1.409 . S
C1531 H1523 0.930 . S
C1531 C1532 1.355 . S
C1531 C1533 1.415 . S
C1532 C1531 1.355 . S
C1532 C1534 1.419 . S
C1533 C1528 1.425 . S
C1533 C1530 1.409 . S
C1533 C1531 1.415 . S
C1534 H1524 0.930 . S
C1534 C1532 1.419 . S
C1534 C1535 1.362 . S
C1535 H1525 0.930 . S
C1535 C1528 1.409 . S
C1535 C1534 1.362 . S
H1536 C1542 0.930 . S
H1537 C1545 0.930 . S
H1538 C1546 0.930 . S
H1539 C1547 0.930 . S
H1540 C1550 0.930 . S
H1541 C1551 0.930 . S
C1542 H1536 0.930 . S
C1542 C1543 1.355 . S
C1542 C1544 1.415 . S
C1543 C1542 1.355 . S
C1543 C1545 1.419 . S
C1544 C1542 1.415 . S
C1544 C1549 1.425 . S
C1544 C1551 1.409 . S
C1545 H1537 0.930 . S
C1545 C1543 1.419 . S
C1545 C1546 1.362 . S
C1546 H1538 0.930 . S
C1546 C1545 1.362 . S
C1546 C1549 1.409 . S
C1547 H1539 0.930 . S
C1547 C1548 1.355 . S
C1547 C1549 1.415 . S
C1548 C1547 1.355 . S
C1548 C1550 1.419 . S
C1549 C1544 1.425 . S
C1549 C1546 1.409 . S
C1549 C1547 1.415 . S
C1550 H1540 0.930 . S
C1550 C1548 1.419 . S
C1550 C1551 1.362 . S
C1551 H1541 0.930 . S
C1551 C1544 1.409 . S
C1551 C1550 1.362 . S
H1552 C1558 0.930 . S
H1553 C1561 0.930 . S
H1554 C1562 0.930 . S
H1555 C1563 0.930 . S
H1556 C1566 0.930 . S
H1557 C1567 0.930 . S
C1558 H1552 0.930 . S
C1558 C1559 1.355 . S
C1558 C1560 1.415 . S
C1559 C1558 1.355 . S
C1559 C1561 1.419 . S
C1560 C1558 1.415 . S
C1560 C1565 1.425 . S
C1560 C1567 1.409 . S
C1561 H1553 0.930 . S
C1561 C1559 1.419 . S
C1561 C1562 1.362 . S
C1562 H1554 0.930 . S
C1562 C1561 1.362 . S
C1562 C1565 1.409 . S
C1563 H1555 0.930 . S
C1563 C1564 1.355 . S
C1563 C1565 1.415 . S
C1564 C1563 1.355 . S
C1564 C1566 1.419 . S
C1565 C1560 1.425 . S
C1565 C1562 1.409 . S
C1565 C1563 1.415 . S
C1566 H1556 0.930 . S
C1566 C1564 1.419 . S
C1566 C1567 1.362 . S
C1567 H1557 0.930 . S
C1567 C1560 1.409 . S
C1567 C1566 1.362 . S
H1568 C1574 0.930 . S
H1569 C1577 0.930 . S
H1570 C1578 0.930 . S
H1571 C1579 0.930 . S
H1572 C1582 0.930 . S
H1573 C1583 0.930 . S
C1574 H1568 0.930 . S
C1574 C1575 1.355 . S
C1574 C1576 1.415 . S
C1575 C1574 1.355 . S
C1575 C1577 1.419 . S
C1576 C1574 1.415 . S
C1576 C1581 1.425 . S
C1576 C1583 1.409 . S
C1577 H1569 0.930 . S
C1577 C1575 1.419 . S
C1577 C1578 1.362 . S
C1578 H1570 0.930 . S
C1578 C1577 1.362 . S
C1578 C1581 1.409 . S
C1579 H1571 0.930 . S
C1579 C1580 1.355 . S
C1579 C1581 1.415 . S
C1580 C1579 1.355 . S
C1580 C1582 1.419 . S
C1581 C1576 1.425 . S
C1581 C1578 1.409 . S
C1581 C1579 1.415 . S
C1582 H1572 0.930 . S
C1582 C1580 1.419 . S
C1582 C1583 1.362 . S
C1583 H1573 0.930 . S
C1583 C1576 1.409 . S
C1583 C1582 1.362 . S
H1584 C1590 0.930 . S
H1585 C1593 0.930 . S
H1586 C1594 0.930 . S
H1587 C1595 0.930 . S
H1588 C1598 0.930 . S
H1589 C1599 0.930 . S
C1590 H1584 0.930 . S
C1590 C1591 1.355 . S
C1590 C1592 1.415 . S
C1591 C1590 1.355 . S
C1591 C1593 1.419 . S
C1592 C1590 1.415 . S
C1592 C1597 1.425 . S
C1592 C1599 1.409 . S
C1593 H1585 0.930 . S
C1593 C1591 1.419 . S
C1593 C1594 1.362 . S
C1594 H1586 0.930 . S
C1594 C1593 1.362 . S
C1594 C1597 1.409 . S
C1595 H1587 0.930 . S
C1595 C1596 1.355 . S
C1595 C1597 1.415 . S
C1596 C1595 1.355 . S
C1596 C1598 1.419 . S
C1597 C1592 1.425 . S
C1597 C1594 1.409 . S
C1597 C1595 1.415 . S
C1598 H1588 0.930 . S
C1598 C1596 1.419 . S
C1598 C1599 1.362 . S
C1599 H1589 0.930 . S
C1599 C1592 1.409 . S
C1599 C1598 1.362 . S
H1600 C1606 0.930 . S
H1601 C1609 0.930 . S
H1602 C1610 0.930 . S
H1603 C1611 0.930 . S
H1604 C1614 0.930 . S
H1605 C1615 0.930 . S
C1606 H1600 0.930 . S
C1606 C1607 1.355 . S
C1606 C1608 1.415 . S
C1607 C1606 1.355 . S
C1607 C1609 1.419 . S
C1608 C1606 1.415 . S
C1608 C1613 1.425 . S
C1608 C1615 1.409 . S
C1609 H1601 0.930 . S
C1609 C1607 1.419 . S
C1609 C1610 1.362 . S
C1610 H1602 0.930 . S
C1610 C1609 1.362 . S
C1610 C1613 1.409 . S
C1611 H1603 0.930 . S
C1611 C1612 1.355 . S
C1611 C1613 1.415 . S
C1612 C1611 1.355 . S
C1612 C1614 1.419 . S
C1613 C1608 1.425 . S
C1613 C1610 1.409 . S
C1613 C1611 1.415 . S
C1614 H1604 0.930 . S
C1614 C1612 1.419 . S
C1614 C1615 1.362 . S
C1615 H1605 0.930 . S
C1615 C1608 1.409 . S
C1615 C1614 1.362 . S
H1616 C1622 0.930 . S
H1617 C1625 0.930 . S
H1618 C1626 0.930 . S
H1619 C1627 0.930 . S
H1620 C1630 0.930 . S
H1621 C1631 0.930 . S
C1622 H1616 0.930 . S
C1622 C1623 1.355 . S
C1622 C1624 1.415 . S
C1623 C1622 1.355 . S
C1623 C1625 1.419 . S
C1624 C1622 1.415 . S
C1624 C1629 1.425 . S
C1624 C1631 1.409 . S
C1625 H1617 0.930 . S
C1625 C1623 1.419 . S
C1625 C1626 1.362 . S
C1626 H1618 0.930 . S
C1626 C1625 1.362 . S
C1626 C1629 1.409 . S
C1627 H1619 0.930 . S
C1627 C1628 1.355 . S
C1627 C1629 1.415 . S
C1628 C1627 1.355 . S
C1628 C1630 1.419 . S
C1629 C1624 1.425 . S
C1629 C1626 1.409 . S
C1629 C1627 1.415 . S
C1630 H1620 0.930 . S
C1630 C1628 1.419 . S
C1630 C1631 1.362 . S
C1631 H1621 0.930 . S
C1631 C1624 1.409 . S
C1631 C1630 1.362 . S
H1632 C1638 0.930 . S
H1633 C1641 0.930 . S
H1634 C1642 0.930 . S
H1635 C1643 0.930 . S
H1636 C1646 0.930 . S
H1637 C1647 0.930 . S
C1638 H1632 0.930 . S
C1638 C1639 1.355 . S
C1638 C1640 1.415 . S
C1639 C1638 1.355 . S
C1639 C1641 1.419 . S
C1640 C1638 1.415 . S
C1640 C1645 1.425 . S
C1640 C1647 1.409 . S
C1641 H1633 0.930 . S
C1641 C1639 1.419 . S
C1641 C1642 1.362 . S
C1642 H1634 0.930 . S
C1642 C1641 1.362 . S
C1642 C1645 1.409 . S
C1643 H1635 0.930 . S
C1643 C1644 1.355 . S
C1643 C1645 1.415 . S
C1644 C1643 1.355 . S
C1644 C1646 1.419 . S
C1645 C1640 1.425 . S
C1645 C1642 1.409 . S
C1645 C1643 1.415 . S
C1646 H1636 0.930 . S
C1646 C1644 1.419 . S
C1646 C1647 1.362 . S
C1647 H1637 0.930 . S
C1647 C1640 1.409 . S
C1647 C1646 1.362 . S
H1648 C1654 0.930 . S
H1649 C1657 0.930 . S
H1650 C1658 0.930 . S
H1651 C1659 0.930 . S
H1652 C1662 0.930 . S
H1653 C1663 0.930 . S
C1654 H1648 0.930 . S
C1654 C1655 1.355 . S
C1654 C1656 1.415 . S
C1655 C1654 1.355 . S
C1655 C1657 1.419 . S
C1656 C1654 1.415 . S
C1656 C1661 1.425 . S
C1656 C1663 1.409 . S
C1657 H1649 0.930 . S
C1657 C1655 1.419 . S
C1657 C1658 1.362 . S
C1658 H1650 0.930 . S
C1658 C1657 1.362 . S
C1658 C1661 1.409 . S
C1659 H1651 0.930 . S
C1659 C1660 1.355 . S
C1659 C1661 1.415 . S
C1660 C1659 1.355 . S
C1660 C1662 1.419 . S
C1661 C1656 1.425 . S
C1661 C1658 1.409 . S
C1661 C1659 1.415 . S
C1662 H1652 0.930 . S
C1662 C1660 1.419 . S
C1662 C1663 1.362 . S
C1663 H1653 0.930 . S
C1663 C1656 1.409 . S
C1663 C1662 1.362 . S
H1664 C1670 0.930 . S
H1665 C1673 0.930 . S
H1666 C1674 0.930 . S
H1667 C1675 0.930 . S
H1668 C1678 0.930 . S
H1669 C1679 0.930 . S
C1670 H1664 0.930 . S
C1670 C1671 1.355 . S
C1670 C1672 1.415 . S
C1671 C1670 1.355 . S
C1671 C1673 1.419 . S
C1672 C1670 1.415 . S
C1672 C1677 1.425 . S
C1672 C1679 1.409 . S
C1673 H1665 0.930 . S
C1673 C1671 1.419 . S
C1673 C1674 1.362 . S
C1674 H1666 0.930 . S
C1674 C1673 1.362 . S
C1674 C1677 1.409 . S
C1675 H1667 0.930 . S
C1675 C1676 1.355 . S
C1675 C1677 1.415 . S
C1676 C1675 1.355 . S
C1676 C1678 1.419 . S
C1677 C1672 1.425 . S
C1677 C1674 1.409 . S
C1677 C1675 1.415 . S
C1678 H1668 0.930 . S
C1678 C1676 1.419 . S
C1678 C1679 1.362 . S
C1679 H1669 0.930 . S
C1679 C1672 1.409 . S
C1679 C1678 1.362 . S
C535 C21 1.553 . S
C540 C406 1.486 . S
C551 C436 1.499 . S
C556 C43 1.539 . S
C567 C370 1.547 . S
C572 C51 1.508 . S
C583 C87 1.529 . S
C588 C392 1.530 . S
C599 C502 1.516 . S
C604 C95 1.524 . S
C615 C472 1.495 . S
C620 C125 1.554 . S
C631 C516 1.518 . S
C636 C139 1.523 . S
C647 C448 1.513 . S
C652 C161 1.527 . S
C663 C183 1.539 . S
C668 C296 1.499 . S
C679 C205 1.507 . S
C684 C348 1.547 . S
C695 C235 1.545 . S
C700 C318 1.493 . S
C711 C282 1.486 . S
C716 C249 1.556 . S
C727 C142 1.531 . S
C732 C279 1.505 . S
C743 C307 1.551 . S
C748 C164 1.483 . S
C759 C98 1.537 . S
C764 C329 1.503 . S
C775 C118 1.492 . S
C780 C345 1.535 . S
C791 C367 1.554 . S
C796 C228 1.484 . S
C807 C208 1.498 . S
C812 C389 1.529 . S
C823 C252 1.490 . S
C828 C417 1.538 . S
C839 C433 1.533 . S
C844 C186 1.494 . S
C855 C447 1.517 . S
C860 C40 1.511 . S
C871 C483 1.555 . S
C876 C84 1.486 . S
C887 C499 1.534 . S
C892 C54 1.527 . S
C903 C18 1.528 . S
C908 C527 1.507 . S
C919 C428 1.236 1_554 S
C924 C10 1.199 . S
C935 C404 1.214 . S
C940 C32 1.232 . S
C951 C384 1.203 1_556 S
C956 C52 1.235 . S
C967 C362 1.182 . S
C972 C76 1.190 . S
C983 C96 1.199 . S
C988 C514 1.236 1_455 S
C999 C128 1.233 . S
C1004 C458 1.213 . S
C1015 C494 1.190 . S
C1020 C140 1.231 . S
C1031 C470 1.181 1_655 S
C1036 C162 1.194 . S
C1047 C316 1.191 1_545 S
C1052 C184 1.178 . S
C1063 C206 1.173 . S
C1068 C274 1.223 . S
C1079 C294 1.221 . S
C1084 C238 1.172 . S
C1095 C340 1.217 1_565 S
C1100 C250 1.231 . S
C1111 C272 1.235 . S
C1116 C172 1.193 1_556 S
C1127 C150 1.196 . S
C1132 C304 1.194 . S
C1143 C326 1.229 . S
C1148 C120 1.221 1_554 S
C1159 C338 1.209 . S
C1164 C106 1.235 . S
C1175 C260 1.235 1_655 S
C1180 C360 1.179 . S
C1191 C194 1.187 . S
C1196 C382 1.215 . S
C1207 C414 1.226 . S
C1212 C230 1.224 . S
C1223 C426 1.225 . S
C1228 C216 1.187 1_455 S
C1239 C62 1.200 1_565 S
C1244 C450 1.189 . S
C1255 C8 1.194 . S
C1260 C480 1.236 . S
C1271 C492 1.237 . S
C1276 C30 1.198 . S
C1287 C524 1.188 . S
C1292 C74 1.239 1_545 S
C1303 C7 1.058 . S
C1308 C109 0.980 . S
C1319 C117 1.043 . S
C1324 C29 1.013 . S
C1335 C153 1.058 . S
C1340 C59 0.998 . S
C1351 C175 1.047 . S
C1356 C73 1.005 . S
C1367 C197 1.022 . S
C1372 C103 1.030 . S
C1383 C131 1.052 . S
C1388 C263 0.990 . S
C1399 C147 1.039 . S
C1404 C219 1.002 . S
C1415 C227 0.998 . S
C1420 C169 1.047 . S
C1431 C191 1.031 . S
C1436 C15 1.020 . S
C1447 C213 1.019 . S
C1452 C65 1.036 . S
C1463 C81 0.980 . S
C1468 C241 1.057 . S
C1479 C37 1.060 . S
C1484 C257 0.997 . S
C1495 C271 1.015 . S
C1500 C373 1.046 . S
C1511 C395 1.011 . S
C1516 C301 1.047 . S
C1527 C403 1.061 . S
C1532 C323 0.993 . S
C1543 C439 1.050 . S
C1548 C337 0.997 . S
C1559 C359 0.993 . S
C1564 C455 1.061 . S
C1575 C513 1.047 . S
C1580 C381 0.999 . S
C1591 C411 0.993 . S
C1596 C469 1.057 . S
C1607 C425 0.994 . S
C1612 C505 1.061 . S
C1623 C285 0.991 . S
C1628 C461 1.060 . S
C1639 C315 1.060 . S
C1644 C477 0.992 . S
C1655 C351 1.060 . S
C1660 C491 0.996 . S
C1671 C293 1.030 . S
C1676 C521 1.031 . S
