# Generated by pormake.
# Topology wme, (6)-cn, num edge types: 1
# Building blocks:
#     Node 0, Type 0, BuildingBlock: KUMBOL_clean_sbu_1, # of connection points: 6
#     Node 1, Type 0, BuildingBlock: KUMBOL_clean_sbu_1, # of connection points: 6
#     Node 2, Type 0, BuildingBlock: KUMBOL_clean_sbu_1, # of connection points: 6
#     Node 3, Type 0, BuildingBlock: KUMBOL_clean_sbu_1, # of connection points: 6
#     Node 4, Type 0, BuildingBlock: KUMBOL_clean_sbu_1, # of connection points: 6
#     Node 5, Type 0, BuildingBlock: KUMBOL_clean_sbu_1, # of connection points: 6
#     Node 6, Type 0, BuildingBlock: KUMBOL_clean_sbu_1, # of connection points: 6
#     Node 7, Type 0, BuildingBlock: KUMBOL_clean_sbu_1, # of connection points: 6
#     Node 8, Type 0, BuildingBlock: KUMBOL_clean_sbu_1, # of connection points: 6
#     Node 9, Type 0, BuildingBlock: KUMBOL_clean_sbu_1, # of connection points: 6
#     Node 10, Type 0, BuildingBlock: KUMBOL_clean_sbu_1, # of connection points: 6
#     Node 11, Type 0, BuildingBlock: KUMBOL_clean_sbu_1, # of connection points: 6
#     Edge 12, Type (0, 0), BuildingBlock: AJUNOK_clean_linker_0, # of connection points: 2
#     Edge 13, Type (0, 0), BuildingBlock: AJUNOK_clean_linker_0, # of connection points: 2
#     Edge 14, Type (0, 0), BuildingBlock: AJUNOK_clean_linker_0, # of connection points: 2
#     Edge 15, Type (0, 0), BuildingBlock: AJUNOK_clean_linker_0, # of connection points: 2
#     Edge 16, Type (0, 0), BuildingBlock: AJUNOK_clean_linker_0, # of connection points: 2
#     Edge 17, Type (0, 0), BuildingBlock: AJUNOK_clean_linker_0, # of connection points: 2
#     Edge 18, Type (0, 0), BuildingBlock: AJUNOK_clean_linker_0, # of connection points: 2
#     Edge 19, Type (0, 0), BuildingBlock: AJUNOK_clean_linker_0, # of connection points: 2
#     Edge 20, Type (0, 0), BuildingBlock: AJUNOK_clean_linker_0, # of connection points: 2
#     Edge 21, Type (0, 0), BuildingBlock: AJUNOK_clean_linker_0, # of connection points: 2
#     Edge 22, Type (0, 0), BuildingBlock: AJUNOK_clean_linker_0, # of connection points: 2
#     Edge 23, Type (0, 0), BuildingBlock: AJUNOK_clean_linker_0, # of connection points: 2
#     Edge 24, Type (0, 0), BuildingBlock: AJUNOK_clean_linker_0, # of connection points: 2
#     Edge 25, Type (0, 0), BuildingBlock: AJUNOK_clean_linker_0, # of connection points: 2
#     Edge 26, Type (0, 0), BuildingBlock: AJUNOK_clean_linker_0, # of connection points: 2
#     Edge 27, Type (0, 0), BuildingBlock: AJUNOK_clean_linker_0, # of connection points: 2
#     Edge 28, Type (0, 0), BuildingBlock: AJUNOK_clean_linker_0, # of connection points: 2
#     Edge 29, Type (0, 0), BuildingBlock: AJUNOK_clean_linker_0, # of connection points: 2
#     Edge 30, Type (0, 0), BuildingBlock: AJUNOK_clean_linker_0, # of connection points: 2
#     Edge 31, Type (0, 0), BuildingBlock: AJUNOK_clean_linker_0, # of connection points: 2
#     Edge 32, Type (0, 0), BuildingBlock: AJUNOK_clean_linker_0, # of connection points: 2
#     Edge 33, Type (0, 0), BuildingBlock: AJUNOK_clean_linker_0, # of connection points: 2
#     Edge 34, Type (0, 0), BuildingBlock: AJUNOK_clean_linker_0, # of connection points: 2
#     Edge 35, Type (0, 0), BuildingBlock: AJUNOK_clean_linker_0, # of connection points: 2
#     Edge 36, Type (0, 0), BuildingBlock: AJUNOK_clean_linker_0, # of connection points: 2
#     Edge 37, Type (0, 0), BuildingBlock: AJUNOK_clean_linker_0, # of connection points: 2
#     Edge 38, Type (0, 0), BuildingBlock: AJUNOK_clean_linker_0, # of connection points: 2
#     Edge 39, Type (0, 0), BuildingBlock: AJUNOK_clean_linker_0, # of connection points: 2
#     Edge 40, Type (0, 0), BuildingBlock: AJUNOK_clean_linker_0, # of connection points: 2
#     Edge 41, Type (0, 0), BuildingBlock: AJUNOK_clean_linker_0, # of connection points: 2
#     Edge 42, Type (0, 0), BuildingBlock: AJUNOK_clean_linker_0, # of connection points: 2
#     Edge 43, Type (0, 0), BuildingBlock: AJUNOK_clean_linker_0, # of connection points: 2
#     Edge 44, Type (0, 0), BuildingBlock: AJUNOK_clean_linker_0, # of connection points: 2
#     Edge 45, Type (0, 0), BuildingBlock: AJUNOK_clean_linker_0, # of connection points: 2
#     Edge 46, Type (0, 0), BuildingBlock: AJUNOK_clean_linker_0, # of connection points: 2
#     Edge 47, Type (0, 0), BuildingBlock: AJUNOK_clean_linker_0, # of connection points: 2
# Relax obj value: 0.062
# Max RMSD: 0.180
# Mean RMSD: 0.180
data_MOF--net-wme--node1-KUMBOL_clean_sbu_1--edge1-AJUNOK_clean_linker_0
_symmetry_space_group_name_H-M    P1
_symmetry_Int_Tables_number       1
_symmetry_cell_setting            triclinic
loop_
_symmetry_equiv_pos_as_xyz
'x, y, z'
_cell_length_a     31.276161
_cell_length_b     31.213627
_cell_length_c     39.29926
_cell_angle_alpha  90.095489
_cell_angle_beta   90.125061
_cell_angle_gamma 120.07483
loop_
_atom_site_label
_atom_site_type_symbol
_atom_site_fract_x
_atom_site_fract_y
_atom_site_fract_z
_atom_type_partial_charge
C0 C 0.12455 0.36782 0.06218 0.0
C1 C 0.07005 0.37295 0.10398 0.0
C2 C 0.11365 0.37216 0.09603 0.0
C3 C 0.04031 0.37371 0.07767 0.0
C4 C 0.09284 0.36496 0.03597 0.0
C5 C 0.05312 0.37215 0.04388 0.0
N6 N 0.16664 0.36725 0.05486 0.0
C7 C 0.17725 0.35951 0.02258 0.0
C8 C 0.10319 0.35631 0.00276 0.0
C9 C 0.14479 0.35243 0.99615 0.0
Gd10 Gd 0.2664 0.30574 0.13684 0.0
Gd11 Gd 0.22319 0.39507 0.09876 0.0
N12 N 0.14606 0.37678 0.12086 0.0
C13 C 0.05945 0.37666 0.13797 0.0
C14 C 0.13752 0.38457 0.15381 0.0
C15 C 0.09362 0.38291 0.16296 0.0
H16 H 0.1653 0.39625 0.17302 0.0
H17 H 0.08772 0.38984 0.18901 0.0
H18 H 0.33775 0.3036 0.0747 0.0
H19 H 0.21123 0.36031 0.01676 0.0
H20 H 0.42709 0.34095 0.06247 0.0
H21 H 0.02632 0.37738 0.145 0.0
H22 H 1.00828 0.37729 0.08312 0.0
H23 H 0.25549 0.30702 0.22163 0.0
H24 H 0.07977 0.35186 0.98175 0.0
H25 H 0.15276 0.34587 0.97049 0.0
H26 H 0.50525 0.41626 0.1689 0.0
H27 H 0.03217 0.37746 0.02439 0.0
H28 H 0.39986 0.39223 0.26438 0.0
H29 H 0.30888 0.34774 0.27115 0.0
N30 N 0.31423 0.33424 0.18654 0.0
C31 C 0.36381 0.35572 0.18243 0.0
C32 C 0.29456 0.32911 0.21814 0.0
C33 C 0.37624 0.37567 0.24238 0.0
C34 C 0.32502 0.3507 0.24639 0.0
C35 C 0.39627 0.37757 0.21017 0.0
H36 H 0.47304 0.41759 0.22582 0.0
N37 N 0.3493 0.33411 0.12412 0.0
C38 C 0.38191 0.35544 0.15026 0.0
C39 C 0.44945 0.37241 0.11273 0.0
C40 C 0.43301 0.37633 0.14509 0.0
C41 C 0.36454 0.3263 0.09359 0.0
C42 C 0.41495 0.34622 0.08709 0.0
O43 O 0.16662 0.31349 0.09155 0.0
O44 O 0.1841 0.27784 0.13644 0.0
O45 O 0.25522 0.2335 0.11839 0.0
O46 O 0.25222 0.24892 0.17245 0.0
O47 O 0.2402 0.40018 0.15639 0.0
O48 O 0.21361 0.31924 0.16586 0.0
O49 O 0.31836 0.3908 0.14028 0.0
O50 O 0.30198 0.41824 0.09103 0.0
O51 O 0.23325 0.46501 0.11827 0.0
O52 O 0.23287 0.45371 0.06334 0.0
O53 O 0.25294 0.29829 0.08019 0.0
O54 O 0.26899 0.37523 0.0614 0.0
C55 C 0.15461 0.27558 0.11167 0.0
C56 C 0.22391 0.36243 0.17751 0.0
C57 C 0.23548 0.16686 0.16031 0.0
C58 C 0.20866 0.08044 0.14842 0.0
C59 C 0.21522 0.10847 0.20675 0.0
C60 C 0.23069 0.15613 0.19535 0.0
C61 C 0.20407 0.07076 0.18348 0.0
C62 C 0.22458 0.12868 0.13664 0.0
C63 C 0.24725 0.2168 0.14956 0.0
C64 C 0.46574 0.39947 0.17244 0.0
C65 C 0.44741 0.40016 0.20489 0.0
H66 H 0.48848 0.38791 0.10765 0.0
C67 C 0.33166 0.42414 0.11602 0.0
C68 C 0.2682 0.33242 0.05658 0.0
C69 C 0.23651 0.53032 0.08274 0.0
C70 C 0.2061 0.58878 0.09047 0.0
C71 C 0.27051 0.60544 0.04917 0.0
C72 C 0.26891 0.56136 0.05764 0.0
C73 C 0.23938 0.61898 0.0653 0.0
C74 C 0.20492 0.54419 0.09946 0.0
C75 C 0.23283 0.48156 0.08797 0.0
H76 H 0.21172 0.10076 0.23373 0.0
H77 H 0.23827 0.18447 0.21419 0.0
H78 H 0.19202 0.03379 0.19284 0.0
H79 H 0.22757 0.13607 0.10955 0.0
H80 H 0.2955 0.62889 0.02956 0.0
H81 H 0.29267 0.55111 0.04416 0.0
H82 H 0.2408 0.65306 0.05775 0.0
H83 H 0.17852 0.51977 0.11813 0.0
C84 C 0.76184 0.12209 0.55711 0.0
C85 C 0.70601 0.06338 0.59864 0.0
C86 C 0.75037 0.10721 0.59074 0.0
C87 C 0.6727 0.03633 0.5726 0.0
C88 C 0.72923 0.09422 0.53071 0.0
C89 C 0.68364 0.05251 0.53897 0.0
N90 N 0.80377 0.16517 0.55034 0.0
C91 C 0.81681 0.18155 0.51793 0.0
C92 C 0.7428 0.11073 0.49714 0.0
C93 C 0.78745 0.15375 0.49069 0.0
Gd94 Gd 0.97525 0.2554 0.63789 0.0
Gd95 Gd 0.84334 0.21518 0.5968 0.0
N96 N 0.78182 0.13624 0.61567 0.0
C97 C 0.69511 0.04933 0.63263 0.0
C98 C 0.77023 0.12316 0.64899 0.0
C99 C 0.72733 0.07955 0.65789 0.0
H100 H 0.79188 0.14664 0.66923 0.0
H101 H 0.71804 0.07041 0.68435 0.0
H102 H 1.0146 0.34236 0.57612 0.0
H103 H 0.84768 0.21779 0.5134 0.0
H104 H 0.06509 0.43247 0.57093 0.0
H105 H 0.66123 1.01616 0.63969 0.0
H106 H 0.63767 1.00358 0.57829 0.0
H107 H 0.96998 0.22993 0.72048 0.0
H108 H 0.71892 0.09231 0.47585 0.0
H109 H 0.79772 0.16705 0.4649 0.0
H110 H 0.10624 0.48876 0.68634 0.0
H111 H 0.65558 0.03277 0.52008 0.0
H112 H 0.04738 0.36699 0.77484 0.0
H113 H 0.99914 0.27514 0.77466 0.0
N114 N 1.00205 0.29492 0.69032 0.0
C115 C 0.0304 0.34504 0.68954 0.0
C116 C 0.99083 0.26983 0.72031 0.0
C117 C 0.03505 0.34713 0.75092 0.0
C118 C 1.00749 0.29543 0.75102 0.0
C119 C 0.04686 0.37261 0.71994 0.0
H120 H 0.08686 0.44636 0.74164 0.0
N121 N 1.02354 0.34138 0.62945 0.0
C122 C 0.04204 0.36898 0.65825 0.0
C123 C 0.07839 0.44402 0.62488 0.0
C124 C 0.06937 0.42109 0.65673 0.0
C125 C 0.03184 0.36367 0.59843 0.0
C126 C 0.05948 0.41512 0.59561 0.0
O127 O 0.86317 0.15524 0.58983 0.0
O128 O 0.91259 0.17536 0.63668 0.0
O129 O 0.03991 0.25548 0.61651 0.0
O130 O 1.01161 0.22342 0.66594 0.0
O131 O 0.85378 0.23095 0.65529 0.0
O132 O 0.90905 0.20608 0.66809 0.0
O133 O 0.94537 0.31055 0.64131 0.0
O134 O 0.90755 0.29025 0.5907 0.0
O135 O 0.78427 0.22662 0.61712 0.0
O136 O 0.81137 0.24934 0.56612 0.0
O137 O 0.97036 0.23712 0.58253 0.0
O138 O 0.91117 0.25164 0.55888 0.0
C139 C 0.89019 0.1457 0.61066 0.0
C140 C 0.87668 0.21811 0.67809 0.0
C141 C 0.09375 0.24531 0.65481 0.0
C142 C 0.15857 0.22369 0.6585 0.0
C143 C 0.15886 0.28501 0.69691 0.0
C144 C 0.1159 0.27907 0.68166 0.0
C145 C 0.17986 0.25725 0.68566 0.0
C146 C 0.11557 0.21814 0.64287 0.0
C147 C 0.04435 0.23227 0.64263 0.0
C148 C 0.0855 0.44868 0.687 0.0
C149 C 0.07432 0.42452 0.71851 0.0
H150 H 0.09903 0.48397 0.62267 0.0
C151 C 0.92249 0.31971 0.61661 0.0
C152 C 0.95407 0.25149 0.55701 0.0
C153 C 0.7283 0.22976 0.57544 0.0
C154 C 0.63822 0.19454 0.58075 0.0
C155 C 0.68163 0.24182 0.53058 0.0
C156 C 0.72596 0.24859 0.54343 0.0
C157 C 0.63844 0.21577 0.54915 0.0
C158 C 0.68379 0.20237 0.59438 0.0
C159 C 0.77869 0.24433 0.58855 0.0
H160 H 0.17555 0.31065 0.7179 0.0
H161 H 0.09916 0.29965 0.69149 0.0
H162 H 0.21297 0.26212 0.6981 0.0
H163 H 0.09797 0.19123 0.62258 0.0
H164 H 0.6808 0.2573 0.50612 0.0
H165 H 0.75902 0.27002 0.52844 0.0
H166 H 0.60458 0.21167 0.53849 0.0
H167 H 0.6845 0.18732 0.61906 0.0
C168 C 0.68048 0.76818 0.05821 0.0
C169 C 0.68367 0.71075 0.09822 0.0
C170 C 0.68177 0.75417 0.09161 0.0
C171 C 0.68002 0.67986 0.07124 0.0
C172 C 0.68184 0.73986 0.031 0.0
C173 C 0.67722 0.69353 0.03789 0.0
N174 N 0.67697 0.80906 0.05233 0.0
C175 C 0.67859 0.82598 0.0202 0.0
C176 C 0.68694 0.75905 0.99801 0.0
C177 C 0.68593 0.80256 0.99264 0.0
Gd178 Gd 0.73226 0.96663 0.14183 0.0
Gd179 Gd 0.6513 0.83521 0.09889 0.0
N180 N 0.68005 0.7823 0.11745 0.0
C181 C 0.68608 0.69796 0.13183 0.0
C182 C 0.68221 0.76963 0.15041 0.0
C183 C 0.68552 0.72766 0.15795 0.0
H184 H 0.67922 0.78963 0.17131 0.0
H185 H 0.68493 0.71654 0.1839 0.0
H186 H 0.67015 0.98834 0.07782 0.0
H187 H 0.6715 0.8556 0.01553 0.0
H188 H 0.63809 0.04386 0.06708 0.0
H189 H 0.68709 0.66462 0.1379 0.0
H190 H 0.67859 0.64494 0.07588 0.0
H191 H 0.75131 0.97019 0.22567 0.0
H192 H 0.69248 0.742 0.97624 0.0
H193 H 0.6885 0.81669 0.96713 0.0
H194 H 0.63805 0.10971 0.17696 0.0
H195 H 0.6719 0.6677 0.01795 0.0
H196 H 0.69759 0.058 0.27162 0.0
H197 H 0.73651 1.00615 0.27691 0.0
N198 N 0.72034 1.00006 0.19176 0.0
C199 C 0.69987 0.02921 0.18809 0.0
C200 C 0.73337 0.99167 0.22312 0.0
C201 C 0.70396 0.0421 0.24901 0.0
C202 C 0.72555 1.01257 0.25217 0.0
C203 C 0.69096 0.05089 0.21673 0.0
H204 H 0.66167 0.09694 0.23411 0.0
N205 N 0.69122 1.01111 0.12907 0.0
C206 C 0.686 0.0359 0.15579 0.0
C207 C 0.6482 0.06968 0.11888 0.0
C208 C 0.66354 0.0651 0.15146 0.0
C209 C 0.6719 1.01198 0.09802 0.0
C210 C 0.65215 0.04269 0.09205 0.0
O211 O 0.73329 0.86655 0.09266 0.0
O212 O 0.75151 0.90601 0.143 0.0
O213 O 0.79952 0.02851 0.12002 0.0
O214 O 0.79902 1.00431 0.17164 0.0
O215 O 0.64001 0.83853 0.1574 0.0
O216 O 0.71584 0.90165 0.17396 0.0
O217 O 0.64723 0.93215 0.14765 0.0
O218 O 0.62284 0.88766 0.09856 0.0
O219 O 0.58724 0.76542 0.11468 0.0
O220 O 0.59156 0.79245 0.06284 0.0
O221 O 0.746 0.96263 0.08609 0.0
O222 O 0.67269 0.90289 0.06283 0.0
C223 C 0.7653 0.8897 0.11693 0.0
C224 C 0.67235 0.8643 0.18179 0.0
C225 C 0.86747 0.08226 0.157 0.0
C226 C 0.95443 0.14451 0.14951 0.0
C227 C 0.91059 0.14505 0.20032 0.0
C228 C 0.86757 0.1039 0.18838 0.0
C229 C 0.95379 0.1651 0.18113 0.0
C230 C 0.91107 0.10299 0.13736 0.0
C231 C 0.82529 0.03385 0.14735 0.0
C232 C 0.65555 0.08749 0.17984 0.0
C233 C 0.66891 0.08013 0.21239 0.0
H234 H 0.63123 0.0921 0.11448 0.0
C235 C 0.61168 0.90279 0.12624 0.0
C236 C 0.71536 0.94576 0.06042 0.0
C237 C 0.5203 0.71174 0.07604 0.0
C238 C 0.45941 0.62386 0.08371 0.0
C239 C 0.44932 0.67093 0.03832 0.0
C240 C 0.49293 0.7131 0.04815 0.0
C241 C 0.43269 0.62666 0.05587 0.0
C242 C 0.50325 0.66678 0.09408 0.0
C243 C 0.5679 0.75658 0.08435 0.0
H244 H 0.91071 0.1611 0.22476 0.0
H245 H 0.83483 0.08807 0.20416 0.0
H246 H 0.98697 0.1968 0.19102 0.0
H247 H 0.9117 0.08605 0.11339 0.0
H248 H 0.42856 0.67242 0.01674 0.0
H249 H 0.50536 0.74688 0.03378 0.0
H250 H 0.39901 0.59416 0.04745 0.0
H251 H 0.52454 0.66479 0.1152 0.0
C252 C 0.92931 0.66982 0.56593 0.0
C253 C 0.97799 0.65509 0.60764 0.0
C254 C 0.93452 0.6555 0.59854 0.0
C255 C 1.01486 0.66725 0.58331 0.0
C256 C 0.96847 0.68725 0.54282 0.0
C257 C 1.00947 0.68198 0.55081 0.0
N258 N 0.88655 0.66849 0.55729 0.0
C259 C 0.88079 0.68488 0.5264 0.0
C260 C 0.96469 0.70951 0.5128 0.0
C261 C 0.92053 0.70749 0.50423 0.0
Gd262 Gd 0.78449 0.72619 0.63832 0.0
Gd263 Gd 0.82451 0.63408 0.59764 0.0
N264 N 0.89712 0.64174 0.62119 0.0
C265 C 0.98225 0.6404 0.64045 0.0
C266 C 0.90011 0.62467 0.65263 0.0
C267 C 0.94307 0.62513 0.66305 0.0
H268 H 0.86903 0.60842 0.66945 0.0
H269 H 0.94533 0.61224 0.68819 0.0
H270 H 0.71516 0.72886 0.57459 0.0
H271 H 0.84629 0.68205 0.51913 0.0
H272 H 0.62638 0.69231 0.56064 0.0
H273 H 1.01518 0.63981 0.64833 0.0
H274 H 0.0473 0.66453 0.58914 0.0
H275 H 0.79331 0.72086 0.72279 0.0
H276 H 0.99571 0.7306 0.4966 0.0
H277 H 0.91724 0.72355 0.48066 0.0
H278 H 0.54507 0.61863 0.6661 0.0
H279 H 0.03621 0.68641 0.53197 0.0
H280 H 0.64738 0.63906 0.76318 0.0
H281 H 0.73808 0.6805 0.7713 0.0
N282 N 0.7353 0.69677 0.68691 0.0
C283 C 0.68592 0.67648 0.68198 0.0
C284 C 0.75413 0.7003 0.7187 0.0
C285 C 0.67167 0.65553 0.7416 0.0
C286 C 0.72274 0.67881 0.74637 0.0
C287 C 0.65265 0.65485 0.70914 0.0
H288 H 0.57549 0.61628 0.72355 0.0
N289 N 0.70209 0.69811 0.62381 0.0
C290 C 0.66878 0.67732 0.64946 0.0
C291 C 0.60246 0.66127 0.6107 0.0
C292 C 0.61791 0.65725 0.64343 0.0
C293 C 0.68782 0.70612 0.59293 0.0
C294 C 0.6377 0.68681 0.58552 0.0
O295 O 0.88443 0.71519 0.59613 0.0
O296 O 0.86665 0.75401 0.63955 0.0
O297 O 0.79278 0.79758 0.62064 0.0
O298 O 0.79921 0.78323 0.67437 0.0
O299 O 0.80859 0.62948 0.65543 0.0
O300 O 0.83495 0.71026 0.66883 0.0
O301 O 0.7316 0.64107 0.64047 0.0
O302 O 0.74821 0.61932 0.58956 0.0
O303 O 0.8032 0.55844 0.61328 0.0
O304 O 0.81262 0.57814 0.55973 0.0
O305 O 0.80361 0.73681 0.58238 0.0
O306 O 0.78243 0.65981 0.56081 0.0
C307 C 0.8968 0.75267 0.61682 0.0
C308 C 0.82647 0.66633 0.67769 0.0
C309 C 0.80955 0.8634 0.66292 0.0
C310 C 0.83887 0.95137 0.65379 0.0
C311 C 0.81595 0.91622 0.71048 0.0
C312 C 0.80424 0.87008 0.69775 0.0
C313 C 0.83321 0.95653 0.68878 0.0
C314 C 0.82639 0.90428 0.64062 0.0
C315 C 0.80106 0.81442 0.65182 0.0
C316 C 0.58441 0.63469 0.67029 0.0
C317 C 0.60173 0.63342 0.70304 0.0
H318 H 0.56365 0.64639 0.60496 0.0
C319 C 0.71841 0.60968 0.61488 0.0
C320 C 0.78613 0.70425 0.55759 0.0
C321 C 0.81187 0.50235 0.57397 0.0
C322 C 0.84637 0.4468 0.58211 0.0
C323 C 0.7871 0.43145 0.53672 0.0
C324 C 0.78468 0.47302 0.54618 0.0
C325 C 0.81725 0.41836 0.55446 0.0
C326 C 0.84311 0.48912 0.59243 0.0
C327 C 0.80242 0.5437 0.58217 0.0
H328 H 0.81205 0.92086 0.73739 0.0
H329 H 0.79154 0.83959 0.71549 0.0
H330 H 0.84219 0.99216 0.69942 0.0
H331 H 0.83137 0.9 0.6138 0.0
H332 H 0.76528 0.40907 0.51542 0.0
H333 H 0.76046 0.48189 0.53186 0.0
H334 H 0.81801 0.38555 0.5463 0.0
H335 H 0.86469 0.5114 0.61385 0.0
C336 C 0.27353 0.91235 0.06048 0.0
C337 C 0.33743 0.96481 0.10119 0.0
C338 C 0.2946 0.91974 0.09281 0.0
C339 C 0.36055 1.00092 0.07615 0.0
C340 C 0.29358 0.95082 0.03661 0.0
C341 C 0.33917 0.99358 0.04389 0.0
N342 N 0.23112 0.86915 0.05345 0.0
C343 C 0.20799 0.86168 0.02274 0.0
C344 C 0.26594 0.94527 0.00703 0.0
C345 C 0.22401 0.90025 0.99961 0.0
Gd346 Gd 0.06995 0.77524 0.13353 0.0
Gd347 Gd 0.20379 0.81044 0.09672 0.0
N348 N 0.27065 0.88457 0.11687 0.0
C349 C 0.35524 0.97261 0.13462 0.0
C350 C 0.28895 0.8912 0.14926 0.0
C351 C 0.33078 0.93562 0.15879 0.0
H352 H 0.27256 0.86206 0.16776 0.0
H353 H 0.34464 0.94093 0.18462 0.0
H354 H 1.00004 0.70058 0.07018 0.0
H355 H 0.17671 0.8267 0.01583 0.0
H356 H 0.94826 0.61059 0.05965 0.0
H357 H 0.38774 1.00701 0.14203 0.0
H358 H 0.39461 0.03501 0.08158 0.0
H359 H 0.07938 0.79192 0.21783 0.0
H360 H 0.27428 0.9754 0.99023 0.0
H361 H 0.20369 0.89546 0.97622 0.0
H362 H 0.93924 0.53838 0.16934 0.0
H363 H 0.35932 0.02129 0.02505 0.0
H364 H 1.01291 0.6491 0.26422 0.0
H365 H 0.05816 0.74088 0.26926 0.0
N366 N 0.04773 0.73079 0.18413 0.0
C367 C 1.01916 0.6809 0.18071 0.0
C368 C 0.06058 0.75235 0.21539 0.0
C369 C 1.02208 0.67164 0.24153 0.0
C370 C 0.0481 0.72324 0.24457 0.0
C371 C 1.0066 0.64982 0.2093 0.0
H372 H 0.96912 0.57367 0.22641 0.0
N373 N 1.01523 0.69207 0.12128 0.0
C374 C 1.0024 0.66096 0.14838 0.0
C375 C 0.95413 0.59115 0.11142 0.0
C376 C 0.97254 0.60947 0.14401 0.0
C377 C 0.99448 0.675 0.09019 0.0
C378 C 0.96419 0.62418 0.08456 0.0
O379 O 0.19477 0.87716 0.10454 0.0
O380 O 0.11269 0.85322 0.11356 0.0
O381 O 1.00032 0.76999 0.11841 0.0
O382 O 0.03807 0.80861 0.16508 0.0
O383 O 0.19004 0.79799 0.15471 0.0
O384 O 0.13682 0.82727 0.16332 0.0
O385 O 0.10221 0.72282 0.14057 0.0
O386 O 0.13923 0.73524 0.08991 0.0
O387 O 0.25976 0.79248 0.11497 0.0
O388 O 0.24364 0.79018 0.0616 0.0
O389 O 0.07978 0.7912 0.07765 0.0
O390 O 0.13616 0.76937 0.05893 0.0
C391 C 0.15862 0.88686 0.10692 0.0
C392 C 0.1713 0.81886 0.17463 0.0
C393 C 0.95546 0.79102 0.15778 0.0
C394 C 0.89333 0.81626 0.15686 0.0
C395 C 0.8958 0.76601 0.20328 0.0
C396 C 0.93623 0.76595 0.18844 0.0
C397 C 0.87468 0.79124 0.18778 0.0
C398 C 0.93362 0.81564 0.14173 0.0
C399 C 1.00154 0.79715 0.14406 0.0
C400 C 0.96154 0.57817 0.17228 0.0
C401 C 0.97855 0.59828 0.20481 0.0
H402 H 0.93085 0.55177 0.10696 0.0
C403 C 0.11961 0.7072 0.11602 0.0
C404 C 0.09582 0.77334 0.05409 0.0
C405 C 0.32817 0.82018 0.07544 0.0
C406 C 0.41735 0.85733 0.08827 0.0
C407 C 0.39001 0.86267 0.03131 0.0
C408 C 0.34097 0.83696 0.04167 0.0
C409 C 0.42774 0.87274 0.05427 0.0
C410 C 0.36707 0.83038 0.09891 0.0
C411 C 0.27418 0.79037 0.08423 0.0
H412 H 0.88117 0.74705 0.22712 0.0
H413 H 0.95314 0.74739 0.2012 0.0
H414 H 0.8436 0.79119 0.19996 0.0
H415 H 0.94921 0.83596 0.11836 0.0
H416 H 0.39883 0.87453 0.00513 0.0
H417 H 0.31293 0.82974 0.02272 0.0
H418 H 0.46552 0.89213 0.0452 0.0
H419 H 0.35845 0.81752 0.12492 0.0
C420 C 0.36556 0.25972 0.5595 0.0
C421 C 0.36217 0.31676 0.59984 0.0
C422 C 0.36468 0.27381 0.5928 0.0
C423 C 0.36413 0.34702 0.57296 0.0
C424 C 0.36213 0.28687 0.53242 0.0
C425 C 0.36545 0.33276 0.53943 0.0
N426 N 0.37042 0.21962 0.55362 0.0
C427 C 0.36833 0.20235 0.5215 0.0
C428 C 0.35568 0.26649 0.49959 0.0
C429 C 0.35852 0.22405 0.49413 0.0
Gd430 Gd 0.31832 0.06254 0.64053 0.0
Gd431 Gd 0.39657 0.19384 0.60034 0.0
N432 N 0.36641 0.24544 0.61822 0.0
C433 C 0.36028 0.32923 0.63369 0.0
C434 C 0.36258 0.2563 0.65126 0.0
C435 C 0.36024 0.29865 0.65945 0.0
H436 H 0.36242 0.2334 0.67146 0.0
H437 H 0.36066 0.30895 0.68559 0.0
H438 H 0.36895 0.02608 0.57844 0.0
H439 H 0.37651 0.17367 0.51659 0.0
H440 H 0.40891 0.97581 0.57383 0.0
H441 H 0.35933 0.36249 0.64022 0.0
H442 H 0.36479 0.38154 0.57781 0.0
H443 H 0.2724 0.04329 0.71947 0.0
H444 H 0.34677 0.28098 0.478 0.0
H445 H 0.35499 0.20922 0.4687 0.0
H446 H 0.42011 0.93259 0.68909 0.0
H447 H 0.3686 0.35773 0.51944 0.0
H448 H 0.33584 0.97065 0.7751 0.0
H449 H 0.28269 1.00846 0.77346 0.0
N450 N 0.32082 0.02705 0.6919 0.0
C451 C 0.34793 1.00399 0.69155 0.0
C452 C 0.2956 0.02676 0.72022 0.0
C453 C 0.3315 0.98593 0.75148 0.0
C454 C 0.30133 1.00709 0.75067 0.0
C455 C 0.3542 0.98302 0.72153 0.0
H456 H 0.38727 0.94275 0.74339 0.0
N457 N 0.35987 0.01849 0.63188 0.0
C458 C 0.36698 0.99862 0.66071 0.0
C459 C 0.40761 0.96384 0.62783 0.0
C460 C 0.39218 0.97177 0.65945 0.0
C461 C 0.37382 1.00982 0.60097 0.0
C462 C 0.39754 0.98216 0.59843 0.0
O463 O 0.31358 0.16082 0.60158 0.0
O464 O 0.29179 0.11659 0.65134 0.0
O465 O 0.24871 0.02501 0.6126 0.0
O466 O 0.25944 0.99036 0.65656 0.0
O467 O 0.40902 0.18838 0.65804 0.0
O468 O 0.33683 0.1223 0.67919 0.0
O469 O 0.40387 0.0966 0.63881 0.0
O470 O 0.42586 0.14367 0.5909 0.0
O471 O 0.46513 0.25583 0.62198 0.0
O472 O 0.45306 0.24689 0.56695 0.0
O473 O 0.30591 0.0723 0.58557 0.0
O474 O 0.37919 0.12883 0.56283 0.0
C475 C 0.28358 0.14145 0.62757 0.0
C476 C 0.37964 0.16337 0.68381 0.0
C477 C 0.17882 0.97401 0.64597 0.0
C478 C 0.08971 0.91856 0.64428 0.0
C479 C 0.12614 0.98474 0.68618 0.0
C480 C 0.17303 0.99989 0.67314 0.0
C481 C 0.08466 0.94426 0.67187 0.0
C482 C 0.137 0.93331 0.63145 0.0
C483 C 0.22841 0.98797 0.63367 0.0
C484 C 0.40025 0.95275 0.68957 0.0
C485 C 0.38156 0.95857 0.72052 0.0
H486 H 0.4267 0.94303 0.62579 0.0
C487 C 0.43711 0.12367 0.61563 0.0
C488 C 0.33709 0.0859 0.56064 0.0
C489 C 0.53049 0.31662 0.58462 0.0
C490 C 0.59288 0.40471 0.58898 0.0
C491 C 0.60541 0.35033 0.551 0.0
C492 C 0.56001 0.31041 0.56055 0.0
C493 C 0.6217 0.39708 0.56499 0.0
C494 C 0.54716 0.36403 0.59914 0.0
C495 C 0.48087 0.27424 0.5918 0.0
H496 H 0.12195 1.00422 0.70757 0.0
H497 H 0.2048 0.03141 0.68449 0.0
H498 H 0.04856 0.93252 0.68259 0.0
H499 H 0.14125 0.91288 0.61064 0.0
H500 H 0.6278 0.34516 0.5323 0.0
H501 H 0.54767 0.2746 0.54886 0.0
H502 H 0.65676 0.42772 0.5567 0.0
H503 H 0.52402 0.36958 0.61702 0.0
C504 C 0.66806 0.91674 0.43835 0.0
C505 C 0.67092 0.97158 0.39339 0.0
C506 C 0.66752 0.92666 0.40378 0.0
C507 C 0.67185 1.00451 0.41789 0.0
C508 C 0.67084 0.95069 0.4629 0.0
C509 C 0.67004 0.99302 0.45231 0.0
N510 N 0.6654 0.87374 0.44798 0.0
C511 C 0.66852 0.86365 0.48132 0.0
C512 C 0.67357 0.94065 0.49733 0.0
C513 C 0.67341 0.8974 0.50653 0.0
Gd514 Gd 0.73938 0.78007 0.36667 0.0
Gd515 Gd 0.64389 0.81566 0.4051 0.0
N516 N 0.66154 0.89173 0.38054 0.0
C517 C 0.6699 0.98069 0.35872 0.0
C518 C 0.65527 0.89874 0.34695 0.0
C519 C 0.66154 0.94379 0.33539 0.0
H520 H 0.6416 0.86928 0.32895 0.0
H521 H 0.65692 0.94882 0.30867 0.0
H522 H 0.73105 0.70221 0.42787 0.0
H523 H 0.66558 0.82893 0.48856 0.0
H524 H 0.69586 0.61194 0.4353 0.0
H525 H 0.6727 1.01487 0.34985 0.0
H526 H 0.67206 0.03806 0.41049 0.0
H527 H 0.75284 0.80268 0.28342 0.0
H528 H 0.67625 0.96606 0.517 0.0
H529 H 0.67568 0.88946 0.53306 0.0
H530 H 0.64002 0.54597 0.32256 0.0
H531 H 0.66659 1.01643 0.47037 0.0
H532 H 0.68019 0.66298 0.23163 0.0
H533 H 0.72564 0.75544 0.23027 0.0
N534 N 0.72342 0.73891 0.31468 0.0
C535 C 0.70209 0.68894 0.31615 0.0
C536 C 0.73315 0.76276 0.28431 0.0
C537 C 0.69262 0.68397 0.25511 0.0
C538 C 0.71776 0.73579 0.25408 0.0
C539 C 0.68517 0.65989 0.28646 0.0
H540 H 0.64763 0.58492 0.26665 0.0
N541 N 0.71279 0.69643 0.3757 0.0
C542 C 0.6974 0.667 0.34761 0.0
C543 C 0.67484 0.59532 0.38245 0.0
C544 C 0.67619 0.61541 0.35033 0.0
C545 C 0.71446 0.67778 0.40658 0.0
C546 C 0.69539 0.62686 0.41054 0.0
O547 O 0.72479 0.8757 0.41219 0.0
O548 O 0.75329 0.85823 0.36425 0.0
O549 O 0.80695 0.78876 0.38972 0.0
O550 O 0.80658 0.81186 0.3377 0.0
O551 O 0.63636 0.79454 0.34758 0.0
O552 O 0.71741 0.82482 0.33535 0.0
O553 O 0.65572 0.72094 0.36419 0.0
O554 O 0.62829 0.73886 0.4124 0.0
O555 O 0.57242 0.80381 0.38685 0.0
O556 O 0.58235 0.79222 0.43955 0.0
O557 O 0.74704 0.79994 0.42212 0.0
O558 O 0.66968 0.77478 0.44289 0.0
C559 C 0.76047 0.88786 0.39004 0.0
C560 C 0.67219 0.80858 0.32489 0.0
C561 C 0.86903 0.79423 0.35199 0.0
C562 C 0.95411 0.81235 0.3544 0.0
C563 C 0.89829 0.75637 0.31127 0.0
C564 C 0.86023 0.76268 0.32408 0.0
C565 C 0.94514 0.78138 0.32615 0.0
C566 C 0.91593 0.81861 0.3674 0.0
C567 C 0.83254 0.80801 0.36212 0.0
C568 C 0.65744 0.58589 0.32097 0.0
C569 C 0.66178 0.60808 0.28911 0.0
H570 H 0.65897 0.55577 0.38572 0.0
C571 C 0.62062 0.7097 0.38683 0.0
C572 C 0.7143 0.77936 0.44615 0.0
C573 C 0.5283 0.82351 0.42817 0.0
C574 C 0.47353 0.8572 0.4171 0.0
C575 C 0.50259 0.85753 0.47446 0.0
C576 C 0.52915 0.8356 0.46283 0.0
C577 C 0.47488 0.8681 0.45185 0.0
C578 C 0.50018 0.83462 0.40516 0.0
C579 C 0.55369 0.79611 0.41728 0.0
H580 H 0.89177 0.73287 0.28933 0.0
H581 H 0.82451 0.74427 0.31155 0.0
H582 H 0.97469 0.77718 0.31534 0.0
H583 H 0.92331 0.84406 0.38838 0.0
H584 H 0.50298 0.8658 0.50125 0.0
H585 H 0.54969 0.82732 0.48132 0.0
H586 H 0.45377 0.88434 0.4616 0.0
H587 H 0.49824 0.82501 0.37847 0.0
C588 C 0.76831 0.66152 0.93176 0.0
C589 C 0.70742 0.64729 0.88802 0.0
C590 C 0.75159 0.64908 0.89828 0.0
C591 C 0.67979 0.65632 0.91184 0.0
C592 C 0.74281 0.67464 0.95488 0.0
C593 C 0.69674 0.66847 0.94525 0.0
N594 N 0.81006 0.66158 0.94157 0.0
C595 C 0.82888 0.6751 0.97364 0.0
C596 C 0.76463 0.69318 0.98676 0.0
C597 C 0.80736 0.69284 0.99639 0.0
Gd598 Gd 0.97338 0.73009 0.86414 0.0
Gd599 Gd 0.84185 0.63059 0.90178 0.0
N600 N 0.77748 0.63731 0.87614 0.0
C601 C 0.69063 0.63353 0.85464 0.0
C602 C 0.75909 0.6204 0.84422 0.0
C603 C 0.71642 0.6196 0.83274 0.0
H604 H 0.77491 0.60453 0.82789 0.0
H605 H 0.70233 0.60627 0.80742 0.0
H606 H 0.04734 0.73253 0.92662 0.0
H607 H 0.86106 0.67334 0.98139 0.0
H608 H 0.10368 0.69993 0.93766 0.0
H609 H 0.65689 0.63179 0.84593 0.0
H610 H 0.64448 0.65255 0.90498 0.0
H611 H 0.96453 0.73608 0.77986 0.0
H612 H 0.75069 0.70999 0.00371 0.0
H613 H 0.82361 0.7062 0.02127 0.0
H614 H 0.11476 0.63516 0.82877 0.0
H615 H 0.67212 0.67016 0.96333 0.0
H616 H 0.03002 0.65812 0.73443 0.0
H617 H 0.97899 0.69814 0.72928 0.0
N618 N 0.99929 0.7105 0.81371 0.0
C619 C 0.02896 0.69064 0.81709 0.0
C620 C 0.9841 0.71617 0.78246 0.0
C621 C 1.02233 0.67339 0.75682 0.0
C622 C 0.99382 0.6962 0.75369 0.0
C623 C 0.04128 0.67141 0.78876 0.0
H624 H 0.08107 0.635 0.77196 0.0
N625 N 0.03191 0.70623 0.87607 0.0
C626 C 0.04655 0.68924 0.84923 0.0
C627 C 0.09868 0.67344 0.88624 0.0
C628 C 0.0789 0.67067 0.85375 0.0
C629 C 0.05393 0.7127 0.90697 0.0
C630 C 0.08699 0.69563 0.91281 0.0
O631 O 0.86205 0.71148 0.90717 0.0
O632 O 0.9127 0.74958 0.86126 0.0
O633 O 0.0298 0.79842 0.888 0.0
O634 O 1.01377 0.79633 0.8341 0.0
O635 O 0.8558 0.62814 0.84404 0.0
O636 O 0.90702 0.71026 0.83228 0.0
O637 O 0.94713 0.64627 0.85853 0.0
O638 O 0.90444 0.6168 0.90738 0.0
O639 O 0.78375 0.55596 0.88662 0.0
O640 O 0.80399 0.57314 0.93934 0.0
O641 O 0.95881 0.73407 0.91998 0.0
O642 O 0.90867 0.65513 0.93911 0.0
C643 C 0.88272 0.74799 0.88527 0.0
C644 C 0.87434 0.66554 0.82229 0.0
C645 C 0.09322 0.85698 0.85235 0.0
C646 C 0.16435 0.94037 0.85514 0.0
C647 C 0.1674 0.87731 0.82065 0.0
C648 C 0.11935 0.84284 0.83042 0.0
C649 C 0.18972 0.92589 0.83275 0.0
C650 C 0.11602 0.90574 0.86503 0.0
C651 C 0.04085 0.82302 0.85951 0.0
C652 C 0.09067 0.65052 0.82573 0.0
C653 C 0.0716 0.65055 0.79335 0.0
H654 H 0.12386 0.65974 0.89085 0.0
C655 C 0.9258 0.61069 0.88121 0.0
C656 C 0.9482 0.70009 0.94303 0.0
C657 C 0.72057 0.51022 0.92876 0.0
C658 C 0.63066 0.45934 0.9188 0.0
C659 C 0.66473 0.46607 0.97549 0.0
C660 C 0.71215 0.49717 0.96334 0.0
C661 C 0.62445 0.44732 0.95352 0.0
C662 C 0.67922 0.49071 0.90614 0.0
C663 C 0.77332 0.54039 0.9178 0.0
H664 H 0.18712 0.86656 0.80321 0.0
H665 H 0.10217 0.80557 0.82022 0.0
H666 H 0.22669 0.95245 0.82438 0.0
H667 H 0.09573 0.91713 0.88153 0.0
H668 H 0.65919 0.45599 0.00212 0.0
H669 H 0.74267 0.51034 0.98117 0.0
H670 H 0.58802 0.42259 0.9637 0.0
H671 H 0.68463 0.49948 0.87928 0.0
C672 C 0.12177 0.77327 0.43577 0.0
C673 C 0.06343 0.71709 0.39399 0.0
C674 C 0.1098 0.7585 0.4021 0.0
C675 C 0.03001 0.69092 0.42004 0.0
C676 C 0.08712 0.74943 0.46171 0.0
C677 C 0.04232 0.70637 0.45379 0.0
N678 N 0.16809 0.80982 0.44343 0.0
C679 C 0.18294 0.8223 0.4762 0.0
C680 C 0.10004 0.76914 0.49474 0.0
C681 C 0.14856 0.80449 0.50231 0.0
Gd682 Gd 0.27576 0.97401 0.35962 0.0
Gd683 Gd 0.22345 0.83972 0.39916 0.0
N684 N 0.14448 0.78259 0.37772 0.0
C685 C 0.05354 0.70065 0.36032 0.0
C686 C 0.13596 0.76421 0.34526 0.0
C687 C 0.09039 0.72375 0.33604 0.0
H688 H 0.16491 0.77737 0.32681 0.0
H689 H 0.0848 0.70852 0.31066 0.0
H690 H 0.35946 1.00558 0.42411 0.0
H691 H 0.22158 0.84389 0.48201 0.0
H692 H 0.44718 0.06682 0.43272 0.0
H693 H 1.01872 0.66847 0.35322 0.0
H694 H 0.99528 0.65762 0.41451 0.0
H695 H 0.25568 0.96179 0.27514 0.0
H696 H 0.07377 0.75856 0.51482 0.0
H697 H 0.15956 0.81676 0.52826 0.0
H698 H 0.50886 0.11568 0.31948 0.0
H699 H 1.01785 0.68281 0.47338 0.0
H700 H 0.39587 0.0411 0.22631 0.0
H701 H 0.30507 0.98728 0.22263 0.0
N702 N 0.3178 0.99504 0.30801 0.0
C703 C 0.36751 0.02547 0.31079 0.0
C704 C 0.29523 0.98207 0.27696 0.0
C705 C 0.37434 0.02843 0.24945 0.0
C706 C 0.32315 0.9978 0.24722 0.0
C707 C 0.39704 0.04339 0.28145 0.0
H708 H 0.47135 0.0901 0.26264 0.0
N709 N 0.36046 0.01766 0.37109 0.0
C710 C 0.38903 0.03887 0.34313 0.0
C711 C 0.46072 0.08381 0.37932 0.0
C712 C 0.44015 0.07197 0.34656 0.0
C713 C 0.38104 0.02595 0.40271 0.0
C714 C 0.43117 0.0599 0.40746 0.0
O715 O 0.17211 0.8706 0.40484 0.0
O716 O 0.19184 0.92308 0.35882 0.0
O717 O 0.2645 0.03181 0.38261 0.0
O718 O 0.28242 0.03475 0.32955 0.0
O719 O 0.239 0.85113 0.34097 0.0
O720 O 0.22027 0.91135 0.32844 0.0
O721 O 0.32542 0.93827 0.35636 0.0
O722 O 0.30244 0.89549 0.40541 0.0
O723 O 0.22723 0.77574 0.38026 0.0
O724 O 0.2408 0.79553 0.43322 0.0
O725 O 0.2614 0.97135 0.41546 0.0
O726 O 0.26454 0.90472 0.43865 0.0
C727 C 0.16083 0.89525 0.38297 0.0
C728 C 0.22361 0.87292 0.3191 0.0
C729 C 0.23106 0.06679 0.34404 0.0
C730 C 0.19197 0.11702 0.35171 0.0
C731 C 0.17124 0.06298 0.30268 0.0
C732 C 0.20371 0.04762 0.31379 0.0
C733 C 0.16492 0.09697 0.32167 0.0
C734 C 0.22533 0.10206 0.36292 0.0
C735 C 0.26899 0.05385 0.35361 0.0
C736 C 0.46942 0.09063 0.31731 0.0
C737 C 0.44806 0.0759 0.28491 0.0
H738 H 0.49981 0.10934 0.38301 0.0
C739 C 0.33142 0.91091 0.37928 0.0
C740 C 0.26805 0.94922 0.44143 0.0
C741 C 0.19473 0.70929 0.41992 0.0
C742 C 0.15328 0.62003 0.40818 0.0
C743 C 0.13231 0.65047 0.45867 0.0
C744 C 0.16716 0.69893 0.4501 0.0
C745 C 0.12528 0.61129 0.43787 0.0
C746 C 0.188 0.6693 0.39917 0.0
C747 C 0.23105 0.76135 0.41061 0.0
H748 H 0.15095 0.04854 0.27913 0.0
H749 H 0.20766 0.021 0.29837 0.0
H750 H 0.14026 0.10922 0.31218 0.0
H751 H 0.2478 0.119 0.38537 0.0
H752 H 0.11168 0.64315 0.4821 0.0
H753 H 0.17274 0.72813 0.46748 0.0
H754 H 0.10016 0.57375 0.44612 0.0
H755 H 0.21098 0.67627 0.37692 0.0
C756 C 0.36842 0.11504 0.93753 0.0
C757 C 0.37078 0.06122 0.89364 0.0
C758 C 0.37721 0.10744 0.90388 0.0
C759 C 0.35806 0.024 0.91778 0.0
C760 C 0.35152 0.07634 0.96112 0.0
C761 C 0.35018 0.03219 0.95149 0.0
N762 N 0.37384 0.15955 0.94664 0.0
C763 C 0.36242 0.16786 0.97849 0.0
C764 C 0.33571 0.08344 0.99304 0.0
C765 C 0.34177 0.1294 0.00188 0.0
Gd766 Gd 0.31343 0.25691 0.86328 0.0
Gd767 Gd 0.40681 0.22034 0.90542 0.0
N768 N 0.39235 0.14523 0.88134 0.0
C769 C 0.37972 0.05452 0.85977 0.0
C770 C 0.40651 0.14037 0.84938 0.0
C771 C 0.39825 0.09456 0.83761 0.0
H772 H 0.42633 0.17185 0.83316 0.0
H773 H 0.40805 0.0907 0.81184 0.0
H774 H 0.3364 0.34054 0.92455 0.0
H775 H 0.36833 0.20376 0.98571 0.0
H776 H 0.37547 0.43118 0.93011 0.0
H777 H 0.37459 0.01933 0.85092 0.0
H778 H 0.35544 0.98913 0.91084 0.0
H779 H 0.29146 0.22907 0.78101 0.0
H780 H 0.31661 0.05383 0.0108 0.0
H781 H 0.33031 0.13507 0.02666 0.0
H782 H 0.40978 0.48844 0.81432 0.0
H783 H 0.34495 1.00433 0.96958 0.0
H784 H 0.35095 0.36518 0.72583 0.0
H785 H 0.30599 0.27288 0.72681 0.0
N786 N 0.32349 0.29492 0.81077 0.0
C787 C 0.34508 0.34496 0.8112 0.0
C788 C 0.3097 0.26905 0.78098 0.0
C789 C 0.34332 0.3458 0.74986 0.0
C790 C 0.31857 0.29399 0.75014 0.0
C791 C 0.35681 0.37198 0.78071 0.0
H792 H 0.39113 0.44553 0.75891 0.0
N793 N 0.34366 0.3416 0.87116 0.0
C794 C 0.35514 0.3691 0.84235 0.0
C795 C 0.38604 0.4436 0.87602 0.0
C796 C 0.37786 0.421 0.84397 0.0
C797 C 0.34894 0.36295 0.90224 0.0
C798 C 0.37056 0.41429 0.90526 0.0
O799 O 0.32464 0.1619 0.90747 0.0
O800 O 0.29972 0.17942 0.85783 0.0
O801 O 0.24839 0.25421 0.88648 0.0
O802 O 0.24317 0.21952 0.83773 0.0
O803 O 0.41629 0.23955 0.84793 0.0
O804 O 0.33774 0.2158 0.82944 0.0
O805 O 0.39712 0.31503 0.86014 0.0
O806 O 0.42398 0.29837 0.90924 0.0
O807 O 0.47951 0.23218 0.89118 0.0
O808 O 0.46352 0.23819 0.94359 0.0
O809 O 0.30595 0.2353 0.91858 0.0
O810 O 0.38254 0.26413 0.94116 0.0
C811 C 0.29212 0.14875 0.88271 0.0
C812 C 0.38372 0.22879 0.82305 0.0
C813 C 0.18206 0.23981 0.84895 0.0
C814 C 0.09515 0.21662 0.84681 0.0
C815 C 0.15264 0.27264 0.80462 0.0
C816 C 0.19117 0.26964 0.82014 0.0
C817 C 0.10488 0.24603 0.81764 0.0
C818 C 0.1341 0.2139 0.86263 0.0
C819 C 0.2197 0.22866 0.86122 0.0
C820 C 0.39153 0.4484 0.81365 0.0
C821 C 0.38096 0.42395 0.78209 0.0
H822 H 0.40341 0.48345 0.87842 0.0
C823 C 0.43256 0.32591 0.88259 0.0
C824 C 0.33753 0.25859 0.94303 0.0
C825 C 0.52129 0.21072 0.93336 0.0
C826 C 0.57536 0.17593 0.92238 0.0
C827 C 0.55107 0.1815 0.98015 0.0
C828 C 0.52354 0.20226 0.96831 0.0
C829 C 0.57672 0.16846 0.95747 0.0
C830 C 0.54783 0.1976 0.91022 0.0
C831 C 0.49503 0.2373 0.92242 0.0
H832 H 0.15963 0.29498 0.78206 0.0
H833 H 0.22765 0.28916 0.80895 0.0
H834 H 0.07538 0.24849 0.80496 0.0
H835 H 0.12665 0.18993 0.88444 0.0
H836 H 0.55301 0.176 0.00717 0.0
H837 H 0.50473 0.21265 0.98683 0.0
H838 H 0.59851 0.15309 0.96745 0.0
H839 H 0.54754 0.20458 0.88325 0.0
C840 C 0.27811 0.35747 0.43048 0.0
C841 C 0.34259 0.37794 0.38853 0.0
C842 C 0.29694 0.37347 0.39782 0.0
C843 C 0.37001 0.36915 0.41272 0.0
C844 C 0.30343 0.34424 0.45368 0.0
C845 C 0.35135 0.35428 0.4454 0.0
N846 N 0.23543 0.35565 0.4398 0.0
C847 C 0.21504 0.33942 0.47112 0.0
C848 C 0.27978 0.32246 0.48444 0.0
C849 C 0.23588 0.32059 0.49343 0.0
Gd850 Gd 0.07521 0.30978 0.36128 0.0
Gd851 Gd 0.20867 0.39377 0.40238 0.0
N852 N 0.27197 0.38666 0.37579 0.0
C853 C 0.36122 0.39459 0.35597 0.0
C854 C 0.29209 0.40632 0.34474 0.0
C855 C 0.3358 0.40888 0.33399 0.0
H856 H 0.27718 0.42343 0.32869 0.0
H857 H 0.35113 0.42422 0.30934 0.0
H858 H 0.04901 0.36901 0.42484 0.0
H859 H 0.1824 0.34015 0.47865 0.0
H860 H 0.99751 0.40674 0.43238 0.0
H861 H 0.39606 0.39827 0.34802 0.0
H862 H 0.40658 0.37552 0.4068 0.0
H863 H 0.08409 0.29921 0.27745 0.0
H864 H 0.29306 0.30479 0.50105 0.0
H865 H 0.21845 0.3051 0.51759 0.0
H866 H 0.94207 0.41223 0.31982 0.0
H867 H 0.37612 0.35365 0.46405 0.0
H868 H 1.00237 0.35695 0.22768 0.0
H869 H 0.05427 0.31772 0.22475 0.0
N870 N 0.0509 0.32843 0.3099 0.0
C871 C 1.0215 0.34878 0.31235 0.0
C872 C 0.06305 0.31775 0.27897 0.0
C873 C 1.01576 0.3491 0.25095 0.0
C874 C 0.04547 0.32755 0.2491 0.0
C875 C 1.00345 0.36005 0.28279 0.0
H876 H 0.95991 0.39103 0.26339 0.0
N877 N 0.03186 0.35231 0.3724 0.0
C878 C 1.01093 0.36024 0.34443 0.0
C879 C 0.97651 0.39922 0.37956 0.0
C880 C 0.98276 0.38399 0.34736 0.0
C881 C 0.02845 0.37024 0.40343 0.0
C882 C 1.00016 0.39302 0.40762 0.0
O883 O 0.18228 0.31193 0.40426 0.0
O884 O 0.12873 0.28021 0.35867 0.0
O885 O 1.01374 0.24165 0.38343 0.0
O886 O 0.02726 0.24831 0.32919 0.0
O887 O 0.19772 0.40084 0.34445 0.0
O888 O 0.13949 0.32171 0.33114 0.0
O889 O 0.10987 0.39586 0.35933 0.0
O890 O 0.15217 0.41569 0.40883 0.0
O891 O 0.2702 0.46791 0.39004 0.0
O892 O 0.25262 0.44472 0.44269 0.0
O893 O 0.08246 0.29561 0.41624 0.0
O894 O 0.1414 0.36891 0.44026 0.0
C895 C 0.15702 0.27671 0.38217 0.0
C896 C 0.17673 0.36409 0.32214 0.0
C897 C 0.95176 0.17762 0.34613 0.0
C898 C 0.8905 0.08986 0.35321 0.0
C899 C 0.88531 0.13571 0.30497 0.0
C900 C 0.92726 0.17842 0.31632 0.0
C901 C 0.86727 0.09175 0.32309 0.0
C902 C 0.93276 0.13316 0.36496 0.0
C903 C 1.00128 0.21986 0.35394 0.0
C904 C 0.96378 0.39407 0.31799 0.0
C905 C 0.97414 0.3822 0.28583 0.0
H906 H 0.95532 0.41774 0.3828 0.0
C907 C 0.13642 0.42933 0.38283 0.0
C908 C 0.09773 0.32647 0.44176 0.0
C909 C 0.33494 0.51318 0.43251 0.0
C910 C 0.42319 0.57205 0.42227 0.0
C911 C 0.38701 0.56797 0.47771 0.0
C912 C 0.34149 0.53036 0.46625 0.0
C913 C 0.42733 0.58879 0.45598 0.0
C914 C 0.37631 0.53439 0.41013 0.0
C915 C 0.28291 0.47872 0.42181 0.0
H916 H 0.86717 0.13637 0.28167 0.0
H917 H 0.94154 0.21168 0.30109 0.0
H918 H 0.83506 0.05881 0.31341 0.0
H919 H 0.95205 0.13164 0.38746 0.0
H920 H 0.39098 0.58135 0.50361 0.0
H921 H 0.3106 0.51582 0.48371 0.0
H922 H 0.46239 0.61807 0.46568 0.0
H923 H 0.37217 0.52198 0.38394 0.0
C924 C 0.93334 0.26449 0.93562 0.0
C925 C 0.98765 0.32078 0.8925 0.0
C926 C 0.9441 0.27679 0.90152 0.0
C927 C 1.01736 0.35363 0.91796 0.0
C928 C 0.96468 0.29596 0.96124 0.0
C929 C 1.00421 0.34231 0.95201 0.0
N930 N 0.8902 0.2237 0.94386 0.0
C931 C 0.87824 0.20985 0.97673 0.0
C932 C 0.95326 0.28074 0.99519 0.0
C933 C 0.91031 0.23694 0.00295 0.0
Gd934 Gd 0.77381 0.05981 0.86271 0.0
Gd935 Gd 0.83161 0.19508 0.90116 0.0
N936 N 0.91013 0.2483 0.87757 0.0
C937 C 0.99726 0.33331 0.85823 0.0
C938 C 0.91828 0.26263 0.84426 0.0
C939 C 0.96207 0.30427 0.83408 0.0
H940 H 0.89012 0.24585 0.82555 0.0
H941 H 0.96676 0.31614 0.80791 0.0
H942 H 0.69031 0.02425 0.92659 0.0
H943 H 0.84246 0.18081 0.98261 0.0
H944 H 0.60077 0.97124 0.93347 0.0
H945 H 0.03005 0.36702 0.85039 0.0
H946 H 0.04903 0.38914 0.91156 0.0
H947 H 0.79574 0.06189 0.77924 0.0
H948 H 0.97629 0.30195 0.0159 0.0
H949 H 0.90043 0.22581 0.02916 0.0
H950 H 0.53934 0.93714 0.81883 0.0
H951 H 0.02435 0.37066 0.97061 0.0
H952 H 0.65654 0.99569 0.72763 0.0
H953 H 0.74801 0.03786 0.72583 0.0
N954 N 0.73273 0.0374 0.81064 0.0
C955 C 0.68259 1.01219 0.81255 0.0
C956 C 0.75623 0.04593 0.78012 0.0
C957 C 0.67754 1.00717 0.75114 0.0
C958 C 0.72909 0.03136 0.74991 0.0
C959 C 0.65362 0.9965 0.78272 0.0
H960 H 0.57903 0.95778 0.76263 0.0
N961 N 0.68874 0.01867 0.87295 0.0
C962 C 0.66003 1.00113 0.84448 0.0
C963 C 0.5868 0.9617 0.87947 0.0
C964 C 0.60816 0.97335 0.84706 0.0
C965 C 0.66803 1.00846 0.90449 0.0
C966 C 0.61694 0.97904 0.90832 0.0
O967 O 0.87988 0.16046 0.90513 0.0
O968 O 0.85686 0.11092 0.85741 0.0
O969 O 0.78414 1.00371 0.88866 0.0
O970 O 0.76648 0.99622 0.83529 0.0
O971 O 0.80987 0.18321 0.84385 0.0
O972 O 0.82533 0.12124 0.82903 0.0
O973 O 0.72472 0.09635 0.86255 0.0
O974 O 0.75114 0.14775 0.9087 0.0
O975 O 0.83461 0.26342 0.8834 0.0
O976 O 0.8237 0.24369 0.93715 0.0
O977 O 0.79549 0.06836 0.91766 0.0
O978 O 0.78565 0.13061 0.94011 0.0
C979 C 0.88977 0.13745 0.88111 0.0
C980 C 0.81953 0.15856 0.82042 0.0
C981 C 0.8188 0.96706 0.85353 0.0
C982 C 0.85341 0.91254 0.85963 0.0
C983 C 0.89137 0.98273 0.82121 0.0
C984 C 0.8562 0.99571 0.83007 0.0
C985 C 0.89002 0.94142 0.83585 0.0
C986 C 0.8175 0.92529 0.86837 0.0
C987 C 0.77975 0.97918 0.8608 0.0
C988 C 0.57929 0.95814 0.81732 0.0
C989 C 0.6019 0.96997 0.78529 0.0
H990 H 0.54709 0.94005 0.88249 0.0
C991 C 0.72038 0.127 0.88363 0.0
C992 C 0.78178 0.08601 0.94272 0.0
C993 C 0.83136 0.32326 0.92267 0.0
C994 C 0.85696 0.41071 0.9126 0.0
C995 C 0.81418 0.36992 0.96466 0.0
C996 C 0.81159 0.32608 0.95409 0.0
C997 C 0.83664 0.41183 0.94417 0.0
C998 C 0.85426 0.36607 0.90171 0.0
C999 C 0.83184 0.27698 0.91429 0.0
H1000 H 0.91947 1.00447 0.80264 0.0
H1001 H 0.85766 0.02765 0.81808 0.0
H1002 H 0.91714 0.93141 0.82818 0.0
H1003 H 0.78844 0.90251 0.88612 0.0
H1004 H 0.79905 0.37154 0.98906 0.0
H1005 H 0.79451 0.29437 0.97087 0.0
H1006 H 0.8385 0.44559 0.95313 0.0
H1007 H 0.87065 0.36502 0.87768 0.0
C1008 C 0.22132 0.9773 0.11238 0.0
C1009 C 0.17166 0.93991 0.10772 0.0
C1010 C 0.23408 0.02578 0.12104 0.0
C1011 C 0.19764 0.0388 0.1255 0.0
H1012 H 0.25046 0.96856 0.1124 0.0
H1013 H 0.27219 0.05191 0.12757 0.0
S1014 S 0.06334 0.95868 0.11068 0.0
N1015 N 0.08648 0.92218 0.1034 0.0
N1016 N 0.11089 1.01339 0.12058 0.0
C1017 C 0.14851 1.00367 0.11776 0.0
C1018 C 0.13537 0.95417 0.10872 0.0
C1019 C 0.22078 0.14661 0.6642 0.0
C1020 C 0.24431 0.15464 0.63247 0.0
C1021 C 0.19025 0.16633 0.6716 0.0
C1022 C 0.18172 0.1945 0.64751 0.0
H1023 H 0.22793 0.12716 0.6842 0.0
H1024 H 0.1749 0.16137 0.69694 0.0
S1025 S 0.22675 0.21886 0.55861 0.0
N1026 N 0.25068 0.18677 0.57495 0.0
N1027 N 0.19403 0.2245 0.5894 0.0
C1028 C 0.20133 0.19926 0.61476 0.0
C1029 C 0.23249 0.17919 0.60712 0.0
C1030 C 1.01427 0.21023 0.11101 0.0
C1031 C 1.00137 0.16768 0.13029 0.0
C1032 C 0.06357 0.24264 0.10185 0.0
C1033 C 0.10201 0.23479 0.11286 0.0
H1034 H 0.9866 0.22027 0.10494 0.0
H1035 H 0.07154 0.27545 0.08801 0.0
S1036 S 0.0852 0.1217 0.15607 0.0
N1037 N 0.02889 0.11382 0.15399 0.0
N1038 N 0.12187 0.17557 0.13786 0.0
C1039 C 0.08857 0.18942 0.12886 0.0
C1040 C 0.03818 0.1558 0.13746 0.0
C1041 C 0.90309 0.03863 0.6429 0.0
C1042 C 0.85858 0.9968 0.63272 0.0
C1043 C 0.91461 0.08638 0.63323 0.0
C1044 C 0.88232 0.09441 0.61271 0.0
H1045 H 0.9272 0.03471 0.66091 0.0
H1046 H 0.94771 0.11744 0.64376 0.0
S1047 S 0.76732 0.99576 0.57207 0.0
N1048 N 0.78625 0.9653 0.59634 0.0
N1049 N 0.80883 0.05502 0.57669 0.0
C1050 C 0.84088 0.05233 0.59868 0.0
C1051 C 0.8288 1.00348 0.60903 0.0
C1052 C 0.86571 0.87807 0.16199 0.0
C1053 C 0.87083 0.84384 0.14171 0.0
C1054 C 0.8345 0.89589 0.15222 0.0
C1055 C 0.80681 0.87988 0.12185 0.0
H1056 H 0.88388 0.889 0.18656 0.0
H1057 H 0.82988 0.92009 0.16974 0.0
S1058 S 0.8174 0.80046 0.05572 0.0
N1059 N 0.85304 0.80145 0.08716 0.0
N1060 N 0.79495 0.83583 0.06821 0.0
C1061 C 0.81633 0.85034 0.09938 0.0
C1062 C 0.84822 0.83205 0.10948 0.0
C1063 C 0.96359 0.83893 0.60459 0.0
C1064 C 0.94906 0.79219 0.61856 0.0
C1065 C 1.01097 0.87948 0.61089 0.0
C1066 C 0.04523 0.87428 0.6311 0.0
H1067 H 0.93744 0.84464 0.58999 0.0
H1068 H 1.02011 0.91558 0.60125 0.0
S1069 S 0.02599 0.75991 0.67255 0.0
N1070 N 0.97293 0.74326 0.65322 0.0
N1071 N 0.06255 0.81899 0.66372 0.0
C1072 C 0.032 0.82736 0.64375 0.0
C1073 C 0.98365 0.78636 0.63785 0.0
C1074 C 0.07173 0.84315 0.40076 0.0
C1075 C 0.10786 0.88226 0.38096 0.0
C1076 C 1.02114 0.82195 0.39363 0.0
C1077 C 1.00487 0.84116 0.36776 0.0
H1078 H 0.08232 0.82724 0.42101 0.0
H1079 H 0.9949 0.78917 0.40738 0.0
S1080 S 0.08123 0.95258 0.31652 0.0
N1081 N 0.12178 0.9455 0.33924 0.0
N1082 N 0.02632 0.90725 0.3276 0.0
C1083 C 0.03949 0.8842 0.35117 0.0
C1084 C 0.0911 0.90471 0.35749 0.0
C1085 C 0.21631 1.00896 0.89568 0.0
C1086 C 0.18804 0.99279 0.86571 0.0
C1087 C 0.24754 0.05972 0.90223 0.0
C1088 C 0.25264 0.09588 0.87854 0.0
H1089 H 0.21587 0.98222 0.91343 0.0
H1090 H 0.26895 0.07041 0.92544 0.0
S1091 S 0.17896 0.07133 0.79895 0.0
N1092 N 0.16121 1.01587 0.81459 0.0
N1093 N 0.22029 0.11098 0.82607 0.0
C1094 C 0.22118 0.07972 0.84974 0.0
C1095 C 0.18899 0.02821 0.84345 0.0
C1096 C 0.13959 0.19038 0.3924 0.0
C1097 C 0.17003 0.23758 0.37849 0.0
C1098 C 0.14926 0.15156 0.3864 0.0
C1099 C 0.19028 0.15933 0.36699 0.0
H1100 H 0.10708 0.18294 0.40678 0.0
H1101 H 0.12324 0.11478 0.39546 0.0
S1102 S 0.281 0.27564 0.32533 0.0
N1103 N 0.24211 0.28931 0.34409 0.0
N1104 N 0.26188 0.21738 0.33483 0.0
C1105 C 0.22213 0.20685 0.35449 0.0
C1106 C 0.21157 0.24578 0.35968 0.0
C1107 C 1.00586 0.15637 0.83727 0.0
C1108 C 0.04374 0.18839 0.85952 0.0
C1109 C 0.95607 0.13748 0.84552 0.0
C1110 C 0.94211 0.15005 0.87634 0.0
H1111 H 1.0149 0.1478 0.81251 0.0
H1112 H 0.9286 0.11508 0.82663 0.0
S1113 S 0.02785 0.22524 0.94612 0.0
N1114 N 0.06456 0.22688 0.91537 0.0
N1115 N 0.97092 0.19033 0.93163 0.0
C1116 C 0.97981 0.17838 0.90021 0.0
C1117 C 0.03065 0.19777 0.89164 0.0
C1118 C 0.86892 1.00179 0.35168 0.0
C1119 C 0.87033 0.04102 0.37015 0.0
C1120 C 0.8358 0.95245 0.36015 0.0
C1121 C 0.80232 0.94009 0.3874 0.0
H1122 H 0.89089 1.00932 0.32883 0.0
H1123 H 0.83447 0.92392 0.3437 0.0
S1124 S 0.80171 0.02986 0.44939 0.0
N1125 N 0.84284 0.06494 0.42063 0.0
N1126 N 0.78123 0.97196 0.43739 0.0
C1127 C 0.808 0.9791 0.40869 0.0
C1128 C 0.84186 0.02964 0.39985 0.0
C1129 C 0.89569 0.83103 0.90163 0.0
C1130 C 0.86748 0.78582 0.88437 0.0
C1131 C 0.88823 0.87128 0.8957 0.0
C1132 C 0.85186 0.86728 0.87269 0.0
H1133 H 0.92555 0.83619 0.91831 0.0
H1134 H 0.91279 0.90652 0.90773 0.0
S1135 S 0.76722 0.75669 0.82223 0.0
N1136 N 0.80149 0.73944 0.84374 0.0
N1137 N 0.78603 0.81425 0.83394 0.0
C1138 C 0.8217 0.82153 0.85681 0.0
C1139 C 0.82994 0.78099 0.86226 0.0
C1140 C 0.11335 0.63236 0.08949 0.0
C1141 C 0.12672 0.66364 0.11819 0.0
C1142 C 0.13525 0.60342 0.08276 0.0
C1143 C 0.17151 0.60433 0.1045 0.0
H1144 H 0.08896 0.63364 0.07043 0.0
H1145 H 0.12689 0.5835 0.05881 0.0
S1146 S 0.21626 0.67615 0.18476 0.0
N1147 N 0.17562 0.69062 0.16995 0.0
N1148 N 0.21672 0.636 0.15746 0.0
C1149 C 0.18222 0.63219 0.13475 0.0
C1150 C 0.15978 0.66182 0.14161 0.0
C1151 C 0.57573 0.18067 0.62667 0.0
C1152 C 0.58878 0.16395 0.59721 0.0
C1153 C 0.52555 0.16286 0.63509 0.0
C1154 C 0.48688 0.12855 0.61399 0.0
H1155 H 0.60423 0.21064 0.64158 0.0
H1156 H 0.51717 0.17948 0.65638 0.0
S1157 S 0.5018 0.07309 0.53452 0.0
N1158 N 0.55866 0.10788 0.54894 0.0
N1159 N 0.46597 0.07967 0.56223 0.0
C1160 C 0.49977 0.11042 0.58539 0.0
C1161 C 0.55022 0.12649 0.57785 0.0
C1162 C 0.41042 0.56124 0.12862 0.0
C1163 C 0.44107 0.5746 0.09977 0.0
C1164 C 0.37908 0.51104 0.13722 0.0
C1165 C 0.37755 0.4728 0.11724 0.0
H1166 H 0.40728 0.5894 0.1427 0.0
H1167 H 0.35238 0.50213 0.1574 0.0
S1168 S 0.45321 0.48856 0.04088 0.0
N1169 N 0.47046 0.5457 0.05294 0.0
N1170 N 0.41181 0.45206 0.06898 0.0
C1171 C 0.41088 0.48606 0.09009 0.0
C1172 C 0.44259 0.5368 0.08137 0.0
C1173 C 0.91155 0.42329 0.57562 0.0
C1174 C 0.87975 0.43006 0.5976 0.0
C1175 C 0.92931 0.39109 0.58372 0.0
C1176 C 0.91733 0.36481 0.6146 0.0
H1177 H 0.91896 0.43942 0.55041 0.0
H1178 H 0.94974 0.38396 0.56445 0.0
S1179 S 0.84133 0.374 0.68327 0.0
N1180 N 0.84107 0.41097 0.65326 0.0
N1181 N 0.87591 0.35168 0.66884 0.0
C1182 C 0.88967 0.37473 0.63827 0.0
C1183 C 0.87069 0.40711 0.62976 0.0
C1184 C 0.54774 0.92944 0.12358 0.0
C1185 C 0.55949 0.8921 0.12929 0.0
C1186 C 0.49964 0.91795 0.11392 0.0
C1187 C 0.46085 0.86849 0.11043 0.0
H1188 H 0.5764 0.96766 0.12403 0.0
H1189 H 0.49364 0.94798 0.1066 0.0
S1190 S 0.4692 0.75727 0.13115 0.0
N1191 N 0.52607 0.80383 0.13685 0.0
N1192 N 0.43593 0.78227 0.11913 0.0
C1193 C 0.47078 0.83105 0.12003 0.0
C1194 C 0.51994 0.84282 0.12933 0.0
C1195 C 0.66582 0.52439 0.63911 0.0
C1196 C 0.67326 0.56005 0.61438 0.0
C1197 C 0.63506 0.47326 0.63233 0.0
C1198 C 0.61086 0.45645 0.60069 0.0
H1199 H 0.68742 0.53567 0.66237 0.0
H1200 H 0.63358 0.44677 0.65073 0.0
S1201 S 0.61458 0.53524 0.52903 0.0
N1202 N 0.65044 0.57488 0.55846 0.0
N1203 N 0.59328 0.47977 0.54583 0.0
C1204 C 0.61499 0.49201 0.57708 0.0
C1205 C 0.64599 0.54355 0.58393 0.0
C1206 C 0.35569 0.84647 0.38517 0.0
C1207 C 0.36966 0.89563 0.37693 0.0
C1208 C 0.39031 0.8324 0.39418 0.0
C1209 C 0.4409 0.8672 0.39511 0.0
H1210 H 0.31743 0.8191 0.38673 0.0
H1211 H 0.37707 0.79507 0.40325 0.0
S1212 S 0.49879 0.9985 0.36939 0.0
N1213 N 0.43889 0.97717 0.36497 0.0
N1214 N 0.50434 0.9514 0.38277 0.0
C1215 C 0.45611 0.91531 0.38364 0.0
C1216 C 0.4205 0.92941 0.37418 0.0
C1217 C 0.54651 0.44589 0.90544 0.0
C1218 C 0.58479 0.43609 0.89743 0.0
C1219 C 0.49694 0.4126 0.89658 0.0
C1220 C 0.48363 0.3685 0.87887 0.0
H1221 H 0.55432 0.47715 0.92161 0.0
H1222 H 0.46845 0.41924 0.90641 0.0
S1223 S 0.57008 0.32788 0.84853 0.0
N1224 N 0.60606 0.38065 0.86851 0.0
N1225 N 0.51361 0.31942 0.85061 0.0
C1226 C 0.52205 0.36056 0.86799 0.0
C1227 C 0.57246 0.39409 0.87744 0.0
C1228 C 0.11512 0.54008 0.3742 0.0
C1229 C 0.15485 0.57724 0.39313 0.0
C1230 C 0.11102 0.49334 0.36834 0.0
C1231 C 0.14452 0.48113 0.38329 0.0
H1232 H 0.08614 0.54651 0.36505 0.0
H1233 H 0.07989 0.46586 0.35389 0.0
S1234 S 0.25418 0.56671 0.43575 0.0
N1235 N 0.22965 0.60045 0.42453 0.0
N1236 N 0.21816 0.5119 0.41847 0.0
C1237 C 0.18439 0.51896 0.4019 0.0
C1238 C 0.19047 0.56707 0.4056 0.0
C1239 C 0.63051 0.10064 0.88955 0.0
C1240 C 0.67882 0.13733 0.88129 0.0
C1241 C 0.59464 0.11297 0.89908 0.0
C1242 C 0.60554 0.16257 0.9002 0.0
H1243 H 0.6214 0.06273 0.89157 0.0
H1244 H 0.55937 0.08385 0.90836 0.0
S1245 S 0.72339 0.27173 0.87391 0.0
N1246 N 0.73312 0.22463 0.86955 0.0
N1247 N 0.666 0.24788 0.88751 0.0
C1248 C 0.65199 0.19908 0.88844 0.0
C1249 C 0.68856 0.18646 0.87902 0.0
C1250 C 0.48146 0.63476 0.38 0.0
C1251 C 0.46993 0.59485 0.40205 0.0
C1252 C 0.53099 0.66911 0.37137 0.0
C1253 C 0.57075 0.6649 0.38455 0.0
H1254 H 0.45262 0.64217 0.37199 0.0
H1255 H 0.53844 0.7016 0.35685 0.0
S1256 S 0.56017 0.56729 0.44313 0.0
N1257 N 0.50238 0.55229 0.43548 0.0
N1258 N 0.59459 0.61763 0.42061 0.0
C1259 C 0.55931 0.62386 0.40509 0.0
C1260 C 0.50918 0.58859 0.41335 0.0
C1261 C 0.86863 0.52229 0.86696 0.0
C1262 C 0.91669 0.55969 0.87595 0.0
C1263 C 0.85098 0.47233 0.87537 0.0
C1264 C 0.88098 0.45764 0.89266 0.0
H1265 H 0.84297 0.53224 0.85612 0.0
H1266 H 0.81231 0.44573 0.87097 0.0
S1267 S 1.01099 0.54038 0.91915 0.0
N1268 N 0.99471 0.57792 0.90122 0.0
N1269 N 0.96242 0.48412 0.91594 0.0
C1270 C 0.93035 0.49404 0.89917 0.0
C1271 C 0.94801 0.545 0.89106 0.0
C1272 C 0.22029 0.41059 0.2676 0.0
C1273 C 0.19383 0.36619 0.28614 0.0
C1274 C 0.22986 0.41 0.23232 0.0
C1275 C 0.21123 0.36501 0.21409 0.0
H1276 H 0.23327 0.44581 0.28028 0.0
H1277 H 0.25172 0.44485 0.21926 0.0
S1278 S 0.13919 0.23833 0.25064 0.0
N1279 N 0.1542 0.27599 0.28345 0.0
N1280 N 0.16106 0.27503 0.21746 0.0
C1281 C 0.18267 0.32069 0.23231 0.0
C1282 C 0.17759 0.32125 0.26821 0.0
C1283 C 0.87016 0.17142 0.731 0.0
C1284 C 0.859 0.20443 0.71411 0.0
C1285 C 0.85863 0.15905 0.76509 0.0
C1286 C 0.83238 0.17633 0.7843 0.0
H1287 H 0.8889 0.15493 0.71796 0.0
H1288 H 0.87083 0.13535 0.77636 0.0
S1289 S 0.79449 0.26466 0.75312 0.0
N1290 N 0.82151 0.25596 0.71981 0.0
N1291 N 0.79679 0.23002 0.78407 0.0
C1292 C 0.8205 0.20938 0.76805 0.0
C1293 C 0.83385 0.22343 0.73295 0.0
C1294 C 0.70988 0.86991 0.23879 0.0
C1295 C 0.66753 0.84616 0.2179 0.0
C1296 C 0.70907 0.85886 0.27309 0.0
C1297 C 0.6669 0.82035 0.28862 0.0
H1298 H 0.74524 0.89732 0.22871 0.0
H1299 H 0.74308 0.88039 0.28731 0.0
S1300 S 0.5479 0.73906 0.2447 0.0
N1301 N 0.5824 0.77869 0.21492 0.0
N1302 N 0.58219 0.75455 0.27961 0.0
C1303 C 0.62445 0.79391 0.26807 0.0
C1304 C 0.62466 0.80698 0.23271 0.0
C1305 C 0.86542 0.70524 0.73295 0.0
C1306 C 0.83834 0.6613 0.71402 0.0
C1307 C 0.87233 0.70484 0.76785 0.0
C1308 C 0.85833 0.66076 0.78577 0.0
H1309 H 0.87994 0.74119 0.7211 0.0
H1310 H 0.89076 0.74046 0.7806 0.0
S1311 S 0.78915 0.53454 0.74851 0.0
N1312 N 0.79585 0.57134 0.71626 0.0
N1313 N 0.81677 0.57102 0.78157 0.0
C1314 C 0.83284 0.61605 0.76726 0.0
C1315 C 0.82194 0.61627 0.73152 0.0
C1316 C 0.21358 0.81544 0.22994 0.0
C1317 C 0.18725 0.83342 0.21114 0.0
C1318 C 0.22462 0.82688 0.26505 0.0
C1319 C 0.20835 0.85536 0.28296 0.0
H1320 H 0.2257 0.79241 0.2175 0.0
H1321 H 0.2463 0.81369 0.27813 0.0
S1322 S 0.13649 0.90993 0.24608 0.0
N1323 N 0.14842 0.88443 0.21351 0.0
N1324 N 0.16028 0.8971 0.27923 0.0
C1325 C 0.18005 0.87137 0.26459 0.0
C1326 C 0.17236 0.86324 0.22883 0.0
C1327 C 0.36609 0.16531 0.7795 0.0
C1328 C 0.39287 0.21522 0.78878 0.0
C1329 C 0.36636 0.15009 0.74626 0.0
C1330 C 0.39082 0.18344 0.71964 0.0
H1331 H 0.34322 0.13751 0.798 0.0
H1332 H 0.34536 0.11146 0.74139 0.0
S1333 S 0.46591 0.32 0.73046 0.0
N1334 N 0.44519 0.29944 0.76915 0.0
N1335 N 0.44488 0.27054 0.70572 0.0
C1336 C 0.41921 0.23408 0.72864 0.0
C1337 C 0.41978 0.24991 0.76326 0.0
C1338 C 0.353 0.32094 0.99085 0.0
C1339 C 0.32027 0.27779 0.97244 0.0
C1340 C 0.33565 0.34208 0.01547 0.0
C1341 C 0.28503 0.32006 0.0239 0.0
H1342 H 0.39226 0.33913 0.98575 0.0
H1343 H 0.36245 0.3743 0.02939 0.0
S1344 S 0.18335 0.20875 0.98233 0.0
N1345 N 0.23367 0.21591 0.96352 0.0
N1346 N 0.20248 0.25404 0.01047 0.0
C1347 C 0.25209 0.27769 0.00528 0.0
C1348 C 0.26928 0.25693 0.97968 0.0
C1349 C 0.07671 0.31666 0.50572 0.0
C1350 C 0.06152 0.31135 0.47152 0.0
C1351 C 0.04185 0.29657 0.53261 0.0
C1352 C 0.98977 0.27277 0.52722 0.0
H1353 H 0.11566 0.33462 0.51185 0.0
H1354 H 0.05631 0.30036 0.55812 0.0
S1355 S 0.92944 0.24651 0.44275 0.0
N1356 N 0.98901 0.27618 0.43443 0.0
N1357 N 0.92586 0.2437 0.48454 0.0
C1358 C 0.9743 0.26773 0.4934 0.0
C1359 C 1.00938 0.28565 0.46593 0.0
C1360 C 0.72156 0.96546 0.99623 0.0
C1361 C 0.72904 0.9813 0.03034 0.0
C1362 C 0.73889 0.99961 0.96894 0.0
C1363 C 0.76137 0.05176 0.97361 0.0
H1364 H 0.7043 0.92667 0.99013 0.0
H1365 H 0.73388 0.98435 0.94358 0.0
S1366 S 0.78999 0.11364 0.05802 0.0
N1367 N 0.7655 0.05443 0.06679 0.0
N1368 N 0.78777 0.11613 0.01627 0.0
C1369 C 0.76713 0.06782 0.00756 0.0
C1370 C 0.75368 0.03346 0.03542 0.0
C1371 C 0.71959 0.69271 0.51421 0.0
C1372 C 0.76896 0.71952 0.52619 0.0
C1373 C 0.70041 0.71331 0.49045 0.0
C1374 C 0.73033 0.76102 0.47656 0.0
H1375 H 0.69485 0.65657 0.52451 0.0
H1376 H 0.66248 0.69098 0.48197 0.0
S1377 S 0.86301 0.84505 0.49743 0.0
N1378 N 0.84718 0.79586 0.52125 0.0
N1379 N 0.81277 0.83326 0.47603 0.0
C1380 C 0.78003 0.78731 0.4877 0.0
C1381 C 0.7989 0.76693 0.51235 0.0
C1382 C 1.00408 0.76373 0.98594 0.0
C1383 C 0.9827 0.71487 0.97336 0.0
C1384 C 0.04261 0.78281 0.01023 0.0
C1385 C 0.06355 0.75494 0.02261 0.0
H1386 H 0.99083 0.78778 0.97687 0.0
H1387 H 0.05582 0.81995 0.01982 0.0
S1388 S 1.02295 0.62539 0.99726 0.0
N1389 N 0.9861 0.63886 0.97527 0.0
N1390 N 0.05989 0.67547 0.01967 0.0
C1391 C 0.0435 0.70633 0.00968 0.0
C1392 C 1.00267 0.68608 0.98574 0.0
C1393 C 0.31603 0.03415 0.46903 0.0
C1394 C 0.28721 0.98194 0.47299 0.0
C1395 C 0.3348 0.06724 0.49684 0.0
C1396 C 0.32229 0.05074 0.5305 0.0
H1397 H 0.32457 0.05032 0.44389 0.0
H1398 H 0.35781 0.10597 0.49132 0.0
S1399 S 0.24209 0.91891 0.55604 0.0
N1400 N 0.24541 0.91668 0.51431 0.0
N1401 N 0.27561 0.97795 0.56595 0.0
C1402 C 0.2914 0.99892 0.5349 0.0
C1403 C 0.27497 0.96498 0.50657 0.0
loop_
_geom_bond_atom_site_label_1
_geom_bond_atom_site_label_2
_geom_bond_distance
_geom_bond_site_symmetry_2
_ccdc_geom_bond_type
C0 C2 1.422 . S
C0 C4 1.415 . S
C0 N6 1.369 . S
C1 C2 1.421 1_655 S
C1 C3 1.417 . S
C1 C13 1.422 . S
C2 C0 1.422 . S
C2 C1 1.421 1_455 S
C2 N12 1.359 . S
C3 C1 1.417 . S
C3 C5 1.329 . S
C3 H22 0.930 . S
C4 C0 1.415 . S
C4 C5 1.437 1_455 S
C4 C8 1.413 1_554 S
C5 C3 1.329 . S
C5 C4 1.437 1_655 S
C5 H27 0.929 1_554 S
N6 C0 1.369 . S
N6 C7 1.338 1_554 S
N6 Gd11 2.622 . S
C7 N6 1.338 1_556 S
C7 C9 1.378 . S
C7 H19 0.929 . S
C8 C4 1.413 1_556 S
C8 C9 1.348 . S
C8 H24 0.931 . S
C9 C7 1.378 . S
C9 C8 1.348 . S
C9 H25 0.930 . S
Gd10 N30 2.622 . S
Gd10 N37 2.570 . S
Gd10 O44 2.353 . S
Gd10 O45 2.468 . S
Gd10 O46 2.427 . S
Gd10 O48 2.388 . S
Gd10 O49 2.386 . S
Gd10 O53 2.307 . S
Gd10 C63 2.805 . S
Gd11 N6 2.622 . S
Gd11 N12 2.570 . S
Gd11 O43 2.386 . S
Gd11 O47 2.307 . S
Gd11 O50 2.353 . S
Gd11 O51 2.468 . S
Gd11 O52 2.427 . S
Gd11 O54 2.388 . S
Gd11 C75 2.805 . S
N12 C2 1.359 . S
N12 Gd11 2.570 . S
N12 C14 1.343 . S
C13 C1 1.422 . S
C13 C15 1.321 1_655 S
C13 H21 0.931 . S
C14 N12 1.343 . S
C14 C15 1.390 . S
C14 H16 0.931 . S
C15 C13 1.321 1_455 S
C15 C14 1.390 . S
C15 H17 0.930 1_455 S
H16 C14 0.931 . S
H17 C15 0.930 1_655 S
H18 C41 0.931 . S
H19 C7 0.929 . S
H20 C42 0.930 . S
H21 C13 0.931 . S
H22 C3 0.930 . S
H23 C32 0.929 . S
H24 C8 0.931 . S
H25 C9 0.930 . S
H26 C64 0.930 . S
H27 C5 0.929 1_556 S
H28 C33 0.931 . S
H29 C34 0.930 . S
N30 Gd10 2.622 . S
N30 C31 1.369 . S
N30 C32 1.338 . S
C31 N30 1.369 . S
C31 C35 1.415 . S
C31 C38 1.422 . S
C32 H23 0.929 . S
C32 N30 1.338 . S
C32 C34 1.378 . S
C33 H28 0.931 . S
C33 C34 1.348 . S
C33 C35 1.413 . S
C34 H29 0.930 . S
C34 C32 1.378 . S
C34 C33 1.348 . S
C35 C31 1.415 . S
C35 C33 1.413 . S
C35 C65 1.437 . S
H36 C65 0.929 . S
N37 Gd10 2.570 . S
N37 C38 1.359 . S
N37 C41 1.343 . S
C38 C31 1.422 . S
C38 N37 1.359 . S
C38 C40 1.421 . S
C39 C40 1.422 . S
C39 C42 1.321 . S
C39 H66 0.931 . S
C40 C38 1.421 . S
C40 C39 1.422 . S
C40 C64 1.417 . S
C41 H18 0.931 . S
C41 N37 1.343 . S
C41 C42 1.390 . S
C42 H20 0.930 . S
C42 C39 1.321 . S
C42 C41 1.390 . S
O43 Gd11 2.386 . S
O43 C55 1.265 . S
O44 Gd10 2.353 . S
O44 C55 1.242 . S
O45 Gd10 2.468 . S
O45 C63 1.263 . S
O46 Gd10 2.427 . S
O46 C63 1.252 . S
O47 Gd11 2.307 . S
O47 C56 1.261 . S
O48 Gd10 2.388 . S
O48 C56 1.252 . S
O49 Gd10 2.386 . S
O49 C67 1.265 . S
O50 Gd11 2.353 . S
O50 C67 1.242 . S
O51 Gd11 2.468 . S
O51 C75 1.263 . S
O52 Gd11 2.427 . S
O52 C75 1.252 . S
O53 Gd10 2.307 . S
O53 C68 1.261 . S
O54 Gd11 2.388 . S
O54 C68 1.252 . S
C55 O43 1.265 . S
C55 O44 1.242 . S
C56 O47 1.261 . S
C56 O48 1.252 . S
C57 C60 1.394 . S
C57 C62 1.370 . S
C57 C63 1.500 . S
C58 C61 1.383 . S
C58 C62 1.395 . S
C59 C60 1.396 . S
C59 C61 1.365 . S
C59 H76 0.929 . S
C60 C57 1.394 . S
C60 C59 1.396 . S
C60 H77 0.930 . S
C61 C58 1.383 . S
C61 C59 1.365 . S
C61 H78 0.931 . S
C62 C57 1.370 . S
C62 C58 1.395 . S
C62 H79 0.930 . S
C63 Gd10 2.805 . S
C63 O45 1.263 . S
C63 O46 1.252 . S
C63 C57 1.500 . S
C64 H26 0.930 . S
C64 C40 1.417 . S
C64 C65 1.329 . S
C65 C35 1.437 . S
C65 H36 0.929 . S
C65 C64 1.329 . S
H66 C39 0.931 . S
C67 O49 1.265 . S
C67 O50 1.242 . S
C68 O53 1.261 . S
C68 O54 1.252 . S
C69 C72 1.394 . S
C69 C74 1.370 . S
C69 C75 1.500 . S
C70 C73 1.383 . S
C70 C74 1.395 . S
C71 C72 1.396 . S
C71 C73 1.365 . S
C71 H80 0.929 . S
C72 C69 1.394 . S
C72 C71 1.396 . S
C72 H81 0.930 . S
C73 C70 1.383 . S
C73 C71 1.365 . S
C73 H82 0.931 . S
C74 C69 1.370 . S
C74 C70 1.395 . S
C74 H83 0.930 . S
C75 Gd11 2.805 . S
C75 O51 1.263 . S
C75 O52 1.252 . S
C75 C69 1.500 . S
H76 C59 0.929 . S
H77 C60 0.930 . S
H78 C61 0.931 . S
H79 C62 0.930 . S
H80 C71 0.929 . S
H81 C72 0.930 . S
H82 C73 0.931 . S
H83 C74 0.930 . S
C84 C86 1.422 . S
C84 C88 1.415 . S
C84 N90 1.369 . S
C85 C86 1.421 1_565 S
C85 C87 1.417 . S
C85 C97 1.422 . S
C86 C84 1.422 . S
C86 C85 1.421 1_545 S
C86 N96 1.359 . S
C87 C85 1.417 . S
C87 C89 1.329 . S
C87 H106 0.930 . S
C88 C84 1.415 . S
C88 C89 1.437 1_545 S
C88 C92 1.413 . S
C89 C87 1.329 . S
C89 C88 1.437 1_565 S
C89 H111 0.929 . S
N90 C84 1.369 . S
N90 C91 1.338 . S
N90 Gd95 2.622 . S
C91 N90 1.338 . S
C91 C93 1.378 . S
C91 H103 0.929 . S
C92 C88 1.413 . S
C92 C93 1.348 . S
C92 H108 0.931 . S
C93 C91 1.378 . S
C93 C92 1.348 . S
C93 H109 0.930 . S
Gd94 N114 2.622 . S
Gd94 N121 2.570 . S
Gd94 O128 2.353 . S
Gd94 O129 2.468 . S
Gd94 O130 2.427 . S
Gd94 O132 2.388 . S
Gd94 O133 2.386 . S
Gd94 O137 2.307 . S
Gd94 C147 2.805 1_655 S
Gd95 N90 2.622 . S
Gd95 N96 2.570 . S
Gd95 O127 2.386 . S
Gd95 O131 2.307 . S
Gd95 O134 2.353 . S
Gd95 O135 2.468 . S
Gd95 O136 2.427 . S
Gd95 O138 2.388 . S
Gd95 C159 2.805 . S
N96 C86 1.359 . S
N96 Gd95 2.570 . S
N96 C98 1.343 . S
C97 C85 1.422 . S
C97 C99 1.321 1_565 S
C97 H105 0.931 . S
C98 N96 1.343 . S
C98 C99 1.390 . S
C98 H100 0.931 . S
C99 C97 1.321 1_545 S
C99 C98 1.390 . S
C99 H101 0.930 1_545 S
H100 C98 0.931 . S
H101 C99 0.930 1_565 S
H102 C125 0.933 1_655 S
H103 C91 0.929 . S
H104 C126 0.930 . S
H105 C97 0.931 . S
H106 C87 0.930 . S
H107 C116 0.929 . S
H108 C92 0.931 . S
H109 C93 0.930 . S
H110 C148 0.930 . S
H111 C89 0.929 . S
H112 C117 0.931 . S
H113 C118 0.930 . S
N114 Gd94 2.622 . S
N114 C115 1.369 . S
N114 C116 1.338 . S
C115 N114 1.369 . S
C115 C119 1.415 . S
C115 C122 1.422 1_655 S
C116 H107 0.929 . S
C116 N114 1.338 . S
C116 C118 1.378 . S
C117 H112 0.931 . S
C117 C118 1.348 . S
C117 C119 1.413 . S
C118 H113 0.930 . S
C118 C116 1.378 . S
C118 C117 1.348 . S
C119 C115 1.415 . S
C119 C117 1.413 . S
C119 C149 1.437 1_655 S
H120 C149 0.929 . S
N121 Gd94 2.570 . S
N121 C122 1.359 1_655 S
N121 C125 1.343 1_655 S
C122 C115 1.422 1_455 S
C122 N121 1.359 1_455 S
C122 C124 1.421 . S
C123 C124 1.422 . S
C123 C126 1.321 . S
C123 H150 0.931 . S
C124 C122 1.421 . S
C124 C123 1.422 . S
C124 C148 1.417 . S
C125 H102 0.933 1_455 S
C125 N121 1.343 1_455 S
C125 C126 1.390 . S
C126 H104 0.930 . S
C126 C123 1.321 . S
C126 C125 1.390 . S
O127 Gd95 2.386 . S
O127 C139 1.265 . S
O128 Gd94 2.353 . S
O128 C139 1.242 . S
O129 Gd94 2.468 . S
O129 C147 1.263 1_655 S
O130 Gd94 2.427 . S
O130 C147 1.252 1_655 S
O131 Gd95 2.307 . S
O131 C140 1.261 . S
O132 Gd94 2.388 . S
O132 C140 1.252 . S
O133 Gd94 2.386 . S
O133 C151 1.265 . S
O134 Gd95 2.353 . S
O134 C151 1.242 . S
O135 Gd95 2.468 . S
O135 C159 1.263 . S
O136 Gd95 2.427 . S
O136 C159 1.252 . S
O137 Gd94 2.307 . S
O137 C152 1.261 . S
O138 Gd95 2.388 . S
O138 C152 1.252 . S
C139 O127 1.265 . S
C139 O128 1.242 . S
C140 O131 1.261 . S
C140 O132 1.252 . S
C141 C144 1.394 . S
C141 C146 1.370 . S
C141 C147 1.500 . S
C142 C145 1.383 . S
C142 C146 1.395 . S
C143 C144 1.396 . S
C143 C145 1.365 . S
C143 H160 0.929 . S
C144 C141 1.394 . S
C144 C143 1.396 . S
C144 H161 0.930 . S
C145 C142 1.383 . S
C145 C143 1.365 . S
C145 H162 0.931 . S
C146 C141 1.370 . S
C146 C142 1.395 . S
C146 H163 0.930 . S
C147 Gd94 2.805 1_455 S
C147 O129 1.263 1_455 S
C147 O130 1.252 1_455 S
C147 C141 1.500 . S
C148 H110 0.930 . S
C148 C124 1.417 . S
C148 C149 1.329 . S
C149 C119 1.437 1_455 S
C149 H120 0.929 . S
C149 C148 1.329 . S
H150 C123 0.931 . S
C151 O133 1.265 . S
C151 O134 1.242 . S
C152 O137 1.261 . S
C152 O138 1.252 . S
C153 C156 1.394 . S
C153 C158 1.370 . S
C153 C159 1.500 . S
C154 C157 1.383 . S
C154 C158 1.395 . S
C155 C156 1.396 . S
C155 C157 1.365 . S
C155 H164 0.929 . S
C156 C153 1.394 . S
C156 C155 1.396 . S
C156 H165 0.930 . S
C157 C154 1.383 . S
C157 C155 1.365 . S
C157 H166 0.931 . S
C158 C153 1.370 . S
C158 C154 1.395 . S
C158 H167 0.930 . S
C159 Gd95 2.805 . S
C159 O135 1.263 . S
C159 O136 1.252 . S
C159 C153 1.500 . S
H160 C143 0.929 . S
H161 C144 0.930 . S
H162 C145 0.931 . S
H163 C146 0.930 . S
H164 C155 0.929 . S
H165 C156 0.930 . S
H166 C157 0.931 . S
H167 C158 0.930 . S
C168 C170 1.422 . S
C168 C172 1.415 . S
C168 N174 1.369 . S
C169 C170 1.421 . S
C169 C171 1.417 . S
C169 C181 1.422 . S
C170 C168 1.422 . S
C170 C169 1.421 . S
C170 N180 1.359 . S
C171 C169 1.417 . S
C171 C173 1.329 . S
C171 H190 0.930 . S
C172 C168 1.415 . S
C172 C173 1.437 . S
C172 C176 1.413 1_554 S
C173 C171 1.329 . S
C173 C172 1.437 . S
C173 H195 0.929 1_554 S
N174 C168 1.369 . S
N174 C175 1.338 1_554 S
N174 Gd179 2.622 . S
C175 N174 1.338 1_556 S
C175 C177 1.378 . S
C175 H187 0.929 . S
C176 C172 1.413 1_556 S
C176 C177 1.348 . S
C176 H192 0.931 . S
C177 C175 1.378 . S
C177 C176 1.348 . S
C177 H193 0.930 . S
Gd178 N198 2.622 . S
Gd178 N205 2.570 . S
Gd178 O212 2.353 . S
Gd178 O213 2.468 . S
Gd178 O214 2.427 . S
Gd178 O216 2.388 . S
Gd178 O217 2.386 . S
Gd178 O221 2.307 . S
Gd178 C231 2.805 1_565 S
Gd179 N174 2.622 . S
Gd179 N180 2.570 . S
Gd179 O211 2.386 . S
Gd179 O215 2.307 . S
Gd179 O218 2.353 . S
Gd179 O219 2.468 . S
Gd179 O220 2.427 . S
Gd179 O222 2.388 . S
Gd179 C243 2.805 . S
N180 C170 1.359 . S
N180 Gd179 2.570 . S
N180 C182 1.343 . S
C181 C169 1.422 . S
C181 C183 1.321 . S
C181 H189 0.931 . S
C182 N180 1.343 . S
C182 C183 1.390 . S
C182 H184 0.931 . S
C183 C181 1.321 . S
C183 C182 1.390 . S
C183 H185 0.930 . S
H184 C182 0.931 . S
H185 C183 0.930 . S
H186 C209 0.923 1_565 S
H187 C175 0.929 . S
H188 C210 0.930 . S
H189 C181 0.931 . S
H190 C171 0.930 . S
H191 C200 0.929 . S
H192 C176 0.931 . S
H193 C177 0.930 . S
H194 C232 0.930 . S
H195 C173 0.929 1_556 S
H196 C201 0.931 . S
H197 C202 0.930 . S
N198 Gd178 2.622 . S
N198 C199 1.369 . S
N198 C200 1.338 . S
C199 N198 1.369 . S
C199 C203 1.415 . S
C199 C206 1.422 1_565 S
C200 H191 0.929 . S
C200 N198 1.338 . S
C200 C202 1.378 . S
C201 H196 0.931 . S
C201 C202 1.348 . S
C201 C203 1.413 . S
C202 H197 0.930 . S
C202 C200 1.378 . S
C202 C201 1.348 . S
C203 C199 1.415 . S
C203 C201 1.413 . S
C203 C233 1.437 1_565 S
H204 C233 0.929 . S
N205 Gd178 2.570 . S
N205 C206 1.359 1_565 S
N205 C209 1.343 1_565 S
C206 C199 1.422 1_545 S
C206 N205 1.359 1_545 S
C206 C208 1.421 . S
C207 C208 1.422 . S
C207 C210 1.321 . S
C207 H234 0.931 . S
C208 C206 1.421 . S
C208 C207 1.422 . S
C208 C232 1.417 . S
C209 H186 0.923 1_545 S
C209 N205 1.343 1_545 S
C209 C210 1.390 . S
C210 H188 0.930 . S
C210 C207 1.321 . S
C210 C209 1.390 . S
O211 Gd179 2.386 . S
O211 C223 1.265 . S
O212 Gd178 2.353 . S
O212 C223 1.242 . S
O213 Gd178 2.468 . S
O213 C231 1.263 1_565 S
O214 Gd178 2.427 . S
O214 C231 1.252 1_565 S
O215 Gd179 2.307 . S
O215 C224 1.261 . S
O216 Gd178 2.388 . S
O216 C224 1.252 . S
O217 Gd178 2.386 . S
O217 C235 1.265 . S
O218 Gd179 2.353 . S
O218 C235 1.242 . S
O219 Gd179 2.468 . S
O219 C243 1.263 . S
O220 Gd179 2.427 . S
O220 C243 1.252 . S
O221 Gd178 2.307 . S
O221 C236 1.261 . S
O222 Gd179 2.388 . S
O222 C236 1.252 . S
C223 O211 1.265 . S
C223 O212 1.242 . S
C224 O215 1.261 . S
C224 O216 1.252 . S
C225 C228 1.394 . S
C225 C230 1.370 . S
C225 C231 1.500 . S
C226 C229 1.383 . S
C226 C230 1.395 . S
C227 C228 1.396 . S
C227 C229 1.365 . S
C227 H244 0.929 . S
C228 C225 1.394 . S
C228 C227 1.396 . S
C228 H245 0.930 . S
C229 C226 1.383 . S
C229 C227 1.365 . S
C229 H246 0.931 . S
C230 C225 1.370 . S
C230 C226 1.395 . S
C230 H247 0.930 . S
C231 Gd178 2.805 1_545 S
C231 O213 1.263 1_545 S
C231 O214 1.252 1_545 S
C231 C225 1.500 . S
C232 H194 0.930 . S
C232 C208 1.417 . S
C232 C233 1.329 . S
C233 C203 1.437 1_545 S
C233 H204 0.929 . S
C233 C232 1.329 . S
H234 C207 0.931 . S
C235 O217 1.265 . S
C235 O218 1.242 . S
C236 O221 1.261 . S
C236 O222 1.252 . S
C237 C240 1.394 . S
C237 C242 1.370 . S
C237 C243 1.500 . S
C238 C241 1.383 . S
C238 C242 1.395 . S
C239 C240 1.396 . S
C239 C241 1.365 . S
C239 H248 0.929 . S
C240 C237 1.394 . S
C240 C239 1.396 . S
C240 H249 0.930 . S
C241 C238 1.383 . S
C241 C239 1.365 . S
C241 H250 0.931 . S
C242 C237 1.370 . S
C242 C238 1.395 . S
C242 H251 0.930 . S
C243 Gd179 2.805 . S
C243 O219 1.263 . S
C243 O220 1.252 . S
C243 C237 1.500 . S
H244 C227 0.929 . S
H245 C228 0.930 . S
H246 C229 0.931 . S
H247 C230 0.930 . S
H248 C239 0.929 . S
H249 C240 0.930 . S
H250 C241 0.931 . S
H251 C242 0.930 . S
C252 C254 1.422 . S
C252 C256 1.415 . S
C252 N258 1.369 . S
C253 C254 1.421 1_455 S
C253 C255 1.417 . S
C253 C265 1.422 . S
C254 C252 1.422 . S
C254 C253 1.421 1_655 S
C254 N264 1.359 . S
C255 C253 1.417 . S
C255 C257 1.329 . S
C255 H274 0.930 . S
C256 C252 1.415 . S
C256 C257 1.437 1_655 S
C256 C260 1.413 . S
C257 C255 1.329 . S
C257 C256 1.437 1_455 S
C257 H279 0.929 . S
N258 C252 1.369 . S
N258 C259 1.338 . S
N258 Gd263 2.622 . S
C259 N258 1.338 . S
C259 C261 1.378 . S
C259 H271 0.929 . S
C260 C256 1.413 . S
C260 C261 1.348 . S
C260 H276 0.931 . S
C261 C259 1.378 . S
C261 C260 1.348 . S
C261 H277 0.930 . S
Gd262 N282 2.622 . S
Gd262 N289 2.570 . S
Gd262 O296 2.353 . S
Gd262 O297 2.468 . S
Gd262 O298 2.427 . S
Gd262 O300 2.388 . S
Gd262 O301 2.386 . S
Gd262 O305 2.307 . S
Gd262 C315 2.805 . S
Gd263 N258 2.622 . S
Gd263 N264 2.570 . S
Gd263 O295 2.386 . S
Gd263 O299 2.307 . S
Gd263 O302 2.353 . S
Gd263 O303 2.468 . S
Gd263 O304 2.427 . S
Gd263 O306 2.388 . S
Gd263 C327 2.805 . S
N264 C254 1.359 . S
N264 Gd263 2.570 . S
N264 C266 1.343 . S
C265 C253 1.422 . S
C265 C267 1.321 1_455 S
C265 H273 0.931 . S
C266 N264 1.343 . S
C266 C267 1.390 . S
C266 H268 0.931 . S
C267 C265 1.321 1_655 S
C267 C266 1.390 . S
C267 H269 0.930 1_655 S
H268 C266 0.931 . S
H269 C267 0.930 1_455 S
H270 C293 0.931 . S
H271 C259 0.929 . S
H272 C294 0.930 . S
H273 C265 0.931 . S
H274 C255 0.930 . S
H275 C284 0.929 . S
H276 C260 0.931 . S
H277 C261 0.930 . S
H278 C316 0.930 . S
H279 C257 0.929 . S
H280 C285 0.931 . S
H281 C286 0.930 . S
N282 Gd262 2.622 . S
N282 C283 1.369 . S
N282 C284 1.338 . S
C283 N282 1.369 . S
C283 C287 1.415 . S
C283 C290 1.422 . S
C284 H275 0.929 . S
C284 N282 1.338 . S
C284 C286 1.378 . S
C285 H280 0.931 . S
C285 C286 1.348 . S
C285 C287 1.413 . S
C286 H281 0.930 . S
C286 C284 1.378 . S
C286 C285 1.348 . S
C287 C283 1.415 . S
C287 C285 1.413 . S
C287 C317 1.437 . S
H288 C317 0.929 . S
N289 Gd262 2.570 . S
N289 C290 1.359 . S
N289 C293 1.343 . S
C290 C283 1.422 . S
C290 N289 1.359 . S
C290 C292 1.421 . S
C291 C292 1.422 . S
C291 C294 1.321 . S
C291 H318 0.931 . S
C292 C290 1.421 . S
C292 C291 1.422 . S
C292 C316 1.417 . S
C293 H270 0.931 . S
C293 N289 1.343 . S
C293 C294 1.390 . S
C294 H272 0.930 . S
C294 C291 1.321 . S
C294 C293 1.390 . S
O295 Gd263 2.386 . S
O295 C307 1.265 . S
O296 Gd262 2.353 . S
O296 C307 1.242 . S
O297 Gd262 2.468 . S
O297 C315 1.263 . S
O298 Gd262 2.427 . S
O298 C315 1.252 . S
O299 Gd263 2.307 . S
O299 C308 1.261 . S
O300 Gd262 2.388 . S
O300 C308 1.252 . S
O301 Gd262 2.386 . S
O301 C319 1.265 . S
O302 Gd263 2.353 . S
O302 C319 1.242 . S
O303 Gd263 2.468 . S
O303 C327 1.263 . S
O304 Gd263 2.427 . S
O304 C327 1.252 . S
O305 Gd262 2.307 . S
O305 C320 1.261 . S
O306 Gd263 2.388 . S
O306 C320 1.252 . S
C307 O295 1.265 . S
C307 O296 1.242 . S
C308 O299 1.261 . S
C308 O300 1.252 . S
C309 C312 1.394 . S
C309 C314 1.370 . S
C309 C315 1.500 . S
C310 C313 1.383 . S
C310 C314 1.395 . S
C311 C312 1.396 . S
C311 C313 1.365 . S
C311 H328 0.929 . S
C312 C309 1.394 . S
C312 C311 1.396 . S
C312 H329 0.930 . S
C313 C310 1.383 . S
C313 C311 1.365 . S
C313 H330 0.931 . S
C314 C309 1.370 . S
C314 C310 1.395 . S
C314 H331 0.930 . S
C315 Gd262 2.805 . S
C315 O297 1.263 . S
C315 O298 1.252 . S
C315 C309 1.500 . S
C316 H278 0.930 . S
C316 C292 1.417 . S
C316 C317 1.329 . S
C317 C287 1.437 . S
C317 H288 0.929 . S
C317 C316 1.329 . S
H318 C291 0.931 . S
C319 O301 1.265 . S
C319 O302 1.242 . S
C320 O305 1.261 . S
C320 O306 1.252 . S
C321 C324 1.394 . S
C321 C326 1.370 . S
C321 C327 1.500 . S
C322 C325 1.383 . S
C322 C326 1.395 . S
C323 C324 1.396 . S
C323 C325 1.365 . S
C323 H332 0.929 . S
C324 C321 1.394 . S
C324 C323 1.396 . S
C324 H333 0.930 . S
C325 C322 1.383 . S
C325 C323 1.365 . S
C325 H334 0.931 . S
C326 C321 1.370 . S
C326 C322 1.395 . S
C326 H335 0.930 . S
C327 Gd263 2.805 . S
C327 O303 1.263 . S
C327 O304 1.252 . S
C327 C321 1.500 . S
H328 C311 0.929 . S
H329 C312 0.930 . S
H330 C313 0.931 . S
H331 C314 0.930 . S
H332 C323 0.929 . S
H333 C324 0.930 . S
H334 C325 0.931 . S
H335 C326 0.930 . S
C336 C338 1.422 . S
C336 C340 1.415 . S
C336 N342 1.369 . S
C337 C338 1.421 1_545 S
C337 C339 1.417 . S
C337 C349 1.422 . S
C338 C336 1.422 . S
C338 C337 1.421 1_565 S
C338 N348 1.359 . S
C339 C337 1.417 . S
C339 C341 1.329 . S
C339 H358 0.930 . S
C340 C336 1.415 . S
C340 C341 1.437 1_565 S
C340 C344 1.413 1_554 S
C341 C339 1.329 . S
C341 C340 1.437 1_545 S
C341 H363 0.929 1_554 S
N342 C336 1.369 . S
N342 C343 1.338 1_554 S
N342 Gd347 2.622 . S
C343 N342 1.338 1_556 S
C343 C345 1.378 . S
C343 H355 0.929 . S
C344 C340 1.413 1_556 S
C344 C345 1.348 . S
C344 H360 0.931 . S
C345 C343 1.378 . S
C345 C344 1.348 . S
C345 H361 0.930 . S
Gd346 N366 2.622 . S
Gd346 N373 2.570 . S
Gd346 O380 2.353 . S
Gd346 O381 2.468 . S
Gd346 O382 2.427 . S
Gd346 O384 2.388 . S
Gd346 O385 2.386 . S
Gd346 O389 2.307 . S
Gd346 C399 2.805 1_455 S
Gd347 N342 2.622 . S
Gd347 N348 2.570 . S
Gd347 O379 2.386 . S
Gd347 O383 2.307 . S
Gd347 O386 2.353 . S
Gd347 O387 2.468 . S
Gd347 O388 2.427 . S
Gd347 O390 2.388 . S
Gd347 C411 2.805 . S
N348 C338 1.359 . S
N348 Gd347 2.570 . S
N348 C350 1.343 . S
C349 C337 1.422 . S
C349 C351 1.321 1_545 S
C349 H357 0.931 . S
C350 N348 1.343 . S
C350 C351 1.390 . S
C350 H352 0.931 . S
C351 C349 1.321 1_565 S
C351 C350 1.390 . S
C351 H353 0.930 1_565 S
H352 C350 0.931 . S
H353 C351 0.930 1_545 S
H354 C377 0.933 1_455 S
H355 C343 0.929 . S
H356 C378 0.930 . S
H357 C349 0.931 . S
H358 C339 0.930 . S
H359 C368 0.929 . S
H360 C344 0.931 . S
H361 C345 0.930 . S
H362 C400 0.930 . S
H363 C341 0.929 1_556 S
H364 C369 0.931 . S
H365 C370 0.930 . S
N366 Gd346 2.622 . S
N366 C367 1.369 . S
N366 C368 1.338 . S
C367 N366 1.369 . S
C367 C371 1.415 . S
C367 C374 1.422 1_455 S
C368 H359 0.929 . S
C368 N366 1.338 . S
C368 C370 1.378 . S
C369 H364 0.931 . S
C369 C370 1.348 . S
C369 C371 1.413 . S
C370 H365 0.930 . S
C370 C368 1.378 . S
C370 C369 1.348 . S
C371 C367 1.415 . S
C371 C369 1.413 . S
C371 C401 1.437 1_455 S
H372 C401 0.929 . S
N373 Gd346 2.570 . S
N373 C374 1.359 1_455 S
N373 C377 1.343 1_455 S
C374 C367 1.422 1_655 S
C374 N373 1.359 1_655 S
C374 C376 1.421 . S
C375 C376 1.422 . S
C375 C378 1.321 . S
C375 H402 0.931 . S
C376 C374 1.421 . S
C376 C375 1.422 . S
C376 C400 1.417 . S
C377 H354 0.933 1_655 S
C377 N373 1.343 1_655 S
C377 C378 1.390 . S
C378 H356 0.930 . S
C378 C375 1.321 . S
C378 C377 1.390 . S
O379 Gd347 2.386 . S
O379 C391 1.265 . S
O380 Gd346 2.353 . S
O380 C391 1.242 . S
O381 Gd346 2.468 . S
O381 C399 1.263 1_455 S
O382 Gd346 2.427 . S
O382 C399 1.252 1_455 S
O383 Gd347 2.307 . S
O383 C392 1.261 . S
O384 Gd346 2.388 . S
O384 C392 1.252 . S
O385 Gd346 2.386 . S
O385 C403 1.265 . S
O386 Gd347 2.353 . S
O386 C403 1.242 . S
O387 Gd347 2.468 . S
O387 C411 1.263 . S
O388 Gd347 2.427 . S
O388 C411 1.252 . S
O389 Gd346 2.307 . S
O389 C404 1.261 . S
O390 Gd347 2.388 . S
O390 C404 1.252 . S
C391 O379 1.265 . S
C391 O380 1.242 . S
C392 O383 1.261 . S
C392 O384 1.252 . S
C393 C396 1.394 . S
C393 C398 1.370 . S
C393 C399 1.500 . S
C394 C397 1.383 . S
C394 C398 1.395 . S
C395 C396 1.396 . S
C395 C397 1.365 . S
C395 H412 0.929 . S
C396 C393 1.394 . S
C396 C395 1.396 . S
C396 H413 0.930 . S
C397 C394 1.383 . S
C397 C395 1.365 . S
C397 H414 0.931 . S
C398 C393 1.370 . S
C398 C394 1.395 . S
C398 H415 0.930 . S
C399 Gd346 2.805 1_655 S
C399 O381 1.263 1_655 S
C399 O382 1.252 1_655 S
C399 C393 1.500 . S
C400 H362 0.930 . S
C400 C376 1.417 . S
C400 C401 1.329 . S
C401 C371 1.437 1_655 S
C401 H372 0.929 . S
C401 C400 1.329 . S
H402 C375 0.931 . S
C403 O385 1.265 . S
C403 O386 1.242 . S
C404 O389 1.261 . S
C404 O390 1.252 . S
C405 C408 1.394 . S
C405 C410 1.370 . S
C405 C411 1.500 . S
C406 C409 1.383 . S
C406 C410 1.395 . S
C407 C408 1.396 . S
C407 C409 1.365 . S
C407 H416 0.929 . S
C408 C405 1.394 . S
C408 C407 1.396 . S
C408 H417 0.930 . S
C409 C406 1.383 . S
C409 C407 1.365 . S
C409 H418 0.931 . S
C410 C405 1.370 . S
C410 C406 1.395 . S
C410 H419 0.930 . S
C411 Gd347 2.805 . S
C411 O387 1.263 . S
C411 O388 1.252 . S
C411 C405 1.500 . S
H412 C395 0.929 . S
H413 C396 0.930 . S
H414 C397 0.931 . S
H415 C398 0.930 . S
H416 C407 0.929 . S
H417 C408 0.930 . S
H418 C409 0.931 . S
H419 C410 0.930 . S
C420 C422 1.422 . S
C420 C424 1.415 . S
C420 N426 1.369 . S
C421 C422 1.421 . S
C421 C423 1.417 . S
C421 C433 1.422 . S
C422 C420 1.422 . S
C422 C421 1.421 . S
C422 N432 1.359 . S
C423 C421 1.417 . S
C423 C425 1.329 . S
C423 H442 0.930 . S
C424 C420 1.415 . S
C424 C425 1.437 . S
C424 C428 1.413 . S
C425 C423 1.329 . S
C425 C424 1.437 . S
C425 H447 0.929 . S
N426 C420 1.369 . S
N426 C427 1.338 . S
N426 Gd431 2.622 . S
C427 N426 1.338 . S
C427 C429 1.378 . S
C427 H439 0.929 . S
C428 C424 1.413 . S
C428 C429 1.348 . S
C428 H444 0.931 . S
C429 C427 1.378 . S
C429 C428 1.348 . S
C429 H445 0.930 . S
Gd430 N450 2.622 . S
Gd430 N457 2.570 . S
Gd430 O464 2.353 . S
Gd430 O465 2.468 . S
Gd430 O466 2.427 . S
Gd430 O468 2.388 . S
Gd430 O469 2.386 . S
Gd430 O473 2.307 . S
Gd430 C483 2.805 1_545 S
Gd431 N426 2.622 . S
Gd431 N432 2.570 . S
Gd431 O463 2.386 . S
Gd431 O467 2.307 . S
Gd431 O470 2.353 . S
Gd431 O471 2.468 . S
Gd431 O472 2.427 . S
Gd431 O474 2.388 . S
Gd431 C495 2.805 . S
N432 C422 1.359 . S
N432 Gd431 2.570 . S
N432 C434 1.343 . S
C433 C421 1.422 . S
C433 C435 1.321 . S
C433 H441 0.931 . S
C434 N432 1.343 . S
C434 C435 1.390 . S
C434 H436 0.931 . S
C435 C433 1.321 . S
C435 C434 1.390 . S
C435 H437 0.930 . S
H436 C434 0.931 . S
H437 C435 0.930 . S
H438 C461 0.923 1_545 S
H439 C427 0.929 . S
H440 C462 0.930 . S
H441 C433 0.931 . S
H442 C423 0.930 . S
H443 C452 0.929 . S
H444 C428 0.931 . S
H445 C429 0.930 . S
H446 C484 0.930 . S
H447 C425 0.929 . S
H448 C453 0.931 . S
H449 C454 0.930 . S
N450 Gd430 2.622 . S
N450 C451 1.369 . S
N450 C452 1.338 . S
C451 N450 1.369 . S
C451 C455 1.415 . S
C451 C458 1.422 1_545 S
C452 H443 0.929 . S
C452 N450 1.338 . S
C452 C454 1.378 . S
C453 H448 0.931 . S
C453 C454 1.348 . S
C453 C455 1.413 . S
C454 H449 0.930 . S
C454 C452 1.378 . S
C454 C453 1.348 . S
C455 C451 1.415 . S
C455 C453 1.413 . S
C455 C485 1.437 1_545 S
H456 C485 0.929 . S
N457 Gd430 2.570 . S
N457 C458 1.359 1_545 S
N457 C461 1.343 1_545 S
C458 C451 1.422 1_565 S
C458 N457 1.359 1_565 S
C458 C460 1.421 . S
C459 C460 1.422 . S
C459 C462 1.321 . S
C459 H486 0.931 . S
C460 C458 1.421 . S
C460 C459 1.422 . S
C460 C484 1.417 . S
C461 H438 0.923 1_565 S
C461 N457 1.343 1_565 S
C461 C462 1.390 . S
C462 H440 0.930 . S
C462 C459 1.321 . S
C462 C461 1.390 . S
O463 Gd431 2.386 . S
O463 C475 1.265 . S
O464 Gd430 2.353 . S
O464 C475 1.242 . S
O465 Gd430 2.468 . S
O465 C483 1.263 1_545 S
O466 Gd430 2.427 . S
O466 C483 1.252 1_545 S
O467 Gd431 2.307 . S
O467 C476 1.261 . S
O468 Gd430 2.388 . S
O468 C476 1.252 . S
O469 Gd430 2.386 . S
O469 C487 1.265 . S
O470 Gd431 2.353 . S
O470 C487 1.242 . S
O471 Gd431 2.468 . S
O471 C495 1.263 . S
O472 Gd431 2.427 . S
O472 C495 1.252 . S
O473 Gd430 2.307 . S
O473 C488 1.261 . S
O474 Gd431 2.388 . S
O474 C488 1.252 . S
C475 O463 1.265 . S
C475 O464 1.242 . S
C476 O467 1.261 . S
C476 O468 1.252 . S
C477 C480 1.394 . S
C477 C482 1.370 . S
C477 C483 1.500 . S
C478 C481 1.383 . S
C478 C482 1.395 . S
C479 C480 1.396 . S
C479 C481 1.365 . S
C479 H496 0.929 . S
C480 C477 1.394 . S
C480 C479 1.396 . S
C480 H497 0.930 . S
C481 C478 1.383 . S
C481 C479 1.365 . S
C481 H498 0.931 . S
C482 C477 1.370 . S
C482 C478 1.395 . S
C482 H499 0.930 . S
C483 Gd430 2.805 1_565 S
C483 O465 1.263 1_565 S
C483 O466 1.252 1_565 S
C483 C477 1.500 . S
C484 H446 0.930 . S
C484 C460 1.417 . S
C484 C485 1.329 . S
C485 C455 1.437 1_565 S
C485 H456 0.929 . S
C485 C484 1.329 . S
H486 C459 0.931 . S
C487 O469 1.265 . S
C487 O470 1.242 . S
C488 O473 1.261 . S
C488 O474 1.252 . S
C489 C492 1.394 . S
C489 C494 1.370 . S
C489 C495 1.500 . S
C490 C493 1.383 . S
C490 C494 1.395 . S
C491 C492 1.396 . S
C491 C493 1.365 . S
C491 H500 0.929 . S
C492 C489 1.394 . S
C492 C491 1.396 . S
C492 H501 0.930 . S
C493 C490 1.383 . S
C493 C491 1.365 . S
C493 H502 0.931 . S
C494 C489 1.370 . S
C494 C490 1.395 . S
C494 H503 0.930 . S
C495 Gd431 2.805 . S
C495 O471 1.263 . S
C495 O472 1.252 . S
C495 C489 1.500 . S
H496 C479 0.929 . S
H497 C480 0.930 . S
H498 C481 0.931 . S
H499 C482 0.930 . S
H500 C491 0.929 . S
H501 C492 0.930 . S
H502 C493 0.931 . S
H503 C494 0.930 . S
C504 C506 1.422 . S
C504 C508 1.415 . S
C504 N510 1.369 . S
C505 C506 1.421 1_545 S
C505 C507 1.417 . S
C505 C517 1.422 . S
C506 C504 1.422 . S
C506 C505 1.421 1_565 S
C506 N516 1.359 . S
C507 C505 1.417 . S
C507 C509 1.329 . S
C507 H526 0.930 . S
C508 C504 1.415 . S
C508 C509 1.437 1_565 S
C508 C512 1.413 . S
C509 C507 1.329 . S
C509 C508 1.437 1_545 S
C509 H531 0.929 . S
N510 C504 1.369 . S
N510 C511 1.338 . S
N510 Gd515 2.622 . S
C511 N510 1.338 . S
C511 C513 1.378 . S
C511 H523 0.929 . S
C512 C508 1.413 . S
C512 C513 1.348 . S
C512 H528 0.931 . S
C513 C511 1.378 . S
C513 C512 1.348 . S
C513 H529 0.930 . S
Gd514 N534 2.622 . S
Gd514 N541 2.570 . S
Gd514 O548 2.353 . S
Gd514 O549 2.468 . S
Gd514 O550 2.427 . S
Gd514 O552 2.388 . S
Gd514 O553 2.386 . S
Gd514 O557 2.307 . S
Gd514 C567 2.805 . S
Gd515 N510 2.622 . S
Gd515 N516 2.570 . S
Gd515 O547 2.386 . S
Gd515 O551 2.307 . S
Gd515 O554 2.353 . S
Gd515 O555 2.468 . S
Gd515 O556 2.427 . S
Gd515 O558 2.388 . S
Gd515 C579 2.805 . S
N516 C506 1.359 . S
N516 Gd515 2.570 . S
N516 C518 1.343 . S
C517 C505 1.422 . S
C517 C519 1.321 1_545 S
C517 H525 0.931 . S
C518 N516 1.343 . S
C518 C519 1.390 . S
C518 H520 0.931 . S
C519 C517 1.321 1_565 S
C519 C518 1.390 . S
C519 H521 0.930 1_565 S
H520 C518 0.931 . S
H521 C519 0.930 1_545 S
H522 C545 0.931 . S
H523 C511 0.929 . S
H524 C546 0.930 . S
H525 C517 0.931 . S
H526 C507 0.930 . S
H527 C536 0.929 . S
H528 C512 0.931 . S
H529 C513 0.930 . S
H530 C568 0.930 . S
H531 C509 0.929 . S
H532 C537 0.931 . S
H533 C538 0.930 . S
N534 Gd514 2.622 . S
N534 C535 1.369 . S
N534 C536 1.338 . S
C535 N534 1.369 . S
C535 C539 1.415 . S
C535 C542 1.422 . S
C536 H527 0.929 . S
C536 N534 1.338 . S
C536 C538 1.378 . S
C537 H532 0.931 . S
C537 C538 1.348 . S
C537 C539 1.413 . S
C538 H533 0.930 . S
C538 C536 1.378 . S
C538 C537 1.348 . S
C539 C535 1.415 . S
C539 C537 1.413 . S
C539 C569 1.437 . S
H540 C569 0.929 . S
N541 Gd514 2.570 . S
N541 C542 1.359 . S
N541 C545 1.343 . S
C542 C535 1.422 . S
C542 N541 1.359 . S
C542 C544 1.421 . S
C543 C544 1.422 . S
C543 C546 1.321 . S
C543 H570 0.931 . S
C544 C542 1.421 . S
C544 C543 1.422 . S
C544 C568 1.417 . S
C545 H522 0.931 . S
C545 N541 1.343 . S
C545 C546 1.390 . S
C546 H524 0.930 . S
C546 C543 1.321 . S
C546 C545 1.390 . S
O547 Gd515 2.386 . S
O547 C559 1.265 . S
O548 Gd514 2.353 . S
O548 C559 1.242 . S
O549 Gd514 2.468 . S
O549 C567 1.263 . S
O550 Gd514 2.427 . S
O550 C567 1.252 . S
O551 Gd515 2.307 . S
O551 C560 1.261 . S
O552 Gd514 2.388 . S
O552 C560 1.252 . S
O553 Gd514 2.386 . S
O553 C571 1.265 . S
O554 Gd515 2.353 . S
O554 C571 1.242 . S
O555 Gd515 2.468 . S
O555 C579 1.263 . S
O556 Gd515 2.427 . S
O556 C579 1.252 . S
O557 Gd514 2.307 . S
O557 C572 1.261 . S
O558 Gd515 2.388 . S
O558 C572 1.252 . S
C559 O547 1.265 . S
C559 O548 1.242 . S
C560 O551 1.261 . S
C560 O552 1.252 . S
C561 C564 1.394 . S
C561 C566 1.370 . S
C561 C567 1.500 . S
C562 C565 1.383 . S
C562 C566 1.395 . S
C563 C564 1.396 . S
C563 C565 1.365 . S
C563 H580 0.929 . S
C564 C561 1.394 . S
C564 C563 1.396 . S
C564 H581 0.930 . S
C565 C562 1.383 . S
C565 C563 1.365 . S
C565 H582 0.931 . S
C566 C561 1.370 . S
C566 C562 1.395 . S
C566 H583 0.930 . S
C567 Gd514 2.805 . S
C567 O549 1.263 . S
C567 O550 1.252 . S
C567 C561 1.500 . S
C568 H530 0.930 . S
C568 C544 1.417 . S
C568 C569 1.329 . S
C569 C539 1.437 . S
C569 H540 0.929 . S
C569 C568 1.329 . S
H570 C543 0.931 . S
C571 O553 1.265 . S
C571 O554 1.242 . S
C572 O557 1.261 . S
C572 O558 1.252 . S
C573 C576 1.394 . S
C573 C578 1.370 . S
C573 C579 1.500 . S
C574 C577 1.383 . S
C574 C578 1.395 . S
C575 C576 1.396 . S
C575 C577 1.365 . S
C575 H584 0.929 . S
C576 C573 1.394 . S
C576 C575 1.396 . S
C576 H585 0.930 . S
C577 C574 1.383 . S
C577 C575 1.365 . S
C577 H586 0.931 . S
C578 C573 1.370 . S
C578 C574 1.395 . S
C578 H587 0.930 . S
C579 Gd515 2.805 . S
C579 O555 1.263 . S
C579 O556 1.252 . S
C579 C573 1.500 . S
H580 C563 0.929 . S
H581 C564 0.930 . S
H582 C565 0.931 . S
H583 C566 0.930 . S
H584 C575 0.929 . S
H585 C576 0.930 . S
H586 C577 0.931 . S
H587 C578 0.930 . S
C588 C590 1.422 . S
C588 C592 1.415 . S
C588 N594 1.369 . S
C589 C590 1.421 . S
C589 C591 1.417 . S
C589 C601 1.422 . S
C590 C588 1.422 . S
C590 C589 1.421 . S
C590 N600 1.359 . S
C591 C589 1.417 . S
C591 C593 1.329 . S
C591 H610 0.930 . S
C592 C588 1.415 . S
C592 C593 1.437 . S
C592 C596 1.413 1_556 S
C593 C591 1.329 . S
C593 C592 1.437 . S
C593 H615 0.929 1_556 S
N594 C588 1.369 . S
N594 C595 1.338 1_556 S
N594 Gd599 2.622 . S
C595 N594 1.338 1_554 S
C595 C597 1.378 . S
C595 H607 0.929 . S
C596 C592 1.413 1_554 S
C596 C597 1.348 . S
C596 H612 0.931 . S
C597 C595 1.378 . S
C597 C596 1.348 . S
C597 H613 0.930 . S
Gd598 N618 2.622 . S
Gd598 N625 2.570 . S
Gd598 O632 2.353 . S
Gd598 O633 2.468 . S
Gd598 O634 2.427 . S
Gd598 O636 2.388 . S
Gd598 O637 2.386 . S
Gd598 O641 2.307 . S
Gd598 C651 2.805 1_655 S
Gd599 N594 2.622 . S
Gd599 N600 2.570 . S
Gd599 O631 2.386 . S
Gd599 O635 2.307 . S
Gd599 O638 2.353 . S
Gd599 O639 2.468 . S
Gd599 O640 2.427 . S
Gd599 O642 2.388 . S
Gd599 C663 2.805 . S
N600 C590 1.359 . S
N600 Gd599 2.570 . S
N600 C602 1.343 . S
C601 C589 1.422 . S
C601 C603 1.321 . S
C601 H609 0.931 . S
C602 N600 1.343 . S
C602 C603 1.390 . S
C602 H604 0.931 . S
C603 C601 1.321 . S
C603 C602 1.390 . S
C603 H605 0.930 . S
H604 C602 0.931 . S
H605 C603 0.930 . S
H606 C629 0.923 1_655 S
H607 C595 0.929 . S
H608 C630 0.930 . S
H609 C601 0.931 . S
H610 C591 0.930 . S
H611 C620 0.929 . S
H612 C596 0.931 . S
H613 C597 0.930 . S
H614 C652 0.930 . S
H615 C593 0.929 1_554 S
H616 C621 0.931 . S
H617 C622 0.930 . S
N618 Gd598 2.622 . S
N618 C619 1.369 . S
N618 C620 1.338 . S
C619 N618 1.369 . S
C619 C623 1.415 . S
C619 C626 1.422 1_655 S
C620 H611 0.929 . S
C620 N618 1.338 . S
C620 C622 1.378 . S
C621 H616 0.931 . S
C621 C622 1.348 . S
C621 C623 1.413 . S
C622 H617 0.930 . S
C622 C620 1.378 . S
C622 C621 1.348 . S
C623 C619 1.415 . S
C623 C621 1.413 . S
C623 C653 1.437 1_655 S
H624 C653 0.929 . S
N625 Gd598 2.570 . S
N625 C626 1.359 1_655 S
N625 C629 1.343 1_655 S
C626 C619 1.422 1_455 S
C626 N625 1.359 1_455 S
C626 C628 1.421 . S
C627 C628 1.422 . S
C627 C630 1.321 . S
C627 H654 0.931 . S
C628 C626 1.421 . S
C628 C627 1.422 . S
C628 C652 1.417 . S
C629 H606 0.923 1_455 S
C629 N625 1.343 1_455 S
C629 C630 1.390 . S
C630 H608 0.930 . S
C630 C627 1.321 . S
C630 C629 1.390 . S
O631 Gd599 2.386 . S
O631 C643 1.265 . S
O632 Gd598 2.353 . S
O632 C643 1.242 . S
O633 Gd598 2.468 . S
O633 C651 1.263 1_655 S
O634 Gd598 2.427 . S
O634 C651 1.252 1_655 S
O635 Gd599 2.307 . S
O635 C644 1.261 . S
O636 Gd598 2.388 . S
O636 C644 1.252 . S
O637 Gd598 2.386 . S
O637 C655 1.265 . S
O638 Gd599 2.353 . S
O638 C655 1.242 . S
O639 Gd599 2.468 . S
O639 C663 1.263 . S
O640 Gd599 2.427 . S
O640 C663 1.252 . S
O641 Gd598 2.307 . S
O641 C656 1.261 . S
O642 Gd599 2.388 . S
O642 C656 1.252 . S
C643 O631 1.265 . S
C643 O632 1.242 . S
C644 O635 1.261 . S
C644 O636 1.252 . S
C645 C648 1.394 . S
C645 C650 1.370 . S
C645 C651 1.500 . S
C646 C649 1.383 . S
C646 C650 1.395 . S
C647 C648 1.396 . S
C647 C649 1.365 . S
C647 H664 0.929 . S
C648 C645 1.394 . S
C648 C647 1.396 . S
C648 H665 0.930 . S
C649 C646 1.383 . S
C649 C647 1.365 . S
C649 H666 0.931 . S
C650 C645 1.370 . S
C650 C646 1.395 . S
C650 H667 0.930 . S
C651 Gd598 2.805 1_455 S
C651 O633 1.263 1_455 S
C651 O634 1.252 1_455 S
C651 C645 1.500 . S
C652 H614 0.930 . S
C652 C628 1.417 . S
C652 C653 1.329 . S
C653 C623 1.437 1_455 S
C653 H624 0.929 . S
C653 C652 1.329 . S
H654 C627 0.931 . S
C655 O637 1.265 . S
C655 O638 1.242 . S
C656 O641 1.261 . S
C656 O642 1.252 . S
C657 C660 1.394 . S
C657 C662 1.370 . S
C657 C663 1.500 . S
C658 C661 1.383 . S
C658 C662 1.395 . S
C659 C660 1.396 . S
C659 C661 1.365 . S
C659 H668 0.929 . S
C660 C657 1.394 . S
C660 C659 1.396 . S
C660 H669 0.930 . S
C661 C658 1.383 . S
C661 C659 1.365 . S
C661 H670 0.931 . S
C662 C657 1.370 . S
C662 C658 1.395 . S
C662 H671 0.930 . S
C663 Gd599 2.805 . S
C663 O639 1.263 . S
C663 O640 1.252 . S
C663 C657 1.500 . S
H664 C647 0.929 . S
H665 C648 0.930 . S
H666 C649 0.931 . S
H667 C650 0.930 . S
H668 C659 0.929 . S
H669 C660 0.930 . S
H670 C661 0.931 . S
H671 C662 0.930 . S
C672 C674 1.422 . S
C672 C676 1.415 . S
C672 N678 1.369 . S
C673 C674 1.421 1_655 S
C673 C675 1.417 . S
C673 C685 1.422 . S
C674 C672 1.422 . S
C674 C673 1.421 1_455 S
C674 N684 1.359 . S
C675 C673 1.417 . S
C675 C677 1.329 . S
C675 H694 0.930 . S
C676 C672 1.415 . S
C676 C677 1.437 1_455 S
C676 C680 1.413 . S
C677 C675 1.329 . S
C677 C676 1.437 1_655 S
C677 H699 0.929 . S
N678 C672 1.369 . S
N678 C679 1.338 . S
N678 Gd683 2.622 . S
C679 N678 1.338 . S
C679 C681 1.378 . S
C679 H691 0.929 . S
C680 C676 1.413 . S
C680 C681 1.348 . S
C680 H696 0.931 . S
C681 C679 1.378 . S
C681 C680 1.348 . S
C681 H697 0.930 . S
Gd682 N702 2.622 . S
Gd682 N709 2.570 . S
Gd682 O716 2.353 . S
Gd682 O717 2.468 . S
Gd682 O718 2.427 . S
Gd682 O720 2.388 . S
Gd682 O721 2.386 . S
Gd682 O725 2.307 . S
Gd682 C735 2.805 1_565 S
Gd683 N678 2.622 . S
Gd683 N684 2.570 . S
Gd683 O715 2.386 . S
Gd683 O719 2.307 . S
Gd683 O722 2.353 . S
Gd683 O723 2.468 . S
Gd683 O724 2.427 . S
Gd683 O726 2.388 . S
Gd683 C747 2.805 . S
N684 C674 1.359 . S
N684 Gd683 2.570 . S
N684 C686 1.343 . S
C685 C673 1.422 . S
C685 C687 1.321 1_655 S
C685 H693 0.931 . S
C686 N684 1.343 . S
C686 C687 1.390 . S
C686 H688 0.931 . S
C687 C685 1.321 1_455 S
C687 C686 1.390 . S
C687 H689 0.930 1_455 S
H688 C686 0.931 . S
H689 C687 0.930 1_655 S
H690 C713 0.933 1_565 S
H691 C679 0.929 . S
H692 C714 0.930 . S
H693 C685 0.931 . S
H694 C675 0.930 . S
H695 C704 0.929 . S
H696 C680 0.931 . S
H697 C681 0.930 . S
H698 C736 0.930 . S
H699 C677 0.929 . S
H700 C705 0.931 . S
H701 C706 0.930 . S
N702 Gd682 2.622 . S
N702 C703 1.369 . S
N702 C704 1.338 . S
C703 N702 1.369 . S
C703 C707 1.415 . S
C703 C710 1.422 1_565 S
C704 H695 0.929 . S
C704 N702 1.338 . S
C704 C706 1.378 . S
C705 H700 0.931 . S
C705 C706 1.348 . S
C705 C707 1.413 . S
C706 H701 0.930 . S
C706 C704 1.378 . S
C706 C705 1.348 . S
C707 C703 1.415 . S
C707 C705 1.413 . S
C707 C737 1.437 1_565 S
H708 C737 0.929 . S
N709 Gd682 2.570 . S
N709 C710 1.359 1_565 S
N709 C713 1.343 1_565 S
C710 C703 1.422 1_545 S
C710 N709 1.359 1_545 S
C710 C712 1.421 . S
C711 C712 1.422 . S
C711 C714 1.321 . S
C711 H738 0.931 . S
C712 C710 1.421 . S
C712 C711 1.422 . S
C712 C736 1.417 . S
C713 H690 0.933 1_545 S
C713 N709 1.343 1_545 S
C713 C714 1.390 . S
C714 H692 0.930 . S
C714 C711 1.321 . S
C714 C713 1.390 . S
O715 Gd683 2.386 . S
O715 C727 1.265 . S
O716 Gd682 2.353 . S
O716 C727 1.242 . S
O717 Gd682 2.468 . S
O717 C735 1.263 1_565 S
O718 Gd682 2.427 . S
O718 C735 1.252 1_565 S
O719 Gd683 2.307 . S
O719 C728 1.261 . S
O720 Gd682 2.388 . S
O720 C728 1.252 . S
O721 Gd682 2.386 . S
O721 C739 1.265 . S
O722 Gd683 2.353 . S
O722 C739 1.242 . S
O723 Gd683 2.468 . S
O723 C747 1.263 . S
O724 Gd683 2.427 . S
O724 C747 1.252 . S
O725 Gd682 2.307 . S
O725 C740 1.261 . S
O726 Gd683 2.388 . S
O726 C740 1.252 . S
C727 O715 1.265 . S
C727 O716 1.242 . S
C728 O719 1.261 . S
C728 O720 1.252 . S
C729 C732 1.394 . S
C729 C734 1.370 . S
C729 C735 1.500 . S
C730 C733 1.383 . S
C730 C734 1.395 . S
C731 C732 1.396 . S
C731 C733 1.365 . S
C731 H748 0.929 . S
C732 C729 1.394 . S
C732 C731 1.396 . S
C732 H749 0.930 . S
C733 C730 1.383 . S
C733 C731 1.365 . S
C733 H750 0.931 . S
C734 C729 1.370 . S
C734 C730 1.395 . S
C734 H751 0.930 . S
C735 Gd682 2.805 1_545 S
C735 O717 1.263 1_545 S
C735 O718 1.252 1_545 S
C735 C729 1.500 . S
C736 H698 0.930 . S
C736 C712 1.417 . S
C736 C737 1.329 . S
C737 C707 1.437 1_545 S
C737 H708 0.929 . S
C737 C736 1.329 . S
H738 C711 0.931 . S
C739 O721 1.265 . S
C739 O722 1.242 . S
C740 O725 1.261 . S
C740 O726 1.252 . S
C741 C744 1.394 . S
C741 C746 1.370 . S
C741 C747 1.500 . S
C742 C745 1.383 . S
C742 C746 1.395 . S
C743 C744 1.396 . S
C743 C745 1.365 . S
C743 H752 0.929 . S
C744 C741 1.394 . S
C744 C743 1.396 . S
C744 H753 0.930 . S
C745 C742 1.383 . S
C745 C743 1.365 . S
C745 H754 0.931 . S
C746 C741 1.370 . S
C746 C742 1.395 . S
C746 H755 0.930 . S
C747 Gd683 2.805 . S
C747 O723 1.263 . S
C747 O724 1.252 . S
C747 C741 1.500 . S
H748 C731 0.929 . S
H749 C732 0.930 . S
H750 C733 0.931 . S
H751 C734 0.930 . S
H752 C743 0.929 . S
H753 C744 0.930 . S
H754 C745 0.931 . S
H755 C746 0.930 . S
C756 C758 1.422 . S
C756 C760 1.415 . S
C756 N762 1.369 . S
C757 C758 1.421 1_565 S
C757 C759 1.417 . S
C757 C769 1.422 . S
C758 C756 1.422 . S
C758 C757 1.421 1_545 S
C758 N768 1.359 . S
C759 C757 1.417 . S
C759 C761 1.329 . S
C759 H778 0.930 . S
C760 C756 1.415 . S
C760 C761 1.437 1_545 S
C760 C764 1.413 1_556 S
C761 C759 1.329 . S
C761 C760 1.437 1_565 S
C761 H783 0.929 1_556 S
N762 C756 1.369 . S
N762 C763 1.338 1_556 S
N762 Gd767 2.622 . S
C763 N762 1.338 1_554 S
C763 C765 1.378 . S
C763 H775 0.929 . S
C764 C760 1.413 1_554 S
C764 C765 1.348 . S
C764 H780 0.931 . S
C765 C763 1.378 . S
C765 C764 1.348 . S
C765 H781 0.930 . S
Gd766 N786 2.622 . S
Gd766 N793 2.570 . S
Gd766 O800 2.353 . S
Gd766 O801 2.468 . S
Gd766 O802 2.427 . S
Gd766 O804 2.388 . S
Gd766 O805 2.386 . S
Gd766 O809 2.307 . S
Gd766 C819 2.805 . S
Gd767 N762 2.622 . S
Gd767 N768 2.570 . S
Gd767 O799 2.386 . S
Gd767 O803 2.307 . S
Gd767 O806 2.353 . S
Gd767 O807 2.468 . S
Gd767 O808 2.427 . S
Gd767 O810 2.388 . S
Gd767 C831 2.805 . S
N768 C758 1.359 . S
N768 Gd767 2.570 . S
N768 C770 1.343 . S
C769 C757 1.422 . S
C769 C771 1.321 1_565 S
C769 H777 0.931 . S
C770 N768 1.343 . S
C770 C771 1.390 . S
C770 H772 0.931 . S
C771 C769 1.321 1_545 S
C771 C770 1.390 . S
C771 H773 0.930 1_545 S
H772 C770 0.931 . S
H773 C771 0.930 1_565 S
H774 C797 0.931 . S
H775 C763 0.929 . S
H776 C798 0.930 . S
H777 C769 0.931 . S
H778 C759 0.930 . S
H779 C788 0.929 . S
H780 C764 0.931 . S
H781 C765 0.930 . S
H782 C820 0.930 . S
H783 C761 0.929 1_554 S
H784 C789 0.931 . S
H785 C790 0.930 . S
N786 Gd766 2.622 . S
N786 C787 1.369 . S
N786 C788 1.338 . S
C787 N786 1.369 . S
C787 C791 1.415 . S
C787 C794 1.422 . S
C788 H779 0.929 . S
C788 N786 1.338 . S
C788 C790 1.378 . S
C789 H784 0.931 . S
C789 C790 1.348 . S
C789 C791 1.413 . S
C790 H785 0.930 . S
C790 C788 1.378 . S
C790 C789 1.348 . S
C791 C787 1.415 . S
C791 C789 1.413 . S
C791 C821 1.437 . S
H792 C821 0.929 . S
N793 Gd766 2.570 . S
N793 C794 1.359 . S
N793 C797 1.343 . S
C794 C787 1.422 . S
C794 N793 1.359 . S
C794 C796 1.421 . S
C795 C796 1.422 . S
C795 C798 1.321 . S
C795 H822 0.931 . S
C796 C794 1.421 . S
C796 C795 1.422 . S
C796 C820 1.417 . S
C797 H774 0.931 . S
C797 N793 1.343 . S
C797 C798 1.390 . S
C798 H776 0.930 . S
C798 C795 1.321 . S
C798 C797 1.390 . S
O799 Gd767 2.386 . S
O799 C811 1.265 . S
O800 Gd766 2.353 . S
O800 C811 1.242 . S
O801 Gd766 2.468 . S
O801 C819 1.263 . S
O802 Gd766 2.427 . S
O802 C819 1.252 . S
O803 Gd767 2.307 . S
O803 C812 1.261 . S
O804 Gd766 2.388 . S
O804 C812 1.252 . S
O805 Gd766 2.386 . S
O805 C823 1.265 . S
O806 Gd767 2.353 . S
O806 C823 1.242 . S
O807 Gd767 2.468 . S
O807 C831 1.263 . S
O808 Gd767 2.427 . S
O808 C831 1.252 . S
O809 Gd766 2.307 . S
O809 C824 1.261 . S
O810 Gd767 2.388 . S
O810 C824 1.252 . S
C811 O799 1.265 . S
C811 O800 1.242 . S
C812 O803 1.261 . S
C812 O804 1.252 . S
C813 C816 1.394 . S
C813 C818 1.370 . S
C813 C819 1.500 . S
C814 C817 1.383 . S
C814 C818 1.395 . S
C815 C816 1.396 . S
C815 C817 1.365 . S
C815 H832 0.929 . S
C816 C813 1.394 . S
C816 C815 1.396 . S
C816 H833 0.930 . S
C817 C814 1.383 . S
C817 C815 1.365 . S
C817 H834 0.931 . S
C818 C813 1.370 . S
C818 C814 1.395 . S
C818 H835 0.930 . S
C819 Gd766 2.805 . S
C819 O801 1.263 . S
C819 O802 1.252 . S
C819 C813 1.500 . S
C820 H782 0.930 . S
C820 C796 1.417 . S
C820 C821 1.329 . S
C821 C791 1.437 . S
C821 H792 0.929 . S
C821 C820 1.329 . S
H822 C795 0.931 . S
C823 O805 1.265 . S
C823 O806 1.242 . S
C824 O809 1.261 . S
C824 O810 1.252 . S
C825 C828 1.394 . S
C825 C830 1.370 . S
C825 C831 1.500 . S
C826 C829 1.383 . S
C826 C830 1.395 . S
C827 C828 1.396 . S
C827 C829 1.365 . S
C827 H836 0.929 . S
C828 C825 1.394 . S
C828 C827 1.396 . S
C828 H837 0.930 . S
C829 C826 1.383 . S
C829 C827 1.365 . S
C829 H838 0.931 . S
C830 C825 1.370 . S
C830 C826 1.395 . S
C830 H839 0.930 . S
C831 Gd767 2.805 . S
C831 O807 1.263 . S
C831 O808 1.252 . S
C831 C825 1.500 . S
H832 C815 0.929 . S
H833 C816 0.930 . S
H834 C817 0.931 . S
H835 C818 0.930 . S
H836 C827 0.929 . S
H837 C828 0.930 . S
H838 C829 0.931 . S
H839 C830 0.930 . S
C840 C842 1.422 . S
C840 C844 1.415 . S
C840 N846 1.369 . S
C841 C842 1.421 . S
C841 C843 1.417 . S
C841 C853 1.422 . S
C842 C840 1.422 . S
C842 C841 1.421 . S
C842 N852 1.359 . S
C843 C841 1.417 . S
C843 C845 1.329 . S
C843 H862 0.930 . S
C844 C840 1.415 . S
C844 C845 1.437 . S
C844 C848 1.413 . S
C845 C843 1.329 . S
C845 C844 1.437 . S
C845 H867 0.929 . S
N846 C840 1.369 . S
N846 C847 1.338 . S
N846 Gd851 2.622 . S
C847 N846 1.338 . S
C847 C849 1.378 . S
C847 H859 0.929 . S
C848 C844 1.413 . S
C848 C849 1.348 . S
C848 H864 0.931 . S
C849 C847 1.378 . S
C849 C848 1.348 . S
C849 H865 0.930 . S
Gd850 N870 2.622 . S
Gd850 N877 2.570 . S
Gd850 O884 2.353 . S
Gd850 O885 2.468 . S
Gd850 O886 2.427 . S
Gd850 O888 2.388 . S
Gd850 O889 2.386 . S
Gd850 O893 2.307 . S
Gd850 C903 2.805 1_455 S
Gd851 N846 2.622 . S
Gd851 N852 2.570 . S
Gd851 O883 2.386 . S
Gd851 O887 2.307 . S
Gd851 O890 2.353 . S
Gd851 O891 2.468 . S
Gd851 O892 2.427 . S
Gd851 O894 2.388 . S
Gd851 C915 2.805 . S
N852 C842 1.359 . S
N852 Gd851 2.570 . S
N852 C854 1.343 . S
C853 C841 1.422 . S
C853 C855 1.321 . S
C853 H861 0.931 . S
C854 N852 1.343 . S
C854 C855 1.390 . S
C854 H856 0.931 . S
C855 C853 1.321 . S
C855 C854 1.390 . S
C855 H857 0.930 . S
H856 C854 0.931 . S
H857 C855 0.930 . S
H858 C881 0.923 1_455 S
H859 C847 0.929 . S
H860 C882 0.930 . S
H861 C853 0.931 . S
H862 C843 0.930 . S
H863 C872 0.929 . S
H864 C848 0.931 . S
H865 C849 0.930 . S
H866 C904 0.930 . S
H867 C845 0.929 . S
H868 C873 0.931 . S
H869 C874 0.930 . S
N870 Gd850 2.622 . S
N870 C871 1.369 . S
N870 C872 1.338 . S
C871 N870 1.369 . S
C871 C875 1.415 . S
C871 C878 1.422 1_455 S
C872 H863 0.929 . S
C872 N870 1.338 . S
C872 C874 1.378 . S
C873 H868 0.931 . S
C873 C874 1.348 . S
C873 C875 1.413 . S
C874 H869 0.930 . S
C874 C872 1.378 . S
C874 C873 1.348 . S
C875 C871 1.415 . S
C875 C873 1.413 . S
C875 C905 1.437 1_455 S
H876 C905 0.929 . S
N877 Gd850 2.570 . S
N877 C878 1.359 1_455 S
N877 C881 1.343 1_455 S
C878 C871 1.422 1_655 S
C878 N877 1.359 1_655 S
C878 C880 1.421 . S
C879 C880 1.422 . S
C879 C882 1.321 . S
C879 H906 0.931 . S
C880 C878 1.421 . S
C880 C879 1.422 . S
C880 C904 1.417 . S
C881 H858 0.923 1_655 S
C881 N877 1.343 1_655 S
C881 C882 1.390 . S
C882 H860 0.930 . S
C882 C879 1.321 . S
C882 C881 1.390 . S
O883 Gd851 2.386 . S
O883 C895 1.265 . S
O884 Gd850 2.353 . S
O884 C895 1.242 . S
O885 Gd850 2.468 . S
O885 C903 1.263 1_455 S
O886 Gd850 2.427 . S
O886 C903 1.252 1_455 S
O887 Gd851 2.307 . S
O887 C896 1.261 . S
O888 Gd850 2.388 . S
O888 C896 1.252 . S
O889 Gd850 2.386 . S
O889 C907 1.265 . S
O890 Gd851 2.353 . S
O890 C907 1.242 . S
O891 Gd851 2.468 . S
O891 C915 1.263 . S
O892 Gd851 2.427 . S
O892 C915 1.252 . S
O893 Gd850 2.307 . S
O893 C908 1.261 . S
O894 Gd851 2.388 . S
O894 C908 1.252 . S
C895 O883 1.265 . S
C895 O884 1.242 . S
C896 O887 1.261 . S
C896 O888 1.252 . S
C897 C900 1.394 . S
C897 C902 1.370 . S
C897 C903 1.500 . S
C898 C901 1.383 . S
C898 C902 1.395 . S
C899 C900 1.396 . S
C899 C901 1.365 . S
C899 H916 0.929 . S
C900 C897 1.394 . S
C900 C899 1.396 . S
C900 H917 0.930 . S
C901 C898 1.383 . S
C901 C899 1.365 . S
C901 H918 0.931 . S
C902 C897 1.370 . S
C902 C898 1.395 . S
C902 H919 0.930 . S
C903 Gd850 2.805 1_655 S
C903 O885 1.263 1_655 S
C903 O886 1.252 1_655 S
C903 C897 1.500 . S
C904 H866 0.930 . S
C904 C880 1.417 . S
C904 C905 1.329 . S
C905 C875 1.437 1_655 S
C905 H876 0.929 . S
C905 C904 1.329 . S
H906 C879 0.931 . S
C907 O889 1.265 . S
C907 O890 1.242 . S
C908 O893 1.261 . S
C908 O894 1.252 . S
C909 C912 1.394 . S
C909 C914 1.370 . S
C909 C915 1.500 . S
C910 C913 1.383 . S
C910 C914 1.395 . S
C911 C912 1.396 . S
C911 C913 1.365 . S
C911 H920 0.929 . S
C912 C909 1.394 . S
C912 C911 1.396 . S
C912 H921 0.930 . S
C913 C910 1.383 . S
C913 C911 1.365 . S
C913 H922 0.931 . S
C914 C909 1.370 . S
C914 C910 1.395 . S
C914 H923 0.930 . S
C915 Gd851 2.805 . S
C915 O891 1.263 . S
C915 O892 1.252 . S
C915 C909 1.500 . S
H916 C899 0.929 . S
H917 C900 0.930 . S
H918 C901 0.931 . S
H919 C902 0.930 . S
H920 C911 0.929 . S
H921 C912 0.930 . S
H922 C913 0.931 . S
H923 C914 0.930 . S
C924 C926 1.422 . S
C924 C928 1.415 . S
C924 N930 1.369 . S
C925 C926 1.421 1_455 S
C925 C927 1.417 . S
C925 C937 1.422 . S
C926 C924 1.422 . S
C926 C925 1.421 1_655 S
C926 N936 1.359 . S
C927 C925 1.417 . S
C927 C929 1.329 . S
C927 H946 0.930 . S
C928 C924 1.415 . S
C928 C929 1.437 1_655 S
C928 C932 1.413 1_556 S
C929 C927 1.329 . S
C929 C928 1.437 1_455 S
C929 H951 0.929 1_556 S
N930 C924 1.369 . S
N930 C931 1.338 1_556 S
N930 Gd935 2.622 . S
C931 N930 1.338 1_554 S
C931 C933 1.378 . S
C931 H943 0.929 . S
C932 C928 1.413 1_554 S
C932 C933 1.348 . S
C932 H948 0.931 . S
C933 C931 1.378 . S
C933 C932 1.348 . S
C933 H949 0.930 . S
Gd934 N954 2.622 . S
Gd934 N961 2.570 . S
Gd934 O968 2.353 . S
Gd934 O969 2.468 . S
Gd934 O970 2.427 . S
Gd934 O972 2.388 . S
Gd934 O973 2.386 . S
Gd934 O977 2.307 . S
Gd934 C987 2.805 1_545 S
Gd935 N930 2.622 . S
Gd935 N936 2.570 . S
Gd935 O967 2.386 . S
Gd935 O971 2.307 . S
Gd935 O974 2.353 . S
Gd935 O975 2.468 . S
Gd935 O976 2.427 . S
Gd935 O978 2.388 . S
Gd935 C999 2.805 . S
N936 C926 1.359 . S
N936 Gd935 2.570 . S
N936 C938 1.343 . S
C937 C925 1.422 . S
C937 C939 1.321 1_455 S
C937 H945 0.931 . S
C938 N936 1.343 . S
C938 C939 1.390 . S
C938 H940 0.931 . S
C939 C937 1.321 1_655 S
C939 C938 1.390 . S
C939 H941 0.930 1_655 S
H940 C938 0.931 . S
H941 C939 0.930 1_455 S
H942 C965 0.933 1_545 S
H943 C931 0.929 . S
H944 C966 0.930 . S
H945 C937 0.931 . S
H946 C927 0.930 . S
H947 C956 0.929 . S
H948 C932 0.931 . S
H949 C933 0.930 . S
H950 C988 0.930 . S
H951 C929 0.929 1_554 S
H952 C957 0.931 . S
H953 C958 0.930 . S
N954 Gd934 2.622 . S
N954 C955 1.369 . S
N954 C956 1.338 . S
C955 N954 1.369 . S
C955 C959 1.415 . S
C955 C962 1.422 1_545 S
C956 H947 0.929 . S
C956 N954 1.338 . S
C956 C958 1.378 . S
C957 H952 0.931 . S
C957 C958 1.348 . S
C957 C959 1.413 . S
C958 H953 0.930 . S
C958 C956 1.378 . S
C958 C957 1.348 . S
C959 C955 1.415 . S
C959 C957 1.413 . S
C959 C989 1.437 1_545 S
H960 C989 0.929 . S
N961 Gd934 2.570 . S
N961 C962 1.359 1_545 S
N961 C965 1.343 1_545 S
C962 C955 1.422 1_565 S
C962 N961 1.359 1_565 S
C962 C964 1.421 . S
C963 C964 1.422 . S
C963 C966 1.321 . S
C963 H990 0.931 . S
C964 C962 1.421 . S
C964 C963 1.422 . S
C964 C988 1.417 . S
C965 H942 0.933 1_565 S
C965 N961 1.343 1_565 S
C965 C966 1.390 . S
C966 H944 0.930 . S
C966 C963 1.321 . S
C966 C965 1.390 . S
O967 Gd935 2.386 . S
O967 C979 1.265 . S
O968 Gd934 2.353 . S
O968 C979 1.242 . S
O969 Gd934 2.468 . S
O969 C987 1.263 1_545 S
O970 Gd934 2.427 . S
O970 C987 1.252 1_545 S
O971 Gd935 2.307 . S
O971 C980 1.261 . S
O972 Gd934 2.388 . S
O972 C980 1.252 . S
O973 Gd934 2.386 . S
O973 C991 1.265 . S
O974 Gd935 2.353 . S
O974 C991 1.242 . S
O975 Gd935 2.468 . S
O975 C999 1.263 . S
O976 Gd935 2.427 . S
O976 C999 1.252 . S
O977 Gd934 2.307 . S
O977 C992 1.261 . S
O978 Gd935 2.388 . S
O978 C992 1.252 . S
C979 O967 1.265 . S
C979 O968 1.242 . S
C980 O971 1.261 . S
C980 O972 1.252 . S
C981 C984 1.394 . S
C981 C986 1.370 . S
C981 C987 1.500 . S
C982 C985 1.383 . S
C982 C986 1.395 . S
C983 C984 1.396 . S
C983 C985 1.365 . S
C983 H1000 0.929 . S
C984 C981 1.394 . S
C984 C983 1.396 . S
C984 H1001 0.930 . S
C985 C982 1.383 . S
C985 C983 1.365 . S
C985 H1002 0.931 . S
C986 C981 1.370 . S
C986 C982 1.395 . S
C986 H1003 0.930 . S
C987 Gd934 2.805 1_565 S
C987 O969 1.263 1_565 S
C987 O970 1.252 1_565 S
C987 C981 1.500 . S
C988 H950 0.930 . S
C988 C964 1.417 . S
C988 C989 1.329 . S
C989 C959 1.437 1_565 S
C989 H960 0.929 . S
C989 C988 1.329 . S
H990 C963 0.931 . S
C991 O973 1.265 . S
C991 O974 1.242 . S
C992 O977 1.261 . S
C992 O978 1.252 . S
C993 C996 1.394 . S
C993 C998 1.370 . S
C993 C999 1.500 . S
C994 C997 1.383 . S
C994 C998 1.395 . S
C995 C996 1.396 . S
C995 C997 1.365 . S
C995 H1004 0.929 . S
C996 C993 1.394 . S
C996 C995 1.396 . S
C996 H1005 0.930 . S
C997 C994 1.383 . S
C997 C995 1.365 . S
C997 H1006 0.931 . S
C998 C993 1.370 . S
C998 C994 1.395 . S
C998 H1007 0.930 . S
C999 Gd935 2.805 . S
C999 O975 1.263 . S
C999 O976 1.252 . S
C999 C993 1.500 . S
H1000 C983 0.929 . S
H1001 C984 0.930 . S
H1002 C985 0.931 . S
H1003 C986 0.930 . S
H1004 C995 0.929 . S
H1005 C996 0.930 . S
H1006 C997 0.931 . S
H1007 C998 0.930 . S
C1008 C1009 1.369 . S
C1008 C1010 1.419 1_565 S
C1008 H1012 0.930 . S
C1009 C1008 1.369 . S
C1009 C1018 1.429 . S
C1010 C1008 1.419 1_545 S
C1010 C1011 1.363 . S
C1010 H1013 0.929 . S
C1011 C1010 1.363 . S
C1011 C1017 1.428 . S
H1012 C1008 0.930 . S
H1013 C1010 0.929 . S
S1014 N1015 1.613 . S
S1014 N1016 1.610 1_565 S
N1015 S1014 1.613 . S
N1015 C1018 1.350 . S
N1016 S1014 1.610 1_545 S
N1016 C1017 1.351 . S
C1017 C1011 1.428 . S
C1017 N1016 1.351 . S
C1017 C1018 1.434 1_545 S
C1018 C1009 1.429 . S
C1018 N1015 1.350 . S
C1018 C1017 1.434 1_565 S
C1019 C1020 1.369 . S
C1019 C1021 1.419 . S
C1019 H1023 0.930 . S
C1020 C1019 1.369 . S
C1020 C1029 1.429 . S
C1021 C1019 1.419 . S
C1021 C1022 1.363 . S
C1021 H1024 0.929 . S
C1022 C1021 1.363 . S
C1022 C1028 1.428 . S
H1023 C1019 0.930 . S
H1024 C1021 0.929 . S
S1025 N1026 1.613 . S
S1025 N1027 1.610 . S
N1026 S1025 1.613 . S
N1026 C1029 1.350 . S
N1027 S1025 1.610 . S
N1027 C1028 1.351 . S
C1028 C1022 1.428 . S
C1028 N1027 1.351 . S
C1028 C1029 1.434 . S
C1029 C1020 1.429 . S
C1029 N1026 1.350 . S
C1029 C1028 1.434 . S
C1030 C1031 1.369 . S
C1030 C1032 1.419 1_655 S
C1030 H1034 0.930 . S
C1031 C1030 1.369 . S
C1031 C1040 1.429 . S
C1032 C1030 1.419 1_455 S
C1032 C1033 1.363 . S
C1032 H1035 0.929 . S
C1033 C1032 1.363 . S
C1033 C1039 1.428 . S
H1034 C1030 0.930 . S
H1035 C1032 0.929 . S
S1036 N1037 1.613 1_455 S
S1036 N1038 1.610 . S
N1037 S1036 1.613 1_655 S
N1037 C1040 1.350 . S
N1038 S1036 1.610 . S
N1038 C1039 1.351 . S
C1039 C1033 1.428 . S
C1039 N1038 1.351 . S
C1039 C1040 1.434 1_455 S
C1040 C1031 1.429 . S
C1040 N1037 1.350 . S
C1040 C1039 1.434 1_655 S
C1041 C1042 1.369 . S
C1041 C1043 1.419 1_565 S
C1041 H1045 0.930 . S
C1042 C1041 1.369 . S
C1042 C1051 1.429 . S
C1043 C1041 1.419 1_545 S
C1043 C1044 1.363 . S
C1043 H1046 0.929 . S
C1044 C1043 1.363 . S
C1044 C1050 1.428 . S
H1045 C1041 0.930 . S
H1046 C1043 0.929 . S
S1047 N1048 1.613 . S
S1047 N1049 1.610 1_565 S
N1048 S1047 1.613 . S
N1048 C1051 1.350 . S
N1049 S1047 1.610 1_545 S
N1049 C1050 1.351 . S
C1050 C1044 1.428 . S
C1050 N1049 1.351 . S
C1050 C1051 1.434 1_545 S
C1051 C1042 1.429 . S
C1051 N1048 1.350 . S
C1051 C1050 1.434 1_565 S
C1052 C1053 1.369 . S
C1052 C1054 1.419 . S
C1052 H1056 0.930 . S
C1053 C1052 1.369 . S
C1053 C1062 1.429 . S
C1054 C1052 1.419 . S
C1054 C1055 1.363 . S
C1054 H1057 0.929 . S
C1055 C1054 1.363 . S
C1055 C1061 1.428 . S
H1056 C1052 0.930 . S
H1057 C1054 0.929 . S
S1058 N1059 1.613 . S
S1058 N1060 1.610 . S
N1059 S1058 1.613 . S
N1059 C1062 1.350 . S
N1060 S1058 1.610 . S
N1060 C1061 1.351 . S
C1061 C1055 1.428 . S
C1061 N1060 1.351 . S
C1061 C1062 1.434 . S
C1062 C1053 1.429 . S
C1062 N1059 1.350 . S
C1062 C1061 1.434 . S
C1063 C1064 1.369 . S
C1063 C1065 1.419 1_655 S
C1063 H1067 0.930 . S
C1064 C1063 1.369 . S
C1064 C1073 1.429 . S
C1065 C1063 1.419 1_455 S
C1065 C1066 1.363 . S
C1065 H1068 0.929 . S
C1066 C1065 1.363 . S
C1066 C1072 1.428 . S
H1067 C1063 0.930 . S
H1068 C1065 0.929 . S
S1069 N1070 1.613 1_455 S
S1069 N1071 1.610 . S
N1070 S1069 1.613 1_655 S
N1070 C1073 1.350 . S
N1071 S1069 1.610 . S
N1071 C1072 1.351 . S
C1072 C1066 1.428 . S
C1072 N1071 1.351 . S
C1072 C1073 1.434 1_455 S
C1073 C1064 1.429 . S
C1073 N1070 1.350 . S
C1073 C1072 1.434 1_655 S
C1074 C1075 1.369 . S
C1074 C1076 1.419 1_455 S
C1074 H1078 0.930 . S
C1075 C1074 1.369 . S
C1075 C1084 1.429 . S
C1076 C1074 1.419 1_655 S
C1076 C1077 1.363 . S
C1076 H1079 0.929 . S
C1077 C1076 1.363 . S
C1077 C1083 1.428 . S
H1078 C1074 0.930 . S
H1079 C1076 0.929 . S
S1080 N1081 1.613 . S
S1080 N1082 1.610 1_455 S
N1081 S1080 1.613 . S
N1081 C1084 1.350 . S
N1082 S1080 1.610 1_655 S
N1082 C1083 1.351 . S
C1083 C1077 1.428 . S
C1083 N1082 1.351 . S
C1083 C1084 1.434 1_655 S
C1084 C1075 1.429 . S
C1084 N1081 1.350 . S
C1084 C1083 1.434 1_455 S
C1085 C1086 1.369 . S
C1085 C1087 1.419 1_565 S
C1085 H1089 0.930 . S
C1086 C1085 1.369 . S
C1086 C1095 1.429 . S
C1087 C1085 1.419 1_545 S
C1087 C1088 1.363 . S
C1087 H1090 0.929 . S
C1088 C1087 1.363 . S
C1088 C1094 1.428 . S
H1089 C1085 0.930 . S
H1090 C1087 0.929 . S
S1091 N1092 1.613 1_545 S
S1091 N1093 1.610 . S
N1092 S1091 1.613 1_565 S
N1092 C1095 1.350 . S
N1093 S1091 1.610 . S
N1093 C1094 1.351 . S
C1094 C1088 1.428 . S
C1094 N1093 1.351 . S
C1094 C1095 1.434 1_545 S
C1095 C1086 1.429 . S
C1095 N1092 1.350 . S
C1095 C1094 1.434 1_565 S
C1096 C1097 1.369 . S
C1096 C1098 1.419 . S
C1096 H1100 0.930 . S
C1097 C1096 1.369 . S
C1097 C1106 1.429 . S
C1098 C1096 1.419 . S
C1098 C1099 1.363 . S
C1098 H1101 0.929 . S
C1099 C1098 1.363 . S
C1099 C1105 1.428 . S
H1100 C1096 0.930 . S
H1101 C1098 0.929 . S
S1102 N1103 1.613 . S
S1102 N1104 1.610 . S
N1103 S1102 1.613 . S
N1103 C1106 1.350 . S
N1104 S1102 1.610 . S
N1104 C1105 1.351 . S
C1105 C1099 1.428 . S
C1105 N1104 1.351 . S
C1105 C1106 1.434 . S
C1106 C1097 1.429 . S
C1106 N1103 1.350 . S
C1106 C1105 1.434 . S
C1107 C1108 1.369 . S
C1107 C1109 1.419 1_455 S
C1107 H1111 0.930 . S
C1108 C1107 1.369 . S
C1108 C1117 1.429 . S
C1109 C1107 1.419 1_655 S
C1109 C1110 1.363 . S
C1109 H1112 0.929 . S
C1110 C1109 1.363 . S
C1110 C1116 1.428 . S
H1111 C1107 0.930 . S
H1112 C1109 0.929 . S
S1113 N1114 1.613 . S
S1113 N1115 1.610 1_455 S
N1114 S1113 1.613 . S
N1114 C1117 1.350 . S
N1115 S1113 1.610 1_655 S
N1115 C1116 1.351 . S
C1116 C1110 1.428 . S
C1116 N1115 1.351 . S
C1116 C1117 1.434 1_655 S
C1117 C1108 1.429 . S
C1117 N1114 1.350 . S
C1117 C1116 1.434 1_455 S
C1118 C1119 1.369 . S
C1118 C1120 1.419 1_545 S
C1118 H1122 0.930 . S
C1119 C1118 1.369 . S
C1119 C1128 1.429 . S
C1120 C1118 1.419 1_565 S
C1120 C1121 1.363 . S
C1120 H1123 0.929 . S
C1121 C1120 1.363 . S
C1121 C1127 1.428 . S
H1122 C1118 0.930 . S
H1123 C1120 0.929 . S
S1124 N1125 1.613 . S
S1124 N1126 1.610 1_545 S
N1125 S1124 1.613 . S
N1125 C1128 1.350 . S
N1126 S1124 1.610 1_565 S
N1126 C1127 1.351 . S
C1127 C1121 1.428 . S
C1127 N1126 1.351 . S
C1127 C1128 1.434 1_565 S
C1128 C1119 1.429 . S
C1128 N1125 1.350 . S
C1128 C1127 1.434 1_545 S
C1129 C1130 1.369 . S
C1129 C1131 1.419 . S
C1129 H1133 0.930 . S
C1130 C1129 1.369 . S
C1130 C1139 1.429 . S
C1131 C1129 1.419 . S
C1131 C1132 1.363 . S
C1131 H1134 0.929 . S
C1132 C1131 1.363 . S
C1132 C1138 1.428 . S
H1133 C1129 0.930 . S
H1134 C1131 0.929 . S
S1135 N1136 1.613 . S
S1135 N1137 1.610 . S
N1136 S1135 1.613 . S
N1136 C1139 1.350 . S
N1137 S1135 1.610 . S
N1137 C1138 1.351 . S
C1138 C1132 1.428 . S
C1138 N1137 1.351 . S
C1138 C1139 1.434 . S
C1139 C1130 1.429 . S
C1139 N1136 1.350 . S
C1139 C1138 1.434 . S
C1140 C1141 1.369 . S
C1140 C1142 1.419 . S
C1140 H1144 0.930 . S
C1141 C1140 1.369 . S
C1141 C1150 1.429 . S
C1142 C1140 1.419 . S
C1142 C1143 1.363 . S
C1142 H1145 0.929 . S
C1143 C1142 1.363 . S
C1143 C1149 1.428 . S
H1144 C1140 0.930 . S
H1145 C1142 0.929 . S
S1146 N1147 1.613 . S
S1146 N1148 1.610 . S
N1147 S1146 1.613 . S
N1147 C1150 1.350 . S
N1148 S1146 1.610 . S
N1148 C1149 1.351 . S
C1149 C1143 1.428 . S
C1149 N1148 1.351 . S
C1149 C1150 1.434 . S
C1150 C1141 1.429 . S
C1150 N1147 1.350 . S
C1150 C1149 1.434 . S
C1151 C1152 1.369 . S
C1151 C1153 1.419 . S
C1151 H1155 0.930 . S
C1152 C1151 1.369 . S
C1152 C1161 1.429 . S
C1153 C1151 1.419 . S
C1153 C1154 1.363 . S
C1153 H1156 0.929 . S
C1154 C1153 1.363 . S
C1154 C1160 1.428 . S
H1155 C1151 0.930 . S
H1156 C1153 0.929 . S
S1157 N1158 1.613 . S
S1157 N1159 1.610 . S
N1158 S1157 1.613 . S
N1158 C1161 1.350 . S
N1159 S1157 1.610 . S
N1159 C1160 1.351 . S
C1160 C1154 1.428 . S
C1160 N1159 1.351 . S
C1160 C1161 1.434 . S
C1161 C1152 1.429 . S
C1161 N1158 1.350 . S
C1161 C1160 1.434 . S
C1162 C1163 1.369 . S
C1162 C1164 1.419 . S
C1162 H1166 0.930 . S
C1163 C1162 1.369 . S
C1163 C1172 1.429 . S
C1164 C1162 1.419 . S
C1164 C1165 1.363 . S
C1164 H1167 0.929 . S
C1165 C1164 1.363 . S
C1165 C1171 1.428 . S
H1166 C1162 0.930 . S
H1167 C1164 0.929 . S
S1168 N1169 1.613 . S
S1168 N1170 1.610 . S
N1169 S1168 1.613 . S
N1169 C1172 1.350 . S
N1170 S1168 1.610 . S
N1170 C1171 1.351 . S
C1171 C1165 1.428 . S
C1171 N1170 1.351 . S
C1171 C1172 1.434 . S
C1172 C1163 1.429 . S
C1172 N1169 1.350 . S
C1172 C1171 1.434 . S
C1173 C1174 1.369 . S
C1173 C1175 1.419 . S
C1173 H1177 0.930 . S
C1174 C1173 1.369 . S
C1174 C1183 1.429 . S
C1175 C1173 1.419 . S
C1175 C1176 1.363 . S
C1175 H1178 0.929 . S
C1176 C1175 1.363 . S
C1176 C1182 1.428 . S
H1177 C1173 0.930 . S
H1178 C1175 0.929 . S
S1179 N1180 1.613 . S
S1179 N1181 1.610 . S
N1180 S1179 1.613 . S
N1180 C1183 1.350 . S
N1181 S1179 1.610 . S
N1181 C1182 1.351 . S
C1182 C1176 1.428 . S
C1182 N1181 1.351 . S
C1182 C1183 1.434 . S
C1183 C1174 1.429 . S
C1183 N1180 1.350 . S
C1183 C1182 1.434 . S
C1184 C1185 1.369 . S
C1184 C1186 1.419 . S
C1184 H1188 0.930 . S
C1185 C1184 1.369 . S
C1185 C1194 1.429 . S
C1186 C1184 1.419 . S
C1186 C1187 1.363 . S
C1186 H1189 0.929 . S
C1187 C1186 1.363 . S
C1187 C1193 1.428 . S
H1188 C1184 0.930 . S
H1189 C1186 0.929 . S
S1190 N1191 1.613 . S
S1190 N1192 1.610 . S
N1191 S1190 1.613 . S
N1191 C1194 1.350 . S
N1192 S1190 1.610 . S
N1192 C1193 1.351 . S
C1193 C1187 1.428 . S
C1193 N1192 1.351 . S
C1193 C1194 1.434 . S
C1194 C1185 1.429 . S
C1194 N1191 1.350 . S
C1194 C1193 1.434 . S
C1195 C1196 1.369 . S
C1195 C1197 1.419 . S
C1195 H1199 0.930 . S
C1196 C1195 1.369 . S
C1196 C1205 1.429 . S
C1197 C1195 1.419 . S
C1197 C1198 1.363 . S
C1197 H1200 0.929 . S
C1198 C1197 1.363 . S
C1198 C1204 1.428 . S
H1199 C1195 0.930 . S
H1200 C1197 0.929 . S
S1201 N1202 1.613 . S
S1201 N1203 1.610 . S
N1202 S1201 1.613 . S
N1202 C1205 1.350 . S
N1203 S1201 1.610 . S
N1203 C1204 1.351 . S
C1204 C1198 1.428 . S
C1204 N1203 1.351 . S
C1204 C1205 1.434 . S
C1205 C1196 1.429 . S
C1205 N1202 1.350 . S
C1205 C1204 1.434 . S
C1206 C1207 1.369 . S
C1206 C1208 1.419 . S
C1206 H1210 0.930 . S
C1207 C1206 1.369 . S
C1207 C1216 1.429 . S
C1208 C1206 1.419 . S
C1208 C1209 1.363 . S
C1208 H1211 0.929 . S
C1209 C1208 1.363 . S
C1209 C1215 1.428 . S
H1210 C1206 0.930 . S
H1211 C1208 0.929 . S
S1212 N1213 1.613 . S
S1212 N1214 1.610 . S
N1213 S1212 1.613 . S
N1213 C1216 1.350 . S
N1214 S1212 1.610 . S
N1214 C1215 1.351 . S
C1215 C1209 1.428 . S
C1215 N1214 1.351 . S
C1215 C1216 1.434 . S
C1216 C1207 1.429 . S
C1216 N1213 1.350 . S
C1216 C1215 1.434 . S
C1217 C1218 1.369 . S
C1217 C1219 1.419 . S
C1217 H1221 0.930 . S
C1218 C1217 1.369 . S
C1218 C1227 1.429 . S
C1219 C1217 1.419 . S
C1219 C1220 1.363 . S
C1219 H1222 0.929 . S
C1220 C1219 1.363 . S
C1220 C1226 1.428 . S
H1221 C1217 0.930 . S
H1222 C1219 0.929 . S
S1223 N1224 1.613 . S
S1223 N1225 1.610 . S
N1224 S1223 1.613 . S
N1224 C1227 1.350 . S
N1225 S1223 1.610 . S
N1225 C1226 1.351 . S
C1226 C1220 1.428 . S
C1226 N1225 1.351 . S
C1226 C1227 1.434 . S
C1227 C1218 1.429 . S
C1227 N1224 1.350 . S
C1227 C1226 1.434 . S
C1228 C1229 1.369 . S
C1228 C1230 1.419 . S
C1228 H1232 0.930 . S
C1229 C1228 1.369 . S
C1229 C1238 1.429 . S
C1230 C1228 1.419 . S
C1230 C1231 1.363 . S
C1230 H1233 0.929 . S
C1231 C1230 1.363 . S
C1231 C1237 1.428 . S
H1232 C1228 0.930 . S
H1233 C1230 0.929 . S
S1234 N1235 1.613 . S
S1234 N1236 1.610 . S
N1235 S1234 1.613 . S
N1235 C1238 1.350 . S
N1236 S1234 1.610 . S
N1236 C1237 1.351 . S
C1237 C1231 1.428 . S
C1237 N1236 1.351 . S
C1237 C1238 1.434 . S
C1238 C1229 1.429 . S
C1238 N1235 1.350 . S
C1238 C1237 1.434 . S
C1239 C1240 1.369 . S
C1239 C1241 1.419 . S
C1239 H1243 0.930 . S
C1240 C1239 1.369 . S
C1240 C1249 1.429 . S
C1241 C1239 1.419 . S
C1241 C1242 1.363 . S
C1241 H1244 0.929 . S
C1242 C1241 1.363 . S
C1242 C1248 1.428 . S
H1243 C1239 0.930 . S
H1244 C1241 0.929 . S
S1245 N1246 1.613 . S
S1245 N1247 1.610 . S
N1246 S1245 1.613 . S
N1246 C1249 1.350 . S
N1247 S1245 1.610 . S
N1247 C1248 1.351 . S
C1248 C1242 1.428 . S
C1248 N1247 1.351 . S
C1248 C1249 1.434 . S
C1249 C1240 1.429 . S
C1249 N1246 1.350 . S
C1249 C1248 1.434 . S
C1250 C1251 1.369 . S
C1250 C1252 1.419 . S
C1250 H1254 0.930 . S
C1251 C1250 1.369 . S
C1251 C1260 1.429 . S
C1252 C1250 1.419 . S
C1252 C1253 1.363 . S
C1252 H1255 0.929 . S
C1253 C1252 1.363 . S
C1253 C1259 1.428 . S
H1254 C1250 0.930 . S
H1255 C1252 0.929 . S
S1256 N1257 1.613 . S
S1256 N1258 1.610 . S
N1257 S1256 1.613 . S
N1257 C1260 1.350 . S
N1258 S1256 1.610 . S
N1258 C1259 1.351 . S
C1259 C1253 1.428 . S
C1259 N1258 1.351 . S
C1259 C1260 1.434 . S
C1260 C1251 1.429 . S
C1260 N1257 1.350 . S
C1260 C1259 1.434 . S
C1261 C1262 1.369 . S
C1261 C1263 1.419 . S
C1261 H1265 0.930 . S
C1262 C1261 1.369 . S
C1262 C1271 1.429 . S
C1263 C1261 1.419 . S
C1263 C1264 1.363 . S
C1263 H1266 0.929 . S
C1264 C1263 1.363 . S
C1264 C1270 1.428 . S
H1265 C1261 0.930 . S
H1266 C1263 0.929 . S
S1267 N1268 1.613 . S
S1267 N1269 1.610 . S
N1268 S1267 1.613 . S
N1268 C1271 1.350 . S
N1269 S1267 1.610 . S
N1269 C1270 1.351 . S
C1270 C1264 1.428 . S
C1270 N1269 1.351 . S
C1270 C1271 1.434 . S
C1271 C1262 1.429 . S
C1271 N1268 1.350 . S
C1271 C1270 1.434 . S
C1272 C1273 1.369 . S
C1272 C1274 1.419 . S
C1272 H1276 0.930 . S
C1273 C1272 1.369 . S
C1273 C1282 1.429 . S
C1274 C1272 1.419 . S
C1274 C1275 1.363 . S
C1274 H1277 0.929 . S
C1275 C1274 1.363 . S
C1275 C1281 1.428 . S
H1276 C1272 0.930 . S
H1277 C1274 0.929 . S
S1278 N1279 1.613 . S
S1278 N1280 1.610 . S
N1279 S1278 1.613 . S
N1279 C1282 1.350 . S
N1280 S1278 1.610 . S
N1280 C1281 1.351 . S
C1281 C1275 1.428 . S
C1281 N1280 1.351 . S
C1281 C1282 1.434 . S
C1282 C1273 1.429 . S
C1282 N1279 1.350 . S
C1282 C1281 1.434 . S
C1283 C1284 1.369 . S
C1283 C1285 1.419 . S
C1283 H1287 0.930 . S
C1284 C1283 1.369 . S
C1284 C1293 1.429 . S
C1285 C1283 1.419 . S
C1285 C1286 1.363 . S
C1285 H1288 0.929 . S
C1286 C1285 1.363 . S
C1286 C1292 1.428 . S
H1287 C1283 0.930 . S
H1288 C1285 0.929 . S
S1289 N1290 1.613 . S
S1289 N1291 1.610 . S
N1290 S1289 1.613 . S
N1290 C1293 1.350 . S
N1291 S1289 1.610 . S
N1291 C1292 1.351 . S
C1292 C1286 1.428 . S
C1292 N1291 1.351 . S
C1292 C1293 1.434 . S
C1293 C1284 1.429 . S
C1293 N1290 1.350 . S
C1293 C1292 1.434 . S
C1294 C1295 1.369 . S
C1294 C1296 1.419 . S
C1294 H1298 0.930 . S
C1295 C1294 1.369 . S
C1295 C1304 1.429 . S
C1296 C1294 1.419 . S
C1296 C1297 1.363 . S
C1296 H1299 0.929 . S
C1297 C1296 1.363 . S
C1297 C1303 1.428 . S
H1298 C1294 0.930 . S
H1299 C1296 0.929 . S
S1300 N1301 1.613 . S
S1300 N1302 1.610 . S
N1301 S1300 1.613 . S
N1301 C1304 1.350 . S
N1302 S1300 1.610 . S
N1302 C1303 1.351 . S
C1303 C1297 1.428 . S
C1303 N1302 1.351 . S
C1303 C1304 1.434 . S
C1304 C1295 1.429 . S
C1304 N1301 1.350 . S
C1304 C1303 1.434 . S
C1305 C1306 1.369 . S
C1305 C1307 1.419 . S
C1305 H1309 0.930 . S
C1306 C1305 1.369 . S
C1306 C1315 1.429 . S
C1307 C1305 1.419 . S
C1307 C1308 1.363 . S
C1307 H1310 0.929 . S
C1308 C1307 1.363 . S
C1308 C1314 1.428 . S
H1309 C1305 0.930 . S
H1310 C1307 0.929 . S
S1311 N1312 1.613 . S
S1311 N1313 1.610 . S
N1312 S1311 1.613 . S
N1312 C1315 1.350 . S
N1313 S1311 1.610 . S
N1313 C1314 1.351 . S
C1314 C1308 1.428 . S
C1314 N1313 1.351 . S
C1314 C1315 1.434 . S
C1315 C1306 1.429 . S
C1315 N1312 1.350 . S
C1315 C1314 1.434 . S
C1316 C1317 1.369 . S
C1316 C1318 1.419 . S
C1316 H1320 0.930 . S
C1317 C1316 1.369 . S
C1317 C1326 1.429 . S
C1318 C1316 1.419 . S
C1318 C1319 1.363 . S
C1318 H1321 0.929 . S
C1319 C1318 1.363 . S
C1319 C1325 1.428 . S
H1320 C1316 0.930 . S
H1321 C1318 0.929 . S
S1322 N1323 1.613 . S
S1322 N1324 1.610 . S
N1323 S1322 1.613 . S
N1323 C1326 1.350 . S
N1324 S1322 1.610 . S
N1324 C1325 1.351 . S
C1325 C1319 1.428 . S
C1325 N1324 1.351 . S
C1325 C1326 1.434 . S
C1326 C1317 1.429 . S
C1326 N1323 1.350 . S
C1326 C1325 1.434 . S
C1327 C1328 1.369 . S
C1327 C1329 1.419 . S
C1327 H1331 0.930 . S
C1328 C1327 1.369 . S
C1328 C1337 1.429 . S
C1329 C1327 1.419 . S
C1329 C1330 1.363 . S
C1329 H1332 0.929 . S
C1330 C1329 1.363 . S
C1330 C1336 1.428 . S
H1331 C1327 0.930 . S
H1332 C1329 0.929 . S
S1333 N1334 1.613 . S
S1333 N1335 1.610 . S
N1334 S1333 1.613 . S
N1334 C1337 1.350 . S
N1335 S1333 1.610 . S
N1335 C1336 1.351 . S
C1336 C1330 1.428 . S
C1336 N1335 1.351 . S
C1336 C1337 1.434 . S
C1337 C1328 1.429 . S
C1337 N1334 1.350 . S
C1337 C1336 1.434 . S
C1338 C1339 1.369 1_554 S
C1338 C1340 1.419 . S
C1338 H1342 0.930 . S
C1339 C1338 1.369 1_556 S
C1339 C1348 1.429 . S
C1340 C1338 1.419 . S
C1340 C1341 1.363 . S
C1340 H1343 0.929 . S
C1341 C1340 1.363 . S
C1341 C1347 1.428 1_554 S
H1342 C1338 0.930 . S
H1343 C1340 0.929 . S
S1344 N1345 1.613 . S
S1344 N1346 1.610 . S
N1345 S1344 1.613 . S
N1345 C1348 1.350 . S
N1346 S1344 1.610 . S
N1346 C1347 1.351 . S
C1347 C1341 1.428 1_556 S
C1347 N1346 1.351 . S
C1347 C1348 1.434 . S
C1348 C1339 1.429 . S
C1348 N1345 1.350 . S
C1348 C1347 1.434 . S
C1349 C1350 1.369 . S
C1349 C1351 1.419 1_455 S
C1349 H1353 0.930 . S
C1350 C1349 1.369 . S
C1350 C1359 1.429 . S
C1351 C1349 1.419 1_655 S
C1351 C1352 1.363 . S
C1351 H1354 0.929 . S
C1352 C1351 1.363 . S
C1352 C1358 1.428 . S
H1353 C1349 0.930 . S
H1354 C1351 0.929 . S
S1355 N1356 1.613 1_655 S
S1355 N1357 1.610 . S
N1356 S1355 1.613 1_455 S
N1356 C1359 1.350 . S
N1357 S1355 1.610 . S
N1357 C1358 1.351 . S
C1358 C1352 1.428 . S
C1358 N1357 1.351 . S
C1358 C1359 1.434 1_655 S
C1359 C1350 1.429 . S
C1359 N1356 1.350 . S
C1359 C1358 1.434 1_455 S
C1360 C1361 1.369 1_556 S
C1360 C1362 1.419 1_565 S
C1360 H1364 0.930 . S
C1361 C1360 1.369 1_554 S
C1361 C1370 1.429 . S
C1362 C1360 1.419 1_545 S
C1362 C1363 1.363 . S
C1362 H1365 0.929 . S
C1363 C1362 1.363 . S
C1363 C1369 1.428 1_556 S
H1364 C1360 0.930 . S
H1365 C1362 0.929 . S
S1366 N1367 1.613 1_545 S
S1366 N1368 1.610 . S
N1367 S1366 1.613 1_565 S
N1367 C1370 1.350 . S
N1368 S1366 1.610 . S
N1368 C1369 1.351 . S
C1369 C1363 1.428 1_554 S
C1369 N1368 1.351 . S
C1369 C1370 1.434 1_545 S
C1370 C1361 1.429 . S
C1370 N1367 1.350 . S
C1370 C1369 1.434 1_565 S
C1371 C1372 1.369 . S
C1371 C1373 1.419 . S
C1371 H1375 0.930 . S
C1372 C1371 1.369 . S
C1372 C1381 1.429 . S
C1373 C1371 1.419 . S
C1373 C1374 1.363 . S
C1373 H1376 0.929 . S
C1374 C1373 1.363 . S
C1374 C1380 1.428 . S
H1375 C1371 0.930 . S
H1376 C1373 0.929 . S
S1377 N1378 1.613 . S
S1377 N1379 1.610 . S
N1378 S1377 1.613 . S
N1378 C1381 1.350 . S
N1379 S1377 1.610 . S
N1379 C1380 1.351 . S
C1380 C1374 1.428 . S
C1380 N1379 1.351 . S
C1380 C1381 1.434 . S
C1381 C1372 1.429 . S
C1381 N1378 1.350 . S
C1381 C1380 1.434 . S
C1382 C1383 1.369 . S
C1382 C1384 1.408 1_656 S
C1382 H1386 0.930 . S
C1383 C1382 1.369 . S
C1383 C1392 1.416 1_556 S
C1384 C1382 1.408 1_454 S
C1384 C1385 1.374 . S
C1384 H1387 0.929 . S
C1385 C1384 1.374 . S
C1385 C1391 1.428 . S
H1386 C1382 0.930 . S
H1387 C1384 0.929 . S
S1388 N1389 1.613 . S
S1388 N1390 1.610 1_655 S
N1389 S1388 1.613 . S
N1389 C1392 1.353 . S
N1390 S1388 1.610 1_455 S
N1390 C1391 1.351 . S
C1391 C1385 1.428 . S
C1391 N1390 1.351 . S
C1391 C1392 1.446 1_455 S
C1392 C1383 1.416 1_554 S
C1392 N1389 1.353 . S
C1392 C1391 1.446 1_655 S
C1393 C1394 1.369 . S
C1393 C1395 1.419 1_565 S
C1393 H1397 0.930 . S
C1394 C1393 1.369 . S
C1394 C1403 1.429 . S
C1395 C1393 1.419 1_545 S
C1395 C1396 1.363 . S
C1395 H1398 0.929 . S
C1396 C1395 1.363 . S
C1396 C1402 1.428 . S
H1397 C1393 0.930 . S
H1398 C1395 0.929 . S
S1399 N1400 1.613 . S
S1399 N1401 1.610 1_565 S
N1400 S1399 1.613 . S
N1400 C1403 1.350 . S
N1401 S1399 1.610 1_545 S
N1401 C1402 1.351 . S
C1402 C1396 1.428 . S
C1402 N1401 1.351 . S
C1402 C1403 1.434 1_545 S
C1403 C1394 1.429 . S
C1403 N1400 1.350 . S
C1403 C1402 1.434 1_565 S
C1009 C391 1.410 . S
C1011 C58 1.243 . S
C1020 C475 1.406 . S
C1022 C142 1.249 . S
C1031 C226 1.235 . S
C1033 C55 1.410 . S
C1042 C310 1.251 . S
C1044 C139 1.406 . S
C1053 C394 1.251 . S
C1055 C223 1.407 . S
C1064 C307 1.408 . S
C1066 C478 1.239 . S
C1075 C727 1.411 . S
C1077 C562 1.237 . S
C1086 C646 1.235 . S
C1088 C811 1.409 . S
C1097 C895 1.408 . S
C1099 C730 1.240 . S
C1108 C814 1.251 . S
C1110 C979 1.407 . S
C1119 C898 1.251 . S
C1121 C559 1.407 . S
C1130 C643 1.408 . S
C1132 C982 1.239 . S
C1141 C403 1.452 . S
C1143 C70 1.322 . S
C1152 C154 1.308 . S
C1154 C487 1.456 . S
C1163 C238 1.307 . S
C1165 C67 1.456 . S
C1174 C322 1.322 . S
C1176 C151 1.455 . S
C1185 C235 1.453 . S
C1187 C406 1.313 . S
C1196 C319 1.457 . S
C1198 C490 1.309 . S
C1207 C739 1.456 . S
C1209 C574 1.318 . S
C1218 C658 1.322 . S
C1220 C823 1.452 . S
C1229 C742 1.314 . S
C1231 C907 1.453 . S
C1240 C991 1.453 . S
C1242 C826 1.313 . S
C1251 C910 1.308 . S
C1253 C571 1.456 . S
C1262 C655 1.457 . S
C1264 C994 1.316 . S
C1273 C896 1.820 . S
C1275 C56 1.819 . S
C1284 C140 1.822 . S
C1286 C980 1.826 . S
C1295 C224 1.828 . S
C1297 C560 1.822 . S
C1306 C308 1.825 . S
C1308 C644 1.825 . S
C1317 C392 1.820 . S
C1319 C728 1.819 . S
C1328 C812 1.818 . S
C1330 C476 1.825 . S
C1339 C824 2.031 . S
C1341 C68 2.036 . S
C1350 C908 2.030 . S
C1352 C152 2.034 . S
C1361 C236 2.030 . S
C1363 C992 2.035 . S
C1372 C320 2.035 . S
C1374 C572 2.035 . S
C1383 C656 2.034 . S
C1385 C404 2.031 . S
C1394 C740 2.036 . S
C1396 C488 2.032 . S
