# Generated by pormake.
# Topology ooa, (5)-cn, num edge types: 1
# Building blocks:
#     Node 0, Type 0, BuildingBlock: BEQFEK_clean_sbu_0, # of connection points: 5
#     Node 1, Type 0, BuildingBlock: BEQFEK_clean_sbu_0, # of connection points: 5
#     Node 2, Type 0, BuildingBlock: BEQFEK_clean_sbu_0, # of connection points: 5
#     Node 3, Type 0, BuildingBlock: BEQFEK_clean_sbu_0, # of connection points: 5
#     Node 4, Type 0, BuildingBlock: BEQFEK_clean_sbu_0, # of connection points: 5
#     Node 5, Type 0, BuildingBlock: BEQFEK_clean_sbu_0, # of connection points: 5
#     Node 6, Type 0, BuildingBlock: BEQFEK_clean_sbu_0, # of connection points: 5
#     Node 7, Type 0, BuildingBlock: BEQFEK_clean_sbu_0, # of connection points: 5
#     Edge 8, Type (0, 0), BuildingBlock: XUDNAN_clean_linker_2, # of connection points: 2
#     Edge 9, Type (0, 0), BuildingBlock: XUDNAN_clean_linker_2, # of connection points: 2
#     Edge 10, Type (0, 0), BuildingBlock: XUDNAN_clean_linker_2, # of connection points: 2
#     Edge 11, Type (0, 0), BuildingBlock: XUDNAN_clean_linker_2, # of connection points: 2
#     Edge 12, Type (0, 0), BuildingBlock: XUDNAN_clean_linker_2, # of connection points: 2
#     Edge 13, Type (0, 0), BuildingBlock: XUDNAN_clean_linker_2, # of connection points: 2
#     Edge 14, Type (0, 0), BuildingBlock: XUDNAN_clean_linker_2, # of connection points: 2
#     Edge 15, Type (0, 0), BuildingBlock: XUDNAN_clean_linker_2, # of connection points: 2
#     Edge 16, Type (0, 0), BuildingBlock: XUDNAN_clean_linker_2, # of connection points: 2
#     Edge 17, Type (0, 0), BuildingBlock: XUDNAN_clean_linker_2, # of connection points: 2
#     Edge 18, Type (0, 0), BuildingBlock: XUDNAN_clean_linker_2, # of connection points: 2
#     Edge 19, Type (0, 0), BuildingBlock: XUDNAN_clean_linker_2, # of connection points: 2
#     Edge 20, Type (0, 0), BuildingBlock: XUDNAN_clean_linker_2, # of connection points: 2
#     Edge 21, Type (0, 0), BuildingBlock: XUDNAN_clean_linker_2, # of connection points: 2
#     Edge 22, Type (0, 0), BuildingBlock: XUDNAN_clean_linker_2, # of connection points: 2
#     Edge 23, Type (0, 0), BuildingBlock: XUDNAN_clean_linker_2, # of connection points: 2
#     Edge 24, Type (0, 0), BuildingBlock: XUDNAN_clean_linker_2, # of connection points: 2
#     Edge 25, Type (0, 0), BuildingBlock: XUDNAN_clean_linker_2, # of connection points: 2
#     Edge 26, Type (0, 0), BuildingBlock: XUDNAN_clean_linker_2, # of connection points: 2
#     Edge 27, Type (0, 0), BuildingBlock: XUDNAN_clean_linker_2, # of connection points: 2
# Relax obj value: 0.506
# Max RMSD: 0.273
# Mean RMSD: 0.273
data_MOF--net-ooa--node1-BEQFEK_clean_sbu_0--edge1-XUDNAN_clean_linker_2
_symmetry_space_group_name_H-M    P1
_symmetry_Int_Tables_number       1
_symmetry_cell_setting            triclinic
loop_
_symmetry_equiv_pos_as_xyz
'x, y, z'
_cell_length_a     27.422249
_cell_length_b     47.097737
_cell_length_c     48.433454
_cell_angle_alpha  90.083199
_cell_angle_beta   90.012344
_cell_angle_gamma 89.983068
loop_
_atom_site_label
_atom_site_type_symbol
_atom_site_fract_x
_atom_site_fract_y
_atom_site_fract_z
_atom_type_partial_charge
Co0 Co 0.17832 0.1065 0.04767 0.0
Co1 Co 0.20358 0.15761 0.08644 0.0
C2 C 0.22788 0.09899 0.10289 0.0
O3 O 0.2136 0.09108 0.07927 0.0
O4 O 0.22414 0.12473 0.11061 0.0
C5 C 0.12359 0.05871 0.04994 0.0
O6 O 0.12632 0.06717 0.07574 0.0
C7 C 0.20011 0.19504 0.13499 0.0
C8 C 0.21881 0.23679 0.11725 0.0
C9 C 0.20594 0.22351 0.14171 0.0
N10 N 0.20932 0.19167 0.10788 0.0
N11 N 0.22088 0.2167 0.09745 0.0
C12 C 0.18158 0.17186 0.15327 0.0
H13 H 0.1615 0.15582 0.1409 0.0
H14 H 0.15735 0.18052 0.1696 0.0
H15 H 0.21303 0.16124 0.16333 0.0
C16 C 0.08349 0.13433 0.04689 0.0
N17 N 0.12868 0.13207 0.0574 0.0
N18 N 0.13766 0.15386 0.07361 0.0
C19 C 0.09763 0.17075 0.07399 0.0
C20 C 0.06185 0.15859 0.05732 0.0
C21 C 0.06421 0.11616 0.02386 0.0
H22 H 0.09423 0.10977 0.00987 0.0
H23 H 0.04714 0.09688 0.03272 0.0
H24 H 0.03624 0.12748 0.01151 0.0
O25 O 0.22507 0.12605 0.02387 0.0
O26 O 0.24822 0.16041 0.05291 0.0
H27 H 0.12195 0.21346 0.07936 0.0
H28 H 0.05785 0.2082 0.0867 0.0
C29 C 0.0948 0.19874 0.08847 0.0
H30 H 0.104 0.19587 0.11058 0.0
H31 H 0.22906 0.22016 0.07669 0.0
O32 O 0.14618 0.07275 0.03148 0.0
C33 C 0.25169 0.14748 0.02966 0.0
Co34 Co 0.32653 0.88552 0.04606 0.0
Co35 Co 0.29681 0.84564 0.09519 0.0
C36 C 0.29561 0.90755 0.10264 0.0
O37 O 0.30811 0.90905 0.07757 0.0
O38 O 0.28899 0.88361 0.11405 0.0
C39 C 0.40043 0.92179 0.04207 0.0
O40 O 0.40317 0.90969 0.06644 0.0
C41 C 0.29322 0.81986 0.15 0.0
C42 C 0.26595 0.77657 0.1418 0.0
C43 C 0.28003 0.79473 0.16289 0.0
N44 N 0.28661 0.81693 0.12265 0.0
N45 N 0.27052 0.79092 0.11783 0.0
C46 C 0.31465 0.84573 0.16326 0.0
H47 H 0.342 0.85549 0.14932 0.0
H48 H 0.33225 0.84041 0.18324 0.0
H49 H 0.28524 0.86144 0.16707 0.0
C50 C 0.40904 0.84619 0.04398 0.0
N51 N 0.36746 0.85503 0.05585 0.0
N52 N 0.35961 0.84059 0.0786 0.0
C53 C 0.39789 0.82296 0.0827 0.0
C54 C 0.43041 0.82583 0.0607 0.0
C55 C 0.42931 0.85844 0.01781 0.0
H56 H 0.40075 0.87001 0.00625 0.0
H57 H 0.45996 0.87295 0.02282 0.0
H58 H 0.44346 0.84154 0.00411 0.0
O59 O 0.26682 0.86983 0.02944 0.0
O60 O 0.24651 0.84134 0.0646 0.0
H61 H 0.37357 0.78714 0.10582 0.0
H62 H 0.43871 0.79267 0.10707 0.0
C63 C 0.40271 0.80343 0.10685 0.0
H64 H 0.39758 0.81561 0.12626 0.0
H65 H 0.26232 0.78304 0.09823 0.0
O66 O 0.36665 0.91393 0.02557 0.0
C67 C 0.23859 0.85138 0.04037 0.0
Co68 Co 0.17917 0.39469 0.44744 0.0
Co69 Co 0.19745 0.35099 0.39912 0.0
C70 C 0.20823 0.41326 0.3903 0.0
O71 O 0.19767 0.41713 0.41545 0.0
O72 O 0.2104 0.38841 0.38008 0.0
C73 C 0.12151 0.43953 0.46103 0.0
O74 O 0.1122 0.43523 0.43476 0.0
C75 C 0.19939 0.32405 0.34384 0.0
C76 C 0.19149 0.27856 0.35377 0.0
C77 C 0.19418 0.29736 0.33184 0.0
N78 N 0.19839 0.32123 0.37152 0.0
N79 N 0.19437 0.29389 0.37727 0.0
C80 C 0.20921 0.35156 0.32939 0.0
H81 H 0.24086 0.36218 0.33919 0.0
H82 H 0.17693 0.36563 0.3314 0.0
H83 H 0.21801 0.34843 0.30727 0.0
C84 C 0.08575 0.36511 0.4501 0.0
N85 N 0.12977 0.36874 0.43846 0.0
N86 N 0.13449 0.35147 0.41722 0.0
C87 C 0.09217 0.33684 0.41431 0.0
C88 C 0.06002 0.34531 0.43499 0.0
C89 C 0.06951 0.37866 0.47658 0.0
H90 H 0.10124 0.38324 0.49003 0.0
H91 H 0.04987 0.39868 0.47192 0.0
H92 H 0.04397 0.36457 0.48789 0.0
O93 O 0.23626 0.37461 0.46155 0.0
O94 O 0.25055 0.34346 0.42775 0.0
H95 H 0.09876 0.29508 0.39773 0.0
H96 H 0.04227 0.3125 0.38929 0.0
C97 C 0.08209 0.3157 0.392 0.0
H98 H 0.09847 0.32291 0.37228 0.0
H99 H 0.19246 0.28573 0.39726 0.0
O100 O 0.15224 0.42348 0.47305 0.0
C101 C 0.2613 0.3544 0.45124 0.0
Co102 Co 0.32075 0.61288 0.45496 0.0
Co103 Co 0.30488 0.66165 0.41165 0.0
C104 C 0.28947 0.60101 0.39652 0.0
O105 O 0.29892 0.59386 0.42118 0.0
O106 O 0.29108 0.6268 0.38875 0.0
C107 C 0.37221 0.56343 0.46853 0.0
O108 O 0.37764 0.56299 0.44159 0.0
C109 C 0.29341 0.69762 0.36157 0.0
C110 C 0.30562 0.74034 0.37915 0.0
C111 C 0.29563 0.72629 0.35463 0.0
N112 N 0.30279 0.69498 0.38878 0.0
N113 N 0.30959 0.72066 0.39912 0.0
C114 C 0.27727 0.67349 0.3436 0.0
H115 H 0.25118 0.65997 0.35508 0.0
H116 H 0.30939 0.66034 0.33803 0.0
H117 H 0.25901 0.68102 0.32456 0.0
C118 C 0.41598 0.64069 0.46016 0.0
N119 N 0.37203 0.63857 0.44803 0.0
N120 N 0.36757 0.65852 0.42917 0.0
C121 C 0.40973 0.67353 0.42834 0.0
C122 C 0.44156 0.66253 0.44791 0.0
C123 C 0.43191 0.62387 0.48482 0.0
H124 H 0.40049 0.61975 0.49861 0.0
H125 H 0.44754 0.6034 0.47777 0.0
H126 H 0.46037 0.63525 0.49679 0.0
O127 O 0.26592 0.63287 0.47196 0.0
O128 O 0.25297 0.66693 0.44103 0.0
H129 H 0.40636 0.71758 0.41845 0.0
H130 H 0.45983 0.69987 0.40569 0.0
C131 C 0.42 0.69758 0.40912 0.0
H132 H 0.40135 0.69411 0.38908 0.0
H133 H 0.31651 0.72476 0.41993 0.0
O134 O 0.34586 0.58269 0.47936 0.0
C135 C 0.24212 0.65445 0.46366 0.0
Co136 Co 0.81437 0.88799 0.9617 0.0
Co137 Co 0.7887 0.84096 0.91831 0.0
C138 C 0.77461 0.90222 0.90538 0.0
O139 O 0.78986 0.90812 0.92943 0.0
O140 O 0.77078 0.87658 0.89713 0.0
C141 C 0.86763 0.93672 0.97479 0.0
O142 O 0.87039 0.93768 0.94774 0.0
C143 C 0.79339 0.80684 0.86705 0.0
C144 C 0.77633 0.764 0.88284 0.0
C145 C 0.78908 0.7786 0.85911 0.0
N146 N 0.78363 0.80877 0.89424 0.0
N147 N 0.7729 0.78312 0.90343 0.0
C148 C 0.81108 0.83109 0.84985 0.0
H149 H 0.82995 0.84697 0.863 0.0
H150 H 0.83609 0.82353 0.83339 0.0
H151 H 0.77929 0.84151 0.83995 0.0
C152 C 0.90946 0.85997 0.9604 0.0
N153 N 0.86346 0.8626 0.95121 0.0
N154 N 0.8545 0.84295 0.93253 0.0
C155 C 0.89548 0.8272 0.92917 0.0
C156 C 0.93165 0.83789 0.94646 0.0
C157 C 0.93054 0.87636 0.98413 0.0
H158 H 0.90224 0.88023 1.00001 0.0
H159 H 0.94456 0.89698 0.97649 0.0
H160 H 0.96123 0.8648 0.99395 0.0
O161 O 0.76265 0.86741 0.98088 0.0
O162 O 0.7415 0.83462 0.95002 0.0
H163 H 0.873 0.78578 0.91648 0.0
H164 H 0.93703 0.79303 0.9108 0.0
C165 C 0.89977 0.80222 0.91027 0.0
H166 H 0.89106 0.80887 0.88889 0.0
H167 H 0.76474 0.77852 0.92399 0.0
O168 O 0.84278 0.91713 0.98605 0.0
C169 C 0.73643 0.84638 0.97368 0.0
Co170 Co 0.67435 0.11356 0.95294 0.0
Co171 Co 0.69427 0.15524 0.90353 0.0
C172 C 0.70061 0.09276 0.89596 0.0
O173 O 0.691 0.08952 0.92131 0.0
O174 O 0.703 0.11729 0.88517 0.0
C175 C 0.61276 0.07099 0.96812 0.0
O176 O 0.59983 0.07632 0.94252 0.0
C177 C 0.69664 0.1808 0.8478 0.0
C178 C 0.69167 0.22665 0.8569 0.0
C179 C 0.69247 0.20728 0.83533 0.0
N180 N 0.69674 0.18429 0.87541 0.0
N181 N 0.69455 0.21182 0.88066 0.0
C182 C 0.70432 0.15278 0.83379 0.0
H183 H 0.73523 0.14156 0.84369 0.0
H184 H 0.67104 0.1396 0.83607 0.0
H185 H 0.71318 0.15526 0.8116 0.0
C186 C 0.58396 0.14707 0.95635 0.0
N187 N 0.627 0.14121 0.94428 0.0
N188 N 0.63216 0.15694 0.92204 0.0
C189 C 0.59067 0.17206 0.91836 0.0
C190 C 0.55907 0.16656 0.94023 0.0
C191 C 0.56589 0.13307 0.98219 0.0
H192 H 0.59689 0.12601 0.99511 0.0
H193 H 0.54283 0.11459 0.9766 0.0
H194 H 0.54334 0.14766 0.99474 0.0
O195 O 0.7333 0.13223 0.96632 0.0
O196 O 0.74882 0.162 0.93162 0.0
H197 H 0.59928 0.21191 0.89816 0.0
H198 H 0.54162 0.19518 0.8916 0.0
C199 C 0.58119 0.19122 0.89436 0.0
H200 H 0.59656 0.18183 0.87523 0.0
H201 H 0.69367 0.22047 0.9005 0.0
O202 O 0.64675 0.08565 0.97898 0.0
C203 C 0.75949 0.15148 0.9553 0.0
Co204 Co 0.82894 0.61095 0.552 0.0
Co205 Co 0.80685 0.65333 0.60114 0.0
C206 C 0.80274 0.59043 0.60904 0.0
O207 O 0.8148 0.58742 0.58399 0.0
O208 O 0.79664 0.61502 0.61943 0.0
C209 C 0.8558 0.55815 0.52852 0.0
O210 O 0.82293 0.54823 0.54566 0.0
C211 C 0.80439 0.67969 0.65666 0.0
C212 C 0.80525 0.72546 0.64684 0.0
C213 C 0.8064 0.70653 0.66871 0.0
N214 N 0.80354 0.68266 0.62901 0.0
N215 N 0.80335 0.71011 0.62334 0.0
C216 C 0.7992 0.65172 0.67105 0.0
H217 H 0.76847 0.63977 0.66177 0.0
H218 H 0.83306 0.63915 0.66821 0.0
H219 H 0.79138 0.65426 0.69336 0.0
C220 C 0.91974 0.6426 0.55029 0.0
N221 N 0.87588 0.63792 0.56169 0.0
N222 N 0.86938 0.65514 0.58282 0.0
C223 C 0.90999 0.67134 0.58553 0.0
C224 C 0.94302 0.66372 0.565 0.0
C225 C 0.93842 0.62766 0.52507 0.0
H226 H 0.90935 0.62682 0.50917 0.0
H227 H 0.94874 0.6056 0.53061 0.0
H228 H 0.97072 0.63847 0.51617 0.0
O229 O 0.7697 0.62978 0.53863 0.0
O230 O 0.75382 0.66028 0.57275 0.0
H231 H 0.89746 0.71281 0.6017 0.0
H232 H 0.95686 0.69863 0.60956 0.0
C233 C 0.91761 0.69327 0.60743 0.0
H234 H 0.90328 0.68549 0.62744 0.0
H235 H 0.80298 0.71839 0.60336 0.0
O236 O 0.8589 0.58475 0.52476 0.0
C237 C 0.74367 0.64944 0.54917 0.0
Co238 Co 0.68096 0.39576 0.55012 0.0
Co239 Co 0.69987 0.34383 0.58934 0.0
C240 C 0.72068 0.40229 0.60809 0.0
O241 O 0.70953 0.41077 0.58413 0.0
O242 O 0.71748 0.37625 0.61474 0.0
C243 C 0.62415 0.44287 0.55047 0.0
O244 O 0.62281 0.43358 0.57601 0.0
C245 C 0.69319 0.3063 0.63754 0.0
C246 C 0.71019 0.26427 0.61974 0.0
C247 C 0.69796 0.2778 0.64422 0.0
N248 N 0.70254 0.30951 0.61045 0.0
N249 N 0.71293 0.2843 0.59996 0.0
C250 C 0.67589 0.32979 0.65593 0.0
H251 H 0.65472 0.34551 0.64379 0.0
H252 H 0.65295 0.32145 0.67295 0.0
H253 H 0.70799 0.34071 0.66499 0.0
C254 C 0.58637 0.36767 0.54449 0.0
N255 N 0.63032 0.36959 0.55665 0.0
N256 N 0.63631 0.34808 0.5736 0.0
C257 C 0.59557 0.33183 0.57287 0.0
C258 C 0.56248 0.34404 0.5546 0.0
C259 C 0.56988 0.38595 0.52093 0.0
H260 H 0.60154 0.39282 0.5084 0.0
H261 H 0.5509 0.40492 0.52924 0.0
H262 H 0.54401 0.37443 0.50732 0.0
O263 O 0.73356 0.37713 0.52907 0.0
O264 O 0.7487 0.3412 0.55793 0.0
H265 H 0.61508 0.28862 0.58009 0.0
H266 H 0.55148 0.29646 0.58645 0.0
C267 C 0.58928 0.30466 0.58835 0.0
H268 H 0.5981 0.30812 0.61045 0.0
H269 H 0.72117 0.28072 0.57921 0.0
O270 O 0.65038 0.42968 0.53291 0.0
C271 C 0.75782 0.35499 0.53571 0.0
H272 H 0.08095 0.04853 0.99959 0.0
H273 H 0.08588 0.01903 0.08444 0.0
H274 H 0.01881 0.98566 0.07475 0.0
H275 H 0.95213 0.04709 0.99321 0.0
H276 H 0.9518 0.03507 0.95786 0.0
H277 H 0.00236 0.05561 0.97072 0.0
H278 H 0.06272 0.01586 0.95612 0.0
H279 H 0.01243 0.99548 0.94272 0.0
H280 H 0.05275 0.98006 0.96799 0.0
H281 H 0.94916 0.95731 0.05676 0.0
H282 H 0.88569 0.93223 0.03016 0.0
H283 H 0.92534 0.98042 0.95711 0.0
C284 C 0.06859 0.0346 0.01593 0.0
C285 C 0.08861 0.03623 0.04272 0.0
C286 C 0.07093 0.01808 0.06376 0.0
C287 C 0.03279 0.99914 0.0585 0.0
C288 C 0.01272 0.9987 0.03214 0.0
C289 C 0.03023 0.01569 0.01111 0.0
C290 C 0.00142 0.01138 0.98479 0.0
C291 C 0.97539 0.03893 0.97615 0.0
C292 C 0.03429 1.00001 0.96154 0.0
C293 C 0.96531 0.98917 0.99432 0.0
C294 C 0.97224 0.98234 0.02176 0.0
C295 C 0.94339 0.96237 0.03522 0.0
C296 C 0.90725 0.94838 0.01999 0.0
C297 C 0.90064 0.95436 0.99158 0.0
C298 C 0.92952 0.9754 0.9788 0.0
H299 H 0.5311 0.04196 0.95236 0.0
H300 H 0.63477 0.05081 0.01966 0.0
H301 H 0.59093 0.0136 0.04563 0.0
H302 H 0.42484 0.03078 0.99525 0.0
H303 H 0.39771 0.00551 0.97187 0.0
H304 H 0.43689 0.03306 0.95873 0.0
H305 H 0.49146 0.99499 0.93542 0.0
H306 H 0.45258 0.96733 0.94858 0.0
H307 H 0.51697 0.96682 0.95605 0.0
H308 H 0.53743 0.97546 0.06367 0.0
H309 H 0.47664 0.93877 0.07375 0.0
H310 H 0.40656 0.95449 0.99473 0.0
C311 C 0.54465 0.0361 0.97257 0.0
C312 C 0.58646 0.04917 0.98401 0.0
C313 C 0.60282 0.04105 0.01055 0.0
C314 C 0.5782 0.01996 0.02541 0.0
C315 C 0.53727 0.00743 0.01345 0.0
C316 C 0.52042 0.01524 0.98771 0.0
C317 C 0.47546 0.99845 0.97962 0.0
C318 C 0.4311 0.01813 0.97617 0.0
C319 C 0.4847 0.98085 0.95336 0.0
C320 C 0.47003 0.97963 0.00473 0.0
C321 C 0.50604 0.98533 0.02396 0.0
C322 C 0.50901 0.97083 0.04883 0.0
C323 C 0.47419 0.94998 0.05429 0.0
C324 C 0.43677 0.9437 0.03497 0.0
C325 C 0.43476 0.95876 0.00983 0.0
H326 H 0.89726 0.54489 0.4786 0.0
H327 H 0.91362 0.53457 0.56697 0.0
H328 H 0.98769 0.50574 0.55971 0.0
H329 H 0.93391 0.47487 0.46017 0.0
H330 H 0.96614 0.48551 0.42945 0.0
H331 H 0.91578 0.50646 0.44183 0.0
H332 H 0.97174 0.5509 0.44327 0.0
H333 H 0.02246 0.52993 0.4312 0.0
H334 H 0.02756 0.54976 0.46292 0.0
H335 H 0.05754 0.4764 0.54287 0.0
H336 H 0.11681 0.44681 0.51724 0.0
H337 H 0.05594 0.47703 0.43989 0.0
C338 C 0.91665 0.5365 0.49628 0.0
C339 C 0.89936 0.54101 0.52327 0.0
C340 C 0.92561 0.53022 0.5461 0.0
C341 C 0.96803 0.51425 0.5422 0.0
C342 C 0.98392 0.50963 0.51531 0.0
C343 C 0.95913 0.5204 0.49271 0.0
C344 C 0.98293 0.51124 0.46599 0.0
C345 C 0.94759 0.49346 0.44833 0.0
C346 C 0.00232 0.537 0.4499 0.0
C347 C 0.02427 0.49331 0.47714 0.0
C348 C 0.02456 0.49289 0.50562 0.0
C349 C 0.05807 0.47674 0.52053 0.0
C350 C 0.09163 0.46008 0.50584 0.0
C351 C 0.09099 0.45967 0.47664 0.0
C352 C 0.05748 0.47697 0.46223 0.0
H353 H 0.43426 0.52111 0.45192 0.0
H354 H 0.38358 0.56653 0.52459 0.0
H355 H 0.44519 0.54183 0.55282 0.0
H356 H 0.45963 0.45403 0.4873 0.0
H357 H 0.51263 0.44667 0.4665 0.0
H358 H 0.4629 0.46697 0.45233 0.0
H359 H 0.52309 0.50764 0.44046 0.0
H360 H 0.57288 0.48774 0.45506 0.0
H361 H 0.55983 0.52304 0.46747 0.0
H362 H 0.51405 0.51421 0.57266 0.0
H363 H 0.5811 0.48147 0.58414 0.0
H364 H 0.58769 0.45393 0.49863 0.0
C365 C 0.43561 0.52557 0.47384 0.0
C366 C 0.40411 0.54577 0.48605 0.0
C367 C 0.40714 0.55104 0.5148 0.0
C368 C 0.44221 0.53727 0.53098 0.0
C369 C 0.47364 0.51816 0.51812 0.0
C370 C 0.47023 0.51193 0.49032 0.0
C371 C 0.5085 0.49047 0.48167 0.0
C372 C 0.48448 0.4629 0.47135 0.0
C373 C 0.54312 0.50298 0.45988 0.0
C374 C 0.53439 0.48592 0.5089 0.0
C375 C 0.51364 0.50215 0.52961 0.0
C376 C 0.53053 0.50132 0.55666 0.0
C377 C 0.56872 0.48274 0.56293 0.0
C378 C 0.58963 0.46528 0.54224 0.0
C379 C 0.57288 0.46735 0.51476 0.0
H380 H 0.34929 0.95453 0.09449 0.0
H381 H 0.22945 0.92229 0.14343 0.0
H382 H 0.21169 0.97133 0.15954 0.0
H383 H 0.38387 0.01668 0.14105 0.0
H384 H 0.3966 0.03828 0.11121 0.0
H385 H 0.40764 1.00054 0.11006 0.0
H386 H 0.35288 0.99628 0.06672 0.0
H387 H 0.34189 0.03373 0.0676 0.0
H388 H 0.29113 0.00942 0.06808 0.0
H389 H 0.19573 0.0244 0.16095 0.0
H390 H 0.18151 0.074 0.14613 0.0
H391 H 0.3121 0.07102 0.09642 0.0
C392 C 0.32039 0.95764 0.10943 0.0
C393 C 0.29073 0.93471 0.11779 0.0
C394 C 0.25297 0.93956 0.13708 0.0
C395 C 0.24274 0.96736 0.1463 0.0
C396 C 0.27131 0.98983 0.13645 0.0
C397 C 0.30992 0.98502 0.11868 0.0
C398 C 0.33062 0.01246 0.10748 0.0
C399 C 0.38278 0.01727 0.1181 0.0
C400 C 0.32894 0.01298 0.07562 0.0
C401 C 0.29554 0.03359 0.12009 0.0
C402 C 0.26242 0.02036 0.13745 0.0
C403 C 0.22247 0.0351 0.14825 0.0
C404 C 0.21488 0.06341 0.14 0.0
C405 C 0.24681 0.07651 0.12098 0.0
C406 C 0.28864 0.06181 0.11201 0.0
H407 H 0.1536 0.46037 0.3904 0.0
H408 H 0.2849 0.42456 0.3553 0.0
H409 H 0.31111 0.47271 0.34085 0.0
H410 H 0.1412 0.52462 0.34137 0.0
H411 H 0.1209 0.54621 0.3699 0.0
H412 H 0.10539 0.50902 0.36863 0.0
H413 H 0.14328 0.50207 0.41709 0.0
H414 H 0.15912 0.53888 0.4185 0.0
H415 H 0.20582 0.51231 0.4229 0.0
H416 H 0.33271 0.52458 0.34234 0.0
H417 H 0.3474 0.57328 0.35977 0.0
H418 H 0.20248 0.57518 0.39459 0.0
C419 C 0.1867 0.46258 0.37842 0.0
C420 C 0.21708 0.43893 0.37367 0.0
C421 C 0.26069 0.44243 0.35856 0.0
C422 C 0.2758 0.46975 0.35038 0.0
C423 C 0.2464 0.49307 0.35713 0.0
C424 C 0.20214 0.48956 0.37042 0.0
C425 C 0.18119 0.51763 0.38 0.0
C426 C 0.1344 0.52479 0.364 0.0
C427 C 0.17191 0.5177 0.41146 0.0
C428 C 0.22229 0.53741 0.37208 0.0
C429 C 0.25893 0.52312 0.35806 0.0
C430 C 0.30353 0.53619 0.3523 0.0
C431 C 0.31155 0.56393 0.36209 0.0
C432 C 0.27529 0.57812 0.37756 0.0
C433 C 0.2297 0.56511 0.38166 0.0
H434 H 0.82961 0.94862 0.89815 0.0
H435 H 0.69145 0.91148 0.87474 0.0
H436 H 0.66363 0.95844 0.85767 0.0
H437 H 0.78477 0.0049 0.92842 0.0
H438 H 0.83117 0.03003 0.91859 0.0
H439 H 0.84557 0.993 0.92018 0.0
H440 H 0.87452 0.99387 0.86932 0.0
H441 H 0.86061 0.03125 0.86755 0.0
H442 H 0.83439 0.00706 0.84279 0.0
H443 H 0.64405 0.01065 0.85506 0.0
H444 H 0.63485 0.06148 0.86712 0.0
H445 H 0.78557 0.06451 0.89286 0.0
C446 C 0.79435 0.95017 0.88822 0.0
C447 C 0.76278 0.92655 0.88744 0.0
C448 C 0.71651 0.92925 0.87491 0.0
C449 C 0.70048 0.9559 0.86528 0.0
C450 C 0.73156 0.97933 0.868 0.0
C451 C 0.77802 0.97649 0.87878 0.0
C452 C 0.80156 0.00507 0.88404 0.0
C453 C 0.81656 0.00842 0.9146 0.0
C454 C 0.84536 0.00957 0.86476 0.0
C455 C 0.75991 0.02462 0.87649 0.0
C456 C 0.72027 0.00953 0.86647 0.0
C457 C 0.6754 0.02274 0.86184 0.0
C458 C 0.67049 0.05166 0.86856 0.0
C459 C 0.71013 0.06693 0.87984 0.0
C460 C 0.75561 0.05348 0.88297 0.0
H461 H 0.80803 0.42695 0.60673 0.0
H462 H 0.66908 0.42925 0.64841 0.0
H463 H 0.68583 0.47834 0.66407 0.0
H464 H 0.87881 0.48042 0.65266 0.0
H465 H 0.90673 0.49484 0.62203 0.0
H466 H 0.89238 0.45752 0.6238 0.0
H467 H 0.84302 0.46227 0.57853 0.0
H468 H 0.85517 0.49946 0.57698 0.0
H469 H 0.7931 0.4872 0.57694 0.0
H470 H 0.70768 0.53068 0.66391 0.0
H471 H 0.73157 0.57877 0.64781 0.0
H472 H 0.85451 0.54217 0.60454 0.0
C473 C 0.78302 0.43714 0.62095 0.0
C474 C 0.73831 0.42412 0.62735 0.0
C475 C 0.7045 0.43853 0.64435 0.0
C476 C 0.71364 0.46656 0.6531 0.0
C477 C 0.75679 0.47975 0.64464 0.0
C478 C 0.79137 0.46517 0.62928 0.0
C479 C 0.82916 0.4851 0.61746 0.0
C480 C 0.87977 0.47911 0.62974 0.0
C481 C 0.83007 0.48339 0.58564 0.0
C482 C 0.80946 0.51331 0.62737 0.0
C483 C 0.76836 0.50999 0.64357 0.0
C484 C 0.74066 0.53346 0.65196 0.0
C485 C 0.75448 0.56074 0.64282 0.0
C486 C 0.79503 0.56409 0.6251 0.0
C487 C 0.82369 0.54019 0.61836 0.0
H488 H 0.33489 0.1789 0.03847 0.0
H489 H 0.25268 0.13562 0.97448 0.0
H490 H 0.31823 0.14544 0.9411 0.0
H491 H 0.39521 0.23324 0.9922 0.0
H492 H 0.45168 0.23085 0.01111 0.0
H493 H 0.3944 0.22561 0.02866 0.0
H494 H 0.42411 0.1765 0.04608 0.0
H495 H 0.48132 0.18177 0.0288 0.0
H496 H 0.44543 0.15062 0.02138 0.0
H497 H 0.39733 0.152 0.91707 0.0
H498 H 0.48504 0.15303 0.90537 0.0
H499 H 0.51619 0.19404 0.98341 0.0
C500 C 0.33002 0.17234 0.01722 0.0
C501 C 0.2885 0.15663 0.00908 0.0
C502 C 0.28411 0.1477 0.98123 0.0
C503 C 0.32102 0.15338 0.96202 0.0
C504 C 0.36213 0.16819 0.97084 0.0
C505 C 0.3668 0.17769 0.99776 0.0
C506 C 0.41721 0.18984 1.00282 0.0
C507 C 0.41444 0.22179 0.00906 0.0
C508 C 0.44354 0.17371 0.02613 0.0
C509 C 0.44083 0.18438 0.975 0.0
C510 C 0.40812 0.17239 0.95665 0.0
C511 C 0.42296 0.16213 0.93093 0.0
C512 C 0.47277 0.16297 0.92432 0.0
C513 C 0.50695 0.17393 0.94338 0.0
C514 C 0.49043 0.18599 0.96837 0.0
H515 H 0.01431 0.86758 0.93839 0.0
H516 H 0.95966 0.78782 0.96984 0.0
H517 H 0.03837 0.77955 0.9937 0.0
H518 H 0.14813 0.84636 0.93237 0.0
H519 H 0.16689 0.88118 0.94363 0.0
H520 H 0.11162 0.87697 0.92388 0.0
H521 H 0.06383 0.90301 0.96245 0.0
H522 H 0.11829 0.90658 0.98277 0.0
H523 H 0.06547 0.8893 0.99716 0.0
H524 H 0.1151 0.78542 0.0219 0.0
H525 H 0.18753 0.8019 0.04776 0.0
H526 H 0.19212 0.87805 0.99752 0.0
C527 C 0.02019 0.84762 0.94897 0.0
C528 C 0.98178 0.82794 0.95181 0.0
C529 C 0.98939 0.80264 0.96683 0.0
C530 C 0.03377 0.79799 0.98065 0.0
C531 C 0.07003 0.81875 0.97891 0.0
C532 C 0.06408 0.84279 0.96288 0.0
C533 C 0.10572 0.8635 0.96698 0.0
C534 C 0.13483 0.86721 0.94011 0.0
C535 C 0.0872 0.89227 0.97799 0.0
C536 C 0.13524 0.84791 0.98856 0.0
C537 C 0.11426 0.82209 0.99512 0.0
C538 C 0.13251 0.80524 0.01641 0.0
C539 C 0.17342 0.8149 0.03115 0.0
C540 C 0.19579 0.84114 0.0245 0.0
C541 C 0.17647 0.85764 1.00275 0.0
H542 H 0.4781 0.37298 0.5579 0.0
H543 H 0.5404 0.29466 0.52731 0.0
H544 H 0.46543 0.28582 0.4998 0.0
H545 H 0.34709 0.35004 0.5592 0.0
H546 H 0.32731 0.3846 0.54781 0.0
H547 H 0.38133 0.38122 0.56875 0.0
H548 H 0.43068 0.40823 0.53146 0.0
H549 H 0.37735 0.41113 0.51008 0.0
H550 H 0.43185 0.39481 0.4966 0.0
H551 H 0.38887 0.29042 0.46962 0.0
H552 H 0.31571 0.30556 0.44332 0.0
H553 H 0.30569 0.38108 0.49444 0.0
C554 C 0.47484 0.35332 0.54641 0.0
C555 C 0.51421 0.33415 0.54506 0.0
C556 C 0.50987 0.30915 0.52908 0.0
C557 C 0.46766 0.30416 0.51323 0.0
C558 C 0.43027 0.32434 0.51387 0.0
C559 C 0.43328 0.34818 0.53052 0.0
C560 C 0.39097 0.36813 0.5257 0.0
C561 C 0.35982 0.37116 0.55193 0.0
C562 C 0.40879 0.39727 0.51534 0.0
C563 C 0.36395 0.35218 0.50335 0.0
C564 C 0.38689 0.32695 0.4967 0.0
C565 C 0.37013 0.30985 0.4751 0.0
C566 C 0.32872 0.31868 0.46015 0.0
C567 C 0.30455 0.34436 0.46694 0.0
C568 C 0.32261 0.36108 0.48895 0.0
H569 H 0.02715 0.63506 0.57076 0.0
H570 H 0.96718 0.71453 0.5419 0.0
H571 H 0.0437 0.72424 0.51631 0.0
H572 H 0.16056 0.65751 0.57375 0.0
H573 H 0.17927 0.62308 0.56137 0.0
H574 H 0.1256 0.62642 0.58261 0.0
H575 H 0.07535 0.60068 0.54482 0.0
H576 H 0.12818 0.59798 0.52307 0.0
H577 H 0.07382 0.61507 0.51036 0.0
H578 H 0.11934 0.71992 0.48632 0.0
H579 H 0.19022 0.70437 0.45844 0.0
H580 H 0.19926 0.62725 0.50712 0.0
C581 C 0.03152 0.65528 0.56041 0.0
C582 C 0.99226 0.67449 0.55882 0.0
C583 C 0.99771 0.70009 0.54398 0.0
C584 C 0.04083 0.70557 0.52919 0.0
C585 C 0.07798 0.68527 0.52974 0.0
C586 C 0.07405 0.66088 0.5455 0.0
C587 C 0.11579 0.64065 0.53996 0.0
C588 C 0.14718 0.63669 0.56597 0.0
C589 C 0.09715 0.61192 0.52889 0.0
C590 C 0.14302 0.65692 0.51795 0.0
C591 C 0.12104 0.68269 0.51238 0.0
C592 C 0.1375 0.7001 0.49101 0.0
C593 C 0.17757 0.691 0.47514 0.0
C594 C 0.20065 0.66469 0.48068 0.0
C595 C 0.1831 0.6477 0.50256 0.0
H596 H 0.47196 0.79767 0.01746 0.0
H597 H 0.504 0.83485 0.09716 0.0
H598 H 0.59177 0.83488 0.08584 0.0
H599 H 0.59351 0.75813 0.00655 0.0
H600 H 0.59354 0.7677 0.97053 0.0
H601 H 0.53663 0.76138 0.98815 0.0
H602 H 0.50646 0.81096 0.97291 0.0
H603 H 0.56336 0.81792 0.95592 0.0
H604 H 0.54143 0.84198 0.98212 0.0
H605 H 0.67046 0.8425 0.0622 0.0
H606 H 0.73546 0.85465 0.02931 0.0
H607 H 0.653 0.81543 0.96298 0.0
C608 C 0.49789 0.80467 0.03289 0.0
C609 C 0.48155 0.81617 0.05819 0.0
C610 C 0.51601 0.8254 0.07792 0.0
C611 C 0.56591 0.82568 0.07152 0.0
C612 C 0.58057 0.81654 0.04537 0.0
C613 C 0.54763 0.80573 0.02646 0.0
C614 C 0.57107 0.80199 0.99827 0.0
C615 C 0.57386 0.77042 0.99042 0.0
C616 C 0.54398 0.81925 0.97602 0.0
C617 C 0.62138 0.81401 0.00382 0.0
C618 C 0.62638 0.82163 0.03128 0.0
C619 C 0.66744 0.83596 0.04084 0.0
C620 C 0.70403 0.84299 0.02189 0.0
C621 C 0.69942 0.83591 0.99354 0.0
C622 C 0.65797 0.82063 0.98458 0.0
H623 H 0.80211 0.12572 0.99956 0.0
H624 H 0.81759 0.19841 0.94531 0.0
H625 H 0.89178 0.21295 0.97101 0.0
H626 H 0.84555 0.15873 0.06302 0.0
H627 H 0.87733 0.12714 0.07386 0.0
H628 H 0.82324 0.12424 0.0529 0.0
H629 H 0.87107 0.09483 0.01645 0.0
H630 H 0.92481 0.09724 0.03755 0.0
H631 H 0.92665 0.10908 1.00222 0.0
H632 H 0.96871 0.217 1.00092 0.0
H633 H 0.04323 0.20743 0.02852 0.0
H634 H 0.97504 0.13256 0.06277 0.0
C635 C 0.82047 0.145 0.99324 0.0
C636 C 0.80363 0.16107 0.97052 0.0
C637 C 0.82964 0.18578 0.96269 0.0
C638 C 0.87163 0.19429 0.9773 0.0
C639 C 0.88711 0.17787 0.99966 0.0
C640 C 0.86233 0.15361 0.00738 0.0
C641 C 0.88828 0.13807 0.0304 0.0
C642 C 0.85671 0.137 0.05659 0.0
C643 C 0.90361 0.10805 0.02109 0.0
C644 C 0.93201 0.15716 0.03437 0.0
C645 C 0.93069 0.18022 0.01672 0.0
C646 C 0.96959 0.19933 0.01516 0.0
C647 C 0.01154 0.19397 0.03111 0.0
C648 C 0.01409 0.16968 0.04818 0.0
C649 C 0.97317 0.15176 0.05052 0.0
H650 H 0.6976 0.62214 0.50686 0.0
H651 H 0.69161 0.69905 0.55617 0.0
H652 H 0.61936 0.7149 0.52955 0.0
H653 H 0.65698 0.65244 0.44128 0.0
H654 H 0.62123 0.62157 0.43262 0.0
H655 H 0.6753 0.61789 0.45348 0.0
H656 H 0.62486 0.59316 0.49192 0.0
H657 H 0.57111 0.59631 0.47092 0.0
H658 H 0.57143 0.61064 0.50544 0.0
H659 H 0.54371 0.72044 0.49942 0.0
H660 H 0.46757 0.71232 0.4728 0.0
H661 H 0.52408 0.63176 0.44417 0.0
C662 C 0.68169 0.64256 0.51183 0.0
C663 C 0.70058 0.65949 0.53344 0.0
C664 C 0.67784 0.68575 0.53966 0.0
C665 C 0.63704 0.69501 0.5245 0.0
C666 C 0.61943 0.67775 0.50326 0.0
C667 C 0.64089 0.65193 0.49718 0.0
C668 C 0.61259 0.63593 0.47533 0.0
C669 C 0.64337 0.63172 0.44912 0.0
C670 C 0.59389 0.60734 0.48659 0.0
C671 C 0.57123 0.65651 0.47033 0.0
C672 C 0.57606 0.68077 0.48623 0.0
C673 C 0.54003 0.70176 0.48655 0.0
C674 C 0.49718 0.69718 0.47119 0.0
C675 C 0.49086 0.67176 0.45608 0.0
C676 C 0.52896 0.65174 0.45493 0.0
H677 H 0.98104 0.37932 0.43453 0.0
H678 H 0.02707 0.2933 0.4517 0.0
H679 H 0.94858 0.28425 0.47564 0.0
H680 H 0.93386 0.39277 0.49719 0.0
H681 H 0.88305 0.41426 0.4862 0.0
H682 H 0.93681 0.41205 0.46512 0.0
H683 H 0.88555 0.39488 0.42343 0.0
H684 H 0.83112 0.39769 0.44412 0.0
H685 H 0.8458 0.36465 0.42722 0.0
H686 H 0.87254 0.28809 0.50533 0.0
H687 H 0.80229 0.30269 0.5341 0.0
H688 H 0.80638 0.38641 0.49693 0.0
C689 C 0.97335 0.35815 0.44211 0.0
C690 C 0.00926 0.33675 0.44083 0.0
C691 C 0.99924 0.30963 0.45187 0.0
C692 C 0.95499 0.30446 0.4657 0.0
C693 C 0.92125 0.32661 0.46797 0.0
C694 C 0.9296 0.35277 0.45593 0.0
C695 C 0.89045 0.37402 0.46369 0.0
C696 C 0.91236 0.39977 0.47896 0.0
C697 C 0.8615 0.38335 0.43809 0.0
C698 C 0.8595 0.35609 0.48276 0.0
C699 C 0.8776 0.32877 0.48491 0.0
C700 C 0.85742 0.30921 0.50326 0.0
C701 C 0.8177 0.31775 0.51966 0.0
C702 C 0.79843 0.3456 0.51758 0.0
C703 C 0.81953 0.3648 0.49863 0.0
H704 H 0.22948 0.25042 0.30464 0.0
H705 H 0.1435 0.32669 0.29236 0.0
H706 H 0.13712 0.31584 0.2427 0.0
H707 H 0.29601 0.25267 0.2414 0.0
H708 H 0.29397 0.2149 0.23543 0.0
H709 H 0.29189 0.22854 0.27017 0.0
H710 H 0.21122 0.20137 0.27882 0.0
H711 H 0.21305 0.18762 0.24409 0.0
H712 H 0.16021 0.20686 0.25595 0.0
H713 H 0.1441 0.29843 0.19404 0.0
H714 H 0.15832 0.27335 0.1499 0.0
H715 H 0.23503 0.20658 0.1936 0.0
C716 C 0.20928 0.26478 0.29146 0.0
C717 C 0.18872 0.29004 0.30217 0.0
C718 C 0.16162 0.30797 0.28441 0.0
C719 C 0.15726 0.3018 0.2562 0.0
C720 C 0.17921 0.27723 0.24612 0.0
C721 C 0.20411 0.25875 0.26321 0.0
C722 C 0.22374 0.2336 0.24704 0.0
C723 C 0.27972 0.23237 0.2486 0.0
C724 C 0.20066 0.20571 0.25708 0.0
C725 C 0.20653 0.24107 0.21817 0.0
C726 C 0.18108 0.26639 0.21814 0.0
C727 C 0.16342 0.27839 0.19383 0.0
C728 C 0.17181 0.26408 0.16888 0.0
C729 C 0.19702 0.23787 0.16844 0.0
C730 C 0.21459 0.22625 0.19344 0.0
H731 H 0.31007 0.74689 0.19033 0.0
H732 H 0.24266 0.82921 0.20282 0.0
H733 H 0.23842 0.82018 0.25295 0.0
H734 H 0.24117 0.70905 0.24241 0.0
H735 H 0.29208 0.6877 0.2535 0.0
H736 H 0.28912 0.70026 0.21841 0.0
H737 H 0.374 0.72375 0.22389 0.0
H738 H 0.37731 0.71116 0.25893 0.0
H739 H 0.38417 0.74848 0.25174 0.0
H740 H 0.24179 0.80259 0.3015 0.0
H741 H 0.25359 0.77771 0.3458 0.0
H742 H 0.32178 0.7074 0.3025 0.0
C743 C 0.29433 0.76291 0.2037 0.0
C744 C 0.27734 0.78892 0.19285 0.0
C745 C 0.25691 0.80943 0.21084 0.0
C746 C 0.254 0.8044 0.23929 0.0
C747 C 0.27167 0.77873 0.24944 0.0
C748 C 0.2916 0.75833 0.23227 0.0
C749 C 0.30901 0.73286 0.24869 0.0
C750 C 0.28117 0.70587 0.24024 0.0
C751 C 0.36442 0.72884 0.24563 0.0
C752 C 0.29559 0.74214 0.27772 0.0
C753 C 0.27388 0.76861 0.2776 0.0
C754 C 0.25859 0.78179 0.30185 0.0
C755 C 0.26554 0.76752 0.32691 0.0
C756 C 0.2875 0.74031 0.32761 0.0
C757 C 0.30319 0.72767 0.30262 0.0
H758 H 0.76662 0.752 0.69622 0.0
H759 H 0.86203 0.67947 0.70763 0.0
H760 H 0.86872 0.69067 0.7572 0.0
H761 H 0.83248 0.79837 0.74433 0.0
H762 H 0.77785 0.8155 0.75665 0.0
H763 H 0.78039 0.80188 0.72188 0.0
H764 H 0.70324 0.77163 0.73112 0.0
H765 H 0.70046 0.78514 0.76588 0.0
H766 H 0.70261 0.74737 0.75989 0.0
H767 H 0.86057 0.70752 0.80587 0.0
H768 H 0.84345 0.73142 0.85027 0.0
H769 H 0.75868 0.79541 0.80745 0.0
C770 C 0.78897 0.73854 0.70919 0.0
C771 C 0.81207 0.71411 0.6983 0.0
C772 C 0.84192 0.69741 0.71576 0.0
C773 C 0.84652 0.70383 0.74389 0.0
C774 C 0.82207 0.72751 0.75417 0.0
C775 C 0.79447 0.7449 0.73734 0.0
C776 C 0.77238 0.76922 0.75371 0.0
C777 C 0.79195 0.79794 0.74353 0.0
C778 C 0.71635 0.76827 0.75258 0.0
C779 C 0.79114 0.76243 0.78242 0.0
C780 C 0.81963 0.73821 0.78216 0.0
C781 C 0.83894 0.72674 0.8063 0.0
C782 C 0.8289 0.74037 0.83139 0.0
C783 C 0.80041 0.7654 0.83215 0.0
C784 C 0.78151 0.77665 0.80731 0.0
H785 H 0.73016 0.29499 0.69536 0.0
H786 H 0.64937 0.22849 0.65357 0.0
H787 H 0.63654 0.20416 0.69822 0.0
H788 H 0.79198 0.24915 0.7425 0.0
H789 H 0.79011 0.2738 0.77099 0.0
H790 H 0.79056 0.28684 0.73606 0.0
H791 H 0.71109 0.31499 0.74551 0.0
H792 H 0.71045 0.30207 0.78051 0.0
H793 H 0.65825 0.29659 0.75852 0.0
H794 H 0.63111 0.18768 0.74727 0.0
H795 H 0.63915 0.17775 0.797 0.0
H796 H 0.72827 0.25317 0.80691 0.0
C797 C 0.70911 0.27556 0.69573 0.0
C798 C 0.68994 0.2638 0.67116 0.0
C799 C 0.66403 0.23786 0.67225 0.0
C800 C 0.65643 0.22399 0.69749 0.0
C801 C 0.6756 0.23616 0.72138 0.0
C802 C 0.70179 0.26122 0.72074 0.0
C803 C 0.72056 0.26897 0.74924 0.0
C804 C 0.77663 0.26972 0.74971 0.0
C805 C 0.69877 0.29734 0.75902 0.0
C806 C 0.70095 0.2443 0.76598 0.0
C807 C 0.6747 0.22581 0.74952 0.0
C808 C 0.65234 0.20171 0.76027 0.0
C809 C 0.65766 0.19605 0.78851 0.0
C810 C 0.68611 0.214 0.80561 0.0
C811 C 0.70708 0.23878 0.79423 0.0
loop_
_geom_bond_atom_site_label_1
_geom_bond_atom_site_label_2
_geom_bond_distance
_geom_bond_site_symmetry_2
_ccdc_geom_bond_type
Co0 O3 1.970 . S
Co0 N17 1.989 . S
Co0 O25 1.967 . S
Co0 O32 1.920 . S
Co1 O4 1.966 . S
Co1 N10 2.022 . S
Co1 N18 1.993 . S
Co1 O26 1.941 . S
C2 O3 1.258 . S
C2 O4 1.263 . S
O3 Co0 1.970 . S
O3 C2 1.258 . S
O4 Co1 1.966 . S
O4 C2 1.263 . S
C5 O6 1.235 . S
C5 O32 1.289 . S
O6 C5 1.235 . S
C7 C9 1.400 . S
C7 N10 1.351 . S
C7 C12 1.501 . S
C8 C9 1.387 . S
C8 N11 1.341 . S
C9 C7 1.400 . S
C9 C8 1.387 . S
N10 Co1 2.022 . S
N10 C7 1.351 . S
N10 N11 1.365 . S
N11 C8 1.341 . S
N11 N10 1.365 . S
N11 H31 0.862 . S
C12 C7 1.501 . S
C12 H13 0.961 . S
C12 H14 0.961 . S
C12 H15 0.960 . S
H13 C12 0.961 . S
H14 C12 0.961 . S
H15 C12 0.960 . S
C16 N17 1.342 . S
C16 C20 1.401 1_455 S
C16 C21 1.499 1_455 S
N17 Co0 1.989 . S
N17 C16 1.342 . S
N17 N18 1.388 . S
N18 Co1 1.993 . S
N18 N17 1.388 . S
N18 C19 1.346 . S
C19 N18 1.346 . S
C19 C20 1.396 1_455 S
C19 C29 1.510 . S
C20 C16 1.401 1_655 S
C20 C19 1.396 1_655 S
C21 C16 1.499 1_655 S
C21 H22 0.959 1_655 S
C21 H23 0.960 . S
C21 H24 0.961 . S
H22 C21 0.959 1_455 S
H23 C21 0.960 . S
H24 C21 0.961 . S
O25 Co0 1.967 . S
O25 C33 1.258 . S
O26 Co1 1.941 . S
O26 C33 1.266 . S
H27 C29 0.959 . S
H28 C29 0.961 1_655 S
C29 C19 1.510 . S
C29 H27 0.959 . S
C29 H28 0.961 1_455 S
C29 H30 0.960 . S
H30 C29 0.960 . S
H31 N11 0.862 . S
O32 Co0 1.920 . S
O32 C5 1.289 . S
C33 O25 1.258 . S
C33 O26 1.266 . S
Co34 O37 1.970 . S
Co34 N51 1.989 . S
Co34 O59 1.967 . S
Co34 O66 1.920 . S
Co35 O38 1.966 . S
Co35 N44 2.022 . S
Co35 N52 1.993 . S
Co35 O60 1.941 . S
C36 O37 1.258 . S
C36 O38 1.263 . S
O37 Co34 1.970 . S
O37 C36 1.258 . S
O38 Co35 1.966 . S
O38 C36 1.263 . S
C39 O40 1.235 . S
C39 O66 1.289 . S
O40 C39 1.235 . S
C41 C43 1.400 . S
C41 N44 1.351 . S
C41 C46 1.501 . S
C42 C43 1.387 . S
C42 N45 1.341 . S
C43 C41 1.400 . S
C43 C42 1.387 . S
N44 Co35 2.022 . S
N44 C41 1.351 . S
N44 N45 1.365 . S
N45 C42 1.341 . S
N45 N44 1.365 . S
N45 H65 0.862 . S
C46 C41 1.501 . S
C46 H47 0.961 . S
C46 H48 0.961 . S
C46 H49 0.960 . S
H47 C46 0.961 . S
H48 C46 0.961 . S
H49 C46 0.960 . S
C50 N51 1.342 . S
C50 C54 1.401 . S
C50 C55 1.499 . S
N51 Co34 1.989 . S
N51 C50 1.342 . S
N51 N52 1.388 . S
N52 Co35 1.993 . S
N52 N51 1.388 . S
N52 C53 1.346 . S
C53 N52 1.346 . S
C53 C54 1.396 . S
C53 C63 1.510 . S
C54 C50 1.401 . S
C54 C53 1.396 . S
C55 C50 1.499 . S
C55 H56 0.959 . S
C55 H57 0.960 . S
C55 H58 0.961 . S
H56 C55 0.959 . S
H57 C55 0.960 . S
H58 C55 0.961 . S
O59 Co34 1.967 . S
O59 C67 1.258 . S
O60 Co35 1.941 . S
O60 C67 1.266 . S
H61 C63 0.959 . S
H62 C63 0.961 . S
C63 C53 1.510 . S
C63 H61 0.959 . S
C63 H62 0.961 . S
C63 H64 0.960 . S
H64 C63 0.960 . S
H65 N45 0.862 . S
O66 Co34 1.920 . S
O66 C39 1.289 . S
C67 O59 1.258 . S
C67 O60 1.266 . S
Co68 O71 1.970 . S
Co68 N85 1.989 . S
Co68 O93 1.967 . S
Co68 O100 1.920 . S
Co69 O72 1.966 . S
Co69 N78 2.022 . S
Co69 N86 1.993 . S
Co69 O94 1.941 . S
C70 O71 1.258 . S
C70 O72 1.263 . S
O71 Co68 1.970 . S
O71 C70 1.258 . S
O72 Co69 1.966 . S
O72 C70 1.263 . S
C73 O74 1.235 . S
C73 O100 1.289 . S
O74 C73 1.235 . S
C75 C77 1.400 . S
C75 N78 1.351 . S
C75 C80 1.501 . S
C76 C77 1.387 . S
C76 N79 1.341 . S
C77 C75 1.400 . S
C77 C76 1.387 . S
N78 Co69 2.022 . S
N78 C75 1.351 . S
N78 N79 1.365 . S
N79 C76 1.341 . S
N79 N78 1.365 . S
N79 H99 0.862 . S
C80 C75 1.501 . S
C80 H81 0.961 . S
C80 H82 0.961 . S
C80 H83 0.960 . S
H81 C80 0.961 . S
H82 C80 0.961 . S
H83 C80 0.960 . S
C84 N85 1.342 . S
C84 C88 1.401 1_455 S
C84 C89 1.499 1_455 S
N85 Co68 1.989 . S
N85 C84 1.342 . S
N85 N86 1.388 . S
N86 Co69 1.993 . S
N86 N85 1.388 . S
N86 C87 1.346 . S
C87 N86 1.346 . S
C87 C88 1.396 1_455 S
C87 C97 1.510 . S
C88 C84 1.401 1_655 S
C88 C87 1.396 1_655 S
C89 C84 1.499 1_655 S
C89 H90 0.959 1_655 S
C89 H91 0.960 . S
C89 H92 0.961 . S
H90 C89 0.959 1_455 S
H91 C89 0.960 . S
H92 C89 0.961 . S
O93 Co68 1.967 . S
O93 C101 1.258 . S
O94 Co69 1.941 . S
O94 C101 1.266 . S
H95 C97 0.959 . S
H96 C97 0.961 1_655 S
C97 C87 1.510 . S
C97 H95 0.959 . S
C97 H96 0.961 1_455 S
C97 H98 0.960 . S
H98 C97 0.960 . S
H99 N79 0.862 . S
O100 Co68 1.920 . S
O100 C73 1.289 . S
C101 O93 1.258 . S
C101 O94 1.266 . S
Co102 O105 1.970 . S
Co102 N119 1.989 . S
Co102 O127 1.967 . S
Co102 O134 1.920 . S
Co103 O106 1.966 . S
Co103 N112 2.022 . S
Co103 N120 1.993 . S
Co103 O128 1.941 . S
C104 O105 1.258 . S
C104 O106 1.263 . S
O105 Co102 1.970 . S
O105 C104 1.258 . S
O106 Co103 1.966 . S
O106 C104 1.263 . S
C107 O108 1.235 . S
C107 O134 1.289 . S
O108 C107 1.235 . S
C109 C111 1.400 . S
C109 N112 1.351 . S
C109 C114 1.501 . S
C110 C111 1.387 . S
C110 N113 1.341 . S
C111 C109 1.400 . S
C111 C110 1.387 . S
N112 Co103 2.022 . S
N112 C109 1.351 . S
N112 N113 1.365 . S
N113 C110 1.341 . S
N113 N112 1.365 . S
N113 H133 0.862 . S
C114 C109 1.501 . S
C114 H115 0.961 . S
C114 H116 0.961 . S
C114 H117 0.960 . S
H115 C114 0.961 . S
H116 C114 0.961 . S
H117 C114 0.960 . S
C118 N119 1.342 . S
C118 C122 1.401 . S
C118 C123 1.499 . S
N119 Co102 1.989 . S
N119 C118 1.342 . S
N119 N120 1.388 . S
N120 Co103 1.993 . S
N120 N119 1.388 . S
N120 C121 1.346 . S
C121 N120 1.346 . S
C121 C122 1.396 . S
C121 C131 1.510 . S
C122 C118 1.401 . S
C122 C121 1.396 . S
C123 C118 1.499 . S
C123 H124 0.959 . S
C123 H125 0.960 . S
C123 H126 0.961 . S
H124 C123 0.959 . S
H125 C123 0.960 . S
H126 C123 0.961 . S
O127 Co102 1.967 . S
O127 C135 1.258 . S
O128 Co103 1.941 . S
O128 C135 1.266 . S
H129 C131 0.959 . S
H130 C131 0.961 . S
C131 C121 1.510 . S
C131 H129 0.959 . S
C131 H130 0.961 . S
C131 H132 0.960 . S
H132 C131 0.960 . S
H133 N113 0.862 . S
O134 Co102 1.920 . S
O134 C107 1.289 . S
C135 O127 1.258 . S
C135 O128 1.266 . S
Co136 O139 1.970 . S
Co136 N153 1.989 . S
Co136 O161 1.967 . S
Co136 O168 1.920 . S
Co137 O140 1.966 . S
Co137 N146 2.022 . S
Co137 N154 1.993 . S
Co137 O162 1.941 . S
C138 O139 1.258 . S
C138 O140 1.263 . S
O139 Co136 1.970 . S
O139 C138 1.258 . S
O140 Co137 1.966 . S
O140 C138 1.263 . S
C141 O142 1.235 . S
C141 O168 1.289 . S
O142 C141 1.235 . S
C143 C145 1.400 . S
C143 N146 1.351 . S
C143 C148 1.501 . S
C144 C145 1.387 . S
C144 N147 1.341 . S
C145 C143 1.400 . S
C145 C144 1.387 . S
N146 Co137 2.022 . S
N146 C143 1.351 . S
N146 N147 1.365 . S
N147 C144 1.341 . S
N147 N146 1.365 . S
N147 H167 0.862 . S
C148 C143 1.501 . S
C148 H149 0.961 . S
C148 H150 0.961 . S
C148 H151 0.960 . S
H149 C148 0.961 . S
H150 C148 0.961 . S
H151 C148 0.960 . S
C152 N153 1.342 . S
C152 C156 1.401 1_655 S
C152 C157 1.499 1_655 S
N153 Co136 1.989 . S
N153 C152 1.342 . S
N153 N154 1.388 . S
N154 Co137 1.993 . S
N154 N153 1.388 . S
N154 C155 1.346 . S
C155 N154 1.346 . S
C155 C156 1.396 1_655 S
C155 C165 1.510 . S
C156 C152 1.401 1_455 S
C156 C155 1.396 1_455 S
C157 C152 1.499 1_455 S
C157 H158 0.959 1_455 S
C157 H159 0.960 . S
C157 H160 0.961 . S
H158 C157 0.959 1_655 S
H159 C157 0.960 . S
H160 C157 0.961 . S
O161 Co136 1.967 . S
O161 C169 1.258 . S
O162 Co137 1.941 . S
O162 C169 1.266 . S
H163 C165 0.959 . S
H164 C165 0.961 1_455 S
C165 C155 1.510 . S
C165 H163 0.959 . S
C165 H164 0.961 1_655 S
C165 H166 0.960 . S
H166 C165 0.960 . S
H167 N147 0.862 . S
O168 Co136 1.920 . S
O168 C141 1.289 . S
C169 O161 1.258 . S
C169 O162 1.266 . S
Co170 O173 1.970 . S
Co170 N187 1.989 . S
Co170 O195 1.967 . S
Co170 O202 1.920 . S
Co171 O174 1.966 . S
Co171 N180 2.022 . S
Co171 N188 1.993 . S
Co171 O196 1.941 . S
C172 O173 1.258 . S
C172 O174 1.263 . S
O173 Co170 1.970 . S
O173 C172 1.258 . S
O174 Co171 1.966 . S
O174 C172 1.263 . S
C175 O176 1.235 . S
C175 O202 1.289 . S
O176 C175 1.235 . S
C177 C179 1.400 . S
C177 N180 1.351 . S
C177 C182 1.501 . S
C178 C179 1.387 . S
C178 N181 1.341 . S
C179 C177 1.400 . S
C179 C178 1.387 . S
N180 Co171 2.022 . S
N180 C177 1.351 . S
N180 N181 1.365 . S
N181 C178 1.341 . S
N181 N180 1.365 . S
N181 H201 0.862 . S
C182 C177 1.501 . S
C182 H183 0.961 . S
C182 H184 0.961 . S
C182 H185 0.960 . S
H183 C182 0.961 . S
H184 C182 0.961 . S
H185 C182 0.960 . S
C186 N187 1.342 . S
C186 C190 1.401 . S
C186 C191 1.499 . S
N187 Co170 1.989 . S
N187 C186 1.342 . S
N187 N188 1.388 . S
N188 Co171 1.993 . S
N188 N187 1.388 . S
N188 C189 1.346 . S
C189 N188 1.346 . S
C189 C190 1.396 . S
C189 C199 1.510 . S
C190 C186 1.401 . S
C190 C189 1.396 . S
C191 C186 1.499 . S
C191 H192 0.959 . S
C191 H193 0.960 . S
C191 H194 0.961 . S
H192 C191 0.959 . S
H193 C191 0.960 . S
H194 C191 0.961 . S
O195 Co170 1.967 . S
O195 C203 1.258 . S
O196 Co171 1.941 . S
O196 C203 1.266 . S
H197 C199 0.959 . S
H198 C199 0.961 . S
C199 C189 1.510 . S
C199 H197 0.959 . S
C199 H198 0.961 . S
C199 H200 0.960 . S
H200 C199 0.960 . S
H201 N181 0.862 . S
O202 Co170 1.920 . S
O202 C175 1.289 . S
C203 O195 1.258 . S
C203 O196 1.266 . S
Co204 O207 1.970 . S
Co204 N221 1.989 . S
Co204 O229 1.967 . S
Co204 O236 1.920 . S
Co205 O208 1.966 . S
Co205 N214 2.022 . S
Co205 N222 1.993 . S
Co205 O230 1.941 . S
C206 O207 1.258 . S
C206 O208 1.263 . S
O207 Co204 1.970 . S
O207 C206 1.258 . S
O208 Co205 1.966 . S
O208 C206 1.263 . S
C209 O210 1.235 . S
C209 O236 1.289 . S
O210 C209 1.235 . S
C211 C213 1.400 . S
C211 N214 1.351 . S
C211 C216 1.501 . S
C212 C213 1.387 . S
C212 N215 1.341 . S
C213 C211 1.400 . S
C213 C212 1.387 . S
N214 Co205 2.022 . S
N214 C211 1.351 . S
N214 N215 1.365 . S
N215 C212 1.341 . S
N215 N214 1.365 . S
N215 H235 0.862 . S
C216 C211 1.501 . S
C216 H217 0.961 . S
C216 H218 0.961 . S
C216 H219 0.960 . S
H217 C216 0.961 . S
H218 C216 0.961 . S
H219 C216 0.960 . S
C220 N221 1.342 . S
C220 C224 1.401 1_655 S
C220 C225 1.499 1_655 S
N221 Co204 1.989 . S
N221 C220 1.342 . S
N221 N222 1.388 . S
N222 Co205 1.993 . S
N222 N221 1.388 . S
N222 C223 1.346 . S
C223 N222 1.346 . S
C223 C224 1.396 1_655 S
C223 C233 1.510 . S
C224 C220 1.401 1_455 S
C224 C223 1.396 1_455 S
C225 C220 1.499 1_455 S
C225 H226 0.959 1_455 S
C225 H227 0.960 . S
C225 H228 0.961 . S
H226 C225 0.959 1_655 S
H227 C225 0.960 . S
H228 C225 0.961 . S
O229 Co204 1.967 . S
O229 C237 1.258 . S
O230 Co205 1.941 . S
O230 C237 1.266 . S
H231 C233 0.959 . S
H232 C233 0.961 1_455 S
C233 C223 1.510 . S
C233 H231 0.959 . S
C233 H232 0.961 1_655 S
C233 H234 0.960 . S
H234 C233 0.960 . S
H235 N215 0.862 . S
O236 Co204 1.920 . S
O236 C209 1.289 . S
C237 O229 1.258 . S
C237 O230 1.266 . S
Co238 O241 1.970 . S
Co238 N255 1.989 . S
Co238 O263 1.967 . S
Co238 O270 1.920 . S
Co239 O242 1.966 . S
Co239 N248 2.022 . S
Co239 N256 1.993 . S
Co239 O264 1.941 . S
C240 O241 1.258 . S
C240 O242 1.263 . S
O241 Co238 1.970 . S
O241 C240 1.258 . S
O242 Co239 1.966 . S
O242 C240 1.263 . S
C243 O244 1.235 . S
C243 O270 1.289 . S
O244 C243 1.235 . S
C245 C247 1.400 . S
C245 N248 1.351 . S
C245 C250 1.501 . S
C246 C247 1.387 . S
C246 N249 1.341 . S
C247 C245 1.400 . S
C247 C246 1.387 . S
N248 Co239 2.022 . S
N248 C245 1.351 . S
N248 N249 1.365 . S
N249 C246 1.341 . S
N249 N248 1.365 . S
N249 H269 0.862 . S
C250 C245 1.501 . S
C250 H251 0.961 . S
C250 H252 0.961 . S
C250 H253 0.960 . S
H251 C250 0.961 . S
H252 C250 0.961 . S
H253 C250 0.960 . S
C254 N255 1.342 . S
C254 C258 1.401 . S
C254 C259 1.499 . S
N255 Co238 1.989 . S
N255 C254 1.342 . S
N255 N256 1.388 . S
N256 Co239 1.993 . S
N256 N255 1.388 . S
N256 C257 1.346 . S
C257 N256 1.346 . S
C257 C258 1.396 . S
C257 C267 1.510 . S
C258 C254 1.401 . S
C258 C257 1.396 . S
C259 C254 1.499 . S
C259 H260 0.959 . S
C259 H261 0.960 . S
C259 H262 0.961 . S
H260 C259 0.959 . S
H261 C259 0.960 . S
H262 C259 0.961 . S
O263 Co238 1.967 . S
O263 C271 1.258 . S
O264 Co239 1.941 . S
O264 C271 1.266 . S
H265 C267 0.959 . S
H266 C267 0.961 . S
C267 C257 1.510 . S
C267 H265 0.959 . S
C267 H266 0.961 . S
C267 H268 0.960 . S
H268 C267 0.960 . S
H269 N249 0.862 . S
O270 Co238 1.920 . S
O270 C243 1.289 . S
C271 O263 1.258 . S
C271 O264 1.266 . S
H272 C284 0.930 . S
H273 C286 0.930 . S
H274 C287 0.930 1_655 S
H275 C291 0.967 1_655 S
H276 C291 0.945 1_565 S
H277 C291 0.972 . S
H278 C292 0.960 . S
H279 C292 0.961 . S
H280 C292 0.959 . S
H281 C295 0.929 . S
H282 C296 0.931 . S
H283 C298 0.930 . S
C284 H272 0.930 . S
C284 C285 1.399 1_556 S
C284 C289 1.399 . S
C285 C284 1.399 1_554 S
C285 C286 1.376 . S
C286 H273 0.930 . S
C286 C285 1.376 . S
C286 C287 1.388 . S
C287 H274 0.930 1_455 S
C287 C286 1.388 . S
C287 C288 1.390 . S
C288 C287 1.390 . S
C288 C289 1.394 1_554 S
C288 C294 1.465 1_445 S
C289 C284 1.399 . S
C289 C288 1.394 1_556 S
C289 C290 1.516 1_545 S
C290 C289 1.516 1_565 S
C290 C291 1.498 1_565 S
C290 C292 1.561 . S
C290 C293 1.526 1_455 S
C291 H275 0.967 1_455 S
C291 H276 0.945 1_545 S
C291 H277 0.972 . S
C291 C290 1.498 1_545 S
C292 H278 0.960 . S
C292 H279 0.961 . S
C292 H280 0.959 . S
C292 C290 1.561 . S
C293 C290 1.526 1_655 S
C293 C294 1.396 1_556 S
C293 C298 1.390 . S
C294 C288 1.465 1_665 S
C294 C293 1.396 1_554 S
C294 C295 1.399 . S
C295 H281 0.929 . S
C295 C294 1.399 . S
C295 C296 1.385 . S
C296 H282 0.931 . S
C296 C295 1.385 . S
C296 C297 1.389 1_554 S
C297 C296 1.389 1_556 S
C297 C298 1.387 . S
C298 H283 0.930 . S
C298 C293 1.390 . S
C298 C297 1.387 . S
H299 C311 0.930 . S
H300 C313 0.930 . S
H301 C314 0.930 . S
H302 C318 0.959 1_554 S
H303 C318 0.959 . S
H304 C318 0.961 . S
H305 C319 0.960 . S
H306 C319 0.961 1_565 S
H307 C319 0.959 1_565 S
H308 C322 0.929 . S
H309 C323 0.931 . S
H310 C325 0.930 . S
C311 H299 0.930 . S
C311 C312 1.399 . S
C311 C316 1.399 . S
C312 C311 1.399 . S
C312 C313 1.376 1_556 S
C313 H300 0.930 . S
C313 C312 1.376 1_554 S
C313 C314 1.388 . S
C314 H301 0.930 . S
C314 C313 1.388 . S
C314 C315 1.390 . S
C315 C314 1.390 . S
C315 C316 1.394 1_554 S
C315 C321 1.465 1_545 S
C316 C311 1.399 . S
C316 C315 1.394 1_556 S
C316 C317 1.516 . S
C317 C316 1.516 . S
C317 C318 1.502 . S
C317 C319 1.561 . S
C317 C320 1.526 1_545 S
C318 H302 0.959 1_556 S
C318 H303 0.959 . S
C318 H304 0.961 . S
C318 C317 1.502 . S
C319 H305 0.960 . S
C319 H306 0.961 1_545 S
C319 H307 0.959 1_545 S
C319 C317 1.561 . S
C320 C317 1.526 1_565 S
C320 C321 1.396 1_556 S
C320 C325 1.390 . S
C321 C315 1.465 1_565 S
C321 C320 1.396 1_554 S
C321 C322 1.399 . S
C322 H308 0.929 . S
C322 C321 1.399 . S
C322 C323 1.385 . S
C323 H309 0.931 . S
C323 C322 1.385 . S
C323 C324 1.389 . S
C324 C323 1.389 . S
C324 C325 1.387 1_554 S
C325 H310 0.930 . S
C325 C320 1.390 . S
C325 C324 1.387 1_556 S
H326 C338 0.930 . S
H327 C340 0.930 . S
H328 C341 0.930 1_455 S
H329 C345 0.959 . S
H330 C345 0.959 . S
H331 C345 0.961 . S
H332 C346 0.960 . S
H333 C346 0.961 . S
H334 C346 0.959 . S
H335 C349 0.929 . S
H336 C350 0.931 . S
H337 C352 0.930 . S
C338 H326 0.930 . S
C338 C339 1.399 . S
C338 C343 1.399 . S
C339 C338 1.399 . S
C339 C340 1.376 . S
C340 H327 0.930 . S
C340 C339 1.376 . S
C340 C341 1.388 . S
C341 H328 0.930 1_655 S
C341 C340 1.388 . S
C341 C342 1.390 . S
C342 C341 1.390 . S
C342 C343 1.394 . S
C342 C348 1.465 1_655 S
C343 C338 1.399 . S
C343 C342 1.394 . S
C343 C344 1.516 . S
C344 C343 1.516 . S
C344 C345 1.502 . S
C344 C346 1.561 1_655 S
C344 C347 1.526 1_655 S
C345 H329 0.959 . S
C345 H330 0.959 . S
C345 H331 0.961 . S
C345 C344 1.502 . S
C346 H332 0.960 . S
C346 H333 0.961 . S
C346 H334 0.959 . S
C346 C344 1.561 1_455 S
C347 C344 1.526 1_455 S
C347 C348 1.396 . S
C347 C352 1.390 . S
C348 C342 1.465 1_455 S
C348 C347 1.396 . S
C348 C349 1.399 . S
C349 H335 0.929 . S
C349 C348 1.399 . S
C349 C350 1.385 . S
C350 H336 0.931 . S
C350 C349 1.385 . S
C350 C351 1.389 . S
C351 C350 1.389 . S
C351 C352 1.387 . S
C352 H337 0.930 . S
C352 C347 1.390 . S
C352 C351 1.387 . S
H353 C365 0.930 . S
H354 C367 0.930 . S
H355 C368 0.930 . S
H356 C372 0.959 . S
H357 C372 0.959 . S
H358 C372 0.961 . S
H359 C373 0.960 . S
H360 C373 0.961 . S
H361 C373 0.959 . S
H362 C376 0.929 . S
H363 C377 0.931 . S
H364 C379 0.930 . S
C365 H353 0.930 . S
C365 C366 1.399 . S
C365 C370 1.399 . S
C366 C365 1.399 . S
C366 C367 1.376 . S
C367 H354 0.930 . S
C367 C366 1.376 . S
C367 C368 1.388 . S
C368 H355 0.930 . S
C368 C367 1.388 . S
C368 C369 1.390 . S
C369 C368 1.390 . S
C369 C370 1.394 . S
C369 C375 1.465 . S
C370 C365 1.399 . S
C370 C369 1.394 . S
C370 C371 1.516 . S
C371 C370 1.516 . S
C371 C372 1.502 . S
C371 C373 1.561 . S
C371 C374 1.526 . S
C372 H356 0.959 . S
C372 H357 0.959 . S
C372 H358 0.961 . S
C372 C371 1.502 . S
C373 H359 0.960 . S
C373 H360 0.961 . S
C373 H361 0.959 . S
C373 C371 1.561 . S
C374 C371 1.526 . S
C374 C375 1.396 . S
C374 C379 1.390 . S
C375 C369 1.465 . S
C375 C374 1.396 . S
C375 C376 1.399 . S
C376 H362 0.929 . S
C376 C375 1.399 . S
C376 C377 1.385 . S
C377 H363 0.931 . S
C377 C376 1.385 . S
C377 C378 1.389 . S
C378 C377 1.389 . S
C378 C379 1.387 . S
C379 H364 0.930 . S
C379 C374 1.390 . S
C379 C378 1.387 . S
H380 C392 0.930 . S
H381 C394 0.930 . S
H382 C395 0.930 . S
H383 C399 0.959 . S
H384 C399 0.959 . S
H385 C399 0.961 . S
H386 C400 0.960 . S
H387 C400 0.961 1_545 S
H388 C400 0.959 . S
H389 C403 0.929 . S
H390 C404 0.931 . S
H391 C406 0.930 . S
C392 H380 0.930 . S
C392 C393 1.399 . S
C392 C397 1.399 . S
C393 C392 1.399 . S
C393 C394 1.376 . S
C394 H381 0.930 . S
C394 C393 1.376 . S
C394 C395 1.388 . S
C395 H382 0.930 . S
C395 C394 1.388 . S
C395 C396 1.390 . S
C396 C395 1.390 . S
C396 C397 1.394 . S
C396 C402 1.465 1_565 S
C397 C392 1.399 . S
C397 C396 1.394 . S
C397 C398 1.516 1_565 S
C398 C397 1.516 1_545 S
C398 C399 1.502 . S
C398 C400 1.561 1_545 S
C398 C401 1.526 . S
C399 H383 0.959 . S
C399 H384 0.959 . S
C399 H385 0.961 . S
C399 C398 1.502 . S
C400 H386 0.960 . S
C400 H387 0.961 1_565 S
C400 H388 0.959 . S
C400 C398 1.561 1_565 S
C401 C398 1.526 . S
C401 C402 1.396 . S
C401 C406 1.390 . S
C402 C396 1.465 1_545 S
C402 C401 1.396 . S
C402 C403 1.399 . S
C403 H389 0.929 . S
C403 C402 1.399 . S
C403 C404 1.385 . S
C404 H390 0.931 . S
C404 C403 1.385 . S
C404 C405 1.389 . S
C405 C404 1.389 . S
C405 C406 1.387 . S
C406 H391 0.930 . S
C406 C401 1.390 . S
C406 C405 1.387 . S
H407 C419 0.930 . S
H408 C421 0.930 . S
H409 C422 0.930 . S
H410 C426 0.959 . S
H411 C426 0.959 . S
H412 C426 0.961 . S
H413 C427 0.960 . S
H414 C427 0.961 . S
H415 C427 0.959 . S
H416 C430 0.929 . S
H417 C431 0.931 . S
H418 C433 0.930 . S
C419 H407 0.930 . S
C419 C420 1.399 . S
C419 C424 1.399 . S
C420 C419 1.399 . S
C420 C421 1.376 . S
C421 H408 0.930 . S
C421 C420 1.376 . S
C421 C422 1.388 . S
C422 H409 0.930 . S
C422 C421 1.388 . S
C422 C423 1.390 . S
C423 C422 1.390 . S
C423 C424 1.394 . S
C423 C429 1.465 . S
C424 C419 1.399 . S
C424 C423 1.394 . S
C424 C425 1.516 . S
C425 C424 1.516 . S
C425 C426 1.502 . S
C425 C427 1.561 . S
C425 C428 1.526 . S
C426 H410 0.959 . S
C426 H411 0.959 . S
C426 H412 0.961 . S
C426 C425 1.502 . S
C427 H413 0.960 . S
C427 H414 0.961 . S
C427 H415 0.959 . S
C427 C425 1.561 . S
C428 C425 1.526 . S
C428 C429 1.396 . S
C428 C433 1.390 . S
C429 C423 1.465 . S
C429 C428 1.396 . S
C429 C430 1.399 . S
C430 H416 0.929 . S
C430 C429 1.399 . S
C430 C431 1.385 . S
C431 H417 0.931 . S
C431 C430 1.385 . S
C431 C432 1.389 . S
C432 C431 1.389 . S
C432 C433 1.387 . S
C433 H418 0.930 . S
C433 C428 1.390 . S
C433 C432 1.387 . S
H434 C446 0.930 . S
H435 C448 0.930 . S
H436 C449 0.930 . S
H437 C453 0.959 . S
H438 C453 0.959 . S
H439 C453 0.961 1_565 S
H440 C454 0.960 . S
H441 C454 0.971 . S
H442 C454 0.959 . S
H443 C457 0.929 . S
H444 C458 0.931 . S
H445 C460 0.930 . S
C446 H434 0.930 . S
C446 C447 1.399 . S
C446 C451 1.399 . S
C447 C446 1.399 . S
C447 C448 1.376 . S
C448 H435 0.930 . S
C448 C447 1.376 . S
C448 C449 1.388 . S
C449 H436 0.930 . S
C449 C448 1.388 . S
C449 C450 1.390 . S
C450 C449 1.390 . S
C450 C451 1.394 . S
C450 C456 1.465 1_565 S
C451 C446 1.399 . S
C451 C450 1.394 . S
C451 C452 1.520 . S
C452 C451 1.520 . S
C452 C453 1.499 1_565 S
C452 C454 1.564 . S
C452 C455 1.522 1_565 S
C453 H437 0.959 . S
C453 H438 0.959 . S
C453 H439 0.961 1_545 S
C453 C452 1.499 1_545 S
C454 H440 0.960 . S
C454 H441 0.971 . S
C454 H442 0.959 . S
C454 C452 1.564 . S
C455 C452 1.522 1_545 S
C455 C456 1.396 . S
C455 C460 1.390 . S
C456 C450 1.465 1_545 S
C456 C455 1.396 . S
C456 C457 1.399 . S
C457 H443 0.929 . S
C457 C456 1.399 . S
C457 C458 1.385 . S
C458 H444 0.931 . S
C458 C457 1.385 . S
C458 C459 1.389 . S
C459 C458 1.389 . S
C459 C460 1.387 . S
C460 H445 0.930 . S
C460 C455 1.390 . S
C460 C459 1.387 . S
H461 C473 0.930 . S
H462 C475 0.930 . S
H463 C476 0.930 . S
H464 C480 0.959 . S
H465 C480 0.959 . S
H466 C480 0.961 . S
H467 C481 0.960 . S
H468 C481 0.961 . S
H469 C481 0.959 . S
H470 C484 0.929 . S
H471 C485 0.931 . S
H472 C487 0.930 . S
C473 H461 0.930 . S
C473 C474 1.399 . S
C473 C478 1.399 . S
C474 C473 1.399 . S
C474 C475 1.376 . S
C475 H462 0.930 . S
C475 C474 1.376 . S
C475 C476 1.388 . S
C476 H463 0.930 . S
C476 C475 1.388 . S
C476 C477 1.390 . S
C477 C476 1.390 . S
C477 C478 1.394 . S
C477 C483 1.465 . S
C478 C473 1.399 . S
C478 C477 1.394 . S
C478 C479 1.516 . S
C479 C478 1.516 . S
C479 C480 1.502 . S
C479 C481 1.561 . S
C479 C482 1.526 . S
C480 H464 0.959 . S
C480 H465 0.959 . S
C480 H466 0.961 . S
C480 C479 1.502 . S
C481 H467 0.960 . S
C481 H468 0.961 . S
C481 H469 0.959 . S
C481 C479 1.561 . S
C482 C479 1.526 . S
C482 C483 1.396 . S
C482 C487 1.390 . S
C483 C477 1.465 . S
C483 C482 1.396 . S
C483 C484 1.399 . S
C484 H470 0.929 . S
C484 C483 1.399 . S
C484 C485 1.385 . S
C485 H471 0.931 . S
C485 C484 1.385 . S
C485 C486 1.389 . S
C486 C485 1.389 . S
C486 C487 1.387 . S
C487 H472 0.930 . S
C487 C482 1.390 . S
C487 C486 1.387 . S
H488 C500 0.930 . S
H489 C502 0.930 . S
H490 C503 0.930 . S
H491 C507 0.959 . S
H492 C507 0.959 . S
H493 C507 0.961 . S
H494 C508 0.960 1_554 S
H495 C508 0.961 . S
H496 C508 0.959 1_554 S
H497 C511 0.929 . S
H498 C512 0.931 . S
H499 C514 0.930 . S
C500 H488 0.930 . S
C500 C501 1.399 . S
C500 C505 1.399 1_554 S
C501 C500 1.399 . S
C501 C502 1.376 . S
C502 H489 0.930 . S
C502 C501 1.376 . S
C502 C503 1.388 . S
C503 H490 0.930 . S
C503 C502 1.388 . S
C503 C504 1.410 . S
C504 C503 1.410 . S
C504 C505 1.390 1_554 S
C504 C510 1.446 1_554 S
C505 C500 1.399 1_556 S
C505 C504 1.390 1_556 S
C505 C506 1.516 . S
C506 C505 1.516 . S
C506 C507 1.502 . S
C506 C508 1.561 . S
C506 C509 1.526 . S
C507 H491 0.959 . S
C507 H492 0.959 . S
C507 H493 0.961 . S
C507 C506 1.502 . S
C508 H494 0.960 1_556 S
C508 H495 0.961 . S
C508 H496 0.959 1_556 S
C508 C506 1.561 . S
C509 C506 1.526 . S
C509 C510 1.396 . S
C509 C514 1.390 . S
C510 C504 1.446 1_556 S
C510 C509 1.396 . S
C510 C511 1.399 . S
C511 H497 0.929 . S
C511 C510 1.399 . S
C511 C512 1.385 . S
C512 H498 0.931 . S
C512 C511 1.385 . S
C512 C513 1.389 . S
C513 C512 1.389 . S
C513 C514 1.387 . S
C514 H499 0.930 . S
C514 C509 1.390 . S
C514 C513 1.387 . S
H515 C527 0.930 . S
H516 C529 0.930 . S
H517 C530 0.930 1_554 S
H518 C534 0.959 . S
H519 C534 0.959 . S
H520 C534 0.961 . S
H521 C535 0.960 . S
H522 C535 0.961 . S
H523 C535 0.959 . S
H524 C538 0.929 . S
H525 C539 0.931 . S
H526 C541 0.930 1_556 S
C527 H515 0.930 . S
C527 C528 1.399 . S
C527 C532 1.399 . S
C528 C527 1.399 . S
C528 C529 1.376 . S
C529 H516 0.930 . S
C529 C528 1.376 . S
C529 C530 1.388 . S
C530 H517 0.930 1_556 S
C530 C529 1.388 . S
C530 C531 1.390 . S
C531 C530 1.390 . S
C531 C532 1.394 . S
C531 C537 1.465 1_556 S
C532 C527 1.399 . S
C532 C531 1.394 . S
C532 C533 1.516 . S
C533 C532 1.516 . S
C533 C534 1.502 . S
C533 C535 1.561 . S
C533 C536 1.526 . S
C534 H518 0.959 . S
C534 H519 0.959 . S
C534 H520 0.961 . S
C534 C533 1.502 . S
C535 H521 0.960 . S
C535 H522 0.961 . S
C535 H523 0.959 . S
C535 C533 1.561 . S
C536 C533 1.526 . S
C536 C537 1.396 1_556 S
C536 C541 1.390 1_556 S
C537 C531 1.465 1_554 S
C537 C536 1.396 1_554 S
C537 C538 1.399 . S
C538 H524 0.929 . S
C538 C537 1.399 . S
C538 C539 1.385 . S
C539 H525 0.931 . S
C539 C538 1.385 . S
C539 C540 1.389 . S
C540 C539 1.389 . S
C540 C541 1.387 . S
C541 H526 0.930 1_554 S
C541 C536 1.390 1_554 S
C541 C540 1.387 . S
H542 C554 0.930 . S
H543 C556 0.930 . S
H544 C557 0.930 . S
H545 C561 0.959 . S
H546 C561 0.959 . S
H547 C561 0.961 . S
H548 C562 0.960 . S
H549 C562 0.961 . S
H550 C562 0.959 . S
H551 C565 0.929 . S
H552 C566 0.931 . S
H553 C568 0.930 . S
C554 H542 0.930 . S
C554 C555 1.399 . S
C554 C559 1.399 . S
C555 C554 1.399 . S
C555 C556 1.376 . S
C556 H543 0.930 . S
C556 C555 1.376 . S
C556 C557 1.388 . S
C557 H544 0.930 . S
C557 C556 1.388 . S
C557 C558 1.390 . S
C558 C557 1.390 . S
C558 C559 1.394 . S
C558 C564 1.465 . S
C559 C554 1.399 . S
C559 C558 1.394 . S
C559 C560 1.516 . S
C560 C559 1.516 . S
C560 C561 1.502 . S
C560 C562 1.561 . S
C560 C563 1.526 . S
C561 H545 0.959 . S
C561 H546 0.959 . S
C561 H547 0.961 . S
C561 C560 1.502 . S
C562 H548 0.960 . S
C562 H549 0.961 . S
C562 H550 0.959 . S
C562 C560 1.561 . S
C563 C560 1.526 . S
C563 C564 1.396 . S
C563 C568 1.390 . S
C564 C558 1.465 . S
C564 C563 1.396 . S
C564 C565 1.399 . S
C565 H551 0.929 . S
C565 C564 1.399 . S
C565 C566 1.385 . S
C566 H552 0.931 . S
C566 C565 1.385 . S
C566 C567 1.389 . S
C567 C566 1.389 . S
C567 C568 1.387 . S
C568 H553 0.930 . S
C568 C563 1.390 . S
C568 C567 1.387 . S
H569 C581 0.930 . S
H570 C583 0.930 . S
H571 C584 0.930 . S
H572 C588 0.959 . S
H573 C588 0.959 . S
H574 C588 0.961 . S
H575 C589 0.960 . S
H576 C589 0.961 . S
H577 C589 0.959 . S
H578 C592 0.929 . S
H579 C593 0.931 . S
H580 C595 0.930 . S
C581 H569 0.930 . S
C581 C582 1.399 . S
C581 C586 1.399 . S
C582 C581 1.399 . S
C582 C583 1.376 . S
C583 H570 0.930 . S
C583 C582 1.376 . S
C583 C584 1.388 . S
C584 H571 0.930 . S
C584 C583 1.388 . S
C584 C585 1.390 . S
C585 C584 1.390 . S
C585 C586 1.394 . S
C585 C591 1.465 . S
C586 C581 1.399 . S
C586 C585 1.394 . S
C586 C587 1.516 . S
C587 C586 1.516 . S
C587 C588 1.502 . S
C587 C589 1.561 . S
C587 C590 1.526 . S
C588 H572 0.959 . S
C588 H573 0.959 . S
C588 H574 0.961 . S
C588 C587 1.502 . S
C589 H575 0.960 . S
C589 H576 0.961 . S
C589 H577 0.959 . S
C589 C587 1.561 . S
C590 C587 1.526 . S
C590 C591 1.396 . S
C590 C595 1.390 . S
C591 C585 1.465 . S
C591 C590 1.396 . S
C591 C592 1.399 . S
C592 H578 0.929 . S
C592 C591 1.399 . S
C592 C593 1.385 . S
C593 H579 0.931 . S
C593 C592 1.385 . S
C593 C594 1.389 . S
C594 C593 1.389 . S
C594 C595 1.387 . S
C595 H580 0.930 . S
C595 C590 1.390 . S
C595 C594 1.387 . S
H596 C608 0.930 . S
H597 C610 0.930 . S
H598 C611 0.930 . S
H599 C615 0.959 . S
H600 C615 0.959 . S
H601 C615 0.961 . S
H602 C616 0.960 . S
H603 C616 0.961 . S
H604 C616 0.959 . S
H605 C619 0.929 . S
H606 C620 0.931 . S
H607 C622 0.930 . S
C608 H596 0.930 . S
C608 C609 1.399 . S
C608 C613 1.399 . S
C609 C608 1.399 . S
C609 C610 1.376 . S
C610 H597 0.930 . S
C610 C609 1.376 . S
C610 C611 1.388 . S
C611 H598 0.930 . S
C611 C610 1.388 . S
C611 C612 1.390 . S
C612 C611 1.390 . S
C612 C613 1.394 . S
C612 C618 1.465 . S
C613 C608 1.399 . S
C613 C612 1.394 . S
C613 C614 1.516 1_554 S
C614 C613 1.516 1_556 S
C614 C615 1.502 . S
C614 C616 1.561 . S
C614 C617 1.526 . S
C615 H599 0.959 . S
C615 H600 0.959 . S
C615 H601 0.961 . S
C615 C614 1.502 . S
C616 H602 0.960 . S
C616 H603 0.961 . S
C616 H604 0.959 . S
C616 C614 1.561 . S
C617 C614 1.526 . S
C617 C618 1.396 1_556 S
C617 C622 1.390 . S
C618 C612 1.465 . S
C618 C617 1.396 1_554 S
C618 C619 1.399 . S
C619 H605 0.929 . S
C619 C618 1.399 . S
C619 C620 1.385 . S
C620 H606 0.931 . S
C620 C619 1.385 . S
C620 C621 1.389 1_554 S
C621 C620 1.389 1_556 S
C621 C622 1.387 . S
C622 H607 0.930 . S
C622 C617 1.390 . S
C622 C621 1.387 . S
H623 C635 0.930 . S
H624 C637 0.930 . S
H625 C638 0.930 1_554 S
H626 C642 0.959 . S
H627 C642 0.959 . S
H628 C642 0.961 . S
H629 C643 0.960 . S
H630 C643 0.961 . S
H631 C643 0.959 . S
H632 C646 0.929 . S
H633 C647 0.931 . S
H634 C649 0.930 . S
C635 H623 0.930 . S
C635 C636 1.399 . S
C635 C640 1.399 . S
C636 C635 1.399 . S
C636 C637 1.376 . S
C637 H624 0.930 . S
C637 C636 1.376 . S
C637 C638 1.388 . S
C638 H625 0.930 1_556 S
C638 C637 1.388 . S
C638 C639 1.390 1_556 S
C639 C638 1.390 1_554 S
C639 C640 1.394 1_554 S
C639 C645 1.465 . S
C640 C635 1.399 . S
C640 C639 1.394 1_556 S
C640 C641 1.516 1_556 S
C641 C640 1.516 1_554 S
C641 C642 1.502 . S
C641 C643 1.561 1_554 S
C641 C644 1.526 . S
C642 H626 0.959 . S
C642 H627 0.959 . S
C642 H628 0.961 . S
C642 C641 1.502 . S
C643 H629 0.960 . S
C643 H630 0.961 . S
C643 H631 0.959 . S
C643 C641 1.561 1_556 S
C644 C641 1.526 . S
C644 C645 1.396 . S
C644 C649 1.390 . S
C645 C639 1.465 . S
C645 C644 1.396 . S
C645 C646 1.399 . S
C646 H632 0.929 . S
C646 C645 1.399 . S
C646 C647 1.385 . S
C647 H633 0.931 . S
C647 C646 1.385 . S
C647 C648 1.389 . S
C648 C647 1.389 . S
C648 C649 1.387 . S
C649 H634 0.930 . S
C649 C644 1.390 . S
C649 C648 1.387 . S
H650 C662 0.930 . S
H651 C664 0.930 . S
H652 C665 0.930 . S
H653 C669 0.959 . S
H654 C669 0.959 . S
H655 C669 0.961 . S
H656 C670 0.960 . S
H657 C670 0.961 . S
H658 C670 0.959 . S
H659 C673 0.929 . S
H660 C674 0.931 . S
H661 C676 0.930 . S
C662 H650 0.930 . S
C662 C663 1.399 . S
C662 C667 1.399 . S
C663 C662 1.399 . S
C663 C664 1.376 . S
C664 H651 0.930 . S
C664 C663 1.376 . S
C664 C665 1.388 . S
C665 H652 0.930 . S
C665 C664 1.388 . S
C665 C666 1.390 . S
C666 C665 1.390 . S
C666 C667 1.394 . S
C666 C672 1.465 . S
C667 C662 1.399 . S
C667 C666 1.394 . S
C667 C668 1.516 . S
C668 C667 1.516 . S
C668 C669 1.502 . S
C668 C670 1.561 . S
C668 C671 1.526 . S
C669 H653 0.959 . S
C669 H654 0.959 . S
C669 H655 0.961 . S
C669 C668 1.502 . S
C670 H656 0.960 . S
C670 H657 0.961 . S
C670 H658 0.959 . S
C670 C668 1.561 . S
C671 C668 1.526 . S
C671 C672 1.396 . S
C671 C676 1.390 . S
C672 C666 1.465 . S
C672 C671 1.396 . S
C672 C673 1.399 . S
C673 H659 0.929 . S
C673 C672 1.399 . S
C673 C674 1.385 . S
C674 H660 0.931 . S
C674 C673 1.385 . S
C674 C675 1.389 . S
C675 C674 1.389 . S
C675 C676 1.387 . S
C676 H661 0.930 . S
C676 C671 1.390 . S
C676 C675 1.387 . S
H677 C689 0.930 . S
H678 C691 0.930 . S
H679 C692 0.930 . S
H680 C696 0.959 . S
H681 C696 0.959 . S
H682 C696 0.961 . S
H683 C697 0.960 . S
H684 C697 0.961 . S
H685 C697 0.959 . S
H686 C700 0.929 . S
H687 C701 0.931 . S
H688 C703 0.930 . S
C689 H677 0.930 . S
C689 C690 1.399 . S
C689 C694 1.399 . S
C690 C689 1.399 . S
C690 C691 1.376 . S
C691 H678 0.930 . S
C691 C690 1.376 . S
C691 C692 1.388 . S
C692 H679 0.930 . S
C692 C691 1.388 . S
C692 C693 1.390 . S
C693 C692 1.390 . S
C693 C694 1.394 . S
C693 C699 1.465 . S
C694 C689 1.399 . S
C694 C693 1.394 . S
C694 C695 1.516 . S
C695 C694 1.516 . S
C695 C696 1.502 . S
C695 C697 1.561 . S
C695 C698 1.526 . S
C696 H680 0.959 . S
C696 H681 0.959 . S
C696 H682 0.961 . S
C696 C695 1.502 . S
C697 H683 0.960 . S
C697 H684 0.961 . S
C697 H685 0.959 . S
C697 C695 1.561 . S
C698 C695 1.526 . S
C698 C699 1.396 . S
C698 C703 1.390 . S
C699 C693 1.465 . S
C699 C698 1.396 . S
C699 C700 1.399 . S
C700 H686 0.929 . S
C700 C699 1.399 . S
C700 C701 1.385 . S
C701 H687 0.931 . S
C701 C700 1.385 . S
C701 C702 1.389 . S
C702 C701 1.389 . S
C702 C703 1.387 . S
C703 H688 0.930 . S
C703 C698 1.390 . S
C703 C702 1.387 . S
H704 C716 0.930 . S
H705 C718 0.930 . S
H706 C719 0.930 . S
H707 C723 0.959 . S
H708 C723 0.959 . S
H709 C723 0.961 . S
H710 C724 0.960 . S
H711 C724 0.961 . S
H712 C724 0.959 . S
H713 C727 0.929 . S
H714 C728 0.931 . S
H715 C730 0.930 . S
C716 H704 0.930 . S
C716 C717 1.399 . S
C716 C721 1.399 . S
C717 C716 1.399 . S
C717 C718 1.376 . S
C718 H705 0.930 . S
C718 C717 1.376 . S
C718 C719 1.388 . S
C719 H706 0.930 . S
C719 C718 1.388 . S
C719 C720 1.390 . S
C720 C719 1.390 . S
C720 C721 1.394 . S
C720 C726 1.465 . S
C721 C716 1.399 . S
C721 C720 1.394 . S
C721 C722 1.516 . S
C722 C721 1.516 . S
C722 C723 1.502 . S
C722 C724 1.561 . S
C722 C725 1.526 . S
C723 H707 0.959 . S
C723 H708 0.959 . S
C723 H709 0.961 . S
C723 C722 1.502 . S
C724 H710 0.960 . S
C724 H711 0.961 . S
C724 H712 0.959 . S
C724 C722 1.561 . S
C725 C722 1.526 . S
C725 C726 1.396 . S
C725 C730 1.390 . S
C726 C720 1.465 . S
C726 C725 1.396 . S
C726 C727 1.399 . S
C727 H713 0.929 . S
C727 C726 1.399 . S
C727 C728 1.385 . S
C728 H714 0.931 . S
C728 C727 1.385 . S
C728 C729 1.389 . S
C729 C728 1.389 . S
C729 C730 1.387 . S
C730 H715 0.930 . S
C730 C725 1.390 . S
C730 C729 1.387 . S
H731 C743 0.930 . S
H732 C745 0.930 . S
H733 C746 0.930 . S
H734 C750 0.959 . S
H735 C750 0.959 . S
H736 C750 0.961 . S
H737 C751 0.960 . S
H738 C751 0.961 . S
H739 C751 0.959 . S
H740 C754 0.929 . S
H741 C755 0.931 . S
H742 C757 0.930 . S
C743 H731 0.930 . S
C743 C744 1.399 . S
C743 C748 1.399 . S
C744 C743 1.399 . S
C744 C745 1.376 . S
C745 H732 0.930 . S
C745 C744 1.376 . S
C745 C746 1.388 . S
C746 H733 0.930 . S
C746 C745 1.388 . S
C746 C747 1.390 . S
C747 C746 1.390 . S
C747 C748 1.394 . S
C747 C753 1.465 . S
C748 C743 1.399 . S
C748 C747 1.394 . S
C748 C749 1.516 . S
C749 C748 1.516 . S
C749 C750 1.502 . S
C749 C751 1.561 . S
C749 C752 1.526 . S
C750 H734 0.959 . S
C750 H735 0.959 . S
C750 H736 0.961 . S
C750 C749 1.502 . S
C751 H737 0.960 . S
C751 H738 0.961 . S
C751 H739 0.959 . S
C751 C749 1.561 . S
C752 C749 1.526 . S
C752 C753 1.396 . S
C752 C757 1.390 . S
C753 C747 1.465 . S
C753 C752 1.396 . S
C753 C754 1.399 . S
C754 H740 0.929 . S
C754 C753 1.399 . S
C754 C755 1.385 . S
C755 H741 0.931 . S
C755 C754 1.385 . S
C755 C756 1.389 . S
C756 C755 1.389 . S
C756 C757 1.387 . S
C757 H742 0.930 . S
C757 C752 1.390 . S
C757 C756 1.387 . S
H758 C770 0.930 . S
H759 C772 0.930 . S
H760 C773 0.930 . S
H761 C777 0.959 . S
H762 C777 0.959 . S
H763 C777 0.961 . S
H764 C778 0.960 . S
H765 C778 0.961 . S
H766 C778 0.959 . S
H767 C781 0.929 . S
H768 C782 0.931 . S
H769 C784 0.930 . S
C770 H758 0.930 . S
C770 C771 1.399 . S
C770 C775 1.399 . S
C771 C770 1.399 . S
C771 C772 1.376 . S
C772 H759 0.930 . S
C772 C771 1.376 . S
C772 C773 1.388 . S
C773 H760 0.930 . S
C773 C772 1.388 . S
C773 C774 1.390 . S
C774 C773 1.390 . S
C774 C775 1.394 . S
C774 C780 1.465 . S
C775 C770 1.399 . S
C775 C774 1.394 . S
C775 C776 1.516 . S
C776 C775 1.516 . S
C776 C777 1.502 . S
C776 C778 1.561 . S
C776 C779 1.526 . S
C777 H761 0.959 . S
C777 H762 0.959 . S
C777 H763 0.961 . S
C777 C776 1.502 . S
C778 H764 0.960 . S
C778 H765 0.961 . S
C778 H766 0.959 . S
C778 C776 1.561 . S
C779 C776 1.526 . S
C779 C780 1.396 . S
C779 C784 1.390 . S
C780 C774 1.465 . S
C780 C779 1.396 . S
C780 C781 1.399 . S
C781 H767 0.929 . S
C781 C780 1.399 . S
C781 C782 1.385 . S
C782 H768 0.931 . S
C782 C781 1.385 . S
C782 C783 1.389 . S
C783 C782 1.389 . S
C783 C784 1.387 . S
C784 H769 0.930 . S
C784 C779 1.390 . S
C784 C783 1.387 . S
H785 C797 0.930 . S
H786 C799 0.930 . S
H787 C800 0.930 . S
H788 C804 0.959 . S
H789 C804 0.959 . S
H790 C804 0.961 . S
H791 C805 0.960 . S
H792 C805 0.961 . S
H793 C805 0.959 . S
H794 C808 0.929 . S
H795 C809 0.931 . S
H796 C811 0.930 . S
C797 H785 0.930 . S
C797 C798 1.399 . S
C797 C802 1.399 . S
C798 C797 1.399 . S
C798 C799 1.376 . S
C799 H786 0.930 . S
C799 C798 1.376 . S
C799 C800 1.388 . S
C800 H787 0.930 . S
C800 C799 1.388 . S
C800 C801 1.390 . S
C801 C800 1.390 . S
C801 C802 1.394 . S
C801 C807 1.465 . S
C802 C797 1.399 . S
C802 C801 1.394 . S
C802 C803 1.516 . S
C803 C802 1.516 . S
C803 C804 1.502 . S
C803 C805 1.561 . S
C803 C806 1.526 . S
C804 H788 0.959 . S
C804 H789 0.959 . S
C804 H790 0.961 . S
C804 C803 1.502 . S
C805 H791 0.960 . S
C805 H792 0.961 . S
C805 H793 0.959 . S
C805 C803 1.561 . S
C806 C803 1.526 . S
C806 C807 1.396 . S
C806 C811 1.390 . S
C807 C801 1.465 . S
C807 C806 1.396 . S
C807 C808 1.399 . S
C808 H794 0.929 . S
C808 C807 1.399 . S
C808 C809 1.385 . S
C809 H795 0.931 . S
C809 C808 1.385 . S
C809 C810 1.389 . S
C810 C809 1.389 . S
C810 C811 1.387 . S
C811 H796 0.930 . S
C811 C806 1.390 . S
C811 C810 1.387 . S
C285 C5 0.484 . S
C297 C141 0.764 . S
C312 C175 0.699 . S
C324 C39 0.531 . S
C339 C209 0.495 . S
C351 C73 0.763 . S
C366 C107 0.610 . S
C378 C243 0.622 . S
C393 C36 1.918 . S
C405 C2 1.916 . S
C420 C70 1.857 . S
C432 C104 1.858 . S
C447 C138 1.865 . S
C459 C172 1.858 . S
C474 C240 1.911 . S
C486 C206 1.923 . S
C501 C33 1.464 . S
C513 C190 1.365 . S
C528 C156 1.407 . S
C540 C67 1.486 . S
C555 C258 1.439 . S
C567 C101 1.498 . S
C582 C224 1.421 . S
C594 C135 1.492 . S
C609 C54 1.418 . S
C621 C169 1.492 . S
C636 C203 1.497 . S
C648 C20 1.456 . S
C663 C237 1.480 . S
C675 C122 1.421 . S
C690 C88 1.461 . S
C702 C271 1.502 . S
C717 C77 1.375 . S
C729 C9 1.322 . S
C744 C43 1.371 . S
C756 C111 1.313 . S
C771 C213 1.366 . S
C783 C145 1.317 . S
C798 C247 1.338 . S
C810 C179 1.374 . S
