# Generated by pormake.
# Topology dei, (4)-cn, num edge types: 1
# Building blocks:
#     Node 0, Type 0, BuildingBlock: UXUYUI_clean_sbu_0, # of connection points: 4
#     Node 1, Type 0, BuildingBlock: UXUYUI_clean_sbu_0, # of connection points: 4
#     Node 2, Type 0, BuildingBlock: UXUYUI_clean_sbu_0, # of connection points: 4
#     Node 3, Type 0, BuildingBlock: UXUYUI_clean_sbu_0, # of connection points: 4
#     Node 4, Type 0, BuildingBlock: UXUYUI_clean_sbu_0, # of connection points: 4
#     Node 5, Type 0, BuildingBlock: UXUYUI_clean_sbu_0, # of connection points: 4
#     Node 6, Type 0, BuildingBlock: UXUYUI_clean_sbu_0, # of connection points: 4
#     Node 7, Type 0, BuildingBlock: UXUYUI_clean_sbu_0, # of connection points: 4
#     Node 8, Type 0, BuildingBlock: UXUYUI_clean_sbu_0, # of connection points: 4
#     Node 9, Type 0, BuildingBlock: UXUYUI_clean_sbu_0, # of connection points: 4
#     Node 10, Type 0, BuildingBlock: UXUYUI_clean_sbu_0, # of connection points: 4
#     Node 11, Type 0, BuildingBlock: UXUYUI_clean_sbu_0, # of connection points: 4
#     Node 12, Type 0, BuildingBlock: UXUYUI_clean_sbu_0, # of connection points: 4
#     Node 13, Type 0, BuildingBlock: UXUYUI_clean_sbu_0, # of connection points: 4
#     Node 14, Type 0, BuildingBlock: UXUYUI_clean_sbu_0, # of connection points: 4
#     Node 15, Type 0, BuildingBlock: UXUYUI_clean_sbu_0, # of connection points: 4
#     Node 16, Type 0, BuildingBlock: UXUYUI_clean_sbu_0, # of connection points: 4
#     Node 17, Type 0, BuildingBlock: UXUYUI_clean_sbu_0, # of connection points: 4
#     Node 18, Type 0, BuildingBlock: UXUYUI_clean_sbu_0, # of connection points: 4
#     Node 19, Type 0, BuildingBlock: UXUYUI_clean_sbu_0, # of connection points: 4
#     Node 20, Type 0, BuildingBlock: UXUYUI_clean_sbu_0, # of connection points: 4
#     Node 21, Type 0, BuildingBlock: UXUYUI_clean_sbu_0, # of connection points: 4
#     Node 22, Type 0, BuildingBlock: UXUYUI_clean_sbu_0, # of connection points: 4
#     Node 23, Type 0, BuildingBlock: UXUYUI_clean_sbu_0, # of connection points: 4
#     Node 24, Type 0, BuildingBlock: UXUYUI_clean_sbu_0, # of connection points: 4
#     Node 25, Type 0, BuildingBlock: UXUYUI_clean_sbu_0, # of connection points: 4
#     Node 26, Type 0, BuildingBlock: UXUYUI_clean_sbu_0, # of connection points: 4
#     Node 27, Type 0, BuildingBlock: UXUYUI_clean_sbu_0, # of connection points: 4
#     Node 28, Type 0, BuildingBlock: UXUYUI_clean_sbu_0, # of connection points: 4
#     Node 29, Type 0, BuildingBlock: UXUYUI_clean_sbu_0, # of connection points: 4
#     Node 30, Type 0, BuildingBlock: UXUYUI_clean_sbu_0, # of connection points: 4
#     Node 31, Type 0, BuildingBlock: UXUYUI_clean_sbu_0, # of connection points: 4
#     Edge 32, Type (0, 0), BuildingBlock: EZIPEK_clean_linker_0, # of connection points: 2
#     Edge 33, Type (0, 0), BuildingBlock: EZIPEK_clean_linker_0, # of connection points: 2
#     Edge 34, Type (0, 0), BuildingBlock: EZIPEK_clean_linker_0, # of connection points: 2
#     Edge 35, Type (0, 0), BuildingBlock: EZIPEK_clean_linker_0, # of connection points: 2
#     Edge 36, Type (0, 0), BuildingBlock: EZIPEK_clean_linker_0, # of connection points: 2
#     Edge 37, Type (0, 0), BuildingBlock: EZIPEK_clean_linker_0, # of connection points: 2
#     Edge 38, Type (0, 0), BuildingBlock: EZIPEK_clean_linker_0, # of connection points: 2
#     Edge 39, Type (0, 0), BuildingBlock: EZIPEK_clean_linker_0, # of connection points: 2
#     Edge 40, Type (0, 0), BuildingBlock: EZIPEK_clean_linker_0, # of connection points: 2
#     Edge 41, Type (0, 0), BuildingBlock: EZIPEK_clean_linker_0, # of connection points: 2
#     Edge 42, Type (0, 0), BuildingBlock: EZIPEK_clean_linker_0, # of connection points: 2
#     Edge 43, Type (0, 0), BuildingBlock: EZIPEK_clean_linker_0, # of connection points: 2
#     Edge 44, Type (0, 0), BuildingBlock: EZIPEK_clean_linker_0, # of connection points: 2
#     Edge 45, Type (0, 0), BuildingBlock: EZIPEK_clean_linker_0, # of connection points: 2
#     Edge 46, Type (0, 0), BuildingBlock: EZIPEK_clean_linker_0, # of connection points: 2
#     Edge 47, Type (0, 0), BuildingBlock: EZIPEK_clean_linker_0, # of connection points: 2
#     Edge 48, Type (0, 0), BuildingBlock: EZIPEK_clean_linker_0, # of connection points: 2
#     Edge 49, Type (0, 0), BuildingBlock: EZIPEK_clean_linker_0, # of connection points: 2
#     Edge 50, Type (0, 0), BuildingBlock: EZIPEK_clean_linker_0, # of connection points: 2
#     Edge 51, Type (0, 0), BuildingBlock: EZIPEK_clean_linker_0, # of connection points: 2
#     Edge 52, Type (0, 0), BuildingBlock: EZIPEK_clean_linker_0, # of connection points: 2
#     Edge 53, Type (0, 0), BuildingBlock: EZIPEK_clean_linker_0, # of connection points: 2
#     Edge 54, Type (0, 0), BuildingBlock: EZIPEK_clean_linker_0, # of connection points: 2
#     Edge 55, Type (0, 0), BuildingBlock: EZIPEK_clean_linker_0, # of connection points: 2
#     Edge 56, Type (0, 0), BuildingBlock: EZIPEK_clean_linker_0, # of connection points: 2
#     Edge 57, Type (0, 0), BuildingBlock: EZIPEK_clean_linker_0, # of connection points: 2
#     Edge 58, Type (0, 0), BuildingBlock: EZIPEK_clean_linker_0, # of connection points: 2
#     Edge 59, Type (0, 0), BuildingBlock: EZIPEK_clean_linker_0, # of connection points: 2
#     Edge 60, Type (0, 0), BuildingBlock: EZIPEK_clean_linker_0, # of connection points: 2
#     Edge 61, Type (0, 0), BuildingBlock: EZIPEK_clean_linker_0, # of connection points: 2
#     Edge 62, Type (0, 0), BuildingBlock: EZIPEK_clean_linker_0, # of connection points: 2
#     Edge 63, Type (0, 0), BuildingBlock: EZIPEK_clean_linker_0, # of connection points: 2
#     Edge 64, Type (0, 0), BuildingBlock: EZIPEK_clean_linker_0, # of connection points: 2
#     Edge 65, Type (0, 0), BuildingBlock: EZIPEK_clean_linker_0, # of connection points: 2
#     Edge 66, Type (0, 0), BuildingBlock: EZIPEK_clean_linker_0, # of connection points: 2
#     Edge 67, Type (0, 0), BuildingBlock: EZIPEK_clean_linker_0, # of connection points: 2
#     Edge 68, Type (0, 0), BuildingBlock: EZIPEK_clean_linker_0, # of connection points: 2
#     Edge 69, Type (0, 0), BuildingBlock: EZIPEK_clean_linker_0, # of connection points: 2
#     Edge 70, Type (0, 0), BuildingBlock: EZIPEK_clean_linker_0, # of connection points: 2
#     Edge 71, Type (0, 0), BuildingBlock: EZIPEK_clean_linker_0, # of connection points: 2
#     Edge 72, Type (0, 0), BuildingBlock: EZIPEK_clean_linker_0, # of connection points: 2
#     Edge 73, Type (0, 0), BuildingBlock: EZIPEK_clean_linker_0, # of connection points: 2
#     Edge 74, Type (0, 0), BuildingBlock: EZIPEK_clean_linker_0, # of connection points: 2
#     Edge 75, Type (0, 0), BuildingBlock: EZIPEK_clean_linker_0, # of connection points: 2
#     Edge 76, Type (0, 0), BuildingBlock: EZIPEK_clean_linker_0, # of connection points: 2
#     Edge 77, Type (0, 0), BuildingBlock: EZIPEK_clean_linker_0, # of connection points: 2
#     Edge 78, Type (0, 0), BuildingBlock: EZIPEK_clean_linker_0, # of connection points: 2
#     Edge 79, Type (0, 0), BuildingBlock: EZIPEK_clean_linker_0, # of connection points: 2
#     Edge 80, Type (0, 0), BuildingBlock: EZIPEK_clean_linker_0, # of connection points: 2
#     Edge 81, Type (0, 0), BuildingBlock: EZIPEK_clean_linker_0, # of connection points: 2
#     Edge 82, Type (0, 0), BuildingBlock: EZIPEK_clean_linker_0, # of connection points: 2
#     Edge 83, Type (0, 0), BuildingBlock: EZIPEK_clean_linker_0, # of connection points: 2
#     Edge 84, Type (0, 0), BuildingBlock: EZIPEK_clean_linker_0, # of connection points: 2
#     Edge 85, Type (0, 0), BuildingBlock: EZIPEK_clean_linker_0, # of connection points: 2
#     Edge 86, Type (0, 0), BuildingBlock: EZIPEK_clean_linker_0, # of connection points: 2
#     Edge 87, Type (0, 0), BuildingBlock: EZIPEK_clean_linker_0, # of connection points: 2
#     Edge 88, Type (0, 0), BuildingBlock: EZIPEK_clean_linker_0, # of connection points: 2
#     Edge 89, Type (0, 0), BuildingBlock: EZIPEK_clean_linker_0, # of connection points: 2
#     Edge 90, Type (0, 0), BuildingBlock: EZIPEK_clean_linker_0, # of connection points: 2
#     Edge 91, Type (0, 0), BuildingBlock: EZIPEK_clean_linker_0, # of connection points: 2
#     Edge 92, Type (0, 0), BuildingBlock: EZIPEK_clean_linker_0, # of connection points: 2
#     Edge 93, Type (0, 0), BuildingBlock: EZIPEK_clean_linker_0, # of connection points: 2
#     Edge 94, Type (0, 0), BuildingBlock: EZIPEK_clean_linker_0, # of connection points: 2
#     Edge 95, Type (0, 0), BuildingBlock: EZIPEK_clean_linker_0, # of connection points: 2
# Relax obj value: 0.318
# Max RMSD: 0.128
# Mean RMSD: 0.128
data_MOF--net-dei--node1-UXUYUI_clean_sbu_0--edge1-EZIPEK_clean_linker_0
_symmetry_space_group_name_H-M    P1
_symmetry_Int_Tables_number       1
_symmetry_cell_setting            triclinic
loop_
_symmetry_equiv_pos_as_xyz
'x, y, z'
_cell_length_a     59.499025
_cell_length_b     59.466105
_cell_length_c     118.36185
_cell_angle_alpha  90.006128
_cell_angle_beta   90.004045
_cell_angle_gamma 90.009417
loop_
_atom_site_label
_atom_site_type_symbol
_atom_site_fract_x
_atom_site_fract_y
_atom_site_fract_z
_atom_type_partial_charge
Li0 Li 0.15971 0.62574 0.04672 0.0
Li1 Li 0.16116 0.59872 0.06194 0.0
Li2 Li 0.1612 0.58641 0.04205 0.0
Li3 Li 0.12754 0.60172 0.05018 0.0
C4 C 0.20231 0.61521 0.05523 0.0
N5 N 0.23789 0.63722 0.06538 0.0
C6 C 0.19837 0.63347 0.0624 0.0
C7 C 0.22435 0.60816 0.05322 0.0
C8 C 0.21657 0.64438 0.06745 0.0
C9 C 0.24211 0.6195 0.05843 0.0
C10 C 0.12639 0.62769 0.06942 0.0
C11 C 0.10513 0.61245 0.085 0.0
N12 N 0.09809 0.63353 0.08771 0.0
C13 C 0.11896 0.6492 0.07237 0.0
C14 C 0.11942 0.60915 0.07579 0.0
C15 C 0.10465 0.6518 0.08164 0.0
C16 C 0.15122 0.67101 0.04435 0.0
N17 N 0.16759 0.65552 0.04254 0.0
C18 C 0.19333 0.6842 0.03679 0.0
C19 C 0.18825 0.66152 0.03861 0.0
C20 C 0.17691 0.70051 0.03904 0.0
C21 C 0.15557 0.69377 0.04268 0.0
H22 H 0.13491 0.66564 0.04735 0.0
H23 H 0.20094 0.64882 0.0372 0.0
C24 C 0.17861 0.57186 0.07979 0.0
N25 N 0.1717 0.59289 0.0769 0.0
C26 C 0.18313 0.56666 0.09109 0.0
C27 C 0.17401 0.60502 0.09608 0.0
C28 C 0.17028 0.60961 0.08471 0.0
C29 C 0.17986 0.58317 0.09941 0.0
H30 H 0.1798 0.55895 0.07338 0.0
H31 H 0.1652 0.62631 0.08219 0.0
C32 C 0.14847 0.61545 0.02483 0.0
N33 N 0.16326 0.62711 0.00348 0.0
C34 C 0.133 0.62095 0.01638 0.0
C35 C 0.17147 0.61586 0.02241 0.0
C36 C 0.14081 0.62681 0.00565 0.0
C37 C 0.1786 0.6218 0.01157 0.0
C38 C 0.13101 0.5553 0.05434 0.0
C39 C 0.11875 0.55047 0.04457 0.0
C40 C 0.12933 0.54111 0.06372 0.0
C41 C 0.10513 0.53134 0.0443 0.0
C42 C 0.11553 0.52214 0.06312 0.0
N43 N 0.10382 0.51768 0.0535 0.0
C44 C 0.19085 0.55278 0.0333 0.0
C45 C 0.15779 0.55976 0.02264 0.0
C46 C 0.19734 0.53589 0.02572 0.0
N47 N 0.17129 0.56417 0.03165 0.0
C48 C 0.16357 0.54309 0.01493 0.0
C49 C 0.1834 0.53084 0.0165 0.0
H50 H 0.20124 0.55666 0.04054 0.0
H51 H 0.14235 0.56904 0.02151 0.0
C52 C 0.08477 0.61335 0.0423 0.0
N53 N 0.09554 0.60029 0.05002 0.0
C54 C 0.06135 0.61321 0.04165 0.0
C55 C 0.0605 0.58633 0.05698 0.0
C56 C 0.08393 0.58693 0.05731 0.0
C57 C 0.04906 0.59957 0.04907 0.0
H58 H 0.09443 0.62393 0.03668 0.0
H59 H 0.09279 0.57674 0.06341 0.0
O60 O 0.18483 0.60423 0.05013 0.0
O61 O 0.14033 0.62492 0.06032 0.0
O62 O 0.14096 0.60964 0.03537 0.0
O63 O 0.14386 0.57432 0.05496 0.0
H64 H 0.18147 0.6393 0.064 0.0
H65 H 0.22768 0.59406 0.04767 0.0
H66 H 0.21375 0.65856 0.07299 0.0
H67 H 0.25926 0.61422 0.05695 0.0
H68 H 0.09965 0.59824 0.09 0.0
H69 H 0.12423 0.66376 0.06757 0.0
H70 H 0.12506 0.59239 0.07369 0.0
H71 H 0.09878 0.66836 0.08401 0.0
H72 H 0.20997 0.68903 0.03398 0.0
H73 H 0.1426 0.70606 0.04446 0.0
H74 H 0.18792 0.5497 0.0934 0.0
H75 H 0.17161 0.61821 0.10228 0.0
H76 H 0.11514 0.62065 0.0181 0.0
H77 H 0.18373 0.61156 0.02878 0.0
H78 H 0.12902 0.6311 0.99903 0.0
H79 H 0.19635 0.62218 0.00958 0.0
H80 H 0.11927 0.56168 0.0374 0.0
H81 H 0.13844 0.54482 0.07141 0.0
H82 H 0.09546 0.52745 0.03681 0.0
H83 H 0.11405 0.51102 0.07031 0.0
H84 H 0.21277 0.52664 0.02712 0.0
H85 H 0.15252 0.53953 0.00787 0.0
H86 H 0.05288 0.62366 0.03548 0.0
H87 H 0.05138 0.5757 0.06283 0.0
Li88 Li 0.62324 0.91245 0.29968 0.0
Li89 Li 0.65573 0.91328 0.3143 0.0
Li90 Li 0.66188 0.91487 0.29387 0.0
Li91 Li 0.65015 0.88099 0.3019 0.0
C92 C 0.65237 0.95671 0.29906 0.0
N93 N 0.66842 0.99608 0.28969 0.0
C94 C 0.6737 0.96465 0.30198 0.0
C95 C 0.6391 0.96885 0.29147 0.0
C96 C 0.68155 0.98456 0.29711 0.0
C97 C 0.64754 0.98872 0.28681 0.0
C98 C 0.62141 0.87411 0.31843 0.0
C99 C 0.62511 0.84525 0.33262 0.0
N100 N 0.6071 0.83436 0.32813 0.0
C101 C 0.6029 0.86268 0.31398 0.0
C102 C 0.63261 0.86537 0.32784 0.0
C103 C 0.59595 0.84258 0.31899 0.0
C104 C 0.58004 0.905 0.29142 0.0
N105 N 0.59287 0.91992 0.29725 0.0
C106 C 0.56093 0.94308 0.30096 0.0
C107 C 0.58396 0.93885 0.30188 0.0
C108 C 0.54725 0.92751 0.29532 0.0
C109 C 0.55697 0.90847 0.29036 0.0
H110 H 0.58767 0.89006 0.28789 0.0
H111 H 0.59463 0.95028 0.30655 0.0
C112 C 0.6843 0.93011 0.33181 0.0
N113 N 0.66328 0.92291 0.32908 0.0
C114 C 0.68988 0.93424 0.34311 0.0
C115 C 0.65182 0.92444 0.34837 0.0
C116 C 0.64694 0.92071 0.33702 0.0
C117 C 0.67363 0.93069 0.35152 0.0
H118 H 0.69694 0.93172 0.32529 0.0
H119 H 0.63032 0.91519 0.33456 0.0
C120 C 0.64068 0.89357 0.27668 0.0
N121 N 0.64575 0.89137 0.25351 0.0
C122 C 0.65735 0.87996 0.27195 0.0
C123 C 0.6264 0.90586 0.26963 0.0
C124 C 0.65966 0.87908 0.26022 0.0
C125 C 0.62932 0.90462 0.25793 0.0
C126 C 0.6941 0.88116 0.30754 0.0
C127 C 0.70374 0.86899 0.29867 0.0
C128 C 0.7007 0.87673 0.31866 0.0
C129 C 0.71961 0.85237 0.30109 0.0
C130 C 0.71667 0.86001 0.32072 0.0
N131 N 0.7257 0.84826 0.31197 0.0
C132 C 0.70331 0.92321 0.28334 0.0
C133 C 0.67235 0.93873 0.27342 0.0
C134 C 0.71785 0.92912 0.2746 0.0
N135 N 0.68093 0.92742 0.28245 0.0
C136 C 0.68631 0.945 0.26447 0.0
C137 C 0.7092 0.93956 0.26493 0.0
H138 H 0.7098 0.91461 0.29068 0.0
H139 H 0.65456 0.94221 0.27297 0.0
C140 C 0.63906 0.83891 0.29261 0.0
N141 N 0.65081 0.84865 0.30117 0.0
C142 C 0.63791 0.81553 0.2917 0.0
C143 C 0.66081 0.81252 0.3085 0.0
C144 C 0.66135 0.83594 0.30914 0.0
C145 C 0.64897 0.80215 0.29969 0.0
H146 H 0.63026 0.84929 0.28657 0.0
H147 H 0.66977 0.84387 0.31614 0.0
O148 O 0.64458 0.93704 0.30355 0.0
O149 O 0.62881 0.89352 0.31346 0.0
O150 O 0.63795 0.89442 0.28814 0.0
O151 O 0.67868 0.89765 0.30533 0.0
H152 H 0.68417 0.95538 0.30783 0.0
H153 H 0.62258 0.96285 0.28911 0.0
H154 H 0.69809 0.99084 0.29922 0.0
H155 H 0.63753 0.99824 0.28086 0.0
H156 H 0.6337 0.83821 0.33986 0.0
H157 H 0.59414 0.86913 0.30666 0.0
H158 H 0.6472 0.8738 0.33129 0.0
H159 H 0.58173 0.83347 0.31559 0.0
H160 H 0.55374 0.95783 0.30493 0.0
H161 H 0.54671 0.89616 0.28602 0.0
H162 H 0.70684 0.93917 0.34532 0.0
H163 H 0.63891 0.92172 0.35468 0.0
H164 H 0.66831 0.87009 0.27729 0.0
H165 H 0.61337 0.91644 0.27315 0.0
H166 H 0.67252 0.86865 0.25645 0.0
H167 H 0.61851 0.91418 0.25237 0.0
H168 H 0.69902 0.87235 0.29002 0.0
H169 H 0.69333 0.88581 0.32564 0.0
H170 H 0.72713 0.84276 0.29431 0.0
H171 H 0.72181 0.8563 0.32929 0.0
H172 H 0.7355 0.92481 0.27517 0.0
H173 H 0.67923 0.9531 0.25709 0.0
H174 H 0.62843 0.80795 0.28488 0.0
H175 H 0.66927 0.80257 0.31488 0.0
Li176 Li 0.33814 0.40372 0.56171 0.0
Li177 Li 0.33411 0.37338 0.54706 0.0
Li178 Li 0.36798 0.39877 0.54794 0.0
Li179 Li 0.3323 0.41293 0.54208 0.0
C180 C 0.35954 0.36637 0.56938 0.0
N181 N 0.36392 0.34573 0.59018 0.0
C182 C 0.3446 0.34938 0.57258 0.0
C183 C 0.37678 0.37277 0.57673 0.0
C184 C 0.34705 0.33921 0.58315 0.0
C185 C 0.37872 0.36212 0.5872 0.0
C186 C 0.29214 0.40651 0.54982 0.0
C187 C 0.25974 0.41182 0.53788 0.0
N188 N 0.25391 0.43021 0.54406 0.0
C189 C 0.28582 0.42542 0.55607 0.0
C190 C 0.279 0.39958 0.54067 0.0
C191 C 0.26643 0.43718 0.55302 0.0
C192 C 0.34102 0.42883 0.58209 0.0
N193 N 0.33174 0.41044 0.57709 0.0
C194 C 0.31619 0.39838 0.59469 0.0
C195 C 0.31884 0.39574 0.58304 0.0
C196 C 0.32672 0.41647 0.60012 0.0
C197 C 0.33877 0.43216 0.59371 0.0
H198 H 0.35067 0.4406 0.57713 0.0
H199 H 0.31129 0.38152 0.5788 0.0
C200 C 0.34293 0.32889 0.54274 0.0
N201 N 0.32559 0.34346 0.54419 0.0
C202 C 0.33879 0.30595 0.54167 0.0
C203 C 0.29891 0.31351 0.54318 0.0
C204 C 0.30385 0.33639 0.54433 0.0
C205 C 0.31662 0.29811 0.54204 0.0
H206 H 0.36002 0.33512 0.54277 0.0
H207 H 0.29046 0.34839 0.54565 0.0
C208 C 0.37135 0.44135 0.55398 0.0
N209 N 0.40855 0.46889 0.55607 0.0
C210 C 0.37456 0.45924 0.54648 0.0
C211 C 0.38701 0.43758 0.56258 0.0
C212 C 0.39348 0.47296 0.54768 0.0
C213 C 0.40573 0.45165 0.56348 0.0
C214 C 0.35655 0.39311 0.52391 0.0
C215 C 0.36517 0.41415 0.52094 0.0
C216 C 0.35385 0.37658 0.51563 0.0
C217 C 0.37103 0.41831 0.5097 0.0
C218 C 0.35994 0.38137 0.50448 0.0
N219 N 0.36832 0.40196 0.50178 0.0
C220 C 0.41116 0.38067 0.5507 0.0
C221 C 0.41117 0.41419 0.53985 0.0
C222 C 0.43456 0.37945 0.55011 0.0
N223 N 0.39998 0.39806 0.54578 0.0
C224 C 0.43459 0.41373 0.53914 0.0
C225 C 0.44644 0.39629 0.5444 0.0
H226 H 0.40192 0.36783 0.55519 0.0
H227 H 0.40206 0.42768 0.53586 0.0
C228 C 0.31653 0.45527 0.53533 0.0
N229 N 0.31818 0.43345 0.53203 0.0
C230 C 0.31058 0.4718 0.52753 0.0
C231 C 0.30638 0.44278 0.51334 0.0
C232 C 0.31214 0.42679 0.52146 0.0
C233 C 0.30645 0.46558 0.51631 0.0
H234 H 0.32113 0.45997 0.54386 0.0
H235 H 0.31311 0.40923 0.51915 0.0
O236 O 0.35742 0.37654 0.55906 0.0
O237 O 0.31145 0.39524 0.55245 0.0
O238 O 0.35307 0.42753 0.55287 0.0
O239 O 0.34987 0.38891 0.53476 0.0
H240 H 0.33108 0.34427 0.56705 0.0
H241 H 0.3886 0.38576 0.57437 0.0
H242 H 0.33553 0.32613 0.58577 0.0
H243 H 0.39197 0.36693 0.59298 0.0
H244 H 0.24948 0.40675 0.53078 0.0
H245 H 0.29593 0.43106 0.56313 0.0
H246 H 0.28384 0.38514 0.53567 0.0
H247 H 0.26137 0.45191 0.55774 0.0
H248 H 0.30678 0.38602 0.59946 0.0
H249 H 0.34702 0.44631 0.59771 0.0
H250 H 0.35274 0.29436 0.54084 0.0
H251 H 0.28165 0.30779 0.54356 0.0
H252 H 0.36276 0.46237 0.53972 0.0
H253 H 0.38485 0.42378 0.56842 0.0
H254 H 0.39623 0.48678 0.5419 0.0
H255 H 0.41805 0.4488 0.57005 0.0
H256 H 0.3667 0.42731 0.52718 0.0
H257 H 0.34698 0.36027 0.51779 0.0
H258 H 0.37755 0.43458 0.50727 0.0
H259 H 0.35792 0.36875 0.49798 0.0
H260 H 0.44334 0.36574 0.55422 0.0
H261 H 0.44339 0.42691 0.53463 0.0
H262 H 0.3108 0.48933 0.53001 0.0
H263 H 0.30325 0.43758 0.50472 0.0
Li264 Li 0.8438 0.09288 0.81335 0.0
Li265 Li 0.87355 0.09094 0.79878 0.0
Li266 Li 0.85019 0.12424 0.80116 0.0
Li267 Li 0.83375 0.08946 0.79317 0.0
C268 C 0.88234 0.12981 0.81581 0.0
N269 N 0.90348 0.16887 0.82271 0.0
C270 C 0.90409 0.1347 0.81209 0.0
C271 C 0.87144 0.14469 0.82314 0.0
C272 C 0.91447 0.15455 0.81565 0.0
C273 C 0.88238 0.16437 0.8265 0.0
C274 C 0.85717 0.04636 0.80441 0.0
C275 C 0.86364 0.00863 0.79767 0.0
N276 N 0.87098 0.00261 0.80812 0.0
C277 C 0.86459 0.03974 0.81512 0.0
C278 C 0.85649 0.03063 0.79564 0.0
C279 C 0.87158 0.01757 0.81681 0.0
C280 C 0.81874 0.07029 0.83081 0.0
N281 N 0.83622 0.08427 0.82839 0.0
C282 C 0.84409 0.0893 0.84799 0.0
C283 C 0.84911 0.09333 0.8367 0.0
C284 C 0.82574 0.07565 0.85075 0.0
C285 C 0.81311 0.06572 0.84207 0.0
H286 H 0.80898 0.06302 0.82403 0.0
H287 H 0.86325 0.10386 0.83456 0.0
C288 C 0.91549 0.09459 0.7881 0.0
N289 N 0.90359 0.08176 0.79551 0.0
C290 C 0.93859 0.09146 0.78687 0.0
C291 C 0.9367 0.06129 0.80054 0.0
C292 C 0.91364 0.06514 0.80158 0.0
C293 C 0.9494 0.07499 0.79334 0.0
H294 H 0.90735 0.10824 0.78368 0.0
H295 H 0.90413 0.0557 0.80769 0.0
C296 C 0.80249 0.10903 0.81155 0.0
N297 N 0.7657 0.10563 0.82571 0.0
C298 C 0.78461 0.09483 0.80875 0.0
C299 C 0.80156 0.12165 0.82151 0.0
C300 C 0.76618 0.09332 0.81603 0.0
C301 C 0.78285 0.11964 0.82857 0.0
C302 C 0.86346 0.10318 0.77602 0.0
C303 C 0.86433 0.11981 0.7677 0.0
C304 C 0.86783 0.08082 0.77316 0.0
C305 C 0.86955 0.11376 0.7566 0.0
C306 C 0.87298 0.07543 0.76197 0.0
N307 N 0.87373 0.09187 0.75399 0.0
C308 C 0.86772 0.16618 0.7944 0.0
C309 C 0.83339 0.1683 0.80456 0.0
C310 C 0.86877 0.1896 0.79368 0.0
N311 N 0.85031 0.1561 0.79986 0.0
C312 C 0.83381 0.19174 0.80408 0.0
C313 C 0.8517 0.20252 0.79862 0.0
H314 H 0.8809 0.156 0.79073 0.0
H315 H 0.81969 0.15984 0.80876 0.0
C316 C 0.80328 0.05776 0.78346 0.0
N317 N 0.81296 0.0784 0.78247 0.0
C318 C 0.78642 0.05119 0.77591 0.0
C319 C 0.79054 0.08693 0.76634 0.0
C320 C 0.80707 0.09288 0.7741 0.0
C321 C 0.77986 0.06603 0.76731 0.0
H322 H 0.80809 0.04679 0.79033 0.0
H323 H 0.8148 0.10931 0.77366 0.0
O324 O 0.87172 0.11062 0.81227 0.0
O325 O 0.84983 0.06787 0.80263 0.0
O326 O 0.82076 0.11062 0.80456 0.0
O327 O 0.85837 0.10889 0.78692 0.0
H328 H 0.9129 0.12334 0.80652 0.0
H329 H 0.85459 0.14123 0.82608 0.0
H330 H 0.93127 0.15857 0.8128 0.0
H331 H 0.87405 0.17611 0.83209 0.0
H332 H 0.86327 0.99631 0.79095 0.0
H333 H 0.86524 0.05165 0.82201 0.0
H334 H 0.85039 0.0353 0.78736 0.0
H335 H 0.87751 0.01226 0.82503 0.0
H336 H 0.85429 0.09694 0.85453 0.0
H337 H 0.79898 0.0549 0.84399 0.0
H338 H 0.94811 0.1025 0.78139 0.0
H339 H 0.94475 0.0487 0.80577 0.0
H340 H 0.78494 0.08505 0.80106 0.0
H341 H 0.81526 0.13263 0.82386 0.0
H342 H 0.75227 0.08235 0.81398 0.0
H343 H 0.782 0.12918 0.83634 0.0
H344 H 0.861 0.13722 0.76981 0.0
H345 H 0.8674 0.06783 0.77953 0.0
H346 H 0.87028 0.12645 0.75006 0.0
H347 H 0.87643 0.05819 0.75963 0.0
H348 H 0.88278 0.19757 0.78942 0.0
H349 H 0.8204 0.20137 0.80794 0.0
H350 H 0.7782 0.03507 0.77692 0.0
H351 H 0.7856 0.0988 0.75985 0.0
Li352 Li 0.16042 0.40997 0.95599 0.0
Li353 Li 0.12481 0.39309 0.95004 0.0
Li354 Li 0.16067 0.3702 0.95188 0.0
Li355 Li 0.15592 0.39811 0.93699 0.0
C356 C 0.14605 0.39006 0.97475 0.0
N357 N 0.1531 0.40054 0.99719 0.0
C358 C 0.12958 0.40161 0.98084 0.0
C359 C 0.16605 0.38373 0.98006 0.0
C360 C 0.13349 0.40679 0.99219 0.0
C361 C 0.16931 0.38923 0.99142 0.0
C362 C 0.13957 0.43883 0.93745 0.0
C363 C 0.12653 0.45701 0.92046 0.0
N364 N 0.14314 0.47259 0.92152 0.0
C365 C 0.15647 0.45505 0.93839 0.0
C366 C 0.12439 0.43985 0.92845 0.0
C367 C 0.15799 0.47199 0.93025 0.0
C368 C 0.19287 0.43232 0.96997 0.0
N369 N 0.1713 0.43205 0.96615 0.0
C370 C 0.16144 0.46263 0.9782 0.0
C371 C 0.15573 0.44691 0.96997 0.0
C372 C 0.18339 0.46306 0.98245 0.0
C373 C 0.19938 0.44794 0.97819 0.0
H374 H 0.20481 0.42011 0.96682 0.0
H375 H 0.13869 0.44613 0.9668 0.0
C376 C 0.08326 0.37312 0.95543 0.0
N377 N 0.09331 0.39251 0.95204 0.0
C378 C 0.05986 0.37188 0.95616 0.0
C379 C 0.05776 0.41066 0.95001 0.0
C380 C 0.08118 0.4112 0.94948 0.0
C381 C 0.04697 0.39077 0.95329 0.0
H382 H 0.09342 0.35852 0.95734 0.0
H383 H 0.08969 0.42635 0.9468 0.0
C384 C 0.19942 0.3829 0.94081 0.0
N385 N 0.23281 0.36156 0.92862 0.0
C386 C 0.19394 0.36575 0.9332 0.0
C387 C 0.22187 0.38922 0.94218 0.0
C388 C 0.21107 0.35516 0.92713 0.0
C389 C 0.23851 0.37822 0.93595 0.0
C390 C 0.12393 0.3597 0.93227 0.0
C391 C 0.12865 0.33764 0.92895 0.0
C392 C 0.10472 0.37042 0.92809 0.0
C393 C 0.11393 0.32658 0.92162 0.0
C394 C 0.0904 0.35878 0.92079 0.0
N395 N 0.09526 0.33727 0.91774 0.0
C396 C 0.15609 0.32416 0.95526 0.0
C397 C 0.19309 0.33744 0.95869 0.0
C398 C 0.16283 0.30205 0.95723 0.0
N399 N 0.17129 0.34119 0.95577 0.0
C400 C 0.20052 0.31556 0.96085 0.0
C401 C 0.18533 0.29762 0.95991 0.0
H402 H 0.13878 0.32776 0.95315 0.0
H403 H 0.20473 0.35136 0.95921 0.0
C404 C 0.18048 0.41943 0.91931 0.0
N405 N 0.16334 0.4049 0.92154 0.0
C406 C 0.18564 0.42529 0.90815 0.0
C407 C 0.15583 0.40072 0.90183 0.0
C408 C 0.15122 0.39544 0.91304 0.0
C409 C 0.17306 0.41589 0.89933 0.0
H410 H 0.18999 0.42662 0.92621 0.0
H411 H 0.13788 0.38388 0.91487 0.0
O412 O 0.14274 0.38523 0.96359 0.0
O413 O 0.13814 0.42181 0.94519 0.0
O414 O 0.18305 0.39363 0.94689 0.0
O415 O 0.13799 0.37063 0.93962 0.0
H416 H 0.11404 0.40666 0.97682 0.0
H417 H 0.17899 0.37489 0.97542 0.0
H418 H 0.12096 0.41582 0.99701 0.0
H419 H 0.18476 0.38457 0.99563 0.0
H420 H 0.11503 0.45791 0.91339 0.0
H421 H 0.16846 0.45442 0.94526 0.0
H422 H 0.11128 0.42737 0.92756 0.0
H423 H 0.17105 0.48459 0.93084 0.0
H424 H 0.14879 0.47412 0.98136 0.0
H425 H 0.21645 0.44794 0.98137 0.0
H426 H 0.05188 0.35631 0.95869 0.0
H427 H 0.04815 0.42546 0.94776 0.0
H428 H 0.17672 0.36059 0.93198 0.0
H429 H 0.22639 0.40249 0.94802 0.0
H430 H 0.20706 0.34185 0.92123 0.0
H431 H 0.25596 0.38293 0.93695 0.0
H432 H 0.14361 0.32918 0.93194 0.0
H433 H 0.10109 0.38766 0.93029 0.0
H434 H 0.11737 0.3095 0.919 0.0
H435 H 0.07549 0.36688 0.91751 0.0
H436 H 0.15071 0.28852 0.95658 0.0
H437 H 0.21795 0.31259 0.96303 0.0
H438 H 0.19915 0.437 0.90642 0.0
H439 H 0.14594 0.39312 0.89516 0.0
Li440 Li 0.83357 0.91734 0.20653 0.0
Li441 Li 0.84877 0.88014 0.19958 0.0
Li442 Li 0.87237 0.91333 0.20099 0.0
Li443 Li 0.84471 0.91158 0.18583 0.0
C444 C 0.87206 0.89784 0.22176 0.0
N445 N 0.90513 0.89961 0.23811 0.0
C446 C 0.88472 0.87869 0.22426 0.0
C447 C 0.87602 0.91782 0.22765 0.0
C448 C 0.90141 0.87994 0.23254 0.0
C449 C 0.89288 0.9184 0.23586 0.0
C450 C 0.80146 0.88541 0.19267 0.0
C451 C 0.77733 0.86458 0.18007 0.0
N452 N 0.76162 0.8631 0.18839 0.0
C453 C 0.78499 0.88385 0.20106 0.0
C454 C 0.79754 0.87587 0.18206 0.0
C455 C 0.76499 0.87244 0.19874 0.0
C456 C 0.79654 0.94482 0.213 0.0
N457 N 0.812 0.92942 0.21644 0.0
C458 C 0.79383 0.92541 0.23428 0.0
C459 C 0.81122 0.92003 0.2269 0.0
C460 C 0.77721 0.94058 0.23082 0.0
C461 C 0.77882 0.9508 0.22017 0.0
H462 H 0.7975 0.95173 0.20456 0.0
H463 H 0.82357 0.90759 0.22931 0.0
C464 C 0.86701 0.83667 0.19992 0.0
N465 N 0.84754 0.84833 0.20133 0.0
C466 C 0.86716 0.81327 0.20082 0.0
C467 C 0.82734 0.81432 0.20491 0.0
C468 C 0.82797 0.83772 0.20396 0.0
C469 C 0.8471 0.80195 0.20324 0.0
H470 H 0.88242 0.84557 0.19804 0.0
H471 H 0.81286 0.84733 0.20531 0.0
C472 C 0.85881 0.95852 0.1972 0.0
N473 N 0.8749 0.0019 0.19905 0.0
C474 C 0.86967 0.96862 0.18805 0.0
C475 C 0.85589 0.97051 0.20725 0.0
C476 C 0.87776 0.99057 0.18917 0.0
C477 C 0.86422 0.99242 0.20803 0.0
C478 C 0.87756 0.87803 0.17988 0.0
C479 C 0.89964 0.87924 0.17589 0.0
C480 C 0.86248 0.86295 0.17494 0.0
C481 C 0.90624 0.86536 0.16696 0.0
C482 C 0.86973 0.84932 0.16604 0.0
N483 N 0.89127 0.85081 0.16227 0.0
C484 C 0.91654 0.90216 0.20377 0.0
C485 C 0.91183 0.94161 0.2054 0.0
C486 C 0.93975 0.90432 0.20474 0.0
N487 N 0.90311 0.92064 0.20393 0.0
C488 C 0.93509 0.94461 0.20621 0.0
C489 C 0.94923 0.92578 0.20572 0.0
H490 H 0.90918 0.88569 0.20259 0.0
H491 H 0.90099 0.95608 0.2057 0.0
C492 C 0.81649 0.92474 0.16762 0.0
N493 N 0.83775 0.91874 0.17058 0.0
C494 C 0.81098 0.92805 0.15625 0.0
C495 C 0.84944 0.9193 0.1513 0.0
C496 C 0.8543 0.91676 0.16274 0.0
C497 C 0.82747 0.92457 0.14794 0.0
H498 H 0.80371 0.92646 0.17407 0.0
H499 H 0.87123 0.91278 0.16532 0.0
O500 O 0.856 0.8971 0.21351 0.0
O501 O 0.82105 0.8967 0.19477 0.0
O502 O 0.85045 0.93724 0.19621 0.0
O503 O 0.87088 0.89157 0.1886 0.0
H504 H 0.88182 0.86309 0.21979 0.0
H505 H 0.86631 0.93277 0.22581 0.0
H506 H 0.91144 0.86529 0.23453 0.0
H507 H 0.89625 0.93379 0.24043 0.0
H508 H 0.7741 0.85708 0.17191 0.0
H509 H 0.78769 0.89122 0.20931 0.0
H510 H 0.80986 0.87729 0.17538 0.0
H511 H 0.75215 0.87101 0.20518 0.0
H512 H 0.79285 0.91719 0.24243 0.0
H513 H 0.76604 0.96243 0.21729 0.0
H514 H 0.88267 0.80408 0.19953 0.0
H515 H 0.81165 0.80595 0.20686 0.0
H516 H 0.87186 0.95957 0.18019 0.0
H517 H 0.8473 0.96298 0.21437 0.0
H518 H 0.88629 0.9986 0.18218 0.0
H519 H 0.86218 0.0019 0.21577 0.0
H520 H 0.91151 0.8909 0.17959 0.0
H521 H 0.84545 0.86161 0.17801 0.0
H522 H 0.92325 0.86617 0.16377 0.0
H523 H 0.85825 0.83753 0.16216 0.0
H524 H 0.95028 0.88948 0.20432 0.0
H525 H 0.94199 0.96139 0.20696 0.0
H526 H 0.79394 0.93244 0.15391 0.0
H527 H 0.86262 0.91684 0.14511 0.0
Li528 Li 0.36942 0.59648 0.45012 0.0
Li529 Li 0.33266 0.58522 0.45548 0.0
Li530 Li 0.33849 0.59337 0.43613 0.0
Li531 Li 0.33764 0.62379 0.45088 0.0
C532 C 0.36653 0.55608 0.43831 0.0
N533 N 0.39402 0.53017 0.42471 0.0
C534 C 0.36831 0.53293 0.44015 0.0
C535 C 0.37875 0.56604 0.42955 0.0
C536 C 0.38231 0.52013 0.43319 0.0
C537 C 0.39252 0.55266 0.42276 0.0
C538 C 0.36171 0.59887 0.47299 0.0
C539 C 0.3748 0.60386 0.49211 0.0
N540 N 0.38158 0.58202 0.49232 0.0
C541 C 0.36881 0.57646 0.47339 0.0
C542 C 0.36473 0.6127 0.48241 0.0
C543 C 0.37883 0.56827 0.48324 0.0
C544 C 0.41193 0.61431 0.45475 0.0
N545 N 0.40088 0.59465 0.45308 0.0
C546 C 0.43428 0.57393 0.45719 0.0
C547 C 0.41169 0.57466 0.45403 0.0
C548 C 0.44592 0.59386 0.46015 0.0
C549 C 0.43451 0.61431 0.45796 0.0
H550 H 0.40311 0.63006 0.45362 0.0
H551 H 0.40277 0.55916 0.45247 0.0
C552 C 0.31509 0.54365 0.46227 0.0
N553 N 0.31774 0.56539 0.46556 0.0
C554 C 0.30907 0.52733 0.47017 0.0
C555 C 0.3074 0.55637 0.48449 0.0
C556 C 0.31311 0.57218 0.47628 0.0
C557 C 0.30619 0.53361 0.48149 0.0
H558 H 0.31899 0.53882 0.45369 0.0
H559 H 0.31536 0.58962 0.47862 0.0
C560 C 0.3694 0.63357 0.43151 0.0
N561 N 0.38848 0.66455 0.41697 0.0
C562 C 0.35708 0.65228 0.42793 0.0
C563 C 0.39148 0.63069 0.42772 0.0
C564 C 0.36701 0.66774 0.42057 0.0
C565 C 0.4008 0.64651 0.42036 0.0
C566 C 0.29297 0.59617 0.44929 0.0
C567 C 0.28316 0.57735 0.44422 0.0
C568 C 0.28252 0.60636 0.45853 0.0
C569 C 0.26303 0.56891 0.44857 0.0
C570 C 0.26239 0.59741 0.46263 0.0
N571 N 0.25316 0.57902 0.45761 0.0
C572 C 0.32893 0.56543 0.41717 0.0
C573 C 0.33033 0.60462 0.41348 0.0
C574 C 0.32632 0.56084 0.40566 0.0
N575 N 0.33156 0.58702 0.42077 0.0
C576 C 0.32774 0.60082 0.40194 0.0
C577 C 0.32625 0.57872 0.39794 0.0
H578 H 0.32952 0.55176 0.42318 0.0
H579 H 0.33182 0.62158 0.41659 0.0
C580 C 0.34798 0.66729 0.45759 0.0
N581 N 0.33115 0.65431 0.4534 0.0
C582 C 0.34528 0.69053 0.45831 0.0
C583 C 0.30774 0.68644 0.45067 0.0
C584 C 0.31116 0.66324 0.4501 0.0
C585 C 0.32511 0.70026 0.45465 0.0
H586 H 0.36377 0.65962 0.45999 0.0
H587 H 0.29826 0.65244 0.44663 0.0
O588 O 0.35288 0.56872 0.44511 0.0
O589 O 0.35194 0.60742 0.46344 0.0
O590 O 0.36012 0.61842 0.43888 0.0
O591 O 0.31297 0.60429 0.44535 0.0
H592 H 0.35901 0.52497 0.44692 0.0
H593 H 0.37746 0.58383 0.42793 0.0
H594 H 0.38386 0.5022 0.43454 0.0
H595 H 0.40199 0.56015 0.41593 0.0
H596 H 0.37723 0.61437 0.49947 0.0
H597 H 0.36659 0.56547 0.46621 0.0
H598 H 0.35936 0.63009 0.48222 0.0
H599 H 0.38442 0.55098 0.48366 0.0
H600 H 0.44216 0.55764 0.45701 0.0
H601 H 0.44271 0.63046 0.45848 0.0
H602 H 0.3084 0.50982 0.46768 0.0
H603 H 0.30539 0.5616 0.4932 0.0
H604 H 0.33994 0.65474 0.43069 0.0
H605 H 0.40137 0.61642 0.43044 0.0
H606 H 0.35763 0.68225 0.41772 0.0
H607 H 0.41785 0.64447 0.41736 0.0
H608 H 0.29115 0.56924 0.43708 0.0
H609 H 0.29002 0.62086 0.46258 0.0
H610 H 0.25528 0.55428 0.44478 0.0
H611 H 0.25416 0.60503 0.46982 0.0
H612 H 0.32508 0.5436 0.40277 0.0
H613 H 0.32757 0.61493 0.39615 0.0
H614 H 0.35901 0.70089 0.46133 0.0
H615 H 0.2921 0.69362 0.44769 0.0
Li616 Li 0.66171 0.08574 0.70529 0.0
Li617 Li 0.64892 0.12155 0.69889 0.0
Li618 Li 0.62324 0.08691 0.70013 0.0
Li619 Li 0.6547 0.08941 0.68576 0.0
C620 C 0.64132 0.10637 0.72335 0.0
N621 N 0.64818 0.11044 0.74633 0.0
C622 C 0.65856 0.12009 0.72745 0.0
C623 C 0.62749 0.09481 0.73092 0.0
C624 C 0.66173 0.12196 0.7391 0.0
C625 C 0.6313 0.09701 0.74252 0.0
C626 C 0.6891 0.12051 0.68763 0.0
C627 C 0.68978 0.14551 0.67155 0.0
N628 N 0.71201 0.14937 0.67335 0.0
C629 C 0.71197 0.12478 0.68931 0.0
C630 C 0.67792 0.13105 0.67868 0.0
C631 C 0.72325 0.1394 0.68202 0.0
C632 C 0.70368 0.07818 0.71517 0.0
N633 N 0.68153 0.07319 0.71636 0.0
C634 C 0.68854 0.05566 0.73421 0.0
C635 C 0.67383 0.0616 0.7255 0.0
C636 C 0.71119 0.06202 0.73348 0.0
C637 C 0.7189 0.07277 0.72369 0.0
H638 H 0.70938 0.08715 0.70779 0.0
H639 H 0.65614 0.05778 0.72625 0.0
C640 C 0.63043 0.1653 0.69899 0.0
N641 N 0.64961 0.15331 0.70063 0.0
C642 C 0.63078 0.18874 0.69972 0.0
C643 C 0.67041 0.18695 0.70421 0.0
C644 C 0.6693 0.16356 0.70339 0.0
C645 C 0.65102 0.19971 0.70224 0.0
H646 H 0.61495 0.15665 0.69698 0.0
H647 H 0.68421 0.1536 0.70486 0.0
C648 C 0.65498 0.04444 0.69929 0.0
N649 N 0.67524 0.00603 0.70757 0.0
C650 C 0.67635 0.03823 0.69552 0.0
C651 C 0.64383 0.03105 0.70721 0.0
C652 C 0.68634 0.01878 0.69983 0.0
C653 C 0.65437 0.0117 0.7113 0.0
C654 C 0.61238 0.11392 0.67933 0.0
C655 C 0.59626 0.09789 0.67631 0.0
C656 C 0.61244 0.13487 0.67397 0.0
C657 C 0.58048 0.1031 0.66797 0.0
C658 C 0.59643 0.1394 0.66564 0.0
N659 N 0.5809 0.12357 0.66285 0.0
C660 C 0.57942 0.0953 0.7067 0.0
C661 C 0.58517 0.05777 0.70048 0.0
C662 C 0.55648 0.09136 0.70799 0.0
N663 N 0.59312 0.07869 0.70287 0.0
C664 C 0.56228 0.05306 0.70169 0.0
C665 C 0.54773 0.07016 0.70529 0.0
H666 H 0.5863 0.11178 0.70844 0.0
H667 H 0.59645 0.04503 0.69727 0.0
C668 C 0.68617 0.07853 0.6688 0.0
N669 N 0.6639 0.08236 0.67064 0.0
C670 C 0.69434 0.07611 0.6578 0.0
C671 C 0.65646 0.08074 0.6508 0.0
C672 C 0.649 0.08293 0.66192 0.0
C673 C 0.67941 0.07775 0.64869 0.0
H674 H 0.6977 0.07814 0.67585 0.0
H675 H 0.63142 0.08566 0.66352 0.0
O676 O 0.6376 0.10471 0.712 0.0
O677 O 0.67783 0.10634 0.69481 0.0
O678 O 0.64511 0.06363 0.69531 0.0
O679 O 0.62771 0.1093 0.68765 0.0
H680 H 0.6694 0.12911 0.72168 0.0
H681 H 0.61401 0.0842 0.72786 0.0
H682 H 0.67503 0.13248 0.7424 0.0
H683 H 0.6208 0.08809 0.74848 0.0
H684 H 0.6813 0.15365 0.66458 0.0
H685 H 0.72096 0.117 0.69622 0.0
H686 H 0.66033 0.128 0.67718 0.0
H687 H 0.74093 0.14285 0.68325 0.0
H688 H 0.68214 0.04731 0.74168 0.0
H689 H 0.73633 0.0778 0.72289 0.0
H690 H 0.61554 0.19824 0.6982 0.0
H691 H 0.68623 0.19503 0.70623 0.0
H692 H 0.68522 0.04846 0.68942 0.0
H693 H 0.62738 0.03573 0.71031 0.0
H694 H 0.70293 0.01384 0.69704 0.0
H695 H 0.64602 0.00125 0.71749 0.0
H696 H 0.59616 0.08147 0.6802 0.0
H697 H 0.62473 0.14753 0.67618 0.0
H698 H 0.56796 0.09082 0.66553 0.0
H699 H 0.59632 0.15553 0.66142 0.0
H700 H 0.54555 0.10487 0.71074 0.0
H701 H 0.55588 0.03659 0.69948 0.0
H702 H 0.71218 0.07375 0.65639 0.0
H703 H 0.64455 0.08191 0.6439 0.0
Li704 Li 0.84048 0.39806 0.93717 0.0
Li705 Li 0.83721 0.40772 0.95655 0.0
Li706 Li 0.8717 0.39145 0.94961 0.0
Li707 Li 0.83688 0.36777 0.95211 0.0
C708 C 0.85884 0.43746 0.9377 0.0
N709 N 0.8589 0.47094 0.92149 0.0
C710 C 0.84366 0.45535 0.93844 0.0
C711 C 0.87408 0.43665 0.92871 0.0
C712 C 0.84397 0.47211 0.93017 0.0
C713 C 0.87383 0.45371 0.9206 0.0
C714 C 0.79437 0.39798 0.95135 0.0
C715 C 0.76017 0.39078 0.96167 0.0
N716 N 0.75321 0.41213 0.95947 0.0
C717 C 0.78683 0.4198 0.94914 0.0
C718 C 0.78093 0.3833 0.95763 0.0
C719 C 0.766 0.42666 0.95336 0.0
C720 C 0.84312 0.39245 0.91373 0.0
N721 N 0.83283 0.40491 0.92185 0.0
C722 C 0.81464 0.42739 0.90778 0.0
C723 C 0.81844 0.42186 0.91911 0.0
C724 C 0.82564 0.41513 0.89931 0.0
C725 C 0.83978 0.39733 0.90234 0.0
H726 H 0.85414 0.37884 0.91608 0.0
H727 H 0.81027 0.4314 0.92569 0.0
C728 C 0.84074 0.44777 0.96846 0.0
N729 N 0.82737 0.42932 0.96754 0.0
C730 C 0.8365 0.46393 0.9767 0.0
C731 C 0.8049 0.44179 0.98311 0.0
C732 C 0.80981 0.42595 0.97474 0.0
C733 C 0.81847 0.46094 0.98413 0.0
H734 H 0.85512 0.44966 0.96296 0.0
H735 H 0.80006 0.41068 0.97425 0.0
C736 C 0.87604 0.35697 0.93569 0.0
N737 N 0.91345 0.33196 0.92987 0.0
C738 C 0.87849 0.33499 0.93969 0.0
C739 C 0.89253 0.36615 0.92865 0.0
C740 C 0.89754 0.32263 0.93667 0.0
C741 C 0.91135 0.35326 0.92583 0.0
C742 C 0.85551 0.38809 0.97466 0.0
C743 C 0.8725 0.40174 0.97907 0.0
C744 C 0.8386 0.37996 0.98177 0.0
C745 C 0.87229 0.40703 0.99057 0.0
C746 C 0.83899 0.38564 0.99322 0.0
N747 N 0.8557 0.39891 0.99735 0.0
C748 C 0.91547 0.40974 0.94859 0.0
C749 C 0.91375 0.37209 0.95516 0.0
C750 C 0.93887 0.40959 0.9493 0.0
N751 N 0.90349 0.39104 0.9513 0.0
C752 C 0.93715 0.37112 0.95591 0.0
C753 C 0.94986 0.39001 0.95287 0.0
H754 H 0.90686 0.42475 0.94582 0.0
H755 H 0.90375 0.35763 0.9575 0.0
C756 C 0.81083 0.32887 0.94874 0.0
N757 N 0.82598 0.33876 0.95568 0.0
C758 C 0.80316 0.30712 0.95096 0.0
C759 C 0.82736 0.30594 0.96725 0.0
C760 C 0.8346 0.32768 0.9647 0.0
C761 C 0.81038 0.29538 0.96074 0.0
H762 H 0.80509 0.33773 0.94129 0.0
H763 H 0.84759 0.3355 0.96973 0.0
O764 O 0.85864 0.42073 0.94565 0.0
O765 O 0.81463 0.39085 0.94724 0.0
O766 O 0.85766 0.36947 0.93871 0.0
O767 O 0.85545 0.38271 0.96344 0.0
H768 H 0.83157 0.45619 0.94524 0.0
H769 H 0.88583 0.42288 0.92794 0.0
H770 H 0.83225 0.48599 0.93062 0.0
H771 H 0.88545 0.45321 0.91358 0.0
H772 H 0.74961 0.37963 0.96657 0.0
H773 H 0.79709 0.43142 0.94439 0.0
H774 H 0.78651 0.36636 0.95942 0.0
H775 H 0.76002 0.44355 0.95178 0.0
H776 H 0.80352 0.44117 0.90564 0.0
H777 H 0.84835 0.3875 0.89595 0.0
H778 H 0.84748 0.4784 0.97744 0.0
H779 H 0.79114 0.43887 0.98892 0.0
H780 H 0.8659 0.32756 0.94512 0.0
H781 H 0.89098 0.38314 0.9255 0.0
H782 H 0.89969 0.30564 0.93974 0.0
H783 H 0.9243 0.36022 0.92046 0.0
H784 H 0.88566 0.40821 0.97365 0.0
H785 H 0.82522 0.36955 0.97845 0.0
H786 H 0.8853 0.41761 0.99411 0.0
H787 H 0.82597 0.37954 0.99881 0.0
H788 H 0.94833 0.42445 0.94697 0.0
H789 H 0.94527 0.35583 0.95875 0.0
H790 H 0.79244 0.29975 0.94465 0.0
H791 H 0.83598 0.29749 0.97405 0.0
Li792 Li 0.35285 0.12414 0.69953 0.0
Li793 Li 0.37607 0.0904 0.70163 0.0
Li794 Li 0.34633 0.09132 0.68684 0.0
Li795 Li 0.33733 0.08726 0.70686 0.0
C796 C 0.37973 0.12518 0.67991 0.0
N797 N 0.39187 0.15455 0.66286 0.0
C798 C 0.4024 0.12995 0.67791 0.0
C799 C 0.36329 0.13514 0.67313 0.0
C800 C 0.40818 0.14491 0.66929 0.0
C801 C 0.36973 0.14998 0.66458 0.0
C802 C 0.37637 0.10884 0.72181 0.0
C803 C 0.39736 0.09188 0.73701 0.0
N804 N 0.40988 0.11094 0.73793 0.0
C805 C 0.38927 0.12834 0.72298 0.0
C806 C 0.38028 0.09053 0.72894 0.0
C807 C 0.40619 0.12904 0.73115 0.0
C808 C 0.33313 0.16597 0.7049 0.0
N809 N 0.35207 0.15602 0.70085 0.0
C810 C 0.36972 0.19179 0.69839 0.0
C811 C 0.37036 0.16837 0.69783 0.0
C812 C 0.35023 0.20244 0.7023 0.0
C813 C 0.33183 0.18937 0.70571 0.0
H814 H 0.31896 0.1557 0.70739 0.0
H815 H 0.38548 0.16006 0.695 0.0
C816 C 0.41262 0.0601 0.70569 0.0
N817 N 0.40619 0.08193 0.7045 0.0
C818 C 0.43542 0.05471 0.7067 0.0
C819 C 0.44426 0.09437 0.70544 0.0
C820 C 0.4214 0.09897 0.7045 0.0
C821 C 0.4514 0.07203 0.70639 0.0
H822 H 0.40016 0.04689 0.70553 0.0
H823 H 0.41576 0.11612 0.70346 0.0
C824 C 0.3045 0.11448 0.69051 0.0
N825 N 0.26462 0.12622 0.68005 0.0
C826 C 0.2858 0.10032 0.6912 0.0
C827 C 0.30272 0.13486 0.68468 0.0
C828 C 0.26584 0.10647 0.6858 0.0
C829 C 0.28248 0.14043 0.6794 0.0
C830 C 0.34686 0.04545 0.69974 0.0
C831 C 0.33337 0.03378 0.69205 0.0
C832 C 0.35208 0.03567 0.71015 0.0
C833 C 0.32505 0.0126 0.69499 0.0
C834 C 0.34339 0.01449 0.71278 0.0
N835 N 0.33015 0.00349 0.70521 0.0
C836 C 0.35631 0.08385 0.66408 0.0
C837 C 0.318 0.07725 0.66845 0.0
C838 C 0.3521 0.08073 0.65261 0.0
N839 N 0.33919 0.08303 0.67167 0.0
C840 C 0.31311 0.07349 0.65705 0.0
C841 C 0.33018 0.07605 0.64899 0.0
H842 H 0.37318 0.08755 0.66688 0.0
H843 H 0.30486 0.07575 0.67468 0.0
C844 C 0.31603 0.08564 0.72774 0.0
N845 N 0.31612 0.07569 0.71741 0.0
C846 C 0.29924 0.08052 0.73554 0.0
C847 C 0.28335 0.05435 0.72209 0.0
C848 C 0.30044 0.06003 0.71452 0.0
C849 C 0.28244 0.06511 0.73261 0.0
H850 H 0.32847 0.09826 0.72977 0.0
H851 H 0.30058 0.05265 0.70619 0.0
O852 O 0.37376 0.11073 0.6884 0.0
O853 O 0.36003 0.10766 0.7137 0.0
O854 O 0.32412 0.10881 0.69587 0.0
O855 O 0.35514 0.0662 0.69701 0.0
H856 H 0.41541 0.12222 0.68297 0.0
H857 H 0.34578 0.13115 0.67434 0.0
H858 H 0.42565 0.14883 0.66769 0.0
H859 H 0.35714 0.15778 0.65928 0.0
H860 H 0.40067 0.07778 0.74254 0.0
H861 H 0.38641 0.14269 0.71755 0.0
H862 H 0.37026 0.07542 0.72823 0.0
H863 H 0.41643 0.14396 0.7321 0.0
H864 H 0.38424 0.20151 0.69582 0.0
H865 H 0.31662 0.19722 0.70883 0.0
H866 H 0.44058 0.0373 0.70735 0.0
H867 H 0.4563 0.10802 0.70513 0.0
H868 H 0.28673 0.08459 0.69572 0.0
H869 H 0.3167 0.14643 0.68431 0.0
H870 H 0.25133 0.09554 0.68619 0.0
H871 H 0.28094 0.15611 0.67483 0.0
H872 H 0.32933 0.04101 0.68392 0.0
H873 H 0.36262 0.04441 0.71616 0.0
H874 H 0.31451 0.00341 0.68914 0.0
H875 H 0.34717 0.00679 0.72084 0.0
H876 H 0.36572 0.08242 0.64659 0.0
H877 H 0.29609 0.06944 0.65451 0.0
H878 H 0.29882 0.08916 0.7436 0.0
H879 H 0.27045 0.04249 0.7196 0.0
Li880 Li 0.61839 0.60219 0.45137 0.0
Li881 Li 0.65261 0.62695 0.45273 0.0
Li882 Li 0.65056 0.59842 0.43776 0.0
Li883 Li 0.65555 0.58776 0.45693 0.0
C884 C 0.62867 0.63486 0.43008 0.0
N885 N 0.62631 0.65479 0.40902 0.0
C886 C 0.64223 0.65338 0.42753 0.0
C887 C 0.61407 0.62635 0.42187 0.0
C888 C 0.64075 0.66324 0.41684 0.0
C889 C 0.6131 0.63667 0.41128 0.0
C890 C 0.63945 0.62163 0.47454 0.0
C891 C 0.66286 0.63406 0.48995 0.0
N892 N 0.64525 0.64591 0.49422 0.0
C893 C 0.62153 0.63379 0.47911 0.0
C894 C 0.66025 0.62164 0.48002 0.0
C895 C 0.62482 0.64602 0.48905 0.0
C896 C 0.58036 0.59221 0.46422 0.0
N897 N 0.58702 0.60032 0.45401 0.0
C898 C 0.54884 0.60553 0.44831 0.0
C899 C 0.57186 0.60704 0.4461 0.0
C900 C 0.54156 0.59722 0.45876 0.0
C901 C 0.55753 0.59058 0.46681 0.0
H902 H 0.59284 0.5871 0.47035 0.0
H903 H 0.5776 0.61367 0.43813 0.0
C904 C 0.68223 0.66437 0.45389 0.0
N905 N 0.66107 0.65687 0.45608 0.0
C906 C 0.68712 0.68732 0.45462 0.0
C907 C 0.64862 0.69406 0.46031 0.0
C908 C 0.64443 0.67109 0.45935 0.0
C909 C 0.67002 0.70238 0.45766 0.0
H910 H 0.69496 0.65271 0.45103 0.0
H911 H 0.62763 0.6647 0.46068 0.0
C912 C 0.63625 0.55235 0.44722 0.0
N913 N 0.64163 0.50671 0.45047 0.0
C914 C 0.65292 0.54068 0.44133 0.0
C915 C 0.62231 0.54086 0.45476 0.0
C916 C 0.65539 0.51759 0.4431 0.0
C917 C 0.62532 0.51777 0.4563 0.0
C918 C 0.69758 0.59834 0.44879 0.0
C919 C 0.70657 0.58323 0.44095 0.0
C920 C 0.71078 0.60575 0.45782 0.0
C921 C 0.72855 0.57547 0.4424 0.0
C922 C 0.73266 0.59755 0.45899 0.0
N923 N 0.74101 0.5827 0.45132 0.0
C924 C 0.67405 0.60416 0.41725 0.0
C925 C 0.64325 0.57881 0.41648 0.0
C926 C 0.6777 0.60174 0.40567 0.0
N927 N 0.65696 0.59287 0.42235 0.0
C928 C 0.6461 0.57613 0.40486 0.0
C929 C 0.66329 0.58793 0.39934 0.0
H930 H 0.68447 0.61543 0.42215 0.0
H931 H 0.62966 0.57028 0.42077 0.0
C932 C 0.65515 0.56305 0.47674 0.0
N933 N 0.6674 0.56567 0.46713 0.0
C934 C 0.6605 0.54617 0.48443 0.0
C935 C 0.69119 0.5349 0.47231 0.0
C936 C 0.68513 0.55196 0.46478 0.0
C937 C 0.67853 0.53176 0.48217 0.0
H938 H 0.6407 0.57362 0.47826 0.0
H939 H 0.69405 0.55359 0.45691 0.0
O940 O 0.62971 0.6251 0.44055 0.0
O941 O 0.63658 0.60969 0.46477 0.0
O942 O 0.63357 0.57494 0.4456 0.0
O943 O 0.67627 0.60648 0.44739 0.0
H944 H 0.65376 0.66013 0.4337 0.0
H945 H 0.60385 0.6117 0.42358 0.0
H946 H 0.65109 0.67763 0.41477 0.0
H947 H 0.60194 0.6302 0.40484 0.0
H948 H 0.67888 0.63425 0.49427 0.0
H949 H 0.6053 0.63389 0.47497 0.0
H950 H 0.67417 0.61207 0.47666 0.0
H951 H 0.61114 0.6556 0.49266 0.0
H952 H 0.53684 0.61091 0.44198 0.0
H953 H 0.55235 0.58421 0.47498 0.0
H954 H 0.7037 0.69337 0.45238 0.0
H955 H 0.63505 0.70536 0.46253 0.0
H956 H 0.66387 0.54938 0.43548 0.0
H957 H 0.60937 0.54971 0.4594 0.0
H958 H 0.66825 0.50833 0.43862 0.0
H959 H 0.61472 0.50864 0.46214 0.0
H960 H 0.69665 0.57734 0.43389 0.0
H961 H 0.70425 0.61779 0.46382 0.0
H962 H 0.73568 0.56365 0.43644 0.0
H963 H 0.74303 0.60307 0.46596 0.0
H964 H 0.69104 0.61112 0.4016 0.0
H965 H 0.63467 0.56546 0.40016 0.0
H966 H 0.65029 0.54396 0.49193 0.0
H967 H 0.70504 0.52379 0.4703 0.0
Li968 Li 0.14708 0.87518 0.1988 0.0
Li969 Li 0.12175 0.90919 0.20033 0.0
Li970 Li 0.15327 0.90602 0.18589 0.0
Li971 Li 0.16117 0.91097 0.20538 0.0
C972 C 0.11401 0.86908 0.18371 0.0
N973 N 0.09099 0.83131 0.17652 0.0
C974 C 0.09136 0.86622 0.1865 0.0
C975 C 0.12485 0.85284 0.17712 0.0
C976 C 0.08003 0.847 0.18281 0.0
C977 C 0.11296 0.83382 0.17362 0.0
C978 C 0.14069 0.89411 0.2235 0.0
C979 C 0.13513 0.91356 0.24114 0.0
N980 N 0.14919 0.89874 0.24631 0.0
C981 C 0.15506 0.87905 0.22896 0.0
C982 C 0.13059 0.91149 0.22961 0.0
C983 C 0.15919 0.88172 0.24051 0.0
C984 C 0.16716 0.83207 0.19909 0.0
N985 N 0.1476 0.84342 0.20076 0.0
C986 C 0.12788 0.80907 0.20418 0.0
C987 C 0.12828 0.83251 0.20356 0.0
C988 C 0.14769 0.79697 0.20218 0.0
C989 C 0.1676 0.80864 0.19979 0.0
H990 H 0.18235 0.8412 0.19708 0.0
H991 H 0.11308 0.84201 0.20505 0.0
C992 C 0.08233 0.9344 0.19651 0.0
N993 N 0.09188 0.9182 0.20304 0.0
C994 C 0.05936 0.93887 0.19742 0.0
C995 C 0.05674 0.9102 0.21188 0.0
C996 C 0.07978 0.90648 0.2108 0.0
C997 C 0.04629 0.9262 0.20496 0.0
H998 H 0.0924 0.94321 0.19033 0.0
H999 H 0.08784 0.89348 0.21574 0.0
C1000 C 0.19351 0.88914 0.18762 0.0
N1001 N 0.2285 0.88898 0.17226 0.0
C1002 C 0.21095 0.90479 0.18858 0.0
C1003 C 0.194 0.87328 0.1789 0.0
C1004 C 0.22848 0.90443 0.18073 0.0
C1005 C 0.21178 0.87353 0.17119 0.0
C1006 C 0.15079 0.95312 0.19859 0.0
C1007 C 0.17265 0.9604 0.19631 0.0
C1008 C 0.13574 0.96755 0.20404 0.0
C1009 C 0.17919 0.98198 0.19961 0.0
C1010 C 0.1429 0.98904 0.20718 0.0
N1011 N 0.1643 0.99574 0.20493 0.0
C1012 C 0.14733 0.90292 0.16256 0.0
C1013 C 0.17777 0.92667 0.16753 0.0
C1014 C 0.15176 0.906 0.15112 0.0
N1015 N 0.16046 0.91289 0.17051 0.0
C1016 C 0.18283 0.93025 0.15613 0.0
C1017 C 0.1698 0.9196 0.14784 0.0
H1018 H 0.13337 0.89251 0.16508 0.0
H1019 H 0.18781 0.93469 0.17396 0.0
C1020 C 0.19981 0.91001 0.21847 0.0
N1021 N 0.18129 0.92283 0.21653 0.0
C1022 C 0.2149 0.9158 0.22697 0.0
C1023 C 0.19174 0.94803 0.2314 0.0
C1024 C 0.17687 0.94142 0.22288 0.0
C1025 C 0.21083 0.93492 0.23355 0.0
H1026 H 0.20255 0.89491 0.21358 0.0
H1027 H 0.16154 0.95075 0.22161 0.0
O1028 O 0.12546 0.88771 0.18735 0.0
O1029 O 0.13659 0.89191 0.2122 0.0
O1030 O 0.17602 0.8894 0.19514 0.0
O1031 O 0.144 0.93211 0.19537 0.0
H1032 H 0.08258 0.87868 0.19146 0.0
H1033 H 0.14231 0.85481 0.17482 0.0
H1034 H 0.06252 0.84455 0.18495 0.0
H1035 H 0.12121 0.82105 0.1686 0.0
H1036 H 0.12751 0.92698 0.24598 0.0
H1037 H 0.16303 0.86555 0.22431 0.0
H1038 H 0.11953 0.92336 0.22546 0.0
H1039 H 0.17036 0.87026 0.24485 0.0
H1040 H 0.1123 0.80044 0.20608 0.0
H1041 H 0.18315 0.79967 0.19826 0.0
H1042 H 0.05167 0.95126 0.19194 0.0
H1043 H 0.04701 0.9001 0.21772 0.0
H1044 H 0.21086 0.91725 0.19523 0.0
H1045 H 0.18072 0.861 0.17804 0.0
H1046 H 0.24201 0.91652 0.18134 0.0
H1047 H 0.21226 0.86147 0.16436 0.0
H1048 H 0.18455 0.94939 0.1922 0.0
H1049 H 0.11877 0.96217 0.20589 0.0
H1050 H 0.19611 0.98778 0.19797 0.0
H1051 H 0.13147 0.00037 0.21143 0.0
H1052 H 0.14128 0.89778 0.14488 0.0
H1053 H 0.19676 0.94101 0.1538 0.0
H1054 H 0.22943 0.90527 0.22854 0.0
H1055 H 0.18808 0.96272 0.23648 0.0
Li1056 Li 0.84215 0.62818 0.04648 0.0
Li1057 Li 0.87339 0.60396 0.04908 0.0
Li1058 Li 0.83878 0.5897 0.04119 0.0
Li1059 Li 0.84153 0.59869 0.06179 0.0
C1060 C 0.85819 0.62865 0.02651 0.0
N1061 N 0.85506 0.66305 0.01087 0.0
C1062 C 0.87622 0.64338 0.02489 0.0
C1063 C 0.83859 0.6314 0.02013 0.0
C1064 C 0.87432 0.66065 0.01694 0.0
C1065 C 0.83732 0.64891 0.01229 0.0
C1066 C 0.87957 0.63327 0.06601 0.0
C1067 C 0.90135 0.636 0.08317 0.0
N1068 N 0.91685 0.6487 0.07764 0.0
C1069 C 0.89579 0.64631 0.0605 0.0
C1070 C 0.88242 0.62804 0.07744 0.0
C1071 C 0.91448 0.65396 0.06652 0.0
C1072 C 0.81074 0.66363 0.04208 0.0
N1073 N 0.83283 0.65839 0.0435 0.0
C1074 C 0.84329 0.69697 0.04165 0.0
C1075 C 0.84899 0.67453 0.04328 0.0
C1076 C 0.8207 0.70288 0.04035 0.0
C1077 C 0.80422 0.68603 0.04047 0.0
H1078 H 0.79818 0.65052 0.0424 0.0
H1079 H 0.86635 0.67003 0.04445 0.0
C1080 C 0.91637 0.60271 0.03862 0.0
N1081 N 0.90545 0.60067 0.04867 0.0
C1082 C 0.9398 0.60173 0.03821 0.0
C1083 C 0.94025 0.5953 0.05839 0.0
C1084 C 0.91685 0.59637 0.0584 0.0
C1085 C 0.95189 0.59836 0.04823 0.0
H1086 H 0.90689 0.60524 0.03094 0.0
H1087 H 0.90777 0.59413 0.06623 0.0
C1088 C 0.79734 0.59692 0.0486 0.0
N1089 N 0.75734 0.57516 0.04397 0.0
C1090 C 0.78841 0.58158 0.05634 0.0
C1091 C 0.7858 0.60135 0.03855 0.0
C1092 C 0.76819 0.57072 0.05384 0.0
C1093 C 0.76565 0.59012 0.03635 0.0
C1094 C 0.87394 0.55972 0.05193 0.0
C1095 C 0.88033 0.55257 0.04115 0.0
C1096 C 0.88512 0.55125 0.06141 0.0
C1097 C 0.89777 0.537 0.04003 0.0
C1098 C 0.9025 0.53573 0.05994 0.0
N1099 N 0.90841 0.52899 0.04937 0.0
C1100 C 0.83252 0.56957 0.01987 0.0
C1101 C 0.81635 0.54955 0.0352 0.0
C1102 C 0.82757 0.55198 0.0125 0.0
N1103 N 0.82711 0.56794 0.031 0.0
C1104 C 0.8109 0.53162 0.02809 0.0
C1105 C 0.81712 0.53258 0.01668 0.0
H1106 H 0.84183 0.58393 0.01684 0.0
H1107 H 0.81301 0.54834 0.04415 0.0
C1108 C 0.82507 0.60907 0.08322 0.0
N1109 N 0.83276 0.59186 0.07673 0.0
C1110 C 0.82246 0.60614 0.09484 0.0
C1111 C 0.83409 0.56736 0.0927 0.0
C1112 C 0.83651 0.57106 0.08111 0.0
C1113 C 0.82768 0.58528 0.09968 0.0
H1114 H 0.82235 0.62543 0.07947 0.0
H1115 H 0.84234 0.55765 0.07569 0.0
O1116 O 0.85949 0.61192 0.03443 0.0
O1117 O 0.86101 0.62569 0.06029 0.0
O1118 O 0.81723 0.60755 0.05085 0.0
O1119 O 0.8573 0.57541 0.05317 0.0
H1120 H 0.89137 0.64185 0.02987 0.0
H1121 H 0.82443 0.62028 0.0213 0.0
H1122 H 0.88809 0.67225 0.01566 0.0
H1123 H 0.82221 0.65128 0.00735 0.0
H1124 H 0.90374 0.63203 0.09201 0.0
H1125 H 0.89443 0.64986 0.05158 0.0
H1126 H 0.87031 0.61779 0.08186 0.0
H1127 H 0.92721 0.66392 0.06233 0.0
H1128 H 0.85634 0.70969 0.04163 0.0
H1129 H 0.7866 0.69022 0.03955 0.0
H1130 H 0.94843 0.60389 0.03023 0.0
H1131 H 0.94921 0.59247 0.06623 0.0
H1132 H 0.79707 0.57794 0.06416 0.0
H1133 H 0.79236 0.61327 0.0325 0.0
H1134 H 0.76115 0.55873 0.05973 0.0
H1135 H 0.75661 0.59331 0.02859 0.0
H1136 H 0.87216 0.55921 0.0337 0.0
H1137 H 0.88074 0.55692 0.06981 0.0
H1138 H 0.90292 0.53138 0.03173 0.0
H1139 H 0.91138 0.52915 0.06719 0.0
H1140 H 0.8328 0.55301 0.00375 0.0
H1141 H 0.80306 0.51669 0.03155 0.0
H1142 H 0.81761 0.62028 0.10007 0.0
H1143 H 0.83828 0.55111 0.09625 0.0
Li1144 Li 0.16172 0.089 0.79388 0.0
Li1145 Li 0.15304 0.09321 0.81334 0.0
Li1146 Li 0.12211 0.09099 0.79863 0.0
Li1147 Li 0.14773 0.12461 0.80072 0.0
C1148 C 0.14987 0.04669 0.79983 0.0
N1149 N 0.16152 0.00409 0.79262 0.0
C1150 C 0.17122 0.03811 0.80218 0.0
C1151 C 0.13437 0.03358 0.79388 0.0
C1152 C 0.17682 0.01655 0.79843 0.0
C1153 C 0.1406 0.01207 0.7903 0.0
C1154 C 0.19354 0.10929 0.8122 0.0
C1155 C 0.21154 0.12332 0.82905 0.0
N1156 N 0.228 0.10764 0.82784 0.0
C1157 C 0.21066 0.09333 0.81111 0.0
C1158 C 0.19402 0.12447 0.82122 0.0
C1159 C 0.22794 0.09278 0.81911 0.0
C1160 C 0.20075 0.09088 0.78122 0.0
N1161 N 0.18237 0.07767 0.78282 0.0
C1162 C 0.19384 0.05339 0.76775 0.0
C1163 C 0.17855 0.05931 0.77621 0.0
C1164 C 0.21283 0.06688 0.76598 0.0
C1165 C 0.21631 0.08573 0.77283 0.0
H1166 H 0.20303 0.10582 0.7863 0.0
H1167 H 0.16334 0.04965 0.77721 0.0
C1168 C 0.14663 0.09567 0.83666 0.0
N1169 N 0.1596 0.08557 0.82869 0.0
C1170 C 0.15098 0.09231 0.84809 0.0
C1171 C 0.18155 0.0675 0.843 0.0
C1172 C 0.17654 0.07131 0.83161 0.0
C1173 C 0.16877 0.07835 0.85132 0.0
H1174 H 0.13298 0.10649 0.83417 0.0
H1175 H 0.18641 0.06319 0.82514 0.0
C1176 C 0.14167 0.10632 0.77574 0.0
N1177 N 0.15 0.10184 0.7529 0.0
C1178 C 0.15543 0.12184 0.7702 0.0
C1179 C 0.13218 0.0885 0.76969 0.0
C1180 C 0.15945 0.11926 0.75864 0.0
C1181 C 0.1366 0.08652 0.75815 0.0
C1182 C 0.11412 0.13074 0.81526 0.0
C1183 C 0.09196 0.13426 0.81175 0.0
C1184 C 0.12453 0.14655 0.82227 0.0
C1185 C 0.08067 0.15367 0.81521 0.0
C1186 C 0.11269 0.16577 0.82553 0.0
N1187 N 0.09119 0.16891 0.82196 0.0
C1188 C 0.08182 0.06843 0.8033 0.0
C1189 C 0.08081 0.09205 0.78713 0.0
C1190 C 0.05874 0.06456 0.80247 0.0
N1191 N 0.09219 0.08228 0.79579 0.0
C1192 C 0.05773 0.08861 0.78597 0.0
C1193 C 0.04648 0.07515 0.79387 0.0
H1194 H 0.09132 0.06123 0.8102 0.0
H1195 H 0.08945 0.10339 0.78146 0.0
C1196 C 0.16811 0.16752 0.8017 0.0
N1197 N 0.14878 0.15645 0.79914 0.0
C1198 C 0.16883 0.19098 0.80136 0.0
C1199 C 0.12989 0.19116 0.79546 0.0
C1200 C 0.13001 0.16769 0.79579 0.0
C1201 C 0.14944 0.20295 0.79838 0.0
H1202 H 0.1829 0.15816 0.80412 0.0
H1203 H 0.11498 0.15841 0.79361 0.0
O1204 O 0.14395 0.06765 0.80351 0.0
O1205 O 0.17633 0.10995 0.80453 0.0
O1206 O 0.13753 0.10854 0.78703 0.0
O1207 O 0.12556 0.11193 0.81185 0.0
H1208 H 0.18344 0.04809 0.80671 0.0
H1209 H 0.11776 0.03997 0.79201 0.0
H1210 H 0.19334 0.00974 0.80011 0.0
H1211 H 0.12881 0.00175 0.78566 0.0
H1212 H 0.21203 0.13487 0.83611 0.0
H1213 H 0.21051 0.08131 0.80426 0.0
H1214 H 0.18088 0.13686 0.82223 0.0
H1215 H 0.24123 0.08045 0.8184 0.0
H1216 H 0.19059 0.03895 0.76242 0.0
H1217 H 0.23071 0.09659 0.77153 0.0
H1218 H 0.14074 0.10074 0.85437 0.0
H1219 H 0.19531 0.05651 0.8453 0.0
H1220 H 0.16294 0.13567 0.77479 0.0
H1221 H 0.12167 0.07622 0.7739 0.0
H1222 H 0.17011 0.1311 0.75423 0.0
H1223 H 0.12943 0.07279 0.75336 0.0
H1224 H 0.08355 0.12221 0.80638 0.0
H1225 H 0.14165 0.14412 0.82507 0.0
H1226 H 0.06354 0.15663 0.81252 0.0
H1227 H 0.1206 0.1782 0.83089 0.0
H1228 H 0.05035 0.05429 0.80875 0.0
H1229 H 0.04856 0.0972 0.77935 0.0
H1230 H 0.18418 0.19971 0.80359 0.0
H1231 H 0.11473 0.20004 0.79308 0.0
Li1232 Li 0.65759 0.40724 0.54171 0.0
Li1233 Li 0.65251 0.39746 0.56085 0.0
Li1234 Li 0.65798 0.36776 0.54652 0.0
Li1235 Li 0.62166 0.39153 0.54751 0.0
C1236 C 0.70145 0.39322 0.54915 0.0
N1237 N 0.74676 0.39727 0.5444 0.0
C1238 C 0.71473 0.40846 0.55519 0.0
C1239 C 0.71133 0.37973 0.54085 0.0
C1240 C 0.73756 0.41036 0.55261 0.0
C1241 C 0.73423 0.38211 0.53853 0.0
C1242 C 0.63944 0.44139 0.55596 0.0
C1243 C 0.62644 0.47762 0.56236 0.0
N1244 N 0.64814 0.48452 0.56344 0.0
C1245 C 0.66158 0.44884 0.55712 0.0
C1246 C 0.6217 0.45588 0.55858 0.0
C1247 C 0.66564 0.4707 0.56092 0.0
C1248 C 0.65241 0.44434 0.52802 0.0
N1249 N 0.66848 0.42949 0.53134 0.0
C1250 C 0.69531 0.44665 0.51898 0.0
C1251 C 0.68969 0.43038 0.52703 0.0
C1252 C 0.67884 0.46185 0.51535 0.0
C1253 C 0.65724 0.46072 0.51998 0.0
H1254 H 0.6356 0.44308 0.53143 0.0
H1255 H 0.70216 0.41832 0.52961 0.0
C1256 C 0.67679 0.3957 0.58127 0.0
N1257 N 0.65825 0.40448 0.5762 0.0
C1258 C 0.6803 0.39884 0.59283 0.0
C1259 C 0.64587 0.42045 0.59363 0.0
C1260 C 0.643 0.41686 0.58208 0.0
C1261 C 0.66452 0.41108 0.5991 0.0
H1262 H 0.68846 0.38569 0.57638 0.0
H1263 H 0.6282 0.42325 0.57788 0.0
C1264 C 0.64258 0.38772 0.52309 0.0
N1265 N 0.64767 0.39934 0.50064 0.0
C1266 C 0.62584 0.40002 0.51757 0.0
C1267 C 0.6618 0.38115 0.51717 0.0
C1268 C 0.62877 0.4058 0.50623 0.0
C1269 C 0.6641 0.38725 0.50583 0.0
C1270 C 0.62867 0.36325 0.56922 0.0
C1271 C 0.64128 0.34688 0.57483 0.0
C1272 C 0.61037 0.37326 0.57466 0.0
C1273 C 0.63525 0.34066 0.58581 0.0
C1274 C 0.60491 0.3666 0.58564 0.0
N1275 N 0.61731 0.35053 0.59092 0.0
C1276 C 0.68473 0.32935 0.55046 0.0
C1277 C 0.66099 0.32718 0.53452 0.0
C1278 C 0.69291 0.30772 0.54837 0.0
N1279 N 0.66927 0.33866 0.54348 0.0
C1280 C 0.66875 0.30557 0.53209 0.0
C1281 C 0.68597 0.29558 0.53866 0.0
H1282 H 0.69043 0.3386 0.55779 0.0
H1283 H 0.64798 0.33467 0.52936 0.0
C1284 C 0.58001 0.4103 0.54151 0.0
N1285 N 0.59007 0.39157 0.54573 0.0
C1286 C 0.55662 0.4114 0.54071 0.0
C1287 C 0.55446 0.37397 0.54867 0.0
C1288 C 0.5779 0.37347 0.54918 0.0
C1289 C 0.54367 0.39317 0.54445 0.0
H1290 H 0.59018 0.42448 0.53892 0.0
H1291 H 0.58641 0.35884 0.55253 0.0
O1292 O 0.67916 0.39087 0.55172 0.0
O1293 O 0.63501 0.42004 0.55229 0.0
O1294 O 0.64019 0.38223 0.53425 0.0
O1295 O 0.63414 0.36939 0.55844 0.0
H1296 H 0.70754 0.41861 0.56186 0.0
H1297 H 0.70145 0.36766 0.53618 0.0
H1298 H 0.748 0.42216 0.55718 0.0
H1299 H 0.74205 0.37189 0.53207 0.0
H1300 H 0.61288 0.48901 0.56444 0.0
H1301 H 0.67544 0.4379 0.55505 0.0
H1302 H 0.60445 0.45033 0.55772 0.0
H1303 H 0.68271 0.47669 0.56184 0.0
H1304 H 0.7121 0.4471 0.51545 0.0
H1305 H 0.64418 0.47219 0.51726 0.0
H1306 H 0.69471 0.39122 0.5969 0.0
H1307 H 0.63329 0.42971 0.59834 0.0
H1308 H 0.61085 0.40521 0.52203 0.0
H1309 H 0.67484 0.37151 0.52129 0.0
H1310 H 0.61603 0.41545 0.50187 0.0
H1311 H 0.67895 0.38238 0.50116 0.0
H1312 H 0.65552 0.33903 0.57075 0.0
H1313 H 0.60059 0.38614 0.57048 0.0
H1314 H 0.64483 0.32799 0.59026 0.0
H1315 H 0.59082 0.37422 0.58996 0.0
H1316 H 0.70386 0.3008 0.5547 0.0
H1317 H 0.66041 0.29678 0.52531 0.0
H1318 H 0.54867 0.42644 0.53744 0.0
H1319 H 0.54482 0.35968 0.55163 0.0
Li1320 Li 0.35066 0.87766 0.29952 0.0
Li1321 Li 0.3749 0.91096 0.2972 0.0
Li1322 Li 0.34491 0.90919 0.31218 0.0
Li1323 Li 0.33481 0.91415 0.29241 0.0
C1324 C 0.38368 0.87253 0.31485 0.0
N1325 N 0.40624 0.83568 0.32345 0.0
C1326 C 0.40632 0.86905 0.31222 0.0
C1327 C 0.37263 0.85744 0.32201 0.0
C1328 C 0.41741 0.85029 0.31663 0.0
C1329 C 0.38428 0.83885 0.32621 0.0
C1330 C 0.36693 0.89497 0.27489 0.0
C1331 C 0.37563 0.9153 0.25781 0.0
N1332 N 0.3849 0.89635 0.25337 0.0
C1333 C 0.37629 0.87562 0.27011 0.0
C1334 C 0.36638 0.91492 0.26866 0.0
C1335 C 0.38539 0.87669 0.25924 0.0
C1336 C 0.32975 0.8351 0.29905 0.0
N1337 N 0.34978 0.84588 0.29794 0.0
C1338 C 0.36895 0.81097 0.29533 0.0
C1339 C 0.36912 0.8344 0.29588 0.0
C1340 C 0.34857 0.79945 0.29665 0.0
C1341 C 0.32873 0.81168 0.29837 0.0
H1342 H 0.31459 0.84467 0.30053 0.0
H1343 H 0.38474 0.84344 0.29481 0.0
C1344 C 0.41339 0.93739 0.30037 0.0
N1345 N 0.40485 0.92003 0.29424 0.0
C1346 C 0.43639 0.94204 0.30005 0.0
C1347 C 0.44112 0.91145 0.28678 0.0
C1348 C 0.41808 0.90735 0.28738 0.0
C1349 C 0.45046 0.92857 0.2934 0.0
H1350 H 0.40252 0.94685 0.30594 0.0
H1351 H 0.41109 0.89312 0.28295 0.0
C1352 C 0.30374 0.89176 0.31054 0.0
N1353 N 0.26768 0.89099 0.32524 0.0
C1354 C 0.28564 0.90639 0.30893 0.0
C1355 C 0.30334 0.87651 0.31952 0.0
C1356 C 0.26759 0.90577 0.31648 0.0
C1357 C 0.28502 0.87646 0.3269 0.0
C1358 C 0.35121 0.95659 0.29893 0.0
C1359 C 0.33731 0.97111 0.30504 0.0
C1360 C 0.36358 0.96487 0.28979 0.0
C1361 C 0.33554 0.99358 0.30171 0.0
C1362 C 0.36136 0.98745 0.28673 0.0
N1363 N 0.34748 0.00121 0.29269 0.0
C1364 C 0.35252 0.90923 0.33543 0.0
C1365 C 0.31968 0.92934 0.33023 0.0
C1366 C 0.34815 0.91296 0.34683 0.0
N1367 N 0.33814 0.91702 0.32741 0.0
C1368 C 0.31462 0.93345 0.34158 0.0
C1369 C 0.32888 0.9249 0.34997 0.0
H1370 H 0.36731 0.89994 0.33298 0.0
H1371 H 0.30871 0.93567 0.32369 0.0
C1372 C 0.30945 0.91222 0.27295 0.0
N1373 N 0.31349 0.92573 0.28199 0.0
C1374 C 0.29267 0.91768 0.26523 0.0
C1375 C 0.28431 0.95092 0.27624 0.0
C1376 C 0.30143 0.94487 0.28374 0.0
C1377 C 0.27975 0.93703 0.26696 0.0
H1378 H 0.31883 0.8968 0.27193 0.0
H1379 H 0.30439 0.95492 0.29118 0.0
O1380 O 0.37247 0.89071 0.31053 0.0
O1381 O 0.35794 0.89416 0.28552 0.0
O1382 O 0.32171 0.89231 0.30332 0.0
O1383 O 0.35323 0.93459 0.30212 0.0
H1384 H 0.41526 0.88066 0.30683 0.0
H1385 H 0.35521 0.85999 0.32423 0.0
H1386 H 0.4349 0.84736 0.31462 0.0
H1387 H 0.37586 0.82694 0.33167 0.0
H1388 H 0.37535 0.93064 0.2529 0.0
H1389 H 0.37665 0.85998 0.27477 0.0
H1390 H 0.35865 0.92986 0.27209 0.0
H1391 H 0.39283 0.86189 0.25547 0.0
H1392 H 0.38449 0.8019 0.29394 0.0
H1393 H 0.31277 0.80315 0.29937 0.0
H1394 H 0.44329 0.95518 0.30536 0.0
H1395 H 0.45171 0.90058 0.28172 0.0
H1396 H 0.28559 0.9182 0.302 0.0
H1397 H 0.31706 0.86489 0.32081 0.0
H1398 H 0.25353 0.9171 0.31537 0.0
H1399 H 0.28459 0.86488 0.33394 0.0
H1400 H 0.32784 0.96505 0.31222 0.0
H1401 H 0.37494 0.95406 0.28519 0.0
H1402 H 0.32468 0.00496 0.3063 0.0
H1403 H 0.37076 0.99405 0.27965 0.0
H1404 H 0.35953 0.90632 0.35315 0.0
H1405 H 0.29968 0.94286 0.34381 0.0
H1406 H 0.28925 0.90652 0.2582 0.0
H1407 H 0.27429 0.96579 0.27784 0.0
Li1408 Li 0.6604 0.12807 0.5494 0.0
Li1409 Li 0.66115 0.10156 0.56505 0.0
Li1410 Li 0.66127 0.08804 0.54475 0.0
Li1411 Li 0.6272 0.10464 0.55333 0.0
C1412 C 0.70428 0.11705 0.55421 0.0
N1413 N 0.74394 0.14088 0.55616 0.0
C1414 C 0.70601 0.13466 0.56197 0.0
C1415 C 0.72269 0.11158 0.54741 0.0
C1416 C 0.72621 0.14652 0.56283 0.0
C1417 C 0.74262 0.12381 0.54854 0.0
C1418 C 0.63371 0.13635 0.57306 0.0
C1419 C 0.60945 0.13418 0.58935 0.0
N1420 N 0.61877 0.15342 0.59344 0.0
C1421 C 0.64289 0.15623 0.57737 0.0
C1422 C 0.61673 0.12534 0.57905 0.0
C1423 C 0.63518 0.16453 0.58771 0.0
C1424 C 0.65565 0.17463 0.54818 0.0
N1425 N 0.66925 0.15753 0.5448 0.0
C1426 C 0.69473 0.18355 0.53625 0.0
C1427 C 0.68829 0.16152 0.53875 0.0
C1428 C 0.6813 0.20143 0.53996 0.0
C1429 C 0.66144 0.19689 0.54587 0.0
H1430 H 0.64042 0.17096 0.55281 0.0
H1431 H 0.69869 0.14768 0.536 0.0
C1432 C 0.67369 0.07321 0.58314 0.0
N1433 N 0.67232 0.09503 0.57987 0.0
C1434 C 0.68115 0.06759 0.59398 0.0
C1435 C 0.6858 0.10699 0.59791 0.0
C1436 C 0.67814 0.11183 0.58704 0.0
C1437 C 0.68858 0.08448 0.60155 0.0
H1438 H 0.66858 0.06006 0.57738 0.0
H1439 H 0.67659 0.12911 0.58443 0.0
C1440 C 0.64678 0.1173 0.5276 0.0
N1441 N 0.65824 0.12851 0.50569 0.0
C1442 C 0.63025 0.12439 0.52001 0.0
C1443 C 0.66914 0.11589 0.52405 0.0
C1444 C 0.63638 0.12999 0.50897 0.0
C1445 C 0.6746 0.12164 0.51294 0.0
C1446 C 0.63045 0.0597 0.56147 0.0
C1447 C 0.62698 0.04097 0.55454 0.0
C1448 C 0.62054 0.06043 0.57217 0.0
C1449 C 0.61323 0.0235 0.55834 0.0
C1450 C 0.60691 0.04262 0.57567 0.0
N1451 N 0.60353 0.02469 0.56873 0.0
C1452 C 0.69098 0.05541 0.53508 0.0
C1453 C 0.65523 0.05971 0.52644 0.0
C1454 C 0.6968 0.03868 0.5273 0.0
N1455 N 0.67049 0.06548 0.53447 0.0
C1456 C 0.66033 0.04316 0.51853 0.0
C1457 C 0.68126 0.03246 0.51896 0.0
H1458 H 0.70268 0.06027 0.54164 0.0
H1459 H 0.63901 0.06791 0.52625 0.0
C1460 C 0.58402 0.12361 0.55488 0.0
N1461 N 0.5952 0.10405 0.55289 0.0
C1462 C 0.56059 0.12428 0.55429 0.0
C1463 C 0.56061 0.08472 0.54954 0.0
C1464 C 0.58404 0.08489 0.55007 0.0
C1465 C 0.54873 0.10461 0.55165 0.0
H1466 H 0.59335 0.13872 0.55685 0.0
H1467 H 0.59327 0.06981 0.54805 0.0
O1468 O 0.68447 0.10565 0.55302 0.0
O1469 O 0.64106 0.12804 0.56293 0.0
O1470 O 0.64096 0.11153 0.5384 0.0
O1471 O 0.64385 0.07696 0.55785 0.0
H1472 H 0.69172 0.13952 0.56704 0.0
H1473 H 0.72154 0.09816 0.54126 0.0
H1474 H 0.72772 0.16031 0.56874 0.0
H1475 H 0.75699 0.11979 0.54332 0.0
H1476 H 0.59634 0.1258 0.59407 0.0
H1477 H 0.65605 0.16501 0.57285 0.0
H1478 H 0.60908 0.11025 0.57573 0.0
H1479 H 0.64226 0.17979 0.59119 0.0
H1480 H 0.71011 0.18665 0.53161 0.0
H1481 H 0.65072 0.21043 0.54877 0.0
H1482 H 0.68012 0.05011 0.59621 0.0
H1483 H 0.68871 0.12116 0.60342 0.0
H1484 H 0.61285 0.1255 0.52264 0.0
H1485 H 0.68216 0.11037 0.52979 0.0
H1486 H 0.62375 0.13549 0.503 0.0
H1487 H 0.69184 0.12062 0.51008 0.0
H1488 H 0.63469 0.04 0.54628 0.0
H1489 H 0.62354 0.07446 0.57777 0.0
H1490 H 0.61027 0.00898 0.55304 0.0
H1491 H 0.59908 0.04301 0.58391 0.0
H1492 H 0.71308 0.03059 0.52781 0.0
H1493 H 0.64802 0.0386 0.51218 0.0
H1494 H 0.55179 0.13991 0.55588 0.0
H1495 H 0.55185 0.06936 0.54734 0.0
Li1496 Li 0.15499 0.41184 0.81344 0.0
Li1497 Li 0.12614 0.41048 0.79815 0.0
Li1498 Li 0.15163 0.37895 0.80047 0.0
Li1499 Li 0.16416 0.41575 0.79349 0.0
C1500 C 0.12614 0.37447 0.8195 0.0
N1501 N 0.1196 0.34125 0.83547 0.0
C1502 C 0.1046 0.366 0.82146 0.0
C1503 C 0.14439 0.36601 0.82561 0.0
C1504 C 0.10163 0.34922 0.82959 0.0
C1505 C 0.14072 0.34923 0.83366 0.0
C1506 C 0.15457 0.4565 0.80025 0.0
C1507 C 0.15839 0.48818 0.78766 0.0
N1508 N 0.17449 0.49693 0.79454 0.0
C1509 C 0.17099 0.46591 0.80724 0.0
C1510 C 0.14805 0.46783 0.79043 0.0
C1511 C 0.18091 0.48633 0.80419 0.0
C1512 C 0.18279 0.42419 0.83187 0.0
N1513 N 0.16133 0.41964 0.82863 0.0
C1514 C 0.14868 0.42111 0.84775 0.0
C1515 C 0.14426 0.41866 0.83625 0.0
C1516 C 0.1708 0.42484 0.85136 0.0
C1517 C 0.18793 0.42708 0.8433 0.0
H1518 H 0.19598 0.42499 0.8256 0.0
H1519 H 0.12735 0.41509 0.83341 0.0
C1520 C 0.08173 0.39843 0.79423 0.0
N1521 N 0.09545 0.41657 0.79533 0.0
C1522 C 0.05861 0.40135 0.79316 0.0
C1523 C 0.06415 0.44163 0.79421 0.0
C1524 C 0.08727 0.43793 0.79522 0.0
C1525 C 0.04965 0.42313 0.79332 0.0
H1526 H 0.08877 0.38167 0.79448 0.0
H1527 H 0.0986 0.45199 0.79625 0.0
C1528 C 0.19913 0.38685 0.80279 0.0
N1529 N 0.2399 0.3667 0.79813 0.0
C1530 C 0.2042 0.38007 0.79178 0.0
C1531 C 0.21473 0.3833 0.81144 0.0
C1532 C 0.22493 0.36992 0.78959 0.0
C1533 C 0.23527 0.37311 0.80891 0.0
C1534 C 0.1278 0.39305 0.77771 0.0
C1535 C 0.11968 0.37224 0.77403 0.0
C1536 C 0.11987 0.41274 0.77264 0.0
C1537 C 0.10324 0.37152 0.76561 0.0
C1538 C 0.1034 0.41134 0.76426 0.0
N1539 N 0.09546 0.39093 0.76096 0.0
C1540 C 0.13293 0.33625 0.79811 0.0
C1541 C 0.17194 0.33479 0.80213 0.0
C1542 C 0.13178 0.31282 0.7977 0.0
N1543 N 0.15286 0.34676 0.80009 0.0
C1544 C 0.17153 0.31131 0.80187 0.0
C1545 C 0.15129 0.3002 0.79956 0.0
H1546 H 0.11787 0.34614 0.79687 0.0
H1547 H 0.18744 0.34327 0.80409 0.0
C1548 C 0.20441 0.43854 0.78763 0.0
N1549 N 0.18528 0.4291 0.78347 0.0
C1550 C 0.22178 0.44467 0.7803 0.0
C1551 C 0.19913 0.43179 0.76461 0.0
C1552 C 0.18214 0.42615 0.7722 0.0
C1553 C 0.21939 0.44054 0.76871 0.0
H1554 H 0.20668 0.44013 0.79666 0.0
H1555 H 0.16702 0.4182 0.76914 0.0
O1556 O 0.12945 0.39044 0.81135 0.0
O1557 O 0.14494 0.43634 0.80301 0.0
O1558 O 0.17884 0.3965 0.80522 0.0
O1559 O 0.14362 0.39413 0.78611 0.0
H1560 H 0.09034 0.37227 0.81674 0.0
H1561 H 0.16123 0.37218 0.82408 0.0
H1562 H 0.08505 0.34249 0.83121 0.0
H1563 H 0.15468 0.3425 0.83844 0.0
H1564 H 0.1536 0.49705 0.78005 0.0
H1565 H 0.17616 0.45748 0.81489 0.0
H1566 H 0.13514 0.46102 0.785 0.0
H1567 H 0.19375 0.49372 0.8095 0.0
H1568 H 0.13512 0.4194 0.85379 0.0
H1569 H 0.20514 0.43008 0.84587 0.0
H1570 H 0.04773 0.38678 0.79257 0.0
H1571 H 0.0576 0.45861 0.79446 0.0
H1572 H 0.19217 0.38237 0.78502 0.0
H1573 H 0.21093 0.38814 0.82004 0.0
H1574 H 0.22909 0.36453 0.78112 0.0
H1575 H 0.24748 0.37021 0.81552 0.0
H1576 H 0.12611 0.35678 0.77755 0.0
H1577 H 0.12618 0.42894 0.77525 0.0
H1578 H 0.09672 0.35552 0.76274 0.0
H1579 H 0.09693 0.42648 0.76038 0.0
H1580 H 0.11586 0.30462 0.79604 0.0
H1581 H 0.18679 0.3019 0.80346 0.0
H1582 H 0.23742 0.45112 0.78369 0.0
H1583 H 0.19698 0.42821 0.75569 0.0
Li1584 Li 0.83857 0.90012 0.06207 0.0
Li1585 Li 0.83818 0.8732 0.04657 0.0
Li1586 Li 0.8716 0.89732 0.0497 0.0
Li1587 Li 0.83634 0.91287 0.04226 0.0
C1588 C 0.86996 0.86365 0.06819 0.0
N1589 N 0.89229 0.84256 0.08572 0.0
C1590 C 0.86386 0.8419 0.07148 0.0
C1591 C 0.88755 0.87458 0.07378 0.0
C1592 C 0.8753 0.83155 0.08038 0.0
C1593 C 0.89861 0.86365 0.08262 0.0
C1594 C 0.79651 0.88368 0.05621 0.0
C1595 C 0.75697 0.87841 0.05983 0.0
N1596 N 0.76194 0.86116 0.06695 0.0
C1597 C 0.80122 0.86591 0.06357 0.0
C1598 C 0.77421 0.89 0.05432 0.0
C1599 C 0.78353 0.85473 0.06891 0.0
C1600 C 0.82153 0.92702 0.07992 0.0
N1601 N 0.82956 0.90624 0.07727 0.0
C1602 C 0.829 0.89538 0.09668 0.0
C1603 C 0.83258 0.89028 0.08534 0.0
C1604 C 0.82175 0.91695 0.09972 0.0
C1605 C 0.81724 0.93272 0.09119 0.0
H1606 H 0.81913 0.93936 0.07331 0.0
H1607 H 0.83821 0.87369 0.08308 0.0
C1608 C 0.84662 0.82804 0.04328 0.0
N1609 N 0.82996 0.84354 0.04235 0.0
C1610 C 0.84194 0.80529 0.04179 0.0
C1611 C 0.80328 0.81494 0.03768 0.0
C1612 C 0.80869 0.83759 0.03934 0.0
C1613 C 0.81999 0.79859 0.03919 0.0
H1614 H 0.86339 0.83334 0.0456 0.0
H1615 H 0.7958 0.8503 0.03855 0.0
C1616 C 0.86656 0.94157 0.0599 0.0
N1617 N 0.88954 0.97588 0.07061 0.0
C1618 C 0.86967 0.96221 0.05447 0.0
C1619 C 0.87492 0.93848 0.07083 0.0
C1620 C 0.88142 0.97931 0.06 0.0
C1621 C 0.88652 0.95601 0.07609 0.0
C1622 C 0.849 0.88486 0.02454 0.0
C1623 C 0.8645 0.88133 0.01586 0.0
C1624 C 0.82599 0.88345 0.02226 0.0
C1625 C 0.8567 0.87638 0.005 0.0
C1626 C 0.81887 0.87847 0.0113 0.0
N1627 N 0.83424 0.87507 0.00296 0.0
C1628 C 0.91473 0.87839 0.04905 0.0
C1629 C 0.91469 0.91823 0.04796 0.0
C1630 C 0.93818 0.87799 0.04873 0.0
N1631 N 0.90353 0.89833 0.04882 0.0
C1632 C 0.93814 0.91861 0.04766 0.0
C1633 C 0.95003 0.8983 0.04811 0.0
H1634 H 0.90541 0.86281 0.04958 0.0
H1635 H 0.90544 0.9338 0.0475 0.0
C1636 C 0.80426 0.9406 0.0306 0.0
N1637 N 0.82622 0.93485 0.03197 0.0
C1638 C 0.79823 0.95661 0.02248 0.0
C1639 C 0.83751 0.96022 0.01745 0.0
C1640 C 0.84275 0.94423 0.02561 0.0
C1641 C 0.81507 0.96654 0.01584 0.0
H1642 H 0.7915 0.93266 0.03574 0.0
H1643 H 0.86002 0.93911 0.02688 0.0
O1644 O 0.85882 0.87403 0.05951 0.0
O1645 O 0.81351 0.89484 0.05081 0.0
O1646 O 0.85503 0.92472 0.05457 0.0
O1647 O 0.85643 0.89001 0.03517 0.0
H1648 H 0.85024 0.83316 0.0673 0.0
H1649 H 0.89282 0.89121 0.07125 0.0
H1650 H 0.87066 0.81478 0.08304 0.0
H1651 H 0.91225 0.87193 0.08701 0.0
H1652 H 0.73962 0.88312 0.05844 0.0
H1653 H 0.81832 0.86067 0.06509 0.0
H1654 H 0.77027 0.9037 0.04864 0.0
H1655 H 0.78695 0.84091 0.0746 0.0
H1656 H 0.8323 0.88272 0.10305 0.0
H1657 H 0.81135 0.94944 0.09327 0.0
H1658 H 0.85516 0.79297 0.04296 0.0
H1659 H 0.78619 0.81015 0.03565 0.0
H1660 H 0.86317 0.96496 0.04604 0.0
H1661 H 0.87226 0.92286 0.07527 0.0
H1662 H 0.88406 0.99533 0.05588 0.0
H1663 H 0.89304 0.95384 0.08455 0.0
H1664 H 0.88237 0.88245 0.01749 0.0
H1665 H 0.81374 0.88626 0.02885 0.0
H1666 H 0.86851 0.87361 0.99819 0.0
H1667 H 0.80111 0.87735 0.00941 0.0
H1668 H 0.947 0.86206 0.04905 0.0
H1669 H 0.94694 0.93452 0.04709 0.0
H1670 H 0.78075 0.96117 0.02135 0.0
H1671 H 0.85081 0.96758 0.0124 0.0
Li1672 Li 0.37242 0.58975 0.29748 0.0
Li1673 Li 0.34485 0.59279 0.31161 0.0
Li1674 Li 0.33378 0.58638 0.29198 0.0
Li1675 Li 0.3503 0.62409 0.29859 0.0
C1676 C 0.3562 0.54452 0.29982 0.0
N1677 N 0.36768 0.50043 0.29518 0.0
C1678 C 0.36391 0.53044 0.30846 0.0
C1679 C 0.35397 0.53603 0.28887 0.0
C1680 C 0.36973 0.50825 0.30593 0.0
C1681 C 0.35995 0.51374 0.28668 0.0
C1682 C 0.38734 0.60854 0.31786 0.0
C1683 C 0.41555 0.62242 0.33073 0.0
N1684 N 0.42006 0.60095 0.33398 0.0
C1685 C 0.39225 0.58664 0.32134 0.0
C1686 C 0.39906 0.6266 0.32259 0.0
C1687 C 0.40884 0.58313 0.32949 0.0
C1688 C 0.4171 0.59955 0.29478 0.0
N1689 N 0.40305 0.58151 0.29468 0.0
C1690 C 0.43425 0.55644 0.29272 0.0
C1691 C 0.4111 0.5602 0.2935 0.0
C1692 C 0.44898 0.57482 0.2931 0.0
C1693 C 0.44023 0.59659 0.29396 0.0
H1694 H 0.4103 0.61628 0.29581 0.0
H1695 H 0.3998 0.54606 0.29343 0.0
C1696 C 0.3293 0.56653 0.33016 0.0
N1697 N 0.3377 0.5868 0.32692 0.0
C1698 C 0.32532 0.56215 0.34159 0.0
C1699 C 0.33836 0.59971 0.34599 0.0
C1700 C 0.34199 0.60338 0.33453 0.0
C1701 C 0.33016 0.57886 0.34959 0.0
H1702 H 0.326 0.55372 0.32389 0.0
H1703 H 0.34851 0.61937 0.33167 0.0
C1704 C 0.37363 0.60621 0.27678 0.0
N1705 N 0.40791 0.60635 0.26102 0.0
C1706 C 0.38614 0.62575 0.2749 0.0
C1707 C 0.3783 0.58686 0.2705 0.0
C1708 C 0.40346 0.62546 0.26693 0.0
C1709 C 0.39578 0.58723 0.26262 0.0
C1710 C 0.30567 0.61194 0.31103 0.0
C1711 C 0.28976 0.59508 0.31295 0.0
C1712 C 0.30594 0.63103 0.31792 0.0
C1713 C 0.27442 0.59755 0.32181 0.0
C1714 C 0.29031 0.63288 0.32668 0.0
N1715 N 0.27502 0.61624 0.32843 0.0
C1716 C 0.29771 0.55787 0.28506 0.0
C1717 C 0.31079 0.58473 0.27175 0.0
C1718 C 0.28028 0.55155 0.27779 0.0
N1719 N 0.3122 0.57447 0.28197 0.0
C1720 C 0.29371 0.57897 0.26426 0.0
C1721 C 0.27803 0.56254 0.26737 0.0
H1722 H 0.29928 0.55009 0.29328 0.0
H1723 H 0.32248 0.59798 0.26959 0.0
C1724 C 0.36909 0.66735 0.29836 0.0
N1725 N 0.34961 0.6557 0.29706 0.0
C1726 C 0.36904 0.69079 0.29785 0.0
C1727 C 0.32883 0.68976 0.29477 0.0
C1728 C 0.32971 0.6663 0.29519 0.0
C1729 C 0.34868 0.70215 0.29616 0.0
H1730 H 0.38462 0.65839 0.29989 0.0
H1731 H 0.31448 0.65654 0.29424 0.0
O1732 O 0.35019 0.56621 0.30221 0.0
O1733 O 0.37134 0.6124 0.30978 0.0
O1734 O 0.35699 0.60602 0.28477 0.0
O1735 O 0.32131 0.60947 0.30266 0.0
H1736 H 0.36535 0.53656 0.31704 0.0
H1737 H 0.34764 0.54647 0.28212 0.0
H1738 H 0.37583 0.49722 0.31252 0.0
H1739 H 0.3584 0.507 0.27822 0.0
H1740 H 0.42476 0.63623 0.33446 0.0
H1741 H 0.38342 0.5725 0.31773 0.0
H1742 H 0.39547 0.64368 0.31998 0.0
H1743 H 0.41283 0.56625 0.33224 0.0
H1744 H 0.44064 0.53943 0.29211 0.0
H1745 H 0.45125 0.61107 0.29434 0.0
H1746 H 0.31899 0.54588 0.3442 0.0
H1747 H 0.34221 0.61287 0.35202 0.0
H1748 H 0.38265 0.64092 0.2796 0.0
H1749 H 0.36867 0.57168 0.27175 0.0
H1750 H 0.41339 0.64041 0.26545 0.0
H1751 H 0.3997 0.57231 0.25778 0.0
H1752 H 0.28945 0.58013 0.30775 0.0
H1753 H 0.31833 0.64411 0.31664 0.0
H1754 H 0.2621 0.58458 0.32343 0.0
H1755 H 0.29041 0.6475 0.33212 0.0
H1756 H 0.26823 0.53893 0.28041 0.0
H1757 H 0.29221 0.58781 0.25629 0.0
H1758 H 0.38459 0.7 0.29898 0.0
H1759 H 0.31288 0.69816 0.29348 0.0
Li1760 Li 0.66094 0.91382 0.45672 0.0
Li1761 Li 0.62662 0.8978 0.44886 0.0
Li1762 Li 0.66098 0.87511 0.45112 0.0
Li1763 Li 0.65843 0.90443 0.43667 0.0
C1764 C 0.64133 0.89403 0.47404 0.0
N1765 N 0.64021 0.90651 0.49652 0.0
C1766 C 0.62242 0.90489 0.47844 0.0
C1767 C 0.65956 0.8893 0.4811 0.0
C1768 C 0.6222 0.9111 0.48982 0.0
C1769 C 0.65871 0.89582 0.49243 0.0
C1770 C 0.64189 0.94508 0.43829 0.0
C1771 C 0.63126 0.96446 0.4212 0.0
N1772 N 0.64614 0.9811 0.42369 0.0
C1773 C 0.65707 0.96238 0.44068 0.0
C1774 C 0.62883 0.94614 0.42848 0.0
C1775 C 0.65896 0.98045 0.4332 0.0
C1776 C 0.69232 0.93591 0.47147 0.0
N1777 N 0.67081 0.93504 0.46759 0.0
C1778 C 0.65969 0.96452 0.48006 0.0
C1779 C 0.65466 0.9491 0.47158 0.0
C1780 C 0.68159 0.96558 0.48434 0.0
C1781 C 0.69817 0.9513 0.47992 0.0
H1782 H 0.70482 0.92456 0.4681 0.0
H1783 H 0.63776 0.94806 0.46826 0.0
C1784 C 0.58458 0.8795 0.45509 0.0
N1785 N 0.59472 0.89735 0.45002 0.0
C1786 C 0.56116 0.87844 0.45577 0.0
C1787 C 0.55915 0.91433 0.44619 0.0
C1788 C 0.58258 0.91472 0.44572 0.0
C1789 C 0.54831 0.89599 0.45123 0.0
H1790 H 0.59471 0.86602 0.45851 0.0
H1791 H 0.59108 0.92882 0.44188 0.0
C1792 C 0.70317 0.88684 0.4467 0.0
N1793 N 0.74215 0.86173 0.44547 0.0
C1794 C 0.71278 0.88197 0.4362 0.0
C1795 C 0.71348 0.87911 0.45657 0.0
C1796 C 0.73248 0.86922 0.43576 0.0
C1797 C 0.73314 0.86637 0.45577 0.0
C1798 C 0.62223 0.8646 0.43458 0.0
C1799 C 0.61871 0.84292 0.43879 0.0
C1800 C 0.60643 0.8741 0.42725 0.0
C1801 C 0.59941 0.83112 0.43562 0.0
C1802 C 0.58732 0.86178 0.42429 0.0
N1803 N 0.58423 0.84072 0.42851 0.0
C1804 C 0.66375 0.83476 0.4635 0.0
C1805 C 0.68163 0.83392 0.44558 0.0
C1806 C 0.66655 0.81157 0.46469 0.0
N1807 N 0.67085 0.84529 0.45395 0.0
C1808 C 0.68513 0.8108 0.44651 0.0
C1809 C 0.6768 0.79933 0.45598 0.0
H1810 H 0.65466 0.84409 0.46986 0.0
H1811 H 0.68631 0.84254 0.4379 0.0
C1812 C 0.68195 0.92901 0.41947 0.0
N1813 N 0.66693 0.91229 0.42166 0.0
C1814 C 0.68694 0.93492 0.4083 0.0
C1815 C 0.66141 0.90587 0.40196 0.0
C1816 C 0.65698 0.90053 0.41318 0.0
C1817 C 0.67633 0.92337 0.39945 0.0
H1818 H 0.68986 0.93787 0.42639 0.0
H1819 H 0.64552 0.88703 0.41513 0.0
O1820 O 0.64211 0.88835 0.46285 0.0
O1821 O 0.64005 0.92707 0.44542 0.0
O1822 O 0.68387 0.89926 0.44731 0.0
O1823 O 0.64089 0.87657 0.4377 0.0
H1824 H 0.60819 0.90874 0.47308 0.0
H1825 H 0.67431 0.88089 0.47782 0.0
H1826 H 0.60775 0.91965 0.49333 0.0
H1827 H 0.67277 0.89243 0.49796 0.0
H1828 H 0.62139 0.96541 0.41354 0.0
H1829 H 0.66745 0.96178 0.44818 0.0
H1830 H 0.61724 0.93275 0.4264 0.0
H1831 H 0.67069 0.99392 0.43493 0.0
H1832 H 0.64662 0.97544 0.4833 0.0
H1833 H 0.71524 0.95189 0.48308 0.0
H1834 H 0.55315 0.86409 0.45972 0.0
H1835 H 0.54958 0.92812 0.44265 0.0
H1836 H 0.70504 0.88782 0.42847 0.0
H1837 H 0.70626 0.88274 0.46475 0.0
H1838 H 0.74005 0.86524 0.42769 0.0
H1839 H 0.74123 0.86017 0.46334 0.0
H1840 H 0.63065 0.83528 0.44449 0.0
H1841 H 0.60872 0.89096 0.42401 0.0
H1842 H 0.59647 0.81435 0.43883 0.0
H1843 H 0.5749 0.86899 0.41869 0.0
H1844 H 0.65976 0.8031 0.47204 0.0
H1845 H 0.69288 0.80171 0.4396 0.0
H1846 H 0.69871 0.94837 0.40657 0.0
H1847 H 0.65319 0.89652 0.39527 0.0
Li1848 Li 0.33721 0.41424 0.70697 0.0
Li1849 Li 0.34939 0.37833 0.70031 0.0
Li1850 Li 0.37608 0.41173 0.70114 0.0
Li1851 Li 0.34428 0.40939 0.68708 0.0
C1852 C 0.35831 0.39115 0.72467 0.0
N1853 N 0.3524 0.38339 0.74748 0.0
C1854 C 0.33849 0.38124 0.72858 0.0
C1855 C 0.37511 0.39718 0.73235 0.0
C1856 C 0.33584 0.3774 0.74015 0.0
C1857 C 0.37179 0.39313 0.74385 0.0
C1858 C 0.30653 0.37689 0.69453 0.0
C1859 C 0.29508 0.3444 0.68374 0.0
N1860 N 0.278 0.34079 0.69116 0.0
C1861 C 0.28885 0.37284 0.70205 0.0
C1862 C 0.30964 0.36257 0.68529 0.0
C1863 C 0.2746 0.35452 0.70019 0.0
C1864 C 0.29574 0.42909 0.7154 0.0
N1865 N 0.31807 0.42837 0.71778 0.0
C1866 C 0.31146 0.44184 0.7365 0.0
C1867 C 0.32623 0.43561 0.72789 0.0
C1868 C 0.28826 0.4408 0.73453 0.0
C1869 C 0.28038 0.43523 0.72374 0.0
H1870 H 0.2898 0.42381 0.70718 0.0
H1871 H 0.34412 0.43543 0.72947 0.0
C1872 C 0.36609 0.33468 0.69699 0.0
N1873 N 0.34909 0.34626 0.70202 0.0
C1874 C 0.36653 0.31122 0.69737 0.0
C1875 C 0.33225 0.31196 0.70833 0.0
C1876 C 0.33262 0.33541 0.70785 0.0
C1877 C 0.34929 0.29971 0.70298 0.0
H1878 H 0.37924 0.34366 0.6926 0.0
H1879 H 0.31956 0.34483 0.71201 0.0
C1880 C 0.3444 0.45475 0.69992 0.0
N1881 N 0.32328 0.49344 0.70724 0.0
C1882 C 0.32448 0.46185 0.69478 0.0
C1883 C 0.35365 0.46734 0.70874 0.0
C1884 C 0.31404 0.48146 0.69861 0.0
C1885 C 0.3427 0.48686 0.71232 0.0
C1886 C 0.38079 0.38644 0.67853 0.0
C1887 C 0.39825 0.40067 0.67515 0.0
C1888 C 0.37365 0.36925 0.67131 0.0
C1889 C 0.40806 0.39765 0.66453 0.0
C1890 C 0.38397 0.36671 0.66079 0.0
N1891 N 0.40078 0.38088 0.65763 0.0
C1892 C 0.42055 0.40175 0.70536 0.0
C1893 C 0.41426 0.44071 0.70229 0.0
C1894 C 0.44365 0.40529 0.70609 0.0
N1895 N 0.40649 0.4193 0.70338 0.0
C1896 C 0.43731 0.44505 0.70305 0.0
C1897 C 0.45217 0.42708 0.7048 0.0
H1898 H 0.41378 0.38492 0.70607 0.0
H1899 H 0.40265 0.45425 0.70053 0.0
C1900 C 0.31709 0.4092 0.66726 0.0
N1901 N 0.33664 0.41667 0.67189 0.0
C1902 C 0.31338 0.41124 0.65566 0.0
C1903 C 0.34916 0.43027 0.65398 0.0
C1904 C 0.35212 0.42793 0.66561 0.0
C1905 C 0.32991 0.42125 0.64889 0.0
H1906 H 0.30472 0.40094 0.67248 0.0
H1907 H 0.36724 0.43422 0.66957 0.0
O1908 O 0.36129 0.39514 0.7134 0.0
O1909 O 0.32086 0.39458 0.69627 0.0
O1910 O 0.35446 0.43525 0.69651 0.0
O1911 O 0.37101 0.3891 0.68891 0.0
H1912 H 0.32512 0.37703 0.72277 0.0
H1913 H 0.39051 0.40495 0.72944 0.0
H1914 H 0.32058 0.36977 0.7433 0.0
H1915 H 0.38462 0.39773 0.7499 0.0
H1916 H 0.29739 0.33315 0.67666 0.0
H1917 H 0.28633 0.38346 0.70936 0.0
H1918 H 0.32325 0.36539 0.67943 0.0
H1919 H 0.26093 0.35114 0.70597 0.0
H1920 H 0.31796 0.44609 0.74478 0.0
H1921 H 0.26252 0.43431 0.72202 0.0
H1922 H 0.37996 0.30213 0.69321 0.0
H1923 H 0.3188 0.30345 0.71278 0.0
H1924 H 0.31707 0.45217 0.68799 0.0
H1925 H 0.36893 0.46191 0.71288 0.0
H1926 H 0.29855 0.48711 0.69476 0.0
H1927 H 0.34957 0.4967 0.71919 0.0
H1928 H 0.40398 0.4141 0.68058 0.0
H1929 H 0.36039 0.35788 0.67382 0.0
H1930 H 0.42147 0.40866 0.66178 0.0
H1931 H 0.37859 0.35349 0.65512 0.0
H1932 H 0.45481 0.39114 0.70742 0.0
H1933 H 0.44354 0.46202 0.70196 0.0
H1934 H 0.29832 0.40419 0.65192 0.0
H1935 H 0.36216 0.43813 0.64894 0.0
Li1936 Li 0.87276 0.10466 0.94775 0.0
Li1937 Li 0.83798 0.08852 0.95564 0.0
Li1938 Li 0.8393 0.10093 0.93573 0.0
Li1939 Li 0.83916 0.12813 0.95095 0.0
C1940 C 0.8667 0.05803 0.93916 0.0
N1941 N 0.88694 0.01943 0.93105 0.0
C1942 C 0.87036 0.03973 0.94634 0.0
C1943 C 0.8732 0.05662 0.92783 0.0
C1944 C 0.88068 0.0204 0.94209 0.0
C1945 C 0.88343 0.03698 0.9239 0.0
C1946 C 0.85104 0.11796 0.97297 0.0
C1947 C 0.82171 0.12326 0.98678 0.0
N1948 N 0.83738 0.12986 0.99446 0.0
C1949 C 0.86685 0.12478 0.98099 0.0
C1950 C 0.82827 0.11718 0.97587 0.0
C1951 C 0.85961 0.13074 0.99182 0.0
C1952 C 0.91486 0.12469 0.95039 0.0
N1953 N 0.90479 0.10452 0.94845 0.0
C1954 C 0.94051 0.08621 0.94751 0.0
C1955 C 0.91707 0.08541 0.94707 0.0
C1956 C 0.95124 0.1068 0.94949 0.0
C1957 C 0.93826 0.12623 0.95097 0.0
H1958 H 0.90464 0.13959 0.95146 0.0
H1959 H 0.9088 0.06955 0.94562 0.0
C1960 C 0.80697 0.05756 0.96562 0.0
N1961 N 0.82803 0.06645 0.96599 0.0
C1962 C 0.80055 0.0412 0.97349 0.0
C1963 C 0.83755 0.04374 0.9819 0.0
C1964 C 0.84321 0.06 0.97393 0.0
C1965 C 0.81608 0.03412 0.98167 0.0
H1966 H 0.79526 0.06312 0.95922 0.0
H1967 H 0.85981 0.06742 0.97399 0.0
C1968 C 0.87144 0.13433 0.92852 0.0
N1969 N 0.89587 0.14805 0.9099 0.0
C1970 C 0.86861 0.156 0.92417 0.0
C1971 C 0.8868 0.11971 0.92345 0.0
C1972 C 0.88107 0.1626 0.91473 0.0
C1973 C 0.89898 0.12694 0.91404 0.0
C1974 C 0.79736 0.11686 0.9419 0.0
C1975 C 0.80152 0.13476 0.93453 0.0
C1976 C 0.77524 0.11015 0.94398 0.0
C1977 C 0.78345 0.14564 0.92935 0.0
C1978 C 0.75762 0.12145 0.93863 0.0
N1979 N 0.76205 0.13882 0.93149 0.0
C1980 C 0.82207 0.07283 0.9185 0.0
C1981 C 0.83122 0.10977 0.91251 0.0
C1982 C 0.81738 0.06642 0.90737 0.0
N1983 N 0.8295 0.094 0.92078 0.0
C1984 C 0.82697 0.10405 0.9013 0.0
C1985 C 0.82059 0.08201 0.89863 0.0
H1986 H 0.82061 0.0607 0.92527 0.0
H1987 H 0.83639 0.12666 0.91453 0.0
C1988 C 0.84451 0.17459 0.95311 0.0
N1989 N 0.82991 0.1575 0.95518 0.0
C1990 C 0.83826 0.19678 0.9553 0.0
C1991 C 0.80231 0.18328 0.96205 0.0
C1992 C 0.80921 0.16134 0.95968 0.0
C1993 C 0.81687 0.20122 0.9597 0.0
H1994 H 0.8609 0.17096 0.94961 0.0
H1995 H 0.79795 0.14743 0.96125 0.0
O1996 O 0.85646 0.07703 0.9432 0.0
O1997 O 0.85793 0.11202 0.96235 0.0
O1998 O 0.8593 0.12767 0.93775 0.0
O1999 O 0.81472 0.10606 0.9472 0.0
H2000 H 0.86539 0.04046 0.95512 0.0
H2001 H 0.87027 0.07041 0.92207 0.0
H2002 H 0.88368 0.00615 0.94757 0.0
H2003 H 0.88852 0.03567 0.91514 0.0
H2004 H 0.80415 0.12273 0.98914 0.0
H2005 H 0.88454 0.12546 0.97887 0.0
H2006 H 0.81579 0.11193 0.96978 0.0
H2007 H 0.87167 0.13605 0.99812 0.0
H2008 H 0.95018 0.07094 0.94636 0.0
H2009 H 0.94616 0.14235 0.95252 0.0
H2010 H 0.78382 0.03404 0.97316 0.0
H2011 H 0.84983 0.03859 0.98814 0.0
H2012 H 0.85674 0.16752 0.92798 0.0
H2013 H 0.88943 0.10303 0.92678 0.0
H2014 H 0.87897 0.17927 0.91124 0.0
H2015 H 0.91093 0.11579 0.91004 0.0
H2016 H 0.81848 0.14035 0.93288 0.0
H2017 H 0.77173 0.09638 0.9497 0.0
H2018 H 0.78644 0.15954 0.92365 0.0
H2019 H 0.74041 0.11645 0.94018 0.0
H2020 H 0.81224 0.04933 0.90555 0.0
H2021 H 0.82926 0.11652 0.89473 0.0
H2022 H 0.84985 0.21035 0.95347 0.0
H2023 H 0.78571 0.1863 0.96549 0.0
Li2024 Li 0.14925 0.62127 0.19873 0.0
Li2025 Li 0.16133 0.58543 0.20504 0.0
Li2026 Li 0.15342 0.58893 0.18549 0.0
Li2027 Li 0.12266 0.58822 0.2003 0.0
C2028 C 0.18912 0.61837 0.1867 0.0
N2029 N 0.21276 0.64501 0.17168 0.0
C2030 C 0.21238 0.62086 0.1878 0.0
C2031 C 0.17791 0.62948 0.17794 0.0
C2032 C 0.22402 0.63441 0.18014 0.0
C2033 C 0.19015 0.64283 0.17043 0.0
C2034 C 0.14532 0.61232 0.22253 0.0
C2035 C 0.13971 0.61558 0.24263 0.0
N2036 N 0.15934 0.62718 0.24348 0.0
C2037 C 0.1655 0.62416 0.2236 0.0
C2038 C 0.13232 0.60793 0.2321 0.0
C2039 C 0.17225 0.63161 0.23426 0.0
C2040 C 0.12975 0.66369 0.20183 0.0
N2041 N 0.14987 0.65321 0.20041 0.0
C2042 C 0.16917 0.68847 0.20081 0.0
C2043 C 0.16946 0.66503 0.20015 0.0
C2044 C 0.14858 0.69966 0.20192 0.0
C2045 C 0.1287 0.68711 0.20258 0.0
H2046 H 0.11448 0.65383 0.20216 0.0
H2047 H 0.18532 0.65637 0.19938 0.0
C2048 C 0.20325 0.57438 0.21443 0.0
N2049 N 0.18073 0.57239 0.21601 0.0
C2050 C 0.21807 0.56871 0.2231 0.0
C2051 C 0.18628 0.55761 0.23457 0.0
C2052 C 0.17205 0.5637 0.22571 0.0
C2053 C 0.20949 0.5609 0.2334 0.0
H2054 H 0.20962 0.58135 0.20664 0.0
H2055 H 0.15404 0.56252 0.22676 0.0
C2056 C 0.11082 0.61763 0.18081 0.0
N2057 N 0.07685 0.63353 0.16702 0.0
C2058 C 0.09301 0.60356 0.17772 0.0
C2059 C 0.11144 0.63972 0.17678 0.0
C2060 C 0.07596 0.61194 0.17078 0.0
C2061 C 0.0941 0.64746 0.16984 0.0
C2062 C 0.15248 0.54449 0.19959 0.0
C2063 C 0.1732 0.53686 0.19556 0.0
C2064 C 0.14141 0.53251 0.20808 0.0
C2065 C 0.18261 0.5174 0.20018 0.0
C2066 C 0.15136 0.5131 0.21247 0.0
N2067 N 0.17159 0.50603 0.20848 0.0
C2068 C 0.18172 0.57448 0.16746 0.0
C2069 C 0.14505 0.58577 0.16207 0.0
C2070 C 0.18775 0.57136 0.15614 0.0
N2071 N 0.1607 0.58174 0.17018 0.0
C2072 C 0.15046 0.58333 0.1507 0.0
C2073 C 0.1721 0.57636 0.14763 0.0
H2074 H 0.19397 0.57169 0.17406 0.0
H2075 H 0.1285 0.5914 0.16438 0.0
C2076 C 0.07891 0.59805 0.20685 0.0
N2077 N 0.09232 0.58106 0.20319 0.0
C2078 C 0.05582 0.5947 0.20791 0.0
C2079 C 0.06094 0.55618 0.2018 0.0
C2080 C 0.08396 0.56031 0.20079 0.0
C2081 C 0.04665 0.57369 0.20518 0.0
H2082 H 0.08612 0.6144 0.20856 0.0
H2083 H 0.09502 0.54727 0.19769 0.0
O2084 O 0.17763 0.60497 0.19414 0.0
O2085 O 0.13841 0.60478 0.21218 0.0
O2086 O 0.12757 0.60982 0.18772 0.0
O2087 O 0.14327 0.56379 0.19534 0.0
H2088 H 0.22137 0.61246 0.19453 0.0
H2089 H 0.16 0.62779 0.17688 0.0
H2090 H 0.24202 0.63648 0.18091 0.0
H2091 H 0.18167 0.65145 0.1636 0.0
H2092 H 0.12984 0.61228 0.25013 0.0
H2093 H 0.17595 0.62734 0.21629 0.0
H2094 H 0.11671 0.59867 0.2314 0.0
H2095 H 0.18785 0.64077 0.23522 0.0
H2096 H 0.18479 0.69779 0.20038 0.0
H2097 H 0.11257 0.69537 0.20348 0.0
H2098 H 0.23594 0.57144 0.22199 0.0
H2099 H 0.17924 0.5517 0.24247 0.0
H2100 H 0.09249 0.58627 0.18051 0.0
H2101 H 0.12523 0.65079 0.17892 0.0
H2102 H 0.06208 0.60124 0.16835 0.0
H2103 H 0.09437 0.66452 0.16668 0.0
H2104 H 0.18203 0.54601 0.18904 0.0
H2105 H 0.12547 0.53832 0.21138 0.0
H2106 H 0.19871 0.51138 0.1972 0.0
H2107 H 0.14305 0.50374 0.2191 0.0
H2108 H 0.20457 0.56582 0.15402 0.0
H2109 H 0.13796 0.58716 0.14433 0.0
H2110 H 0.04512 0.60852 0.21048 0.0
H2111 H 0.05422 0.53984 0.19957 0.0
Li2112 Li 0.34189 0.90457 0.43582 0.0
Li2113 Li 0.33756 0.9126 0.45536 0.0
Li2114 Li 0.37295 0.89824 0.44854 0.0
Li2115 Li 0.33912 0.87309 0.45023 0.0
C2116 C 0.35818 0.94502 0.43756 0.0
N2117 N 0.35638 0.98058 0.42255 0.0
C2118 C 0.34246 0.96223 0.43908 0.0
C2119 C 0.37306 0.94597 0.42843 0.0
C2120 C 0.34183 0.98007 0.43141 0.0
C2121 C 0.37183 0.96405 0.42092 0.0
C2122 C 0.29506 0.90138 0.44896 0.0
C2123 C 0.25991 0.89207 0.45795 0.0
N2124 N 0.25217 0.9131 0.45566 0.0
C2125 C 0.28674 0.92287 0.44664 0.0
C2126 C 0.28156 0.88581 0.45462 0.0
C2127 C 0.26502 0.92849 0.45013 0.0
C2128 C 0.34348 0.89842 0.41245 0.0
N2129 N 0.33423 0.91171 0.42055 0.0
C2130 C 0.31617 0.93425 0.40646 0.0
C2131 C 0.32044 0.92915 0.41779 0.0
C2132 C 0.32607 0.92107 0.39801 0.0
C2133 C 0.33965 0.90285 0.40106 0.0
H2134 H 0.35391 0.88435 0.41481 0.0
H2135 H 0.31296 0.93928 0.42435 0.0
C2136 C 0.34052 0.95055 0.46871 0.0
N2137 N 0.32641 0.93309 0.46656 0.0
C2138 C 0.33553 0.96598 0.47719 0.0
C2139 C 0.30147 0.94526 0.4812 0.0
C2140 C 0.30728 0.93002 0.4727 0.0
C2141 C 0.31587 0.96332 0.48353 0.0
H2142 H 0.35597 0.95221 0.46398 0.0
H2143 H 0.29684 0.91548 0.47127 0.0
C2144 C 0.37902 0.86564 0.43355 0.0
N2145 N 0.41729 0.84331 0.42651 0.0
C2146 C 0.38288 0.84344 0.43691 0.0
C2147 C 0.39455 0.8764 0.42652 0.0
C2148 C 0.40234 0.83246 0.43328 0.0
C2149 C 0.4138 0.86485 0.42307 0.0
C2150 C 0.35266 0.8909 0.47338 0.0
C2151 C 0.36747 0.90381 0.47984 0.0
C2152 C 0.33371 0.88135 0.47844 0.0
C2153 C 0.36303 0.90699 0.49132 0.0
C2154 C 0.32988 0.8849 0.48995 0.0
N2155 N 0.3445 0.89752 0.4961 0.0
C2156 C 0.41681 0.91679 0.44739 0.0
C2157 C 0.4149 0.87929 0.45417 0.0
C2158 C 0.44024 0.91644 0.448 0.0
N2159 N 0.40473 0.89826 0.4503 0.0
C2160 C 0.43831 0.87812 0.45481 0.0
C2161 C 0.45113 0.89683 0.45161 0.0
H2162 H 0.40827 0.93175 0.4445 0.0
H2163 H 0.40482 0.86491 0.45654 0.0
C2164 C 0.31601 0.83314 0.44526 0.0
N2165 N 0.33028 0.8431 0.4527 0.0
C2166 C 0.3122 0.81 0.44582 0.0
C2167 C 0.3373 0.8081 0.4619 0.0
C2168 C 0.34059 0.83125 0.46104 0.0
C2169 C 0.32338 0.79727 0.45405 0.0
H2170 H 0.30839 0.84302 0.43861 0.0
H2171 H 0.35225 0.8396 0.46666 0.0
O2172 O 0.35891 0.92727 0.44492 0.0
O2173 O 0.31616 0.89543 0.44552 0.0
O2174 O 0.36018 0.87679 0.43712 0.0
O2175 O 0.35654 0.88784 0.4621 0.0
H2176 H 0.33066 0.96171 0.44602 0.0
H2177 H 0.38526 0.93278 0.42708 0.0
H2178 H 0.32969 0.99344 0.43246 0.0
H2179 H 0.38313 0.96491 0.41377 0.0
H2180 H 0.24928 0.88021 0.46236 0.0
H2181 H 0.29703 0.93516 0.44236 0.0
H2182 H 0.28775 0.8691 0.45647 0.0
H2183 H 0.25841 0.94511 0.44846 0.0
H2184 H 0.30549 0.94836 0.40431 0.0
H2185 H 0.34734 0.8923 0.39468 0.0
H2186 H 0.34703 0.97968 0.47891 0.0
H2187 H 0.28633 0.94268 0.48611 0.0
H2188 H 0.37104 0.83476 0.44228 0.0
H2189 H 0.39184 0.89356 0.42382 0.0
H2190 H 0.40557 0.81531 0.43586 0.0
H2191 H 0.42599 0.87303 0.41767 0.0
H2192 H 0.38216 0.91138 0.47601 0.0
H2193 H 0.32195 0.87152 0.47351 0.0
H2194 H 0.37428 0.91701 0.49644 0.0
H2195 H 0.31523 0.87769 0.49398 0.0
H2196 H 0.4498 0.93113 0.44551 0.0
H2197 H 0.44634 0.86279 0.45766 0.0
H2198 H 0.30151 0.80196 0.43961 0.0
H2199 H 0.34629 0.79858 0.46826 0.0
Li2200 Li 0.85062 0.62703 0.20059 0.0
Li2201 Li 0.87413 0.59225 0.20078 0.0
Li2202 Li 0.84406 0.59615 0.18697 0.0
Li2203 Li 0.83583 0.58865 0.20643 0.0
C2204 C 0.87842 0.62041 0.17843 0.0
N2205 N 0.89393 0.63054 0.15704 0.0
C2206 C 0.89507 0.60715 0.17344 0.0
C2207 C 0.86944 0.63863 0.1725 0.0
C2208 C 0.90273 0.61259 0.16262 0.0
C2209 C 0.87751 0.64349 0.16169 0.0
C2210 C 0.87664 0.60806 0.22124 0.0
C2211 C 0.89998 0.5894 0.23501 0.0
N2212 N 0.91331 0.60796 0.23556 0.0
C2213 C 0.89044 0.62702 0.22201 0.0
C2214 C 0.88131 0.58916 0.22785 0.0
C2215 C 0.90894 0.62661 0.22928 0.0
C2216 C 0.83333 0.66834 0.20874 0.0
N2217 N 0.85036 0.6585 0.20289 0.0
C2218 C 0.86672 0.69425 0.19883 0.0
C2219 C 0.86714 0.67084 0.19817 0.0
C2220 C 0.84897 0.70484 0.20448 0.0
C2221 C 0.83227 0.69175 0.20963 0.0
H2222 H 0.82027 0.65802 0.21243 0.0
H2223 H 0.88063 0.6625 0.19372 0.0
C2224 C 0.91152 0.56265 0.20508 0.0
N2225 N 0.90463 0.58399 0.20279 0.0
C2226 C 0.93446 0.55788 0.20608 0.0
C2227 C 0.94251 0.5971 0.20238 0.0
C2228 C 0.91955 0.60109 0.20147 0.0
C2229 C 0.9501 0.57529 0.20464 0.0
H2230 H 0.8993 0.54935 0.20598 0.0
H2231 H 0.91353 0.61785 0.1996 0.0
C2232 C 0.80278 0.61781 0.19104 0.0
N2233 N 0.76355 0.62972 0.18007 0.0
C2234 C 0.78641 0.60159 0.18876 0.0
C2235 C 0.79923 0.64009 0.1877 0.0
C2236 C 0.76667 0.60795 0.18322 0.0
C2237 C 0.77929 0.64577 0.18216 0.0
C2238 C 0.84428 0.54827 0.19808 0.0
C2239 C 0.82938 0.53781 0.19061 0.0
C2240 C 0.85043 0.53735 0.20807 0.0
C2241 C 0.8208 0.5166 0.19329 0.0
C2242 C 0.84143 0.51618 0.21046 0.0
N2243 N 0.82694 0.50632 0.20308 0.0
C2244 C 0.84678 0.57271 0.16643 0.0
C2245 C 0.82491 0.60596 0.1653 0.0
C2246 C 0.8444 0.56912 0.15482 0.0
N2247 N 0.83709 0.5909 0.17142 0.0
C2248 C 0.822 0.60296 0.15371 0.0
C2249 C 0.83205 0.58452 0.14838 0.0
H2250 H 0.85701 0.5614 0.1714 0.0
H2251 H 0.81832 0.62086 0.16926 0.0
C2252 C 0.81563 0.58358 0.22749 0.0
N2253 N 0.81481 0.57579 0.2167 0.0
C2254 C 0.79868 0.57806 0.23514 0.0
C2255 C 0.78094 0.55559 0.22062 0.0
C2256 C 0.7981 0.56179 0.2132 0.0
C2257 C 0.78083 0.56442 0.2316 0.0
H2258 H 0.82887 0.59498 0.23001 0.0
H2259 H 0.79748 0.55619 0.20455 0.0
O2260 O 0.87114 0.61572 0.18913 0.0
O2261 O 0.85895 0.60783 0.21387 0.0
O2262 O 0.82199 0.61208 0.1967 0.0
O2263 O 0.85297 0.56898 0.19558 0.0
H2264 H 0.90207 0.59287 0.17789 0.0
H2265 H 0.85633 0.64888 0.1762 0.0
H2266 H 0.91569 0.60255 0.15866 0.0
H2267 H 0.87075 0.65756 0.15701 0.0
H2268 H 0.9039 0.57483 0.24011 0.0
H2269 H 0.88708 0.64177 0.21693 0.0
H2270 H 0.87071 0.57441 0.22739 0.0
H2271 H 0.91988 0.64109 0.2299 0.0
H2272 H 0.87985 0.70401 0.19481 0.0
H2273 H 0.81837 0.69958 0.21404 0.0
H2274 H 0.93997 0.54085 0.20777 0.0
H2275 H 0.95428 0.6108 0.20118 0.0
H2276 H 0.78896 0.58426 0.19118 0.0
H2277 H 0.81182 0.65282 0.18923 0.0
H2278 H 0.75384 0.59557 0.18142 0.0
H2279 H 0.77636 0.66293 0.1795 0.0
H2280 H 0.82423 0.54608 0.1829 0.0
H2281 H 0.86185 0.54522 0.21397 0.0
H2282 H 0.80919 0.50835 0.18761 0.0
H2283 H 0.84596 0.50759 0.21819 0.0
H2284 H 0.85272 0.55497 0.15086 0.0
H2285 H 0.81281 0.61539 0.14886 0.0
H2286 H 0.79895 0.58516 0.24357 0.0
H2287 H 0.76726 0.5451 0.21766 0.0
Li2288 Li 0.12694 0.10804 0.94966 0.0
Li2289 Li 0.16161 0.1319 0.95196 0.0
Li2290 Li 0.15825 0.10103 0.93717 0.0
Li2291 Li 0.16145 0.09211 0.95676 0.0
C2292 C 0.12269 0.14146 0.93495 0.0
N2293 N 0.08532 0.16525 0.92794 0.0
C2294 C 0.1193 0.16352 0.93866 0.0
C2295 C 0.10719 0.13159 0.92759 0.0
C2296 C 0.10028 0.17525 0.93503 0.0
C2297 C 0.08836 0.14386 0.92417 0.0
C2298 C 0.14716 0.11398 0.97479 0.0
C2299 C 0.17102 0.11812 0.99113 0.0
N2300 N 0.1558 0.10651 0.9974 0.0
C2301 C 0.13174 0.10209 0.98139 0.0
C2302 C 0.16697 0.12207 0.97967 0.0
C2303 C 0.13643 0.09847 0.99282 0.0
C2304 C 0.08354 0.08908 0.94833 0.0
N2305 N 0.09497 0.10821 0.95092 0.0
C2306 C 0.06056 0.12794 0.95417 0.0
C2307 C 0.08404 0.1273 0.95407 0.0
C2308 C 0.04844 0.10858 0.95126 0.0
C2309 C 0.06009 0.08888 0.94846 0.0
H2310 H 0.09262 0.07401 0.94608 0.0
H2311 H 0.09356 0.14214 0.95629 0.0
C2312 C 0.18906 0.16973 0.94848 0.0
N2313 N 0.17283 0.16095 0.95519 0.0
C2314 C 0.19767 0.19115 0.95064 0.0
C2315 C 0.17214 0.19435 0.96634 0.0
C2316 C 0.16398 0.17292 0.96385 0.0
C2317 C 0.19023 0.20368 0.96012 0.0
H2318 H 0.19511 0.16016 0.94133 0.0
H2319 H 0.15029 0.16593 0.96874 0.0
C2320 C 0.14005 0.06096 0.93857 0.0
N2321 N 0.13997 0.02522 0.92363 0.0
C2322 C 0.1545 0.04273 0.94027 0.0
C2323 C 0.12548 0.06094 0.9293 0.0
C2324 C 0.1542 0.02483 0.93262 0.0
C2325 C 0.12573 0.04274 0.92183 0.0
C2326 C 0.20461 0.10111 0.95033 0.0
C2327 C 0.21119 0.07916 0.94772 0.0
C2328 C 0.21954 0.11542 0.95595 0.0
C2329 C 0.23263 0.07183 0.95083 0.0
C2330 C 0.24085 0.10747 0.95888 0.0
N2331 N 0.24689 0.08602 0.95629 0.0
C2332 C 0.15807 0.10809 0.91383 0.0
C2333 C 0.17829 0.07537 0.91909 0.0
C2334 C 0.16148 0.10343 0.90243 0.0
N2335 N 0.16605 0.09391 0.9219 0.0
C2336 C 0.18206 0.07001 0.90775 0.0
C2337 C 0.17329 0.08404 0.89933 0.0
H2338 H 0.1488 0.12293 0.91624 0.0
H2339 H 0.18472 0.06446 0.92561 0.0
C2340 C 0.15643 0.05402 0.96986 0.0
N2341 N 0.17145 0.07075 0.9678 0.0
C2342 C 0.16084 0.03786 0.97808 0.0
C2343 C 0.19608 0.05649 0.98209 0.0
C2344 C 0.19088 0.07246 0.97384 0.0
C2345 C 0.18085 0.03904 0.98425 0.0
H2346 H 0.1408 0.05343 0.96521 0.0
H2347 H 0.2021 0.08644 0.97248 0.0
O2348 O 0.14103 0.12957 0.93856 0.0
O2349 O 0.1431 0.11733 0.96355 0.0
O2350 O 0.14017 0.07874 0.94592 0.0
O2351 O 0.18379 0.10871 0.94728 0.0
H2352 H 0.13114 0.17144 0.94434 0.0
H2353 H 0.10956 0.11455 0.92463 0.0
H2354 H 0.09738 0.19229 0.93788 0.0
H2355 H 0.07615 0.13636 0.91854 0.0
H2356 H 0.18633 0.12418 0.99501 0.0
H2357 H 0.1164 0.09562 0.9777 0.0
H2358 H 0.17925 0.13099 0.97463 0.0
H2359 H 0.1247 0.08923 0.99803 0.0
H2360 H 0.05194 0.14334 0.95643 0.0
H2361 H 0.0511 0.07367 0.94624 0.0
H2362 H 0.20943 0.19753 0.94455 0.0
H2363 H 0.16359 0.20357 0.97292 0.0
H2364 H 0.16603 0.04248 0.94732 0.0
H2365 H 0.11423 0.0749 0.92783 0.0
H2366 H 0.16537 0.01067 0.93381 0.0
H2367 H 0.11464 0.04258 0.91459 0.0
H2368 H 0.19976 0.06779 0.94354 0.0
H2369 H 0.2147 0.13244 0.95806 0.0
H2370 H 0.23789 0.05483 0.94893 0.0
H2371 H 0.25257 0.11834 0.96325 0.0
H2372 H 0.15466 0.11462 0.89608 0.0
H2373 H 0.19134 0.05496 0.90556 0.0
H2374 H 0.14869 0.02467 0.97968 0.0
H2375 H 0.21151 0.05795 0.98689 0.0
Li2376 Li 0.64928 0.37514 0.69934 0.0
Li2377 Li 0.62438 0.40802 0.70097 0.0
Li2378 Li 0.65334 0.40673 0.68618 0.0
Li2379 Li 0.66286 0.41207 0.70619 0.0
C2380 C 0.61716 0.38327 0.6782 0.0
N2381 N 0.59712 0.37766 0.65732 0.0
C2382 C 0.5986 0.39637 0.67516 0.0
C2383 C 0.62543 0.36722 0.67064 0.0
C2384 C 0.58875 0.39332 0.66456 0.0
C2385 C 0.61507 0.36464 0.66012 0.0
C2386 C 0.62432 0.38986 0.72119 0.0
C2387 C 0.60027 0.4067 0.73524 0.0
N2388 N 0.58987 0.38654 0.73674 0.0
C2389 C 0.61353 0.36928 0.72293 0.0
C2390 C 0.61779 0.4087 0.72745 0.0
C2391 C 0.59611 0.36796 0.73082 0.0
C2392 C 0.66754 0.3334 0.7069 0.0
N2393 N 0.6509 0.34336 0.7008 0.0
C2394 C 0.63499 0.30763 0.69622 0.0
C2395 C 0.63462 0.33104 0.69564 0.0
C2396 C 0.65216 0.29694 0.70227 0.0
C2397 C 0.66854 0.30996 0.70772 0.0
H2398 H 0.68008 0.34364 0.71106 0.0
H2399 H 0.62133 0.33941 0.69106 0.0
C2400 C 0.58713 0.4377 0.70369 0.0
N2401 N 0.59401 0.41588 0.70366 0.0
C2402 C 0.56424 0.44279 0.70443 0.0
C2403 C 0.55623 0.40292 0.7054 0.0
C2404 C 0.57916 0.39861 0.70451 0.0
C2405 C 0.54862 0.42519 0.7052 0.0
H2406 H 0.59934 0.45105 0.70279 0.0
H2407 H 0.58512 0.38145 0.70414 0.0
C2408 C 0.69391 0.3767 0.69327 0.0
N2409 N 0.72818 0.34614 0.68977 0.0
C2410 C 0.71304 0.37715 0.70011 0.0
C2411 C 0.69217 0.36068 0.68467 0.0
C2412 C 0.73022 0.3616 0.69818 0.0
C2413 C 0.70965 0.34534 0.68305 0.0
C2414 C 0.65428 0.45269 0.69827 0.0
C2415 C 0.66928 0.46215 0.69053 0.0
C2416 C 0.64928 0.46409 0.70828 0.0
C2417 C 0.67926 0.48284 0.69301 0.0
C2418 C 0.65964 0.48472 0.71046 0.0
N2419 N 0.67429 0.49359 0.70284 0.0
C2420 C 0.64387 0.42409 0.66462 0.0
C2421 C 0.67966 0.4068 0.66618 0.0
C2422 C 0.64626 0.42579 0.65293 0.0
N2423 N 0.66001 0.41379 0.67089 0.0
C2424 C 0.6829 0.40844 0.65453 0.0
C2425 C 0.66568 0.41729 0.64779 0.0
H2426 H 0.62867 0.43001 0.66864 0.0
H2427 H 0.69245 0.39919 0.67139 0.0
C2428 C 0.68212 0.41912 0.72742 0.0
N2429 N 0.68408 0.42472 0.71633 0.0
C2430 C 0.69918 0.42456 0.73501 0.0
C2431 C 0.71948 0.44246 0.71976 0.0
C2432 C 0.70212 0.43642 0.71241 0.0
C2433 C 0.71834 0.43583 0.73111 0.0
H2434 H 0.66783 0.40944 0.73026 0.0
H2435 H 0.70355 0.44007 0.70349 0.0
O2436 O 0.62707 0.38602 0.68855 0.0
O2437 O 0.64109 0.39161 0.71334 0.0
O2438 O 0.67713 0.39209 0.69488 0.0
O2439 O 0.64443 0.43242 0.69602 0.0
H2440 H 0.59203 0.40897 0.68085 0.0
H2441 H 0.63968 0.35684 0.67286 0.0
H2442 H 0.57447 0.40344 0.66208 0.0
H2443 H 0.6213 0.35229 0.65419 0.0
H2444 H 0.5949 0.42117 0.74007 0.0
H2445 H 0.61842 0.35453 0.71817 0.0
H2446 H 0.62602 0.42473 0.7262 0.0
H2447 H 0.58751 0.35217 0.73221 0.0
H2448 H 0.62207 0.29793 0.69199 0.0
H2449 H 0.68197 0.30207 0.71246 0.0
H2450 H 0.55872 0.46013 0.70413 0.0
H2451 H 0.54447 0.38904 0.70583 0.0
H2452 H 0.71467 0.38944 0.7068 0.0
H2453 H 0.67749 0.36013 0.6793 0.0
H2454 H 0.74519 0.36183 0.70337 0.0
H2455 H 0.70851 0.33283 0.67644 0.0
H2456 H 0.67329 0.45354 0.68273 0.0
H2457 H 0.63763 0.457 0.71433 0.0
H2458 H 0.69098 0.49033 0.68712 0.0
H2459 H 0.65604 0.49368 0.7182 0.0
H2460 H 0.63275 0.43279 0.6479 0.0
H2461 H 0.69811 0.40183 0.65075 0.0
H2462 H 0.69791 0.41915 0.74373 0.0
H2463 H 0.73418 0.45107 0.71652 0.0
Li2464 Li 0.33933 0.12732 0.54756 0.0
Li2465 Li 0.37319 0.10436 0.55008 0.0
Li2466 Li 0.33706 0.0874 0.54288 0.0
Li2467 Li 0.34142 0.09767 0.56275 0.0
C2468 C 0.35624 0.12268 0.52605 0.0
N2469 N 0.35531 0.14701 0.50616 0.0
C2470 C 0.37485 0.1355 0.52281 0.0
C2471 C 0.33735 0.12186 0.51905 0.0
C2472 C 0.374 0.1478 0.51277 0.0
C2473 C 0.33716 0.13437 0.50906 0.0
C2474 C 0.37683 0.13572 0.56659 0.0
C2475 C 0.40893 0.13328 0.579 0.0
N2476 N 0.4125 0.15572 0.5777 0.0
C2477 C 0.38066 0.15882 0.5655 0.0
C2478 C 0.39092 0.12291 0.57351 0.0
C2479 C 0.39882 0.16859 0.57115 0.0
C2480 C 0.30826 0.16359 0.54642 0.0
N2481 N 0.32966 0.15693 0.54415 0.0
C2482 C 0.34014 0.19439 0.53918 0.0
C2483 C 0.34545 0.17173 0.54046 0.0
C2484 C 0.31843 0.2018 0.5418 0.0
C2485 C 0.30217 0.18616 0.54522 0.0
H2486 H 0.29618 0.15158 0.5496 0.0
H2487 H 0.3625 0.16614 0.53908 0.0
C2488 C 0.41628 0.0845 0.54935 0.0
N2489 N 0.40509 0.10442 0.54891 0.0
C2490 C 0.43974 0.08414 0.54933 0.0
C2491 C 0.43969 0.12477 0.5482 0.0
C2492 C 0.41625 0.12432 0.54808 0.0
C2493 C 0.45159 0.1045 0.54894 0.0
H2494 H 0.40697 0.06892 0.54987 0.0
H2495 H 0.40694 0.13988 0.54754 0.0
C2496 C 0.29437 0.10024 0.54956 0.0
N2497 N 0.25066 0.08984 0.54364 0.0
C2498 C 0.28115 0.08696 0.55669 0.0
C2499 C 0.28522 0.10854 0.53952 0.0
C2500 C 0.25912 0.08182 0.55353 0.0
C2501 C 0.26314 0.103 0.53665 0.0
C2502 C 0.36032 0.05636 0.56071 0.0
C2503 C 0.34513 0.03867 0.55922 0.0
C2504 C 0.37692 0.0547 0.56902 0.0
C2505 C 0.34651 0.01982 0.56623 0.0
C2506 C 0.37772 0.03561 0.57589 0.0
N2507 N 0.36261 0.01872 0.57437 0.0
C2508 C 0.33905 0.06283 0.52311 0.0
C2509 C 0.30737 0.05296 0.53423 0.0
C2510 C 0.33387 0.04616 0.51527 0.0
N2511 N 0.32594 0.06585 0.53239 0.0
C2512 C 0.30158 0.03599 0.5266 0.0
C2513 C 0.31515 0.03238 0.5171 0.0
H2514 H 0.35395 0.073 0.52197 0.0
H2515 H 0.29758 0.05516 0.54182 0.0
C2516 C 0.34023 0.10599 0.58596 0.0
N2517 N 0.33378 0.09077 0.57804 0.0
C2518 C 0.33694 0.1016 0.59739 0.0
C2519 C 0.31894 0.06655 0.59237 0.0
C2520 C 0.32289 0.0715 0.58099 0.0
C2521 C 0.3265 0.08155 0.60068 0.0
H2522 H 0.3481 0.12153 0.58344 0.0
H2523 H 0.3174 0.05989 0.57454 0.0
O2524 O 0.35674 0.11064 0.5359 0.0
O2525 O 0.35932 0.12575 0.56098 0.0
O2526 O 0.316 0.10538 0.55252 0.0
O2527 O 0.3591 0.07502 0.55396 0.0
H2528 H 0.38972 0.13611 0.52805 0.0
H2529 H 0.32308 0.11152 0.52124 0.0
H2530 H 0.3882 0.15797 0.51022 0.0
H2531 H 0.3226 0.13395 0.50358 0.0
H2532 H 0.42007 0.12349 0.58429 0.0
H2533 H 0.36973 0.16912 0.56037 0.0
H2534 H 0.38799 0.10514 0.5746 0.0
H2535 H 0.40204 0.18642 0.57033 0.0
H2536 H 0.35307 0.2062 0.53666 0.0
H2537 H 0.28533 0.19154 0.54741 0.0
H2538 H 0.44857 0.06825 0.54986 0.0
H2539 H 0.44846 0.14072 0.54783 0.0
H2540 H 0.28784 0.08063 0.56456 0.0
H2541 H 0.295 0.1193 0.53405 0.0
H2542 H 0.24875 0.07144 0.55893 0.0
H2543 H 0.25588 0.10924 0.52887 0.0
H2544 H 0.33226 0.03956 0.55281 0.0
H2545 H 0.38915 0.06793 0.57015 0.0
H2546 H 0.33475 0.0061 0.56522 0.0
H2547 H 0.3904 0.0342 0.5824 0.0
H2548 H 0.34473 0.04355 0.50805 0.0
H2549 H 0.28717 0.02536 0.52824 0.0
H2550 H 0.34263 0.11368 0.60362 0.0
H2551 H 0.31051 0.05107 0.59468 0.0
Li2552 Li 0.66073 0.5909 0.2924 0.0
Li2553 Li 0.65251 0.59438 0.31207 0.0
Li2554 Li 0.62124 0.59278 0.29763 0.0
Li2555 Li 0.64664 0.62646 0.29947 0.0
C2556 C 0.6539 0.54882 0.30234 0.0
N2557 N 0.67525 0.50761 0.30314 0.0
C2558 C 0.67586 0.54724 0.30642 0.0
C2559 C 0.64276 0.52947 0.29866 0.0
C2560 C 0.68639 0.52625 0.30675 0.0
C2561 C 0.65385 0.50878 0.29914 0.0
C2562 C 0.69433 0.61417 0.30942 0.0
C2563 C 0.71498 0.63267 0.32432 0.0
N2564 N 0.73311 0.61952 0.32201 0.0
C2565 C 0.71322 0.6009 0.30718 0.0
C2566 C 0.69525 0.63026 0.31803 0.0
C2567 C 0.73265 0.60385 0.31365 0.0
C2568 C 0.69736 0.59405 0.27834 0.0
N2569 N 0.68097 0.5794 0.28143 0.0
C2570 C 0.69394 0.55237 0.26797 0.0
C2571 C 0.67887 0.55889 0.27643 0.0
C2572 C 0.71101 0.56727 0.26471 0.0
C2573 C 0.7127 0.58827 0.26997 0.0
H2574 H 0.69826 0.61043 0.28229 0.0
H2575 H 0.66527 0.54782 0.27881 0.0
C2576 C 0.63965 0.58667 0.33407 0.0
N2577 N 0.65833 0.58668 0.32746 0.0
C2578 C 0.64155 0.58471 0.34576 0.0
C2579 C 0.68183 0.58137 0.34363 0.0
C2580 C 0.67912 0.58323 0.33194 0.0
C2581 C 0.66289 0.58268 0.35063 0.0
H2582 H 0.62329 0.58912 0.33029 0.0
H2583 H 0.69372 0.58266 0.32656 0.0
C2584 C 0.63853 0.6058 0.27453 0.0
N2585 N 0.64417 0.59586 0.25192 0.0
C2586 C 0.65118 0.62007 0.26764 0.0
C2587 C 0.6287 0.58651 0.26994 0.0
C2588 C 0.65386 0.61473 0.25622 0.0
C2589 C 0.63177 0.58177 0.25848 0.0
C2590 C 0.61622 0.63096 0.31651 0.0
C2591 C 0.59459 0.6385 0.3139 0.0
C2592 C 0.62848 0.6416 0.32504 0.0
C2593 C 0.58573 0.65688 0.31975 0.0
C2594 C 0.61904 0.65993 0.3307 0.0
N2595 N 0.59805 0.66715 0.32795 0.0
C2596 C 0.58279 0.56547 0.30024 0.0
C2597 C 0.57803 0.59809 0.28892 0.0
C2598 C 0.55986 0.56063 0.29949 0.0
N2599 N 0.59122 0.58412 0.29512 0.0
C2600 C 0.55503 0.59398 0.28801 0.0
C2601 C 0.54574 0.57532 0.29353 0.0
H2602 H 0.59373 0.55485 0.30522 0.0
H2603 H 0.58528 0.61289 0.28505 0.0
C2604 C 0.66659 0.6697 0.29992 0.0
N2605 N 0.64703 0.65835 0.29824 0.0
C2606 C 0.66683 0.69316 0.29979 0.0
C2607 C 0.62704 0.69281 0.2956 0.0
C2608 C 0.62755 0.66933 0.29586 0.0
C2609 C 0.64682 0.70489 0.29774 0.0
H2610 H 0.68198 0.66058 0.30142 0.0
H2611 H 0.61237 0.65985 0.29429 0.0
O2612 O 0.64339 0.56922 0.30179 0.0
O2613 O 0.67519 0.61164 0.30312 0.0
O2614 O 0.63612 0.61044 0.28576 0.0
O2615 O 0.62534 0.61325 0.31073 0.0
H2616 H 0.68472 0.56206 0.30921 0.0
H2617 H 0.62577 0.53046 0.29542 0.0
H2618 H 0.70342 0.5248 0.30987 0.0
H2619 H 0.64545 0.49366 0.29631 0.0
H2620 H 0.71587 0.645 0.33102 0.0
H2621 H 0.71288 0.58831 0.3006 0.0
H2622 H 0.68091 0.64079 0.31985 0.0
H2623 H 0.74734 0.59363 0.31203 0.0
H2624 H 0.6921 0.53618 0.26389 0.0
H2625 H 0.72557 0.60018 0.26749 0.0
H2626 H 0.62664 0.58574 0.35098 0.0
H2627 H 0.69852 0.57975 0.34719 0.0
H2628 H 0.65898 0.63501 0.27111 0.0
H2629 H 0.61901 0.5752 0.2752 0.0
H2630 H 0.66371 0.62555 0.25079 0.0
H2631 H 0.62435 0.56685 0.25481 0.0
H2632 H 0.58483 0.63037 0.30736 0.0
H2633 H 0.64506 0.63573 0.3273 0.0
H2634 H 0.56908 0.66301 0.31777 0.0
H2635 H 0.62839 0.66838 0.33729 0.0
H2636 H 0.55306 0.54615 0.30386 0.0
H2637 H 0.54447 0.60563 0.28339 0.0
H2638 H 0.6824 0.70209 0.30134 0.0
H2639 H 0.61139 0.70147 0.2939 0.0
Li2640 Li 0.162 0.91083 0.04183 0.0
Li2641 Li 0.15891 0.9003 0.06174 0.0
Li2642 Li 0.15912 0.87138 0.04634 0.0
Li2643 Li 0.12564 0.8946 0.04942 0.0
C2644 C 0.20444 0.89977 0.04822 0.0
N2645 N 0.2469 0.91486 0.04257 0.0
C2646 C 0.21681 0.91265 0.05589 0.0
C2647 C 0.21376 0.89432 0.03773 0.0
C2648 C 0.23823 0.92017 0.05286 0.0
C2649 C 0.23521 0.90219 0.03501 0.0
C2650 C 0.13724 0.94245 0.0594 0.0
C2651 C 0.11497 0.96402 0.07255 0.0
N2652 N 0.12952 0.98152 0.07146 0.0
C2653 C 0.15176 0.9608 0.05828 0.0
C2654 C 0.11851 0.94419 0.06647 0.0
C2655 C 0.14765 0.98035 0.0645 0.0
C2656 C 0.16077 0.93463 0.02172 0.0
N2657 N 0.17282 0.93274 0.03143 0.0
C2658 C 0.19522 0.96461 0.0264 0.0
C2659 C 0.18997 0.94713 0.03384 0.0
C2660 C 0.1825 0.96725 0.01653 0.0
C2661 C 0.1654 0.95184 0.01408 0.0
H2662 H 0.14699 0.92323 0.02009 0.0
H2663 H 0.19894 0.94571 0.04173 0.0
C2664 C 0.16551 0.88978 0.0846 0.0
N2665 N 0.16772 0.90669 0.07694 0.0
C2666 C 0.16889 0.8939 0.09606 0.0
C2667 C 0.17891 0.93225 0.09151 0.0
C2668 C 0.17503 0.92744 0.08011 0.0
C2669 C 0.17509 0.91549 0.09961 0.0
H2670 H 0.16053 0.8732 0.08185 0.0
H2671 H 0.17759 0.94035 0.07385 0.0
C2672 C 0.14023 0.87401 0.02596 0.0
N2673 N 0.13834 0.84435 0.00802 0.0
C2674 C 0.12093 0.86112 0.02413 0.0
C2675 C 0.15842 0.8721 0.01855 0.0
C2676 C 0.12034 0.84614 0.01504 0.0
C2677 C 0.15719 0.85693 0.00956 0.0
C2678 C 0.12439 0.86517 0.06767 0.0
C2679 C 0.11907 0.84229 0.06815 0.0
C2680 C 0.11399 0.88011 0.07513 0.0
C2681 C 0.1031 0.83482 0.07595 0.0
C2682 C 0.09812 0.872 0.08281 0.0
N2683 N 0.09302 0.84971 0.08305 0.0
C2684 C 0.18939 0.83502 0.04192 0.0
C2685 C 0.15043 0.82656 0.04137 0.0
C2686 C 0.19476 0.81238 0.04018 0.0
N2687 N 0.16751 0.84153 0.04259 0.0
C2688 C 0.155 0.80386 0.03963 0.0
C2689 C 0.17736 0.79658 0.03923 0.0
H2690 H 0.20263 0.84724 0.04309 0.0
H2691 H 0.13321 0.83219 0.04208 0.0
C2692 C 0.08329 0.9154 0.04675 0.0
N2693 N 0.09371 0.89539 0.04862 0.0
C2694 C 0.05985 0.91657 0.04641 0.0
C2695 C 0.05835 0.87644 0.0497 0.0
C2696 C 0.0818 0.87603 0.0499 0.0
C2697 C 0.04724 0.89692 0.048 0.0
H2698 H 0.0932 0.93047 0.04557 0.0
H2699 H 0.09048 0.86025 0.05104 0.0
O2700 O 0.18347 0.89223 0.05105 0.0
O2701 O 0.141 0.92319 0.05333 0.0
O2702 O 0.14127 0.8885 0.03492 0.0
O2703 O 0.13972 0.87287 0.05995 0.0
H2704 H 0.20995 0.91683 0.06408 0.0
H2705 H 0.20454 0.88414 0.03176 0.0
H2706 H 0.24796 0.93024 0.0587 0.0
H2707 H 0.24259 0.8982 0.0269 0.0
H2708 H 0.1006 0.96552 0.0781 0.0
H2709 H 0.16624 0.95988 0.05281 0.0
H2710 H 0.10664 0.93052 0.0672 0.0
H2711 H 0.1589 0.99457 0.06379 0.0
H2712 H 0.20842 0.97643 0.02852 0.0
H2713 H 0.15525 0.95361 0.00653 0.0
H2714 H 0.16616 0.88054 0.10213 0.0
H2715 H 0.18407 0.94899 0.09402 0.0
H2716 H 0.10665 0.86251 0.02974 0.0
H2717 H 0.17331 0.88224 0.01973 0.0
H2718 H 0.10558 0.83592 0.01358 0.0
H2719 H 0.17119 0.85519 0.0038 0.0
H2720 H 0.12713 0.83041 0.06256 0.0
H2721 H 0.11832 0.89772 0.07507 0.0
H2722 H 0.09874 0.81718 0.07637 0.0
H2723 H 0.08991 0.88342 0.08861 0.0
H2724 H 0.21218 0.80713 0.03996 0.0
H2725 H 0.14126 0.79197 0.03898 0.0
H2726 H 0.05163 0.93258 0.04501 0.0
H2727 H 0.04897 0.861 0.05085 0.0
Li2728 Li 0.83717 0.41347 0.79357 0.0
Li2729 Li 0.84574 0.40948 0.8132 0.0
Li2730 Li 0.87684 0.41128 0.79848 0.0
Li2731 Li 0.85146 0.37801 0.80058 0.0
C2732 C 0.84754 0.45587 0.80048 0.0
N2733 N 0.83265 0.49856 0.79514 0.0
C2734 C 0.82568 0.46245 0.80325 0.0
C2735 C 0.86188 0.47102 0.79504 0.0
C2736 C 0.81844 0.48409 0.80045 0.0
C2737 C 0.85403 0.49254 0.79241 0.0
C2738 C 0.80455 0.39305 0.81142 0.0
C2739 C 0.78488 0.37934 0.82787 0.0
N2740 N 0.768 0.39421 0.82584 0.0
C2741 C 0.78695 0.40815 0.80948 0.0
C2742 C 0.80345 0.37844 0.82066 0.0
C2743 C 0.76863 0.40848 0.81687 0.0
C2744 C 0.79969 0.41002 0.78003 0.0
N2745 N 0.81681 0.42446 0.78233 0.0
C2746 C 0.80478 0.44911 0.76753 0.0
C2747 C 0.81974 0.44366 0.77623 0.0
C2748 C 0.78697 0.43446 0.7651 0.0
C2749 C 0.78443 0.41478 0.77145 0.0
H2750 H 0.79819 0.39452 0.78475 0.0
H2751 H 0.834 0.45439 0.77782 0.0
C2752 C 0.85407 0.40954 0.83637 0.0
N2753 N 0.83916 0.41717 0.82856 0.0
C2754 C 0.84985 0.41234 0.84786 0.0
C2755 C 0.8155 0.43192 0.84315 0.0
C2756 C 0.82043 0.42877 0.8317 0.0
C2757 C 0.83018 0.42322 0.85131 0.0
H2758 H 0.86911 0.40091 0.8337 0.0
H2759 H 0.80901 0.43509 0.82538 0.0
C2760 C 0.86105 0.39959 0.77559 0.0
N2761 N 0.86011 0.41113 0.75299 0.0
C2762 C 0.85104 0.38521 0.76773 0.0
C2763 C 0.87055 0.41985 0.77198 0.0
C2764 C 0.85077 0.39133 0.75633 0.0
C2765 C 0.8699 0.42539 0.76051 0.0
C2766 C 0.88349 0.37171 0.81576 0.0
C2767 C 0.90534 0.36632 0.81237 0.0
C2768 C 0.8721 0.35747 0.82321 0.0
C2769 C 0.91529 0.34657 0.81636 0.0
C2770 C 0.88262 0.33788 0.82701 0.0
N2771 N 0.90381 0.33286 0.82352 0.0
C2772 C 0.91675 0.43632 0.80153 0.0
C2773 C 0.91882 0.40648 0.78824 0.0
C2774 C 0.93983 0.44011 0.80057 0.0
N2775 N 0.90691 0.41947 0.79555 0.0
C2776 C 0.94194 0.40955 0.78709 0.0
C2777 C 0.95268 0.42617 0.79352 0.0
H2778 H 0.90682 0.44615 0.80738 0.0
H2779 H 0.91053 0.393 0.78373 0.0
C2780 C 0.83248 0.3344 0.80225 0.0
N2781 N 0.85101 0.34619 0.79906 0.0
C2782 C 0.83254 0.31094 0.80181 0.0
C2783 C 0.87055 0.31224 0.79456 0.0
C2784 C 0.8697 0.33568 0.79507 0.0
C2785 C 0.85184 0.29973 0.79804 0.0
H2786 H 0.81774 0.34318 0.80523 0.0
H2787 H 0.88408 0.34554 0.79248 0.0
O2788 O 0.855 0.43483 0.80319 0.0
O2789 O 0.82268 0.3925 0.8043 0.0
O2790 O 0.86128 0.39403 0.78679 0.0
O2791 O 0.87327 0.39076 0.81177 0.0
H2792 H 0.81436 0.45089 0.80738 0.0
H2793 H 0.87886 0.46618 0.79284 0.0
H2794 H 0.80152 0.48936 0.80249 0.0
H2795 H 0.86491 0.50444 0.78819 0.0
H2796 H 0.7839 0.36822 0.83509 0.0
H2797 H 0.78749 0.41969 0.80243 0.0
H2798 H 0.81685 0.36665 0.82231 0.0
H2799 H 0.75496 0.42015 0.81549 0.0
H2800 H 0.80735 0.46422 0.76259 0.0
H2801 H 0.77101 0.40301 0.76962 0.0
H2802 H 0.86157 0.40564 0.854 0.0
H2803 H 0.80024 0.44054 0.84561 0.0
H2804 H 0.84354 0.36951 0.77042 0.0
H2805 H 0.87808 0.43133 0.77798 0.0
H2806 H 0.84308 0.38038 0.75014 0.0
H2807 H 0.87709 0.44106 0.75761 0.0
H2808 H 0.9145 0.37718 0.80669 0.0
H2809 H 0.85526 0.36144 0.82598 0.0
H2810 H 0.93214 0.34214 0.81375 0.0
H2811 H 0.87392 0.32665 0.83272 0.0
H2812 H 0.94777 0.45298 0.80567 0.0
H2813 H 0.9515 0.39847 0.78165 0.0
H2814 H 0.81785 0.30162 0.80451 0.0
H2815 H 0.88563 0.30395 0.79159 0.0
C2816 C 0.16568 0.55959 0.12854 0.0
C2817 C 0.17792 0.57473 0.13544 0.0
C2818 C 0.19664 0.58958 0.11858 0.0
C2819 C 0.18113 0.57777 0.11168 0.0
N2820 N 0.14843 0.55365 0.11032 0.0
N2821 N 0.20355 0.60617 0.13691 0.0
C2822 C 0.16515 0.56306 0.11668 0.0
C2823 C 0.19328 0.59011 0.13046 0.0
N2824 N 0.15447 0.54197 0.13334 0.0
N2825 N 0.21457 0.60026 0.11377 0.0
H2826 H 0.20124 0.60758 0.14561 0.0
H2827 H 0.21289 0.61932 0.13348 0.0
H2828 H 0.21761 0.59987 0.10508 0.0
H2829 H 0.22752 0.60746 0.11846 0.0
H2830 H 0.14692 0.52924 0.12863 0.0
H2831 H 0.15479 0.53888 0.14202 0.0
H2832 H 0.13501 0.54483 0.11384 0.0
H2833 H 0.14665 0.55636 0.10168 0.0
C2834 C 0.669 0.94709 0.38226 0.0
C2835 C 0.68064 0.929 0.38744 0.0
C2836 C 0.6913 0.91414 0.36892 0.0
C2837 C 0.67932 0.93201 0.36371 0.0
N2838 N 0.66204 0.96847 0.36513 0.0
N2839 N 0.70798 0.89934 0.38609 0.0
C2840 C 0.66997 0.94955 0.37032 0.0
C2841 C 0.6936 0.91393 0.38086 0.0
N2842 N 0.65605 0.96113 0.38868 0.0
N2843 N 0.69915 0.89661 0.36257 0.0
H2844 H 0.70992 0.89888 0.39485 0.0
H2845 H 0.71946 0.88932 0.38176 0.0
H2846 H 0.69786 0.89601 0.35379 0.0
H2847 H 0.70556 0.88186 0.36604 0.0
H2848 H 0.64502 0.97291 0.38529 0.0
H2849 H 0.65537 0.96016 0.39747 0.0
H2850 H 0.6568 0.98275 0.3695 0.0
H2851 H 0.66265 0.97064 0.35639 0.0
C2852 C 0.31492 0.43546 0.63033 0.0
C2853 C 0.32837 0.41993 0.63641 0.0
C2854 C 0.34176 0.40338 0.61871 0.0
C2855 C 0.32705 0.41773 0.61263 0.0
N2856 N 0.29737 0.44529 0.61246 0.0
N2857 N 0.35121 0.3864 0.63667 0.0
C2858 C 0.31296 0.4332 0.61839 0.0
C2859 C 0.34081 0.40309 0.63068 0.0
N2860 N 0.30454 0.45266 0.63594 0.0
N2861 N 0.35721 0.3906 0.61306 0.0
H2862 H 0.35085 0.38555 0.64547 0.0
H2863 H 0.35847 0.37231 0.63294 0.0
H2864 H 0.35849 0.39037 0.60427 0.0
H2865 H 0.37005 0.38175 0.61705 0.0
H2866 H 0.29646 0.46593 0.6319 0.0
H2867 H 0.30536 0.45453 0.64469 0.0
H2868 H 0.28502 0.45512 0.61625 0.0
H2869 H 0.29571 0.44418 0.6037 0.0
C2870 C 0.83559 0.06235 0.88138 0.0
C2871 C 0.81849 0.07545 0.88657 0.0
C2872 C 0.80294 0.08498 0.86801 0.0
C2873 C 0.82025 0.07218 0.86285 0.0
N2874 N 0.84865 0.0436 0.8644 0.0
N2875 N 0.78261 0.09393 0.88522 0.0
C2876 C 0.83503 0.05905 0.86951 0.0
C2877 C 0.801 0.08494 0.87998 0.0
N2878 N 0.85318 0.05438 0.88765 0.0
N2879 N 0.78924 0.09818 0.86154 0.0
H2880 H 0.78079 0.09399 0.89399 0.0
H2881 H 0.76835 0.09935 0.88091 0.0
H2882 H 0.78985 0.09829 0.85273 0.0
H2883 H 0.77816 0.10998 0.86488 0.0
H2884 H 0.86743 0.04707 0.8841 0.0
H2885 H 0.85443 0.05649 0.89636 0.0
H2886 H 0.85837 0.03203 0.86884 0.0
H2887 H 0.8485 0.04092 0.85568 0.0
C2888 C 0.18907 0.40548 0.88061 0.0
C2889 C 0.17755 0.42142 0.88734 0.0
C2890 C 0.16793 0.44302 0.8704 0.0
C2891 C 0.17587 0.425 0.86364 0.0
N2892 N 0.19263 0.38807 0.86222 0.0
N2893 N 0.15551 0.45527 0.88892 0.0
C2894 C 0.18645 0.40609 0.8687 0.0
C2895 C 0.16711 0.4404 0.88233 0.0
N2896 N 0.20235 0.38967 0.88568 0.0
N2897 N 0.1613 0.46262 0.86537 0.0
H2898 H 0.15519 0.45424 0.89772 0.0
H2899 H 0.14522 0.46787 0.88568 0.0
H2900 H 0.16185 0.46498 0.85664 0.0
H2901 H 0.15722 0.47712 0.86985 0.0
H2902 H 0.21291 0.37888 0.88122 0.0
H2903 H 0.20444 0.38883 0.89442 0.0
H2904 H 0.19797 0.37281 0.8656 0.0
H2905 H 0.19083 0.38761 0.85347 0.0
C2906 C 0.80454 0.91019 0.1187 0.0
C2907 C 0.81966 0.92268 0.1119 0.0
C2908 C 0.83377 0.94161 0.12885 0.0
C2909 C 0.82212 0.92584 0.13567 0.0
N2910 N 0.79818 0.89301 0.13691 0.0
N2911 N 0.85086 0.9487 0.11068 0.0
C2912 C 0.80768 0.90973 0.13058 0.0
C2913 C 0.83469 0.93825 0.11699 0.0
N2914 N 0.78724 0.89871 0.11376 0.0
N2915 N 0.84395 0.95976 0.13374 0.0
H2916 H 0.85269 0.94634 0.10201 0.0
H2917 H 0.86375 0.95822 0.11424 0.0
H2918 H 0.84324 0.96282 0.14242 0.0
H2919 H 0.85099 0.97286 0.12909 0.0
H2920 H 0.7745 0.89094 0.11838 0.0
H2921 H 0.78439 0.899 0.10506 0.0
H2922 H 0.78957 0.87947 0.13337 0.0
H2923 H 0.80056 0.89143 0.1456 0.0
C2924 C 0.30613 0.57817 0.37936 0.0
C2925 C 0.32615 0.57458 0.3856 0.0
C2926 C 0.34693 0.56769 0.36807 0.0
C2927 C 0.32776 0.57453 0.36185 0.0
N2928 N 0.28923 0.58689 0.36121 0.0
N2929 N 0.36603 0.56718 0.38615 0.0
C2930 C 0.30727 0.57969 0.36738 0.0
C2931 C 0.34663 0.56935 0.38004 0.0
N2932 N 0.28608 0.57994 0.38493 0.0
N2933 N 0.36538 0.55961 0.3625 0.0
H2934 H 0.3665 0.56787 0.39495 0.0
H2935 H 0.38193 0.56613 0.38252 0.0
H2936 H 0.36626 0.55855 0.35371 0.0
H2937 H 0.37904 0.55221 0.36655 0.0
H2938 H 0.27056 0.58052 0.38089 0.0
H2939 H 0.28483 0.57895 0.39371 0.0
H2940 H 0.27465 0.59345 0.36477 0.0
H2941 H 0.28928 0.58742 0.35239 0.0
C2942 C 0.69799 0.09696 0.63224 0.0
C2943 C 0.68782 0.07744 0.6369 0.0
C2944 C 0.69259 0.05829 0.61878 0.0
C2945 C 0.6962 0.07944 0.61359 0.0
N2946 N 0.71949 0.11188 0.61656 0.0
N2947 N 0.67753 0.03834 0.63488 0.0
C2948 C 0.70423 0.09686 0.62067 0.0
C2949 C 0.68589 0.05764 0.63028 0.0
N2950 N 0.7006 0.11593 0.63862 0.0
N2951 N 0.69943 0.03917 0.61346 0.0
H2952 H 0.67339 0.03692 0.64342 0.0
H2953 H 0.67369 0.02421 0.63003 0.0
H2954 H 0.70889 0.03992 0.60603 0.0
H2955 H 0.69892 0.02334 0.61723 0.0
H2956 H 0.70568 0.13126 0.6352 0.0
H2957 H 0.69627 0.11675 0.64715 0.0
H2958 H 0.72755 0.1238 0.62158 0.0
H2959 H 0.72581 0.11043 0.60836 0.0
C2960 C 0.83635 0.44046 0.87032 0.0
C2961 C 0.82492 0.42451 0.86353 0.0
C2962 C 0.80854 0.40733 0.88044 0.0
C2963 C 0.82287 0.42079 0.8872 0.0
N2964 N 0.85076 0.45002 0.88888 0.0
N2965 N 0.80051 0.39229 0.86183 0.0
C2966 C 0.83663 0.43759 0.88224 0.0
C2967 C 0.81079 0.40802 0.8685 0.0
N2968 N 0.84685 0.45832 0.86532 0.0
N2969 N 0.79281 0.39394 0.8855 0.0
H2970 H 0.80132 0.39256 0.85303 0.0
H2971 H 0.79224 0.37821 0.86499 0.0
H2972 H 0.7909 0.39307 0.89426 0.0
H2973 H 0.7804 0.38527 0.88108 0.0
H2974 H 0.85378 0.4717 0.86979 0.0
H2975 H 0.84692 0.46072 0.85658 0.0
H2976 H 0.86317 0.4606 0.8857 0.0
H2977 H 0.85092 0.44883 0.89767 0.0
C2978 C 0.33582 0.05761 0.63017 0.0
C2979 C 0.32539 0.07469 0.63669 0.0
C2980 C 0.30979 0.09111 0.61943 0.0
C2981 C 0.32369 0.07676 0.61291 0.0
N2982 N 0.35172 0.04739 0.61207 0.0
N2983 N 0.30436 0.10948 0.63743 0.0
C2984 C 0.33699 0.06003 0.61825 0.0
C2985 C 0.31259 0.09178 0.63132 0.0
N2986 N 0.34451 0.03907 0.63541 0.0
N2987 N 0.29394 0.10409 0.61421 0.0
H2988 H 0.30644 0.11108 0.64613 0.0
H2989 H 0.29714 0.12363 0.63371 0.0
H2990 H 0.29139 0.10376 0.60548 0.0
H2991 H 0.2819 0.11333 0.6186 0.0
H2992 H 0.35049 0.0251 0.63103 0.0
H2993 H 0.34365 0.03675 0.64414 0.0
H2994 H 0.36365 0.03683 0.61572 0.0
H2995 H 0.35329 0.04871 0.60333 0.0
C2996 C 0.65902 0.60601 0.38031 0.0
C2997 C 0.66515 0.58696 0.38685 0.0
C2998 C 0.67024 0.56479 0.36956 0.0
C2999 C 0.66531 0.58422 0.36307 0.0
N3000 N 0.66039 0.62444 0.36209 0.0
N3001 N 0.68095 0.54968 0.38783 0.0
C3002 C 0.6614 0.6052 0.3684 0.0
C3003 C 0.67211 0.56676 0.3815 0.0
N3004 N 0.64988 0.6245 0.3854 0.0
N3005 N 0.67229 0.54437 0.36436 0.0
H3006 H 0.68268 0.55067 0.39659 0.0
H3007 H 0.68838 0.53543 0.38433 0.0
H3008 H 0.67125 0.54236 0.35562 0.0
H3009 H 0.67338 0.52922 0.36874 0.0
H3010 H 0.6427 0.63778 0.38094 0.0
H3011 H 0.64764 0.62578 0.3941 0.0
H3012 H 0.65991 0.64048 0.36562 0.0
H3013 H 0.66223 0.62456 0.35332 0.0
C3014 C 0.1597 0.93591 0.1291 0.0
C3015 C 0.17451 0.92254 0.13563 0.0
C3016 C 0.19374 0.91031 0.1184 0.0
C3017 C 0.17649 0.92043 0.11188 0.0
N3018 N 0.14176 0.94146 0.11097 0.0
N3019 N 0.20515 0.89607 0.13672 0.0
C3020 C 0.15928 0.93317 0.11719 0.0
C3021 C 0.19165 0.9097 0.13036 0.0
N3022 N 0.14605 0.95117 0.13434 0.0
N3023 N 0.21214 0.90142 0.11313 0.0
H3024 H 0.2044 0.8955 0.14552 0.0
H3025 H 0.21611 0.88429 0.13327 0.0
H3026 H 0.21413 0.90178 0.10437 0.0
H3027 H 0.22627 0.89564 0.11743 0.0
H3028 H 0.13642 0.96296 0.12998 0.0
H3029 H 0.14603 0.95349 0.14308 0.0
H3030 H 0.12745 0.94856 0.11457 0.0
H3031 H 0.1406 0.93973 0.10223 0.0
C3032 C 0.81125 0.57402 0.11843 0.0
C3033 C 0.82931 0.58323 0.11212 0.0
C3034 C 0.84933 0.59269 0.12956 0.0
C3035 C 0.83162 0.58285 0.13589 0.0
N3036 N 0.79761 0.56095 0.13664 0.0
N3037 N 0.8673 0.59736 0.11134 0.0
C3038 C 0.81313 0.57249 0.1304 0.0
C3039 C 0.84891 0.59136 0.1176 0.0
N3040 N 0.79208 0.56743 0.11298 0.0
N3041 N 0.86618 0.60397 0.135 0.0
H3042 H 0.86759 0.59688 0.10253 0.0
H3043 H 0.88292 0.60106 0.11484 0.0
H3044 H 0.86752 0.60462 0.14377 0.0
H3045 H 0.87801 0.61395 0.1309 0.0
H3046 H 0.77736 0.56283 0.11712 0.0
H3047 H 0.79041 0.56786 0.10421 0.0
H3048 H 0.78495 0.55112 0.13313 0.0
H3049 H 0.7984 0.55984 0.14543 0.0
C3050 C 0.18998 0.08991 0.86868 0.0
C3051 C 0.17384 0.07569 0.8635 0.0
C3052 C 0.15995 0.06374 0.88202 0.0
C3053 C 0.17567 0.07844 0.8872 0.0
N3054 N 0.2091 0.10107 0.88593 0.0
N3055 N 0.14756 0.04506 0.86486 0.0
C3056 C 0.1919 0.09002 0.88065 0.0
C3057 C 0.16022 0.0612 0.87008 0.0
N3058 N 0.20263 0.1041 0.86218 0.0
N3059 N 0.14406 0.05317 0.88846 0.0
H3060 H 0.14743 0.04295 0.85611 0.0
H3061 H 0.1388 0.03258 0.86918 0.0
H3062 H 0.14371 0.05417 0.89725 0.0
H3063 H 0.13046 0.04442 0.8851 0.0
H3064 H 0.21271 0.11681 0.86547 0.0
H3065 H 0.20215 0.10396 0.85337 0.0
H3066 H 0.22267 0.10816 0.88167 0.0
H3067 H 0.21079 0.10146 0.8947 0.0
C3068 C 0.65758 0.39431 0.61816 0.0
C3069 C 0.66624 0.41228 0.61158 0.0
C3070 C 0.67463 0.43376 0.62876 0.0
C3071 C 0.66682 0.4154 0.63533 0.0
N3072 N 0.654 0.37697 0.6366 0.0
N3073 N 0.68584 0.4476 0.61028 0.0
C3074 C 0.65928 0.39527 0.63011 0.0
C3075 C 0.67562 0.4316 0.61679 0.0
N3076 N 0.64698 0.37669 0.61297 0.0
N3077 N 0.68061 0.45338 0.63399 0.0
H3078 H 0.68654 0.44661 0.60148 0.0
H3079 H 0.695 0.46102 0.61355 0.0
H3080 H 0.68086 0.4552 0.64276 0.0
H3081 H 0.68409 0.46825 0.6297 0.0
H3082 H 0.63782 0.36448 0.61726 0.0
H3083 H 0.64602 0.37503 0.60422 0.0
H3084 H 0.65091 0.36103 0.63332 0.0
H3085 H 0.65427 0.37719 0.64541 0.0
C3086 C 0.33605 0.94384 0.36845 0.0
C3087 C 0.3238 0.92773 0.36214 0.0
C3088 C 0.30749 0.9127 0.37957 0.0
C3089 C 0.32269 0.92609 0.38587 0.0
N3090 N 0.35168 0.95438 0.38663 0.0
N3091 N 0.29796 0.89651 0.36138 0.0
C3092 C 0.33679 0.94197 0.38041 0.0
C3093 C 0.3092 0.9123 0.3676 0.0
N3094 N 0.34696 0.96085 0.36295 0.0
N3095 N 0.29151 0.90038 0.38509 0.0
H3096 H 0.29834 0.89608 0.35257 0.0
H3097 H 0.28924 0.88308 0.36492 0.0
H3098 H 0.28999 0.90035 0.39388 0.0
H3099 H 0.27858 0.89183 0.38101 0.0
H3100 H 0.35457 0.97433 0.36705 0.0
H3101 H 0.34669 0.9625 0.35417 0.0
H3102 H 0.36429 0.96424 0.38308 0.0
H3103 H 0.35225 0.9539 0.39543 0.0
C3104 C 0.01277 0.58063 0.04391 0.0
C3105 C 0.02415 0.59937 0.04866 0.0
C3106 C 0.98819 0.61832 0.05195 0.0
C3107 C 0.97678 0.59876 0.04818 0.0
N3108 N 0.97772 0.56012 0.04204 0.0
N3109 N 0.02298 0.63452 0.05882 0.0
C3110 C 0.98894 0.57956 0.04455 0.0
C3111 C 0.01194 0.61783 0.05312 0.0
N3112 N 0.02474 0.5642 0.03851 0.0
N3113 N 0.97634 0.63754 0.05414 0.0
H3114 H 0.04039 0.63479 0.05984 0.0
H3115 H 0.01481 0.64712 0.06334 0.0
H3116 H 0.95889 0.63851 0.05343 0.0
H3117 H 0.98388 0.65303 0.05573 0.0
H3118 H 0.01731 0.55136 0.03384 0.0
H3119 H 0.04223 0.56438 0.03791 0.0
H3120 H 0.98572 0.54483 0.04056 0.0
H3121 H 0.96024 0.55881 0.04228 0.0
C3122 C 0.63644 0.74121 0.30723 0.0
C3123 C 0.64662 0.72984 0.29801 0.0
C3124 C 0.65961 0.76579 0.29028 0.0
C3125 C 0.64784 0.77725 0.29897 0.0
N3126 N 0.62145 0.77627 0.31445 0.0
N3127 N 0.66419 0.73124 0.27966 0.0
C3128 C 0.63519 0.76507 0.30709 0.0
C3129 C 0.65713 0.74212 0.2892 0.0
N3130 N 0.62872 0.72928 0.31631 0.0
N3131 N 0.67381 0.77739 0.28331 0.0
H3132 H 0.66255 0.71391 0.27856 0.0
H3133 H 0.66979 0.73957 0.27246 0.0
H3134 H 0.67621 0.79473 0.28388 0.0
H3135 H 0.68467 0.76962 0.27763 0.0
H3136 H 0.62342 0.73679 0.3238 0.0
H3137 H 0.62938 0.71178 0.31677 0.0
H3138 H 0.61005 0.7682 0.31975 0.0
H3139 H 0.61992 0.79374 0.31453 0.0
C3140 C 0.48281 0.38588 0.53502 0.0
C3141 C 0.47137 0.39599 0.54423 0.0
C3142 C 0.50733 0.40574 0.55314 0.0
C3143 C 0.51875 0.39441 0.54427 0.0
N3144 N 0.51804 0.37218 0.52725 0.0
N3145 N 0.47191 0.41406 0.56246 0.0
C3146 C 0.50666 0.38407 0.53533 0.0
C3147 C 0.48342 0.40558 0.5534 0.0
N3148 N 0.47082 0.3784 0.5259 0.0
N3149 N 0.51941 0.41689 0.56123 0.0
H3150 H 0.45442 0.41516 0.56273 0.0
H3151 H 0.47945 0.41891 0.57001 0.0
H3152 H 0.53691 0.41642 0.56168 0.0
H3153 H 0.51235 0.42767 0.56717 0.0
H3154 H 0.47807 0.37309 0.51836 0.0
H3155 H 0.4533 0.37876 0.52556 0.0
H3156 H 0.5103 0.36205 0.52123 0.0
H3157 H 0.53554 0.37141 0.52689 0.0
C3158 C 0.86068 0.26324 0.80766 0.0
C3159 C 0.85259 0.27481 0.79799 0.0
C3160 C 0.84349 0.23899 0.7888 0.0
C3161 C 0.85262 0.22742 0.79823 0.0
N3162 N 0.87287 0.22788 0.81586 0.0
N3163 N 0.83928 0.27435 0.77877 0.0
C3164 C 0.8621 0.23938 0.80744 0.0
C3165 C 0.84487 0.26286 0.78837 0.0
N3166 N 0.86644 0.27508 0.81714 0.0
N3167 N 0.83293 0.22716 0.78043 0.0
H3168 H 0.83956 0.29186 0.77825 0.0
H3169 H 0.83589 0.26663 0.77106 0.0
H3170 H 0.83213 0.20963 0.78032 0.0
H3171 H 0.82368 0.23462 0.77398 0.0
H3172 H 0.86999 0.26764 0.82489 0.0
H3173 H 0.86625 0.2926 0.81749 0.0
H3174 H 0.88226 0.23558 0.82219 0.0
H3175 H 0.87386 0.21037 0.81608 0.0
C3176 C 0.98625 0.39499 0.96325 0.0
C3177 C 0.97474 0.38922 0.95316 0.0
C3178 C 0.0106 0.38218 0.94356 0.0
C3179 C 0.0221 0.3896 0.95339 0.0
N3180 N 0.02159 0.4049 0.97224 0.0
N3181 N 0.97524 0.37914 0.93343 0.0
C3182 C 0.01011 0.39646 0.96316 0.0
C3183 C 0.98673 0.38324 0.94323 0.0
N3184 N 0.9743 0.3987 0.97295 0.0
N3185 N 0.02255 0.37379 0.93463 0.0
H3186 H 0.95774 0.3789 0.93297 0.0
H3187 H 0.98289 0.37728 0.92558 0.0
H3188 H 0.04008 0.37347 0.93441 0.0
H3189 H 0.01527 0.36579 0.92772 0.0
H3190 H 0.98162 0.40057 0.98088 0.0
H3191 H 0.95678 0.39845 0.97324 0.0
H3192 H 0.01391 0.41261 0.97912 0.0
H3193 H 0.0391 0.40543 0.97263 0.0
C3194 C 0.83943 0.7646 0.19424 0.0
C3195 C 0.84672 0.77706 0.20379 0.0
C3196 C 0.85589 0.74214 0.21379 0.0
C3197 C 0.84741 0.7297 0.20449 0.0
N3198 N 0.82773 0.72854 0.18669 0.0
N3199 N 0.8586 0.77826 0.22325 0.0
C3200 C 0.83815 0.74079 0.19495 0.0
C3201 C 0.854 0.76598 0.21375 0.0
N3202 N 0.83447 0.77552 0.18438 0.0
N3203 N 0.86633 0.73116 0.22248 0.0
H3204 H 0.85767 0.79578 0.22346 0.0
H3205 H 0.86167 0.77113 0.23113 0.0
H3206 H 0.86753 0.71368 0.22291 0.0
H3207 H 0.87512 0.73932 0.22888 0.0
H3208 H 0.83158 0.76729 0.17675 0.0
H3209 H 0.83489 0.79298 0.18357 0.0
H3210 H 0.81849 0.73572 0.18015 0.0
H3211 H 0.82675 0.71103 0.18684 0.0
C3212 C 0.48185 0.61377 0.4669 0.0
C3213 C 0.47031 0.59364 0.46413 0.0
C3214 C 0.50631 0.5746 0.46162 0.0
C3215 C 0.51723 0.59581 0.4614 0.0
N3216 N 0.51585 0.6358 0.46502 0.0
N3217 N 0.47454 0.55476 0.46932 0.0
C3218 C 0.50518 0.61549 0.46449 0.0
C3219 C 0.4832 0.57363 0.46446 0.0
N3220 N 0.47137 0.62966 0.47333 0.0
N3221 N 0.51769 0.55543 0.45888 0.0
H3222 H 0.45907 0.55509 0.47349 0.0
H3223 H 0.48395 0.54022 0.47067 0.0
H3224 H 0.53469 0.55532 0.45673 0.0
H3225 H 0.50965 0.53995 0.45794 0.0
H3226 H 0.47949 0.64382 0.47653 0.0
H3227 H 0.45533 0.62692 0.47665 0.0
H3228 H 0.50724 0.65094 0.46598 0.0
H3229 H 0.53314 0.6376 0.46388 0.0
C3230 C 0.66102 0.23638 0.69307 0.0
C3231 C 0.65206 0.22463 0.70249 0.0
C3232 C 0.64295 0.26035 0.71179 0.0
C3233 C 0.65306 0.27204 0.70265 0.0
N3234 N 0.675 0.27165 0.68554 0.0
N3235 N 0.63781 0.22482 0.72155 0.0
C3236 C 0.66311 0.26017 0.69357 0.0
C3237 C 0.64397 0.23645 0.71208 0.0
N3238 N 0.66676 0.22485 0.6835 0.0
N3239 N 0.63184 0.27209 0.72 0.0
H3240 H 0.63814 0.2073 0.72201 0.0
H3241 H 0.63404 0.23245 0.72923 0.0
H3242 H 0.63129 0.28962 0.72023 0.0
H3243 H 0.62192 0.26455 0.72617 0.0
H3244 H 0.67098 0.23261 0.67591 0.0
H3245 H 0.66567 0.20739 0.68283 0.0
H3246 H 0.68479 0.26384 0.67939 0.0
H3247 H 0.67659 0.28912 0.68553 0.0
C3248 C 0.35761 0.26285 0.71242 0.0
C3249 C 0.34883 0.27477 0.70301 0.0
C3250 C 0.33902 0.23925 0.69365 0.0
C3251 C 0.34913 0.22735 0.70273 0.0
N3252 N 0.36942 0.22707 0.72035 0.0
N3253 N 0.33247 0.2751 0.68438 0.0
C3254 C 0.35876 0.23896 0.71203 0.0
C3255 C 0.33982 0.26317 0.69355 0.0
N3256 N 0.36452 0.27445 0.72178 0.0
N3257 N 0.3284 0.22761 0.68523 0.0
H3258 H 0.33173 0.29262 0.68421 0.0
H3259 H 0.32817 0.26787 0.67667 0.0
H3260 H 0.32832 0.2101 0.68475 0.0
H3261 H 0.31852 0.23507 0.67902 0.0
H3262 H 0.36875 0.2669 0.72942 0.0
H3263 H 0.36481 0.29197 0.72218 0.0
H3264 H 0.37908 0.23439 0.72669 0.0
H3265 H 0.36965 0.20954 0.72063 0.0
C3266 C 0.1449 0.73642 0.19175 0.0
C3267 C 0.14785 0.72459 0.20206 0.0
C3268 C 0.14898 0.76016 0.21256 0.0
C3269 C 0.14746 0.77201 0.20218 0.0
N3270 N 0.14569 0.77215 0.18182 0.0
N3271 N 0.15466 0.72445 0.22212 0.0
C3272 C 0.14588 0.76033 0.19174 0.0
C3273 C 0.15038 0.73626 0.21244 0.0
N3274 N 0.14071 0.72473 0.18201 0.0
N3275 N 0.14876 0.77181 0.22253 0.0
H3276 H 0.155 0.70692 0.22241 0.0
H3277 H 0.15918 0.73184 0.22976 0.0
H3278 H 0.14876 0.78933 0.22293 0.0
H3279 H 0.14725 0.76429 0.23043 0.0
H3280 H 0.13591 0.73219 0.17444 0.0
H3281 H 0.14066 0.70721 0.18161 0.0
H3282 H 0.14729 0.7648 0.17388 0.0
H3283 H 0.14515 0.78966 0.18147 0.0
C3284 C 0.15365 0.24006 0.78851 0.0
C3285 C 0.14949 0.22789 0.79861 0.0
C3286 C 0.14489 0.26316 0.80914 0.0
C3287 C 0.15048 0.27529 0.79921 0.0
N3288 N 0.16219 0.27597 0.77972 0.0
N3289 N 0.14303 0.22709 0.81872 0.0
C3290 C 0.15539 0.26392 0.78895 0.0
C3291 C 0.1456 0.23924 0.80899 0.0
N3292 N 0.15556 0.22877 0.77849 0.0
N3293 N 0.13847 0.27458 0.81865 0.0
H3294 H 0.14247 0.20957 0.81887 0.0
H3295 H 0.14275 0.23417 0.82676 0.0
H3296 H 0.13852 0.29208 0.8192 0.0
H3297 H 0.13174 0.26691 0.82579 0.0
H3298 H 0.15606 0.23661 0.77063 0.0
H3299 H 0.15525 0.21127 0.77791 0.0
H3300 H 0.16848 0.26873 0.77237 0.0
H3301 H 0.16287 0.2935 0.77961 0.0
C3302 C 0.34784 0.73904 0.28586 0.0
C3303 C 0.34809 0.72709 0.29625 0.0
C3304 C 0.34729 0.76255 0.30686 0.0
C3305 C 0.34813 0.77451 0.29648 0.0
N3306 N 0.3507 0.77495 0.27616 0.0
N3307 N 0.34933 0.72664 0.3166 0.0
C3308 C 0.34878 0.76296 0.28599 0.0
C3309 C 0.34811 0.73864 0.30675 0.0
N3310 N 0.34636 0.72742 0.27591 0.0
N3311 N 0.34546 0.77416 0.31681 0.0
H3312 H 0.34868 0.70913 0.31689 0.0
H3313 H 0.35203 0.73377 0.32451 0.0
H3314 H 0.34617 0.79166 0.31731 0.0
H3315 H 0.34216 0.76672 0.32459 0.0
H3316 H 0.34363 0.73489 0.26808 0.0
H3317 H 0.34666 0.70991 0.27547 0.0
H3318 H 0.35384 0.76779 0.26831 0.0
H3319 H 0.35023 0.79248 0.27588 0.0
C3320 C 0.48936 0.10706 0.53958 0.0
C3321 C 0.47649 0.10465 0.54961 0.0
C3322 C 0.51094 0.1035 0.56103 0.0
C3323 C 0.52382 0.10485 0.55095 0.0
N3324 N 0.5261 0.10635 0.53063 0.0
N3325 N 0.47422 0.09919 0.56977 0.0
C3326 C 0.51324 0.10622 0.54022 0.0
C3327 C 0.48708 0.10251 0.56032 0.0
N3328 N 0.47866 0.11051 0.52949 0.0
N3329 N 0.52161 0.10352 0.57128 0.0
H3330 H 0.4567 0.09963 0.56968 0.0
H3331 H 0.48067 0.09493 0.57764 0.0
H3332 H 0.53905 0.10308 0.57212 0.0
H3333 H 0.51343 0.10511 0.579 0.0
H3334 H 0.4868 0.11493 0.52205 0.0
H3335 H 0.46122 0.1101 0.52862 0.0
H3336 H 0.51968 0.10471 0.5225 0.0
H3337 H 0.54362 0.107 0.53077 0.0
C3338 C 0.98681 0.90084 0.05836 0.0
C3339 C 0.97495 0.89831 0.04804 0.0
C3340 C 0.01046 0.8939 0.03775 0.0
C3341 C 0.02233 0.89775 0.04796 0.0
N3342 N 0.02249 0.9076 0.06772 0.0
N3343 N 0.97486 0.89533 0.02773 0.0
C3344 C 0.01068 0.90203 0.0582 0.0
C3345 C 0.98661 0.89564 0.03767 0.0
N3346 N 0.97522 0.90145 0.06834 0.0
N3347 N 0.022 0.8881 0.02818 0.0
H3348 H 0.95736 0.89607 0.02738 0.0
H3349 H 0.98237 0.89592 0.0198 0.0
H3350 H 0.03951 0.88745 0.02782 0.0
H3351 H 0.01433 0.88253 0.0208 0.0
H3352 H 0.98283 0.90071 0.07625 0.0
H3353 H 0.95771 0.90114 0.06877 0.0
H3354 H 0.01505 0.91342 0.07512 0.0
H3355 H 0.04001 0.90789 0.06803 0.0
C3356 C 0.48797 0.90192 0.46161 0.0
C3357 C 0.47603 0.8957 0.45172 0.0
C3358 C 0.51144 0.88702 0.44205 0.0
C3359 C 0.52341 0.89513 0.45158 0.0
N3360 N 0.52372 0.91229 0.47003 0.0
N3361 N 0.47582 0.88432 0.43216 0.0
C3362 C 0.51185 0.90305 0.46129 0.0
C3363 C 0.48761 0.88874 0.44183 0.0
N3364 N 0.47644 0.90639 0.47135 0.0
N3365 N 0.5229 0.8772 0.43333 0.0
H3366 H 0.45831 0.88467 0.43179 0.0
H3367 H 0.48329 0.88172 0.42432 0.0
H3368 H 0.54038 0.87598 0.43313 0.0
H3369 H 0.51515 0.86876 0.42668 0.0
H3370 H 0.48411 0.9086 0.47918 0.0
H3371 H 0.45893 0.90636 0.4718 0.0
H3372 H 0.51631 0.92069 0.47679 0.0
H3373 H 0.54124 0.91288 0.47021 0.0
C3374 C 0.01241 0.11248 0.94042 0.0
C3375 C 0.0235 0.10895 0.9509 0.0
C3376 C 0.98725 0.10354 0.9604 0.0
C3377 C 0.97613 0.10796 0.95002 0.0
N3378 N 0.97733 0.11911 0.93046 0.0
N3379 N 0.02212 0.10372 0.97108 0.0
C3380 C 0.98851 0.11315 0.94011 0.0
C3381 C 0.01108 0.10525 0.96097 0.0
N3382 N 0.02481 0.11472 0.93075 0.0
N3383 N 0.97497 0.09717 0.96964 0.0
H3384 H 0.0396 0.10401 0.97176 0.0
H3385 H 0.01411 0.10356 0.97889 0.0
H3386 H 0.95745 0.09658 0.96967 0.0
H3387 H 0.98201 0.09118 0.9771 0.0
H3388 H 0.01795 0.11469 0.92266 0.0
H3389 H 0.04233 0.11539 0.93071 0.0
H3390 H 0.98515 0.12549 0.92328 0.0
H3391 H 0.95984 0.119 0.9298 0.0
C3392 C 0.19537 0.50145 0.98884 0.0
C3393 C 0.18898 0.47914 0.9916 0.0
C3394 C 0.18297 0.48991 0.01134 0.0
C3395 C 0.18877 0.51238 0.00853 0.0
N3396 N 0.20554 0.53868 0.99559 0.0
N3397 N 0.18224 0.45069 0.00566 0.0
C3398 C 0.19672 0.51783 0.99757 0.0
C3399 C 0.18472 0.4729 0.00295 0.0
N3400 N 0.1992 0.50711 0.97781 0.0
N3401 N 0.17455 0.48512 0.02182 0.0
H3402 H 0.18327 0.4379 -0.00035 0.0
H3403 H 0.18117 0.44475 0.01391 0.0
H3404 H 0.17345 0.49702 0.02826 0.0
H3405 H 0.16741 0.46972 0.02396 0.0
H3406 H 0.20125 0.52357 0.97501 0.0
H3407 H 0.19928 0.49528 0.9713 0.0
H3408 H 0.21342 0.54323 0.98808 0.0
H3409 H 0.20669 0.55096 0.00187 0.0
C3410 C 0.75747 0.96017 0.24677 0.0
C3411 C 0.75721 0.94375 0.23809 0.0
C3412 C 0.72355 0.92644 0.24617 0.0
C3413 C 0.72392 0.94269 0.25496 0.0
N3414 N 0.73771 0.97767 0.26246 0.0
N3415 N 0.73757 0.91475 0.22784 0.0
C3416 C 0.73977 0.96049 0.25485 0.0
C3417 C 0.73932 0.92811 0.23721 0.0
N3418 N 0.7751 0.97484 0.24751 0.0
N3419 N 0.70898 0.90867 0.24673 0.0
H3420 H 0.74915 0.9152 0.22123 0.0
H3421 H 0.7237 0.90464 0.22613 0.0
H3422 H 0.69695 0.90695 0.25306 0.0
H3423 H 0.70973 0.8948 0.24137 0.0
H3424 H 0.77777 0.98551 0.25435 0.0
H3425 H 0.7878 0.97559 0.24144 0.0
H3426 H 0.74746 0.9922 0.26226 0.0
H3427 H 0.7249 0.97822 0.26847 0.0
C3428 C 0.2852 0.49136 0.50331 0.0
C3429 C 0.306 0.48296 0.50736 0.0
C3430 C 0.32665 0.50698 0.49412 0.0
C3431 C 0.30588 0.51618 0.49042 0.0
N3432 N 0.26565 0.51925 0.49193 0.0
N3433 N 0.34658 0.48358 0.50758 0.0
C3434 C 0.28519 0.50896 0.49514 0.0
C3435 C 0.32676 0.49099 0.50302 0.0
N3436 N 0.26556 0.48216 0.50714 0.0
N3437 N 0.34627 0.51329 0.48895 0.0
H3438 H 0.34755 0.4709 0.51364 0.0
H3439 H 0.36217 0.49075 0.50588 0.0
H3440 H 0.34718 0.52592 0.48286 0.0
H3441 H 0.36161 0.50528 0.49018 0.0
H3442 H 0.24982 0.48579 0.50377 0.0
H3443 H 0.26506 0.46974 0.51336 0.0
H3444 H 0.25019 0.51651 0.49579 0.0
H3445 H 0.26506 0.53167 0.48571 0.0
C3446 C 0.76289 0.04643 0.75046 0.0
C3447 C 0.76045 0.06101 0.75987 0.0
C3448 C 0.72432 0.0743 0.75266 0.0
C3449 C 0.72657 0.0596 0.74327 0.0
N3450 N 0.74488 0.02796 0.73455 0.0
N3451 N 0.73644 0.08374 0.77161 0.0
C3452 C 0.74488 0.04438 0.74262 0.0
C3453 C 0.74028 0.07321 0.76153 0.0
N3454 N 0.78276 0.03543 0.74874 0.0
N3455 N 0.70782 0.09029 0.7528 0.0
H3456 H 0.74784 0.08318 0.77831 0.0
H3457 H 0.72112 0.09109 0.77373 0.0
H3458 H 0.69582 0.09188 0.74645 0.0
H3459 H 0.70708 0.10317 0.75875 0.0
H3460 H 0.78651 0.0266 0.74138 0.0
H3461 H 0.79614 0.03625 0.75442 0.0
H3462 H 0.75669 0.01505 0.73424 0.0
H3463 H 0.73182 0.02609 0.72873 0.0
C3464 C 0.8304 0.4945 0.01053 0.0
C3465 C 0.81498 0.51256 0.00929 0.0
C3466 C 0.79995 0.49553 0.99201 0.0
C3467 C 0.81507 0.47731 0.99341 0.0
N3468 N 0.84064 0.45651 0.00522 0.0
N3469 N 0.78214 0.52827 0.00041 0.0
C3470 C 0.82894 0.47584 0.00311 0.0
C3471 C 0.79877 0.51241 0.00051 0.0
N3472 N 0.84727 0.49574 0.01837 0.0
N3473 N 0.7874 0.49711 0.98237 0.0
H3474 H 0.78089 0.54082 0.00653 0.0
H3475 H 0.76856 0.52791 0.99486 0.0
H3476 H 0.78736 0.48467 0.97615 0.0
H3477 H 0.77804 0.51125 0.9802 0.0
H3478 H 0.86054 0.48436 0.01875 0.0
H3479 H 0.84912 0.50916 0.02396 0.0
H3480 H 0.84925 0.45349 0.01272 0.0
H3481 H 0.83999 0.44258 -0.00012 0.0
C3482 C 0.24864 0.05003 0.75868 0.0
C3483 C 0.22866 0.06235 0.7566 0.0
C3484 C 0.24283 0.07419 0.73813 0.0
C3485 C 0.26293 0.06201 0.74022 0.0
N3486 N 0.28332 0.03457 0.7511 0.0
N3487 N 0.20424 0.08159 0.74356 0.0
C3488 C 0.26527 0.04865 0.75007 0.0
C3489 C 0.22493 0.07286 0.74602 0.0
N3490 N 0.25198 0.04035 0.76902 0.0
N3491 N 0.24135 0.08801 0.72891 0.0
H3492 H 0.19088 0.08113 0.74925 0.0
H3493 H 0.19969 0.08745 0.7356 0.0
H3494 H 0.25394 0.08928 0.72282 0.0
H3495 H 0.22831 0.09941 0.72765 0.0
H3496 H 0.2672 0.03341 0.77159 0.0
H3497 H 0.2397 0.04023 0.77531 0.0
H3498 H 0.2851 0.02286 0.75756 0.0
H3499 H 0.29575 0.03332 0.74491 0.0
C3500 C 0.69123 0.5003 0.50924 0.0
C3501 C 0.68352 0.47848 0.50635 0.0
C3502 C 0.67549 0.49078 0.48704 0.0
C3503 C 0.68302 0.5127 0.48993 0.0
N3504 N 0.70283 0.53723 0.50268 0.0
N3505 N 0.67374 0.45129 0.4921 0.0
C3506 C 0.6925 0.51707 0.5007 0.0
C3507 C 0.67752 0.47318 0.49508 0.0
N3508 N 0.69644 0.50516 0.52022 0.0
N3509 N 0.66525 0.48707 0.47687 0.0
H3510 H 0.675 0.43805 0.49785 0.0
H3511 H 0.67142 0.44599 0.4838 0.0
H3512 H 0.66374 0.49941 0.47068 0.0
H3513 H 0.65691 0.47222 0.47483 0.0
H3514 H 0.69959 0.52135 0.52316 0.0
H3515 H 0.69648 0.49302 0.52659 0.0
H3516 H 0.71186 0.54081 0.51 0.0
H3517 H 0.70402 0.54977 0.49655 0.0
C3518 C 0.22178 0.9319 0.25388 0.0
C3519 C 0.2264 0.94036 0.24293 0.0
C3520 C 0.26368 0.95287 0.24913 0.0
C3521 C 0.2603 0.94131 0.25946 0.0
N3522 N 0.23661 0.91993 0.27201 0.0
N3523 N 0.25091 0.95956 0.22992 0.0
C3524 C 0.23932 0.93119 0.26202 0.0
C3525 C 0.24703 0.95136 0.24054 0.0
N3526 N 0.20064 0.92444 0.25644 0.0
N3527 N 0.28283 0.96522 0.24761 0.0
H3528 H 0.2386 0.9597 0.22363 0.0
H3529 H 0.26643 0.96542 0.22715 0.0
H3530 H 0.29532 0.96641 0.25377 0.0
H3531 H 0.28567 0.97563 0.24069 0.0
H3532 H 0.19547 0.92006 0.26455 0.0
H3533 H 0.18757 0.92429 0.25059 0.0
H3534 H 0.22286 0.90976 0.27385 0.0
H3535 H 0.24876 0.91985 0.27836 0.0
C3536 C 0.68206 0.99174 0.51345 0.0
C3537 C 0.68637 0.01454 0.51064 0.0
C3538 C 0.6916 0.00446 0.49075 0.0
C3539 C 0.68668 0.98177 0.4935 0.0
N3540 N 0.68221 0.95266 0.50746 0.0
N3541 N 0.70015 0.04211 0.49747 0.0
C3542 C 0.68367 0.97503 0.50489 0.0
C3543 C 0.69282 0.02071 0.49954 0.0
N3544 N 0.6753 0.98629 0.52415 0.0
N3545 N 0.69418 0.01054 0.47968 0.0
H3546 H 0.7011 0.05436 0.50377 0.0
H3547 H 0.70701 0.04729 0.48981 0.0
H3548 H 0.6944 0.99888 0.47309 0.0
H3549 H 0.69505 0.02714 0.47693 0.0
H3550 H 0.66928 0.97051 0.52644 0.0
H3551 H 0.67456 0.99799 0.5307 0.0
H3552 H 0.68215 0.94641 0.51567 0.0
H3553 H 0.68289 0.94007 0.50134 0.0
C3554 C 0.24208 0.46154 0.7542 0.0
C3555 C 0.23893 0.44213 0.76099 0.0
C3556 C 0.26862 0.42234 0.7507 0.0
C3557 C 0.27225 0.44193 0.7441 0.0
N3558 N 0.26545 0.48118 0.74053 0.0
N3559 N 0.25172 0.40574 0.76733 0.0
C3560 C 0.2599 0.4619 0.74616 0.0
C3561 C 0.2531 0.4231 0.75978 0.0
N3562 N 0.22765 0.47929 0.75526 0.0
N3563 N 0.27918 0.40265 0.74792 0.0
H3564 H 0.24003 0.40526 0.77388 0.0
H3565 H 0.2633 0.39263 0.7677 0.0
H3566 H 0.29081 0.40131 0.74137 0.0
H3567 H 0.2752 0.38716 0.7515 0.0
H3568 H 0.22734 0.49293 0.74975 0.0
H3569 H 0.21504 0.47986 0.76138 0.0
H3570 H 0.25858 0.49686 0.74235 0.0
H3571 H 0.27826 0.48181 0.73452 0.0
C3572 C 0.80997 0.9768 0.99556 0.0
C3573 C 0.80971 0.98345 0.00705 0.0
C3574 C 0.80617 0.0229 0.00139 0.0
C3575 C 0.81038 0.0165 0.99005 0.0
N3576 N 0.81694 0.98762 0.97612 0.0
N3577 N 0.80796 0.01258 0.02119 0.0
C3578 C 0.81208 0.99347 0.98702 0.0
C3579 C 0.80754 0.00644 0.01006 0.0
N3580 N 0.80825 0.95451 0.99286 0.0
N3581 N 0.80087 0.04475 0.0038 0.0
H3582 H 0.80835 0.00093 0.02778 0.0
H3583 H 0.80921 0.02917 0.02392 0.0
H3584 H 0.79981 0.05714 0.99757 0.0
H3585 H 0.79561 0.0502 0.01173 0.0
H3586 H 0.80625 0.94861 0.98464 0.0
H3587 H 0.80679 0.94195 0.99898 0.0
H3588 H 0.82109 0.97135 0.97363 0.0
H3589 H 0.81815 0.99933 0.96959 0.0
C3590 C 0.24034 0.57472 0.26065 0.0
C3591 C 0.25811 0.55892 0.2601 0.0
C3592 C 0.24036 0.54086 0.24377 0.0
C3593 C 0.2247 0.55881 0.24327 0.0
N3594 N 0.21086 0.59418 0.25056 0.0
N3595 N 0.27585 0.52713 0.2512 0.0
C3596 C 0.22475 0.57596 0.25162 0.0
C3597 C 0.25823 0.54183 0.25175 0.0
N3598 N 0.23844 0.58855 0.26983 0.0
N3599 N 0.23795 0.52289 0.23667 0.0
H3600 H 0.28877 0.52696 0.25717 0.0
H3601 H 0.27832 0.51592 0.24456 0.0
H3602 H 0.22498 0.52181 0.23076 0.0
H3603 H 0.24754 0.5083 0.23725 0.0
H3604 H 0.22457 0.59883 0.27129 0.0
H3605 H 0.24976 0.58821 0.27656 0.0
H3606 H 0.21208 0.60847 0.25561 0.0
H3607 H 0.1992 0.59591 0.24406 0.0
C3608 C 0.29992 0.01702 0.49897 0.0
C3609 C 0.31104 0.01321 0.50939 0.0
C3610 C 0.31918 0.97437 0.50383 0.0
C3611 C 0.31112 0.97929 0.49284 0.0
N3612 N 0.2936 0.0047 0.47967 0.0
N3613 N 0.33176 0.98886 0.52192 0.0
C3614 C 0.30113 0.00038 0.49036 0.0
C3615 C 0.32051 0.99191 0.51195 0.0
N3616 N 0.28816 0.03653 0.4974 0.0
N3617 N 0.32564 0.95293 0.50646 0.0
H3618 H 0.33252 0.00108 0.52822 0.0
H3619 H 0.34144 0.97474 0.52373 0.0
H3620 H 0.32529 0.93982 0.50062 0.0
H3621 H 0.32959 0.94764 0.5146 0.0
H3622 H 0.27799 0.03965 0.49043 0.0
H3623 H 0.28714 0.04902 0.50358 0.0
H3624 H 0.2886 0.02052 0.47688 0.0
H3625 H 0.29327 0.9925 0.47333 0.0
C3626 C 0.74662 0.54961 0.25756 0.0
C3627 C 0.72665 0.56187 0.25537 0.0
C3628 C 0.74109 0.57363 0.23696 0.0
C3629 C 0.76113 0.56137 0.23911 0.0
N3630 N 0.78099 0.53353 0.25 0.0
N3631 N 0.70217 0.58018 0.24206 0.0
C3632 C 0.76321 0.54794 0.24895 0.0
C3633 C 0.72299 0.57202 0.24471 0.0
N3634 N 0.75011 0.54048 0.26801 0.0
N3635 N 0.73984 0.58793 0.22793 0.0
H3636 H 0.6886 0.5792 0.24762 0.0
H3637 H 0.6978 0.58587 0.23404 0.0
H3638 H 0.75275 0.58989 0.22207 0.0
H3639 H 0.7267 0.59924 0.22672 0.0
H3640 H 0.76539 0.53367 0.27059 0.0
H3641 H 0.73799 0.54083 0.27438 0.0
H3642 H 0.78248 0.5218 0.25648 0.0
H3643 H 0.79335 0.53197 0.24379 0.0
C3644 C 0.17565 0.00782 0.01195 0.0
C3645 C 0.18575 0.98697 0.00906 0.0
C3646 C 0.19544 0.00137 0.99029 0.0
C3647 C 0.18523 0.02216 0.99317 0.0
N3648 N 0.17019 0.04718 0.00727 0.0
N3649 N 0.20935 0.96515 0.99671 0.0
C3650 C 0.1769 0.02605 0.00422 0.0
C3651 C 0.19701 0.98418 0.9986 0.0
N3652 N 0.16382 0.00982 0.02181 0.0
N3653 N 0.20285 0.99786 0.9795 0.0
H3654 H 0.21073 0.95228 0.00266 0.0
H3655 H 0.21968 0.96287 0.98971 0.0
H3656 H 0.20281 0.01043 0.97335 0.0
H3657 H 0.20797 0.98227 0.97644 0.0
H3658 H 0.1538 0.02361 0.02378 0.0
H3659 H 0.16279 0.997 0.0278 0.0
H3660 H 0.16609 0.05171 0.01551 0.0
H3661 H 0.17051 0.06079 0.00172 0.0
C3662 C 0.75241 0.45243 0.75689 0.0
C3663 C 0.77161 0.4386 0.75548 0.0
C3664 C 0.75701 0.42461 0.73748 0.0
C3665 C 0.73786 0.43865 0.73879 0.0
N3666 N 0.71958 0.46951 0.74823 0.0
N3667 N 0.79515 0.41624 0.74333 0.0
C3668 C 0.73632 0.45378 0.74803 0.0
C3669 C 0.77489 0.42631 0.74536 0.0
N3670 N 0.74911 0.46348 0.76688 0.0
N3671 N 0.75753 0.40866 0.72916 0.0
H3672 H 0.80856 0.41713 0.74899 0.0
H3673 H 0.79938 0.40892 0.73562 0.0
H3674 H 0.74471 0.40654 0.72325 0.0
H3675 H 0.76983 0.39626 0.72864 0.0
H3676 H 0.73421 0.47168 0.76896 0.0
H3677 H 0.76088 0.46337 0.77341 0.0
H3678 H 0.71867 0.48236 0.75418 0.0
H3679 H 0.70763 0.4709 0.74181 0.0
C3680 C 0.1793 0.76068 0.02823 0.0
C3681 C 0.18211 0.77215 0.03864 0.0
C3682 C 0.18845 0.73631 0.04834 0.0
C3683 C 0.18206 0.72484 0.03835 0.0
N3684 N 0.17131 0.72535 0.01874 0.0
N3685 N 0.18825 0.77132 0.0588 0.0
C3686 C 0.17775 0.7368 0.02822 0.0
C3687 C 0.18676 0.76011 0.04873 0.0
N3688 N 0.17822 0.77271 0.01841 0.0
N3689 N 0.19604 0.72437 0.05745 0.0
H3690 H 0.18745 0.78879 0.05946 0.0
H3691 H 0.1888 0.76332 0.06662 0.0
H3692 H 0.19713 0.70686 0.05748 0.0
H3693 H 0.20309 0.73179 0.06458 0.0
H3694 H 0.17816 0.76542 0.01042 0.0
H3695 H 0.17928 0.79023 0.01822 0.0
H3696 H 0.16536 0.7331 0.01145 0.0
H3697 H 0.17088 0.70783 0.01836 0.0
C3698 C 0.50996 0.91971 0.30417 0.0
C3699 C 0.52248 0.92997 0.29537 0.0
C3700 C 0.48764 0.94262 0.2863 0.0
C3701 C 0.4752 0.93031 0.29444 0.0
N3702 N 0.47401 0.90527 0.31048 0.0
N3703 N 0.52398 0.95 0.2777 0.0
C3704 C 0.48621 0.91847 0.30326 0.0
C3705 C 0.51153 0.94123 0.28635 0.0
N3706 N 0.52082 0.91134 0.31345 0.0
N3707 N 0.47656 0.95583 0.27866 0.0
H3708 H 0.54151 0.94995 0.27768 0.0
H3709 H 0.51706 0.95619 0.27025 0.0
H3710 H 0.45907 0.95691 0.27835 0.0
H3711 H 0.48456 0.96696 0.2732 0.0
H3712 H 0.51258 0.90598 0.32073 0.0
H3713 H 0.53827 0.91134 0.31429 0.0
H3714 H 0.48121 0.89404 0.31617 0.0
H3715 H 0.45651 0.90428 0.3103 0.0
C3716 C 0.31484 0.23807 0.5524 0.0
C3717 C 0.31369 0.22625 0.54199 0.0
C3718 C 0.31127 0.26179 0.53159 0.0
C3719 C 0.31248 0.27356 0.54199 0.0
N3720 N 0.31042 0.27347 0.56233 0.0
N3721 N 0.30624 0.22599 0.52201 0.0
C3722 C 0.3125 0.26183 0.55242 0.0
C3723 C 0.31039 0.23789 0.53167 0.0
N3724 N 0.31948 0.22672 0.56218 0.0
N3725 N 0.31177 0.27351 0.52165 0.0
H3726 H 0.30559 0.20845 0.52185 0.0
H3727 H 0.30169 0.23335 0.51437 0.0
H3728 H 0.31141 0.29104 0.52132 0.0
H3729 H 0.31363 0.26601 0.51376 0.0
H3730 H 0.32332 0.23461 0.56979 0.0
H3731 H 0.32104 0.20928 0.56259 0.0
H3732 H 0.30788 0.2658 0.57014 0.0
H3733 H 0.30934 0.29096 0.56269 0.0
C3734 C 0.98583 0.08799 0.80154 0.0
C3735 C 0.97427 0.07417 0.79367 0.0
C3736 C 0.01008 0.05923 0.78668 0.0
C3737 C 0.02161 0.07436 0.79392 0.0
N3738 N 0.021 0.10528 0.80713 0.0
N3739 N 0.97469 0.04832 0.77801 0.0
C3740 C 0.00963 0.08929 0.80108 0.0
C3741 C 0.9862 0.06021 0.78603 0.0
N3742 N 0.97404 0.0996 0.80957 0.0
N3743 N 0.02198 0.04367 0.78064 0.0
H3744 H 0.95718 0.04817 0.77754 0.0
H3745 H 0.98239 0.03973 0.7714 0.0
H3746 H 0.03949 0.04278 0.78082 0.0
H3747 H 0.0146 0.03065 0.77609 0.0
H3748 H 0.98155 0.10776 0.81638 0.0
H3749 H 0.95653 0.09979 0.80996 0.0
H3750 H 0.01315 0.11836 0.81144 0.0
H3751 H 0.03848 0.1066 0.80719 0.0
C3752 C 0.19135 0.23903 0.97244 0.0
C3753 C 0.19859 0.22735 0.96266 0.0
C3754 C 0.20563 0.26301 0.9532 0.0
C3755 C 0.19279 0.27409 0.96163 0.0
N3756 N 0.17617 0.27352 0.98025 0.0
N3757 N 0.22981 0.2312 0.94992 0.0
C3758 C 0.18678 0.26244 0.97167 0.0
C3759 C 0.2109 0.23999 0.95466 0.0
N3760 N 0.19113 0.22814 0.98258 0.0
N3761 N 0.21217 0.27403 0.94363 0.0
H3762 H 0.23638 0.21588 0.9527 0.0
H3763 H 0.24047 0.24047 0.9447 0.0
H3764 H 0.20866 0.29096 0.94215 0.0
H3765 H 0.21976 0.26574 0.93686 0.0
H3766 H 0.18789 0.23608 0.99025 0.0
H3767 H 0.19676 0.21156 0.9833 0.0
H3768 H 0.16909 0.26533 0.98717 0.0
H3769 H 0.17363 0.29089 0.98019 0.0
C3770 C 0.98621 0.93503 0.21505 0.0
C3771 C 0.97403 0.92833 0.20531 0.0
C3772 C 0.00917 0.9199 0.19545 0.0
C3773 C 0.02143 0.92806 0.20488 0.0
N3774 N 0.02188 0.94756 0.22274 0.0
N3775 N 0.97382 0.91991 0.18536 0.0
C3776 C 0.01001 0.93695 0.21441 0.0
C3777 C 0.98551 0.92251 0.19522 0.0
N3778 N 0.97519 0.93859 0.22502 0.0
N3779 N 0.01993 0.90861 0.18696 0.0
H3780 H 0.95645 0.92208 0.18481 0.0
H3781 H 0.98159 0.91787 0.17753 0.0
H3782 H 0.03723 0.9058 0.18687 0.0
H3783 H 0.01145 0.90017 0.18053 0.0
H3784 H 0.98341 0.9411 0.23269 0.0
H3785 H 0.95778 0.93725 0.22583 0.0
H3786 H 0.01432 0.95633 0.22934 0.0
H3787 H 0.03932 0.94931 0.22249 0.0
C3788 C 0.31098 0.73685 0.46255 0.0
C3789 C 0.32307 0.72505 0.4541 0.0
C3790 C 0.33551 0.76056 0.44572 0.0
C3791 C 0.32242 0.7724 0.45379 0.0
N3792 N 0.29481 0.7723 0.46867 0.0
N3793 N 0.34298 0.72513 0.43634 0.0
C3794 C 0.30925 0.76067 0.46185 0.0
C3795 C 0.33415 0.73676 0.44527 0.0
N3796 N 0.30184 0.72535 0.47144 0.0
N3797 N 0.34996 0.77199 0.4388 0.0
H3798 H 0.34238 0.70764 0.43573 0.0
H3799 H 0.3491 0.73284 0.42906 0.0
H3800 H 0.35146 0.78946 0.43881 0.0
H3801 H 0.36182 0.7641 0.43369 0.0
H3802 H 0.29499 0.73314 0.47852 0.0
H3803 H 0.30249 0.70787 0.47211 0.0
H3804 H 0.28307 0.76463 0.47393 0.0
H3805 H 0.2933 0.78978 0.46842 0.0
C3806 C 0.48692 0.06593 0.69563 0.0
C3807 C 0.47579 0.0671 0.7062 0.0
C3808 C 0.51191 0.06442 0.71605 0.0
C3809 C 0.52307 0.06665 0.70552 0.0
N3810 N 0.52159 0.07137 0.68527 0.0
N3811 N 0.47703 0.06819 0.72653 0.0
C3812 C 0.51071 0.0676 0.69527 0.0
C3813 C 0.48809 0.0663 0.71645 0.0
N3814 N 0.47468 0.06324 0.68595 0.0
N3815 N 0.52414 0.06029 0.7256 0.0
H3816 H 0.45954 0.06876 0.72712 0.0
H3817 H 0.48511 0.0704 0.73426 0.0
H3818 H 0.54162 0.05886 0.72553 0.0
H3819 H 0.51698 0.05643 0.73339 0.0
H3820 H 0.48186 0.05993 0.6781 0.0
H3821 H 0.45717 0.06233 0.6859 0.0
H3822 H 0.51333 0.07496 0.67773 0.0
H3823 H 0.53902 0.07257 0.68459 0.0
C3824 C 0.79024 0.25868 0.95541 0.0
C3825 C 0.80308 0.27132 0.96321 0.0
C3826 C 0.81669 0.23627 0.97156 0.0
C3827 C 0.80968 0.22473 0.96167 0.0
N3828 N 0.78789 0.22459 0.9444 0.0
N3829 N 0.81155 0.26961 0.98303 0.0
C3830 C 0.79559 0.23571 0.95372 0.0
C3831 C 0.81142 0.25945 0.97271 0.0
N3832 N 0.771 0.26751 0.95103 0.0
N3833 N 0.82881 0.22534 0.97967 0.0
H3834 H 0.80495 0.28575 0.98413 0.0
H3835 H 0.81554 0.26126 0.9905 0.0
H3836 H 0.83217 0.20813 0.97932 0.0
H3837 H 0.83642 0.23366 0.98641 0.0
H3838 H 0.7599 0.25828 0.94603 0.0
H3839 H 0.76482 0.28301 0.9538 0.0
H3840 H 0.77941 0.23275 0.93787 0.0
H3841 H 0.79123 0.20763 0.94287 0.0
C3842 C 0.66201 0.76281 0.44848 0.0
C3843 C 0.67628 0.77437 0.45614 0.0
C3844 C 0.68649 0.73858 0.46507 0.0
C3845 C 0.67354 0.72703 0.45685 0.0
N3846 N 0.65358 0.72768 0.43909 0.0
N3847 N 0.7052 0.77328 0.47039 0.0
C3848 C 0.66274 0.73902 0.44803 0.0
C3849 C 0.68948 0.76225 0.46405 0.0
N3850 N 0.64691 0.77444 0.44201 0.0
N3851 N 0.69521 0.7271 0.47406 0.0
H3852 H 0.70785 0.79059 0.46981 0.0
H3853 H 0.71688 0.76508 0.47549 0.0
H3854 H 0.69347 0.70975 0.47503 0.0
H3855 H 0.7027 0.73494 0.48097 0.0
H3856 H 0.63448 0.76664 0.43721 0.0
H3857 H 0.64527 0.79189 0.44226 0.0
H3858 H 0.64756 0.73569 0.43188 0.0
H3859 H 0.65405 0.7102 0.43837 0.0
C3860 C 0.81688 0.73808 0.02897 0.0
C3861 C 0.81475 0.72701 0.03952 0.0
C3862 C 0.8089 0.76315 0.04901 0.0
C3863 C 0.81464 0.77427 0.03881 0.0
N3864 N 0.82362 0.77316 0.01899 0.0
N3865 N 0.80885 0.72829 0.05965 0.0
C3866 C 0.81815 0.76197 0.0287 0.0
C3867 C 0.81036 0.73933 0.04954 0.0
N3868 N 0.81774 0.72563 0.01926 0.0
N3869 N 0.80224 0.77545 0.05818 0.0
H3870 H 0.80904 0.7108 0.06032 0.0
H3871 H 0.80856 0.73635 0.06746 0.0
H3872 H 0.80147 0.79297 0.05813 0.0
H3873 H 0.79573 0.76839 0.06553 0.0
H3874 H 0.81743 0.73252 0.01119 0.0
H3875 H 0.81696 0.70809 0.01929 0.0
H3876 H 0.82894 0.76526 0.01162 0.0
H3877 H 0.82373 0.79067 0.01844 0.0
C3878 C 0.70686 0.25936 0.54418 0.0
C3879 C 0.69388 0.27167 0.53629 0.0
C3880 C 0.68103 0.2363 0.52798 0.0
C3881 C 0.68817 0.22499 0.5379 0.0
N3882 N 0.71019 0.22517 0.55507 0.0
N3883 N 0.68577 0.2696 0.51644 0.0
C3884 C 0.70204 0.23625 0.54584 0.0
C3885 C 0.68595 0.25954 0.52679 0.0
N3886 N 0.72583 0.26867 0.54862 0.0
N3887 N 0.66896 0.22516 0.51992 0.0
H3888 H 0.69203 0.28586 0.51532 0.0
H3889 H 0.68207 0.26106 0.50897 0.0
H3890 H 0.66561 0.20796 0.52037 0.0
H3891 H 0.66132 0.23332 0.51314 0.0
H3892 H 0.73705 0.25975 0.55368 0.0
H3893 H 0.73174 0.28424 0.54581 0.0
H3894 H 0.71845 0.23343 0.56165 0.0
H3895 H 0.70756 0.20803 0.55644 0.0
C3896 C 0.98935 0.41906 0.80328 0.0
C3897 C 0.97757 0.42729 0.79371 0.0
C3898 C 0.01323 0.43311 0.78373 0.0
C3899 C 0.02494 0.42619 0.79357 0.0
N3900 N 0.02458 0.41751 0.81348 0.0
N3901 N 0.97799 0.44585 0.77561 0.0
C3902 C 0.0131 0.42073 0.8036 0.0
C3903 C 0.98944 0.43547 0.78415 0.0
N3904 N 0.97796 0.40861 0.81184 0.0
N3905 N 0.02474 0.43661 0.77389 0.0
H3906 H 0.96056 0.44781 0.77568 0.0
H3907 H 0.98582 0.45414 0.76894 0.0
H3908 H 0.04219 0.43531 0.77332 0.0
H3909 H 0.01695 0.43922 0.76613 0.0
H3910 H 0.98591 0.40004 0.81839 0.0
H3911 H 0.96054 0.40668 0.81192 0.0
H3912 H 0.0167 0.41584 0.82129 0.0
H3913 H 0.04204 0.41863 0.81405 0.0
C3914 C 0.48573 0.56692 0.28337 0.0
C3915 C 0.47365 0.57158 0.29344 0.0
C3916 C 0.50882 0.57783 0.30368 0.0
C3917 C 0.521 0.57233 0.29374 0.0
N3918 N 0.52155 0.55718 0.27486 0.0
N3919 N 0.47332 0.57612 0.31368 0.0
C3920 C 0.50958 0.56543 0.2838 0.0
C3921 C 0.48512 0.57528 0.30377 0.0
N3922 N 0.47451 0.56491 0.27335 0.0
N3923 N 0.51974 0.58662 0.31285 0.0
H3924 H 0.4559 0.57427 0.31404 0.0
H3925 H 0.48093 0.57651 0.3216 0.0
H3926 H 0.5371 0.58895 0.31315 0.0
H3927 H 0.51143 0.59337 0.31981 0.0
H3928 H 0.48252 0.56408 0.26554 0.0
H3929 H 0.45703 0.5656 0.27274 0.0
H3930 H 0.51413 0.54983 0.2678 0.0
H3931 H 0.53904 0.5559 0.27494 0.0
C3932 C 0.48848 0.43301 0.71515 0.0
C3933 C 0.47683 0.43059 0.70476 0.0
C3934 C 0.51247 0.4277 0.69448 0.0
C3935 C 0.52413 0.42965 0.7049 0.0
N3936 N 0.52421 0.43819 0.72479 0.0
N3937 N 0.47698 0.42979 0.6844 0.0
C3938 C 0.5124 0.43369 0.71513 0.0
C3939 C 0.48863 0.42935 0.69437 0.0
N3940 N 0.47662 0.43383 0.72504 0.0
N3941 N 0.52422 0.42344 0.68478 0.0
H3942 H 0.45947 0.4303 0.68401 0.0
H3943 H 0.48449 0.43124 0.6765 0.0
H3944 H 0.54174 0.4233 0.68443 0.0
H3945 H 0.51679 0.419 0.67714 0.0
H3946 H 0.48391 0.43298 0.73302 0.0
H3947 H 0.45909 0.43437 0.7253 0.0
H3948 H 0.51687 0.44337 0.73233 0.0
H3949 H 0.54173 0.43825 0.72508 0.0
C3950 C 0.98622 0.57123 0.21542 0.0
C3951 C 0.97459 0.57092 0.20496 0.0
C3952 C 0.0102 0.57095 0.19463 0.0
C3953 C 0.02191 0.57074 0.20508 0.0
N3954 N 0.02161 0.56596 0.22529 0.0
N3955 N 0.97489 0.56528 0.18481 0.0
C3956 C 0.01005 0.56935 0.21545 0.0
C3957 C 0.98643 0.56902 0.19462 0.0
N3958 N 0.97455 0.57422 0.22526 0.0
N3959 N 0.02167 0.57425 0.18475 0.0
H3960 H 0.95741 0.56398 0.18452 0.0
H3961 H 0.98265 0.56144 0.17717 0.0
H3962 H 0.03911 0.57579 0.18434 0.0
H3963 H 0.01383 0.57723 0.17703 0.0
H3964 H 0.98219 0.57726 0.23302 0.0
H3965 H 0.95704 0.57502 0.22556 0.0
H3966 H 0.01388 0.56266 0.233 0.0
H3967 H 0.03908 0.56455 0.22556 0.0
loop_
_geom_bond_atom_site_label_1
_geom_bond_atom_site_label_2
_geom_bond_distance
_geom_bond_site_symmetry_2
_ccdc_geom_bond_type
Li0 N17 1.990 . S
Li0 O60 1.956 . S
Li0 O61 1.970 . S
Li0 O62 1.961 . S
Li1 N25 1.990 . S
Li1 O60 1.970 . S
Li1 O61 1.956 . S
Li1 O63 1.961 . S
Li2 N47 1.990 . S
Li2 O60 1.961 . S
Li2 O62 1.956 . S
Li2 O63 1.970 . S
Li3 N53 1.990 . S
Li3 O61 1.961 . S
Li3 O62 1.970 . S
Li3 O63 1.956 . S
C4 C6 1.348 . S
C4 C7 1.356 . S
C4 O60 1.325 . S
N5 C8 1.314 . S
N5 C9 1.279 . S
C6 C4 1.348 . S
C6 C8 1.353 . S
C6 H64 0.929 . S
C7 C4 1.356 . S
C7 C9 1.358 . S
C7 H65 0.930 . S
C8 N5 1.314 . S
C8 C6 1.353 . S
C8 H66 0.930 . S
C9 N5 1.279 . S
C9 C7 1.358 . S
C9 H67 0.930 . S
C10 C13 1.348 . S
C10 C14 1.356 . S
C10 O61 1.325 . S
C11 N12 1.279 . S
C11 C14 1.358 . S
C11 H68 0.930 . S
N12 C11 1.279 . S
N12 C15 1.314 . S
C13 C10 1.348 . S
C13 C15 1.353 . S
C13 H69 0.929 . S
C14 C10 1.356 . S
C14 C11 1.358 . S
C14 H70 0.930 . S
C15 N12 1.314 . S
C15 C13 1.353 . S
C15 H71 0.930 . S
C16 N17 1.314 . S
C16 C21 1.353 . S
C16 H22 0.930 . S
N17 Li0 1.990 . S
N17 C16 1.314 . S
N17 C19 1.279 . S
C18 C19 1.358 . S
C18 C20 1.356 . S
C18 H72 0.930 . S
C19 N17 1.279 . S
C19 C18 1.358 . S
C19 H23 0.930 . S
C20 C18 1.356 . S
C20 C21 1.348 . S
C21 C16 1.353 . S
C21 C20 1.348 . S
C21 H73 0.929 . S
H22 C16 0.930 . S
H23 C19 0.930 . S
C24 N25 1.314 . S
C24 C26 1.353 . S
C24 H30 0.930 . S
N25 Li1 1.990 . S
N25 C24 1.314 . S
N25 C28 1.279 . S
C26 C24 1.353 . S
C26 C29 1.348 . S
C26 H74 0.929 . S
C27 C28 1.358 . S
C27 C29 1.356 . S
C27 H75 0.930 . S
C28 N25 1.279 . S
C28 C27 1.358 . S
C28 H31 0.930 . S
C29 C26 1.348 . S
C29 C27 1.356 . S
H30 C24 0.930 . S
H31 C28 0.930 . S
C32 C34 1.348 . S
C32 C35 1.356 . S
C32 O62 1.325 . S
N33 C36 1.314 . S
N33 C37 1.279 . S
C34 C32 1.348 . S
C34 C36 1.353 . S
C34 H76 0.929 . S
C35 C32 1.356 . S
C35 C37 1.358 . S
C35 H77 0.930 . S
C36 N33 1.314 . S
C36 C34 1.353 . S
C36 H78 0.930 . S
C37 N33 1.279 . S
C37 C35 1.358 . S
C37 H79 0.930 . S
C38 C39 1.348 . S
C38 C40 1.356 . S
C38 O63 1.325 . S
C39 C38 1.348 . S
C39 C41 1.353 . S
C39 H80 0.929 . S
C40 C38 1.356 . S
C40 C42 1.358 . S
C40 H81 0.930 . S
C41 C39 1.353 . S
C41 N43 1.314 . S
C41 H82 0.930 . S
C42 C40 1.358 . S
C42 N43 1.279 . S
C42 H83 0.930 . S
N43 C41 1.314 . S
N43 C42 1.279 . S
C44 C46 1.353 . S
C44 N47 1.314 . S
C44 H50 0.930 . S
C45 N47 1.279 . S
C45 C48 1.358 . S
C45 H51 0.930 . S
C46 C44 1.353 . S
C46 C49 1.348 . S
C46 H84 0.929 . S
N47 Li2 1.990 . S
N47 C44 1.314 . S
N47 C45 1.279 . S
C48 C45 1.358 . S
C48 C49 1.356 . S
C48 H85 0.930 . S
C49 C46 1.348 . S
C49 C48 1.356 . S
H50 C44 0.930 . S
H51 C45 0.930 . S
C52 N53 1.314 . S
C52 C54 1.353 . S
C52 H58 0.930 . S
N53 Li3 1.990 . S
N53 C52 1.314 . S
N53 C56 1.279 . S
C54 C52 1.353 . S
C54 C57 1.348 . S
C54 H86 0.929 . S
C55 C56 1.358 . S
C55 C57 1.356 . S
C55 H87 0.930 . S
C56 N53 1.279 . S
C56 C55 1.358 . S
C56 H59 0.930 . S
C57 C54 1.348 . S
C57 C55 1.356 . S
H58 C52 0.930 . S
H59 C56 0.930 . S
O60 Li0 1.956 . S
O60 Li1 1.970 . S
O60 Li2 1.961 . S
O60 C4 1.325 . S
O61 Li0 1.970 . S
O61 Li1 1.956 . S
O61 Li3 1.961 . S
O61 C10 1.325 . S
O62 Li0 1.961 . S
O62 Li2 1.956 . S
O62 Li3 1.970 . S
O62 C32 1.325 . S
O63 Li1 1.961 . S
O63 Li2 1.970 . S
O63 Li3 1.956 . S
O63 C38 1.325 . S
H64 C6 0.929 . S
H65 C7 0.930 . S
H66 C8 0.930 . S
H67 C9 0.930 . S
H68 C11 0.930 . S
H69 C13 0.929 . S
H70 C14 0.930 . S
H71 C15 0.930 . S
H72 C18 0.930 . S
H73 C21 0.929 . S
H74 C26 0.929 . S
H75 C27 0.930 . S
H76 C34 0.929 . S
H77 C35 0.930 . S
H78 C36 0.930 . S
H79 C37 0.930 . S
H80 C39 0.929 . S
H81 C40 0.930 . S
H82 C41 0.930 . S
H83 C42 0.930 . S
H84 C46 0.929 . S
H85 C48 0.930 . S
H86 C54 0.929 . S
H87 C55 0.930 . S
Li88 N105 1.990 . S
Li88 O148 1.956 . S
Li88 O149 1.970 . S
Li88 O150 1.961 . S
Li89 N113 1.990 . S
Li89 O148 1.970 . S
Li89 O149 1.956 . S
Li89 O151 1.961 . S
Li90 N135 1.990 . S
Li90 O148 1.961 . S
Li90 O150 1.956 . S
Li90 O151 1.970 . S
Li91 N141 1.990 . S
Li91 O149 1.961 . S
Li91 O150 1.970 . S
Li91 O151 1.956 . S
C92 C94 1.348 . S
C92 C95 1.356 . S
C92 O148 1.325 . S
N93 C96 1.314 1_545 S
N93 C97 1.279 1_545 S
C94 C92 1.348 . S
C94 C96 1.353 . S
C94 H152 0.929 . S
C95 C92 1.356 . S
C95 C97 1.358 . S
C95 H153 0.930 . S
C96 N93 1.314 1_565 S
C96 C94 1.353 . S
C96 H154 0.930 1_565 S
C97 N93 1.279 1_565 S
C97 C95 1.358 . S
C97 H155 0.930 1_565 S
C98 C101 1.348 . S
C98 C102 1.356 . S
C98 O149 1.325 . S
C99 N100 1.279 . S
C99 C102 1.358 . S
C99 H156 0.930 . S
N100 C99 1.279 . S
N100 C103 1.314 . S
C101 C98 1.348 . S
C101 C103 1.353 . S
C101 H157 0.929 . S
C102 C98 1.356 . S
C102 C99 1.358 . S
C102 H158 0.930 . S
C103 N100 1.314 . S
C103 C101 1.353 . S
C103 H159 0.930 . S
C104 N105 1.314 . S
C104 C109 1.353 . S
C104 H110 0.930 . S
N105 Li88 1.990 . S
N105 C104 1.314 . S
N105 C107 1.279 . S
C106 C107 1.358 . S
C106 C108 1.356 . S
C106 H160 0.930 . S
C107 N105 1.279 . S
C107 C106 1.358 . S
C107 H111 0.930 . S
C108 C106 1.356 . S
C108 C109 1.348 . S
C109 C104 1.353 . S
C109 C108 1.348 . S
C109 H161 0.929 . S
H110 C104 0.930 . S
H111 C107 0.930 . S
C112 N113 1.314 . S
C112 C114 1.353 . S
C112 H118 0.930 . S
N113 Li89 1.990 . S
N113 C112 1.314 . S
N113 C116 1.279 . S
C114 C112 1.353 . S
C114 C117 1.348 . S
C114 H162 0.929 . S
C115 C116 1.358 . S
C115 C117 1.356 . S
C115 H163 0.930 . S
C116 N113 1.279 . S
C116 C115 1.358 . S
C116 H119 0.930 . S
C117 C114 1.348 . S
C117 C115 1.356 . S
H118 C112 0.930 . S
H119 C116 0.930 . S
C120 C122 1.348 . S
C120 C123 1.356 . S
C120 O150 1.325 . S
N121 C124 1.314 . S
N121 C125 1.279 . S
C122 C120 1.348 . S
C122 C124 1.353 . S
C122 H164 0.929 . S
C123 C120 1.356 . S
C123 C125 1.358 . S
C123 H165 0.930 . S
C124 N121 1.314 . S
C124 C122 1.353 . S
C124 H166 0.930 . S
C125 N121 1.279 . S
C125 C123 1.358 . S
C125 H167 0.930 . S
C126 C127 1.348 . S
C126 C128 1.356 . S
C126 O151 1.325 . S
C127 C126 1.348 . S
C127 C129 1.353 . S
C127 H168 0.929 . S
C128 C126 1.356 . S
C128 C130 1.358 . S
C128 H169 0.930 . S
C129 C127 1.353 . S
C129 N131 1.314 . S
C129 H170 0.930 . S
C130 C128 1.358 . S
C130 N131 1.279 . S
C130 H171 0.930 . S
N131 C129 1.314 . S
N131 C130 1.279 . S
C132 C134 1.353 . S
C132 N135 1.314 . S
C132 H138 0.930 . S
C133 N135 1.279 . S
C133 C136 1.358 . S
C133 H139 0.930 . S
C134 C132 1.353 . S
C134 C137 1.348 . S
C134 H172 0.929 . S
N135 Li90 1.990 . S
N135 C132 1.314 . S
N135 C133 1.279 . S
C136 C133 1.358 . S
C136 C137 1.356 . S
C136 H173 0.930 . S
C137 C134 1.348 . S
C137 C136 1.356 . S
H138 C132 0.930 . S
H139 C133 0.930 . S
C140 N141 1.314 . S
C140 C142 1.353 . S
C140 H146 0.930 . S
N141 Li91 1.990 . S
N141 C140 1.314 . S
N141 C144 1.279 . S
C142 C140 1.353 . S
C142 C145 1.348 . S
C142 H174 0.929 . S
C143 C144 1.358 . S
C143 C145 1.356 . S
C143 H175 0.930 . S
C144 N141 1.279 . S
C144 C143 1.358 . S
C144 H147 0.930 . S
C145 C142 1.348 . S
C145 C143 1.356 . S
H146 C140 0.930 . S
H147 C144 0.930 . S
O148 Li88 1.956 . S
O148 Li89 1.970 . S
O148 Li90 1.961 . S
O148 C92 1.325 . S
O149 Li88 1.970 . S
O149 Li89 1.956 . S
O149 Li91 1.961 . S
O149 C98 1.325 . S
O150 Li88 1.961 . S
O150 Li90 1.956 . S
O150 Li91 1.970 . S
O150 C120 1.325 . S
O151 Li89 1.961 . S
O151 Li90 1.970 . S
O151 Li91 1.956 . S
O151 C126 1.325 . S
H152 C94 0.929 . S
H153 C95 0.930 . S
H154 C96 0.930 1_545 S
H155 C97 0.930 1_545 S
H156 C99 0.930 . S
H157 C101 0.929 . S
H158 C102 0.930 . S
H159 C103 0.930 . S
H160 C106 0.930 . S
H161 C109 0.929 . S
H162 C114 0.929 . S
H163 C115 0.930 . S
H164 C122 0.929 . S
H165 C123 0.930 . S
H166 C124 0.930 . S
H167 C125 0.930 . S
H168 C127 0.929 . S
H169 C128 0.930 . S
H170 C129 0.930 . S
H171 C130 0.930 . S
H172 C134 0.929 . S
H173 C136 0.930 . S
H174 C142 0.929 . S
H175 C143 0.930 . S
Li176 N193 1.990 . S
Li176 O236 1.956 . S
Li176 O237 1.970 . S
Li176 O238 1.961 . S
Li177 N201 1.990 . S
Li177 O236 1.970 . S
Li177 O237 1.956 . S
Li177 O239 1.961 . S
Li178 N223 1.990 . S
Li178 O236 1.961 . S
Li178 O238 1.956 . S
Li178 O239 1.970 . S
Li179 N229 1.990 . S
Li179 O237 1.961 . S
Li179 O238 1.970 . S
Li179 O239 1.956 . S
C180 C182 1.348 . S
C180 C183 1.356 . S
C180 O236 1.325 . S
N181 C184 1.314 . S
N181 C185 1.279 . S
C182 C180 1.348 . S
C182 C184 1.353 . S
C182 H240 0.929 . S
C183 C180 1.356 . S
C183 C185 1.358 . S
C183 H241 0.930 . S
C184 N181 1.314 . S
C184 C182 1.353 . S
C184 H242 0.930 . S
C185 N181 1.279 . S
C185 C183 1.358 . S
C185 H243 0.930 . S
C186 C189 1.348 . S
C186 C190 1.356 . S
C186 O237 1.325 . S
C187 N188 1.279 . S
C187 C190 1.358 . S
C187 H244 0.930 . S
N188 C187 1.279 . S
N188 C191 1.314 . S
C189 C186 1.348 . S
C189 C191 1.353 . S
C189 H245 0.929 . S
C190 C186 1.356 . S
C190 C187 1.358 . S
C190 H246 0.930 . S
C191 N188 1.314 . S
C191 C189 1.353 . S
C191 H247 0.930 . S
C192 N193 1.314 . S
C192 C197 1.353 . S
C192 H198 0.930 . S
N193 Li176 1.990 . S
N193 C192 1.314 . S
N193 C195 1.279 . S
C194 C195 1.358 . S
C194 C196 1.356 . S
C194 H248 0.930 . S
C195 N193 1.279 . S
C195 C194 1.358 . S
C195 H199 0.930 . S
C196 C194 1.356 . S
C196 C197 1.348 . S
C197 C192 1.353 . S
C197 C196 1.348 . S
C197 H249 0.929 . S
H198 C192 0.930 . S
H199 C195 0.930 . S
C200 N201 1.314 . S
C200 C202 1.353 . S
C200 H206 0.930 . S
N201 Li177 1.990 . S
N201 C200 1.314 . S
N201 C204 1.279 . S
C202 C200 1.353 . S
C202 C205 1.348 . S
C202 H250 0.929 . S
C203 C204 1.358 . S
C203 C205 1.356 . S
C203 H251 0.930 . S
C204 N201 1.279 . S
C204 C203 1.358 . S
C204 H207 0.930 . S
C205 C202 1.348 . S
C205 C203 1.356 . S
H206 C200 0.930 . S
H207 C204 0.930 . S
C208 C210 1.348 . S
C208 C211 1.356 . S
C208 O238 1.325 . S
N209 C212 1.314 . S
N209 C213 1.279 . S
C210 C208 1.348 . S
C210 C212 1.353 . S
C210 H252 0.929 . S
C211 C208 1.356 . S
C211 C213 1.358 . S
C211 H253 0.930 . S
C212 N209 1.314 . S
C212 C210 1.353 . S
C212 H254 0.930 . S
C213 N209 1.279 . S
C213 C211 1.358 . S
C213 H255 0.930 . S
C214 C215 1.348 . S
C214 C216 1.356 . S
C214 O239 1.325 . S
C215 C214 1.348 . S
C215 C217 1.353 . S
C215 H256 0.929 . S
C216 C214 1.356 . S
C216 C218 1.358 . S
C216 H257 0.930 . S
C217 C215 1.353 . S
C217 N219 1.314 . S
C217 H258 0.930 . S
C218 C216 1.358 . S
C218 N219 1.279 . S
C218 H259 0.930 . S
N219 C217 1.314 . S
N219 C218 1.279 . S
C220 C222 1.353 . S
C220 N223 1.314 . S
C220 H226 0.930 . S
C221 N223 1.279 . S
C221 C224 1.358 . S
C221 H227 0.930 . S
C222 C220 1.353 . S
C222 C225 1.348 . S
C222 H260 0.929 . S
N223 Li178 1.990 . S
N223 C220 1.314 . S
N223 C221 1.279 . S
C224 C221 1.358 . S
C224 C225 1.356 . S
C224 H261 0.930 . S
C225 C222 1.348 . S
C225 C224 1.356 . S
H226 C220 0.930 . S
H227 C221 0.930 . S
C228 N229 1.314 . S
C228 C230 1.353 . S
C228 H234 0.930 . S
N229 Li179 1.990 . S
N229 C228 1.314 . S
N229 C232 1.279 . S
C230 C228 1.353 . S
C230 C233 1.348 . S
C230 H262 0.929 . S
C231 C232 1.358 . S
C231 C233 1.356 . S
C231 H263 0.930 . S
C232 N229 1.279 . S
C232 C231 1.358 . S
C232 H235 0.930 . S
C233 C230 1.348 . S
C233 C231 1.356 . S
H234 C228 0.930 . S
H235 C232 0.930 . S
O236 Li176 1.956 . S
O236 Li177 1.970 . S
O236 Li178 1.961 . S
O236 C180 1.325 . S
O237 Li176 1.970 . S
O237 Li177 1.956 . S
O237 Li179 1.961 . S
O237 C186 1.325 . S
O238 Li176 1.961 . S
O238 Li178 1.956 . S
O238 Li179 1.970 . S
O238 C208 1.325 . S
O239 Li177 1.961 . S
O239 Li178 1.970 . S
O239 Li179 1.956 . S
O239 C214 1.325 . S
H240 C182 0.929 . S
H241 C183 0.930 . S
H242 C184 0.930 . S
H243 C185 0.930 . S
H244 C187 0.930 . S
H245 C189 0.929 . S
H246 C190 0.930 . S
H247 C191 0.930 . S
H248 C194 0.930 . S
H249 C197 0.929 . S
H250 C202 0.929 . S
H251 C203 0.930 . S
H252 C210 0.929 . S
H253 C211 0.930 . S
H254 C212 0.930 . S
H255 C213 0.930 . S
H256 C215 0.929 . S
H257 C216 0.930 . S
H258 C217 0.930 . S
H259 C218 0.930 . S
H260 C222 0.929 . S
H261 C224 0.930 . S
H262 C230 0.929 . S
H263 C231 0.930 . S
Li264 N281 1.990 . S
Li264 O324 1.956 . S
Li264 O325 1.970 . S
Li264 O326 1.961 . S
Li265 N289 1.990 . S
Li265 O324 1.970 . S
Li265 O325 1.956 . S
Li265 O327 1.961 . S
Li266 N311 1.990 . S
Li266 O324 1.961 . S
Li266 O326 1.956 . S
Li266 O327 1.970 . S
Li267 N317 1.990 . S
Li267 O325 1.961 . S
Li267 O326 1.970 . S
Li267 O327 1.956 . S
C268 C270 1.348 . S
C268 C271 1.356 . S
C268 O324 1.325 . S
N269 C272 1.314 . S
N269 C273 1.279 . S
C270 C268 1.348 . S
C270 C272 1.353 . S
C270 H328 0.929 . S
C271 C268 1.356 . S
C271 C273 1.358 . S
C271 H329 0.930 . S
C272 N269 1.314 . S
C272 C270 1.353 . S
C272 H330 0.930 . S
C273 N269 1.279 . S
C273 C271 1.358 . S
C273 H331 0.930 . S
C274 C277 1.348 . S
C274 C278 1.356 . S
C274 O325 1.325 . S
C275 N276 1.279 1_545 S
C275 C278 1.358 . S
C275 H332 0.930 1_545 S
N276 C275 1.279 1_565 S
N276 C279 1.314 1_565 S
C277 C274 1.348 . S
C277 C279 1.353 . S
C277 H333 0.929 . S
C278 C274 1.356 . S
C278 C275 1.358 . S
C278 H334 0.930 . S
C279 N276 1.314 1_545 S
C279 C277 1.353 . S
C279 H335 0.930 1_545 S
C280 N281 1.314 . S
C280 C285 1.353 . S
C280 H286 0.930 . S
N281 Li264 1.990 . S
N281 C280 1.314 . S
N281 C283 1.279 . S
C282 C283 1.358 . S
C282 C284 1.356 . S
C282 H336 0.930 . S
C283 N281 1.279 . S
C283 C282 1.358 . S
C283 H287 0.930 . S
C284 C282 1.356 . S
C284 C285 1.348 . S
C285 C280 1.353 . S
C285 C284 1.348 . S
C285 H337 0.929 . S
H286 C280 0.930 . S
H287 C283 0.930 . S
C288 N289 1.314 . S
C288 C290 1.353 . S
C288 H294 0.930 . S
N289 Li265 1.990 . S
N289 C288 1.314 . S
N289 C292 1.279 . S
C290 C288 1.353 . S
C290 C293 1.348 . S
C290 H338 0.929 . S
C291 C292 1.358 . S
C291 C293 1.356 . S
C291 H339 0.930 . S
C292 N289 1.279 . S
C292 C291 1.358 . S
C292 H295 0.930 . S
C293 C290 1.348 . S
C293 C291 1.356 . S
H294 C288 0.930 . S
H295 C292 0.930 . S
C296 C298 1.348 . S
C296 C299 1.356 . S
C296 O326 1.325 . S
N297 C300 1.314 . S
N297 C301 1.279 . S
C298 C296 1.348 . S
C298 C300 1.353 . S
C298 H340 0.929 . S
C299 C296 1.356 . S
C299 C301 1.358 . S
C299 H341 0.930 . S
C300 N297 1.314 . S
C300 C298 1.353 . S
C300 H342 0.930 . S
C301 N297 1.279 . S
C301 C299 1.358 . S
C301 H343 0.930 . S
C302 C303 1.348 . S
C302 C304 1.356 . S
C302 O327 1.325 . S
C303 C302 1.348 . S
C303 C305 1.353 . S
C303 H344 0.929 . S
C304 C302 1.356 . S
C304 C306 1.358 . S
C304 H345 0.930 . S
C305 C303 1.353 . S
C305 N307 1.314 . S
C305 H346 0.930 . S
C306 C304 1.358 . S
C306 N307 1.279 . S
C306 H347 0.930 . S
N307 C305 1.314 . S
N307 C306 1.279 . S
C308 C310 1.353 . S
C308 N311 1.314 . S
C308 H314 0.930 . S
C309 N311 1.279 . S
C309 C312 1.358 . S
C309 H315 0.930 . S
C310 C308 1.353 . S
C310 C313 1.348 . S
C310 H348 0.929 . S
N311 Li266 1.990 . S
N311 C308 1.314 . S
N311 C309 1.279 . S
C312 C309 1.358 . S
C312 C313 1.356 . S
C312 H349 0.930 . S
C313 C310 1.348 . S
C313 C312 1.356 . S
H314 C308 0.930 . S
H315 C309 0.930 . S
C316 N317 1.314 . S
C316 C318 1.353 . S
C316 H322 0.930 . S
N317 Li267 1.990 . S
N317 C316 1.314 . S
N317 C320 1.279 . S
C318 C316 1.353 . S
C318 C321 1.348 . S
C318 H350 0.929 . S
C319 C320 1.358 . S
C319 C321 1.356 . S
C319 H351 0.930 . S
C320 N317 1.279 . S
C320 C319 1.358 . S
C320 H323 0.930 . S
C321 C318 1.348 . S
C321 C319 1.356 . S
H322 C316 0.930 . S
H323 C320 0.930 . S
O324 Li264 1.956 . S
O324 Li265 1.970 . S
O324 Li266 1.961 . S
O324 C268 1.325 . S
O325 Li264 1.970 . S
O325 Li265 1.956 . S
O325 Li267 1.961 . S
O325 C274 1.325 . S
O326 Li264 1.961 . S
O326 Li266 1.956 . S
O326 Li267 1.970 . S
O326 C296 1.325 . S
O327 Li265 1.961 . S
O327 Li266 1.970 . S
O327 Li267 1.956 . S
O327 C302 1.325 . S
H328 C270 0.929 . S
H329 C271 0.930 . S
H330 C272 0.930 . S
H331 C273 0.930 . S
H332 C275 0.930 1_565 S
H333 C277 0.929 . S
H334 C278 0.930 . S
H335 C279 0.930 1_565 S
H336 C282 0.930 . S
H337 C285 0.929 . S
H338 C290 0.929 . S
H339 C291 0.930 . S
H340 C298 0.929 . S
H341 C299 0.930 . S
H342 C300 0.930 . S
H343 C301 0.930 . S
H344 C303 0.929 . S
H345 C304 0.930 . S
H346 C305 0.930 . S
H347 C306 0.930 . S
H348 C310 0.929 . S
H349 C312 0.930 . S
H350 C318 0.929 . S
H351 C319 0.930 . S
Li352 N369 1.990 . S
Li352 O412 1.956 . S
Li352 O413 1.970 . S
Li352 O414 1.961 . S
Li353 N377 1.990 . S
Li353 O412 1.970 . S
Li353 O413 1.956 . S
Li353 O415 1.961 . S
Li354 N399 1.990 . S
Li354 O412 1.961 . S
Li354 O414 1.956 . S
Li354 O415 1.970 . S
Li355 N405 1.990 . S
Li355 O413 1.961 . S
Li355 O414 1.970 . S
Li355 O415 1.956 . S
C356 C358 1.348 . S
C356 C359 1.356 . S
C356 O412 1.325 . S
N357 C360 1.314 . S
N357 C361 1.279 . S
C358 C356 1.348 . S
C358 C360 1.353 . S
C358 H416 0.929 . S
C359 C356 1.356 . S
C359 C361 1.358 . S
C359 H417 0.930 . S
C360 N357 1.314 . S
C360 C358 1.353 . S
C360 H418 0.930 . S
C361 N357 1.279 . S
C361 C359 1.358 . S
C361 H419 0.930 . S
C362 C365 1.348 . S
C362 C366 1.356 . S
C362 O413 1.325 . S
C363 N364 1.279 . S
C363 C366 1.358 . S
C363 H420 0.930 . S
N364 C363 1.279 . S
N364 C367 1.314 . S
C365 C362 1.348 . S
C365 C367 1.353 . S
C365 H421 0.929 . S
C366 C362 1.356 . S
C366 C363 1.358 . S
C366 H422 0.930 . S
C367 N364 1.314 . S
C367 C365 1.353 . S
C367 H423 0.930 . S
C368 N369 1.314 . S
C368 C373 1.353 . S
C368 H374 0.930 . S
N369 Li352 1.990 . S
N369 C368 1.314 . S
N369 C371 1.279 . S
C370 C371 1.358 . S
C370 C372 1.356 . S
C370 H424 0.930 . S
C371 N369 1.279 . S
C371 C370 1.358 . S
C371 H375 0.930 . S
C372 C370 1.356 . S
C372 C373 1.348 . S
C373 C368 1.353 . S
C373 C372 1.348 . S
C373 H425 0.929 . S
H374 C368 0.930 . S
H375 C371 0.930 . S
C376 N377 1.314 . S
C376 C378 1.353 . S
C376 H382 0.930 . S
N377 Li353 1.990 . S
N377 C376 1.314 . S
N377 C380 1.279 . S
C378 C376 1.353 . S
C378 C381 1.348 . S
C378 H426 0.929 . S
C379 C380 1.358 . S
C379 C381 1.356 . S
C379 H427 0.930 . S
C380 N377 1.279 . S
C380 C379 1.358 . S
C380 H383 0.930 . S
C381 C378 1.348 . S
C381 C379 1.356 . S
H382 C376 0.930 . S
H383 C380 0.930 . S
C384 C386 1.348 . S
C384 C387 1.356 . S
C384 O414 1.325 . S
N385 C388 1.314 . S
N385 C389 1.279 . S
C386 C384 1.348 . S
C386 C388 1.353 . S
C386 H428 0.929 . S
C387 C384 1.356 . S
C387 C389 1.358 . S
C387 H429 0.930 . S
C388 N385 1.314 . S
C388 C386 1.353 . S
C388 H430 0.930 . S
C389 N385 1.279 . S
C389 C387 1.358 . S
C389 H431 0.930 . S
C390 C391 1.348 . S
C390 C392 1.356 . S
C390 O415 1.325 . S
C391 C390 1.348 . S
C391 C393 1.353 . S
C391 H432 0.929 . S
C392 C390 1.356 . S
C392 C394 1.358 . S
C392 H433 0.930 . S
C393 C391 1.353 . S
C393 N395 1.314 . S
C393 H434 0.930 . S
C394 C392 1.358 . S
C394 N395 1.279 . S
C394 H435 0.930 . S
N395 C393 1.314 . S
N395 C394 1.279 . S
C396 C398 1.353 . S
C396 N399 1.314 . S
C396 H402 0.930 . S
C397 N399 1.279 . S
C397 C400 1.358 . S
C397 H403 0.930 . S
C398 C396 1.353 . S
C398 C401 1.348 . S
C398 H436 0.929 . S
N399 Li354 1.990 . S
N399 C396 1.314 . S
N399 C397 1.279 . S
C400 C397 1.358 . S
C400 C401 1.356 . S
C400 H437 0.930 . S
C401 C398 1.348 . S
C401 C400 1.356 . S
H402 C396 0.930 . S
H403 C397 0.930 . S
C404 N405 1.314 . S
C404 C406 1.353 . S
C404 H410 0.930 . S
N405 Li355 1.990 . S
N405 C404 1.314 . S
N405 C408 1.279 . S
C406 C404 1.353 . S
C406 C409 1.348 . S
C406 H438 0.929 . S
C407 C408 1.358 . S
C407 C409 1.356 . S
C407 H439 0.930 . S
C408 N405 1.279 . S
C408 C407 1.358 . S
C408 H411 0.930 . S
C409 C406 1.348 . S
C409 C407 1.356 . S
H410 C404 0.930 . S
H411 C408 0.930 . S
O412 Li352 1.956 . S
O412 Li353 1.970 . S
O412 Li354 1.961 . S
O412 C356 1.325 . S
O413 Li352 1.970 . S
O413 Li353 1.956 . S
O413 Li355 1.961 . S
O413 C362 1.325 . S
O414 Li352 1.961 . S
O414 Li354 1.956 . S
O414 Li355 1.970 . S
O414 C384 1.325 . S
O415 Li353 1.961 . S
O415 Li354 1.970 . S
O415 Li355 1.956 . S
O415 C390 1.325 . S
H416 C358 0.929 . S
H417 C359 0.930 . S
H418 C360 0.930 . S
H419 C361 0.930 . S
H420 C363 0.930 . S
H421 C365 0.929 . S
H422 C366 0.930 . S
H423 C367 0.930 . S
H424 C370 0.930 . S
H425 C373 0.929 . S
H426 C378 0.929 . S
H427 C379 0.930 . S
H428 C386 0.929 . S
H429 C387 0.930 . S
H430 C388 0.930 . S
H431 C389 0.930 . S
H432 C391 0.929 . S
H433 C392 0.930 . S
H434 C393 0.930 . S
H435 C394 0.930 . S
H436 C398 0.929 . S
H437 C400 0.930 . S
H438 C406 0.929 . S
H439 C407 0.930 . S
Li440 N457 1.990 . S
Li440 O500 1.956 . S
Li440 O501 1.970 . S
Li440 O502 1.961 . S
Li441 N465 1.990 . S
Li441 O500 1.970 . S
Li441 O501 1.956 . S
Li441 O503 1.961 . S
Li442 N487 1.990 . S
Li442 O500 1.961 . S
Li442 O502 1.956 . S
Li442 O503 1.970 . S
Li443 N493 1.990 . S
Li443 O501 1.961 . S
Li443 O502 1.970 . S
Li443 O503 1.956 . S
C444 C446 1.348 . S
C444 C447 1.356 . S
C444 O500 1.325 . S
N445 C448 1.314 . S
N445 C449 1.279 . S
C446 C444 1.348 . S
C446 C448 1.353 . S
C446 H504 0.929 . S
C447 C444 1.356 . S
C447 C449 1.358 . S
C447 H505 0.930 . S
C448 N445 1.314 . S
C448 C446 1.353 . S
C448 H506 0.930 . S
C449 N445 1.279 . S
C449 C447 1.358 . S
C449 H507 0.930 . S
C450 C453 1.348 . S
C450 C454 1.356 . S
C450 O501 1.325 . S
C451 N452 1.279 . S
C451 C454 1.358 . S
C451 H508 0.930 . S
N452 C451 1.279 . S
N452 C455 1.314 . S
C453 C450 1.348 . S
C453 C455 1.353 . S
C453 H509 0.929 . S
C454 C450 1.356 . S
C454 C451 1.358 . S
C454 H510 0.930 . S
C455 N452 1.314 . S
C455 C453 1.353 . S
C455 H511 0.930 . S
C456 N457 1.314 . S
C456 C461 1.353 . S
C456 H462 0.930 . S
N457 Li440 1.990 . S
N457 C456 1.314 . S
N457 C459 1.279 . S
C458 C459 1.358 . S
C458 C460 1.356 . S
C458 H512 0.930 . S
C459 N457 1.279 . S
C459 C458 1.358 . S
C459 H463 0.930 . S
C460 C458 1.356 . S
C460 C461 1.348 . S
C461 C456 1.353 . S
C461 C460 1.348 . S
C461 H513 0.929 . S
H462 C456 0.930 . S
H463 C459 0.930 . S
C464 N465 1.314 . S
C464 C466 1.353 . S
C464 H470 0.930 . S
N465 Li441 1.990 . S
N465 C464 1.314 . S
N465 C468 1.279 . S
C466 C464 1.353 . S
C466 C469 1.348 . S
C466 H514 0.929 . S
C467 C468 1.358 . S
C467 C469 1.356 . S
C467 H515 0.930 . S
C468 N465 1.279 . S
C468 C467 1.358 . S
C468 H471 0.930 . S
C469 C466 1.348 . S
C469 C467 1.356 . S
H470 C464 0.930 . S
H471 C468 0.930 . S
C472 C474 1.348 . S
C472 C475 1.356 . S
C472 O502 1.325 . S
N473 C476 1.314 1_545 S
N473 C477 1.279 1_545 S
C474 C472 1.348 . S
C474 C476 1.353 . S
C474 H516 0.929 . S
C475 C472 1.356 . S
C475 C477 1.358 . S
C475 H517 0.930 . S
C476 N473 1.314 1_565 S
C476 C474 1.353 . S
C476 H518 0.930 1_565 S
C477 N473 1.279 1_565 S
C477 C475 1.358 . S
C477 H519 0.930 1_565 S
C478 C479 1.348 . S
C478 C480 1.356 . S
C478 O503 1.325 . S
C479 C478 1.348 . S
C479 C481 1.353 . S
C479 H520 0.929 . S
C480 C478 1.356 . S
C480 C482 1.358 . S
C480 H521 0.930 . S
C481 C479 1.353 . S
C481 N483 1.314 . S
C481 H522 0.930 . S
C482 C480 1.358 . S
C482 N483 1.279 . S
C482 H523 0.930 . S
N483 C481 1.314 . S
N483 C482 1.279 . S
C484 C486 1.353 . S
C484 N487 1.314 . S
C484 H490 0.930 . S
C485 N487 1.279 . S
C485 C488 1.358 . S
C485 H491 0.930 . S
C486 C484 1.353 . S
C486 C489 1.348 . S
C486 H524 0.929 . S
N487 Li442 1.990 . S
N487 C484 1.314 . S
N487 C485 1.279 . S
C488 C485 1.358 . S
C488 C489 1.356 . S
C488 H525 0.930 . S
C489 C486 1.348 . S
C489 C488 1.356 . S
H490 C484 0.930 . S
H491 C485 0.930 . S
C492 N493 1.314 . S
C492 C494 1.353 . S
C492 H498 0.930 . S
N493 Li443 1.990 . S
N493 C492 1.314 . S
N493 C496 1.279 . S
C494 C492 1.353 . S
C494 C497 1.348 . S
C494 H526 0.929 . S
C495 C496 1.358 . S
C495 C497 1.356 . S
C495 H527 0.930 . S
C496 N493 1.279 . S
C496 C495 1.358 . S
C496 H499 0.930 . S
C497 C494 1.348 . S
C497 C495 1.356 . S
H498 C492 0.930 . S
H499 C496 0.930 . S
O500 Li440 1.956 . S
O500 Li441 1.970 . S
O500 Li442 1.961 . S
O500 C444 1.325 . S
O501 Li440 1.970 . S
O501 Li441 1.956 . S
O501 Li443 1.961 . S
O501 C450 1.325 . S
O502 Li440 1.961 . S
O502 Li442 1.956 . S
O502 Li443 1.970 . S
O502 C472 1.325 . S
O503 Li441 1.961 . S
O503 Li442 1.970 . S
O503 Li443 1.956 . S
O503 C478 1.325 . S
H504 C446 0.929 . S
H505 C447 0.930 . S
H506 C448 0.930 . S
H507 C449 0.930 . S
H508 C451 0.930 . S
H509 C453 0.929 . S
H510 C454 0.930 . S
H511 C455 0.930 . S
H512 C458 0.930 . S
H513 C461 0.929 . S
H514 C466 0.929 . S
H515 C467 0.930 . S
H516 C474 0.929 . S
H517 C475 0.930 . S
H518 C476 0.930 1_545 S
H519 C477 0.930 1_545 S
H520 C479 0.929 . S
H521 C480 0.930 . S
H522 C481 0.930 . S
H523 C482 0.930 . S
H524 C486 0.929 . S
H525 C488 0.930 . S
H526 C494 0.929 . S
H527 C495 0.930 . S
Li528 N545 1.990 . S
Li528 O588 1.956 . S
Li528 O589 1.970 . S
Li528 O590 1.961 . S
Li529 N553 1.990 . S
Li529 O588 1.970 . S
Li529 O589 1.956 . S
Li529 O591 1.961 . S
Li530 N575 1.990 . S
Li530 O588 1.961 . S
Li530 O590 1.956 . S
Li530 O591 1.970 . S
Li531 N581 1.990 . S
Li531 O589 1.961 . S
Li531 O590 1.970 . S
Li531 O591 1.956 . S
C532 C534 1.348 . S
C532 C535 1.356 . S
C532 O588 1.325 . S
N533 C536 1.314 . S
N533 C537 1.279 . S
C534 C532 1.348 . S
C534 C536 1.353 . S
C534 H592 0.929 . S
C535 C532 1.356 . S
C535 C537 1.358 . S
C535 H593 0.930 . S
C536 N533 1.314 . S
C536 C534 1.353 . S
C536 H594 0.930 . S
C537 N533 1.279 . S
C537 C535 1.358 . S
C537 H595 0.930 . S
C538 C541 1.348 . S
C538 C542 1.356 . S
C538 O589 1.325 . S
C539 N540 1.279 . S
C539 C542 1.358 . S
C539 H596 0.930 . S
N540 C539 1.279 . S
N540 C543 1.314 . S
C541 C538 1.348 . S
C541 C543 1.353 . S
C541 H597 0.929 . S
C542 C538 1.356 . S
C542 C539 1.358 . S
C542 H598 0.930 . S
C543 N540 1.314 . S
C543 C541 1.353 . S
C543 H599 0.930 . S
C544 N545 1.314 . S
C544 C549 1.353 . S
C544 H550 0.930 . S
N545 Li528 1.990 . S
N545 C544 1.314 . S
N545 C547 1.279 . S
C546 C547 1.358 . S
C546 C548 1.356 . S
C546 H600 0.930 . S
C547 N545 1.279 . S
C547 C546 1.358 . S
C547 H551 0.930 . S
C548 C546 1.356 . S
C548 C549 1.348 . S
C549 C544 1.353 . S
C549 C548 1.348 . S
C549 H601 0.929 . S
H550 C544 0.930 . S
H551 C547 0.930 . S
C552 N553 1.314 . S
C552 C554 1.353 . S
C552 H558 0.930 . S
N553 Li529 1.990 . S
N553 C552 1.314 . S
N553 C556 1.279 . S
C554 C552 1.353 . S
C554 C557 1.348 . S
C554 H602 0.929 . S
C555 C556 1.358 . S
C555 C557 1.356 . S
C555 H603 0.930 . S
C556 N553 1.279 . S
C556 C555 1.358 . S
C556 H559 0.930 . S
C557 C554 1.348 . S
C557 C555 1.356 . S
H558 C552 0.930 . S
H559 C556 0.930 . S
C560 C562 1.348 . S
C560 C563 1.356 . S
C560 O590 1.325 . S
N561 C564 1.314 . S
N561 C565 1.279 . S
C562 C560 1.348 . S
C562 C564 1.353 . S
C562 H604 0.929 . S
C563 C560 1.356 . S
C563 C565 1.358 . S
C563 H605 0.930 . S
C564 N561 1.314 . S
C564 C562 1.353 . S
C564 H606 0.930 . S
C565 N561 1.279 . S
C565 C563 1.358 . S
C565 H607 0.930 . S
C566 C567 1.348 . S
C566 C568 1.356 . S
C566 O591 1.325 . S
C567 C566 1.348 . S
C567 C569 1.353 . S
C567 H608 0.929 . S
C568 C566 1.356 . S
C568 C570 1.358 . S
C568 H609 0.930 . S
C569 C567 1.353 . S
C569 N571 1.314 . S
C569 H610 0.930 . S
C570 C568 1.358 . S
C570 N571 1.279 . S
C570 H611 0.930 . S
N571 C569 1.314 . S
N571 C570 1.279 . S
C572 C574 1.353 . S
C572 N575 1.314 . S
C572 H578 0.930 . S
C573 N575 1.279 . S
C573 C576 1.358 . S
C573 H579 0.930 . S
C574 C572 1.353 . S
C574 C577 1.348 . S
C574 H612 0.929 . S
N575 Li530 1.990 . S
N575 C572 1.314 . S
N575 C573 1.279 . S
C576 C573 1.358 . S
C576 C577 1.356 . S
C576 H613 0.930 . S
C577 C574 1.348 . S
C577 C576 1.356 . S
H578 C572 0.930 . S
H579 C573 0.930 . S
C580 N581 1.314 . S
C580 C582 1.353 . S
C580 H586 0.930 . S
N581 Li531 1.990 . S
N581 C580 1.314 . S
N581 C584 1.279 . S
C582 C580 1.353 . S
C582 C585 1.348 . S
C582 H614 0.929 . S
C583 C584 1.358 . S
C583 C585 1.356 . S
C583 H615 0.930 . S
C584 N581 1.279 . S
C584 C583 1.358 . S
C584 H587 0.930 . S
C585 C582 1.348 . S
C585 C583 1.356 . S
H586 C580 0.930 . S
H587 C584 0.930 . S
O588 Li528 1.956 . S
O588 Li529 1.970 . S
O588 Li530 1.961 . S
O588 C532 1.325 . S
O589 Li528 1.970 . S
O589 Li529 1.956 . S
O589 Li531 1.961 . S
O589 C538 1.325 . S
O590 Li528 1.961 . S
O590 Li530 1.956 . S
O590 Li531 1.970 . S
O590 C560 1.325 . S
O591 Li529 1.961 . S
O591 Li530 1.970 . S
O591 Li531 1.956 . S
O591 C566 1.325 . S
H592 C534 0.929 . S
H593 C535 0.930 . S
H594 C536 0.930 . S
H595 C537 0.930 . S
H596 C539 0.930 . S
H597 C541 0.929 . S
H598 C542 0.930 . S
H599 C543 0.930 . S
H600 C546 0.930 . S
H601 C549 0.929 . S
H602 C554 0.929 . S
H603 C555 0.930 . S
H604 C562 0.929 . S
H605 C563 0.930 . S
H606 C564 0.930 . S
H607 C565 0.930 . S
H608 C567 0.929 . S
H609 C568 0.930 . S
H610 C569 0.930 . S
H611 C570 0.930 . S
H612 C574 0.929 . S
H613 C576 0.930 . S
H614 C582 0.929 . S
H615 C583 0.930 . S
Li616 N633 1.990 . S
Li616 O676 1.956 . S
Li616 O677 1.970 . S
Li616 O678 1.961 . S
Li617 N641 1.990 . S
Li617 O676 1.970 . S
Li617 O677 1.956 . S
Li617 O679 1.961 . S
Li618 N663 1.990 . S
Li618 O676 1.961 . S
Li618 O678 1.956 . S
Li618 O679 1.970 . S
Li619 N669 1.990 . S
Li619 O677 1.961 . S
Li619 O678 1.970 . S
Li619 O679 1.956 . S
C620 C622 1.348 . S
C620 C623 1.356 . S
C620 O676 1.325 . S
N621 C624 1.314 . S
N621 C625 1.279 . S
C622 C620 1.348 . S
C622 C624 1.353 . S
C622 H680 0.929 . S
C623 C620 1.356 . S
C623 C625 1.358 . S
C623 H681 0.930 . S
C624 N621 1.314 . S
C624 C622 1.353 . S
C624 H682 0.930 . S
C625 N621 1.279 . S
C625 C623 1.358 . S
C625 H683 0.930 . S
C626 C629 1.348 . S
C626 C630 1.356 . S
C626 O677 1.325 . S
C627 N628 1.279 . S
C627 C630 1.358 . S
C627 H684 0.930 . S
N628 C627 1.279 . S
N628 C631 1.314 . S
C629 C626 1.348 . S
C629 C631 1.353 . S
C629 H685 0.929 . S
C630 C626 1.356 . S
C630 C627 1.358 . S
C630 H686 0.930 . S
C631 N628 1.314 . S
C631 C629 1.353 . S
C631 H687 0.930 . S
C632 N633 1.314 . S
C632 C637 1.353 . S
C632 H638 0.930 . S
N633 Li616 1.990 . S
N633 C632 1.314 . S
N633 C635 1.279 . S
C634 C635 1.358 . S
C634 C636 1.356 . S
C634 H688 0.930 . S
C635 N633 1.279 . S
C635 C634 1.358 . S
C635 H639 0.930 . S
C636 C634 1.356 . S
C636 C637 1.348 . S
C637 C632 1.353 . S
C637 C636 1.348 . S
C637 H689 0.929 . S
H638 C632 0.930 . S
H639 C635 0.930 . S
C640 N641 1.314 . S
C640 C642 1.353 . S
C640 H646 0.930 . S
N641 Li617 1.990 . S
N641 C640 1.314 . S
N641 C644 1.279 . S
C642 C640 1.353 . S
C642 C645 1.348 . S
C642 H690 0.929 . S
C643 C644 1.358 . S
C643 C645 1.356 . S
C643 H691 0.930 . S
C644 N641 1.279 . S
C644 C643 1.358 . S
C644 H647 0.930 . S
C645 C642 1.348 . S
C645 C643 1.356 . S
H646 C640 0.930 . S
H647 C644 0.930 . S
C648 C650 1.348 . S
C648 C651 1.356 . S
C648 O678 1.325 . S
N649 C652 1.314 1_565 S
N649 C653 1.279 1_565 S
C650 C648 1.348 . S
C650 C652 1.353 . S
C650 H692 0.929 . S
C651 C648 1.356 . S
C651 C653 1.358 . S
C651 H693 0.930 . S
C652 N649 1.314 1_545 S
C652 C650 1.353 . S
C652 H694 0.930 1_545 S
C653 N649 1.279 1_545 S
C653 C651 1.358 . S
C653 H695 0.930 1_545 S
C654 C655 1.348 . S
C654 C656 1.356 . S
C654 O679 1.325 . S
C655 C654 1.348 . S
C655 C657 1.353 . S
C655 H696 0.929 . S
C656 C654 1.356 . S
C656 C658 1.358 . S
C656 H697 0.930 . S
C657 C655 1.353 . S
C657 N659 1.314 . S
C657 H698 0.930 . S
C658 C656 1.358 . S
C658 N659 1.279 . S
C658 H699 0.930 . S
N659 C657 1.314 . S
N659 C658 1.279 . S
C660 C662 1.353 . S
C660 N663 1.314 . S
C660 H666 0.930 . S
C661 N663 1.279 . S
C661 C664 1.358 . S
C661 H667 0.930 . S
C662 C660 1.353 . S
C662 C665 1.348 . S
C662 H700 0.929 . S
N663 Li618 1.990 . S
N663 C660 1.314 . S
N663 C661 1.279 . S
C664 C661 1.358 . S
C664 C665 1.356 . S
C664 H701 0.930 . S
C665 C662 1.348 . S
C665 C664 1.356 . S
H666 C660 0.930 . S
H667 C661 0.930 . S
C668 N669 1.314 . S
C668 C670 1.353 . S
C668 H674 0.930 . S
N669 Li619 1.990 . S
N669 C668 1.314 . S
N669 C672 1.279 . S
C670 C668 1.353 . S
C670 C673 1.348 . S
C670 H702 0.929 . S
C671 C672 1.358 . S
C671 C673 1.356 . S
C671 H703 0.930 . S
C672 N669 1.279 . S
C672 C671 1.358 . S
C672 H675 0.930 . S
C673 C670 1.348 . S
C673 C671 1.356 . S
H674 C668 0.930 . S
H675 C672 0.930 . S
O676 Li616 1.956 . S
O676 Li617 1.970 . S
O676 Li618 1.961 . S
O676 C620 1.325 . S
O677 Li616 1.970 . S
O677 Li617 1.956 . S
O677 Li619 1.961 . S
O677 C626 1.325 . S
O678 Li616 1.961 . S
O678 Li618 1.956 . S
O678 Li619 1.970 . S
O678 C648 1.325 . S
O679 Li617 1.961 . S
O679 Li618 1.970 . S
O679 Li619 1.956 . S
O679 C654 1.325 . S
H680 C622 0.929 . S
H681 C623 0.930 . S
H682 C624 0.930 . S
H683 C625 0.930 . S
H684 C627 0.930 . S
H685 C629 0.929 . S
H686 C630 0.930 . S
H687 C631 0.930 . S
H688 C634 0.930 . S
H689 C637 0.929 . S
H690 C642 0.929 . S
H691 C643 0.930 . S
H692 C650 0.929 . S
H693 C651 0.930 . S
H694 C652 0.930 1_565 S
H695 C653 0.930 1_565 S
H696 C655 0.929 . S
H697 C656 0.930 . S
H698 C657 0.930 . S
H699 C658 0.930 . S
H700 C662 0.929 . S
H701 C664 0.930 . S
H702 C670 0.929 . S
H703 C671 0.930 . S
Li704 N721 1.990 . S
Li704 O764 1.956 . S
Li704 O765 1.970 . S
Li704 O766 1.961 . S
Li705 N729 1.990 . S
Li705 O764 1.970 . S
Li705 O765 1.956 . S
Li705 O767 1.961 . S
Li706 N751 1.990 . S
Li706 O764 1.961 . S
Li706 O766 1.956 . S
Li706 O767 1.970 . S
Li707 N757 1.990 . S
Li707 O765 1.961 . S
Li707 O766 1.970 . S
Li707 O767 1.956 . S
C708 C710 1.348 . S
C708 C711 1.356 . S
C708 O764 1.325 . S
N709 C712 1.314 . S
N709 C713 1.279 . S
C710 C708 1.348 . S
C710 C712 1.353 . S
C710 H768 0.929 . S
C711 C708 1.356 . S
C711 C713 1.358 . S
C711 H769 0.930 . S
C712 N709 1.314 . S
C712 C710 1.353 . S
C712 H770 0.930 . S
C713 N709 1.279 . S
C713 C711 1.358 . S
C713 H771 0.930 . S
C714 C717 1.348 . S
C714 C718 1.356 . S
C714 O765 1.325 . S
C715 N716 1.279 . S
C715 C718 1.358 . S
C715 H772 0.930 . S
N716 C715 1.279 . S
N716 C719 1.314 . S
C717 C714 1.348 . S
C717 C719 1.353 . S
C717 H773 0.929 . S
C718 C714 1.356 . S
C718 C715 1.358 . S
C718 H774 0.930 . S
C719 N716 1.314 . S
C719 C717 1.353 . S
C719 H775 0.930 . S
C720 N721 1.314 . S
C720 C725 1.353 . S
C720 H726 0.930 . S
N721 Li704 1.990 . S
N721 C720 1.314 . S
N721 C723 1.279 . S
C722 C723 1.358 . S
C722 C724 1.356 . S
C722 H776 0.930 . S
C723 N721 1.279 . S
C723 C722 1.358 . S
C723 H727 0.930 . S
C724 C722 1.356 . S
C724 C725 1.348 . S
C725 C720 1.353 . S
C725 C724 1.348 . S
C725 H777 0.929 . S
H726 C720 0.930 . S
H727 C723 0.930 . S
C728 N729 1.314 . S
C728 C730 1.353 . S
C728 H734 0.930 . S
N729 Li705 1.990 . S
N729 C728 1.314 . S
N729 C732 1.279 . S
C730 C728 1.353 . S
C730 C733 1.348 . S
C730 H778 0.929 . S
C731 C732 1.358 . S
C731 C733 1.356 . S
C731 H779 0.930 . S
C732 N729 1.279 . S
C732 C731 1.358 . S
C732 H735 0.930 . S
C733 C730 1.348 . S
C733 C731 1.356 . S
H734 C728 0.930 . S
H735 C732 0.930 . S
C736 C738 1.348 . S
C736 C739 1.356 . S
C736 O766 1.325 . S
N737 C740 1.314 . S
N737 C741 1.279 . S
C738 C736 1.348 . S
C738 C740 1.353 . S
C738 H780 0.929 . S
C739 C736 1.356 . S
C739 C741 1.358 . S
C739 H781 0.930 . S
C740 N737 1.314 . S
C740 C738 1.353 . S
C740 H782 0.930 . S
C741 N737 1.279 . S
C741 C739 1.358 . S
C741 H783 0.930 . S
C742 C743 1.348 . S
C742 C744 1.356 . S
C742 O767 1.325 . S
C743 C742 1.348 . S
C743 C745 1.353 . S
C743 H784 0.929 . S
C744 C742 1.356 . S
C744 C746 1.358 . S
C744 H785 0.930 . S
C745 C743 1.353 . S
C745 N747 1.314 . S
C745 H786 0.930 . S
C746 C744 1.358 . S
C746 N747 1.279 . S
C746 H787 0.950 . S
N747 C745 1.314 . S
N747 C746 1.279 . S
C748 C750 1.353 . S
C748 N751 1.314 . S
C748 H754 0.930 . S
C749 N751 1.279 . S
C749 C752 1.358 . S
C749 H755 0.930 . S
C750 C748 1.353 . S
C750 C753 1.348 . S
C750 H788 0.929 . S
N751 Li706 1.990 . S
N751 C748 1.314 . S
N751 C749 1.279 . S
C752 C749 1.358 . S
C752 C753 1.356 . S
C752 H789 0.930 . S
C753 C750 1.348 . S
C753 C752 1.356 . S
H754 C748 0.930 . S
H755 C749 0.930 . S
C756 N757 1.314 . S
C756 C758 1.353 . S
C756 H762 0.930 . S
N757 Li707 1.990 . S
N757 C756 1.314 . S
N757 C760 1.279 . S
C758 C756 1.353 . S
C758 C761 1.348 . S
C758 H790 0.929 . S
C759 C760 1.358 . S
C759 C761 1.356 . S
C759 H791 0.930 . S
C760 N757 1.279 . S
C760 C759 1.358 . S
C760 H763 0.930 . S
C761 C758 1.348 . S
C761 C759 1.356 . S
H762 C756 0.930 . S
H763 C760 0.930 . S
O764 Li704 1.956 . S
O764 Li705 1.970 . S
O764 Li706 1.961 . S
O764 C708 1.325 . S
O765 Li704 1.970 . S
O765 Li705 1.956 . S
O765 Li707 1.961 . S
O765 C714 1.325 . S
O766 Li704 1.961 . S
O766 Li706 1.956 . S
O766 Li707 1.970 . S
O766 C736 1.325 . S
O767 Li705 1.961 . S
O767 Li706 1.970 . S
O767 Li707 1.956 . S
O767 C742 1.325 . S
H768 C710 0.929 . S
H769 C711 0.930 . S
H770 C712 0.930 . S
H771 C713 0.930 . S
H772 C715 0.930 . S
H773 C717 0.929 . S
H774 C718 0.930 . S
H775 C719 0.930 . S
H776 C722 0.930 . S
H777 C725 0.929 . S
H778 C730 0.929 . S
H779 C731 0.930 . S
H780 C738 0.929 . S
H781 C739 0.930 . S
H782 C740 0.930 . S
H783 C741 0.930 . S
H784 C743 0.929 . S
H785 C744 0.930 . S
H786 C745 0.930 . S
H787 C746 0.950 . S
H788 C750 0.929 . S
H789 C752 0.930 . S
H790 C758 0.929 . S
H791 C759 0.930 . S
Li792 N809 1.990 . S
Li792 O852 1.956 . S
Li792 O853 1.970 . S
Li792 O854 1.961 . S
Li793 N817 1.990 . S
Li793 O852 1.970 . S
Li793 O853 1.956 . S
Li793 O855 1.961 . S
Li794 N839 1.990 . S
Li794 O852 1.961 . S
Li794 O854 1.956 . S
Li794 O855 1.970 . S
Li795 N845 1.990 . S
Li795 O853 1.961 . S
Li795 O854 1.970 . S
Li795 O855 1.956 . S
C796 C798 1.348 . S
C796 C799 1.356 . S
C796 O852 1.325 . S
N797 C800 1.314 . S
N797 C801 1.279 . S
C798 C796 1.348 . S
C798 C800 1.353 . S
C798 H856 0.929 . S
C799 C796 1.356 . S
C799 C801 1.358 . S
C799 H857 0.930 . S
C800 N797 1.314 . S
C800 C798 1.353 . S
C800 H858 0.930 . S
C801 N797 1.279 . S
C801 C799 1.358 . S
C801 H859 0.930 . S
C802 C805 1.348 . S
C802 C806 1.356 . S
C802 O853 1.325 . S
C803 N804 1.279 . S
C803 C806 1.358 . S
C803 H860 0.930 . S
N804 C803 1.279 . S
N804 C807 1.314 . S
C805 C802 1.348 . S
C805 C807 1.353 . S
C805 H861 0.929 . S
C806 C802 1.356 . S
C806 C803 1.358 . S
C806 H862 0.930 . S
C807 N804 1.314 . S
C807 C805 1.353 . S
C807 H863 0.930 . S
C808 N809 1.314 . S
C808 C813 1.353 . S
C808 H814 0.930 . S
N809 Li792 1.990 . S
N809 C808 1.314 . S
N809 C811 1.279 . S
C810 C811 1.358 . S
C810 C812 1.356 . S
C810 H864 0.930 . S
C811 N809 1.279 . S
C811 C810 1.358 . S
C811 H815 0.930 . S
C812 C810 1.356 . S
C812 C813 1.348 . S
C813 C808 1.353 . S
C813 C812 1.348 . S
C813 H865 0.929 . S
H814 C808 0.930 . S
H815 C811 0.930 . S
C816 N817 1.314 . S
C816 C818 1.353 . S
C816 H822 0.930 . S
N817 Li793 1.990 . S
N817 C816 1.314 . S
N817 C820 1.279 . S
C818 C816 1.353 . S
C818 C821 1.348 . S
C818 H866 0.929 . S
C819 C820 1.358 . S
C819 C821 1.356 . S
C819 H867 0.930 . S
C820 N817 1.279 . S
C820 C819 1.358 . S
C820 H823 0.930 . S
C821 C818 1.348 . S
C821 C819 1.356 . S
H822 C816 0.930 . S
H823 C820 0.930 . S
C824 C826 1.348 . S
C824 C827 1.356 . S
C824 O854 1.325 . S
N825 C828 1.314 . S
N825 C829 1.279 . S
C826 C824 1.348 . S
C826 C828 1.353 . S
C826 H868 0.929 . S
C827 C824 1.356 . S
C827 C829 1.358 . S
C827 H869 0.930 . S
C828 N825 1.314 . S
C828 C826 1.353 . S
C828 H870 0.930 . S
C829 N825 1.279 . S
C829 C827 1.358 . S
C829 H871 0.930 . S
C830 C831 1.348 . S
C830 C832 1.356 . S
C830 O855 1.325 . S
C831 C830 1.348 . S
C831 C833 1.353 . S
C831 H872 0.929 . S
C832 C830 1.356 . S
C832 C834 1.358 . S
C832 H873 0.930 . S
C833 C831 1.353 . S
C833 N835 1.314 1_545 S
C833 H874 0.930 1_545 S
C834 C832 1.358 . S
C834 N835 1.279 1_545 S
C834 H875 0.930 1_545 S
N835 C833 1.314 1_565 S
N835 C834 1.279 1_565 S
C836 C838 1.353 . S
C836 N839 1.314 . S
C836 H842 0.930 . S
C837 N839 1.279 . S
C837 C840 1.358 . S
C837 H843 0.930 . S
C838 C836 1.353 . S
C838 C841 1.348 . S
C838 H876 0.929 . S
N839 Li794 1.990 . S
N839 C836 1.314 . S
N839 C837 1.279 . S
C840 C837 1.358 . S
C840 C841 1.356 . S
C840 H877 0.930 . S
C841 C838 1.348 . S
C841 C840 1.356 . S
H842 C836 0.930 . S
H843 C837 0.930 . S
C844 N845 1.314 . S
C844 C846 1.353 . S
C844 H850 0.930 . S
N845 Li795 1.990 . S
N845 C844 1.314 . S
N845 C848 1.279 . S
C846 C844 1.353 . S
C846 C849 1.348 . S
C846 H878 0.929 . S
C847 C848 1.358 . S
C847 C849 1.356 . S
C847 H879 0.930 . S
C848 N845 1.279 . S
C848 C847 1.358 . S
C848 H851 0.930 . S
C849 C846 1.348 . S
C849 C847 1.356 . S
H850 C844 0.930 . S
H851 C848 0.930 . S
O852 Li792 1.956 . S
O852 Li793 1.970 . S
O852 Li794 1.961 . S
O852 C796 1.325 . S
O853 Li792 1.970 . S
O853 Li793 1.956 . S
O853 Li795 1.961 . S
O853 C802 1.325 . S
O854 Li792 1.961 . S
O854 Li794 1.956 . S
O854 Li795 1.970 . S
O854 C824 1.325 . S
O855 Li793 1.961 . S
O855 Li794 1.970 . S
O855 Li795 1.956 . S
O855 C830 1.325 . S
H856 C798 0.929 . S
H857 C799 0.930 . S
H858 C800 0.930 . S
H859 C801 0.930 . S
H860 C803 0.930 . S
H861 C805 0.929 . S
H862 C806 0.930 . S
H863 C807 0.930 . S
H864 C810 0.930 . S
H865 C813 0.929 . S
H866 C818 0.929 . S
H867 C819 0.930 . S
H868 C826 0.929 . S
H869 C827 0.930 . S
H870 C828 0.930 . S
H871 C829 0.930 . S
H872 C831 0.929 . S
H873 C832 0.930 . S
H874 C833 0.930 1_565 S
H875 C834 0.930 1_565 S
H876 C838 0.929 . S
H877 C840 0.930 . S
H878 C846 0.929 . S
H879 C847 0.930 . S
Li880 N897 1.990 . S
Li880 O940 1.956 . S
Li880 O941 1.970 . S
Li880 O942 1.961 . S
Li881 N905 1.990 . S
Li881 O940 1.970 . S
Li881 O941 1.956 . S
Li881 O943 1.961 . S
Li882 N927 1.990 . S
Li882 O940 1.961 . S
Li882 O942 1.956 . S
Li882 O943 1.970 . S
Li883 N933 1.990 . S
Li883 O941 1.961 . S
Li883 O942 1.970 . S
Li883 O943 1.956 . S
C884 C886 1.348 . S
C884 C887 1.356 . S
C884 O940 1.325 . S
N885 C888 1.314 . S
N885 C889 1.279 . S
C886 C884 1.348 . S
C886 C888 1.353 . S
C886 H944 0.929 . S
C887 C884 1.356 . S
C887 C889 1.358 . S
C887 H945 0.930 . S
C888 N885 1.314 . S
C888 C886 1.353 . S
C888 H946 0.930 . S
C889 N885 1.279 . S
C889 C887 1.358 . S
C889 H947 0.930 . S
C890 C893 1.348 . S
C890 C894 1.356 . S
C890 O941 1.325 . S
C891 N892 1.279 . S
C891 C894 1.358 . S
C891 H948 0.930 . S
N892 C891 1.279 . S
N892 C895 1.314 . S
C893 C890 1.348 . S
C893 C895 1.353 . S
C893 H949 0.929 . S
C894 C890 1.356 . S
C894 C891 1.358 . S
C894 H950 0.930 . S
C895 N892 1.314 . S
C895 C893 1.353 . S
C895 H951 0.930 . S
C896 N897 1.314 . S
C896 C901 1.353 . S
C896 H902 0.930 . S
N897 Li880 1.990 . S
N897 C896 1.314 . S
N897 C899 1.279 . S
C898 C899 1.358 . S
C898 C900 1.356 . S
C898 H952 0.930 . S
C899 N897 1.279 . S
C899 C898 1.358 . S
C899 H903 0.930 . S
C900 C898 1.356 . S
C900 C901 1.348 . S
C901 C896 1.353 . S
C901 C900 1.348 . S
C901 H953 0.929 . S
H902 C896 0.930 . S
H903 C899 0.930 . S
C904 N905 1.314 . S
C904 C906 1.353 . S
C904 H910 0.930 . S
N905 Li881 1.990 . S
N905 C904 1.314 . S
N905 C908 1.279 . S
C906 C904 1.353 . S
C906 C909 1.348 . S
C906 H954 0.929 . S
C907 C908 1.358 . S
C907 C909 1.356 . S
C907 H955 0.930 . S
C908 N905 1.279 . S
C908 C907 1.358 . S
C908 H911 0.930 . S
C909 C906 1.348 . S
C909 C907 1.356 . S
H910 C904 0.930 . S
H911 C908 0.930 . S
C912 C914 1.348 . S
C912 C915 1.356 . S
C912 O942 1.325 . S
N913 C916 1.314 . S
N913 C917 1.279 . S
C914 C912 1.348 . S
C914 C916 1.353 . S
C914 H956 0.929 . S
C915 C912 1.356 . S
C915 C917 1.358 . S
C915 H957 0.930 . S
C916 N913 1.314 . S
C916 C914 1.353 . S
C916 H958 0.930 . S
C917 N913 1.279 . S
C917 C915 1.358 . S
C917 H959 0.930 . S
C918 C919 1.348 . S
C918 C920 1.356 . S
C918 O943 1.325 . S
C919 C918 1.348 . S
C919 C921 1.353 . S
C919 H960 0.929 . S
C920 C918 1.356 . S
C920 C922 1.358 . S
C920 H961 0.930 . S
C921 C919 1.353 . S
C921 N923 1.314 . S
C921 H962 0.930 . S
C922 C920 1.358 . S
C922 N923 1.279 . S
C922 H963 0.930 . S
N923 C921 1.314 . S
N923 C922 1.279 . S
C924 C926 1.353 . S
C924 N927 1.314 . S
C924 H930 0.930 . S
C925 N927 1.279 . S
C925 C928 1.358 . S
C925 H931 0.930 . S
C926 C924 1.353 . S
C926 C929 1.348 . S
C926 H964 0.929 . S
N927 Li882 1.990 . S
N927 C924 1.314 . S
N927 C925 1.279 . S
C928 C925 1.358 . S
C928 C929 1.356 . S
C928 H965 0.930 . S
C929 C926 1.348 . S
C929 C928 1.356 . S
H930 C924 0.930 . S
H931 C925 0.930 . S
C932 N933 1.314 . S
C932 C934 1.353 . S
C932 H938 0.930 . S
N933 Li883 1.990 . S
N933 C932 1.314 . S
N933 C936 1.279 . S
C934 C932 1.353 . S
C934 C937 1.348 . S
C934 H966 0.929 . S
C935 C936 1.358 . S
C935 C937 1.356 . S
C935 H967 0.930 . S
C936 N933 1.279 . S
C936 C935 1.358 . S
C936 H939 0.930 . S
C937 C934 1.348 . S
C937 C935 1.356 . S
H938 C932 0.930 . S
H939 C936 0.930 . S
O940 Li880 1.956 . S
O940 Li881 1.970 . S
O940 Li882 1.961 . S
O940 C884 1.325 . S
O941 Li880 1.970 . S
O941 Li881 1.956 . S
O941 Li883 1.961 . S
O941 C890 1.325 . S
O942 Li880 1.961 . S
O942 Li882 1.956 . S
O942 Li883 1.970 . S
O942 C912 1.325 . S
O943 Li881 1.961 . S
O943 Li882 1.970 . S
O943 Li883 1.956 . S
O943 C918 1.325 . S
H944 C886 0.929 . S
H945 C887 0.930 . S
H946 C888 0.930 . S
H947 C889 0.930 . S
H948 C891 0.930 . S
H949 C893 0.929 . S
H950 C894 0.930 . S
H951 C895 0.930 . S
H952 C898 0.930 . S
H953 C901 0.929 . S
H954 C906 0.929 . S
H955 C907 0.930 . S
H956 C914 0.929 . S
H957 C915 0.930 . S
H958 C916 0.930 . S
H959 C917 0.930 . S
H960 C919 0.929 . S
H961 C920 0.930 . S
H962 C921 0.930 . S
H963 C922 0.930 . S
H964 C926 0.929 . S
H965 C928 0.930 . S
H966 C934 0.929 . S
H967 C935 0.930 . S
Li968 N985 1.990 . S
Li968 O1028 1.956 . S
Li968 O1029 1.970 . S
Li968 O1030 1.961 . S
Li969 N993 1.990 . S
Li969 O1028 1.970 . S
Li969 O1029 1.956 . S
Li969 O1031 1.961 . S
Li970 N1015 1.990 . S
Li970 O1028 1.961 . S
Li970 O1030 1.956 . S
Li970 O1031 1.970 . S
Li971 N1021 1.990 . S
Li971 O1029 1.961 . S
Li971 O1030 1.970 . S
Li971 O1031 1.956 . S
C972 C974 1.348 . S
C972 C975 1.356 . S
C972 O1028 1.325 . S
N973 C976 1.314 . S
N973 C977 1.279 . S
C974 C972 1.348 . S
C974 C976 1.353 . S
C974 H1032 0.929 . S
C975 C972 1.356 . S
C975 C977 1.358 . S
C975 H1033 0.930 . S
C976 N973 1.314 . S
C976 C974 1.353 . S
C976 H1034 0.930 . S
C977 N973 1.279 . S
C977 C975 1.358 . S
C977 H1035 0.930 . S
C978 C981 1.348 . S
C978 C982 1.356 . S
C978 O1029 1.325 . S
C979 N980 1.279 . S
C979 C982 1.358 . S
C979 H1036 0.930 . S
N980 C979 1.279 . S
N980 C983 1.314 . S
C981 C978 1.348 . S
C981 C983 1.353 . S
C981 H1037 0.929 . S
C982 C978 1.356 . S
C982 C979 1.358 . S
C982 H1038 0.930 . S
C983 N980 1.314 . S
C983 C981 1.353 . S
C983 H1039 0.930 . S
C984 N985 1.314 . S
C984 C989 1.353 . S
C984 H990 0.930 . S
N985 Li968 1.990 . S
N985 C984 1.314 . S
N985 C987 1.279 . S
C986 C987 1.358 . S
C986 C988 1.356 . S
C986 H1040 0.930 . S
C987 N985 1.279 . S
C987 C986 1.358 . S
C987 H991 0.930 . S
C988 C986 1.356 . S
C988 C989 1.348 . S
C989 C984 1.353 . S
C989 C988 1.348 . S
C989 H1041 0.929 . S
H990 C984 0.930 . S
H991 C987 0.930 . S
C992 N993 1.314 . S
C992 C994 1.353 . S
C992 H998 0.930 . S
N993 Li969 1.990 . S
N993 C992 1.314 . S
N993 C996 1.279 . S
C994 C992 1.353 . S
C994 C997 1.348 . S
C994 H1042 0.929 . S
C995 C996 1.358 . S
C995 C997 1.356 . S
C995 H1043 0.930 . S
C996 N993 1.279 . S
C996 C995 1.358 . S
C996 H999 0.930 . S
C997 C994 1.348 . S
C997 C995 1.356 . S
H998 C992 0.930 . S
H999 C996 0.930 . S
C1000 C1002 1.348 . S
C1000 C1003 1.356 . S
C1000 O1030 1.325 . S
N1001 C1004 1.314 . S
N1001 C1005 1.279 . S
C1002 C1000 1.348 . S
C1002 C1004 1.353 . S
C1002 H1044 0.929 . S
C1003 C1000 1.356 . S
C1003 C1005 1.358 . S
C1003 H1045 0.930 . S
C1004 N1001 1.314 . S
C1004 C1002 1.353 . S
C1004 H1046 0.930 . S
C1005 N1001 1.279 . S
C1005 C1003 1.358 . S
C1005 H1047 0.930 . S
C1006 C1007 1.348 . S
C1006 C1008 1.356 . S
C1006 O1031 1.325 . S
C1007 C1006 1.348 . S
C1007 C1009 1.353 . S
C1007 H1048 0.929 . S
C1008 C1006 1.356 . S
C1008 C1010 1.358 . S
C1008 H1049 0.930 . S
C1009 C1007 1.353 . S
C1009 N1011 1.314 1_565 S
C1009 H1050 0.930 1_565 S
C1010 C1008 1.358 . S
C1010 N1011 1.279 1_565 S
C1010 H1051 0.930 1_565 S
N1011 C1009 1.314 1_545 S
N1011 C1010 1.279 1_545 S
C1012 C1014 1.353 . S
C1012 N1015 1.314 . S
C1012 H1018 0.930 . S
C1013 N1015 1.279 . S
C1013 C1016 1.358 . S
C1013 H1019 0.930 . S
C1014 C1012 1.353 . S
C1014 C1017 1.348 . S
C1014 H1052 0.929 . S
N1015 Li970 1.990 . S
N1015 C1012 1.314 . S
N1015 C1013 1.279 . S
C1016 C1013 1.358 . S
C1016 C1017 1.356 . S
C1016 H1053 0.930 . S
C1017 C1014 1.348 . S
C1017 C1016 1.356 . S
H1018 C1012 0.930 . S
H1019 C1013 0.930 . S
C1020 N1021 1.314 . S
C1020 C1022 1.353 . S
C1020 H1026 0.930 . S
N1021 Li971 1.990 . S
N1021 C1020 1.314 . S
N1021 C1024 1.279 . S
C1022 C1020 1.353 . S
C1022 C1025 1.348 . S
C1022 H1054 0.929 . S
C1023 C1024 1.358 . S
C1023 C1025 1.356 . S
C1023 H1055 0.930 . S
C1024 N1021 1.279 . S
C1024 C1023 1.358 . S
C1024 H1027 0.930 . S
C1025 C1022 1.348 . S
C1025 C1023 1.356 . S
H1026 C1020 0.930 . S
H1027 C1024 0.930 . S
O1028 Li968 1.956 . S
O1028 Li969 1.970 . S
O1028 Li970 1.961 . S
O1028 C972 1.325 . S
O1029 Li968 1.970 . S
O1029 Li969 1.956 . S
O1029 Li971 1.961 . S
O1029 C978 1.325 . S
O1030 Li968 1.961 . S
O1030 Li970 1.956 . S
O1030 Li971 1.970 . S
O1030 C1000 1.325 . S
O1031 Li969 1.961 . S
O1031 Li970 1.970 . S
O1031 Li971 1.956 . S
O1031 C1006 1.325 . S
H1032 C974 0.929 . S
H1033 C975 0.930 . S
H1034 C976 0.930 . S
H1035 C977 0.930 . S
H1036 C979 0.930 . S
H1037 C981 0.929 . S
H1038 C982 0.930 . S
H1039 C983 0.930 . S
H1040 C986 0.930 . S
H1041 C989 0.929 . S
H1042 C994 0.929 . S
H1043 C995 0.930 . S
H1044 C1002 0.929 . S
H1045 C1003 0.930 . S
H1046 C1004 0.930 . S
H1047 C1005 0.930 . S
H1048 C1007 0.929 . S
H1049 C1008 0.930 . S
H1050 C1009 0.930 1_545 S
H1051 C1010 0.930 1_545 S
H1052 C1014 0.929 . S
H1053 C1016 0.930 . S
H1054 C1022 0.929 . S
H1055 C1023 0.930 . S
Li1056 N1073 1.990 . S
Li1056 O1116 1.956 . S
Li1056 O1117 1.970 . S
Li1056 O1118 1.961 . S
Li1057 N1081 1.990 . S
Li1057 O1116 1.970 . S
Li1057 O1117 1.956 . S
Li1057 O1119 1.961 . S
Li1058 N1103 1.990 . S
Li1058 O1116 1.961 . S
Li1058 O1118 1.956 . S
Li1058 O1119 1.970 . S
Li1059 N1109 1.990 . S
Li1059 O1117 1.961 . S
Li1059 O1118 1.970 . S
Li1059 O1119 1.956 . S
C1060 C1062 1.348 . S
C1060 C1063 1.356 . S
C1060 O1116 1.325 . S
N1061 C1064 1.314 . S
N1061 C1065 1.279 . S
C1062 C1060 1.348 . S
C1062 C1064 1.353 . S
C1062 H1120 0.929 . S
C1063 C1060 1.356 . S
C1063 C1065 1.358 . S
C1063 H1121 0.930 . S
C1064 N1061 1.314 . S
C1064 C1062 1.353 . S
C1064 H1122 0.930 . S
C1065 N1061 1.279 . S
C1065 C1063 1.358 . S
C1065 H1123 0.950 . S
C1066 C1069 1.348 . S
C1066 C1070 1.356 . S
C1066 O1117 1.325 . S
C1067 N1068 1.279 . S
C1067 C1070 1.358 . S
C1067 H1124 0.930 . S
N1068 C1067 1.279 . S
N1068 C1071 1.314 . S
C1069 C1066 1.348 . S
C1069 C1071 1.353 . S
C1069 H1125 0.929 . S
C1070 C1066 1.356 . S
C1070 C1067 1.358 . S
C1070 H1126 0.930 . S
C1071 N1068 1.314 . S
C1071 C1069 1.353 . S
C1071 H1127 0.930 . S
C1072 N1073 1.314 . S
C1072 C1077 1.353 . S
C1072 H1078 0.930 . S
N1073 Li1056 1.990 . S
N1073 C1072 1.314 . S
N1073 C1075 1.279 . S
C1074 C1075 1.358 . S
C1074 C1076 1.356 . S
C1074 H1128 0.930 . S
C1075 N1073 1.279 . S
C1075 C1074 1.358 . S
C1075 H1079 0.930 . S
C1076 C1074 1.356 . S
C1076 C1077 1.348 . S
C1077 C1072 1.353 . S
C1077 C1076 1.348 . S
C1077 H1129 0.929 . S
H1078 C1072 0.930 . S
H1079 C1075 0.930 . S
C1080 N1081 1.314 . S
C1080 C1082 1.353 . S
C1080 H1086 0.930 . S
N1081 Li1057 1.990 . S
N1081 C1080 1.314 . S
N1081 C1084 1.279 . S
C1082 C1080 1.353 . S
C1082 C1085 1.348 . S
C1082 H1130 0.929 . S
C1083 C1084 1.358 . S
C1083 C1085 1.356 . S
C1083 H1131 0.930 . S
C1084 N1081 1.279 . S
C1084 C1083 1.358 . S
C1084 H1087 0.930 . S
C1085 C1082 1.348 . S
C1085 C1083 1.356 . S
H1086 C1080 0.930 . S
H1087 C1084 0.930 . S
C1088 C1090 1.348 . S
C1088 C1091 1.356 . S
C1088 O1118 1.325 . S
N1089 C1092 1.314 . S
N1089 C1093 1.279 . S
C1090 C1088 1.348 . S
C1090 C1092 1.353 . S
C1090 H1132 0.929 . S
C1091 C1088 1.356 . S
C1091 C1093 1.358 . S
C1091 H1133 0.930 . S
C1092 N1089 1.314 . S
C1092 C1090 1.353 . S
C1092 H1134 0.930 . S
C1093 N1089 1.279 . S
C1093 C1091 1.358 . S
C1093 H1135 0.930 . S
C1094 C1095 1.348 . S
C1094 C1096 1.356 . S
C1094 O1119 1.325 . S
C1095 C1094 1.348 . S
C1095 C1097 1.353 . S
C1095 H1136 0.929 . S
C1096 C1094 1.356 . S
C1096 C1098 1.358 . S
C1096 H1137 0.930 . S
C1097 C1095 1.353 . S
C1097 N1099 1.314 . S
C1097 H1138 0.930 . S
C1098 C1096 1.358 . S
C1098 N1099 1.279 . S
C1098 H1139 0.930 . S
N1099 C1097 1.314 . S
N1099 C1098 1.279 . S
C1100 C1102 1.353 . S
C1100 N1103 1.314 . S
C1100 H1106 0.930 . S
C1101 N1103 1.279 . S
C1101 C1104 1.358 . S
C1101 H1107 0.930 . S
C1102 C1100 1.353 . S
C1102 C1105 1.348 . S
C1102 H1140 0.929 . S
N1103 Li1058 1.990 . S
N1103 C1100 1.314 . S
N1103 C1101 1.279 . S
C1104 C1101 1.358 . S
C1104 C1105 1.356 . S
C1104 H1141 0.930 . S
C1105 C1102 1.348 . S
C1105 C1104 1.356 . S
H1106 C1100 0.930 . S
H1107 C1101 0.930 . S
C1108 N1109 1.314 . S
C1108 C1110 1.353 . S
C1108 H1114 0.930 . S
N1109 Li1059 1.990 . S
N1109 C1108 1.314 . S
N1109 C1112 1.279 . S
C1110 C1108 1.353 . S
C1110 C1113 1.348 . S
C1110 H1142 0.929 . S
C1111 C1112 1.358 . S
C1111 C1113 1.356 . S
C1111 H1143 0.930 . S
C1112 N1109 1.279 . S
C1112 C1111 1.358 . S
C1112 H1115 0.930 . S
C1113 C1110 1.348 . S
C1113 C1111 1.356 . S
H1114 C1108 0.930 . S
H1115 C1112 0.930 . S
O1116 Li1056 1.956 . S
O1116 Li1057 1.970 . S
O1116 Li1058 1.961 . S
O1116 C1060 1.325 . S
O1117 Li1056 1.970 . S
O1117 Li1057 1.956 . S
O1117 Li1059 1.961 . S
O1117 C1066 1.325 . S
O1118 Li1056 1.961 . S
O1118 Li1058 1.956 . S
O1118 Li1059 1.970 . S
O1118 C1088 1.325 . S
O1119 Li1057 1.961 . S
O1119 Li1058 1.970 . S
O1119 Li1059 1.956 . S
O1119 C1094 1.325 . S
H1120 C1062 0.929 . S
H1121 C1063 0.930 . S
H1122 C1064 0.930 . S
H1123 C1065 0.950 . S
H1124 C1067 0.930 . S
H1125 C1069 0.929 . S
H1126 C1070 0.930 . S
H1127 C1071 0.930 . S
H1128 C1074 0.930 . S
H1129 C1077 0.929 . S
H1130 C1082 0.929 . S
H1131 C1083 0.930 . S
H1132 C1090 0.929 . S
H1133 C1091 0.930 . S
H1134 C1092 0.930 . S
H1135 C1093 0.930 . S
H1136 C1095 0.929 . S
H1137 C1096 0.930 . S
H1138 C1097 0.930 . S
H1139 C1098 0.930 . S
H1140 C1102 0.929 . S
H1141 C1104 0.930 . S
H1142 C1110 0.929 . S
H1143 C1111 0.930 . S
Li1144 N1161 1.990 . S
Li1144 O1204 1.956 . S
Li1144 O1205 1.970 . S
Li1144 O1206 1.961 . S
Li1145 N1169 1.990 . S
Li1145 O1204 1.970 . S
Li1145 O1205 1.956 . S
Li1145 O1207 1.961 . S
Li1146 N1191 1.990 . S
Li1146 O1204 1.961 . S
Li1146 O1206 1.956 . S
Li1146 O1207 1.970 . S
Li1147 N1197 1.990 . S
Li1147 O1205 1.961 . S
Li1147 O1206 1.970 . S
Li1147 O1207 1.956 . S
C1148 C1150 1.348 . S
C1148 C1151 1.356 . S
C1148 O1204 1.325 . S
N1149 C1152 1.314 1_565 S
N1149 C1153 1.279 1_565 S
C1150 C1148 1.348 . S
C1150 C1152 1.353 . S
C1150 H1208 0.929 . S
C1151 C1148 1.356 . S
C1151 C1153 1.358 . S
C1151 H1209 0.930 . S
C1152 N1149 1.314 1_545 S
C1152 C1150 1.353 . S
C1152 H1210 0.930 1_545 S
C1153 N1149 1.279 1_545 S
C1153 C1151 1.358 . S
C1153 H1211 0.930 1_545 S
C1154 C1157 1.348 . S
C1154 C1158 1.356 . S
C1154 O1205 1.325 . S
C1155 N1156 1.279 . S
C1155 C1158 1.358 . S
C1155 H1212 0.930 . S
N1156 C1155 1.279 . S
N1156 C1159 1.314 . S
C1157 C1154 1.348 . S
C1157 C1159 1.353 . S
C1157 H1213 0.929 . S
C1158 C1154 1.356 . S
C1158 C1155 1.358 . S
C1158 H1214 0.930 . S
C1159 N1156 1.314 . S
C1159 C1157 1.353 . S
C1159 H1215 0.930 . S
C1160 N1161 1.314 . S
C1160 C1165 1.353 . S
C1160 H1166 0.930 . S
N1161 Li1144 1.990 . S
N1161 C1160 1.314 . S
N1161 C1163 1.279 . S
C1162 C1163 1.358 . S
C1162 C1164 1.356 . S
C1162 H1216 0.930 . S
C1163 N1161 1.279 . S
C1163 C1162 1.358 . S
C1163 H1167 0.930 . S
C1164 C1162 1.356 . S
C1164 C1165 1.348 . S
C1165 C1160 1.353 . S
C1165 C1164 1.348 . S
C1165 H1217 0.929 . S
H1166 C1160 0.930 . S
H1167 C1163 0.930 . S
C1168 N1169 1.314 . S
C1168 C1170 1.353 . S
C1168 H1174 0.930 . S
N1169 Li1145 1.990 . S
N1169 C1168 1.314 . S
N1169 C1172 1.279 . S
C1170 C1168 1.353 . S
C1170 C1173 1.348 . S
C1170 H1218 0.929 . S
C1171 C1172 1.358 . S
C1171 C1173 1.356 . S
C1171 H1219 0.930 . S
C1172 N1169 1.279 . S
C1172 C1171 1.358 . S
C1172 H1175 0.930 . S
C1173 C1170 1.348 . S
C1173 C1171 1.356 . S
H1174 C1168 0.930 . S
H1175 C1172 0.930 . S
C1176 C1178 1.348 . S
C1176 C1179 1.356 . S
C1176 O1206 1.325 . S
N1177 C1180 1.314 . S
N1177 C1181 1.279 . S
C1178 C1176 1.348 . S
C1178 C1180 1.353 . S
C1178 H1220 0.929 . S
C1179 C1176 1.356 . S
C1179 C1181 1.358 . S
C1179 H1221 0.930 . S
C1180 N1177 1.314 . S
C1180 C1178 1.353 . S
C1180 H1222 0.930 . S
C1181 N1177 1.279 . S
C1181 C1179 1.358 . S
C1181 H1223 0.930 . S
C1182 C1183 1.348 . S
C1182 C1184 1.356 . S
C1182 O1207 1.325 . S
C1183 C1182 1.348 . S
C1183 C1185 1.353 . S
C1183 H1224 0.929 . S
C1184 C1182 1.356 . S
C1184 C1186 1.358 . S
C1184 H1225 0.930 . S
C1185 C1183 1.353 . S
C1185 N1187 1.314 . S
C1185 H1226 0.930 . S
C1186 C1184 1.358 . S
C1186 N1187 1.279 . S
C1186 H1227 0.930 . S
N1187 C1185 1.314 . S
N1187 C1186 1.279 . S
C1188 C1190 1.353 . S
C1188 N1191 1.314 . S
C1188 H1194 0.930 . S
C1189 N1191 1.279 . S
C1189 C1192 1.358 . S
C1189 H1195 0.930 . S
C1190 C1188 1.353 . S
C1190 C1193 1.348 . S
C1190 H1228 0.929 . S
N1191 Li1146 1.990 . S
N1191 C1188 1.314 . S
N1191 C1189 1.279 . S
C1192 C1189 1.358 . S
C1192 C1193 1.356 . S
C1192 H1229 0.930 . S
C1193 C1190 1.348 . S
C1193 C1192 1.356 . S
H1194 C1188 0.930 . S
H1195 C1189 0.930 . S
C1196 N1197 1.314 . S
C1196 C1198 1.353 . S
C1196 H1202 0.930 . S
N1197 Li1147 1.990 . S
N1197 C1196 1.314 . S
N1197 C1200 1.279 . S
C1198 C1196 1.353 . S
C1198 C1201 1.348 . S
C1198 H1230 0.929 . S
C1199 C1200 1.358 . S
C1199 C1201 1.356 . S
C1199 H1231 0.930 . S
C1200 N1197 1.279 . S
C1200 C1199 1.358 . S
C1200 H1203 0.930 . S
C1201 C1198 1.348 . S
C1201 C1199 1.356 . S
H1202 C1196 0.930 . S
H1203 C1200 0.930 . S
O1204 Li1144 1.956 . S
O1204 Li1145 1.970 . S
O1204 Li1146 1.961 . S
O1204 C1148 1.325 . S
O1205 Li1144 1.970 . S
O1205 Li1145 1.956 . S
O1205 Li1147 1.961 . S
O1205 C1154 1.325 . S
O1206 Li1144 1.961 . S
O1206 Li1146 1.956 . S
O1206 Li1147 1.970 . S
O1206 C1176 1.325 . S
O1207 Li1145 1.961 . S
O1207 Li1146 1.970 . S
O1207 Li1147 1.956 . S
O1207 C1182 1.325 . S
H1208 C1150 0.929 . S
H1209 C1151 0.930 . S
H1210 C1152 0.930 1_565 S
H1211 C1153 0.930 1_565 S
H1212 C1155 0.930 . S
H1213 C1157 0.929 . S
H1214 C1158 0.930 . S
H1215 C1159 0.930 . S
H1216 C1162 0.930 . S
H1217 C1165 0.929 . S
H1218 C1170 0.929 . S
H1219 C1171 0.930 . S
H1220 C1178 0.929 . S
H1221 C1179 0.930 . S
H1222 C1180 0.930 . S
H1223 C1181 0.930 . S
H1224 C1183 0.929 . S
H1225 C1184 0.930 . S
H1226 C1185 0.930 . S
H1227 C1186 0.930 . S
H1228 C1190 0.929 . S
H1229 C1192 0.930 . S
H1230 C1198 0.929 . S
H1231 C1199 0.930 . S
Li1232 N1249 1.990 . S
Li1232 O1292 1.956 . S
Li1232 O1293 1.970 . S
Li1232 O1294 1.961 . S
Li1233 N1257 1.990 . S
Li1233 O1292 1.970 . S
Li1233 O1293 1.956 . S
Li1233 O1295 1.961 . S
Li1234 N1279 1.990 . S
Li1234 O1292 1.961 . S
Li1234 O1294 1.956 . S
Li1234 O1295 1.970 . S
Li1235 N1285 1.990 . S
Li1235 O1293 1.961 . S
Li1235 O1294 1.970 . S
Li1235 O1295 1.956 . S
C1236 C1238 1.348 . S
C1236 C1239 1.356 . S
C1236 O1292 1.325 . S
N1237 C1240 1.314 . S
N1237 C1241 1.279 . S
C1238 C1236 1.348 . S
C1238 C1240 1.353 . S
C1238 H1296 0.929 . S
C1239 C1236 1.356 . S
C1239 C1241 1.358 . S
C1239 H1297 0.930 . S
C1240 N1237 1.314 . S
C1240 C1238 1.353 . S
C1240 H1298 0.930 . S
C1241 N1237 1.279 . S
C1241 C1239 1.358 . S
C1241 H1299 0.930 . S
C1242 C1245 1.348 . S
C1242 C1246 1.356 . S
C1242 O1293 1.325 . S
C1243 N1244 1.279 . S
C1243 C1246 1.358 . S
C1243 H1300 0.930 . S
N1244 C1243 1.279 . S
N1244 C1247 1.314 . S
C1245 C1242 1.348 . S
C1245 C1247 1.353 . S
C1245 H1301 0.929 . S
C1246 C1242 1.356 . S
C1246 C1243 1.358 . S
C1246 H1302 0.930 . S
C1247 N1244 1.314 . S
C1247 C1245 1.353 . S
C1247 H1303 0.930 . S
C1248 N1249 1.314 . S
C1248 C1253 1.353 . S
C1248 H1254 0.930 . S
N1249 Li1232 1.990 . S
N1249 C1248 1.314 . S
N1249 C1251 1.279 . S
C1250 C1251 1.358 . S
C1250 C1252 1.356 . S
C1250 H1304 0.930 . S
C1251 N1249 1.279 . S
C1251 C1250 1.358 . S
C1251 H1255 0.930 . S
C1252 C1250 1.356 . S
C1252 C1253 1.348 . S
C1253 C1248 1.353 . S
C1253 C1252 1.348 . S
C1253 H1305 0.929 . S
H1254 C1248 0.930 . S
H1255 C1251 0.930 . S
C1256 N1257 1.314 . S
C1256 C1258 1.353 . S
C1256 H1262 0.930 . S
N1257 Li1233 1.990 . S
N1257 C1256 1.314 . S
N1257 C1260 1.279 . S
C1258 C1256 1.353 . S
C1258 C1261 1.348 . S
C1258 H1306 0.929 . S
C1259 C1260 1.358 . S
C1259 C1261 1.356 . S
C1259 H1307 0.930 . S
C1260 N1257 1.279 . S
C1260 C1259 1.358 . S
C1260 H1263 0.930 . S
C1261 C1258 1.348 . S
C1261 C1259 1.356 . S
H1262 C1256 0.930 . S
H1263 C1260 0.930 . S
C1264 C1266 1.348 . S
C1264 C1267 1.356 . S
C1264 O1294 1.325 . S
N1265 C1268 1.314 . S
N1265 C1269 1.279 . S
C1266 C1264 1.348 . S
C1266 C1268 1.353 . S
C1266 H1308 0.929 . S
C1267 C1264 1.356 . S
C1267 C1269 1.358 . S
C1267 H1309 0.930 . S
C1268 N1265 1.314 . S
C1268 C1266 1.353 . S
C1268 H1310 0.930 . S
C1269 N1265 1.279 . S
C1269 C1267 1.358 . S
C1269 H1311 0.930 . S
C1270 C1271 1.348 . S
C1270 C1272 1.356 . S
C1270 O1295 1.325 . S
C1271 C1270 1.348 . S
C1271 C1273 1.353 . S
C1271 H1312 0.929 . S
C1272 C1270 1.356 . S
C1272 C1274 1.358 . S
C1272 H1313 0.930 . S
C1273 C1271 1.353 . S
C1273 N1275 1.314 . S
C1273 H1314 0.930 . S
C1274 C1272 1.358 . S
C1274 N1275 1.279 . S
C1274 H1315 0.930 . S
N1275 C1273 1.314 . S
N1275 C1274 1.279 . S
C1276 C1278 1.353 . S
C1276 N1279 1.314 . S
C1276 H1282 0.930 . S
C1277 N1279 1.279 . S
C1277 C1280 1.358 . S
C1277 H1283 0.930 . S
C1278 C1276 1.353 . S
C1278 C1281 1.348 . S
C1278 H1316 0.929 . S
N1279 Li1234 1.990 . S
N1279 C1276 1.314 . S
N1279 C1277 1.279 . S
C1280 C1277 1.358 . S
C1280 C1281 1.356 . S
C1280 H1317 0.930 . S
C1281 C1278 1.348 . S
C1281 C1280 1.356 . S
H1282 C1276 0.930 . S
H1283 C1277 0.930 . S
C1284 N1285 1.314 . S
C1284 C1286 1.353 . S
C1284 H1290 0.930 . S
N1285 Li1235 1.990 . S
N1285 C1284 1.314 . S
N1285 C1288 1.279 . S
C1286 C1284 1.353 . S
C1286 C1289 1.348 . S
C1286 H1318 0.929 . S
C1287 C1288 1.358 . S
C1287 C1289 1.356 . S
C1287 H1319 0.930 . S
C1288 N1285 1.279 . S
C1288 C1287 1.358 . S
C1288 H1291 0.930 . S
C1289 C1286 1.348 . S
C1289 C1287 1.356 . S
H1290 C1284 0.930 . S
H1291 C1288 0.930 . S
O1292 Li1232 1.956 . S
O1292 Li1233 1.970 . S
O1292 Li1234 1.961 . S
O1292 C1236 1.325 . S
O1293 Li1232 1.970 . S
O1293 Li1233 1.956 . S
O1293 Li1235 1.961 . S
O1293 C1242 1.325 . S
O1294 Li1232 1.961 . S
O1294 Li1234 1.956 . S
O1294 Li1235 1.970 . S
O1294 C1264 1.325 . S
O1295 Li1233 1.961 . S
O1295 Li1234 1.970 . S
O1295 Li1235 1.956 . S
O1295 C1270 1.325 . S
H1296 C1238 0.929 . S
H1297 C1239 0.930 . S
H1298 C1240 0.930 . S
H1299 C1241 0.930 . S
H1300 C1243 0.930 . S
H1301 C1245 0.929 . S
H1302 C1246 0.930 . S
H1303 C1247 0.930 . S
H1304 C1250 0.930 . S
H1305 C1253 0.929 . S
H1306 C1258 0.929 . S
H1307 C1259 0.930 . S
H1308 C1266 0.929 . S
H1309 C1267 0.930 . S
H1310 C1268 0.930 . S
H1311 C1269 0.930 . S
H1312 C1271 0.929 . S
H1313 C1272 0.930 . S
H1314 C1273 0.930 . S
H1315 C1274 0.930 . S
H1316 C1278 0.929 . S
H1317 C1280 0.930 . S
H1318 C1286 0.929 . S
H1319 C1287 0.930 . S
Li1320 N1337 1.990 . S
Li1320 O1380 1.956 . S
Li1320 O1381 1.970 . S
Li1320 O1382 1.961 . S
Li1321 N1345 1.990 . S
Li1321 O1380 1.970 . S
Li1321 O1381 1.956 . S
Li1321 O1383 1.961 . S
Li1322 N1367 1.990 . S
Li1322 O1380 1.961 . S
Li1322 O1382 1.956 . S
Li1322 O1383 1.970 . S
Li1323 N1373 1.990 . S
Li1323 O1381 1.961 . S
Li1323 O1382 1.970 . S
Li1323 O1383 1.956 . S
C1324 C1326 1.348 . S
C1324 C1327 1.356 . S
C1324 O1380 1.325 . S
N1325 C1328 1.314 . S
N1325 C1329 1.279 . S
C1326 C1324 1.348 . S
C1326 C1328 1.353 . S
C1326 H1384 0.929 . S
C1327 C1324 1.356 . S
C1327 C1329 1.358 . S
C1327 H1385 0.930 . S
C1328 N1325 1.314 . S
C1328 C1326 1.353 . S
C1328 H1386 0.930 . S
C1329 N1325 1.279 . S
C1329 C1327 1.358 . S
C1329 H1387 0.930 . S
C1330 C1333 1.348 . S
C1330 C1334 1.356 . S
C1330 O1381 1.325 . S
C1331 N1332 1.279 . S
C1331 C1334 1.358 . S
C1331 H1388 0.930 . S
N1332 C1331 1.279 . S
N1332 C1335 1.314 . S
C1333 C1330 1.348 . S
C1333 C1335 1.353 . S
C1333 H1389 0.929 . S
C1334 C1330 1.356 . S
C1334 C1331 1.358 . S
C1334 H1390 0.930 . S
C1335 N1332 1.314 . S
C1335 C1333 1.353 . S
C1335 H1391 0.930 . S
C1336 N1337 1.314 . S
C1336 C1341 1.353 . S
C1336 H1342 0.930 . S
N1337 Li1320 1.990 . S
N1337 C1336 1.314 . S
N1337 C1339 1.279 . S
C1338 C1339 1.358 . S
C1338 C1340 1.356 . S
C1338 H1392 0.930 . S
C1339 N1337 1.279 . S
C1339 C1338 1.358 . S
C1339 H1343 0.930 . S
C1340 C1338 1.356 . S
C1340 C1341 1.348 . S
C1341 C1336 1.353 . S
C1341 C1340 1.348 . S
C1341 H1393 0.929 . S
H1342 C1336 0.930 . S
H1343 C1339 0.930 . S
C1344 N1345 1.314 . S
C1344 C1346 1.353 . S
C1344 H1350 0.930 . S
N1345 Li1321 1.990 . S
N1345 C1344 1.314 . S
N1345 C1348 1.279 . S
C1346 C1344 1.353 . S
C1346 C1349 1.348 . S
C1346 H1394 0.929 . S
C1347 C1348 1.358 . S
C1347 C1349 1.356 . S
C1347 H1395 0.930 . S
C1348 N1345 1.279 . S
C1348 C1347 1.358 . S
C1348 H1351 0.930 . S
C1349 C1346 1.348 . S
C1349 C1347 1.356 . S
H1350 C1344 0.930 . S
H1351 C1348 0.930 . S
C1352 C1354 1.348 . S
C1352 C1355 1.356 . S
C1352 O1382 1.325 . S
N1353 C1356 1.314 . S
N1353 C1357 1.279 . S
C1354 C1352 1.348 . S
C1354 C1356 1.353 . S
C1354 H1396 0.929 . S
C1355 C1352 1.356 . S
C1355 C1357 1.358 . S
C1355 H1397 0.930 . S
C1356 N1353 1.314 . S
C1356 C1354 1.353 . S
C1356 H1398 0.930 . S
C1357 N1353 1.279 . S
C1357 C1355 1.358 . S
C1357 H1399 0.930 . S
C1358 C1359 1.348 . S
C1358 C1360 1.356 . S
C1358 O1383 1.325 . S
C1359 C1358 1.348 . S
C1359 C1361 1.353 . S
C1359 H1400 0.929 . S
C1360 C1358 1.356 . S
C1360 C1362 1.358 . S
C1360 H1401 0.930 . S
C1361 C1359 1.353 . S
C1361 N1363 1.314 1_565 S
C1361 H1402 0.930 1_565 S
C1362 C1360 1.358 . S
C1362 N1363 1.279 1_565 S
C1362 H1403 0.930 1_565 S
N1363 C1361 1.314 1_545 S
N1363 C1362 1.279 1_545 S
C1364 C1366 1.353 . S
C1364 N1367 1.314 . S
C1364 H1370 0.930 . S
C1365 N1367 1.279 . S
C1365 C1368 1.358 . S
C1365 H1371 0.930 . S
C1366 C1364 1.353 . S
C1366 C1369 1.348 . S
C1366 H1404 0.929 . S
N1367 Li1322 1.990 . S
N1367 C1364 1.314 . S
N1367 C1365 1.279 . S
C1368 C1365 1.358 . S
C1368 C1369 1.356 . S
C1368 H1405 0.930 . S
C1369 C1366 1.348 . S
C1369 C1368 1.356 . S
H1370 C1364 0.930 . S
H1371 C1365 0.930 . S
C1372 N1373 1.314 . S
C1372 C1374 1.353 . S
C1372 H1378 0.930 . S
N1373 Li1323 1.990 . S
N1373 C1372 1.314 . S
N1373 C1376 1.279 . S
C1374 C1372 1.353 . S
C1374 C1377 1.348 . S
C1374 H1406 0.929 . S
C1375 C1376 1.358 . S
C1375 C1377 1.356 . S
C1375 H1407 0.930 . S
C1376 N1373 1.279 . S
C1376 C1375 1.358 . S
C1376 H1379 0.930 . S
C1377 C1374 1.348 . S
C1377 C1375 1.356 . S
H1378 C1372 0.930 . S
H1379 C1376 0.930 . S
O1380 Li1320 1.956 . S
O1380 Li1321 1.970 . S
O1380 Li1322 1.961 . S
O1380 C1324 1.325 . S
O1381 Li1320 1.970 . S
O1381 Li1321 1.956 . S
O1381 Li1323 1.961 . S
O1381 C1330 1.325 . S
O1382 Li1320 1.961 . S
O1382 Li1322 1.956 . S
O1382 Li1323 1.970 . S
O1382 C1352 1.325 . S
O1383 Li1321 1.961 . S
O1383 Li1322 1.970 . S
O1383 Li1323 1.956 . S
O1383 C1358 1.325 . S
H1384 C1326 0.929 . S
H1385 C1327 0.930 . S
H1386 C1328 0.930 . S
H1387 C1329 0.930 . S
H1388 C1331 0.930 . S
H1389 C1333 0.929 . S
H1390 C1334 0.930 . S
H1391 C1335 0.930 . S
H1392 C1338 0.930 . S
H1393 C1341 0.929 . S
H1394 C1346 0.929 . S
H1395 C1347 0.930 . S
H1396 C1354 0.929 . S
H1397 C1355 0.930 . S
H1398 C1356 0.930 . S
H1399 C1357 0.930 . S
H1400 C1359 0.929 . S
H1401 C1360 0.930 . S
H1402 C1361 0.930 1_545 S
H1403 C1362 0.930 1_545 S
H1404 C1366 0.929 . S
H1405 C1368 0.930 . S
H1406 C1374 0.929 . S
H1407 C1375 0.930 . S
Li1408 N1425 1.990 . S
Li1408 O1468 1.956 . S
Li1408 O1469 1.970 . S
Li1408 O1470 1.961 . S
Li1409 N1433 1.990 . S
Li1409 O1468 1.970 . S
Li1409 O1469 1.956 . S
Li1409 O1471 1.961 . S
Li1410 N1455 1.990 . S
Li1410 O1468 1.961 . S
Li1410 O1470 1.956 . S
Li1410 O1471 1.970 . S
Li1411 N1461 1.990 . S
Li1411 O1469 1.961 . S
Li1411 O1470 1.970 . S
Li1411 O1471 1.956 . S
C1412 C1414 1.348 . S
C1412 C1415 1.356 . S
C1412 O1468 1.325 . S
N1413 C1416 1.314 . S
N1413 C1417 1.279 . S
C1414 C1412 1.348 . S
C1414 C1416 1.353 . S
C1414 H1472 0.929 . S
C1415 C1412 1.356 . S
C1415 C1417 1.358 . S
C1415 H1473 0.930 . S
C1416 N1413 1.314 . S
C1416 C1414 1.353 . S
C1416 H1474 0.930 . S
C1417 N1413 1.279 . S
C1417 C1415 1.358 . S
C1417 H1475 0.930 . S
C1418 C1421 1.348 . S
C1418 C1422 1.356 . S
C1418 O1469 1.325 . S
C1419 N1420 1.279 . S
C1419 C1422 1.358 . S
C1419 H1476 0.930 . S
N1420 C1419 1.279 . S
N1420 C1423 1.314 . S
C1421 C1418 1.348 . S
C1421 C1423 1.353 . S
C1421 H1477 0.929 . S
C1422 C1418 1.356 . S
C1422 C1419 1.358 . S
C1422 H1478 0.930 . S
C1423 N1420 1.314 . S
C1423 C1421 1.353 . S
C1423 H1479 0.930 . S
C1424 N1425 1.314 . S
C1424 C1429 1.353 . S
C1424 H1430 0.930 . S
N1425 Li1408 1.990 . S
N1425 C1424 1.314 . S
N1425 C1427 1.279 . S
C1426 C1427 1.358 . S
C1426 C1428 1.356 . S
C1426 H1480 0.930 . S
C1427 N1425 1.279 . S
C1427 C1426 1.358 . S
C1427 H1431 0.930 . S
C1428 C1426 1.356 . S
C1428 C1429 1.348 . S
C1429 C1424 1.353 . S
C1429 C1428 1.348 . S
C1429 H1481 0.929 . S
H1430 C1424 0.930 . S
H1431 C1427 0.930 . S
C1432 N1433 1.314 . S
C1432 C1434 1.353 . S
C1432 H1438 0.930 . S
N1433 Li1409 1.990 . S
N1433 C1432 1.314 . S
N1433 C1436 1.279 . S
C1434 C1432 1.353 . S
C1434 C1437 1.348 . S
C1434 H1482 0.929 . S
C1435 C1436 1.358 . S
C1435 C1437 1.356 . S
C1435 H1483 0.930 . S
C1436 N1433 1.279 . S
C1436 C1435 1.358 . S
C1436 H1439 0.930 . S
C1437 C1434 1.348 . S
C1437 C1435 1.356 . S
H1438 C1432 0.930 . S
H1439 C1436 0.930 . S
C1440 C1442 1.348 . S
C1440 C1443 1.356 . S
C1440 O1470 1.325 . S
N1441 C1444 1.314 . S
N1441 C1445 1.279 . S
C1442 C1440 1.348 . S
C1442 C1444 1.353 . S
C1442 H1484 0.929 . S
C1443 C1440 1.356 . S
C1443 C1445 1.358 . S
C1443 H1485 0.930 . S
C1444 N1441 1.314 . S
C1444 C1442 1.353 . S
C1444 H1486 0.930 . S
C1445 N1441 1.279 . S
C1445 C1443 1.358 . S
C1445 H1487 0.930 . S
C1446 C1447 1.348 . S
C1446 C1448 1.356 . S
C1446 O1471 1.325 . S
C1447 C1446 1.348 . S
C1447 C1449 1.353 . S
C1447 H1488 0.929 . S
C1448 C1446 1.356 . S
C1448 C1450 1.358 . S
C1448 H1489 0.930 . S
C1449 C1447 1.353 . S
C1449 N1451 1.314 . S
C1449 H1490 0.930 . S
C1450 C1448 1.358 . S
C1450 N1451 1.279 . S
C1450 H1491 0.930 . S
N1451 C1449 1.314 . S
N1451 C1450 1.279 . S
C1452 C1454 1.353 . S
C1452 N1455 1.314 . S
C1452 H1458 0.930 . S
C1453 N1455 1.279 . S
C1453 C1456 1.358 . S
C1453 H1459 0.930 . S
C1454 C1452 1.353 . S
C1454 C1457 1.348 . S
C1454 H1492 0.929 . S
N1455 Li1410 1.990 . S
N1455 C1452 1.314 . S
N1455 C1453 1.279 . S
C1456 C1453 1.358 . S
C1456 C1457 1.356 . S
C1456 H1493 0.930 . S
C1457 C1454 1.348 . S
C1457 C1456 1.356 . S
H1458 C1452 0.930 . S
H1459 C1453 0.930 . S
C1460 N1461 1.314 . S
C1460 C1462 1.353 . S
C1460 H1466 0.930 . S
N1461 Li1411 1.990 . S
N1461 C1460 1.314 . S
N1461 C1464 1.279 . S
C1462 C1460 1.353 . S
C1462 C1465 1.348 . S
C1462 H1494 0.929 . S
C1463 C1464 1.358 . S
C1463 C1465 1.356 . S
C1463 H1495 0.930 . S
C1464 N1461 1.279 . S
C1464 C1463 1.358 . S
C1464 H1467 0.930 . S
C1465 C1462 1.348 . S
C1465 C1463 1.356 . S
H1466 C1460 0.930 . S
H1467 C1464 0.930 . S
O1468 Li1408 1.956 . S
O1468 Li1409 1.970 . S
O1468 Li1410 1.961 . S
O1468 C1412 1.325 . S
O1469 Li1408 1.970 . S
O1469 Li1409 1.956 . S
O1469 Li1411 1.961 . S
O1469 C1418 1.325 . S
O1470 Li1408 1.961 . S
O1470 Li1410 1.956 . S
O1470 Li1411 1.970 . S
O1470 C1440 1.325 . S
O1471 Li1409 1.961 . S
O1471 Li1410 1.970 . S
O1471 Li1411 1.956 . S
O1471 C1446 1.325 . S
H1472 C1414 0.929 . S
H1473 C1415 0.930 . S
H1474 C1416 0.930 . S
H1475 C1417 0.930 . S
H1476 C1419 0.930 . S
H1477 C1421 0.929 . S
H1478 C1422 0.930 . S
H1479 C1423 0.930 . S
H1480 C1426 0.930 . S
H1481 C1429 0.929 . S
H1482 C1434 0.929 . S
H1483 C1435 0.930 . S
H1484 C1442 0.929 . S
H1485 C1443 0.930 . S
H1486 C1444 0.930 . S
H1487 C1445 0.930 . S
H1488 C1447 0.929 . S
H1489 C1448 0.930 . S
H1490 C1449 0.930 . S
H1491 C1450 0.930 . S
H1492 C1454 0.929 . S
H1493 C1456 0.930 . S
H1494 C1462 0.929 . S
H1495 C1463 0.930 . S
Li1496 N1513 1.990 . S
Li1496 O1556 1.956 . S
Li1496 O1557 1.970 . S
Li1496 O1558 1.961 . S
Li1497 N1521 1.990 . S
Li1497 O1556 1.970 . S
Li1497 O1557 1.956 . S
Li1497 O1559 1.961 . S
Li1498 N1543 1.990 . S
Li1498 O1556 1.961 . S
Li1498 O1558 1.956 . S
Li1498 O1559 1.970 . S
Li1499 N1549 1.990 . S
Li1499 O1557 1.961 . S
Li1499 O1558 1.970 . S
Li1499 O1559 1.956 . S
C1500 C1502 1.348 . S
C1500 C1503 1.356 . S
C1500 O1556 1.325 . S
N1501 C1504 1.314 . S
N1501 C1505 1.279 . S
C1502 C1500 1.348 . S
C1502 C1504 1.353 . S
C1502 H1560 0.929 . S
C1503 C1500 1.356 . S
C1503 C1505 1.358 . S
C1503 H1561 0.930 . S
C1504 N1501 1.314 . S
C1504 C1502 1.353 . S
C1504 H1562 0.930 . S
C1505 N1501 1.279 . S
C1505 C1503 1.358 . S
C1505 H1563 0.930 . S
C1506 C1509 1.348 . S
C1506 C1510 1.356 . S
C1506 O1557 1.325 . S
C1507 N1508 1.279 . S
C1507 C1510 1.358 . S
C1507 H1564 0.930 . S
N1508 C1507 1.279 . S
N1508 C1511 1.314 . S
C1509 C1506 1.348 . S
C1509 C1511 1.353 . S
C1509 H1565 0.929 . S
C1510 C1506 1.356 . S
C1510 C1507 1.358 . S
C1510 H1566 0.930 . S
C1511 N1508 1.314 . S
C1511 C1509 1.353 . S
C1511 H1567 0.930 . S
C1512 N1513 1.314 . S
C1512 C1517 1.353 . S
C1512 H1518 0.930 . S
N1513 Li1496 1.990 . S
N1513 C1512 1.314 . S
N1513 C1515 1.279 . S
C1514 C1515 1.358 . S
C1514 C1516 1.356 . S
C1514 H1568 0.930 . S
C1515 N1513 1.279 . S
C1515 C1514 1.358 . S
C1515 H1519 0.930 . S
C1516 C1514 1.356 . S
C1516 C1517 1.348 . S
C1517 C1512 1.353 . S
C1517 C1516 1.348 . S
C1517 H1569 0.929 . S
H1518 C1512 0.930 . S
H1519 C1515 0.930 . S
C1520 N1521 1.314 . S
C1520 C1522 1.353 . S
C1520 H1526 0.930 . S
N1521 Li1497 1.990 . S
N1521 C1520 1.314 . S
N1521 C1524 1.279 . S
C1522 C1520 1.353 . S
C1522 C1525 1.348 . S
C1522 H1570 0.929 . S
C1523 C1524 1.358 . S
C1523 C1525 1.356 . S
C1523 H1571 0.930 . S
C1524 N1521 1.279 . S
C1524 C1523 1.358 . S
C1524 H1527 0.930 . S
C1525 C1522 1.348 . S
C1525 C1523 1.356 . S
H1526 C1520 0.930 . S
H1527 C1524 0.930 . S
C1528 C1530 1.348 . S
C1528 C1531 1.356 . S
C1528 O1558 1.325 . S
N1529 C1532 1.314 . S
N1529 C1533 1.279 . S
C1530 C1528 1.348 . S
C1530 C1532 1.353 . S
C1530 H1572 0.929 . S
C1531 C1528 1.356 . S
C1531 C1533 1.358 . S
C1531 H1573 0.930 . S
C1532 N1529 1.314 . S
C1532 C1530 1.353 . S
C1532 H1574 0.930 . S
C1533 N1529 1.279 . S
C1533 C1531 1.358 . S
C1533 H1575 0.930 . S
C1534 C1535 1.348 . S
C1534 C1536 1.356 . S
C1534 O1559 1.325 . S
C1535 C1534 1.348 . S
C1535 C1537 1.353 . S
C1535 H1576 0.929 . S
C1536 C1534 1.356 . S
C1536 C1538 1.358 . S
C1536 H1577 0.930 . S
C1537 C1535 1.353 . S
C1537 N1539 1.314 . S
C1537 H1578 0.930 . S
C1538 C1536 1.358 . S
C1538 N1539 1.279 . S
C1538 H1579 0.930 . S
N1539 C1537 1.314 . S
N1539 C1538 1.279 . S
C1540 C1542 1.353 . S
C1540 N1543 1.314 . S
C1540 H1546 0.930 . S
C1541 N1543 1.279 . S
C1541 C1544 1.358 . S
C1541 H1547 0.930 . S
C1542 C1540 1.353 . S
C1542 C1545 1.348 . S
C1542 H1580 0.929 . S
N1543 Li1498 1.990 . S
N1543 C1540 1.314 . S
N1543 C1541 1.279 . S
C1544 C1541 1.358 . S
C1544 C1545 1.356 . S
C1544 H1581 0.930 . S
C1545 C1542 1.348 . S
C1545 C1544 1.356 . S
H1546 C1540 0.930 . S
H1547 C1541 0.930 . S
C1548 N1549 1.314 . S
C1548 C1550 1.353 . S
C1548 H1554 0.930 . S
N1549 Li1499 1.990 . S
N1549 C1548 1.314 . S
N1549 C1552 1.279 . S
C1550 C1548 1.353 . S
C1550 C1553 1.348 . S
C1550 H1582 0.929 . S
C1551 C1552 1.358 . S
C1551 C1553 1.356 . S
C1551 H1583 0.930 . S
C1552 N1549 1.279 . S
C1552 C1551 1.358 . S
C1552 H1555 0.930 . S
C1553 C1550 1.348 . S
C1553 C1551 1.356 . S
H1554 C1548 0.930 . S
H1555 C1552 0.930 . S
O1556 Li1496 1.956 . S
O1556 Li1497 1.970 . S
O1556 Li1498 1.961 . S
O1556 C1500 1.325 . S
O1557 Li1496 1.970 . S
O1557 Li1497 1.956 . S
O1557 Li1499 1.961 . S
O1557 C1506 1.325 . S
O1558 Li1496 1.961 . S
O1558 Li1498 1.956 . S
O1558 Li1499 1.970 . S
O1558 C1528 1.325 . S
O1559 Li1497 1.961 . S
O1559 Li1498 1.970 . S
O1559 Li1499 1.956 . S
O1559 C1534 1.325 . S
H1560 C1502 0.929 . S
H1561 C1503 0.930 . S
H1562 C1504 0.930 . S
H1563 C1505 0.930 . S
H1564 C1507 0.930 . S
H1565 C1509 0.929 . S
H1566 C1510 0.930 . S
H1567 C1511 0.930 . S
H1568 C1514 0.930 . S
H1569 C1517 0.929 . S
H1570 C1522 0.929 . S
H1571 C1523 0.930 . S
H1572 C1530 0.929 . S
H1573 C1531 0.930 . S
H1574 C1532 0.930 . S
H1575 C1533 0.930 . S
H1576 C1535 0.929 . S
H1577 C1536 0.930 . S
H1578 C1537 0.930 . S
H1579 C1538 0.930 . S
H1580 C1542 0.929 . S
H1581 C1544 0.930 . S
H1582 C1550 0.929 . S
H1583 C1551 0.930 . S
Li1584 N1601 1.990 . S
Li1584 O1644 1.956 . S
Li1584 O1645 1.970 . S
Li1584 O1646 1.961 . S
Li1585 N1609 1.990 . S
Li1585 O1644 1.970 . S
Li1585 O1645 1.956 . S
Li1585 O1647 1.961 . S
Li1586 N1631 1.990 . S
Li1586 O1644 1.961 . S
Li1586 O1646 1.956 . S
Li1586 O1647 1.970 . S
Li1587 N1637 1.990 . S
Li1587 O1645 1.961 . S
Li1587 O1646 1.970 . S
Li1587 O1647 1.956 . S
C1588 C1590 1.348 . S
C1588 C1591 1.356 . S
C1588 O1644 1.325 . S
N1589 C1592 1.314 . S
N1589 C1593 1.279 . S
C1590 C1588 1.348 . S
C1590 C1592 1.353 . S
C1590 H1648 0.929 . S
C1591 C1588 1.356 . S
C1591 C1593 1.358 . S
C1591 H1649 0.930 . S
C1592 N1589 1.314 . S
C1592 C1590 1.353 . S
C1592 H1650 0.930 . S
C1593 N1589 1.279 . S
C1593 C1591 1.358 . S
C1593 H1651 0.930 . S
C1594 C1597 1.348 . S
C1594 C1598 1.356 . S
C1594 O1645 1.325 . S
C1595 N1596 1.279 . S
C1595 C1598 1.358 . S
C1595 H1652 0.930 . S
N1596 C1595 1.279 . S
N1596 C1599 1.314 . S
C1597 C1594 1.348 . S
C1597 C1599 1.353 . S
C1597 H1653 0.929 . S
C1598 C1594 1.356 . S
C1598 C1595 1.358 . S
C1598 H1654 0.930 . S
C1599 N1596 1.314 . S
C1599 C1597 1.353 . S
C1599 H1655 0.930 . S
C1600 N1601 1.314 . S
C1600 C1605 1.353 . S
C1600 H1606 0.930 . S
N1601 Li1584 1.990 . S
N1601 C1600 1.314 . S
N1601 C1603 1.279 . S
C1602 C1603 1.358 . S
C1602 C1604 1.356 . S
C1602 H1656 0.930 . S
C1603 N1601 1.279 . S
C1603 C1602 1.358 . S
C1603 H1607 0.930 . S
C1604 C1602 1.356 . S
C1604 C1605 1.348 . S
C1605 C1600 1.353 . S
C1605 C1604 1.348 . S
C1605 H1657 0.929 . S
H1606 C1600 0.930 . S
H1607 C1603 0.930 . S
C1608 N1609 1.314 . S
C1608 C1610 1.353 . S
C1608 H1614 0.930 . S
N1609 Li1585 1.990 . S
N1609 C1608 1.314 . S
N1609 C1612 1.279 . S
C1610 C1608 1.353 . S
C1610 C1613 1.348 . S
C1610 H1658 0.929 . S
C1611 C1612 1.358 . S
C1611 C1613 1.356 . S
C1611 H1659 0.930 . S
C1612 N1609 1.279 . S
C1612 C1611 1.358 . S
C1612 H1615 0.930 . S
C1613 C1610 1.348 . S
C1613 C1611 1.356 . S
H1614 C1608 0.930 . S
H1615 C1612 0.930 . S
C1616 C1618 1.348 . S
C1616 C1619 1.356 . S
C1616 O1646 1.325 . S
N1617 C1620 1.314 . S
N1617 C1621 1.279 . S
C1618 C1616 1.348 . S
C1618 C1620 1.353 . S
C1618 H1660 0.929 . S
C1619 C1616 1.356 . S
C1619 C1621 1.358 . S
C1619 H1661 0.930 . S
C1620 N1617 1.314 . S
C1620 C1618 1.353 . S
C1620 H1662 0.930 . S
C1621 N1617 1.279 . S
C1621 C1619 1.358 . S
C1621 H1663 0.930 . S
C1622 C1623 1.348 . S
C1622 C1624 1.356 . S
C1622 O1647 1.325 . S
C1623 C1622 1.348 . S
C1623 C1625 1.353 . S
C1623 H1664 0.929 . S
C1624 C1622 1.356 . S
C1624 C1626 1.358 . S
C1624 H1665 0.930 . S
C1625 C1623 1.353 . S
C1625 N1627 1.314 . S
C1625 H1666 0.930 . S
C1626 C1624 1.358 . S
C1626 N1627 1.279 . S
C1626 H1667 0.930 . S
N1627 C1625 1.314 . S
N1627 C1626 1.279 . S
C1628 C1630 1.353 . S
C1628 N1631 1.314 . S
C1628 H1634 0.930 . S
C1629 N1631 1.279 . S
C1629 C1632 1.358 . S
C1629 H1635 0.930 . S
C1630 C1628 1.353 . S
C1630 C1633 1.348 . S
C1630 H1668 0.929 . S
N1631 Li1586 1.990 . S
N1631 C1628 1.314 . S
N1631 C1629 1.279 . S
C1632 C1629 1.358 . S
C1632 C1633 1.356 . S
C1632 H1669 0.930 . S
C1633 C1630 1.348 . S
C1633 C1632 1.356 . S
H1634 C1628 0.930 . S
H1635 C1629 0.930 . S
C1636 N1637 1.314 . S
C1636 C1638 1.353 . S
C1636 H1642 0.930 . S
N1637 Li1587 1.990 . S
N1637 C1636 1.314 . S
N1637 C1640 1.279 . S
C1638 C1636 1.353 . S
C1638 C1641 1.348 . S
C1638 H1670 0.929 . S
C1639 C1640 1.358 . S
C1639 C1641 1.356 . S
C1639 H1671 0.930 . S
C1640 N1637 1.279 . S
C1640 C1639 1.358 . S
C1640 H1643 0.930 . S
C1641 C1638 1.348 . S
C1641 C1639 1.356 . S
H1642 C1636 0.930 . S
H1643 C1640 0.930 . S
O1644 Li1584 1.956 . S
O1644 Li1585 1.970 . S
O1644 Li1586 1.961 . S
O1644 C1588 1.325 . S
O1645 Li1584 1.970 . S
O1645 Li1585 1.956 . S
O1645 Li1587 1.961 . S
O1645 C1594 1.325 . S
O1646 Li1584 1.961 . S
O1646 Li1586 1.956 . S
O1646 Li1587 1.970 . S
O1646 C1616 1.325 . S
O1647 Li1585 1.961 . S
O1647 Li1586 1.970 . S
O1647 Li1587 1.956 . S
O1647 C1622 1.325 . S
H1648 C1590 0.929 . S
H1649 C1591 0.930 . S
H1650 C1592 0.930 . S
H1651 C1593 0.930 . S
H1652 C1595 0.930 . S
H1653 C1597 0.929 . S
H1654 C1598 0.930 . S
H1655 C1599 0.930 . S
H1656 C1602 0.930 . S
H1657 C1605 0.929 . S
H1658 C1610 0.929 . S
H1659 C1611 0.930 . S
H1660 C1618 0.929 . S
H1661 C1619 0.930 . S
H1662 C1620 0.930 . S
H1663 C1621 0.930 . S
H1664 C1623 0.929 . S
H1665 C1624 0.930 . S
H1666 C1625 0.930 . S
H1667 C1626 0.930 . S
H1668 C1630 0.929 . S
H1669 C1632 0.930 . S
H1670 C1638 0.929 . S
H1671 C1639 0.930 . S
Li1672 N1689 1.990 . S
Li1672 O1732 1.956 . S
Li1672 O1733 1.970 . S
Li1672 O1734 1.961 . S
Li1673 N1697 1.990 . S
Li1673 O1732 1.970 . S
Li1673 O1733 1.956 . S
Li1673 O1735 1.961 . S
Li1674 N1719 1.990 . S
Li1674 O1732 1.961 . S
Li1674 O1734 1.956 . S
Li1674 O1735 1.970 . S
Li1675 N1725 1.990 . S
Li1675 O1733 1.961 . S
Li1675 O1734 1.970 . S
Li1675 O1735 1.956 . S
C1676 C1678 1.348 . S
C1676 C1679 1.356 . S
C1676 O1732 1.325 . S
N1677 C1680 1.314 . S
N1677 C1681 1.279 . S
C1678 C1676 1.348 . S
C1678 C1680 1.353 . S
C1678 H1736 0.929 . S
C1679 C1676 1.356 . S
C1679 C1681 1.358 . S
C1679 H1737 0.930 . S
C1680 N1677 1.314 . S
C1680 C1678 1.353 . S
C1680 H1738 0.930 . S
C1681 N1677 1.279 . S
C1681 C1679 1.358 . S
C1681 H1739 0.930 . S
C1682 C1685 1.348 . S
C1682 C1686 1.356 . S
C1682 O1733 1.325 . S
C1683 N1684 1.279 . S
C1683 C1686 1.358 . S
C1683 H1740 0.930 . S
N1684 C1683 1.279 . S
N1684 C1687 1.314 . S
C1685 C1682 1.348 . S
C1685 C1687 1.353 . S
C1685 H1741 0.929 . S
C1686 C1682 1.356 . S
C1686 C1683 1.358 . S
C1686 H1742 0.930 . S
C1687 N1684 1.314 . S
C1687 C1685 1.353 . S
C1687 H1743 0.930 . S
C1688 N1689 1.314 . S
C1688 C1693 1.353 . S
C1688 H1694 0.930 . S
N1689 Li1672 1.990 . S
N1689 C1688 1.314 . S
N1689 C1691 1.279 . S
C1690 C1691 1.358 . S
C1690 C1692 1.356 . S
C1690 H1744 0.930 . S
C1691 N1689 1.279 . S
C1691 C1690 1.358 . S
C1691 H1695 0.930 . S
C1692 C1690 1.356 . S
C1692 C1693 1.348 . S
C1693 C1688 1.353 . S
C1693 C1692 1.348 . S
C1693 H1745 0.929 . S
H1694 C1688 0.930 . S
H1695 C1691 0.930 . S
C1696 N1697 1.314 . S
C1696 C1698 1.353 . S
C1696 H1702 0.930 . S
N1697 Li1673 1.990 . S
N1697 C1696 1.314 . S
N1697 C1700 1.279 . S
C1698 C1696 1.353 . S
C1698 C1701 1.348 . S
C1698 H1746 0.929 . S
C1699 C1700 1.358 . S
C1699 C1701 1.356 . S
C1699 H1747 0.930 . S
C1700 N1697 1.279 . S
C1700 C1699 1.358 . S
C1700 H1703 0.930 . S
C1701 C1698 1.348 . S
C1701 C1699 1.356 . S
H1702 C1696 0.930 . S
H1703 C1700 0.930 . S
C1704 C1706 1.348 . S
C1704 C1707 1.356 . S
C1704 O1734 1.325 . S
N1705 C1708 1.314 . S
N1705 C1709 1.279 . S
C1706 C1704 1.348 . S
C1706 C1708 1.353 . S
C1706 H1748 0.929 . S
C1707 C1704 1.356 . S
C1707 C1709 1.358 . S
C1707 H1749 0.930 . S
C1708 N1705 1.314 . S
C1708 C1706 1.353 . S
C1708 H1750 0.930 . S
C1709 N1705 1.279 . S
C1709 C1707 1.358 . S
C1709 H1751 0.930 . S
C1710 C1711 1.348 . S
C1710 C1712 1.356 . S
C1710 O1735 1.325 . S
C1711 C1710 1.348 . S
C1711 C1713 1.353 . S
C1711 H1752 0.929 . S
C1712 C1710 1.356 . S
C1712 C1714 1.358 . S
C1712 H1753 0.930 . S
C1713 C1711 1.353 . S
C1713 N1715 1.314 . S
C1713 H1754 0.930 . S
C1714 C1712 1.358 . S
C1714 N1715 1.279 . S
C1714 H1755 0.930 . S
N1715 C1713 1.314 . S
N1715 C1714 1.279 . S
C1716 C1718 1.353 . S
C1716 N1719 1.314 . S
C1716 H1722 0.930 . S
C1717 N1719 1.279 . S
C1717 C1720 1.358 . S
C1717 H1723 0.930 . S
C1718 C1716 1.353 . S
C1718 C1721 1.348 . S
C1718 H1756 0.929 . S
N1719 Li1674 1.990 . S
N1719 C1716 1.314 . S
N1719 C1717 1.279 . S
C1720 C1717 1.358 . S
C1720 C1721 1.356 . S
C1720 H1757 0.930 . S
C1721 C1718 1.348 . S
C1721 C1720 1.356 . S
H1722 C1716 0.930 . S
H1723 C1717 0.930 . S
C1724 N1725 1.314 . S
C1724 C1726 1.353 . S
C1724 H1730 0.930 . S
N1725 Li1675 1.990 . S
N1725 C1724 1.314 . S
N1725 C1728 1.279 . S
C1726 C1724 1.353 . S
C1726 C1729 1.348 . S
C1726 H1758 0.929 . S
C1727 C1728 1.358 . S
C1727 C1729 1.356 . S
C1727 H1759 0.930 . S
C1728 N1725 1.279 . S
C1728 C1727 1.358 . S
C1728 H1731 0.930 . S
C1729 C1726 1.348 . S
C1729 C1727 1.356 . S
H1730 C1724 0.930 . S
H1731 C1728 0.930 . S
O1732 Li1672 1.956 . S
O1732 Li1673 1.970 . S
O1732 Li1674 1.961 . S
O1732 C1676 1.325 . S
O1733 Li1672 1.970 . S
O1733 Li1673 1.956 . S
O1733 Li1675 1.961 . S
O1733 C1682 1.325 . S
O1734 Li1672 1.961 . S
O1734 Li1674 1.956 . S
O1734 Li1675 1.970 . S
O1734 C1704 1.325 . S
O1735 Li1673 1.961 . S
O1735 Li1674 1.970 . S
O1735 Li1675 1.956 . S
O1735 C1710 1.325 . S
H1736 C1678 0.929 . S
H1737 C1679 0.930 . S
H1738 C1680 0.930 . S
H1739 C1681 0.930 . S
H1740 C1683 0.930 . S
H1741 C1685 0.929 . S
H1742 C1686 0.930 . S
H1743 C1687 0.930 . S
H1744 C1690 0.930 . S
H1745 C1693 0.929 . S
H1746 C1698 0.929 . S
H1747 C1699 0.930 . S
H1748 C1706 0.929 . S
H1749 C1707 0.930 . S
H1750 C1708 0.930 . S
H1751 C1709 0.930 . S
H1752 C1711 0.929 . S
H1753 C1712 0.930 . S
H1754 C1713 0.930 . S
H1755 C1714 0.930 . S
H1756 C1718 0.929 . S
H1757 C1720 0.930 . S
H1758 C1726 0.929 . S
H1759 C1727 0.930 . S
Li1760 N1777 1.990 . S
Li1760 O1820 1.956 . S
Li1760 O1821 1.970 . S
Li1760 O1822 1.961 . S
Li1761 N1785 1.990 . S
Li1761 O1820 1.970 . S
Li1761 O1821 1.956 . S
Li1761 O1823 1.961 . S
Li1762 N1807 1.990 . S
Li1762 O1820 1.961 . S
Li1762 O1822 1.956 . S
Li1762 O1823 1.970 . S
Li1763 N1813 1.990 . S
Li1763 O1821 1.961 . S
Li1763 O1822 1.970 . S
Li1763 O1823 1.956 . S
C1764 C1766 1.348 . S
C1764 C1767 1.356 . S
C1764 O1820 1.325 . S
N1765 C1768 1.314 . S
N1765 C1769 1.279 . S
C1766 C1764 1.348 . S
C1766 C1768 1.353 . S
C1766 H1824 0.929 . S
C1767 C1764 1.356 . S
C1767 C1769 1.358 . S
C1767 H1825 0.930 . S
C1768 N1765 1.314 . S
C1768 C1766 1.353 . S
C1768 H1826 0.930 . S
C1769 N1765 1.279 . S
C1769 C1767 1.358 . S
C1769 H1827 0.930 . S
C1770 C1773 1.348 . S
C1770 C1774 1.356 . S
C1770 O1821 1.325 . S
C1771 N1772 1.279 . S
C1771 C1774 1.358 . S
C1771 H1828 0.930 . S
N1772 C1771 1.279 . S
N1772 C1775 1.314 . S
C1773 C1770 1.348 . S
C1773 C1775 1.353 . S
C1773 H1829 0.929 . S
C1774 C1770 1.356 . S
C1774 C1771 1.358 . S
C1774 H1830 0.930 . S
C1775 N1772 1.314 . S
C1775 C1773 1.353 . S
C1775 H1831 0.930 . S
C1776 N1777 1.314 . S
C1776 C1781 1.353 . S
C1776 H1782 0.930 . S
N1777 Li1760 1.990 . S
N1777 C1776 1.314 . S
N1777 C1779 1.279 . S
C1778 C1779 1.358 . S
C1778 C1780 1.356 . S
C1778 H1832 0.930 . S
C1779 N1777 1.279 . S
C1779 C1778 1.358 . S
C1779 H1783 0.930 . S
C1780 C1778 1.356 . S
C1780 C1781 1.348 . S
C1781 C1776 1.353 . S
C1781 C1780 1.348 . S
C1781 H1833 0.929 . S
H1782 C1776 0.930 . S
H1783 C1779 0.930 . S
C1784 N1785 1.314 . S
C1784 C1786 1.353 . S
C1784 H1790 0.930 . S
N1785 Li1761 1.990 . S
N1785 C1784 1.314 . S
N1785 C1788 1.279 . S
C1786 C1784 1.353 . S
C1786 C1789 1.348 . S
C1786 H1834 0.929 . S
C1787 C1788 1.358 . S
C1787 C1789 1.356 . S
C1787 H1835 0.930 . S
C1788 N1785 1.279 . S
C1788 C1787 1.358 . S
C1788 H1791 0.930 . S
C1789 C1786 1.348 . S
C1789 C1787 1.356 . S
H1790 C1784 0.930 . S
H1791 C1788 0.930 . S
C1792 C1794 1.348 . S
C1792 C1795 1.356 . S
C1792 O1822 1.325 . S
N1793 C1796 1.314 . S
N1793 C1797 1.279 . S
C1794 C1792 1.348 . S
C1794 C1796 1.353 . S
C1794 H1836 0.929 . S
C1795 C1792 1.356 . S
C1795 C1797 1.358 . S
C1795 H1837 0.930 . S
C1796 N1793 1.314 . S
C1796 C1794 1.353 . S
C1796 H1838 0.930 . S
C1797 N1793 1.279 . S
C1797 C1795 1.358 . S
C1797 H1839 0.930 . S
C1798 C1799 1.348 . S
C1798 C1800 1.356 . S
C1798 O1823 1.325 . S
C1799 C1798 1.348 . S
C1799 C1801 1.353 . S
C1799 H1840 0.929 . S
C1800 C1798 1.356 . S
C1800 C1802 1.358 . S
C1800 H1841 0.930 . S
C1801 C1799 1.353 . S
C1801 N1803 1.314 . S
C1801 H1842 0.930 . S
C1802 C1800 1.358 . S
C1802 N1803 1.279 . S
C1802 H1843 0.930 . S
N1803 C1801 1.314 . S
N1803 C1802 1.279 . S
C1804 C1806 1.353 . S
C1804 N1807 1.314 . S
C1804 H1810 0.930 . S
C1805 N1807 1.279 . S
C1805 C1808 1.358 . S
C1805 H1811 0.930 . S
C1806 C1804 1.353 . S
C1806 C1809 1.348 . S
C1806 H1844 0.929 . S
N1807 Li1762 1.990 . S
N1807 C1804 1.314 . S
N1807 C1805 1.279 . S
C1808 C1805 1.358 . S
C1808 C1809 1.356 . S
C1808 H1845 0.930 . S
C1809 C1806 1.348 . S
C1809 C1808 1.356 . S
H1810 C1804 0.930 . S
H1811 C1805 0.930 . S
C1812 N1813 1.314 . S
C1812 C1814 1.353 . S
C1812 H1818 0.930 . S
N1813 Li1763 1.990 . S
N1813 C1812 1.314 . S
N1813 C1816 1.279 . S
C1814 C1812 1.353 . S
C1814 C1817 1.348 . S
C1814 H1846 0.929 . S
C1815 C1816 1.358 . S
C1815 C1817 1.356 . S
C1815 H1847 0.930 . S
C1816 N1813 1.279 . S
C1816 C1815 1.358 . S
C1816 H1819 0.930 . S
C1817 C1814 1.348 . S
C1817 C1815 1.356 . S
H1818 C1812 0.930 . S
H1819 C1816 0.930 . S
O1820 Li1760 1.956 . S
O1820 Li1761 1.970 . S
O1820 Li1762 1.961 . S
O1820 C1764 1.325 . S
O1821 Li1760 1.970 . S
O1821 Li1761 1.956 . S
O1821 Li1763 1.961 . S
O1821 C1770 1.325 . S
O1822 Li1760 1.961 . S
O1822 Li1762 1.956 . S
O1822 Li1763 1.970 . S
O1822 C1792 1.325 . S
O1823 Li1761 1.961 . S
O1823 Li1762 1.970 . S
O1823 Li1763 1.956 . S
O1823 C1798 1.325 . S
H1824 C1766 0.929 . S
H1825 C1767 0.930 . S
H1826 C1768 0.930 . S
H1827 C1769 0.930 . S
H1828 C1771 0.930 . S
H1829 C1773 0.929 . S
H1830 C1774 0.930 . S
H1831 C1775 0.930 . S
H1832 C1778 0.930 . S
H1833 C1781 0.929 . S
H1834 C1786 0.929 . S
H1835 C1787 0.930 . S
H1836 C1794 0.929 . S
H1837 C1795 0.930 . S
H1838 C1796 0.930 . S
H1839 C1797 0.930 . S
H1840 C1799 0.929 . S
H1841 C1800 0.930 . S
H1842 C1801 0.930 . S
H1843 C1802 0.930 . S
H1844 C1806 0.929 . S
H1845 C1808 0.930 . S
H1846 C1814 0.929 . S
H1847 C1815 0.930 . S
Li1848 N1865 1.990 . S
Li1848 O1908 1.956 . S
Li1848 O1909 1.970 . S
Li1848 O1910 1.961 . S
Li1849 N1873 1.990 . S
Li1849 O1908 1.970 . S
Li1849 O1909 1.956 . S
Li1849 O1911 1.961 . S
Li1850 N1895 1.990 . S
Li1850 O1908 1.961 . S
Li1850 O1910 1.956 . S
Li1850 O1911 1.970 . S
Li1851 N1901 1.990 . S
Li1851 O1909 1.961 . S
Li1851 O1910 1.970 . S
Li1851 O1911 1.956 . S
C1852 C1854 1.348 . S
C1852 C1855 1.356 . S
C1852 O1908 1.325 . S
N1853 C1856 1.314 . S
N1853 C1857 1.279 . S
C1854 C1852 1.348 . S
C1854 C1856 1.353 . S
C1854 H1912 0.929 . S
C1855 C1852 1.356 . S
C1855 C1857 1.358 . S
C1855 H1913 0.930 . S
C1856 N1853 1.314 . S
C1856 C1854 1.353 . S
C1856 H1914 0.930 . S
C1857 N1853 1.279 . S
C1857 C1855 1.358 . S
C1857 H1915 0.930 . S
C1858 C1861 1.348 . S
C1858 C1862 1.356 . S
C1858 O1909 1.325 . S
C1859 N1860 1.279 . S
C1859 C1862 1.358 . S
C1859 H1916 0.930 . S
N1860 C1859 1.279 . S
N1860 C1863 1.314 . S
C1861 C1858 1.348 . S
C1861 C1863 1.353 . S
C1861 H1917 0.929 . S
C1862 C1858 1.356 . S
C1862 C1859 1.358 . S
C1862 H1918 0.930 . S
C1863 N1860 1.314 . S
C1863 C1861 1.353 . S
C1863 H1919 0.930 . S
C1864 N1865 1.314 . S
C1864 C1869 1.353 . S
C1864 H1870 0.930 . S
N1865 Li1848 1.990 . S
N1865 C1864 1.314 . S
N1865 C1867 1.279 . S
C1866 C1867 1.358 . S
C1866 C1868 1.356 . S
C1866 H1920 0.930 . S
C1867 N1865 1.279 . S
C1867 C1866 1.358 . S
C1867 H1871 0.930 . S
C1868 C1866 1.356 . S
C1868 C1869 1.348 . S
C1869 C1864 1.353 . S
C1869 C1868 1.348 . S
C1869 H1921 0.929 . S
H1870 C1864 0.930 . S
H1871 C1867 0.930 . S
C1872 N1873 1.314 . S
C1872 C1874 1.353 . S
C1872 H1878 0.930 . S
N1873 Li1849 1.990 . S
N1873 C1872 1.314 . S
N1873 C1876 1.279 . S
C1874 C1872 1.353 . S
C1874 C1877 1.348 . S
C1874 H1922 0.929 . S
C1875 C1876 1.358 . S
C1875 C1877 1.356 . S
C1875 H1923 0.930 . S
C1876 N1873 1.279 . S
C1876 C1875 1.358 . S
C1876 H1879 0.930 . S
C1877 C1874 1.348 . S
C1877 C1875 1.356 . S
H1878 C1872 0.930 . S
H1879 C1876 0.930 . S
C1880 C1882 1.348 . S
C1880 C1883 1.356 . S
C1880 O1910 1.325 . S
N1881 C1884 1.314 . S
N1881 C1885 1.279 . S
C1882 C1880 1.348 . S
C1882 C1884 1.353 . S
C1882 H1924 0.929 . S
C1883 C1880 1.356 . S
C1883 C1885 1.358 . S
C1883 H1925 0.930 . S
C1884 N1881 1.314 . S
C1884 C1882 1.353 . S
C1884 H1926 0.930 . S
C1885 N1881 1.279 . S
C1885 C1883 1.358 . S
C1885 H1927 0.930 . S
C1886 C1887 1.348 . S
C1886 C1888 1.356 . S
C1886 O1911 1.325 . S
C1887 C1886 1.348 . S
C1887 C1889 1.353 . S
C1887 H1928 0.929 . S
C1888 C1886 1.356 . S
C1888 C1890 1.358 . S
C1888 H1929 0.930 . S
C1889 C1887 1.353 . S
C1889 N1891 1.314 . S
C1889 H1930 0.930 . S
C1890 C1888 1.358 . S
C1890 N1891 1.279 . S
C1890 H1931 0.930 . S
N1891 C1889 1.314 . S
N1891 C1890 1.279 . S
C1892 C1894 1.353 . S
C1892 N1895 1.314 . S
C1892 H1898 0.930 . S
C1893 N1895 1.279 . S
C1893 C1896 1.358 . S
C1893 H1899 0.930 . S
C1894 C1892 1.353 . S
C1894 C1897 1.348 . S
C1894 H1932 0.929 . S
N1895 Li1850 1.990 . S
N1895 C1892 1.314 . S
N1895 C1893 1.279 . S
C1896 C1893 1.358 . S
C1896 C1897 1.356 . S
C1896 H1933 0.930 . S
C1897 C1894 1.348 . S
C1897 C1896 1.356 . S
H1898 C1892 0.930 . S
H1899 C1893 0.930 . S
C1900 N1901 1.314 . S
C1900 C1902 1.353 . S
C1900 H1906 0.930 . S
N1901 Li1851 1.990 . S
N1901 C1900 1.314 . S
N1901 C1904 1.279 . S
C1902 C1900 1.353 . S
C1902 C1905 1.348 . S
C1902 H1934 0.929 . S
C1903 C1904 1.358 . S
C1903 C1905 1.356 . S
C1903 H1935 0.930 . S
C1904 N1901 1.279 . S
C1904 C1903 1.358 . S
C1904 H1907 0.930 . S
C1905 C1902 1.348 . S
C1905 C1903 1.356 . S
H1906 C1900 0.930 . S
H1907 C1904 0.930 . S
O1908 Li1848 1.956 . S
O1908 Li1849 1.970 . S
O1908 Li1850 1.961 . S
O1908 C1852 1.325 . S
O1909 Li1848 1.970 . S
O1909 Li1849 1.956 . S
O1909 Li1851 1.961 . S
O1909 C1858 1.325 . S
O1910 Li1848 1.961 . S
O1910 Li1850 1.956 . S
O1910 Li1851 1.970 . S
O1910 C1880 1.325 . S
O1911 Li1849 1.961 . S
O1911 Li1850 1.970 . S
O1911 Li1851 1.956 . S
O1911 C1886 1.325 . S
H1912 C1854 0.929 . S
H1913 C1855 0.930 . S
H1914 C1856 0.930 . S
H1915 C1857 0.930 . S
H1916 C1859 0.930 . S
H1917 C1861 0.929 . S
H1918 C1862 0.930 . S
H1919 C1863 0.930 . S
H1920 C1866 0.930 . S
H1921 C1869 0.929 . S
H1922 C1874 0.929 . S
H1923 C1875 0.930 . S
H1924 C1882 0.929 . S
H1925 C1883 0.930 . S
H1926 C1884 0.930 . S
H1927 C1885 0.930 . S
H1928 C1887 0.929 . S
H1929 C1888 0.930 . S
H1930 C1889 0.930 . S
H1931 C1890 0.930 . S
H1932 C1894 0.929 . S
H1933 C1896 0.930 . S
H1934 C1902 0.929 . S
H1935 C1903 0.930 . S
Li1936 N1953 1.990 . S
Li1936 O1996 1.956 . S
Li1936 O1997 1.970 . S
Li1936 O1998 1.961 . S
Li1937 N1961 1.990 . S
Li1937 O1996 1.970 . S
Li1937 O1997 1.956 . S
Li1937 O1999 1.961 . S
Li1938 N1983 1.990 . S
Li1938 O1996 1.961 . S
Li1938 O1998 1.956 . S
Li1938 O1999 1.970 . S
Li1939 N1989 1.990 . S
Li1939 O1997 1.961 . S
Li1939 O1998 1.970 . S
Li1939 O1999 1.956 . S
C1940 C1942 1.348 . S
C1940 C1943 1.356 . S
C1940 O1996 1.325 . S
N1941 C1944 1.314 . S
N1941 C1945 1.279 . S
C1942 C1940 1.348 . S
C1942 C1944 1.353 . S
C1942 H2000 0.929 . S
C1943 C1940 1.356 . S
C1943 C1945 1.358 . S
C1943 H2001 0.930 . S
C1944 N1941 1.314 . S
C1944 C1942 1.353 . S
C1944 H2002 0.930 . S
C1945 N1941 1.279 . S
C1945 C1943 1.358 . S
C1945 H2003 0.930 . S
C1946 C1949 1.348 . S
C1946 C1950 1.356 . S
C1946 O1997 1.325 . S
C1947 N1948 1.279 . S
C1947 C1950 1.358 . S
C1947 H2004 0.930 . S
N1948 C1947 1.279 . S
N1948 C1951 1.314 . S
C1949 C1946 1.348 . S
C1949 C1951 1.353 . S
C1949 H2005 0.929 . S
C1950 C1946 1.356 . S
C1950 C1947 1.358 . S
C1950 H2006 0.930 . S
C1951 N1948 1.314 . S
C1951 C1949 1.353 . S
C1951 H2007 0.930 . S
C1952 N1953 1.314 . S
C1952 C1957 1.353 . S
C1952 H1958 0.930 . S
N1953 Li1936 1.990 . S
N1953 C1952 1.314 . S
N1953 C1955 1.279 . S
C1954 C1955 1.358 . S
C1954 C1956 1.356 . S
C1954 H2008 0.930 . S
C1955 N1953 1.279 . S
C1955 C1954 1.358 . S
C1955 H1959 0.930 . S
C1956 C1954 1.356 . S
C1956 C1957 1.348 . S
C1957 C1952 1.353 . S
C1957 C1956 1.348 . S
C1957 H2009 0.929 . S
H1958 C1952 0.930 . S
H1959 C1955 0.930 . S
C1960 N1961 1.314 . S
C1960 C1962 1.353 . S
C1960 H1966 0.930 . S
N1961 Li1937 1.990 . S
N1961 C1960 1.314 . S
N1961 C1964 1.279 . S
C1962 C1960 1.353 . S
C1962 C1965 1.348 . S
C1962 H2010 0.929 . S
C1963 C1964 1.358 . S
C1963 C1965 1.356 . S
C1963 H2011 0.930 . S
C1964 N1961 1.279 . S
C1964 C1963 1.358 . S
C1964 H1967 0.930 . S
C1965 C1962 1.348 . S
C1965 C1963 1.356 . S
H1966 C1960 0.930 . S
H1967 C1964 0.930 . S
C1968 C1970 1.348 . S
C1968 C1971 1.356 . S
C1968 O1998 1.325 . S
N1969 C1972 1.314 . S
N1969 C1973 1.279 . S
C1970 C1968 1.348 . S
C1970 C1972 1.353 . S
C1970 H2012 0.929 . S
C1971 C1968 1.356 . S
C1971 C1973 1.358 . S
C1971 H2013 0.930 . S
C1972 N1969 1.314 . S
C1972 C1970 1.353 . S
C1972 H2014 0.930 . S
C1973 N1969 1.279 . S
C1973 C1971 1.358 . S
C1973 H2015 0.930 . S
C1974 C1975 1.348 . S
C1974 C1976 1.356 . S
C1974 O1999 1.325 . S
C1975 C1974 1.348 . S
C1975 C1977 1.353 . S
C1975 H2016 0.929 . S
C1976 C1974 1.356 . S
C1976 C1978 1.358 . S
C1976 H2017 0.930 . S
C1977 C1975 1.353 . S
C1977 N1979 1.314 . S
C1977 H2018 0.930 . S
C1978 C1976 1.358 . S
C1978 N1979 1.279 . S
C1978 H2019 0.930 . S
N1979 C1977 1.314 . S
N1979 C1978 1.279 . S
C1980 C1982 1.353 . S
C1980 N1983 1.314 . S
C1980 H1986 0.930 . S
C1981 N1983 1.279 . S
C1981 C1984 1.358 . S
C1981 H1987 0.930 . S
C1982 C1980 1.353 . S
C1982 C1985 1.348 . S
C1982 H2020 0.929 . S
N1983 Li1938 1.990 . S
N1983 C1980 1.314 . S
N1983 C1981 1.279 . S
C1984 C1981 1.358 . S
C1984 C1985 1.356 . S
C1984 H2021 0.930 . S
C1985 C1982 1.348 . S
C1985 C1984 1.356 . S
H1986 C1980 0.930 . S
H1987 C1981 0.930 . S
C1988 N1989 1.314 . S
C1988 C1990 1.353 . S
C1988 H1994 0.930 . S
N1989 Li1939 1.990 . S
N1989 C1988 1.314 . S
N1989 C1992 1.279 . S
C1990 C1988 1.353 . S
C1990 C1993 1.348 . S
C1990 H2022 0.929 . S
C1991 C1992 1.358 . S
C1991 C1993 1.356 . S
C1991 H2023 0.930 . S
C1992 N1989 1.279 . S
C1992 C1991 1.358 . S
C1992 H1995 0.930 . S
C1993 C1990 1.348 . S
C1993 C1991 1.356 . S
H1994 C1988 0.930 . S
H1995 C1992 0.930 . S
O1996 Li1936 1.956 . S
O1996 Li1937 1.970 . S
O1996 Li1938 1.961 . S
O1996 C1940 1.325 . S
O1997 Li1936 1.970 . S
O1997 Li1937 1.956 . S
O1997 Li1939 1.961 . S
O1997 C1946 1.325 . S
O1998 Li1936 1.961 . S
O1998 Li1938 1.956 . S
O1998 Li1939 1.970 . S
O1998 C1968 1.325 . S
O1999 Li1937 1.961 . S
O1999 Li1938 1.970 . S
O1999 Li1939 1.956 . S
O1999 C1974 1.325 . S
H2000 C1942 0.929 . S
H2001 C1943 0.930 . S
H2002 C1944 0.930 . S
H2003 C1945 0.930 . S
H2004 C1947 0.930 . S
H2005 C1949 0.929 . S
H2006 C1950 0.930 . S
H2007 C1951 0.930 . S
H2008 C1954 0.930 . S
H2009 C1957 0.929 . S
H2010 C1962 0.929 . S
H2011 C1963 0.930 . S
H2012 C1970 0.929 . S
H2013 C1971 0.930 . S
H2014 C1972 0.930 . S
H2015 C1973 0.930 . S
H2016 C1975 0.929 . S
H2017 C1976 0.930 . S
H2018 C1977 0.930 . S
H2019 C1978 0.930 . S
H2020 C1982 0.929 . S
H2021 C1984 0.930 . S
H2022 C1990 0.929 . S
H2023 C1991 0.930 . S
Li2024 N2041 1.990 . S
Li2024 O2084 1.956 . S
Li2024 O2085 1.970 . S
Li2024 O2086 1.961 . S
Li2025 N2049 1.990 . S
Li2025 O2084 1.970 . S
Li2025 O2085 1.956 . S
Li2025 O2087 1.961 . S
Li2026 N2071 1.990 . S
Li2026 O2084 1.961 . S
Li2026 O2086 1.956 . S
Li2026 O2087 1.970 . S
Li2027 N2077 1.990 . S
Li2027 O2085 1.961 . S
Li2027 O2086 1.970 . S
Li2027 O2087 1.956 . S
C2028 C2030 1.348 . S
C2028 C2031 1.356 . S
C2028 O2084 1.325 . S
N2029 C2032 1.314 . S
N2029 C2033 1.279 . S
C2030 C2028 1.348 . S
C2030 C2032 1.353 . S
C2030 H2088 0.929 . S
C2031 C2028 1.356 . S
C2031 C2033 1.358 . S
C2031 H2089 0.930 . S
C2032 N2029 1.314 . S
C2032 C2030 1.353 . S
C2032 H2090 0.930 . S
C2033 N2029 1.279 . S
C2033 C2031 1.358 . S
C2033 H2091 0.930 . S
C2034 C2037 1.348 . S
C2034 C2038 1.356 . S
C2034 O2085 1.325 . S
C2035 N2036 1.279 . S
C2035 C2038 1.358 . S
C2035 H2092 0.930 . S
N2036 C2035 1.279 . S
N2036 C2039 1.314 . S
C2037 C2034 1.348 . S
C2037 C2039 1.353 . S
C2037 H2093 0.929 . S
C2038 C2034 1.356 . S
C2038 C2035 1.358 . S
C2038 H2094 0.930 . S
C2039 N2036 1.314 . S
C2039 C2037 1.353 . S
C2039 H2095 0.930 . S
C2040 N2041 1.314 . S
C2040 C2045 1.353 . S
C2040 H2046 0.930 . S
N2041 Li2024 1.990 . S
N2041 C2040 1.314 . S
N2041 C2043 1.279 . S
C2042 C2043 1.358 . S
C2042 C2044 1.356 . S
C2042 H2096 0.930 . S
C2043 N2041 1.279 . S
C2043 C2042 1.358 . S
C2043 H2047 0.930 . S
C2044 C2042 1.356 . S
C2044 C2045 1.348 . S
C2045 C2040 1.353 . S
C2045 C2044 1.348 . S
C2045 H2097 0.929 . S
H2046 C2040 0.930 . S
H2047 C2043 0.930 . S
C2048 N2049 1.314 . S
C2048 C2050 1.353 . S
C2048 H2054 0.930 . S
N2049 Li2025 1.990 . S
N2049 C2048 1.314 . S
N2049 C2052 1.279 . S
C2050 C2048 1.353 . S
C2050 C2053 1.348 . S
C2050 H2098 0.929 . S
C2051 C2052 1.358 . S
C2051 C2053 1.356 . S
C2051 H2099 0.930 . S
C2052 N2049 1.279 . S
C2052 C2051 1.358 . S
C2052 H2055 0.930 . S
C2053 C2050 1.348 . S
C2053 C2051 1.356 . S
H2054 C2048 0.930 . S
H2055 C2052 0.930 . S
C2056 C2058 1.348 . S
C2056 C2059 1.356 . S
C2056 O2086 1.325 . S
N2057 C2060 1.314 . S
N2057 C2061 1.279 . S
C2058 C2056 1.348 . S
C2058 C2060 1.353 . S
C2058 H2100 0.929 . S
C2059 C2056 1.356 . S
C2059 C2061 1.358 . S
C2059 H2101 0.930 . S
C2060 N2057 1.314 . S
C2060 C2058 1.353 . S
C2060 H2102 0.930 . S
C2061 N2057 1.279 . S
C2061 C2059 1.358 . S
C2061 H2103 0.930 . S
C2062 C2063 1.348 . S
C2062 C2064 1.356 . S
C2062 O2087 1.325 . S
C2063 C2062 1.348 . S
C2063 C2065 1.353 . S
C2063 H2104 0.929 . S
C2064 C2062 1.356 . S
C2064 C2066 1.358 . S
C2064 H2105 0.930 . S
C2065 C2063 1.353 . S
C2065 N2067 1.314 . S
C2065 H2106 0.930 . S
C2066 C2064 1.358 . S
C2066 N2067 1.279 . S
C2066 H2107 0.930 . S
N2067 C2065 1.314 . S
N2067 C2066 1.279 . S
C2068 C2070 1.353 . S
C2068 N2071 1.314 . S
C2068 H2074 0.930 . S
C2069 N2071 1.279 . S
C2069 C2072 1.358 . S
C2069 H2075 0.930 . S
C2070 C2068 1.353 . S
C2070 C2073 1.348 . S
C2070 H2108 0.929 . S
N2071 Li2026 1.990 . S
N2071 C2068 1.314 . S
N2071 C2069 1.279 . S
C2072 C2069 1.358 . S
C2072 C2073 1.356 . S
C2072 H2109 0.930 . S
C2073 C2070 1.348 . S
C2073 C2072 1.356 . S
H2074 C2068 0.930 . S
H2075 C2069 0.930 . S
C2076 N2077 1.314 . S
C2076 C2078 1.353 . S
C2076 H2082 0.930 . S
N2077 Li2027 1.990 . S
N2077 C2076 1.314 . S
N2077 C2080 1.279 . S
C2078 C2076 1.353 . S
C2078 C2081 1.348 . S
C2078 H2110 0.929 . S
C2079 C2080 1.358 . S
C2079 C2081 1.356 . S
C2079 H2111 0.930 . S
C2080 N2077 1.279 . S
C2080 C2079 1.358 . S
C2080 H2083 0.930 . S
C2081 C2078 1.348 . S
C2081 C2079 1.356 . S
H2082 C2076 0.930 . S
H2083 C2080 0.930 . S
O2084 Li2024 1.956 . S
O2084 Li2025 1.970 . S
O2084 Li2026 1.961 . S
O2084 C2028 1.325 . S
O2085 Li2024 1.970 . S
O2085 Li2025 1.956 . S
O2085 Li2027 1.961 . S
O2085 C2034 1.325 . S
O2086 Li2024 1.961 . S
O2086 Li2026 1.956 . S
O2086 Li2027 1.970 . S
O2086 C2056 1.325 . S
O2087 Li2025 1.961 . S
O2087 Li2026 1.970 . S
O2087 Li2027 1.956 . S
O2087 C2062 1.325 . S
H2088 C2030 0.929 . S
H2089 C2031 0.930 . S
H2090 C2032 0.930 . S
H2091 C2033 0.930 . S
H2092 C2035 0.930 . S
H2093 C2037 0.929 . S
H2094 C2038 0.930 . S
H2095 C2039 0.930 . S
H2096 C2042 0.930 . S
H2097 C2045 0.929 . S
H2098 C2050 0.929 . S
H2099 C2051 0.930 . S
H2100 C2058 0.929 . S
H2101 C2059 0.930 . S
H2102 C2060 0.930 . S
H2103 C2061 0.930 . S
H2104 C2063 0.929 . S
H2105 C2064 0.930 . S
H2106 C2065 0.930 . S
H2107 C2066 0.930 . S
H2108 C2070 0.929 . S
H2109 C2072 0.930 . S
H2110 C2078 0.929 . S
H2111 C2079 0.930 . S
Li2112 N2129 1.990 . S
Li2112 O2172 1.956 . S
Li2112 O2173 1.970 . S
Li2112 O2174 1.961 . S
Li2113 N2137 1.990 . S
Li2113 O2172 1.970 . S
Li2113 O2173 1.956 . S
Li2113 O2175 1.961 . S
Li2114 N2159 1.990 . S
Li2114 O2172 1.961 . S
Li2114 O2174 1.956 . S
Li2114 O2175 1.970 . S
Li2115 N2165 1.990 . S
Li2115 O2173 1.961 . S
Li2115 O2174 1.970 . S
Li2115 O2175 1.956 . S
C2116 C2118 1.348 . S
C2116 C2119 1.356 . S
C2116 O2172 1.325 . S
N2117 C2120 1.314 . S
N2117 C2121 1.279 . S
C2118 C2116 1.348 . S
C2118 C2120 1.353 . S
C2118 H2176 0.929 . S
C2119 C2116 1.356 . S
C2119 C2121 1.358 . S
C2119 H2177 0.930 . S
C2120 N2117 1.314 . S
C2120 C2118 1.353 . S
C2120 H2178 0.930 . S
C2121 N2117 1.279 . S
C2121 C2119 1.358 . S
C2121 H2179 0.930 . S
C2122 C2125 1.348 . S
C2122 C2126 1.356 . S
C2122 O2173 1.325 . S
C2123 N2124 1.279 . S
C2123 C2126 1.358 . S
C2123 H2180 0.930 . S
N2124 C2123 1.279 . S
N2124 C2127 1.314 . S
C2125 C2122 1.348 . S
C2125 C2127 1.353 . S
C2125 H2181 0.929 . S
C2126 C2122 1.356 . S
C2126 C2123 1.358 . S
C2126 H2182 0.930 . S
C2127 N2124 1.314 . S
C2127 C2125 1.353 . S
C2127 H2183 0.930 . S
C2128 N2129 1.314 . S
C2128 C2133 1.353 . S
C2128 H2134 0.930 . S
N2129 Li2112 1.990 . S
N2129 C2128 1.314 . S
N2129 C2131 1.279 . S
C2130 C2131 1.358 . S
C2130 C2132 1.356 . S
C2130 H2184 0.930 . S
C2131 N2129 1.279 . S
C2131 C2130 1.358 . S
C2131 H2135 0.930 . S
C2132 C2130 1.356 . S
C2132 C2133 1.348 . S
C2133 C2128 1.353 . S
C2133 C2132 1.348 . S
C2133 H2185 0.929 . S
H2134 C2128 0.930 . S
H2135 C2131 0.930 . S
C2136 N2137 1.314 . S
C2136 C2138 1.353 . S
C2136 H2142 0.930 . S
N2137 Li2113 1.990 . S
N2137 C2136 1.314 . S
N2137 C2140 1.279 . S
C2138 C2136 1.353 . S
C2138 C2141 1.348 . S
C2138 H2186 0.929 . S
C2139 C2140 1.358 . S
C2139 C2141 1.356 . S
C2139 H2187 0.930 . S
C2140 N2137 1.279 . S
C2140 C2139 1.358 . S
C2140 H2143 0.930 . S
C2141 C2138 1.348 . S
C2141 C2139 1.356 . S
H2142 C2136 0.930 . S
H2143 C2140 0.930 . S
C2144 C2146 1.348 . S
C2144 C2147 1.356 . S
C2144 O2174 1.325 . S
N2145 C2148 1.314 . S
N2145 C2149 1.279 . S
C2146 C2144 1.348 . S
C2146 C2148 1.353 . S
C2146 H2188 0.929 . S
C2147 C2144 1.356 . S
C2147 C2149 1.358 . S
C2147 H2189 0.930 . S
C2148 N2145 1.314 . S
C2148 C2146 1.353 . S
C2148 H2190 0.930 . S
C2149 N2145 1.279 . S
C2149 C2147 1.358 . S
C2149 H2191 0.930 . S
C2150 C2151 1.348 . S
C2150 C2152 1.356 . S
C2150 O2175 1.325 . S
C2151 C2150 1.348 . S
C2151 C2153 1.353 . S
C2151 H2192 0.929 . S
C2152 C2150 1.356 . S
C2152 C2154 1.358 . S
C2152 H2193 0.930 . S
C2153 C2151 1.353 . S
C2153 N2155 1.314 . S
C2153 H2194 0.930 . S
C2154 C2152 1.358 . S
C2154 N2155 1.279 . S
C2154 H2195 0.930 . S
N2155 C2153 1.314 . S
N2155 C2154 1.279 . S
C2156 C2158 1.353 . S
C2156 N2159 1.314 . S
C2156 H2162 0.930 . S
C2157 N2159 1.279 . S
C2157 C2160 1.358 . S
C2157 H2163 0.930 . S
C2158 C2156 1.353 . S
C2158 C2161 1.348 . S
C2158 H2196 0.929 . S
N2159 Li2114 1.990 . S
N2159 C2156 1.314 . S
N2159 C2157 1.279 . S
C2160 C2157 1.358 . S
C2160 C2161 1.356 . S
C2160 H2197 0.930 . S
C2161 C2158 1.348 . S
C2161 C2160 1.356 . S
H2162 C2156 0.930 . S
H2163 C2157 0.930 . S
C2164 N2165 1.314 . S
C2164 C2166 1.353 . S
C2164 H2170 0.930 . S
N2165 Li2115 1.990 . S
N2165 C2164 1.314 . S
N2165 C2168 1.279 . S
C2166 C2164 1.353 . S
C2166 C2169 1.348 . S
C2166 H2198 0.929 . S
C2167 C2168 1.358 . S
C2167 C2169 1.356 . S
C2167 H2199 0.930 . S
C2168 N2165 1.279 . S
C2168 C2167 1.358 . S
C2168 H2171 0.930 . S
C2169 C2166 1.348 . S
C2169 C2167 1.356 . S
H2170 C2164 0.930 . S
H2171 C2168 0.930 . S
O2172 Li2112 1.956 . S
O2172 Li2113 1.970 . S
O2172 Li2114 1.961 . S
O2172 C2116 1.325 . S
O2173 Li2112 1.970 . S
O2173 Li2113 1.956 . S
O2173 Li2115 1.961 . S
O2173 C2122 1.325 . S
O2174 Li2112 1.961 . S
O2174 Li2114 1.956 . S
O2174 Li2115 1.970 . S
O2174 C2144 1.325 . S
O2175 Li2113 1.961 . S
O2175 Li2114 1.970 . S
O2175 Li2115 1.956 . S
O2175 C2150 1.325 . S
H2176 C2118 0.929 . S
H2177 C2119 0.930 . S
H2178 C2120 0.930 . S
H2179 C2121 0.930 . S
H2180 C2123 0.930 . S
H2181 C2125 0.929 . S
H2182 C2126 0.930 . S
H2183 C2127 0.930 . S
H2184 C2130 0.930 . S
H2185 C2133 0.929 . S
H2186 C2138 0.929 . S
H2187 C2139 0.930 . S
H2188 C2146 0.929 . S
H2189 C2147 0.930 . S
H2190 C2148 0.930 . S
H2191 C2149 0.930 . S
H2192 C2151 0.929 . S
H2193 C2152 0.930 . S
H2194 C2153 0.930 . S
H2195 C2154 0.930 . S
H2196 C2158 0.929 . S
H2197 C2160 0.930 . S
H2198 C2166 0.929 . S
H2199 C2167 0.930 . S
Li2200 N2217 1.990 . S
Li2200 O2260 1.956 . S
Li2200 O2261 1.970 . S
Li2200 O2262 1.961 . S
Li2201 N2225 1.990 . S
Li2201 O2260 1.970 . S
Li2201 O2261 1.956 . S
Li2201 O2263 1.961 . S
Li2202 N2247 1.990 . S
Li2202 O2260 1.961 . S
Li2202 O2262 1.956 . S
Li2202 O2263 1.970 . S
Li2203 N2253 1.990 . S
Li2203 O2261 1.961 . S
Li2203 O2262 1.970 . S
Li2203 O2263 1.956 . S
C2204 C2206 1.348 . S
C2204 C2207 1.356 . S
C2204 O2260 1.325 . S
N2205 C2208 1.314 . S
N2205 C2209 1.279 . S
C2206 C2204 1.348 . S
C2206 C2208 1.353 . S
C2206 H2264 0.929 . S
C2207 C2204 1.356 . S
C2207 C2209 1.358 . S
C2207 H2265 0.930 . S
C2208 N2205 1.314 . S
C2208 C2206 1.353 . S
C2208 H2266 0.930 . S
C2209 N2205 1.279 . S
C2209 C2207 1.358 . S
C2209 H2267 0.930 . S
C2210 C2213 1.348 . S
C2210 C2214 1.356 . S
C2210 O2261 1.325 . S
C2211 N2212 1.279 . S
C2211 C2214 1.358 . S
C2211 H2268 0.930 . S
N2212 C2211 1.279 . S
N2212 C2215 1.314 . S
C2213 C2210 1.348 . S
C2213 C2215 1.353 . S
C2213 H2269 0.929 . S
C2214 C2210 1.356 . S
C2214 C2211 1.358 . S
C2214 H2270 0.930 . S
C2215 N2212 1.314 . S
C2215 C2213 1.353 . S
C2215 H2271 0.930 . S
C2216 N2217 1.314 . S
C2216 C2221 1.353 . S
C2216 H2222 0.930 . S
N2217 Li2200 1.990 . S
N2217 C2216 1.314 . S
N2217 C2219 1.279 . S
C2218 C2219 1.358 . S
C2218 C2220 1.356 . S
C2218 H2272 0.930 . S
C2219 N2217 1.279 . S
C2219 C2218 1.358 . S
C2219 H2223 0.930 . S
C2220 C2218 1.356 . S
C2220 C2221 1.348 . S
C2221 C2216 1.353 . S
C2221 C2220 1.348 . S
C2221 H2273 0.929 . S
H2222 C2216 0.930 . S
H2223 C2219 0.930 . S
C2224 N2225 1.314 . S
C2224 C2226 1.353 . S
C2224 H2230 0.930 . S
N2225 Li2201 1.990 . S
N2225 C2224 1.314 . S
N2225 C2228 1.279 . S
C2226 C2224 1.353 . S
C2226 C2229 1.348 . S
C2226 H2274 0.929 . S
C2227 C2228 1.358 . S
C2227 C2229 1.356 . S
C2227 H2275 0.930 . S
C2228 N2225 1.279 . S
C2228 C2227 1.358 . S
C2228 H2231 0.930 . S
C2229 C2226 1.348 . S
C2229 C2227 1.356 . S
H2230 C2224 0.930 . S
H2231 C2228 0.930 . S
C2232 C2234 1.348 . S
C2232 C2235 1.356 . S
C2232 O2262 1.325 . S
N2233 C2236 1.314 . S
N2233 C2237 1.279 . S
C2234 C2232 1.348 . S
C2234 C2236 1.353 . S
C2234 H2276 0.929 . S
C2235 C2232 1.356 . S
C2235 C2237 1.358 . S
C2235 H2277 0.930 . S
C2236 N2233 1.314 . S
C2236 C2234 1.353 . S
C2236 H2278 0.930 . S
C2237 N2233 1.279 . S
C2237 C2235 1.358 . S
C2237 H2279 0.930 . S
C2238 C2239 1.348 . S
C2238 C2240 1.356 . S
C2238 O2263 1.325 . S
C2239 C2238 1.348 . S
C2239 C2241 1.353 . S
C2239 H2280 0.929 . S
C2240 C2238 1.356 . S
C2240 C2242 1.358 . S
C2240 H2281 0.930 . S
C2241 C2239 1.353 . S
C2241 N2243 1.314 . S
C2241 H2282 0.930 . S
C2242 C2240 1.358 . S
C2242 N2243 1.279 . S
C2242 H2283 0.930 . S
N2243 C2241 1.314 . S
N2243 C2242 1.279 . S
C2244 C2246 1.353 . S
C2244 N2247 1.314 . S
C2244 H2250 0.930 . S
C2245 N2247 1.279 . S
C2245 C2248 1.358 . S
C2245 H2251 0.930 . S
C2246 C2244 1.353 . S
C2246 C2249 1.348 . S
C2246 H2284 0.929 . S
N2247 Li2202 1.990 . S
N2247 C2244 1.314 . S
N2247 C2245 1.279 . S
C2248 C2245 1.358 . S
C2248 C2249 1.356 . S
C2248 H2285 0.930 . S
C2249 C2246 1.348 . S
C2249 C2248 1.356 . S
H2250 C2244 0.930 . S
H2251 C2245 0.930 . S
C2252 N2253 1.314 . S
C2252 C2254 1.353 . S
C2252 H2258 0.930 . S
N2253 Li2203 1.990 . S
N2253 C2252 1.314 . S
N2253 C2256 1.279 . S
C2254 C2252 1.353 . S
C2254 C2257 1.348 . S
C2254 H2286 0.929 . S
C2255 C2256 1.358 . S
C2255 C2257 1.356 . S
C2255 H2287 0.930 . S
C2256 N2253 1.279 . S
C2256 C2255 1.358 . S
C2256 H2259 0.930 . S
C2257 C2254 1.348 . S
C2257 C2255 1.356 . S
H2258 C2252 0.930 . S
H2259 C2256 0.930 . S
O2260 Li2200 1.956 . S
O2260 Li2201 1.970 . S
O2260 Li2202 1.961 . S
O2260 C2204 1.325 . S
O2261 Li2200 1.970 . S
O2261 Li2201 1.956 . S
O2261 Li2203 1.961 . S
O2261 C2210 1.325 . S
O2262 Li2200 1.961 . S
O2262 Li2202 1.956 . S
O2262 Li2203 1.970 . S
O2262 C2232 1.325 . S
O2263 Li2201 1.961 . S
O2263 Li2202 1.970 . S
O2263 Li2203 1.956 . S
O2263 C2238 1.325 . S
H2264 C2206 0.929 . S
H2265 C2207 0.930 . S
H2266 C2208 0.930 . S
H2267 C2209 0.930 . S
H2268 C2211 0.930 . S
H2269 C2213 0.929 . S
H2270 C2214 0.930 . S
H2271 C2215 0.930 . S
H2272 C2218 0.930 . S
H2273 C2221 0.929 . S
H2274 C2226 0.929 . S
H2275 C2227 0.930 . S
H2276 C2234 0.929 . S
H2277 C2235 0.930 . S
H2278 C2236 0.930 . S
H2279 C2237 0.930 . S
H2280 C2239 0.929 . S
H2281 C2240 0.930 . S
H2282 C2241 0.930 . S
H2283 C2242 0.930 . S
H2284 C2246 0.929 . S
H2285 C2248 0.930 . S
H2286 C2254 0.929 . S
H2287 C2255 0.930 . S
Li2288 N2305 1.990 . S
Li2288 O2348 1.956 . S
Li2288 O2349 1.970 . S
Li2288 O2350 1.961 . S
Li2289 N2313 1.990 . S
Li2289 O2348 1.970 . S
Li2289 O2349 1.956 . S
Li2289 O2351 1.961 . S
Li2290 N2335 1.990 . S
Li2290 O2348 1.961 . S
Li2290 O2350 1.956 . S
Li2290 O2351 1.970 . S
Li2291 N2341 1.990 . S
Li2291 O2349 1.961 . S
Li2291 O2350 1.970 . S
Li2291 O2351 1.956 . S
C2292 C2294 1.348 . S
C2292 C2295 1.356 . S
C2292 O2348 1.325 . S
N2293 C2296 1.314 . S
N2293 C2297 1.279 . S
C2294 C2292 1.348 . S
C2294 C2296 1.353 . S
C2294 H2352 0.929 . S
C2295 C2292 1.356 . S
C2295 C2297 1.358 . S
C2295 H2353 0.930 . S
C2296 N2293 1.314 . S
C2296 C2294 1.353 . S
C2296 H2354 0.930 . S
C2297 N2293 1.279 . S
C2297 C2295 1.358 . S
C2297 H2355 0.930 . S
C2298 C2301 1.348 . S
C2298 C2302 1.356 . S
C2298 O2349 1.325 . S
C2299 N2300 1.279 . S
C2299 C2302 1.358 . S
C2299 H2356 0.950 . S
N2300 C2299 1.279 . S
N2300 C2303 1.314 . S
C2301 C2298 1.348 . S
C2301 C2303 1.353 . S
C2301 H2357 0.929 . S
C2302 C2298 1.356 . S
C2302 C2299 1.358 . S
C2302 H2358 0.930 . S
C2303 N2300 1.314 . S
C2303 C2301 1.353 . S
C2303 H2359 0.930 . S
C2304 N2305 1.314 . S
C2304 C2309 1.353 . S
C2304 H2310 0.930 . S
N2305 Li2288 1.990 . S
N2305 C2304 1.314 . S
N2305 C2307 1.279 . S
C2306 C2307 1.358 . S
C2306 C2308 1.356 . S
C2306 H2360 0.930 . S
C2307 N2305 1.279 . S
C2307 C2306 1.358 . S
C2307 H2311 0.930 . S
C2308 C2306 1.356 . S
C2308 C2309 1.348 . S
C2309 C2304 1.353 . S
C2309 C2308 1.348 . S
C2309 H2361 0.929 . S
H2310 C2304 0.930 . S
H2311 C2307 0.930 . S
C2312 N2313 1.314 . S
C2312 C2314 1.353 . S
C2312 H2318 0.930 . S
N2313 Li2289 1.990 . S
N2313 C2312 1.314 . S
N2313 C2316 1.279 . S
C2314 C2312 1.353 . S
C2314 C2317 1.348 . S
C2314 H2362 0.929 . S
C2315 C2316 1.358 . S
C2315 C2317 1.356 . S
C2315 H2363 0.930 . S
C2316 N2313 1.279 . S
C2316 C2315 1.358 . S
C2316 H2319 0.930 . S
C2317 C2314 1.348 . S
C2317 C2315 1.356 . S
H2318 C2312 0.930 . S
H2319 C2316 0.930 . S
C2320 C2322 1.348 . S
C2320 C2323 1.356 . S
C2320 O2350 1.325 . S
N2321 C2324 1.314 . S
N2321 C2325 1.279 . S
C2322 C2320 1.348 . S
C2322 C2324 1.353 . S
C2322 H2364 0.929 . S
C2323 C2320 1.356 . S
C2323 C2325 1.358 . S
C2323 H2365 0.930 . S
C2324 N2321 1.314 . S
C2324 C2322 1.353 . S
C2324 H2366 0.930 . S
C2325 N2321 1.279 . S
C2325 C2323 1.358 . S
C2325 H2367 0.930 . S
C2326 C2327 1.348 . S
C2326 C2328 1.356 . S
C2326 O2351 1.325 . S
C2327 C2326 1.348 . S
C2327 C2329 1.353 . S
C2327 H2368 0.929 . S
C2328 C2326 1.356 . S
C2328 C2330 1.358 . S
C2328 H2369 0.930 . S
C2329 C2327 1.353 . S
C2329 N2331 1.314 . S
C2329 H2370 0.930 . S
C2330 C2328 1.358 . S
C2330 N2331 1.279 . S
C2330 H2371 0.930 . S
N2331 C2329 1.314 . S
N2331 C2330 1.279 . S
C2332 C2334 1.353 . S
C2332 N2335 1.314 . S
C2332 H2338 0.930 . S
C2333 N2335 1.279 . S
C2333 C2336 1.358 . S
C2333 H2339 0.930 . S
C2334 C2332 1.353 . S
C2334 C2337 1.348 . S
C2334 H2372 0.929 . S
N2335 Li2290 1.990 . S
N2335 C2332 1.314 . S
N2335 C2333 1.279 . S
C2336 C2333 1.358 . S
C2336 C2337 1.356 . S
C2336 H2373 0.930 . S
C2337 C2334 1.348 . S
C2337 C2336 1.356 . S
H2338 C2332 0.930 . S
H2339 C2333 0.930 . S
C2340 N2341 1.314 . S
C2340 C2342 1.353 . S
C2340 H2346 0.930 . S
N2341 Li2291 1.990 . S
N2341 C2340 1.314 . S
N2341 C2344 1.279 . S
C2342 C2340 1.353 . S
C2342 C2345 1.348 . S
C2342 H2374 0.929 . S
C2343 C2344 1.358 . S
C2343 C2345 1.356 . S
C2343 H2375 0.930 . S
C2344 N2341 1.279 . S
C2344 C2343 1.358 . S
C2344 H2347 0.930 . S
C2345 C2342 1.348 . S
C2345 C2343 1.356 . S
H2346 C2340 0.930 . S
H2347 C2344 0.930 . S
O2348 Li2288 1.956 . S
O2348 Li2289 1.970 . S
O2348 Li2290 1.961 . S
O2348 C2292 1.325 . S
O2349 Li2288 1.970 . S
O2349 Li2289 1.956 . S
O2349 Li2291 1.961 . S
O2349 C2298 1.325 . S
O2350 Li2288 1.961 . S
O2350 Li2290 1.956 . S
O2350 Li2291 1.970 . S
O2350 C2320 1.325 . S
O2351 Li2289 1.961 . S
O2351 Li2290 1.970 . S
O2351 Li2291 1.956 . S
O2351 C2326 1.325 . S
H2352 C2294 0.929 . S
H2353 C2295 0.930 . S
H2354 C2296 0.930 . S
H2355 C2297 0.930 . S
H2356 C2299 0.950 . S
H2357 C2301 0.929 . S
H2358 C2302 0.930 . S
H2359 C2303 0.930 . S
H2360 C2306 0.930 . S
H2361 C2309 0.929 . S
H2362 C2314 0.929 . S
H2363 C2315 0.930 . S
H2364 C2322 0.929 . S
H2365 C2323 0.930 . S
H2366 C2324 0.930 . S
H2367 C2325 0.930 . S
H2368 C2327 0.929 . S
H2369 C2328 0.930 . S
H2370 C2329 0.930 . S
H2371 C2330 0.930 . S
H2372 C2334 0.929 . S
H2373 C2336 0.930 . S
H2374 C2342 0.929 . S
H2375 C2343 0.930 . S
Li2376 N2393 1.990 . S
Li2376 O2436 1.956 . S
Li2376 O2437 1.970 . S
Li2376 O2438 1.961 . S
Li2377 N2401 1.990 . S
Li2377 O2436 1.970 . S
Li2377 O2437 1.956 . S
Li2377 O2439 1.961 . S
Li2378 N2423 1.990 . S
Li2378 O2436 1.961 . S
Li2378 O2438 1.956 . S
Li2378 O2439 1.970 . S
Li2379 N2429 1.990 . S
Li2379 O2437 1.961 . S
Li2379 O2438 1.970 . S
Li2379 O2439 1.956 . S
C2380 C2382 1.348 . S
C2380 C2383 1.356 . S
C2380 O2436 1.325 . S
N2381 C2384 1.314 . S
N2381 C2385 1.279 . S
C2382 C2380 1.348 . S
C2382 C2384 1.353 . S
C2382 H2440 0.929 . S
C2383 C2380 1.356 . S
C2383 C2385 1.358 . S
C2383 H2441 0.930 . S
C2384 N2381 1.314 . S
C2384 C2382 1.353 . S
C2384 H2442 0.930 . S
C2385 N2381 1.279 . S
C2385 C2383 1.358 . S
C2385 H2443 0.930 . S
C2386 C2389 1.348 . S
C2386 C2390 1.356 . S
C2386 O2437 1.325 . S
C2387 N2388 1.279 . S
C2387 C2390 1.358 . S
C2387 H2444 0.930 . S
N2388 C2387 1.279 . S
N2388 C2391 1.314 . S
C2389 C2386 1.348 . S
C2389 C2391 1.353 . S
C2389 H2445 0.929 . S
C2390 C2386 1.356 . S
C2390 C2387 1.358 . S
C2390 H2446 0.930 . S
C2391 N2388 1.314 . S
C2391 C2389 1.353 . S
C2391 H2447 0.930 . S
C2392 N2393 1.314 . S
C2392 C2397 1.353 . S
C2392 H2398 0.930 . S
N2393 Li2376 1.990 . S
N2393 C2392 1.314 . S
N2393 C2395 1.279 . S
C2394 C2395 1.358 . S
C2394 C2396 1.356 . S
C2394 H2448 0.930 . S
C2395 N2393 1.279 . S
C2395 C2394 1.358 . S
C2395 H2399 0.930 . S
C2396 C2394 1.356 . S
C2396 C2397 1.348 . S
C2397 C2392 1.353 . S
C2397 C2396 1.348 . S
C2397 H2449 0.929 . S
H2398 C2392 0.930 . S
H2399 C2395 0.930 . S
C2400 N2401 1.314 . S
C2400 C2402 1.353 . S
C2400 H2406 0.930 . S
N2401 Li2377 1.990 . S
N2401 C2400 1.314 . S
N2401 C2404 1.279 . S
C2402 C2400 1.353 . S
C2402 C2405 1.348 . S
C2402 H2450 0.929 . S
C2403 C2404 1.358 . S
C2403 C2405 1.356 . S
C2403 H2451 0.930 . S
C2404 N2401 1.279 . S
C2404 C2403 1.358 . S
C2404 H2407 0.930 . S
C2405 C2402 1.348 . S
C2405 C2403 1.356 . S
H2406 C2400 0.930 . S
H2407 C2404 0.930 . S
C2408 C2410 1.348 . S
C2408 C2411 1.356 . S
C2408 O2438 1.325 . S
N2409 C2412 1.314 . S
N2409 C2413 1.279 . S
C2410 C2408 1.348 . S
C2410 C2412 1.353 . S
C2410 H2452 0.929 . S
C2411 C2408 1.356 . S
C2411 C2413 1.358 . S
C2411 H2453 0.930 . S
C2412 N2409 1.314 . S
C2412 C2410 1.353 . S
C2412 H2454 0.930 . S
C2413 N2409 1.279 . S
C2413 C2411 1.358 . S
C2413 H2455 0.930 . S
C2414 C2415 1.348 . S
C2414 C2416 1.356 . S
C2414 O2439 1.325 . S
C2415 C2414 1.348 . S
C2415 C2417 1.353 . S
C2415 H2456 0.929 . S
C2416 C2414 1.356 . S
C2416 C2418 1.358 . S
C2416 H2457 0.930 . S
C2417 C2415 1.353 . S
C2417 N2419 1.314 . S
C2417 H2458 0.930 . S
C2418 C2416 1.358 . S
C2418 N2419 1.279 . S
C2418 H2459 0.930 . S
N2419 C2417 1.314 . S
N2419 C2418 1.279 . S
C2420 C2422 1.353 . S
C2420 N2423 1.314 . S
C2420 H2426 0.930 . S
C2421 N2423 1.279 . S
C2421 C2424 1.358 . S
C2421 H2427 0.930 . S
C2422 C2420 1.353 . S
C2422 C2425 1.348 . S
C2422 H2460 0.929 . S
N2423 Li2378 1.990 . S
N2423 C2420 1.314 . S
N2423 C2421 1.279 . S
C2424 C2421 1.358 . S
C2424 C2425 1.356 . S
C2424 H2461 0.930 . S
C2425 C2422 1.348 . S
C2425 C2424 1.356 . S
H2426 C2420 0.930 . S
H2427 C2421 0.930 . S
C2428 N2429 1.314 . S
C2428 C2430 1.353 . S
C2428 H2434 0.930 . S
N2429 Li2379 1.990 . S
N2429 C2428 1.314 . S
N2429 C2432 1.279 . S
C2430 C2428 1.353 . S
C2430 C2433 1.348 . S
C2430 H2462 0.929 . S
C2431 C2432 1.358 . S
C2431 C2433 1.356 . S
C2431 H2463 0.930 . S
C2432 N2429 1.279 . S
C2432 C2431 1.358 . S
C2432 H2435 0.930 . S
C2433 C2430 1.348 . S
C2433 C2431 1.356 . S
H2434 C2428 0.930 . S
H2435 C2432 0.930 . S
O2436 Li2376 1.956 . S
O2436 Li2377 1.970 . S
O2436 Li2378 1.961 . S
O2436 C2380 1.325 . S
O2437 Li2376 1.970 . S
O2437 Li2377 1.956 . S
O2437 Li2379 1.961 . S
O2437 C2386 1.325 . S
O2438 Li2376 1.961 . S
O2438 Li2378 1.956 . S
O2438 Li2379 1.970 . S
O2438 C2408 1.325 . S
O2439 Li2377 1.961 . S
O2439 Li2378 1.970 . S
O2439 Li2379 1.956 . S
O2439 C2414 1.325 . S
H2440 C2382 0.929 . S
H2441 C2383 0.930 . S
H2442 C2384 0.930 . S
H2443 C2385 0.930 . S
H2444 C2387 0.930 . S
H2445 C2389 0.929 . S
H2446 C2390 0.930 . S
H2447 C2391 0.930 . S
H2448 C2394 0.930 . S
H2449 C2397 0.929 . S
H2450 C2402 0.929 . S
H2451 C2403 0.930 . S
H2452 C2410 0.929 . S
H2453 C2411 0.930 . S
H2454 C2412 0.930 . S
H2455 C2413 0.930 . S
H2456 C2415 0.929 . S
H2457 C2416 0.930 . S
H2458 C2417 0.930 . S
H2459 C2418 0.930 . S
H2460 C2422 0.929 . S
H2461 C2424 0.930 . S
H2462 C2430 0.929 . S
H2463 C2431 0.930 . S
Li2464 N2481 1.990 . S
Li2464 O2524 1.956 . S
Li2464 O2525 1.970 . S
Li2464 O2526 1.961 . S
Li2465 N2489 1.990 . S
Li2465 O2524 1.970 . S
Li2465 O2525 1.956 . S
Li2465 O2527 1.961 . S
Li2466 N2511 1.990 . S
Li2466 O2524 1.961 . S
Li2466 O2526 1.956 . S
Li2466 O2527 1.970 . S
Li2467 N2517 1.990 . S
Li2467 O2525 1.961 . S
Li2467 O2526 1.970 . S
Li2467 O2527 1.956 . S
C2468 C2470 1.348 . S
C2468 C2471 1.356 . S
C2468 O2524 1.325 . S
N2469 C2472 1.314 . S
N2469 C2473 1.279 . S
C2470 C2468 1.348 . S
C2470 C2472 1.353 . S
C2470 H2528 0.929 . S
C2471 C2468 1.356 . S
C2471 C2473 1.358 . S
C2471 H2529 0.930 . S
C2472 N2469 1.314 . S
C2472 C2470 1.353 . S
C2472 H2530 0.930 . S
C2473 N2469 1.279 . S
C2473 C2471 1.358 . S
C2473 H2531 0.930 . S
C2474 C2477 1.348 . S
C2474 C2478 1.356 . S
C2474 O2525 1.325 . S
C2475 N2476 1.279 . S
C2475 C2478 1.358 . S
C2475 H2532 0.930 . S
N2476 C2475 1.279 . S
N2476 C2479 1.314 . S
C2477 C2474 1.348 . S
C2477 C2479 1.353 . S
C2477 H2533 0.929 . S
C2478 C2474 1.356 . S
C2478 C2475 1.358 . S
C2478 H2534 0.930 . S
C2479 N2476 1.314 . S
C2479 C2477 1.353 . S
C2479 H2535 0.930 . S
C2480 N2481 1.314 . S
C2480 C2485 1.353 . S
C2480 H2486 0.930 . S
N2481 Li2464 1.990 . S
N2481 C2480 1.314 . S
N2481 C2483 1.279 . S
C2482 C2483 1.358 . S
C2482 C2484 1.356 . S
C2482 H2536 0.930 . S
C2483 N2481 1.279 . S
C2483 C2482 1.358 . S
C2483 H2487 0.930 . S
C2484 C2482 1.356 . S
C2484 C2485 1.348 . S
C2485 C2480 1.353 . S
C2485 C2484 1.348 . S
C2485 H2537 0.929 . S
H2486 C2480 0.930 . S
H2487 C2483 0.930 . S
C2488 N2489 1.314 . S
C2488 C2490 1.353 . S
C2488 H2494 0.930 . S
N2489 Li2465 1.990 . S
N2489 C2488 1.314 . S
N2489 C2492 1.279 . S
C2490 C2488 1.353 . S
C2490 C2493 1.348 . S
C2490 H2538 0.929 . S
C2491 C2492 1.358 . S
C2491 C2493 1.356 . S
C2491 H2539 0.930 . S
C2492 N2489 1.279 . S
C2492 C2491 1.358 . S
C2492 H2495 0.930 . S
C2493 C2490 1.348 . S
C2493 C2491 1.356 . S
H2494 C2488 0.930 . S
H2495 C2492 0.930 . S
C2496 C2498 1.348 . S
C2496 C2499 1.356 . S
C2496 O2526 1.325 . S
N2497 C2500 1.314 . S
N2497 C2501 1.279 . S
C2498 C2496 1.348 . S
C2498 C2500 1.353 . S
C2498 H2540 0.929 . S
C2499 C2496 1.356 . S
C2499 C2501 1.358 . S
C2499 H2541 0.930 . S
C2500 N2497 1.314 . S
C2500 C2498 1.353 . S
C2500 H2542 0.930 . S
C2501 N2497 1.279 . S
C2501 C2499 1.358 . S
C2501 H2543 0.930 . S
C2502 C2503 1.348 . S
C2502 C2504 1.356 . S
C2502 O2527 1.325 . S
C2503 C2502 1.348 . S
C2503 C2505 1.353 . S
C2503 H2544 0.929 . S
C2504 C2502 1.356 . S
C2504 C2506 1.358 . S
C2504 H2545 0.930 . S
C2505 C2503 1.353 . S
C2505 N2507 1.314 . S
C2505 H2546 0.930 . S
C2506 C2504 1.358 . S
C2506 N2507 1.279 . S
C2506 H2547 0.930 . S
N2507 C2505 1.314 . S
N2507 C2506 1.279 . S
C2508 C2510 1.353 . S
C2508 N2511 1.314 . S
C2508 H2514 0.930 . S
C2509 N2511 1.279 . S
C2509 C2512 1.358 . S
C2509 H2515 0.930 . S
C2510 C2508 1.353 . S
C2510 C2513 1.348 . S
C2510 H2548 0.929 . S
N2511 Li2466 1.990 . S
N2511 C2508 1.314 . S
N2511 C2509 1.279 . S
C2512 C2509 1.358 . S
C2512 C2513 1.356 . S
C2512 H2549 0.930 . S
C2513 C2510 1.348 . S
C2513 C2512 1.356 . S
H2514 C2508 0.930 . S
H2515 C2509 0.930 . S
C2516 N2517 1.314 . S
C2516 C2518 1.353 . S
C2516 H2522 0.930 . S
N2517 Li2467 1.990 . S
N2517 C2516 1.314 . S
N2517 C2520 1.279 . S
C2518 C2516 1.353 . S
C2518 C2521 1.348 . S
C2518 H2550 0.929 . S
C2519 C2520 1.358 . S
C2519 C2521 1.356 . S
C2519 H2551 0.930 . S
C2520 N2517 1.279 . S
C2520 C2519 1.358 . S
C2520 H2523 0.930 . S
C2521 C2518 1.348 . S
C2521 C2519 1.356 . S
H2522 C2516 0.930 . S
H2523 C2520 0.930 . S
O2524 Li2464 1.956 . S
O2524 Li2465 1.970 . S
O2524 Li2466 1.961 . S
O2524 C2468 1.325 . S
O2525 Li2464 1.970 . S
O2525 Li2465 1.956 . S
O2525 Li2467 1.961 . S
O2525 C2474 1.325 . S
O2526 Li2464 1.961 . S
O2526 Li2466 1.956 . S
O2526 Li2467 1.970 . S
O2526 C2496 1.325 . S
O2527 Li2465 1.961 . S
O2527 Li2466 1.970 . S
O2527 Li2467 1.956 . S
O2527 C2502 1.325 . S
H2528 C2470 0.929 . S
H2529 C2471 0.930 . S
H2530 C2472 0.930 . S
H2531 C2473 0.930 . S
H2532 C2475 0.930 . S
H2533 C2477 0.929 . S
H2534 C2478 0.930 . S
H2535 C2479 0.930 . S
H2536 C2482 0.930 . S
H2537 C2485 0.929 . S
H2538 C2490 0.929 . S
H2539 C2491 0.930 . S
H2540 C2498 0.929 . S
H2541 C2499 0.930 . S
H2542 C2500 0.930 . S
H2543 C2501 0.930 . S
H2544 C2503 0.929 . S
H2545 C2504 0.930 . S
H2546 C2505 0.930 . S
H2547 C2506 0.930 . S
H2548 C2510 0.929 . S
H2549 C2512 0.930 . S
H2550 C2518 0.929 . S
H2551 C2519 0.930 . S
Li2552 N2569 1.990 . S
Li2552 O2612 1.956 . S
Li2552 O2613 1.970 . S
Li2552 O2614 1.961 . S
Li2553 N2577 1.990 . S
Li2553 O2612 1.970 . S
Li2553 O2613 1.956 . S
Li2553 O2615 1.961 . S
Li2554 N2599 1.990 . S
Li2554 O2612 1.961 . S
Li2554 O2614 1.956 . S
Li2554 O2615 1.970 . S
Li2555 N2605 1.990 . S
Li2555 O2613 1.961 . S
Li2555 O2614 1.970 . S
Li2555 O2615 1.956 . S
C2556 C2558 1.348 . S
C2556 C2559 1.356 . S
C2556 O2612 1.325 . S
N2557 C2560 1.314 . S
N2557 C2561 1.279 . S
C2558 C2556 1.348 . S
C2558 C2560 1.353 . S
C2558 H2616 0.929 . S
C2559 C2556 1.356 . S
C2559 C2561 1.358 . S
C2559 H2617 0.930 . S
C2560 N2557 1.314 . S
C2560 C2558 1.353 . S
C2560 H2618 0.930 . S
C2561 N2557 1.279 . S
C2561 C2559 1.358 . S
C2561 H2619 0.930 . S
C2562 C2565 1.348 . S
C2562 C2566 1.356 . S
C2562 O2613 1.325 . S
C2563 N2564 1.279 . S
C2563 C2566 1.358 . S
C2563 H2620 0.930 . S
N2564 C2563 1.279 . S
N2564 C2567 1.314 . S
C2565 C2562 1.348 . S
C2565 C2567 1.353 . S
C2565 H2621 0.929 . S
C2566 C2562 1.356 . S
C2566 C2563 1.358 . S
C2566 H2622 0.930 . S
C2567 N2564 1.314 . S
C2567 C2565 1.353 . S
C2567 H2623 0.930 . S
C2568 N2569 1.314 . S
C2568 C2573 1.353 . S
C2568 H2574 0.930 . S
N2569 Li2552 1.990 . S
N2569 C2568 1.314 . S
N2569 C2571 1.279 . S
C2570 C2571 1.358 . S
C2570 C2572 1.356 . S
C2570 H2624 0.930 . S
C2571 N2569 1.279 . S
C2571 C2570 1.358 . S
C2571 H2575 0.930 . S
C2572 C2570 1.356 . S
C2572 C2573 1.348 . S
C2573 C2568 1.353 . S
C2573 C2572 1.348 . S
C2573 H2625 0.929 . S
H2574 C2568 0.930 . S
H2575 C2571 0.930 . S
C2576 N2577 1.314 . S
C2576 C2578 1.353 . S
C2576 H2582 0.930 . S
N2577 Li2553 1.990 . S
N2577 C2576 1.314 . S
N2577 C2580 1.279 . S
C2578 C2576 1.353 . S
C2578 C2581 1.348 . S
C2578 H2626 0.929 . S
C2579 C2580 1.358 . S
C2579 C2581 1.356 . S
C2579 H2627 0.930 . S
C2580 N2577 1.279 . S
C2580 C2579 1.358 . S
C2580 H2583 0.930 . S
C2581 C2578 1.348 . S
C2581 C2579 1.356 . S
H2582 C2576 0.930 . S
H2583 C2580 0.930 . S
C2584 C2586 1.348 . S
C2584 C2587 1.356 . S
C2584 O2614 1.325 . S
N2585 C2588 1.314 . S
N2585 C2589 1.279 . S
C2586 C2584 1.348 . S
C2586 C2588 1.353 . S
C2586 H2628 0.929 . S
C2587 C2584 1.356 . S
C2587 C2589 1.358 . S
C2587 H2629 0.930 . S
C2588 N2585 1.314 . S
C2588 C2586 1.353 . S
C2588 H2630 0.930 . S
C2589 N2585 1.279 . S
C2589 C2587 1.358 . S
C2589 H2631 0.930 . S
C2590 C2591 1.348 . S
C2590 C2592 1.356 . S
C2590 O2615 1.325 . S
C2591 C2590 1.348 . S
C2591 C2593 1.353 . S
C2591 H2632 0.929 . S
C2592 C2590 1.356 . S
C2592 C2594 1.358 . S
C2592 H2633 0.930 . S
C2593 C2591 1.353 . S
C2593 N2595 1.314 . S
C2593 H2634 0.930 . S
C2594 C2592 1.358 . S
C2594 N2595 1.279 . S
C2594 H2635 0.930 . S
N2595 C2593 1.314 . S
N2595 C2594 1.279 . S
C2596 C2598 1.353 . S
C2596 N2599 1.314 . S
C2596 H2602 0.930 . S
C2597 N2599 1.279 . S
C2597 C2600 1.358 . S
C2597 H2603 0.930 . S
C2598 C2596 1.353 . S
C2598 C2601 1.348 . S
C2598 H2636 0.929 . S
N2599 Li2554 1.990 . S
N2599 C2596 1.314 . S
N2599 C2597 1.279 . S
C2600 C2597 1.358 . S
C2600 C2601 1.356 . S
C2600 H2637 0.930 . S
C2601 C2598 1.348 . S
C2601 C2600 1.356 . S
H2602 C2596 0.930 . S
H2603 C2597 0.930 . S
C2604 N2605 1.314 . S
C2604 C2606 1.353 . S
C2604 H2610 0.930 . S
N2605 Li2555 1.990 . S
N2605 C2604 1.314 . S
N2605 C2608 1.279 . S
C2606 C2604 1.353 . S
C2606 C2609 1.348 . S
C2606 H2638 0.929 . S
C2607 C2608 1.358 . S
C2607 C2609 1.356 . S
C2607 H2639 0.930 . S
C2608 N2605 1.279 . S
C2608 C2607 1.358 . S
C2608 H2611 0.930 . S
C2609 C2606 1.348 . S
C2609 C2607 1.356 . S
H2610 C2604 0.930 . S
H2611 C2608 0.930 . S
O2612 Li2552 1.956 . S
O2612 Li2553 1.970 . S
O2612 Li2554 1.961 . S
O2612 C2556 1.325 . S
O2613 Li2552 1.970 . S
O2613 Li2553 1.956 . S
O2613 Li2555 1.961 . S
O2613 C2562 1.325 . S
O2614 Li2552 1.961 . S
O2614 Li2554 1.956 . S
O2614 Li2555 1.970 . S
O2614 C2584 1.325 . S
O2615 Li2553 1.961 . S
O2615 Li2554 1.970 . S
O2615 Li2555 1.956 . S
O2615 C2590 1.325 . S
H2616 C2558 0.929 . S
H2617 C2559 0.930 . S
H2618 C2560 0.930 . S
H2619 C2561 0.930 . S
H2620 C2563 0.930 . S
H2621 C2565 0.929 . S
H2622 C2566 0.930 . S
H2623 C2567 0.930 . S
H2624 C2570 0.930 . S
H2625 C2573 0.929 . S
H2626 C2578 0.929 . S
H2627 C2579 0.930 . S
H2628 C2586 0.929 . S
H2629 C2587 0.930 . S
H2630 C2588 0.930 . S
H2631 C2589 0.930 . S
H2632 C2591 0.929 . S
H2633 C2592 0.930 . S
H2634 C2593 0.930 . S
H2635 C2594 0.930 . S
H2636 C2598 0.929 . S
H2637 C2600 0.930 . S
H2638 C2606 0.929 . S
H2639 C2607 0.930 . S
Li2640 N2657 1.990 . S
Li2640 O2700 1.956 . S
Li2640 O2701 1.970 . S
Li2640 O2702 1.961 . S
Li2641 N2665 1.990 . S
Li2641 O2700 1.970 . S
Li2641 O2701 1.956 . S
Li2641 O2703 1.961 . S
Li2642 N2687 1.990 . S
Li2642 O2700 1.961 . S
Li2642 O2702 1.956 . S
Li2642 O2703 1.970 . S
Li2643 N2693 1.990 . S
Li2643 O2701 1.961 . S
Li2643 O2702 1.970 . S
Li2643 O2703 1.956 . S
C2644 C2646 1.348 . S
C2644 C2647 1.356 . S
C2644 O2700 1.325 . S
N2645 C2648 1.314 . S
N2645 C2649 1.279 . S
C2646 C2644 1.348 . S
C2646 C2648 1.353 . S
C2646 H2704 0.929 . S
C2647 C2644 1.356 . S
C2647 C2649 1.358 . S
C2647 H2705 0.930 . S
C2648 N2645 1.314 . S
C2648 C2646 1.353 . S
C2648 H2706 0.930 . S
C2649 N2645 1.279 . S
C2649 C2647 1.358 . S
C2649 H2707 0.930 . S
C2650 C2653 1.348 . S
C2650 C2654 1.356 . S
C2650 O2701 1.325 . S
C2651 N2652 1.279 . S
C2651 C2654 1.358 . S
C2651 H2708 0.930 . S
N2652 C2651 1.279 . S
N2652 C2655 1.314 . S
C2653 C2650 1.348 . S
C2653 C2655 1.353 . S
C2653 H2709 0.929 . S
C2654 C2650 1.356 . S
C2654 C2651 1.358 . S
C2654 H2710 0.930 . S
C2655 N2652 1.314 . S
C2655 C2653 1.353 . S
C2655 H2711 0.930 . S
C2656 N2657 1.314 . S
C2656 C2661 1.353 . S
C2656 H2662 0.930 . S
N2657 Li2640 1.990 . S
N2657 C2656 1.314 . S
N2657 C2659 1.279 . S
C2658 C2659 1.358 . S
C2658 C2660 1.356 . S
C2658 H2712 0.930 . S
C2659 N2657 1.279 . S
C2659 C2658 1.358 . S
C2659 H2663 0.930 . S
C2660 C2658 1.356 . S
C2660 C2661 1.348 . S
C2661 C2656 1.353 . S
C2661 C2660 1.348 . S
C2661 H2713 0.929 . S
H2662 C2656 0.930 . S
H2663 C2659 0.930 . S
C2664 N2665 1.314 . S
C2664 C2666 1.353 . S
C2664 H2670 0.930 . S
N2665 Li2641 1.990 . S
N2665 C2664 1.314 . S
N2665 C2668 1.279 . S
C2666 C2664 1.353 . S
C2666 C2669 1.348 . S
C2666 H2714 0.929 . S
C2667 C2668 1.358 . S
C2667 C2669 1.356 . S
C2667 H2715 0.930 . S
C2668 N2665 1.279 . S
C2668 C2667 1.358 . S
C2668 H2671 0.930 . S
C2669 C2666 1.348 . S
C2669 C2667 1.356 . S
H2670 C2664 0.930 . S
H2671 C2668 0.930 . S
C2672 C2674 1.348 . S
C2672 C2675 1.356 . S
C2672 O2702 1.325 . S
N2673 C2676 1.314 . S
N2673 C2677 1.279 . S
C2674 C2672 1.348 . S
C2674 C2676 1.353 . S
C2674 H2716 0.929 . S
C2675 C2672 1.356 . S
C2675 C2677 1.358 . S
C2675 H2717 0.930 . S
C2676 N2673 1.314 . S
C2676 C2674 1.353 . S
C2676 H2718 0.930 . S
C2677 N2673 1.279 . S
C2677 C2675 1.358 . S
C2677 H2719 0.950 . S
C2678 C2679 1.348 . S
C2678 C2680 1.356 . S
C2678 O2703 1.325 . S
C2679 C2678 1.348 . S
C2679 C2681 1.353 . S
C2679 H2720 0.929 . S
C2680 C2678 1.356 . S
C2680 C2682 1.358 . S
C2680 H2721 0.930 . S
C2681 C2679 1.353 . S
C2681 N2683 1.314 . S
C2681 H2722 0.930 . S
C2682 C2680 1.358 . S
C2682 N2683 1.279 . S
C2682 H2723 0.930 . S
N2683 C2681 1.314 . S
N2683 C2682 1.279 . S
C2684 C2686 1.353 . S
C2684 N2687 1.314 . S
C2684 H2690 0.930 . S
C2685 N2687 1.279 . S
C2685 C2688 1.358 . S
C2685 H2691 0.930 . S
C2686 C2684 1.353 . S
C2686 C2689 1.348 . S
C2686 H2724 0.929 . S
N2687 Li2642 1.990 . S
N2687 C2684 1.314 . S
N2687 C2685 1.279 . S
C2688 C2685 1.358 . S
C2688 C2689 1.356 . S
C2688 H2725 0.930 . S
C2689 C2686 1.348 . S
C2689 C2688 1.356 . S
H2690 C2684 0.930 . S
H2691 C2685 0.930 . S
C2692 N2693 1.314 . S
C2692 C2694 1.353 . S
C2692 H2698 0.930 . S
N2693 Li2643 1.990 . S
N2693 C2692 1.314 . S
N2693 C2696 1.279 . S
C2694 C2692 1.353 . S
C2694 C2697 1.348 . S
C2694 H2726 0.929 . S
C2695 C2696 1.358 . S
C2695 C2697 1.356 . S
C2695 H2727 0.930 . S
C2696 N2693 1.279 . S
C2696 C2695 1.358 . S
C2696 H2699 0.930 . S
C2697 C2694 1.348 . S
C2697 C2695 1.356 . S
H2698 C2692 0.930 . S
H2699 C2696 0.930 . S
O2700 Li2640 1.956 . S
O2700 Li2641 1.970 . S
O2700 Li2642 1.961 . S
O2700 C2644 1.325 . S
O2701 Li2640 1.970 . S
O2701 Li2641 1.956 . S
O2701 Li2643 1.961 . S
O2701 C2650 1.325 . S
O2702 Li2640 1.961 . S
O2702 Li2642 1.956 . S
O2702 Li2643 1.970 . S
O2702 C2672 1.325 . S
O2703 Li2641 1.961 . S
O2703 Li2642 1.970 . S
O2703 Li2643 1.956 . S
O2703 C2678 1.325 . S
H2704 C2646 0.929 . S
H2705 C2647 0.930 . S
H2706 C2648 0.930 . S
H2707 C2649 0.930 . S
H2708 C2651 0.930 . S
H2709 C2653 0.929 . S
H2710 C2654 0.930 . S
H2711 C2655 0.930 . S
H2712 C2658 0.930 . S
H2713 C2661 0.929 . S
H2714 C2666 0.929 . S
H2715 C2667 0.930 . S
H2716 C2674 0.929 . S
H2717 C2675 0.930 . S
H2718 C2676 0.930 . S
H2719 C2677 0.950 . S
H2720 C2679 0.929 . S
H2721 C2680 0.930 . S
H2722 C2681 0.930 . S
H2723 C2682 0.930 . S
H2724 C2686 0.929 . S
H2725 C2688 0.930 . S
H2726 C2694 0.929 . S
H2727 C2695 0.930 . S
Li2728 N2745 1.990 . S
Li2728 O2788 1.956 . S
Li2728 O2789 1.970 . S
Li2728 O2790 1.961 . S
Li2729 N2753 1.990 . S
Li2729 O2788 1.970 . S
Li2729 O2789 1.956 . S
Li2729 O2791 1.961 . S
Li2730 N2775 1.990 . S
Li2730 O2788 1.961 . S
Li2730 O2790 1.956 . S
Li2730 O2791 1.970 . S
Li2731 N2781 1.990 . S
Li2731 O2789 1.961 . S
Li2731 O2790 1.970 . S
Li2731 O2791 1.956 . S
C2732 C2734 1.348 . S
C2732 C2735 1.356 . S
C2732 O2788 1.325 . S
N2733 C2736 1.314 . S
N2733 C2737 1.279 . S
C2734 C2732 1.348 . S
C2734 C2736 1.353 . S
C2734 H2792 0.929 . S
C2735 C2732 1.356 . S
C2735 C2737 1.358 . S
C2735 H2793 0.930 . S
C2736 N2733 1.314 . S
C2736 C2734 1.353 . S
C2736 H2794 0.930 . S
C2737 N2733 1.279 . S
C2737 C2735 1.358 . S
C2737 H2795 0.930 . S
C2738 C2741 1.348 . S
C2738 C2742 1.356 . S
C2738 O2789 1.325 . S
C2739 N2740 1.279 . S
C2739 C2742 1.358 . S
C2739 H2796 0.930 . S
N2740 C2739 1.279 . S
N2740 C2743 1.314 . S
C2741 C2738 1.348 . S
C2741 C2743 1.353 . S
C2741 H2797 0.929 . S
C2742 C2738 1.356 . S
C2742 C2739 1.358 . S
C2742 H2798 0.930 . S
C2743 N2740 1.314 . S
C2743 C2741 1.353 . S
C2743 H2799 0.930 . S
C2744 N2745 1.314 . S
C2744 C2749 1.353 . S
C2744 H2750 0.930 . S
N2745 Li2728 1.990 . S
N2745 C2744 1.314 . S
N2745 C2747 1.279 . S
C2746 C2747 1.358 . S
C2746 C2748 1.356 . S
C2746 H2800 0.930 . S
C2747 N2745 1.279 . S
C2747 C2746 1.358 . S
C2747 H2751 0.930 . S
C2748 C2746 1.356 . S
C2748 C2749 1.348 . S
C2749 C2744 1.353 . S
C2749 C2748 1.348 . S
C2749 H2801 0.929 . S
H2750 C2744 0.930 . S
H2751 C2747 0.930 . S
C2752 N2753 1.314 . S
C2752 C2754 1.353 . S
C2752 H2758 0.930 . S
N2753 Li2729 1.990 . S
N2753 C2752 1.314 . S
N2753 C2756 1.279 . S
C2754 C2752 1.353 . S
C2754 C2757 1.348 . S
C2754 H2802 0.929 . S
C2755 C2756 1.358 . S
C2755 C2757 1.356 . S
C2755 H2803 0.930 . S
C2756 N2753 1.279 . S
C2756 C2755 1.358 . S
C2756 H2759 0.930 . S
C2757 C2754 1.348 . S
C2757 C2755 1.356 . S
H2758 C2752 0.930 . S
H2759 C2756 0.930 . S
C2760 C2762 1.348 . S
C2760 C2763 1.356 . S
C2760 O2790 1.325 . S
N2761 C2764 1.314 . S
N2761 C2765 1.279 . S
C2762 C2760 1.348 . S
C2762 C2764 1.353 . S
C2762 H2804 0.929 . S
C2763 C2760 1.356 . S
C2763 C2765 1.358 . S
C2763 H2805 0.930 . S
C2764 N2761 1.314 . S
C2764 C2762 1.353 . S
C2764 H2806 0.930 . S
C2765 N2761 1.279 . S
C2765 C2763 1.358 . S
C2765 H2807 0.930 . S
C2766 C2767 1.348 . S
C2766 C2768 1.356 . S
C2766 O2791 1.325 . S
C2767 C2766 1.348 . S
C2767 C2769 1.353 . S
C2767 H2808 0.929 . S
C2768 C2766 1.356 . S
C2768 C2770 1.358 . S
C2768 H2809 0.930 . S
C2769 C2767 1.353 . S
C2769 N2771 1.314 . S
C2769 H2810 0.930 . S
C2770 C2768 1.358 . S
C2770 N2771 1.279 . S
C2770 H2811 0.930 . S
N2771 C2769 1.314 . S
N2771 C2770 1.279 . S
C2772 C2774 1.353 . S
C2772 N2775 1.314 . S
C2772 H2778 0.930 . S
C2773 N2775 1.279 . S
C2773 C2776 1.358 . S
C2773 H2779 0.930 . S
C2774 C2772 1.353 . S
C2774 C2777 1.348 . S
C2774 H2812 0.929 . S
N2775 Li2730 1.990 . S
N2775 C2772 1.314 . S
N2775 C2773 1.279 . S
C2776 C2773 1.358 . S
C2776 C2777 1.356 . S
C2776 H2813 0.930 . S
C2777 C2774 1.348 . S
C2777 C2776 1.356 . S
H2778 C2772 0.930 . S
H2779 C2773 0.930 . S
C2780 N2781 1.314 . S
C2780 C2782 1.353 . S
C2780 H2786 0.930 . S
N2781 Li2731 1.990 . S
N2781 C2780 1.314 . S
N2781 C2784 1.279 . S
C2782 C2780 1.353 . S
C2782 C2785 1.348 . S
C2782 H2814 0.929 . S
C2783 C2784 1.358 . S
C2783 C2785 1.356 . S
C2783 H2815 0.930 . S
C2784 N2781 1.279 . S
C2784 C2783 1.358 . S
C2784 H2787 0.930 . S
C2785 C2782 1.348 . S
C2785 C2783 1.356 . S
H2786 C2780 0.930 . S
H2787 C2784 0.930 . S
O2788 Li2728 1.956 . S
O2788 Li2729 1.970 . S
O2788 Li2730 1.961 . S
O2788 C2732 1.325 . S
O2789 Li2728 1.970 . S
O2789 Li2729 1.956 . S
O2789 Li2731 1.961 . S
O2789 C2738 1.325 . S
O2790 Li2728 1.961 . S
O2790 Li2730 1.956 . S
O2790 Li2731 1.970 . S
O2790 C2760 1.325 . S
O2791 Li2729 1.961 . S
O2791 Li2730 1.970 . S
O2791 Li2731 1.956 . S
O2791 C2766 1.325 . S
H2792 C2734 0.929 . S
H2793 C2735 0.930 . S
H2794 C2736 0.930 . S
H2795 C2737 0.930 . S
H2796 C2739 0.930 . S
H2797 C2741 0.929 . S
H2798 C2742 0.930 . S
H2799 C2743 0.930 . S
H2800 C2746 0.930 . S
H2801 C2749 0.929 . S
H2802 C2754 0.929 . S
H2803 C2755 0.930 . S
H2804 C2762 0.929 . S
H2805 C2763 0.930 . S
H2806 C2764 0.930 . S
H2807 C2765 0.930 . S
H2808 C2767 0.929 . S
H2809 C2768 0.930 . S
H2810 C2769 0.930 . S
H2811 C2770 0.930 . S
H2812 C2774 0.929 . S
H2813 C2776 0.930 . S
H2814 C2782 0.929 . S
H2815 C2783 0.930 . S
C2816 C2817 1.363 . S
C2816 C2822 1.379 . S
C2816 N2824 1.356 . S
C2817 C2816 1.363 . S
C2817 C2823 1.363 . S
C2818 C2819 1.363 . S
C2818 C2823 1.379 . S
C2818 N2825 1.356 . S
C2819 C2818 1.363 . S
C2819 C2822 1.363 . S
N2820 C2822 1.356 . S
N2820 H2832 0.984 . S
N2820 H2833 0.985 . S
N2821 C2823 1.356 . S
N2821 H2826 0.984 . S
N2821 H2827 0.985 . S
C2822 C2816 1.379 . S
C2822 C2819 1.363 . S
C2822 N2820 1.356 . S
C2823 C2817 1.363 . S
C2823 C2818 1.379 . S
C2823 N2821 1.356 . S
N2824 C2816 1.356 . S
N2824 H2830 0.984 . S
N2824 H2831 0.984 . S
N2825 C2818 1.356 . S
N2825 H2828 0.984 . S
N2825 H2829 0.985 . S
H2826 N2821 0.984 . S
H2827 N2821 0.985 . S
H2828 N2825 0.984 . S
H2829 N2825 0.985 . S
H2830 N2824 0.984 . S
H2831 N2824 0.984 . S
H2832 N2820 0.984 . S
H2833 N2820 0.985 . S
C2834 C2835 1.363 . S
C2834 C2840 1.379 . S
C2834 N2842 1.356 . S
C2835 C2834 1.363 . S
C2835 C2841 1.363 . S
C2836 C2837 1.363 . S
C2836 C2841 1.379 . S
C2836 N2843 1.356 . S
C2837 C2836 1.363 . S
C2837 C2840 1.363 . S
N2838 C2840 1.356 . S
N2838 H2850 0.984 . S
N2838 H2851 0.985 . S
N2839 C2841 1.356 . S
N2839 H2844 0.984 . S
N2839 H2845 0.985 . S
C2840 C2834 1.379 . S
C2840 C2837 1.363 . S
C2840 N2838 1.356 . S
C2841 C2835 1.363 . S
C2841 C2836 1.379 . S
C2841 N2839 1.356 . S
N2842 C2834 1.356 . S
N2842 H2848 0.984 . S
N2842 H2849 0.984 . S
N2843 C2836 1.356 . S
N2843 H2846 0.984 . S
N2843 H2847 0.985 . S
H2844 N2839 0.984 . S
H2845 N2839 0.985 . S
H2846 N2843 0.984 . S
H2847 N2843 0.985 . S
H2848 N2842 0.984 . S
H2849 N2842 0.984 . S
H2850 N2838 0.984 . S
H2851 N2838 0.985 . S
C2852 C2853 1.363 . S
C2852 C2858 1.379 . S
C2852 N2860 1.356 . S
C2853 C2852 1.363 . S
C2853 C2859 1.363 . S
C2854 C2855 1.363 . S
C2854 C2859 1.379 . S
C2854 N2861 1.356 . S
C2855 C2854 1.363 . S
C2855 C2858 1.363 . S
N2856 C2858 1.356 . S
N2856 H2868 0.984 . S
N2856 H2869 0.985 . S
N2857 C2859 1.356 . S
N2857 H2862 0.984 . S
N2857 H2863 0.985 . S
C2858 C2852 1.379 . S
C2858 C2855 1.363 . S
C2858 N2856 1.356 . S
C2859 C2853 1.363 . S
C2859 C2854 1.379 . S
C2859 N2857 1.356 . S
N2860 C2852 1.356 . S
N2860 H2866 0.984 . S
N2860 H2867 0.984 . S
N2861 C2854 1.356 . S
N2861 H2864 0.984 . S
N2861 H2865 0.985 . S
H2862 N2857 0.984 . S
H2863 N2857 0.985 . S
H2864 N2861 0.984 . S
H2865 N2861 0.985 . S
H2866 N2860 0.984 . S
H2867 N2860 0.984 . S
H2868 N2856 0.984 . S
H2869 N2856 0.985 . S
C2870 C2871 1.363 . S
C2870 C2876 1.379 . S
C2870 N2878 1.356 . S
C2871 C2870 1.363 . S
C2871 C2877 1.363 . S
C2872 C2873 1.363 . S
C2872 C2877 1.379 . S
C2872 N2879 1.356 . S
C2873 C2872 1.363 . S
C2873 C2876 1.363 . S
N2874 C2876 1.356 . S
N2874 H2886 0.984 . S
N2874 H2887 0.985 . S
N2875 C2877 1.356 . S
N2875 H2880 0.984 . S
N2875 H2881 0.985 . S
C2876 C2870 1.379 . S
C2876 C2873 1.363 . S
C2876 N2874 1.356 . S
C2877 C2871 1.363 . S
C2877 C2872 1.379 . S
C2877 N2875 1.356 . S
N2878 C2870 1.356 . S
N2878 H2884 0.984 . S
N2878 H2885 0.984 . S
N2879 C2872 1.356 . S
N2879 H2882 0.984 . S
N2879 H2883 0.985 . S
H2880 N2875 0.984 . S
H2881 N2875 0.985 . S
H2882 N2879 0.984 . S
H2883 N2879 0.985 . S
H2884 N2878 0.984 . S
H2885 N2878 0.984 . S
H2886 N2874 0.984 . S
H2887 N2874 0.985 . S
C2888 C2889 1.363 . S
C2888 C2894 1.379 . S
C2888 N2896 1.356 . S
C2889 C2888 1.363 . S
C2889 C2895 1.363 . S
C2890 C2891 1.363 . S
C2890 C2895 1.379 . S
C2890 N2897 1.356 . S
C2891 C2890 1.363 . S
C2891 C2894 1.363 . S
N2892 C2894 1.356 . S
N2892 H2904 0.984 . S
N2892 H2905 0.985 . S
N2893 C2895 1.356 . S
N2893 H2898 0.984 . S
N2893 H2899 0.985 . S
C2894 C2888 1.379 . S
C2894 C2891 1.363 . S
C2894 N2892 1.356 . S
C2895 C2889 1.363 . S
C2895 C2890 1.379 . S
C2895 N2893 1.356 . S
N2896 C2888 1.356 . S
N2896 H2902 0.984 . S
N2896 H2903 0.984 . S
N2897 C2890 1.356 . S
N2897 H2900 0.984 . S
N2897 H2901 0.985 . S
H2898 N2893 0.984 . S
H2899 N2893 0.985 . S
H2900 N2897 0.984 . S
H2901 N2897 0.985 . S
H2902 N2896 0.984 . S
H2903 N2896 0.984 . S
H2904 N2892 0.984 . S
H2905 N2892 0.985 . S
C2906 C2907 1.363 . S
C2906 C2912 1.379 . S
C2906 N2914 1.356 . S
C2907 C2906 1.363 . S
C2907 C2913 1.363 . S
C2908 C2909 1.363 . S
C2908 C2913 1.379 . S
C2908 N2915 1.356 . S
C2909 C2908 1.363 . S
C2909 C2912 1.363 . S
N2910 C2912 1.356 . S
N2910 H2922 0.984 . S
N2910 H2923 0.985 . S
N2911 C2913 1.356 . S
N2911 H2916 0.984 . S
N2911 H2917 0.985 . S
C2912 C2906 1.379 . S
C2912 C2909 1.363 . S
C2912 N2910 1.356 . S
C2913 C2907 1.363 . S
C2913 C2908 1.379 . S
C2913 N2911 1.356 . S
N2914 C2906 1.356 . S
N2914 H2920 0.984 . S
N2914 H2921 0.984 . S
N2915 C2908 1.356 . S
N2915 H2918 0.984 . S
N2915 H2919 0.985 . S
H2916 N2911 0.984 . S
H2917 N2911 0.985 . S
H2918 N2915 0.984 . S
H2919 N2915 0.985 . S
H2920 N2914 0.984 . S
H2921 N2914 0.984 . S
H2922 N2910 0.984 . S
H2923 N2910 0.985 . S
C2924 C2925 1.363 . S
C2924 C2930 1.379 . S
C2924 N2932 1.356 . S
C2925 C2924 1.363 . S
C2925 C2931 1.363 . S
C2926 C2927 1.363 . S
C2926 C2931 1.379 . S
C2926 N2933 1.356 . S
C2927 C2926 1.363 . S
C2927 C2930 1.363 . S
N2928 C2930 1.356 . S
N2928 H2940 0.984 . S
N2928 H2941 0.985 . S
N2929 C2931 1.356 . S
N2929 H2934 0.984 . S
N2929 H2935 0.985 . S
C2930 C2924 1.379 . S
C2930 C2927 1.363 . S
C2930 N2928 1.356 . S
C2931 C2925 1.363 . S
C2931 C2926 1.379 . S
C2931 N2929 1.356 . S
N2932 C2924 1.356 . S
N2932 H2938 0.984 . S
N2932 H2939 0.984 . S
N2933 C2926 1.356 . S
N2933 H2936 0.984 . S
N2933 H2937 0.985 . S
H2934 N2929 0.984 . S
H2935 N2929 0.985 . S
H2936 N2933 0.984 . S
H2937 N2933 0.985 . S
H2938 N2932 0.984 . S
H2939 N2932 0.984 . S
H2940 N2928 0.984 . S
H2941 N2928 0.985 . S
C2942 C2943 1.363 . S
C2942 C2948 1.379 . S
C2942 N2950 1.356 . S
C2943 C2942 1.363 . S
C2943 C2949 1.363 . S
C2944 C2945 1.363 . S
C2944 C2949 1.379 . S
C2944 N2951 1.356 . S
C2945 C2944 1.363 . S
C2945 C2948 1.363 . S
N2946 C2948 1.356 . S
N2946 H2958 0.984 . S
N2946 H2959 0.985 . S
N2947 C2949 1.356 . S
N2947 H2952 0.984 . S
N2947 H2953 0.985 . S
C2948 C2942 1.379 . S
C2948 C2945 1.363 . S
C2948 N2946 1.356 . S
C2949 C2943 1.363 . S
C2949 C2944 1.379 . S
C2949 N2947 1.356 . S
N2950 C2942 1.356 . S
N2950 H2956 0.984 . S
N2950 H2957 0.984 . S
N2951 C2944 1.356 . S
N2951 H2954 0.984 . S
N2951 H2955 0.985 . S
H2952 N2947 0.984 . S
H2953 N2947 0.985 . S
H2954 N2951 0.984 . S
H2955 N2951 0.985 . S
H2956 N2950 0.984 . S
H2957 N2950 0.984 . S
H2958 N2946 0.984 . S
H2959 N2946 0.985 . S
C2960 C2961 1.363 . S
C2960 C2966 1.379 . S
C2960 N2968 1.356 . S
C2961 C2960 1.363 . S
C2961 C2967 1.363 . S
C2962 C2963 1.363 . S
C2962 C2967 1.379 . S
C2962 N2969 1.356 . S
C2963 C2962 1.363 . S
C2963 C2966 1.363 . S
N2964 C2966 1.356 . S
N2964 H2976 0.984 . S
N2964 H2977 0.985 . S
N2965 C2967 1.356 . S
N2965 H2970 0.984 . S
N2965 H2971 0.985 . S
C2966 C2960 1.379 . S
C2966 C2963 1.363 . S
C2966 N2964 1.356 . S
C2967 C2961 1.363 . S
C2967 C2962 1.379 . S
C2967 N2965 1.356 . S
N2968 C2960 1.356 . S
N2968 H2974 0.984 . S
N2968 H2975 0.984 . S
N2969 C2962 1.356 . S
N2969 H2972 0.984 . S
N2969 H2973 0.985 . S
H2970 N2965 0.984 . S
H2971 N2965 0.985 . S
H2972 N2969 0.984 . S
H2973 N2969 0.985 . S
H2974 N2968 0.984 . S
H2975 N2968 0.984 . S
H2976 N2964 0.984 . S
H2977 N2964 0.985 . S
C2978 C2979 1.363 . S
C2978 C2984 1.379 . S
C2978 N2986 1.356 . S
C2979 C2978 1.363 . S
C2979 C2985 1.363 . S
C2980 C2981 1.363 . S
C2980 C2985 1.379 . S
C2980 N2987 1.356 . S
C2981 C2980 1.363 . S
C2981 C2984 1.363 . S
N2982 C2984 1.356 . S
N2982 H2994 0.984 . S
N2982 H2995 0.985 . S
N2983 C2985 1.356 . S
N2983 H2988 0.984 . S
N2983 H2989 0.985 . S
C2984 C2978 1.379 . S
C2984 C2981 1.363 . S
C2984 N2982 1.356 . S
C2985 C2979 1.363 . S
C2985 C2980 1.379 . S
C2985 N2983 1.356 . S
N2986 C2978 1.356 . S
N2986 H2992 0.984 . S
N2986 H2993 0.984 . S
N2987 C2980 1.356 . S
N2987 H2990 0.984 . S
N2987 H2991 0.985 . S
H2988 N2983 0.984 . S
H2989 N2983 0.985 . S
H2990 N2987 0.984 . S
H2991 N2987 0.985 . S
H2992 N2986 0.984 . S
H2993 N2986 0.984 . S
H2994 N2982 0.984 . S
H2995 N2982 0.985 . S
C2996 C2997 1.363 . S
C2996 C3002 1.379 . S
C2996 N3004 1.356 . S
C2997 C2996 1.363 . S
C2997 C3003 1.363 . S
C2998 C2999 1.363 . S
C2998 C3003 1.379 . S
C2998 N3005 1.356 . S
C2999 C2998 1.363 . S
C2999 C3002 1.363 . S
N3000 C3002 1.356 . S
N3000 H3012 0.984 . S
N3000 H3013 0.985 . S
N3001 C3003 1.356 . S
N3001 H3006 0.984 . S
N3001 H3007 0.985 . S
C3002 C2996 1.379 . S
C3002 C2999 1.363 . S
C3002 N3000 1.356 . S
C3003 C2997 1.363 . S
C3003 C2998 1.379 . S
C3003 N3001 1.356 . S
N3004 C2996 1.356 . S
N3004 H3010 0.984 . S
N3004 H3011 0.984 . S
N3005 C2998 1.356 . S
N3005 H3008 0.984 . S
N3005 H3009 0.985 . S
H3006 N3001 0.984 . S
H3007 N3001 0.985 . S
H3008 N3005 0.984 . S
H3009 N3005 0.985 . S
H3010 N3004 0.984 . S
H3011 N3004 0.984 . S
H3012 N3000 0.984 . S
H3013 N3000 0.985 . S
C3014 C3015 1.363 . S
C3014 C3020 1.379 . S
C3014 N3022 1.356 . S
C3015 C3014 1.363 . S
C3015 C3021 1.363 . S
C3016 C3017 1.363 . S
C3016 C3021 1.379 . S
C3016 N3023 1.356 . S
C3017 C3016 1.363 . S
C3017 C3020 1.363 . S
N3018 C3020 1.356 . S
N3018 H3030 0.984 . S
N3018 H3031 0.985 . S
N3019 C3021 1.356 . S
N3019 H3024 0.984 . S
N3019 H3025 0.985 . S
C3020 C3014 1.379 . S
C3020 C3017 1.363 . S
C3020 N3018 1.356 . S
C3021 C3015 1.363 . S
C3021 C3016 1.379 . S
C3021 N3019 1.356 . S
N3022 C3014 1.356 . S
N3022 H3028 0.984 . S
N3022 H3029 0.984 . S
N3023 C3016 1.356 . S
N3023 H3026 0.984 . S
N3023 H3027 0.985 . S
H3024 N3019 0.984 . S
H3025 N3019 0.985 . S
H3026 N3023 0.984 . S
H3027 N3023 0.985 . S
H3028 N3022 0.984 . S
H3029 N3022 0.984 . S
H3030 N3018 0.984 . S
H3031 N3018 0.985 . S
C3032 C3033 1.363 . S
C3032 C3038 1.379 . S
C3032 N3040 1.356 . S
C3033 C3032 1.363 . S
C3033 C3039 1.363 . S
C3034 C3035 1.363 . S
C3034 C3039 1.379 . S
C3034 N3041 1.356 . S
C3035 C3034 1.363 . S
C3035 C3038 1.363 . S
N3036 C3038 1.356 . S
N3036 H3048 0.984 . S
N3036 H3049 0.985 . S
N3037 C3039 1.356 . S
N3037 H3042 0.984 . S
N3037 H3043 0.985 . S
C3038 C3032 1.379 . S
C3038 C3035 1.363 . S
C3038 N3036 1.356 . S
C3039 C3033 1.363 . S
C3039 C3034 1.379 . S
C3039 N3037 1.356 . S
N3040 C3032 1.356 . S
N3040 H3046 0.984 . S
N3040 H3047 0.984 . S
N3041 C3034 1.356 . S
N3041 H3044 0.984 . S
N3041 H3045 0.985 . S
H3042 N3037 0.984 . S
H3043 N3037 0.985 . S
H3044 N3041 0.984 . S
H3045 N3041 0.985 . S
H3046 N3040 0.984 . S
H3047 N3040 0.984 . S
H3048 N3036 0.984 . S
H3049 N3036 0.985 . S
C3050 C3051 1.363 . S
C3050 C3056 1.379 . S
C3050 N3058 1.356 . S
C3051 C3050 1.363 . S
C3051 C3057 1.363 . S
C3052 C3053 1.363 . S
C3052 C3057 1.379 . S
C3052 N3059 1.356 . S
C3053 C3052 1.363 . S
C3053 C3056 1.363 . S
N3054 C3056 1.356 . S
N3054 H3066 0.984 . S
N3054 H3067 0.985 . S
N3055 C3057 1.356 . S
N3055 H3060 0.984 . S
N3055 H3061 0.985 . S
C3056 C3050 1.379 . S
C3056 C3053 1.363 . S
C3056 N3054 1.356 . S
C3057 C3051 1.363 . S
C3057 C3052 1.379 . S
C3057 N3055 1.356 . S
N3058 C3050 1.356 . S
N3058 H3064 0.984 . S
N3058 H3065 0.984 . S
N3059 C3052 1.356 . S
N3059 H3062 0.984 . S
N3059 H3063 0.985 . S
H3060 N3055 0.984 . S
H3061 N3055 0.985 . S
H3062 N3059 0.984 . S
H3063 N3059 0.985 . S
H3064 N3058 0.984 . S
H3065 N3058 0.984 . S
H3066 N3054 0.984 . S
H3067 N3054 0.985 . S
C3068 C3069 1.363 . S
C3068 C3074 1.379 . S
C3068 N3076 1.356 . S
C3069 C3068 1.363 . S
C3069 C3075 1.363 . S
C3070 C3071 1.363 . S
C3070 C3075 1.379 . S
C3070 N3077 1.356 . S
C3071 C3070 1.363 . S
C3071 C3074 1.363 . S
N3072 C3074 1.356 . S
N3072 H3084 0.984 . S
N3072 H3085 0.985 . S
N3073 C3075 1.356 . S
N3073 H3078 0.984 . S
N3073 H3079 0.985 . S
C3074 C3068 1.379 . S
C3074 C3071 1.363 . S
C3074 N3072 1.356 . S
C3075 C3069 1.363 . S
C3075 C3070 1.379 . S
C3075 N3073 1.356 . S
N3076 C3068 1.356 . S
N3076 H3082 0.984 . S
N3076 H3083 0.984 . S
N3077 C3070 1.356 . S
N3077 H3080 0.984 . S
N3077 H3081 0.985 . S
H3078 N3073 0.984 . S
H3079 N3073 0.985 . S
H3080 N3077 0.984 . S
H3081 N3077 0.985 . S
H3082 N3076 0.984 . S
H3083 N3076 0.984 . S
H3084 N3072 0.984 . S
H3085 N3072 0.985 . S
C3086 C3087 1.363 . S
C3086 C3092 1.379 . S
C3086 N3094 1.356 . S
C3087 C3086 1.363 . S
C3087 C3093 1.363 . S
C3088 C3089 1.363 . S
C3088 C3093 1.379 . S
C3088 N3095 1.356 . S
C3089 C3088 1.363 . S
C3089 C3092 1.363 . S
N3090 C3092 1.356 . S
N3090 H3102 0.984 . S
N3090 H3103 0.985 . S
N3091 C3093 1.356 . S
N3091 H3096 0.984 . S
N3091 H3097 0.985 . S
C3092 C3086 1.379 . S
C3092 C3089 1.363 . S
C3092 N3090 1.356 . S
C3093 C3087 1.363 . S
C3093 C3088 1.379 . S
C3093 N3091 1.356 . S
N3094 C3086 1.356 . S
N3094 H3100 0.984 . S
N3094 H3101 0.984 . S
N3095 C3088 1.356 . S
N3095 H3098 0.984 . S
N3095 H3099 0.985 . S
H3096 N3091 0.984 . S
H3097 N3091 0.985 . S
H3098 N3095 0.984 . S
H3099 N3095 0.985 . S
H3100 N3094 0.984 . S
H3101 N3094 0.984 . S
H3102 N3090 0.984 . S
H3103 N3090 0.985 . S
C3104 C3105 1.363 . S
C3104 C3110 1.379 1_455 S
C3104 N3112 1.356 . S
C3105 C3104 1.363 . S
C3105 C3111 1.363 . S
C3106 C3107 1.363 . S
C3106 C3111 1.379 1_655 S
C3106 N3113 1.356 . S
C3107 C3106 1.363 . S
C3107 C3110 1.363 . S
N3108 C3110 1.356 . S
N3108 H3120 0.984 . S
N3108 H3121 0.985 . S
N3109 C3111 1.356 . S
N3109 H3114 0.984 . S
N3109 H3115 0.985 . S
C3110 C3104 1.379 1_655 S
C3110 C3107 1.363 . S
C3110 N3108 1.356 . S
C3111 C3105 1.363 . S
C3111 C3106 1.379 1_455 S
C3111 N3109 1.356 . S
N3112 C3104 1.356 . S
N3112 H3118 0.984 . S
N3112 H3119 0.984 . S
N3113 C3106 1.356 . S
N3113 H3116 0.984 . S
N3113 H3117 0.985 . S
H3114 N3109 0.984 . S
H3115 N3109 0.985 . S
H3116 N3113 0.984 . S
H3117 N3113 0.985 . S
H3118 N3112 0.984 . S
H3119 N3112 0.984 . S
H3120 N3108 0.984 . S
H3121 N3108 0.985 . S
C3122 C3123 1.363 . S
C3122 C3128 1.379 . S
C3122 N3130 1.356 . S
C3123 C3122 1.363 . S
C3123 C3129 1.363 . S
C3124 C3125 1.363 . S
C3124 C3129 1.379 . S
C3124 N3131 1.356 . S
C3125 C3124 1.363 . S
C3125 C3128 1.363 . S
N3126 C3128 1.356 . S
N3126 H3138 0.984 . S
N3126 H3139 0.985 . S
N3127 C3129 1.356 . S
N3127 H3132 0.984 . S
N3127 H3133 0.985 . S
C3128 C3122 1.379 . S
C3128 C3125 1.363 . S
C3128 N3126 1.356 . S
C3129 C3123 1.363 . S
C3129 C3124 1.379 . S
C3129 N3127 1.356 . S
N3130 C3122 1.356 . S
N3130 H3136 0.984 . S
N3130 H3137 0.984 . S
N3131 C3124 1.356 . S
N3131 H3134 0.984 . S
N3131 H3135 0.985 . S
H3132 N3127 0.984 . S
H3133 N3127 0.985 . S
H3134 N3131 0.984 . S
H3135 N3131 0.985 . S
H3136 N3130 0.984 . S
H3137 N3130 0.984 . S
H3138 N3126 0.984 . S
H3139 N3126 0.985 . S
C3140 C3141 1.363 . S
C3140 C3146 1.379 . S
C3140 N3148 1.356 . S
C3141 C3140 1.363 . S
C3141 C3147 1.363 . S
C3142 C3143 1.363 . S
C3142 C3147 1.379 . S
C3142 N3149 1.356 . S
C3143 C3142 1.363 . S
C3143 C3146 1.363 . S
N3144 C3146 1.356 . S
N3144 H3156 0.984 . S
N3144 H3157 0.985 . S
N3145 C3147 1.356 . S
N3145 H3150 0.984 . S
N3145 H3151 0.985 . S
C3146 C3140 1.379 . S
C3146 C3143 1.363 . S
C3146 N3144 1.356 . S
C3147 C3141 1.363 . S
C3147 C3142 1.379 . S
C3147 N3145 1.356 . S
N3148 C3140 1.356 . S
N3148 H3154 0.984 . S
N3148 H3155 0.984 . S
N3149 C3142 1.356 . S
N3149 H3152 0.984 . S
N3149 H3153 0.985 . S
H3150 N3145 0.984 . S
H3151 N3145 0.985 . S
H3152 N3149 0.984 . S
H3153 N3149 0.985 . S
H3154 N3148 0.984 . S
H3155 N3148 0.984 . S
H3156 N3144 0.984 . S
H3157 N3144 0.985 . S
C3158 C3159 1.363 . S
C3158 C3164 1.379 . S
C3158 N3166 1.356 . S
C3159 C3158 1.363 . S
C3159 C3165 1.363 . S
C3160 C3161 1.363 . S
C3160 C3165 1.379 . S
C3160 N3167 1.356 . S
C3161 C3160 1.363 . S
C3161 C3164 1.363 . S
N3162 C3164 1.356 . S
N3162 H3174 0.984 . S
N3162 H3175 0.985 . S
N3163 C3165 1.356 . S
N3163 H3168 0.984 . S
N3163 H3169 0.985 . S
C3164 C3158 1.379 . S
C3164 C3161 1.363 . S
C3164 N3162 1.356 . S
C3165 C3159 1.363 . S
C3165 C3160 1.379 . S
C3165 N3163 1.356 . S
N3166 C3158 1.356 . S
N3166 H3172 0.984 . S
N3166 H3173 0.984 . S
N3167 C3160 1.356 . S
N3167 H3170 0.984 . S
N3167 H3171 0.985 . S
H3168 N3163 0.984 . S
H3169 N3163 0.985 . S
H3170 N3167 0.984 . S
H3171 N3167 0.985 . S
H3172 N3166 0.984 . S
H3173 N3166 0.984 . S
H3174 N3162 0.984 . S
H3175 N3162 0.985 . S
C3176 C3177 1.363 . S
C3176 C3182 1.379 1_655 S
C3176 N3184 1.356 . S
C3177 C3176 1.363 . S
C3177 C3183 1.363 . S
C3178 C3179 1.363 . S
C3178 C3183 1.379 1_455 S
C3178 N3185 1.356 . S
C3179 C3178 1.363 . S
C3179 C3182 1.363 . S
N3180 C3182 1.356 . S
N3180 H3192 0.984 . S
N3180 H3193 0.985 . S
N3181 C3183 1.356 . S
N3181 H3186 0.984 . S
N3181 H3187 0.985 . S
C3182 C3176 1.379 1_455 S
C3182 C3179 1.363 . S
C3182 N3180 1.356 . S
C3183 C3177 1.363 . S
C3183 C3178 1.379 1_655 S
C3183 N3181 1.356 . S
N3184 C3176 1.356 . S
N3184 H3190 0.984 . S
N3184 H3191 0.984 . S
N3185 C3178 1.356 . S
N3185 H3188 0.984 . S
N3185 H3189 0.985 . S
H3186 N3181 0.984 . S
H3187 N3181 0.985 . S
H3188 N3185 0.984 . S
H3189 N3185 0.985 . S
H3190 N3184 0.984 . S
H3191 N3184 0.984 . S
H3192 N3180 0.984 . S
H3193 N3180 0.985 . S
C3194 C3195 1.363 . S
C3194 C3200 1.379 . S
C3194 N3202 1.356 . S
C3195 C3194 1.363 . S
C3195 C3201 1.363 . S
C3196 C3197 1.363 . S
C3196 C3201 1.379 . S
C3196 N3203 1.356 . S
C3197 C3196 1.363 . S
C3197 C3200 1.363 . S
N3198 C3200 1.356 . S
N3198 H3210 0.984 . S
N3198 H3211 0.985 . S
N3199 C3201 1.356 . S
N3199 H3204 0.984 . S
N3199 H3205 0.985 . S
C3200 C3194 1.379 . S
C3200 C3197 1.363 . S
C3200 N3198 1.356 . S
C3201 C3195 1.363 . S
C3201 C3196 1.379 . S
C3201 N3199 1.356 . S
N3202 C3194 1.356 . S
N3202 H3208 0.984 . S
N3202 H3209 0.984 . S
N3203 C3196 1.356 . S
N3203 H3206 0.984 . S
N3203 H3207 0.985 . S
H3204 N3199 0.984 . S
H3205 N3199 0.985 . S
H3206 N3203 0.984 . S
H3207 N3203 0.985 . S
H3208 N3202 0.984 . S
H3209 N3202 0.984 . S
H3210 N3198 0.984 . S
H3211 N3198 0.985 . S
C3212 C3213 1.363 . S
C3212 C3218 1.379 . S
C3212 N3220 1.356 . S
C3213 C3212 1.363 . S
C3213 C3219 1.363 . S
C3214 C3215 1.363 . S
C3214 C3219 1.379 . S
C3214 N3221 1.356 . S
C3215 C3214 1.363 . S
C3215 C3218 1.363 . S
N3216 C3218 1.356 . S
N3216 H3228 0.984 . S
N3216 H3229 0.985 . S
N3217 C3219 1.356 . S
N3217 H3222 0.984 . S
N3217 H3223 0.985 . S
C3218 C3212 1.379 . S
C3218 C3215 1.363 . S
C3218 N3216 1.356 . S
C3219 C3213 1.363 . S
C3219 C3214 1.379 . S
C3219 N3217 1.356 . S
N3220 C3212 1.356 . S
N3220 H3226 0.984 . S
N3220 H3227 0.984 . S
N3221 C3214 1.356 . S
N3221 H3224 0.984 . S
N3221 H3225 0.985 . S
H3222 N3217 0.984 . S
H3223 N3217 0.985 . S
H3224 N3221 0.984 . S
H3225 N3221 0.985 . S
H3226 N3220 0.984 . S
H3227 N3220 0.984 . S
H3228 N3216 0.984 . S
H3229 N3216 0.985 . S
C3230 C3231 1.363 . S
C3230 C3236 1.379 . S
C3230 N3238 1.356 . S
C3231 C3230 1.363 . S
C3231 C3237 1.363 . S
C3232 C3233 1.363 . S
C3232 C3237 1.379 . S
C3232 N3239 1.356 . S
C3233 C3232 1.363 . S
C3233 C3236 1.363 . S
N3234 C3236 1.356 . S
N3234 H3246 0.984 . S
N3234 H3247 0.985 . S
N3235 C3237 1.356 . S
N3235 H3240 0.984 . S
N3235 H3241 0.985 . S
C3236 C3230 1.379 . S
C3236 C3233 1.363 . S
C3236 N3234 1.356 . S
C3237 C3231 1.363 . S
C3237 C3232 1.379 . S
C3237 N3235 1.356 . S
N3238 C3230 1.356 . S
N3238 H3244 0.984 . S
N3238 H3245 0.984 . S
N3239 C3232 1.356 . S
N3239 H3242 0.984 . S
N3239 H3243 0.985 . S
H3240 N3235 0.984 . S
H3241 N3235 0.985 . S
H3242 N3239 0.984 . S
H3243 N3239 0.985 . S
H3244 N3238 0.984 . S
H3245 N3238 0.984 . S
H3246 N3234 0.984 . S
H3247 N3234 0.985 . S
C3248 C3249 1.363 . S
C3248 C3254 1.379 . S
C3248 N3256 1.356 . S
C3249 C3248 1.363 . S
C3249 C3255 1.363 . S
C3250 C3251 1.363 . S
C3250 C3255 1.379 . S
C3250 N3257 1.356 . S
C3251 C3250 1.363 . S
C3251 C3254 1.363 . S
N3252 C3254 1.356 . S
N3252 H3264 0.984 . S
N3252 H3265 0.985 . S
N3253 C3255 1.356 . S
N3253 H3258 0.984 . S
N3253 H3259 0.985 . S
C3254 C3248 1.379 . S
C3254 C3251 1.363 . S
C3254 N3252 1.356 . S
C3255 C3249 1.363 . S
C3255 C3250 1.379 . S
C3255 N3253 1.356 . S
N3256 C3248 1.356 . S
N3256 H3262 0.984 . S
N3256 H3263 0.984 . S
N3257 C3250 1.356 . S
N3257 H3260 0.984 . S
N3257 H3261 0.985 . S
H3258 N3253 0.984 . S
H3259 N3253 0.985 . S
H3260 N3257 0.984 . S
H3261 N3257 0.985 . S
H3262 N3256 0.984 . S
H3263 N3256 0.984 . S
H3264 N3252 0.984 . S
H3265 N3252 0.985 . S
C3266 C3267 1.363 . S
C3266 C3272 1.379 . S
C3266 N3274 1.356 . S
C3267 C3266 1.363 . S
C3267 C3273 1.363 . S
C3268 C3269 1.363 . S
C3268 C3273 1.379 . S
C3268 N3275 1.356 . S
C3269 C3268 1.363 . S
C3269 C3272 1.363 . S
N3270 C3272 1.356 . S
N3270 H3282 0.984 . S
N3270 H3283 0.985 . S
N3271 C3273 1.356 . S
N3271 H3276 0.984 . S
N3271 H3277 0.985 . S
C3272 C3266 1.379 . S
C3272 C3269 1.363 . S
C3272 N3270 1.356 . S
C3273 C3267 1.363 . S
C3273 C3268 1.379 . S
C3273 N3271 1.356 . S
N3274 C3266 1.356 . S
N3274 H3280 0.984 . S
N3274 H3281 0.984 . S
N3275 C3268 1.356 . S
N3275 H3278 0.984 . S
N3275 H3279 0.985 . S
H3276 N3271 0.984 . S
H3277 N3271 0.985 . S
H3278 N3275 0.984 . S
H3279 N3275 0.985 . S
H3280 N3274 0.984 . S
H3281 N3274 0.984 . S
H3282 N3270 0.984 . S
H3283 N3270 0.985 . S
C3284 C3285 1.363 . S
C3284 C3290 1.379 . S
C3284 N3292 1.356 . S
C3285 C3284 1.363 . S
C3285 C3291 1.363 . S
C3286 C3287 1.363 . S
C3286 C3291 1.379 . S
C3286 N3293 1.356 . S
C3287 C3286 1.363 . S
C3287 C3290 1.363 . S
N3288 C3290 1.356 . S
N3288 H3300 0.984 . S
N3288 H3301 0.985 . S
N3289 C3291 1.356 . S
N3289 H3294 0.984 . S
N3289 H3295 0.985 . S
C3290 C3284 1.379 . S
C3290 C3287 1.363 . S
C3290 N3288 1.356 . S
C3291 C3285 1.363 . S
C3291 C3286 1.379 . S
C3291 N3289 1.356 . S
N3292 C3284 1.356 . S
N3292 H3298 0.984 . S
N3292 H3299 0.984 . S
N3293 C3286 1.356 . S
N3293 H3296 0.984 . S
N3293 H3297 0.985 . S
H3294 N3289 0.984 . S
H3295 N3289 0.985 . S
H3296 N3293 0.984 . S
H3297 N3293 0.985 . S
H3298 N3292 0.984 . S
H3299 N3292 0.984 . S
H3300 N3288 0.984 . S
H3301 N3288 0.985 . S
C3302 C3303 1.363 . S
C3302 C3308 1.379 . S
C3302 N3310 1.356 . S
C3303 C3302 1.363 . S
C3303 C3309 1.363 . S
C3304 C3305 1.363 . S
C3304 C3309 1.379 . S
C3304 N3311 1.356 . S
C3305 C3304 1.363 . S
C3305 C3308 1.363 . S
N3306 C3308 1.356 . S
N3306 H3318 0.984 . S
N3306 H3319 0.985 . S
N3307 C3309 1.356 . S
N3307 H3312 0.984 . S
N3307 H3313 0.985 . S
C3308 C3302 1.379 . S
C3308 C3305 1.363 . S
C3308 N3306 1.356 . S
C3309 C3303 1.363 . S
C3309 C3304 1.379 . S
C3309 N3307 1.356 . S
N3310 C3302 1.356 . S
N3310 H3316 0.984 . S
N3310 H3317 0.984 . S
N3311 C3304 1.356 . S
N3311 H3314 0.984 . S
N3311 H3315 0.985 . S
H3312 N3307 0.984 . S
H3313 N3307 0.985 . S
H3314 N3311 0.984 . S
H3315 N3311 0.985 . S
H3316 N3310 0.984 . S
H3317 N3310 0.984 . S
H3318 N3306 0.984 . S
H3319 N3306 0.985 . S
C3320 C3321 1.363 . S
C3320 C3326 1.379 . S
C3320 N3328 1.356 . S
C3321 C3320 1.363 . S
C3321 C3327 1.363 . S
C3322 C3323 1.363 . S
C3322 C3327 1.379 . S
C3322 N3329 1.356 . S
C3323 C3322 1.363 . S
C3323 C3326 1.363 . S
N3324 C3326 1.356 . S
N3324 H3336 0.984 . S
N3324 H3337 0.985 . S
N3325 C3327 1.356 . S
N3325 H3330 0.984 . S
N3325 H3331 0.985 . S
C3326 C3320 1.379 . S
C3326 C3323 1.363 . S
C3326 N3324 1.356 . S
C3327 C3321 1.363 . S
C3327 C3322 1.379 . S
C3327 N3325 1.356 . S
N3328 C3320 1.356 . S
N3328 H3334 0.984 . S
N3328 H3335 0.984 . S
N3329 C3322 1.356 . S
N3329 H3332 0.984 . S
N3329 H3333 0.985 . S
H3330 N3325 0.984 . S
H3331 N3325 0.985 . S
H3332 N3329 0.984 . S
H3333 N3329 0.985 . S
H3334 N3328 0.984 . S
H3335 N3328 0.984 . S
H3336 N3324 0.984 . S
H3337 N3324 0.985 . S
C3338 C3339 1.363 . S
C3338 C3344 1.379 1_655 S
C3338 N3346 1.356 . S
C3339 C3338 1.363 . S
C3339 C3345 1.363 . S
C3340 C3341 1.363 . S
C3340 C3345 1.379 1_455 S
C3340 N3347 1.356 . S
C3341 C3340 1.363 . S
C3341 C3344 1.363 . S
N3342 C3344 1.356 . S
N3342 H3354 0.984 . S
N3342 H3355 0.985 . S
N3343 C3345 1.356 . S
N3343 H3348 0.984 . S
N3343 H3349 0.985 . S
C3344 C3338 1.379 1_455 S
C3344 C3341 1.363 . S
C3344 N3342 1.356 . S
C3345 C3339 1.363 . S
C3345 C3340 1.379 1_655 S
C3345 N3343 1.356 . S
N3346 C3338 1.356 . S
N3346 H3352 0.984 . S
N3346 H3353 0.984 . S
N3347 C3340 1.356 . S
N3347 H3350 0.984 . S
N3347 H3351 0.985 . S
H3348 N3343 0.984 . S
H3349 N3343 0.985 . S
H3350 N3347 0.984 . S
H3351 N3347 0.985 . S
H3352 N3346 0.984 . S
H3353 N3346 0.984 . S
H3354 N3342 0.984 . S
H3355 N3342 0.985 . S
C3356 C3357 1.363 . S
C3356 C3362 1.379 . S
C3356 N3364 1.356 . S
C3357 C3356 1.363 . S
C3357 C3363 1.363 . S
C3358 C3359 1.363 . S
C3358 C3363 1.379 . S
C3358 N3365 1.356 . S
C3359 C3358 1.363 . S
C3359 C3362 1.363 . S
N3360 C3362 1.356 . S
N3360 H3372 0.984 . S
N3360 H3373 0.985 . S
N3361 C3363 1.356 . S
N3361 H3366 0.984 . S
N3361 H3367 0.985 . S
C3362 C3356 1.379 . S
C3362 C3359 1.363 . S
C3362 N3360 1.356 . S
C3363 C3357 1.363 . S
C3363 C3358 1.379 . S
C3363 N3361 1.356 . S
N3364 C3356 1.356 . S
N3364 H3370 0.984 . S
N3364 H3371 0.984 . S
N3365 C3358 1.356 . S
N3365 H3368 0.984 . S
N3365 H3369 0.985 . S
H3366 N3361 0.984 . S
H3367 N3361 0.985 . S
H3368 N3365 0.984 . S
H3369 N3365 0.985 . S
H3370 N3364 0.984 . S
H3371 N3364 0.984 . S
H3372 N3360 0.984 . S
H3373 N3360 0.985 . S
C3374 C3375 1.363 . S
C3374 C3380 1.379 1_455 S
C3374 N3382 1.356 . S
C3375 C3374 1.363 . S
C3375 C3381 1.363 . S
C3376 C3377 1.363 . S
C3376 C3381 1.379 1_655 S
C3376 N3383 1.356 . S
C3377 C3376 1.363 . S
C3377 C3380 1.363 . S
N3378 C3380 1.356 . S
N3378 H3390 0.984 . S
N3378 H3391 0.985 . S
N3379 C3381 1.356 . S
N3379 H3384 0.984 . S
N3379 H3385 0.985 . S
C3380 C3374 1.379 1_655 S
C3380 C3377 1.363 . S
C3380 N3378 1.356 . S
C3381 C3375 1.363 . S
C3381 C3376 1.379 1_455 S
C3381 N3379 1.356 . S
N3382 C3374 1.356 . S
N3382 H3388 0.984 . S
N3382 H3389 0.984 . S
N3383 C3376 1.356 . S
N3383 H3386 0.984 . S
N3383 H3387 0.985 . S
H3384 N3379 0.984 . S
H3385 N3379 0.985 . S
H3386 N3383 0.984 . S
H3387 N3383 0.985 . S
H3388 N3382 0.984 . S
H3389 N3382 0.984 . S
H3390 N3378 0.984 . S
H3391 N3378 0.985 . S
C3392 C3393 1.363 . S
C3392 C3398 1.379 . S
C3392 N3400 1.356 . S
C3393 C3392 1.363 . S
C3393 C3399 1.363 1_556 S
C3394 C3395 1.363 . S
C3394 C3399 1.379 . S
C3394 N3401 1.356 . S
C3395 C3394 1.363 . S
C3395 C3398 1.363 1_554 S
N3396 C3398 1.356 . S
N3396 H3408 0.984 . S
N3396 H3409 0.985 1_556 S
N3397 C3399 1.356 . S
N3397 H3402 0.984 1_554 S
N3397 H3403 0.985 . S
C3398 C3392 1.379 . S
C3398 C3395 1.363 1_556 S
C3398 N3396 1.356 . S
C3399 C3393 1.363 1_554 S
C3399 C3394 1.379 . S
C3399 N3397 1.356 . S
N3400 C3392 1.356 . S
N3400 H3406 0.984 . S
N3400 H3407 0.984 . S
N3401 C3394 1.356 . S
N3401 H3404 0.984 . S
N3401 H3405 0.985 . S
H3402 N3397 0.984 1_556 S
H3403 N3397 0.985 . S
H3404 N3401 0.984 . S
H3405 N3401 0.985 . S
H3406 N3400 0.984 . S
H3407 N3400 0.984 . S
H3408 N3396 0.984 . S
H3409 N3396 0.985 1_554 S
C3410 C3411 1.363 . S
C3410 C3416 1.379 . S
C3410 N3418 1.356 . S
C3411 C3410 1.363 . S
C3411 C3417 1.363 . S
C3412 C3413 1.363 . S
C3412 C3417 1.379 . S
C3412 N3419 1.356 . S
C3413 C3412 1.363 . S
C3413 C3416 1.363 . S
N3414 C3416 1.356 . S
N3414 H3426 0.984 . S
N3414 H3427 0.985 . S
N3415 C3417 1.356 . S
N3415 H3420 0.984 . S
N3415 H3421 0.985 . S
C3416 C3410 1.379 . S
C3416 C3413 1.363 . S
C3416 N3414 1.356 . S
C3417 C3411 1.363 . S
C3417 C3412 1.379 . S
C3417 N3415 1.356 . S
N3418 C3410 1.356 . S
N3418 H3424 0.984 . S
N3418 H3425 0.984 . S
N3419 C3412 1.356 . S
N3419 H3422 0.984 . S
N3419 H3423 0.985 . S
H3420 N3415 0.984 . S
H3421 N3415 0.985 . S
H3422 N3419 0.984 . S
H3423 N3419 0.985 . S
H3424 N3418 0.984 . S
H3425 N3418 0.984 . S
H3426 N3414 0.984 . S
H3427 N3414 0.985 . S
C3428 C3429 1.363 . S
C3428 C3434 1.379 . S
C3428 N3436 1.356 . S
C3429 C3428 1.363 . S
C3429 C3435 1.363 . S
C3430 C3431 1.363 . S
C3430 C3435 1.379 . S
C3430 N3437 1.356 . S
C3431 C3430 1.363 . S
C3431 C3434 1.363 . S
N3432 C3434 1.356 . S
N3432 H3444 0.984 . S
N3432 H3445 0.985 . S
N3433 C3435 1.356 . S
N3433 H3438 0.984 . S
N3433 H3439 0.985 . S
C3434 C3428 1.379 . S
C3434 C3431 1.363 . S
C3434 N3432 1.356 . S
C3435 C3429 1.363 . S
C3435 C3430 1.379 . S
C3435 N3433 1.356 . S
N3436 C3428 1.356 . S
N3436 H3442 0.984 . S
N3436 H3443 0.984 . S
N3437 C3430 1.356 . S
N3437 H3440 0.984 . S
N3437 H3441 0.985 . S
H3438 N3433 0.984 . S
H3439 N3433 0.985 . S
H3440 N3437 0.984 . S
H3441 N3437 0.985 . S
H3442 N3436 0.984 . S
H3443 N3436 0.984 . S
H3444 N3432 0.984 . S
H3445 N3432 0.985 . S
C3446 C3447 1.363 . S
C3446 C3452 1.379 . S
C3446 N3454 1.356 . S
C3447 C3446 1.363 . S
C3447 C3453 1.363 . S
C3448 C3449 1.363 . S
C3448 C3453 1.379 . S
C3448 N3455 1.356 . S
C3449 C3448 1.363 . S
C3449 C3452 1.363 . S
N3450 C3452 1.356 . S
N3450 H3462 0.984 . S
N3450 H3463 0.985 . S
N3451 C3453 1.356 . S
N3451 H3456 0.984 . S
N3451 H3457 0.985 . S
C3452 C3446 1.379 . S
C3452 C3449 1.363 . S
C3452 N3450 1.356 . S
C3453 C3447 1.363 . S
C3453 C3448 1.379 . S
C3453 N3451 1.356 . S
N3454 C3446 1.356 . S
N3454 H3460 0.984 . S
N3454 H3461 0.984 . S
N3455 C3448 1.356 . S
N3455 H3458 0.984 . S
N3455 H3459 0.985 . S
H3456 N3451 0.984 . S
H3457 N3451 0.985 . S
H3458 N3455 0.984 . S
H3459 N3455 0.985 . S
H3460 N3454 0.984 . S
H3461 N3454 0.984 . S
H3462 N3450 0.984 . S
H3463 N3450 0.985 . S
C3464 C3465 1.363 . S
C3464 C3470 1.379 1_554 S
C3464 N3472 1.356 . S
C3465 C3464 1.363 . S
C3465 C3471 1.363 . S
C3466 C3467 1.363 . S
C3466 C3471 1.379 1_556 S
C3466 N3473 1.356 . S
C3467 C3466 1.363 . S
C3467 C3470 1.363 . S
N3468 C3470 1.356 . S
N3468 H3480 0.984 . S
N3468 H3481 0.985 . S
N3469 C3471 1.356 . S
N3469 H3474 0.984 . S
N3469 H3475 0.985 . S
C3470 C3464 1.379 1_556 S
C3470 C3467 1.363 . S
C3470 N3468 1.356 . S
C3471 C3465 1.363 . S
C3471 C3466 1.379 1_554 S
C3471 N3469 1.356 . S
N3472 C3464 1.356 . S
N3472 H3478 0.984 . S
N3472 H3479 0.984 . S
N3473 C3466 1.356 . S
N3473 H3476 0.984 . S
N3473 H3477 0.985 . S
H3474 N3469 0.984 . S
H3475 N3469 0.985 . S
H3476 N3473 0.984 . S
H3477 N3473 0.985 . S
H3478 N3472 0.984 . S
H3479 N3472 0.984 . S
H3480 N3468 0.984 . S
H3481 N3468 0.985 . S
C3482 C3483 1.363 . S
C3482 C3488 1.379 . S
C3482 N3490 1.356 . S
C3483 C3482 1.363 . S
C3483 C3489 1.363 . S
C3484 C3485 1.363 . S
C3484 C3489 1.379 . S
C3484 N3491 1.356 . S
C3485 C3484 1.363 . S
C3485 C3488 1.363 . S
N3486 C3488 1.356 . S
N3486 H3498 0.984 . S
N3486 H3499 0.985 . S
N3487 C3489 1.356 . S
N3487 H3492 0.984 . S
N3487 H3493 0.985 . S
C3488 C3482 1.379 . S
C3488 C3485 1.363 . S
C3488 N3486 1.356 . S
C3489 C3483 1.363 . S
C3489 C3484 1.379 . S
C3489 N3487 1.356 . S
N3490 C3482 1.356 . S
N3490 H3496 0.984 . S
N3490 H3497 0.984 . S
N3491 C3484 1.356 . S
N3491 H3494 0.984 . S
N3491 H3495 0.985 . S
H3492 N3487 0.984 . S
H3493 N3487 0.985 . S
H3494 N3491 0.984 . S
H3495 N3491 0.985 . S
H3496 N3490 0.984 . S
H3497 N3490 0.984 . S
H3498 N3486 0.984 . S
H3499 N3486 0.985 . S
C3500 C3501 1.363 . S
C3500 C3506 1.379 . S
C3500 N3508 1.356 . S
C3501 C3500 1.363 . S
C3501 C3507 1.363 . S
C3502 C3503 1.363 . S
C3502 C3507 1.379 . S
C3502 N3509 1.356 . S
C3503 C3502 1.363 . S
C3503 C3506 1.363 . S
N3504 C3506 1.356 . S
N3504 H3516 0.984 . S
N3504 H3517 0.985 . S
N3505 C3507 1.356 . S
N3505 H3510 0.984 . S
N3505 H3511 0.985 . S
C3506 C3500 1.379 . S
C3506 C3503 1.363 . S
C3506 N3504 1.356 . S
C3507 C3501 1.363 . S
C3507 C3502 1.379 . S
C3507 N3505 1.356 . S
N3508 C3500 1.356 . S
N3508 H3514 0.984 . S
N3508 H3515 0.984 . S
N3509 C3502 1.356 . S
N3509 H3512 0.984 . S
N3509 H3513 0.985 . S
H3510 N3505 0.984 . S
H3511 N3505 0.985 . S
H3512 N3509 0.984 . S
H3513 N3509 0.985 . S
H3514 N3508 0.984 . S
H3515 N3508 0.984 . S
H3516 N3504 0.984 . S
H3517 N3504 0.985 . S
C3518 C3519 1.363 . S
C3518 C3524 1.379 . S
C3518 N3526 1.356 . S
C3519 C3518 1.363 . S
C3519 C3525 1.363 . S
C3520 C3521 1.363 . S
C3520 C3525 1.379 . S
C3520 N3527 1.356 . S
C3521 C3520 1.363 . S
C3521 C3524 1.363 . S
N3522 C3524 1.356 . S
N3522 H3534 0.984 . S
N3522 H3535 0.985 . S
N3523 C3525 1.356 . S
N3523 H3528 0.984 . S
N3523 H3529 0.985 . S
C3524 C3518 1.379 . S
C3524 C3521 1.363 . S
C3524 N3522 1.356 . S
C3525 C3519 1.363 . S
C3525 C3520 1.379 . S
C3525 N3523 1.356 . S
N3526 C3518 1.356 . S
N3526 H3532 0.984 . S
N3526 H3533 0.984 . S
N3527 C3520 1.356 . S
N3527 H3530 0.984 . S
N3527 H3531 0.985 . S
H3528 N3523 0.984 . S
H3529 N3523 0.985 . S
H3530 N3527 0.984 . S
H3531 N3527 0.985 . S
H3532 N3526 0.984 . S
H3533 N3526 0.984 . S
H3534 N3522 0.984 . S
H3535 N3522 0.985 . S
C3536 C3537 1.363 1_565 S
C3536 C3542 1.379 . S
C3536 N3544 1.356 1_565 S
C3537 C3536 1.363 1_545 S
C3537 C3543 1.363 . S
C3538 C3539 1.363 1_545 S
C3538 C3543 1.379 . S
C3538 N3545 1.356 1_545 S
C3539 C3538 1.363 1_565 S
C3539 C3542 1.363 . S
N3540 C3542 1.356 . S
N3540 H3552 0.984 . S
N3540 H3553 0.985 . S
N3541 C3543 1.356 . S
N3541 H3546 0.984 . S
N3541 H3547 0.985 . S
C3542 C3536 1.379 . S
C3542 C3539 1.363 . S
C3542 N3540 1.356 . S
C3543 C3537 1.363 . S
C3543 C3538 1.379 . S
C3543 N3541 1.356 . S
N3544 C3536 1.356 1_545 S
N3544 H3550 0.984 1_545 S
N3544 H3551 0.984 . S
N3545 C3538 1.356 1_565 S
N3545 H3548 0.984 . S
N3545 H3549 0.985 1_565 S
H3546 N3541 0.984 . S
H3547 N3541 0.985 . S
H3548 N3545 0.984 . S
H3549 N3545 0.985 1_545 S
H3550 N3544 0.984 1_565 S
H3551 N3544 0.984 . S
H3552 N3540 0.984 . S
H3553 N3540 0.985 . S
C3554 C3555 1.363 . S
C3554 C3560 1.379 . S
C3554 N3562 1.356 . S
C3555 C3554 1.363 . S
C3555 C3561 1.363 . S
C3556 C3557 1.363 . S
C3556 C3561 1.379 . S
C3556 N3563 1.356 . S
C3557 C3556 1.363 . S
C3557 C3560 1.363 . S
N3558 C3560 1.356 . S
N3558 H3570 0.984 . S
N3558 H3571 0.985 . S
N3559 C3561 1.356 . S
N3559 H3564 0.984 . S
N3559 H3565 0.985 . S
C3560 C3554 1.379 . S
C3560 C3557 1.363 . S
C3560 N3558 1.356 . S
C3561 C3555 1.363 . S
C3561 C3556 1.379 . S
C3561 N3559 1.356 . S
N3562 C3554 1.356 . S
N3562 H3568 0.984 . S
N3562 H3569 0.984 . S
N3563 C3556 1.356 . S
N3563 H3566 0.984 . S
N3563 H3567 0.985 . S
H3564 N3559 0.984 . S
H3565 N3559 0.985 . S
H3566 N3563 0.984 . S
H3567 N3563 0.985 . S
H3568 N3562 0.984 . S
H3569 N3562 0.984 . S
H3570 N3558 0.984 . S
H3571 N3558 0.985 . S
C3572 C3573 1.363 1_556 S
C3572 C3578 1.379 . S
C3572 N3580 1.356 . S
C3573 C3572 1.363 1_554 S
C3573 C3579 1.363 1_565 S
C3574 C3575 1.363 1_554 S
C3574 C3579 1.379 . S
C3574 N3581 1.356 . S
C3575 C3574 1.363 1_556 S
C3575 C3578 1.363 1_545 S
N3576 C3578 1.356 . S
N3576 H3588 0.984 . S
N3576 H3589 0.985 1_565 S
N3577 C3579 1.356 . S
N3577 H3582 0.984 1_545 S
N3577 H3583 0.985 . S
C3578 C3572 1.379 . S
C3578 C3575 1.363 1_565 S
C3578 N3576 1.356 . S
C3579 C3573 1.363 1_545 S
C3579 C3574 1.379 . S
C3579 N3577 1.356 . S
N3580 C3572 1.356 . S
N3580 H3586 0.984 . S
N3580 H3587 0.984 1_556 S
N3581 C3574 1.356 . S
N3581 H3584 0.984 1_554 S
N3581 H3585 0.985 . S
H3582 N3577 0.984 1_565 S
H3583 N3577 0.985 . S
H3584 N3581 0.984 1_556 S
H3585 N3581 0.985 . S
H3586 N3580 0.984 . S
H3587 N3580 0.984 1_554 S
H3588 N3576 0.984 . S
H3589 N3576 0.985 1_545 S
C3590 C3591 1.363 . S
C3590 C3596 1.379 . S
C3590 N3598 1.356 . S
C3591 C3590 1.363 . S
C3591 C3597 1.363 . S
C3592 C3593 1.363 . S
C3592 C3597 1.379 . S
C3592 N3599 1.356 . S
C3593 C3592 1.363 . S
C3593 C3596 1.363 . S
N3594 C3596 1.356 . S
N3594 H3606 0.984 . S
N3594 H3607 0.985 . S
N3595 C3597 1.356 . S
N3595 H3600 0.984 . S
N3595 H3601 0.985 . S
C3596 C3590 1.379 . S
C3596 C3593 1.363 . S
C3596 N3594 1.356 . S
C3597 C3591 1.363 . S
C3597 C3592 1.379 . S
C3597 N3595 1.356 . S
N3598 C3590 1.356 . S
N3598 H3604 0.984 . S
N3598 H3605 0.984 . S
N3599 C3592 1.356 . S
N3599 H3602 0.984 . S
N3599 H3603 0.985 . S
H3600 N3595 0.984 . S
H3601 N3595 0.985 . S
H3602 N3599 0.984 . S
H3603 N3599 0.985 . S
H3604 N3598 0.984 . S
H3605 N3598 0.984 . S
H3606 N3594 0.984 . S
H3607 N3594 0.985 . S
C3608 C3609 1.363 . S
C3608 C3614 1.379 . S
C3608 N3616 1.356 . S
C3609 C3608 1.363 . S
C3609 C3615 1.363 1_545 S
C3610 C3611 1.363 . S
C3610 C3615 1.379 . S
C3610 N3617 1.356 . S
C3611 C3610 1.363 . S
C3611 C3614 1.363 1_565 S
N3612 C3614 1.356 1_565 S
N3612 H3624 0.984 1_565 S
N3612 H3625 0.985 . S
N3613 C3615 1.356 1_545 S
N3613 H3618 0.984 . S
N3613 H3619 0.985 1_545 S
C3614 C3608 1.379 . S
C3614 C3611 1.363 1_545 S
C3614 N3612 1.356 1_545 S
C3615 C3609 1.363 1_565 S
C3615 C3610 1.379 . S
C3615 N3613 1.356 1_565 S
N3616 C3608 1.356 . S
N3616 H3622 0.984 . S
N3616 H3623 0.984 . S
N3617 C3610 1.356 . S
N3617 H3620 0.984 . S
N3617 H3621 0.985 . S
H3618 N3613 0.984 . S
H3619 N3613 0.985 1_565 S
H3620 N3617 0.984 . S
H3621 N3617 0.985 . S
H3622 N3616 0.984 . S
H3623 N3616 0.984 . S
H3624 N3612 0.984 1_545 S
H3625 N3612 0.985 . S
C3626 C3627 1.363 . S
C3626 C3632 1.379 . S
C3626 N3634 1.356 . S
C3627 C3626 1.363 . S
C3627 C3633 1.363 . S
C3628 C3629 1.363 . S
C3628 C3633 1.379 . S
C3628 N3635 1.356 . S
C3629 C3628 1.363 . S
C3629 C3632 1.363 . S
N3630 C3632 1.356 . S
N3630 H3642 0.984 . S
N3630 H3643 0.985 . S
N3631 C3633 1.356 . S
N3631 H3636 0.984 . S
N3631 H3637 0.985 . S
C3632 C3626 1.379 . S
C3632 C3629 1.363 . S
C3632 N3630 1.356 . S
C3633 C3627 1.363 . S
C3633 C3628 1.379 . S
C3633 N3631 1.356 . S
N3634 C3626 1.356 . S
N3634 H3640 0.984 . S
N3634 H3641 0.984 . S
N3635 C3628 1.356 . S
N3635 H3638 0.984 . S
N3635 H3639 0.985 . S
H3636 N3631 0.984 . S
H3637 N3631 0.985 . S
H3638 N3635 0.984 . S
H3639 N3635 0.985 . S
H3640 N3634 0.984 . S
H3641 N3634 0.984 . S
H3642 N3630 0.984 . S
H3643 N3630 0.985 . S
C3644 C3645 1.363 1_545 S
C3644 C3650 1.379 . S
C3644 N3652 1.354 1_545 S
C3645 C3644 1.363 1_565 S
C3645 C3651 1.363 1_554 S
C3646 C3647 1.363 1_565 S
C3646 C3651 1.379 . S
C3646 N3653 1.354 1_565 S
C3647 C3646 1.363 1_545 S
C3647 C3650 1.363 1_556 S
N3648 C3650 1.356 . S
N3648 H3660 0.984 . S
N3648 H3661 0.985 1_554 S
N3649 C3651 1.356 . S
N3649 H3654 0.984 1_556 S
N3649 H3655 0.985 . S
C3650 C3644 1.379 . S
C3650 C3647 1.363 1_554 S
C3650 N3648 1.356 . S
C3651 C3645 1.363 1_556 S
C3651 C3646 1.379 . S
C3651 N3649 1.356 . S
N3652 C3644 1.354 1_565 S
N3652 H3658 0.973 1_565 S
N3652 H3659 0.999 . S
N3653 C3646 1.354 1_545 S
N3653 H3656 0.999 . S
N3653 H3657 0.973 1_545 S
H3654 N3649 0.984 1_554 S
H3655 N3649 0.985 . S
H3656 N3653 0.999 . S
H3657 N3653 0.973 1_565 S
H3658 N3652 0.973 1_545 S
H3659 N3652 0.999 . S
H3660 N3648 0.984 . S
H3661 N3648 0.985 1_556 S
C3662 C3663 1.363 . S
C3662 C3668 1.379 . S
C3662 N3670 1.356 . S
C3663 C3662 1.363 . S
C3663 C3669 1.363 . S
C3664 C3665 1.363 . S
C3664 C3669 1.379 . S
C3664 N3671 1.356 . S
C3665 C3664 1.363 . S
C3665 C3668 1.363 . S
N3666 C3668 1.356 . S
N3666 H3678 0.984 . S
N3666 H3679 0.985 . S
N3667 C3669 1.356 . S
N3667 H3672 0.984 . S
N3667 H3673 0.985 . S
C3668 C3662 1.379 . S
C3668 C3665 1.363 . S
C3668 N3666 1.356 . S
C3669 C3663 1.363 . S
C3669 C3664 1.379 . S
C3669 N3667 1.356 . S
N3670 C3662 1.356 . S
N3670 H3676 0.984 . S
N3670 H3677 0.984 . S
N3671 C3664 1.356 . S
N3671 H3674 0.984 . S
N3671 H3675 0.985 . S
H3672 N3667 0.984 . S
H3673 N3667 0.985 . S
H3674 N3671 0.984 . S
H3675 N3671 0.985 . S
H3676 N3670 0.984 . S
H3677 N3670 0.984 . S
H3678 N3666 0.984 . S
H3679 N3666 0.985 . S
C3680 C3681 1.363 . S
C3680 C3686 1.379 . S
C3680 N3688 1.356 . S
C3681 C3680 1.363 . S
C3681 C3687 1.363 . S
C3682 C3683 1.363 . S
C3682 C3687 1.379 . S
C3682 N3689 1.356 . S
C3683 C3682 1.363 . S
C3683 C3686 1.363 . S
N3684 C3686 1.356 . S
N3684 H3696 0.984 . S
N3684 H3697 0.985 . S
N3685 C3687 1.356 . S
N3685 H3690 0.984 . S
N3685 H3691 0.985 . S
C3686 C3680 1.379 . S
C3686 C3683 1.363 . S
C3686 N3684 1.356 . S
C3687 C3681 1.363 . S
C3687 C3682 1.379 . S
C3687 N3685 1.356 . S
N3688 C3680 1.356 . S
N3688 H3694 0.984 . S
N3688 H3695 0.984 . S
N3689 C3682 1.356 . S
N3689 H3692 0.984 . S
N3689 H3693 0.985 . S
H3690 N3685 0.984 . S
H3691 N3685 0.985 . S
H3692 N3689 0.984 . S
H3693 N3689 0.985 . S
H3694 N3688 0.984 . S
H3695 N3688 0.984 . S
H3696 N3684 0.984 . S
H3697 N3684 0.985 . S
C3698 C3699 1.363 . S
C3698 C3704 1.379 . S
C3698 N3706 1.356 . S
C3699 C3698 1.363 . S
C3699 C3705 1.363 . S
C3700 C3701 1.363 . S
C3700 C3705 1.379 . S
C3700 N3707 1.356 . S
C3701 C3700 1.363 . S
C3701 C3704 1.363 . S
N3702 C3704 1.356 . S
N3702 H3714 0.984 . S
N3702 H3715 0.985 . S
N3703 C3705 1.356 . S
N3703 H3708 0.984 . S
N3703 H3709 0.985 . S
C3704 C3698 1.379 . S
C3704 C3701 1.363 . S
C3704 N3702 1.356 . S
C3705 C3699 1.363 . S
C3705 C3700 1.379 . S
C3705 N3703 1.356 . S
N3706 C3698 1.356 . S
N3706 H3712 0.984 . S
N3706 H3713 0.984 . S
N3707 C3700 1.356 . S
N3707 H3710 0.984 . S
N3707 H3711 0.985 . S
H3708 N3703 0.984 . S
H3709 N3703 0.985 . S
H3710 N3707 0.984 . S
H3711 N3707 0.985 . S
H3712 N3706 0.984 . S
H3713 N3706 0.984 . S
H3714 N3702 0.984 . S
H3715 N3702 0.985 . S
C3716 C3717 1.363 . S
C3716 C3722 1.379 . S
C3716 N3724 1.356 . S
C3717 C3716 1.363 . S
C3717 C3723 1.363 . S
C3718 C3719 1.363 . S
C3718 C3723 1.379 . S
C3718 N3725 1.356 . S
C3719 C3718 1.363 . S
C3719 C3722 1.363 . S
N3720 C3722 1.356 . S
N3720 H3732 0.984 . S
N3720 H3733 0.985 . S
N3721 C3723 1.356 . S
N3721 H3726 0.984 . S
N3721 H3727 0.985 . S
C3722 C3716 1.379 . S
C3722 C3719 1.363 . S
C3722 N3720 1.356 . S
C3723 C3717 1.363 . S
C3723 C3718 1.379 . S
C3723 N3721 1.356 . S
N3724 C3716 1.356 . S
N3724 H3730 0.984 . S
N3724 H3731 0.984 . S
N3725 C3718 1.356 . S
N3725 H3728 0.984 . S
N3725 H3729 0.985 . S
H3726 N3721 0.984 . S
H3727 N3721 0.985 . S
H3728 N3725 0.984 . S
H3729 N3725 0.985 . S
H3730 N3724 0.984 . S
H3731 N3724 0.984 . S
H3732 N3720 0.984 . S
H3733 N3720 0.985 . S
C3734 C3735 1.363 . S
C3734 C3740 1.379 1_655 S
C3734 N3742 1.356 . S
C3735 C3734 1.363 . S
C3735 C3741 1.363 . S
C3736 C3737 1.363 . S
C3736 C3741 1.379 1_455 S
C3736 N3743 1.356 . S
C3737 C3736 1.363 . S
C3737 C3740 1.363 . S
N3738 C3740 1.356 . S
N3738 H3750 0.984 . S
N3738 H3751 0.985 . S
N3739 C3741 1.356 . S
N3739 H3744 0.984 . S
N3739 H3745 0.985 . S
C3740 C3734 1.379 1_455 S
C3740 C3737 1.363 . S
C3740 N3738 1.356 . S
C3741 C3735 1.363 . S
C3741 C3736 1.379 1_655 S
C3741 N3739 1.356 . S
N3742 C3734 1.356 . S
N3742 H3748 0.984 . S
N3742 H3749 0.984 . S
N3743 C3736 1.356 . S
N3743 H3746 0.984 . S
N3743 H3747 0.985 . S
H3744 N3739 0.984 . S
H3745 N3739 0.985 . S
H3746 N3743 0.984 . S
H3747 N3743 0.985 . S
H3748 N3742 0.984 . S
H3749 N3742 0.984 . S
H3750 N3738 0.984 . S
H3751 N3738 0.985 . S
C3752 C3753 1.363 . S
C3752 C3758 1.379 . S
C3752 N3760 1.356 . S
C3753 C3752 1.363 . S
C3753 C3759 1.363 . S
C3754 C3755 1.363 . S
C3754 C3759 1.379 . S
C3754 N3761 1.356 . S
C3755 C3754 1.363 . S
C3755 C3758 1.363 . S
N3756 C3758 1.356 . S
N3756 H3768 0.984 . S
N3756 H3769 0.985 . S
N3757 C3759 1.356 . S
N3757 H3762 0.984 . S
N3757 H3763 0.985 . S
C3758 C3752 1.379 . S
C3758 C3755 1.363 . S
C3758 N3756 1.356 . S
C3759 C3753 1.363 . S
C3759 C3754 1.379 . S
C3759 N3757 1.356 . S
N3760 C3752 1.356 . S
N3760 H3766 0.984 . S
N3760 H3767 0.984 . S
N3761 C3754 1.356 . S
N3761 H3764 0.984 . S
N3761 H3765 0.985 . S
H3762 N3757 0.984 . S
H3763 N3757 0.985 . S
H3764 N3761 0.984 . S
H3765 N3761 0.985 . S
H3766 N3760 0.984 . S
H3767 N3760 0.984 . S
H3768 N3756 0.984 . S
H3769 N3756 0.985 . S
C3770 C3771 1.363 . S
C3770 C3776 1.379 1_655 S
C3770 N3778 1.356 . S
C3771 C3770 1.363 . S
C3771 C3777 1.363 . S
C3772 C3773 1.363 . S
C3772 C3777 1.379 1_455 S
C3772 N3779 1.356 . S
C3773 C3772 1.363 . S
C3773 C3776 1.363 . S
N3774 C3776 1.356 . S
N3774 H3786 0.984 . S
N3774 H3787 0.985 . S
N3775 C3777 1.356 . S
N3775 H3780 0.984 . S
N3775 H3781 0.985 . S
C3776 C3770 1.379 1_455 S
C3776 C3773 1.363 . S
C3776 N3774 1.356 . S
C3777 C3771 1.363 . S
C3777 C3772 1.379 1_655 S
C3777 N3775 1.356 . S
N3778 C3770 1.356 . S
N3778 H3784 0.984 . S
N3778 H3785 0.984 . S
N3779 C3772 1.356 . S
N3779 H3782 0.984 . S
N3779 H3783 0.985 . S
H3780 N3775 0.984 . S
H3781 N3775 0.985 . S
H3782 N3779 0.984 . S
H3783 N3779 0.985 . S
H3784 N3778 0.984 . S
H3785 N3778 0.984 . S
H3786 N3774 0.984 . S
H3787 N3774 0.985 . S
C3788 C3789 1.363 . S
C3788 C3794 1.379 . S
C3788 N3796 1.356 . S
C3789 C3788 1.363 . S
C3789 C3795 1.363 . S
C3790 C3791 1.363 . S
C3790 C3795 1.379 . S
C3790 N3797 1.356 . S
C3791 C3790 1.363 . S
C3791 C3794 1.363 . S
N3792 C3794 1.356 . S
N3792 H3804 0.984 . S
N3792 H3805 0.985 . S
N3793 C3795 1.356 . S
N3793 H3798 0.984 . S
N3793 H3799 0.985 . S
C3794 C3788 1.379 . S
C3794 C3791 1.363 . S
C3794 N3792 1.356 . S
C3795 C3789 1.363 . S
C3795 C3790 1.379 . S
C3795 N3793 1.356 . S
N3796 C3788 1.356 . S
N3796 H3802 0.984 . S
N3796 H3803 0.984 . S
N3797 C3790 1.356 . S
N3797 H3800 0.984 . S
N3797 H3801 0.985 . S
H3798 N3793 0.984 . S
H3799 N3793 0.985 . S
H3800 N3797 0.984 . S
H3801 N3797 0.985 . S
H3802 N3796 0.984 . S
H3803 N3796 0.984 . S
H3804 N3792 0.984 . S
H3805 N3792 0.985 . S
C3806 C3807 1.363 . S
C3806 C3812 1.379 . S
C3806 N3814 1.356 . S
C3807 C3806 1.363 . S
C3807 C3813 1.363 . S
C3808 C3809 1.363 . S
C3808 C3813 1.379 . S
C3808 N3815 1.356 . S
C3809 C3808 1.363 . S
C3809 C3812 1.363 . S
N3810 C3812 1.356 . S
N3810 H3822 0.984 . S
N3810 H3823 0.985 . S
N3811 C3813 1.356 . S
N3811 H3816 0.984 . S
N3811 H3817 0.985 . S
C3812 C3806 1.379 . S
C3812 C3809 1.363 . S
C3812 N3810 1.356 . S
C3813 C3807 1.363 . S
C3813 C3808 1.379 . S
C3813 N3811 1.356 . S
N3814 C3806 1.356 . S
N3814 H3820 0.984 . S
N3814 H3821 0.984 . S
N3815 C3808 1.356 . S
N3815 H3818 0.984 . S
N3815 H3819 0.985 . S
H3816 N3811 0.984 . S
H3817 N3811 0.985 . S
H3818 N3815 0.984 . S
H3819 N3815 0.985 . S
H3820 N3814 0.984 . S
H3821 N3814 0.984 . S
H3822 N3810 0.984 . S
H3823 N3810 0.985 . S
C3824 C3825 1.363 . S
C3824 C3830 1.379 . S
C3824 N3832 1.356 . S
C3825 C3824 1.363 . S
C3825 C3831 1.363 . S
C3826 C3827 1.363 . S
C3826 C3831 1.379 . S
C3826 N3833 1.356 . S
C3827 C3826 1.363 . S
C3827 C3830 1.363 . S
N3828 C3830 1.356 . S
N3828 H3840 0.984 . S
N3828 H3841 0.985 . S
N3829 C3831 1.356 . S
N3829 H3834 0.984 . S
N3829 H3835 0.985 . S
C3830 C3824 1.379 . S
C3830 C3827 1.363 . S
C3830 N3828 1.356 . S
C3831 C3825 1.363 . S
C3831 C3826 1.379 . S
C3831 N3829 1.356 . S
N3832 C3824 1.356 . S
N3832 H3838 0.984 . S
N3832 H3839 0.984 . S
N3833 C3826 1.356 . S
N3833 H3836 0.984 . S
N3833 H3837 0.985 . S
H3834 N3829 0.984 . S
H3835 N3829 0.985 . S
H3836 N3833 0.984 . S
H3837 N3833 0.985 . S
H3838 N3832 0.984 . S
H3839 N3832 0.984 . S
H3840 N3828 0.984 . S
H3841 N3828 0.985 . S
C3842 C3843 1.363 . S
C3842 C3848 1.379 . S
C3842 N3850 1.356 . S
C3843 C3842 1.363 . S
C3843 C3849 1.363 . S
C3844 C3845 1.363 . S
C3844 C3849 1.379 . S
C3844 N3851 1.356 . S
C3845 C3844 1.363 . S
C3845 C3848 1.363 . S
N3846 C3848 1.356 . S
N3846 H3858 0.984 . S
N3846 H3859 0.985 . S
N3847 C3849 1.356 . S
N3847 H3852 0.984 . S
N3847 H3853 0.985 . S
C3848 C3842 1.379 . S
C3848 C3845 1.363 . S
C3848 N3846 1.356 . S
C3849 C3843 1.363 . S
C3849 C3844 1.379 . S
C3849 N3847 1.356 . S
N3850 C3842 1.356 . S
N3850 H3856 0.984 . S
N3850 H3857 0.984 . S
N3851 C3844 1.356 . S
N3851 H3854 0.984 . S
N3851 H3855 0.985 . S
H3852 N3847 0.984 . S
H3853 N3847 0.985 . S
H3854 N3851 0.984 . S
H3855 N3851 0.985 . S
H3856 N3850 0.984 . S
H3857 N3850 0.984 . S
H3858 N3846 0.984 . S
H3859 N3846 0.985 . S
C3860 C3861 1.363 . S
C3860 C3866 1.379 . S
C3860 N3868 1.356 . S
C3861 C3860 1.363 . S
C3861 C3867 1.363 . S
C3862 C3863 1.363 . S
C3862 C3867 1.379 . S
C3862 N3869 1.356 . S
C3863 C3862 1.363 . S
C3863 C3866 1.363 . S
N3864 C3866 1.356 . S
N3864 H3876 0.984 . S
N3864 H3877 0.985 . S
N3865 C3867 1.356 . S
N3865 H3870 0.984 . S
N3865 H3871 0.985 . S
C3866 C3860 1.379 . S
C3866 C3863 1.363 . S
C3866 N3864 1.356 . S
C3867 C3861 1.363 . S
C3867 C3862 1.379 . S
C3867 N3865 1.356 . S
N3868 C3860 1.356 . S
N3868 H3874 0.984 . S
N3868 H3875 0.984 . S
N3869 C3862 1.356 . S
N3869 H3872 0.984 . S
N3869 H3873 0.985 . S
H3870 N3865 0.984 . S
H3871 N3865 0.985 . S
H3872 N3869 0.984 . S
H3873 N3869 0.985 . S
H3874 N3868 0.984 . S
H3875 N3868 0.984 . S
H3876 N3864 0.984 . S
H3877 N3864 0.985 . S
C3878 C3879 1.363 . S
C3878 C3884 1.379 . S
C3878 N3886 1.356 . S
C3879 C3878 1.363 . S
C3879 C3885 1.363 . S
C3880 C3881 1.363 . S
C3880 C3885 1.379 . S
C3880 N3887 1.356 . S
C3881 C3880 1.363 . S
C3881 C3884 1.363 . S
N3882 C3884 1.356 . S
N3882 H3894 0.984 . S
N3882 H3895 0.985 . S
N3883 C3885 1.356 . S
N3883 H3888 0.984 . S
N3883 H3889 0.985 . S
C3884 C3878 1.379 . S
C3884 C3881 1.363 . S
C3884 N3882 1.356 . S
C3885 C3879 1.363 . S
C3885 C3880 1.379 . S
C3885 N3883 1.356 . S
N3886 C3878 1.356 . S
N3886 H3892 0.984 . S
N3886 H3893 0.984 . S
N3887 C3880 1.356 . S
N3887 H3890 0.984 . S
N3887 H3891 0.985 . S
H3888 N3883 0.984 . S
H3889 N3883 0.985 . S
H3890 N3887 0.984 . S
H3891 N3887 0.985 . S
H3892 N3886 0.984 . S
H3893 N3886 0.984 . S
H3894 N3882 0.984 . S
H3895 N3882 0.985 . S
C3896 C3897 1.363 . S
C3896 C3902 1.379 1_655 S
C3896 N3904 1.356 . S
C3897 C3896 1.363 . S
C3897 C3903 1.363 . S
C3898 C3899 1.363 . S
C3898 C3903 1.379 1_455 S
C3898 N3905 1.356 . S
C3899 C3898 1.363 . S
C3899 C3902 1.363 . S
N3900 C3902 1.356 . S
N3900 H3912 0.984 . S
N3900 H3913 0.985 . S
N3901 C3903 1.356 . S
N3901 H3906 0.984 . S
N3901 H3907 0.985 . S
C3902 C3896 1.379 1_455 S
C3902 C3899 1.363 . S
C3902 N3900 1.356 . S
C3903 C3897 1.363 . S
C3903 C3898 1.379 1_655 S
C3903 N3901 1.356 . S
N3904 C3896 1.356 . S
N3904 H3910 0.984 . S
N3904 H3911 0.984 . S
N3905 C3898 1.356 . S
N3905 H3908 0.984 . S
N3905 H3909 0.985 . S
H3906 N3901 0.984 . S
H3907 N3901 0.985 . S
H3908 N3905 0.984 . S
H3909 N3905 0.985 . S
H3910 N3904 0.984 . S
H3911 N3904 0.984 . S
H3912 N3900 0.984 . S
H3913 N3900 0.985 . S
C3914 C3915 1.363 . S
C3914 C3920 1.379 . S
C3914 N3922 1.356 . S
C3915 C3914 1.363 . S
C3915 C3921 1.363 . S
C3916 C3917 1.363 . S
C3916 C3921 1.379 . S
C3916 N3923 1.356 . S
C3917 C3916 1.363 . S
C3917 C3920 1.363 . S
N3918 C3920 1.356 . S
N3918 H3930 0.984 . S
N3918 H3931 0.985 . S
N3919 C3921 1.356 . S
N3919 H3924 0.984 . S
N3919 H3925 0.985 . S
C3920 C3914 1.379 . S
C3920 C3917 1.363 . S
C3920 N3918 1.356 . S
C3921 C3915 1.363 . S
C3921 C3916 1.379 . S
C3921 N3919 1.356 . S
N3922 C3914 1.356 . S
N3922 H3928 0.984 . S
N3922 H3929 0.984 . S
N3923 C3916 1.356 . S
N3923 H3926 0.984 . S
N3923 H3927 0.985 . S
H3924 N3919 0.984 . S
H3925 N3919 0.985 . S
H3926 N3923 0.984 . S
H3927 N3923 0.985 . S
H3928 N3922 0.984 . S
H3929 N3922 0.984 . S
H3930 N3918 0.984 . S
H3931 N3918 0.985 . S
C3932 C3933 1.363 . S
C3932 C3938 1.379 . S
C3932 N3940 1.356 . S
C3933 C3932 1.363 . S
C3933 C3939 1.363 . S
C3934 C3935 1.363 . S
C3934 C3939 1.379 . S
C3934 N3941 1.356 . S
C3935 C3934 1.363 . S
C3935 C3938 1.363 . S
N3936 C3938 1.356 . S
N3936 H3948 0.984 . S
N3936 H3949 0.985 . S
N3937 C3939 1.356 . S
N3937 H3942 0.984 . S
N3937 H3943 0.985 . S
C3938 C3932 1.379 . S
C3938 C3935 1.363 . S
C3938 N3936 1.356 . S
C3939 C3933 1.363 . S
C3939 C3934 1.379 . S
C3939 N3937 1.356 . S
N3940 C3932 1.356 . S
N3940 H3946 0.984 . S
N3940 H3947 0.984 . S
N3941 C3934 1.356 . S
N3941 H3944 0.984 . S
N3941 H3945 0.985 . S
H3942 N3937 0.984 . S
H3943 N3937 0.985 . S
H3944 N3941 0.984 . S
H3945 N3941 0.985 . S
H3946 N3940 0.984 . S
H3947 N3940 0.984 . S
H3948 N3936 0.984 . S
H3949 N3936 0.985 . S
C3950 C3951 1.363 . S
C3950 C3956 1.379 1_655 S
C3950 N3958 1.356 . S
C3951 C3950 1.363 . S
C3951 C3957 1.363 . S
C3952 C3953 1.363 . S
C3952 C3957 1.379 1_455 S
C3952 N3959 1.356 . S
C3953 C3952 1.363 . S
C3953 C3956 1.363 . S
N3954 C3956 1.356 . S
N3954 H3966 0.984 . S
N3954 H3967 0.985 . S
N3955 C3957 1.356 . S
N3955 H3960 0.984 . S
N3955 H3961 0.985 . S
C3956 C3950 1.379 1_455 S
C3956 C3953 1.363 . S
C3956 N3954 1.356 . S
C3957 C3951 1.363 . S
C3957 C3952 1.379 1_655 S
C3957 N3955 1.356 . S
N3958 C3950 1.356 . S
N3958 H3964 0.984 . S
N3958 H3965 0.984 . S
N3959 C3952 1.356 . S
N3959 H3962 0.984 . S
N3959 H3963 0.985 . S
H3960 N3955 0.984 . S
H3961 N3955 0.985 . S
H3962 N3959 0.984 . S
H3963 N3959 0.985 . S
H3964 N3958 0.984 . S
H3965 N3958 0.984 . S
H3966 N3954 0.984 . S
H3967 N3954 0.985 . S
C2817 C2073 1.652 . S
C2819 C29 1.652 . S
C2835 C1817 1.652 . S
C2837 C117 1.652 . S
C2853 C1905 1.652 . S
C2855 C196 1.652 . S
C2871 C1985 1.652 . S
C2873 C284 1.652 . S
C2889 C409 1.652 . S
C2891 C1516 1.652 . S
C2907 C1604 1.652 . S
C2909 C497 1.652 . S
C2925 C577 1.652 . S
C2927 C1701 1.652 . S
C2943 C673 1.652 . S
C2945 C1437 1.652 . S
C2961 C2757 1.648 . S
C2963 C724 1.647 . S
C2979 C841 1.648 . S
C2981 C2521 1.648 . S
C2997 C929 1.648 . S
C2999 C2581 1.648 . S
C3015 C1017 1.648 . S
C3017 C2669 1.647 . S
C3033 C1113 1.647 . S
C3035 C2249 1.648 . S
C3051 C1173 1.648 . S
C3053 C2337 1.647 . S
C3069 C1261 1.648 . S
C3071 C2425 1.648 . S
C3087 C1369 1.648 . S
C3089 C2132 1.648 . S
C3105 C57 1.586 . S
C3107 C1085 1.585 . S
C3123 C2609 1.585 . S
C3125 C145 1.586 . S
C3141 C225 1.586 . S
C3143 C1289 1.585 . S
C3159 C2785 1.585 . S
C3161 C313 1.586 . S
C3177 C753 1.585 . S
C3179 C381 1.586 . S
C3195 C469 1.586 . S
C3197 C2220 1.585 . S
C3213 C548 1.586 . S
C3215 C900 1.585 . S
C3231 C645 1.586 . S
C3233 C2396 1.585 . S
C3249 C1877 1.586 . S
C3251 C812 1.585 . S
C3267 C2044 1.586 . S
C3269 C988 1.585 . S
C3285 C1201 1.585 . S
C3287 C1545 1.586 . S
C3303 C1729 1.586 . S
C3305 C1340 1.585 . S
C3321 C2493 1.585 . S
C3323 C1465 1.586 . S
C3339 C1633 1.586 . S
C3341 C2697 1.585 . S
C3357 C2161 1.585 . S
C3359 C1789 1.586 . S
C3375 C2308 1.585 . S
C3377 C1956 1.586 . S
C3393 C372 1.148 . S
C3395 C49 1.148 . S
C3411 C460 1.149 . S
C3413 C137 1.149 . S
C3429 C233 1.148 . S
C3431 C557 1.148 . S
C3447 C321 1.149 . S
C3449 C636 1.149 . S
C3465 C1105 1.145 . S
C3467 C733 1.145 . S
C3483 C1164 1.146 . S
C3485 C849 1.146 . S
C3501 C1252 1.145 . S
C3503 C937 1.145 . S
C3519 C1025 1.146 . S
C3521 C1377 1.146 . S
C3537 C1457 1.148 . S
C3539 C1780 1.148 . S
C3555 C1553 1.149 . S
C3557 C1868 1.149 . S
C3573 C1641 1.148 . S
C3575 C1965 1.148 . S
C3591 C1721 1.149 . S
C3593 C2053 1.149 . S
C3609 C2513 1.145 . S
C3611 C2141 1.145 . S
C3627 C2572 1.146 . S
C3629 C2257 1.146 . S
C3645 C2660 1.145 . S
C3647 C2345 1.145 . S
C3663 C2748 1.146 . S
C3665 C2433 1.146 . S
C3681 C2689 1.489 . S
C3683 C20 1.489 . S
C3699 C108 1.490 . S
C3701 C1349 1.490 . S
C3717 C2484 1.489 . S
C3719 C205 1.489 . S
C3735 C293 1.490 . S
C3737 C1193 1.489 . S
C3753 C2317 1.489 . S
C3755 C401 1.489 . S
C3771 C489 1.490 . S
C3773 C997 1.489 . S
C3789 C585 1.489 . S
C3791 C2169 1.489 . S
C3807 C821 1.490 . S
C3809 C665 1.490 . S
C3825 C761 1.489 . S
C3827 C1993 1.489 . S
C3843 C1809 1.489 . S
C3845 C909 1.489 . S
C3861 C1076 1.489 . S
C3863 C1613 1.489 . S
C3879 C1281 1.489 . S
C3881 C1428 1.489 . S
C3897 C2777 1.489 . S
C3899 C1525 1.490 . S
C3915 C1692 1.490 . S
C3917 C2601 1.490 . S
C3933 C1897 1.490 . S
C3935 C2405 1.490 . S
C3951 C2229 1.489 . S
C3953 C2081 1.490 . S
