# Generated by pormake.
# Topology gsi, (4)-cn, num edge types: 1
# Building blocks:
#     Node 0, Type 0, BuildingBlock: TATPOV_clean_sbu_0, # of connection points: 4
#     Node 1, Type 0, BuildingBlock: TATPOV_clean_sbu_0, # of connection points: 4
#     Node 2, Type 0, BuildingBlock: TATPOV_clean_sbu_0, # of connection points: 4
#     Node 3, Type 0, BuildingBlock: TATPOV_clean_sbu_0, # of connection points: 4
#     Node 4, Type 0, BuildingBlock: TATPOV_clean_sbu_0, # of connection points: 4
#     Node 5, Type 0, BuildingBlock: TATPOV_clean_sbu_0, # of connection points: 4
#     Node 6, Type 0, BuildingBlock: TATPOV_clean_sbu_0, # of connection points: 4
#     Node 7, Type 0, BuildingBlock: TATPOV_clean_sbu_0, # of connection points: 4
#     Node 8, Type 0, BuildingBlock: TATPOV_clean_sbu_0, # of connection points: 4
#     Node 9, Type 0, BuildingBlock: TATPOV_clean_sbu_0, # of connection points: 4
#     Node 10, Type 0, BuildingBlock: TATPOV_clean_sbu_0, # of connection points: 4
#     Node 11, Type 0, BuildingBlock: TATPOV_clean_sbu_0, # of connection points: 4
#     Node 12, Type 0, BuildingBlock: TATPOV_clean_sbu_0, # of connection points: 4
#     Node 13, Type 0, BuildingBlock: TATPOV_clean_sbu_0, # of connection points: 4
#     Node 14, Type 0, BuildingBlock: TATPOV_clean_sbu_0, # of connection points: 4
#     Node 15, Type 0, BuildingBlock: TATPOV_clean_sbu_0, # of connection points: 4
#     Edge 16, Type (0, 0), BuildingBlock: EZIPEK_clean_linker_0, # of connection points: 2
#     Edge 17, Type (0, 0), BuildingBlock: EZIPEK_clean_linker_0, # of connection points: 2
#     Edge 18, Type (0, 0), BuildingBlock: EZIPEK_clean_linker_0, # of connection points: 2
#     Edge 19, Type (0, 0), BuildingBlock: EZIPEK_clean_linker_0, # of connection points: 2
#     Edge 20, Type (0, 0), BuildingBlock: EZIPEK_clean_linker_0, # of connection points: 2
#     Edge 21, Type (0, 0), BuildingBlock: EZIPEK_clean_linker_0, # of connection points: 2
#     Edge 22, Type (0, 0), BuildingBlock: EZIPEK_clean_linker_0, # of connection points: 2
#     Edge 23, Type (0, 0), BuildingBlock: EZIPEK_clean_linker_0, # of connection points: 2
#     Edge 24, Type (0, 0), BuildingBlock: EZIPEK_clean_linker_0, # of connection points: 2
#     Edge 25, Type (0, 0), BuildingBlock: EZIPEK_clean_linker_0, # of connection points: 2
#     Edge 26, Type (0, 0), BuildingBlock: EZIPEK_clean_linker_0, # of connection points: 2
#     Edge 27, Type (0, 0), BuildingBlock: EZIPEK_clean_linker_0, # of connection points: 2
#     Edge 28, Type (0, 0), BuildingBlock: EZIPEK_clean_linker_0, # of connection points: 2
#     Edge 29, Type (0, 0), BuildingBlock: EZIPEK_clean_linker_0, # of connection points: 2
#     Edge 30, Type (0, 0), BuildingBlock: EZIPEK_clean_linker_0, # of connection points: 2
#     Edge 31, Type (0, 0), BuildingBlock: EZIPEK_clean_linker_0, # of connection points: 2
#     Edge 32, Type (0, 0), BuildingBlock: EZIPEK_clean_linker_0, # of connection points: 2
#     Edge 33, Type (0, 0), BuildingBlock: EZIPEK_clean_linker_0, # of connection points: 2
#     Edge 34, Type (0, 0), BuildingBlock: EZIPEK_clean_linker_0, # of connection points: 2
#     Edge 35, Type (0, 0), BuildingBlock: EZIPEK_clean_linker_0, # of connection points: 2
#     Edge 36, Type (0, 0), BuildingBlock: EZIPEK_clean_linker_0, # of connection points: 2
#     Edge 37, Type (0, 0), BuildingBlock: EZIPEK_clean_linker_0, # of connection points: 2
#     Edge 38, Type (0, 0), BuildingBlock: EZIPEK_clean_linker_0, # of connection points: 2
#     Edge 39, Type (0, 0), BuildingBlock: EZIPEK_clean_linker_0, # of connection points: 2
#     Edge 40, Type (0, 0), BuildingBlock: EZIPEK_clean_linker_0, # of connection points: 2
#     Edge 41, Type (0, 0), BuildingBlock: EZIPEK_clean_linker_0, # of connection points: 2
#     Edge 42, Type (0, 0), BuildingBlock: EZIPEK_clean_linker_0, # of connection points: 2
#     Edge 43, Type (0, 0), BuildingBlock: EZIPEK_clean_linker_0, # of connection points: 2
#     Edge 44, Type (0, 0), BuildingBlock: EZIPEK_clean_linker_0, # of connection points: 2
#     Edge 45, Type (0, 0), BuildingBlock: EZIPEK_clean_linker_0, # of connection points: 2
#     Edge 46, Type (0, 0), BuildingBlock: EZIPEK_clean_linker_0, # of connection points: 2
#     Edge 47, Type (0, 0), BuildingBlock: EZIPEK_clean_linker_0, # of connection points: 2
# Relax obj value: 0.038
# Max RMSD: 0.070
# Mean RMSD: 0.055
data_MOF--net-gsi--node1-TATPOV_clean_sbu_0--edge1-EZIPEK_clean_linker_0
_symmetry_space_group_name_H-M    P1
_symmetry_Int_Tables_number       1
_symmetry_cell_setting            triclinic
loop_
_symmetry_equiv_pos_as_xyz
'x, y, z'
_cell_length_a     31.010369
_cell_length_b     31.259408
_cell_length_c     31.694741
_cell_angle_alpha  90.509713
_cell_angle_beta   90.071994
_cell_angle_gamma 92.047631
loop_
_atom_site_label
_atom_site_type_symbol
_atom_site_fract_x
_atom_site_fract_y
_atom_site_fract_z
_atom_type_partial_charge
Zn0 Zn 0.08386 0.1686 0.19518 0.0
Zn1 Zn 0.14212 0.13811 0.1426 0.0
O2 O 0.1173 0.08331 0.17002 0.0
O3 O 0.07473 0.10931 0.2183 0.0
O4 O 0.18685 0.1201 0.10013 0.0
O5 O 0.04864 0.18949 0.14741 0.0
O6 O 0.1024 0.17412 0.10536 0.0
C7 C 0.09163 0.07733 0.20104 0.0
C8 C 0.16854 0.20072 0.21342 0.0
O9 O 0.17764 0.17286 0.18562 0.0
O10 O 0.12955 0.20852 0.22107 0.0
C11 C 0.22431 0.10714 0.10855 0.0
O12 O 0.23629 0.10269 0.14798 0.0
C13 C 0.0661 0.19094 0.11141 0.0
Zn14 Zn 0.95002 0.33395 0.19848 0.0
Zn15 Zn 0.88951 0.35855 0.14237 0.0
O16 O 0.90319 0.41236 0.1785 0.0
O17 O 0.95698 0.39457 0.2198 0.0
O18 O 0.8449 0.37449 0.09932 0.0
O19 O 0.98552 0.31258 0.15062 0.0
O20 O 0.93601 0.33134 0.10519 0.0
C21 C 0.93002 0.42151 0.20806 0.0
C22 C 0.86607 0.2931 0.20995 0.0
O23 O 0.85671 0.31522 0.17799 0.0
O24 O 0.90398 0.29437 0.225 0.0
C25 C 0.80494 0.37714 0.10751 0.0
O26 O 0.79105 0.37232 0.14636 0.0
C27 C 0.97178 0.31433 0.1131 0.0
Zn28 Zn 0.21825 0.91213 0.34776 0.0
Zn29 Zn 0.14161 0.87157 0.36831 0.0
O30 O 0.17252 0.88175 0.42551 0.0
O31 O 0.23219 0.9189 0.40984 0.0
O32 O 0.08385 0.84329 0.38174 0.0
O33 O 0.18533 0.95525 0.31441 0.0
O34 O 0.12421 0.92184 0.33196 0.0
C35 C 0.20775 0.90089 0.43682 0.0
C36 C 0.20738 0.82592 0.31471 0.0
O37 O 0.1705 0.82714 0.33209 0.0
O38 O 0.23432 0.85724 0.31785 0.0
C39 C 0.07999 0.8042 0.3922 0.0
O40 O 0.11465 0.78192 0.39763 0.0
C41 C 0.1446 0.95136 0.31209 0.0
Zn42 Zn 0.79149 0.5889 0.33919 0.0
Zn43 Zn 0.85747 0.64492 0.35383 0.0
O44 O 0.83469 0.63118 0.41369 0.0
O45 O 0.77937 0.5863 0.40149 0.0
O46 O 0.9099 0.68399 0.3628 0.0
O47 O 0.83005 0.54789 0.31125 0.0
O48 O 0.8836 0.59561 0.31953 0.0
C49 C 0.80288 0.60807 0.42699 0.0
C50 C 0.77994 0.67149 0.30245 0.0
O51 O 0.81549 0.6815 0.32082 0.0
O52 O 0.76413 0.63364 0.30418 0.0
C53 C 0.91518 0.71138 0.39239 0.0
O54 O 0.88449 0.7166 0.4203 0.0
C55 C 0.86891 0.55975 0.3053 0.0
Zn56 Zn 0.41799 0.82158 0.69917 0.0
Zn57 Zn 0.37246 0.85117 0.6406 0.0
O58 O 0.39767 0.90711 0.66638 0.0
O59 O 0.41666 0.87995 0.72693 0.0
O60 O 0.33501 0.86822 0.59162 0.0
O61 O 0.4647 0.80454 0.65996 0.0
O62 O 0.4149 0.81082 0.61129 0.0
C63 C 0.40884 0.9123 0.7048 0.0
C64 C 0.33379 0.78982 0.70532 0.0
O65 O 0.32928 0.82182 0.68136 0.0
O66 O 0.37132 0.77727 0.71269 0.0
C67 C 0.29698 0.88183 0.59506 0.0
O68 O 0.28012 0.88742 0.63261 0.0
C69 C 0.45134 0.79744 0.62278 0.0
Zn70 Zn 0.9042 0.82703 0.79384 0.0
Zn71 Zn 0.84997 0.83568 0.85885 0.0
O72 O 0.90468 0.80784 0.88268 0.0
O73 O 0.95167 0.80894 0.83068 0.0
O74 O 0.81189 0.84099 0.91121 0.0
O75 O 0.89627 0.88748 0.77721 0.0
O76 O 0.85232 0.89555 0.83125 0.0
C77 C 0.94194 0.79986 0.86832 0.0
C78 C 0.82619 0.77744 0.78404 0.0
O79 O 0.81641 0.79599 0.81846 0.0
O80 O 0.8634 0.78253 0.76814 0.0
C81 C 0.78117 0.81422 0.91956 0.0
O82 O 0.77192 0.78266 0.89312 0.0
C83 C 0.87087 0.91017 0.79815 0.0
Zn84 Zn 0.10205 0.6568 0.77447 0.0
Zn85 Zn 0.14628 0.63737 0.84437 0.0
O86 O 0.09407 0.66635 0.86991 0.0
O87 O 0.06142 0.68859 0.8127 0.0
O88 O 0.18016 0.61892 0.89531 0.0
O89 O 0.09205 0.59547 0.758 0.0
O90 O 0.1352 0.58087 0.811 0.0
C91 C 0.0644 0.68698 0.8525 0.0
C92 C 0.18766 0.69481 0.77749 0.0
O93 O 0.18685 0.68082 0.81509 0.0
O94 O 0.15651 0.6858 0.75276 0.0
C95 C 0.18067 0.64232 0.92831 0.0
O96 O 0.16075 0.6787 0.92796 0.0
C97 C 0.11322 0.56888 0.77865 0.0
Zn98 Zn 0.73889 0.0971 0.66388 0.0
Zn99 Zn 0.82057 0.12819 0.64546 0.0
O100 O 0.83291 0.07353 0.67769 0.0
O101 O 0.76741 0.04781 0.69225 0.0
O102 O 0.87908 0.1537 0.63032 0.0
O103 O 0.72408 0.09952 0.60152 0.0
O104 O 0.79069 0.12213 0.58798 0.0
C105 C 0.80804 0.04578 0.69535 0.0
C106 C 0.76056 0.17688 0.70442 0.0
O107 O 0.79599 0.1736 0.6846 0.0
O108 O 0.73045 0.14875 0.70052 0.0
C109 C 0.9032 0.168 0.65999 0.0
O110 O 0.8906 0.16355 0.69929 0.0
C111 C 0.75264 0.11201 0.5754 0.0
Zn112 Zn 0.1023 0.30686 0.74342 0.0
Zn113 Zn 0.14534 0.31397 0.67177 0.0
O114 O 0.0894 0.28091 0.65224 0.0
O115 O 0.05653 0.27171 0.7135 0.0
O116 O 0.18188 0.3235 0.61888 0.0
O117 O 0.09671 0.36895 0.75161 0.0
O118 O 0.13686 0.37608 0.69448 0.0
C119 C 0.05792 0.26571 0.67403 0.0
C120 C 0.1817 0.26606 0.74764 0.0
O121 O 0.18318 0.27583 0.70867 0.0
O122 O 0.15126 0.27854 0.77064 0.0
C123 C 0.19532 0.29252 0.59676 0.0
O124 O 0.18477 0.25304 0.60754 0.0
C125 C 0.11687 0.39249 0.72558 0.0
Zn126 Zn 0.62254 0.18421 0.25476 0.0
Zn127 Zn 0.65741 0.14763 0.32521 0.0
O128 O 0.6061 0.18032 0.34876 0.0
O129 O 0.57928 0.2119 0.29307 0.0
O130 O 0.6842 0.12321 0.37743 0.0
O131 O 0.6118 0.12464 0.23079 0.0
O132 O 0.64178 0.09635 0.28693 0.0
C133 C 0.5788 0.20458 0.33228 0.0
C134 C 0.71195 0.20729 0.26878 0.0
O135 O 0.70738 0.18387 0.30118 0.0
O136 O 0.68072 0.21287 0.24391 0.0
C137 C 0.6877 0.14833 0.40911 0.0
O138 O 0.67409 0.18749 0.40593 0.0
C139 C 0.62408 0.0923 0.25072 0.0
Zn140 Zn 0.59829 0.65218 0.70504 0.0
Zn141 Zn 0.64479 0.62654 0.63691 0.0
O142 O 0.63114 0.56943 0.66661 0.0
O143 O 0.60032 0.59169 0.72505 0.0
O144 O 0.68176 0.61343 0.58653 0.0
O145 O 0.55461 0.67471 0.66462 0.0
O146 O 0.59534 0.65866 0.61021 0.0
C147 C 0.6167 0.56206 0.70359 0.0
C148 C 0.68317 0.68743 0.70499 0.0
O149 O 0.68613 0.66428 0.67203 0.0
O150 O 0.64789 0.69002 0.72461 0.0
C151 C 0.72155 0.60532 0.58943 0.0
O152 O 0.7397 0.6025 0.62669 0.0
C153 C 0.56212 0.67577 0.62539 0.0
Zn154 Zn 0.73372 0.39386 0.86227 0.0
Zn155 Zn 0.65666 0.35365 0.87546 0.0
O156 O 0.68184 0.36556 0.93558 0.0
O157 O 0.74551 0.39714 0.92426 0.0
O158 O 0.59825 0.32468 0.88484 0.0
O159 O 0.70409 0.44017 0.83108 0.0
O160 O 0.64272 0.40287 0.83576 0.0
C161 C 0.71751 0.38189 0.94945 0.0
C162 C 0.72549 0.31045 0.82384 0.0
O163 O 0.68848 0.30962 0.84116 0.0
O164 O 0.75129 0.34248 0.82814 0.0
C165 C 0.59379 0.28935 0.90418 0.0
O166 O 0.62773 0.27173 0.92053 0.0
C167 C 0.66477 0.43443 0.82099 0.0
Zn168 Zn 0.30879 0.06884 0.86944 0.0
Zn169 Zn 0.37239 0.12345 0.87861 0.0
O170 O 0.35151 0.11095 0.93995 0.0
O171 O 0.29499 0.06703 0.93091 0.0
O172 O 0.42684 0.16026 0.88517 0.0
O173 O 0.342 0.02454 0.84017 0.0
O174 O 0.39219 0.07595 0.8372 0.0
C175 C 0.31924 0.08958 0.95498 0.0
C176 C 0.29463 0.15066 0.83112 0.0
O177 O 0.32995 0.16198 0.84922 0.0
O178 O 0.28038 0.11225 0.83314 0.0
C179 C 0.4296 0.1949 0.90647 0.0
O180 O 0.39562 0.20849 0.92655 0.0
C181 C 0.37771 0.03885 0.82611 0.0
Zn182 Zn 0.38696 0.33888 0.30471 0.0
Zn183 Zn 0.3505 0.33865 0.37518 0.0
O184 O 0.40943 0.31198 0.38951 0.0
O185 O 0.43353 0.30235 0.32481 0.0
O186 O 0.31753 0.34167 0.43089 0.0
O187 O 0.39717 0.40092 0.29983 0.0
O188 O 0.35089 0.40157 0.3517 0.0
C189 C 0.43729 0.29728 0.3641 0.0
C190 C 0.30766 0.29399 0.29999 0.0
O191 O 0.31184 0.29697 0.3399 0.0
O192 O 0.33434 0.31371 0.27645 0.0
C193 C 0.3068 0.30743 0.45034 0.0
O194 O 0.31915 0.27049 0.43547 0.0
C195 C 0.37238 0.42174 0.32324 0.0
Zn196 Zn 0.23534 0.59148 0.18111 0.0
Zn197 Zn 0.31382 0.63068 0.16427 0.0
O198 O 0.32697 0.58168 0.20397 0.0
O199 O 0.26611 0.54395 0.21116 0.0
O200 O 0.37259 0.6567 0.15092 0.0
O201 O 0.22219 0.59224 0.11821 0.0
O202 O 0.28738 0.61959 0.10589 0.0
C203 C 0.30584 0.55 0.21964 0.0
C204 C 0.24804 0.67677 0.21668 0.0
O205 O 0.28382 0.67665 0.19719 0.0
O206 O 0.22217 0.64446 0.21575 0.0
C207 C 0.37891 0.69692 0.14749 0.0
O208 O 0.34597 0.7221 0.15004 0.0
C209 C 0.2504 0.60658 0.0926 0.0
Zn210 Zn 0.59172 0.83613 0.22043 0.0
Zn211 Zn 0.62869 0.83383 0.14562 0.0
O212 O 0.57027 0.80126 0.13373 0.0
O213 O 0.54216 0.80075 0.19769 0.0
O214 O 0.65987 0.83708 0.08898 0.0
O215 O 0.58951 0.89892 0.22328 0.0
O216 O 0.62585 0.89811 0.16347 0.0
C217 C 0.54003 0.7902 0.15912 0.0
C218 C 0.66903 0.79127 0.22261 0.0
O219 O 0.66776 0.79748 0.18293 0.0
O220 O 0.64135 0.80749 0.24661 0.0
C221 C 0.68418 0.80785 0.0758 0.0
O222 O 0.68891 0.77348 0.09865 0.0
C223 C 0.6092 0.91859 0.1941 0.0
C224 C 0.19908 0.23578 0.27984 0.0
C225 C 0.20385 0.22402 0.23669 0.0
C226 C 0.27941 0.24755 0.24063 0.0
C227 C 0.27223 0.26752 0.28029 0.0
N228 N 0.21932 0.28921 0.33206 0.0
N229 N 0.2467 0.23266 0.17316 0.0
C230 C 0.2304 0.26412 0.29858 0.0
C231 C 0.24349 0.23387 0.2161 0.0
N232 N 0.16607 0.21892 0.30363 0.0
N233 N 0.32017 0.24025 0.2267 0.0
H234 H 0.21994 0.22805 0.15349 0.0
H235 H 0.27485 0.24231 0.15737 0.0
H236 H 0.3475 0.24575 0.24546 0.0
H237 H 0.32596 0.22333 0.19887 0.0
H238 H 0.16378 0.2247 0.33601 0.0
H239 H 0.14452 0.19504 0.29259 0.0
H240 H 0.18795 0.28939 0.34387 0.0
H241 H 0.2394 0.31362 0.34438 0.0
C242 C 0.81252 0.23189 0.20505 0.0
C243 C 0.83168 0.26594 0.2292 0.0
C244 C 0.77438 0.25872 0.28218 0.0
C245 C 0.75501 0.22514 0.25763 0.0
N246 N 0.76009 0.17252 0.20196 0.0
N247 N 0.83646 0.3067 0.29424 0.0
C248 C 0.77547 0.20952 0.22089 0.0
C249 C 0.8146 0.27746 0.26914 0.0
N250 N 0.82936 0.22155 0.16655 0.0
N251 N 0.75311 0.27425 0.31655 0.0
H252 H 0.86498 0.32254 0.28506 0.0
H253 H 0.82823 0.31312 0.32542 0.0
H254 H 0.72385 0.26097 0.32729 0.0
H255 H 0.76281 0.3019 0.33301 0.0
H256 H 0.8137 0.20122 0.14482 0.0
H257 H 0.85846 0.23485 0.15538 0.0
H258 H 0.77592 0.15699 0.17761 0.0
H259 H 0.73319 0.15507 0.21303 0.0
C260 C 0.23551 0.71199 0.28634 0.0
C261 C 0.2372 0.71473 0.24173 0.0
C262 C 0.22341 0.79124 0.2453 0.0
C263 C 0.21844 0.78784 0.28973 0.0
N264 N 0.21544 0.74484 0.35267 0.0
N265 N 0.22695 0.75432 0.17782 0.0
C266 C 0.22298 0.74808 0.31027 0.0
C267 C 0.22978 0.7537 0.22091 0.0
N268 N 0.24801 0.67558 0.3059 0.0
N269 N 0.22205 0.83033 0.2264 0.0
H270 H 0.23128 0.72734 0.15888 0.0
H271 H 0.21686 0.78047 0.1608 0.0
H272 H 0.21481 0.8583 0.24257 0.0
H273 H 0.23074 0.83572 0.19513 0.0
H274 H 0.25218 0.67315 0.33837 0.0
H275 H 0.25775 0.64854 0.28947 0.0
H276 H 0.21273 0.7158 0.36843 0.0
H277 H 0.20944 0.7711 0.372 0.0
C278 C 0.70958 0.70591 0.29401 0.0
C279 C 0.75372 0.70457 0.28282 0.0
C280 C 0.74398 0.76358 0.23355 0.0
C281 C 0.6988 0.76045 0.24092 0.0
N282 N 0.63809 0.71889 0.26882 0.0
N283 N 0.81188 0.72753 0.23668 0.0
C284 C 0.68141 0.72874 0.2684 0.0
C285 C 0.77083 0.73221 0.25115 0.0
N286 N 0.69464 0.68667 0.32998 0.0
N287 N 0.76146 0.79707 0.21118 0.0
H288 H 0.83225 0.70454 0.24825 0.0
H289 H 0.82433 0.74392 0.21066 0.0
H290 H 0.74297 0.82099 0.19842 0.0
H291 H 0.79459 0.80314 0.20851 0.0
H292 H 0.6633 0.69013 0.34108 0.0
H293 H 0.71475 0.67173 0.3513 0.0
H294 H 0.62472 0.69328 0.28582 0.0
H295 H 0.61628 0.73269 0.24838 0.0
C296 C 0.3004 0.74613 0.7644 0.0
C297 C 0.2957 0.76782 0.72545 0.0
C298 C 0.21824 0.75196 0.72954 0.0
C299 C 0.22484 0.72169 0.76191 0.0
N300 N 0.27767 0.68277 0.80184 0.0
N301 N 0.24874 0.77973 0.66543 0.0
C302 C 0.26746 0.71657 0.77719 0.0
C303 C 0.25421 0.76762 0.70629 0.0
N304 N 0.3349 0.75471 0.79029 0.0
N305 N 0.17828 0.76704 0.72164 0.0
H306 H 0.27437 0.78603 0.64504 0.0
H307 H 0.21884 0.77731 0.6503 0.0
H308 H 0.15168 0.76009 0.7408 0.0
H309 H 0.1733 0.7911 0.69974 0.0
H310 H 0.33748 0.74094 0.82002 0.0
H311 H 0.35724 0.7798 0.78508 0.0
H312 H 0.30937 0.67731 0.81083 0.0
H313 H 0.25626 0.65732 0.80843 0.0
C314 C 0.73953 0.7462 0.70412 0.0
C315 C 0.72217 0.70847 0.72281 0.0
C316 C 0.77492 0.71422 0.78019 0.0
C317 C 0.79279 0.75178 0.76129 0.0
N318 N 0.79738 0.80021 0.70212 0.0
N319 N 0.72747 0.65121 0.77282 0.0
C320 C 0.77692 0.76659 0.72208 0.0
C321 C 0.74106 0.69089 0.75923 0.0
N322 N 0.71901 0.76354 0.6704 0.0
N323 N 0.79013 0.70114 0.81833 0.0
H324 H 0.70275 0.63312 0.75808 0.0
H325 H 0.74278 0.63455 0.79648 0.0
H326 H 0.81716 0.71539 0.83309 0.0
H327 H 0.77494 0.67743 0.83642 0.0
H328 H 0.72673 0.7937 0.65836 0.0
H329 H 0.69203 0.7489 0.65589 0.0
H330 H 0.7905 0.8092 0.67137 0.0
H331 H 0.82336 0.81784 0.71501 0.0
C332 C 0.76571 0.24557 0.80361 0.0
C333 C 0.73575 0.27689 0.79307 0.0
C334 C 0.72361 0.24381 0.72354 0.0
C335 C 0.7545 0.21311 0.73354 0.0
N336 N 0.80893 0.18668 0.78021 0.0
N337 N 0.69125 0.31099 0.74163 0.0
C338 C 0.777 0.21475 0.77266 0.0
C339 C 0.71603 0.27744 0.75264 0.0
N340 N 0.78189 0.24437 0.84375 0.0
N341 N 0.70117 0.24044 0.68638 0.0
H342 H 0.6842 0.3359 0.76232 0.0
H343 H 0.68007 0.31601 0.71117 0.0
H344 H 0.70808 0.2182 0.66282 0.0
H345 H 0.67433 0.25819 0.67952 0.0
H346 H 0.8003 0.21979 0.85513 0.0
H347 H 0.77449 0.26681 0.86697 0.0
H348 H 0.82981 0.18909 0.80591 0.0
H349 H 0.81648 0.16207 0.75941 0.0
C350 C 0.19498 0.20226 0.79128 0.0
C351 C 0.21216 0.23592 0.766 0.0
C352 C 0.28501 0.21147 0.77995 0.0
C353 C 0.26761 0.18234 0.81023 0.0
N354 N 0.20645 0.16029 0.85323 0.0
N355 N 0.27463 0.2772 0.74184 0.0
C356 C 0.2227 0.1808 0.81848 0.0
C357 C 0.25757 0.24192 0.76173 0.0
N358 N 0.15245 0.18949 0.78824 0.0
N359 N 0.32693 0.20908 0.76722 0.0
H360 H 0.25575 0.30069 0.72889 0.0
H361 H 0.30757 0.28507 0.74167 0.0
H362 H 0.34774 0.18646 0.77872 0.0
H363 H 0.33975 0.22686 0.74225 0.0
H364 H 0.13962 0.16268 0.8038 0.0
H365 H 0.13142 0.2022 0.7663 0.0
H366 H 0.17411 0.16153 0.86201 0.0
H367 H 0.22596 0.14671 0.87597 0.0
C368 C 0.08972 0.00567 0.29409 0.0
C369 C 0.12147 0.97695 0.28085 0.0
C370 C 0.11366 0.00085 0.20772 0.0
C371 C 0.08917 0.03501 0.22286 0.0
N372 N 0.03357 0.05275 0.27222 0.0
N373 N 0.15834 0.94104 0.22433 0.0
C374 C 0.07061 0.03206 0.26361 0.0
C375 C 0.13143 0.97228 0.23722 0.0
N376 N 0.0797 0.00961 0.33588 0.0
N377 N 0.11742 -0.0054 0.1652 0.0
H378 H 0.16876 0.91735 0.2445 0.0
H379 H 0.1711 0.93885 0.19409 0.0
H380 H 0.10031 0.01259 0.14369 0.0
H381 H 0.13303 0.96919 0.1513 0.0
H382 H 0.06047 0.03357 0.34773 0.0
H383 H 0.09303 -0.00922 0.35919 0.0
H384 H 0.0167 0.04944 0.30046 0.0
H385 H 0.01672 0.06839 0.24874 0.0
C386 C 0.9143 0.45489 0.27836 0.0
C387 C 0.92363 0.45995 0.23461 0.0
C388 C 0.90589 0.5356 0.23942 0.0
C389 C 0.89698 0.53009 0.28293 0.0
N390 N 0.90587 0.48976 0.34624 0.0
N391 N 0.93823 0.50671 0.17595 0.0
C392 C 0.90609 0.4915 0.30318 0.0
C393 C 0.92274 0.50097 0.21591 0.0
N394 N 0.90922 0.41506 0.29562 0.0
N395 N 0.89623 0.57307 0.22029 0.0
H396 H 0.95107 0.48187 0.1583 0.0
H397 H 0.94189 0.53656 0.16182 0.0
H398 H 0.88531 0.59943 0.23707 0.0
H399 H 0.89708 0.57734 0.18776 0.0
H400 H 0.89766 0.40996 0.32607 0.0
H401 H 0.91196 0.38666 0.27864 0.0
H402 H 0.91621 0.46348 0.36301 0.0
H403 H 0.89971 0.51642 0.36508 0.0
C404 C 0.29922 0.06039 0.02587 0.0
C405 C 0.30481 0.09627 0.99907 0.0
C406 C 0.26821 0.14082 0.05095 0.0
C407 C 0.25614 0.10358 0.0739 0.0
N408 N 0.25907 0.02738 0.08356 0.0
N409 N 0.29071 0.17029 0.984 0.0
C410 C 0.27192 0.06322 0.06189 0.0
C411 C 0.28897 0.13664 0.01133 0.0
N412 N 0.32026 0.02378 0.01678 0.0
N413 N 0.26018 0.18033 0.06733 0.0
H414 H 0.30531 0.16917 0.95446 0.0
H415 H 0.27462 0.19854 0.98921 0.0
H416 H 0.24506 0.18447 0.09635 0.0
H417 H 0.27229 0.20879 0.05433 0.0
H418 H 0.32074 -0.00243 0.03679 0.0
H419 H 0.34064 0.02123 0.99075 0.0
H420 H 0.26541 -0.0036 0.07363 0.0
H421 H 0.23962 0.02843 0.11034 0.0
C422 C 0.75577 0.34049 0.05505 0.0
C423 C 0.77391 0.37917 0.07218 0.0
C424 C 0.74041 0.41969 0.01585 0.0
C425 C 0.72889 0.38066 0.99487 0.0
N426 N 0.72735 0.30329 0.9931 0.0
N427 N 0.78384 0.45583 0.07013 0.0
C428 C 0.73613 0.34082 0.01447 0.0
C429 C 0.7659 0.41896 0.05318 0.0
N430 N 0.75789 0.30337 0.07735 0.0
N431 N 0.72648 0.45733 1.00003 0.0
H432 H 0.80105 0.45646 0.09847 0.0
H433 H 0.78357 0.48536 0.05525 0.0
H434 H 0.70718 0.45845 0.97308 0.0
H435 H 0.73053 0.48673 0.01546 0.0
H436 H 0.74136 0.27505 0.06872 0.0
H437 H 0.77324 0.30169 0.10656 0.0
H438 H 0.73712 0.27362 1.00338 0.0
H439 H 0.71274 0.30178 0.96349 0.0
C440 C 0.25516 0.92704 0.54505 0.0
C441 C 0.27016 0.88636 0.55666 0.0
C442 C 0.24119 0.85478 0.49095 0.0
C443 C 0.22488 0.89507 0.47994 0.0
N444 N 0.2094 0.96757 0.49884 0.0
N445 N 0.26922 0.80984 0.54557 0.0
C446 C 0.2297 0.93063 0.50783 0.0
C447 C 0.26063 0.84972 0.53107 0.0
N448 N 0.267 0.96249 0.56848 0.0
N449 N 0.24029 0.82185 0.46216 0.0
H450 H 0.28399 0.80468 0.57452 0.0
H451 H 0.25832 0.78164 0.53069 0.0
H452 H 0.22601 0.82372 0.43248 0.0
H453 H 0.25663 0.79366 0.46632 0.0
H454 H 0.26117 -0.00635 0.55931 0.0
H455 H 0.28552 0.96107 0.59589 0.0
H456 H 0.20802 -0.00656 0.51964 0.0
H457 H 0.19071 0.97095 0.47174 0.0
C458 C 0.76552 0.56893 0.53403 0.0
C459 C 0.7486 0.6069 0.55105 0.0
C460 C 0.7728 0.64728 0.48904 0.0
C461 C 0.78995 0.60936 0.4719 0.0
N462 N 0.81142 0.53682 0.48126 0.0
N463 N 0.74607 0.68388 0.55094 0.0
C464 C 0.78911 0.57099 0.49553 0.0
C465 C 0.75549 0.64664 0.53049 0.0
N466 N 0.75749 0.53075 0.55373 0.0
N467 N 0.77049 0.68317 0.46487 0.0
H468 H 0.73344 0.68461 0.58143 0.0
H469 H 0.75457 0.71411 0.53941 0.0
H470 H 0.7828 0.68533 0.43435 0.0
H471 H 0.75345 0.70987 0.47382 0.0
H472 H 0.76465 0.50122 0.54059 0.0
H473 H 0.74116 0.52836 0.58242 0.0
H474 H 0.81547 0.50915 0.49863 0.0
H475 H 0.82926 0.53773 0.45335 0.0
C476 C 0.03977 0.29627 0.07802 0.0
C477 C 0.99462 0.28932 0.08086 0.0
C478 C 0.00222 0.21262 0.07164 0.0
C479 C 0.04677 0.21905 0.07986 0.0
N480 N 0.10997 0.26449 0.07047 0.0
N481 N 0.9331 0.24529 0.06013 0.0
C482 C 0.06632 0.26025 0.07504 0.0
C483 C 0.97596 0.24888 0.06969 0.0
N484 N 0.05664 0.33699 0.08206 0.0
N485 N 0.98523 0.17181 0.06964 0.0
H486 H 0.91418 0.27214 0.05818 0.0
H487 H 0.91745 0.21682 0.05057 0.0
H488 H 0.00508 0.1455 0.07045 0.0
H489 H 0.95235 0.16412 0.06784 0.0
H490 H 0.08949 0.34467 0.08443 0.0
H491 H 0.03665 0.36318 0.08357 0.0
H492 H 0.12641 0.29363 0.06564 0.0
H493 H 0.12914 0.23784 0.0678 0.0
C494 C 0.98332 0.73641 0.42996 0.0
C495 C 0.95571 0.738 0.39425 0.0
C496 C 0.01041 0.78137 0.35668 0.0
C497 C 0.03667 0.78256 0.39345 0.0
N498 N 0.04476 0.7683 0.46761 0.0
N499 N 0.93862 0.77015 0.32765 0.0
C500 C 0.02212 0.76215 0.43089 0.0
C501 C 0.96796 0.76297 0.35881 0.0
N502 N 0.97363 0.7088 0.46208 0.0
N503 N 0.02669 0.79571 0.31908 0.0
H504 H 0.90687 0.75796 0.3285 0.0
H505 H 0.9444 0.7917 0.30324 0.0
H506 H 0.05806 0.8083 0.31561 0.0
H507 H 0.01055 0.79124 0.29045 0.0
H508 H 0.9949 0.70276 0.48659 0.0
H509 H 0.94581 0.68907 0.46249 0.0
H510 H 0.0334 0.75799 0.49685 0.0
H511 H 0.07316 0.78714 0.4695 0.0
C512 C 0.54975 0.7442 0.58903 0.0
C513 C 0.53443 0.70229 0.59911 0.0
C514 C 0.46013 0.7248 0.5931 0.0
C515 C 0.4759 0.76775 0.59637 0.0
N516 N 0.53349 0.81984 0.58742 0.0
N517 N 0.47631 0.6498 0.60206 0.0
C518 C 0.52012 0.77784 0.58976 0.0
C519 C 0.48982 0.69151 0.59716 0.0
N520 N 0.59258 0.75179 0.58101 0.0
N521 N 0.41695 0.7163 0.58812 0.0
H522 H 0.49818 0.62519 0.60338 0.0
H523 H 0.44418 0.63972 0.60556 0.0
H524 H 0.39514 0.74059 0.58433 0.0
H525 H 0.40332 0.68568 0.58373 0.0
H526 H 0.60578 0.7813 0.5718 0.0
H527 H 0.61452 0.72731 0.58011 0.0
H528 H 0.56564 0.8305 0.58694 0.0
H529 H 0.51138 0.84428 0.58656 0.0
C530 C 0.81072 0.96884 0.7151 0.0
C531 C 0.82597 0.01165 0.7216 0.0
C532 C 0.87131 0.98845 0.78025 0.0
C533 C 0.8527 0.94669 0.776 0.0
N534 N 0.79768 0.89911 0.74571 0.0
N535 N 0.86408 0.06385 0.76619 0.0
C536 C 0.82008 0.93759 0.74547 0.0
C537 C 0.85462 0.02204 0.7557 0.0
N538 N 0.78902 0.95754 0.67886 0.0
N539 N 0.9051 -0.00413 0.80732 0.0
H540 H 0.85145 0.08955 0.75021 0.0
H541 H 0.88122 0.0731 0.79323 0.0
H542 H 0.91665 0.9722 0.82695 0.0
H543 H 0.92325 0.02456 0.80831 0.0
H544 H 0.78098 0.92591 0.6706 0.0
H545 H 0.78322 0.97917 0.6548 0.0
H546 H 0.77063 0.89251 0.7269 0.0
H547 H 0.80343 0.87522 0.76756 0.0
C548 C 0.07551 0.50005 0.75659 0.0
C549 C 0.11456 0.52421 0.76311 0.0
C550 C 0.15617 0.46244 0.74178 0.0
C551 C 0.11703 0.43925 0.73276 0.0
N552 N 0.04015 0.43922 0.72152 0.0
N553 N 0.19146 0.53212 0.75141 0.0
C554 C 0.07688 0.45917 0.73698 0.0
C555 C 0.15478 0.50654 0.75261 0.0
N556 N 0.03733 0.51518 0.77093 0.0
N557 N 0.19445 0.44207 0.74216 0.0
H558 H 0.1918 0.56487 0.75804 0.0
H559 H 0.22072 0.52176 0.73971 0.0
H560 H 0.19711 0.40978 0.73448 0.0
H561 H 0.2231 0.45639 0.75343 0.0
H562 H 0.00856 0.49692 0.77092 0.0
H563 H 0.03507 0.54447 0.78664 0.0
H564 H 0.01057 0.45391 0.72007 0.0
H565 H 0.04026 0.40958 0.70609 0.0
C566 C 0.75487 0.81252 0.03723 0.0
C567 C 0.70912 0.81329 0.036 0.0
C568 C 0.71192 0.82314 0.9592 0.0
C569 C 0.75703 0.81688 0.95995 0.0
N570 N 0.82082 0.79949 0.99905 0.0
N571 N 0.64333 0.8141 0.9953 0.0
C572 C 0.77844 0.81018 0.99883 0.0
C573 C 0.68738 0.81753 0.99686 0.0
N574 N 0.77595 0.81542 0.07513 0.0
N575 N 0.6927 0.83547 0.92264 0.0
H576 H 0.62417 0.80965 0.02203 0.0
H577 H 0.62586 0.81207 0.96724 0.0
H578 H 0.70975 0.8401 0.89459 0.0
H579 H 0.66089 0.84492 0.921 0.0
H580 H 0.80933 0.81948 0.07784 0.0
H581 H 0.75992 0.81802 0.10391 0.0
H582 H 0.83668 0.78927 0.02593 0.0
H583 H 0.83932 0.79726 0.97172 0.0
C584 C 0.19527 0.58955 0.98635 0.0
C585 C 0.20401 0.62978 0.96697 0.0
C586 C 0.24427 0.65451 0.02949 0.0
C587 C 0.23812 0.61336 0.04787 0.0
N588 N 0.21744 0.53876 0.0388 0.0
N589 N 0.24818 0.6948 0.96477 0.0
C590 C 0.21672 0.57988 0.02464 0.0
C591 C 0.23228 0.66035 0.98682 0.0
N592 N 0.16469 0.56158 0.96989 0.0
N593 N 0.25843 0.68897 0.05325 0.0
H594 H 0.24116 0.69939 0.93295 0.0
H595 H 0.27205 0.71593 0.9767 0.0
H596 H 0.26488 0.68756 0.08544 0.0
H597 H 0.25909 0.7202 0.04195 0.0
H598 H 0.15387 0.53401 0.98544 0.0
H599 H 0.14719 0.56762 0.94265 0.0
H600 H 0.20582 0.51253 0.02114 0.0
H601 H 0.23374 0.53048 0.0662 0.0
C602 C 0.74012 0.16334 0.46765 0.0
C603 C 0.70875 0.13515 0.4488 0.0
C604 C 0.71557 0.08657 0.50857 0.0
C605 C 0.74037 0.11864 0.53065 0.0
N606 N 0.76827 0.19216 0.53321 0.0
N607 N 0.6618 0.07194 0.45452 0.0
C608 C 0.75087 0.15822 0.5107 0.0
C609 C 0.69535 0.097 0.46987 0.0
N610 N 0.76028 0.19466 0.44429 0.0
N611 N 0.71206 0.04594 0.52404 0.0
H612 H 0.64501 0.07889 0.42708 0.0
H613 H 0.64798 0.04638 0.47123 0.0
H614 H 0.72764 0.03681 0.55154 0.0
H615 H 0.69765 0.02043 0.50722 0.0
H616 H 0.78615 0.21358 0.45576 0.0
H617 H 0.7546 0.19828 0.41208 0.0
H618 H 0.7724 0.2227 0.52055 0.0
H619 H 0.77391 0.19152 0.56559 0.0
C620 C 0.2684 0.28769 0.56295 0.0
C621 C 0.22494 0.30049 0.56046 0.0
C622 C 0.23577 0.32045 0.4862 0.0
C623 C 0.27947 0.30846 0.48895 0.0
N624 N 0.33984 0.28858 0.53139 0.0
N625 N 0.1689 0.33536 0.52242 0.0
C626 C 0.29645 0.29425 0.52779 0.0
C627 C 0.20927 0.31914 0.52298 0.0
N628 N 0.2828 0.26899 0.59894 0.0
N629 N 0.21885 0.33069 0.44787 0.0
H630 H 0.14759 0.33284 0.54776 0.0
H631 H 0.15744 0.35388 0.49797 0.0
H632 H 0.23715 0.33245 0.42035 0.0
H633 H 0.18611 0.33453 0.4425 0.0
H634 H 0.31208 0.25388 0.60111 0.0
H635 H 0.26452 0.26671 0.62648 0.0
H636 H 0.3553 0.28247 0.55975 0.0
H637 H 0.36129 0.29361 0.50644 0.0
C638 C 0.99249 0.69856 0.88514 0.0
C639 C 0.03552 0.71326 0.87806 0.0
C640 C 0.01599 0.78697 0.89233 0.0
C641 C 0.97216 0.77302 0.89147 0.0
N642 N 0.91991 0.71659 0.90627 0.0
N643 N 0.0913 0.76787 0.88819 0.0
C644 C 0.96092 0.72894 0.89501 0.0
C645 C 0.0484 0.75636 0.88693 0.0
N646 N 0.98173 0.65609 0.87996 0.0
N647 N 0.02572 0.82985 0.8951 0.0
H648 H 0.11528 0.74566 0.88395 0.0
H649 H 0.10329 0.79839 0.89611 0.0
H650 H 0.00169 0.85191 0.90026 0.0
H651 H 0.05661 0.84352 0.89209 0.0
H652 H 0.95016 0.64363 0.88003 0.0
H653 H 0.00495 0.63333 0.87441 0.0
H654 H 0.90991 0.68493 0.91137 0.0
H655 H 0.89706 0.73875 0.91478 0.0
C656 C 0.98472 0.25871 0.64147 0.0
C657 C 0.02277 0.23906 0.6548 0.0
C658 C 0.98387 0.16988 0.66084 0.0
C659 C 0.94503 0.19024 0.65095 0.0
N660 N 0.90907 0.2504 0.62176 0.0
N661 N 0.0622 0.17546 0.66592 0.0
C662 C 0.94577 0.23346 0.63746 0.0
C663 C 0.02348 0.19424 0.66044 0.0
N664 N 0.98554 0.30194 0.63518 0.0
N665 N 0.98243 0.12772 0.67207 0.0
H666 H 0.09146 0.19306 0.66543 0.0
H667 H 0.06588 0.14256 0.66742 0.0
H668 H 0.95418 0.10858 0.67048 0.0
H669 H 0.00859 0.1119 0.68421 0.0
H670 H 0.95819 0.3196 0.63035 0.0
H671 H 0.01415 0.32058 0.63613 0.0
H672 H 0.90811 0.28049 0.6081 0.0
H673 H 0.87979 0.23306 0.61958 0.0
C674 C 0.5525 0.26952 0.36848 0.0
C675 C 0.54627 0.22547 0.35861 0.0
C676 C 0.47032 0.2283 0.37879 0.0
C677 C 0.47461 0.27345 0.37864 0.0
N678 N 0.519 0.33778 0.38069 0.0
N679 N 0.50203 0.16071 0.35981 0.0
C680 C 0.51583 0.29422 0.37695 0.0
C681 C 0.50617 0.20389 0.36657 0.0
N682 N 0.59334 0.28743 0.36869 0.0
N683 N 0.4314 0.2094 0.38905 0.0
H684 H 0.52829 0.14219 0.35213 0.0
H685 H 0.47284 0.1433 0.36085 0.0
H686 H 0.40517 0.22745 0.39797 0.0
H687 H 0.42596 0.17653 0.39198 0.0
H688 H 0.60083 0.31888 0.37777 0.0
H689 H 0.62042 0.26942 0.36268 0.0
H690 H 0.54717 0.35602 0.37549 0.0
H691 H 0.49239 0.35579 0.38857 0.0
C692 C 0.66597 0.50254 0.72399 0.0
C693 C 0.6247 0.52117 0.72543 0.0
C694 C 0.60679 0.47941 0.78869 0.0
C695 C 0.6475 0.46031 0.78622 0.0
N696 N 0.70591 0.44009 0.74059 0.0
N697 N 0.55127 0.51556 0.75036 0.0
C698 C 0.6737 0.46726 0.75014 0.0
C699 C 0.59349 0.50547 0.75484 0.0
N700 N 0.69935 0.52011 0.70105 0.0
N701 N 0.58191 0.47494 0.824 0.0
H702 H 0.54053 0.53336 0.72494 0.0
H703 H 0.52662 0.50234 0.76897 0.0
H704 H 0.59098 0.45719 0.85002 0.0
H705 H 0.55402 0.49194 0.82887 0.0
H706 H 0.73073 0.50941 0.70332 0.0
H707 H 0.69778 0.54787 0.6835 0.0
H708 H 0.72341 0.44209 0.71255 0.0
H709 H 0.71143 0.41264 0.75799 0.0
C710 C 0.43217 -0.0077 0.79123 0.0
C711 C 0.39525 0.01724 0.78866 0.0
C712 C 0.37352 0.98235 0.72234 0.0
C713 C 0.40918 0.95501 0.72599 0.0
N714 N 0.48028 0.94524 0.75433 0.0
N715 N 0.34186 0.0486 0.74467 0.0
C716 C 0.44129 0.96399 0.75728 0.0
C717 C 0.36992 0.01662 0.75153 0.0
N718 N 0.45715 -0.00579 0.82673 0.0
N719 N 0.34099 0.974 0.69394 0.0
H720 H 0.33874 0.07419 0.76572 0.0
H721 H 0.32545 0.05217 0.71628 0.0
H722 H 0.34108 0.95015 0.67099 0.0
H723 H 0.31181 -0.01048 0.69482 0.0
H724 H 0.48176 0.97322 0.83254 0.0
H725 H 0.45168 0.01576 0.85133 0.0
H726 H 0.50612 0.9527 0.77442 0.0
H727 H 0.488 0.92551 0.72888 0.0
C728 C 0.49284 0.23002 0.94486 0.0
C729 C 0.47059 0.2209 0.90646 0.0
C730 C 0.53052 0.25404 0.86662 0.0
C731 C 0.55111 0.26636 0.90511 0.0
N732 N 0.54847 0.27295 0.98091 0.0
N733 N 0.46369 0.23253 0.8316 0.0
C734 C 0.5313 0.25629 0.9443 0.0
C735 C 0.48812 0.23532 0.86754 0.0
N736 N 0.47831 0.21211 0.98163 0.0
N737 N 0.55215 0.25831 0.82923 0.0
H738 H 0.43208 0.21993 0.83107 0.0
H739 H 0.47312 0.24662 0.80325 0.0
H740 H 0.58366 0.27091 0.82708 0.0
H741 H 0.54045 0.24554 0.80081 0.0
H742 H 0.49573 0.21372 0.00974 0.0
H743 H 0.45049 0.19245 0.98334 0.0
H744 H 0.533 0.27057 0.00998 0.0
H745 H 0.57642 0.29253 0.98171 0.0
C746 C 0.36845 0.50768 0.24503 0.0
C747 C 0.32657 0.52315 0.25188 0.0
C748 C 0.32241 0.48483 0.31943 0.0
C749 C 0.36242 0.46629 0.30988 0.0
N750 N 0.43187 0.47989 0.27808 0.0
N751 N 0.27203 0.54012 0.30331 0.0
C752 C 0.38831 0.48468 0.27754 0.0
C753 C 0.30583 0.51579 0.29145 0.0
N754 N 0.38836 0.51236 0.20683 0.0
N755 N 0.30056 0.47347 0.35518 0.0
H756 H 0.26082 0.56495 0.285 0.0
H757 H 0.25795 0.53891 0.33308 0.0
H758 H 0.3154 0.45857 0.38034 0.0
H759 H 0.26826 0.47991 0.36028 0.0
H760 H 0.4173 0.49801 0.19959 0.0
H761 H 0.37406 0.52663 0.181 0.0
H762 H 0.45278 0.49517 0.25683 0.0
H763 H 0.44704 0.46484 0.30308 0.0
C764 C 0.57961 0.03101 0.22 0.0
C765 C 0.62067 0.0497 0.23029 0.0
C766 C 0.65576 0.98406 0.20879 0.0
C767 C 0.61471 0.96547 0.19827 0.0
N768 N 0.53946 0.97388 0.18333 0.0
N769 N 0.69818 0.04901 0.22364 0.0
C770 C 0.57723 -0.01 0.20035 0.0
C771 C 0.65891 0.02778 0.22123 0.0
N772 N 0.54291 0.05129 0.23111 0.0
N773 N 0.69133 0.95945 0.2094 0.0
H774 H 0.70174 0.08121 0.23234 0.0
H775 H 0.72674 0.03597 0.21319 0.0
H776 H 0.69075 0.92746 0.1998 0.0
H777 H 0.72089 0.96994 0.22208 0.0
H778 H 0.5121 0.03711 0.22862 0.0
H779 H 0.54329 0.08118 0.246 0.0
H780 H 0.51182 -0.00843 0.18033 0.0
H781 H 0.53716 0.94397 0.16839 0.0
C782 C 0.47119 0.77437 0.11847 0.0
C783 C 0.50386 0.76089 0.14608 0.0
C784 C 0.45623 0.7032 0.17226 0.0
C785 C 0.42336 0.71591 0.14415 0.0
N786 N 0.40433 0.7553 0.08203 0.0
N787 N 0.53278 0.70443 0.1874 0.0
C788 C 0.43238 0.7489 0.11446 0.0
C789 C 0.49811 0.72233 0.16871 0.0
N790 N 0.47623 0.81235 0.09778 0.0
N791 N 0.44704 0.67579 0.20469 0.0
H792 H 0.56404 0.7177 0.18474 0.0
H793 H 0.53119 0.67432 0.20129 0.0
H794 H 0.41624 0.66325 0.21114 0.0
H795 H 0.46922 0.66924 0.22828 0.0
H796 H 0.45138 0.82626 0.08122 0.0
H797 H 0.50462 0.83121 0.09929 0.0
H798 H 0.411 0.77643 0.05746 0.0
H799 H 0.37641 0.73623 0.07734 0.0
loop_
_geom_bond_atom_site_label_1
_geom_bond_atom_site_label_2
_geom_bond_distance
_geom_bond_site_symmetry_2
_ccdc_geom_bond_type
Zn0 O3 2.031 . S
Zn0 O5 2.049 . S
Zn0 O10 2.067 . S
Zn1 O2 1.962 . S
Zn1 O4 1.986 . S
Zn1 O6 1.996 . S
Zn1 O9 1.943 . S
O2 Zn1 1.962 . S
O2 C7 1.254 . S
O3 Zn0 2.031 . S
O3 C7 1.269 . S
O4 Zn1 1.986 . S
O4 C11 1.262 . S
O5 Zn0 2.049 . S
O5 C13 1.260 . S
O6 Zn1 1.996 . S
O6 C13 1.257 . S
C7 O2 1.254 . S
C7 O3 1.269 . S
C8 O9 1.249 . S
C8 O10 1.270 . S
O9 Zn1 1.943 . S
O9 C8 1.249 . S
O10 Zn0 2.067 . S
O10 C8 1.270 . S
C11 O4 1.262 . S
C11 O12 1.232 . S
O12 C11 1.232 . S
C13 O5 1.260 . S
C13 O6 1.257 . S
Zn14 O17 2.031 . S
Zn14 O19 2.049 . S
Zn14 O24 2.067 . S
Zn15 O16 1.962 . S
Zn15 O18 1.986 . S
Zn15 O20 1.996 . S
Zn15 O23 1.943 . S
O16 Zn15 1.962 . S
O16 C21 1.254 . S
O17 Zn14 2.031 . S
O17 C21 1.269 . S
O18 Zn15 1.986 . S
O18 C25 1.262 . S
O19 Zn14 2.049 . S
O19 C27 1.260 . S
O20 Zn15 1.996 . S
O20 C27 1.257 . S
C21 O16 1.254 . S
C21 O17 1.269 . S
C22 O23 1.249 . S
C22 O24 1.270 . S
O23 Zn15 1.943 . S
O23 C22 1.249 . S
O24 Zn14 2.067 . S
O24 C22 1.270 . S
C25 O18 1.262 . S
C25 O26 1.232 . S
O26 C25 1.232 . S
C27 O19 1.260 . S
C27 O20 1.257 . S
Zn28 O31 2.031 . S
Zn28 O33 2.049 . S
Zn28 O38 2.067 . S
Zn29 O30 1.962 . S
Zn29 O32 1.986 . S
Zn29 O34 1.996 . S
Zn29 O37 1.943 . S
O30 Zn29 1.962 . S
O30 C35 1.254 . S
O31 Zn28 2.031 . S
O31 C35 1.269 . S
O32 Zn29 1.986 . S
O32 C39 1.262 . S
O33 Zn28 2.049 . S
O33 C41 1.260 . S
O34 Zn29 1.996 . S
O34 C41 1.257 . S
C35 O30 1.254 . S
C35 O31 1.269 . S
C36 O37 1.249 . S
C36 O38 1.270 . S
O37 Zn29 1.943 . S
O37 C36 1.249 . S
O38 Zn28 2.067 . S
O38 C36 1.270 . S
C39 O32 1.262 . S
C39 O40 1.232 . S
O40 C39 1.232 . S
C41 O33 1.260 . S
C41 O34 1.257 . S
Zn42 O45 2.031 . S
Zn42 O47 2.049 . S
Zn42 O52 2.067 . S
Zn43 O44 1.962 . S
Zn43 O46 1.986 . S
Zn43 O48 1.996 . S
Zn43 O51 1.943 . S
O44 Zn43 1.962 . S
O44 C49 1.254 . S
O45 Zn42 2.031 . S
O45 C49 1.269 . S
O46 Zn43 1.986 . S
O46 C53 1.262 . S
O47 Zn42 2.049 . S
O47 C55 1.260 . S
O48 Zn43 1.996 . S
O48 C55 1.257 . S
C49 O44 1.254 . S
C49 O45 1.269 . S
C50 O51 1.249 . S
C50 O52 1.270 . S
O51 Zn43 1.943 . S
O51 C50 1.249 . S
O52 Zn42 2.067 . S
O52 C50 1.270 . S
C53 O46 1.262 . S
C53 O54 1.232 . S
O54 C53 1.232 . S
C55 O47 1.260 . S
C55 O48 1.257 . S
Zn56 O59 2.031 . S
Zn56 O61 2.049 . S
Zn56 O66 2.067 . S
Zn57 O58 1.962 . S
Zn57 O60 1.986 . S
Zn57 O62 1.996 . S
Zn57 O65 1.943 . S
O58 Zn57 1.962 . S
O58 C63 1.254 . S
O59 Zn56 2.031 . S
O59 C63 1.269 . S
O60 Zn57 1.986 . S
O60 C67 1.262 . S
O61 Zn56 2.049 . S
O61 C69 1.260 . S
O62 Zn57 1.996 . S
O62 C69 1.257 . S
C63 O58 1.254 . S
C63 O59 1.269 . S
C64 O65 1.249 . S
C64 O66 1.270 . S
O65 Zn57 1.943 . S
O65 C64 1.249 . S
O66 Zn56 2.067 . S
O66 C64 1.270 . S
C67 O60 1.262 . S
C67 O68 1.232 . S
O68 C67 1.232 . S
C69 O61 1.260 . S
C69 O62 1.257 . S
Zn70 O73 2.031 . S
Zn70 O75 2.049 . S
Zn70 O80 2.067 . S
Zn71 O72 1.962 . S
Zn71 O74 1.986 . S
Zn71 O76 1.996 . S
Zn71 O79 1.943 . S
O72 Zn71 1.962 . S
O72 C77 1.254 . S
O73 Zn70 2.031 . S
O73 C77 1.269 . S
O74 Zn71 1.986 . S
O74 C81 1.262 . S
O75 Zn70 2.049 . S
O75 C83 1.260 . S
O76 Zn71 1.996 . S
O76 C83 1.257 . S
C77 O72 1.254 . S
C77 O73 1.269 . S
C78 O79 1.249 . S
C78 O80 1.270 . S
O79 Zn71 1.943 . S
O79 C78 1.249 . S
O80 Zn70 2.067 . S
O80 C78 1.270 . S
C81 O74 1.262 . S
C81 O82 1.232 . S
O82 C81 1.232 . S
C83 O75 1.260 . S
C83 O76 1.257 . S
Zn84 O87 2.031 . S
Zn84 O89 2.049 . S
Zn84 O94 2.067 . S
Zn85 O86 1.962 . S
Zn85 O88 1.986 . S
Zn85 O90 1.996 . S
Zn85 O93 1.943 . S
O86 Zn85 1.962 . S
O86 C91 1.254 . S
O87 Zn84 2.031 . S
O87 C91 1.269 . S
O88 Zn85 1.986 . S
O88 C95 1.262 . S
O89 Zn84 2.049 . S
O89 C97 1.260 . S
O90 Zn85 1.996 . S
O90 C97 1.257 . S
C91 O86 1.254 . S
C91 O87 1.269 . S
C92 O93 1.249 . S
C92 O94 1.270 . S
O93 Zn85 1.943 . S
O93 C92 1.249 . S
O94 Zn84 2.067 . S
O94 C92 1.270 . S
C95 O88 1.262 . S
C95 O96 1.232 . S
O96 C95 1.232 . S
C97 O89 1.260 . S
C97 O90 1.257 . S
Zn98 O101 2.031 . S
Zn98 O103 2.049 . S
Zn98 O108 2.067 . S
Zn99 O100 1.962 . S
Zn99 O102 1.986 . S
Zn99 O104 1.996 . S
Zn99 O107 1.943 . S
O100 Zn99 1.962 . S
O100 C105 1.254 . S
O101 Zn98 2.031 . S
O101 C105 1.269 . S
O102 Zn99 1.986 . S
O102 C109 1.262 . S
O103 Zn98 2.049 . S
O103 C111 1.260 . S
O104 Zn99 1.996 . S
O104 C111 1.257 . S
C105 O100 1.254 . S
C105 O101 1.269 . S
C106 O107 1.249 . S
C106 O108 1.270 . S
O107 Zn99 1.943 . S
O107 C106 1.249 . S
O108 Zn98 2.067 . S
O108 C106 1.270 . S
C109 O102 1.262 . S
C109 O110 1.232 . S
O110 C109 1.232 . S
C111 O103 1.260 . S
C111 O104 1.257 . S
Zn112 O115 2.031 . S
Zn112 O117 2.049 . S
Zn112 O122 2.067 . S
Zn113 O114 1.962 . S
Zn113 O116 1.986 . S
Zn113 O118 1.996 . S
Zn113 O121 1.943 . S
O114 Zn113 1.962 . S
O114 C119 1.254 . S
O115 Zn112 2.031 . S
O115 C119 1.269 . S
O116 Zn113 1.986 . S
O116 C123 1.262 . S
O117 Zn112 2.049 . S
O117 C125 1.260 . S
O118 Zn113 1.996 . S
O118 C125 1.257 . S
C119 O114 1.254 . S
C119 O115 1.269 . S
C120 O121 1.249 . S
C120 O122 1.270 . S
O121 Zn113 1.943 . S
O121 C120 1.249 . S
O122 Zn112 2.067 . S
O122 C120 1.270 . S
C123 O116 1.262 . S
C123 O124 1.232 . S
O124 C123 1.232 . S
C125 O117 1.260 . S
C125 O118 1.257 . S
Zn126 O129 2.031 . S
Zn126 O131 2.049 . S
Zn126 O136 2.067 . S
Zn127 O128 1.962 . S
Zn127 O130 1.986 . S
Zn127 O132 1.996 . S
Zn127 O135 1.943 . S
O128 Zn127 1.962 . S
O128 C133 1.254 . S
O129 Zn126 2.031 . S
O129 C133 1.269 . S
O130 Zn127 1.986 . S
O130 C137 1.262 . S
O131 Zn126 2.049 . S
O131 C139 1.260 . S
O132 Zn127 1.996 . S
O132 C139 1.257 . S
C133 O128 1.254 . S
C133 O129 1.269 . S
C134 O135 1.249 . S
C134 O136 1.270 . S
O135 Zn127 1.943 . S
O135 C134 1.249 . S
O136 Zn126 2.067 . S
O136 C134 1.270 . S
C137 O130 1.262 . S
C137 O138 1.232 . S
O138 C137 1.232 . S
C139 O131 1.260 . S
C139 O132 1.257 . S
Zn140 O143 2.031 . S
Zn140 O145 2.049 . S
Zn140 O150 2.067 . S
Zn141 O142 1.962 . S
Zn141 O144 1.986 . S
Zn141 O146 1.996 . S
Zn141 O149 1.943 . S
O142 Zn141 1.962 . S
O142 C147 1.254 . S
O143 Zn140 2.031 . S
O143 C147 1.269 . S
O144 Zn141 1.986 . S
O144 C151 1.262 . S
O145 Zn140 2.049 . S
O145 C153 1.260 . S
O146 Zn141 1.996 . S
O146 C153 1.257 . S
C147 O142 1.254 . S
C147 O143 1.269 . S
C148 O149 1.249 . S
C148 O150 1.270 . S
O149 Zn141 1.943 . S
O149 C148 1.249 . S
O150 Zn140 2.067 . S
O150 C148 1.270 . S
C151 O144 1.262 . S
C151 O152 1.232 . S
O152 C151 1.232 . S
C153 O145 1.260 . S
C153 O146 1.257 . S
Zn154 O157 2.031 . S
Zn154 O159 2.049 . S
Zn154 O164 2.067 . S
Zn155 O156 1.962 . S
Zn155 O158 1.986 . S
Zn155 O160 1.996 . S
Zn155 O163 1.943 . S
O156 Zn155 1.962 . S
O156 C161 1.254 . S
O157 Zn154 2.031 . S
O157 C161 1.269 . S
O158 Zn155 1.986 . S
O158 C165 1.262 . S
O159 Zn154 2.049 . S
O159 C167 1.260 . S
O160 Zn155 1.996 . S
O160 C167 1.257 . S
C161 O156 1.254 . S
C161 O157 1.269 . S
C162 O163 1.249 . S
C162 O164 1.270 . S
O163 Zn155 1.943 . S
O163 C162 1.249 . S
O164 Zn154 2.067 . S
O164 C162 1.270 . S
C165 O158 1.262 . S
C165 O166 1.232 . S
O166 C165 1.232 . S
C167 O159 1.260 . S
C167 O160 1.257 . S
Zn168 O171 2.031 . S
Zn168 O173 2.049 . S
Zn168 O178 2.067 . S
Zn169 O170 1.962 . S
Zn169 O172 1.986 . S
Zn169 O174 1.996 . S
Zn169 O177 1.943 . S
O170 Zn169 1.962 . S
O170 C175 1.254 . S
O171 Zn168 2.031 . S
O171 C175 1.269 . S
O172 Zn169 1.986 . S
O172 C179 1.262 . S
O173 Zn168 2.049 . S
O173 C181 1.260 . S
O174 Zn169 1.996 . S
O174 C181 1.257 . S
C175 O170 1.254 . S
C175 O171 1.269 . S
C176 O177 1.249 . S
C176 O178 1.270 . S
O177 Zn169 1.943 . S
O177 C176 1.249 . S
O178 Zn168 2.067 . S
O178 C176 1.270 . S
C179 O172 1.262 . S
C179 O180 1.232 . S
O180 C179 1.232 . S
C181 O173 1.260 . S
C181 O174 1.257 . S
Zn182 O185 2.031 . S
Zn182 O187 2.049 . S
Zn182 O192 2.067 . S
Zn183 O184 1.962 . S
Zn183 O186 1.986 . S
Zn183 O188 1.996 . S
Zn183 O191 1.943 . S
O184 Zn183 1.962 . S
O184 C189 1.254 . S
O185 Zn182 2.031 . S
O185 C189 1.269 . S
O186 Zn183 1.986 . S
O186 C193 1.262 . S
O187 Zn182 2.049 . S
O187 C195 1.260 . S
O188 Zn183 1.996 . S
O188 C195 1.257 . S
C189 O184 1.254 . S
C189 O185 1.269 . S
C190 O191 1.249 . S
C190 O192 1.270 . S
O191 Zn183 1.943 . S
O191 C190 1.249 . S
O192 Zn182 2.067 . S
O192 C190 1.270 . S
C193 O186 1.262 . S
C193 O194 1.232 . S
O194 C193 1.232 . S
C195 O187 1.260 . S
C195 O188 1.257 . S
Zn196 O199 2.031 . S
Zn196 O201 2.049 . S
Zn196 O206 2.067 . S
Zn197 O198 1.962 . S
Zn197 O200 1.986 . S
Zn197 O202 1.996 . S
Zn197 O205 1.943 . S
O198 Zn197 1.962 . S
O198 C203 1.254 . S
O199 Zn196 2.031 . S
O199 C203 1.269 . S
O200 Zn197 1.986 . S
O200 C207 1.262 . S
O201 Zn196 2.049 . S
O201 C209 1.260 . S
O202 Zn197 1.996 . S
O202 C209 1.257 . S
C203 O198 1.254 . S
C203 O199 1.269 . S
C204 O205 1.249 . S
C204 O206 1.270 . S
O205 Zn197 1.943 . S
O205 C204 1.249 . S
O206 Zn196 2.067 . S
O206 C204 1.270 . S
C207 O200 1.262 . S
C207 O208 1.232 . S
O208 C207 1.232 . S
C209 O201 1.260 . S
C209 O202 1.257 . S
Zn210 O213 2.031 . S
Zn210 O215 2.049 . S
Zn210 O220 2.067 . S
Zn211 O212 1.962 . S
Zn211 O214 1.986 . S
Zn211 O216 1.996 . S
Zn211 O219 1.943 . S
O212 Zn211 1.962 . S
O212 C217 1.254 . S
O213 Zn210 2.031 . S
O213 C217 1.269 . S
O214 Zn211 1.986 . S
O214 C221 1.262 . S
O215 Zn210 2.049 . S
O215 C223 1.260 . S
O216 Zn211 1.996 . S
O216 C223 1.257 . S
C217 O212 1.254 . S
C217 O213 1.269 . S
C218 O219 1.249 . S
C218 O220 1.270 . S
O219 Zn211 1.943 . S
O219 C218 1.249 . S
O220 Zn210 2.067 . S
O220 C218 1.270 . S
C221 O214 1.262 . S
C221 O222 1.232 . S
O222 C221 1.232 . S
C223 O215 1.260 . S
C223 O216 1.257 . S
C224 C225 1.363 . S
C224 C230 1.379 . S
C224 N232 1.356 . S
C225 C224 1.363 . S
C225 C231 1.363 . S
C226 C227 1.363 . S
C226 C231 1.379 . S
C226 N233 1.356 . S
C227 C226 1.363 . S
C227 C230 1.363 . S
N228 C230 1.356 . S
N228 H240 0.984 . S
N228 H241 0.985 . S
N229 C231 1.356 . S
N229 H234 0.984 . S
N229 H235 0.985 . S
C230 C224 1.379 . S
C230 C227 1.363 . S
C230 N228 1.356 . S
C231 C225 1.363 . S
C231 C226 1.379 . S
C231 N229 1.356 . S
N232 C224 1.356 . S
N232 H238 0.984 . S
N232 H239 0.984 . S
N233 C226 1.356 . S
N233 H236 0.984 . S
N233 H237 0.985 . S
H234 N229 0.984 . S
H235 N229 0.985 . S
H236 N233 0.984 . S
H237 N233 0.985 . S
H238 N232 0.984 . S
H239 N232 0.984 . S
H240 N228 0.984 . S
H241 N228 0.985 . S
C242 C243 1.363 . S
C242 C248 1.379 . S
C242 N250 1.356 . S
C243 C242 1.363 . S
C243 C249 1.363 . S
C244 C245 1.363 . S
C244 C249 1.379 . S
C244 N251 1.356 . S
C245 C244 1.363 . S
C245 C248 1.363 . S
N246 C248 1.356 . S
N246 H258 0.984 . S
N246 H259 0.985 . S
N247 C249 1.356 . S
N247 H252 0.984 . S
N247 H253 0.985 . S
C248 C242 1.379 . S
C248 C245 1.363 . S
C248 N246 1.356 . S
C249 C243 1.363 . S
C249 C244 1.379 . S
C249 N247 1.356 . S
N250 C242 1.356 . S
N250 H256 0.984 . S
N250 H257 0.984 . S
N251 C244 1.356 . S
N251 H254 0.984 . S
N251 H255 0.985 . S
H252 N247 0.984 . S
H253 N247 0.985 . S
H254 N251 0.984 . S
H255 N251 0.985 . S
H256 N250 0.984 . S
H257 N250 0.984 . S
H258 N246 0.984 . S
H259 N246 0.985 . S
C260 C261 1.363 . S
C260 C266 1.379 . S
C260 N268 1.356 . S
C261 C260 1.363 . S
C261 C267 1.363 . S
C262 C263 1.363 . S
C262 C267 1.379 . S
C262 N269 1.356 . S
C263 C262 1.363 . S
C263 C266 1.363 . S
N264 C266 1.356 . S
N264 H276 0.984 . S
N264 H277 0.985 . S
N265 C267 1.356 . S
N265 H270 0.984 . S
N265 H271 0.985 . S
C266 C260 1.379 . S
C266 C263 1.363 . S
C266 N264 1.356 . S
C267 C261 1.363 . S
C267 C262 1.379 . S
C267 N265 1.356 . S
N268 C260 1.356 . S
N268 H274 0.984 . S
N268 H275 0.984 . S
N269 C262 1.356 . S
N269 H272 0.984 . S
N269 H273 0.985 . S
H270 N265 0.984 . S
H271 N265 0.985 . S
H272 N269 0.984 . S
H273 N269 0.985 . S
H274 N268 0.984 . S
H275 N268 0.984 . S
H276 N264 0.984 . S
H277 N264 0.985 . S
C278 C279 1.363 . S
C278 C284 1.379 . S
C278 N286 1.356 . S
C279 C278 1.363 . S
C279 C285 1.363 . S
C280 C281 1.363 . S
C280 C285 1.379 . S
C280 N287 1.356 . S
C281 C280 1.363 . S
C281 C284 1.363 . S
N282 C284 1.356 . S
N282 H294 0.984 . S
N282 H295 0.985 . S
N283 C285 1.356 . S
N283 H288 0.984 . S
N283 H289 0.985 . S
C284 C278 1.379 . S
C284 C281 1.363 . S
C284 N282 1.356 . S
C285 C279 1.363 . S
C285 C280 1.379 . S
C285 N283 1.356 . S
N286 C278 1.356 . S
N286 H292 0.984 . S
N286 H293 0.984 . S
N287 C280 1.356 . S
N287 H290 0.984 . S
N287 H291 0.985 . S
H288 N283 0.984 . S
H289 N283 0.985 . S
H290 N287 0.984 . S
H291 N287 0.985 . S
H292 N286 0.984 . S
H293 N286 0.984 . S
H294 N282 0.984 . S
H295 N282 0.985 . S
C296 C297 1.363 . S
C296 C302 1.379 . S
C296 N304 1.356 . S
C297 C296 1.363 . S
C297 C303 1.363 . S
C298 C299 1.363 . S
C298 C303 1.379 . S
C298 N305 1.356 . S
C299 C298 1.363 . S
C299 C302 1.363 . S
N300 C302 1.356 . S
N300 H312 0.984 . S
N300 H313 0.985 . S
N301 C303 1.356 . S
N301 H306 0.984 . S
N301 H307 0.985 . S
C302 C296 1.379 . S
C302 C299 1.363 . S
C302 N300 1.356 . S
C303 C297 1.363 . S
C303 C298 1.379 . S
C303 N301 1.356 . S
N304 C296 1.356 . S
N304 H310 0.984 . S
N304 H311 0.984 . S
N305 C298 1.356 . S
N305 H308 0.984 . S
N305 H309 0.985 . S
H306 N301 0.984 . S
H307 N301 0.985 . S
H308 N305 0.984 . S
H309 N305 0.985 . S
H310 N304 0.984 . S
H311 N304 0.984 . S
H312 N300 0.984 . S
H313 N300 0.985 . S
C314 C315 1.363 . S
C314 C320 1.379 . S
C314 N322 1.356 . S
C315 C314 1.363 . S
C315 C321 1.363 . S
C316 C317 1.363 . S
C316 C321 1.379 . S
C316 N323 1.356 . S
C317 C316 1.363 . S
C317 C320 1.363 . S
N318 C320 1.356 . S
N318 H330 0.984 . S
N318 H331 0.985 . S
N319 C321 1.356 . S
N319 H324 0.984 . S
N319 H325 0.985 . S
C320 C314 1.379 . S
C320 C317 1.363 . S
C320 N318 1.356 . S
C321 C315 1.363 . S
C321 C316 1.379 . S
C321 N319 1.356 . S
N322 C314 1.356 . S
N322 H328 0.984 . S
N322 H329 0.984 . S
N323 C316 1.356 . S
N323 H326 0.984 . S
N323 H327 0.985 . S
H324 N319 0.984 . S
H325 N319 0.985 . S
H326 N323 0.984 . S
H327 N323 0.985 . S
H328 N322 0.984 . S
H329 N322 0.984 . S
H330 N318 0.984 . S
H331 N318 0.985 . S
C332 C333 1.363 . S
C332 C338 1.379 . S
C332 N340 1.356 . S
C333 C332 1.363 . S
C333 C339 1.363 . S
C334 C335 1.363 . S
C334 C339 1.379 . S
C334 N341 1.356 . S
C335 C334 1.363 . S
C335 C338 1.363 . S
N336 C338 1.356 . S
N336 H348 0.984 . S
N336 H349 0.985 . S
N337 C339 1.356 . S
N337 H342 0.984 . S
N337 H343 0.985 . S
C338 C332 1.379 . S
C338 C335 1.363 . S
C338 N336 1.356 . S
C339 C333 1.363 . S
C339 C334 1.379 . S
C339 N337 1.356 . S
N340 C332 1.356 . S
N340 H346 0.984 . S
N340 H347 0.984 . S
N341 C334 1.356 . S
N341 H344 0.984 . S
N341 H345 0.985 . S
H342 N337 0.984 . S
H343 N337 0.985 . S
H344 N341 0.984 . S
H345 N341 0.985 . S
H346 N340 0.984 . S
H347 N340 0.984 . S
H348 N336 0.984 . S
H349 N336 0.985 . S
C350 C351 1.363 . S
C350 C356 1.379 . S
C350 N358 1.356 . S
C351 C350 1.363 . S
C351 C357 1.363 . S
C352 C353 1.363 . S
C352 C357 1.379 . S
C352 N359 1.356 . S
C353 C352 1.363 . S
C353 C356 1.363 . S
N354 C356 1.356 . S
N354 H366 0.984 . S
N354 H367 0.985 . S
N355 C357 1.356 . S
N355 H360 0.984 . S
N355 H361 0.985 . S
C356 C350 1.379 . S
C356 C353 1.363 . S
C356 N354 1.356 . S
C357 C351 1.363 . S
C357 C352 1.379 . S
C357 N355 1.356 . S
N358 C350 1.356 . S
N358 H364 0.984 . S
N358 H365 0.984 . S
N359 C352 1.356 . S
N359 H362 0.984 . S
N359 H363 0.985 . S
H360 N355 0.984 . S
H361 N355 0.985 . S
H362 N359 0.984 . S
H363 N359 0.985 . S
H364 N358 0.984 . S
H365 N358 0.984 . S
H366 N354 0.984 . S
H367 N354 0.985 . S
C368 C369 1.362 1_545 S
C368 C374 1.379 . S
C368 N376 1.356 1_545 S
C369 C368 1.362 1_565 S
C369 C375 1.363 . S
C370 C371 1.363 1_565 S
C370 C375 1.379 . S
C370 N377 1.356 1_565 S
C371 C370 1.363 1_545 S
C371 C374 1.363 . S
N372 C374 1.356 . S
N372 H384 0.984 . S
N372 H385 0.985 . S
N373 C375 1.356 . S
N373 H378 0.984 . S
N373 H379 0.985 . S
C374 C368 1.379 . S
C374 C371 1.363 . S
C374 N372 1.356 . S
C375 C369 1.363 . S
C375 C370 1.379 . S
C375 N373 1.356 . S
N376 C368 1.356 1_565 S
N376 H382 0.984 1_565 S
N376 H383 0.984 . S
N377 C370 1.356 1_545 S
N377 H380 0.984 . S
N377 H381 0.985 1_545 S
H378 N373 0.984 . S
H379 N373 0.985 . S
H380 N377 0.984 . S
H381 N377 0.985 1_565 S
H382 N376 0.984 1_545 S
H383 N376 0.984 . S
H384 N372 0.984 . S
H385 N372 0.985 . S
C386 C387 1.363 . S
C386 C392 1.379 . S
C386 N394 1.356 . S
C387 C386 1.363 . S
C387 C393 1.363 . S
C388 C389 1.363 . S
C388 C393 1.379 . S
C388 N395 1.356 . S
C389 C388 1.363 . S
C389 C392 1.363 . S
N390 C392 1.356 . S
N390 H402 0.984 . S
N390 H403 0.985 . S
N391 C393 1.356 . S
N391 H396 0.984 . S
N391 H397 0.985 . S
C392 C386 1.379 . S
C392 C389 1.363 . S
C392 N390 1.356 . S
C393 C387 1.363 . S
C393 C388 1.379 . S
C393 N391 1.356 . S
N394 C386 1.356 . S
N394 H400 0.984 . S
N394 H401 0.984 . S
N395 C388 1.356 . S
N395 H398 0.984 . S
N395 H399 0.985 . S
H396 N391 0.984 . S
H397 N391 0.985 . S
H398 N395 0.984 . S
H399 N395 0.985 . S
H400 N394 0.984 . S
H401 N394 0.984 . S
H402 N390 0.984 . S
H403 N390 0.985 . S
C404 C405 1.363 . S
C404 C410 1.379 . S
C404 N412 1.356 . S
C405 C404 1.363 . S
C405 C411 1.363 . S
C406 C407 1.363 . S
C406 C411 1.379 1_554 S
C406 N413 1.356 . S
C407 C406 1.363 . S
C407 C410 1.363 1_554 S
N408 C410 1.356 1_554 S
N408 H420 0.984 1_554 S
N408 H421 0.985 . S
N409 C411 1.356 . S
N409 H414 0.984 . S
N409 H415 0.985 . S
C410 C404 1.379 . S
C410 C407 1.363 1_556 S
C410 N408 1.356 1_556 S
C411 C405 1.363 . S
C411 C406 1.379 1_556 S
C411 N409 1.356 . S
N412 C404 1.356 . S
N412 H418 0.984 . S
N412 H419 0.984 . S
N413 C406 1.356 . S
N413 H416 0.984 . S
N413 H417 0.985 . S
H414 N409 0.984 . S
H415 N409 0.985 . S
H416 N413 0.984 . S
H417 N413 0.985 . S
H418 N412 0.984 . S
H419 N412 0.984 . S
H420 N408 0.984 1_556 S
H421 N408 0.985 . S
C422 C423 1.363 1_556 S
C422 C428 1.379 . S
C422 N430 1.356 1_556 S
C423 C422 1.363 1_554 S
C423 C429 1.363 . S
C424 C425 1.363 . S
C424 C429 1.379 1_556 S
C424 N431 1.356 . S
C425 C424 1.363 . S
C425 C428 1.363 . S
N426 C428 1.356 . S
N426 H438 0.984 . S
N426 H439 0.985 . S
N427 C429 1.356 . S
N427 H432 0.984 . S
N427 H433 0.985 . S
C428 C422 1.379 . S
C428 C425 1.363 . S
C428 N426 1.356 . S
C429 C423 1.363 . S
C429 C424 1.379 1_554 S
C429 N427 1.356 . S
N430 C422 1.356 1_554 S
N430 H436 0.984 1_554 S
N430 H437 0.984 . S
N431 C424 1.356 . S
N431 H434 0.984 . S
N431 H435 0.985 . S
H432 N427 0.984 . S
H433 N427 0.985 . S
H434 N431 0.984 . S
H435 N431 0.985 . S
H436 N430 0.984 1_556 S
H437 N430 0.984 . S
H438 N426 0.984 . S
H439 N426 0.985 . S
C440 C441 1.363 . S
C440 C446 1.379 . S
C440 N448 1.356 . S
C441 C440 1.363 . S
C441 C447 1.363 . S
C442 C443 1.363 . S
C442 C447 1.379 . S
C442 N449 1.356 . S
C443 C442 1.363 . S
C443 C446 1.363 . S
N444 C446 1.356 . S
N444 H456 0.984 . S
N444 H457 0.985 . S
N445 C447 1.356 . S
N445 H450 0.984 . S
N445 H451 0.985 . S
C446 C440 1.379 . S
C446 C443 1.363 . S
C446 N444 1.356 . S
C447 C441 1.363 . S
C447 C442 1.379 . S
C447 N445 1.356 . S
N448 C440 1.356 . S
N448 H454 0.984 . S
N448 H455 0.984 . S
N449 C442 1.356 . S
N449 H452 0.984 . S
N449 H453 0.985 . S
H450 N445 0.984 . S
H451 N445 0.985 . S
H452 N449 0.984 . S
H453 N449 0.985 . S
H454 N448 0.984 . S
H455 N448 0.984 . S
H456 N444 0.984 . S
H457 N444 0.985 . S
C458 C459 1.363 . S
C458 C464 1.379 . S
C458 N466 1.356 . S
C459 C458 1.363 . S
C459 C465 1.363 . S
C460 C461 1.363 . S
C460 C465 1.379 . S
C460 N467 1.356 . S
C461 C460 1.363 . S
C461 C464 1.363 . S
N462 C464 1.356 . S
N462 H474 0.984 . S
N462 H475 0.985 . S
N463 C465 1.356 . S
N463 H468 0.984 . S
N463 H469 0.985 . S
C464 C458 1.379 . S
C464 C461 1.363 . S
C464 N462 1.356 . S
C465 C459 1.363 . S
C465 C460 1.379 . S
C465 N463 1.356 . S
N466 C458 1.356 . S
N466 H472 0.984 . S
N466 H473 0.984 . S
N467 C460 1.356 . S
N467 H470 0.984 . S
N467 H471 0.985 . S
H468 N463 0.984 . S
H469 N463 0.985 . S
H470 N467 0.984 . S
H471 N467 0.985 . S
H472 N466 0.984 . S
H473 N466 0.984 . S
H474 N462 0.984 . S
H475 N462 0.985 . S
C476 C477 1.363 . S
C476 C482 1.379 1_655 S
C476 N484 1.356 . S
C477 C476 1.363 . S
C477 C483 1.363 . S
C478 C479 1.363 . S
C478 C483 1.379 1_455 S
C478 N485 1.356 . S
C479 C478 1.363 . S
C479 C482 1.363 . S
N480 C482 1.356 . S
N480 H492 0.984 . S
N480 H493 0.985 . S
N481 C483 1.356 . S
N481 H486 0.984 . S
N481 H487 0.985 . S
C482 C476 1.379 1_455 S
C482 C479 1.363 . S
C482 N480 1.356 . S
C483 C477 1.363 . S
C483 C478 1.379 1_655 S
C483 N481 1.356 . S
N484 C476 1.356 . S
N484 H490 0.984 . S
N484 H491 0.984 . S
N485 C478 1.356 . S
N485 H488 0.984 . S
N485 H489 0.983 1_455 S
H486 N481 0.984 . S
H487 N481 0.985 . S
H488 N485 0.984 . S
H489 N485 0.983 1_655 S
H490 N484 0.984 . S
H491 N484 0.984 . S
H492 N480 0.984 . S
H493 N480 0.985 . S
C494 C495 1.363 . S
C494 C500 1.386 . S
C494 N502 1.356 . S
C495 C494 1.363 . S
C495 C501 1.363 . S
C496 C497 1.363 . S
C496 C501 1.379 1_455 S
C496 N503 1.356 . S
C497 C496 1.363 . S
C497 C500 1.356 1_455 S
N498 C500 1.353 1_455 S
N498 H510 0.984 . S
N498 H511 0.985 . S
N499 C501 1.356 . S
N499 H504 0.984 . S
N499 H505 0.985 . S
C500 C494 1.386 . S
C500 C497 1.356 1_655 S
C500 N498 1.353 1_655 S
C501 C495 1.363 . S
C501 C496 1.379 1_655 S
C501 N499 1.356 . S
N502 C494 1.356 . S
N502 H508 0.984 . S
N502 H509 0.984 . S
N503 C496 1.356 . S
N503 H506 0.984 . S
N503 H507 0.985 . S
H504 N499 0.984 . S
H505 N499 0.985 . S
H506 N503 0.984 . S
H507 N503 0.985 . S
H508 N502 0.984 . S
H509 N502 0.984 . S
H510 N498 0.984 . S
H511 N498 0.985 . S
C512 C513 1.363 . S
C512 C518 1.379 . S
C512 N520 1.356 . S
C513 C512 1.363 . S
C513 C519 1.363 . S
C514 C515 1.363 . S
C514 C519 1.379 . S
C514 N521 1.356 . S
C515 C514 1.363 . S
C515 C518 1.363 . S
N516 C518 1.356 . S
N516 H528 0.984 . S
N516 H529 0.985 . S
N517 C519 1.356 . S
N517 H522 0.984 . S
N517 H523 0.985 . S
C518 C512 1.379 . S
C518 C515 1.363 . S
C518 N516 1.356 . S
C519 C513 1.363 . S
C519 C514 1.379 . S
C519 N517 1.356 . S
N520 C512 1.356 . S
N520 H526 0.984 . S
N520 H527 0.984 . S
N521 C514 1.356 . S
N521 H524 0.984 . S
N521 H525 0.985 . S
H522 N517 0.984 . S
H523 N517 0.985 . S
H524 N521 0.984 . S
H525 N521 0.985 . S
H526 N520 0.984 . S
H527 N520 0.984 . S
H528 N516 0.984 . S
H529 N516 0.985 . S
C530 C531 1.363 . S
C530 C536 1.379 1_545 S
C530 N538 1.356 . S
C531 C530 1.363 . S
C531 C537 1.363 . S
C532 C533 1.363 1_545 S
C532 C537 1.379 . S
C532 N539 1.353 1_545 S
C533 C532 1.363 1_565 S
C533 C536 1.363 . S
N534 C536 1.356 . S
N534 H546 0.984 . S
N534 H547 0.985 . S
N535 C537 1.356 . S
N535 H540 0.984 . S
N535 H541 0.985 . S
C536 C530 1.379 1_565 S
C536 C533 1.363 . S
C536 N534 1.356 . S
C537 C531 1.363 . S
C537 C532 1.379 . S
C537 N535 1.356 . S
N538 C530 1.356 . S
N538 H544 0.984 1_545 S
N538 H545 0.984 . S
N539 C532 1.353 1_565 S
N539 H542 0.997 . S
N539 H543 0.975 1_565 S
H540 N535 0.984 . S
H541 N535 0.985 . S
H542 N539 0.997 . S
H543 N539 0.975 1_545 S
H544 N538 0.984 1_565 S
H545 N538 0.984 . S
H546 N534 0.984 . S
H547 N534 0.985 . S
C548 C549 1.363 . S
C548 C554 1.379 . S
C548 N556 1.356 . S
C549 C548 1.363 . S
C549 C555 1.363 . S
C550 C551 1.363 . S
C550 C555 1.379 . S
C550 N557 1.356 . S
C551 C550 1.363 . S
C551 C554 1.363 . S
N552 C554 1.356 . S
N552 H564 0.984 . S
N552 H565 0.985 . S
N553 C555 1.356 . S
N553 H558 0.984 . S
N553 H559 0.985 . S
C554 C548 1.379 . S
C554 C551 1.363 . S
C554 N552 1.356 . S
C555 C549 1.363 . S
C555 C550 1.379 . S
C555 N553 1.356 . S
N556 C548 1.356 . S
N556 H562 0.984 . S
N556 H563 0.984 . S
N557 C550 1.356 . S
N557 H560 0.984 . S
N557 H561 0.985 . S
H558 N553 0.984 . S
H559 N553 0.985 . S
H560 N557 0.984 . S
H561 N557 0.985 . S
H562 N556 0.984 . S
H563 N556 0.984 . S
H564 N552 0.984 . S
H565 N552 0.985 . S
C566 C567 1.363 . S
C566 C572 1.379 . S
C566 N574 1.356 . S
C567 C566 1.363 . S
C567 C573 1.363 . S
C568 C569 1.363 . S
C568 C573 1.379 1_556 S
C568 N575 1.356 . S
C569 C568 1.363 . S
C569 C572 1.363 1_556 S
N570 C572 1.356 1_556 S
N570 H582 0.984 1_556 S
N570 H583 0.985 . S
N571 C573 1.356 . S
N571 H576 0.984 . S
N571 H577 0.985 . S
C572 C566 1.379 . S
C572 C569 1.363 1_554 S
C572 N570 1.356 1_554 S
C573 C567 1.363 . S
C573 C568 1.379 1_554 S
C573 N571 1.356 . S
N574 C566 1.356 . S
N574 H580 0.984 . S
N574 H581 0.984 . S
N575 C568 1.356 . S
N575 H578 0.984 . S
N575 H579 0.985 . S
H576 N571 0.984 . S
H577 N571 0.985 . S
H578 N575 0.984 . S
H579 N575 0.985 . S
H580 N574 0.984 . S
H581 N574 0.984 . S
H582 N570 0.984 1_554 S
H583 N570 0.985 . S
C584 C585 1.363 1_554 S
C584 C590 1.379 . S
C584 N592 1.356 1_554 S
C585 C584 1.363 1_556 S
C585 C591 1.363 . S
C586 C587 1.363 . S
C586 C591 1.379 1_554 S
C586 N593 1.356 . S
C587 C586 1.363 . S
C587 C590 1.363 . S
N588 C590 1.356 . S
N588 H600 0.984 . S
N588 H601 0.985 . S
N589 C591 1.356 . S
N589 H594 0.984 . S
N589 H595 0.985 . S
C590 C584 1.379 . S
C590 C587 1.363 . S
C590 N588 1.356 . S
C591 C585 1.363 . S
C591 C586 1.379 1_556 S
C591 N589 1.356 . S
N592 C584 1.356 1_556 S
N592 H598 0.985 1_556 S
N592 H599 0.984 . S
N593 C586 1.356 . S
N593 H596 0.984 . S
N593 H597 0.985 . S
H594 N589 0.984 . S
H595 N589 0.985 . S
H596 N593 0.984 . S
H597 N593 0.985 . S
H598 N592 0.985 1_554 S
H599 N592 0.984 . S
H600 N588 0.984 . S
H601 N588 0.985 . S
C602 C603 1.363 . S
C602 C608 1.379 . S
C602 N610 1.356 . S
C603 C602 1.363 . S
C603 C609 1.363 . S
C604 C605 1.363 . S
C604 C609 1.379 . S
C604 N611 1.356 . S
C605 C604 1.363 . S
C605 C608 1.363 . S
N606 C608 1.356 . S
N606 H618 0.984 . S
N606 H619 0.985 . S
N607 C609 1.356 . S
N607 H612 0.984 . S
N607 H613 0.985 . S
C608 C602 1.379 . S
C608 C605 1.363 . S
C608 N606 1.356 . S
C609 C603 1.363 . S
C609 C604 1.379 . S
C609 N607 1.356 . S
N610 C602 1.356 . S
N610 H616 0.984 . S
N610 H617 0.984 . S
N611 C604 1.356 . S
N611 H614 0.984 . S
N611 H615 0.985 . S
H612 N607 0.984 . S
H613 N607 0.985 . S
H614 N611 0.984 . S
H615 N611 0.985 . S
H616 N610 0.984 . S
H617 N610 0.984 . S
H618 N606 0.984 . S
H619 N606 0.985 . S
C620 C621 1.363 . S
C620 C626 1.379 . S
C620 N628 1.356 . S
C621 C620 1.363 . S
C621 C627 1.363 . S
C622 C623 1.363 . S
C622 C627 1.379 . S
C622 N629 1.356 . S
C623 C622 1.363 . S
C623 C626 1.363 . S
N624 C626 1.356 . S
N624 H636 0.984 . S
N624 H637 0.985 . S
N625 C627 1.356 . S
N625 H630 0.984 . S
N625 H631 0.985 . S
C626 C620 1.379 . S
C626 C623 1.363 . S
C626 N624 1.356 . S
C627 C621 1.363 . S
C627 C622 1.379 . S
C627 N625 1.356 . S
N628 C620 1.356 . S
N628 H634 0.984 . S
N628 H635 0.984 . S
N629 C622 1.356 . S
N629 H632 0.984 . S
N629 H633 0.985 . S
H630 N625 0.984 . S
H631 N625 0.985 . S
H632 N629 0.984 . S
H633 N629 0.985 . S
H634 N628 0.984 . S
H635 N628 0.984 . S
H636 N624 0.984 . S
H637 N624 0.985 . S
C638 C639 1.363 . S
C638 C644 1.379 1_455 S
C638 N646 1.356 . S
C639 C638 1.363 . S
C639 C645 1.363 . S
C640 C641 1.363 . S
C640 C645 1.379 1_655 S
C640 N647 1.356 . S
C641 C640 1.363 . S
C641 C644 1.363 . S
N642 C644 1.356 . S
N642 H654 0.984 . S
N642 H655 0.985 . S
N643 C645 1.356 . S
N643 H648 0.984 . S
N643 H649 0.985 . S
C644 C638 1.379 1_655 S
C644 C641 1.363 . S
C644 N642 1.356 . S
C645 C639 1.363 . S
C645 C640 1.379 1_455 S
C645 N643 1.356 . S
N646 C638 1.356 . S
N646 H652 0.984 . S
N646 H653 0.984 . S
N647 C640 1.356 . S
N647 H650 0.984 . S
N647 H651 0.985 . S
H648 N643 0.984 . S
H649 N643 0.985 . S
H650 N647 0.984 . S
H651 N647 0.985 . S
H652 N646 0.984 . S
H653 N646 0.984 . S
H654 N642 0.984 . S
H655 N642 0.985 . S
C656 C657 1.363 . S
C656 C662 1.379 1_455 S
C656 N664 1.356 . S
C657 C656 1.363 . S
C657 C663 1.363 . S
C658 C659 1.363 1_455 S
C658 C663 1.379 . S
C658 N665 1.356 1_455 S
C659 C658 1.363 1_655 S
C659 C662 1.363 . S
N660 C662 1.356 . S
N660 H672 0.984 . S
N660 H673 0.985 . S
N661 C663 1.356 . S
N661 H666 0.984 . S
N661 H667 0.985 . S
C662 C656 1.379 1_655 S
C662 C659 1.363 . S
C662 N660 1.356 . S
C663 C657 1.363 . S
C663 C658 1.379 . S
C663 N661 1.356 . S
N664 C656 1.356 . S
N664 H670 0.984 . S
N664 H671 0.984 . S
N665 C658 1.356 1_655 S
N665 H668 0.984 . S
N665 H669 0.985 1_655 S
H666 N661 0.984 . S
H667 N661 0.985 . S
H668 N665 0.984 . S
H669 N665 0.985 1_455 S
H670 N664 0.984 . S
H671 N664 0.984 . S
H672 N660 0.984 . S
H673 N660 0.985 . S
C674 C675 1.363 . S
C674 C680 1.379 . S
C674 N682 1.356 . S
C675 C674 1.363 . S
C675 C681 1.363 . S
C676 C677 1.363 . S
C676 C681 1.379 . S
C676 N683 1.356 . S
C677 C676 1.363 . S
C677 C680 1.363 . S
N678 C680 1.356 . S
N678 H690 0.984 . S
N678 H691 0.985 . S
N679 C681 1.356 . S
N679 H684 0.984 . S
N679 H685 0.985 . S
C680 C674 1.379 . S
C680 C677 1.363 . S
C680 N678 1.356 . S
C681 C675 1.363 . S
C681 C676 1.379 . S
C681 N679 1.356 . S
N682 C674 1.356 . S
N682 H688 0.984 . S
N682 H689 0.984 . S
N683 C676 1.356 . S
N683 H686 0.984 . S
N683 H687 0.985 . S
H684 N679 0.984 . S
H685 N679 0.985 . S
H686 N683 0.984 . S
H687 N683 0.985 . S
H688 N682 0.984 . S
H689 N682 0.984 . S
H690 N678 0.984 . S
H691 N678 0.985 . S
C692 C693 1.363 . S
C692 C698 1.379 . S
C692 N700 1.356 . S
C693 C692 1.363 . S
C693 C699 1.363 . S
C694 C695 1.363 . S
C694 C699 1.379 . S
C694 N701 1.356 . S
C695 C694 1.363 . S
C695 C698 1.363 . S
N696 C698 1.356 . S
N696 H708 0.984 . S
N696 H709 0.985 . S
N697 C699 1.356 . S
N697 H702 0.984 . S
N697 H703 0.985 . S
C698 C692 1.379 . S
C698 C695 1.363 . S
C698 N696 1.356 . S
C699 C693 1.363 . S
C699 C694 1.379 . S
C699 N697 1.356 . S
N700 C692 1.356 . S
N700 H706 0.984 . S
N700 H707 0.984 . S
N701 C694 1.356 . S
N701 H704 0.984 . S
N701 H705 0.985 . S
H702 N697 0.984 . S
H703 N697 0.985 . S
H704 N701 0.984 . S
H705 N701 0.985 . S
H706 N700 0.984 . S
H707 N700 0.984 . S
H708 N696 0.984 . S
H709 N696 0.985 . S
C710 C711 1.363 . S
C710 C716 1.379 1_545 S
C710 N718 1.356 . S
C711 C710 1.363 . S
C711 C717 1.363 . S
C712 C713 1.363 . S
C712 C717 1.379 1_565 S
C712 N719 1.356 . S
C713 C712 1.363 . S
C713 C716 1.363 . S
N714 C716 1.356 . S
N714 H726 0.984 . S
N714 H727 0.985 . S
N715 C717 1.356 . S
N715 H720 0.984 . S
N715 H721 0.985 . S
C716 C710 1.379 1_565 S
C716 C713 1.363 . S
C716 N714 1.356 . S
C717 C711 1.363 . S
C717 C712 1.379 1_545 S
C717 N715 1.356 . S
N718 C710 1.356 . S
N718 H724 0.984 . S
N718 H725 0.984 . S
N719 C712 1.356 . S
N719 H722 0.984 . S
N719 H723 0.985 . S
H720 N715 0.984 . S
H721 N715 0.985 . S
H722 N719 0.984 . S
H723 N719 0.985 . S
H724 N718 0.984 . S
H725 N718 0.984 . S
H726 N714 0.984 . S
H727 N714 0.985 . S
C728 C729 1.363 . S
C728 C734 1.379 . S
C728 N736 1.356 . S
C729 C728 1.363 . S
C729 C735 1.363 . S
C730 C731 1.363 . S
C730 C735 1.379 . S
C730 N737 1.356 . S
C731 C730 1.363 . S
C731 C734 1.363 . S
N732 C734 1.356 . S
N732 H744 0.984 . S
N732 H745 0.985 . S
N733 C735 1.356 . S
N733 H738 0.984 . S
N733 H739 0.985 . S
C734 C728 1.379 . S
C734 C731 1.363 . S
C734 N732 1.356 . S
C735 C729 1.363 . S
C735 C730 1.379 . S
C735 N733 1.356 . S
N736 C728 1.356 . S
N736 H742 0.984 . S
N736 H743 0.984 . S
N737 C730 1.356 . S
N737 H740 0.984 . S
N737 H741 0.985 . S
H738 N733 0.984 . S
H739 N733 0.985 . S
H740 N737 0.984 . S
H741 N737 0.985 . S
H742 N736 0.984 . S
H743 N736 0.984 . S
H744 N732 0.984 . S
H745 N732 0.985 . S
C746 C747 1.363 . S
C746 C752 1.379 . S
C746 N754 1.356 . S
C747 C746 1.363 . S
C747 C753 1.363 . S
C748 C749 1.363 . S
C748 C753 1.379 . S
C748 N755 1.356 . S
C749 C748 1.363 . S
C749 C752 1.363 . S
N750 C752 1.356 . S
N750 H762 0.984 . S
N750 H763 0.985 . S
N751 C753 1.356 . S
N751 H756 0.984 . S
N751 H757 0.985 . S
C752 C746 1.379 . S
C752 C749 1.363 . S
C752 N750 1.356 . S
C753 C747 1.363 . S
C753 C748 1.379 . S
C753 N751 1.356 . S
N754 C746 1.356 . S
N754 H760 0.984 . S
N754 H761 0.984 . S
N755 C748 1.356 . S
N755 H758 0.984 . S
N755 H759 0.985 . S
H756 N751 0.984 . S
H757 N751 0.985 . S
H758 N755 0.984 . S
H759 N755 0.985 . S
H760 N754 0.984 . S
H761 N754 0.984 . S
H762 N750 0.984 . S
H763 N750 0.985 . S
C764 C765 1.363 . S
C764 C770 1.379 . S
C764 N772 1.356 . S
C765 C764 1.363 . S
C765 C771 1.363 . S
C766 C767 1.363 . S
C766 C771 1.379 1_565 S
C766 N773 1.356 . S
C767 C766 1.363 . S
C767 C770 1.363 1_565 S
N768 C770 1.356 1_565 S
N768 H780 0.984 1_565 S
N768 H781 0.985 . S
N769 C771 1.356 . S
N769 H774 0.984 . S
N769 H775 0.985 1_545 S
C770 C764 1.379 . S
C770 C767 1.363 1_545 S
C770 N768 1.356 1_545 S
C771 C765 1.363 . S
C771 C766 1.379 1_545 S
C771 N769 1.356 . S
N772 C764 1.356 . S
N772 H778 0.984 . S
N772 H779 0.984 . S
N773 C766 1.356 . S
N773 H776 0.984 . S
N773 H777 0.985 . S
H774 N769 0.984 . S
H775 N769 0.985 1_565 S
H776 N773 0.984 . S
H777 N773 0.985 . S
H778 N772 0.984 . S
H779 N772 0.984 . S
H780 N768 0.984 1_545 S
H781 N768 0.985 . S
C782 C783 1.363 . S
C782 C788 1.379 . S
C782 N790 1.356 . S
C783 C782 1.363 . S
C783 C789 1.363 . S
C784 C785 1.363 . S
C784 C789 1.379 . S
C784 N791 1.356 . S
C785 C784 1.363 . S
C785 C788 1.363 . S
N786 C788 1.356 . S
N786 H798 0.984 . S
N786 H799 0.985 . S
N787 C789 1.356 . S
N787 H792 0.984 . S
N787 H793 0.985 . S
C788 C782 1.379 . S
C788 C785 1.363 . S
C788 N786 1.356 . S
C789 C783 1.363 . S
C789 C784 1.379 . S
C789 N787 1.356 . S
N790 C782 1.356 . S
N790 H796 0.984 . S
N790 H797 0.984 . S
N791 C784 1.356 . S
N791 H794 0.984 . S
N791 H795 0.985 . S
H792 N787 0.984 . S
H793 N787 0.985 . S
H794 N791 0.984 . S
H795 N791 0.985 . S
H796 N790 0.984 . S
H797 N790 0.984 . S
H798 N786 0.984 . S
H799 N786 0.985 . S
C225 C8 1.428 . S
C227 C190 1.422 . S
C243 C22 1.308 . S
C245 C134 1.292 . S
C261 C204 1.195 . S
C263 C36 1.197 . S
C279 C50 1.159 . S
C281 C218 1.157 . S
C297 C64 1.308 . S
C299 C92 1.292 . S
C315 C148 1.428 . S
C317 C78 1.422 . S
C333 C162 1.197 . S
C335 C106 1.195 . S
C351 C120 1.157 . S
C353 C176 1.159 . S
C369 C41 1.547 . S
C371 C7 1.640 . S
C387 C21 1.515 . S
C389 C55 1.455 . S
C405 C175 1.475 . S
C407 C11 1.481 . S
C423 C25 1.476 . S
C425 C161 1.469 . S
C441 C67 1.476 . S
C443 C35 1.469 . S
C459 C151 1.481 . S
C461 C49 1.475 . S
C477 C27 1.501 . S
C479 C13 1.505 . S
C495 C53 1.478 . S
C497 C39 1.477 . S
C513 C153 1.505 . S
C515 C69 1.501 . S
C531 C105 1.494 . S
C533 C83 1.348 . S
C549 C97 1.363 . S
C551 C125 1.355 . S
C567 C221 1.556 . S
C569 C81 1.557 . S
C585 C95 1.604 . S
C587 C209 1.468 . S
C603 C137 1.604 . S
C605 C111 1.468 . S
C621 C123 1.556 . S
C623 C193 1.557 . S
C639 C91 1.685 . S
C641 C77 1.684 . S
C657 C119 1.394 . S
C659 C109 1.392 . S
C675 C133 1.685 . S
C677 C189 1.684 . S
C693 C147 1.640 . S
C695 C167 1.547 . S
C711 C181 1.455 . S
C713 C63 1.515 . S
C729 C179 1.478 . S
C731 C165 1.477 . S
C747 C203 1.494 . S
C749 C195 1.348 . S
C765 C139 1.363 . S
C767 C223 1.355 . S
C783 C217 1.394 . S
C785 C207 1.392 . S
