# Generated by pormake.
# Topology usf, (4)-cn, num edge types: 1
# Building blocks:
#     Node 0, Type 0, BuildingBlock: MUDLON_clean_sbu_0, # of connection points: 4
#     Node 1, Type 0, BuildingBlock: MUDLON_clean_sbu_0, # of connection points: 4
#     Node 2, Type 0, BuildingBlock: MUDLON_clean_sbu_0, # of connection points: 4
#     Node 3, Type 0, BuildingBlock: MUDLON_clean_sbu_0, # of connection points: 4
#     Node 4, Type 0, BuildingBlock: MUDLON_clean_sbu_0, # of connection points: 4
#     Node 5, Type 0, BuildingBlock: MUDLON_clean_sbu_0, # of connection points: 4
#     Node 6, Type 0, BuildingBlock: MUDLON_clean_sbu_0, # of connection points: 4
#     Node 7, Type 0, BuildingBlock: MUDLON_clean_sbu_0, # of connection points: 4
#     Node 8, Type 0, BuildingBlock: MUDLON_clean_sbu_0, # of connection points: 4
#     Node 9, Type 0, BuildingBlock: MUDLON_clean_sbu_0, # of connection points: 4
#     Node 10, Type 0, BuildingBlock: MUDLON_clean_sbu_0, # of connection points: 4
#     Node 11, Type 0, BuildingBlock: MUDLON_clean_sbu_0, # of connection points: 4
#     Node 12, Type 0, BuildingBlock: MUDLON_clean_sbu_0, # of connection points: 4
#     Node 13, Type 0, BuildingBlock: MUDLON_clean_sbu_0, # of connection points: 4
#     Node 14, Type 0, BuildingBlock: MUDLON_clean_sbu_0, # of connection points: 4
#     Node 15, Type 0, BuildingBlock: MUDLON_clean_sbu_0, # of connection points: 4
#     Node 16, Type 0, BuildingBlock: MUDLON_clean_sbu_0, # of connection points: 4
#     Node 17, Type 0, BuildingBlock: MUDLON_clean_sbu_0, # of connection points: 4
#     Edge 18, Type (0, 0), BuildingBlock: XIVTED_clean_linker_0, # of connection points: 2
#     Edge 19, Type (0, 0), BuildingBlock: XIVTED_clean_linker_0, # of connection points: 2
#     Edge 20, Type (0, 0), BuildingBlock: XIVTED_clean_linker_0, # of connection points: 2
#     Edge 21, Type (0, 0), BuildingBlock: XIVTED_clean_linker_0, # of connection points: 2
#     Edge 22, Type (0, 0), BuildingBlock: XIVTED_clean_linker_0, # of connection points: 2
#     Edge 23, Type (0, 0), BuildingBlock: XIVTED_clean_linker_0, # of connection points: 2
#     Edge 24, Type (0, 0), BuildingBlock: XIVTED_clean_linker_0, # of connection points: 2
#     Edge 25, Type (0, 0), BuildingBlock: XIVTED_clean_linker_0, # of connection points: 2
#     Edge 26, Type (0, 0), BuildingBlock: XIVTED_clean_linker_0, # of connection points: 2
#     Edge 27, Type (0, 0), BuildingBlock: XIVTED_clean_linker_0, # of connection points: 2
#     Edge 28, Type (0, 0), BuildingBlock: XIVTED_clean_linker_0, # of connection points: 2
#     Edge 29, Type (0, 0), BuildingBlock: XIVTED_clean_linker_0, # of connection points: 2
#     Edge 30, Type (0, 0), BuildingBlock: XIVTED_clean_linker_0, # of connection points: 2
#     Edge 31, Type (0, 0), BuildingBlock: XIVTED_clean_linker_0, # of connection points: 2
#     Edge 32, Type (0, 0), BuildingBlock: XIVTED_clean_linker_0, # of connection points: 2
#     Edge 33, Type (0, 0), BuildingBlock: XIVTED_clean_linker_0, # of connection points: 2
#     Edge 34, Type (0, 0), BuildingBlock: XIVTED_clean_linker_0, # of connection points: 2
#     Edge 35, Type (0, 0), BuildingBlock: XIVTED_clean_linker_0, # of connection points: 2
#     Edge 36, Type (0, 0), BuildingBlock: XIVTED_clean_linker_0, # of connection points: 2
#     Edge 37, Type (0, 0), BuildingBlock: XIVTED_clean_linker_0, # of connection points: 2
#     Edge 38, Type (0, 0), BuildingBlock: XIVTED_clean_linker_0, # of connection points: 2
#     Edge 39, Type (0, 0), BuildingBlock: XIVTED_clean_linker_0, # of connection points: 2
#     Edge 40, Type (0, 0), BuildingBlock: XIVTED_clean_linker_0, # of connection points: 2
#     Edge 41, Type (0, 0), BuildingBlock: XIVTED_clean_linker_0, # of connection points: 2
#     Edge 42, Type (0, 0), BuildingBlock: XIVTED_clean_linker_0, # of connection points: 2
#     Edge 43, Type (0, 0), BuildingBlock: XIVTED_clean_linker_0, # of connection points: 2
#     Edge 44, Type (0, 0), BuildingBlock: XIVTED_clean_linker_0, # of connection points: 2
#     Edge 45, Type (0, 0), BuildingBlock: XIVTED_clean_linker_0, # of connection points: 2
#     Edge 46, Type (0, 0), BuildingBlock: XIVTED_clean_linker_0, # of connection points: 2
#     Edge 47, Type (0, 0), BuildingBlock: XIVTED_clean_linker_0, # of connection points: 2
#     Edge 48, Type (0, 0), BuildingBlock: XIVTED_clean_linker_0, # of connection points: 2
#     Edge 49, Type (0, 0), BuildingBlock: XIVTED_clean_linker_0, # of connection points: 2
#     Edge 50, Type (0, 0), BuildingBlock: XIVTED_clean_linker_0, # of connection points: 2
#     Edge 51, Type (0, 0), BuildingBlock: XIVTED_clean_linker_0, # of connection points: 2
#     Edge 52, Type (0, 0), BuildingBlock: XIVTED_clean_linker_0, # of connection points: 2
#     Edge 53, Type (0, 0), BuildingBlock: XIVTED_clean_linker_0, # of connection points: 2
# Relax obj value: 0.161
# Max RMSD: 0.154
# Mean RMSD: 0.149
data_MOF--net-usf--node1-MUDLON_clean_sbu_0--edge1-XIVTED_clean_linker_0
_symmetry_space_group_name_H-M    P1
_symmetry_Int_Tables_number       1
_symmetry_cell_setting            triclinic
loop_
_symmetry_equiv_pos_as_xyz
'x, y, z'
_cell_length_a     49.405932
_cell_length_b     49.26147
_cell_length_c     29.175566
_cell_angle_alpha  90.311104
_cell_angle_beta   89.645165
_cell_angle_gamma 120.07758
loop_
_atom_site_label
_atom_site_type_symbol
_atom_site_fract_x
_atom_site_fract_y
_atom_site_fract_z
_atom_type_partial_charge
Mg0 Mg 0.9861 0.50999 0.0217 0.0
C1 C 1.02074 0.47617 0.00496 0.0
O2 O 0.0414 0.50278 0.02396 0.0
C3 C 0.93286 0.50198 0.08491 0.0
O4 O 0.94326 0.48861 0.11302 0.0
C5 C 0.97243 0.52995 0.93669 0.0
O6 O 0.94727 0.50336 0.94742 0.0
O7 O 0.99614 0.5403 0.96281 0.0
O8 O 0.9929 0.47087 0.9995 0.0
O9 O 1.01347 0.53185 0.0829 0.0
C10 C 1.01068 0.51275 0.11426 0.0
O11 O 0.9973 0.48276 0.10404 0.0
O12 O 0.94129 0.50524 0.04305 0.0
Mg13 Mg 0.55275 0.5564 0.07503 0.0
C14 C 0.57742 0.62227 0.04876 0.0
O15 O 0.54696 0.60829 0.04342 0.0
C16 C 0.5617 0.50584 0.12093 0.0
O17 O 0.5664 0.523 0.15777 0.0
C18 C 0.544 0.53722 0.97916 0.0
O19 O 0.56975 0.5382 0.99287 0.0
O20 O 0.52868 0.54382 0.00819 0.0
O21 O 0.58895 0.60602 0.06426 0.0
O22 O 0.52765 0.55031 0.14059 0.0
C23 C 0.54364 0.56646 0.17494 0.0
O24 O 0.57165 0.59053 0.16718 0.0
O25 O 0.5627 0.51781 0.0819 0.0
Mg26 Mg 0.58417 1.01144 0.98856 0.0
C27 C 0.60637 0.02636 0.89174 0.0
O28 O 0.60484 0.99926 0.89843 0.0
C29 C 0.55979 0.03742 0.06646 0.0
O30 O 0.53277 1.02196 0.0454 0.0
C31 C 0.51656 0.95347 1.00033 0.0
O32 O 0.52336 0.95578 0.04416 0.0
O33 O 0.53727 0.97214 0.97219 0.0
O34 O 0.59941 0.03873 0.92488 0.0
O35 O 0.61939 0.99889 0.00823 0.0
C36 C 0.64747 1.01695 0.99503 0.0
O37 O 0.65344 0.04036 0.96761 0.0
O38 O 0.5837 0.038 0.04883 0.0
Mg39 Mg 0.56207 0.07013 0.49683 0.0
C40 C 0.55632 1.00646 0.52196 0.0
O41 O 0.5567 1.01562 0.56445 0.0
C42 C 0.51988 0.07975 0.56163 0.0
O43 O 0.53622 0.07329 0.5904 0.0
C44 C 0.55321 0.08098 0.39991 0.0
O45 O 0.52486 0.06793 0.41738 0.0
O46 O 0.57598 0.08785 0.42686 0.0
O47 O 0.55424 1.02246 0.48948 0.0
O48 O 0.59582 0.09169 0.5525 0.0
C49 C 0.615 0.08284 0.56391 0.0
O50 O 0.62058 0.06568 0.53497 0.0
O51 O 0.52347 0.07735 0.51879 0.0
Mg52 Mg 1.01237 0.57692 0.54087 0.0
C53 C 0.04502 0.64165 0.51545 0.0
O54 O 1.01487 0.63055 0.51011 0.0
C55 C 0.98206 0.51334 0.57177 0.0
O56 O 0.96076 0.52041 0.55964 0.0
C57 C 1.01852 0.57259 0.44329 0.0
O58 O 0.0469 0.58546 0.46013 0.0
O59 O 0.99558 0.56474 0.47066 0.0
O60 O 0.05394 0.62327 0.53109 0.0
O61 O 0.98513 0.58435 0.59346 0.0
C62 C 1.00112 0.60548 0.623 0.0
O63 O 1.03089 0.6247 0.61463 0.0
O64 O 1.0108 0.53441 0.56718 0.0
Mg65 Mg 0.55432 0.5125 0.54097 0.0
C66 C 0.49405 0.49949 0.51575 0.0
O67 O 0.49144 0.4793 0.5472 0.0
C68 C 0.61968 0.5284 0.54853 0.0
O69 O 0.60328 0.49782 0.55376 0.0
C70 C 0.5341 0.45834 0.46746 0.0
O71 O 0.52678 0.4294 0.45756 0.0
O72 O 0.54351 0.46838 0.50808 0.0
O73 O 0.52127 0.52214 0.50645 0.0
O74 O 0.54279 0.50579 0.61467 0.0
C75 C 0.53437 0.52285 0.63654 0.0
O76 O 0.53118 0.54408 0.61395 0.0
O77 O 0.60517 0.54299 0.53904 0.0
Mg78 Mg 0.74527 0.91597 0.41229 0.0
C79 C 0.68772 0.90991 0.46104 0.0
O80 O 0.70217 0.90662 0.49638 0.0
C81 C 0.74743 0.8722 0.341 0.0
O82 O 0.74317 0.89096 0.31395 0.0
C83 C 0.76943 0.9044 0.49928 0.0
O84 O 0.75965 0.87772 0.47744 0.0
O85 O 0.76792 0.92647 0.47916 0.0
O86 O 0.69919 0.91195 0.42113 0.0
O87 O 0.77038 0.95094 0.35968 0.0
C88 C 0.75769 0.96504 0.34111 0.0
O89 O 0.73308 0.96362 0.36099 0.0
O90 O 0.74621 0.87521 0.38422 0.0
Mg91 Mg 0.21781 0.92146 0.35962 0.0
C92 C 0.20538 0.90209 0.26425 0.0
O93 O 0.18003 0.90147 0.27971 0.0
C94 C 0.24872 0.94271 0.45015 0.0
O95 O 0.22895 0.95315 0.45032 0.0
C96 C 0.20128 0.97655 0.36698 0.0
O97 O 0.1871 0.96556 0.4064 0.0
O98 O 0.21324 0.96257 0.34534 0.0
O99 O 0.22788 0.90959 0.29197 0.0
O100 O 0.17801 0.8783 0.38498 0.0
C101 C 0.18655 0.85826 0.39287 0.0
O102 O 0.21557 0.86597 0.3833 0.0
O103 O 0.25217 0.93081 0.41328 0.0
Mg104 Mg 0.23461 0.39752 0.30708 0.0
C105 C 0.26085 0.41558 0.21398 0.0
O106 O 0.27207 0.39796 0.2284 0.0
C107 C 0.19684 0.40767 0.38193 0.0
O108 O 0.17328 0.38342 0.36211 0.0
C109 C 0.17322 0.3509 0.27368 0.0
O110 O 0.17819 0.37814 0.25867 0.0
O111 O 0.19473 0.35025 0.29657 0.0
O112 O 0.24397 0.42114 0.24119 0.0
O113 O 0.27814 0.40147 0.33016 0.0
C114 C 0.30155 0.42914 0.32725 0.0
O115 O 0.29773 0.45103 0.30799 0.0
O116 O 0.22387 0.41969 0.36372 0.0
Mg117 Mg 0.18912 0.38726 0.80988 0.0
C118 C 0.13859 0.37789 0.87745 0.0
O119 O 0.15984 0.37862 0.90509 0.0
C120 C 0.20042 0.33861 0.76209 0.0
O121 O 0.19165 0.34889 0.72697 0.0
C122 C 0.24203 0.41499 0.87899 0.0
O123 O 0.24978 0.39625 0.85783 0.0
O124 O 0.21976 0.41798 0.86319 0.0
O125 O 0.14284 0.37756 0.83436 0.0
O126 O 0.19805 0.41041 0.74359 0.0
C127 C 0.17471 0.40471 0.71872 0.0
O128 O 0.14641 0.38702 0.73539 0.0
O129 O 0.1993 0.34863 0.80204 0.0
Mg130 Mg 0.73185 0.91336 0.91543 0.0
C131 C 0.75667 0.8923 0.83613 0.0
O132 O 0.73354 0.86479 0.84868 0.0
C133 C 0.73625 0.9377 0.00766 0.0
O134 O 0.7087 0.93137 0.99245 0.0
C135 C 0.73981 0.97506 0.89648 0.0
O136 O 0.76498 0.97989 0.91843 0.0
O137 O 0.71809 0.94679 0.88975 0.0
O138 O 0.76329 0.91615 0.86085 0.0
O139 O 0.69719 0.86372 0.93015 0.0
C140 C 0.70856 0.84904 0.95125 0.0
O141 O 0.73855 0.86436 0.96099 0.0
O142 O 0.75379 0.93251 0.98131 0.0
Mg143 Mg 0.24133 0.83696 0.84851 0.0
C144 C 0.26379 0.86384 0.75591 0.0
O145 O 0.27015 0.84096 0.7573 0.0
C146 C 0.21191 0.8552 0.92957 0.0
O147 O 0.18654 0.84355 0.90439 0.0
C148 C 0.1757 0.77661 0.85697 0.0
O149 O 0.18166 0.78035 0.9011 0.0
O150 O 0.19689 0.79479 0.8289 0.0
O151 O 0.25171 0.86899 0.7912 0.0
O152 O 0.28441 0.83505 0.85905 0.0
C153 C 0.29269 0.83365 0.89988 0.0
O154 O 0.27249 0.82741 0.93331 0.0
O155 O 0.23632 0.85614 0.91347 0.0
Mg156 Mg 0.33964 0.17778 0.6879 0.0
C157 C 0.3034 0.21159 0.68392 0.0
O158 O 0.28741 0.18722 0.65709 0.0
C159 C 0.4007 0.17778 0.69508 0.0
O160 O 0.38944 0.16761 0.73627 0.0
C161 C 0.30633 0.14697 0.77728 0.0
O162 O 0.28775 0.15756 0.76511 0.0
O163 O 0.32732 0.14942 0.74948 0.0
O164 O 0.3287 0.21549 0.70155 0.0
O165 O 0.31663 0.15482 0.62452 0.0
C166 C 0.32711 0.1399 0.60177 0.0
O167 O 0.34457 0.13076 0.62288 0.0
O168 O 0.38731 0.18867 0.67009 0.0
Mg169 Mg 0.86589 0.22542 0.70241 0.0
C170 C 0.86449 0.21639 0.60264 0.0
O171 O 0.84895 0.23135 0.60857 0.0
C172 C 0.8987 0.24521 0.79185 0.0
O173 O 0.88769 0.26445 0.78778 0.0
C174 C 0.90476 0.29254 0.68157 0.0
O175 O 0.9242 0.28165 0.68238 0.0
O176 O 0.87593 0.27361 0.69028 0.0
O177 O 0.87591 0.21042 0.63757 0.0
O178 O 0.81949 0.18672 0.72251 0.0
C179 C 0.81079 0.18299 0.76431 0.0
O180 O 0.82658 0.2061 0.79322 0.0
O181 O 0.89537 0.22702 0.75854 0.0
Mg182 Mg 0.89365 0.66352 0.72615 0.0
C183 C 0.90728 0.6869 0.63472 0.0
O184 O 0.91754 0.66704 0.63876 0.0
C185 C 0.86036 0.64359 0.81391 0.0
O186 O 0.85548 0.61762 0.79371 0.0
C187 C 0.83242 0.63453 0.69065 0.0
O188 O 0.83989 0.6618 0.70908 0.0
O189 O 0.85171 0.62458 0.69479 0.0
O190 O 0.89958 0.69577 0.67116 0.0
O191 O 0.93901 0.66518 0.7342 0.0
C192 C 0.94847 0.66233 0.77351 0.0
O193 O 0.92908 0.65423 0.80843 0.0
O194 O 0.877 0.66951 0.7931 0.0
Mg195 Mg 0.83957 0.68547 0.22166 0.0
C196 C 0.83069 0.74091 0.20479 0.0
O197 O 0.81483 0.72307 0.17004 0.0
C198 C 0.88245 0.65868 0.22322 0.0
O199 O 0.8707 0.6516 0.2648 0.0
C200 C 0.82187 0.68131 0.32224 0.0
O201 O 0.81752 0.70456 0.31067 0.0
O202 O 0.82656 0.66608 0.29077 0.0
O203 O 0.84712 0.73303 0.22871 0.0
O204 O 0.80817 0.66386 0.16398 0.0
C205 C 0.80777 0.6405 0.14451 0.0
O206 O 0.81789 0.62447 0.16741 0.0
O207 O 0.87742 0.67733 0.19945 0.0
Mg208 Mg 0.36619 0.21123 0.18902 0.0
C209 C 0.34039 0.16446 0.11178 0.0
O210 O 0.3172 0.15118 0.14127 0.0
C211 C 0.39049 0.2121 0.28129 0.0
O212 O 0.39877 0.24169 0.27525 0.0
C213 C 0.41474 0.2739 0.14977 0.0
O214 O 0.41483 0.25474 0.11835 0.0
O215 O 0.39578 0.26244 0.18344 0.0
O216 O 0.36537 0.18919 0.12364 0.0
O217 O 0.31701 0.19247 0.20689 0.0
C218 C 0.30871 0.19089 0.24864 0.0
O219 O 0.32915 0.21052 0.27823 0.0
O220 O 0.38039 0.19377 0.24693 0.0
Mg221 Mg 0.89235 0.13994 0.19107 0.0
C222 C 0.91638 0.17283 0.10266 0.0
O223 O 0.93372 0.1599 0.10919 0.0
C224 C 0.88067 0.1399 0.2896 0.0
O225 O 0.89158 0.12057 0.28507 0.0
C226 C 0.85169 0.08307 0.13155 0.0
O227 O 0.87451 0.09873 0.10217 0.0
O228 O 0.85529 0.09261 0.17288 0.0
O229 O 0.89632 0.16932 0.13311 0.0
O230 O 0.94088 0.15381 0.20772 0.0
C231 C 0.95319 0.18192 0.2225 0.0
O232 O 0.93584 0.19523 0.22329 0.0
O233 O 0.87652 0.15188 0.25368 0.0
H234 H 0.0576 0.6088 0.37593 0.0
H235 H 0.98648 0.47488 0.18892 0.0
H236 H 0.97109 0.52229 0.3983 0.0
H237 H 0.04063 0.57243 0.15039 0.0
H238 H 0.98569 0.49077 0.26801 0.0
H239 H 0.05569 0.59536 0.29472 0.0
C240 C 0.03796 0.58713 0.36349 0.0
C241 C 1.01443 0.56656 0.39365 0.0
C242 C 0.99777 0.50867 0.24224 0.0
C243 C 1.0126 0.55074 0.3013 0.0
C244 C 0.99862 0.49967 0.19714 0.0
C245 C 1.0138 0.5224 0.16292 0.0
C246 C 1.0127 0.54061 0.25351 0.0
C247 C 1.02876 0.55415 0.17569 0.0
C248 C 0.03692 0.57952 0.31724 0.0
C249 C 0.98953 0.53883 0.37598 0.0
N250 N 1.02799 0.56234 0.2201 0.0
N251 N 0.98951 0.53143 0.33094 0.0
H252 H 0.57056 0.52205 0.45138 0.0
H253 H 0.49553 0.50881 0.20321 0.0
H254 H 0.49117 0.43809 0.39907 0.0
H255 H 0.57409 0.59385 0.25511 0.0
H256 H 0.48945 0.48466 0.27852 0.0
H257 H 0.56841 0.55078 0.38408 0.0
C258 C 0.55231 0.50983 0.42626 0.0
C259 C 0.53098 0.47764 0.43099 0.0
C260 C 0.50776 0.50877 0.27368 0.0
C261 C 0.52871 0.51013 0.35326 0.0
C262 C 0.51109 0.52269 0.23062 0.0
C263 C 0.53547 0.55345 0.22244 0.0
C264 C 0.52901 0.52561 0.30902 0.0
C265 C 0.55504 0.57004 0.25952 0.0
C266 C 0.55119 0.52616 0.38763 0.0
C267 C 0.50818 0.46286 0.39679 0.0
N268 N 0.55162 0.55586 0.30084 0.0
N269 N 0.50777 0.47909 0.35945 0.0
H270 H 0.6104 0.06495 0.12431 0.0
H271 H 0.51004 0.07273 0.33528 0.0
H272 H 0.51337 0.0397 0.11551 0.0
H273 H 0.60501 0.09204 0.34879 0.0
H274 H 0.5135 0.06743 0.25269 0.0
H275 H 0.61125 0.08134 0.2039 0.0
C276 C 0.58934 0.06316 0.13887 0.0
C277 C 0.56167 0.05067 0.11308 0.0
C278 C 0.53373 0.07311 0.27354 0.0
C279 C 0.56253 0.06936 0.20451 0.0
C280 C 0.53182 0.07624 0.32085 0.0
C281 C 0.55719 0.0826 0.34925 0.0
C282 C 0.5612 0.07618 0.25411 0.0
C283 C 0.58483 0.08708 0.32832 0.0
C284 C 0.58986 0.07248 0.18443 0.0
C285 C 0.53519 0.04899 0.13396 0.0
N286 N 0.58599 0.08347 0.28209 0.0
N287 N 0.53624 0.05801 0.1784 0.0
H288 H 1.03146 0.64426 0.69516 0.0
H289 H 0.92509 0.51222 0.87536 0.0
H290 H 0.94591 0.55945 0.6605 0.0
H291 H 1.02007 0.5853 0.90156 0.0
H292 H 0.92664 0.53676 0.80241 0.0
H293 H 1.02096 0.63065 0.77599 0.0
C294 C 1.01 0.62316 0.70454 0.0
C295 C 0.98994 0.60248 0.67085 0.0
C296 C 0.94704 0.54761 0.82429 0.0
C297 C 0.9778 0.58699 0.76351 0.0
C298 C 0.94626 0.53358 0.86595 0.0
C299 C 0.97275 0.5464 0.89427 0.0
C300 C 0.97451 0.5747 0.81066 0.0
C301 C 0.99929 0.57436 0.88049 0.0
C302 C 1.00412 0.61541 0.75079 0.0
C303 C 0.96227 0.57584 0.68521 0.0
N304 N 0.99961 0.58743 0.83938 0.0
N305 N 0.95727 0.56858 0.7305 0.0
H306 H 0.54528 0.48633 0.69596 0.0
H307 H 0.51048 0.55589 0.9247 0.0
H308 H 0.51438 0.55417 0.69317 0.0
H309 H 0.55814 0.5027 0.92169 0.0
H310 H 0.50365 0.54919 0.84092 0.0
H311 H 0.54222 0.48586 0.77962 0.0
C312 C 0.53761 0.50096 0.71285 0.0
C313 C 0.53033 0.5205 0.68729 0.0
C314 C 0.5153 0.53873 0.8588 0.0
C315 C 0.52679 0.52012 0.78358 0.0
C316 C 0.51897 0.54236 0.9066 0.0
C317 C 0.53506 0.53001 0.93018 0.0
C318 C 0.52751 0.52235 0.83467 0.0
C319 C 0.54584 0.5129 0.90493 0.0
C320 C 0.53592 0.50074 0.76074 0.0
C321 C 0.52045 0.53888 0.71136 0.0
N322 N 0.54197 0.50969 0.85878 0.0
N323 N 0.51911 0.53836 0.75806 0.0
H324 H 0.63442 1.01276 0.82165 0.0
H325 H 0.60187 0.11089 0.63572 0.0
H326 H 0.59758 0.07324 0.85662 0.0
H327 H 0.64557 0.05587 0.60485 0.0
H328 H 0.60557 0.10257 0.71746 0.0
H329 H 0.64366 0.03286 0.74355 0.0
C330 C 0.62842 0.03044 0.81297 0.0
C331 C 0.61484 0.04104 0.84569 0.0
C332 C 0.6148 0.09273 0.69284 0.0
C333 C 0.6252 0.06413 0.75572 0.0
C334 C 0.61283 0.09758 0.64606 0.0
C335 C 0.62314 0.0838 0.61311 0.0
C336 C 0.62701 0.0738 0.70693 0.0
C337 C 0.63714 0.06684 0.6288 0.0
C338 C 0.63379 0.042 0.76827 0.0
C339 C 0.60796 0.0643 0.83249 0.0
N340 N 0.63827 0.06199 0.67444 0.0
N341 N 0.61285 0.07478 0.78838 0.0
H342 H 0.75338 0.84723 0.77763 0.0
H343 H 0.78566 0.95383 0.55859 0.0
H344 H 0.78779 0.94674 0.78655 0.0
H345 H 0.77097 0.8598 0.55257 0.0
H346 H 0.79119 0.95347 0.64191 0.0
H347 H 0.76459 0.8528 0.69553 0.0
C348 C 0.76383 0.87036 0.76246 0.0
C349 C 0.76934 0.89647 0.78894 0.0
C350 C 0.78722 0.9331 0.62225 0.0
C351 C 0.78166 0.90298 0.69464 0.0
C352 C 0.78405 0.9333 0.57465 0.0
C353 C 0.77742 0.90665 0.54855 0.0
C354 C 0.78342 0.90597 0.6439 0.0
C355 C 0.77571 0.88076 0.57126 0.0
C356 C 0.7702 0.87354 0.71551 0.0
C357 C 0.78306 0.92592 0.76745 0.0
N358 N 0.77825 0.88092 0.61759 0.0
N359 N 0.78823 0.92829 0.72141 0.0
H360 H 0.25109 0.91118 0.73852 0.0
H361 H 0.27725 0.90816 0.46821 0.0
H362 H 0.28653 0.85605 0.67419 0.0
H363 H 0.24629 0.96673 0.53362 0.0
H364 H 0.28684 0.89355 0.54392 0.0
H365 H 0.25446 0.93597 0.66462 0.0
C366 C 0.25983 0.90447 0.70899 0.0
C367 C 0.26824 0.88125 0.71256 0.0
C368 C 0.27836 0.90995 0.54169 0.0
C369 C 0.27204 0.90946 0.62768 0.0
C370 C 0.27307 0.91846 0.4984 0.0
C371 C 0.26062 0.93845 0.4945 0.0
C372 C 0.27103 0.9214 0.58133 0.0
C373 C 0.25558 0.95097 0.53491 0.0
C374 C 0.26177 0.91865 0.66675 0.0
C375 C 0.27955 0.87364 0.67308 0.0
N376 N 0.26043 0.94196 0.57655 0.0
N377 N 0.28084 0.88747 0.63229 0.0
H378 H 0.14261 0.38937 0.42979 0.0
H379 H 0.22966 0.43726 0.67015 0.0
H380 H 0.24298 0.44488 0.44282 0.0
H381 H 0.12944 0.39238 0.65527 0.0
H382 H 0.23535 0.44538 0.58719 0.0
H383 H 0.13745 0.39555 0.51188 0.0
C384 C 0.16357 0.4033 0.44977 0.0
C385 C 0.19328 0.41629 0.42942 0.0
C386 C 0.21213 0.43412 0.60216 0.0
C387 C 0.18758 0.42305 0.52378 0.0
C388 C 0.20887 0.42949 0.64957 0.0
C389 C 0.179 0.41375 0.6697 0.0
C390 C 0.18533 0.42274 0.57463 0.0
C391 C 0.15292 0.40434 0.64128 0.0
C392 C 0.16061 0.40678 0.49674 0.0
C393 C 0.21959 0.43428 0.45704 0.0
N394 N 0.15668 0.40863 0.59521 0.0
N395 N 0.21614 0.43671 0.50292 0.0
H396 H 0.7301 0.9894 0.28689 0.0
H397 H 0.79118 0.95324 0.05265 0.0
H398 H 0.79931 0.96035 0.28312 0.0
H399 H 0.70238 0.94907 0.07072 0.0
H400 H 0.80365 0.96974 0.13318 0.0
H401 H 0.73062 0.99059 0.20327 0.0
C402 C 0.74593 0.98393 0.26859 0.0
C403 C 0.76414 0.97403 0.29214 0.0
C404 C 0.78159 0.96544 0.11917 0.0
C405 C 0.76449 0.97497 0.19633 0.0
C406 C 0.77444 0.956 0.07335 0.0
C407 C 0.74558 0.94951 0.05502 0.0
C408 C 0.75981 0.96859 0.14649 0.0
C409 C 0.72483 0.95361 0.08333 0.0
C410 C 0.74605 0.98442 0.22081 0.0
C411 C 0.78451 0.96766 0.26642 0.0
N412 N 0.73229 0.96273 0.12758 0.0
N413 N 0.78376 0.96771 0.21981 0.0
H414 H 0.16342 0.85419 0.97749 0.0
H415 H 0.25518 0.90455 0.21711 0.0
H416 H 0.25927 0.87641 0.99257 0.0
H417 H 0.16021 0.88442 0.19916 0.0
H418 H 0.25752 0.89449 0.1351 0.0
H419 H 0.16231 0.86595 0.05872 0.0
C420 C 0.1843 0.86173 0.99776 0.0
C421 C 0.21145 0.86428 0.97805 0.0
C422 C 0.23619 0.89228 0.1492 0.0
C423 C 0.21029 0.87758 0.07143 0.0
C424 C 0.23483 0.89795 0.19603 0.0
C425 C 0.20748 0.89533 0.21513 0.0
C426 C 0.21 0.88391 0.12132 0.0
C427 C 0.18183 0.88676 0.18608 0.0
C428 C 0.18364 0.86838 0.04425 0.0
C429 C 0.23779 0.87412 0.0062 0.0
N430 N 0.18373 0.88138 0.1408 0.0
N431 N 0.23652 0.8803 0.05142 0.0
H432 H 0.28821 0.41149 0.92534 0.0
H433 H 0.23232 0.44261 0.16691 0.0
H434 H 0.22168 0.44348 0.94018 0.0
H435 H 0.29877 0.4107 0.1502 0.0
H436 H 0.23454 0.45159 0.08414 0.0
H437 H 0.29922 0.4201 0.0072 0.0
C438 C 0.27631 0.42085 0.94562 0.0
C439 C 0.25362 0.42627 0.92592 0.0
C440 C 0.24895 0.44302 0.0987 0.0
C441 C 0.26575 0.43574 0.01997 0.0
C442 C 0.24772 0.43793 0.14597 0.0
C443 C 0.26502 0.42542 0.16541 0.0
C444 C 0.26756 0.43548 0.07075 0.0
C445 C 0.28467 0.41993 0.13665 0.0
C446 C 0.28254 0.42568 0.99247 0.0
C447 C 0.23915 0.43867 0.95392 0.0
N448 N 0.28514 0.42466 0.09079 0.0
N449 N 0.24508 0.4425 0.99965 0.0
H450 H 0.38423 0.18004 0.04358 0.0
H451 H 0.2624 0.1327 0.84477 0.0
H452 H 0.28488 0.12569 0.06945 0.0
H453 H 0.35429 0.14521 0.82096 0.0
H454 H 0.26973 0.13003 0.92724 0.0
H455 H 0.37417 0.1681 0.9617 0.0
C456 C 0.36036 0.16527 0.03213 0.0
C457 C 0.33536 0.15404 0.06335 0.0
C458 C 0.28804 0.13281 0.90384 0.0
C459 C 0.32367 0.14078 0.96983 0.0
C460 C 0.28388 0.13434 0.85679 0.0
C461 C 0.30785 0.13944 0.82592 0.0
C462 C 0.31664 0.13712 0.92014 0.0
C463 C 0.3352 0.14135 0.84346 0.0
C464 C 0.35464 0.1584 0.98546 0.0
C465 C 0.30488 0.13492 0.04662 0.0
N466 N 0.3391 0.1408 0.88945 0.0
N467 N 0.29985 0.12934 1.00092 0.0
H468 H 0.92461 0.20897 0.81357 0.0
H469 H 0.88924 0.20775 0.07963 0.0
H470 H 0.89409 0.2693 0.87419 0.0
H471 H 0.94759 0.17302 0.025 0.0
H472 H 0.88994 0.22991 1.00437 0.0
H473 H 0.93308 0.19515 0.89052 0.0
C474 C 0.9201 0.21964 0.843 0.0
C475 C 0.90844 0.24017 0.83739 0.0
C476 C 0.90284 0.21769 0.00903 0.0
C477 C 0.91754 0.22405 0.92547 0.0
C478 C 0.90235 0.20497 0.05193 0.0
C479 C 0.91824 0.18839 0.05857 0.0
C480 C 0.91893 0.21339 0.97238 0.0
C481 C 0.93496 0.18558 0.02146 0.0
C482 C 0.92491 0.21172 0.88692 0.0
C483 C 0.90303 0.25331 0.87681 0.0
N484 N 0.93459 0.19765 0.97987 0.0
N485 N 0.90721 0.2447 0.91916 0.0
H486 H 0.81027 0.68335 0.08213 0.0
H487 H 0.82905 0.59194 0.86796 0.0
H488 H 0.80297 0.59248 0.09117 0.0
H489 H 0.86241 0.69142 0.86656 0.0
H490 H 0.80997 0.58917 0.94589 0.0
H491 H 0.81908 0.68343 0.99942 0.0
C492 C 0.80976 0.66307 0.06665 0.0
C493 C 0.80604 0.6379 0.0938 0.0
C494 C 0.82133 0.61161 0.92854 0.0
C495 C 0.81642 0.63809 0.99919 0.0
C496 C 0.83227 0.61326 0.88392 0.0
C497 C 0.84765 0.64205 0.86066 0.0
C498 C 0.82555 0.63889 0.95035 0.0
C499 C 0.85091 0.66878 0.88327 0.0
C500 C 0.81511 0.66331 0.01947 0.0
C501 C 0.80585 0.61242 0.07172 0.0
N502 N 0.84003 0.66657 0.92695 0.0
N503 N 0.81119 0.61327 0.02585 0.0
H504 H 0.37516 0.15272 0.30991 0.0
H505 H 0.30872 0.17294 0.54775 0.0
H506 H 0.38728 0.24094 0.35923 0.0
H507 H 0.35051 0.11419 0.54036 0.0
H508 H 0.32359 0.18791 0.46801 0.0
H509 H 0.35523 0.1299 0.38623 0.0
C510 C 0.37404 0.16737 0.33681 0.0
C511 C 0.38309 0.19886 0.32818 0.0
C512 C 0.32907 0.17138 0.48376 0.0
C513 C 0.35925 0.17264 0.41421 0.0
C514 C 0.32035 0.16256 0.52915 0.0
C515 C 0.32879 0.14261 0.55112 0.0
C516 C 0.34592 0.15985 0.45981 0.0
C517 C 0.34379 0.12987 0.52492 0.0
C518 C 0.36252 0.15429 0.38007 0.0
C519 C 0.38085 0.21668 0.36419 0.0
N520 N 0.35214 0.13891 0.4806 0.0
N521 N 0.36879 0.20321 0.40532 0.0
H522 H 0.8914 0.12109 0.37202 0.0
H523 H 0.84639 0.22948 0.52136 0.0
H524 H 0.86069 0.1812 0.31287 0.0
H525 H 0.8885 0.17868 0.57811 0.0
H526 H 0.84919 0.21026 0.44524 0.0
H527 H 0.88757 0.13962 0.4481 0.0
C528 C 0.88367 0.13807 0.37499 0.0
C529 C 0.87639 0.14964 0.3359 0.0
C530 C 0.85788 0.20335 0.47429 0.0
C531 C 0.87209 0.17109 0.4232 0.0
C532 C 0.8563 0.21432 0.51784 0.0
C533 C 0.86723 0.20567 0.55625 0.0
C534 C 0.87033 0.18342 0.469 0.0
C535 C 0.87986 0.186 0.54949 0.0
C536 C 0.88161 0.14873 0.41853 0.0
C537 C 0.86653 0.17164 0.34201 0.0
N538 N 0.88097 0.17547 0.50672 0.0
N539 N 0.86471 0.18168 0.38485 0.0
H540 H 0.86892 0.71086 0.61308 0.0
H541 H 0.84512 0.64535 0.35629 0.0
H542 H 0.92072 0.67061 0.55208 0.0
H543 H 0.81686 0.7117 0.39825 0.0
H544 H 0.86629 0.64848 0.43268 0.0
H545 H 0.84518 0.70792 0.53803 0.0
C546 C 0.87577 0.70199 0.58385 0.0
C547 C 0.8969 0.69099 0.58895 0.0
C548 C 0.85529 0.66223 0.42528 0.0
C549 C 0.86915 0.68669 0.50364 0.0
C550 C 0.84289 0.66022 0.38172 0.0
C551 C 0.82938 0.67848 0.37056 0.0
C552 C 0.85401 0.68247 0.45826 0.0
C553 C 0.82722 0.69731 0.4052 0.0
C554 C 0.86199 0.70005 0.54117 0.0
C555 C 0.90451 0.6793 0.54995 0.0
N556 N 0.83954 0.69894 0.44744 0.0
N557 N 0.89047 0.6772 0.50921 0.0
H558 H 0.06265 0.46457 0.04657 0.0
H559 H 0.09429 0.38583 0.83111 0.0
H560 H 1.00329 0.43841 0.92773 0.0
H561 H 0.12682 0.38397 0.96737 0.0
H562 H 0.05993 0.40377 0.86385 0.0
H563 H 0.08585 0.43444 0.01698 0.0
C564 C 0.05421 0.45208 0.01441 0.0
C565 C 1.03099 0.45397 0.98962 0.0
C566 C 0.07425 0.39893 0.88654 0.0
C567 C 0.0581 0.41984 0.95468 0.0
C568 C 0.09386 0.38864 0.8679 0.0
C569 C 0.11381 0.38363 0.89641 0.0
C570 C 0.07487 0.40459 0.93393 0.0
C571 C 0.11217 0.38774 0.94385 0.0
C572 C 0.06746 0.43483 0.99749 0.0
C573 C 1.02098 0.43734 0.94808 0.0
N574 N 0.09348 0.39833 0.96091 0.0
N575 N 1.03497 0.42136 0.93147 0.0
H576 H 0.72837 0.81223 0.99201 0.0
H577 H 0.55772 0.66028 0.01218 0.0
H578 H 0.6447 0.80894 0.9423 0.0
H579 H 0.64185 0.66115 0.05358 0.0
H580 H 0.58908 0.71474 0.98816 0.0
H581 H 0.6972 0.75761 0.01582 0.0
C582 C 0.70339 0.80007 0.986 0.0
C583 C 0.68921 0.81545 0.96501 0.0
C584 C 0.60078 0.70313 1.00248 0.0
C585 C 0.65315 0.75235 0.9926 0.0
C586 C 0.58285 0.67189 0.01638 0.0
C587 C 0.59707 0.65586 0.0351 0.0
C588 C 0.6334 0.71888 0.00726 0.0
C589 C 0.62979 0.67243 0.03943 0.0
C590 C 0.68559 0.76874 0.99968 0.0
C591 C 0.65672 0.79819 0.95826 0.0
N592 N 0.64681 0.70298 0.02566 0.0
N593 N 0.63983 0.76766 0.97207 0.0
H594 H 0.34434 0.86153 0.84291 0.0
H595 H 0.4657 0.91196 0.05132 0.0
H596 H 0.31745 0.83269 0.98312 0.0
H597 H 0.49335 0.9444 0.91256 0.0
H598 H 0.41193 0.87861 0.02521 0.0
H599 H 0.39943 0.88726 0.86576 0.0
C600 C 0.34995 0.86012 0.87833 0.0
C601 C 0.32608 0.84501 0.91114 0.0
C602 C 0.42977 0.89285 1.00036 0.0
C603 C 0.38925 0.87482 0.93769 0.0
C604 C 0.46057 0.91193 0.01528 0.0
C605 C 0.48421 0.93124 0.98422 0.0
C606 C 0.42232 0.89299 0.95394 0.0
C607 C 0.47597 0.93005 0.93786 0.0
C608 C 0.38146 0.87501 0.89142 0.0
C609 C 0.33494 0.84416 0.9566 0.0
N610 N 0.44576 0.91145 0.92423 0.0
N611 N 0.36567 0.85902 0.96851 0.0
H612 H 0.48906 0.10406 0.5129 0.0
H613 H 0.43673 0.15893 0.73996 0.0
H614 H 0.50885 0.08822 0.65092 0.0
H615 H 0.41433 0.17513 0.60379 0.0
H616 H 0.46577 0.13564 0.70671 0.0
H617 H 0.46262 0.13113 0.5442 0.0
C618 C 0.48764 0.106 0.54972 0.0
C619 C 0.50121 0.09372 0.57926 0.0
C620 C 0.45477 0.1445 0.68395 0.0
C621 C 0.47136 0.12509 0.61528 0.0
C622 C 0.4383 0.15803 0.70299 0.0
C623 C 0.42297 0.16903 0.67474 0.0
C624 C 0.45589 0.14163 0.63611 0.0
C625 C 0.42589 0.16714 0.62697 0.0
C626 C 0.4727 0.12164 0.56756 0.0
C627 C 0.49878 0.0972 0.62669 0.0
N628 N 0.44176 0.15344 0.60918 0.0
N629 N 0.48428 0.11254 0.64309 0.0
H630 H 0.96544 0.33806 0.66593 0.0
H631 H 0.92245 0.46793 0.59148 0.0
H632 H 0.87164 0.32324 0.6677 0.0
H633 H 1.01735 0.48584 0.59501 0.0
H634 H 0.90407 0.41539 0.62042 0.0
H635 H 0.9851 0.39211 0.64152 0.0
C636 C 0.94891 0.34615 0.66136 0.0
C637 C 0.91671 0.32588 0.66883 0.0
C638 C 0.92893 0.4307 0.61502 0.0
C639 C 0.9393 0.38811 0.64057 0.0
C640 C 0.93956 0.46087 0.59833 0.0
C641 C 0.97162 0.48151 0.5905 0.0
C642 C 0.95036 0.42066 0.624 0.0
C643 C 0.99247 0.4708 0.60042 0.0
C644 C 0.96024 0.37712 0.64738 0.0
C645 C 0.89658 0.33791 0.6624 0.0
N646 N 0.98146 0.44107 0.6165 0.0
N647 N 0.90819 0.36814 0.6485 0.0
H648 H 0.80055 0.57294 0.65915 0.0
H649 H 0.66001 0.59199 0.5572 0.0
H650 H 0.79773 0.65911 0.6596 0.0
H651 H 0.65644 0.50286 0.56693 0.0
H652 H 0.7137 0.61787 0.58591 0.0
H653 H 0.75051 0.54741 0.6174 0.0
C654 C 0.78955 0.58648 0.65035 0.0
C655 C 0.80315 0.61806 0.66355 0.0
C656 C 0.70126 0.59265 0.58143 0.0
C657 C 0.74628 0.58927 0.61566 0.0
C658 C 0.67061 0.5779 0.5648 0.0
C659 C 0.65352 0.54517 0.56001 0.0
C660 C 0.71498 0.57459 0.59344 0.0
C661 C 0.66858 0.52813 0.57045 0.0
C662 C 0.76103 0.57196 0.62657 0.0
C663 C 0.78795 0.63457 0.65094 0.0
N664 N 0.69829 0.54297 0.58698 0.0
N665 N 0.76045 0.62002 0.62797 0.0
H666 H 0.89123 0.65202 0.13125 0.0
H667 H 0.91997 0.50769 0.17468 0.0
H668 H 0.89796 0.61898 0.26506 0.0
H669 H 0.91939 0.54274 0.03958 0.0
H670 H 0.90934 0.547 0.20755 0.0
H671 H 0.90128 0.61247 0.09637 0.0
C672 C 0.89541 0.6369 0.15333 0.0
C673 C 0.8938 0.63893 0.20125 0.0
C674 C 0.9113 0.546 0.17067 0.0
C675 C 0.90458 0.59311 0.16149 0.0
C676 C 0.91709 0.52329 0.15177 0.0
C677 C 0.92065 0.5218 0.10418 0.0
C678 C 0.90901 0.56757 0.14193 0.0
C679 C 0.91681 0.5429 0.07643 0.0
C680 C 0.90081 0.61409 0.13336 0.0
C681 C 0.89894 0.61833 0.22802 0.0
N682 N 0.9114 0.56501 0.09571 0.0
N683 N 0.90392 0.59627 0.20782 0.0
H684 H 0.42955 0.31964 0.21526 0.0
H685 H 0.5458 0.46143 0.05298 0.0
H686 H 0.45222 0.3061 0.07704 0.0
H687 H 0.53981 0.47092 0.19933 0.0
H688 H 0.51135 0.40465 0.06051 0.0
H689 H 0.46853 0.37555 0.20926 0.0
C690 C 0.44261 0.32841 0.1836 0.0
C691 C 0.4375 0.30808 0.14658 0.0
C692 C 0.51789 0.41913 0.09103 0.0
C693 C 0.48228 0.37212 0.1395 0.0
C694 C 0.53772 0.45157 0.08678 0.0
C695 C 0.54579 0.47113 0.12553 0.0
C696 C 0.50565 0.4061 0.13425 0.0
C697 C 0.53438 0.45691 0.16843 0.0
C698 C 0.46502 0.36031 0.18029 0.0
C699 C 0.45532 0.32082 0.1065 0.0
N700 N 0.51465 0.4254 0.17154 0.0
N701 N 0.47675 0.35196 0.10396 0.0
H702 H 0.83522 0.05792 0.04543 0.0
H703 H 0.65293 0.99788 0.08125 0.0
H704 H 0.79523 0.0583 0.17723 0.0
H705 H 0.70287 0.03298 0.95382 0.0
H706 H 0.70131 1.00519 0.11657 0.0
H707 H 0.78289 0.03259 0.01221 0.0
C708 C 0.81542 0.05223 0.0676 0.0
C709 C 0.81982 0.06094 0.11404 0.0
C710 C 0.70143 1.01073 0.08067 0.0
C711 C 0.75982 0.0325 0.07578 0.0
C712 C 0.67383 1.00632 0.06042 0.0
C713 C 0.67402 1.01501 0.01461 0.0
C714 C 0.72911 1.02329 0.05457 0.0
C715 C 0.7018 0.02618 0.98931 0.0
C716 C 0.78556 0.03799 0.04846 0.0
C717 C 0.79309 0.05246 0.14112 0.0
N718 N 0.7282 0.0301 0.00964 0.0
N719 N 0.76428 0.0392 0.12144 0.0
H720 H 0.56523 0.98704 0.43753 0.0
H721 H 0.65817 0.90755 0.54189 0.0
H722 H 0.57219 0.97416 0.58232 0.0
H723 H 0.65748 0.92665 0.39784 0.0
H724 H 0.61999 0.92432 0.55588 0.0
H725 H 0.59172 0.95737 0.4213 0.0
C726 C 0.57178 0.97751 0.46596 0.0
C727 C 0.56666 0.98344 0.51146 0.0
C728 C 0.62791 0.92456 0.52112 0.0
C729 C 0.59745 0.94964 0.49296 0.0
C730 C 0.64973 0.9149 0.51304 0.0
C731 C 0.66137 0.91593 0.46863 0.0
C732 C 0.61758 0.93548 0.48459 0.0
C733 C 0.64933 0.92557 0.43268 0.0
C734 C 0.58709 0.96067 0.45661 0.0
C735 C 0.57572 0.97037 0.54673 0.0
N736 N 0.62836 0.93524 0.44151 0.0
N737 N 0.59093 0.95443 0.53676 0.0
H738 H 0.10936 0.67161 0.50782 0.0
H739 H 0.12385 0.83161 0.41404 0.0
H740 H 1.03095 0.68652 0.49206 0.0
H741 H 0.20102 0.81396 0.41864 0.0
H742 H 0.08993 0.77964 0.44739 0.0
H743 H 0.14419 0.72524 0.48041 0.0
C744 C 0.09951 0.68619 0.49894 0.0
C745 C 0.06719 0.67448 0.50202 0.0
C746 C 0.11432 0.7872 0.44112 0.0
C747 C 0.10675 0.7357 0.47053 0.0
C748 C 0.13366 0.81686 0.42207 0.0
C749 C 0.16527 0.82713 0.41328 0.0
C750 C 0.12672 0.76773 0.45159 0.0
C751 C 0.17675 0.80702 0.42454 0.0
C752 C 0.11935 0.71675 0.48314 0.0
C753 C 0.05569 0.69442 0.48996 0.0
N754 N 0.15752 0.77836 0.44301 0.0
N755 N 0.07539 0.72393 0.47468 0.0
H756 H 0.31366 0.39493 0.38908 0.0
H757 H 0.49124 0.52759 0.43553 0.0
H758 H 0.35745 0.48367 0.31816 0.0
H759 H 0.43417 0.45335 0.5303 0.0
H760 H 0.44536 0.50963 0.38564 0.0
H761 H 0.36152 0.41287 0.43342 0.0
C762 C 0.33346 0.41802 0.38241 0.0
C763 C 0.33147 0.43791 0.35016 0.0
C764 C 0.44299 0.4975 0.41757 0.0
C765 C 0.38623 0.45871 0.40098 0.0
C766 C 0.46905 0.50786 0.44615 0.0
C767 C 0.46651 0.49205 0.48725 0.0
C768 C 0.41444 0.47103 0.43013 0.0
C769 C 0.4373 0.4663 0.49898 0.0
C770 C 0.3607 0.42836 0.40797 0.0
C771 C 0.3579 0.46766 0.34301 0.0
N772 N 0.41255 0.45654 0.47051 0.0
N773 N 0.38419 0.47722 0.36833 0.0
H774 H 0.80026 0.76629 0.15977 0.0
H775 H 0.77205 0.84081 0.3864 0.0
H776 H 0.84299 0.76919 0.28965 0.0
H777 H 0.7491 0.85745 0.2508 0.0
H778 H 0.79519 0.81156 0.35232 0.0
H779 H 0.78002 0.79835 0.19265 0.0
C780 C 0.80577 0.77403 0.19504 0.0
C781 C 0.82326 0.76486 0.222 0.0
C782 C 0.78504 0.82158 0.33005 0.0
C783 C 0.7995 0.80108 0.26023 0.0
C784 C 0.77155 0.83804 0.34951 0.0
C785 C 0.75852 0.8516 0.32145 0.0
C786 C 0.78531 0.81837 0.28218 0.0
C787 C 0.75883 0.84742 0.27381 0.0
C788 C 0.79406 0.79223 0.21386 0.0
C789 C 0.82962 0.77563 0.26753 0.0
N790 N 0.77195 0.83117 0.25573 0.0
N791 N 0.81744 0.79284 0.28535 0.0
H792 H 0.26623 0.14013 0.19836 0.0
H793 H 0.20506 0.02616 0.41593 0.0
H794 H 0.29042 0.17305 0.33777 0.0
H795 H 0.21136 0.99695 0.27853 0.0
H796 H 0.2229 0.07932 0.3871 0.0
H797 H 0.23191 0.08716 0.22722 0.0
C798 C 0.26384 0.13644 0.23506 0.0
C799 C 0.28183 0.16109 0.26559 0.0
C800 C 0.21985 0.06108 0.36324 0.0
C801 C 0.24254 0.10032 0.2988 0.0
C802 C 0.20954 0.03075 0.3796 0.0
C803 C 0.20705 1.00721 0.34962 0.0
C804 C 0.22719 0.06771 0.31652 0.0
C805 C 0.21332 1.01449 0.30291 0.0
C806 C 0.24432 0.1061 0.25149 0.0
C807 C 0.27733 0.15478 0.31286 0.0
N808 N 0.22323 0.04408 0.28787 0.0
N809 N 0.25849 0.12493 0.328 0.0
H810 H 0.11903 0.35109 0.26502 0.0
H811 H 1.00451 0.1752 0.20051 0.0
H812 H 0.15523 0.28765 0.27204 0.0
H813 H 0.97697 0.23213 0.27859 0.0
H814 H 0.05992 0.21402 0.21696 0.0
H815 H 0.06654 0.30659 0.25738 0.0
C816 C 0.11595 0.32771 0.26477 0.0
C817 C 0.14157 0.3231 0.26918 0.0
C818 C 0.04153 0.21749 0.23099 0.0
C819 C 0.0811 0.2717 0.26013 0.0
C820 C 1.01003 0.19542 0.22172 0.0
C821 C 0.98616 0.20079 0.23745 0.0
C822 C 0.04876 0.24493 0.25562 0.0
C823 C 0.99455 0.22733 0.26481 0.0
C824 C 0.08588 0.30226 0.2607 0.0
C825 C 0.13599 0.29214 0.26894 0.0
N826 N 1.02502 0.24851 0.27238 0.0
N827 N 0.10624 0.26743 0.26401 0.0
H828 H 0.2593 0.21721 0.63649 0.0
H829 H 0.2365 0.32572 0.82037 0.0
H830 H 0.31677 0.25243 0.75726 0.0
H831 H 0.19734 0.30619 0.68432 0.0
H832 H 0.26309 0.29601 0.80205 0.0
H833 H 0.23409 0.2472 0.65701 0.0
C834 C 0.26679 0.23143 0.66731 0.0
C835 C 0.29031 0.23228 0.6951 0.0
C836 C 0.24859 0.2982 0.77635 0.0
C837 C 0.26097 0.2667 0.71934 0.0
C838 C 0.23319 0.31493 0.78688 0.0
C839 C 0.21454 0.31845 0.75387 0.0
C840 C 0.24506 0.28462 0.73266 0.0
C841 C 0.21143 0.30419 0.7109 0.0
C842 C 0.2523 0.2486 0.67905 0.0
C843 C 0.29893 0.25124 0.73462 0.0
N844 N 0.22642 0.28797 0.70167 0.0
N845 N 0.28411 0.26754 0.74576 0.0
H846 H 0.79074 0.16667 0.85267 0.0
H847 H 0.71401 0.98113 0.81572 0.0
H848 H 0.78119 0.12623 0.71797 0.0
H849 H 0.76538 0.03246 0.93516 0.0
H850 H 0.72282 0.03092 0.78201 0.0
H851 H 0.76446 0.11408 0.88532 0.0
C852 C 0.78259 0.14675 0.82973 0.0
C853 C 0.78877 0.15108 0.78247 0.0
C854 C 0.73152 0.03099 0.81602 0.0
C855 C 0.75862 0.09048 0.82002 0.0
C856 C 0.72629 1.00264 0.83537 0.0
C857 C 0.73891 1.0027 0.87843 0.0
C858 C 0.74882 0.05925 0.84048 0.0
C859 C 0.75515 0.0313 0.90205 0.0
C860 C 0.76766 0.11667 0.84851 0.0
C861 C 0.77725 0.12411 0.75463 0.0
N862 N 0.75961 0.05828 0.88287 0.0
N863 N 0.7631 0.09494 0.77387 0.0
H864 H 0.15185 0.7689 0.7695 0.0
H865 H 0.97478 0.65546 0.85165 0.0
H866 H 0.12511 0.73428 0.9075 0.0
H867 H 0.99909 0.69352 0.71503 0.0
H868 H 1.03026 0.67902 0.86937 0.0
H869 H 0.09706 0.73682 0.74605 0.0
C870 C 0.1346 0.75429 0.7948 0.0
C871 C 0.14327 0.75453 0.84071 0.0
C872 C 1.02356 0.68211 0.83538 0.0
C873 C 0.08023 0.71777 0.814 0.0
C874 C 0.99176 0.66855 0.82514 0.0
C875 C 0.98207 0.67276 0.78188 0.0
C876 C 0.04617 0.70024 0.80226 0.0
C877 C 1.00536 0.68975 0.74891 0.0
C878 C 0.10324 0.73603 0.78137 0.0
C879 C 0.11969 0.73507 0.87182 0.0
N880 N 0.03627 0.7031 0.7599 0.0
N881 N 0.08939 0.71773 0.85799 0.0
loop_
_geom_bond_atom_site_label_1
_geom_bond_atom_site_label_2
_geom_bond_distance
_geom_bond_site_symmetry_2
_ccdc_geom_bond_type
Mg0 O7 2.141 1_554 S
Mg0 O8 2.048 . S
Mg0 O9 2.048 . S
Mg0 O12 2.141 . S
C1 O2 1.313 . S
C1 O8 1.195 . S
O2 C1 1.313 . S
C3 O4 1.245 . S
C3 O12 1.289 1_655 S
O4 C3 1.245 . S
C5 O6 1.245 1_455 S
C5 O7 1.289 . S
O6 C5 1.245 1_655 S
O7 Mg0 2.141 1_556 S
O7 C5 1.289 . S
O8 Mg0 2.048 . S
O8 C1 1.195 . S
O9 Mg0 2.048 . S
O9 C10 1.195 . S
C10 O9 1.195 . S
C10 O11 1.320 . S
O11 C10 1.320 . S
O12 Mg0 2.141 . S
O12 C3 1.289 1_455 S
Mg13 O20 2.141 1_554 S
Mg13 O21 2.048 . S
Mg13 O22 2.048 . S
Mg13 O25 2.141 . S
C14 O15 1.313 . S
C14 O21 1.195 . S
O15 C14 1.313 . S
C16 O17 1.245 . S
C16 O25 1.289 . S
O17 C16 1.245 . S
C18 O19 1.245 . S
C18 O20 1.289 . S
O19 C18 1.245 . S
O20 Mg13 2.141 1_556 S
O20 C18 1.289 . S
O21 Mg13 2.048 . S
O21 C14 1.195 . S
O22 Mg13 2.048 . S
O22 C23 1.195 . S
C23 O22 1.195 . S
C23 O24 1.313 . S
O24 C23 1.313 . S
O25 Mg13 2.141 . S
O25 C16 1.289 . S
Mg26 O33 2.141 1_545 S
Mg26 O34 2.048 1_554 S
Mg26 O35 2.048 . S
Mg26 O38 2.141 . S
C27 O28 1.313 1_545 S
C27 O34 1.195 . S
O28 C27 1.313 1_565 S
C29 O30 1.245 . S
C29 O38 1.289 1_565 S
O30 C29 1.245 . S
C31 O32 1.245 . S
C31 O33 1.289 . S
O32 C31 1.245 . S
O33 Mg26 2.141 1_565 S
O33 C31 1.289 . S
O34 Mg26 2.048 1_556 S
O34 C27 1.195 . S
O35 Mg26 2.048 . S
O35 C36 1.195 . S
C36 O35 1.195 . S
C36 O37 1.313 . S
O37 C36 1.313 . S
O38 Mg26 2.141 . S
O38 C29 1.289 1_545 S
Mg39 O46 2.141 . S
Mg39 O47 2.048 . S
Mg39 O48 2.048 . S
Mg39 O51 2.141 . S
C40 O41 1.313 . S
C40 O47 1.195 1_565 S
O41 C40 1.313 . S
C42 O43 1.245 . S
C42 O51 1.289 . S
O43 C42 1.245 . S
C44 O45 1.245 1_545 S
C44 O46 1.289 . S
O45 C44 1.245 1_565 S
O46 Mg39 2.141 . S
O46 C44 1.289 . S
O47 Mg39 2.048 . S
O47 C40 1.195 1_545 S
O48 Mg39 2.048 . S
O48 C49 1.195 . S
C49 O48 1.195 . S
C49 O50 1.313 1_545 S
O50 C49 1.313 1_565 S
O51 Mg39 2.141 . S
O51 C42 1.289 . S
Mg52 O59 2.141 1_455 S
Mg52 O60 2.048 . S
Mg52 O61 2.048 . S
Mg52 O64 2.141 1_455 S
C53 O54 1.313 . S
C53 O60 1.195 . S
O54 C53 1.313 . S
C55 O56 1.245 1_655 S
C55 O64 1.289 . S
O56 C55 1.245 1_455 S
C57 O58 1.245 . S
C57 O59 1.289 1_455 S
O58 C57 1.245 . S
O59 Mg52 2.141 1_655 S
O59 C57 1.289 1_655 S
O60 Mg52 2.048 . S
O60 C53 1.195 . S
O61 Mg52 2.048 . S
O61 C62 1.195 . S
C62 O61 1.195 . S
C62 O63 1.313 . S
O63 C62 1.313 . S
O64 Mg52 2.141 1_655 S
O64 C55 1.289 . S
Mg65 O72 2.141 . S
Mg65 O73 2.048 . S
Mg65 O74 2.048 . S
Mg65 O77 2.141 . S
C66 O67 1.313 . S
C66 O73 1.195 . S
O67 C66 1.313 . S
C68 O69 1.245 . S
C68 O77 1.289 . S
O69 C68 1.245 . S
C70 O71 1.245 . S
C70 O72 1.289 . S
O71 C70 1.245 . S
O72 Mg65 2.141 . S
O72 C70 1.289 . S
O73 Mg65 2.048 . S
O73 C66 1.195 . S
O74 Mg65 2.048 . S
O74 C75 1.195 . S
C75 O74 1.195 . S
C75 O76 1.313 . S
O76 C75 1.313 . S
O77 Mg65 2.141 . S
O77 C68 1.289 . S
Mg78 O85 2.141 . S
Mg78 O86 2.048 . S
Mg78 O87 2.048 . S
Mg78 O90 2.141 . S
C79 O80 1.313 . S
C79 O86 1.195 . S
O80 C79 1.313 . S
C81 O82 1.245 . S
C81 O90 1.289 . S
O82 C81 1.245 . S
C83 O84 1.245 . S
C83 O85 1.289 . S
O84 C83 1.245 . S
O85 Mg78 2.141 . S
O85 C83 1.289 . S
O86 Mg78 2.048 . S
O86 C79 1.195 . S
O87 Mg78 2.048 . S
O87 C88 1.195 . S
C88 O87 1.195 . S
C88 O89 1.313 . S
O89 C88 1.313 . S
O90 Mg78 2.141 . S
O90 C81 1.289 . S
Mg91 O98 2.141 . S
Mg91 O99 2.048 . S
Mg91 O100 2.048 . S
Mg91 O103 2.141 . S
C92 O93 1.313 . S
C92 O99 1.195 . S
O93 C92 1.313 . S
C94 O95 1.245 . S
C94 O103 1.289 . S
O95 C94 1.245 . S
C96 O97 1.245 . S
C96 O98 1.289 . S
O97 C96 1.245 . S
O98 Mg91 2.141 . S
O98 C96 1.289 . S
O99 Mg91 2.048 . S
O99 C92 1.195 . S
O100 Mg91 2.048 . S
O100 C101 1.195 . S
C101 O100 1.195 . S
C101 O102 1.313 . S
O102 C101 1.313 . S
O103 Mg91 2.141 . S
O103 C94 1.289 . S
Mg104 O111 2.141 . S
Mg104 O112 2.048 . S
Mg104 O113 2.048 . S
Mg104 O116 2.141 . S
C105 O106 1.313 . S
C105 O112 1.195 . S
O106 C105 1.313 . S
C107 O108 1.245 . S
C107 O116 1.289 . S
O108 C107 1.245 . S
C109 O110 1.245 . S
C109 O111 1.289 . S
O110 C109 1.245 . S
O111 Mg104 2.141 . S
O111 C109 1.289 . S
O112 Mg104 2.048 . S
O112 C105 1.195 . S
O113 Mg104 2.048 . S
O113 C114 1.195 . S
C114 O113 1.195 . S
C114 O115 1.313 . S
O115 C114 1.313 . S
O116 Mg104 2.141 . S
O116 C107 1.289 . S
Mg117 O124 2.141 . S
Mg117 O125 2.048 . S
Mg117 O126 2.048 . S
Mg117 O129 2.141 . S
C118 O119 1.313 . S
C118 O125 1.195 . S
O119 C118 1.313 . S
C120 O121 1.245 . S
C120 O129 1.289 . S
O121 C120 1.245 . S
C122 O123 1.245 . S
C122 O124 1.289 . S
O123 C122 1.245 . S
O124 Mg117 2.141 . S
O124 C122 1.289 . S
O125 Mg117 2.048 . S
O125 C118 1.195 . S
O126 Mg117 2.048 . S
O126 C127 1.195 . S
C127 O126 1.195 . S
C127 O128 1.313 . S
O128 C127 1.313 . S
O129 Mg117 2.141 . S
O129 C120 1.289 . S
Mg130 O137 2.141 . S
Mg130 O138 2.048 . S
Mg130 O139 2.048 . S
Mg130 O142 2.141 . S
C131 O132 1.313 . S
C131 O138 1.195 . S
O132 C131 1.313 . S
C133 O134 1.245 . S
C133 O142 1.289 . S
O134 C133 1.245 . S
C135 O136 1.245 . S
C135 O137 1.289 . S
O136 C135 1.245 . S
O137 Mg130 2.141 . S
O137 C135 1.289 . S
O138 Mg130 2.048 . S
O138 C131 1.195 . S
O139 Mg130 2.048 . S
O139 C140 1.195 . S
C140 O139 1.195 . S
C140 O141 1.313 . S
O141 C140 1.313 . S
O142 Mg130 2.141 . S
O142 C133 1.289 . S
Mg143 O150 2.141 . S
Mg143 O151 2.048 . S
Mg143 O152 2.048 . S
Mg143 O155 2.141 . S
C144 O145 1.313 . S
C144 O151 1.195 . S
O145 C144 1.313 . S
C146 O147 1.245 . S
C146 O155 1.289 . S
O147 C146 1.245 . S
C148 O149 1.245 . S
C148 O150 1.289 . S
O149 C148 1.245 . S
O150 Mg143 2.141 . S
O150 C148 1.289 . S
O151 Mg143 2.048 . S
O151 C144 1.195 . S
O152 Mg143 2.048 . S
O152 C153 1.195 . S
C153 O152 1.195 . S
C153 O154 1.313 . S
O154 C153 1.313 . S
O155 Mg143 2.141 . S
O155 C146 1.289 . S
Mg156 O163 2.141 . S
Mg156 O164 2.048 . S
Mg156 O165 2.048 . S
Mg156 O168 2.141 . S
C157 O158 1.313 . S
C157 O164 1.195 . S
O158 C157 1.313 . S
C159 O160 1.245 . S
C159 O168 1.289 . S
O160 C159 1.245 . S
C161 O162 1.245 . S
C161 O163 1.289 . S
O162 C161 1.245 . S
O163 Mg156 2.141 . S
O163 C161 1.289 . S
O164 Mg156 2.048 . S
O164 C157 1.195 . S
O165 Mg156 2.048 . S
O165 C166 1.195 . S
C166 O165 1.195 . S
C166 O167 1.313 . S
O167 C166 1.313 . S
O168 Mg156 2.141 . S
O168 C159 1.289 . S
Mg169 O176 2.141 . S
Mg169 O177 2.048 . S
Mg169 O178 2.048 . S
Mg169 O181 2.141 . S
C170 O171 1.313 . S
C170 O177 1.195 . S
O171 C170 1.313 . S
C172 O173 1.245 . S
C172 O181 1.289 . S
O173 C172 1.245 . S
C174 O175 1.245 . S
C174 O176 1.289 . S
O175 C174 1.245 . S
O176 Mg169 2.141 . S
O176 C174 1.289 . S
O177 Mg169 2.048 . S
O177 C170 1.195 . S
O178 Mg169 2.048 . S
O178 C179 1.195 . S
C179 O178 1.195 . S
C179 O180 1.313 . S
O180 C179 1.313 . S
O181 Mg169 2.141 . S
O181 C172 1.289 . S
Mg182 O189 2.141 . S
Mg182 O190 2.048 . S
Mg182 O191 2.048 . S
Mg182 O194 2.141 . S
C183 O184 1.313 . S
C183 O190 1.195 . S
O184 C183 1.313 . S
C185 O186 1.245 . S
C185 O194 1.289 . S
O186 C185 1.245 . S
C187 O188 1.245 . S
C187 O189 1.289 . S
O188 C187 1.245 . S
O189 Mg182 2.141 . S
O189 C187 1.289 . S
O190 Mg182 2.048 . S
O190 C183 1.195 . S
O191 Mg182 2.048 . S
O191 C192 1.195 . S
C192 O191 1.195 . S
C192 O193 1.313 . S
O193 C192 1.313 . S
O194 Mg182 2.141 . S
O194 C185 1.289 . S
Mg195 O202 2.141 . S
Mg195 O203 2.048 . S
Mg195 O204 2.048 . S
Mg195 O207 2.141 . S
C196 O197 1.313 . S
C196 O203 1.195 . S
O197 C196 1.313 . S
C198 O199 1.245 . S
C198 O207 1.289 . S
O199 C198 1.245 . S
C200 O201 1.245 . S
C200 O202 1.289 . S
O201 C200 1.245 . S
O202 Mg195 2.141 . S
O202 C200 1.289 . S
O203 Mg195 2.048 . S
O203 C196 1.195 . S
O204 Mg195 2.048 . S
O204 C205 1.195 . S
C205 O204 1.195 . S
C205 O206 1.313 . S
O206 C205 1.313 . S
O207 Mg195 2.141 . S
O207 C198 1.289 . S
Mg208 O215 2.141 . S
Mg208 O216 2.048 . S
Mg208 O217 2.048 . S
Mg208 O220 2.141 . S
C209 O210 1.313 . S
C209 O216 1.195 . S
O210 C209 1.313 . S
C211 O212 1.245 . S
C211 O220 1.289 . S
O212 C211 1.245 . S
C213 O214 1.245 . S
C213 O215 1.289 . S
O214 C213 1.245 . S
O215 Mg208 2.141 . S
O215 C213 1.289 . S
O216 Mg208 2.048 . S
O216 C209 1.195 . S
O217 Mg208 2.048 . S
O217 C218 1.195 . S
C218 O217 1.195 . S
C218 O219 1.313 . S
O219 C218 1.313 . S
O220 Mg208 2.141 . S
O220 C211 1.289 . S
Mg221 O228 2.141 . S
Mg221 O229 2.048 . S
Mg221 O230 2.048 . S
Mg221 O233 2.141 . S
C222 O223 1.313 . S
C222 O229 1.195 . S
O223 C222 1.313 . S
C224 O225 1.245 . S
C224 O233 1.289 . S
O225 C224 1.245 . S
C226 O227 1.245 . S
C226 O228 1.289 . S
O227 C226 1.245 . S
O228 Mg221 2.141 . S
O228 C226 1.289 . S
O229 Mg221 2.048 . S
O229 C222 1.195 . S
O230 Mg221 2.048 . S
O230 C231 1.195 . S
C231 O230 1.195 . S
C231 O232 1.313 . S
O232 C231 1.313 . S
O233 Mg221 2.141 . S
O233 C224 1.289 . S
H234 C240 0.930 . S
H235 C244 0.930 . S
H236 C249 0.929 . S
H237 C247 0.929 . S
H238 C242 0.929 . S
H239 C248 0.929 . S
C240 H234 0.930 . S
C240 C241 1.367 . S
C240 C248 1.378 . S
C241 C240 1.367 . S
C241 C249 1.433 1_455 S
C242 H238 0.929 . S
C242 C244 1.378 . S
C242 C246 1.350 1_655 S
C243 C246 1.463 . S
C243 C248 1.350 . S
C243 N251 1.427 1_455 S
C244 H235 0.930 . S
C244 C242 1.378 . S
C244 C245 1.367 1_655 S
C245 C244 1.367 1_455 S
C245 C247 1.433 . S
C246 C242 1.350 1_455 S
C246 C243 1.463 . S
C246 N250 1.427 . S
C247 H237 0.929 . S
C247 C245 1.433 . S
C247 N250 1.384 . S
C248 H239 0.929 . S
C248 C240 1.378 . S
C248 C243 1.350 . S
C249 H236 0.929 . S
C249 C241 1.433 1_655 S
C249 N251 1.384 . S
N250 C246 1.427 . S
N250 C247 1.384 . S
N251 C243 1.427 1_655 S
N251 C249 1.384 . S
H252 C258 0.930 . S
H253 C262 0.930 . S
H254 C267 0.929 . S
H255 C265 0.929 . S
H256 C260 0.929 . S
H257 C266 0.929 . S
C258 H252 0.930 . S
C258 C259 1.367 . S
C258 C266 1.378 . S
C259 C258 1.367 . S
C259 C267 1.433 . S
C260 H256 0.929 . S
C260 C262 1.378 . S
C260 C264 1.350 . S
C261 C264 1.463 . S
C261 C266 1.350 . S
C261 N269 1.427 . S
C262 H253 0.930 . S
C262 C260 1.378 . S
C262 C263 1.367 . S
C263 C262 1.367 . S
C263 C265 1.433 . S
C264 C260 1.350 . S
C264 C261 1.463 . S
C264 N268 1.427 . S
C265 H255 0.929 . S
C265 C263 1.433 . S
C265 N268 1.384 . S
C266 H257 0.929 . S
C266 C258 1.378 . S
C266 C261 1.350 . S
C267 H254 0.929 . S
C267 C259 1.433 . S
C267 N269 1.384 . S
N268 C264 1.427 . S
N268 C265 1.384 . S
N269 C261 1.427 . S
N269 C267 1.384 . S
H270 C276 0.930 . S
H271 C280 0.930 . S
H272 C285 0.929 . S
H273 C283 0.929 . S
H274 C278 0.929 . S
H275 C284 0.929 . S
C276 H270 0.930 . S
C276 C277 1.367 1_545 S
C276 C284 1.378 . S
C277 C276 1.367 1_565 S
C277 C285 1.433 . S
C278 H274 0.929 . S
C278 C280 1.378 . S
C278 C282 1.350 1_565 S
C279 C282 1.463 . S
C279 C284 1.350 . S
C279 N287 1.427 1_545 S
C280 H271 0.930 . S
C280 C278 1.378 . S
C280 C281 1.367 1_565 S
C281 C280 1.367 1_545 S
C281 C283 1.433 . S
C282 C278 1.350 1_545 S
C282 C279 1.463 . S
C282 N286 1.427 . S
C283 H273 0.929 . S
C283 C281 1.433 . S
C283 N286 1.384 . S
C284 H275 0.929 . S
C284 C276 1.378 . S
C284 C279 1.350 . S
C285 H272 0.929 . S
C285 C277 1.433 . S
C285 N287 1.384 . S
N286 C282 1.427 . S
N286 C283 1.384 . S
N287 C279 1.427 1_565 S
N287 C285 1.384 . S
H288 C294 0.930 . S
H289 C298 0.930 1_655 S
H290 C303 0.929 . S
H291 C301 0.929 . S
H292 C296 0.929 . S
H293 C302 0.929 . S
C294 H288 0.930 . S
C294 C295 1.367 . S
C294 C302 1.378 . S
C295 C294 1.367 . S
C295 C303 1.433 . S
C296 H292 0.929 . S
C296 C298 1.378 . S
C296 C300 1.350 . S
C297 C300 1.463 . S
C297 C302 1.350 . S
C297 N305 1.427 . S
C298 H289 0.930 1_455 S
C298 C296 1.378 . S
C298 C299 1.367 . S
C299 C298 1.367 . S
C299 C301 1.433 . S
C300 C296 1.350 . S
C300 C297 1.463 . S
C300 N304 1.427 . S
C301 H291 0.929 . S
C301 C299 1.433 . S
C301 N304 1.384 . S
C302 H293 0.929 . S
C302 C294 1.378 . S
C302 C297 1.350 . S
C303 H290 0.929 . S
C303 C295 1.433 . S
C303 N305 1.384 . S
N304 C300 1.427 . S
N304 C301 1.384 . S
N305 C297 1.427 . S
N305 C303 1.384 . S
H306 C312 0.930 . S
H307 C316 0.930 . S
H308 C321 0.929 . S
H309 C319 0.929 . S
H310 C314 0.929 . S
H311 C320 0.929 . S
C312 H306 0.930 . S
C312 C313 1.367 . S
C312 C320 1.378 . S
C313 C312 1.367 . S
C313 C321 1.433 . S
C314 H310 0.929 . S
C314 C316 1.378 . S
C314 C318 1.350 . S
C315 C318 1.463 . S
C315 C320 1.350 . S
C315 N323 1.427 . S
C316 H307 0.930 . S
C316 C314 1.378 . S
C316 C317 1.367 . S
C317 C316 1.367 . S
C317 C319 1.433 . S
C318 C314 1.350 . S
C318 C315 1.463 . S
C318 N322 1.427 . S
C319 H309 0.929 . S
C319 C317 1.433 . S
C319 N322 1.384 . S
C320 H311 0.929 . S
C320 C312 1.378 . S
C320 C315 1.350 . S
C321 H308 0.929 . S
C321 C313 1.433 . S
C321 N323 1.384 . S
N322 C318 1.427 . S
N322 C319 1.384 . S
N323 C315 1.427 . S
N323 C321 1.384 . S
H324 C330 0.930 . S
H325 C334 0.930 . S
H326 C339 0.929 . S
H327 C337 0.929 . S
H328 C332 0.929 . S
H329 C338 0.929 . S
C330 H324 0.930 . S
C330 C331 1.367 1_565 S
C330 C338 1.378 . S
C331 C330 1.367 1_545 S
C331 C339 1.433 . S
C332 H328 0.929 . S
C332 C334 1.378 . S
C332 C336 1.350 . S
C333 C336 1.463 . S
C333 C338 1.350 1_545 S
C333 N341 1.427 . S
C334 H325 0.930 . S
C334 C332 1.378 . S
C334 C335 1.367 . S
C335 C334 1.367 . S
C335 C337 1.433 1_545 S
C336 C332 1.350 . S
C336 C333 1.463 . S
C336 N340 1.427 1_545 S
C337 H327 0.929 . S
C337 C335 1.433 1_565 S
C337 N340 1.384 . S
C338 H329 0.929 . S
C338 C330 1.378 . S
C338 C333 1.350 1_565 S
C339 H326 0.929 . S
C339 C331 1.433 . S
C339 N341 1.384 . S
N340 C336 1.427 1_565 S
N340 C337 1.384 . S
N341 C333 1.427 . S
N341 C339 1.384 . S
H342 C348 0.930 . S
H343 C352 0.930 . S
H344 C357 0.929 . S
H345 C355 0.929 . S
H346 C350 0.929 . S
H347 C356 0.929 . S
C348 H342 0.930 . S
C348 C349 1.367 . S
C348 C356 1.378 . S
C349 C348 1.367 . S
C349 C357 1.433 . S
C350 H346 0.929 . S
C350 C352 1.378 . S
C350 C354 1.350 . S
C351 C354 1.463 . S
C351 C356 1.350 . S
C351 N359 1.427 . S
C352 H343 0.930 . S
C352 C350 1.378 . S
C352 C353 1.367 . S
C353 C352 1.367 . S
C353 C355 1.433 . S
C354 C350 1.350 . S
C354 C351 1.463 . S
C354 N358 1.427 . S
C355 H345 0.929 . S
C355 C353 1.433 . S
C355 N358 1.384 . S
C356 H347 0.929 . S
C356 C348 1.378 . S
C356 C351 1.350 . S
C357 H344 0.929 . S
C357 C349 1.433 . S
C357 N359 1.384 . S
N358 C354 1.427 . S
N358 C355 1.384 . S
N359 C351 1.427 . S
N359 C357 1.384 . S
H360 C366 0.930 . S
H361 C370 0.930 . S
H362 C375 0.929 . S
H363 C373 0.929 . S
H364 C368 0.929 . S
H365 C374 0.929 . S
C366 H360 0.930 . S
C366 C367 1.367 . S
C366 C374 1.378 . S
C367 C366 1.367 . S
C367 C375 1.433 . S
C368 H364 0.929 . S
C368 C370 1.378 . S
C368 C372 1.350 . S
C369 C372 1.463 . S
C369 C374 1.350 . S
C369 N377 1.427 . S
C370 H361 0.930 . S
C370 C368 1.378 . S
C370 C371 1.367 . S
C371 C370 1.367 . S
C371 C373 1.433 . S
C372 C368 1.350 . S
C372 C369 1.463 . S
C372 N376 1.427 . S
C373 H363 0.929 . S
C373 C371 1.433 . S
C373 N376 1.384 . S
C374 H365 0.929 . S
C374 C366 1.378 . S
C374 C369 1.350 . S
C375 H362 0.929 . S
C375 C367 1.433 . S
C375 N377 1.384 . S
N376 C372 1.427 . S
N376 C373 1.384 . S
N377 C369 1.427 . S
N377 C375 1.384 . S
H378 C384 0.930 . S
H379 C388 0.930 . S
H380 C393 0.929 . S
H381 C391 0.929 . S
H382 C386 0.929 . S
H383 C392 0.929 . S
C384 H378 0.930 . S
C384 C385 1.367 . S
C384 C392 1.378 . S
C385 C384 1.367 . S
C385 C393 1.433 . S
C386 H382 0.929 . S
C386 C388 1.378 . S
C386 C390 1.350 . S
C387 C390 1.463 . S
C387 C392 1.350 . S
C387 N395 1.427 . S
C388 H379 0.930 . S
C388 C386 1.378 . S
C388 C389 1.367 . S
C389 C388 1.367 . S
C389 C391 1.433 . S
C390 C386 1.350 . S
C390 C387 1.463 . S
C390 N394 1.427 . S
C391 H381 0.929 . S
C391 C389 1.433 . S
C391 N394 1.384 . S
C392 H383 0.929 . S
C392 C384 1.378 . S
C392 C387 1.350 . S
C393 H380 0.929 . S
C393 C385 1.433 . S
C393 N395 1.384 . S
N394 C390 1.427 . S
N394 C391 1.384 . S
N395 C387 1.427 . S
N395 C393 1.384 . S
H396 C402 0.930 . S
H397 C406 0.930 . S
H398 C411 0.929 . S
H399 C409 0.929 . S
H400 C404 0.929 . S
H401 C410 0.929 . S
C402 H396 0.930 . S
C402 C403 1.367 . S
C402 C410 1.378 . S
C403 C402 1.367 . S
C403 C411 1.433 . S
C404 H400 0.929 . S
C404 C406 1.378 . S
C404 C408 1.350 . S
C405 C408 1.463 . S
C405 C410 1.350 . S
C405 N413 1.427 . S
C406 H397 0.930 . S
C406 C404 1.378 . S
C406 C407 1.367 . S
C407 C406 1.367 . S
C407 C409 1.433 . S
C408 C404 1.350 . S
C408 C405 1.463 . S
C408 N412 1.427 . S
C409 H399 0.929 . S
C409 C407 1.433 . S
C409 N412 1.384 . S
C410 H401 0.929 . S
C410 C402 1.378 . S
C410 C405 1.350 . S
C411 H398 0.929 . S
C411 C403 1.433 . S
C411 N413 1.384 . S
N412 C408 1.427 . S
N412 C409 1.384 . S
N413 C405 1.427 . S
N413 C411 1.384 . S
H414 C420 0.930 . S
H415 C424 0.930 . S
H416 C429 0.929 . S
H417 C427 0.929 . S
H418 C422 0.929 . S
H419 C428 0.929 . S
C420 H414 0.930 . S
C420 C421 1.357 1_554 S
C420 C428 1.378 . S
C421 C420 1.357 1_556 S
C421 C429 1.424 1_556 S
C422 H418 0.929 . S
C422 C424 1.378 . S
C422 C426 1.350 . S
C423 C426 1.463 . S
C423 C428 1.350 . S
C423 N431 1.427 . S
C424 H415 0.930 . S
C424 C422 1.378 . S
C424 C425 1.367 . S
C425 C424 1.367 . S
C425 C427 1.433 . S
C426 C422 1.350 . S
C426 C423 1.463 . S
C426 N430 1.427 . S
C427 H417 0.929 . S
C427 C425 1.433 . S
C427 N430 1.384 . S
C428 H419 0.929 . S
C428 C420 1.378 . S
C428 C423 1.350 . S
C429 H416 0.929 . S
C429 C421 1.424 1_554 S
C429 N431 1.384 . S
N430 C426 1.427 . S
N430 C427 1.384 . S
N431 C423 1.427 . S
N431 C429 1.384 . S
H432 C438 0.930 . S
H433 C442 0.930 . S
H434 C447 0.929 . S
H435 C445 0.929 . S
H436 C440 0.929 . S
H437 C446 0.929 . S
C438 H432 0.930 . S
C438 C439 1.378 . S
C438 C446 1.378 . S
C439 C438 1.378 . S
C439 C447 1.441 . S
C440 H436 0.929 . S
C440 C442 1.378 . S
C440 C444 1.350 . S
C441 C444 1.463 . S
C441 C446 1.350 . S
C441 N449 1.427 . S
C442 H433 0.930 . S
C442 C440 1.378 . S
C442 C443 1.367 . S
C443 C442 1.367 . S
C443 C445 1.433 . S
C444 C440 1.350 . S
C444 C441 1.463 . S
C444 N448 1.427 . S
C445 H435 0.929 . S
C445 C443 1.433 . S
C445 N448 1.384 . S
C446 H437 0.929 . S
C446 C438 1.378 . S
C446 C441 1.350 . S
C447 H434 0.929 . S
C447 C439 1.441 . S
C447 N449 1.384 . S
N448 C444 1.427 . S
N448 C445 1.384 . S
N449 C441 1.427 . S
N449 C447 1.384 . S
H450 C456 0.930 . S
H451 C460 0.930 . S
H452 C465 0.929 . S
H453 C463 0.929 . S
H454 C458 0.929 . S
H455 C464 0.929 1_556 S
C456 H450 0.930 . S
C456 C457 1.367 . S
C456 C464 1.378 . S
C457 C456 1.367 . S
C457 C465 1.433 . S
C458 H454 0.929 . S
C458 C460 1.378 . S
C458 C462 1.350 . S
C459 C462 1.463 . S
C459 C464 1.350 1_556 S
C459 N467 1.427 . S
C460 H451 0.930 . S
C460 C458 1.378 . S
C460 C461 1.367 . S
C461 C460 1.367 . S
C461 C463 1.433 . S
C462 C458 1.350 . S
C462 C459 1.463 . S
C462 N466 1.427 . S
C463 H453 0.929 . S
C463 C461 1.433 . S
C463 N466 1.384 . S
C464 H455 0.929 1_554 S
C464 C456 1.378 . S
C464 C459 1.350 1_554 S
C465 H452 0.929 . S
C465 C457 1.433 . S
C465 N467 1.384 1_554 S
N466 C462 1.427 . S
N466 C463 1.384 . S
N467 C459 1.427 . S
N467 C465 1.384 1_556 S
H468 C474 0.930 . S
H469 C478 0.930 . S
H470 C483 0.929 . S
H471 C481 0.929 . S
H472 C476 0.936 . S
H473 C482 0.929 . S
C474 H468 0.930 . S
C474 C475 1.367 . S
C474 C482 1.378 . S
C475 C474 1.367 . S
C475 C483 1.433 . S
C476 H472 0.936 . S
C476 C478 1.361 1_556 S
C476 C480 1.359 . S
C477 C480 1.463 . S
C477 C482 1.350 . S
C477 N485 1.427 . S
C478 H469 0.930 . S
C478 C476 1.361 1_554 S
C478 C479 1.367 . S
C479 C478 1.367 . S
C479 C481 1.433 . S
C480 C476 1.359 . S
C480 C477 1.463 . S
C480 N484 1.427 . S
C481 H471 0.929 . S
C481 C479 1.433 . S
C481 N484 1.384 1_554 S
C482 H473 0.929 . S
C482 C474 1.378 . S
C482 C477 1.350 . S
C483 H470 0.929 . S
C483 C475 1.433 . S
C483 N485 1.384 . S
N484 C480 1.427 . S
N484 C481 1.384 1_556 S
N485 C477 1.427 . S
N485 C483 1.384 . S
H486 C492 0.930 . S
H487 C496 0.930 . S
H488 C501 0.929 . S
H489 C499 0.929 . S
H490 C494 0.929 . S
H491 C500 0.929 . S
C492 H486 0.930 . S
C492 C493 1.367 . S
C492 C500 1.378 1_554 S
C493 C492 1.367 . S
C493 C501 1.433 . S
C494 H490 0.929 . S
C494 C496 1.378 . S
C494 C498 1.350 . S
C495 C498 1.463 . S
C495 C500 1.350 . S
C495 N503 1.415 1_556 S
C496 H487 0.930 . S
C496 C494 1.378 . S
C496 C497 1.367 . S
C497 C496 1.367 . S
C497 C499 1.433 . S
C498 C494 1.350 . S
C498 C495 1.463 . S
C498 N502 1.427 . S
C499 H489 0.929 . S
C499 C497 1.433 . S
C499 N502 1.384 . S
C500 H491 0.929 . S
C500 C492 1.378 1_556 S
C500 C495 1.350 . S
C501 H488 0.929 . S
C501 C493 1.433 . S
C501 N503 1.408 . S
N502 C498 1.427 . S
N502 C499 1.384 . S
N503 C495 1.415 1_554 S
N503 C501 1.408 . S
H504 C510 0.930 . S
H505 C514 0.930 . S
H506 C519 0.929 . S
H507 C517 0.929 . S
H508 C512 0.929 . S
H509 C518 0.929 . S
C510 H504 0.930 . S
C510 C511 1.367 . S
C510 C518 1.378 . S
C511 C510 1.367 . S
C511 C519 1.433 . S
C512 H508 0.929 . S
C512 C514 1.378 . S
C512 C516 1.350 . S
C513 C516 1.463 . S
C513 C518 1.350 . S
C513 N521 1.427 . S
C514 H505 0.930 . S
C514 C512 1.378 . S
C514 C515 1.367 . S
C515 C514 1.367 . S
C515 C517 1.433 . S
C516 C512 1.350 . S
C516 C513 1.463 . S
C516 N520 1.427 . S
C517 H507 0.929 . S
C517 C515 1.433 . S
C517 N520 1.384 . S
C518 H509 0.929 . S
C518 C510 1.378 . S
C518 C513 1.350 . S
C519 H506 0.929 . S
C519 C511 1.433 . S
C519 N521 1.384 . S
N520 C516 1.427 . S
N520 C517 1.384 . S
N521 C513 1.427 . S
N521 C519 1.384 . S
H522 C528 0.930 . S
H523 C532 0.930 . S
H524 C537 0.929 . S
H525 C535 0.929 . S
H526 C530 0.929 . S
H527 C536 0.929 . S
C528 H522 0.930 . S
C528 C529 1.367 . S
C528 C536 1.378 . S
C529 C528 1.367 . S
C529 C537 1.433 . S
C530 H526 0.929 . S
C530 C532 1.378 . S
C530 C534 1.350 . S
C531 C534 1.463 . S
C531 C536 1.350 . S
C531 N539 1.427 . S
C532 H523 0.930 . S
C532 C530 1.378 . S
C532 C533 1.367 . S
C533 C532 1.367 . S
C533 C535 1.433 . S
C534 C530 1.350 . S
C534 C531 1.463 . S
C534 N538 1.427 . S
C535 H525 0.929 . S
C535 C533 1.433 . S
C535 N538 1.384 . S
C536 H527 0.929 . S
C536 C528 1.378 . S
C536 C531 1.350 . S
C537 H524 0.929 . S
C537 C529 1.433 . S
C537 N539 1.384 . S
N538 C534 1.427 . S
N538 C535 1.384 . S
N539 C531 1.427 . S
N539 C537 1.384 . S
H540 C546 0.930 . S
H541 C550 0.930 . S
H542 C555 0.929 . S
H543 C553 0.929 . S
H544 C548 0.929 . S
H545 C554 0.929 . S
C546 H540 0.930 . S
C546 C547 1.367 . S
C546 C554 1.378 . S
C547 C546 1.367 . S
C547 C555 1.433 . S
C548 H544 0.929 . S
C548 C550 1.378 . S
C548 C552 1.350 . S
C549 C552 1.463 . S
C549 C554 1.350 . S
C549 N557 1.427 . S
C550 H541 0.930 . S
C550 C548 1.378 . S
C550 C551 1.367 . S
C551 C550 1.367 . S
C551 C553 1.433 . S
C552 C548 1.350 . S
C552 C549 1.463 . S
C552 N556 1.427 . S
C553 H543 0.929 . S
C553 C551 1.433 . S
C553 N556 1.384 . S
C554 H545 0.929 . S
C554 C546 1.378 . S
C554 C549 1.350 . S
C555 H542 0.929 . S
C555 C547 1.433 . S
C555 N557 1.384 . S
N556 C552 1.427 . S
N556 C553 1.384 . S
N557 C549 1.427 . S
N557 C555 1.384 . S
H558 C564 0.930 . S
H559 C568 0.930 . S
H560 C573 0.929 . S
H561 C571 0.929 . S
H562 C566 0.929 . S
H563 C572 0.928 1_554 S
C564 H558 0.930 . S
C564 C565 1.367 1_554 S
C564 C572 1.378 1_554 S
C565 C564 1.367 1_556 S
C565 C573 1.433 . S
C566 H562 0.929 . S
C566 C568 1.378 . S
C566 C570 1.350 . S
C567 C570 1.463 . S
C567 C572 1.350 . S
C567 N575 1.427 . S
C568 H559 0.930 . S
C568 C566 1.378 . S
C568 C569 1.367 . S
C569 C568 1.367 . S
C569 C571 1.433 . S
C570 C566 1.350 . S
C570 C567 1.463 . S
C570 N574 1.427 . S
C571 H561 0.929 . S
C571 C569 1.433 . S
C571 N574 1.384 . S
C572 H563 0.928 1_556 S
C572 C564 1.378 1_556 S
C572 C567 1.350 . S
C573 H560 0.929 . S
C573 C565 1.433 . S
C573 N575 1.384 . S
N574 C570 1.427 . S
N574 C571 1.384 . S
N575 C567 1.427 . S
N575 C573 1.384 . S
H576 C582 0.930 . S
H577 C586 0.930 . S
H578 C591 0.929 . S
H579 C589 0.929 . S
H580 C584 0.929 . S
H581 C590 0.929 . S
C582 H576 0.930 . S
C582 C583 1.367 . S
C582 C590 1.378 . S
C583 C582 1.367 . S
C583 C591 1.433 . S
C584 H580 0.929 . S
C584 C586 1.378 . S
C584 C588 1.350 . S
C585 C588 1.463 . S
C585 C590 1.350 . S
C585 N593 1.427 . S
C586 H577 0.930 . S
C586 C584 1.378 . S
C586 C587 1.367 . S
C587 C586 1.367 . S
C587 C589 1.433 1_556 S
C588 C584 1.350 . S
C588 C585 1.463 . S
C588 N592 1.427 . S
C589 H579 0.929 . S
C589 C587 1.433 1_554 S
C589 N592 1.384 1_554 S
C590 H581 0.929 . S
C590 C582 1.378 . S
C590 C585 1.350 . S
C591 H578 0.929 . S
C591 C583 1.433 . S
C591 N593 1.384 . S
N592 C588 1.427 . S
N592 C589 1.384 1_556 S
N593 C585 1.427 . S
N593 C591 1.384 . S
H594 C600 0.930 . S
H595 C604 0.930 1_554 S
H596 C609 0.929 . S
H597 C607 0.929 . S
H598 C602 0.929 . S
H599 C608 0.929 . S
C600 H594 0.930 . S
C600 C601 1.367 . S
C600 C608 1.378 . S
C601 C600 1.367 . S
C601 C609 1.433 . S
C602 H598 0.929 . S
C602 C604 1.378 . S
C602 C606 1.350 . S
C603 C606 1.463 . S
C603 C608 1.350 . S
C603 N611 1.427 . S
C604 H595 0.930 1_556 S
C604 C602 1.378 . S
C604 C605 1.367 . S
C605 C604 1.367 . S
C605 C607 1.433 . S
C606 C602 1.350 . S
C606 C603 1.463 . S
C606 N610 1.427 . S
C607 H597 0.929 . S
C607 C605 1.433 . S
C607 N610 1.384 . S
C608 H599 0.929 . S
C608 C600 1.378 . S
C608 C603 1.350 . S
C609 H596 0.929 . S
C609 C601 1.433 . S
C609 N611 1.384 . S
N610 C606 1.427 . S
N610 C607 1.384 . S
N611 C603 1.427 . S
N611 C609 1.384 . S
H612 C618 0.930 . S
H613 C622 0.930 . S
H614 C627 0.929 . S
H615 C625 0.929 . S
H616 C620 0.929 . S
H617 C626 0.929 . S
C618 H612 0.930 . S
C618 C619 1.367 . S
C618 C626 1.378 . S
C619 C618 1.367 . S
C619 C627 1.433 . S
C620 H616 0.929 . S
C620 C622 1.378 . S
C620 C624 1.350 . S
C621 C624 1.463 . S
C621 C626 1.350 . S
C621 N629 1.427 . S
C622 H613 0.930 . S
C622 C620 1.378 . S
C622 C623 1.367 . S
C623 C622 1.367 . S
C623 C625 1.433 . S
C624 C620 1.350 . S
C624 C621 1.463 . S
C624 N628 1.427 . S
C625 H615 0.929 . S
C625 C623 1.433 . S
C625 N628 1.384 . S
C626 H617 0.929 . S
C626 C618 1.378 . S
C626 C621 1.350 . S
C627 H614 0.929 . S
C627 C619 1.433 . S
C627 N629 1.384 . S
N628 C624 1.427 . S
N628 C625 1.384 . S
N629 C621 1.427 . S
N629 C627 1.384 . S
H630 C636 0.930 . S
H631 C640 0.930 . S
H632 C645 0.929 . S
H633 C643 0.929 . S
H634 C638 0.929 . S
H635 C644 0.929 . S
C636 H630 0.930 . S
C636 C637 1.367 . S
C636 C644 1.378 . S
C637 C636 1.367 . S
C637 C645 1.433 . S
C638 H634 0.929 . S
C638 C640 1.378 . S
C638 C642 1.350 . S
C639 C642 1.463 . S
C639 C644 1.350 . S
C639 N647 1.427 . S
C640 H631 0.930 . S
C640 C638 1.378 . S
C640 C641 1.367 . S
C641 C640 1.367 . S
C641 C643 1.433 . S
C642 C638 1.350 . S
C642 C639 1.463 . S
C642 N646 1.427 . S
C643 H633 0.929 . S
C643 C641 1.433 . S
C643 N646 1.384 . S
C644 H635 0.929 . S
C644 C636 1.378 . S
C644 C639 1.350 . S
C645 H632 0.929 . S
C645 C637 1.433 . S
C645 N647 1.384 . S
N646 C642 1.427 . S
N646 C643 1.384 . S
N647 C639 1.427 . S
N647 C645 1.384 . S
H648 C654 0.930 . S
H649 C658 0.930 . S
H650 C663 0.929 . S
H651 C661 0.929 . S
H652 C656 0.929 . S
H653 C662 0.929 . S
C654 H648 0.930 . S
C654 C655 1.367 . S
C654 C662 1.378 . S
C655 C654 1.367 . S
C655 C663 1.433 . S
C656 H652 0.929 . S
C656 C658 1.378 . S
C656 C660 1.350 . S
C657 C660 1.463 . S
C657 C662 1.350 . S
C657 N665 1.427 . S
C658 H649 0.930 . S
C658 C656 1.378 . S
C658 C659 1.367 . S
C659 C658 1.367 . S
C659 C661 1.433 . S
C660 C656 1.350 . S
C660 C657 1.463 . S
C660 N664 1.427 . S
C661 H651 0.929 . S
C661 C659 1.433 . S
C661 N664 1.384 . S
C662 H653 0.929 . S
C662 C654 1.378 . S
C662 C657 1.350 . S
C663 H650 0.929 . S
C663 C655 1.433 . S
C663 N665 1.384 . S
N664 C660 1.427 . S
N664 C661 1.384 . S
N665 C657 1.427 . S
N665 C663 1.384 . S
H666 C672 0.930 . S
H667 C676 0.930 . S
H668 C681 0.929 . S
H669 C679 0.948 . S
H670 C674 0.929 . S
H671 C680 0.929 . S
C672 H666 0.930 . S
C672 C673 1.367 . S
C672 C680 1.378 . S
C673 C672 1.367 . S
C673 C681 1.433 . S
C674 H670 0.929 . S
C674 C676 1.378 . S
C674 C678 1.350 . S
C675 C678 1.463 . S
C675 C680 1.350 . S
C675 N683 1.427 . S
C676 H667 0.930 . S
C676 C674 1.378 . S
C676 C677 1.367 . S
C677 C676 1.367 . S
C677 C679 1.433 . S
C678 C674 1.350 . S
C678 C675 1.463 . S
C678 N682 1.427 . S
C679 H669 0.948 . S
C679 C677 1.433 . S
C679 N682 1.384 . S
C680 H671 0.929 . S
C680 C672 1.378 . S
C680 C675 1.350 . S
C681 H668 0.929 . S
C681 C673 1.433 . S
C681 N683 1.384 . S
N682 C678 1.427 . S
N682 C679 1.384 . S
N683 C675 1.427 . S
N683 C681 1.384 . S
H684 C690 0.930 . S
H685 C694 0.930 . S
H686 C699 0.929 . S
H687 C697 0.929 . S
H688 C692 0.929 . S
H689 C698 0.929 . S
C690 H684 0.930 . S
C690 C691 1.367 . S
C690 C698 1.378 . S
C691 C690 1.367 . S
C691 C699 1.433 . S
C692 H688 0.929 . S
C692 C694 1.378 . S
C692 C696 1.350 . S
C693 C696 1.463 . S
C693 C698 1.350 . S
C693 N701 1.427 . S
C694 H685 0.930 . S
C694 C692 1.378 . S
C694 C695 1.367 . S
C695 C694 1.367 . S
C695 C697 1.433 . S
C696 C692 1.350 . S
C696 C693 1.463 . S
C696 N700 1.427 . S
C697 H687 0.929 . S
C697 C695 1.433 . S
C697 N700 1.384 . S
C698 H689 0.929 . S
C698 C690 1.378 . S
C698 C693 1.350 . S
C699 H686 0.929 . S
C699 C691 1.433 . S
C699 N701 1.384 . S
N700 C696 1.427 . S
N700 C697 1.384 . S
N701 C693 1.427 . S
N701 C699 1.384 . S
H702 C708 0.930 . S
H703 C712 0.930 . S
H704 C717 0.929 . S
H705 C715 0.928 1_556 S
H706 C710 0.929 . S
H707 C716 0.929 . S
C708 H702 0.930 . S
C708 C709 1.367 . S
C708 C716 1.378 . S
C709 C708 1.367 . S
C709 C717 1.433 . S
C710 H706 0.929 . S
C710 C712 1.378 . S
C710 C714 1.350 . S
C711 C714 1.463 . S
C711 C716 1.350 . S
C711 N719 1.427 . S
C712 H703 0.930 . S
C712 C710 1.378 . S
C712 C713 1.367 . S
C713 C712 1.367 . S
C713 C715 1.433 . S
C714 C710 1.350 . S
C714 C711 1.463 . S
C714 N718 1.427 . S
C715 H705 0.928 1_554 S
C715 C713 1.433 . S
C715 N718 1.384 . S
C716 H707 0.929 . S
C716 C708 1.378 . S
C716 C711 1.350 . S
C717 H704 0.929 . S
C717 C709 1.433 . S
C717 N719 1.384 . S
N718 C714 1.427 . S
N718 C715 1.384 . S
N719 C711 1.427 . S
N719 C717 1.384 . S
H720 C726 0.930 1_545 S
H721 C730 0.930 . S
H722 C735 0.929 . S
H723 C733 0.929 . S
H724 C728 0.929 . S
H725 C734 0.929 . S
C726 H720 0.930 1_565 S
C726 C727 1.367 . S
C726 C734 1.378 . S
C727 C726 1.367 . S
C727 C735 1.433 . S
C728 H724 0.929 . S
C728 C730 1.378 . S
C728 C732 1.350 . S
C729 C732 1.463 . S
C729 C734 1.350 . S
C729 N737 1.427 . S
C730 H721 0.930 . S
C730 C728 1.378 . S
C730 C731 1.367 . S
C731 C730 1.367 . S
C731 C733 1.433 . S
C732 C728 1.350 . S
C732 C729 1.463 . S
C732 N736 1.427 . S
C733 H723 0.929 . S
C733 C731 1.433 . S
C733 N736 1.384 . S
C734 H725 0.929 . S
C734 C726 1.378 . S
C734 C729 1.350 . S
C735 H722 0.929 . S
C735 C727 1.433 . S
C735 N737 1.384 . S
N736 C732 1.427 . S
N736 C733 1.384 . S
N737 C729 1.427 . S
N737 C735 1.384 . S
H738 C744 0.930 . S
H739 C748 0.930 . S
H740 C753 0.929 . S
H741 C751 0.929 . S
H742 C746 0.929 . S
H743 C752 0.929 . S
C744 H738 0.930 . S
C744 C745 1.367 . S
C744 C752 1.378 . S
C745 C744 1.367 . S
C745 C753 1.433 . S
C746 H742 0.929 . S
C746 C748 1.378 . S
C746 C750 1.350 . S
C747 C750 1.463 . S
C747 C752 1.350 . S
C747 N755 1.427 . S
C748 H739 0.930 . S
C748 C746 1.378 . S
C748 C749 1.367 . S
C749 C748 1.367 . S
C749 C751 1.433 . S
C750 C746 1.350 . S
C750 C747 1.463 . S
C750 N754 1.427 . S
C751 H741 0.929 . S
C751 C749 1.433 . S
C751 N754 1.384 . S
C752 H743 0.929 . S
C752 C744 1.378 . S
C752 C747 1.350 . S
C753 H740 0.929 . S
C753 C745 1.433 . S
C753 N755 1.384 . S
N754 C750 1.427 . S
N754 C751 1.384 . S
N755 C747 1.427 . S
N755 C753 1.384 . S
H756 C762 0.930 . S
H757 C766 0.930 . S
H758 C771 0.929 . S
H759 C769 0.929 . S
H760 C764 0.929 . S
H761 C770 0.929 . S
C762 H756 0.930 . S
C762 C763 1.367 . S
C762 C770 1.378 . S
C763 C762 1.367 . S
C763 C771 1.433 . S
C764 H760 0.929 . S
C764 C766 1.378 . S
C764 C768 1.350 . S
C765 C768 1.463 . S
C765 C770 1.350 . S
C765 N773 1.427 . S
C766 H757 0.930 . S
C766 C764 1.378 . S
C766 C767 1.367 . S
C767 C766 1.367 . S
C767 C769 1.433 . S
C768 C764 1.350 . S
C768 C765 1.463 . S
C768 N772 1.427 . S
C769 H759 0.929 . S
C769 C767 1.433 . S
C769 N772 1.384 . S
C770 H761 0.929 . S
C770 C762 1.378 . S
C770 C765 1.350 . S
C771 H758 0.929 . S
C771 C763 1.433 . S
C771 N773 1.384 . S
N772 C768 1.427 . S
N772 C769 1.384 . S
N773 C765 1.427 . S
N773 C771 1.384 . S
H774 C780 0.930 . S
H775 C784 0.930 . S
H776 C789 0.929 . S
H777 C787 0.929 . S
H778 C782 0.929 . S
H779 C788 0.929 . S
C780 H774 0.930 . S
C780 C781 1.367 . S
C780 C788 1.378 . S
C781 C780 1.367 . S
C781 C789 1.433 . S
C782 H778 0.929 . S
C782 C784 1.378 . S
C782 C786 1.350 . S
C783 C786 1.463 . S
C783 C788 1.350 . S
C783 N791 1.427 . S
C784 H775 0.930 . S
C784 C782 1.378 . S
C784 C785 1.367 . S
C785 C784 1.367 . S
C785 C787 1.433 . S
C786 C782 1.350 . S
C786 C783 1.463 . S
C786 N790 1.427 . S
C787 H777 0.929 . S
C787 C785 1.433 . S
C787 N790 1.384 . S
C788 H779 0.929 . S
C788 C780 1.378 . S
C788 C783 1.350 . S
C789 H776 0.929 . S
C789 C781 1.433 . S
C789 N791 1.384 . S
N790 C786 1.427 . S
N790 C787 1.384 . S
N791 C783 1.427 . S
N791 C789 1.384 . S
H792 C798 0.930 . S
H793 C802 0.930 . S
H794 C807 0.929 . S
H795 C805 0.929 . S
H796 C800 0.929 1_545 S
H797 C806 0.929 . S
C798 H792 0.930 . S
C798 C799 1.367 . S
C798 C806 1.378 . S
C799 C798 1.367 . S
C799 C807 1.433 . S
C800 H796 0.929 1_565 S
C800 C802 1.378 . S
C800 C804 1.356 1_565 S
C801 C804 1.498 . S
C801 C806 1.350 . S
C801 N809 1.427 . S
C802 H793 0.930 . S
C802 C800 1.378 . S
C802 C803 1.367 . S
C803 C802 1.367 . S
C803 C805 1.433 . S
C804 C800 1.356 1_545 S
C804 C801 1.498 . S
C804 N808 1.387 1_545 S
C805 H795 0.929 . S
C805 C803 1.433 . S
C805 N808 1.384 . S
C806 H797 0.929 . S
C806 C798 1.378 . S
C806 C801 1.350 . S
C807 H794 0.929 . S
C807 C799 1.433 . S
C807 N809 1.384 . S
N808 C804 1.387 1_565 S
N808 C805 1.384 . S
N809 C801 1.427 . S
N809 C807 1.384 . S
H810 C816 0.930 . S
H811 C820 0.930 . S
H812 C825 0.929 . S
H813 C823 0.929 . S
H814 C818 0.929 1_455 S
H815 C824 0.929 . S
C816 H810 0.930 . S
C816 C817 1.367 . S
C816 C824 1.378 . S
C817 C816 1.367 . S
C817 C825 1.433 . S
C818 H814 0.929 1_655 S
C818 C820 1.378 . S
C818 C822 1.350 . S
C819 C822 1.463 1_455 S
C819 C824 1.350 . S
C819 N827 1.427 . S
C820 H811 0.930 . S
C820 C818 1.378 . S
C820 C821 1.367 . S
C821 C820 1.367 . S
C821 C823 1.433 . S
C822 C818 1.350 . S
C822 C819 1.463 1_655 S
C822 N826 1.427 . S
C823 H813 0.929 . S
C823 C821 1.433 . S
C823 N826 1.384 . S
C824 H815 0.929 . S
C824 C816 1.378 . S
C824 C819 1.350 . S
C825 H812 0.929 . S
C825 C817 1.433 . S
C825 N827 1.384 . S
N826 C822 1.427 . S
N826 C823 1.384 . S
N827 C819 1.427 . S
N827 C825 1.384 . S
H828 C834 0.930 . S
H829 C838 0.930 . S
H830 C843 0.929 . S
H831 C841 0.929 . S
H832 C836 0.929 . S
H833 C842 0.929 . S
C834 H828 0.930 . S
C834 C835 1.367 . S
C834 C842 1.378 . S
C835 C834 1.367 . S
C835 C843 1.433 . S
C836 H832 0.929 . S
C836 C838 1.378 . S
C836 C840 1.350 . S
C837 C840 1.463 . S
C837 C842 1.350 . S
C837 N845 1.427 . S
C838 H829 0.930 . S
C838 C836 1.378 . S
C838 C839 1.367 . S
C839 C838 1.367 . S
C839 C841 1.433 . S
C840 C836 1.350 . S
C840 C837 1.463 . S
C840 N844 1.427 . S
C841 H831 0.929 . S
C841 C839 1.433 . S
C841 N844 1.384 . S
C842 H833 0.929 . S
C842 C834 1.378 . S
C842 C837 1.350 . S
C843 H830 0.929 . S
C843 C835 1.433 . S
C843 N845 1.384 . S
N844 C840 1.427 . S
N844 C841 1.384 . S
N845 C837 1.427 . S
N845 C843 1.384 . S
H846 C852 0.930 . S
H847 C856 0.930 . S
H848 C861 0.929 . S
H849 C859 0.929 . S
H850 C854 0.929 . S
H851 C860 0.929 . S
C852 H846 0.930 . S
C852 C853 1.367 . S
C852 C860 1.378 . S
C853 C852 1.367 . S
C853 C861 1.433 . S
C854 H850 0.929 . S
C854 C856 1.378 . S
C854 C858 1.337 1_565 S
C855 C858 1.474 . S
C855 C860 1.350 . S
C855 N863 1.427 . S
C856 H847 0.930 . S
C856 C854 1.378 . S
C856 C857 1.367 . S
C857 C856 1.367 . S
C857 C859 1.433 . S
C858 C854 1.337 1_545 S
C858 C855 1.474 . S
C858 N862 1.430 1_545 S
C859 H849 0.929 . S
C859 C857 1.433 . S
C859 N862 1.384 . S
C860 H851 0.929 . S
C860 C852 1.378 . S
C860 C855 1.350 . S
C861 H848 0.929 . S
C861 C853 1.433 . S
C861 N863 1.384 . S
N862 C858 1.430 1_565 S
N862 C859 1.384 . S
N863 C855 1.427 . S
N863 C861 1.384 . S
H864 C870 0.930 . S
H865 C874 0.930 . S
H866 C879 0.929 . S
H867 C877 0.929 . S
H868 C872 0.929 . S
H869 C878 0.929 . S
C870 H864 0.930 . S
C870 C871 1.367 . S
C870 C878 1.378 . S
C871 C870 1.367 . S
C871 C879 1.433 . S
C872 H868 0.929 . S
C872 C874 1.378 . S
C872 C876 1.350 . S
C873 C876 1.463 1_455 S
C873 C878 1.350 . S
C873 N881 1.427 . S
C874 H865 0.930 . S
C874 C872 1.378 . S
C874 C875 1.367 . S
C875 C874 1.367 . S
C875 C877 1.433 . S
C876 C872 1.350 . S
C876 C873 1.463 1_655 S
C876 N880 1.427 . S
C877 H867 0.929 . S
C877 C875 1.433 . S
C877 N880 1.384 . S
C878 H869 0.929 . S
C878 C870 1.378 . S
C878 C873 1.350 . S
C879 H866 0.929 . S
C879 C871 1.433 . S
C879 N881 1.384 . S
N880 C876 1.427 . S
N880 C877 1.384 . S
N881 C873 1.427 . S
N881 C879 1.384 . S
C241 C57 1.039 . S
C245 C10 1.044 . S
C259 C70 1.045 . S
C263 C23 1.050 . S
C277 C29 1.052 . S
C281 C44 1.029 . S
C295 C62 1.065 . S
C299 C5 1.052 . S
C313 C75 1.064 . S
C317 C18 1.058 . S
C331 C27 1.085 . S
C335 C49 1.090 . S
C349 C131 1.049 . S
C353 C83 1.044 . S
C367 C144 1.050 . S
C371 C94 1.041 . S
C385 C107 1.052 . S
C389 C127 1.059 . S
C403 C88 1.065 . S
C407 C133 1.062 1_554 S
C421 C146 1.073 . S
C425 C92 1.058 . S
C439 C122 1.028 1_554 S
C443 C105 1.052 . S
C457 C209 1.050 . S
C461 C161 1.034 . S
C475 C172 1.047 . S
C479 C222 1.052 . S
C493 C205 1.064 . S
C497 C185 1.059 . S
C511 C211 1.059 . S
C515 C166 1.072 . S
C529 C224 1.054 . S
C533 C170 1.058 . S
C547 C183 1.053 . S
C551 C200 1.055 . S
C565 C1 1.559 1_556 S
C569 C118 1.565 . S
C583 C140 1.557 . S
C587 C14 1.555 1_556 S
C601 C153 1.557 . S
C605 C31 1.550 1_556 S
C619 C42 1.549 . S
C623 C159 1.558 . S
C637 C174 1.554 . S
C641 C55 1.556 . S
C655 C187 1.551 . S
C659 C68 1.553 . S
C673 C198 1.551 . S
C677 C3 1.546 . S
C691 C213 1.558 . S
C695 C16 1.555 . S
C709 C226 1.556 . S
C713 C36 1.565 . S
C727 C40 1.568 . S
C731 C79 1.573 . S
C745 C53 1.567 . S
C749 C101 1.566 . S
C763 C114 1.560 . S
C767 C66 1.561 . S
C781 C196 1.558 . S
C785 C81 1.563 . S
C799 C218 1.560 . S
C803 C96 1.549 . S
C817 C109 1.557 . S
C821 C231 1.566 . S
C835 C157 1.560 . S
C839 C120 1.553 . S
C853 C179 1.557 . S
C857 C135 1.554 . S
C871 C148 1.551 . S
C875 C192 1.551 . S
