# Generated by pormake.
# Topology etd, (3)-cn, num edge types: 1
# Building blocks:
#     Node 0, Type 0, BuildingBlock: WUSLED_clean_sbu_0, # of connection points: 3
#     Node 1, Type 0, BuildingBlock: WUSLED_clean_sbu_0, # of connection points: 3
#     Node 2, Type 0, BuildingBlock: WUSLED_clean_sbu_0, # of connection points: 3
#     Node 3, Type 0, BuildingBlock: WUSLED_clean_sbu_0, # of connection points: 3
#     Node 4, Type 0, BuildingBlock: WUSLED_clean_sbu_0, # of connection points: 3
#     Node 5, Type 0, BuildingBlock: WUSLED_clean_sbu_0, # of connection points: 3
#     Node 6, Type 0, BuildingBlock: WUSLED_clean_sbu_0, # of connection points: 3
#     Node 7, Type 0, BuildingBlock: WUSLED_clean_sbu_0, # of connection points: 3
#     Node 8, Type 0, BuildingBlock: WUSLED_clean_sbu_0, # of connection points: 3
#     Node 9, Type 0, BuildingBlock: WUSLED_clean_sbu_0, # of connection points: 3
#     Node 10, Type 0, BuildingBlock: WUSLED_clean_sbu_0, # of connection points: 3
#     Node 11, Type 0, BuildingBlock: WUSLED_clean_sbu_0, # of connection points: 3
#     Edge 12, Type (0, 0), BuildingBlock: XUDNAN_clean_linker_2, # of connection points: 2
#     Edge 13, Type (0, 0), BuildingBlock: XUDNAN_clean_linker_2, # of connection points: 2
#     Edge 14, Type (0, 0), BuildingBlock: XUDNAN_clean_linker_2, # of connection points: 2
#     Edge 15, Type (0, 0), BuildingBlock: XUDNAN_clean_linker_2, # of connection points: 2
#     Edge 16, Type (0, 0), BuildingBlock: XUDNAN_clean_linker_2, # of connection points: 2
#     Edge 17, Type (0, 0), BuildingBlock: XUDNAN_clean_linker_2, # of connection points: 2
#     Edge 18, Type (0, 0), BuildingBlock: XUDNAN_clean_linker_2, # of connection points: 2
#     Edge 19, Type (0, 0), BuildingBlock: XUDNAN_clean_linker_2, # of connection points: 2
#     Edge 20, Type (0, 0), BuildingBlock: XUDNAN_clean_linker_2, # of connection points: 2
#     Edge 21, Type (0, 0), BuildingBlock: XUDNAN_clean_linker_2, # of connection points: 2
#     Edge 22, Type (0, 0), BuildingBlock: XUDNAN_clean_linker_2, # of connection points: 2
#     Edge 23, Type (0, 0), BuildingBlock: XUDNAN_clean_linker_2, # of connection points: 2
#     Edge 24, Type (0, 0), BuildingBlock: XUDNAN_clean_linker_2, # of connection points: 2
#     Edge 25, Type (0, 0), BuildingBlock: XUDNAN_clean_linker_2, # of connection points: 2
#     Edge 26, Type (0, 0), BuildingBlock: XUDNAN_clean_linker_2, # of connection points: 2
#     Edge 27, Type (0, 0), BuildingBlock: XUDNAN_clean_linker_2, # of connection points: 2
#     Edge 28, Type (0, 0), BuildingBlock: XUDNAN_clean_linker_2, # of connection points: 2
#     Edge 29, Type (0, 0), BuildingBlock: XUDNAN_clean_linker_2, # of connection points: 2
# Relax obj value: 0.000
# Max RMSD: 0.002
# Mean RMSD: 0.002
data_MOF--net-etd--node1-WUSLED_clean_sbu_0--edge1-XUDNAN_clean_linker_2
_symmetry_space_group_name_H-M    P1
_symmetry_Int_Tables_number       1
_symmetry_cell_setting            triclinic
loop_
_symmetry_equiv_pos_as_xyz
'x, y, z'
_cell_length_a     91.360272
_cell_length_b     91.182385
_cell_length_c     64.906823
_cell_angle_alpha  89.871044
_cell_angle_beta   90.044131
_cell_angle_gamma 119.8211
loop_
_atom_site_label
_atom_site_type_symbol
_atom_site_fract_x
_atom_site_fract_y
_atom_site_fract_z
_atom_type_partial_charge
C0 C 0.48952 0.16322 0.1141 0.0
C1 C 0.49676 0.174 0.13104 0.0
C2 C 0.49199 0.19553 0.11465 0.0
C3 C 0.49801 0.19 0.1313 0.0
C4 C 0.48488 0.18464 0.09769 0.0
C5 C 0.4837 0.16872 0.09744 0.0
U6 U 0.49701 0.12704 0.13359 0.0
O7 O 0.47917 0.09958 0.13338 0.0
O8 O 0.50241 0.11 0.11517 0.0
C9 C 0.48809 0.09647 0.12002 0.0
C10 C 0.48768 0.14615 0.11332 0.0
C11 C 0.47877 0.08486 0.10285 0.0
C12 C 0.4602 0.07666 0.07295 0.0
C13 C 0.46859 0.08788 0.08926 0.0
C14 C 0.47208 0.05934 0.08363 0.0
C15 C 0.46189 0.06223 0.0698 0.0
C16 C 0.48035 0.07048 0.09993 0.0
C17 C 0.52444 0.1343 0.18287 0.0
C18 C 0.52955 0.11392 0.2013 0.0
C19 C 0.54444 0.14336 0.21134 0.0
C20 C 0.53614 0.14706 0.1958 0.0
C21 C 0.54128 0.12674 0.21439 0.0
C22 C 0.52123 0.11767 0.18565 0.0
C23 C 0.5158 0.13888 0.16693 0.0
O24 O 0.50138 0.14548 0.10896 0.0
O25 O 0.47856 0.1355 0.12793 0.0
O26 O 0.49922 0.13071 0.16726 0.0
O27 O 0.52203 0.14133 0.14819 0.0
H28 H 0.5014 0.17004 0.14405 0.0
H29 H 0.50377 0.19804 0.14454 0.0
H30 H 0.47983 0.1882 0.08474 0.0
H31 H 0.47803 0.16058 0.08422 0.0
H32 H 0.45232 0.07928 0.06288 0.0
H33 H 0.46716 0.0989 0.09122 0.0
H34 H 0.47404 0.04866 0.08165 0.0
H35 H 0.48818 0.06793 0.1102 0.0
H36 H 0.5269 0.10102 0.20302 0.0
H37 H 0.55313 0.15352 0.22125 0.0
H38 H 0.53877 0.15996 0.19399 0.0
H39 H 0.5123 0.10762 0.17579 0.0
C40 C 0.33765 0.48128 0.29083 0.0
C41 C 0.33384 0.49309 0.29944 0.0
C42 C 0.30785 0.48114 0.27943 0.0
C43 C 0.31892 0.49293 0.2939 0.0
C44 C 0.31153 0.469 0.2715 0.0
C45 C 0.32627 0.46904 0.27723 0.0
U46 U 0.3834 0.4861 0.30351 0.0
O47 O 0.3875 0.46494 0.29498 0.0
O48 O 0.39899 0.48856 0.27624 0.0
C49 C 0.3965 0.47317 0.27878 0.0
C50 C 0.3539 0.4822 0.29454 0.0
C51 C 0.4039 0.46588 0.26484 0.0
C52 C 0.4049 0.45392 0.23166 0.0
C53 C 0.3973 0.46028 0.24502 0.0
C54 C 0.42549 0.45843 0.25802 0.0
C55 C 0.41932 0.45322 0.23787 0.0
C56 C 0.41787 0.46468 0.27131 0.0
C57 C 0.41089 0.51236 0.35289 0.0
C58 C 0.43968 0.52678 0.36572 0.0
C59 C 0.41798 0.52935 0.38405 0.0
C60 C 0.40609 0.5188 0.36957 0.0
C61 C 0.43495 0.53374 0.38202 0.0
C62 C 0.42771 0.51611 0.35123 0.0
C63 C 0.39829 0.50344 0.33667 0.0
O64 O 0.36802 0.49533 0.28828 0.0
O65 O 0.35549 0.47109 0.30583 0.0
O66 O 0.38885 0.48688 0.33691 0.0
O67 O 0.40067 0.51034 0.3183 0.0
H68 H 0.34253 0.50261 0.31003 0.0
H69 H 0.31641 0.50243 0.30026 0.0
H70 H 0.30313 0.45961 0.26058 0.0
H71 H 0.32907 0.45985 0.27047 0.0
H72 H 0.39981 0.45009 0.21629 0.0
H73 H 0.38639 0.46098 0.23982 0.0
H74 H 0.43632 0.45777 0.26356 0.0
H75 H 0.42306 0.46885 0.28658 0.0
H76 H 0.45273 0.53001 0.36389 0.0
H77 H 0.41406 0.53477 0.39623 0.0
H78 H 0.3932 0.51621 0.37093 0.0
H79 H 0.43167 0.51129 0.33843 0.0
C80 C 0.87587 0.33037 0.4521 0.0
C81 C 0.86269 0.32694 0.46601 0.0
C82 C 0.84329 0.30199 0.44593 0.0
C83 C 0.84649 0.31272 0.46301 0.0
C84 C 0.85677 0.30517 0.4328 0.0
C85 C 0.87278 0.31911 0.43587 0.0
U86 U 0.91346 0.37505 0.47012 0.0
O87 O 0.94061 0.3838 0.46574 0.0
O88 O 0.9289 0.3965 0.44941 0.0
C89 C 0.94273 0.39582 0.45279 0.0
C90 C 0.89263 0.34599 0.45243 0.0
C91 C 0.95506 0.40056 0.4356 0.0
C92 C 0.97154 0.39507 0.4101 0.0
C93 C 0.95822 0.38909 0.42462 0.0
C94 C 0.97801 0.42373 0.41688 0.0
C95 C 0.98199 0.4126 0.40653 0.0
C96 C 0.96491 0.41782 0.4312 0.0
C97 C 0.90975 0.39839 0.51921 0.0
C98 C 0.92688 0.42785 0.52983 0.0
C99 C 0.9026 0.40867 0.55011 0.0
C100 C 0.89946 0.39555 0.53648 0.0
C101 C 0.9162 0.4251 0.54691 0.0
C102 C 0.92367 0.41463 0.51609 0.0
C103 C 0.90459 0.3844 0.5042 0.0
O104 O 0.89315 0.3603 0.44793 0.0
O105 O 0.90365 0.34757 0.46654 0.0
O106 O 0.91291 0.37607 0.50417 0.0
O107 O 0.90064 0.38699 0.48561 0.0
H108 H 0.86478 0.33545 0.4787 0.0
H109 H 0.83634 0.31056 0.47341 0.0
H110 H 0.85479 0.29708 0.41966 0.0
H111 H 0.8827 0.32143 0.42499 0.0
H112 H 0.97407 0.38606 0.40234 0.0
H113 H 0.95072 0.37565 0.4276 0.0
H114 H 0.98526 0.43723 0.4142 0.0
H115 H 0.96275 0.42694 0.43935 0.0
H116 H 0.93763 0.44025 0.52696 0.0
H117 H 0.89391 0.40601 0.56276 0.0
H118 H 0.88858 0.38318 0.53913 0.0
H119 H 0.93182 0.41715 0.50287 0.0
C120 C 0.55942 0.86896 0.61445 0.0
C121 C 0.55801 0.85904 0.63183 0.0
C122 C 0.56008 0.83835 0.60982 0.0
C123 C 0.55824 0.84375 0.6295 0.0
C124 C 0.56065 0.84799 0.59259 0.0
C125 C 0.56035 0.86305 0.59489 0.0
U126 U 0.55264 0.90556 0.63612 0.0
O127 O 0.57125 0.9329 0.63599 0.0
O128 O 0.54804 0.92325 0.6179 0.0
C129 C 0.56257 0.93649 0.62276 0.0
C130 C 0.56122 0.88604 0.61568 0.0
C131 C 0.57204 0.94811 0.6056 0.0
C132 C 0.58452 0.95362 0.5713 0.0
C133 C 0.57702 0.94266 0.58812 0.0
C134 C 0.58264 0.97577 0.58945 0.0
C135 C 0.58714 0.97026 0.57156 0.0
C136 C 0.57517 0.96482 0.60622 0.0
C137 C 0.52508 0.89888 0.685 0.0
C138 C 0.51876 0.91918 0.70129 0.0
C139 C 0.50641 0.8907 0.71474 0.0
C140 C 0.5147 0.88675 0.69951 0.0
C141 C 0.50824 0.90695 0.71588 0.0
C142 C 0.52708 0.91517 0.68595 0.0
C143 C 0.53347 0.89394 0.6692 0.0
O144 O 0.54788 0.88732 0.61117 0.0
O145 O 0.57027 0.89602 0.6308 0.0
O146 O 0.55004 0.90161 0.66976 0.0
O147 O 0.52744 0.89185 0.65039 0.0
H148 H 0.5572 0.8633 0.64713 0.0
H149 H 0.55772 0.83658 0.64308 0.0
H150 H 0.56176 0.84409 0.57719 0.0
H151 H 0.5614 0.87041 0.58126 0.0
H152 H 0.58805 0.94897 0.55795 0.0
H153 H 0.57478 0.92984 0.5873 0.0
H154 H 0.58424 0.98835 0.59021 0.0
H155 H 0.57136 0.96928 0.61952 0.0
H156 H 0.52038 0.93178 0.70155 0.0
H157 H 0.49872 0.88103 0.72585 0.0
H158 H 0.51302 0.87412 0.6991 0.0
H159 H 0.53501 0.92472 0.67485 0.0
C160 C 0.70738 0.55088 0.77947 0.0
C161 C 0.71372 0.54569 0.79605 0.0
C162 C 0.73852 0.55131 0.77561 0.0
C163 C 0.72918 0.54581 0.79408 0.0
C164 C 0.73171 0.55586 0.75901 0.0
C165 C 0.71639 0.55564 0.76092 0.0
U166 U 0.66407 0.54389 0.80145 0.0
O167 O 0.65538 0.56257 0.80139 0.0
O168 O 0.64182 0.53935 0.78329 0.0
C169 C 0.64312 0.55391 0.78824 0.0
C170 C 0.692 0.55242 0.78075 0.0
C171 C 0.64093 0.56347 0.77119 0.0
C172 C 0.64996 0.57932 0.73901 0.0
C173 C 0.65299 0.5712 0.75554 0.0
C174 C 0.62294 0.57233 0.75375 0.0
C175 C 0.63477 0.57982 0.73772 0.0
C176 C 0.62601 0.56429 0.77025 0.0
C177 C 0.64302 0.51678 0.85037 0.0
C178 C 0.61541 0.50929 0.86444 0.0
C179 C 0.63255 0.49938 0.88122 0.0
C180 C 0.64513 0.50766 0.86636 0.0
C181 C 0.61742 0.49992 0.88044 0.0
C182 C 0.6281 0.51764 0.84952 0.0
C183 C 0.65651 0.52488 0.83473 0.0
O184 O 0.67749 0.53888 0.77662 0.0
O185 O 0.69107 0.56157 0.79578 0.0
O186 O 0.66553 0.54147 0.83511 0.0
O187 O 0.65264 0.51874 0.81597 0.0
H188 H 0.70695 0.54193 0.81053 0.0
H189 H 0.73413 0.54227 0.80716 0.0
H190 H 0.73847 0.55998 0.74453 0.0
H191 H 0.71176 0.55963 0.74792 0.0
H192 H 0.65952 0.58515 0.72718 0.0
H193 H 0.66463 0.57077 0.75597 0.0
H194 H 0.61101 0.57216 0.75328 0.0
H195 H 0.6165 0.55836 0.78214 0.0
H196 H 0.60392 0.50993 0.86319 0.0
H197 H 0.63481 0.49267 0.89346 0.0
H198 H 0.65656 0.50688 0.86735 0.0
H199 H 0.62621 0.52461 0.83727 0.0
C200 C 0.17153 0.70029 0.94999 0.0
C201 C 0.18381 0.70151 0.96401 0.0
C202 C 0.20455 0.7289 0.94933 0.0
C203 C 0.20017 0.71568 0.96369 0.0
C204 C 0.19198 0.7277 0.93576 0.0
C205 C 0.17572 0.7136 0.93611 0.0
U206 U 0.13572 0.65552 0.96655 0.0
O207 O 0.10814 0.6452 0.96575 0.0
O208 O 0.1197 0.63404 0.94639 0.0
C209 C 0.10577 0.63401 0.95149 0.0
C210 C 0.15462 0.68502 0.94848 0.0
C211 C 0.09406 0.63195 0.9345 0.0
C212 C 0.08773 0.63947 0.90087 0.0
C213 C 0.09918 0.64245 0.91702 0.0
C214 C 0.06597 0.61566 0.91966 0.0
C215 C 0.07096 0.62592 0.9019 0.0
C216 C 0.07738 0.61862 0.93567 0.0
C217 C 0.14445 0.63455 1.01491 0.0
C218 C 0.12638 0.61038 0.03688 0.0
C219 C 0.15667 0.62515 0.04151 0.0
C220 C 0.15854 0.63603 0.02533 0.0
C221 C 0.14059 0.61243 0.0479 0.0
C222 C 0.12829 0.62144 0.02052 0.0
C223 C 0.1475 0.64759 0.99921 0.0
O224 O 0.15431 0.67103 0.94292 0.0
O225 O 0.14371 0.6826 0.96313 0.0
O226 O 0.13853 0.65522 1.00028 0.0
O227 O 0.1504 0.64472 0.98024 0.0
H228 H 0.18085 0.6914 0.97492 0.0
H229 H 0.20941 0.71622 0.97458 0.0
H230 H 0.19484 0.73739 0.92428 0.0
H231 H 0.16649 0.7129 0.92508 0.0
H232 H 0.09213 0.6476 0.88744 0.0
H233 H 0.11203 0.65281 0.91576 0.0
H234 H 0.05315 0.60535 0.92135 0.0
H235 H 0.07314 0.61037 0.94902 0.0
H236 H 0.11383 0.6007 0.04141 0.0
H237 H 0.16791 0.62693 0.04936 0.0
H238 H 0.17111 0.64598 0.02125 0.0
H239 H 0.11721 0.62002 1.01263 0.0
C240 C 0.87602 0.54987 0.75656 0.0
C241 C 0.86572 0.54436 0.73891 0.0
C242 C 0.84457 0.5489 0.75626 0.0
C243 C 0.85011 0.54397 0.73874 0.0
C244 C 0.85475 0.55404 0.77392 0.0
C245 C 0.87029 0.55452 0.77406 0.0
U246 U 0.91226 0.54248 0.73703 0.0
O247 O 0.93964 0.56034 0.73743 0.0
O248 O 0.92922 0.53698 0.75559 0.0
C249 C 0.94272 0.55135 0.75078 0.0
C250 C 0.89299 0.55154 0.75723 0.0
C251 C 0.95458 0.56063 0.7678 0.0
C252 C 0.96649 0.58301 0.79361 0.0
C253 C 0.95422 0.57381 0.77856 0.0
C254 C 0.97924 0.56561 0.78778 0.0
C255 C 0.97925 0.57909 0.79828 0.0
C256 C 0.9671 0.55656 0.7727 0.0
C257 C 0.90492 0.51569 0.68696 0.0
C258 C 0.92327 0.50653 0.67116 0.0
C259 C 0.89702 0.50018 0.65459 0.0
C260 C 0.89356 0.50826 0.67059 0.0
C261 C 0.91188 0.49924 0.65468 0.0
C262 C 0.91984 0.51476 0.68721 0.0
C263 C 0.90057 0.52411 0.70337 0.0
O264 O 0.89361 0.53775 0.76143 0.0
O265 O 0.90374 0.56087 0.74283 0.0
O266 O 0.90869 0.54073 0.70331 0.0
O267 O 0.89826 0.51762 0.72197 0.0
H268 H 0.8699 0.54072 0.72521 0.0
H269 H 0.84257 0.54022 0.72482 0.0
H270 H 0.8509 0.55821 0.78744 0.0
H271 H 0.87805 0.5589 0.78778 0.0
H272 H 0.96604 0.59321 0.80156 0.0
H273 H 0.94463 0.57715 0.77514 0.0
H274 H 0.98896 0.56238 0.79077 0.0
H275 H 0.96769 0.54652 0.76454 0.0
H276 H 0.9349 0.50609 0.67142 0.0
H277 H 0.8881 0.49472 0.64203 0.0
H278 H 0.88197 0.50878 0.67011 0.0
H279 H 0.92879 0.52043 0.69969 0.0
C280 C 0.33965 0.86844 0.92007 0.0
C281 C 0.33929 0.8552 0.90862 0.0
C282 C 0.31118 0.8354 0.92211 0.0
C283 C 0.3252 0.83882 0.90967 0.0
C284 C 0.31139 0.8489 0.9328 0.0
C285 C 0.32547 0.86519 0.93183 0.0
U286 U 0.38433 0.90426 0.90327 0.0
O287 O 0.39494 0.9319 0.90429 0.0
O288 O 0.4059 0.91999 0.92354 0.0
C289 C 0.40633 0.93411 0.91818 0.0
C290 C 0.35501 0.88531 0.92156 0.0
C291 C 0.40984 0.94677 0.93449 0.0
C292 C 0.40353 0.95644 0.96663 0.0
C293 C 0.39955 0.94358 0.95197 0.0
C294 C 0.42803 0.97551 0.94654 0.0
C295 C 0.4177 0.97264 0.96383 0.0
C296 C 0.42417 0.96275 0.93213 0.0
C297 C 0.40637 0.89827 0.85508 0.0
C298 C 0.43045 0.91919 0.83519 0.0
C299 C 0.42107 0.88947 0.83118 0.0
C300 C 0.40823 0.88552 0.84556 0.0
C301 C 0.43238 0.90637 0.82551 0.0
C302 C 0.41766 0.91519 0.84988 0.0
C303 C 0.39233 0.89329 0.86993 0.0
O304 O 0.36898 0.88544 0.92676 0.0
O305 O 0.35736 0.89643 0.90715 0.0
O306 O 0.38426 0.90186 0.86946 0.0
O307 O 0.39488 0.88968 0.88874 0.0
H308 H 0.35006 0.85741 0.89936 0.0
H309 H 0.32538 0.82877 0.90102 0.0
H310 H 0.30096 0.84674 0.9427 0.0
H311 H 0.32549 0.87517 0.94088 0.0
H312 H 0.39531 0.9539 0.97978 0.0
H313 H 0.38844 0.93131 0.95413 0.0
H314 H 0.43911 0.98777 0.94406 0.0
H315 H 0.43236 0.96546 0.9189 0.0
H316 H 0.4386 0.93235 0.83126 0.0
H317 H 0.42217 0.87912 0.82477 0.0
H318 H 0.39969 0.87237 0.84931 0.0
H319 H 0.41651 0.92531 0.85701 0.0
C320 C 0.48592 0.33058 0.08508 0.0
C321 C 0.4993 0.3291 0.07657 0.0
C322 C 0.48792 0.30087 0.09166 0.0
C323 C 0.50024 0.31427 0.07974 0.0
C324 C 0.47411 0.30214 0.09898 0.0
C325 C 0.47314 0.31678 0.09573 0.0
U326 U 0.49526 0.37548 0.06591 0.0
O327 O 0.47757 0.38535 0.06701 0.0
O328 O 0.50091 0.39755 0.08515 0.0
C329 C 0.48681 0.39726 0.08029 0.0
C330 C 0.48539 0.34657 0.08511 0.0
C331 C 0.47798 0.4006 0.09715 0.0
C332 C 0.4616 0.39316 0.12902 0.0
C333 C 0.46857 0.38865 0.11249 0.0
C334 C 0.47302 0.42127 0.11462 0.0
C335 C 0.4641 0.40967 0.13037 0.0
C336 C 0.47983 0.41677 0.0982 0.0
C337 C 0.52217 0.39718 1.01713 0.0
C338 C 0.53457 0.42675 1.00684 0.0
C339 C 0.53582 0.40663 0.98374 0.0
C340 C 0.52716 0.39376 0.99819 0.0
C341 C 0.53994 0.42342 0.98789 0.0
C342 C 0.52574 0.41376 0.02129 0.0
C343 C 0.51385 0.38328 0.03232 0.0
O344 O 0.49944 0.36056 0.08949 0.0
O345 O 0.47639 0.34858 0.07074 0.0
O346 O 0.49727 0.37473 0.03208 0.0
O347 O 0.52016 0.38637 0.05104 0.0
H348 H 0.50929 0.33958 0.06818 0.0
H349 H 0.511 0.31365 0.07384 0.0
H350 H 0.46428 0.29197 0.10794 0.0
H351 H 0.46267 0.31757 0.10236 0.0
H352 H 0.45494 0.38406 0.14114 0.0
H353 H 0.46701 0.37608 0.11197 0.0
H354 H 0.47521 0.43408 0.11538 0.0
H355 H 0.48701 0.42617 0.08656 0.0
H356 H 0.53753 0.43946 1.01078 0.0
H357 H 0.53923 0.40331 0.96923 0.0
H358 H 0.52448 0.38105 0.99461 0.0
H359 H 0.52197 0.41669 0.03582 0.0
C360 C 0.16995 0.47968 0.25398 0.0
C361 C 0.18108 0.48805 0.23761 0.0
C362 C 0.2024 0.48285 0.25343 0.0
C363 C 0.19717 0.48964 0.23735 0.0
C364 C 0.19114 0.47456 0.26979 0.0
C365 C 0.17515 0.47305 0.27005 0.0
U366 U 0.13369 0.48611 0.23345 0.0
O367 O 0.10632 0.46806 0.23387 0.0
O368 O 0.11654 0.49183 0.25102 0.0
C369 C 0.10313 0.47725 0.24671 0.0
C370 C 0.15286 0.47756 0.25474 0.0
C371 C 0.09178 0.46825 0.26422 0.0
C372 C 0.08651 0.45569 0.29853 0.0
C373 C 0.09719 0.46279 0.2814 0.0
C374 C 0.06468 0.45863 0.28109 0.0
C375 C 0.07021 0.45371 0.29858 0.0
C376 C 0.07539 0.4659 0.26413 0.0
C377 C 0.14175 0.51272 0.18294 0.0
C378 C 0.12439 0.52341 0.16782 0.0
C379 C 0.15206 0.53206 0.15377 0.0
C380 C 0.15423 0.52189 0.16819 0.0
C381 C 0.13729 0.53319 0.15366 0.0
C382 C 0.12662 0.51323 0.18243 0.0
C383 C 0.14572 0.50405 0.19946 0.0
O384 O 0.15202 0.49129 0.25835 0.0
O385 O 0.14225 0.46792 0.24044 0.0
O386 O 0.1373 0.48743 0.19969 0.0
O387 O 0.1481 0.51073 0.21793 0.0
H388 H 0.17731 0.49332 0.22507 0.0
H389 H 0.20554 0.49628 0.22462 0.0
H390 H 0.1945 0.46887 0.28224 0.0
H391 H 0.16673 0.46652 0.2828 0.0
H392 H 0.0911 0.4521 0.31193 0.0
H393 H 0.10979 0.46447 0.28179 0.0
H394 H 0.05232 0.45755 0.28092 0.0
H395 H 0.07101 0.47012 0.25111 0.0
H396 H 0.11302 0.52432 0.16825 0.0
H397 H 0.16227 0.53966 0.14323 0.0
H398 H 0.16602 0.52174 0.16835 0.0
H399 H 0.11685 0.50631 0.19375 0.0
C400 C 0.70746 0.163 0.42037 0.0
C401 C 0.70805 0.17585 0.40784 0.0
C402 C 0.7365 0.19574 0.4203 0.0
C403 C 0.7224 0.19205 0.40782 0.0
C404 C 0.73589 0.1826 0.4324 0.0
C405 C 0.72154 0.16649 0.43248 0.0
U406 U 0.66326 0.12742 0.4029 0.0
O407 O 0.6525 0.09979 0.40472 0.0
O408 O 0.64095 0.11197 0.4223 0.0
C409 C 0.6407 0.0978 0.41786 0.0
C410 C 0.69212 0.14619 0.42207 0.0
C411 C 0.63662 0.08545 0.43479 0.0
C412 C 0.64405 0.07267 0.46315 0.0
C413 C 0.64873 0.08568 0.44842 0.0
C414 C 0.61521 0.05959 0.45106 0.0
C415 C 0.62726 0.05923 0.46422 0.0
C416 C 0.61983 0.07249 0.43658 0.0
C417 C 0.64247 0.13406 0.35385 0.0
C418 C 0.61782 0.1135 0.33457 0.0
C419 C 0.62855 0.14341 0.32937 0.0
C420 C 0.64132 0.14706 0.34376 0.0
C421 C 0.61658 0.12657 0.3244 0.0
C422 C 0.63058 0.11721 0.34919 0.0
C423 C 0.65624 0.13871 0.369 0.0
O424 O 0.6781 0.14617 0.42661 0.0
O425 O 0.69001 0.13496 0.40798 0.0
O426 O 0.66394 0.12976 0.36902 0.0
O427 O 0.65351 0.14244 0.38761 0.0
H428 H 0.69731 0.17344 0.39837 0.0
H429 H 0.72221 0.20177 0.3984 0.0
H430 H 0.74653 0.18468 0.44183 0.0
H431 H 0.72137 0.15675 0.44224 0.0
H432 H 0.65362 0.07274 0.47307 0.0
H433 H 0.66178 0.09563 0.44736 0.0
H434 H 0.60214 0.04961 0.45166 0.0
H435 H 0.61026 0.07209 0.42635 0.0
H436 H 0.60908 0.10038 0.33111 0.0
H437 H 0.62797 0.1539 0.32242 0.0
H438 H 0.65032 0.16016 0.34713 0.0
H439 H 0.63119 0.10693 0.35678 0.0
C440 C 0.55824 0.69878 0.59085 0.0
C441 C 0.55649 0.70544 0.57204 0.0
C442 C 0.55726 0.72937 0.59005 0.0
C443 C 0.55612 0.72068 0.57164 0.0
C444 C 0.55836 0.72229 0.60882 0.0
C445 C 0.55893 0.70723 0.60918 0.0
U446 U 0.55133 0.65527 0.57207 0.0
O447 O 0.56926 0.6457 0.5723 0.0
O448 O 0.54607 0.63294 0.59074 0.0
C449 C 0.56022 0.63351 0.58544 0.0
C450 C 0.56025 0.68364 0.59197 0.0
C451 C 0.56938 0.62989 0.60168 0.0
C452 C 0.58741 0.6371 0.63215 0.0
C453 C 0.57848 0.64123 0.61765 0.0
C454 C 0.57792 0.61033 0.61497 0.0
C455 C 0.58745 0.62169 0.63068 0.0
C456 C 0.56903 0.61439 0.60072 0.0
C457 C 0.5243 0.63625 0.52185 0.0
C458 C 0.51325 0.60849 0.50587 0.0
C459 C 0.50997 0.63032 0.48881 0.0
C460 C 0.51827 0.64136 0.50506 0.0
C461 C 0.50745 0.61381 0.48887 0.0
C462 C 0.52171 0.61969 0.52226 0.0
C463 C 0.53282 0.64864 0.53855 0.0
O464 O 0.54666 0.66926 0.59647 0.0
O465 O 0.56962 0.68211 0.5777 0.0
O466 O 0.5494 0.6571 0.53837 0.0
O467 O 0.52642 0.64431 0.55716 0.0
H468 H 0.55582 0.69912 0.55767 0.0
H469 H 0.55521 0.72582 0.55694 0.0
H470 H 0.55953 0.7288 0.62319 0.0
H471 H 0.56036 0.70238 0.62385 0.0
H472 H 0.59467 0.64612 0.64405 0.0
H473 H 0.57887 0.65327 0.61872 0.0
H474 H 0.57747 0.59828 0.61356 0.0
H475 H 0.56201 0.6054 0.58866 0.0
H476 H 0.51157 0.59587 0.50626 0.0
H477 H 0.50549 0.63474 0.47609 0.0
H478 H 0.52 0.654 0.50449 0.0
H479 H 0.52625 0.61548 0.53512 0.0
H480 H 0.57438 0.14577 0.22712 0.0
H481 H 0.52801 0.09919 0.24049 0.0
H482 H 0.54215 0.0936 0.26949 0.0
H483 H 0.60314 0.13077 0.23881 0.0
H484 H 0.61864 0.15037 0.25038 0.0
H485 H 0.6049 0.15048 0.23055 0.0
H486 H 0.59503 0.16633 0.25494 0.0
H487 H 0.60875 0.16627 0.27484 0.0
H488 H 0.58654 0.15745 0.27988 0.0
H489 H 0.56135 0.09394 0.29847 0.0
H490 H 0.58384 0.09955 0.32352 0.0
H491 H 0.61792 0.14526 0.28991 0.0
C492 C 0.56713 0.13439 0.23614 0.0
C493 C 0.55001 0.12293 0.2314 0.0
C494 C 0.54116 0.10809 0.24355 0.0
C495 C 0.54907 0.10486 0.26018 0.0
C496 C 0.5659 0.11652 0.26451 0.0
C497 C 0.57483 0.13095 0.25274 0.0
C498 C 0.59274 0.14155 0.26061 0.0
C499 C 0.60562 0.14339 0.2441 0.0
C500 C 0.59595 0.15893 0.268 0.0
C501 C 0.59258 0.1308 0.27855 0.0
C502 C 0.57696 0.11649 0.28072 0.0
C503 C 0.57368 0.10502 0.29672 0.0
C504 C 0.58667 0.10827 0.31084 0.0
C505 C 0.60289 0.12285 0.3089 0.0
C506 C 0.60574 0.13411 0.29228 0.0
H507 H 0.48063 0.58079 0.48748 0.0
H508 H 0.51596 0.62225 0.44885 0.0
H509 H 0.50135 0.60606 0.41785 0.0
H510 H 0.47592 0.54652 0.45279 0.0
H511 H 0.45373 0.53338 0.45809 0.0
H512 H 0.46754 0.54771 0.47748 0.0
H513 H 0.44845 0.56118 0.47994 0.0
H514 H 0.43476 0.54705 0.46035 0.0
H515 H 0.44411 0.56958 0.45703 0.0
H516 H 0.48293 0.58631 0.39107 0.0
H517 H 0.46156 0.56331 0.36956 0.0
H518 H 0.43709 0.53437 0.42456 0.0
C519 C 0.48542 0.58627 0.47247 0.0
C520 C 0.49944 0.60283 0.47058 0.0
C521 C 0.5052 0.60967 0.45067 0.0
C522 C 0.497 0.60056 0.43295 0.0
C523 C 0.48302 0.58453 0.43528 0.0
C524 C 0.47726 0.57731 0.45446 0.0
C525 C 0.4616 0.55996 0.45234 0.0
C526 C 0.4649 0.54607 0.46067 0.0
C527 C 0.44633 0.55942 0.46305 0.0
C528 C 0.45946 0.55875 0.42905 0.0
C529 C 0.47208 0.57305 0.41959 0.0
C530 C 0.47306 0.57497 0.39825 0.0
C531 C 0.46094 0.56183 0.38616 0.0
C532 C 0.4479 0.54703 0.39539 0.0
C533 C 0.44704 0.54555 0.41715 0.0
H534 H 0.90872 0.46764 0.65214 0.0
H535 H 0.92253 0.51303 0.61682 0.0
H536 H 0.92636 0.49957 0.58574 0.0
H537 H 0.93731 0.45597 0.62699 0.0
H538 H 0.92225 0.43365 0.62736 0.0
H539 H 0.9216 0.44722 0.64705 0.0
H540 H 0.89034 0.43691 0.63819 0.0
H541 H 0.8909 0.42339 0.61839 0.0
H542 H 0.88466 0.43876 0.6121 0.0
H543 H 0.92769 0.48073 0.55816 0.0
H544 H 0.9259 0.45791 0.53604 0.0
H545 H 0.91121 0.4245 0.58915 0.0
C546 C 0.91287 0.47479 0.63792 0.0
C547 C 0.91565 0.49148 0.63685 0.0
C548 C 0.9206 0.50034 0.61792 0.0
C549 C 0.92276 0.49277 0.60022 0.0
C550 C 0.91981 0.47625 0.60165 0.0
C551 C 0.91496 0.46734 0.62001 0.0
C552 C 0.91185 0.44948 0.61709 0.0
C553 C 0.92398 0.4464 0.63042 0.0
C554 C 0.89334 0.43636 0.62172 0.0
C555 C 0.9158 0.44977 0.5943 0.0
C556 C 0.92038 0.46533 0.58569 0.0
C557 C 0.92426 0.46853 0.5648 0.0
C558 C 0.92333 0.45549 0.55235 0.0
C559 C 0.9185 0.43931 0.56071 0.0
C560 C 0.91484 0.43661 0.5821 0.0
H561 H 0.47604 0.88655 0.73067 0.0
H562 H 0.51994 0.93627 0.7386 0.0
H563 H 0.50538 0.94204 0.76692 0.0
H564 H 0.4444 0.89786 0.74065 0.0
H565 H 0.43086 0.87862 0.75449 0.0
H566 H 0.44473 0.87872 0.73475 0.0
H567 H 0.45792 0.86706 0.76088 0.0
H568 H 0.4441 0.86695 0.78074 0.0
H569 H 0.4666 0.87826 0.78464 0.0
H570 H 0.48613 0.94143 0.79625 0.0
H571 H 0.46394 0.93527 0.82193 0.0
H572 H 0.4322 0.88658 0.79283 0.0
C573 C 0.48268 0.89866 0.73836 0.0
C574 C 0.49923 0.91092 0.73233 0.0
C575 C 0.50723 0.9267 0.7427 0.0
C576 C 0.49909 0.93005 0.75894 0.0
C577 C 0.48287 0.91755 0.76463 0.0
C578 C 0.47475 0.90221 0.75451 0.0
C579 C 0.45743 0.89079 0.7636 0.0
C580 C 0.44354 0.88624 0.74741 0.0
C581 C 0.45646 0.87482 0.77302 0.0
C582 C 0.45688 0.90215 0.78021 0.0
C583 C 0.47173 0.91744 0.78083 0.0
C584 C 0.47436 0.92957 0.79565 0.0
C585 C 0.46151 0.92597 0.81015 0.0
C586 C 0.446 0.9104 0.8097 0.0
C587 C 0.44381 0.89851 0.7942 0.0
H588 H 0.56502 0.42621 0.96168 0.0
H589 H 0.53796 0.45222 0.97915 0.0
H590 H 0.55459 0.47465 0.95374 0.0
H591 H 0.60516 0.46216 0.95267 0.0
H592 H 0.60972 0.45317 0.93057 0.0
H593 H 0.59601 0.43956 0.95055 0.0
H594 H 0.57252 0.42322 0.92354 0.0
H595 H 0.58617 0.43678 0.90346 0.0
H596 H 0.56566 0.43466 0.9072 0.0
H597 H 0.57485 0.49463 0.92587 0.0
H598 H 0.59626 0.50968 0.89878 0.0
H599 H 0.60792 0.46898 0.89821 0.0
C600 C 0.56231 0.43643 0.9601 0.0
C601 C 0.55002 0.43725 0.97261 0.0
C602 C 0.5474 0.45126 0.97011 0.0
C603 C 0.55672 0.46406 0.95555 0.0
C604 C 0.56857 0.46267 0.94338 0.0
C605 C 0.57128 0.44913 0.94549 0.0
C606 C 0.58444 0.45029 0.93039 0.0
C607 C 0.59974 0.45136 0.94173 0.0
C608 C 0.57674 0.43535 0.91525 0.0
C609 C 0.58898 0.46675 0.91961 0.0
C610 C 0.57973 0.47376 0.92724 0.0
C611 C 0.58205 0.48914 0.91974 0.0
C612 C 0.5942 0.49757 0.90421 0.0
C613 C 0.60393 0.49064 0.89626 0.0
C614 C 0.601 0.47488 0.90406 0.0
H615 H 0.12157 0.57753 0.05495 0.0
H616 H 0.1565 0.62508 0.0842 0.0
H617 H 0.15763 0.60975 0.11473 0.0
H618 H 0.09904 0.55619 0.10397 0.0
H619 H 0.09626 0.53595 0.09641 0.0
H620 H 0.09685 0.5505 0.07711 0.0
H621 H 0.12113 0.54905 0.05849 0.0
H622 H 0.12064 0.53458 0.07775 0.0
H623 H 0.14003 0.55391 0.07256 0.0
H624 H 0.15766 0.59008 0.14042 0.0
H625 H 0.15519 0.56641 0.16146 0.0
H626 H 0.11947 0.53064 0.11771 0.0
C627 C 0.12917 0.58467 0.06797 0.0
C628 C 0.13915 0.60257 0.067 0.0
C629 C 0.149 0.61141 0.08435 0.0
C630 C 0.14966 0.60282 0.10186 0.0
C631 C 0.14019 0.58527 0.10213 0.0
C632 C 0.12992 0.57619 0.08586 0.0
C633 C 0.12149 0.55727 0.09028 0.0
C634 C 0.10227 0.54952 0.09204 0.0
C635 C 0.12611 0.54817 0.07378 0.0
C636 C 0.12923 0.55726 0.11111 0.0
C637 C 0.13984 0.57364 0.11761 0.0
C638 C 0.14916 0.57719 0.13573 0.0
C639 C 0.1477 0.56369 0.14757 0.0
C640 C 0.137 0.54679 0.14137 0.0
C641 C 0.1275 0.54348 0.12296 0.0
H642 H 0.49742 0.21783 0.08237 0.0
H643 H 0.48722 0.21111 0.14813 0.0
H644 H 0.48699 0.23796 0.1492 0.0
H645 H 0.52403 0.26372 0.0828 0.0
H646 H 0.51557 0.26662 0.05902 0.0
H647 H 0.51611 0.24738 0.06349 0.0
H648 H 0.48395 0.22985 0.05687 0.0
H649 H 0.48334 0.24903 0.05234 0.0
H650 H 0.46985 0.23422 0.07164 0.0
H651 H 0.48671 0.26474 0.14335 0.0
H652 H 0.48556 0.28963 0.1308 0.0
H653 H 0.49496 0.27933 0.06843 0.0
C654 C 0.49513 0.22196 0.09703 0.0
C655 C 0.4925 0.21224 0.11523 0.0
C656 C 0.48968 0.21834 0.13404 0.0
C657 C 0.4894 0.23358 0.1348 0.0
C658 C 0.49194 0.24271 0.11663 0.0
C659 C 0.49473 0.23717 0.09807 0.0
C660 C 0.49644 0.24917 0.08068 0.0
C661 C 0.51409 0.2572 0.07092 0.0
C662 C 0.48257 0.24002 0.06442 0.0
C663 C 0.49396 0.26222 0.09238 0.0
C664 C 0.49151 0.25822 0.11312 0.0
C665 C 0.4886 0.268 0.12715 0.0
C666 C 0.48789 0.28209 0.11984 0.0
C667 C 0.49001 0.28639 0.09863 0.0
C668 C 0.49337 0.27643 0.08474 0.0
H669 H 0.22363 0.48729 0.28616 0.0
H670 H 0.21934 0.48034 0.21978 0.0
H671 H 0.24637 0.48045 0.21924 0.0
H672 H 0.26917 0.51415 0.28861 0.0
H673 H 0.27112 0.50443 0.31187 0.0
H674 H 0.25206 0.5051 0.30691 0.0
H675 H 0.23455 0.47251 0.31101 0.0
H676 H 0.2536 0.47182 0.31593 0.0
H677 H 0.23968 0.45934 0.29543 0.0
H678 H 0.27312 0.47998 0.22594 0.0
H679 H 0.29794 0.47914 0.23944 0.0
H680 H 0.2844 0.48522 0.30164 0.0
C681 C 0.22831 0.48578 0.27147 0.0
C682 C 0.21925 0.48387 0.25298 0.0
C683 C 0.22608 0.48214 0.23412 0.0
C684 C 0.2414 0.48207 0.23366 0.0
C685 C 0.2498 0.48371 0.25218 0.0
C686 C 0.24353 0.48556 0.27074 0.0
C687 C 0.25472 0.48644 0.28854 0.0
C688 C 0.26221 0.50355 0.29963 0.0
C689 C 0.24506 0.47165 0.30361 0.0
C690 C 0.26822 0.48471 0.27707 0.0
C691 C 0.26514 0.4832 0.2561 0.0
C692 C 0.27566 0.48115 0.24232 0.0
C693 C 0.28965 0.48058 0.25016 0.0
C694 C 0.29303 0.48201 0.27159 0.0
C695 C 0.2822 0.48422 0.28517 0.0
H696 H 0.81982 0.2744 0.46901 0.0
H697 H 0.82783 0.29871 0.40933 0.0
H698 H 0.80116 0.27484 0.39675 0.0
H699 H 0.80296 0.23262 0.45012 0.0
H700 H 0.78732 0.22251 0.47002 0.0
H701 H 0.80639 0.24204 0.47533 0.0
H702 H 0.7888 0.25576 0.48681 0.0
H703 H 0.76966 0.2362 0.4817 0.0
H704 H 0.77316 0.25549 0.46959 0.0
H705 H 0.77519 0.24731 0.38932 0.0
H706 H 0.75029 0.21877 0.38846 0.0
H707 H 0.75766 0.21234 0.45331 0.0
C708 C 0.81572 0.27483 0.45348 0.0
C709 C 0.82596 0.28844 0.44011 0.0
C710 C 0.82027 0.28839 0.41977 0.0
C711 C 0.80512 0.27489 0.41248 0.0
C712 C 0.79559 0.26142 0.4257 0.0
C713 C 0.80049 0.26132 0.44586 0.0
C714 C 0.78803 0.24489 0.4565 0.0
C715 C 0.7967 0.23494 0.4634 0.0
C716 C 0.7794 0.2483 0.47473 0.0
C717 C 0.77559 0.23585 0.43913 0.0
C718 C 0.78024 0.2456 0.4215 0.0
C719 C 0.77122 0.23968 0.40317 0.0
C720 C 0.75697 0.22341 0.40287 0.0
C721 C 0.75171 0.21315 0.42083 0.0
C722 C 0.76126 0.21964 0.43919 0.0
H723 H 0.53978 0.74135 0.61286 0.0
H724 H 0.57915 0.75631 0.56688 0.0
H725 H 0.5848 0.78572 0.56873 0.0
H726 H 0.52431 0.7691 0.59363 0.0
H727 H 0.51959 0.7736 0.61901 0.0
H728 H 0.51863 0.75372 0.61398 0.0
H729 H 0.53955 0.75956 0.6439 0.0
H730 H 0.54083 0.77962 0.64876 0.0
H731 H 0.55976 0.7787 0.64375 0.0
H732 H 0.58764 0.81353 0.57702 0.0
H733 H 0.58449 0.83787 0.58666 0.0
H734 H 0.54205 0.80553 0.62595 0.0
C735 C 0.5495 0.75083 0.6031 0.0
C736 C 0.55908 0.74655 0.58973 0.0
C737 C 0.57159 0.75926 0.57708 0.0
C738 C 0.57498 0.77603 0.57817 0.0
C739 C 0.5656 0.7799 0.59178 0.0
C740 C 0.55284 0.76766 0.60369 0.0
C741 C 0.54428 0.77528 0.61641 0.0
C742 C 0.52559 0.76746 0.61039 0.0
C743 C 0.54623 0.77317 0.63958 0.0
C744 C 0.55435 0.79377 0.60989 0.0
C745 C 0.56671 0.79605 0.59588 0.0
C746 C 0.57782 0.81186 0.58769 0.0
C747 C 0.5759 0.82562 0.59324 0.0
C748 C 0.56281 0.82362 0.6067 0.0
C749 C 0.55214 0.80749 0.61558 0.0
H750 H 0.75007 0.52858 0.7833 0.0
H751 H 0.76634 0.57981 0.76303 0.0
H752 H 0.79443 0.58394 0.75477 0.0
H753 H 0.79096 0.53816 0.80643 0.0
H754 H 0.78922 0.51847 0.79826 0.0
H755 H 0.77045 0.51963 0.80351 0.0
H756 H 0.75943 0.50811 0.76698 0.0
H757 H 0.77835 0.50732 0.76143 0.0
H758 H 0.77208 0.5191 0.74484 0.0
H759 H 0.81998 0.58232 0.74631 0.0
H760 H 0.8434 0.57626 0.7428 0.0
H761 H 0.81207 0.52656 0.76937 0.0
C762 C 0.75967 0.54072 0.77744 0.0
C763 C 0.75592 0.55384 0.77356 0.0
C764 C 0.76882 0.56952 0.76582 0.0
C765 C 0.78482 0.57199 0.76105 0.0
C766 C 0.78794 0.5587 0.76421 0.0
C767 C 0.77592 0.54346 0.77258 0.0
C768 C 0.78287 0.53138 0.77437 0.0
C769 C 0.7834 0.52664 0.79699 0.0
C770 C 0.77257 0.51554 0.76111 0.0
C771 C 0.80059 0.54227 0.76571 0.0
C772 C 0.80308 0.5579 0.75973 0.0
C773 C 0.81824 0.57016 0.75104 0.0
C774 C 0.83142 0.5666 0.74897 0.0
C775 C 0.82946 0.55096 0.75565 0.0
C776 C 0.81378 0.53856 0.76396 0.0
H777 H 0.21526 0.76259 0.94121 0.0
H778 H 0.2342 0.72811 0.95293 0.0
H779 H 0.26326 0.75133 0.94681 0.0
H780 H 0.24347 0.78507 0.89996 0.0
H781 H 0.2461 0.80535 0.90704 0.0
H782 H 0.22682 0.78629 0.91334 0.0
H783 H 0.23064 0.79474 0.95188 0.0
H784 H 0.24979 0.81395 0.94564 0.0
H785 H 0.25007 0.7997 0.96472 0.0
H786 H 0.29031 0.77808 0.93716 0.0
H787 H 0.31332 0.80681 0.92867 0.0
H788 H 0.27688 0.82395 0.92321 0.0
C789 C 0.22549 0.75987 0.94252 0.0
C790 C 0.22229 0.74337 0.94752 0.0
C791 C 0.23619 0.74058 0.94937 0.0
C792 C 0.25279 0.75369 0.94572 0.0
C793 C 0.2554 0.76963 0.94029 0.0
C794 C 0.24214 0.77282 0.93897 0.0
C795 C 0.24834 0.79107 0.93284 0.0
C796 C 0.24073 0.79199 0.91206 0.0
C797 C 0.24448 0.80041 0.94978 0.0
C798 C 0.26717 0.79768 0.93097 0.0
C799 C 0.27096 0.78506 0.93512 0.0
C800 C 0.28747 0.78806 0.934 0.0
C801 C 0.30047 0.80442 0.92898 0.0
C802 C 0.29699 0.81772 0.92529 0.0
C803 C 0.28002 0.81414 0.92612 0.0
H804 H 0.4487 0.02741 0.0678 0.0
H805 H 0.45659 0.07048 0.03069 0.0
H806 H 0.44396 0.05169 1.00087 0.0
H807 H 0.4602 1.0078 0.0283 0.0
H808 H 0.44492 0.98653 0.03578 0.0
H809 H 0.45333 1.00312 0.05473 0.0
H810 H 0.42301 0.9961 0.0643 0.0
H811 H 0.41452 0.97954 0.04528 0.0
H812 H 0.40918 0.99609 0.04447 0.0
H813 H 0.43187 0.02872 0.97448 0.0
H814 H 0.42212 1.00329 0.95292 0.0
H815 H 0.4226 0.97481 1.00625 0.0
C816 C 0.44782 0.03297 0.05344 0.0
C817 C 0.45359 0.05057 0.05188 0.0
C818 C 0.45197 0.05709 0.03266 0.0
C819 C 0.44488 0.04649 1.01551 0.0
C820 C 0.43944 0.02932 1.01763 0.0
C821 C 0.44086 0.02258 0.03607 0.0
C822 C 0.43479 1.0038 0.03387 0.0
C823 C 0.44917 1.0001 0.03844 0.0
C824 C 0.41946 0.99326 0.04781 0.0
C825 C 0.42987 1.00107 1.01122 0.0
C826 C 0.43259 1.01599 1.00225 0.0
C827 C 0.42963 0.01696 0.98137 0.0
C828 C 0.42411 1.00245 0.96924 0.0
C829 C 0.42156 0.98707 0.97787 0.0
C830 C 0.4242 0.98631 0.99928 0.0
H831 H 0.43241 0.40131 0.14564 0.0
H832 H 0.48606 0.43272 0.15682 0.0
H833 H 0.48019 0.44658 0.18566 0.0
H834 H 0.42177 0.43335 0.15549 0.0
H835 H 0.40205 0.41981 0.16831 0.0
H836 H 0.41001 0.41115 0.14934 0.0
H837 H 0.40854 0.38923 0.17589 0.0
H838 H 0.40039 0.39772 0.19485 0.0
H839 H 0.41904 0.3964 0.20037 0.0
H840 H 0.4692 0.45868 0.21099 0.0
H841 H 0.45343 0.4672 0.23392 0.0
H842 H 0.40627 0.42779 0.20816 0.0
C843 C 0.44282 0.41084 0.15452 0.0
C844 C 0.45973 0.41591 0.14918 0.0
C845 C 0.47308 0.42865 0.1608 0.0
C846 C 0.46986 0.43661 0.17715 0.0
C847 C 0.45317 0.43171 0.18177 0.0
C848 C 0.43981 0.41903 0.17103 0.0
C849 C 0.42313 0.41677 0.17903 0.0
C850 C 0.41369 0.42049 0.16202 0.0
C851 C 0.41213 0.39897 0.18808 0.0
C852 C 0.42932 0.43019 0.19579 0.0
C853 C 0.44671 0.43864 0.19694 0.0
C854 C 0.45556 0.45195 0.21055 0.0
C855 C 0.44643 0.45663 0.22365 0.0
C856 C 0.42854 0.44798 0.22329 0.0
C857 C 0.41992 0.43465 0.20895 0.0
H858 H 0.0396 0.42475 0.306 0.0
H859 H 0.07713 0.47177 0.3337 0.0
H860 H 0.0591 0.46555 0.36453 0.0
H861 H 1.00317 0.42477 0.32327 0.0
H862 H 0.99107 0.40252 0.32918 0.0
H863 H 1.00728 0.40992 0.30978 0.0
H864 H 1.0218 0.39571 0.32895 0.0
H865 H 1.00554 0.3881 0.34838 0.0
H866 H 0.02739 0.40058 0.3557 0.0
H867 H 0.03716 0.45493 0.39167 0.0
H868 H 1.01225 0.441 0.41389 0.0
H869 H 0.98758 0.40048 0.36921 0.0
C870 C 0.04405 0.43354 0.31876 0.0
C871 C 0.05982 0.44869 0.31765 0.0
C872 C 0.06523 0.46001 0.33446 0.0
C873 C 0.05505 0.45659 0.35198 0.0
C874 C 0.03957 0.44162 0.35265 0.0
C875 C 0.0341 0.43015 0.33663 0.0
C876 C 1.01679 0.41509 0.34146 0.0
C877 C 1.00381 0.41296 0.32494 0.0
C878 C 1.01795 0.39891 0.34375 0.0
C879 C 1.01299 0.42038 0.36214 0.0
C880 C 0.02654 0.43557 0.36836 0.0
C881 C 0.02642 0.44309 0.3869 0.0
C882 C 1.01203 0.43509 0.39936 0.0
C883 C 0.99757 0.41978 0.39324 0.0
C884 C 0.99828 0.41218 0.37442 0.0
H885 H 0.633 0.0574 0.50622 0.0
H886 H 0.60966 0.02653 0.45219 0.0
H887 H 0.59815 1.00084 0.47352 0.0
H888 H 0.64349 0.02706 0.53152 0.0
H889 H 0.63896 0.0315 0.55704 0.0
H890 H 0.64655 0.0477 0.53748 0.0
H891 H 0.62057 0.05141 0.54334 0.0
H892 H 0.61284 0.03515 0.56279 0.0
H893 H 0.59968 0.03333 0.54113 0.0
H894 H 0.58748 0.97859 0.50033 0.0
H895 H 0.57877 0.96072 0.53138 0.0
H896 H 0.60906 1.00505 0.56902 0.0
C897 C 0.62572 0.0452 0.4989 0.0
C898 C 0.62213 0.04401 0.47749 0.0
C899 C 0.61241 0.0278 0.46854 0.0
C900 C 0.60585 1.0131 0.48052 0.0
C901 C 0.60918 1.01465 0.50156 0.0
C902 C 0.61898 0.03023 0.51076 0.0
C903 C 0.62008 0.0281 0.53391 0.0
C904 C 0.63836 0.03394 0.54037 0.0
C905 C 0.61286 0.03756 0.546 0.0
C906 C 0.609 1.00902 0.5362 0.0
C907 C 0.60303 1.00157 0.51726 0.0
C908 C 0.59227 0.98422 0.51525 0.0
C909 C 0.58747 0.97413 0.53303 0.0
C910 C 0.59333 0.98132 0.55277 0.0
C911 C 0.60431 0.99908 0.55424 0.0
H912 H 0.61731 0.59762 0.736 0.0
H913 H 0.64268 0.57832 0.69726 0.0
H914 H 0.63524 0.5891 0.66659 0.0
H915 H 0.58249 0.58629 0.70231 0.0
H916 H 0.58078 0.60478 0.7076 0.0
H917 H 0.58926 0.59681 0.72683 0.0
H918 H 0.61636 0.6261 0.7287 0.0
H919 H 0.60797 0.63413 0.70937 0.0
H920 H 0.62819 0.63559 0.7055 0.0
H921 H 0.62413 0.60056 0.63991 0.0
H922 H 0.60897 0.61101 0.61852 0.0
H923 H 0.58965 0.62242 0.67358 0.0
C924 C 0.62137 0.59569 0.72109 0.0
C925 C 0.63083 0.58721 0.71926 0.0
C926 C 0.63585 0.58508 0.69934 0.0
C927 C 0.63158 0.59109 0.68172 0.0
C928 C 0.62224 0.59927 0.6841 0.0
C929 C 0.61714 0.60158 0.70325 0.0
C930 C 0.60653 0.61015 0.70128 0.0
C931 C 0.58871 0.59883 0.71002 0.0
C932 C 0.61529 0.62753 0.71184 0.0
C933 C 0.60618 0.61196 0.67799 0.0
C934 C 0.61551 0.60573 0.6685 0.0
C935 C 0.61682 0.6055 0.64716 0.0
C936 C 0.60811 0.61143 0.63513 0.0
C937 C 0.59805 0.61747 0.6443 0.0
C938 C 0.59736 0.61804 0.6661 0.0
H939 H 0.99215 0.56779 0.82893 0.0
H940 H 0.99767 0.61366 0.80143 0.0
H941 H 1.02187 0.63075 0.82447 0.0
H942 H 1.00269 0.58441 0.88129 0.0
H943 H 1.01354 0.57296 0.88714 0.0
H944 H 0.99646 0.5645 0.86884 0.0
H945 H 1.01614 0.5627 0.84148 0.0
H946 H 0.03331 0.57127 0.85963 0.0
H947 H 0.03571 0.58143 0.83501 0.0
H948 H 0.0464 0.64285 0.85002 0.0
H949 H 0.06758 0.64882 0.87722 0.0
H950 H 0.04609 0.59491 0.88755 0.0
C951 C 0.99843 0.58144 0.82778 0.0
C952 C 0.993 0.58938 0.8133 0.0
C953 C 1.00146 0.60728 0.8125 0.0
C954 C 1.0153 0.6171 0.82545 0.0
C955 C 1.02048 0.60886 0.83932 0.0
C956 C 1.01215 0.59142 0.84073 0.0
C957 C 1.02004 0.58565 0.85711 0.0
C958 C 1.00743 0.57633 0.87463 0.0
C959 C 0.0267 0.57461 0.84774 0.0
C960 C 0.03435 0.60251 0.8644 0.0
C961 C 0.03439 0.61577 0.85402 0.0
C962 C 0.04642 0.63253 0.85825 0.0
C963 C 0.05853 0.6358 0.87366 0.0
C964 C 0.05859 0.62239 0.88476 0.0
C965 C 0.04634 0.60554 0.87974 0.0
loop_
_geom_bond_atom_site_label_1
_geom_bond_atom_site_label_2
_geom_bond_distance
_geom_bond_site_symmetry_2
_ccdc_geom_bond_type
C0 C1 1.264 . S
C0 C5 1.479 . S
C0 C10 1.465 . S
C1 C0 1.264 . S
C1 C3 1.339 . S
C1 H28 0.931 . S
C2 C3 1.395 . S
C2 C4 1.320 . S
C3 C1 1.339 . S
C3 C2 1.395 . S
C3 H29 0.929 . S
C4 C2 1.320 . S
C4 C5 1.405 . S
C4 H30 0.930 . S
C5 C0 1.479 . S
C5 C4 1.405 . S
C5 H31 0.931 . S
U6 O7 2.454 . S
U6 O8 2.458 . S
U6 C9 2.984 . S
U6 C10 2.847 . S
U6 C23 2.882 . S
U6 O24 2.441 . S
U6 O25 2.420 . S
U6 O26 2.455 . S
U6 O27 2.449 . S
O7 U6 2.454 . S
O7 C9 1.353 . S
O8 U6 2.458 . S
O8 C9 1.286 . S
C9 U6 2.984 . S
C9 O7 1.353 . S
C9 O8 1.286 . S
C9 C11 1.363 . S
C10 C0 1.465 . S
C10 U6 2.847 . S
C10 O24 1.249 . S
C10 O25 1.202 . S
C11 C9 1.363 . S
C11 C13 1.408 . S
C11 C16 1.342 . S
C12 C13 1.310 . S
C12 C15 1.461 . S
C12 H32 0.932 . S
C13 C11 1.408 . S
C13 C12 1.310 . S
C13 H33 0.930 . S
C14 C15 1.474 . S
C14 C16 1.285 . S
C14 H34 0.929 . S
C15 C12 1.461 . S
C15 C14 1.474 . S
C16 C11 1.342 . S
C16 C14 1.285 . S
C16 H35 0.930 . S
C17 C20 1.424 . S
C17 C22 1.245 . S
C17 C23 1.428 . S
C18 C21 1.260 . S
C18 C22 1.477 . S
C18 H36 0.932 . S
C19 C20 1.384 . S
C19 C21 1.479 . S
C19 H37 0.929 . S
C20 C17 1.424 . S
C20 C19 1.384 . S
C20 H38 0.928 . S
C21 C18 1.260 . S
C21 C19 1.479 . S
C22 C17 1.245 . S
C22 C18 1.477 . S
C22 H39 0.932 . S
C23 U6 2.882 . S
C23 C17 1.428 . S
C23 O26 1.301 . S
C23 O27 1.282 . S
O24 U6 2.441 . S
O24 C10 1.249 . S
O25 U6 2.420 . S
O25 C10 1.202 . S
O26 U6 2.455 . S
O26 C23 1.301 . S
O27 U6 2.449 . S
O27 C23 1.282 . S
H28 C1 0.931 . S
H29 C3 0.929 . S
H30 C4 0.930 . S
H31 C5 0.931 . S
H32 C12 0.932 . S
H33 C13 0.930 . S
H34 C14 0.929 . S
H35 C16 0.930 . S
H36 C18 0.932 . S
H37 C19 0.929 . S
H38 C20 0.928 . S
H39 C22 0.932 . S
C40 C41 1.264 . S
C40 C45 1.479 . S
C40 C50 1.465 . S
C41 C40 1.264 . S
C41 C43 1.339 . S
C41 H68 0.931 . S
C42 C43 1.395 . S
C42 C44 1.320 . S
C43 C41 1.339 . S
C43 C42 1.395 . S
C43 H69 0.929 . S
C44 C42 1.320 . S
C44 C45 1.405 . S
C44 H70 0.930 . S
C45 C40 1.479 . S
C45 C44 1.405 . S
C45 H71 0.931 . S
U46 O47 2.454 . S
U46 O48 2.458 . S
U46 C49 2.984 . S
U46 C50 2.847 . S
U46 C63 2.882 . S
U46 O64 2.441 . S
U46 O65 2.420 . S
U46 O66 2.455 . S
U46 O67 2.449 . S
O47 U46 2.454 . S
O47 C49 1.353 . S
O48 U46 2.458 . S
O48 C49 1.286 . S
C49 U46 2.984 . S
C49 O47 1.353 . S
C49 O48 1.286 . S
C49 C51 1.363 . S
C50 C40 1.465 . S
C50 U46 2.847 . S
C50 O64 1.249 . S
C50 O65 1.202 . S
C51 C49 1.363 . S
C51 C53 1.408 . S
C51 C56 1.342 . S
C52 C53 1.310 . S
C52 C55 1.461 . S
C52 H72 0.932 . S
C53 C51 1.408 . S
C53 C52 1.310 . S
C53 H73 0.930 . S
C54 C55 1.474 . S
C54 C56 1.285 . S
C54 H74 0.929 . S
C55 C52 1.461 . S
C55 C54 1.474 . S
C56 C51 1.342 . S
C56 C54 1.285 . S
C56 H75 0.930 . S
C57 C60 1.424 . S
C57 C62 1.245 . S
C57 C63 1.428 . S
C58 C61 1.260 . S
C58 C62 1.477 . S
C58 H76 0.932 . S
C59 C60 1.384 . S
C59 C61 1.479 . S
C59 H77 0.929 . S
C60 C57 1.424 . S
C60 C59 1.384 . S
C60 H78 0.928 . S
C61 C58 1.260 . S
C61 C59 1.479 . S
C62 C57 1.245 . S
C62 C58 1.477 . S
C62 H79 0.932 . S
C63 U46 2.882 . S
C63 C57 1.428 . S
C63 O66 1.301 . S
C63 O67 1.282 . S
O64 U46 2.441 . S
O64 C50 1.249 . S
O65 U46 2.420 . S
O65 C50 1.202 . S
O66 U46 2.455 . S
O66 C63 1.301 . S
O67 U46 2.449 . S
O67 C63 1.282 . S
H68 C41 0.931 . S
H69 C43 0.929 . S
H70 C44 0.930 . S
H71 C45 0.931 . S
H72 C52 0.932 . S
H73 C53 0.930 . S
H74 C54 0.929 . S
H75 C56 0.930 . S
H76 C58 0.932 . S
H77 C59 0.929 . S
H78 C60 0.928 . S
H79 C62 0.932 . S
C80 C81 1.264 . S
C80 C85 1.479 . S
C80 C90 1.465 . S
C81 C80 1.264 . S
C81 C83 1.339 . S
C81 H108 0.931 . S
C82 C83 1.395 . S
C82 C84 1.320 . S
C83 C81 1.339 . S
C83 C82 1.395 . S
C83 H109 0.929 . S
C84 C82 1.320 . S
C84 C85 1.405 . S
C84 H110 0.930 . S
C85 C80 1.479 . S
C85 C84 1.405 . S
C85 H111 0.931 . S
U86 O87 2.454 . S
U86 O88 2.458 . S
U86 C89 2.984 . S
U86 C90 2.847 . S
U86 C103 2.882 . S
U86 O104 2.441 . S
U86 O105 2.420 . S
U86 O106 2.455 . S
U86 O107 2.449 . S
O87 U86 2.454 . S
O87 C89 1.353 . S
O88 U86 2.458 . S
O88 C89 1.286 . S
C89 U86 2.984 . S
C89 O87 1.353 . S
C89 O88 1.286 . S
C89 C91 1.363 . S
C90 C80 1.465 . S
C90 U86 2.847 . S
C90 O104 1.249 . S
C90 O105 1.202 . S
C91 C89 1.363 . S
C91 C93 1.408 . S
C91 C96 1.342 . S
C92 C93 1.310 . S
C92 C95 1.461 . S
C92 H112 0.932 . S
C93 C91 1.408 . S
C93 C92 1.310 . S
C93 H113 0.930 . S
C94 C95 1.474 . S
C94 C96 1.285 . S
C94 H114 0.929 . S
C95 C92 1.461 . S
C95 C94 1.474 . S
C96 C91 1.342 . S
C96 C94 1.285 . S
C96 H115 0.930 . S
C97 C100 1.424 . S
C97 C102 1.245 . S
C97 C103 1.428 . S
C98 C101 1.260 . S
C98 C102 1.477 . S
C98 H116 0.932 . S
C99 C100 1.384 . S
C99 C101 1.479 . S
C99 H117 0.929 . S
C100 C97 1.424 . S
C100 C99 1.384 . S
C100 H118 0.928 . S
C101 C98 1.260 . S
C101 C99 1.479 . S
C102 C97 1.245 . S
C102 C98 1.477 . S
C102 H119 0.932 . S
C103 U86 2.882 . S
C103 C97 1.428 . S
C103 O106 1.301 . S
C103 O107 1.282 . S
O104 U86 2.441 . S
O104 C90 1.249 . S
O105 U86 2.420 . S
O105 C90 1.202 . S
O106 U86 2.455 . S
O106 C103 1.301 . S
O107 U86 2.449 . S
O107 C103 1.282 . S
H108 C81 0.931 . S
H109 C83 0.929 . S
H110 C84 0.930 . S
H111 C85 0.931 . S
H112 C92 0.932 . S
H113 C93 0.930 . S
H114 C94 0.929 . S
H115 C96 0.930 . S
H116 C98 0.932 . S
H117 C99 0.929 . S
H118 C100 0.928 . S
H119 C102 0.932 . S
C120 C121 1.264 . S
C120 C125 1.479 . S
C120 C130 1.465 . S
C121 C120 1.264 . S
C121 C123 1.339 . S
C121 H148 0.931 . S
C122 C123 1.395 . S
C122 C124 1.320 . S
C123 C121 1.339 . S
C123 C122 1.395 . S
C123 H149 0.929 . S
C124 C122 1.320 . S
C124 C125 1.405 . S
C124 H150 0.930 . S
C125 C120 1.479 . S
C125 C124 1.405 . S
C125 H151 0.931 . S
U126 O127 2.454 . S
U126 O128 2.458 . S
U126 C129 2.984 . S
U126 C130 2.847 . S
U126 C143 2.882 . S
U126 O144 2.441 . S
U126 O145 2.420 . S
U126 O146 2.455 . S
U126 O147 2.449 . S
O127 U126 2.454 . S
O127 C129 1.353 . S
O128 U126 2.458 . S
O128 C129 1.286 . S
C129 U126 2.984 . S
C129 O127 1.353 . S
C129 O128 1.286 . S
C129 C131 1.363 . S
C130 C120 1.465 . S
C130 U126 2.847 . S
C130 O144 1.249 . S
C130 O145 1.202 . S
C131 C129 1.363 . S
C131 C133 1.408 . S
C131 C136 1.342 . S
C132 C133 1.310 . S
C132 C135 1.461 . S
C132 H152 0.932 . S
C133 C131 1.408 . S
C133 C132 1.310 . S
C133 H153 0.930 . S
C134 C135 1.474 . S
C134 C136 1.285 . S
C134 H154 0.929 . S
C135 C132 1.461 . S
C135 C134 1.474 . S
C136 C131 1.342 . S
C136 C134 1.285 . S
C136 H155 0.930 . S
C137 C140 1.424 . S
C137 C142 1.245 . S
C137 C143 1.428 . S
C138 C141 1.260 . S
C138 C142 1.477 . S
C138 H156 0.932 . S
C139 C140 1.384 . S
C139 C141 1.479 . S
C139 H157 0.929 . S
C140 C137 1.424 . S
C140 C139 1.384 . S
C140 H158 0.928 . S
C141 C138 1.260 . S
C141 C139 1.479 . S
C142 C137 1.245 . S
C142 C138 1.477 . S
C142 H159 0.932 . S
C143 U126 2.882 . S
C143 C137 1.428 . S
C143 O146 1.301 . S
C143 O147 1.282 . S
O144 U126 2.441 . S
O144 C130 1.249 . S
O145 U126 2.420 . S
O145 C130 1.202 . S
O146 U126 2.455 . S
O146 C143 1.301 . S
O147 U126 2.449 . S
O147 C143 1.282 . S
H148 C121 0.931 . S
H149 C123 0.929 . S
H150 C124 0.930 . S
H151 C125 0.931 . S
H152 C132 0.932 . S
H153 C133 0.930 . S
H154 C134 0.929 . S
H155 C136 0.930 . S
H156 C138 0.932 . S
H157 C139 0.929 . S
H158 C140 0.928 . S
H159 C142 0.932 . S
C160 C161 1.264 . S
C160 C165 1.479 . S
C160 C170 1.465 . S
C161 C160 1.264 . S
C161 C163 1.339 . S
C161 H188 0.931 . S
C162 C163 1.395 . S
C162 C164 1.320 . S
C163 C161 1.339 . S
C163 C162 1.395 . S
C163 H189 0.929 . S
C164 C162 1.320 . S
C164 C165 1.405 . S
C164 H190 0.930 . S
C165 C160 1.479 . S
C165 C164 1.405 . S
C165 H191 0.931 . S
U166 O167 2.454 . S
U166 O168 2.458 . S
U166 C169 2.984 . S
U166 C170 2.847 . S
U166 C183 2.882 . S
U166 O184 2.441 . S
U166 O185 2.420 . S
U166 O186 2.455 . S
U166 O187 2.449 . S
O167 U166 2.454 . S
O167 C169 1.353 . S
O168 U166 2.458 . S
O168 C169 1.286 . S
C169 U166 2.984 . S
C169 O167 1.353 . S
C169 O168 1.286 . S
C169 C171 1.363 . S
C170 C160 1.465 . S
C170 U166 2.847 . S
C170 O184 1.249 . S
C170 O185 1.202 . S
C171 C169 1.363 . S
C171 C173 1.408 . S
C171 C176 1.342 . S
C172 C173 1.310 . S
C172 C175 1.461 . S
C172 H192 0.932 . S
C173 C171 1.408 . S
C173 C172 1.310 . S
C173 H193 0.930 . S
C174 C175 1.474 . S
C174 C176 1.285 . S
C174 H194 0.929 . S
C175 C172 1.461 . S
C175 C174 1.474 . S
C176 C171 1.342 . S
C176 C174 1.285 . S
C176 H195 0.930 . S
C177 C180 1.424 . S
C177 C182 1.245 . S
C177 C183 1.428 . S
C178 C181 1.260 . S
C178 C182 1.477 . S
C178 H196 0.932 . S
C179 C180 1.384 . S
C179 C181 1.479 . S
C179 H197 0.929 . S
C180 C177 1.424 . S
C180 C179 1.384 . S
C180 H198 0.928 . S
C181 C178 1.260 . S
C181 C179 1.479 . S
C182 C177 1.245 . S
C182 C178 1.477 . S
C182 H199 0.932 . S
C183 U166 2.882 . S
C183 C177 1.428 . S
C183 O186 1.301 . S
C183 O187 1.282 . S
O184 U166 2.441 . S
O184 C170 1.249 . S
O185 U166 2.420 . S
O185 C170 1.202 . S
O186 U166 2.455 . S
O186 C183 1.301 . S
O187 U166 2.449 . S
O187 C183 1.282 . S
H188 C161 0.931 . S
H189 C163 0.929 . S
H190 C164 0.930 . S
H191 C165 0.931 . S
H192 C172 0.932 . S
H193 C173 0.930 . S
H194 C174 0.929 . S
H195 C176 0.930 . S
H196 C178 0.932 . S
H197 C179 0.929 . S
H198 C180 0.928 . S
H199 C182 0.932 . S
C200 C201 1.264 . S
C200 C205 1.479 . S
C200 C210 1.465 . S
C201 C200 1.264 . S
C201 C203 1.339 . S
C201 H228 0.931 . S
C202 C203 1.395 . S
C202 C204 1.320 . S
C203 C201 1.339 . S
C203 C202 1.395 . S
C203 H229 0.929 . S
C204 C202 1.320 . S
C204 C205 1.405 . S
C204 H230 0.930 . S
C205 C200 1.479 . S
C205 C204 1.405 . S
C205 H231 0.931 . S
U206 O207 2.454 . S
U206 O208 2.458 . S
U206 C209 2.984 . S
U206 C210 2.847 . S
U206 C223 2.882 . S
U206 O224 2.441 . S
U206 O225 2.420 . S
U206 O226 2.455 . S
U206 O227 2.449 . S
O207 U206 2.454 . S
O207 C209 1.353 . S
O208 U206 2.458 . S
O208 C209 1.286 . S
C209 U206 2.984 . S
C209 O207 1.353 . S
C209 O208 1.286 . S
C209 C211 1.363 . S
C210 C200 1.465 . S
C210 U206 2.847 . S
C210 O224 1.249 . S
C210 O225 1.202 . S
C211 C209 1.363 . S
C211 C213 1.408 . S
C211 C216 1.342 . S
C212 C213 1.310 . S
C212 C215 1.461 . S
C212 H232 0.932 . S
C213 C211 1.408 . S
C213 C212 1.310 . S
C213 H233 0.930 . S
C214 C215 1.474 . S
C214 C216 1.285 . S
C214 H234 0.929 . S
C215 C212 1.461 . S
C215 C214 1.474 . S
C216 C211 1.342 . S
C216 C214 1.285 . S
C216 H235 0.930 . S
C217 C220 1.424 . S
C217 C222 1.245 . S
C217 C223 1.428 1_554 S
C218 C221 1.260 . S
C218 C222 1.477 . S
C218 H236 0.932 . S
C219 C220 1.384 . S
C219 C221 1.479 . S
C219 H237 0.929 . S
C220 C217 1.424 . S
C220 C219 1.384 . S
C220 H238 0.928 . S
C221 C218 1.260 . S
C221 C219 1.479 . S
C222 C217 1.245 . S
C222 C218 1.477 . S
C222 H239 0.932 1_554 S
C223 U206 2.882 . S
C223 C217 1.428 1_556 S
C223 O226 1.301 . S
C223 O227 1.282 . S
O224 U206 2.441 . S
O224 C210 1.249 . S
O225 U206 2.420 . S
O225 C210 1.202 . S
O226 U206 2.455 . S
O226 C223 1.301 . S
O227 U206 2.449 . S
O227 C223 1.282 . S
H228 C201 0.931 . S
H229 C203 0.929 . S
H230 C204 0.930 . S
H231 C205 0.931 . S
H232 C212 0.932 . S
H233 C213 0.930 . S
H234 C214 0.929 . S
H235 C216 0.930 . S
H236 C218 0.932 . S
H237 C219 0.929 . S
H238 C220 0.928 . S
H239 C222 0.932 1_556 S
C240 C241 1.264 . S
C240 C245 1.479 . S
C240 C250 1.465 . S
C241 C240 1.264 . S
C241 C243 1.339 . S
C241 H268 0.931 . S
C242 C243 1.395 . S
C242 C244 1.320 . S
C243 C241 1.339 . S
C243 C242 1.395 . S
C243 H269 0.929 . S
C244 C242 1.320 . S
C244 C245 1.405 . S
C244 H270 0.930 . S
C245 C240 1.479 . S
C245 C244 1.405 . S
C245 H271 0.931 . S
U246 O247 2.454 . S
U246 O248 2.458 . S
U246 C249 2.984 . S
U246 C250 2.847 . S
U246 C263 2.882 . S
U246 O264 2.441 . S
U246 O265 2.420 . S
U246 O266 2.455 . S
U246 O267 2.449 . S
O247 U246 2.454 . S
O247 C249 1.353 . S
O248 U246 2.458 . S
O248 C249 1.286 . S
C249 U246 2.984 . S
C249 O247 1.353 . S
C249 O248 1.286 . S
C249 C251 1.363 . S
C250 C240 1.465 . S
C250 U246 2.847 . S
C250 O264 1.249 . S
C250 O265 1.202 . S
C251 C249 1.363 . S
C251 C253 1.408 . S
C251 C256 1.342 . S
C252 C253 1.310 . S
C252 C255 1.461 . S
C252 H272 0.932 . S
C253 C251 1.408 . S
C253 C252 1.310 . S
C253 H273 0.930 . S
C254 C255 1.474 . S
C254 C256 1.285 . S
C254 H274 0.929 . S
C255 C252 1.461 . S
C255 C254 1.474 . S
C256 C251 1.342 . S
C256 C254 1.285 . S
C256 H275 0.930 . S
C257 C260 1.424 . S
C257 C262 1.245 . S
C257 C263 1.428 . S
C258 C261 1.260 . S
C258 C262 1.477 . S
C258 H276 0.932 . S
C259 C260 1.384 . S
C259 C261 1.479 . S
C259 H277 0.929 . S
C260 C257 1.424 . S
C260 C259 1.384 . S
C260 H278 0.928 . S
C261 C258 1.260 . S
C261 C259 1.479 . S
C262 C257 1.245 . S
C262 C258 1.477 . S
C262 H279 0.932 . S
C263 U246 2.882 . S
C263 C257 1.428 . S
C263 O266 1.301 . S
C263 O267 1.282 . S
O264 U246 2.441 . S
O264 C250 1.249 . S
O265 U246 2.420 . S
O265 C250 1.202 . S
O266 U246 2.455 . S
O266 C263 1.301 . S
O267 U246 2.449 . S
O267 C263 1.282 . S
H268 C241 0.931 . S
H269 C243 0.929 . S
H270 C244 0.930 . S
H271 C245 0.931 . S
H272 C252 0.932 . S
H273 C253 0.930 . S
H274 C254 0.929 . S
H275 C256 0.930 . S
H276 C258 0.932 . S
H277 C259 0.929 . S
H278 C260 0.928 . S
H279 C262 0.932 . S
C280 C281 1.264 . S
C280 C285 1.479 . S
C280 C290 1.465 . S
C281 C280 1.264 . S
C281 C283 1.339 . S
C281 H308 0.931 . S
C282 C283 1.395 . S
C282 C284 1.320 . S
C283 C281 1.339 . S
C283 C282 1.395 . S
C283 H309 0.929 . S
C284 C282 1.320 . S
C284 C285 1.405 . S
C284 H310 0.930 . S
C285 C280 1.479 . S
C285 C284 1.405 . S
C285 H311 0.931 . S
U286 O287 2.454 . S
U286 O288 2.458 . S
U286 C289 2.984 . S
U286 C290 2.847 . S
U286 C303 2.882 . S
U286 O304 2.441 . S
U286 O305 2.420 . S
U286 O306 2.455 . S
U286 O307 2.449 . S
O287 U286 2.454 . S
O287 C289 1.353 . S
O288 U286 2.458 . S
O288 C289 1.286 . S
C289 U286 2.984 . S
C289 O287 1.353 . S
C289 O288 1.286 . S
C289 C291 1.363 . S
C290 C280 1.465 . S
C290 U286 2.847 . S
C290 O304 1.249 . S
C290 O305 1.202 . S
C291 C289 1.363 . S
C291 C293 1.408 . S
C291 C296 1.342 . S
C292 C293 1.310 . S
C292 C295 1.461 . S
C292 H312 0.932 . S
C293 C291 1.408 . S
C293 C292 1.310 . S
C293 H313 0.930 . S
C294 C295 1.474 . S
C294 C296 1.285 . S
C294 H314 0.929 . S
C295 C292 1.461 . S
C295 C294 1.474 . S
C296 C291 1.342 . S
C296 C294 1.285 . S
C296 H315 0.930 . S
C297 C300 1.424 . S
C297 C302 1.245 . S
C297 C303 1.428 . S
C298 C301 1.260 . S
C298 C302 1.477 . S
C298 H316 0.932 . S
C299 C300 1.384 . S
C299 C301 1.479 . S
C299 H317 0.929 . S
C300 C297 1.424 . S
C300 C299 1.384 . S
C300 H318 0.928 . S
C301 C298 1.260 . S
C301 C299 1.479 . S
C302 C297 1.245 . S
C302 C298 1.477 . S
C302 H319 0.932 . S
C303 U286 2.882 . S
C303 C297 1.428 . S
C303 O306 1.301 . S
C303 O307 1.282 . S
O304 U286 2.441 . S
O304 C290 1.249 . S
O305 U286 2.420 . S
O305 C290 1.202 . S
O306 U286 2.455 . S
O306 C303 1.301 . S
O307 U286 2.449 . S
O307 C303 1.282 . S
H308 C281 0.931 . S
H309 C283 0.929 . S
H310 C284 0.930 . S
H311 C285 0.931 . S
H312 C292 0.932 . S
H313 C293 0.930 . S
H314 C294 0.929 . S
H315 C296 0.930 . S
H316 C298 0.932 . S
H317 C299 0.929 . S
H318 C300 0.928 . S
H319 C302 0.932 . S
C320 C321 1.264 . S
C320 C325 1.479 . S
C320 C330 1.465 . S
C321 C320 1.264 . S
C321 C323 1.339 . S
C321 H348 0.931 . S
C322 C323 1.395 . S
C322 C324 1.320 . S
C323 C321 1.339 . S
C323 C322 1.395 . S
C323 H349 0.929 . S
C324 C322 1.320 . S
C324 C325 1.405 . S
C324 H350 0.930 . S
C325 C320 1.479 . S
C325 C324 1.405 . S
C325 H351 0.931 . S
U326 O327 2.454 . S
U326 O328 2.458 . S
U326 C329 2.984 . S
U326 C330 2.847 . S
U326 C343 2.882 . S
U326 O344 2.441 . S
U326 O345 2.420 . S
U326 O346 2.455 . S
U326 O347 2.449 . S
O327 U326 2.454 . S
O327 C329 1.353 . S
O328 U326 2.458 . S
O328 C329 1.286 . S
C329 U326 2.984 . S
C329 O327 1.353 . S
C329 O328 1.286 . S
C329 C331 1.363 . S
C330 C320 1.465 . S
C330 U326 2.847 . S
C330 O344 1.249 . S
C330 O345 1.202 . S
C331 C329 1.363 . S
C331 C333 1.408 . S
C331 C336 1.342 . S
C332 C333 1.310 . S
C332 C335 1.461 . S
C332 H352 0.932 . S
C333 C331 1.408 . S
C333 C332 1.310 . S
C333 H353 0.930 . S
C334 C335 1.474 . S
C334 C336 1.285 . S
C334 H354 0.929 . S
C335 C332 1.461 . S
C335 C334 1.474 . S
C336 C331 1.342 . S
C336 C334 1.285 . S
C336 H355 0.930 . S
C337 C340 1.424 . S
C337 C342 1.245 . S
C337 C343 1.428 1_556 S
C338 C341 1.260 . S
C338 C342 1.477 . S
C338 H356 0.932 . S
C339 C340 1.384 . S
C339 C341 1.479 . S
C339 H357 0.929 . S
C340 C337 1.424 . S
C340 C339 1.384 . S
C340 H358 0.928 . S
C341 C338 1.260 . S
C341 C339 1.479 . S
C342 C337 1.245 . S
C342 C338 1.477 . S
C342 H359 0.932 1_556 S
C343 U326 2.882 . S
C343 C337 1.428 1_554 S
C343 O346 1.301 . S
C343 O347 1.282 . S
O344 U326 2.441 . S
O344 C330 1.249 . S
O345 U326 2.420 . S
O345 C330 1.202 . S
O346 U326 2.455 . S
O346 C343 1.301 . S
O347 U326 2.449 . S
O347 C343 1.282 . S
H348 C321 0.931 . S
H349 C323 0.929 . S
H350 C324 0.930 . S
H351 C325 0.931 . S
H352 C332 0.932 . S
H353 C333 0.930 . S
H354 C334 0.929 . S
H355 C336 0.930 . S
H356 C338 0.932 . S
H357 C339 0.929 . S
H358 C340 0.928 . S
H359 C342 0.932 1_554 S
C360 C361 1.264 . S
C360 C365 1.479 . S
C360 C370 1.465 . S
C361 C360 1.264 . S
C361 C363 1.339 . S
C361 H388 0.931 . S
C362 C363 1.395 . S
C362 C364 1.320 . S
C363 C361 1.339 . S
C363 C362 1.395 . S
C363 H389 0.929 . S
C364 C362 1.320 . S
C364 C365 1.405 . S
C364 H390 0.930 . S
C365 C360 1.479 . S
C365 C364 1.405 . S
C365 H391 0.931 . S
U366 O367 2.454 . S
U366 O368 2.458 . S
U366 C369 2.984 . S
U366 C370 2.847 . S
U366 C383 2.882 . S
U366 O384 2.441 . S
U366 O385 2.420 . S
U366 O386 2.455 . S
U366 O387 2.449 . S
O367 U366 2.454 . S
O367 C369 1.353 . S
O368 U366 2.458 . S
O368 C369 1.286 . S
C369 U366 2.984 . S
C369 O367 1.353 . S
C369 O368 1.286 . S
C369 C371 1.363 . S
C370 C360 1.465 . S
C370 U366 2.847 . S
C370 O384 1.249 . S
C370 O385 1.202 . S
C371 C369 1.363 . S
C371 C373 1.408 . S
C371 C376 1.342 . S
C372 C373 1.310 . S
C372 C375 1.461 . S
C372 H392 0.932 . S
C373 C371 1.408 . S
C373 C372 1.310 . S
C373 H393 0.930 . S
C374 C375 1.474 . S
C374 C376 1.285 . S
C374 H394 0.929 . S
C375 C372 1.461 . S
C375 C374 1.474 . S
C376 C371 1.342 . S
C376 C374 1.285 . S
C376 H395 0.930 . S
C377 C380 1.424 . S
C377 C382 1.245 . S
C377 C383 1.428 . S
C378 C381 1.260 . S
C378 C382 1.477 . S
C378 H396 0.932 . S
C379 C380 1.384 . S
C379 C381 1.479 . S
C379 H397 0.929 . S
C380 C377 1.424 . S
C380 C379 1.384 . S
C380 H398 0.928 . S
C381 C378 1.260 . S
C381 C379 1.479 . S
C382 C377 1.245 . S
C382 C378 1.477 . S
C382 H399 0.932 . S
C383 U366 2.882 . S
C383 C377 1.428 . S
C383 O386 1.301 . S
C383 O387 1.282 . S
O384 U366 2.441 . S
O384 C370 1.249 . S
O385 U366 2.420 . S
O385 C370 1.202 . S
O386 U366 2.455 . S
O386 C383 1.301 . S
O387 U366 2.449 . S
O387 C383 1.282 . S
H388 C361 0.931 . S
H389 C363 0.929 . S
H390 C364 0.930 . S
H391 C365 0.931 . S
H392 C372 0.932 . S
H393 C373 0.930 . S
H394 C374 0.929 . S
H395 C376 0.930 . S
H396 C378 0.932 . S
H397 C379 0.929 . S
H398 C380 0.928 . S
H399 C382 0.932 . S
C400 C401 1.264 . S
C400 C405 1.479 . S
C400 C410 1.465 . S
C401 C400 1.264 . S
C401 C403 1.339 . S
C401 H428 0.931 . S
C402 C403 1.395 . S
C402 C404 1.320 . S
C403 C401 1.339 . S
C403 C402 1.395 . S
C403 H429 0.929 . S
C404 C402 1.320 . S
C404 C405 1.405 . S
C404 H430 0.930 . S
C405 C400 1.479 . S
C405 C404 1.405 . S
C405 H431 0.931 . S
U406 O407 2.454 . S
U406 O408 2.458 . S
U406 C409 2.984 . S
U406 C410 2.847 . S
U406 C423 2.882 . S
U406 O424 2.441 . S
U406 O425 2.420 . S
U406 O426 2.455 . S
U406 O427 2.449 . S
O407 U406 2.454 . S
O407 C409 1.353 . S
O408 U406 2.458 . S
O408 C409 1.286 . S
C409 U406 2.984 . S
C409 O407 1.353 . S
C409 O408 1.286 . S
C409 C411 1.363 . S
C410 C400 1.465 . S
C410 U406 2.847 . S
C410 O424 1.249 . S
C410 O425 1.202 . S
C411 C409 1.363 . S
C411 C413 1.408 . S
C411 C416 1.342 . S
C412 C413 1.310 . S
C412 C415 1.461 . S
C412 H432 0.932 . S
C413 C411 1.408 . S
C413 C412 1.310 . S
C413 H433 0.930 . S
C414 C415 1.474 . S
C414 C416 1.285 . S
C414 H434 0.929 . S
C415 C412 1.461 . S
C415 C414 1.474 . S
C416 C411 1.342 . S
C416 C414 1.285 . S
C416 H435 0.930 . S
C417 C420 1.424 . S
C417 C422 1.245 . S
C417 C423 1.428 . S
C418 C421 1.260 . S
C418 C422 1.477 . S
C418 H436 0.932 . S
C419 C420 1.384 . S
C419 C421 1.479 . S
C419 H437 0.929 . S
C420 C417 1.424 . S
C420 C419 1.384 . S
C420 H438 0.928 . S
C421 C418 1.260 . S
C421 C419 1.479 . S
C422 C417 1.245 . S
C422 C418 1.477 . S
C422 H439 0.932 . S
C423 U406 2.882 . S
C423 C417 1.428 . S
C423 O426 1.301 . S
C423 O427 1.282 . S
O424 U406 2.441 . S
O424 C410 1.249 . S
O425 U406 2.420 . S
O425 C410 1.202 . S
O426 U406 2.455 . S
O426 C423 1.301 . S
O427 U406 2.449 . S
O427 C423 1.282 . S
H428 C401 0.931 . S
H429 C403 0.929 . S
H430 C404 0.930 . S
H431 C405 0.931 . S
H432 C412 0.932 . S
H433 C413 0.930 . S
H434 C414 0.929 . S
H435 C416 0.930 . S
H436 C418 0.932 . S
H437 C419 0.929 . S
H438 C420 0.928 . S
H439 C422 0.932 . S
C440 C441 1.264 . S
C440 C445 1.479 . S
C440 C450 1.465 . S
C441 C440 1.264 . S
C441 C443 1.339 . S
C441 H468 0.931 . S
C442 C443 1.395 . S
C442 C444 1.320 . S
C443 C441 1.339 . S
C443 C442 1.395 . S
C443 H469 0.929 . S
C444 C442 1.320 . S
C444 C445 1.405 . S
C444 H470 0.930 . S
C445 C440 1.479 . S
C445 C444 1.405 . S
C445 H471 0.931 . S
U446 O447 2.454 . S
U446 O448 2.458 . S
U446 C449 2.984 . S
U446 C450 2.847 . S
U446 C463 2.882 . S
U446 O464 2.441 . S
U446 O465 2.420 . S
U446 O466 2.455 . S
U446 O467 2.449 . S
O447 U446 2.454 . S
O447 C449 1.353 . S
O448 U446 2.458 . S
O448 C449 1.286 . S
C449 U446 2.984 . S
C449 O447 1.353 . S
C449 O448 1.286 . S
C449 C451 1.363 . S
C450 C440 1.465 . S
C450 U446 2.847 . S
C450 O464 1.249 . S
C450 O465 1.202 . S
C451 C449 1.363 . S
C451 C453 1.408 . S
C451 C456 1.342 . S
C452 C453 1.310 . S
C452 C455 1.461 . S
C452 H472 0.932 . S
C453 C451 1.408 . S
C453 C452 1.310 . S
C453 H473 0.930 . S
C454 C455 1.474 . S
C454 C456 1.285 . S
C454 H474 0.929 . S
C455 C452 1.461 . S
C455 C454 1.474 . S
C456 C451 1.342 . S
C456 C454 1.285 . S
C456 H475 0.930 . S
C457 C460 1.424 . S
C457 C462 1.245 . S
C457 C463 1.428 . S
C458 C461 1.260 . S
C458 C462 1.477 . S
C458 H476 0.932 . S
C459 C460 1.384 . S
C459 C461 1.479 . S
C459 H477 0.929 . S
C460 C457 1.424 . S
C460 C459 1.384 . S
C460 H478 0.928 . S
C461 C458 1.260 . S
C461 C459 1.479 . S
C462 C457 1.245 . S
C462 C458 1.477 . S
C462 H479 0.932 . S
C463 U446 2.882 . S
C463 C457 1.428 . S
C463 O466 1.301 . S
C463 O467 1.282 . S
O464 U446 2.441 . S
O464 C450 1.249 . S
O465 U446 2.420 . S
O465 C450 1.202 . S
O466 U446 2.455 . S
O466 C463 1.301 . S
O467 U446 2.449 . S
O467 C463 1.282 . S
H468 C441 0.931 . S
H469 C443 0.929 . S
H470 C444 0.930 . S
H471 C445 0.931 . S
H472 C452 0.932 . S
H473 C453 0.930 . S
H474 C454 0.929 . S
H475 C456 0.930 . S
H476 C458 0.932 . S
H477 C459 0.929 . S
H478 C460 0.928 . S
H479 C462 0.932 . S
H480 C492 0.930 . S
H481 C494 0.930 . S
H482 C495 0.930 . S
H483 C499 0.959 . S
H484 C499 0.959 . S
H485 C499 0.961 . S
H486 C500 0.960 . S
H487 C500 0.961 . S
H488 C500 0.959 . S
H489 C503 0.929 . S
H490 C504 0.931 . S
H491 C506 0.930 . S
C492 H480 0.930 . S
C492 C493 1.399 . S
C492 C497 1.399 . S
C493 C492 1.399 . S
C493 C494 1.376 . S
C494 H481 0.930 . S
C494 C493 1.376 . S
C494 C495 1.388 . S
C495 H482 0.930 . S
C495 C494 1.388 . S
C495 C496 1.390 . S
C496 C495 1.390 . S
C496 C497 1.394 . S
C496 C502 1.465 . S
C497 C492 1.399 . S
C497 C496 1.394 . S
C497 C498 1.516 . S
C498 C497 1.516 . S
C498 C499 1.502 . S
C498 C500 1.561 . S
C498 C501 1.526 . S
C499 H483 0.959 . S
C499 H484 0.959 . S
C499 H485 0.961 . S
C499 C498 1.502 . S
C500 H486 0.960 . S
C500 H487 0.961 . S
C500 H488 0.959 . S
C500 C498 1.561 . S
C501 C498 1.526 . S
C501 C502 1.396 . S
C501 C506 1.390 . S
C502 C496 1.465 . S
C502 C501 1.396 . S
C502 C503 1.399 . S
C503 H489 0.929 . S
C503 C502 1.399 . S
C503 C504 1.385 . S
C504 H490 0.931 . S
C504 C503 1.385 . S
C504 C505 1.389 . S
C505 C504 1.389 . S
C505 C506 1.387 . S
C506 H491 0.930 . S
C506 C501 1.390 . S
C506 C505 1.387 . S
H507 C519 0.930 . S
H508 C521 0.930 . S
H509 C522 0.930 . S
H510 C526 0.959 . S
H511 C526 0.959 . S
H512 C526 0.961 . S
H513 C527 0.960 . S
H514 C527 0.961 . S
H515 C527 0.959 . S
H516 C530 0.929 . S
H517 C531 0.931 . S
H518 C533 0.930 . S
C519 H507 0.930 . S
C519 C520 1.399 . S
C519 C524 1.399 . S
C520 C519 1.399 . S
C520 C521 1.376 . S
C521 H508 0.930 . S
C521 C520 1.376 . S
C521 C522 1.388 . S
C522 H509 0.930 . S
C522 C521 1.388 . S
C522 C523 1.390 . S
C523 C522 1.390 . S
C523 C524 1.394 . S
C523 C529 1.465 . S
C524 C519 1.399 . S
C524 C523 1.394 . S
C524 C525 1.516 . S
C525 C524 1.516 . S
C525 C526 1.502 . S
C525 C527 1.561 . S
C525 C528 1.526 . S
C526 H510 0.959 . S
C526 H511 0.959 . S
C526 H512 0.961 . S
C526 C525 1.502 . S
C527 H513 0.960 . S
C527 H514 0.961 . S
C527 H515 0.959 . S
C527 C525 1.561 . S
C528 C525 1.526 . S
C528 C529 1.396 . S
C528 C533 1.390 . S
C529 C523 1.465 . S
C529 C528 1.396 . S
C529 C530 1.399 . S
C530 H516 0.929 . S
C530 C529 1.399 . S
C530 C531 1.385 . S
C531 H517 0.931 . S
C531 C530 1.385 . S
C531 C532 1.389 . S
C532 C531 1.389 . S
C532 C533 1.387 . S
C533 H518 0.930 . S
C533 C528 1.390 . S
C533 C532 1.387 . S
H534 C546 0.930 . S
H535 C548 0.930 . S
H536 C549 0.930 . S
H537 C553 0.959 . S
H538 C553 0.959 . S
H539 C553 0.961 . S
H540 C554 0.960 . S
H541 C554 0.961 . S
H542 C554 0.959 . S
H543 C557 0.929 . S
H544 C558 0.931 . S
H545 C560 0.930 . S
C546 H534 0.930 . S
C546 C547 1.399 . S
C546 C551 1.399 . S
C547 C546 1.399 . S
C547 C548 1.376 . S
C548 H535 0.930 . S
C548 C547 1.376 . S
C548 C549 1.388 . S
C549 H536 0.930 . S
C549 C548 1.388 . S
C549 C550 1.390 . S
C550 C549 1.390 . S
C550 C551 1.394 . S
C550 C556 1.465 . S
C551 C546 1.399 . S
C551 C550 1.394 . S
C551 C552 1.516 . S
C552 C551 1.516 . S
C552 C553 1.502 . S
C552 C554 1.561 . S
C552 C555 1.526 . S
C553 H537 0.959 . S
C553 H538 0.959 . S
C553 H539 0.961 . S
C553 C552 1.502 . S
C554 H540 0.960 . S
C554 H541 0.961 . S
C554 H542 0.959 . S
C554 C552 1.561 . S
C555 C552 1.526 . S
C555 C556 1.396 . S
C555 C560 1.390 . S
C556 C550 1.465 . S
C556 C555 1.396 . S
C556 C557 1.399 . S
C557 H543 0.929 . S
C557 C556 1.399 . S
C557 C558 1.385 . S
C558 H544 0.931 . S
C558 C557 1.385 . S
C558 C559 1.389 . S
C559 C558 1.389 . S
C559 C560 1.387 . S
C560 H545 0.930 . S
C560 C555 1.390 . S
C560 C559 1.387 . S
H561 C573 0.930 . S
H562 C575 0.930 . S
H563 C576 0.930 . S
H564 C580 0.959 . S
H565 C580 0.959 . S
H566 C580 0.961 . S
H567 C581 0.960 . S
H568 C581 0.961 . S
H569 C581 0.959 . S
H570 C584 0.929 . S
H571 C585 0.931 . S
H572 C587 0.930 . S
C573 H561 0.930 . S
C573 C574 1.399 . S
C573 C578 1.399 . S
C574 C573 1.399 . S
C574 C575 1.376 . S
C575 H562 0.930 . S
C575 C574 1.376 . S
C575 C576 1.388 . S
C576 H563 0.930 . S
C576 C575 1.388 . S
C576 C577 1.390 . S
C577 C576 1.390 . S
C577 C578 1.394 . S
C577 C583 1.465 . S
C578 C573 1.399 . S
C578 C577 1.394 . S
C578 C579 1.516 . S
C579 C578 1.516 . S
C579 C580 1.502 . S
C579 C581 1.561 . S
C579 C582 1.526 . S
C580 H564 0.959 . S
C580 H565 0.959 . S
C580 H566 0.961 . S
C580 C579 1.502 . S
C581 H567 0.960 . S
C581 H568 0.961 . S
C581 H569 0.959 . S
C581 C579 1.561 . S
C582 C579 1.526 . S
C582 C583 1.396 . S
C582 C587 1.390 . S
C583 C577 1.465 . S
C583 C582 1.396 . S
C583 C584 1.399 . S
C584 H570 0.929 . S
C584 C583 1.399 . S
C584 C585 1.385 . S
C585 H571 0.931 . S
C585 C584 1.385 . S
C585 C586 1.389 . S
C586 C585 1.389 . S
C586 C587 1.387 . S
C587 H572 0.930 . S
C587 C582 1.390 . S
C587 C586 1.387 . S
H588 C600 0.930 . S
H589 C602 0.930 . S
H590 C603 0.930 . S
H591 C607 0.959 . S
H592 C607 0.959 . S
H593 C607 0.961 . S
H594 C608 0.960 . S
H595 C608 0.961 . S
H596 C608 0.959 . S
H597 C611 0.929 . S
H598 C612 0.931 . S
H599 C614 0.930 . S
C600 H588 0.930 . S
C600 C601 1.399 . S
C600 C605 1.399 . S
C601 C600 1.399 . S
C601 C602 1.376 . S
C602 H589 0.930 . S
C602 C601 1.376 . S
C602 C603 1.388 . S
C603 H590 0.930 . S
C603 C602 1.388 . S
C603 C604 1.390 . S
C604 C603 1.390 . S
C604 C605 1.394 . S
C604 C610 1.465 . S
C605 C600 1.399 . S
C605 C604 1.394 . S
C605 C606 1.516 . S
C606 C605 1.516 . S
C606 C607 1.502 . S
C606 C608 1.561 . S
C606 C609 1.526 . S
C607 H591 0.959 . S
C607 H592 0.959 . S
C607 H593 0.961 . S
C607 C606 1.502 . S
C608 H594 0.960 . S
C608 H595 0.961 . S
C608 H596 0.959 . S
C608 C606 1.561 . S
C609 C606 1.526 . S
C609 C610 1.396 . S
C609 C614 1.390 . S
C610 C604 1.465 . S
C610 C609 1.396 . S
C610 C611 1.399 . S
C611 H597 0.929 . S
C611 C610 1.399 . S
C611 C612 1.385 . S
C612 H598 0.931 . S
C612 C611 1.385 . S
C612 C613 1.389 . S
C613 C612 1.389 . S
C613 C614 1.387 . S
C614 H599 0.930 . S
C614 C609 1.390 . S
C614 C613 1.387 . S
H615 C627 0.930 . S
H616 C629 0.930 . S
H617 C630 0.930 . S
H618 C634 0.959 . S
H619 C634 0.959 . S
H620 C634 0.961 . S
H621 C635 0.960 . S
H622 C635 0.961 . S
H623 C635 0.959 . S
H624 C638 0.929 . S
H625 C639 0.931 . S
H626 C641 0.930 . S
C627 H615 0.930 . S
C627 C628 1.399 . S
C627 C632 1.399 . S
C628 C627 1.399 . S
C628 C629 1.376 . S
C629 H616 0.930 . S
C629 C628 1.376 . S
C629 C630 1.388 . S
C630 H617 0.930 . S
C630 C629 1.388 . S
C630 C631 1.390 . S
C631 C630 1.390 . S
C631 C632 1.394 . S
C631 C637 1.465 . S
C632 C627 1.399 . S
C632 C631 1.394 . S
C632 C633 1.516 . S
C633 C632 1.516 . S
C633 C634 1.502 . S
C633 C635 1.561 . S
C633 C636 1.526 . S
C634 H618 0.959 . S
C634 H619 0.959 . S
C634 H620 0.961 . S
C634 C633 1.502 . S
C635 H621 0.960 . S
C635 H622 0.961 . S
C635 H623 0.959 . S
C635 C633 1.561 . S
C636 C633 1.526 . S
C636 C637 1.396 . S
C636 C641 1.390 . S
C637 C631 1.465 . S
C637 C636 1.396 . S
C637 C638 1.399 . S
C638 H624 0.929 . S
C638 C637 1.399 . S
C638 C639 1.385 . S
C639 H625 0.931 . S
C639 C638 1.385 . S
C639 C640 1.389 . S
C640 C639 1.389 . S
C640 C641 1.387 . S
C641 H626 0.930 . S
C641 C636 1.390 . S
C641 C640 1.387 . S
H642 C654 0.930 . S
H643 C656 0.930 . S
H644 C657 0.930 . S
H645 C661 0.959 . S
H646 C661 0.959 . S
H647 C661 0.961 . S
H648 C662 0.960 . S
H649 C662 0.961 . S
H650 C662 0.959 . S
H651 C665 0.929 . S
H652 C666 0.931 . S
H653 C668 0.930 . S
C654 H642 0.930 . S
C654 C655 1.399 . S
C654 C659 1.399 . S
C655 C654 1.399 . S
C655 C656 1.376 . S
C656 H643 0.930 . S
C656 C655 1.376 . S
C656 C657 1.388 . S
C657 H644 0.930 . S
C657 C656 1.388 . S
C657 C658 1.390 . S
C658 C657 1.390 . S
C658 C659 1.394 . S
C658 C664 1.465 . S
C659 C654 1.399 . S
C659 C658 1.394 . S
C659 C660 1.516 . S
C660 C659 1.516 . S
C660 C661 1.502 . S
C660 C662 1.561 . S
C660 C663 1.526 . S
C661 H645 0.959 . S
C661 H646 0.959 . S
C661 H647 0.961 . S
C661 C660 1.502 . S
C662 H648 0.960 . S
C662 H649 0.961 . S
C662 H650 0.959 . S
C662 C660 1.561 . S
C663 C660 1.526 . S
C663 C664 1.396 . S
C663 C668 1.390 . S
C664 C658 1.465 . S
C664 C663 1.396 . S
C664 C665 1.399 . S
C665 H651 0.929 . S
C665 C664 1.399 . S
C665 C666 1.385 . S
C666 H652 0.931 . S
C666 C665 1.385 . S
C666 C667 1.389 . S
C667 C666 1.389 . S
C667 C668 1.387 . S
C668 H653 0.930 . S
C668 C663 1.390 . S
C668 C667 1.387 . S
H669 C681 0.930 . S
H670 C683 0.930 . S
H671 C684 0.930 . S
H672 C688 0.959 . S
H673 C688 0.959 . S
H674 C688 0.961 . S
H675 C689 0.960 . S
H676 C689 0.961 . S
H677 C689 0.959 . S
H678 C692 0.929 . S
H679 C693 0.931 . S
H680 C695 0.930 . S
C681 H669 0.930 . S
C681 C682 1.399 . S
C681 C686 1.399 . S
C682 C681 1.399 . S
C682 C683 1.376 . S
C683 H670 0.930 . S
C683 C682 1.376 . S
C683 C684 1.388 . S
C684 H671 0.930 . S
C684 C683 1.388 . S
C684 C685 1.390 . S
C685 C684 1.390 . S
C685 C686 1.394 . S
C685 C691 1.465 . S
C686 C681 1.399 . S
C686 C685 1.394 . S
C686 C687 1.516 . S
C687 C686 1.516 . S
C687 C688 1.502 . S
C687 C689 1.561 . S
C687 C690 1.526 . S
C688 H672 0.959 . S
C688 H673 0.959 . S
C688 H674 0.961 . S
C688 C687 1.502 . S
C689 H675 0.960 . S
C689 H676 0.961 . S
C689 H677 0.959 . S
C689 C687 1.561 . S
C690 C687 1.526 . S
C690 C691 1.396 . S
C690 C695 1.390 . S
C691 C685 1.465 . S
C691 C690 1.396 . S
C691 C692 1.399 . S
C692 H678 0.929 . S
C692 C691 1.399 . S
C692 C693 1.385 . S
C693 H679 0.931 . S
C693 C692 1.385 . S
C693 C694 1.389 . S
C694 C693 1.389 . S
C694 C695 1.387 . S
C695 H680 0.930 . S
C695 C690 1.390 . S
C695 C694 1.387 . S
H696 C708 0.930 . S
H697 C710 0.930 . S
H698 C711 0.930 . S
H699 C715 0.959 . S
H700 C715 0.959 . S
H701 C715 0.961 . S
H702 C716 0.960 . S
H703 C716 0.961 . S
H704 C716 0.959 . S
H705 C719 0.929 . S
H706 C720 0.931 . S
H707 C722 0.930 . S
C708 H696 0.930 . S
C708 C709 1.399 . S
C708 C713 1.399 . S
C709 C708 1.399 . S
C709 C710 1.376 . S
C710 H697 0.930 . S
C710 C709 1.376 . S
C710 C711 1.388 . S
C711 H698 0.930 . S
C711 C710 1.388 . S
C711 C712 1.390 . S
C712 C711 1.390 . S
C712 C713 1.394 . S
C712 C718 1.465 . S
C713 C708 1.399 . S
C713 C712 1.394 . S
C713 C714 1.516 . S
C714 C713 1.516 . S
C714 C715 1.502 . S
C714 C716 1.561 . S
C714 C717 1.526 . S
C715 H699 0.959 . S
C715 H700 0.959 . S
C715 H701 0.961 . S
C715 C714 1.502 . S
C716 H702 0.960 . S
C716 H703 0.961 . S
C716 H704 0.959 . S
C716 C714 1.561 . S
C717 C714 1.526 . S
C717 C718 1.396 . S
C717 C722 1.390 . S
C718 C712 1.465 . S
C718 C717 1.396 . S
C718 C719 1.399 . S
C719 H705 0.929 . S
C719 C718 1.399 . S
C719 C720 1.385 . S
C720 H706 0.931 . S
C720 C719 1.385 . S
C720 C721 1.389 . S
C721 C720 1.389 . S
C721 C722 1.387 . S
C722 H707 0.930 . S
C722 C717 1.390 . S
C722 C721 1.387 . S
H723 C735 0.930 . S
H724 C737 0.930 . S
H725 C738 0.930 . S
H726 C742 0.959 . S
H727 C742 0.959 . S
H728 C742 0.961 . S
H729 C743 0.960 . S
H730 C743 0.961 . S
H731 C743 0.959 . S
H732 C746 0.929 . S
H733 C747 0.931 . S
H734 C749 0.930 . S
C735 H723 0.930 . S
C735 C736 1.399 . S
C735 C740 1.399 . S
C736 C735 1.399 . S
C736 C737 1.376 . S
C737 H724 0.930 . S
C737 C736 1.376 . S
C737 C738 1.388 . S
C738 H725 0.930 . S
C738 C737 1.388 . S
C738 C739 1.390 . S
C739 C738 1.390 . S
C739 C740 1.394 . S
C739 C745 1.465 . S
C740 C735 1.399 . S
C740 C739 1.394 . S
C740 C741 1.516 . S
C741 C740 1.516 . S
C741 C742 1.502 . S
C741 C743 1.561 . S
C741 C744 1.526 . S
C742 H726 0.959 . S
C742 H727 0.959 . S
C742 H728 0.961 . S
C742 C741 1.502 . S
C743 H729 0.960 . S
C743 H730 0.961 . S
C743 H731 0.959 . S
C743 C741 1.561 . S
C744 C741 1.526 . S
C744 C745 1.396 . S
C744 C749 1.390 . S
C745 C739 1.465 . S
C745 C744 1.396 . S
C745 C746 1.399 . S
C746 H732 0.929 . S
C746 C745 1.399 . S
C746 C747 1.385 . S
C747 H733 0.931 . S
C747 C746 1.385 . S
C747 C748 1.389 . S
C748 C747 1.389 . S
C748 C749 1.387 . S
C749 H734 0.930 . S
C749 C744 1.390 . S
C749 C748 1.387 . S
H750 C762 0.930 . S
H751 C764 0.930 . S
H752 C765 0.930 . S
H753 C769 0.959 . S
H754 C769 0.959 . S
H755 C769 0.961 . S
H756 C770 0.960 . S
H757 C770 0.961 . S
H758 C770 0.959 . S
H759 C773 0.929 . S
H760 C774 0.931 . S
H761 C776 0.930 . S
C762 H750 0.930 . S
C762 C763 1.399 . S
C762 C767 1.399 . S
C763 C762 1.399 . S
C763 C764 1.376 . S
C764 H751 0.930 . S
C764 C763 1.376 . S
C764 C765 1.388 . S
C765 H752 0.930 . S
C765 C764 1.388 . S
C765 C766 1.390 . S
C766 C765 1.390 . S
C766 C767 1.394 . S
C766 C772 1.465 . S
C767 C762 1.399 . S
C767 C766 1.394 . S
C767 C768 1.516 . S
C768 C767 1.516 . S
C768 C769 1.502 . S
C768 C770 1.561 . S
C768 C771 1.526 . S
C769 H753 0.959 . S
C769 H754 0.959 . S
C769 H755 0.961 . S
C769 C768 1.502 . S
C770 H756 0.960 . S
C770 H757 0.961 . S
C770 H758 0.959 . S
C770 C768 1.561 . S
C771 C768 1.526 . S
C771 C772 1.396 . S
C771 C776 1.390 . S
C772 C766 1.465 . S
C772 C771 1.396 . S
C772 C773 1.399 . S
C773 H759 0.929 . S
C773 C772 1.399 . S
C773 C774 1.385 . S
C774 H760 0.931 . S
C774 C773 1.385 . S
C774 C775 1.389 . S
C775 C774 1.389 . S
C775 C776 1.387 . S
C776 H761 0.930 . S
C776 C771 1.390 . S
C776 C775 1.387 . S
H777 C789 0.930 . S
H778 C791 0.930 . S
H779 C792 0.930 . S
H780 C796 0.959 . S
H781 C796 0.959 . S
H782 C796 0.961 . S
H783 C797 0.960 . S
H784 C797 0.961 . S
H785 C797 0.959 . S
H786 C800 0.929 . S
H787 C801 0.931 . S
H788 C803 0.930 . S
C789 H777 0.930 . S
C789 C790 1.399 . S
C789 C794 1.399 . S
C790 C789 1.399 . S
C790 C791 1.376 . S
C791 H778 0.930 . S
C791 C790 1.376 . S
C791 C792 1.388 . S
C792 H779 0.930 . S
C792 C791 1.388 . S
C792 C793 1.390 . S
C793 C792 1.390 . S
C793 C794 1.394 . S
C793 C799 1.465 . S
C794 C789 1.399 . S
C794 C793 1.394 . S
C794 C795 1.516 . S
C795 C794 1.516 . S
C795 C796 1.502 . S
C795 C797 1.561 . S
C795 C798 1.526 . S
C796 H780 0.959 . S
C796 H781 0.959 . S
C796 H782 0.961 . S
C796 C795 1.502 . S
C797 H783 0.960 . S
C797 H784 0.961 . S
C797 H785 0.959 . S
C797 C795 1.561 . S
C798 C795 1.526 . S
C798 C799 1.396 . S
C798 C803 1.390 . S
C799 C793 1.465 . S
C799 C798 1.396 . S
C799 C800 1.399 . S
C800 H786 0.929 . S
C800 C799 1.399 . S
C800 C801 1.385 . S
C801 H787 0.931 . S
C801 C800 1.385 . S
C801 C802 1.389 . S
C802 C801 1.389 . S
C802 C803 1.387 . S
C803 H788 0.930 . S
C803 C798 1.390 . S
C803 C802 1.387 . S
H804 C816 0.930 . S
H805 C818 0.930 . S
H806 C819 0.930 1_556 S
H807 C823 0.959 . S
H808 C823 0.959 . S
H809 C823 0.961 . S
H810 C824 0.960 . S
H811 C824 0.961 . S
H812 C824 0.959 . S
H813 C827 0.908 1_545 S
H814 C828 0.931 . S
H815 C830 0.930 . S
C816 H804 0.930 . S
C816 C817 1.399 . S
C816 C821 1.399 . S
C817 C816 1.399 . S
C817 C818 1.376 . S
C818 H805 0.930 . S
C818 C817 1.376 . S
C818 C819 1.388 . S
C819 H806 0.930 1_554 S
C819 C818 1.388 . S
C819 C820 1.390 . S
C820 C819 1.390 . S
C820 C821 1.394 . S
C820 C826 1.465 1_544 S
C821 C816 1.399 . S
C821 C820 1.394 . S
C821 C822 1.516 1_545 S
C822 C821 1.516 1_565 S
C822 C823 1.502 . S
C822 C824 1.561 . S
C822 C825 1.526 1_554 S
C823 H807 0.959 . S
C823 H808 0.959 . S
C823 H809 0.961 . S
C823 C822 1.502 . S
C824 H810 0.960 . S
C824 H811 0.961 . S
C824 H812 0.959 . S
C824 C822 1.561 . S
C825 C822 1.526 1_556 S
C825 C826 1.396 . S
C825 C830 1.390 . S
C826 C820 1.465 1_566 S
C826 C825 1.396 . S
C826 C827 1.403 . S
C827 H813 0.908 1_565 S
C827 C826 1.403 . S
C827 C828 1.403 . S
C828 H814 0.931 . S
C828 C827 1.403 . S
C828 C829 1.389 . S
C829 C828 1.389 . S
C829 C830 1.387 . S
C830 H815 0.930 . S
C830 C825 1.390 . S
C830 C829 1.387 . S
H831 C843 0.930 . S
H832 C845 0.930 . S
H833 C846 0.930 . S
H834 C850 0.959 . S
H835 C850 0.959 . S
H836 C850 0.961 . S
H837 C851 0.960 . S
H838 C851 0.961 . S
H839 C851 0.959 . S
H840 C854 0.929 . S
H841 C855 0.931 . S
H842 C857 0.930 . S
C843 H831 0.930 . S
C843 C844 1.399 . S
C843 C848 1.399 . S
C844 C843 1.399 . S
C844 C845 1.376 . S
C845 H832 0.930 . S
C845 C844 1.376 . S
C845 C846 1.388 . S
C846 H833 0.930 . S
C846 C845 1.388 . S
C846 C847 1.390 . S
C847 C846 1.390 . S
C847 C848 1.394 . S
C847 C853 1.465 . S
C848 C843 1.399 . S
C848 C847 1.394 . S
C848 C849 1.516 . S
C849 C848 1.516 . S
C849 C850 1.502 . S
C849 C851 1.561 . S
C849 C852 1.526 . S
C850 H834 0.959 . S
C850 H835 0.959 . S
C850 H836 0.961 . S
C850 C849 1.502 . S
C851 H837 0.960 . S
C851 H838 0.961 . S
C851 H839 0.959 . S
C851 C849 1.561 . S
C852 C849 1.526 . S
C852 C853 1.396 . S
C852 C857 1.390 . S
C853 C847 1.465 . S
C853 C852 1.396 . S
C853 C854 1.399 . S
C854 H840 0.929 . S
C854 C853 1.399 . S
C854 C855 1.385 . S
C855 H841 0.931 . S
C855 C854 1.385 . S
C855 C856 1.389 . S
C856 C855 1.389 . S
C856 C857 1.387 . S
C857 H842 0.930 . S
C857 C852 1.390 . S
C857 C856 1.387 . S
H858 C870 0.930 . S
H859 C872 0.930 . S
H860 C873 0.930 . S
H861 C877 0.959 . S
H862 C877 0.959 . S
H863 C877 0.961 . S
H864 C878 0.987 . S
H865 C878 0.961 . S
H866 C878 0.959 1_455 S
H867 C881 0.929 1_455 S
H868 C882 0.931 . S
H869 C884 0.930 . S
C870 H858 0.930 . S
C870 C871 1.399 . S
C870 C875 1.399 . S
C871 C870 1.399 . S
C871 C872 1.376 . S
C872 H859 0.930 . S
C872 C871 1.376 . S
C872 C873 1.388 . S
C873 H860 0.930 . S
C873 C872 1.388 . S
C873 C874 1.390 . S
C874 C873 1.390 . S
C874 C875 1.394 . S
C874 C880 1.465 1_455 S
C875 C870 1.399 . S
C875 C874 1.394 . S
C875 C876 1.516 1_455 S
C876 C875 1.516 1_655 S
C876 C877 1.502 . S
C876 C878 1.561 . S
C876 C879 1.526 . S
C877 H861 0.959 . S
C877 H862 0.959 . S
C877 H863 0.961 . S
C877 C876 1.502 . S
C878 H864 0.987 . S
C878 H865 0.961 . S
C878 H866 0.959 1_655 S
C878 C876 1.561 . S
C879 C876 1.526 . S
C879 C880 1.396 . S
C879 C884 1.390 . S
C880 C874 1.465 1_655 S
C880 C879 1.396 . S
C880 C881 1.399 . S
C881 H867 0.929 1_655 S
C881 C880 1.399 . S
C881 C882 1.385 . S
C882 H868 0.931 . S
C882 C881 1.385 . S
C882 C883 1.389 . S
C883 C882 1.389 . S
C883 C884 1.387 . S
C884 H869 0.930 . S
C884 C879 1.390 . S
C884 C883 1.387 . S
H885 C897 0.930 . S
H886 C899 0.930 . S
H887 C900 0.907 1_565 S
H888 C904 0.959 . S
H889 C904 0.959 . S
H890 C904 0.961 . S
H891 C905 0.960 . S
H892 C905 0.961 . S
H893 C905 0.959 . S
H894 C908 0.929 . S
H895 C909 0.931 . S
H896 C911 0.930 . S
C897 H885 0.930 . S
C897 C898 1.399 . S
C897 C902 1.399 . S
C898 C897 1.399 . S
C898 C899 1.376 . S
C899 H886 0.930 . S
C899 C898 1.376 . S
C899 C900 1.417 . S
C900 H887 0.907 1_545 S
C900 C899 1.417 . S
C900 C901 1.386 . S
C901 C900 1.386 . S
C901 C902 1.394 . S
C901 C907 1.465 1_545 S
C902 C897 1.399 . S
C902 C901 1.394 . S
C902 C903 1.516 . S
C903 C902 1.516 . S
C903 C904 1.502 . S
C903 C905 1.561 . S
C903 C906 1.526 1_545 S
C904 H888 0.959 . S
C904 H889 0.959 . S
C904 H890 0.961 . S
C904 C903 1.502 . S
C905 H891 0.960 . S
C905 H892 0.961 . S
C905 H893 0.959 . S
C905 C903 1.561 . S
C906 C903 1.526 1_565 S
C906 C907 1.396 . S
C906 C911 1.390 . S
C907 C901 1.465 1_565 S
C907 C906 1.396 . S
C907 C908 1.399 . S
C908 H894 0.929 . S
C908 C907 1.399 . S
C908 C909 1.385 . S
C909 H895 0.931 . S
C909 C908 1.385 . S
C909 C910 1.389 . S
C910 C909 1.389 . S
C910 C911 1.387 . S
C911 H896 0.930 . S
C911 C906 1.390 . S
C911 C910 1.387 . S
H912 C924 0.930 . S
H913 C926 0.930 . S
H914 C927 0.930 . S
H915 C931 0.959 . S
H916 C931 0.959 . S
H917 C931 0.961 . S
H918 C932 0.960 . S
H919 C932 0.961 . S
H920 C932 0.959 . S
H921 C935 0.929 . S
H922 C936 0.931 . S
H923 C938 0.930 . S
C924 H912 0.930 . S
C924 C925 1.399 . S
C924 C929 1.399 . S
C925 C924 1.399 . S
C925 C926 1.376 . S
C926 H913 0.930 . S
C926 C925 1.376 . S
C926 C927 1.388 . S
C927 H914 0.930 . S
C927 C926 1.388 . S
C927 C928 1.390 . S
C928 C927 1.390 . S
C928 C929 1.394 . S
C928 C934 1.465 . S
C929 C924 1.399 . S
C929 C928 1.394 . S
C929 C930 1.516 . S
C930 C929 1.516 . S
C930 C931 1.502 . S
C930 C932 1.561 . S
C930 C933 1.526 . S
C931 H915 0.959 . S
C931 H916 0.959 . S
C931 H917 0.961 . S
C931 C930 1.502 . S
C932 H918 0.960 . S
C932 H919 0.961 . S
C932 H920 0.959 . S
C932 C930 1.561 . S
C933 C930 1.526 . S
C933 C934 1.396 . S
C933 C938 1.390 . S
C934 C928 1.465 . S
C934 C933 1.396 . S
C934 C935 1.399 . S
C935 H921 0.929 . S
C935 C934 1.399 . S
C935 C936 1.385 . S
C936 H922 0.931 . S
C936 C935 1.385 . S
C936 C937 1.389 . S
C937 C936 1.389 . S
C937 C938 1.387 . S
C938 H923 0.930 . S
C938 C933 1.390 . S
C938 C937 1.387 . S
H939 C951 0.930 . S
H940 C953 0.930 . S
H941 C954 0.930 1_455 S
H942 C958 0.959 . S
H943 C958 0.959 . S
H944 C958 0.961 . S
H945 C959 0.946 1_655 S
H946 C959 0.983 . S
H947 C959 0.982 . S
H948 C962 0.929 . S
H949 C963 0.931 . S
H950 C965 0.930 . S
C951 H939 0.930 . S
C951 C952 1.399 . S
C951 C956 1.399 . S
C952 C951 1.399 . S
C952 C953 1.376 . S
C953 H940 0.930 . S
C953 C952 1.376 . S
C953 C954 1.388 . S
C954 H941 0.930 1_655 S
C954 C953 1.388 . S
C954 C955 1.390 . S
C955 C954 1.390 . S
C955 C956 1.394 . S
C955 C961 1.465 1_655 S
C956 C951 1.399 . S
C956 C955 1.394 . S
C956 C957 1.516 . S
C957 C956 1.516 . S
C957 C958 1.502 . S
C957 C959 1.532 1_655 S
C957 C960 1.526 1_655 S
C958 H942 0.959 . S
C958 H943 0.959 . S
C958 H944 0.961 . S
C958 C957 1.502 . S
C959 H945 0.946 1_455 S
C959 H946 0.983 . S
C959 H947 0.982 . S
C959 C957 1.532 1_455 S
C960 C957 1.526 1_455 S
C960 C961 1.396 . S
C960 C965 1.390 . S
C961 C955 1.465 1_455 S
C961 C960 1.396 . S
C961 C962 1.399 . S
C962 H948 0.929 . S
C962 C961 1.399 . S
C962 C963 1.385 . S
C963 H949 0.931 . S
C963 C962 1.385 . S
C963 C964 1.389 . S
C964 C963 1.389 . S
C964 C965 1.387 . S
C965 H950 0.930 . S
C965 C960 1.390 . S
C965 C964 1.387 . S
C493 C21 1.545 . S
C505 C421 1.552 . S
C520 C461 1.549 . S
C532 C61 1.557 . S
C547 C261 1.547 . S
C559 C101 1.555 . S
C574 C141 1.545 . S
C586 C301 1.551 . S
C601 C341 1.548 . S
C613 C181 1.549 . S
C628 C221 1.552 . S
C640 C381 1.555 . S
C655 C2 1.519 . S
C667 C322 1.514 . S
C682 C362 1.521 . S
C694 C42 1.515 . S
C709 C82 1.532 . S
C721 C402 1.537 . S
C736 C442 1.512 . S
C748 C122 1.510 . S
C763 C162 1.511 . S
C775 C242 1.516 . S
C790 C202 1.540 . S
C802 C282 1.537 . S
C817 C15 1.532 . S
C829 C295 1.544 . S
C844 C335 1.529 . S
C856 C55 1.540 . S
C871 C375 1.527 . S
C883 C95 1.541 . S
C898 C415 1.540 . S
C910 C135 1.528 . S
C925 C175 1.530 . S
C937 C455 1.545 . S
C952 C255 1.544 . S
C964 C215 1.533 . S
