# Generated by pormake.
# Topology noy, (5)-cn, num edge types: 1
# Building blocks:
#     Node 0, Type 0, BuildingBlock: XOMCOT_clean_sbu_0, # of connection points: 5
#     Node 1, Type 0, BuildingBlock: XOMCOT_clean_sbu_0, # of connection points: 5
#     Node 2, Type 0, BuildingBlock: XOMCOT_clean_sbu_0, # of connection points: 5
#     Node 3, Type 0, BuildingBlock: XOMCOT_clean_sbu_0, # of connection points: 5
#     Node 4, Type 0, BuildingBlock: XOMCOT_clean_sbu_0, # of connection points: 5
#     Node 5, Type 0, BuildingBlock: XOMCOT_clean_sbu_0, # of connection points: 5
#     Node 6, Type 0, BuildingBlock: XOMCOT_clean_sbu_0, # of connection points: 5
#     Node 7, Type 0, BuildingBlock: XOMCOT_clean_sbu_0, # of connection points: 5
#     Edge 8, Type (0, 0), BuildingBlock: XUDNAN_clean_linker_2, # of connection points: 2
#     Edge 9, Type (0, 0), BuildingBlock: XUDNAN_clean_linker_2, # of connection points: 2
#     Edge 10, Type (0, 0), BuildingBlock: XUDNAN_clean_linker_2, # of connection points: 2
#     Edge 11, Type (0, 0), BuildingBlock: XUDNAN_clean_linker_2, # of connection points: 2
#     Edge 12, Type (0, 0), BuildingBlock: XUDNAN_clean_linker_2, # of connection points: 2
#     Edge 13, Type (0, 0), BuildingBlock: XUDNAN_clean_linker_2, # of connection points: 2
#     Edge 14, Type (0, 0), BuildingBlock: XUDNAN_clean_linker_2, # of connection points: 2
#     Edge 15, Type (0, 0), BuildingBlock: XUDNAN_clean_linker_2, # of connection points: 2
#     Edge 16, Type (0, 0), BuildingBlock: XUDNAN_clean_linker_2, # of connection points: 2
#     Edge 17, Type (0, 0), BuildingBlock: XUDNAN_clean_linker_2, # of connection points: 2
#     Edge 18, Type (0, 0), BuildingBlock: XUDNAN_clean_linker_2, # of connection points: 2
#     Edge 19, Type (0, 0), BuildingBlock: XUDNAN_clean_linker_2, # of connection points: 2
#     Edge 20, Type (0, 0), BuildingBlock: XUDNAN_clean_linker_2, # of connection points: 2
#     Edge 21, Type (0, 0), BuildingBlock: XUDNAN_clean_linker_2, # of connection points: 2
#     Edge 22, Type (0, 0), BuildingBlock: XUDNAN_clean_linker_2, # of connection points: 2
#     Edge 23, Type (0, 0), BuildingBlock: XUDNAN_clean_linker_2, # of connection points: 2
#     Edge 24, Type (0, 0), BuildingBlock: XUDNAN_clean_linker_2, # of connection points: 2
#     Edge 25, Type (0, 0), BuildingBlock: XUDNAN_clean_linker_2, # of connection points: 2
#     Edge 26, Type (0, 0), BuildingBlock: XUDNAN_clean_linker_2, # of connection points: 2
#     Edge 27, Type (0, 0), BuildingBlock: XUDNAN_clean_linker_2, # of connection points: 2
# Relax obj value: 0.203
# Max RMSD: 0.216
# Mean RMSD: 0.216
data_MOF--net-noy--node1-XOMCOT_clean_sbu_0--edge1-XUDNAN_clean_linker_2
_symmetry_space_group_name_H-M    P1
_symmetry_Int_Tables_number       1
_symmetry_cell_setting            triclinic
loop_
_symmetry_equiv_pos_as_xyz
'x, y, z'
_cell_length_a     48.937271
_cell_length_b     47.362351
_cell_length_c     20.06259
_cell_angle_alpha  90.052779
_cell_angle_beta   90.099787
_cell_angle_gamma 90.057047
loop_
_atom_site_label
_atom_site_type_symbol
_atom_site_fract_x
_atom_site_fract_y
_atom_site_fract_z
_atom_type_partial_charge
Co0 Co 0.31505 0.38525 0.32304 0.0
C1 C 0.32584 0.42507 0.20591 0.0
C2 C 0.2849 0.40945 0.21457 0.0
C3 C 0.28592 0.42736 0.16131 0.0
N4 N 0.30983 0.40769 0.24278 0.0
N5 N 0.31167 0.43717 0.15532 0.0
H6 H 0.34715 0.42903 0.21502 0.0
H7 H 0.26691 0.39858 0.23251 0.0
C8 C 0.3045 0.34402 0.21586 0.0
O9 O 0.32287 0.35841 0.18236 0.0
N10 N 0.31788 0.36279 0.40292 0.0
C11 C 0.33586 0.36521 0.45355 0.0
C12 C 0.32927 0.34546 0.50162 0.0
C13 C 0.30074 0.34183 0.42052 0.0
N14 N 0.30728 0.33076 0.48034 0.0
C15 C 0.37192 0.39273 0.29613 0.0
C16 C 0.38558 0.33629 0.28715 0.0
C17 C 0.40634 0.35662 0.282 0.0
C18 C 0.39908 0.38516 0.28625 0.0
C19 C 0.35848 0.34485 0.29661 0.0
N20 N 0.35172 0.37289 0.29838 0.0
H21 H 0.36741 0.41468 0.30476 0.0
H22 H 0.34312 0.32885 0.30492 0.0
H23 H 0.35243 0.38033 0.45554 0.0
H24 H 0.28339 0.33524 0.39085 0.0
O25 O 0.32596 0.41814 0.37151 0.0
O26 O 0.28301 0.40456 0.36097 0.0
O27 O 0.29769 0.35196 0.27464 0.0
C28 C 0.30052 0.42297 0.38432 0.0
H29 H 0.26862 0.4333 0.13081 0.0
H30 H 0.33994 0.342 0.54821 0.0
H31 H 0.39032 0.31396 0.28649 0.0
H32 H 0.41432 0.40171 0.28315 0.0
Co33 Co 0.69883 0.64175 0.83268 0.0
C34 C 0.68941 0.60334 0.71282 0.0
C35 C 0.73016 0.61927 0.72369 0.0
C36 C 0.7296 0.60154 0.6699 0.0
N37 N 0.70502 0.62077 0.75068 0.0
N38 N 0.70397 0.59149 0.66266 0.0
H39 H 0.66816 0.59893 0.72143 0.0
H40 H 0.74801 0.63 0.74308 0.0
C41 C 0.71414 0.68466 0.73065 0.0
O42 O 0.69742 0.67173 0.68937 0.0
N43 N 0.69492 0.66271 0.91492 0.0
C44 C 0.67847 0.65731 0.96729 0.0
C45 C 0.68489 0.67593 0.01824 0.0
C46 C 0.71095 0.68435 0.93447 0.0
N47 N 0.7052 0.69289 0.99694 0.0
C48 C 0.64228 0.63477 0.80175 0.0
C49 C 0.62877 0.69122 0.79327 0.0
C50 C 0.60787 0.67097 0.78754 0.0
C51 C 0.61519 0.64241 0.7909 0.0
C52 C 0.65592 0.68256 0.80301 0.0
N53 N 0.66255 0.65451 0.8055 0.0
H54 H 0.64664 0.61276 0.80992 0.0
H55 H 0.67132 0.69849 0.81168 0.0
H56 H 0.66329 0.64072 0.96888 0.0
H57 H 0.7272 0.69321 0.9046 0.0
O58 O 0.68765 0.60787 0.87668 0.0
O59 O 0.73056 0.62226 0.87089 0.0
O60 O 0.7171 0.67565 0.7904 0.0
C61 C 0.71306 0.60329 0.89111 0.0
H62 H 0.74713 0.5957 0.64022 0.0
H63 H 0.67531 0.67708 0.06675 0.0
H64 H 0.62413 0.71356 0.79305 0.0
H65 H 0.60004 0.62583 0.7866 0.0
Co66 Co 0.31888 0.64347 0.67701 0.0
C67 C 0.32815 0.60133 0.78651 0.0
C68 C 0.28873 0.62115 0.78962 0.0
C69 C 0.28976 0.60108 0.83884 0.0
N70 N 0.31275 0.62143 0.75678 0.0
N71 N 0.31452 0.58882 0.83686 0.0
H72 H 0.34812 0.59474 0.77013 0.0
H73 H 0.27119 0.63395 0.77686 0.0
C74 C 0.29268 0.70112 0.71345 0.0
O75 O 0.30068 0.71405 0.65909 0.0
N76 N 0.3242 0.66518 0.59636 0.0
C77 C 0.34804 0.67056 0.56523 0.0
C78 C 0.34274 0.68558 0.50796 0.0
C79 C 0.30469 0.67604 0.5563 0.0
N80 N 0.3155 0.68922 0.50281 0.0
C81 C 0.3757 0.63658 0.70617 0.0
C82 C 0.38716 0.69142 0.74361 0.0
C83 C 0.40864 0.67193 0.73972 0.0
C84 C 0.4025 0.64413 0.72155 0.0
C85 C 0.36037 0.68284 0.72886 0.0
N86 N 0.3548 0.65565 0.70996 0.0
H87 H 0.37213 0.61541 0.6886 0.0
H88 H 0.34464 0.69856 0.73042 0.0
H89 H 0.36799 0.66413 0.58264 0.0
H90 H 0.28304 0.67491 0.56704 0.0
O91 O 0.33023 0.61024 0.6294 0.0
O92 O 0.2874 0.62451 0.63643 0.0
O93 O 0.29929 0.67541 0.72471 0.0
C94 C 0.30477 0.60575 0.61493 0.0
H95 H 0.27342 0.59545 0.87265 0.0
H96 H 0.35784 0.69395 0.47388 0.0
H97 H 0.39107 0.7132 0.75715 0.0
H98 H 0.41851 0.62851 0.71629 0.0
Co99 Co 0.69564 0.38397 0.18356 0.0
C100 C 0.6878 0.42607 0.29568 0.0
C101 C 0.72827 0.409 0.28856 0.0
C102 C 0.72824 0.42922 0.33752 0.0
N103 N 0.70297 0.40685 0.26215 0.0
N104 N 0.70282 0.43982 0.3419 0.0
H105 H 0.66681 0.43119 0.28538 0.0
H106 H 0.74584 0.39715 0.2717 0.0
C107 C 0.70883 0.34374 0.29047 0.0
O108 O 0.69169 0.35872 0.32628 0.0
N109 N 0.68976 0.36158 0.10453 0.0
C110 C 0.66725 0.36166 0.06575 0.0
C111 C 0.67037 0.34163 0.01663 0.0
C112 C 0.70654 0.34203 0.07793 0.0
N113 N 0.69505 0.32944 0.02435 0.0
C114 C 0.63912 0.39208 0.21637 0.0
C115 C 0.62593 0.33573 0.23179 0.0
C116 C 0.60516 0.35596 0.2368 0.0
C117 C 0.6121 0.38446 0.22901 0.0
C118 C 0.65278 0.34431 0.21937 0.0
N119 N 0.65941 0.37234 0.21422 0.0
H120 H 0.64328 0.4138 0.20419 0.0
H121 H 0.66796 0.32821 0.21066 0.0
H122 H 0.64959 0.37497 0.07348 0.0
H123 H 0.72632 0.33657 0.09837 0.0
O124 O 0.68473 0.41703 0.13578 0.0
O125 O 0.72737 0.40179 0.14155 0.0
O126 O 0.71359 0.35058 0.22976 0.0
C127 C 0.71015 0.4208 0.1202 0.0
H128 H 0.74561 0.436 0.36696 0.0
H129 H 0.65565 0.33636 0.97823 0.0
H130 H 0.62139 0.31341 0.23579 0.0
H131 H 0.59655 0.40071 0.22905 0.0
Co132 Co 0.82056 0.88468 0.32888 0.0
C133 C 0.83509 0.92212 0.21385 0.0
C134 C 0.79557 0.90267 0.20494 0.0
C135 C 0.79944 0.91994 0.15111 0.0
N136 N 0.81792 0.90372 0.24394 0.0
N137 N 0.82427 0.9322 0.1563 0.0
H138 H 0.85473 0.92824 0.23411 0.0
H139 H 0.77719 0.89093 0.21621 0.0
C140 C 0.80507 0.82558 0.28327 0.0
O141 O 0.82499 0.81398 0.31759 0.0
N142 N 0.82155 0.86582 0.41582 0.0
C143 C 0.83489 0.8751 0.4707 0.0
C144 C 0.82733 0.85931 0.52465 0.0
C145 C 0.80473 0.84527 0.43907 0.0
N146 N 0.80818 0.8406 0.50521 0.0
C147 C 0.87761 0.87495 0.34591 0.0
C148 C 0.88814 0.85107 0.22322 0.0
C149 C 0.91019 0.85653 0.2666 0.0
C150 C 0.90422 0.86774 0.32949 0.0
C151 C 0.86129 0.85775 0.24296 0.0
N152 N 0.8563 0.86957 0.30402 0.0
H153 H 0.87469 0.88634 0.39131 0.0
H154 H 0.84474 0.85463 0.20796 0.0
H155 H 0.84783 0.89352 0.47357 0.0
H156 H 0.78897 0.83527 0.40959 0.0
O157 O 0.83302 0.91912 0.36906 0.0
O158 O 0.7895 0.90662 0.36004 0.0
O159 O 0.80056 0.85208 0.28653 0.0
C160 C 0.80753 0.92514 0.37988 0.0
H161 H 0.78442 0.92416 0.11275 0.0
H162 H 0.83486 0.86221 0.57491 0.0
H163 H 0.89158 0.84281 0.17363 0.0
H164 H 0.9201 0.8719 0.36583 0.0
Co165 Co 0.18877 0.14284 0.82647 0.0
C166 C 0.19472 0.09835 0.72019 0.0
C167 C 0.16845 0.13228 0.6905 0.0
C168 C 0.16984 0.11322 0.63893 0.0
N169 N 0.18355 0.12278 0.74229 0.0
N170 N 0.18637 0.092 0.6576 0.0
H171 H 0.20898 0.08562 0.74832 0.0
H172 H 0.15761 0.15216 0.68937 0.0
C173 C 0.21383 0.19957 0.78128 0.0
O174 O 0.21044 0.21197 0.83913 0.0
N175 N 0.19371 0.16269 0.91046 0.0
C176 C 0.17425 0.16743 0.95653 0.0
C177 C 0.18551 0.18232 0.00866 0.0
C178 C 0.21691 0.17334 0.93708 0.0
N179 N 0.2123 0.1865 0.99603 0.0
C180 C 0.13117 0.13904 0.81619 0.0
C181 C 0.11917 0.196 0.81823 0.0
C182 C 0.09757 0.17646 0.81649 0.0
C183 C 0.104 0.14764 0.81459 0.0
C184 C 0.14624 0.18645 0.81902 0.0
N185 N 0.15198 0.15823 0.81826 0.0
H186 H 0.13561 0.1167 0.81519 0.0
H187 H 0.16227 0.20181 0.82252 0.0
H188 H 0.15317 0.16078 0.95236 0.0
H189 H 0.23635 0.17294 0.91151 0.0
O190 O 0.17936 0.10982 0.87668 0.0
O191 O 0.22149 0.1206 0.84573 0.0
O192 O 0.20573 0.1742 0.77127 0.0
C193 C 0.20513 0.10339 0.87719 0.0
H194 H 0.16049 0.11542 0.59025 0.0
H195 H 0.17459 0.18975 0.05209 0.0
H196 H 0.11524 0.21848 0.82054 0.0
H197 H 0.08818 0.13169 0.81139 0.0
Co198 Co 0.81625 0.14096 0.69243 0.0
C199 C 0.83239 0.09979 0.79781 0.0
C200 C 0.79027 0.11253 0.80372 0.0
C201 C 0.79501 0.09257 0.85194 0.0
N202 N 0.81359 0.11701 0.76981 0.0
N203 N 0.8214 0.08475 0.84829 0.0
H204 H 0.8532 0.0976 0.78035 0.0
H205 H 0.77091 0.12251 0.79268 0.0
C206 C 0.79728 0.19697 0.74543 0.0
O207 O 0.81804 0.2094 0.71608 0.0
N208 N 0.8174 0.16511 0.61384 0.0
C209 C 0.83662 0.16771 0.56596 0.0
C210 C 0.827 0.18545 0.51682 0.0
C211 C 0.79605 0.18049 0.59146 0.0
N212 N 0.80144 0.19343 0.53293 0.0
C213 C 0.87402 0.14925 0.69118 0.0
C214 C 0.87838 0.17972 0.8082 0.0
C215 C 0.90163 0.17544 0.76902 0.0
C216 C 0.89942 0.15949 0.71083 0.0
C217 C 0.85313 0.16916 0.7862 0.0
N218 N 0.85091 0.15572 0.72595 0.0
H219 H 0.87319 0.13553 0.64849 0.0
H220 H 0.83552 0.17157 0.81803 0.0
H221 H 0.85578 0.15667 0.56385 0.0
H222 H 0.77676 0.18189 0.61746 0.0
O223 O 0.83026 0.1098 0.64139 0.0
O224 O 0.78634 0.1201 0.6517 0.0
O225 O 0.79407 0.17026 0.74117 0.0
C226 C 0.80507 0.10357 0.62718 0.0
H227 H 0.78015 0.08397 0.88634 0.0
H228 H 0.83758 0.19102 0.47136 0.0
H229 H 0.87974 0.19096 0.85512 0.0
H230 H 0.91731 0.15465 0.68119 0.0
Co231 Co 0.20279 0.88613 0.18104 0.0
C232 C 0.20251 0.92975 0.29296 0.0
C233 C 0.23364 0.89824 0.30122 0.0
C234 C 0.23771 0.9176 0.35047 0.0
N235 N 0.21105 0.90491 0.26582 0.0
N236 N 0.21848 0.93772 0.34519 0.0
H237 H 0.18669 0.94296 0.27199 0.0
H238 H 0.24786 0.8816 0.28922 0.0
C239 C 0.21539 0.83763 0.27054 0.0
O240 O 0.19696 0.84796 0.31143 0.0
N241 N 0.19714 0.86721 0.09642 0.0
C242 C 0.17858 0.87234 0.04814 0.0
C243 C 0.18293 0.85349 0.99631 0.0
C244 C 0.21244 0.84568 0.07339 0.0
N245 N 0.20411 0.8367 0.01298 0.0
C246 C 0.14796 0.89356 0.22595 0.0
C247 C 0.13082 0.83859 0.20625 0.0
C248 C 0.11105 0.85926 0.22062 0.0
C249 C 0.12024 0.88703 0.23125 0.0
C250 C 0.15835 0.84622 0.19963 0.0
N251 N 0.16672 0.87346 0.2098 0.0
H252 H 0.15392 0.91536 0.22996 0.0
H253 H 0.17274 0.83036 0.18339 0.0
H254 H 0.16293 0.88842 0.05059 0.0
H255 H 0.22963 0.83675 0.09992 0.0
O256 O 0.19114 0.92098 0.1431 0.0
O257 O 0.23399 0.9062 0.14188 0.0
O258 O 0.22074 0.85049 0.21595 0.0
C259 C 0.21618 0.92558 0.12555 0.0
H260 H 0.25453 0.91756 0.38559 0.0
H261 H 0.17108 0.85178 0.95088 0.0
H262 H 0.12514 0.81677 0.19822 0.0
H263 H 0.10613 0.90419 0.23998 0.0
H264 H 0.45088 0.38125 0.34153 0.0
H265 H 0.428 0.31378 0.20581 0.0
H266 H 0.47688 0.3028 0.18828 0.0
H267 H 0.50548 0.40652 0.24659 0.0
H268 H 0.52661 0.41554 0.31716 0.0
H269 H 0.49001 0.41557 0.32525 0.0
H270 H 0.49355 0.38054 0.42412 0.0
H271 H 0.53023 0.3804 0.41632 0.0
H272 H 0.51149 0.34764 0.41318 0.0
H273 H 0.52851 0.30219 0.17812 0.0
H274 H 0.57799 0.31261 0.17422 0.0
H275 H 0.5664 0.3811 0.31511 0.0
C276 C 0.45604 0.36408 0.30819 0.0
C277 C 0.43553 0.34844 0.27482 0.0
C278 C 0.4433 0.32587 0.23251 0.0
C279 C 0.47102 0.31953 0.22211 0.0
C280 C 0.49068 0.33586 0.25469 0.0
C281 C 0.48347 0.35763 0.29701 0.0
C282 C 0.50832 0.37331 0.32255 0.0
C283 C 0.50755 0.40457 0.30161 0.0
C284 C 0.51105 0.37027 0.39856 0.0
C285 C 0.53069 0.35744 0.2867 0.0
C286 C 0.52021 0.33567 0.24847 0.0
C287 C 0.53696 0.31894 0.20857 0.0
C288 C 0.56507 0.32493 0.20696 0.0
C289 C 0.57608 0.3476 0.24459 0.0
C290 C 0.5586 0.36367 0.28571 0.0
H291 H 0.56306 0.64438 0.84156 0.0
H292 H 0.58576 0.7159 0.71811 0.0
H293 H 0.53684 0.7272 0.70232 0.0
H294 H 0.50865 0.62195 0.74018 0.0
H295 H 0.48765 0.61033 0.80861 0.0
H296 H 0.52426 0.61027 0.8168 0.0
H297 H 0.52051 0.64162 0.92239 0.0
H298 H 0.48383 0.64186 0.91436 0.0
H299 H 0.50242 0.6747 0.91796 0.0
H300 H 0.48479 0.72846 0.69377 0.0
H301 H 0.43521 0.71806 0.68841 0.0
H302 H 0.4476 0.64434 0.81271 0.0
C303 C 0.55795 0.66243 0.81097 0.0
C304 C 0.5785 0.67915 0.78085 0.0
C305 C 0.57055 0.70292 0.74248 0.0
C306 C 0.54276 0.70946 0.73303 0.0
C307 C 0.52312 0.69207 0.76231 0.0
C308 C 0.53045 0.669 0.80039 0.0
C309 C 0.50567 0.65234 0.82251 0.0
C310 C 0.50663 0.62194 0.79538 0.0
C311 C 0.50295 0.65267 0.89884 0.0
C312 C 0.48316 0.66927 0.78983 0.0
C313 C 0.49351 0.69238 0.75619 0.0
C314 C 0.47651 0.71056 0.72045 0.0
C315 C 0.44836 0.70459 0.71796 0.0
C316 C 0.43757 0.68044 0.75027 0.0
C317 C 0.45526 0.66294 0.78751 0.0
H318 H 0.06989 0.8856 0.29162 0.0
H319 H 0.08333 0.8181 0.14835 0.0
H320 H 0.03376 0.80917 0.14477 0.0
H321 H 0.01352 0.85606 0.37875 0.0
H322 H 0.99586 0.88929 0.38619 0.0
H323 H 0.03258 0.88864 0.38144 0.0
H324 H 0.03103 0.92248 0.27995 0.0
H325 H 0.9943 0.92325 0.28445 0.0
H326 H 0.01088 0.91303 0.20799 0.0
H327 H 0.98131 0.80788 0.15763 0.0
H328 H 0.9324 0.81541 0.18393 0.0
H329 H 0.95475 0.88829 0.30399 0.0
C330 C 0.06271 0.86908 0.25871 0.0
C331 C 0.08106 0.85258 0.22057 0.0
C332 C 0.07016 0.83076 0.1796 0.0
C333 C 0.04184 0.82566 0.17655 0.0
C334 C 0.02448 0.8428 0.21381 0.0
C335 C 0.03461 0.86423 0.25359 0.0
C336 C 0.01185 0.88071 0.28627 0.0
C337 C 0.01356 0.87853 0.36268 0.0
C338 C 0.01203 0.9117 0.26326 0.0
C339 C 0.98727 0.86506 0.25932 0.0
C340 C 0.99478 0.84307 0.2181 0.0
C341 C 0.97526 0.82521 0.18952 0.0
C342 C 0.94745 0.82979 0.20434 0.0
C343 C 0.9394 0.85223 0.24687 0.0
C344 C 0.95984 0.87035 0.27301 0.0
H345 H 0.05392 0.15122 0.87851 0.0
H346 H 0.07516 0.22219 0.75188 0.0
H347 H 0.02634 0.23457 0.74254 0.0
H348 H 0.99868 0.12945 0.78471 0.0
H349 H 0.97815 0.11819 0.85432 0.0
H350 H 0.01477 0.11819 0.8611 0.0
H351 H 0.01164 0.15015 0.9658 0.0
H352 H 0.9749 0.15037 0.95902 0.0
H353 H 0.99353 0.18322 0.96101 0.0
H354 H 0.97525 0.23509 0.7334 0.0
H355 H 0.92626 0.22268 0.72256 0.0
H356 H 0.93827 0.15085 0.85238 0.0
C357 C 0.04841 0.16958 0.84935 0.0
C358 C 0.0685 0.18574 0.816 0.0
C359 C 0.06029 0.20972 0.77885 0.0
C360 C 0.03256 0.2169 0.77315 0.0
C361 C 0.01328 0.20002 0.80522 0.0
C362 C 0.02088 0.17687 0.84272 0.0
C363 C 0.99622 0.16032 0.86618 0.0
C364 C 0.99701 0.12975 0.83998 0.0
C365 C 0.99394 0.16107 0.94255 0.0
C366 C 0.97351 0.17713 0.83384 0.0
C367 C 0.98373 0.20028 0.79994 0.0
C368 C 0.96695 0.21748 0.7611 0.0
C369 C 0.93921 0.21039 0.75537 0.0
C370 C 0.92866 0.18638 0.78826 0.0
C371 C 0.94584 0.16991 0.82895 0.0
H372 H 0.28759 0.54008 0.85362 0.0
H373 H 0.36021 0.58582 0.9124 0.0
H374 H 0.37105 0.54845 0.99545 0.0
H375 H 0.26717 0.51884 0.00836 0.0
H376 H 0.25531 0.48429 0.98402 0.0
H377 H 0.25567 0.51251 0.92422 0.0
H378 H 0.28564 0.48244 0.84482 0.0
H379 H 0.28515 0.45392 0.90423 0.0
H380 H 0.31729 0.46774 0.87497 0.0
H381 H 0.36916 0.50943 0.08367 0.0
H382 H 0.35675 0.47145 0.16245 0.0
H383 H 0.28739 0.44979 0.03713 0.0
C384 C 0.30611 0.54172 0.88299 0.0
C385 C 0.32316 0.56552 0.87721 0.0
C386 C 0.34717 0.56742 0.91621 0.0
C387 C 0.35337 0.54638 0.96334 0.0
C388 C 0.33563 0.52339 0.96923 0.0
C389 C 0.3128 0.52073 0.92891 0.0
C390 C 0.29615 0.49498 0.94679 0.0
C391 C 0.26686 0.50316 0.96707 0.0
C392 C 0.29607 0.4735 0.88928 0.0
C393 C 0.31238 0.48423 1.00559 0.0
C394 C 0.33517 0.50067 0.01785 0.0
C395 C 0.35172 0.49603 0.07352 0.0
C396 C 0.34452 0.47431 0.11804 0.0
C397 C 0.32095 0.45751 0.10661 0.0
C398 C 0.30531 0.46227 0.0484 0.0
H399 H 0.72973 0.48859 0.3611 0.0
H400 H 0.65751 0.44199 0.41889 0.0
H401 H 0.6465 0.47902 0.50259 0.0
H402 H 0.75005 0.50989 0.51719 0.0
H403 H 0.76155 0.54455 0.49288 0.0
H404 H 0.76156 0.51623 0.43319 0.0
H405 H 0.73137 0.54589 0.35329 0.0
H406 H 0.73144 0.57447 0.41266 0.0
H407 H 0.6995 0.56021 0.38289 0.0
H408 H 0.64776 0.51815 0.59051 0.0
H409 H 0.65939 0.55654 0.66904 0.0
H410 H 0.72889 0.57883 0.54548 0.0
C411 C 0.71135 0.48655 0.39068 0.0
C412 C 0.69445 0.46262 0.38426 0.0
C413 C 0.6705 0.46042 0.42324 0.0
C414 C 0.66419 0.48128 0.47073 0.0
C415 C 0.68174 0.5044 0.47707 0.0
C416 C 0.70455 0.50734 0.43703 0.0
C417 C 0.72087 0.53332 0.45511 0.0
C418 C 0.75022 0.52551 0.47584 0.0
C419 C 0.72077 0.55474 0.39756 0.0
C420 C 0.70445 0.54393 0.51364 0.0
C421 C 0.68185 0.52719 0.52557 0.0
C422 C 0.66507 0.53176 0.58068 0.0
C423 C 0.67182 0.55373 0.62503 0.0
C424 C 0.69519 0.57084 0.61401 0.0
C425 C 0.7111 0.56611 0.55636 0.0
H426 H 0.67809 0.56663 0.94816 0.0
H427 H 0.76461 0.58051 0.91507 0.0
H428 H 0.77465 0.53449 0.97008 0.0
H429 H 0.68358 0.53403 0.10854 0.0
H430 H 0.65566 0.51017 0.09203 0.0
H431 H 0.65649 0.54428 0.0526 0.0
H432 H 0.65264 0.5202 0.9367 0.0
H433 H 0.65207 0.48601 0.9757 0.0
H434 H 0.67736 0.49383 0.91314 0.0
H435 H 0.77375 0.48473 0.02886 0.0
H436 H 0.76216 0.43942 0.08523 0.0
H437 H 0.67619 0.46099 0.07315 0.0
C438 C 0.69927 0.56024 0.9525 0.0
C439 C 0.72058 0.57716 0.92725 0.0
C440 C 0.74795 0.56789 0.93438 0.0
C441 C 0.75378 0.54176 0.96532 0.0
C442 C 0.732 0.52537 0.98872 0.0
C443 C 0.70532 0.53457 0.98265 0.0
C444 C 0.68518 0.51358 0.01036 0.0
C445 C 0.66931 0.52628 0.06939 0.0
C446 C 0.66568 0.50277 0.95571 0.0
C447 C 0.7045 0.49079 0.033 0.0
C448 C 0.73148 0.49766 0.02065 0.0
C449 C 0.75265 0.47929 0.03855 0.0
C450 C 0.74591 0.45358 0.07029 0.0
C451 C 0.71828 0.4466 0.08343 0.0
C452 C 0.69755 0.46551 0.06384 0.0
H453 H 0.33579 0.4596 0.44112 0.0
H454 H 0.24905 0.44587 0.41022 0.0
H455 H 0.23946 0.4918 0.46631 0.0
H456 H 0.33179 0.49209 0.60175 0.0
H457 H 0.35949 0.51604 0.58419 0.0
H458 H 0.35837 0.48199 0.54441 0.0
H459 H 0.36105 0.5062 0.42864 0.0
H460 H 0.36193 0.54034 0.468 0.0
H461 H 0.33607 0.53255 0.40659 0.0
H462 H 0.24083 0.54147 0.52578 0.0
H463 H 0.25275 0.58677 0.58179 0.0
H464 H 0.33866 0.56536 0.56732 0.0
C465 C 0.31464 0.46595 0.44623 0.0
C466 C 0.29314 0.44905 0.42128 0.0
C467 C 0.26585 0.4584 0.42927 0.0
C468 C 0.26028 0.4845 0.46084 0.0
C469 C 0.28223 0.50084 0.4839 0.0
C470 C 0.30885 0.49163 0.47685 0.0
C471 C 0.32921 0.51266 0.50394 0.0
C472 C 0.34567 0.49993 0.56202 0.0
C473 C 0.34817 0.52358 0.44848 0.0
C474 C 0.31009 0.53543 0.52776 0.0
C475 C 0.28302 0.52854 0.51618 0.0
C476 C 0.26199 0.54689 0.53486 0.0
C477 C 0.26893 0.57262 0.56645 0.0
C478 C 0.29664 0.57968 0.57881 0.0
C479 C 0.31726 0.56076 0.55863 0.0
H480 H 0.80841 0.02999 0.84457 0.0
H481 H 0.85992 0.09113 0.94351 0.0
H482 H 0.87266 0.05521 0.0284 0.0
H483 H 0.78061 1.00124 0.98162 0.0
H484 H 0.77948 0.9652 0.9528 0.0
H485 H 0.77911 0.9936 0.89362 0.0
H486 H 0.82174 0.97291 0.83484 0.0
H487 H 0.82207 0.94409 0.89349 0.0
H488 H 0.85213 0.96563 0.88275 0.0
H489 H 0.8722 0.01501 0.11325 0.0
H490 H 0.86039 0.97451 0.18573 0.0
H491 H 0.81138 0.93902 0.02604 0.0
C492 C 0.8233 0.03524 0.88261 0.0
C493 C 0.83367 0.06288 0.88745 0.0
C494 C 0.85238 0.06973 0.93868 0.0
C495 C 0.85958 0.0495 0.98698 0.0
C496 C 0.8482 0.02249 0.98226 0.0
C497 C 0.83088 0.01524 0.93033 0.0
C498 C 0.81923 0.98592 0.93938 0.0
C499 C 0.78776 0.98656 0.94205 0.0
C500 C 0.82941 0.96596 0.88435 0.0
C501 C 0.83144 0.97832 1.00625 0.0
C502 C 0.84836 0.99941 0.03013 0.0
C503 C 0.85955 0.99807 0.0942 0.0
C504 C 0.85279 0.97492 0.13507 0.0
C505 C 0.83485 0.95355 0.11184 0.0
C506 C 0.82495 0.95503 0.04572 0.0
H507 H 0.15548 0.05868 0.57703 0.0
H508 H 0.23847 0.07504 0.64189 0.0
H509 H 0.2555 0.03943 0.56173 0.0
H510 H 0.16439 0.98273 0.55973 0.0
H511 H 0.14217 0.97993 0.48827 0.0
H512 H 0.13665 1.00734 0.54906 0.0
H513 H 0.13941 0.0449 0.45556 0.0
H514 H 0.14533 0.01762 0.39461 0.0
H515 H 0.16927 0.04635 0.40316 0.0
H516 H 0.26362 1.00456 0.47189 0.0
H517 H 0.26273 0.96592 0.39044 0.0
H518 H 0.17408 0.96806 0.38802 0.0
C519 C 0.1772 0.05457 0.57419 0.0
C520 C 0.1958 0.06954 0.61524 0.0
C521 C 0.22403 0.06358 0.61113 0.0
C522 C 0.23382 0.04364 0.56539 0.0
C523 C 0.21503 0.02953 0.52493 0.0
C524 C 0.18727 0.0342 0.52977 0.0
C525 C 0.1715 0.01483 0.48295 0.0
C526 C 0.15256 0.99503 0.52236 0.0
C527 C 0.15543 0.03196 0.43099 0.0
C528 C 0.1948 0.99865 0.45075 0.0
C529 C 0.21968 1.00796 0.47519 0.0
C530 C 0.24427 0.99678 0.45319 0.0
C531 C 0.2435 0.97471 0.40701 0.0
C532 C 0.21831 0.96347 0.38385 0.0
C533 C 0.1936 0.97619 0.40472 0.0
H534 H 0.17363 0.06726 0.94749 0.0
H535 H 0.2574 0.08063 0.88489 0.0
H536 H 0.271 0.03637 0.94309 0.0
H537 H 0.18815 0.04038 0.10952 0.0
H538 H 0.16016 0.01563 0.10703 0.0
H539 H 0.15806 0.04813 0.06094 0.0
H540 H 0.14873 0.01995 0.95221 0.0
H541 H 0.15079 0.98737 0.99798 0.0
H542 H 0.17246 0.99296 0.92664 0.0
H543 H 0.27412 0.98843 0.00987 0.0
H544 H 0.26618 0.94438 0.07515 0.0
H545 H 0.18029 0.96599 0.09012 0.0
C546 C 0.19492 0.06107 0.94581 0.0
C547 C 0.21446 0.07742 0.91158 0.0
C548 C 0.24207 0.0684 0.91092 0.0
C549 C 0.24993 0.04331 0.94383 0.0
C550 C 0.22992 0.02763 0.97711 0.0
C551 C 0.20298 0.03643 0.97805 0.0
C552 C 0.18496 0.01637 0.01618 0.0
C553 C 0.17209 0.031 0.07702 0.0
C554 C 0.16295 1.0034 0.97052 0.0
C555 C 0.20579 0.99468 0.03694 0.0
C556 C 0.23169 1.00116 0.01435 0.0
C557 C 0.25386 0.98334 0.02776 0.0
C558 C 0.24922 0.9584 0.06486 0.0
C559 C 0.22265 0.95169 0.0879 0.0
C560 C 0.20093 0.97032 0.07361 0.0
H561 H 0.84119 0.06818 0.56764 0.0
H562 H 0.75434 0.08149 0.59686 0.0
H563 H 0.7446 0.03742 0.534 0.0
H564 H 0.83694 0.03994 0.40084 0.0
H565 H 0.86425 0.01513 0.4148 0.0
H566 H 0.86372 0.04807 0.45966 0.0
H567 H 0.86603 0.02081 0.57163 0.0
H568 H 0.86646 0.9878 0.52717 0.0
H569 H 0.8407 0.99422 0.58946 0.0
H570 H 0.7452 0.99005 0.47015 0.0
H571 H 0.75612 0.94532 0.41113 0.0
H572 H 0.8425 0.96503 0.42628 0.0
C573 C 0.82006 0.06203 0.56055 0.0
C574 C 0.79851 0.07825 0.58705 0.0
C575 C 0.77117 0.06937 0.57671 0.0
C576 C 0.76547 0.04438 0.54118 0.0
C577 C 0.78734 0.0287 0.51627 0.0
C578 C 0.81407 0.03737 0.52544 0.0
C579 C 0.83411 0.01681 0.49531 0.0
C580 C 0.85072 0.03083 0.43933 0.0
C581 C 0.85292 1.00417 0.54911 0.0
C582 C 0.81459 0.99499 0.46798 0.0
C583 C 0.78767 1.00204 0.48021 0.0
C584 C 0.76623 0.98446 0.46011 0.0
C585 C 0.77259 0.95912 0.42672 0.0
C586 C 0.80013 0.95173 0.41402 0.0
C587 C 0.82122 0.97005 0.43495 0.0
H588 H 0.25302 0.32008 0.21744 0.0
H589 H 0.33625 0.30639 0.15126 0.0
H590 H 0.3223 0.26197 0.09672 0.0
H591 H 0.23452 0.24491 0.24326 0.0
H592 H 0.2005 0.24952 0.21048 0.0
H593 H 0.21751 0.27846 0.25173 0.0
H594 H 0.21021 0.30977 0.14735 0.0
H595 H 0.19321 0.28097 0.1059 0.0
H596 H 0.22233 0.29762 0.06751 0.0
H597 H 0.29918 0.22082 0.04319 0.0
H598 H 0.26796 0.18675 0.9899 0.0
H599 H 0.19908 0.22827 0.08479 0.0
C600 C 0.2683 0.30732 0.1927 0.0
C601 C 0.29572 0.31645 0.18886 0.0
C602 C 0.31512 0.29969 0.15465 0.0
C603 C 0.30744 0.27437 0.12382 0.0
C604 C 0.28018 0.26614 0.12712 0.0
C605 C 0.26084 0.2821 0.1604 0.0
C606 C 0.23251 0.26966 0.15106 0.0
C607 C 0.22056 0.26006 0.21813 0.0
C608 C 0.21345 0.29076 0.11585 0.0
C609 C 0.23898 0.24459 0.1066 0.0
C610 C 0.26664 0.24274 0.09423 0.0
C611 C 0.27745 0.22196 0.05271 0.0
C612 C 0.25948 0.20277 0.02222 0.0
C613 C 0.23089 0.2046 0.03263 0.0
C614 C 0.22073 0.22571 0.07629 0.0
H615 H 0.72592 0.70078 0.60238 0.0
H616 H 0.73509 0.7267 0.80885 0.0
H617 H 0.75846 0.77019 0.77229 0.0
H618 H 0.79191 0.72559 0.54862 0.0
H619 H 0.78007 0.73691 0.46781 0.0
H620 H 0.76316 0.70824 0.50989 0.0
H621 H 0.71705 0.73474 0.50006 0.0
H622 H 0.73392 0.76352 0.45823 0.0
H623 H 0.7142 0.77014 0.53244 0.0
H624 H 0.77978 0.81094 0.71423 0.0
H625 H 0.80134 0.84514 0.63941 0.0
H626 H 0.78125 0.7921 0.46933 0.0
C627 C 0.73276 0.7157 0.63984 0.0
C628 C 0.72861 0.71043 0.70854 0.0
C629 C 0.73815 0.73023 0.75607 0.0
C630 C 0.75131 0.75506 0.73574 0.0
C631 C 0.75501 0.75965 0.66774 0.0
C632 C 0.7463 0.74045 0.62042 0.0
C633 C 0.7539 0.75009 0.55064 0.0
C634 C 0.77343 0.72895 0.5173 0.0
C635 C 0.72823 0.75491 0.50784 0.0
C636 C 0.76823 0.77775 0.56627 0.0
C637 C 0.76834 0.78287 0.6341 0.0
C638 C 0.7801 0.80703 0.66108 0.0
C639 C 0.79254 0.82629 0.61787 0.0
C640 C 0.79355 0.82127 0.54811 0.0
C641 C 0.78083 0.79672 0.52215 0.0
H642 H 0.21449 0.83278 0.87973 0.0
H643 H 0.21876 0.78685 0.06616 0.0
H644 H 0.24002 0.74646 0.00829 0.0
H645 H 0.20097 0.77172 0.77095 0.0
H646 H 0.22239 0.78462 0.7046 0.0
H647 H 0.20549 0.80918 0.75942 0.0
H648 H 0.25214 0.83212 0.78804 0.0
H649 H 0.26915 0.80757 0.73352 0.0
H650 H 0.27946 0.81036 0.81958 0.0
H651 H 0.26167 0.71169 0.93204 0.0
H652 H 0.28435 0.68502 0.84257 0.0
H653 H 0.26832 0.75366 0.70442 0.0
C654 C 0.21952 0.81397 0.9078 0.0
C655 C 0.21488 0.81277 0.97731 0.0
C656 C 0.22224 0.78813 0.01296 0.0
C657 C 0.23421 0.76508 0.98048 0.0
C658 C 0.23892 0.76702 0.91222 0.0
C659 C 0.23194 0.79082 0.87613 0.0
C660 C 0.24078 0.78786 0.80389 0.0
C661 C 0.21592 0.78837 0.75694 0.0
C662 C 0.26162 0.81085 0.78518 0.0
C663 C 0.25395 0.75883 0.80536 0.0
C664 C 0.25232 0.74714 0.86827 0.0
C665 C 0.26303 0.72059 0.88249 0.0
C666 C 0.27587 0.70557 0.83116 0.0
C667 C 0.27821 0.71719 0.7663 0.0
C668 C 0.26697 0.74421 0.75344 0.0
H669 H 0.76123 0.32253 0.29693 0.0
H670 H 0.67704 0.30474 0.34909 0.0
H671 H 0.69157 0.26197 0.40953 0.0
H672 H 0.78431 0.24771 0.28101 0.0
H673 H 0.81698 0.25495 0.31904 0.0
H674 H 0.79979 0.28205 0.27194 0.0
H675 H 0.80248 0.31553 0.37391 0.0
H676 H 0.81947 0.28851 0.42143 0.0
H677 H 0.78848 0.30423 0.45257 0.0
H678 H 0.71492 0.22399 0.47216 0.0
H679 H 0.74596 0.19239 0.53338 0.0
H680 H 0.81571 0.23511 0.44575 0.0
C681 C 0.74592 0.30906 0.31948 0.0
C682 C 0.71802 0.31653 0.31784 0.0
C683 C 0.6985 0.29911 0.34962 0.0
C684 C 0.70654 0.2748 0.38391 0.0
C685 C 0.73424 0.26828 0.38638 0.0
C686 C 0.7537 0.28478 0.355 0.0
C687 C 0.78228 0.2742 0.37057 0.0
C688 C 0.79669 0.26413 0.30684 0.0
C689 C 0.79916 0.29698 0.40678 0.0
C690 C 0.77576 0.24961 0.4164 0.0
C691 C 0.7479 0.24648 0.42421 0.0
C692 C 0.7368 0.22607 0.46613 0.0
C693 C 0.75463 0.20836 0.50124 0.0
C694 C 0.78333 0.21122 0.49469 0.0
C695 C 0.79391 0.23206 0.45114 0.0
H696 H 0.72433 0.69333 0.12464 0.0
H697 H 0.71559 0.74421 0.94655 0.0
H698 H 0.73938 0.78378 1.0023 0.0
H699 H 0.71662 0.75015 0.24678 0.0
H700 H 0.74251 0.73656 0.30211 0.0
H701 H 0.72318 0.71273 0.25014 0.0
H702 H 0.76819 0.69306 0.20081 0.0
H703 H 0.78762 0.7169 0.25245 0.0
H704 H 0.79234 0.71701 0.16336 0.0
H705 H 0.76349 0.81753 0.07579 0.0
H706 H 0.7894 0.84346 0.16137 0.0
H707 H 0.78613 0.77048 0.29175 0.0
C708 C 0.72716 0.71301 0.09812 0.0
C709 C 0.71795 0.71601 0.03161 0.0
C710 C 0.7225 0.7417 0.99752 0.0
C711 C 0.7359 0.76422 0.02881 0.0
C712 C 0.74501 0.76058 0.09405 0.0
C713 C 0.74109 0.73562 0.12837 0.0
C714 C 0.75438 0.73702 0.19691 0.0
C715 C 0.73289 0.73394 0.25226 0.0
C716 C 0.77697 0.71467 0.20375 0.0
C717 C 0.76626 0.76666 0.19557 0.0
C718 C 0.76025 0.77986 0.13588 0.0
C719 C 0.76836 0.80744 0.1227 0.0
C720 C 0.78296 0.82204 0.1718 0.0
C721 C 0.78968 0.80903 0.23319 0.0
C722 C 0.7814 0.78085 0.24504 0.0
H723 H 0.24332 0.24884 0.7892 0.0
H724 H 0.21357 0.18625 0.64831 0.0
H725 H 0.23487 0.21285 0.55615 0.0
H726 H 0.23376 0.3096 0.68522 0.0
H727 H 0.26453 0.32697 0.71297 0.0
H728 H 0.24688 0.30305 0.7678 0.0
H729 H 0.29123 0.27383 0.7821 0.0
H730 H 0.30902 0.29762 0.72718 0.0
H731 H 0.3084 0.26032 0.70933 0.0
H732 H 0.25818 0.247 0.47894 0.0
H733 H 0.28338 0.28539 0.4226 0.0
H734 H 0.29934 0.32487 0.61379 0.0
C735 C 0.2412 0.24074 0.73895 0.0
C736 C 0.22665 0.2155 0.72597 0.0
C737 C 0.22462 0.2055 0.65954 0.0
C738 C 0.23663 0.22048 0.60683 0.0
C739 C 0.25081 0.24527 0.62139 0.0
C740 C 0.25331 0.25525 0.68584 0.0
C741 C 0.26992 0.28228 0.68806 0.0
C742 C 0.25274 0.30693 0.7151 0.0
C743 C 0.2962 0.27826 0.7291 0.0
C744 C 0.27622 0.28607 0.61469 0.0
C745 C 0.26489 0.26455 0.57708 0.0
C746 C 0.26724 0.26388 0.50791 0.0
C747 C 0.28147 0.28582 0.47634 0.0
C748 C 0.29336 0.30803 0.51385 0.0
C749 C 0.2908 0.30796 0.584 0.0
H750 H 0.80617 0.24785 0.80801 0.0
H751 H 0.74464 0.18327 0.77481 0.0
H752 H 0.71195 0.21021 0.84346 0.0
H753 H 0.78856 0.26077 0.98007 0.0
H754 H 0.79502 0.2982 0.9758 0.0
H755 H 0.81347 0.27437 0.92226 0.0
H756 H 0.79717 0.30234 0.81865 0.0
H757 H 0.77875 0.32631 0.87187 0.0
H758 H 0.76112 0.30798 0.80577 0.0
H759 H 0.68549 0.24468 0.91194 0.0
H760 H 0.66763 0.28349 0.98196 0.0
H761 H 0.74684 0.32433 0.97766 0.0
C762 C 0.78575 0.23952 0.81487 0.0
C763 C 0.77782 0.21359 0.78571 0.0
C764 C 0.7511 0.20311 0.79668 0.0
C765 C 0.73239 0.21826 0.8355 0.0
C766 C 0.74084 0.24367 0.8638 0.0
C767 C 0.76693 0.25415 0.85458 0.0
C768 C 0.77097 0.28161 0.89235 0.0
C769 C 0.79333 0.27854 0.94579 0.0
C770 C 0.77737 0.306 0.84428 0.0
C771 C 0.74299 0.28503 0.92367 0.0
C772 C 0.72589 0.26299 0.90602 0.0
C773 C 0.69873 0.26193 0.92653 0.0
C774 C 0.68874 0.28404 0.96598 0.0
C775 C 0.70593 0.30666 0.98525 0.0
C776 C 0.73346 0.30701 0.96426 0.0
H777 H 0.21282 0.80901 0.38898 0.0
H778 H 0.25428 0.80946 0.19778 0.0
H779 H 0.28236 0.76891 0.23396 0.0
H780 H 0.27088 0.79412 0.48691 0.0
H781 H 0.25306 0.77178 0.54514 0.0
H782 H 0.23496 0.79941 0.50232 0.0
H783 H 0.20001 0.76278 0.4578 0.0
H784 H 0.21809 0.735 0.50046 0.0
H785 H 0.21201 0.73247 0.41201 0.0
H786 H 0.3081 0.73048 0.29411 0.0
H787 H 0.32931 0.69704 0.37344 0.0
H788 H 0.2707 0.72165 0.52441 0.0
C789 C 0.22756 0.80041 0.35427 0.0
C790 C 0.23131 0.81243 0.29044 0.0
C791 C 0.25102 0.80063 0.24691 0.0
C792 C 0.26702 0.77756 0.26696 0.0
C793 C 0.26299 0.76645 0.33054 0.0
C794 C 0.24368 0.77744 0.37347 0.0
C795 C 0.24417 0.7625 0.4402 0.0
C796 C 0.25119 0.78318 0.49697 0.0
C797 C 0.21695 0.74728 0.45336 0.0
C798 C 0.26708 0.74164 0.42851 0.0
C799 C 0.27761 0.74417 0.36488 0.0
C800 C 0.29984 0.72813 0.34379 0.0
C801 C 0.31182 0.7093 0.38918 0.0
C802 C 0.30152 0.7066 0.4548 0.0
C803 C 0.27862 0.72276 0.47414 0.0
loop_
_geom_bond_atom_site_label_1
_geom_bond_atom_site_label_2
_geom_bond_distance
_geom_bond_site_symmetry_2
_ccdc_geom_bond_type
Co0 N4 2.148 . S
Co0 N10 2.128 . S
Co0 N20 2.194 . S
Co0 O25 2.351 . S
Co0 O26 2.155 . S
Co0 O27 2.096 . S
C1 N4 1.301 . S
C1 N5 1.328 . S
C1 H6 0.930 . S
C2 C3 1.333 . S
C2 N4 1.317 . S
C2 H7 0.930 . S
C3 C2 1.333 . S
C3 N5 1.350 . S
C3 H29 0.931 . S
N4 Co0 2.148 . S
N4 C1 1.301 . S
N4 C2 1.317 . S
N5 C1 1.328 . S
N5 C3 1.350 . S
H6 C1 0.930 . S
H7 C2 0.930 . S
C8 O9 1.224 . S
C8 O27 1.247 . S
O9 C8 1.224 . S
N10 Co0 2.128 . S
N10 C11 1.355 . S
N10 C13 1.311 . S
C11 N10 1.355 . S
C11 C12 1.363 . S
C11 H23 0.929 . S
C12 C11 1.363 . S
C12 N14 1.375 . S
C12 H30 0.931 . S
C13 N10 1.311 . S
C13 N14 1.347 . S
C13 H24 0.929 . S
N14 C12 1.375 . S
N14 C13 1.347 . S
C15 C18 1.365 . S
C15 N20 1.328 . S
C15 H21 0.929 . S
C16 C17 1.362 . S
C16 C19 1.378 . S
C16 H31 0.929 . S
C17 C16 1.362 . S
C17 C18 1.366 . S
C18 C15 1.365 . S
C18 C17 1.366 . S
C18 H32 0.930 . S
C19 C16 1.378 . S
C19 N20 1.315 . S
C19 H22 0.930 . S
N20 Co0 2.194 . S
N20 C15 1.328 . S
N20 C19 1.315 . S
H21 C15 0.929 . S
H22 C19 0.930 . S
H23 C11 0.929 . S
H24 C13 0.929 . S
O25 Co0 2.351 . S
O25 C28 1.244 . S
O26 Co0 2.155 . S
O26 C28 1.240 . S
O27 Co0 2.096 . S
O27 C8 1.247 . S
C28 O25 1.244 . S
C28 O26 1.240 . S
H29 C3 0.931 . S
H30 C12 0.931 . S
H31 C16 0.929 . S
H32 C18 0.930 . S
Co33 N37 2.148 . S
Co33 N43 2.128 . S
Co33 N53 2.194 . S
Co33 O58 2.351 . S
Co33 O59 2.155 . S
Co33 O60 2.096 . S
C34 N37 1.301 . S
C34 N38 1.328 . S
C34 H39 0.930 . S
C35 C36 1.333 . S
C35 N37 1.317 . S
C35 H40 0.930 . S
C36 C35 1.333 . S
C36 N38 1.350 . S
C36 H62 0.931 . S
N37 Co33 2.148 . S
N37 C34 1.301 . S
N37 C35 1.317 . S
N38 C34 1.328 . S
N38 C36 1.350 . S
H39 C34 0.930 . S
H40 C35 0.930 . S
C41 O42 1.224 . S
C41 O60 1.247 . S
O42 C41 1.224 . S
N43 Co33 2.128 . S
N43 C44 1.355 . S
N43 C46 1.311 . S
C44 N43 1.355 . S
C44 C45 1.363 . S
C44 H56 0.929 . S
C45 C44 1.363 . S
C45 N47 1.375 . S
C45 H63 0.927 1_556 S
C46 N43 1.311 . S
C46 N47 1.347 . S
C46 H57 0.929 . S
N47 C45 1.375 . S
N47 C46 1.347 . S
C48 C51 1.365 . S
C48 N53 1.328 . S
C48 H54 0.929 . S
C49 C50 1.362 . S
C49 C52 1.378 . S
C49 H64 0.929 . S
C50 C49 1.362 . S
C50 C51 1.366 . S
C51 C48 1.365 . S
C51 C50 1.366 . S
C51 H65 0.930 . S
C52 C49 1.378 . S
C52 N53 1.315 . S
C52 H55 0.930 . S
N53 Co33 2.194 . S
N53 C48 1.328 . S
N53 C52 1.315 . S
H54 C48 0.929 . S
H55 C52 0.930 . S
H56 C44 0.929 . S
H57 C46 0.929 . S
O58 Co33 2.351 . S
O58 C61 1.244 . S
O59 Co33 2.155 . S
O59 C61 1.240 . S
O60 Co33 2.096 . S
O60 C41 1.247 . S
C61 O58 1.244 . S
C61 O59 1.240 . S
H62 C36 0.931 . S
H63 C45 0.927 1_554 S
H64 C49 0.929 . S
H65 C51 0.930 . S
Co66 N70 2.148 . S
Co66 N76 2.128 . S
Co66 N86 2.194 . S
Co66 O91 2.351 . S
Co66 O92 2.155 . S
Co66 O93 2.096 . S
C67 N70 1.301 . S
C67 N71 1.328 . S
C67 H72 0.930 . S
C68 C69 1.333 . S
C68 N70 1.317 . S
C68 H73 0.930 . S
C69 C68 1.333 . S
C69 N71 1.350 . S
C69 H95 0.931 . S
N70 Co66 2.148 . S
N70 C67 1.301 . S
N70 C68 1.317 . S
N71 C67 1.328 . S
N71 C69 1.350 . S
H72 C67 0.930 . S
H73 C68 0.930 . S
C74 O75 1.224 . S
C74 O93 1.247 . S
O75 C74 1.224 . S
N76 Co66 2.128 . S
N76 C77 1.355 . S
N76 C79 1.311 . S
C77 N76 1.355 . S
C77 C78 1.363 . S
C77 H89 0.929 . S
C78 C77 1.363 . S
C78 N80 1.375 . S
C78 H96 0.931 . S
C79 N76 1.311 . S
C79 N80 1.347 . S
C79 H90 0.929 . S
N80 C78 1.375 . S
N80 C79 1.347 . S
C81 C84 1.365 . S
C81 N86 1.328 . S
C81 H87 0.929 . S
C82 C83 1.362 . S
C82 C85 1.378 . S
C82 H97 0.929 . S
C83 C82 1.362 . S
C83 C84 1.366 . S
C84 C81 1.365 . S
C84 C83 1.366 . S
C84 H98 0.930 . S
C85 C82 1.378 . S
C85 N86 1.315 . S
C85 H88 0.930 . S
N86 Co66 2.194 . S
N86 C81 1.328 . S
N86 C85 1.315 . S
H87 C81 0.929 . S
H88 C85 0.930 . S
H89 C77 0.929 . S
H90 C79 0.929 . S
O91 Co66 2.351 . S
O91 C94 1.244 . S
O92 Co66 2.155 . S
O92 C94 1.240 . S
O93 Co66 2.096 . S
O93 C74 1.247 . S
C94 O91 1.244 . S
C94 O92 1.240 . S
H95 C69 0.931 . S
H96 C78 0.931 . S
H97 C82 0.929 . S
H98 C84 0.930 . S
Co99 N103 2.148 . S
Co99 N109 2.128 . S
Co99 N119 2.194 . S
Co99 O124 2.351 . S
Co99 O125 2.155 . S
Co99 O126 2.096 . S
C100 N103 1.301 . S
C100 N104 1.328 . S
C100 H105 0.930 . S
C101 C102 1.333 . S
C101 N103 1.317 . S
C101 H106 0.930 . S
C102 C101 1.333 . S
C102 N104 1.350 . S
C102 H128 0.931 . S
N103 Co99 2.148 . S
N103 C100 1.301 . S
N103 C101 1.317 . S
N104 C100 1.328 . S
N104 C102 1.350 . S
H105 C100 0.930 . S
H106 C101 0.930 . S
C107 O108 1.224 . S
C107 O126 1.247 . S
O108 C107 1.224 . S
N109 Co99 2.128 . S
N109 C110 1.355 . S
N109 C112 1.311 . S
C110 N109 1.355 . S
C110 C111 1.363 . S
C110 H122 0.929 . S
C111 C110 1.363 . S
C111 N113 1.375 . S
C111 H129 0.927 1_554 S
C112 N109 1.311 . S
C112 N113 1.347 . S
C112 H123 0.929 . S
N113 C111 1.375 . S
N113 C112 1.347 . S
C114 C117 1.365 . S
C114 N119 1.328 . S
C114 H120 0.929 . S
C115 C116 1.362 . S
C115 C118 1.378 . S
C115 H130 0.929 . S
C116 C115 1.362 . S
C116 C117 1.366 . S
C117 C114 1.365 . S
C117 C116 1.366 . S
C117 H131 0.930 . S
C118 C115 1.378 . S
C118 N119 1.315 . S
C118 H121 0.930 . S
N119 Co99 2.194 . S
N119 C114 1.328 . S
N119 C118 1.315 . S
H120 C114 0.929 . S
H121 C118 0.930 . S
H122 C110 0.929 . S
H123 C112 0.929 . S
O124 Co99 2.351 . S
O124 C127 1.244 . S
O125 Co99 2.155 . S
O125 C127 1.240 . S
O126 Co99 2.096 . S
O126 C107 1.247 . S
C127 O124 1.244 . S
C127 O125 1.240 . S
H128 C102 0.931 . S
H129 C111 0.927 1_556 S
H130 C115 0.929 . S
H131 C117 0.930 . S
Co132 N136 2.148 . S
Co132 N142 2.128 . S
Co132 N152 2.194 . S
Co132 O157 2.351 . S
Co132 O158 2.155 . S
Co132 O159 2.096 . S
C133 N136 1.301 . S
C133 N137 1.328 . S
C133 H138 0.930 . S
C134 C135 1.333 . S
C134 N136 1.317 . S
C134 H139 0.930 . S
C135 C134 1.333 . S
C135 N137 1.350 . S
C135 H161 0.931 . S
N136 Co132 2.148 . S
N136 C133 1.301 . S
N136 C134 1.317 . S
N137 C133 1.328 . S
N137 C135 1.350 . S
H138 C133 0.930 . S
H139 C134 0.930 . S
C140 O141 1.224 . S
C140 O159 1.247 . S
O141 C140 1.224 . S
N142 Co132 2.128 . S
N142 C143 1.355 . S
N142 C145 1.311 . S
C143 N142 1.355 . S
C143 C144 1.363 . S
C143 H155 0.929 . S
C144 C143 1.363 . S
C144 N146 1.375 . S
C144 H162 0.931 . S
C145 N142 1.311 . S
C145 N146 1.347 . S
C145 H156 0.929 . S
N146 C144 1.375 . S
N146 C145 1.347 . S
C147 C150 1.365 . S
C147 N152 1.328 . S
C147 H153 0.929 . S
C148 C149 1.362 . S
C148 C151 1.378 . S
C148 H163 0.929 . S
C149 C148 1.362 . S
C149 C150 1.366 . S
C150 C147 1.365 . S
C150 C149 1.366 . S
C150 H164 0.930 . S
C151 C148 1.378 . S
C151 N152 1.315 . S
C151 H154 0.930 . S
N152 Co132 2.194 . S
N152 C147 1.328 . S
N152 C151 1.315 . S
H153 C147 0.929 . S
H154 C151 0.930 . S
H155 C143 0.929 . S
H156 C145 0.929 . S
O157 Co132 2.351 . S
O157 C160 1.244 . S
O158 Co132 2.155 . S
O158 C160 1.240 . S
O159 Co132 2.096 . S
O159 C140 1.247 . S
C160 O157 1.244 . S
C160 O158 1.240 . S
H161 C135 0.931 . S
H162 C144 0.931 . S
H163 C148 0.929 . S
H164 C150 0.930 . S
Co165 N169 2.148 . S
Co165 N175 2.128 . S
Co165 N185 2.194 . S
Co165 O190 2.351 . S
Co165 O191 2.155 . S
Co165 O192 2.096 . S
C166 N169 1.301 . S
C166 N170 1.328 . S
C166 H171 0.930 . S
C167 C168 1.333 . S
C167 N169 1.317 . S
C167 H172 0.930 . S
C168 C167 1.333 . S
C168 N170 1.350 . S
C168 H194 0.931 . S
N169 Co165 2.148 . S
N169 C166 1.301 . S
N169 C167 1.317 . S
N170 C166 1.328 . S
N170 C168 1.350 . S
H171 C166 0.930 . S
H172 C167 0.930 . S
C173 O174 1.224 . S
C173 O192 1.247 . S
O174 C173 1.224 . S
N175 Co165 2.128 . S
N175 C176 1.355 . S
N175 C178 1.311 . S
C176 N175 1.355 . S
C176 C177 1.363 . S
C176 H188 0.929 . S
C177 C176 1.363 . S
C177 N179 1.375 . S
C177 H195 0.927 1_556 S
C178 N175 1.311 . S
C178 N179 1.347 . S
C178 H189 0.929 . S
N179 C177 1.375 . S
N179 C178 1.347 . S
C180 C183 1.365 . S
C180 N185 1.328 . S
C180 H186 0.929 . S
C181 C182 1.362 . S
C181 C184 1.378 . S
C181 H196 0.929 . S
C182 C181 1.362 . S
C182 C183 1.366 . S
C183 C180 1.365 . S
C183 C182 1.366 . S
C183 H197 0.930 . S
C184 C181 1.378 . S
C184 N185 1.315 . S
C184 H187 0.930 . S
N185 Co165 2.194 . S
N185 C180 1.328 . S
N185 C184 1.315 . S
H186 C180 0.929 . S
H187 C184 0.930 . S
H188 C176 0.929 . S
H189 C178 0.929 . S
O190 Co165 2.351 . S
O190 C193 1.244 . S
O191 Co165 2.155 . S
O191 C193 1.240 . S
O192 Co165 2.096 . S
O192 C173 1.247 . S
C193 O190 1.244 . S
C193 O191 1.240 . S
H194 C168 0.931 . S
H195 C177 0.927 1_554 S
H196 C181 0.929 . S
H197 C183 0.930 . S
Co198 N202 2.148 . S
Co198 N208 2.128 . S
Co198 N218 2.194 . S
Co198 O223 2.351 . S
Co198 O224 2.155 . S
Co198 O225 2.096 . S
C199 N202 1.301 . S
C199 N203 1.328 . S
C199 H204 0.930 . S
C200 C201 1.333 . S
C200 N202 1.317 . S
C200 H205 0.930 . S
C201 C200 1.333 . S
C201 N203 1.350 . S
C201 H227 0.931 . S
N202 Co198 2.148 . S
N202 C199 1.301 . S
N202 C200 1.317 . S
N203 C199 1.328 . S
N203 C201 1.350 . S
H204 C199 0.930 . S
H205 C200 0.930 . S
C206 O207 1.224 . S
C206 O225 1.247 . S
O207 C206 1.224 . S
N208 Co198 2.128 . S
N208 C209 1.355 . S
N208 C211 1.311 . S
C209 N208 1.355 . S
C209 C210 1.363 . S
C209 H221 0.929 . S
C210 C209 1.363 . S
C210 N212 1.375 . S
C210 H228 0.931 . S
C211 N208 1.311 . S
C211 N212 1.347 . S
C211 H222 0.929 . S
N212 C210 1.375 . S
N212 C211 1.347 . S
C213 C216 1.365 . S
C213 N218 1.328 . S
C213 H219 0.929 . S
C214 C215 1.362 . S
C214 C217 1.378 . S
C214 H229 0.929 . S
C215 C214 1.362 . S
C215 C216 1.366 . S
C216 C213 1.365 . S
C216 C215 1.366 . S
C216 H230 0.930 . S
C217 C214 1.378 . S
C217 N218 1.315 . S
C217 H220 0.930 . S
N218 Co198 2.194 . S
N218 C213 1.328 . S
N218 C217 1.315 . S
H219 C213 0.929 . S
H220 C217 0.930 . S
H221 C209 0.929 . S
H222 C211 0.929 . S
O223 Co198 2.351 . S
O223 C226 1.244 . S
O224 Co198 2.155 . S
O224 C226 1.240 . S
O225 Co198 2.096 . S
O225 C206 1.247 . S
C226 O223 1.244 . S
C226 O224 1.240 . S
H227 C201 0.931 . S
H228 C210 0.931 . S
H229 C214 0.929 . S
H230 C216 0.930 . S
Co231 N235 2.148 . S
Co231 N241 2.128 . S
Co231 N251 2.194 . S
Co231 O256 2.351 . S
Co231 O257 2.155 . S
Co231 O258 2.096 . S
C232 N235 1.301 . S
C232 N236 1.328 . S
C232 H237 0.930 . S
C233 C234 1.333 . S
C233 N235 1.317 . S
C233 H238 0.930 . S
C234 C233 1.333 . S
C234 N236 1.350 . S
C234 H260 0.931 . S
N235 Co231 2.148 . S
N235 C232 1.301 . S
N235 C233 1.317 . S
N236 C232 1.328 . S
N236 C234 1.350 . S
H237 C232 0.930 . S
H238 C233 0.930 . S
C239 O240 1.224 . S
C239 O258 1.247 . S
O240 C239 1.224 . S
N241 Co231 2.128 . S
N241 C242 1.355 . S
N241 C244 1.311 . S
C242 N241 1.355 . S
C242 C243 1.363 . S
C242 H254 0.929 . S
C243 C242 1.363 . S
C243 N245 1.375 . S
C243 H261 0.927 1_554 S
C244 N241 1.311 . S
C244 N245 1.347 . S
C244 H255 0.929 . S
N245 C243 1.375 . S
N245 C244 1.347 . S
C246 C249 1.365 . S
C246 N251 1.328 . S
C246 H252 0.929 . S
C247 C248 1.362 . S
C247 C250 1.378 . S
C247 H262 0.929 . S
C248 C247 1.362 . S
C248 C249 1.366 . S
C249 C246 1.365 . S
C249 C248 1.366 . S
C249 H263 0.930 . S
C250 C247 1.378 . S
C250 N251 1.315 . S
C250 H253 0.930 . S
N251 Co231 2.194 . S
N251 C246 1.328 . S
N251 C250 1.315 . S
H252 C246 0.929 . S
H253 C250 0.930 . S
H254 C242 0.929 . S
H255 C244 0.929 . S
O256 Co231 2.351 . S
O256 C259 1.244 . S
O257 Co231 2.155 . S
O257 C259 1.240 . S
O258 Co231 2.096 . S
O258 C239 1.247 . S
C259 O256 1.244 . S
C259 O257 1.240 . S
H260 C234 0.931 . S
H261 C243 0.927 1_556 S
H262 C247 0.929 . S
H263 C249 0.930 . S
H264 C276 0.930 . S
H265 C278 0.930 . S
H266 C279 0.930 . S
H267 C283 0.959 . S
H268 C283 0.959 . S
H269 C283 0.961 . S
H270 C284 0.960 . S
H271 C284 0.961 . S
H272 C284 0.959 . S
H273 C287 0.929 . S
H274 C288 0.931 . S
H275 C290 0.930 . S
C276 H264 0.930 . S
C276 C277 1.399 . S
C276 C281 1.399 . S
C277 C276 1.399 . S
C277 C278 1.376 . S
C278 H265 0.930 . S
C278 C277 1.376 . S
C278 C279 1.388 . S
C279 H266 0.930 . S
C279 C278 1.388 . S
C279 C280 1.390 . S
C280 C279 1.390 . S
C280 C281 1.394 . S
C280 C286 1.465 . S
C281 C276 1.399 . S
C281 C280 1.394 . S
C281 C282 1.516 . S
C282 C281 1.516 . S
C282 C283 1.502 . S
C282 C284 1.561 . S
C282 C285 1.526 . S
C283 H267 0.959 . S
C283 H268 0.959 . S
C283 H269 0.961 . S
C283 C282 1.502 . S
C284 H270 0.960 . S
C284 H271 0.961 . S
C284 H272 0.959 . S
C284 C282 1.561 . S
C285 C282 1.526 . S
C285 C286 1.396 . S
C285 C290 1.390 . S
C286 C280 1.465 . S
C286 C285 1.396 . S
C286 C287 1.399 . S
C287 H273 0.929 . S
C287 C286 1.399 . S
C287 C288 1.385 . S
C288 H274 0.931 . S
C288 C287 1.385 . S
C288 C289 1.389 . S
C289 C288 1.389 . S
C289 C290 1.387 . S
C290 H275 0.930 . S
C290 C285 1.390 . S
C290 C289 1.387 . S
H291 C303 0.930 . S
H292 C305 0.930 . S
H293 C306 0.930 . S
H294 C310 0.959 . S
H295 C310 0.959 . S
H296 C310 0.961 . S
H297 C311 0.960 . S
H298 C311 0.961 . S
H299 C311 0.959 . S
H300 C314 0.929 . S
H301 C315 0.931 . S
H302 C317 0.930 . S
C303 H291 0.930 . S
C303 C304 1.399 . S
C303 C308 1.399 . S
C304 C303 1.399 . S
C304 C305 1.376 . S
C305 H292 0.930 . S
C305 C304 1.376 . S
C305 C306 1.388 . S
C306 H293 0.930 . S
C306 C305 1.388 . S
C306 C307 1.390 . S
C307 C306 1.390 . S
C307 C308 1.394 . S
C307 C313 1.465 . S
C308 C303 1.399 . S
C308 C307 1.394 . S
C308 C309 1.516 . S
C309 C308 1.516 . S
C309 C310 1.502 . S
C309 C311 1.561 . S
C309 C312 1.526 . S
C310 H294 0.959 . S
C310 H295 0.959 . S
C310 H296 0.961 . S
C310 C309 1.502 . S
C311 H297 0.960 . S
C311 H298 0.961 . S
C311 H299 0.959 . S
C311 C309 1.561 . S
C312 C309 1.526 . S
C312 C313 1.396 . S
C312 C317 1.390 . S
C313 C307 1.465 . S
C313 C312 1.396 . S
C313 C314 1.399 . S
C314 H300 0.929 . S
C314 C313 1.399 . S
C314 C315 1.385 . S
C315 H301 0.931 . S
C315 C314 1.385 . S
C315 C316 1.389 . S
C316 C315 1.389 . S
C316 C317 1.387 . S
C317 H302 0.930 . S
C317 C312 1.390 . S
C317 C316 1.387 . S
H318 C330 0.930 . S
H319 C332 0.930 . S
H320 C333 0.930 . S
H321 C337 0.959 . S
H322 C337 0.959 1_655 S
H323 C337 0.961 . S
H324 C338 0.960 1_455 S
H325 C338 0.961 . S
H326 C338 0.959 . S
H327 C341 0.929 . S
H328 C342 0.931 . S
H329 C344 0.930 . S
C330 H318 0.930 . S
C330 C331 1.399 . S
C330 C335 1.399 . S
C331 C330 1.399 . S
C331 C332 1.376 . S
C332 H319 0.930 . S
C332 C331 1.376 . S
C332 C333 1.388 . S
C333 H320 0.930 . S
C333 C332 1.388 . S
C333 C334 1.390 . S
C334 C333 1.390 . S
C334 C335 1.394 . S
C334 C340 1.465 1_455 S
C335 C330 1.399 . S
C335 C334 1.394 . S
C335 C336 1.516 1_455 S
C336 C335 1.516 1_655 S
C336 C337 1.502 1_655 S
C336 C338 1.561 . S
C336 C339 1.526 . S
C337 H321 0.959 . S
C337 H322 0.959 1_455 S
C337 H323 0.961 . S
C337 C336 1.502 1_455 S
C338 H324 0.960 1_655 S
C338 H325 0.961 . S
C338 H326 0.959 . S
C338 C336 1.561 . S
C339 C336 1.526 . S
C339 C340 1.396 . S
C339 C344 1.390 . S
C340 C334 1.465 1_655 S
C340 C339 1.396 . S
C340 C341 1.399 . S
C341 H327 0.929 . S
C341 C340 1.399 . S
C341 C342 1.385 . S
C342 H328 0.931 . S
C342 C341 1.385 . S
C342 C343 1.389 . S
C343 C342 1.389 . S
C343 C344 1.387 . S
C344 H329 0.930 . S
C344 C339 1.390 . S
C344 C343 1.387 . S
H345 C357 0.930 . S
H346 C359 0.930 . S
H347 C360 0.930 . S
H348 C364 0.959 . S
H349 C364 0.959 . S
H350 C364 0.961 1_455 S
H351 C365 0.960 1_455 S
H352 C365 0.961 . S
H353 C365 0.959 . S
H354 C368 0.929 . S
H355 C369 0.931 . S
H356 C371 0.930 . S
C357 H345 0.930 . S
C357 C358 1.399 . S
C357 C362 1.399 . S
C358 C357 1.399 . S
C358 C359 1.376 . S
C359 H346 0.930 . S
C359 C358 1.376 . S
C359 C360 1.388 . S
C360 H347 0.930 . S
C360 C359 1.388 . S
C360 C361 1.390 . S
C361 C360 1.390 . S
C361 C362 1.394 . S
C361 C367 1.465 1_455 S
C362 C357 1.399 . S
C362 C361 1.394 . S
C362 C363 1.516 1_455 S
C363 C362 1.516 1_655 S
C363 C364 1.502 . S
C363 C365 1.561 . S
C363 C366 1.526 . S
C364 H348 0.959 . S
C364 H349 0.959 . S
C364 H350 0.961 1_655 S
C364 C363 1.502 . S
C365 H351 0.960 1_655 S
C365 H352 0.961 . S
C365 H353 0.959 . S
C365 C363 1.561 . S
C366 C363 1.526 . S
C366 C367 1.396 . S
C366 C371 1.390 . S
C367 C361 1.465 1_655 S
C367 C366 1.396 . S
C367 C368 1.399 . S
C368 H354 0.929 . S
C368 C367 1.399 . S
C368 C369 1.385 . S
C369 H355 0.931 . S
C369 C368 1.385 . S
C369 C370 1.389 . S
C370 C369 1.389 . S
C370 C371 1.387 . S
C371 H356 0.930 . S
C371 C366 1.390 . S
C371 C370 1.387 . S
H372 C384 0.930 . S
H373 C386 0.930 . S
H374 C387 0.930 1_554 S
H375 C391 0.959 . S
H376 C391 0.959 . S
H377 C391 0.961 . S
H378 C392 0.960 . S
H379 C392 0.961 . S
H380 C392 0.959 . S
H381 C395 0.929 . S
H382 C396 0.931 . S
H383 C398 0.930 . S
C384 H372 0.930 . S
C384 C385 1.399 . S
C384 C389 1.399 . S
C385 C384 1.399 . S
C385 C386 1.376 . S
C386 H373 0.930 . S
C386 C385 1.376 . S
C386 C387 1.388 . S
C387 H374 0.930 1_556 S
C387 C386 1.388 . S
C387 C388 1.390 . S
C388 C387 1.390 . S
C388 C389 1.394 . S
C388 C394 1.465 1_556 S
C389 C384 1.399 . S
C389 C388 1.394 . S
C389 C390 1.516 . S
C390 C389 1.516 . S
C390 C391 1.502 . S
C390 C392 1.561 . S
C390 C393 1.526 1_556 S
C391 H375 0.959 . S
C391 H376 0.959 . S
C391 H377 0.961 . S
C391 C390 1.502 . S
C392 H378 0.960 . S
C392 H379 0.961 . S
C392 H380 0.959 . S
C392 C390 1.561 . S
C393 C390 1.526 1_554 S
C393 C394 1.396 . S
C393 C398 1.390 . S
C394 C388 1.465 1_554 S
C394 C393 1.396 . S
C394 C395 1.399 . S
C395 H381 0.929 . S
C395 C394 1.399 . S
C395 C396 1.385 . S
C396 H382 0.931 . S
C396 C395 1.385 . S
C396 C397 1.389 . S
C397 C396 1.389 . S
C397 C398 1.387 . S
C398 H383 0.930 . S
C398 C393 1.390 . S
C398 C397 1.387 . S
H399 C411 0.930 . S
H400 C413 0.930 . S
H401 C414 0.930 . S
H402 C418 0.959 . S
H403 C418 0.959 . S
H404 C418 0.961 . S
H405 C419 0.960 . S
H406 C419 0.961 . S
H407 C419 0.959 . S
H408 C422 0.929 . S
H409 C423 0.931 . S
H410 C425 0.930 . S
C411 H399 0.930 . S
C411 C412 1.399 . S
C411 C416 1.399 . S
C412 C411 1.399 . S
C412 C413 1.376 . S
C413 H400 0.930 . S
C413 C412 1.376 . S
C413 C414 1.388 . S
C414 H401 0.930 . S
C414 C413 1.388 . S
C414 C415 1.390 . S
C415 C414 1.390 . S
C415 C416 1.394 . S
C415 C421 1.465 . S
C416 C411 1.399 . S
C416 C415 1.394 . S
C416 C417 1.516 . S
C417 C416 1.516 . S
C417 C418 1.502 . S
C417 C419 1.561 . S
C417 C420 1.526 . S
C418 H402 0.959 . S
C418 H403 0.959 . S
C418 H404 0.961 . S
C418 C417 1.502 . S
C419 H405 0.960 . S
C419 H406 0.961 . S
C419 H407 0.959 . S
C419 C417 1.561 . S
C420 C417 1.526 . S
C420 C421 1.396 . S
C420 C425 1.390 . S
C421 C415 1.465 . S
C421 C420 1.396 . S
C421 C422 1.399 . S
C422 H408 0.929 . S
C422 C421 1.399 . S
C422 C423 1.385 . S
C423 H409 0.931 . S
C423 C422 1.385 . S
C423 C424 1.389 . S
C424 C423 1.389 . S
C424 C425 1.387 . S
C425 H410 0.930 . S
C425 C420 1.390 . S
C425 C424 1.387 . S
H426 C438 0.924 1_554 S
H427 C440 0.930 . S
H428 C441 0.930 . S
H429 C445 0.959 . S
H430 C445 0.959 . S
H431 C445 0.961 . S
H432 C446 0.960 . S
H433 C446 0.961 . S
H434 C446 0.959 . S
H435 C449 0.929 . S
H436 C450 0.931 . S
H437 C452 0.930 . S
C438 H426 0.924 1_556 S
C438 C439 1.399 . S
C438 C443 1.399 . S
C439 C438 1.399 . S
C439 C440 1.376 . S
C440 H427 0.930 . S
C440 C439 1.376 . S
C440 C441 1.388 . S
C441 H428 0.930 . S
C441 C440 1.388 . S
C441 C442 1.390 . S
C442 C441 1.390 . S
C442 C443 1.394 . S
C442 C448 1.465 . S
C443 C438 1.399 . S
C443 C442 1.394 . S
C443 C444 1.516 1_556 S
C444 C443 1.516 1_554 S
C444 C445 1.502 . S
C444 C446 1.561 . S
C444 C447 1.526 . S
C445 H429 0.959 . S
C445 H430 0.959 . S
C445 H431 0.961 . S
C445 C444 1.502 . S
C446 H432 0.960 . S
C446 H433 0.961 . S
C446 H434 0.959 . S
C446 C444 1.561 . S
C447 C444 1.526 . S
C447 C448 1.396 1_554 S
C447 C452 1.390 . S
C448 C442 1.465 . S
C448 C447 1.396 1_556 S
C448 C449 1.399 . S
C449 H435 0.929 . S
C449 C448 1.399 . S
C449 C450 1.385 1_556 S
C450 H436 0.931 . S
C450 C449 1.385 1_554 S
C450 C451 1.389 . S
C451 C450 1.389 . S
C451 C452 1.387 . S
C452 H437 0.930 . S
C452 C447 1.390 . S
C452 C451 1.387 . S
H453 C465 0.930 . S
H454 C467 0.930 . S
H455 C468 0.930 . S
H456 C472 0.959 . S
H457 C472 0.959 . S
H458 C472 0.961 . S
H459 C473 0.960 . S
H460 C473 0.961 . S
H461 C473 0.959 . S
H462 C476 0.929 . S
H463 C477 0.931 . S
H464 C479 0.930 . S
C465 H453 0.930 . S
C465 C466 1.399 . S
C465 C470 1.399 . S
C466 C465 1.399 . S
C466 C467 1.376 . S
C467 H454 0.930 . S
C467 C466 1.376 . S
C467 C468 1.388 . S
C468 H455 0.930 . S
C468 C467 1.388 . S
C468 C469 1.390 . S
C469 C468 1.390 . S
C469 C470 1.394 . S
C469 C475 1.465 . S
C470 C465 1.399 . S
C470 C469 1.394 . S
C470 C471 1.516 . S
C471 C470 1.516 . S
C471 C472 1.502 . S
C471 C473 1.561 . S
C471 C474 1.526 . S
C472 H456 0.959 . S
C472 H457 0.959 . S
C472 H458 0.961 . S
C472 C471 1.502 . S
C473 H459 0.960 . S
C473 H460 0.961 . S
C473 H461 0.959 . S
C473 C471 1.561 . S
C474 C471 1.526 . S
C474 C475 1.396 . S
C474 C479 1.390 . S
C475 C469 1.465 . S
C475 C474 1.396 . S
C475 C476 1.399 . S
C476 H462 0.929 . S
C476 C475 1.399 . S
C476 C477 1.385 . S
C477 H463 0.931 . S
C477 C476 1.385 . S
C477 C478 1.389 . S
C478 C477 1.389 . S
C478 C479 1.387 . S
C479 H464 0.930 . S
C479 C474 1.390 . S
C479 C478 1.387 . S
H480 C492 0.930 . S
H481 C494 0.930 . S
H482 C495 0.930 1_554 S
H483 C499 0.959 . S
H484 C499 0.959 . S
H485 C499 0.961 . S
H486 C500 0.960 . S
H487 C500 0.961 . S
H488 C500 0.959 . S
H489 C503 0.929 1_545 S
H490 C504 0.931 . S
H491 C506 0.930 . S
C492 H480 0.930 . S
C492 C493 1.399 . S
C492 C497 1.399 . S
C493 C492 1.399 . S
C493 C494 1.376 . S
C494 H481 0.930 . S
C494 C493 1.376 . S
C494 C495 1.388 . S
C495 H482 0.930 1_556 S
C495 C494 1.388 . S
C495 C496 1.390 . S
C496 C495 1.390 . S
C496 C497 1.394 . S
C496 C502 1.465 1_546 S
C497 C492 1.399 . S
C497 C496 1.394 . S
C497 C498 1.516 1_545 S
C498 C497 1.516 1_565 S
C498 C499 1.502 . S
C498 C500 1.561 . S
C498 C501 1.526 1_556 S
C499 H483 0.959 . S
C499 H484 0.959 . S
C499 H485 0.961 . S
C499 C498 1.502 . S
C500 H486 0.960 . S
C500 H487 0.961 . S
C500 H488 0.959 . S
C500 C498 1.561 . S
C501 C498 1.526 1_554 S
C501 C502 1.396 . S
C501 C506 1.390 . S
C502 C496 1.465 1_564 S
C502 C501 1.396 . S
C502 C503 1.399 . S
C503 H489 0.929 1_565 S
C503 C502 1.399 . S
C503 C504 1.385 . S
C504 H490 0.931 . S
C504 C503 1.385 . S
C504 C505 1.389 . S
C505 C504 1.389 . S
C505 C506 1.387 . S
C506 H491 0.930 . S
C506 C501 1.390 . S
C506 C505 1.387 . S
H507 C519 0.930 . S
H508 C521 0.930 . S
H509 C522 0.930 . S
H510 C526 0.959 . S
H511 C526 0.959 . S
H512 C526 0.961 . S
H513 C527 0.960 1_545 S
H514 C527 0.961 . S
H515 C527 0.959 1_545 S
H516 C530 0.929 1_545 S
H517 C531 0.931 . S
H518 C533 0.930 . S
C519 H507 0.930 . S
C519 C520 1.399 . S
C519 C524 1.399 . S
C520 C519 1.399 . S
C520 C521 1.376 . S
C521 H508 0.930 . S
C521 C520 1.376 . S
C521 C522 1.388 . S
C522 H509 0.930 . S
C522 C521 1.388 . S
C522 C523 1.390 . S
C523 C522 1.390 . S
C523 C524 1.394 . S
C523 C529 1.465 1_545 S
C524 C519 1.399 . S
C524 C523 1.394 . S
C524 C525 1.516 1_545 S
C525 C524 1.516 1_565 S
C525 C526 1.502 . S
C525 C527 1.561 . S
C525 C528 1.526 . S
C526 H510 0.959 . S
C526 H511 0.959 . S
C526 H512 0.961 . S
C526 C525 1.502 . S
C527 H513 0.960 1_565 S
C527 H514 0.961 . S
C527 H515 0.959 1_565 S
C527 C525 1.561 . S
C528 C525 1.526 . S
C528 C529 1.396 . S
C528 C533 1.390 . S
C529 C523 1.465 1_565 S
C529 C528 1.396 . S
C529 C530 1.399 . S
C530 H516 0.929 1_565 S
C530 C529 1.399 . S
C530 C531 1.385 . S
C531 H517 0.931 . S
C531 C530 1.385 . S
C531 C532 1.389 . S
C532 C531 1.389 . S
C532 C533 1.387 . S
C533 H518 0.930 . S
C533 C528 1.390 . S
C533 C532 1.387 . S
H534 C546 0.930 . S
H535 C548 0.930 . S
H536 C549 0.930 . S
H537 C553 0.959 . S
H538 C553 0.959 . S
H539 C553 0.961 . S
H540 C554 0.960 . S
H541 C554 0.961 . S
H542 C554 0.959 . S
H543 C557 0.929 1_545 S
H544 C558 0.931 . S
H545 C560 0.930 1_556 S
C546 H534 0.930 . S
C546 C547 1.399 . S
C546 C551 1.399 . S
C547 C546 1.399 . S
C547 C548 1.376 . S
C548 H535 0.930 . S
C548 C547 1.376 . S
C548 C549 1.388 1_556 S
C549 H536 0.930 . S
C549 C548 1.388 1_554 S
C549 C550 1.390 . S
C550 C549 1.390 . S
C550 C551 1.394 1_554 S
C550 C556 1.465 1_545 S
C551 C546 1.399 . S
C551 C550 1.394 1_556 S
C551 C552 1.516 1_545 S
C552 C551 1.516 1_565 S
C552 C553 1.502 . S
C552 C554 1.561 . S
C552 C555 1.526 1_556 S
C553 H537 0.959 . S
C553 H538 0.959 . S
C553 H539 0.961 . S
C553 C552 1.502 . S
C554 H540 0.960 . S
C554 H541 0.961 . S
C554 H542 0.959 . S
C554 C552 1.561 . S
C555 C552 1.526 1_554 S
C555 C556 1.396 . S
C555 C560 1.390 . S
C556 C550 1.465 1_565 S
C556 C555 1.396 . S
C556 C557 1.399 . S
C557 H543 0.929 1_565 S
C557 C556 1.399 . S
C557 C558 1.385 . S
C558 H544 0.931 . S
C558 C557 1.385 . S
C558 C559 1.389 . S
C559 C558 1.389 . S
C559 C560 1.387 . S
C560 H545 0.930 1_554 S
C560 C555 1.390 . S
C560 C559 1.387 . S
H561 C573 0.930 . S
H562 C575 0.930 . S
H563 C576 0.930 . S
H564 C580 0.959 . S
H565 C580 0.959 . S
H566 C580 0.961 . S
H567 C581 0.960 . S
H568 C581 0.961 1_565 S
H569 C581 0.959 1_565 S
H570 C584 0.929 . S
H571 C585 0.931 . S
H572 C587 0.930 . S
C573 H561 0.930 . S
C573 C574 1.399 . S
C573 C578 1.399 . S
C574 C573 1.399 . S
C574 C575 1.376 . S
C575 H562 0.930 . S
C575 C574 1.376 . S
C575 C576 1.388 . S
C576 H563 0.930 . S
C576 C575 1.388 . S
C576 C577 1.390 . S
C577 C576 1.390 . S
C577 C578 1.394 . S
C577 C583 1.465 1_545 S
C578 C573 1.399 . S
C578 C577 1.394 . S
C578 C579 1.516 . S
C579 C578 1.516 . S
C579 C580 1.502 . S
C579 C581 1.561 . S
C579 C582 1.526 1_545 S
C580 H564 0.959 . S
C580 H565 0.959 . S
C580 H566 0.961 . S
C580 C579 1.502 . S
C581 H567 0.960 . S
C581 H568 0.961 1_545 S
C581 H569 0.959 1_545 S
C581 C579 1.561 . S
C582 C579 1.526 1_565 S
C582 C583 1.396 . S
C582 C587 1.390 . S
C583 C577 1.465 1_565 S
C583 C582 1.396 . S
C583 C584 1.399 . S
C584 H570 0.929 . S
C584 C583 1.399 . S
C584 C585 1.385 . S
C585 H571 0.931 . S
C585 C584 1.385 . S
C585 C586 1.389 . S
C586 C585 1.389 . S
C586 C587 1.387 . S
C587 H572 0.930 . S
C587 C582 1.390 . S
C587 C586 1.387 . S
H588 C600 0.930 . S
H589 C602 0.930 . S
H590 C603 0.930 . S
H591 C607 0.959 . S
H592 C607 0.959 . S
H593 C607 0.961 . S
H594 C608 0.960 . S
H595 C608 0.961 1_556 S
H596 C608 0.959 1_556 S
H597 C611 0.929 . S
H598 C612 0.931 . S
H599 C614 0.930 . S
C600 H588 0.930 . S
C600 C601 1.399 . S
C600 C605 1.399 . S
C601 C600 1.399 . S
C601 C602 1.376 . S
C602 H589 0.930 . S
C602 C601 1.376 . S
C602 C603 1.388 . S
C603 H590 0.930 . S
C603 C602 1.388 . S
C603 C604 1.390 . S
C604 C603 1.390 . S
C604 C605 1.394 . S
C604 C610 1.465 . S
C605 C600 1.399 . S
C605 C604 1.394 . S
C605 C606 1.516 . S
C606 C605 1.516 . S
C606 C607 1.502 . S
C606 C608 1.561 . S
C606 C609 1.526 . S
C607 H591 0.959 . S
C607 H592 0.959 . S
C607 H593 0.961 . S
C607 C606 1.502 . S
C608 H594 0.960 . S
C608 H595 0.961 1_554 S
C608 H596 0.959 1_554 S
C608 C606 1.561 . S
C609 C606 1.526 . S
C609 C610 1.396 . S
C609 C614 1.390 1_554 S
C610 C604 1.465 . S
C610 C609 1.396 . S
C610 C611 1.399 . S
C611 H597 0.929 . S
C611 C610 1.399 . S
C611 C612 1.385 1_554 S
C612 H598 0.931 . S
C612 C611 1.385 1_556 S
C612 C613 1.389 . S
C613 C612 1.389 . S
C613 C614 1.387 . S
C614 H599 0.930 . S
C614 C609 1.390 1_556 S
C614 C613 1.387 . S
H615 C627 0.930 . S
H616 C629 0.930 . S
H617 C630 0.930 . S
H618 C634 0.959 . S
H619 C634 0.959 . S
H620 C634 0.961 . S
H621 C635 0.960 . S
H622 C635 0.961 . S
H623 C635 0.959 . S
H624 C638 0.929 . S
H625 C639 0.931 . S
H626 C641 0.930 . S
C627 H615 0.930 . S
C627 C628 1.399 . S
C627 C632 1.399 . S
C628 C627 1.399 . S
C628 C629 1.376 . S
C629 H616 0.930 . S
C629 C628 1.376 . S
C629 C630 1.388 . S
C630 H617 0.930 . S
C630 C629 1.388 . S
C630 C631 1.390 . S
C631 C630 1.390 . S
C631 C632 1.394 . S
C631 C637 1.465 . S
C632 C627 1.399 . S
C632 C631 1.394 . S
C632 C633 1.516 . S
C633 C632 1.516 . S
C633 C634 1.502 . S
C633 C635 1.561 . S
C633 C636 1.526 . S
C634 H618 0.959 . S
C634 H619 0.959 . S
C634 H620 0.961 . S
C634 C633 1.502 . S
C635 H621 0.960 . S
C635 H622 0.961 . S
C635 H623 0.959 . S
C635 C633 1.561 . S
C636 C633 1.526 . S
C636 C637 1.396 . S
C636 C641 1.390 . S
C637 C631 1.465 . S
C637 C636 1.396 . S
C637 C638 1.399 . S
C638 H624 0.929 . S
C638 C637 1.399 . S
C638 C639 1.385 . S
C639 H625 0.931 . S
C639 C638 1.385 . S
C639 C640 1.389 . S
C640 C639 1.389 . S
C640 C641 1.387 . S
C641 H626 0.930 . S
C641 C636 1.390 . S
C641 C640 1.387 . S
H642 C654 0.930 . S
H643 C656 0.930 . S
H644 C657 0.930 . S
H645 C661 0.959 . S
H646 C661 0.959 . S
H647 C661 0.961 . S
H648 C662 0.960 . S
H649 C662 0.961 . S
H650 C662 0.959 . S
H651 C665 0.929 . S
H652 C666 0.931 . S
H653 C668 0.930 . S
C654 H642 0.930 . S
C654 C655 1.399 1_556 S
C654 C659 1.399 . S
C655 C654 1.399 1_554 S
C655 C656 1.376 . S
C656 H643 0.930 . S
C656 C655 1.376 . S
C656 C657 1.388 . S
C657 H644 0.930 . S
C657 C656 1.388 . S
C657 C658 1.390 1_554 S
C658 C657 1.390 1_556 S
C658 C659 1.394 . S
C658 C664 1.465 . S
C659 C654 1.399 . S
C659 C658 1.394 . S
C659 C660 1.516 . S
C660 C659 1.516 . S
C660 C661 1.502 . S
C660 C662 1.561 . S
C660 C663 1.526 . S
C661 H645 0.959 . S
C661 H646 0.959 . S
C661 H647 0.961 . S
C661 C660 1.502 . S
C662 H648 0.960 . S
C662 H649 0.961 . S
C662 H650 0.959 . S
C662 C660 1.561 . S
C663 C660 1.526 . S
C663 C664 1.396 . S
C663 C668 1.390 . S
C664 C658 1.465 . S
C664 C663 1.396 . S
C664 C665 1.399 . S
C665 H651 0.929 . S
C665 C664 1.399 . S
C665 C666 1.385 . S
C666 H652 0.931 . S
C666 C665 1.385 . S
C666 C667 1.389 . S
C667 C666 1.389 . S
C667 C668 1.387 . S
C668 H653 0.930 . S
C668 C663 1.390 . S
C668 C667 1.387 . S
H669 C681 0.930 . S
H670 C683 0.930 . S
H671 C684 0.930 . S
H672 C688 0.959 . S
H673 C688 0.959 . S
H674 C688 0.961 . S
H675 C689 0.960 . S
H676 C689 0.961 . S
H677 C689 0.959 . S
H678 C692 0.929 . S
H679 C693 0.931 . S
H680 C695 0.930 . S
C681 H669 0.930 . S
C681 C682 1.399 . S
C681 C686 1.399 . S
C682 C681 1.399 . S
C682 C683 1.376 . S
C683 H670 0.930 . S
C683 C682 1.376 . S
C683 C684 1.388 . S
C684 H671 0.930 . S
C684 C683 1.388 . S
C684 C685 1.390 . S
C685 C684 1.390 . S
C685 C686 1.394 . S
C685 C691 1.465 . S
C686 C681 1.399 . S
C686 C685 1.394 . S
C686 C687 1.516 . S
C687 C686 1.516 . S
C687 C688 1.502 . S
C687 C689 1.561 . S
C687 C690 1.526 . S
C688 H672 0.959 . S
C688 H673 0.959 . S
C688 H674 0.961 . S
C688 C687 1.502 . S
C689 H675 0.960 . S
C689 H676 0.961 . S
C689 H677 0.959 . S
C689 C687 1.561 . S
C690 C687 1.526 . S
C690 C691 1.396 . S
C690 C695 1.390 . S
C691 C685 1.465 . S
C691 C690 1.396 . S
C691 C692 1.399 . S
C692 H678 0.929 . S
C692 C691 1.399 . S
C692 C693 1.385 . S
C693 H679 0.931 . S
C693 C692 1.385 . S
C693 C694 1.389 . S
C694 C693 1.389 . S
C694 C695 1.387 . S
C695 H680 0.930 . S
C695 C690 1.390 . S
C695 C694 1.387 . S
H696 C708 0.930 . S
H697 C710 0.930 . S
H698 C711 0.930 . S
H699 C715 0.959 . S
H700 C715 0.959 . S
H701 C715 0.961 . S
H702 C716 0.960 . S
H703 C716 0.961 . S
H704 C716 0.959 . S
H705 C719 0.929 . S
H706 C720 0.931 . S
H707 C722 0.930 . S
C708 H696 0.930 . S
C708 C709 1.399 1_554 S
C708 C713 1.399 . S
C709 C708 1.399 1_556 S
C709 C710 1.376 . S
C710 H697 0.930 . S
C710 C709 1.376 . S
C710 C711 1.388 . S
C711 H698 0.930 . S
C711 C710 1.388 . S
C711 C712 1.390 1_556 S
C712 C711 1.390 1_554 S
C712 C713 1.394 . S
C712 C718 1.465 . S
C713 C708 1.399 . S
C713 C712 1.394 . S
C713 C714 1.516 . S
C714 C713 1.516 . S
C714 C715 1.502 . S
C714 C716 1.561 . S
C714 C717 1.526 . S
C715 H699 0.959 . S
C715 H700 0.959 . S
C715 H701 0.961 . S
C715 C714 1.502 . S
C716 H702 0.960 . S
C716 H703 0.961 . S
C716 H704 0.959 . S
C716 C714 1.561 . S
C717 C714 1.526 . S
C717 C718 1.396 . S
C717 C722 1.390 . S
C718 C712 1.465 . S
C718 C717 1.396 . S
C718 C719 1.399 . S
C719 H705 0.929 . S
C719 C718 1.399 . S
C719 C720 1.385 . S
C720 H706 0.931 . S
C720 C719 1.385 . S
C720 C721 1.389 . S
C721 C720 1.389 . S
C721 C722 1.387 . S
C722 H707 0.930 . S
C722 C717 1.390 . S
C722 C721 1.387 . S
H723 C735 0.930 . S
H724 C737 0.930 . S
H725 C738 0.930 . S
H726 C742 0.959 . S
H727 C742 0.959 . S
H728 C742 0.961 . S
H729 C743 0.960 . S
H730 C743 0.961 . S
H731 C743 0.959 . S
H732 C746 0.929 . S
H733 C747 0.931 . S
H734 C749 0.930 . S
C735 H723 0.930 . S
C735 C736 1.399 . S
C735 C740 1.399 . S
C736 C735 1.399 . S
C736 C737 1.376 . S
C737 H724 0.930 . S
C737 C736 1.376 . S
C737 C738 1.388 . S
C738 H725 0.930 . S
C738 C737 1.388 . S
C738 C739 1.390 . S
C739 C738 1.390 . S
C739 C740 1.394 . S
C739 C745 1.465 . S
C740 C735 1.399 . S
C740 C739 1.394 . S
C740 C741 1.516 . S
C741 C740 1.516 . S
C741 C742 1.502 . S
C741 C743 1.561 . S
C741 C744 1.526 . S
C742 H726 0.959 . S
C742 H727 0.959 . S
C742 H728 0.961 . S
C742 C741 1.502 . S
C743 H729 0.960 . S
C743 H730 0.961 . S
C743 H731 0.959 . S
C743 C741 1.561 . S
C744 C741 1.526 . S
C744 C745 1.396 . S
C744 C749 1.390 . S
C745 C739 1.465 . S
C745 C744 1.396 . S
C745 C746 1.399 . S
C746 H732 0.929 . S
C746 C745 1.399 . S
C746 C747 1.385 . S
C747 H733 0.931 . S
C747 C746 1.385 . S
C747 C748 1.389 . S
C748 C747 1.389 . S
C748 C749 1.387 . S
C749 H734 0.930 . S
C749 C744 1.390 . S
C749 C748 1.387 . S
H750 C762 0.930 . S
H751 C764 0.930 . S
H752 C765 0.930 . S
H753 C769 0.959 . S
H754 C769 0.959 . S
H755 C769 0.961 . S
H756 C770 0.960 . S
H757 C770 0.961 . S
H758 C770 0.959 . S
H759 C773 0.929 . S
H760 C774 0.931 . S
H761 C776 0.930 . S
C762 H750 0.930 . S
C762 C763 1.399 . S
C762 C767 1.399 . S
C763 C762 1.399 . S
C763 C764 1.376 . S
C764 H751 0.930 . S
C764 C763 1.376 . S
C764 C765 1.388 . S
C765 H752 0.930 . S
C765 C764 1.388 . S
C765 C766 1.390 . S
C766 C765 1.390 . S
C766 C767 1.394 . S
C766 C772 1.465 . S
C767 C762 1.399 . S
C767 C766 1.394 . S
C767 C768 1.516 . S
C768 C767 1.516 . S
C768 C769 1.502 1_556 S
C768 C770 1.561 . S
C768 C771 1.526 . S
C769 H753 0.959 . S
C769 H754 0.959 . S
C769 H755 0.961 . S
C769 C768 1.502 1_554 S
C770 H756 0.960 . S
C770 H757 0.961 . S
C770 H758 0.959 . S
C770 C768 1.561 . S
C771 C768 1.526 . S
C771 C772 1.396 . S
C771 C776 1.390 1_556 S
C772 C766 1.465 . S
C772 C771 1.396 . S
C772 C773 1.399 . S
C773 H759 0.929 . S
C773 C772 1.399 . S
C773 C774 1.385 . S
C774 H760 0.931 . S
C774 C773 1.385 . S
C774 C775 1.389 1_556 S
C775 C774 1.389 1_554 S
C775 C776 1.387 . S
C776 H761 0.930 . S
C776 C771 1.390 1_554 S
C776 C775 1.387 . S
H777 C789 0.930 . S
H778 C791 0.930 . S
H779 C792 0.930 . S
H780 C796 0.959 . S
H781 C796 0.959 . S
H782 C796 0.961 . S
H783 C797 0.960 . S
H784 C797 0.961 . S
H785 C797 0.959 . S
H786 C800 0.929 . S
H787 C801 0.931 . S
H788 C803 0.930 . S
C789 H777 0.930 . S
C789 C790 1.399 . S
C789 C794 1.399 . S
C790 C789 1.399 . S
C790 C791 1.376 . S
C791 H778 0.930 . S
C791 C790 1.376 . S
C791 C792 1.388 . S
C792 H779 0.930 . S
C792 C791 1.388 . S
C792 C793 1.390 . S
C793 C792 1.390 . S
C793 C794 1.394 . S
C793 C799 1.465 . S
C794 C789 1.399 . S
C794 C793 1.394 . S
C794 C795 1.516 . S
C795 C794 1.516 . S
C795 C796 1.502 . S
C795 C797 1.561 . S
C795 C798 1.526 . S
C796 H780 0.959 . S
C796 H781 0.959 . S
C796 H782 0.961 . S
C796 C795 1.502 . S
C797 H783 0.960 . S
C797 H784 0.961 . S
C797 H785 0.959 . S
C797 C795 1.561 . S
C798 C795 1.526 . S
C798 C799 1.396 . S
C798 C803 1.390 . S
C799 C793 1.465 . S
C799 C798 1.396 . S
C799 C800 1.399 . S
C800 H786 0.929 . S
C800 C799 1.399 . S
C800 C801 1.385 . S
C801 H787 0.931 . S
C801 C800 1.385 . S
C801 C802 1.389 . S
C802 C801 1.389 . S
C802 C803 1.387 . S
C803 H788 0.930 . S
C803 C798 1.390 . S
C803 C802 1.387 . S
C277 C17 1.511 . S
C289 C116 1.504 . S
C304 C50 1.470 . S
C316 C83 1.490 . S
C331 C248 1.511 . S
C343 C149 1.506 . S
C358 C182 1.472 . S
C370 C215 1.493 . S
C385 N71 1.136 . S
C397 N5 1.162 . S
C412 N104 1.125 . S
C424 N38 1.163 . S
C439 C61 1.552 . S
C451 C127 1.559 . S
C466 C28 1.581 . S
C478 C94 1.574 . S
C493 N203 1.117 . S
C505 N137 1.162 . S
C520 N170 1.068 . S
C532 N236 1.123 . S
C547 C193 1.579 . S
C559 C259 1.572 . S
C574 C226 1.574 . S
C586 C160 1.581 . S
C601 C8 1.317 . S
C613 N179 1.335 . S
C628 C41 1.326 . S
C640 N146 1.322 . S
C655 N245 1.367 . S
C667 C74 1.332 . S
C682 C107 1.317 . S
C694 N212 1.337 . S
C709 N47 1.371 . S
C721 C140 1.340 . S
C736 C173 1.342 . S
C748 N14 1.371 . S
C763 C206 1.361 . S
C775 N113 1.323 . S
C790 C239 1.332 . S
C802 N80 1.318 . S
