# Generated by pormake.
# Topology afw, (4)-cn, num edge types: 1
# Building blocks:
#     Node 0, Type 0, BuildingBlock: ESEHIV_clean_sbu_0, # of connection points: 4
#     Node 1, Type 0, BuildingBlock: ESEHIV_clean_sbu_0, # of connection points: 4
#     Node 2, Type 0, BuildingBlock: ESEHIV_clean_sbu_0, # of connection points: 4
#     Node 3, Type 0, BuildingBlock: ESEHIV_clean_sbu_0, # of connection points: 4
#     Node 4, Type 0, BuildingBlock: ESEHIV_clean_sbu_0, # of connection points: 4
#     Node 5, Type 0, BuildingBlock: ESEHIV_clean_sbu_0, # of connection points: 4
#     Node 6, Type 0, BuildingBlock: ESEHIV_clean_sbu_0, # of connection points: 4
#     Node 7, Type 0, BuildingBlock: ESEHIV_clean_sbu_0, # of connection points: 4
#     Node 8, Type 0, BuildingBlock: ESEHIV_clean_sbu_0, # of connection points: 4
#     Edge 9, Type (0, 0), BuildingBlock: UVAHIK_clean_linker_0, # of connection points: 2
#     Edge 10, Type (0, 0), BuildingBlock: UVAHIK_clean_linker_0, # of connection points: 2
#     Edge 11, Type (0, 0), BuildingBlock: UVAHIK_clean_linker_0, # of connection points: 2
#     Edge 12, Type (0, 0), BuildingBlock: UVAHIK_clean_linker_0, # of connection points: 2
#     Edge 13, Type (0, 0), BuildingBlock: UVAHIK_clean_linker_0, # of connection points: 2
#     Edge 14, Type (0, 0), BuildingBlock: UVAHIK_clean_linker_0, # of connection points: 2
#     Edge 15, Type (0, 0), BuildingBlock: UVAHIK_clean_linker_0, # of connection points: 2
#     Edge 16, Type (0, 0), BuildingBlock: UVAHIK_clean_linker_0, # of connection points: 2
#     Edge 17, Type (0, 0), BuildingBlock: UVAHIK_clean_linker_0, # of connection points: 2
#     Edge 18, Type (0, 0), BuildingBlock: UVAHIK_clean_linker_0, # of connection points: 2
#     Edge 19, Type (0, 0), BuildingBlock: UVAHIK_clean_linker_0, # of connection points: 2
#     Edge 20, Type (0, 0), BuildingBlock: UVAHIK_clean_linker_0, # of connection points: 2
#     Edge 21, Type (0, 0), BuildingBlock: UVAHIK_clean_linker_0, # of connection points: 2
#     Edge 22, Type (0, 0), BuildingBlock: UVAHIK_clean_linker_0, # of connection points: 2
#     Edge 23, Type (0, 0), BuildingBlock: UVAHIK_clean_linker_0, # of connection points: 2
#     Edge 24, Type (0, 0), BuildingBlock: UVAHIK_clean_linker_0, # of connection points: 2
#     Edge 25, Type (0, 0), BuildingBlock: UVAHIK_clean_linker_0, # of connection points: 2
#     Edge 26, Type (0, 0), BuildingBlock: UVAHIK_clean_linker_0, # of connection points: 2
# Relax obj value: 0.051
# Max RMSD: 0.167
# Mean RMSD: 0.157
data_MOF--net-afw--node1-ESEHIV_clean_sbu_0--edge1-UVAHIK_clean_linker_0
_symmetry_space_group_name_H-M    P1
_symmetry_Int_Tables_number       1
_symmetry_cell_setting            triclinic
loop_
_symmetry_equiv_pos_as_xyz
'x, y, z'
_cell_length_a     62.573407
_cell_length_b     67.231705
_cell_length_c     25.6868
_cell_angle_alpha  94.944697
_cell_angle_beta   91.054804
_cell_angle_gamma 118.79002
loop_
_atom_site_label
_atom_site_type_symbol
_atom_site_fract_x
_atom_site_fract_y
_atom_site_fract_z
_atom_type_partial_charge
Cu0 Cu 0.05151 0.22051 0.095 0.0
N1 N 0.05565 0.20627 0.15055 0.0
N2 N 0.04707 0.17355 0.18313 0.0
C3 C 0.03811 0.18523 0.15864 0.0
C4 C 0.0713 0.18807 0.19163 0.0
C5 C 0.07656 0.20817 0.17119 0.0
O6 O 0.04873 0.1984 0.03747 0.0
C7 C 1.02131 0.23268 0.15018 0.0
O8 O 0.03852 0.23733 0.18671 0.0
H9 H 1.01979 0.17755 0.14025 0.0
H10 H 0.09462 0.22192 0.16609 0.0
N11 N 0.07802 0.24961 0.0894 0.0
N12 N 0.10185 0.2827 0.05703 0.0
C13 C 0.08255 0.26141 0.04728 0.0
C14 C 0.09492 0.26393 0.1272 0.0
C15 C 0.10966 0.28428 0.10737 0.0
C16 C 0.06861 0.19894 0.02494 0.0
O17 O 0.08926 0.21788 0.03748 0.0
H18 H 0.07137 0.2547 0.01077 0.0
H19 H 0.09608 0.26005 0.1668 0.0
O20 O 1.02264 0.22419 0.10476 0.0
H21 H 0.08457 0.18385 0.20752 0.0
H22 H 0.12488 0.29911 0.12859 0.0
Cu23 Cu 0.88619 0.86572 0.06366 0.0
N24 N 0.88774 0.89255 0.09593 0.0
N25 N 0.90172 0.92935 0.12552 0.0
C26 C 0.90714 0.91378 0.10145 0.0
C27 C 0.878 0.91724 0.13611 0.0
C28 C 0.8695 0.89463 0.11797 0.0
O29 O 0.9146 0.87427 0.0221 0.0
C30 C 0.84483 0.85593 0.99533 0.0
O31 O 0.85557 0.87817 0.99466 0.0
H32 H 0.92474 0.91775 0.08708 0.0
H33 H 0.85123 0.88066 0.12026 0.0
N34 N 0.88837 0.84904 0.11642 0.0
N35 N 0.88276 0.821 0.1652 0.0
C36 C 0.87516 0.82651 0.12159 0.0
C37 C 0.90466 0.85804 0.15808 0.0
C38 C 0.90129 0.84089 0.18813 0.0
C39 C 0.92122 0.88986 0.99149 0.0
O40 O 0.90734 0.89917 0.9838 0.0
H41 H 0.86058 0.81441 0.0936 0.0
H42 H 0.9181 0.87591 0.16599 0.0
O43 O 0.85523 0.84733 0.02162 0.0
H44 H 0.86746 0.92411 0.15578 0.0
H45 H 0.91154 0.84304 0.22451 0.0
Cu46 Cu 0.20625 0.02592 0.02121 0.0
N47 N 0.21126 1.00214 0.04015 0.0
N48 N 0.2273 0.97863 0.03504 0.0
C49 C 0.22929 0.99848 0.02218 0.0
C50 C 0.20725 0.96955 0.06288 0.0
C51 C 0.19741 0.98413 0.06605 0.0
O52 O 0.23867 0.05284 0.02707 0.0
C53 C 0.17675 0.99627 0.93347 0.0
O54 O 0.18539 0.98266 0.94443 0.0
H55 H 0.24267 1.00953 0.99708 0.0
H56 H 0.18077 0.98129 0.08381 0.0
N57 N 0.18542 0.03202 0.06303 0.0
N58 N 0.15867 0.04447 0.08052 0.0
C59 C 0.17244 0.04136 0.04439 0.0
C60 C 0.17958 0.0289 0.11298 0.0
C61 C 0.1632 0.0368 0.12405 0.0
C62 C 0.24808 0.06022 0.07387 0.0
O63 O 0.23493 0.0503 0.11253 0.0
H64 H 0.17351 0.04624 0.00506 0.0
H65 H 0.18676 0.02156 0.13948 0.0
O66 O 0.18826 1.01712 0.9528 0.0
H67 H 0.19981 0.95327 0.07863 0.0
H68 H 0.15512 0.03674 0.16099 0.0
Cu69 Cu 0.74629 0.54418 0.41428 0.0
N70 N 0.74811 0.52686 0.46531 0.0
N71 N 0.73495 0.49147 0.48776 0.0
C72 C 0.72877 0.50614 0.46805 0.0
C73 C 0.75939 0.50387 0.49908 0.0
C74 C 0.76748 0.52559 0.48464 0.0
O75 O 0.74542 0.52462 0.35278 0.0
C76 C 0.71578 0.55375 0.47303 0.0
O77 O 0.73346 0.55768 0.50769 0.0
H78 H 0.71122 0.50114 0.44837 0.0
H79 H 0.78633 0.53834 0.48219 0.0
N80 N 0.77283 0.57384 0.4165 0.0
N81 N 0.79558 0.60961 0.39592 0.0
C82 C 0.77563 0.589 0.38248 0.0
C83 C 0.79153 0.5852 0.45301 0.0
C84 C 0.80563 0.60718 0.44033 0.0
C85 C 0.76586 0.52606 0.34147 0.0
O86 O 0.78583 0.54558 0.35448 0.0
H87 H 0.76308 0.58494 0.34873 0.0
H88 H 0.79435 0.57822 0.48722 0.0
O89 O 0.71706 0.54717 0.42563 0.0
H90 H 0.77104 0.49728 0.5122 0.0
H91 H 0.82158 0.62052 0.46318 0.0
Cu92 Cu 0.53085 0.18897 0.36966 0.0
N93 N 0.55591 0.21395 0.3414 0.0
N94 N 0.58322 0.25071 0.33698 0.0
C95 C 0.56229 0.23585 0.35693 0.0
C96 C 0.58981 0.23749 0.30629 0.0
C97 C 0.57294 0.21484 0.30903 0.0
O98 O 0.53049 0.19717 0.44427 0.0
C99 C 0.49607 0.17641 0.28482 0.0
O100 O 0.51413 0.1774 0.25788 0.0
H101 H 0.55233 0.24061 0.38471 0.0
H102 H 0.57393 0.20016 0.29137 0.0
N103 N 0.53348 0.16227 0.36393 0.0
N104 N 0.52626 0.12774 0.38293 0.0
C105 C 0.52571 0.1471 0.39962 0.0
C106 C 0.53922 0.15223 0.3231 0.0
C107 C 0.53482 0.13094 0.33473 0.0
C108 C 0.54815 0.20968 0.4783 0.0
O109 O 0.54289 0.21353 0.52611 0.0
H110 H 0.51848 0.14974 0.43595 0.0
H111 H 0.54513 0.15939 0.28656 0.0
O112 O 0.4996 0.18138 0.33434 0.0
H113 H 0.6065 0.24359 0.28612 0.0
H114 H 0.53722 0.1186 0.30918 0.0
Cu115 Cu 0.86622 0.36614 0.38045 0.0
N116 N 0.89284 0.39488 0.37483 0.0
N117 N 0.93074 0.42392 0.3943 0.0
C118 C 0.91209 0.40509 0.41043 0.0
C119 C 0.92283 0.42563 0.34644 0.0
C120 C 0.89941 0.40766 0.3345 0.0
O121 O 0.87634 0.34379 0.35665 0.0
C122 C 0.84599 0.37133 0.47773 0.0
O123 O 0.84116 0.36683 0.5262 0.0
H124 H 0.91291 0.39795 0.44613 0.0
H125 H 0.88851 0.4036 0.29805 0.0
N126 N 0.83687 0.35917 0.34414 0.0
N127 N 0.79591 0.34188 0.33502 0.0
C128 C 0.81575 0.34107 0.35399 0.0
C129 C 0.83046 0.37179 0.31649 0.0
C130 C 0.8052 0.36114 0.31069 0.0
C131 C 0.87882 0.34028 0.30815 0.0
O132 O 0.87325 0.35107 0.27469 0.0
H133 H 0.81527 0.32851 0.37817 0.0
H134 H 0.84303 0.38844 0.3054 0.0
O135 O 0.8593 0.36435 0.45391 0.0
H136 H 0.93344 0.43852 0.32118 0.0
H137 H 0.79469 0.36811 0.29345 0.0
Cu138 Cu 0.39223 0.86976 0.71811 0.0
N139 N 0.36897 0.84379 0.67601 0.0
N140 N 0.34836 0.80766 0.63868 0.0
C141 C 0.36743 0.82301 0.67152 0.0
C142 C 0.3376 0.81938 0.62166 0.0
C143 C 0.35039 0.84165 0.6446 0.0
O144 O 0.41119 0.86006 0.7599 0.0
C145 C 0.35546 0.87257 0.77769 0.0
O146 O 0.34344 0.85032 0.76576 0.0
H147 H 0.37985 0.81916 0.69272 0.0
H148 H 0.34637 0.85531 0.63909 0.0
N149 N 0.41376 0.89051 0.67485 0.0
N150 N 0.43485 0.92094 0.63139 0.0
C151 C 0.41602 0.9105 0.66212 0.0
C152 C 0.43153 0.88821 0.65114 0.0
C153 C 0.44454 0.90687 0.62445 0.0
C154 C 0.40187 0.84516 0.79201 0.0
O155 O 0.37882 0.83737 0.80177 0.0
H156 H 0.40451 0.91747 0.67607 0.0
H157 H 0.43489 0.87395 0.65357 0.0
O158 O 0.37674 0.88395 0.76148 0.0
H159 H 0.32171 0.81246 0.59429 0.0
H160 H 0.4599 0.90978 0.6014 0.0
Cu161 Cu 0.21704 0.52198 0.66843 0.0
N162 N 0.23529 0.53472 0.61199 0.0
N163 N 0.25898 0.56657 0.57521 0.0
C164 C 0.23796 0.55463 0.59834 0.0
C165 C 0.26981 0.55336 0.57338 0.0
C166 C 0.25523 0.53379 0.59639 0.0
O167 O 0.23887 0.5444 0.72476 0.0
C168 C 0.17462 0.51117 0.61107 0.0
O169 O 0.18586 0.50431 0.57727 0.0
H170 H 0.22655 0.56171 0.61231 0.0
H171 H 0.26039 0.52138 0.60701 0.0
N172 N 0.21175 0.49243 0.67612 0.0
N173 N 0.19929 0.45912 0.70954 0.0
C174 C 0.20208 0.48044 0.71709 0.0
C175 C 0.21507 0.47821 0.6413 0.0
C176 C 0.20747 0.45771 0.66177 0.0
C177 C 0.25645 0.54196 0.74309 0.0
O178 O 0.25409 0.52139 0.73954 0.0
H179 H 0.19671 0.48712 0.75121 0.0
H180 H 0.22215 0.48232 0.60332 0.0
O181 O 0.18512 0.52011 0.65657 0.0
H182 H 0.28796 0.55837 0.56082 0.0
H183 H 0.20801 0.44296 0.64289 0.0
Cu184 Cu 0.54818 0.68472 0.75777 0.0
N185 N 0.55011 0.65759 0.75077 0.0
N186 N 0.56277 0.63291 0.7213 0.0
C187 C 0.56297 0.65275 0.7151 0.0
C188 C 0.5493 0.62501 0.76275 0.0
C189 C 0.54156 0.64026 0.78085 0.0
O190 O 0.58187 0.70981 0.76416 0.0
C191 C 0.51024 0.66564 0.67751 0.0
O192 O 0.5154 0.6489 0.67021 0.0
H193 H 0.57297 0.66403 0.6863 0.0
H194 H 0.53107 0.63906 0.8145 0.0
N195 N 0.53293 0.68835 0.81669 0.0
N196 N 0.51333 0.70592 0.85369 0.0
C197 C 0.53342 0.70841 0.82969 0.0
C198 C 0.51198 0.67249 0.83397 0.0
C199 C 0.50004 0.68327 0.85731 0.0
C200 C 0.59474 0.70859 0.8016 0.0
O201 O 0.58404 0.69194 0.8313 0.0
H202 H 0.54684 0.72405 0.81561 0.0
H203 H 0.50411 0.65431 0.82359 0.0
O204 O 0.52594 0.6844 0.70303 0.0
H205 H 0.54549 0.60944 0.77922 0.0
H206 H 0.48162 0.67467 0.86984 0.0
C207 C 0.13138 0.05186 0.02417 0.0
C208 C 0.14327 0.05469 0.0734 0.0
C209 C 0.11835 0.06344 0.01541 0.0
C210 C 0.09242 0.098 0.08225 0.0
H211 H 0.10169 0.12359 0.94958 0.0
C212 C 0.09067 0.17831 0.99261 0.0
C213 C 0.06987 0.1775 0.01435 0.0
C214 C 0.09546 0.1601 0.99412 0.0
C215 C 0.09889 0.1166 0.98686 0.0
H216 H 0.15007 0.0713 0.15255 0.0
H217 H 0.12775 0.09196 0.13721 0.0
H218 H 0.11821 0.09846 0.96628 0.0
H219 H 0.03717 0.15638 0.05294 0.0
H220 H 0.04533 0.12432 0.0549 0.0
H221 H 0.07419 0.11722 0.10367 0.0
C222 C 0.12812 0.08048 0.10543 0.0
C223 C 0.10814 0.1019 0.99628 0.0
C224 C 0.141 0.06869 0.11431 0.0
C225 C 0.05319 0.15744 0.03509 0.0
C226 C 0.05808 0.13919 0.03697 0.0
C227 C 0.08323 0.11281 0.07286 0.0
C228 C 0.11701 0.07837 0.05552 0.0
C229 C 0.10538 0.09264 0.04441 0.0
C230 C 0.07963 0.14055 0.01772 0.0
C231 C 0.08674 0.12265 0.02537 0.0
H232 H 0.13235 0.04081 0.99216 0.0
H233 H 0.10954 0.06085 0.97686 0.0
H234 H 0.0896 0.09098 0.11948 0.0
H235 H 0.10399 0.1936 0.97685 0.0
H236 H 0.11237 0.16196 0.97943 0.0
C237 C 0.94314 0.96345 0.13711 0.0
C238 C 0.91752 0.95381 0.13583 0.0
C239 C 0.95834 0.98714 0.14623 0.0
C240 C 0.9589 0.04036 0.20088 0.0
H241 H 1.01441 0.07023 0.11709 0.0
C242 C 1.00879 0.13782 0.1912 0.0
C243 C 1.0342 0.14923 0.18679 0.0
C244 C 0.99573 0.11402 0.18929 0.0
C245 C 0.99923 0.06217 0.14146 0.0
H246 H 0.88804 0.96202 0.14258 0.0
H247 H 0.9144 1.00305 0.15873 0.0
H248 H 0.98953 0.02873 0.10517 0.0
H249 H 0.06582 0.14436 0.17762 0.0
H250 H 0.04313 0.10287 0.17564 0.0
H251 H 0.96845 0.07374 0.23698 0.0
C252 C 0.92278 0.99224 0.15344 0.0
C253 C 0.98492 0.03833 0.13454 0.0
C254 C 0.9076 0.9686 0.14416 0.0
C255 C 0.04633 0.13622 0.18184 0.0
C256 C 1.03324 0.11237 0.1799 0.0
C257 C 0.97323 0.06416 0.20789 0.0
C258 C 0.94835 1.00186 0.15455 0.0
C259 C 0.96439 0.02713 0.16372 0.0
C260 C 1.00771 0.10092 0.18296 0.0
C261 C 0.99341 0.07543 0.17784 0.0
H262 H 0.95157 0.95272 0.13162 0.0
H263 H 0.97796 0.99392 0.14743 0.0
H264 H 0.94352 0.0323 0.22476 0.0
H265 H 0.99892 0.14732 0.1953 0.0
H266 H 0.97608 0.10586 0.1912 0.0
C267 C 0.95635 0.92138 0.95254 0.0
C268 C 0.9459 0.89975 0.97096 0.0
C269 C 0.9805 0.93191 0.93809 0.0
C270 C 1.03063 0.92169 0.897 0.0
H271 H 0.073 0.98284 0.96429 0.0
C272 C 0.13566 0.96204 0.91018 0.0
C273 C 0.15037 0.98593 0.91655 0.0
C274 C 0.11017 0.95198 0.90663 0.0
C275 C 0.06146 0.96601 0.94399 0.0
H276 H 0.9524 0.87188 0.98674 0.0
H277 H 0.99449 0.89012 0.96031 0.0
H278 H 1.02949 0.96416 0.97733 0.0
H279 H 0.14962 1.01792 0.91932 0.0
H280 H 0.10521 1.0004 0.91087 0.0
H281 H 0.06239 0.9235 0.86306 0.0
C282 C 0.98396 0.89894 0.95743 0.0
C283 C 0.03646 0.95523 0.95185 0.0
C284 C 0.9599 0.88854 0.97273 0.0
C285 C 0.13891 0.99947 0.9149 0.0
C286 C 0.11335 0.98938 0.91072 0.0
C287 C 0.05559 0.9326 0.88838 0.0
C288 C 0.99465 0.92092 0.94088 0.0
C289 C 1.02085 0.93282 0.9292 0.0
C290 C 0.09858 0.9655 0.90854 0.0
C291 C 0.0715 0.95478 0.91259 0.0
H292 H 0.94615 0.93056 0.95083 0.0
H293 H 0.9882 0.94878 0.92516 0.0
H294 H 1.01896 0.90451 0.8785 0.0
H295 H 0.14376 0.95101 0.91123 0.0
H296 H 0.09967 0.9336 0.90548 0.0
C297 C 0.80975 0.37561 0.45267 0.0
C298 C 0.83499 0.38347 0.45202 0.0
C299 C 0.79929 0.38769 0.43126 0.0
C300 C 0.81106 0.43286 0.34391 0.0
H301 H 0.76435 0.44196 0.42505 0.0
C302 C 0.79111 0.5071 0.32109 0.0
C303 C 0.76843 0.50512 0.33369 0.0
C304 C 0.79615 0.48919 0.32613 0.0
C305 C 0.77694 0.43929 0.40115 0.0
H306 H 0.86927 0.41089 0.43177 0.0
H307 H 0.85118 0.43191 0.39371 0.0
H308 H 0.77915 0.41685 0.45268 0.0
H309 H 0.73265 0.48195 0.35834 0.0
H310 H 0.74117 0.45041 0.36566 0.0
H311 H 0.80907 0.45552 0.29273 0.0
C312 C 0.83925 0.41599 0.40904 0.0
C313 C 0.78555 0.42486 0.41717 0.0
C314 C 0.84966 0.40387 0.43044 0.0
C315 C 0.75027 0.48409 0.34796 0.0
C316 C 0.75533 0.46609 0.35297 0.0
C317 C 0.80235 0.44721 0.32774 0.0
C318 C 0.81392 0.40812 0.40936 0.0
C319 C 0.80312 0.42182 0.38941 0.0
C320 C 0.77864 0.46866 0.3438 0.0
C321 C 0.78555 0.45106 0.3568 0.0
H322 H 0.79806 0.36002 0.46957 0.0
H323 H 0.77973 0.38101 0.43188 0.0
H324 H 0.82421 0.43056 0.32096 0.0
H325 H 0.80555 0.52304 0.31011 0.0
H326 H 0.81438 0.49207 0.31911 0.0
C327 C 0.61578 0.28935 0.321 0.0
C328 C 0.59747 0.27507 0.35214 0.0
C329 C 0.63064 0.31265 0.33768 0.0
C330 C 0.66873 0.35838 0.39413 0.0
H331 H 0.64195 0.39084 0.47756 0.0
C332 C 0.72987 0.45221 0.48378 0.0
C333 C 0.71966 0.46684 0.48325 0.0
C334 C 0.71523 0.42853 0.47175 0.0
C335 C 0.64979 0.38222 0.45385 0.0
H336 H 0.58049 0.27461 0.42534 0.0
H337 H 0.60661 0.31443 0.45493 0.0
H338 H 0.61574 0.35129 0.4443 0.0
H339 H 0.68533 0.46731 0.47412 0.0
H340 H 0.66037 0.42679 0.45085 0.0
H341 H 0.70249 0.38982 0.40129 0.0
C342 C 0.60921 0.30796 0.41687 0.0
C343 C 0.63475 0.35925 0.43536 0.0
C344 C 0.59415 0.28486 0.39984 0.0
C345 C 0.69418 0.45691 0.47344 0.0
C346 C 0.67965 0.43338 0.46079 0.0
C347 C 0.68372 0.38152 0.41195 0.0
C348 C 0.62775 0.32225 0.38623 0.0
C349 C 0.64394 0.34693 0.40523 0.0
C350 C 0.68997 0.41882 0.45882 0.0
C351 C 0.67444 0.39383 0.44194 0.0
H352 H 0.61868 0.28257 0.28369 0.0
H353 H 0.64435 0.3231 0.31236 0.0
H354 H 0.67668 0.34946 0.37187 0.0
H355 H 0.74928 0.45897 0.49178 0.0
H356 H 0.72382 0.41789 0.47205 0.0
C357 C 0.58403 0.21061 0.43314 0.0
C358 C 0.57403 0.22159 0.46507 0.0
C359 C 0.60815 0.22275 0.41869 0.0
C360 C 0.66332 0.24982 0.41035 0.0
H361 H 0.68683 0.31307 0.38689 0.0
C362 C 0.76481 0.31193 0.38428 0.0
C363 C 0.77065 0.3273 0.34604 0.0
C364 C 0.74065 0.29836 0.39627 0.0
C365 C 0.68049 0.29537 0.39273 0.0
H366 H 0.58215 0.25315 0.51153 0.0
H367 H 0.62425 0.27413 0.48781 0.0
H368 H 0.64582 0.29067 0.4152 0.0
H369 H 0.75482 0.33991 0.29028 0.0
H370 H 0.71268 0.31641 0.31194 0.0
H371 H 0.69826 0.2547 0.38842 0.0
C372 C 0.61328 0.25648 0.47164 0.0
C373 C 0.65698 0.28253 0.40944 0.0
C374 C 0.58918 0.24439 0.48569 0.0
C375 C 0.75133 0.32855 0.32019 0.0
C376 C 0.72708 0.31504 0.3326 0.0
C377 C 0.68694 0.26273 0.3941 0.0
C378 C 0.62292 0.24605 0.43672 0.0
C379 C 0.64803 0.25959 0.4186 0.0
C380 C 0.72147 0.29977 0.3708 0.0
C381 C 0.69587 0.2857 0.38533 0.0
H382 H 0.57312 0.19281 0.41852 0.0
H383 H 0.61488 0.21402 0.39198 0.0
H384 H 0.65727 0.23232 0.4175 0.0
H385 H 0.7788 0.31049 0.40618 0.0
H386 H 0.73705 0.28711 0.42658 0.0
C387 C 0.40505 0.81693 0.84523 0.0
C388 C 0.41564 0.83415 0.81164 0.0
C389 C 0.4168 0.80473 0.85905 0.0
C390 C 0.47652 0.80485 0.85809 0.0
H391 H 0.43584 0.73929 0.85494 0.0
C392 C 0.51478 0.74206 0.83324 0.0
C393 C 0.50472 0.72248 0.86032 0.0
C394 C 0.50492 0.75684 0.83545 0.0
C395 C 0.44745 0.75761 0.85686 0.0
H396 H 0.44735 0.85248 0.76758 0.0
H397 H 0.46765 0.83109 0.79104 0.0
H398 H 0.41689 0.76307 0.84388 0.0
H399 H 0.47689 0.70403 0.91315 0.0
H400 H 0.45953 0.72973 0.9164 0.0
H401 H 0.50712 0.79924 0.8696 0.0
C402 C 0.4504 0.82716 0.80737 0.0
C403 C 0.43658 0.77129 0.85054 0.0
C404 C 0.43868 0.8394 0.79369 0.0
C405 C 0.48494 0.71863 0.89104 0.0
C406 C 0.47495 0.73339 0.89294 0.0
C407 C 0.4874 0.79116 0.86421 0.0
C408 C 0.43943 0.80938 0.83952 0.0
C409 C 0.45098 0.79508 0.85034 0.0
C410 C 0.48464 0.75252 0.86459 0.0
C411 C 0.47302 0.76732 0.86294 0.0
H412 H 0.38737 0.81248 0.86 0.0
H413 H 0.40799 0.79145 0.88462 0.0
H414 H 0.48818 0.82313 0.85914 0.0
H415 H 0.52972 0.74572 0.80849 0.0
H416 H 0.51264 0.77121 0.81252 0.0
C417 C 0.3164 0.76795 0.60887 0.0
C418 C 0.34079 0.78369 0.6259 0.0
C419 C 0.30893 0.74468 0.59795 0.0
C420 C 0.32619 0.70106 0.62684 0.0
H421 H 0.279 0.66455 0.511 0.0
C422 C 0.29528 0.60508 0.5787 0.0
C423 C 0.26997 0.59059 0.56877 0.0
C424 C 0.3053 0.6288 0.58009 0.0
C425 C 0.29208 0.67446 0.54372 0.0
H426 H 0.37656 0.78712 0.64318 0.0
H427 H 0.36355 0.74665 0.62423 0.0
H428 H 0.29368 0.70556 0.5249 0.0
H429 H 0.23561 0.58962 0.54971 0.0
H430 H 0.25296 0.63087 0.55234 0.0
H431 H 0.32435 0.66995 0.64613 0.0
C432 C 0.35008 0.75226 0.62017 0.0
C433 C 0.30047 0.69799 0.55175 0.0
C434 C 0.35755 0.77553 0.63108 0.0
C435 C 0.25514 0.60032 0.55781 0.0
C436 C 0.26514 0.62399 0.55897 0.0
C437 C 0.31779 0.67754 0.61882 0.0
C438 C 0.32564 0.73649 0.60371 0.0
C439 C 0.31747 0.71158 0.59371 0.0
C440 C 0.29028 0.63859 0.57123 0.0
C441 C 0.30045 0.66388 0.57745 0.0
H442 H 0.30288 0.77349 0.6051 0.0
H443 H 0.28988 0.73302 0.58616 0.0
H444 H 0.339 0.71089 0.66 0.0
H445 H 0.30724 0.59823 0.58777 0.0
H446 H 0.32479 0.63949 0.58899 0.0
C447 C 0.30009 0.55939 0.77625 0.0
C448 C 0.28167 0.5616 0.74963 0.0
C449 C 0.32475 0.57452 0.77097 0.0
C450 C 0.36918 0.62891 0.72099 0.0
H451 H 0.40512 0.5959 0.69496 0.0
C452 C 0.47525 0.67134 0.70738 0.0
C453 C 0.48407 0.65975 0.67345 0.0
C454 C 0.45007 0.66212 0.71322 0.0
C455 C 0.39537 0.60543 0.70155 0.0
H456 H 0.27481 0.58253 0.69934 0.0
H457 H 0.31799 0.60903 0.6902 0.0
H458 H 0.36287 0.5755 0.71657 0.0
H459 H 0.47321 0.63056 0.61569 0.0
H460 H 0.4295 0.6149 0.6247 0.0
H461 H 0.402 0.6589 0.70529 0.0
C462 C 0.31331 0.59559 0.71535 0.0
C463 C 0.37116 0.59375 0.71485 0.0
C464 C 0.28852 0.58045 0.72087 0.0
C465 C 0.46707 0.63983 0.64241 0.0
C466 C 0.44199 0.63073 0.64799 0.0
C467 C 0.39363 0.64071 0.70791 0.0
C468 C 0.3317 0.59217 0.7385 0.0
C469 C 0.35771 0.60527 0.72505 0.0
C470 C 0.4332 0.64119 0.68511 0.0
C471 C 0.40701 0.62906 0.69781 0.0
H472 H 0.29543 0.54514 0.79886 0.0
H473 H 0.33841 0.57173 0.79056 0.0
H474 H 0.35936 0.63832 0.72855 0.0
H475 H 0.48782 0.68664 0.73225 0.0
H476 H 0.444 0.67064 0.74221 0.0
C477 C 0.12384 0.32358 0.0417 0.0
C478 C 0.11148 0.30035 0.02193 0.0
C479 C 0.13311 0.34068 0.00785 0.0
C480 C 0.15224 0.35111 0.87274 0.0
H481 H 0.14551 0.4053 0.90183 0.0
C482 C 0.17823 0.41823 0.72477 0.0
C483 C 0.18928 0.44143 0.74447 0.0
C484 C 0.16863 0.40109 0.75847 0.0
C485 C 0.14787 0.39044 0.89339 0.0
H486 H 0.09949 0.27703 0.95061 0.0
H487 H 0.11549 0.30682 0.89155 0.0
H488 H 0.12912 0.37543 0.96042 0.0
H489 H 0.1991 0.46466 0.81559 0.0
H490 H 0.18263 0.43487 0.87438 0.0
H491 H 0.17118 0.36614 0.80601 0.0
C492 C 0.11812 0.31182 0.93339 0.0
C493 C 0.1384 0.37326 0.92704 0.0
C494 C 0.1087 0.2947 0.96728 0.0
C495 C 0.19044 0.44701 0.79889 0.0
C496 C 0.18093 0.42986 0.83266 0.0
C497 C 0.1618 0.36833 0.8392 0.0
C498 C 0.13042 0.33505 0.95321 0.0
C499 C 0.14044 0.35334 0.91718 0.0
C500 C 0.16988 0.40662 0.81297 0.0
C501 C 0.15974 0.38826 0.84896 0.0
H502 H 0.12613 0.32864 0.08345 0.0
H503 H 0.14267 0.35836 0.02459 0.0
H504 H 0.15449 0.33618 0.86431 0.0
H505 H 0.17661 0.41323 0.68309 0.0
H506 H 0.15988 0.38344 0.74159 0.0
C507 C 0.80721 0.81772 0.97295 0.0
C508 C 0.82032 0.84119 0.9676 0.0
C509 C 0.78373 0.80411 0.94849 0.0
C510 C 0.73081 0.80767 0.89079 0.0
H511 H 0.7093 0.74468 0.83835 0.0
C512 C 0.63298 0.74592 0.792 0.0
C513 C 0.62135 0.72461 0.81184 0.0
C514 C 0.658 0.76097 0.80481 0.0
C515 C 0.71501 0.76224 0.85286 0.0
H516 H 0.81906 0.86861 0.93133 0.0
H517 H 0.77839 0.84485 0.88804 0.0
H518 H 0.75151 0.7692 0.87251 0.0
H519 H 0.62709 0.70223 0.85952 0.0
H520 H 0.6702 0.72809 0.8811 0.0
H521 H 0.69409 0.80049 0.87124 0.0
C522 C 0.78603 0.837 0.91192 0.0
C523 C 0.73921 0.7763 0.87274 0.0
C524 C 0.80948 0.85062 0.93655 0.0
C525 C 0.63535 0.71852 0.84364 0.0
C526 C 0.66021 0.73331 0.85577 0.0
C527 C 0.70658 0.7936 0.87057 0.0
C528 C 0.77274 0.81356 0.91777 0.0
C529 C 0.74737 0.79909 0.89298 0.0
C530 C 0.67188 0.75477 0.83686 0.0
C531 C 0.69826 0.77057 0.85237 0.0
H532 H 0.81492 0.80989 0.99676 0.0
H533 H 0.77398 0.78624 0.95469 0.0
H534 H 0.73628 0.82504 0.90644 0.0
H535 H 0.62269 0.75112 0.76748 0.0
H536 H 0.66651 0.77739 0.78949 0.0
C537 C 0.35576 0.90805 0.81966 0.0
C538 C 0.34393 0.88414 0.80869 0.0
C539 C 0.34442 0.91878 0.84776 0.0
C540 C 0.29446 0.90767 0.93691 0.0
H541 H 0.29858 0.96269 0.8905 0.0
C542 C 0.23195 0.94448 0.00958 0.0
C543 C 0.24188 0.96835 0.0168 0.0
C544 C 0.24547 0.9346 0.98776 0.0
C545 C 0.2975 0.94752 0.90456 0.0
H546 H 0.31088 0.85282 0.81925 0.0
H547 H 0.29114 0.87146 0.86761 0.0
H548 H 0.32026 0.94502 0.84596 0.0
H549 H 0.27439 1.00047 0.00903 0.0
H550 H 0.29794 0.98332 0.97138 0.0
H551 H 0.27153 0.91008 0.99526 0.0
C552 C 0.3093 0.88196 0.85512 0.0
C553 C 0.30997 0.93737 0.87893 0.0
C554 C 0.3206 0.87126 0.82699 0.0
C555 C 0.26596 0.98205 1.00314 0.0
C556 C 0.27948 0.97219 0.98141 0.0
C557 C 0.282 0.91783 0.96257 0.0
C558 C 0.32098 0.90587 0.86574 0.0
C559 C 0.3085 0.91721 0.8945 0.0
C560 C 0.26931 0.94832 0.97268 0.0
C561 C 0.28322 0.93783 0.94657 0.0
H562 H 0.37375 0.91852 0.80628 0.0
H563 H 0.35409 0.93721 0.85571 0.0
H564 H 0.29321 0.89238 0.95059 0.0
H565 H 0.2134 0.93337 0.01904 0.0
H566 H 0.23691 0.91617 0.98115 0.0
C567 C 0.46771 0.16196 0.2035 0.0
C568 C 0.47162 0.16839 0.25789 0.0
C569 C 0.44448 0.15332 0.17821 0.0
C570 C 0.38364 0.14932 0.19404 0.0
H571 H 0.36061 0.09594 0.09239 0.0
C572 C 0.28169 0.08871 0.13733 0.0
C573 C 0.27405 0.07777 0.08605 0.0
C574 C 0.30644 0.10279 0.1524 0.0
C575 C 0.36687 0.1111 0.11989 0.0
H576 H 0.45409 0.1711 0.32815 0.0
H577 H 0.41355 0.15591 0.28417 0.0
H578 H 0.4025 0.11443 0.1308 0.0
H579 H 0.28644 0.07376 0.00966 0.0
H580 H 0.33001 0.09857 0.03601 0.0
H581 H 0.34785 0.14571 0.18394 0.0
C582 C 0.42853 0.15776 0.26089 0.0
C583 C 0.39092 0.1217 0.14207 0.0
C584 C 0.45178 0.16637 0.28622 0.0
C585 C 0.29175 0.08203 0.04939 0.0
C586 C 0.3167 0.09606 0.06466 0.0
C587 C 0.35962 0.13875 0.17184 0.0
C588 C 0.42452 0.15094 0.20661 0.0
C589 C 0.39949 0.14071 0.18015 0.0
C590 C 0.32435 0.10628 0.11668 0.0
C591 C 0.35076 0.11923 0.13522 0.0
H592 H 0.48257 0.16335 0.18034 0.0
H593 H 0.44217 0.14854 0.13631 0.0
H594 H 0.38975 0.1642 0.22241 0.0
H595 H 0.26852 0.08584 0.16656 0.0
H596 H 0.31156 0.1101 0.19287 0.0
C597 C 0.9881 0.24149 0.12226 0.0
C598 C 1.00194 0.23882 0.1621 0.0
C599 C 0.97173 0.24963 0.1348 0.0
C600 C 0.93776 0.25828 0.24403 0.0
H601 H 0.94157 0.30772 0.17048 0.0
C602 C 0.8994 0.31696 0.32522 0.0
C603 C 0.88939 0.32551 0.28958 0.0
C604 C 0.91076 0.30431 0.30736 0.0
C605 C 0.93989 0.29368 0.19096 0.0
H606 H 1.00865 0.24176 0.24631 0.0
H607 H 0.98019 0.25566 0.26793 0.0
H608 H 0.96469 0.28862 0.14224 0.0
H609 H 0.88287 0.32679 0.20702 0.0
H610 H 0.90214 0.30442 0.17598 0.0
H611 H 0.9131 0.26337 0.29298 0.0
C612 C 0.98188 0.25151 0.22706 0.0
C613 C 0.9532 0.2827 0.17467 0.0
C614 C 0.99836 0.24366 0.21458 0.0
C615 C 0.89052 0.32062 0.23565 0.0
C616 C 0.90175 0.30789 0.2178 0.0
C617 C 0.92435 0.26915 0.26015 0.0
C618 C 0.96862 0.25495 0.18742 0.0
C619 C 0.9526 0.26509 0.20149 0.0
C620 C 0.91231 0.29977 0.25337 0.0
C621 C 0.92548 0.28724 0.23434 0.0
H622 H 0.99048 0.23798 0.08146 0.0
H623 H 0.96163 0.25192 0.10332 0.0
H624 H 0.9366 0.24455 0.26513 0.0
H625 H 0.89897 0.32048 0.36703 0.0
H626 H 0.91894 0.29865 0.33606 0.0
C627 C 0.82827 0.64774 0.37763 0.0
C628 C 0.80385 0.63015 0.36991 0.0
C629 C 0.83619 0.66786 0.35371 0.0
C630 C 0.82052 0.69283 0.24522 0.0
H631 H 0.86503 0.75018 0.32635 0.0
C632 C 0.84908 0.78162 0.17213 0.0
C633 C 0.87346 0.79881 0.18414 0.0
C634 C 0.83996 0.76062 0.19308 0.0
C635 C 0.85283 0.73432 0.3028 0.0
H636 H 0.76866 0.62024 0.33043 0.0
H637 H 0.78247 0.65523 0.28872 0.0
H638 H 0.85053 0.71465 0.36575 0.0
H639 H 0.9076 0.80675 0.22562 0.0
H640 H 0.89189 0.77043 0.26161 0.0
H641 H 0.82292 0.71263 0.18217 0.0
C642 C 0.79559 0.65333 0.31291 0.0
C643 C 0.8445 0.71389 0.32548 0.0
C644 C 0.78765 0.63319 0.33692 0.0
C645 C 0.88859 0.7942 0.21645 0.0
C646 C 0.87954 0.77329 0.23722 0.0
C647 C 0.82891 0.71333 0.22243 0.0
C648 C 0.81994 0.67103 0.32126 0.0
C649 C 0.82836 0.69282 0.29696 0.0
C650 C 0.85502 0.75628 0.22647 0.0
C651 C 0.84535 0.73436 0.2508 0.0
H652 H 0.84144 0.64595 0.40186 0.0
H653 H 0.85518 0.68089 0.36031 0.0
H654 H 0.8083 0.67694 0.22185 0.0
H655 H 0.83685 0.7846 0.14772 0.0
H656 H 0.82094 0.74801 0.18417 0.0
C657 C 0.14304 0.50504 0.54171 0.0
C658 C 0.15006 0.50777 0.59528 0.0
C659 C 0.11937 0.49978 0.5251 0.0
C660 C 0.05656 0.47099 0.5632 0.0
H661 H 0.04423 0.4979 0.44655 0.0
C662 C 0.95824 0.43944 0.47525 0.0
C663 C 0.9549 0.43732 0.42034 0.0
C664 C 0.98173 0.45086 0.50046 0.0
C665 C 0.0473 0.49003 0.47883 0.0
H666 H 0.13777 0.50755 0.67361 0.0
H667 H 0.09591 0.4979 0.64437 0.0
H668 H 0.08586 0.51314 0.48445 0.0
H669 H 0.97379 0.44588 0.34902 0.0
H670 H 1.01468 0.46545 0.39258 0.0
H671 H 1.01822 0.44729 0.55643 0.0
C672 C 0.10896 0.49998 0.61533 0.0
C673 C 0.07118 0.49887 0.50076 0.0
C674 C 0.13292 0.50564 0.63209 0.0
C675 C 0.97565 0.44743 0.39135 0.0
C676 C 0.99916 0.45871 0.41651 0.0
C677 C 1.03266 0.462 0.54099 0.0
C678 C 0.10189 0.49681 0.56154 0.0
C679 C 0.07617 0.48921 0.54261 0.0
C680 C 1.00258 0.46037 0.47142 0.0
C681 C 1.02774 0.47114 0.49787 0.0
H682 H 0.15581 0.50664 0.5123 0.0
H683 H 0.1145 0.49722 0.48343 0.0
H684 H 0.05981 0.46298 0.59499 0.0
H685 H 0.94263 0.43215 0.4988 0.0
H686 H 0.98352 0.45216 0.54279 0.0
C687 C 0.68395 0.56603 0.4588 0.0
C688 C 0.6955 0.55755 0.49071 0.0
C689 C 0.66763 0.5729 0.47989 0.0
C690 C 0.65363 0.59138 0.60971 0.0
H691 H 0.59583 0.58497 0.53531 0.0
C692 C 0.58389 0.60976 0.71591 0.0
C693 C 0.57564 0.62312 0.6921 0.0
C694 C 0.5973 0.60113 0.68852 0.0
C695 C 0.61203 0.58701 0.55642 0.0
H696 H 0.69766 0.54797 0.56824 0.0
H697 H 0.66879 0.55892 0.60408 0.0
H698 H 0.62087 0.57043 0.49177 0.0
H699 H 0.57437 0.63716 0.61996 0.0
H700 H 0.59785 0.62205 0.57205 0.0
H701 H 0.64478 0.60769 0.67438 0.0
C702 C 0.6729 0.56127 0.56357 0.0
C703 C 0.62641 0.57872 0.53144 0.0
C704 C 0.68933 0.55477 0.54286 0.0
C705 C 0.58068 0.62716 0.63967 0.0
C706 C 0.59393 0.61832 0.61205 0.0
C707 C 0.63922 0.59945 0.63464 0.0
C708 C 0.66245 0.57119 0.53307 0.0
C709 C 0.64727 0.58056 0.55805 0.0
C710 C 0.60268 0.60545 0.6364 0.0
C711 C 0.61812 0.5972 0.6086 0.0
H712 H 0.68847 0.56844 0.41851 0.0
H713 H 0.65994 0.58045 0.45517 0.0
H714 H 0.66993 0.5938 0.63107 0.0
H715 H 0.58052 0.60643 0.75625 0.0
H716 H 0.60354 0.59107 0.70828 0.0
C717 C 0.42724 0.95061 0.59729 0.0
C718 C 0.44347 0.94265 0.6107 0.0
C719 C 0.43565 0.97113 0.57453 0.0
C720 C 0.4918 0.02524 0.55859 0.0
H721 H 0.45565 0.02704 0.4365 0.0
C722 C 0.51797 0.10871 0.46437 0.0
C723 C 0.51738 0.10733 0.40935 0.0
C724 C 0.50868 0.08893 0.49006 0.0
C725 C 0.46601 0.02679 0.47045 0.0
H726 H 0.48139 0.95049 0.61241 0.0
H727 H 0.49599 0.98607 0.57299 0.0
H728 H 0.43972 0.99223 0.48028 0.0
H729 H 0.50636 0.08389 0.33832 0.0
H730 H 0.49026 0.0494 0.38311 0.0
H731 H 0.51823 0.05967 0.54848 0.0
C732 C 0.47677 0.9765 0.57984 0.0
C733 C 0.45674 1.00692 0.49589 0.0
C734 C 0.46834 0.95596 0.60199 0.0
C735 C 0.50734 0.08563 0.38069 0.0
C736 C 0.49784 0.06583 0.40638 0.0
C737 C 0.50095 0.04516 0.53347 0.0
C738 C 0.46053 0.98429 0.56539 0.0
C739 C 0.46963 1.00582 0.54 0.0
C740 C 0.49836 0.06722 0.46141 0.0
C741 C 0.48828 0.04614 0.48882 0.0
H742 H 0.40797 0.94072 0.60324 0.0
H743 H 0.42269 0.97673 0.56423 0.0
H744 H 0.50211 0.02506 0.59271 0.0
H745 H 0.52574 0.12513 0.48765 0.0
H746 H 0.50924 0.09065 0.53245 0.0
loop_
_geom_bond_atom_site_label_1
_geom_bond_atom_site_label_2
_geom_bond_distance
_geom_bond_site_symmetry_2
_ccdc_geom_bond_type
Cu0 N1 1.999 1_455 S
Cu0 O6 1.974 . S
Cu0 N11 1.985 . S
Cu0 O20 1.959 1_455 S
N1 Cu0 1.999 1_655 S
N1 C3 1.263 . S
N1 C5 1.389 . S
N2 C3 1.358 . S
N2 C4 1.400 . S
C3 N1 1.263 . S
C3 N2 1.358 . S
C3 H9 0.930 . S
C4 N2 1.400 . S
C4 C5 1.351 . S
C4 H21 0.930 . S
C5 N1 1.389 . S
C5 C4 1.351 . S
C5 H10 0.930 . S
O6 Cu0 1.974 . S
O6 C16 1.282 . S
C7 O8 1.261 . S
C7 O20 1.251 . S
O8 C7 1.261 . S
H9 C3 0.930 . S
H10 C5 0.930 . S
N11 Cu0 1.985 . S
N11 C13 1.335 . S
N11 C14 1.390 . S
N12 C13 1.345 . S
N12 C15 1.336 . S
C13 N11 1.335 . S
C13 N12 1.345 . S
C13 H18 0.930 . S
C14 N11 1.390 . S
C14 C15 1.346 . S
C14 H19 0.930 . S
C15 N12 1.336 . S
C15 C14 1.346 . S
C15 H22 0.929 . S
C16 O6 1.282 . S
C16 O17 1.216 . S
O17 C16 1.216 . S
H18 C13 0.930 . S
H19 C14 0.930 . S
O20 Cu0 1.959 1_655 S
O20 C7 1.251 . S
H21 C4 0.930 . S
H22 C15 0.929 . S
Cu23 N24 1.999 . S
Cu23 O29 1.974 . S
Cu23 N34 1.985 . S
Cu23 O43 1.959 . S
N24 Cu23 1.999 . S
N24 C26 1.263 . S
N24 C28 1.389 . S
N25 C26 1.358 . S
N25 C27 1.400 . S
C26 N24 1.263 . S
C26 N25 1.358 . S
C26 H32 0.930 . S
C27 N25 1.400 . S
C27 C28 1.351 . S
C27 H44 0.930 . S
C28 N24 1.389 . S
C28 C27 1.351 . S
C28 H33 0.930 . S
O29 Cu23 1.974 . S
O29 C39 1.282 . S
C30 O31 1.261 1_554 S
C30 O43 1.251 . S
O31 C30 1.261 1_556 S
H32 C26 0.930 . S
H33 C28 0.930 . S
N34 Cu23 1.985 . S
N34 C36 1.335 . S
N34 C37 1.390 . S
N35 C36 1.345 . S
N35 C38 1.336 . S
C36 N34 1.335 . S
C36 N35 1.345 . S
C36 H41 0.930 . S
C37 N34 1.390 . S
C37 C38 1.346 . S
C37 H42 0.930 . S
C38 N35 1.336 . S
C38 C37 1.346 . S
C38 H45 0.929 . S
C39 O29 1.282 . S
C39 O40 1.216 . S
O40 C39 1.216 . S
H41 C36 0.930 . S
H42 C37 0.930 . S
O43 Cu23 1.959 . S
O43 C30 1.251 . S
H44 C27 0.930 . S
H45 C38 0.929 . S
Cu46 N47 1.999 1_545 S
Cu46 O52 1.974 . S
Cu46 N57 1.985 . S
Cu46 O66 1.959 1_545 S
N47 Cu46 1.999 1_565 S
N47 C49 1.263 . S
N47 C51 1.389 1_554 S
N48 C49 1.358 . S
N48 C50 1.400 1_554 S
C49 N47 1.263 . S
C49 N48 1.358 . S
C49 H55 0.930 . S
C50 N48 1.400 1_556 S
C50 C51 1.351 . S
C50 H67 0.930 . S
C51 N47 1.389 1_556 S
C51 C50 1.351 . S
C51 H56 0.930 . S
O52 Cu46 1.974 . S
O52 C62 1.282 . S
C53 O54 1.261 . S
C53 O66 1.251 . S
O54 C53 1.261 . S
H55 C49 0.930 . S
H56 C51 0.930 . S
N57 Cu46 1.985 . S
N57 C59 1.335 . S
N57 C60 1.390 . S
N58 C59 1.345 . S
N58 C61 1.336 . S
C59 N57 1.335 . S
C59 N58 1.345 . S
C59 H64 0.930 . S
C60 N57 1.390 . S
C60 C61 1.346 . S
C60 H65 0.930 . S
C61 N58 1.336 . S
C61 C60 1.346 . S
C61 H68 0.929 . S
C62 O52 1.282 . S
C62 O63 1.216 . S
O63 C62 1.216 . S
H64 C59 0.930 . S
H65 C60 0.930 . S
O66 Cu46 1.959 1_565 S
O66 C53 1.251 . S
H67 C50 0.930 . S
H68 C61 0.929 . S
Cu69 N70 1.999 . S
Cu69 O75 1.974 . S
Cu69 N80 1.985 . S
Cu69 O89 1.959 . S
N70 Cu69 1.999 . S
N70 C72 1.263 . S
N70 C74 1.389 . S
N71 C72 1.358 . S
N71 C73 1.400 . S
C72 N70 1.263 . S
C72 N71 1.358 . S
C72 H78 0.930 . S
C73 N71 1.400 . S
C73 C74 1.351 . S
C73 H90 0.930 . S
C74 N70 1.389 . S
C74 C73 1.351 . S
C74 H79 0.930 . S
O75 Cu69 1.974 . S
O75 C85 1.282 . S
C76 O77 1.261 . S
C76 O89 1.251 . S
O77 C76 1.261 . S
H78 C72 0.930 . S
H79 C74 0.930 . S
N80 Cu69 1.985 . S
N80 C82 1.335 . S
N80 C83 1.390 . S
N81 C82 1.345 . S
N81 C84 1.336 . S
C82 N80 1.335 . S
C82 N81 1.345 . S
C82 H87 0.930 . S
C83 N80 1.390 . S
C83 C84 1.346 . S
C83 H88 0.930 . S
C84 N81 1.336 . S
C84 C83 1.346 . S
C84 H91 0.929 . S
C85 O75 1.282 . S
C85 O86 1.216 . S
O86 C85 1.216 . S
H87 C82 0.930 . S
H88 C83 0.930 . S
O89 Cu69 1.959 . S
O89 C76 1.251 . S
H90 C73 0.930 . S
H91 C84 0.929 . S
Cu92 N93 1.999 . S
Cu92 O98 1.974 . S
Cu92 N103 1.985 . S
Cu92 O112 1.959 . S
N93 Cu92 1.999 . S
N93 C95 1.263 . S
N93 C97 1.389 . S
N94 C95 1.358 . S
N94 C96 1.400 . S
C95 N93 1.263 . S
C95 N94 1.358 . S
C95 H101 0.930 . S
C96 N94 1.400 . S
C96 C97 1.351 . S
C96 H113 0.930 . S
C97 N93 1.389 . S
C97 C96 1.351 . S
C97 H102 0.930 . S
O98 Cu92 1.974 . S
O98 C108 1.282 . S
C99 O100 1.261 . S
C99 O112 1.251 . S
O100 C99 1.261 . S
H101 C95 0.930 . S
H102 C97 0.930 . S
N103 Cu92 1.985 . S
N103 C105 1.335 . S
N103 C106 1.390 . S
N104 C105 1.345 . S
N104 C107 1.336 . S
C105 N103 1.335 . S
C105 N104 1.345 . S
C105 H110 0.930 . S
C106 N103 1.390 . S
C106 C107 1.346 . S
C106 H111 0.930 . S
C107 N104 1.336 . S
C107 C106 1.346 . S
C107 H114 0.929 . S
C108 O98 1.282 . S
C108 O109 1.216 . S
O109 C108 1.216 . S
H110 C105 0.930 . S
H111 C106 0.930 . S
O112 Cu92 1.959 . S
O112 C99 1.251 . S
H113 C96 0.930 . S
H114 C107 0.929 . S
Cu115 N116 1.999 . S
Cu115 O121 1.974 . S
Cu115 N126 1.985 . S
Cu115 O135 1.959 . S
N116 Cu115 1.999 . S
N116 C118 1.263 . S
N116 C120 1.389 . S
N117 C118 1.358 . S
N117 C119 1.400 . S
C118 N116 1.263 . S
C118 N117 1.358 . S
C118 H124 0.930 . S
C119 N117 1.400 . S
C119 C120 1.351 . S
C119 H136 0.930 . S
C120 N116 1.389 . S
C120 C119 1.351 . S
C120 H125 0.930 . S
O121 Cu115 1.974 . S
O121 C131 1.282 . S
C122 O123 1.261 . S
C122 O135 1.251 . S
O123 C122 1.261 . S
H124 C118 0.930 . S
H125 C120 0.930 . S
N126 Cu115 1.985 . S
N126 C128 1.335 . S
N126 C129 1.390 . S
N127 C128 1.345 . S
N127 C130 1.336 . S
C128 N126 1.335 . S
C128 N127 1.345 . S
C128 H133 0.930 . S
C129 N126 1.390 . S
C129 C130 1.346 . S
C129 H134 0.930 . S
C130 N127 1.336 . S
C130 C129 1.346 . S
C130 H137 0.929 . S
C131 O121 1.282 . S
C131 O132 1.216 . S
O132 C131 1.216 . S
H133 C128 0.930 . S
H134 C129 0.930 . S
O135 Cu115 1.959 . S
O135 C122 1.251 . S
H136 C119 0.930 . S
H137 C130 0.929 . S
Cu138 N139 1.999 . S
Cu138 O144 1.974 . S
Cu138 N149 1.985 . S
Cu138 O158 1.959 . S
N139 Cu138 1.999 . S
N139 C141 1.263 . S
N139 C143 1.389 . S
N140 C141 1.358 . S
N140 C142 1.400 . S
C141 N139 1.263 . S
C141 N140 1.358 . S
C141 H147 0.930 . S
C142 N140 1.400 . S
C142 C143 1.351 . S
C142 H159 0.930 . S
C143 N139 1.389 . S
C143 C142 1.351 . S
C143 H148 0.930 . S
O144 Cu138 1.974 . S
O144 C154 1.282 . S
C145 O146 1.261 . S
C145 O158 1.251 . S
O146 C145 1.261 . S
H147 C141 0.930 . S
H148 C143 0.930 . S
N149 Cu138 1.985 . S
N149 C151 1.335 . S
N149 C152 1.390 . S
N150 C151 1.345 . S
N150 C153 1.336 . S
C151 N149 1.335 . S
C151 N150 1.345 . S
C151 H156 0.930 . S
C152 N149 1.390 . S
C152 C153 1.346 . S
C152 H157 0.930 . S
C153 N150 1.336 . S
C153 C152 1.346 . S
C153 H160 0.929 . S
C154 O144 1.282 . S
C154 O155 1.216 . S
O155 C154 1.216 . S
H156 C151 0.930 . S
H157 C152 0.930 . S
O158 Cu138 1.959 . S
O158 C145 1.251 . S
H159 C142 0.930 . S
H160 C153 0.929 . S
Cu161 N162 1.999 . S
Cu161 O167 1.974 . S
Cu161 N172 1.985 . S
Cu161 O181 1.959 . S
N162 Cu161 1.999 . S
N162 C164 1.263 . S
N162 C166 1.389 . S
N163 C164 1.358 . S
N163 C165 1.400 . S
C164 N162 1.263 . S
C164 N163 1.358 . S
C164 H170 0.930 . S
C165 N163 1.400 . S
C165 C166 1.351 . S
C165 H182 0.930 . S
C166 N162 1.389 . S
C166 C165 1.351 . S
C166 H171 0.930 . S
O167 Cu161 1.974 . S
O167 C177 1.282 . S
C168 O169 1.261 . S
C168 O181 1.251 . S
O169 C168 1.261 . S
H170 C164 0.930 . S
H171 C166 0.930 . S
N172 Cu161 1.985 . S
N172 C174 1.335 . S
N172 C175 1.390 . S
N173 C174 1.345 . S
N173 C176 1.336 . S
C174 N172 1.335 . S
C174 N173 1.345 . S
C174 H179 0.930 . S
C175 N172 1.390 . S
C175 C176 1.346 . S
C175 H180 0.930 . S
C176 N173 1.336 . S
C176 C175 1.346 . S
C176 H183 0.929 . S
C177 O167 1.282 . S
C177 O178 1.216 . S
O178 C177 1.216 . S
H179 C174 0.930 . S
H180 C175 0.930 . S
O181 Cu161 1.959 . S
O181 C168 1.251 . S
H182 C165 0.930 . S
H183 C176 0.929 . S
Cu184 N185 1.999 . S
Cu184 O190 1.974 . S
Cu184 N195 1.985 . S
Cu184 O204 1.959 . S
N185 Cu184 1.999 . S
N185 C187 1.263 . S
N185 C189 1.389 . S
N186 C187 1.358 . S
N186 C188 1.400 . S
C187 N185 1.263 . S
C187 N186 1.358 . S
C187 H193 0.930 . S
C188 N186 1.400 . S
C188 C189 1.351 . S
C188 H205 0.930 . S
C189 N185 1.389 . S
C189 C188 1.351 . S
C189 H194 0.930 . S
O190 Cu184 1.974 . S
O190 C200 1.282 . S
C191 O192 1.261 . S
C191 O204 1.251 . S
O192 C191 1.261 . S
H193 C187 0.930 . S
H194 C189 0.930 . S
N195 Cu184 1.985 . S
N195 C197 1.335 . S
N195 C198 1.390 . S
N196 C197 1.345 . S
N196 C199 1.336 . S
C197 N195 1.335 . S
C197 N196 1.345 . S
C197 H202 0.930 . S
C198 N195 1.390 . S
C198 C199 1.346 . S
C198 H203 0.930 . S
C199 N196 1.336 . S
C199 C198 1.346 . S
C199 H206 0.929 . S
C200 O190 1.282 . S
C200 O201 1.216 . S
O201 C200 1.216 . S
H202 C197 0.930 . S
H203 C198 0.930 . S
O204 Cu184 1.959 . S
O204 C191 1.251 . S
H205 C188 0.930 . S
H206 C199 0.929 . S
C207 C208 1.349 . S
C207 C209 1.327 . S
C207 H232 0.950 . S
C208 C207 1.349 . S
C208 C224 1.349 . S
C209 C207 1.327 . S
C209 C228 1.429 . S
C209 H233 0.950 . S
C210 C227 1.574 . S
C210 C229 1.368 . S
C210 H234 0.949 . S
H211 C215 0.949 . S
C212 C213 1.349 . S
C212 C214 1.327 . S
C212 H235 0.950 . S
C213 C212 1.349 . S
C213 C225 1.349 . S
C214 C212 1.327 . S
C214 C230 1.429 . S
C214 H236 0.950 . S
C215 H211 0.949 . S
C215 C223 1.574 . S
C215 C231 1.368 . S
H216 C224 0.950 . S
H217 C222 0.950 . S
H218 C223 0.949 . S
H219 C225 0.950 . S
H220 C226 0.950 . S
H221 C227 0.949 . S
C222 H217 0.950 . S
C222 C224 1.327 . S
C222 C228 1.429 . S
C223 C215 1.574 . S
C223 H218 0.949 . S
C223 C229 1.368 . S
C224 C208 1.349 . S
C224 H216 0.950 . S
C224 C222 1.327 . S
C225 C213 1.349 . S
C225 H219 0.950 . S
C225 C226 1.327 . S
C226 H220 0.950 . S
C226 C225 1.327 . S
C226 C230 1.429 . S
C227 C210 1.574 . S
C227 H221 0.949 . S
C227 C231 1.368 . S
C228 C209 1.429 . S
C228 C222 1.429 . S
C228 C229 1.523 . S
C229 C210 1.368 . S
C229 C223 1.368 . S
C229 C228 1.523 . S
C230 C214 1.429 . S
C230 C226 1.429 . S
C230 C231 1.523 . S
C231 C215 1.368 . S
C231 C227 1.368 . S
C231 C230 1.523 . S
H232 C207 0.950 . S
H233 C209 0.950 . S
H234 C210 0.949 . S
H235 C212 0.950 . S
H236 C214 0.950 . S
C237 C238 1.349 . S
C237 C239 1.327 . S
C237 H262 0.950 . S
C238 C237 1.349 . S
C238 C254 1.352 . S
C239 C237 1.327 . S
C239 C258 1.429 . S
C239 H263 0.950 . S
C240 C257 1.574 1_565 S
C240 C259 1.368 . S
C240 H264 0.949 1_554 S
H241 C245 0.949 . S
C242 C243 1.349 . S
C242 C244 1.327 . S
C242 H265 0.950 . S
C243 C242 1.349 . S
C243 C255 1.349 . S
C244 C242 1.327 . S
C244 C260 1.429 . S
C244 H266 0.950 . S
C245 H241 0.949 . S
C245 C253 1.572 . S
C245 C261 1.368 . S
H246 C254 0.946 1_556 S
H247 C252 0.950 1_556 S
H248 C253 0.951 1_565 S
H249 C255 0.950 . S
H250 C256 0.950 . S
H251 C257 0.949 1_556 S
C252 H247 0.950 1_554 S
C252 C254 1.327 . S
C252 C258 1.429 . S
C253 C245 1.572 . S
C253 H248 0.951 1_545 S
C253 C259 1.368 1_545 S
C254 C238 1.352 . S
C254 H246 0.946 1_554 S
C254 C252 1.327 . S
C255 C243 1.349 . S
C255 H249 0.950 . S
C255 C256 1.327 . S
C256 H250 0.950 . S
C256 C255 1.327 . S
C256 C260 1.429 . S
C257 C240 1.574 1_545 S
C257 H251 0.949 1_554 S
C257 C261 1.368 . S
C258 C239 1.429 . S
C258 C252 1.429 . S
C258 C259 1.523 . S
C259 C240 1.368 . S
C259 C253 1.368 1_565 S
C259 C258 1.523 . S
C260 C244 1.429 . S
C260 C256 1.429 . S
C260 C261 1.523 . S
C261 C245 1.368 . S
C261 C257 1.368 . S
C261 C260 1.523 . S
H262 C237 0.950 . S
H263 C239 0.950 . S
H264 C240 0.949 1_556 S
H265 C242 0.950 . S
H266 C244 0.950 . S
C267 C268 1.349 . S
C267 C269 1.327 . S
C267 H292 0.950 . S
C268 C267 1.349 . S
C268 C284 1.349 . S
C269 C267 1.327 . S
C269 C288 1.429 . S
C269 H293 0.950 . S
C270 C287 1.574 . S
C270 C289 1.368 1_455 S
C270 H294 0.949 1_455 S
H271 C275 0.949 1_556 S
C272 C273 1.349 . S
C272 C274 1.327 . S
C272 H295 0.950 . S
C273 C272 1.349 . S
C273 C285 1.349 . S
C274 C272 1.327 . S
C274 C290 1.429 . S
C274 H296 0.950 . S
C275 H271 0.949 1_554 S
C275 C283 1.574 1_455 S
C275 C291 1.368 . S
H276 C284 0.950 . S
H277 C282 0.950 . S
H278 C283 0.949 1_556 S
H279 C285 0.950 1_556 S
H280 C286 0.950 1_556 S
H281 C287 0.949 . S
C282 H277 0.950 . S
C282 C284 1.327 . S
C282 C288 1.429 . S
C283 C275 1.574 1_655 S
C283 H278 0.949 1_554 S
C283 C289 1.368 . S
C284 C268 1.349 . S
C284 H276 0.950 . S
C284 C282 1.327 . S
C285 C273 1.349 . S
C285 H279 0.950 1_554 S
C285 C286 1.327 . S
C286 H280 0.950 1_554 S
C286 C285 1.327 . S
C286 C290 1.429 . S
C287 C270 1.574 . S
C287 H281 0.949 . S
C287 C291 1.368 . S
C288 C269 1.429 . S
C288 C282 1.429 . S
C288 C289 1.523 . S
C289 C270 1.368 1_655 S
C289 C283 1.368 . S
C289 C288 1.523 . S
C290 C274 1.429 . S
C290 C286 1.429 . S
C290 C291 1.523 . S
C291 C275 1.368 . S
C291 C287 1.368 . S
C291 C290 1.523 . S
H292 C267 0.950 . S
H293 C269 0.950 . S
H294 C270 0.949 1_655 S
H295 C272 0.950 . S
H296 C274 0.950 . S
C297 C298 1.349 . S
C297 C299 1.327 . S
C297 H322 0.950 . S
C298 C297 1.349 . S
C298 C314 1.349 . S
C299 C297 1.327 . S
C299 C318 1.429 . S
C299 H323 0.950 . S
C300 C317 1.574 . S
C300 C319 1.368 . S
C300 H324 0.949 . S
H301 C305 0.949 . S
C302 C303 1.349 . S
C302 C304 1.327 . S
C302 H325 0.950 . S
C303 C302 1.349 . S
C303 C315 1.349 . S
C304 C302 1.327 . S
C304 C320 1.429 . S
C304 H326 0.950 . S
C305 H301 0.949 . S
C305 C313 1.574 . S
C305 C321 1.368 . S
H306 C314 0.950 . S
H307 C312 0.950 . S
H308 C313 0.949 . S
H309 C315 0.950 . S
H310 C316 0.950 . S
H311 C317 0.949 . S
C312 H307 0.950 . S
C312 C314 1.327 . S
C312 C318 1.429 . S
C313 C305 1.574 . S
C313 H308 0.949 . S
C313 C319 1.368 . S
C314 C298 1.349 . S
C314 H306 0.950 . S
C314 C312 1.327 . S
C315 C303 1.349 . S
C315 H309 0.950 . S
C315 C316 1.327 . S
C316 H310 0.950 . S
C316 C315 1.327 . S
C316 C320 1.429 . S
C317 C300 1.574 . S
C317 H311 0.949 . S
C317 C321 1.368 . S
C318 C299 1.429 . S
C318 C312 1.429 . S
C318 C319 1.523 . S
C319 C300 1.368 . S
C319 C313 1.368 . S
C319 C318 1.523 . S
C320 C304 1.429 . S
C320 C316 1.429 . S
C320 C321 1.523 . S
C321 C305 1.368 . S
C321 C317 1.368 . S
C321 C320 1.523 . S
H322 C297 0.950 . S
H323 C299 0.950 . S
H324 C300 0.949 . S
H325 C302 0.950 . S
H326 C304 0.950 . S
C327 C328 1.349 . S
C327 C329 1.327 . S
C327 H352 0.950 . S
C328 C327 1.349 . S
C328 C344 1.349 . S
C329 C327 1.327 . S
C329 C348 1.429 . S
C329 H353 0.950 . S
C330 C347 1.574 . S
C330 C349 1.368 . S
C330 H354 0.949 . S
H331 C335 0.949 . S
C332 C333 1.349 . S
C332 C334 1.327 . S
C332 H355 0.950 . S
C333 C332 1.349 . S
C333 C345 1.349 . S
C334 C332 1.327 . S
C334 C350 1.429 . S
C334 H356 0.950 . S
C335 H331 0.949 . S
C335 C343 1.574 . S
C335 C351 1.368 . S
H336 C344 0.950 . S
H337 C342 0.950 . S
H338 C343 0.949 . S
H339 C345 0.950 . S
H340 C346 0.950 . S
H341 C347 0.949 . S
C342 H337 0.950 . S
C342 C344 1.327 . S
C342 C348 1.429 . S
C343 C335 1.574 . S
C343 H338 0.949 . S
C343 C349 1.368 . S
C344 C328 1.349 . S
C344 H336 0.950 . S
C344 C342 1.327 . S
C345 C333 1.349 . S
C345 H339 0.950 . S
C345 C346 1.327 . S
C346 H340 0.950 . S
C346 C345 1.327 . S
C346 C350 1.429 . S
C347 C330 1.574 . S
C347 H341 0.949 . S
C347 C351 1.368 . S
C348 C329 1.429 . S
C348 C342 1.429 . S
C348 C349 1.523 . S
C349 C330 1.368 . S
C349 C343 1.368 . S
C349 C348 1.523 . S
C350 C334 1.429 . S
C350 C346 1.429 . S
C350 C351 1.523 . S
C351 C335 1.368 . S
C351 C347 1.368 . S
C351 C350 1.523 . S
H352 C327 0.950 . S
H353 C329 0.950 . S
H354 C330 0.949 . S
H355 C332 0.950 . S
H356 C334 0.950 . S
C357 C358 1.349 . S
C357 C359 1.327 . S
C357 H382 0.950 . S
C358 C357 1.349 . S
C358 C374 1.349 . S
C359 C357 1.327 . S
C359 C378 1.429 . S
C359 H383 0.950 . S
C360 C377 1.574 . S
C360 C379 1.368 . S
C360 H384 0.949 . S
H361 C365 0.949 . S
C362 C363 1.349 . S
C362 C364 1.327 . S
C362 H385 0.950 . S
C363 C362 1.349 . S
C363 C375 1.349 . S
C364 C362 1.327 . S
C364 C380 1.429 . S
C364 H386 0.950 . S
C365 H361 0.949 . S
C365 C373 1.574 . S
C365 C381 1.368 . S
H366 C374 0.950 . S
H367 C372 0.950 . S
H368 C373 0.949 . S
H369 C375 0.950 . S
H370 C376 0.950 . S
H371 C377 0.949 . S
C372 H367 0.950 . S
C372 C374 1.327 . S
C372 C378 1.429 . S
C373 C365 1.574 . S
C373 H368 0.949 . S
C373 C379 1.368 . S
C374 C358 1.349 . S
C374 H366 0.950 . S
C374 C372 1.327 . S
C375 C363 1.349 . S
C375 H369 0.950 . S
C375 C376 1.327 . S
C376 H370 0.950 . S
C376 C375 1.327 . S
C376 C380 1.429 . S
C377 C360 1.574 . S
C377 H371 0.949 . S
C377 C381 1.368 . S
C378 C359 1.429 . S
C378 C372 1.429 . S
C378 C379 1.523 . S
C379 C360 1.368 . S
C379 C373 1.368 . S
C379 C378 1.523 . S
C380 C364 1.429 . S
C380 C376 1.429 . S
C380 C381 1.523 . S
C381 C365 1.368 . S
C381 C377 1.368 . S
C381 C380 1.523 . S
H382 C357 0.950 . S
H383 C359 0.950 . S
H384 C360 0.949 . S
H385 C362 0.950 . S
H386 C364 0.950 . S
C387 C388 1.349 . S
C387 C389 1.327 . S
C387 H412 0.950 . S
C388 C387 1.349 . S
C388 C404 1.349 . S
C389 C387 1.327 . S
C389 C408 1.429 . S
C389 H413 0.950 . S
C390 C407 1.574 . S
C390 C409 1.368 . S
C390 H414 0.949 . S
H391 C395 0.949 . S
C392 C393 1.349 . S
C392 C394 1.327 . S
C392 H415 0.950 . S
C393 C392 1.349 . S
C393 C405 1.349 . S
C394 C392 1.327 . S
C394 C410 1.429 . S
C394 H416 0.950 . S
C395 H391 0.949 . S
C395 C403 1.574 . S
C395 C411 1.368 . S
H396 C404 0.950 . S
H397 C402 0.950 . S
H398 C403 0.949 . S
H399 C405 0.950 . S
H400 C406 0.950 . S
H401 C407 0.949 . S
C402 H397 0.950 . S
C402 C404 1.327 . S
C402 C408 1.429 . S
C403 C395 1.574 . S
C403 H398 0.949 . S
C403 C409 1.368 . S
C404 C388 1.349 . S
C404 H396 0.950 . S
C404 C402 1.327 . S
C405 C393 1.349 . S
C405 H399 0.950 . S
C405 C406 1.327 . S
C406 H400 0.950 . S
C406 C405 1.327 . S
C406 C410 1.429 . S
C407 C390 1.574 . S
C407 H401 0.949 . S
C407 C411 1.368 . S
C408 C389 1.429 . S
C408 C402 1.429 . S
C408 C409 1.523 . S
C409 C390 1.368 . S
C409 C403 1.368 . S
C409 C408 1.523 . S
C410 C394 1.429 . S
C410 C406 1.429 . S
C410 C411 1.523 . S
C411 C395 1.368 . S
C411 C407 1.368 . S
C411 C410 1.523 . S
H412 C387 0.950 . S
H413 C389 0.950 . S
H414 C390 0.949 . S
H415 C392 0.950 . S
H416 C394 0.950 . S
C417 C418 1.349 . S
C417 C419 1.327 . S
C417 H442 0.950 . S
C418 C417 1.349 . S
C418 C434 1.349 . S
C419 C417 1.327 . S
C419 C438 1.429 . S
C419 H443 0.950 . S
C420 C437 1.574 . S
C420 C439 1.368 . S
C420 H444 0.949 . S
H421 C425 0.949 . S
C422 C423 1.349 . S
C422 C424 1.327 . S
C422 H445 0.950 . S
C423 C422 1.349 . S
C423 C435 1.349 . S
C424 C422 1.327 . S
C424 C440 1.429 . S
C424 H446 0.950 . S
C425 H421 0.949 . S
C425 C433 1.574 . S
C425 C441 1.368 . S
H426 C434 0.950 . S
H427 C432 0.950 . S
H428 C433 0.949 . S
H429 C435 0.950 . S
H430 C436 0.950 . S
H431 C437 0.949 . S
C432 H427 0.950 . S
C432 C434 1.327 . S
C432 C438 1.429 . S
C433 C425 1.574 . S
C433 H428 0.949 . S
C433 C439 1.368 . S
C434 C418 1.349 . S
C434 H426 0.950 . S
C434 C432 1.327 . S
C435 C423 1.349 . S
C435 H429 0.950 . S
C435 C436 1.327 . S
C436 H430 0.950 . S
C436 C435 1.327 . S
C436 C440 1.429 . S
C437 C420 1.574 . S
C437 H431 0.949 . S
C437 C441 1.368 . S
C438 C419 1.429 . S
C438 C432 1.429 . S
C438 C439 1.523 . S
C439 C420 1.368 . S
C439 C433 1.368 . S
C439 C438 1.523 . S
C440 C424 1.429 . S
C440 C436 1.429 . S
C440 C441 1.523 . S
C441 C425 1.368 . S
C441 C437 1.368 . S
C441 C440 1.523 . S
H442 C417 0.950 . S
H443 C419 0.950 . S
H444 C420 0.949 . S
H445 C422 0.950 . S
H446 C424 0.950 . S
C447 C448 1.349 . S
C447 C449 1.327 . S
C447 H472 0.950 . S
C448 C447 1.349 . S
C448 C464 1.349 . S
C449 C447 1.327 . S
C449 C468 1.429 . S
C449 H473 0.950 . S
C450 C467 1.574 . S
C450 C469 1.368 . S
C450 H474 0.949 . S
H451 C455 0.949 . S
C452 C453 1.349 . S
C452 C454 1.327 . S
C452 H475 0.950 . S
C453 C452 1.349 . S
C453 C465 1.349 . S
C454 C452 1.327 . S
C454 C470 1.429 . S
C454 H476 0.950 . S
C455 H451 0.949 . S
C455 C463 1.574 . S
C455 C471 1.368 . S
H456 C464 0.950 . S
H457 C462 0.950 . S
H458 C463 0.949 . S
H459 C465 0.950 . S
H460 C466 0.950 . S
H461 C467 0.949 . S
C462 H457 0.950 . S
C462 C464 1.327 . S
C462 C468 1.429 . S
C463 C455 1.574 . S
C463 H458 0.949 . S
C463 C469 1.368 . S
C464 C448 1.349 . S
C464 H456 0.950 . S
C464 C462 1.327 . S
C465 C453 1.349 . S
C465 H459 0.950 . S
C465 C466 1.327 . S
C466 H460 0.950 . S
C466 C465 1.327 . S
C466 C470 1.429 . S
C467 C450 1.574 . S
C467 H461 0.949 . S
C467 C471 1.368 . S
C468 C449 1.429 . S
C468 C462 1.429 . S
C468 C469 1.523 . S
C469 C450 1.368 . S
C469 C463 1.368 . S
C469 C468 1.523 . S
C470 C454 1.429 . S
C470 C466 1.429 . S
C470 C471 1.523 . S
C471 C455 1.368 . S
C471 C467 1.368 . S
C471 C470 1.523 . S
H472 C447 0.950 . S
H473 C449 0.950 . S
H474 C450 0.949 . S
H475 C452 0.950 . S
H476 C454 0.950 . S
C477 C478 1.349 1_554 S
C477 C479 1.327 1_554 S
C477 H502 0.950 . S
C478 C477 1.349 1_556 S
C478 C494 1.349 . S
C479 C477 1.327 1_556 S
C479 C498 1.429 . S
C479 H503 0.950 1_556 S
C480 C497 1.574 . S
C480 C499 1.368 . S
C480 H504 0.949 . S
H481 C485 0.949 . S
C482 C483 1.349 . S
C482 C484 1.327 . S
C482 H505 0.950 . S
C483 C482 1.349 . S
C483 C495 1.349 . S
C484 C482 1.327 . S
C484 C500 1.429 . S
C484 H506 0.950 . S
C485 H481 0.949 . S
C485 C493 1.574 . S
C485 C501 1.368 . S
H486 C494 0.950 . S
H487 C492 0.950 . S
H488 C493 0.949 . S
H489 C495 0.950 . S
H490 C496 0.950 . S
H491 C497 0.949 . S
C492 H487 0.950 . S
C492 C494 1.327 . S
C492 C498 1.429 . S
C493 C485 1.574 . S
C493 H488 0.949 . S
C493 C499 1.368 . S
C494 C478 1.349 . S
C494 H486 0.950 . S
C494 C492 1.327 . S
C495 C483 1.349 . S
C495 H489 0.950 . S
C495 C496 1.327 . S
C496 H490 0.950 . S
C496 C495 1.327 . S
C496 C500 1.429 . S
C497 C480 1.574 . S
C497 H491 0.949 . S
C497 C501 1.368 . S
C498 C479 1.429 . S
C498 C492 1.429 . S
C498 C499 1.523 . S
C499 C480 1.368 . S
C499 C493 1.368 . S
C499 C498 1.523 . S
C500 C484 1.429 . S
C500 C496 1.429 . S
C500 C501 1.523 . S
C501 C485 1.368 . S
C501 C497 1.368 . S
C501 C500 1.523 . S
H502 C477 0.950 . S
H503 C479 0.950 1_554 S
H504 C480 0.949 . S
H505 C482 0.950 . S
H506 C484 0.950 . S
C507 C508 1.349 1_554 S
C507 C509 1.327 1_554 S
C507 H532 0.950 . S
C508 C507 1.349 1_556 S
C508 C524 1.349 . S
C509 C507 1.327 1_556 S
C509 C528 1.429 . S
C509 H533 0.950 1_556 S
C510 C527 1.574 . S
C510 C529 1.368 . S
C510 H534 0.949 . S
H511 C515 0.949 . S
C512 C513 1.349 . S
C512 C514 1.327 . S
C512 H535 0.950 . S
C513 C512 1.349 . S
C513 C525 1.349 . S
C514 C512 1.327 . S
C514 C530 1.429 . S
C514 H536 0.950 . S
C515 H511 0.949 . S
C515 C523 1.574 . S
C515 C531 1.368 . S
H516 C524 0.950 . S
H517 C522 0.950 . S
H518 C523 0.949 . S
H519 C525 0.950 . S
H520 C526 0.950 . S
H521 C527 0.949 . S
C522 H517 0.950 . S
C522 C524 1.327 . S
C522 C528 1.429 . S
C523 C515 1.574 . S
C523 H518 0.949 . S
C523 C529 1.368 . S
C524 C508 1.349 . S
C524 H516 0.950 . S
C524 C522 1.327 . S
C525 C513 1.349 . S
C525 H519 0.950 . S
C525 C526 1.327 . S
C526 H520 0.950 . S
C526 C525 1.327 . S
C526 C530 1.429 . S
C527 C510 1.574 . S
C527 H521 0.949 . S
C527 C531 1.368 . S
C528 C509 1.429 . S
C528 C522 1.429 . S
C528 C529 1.523 . S
C529 C510 1.368 . S
C529 C523 1.368 . S
C529 C528 1.523 . S
C530 C514 1.429 . S
C530 C526 1.429 . S
C530 C531 1.523 . S
C531 C515 1.368 . S
C531 C527 1.368 . S
C531 C530 1.523 . S
H532 C507 0.950 . S
H533 C509 0.950 1_554 S
H534 C510 0.949 . S
H535 C512 0.950 . S
H536 C514 0.950 . S
C537 C538 1.349 . S
C537 C539 1.327 . S
C537 H562 0.950 . S
C538 C537 1.349 . S
C538 C554 1.349 . S
C539 C537 1.327 . S
C539 C558 1.429 . S
C539 H563 0.950 . S
C540 C557 1.574 . S
C540 C559 1.368 . S
C540 H564 0.949 . S
H541 C545 0.949 . S
C542 C543 1.349 1_554 S
C542 C544 1.327 1_554 S
C542 H565 0.950 . S
C543 C542 1.349 1_556 S
C543 C555 1.349 . S
C544 C542 1.327 1_556 S
C544 C560 1.429 . S
C544 H566 0.950 1_556 S
C545 H541 0.949 . S
C545 C553 1.574 . S
C545 C561 1.368 . S
H546 C554 0.950 . S
H547 C552 0.950 . S
H548 C553 0.949 . S
H549 C555 0.950 . S
H550 C556 0.950 . S
H551 C557 0.949 . S
C552 H547 0.950 . S
C552 C554 1.327 . S
C552 C558 1.429 . S
C553 C545 1.574 . S
C553 H548 0.949 . S
C553 C559 1.368 . S
C554 C538 1.349 . S
C554 H546 0.950 . S
C554 C552 1.327 . S
C555 C543 1.349 . S
C555 H549 0.950 . S
C555 C556 1.327 . S
C556 H550 0.950 . S
C556 C555 1.327 . S
C556 C560 1.429 . S
C557 C540 1.574 . S
C557 H551 0.949 . S
C557 C561 1.368 . S
C558 C539 1.429 . S
C558 C552 1.429 . S
C558 C559 1.523 . S
C559 C540 1.368 . S
C559 C553 1.368 . S
C559 C558 1.523 . S
C560 C544 1.429 . S
C560 C556 1.429 . S
C560 C561 1.523 . S
C561 C545 1.368 . S
C561 C557 1.368 . S
C561 C560 1.523 . S
H562 C537 0.950 . S
H563 C539 0.950 . S
H564 C540 0.949 . S
H565 C542 0.950 . S
H566 C544 0.950 1_554 S
C567 C568 1.349 . S
C567 C569 1.327 . S
C567 H592 0.950 . S
C568 C567 1.349 . S
C568 C584 1.349 . S
C569 C567 1.327 . S
C569 C588 1.429 . S
C569 H593 0.950 . S
C570 C587 1.574 . S
C570 C589 1.368 . S
C570 H594 0.949 . S
H571 C575 0.949 . S
C572 C573 1.349 . S
C572 C574 1.327 . S
C572 H595 0.950 . S
C573 C572 1.349 . S
C573 C585 1.349 . S
C574 C572 1.327 . S
C574 C590 1.429 . S
C574 H596 0.950 . S
C575 H571 0.949 . S
C575 C583 1.574 . S
C575 C591 1.368 . S
H576 C584 0.950 . S
H577 C582 0.950 . S
H578 C583 0.949 . S
H579 C585 0.950 . S
H580 C586 0.950 . S
H581 C587 0.949 . S
C582 H577 0.950 . S
C582 C584 1.327 . S
C582 C588 1.429 . S
C583 C575 1.574 . S
C583 H578 0.949 . S
C583 C589 1.368 . S
C584 C568 1.349 . S
C584 H576 0.950 . S
C584 C582 1.327 . S
C585 C573 1.349 . S
C585 H579 0.950 . S
C585 C586 1.327 . S
C586 H580 0.950 . S
C586 C585 1.327 . S
C586 C590 1.429 . S
C587 C570 1.574 . S
C587 H581 0.949 . S
C587 C591 1.368 . S
C588 C569 1.429 . S
C588 C582 1.429 . S
C588 C589 1.523 . S
C589 C570 1.368 . S
C589 C583 1.368 . S
C589 C588 1.523 . S
C590 C574 1.429 . S
C590 C586 1.429 . S
C590 C591 1.523 . S
C591 C575 1.368 . S
C591 C587 1.368 . S
C591 C590 1.523 . S
H592 C567 0.950 . S
H593 C569 0.950 . S
H594 C570 0.949 . S
H595 C572 0.950 . S
H596 C574 0.950 . S
C597 C598 1.349 . S
C597 C599 1.327 . S
C597 H622 0.950 . S
C598 C597 1.349 . S
C598 C614 1.349 . S
C599 C597 1.327 . S
C599 C618 1.429 . S
C599 H623 0.950 . S
C600 C617 1.574 . S
C600 C619 1.368 . S
C600 H624 0.949 . S
H601 C605 0.949 . S
C602 C603 1.349 . S
C602 C604 1.327 . S
C602 H625 0.950 . S
C603 C602 1.349 . S
C603 C615 1.349 . S
C604 C602 1.327 . S
C604 C620 1.429 . S
C604 H626 0.950 . S
C605 H601 0.949 . S
C605 C613 1.574 . S
C605 C621 1.368 . S
H606 C614 0.950 . S
H607 C612 0.950 . S
H608 C613 0.949 . S
H609 C615 0.950 . S
H610 C616 0.950 . S
H611 C617 0.949 . S
C612 H607 0.950 . S
C612 C614 1.327 . S
C612 C618 1.429 . S
C613 C605 1.574 . S
C613 H608 0.949 . S
C613 C619 1.368 . S
C614 C598 1.349 . S
C614 H606 0.950 . S
C614 C612 1.327 . S
C615 C603 1.349 . S
C615 H609 0.950 . S
C615 C616 1.327 . S
C616 H610 0.950 . S
C616 C615 1.327 . S
C616 C620 1.429 . S
C617 C600 1.574 . S
C617 H611 0.949 . S
C617 C621 1.368 . S
C618 C599 1.429 . S
C618 C612 1.429 . S
C618 C619 1.523 . S
C619 C600 1.368 . S
C619 C613 1.368 . S
C619 C618 1.523 . S
C620 C604 1.429 . S
C620 C616 1.429 . S
C620 C621 1.523 . S
C621 C605 1.368 . S
C621 C617 1.368 . S
C621 C620 1.523 . S
H622 C597 0.950 . S
H623 C599 0.950 . S
H624 C600 0.949 . S
H625 C602 0.950 . S
H626 C604 0.950 . S
C627 C628 1.349 . S
C627 C629 1.327 . S
C627 H652 0.950 . S
C628 C627 1.349 . S
C628 C644 1.349 . S
C629 C627 1.327 . S
C629 C648 1.429 . S
C629 H653 0.950 . S
C630 C647 1.574 . S
C630 C649 1.368 . S
C630 H654 0.949 . S
H631 C635 0.949 . S
C632 C633 1.349 . S
C632 C634 1.327 . S
C632 H655 0.950 . S
C633 C632 1.349 . S
C633 C645 1.349 . S
C634 C632 1.327 . S
C634 C650 1.429 . S
C634 H656 0.950 . S
C635 H631 0.949 . S
C635 C643 1.574 . S
C635 C651 1.368 . S
H636 C644 0.950 . S
H637 C642 0.950 . S
H638 C643 0.949 . S
H639 C645 0.950 . S
H640 C646 0.950 . S
H641 C647 0.949 . S
C642 H637 0.950 . S
C642 C644 1.327 . S
C642 C648 1.429 . S
C643 C635 1.574 . S
C643 H638 0.949 . S
C643 C649 1.368 . S
C644 C628 1.349 . S
C644 H636 0.950 . S
C644 C642 1.327 . S
C645 C633 1.349 . S
C645 H639 0.950 . S
C645 C646 1.327 . S
C646 H640 0.950 . S
C646 C645 1.327 . S
C646 C650 1.429 . S
C647 C630 1.574 . S
C647 H641 0.949 . S
C647 C651 1.368 . S
C648 C629 1.429 . S
C648 C642 1.429 . S
C648 C649 1.523 . S
C649 C630 1.368 . S
C649 C643 1.368 . S
C649 C648 1.523 . S
C650 C634 1.429 . S
C650 C646 1.429 . S
C650 C651 1.523 . S
C651 C635 1.368 . S
C651 C647 1.368 . S
C651 C650 1.523 . S
H652 C627 0.950 . S
H653 C629 0.950 . S
H654 C630 0.949 . S
H655 C632 0.950 . S
H656 C634 0.950 . S
C657 C658 1.349 . S
C657 C659 1.327 . S
C657 H682 0.950 . S
C658 C657 1.349 . S
C658 C674 1.349 . S
C659 C657 1.327 . S
C659 C678 1.429 . S
C659 H683 0.950 . S
C660 C677 1.574 . S
C660 C679 1.368 . S
C660 H684 0.949 . S
H661 C665 0.936 1_655 S
C662 C663 1.349 . S
C662 C664 1.327 . S
C662 H685 0.950 . S
C663 C662 1.349 . S
C663 C675 1.349 . S
C664 C662 1.327 . S
C664 C680 1.429 . S
C664 H686 0.950 . S
C665 H661 0.936 1_455 S
C665 C673 1.574 . S
C665 C681 1.368 . S
H666 C674 0.950 . S
H667 C672 0.950 . S
H668 C673 0.949 . S
H669 C675 0.950 . S
H670 C676 0.950 . S
H671 C677 0.949 . S
C672 H667 0.950 . S
C672 C674 1.327 . S
C672 C678 1.429 . S
C673 C665 1.574 . S
C673 H668 0.949 . S
C673 C679 1.368 . S
C674 C658 1.349 . S
C674 H666 0.950 . S
C674 C672 1.327 . S
C675 C663 1.349 . S
C675 H669 0.950 . S
C675 C676 1.327 . S
C676 H670 0.950 . S
C676 C675 1.327 . S
C676 C680 1.429 . S
C677 C660 1.574 . S
C677 H671 0.949 . S
C677 C681 1.368 . S
C678 C659 1.429 . S
C678 C672 1.429 . S
C678 C679 1.523 . S
C679 C660 1.368 . S
C679 C673 1.368 . S
C679 C678 1.523 . S
C680 C664 1.429 . S
C680 C676 1.429 . S
C680 C681 1.523 1_655 S
C681 C665 1.368 . S
C681 C677 1.368 . S
C681 C680 1.523 1_455 S
H682 C657 0.950 . S
H683 C659 0.950 . S
H684 C660 0.949 . S
H685 C662 0.950 . S
H686 C664 0.950 . S
C687 C688 1.349 . S
C687 C689 1.327 . S
C687 H712 0.950 . S
C688 C687 1.349 . S
C688 C704 1.349 . S
C689 C687 1.327 . S
C689 C708 1.429 . S
C689 H713 0.950 . S
C690 C707 1.574 . S
C690 C709 1.368 . S
C690 H714 0.949 . S
H691 C695 0.949 . S
C692 C693 1.349 . S
C692 C694 1.327 . S
C692 H715 0.950 . S
C693 C692 1.349 . S
C693 C705 1.349 . S
C694 C692 1.327 . S
C694 C710 1.429 . S
C694 H716 0.950 . S
C695 H691 0.949 . S
C695 C703 1.574 . S
C695 C711 1.368 . S
H696 C704 0.950 . S
H697 C702 0.950 . S
H698 C703 0.949 . S
H699 C705 0.950 . S
H700 C706 0.950 . S
H701 C707 0.949 . S
C702 H697 0.950 . S
C702 C704 1.327 . S
C702 C708 1.429 . S
C703 C695 1.574 . S
C703 H698 0.949 . S
C703 C709 1.368 . S
C704 C688 1.349 . S
C704 H696 0.950 . S
C704 C702 1.327 . S
C705 C693 1.349 . S
C705 H699 0.950 . S
C705 C706 1.327 . S
C706 H700 0.950 . S
C706 C705 1.327 . S
C706 C710 1.429 . S
C707 C690 1.574 . S
C707 H701 0.949 . S
C707 C711 1.368 . S
C708 C689 1.429 . S
C708 C702 1.429 . S
C708 C709 1.523 . S
C709 C690 1.368 . S
C709 C703 1.368 . S
C709 C708 1.523 . S
C710 C694 1.429 . S
C710 C706 1.429 . S
C710 C711 1.523 . S
C711 C695 1.368 . S
C711 C707 1.368 . S
C711 C710 1.523 . S
H712 C687 0.950 . S
H713 C689 0.950 . S
H714 C690 0.949 . S
H715 C692 0.950 . S
H716 C694 0.950 . S
C717 C718 1.349 . S
C717 C719 1.327 . S
C717 H742 0.950 . S
C718 C717 1.349 . S
C718 C734 1.349 . S
C719 C717 1.327 . S
C719 C738 1.429 . S
C719 H743 0.950 . S
C720 C737 1.574 . S
C720 C739 1.368 1_545 S
C720 H744 0.949 . S
H721 C725 0.949 . S
C722 C723 1.349 . S
C722 C724 1.327 . S
C722 H745 0.950 . S
C723 C722 1.349 . S
C723 C735 1.349 . S
C724 C722 1.327 . S
C724 C740 1.429 . S
C724 H746 0.950 . S
C725 H721 0.949 . S
C725 C733 1.574 1_545 S
C725 C741 1.368 . S
H726 C734 0.950 . S
H727 C732 0.950 . S
H728 C733 0.949 . S
H729 C735 0.950 . S
H730 C736 0.950 . S
H731 C737 0.949 . S
C732 H727 0.950 . S
C732 C734 1.327 . S
C732 C738 1.429 . S
C733 C725 1.574 1_565 S
C733 H728 0.949 . S
C733 C739 1.368 . S
C734 C718 1.349 . S
C734 H726 0.950 . S
C734 C732 1.327 . S
C735 C723 1.349 . S
C735 H729 0.950 . S
C735 C736 1.327 . S
C736 H730 0.950 . S
C736 C735 1.327 . S
C736 C740 1.429 . S
C737 C720 1.574 . S
C737 H731 0.949 . S
C737 C741 1.368 . S
C738 C719 1.429 . S
C738 C732 1.429 . S
C738 C739 1.523 . S
C739 C720 1.368 1_565 S
C739 C733 1.368 . S
C739 C738 1.523 . S
C740 C724 1.429 . S
C740 C736 1.429 . S
C740 C741 1.523 . S
C741 C725 1.368 . S
C741 C737 1.368 . S
C741 C740 1.523 . S
H742 C717 0.950 . S
H743 C719 0.950 . S
H744 C720 0.949 . S
H745 C722 0.950 . S
H746 C724 0.950 . S
C208 N58 1.260 . S
C213 C16 1.244 . S
C238 N25 1.175 . S
C243 N2 1.183 . S
C268 C39 1.444 . S
C273 C53 1.466 . S
C298 C122 1.516 . S
C303 C85 1.489 . S
C328 N94 1.102 . S
C333 N71 1.094 . S
C358 C108 1.273 . S
C363 N127 1.293 . S
C388 C154 1.297 . S
C393 N196 1.322 . S
C418 N140 1.018 . S
C423 N163 1.012 . S
C448 C177 1.504 . S
C453 C191 1.533 . S
C478 N12 1.521 1_556 S
C483 N173 1.537 . S
C508 C30 1.572 1_556 S
C513 C200 1.543 . S
C538 C145 1.520 . S
C543 N48 1.446 1_556 S
C568 C99 1.492 . S
C573 C62 1.469 . S
C598 C7 1.537 . S
C603 C131 1.514 . S
C628 N81 1.567 . S
C633 N35 1.562 . S
C658 C168 1.564 . S
C663 N117 1.481 . S
C688 C76 1.587 . S
C693 N186 1.506 . S
C718 N150 1.481 . S
C723 N104 1.476 . S
