# Generated by pormake.
# Topology lcs, (4)-cn, num edge types: 1
# Building blocks:
#     Node 0, Type 0, BuildingBlock: QUQFOY_clean_sbu_1, # of connection points: 4
#     Node 1, Type 0, BuildingBlock: QUQFOY_clean_sbu_1, # of connection points: 4
#     Node 2, Type 0, BuildingBlock: QUQFOY_clean_sbu_1, # of connection points: 4
#     Node 3, Type 0, BuildingBlock: QUQFOY_clean_sbu_1, # of connection points: 4
#     Node 4, Type 0, BuildingBlock: QUQFOY_clean_sbu_1, # of connection points: 4
#     Node 5, Type 0, BuildingBlock: QUQFOY_clean_sbu_1, # of connection points: 4
#     Node 6, Type 0, BuildingBlock: QUQFOY_clean_sbu_1, # of connection points: 4
#     Node 7, Type 0, BuildingBlock: QUQFOY_clean_sbu_1, # of connection points: 4
#     Node 8, Type 0, BuildingBlock: QUQFOY_clean_sbu_1, # of connection points: 4
#     Node 9, Type 0, BuildingBlock: QUQFOY_clean_sbu_1, # of connection points: 4
#     Node 10, Type 0, BuildingBlock: QUQFOY_clean_sbu_1, # of connection points: 4
#     Node 11, Type 0, BuildingBlock: QUQFOY_clean_sbu_1, # of connection points: 4
#     Node 12, Type 0, BuildingBlock: QUQFOY_clean_sbu_1, # of connection points: 4
#     Node 13, Type 0, BuildingBlock: QUQFOY_clean_sbu_1, # of connection points: 4
#     Node 14, Type 0, BuildingBlock: QUQFOY_clean_sbu_1, # of connection points: 4
#     Node 15, Type 0, BuildingBlock: QUQFOY_clean_sbu_1, # of connection points: 4
#     Node 16, Type 0, BuildingBlock: QUQFOY_clean_sbu_1, # of connection points: 4
#     Node 17, Type 0, BuildingBlock: QUQFOY_clean_sbu_1, # of connection points: 4
#     Node 18, Type 0, BuildingBlock: QUQFOY_clean_sbu_1, # of connection points: 4
#     Node 19, Type 0, BuildingBlock: QUQFOY_clean_sbu_1, # of connection points: 4
#     Node 20, Type 0, BuildingBlock: QUQFOY_clean_sbu_1, # of connection points: 4
#     Node 21, Type 0, BuildingBlock: QUQFOY_clean_sbu_1, # of connection points: 4
#     Node 22, Type 0, BuildingBlock: QUQFOY_clean_sbu_1, # of connection points: 4
#     Node 23, Type 0, BuildingBlock: QUQFOY_clean_sbu_1, # of connection points: 4
#     Edge 24, Type (0, 0), BuildingBlock: CIFDUS_clean_linker_0, # of connection points: 2
#     Edge 25, Type (0, 0), BuildingBlock: CIFDUS_clean_linker_0, # of connection points: 2
#     Edge 26, Type (0, 0), BuildingBlock: CIFDUS_clean_linker_0, # of connection points: 2
#     Edge 27, Type (0, 0), BuildingBlock: CIFDUS_clean_linker_0, # of connection points: 2
#     Edge 28, Type (0, 0), BuildingBlock: CIFDUS_clean_linker_0, # of connection points: 2
#     Edge 29, Type (0, 0), BuildingBlock: CIFDUS_clean_linker_0, # of connection points: 2
#     Edge 30, Type (0, 0), BuildingBlock: CIFDUS_clean_linker_0, # of connection points: 2
#     Edge 31, Type (0, 0), BuildingBlock: CIFDUS_clean_linker_0, # of connection points: 2
#     Edge 32, Type (0, 0), BuildingBlock: CIFDUS_clean_linker_0, # of connection points: 2
#     Edge 33, Type (0, 0), BuildingBlock: CIFDUS_clean_linker_0, # of connection points: 2
#     Edge 34, Type (0, 0), BuildingBlock: CIFDUS_clean_linker_0, # of connection points: 2
#     Edge 35, Type (0, 0), BuildingBlock: CIFDUS_clean_linker_0, # of connection points: 2
#     Edge 36, Type (0, 0), BuildingBlock: CIFDUS_clean_linker_0, # of connection points: 2
#     Edge 37, Type (0, 0), BuildingBlock: CIFDUS_clean_linker_0, # of connection points: 2
#     Edge 38, Type (0, 0), BuildingBlock: CIFDUS_clean_linker_0, # of connection points: 2
#     Edge 39, Type (0, 0), BuildingBlock: CIFDUS_clean_linker_0, # of connection points: 2
#     Edge 40, Type (0, 0), BuildingBlock: CIFDUS_clean_linker_0, # of connection points: 2
#     Edge 41, Type (0, 0), BuildingBlock: CIFDUS_clean_linker_0, # of connection points: 2
#     Edge 42, Type (0, 0), BuildingBlock: CIFDUS_clean_linker_0, # of connection points: 2
#     Edge 43, Type (0, 0), BuildingBlock: CIFDUS_clean_linker_0, # of connection points: 2
#     Edge 44, Type (0, 0), BuildingBlock: CIFDUS_clean_linker_0, # of connection points: 2
#     Edge 45, Type (0, 0), BuildingBlock: CIFDUS_clean_linker_0, # of connection points: 2
#     Edge 46, Type (0, 0), BuildingBlock: CIFDUS_clean_linker_0, # of connection points: 2
#     Edge 47, Type (0, 0), BuildingBlock: CIFDUS_clean_linker_0, # of connection points: 2
#     Edge 48, Type (0, 0), BuildingBlock: CIFDUS_clean_linker_0, # of connection points: 2
#     Edge 49, Type (0, 0), BuildingBlock: CIFDUS_clean_linker_0, # of connection points: 2
#     Edge 50, Type (0, 0), BuildingBlock: CIFDUS_clean_linker_0, # of connection points: 2
#     Edge 51, Type (0, 0), BuildingBlock: CIFDUS_clean_linker_0, # of connection points: 2
#     Edge 52, Type (0, 0), BuildingBlock: CIFDUS_clean_linker_0, # of connection points: 2
#     Edge 53, Type (0, 0), BuildingBlock: CIFDUS_clean_linker_0, # of connection points: 2
#     Edge 54, Type (0, 0), BuildingBlock: CIFDUS_clean_linker_0, # of connection points: 2
#     Edge 55, Type (0, 0), BuildingBlock: CIFDUS_clean_linker_0, # of connection points: 2
#     Edge 56, Type (0, 0), BuildingBlock: CIFDUS_clean_linker_0, # of connection points: 2
#     Edge 57, Type (0, 0), BuildingBlock: CIFDUS_clean_linker_0, # of connection points: 2
#     Edge 58, Type (0, 0), BuildingBlock: CIFDUS_clean_linker_0, # of connection points: 2
#     Edge 59, Type (0, 0), BuildingBlock: CIFDUS_clean_linker_0, # of connection points: 2
#     Edge 60, Type (0, 0), BuildingBlock: CIFDUS_clean_linker_0, # of connection points: 2
#     Edge 61, Type (0, 0), BuildingBlock: CIFDUS_clean_linker_0, # of connection points: 2
#     Edge 62, Type (0, 0), BuildingBlock: CIFDUS_clean_linker_0, # of connection points: 2
#     Edge 63, Type (0, 0), BuildingBlock: CIFDUS_clean_linker_0, # of connection points: 2
#     Edge 64, Type (0, 0), BuildingBlock: CIFDUS_clean_linker_0, # of connection points: 2
#     Edge 65, Type (0, 0), BuildingBlock: CIFDUS_clean_linker_0, # of connection points: 2
#     Edge 66, Type (0, 0), BuildingBlock: CIFDUS_clean_linker_0, # of connection points: 2
#     Edge 67, Type (0, 0), BuildingBlock: CIFDUS_clean_linker_0, # of connection points: 2
#     Edge 68, Type (0, 0), BuildingBlock: CIFDUS_clean_linker_0, # of connection points: 2
#     Edge 69, Type (0, 0), BuildingBlock: CIFDUS_clean_linker_0, # of connection points: 2
#     Edge 70, Type (0, 0), BuildingBlock: CIFDUS_clean_linker_0, # of connection points: 2
#     Edge 71, Type (0, 0), BuildingBlock: CIFDUS_clean_linker_0, # of connection points: 2
# Relax obj value: 0.061
# Max RMSD: 0.117
# Mean RMSD: 0.113
data_MOF--net-lcs--node1-QUQFOY_clean_sbu_1--edge1-CIFDUS_clean_linker_0
_symmetry_space_group_name_H-M    P1
_symmetry_Int_Tables_number       1
_symmetry_cell_setting            triclinic
loop_
_symmetry_equiv_pos_as_xyz
'x, y, z'
_cell_length_a     44.696197
_cell_length_b     44.908011
_cell_length_c     44.945617
_cell_angle_alpha  93.354354
_cell_angle_beta   93.463649
_cell_angle_gamma 93.887345
loop_
_atom_site_label
_atom_site_type_symbol
_atom_site_fract_x
_atom_site_fract_y
_atom_site_fract_z
_atom_type_partial_charge
O0 O 0.06834 0.26226 0.3923 0.0
Cd1 Cd 0.03241 0.27278 0.36526 0.0
Cd2 Cd 1.00385 0.26447 0.4175 0.0
O3 O 0.04778 0.26273 0.43575 0.0
O4 O 0.05145 0.2889 0.32993 0.0
O5 O 0.02467 0.31591 0.35957 0.0
C6 C 0.04101 0.31426 0.33685 0.0
C7 C 0.96638 0.28889 0.44174 0.0
C8 C 0.07056 0.25982 0.42035 0.0
C9 C 0.98815 0.22028 0.36442 0.0
O10 O 0.98618 0.227 0.39205 0.0
O11 O 1.00416 0.23681 0.34868 0.0
O12 O 0.97751 0.26547 0.45186 0.0
O13 O 0.97798 0.29988 0.41875 0.0
O14 O 0.07439 0.73353 0.63676 0.0
Cd15 Cd 0.04231 0.74679 0.6648 0.0
Cd16 Cd 0.02193 0.77199 0.61343 0.0
O17 O 0.05695 0.75122 0.59484 0.0
O18 O 0.04522 0.71966 0.69834 0.0
O19 O 1.00445 0.72065 0.66798 0.0
C20 C 0.01821 0.70915 0.6902 0.0
C21 C 0.97432 0.77062 0.58895 0.0
C22 C 0.07638 0.73716 0.6091 0.0
C23 C 0.04105 0.81324 0.66799 0.0
O24 O 0.03197 0.81026 0.64058 0.0
O25 O 0.04632 0.79049 0.68251 0.0
O26 O 0.99686 0.78611 0.57969 0.0
O27 O 0.97923 0.75432 0.61127 0.0
O28 O 0.57364 0.76003 0.89377 0.0
Cd29 Cd 0.5402 0.76943 0.86301 0.0
Cd30 Cd 0.50609 0.7642 0.91299 0.0
O31 O 0.54859 0.76368 0.93456 0.0
O32 O 0.56171 0.78547 0.82909 0.0
O33 O 0.53204 0.81212 0.85594 0.0
C34 C 0.55008 0.81055 0.83457 0.0
C35 C 0.46685 0.78619 0.93679 0.0
C36 C 0.57289 0.75964 0.92196 0.0
C37 C 0.49481 0.71793 0.86051 0.0
O38 O 0.49037 0.72622 0.88729 0.0
O39 O 0.51285 0.73317 0.84557 0.0
O40 O 0.47849 0.76279 0.94624 0.0
O41 O 0.47865 0.79845 0.91456 0.0
O42 O 0.56514 0.22305 0.14278 0.0
Cd43 Cd 0.53512 0.24293 0.16919 0.0
Cd44 Cd 0.52525 0.27284 0.11888 0.0
O45 O 0.55804 0.24744 0.10197 0.0
O46 O 0.52936 0.21554 0.20208 0.0
O47 O 0.49269 0.22533 0.16956 0.0
C48 C 0.5016 0.21112 0.19227 0.0
C49 C 0.47766 0.27449 0.09532 0.0
C50 C 0.57153 0.22815 0.11629 0.0
C51 C 0.54694 0.30936 0.17527 0.0
O52 O 0.53886 0.30912 0.14767 0.0
O53 O 0.54732 0.28514 0.18854 0.0
O54 O 0.50079 0.28872 0.08557 0.0
O55 O 0.48194 0.25799 0.1176 0.0
O56 O 0.0517 0.70895 0.13915 0.0
Cd57 Cd 0.03896 0.74029 0.11005 0.0
Cd58 Cd 1.01002 0.76024 0.16162 0.0
O59 O 0.03111 0.7253 0.17991 0.0
O60 O 0.06693 0.73653 0.0772 0.0
O61 O 0.06495 0.77801 0.10592 0.0
C62 C 0.07691 0.76378 0.08434 0.0
C63 C 1.00511 0.80457 0.19037 0.0
C64 C 0.04649 0.70654 0.16644 0.0
C65 C 0.97206 0.74075 0.10423 0.0
O66 O 0.97375 0.75008 0.13154 0.0
O67 O 0.99561 0.73543 0.09091 0.0
O68 O 0.99076 0.77984 0.19575 0.0
O69 O 0.0238 0.80386 0.16954 0.0
O70 O 0.51703 0.71145 0.38216 0.0
Cd71 Cd 0.50799 0.74484 0.41284 0.0
Cd72 Cd 0.50888 0.77866 0.36544 0.0
O73 O 0.51066 0.73739 0.3423 0.0
O74 O 0.48558 0.72677 0.44516 0.0
O75 O 0.46605 0.75758 0.41372 0.0
C76 C 0.46275 0.74056 0.43571 0.0
C77 C 0.48 0.81592 0.34664 0.0
C78 C 0.51609 0.71299 0.35398 0.0
C79 C 0.55817 0.79098 0.41506 0.0
O80 O 0.54781 0.79606 0.38904 0.0
O81 O 0.54465 0.77181 0.43016 0.0
O82 O 0.50381 0.80817 0.33433 0.0
O83 O 0.47145 0.80128 0.3689 0.0
O84 O 0.55169 0.20421 0.63499 0.0
Cd85 Cd 0.53829 0.2363 0.60698 0.0
Cd86 Cd 0.51372 0.25726 0.66007 0.0
O87 O 0.53494 0.22193 0.67724 0.0
O88 O 0.56524 0.23368 0.57313 0.0
O89 O 0.56434 0.2741 0.60367 0.0
C90 C 0.57565 0.26062 0.58122 0.0
C91 C 0.51157 0.30201 0.68886 0.0
C92 C 0.54849 0.20236 0.66275 0.0
C93 C 0.47166 0.2389 0.60515 0.0
O94 O 0.47548 0.24791 0.63251 0.0
O95 O 0.49397 0.23301 0.5901 0.0
O96 O 0.49737 0.27763 0.69548 0.0
O97 O 0.52868 0.30067 0.66672 0.0
O98 O 0.02179 0.21286 0.88524 0.0
Cd99 Cd 0.01331 0.24627 0.91611 0.0
Cd100 Cd 0.0154 0.27959 0.86708 0.0
O101 O 0.01568 0.23772 0.84461 0.0
O102 O 0.99584 0.22579 0.9499 0.0
O103 O 0.97059 0.25555 0.92165 0.0
C104 C 0.97104 0.23772 0.94323 0.0
C105 C 0.98882 0.31822 0.84771 0.0
C106 C 0.02063 0.21356 0.85698 0.0
C107 C 0.0643 0.29169 0.91725 0.0
O108 O 0.05457 0.29601 0.89083 0.0
O109 O 0.05005 0.27349 0.93282 0.0
O110 O 0.01229 0.30909 0.83572 0.0
O111 O 0.97906 0.30402 0.86978 0.0
O112 O 0.3869 0.07574 0.26188 0.0
Cd113 Cd 0.35511 0.04221 0.26938 0.0
Cd114 Cd 0.40118 1.00642 0.26062 0.0
O115 O 0.42551 0.04757 0.26222 0.0
O116 O 0.32409 0.05994 0.29341 0.0
O117 O 0.35366 0.02587 0.30978 0.0
C118 C 0.33253 0.04354 0.31459 0.0
C119 C 0.42433 0.96559 0.28009 0.0
C120 C 0.41491 0.07306 0.2606 0.0
C121 C 0.34731 1.00173 0.21522 0.0
O122 O 0.37367 0.99463 0.22258 0.0
O123 O 0.33426 0.01978 0.23198 0.0
O124 O 0.43296 0.97763 0.25649 0.0
O125 O 0.40288 0.97734 0.29358 0.0
O126 O 0.2319 0.14293 0.56918 0.0
Cd127 Cd 0.2453 0.17215 0.53802 0.0
Cd128 Cd 0.26851 0.12074 0.51487 0.0
O129 O 0.24804 0.10119 0.54961 0.0
O130 O 0.21858 0.20589 0.54229 0.0
O131 O 0.21872 0.17642 0.50104 0.0
C132 C 0.20758 0.19837 0.5155 0.0
C133 C 0.26683 0.09737 0.46704 0.0
C134 C 0.23485 0.11503 0.56994 0.0
C135 C 0.3119 0.17396 0.53495 0.0
O136 O 0.30767 0.14688 0.52495 0.0
O137 O 0.28978 0.189 0.54139 0.0
O138 O 0.28208 0.08738 0.4891 0.0
O139 O 0.25077 0.11968 0.47259 0.0
O140 O 0.13376 0.05482 0.71833 0.0
Cd141 Cd 0.1088 0.03541 0.74999 0.0
Cd142 Cd 0.16262 0.01185 0.7633 0.0
O143 O 0.17771 0.03697 0.72928 0.0
O144 O 0.07444 0.06115 0.75456 0.0
O145 O 0.1093 0.05611 0.79074 0.0
C146 C 0.08555 0.06855 0.78134 0.0
C147 C 0.18734 0.01206 0.8104 0.0
C148 C 0.16129 0.05285 0.71349 0.0
C149 C 0.10899 0.9689 0.74427 0.0
O150 O 0.13689 0.97287 0.75173 0.0
O151 O 0.09285 0.99106 0.74224 0.0
O152 O 0.19775 0.99883 0.78737 0.0
O153 O 0.16391 0.02704 0.80623 0.0
O154 O 0.20993 0.89202 0.01537 0.0
Cd155 Cd 0.2462 0.91938 0.0053 0.0
Cd156 Cd 0.27494 0.86943 0.01224 0.0
O157 O 0.23184 0.84941 0.01507 0.0
O158 O 0.23046 0.95259 0.98279 0.0
O159 O 0.25937 0.91928 0.96349 0.0
C160 C 0.244 0.94237 0.96018 0.0
C161 C 0.3123 0.84923 0.98456 0.0
C162 C 0.20854 0.86393 0.018 0.0
C163 C 0.29005 0.92189 0.05718 0.0
O164 O 0.29284 0.89457 0.04965 0.0
O165 O 0.27319 0.93732 0.04143 0.0
O166 O 0.30363 0.83744 0.00835 0.0
O167 O 0.29808 0.87129 0.97508 0.0
O168 O 0.26958 0.3902 0.06729 0.0
Cd169 Cd 0.27929 0.36045 0.03329 0.0
Cd170 Cd 0.26902 0.40663 0.99883 0.0
O171 O 0.2686 0.42965 0.04029 0.0
O172 O 0.30347 0.32984 0.05154 0.0
O173 O 0.32097 0.36082 0.01905 0.0
C174 C 0.32547 0.33946 0.03653 0.0
C175 C 0.29163 0.43016 0.95956 0.0
C176 C 0.26695 0.41801 0.06535 0.0
C177 C 0.22526 0.35147 0.99185 0.0
O178 O 0.2315 0.37834 0.98553 0.0
O179 O 0.24278 0.33875 0.00957 0.0
O180 O 0.26707 0.43858 0.96983 0.0
O181 O 0.30415 0.40863 0.97218 0.0
O182 O 0.71576 0.1394 0.04506 0.0
Cd183 Cd 0.74597 0.10943 0.03195 0.0
Cd184 Cd 0.76281 0.15805 0.99714 0.0
O185 O 0.72892 0.17773 0.01889 0.0
O186 O 0.7423 0.0784 0.06185 0.0
O187 O 0.78465 0.10537 0.05636 0.0
C188 C 0.77014 0.08509 0.07018 0.0
C189 C 0.80717 0.18664 0.9895 0.0
C190 C 0.71208 0.16575 0.03736 0.0
C191 C 0.74086 0.09815 0.96537 0.0
O192 O 0.75055 0.12524 0.96378 0.0
O193 O 0.73745 0.08724 0.99052 0.0
O194 O 0.78211 0.19076 0.97517 0.0
O195 O 0.80693 0.1668 0.0092 0.0
O196 O 0.14606 0.55553 0.22097 0.0
Cd197 Cd 0.17293 0.5256 0.24025 0.0
Cd198 Cd 0.12201 0.51719 0.27319 0.0
O199 O 0.10591 0.54988 0.24703 0.0
O200 O 0.20558 0.5221 0.21217 0.0
O201 O 0.17422 0.48398 0.22134 0.0
C202 C 0.19642 0.49435 0.20694 0.0
C203 C 0.0922 0.47416 0.28194 0.0
C204 C 0.11992 0.56259 0.22688 0.0
C205 C 0.18137 0.53798 0.30656 0.0
O206 O 0.15353 0.5305 0.30744 0.0
O207 O 0.19382 0.53778 0.28186 0.0
O208 O 0.08728 0.49998 0.294 0.0
O209 O 0.1133 0.47297 0.26355 0.0
O210 O 0.76847 0.8869 0.55894 0.0
Cd211 Cd 0.77669 0.85603 0.52534 0.0
Cd212 Cd 0.76703 0.90179 0.49059 0.0
O213 O 0.7674 0.92605 0.53149 0.0
O214 O 0.8002 0.82506 0.54397 0.0
O215 O 0.81796 0.85472 0.51047 0.0
C216 C 0.82216 0.83368 0.5284 0.0
C217 C 0.79315 0.92036 0.45092 0.0
C218 C 0.76614 0.91475 0.55676 0.0
C219 C 0.72173 0.84797 0.48503 0.0
O220 O 0.72852 0.87457 0.4782 0.0
O221 O 0.73926 0.83502 0.50254 0.0
O222 O 0.76882 0.93142 0.45903 0.0
O223 O 0.80337 0.89922 0.46606 0.0
O224 O 0.8997 0.01977 0.20283 0.0
Cd225 Cd 0.92774 0.00982 0.23827 0.0
Cd226 Cd 0.877 0.01985 0.26874 0.0
O227 O 0.85751 0.02195 0.22572 0.0
O228 O 0.96205 0.99201 0.21917 0.0
O229 O 0.93242 0.96715 0.24822 0.0
C230 C 0.95485 0.96749 0.23136 0.0
C231 C 0.85107 0.9958 0.30568 0.0
C232 C 0.87173 0.02339 0.20207 0.0
C233 C 0.93211 0.06307 0.28123 0.0
O234 O 0.9045 0.05676 0.28506 0.0
O235 O 0.94643 0.04605 0.26454 0.0
O236 O 0.84276 0.0203 0.29533 0.0
O237 O 0.87363 0.984 0.29415 0.0
O238 O 0.22427 0.63201 0.55681 0.0
Cd239 Cd 0.25324 0.60416 0.53735 0.0
Cd240 Cd 0.26451 0.65319 0.50553 0.0
O241 O 0.23199 0.67149 0.53046 0.0
O242 O 0.25819 0.57216 0.56587 0.0
O243 O 0.29564 0.60344 0.55457 0.0
C244 C 0.28615 0.58153 0.56973 0.0
C245 C 0.31209 0.67702 0.50242 0.0
C246 C 0.21842 0.65832 0.5506 0.0
C247 C 0.24109 0.59599 0.47107 0.0
O248 O 0.25026 0.62332 0.47028 0.0
O249 O 0.24017 0.58369 0.4958 0.0
O250 O 0.28879 0.68599 0.48813 0.0
O251 O 0.30806 0.65525 0.51968 0.0
O252 O 0.39969 0.5137 0.70542 0.0
Cd253 Cd 0.43291 0.50609 0.73718 0.0
Cd254 Cd 0.38693 0.51203 0.77452 0.0
O255 O 0.36148 0.51243 0.73436 0.0
O256 O 0.46515 0.48842 0.71472 0.0
O257 O 0.44026 0.46438 0.7482 0.0
C258 C 0.46046 0.4645 0.72879 0.0
C259 C 0.36804 0.48583 0.81397 0.0
C260 C 0.37176 0.51486 0.70873 0.0
C261 C 0.43962 0.55896 0.78024 0.0
O262 O 0.41359 0.55052 0.78783 0.0
O263 O 0.45256 0.54332 0.76111 0.0
O264 O 0.35712 0.51014 0.80586 0.0
O265 O 0.38931 0.47563 0.79896 0.0
O266 O 0.65074 0.05291 0.71564 0.0
Cd267 Cd 0.67828 0.02341 0.73468 0.0
Cd268 Cd 0.62764 0.01346 0.76753 0.0
O269 O 0.61057 0.0457 0.7414 0.0
O270 O 0.71042 0.01979 0.70604 0.0
O271 O 0.67926 0.98175 0.71593 0.0
C272 C 0.70111 0.99206 0.70102 0.0
C273 C 0.59871 0.96999 0.77675 0.0
C274 C 0.6243 0.05904 0.72146 0.0
C275 C 0.6867 0.0356 0.80093 0.0
O276 O 0.65897 0.02756 0.80168 0.0
O277 O 0.69923 0.03573 0.77628 0.0
O278 O 0.59329 0.99576 0.78856 0.0
O279 O 0.6198 0.96905 0.75832 0.0
O280 O 0.73708 0.63808 0.05596 0.0
Cd281 Cd 0.75209 0.66514 0.02369 0.0
Cd282 Cd 0.77742 0.61416 1.00528 0.0
O283 O 0.75546 0.59606 0.04 0.0
O284 O 0.7242 0.69799 0.02141 0.0
O285 O 0.7293 0.66485 0.98389 0.0
C286 C 0.71636 0.68774 0.99444 0.0
C287 C 0.77692 0.58971 0.95801 0.0
C288 C 0.74076 0.61052 0.05869 0.0
C289 C 0.81887 0.66871 0.02513 0.0
O290 O 0.81591 0.64129 0.01607 0.0
O291 O 0.79591 0.68326 0.02944 0.0
O292 O 0.79191 0.5804 0.98062 0.0
O293 O 0.76058 0.61198 0.96266 0.0
O294 O 0.89071 0.57019 0.75079 0.0
Cd295 Cd 0.86505 0.53286 0.76072 0.0
Cd296 Cd 0.91652 0.5062 0.75362 0.0
O297 O 0.93446 0.55014 0.75197 0.0
O298 O 0.83141 0.54673 0.78382 0.0
O299 O 0.8667 0.51946 0.80246 0.0
C300 C 0.8429 0.53374 0.80625 0.0
C301 C 0.94137 0.46979 0.77885 0.0
C302 C 0.919 0.57272 0.7489 0.0
C303 C 0.86398 0.48973 0.70864 0.0
O304 O 0.89166 0.48798 0.716 0.0
O305 O 0.84788 0.50562 0.72459 0.0
O306 O 0.95152 0.48093 0.75535 0.0
O307 O 0.91791 0.48075 0.78938 0.0
O308 O 0.70486 0.39134 0.51027 0.0
Cd309 Cd 0.73882 0.4212 0.49928 0.0
Cd310 Cd 0.77156 0.37311 0.51107 0.0
O311 O 0.72954 0.35057 0.5136 0.0
O312 O 0.71726 0.45384 0.48117 0.0
O313 O 0.74802 0.42659 0.45642 0.0
C314 C 0.7298 0.44774 0.4567 0.0
C315 C 0.81127 0.35365 0.48607 0.0
C316 C 0.70518 0.36368 0.51482 0.0
C317 C 0.78142 0.4288 0.5528 0.0
O318 O 0.78611 0.40147 0.54753 0.0
O319 O 0.76442 0.44201 0.53501 0.0
O320 O 0.80269 0.34315 0.51051 0.0
O321 O 0.79593 0.37404 0.4746 0.0
O322 O 0.63844 0.56156 0.21047 0.0
Cd323 Cd 0.61133 0.54241 0.24059 0.0
Cd324 Cd 0.66166 0.51075 0.25074 0.0
O325 O 0.67867 0.53625 0.21784 0.0
O326 O 0.57888 0.57034 0.24525 0.0
O327 O 0.6109 0.56081 0.2824 0.0
C328 C 0.58849 0.57517 0.27285 0.0
C329 C 0.68939 0.50334 0.29504 0.0
C330 C 0.66486 0.55578 0.20417 0.0
C331 C 0.60324 0.47605 0.2294 0.0
O332 O 0.63094 0.47575 0.23741 0.0
O333 O 0.59058 0.50053 0.22882 0.0
O334 O 0.69589 0.49104 0.26983 0.0
O335 O 0.66807 0.52141 0.29485 0.0
H336 H 0.10011 0.41625 0.2642 0.0
H337 H 0.04783 0.47035 0.32094 0.0
H338 H 0.02564 0.42551 0.34146 0.0
H339 H 0.02425 0.37119 0.34648 0.0
H340 H 0.07697 0.31721 0.29007 0.0
H341 H 0.09552 0.36159 0.26624 0.0
C342 C 0.08356 0.41822 0.28075 0.0
C343 C 0.07589 0.44668 0.29115 0.0
C344 C 0.07107 0.39232 0.29276 0.0
C345 C 0.05431 0.44876 0.31258 0.0
C346 C 0.04163 0.42311 0.32444 0.0
C347 C 0.03952 0.36909 0.32874 0.0
C348 C 0.04938 0.34091 0.32032 0.0
C349 C 0.05035 0.3948 0.3152 0.0
C350 C 0.06909 0.33861 0.29717 0.0
C351 C 0.07979 0.36402 0.28351 0.0
H352 H 0.95782 0.80476 0.54368 0.0
H353 H 0.92139 0.74513 0.60647 0.0
H354 H 0.87056 0.75761 0.59127 0.0
H355 H 0.8371 0.78922 0.56387 0.0
H356 H 0.87388 0.84989 0.50218 0.0
H357 H 0.92395 0.83308 0.51316 0.0
C358 C 0.93876 0.79412 0.55376 0.0
C359 C 0.94346 0.77423 0.57639 0.0
C360 C 0.90967 0.80182 0.54533 0.0
C361 C 0.91845 0.76057 0.58907 0.0
C362 C 0.88937 0.76781 0.58049 0.0
C363 C 0.856 0.79855 0.55257 0.0
C364 C 0.85178 0.82103 0.53247 0.0
C365 C 0.88481 0.78902 0.55924 0.0
C366 C 0.8765 0.83269 0.51787 0.0
C367 C 0.90517 0.82312 0.52418 0.0
H368 H 0.4206 0.59563 0.82437 0.0
H369 H 0.49117 0.58784 0.76343 0.0
H370 H 0.51357 0.63706 0.78179 0.0
H371 H 0.51317 0.68233 0.81521 0.0
H372 H 0.44357 0.68915 0.87725 0.0
H373 H 0.42055 0.6404 0.8581 0.0
C374 C 0.44093 0.60462 0.81512 0.0
C375 C 0.45415 0.58803 0.79255 0.0
C376 C 0.45374 0.63288 0.8258 0.0
C377 C 0.48055 0.60005 0.78092 0.0
C378 C 0.49333 0.62827 0.7913 0.0
C379 C 0.4928 0.67325 0.82431 0.0
C380 C 0.47999 0.68937 0.84747 0.0
C381 C 0.48005 0.64493 0.81365 0.0
C382 C 0.45385 0.67715 0.85939 0.0
C383 C 0.44071 0.64927 0.84851 0.0
H384 H 0.60663 0.24585 0.07199 0.0
H385 H 0.59144 0.17492 0.13131 0.0
H386 H 0.63363 0.14971 0.1123 0.0
H387 H 0.67526 0.14812 0.07978 0.0
H388 H 0.69211 0.2194 0.02121 0.0
H389 H 0.64906 0.2443 0.03925 0.0
C390 C 0.61241 0.22473 0.0805 0.0
C391 C 0.59584 0.21222 0.10294 0.0
C392 C 0.63717 0.21058 0.06988 0.0
C393 C 0.60384 0.18505 0.11407 0.0
C394 C 0.628 0.17063 0.10326 0.0
C395 C 0.66963 0.16914 0.07092 0.0
C396 C 0.68696 0.18183 0.04915 0.0
C397 C 0.64495 0.18331 0.08137 0.0
C398 C 0.67926 0.20914 0.03807 0.0
C399 C 0.65456 0.22335 0.04828 0.0
H400 H 0.0795 0.60073 0.24675 0.0
H401 H 0.1316 0.5796 0.17155 0.0
H402 H 0.11345 0.62217 0.14634 0.0
H403 H 0.08406 0.66604 0.1461 0.0
H404 H 0.03331 0.68892 0.22188 0.0
H405 H 0.04992 0.64523 0.24651 0.0
C406 C 0.08656 0.60529 0.2247 0.0
C407 C 0.10674 0.58696 0.21096 0.0
C408 C 0.0766 0.63031 0.21059 0.0
C409 C 0.11609 0.59339 0.18259 0.0
C410 C 0.10579 0.61776 0.16818 0.0
C411 C 0.0766 0.66156 0.16803 0.0
C412 C 0.05747 0.68081 0.18208 0.0
C413 C 0.08631 0.63654 0.18209 0.0
C414 C 0.04816 0.6746 0.21056 0.0
C415 C 0.05754 0.64953 0.22463 0.0
H416 H 0.5983 0.77173 0.45619 0.0
H417 H 0.5834 0.84408 0.3992 0.0
H418 H 0.6329 0.86783 0.41544 0.0
H419 H 0.68061 0.86768 0.44514 0.0
H420 H 0.69645 0.79447 0.50088 0.0
H421 H 0.64653 0.77126 0.48548 0.0
C422 C 0.60579 0.79286 0.4476 0.0
C423 C 0.58717 0.80625 0.4267 0.0
C424 C 0.63456 0.80605 0.4565 0.0
C425 C 0.59733 0.83336 0.41535 0.0
C426 C 0.62565 0.84691 0.42455 0.0
C427 C 0.67324 0.84659 0.45386 0.0
C428 C 0.6923 0.83288 0.47414 0.0
C429 C 0.64454 0.83334 0.44493 0.0
C430 C 0.68233 0.80549 0.48514 0.0
C431 C 0.6537 0.79225 0.47647 0.0
H432 H 0.52784 0.3581 0.67285 0.0
H433 H 0.48057 0.31067 0.73865 0.0
H434 H 0.46241 0.35733 0.75849 0.0
H435 H 0.45561 0.4107 0.75381 0.0
H436 H 0.50189 0.45791 0.68719 0.0
H437 H 0.5248 0.41239 0.67123 0.0
C438 C 0.51406 0.35805 0.6919 0.0
C439 C 0.50539 0.33088 0.70405 0.0
C440 C 0.50314 0.38492 0.70286 0.0
C441 C 0.48745 0.33124 0.72872 0.0
C442 C 0.47693 0.35792 0.74004 0.0
C443 C 0.47096 0.41112 0.73603 0.0
C444 C 0.47671 0.43761 0.72152 0.0
C445 C 0.4839 0.38475 0.72672 0.0
C446 C 0.49685 0.43779 0.69864 0.0
C447 C 0.50999 0.41173 0.68945 0.0
H448 H 0.91449 0.25503 0.93142 0.0
H449 H 0.96568 0.20112 0.98929 0.0
H450 H 0.9197 0.18241 0.01064 0.0
H451 H 0.8645 0.17806 0.00992 0.0
H452 H 0.81334 0.23118 0.95119 0.0
H453 H 0.85965 0.25358 0.93346 0.0
C454 C 0.91565 0.23948 0.94896 0.0
C455 C 0.94351 0.22934 0.95852 0.0
C456 C 0.88903 0.22847 0.96093 0.0
C457 C 0.94455 0.20922 0.98135 0.0
C458 C 0.91822 0.19843 0.99357 0.0
C459 C 0.86349 0.19483 0.99355 0.0
C460 C 0.83545 0.20271 0.98176 0.0
C461 C 0.89027 0.2074 0.98309 0.0
C462 C 0.83459 0.22451 0.96055 0.0
C463 C 0.86109 0.23734 0.95031 0.0
H464 H 0.3014 0.05303 0.44933 0.0
H465 H 0.24152 0.11627 0.41511 0.0
H466 H 0.25483 0.10315 0.36429 0.0
H467 H 0.28735 0.07764 0.3304 0.0
H468 H 0.34837 0.01562 0.36501 0.0
H469 H 0.3306 0.02431 0.41489 0.0
C470 C 0.29086 0.06364 0.43074 0.0
C471 C 0.27068 0.08581 0.43608 0.0
C472 C 0.2991 0.05646 0.40168 0.0
C473 C 0.25718 0.0992 0.41167 0.0
C474 C 0.26491 0.09182 0.38261 0.0
C475 C 0.29656 0.06577 0.34878 0.0
C476 C 0.31943 0.04627 0.34403 0.0
C477 C 0.28648 0.07113 0.37747 0.0
C478 C 0.33091 0.03089 0.36806 0.0
C479 C 0.32078 0.03588 0.39661 0.0
H480 H 0.20362 0.03487 0.67663 0.0
H481 H 0.1458 0.10608 0.69427 0.0
H482 H 0.16357 0.13161 0.65149 0.0
H483 H 0.1947 0.13333 0.60867 0.0
H484 H 0.25039 0.06087 0.58865 0.0
H485 H 0.23403 0.03599 0.6325 0.0
C486 C 0.1952 0.05612 0.6712 0.0
C487 C 0.17367 0.06875 0.68865 0.0
C488 C 0.20485 0.07025 0.64599 0.0
C489 C 0.16244 0.09598 0.68114 0.0
C490 C 0.17253 0.11056 0.65668 0.0
C491 C 0.20327 0.11208 0.61386 0.0
C492 C 0.22379 0.09903 0.59546 0.0
C493 C 0.19355 0.0978 0.63884 0.0
C494 C 0.23445 0.07134 0.60237 0.0
C495 C 0.22523 0.05718 0.62753 0.0
H496 H 0.23067 0.97524 0.82595 0.0
H497 H 0.1712 0.03716 0.86346 0.0
H498 H 0.18558 0.02273 0.91362 0.0
H499 H 0.21113 0.98901 0.94618 0.0
H500 H 0.26901 0.92568 0.90832 0.0
H501 H 0.25922 0.9443 0.85896 0.0
C502 C 0.22121 0.98598 0.84511 0.0
C503 C 0.19973 1.00713 0.8409 0.0
C504 C 0.22903 0.97706 0.87382 0.0
C505 C 0.18771 0.02077 0.86602 0.0
C506 C 0.19582 0.01242 0.89472 0.0
C507 C 0.22188 0.97948 0.9272 0.0
C508 C 0.24056 0.95577 0.93093 0.0
C509 C 0.21582 0.99001 0.89879 0.0
C510 C 0.25439 0.9438 0.90609 0.0
C511 C 0.24879 0.95443 0.87783 0.0
H512 H 0.27293 0.96789 0.09259 0.0
H513 H 0.3409 0.90451 0.08527 0.0
H514 H 0.36452 0.92362 0.13364 0.0
H515 H 0.36529 0.95748 0.17828 0.0
H516 H 0.29622 0.01959 0.18693 0.0
H517 H 0.27338 1.00155 0.13786 0.0
C518 C 0.2931 0.95852 0.10149 0.0
C519 C 0.3053 0.93499 0.08538 0.0
C520 C 0.30613 0.96911 0.12964 0.0
C521 C 0.33113 0.92267 0.09731 0.0
C522 C 0.3446 0.93352 0.12496 0.0
C523 C 0.34521 0.96709 0.16949 0.0
C524 C 0.33251 0.98986 0.18625 0.0
C525 C 0.33215 0.95655 0.1414 0.0
C526 C 0.30639 1.00192 0.17456 0.0
C527 C 0.29339 0.99173 0.14644 0.0
H528 H 0.34055 0.29389 0.07032 0.0
H529 H 0.37764 0.35798 0.01211 0.0
H530 H 0.42785 0.34137 0.02302 0.0
H531 H 0.46164 0.31164 0.05232 0.0
H532 H 0.42453 0.24851 0.1115 0.0
H533 H 0.37386 0.26153 0.09666 0.0
C534 C 0.35956 0.30407 0.05978 0.0
C535 C 0.35535 0.32736 0.04064 0.0
C536 C 0.38839 0.29463 0.06639 0.0
C537 C 0.38023 0.34011 0.02702 0.0
C538 C 0.40898 0.33066 0.0333 0.0
C539 C 0.44246 0.3004 0.06167 0.0
C540 C 0.44693 0.27927 0.08317 0.0
C541 C 0.41339 0.30836 0.05342 0.0
C542 C 0.42178 0.26492 0.095 0.0
C543 C 0.39278 0.27244 0.08661 0.0
H544 H 0.02438 0.8612 0.17823 0.0
H545 H 0.96852 0.81195 0.23622 0.0
H546 H 0.94962 0.85835 0.25578 0.0
H547 H 0.94522 0.91238 0.25294 0.0
H548 H 1.00047 0.9615 0.19432 0.0
H549 H 0.02334 0.91585 0.17874 0.0
C550 C 1.00847 0.86066 0.19552 0.0
C551 C 0.99772 0.83309 0.20551 0.0
C552 C 0.99727 0.88744 0.20638 0.0
C553 C 0.97708 0.83283 0.22795 0.0
C554 C 0.96614 0.85938 0.23911 0.0
C555 C 0.9625 0.91316 0.23701 0.0
C556 C 0.97083 0.94029 0.22461 0.0
C557 C 0.97546 0.88673 0.22791 0.0
C558 C 0.99343 0.94091 0.20412 0.0
C559 C 1.00655 0.91478 0.19513 0.0
H560 H 0.18139 0.6992 0.52958 0.0
H561 H 0.20143 0.64899 0.60641 0.0
H562 H 0.15954 0.66927 0.63129 0.0
H563 H 0.11641 0.69979 0.63071 0.0
H564 H 0.09427 0.74841 0.55325 0.0
H565 H 0.13759 0.73 0.52902 0.0
C566 C 0.17675 0.69303 0.55191 0.0
C567 C 0.19455 0.67276 0.56622 0.0
C568 C 0.15206 0.70418 0.56581 0.0
C569 C 0.18803 0.66455 0.59494 0.0
C570 C 0.16405 0.67607 0.60916 0.0
C571 C 0.12101 0.70644 0.60853 0.0
C572 C 0.10207 0.72547 0.59385 0.0
C573 C 0.14574 0.69562 0.59468 0.0
C574 C 0.10837 0.73368 0.56503 0.0
C575 C 0.13322 0.72325 0.5512 0.0
H576 H 0.95859 0.69353 0.6925 0.0
H577 H 0.0464 0.6678 0.72138 0.0
H578 H 0.02369 0.62379 0.7432 0.0
H579 H 0.97881 0.59119 0.75194 0.0
H580 H 0.89097 0.61866 0.72518 0.0
H581 H 0.91371 0.66336 0.70509 0.0
C582 C 0.97271 0.67834 0.7037 0.0
C583 C 1.0041 0.68376 0.70509 0.0
C584 C 0.95949 0.65333 0.71664 0.0
C585 C 0.02214 0.66413 0.72002 0.0
C586 C 1.00918 0.63889 0.73244 0.0
C587 C 0.96466 0.6071 0.74196 0.0
C588 C 0.93324 0.60137 0.73993 0.0
C589 C 0.97788 0.63307 0.7306 0.0
C590 C 0.91523 0.62241 0.72713 0.0
C591 C 0.9282 0.64799 0.71546 0.0
H592 H 0.19158 0.20252 0.4567 0.0
H593 H 0.16627 0.22846 0.54506 0.0
H594 H 0.12198 0.25071 0.52379 0.0
H595 H 0.08903 0.26077 0.47984 0.0
H596 H 0.11649 0.237 0.39158 0.0
H597 H 0.16122 0.21635 0.413 0.0
C598 C 0.17643 0.21318 0.47127 0.0
C599 C 0.18205 0.21362 0.50237 0.0
C600 C 0.15129 0.22639 0.45889 0.0
C601 C 0.16244 0.22785 0.52099 0.0
C602 C 0.13705 0.24051 0.50885 0.0
C603 C 0.10494 0.25132 0.46533 0.0
C604 C 0.09916 0.25033 0.43413 0.0
C605 C 0.13103 0.23964 0.4778 0.0
C606 C 0.12023 0.23818 0.41567 0.0
C607 C 0.14586 0.22618 0.42788 0.0
H608 H 0.61347 0.42115 0.24754 0.0
H609 H 0.55521 0.46727 0.18869 0.0
H610 H 0.53142 0.41936 0.16756 0.0
H611 H 0.53011 0.36442 0.16326 0.0
H612 H 0.58696 0.31843 0.22364 0.0
H613 H 0.60831 0.36635 0.24699 0.0
C614 C 0.59538 0.42068 0.23026 0.0
C615 C 0.58632 0.44758 0.21936 0.0
C616 C 0.58172 0.39315 0.21846 0.0
C617 C 0.56254 0.44679 0.19738 0.0
C618 C 0.54907 0.41943 0.18521 0.0
C619 C 0.54702 0.36493 0.18169 0.0
C620 C 0.55728 0.33804 0.19149 0.0
C621 C 0.55893 0.39249 0.19516 0.0
C622 C 0.57877 0.3389 0.2157 0.0
C623 C 0.59106 0.36625 0.22896 0.0
H624 H 0.35114 0.8104 0.0054 0.0
H625 H 0.33514 0.86681 0.93245 0.0
H626 H 0.38225 0.85346 0.91174 0.0
H627 H 0.42838 0.82579 0.91468 0.0
H628 H 0.44361 0.77 0.98837 0.0
H629 H 0.39671 0.78346 0.0086 0.0
C630 C 0.35775 0.81962 0.98481 0.0
C631 C 0.33947 0.83942 0.97041 0.0
C632 C 0.38501 0.81224 0.97333 0.0
C633 C 0.34867 0.85136 0.94392 0.0
C634 C 0.3757 0.84386 0.93215 0.0
C635 C 0.42156 0.81685 0.93532 0.0
C636 C 0.43961 0.79696 0.95 0.0
C637 C 0.3942 0.82445 0.94678 0.0
C638 C 0.43025 0.78535 0.97658 0.0
C639 C 0.40333 0.79294 0.98815 0.0
H640 H 0.91871 0.43252 0.81949 0.0
H641 H 0.99453 0.44785 0.76581 0.0
H642 H 0.01513 0.40212 0.78173 0.0
H643 H 1.01126 0.35716 0.80958 0.0
H644 H 0.9362 0.34104 0.86392 0.0
H645 H 0.91554 0.38746 0.84882 0.0
C646 C 0.93991 0.42602 0.81159 0.0
C647 C 0.95503 0.44369 0.79148 0.0
C648 C 0.95159 0.39933 0.8206 0.0
C649 C 0.98237 0.43476 0.78127 0.0
C650 C 0.99415 0.4085 0.79027 0.0
C651 C 0.99026 0.36363 0.81803 0.0
C652 C 0.97518 0.34545 0.83765 0.0
C653 C 0.97879 0.39044 0.8096 0.0
C654 C 0.9482 0.35449 0.84863 0.0
C655 C 0.93644 0.3811 0.84009 0.0
H656 H 0.33224 0.22051 0.57397 0.0
H657 H 0.3617 0.15605 0.50906 0.0
H658 H 0.41404 0.1728 0.52279 0.0
H659 H 0.45156 0.2023 0.55663 0.0
H660 H 0.42198 0.26435 0.62379 0.0
H661 H 0.36979 0.25225 0.60566 0.0
C662 C 0.35011 0.21051 0.5625 0.0
C663 C 0.34311 0.18699 0.54069 0.0
C664 C 0.38023 0.21965 0.5711 0.0
C665 C 0.36652 0.17406 0.52614 0.0
C666 C 0.39648 0.1836 0.53398 0.0
C667 C 0.43371 0.2135 0.56696 0.0
C668 C 0.44061 0.234 0.59162 0.0
C669 C 0.40363 0.20584 0.55696 0.0
C670 C 0.41722 0.24823 0.60492 0.0
C671 C 0.38735 0.24134 0.59459 0.0
H672 H 0.54632 0.66597 0.37154 0.0
H673 H 0.50469 0.70209 0.29367 0.0
H674 H 0.52195 0.66141 0.26196 0.0
H675 H 0.55118 0.61728 0.25611 0.0
H676 H 0.59549 0.58315 0.33367 0.0
H677 H 0.57479 0.6214 0.36581 0.0
C678 C 0.54067 0.66476 0.34767 0.0
C679 C 0.52414 0.68701 0.335 0.0
C680 C 0.55134 0.6418 0.32952 0.0
C681 C 0.51738 0.68528 0.30398 0.0
C682 C 0.52729 0.66206 0.28584 0.0
C683 C 0.55611 0.61804 0.28008 0.0
C684 C 0.57485 0.59738 0.29249 0.0
C685 C 0.54465 0.64046 0.29833 0.0
C686 C 0.58122 0.59883 0.32355 0.0
C687 C 0.56937 0.62068 0.34193 0.0
H688 H 0.08969 0.82296 0.07792 0.0
H689 H 0.12008 0.73585 0.05554 0.0
H690 H 0.16297 0.75877 0.03182 0.0
H691 H 0.19317 0.8039 0.01938 0.0
H692 H 0.1608 0.89079 0.03958 0.0
H693 H 0.11739 0.86765 0.06171 0.0
C694 C 0.10568 0.80904 0.06777 0.0
C695 C 0.10191 0.77782 0.06874 0.0
C696 C 0.12996 0.82233 0.05365 0.0
C697 C 0.12252 0.75998 0.0551 0.0
C698 C 0.14709 0.77307 0.04157 0.0
C699 C 0.17646 0.81774 0.02834 0.0
C700 C 0.18049 0.84907 0.02794 0.0
C701 C 0.15122 0.80426 0.04094 0.0
C702 C 0.15841 0.86662 0.03949 0.0
C703 C 0.13355 0.85343 0.05235 0.0
H704 H 0.74156 0.89583 0.60663 0.0
H705 H 0.77413 0.97561 0.56625 0.0
H706 H 0.75871 1.00643 0.60859 0.0
H707 H 0.7335 0.01074 0.65562 0.0
H708 H 0.69755 0.93107 0.69391 0.0
H709 H 0.71687 0.90009 0.65383 0.0
C710 C 0.74566 0.91995 0.60725 0.0
C711 C 0.75913 0.93341 0.58337 0.0
C712 C 0.73594 0.93751 0.63118 0.0
C713 C 0.76382 0.96471 0.58433 0.0
C714 C 0.75497 0.98233 0.60851 0.0
C715 C 0.73015 0.98658 0.65536 0.0
C716 C 0.71418 0.9732 0.67775 0.0
C717 C 0.74064 0.96898 0.63184 0.0
C718 C 0.70971 0.9419 0.6769 0.0
C719 C 0.72076 0.92419 0.654 0.0
H720 H 0.86959 0.9519 0.34103 0.0
H721 H 0.79853 0.01117 0.32762 0.0
H722 H 0.77475 0.99329 0.37119 0.0
H723 H 0.77442 0.96184 0.41376 0.0
H724 H 0.84524 0.9026 0.42823 0.0
H725 H 0.86882 0.91956 0.38383 0.0
C726 C 0.84876 0.96068 0.3475 0.0
C727 C 0.83589 0.98285 0.33097 0.0
C728 C 0.83526 0.95051 0.37297 0.0
C729 C 0.809 0.99414 0.33986 0.0
C730 C 0.79537 0.98397 0.36487 0.0
C731 C 0.79506 0.95263 0.40731 0.0
C732 C 0.80807 0.93105 0.42445 0.0
C733 C 0.80841 0.96239 0.38174 0.0
C734 C 0.83476 0.91932 0.41555 0.0
C735 C 0.84823 0.92896 0.39009 0.0
H736 H 0.82966 0.07848 0.08176 0.0
H737 H 0.74258 0.05894 0.11533 0.0
H738 H 0.76596 0.037 0.15864 0.0
H739 H 0.81146 0.02524 0.18814 0.0
H740 H 0.8983 0.0426 0.15299 0.0
H741 H 0.87472 0.06305 0.10918 0.0
C742 C 0.81584 0.06933 0.09854 0.0
C743 C 0.78451 0.07057 0.0955 0.0
C744 C 0.82939 0.05624 0.12313 0.0
C745 C 0.7668 0.05826 0.11717 0.0
C746 C 0.78014 0.04575 0.14199 0.0
C747 C 0.82519 0.03323 0.17077 0.0
C748 C 0.85663 0.03251 0.17406 0.0
C749 C 0.81146 0.04485 0.14536 0.0
C750 C 0.87404 0.04279 0.15115 0.0
C751 C 0.8606 0.05467 0.12607 0.0
H752 H 0.67577 0.02012 0.85671 0.0
H753 H 0.73566 0.07575 0.80813 0.0
H754 H 0.75928 0.09884 0.85519 0.0
H755 H 0.75968 0.10622 0.90991 0.0
H756 H 0.70073 0.04939 0.95836 0.0
H757 H 0.68014 0.0235 0.91151 0.0
C758 C 0.69421 0.03709 0.85645 0.0
C759 C 0.70372 0.04654 0.82906 0.0
C760 C 0.70771 0.05012 0.88351 0.0
C761 C 0.72794 0.06815 0.82897 0.0
C762 C 0.74133 0.08146 0.85585 0.0
C763 C 0.74254 0.08796 0.91021 0.0
C764 C 0.73144 0.07998 0.9375 0.0
C765 C 0.73091 0.07309 0.88321 0.0
C766 C 0.7096 0.05598 0.93763 0.0
C767 C 0.69771 0.04127 0.91085 0.0
H768 H 0.61948 0.7306 0.9016 0.0
H769 H 0.58633 0.76936 0.98224 0.0
H770 H 0.62898 0.75202 0.0116 0.0
H771 H 0.67429 0.72365 0.01452 0.0
H772 H 0.70495 0.68194 0.93404 0.0
H773 H 0.66463 0.70269 0.90441 0.0
C774 C 0.62174 0.73562 0.92556 0.0
C775 C 0.59982 0.75142 0.93969 0.0
C776 C 0.64576 0.72484 0.94233 0.0
C777 C 0.60289 0.75728 0.97082 0.0
C778 C 0.62724 0.74732 0.98761 0.0
C779 C 0.67228 0.71931 0.99047 0.0
C780 C 0.69262 0.70132 0.97648 0.0
C781 C 0.6486 0.73075 0.97364 0.0
C782 C 0.68954 0.69563 0.94535 0.0
C783 C 0.66651 0.70752 0.92839 0.0
H784 H 0.04993 0.11135 0.7627 0.0
H785 H 0.09261 0.07864 0.84183 0.0
H786 H 0.07416 0.11947 0.87239 0.0
H787 H 0.04846 0.16582 0.87622 0.0
H788 H 1.00888 0.20089 0.79679 0.0
H789 H 0.02348 0.15766 0.7667 0.0
C790 C 0.05488 0.11298 0.78669 0.0
C791 C 0.07252 0.09194 0.80003 0.0
C792 C 0.04491 0.137 0.80399 0.0
C793 C 0.07911 0.09456 0.83105 0.0
C794 C 0.06859 0.1179 0.84852 0.0
C795 C 0.04269 0.1639 0.85236 0.0
C796 C 0.0275 0.18655 0.83879 0.0
C797 C 0.05183 0.13946 0.83516 0.0
C798 C 0.02058 0.18382 0.80779 0.0
C799 C 0.02894 0.15912 0.79058 0.0
H800 H 0.92783 0.3274 0.41779 0.0
H801 H 0.94415 0.27651 0.49496 0.0
H802 H 0.89749 0.29136 0.51483 0.0
H803 H 0.85143 0.31757 0.50997 0.0
H804 H 0.83423 0.36866 0.43318 0.0
H805 H 0.88156 0.3547 0.4134 0.0
C806 C 0.92134 0.31989 0.43913 0.0
C807 C 0.9396 0.30091 0.45487 0.0
C808 C 0.89407 0.32819 0.45032 0.0
C809 C 0.93063 0.29112 0.48234 0.0
C810 C 0.90384 0.29951 0.4937 0.0
C811 C 0.85787 0.32555 0.4888 0.0
C812 C 0.8391 0.34397 0.473 0.0
C813 C 0.88522 0.31772 0.47775 0.0
C814 C 0.8481 0.35431 0.44575 0.0
C815 C 0.87526 0.34643 0.43448 0.0
H816 H 0.60941 0.91218 0.76149 0.0
H817 H 0.55281 0.96573 0.81397 0.0
H818 H 0.53123 0.92093 0.83505 0.0
H819 H 0.53131 0.86697 0.84173 0.0
H820 H 0.58853 0.81357 0.78981 0.0
H821 H 0.60673 0.85773 0.76538 0.0
C822 C 0.59205 0.91402 0.77721 0.0
C823 C 0.58294 0.94234 0.78624 0.0
C824 C 0.57997 0.88815 0.78961 0.0
C825 C 0.56039 0.94426 0.80667 0.0
C826 C 0.54806 0.91863 0.81885 0.0
C827 C 0.54753 0.86493 0.82485 0.0
C828 C 0.55868 0.837 0.81785 0.0
C829 C 0.55815 0.89052 0.81099 0.0
C830 C 0.57962 0.83479 0.79581 0.0
C831 C 0.59012 0.86007 0.7818 0.0
H832 H 1.00679 0.18498 0.31936 0.0
H833 H 0.93652 0.19176 0.38058 0.0
H834 H 0.91304 0.1434 0.36044 0.0
H835 H 0.91281 0.09912 0.32572 0.0
H836 H 0.98477 0.0911 0.26648 0.0
H837 H 1.00751 0.13986 0.28587 0.0
C838 C 0.98617 0.17596 0.32805 0.0
C839 C 0.97317 0.19196 0.35113 0.0
C840 C 0.97333 0.14782 0.31699 0.0
C841 C 0.94683 0.17982 0.36269 0.0
C842 C 0.93346 0.15218 0.35125 0.0
C843 C 0.93352 0.10798 0.31712 0.0
C844 C 0.94701 0.09151 0.29464 0.0
C845 C 0.94661 0.13593 0.3285 0.0
C846 C 0.97398 0.10323 0.28389 0.0
C847 C 0.98692 0.1312 0.29483 0.0
H848 H 0.58417 0.09688 0.74227 0.0
H849 H 0.63416 0.07565 0.66559 0.0
H850 H 0.61484 0.11787 0.64059 0.0
H851 H 0.58516 0.16163 0.64106 0.0
H852 H 0.53701 0.18482 0.71857 0.0
H853 H 0.55443 0.14124 0.74279 0.0
C854 C 0.59049 0.10133 0.71995 0.0
C855 C 0.6104 0.0831 0.70571 0.0
C856 C 0.57995 0.12619 0.706 0.0
C857 C 0.61885 0.08938 0.677 0.0
C858 C 0.60788 0.11355 0.66272 0.0
C859 C 0.57843 0.1572 0.66326 0.0
C860 C 0.5598 0.17652 0.67794 0.0
C861 C 0.58869 0.13229 0.67713 0.0
C862 C 0.55146 0.17044 0.70677 0.0
C863 C 0.5613 0.14543 0.72061 0.0
H864 H 0.18573 0.36951 0.94946 0.0
H865 H 0.19977 0.29823 0.0081 0.0
H866 H 0.15057 0.27415 0.99123 0.0
H867 H 0.10329 0.27356 0.9601 0.0
H868 H 0.09033 0.34394 0.90023 0.0
H869 H 0.13925 0.36832 0.9176 0.0
C870 C 0.17812 0.34865 0.9585 0.0
C871 C 0.19643 0.33576 0.98005 0.0
C872 C 0.14986 0.33489 0.94869 0.0
C873 C 0.18621 0.30862 0.9914 0.0
C874 C 0.158 0.29489 0.98189 0.0
C875 C 0.1111 0.29437 0.95109 0.0
C876 C 0.09316 0.30706 0.9291 0.0
C877 C 0.13955 0.30793 0.96069 0.0
C878 C 0.10374 0.33376 0.91721 0.0
C879 C 0.13171 0.34768 0.92708 0.0
H880 H 0.44881 0.70527 0.48085 0.0
H881 H 0.41001 0.7642 0.419 0.0
H882 H 0.3602 0.75166 0.4362 0.0
H883 H 0.32721 0.72093 0.46576 0.0
H884 H 0.3658 0.6611 0.52679 0.0
H885 H 0.41615 0.67731 0.51316 0.0
C886 C 0.42952 0.71563 0.47134 0.0
C887 C 0.43315 0.73546 0.44847 0.0
C888 C 0.40086 0.70807 0.48109 0.0
C889 C 0.40789 0.74877 0.43652 0.0
C890 C 0.37935 0.74156 0.4463 0.0
C891 C 0.34663 0.71168 0.47639 0.0
C892 C 0.34267 0.68965 0.49712 0.0
C893 C 0.3755 0.72078 0.46813 0.0
C894 C 0.36814 0.67801 0.5107 0.0
C895 C 0.39697 0.6872 0.50284 0.0
H896 H 0.79558 0.5652 0.82139 0.0
H897 H 0.862 0.50954 0.85785 0.0
H898 H 0.84488 0.51937 0.90782 0.0
H899 H 0.81444 0.54746 0.94161 0.0
H900 H 0.74942 0.60476 0.90549 0.0
H901 H 0.76233 0.5902 0.85488 0.0
C902 C 0.8061 0.55491 0.8402 0.0
C903 C 0.83024 0.53688 0.83589 0.0
C904 C 0.79646 0.56103 0.86896 0.0
C905 C 0.8435 0.52365 0.86052 0.0
C906 C 0.83375 0.52929 0.88914 0.0
C907 C 0.80272 0.55643 0.92267 0.0
C908 C 0.78113 0.57735 0.92738 0.0
C909 C 0.81074 0.54849 0.89369 0.0
C910 C 0.76618 0.5887 0.90254 0.0
C911 C 0.77365 0.58048 0.87358 0.0
H912 H 0.70506 0.53416 0.16679 0.0
H913 H 0.65439 0.61075 0.18548 0.0
H914 H 0.67339 0.63434 0.14213 0.0
H915 H 0.70319 0.63272 0.09832 0.0
H916 H 0.75225 0.55532 0.07784 0.0
H917 H 0.73478 0.53238 0.12227 0.0
C918 C 0.69851 0.55616 0.16154 0.0
C919 C 0.67854 0.5708 0.17941 0.0
C920 C 0.70889 0.56927 0.13606 0.0
C921 C 0.66978 0.59907 0.17207 0.0
C922 C 0.68056 0.61253 0.14725 0.0
C923 C 0.71008 0.61081 0.10349 0.0
C924 C 0.72902 0.5958 0.08472 0.0
C925 C 0.69986 0.59771 0.12893 0.0
C926 C 0.73756 0.56735 0.09178 0.0
C927 C 0.7277 0.55426 0.11728 0.0
H928 H 0.75159 0.44012 0.4015 0.0
H929 H 0.69098 0.49162 0.45112 0.0
H930 H 0.67518 0.51549 0.40604 0.0
H931 H 0.67564 0.51906 0.35179 0.0
H932 H 0.73557 0.46703 0.30188 0.0
H933 H 0.75476 0.4465 0.34774 0.0
C934 C 0.73513 0.45675 0.4025 0.0
C935 C 0.72233 0.46381 0.42963 0.0
C936 C 0.72593 0.47034 0.37638 0.0
C937 C 0.70112 0.48557 0.43053 0.0
C938 C 0.69202 0.49927 0.40473 0.0
C939 C 0.69322 0.50358 0.35099 0.0
C940 C 0.70397 0.49449 0.32337 0.0
C941 C 0.70387 0.49146 0.37742 0.0
C942 C 0.72677 0.47437 0.32279 0.0
C943 C 0.73771 0.46249 0.34902 0.0
H944 H 0.81815 0.50647 0.67258 0.0
H945 H 0.88155 0.43875 0.68145 0.0
H946 H 0.8618 0.41408 0.6337 0.0
H947 H 0.82679 0.41196 0.58946 0.0
H948 H 0.76504 0.48108 0.57919 0.0
H949 H 0.78418 0.50526 0.62732 0.0
C950 C 0.82742 0.48616 0.66413 0.0
C951 C 0.85102 0.47423 0.68054 0.0
C952 C 0.8165 0.47257 0.63633 0.0
C953 C 0.86329 0.44826 0.66917 0.0
C954 C 0.85206 0.4342 0.64189 0.0
C955 C 0.81756 0.43237 0.5977 0.0
C956 C 0.79448 0.44465 0.58081 0.0
C957 C 0.82877 0.44624 0.62524 0.0
C958 C 0.78294 0.47124 0.59169 0.0
C959 C 0.79373 0.48499 0.61928 0.0
H960 H 0.39896 0.12239 0.23337 0.0
H961 H 0.47571 0.08174 0.27201 0.0
H962 H 0.50916 0.12237 0.25615 0.0
H963 H 0.51679 0.16748 0.22837 0.0
H964 H 0.4403 0.20583 0.18634 0.0
H965 H 0.40649 0.16807 0.20652 0.0
C966 C 0.42297 0.12267 0.23874 0.0
C967 C 0.43485 0.09916 0.25396 0.0
C968 C 0.4421 0.14553 0.22869 0.0
C969 C 0.46604 0.09958 0.26032 0.0
C970 C 0.48516 0.12276 0.2512 0.0
C971 C 0.49269 0.16776 0.22388 0.0
C972 C 0.48104 0.18942 0.2059 0.0
C973 C 0.47348 0.14555 0.23491 0.0
C974 C 0.44981 0.18932 0.20003 0.0
C975 C 0.43048 0.16776 0.21158 0.0
H976 H 0.07938 0.8309 0.71587 0.0
H977 H 0.01598 0.86394 0.65179 0.0
H978 H 0.02905 0.91514 0.67204 0.0
H979 H 0.06162 0.95089 0.70513 0.0
H980 H 0.12783 0.91789 0.76632 0.0
H981 H 0.1104 0.86642 0.75031 0.0
C982 C 0.06813 0.84928 0.70666 0.0
C983 C 0.04685 0.84368 0.68234 0.0
C984 C 0.0764 0.87873 0.7178 0.0
C985 C 0.03263 0.86773 0.6704 0.0
C986 C 0.04007 0.89701 0.68197 0.0
C987 C 0.07186 0.93239 0.71525 0.0
C988 C 0.09597 0.93811 0.73678 0.0
C989 C 0.06239 0.90284 0.70524 0.0
C990 C 0.10932 0.91399 0.74953 0.0
C991 C 0.0994 0.88457 0.74039 0.0
H992 H 0.49639 0.85256 0.30384 0.0
H993 H 0.4292 0.83872 0.36761 0.0
H994 H 0.40624 0.88423 0.35329 0.0
H995 H 0.40584 0.92857 0.32291 0.0
H996 H 0.47382 0.94148 0.25964 0.0
H997 H 0.49595 0.89595 0.27377 0.0
C998 C 0.47659 0.85931 0.31453 0.0
C999 C 0.46451 0.84215 0.33671 0.0
C1000 C 0.46377 0.88558 0.30646 0.0
C1001 C 0.43892 0.85143 0.35038 0.0
C1002 C 0.42585 0.87753 0.34228 0.0
C1003 C 0.42559 0.92148 0.31237 0.0
C1004 C 0.43815 0.93854 0.29029 0.0
C1005 C 0.43822 0.89494 0.32047 0.0
C1006 C 0.46363 0.92888 0.2767 0.0
C1007 C 0.47632 0.90275 0.28471 0.0
H1008 H 0.83506 0.71685 0.06348 0.0
H1009 H 0.87124 0.65169 1.00381 0.0
H1010 H 0.9223 0.67066 0.02067 0.0
H1011 H 0.95655 0.70239 0.05591 0.0
H1012 H 0.92012 0.76495 0.11815 0.0
H1013 H 0.86941 0.75061 0.0966 0.0
C1014 C 0.85413 0.70716 0.05381 0.0
C1015 C 0.84941 0.68283 0.03257 0.0
C1016 C 0.88342 0.71756 0.06427 0.0
C1017 C 0.87432 0.67032 0.0204 0.0
C1018 C 0.90352 0.68113 0.03003 0.0
C1019 C 0.93754 0.71321 0.0644 0.0
C1020 C 0.94204 0.73454 0.08866 0.0
C1021 C 0.90834 0.70423 0.0525 0.0
C1022 C 0.9172 0.74824 0.09962 0.0
C1023 C 0.88818 0.74007 0.08733 0.0
H1024 H 0.5873 0.31992 0.57492 0.0
H1025 H 0.61956 0.23363 0.55265 0.0
H1026 H 0.66227 0.25747 0.52927 0.0
H1027 H 0.69163 0.30329 0.51689 0.0
H1028 H 0.65688 0.38919 0.53649 0.0
H1029 H 0.61404 0.36512 0.55871 0.0
C1030 C 0.60366 0.30638 0.56486 0.0
C1031 C 0.60048 0.27514 0.56575 0.0
C1032 C 0.62775 0.32018 0.55085 0.0
C1033 C 0.62155 0.25778 0.55223 0.0
C1034 C 0.64601 0.2714 0.53891 0.0
C1035 C 0.67453 0.31668 0.52576 0.0
C1036 C 0.67769 0.34803 0.5251 0.0
C1037 C 0.64951 0.30264 0.5383 0.0
C1038 C 0.65513 0.36502 0.53655 0.0
C1039 C 0.63059 0.35129 0.54946 0.0
H1040 H 0.24008 0.39857 0.11385 0.0
H1041 H 0.27533 0.47866 0.07581 0.0
H1042 H 0.25833 0.50917 0.11754 0.0
H1043 H 0.23098 0.51319 0.16321 0.0
H1044 H 0.19238 0.43335 0.19917 0.0
H1045 H 0.21322 0.40257 0.15986 0.0
C1046 C 0.24441 0.42268 0.1149 0.0
C1047 C 0.2591 0.43634 0.09183 0.0
C1048 C 0.23376 0.4401 0.13845 0.0
C1049 C 0.2641 0.46763 0.09327 0.0
C1050 C 0.25433 0.48506 0.1171 0.0
C1051 C 0.22735 0.48903 0.16262 0.0
C1052 C 0.21021 0.47555 0.18412 0.0
C1053 C 0.23876 0.47156 0.13956 0.0
C1054 C 0.20544 0.44426 0.18285 0.0
C1055 C 0.21736 0.42666 0.1604 0.0
H1056 H 0.32481 0.50371 0.84937 0.0
H1057 H 0.38678 0.43492 0.8382 0.0
H1058 H 0.36946 0.41199 0.88283 0.0
H1059 H 0.33637 0.41155 0.92517 0.0
H1060 H 0.27445 0.48067 0.93511 0.0
H1061 H 0.2923 0.50342 0.89104 0.0
C1062 C 0.33454 0.48364 0.85657 0.0
C1063 C 0.35704 0.47105 0.84035 0.0
C1064 C 0.32457 0.47069 0.88222 0.0
C1065 C 0.36937 0.44506 0.85017 0.0
C1066 C 0.35952 0.43198 0.87576 0.0
C1067 C 0.32695 0.43169 0.91778 0.0
C1068 C 0.3041 0.44437 0.93354 0.0
C1069 C 0.33715 0.44464 0.89204 0.0
C1070 C 0.292 0.47037 0.92348 0.0
C1071 C 0.30217 0.48343 0.8982 0.0
H1072 H 0.27015 0.54777 0.61514 0.0
H1073 H 0.34747 0.58605 0.57417 0.0
H1074 H 0.3808 0.56641 0.61227 0.0
H1075 H 0.38782 0.5408 0.65859 0.0
H1076 H 0.31049 0.50566 0.70173 0.0
H1077 H 0.27725 0.52145 0.66124 0.0
C1078 C 0.29431 0.55157 0.61439 0.0
C1079 C 0.30634 0.5683 0.59183 0.0
C1080 C 0.31329 0.54084 0.63678 0.0
C1081 C 0.33766 0.57331 0.59134 0.0
C1082 C 0.35672 0.56208 0.6131 0.0
C1083 C 0.36371 0.53622 0.65897 0.0
C1084 C 0.35165 0.52194 0.6831 0.0
C1085 C 0.34476 0.54612 0.63611 0.0
C1086 C 0.32033 0.5166 0.68343 0.0
C1087 C 0.30133 0.52567 0.66032 0.0
H1088 H 0.17093 0.52211 0.36236 0.0
H1089 H 0.2307 0.57755 0.31347 0.0
H1090 H 0.25562 0.59951 0.3604 0.0
H1091 H 0.25772 0.60557 0.41525 0.0
H1092 H 0.19937 0.54856 0.46407 0.0
H1093 H 0.1767 0.52434 0.41717 0.0
C1094 C 0.18959 0.53882 0.36201 0.0
C1095 C 0.19876 0.5485 0.33458 0.0
C1096 C 0.20393 0.5511 0.389 0.0
C1097 C 0.22326 0.56978 0.33435 0.0
C1098 C 0.2374 0.58243 0.36115 0.0
C1099 C 0.2402 0.58767 0.41558 0.0
C1100 C 0.22993 0.57909 0.443 0.0
C1101 C 0.22751 0.57368 0.38859 0.0
C1102 C 0.2076 0.55555 0.44321 0.0
C1103 C 0.19455 0.5418 0.41642 0.0
loop_
_geom_bond_atom_site_label_1
_geom_bond_atom_site_label_2
_geom_bond_distance
_geom_bond_site_symmetry_2
_ccdc_geom_bond_type
O0 Cd1 2.223 . S
O0 C8 1.315 . S
Cd1 O0 2.223 . S
Cd1 O4 2.297 . S
Cd1 O5 2.439 . S
Cd1 O11 2.240 1_455 S
Cd2 O3 2.240 1_655 S
Cd2 O10 2.223 . S
Cd2 O12 2.297 . S
Cd2 O13 2.439 . S
O3 Cd2 2.240 1_455 S
O3 C8 1.279 . S
O4 Cd1 2.297 . S
O4 C6 1.247 . S
O5 Cd1 2.439 . S
O5 C6 1.208 . S
C6 O4 1.247 . S
C6 O5 1.208 . S
C7 O12 1.247 . S
C7 O13 1.208 . S
C8 O0 1.315 . S
C8 O3 1.279 . S
C9 O10 1.315 . S
C9 O11 1.279 . S
O10 Cd2 2.223 . S
O10 C9 1.315 . S
O11 Cd1 2.240 1_655 S
O11 C9 1.279 . S
O12 Cd2 2.297 . S
O12 C7 1.247 . S
O13 Cd2 2.439 . S
O13 C7 1.208 . S
O14 Cd15 2.223 . S
O14 C22 1.315 . S
Cd15 O14 2.223 . S
Cd15 O18 2.297 . S
Cd15 O19 2.439 1_455 S
Cd15 O25 2.240 . S
Cd16 O17 2.240 . S
Cd16 O24 2.223 . S
Cd16 O26 2.297 1_455 S
Cd16 O27 2.439 1_455 S
O17 Cd16 2.240 . S
O17 C22 1.279 . S
O18 Cd15 2.297 . S
O18 C20 1.247 1_455 S
O19 Cd15 2.439 1_655 S
O19 C20 1.208 . S
C20 O18 1.247 1_655 S
C20 O19 1.208 . S
C21 O26 1.247 . S
C21 O27 1.208 . S
C22 O14 1.315 . S
C22 O17 1.279 . S
C23 O24 1.315 . S
C23 O25 1.279 . S
O24 Cd16 2.223 . S
O24 C23 1.315 . S
O25 Cd15 2.240 . S
O25 C23 1.279 . S
O26 Cd16 2.297 1_655 S
O26 C21 1.247 . S
O27 Cd16 2.439 1_655 S
O27 C21 1.208 . S
O28 Cd29 2.223 . S
O28 C36 1.315 . S
Cd29 O28 2.223 . S
Cd29 O32 2.297 . S
Cd29 O33 2.439 . S
Cd29 O39 2.240 . S
Cd30 O31 2.240 . S
Cd30 O38 2.223 . S
Cd30 O40 2.297 . S
Cd30 O41 2.439 . S
O31 Cd30 2.240 . S
O31 C36 1.279 . S
O32 Cd29 2.297 . S
O32 C34 1.247 . S
O33 Cd29 2.439 . S
O33 C34 1.208 . S
C34 O32 1.247 . S
C34 O33 1.208 . S
C35 O40 1.247 . S
C35 O41 1.208 . S
C36 O28 1.315 . S
C36 O31 1.279 . S
C37 O38 1.315 . S
C37 O39 1.279 . S
O38 Cd30 2.223 . S
O38 C37 1.315 . S
O39 Cd29 2.240 . S
O39 C37 1.279 . S
O40 Cd30 2.297 . S
O40 C35 1.247 . S
O41 Cd30 2.439 . S
O41 C35 1.208 . S
O42 Cd43 2.223 . S
O42 C50 1.315 . S
Cd43 O42 2.223 . S
Cd43 O46 2.297 . S
Cd43 O47 2.439 . S
Cd43 O53 2.240 . S
Cd44 O45 2.240 . S
Cd44 O52 2.223 . S
Cd44 O54 2.297 . S
Cd44 O55 2.439 . S
O45 Cd44 2.240 . S
O45 C50 1.279 . S
O46 Cd43 2.297 . S
O46 C48 1.247 . S
O47 Cd43 2.439 . S
O47 C48 1.208 . S
C48 O46 1.247 . S
C48 O47 1.208 . S
C49 O54 1.247 . S
C49 O55 1.208 . S
C50 O42 1.315 . S
C50 O45 1.279 . S
C51 O52 1.315 . S
C51 O53 1.279 . S
O52 Cd44 2.223 . S
O52 C51 1.315 . S
O53 Cd43 2.240 . S
O53 C51 1.279 . S
O54 Cd44 2.297 . S
O54 C49 1.247 . S
O55 Cd44 2.439 . S
O55 C49 1.208 . S
O56 Cd57 2.223 . S
O56 C64 1.315 . S
Cd57 O56 2.223 . S
Cd57 O60 2.297 . S
Cd57 O61 2.439 . S
Cd57 O67 2.240 1_455 S
Cd58 O59 2.240 1_655 S
Cd58 O66 2.223 . S
Cd58 O68 2.297 . S
Cd58 O69 2.439 . S
O59 Cd58 2.240 1_455 S
O59 C64 1.279 . S
O60 Cd57 2.297 . S
O60 C62 1.247 . S
O61 Cd57 2.439 . S
O61 C62 1.208 . S
C62 O60 1.247 . S
C62 O61 1.208 . S
C63 O68 1.247 . S
C63 O69 1.208 . S
C64 O56 1.315 . S
C64 O59 1.279 . S
C65 O66 1.315 . S
C65 O67 1.279 . S
O66 Cd58 2.223 . S
O66 C65 1.315 . S
O67 Cd57 2.240 1_655 S
O67 C65 1.279 . S
O68 Cd58 2.297 . S
O68 C63 1.247 . S
O69 Cd58 2.439 . S
O69 C63 1.208 . S
O70 Cd71 2.223 . S
O70 C78 1.315 . S
Cd71 O70 2.223 . S
Cd71 O74 2.297 . S
Cd71 O75 2.439 . S
Cd71 O81 2.240 . S
Cd72 O73 2.240 . S
Cd72 O80 2.223 . S
Cd72 O82 2.297 . S
Cd72 O83 2.439 . S
O73 Cd72 2.240 . S
O73 C78 1.279 . S
O74 Cd71 2.297 . S
O74 C76 1.247 . S
O75 Cd71 2.439 . S
O75 C76 1.208 . S
C76 O74 1.247 . S
C76 O75 1.208 . S
C77 O82 1.247 . S
C77 O83 1.208 . S
C78 O70 1.315 . S
C78 O73 1.279 . S
C79 O80 1.315 . S
C79 O81 1.279 . S
O80 Cd72 2.223 . S
O80 C79 1.315 . S
O81 Cd71 2.240 . S
O81 C79 1.279 . S
O82 Cd72 2.297 . S
O82 C77 1.247 . S
O83 Cd72 2.439 . S
O83 C77 1.208 . S
O84 Cd85 2.223 . S
O84 C92 1.315 . S
Cd85 O84 2.223 . S
Cd85 O88 2.297 . S
Cd85 O89 2.439 . S
Cd85 O95 2.240 . S
Cd86 O87 2.240 . S
Cd86 O94 2.223 . S
Cd86 O96 2.297 . S
Cd86 O97 2.439 . S
O87 Cd86 2.240 . S
O87 C92 1.279 . S
O88 Cd85 2.297 . S
O88 C90 1.247 . S
O89 Cd85 2.439 . S
O89 C90 1.208 . S
C90 O88 1.247 . S
C90 O89 1.208 . S
C91 O96 1.247 . S
C91 O97 1.208 . S
C92 O84 1.315 . S
C92 O87 1.279 . S
C93 O94 1.315 . S
C93 O95 1.279 . S
O94 Cd86 2.223 . S
O94 C93 1.315 . S
O95 Cd85 2.240 . S
O95 C93 1.279 . S
O96 Cd86 2.297 . S
O96 C91 1.247 . S
O97 Cd86 2.439 . S
O97 C91 1.208 . S
O98 Cd99 2.223 . S
O98 C106 1.315 . S
Cd99 O98 2.223 . S
Cd99 O102 2.297 1_455 S
Cd99 O103 2.439 1_455 S
Cd99 O109 2.240 . S
Cd100 O101 2.240 . S
Cd100 O108 2.223 . S
Cd100 O110 2.297 . S
Cd100 O111 2.439 1_455 S
O101 Cd100 2.240 . S
O101 C106 1.279 . S
O102 Cd99 2.297 1_655 S
O102 C104 1.247 . S
O103 Cd99 2.439 1_655 S
O103 C104 1.208 . S
C104 O102 1.247 . S
C104 O103 1.208 . S
C105 O110 1.247 1_655 S
C105 O111 1.208 . S
C106 O98 1.315 . S
C106 O101 1.279 . S
C107 O108 1.315 . S
C107 O109 1.279 . S
O108 Cd100 2.223 . S
O108 C107 1.315 . S
O109 Cd99 2.240 . S
O109 C107 1.279 . S
O110 Cd100 2.297 . S
O110 C105 1.247 1_455 S
O111 Cd100 2.439 1_655 S
O111 C105 1.208 . S
O112 Cd113 2.223 . S
O112 C120 1.315 . S
Cd113 O112 2.223 . S
Cd113 O116 2.297 . S
Cd113 O117 2.439 . S
Cd113 O123 2.240 1_545 S
Cd114 O115 2.240 1_565 S
Cd114 O122 2.223 . S
Cd114 O124 2.297 . S
Cd114 O125 2.439 . S
O115 Cd114 2.240 1_545 S
O115 C120 1.279 . S
O116 Cd113 2.297 . S
O116 C118 1.247 . S
O117 Cd113 2.439 . S
O117 C118 1.208 . S
C118 O116 1.247 . S
C118 O117 1.208 . S
C119 O124 1.247 . S
C119 O125 1.208 . S
C120 O112 1.315 . S
C120 O115 1.279 . S
C121 O122 1.315 . S
C121 O123 1.279 . S
O122 Cd114 2.223 . S
O122 C121 1.315 . S
O123 Cd113 2.240 1_565 S
O123 C121 1.279 . S
O124 Cd114 2.297 . S
O124 C119 1.247 . S
O125 Cd114 2.439 . S
O125 C119 1.208 . S
O126 Cd127 2.223 . S
O126 C134 1.315 . S
Cd127 O126 2.223 . S
Cd127 O130 2.297 . S
Cd127 O131 2.439 . S
Cd127 O137 2.240 . S
Cd128 O129 2.240 . S
Cd128 O136 2.223 . S
Cd128 O138 2.297 . S
Cd128 O139 2.439 . S
O129 Cd128 2.240 . S
O129 C134 1.279 . S
O130 Cd127 2.297 . S
O130 C132 1.247 . S
O131 Cd127 2.439 . S
O131 C132 1.208 . S
C132 O130 1.247 . S
C132 O131 1.208 . S
C133 O138 1.247 . S
C133 O139 1.208 . S
C134 O126 1.315 . S
C134 O129 1.279 . S
C135 O136 1.315 . S
C135 O137 1.279 . S
O136 Cd128 2.223 . S
O136 C135 1.315 . S
O137 Cd127 2.240 . S
O137 C135 1.279 . S
O138 Cd128 2.297 . S
O138 C133 1.247 . S
O139 Cd128 2.439 . S
O139 C133 1.208 . S
O140 Cd141 2.223 . S
O140 C148 1.315 . S
Cd141 O140 2.223 . S
Cd141 O144 2.297 . S
Cd141 O145 2.439 . S
Cd141 O151 2.240 1_545 S
Cd142 O143 2.240 1_565 S
Cd142 O150 2.223 . S
Cd142 O152 2.297 . S
Cd142 O153 2.439 . S
O143 Cd142 2.240 1_545 S
O143 C148 1.279 . S
O144 Cd141 2.297 . S
O144 C146 1.247 . S
O145 Cd141 2.439 . S
O145 C146 1.208 . S
C146 O144 1.247 . S
C146 O145 1.208 . S
C147 O152 1.247 . S
C147 O153 1.208 . S
C148 O140 1.315 . S
C148 O143 1.279 . S
C149 O150 1.315 . S
C149 O151 1.279 . S
O150 Cd142 2.223 . S
O150 C149 1.315 . S
O151 Cd141 2.240 1_565 S
O151 C149 1.279 . S
O152 Cd142 2.297 . S
O152 C147 1.247 . S
O153 Cd142 2.439 . S
O153 C147 1.208 . S
O154 Cd155 2.223 . S
O154 C162 1.315 . S
Cd155 O154 2.223 . S
Cd155 O158 2.297 1_554 S
Cd155 O159 2.439 1_554 S
Cd155 O165 2.240 . S
Cd156 O157 2.240 . S
Cd156 O164 2.223 . S
Cd156 O166 2.297 . S
Cd156 O167 2.439 1_554 S
O157 Cd156 2.240 . S
O157 C162 1.279 . S
O158 Cd155 2.297 1_556 S
O158 C160 1.247 . S
O159 Cd155 2.439 1_556 S
O159 C160 1.208 . S
C160 O158 1.247 . S
C160 O159 1.208 . S
C161 O166 1.247 1_556 S
C161 O167 1.208 . S
C162 O154 1.315 . S
C162 O157 1.279 . S
C163 O164 1.315 . S
C163 O165 1.279 . S
O164 Cd156 2.223 . S
O164 C163 1.315 . S
O165 Cd155 2.240 . S
O165 C163 1.279 . S
O166 Cd156 2.297 . S
O166 C161 1.247 1_554 S
O167 Cd156 2.439 1_556 S
O167 C161 1.208 . S
O168 Cd169 2.223 . S
O168 C176 1.315 . S
Cd169 O168 2.223 . S
Cd169 O172 2.297 . S
Cd169 O173 2.439 . S
Cd169 O179 2.240 1_554 S
Cd170 O171 2.240 1_556 S
Cd170 O178 2.223 . S
Cd170 O180 2.297 . S
Cd170 O181 2.439 . S
O171 Cd170 2.240 1_554 S
O171 C176 1.279 . S
O172 Cd169 2.297 . S
O172 C174 1.247 . S
O173 Cd169 2.439 . S
O173 C174 1.208 . S
C174 O172 1.247 . S
C174 O173 1.208 . S
C175 O180 1.247 . S
C175 O181 1.208 . S
C176 O168 1.315 . S
C176 O171 1.279 . S
C177 O178 1.315 . S
C177 O179 1.279 . S
O178 Cd170 2.223 . S
O178 C177 1.315 . S
O179 Cd169 2.240 1_556 S
O179 C177 1.279 . S
O180 Cd170 2.297 . S
O180 C175 1.247 . S
O181 Cd170 2.439 . S
O181 C175 1.208 . S
O182 Cd183 2.223 . S
O182 C190 1.315 . S
Cd183 O182 2.223 . S
Cd183 O186 2.297 . S
Cd183 O187 2.439 . S
Cd183 O193 2.240 1_554 S
Cd184 O185 2.240 1_556 S
Cd184 O192 2.223 . S
Cd184 O194 2.297 . S
Cd184 O195 2.439 . S
O185 Cd184 2.240 1_554 S
O185 C190 1.279 . S
O186 Cd183 2.297 . S
O186 C188 1.247 . S
O187 Cd183 2.439 . S
O187 C188 1.208 . S
C188 O186 1.247 . S
C188 O187 1.208 . S
C189 O194 1.247 . S
C189 O195 1.208 . S
C190 O182 1.315 . S
C190 O185 1.279 . S
C191 O192 1.315 . S
C191 O193 1.279 . S
O192 Cd184 2.223 . S
O192 C191 1.315 . S
O193 Cd183 2.240 1_556 S
O193 C191 1.279 . S
O194 Cd184 2.297 . S
O194 C189 1.247 . S
O195 Cd184 2.439 . S
O195 C189 1.208 . S
O196 Cd197 2.223 . S
O196 C204 1.315 . S
Cd197 O196 2.223 . S
Cd197 O200 2.297 . S
Cd197 O201 2.439 . S
Cd197 O207 2.240 . S
Cd198 O199 2.240 . S
Cd198 O206 2.223 . S
Cd198 O208 2.297 . S
Cd198 O209 2.439 . S
O199 Cd198 2.240 . S
O199 C204 1.279 . S
O200 Cd197 2.297 . S
O200 C202 1.247 . S
O201 Cd197 2.439 . S
O201 C202 1.208 . S
C202 O200 1.247 . S
C202 O201 1.208 . S
C203 O208 1.247 . S
C203 O209 1.208 . S
C204 O196 1.315 . S
C204 O199 1.279 . S
C205 O206 1.315 . S
C205 O207 1.279 . S
O206 Cd198 2.223 . S
O206 C205 1.315 . S
O207 Cd197 2.240 . S
O207 C205 1.279 . S
O208 Cd198 2.297 . S
O208 C203 1.247 . S
O209 Cd198 2.439 . S
O209 C203 1.208 . S
O210 Cd211 2.223 . S
O210 C218 1.315 . S
Cd211 O210 2.223 . S
Cd211 O214 2.297 . S
Cd211 O215 2.439 . S
Cd211 O221 2.240 . S
Cd212 O213 2.240 . S
Cd212 O220 2.223 . S
Cd212 O222 2.297 . S
Cd212 O223 2.439 . S
O213 Cd212 2.240 . S
O213 C218 1.279 . S
O214 Cd211 2.297 . S
O214 C216 1.247 . S
O215 Cd211 2.439 . S
O215 C216 1.208 . S
C216 O214 1.247 . S
C216 O215 1.208 . S
C217 O222 1.247 . S
C217 O223 1.208 . S
C218 O210 1.315 . S
C218 O213 1.279 . S
C219 O220 1.315 . S
C219 O221 1.279 . S
O220 Cd212 2.223 . S
O220 C219 1.315 . S
O221 Cd211 2.240 . S
O221 C219 1.279 . S
O222 Cd212 2.297 . S
O222 C217 1.247 . S
O223 Cd212 2.439 . S
O223 C217 1.208 . S
O224 Cd225 2.223 . S
O224 C232 1.315 . S
Cd225 O224 2.223 . S
Cd225 O228 2.297 1_545 S
Cd225 O229 2.439 1_545 S
Cd225 O235 2.240 . S
Cd226 O227 2.240 . S
Cd226 O234 2.223 . S
Cd226 O236 2.297 . S
Cd226 O237 2.439 1_545 S
O227 Cd226 2.240 . S
O227 C232 1.279 . S
O228 Cd225 2.297 1_565 S
O228 C230 1.247 . S
O229 Cd225 2.439 1_565 S
O229 C230 1.208 . S
C230 O228 1.247 . S
C230 O229 1.208 . S
C231 O236 1.247 1_565 S
C231 O237 1.208 . S
C232 O224 1.315 . S
C232 O227 1.279 . S
C233 O234 1.315 . S
C233 O235 1.279 . S
O234 Cd226 2.223 . S
O234 C233 1.315 . S
O235 Cd225 2.240 . S
O235 C233 1.279 . S
O236 Cd226 2.297 . S
O236 C231 1.247 1_545 S
O237 Cd226 2.439 1_565 S
O237 C231 1.208 . S
O238 Cd239 2.223 . S
O238 C246 1.315 . S
Cd239 O238 2.223 . S
Cd239 O242 2.297 . S
Cd239 O243 2.439 . S
Cd239 O249 2.240 . S
Cd240 O241 2.240 . S
Cd240 O248 2.223 . S
Cd240 O250 2.297 . S
Cd240 O251 2.439 . S
O241 Cd240 2.240 . S
O241 C246 1.279 . S
O242 Cd239 2.297 . S
O242 C244 1.247 . S
O243 Cd239 2.439 . S
O243 C244 1.208 . S
C244 O242 1.247 . S
C244 O243 1.208 . S
C245 O250 1.247 . S
C245 O251 1.208 . S
C246 O238 1.315 . S
C246 O241 1.279 . S
C247 O248 1.315 . S
C247 O249 1.279 . S
O248 Cd240 2.223 . S
O248 C247 1.315 . S
O249 Cd239 2.240 . S
O249 C247 1.279 . S
O250 Cd240 2.297 . S
O250 C245 1.247 . S
O251 Cd240 2.439 . S
O251 C245 1.208 . S
O252 Cd253 2.223 . S
O252 C260 1.315 . S
Cd253 O252 2.223 . S
Cd253 O256 2.297 . S
Cd253 O257 2.439 . S
Cd253 O263 2.240 . S
Cd254 O255 2.240 . S
Cd254 O262 2.223 . S
Cd254 O264 2.297 . S
Cd254 O265 2.439 . S
O255 Cd254 2.240 . S
O255 C260 1.279 . S
O256 Cd253 2.297 . S
O256 C258 1.247 . S
O257 Cd253 2.439 . S
O257 C258 1.208 . S
C258 O256 1.247 . S
C258 O257 1.208 . S
C259 O264 1.247 . S
C259 O265 1.208 . S
C260 O252 1.315 . S
C260 O255 1.279 . S
C261 O262 1.315 . S
C261 O263 1.279 . S
O262 Cd254 2.223 . S
O262 C261 1.315 . S
O263 Cd253 2.240 . S
O263 C261 1.279 . S
O264 Cd254 2.297 . S
O264 C259 1.247 . S
O265 Cd254 2.439 . S
O265 C259 1.208 . S
O266 Cd267 2.223 . S
O266 C274 1.315 . S
Cd267 O266 2.223 . S
Cd267 O270 2.297 . S
Cd267 O271 2.439 1_545 S
Cd267 O277 2.240 . S
Cd268 O269 2.240 . S
Cd268 O276 2.223 . S
Cd268 O278 2.297 1_545 S
Cd268 O279 2.439 1_545 S
O269 Cd268 2.240 . S
O269 C274 1.279 . S
O270 Cd267 2.297 . S
O270 C272 1.247 1_545 S
O271 Cd267 2.439 1_565 S
O271 C272 1.208 . S
C272 O270 1.247 1_565 S
C272 O271 1.208 . S
C273 O278 1.247 . S
C273 O279 1.208 . S
C274 O266 1.315 . S
C274 O269 1.279 . S
C275 O276 1.315 . S
C275 O277 1.279 . S
O276 Cd268 2.223 . S
O276 C275 1.315 . S
O277 Cd267 2.240 . S
O277 C275 1.279 . S
O278 Cd268 2.297 1_565 S
O278 C273 1.247 . S
O279 Cd268 2.439 1_565 S
O279 C273 1.208 . S
O280 Cd281 2.223 . S
O280 C288 1.315 . S
Cd281 O280 2.223 . S
Cd281 O284 2.297 . S
Cd281 O285 2.439 1_554 S
Cd281 O291 2.240 . S
Cd282 O283 2.240 . S
Cd282 O290 2.223 . S
Cd282 O292 2.297 1_554 S
Cd282 O293 2.439 1_554 S
O283 Cd282 2.240 . S
O283 C288 1.279 . S
O284 Cd281 2.297 . S
O284 C286 1.247 1_554 S
O285 Cd281 2.439 1_556 S
O285 C286 1.208 . S
C286 O284 1.247 1_556 S
C286 O285 1.208 . S
C287 O292 1.247 . S
C287 O293 1.208 . S
C288 O280 1.315 . S
C288 O283 1.279 . S
C289 O290 1.315 . S
C289 O291 1.279 . S
O290 Cd282 2.223 . S
O290 C289 1.315 . S
O291 Cd281 2.240 . S
O291 C289 1.279 . S
O292 Cd282 2.297 1_556 S
O292 C287 1.247 . S
O293 Cd282 2.439 1_556 S
O293 C287 1.208 . S
O294 Cd295 2.223 . S
O294 C302 1.315 . S
Cd295 O294 2.223 . S
Cd295 O298 2.297 . S
Cd295 O299 2.439 . S
Cd295 O305 2.240 . S
Cd296 O297 2.240 . S
Cd296 O304 2.223 . S
Cd296 O306 2.297 . S
Cd296 O307 2.439 . S
O297 Cd296 2.240 . S
O297 C302 1.279 . S
O298 Cd295 2.297 . S
O298 C300 1.247 . S
O299 Cd295 2.439 . S
O299 C300 1.208 . S
C300 O298 1.247 . S
C300 O299 1.208 . S
C301 O306 1.247 . S
C301 O307 1.208 . S
C302 O294 1.315 . S
C302 O297 1.279 . S
C303 O304 1.315 . S
C303 O305 1.279 . S
O304 Cd296 2.223 . S
O304 C303 1.315 . S
O305 Cd295 2.240 . S
O305 C303 1.279 . S
O306 Cd296 2.297 . S
O306 C301 1.247 . S
O307 Cd296 2.439 . S
O307 C301 1.208 . S
O308 Cd309 2.223 . S
O308 C316 1.315 . S
Cd309 O308 2.223 . S
Cd309 O312 2.297 . S
Cd309 O313 2.439 . S
Cd309 O319 2.240 . S
Cd310 O311 2.240 . S
Cd310 O318 2.223 . S
Cd310 O320 2.297 . S
Cd310 O321 2.439 . S
O311 Cd310 2.240 . S
O311 C316 1.279 . S
O312 Cd309 2.297 . S
O312 C314 1.247 . S
O313 Cd309 2.439 . S
O313 C314 1.208 . S
C314 O312 1.247 . S
C314 O313 1.208 . S
C315 O320 1.247 . S
C315 O321 1.208 . S
C316 O308 1.315 . S
C316 O311 1.279 . S
C317 O318 1.315 . S
C317 O319 1.279 . S
O318 Cd310 2.223 . S
O318 C317 1.315 . S
O319 Cd309 2.240 . S
O319 C317 1.279 . S
O320 Cd310 2.297 . S
O320 C315 1.247 . S
O321 Cd310 2.439 . S
O321 C315 1.208 . S
O322 Cd323 2.223 . S
O322 C330 1.315 . S
Cd323 O322 2.223 . S
Cd323 O326 2.297 . S
Cd323 O327 2.439 . S
Cd323 O333 2.240 . S
Cd324 O325 2.240 . S
Cd324 O332 2.223 . S
Cd324 O334 2.297 . S
Cd324 O335 2.439 . S
O325 Cd324 2.240 . S
O325 C330 1.279 . S
O326 Cd323 2.297 . S
O326 C328 1.247 . S
O327 Cd323 2.439 . S
O327 C328 1.208 . S
C328 O326 1.247 . S
C328 O327 1.208 . S
C329 O334 1.247 . S
C329 O335 1.208 . S
C330 O322 1.315 . S
C330 O325 1.279 . S
C331 O332 1.315 . S
C331 O333 1.279 . S
O332 Cd324 2.223 . S
O332 C331 1.315 . S
O333 Cd323 2.240 . S
O333 C331 1.279 . S
O334 Cd324 2.297 . S
O334 C329 1.247 . S
O335 Cd324 2.439 . S
O335 C329 1.208 . S
H336 C342 0.930 . S
H337 C345 0.930 . S
H338 C346 0.930 . S
H339 C347 0.930 . S
H340 C350 0.930 . S
H341 C351 0.930 . S
C342 H336 0.930 . S
C342 C343 1.355 . S
C342 C344 1.415 . S
C343 C342 1.355 . S
C343 C345 1.419 . S
C344 C342 1.415 . S
C344 C349 1.425 . S
C344 C351 1.409 . S
C345 H337 0.930 . S
C345 C343 1.419 . S
C345 C346 1.362 . S
C346 H338 0.930 . S
C346 C345 1.362 . S
C346 C349 1.409 . S
C347 H339 0.930 . S
C347 C348 1.355 . S
C347 C349 1.415 . S
C348 C347 1.355 . S
C348 C350 1.419 . S
C349 C344 1.425 . S
C349 C346 1.409 . S
C349 C347 1.415 . S
C350 H340 0.930 . S
C350 C348 1.419 . S
C350 C351 1.362 . S
C351 H341 0.930 . S
C351 C344 1.409 . S
C351 C350 1.362 . S
H352 C358 0.930 . S
H353 C361 0.930 . S
H354 C362 0.930 . S
H355 C363 0.930 . S
H356 C366 0.930 . S
H357 C367 0.930 . S
C358 H352 0.930 . S
C358 C359 1.355 . S
C358 C360 1.415 . S
C359 C358 1.355 . S
C359 C361 1.419 . S
C360 C358 1.415 . S
C360 C365 1.425 . S
C360 C367 1.409 . S
C361 H353 0.930 . S
C361 C359 1.419 . S
C361 C362 1.362 . S
C362 H354 0.930 . S
C362 C361 1.362 . S
C362 C365 1.409 . S
C363 H355 0.930 . S
C363 C364 1.355 . S
C363 C365 1.415 . S
C364 C363 1.355 . S
C364 C366 1.419 . S
C365 C360 1.425 . S
C365 C362 1.409 . S
C365 C363 1.415 . S
C366 H356 0.930 . S
C366 C364 1.419 . S
C366 C367 1.362 . S
C367 H357 0.930 . S
C367 C360 1.409 . S
C367 C366 1.362 . S
H368 C374 0.930 . S
H369 C377 0.930 . S
H370 C378 0.930 . S
H371 C379 0.930 . S
H372 C382 0.930 . S
H373 C383 0.930 . S
C374 H368 0.930 . S
C374 C375 1.355 . S
C374 C376 1.415 . S
C375 C374 1.355 . S
C375 C377 1.419 . S
C376 C374 1.415 . S
C376 C381 1.425 . S
C376 C383 1.409 . S
C377 H369 0.930 . S
C377 C375 1.419 . S
C377 C378 1.362 . S
C378 H370 0.930 . S
C378 C377 1.362 . S
C378 C381 1.409 . S
C379 H371 0.930 . S
C379 C380 1.355 . S
C379 C381 1.415 . S
C380 C379 1.355 . S
C380 C382 1.419 . S
C381 C376 1.425 . S
C381 C378 1.409 . S
C381 C379 1.415 . S
C382 H372 0.930 . S
C382 C380 1.419 . S
C382 C383 1.362 . S
C383 H373 0.930 . S
C383 C376 1.409 . S
C383 C382 1.362 . S
H384 C390 0.930 . S
H385 C393 0.930 . S
H386 C394 0.930 . S
H387 C395 0.930 . S
H388 C398 0.930 . S
H389 C399 0.930 . S
C390 H384 0.930 . S
C390 C391 1.355 . S
C390 C392 1.415 . S
C391 C390 1.355 . S
C391 C393 1.419 . S
C392 C390 1.415 . S
C392 C397 1.425 . S
C392 C399 1.409 . S
C393 H385 0.930 . S
C393 C391 1.419 . S
C393 C394 1.362 . S
C394 H386 0.930 . S
C394 C393 1.362 . S
C394 C397 1.409 . S
C395 H387 0.930 . S
C395 C396 1.355 . S
C395 C397 1.415 . S
C396 C395 1.355 . S
C396 C398 1.419 . S
C397 C392 1.425 . S
C397 C394 1.409 . S
C397 C395 1.415 . S
C398 H388 0.930 . S
C398 C396 1.419 . S
C398 C399 1.362 . S
C399 H389 0.930 . S
C399 C392 1.409 . S
C399 C398 1.362 . S
H400 C406 0.930 . S
H401 C409 0.930 . S
H402 C410 0.930 . S
H403 C411 0.930 . S
H404 C414 0.930 . S
H405 C415 0.930 . S
C406 H400 0.930 . S
C406 C407 1.355 . S
C406 C408 1.415 . S
C407 C406 1.355 . S
C407 C409 1.419 . S
C408 C406 1.415 . S
C408 C413 1.425 . S
C408 C415 1.409 . S
C409 H401 0.930 . S
C409 C407 1.419 . S
C409 C410 1.362 . S
C410 H402 0.930 . S
C410 C409 1.362 . S
C410 C413 1.409 . S
C411 H403 0.930 . S
C411 C412 1.355 . S
C411 C413 1.415 . S
C412 C411 1.355 . S
C412 C414 1.419 . S
C413 C408 1.425 . S
C413 C410 1.409 . S
C413 C411 1.415 . S
C414 H404 0.930 . S
C414 C412 1.419 . S
C414 C415 1.362 . S
C415 H405 0.930 . S
C415 C408 1.409 . S
C415 C414 1.362 . S
H416 C422 0.930 . S
H417 C425 0.930 . S
H418 C426 0.930 . S
H419 C427 0.930 . S
H420 C430 0.930 . S
H421 C431 0.930 . S
C422 H416 0.930 . S
C422 C423 1.355 . S
C422 C424 1.415 . S
C423 C422 1.355 . S
C423 C425 1.419 . S
C424 C422 1.415 . S
C424 C429 1.425 . S
C424 C431 1.409 . S
C425 H417 0.930 . S
C425 C423 1.419 . S
C425 C426 1.362 . S
C426 H418 0.930 . S
C426 C425 1.362 . S
C426 C429 1.409 . S
C427 H419 0.930 . S
C427 C428 1.355 . S
C427 C429 1.415 . S
C428 C427 1.355 . S
C428 C430 1.419 . S
C429 C424 1.425 . S
C429 C426 1.409 . S
C429 C427 1.415 . S
C430 H420 0.930 . S
C430 C428 1.419 . S
C430 C431 1.362 . S
C431 H421 0.930 . S
C431 C424 1.409 . S
C431 C430 1.362 . S
H432 C438 0.930 . S
H433 C441 0.930 . S
H434 C442 0.930 . S
H435 C443 0.930 . S
H436 C446 0.930 . S
H437 C447 0.930 . S
C438 H432 0.930 . S
C438 C439 1.355 . S
C438 C440 1.415 . S
C439 C438 1.355 . S
C439 C441 1.419 . S
C440 C438 1.415 . S
C440 C445 1.425 . S
C440 C447 1.409 . S
C441 H433 0.930 . S
C441 C439 1.419 . S
C441 C442 1.362 . S
C442 H434 0.930 . S
C442 C441 1.362 . S
C442 C445 1.409 . S
C443 H435 0.930 . S
C443 C444 1.355 . S
C443 C445 1.415 . S
C444 C443 1.355 . S
C444 C446 1.419 . S
C445 C440 1.425 . S
C445 C442 1.409 . S
C445 C443 1.415 . S
C446 H436 0.930 . S
C446 C444 1.419 . S
C446 C447 1.362 . S
C447 H437 0.930 . S
C447 C440 1.409 . S
C447 C446 1.362 . S
H448 C454 0.930 . S
H449 C457 0.930 . S
H450 C458 0.930 . S
H451 C459 0.930 . S
H452 C462 0.930 . S
H453 C463 0.930 . S
C454 H448 0.930 . S
C454 C455 1.355 . S
C454 C456 1.415 . S
C455 C454 1.355 . S
C455 C457 1.419 . S
C456 C454 1.415 . S
C456 C461 1.425 . S
C456 C463 1.409 . S
C457 H449 0.930 . S
C457 C455 1.419 . S
C457 C458 1.362 . S
C458 H450 0.930 . S
C458 C457 1.362 . S
C458 C461 1.409 . S
C459 H451 0.930 . S
C459 C460 1.355 . S
C459 C461 1.415 . S
C460 C459 1.355 . S
C460 C462 1.419 . S
C461 C456 1.425 . S
C461 C458 1.409 . S
C461 C459 1.415 . S
C462 H452 0.930 . S
C462 C460 1.419 . S
C462 C463 1.362 . S
C463 H453 0.930 . S
C463 C456 1.409 . S
C463 C462 1.362 . S
H464 C470 0.930 . S
H465 C473 0.930 . S
H466 C474 0.930 . S
H467 C475 0.930 . S
H468 C478 0.930 . S
H469 C479 0.930 . S
C470 H464 0.930 . S
C470 C471 1.355 . S
C470 C472 1.415 . S
C471 C470 1.355 . S
C471 C473 1.419 . S
C472 C470 1.415 . S
C472 C477 1.425 . S
C472 C479 1.409 . S
C473 H465 0.930 . S
C473 C471 1.419 . S
C473 C474 1.362 . S
C474 H466 0.930 . S
C474 C473 1.362 . S
C474 C477 1.409 . S
C475 H467 0.930 . S
C475 C476 1.355 . S
C475 C477 1.415 . S
C476 C475 1.355 . S
C476 C478 1.419 . S
C477 C472 1.425 . S
C477 C474 1.409 . S
C477 C475 1.415 . S
C478 H468 0.930 . S
C478 C476 1.419 . S
C478 C479 1.362 . S
C479 H469 0.930 . S
C479 C472 1.409 . S
C479 C478 1.362 . S
H480 C486 0.930 . S
H481 C489 0.930 . S
H482 C490 0.930 . S
H483 C491 0.930 . S
H484 C494 0.930 . S
H485 C495 0.930 . S
C486 H480 0.930 . S
C486 C487 1.355 . S
C486 C488 1.415 . S
C487 C486 1.355 . S
C487 C489 1.419 . S
C488 C486 1.415 . S
C488 C493 1.425 . S
C488 C495 1.409 . S
C489 H481 0.930 . S
C489 C487 1.419 . S
C489 C490 1.362 . S
C490 H482 0.930 . S
C490 C489 1.362 . S
C490 C493 1.409 . S
C491 H483 0.930 . S
C491 C492 1.355 . S
C491 C493 1.415 . S
C492 C491 1.355 . S
C492 C494 1.419 . S
C493 C488 1.425 . S
C493 C490 1.409 . S
C493 C491 1.415 . S
C494 H484 0.930 . S
C494 C492 1.419 . S
C494 C495 1.362 . S
C495 H485 0.930 . S
C495 C488 1.409 . S
C495 C494 1.362 . S
H496 C502 0.930 . S
H497 C505 0.930 1_545 S
H498 C506 0.930 . S
H499 C507 0.930 . S
H500 C510 0.930 . S
H501 C511 0.930 . S
C502 H496 0.930 . S
C502 C503 1.355 . S
C502 C504 1.415 . S
C503 C502 1.355 . S
C503 C505 1.419 . S
C504 C502 1.415 . S
C504 C509 1.425 . S
C504 C511 1.409 . S
C505 H497 0.930 1_565 S
C505 C503 1.419 . S
C505 C506 1.362 . S
C506 H498 0.930 . S
C506 C505 1.362 . S
C506 C509 1.409 . S
C507 H499 0.930 . S
C507 C508 1.355 . S
C507 C509 1.415 . S
C508 C507 1.355 . S
C508 C510 1.419 . S
C509 C504 1.425 . S
C509 C506 1.409 . S
C509 C507 1.415 . S
C510 H500 0.930 . S
C510 C508 1.419 . S
C510 C511 1.362 . S
C511 H501 0.930 . S
C511 C504 1.409 . S
C511 C510 1.362 . S
H512 C518 0.930 . S
H513 C521 0.930 . S
H514 C522 0.930 . S
H515 C523 0.930 . S
H516 C526 0.930 . S
H517 C527 0.930 . S
C518 H512 0.930 . S
C518 C519 1.355 . S
C518 C520 1.415 . S
C519 C518 1.355 . S
C519 C521 1.419 . S
C520 C518 1.415 . S
C520 C525 1.425 . S
C520 C527 1.409 . S
C521 H513 0.930 . S
C521 C519 1.419 . S
C521 C522 1.362 . S
C522 H514 0.930 . S
C522 C521 1.362 . S
C522 C525 1.409 . S
C523 H515 0.930 . S
C523 C524 1.355 . S
C523 C525 1.415 . S
C524 C523 1.355 . S
C524 C526 1.419 . S
C525 C520 1.425 . S
C525 C522 1.409 . S
C525 C523 1.415 . S
C526 H516 0.930 . S
C526 C524 1.419 . S
C526 C527 1.362 . S
C527 H517 0.930 . S
C527 C520 1.409 . S
C527 C526 1.362 . S
H528 C534 0.930 . S
H529 C537 0.930 . S
H530 C538 0.930 . S
H531 C539 0.930 . S
H532 C542 0.930 . S
H533 C543 0.930 . S
C534 H528 0.930 . S
C534 C535 1.355 . S
C534 C536 1.415 . S
C535 C534 1.355 . S
C535 C537 1.419 . S
C536 C534 1.415 . S
C536 C541 1.425 . S
C536 C543 1.409 . S
C537 H529 0.930 . S
C537 C535 1.419 . S
C537 C538 1.362 . S
C538 H530 0.930 . S
C538 C537 1.362 . S
C538 C541 1.409 . S
C539 H531 0.930 . S
C539 C540 1.355 . S
C539 C541 1.415 . S
C540 C539 1.355 . S
C540 C542 1.419 . S
C541 C536 1.425 . S
C541 C538 1.409 . S
C541 C539 1.415 . S
C542 H532 0.930 . S
C542 C540 1.419 . S
C542 C543 1.362 . S
C543 H533 0.930 . S
C543 C536 1.409 . S
C543 C542 1.362 . S
H544 C550 0.930 . S
H545 C553 0.930 . S
H546 C554 0.930 . S
H547 C555 0.930 . S
H548 C558 0.930 . S
H549 C559 0.930 . S
C550 H544 0.930 . S
C550 C551 1.355 . S
C550 C552 1.415 . S
C551 C550 1.355 . S
C551 C553 1.419 . S
C552 C550 1.415 . S
C552 C557 1.425 . S
C552 C559 1.409 . S
C553 H545 0.930 . S
C553 C551 1.419 . S
C553 C554 1.362 . S
C554 H546 0.930 . S
C554 C553 1.362 . S
C554 C557 1.409 . S
C555 H547 0.930 . S
C555 C556 1.355 . S
C555 C557 1.415 . S
C556 C555 1.355 . S
C556 C558 1.419 . S
C557 C552 1.425 . S
C557 C554 1.409 . S
C557 C555 1.415 . S
C558 H548 0.930 . S
C558 C556 1.419 . S
C558 C559 1.362 . S
C559 H549 0.930 . S
C559 C552 1.409 . S
C559 C558 1.362 . S
H560 C566 0.930 . S
H561 C569 0.930 . S
H562 C570 0.930 . S
H563 C571 0.930 . S
H564 C574 0.930 . S
H565 C575 0.930 . S
C566 H560 0.930 . S
C566 C567 1.355 . S
C566 C568 1.415 . S
C567 C566 1.355 . S
C567 C569 1.419 . S
C568 C566 1.415 . S
C568 C573 1.425 . S
C568 C575 1.409 . S
C569 H561 0.930 . S
C569 C567 1.419 . S
C569 C570 1.362 . S
C570 H562 0.930 . S
C570 C569 1.362 . S
C570 C573 1.409 . S
C571 H563 0.930 . S
C571 C572 1.355 . S
C571 C573 1.415 . S
C572 C571 1.355 . S
C572 C574 1.419 . S
C573 C568 1.425 . S
C573 C570 1.409 . S
C573 C571 1.415 . S
C574 H564 0.930 . S
C574 C572 1.419 . S
C574 C575 1.362 . S
C575 H565 0.930 . S
C575 C568 1.409 . S
C575 C574 1.362 . S
H576 C582 0.930 . S
H577 C585 0.930 1_455 S
H578 C586 0.930 1_455 S
H579 C587 0.930 . S
H580 C590 0.930 . S
H581 C591 0.930 . S
C582 H576 0.930 . S
C582 C583 1.355 . S
C582 C584 1.415 . S
C583 C582 1.355 . S
C583 C585 1.419 . S
C584 C582 1.415 . S
C584 C589 1.425 . S
C584 C591 1.409 . S
C585 H577 0.930 1_655 S
C585 C583 1.419 . S
C585 C586 1.362 . S
C586 H578 0.930 1_655 S
C586 C585 1.362 . S
C586 C589 1.409 . S
C587 H579 0.930 . S
C587 C588 1.355 . S
C587 C589 1.415 . S
C588 C587 1.355 . S
C588 C590 1.419 . S
C589 C584 1.425 . S
C589 C586 1.409 . S
C589 C587 1.415 . S
C590 H580 0.930 . S
C590 C588 1.419 . S
C590 C591 1.362 . S
C591 H581 0.930 . S
C591 C584 1.409 . S
C591 C590 1.362 . S
H592 C598 0.930 . S
H593 C601 0.930 . S
H594 C602 0.930 . S
H595 C603 0.930 . S
H596 C606 0.930 . S
H597 C607 0.930 . S
C598 H592 0.930 . S
C598 C599 1.355 . S
C598 C600 1.415 . S
C599 C598 1.355 . S
C599 C601 1.419 . S
C600 C598 1.415 . S
C600 C605 1.425 . S
C600 C607 1.409 . S
C601 H593 0.930 . S
C601 C599 1.419 . S
C601 C602 1.362 . S
C602 H594 0.930 . S
C602 C601 1.362 . S
C602 C605 1.409 . S
C603 H595 0.930 . S
C603 C604 1.355 . S
C603 C605 1.415 . S
C604 C603 1.355 . S
C604 C606 1.419 . S
C605 C600 1.425 . S
C605 C602 1.409 . S
C605 C603 1.415 . S
C606 H596 0.930 . S
C606 C604 1.419 . S
C606 C607 1.362 . S
C607 H597 0.930 . S
C607 C600 1.409 . S
C607 C606 1.362 . S
H608 C614 0.930 . S
H609 C617 0.930 . S
H610 C618 0.930 . S
H611 C619 0.930 . S
H612 C622 0.930 . S
H613 C623 0.930 . S
C614 H608 0.930 . S
C614 C615 1.355 . S
C614 C616 1.415 . S
C615 C614 1.355 . S
C615 C617 1.419 . S
C616 C614 1.415 . S
C616 C621 1.425 . S
C616 C623 1.409 . S
C617 H609 0.930 . S
C617 C615 1.419 . S
C617 C618 1.362 . S
C618 H610 0.930 . S
C618 C617 1.362 . S
C618 C621 1.409 . S
C619 H611 0.930 . S
C619 C620 1.355 . S
C619 C621 1.415 . S
C620 C619 1.355 . S
C620 C622 1.419 . S
C621 C616 1.425 . S
C621 C618 1.409 . S
C621 C619 1.415 . S
C622 H612 0.930 . S
C622 C620 1.419 . S
C622 C623 1.362 . S
C623 H613 0.930 . S
C623 C616 1.409 . S
C623 C622 1.362 . S
H624 C630 0.930 . S
H625 C633 0.930 1_554 S
H626 C634 0.930 . S
H627 C635 0.930 . S
H628 C638 0.930 . S
H629 C639 0.930 . S
C630 H624 0.930 . S
C630 C631 1.355 . S
C630 C632 1.415 . S
C631 C630 1.355 . S
C631 C633 1.419 . S
C632 C630 1.415 . S
C632 C637 1.425 . S
C632 C639 1.409 . S
C633 H625 0.930 1_556 S
C633 C631 1.419 . S
C633 C634 1.362 . S
C634 H626 0.930 . S
C634 C633 1.362 . S
C634 C637 1.409 . S
C635 H627 0.930 . S
C635 C636 1.355 . S
C635 C637 1.415 . S
C636 C635 1.355 . S
C636 C638 1.419 . S
C637 C632 1.425 . S
C637 C634 1.409 . S
C637 C635 1.415 . S
C638 H628 0.930 . S
C638 C636 1.419 . S
C638 C639 1.362 . S
C639 H629 0.930 . S
C639 C632 1.409 . S
C639 C638 1.362 . S
H640 C646 0.930 . S
H641 C649 0.930 . S
H642 C650 0.930 1_455 S
H643 C651 0.930 1_455 S
H644 C654 0.930 . S
H645 C655 0.930 . S
C646 H640 0.930 . S
C646 C647 1.355 . S
C646 C648 1.415 . S
C647 C646 1.355 . S
C647 C649 1.419 . S
C648 C646 1.415 . S
C648 C653 1.425 . S
C648 C655 1.409 . S
C649 H641 0.930 . S
C649 C647 1.419 . S
C649 C650 1.362 . S
C650 H642 0.930 1_655 S
C650 C649 1.362 . S
C650 C653 1.409 . S
C651 H643 0.930 1_655 S
C651 C652 1.355 . S
C651 C653 1.415 . S
C652 C651 1.355 . S
C652 C654 1.419 . S
C653 C648 1.425 . S
C653 C650 1.409 . S
C653 C651 1.415 . S
C654 H644 0.930 . S
C654 C652 1.419 . S
C654 C655 1.362 . S
C655 H645 0.930 . S
C655 C648 1.409 . S
C655 C654 1.362 . S
H656 C662 0.930 . S
H657 C665 0.930 . S
H658 C666 0.930 . S
H659 C667 0.930 . S
H660 C670 0.930 . S
H661 C671 0.930 . S
C662 H656 0.930 . S
C662 C663 1.355 . S
C662 C664 1.415 . S
C663 C662 1.355 . S
C663 C665 1.419 . S
C664 C662 1.415 . S
C664 C669 1.425 . S
C664 C671 1.409 . S
C665 H657 0.930 . S
C665 C663 1.419 . S
C665 C666 1.362 . S
C666 H658 0.930 . S
C666 C665 1.362 . S
C666 C669 1.409 . S
C667 H659 0.930 . S
C667 C668 1.355 . S
C667 C669 1.415 . S
C668 C667 1.355 . S
C668 C670 1.419 . S
C669 C664 1.425 . S
C669 C666 1.409 . S
C669 C667 1.415 . S
C670 H660 0.930 . S
C670 C668 1.419 . S
C670 C671 1.362 . S
C671 H661 0.930 . S
C671 C664 1.409 . S
C671 C670 1.362 . S
H672 C678 0.930 . S
H673 C681 0.930 . S
H674 C682 0.930 . S
H675 C683 0.930 . S
H676 C686 0.930 . S
H677 C687 0.930 . S
C678 H672 0.930 . S
C678 C679 1.355 . S
C678 C680 1.415 . S
C679 C678 1.355 . S
C679 C681 1.419 . S
C680 C678 1.415 . S
C680 C685 1.425 . S
C680 C687 1.409 . S
C681 H673 0.930 . S
C681 C679 1.419 . S
C681 C682 1.362 . S
C682 H674 0.930 . S
C682 C681 1.362 . S
C682 C685 1.409 . S
C683 H675 0.930 . S
C683 C684 1.355 . S
C683 C685 1.415 . S
C684 C683 1.355 . S
C684 C686 1.419 . S
C685 C680 1.425 . S
C685 C682 1.409 . S
C685 C683 1.415 . S
C686 H676 0.930 . S
C686 C684 1.419 . S
C686 C687 1.362 . S
C687 H677 0.930 . S
C687 C680 1.409 . S
C687 C686 1.362 . S
H688 C694 0.930 . S
H689 C697 0.930 . S
H690 C698 0.930 . S
H691 C699 0.930 . S
H692 C702 0.930 . S
H693 C703 0.930 . S
C694 H688 0.930 . S
C694 C695 1.355 . S
C694 C696 1.415 . S
C695 C694 1.355 . S
C695 C697 1.419 . S
C696 C694 1.415 . S
C696 C701 1.425 . S
C696 C703 1.409 . S
C697 H689 0.930 . S
C697 C695 1.419 . S
C697 C698 1.362 . S
C698 H690 0.930 . S
C698 C697 1.362 . S
C698 C701 1.409 . S
C699 H691 0.930 . S
C699 C700 1.355 . S
C699 C701 1.415 . S
C700 C699 1.355 . S
C700 C702 1.419 . S
C701 C696 1.425 . S
C701 C698 1.409 . S
C701 C699 1.415 . S
C702 H692 0.930 . S
C702 C700 1.419 . S
C702 C703 1.362 . S
C703 H693 0.930 . S
C703 C696 1.409 . S
C703 C702 1.362 . S
H704 C710 0.930 . S
H705 C713 0.930 . S
H706 C714 0.930 . S
H707 C715 0.930 1_545 S
H708 C718 0.930 . S
H709 C719 0.930 . S
C710 H704 0.930 . S
C710 C711 1.355 . S
C710 C712 1.415 . S
C711 C710 1.355 . S
C711 C713 1.419 . S
C712 C710 1.415 . S
C712 C717 1.425 . S
C712 C719 1.409 . S
C713 H705 0.930 . S
C713 C711 1.419 . S
C713 C714 1.362 . S
C714 H706 0.930 . S
C714 C713 1.362 . S
C714 C717 1.409 . S
C715 H707 0.930 1_565 S
C715 C716 1.355 . S
C715 C717 1.415 . S
C716 C715 1.355 . S
C716 C718 1.419 . S
C717 C712 1.425 . S
C717 C714 1.409 . S
C717 C715 1.415 . S
C718 H708 0.930 . S
C718 C716 1.419 . S
C718 C719 1.362 . S
C719 H709 0.930 . S
C719 C712 1.409 . S
C719 C718 1.362 . S
H720 C726 0.930 . S
H721 C729 0.930 1_545 S
H722 C730 0.930 . S
H723 C731 0.930 . S
H724 C734 0.930 . S
H725 C735 0.930 . S
C726 H720 0.930 . S
C726 C727 1.355 . S
C726 C728 1.415 . S
C727 C726 1.355 . S
C727 C729 1.419 . S
C728 C726 1.415 . S
C728 C733 1.425 . S
C728 C735 1.409 . S
C729 H721 0.930 1_565 S
C729 C727 1.419 . S
C729 C730 1.362 . S
C730 H722 0.930 . S
C730 C729 1.362 . S
C730 C733 1.409 . S
C731 H723 0.930 . S
C731 C732 1.355 . S
C731 C733 1.415 . S
C732 C731 1.355 . S
C732 C734 1.419 . S
C733 C728 1.425 . S
C733 C730 1.409 . S
C733 C731 1.415 . S
C734 H724 0.930 . S
C734 C732 1.419 . S
C734 C735 1.362 . S
C735 H725 0.930 . S
C735 C728 1.409 . S
C735 C734 1.362 . S
H736 C742 0.930 . S
H737 C745 0.930 . S
H738 C746 0.930 . S
H739 C747 0.930 . S
H740 C750 0.930 . S
H741 C751 0.930 . S
C742 H736 0.930 . S
C742 C743 1.355 . S
C742 C744 1.415 . S
C743 C742 1.355 . S
C743 C745 1.419 . S
C744 C742 1.415 . S
C744 C749 1.425 . S
C744 C751 1.409 . S
C745 H737 0.930 . S
C745 C743 1.419 . S
C745 C746 1.362 . S
C746 H738 0.930 . S
C746 C745 1.362 . S
C746 C749 1.409 . S
C747 H739 0.930 . S
C747 C748 1.355 . S
C747 C749 1.415 . S
C748 C747 1.355 . S
C748 C750 1.419 . S
C749 C744 1.425 . S
C749 C746 1.409 . S
C749 C747 1.415 . S
C750 H740 0.930 . S
C750 C748 1.419 . S
C750 C751 1.362 . S
C751 H741 0.930 . S
C751 C744 1.409 . S
C751 C750 1.362 . S
H752 C758 0.930 . S
H753 C761 0.930 . S
H754 C762 0.930 . S
H755 C763 0.930 . S
H756 C766 0.930 . S
H757 C767 0.930 . S
C758 H752 0.930 . S
C758 C759 1.355 . S
C758 C760 1.415 . S
C759 C758 1.355 . S
C759 C761 1.419 . S
C760 C758 1.415 . S
C760 C765 1.425 . S
C760 C767 1.409 . S
C761 H753 0.930 . S
C761 C759 1.419 . S
C761 C762 1.362 . S
C762 H754 0.930 . S
C762 C761 1.362 . S
C762 C765 1.409 . S
C763 H755 0.930 . S
C763 C764 1.355 . S
C763 C765 1.415 . S
C764 C763 1.355 . S
C764 C766 1.419 . S
C765 C760 1.425 . S
C765 C762 1.409 . S
C765 C763 1.415 . S
C766 H756 0.930 . S
C766 C764 1.419 . S
C766 C767 1.362 . S
C767 H757 0.930 . S
C767 C760 1.409 . S
C767 C766 1.362 . S
H768 C774 0.930 . S
H769 C777 0.930 . S
H770 C778 0.930 . S
H771 C779 0.930 . S
H772 C782 0.930 . S
H773 C783 0.930 . S
C774 H768 0.930 . S
C774 C775 1.355 . S
C774 C776 1.415 . S
C775 C774 1.355 . S
C775 C777 1.419 . S
C776 C774 1.415 . S
C776 C781 1.425 . S
C776 C783 1.409 . S
C777 H769 0.930 . S
C777 C775 1.419 . S
C777 C778 1.362 . S
C778 H770 0.930 . S
C778 C777 1.362 . S
C778 C781 1.409 . S
C779 H771 0.930 . S
C779 C780 1.355 . S
C779 C781 1.415 . S
C780 C779 1.355 . S
C780 C782 1.419 . S
C781 C776 1.425 . S
C781 C778 1.409 . S
C781 C779 1.415 . S
C782 H772 0.930 . S
C782 C780 1.419 . S
C782 C783 1.362 . S
C783 H773 0.930 . S
C783 C776 1.409 . S
C783 C782 1.362 . S
H784 C790 0.930 . S
H785 C793 0.930 . S
H786 C794 0.930 . S
H787 C795 0.930 . S
H788 C798 0.930 . S
H789 C799 0.930 . S
C790 H784 0.930 . S
C790 C791 1.355 . S
C790 C792 1.415 . S
C791 C790 1.355 . S
C791 C793 1.419 . S
C792 C790 1.415 . S
C792 C797 1.425 . S
C792 C799 1.409 . S
C793 H785 0.930 . S
C793 C791 1.419 . S
C793 C794 1.362 . S
C794 H786 0.930 . S
C794 C793 1.362 . S
C794 C797 1.409 . S
C795 H787 0.930 . S
C795 C796 1.355 . S
C795 C797 1.415 . S
C796 C795 1.355 . S
C796 C798 1.419 . S
C797 C792 1.425 . S
C797 C794 1.409 . S
C797 C795 1.415 . S
C798 H788 0.930 . S
C798 C796 1.419 . S
C798 C799 1.362 . S
C799 H789 0.930 . S
C799 C792 1.409 . S
C799 C798 1.362 . S
H800 C806 0.930 . S
H801 C809 0.930 . S
H802 C810 0.930 . S
H803 C811 0.930 . S
H804 C814 0.930 . S
H805 C815 0.930 . S
C806 H800 0.930 . S
C806 C807 1.355 . S
C806 C808 1.415 . S
C807 C806 1.355 . S
C807 C809 1.419 . S
C808 C806 1.415 . S
C808 C813 1.425 . S
C808 C815 1.409 . S
C809 H801 0.930 . S
C809 C807 1.419 . S
C809 C810 1.362 . S
C810 H802 0.930 . S
C810 C809 1.362 . S
C810 C813 1.409 . S
C811 H803 0.930 . S
C811 C812 1.355 . S
C811 C813 1.415 . S
C812 C811 1.355 . S
C812 C814 1.419 . S
C813 C808 1.425 . S
C813 C810 1.409 . S
C813 C811 1.415 . S
C814 H804 0.930 . S
C814 C812 1.419 . S
C814 C815 1.362 . S
C815 H805 0.930 . S
C815 C808 1.409 . S
C815 C814 1.362 . S
H816 C822 0.930 . S
H817 C825 0.930 . S
H818 C826 0.930 . S
H819 C827 0.930 . S
H820 C830 0.930 . S
H821 C831 0.930 . S
C822 H816 0.930 . S
C822 C823 1.355 . S
C822 C824 1.415 . S
C823 C822 1.355 . S
C823 C825 1.419 . S
C824 C822 1.415 . S
C824 C829 1.425 . S
C824 C831 1.409 . S
C825 H817 0.930 . S
C825 C823 1.419 . S
C825 C826 1.362 . S
C826 H818 0.930 . S
C826 C825 1.362 . S
C826 C829 1.409 . S
C827 H819 0.930 . S
C827 C828 1.355 . S
C827 C829 1.415 . S
C828 C827 1.355 . S
C828 C830 1.419 . S
C829 C824 1.425 . S
C829 C826 1.409 . S
C829 C827 1.415 . S
C830 H820 0.930 . S
C830 C828 1.419 . S
C830 C831 1.362 . S
C831 H821 0.930 . S
C831 C824 1.409 . S
C831 C830 1.362 . S
H832 C838 0.930 . S
H833 C841 0.930 . S
H834 C842 0.930 . S
H835 C843 0.930 . S
H836 C846 0.930 . S
H837 C847 0.930 . S
C838 H832 0.930 . S
C838 C839 1.355 . S
C838 C840 1.415 . S
C839 C838 1.355 . S
C839 C841 1.419 . S
C840 C838 1.415 . S
C840 C845 1.425 . S
C840 C847 1.409 . S
C841 H833 0.930 . S
C841 C839 1.419 . S
C841 C842 1.362 . S
C842 H834 0.930 . S
C842 C841 1.362 . S
C842 C845 1.409 . S
C843 H835 0.930 . S
C843 C844 1.355 . S
C843 C845 1.415 . S
C844 C843 1.355 . S
C844 C846 1.419 . S
C845 C840 1.425 . S
C845 C842 1.409 . S
C845 C843 1.415 . S
C846 H836 0.930 . S
C846 C844 1.419 . S
C846 C847 1.362 . S
C847 H837 0.930 . S
C847 C840 1.409 . S
C847 C846 1.362 . S
H848 C854 0.930 . S
H849 C857 0.930 . S
H850 C858 0.930 . S
H851 C859 0.930 . S
H852 C862 0.930 . S
H853 C863 0.930 . S
C854 H848 0.930 . S
C854 C855 1.355 . S
C854 C856 1.415 . S
C855 C854 1.355 . S
C855 C857 1.419 . S
C856 C854 1.415 . S
C856 C861 1.425 . S
C856 C863 1.409 . S
C857 H849 0.930 . S
C857 C855 1.419 . S
C857 C858 1.362 . S
C858 H850 0.930 . S
C858 C857 1.362 . S
C858 C861 1.409 . S
C859 H851 0.930 . S
C859 C860 1.355 . S
C859 C861 1.415 . S
C860 C859 1.355 . S
C860 C862 1.419 . S
C861 C856 1.425 . S
C861 C858 1.409 . S
C861 C859 1.415 . S
C862 H852 0.930 . S
C862 C860 1.419 . S
C862 C863 1.362 . S
C863 H853 0.930 . S
C863 C856 1.409 . S
C863 C862 1.362 . S
H864 C870 0.930 . S
H865 C873 0.930 1_554 S
H866 C874 0.930 . S
H867 C875 0.930 . S
H868 C878 0.930 . S
H869 C879 0.930 . S
C870 H864 0.930 . S
C870 C871 1.355 . S
C870 C872 1.415 . S
C871 C870 1.355 . S
C871 C873 1.419 . S
C872 C870 1.415 . S
C872 C877 1.425 . S
C872 C879 1.409 . S
C873 H865 0.930 1_556 S
C873 C871 1.419 . S
C873 C874 1.362 . S
C874 H866 0.930 . S
C874 C873 1.362 . S
C874 C877 1.409 . S
C875 H867 0.930 . S
C875 C876 1.355 . S
C875 C877 1.415 . S
C876 C875 1.355 . S
C876 C878 1.419 . S
C877 C872 1.425 . S
C877 C874 1.409 . S
C877 C875 1.415 . S
C878 H868 0.930 . S
C878 C876 1.419 . S
C878 C879 1.362 . S
C879 H869 0.930 . S
C879 C872 1.409 . S
C879 C878 1.362 . S
H880 C886 0.930 . S
H881 C889 0.930 . S
H882 C890 0.930 . S
H883 C891 0.930 . S
H884 C894 0.930 . S
H885 C895 0.930 . S
C886 H880 0.930 . S
C886 C887 1.355 . S
C886 C888 1.415 . S
C887 C886 1.355 . S
C887 C889 1.419 . S
C888 C886 1.415 . S
C888 C893 1.425 . S
C888 C895 1.409 . S
C889 H881 0.930 . S
C889 C887 1.419 . S
C889 C890 1.362 . S
C890 H882 0.930 . S
C890 C889 1.362 . S
C890 C893 1.409 . S
C891 H883 0.930 . S
C891 C892 1.355 . S
C891 C893 1.415 . S
C892 C891 1.355 . S
C892 C894 1.419 . S
C893 C888 1.425 . S
C893 C890 1.409 . S
C893 C891 1.415 . S
C894 H884 0.930 . S
C894 C892 1.419 . S
C894 C895 1.362 . S
C895 H885 0.930 . S
C895 C888 1.409 . S
C895 C894 1.362 . S
H896 C902 0.930 . S
H897 C905 0.930 . S
H898 C906 0.930 . S
H899 C907 0.930 . S
H900 C910 0.930 . S
H901 C911 0.930 . S
C902 H896 0.930 . S
C902 C903 1.355 . S
C902 C904 1.415 . S
C903 C902 1.355 . S
C903 C905 1.419 . S
C904 C902 1.415 . S
C904 C909 1.425 . S
C904 C911 1.409 . S
C905 H897 0.930 . S
C905 C903 1.419 . S
C905 C906 1.362 . S
C906 H898 0.930 . S
C906 C905 1.362 . S
C906 C909 1.409 . S
C907 H899 0.930 . S
C907 C908 1.355 . S
C907 C909 1.415 . S
C908 C907 1.355 . S
C908 C910 1.419 . S
C909 C904 1.425 . S
C909 C906 1.409 . S
C909 C907 1.415 . S
C910 H900 0.930 . S
C910 C908 1.419 . S
C910 C911 1.362 . S
C911 H901 0.930 . S
C911 C904 1.409 . S
C911 C910 1.362 . S
H912 C918 0.930 . S
H913 C921 0.930 . S
H914 C922 0.930 . S
H915 C923 0.930 . S
H916 C926 0.930 . S
H917 C927 0.930 . S
C918 H912 0.930 . S
C918 C919 1.355 . S
C918 C920 1.415 . S
C919 C918 1.355 . S
C919 C921 1.419 . S
C920 C918 1.415 . S
C920 C925 1.425 . S
C920 C927 1.409 . S
C921 H913 0.930 . S
C921 C919 1.419 . S
C921 C922 1.362 . S
C922 H914 0.930 . S
C922 C921 1.362 . S
C922 C925 1.409 . S
C923 H915 0.930 . S
C923 C924 1.355 . S
C923 C925 1.415 . S
C924 C923 1.355 . S
C924 C926 1.419 . S
C925 C920 1.425 . S
C925 C922 1.409 . S
C925 C923 1.415 . S
C926 H916 0.930 . S
C926 C924 1.419 . S
C926 C927 1.362 . S
C927 H917 0.930 . S
C927 C920 1.409 . S
C927 C926 1.362 . S
H928 C934 0.930 . S
H929 C937 0.930 . S
H930 C938 0.930 . S
H931 C939 0.930 . S
H932 C942 0.930 . S
H933 C943 0.930 . S
C934 H928 0.930 . S
C934 C935 1.355 . S
C934 C936 1.415 . S
C935 C934 1.355 . S
C935 C937 1.419 . S
C936 C934 1.415 . S
C936 C941 1.425 . S
C936 C943 1.409 . S
C937 H929 0.930 . S
C937 C935 1.419 . S
C937 C938 1.362 . S
C938 H930 0.930 . S
C938 C937 1.362 . S
C938 C941 1.409 . S
C939 H931 0.930 . S
C939 C940 1.355 . S
C939 C941 1.415 . S
C940 C939 1.355 . S
C940 C942 1.419 . S
C941 C936 1.425 . S
C941 C938 1.409 . S
C941 C939 1.415 . S
C942 H932 0.930 . S
C942 C940 1.419 . S
C942 C943 1.362 . S
C943 H933 0.930 . S
C943 C936 1.409 . S
C943 C942 1.362 . S
H944 C950 0.930 . S
H945 C953 0.930 . S
H946 C954 0.930 . S
H947 C955 0.930 . S
H948 C958 0.930 . S
H949 C959 0.930 . S
C950 H944 0.930 . S
C950 C951 1.355 . S
C950 C952 1.415 . S
C951 C950 1.355 . S
C951 C953 1.419 . S
C952 C950 1.415 . S
C952 C957 1.425 . S
C952 C959 1.409 . S
C953 H945 0.930 . S
C953 C951 1.419 . S
C953 C954 1.362 . S
C954 H946 0.930 . S
C954 C953 1.362 . S
C954 C957 1.409 . S
C955 H947 0.930 . S
C955 C956 1.355 . S
C955 C957 1.415 . S
C956 C955 1.355 . S
C956 C958 1.419 . S
C957 C952 1.425 . S
C957 C954 1.409 . S
C957 C955 1.415 . S
C958 H948 0.930 . S
C958 C956 1.419 . S
C958 C959 1.362 . S
C959 H949 0.930 . S
C959 C952 1.409 . S
C959 C958 1.362 . S
H960 C966 0.930 . S
H961 C969 0.930 . S
H962 C970 0.930 . S
H963 C971 0.930 . S
H964 C974 0.930 . S
H965 C975 0.930 . S
C966 H960 0.930 . S
C966 C967 1.355 . S
C966 C968 1.415 . S
C967 C966 1.355 . S
C967 C969 1.419 . S
C968 C966 1.415 . S
C968 C973 1.425 . S
C968 C975 1.409 . S
C969 H961 0.930 . S
C969 C967 1.419 . S
C969 C970 1.362 . S
C970 H962 0.930 . S
C970 C969 1.362 . S
C970 C973 1.409 . S
C971 H963 0.930 . S
C971 C972 1.355 . S
C971 C973 1.415 . S
C972 C971 1.355 . S
C972 C974 1.419 . S
C973 C968 1.425 . S
C973 C970 1.409 . S
C973 C971 1.415 . S
C974 H964 0.930 . S
C974 C972 1.419 . S
C974 C975 1.362 . S
C975 H965 0.930 . S
C975 C968 1.409 . S
C975 C974 1.362 . S
H976 C982 0.930 . S
H977 C985 0.930 . S
H978 C986 0.930 . S
H979 C987 0.930 . S
H980 C990 0.930 . S
H981 C991 0.930 . S
C982 H976 0.930 . S
C982 C983 1.355 . S
C982 C984 1.415 . S
C983 C982 1.355 . S
C983 C985 1.419 . S
C984 C982 1.415 . S
C984 C989 1.425 . S
C984 C991 1.409 . S
C985 H977 0.930 . S
C985 C983 1.419 . S
C985 C986 1.362 . S
C986 H978 0.930 . S
C986 C985 1.362 . S
C986 C989 1.409 . S
C987 H979 0.930 . S
C987 C988 1.355 . S
C987 C989 1.415 . S
C988 C987 1.355 . S
C988 C990 1.419 . S
C989 C984 1.425 . S
C989 C986 1.409 . S
C989 C987 1.415 . S
C990 H980 0.930 . S
C990 C988 1.419 . S
C990 C991 1.362 . S
C991 H981 0.930 . S
C991 C984 1.409 . S
C991 C990 1.362 . S
H992 C998 0.930 . S
H993 C1001 0.930 . S
H994 C1002 0.930 . S
H995 C1003 0.930 . S
H996 C1006 0.930 . S
H997 C1007 0.930 . S
C998 H992 0.930 . S
C998 C999 1.355 . S
C998 C1000 1.415 . S
C999 C998 1.355 . S
C999 C1001 1.419 . S
C1000 C998 1.415 . S
C1000 C1005 1.425 . S
C1000 C1007 1.409 . S
C1001 H993 0.930 . S
C1001 C999 1.419 . S
C1001 C1002 1.362 . S
C1002 H994 0.930 . S
C1002 C1001 1.362 . S
C1002 C1005 1.409 . S
C1003 H995 0.930 . S
C1003 C1004 1.355 . S
C1003 C1005 1.415 . S
C1004 C1003 1.355 . S
C1004 C1006 1.419 . S
C1005 C1000 1.425 . S
C1005 C1002 1.409 . S
C1005 C1003 1.415 . S
C1006 H996 0.930 . S
C1006 C1004 1.419 . S
C1006 C1007 1.362 . S
C1007 H997 0.930 . S
C1007 C1000 1.409 . S
C1007 C1006 1.362 . S
H1008 C1014 0.930 . S
H1009 C1017 0.930 . S
H1010 C1018 0.930 . S
H1011 C1019 0.930 . S
H1012 C1022 0.930 . S
H1013 C1023 0.930 . S
C1014 H1008 0.930 . S
C1014 C1015 1.355 . S
C1014 C1016 1.415 . S
C1015 C1014 1.355 . S
C1015 C1017 1.419 . S
C1016 C1014 1.415 . S
C1016 C1021 1.425 . S
C1016 C1023 1.409 . S
C1017 H1009 0.930 . S
C1017 C1015 1.419 . S
C1017 C1018 1.362 . S
C1018 H1010 0.930 . S
C1018 C1017 1.362 . S
C1018 C1021 1.409 . S
C1019 H1011 0.930 . S
C1019 C1020 1.355 . S
C1019 C1021 1.415 . S
C1020 C1019 1.355 . S
C1020 C1022 1.419 . S
C1021 C1016 1.425 . S
C1021 C1018 1.409 . S
C1021 C1019 1.415 . S
C1022 H1012 0.930 . S
C1022 C1020 1.419 . S
C1022 C1023 1.362 . S
C1023 H1013 0.930 . S
C1023 C1016 1.409 . S
C1023 C1022 1.362 . S
H1024 C1030 0.930 . S
H1025 C1033 0.930 . S
H1026 C1034 0.930 . S
H1027 C1035 0.930 . S
H1028 C1038 0.930 . S
H1029 C1039 0.930 . S
C1030 H1024 0.930 . S
C1030 C1031 1.355 . S
C1030 C1032 1.415 . S
C1031 C1030 1.355 . S
C1031 C1033 1.419 . S
C1032 C1030 1.415 . S
C1032 C1037 1.425 . S
C1032 C1039 1.409 . S
C1033 H1025 0.930 . S
C1033 C1031 1.419 . S
C1033 C1034 1.362 . S
C1034 H1026 0.930 . S
C1034 C1033 1.362 . S
C1034 C1037 1.409 . S
C1035 H1027 0.930 . S
C1035 C1036 1.355 . S
C1035 C1037 1.415 . S
C1036 C1035 1.355 . S
C1036 C1038 1.419 . S
C1037 C1032 1.425 . S
C1037 C1034 1.409 . S
C1037 C1035 1.415 . S
C1038 H1028 0.930 . S
C1038 C1036 1.419 . S
C1038 C1039 1.362 . S
C1039 H1029 0.930 . S
C1039 C1032 1.409 . S
C1039 C1038 1.362 . S
H1040 C1046 0.930 . S
H1041 C1049 0.930 . S
H1042 C1050 0.930 . S
H1043 C1051 0.930 . S
H1044 C1054 0.930 . S
H1045 C1055 0.930 . S
C1046 H1040 0.930 . S
C1046 C1047 1.355 . S
C1046 C1048 1.415 . S
C1047 C1046 1.355 . S
C1047 C1049 1.419 . S
C1048 C1046 1.415 . S
C1048 C1053 1.425 . S
C1048 C1055 1.409 . S
C1049 H1041 0.930 . S
C1049 C1047 1.419 . S
C1049 C1050 1.362 . S
C1050 H1042 0.930 . S
C1050 C1049 1.362 . S
C1050 C1053 1.409 . S
C1051 H1043 0.930 . S
C1051 C1052 1.355 . S
C1051 C1053 1.415 . S
C1052 C1051 1.355 . S
C1052 C1054 1.419 . S
C1053 C1048 1.425 . S
C1053 C1050 1.409 . S
C1053 C1051 1.415 . S
C1054 H1044 0.930 . S
C1054 C1052 1.419 . S
C1054 C1055 1.362 . S
C1055 H1045 0.930 . S
C1055 C1048 1.409 . S
C1055 C1054 1.362 . S
H1056 C1062 0.930 . S
H1057 C1065 0.930 . S
H1058 C1066 0.930 . S
H1059 C1067 0.930 . S
H1060 C1070 0.930 . S
H1061 C1071 0.930 . S
C1062 H1056 0.930 . S
C1062 C1063 1.355 . S
C1062 C1064 1.415 . S
C1063 C1062 1.355 . S
C1063 C1065 1.419 . S
C1064 C1062 1.415 . S
C1064 C1069 1.425 . S
C1064 C1071 1.409 . S
C1065 H1057 0.930 . S
C1065 C1063 1.419 . S
C1065 C1066 1.362 . S
C1066 H1058 0.930 . S
C1066 C1065 1.362 . S
C1066 C1069 1.409 . S
C1067 H1059 0.930 . S
C1067 C1068 1.355 . S
C1067 C1069 1.415 . S
C1068 C1067 1.355 . S
C1068 C1070 1.419 . S
C1069 C1064 1.425 . S
C1069 C1066 1.409 . S
C1069 C1067 1.415 . S
C1070 H1060 0.930 . S
C1070 C1068 1.419 . S
C1070 C1071 1.362 . S
C1071 H1061 0.930 . S
C1071 C1064 1.409 . S
C1071 C1070 1.362 . S
H1072 C1078 0.930 . S
H1073 C1081 0.930 . S
H1074 C1082 0.930 . S
H1075 C1083 0.930 . S
H1076 C1086 0.930 . S
H1077 C1087 0.930 . S
C1078 H1072 0.930 . S
C1078 C1079 1.355 . S
C1078 C1080 1.415 . S
C1079 C1078 1.355 . S
C1079 C1081 1.419 . S
C1080 C1078 1.415 . S
C1080 C1085 1.425 . S
C1080 C1087 1.409 . S
C1081 H1073 0.930 . S
C1081 C1079 1.419 . S
C1081 C1082 1.362 . S
C1082 H1074 0.930 . S
C1082 C1081 1.362 . S
C1082 C1085 1.409 . S
C1083 H1075 0.930 . S
C1083 C1084 1.355 . S
C1083 C1085 1.415 . S
C1084 C1083 1.355 . S
C1084 C1086 1.419 . S
C1085 C1080 1.425 . S
C1085 C1082 1.409 . S
C1085 C1083 1.415 . S
C1086 H1076 0.930 . S
C1086 C1084 1.419 . S
C1086 C1087 1.362 . S
C1087 H1077 0.930 . S
C1087 C1080 1.409 . S
C1087 C1086 1.362 . S
H1088 C1094 0.930 . S
H1089 C1097 0.930 . S
H1090 C1098 0.930 . S
H1091 C1099 0.930 . S
H1092 C1102 0.930 . S
H1093 C1103 0.930 . S
C1094 H1088 0.930 . S
C1094 C1095 1.355 . S
C1094 C1096 1.415 . S
C1095 C1094 1.355 . S
C1095 C1097 1.419 . S
C1096 C1094 1.415 . S
C1096 C1101 1.425 . S
C1096 C1103 1.409 . S
C1097 H1089 0.930 . S
C1097 C1095 1.419 . S
C1097 C1098 1.362 . S
C1098 H1090 0.930 . S
C1098 C1097 1.362 . S
C1098 C1101 1.409 . S
C1099 H1091 0.930 . S
C1099 C1100 1.355 . S
C1099 C1101 1.415 . S
C1100 C1099 1.355 . S
C1100 C1102 1.419 . S
C1101 C1096 1.425 . S
C1101 C1098 1.409 . S
C1101 C1099 1.415 . S
C1102 H1092 0.930 . S
C1102 C1100 1.419 . S
C1102 C1103 1.362 . S
C1103 H1093 0.930 . S
C1103 C1096 1.409 . S
C1103 C1102 1.362 . S
C343 C203 1.454 . S
C348 C6 1.456 . S
C359 C21 1.479 . S
C364 C216 1.436 . S
C375 C261 1.691 . S
C380 C37 1.658 . S
C391 C50 2.039 . S
C396 C190 2.069 . S
C407 C204 2.057 . S
C412 C64 2.046 . S
C423 C79 1.670 . S
C428 C219 1.668 . S
C439 C91 1.451 . S
C444 C258 1.452 . S
C455 C104 1.418 . S
C460 C189 1.446 . S
C471 C133 1.482 . S
C476 C118 1.471 . S
C487 C148 2.041 . S
C492 C134 2.067 . S
C503 C147 1.476 . S
C508 C160 1.474 . S
C519 C163 1.669 . S
C524 C121 1.669 . S
C535 C174 1.450 . S
C540 C49 1.484 . S
C551 C63 1.459 . S
C556 C230 1.464 . S
C567 C246 2.040 . S
C572 C22 2.063 . S
C583 C20 1.545 . S
C588 C302 1.578 . S
C599 C132 1.563 . S
C604 C8 1.573 . S
C615 C331 1.733 . S
C620 C51 1.733 . S
C631 C161 0.984 . S
C636 C35 1.002 . S
C647 C301 0.952 . S
C652 C105 0.975 . S
C663 C135 1.692 . S
C668 C93 1.690 . S
C679 C78 1.601 . S
C684 C328 1.568 . S
C695 C62 1.540 . S
C700 C162 1.582 . S
C711 C218 1.601 . S
C716 C272 1.561 . S
C727 C231 0.943 . S
C732 C217 0.999 . S
C743 C188 1.541 . S
C748 C232 1.581 . S
C759 C275 1.723 . S
C764 C191 1.720 . S
C775 C36 1.592 . S
C780 C286 1.539 . S
C791 C146 1.581 . S
C796 C106 1.575 . S
C807 C7 0.950 . S
C812 C315 0.978 . S
C823 C273 1.445 . S
C828 C34 1.422 . S
C839 C9 1.659 . S
C844 C233 1.692 . S
C855 C274 2.055 . S
C860 C92 2.048 . S
C871 C177 1.689 . S
C876 C107 1.679 . S
C887 C76 1.465 . S
C892 C245 1.484 . S
C903 C300 1.474 . S
C908 C287 1.477 . S
C919 C330 2.038 . S
C924 C288 2.069 . S
C935 C314 1.430 . S
C940 C329 1.445 . S
C951 C303 1.662 . S
C956 C317 1.695 . S
C967 C120 1.593 . S
C972 C48 1.587 . S
C983 C23 1.686 . S
C988 C149 1.686 . S
C999 C77 1.010 . S
C1004 C119 0.947 . S
C1015 C289 1.686 . S
C1020 C65 1.687 . S
C1031 C90 1.566 . S
C1036 C316 1.573 . S
C1047 C176 1.591 . S
C1052 C202 1.539 . S
C1063 C259 0.999 . S
C1068 C175 0.943 . S
C1079 C244 1.549 . S
C1084 C260 1.599 . S
C1095 C205 1.713 . S
C1100 C247 1.710 . S
