# Generated by pormake.
# Topology qtz-x, (6)-cn, num edge types: 1
# Building blocks:
#     Node 0, Type 0, BuildingBlock: KUMBOL_clean_sbu_1, # of connection points: 6
#     Node 1, Type 0, BuildingBlock: KUMBOL_clean_sbu_1, # of connection points: 6
#     Node 2, Type 0, BuildingBlock: KUMBOL_clean_sbu_1, # of connection points: 6
#     Edge 3, Type (0, 0), BuildingBlock: KIFKEQ_clean_linker_1, # of connection points: 2
#     Edge 4, Type (0, 0), BuildingBlock: KIFKEQ_clean_linker_1, # of connection points: 2
#     Edge 5, Type (0, 0), BuildingBlock: KIFKEQ_clean_linker_1, # of connection points: 2
#     Edge 6, Type (0, 0), BuildingBlock: KIFKEQ_clean_linker_1, # of connection points: 2
#     Edge 7, Type (0, 0), BuildingBlock: KIFKEQ_clean_linker_1, # of connection points: 2
#     Edge 8, Type (0, 0), BuildingBlock: KIFKEQ_clean_linker_1, # of connection points: 2
#     Edge 9, Type (0, 0), BuildingBlock: KIFKEQ_clean_linker_1, # of connection points: 2
#     Edge 10, Type (0, 0), BuildingBlock: KIFKEQ_clean_linker_1, # of connection points: 2
#     Edge 11, Type (0, 0), BuildingBlock: KIFKEQ_clean_linker_1, # of connection points: 2
# Relax obj value: 0.199
# Max RMSD: 0.278
# Mean RMSD: 0.278
data_MOF--net-qtz-x--node1-KUMBOL_clean_sbu_1--edge1-KIFKEQ_clean_linker_1
_symmetry_space_group_name_H-M    P1
_symmetry_Int_Tables_number       1
_symmetry_cell_setting            triclinic
loop_
_symmetry_equiv_pos_as_xyz
'x, y, z'
_cell_length_a     15.284142
_cell_length_b     15.246228
_cell_length_c     53.503749
_cell_angle_alpha  89.985877
_cell_angle_beta   90.051379
_cell_angle_gamma 119.96933
loop_
_atom_site_label
_atom_site_type_symbol
_atom_site_fract_x
_atom_site_fract_y
_atom_site_fract_z
_atom_type_partial_charge
C0 C 0.45753 0.62454 0.15613 0.0
C1 C 0.51767 0.80023 0.14564 0.0
C2 C 0.44413 0.7082 0.1565 0.0
C3 C 0.60084 0.80488 0.13322 0.0
C4 C 0.54176 0.6293 0.14407 0.0
C5 C 0.61264 0.71952 0.13235 0.0
N6 N 0.38771 0.53804 0.16758 0.0
C7 C 0.399 0.45477 0.16848 0.0
C8 C 0.55205 0.54303 0.14412 0.0
C9 C 0.4806 0.45556 0.15649 0.0
Gd10 Gd 0.98964 0.41952 0.14325 0.0
Gd11 Gd 0.25008 0.54088 0.1859 0.0
N12 N 0.36286 0.70147 0.16875 0.0
C13 C 0.50763 0.88598 0.14843 0.0
C14 C 0.35933 0.78759 0.17375 0.0
C15 C 0.4294 0.88011 0.16305 0.0
H16 H 0.30495 0.78689 0.18664 0.0
H17 H 0.42448 0.94741 0.16662 0.0
H18 H 0.91194 0.17093 0.15352 0.0
H19 H 0.34376 0.38729 0.17804 0.0
H20 H 0.77058 0.02431 0.17363 0.0
H21 H 0.56254 0.95806 0.14041 0.0
H22 H 0.65756 0.87477 0.12465 0.0
H23 H 0.93009 0.6025 0.144 0.0
H24 H 0.61498 0.54329 0.13475 0.0
H25 H 0.48831 0.38874 0.15676 0.0
H26 H 0.5523 0.14683 0.20079 0.0
H27 H 0.67768 0.72453 0.12291 0.0
H28 H 0.65407 0.49406 0.18467 0.0
H29 H 0.79837 0.63218 0.1621 0.0
N30 N 0.86252 0.45095 0.15698 0.0
C31 C 0.78159 0.37258 0.16832 0.0
C32 C 0.86794 0.54236 0.15404 0.0
C33 C 0.71101 0.48045 0.17652 0.0
C34 C 0.79295 0.55895 0.16403 0.0
C35 C 0.70335 0.38525 0.17834 0.0
H36 H 0.5599 0.31154 0.1978 0.0
N37 N 0.85902 0.27259 0.1622 0.0
C38 C 0.7795 0.28074 0.17085 0.0
C39 C 0.69398 0.10529 0.1837 0.0
C40 C 0.69589 0.19782 0.18229 0.0
C41 C 0.8547 0.18096 0.16241 0.0
C42 C 0.77304 0.09652 0.1734 0.0
O43 O 0.25861 0.49825 0.14589 0.0
O44 O 0.14313 0.53159 0.1284 0.0
O45 O 0.95061 0.32387 0.11042 0.0
O46 O 0.91431 0.44398 0.11173 0.0
O47 O 0.16002 0.62307 0.18373 0.0
O48 O 0.09213 0.58938 0.14395 0.0
O49 O 0.97467 0.44762 0.18422 0.0
O50 O 0.09894 0.42398 0.20079 0.0
O51 O 0.2919 0.62789 0.22032 0.0
O52 O 0.33143 0.51191 0.21512 0.0
O53 O 0.06672 0.3248 0.14733 0.0
O54 O 0.15962 0.3696 0.18447 0.0
C55 C 0.21586 0.51078 0.12606 0.0
C56 C 0.12258 0.64601 0.16421 0.0
C57 C 0.8116 0.3026 0.08628 0.0
C58 C 0.71243 0.26092 0.04788 0.0
C59 C 0.64503 0.15321 0.08454 0.0
C60 C 0.7331 0.21685 0.09788 0.0
C61 C 0.63488 0.17448 0.05959 0.0
C62 C 0.80045 0.32479 0.06145 0.0
C63 C 0.90771 0.36819 0.09907 0.0
C64 C 0.61684 0.20964 0.19188 0.0
C65 C 0.62098 0.30332 0.1901 0.0
H66 H 0.63099 0.03974 0.19226 0.0
C67 C 0.02125 0.43684 0.20348 0.0
C68 C 0.11552 0.3075 0.1654 0.0
C69 C 0.43867 0.6516 0.24054 0.0
C70 C 0.53826 0.73939 0.27743 0.0
C71 C 0.61961 0.76302 0.23693 0.0
C72 C 0.52652 0.69702 0.22594 0.0
C73 C 0.62567 0.78439 0.2625 0.0
C74 C 0.44485 0.67283 0.26619 0.0
C75 C 0.33925 0.5842 0.22944 0.0
H76 H 0.58479 0.08679 0.0935 0.0
H77 H 0.74029 0.19857 0.11705 0.0
H78 H 0.56631 0.12407 0.04953 0.0
H79 H 0.86171 0.39059 0.05246 0.0
H80 H 0.68727 0.7979 0.22559 0.0
H81 H 0.52318 0.68179 0.20612 0.0
H82 H 0.69877 0.8354 0.27061 0.0
H83 H 0.37633 0.63898 0.27728 0.0
C84 C 0.28538 0.66937 0.49139 0.0
C85 C 0.34367 0.56069 0.47392 0.0
C86 C 0.36249 0.64861 0.48704 0.0
C87 C 0.24681 0.49633 0.46417 0.0
C88 C 0.18667 0.60194 0.48282 0.0
C89 C 0.16845 0.51695 0.4686 0.0
N90 N 0.305 0.75044 0.50586 0.0
C91 C 0.22726 0.76131 0.51478 0.0
C92 C 0.10841 0.61922 0.48987 0.0
C93 C 0.12848 0.698 0.50637 0.0
Gd94 Gd 0.61619 0.1281 0.47748 0.0
Gd95 Gd 0.47509 0.85608 0.51765 0.0
N96 N 0.45484 0.71166 0.49693 0.0
C97 C 0.42188 0.53839 0.47177 0.0
C98 C 0.52977 0.68766 0.49613 0.0
C99 C 0.51492 0.60146 0.48323 0.0
H100 H 0.60156 0.73644 0.50504 0.0
H101 H 0.57502 0.58359 0.48217 0.0
H102 H 0.42775 0.18344 0.47311 0.0
H103 H 0.24061 0.81737 0.52882 0.0
H104 H 0.38038 0.30006 0.49244 0.0
H105 H 0.41038 0.47135 0.46192 0.0
H106 H 0.23098 0.42881 0.45385 0.0
H107 H 0.86201 0.22548 0.48845 0.0
H108 H 0.03157 0.56924 0.48373 0.0
H109 H 0.06759 0.70867 0.51304 0.0
H110 H 0.66995 0.52396 0.54134 0.0
H111 H 0.09327 0.46476 0.46172 0.0
H112 H 0.96289 0.4872 0.53504 0.0
H113 H 0.99889 0.36819 0.51192 0.0
N114 N 0.75007 0.26209 0.49902 0.0
C115 C 0.72988 0.32936 0.51051 0.0
C116 C 0.84595 0.27684 0.49869 0.0
C117 C 0.90268 0.42452 0.52491 0.0
C118 C 0.92334 0.35747 0.5119 0.0
C119 C 0.80545 0.41192 0.52402 0.0
H120 H 0.83919 0.54412 0.54619 0.0
N121 N 0.56548 0.24018 0.49342 0.0
C122 C 0.63429 0.3173 0.50787 0.0
C123 C 0.51816 0.37977 0.51363 0.0
C124 C 0.61218 0.38867 0.51854 0.0
C125 C 0.47736 0.2367 0.48688 0.0
C126 C 0.45125 0.30456 0.49734 0.0
O127 O 0.51962 0.85039 0.47753 0.0
O128 O 0.49503 0.97634 0.46413 0.0
O129 O 0.62461 0.22869 0.44775 0.0
O130 O 0.70511 0.14674 0.44409 0.0
O131 O 0.64457 0.92585 0.51223 0.0
O132 O 0.70514 0.04593 0.47962 0.0
O133 O 0.66814 0.12511 0.5169 0.0
O134 O 0.51365 0.01049 0.53087 0.0
O135 O 0.55416 0.84427 0.55014 0.0
O136 O 0.39213 0.75542 0.54833 0.0
O137 O 0.44349 0.03564 0.47826 0.0
O138 O 0.40308 0.95645 0.51687 0.0
C139 C 0.51391 0.9038 0.45912 0.0
C140 C 0.71418 0.98493 0.49577 0.0
C141 C 0.77261 0.30419 0.42348 0.0
C142 C 0.86536 0.39624 0.38629 0.0
C143 C 0.92044 0.47092 0.42759 0.0
C144 C 0.84002 0.38551 0.43849 0.0
C145 C 0.93338 0.4764 0.40168 0.0
C146 C 0.78527 0.30996 0.39748 0.0
C147 C 0.68661 0.21381 0.43428 0.0
C148 C 0.68588 0.46886 0.53288 0.0
C149 C 0.78233 0.48049 0.5356 0.0
H150 H 0.49831 0.43311 0.52143 0.0
C151 C 0.60733 0.07753 0.5354 0.0
C152 C 0.38129 0.99578 0.49745 0.0
C153 C 0.46464 0.82426 0.58727 0.0
C154 C 0.48832 0.82868 0.63242 0.0
C155 C 0.42891 0.9336 0.61306 0.0
C156 C 0.43272 0.89572 0.58961 0.0
C157 C 0.45669 0.90054 0.63436 0.0
C158 C 0.49209 0.79061 0.60871 0.0
C159 C 0.47155 0.78707 0.56241 0.0
H160 H 0.97267 0.53335 0.43921 0.0
H161 H 0.83008 0.38364 0.45849 0.0
H162 H 0.99695 0.54315 0.39375 0.0
H163 H 0.73115 0.24789 0.38598 0.0
H164 H 0.40453 0.98889 0.61472 0.0
H165 H 0.41109 0.92249 0.57329 0.0
H166 H 0.45201 0.92999 0.65243 0.0
H167 H 0.51732 0.73589 0.60692 0.0
C168 C 0.63298 0.77607 0.82203 0.0
C169 C 0.4693 0.71673 0.80263 0.0
C170 C 0.53637 0.69819 0.81672 0.0
C171 C 0.50277 0.81393 0.79285 0.0
C172 C 0.66483 0.87514 0.81351 0.0
C173 C 0.60037 0.89301 0.79828 0.0
N174 N 0.6924 0.75664 0.8373 0.0
C175 C 0.77917 0.83467 0.84697 0.0
C176 C 0.75849 0.95401 0.82152 0.0
C177 C 0.81493 0.93394 0.83874 0.0
Gd178 Gd 0.75092 0.44727 0.80882 0.0
Gd179 Gd 0.62771 0.58589 0.84876 0.0
N180 N 0.50629 0.60516 0.82644 0.0
C181 C 0.3697 0.63778 0.79948 0.0
C182 C 0.40802 0.52945 0.82465 0.0
C183 C 0.33854 0.54421 0.81088 0.0
H184 H 0.38409 0.45721 0.83348 0.0
H185 H 0.2611 0.48356 0.80908 0.0
H186 H 0.99672 0.63229 0.80446 0.0
H187 H 0.8203 0.82094 0.86138 0.0
H188 H 0.1595 0.67466 0.8235 0.0
H189 H 0.31568 0.64906 0.78888 0.0
H190 H 0.45276 0.82945 0.78173 0.0
H191 H 0.59705 0.2029 0.82014 0.0
H192 H 0.78552 0.03122 0.81552 0.0
H193 H 0.88502 0.99515 0.84605 0.0
H194 H 0.08591 0.38228 0.87239 0.0
H195 H 0.6239 0.96842 0.79138 0.0
H196 H 0.75226 0.09492 0.86643 0.0
H197 H 0.59849 0.06328 0.8435 0.0
N198 N 0.74661 0.31192 0.83064 0.0
C199 C 0.83342 0.3297 0.84198 0.0
C200 C 0.66383 0.21703 0.83033 0.0
C201 C 0.75165 0.15631 0.85638 0.0
C202 C 0.66465 0.13812 0.84346 0.0
C203 C 0.83797 0.25258 0.85544 0.0
H204 H 0.93388 0.21502 0.87743 0.0
N205 N 0.91273 0.49452 0.82475 0.0
C206 C 0.91873 0.42423 0.83919 0.0
C207 C 0.09818 0.53632 0.84466 0.0
C208 C 0.01144 0.4436 0.84972 0.0
C209 C 0.99871 0.58149 0.81818 0.0
C210 C 0.09202 0.60479 0.82847 0.0
O211 O 0.58476 0.54186 0.80834 0.0
O212 O 0.73329 0.57152 0.79086 0.0
O213 O 0.84168 0.43 0.78028 0.0
O214 O 0.67956 0.35462 0.77593 0.0
O215 O 0.52874 0.41552 0.84501 0.0
O216 O 0.57994 0.36451 0.80935 0.0
O217 O 0.69782 0.40044 0.84871 0.0
O218 O 0.7462 0.55552 0.86458 0.0
O219 O 0.53762 0.50846 0.88145 0.0
O220 O 0.6014 0.66978 0.87765 0.0
O221 O 0.83544 0.61963 0.8093 0.0
O222 O 0.79884 0.65898 0.84812 0.0
C223 C 0.64889 0.57407 0.78974 0.0
C224 C 0.51348 0.34972 0.82703 0.0
C225 C 0.76504 0.27948 0.75654 0.0
C226 C 0.74975 0.1779 0.71989 0.0
C227 C 0.79902 0.14052 0.75992 0.0
C228 C 0.79289 0.22042 0.77098 0.0
C229 C 0.77839 0.11969 0.73445 0.0
C230 C 0.74256 0.2572 0.73116 0.0
C231 C 0.76436 0.3684 0.76682 0.0
C232 C 0.01551 0.36843 0.86404 0.0
C233 C 0.92898 0.2731 0.86688 0.0
H234 H 0.17087 0.55393 0.8523 0.0
C235 C 0.72661 0.46256 0.86773 0.0
C236 C 0.85786 0.68198 0.82839 0.0
C237 C 0.59751 0.60673 0.91777 0.0
C238 C 0.57264 0.59053 0.96277 0.0
C239 C 0.74041 0.65484 0.94543 0.0
C240 C 0.70138 0.64503 0.92135 0.0
C241 C 0.67632 0.62691 0.96607 0.0
C242 C 0.5334 0.58063 0.93853 0.0
C243 C 0.55605 0.59211 0.89241 0.0
H244 H 0.82109 0.09543 0.77103 0.0
H245 H 0.81145 0.23698 0.79057 0.0
H246 H 0.78452 0.05819 0.72615 0.0
H247 H 0.72263 0.30398 0.71996 0.0
H248 H 0.82045 0.68385 0.94808 0.0
H249 H 0.75209 0.66676 0.90552 0.0
H250 H 0.70784 0.63543 0.98465 0.0
H251 H 0.45324 0.55175 0.93585 0.0
H252 H 0.13791 0.76387 0.12426 0.0
H253 H 0.1037 0.74521 0.20444 0.0
H254 H 0.13899 0.9241 0.12438 0.0
H255 H 0.09962 0.90309 0.20464 0.0
H256 H 0.19377 0.23516 0.20066 0.0
H257 H 0.19793 0.07816 0.19998 0.0
H258 H 0.04052 1.00013 0.12914 0.0
H259 H 0.04274 0.16056 0.129 0.0
C260 C 0.12946 0.7937 0.14191 0.0
C261 C 0.12098 0.7423 0.16435 0.0
C262 C 0.12943 0.88541 0.142 0.0
C263 C 0.11924 0.9273 0.16452 0.0
C264 C 0.10967 0.87477 0.18696 0.0
C265 C 0.11132 0.7838 0.18688 0.0
C266 C 0.1605 0.18494 0.18482 0.0
C267 C 0.1172 0.21073 0.16497 0.0
C268 C 0.16194 0.09394 0.18456 0.0
C269 C 0.11888 0.02524 0.1646 0.0
C270 C 0.07576 0.05125 0.14471 0.0
C271 C 0.07591 0.14312 0.14477 0.0
H272 H 0.27232 0.9921 0.45673 0.0
H273 H 0.27144 0.99797 0.53738 0.0
H274 H 0.11004 0.98671 0.45604 0.0
H275 H 0.10973 0.99394 0.53679 0.0
H276 H 0.77313 0.8806 0.52692 0.0
H277 H 0.93314 0.88204 0.52698 0.0
H278 H 0.03614 0.09085 0.46485 0.0
H279 H 0.87538 0.0871 0.46417 0.0
C280 C 0.2376 0.9929 0.47431 0.0
C281 C 0.2841 0.99487 0.4971 0.0
C282 C 0.14477 0.99009 0.47393 0.0
C283 C 0.09655 0.98961 0.49637 0.0
C284 C 0.14379 0.99244 0.51918 0.0
C285 C 0.23659 0.99517 0.51953 0.0
C286 C 0.82949 0.92642 0.51314 0.0
C287 C 0.81086 0.98381 0.49556 0.0
C288 C 0.92173 0.92785 0.51333 0.0
C289 C 0.99777 0.98682 0.49597 0.0
C290 C 0.9789 0.0436 0.47829 0.0
C291 C 0.88665 0.04195 0.47804 0.0
H292 H 0.95982 0.79282 0.7876 0.0
H293 H 0.97222 0.79041 0.86818 0.0
H294 H 0.11629 0.95583 0.78684 0.0
H295 H 0.12964 0.95233 0.86752 0.0
H296 H 0.35317 0.28853 0.859 0.0
H297 H 0.19429 0.12877 0.85881 0.0
H298 H 0.29409 0.03079 0.79454 0.0
H299 H 0.45134 0.19173 0.79411 0.0
C300 C 0.99658 0.82696 0.80514 0.0
C301 C 0.95381 0.77941 0.82795 0.0
C302 C 0.08634 0.92017 0.80472 0.0
C303 C 0.13559 0.9675 0.82713 0.0
C304 C 0.09289 0.91908 0.84994 0.0
C305 C 1.00298 0.82611 0.85033 0.0
C306 C 0.34124 0.23326 0.84473 0.0
C307 C 0.41559 0.25326 0.82662 0.0
C308 C 0.25024 0.14117 0.84475 0.0
C309 C 0.23144 0.06654 0.82674 0.0
C310 C 0.30539 0.08692 0.80851 0.0
C311 C 0.3961 0.17921 0.80839 0.0
H312 H 0.53822 0.45118 0.99869 0.0
H313 H 0.46001 0.67498 0.97625 0.0
H314 H 0.43834 0.41803 0.03666 0.0
H315 H 0.36549 0.64777 0.01493 0.0
H316 H 0.15274 0.54112 0.0805 0.0
H317 H 0.22572 0.54641 0.03964 0.0
H318 H 0.44893 0.4914 0.07483 0.0
H319 H 0.37047 0.47735 0.11485 0.0
C320 C 0.4994 0.49321 0.00203 0.0
C321 C 0.50648 0.5656 0.98477 0.0
C322 C 0.44291 0.47514 0.02385 0.0
C323 C 0.3946 0.53118 0.0292 0.0
C324 C 0.40008 0.60196 0.01143 0.0
C325 C 0.45472 0.61824 0.98933 0.0
C326 C 0.21696 0.52944 0.0794 0.0
C327 C 0.25749 0.51136 0.10107 0.0
C328 C 0.25939 0.53319 0.05597 0.0
C329 C 0.34413 0.52025 0.05376 0.0
C330 C 0.38301 0.50031 0.07551 0.0
C331 C 0.33923 0.49436 0.09872 0.0
H332 H 0.92055 0.56147 0.35634 0.0
H333 H 0.83667 0.24557 0.35359 0.0
H334 H 0.94614 0.57368 0.3112 0.0
H335 H 0.86035 0.25768 0.30841 0.0
H336 H 0.842 0.29832 0.22422 0.0
H337 H 0.79246 0.28901 0.26826 0.0
H338 H 0.07243 0.56502 0.28339 0.0
H339 H 0.12013 0.57406 0.2396 0.0
C340 C 0.90777 0.4947 0.34615 0.0
C341 C 0.87737 0.40276 0.35866 0.0
C342 C 0.92179 0.50161 0.32028 0.0
C343 C 0.9051 0.41661 0.30631 0.0
C344 C 0.87228 0.32405 0.31866 0.0
C345 C 0.85891 0.31726 0.34456 0.0
C346 C 0.89151 0.35758 0.23699 0.0
C347 C 0.98497 0.43656 0.22882 0.0
C348 C 0.86383 0.35197 0.26213 0.0
C349 C 0.92886 0.42611 0.27926 0.0
C350 C 0.02044 0.50722 0.27063 0.0
C351 C 0.04833 0.512 0.24566 0.0
H352 H 0.46381 0.51724 0.77003 0.0
H353 H 0.78258 0.71999 0.75842 0.0
H354 H 0.42612 0.58117 0.73196 0.0
H355 H 0.74491 0.78413 0.72034 0.0
H356 H 0.61392 0.94241 0.67014 0.0
H357 H 0.65316 0.88274 0.70872 0.0
H358 H 0.46164 0.57348 0.68485 0.0
H359 H 0.42268 0.63337 0.64624 0.0
C360 C 0.52563 0.57591 0.7594 0.0
C361 C 0.626 0.61367 0.76706 0.0
C362 C 0.50416 0.61188 0.73757 0.0
C363 C 0.5827 0.68715 0.7232 0.0
C364 C 0.68303 0.72627 0.73114 0.0
C365 C 0.70455 0.68917 0.75278 0.0
C366 C 0.5805 0.86185 0.67317 0.0
C367 C 0.51542 0.79252 0.65525 0.0
C368 C 0.60324 0.82776 0.69514 0.0
C369 C 0.56007 0.72358 0.69975 0.0
C370 C 0.49519 0.6542 0.68181 0.0
C371 C 0.47366 0.68838 0.65967 0.0
H372 H 0.59897 0.27531 0.88711 0.0
H373 H 0.85255 0.56745 0.9057 0.0
H374 H 0.58779 0.22214 0.93073 0.0
H375 H 0.84498 0.51387 0.94888 0.0
H376 H 0.74489 0.4398 0.02851 0.0
H377 H 0.74468 0.48313 0.98471 0.0
H378 H 0.66465 0.17841 0.96345 0.0
H379 H 0.66154 0.13461 0.00754 0.0
C380 C 0.65317 0.32747 0.90052 0.0
C381 C 0.72557 0.42594 0.89326 0.0
C382 C 0.64704 0.29713 0.92549 0.0
C383 C 0.71435 0.3643 0.94354 0.0
C384 C 0.78976 0.46111 0.93577 0.0
C385 C 0.79478 0.49172 0.91098 0.0
C386 C 0.72669 0.38207 0.01444 0.0
C387 C 0.70389 0.28411 0.02136 0.0
C388 C 0.72717 0.40693 0.9893 0.0
C389 C 0.70629 0.33483 0.97039 0.0
C390 C 0.68041 0.23576 0.97744 0.0
C391 C 0.67874 0.21057 0.00268 0.0
H392 H 0.44251 0.60821 0.31605 0.0
H393 H 0.64557 0.92441 0.30007 0.0
H394 H 0.44267 0.64871 0.36019 0.0
H395 H 0.64791 0.96453 0.34432 0.0
H396 H 0.51318 0.00609 0.41742 0.0
H397 H 0.52668 0.96688 0.37403 0.0
H398 H 0.55208 0.70953 0.39765 0.0
H399 H 0.5384 0.7488 0.44127 0.0
C400 C 0.48753 0.68631 0.32199 0.0
C401 C 0.54356 0.76318 0.30453 0.0
C402 C 0.48848 0.70933 0.34732 0.0
C403 C 0.54509 0.80985 0.35575 0.0
C404 C 0.6027 0.88646 0.33837 0.0
C405 C 0.60214 0.86336 0.31305 0.0
C406 C 0.52224 0.94143 0.41343 0.0
C407 C 0.52463 0.88049 0.43284 0.0
C408 C 0.53054 0.91931 0.38853 0.0
C409 C 0.54064 0.83521 0.38238 0.0
C410 C 0.54351 0.77439 0.40178 0.0
C411 C 0.53602 0.79707 0.42677 0.0
H412 H 0.87011 0.16072 0.68489 0.0
H413 H 0.58692 0.15507 0.69383 0.0
H414 H 0.84535 0.14564 0.6397 0.0
H415 H 0.55919 0.1356 0.64894 0.0
H416 H 0.56792 0.19114 0.56693 0.0
H417 H 0.60907 0.22021 0.61133 0.0
H418 H 0.75595 0.04054 0.60658 0.0
H419 H 0.72189 0.02006 0.56173 0.0
C420 C 0.80173 0.15449 0.67714 0.0
C421 C 0.73055 0.15936 0.69276 0.0
C422 C 0.78728 0.14574 0.65123 0.0
C423 C 0.70055 0.14023 0.64044 0.0
C424 C 0.62832 0.14256 0.65633 0.0
C425 C 0.64348 0.15261 0.68213 0.0
C426 C 0.61072 0.15991 0.57548 0.0
C427 C 0.64161 0.10326 0.56127 0.0
C428 C 0.63328 0.17519 0.60094 0.0
C429 C 0.68459 0.13138 0.61284 0.0
C430 C 0.71755 0.07663 0.59818 0.0
C431 C 0.69742 0.06398 0.57254 0.0
loop_
_geom_bond_atom_site_label_1
_geom_bond_atom_site_label_2
_geom_bond_distance
_geom_bond_site_symmetry_2
_ccdc_geom_bond_type
C0 C2 1.422 . S
C0 C4 1.415 . S
C0 N6 1.369 . S
C1 C2 1.421 . S
C1 C3 1.417 . S
C1 C13 1.422 . S
C2 C0 1.422 . S
C2 C1 1.421 . S
C2 N12 1.359 . S
C3 C1 1.417 . S
C3 C5 1.329 . S
C3 H22 0.930 . S
C4 C0 1.415 . S
C4 C5 1.437 . S
C4 C8 1.413 . S
C5 C3 1.329 . S
C5 C4 1.437 . S
C5 H27 0.929 . S
N6 C0 1.369 . S
N6 C7 1.338 . S
N6 Gd11 2.622 . S
C7 N6 1.338 . S
C7 C9 1.378 . S
C7 H19 0.929 . S
C8 C4 1.413 . S
C8 C9 1.348 . S
C8 H24 0.931 . S
C9 C7 1.378 . S
C9 C8 1.348 . S
C9 H25 0.930 . S
Gd10 N30 2.622 . S
Gd10 N37 2.570 . S
Gd10 O44 2.353 1_655 S
Gd10 O45 2.468 . S
Gd10 O46 2.427 . S
Gd10 O48 2.388 . S
Gd10 O49 2.386 . S
Gd10 O53 2.307 . S
Gd10 C63 2.805 . S
Gd11 N6 2.622 . S
Gd11 N12 2.570 . S
Gd11 O43 2.386 . S
Gd11 O47 2.307 . S
Gd11 O50 2.353 1_455 S
Gd11 O51 2.468 . S
Gd11 O52 2.427 . S
Gd11 O54 2.388 . S
Gd11 C75 2.805 . S
N12 C2 1.359 . S
N12 Gd11 2.570 . S
N12 C14 1.343 . S
C13 C1 1.422 . S
C13 C15 1.321 . S
C13 H21 0.931 . S
C14 N12 1.343 . S
C14 C15 1.390 . S
C14 H16 0.931 . S
C15 C13 1.321 . S
C15 C14 1.390 . S
C15 H17 0.930 . S
H16 C14 0.931 . S
H17 C15 0.930 . S
H18 C41 0.931 . S
H19 C7 0.929 . S
H20 C42 0.930 . S
H21 C13 0.931 . S
H22 C3 0.930 . S
H23 C32 0.929 . S
H24 C8 0.931 . S
H25 C9 0.930 . S
H26 C64 0.930 . S
H27 C5 0.929 . S
H28 C33 0.931 . S
H29 C34 0.930 . S
N30 Gd10 2.622 . S
N30 C31 1.369 . S
N30 C32 1.338 . S
C31 N30 1.369 . S
C31 C35 1.415 . S
C31 C38 1.422 . S
C32 H23 0.929 . S
C32 N30 1.338 . S
C32 C34 1.378 . S
C33 H28 0.931 . S
C33 C34 1.348 . S
C33 C35 1.413 . S
C34 H29 0.930 . S
C34 C32 1.378 . S
C34 C33 1.348 . S
C35 C31 1.415 . S
C35 C33 1.413 . S
C35 C65 1.437 . S
H36 C65 0.929 . S
N37 Gd10 2.570 . S
N37 C38 1.359 . S
N37 C41 1.343 . S
C38 C31 1.422 . S
C38 N37 1.359 . S
C38 C40 1.421 . S
C39 C40 1.422 . S
C39 C42 1.321 . S
C39 H66 0.931 . S
C40 C38 1.421 . S
C40 C39 1.422 . S
C40 C64 1.417 . S
C41 H18 0.931 . S
C41 N37 1.343 . S
C41 C42 1.390 . S
C42 H20 0.930 . S
C42 C39 1.321 . S
C42 C41 1.390 . S
O43 Gd11 2.386 . S
O43 C55 1.265 . S
O44 Gd10 2.353 1_455 S
O44 C55 1.242 . S
O45 Gd10 2.468 . S
O45 C63 1.263 . S
O46 Gd10 2.427 . S
O46 C63 1.252 . S
O47 Gd11 2.307 . S
O47 C56 1.261 . S
O48 Gd10 2.388 . S
O48 C56 1.252 1_655 S
O49 Gd10 2.386 . S
O49 C67 1.265 . S
O50 Gd11 2.353 1_655 S
O50 C67 1.242 . S
O51 Gd11 2.468 . S
O51 C75 1.263 . S
O52 Gd11 2.427 . S
O52 C75 1.252 . S
O53 Gd10 2.307 . S
O53 C68 1.261 . S
O54 Gd11 2.388 . S
O54 C68 1.252 1_455 S
C55 O43 1.265 . S
C55 O44 1.242 . S
C56 O47 1.261 . S
C56 O48 1.252 1_455 S
C57 C60 1.394 . S
C57 C62 1.370 . S
C57 C63 1.500 . S
C58 C61 1.383 . S
C58 C62 1.395 . S
C59 C60 1.396 . S
C59 C61 1.365 . S
C59 H76 0.929 . S
C60 C57 1.394 . S
C60 C59 1.396 . S
C60 H77 0.930 . S
C61 C58 1.383 . S
C61 C59 1.365 . S
C61 H78 0.931 . S
C62 C57 1.370 . S
C62 C58 1.395 . S
C62 H79 0.930 . S
C63 Gd10 2.805 . S
C63 O45 1.263 . S
C63 O46 1.252 . S
C63 C57 1.500 . S
C64 H26 0.930 . S
C64 C40 1.417 . S
C64 C65 1.329 . S
C65 C35 1.437 . S
C65 H36 0.929 . S
C65 C64 1.329 . S
H66 C39 0.931 . S
C67 O49 1.265 . S
C67 O50 1.242 . S
C68 O53 1.261 . S
C68 O54 1.252 1_655 S
C69 C72 1.394 . S
C69 C74 1.370 . S
C69 C75 1.500 . S
C70 C73 1.383 . S
C70 C74 1.395 . S
C71 C72 1.396 . S
C71 C73 1.365 . S
C71 H80 0.929 . S
C72 C69 1.394 . S
C72 C71 1.396 . S
C72 H81 0.930 . S
C73 C70 1.383 . S
C73 C71 1.365 . S
C73 H82 0.931 . S
C74 C69 1.370 . S
C74 C70 1.395 . S
C74 H83 0.930 . S
C75 Gd11 2.805 . S
C75 O51 1.263 . S
C75 O52 1.252 . S
C75 C69 1.500 . S
H76 C59 0.929 . S
H77 C60 0.930 . S
H78 C61 0.931 . S
H79 C62 0.930 . S
H80 C71 0.929 . S
H81 C72 0.930 . S
H82 C73 0.931 . S
H83 C74 0.930 . S
C84 C86 1.422 . S
C84 C88 1.415 . S
C84 N90 1.369 . S
C85 C86 1.421 . S
C85 C87 1.417 . S
C85 C97 1.422 . S
C86 C84 1.422 . S
C86 C85 1.421 . S
C86 N96 1.359 . S
C87 C85 1.417 . S
C87 C89 1.329 . S
C87 H106 0.930 . S
C88 C84 1.415 . S
C88 C89 1.437 . S
C88 C92 1.413 . S
C89 C87 1.329 . S
C89 C88 1.437 . S
C89 H111 0.929 . S
N90 C84 1.369 . S
N90 C91 1.338 . S
N90 Gd95 2.622 . S
C91 N90 1.338 . S
C91 C93 1.378 . S
C91 H103 0.929 . S
C92 C88 1.413 . S
C92 C93 1.348 . S
C92 H108 0.931 . S
C93 C91 1.378 . S
C93 C92 1.348 . S
C93 H109 0.930 . S
Gd94 N114 2.622 . S
Gd94 N121 2.570 . S
Gd94 O128 2.353 . S
Gd94 O129 2.468 . S
Gd94 O130 2.427 . S
Gd94 O132 2.388 . S
Gd94 O133 2.386 . S
Gd94 O137 2.307 . S
Gd94 C147 2.805 . S
Gd95 N90 2.622 . S
Gd95 N96 2.570 . S
Gd95 O127 2.386 . S
Gd95 O131 2.307 1_565 S
Gd95 O134 2.353 1_565 S
Gd95 O135 2.468 . S
Gd95 O136 2.427 . S
Gd95 O138 2.388 1_565 S
Gd95 C159 2.805 . S
N96 C86 1.359 . S
N96 Gd95 2.570 . S
N96 C98 1.343 . S
C97 C85 1.422 . S
C97 C99 1.321 . S
C97 H105 0.931 . S
C98 N96 1.343 . S
C98 C99 1.390 . S
C98 H100 0.931 . S
C99 C97 1.321 . S
C99 C98 1.390 . S
C99 H101 0.930 . S
H100 C98 0.931 . S
H101 C99 0.930 . S
H102 C125 0.931 . S
H103 C91 0.929 . S
H104 C126 0.930 . S
H105 C97 0.931 . S
H106 C87 0.930 . S
H107 C116 0.929 . S
H108 C92 0.931 . S
H109 C93 0.930 . S
H110 C148 0.930 . S
H111 C89 0.929 . S
H112 C117 0.931 . S
H113 C118 0.930 . S
N114 Gd94 2.622 . S
N114 C115 1.369 . S
N114 C116 1.338 1_655 S
C115 N114 1.369 . S
C115 C119 1.415 1_655 S
C115 C122 1.422 . S
C116 H107 0.929 . S
C116 N114 1.338 1_455 S
C116 C118 1.378 . S
C117 H112 0.931 . S
C117 C118 1.348 . S
C117 C119 1.413 . S
C118 H113 0.930 . S
C118 C116 1.378 . S
C118 C117 1.348 . S
C119 C115 1.415 1_455 S
C119 C117 1.413 . S
C119 C149 1.437 . S
H120 C149 0.929 . S
N121 Gd94 2.570 . S
N121 C122 1.359 . S
N121 C125 1.343 . S
C122 C115 1.422 . S
C122 N121 1.359 . S
C122 C124 1.421 . S
C123 C124 1.422 . S
C123 C126 1.321 . S
C123 H150 0.931 . S
C124 C122 1.421 . S
C124 C123 1.422 . S
C124 C148 1.417 1_655 S
C125 H102 0.931 . S
C125 N121 1.343 . S
C125 C126 1.390 . S
C126 H104 0.930 . S
C126 C123 1.321 . S
C126 C125 1.390 . S
O127 Gd95 2.386 . S
O127 C139 1.265 1_565 S
O128 Gd94 2.353 . S
O128 C139 1.242 . S
O129 Gd94 2.468 . S
O129 C147 1.263 . S
O130 Gd94 2.427 . S
O130 C147 1.252 . S
O131 Gd95 2.307 1_545 S
O131 C140 1.261 . S
O132 Gd94 2.388 . S
O132 C140 1.252 . S
O133 Gd94 2.386 . S
O133 C151 1.265 . S
O134 Gd95 2.353 1_545 S
O134 C151 1.242 . S
O135 Gd95 2.468 . S
O135 C159 1.263 . S
O136 Gd95 2.427 . S
O136 C159 1.252 . S
O137 Gd94 2.307 . S
O137 C152 1.261 . S
O138 Gd95 2.388 1_545 S
O138 C152 1.252 . S
C139 O127 1.265 1_545 S
C139 O128 1.242 . S
C140 O131 1.261 . S
C140 O132 1.252 . S
C141 C144 1.394 . S
C141 C146 1.370 . S
C141 C147 1.500 . S
C142 C145 1.383 . S
C142 C146 1.395 . S
C143 C144 1.396 . S
C143 C145 1.365 . S
C143 H160 0.929 . S
C144 C141 1.394 . S
C144 C143 1.396 . S
C144 H161 0.930 . S
C145 C142 1.383 . S
C145 C143 1.365 . S
C145 H162 0.931 . S
C146 C141 1.370 . S
C146 C142 1.395 . S
C146 H163 0.930 . S
C147 Gd94 2.805 . S
C147 O129 1.263 . S
C147 O130 1.252 . S
C147 C141 1.500 . S
C148 H110 0.930 . S
C148 C124 1.417 1_455 S
C148 C149 1.329 . S
C149 C119 1.437 . S
C149 H120 0.929 . S
C149 C148 1.329 . S
H150 C123 0.931 . S
C151 O133 1.265 . S
C151 O134 1.242 . S
C152 O137 1.261 . S
C152 O138 1.252 . S
C153 C156 1.394 . S
C153 C158 1.370 . S
C153 C159 1.500 . S
C154 C157 1.383 . S
C154 C158 1.395 . S
C155 C156 1.396 . S
C155 C157 1.365 . S
C155 H164 0.929 . S
C156 C153 1.394 . S
C156 C155 1.396 . S
C156 H165 0.930 . S
C157 C154 1.383 . S
C157 C155 1.365 . S
C157 H166 0.931 . S
C158 C153 1.370 . S
C158 C154 1.395 . S
C158 H167 0.930 . S
C159 Gd95 2.805 . S
C159 O135 1.263 . S
C159 O136 1.252 . S
C159 C153 1.500 . S
H160 C143 0.929 . S
H161 C144 0.930 . S
H162 C145 0.931 . S
H163 C146 0.930 . S
H164 C155 0.929 . S
H165 C156 0.930 . S
H166 C157 0.931 . S
H167 C158 0.930 . S
C168 C170 1.422 . S
C168 C172 1.415 . S
C168 N174 1.369 . S
C169 C170 1.421 . S
C169 C171 1.417 . S
C169 C181 1.422 . S
C170 C168 1.422 . S
C170 C169 1.421 . S
C170 N180 1.359 . S
C171 C169 1.417 . S
C171 C173 1.329 . S
C171 H190 0.930 . S
C172 C168 1.415 . S
C172 C173 1.437 . S
C172 C176 1.413 . S
C173 C171 1.329 . S
C173 C172 1.437 . S
C173 H195 0.929 . S
N174 C168 1.369 . S
N174 C175 1.338 . S
N174 Gd179 2.622 . S
C175 N174 1.338 . S
C175 C177 1.378 . S
C175 H187 0.929 . S
C176 C172 1.413 . S
C176 C177 1.348 . S
C176 H192 0.931 . S
C177 C175 1.378 . S
C177 C176 1.348 . S
C177 H193 0.930 . S
Gd178 N198 2.622 . S
Gd178 N205 2.570 . S
Gd178 O212 2.353 . S
Gd178 O213 2.468 . S
Gd178 O214 2.427 . S
Gd178 O216 2.388 . S
Gd178 O217 2.386 . S
Gd178 O221 2.307 . S
Gd178 C231 2.805 . S
Gd179 N174 2.622 . S
Gd179 N180 2.570 . S
Gd179 O211 2.386 . S
Gd179 O215 2.307 . S
Gd179 O218 2.353 . S
Gd179 O219 2.468 . S
Gd179 O220 2.427 . S
Gd179 O222 2.388 . S
Gd179 C243 2.805 . S
N180 C170 1.359 . S
N180 Gd179 2.570 . S
N180 C182 1.343 . S
C181 C169 1.422 . S
C181 C183 1.321 . S
C181 H189 0.931 . S
C182 N180 1.343 . S
C182 C183 1.390 . S
C182 H184 0.931 . S
C183 C181 1.321 . S
C183 C182 1.390 . S
C183 H185 0.930 . S
H184 C182 0.931 . S
H185 C183 0.930 . S
H186 C209 0.931 . S
H187 C175 0.929 . S
H188 C210 0.930 . S
H189 C181 0.931 . S
H190 C171 0.930 . S
H191 C200 0.929 . S
H192 C176 0.931 . S
H193 C177 0.930 . S
H194 C232 0.930 . S
H195 C173 0.929 . S
H196 C201 0.931 . S
H197 C202 0.930 . S
N198 Gd178 2.622 . S
N198 C199 1.369 . S
N198 C200 1.338 . S
C199 N198 1.369 . S
C199 C203 1.415 . S
C199 C206 1.422 . S
C200 H191 0.929 . S
C200 N198 1.338 . S
C200 C202 1.378 1_545 S
C201 H196 0.931 . S
C201 C202 1.348 . S
C201 C203 1.413 1_565 S
C202 H197 0.930 . S
C202 C200 1.378 1_565 S
C202 C201 1.348 . S
C203 C199 1.415 . S
C203 C201 1.413 1_545 S
C203 C233 1.437 . S
H204 C233 0.929 1_565 S
N205 Gd178 2.570 . S
N205 C206 1.359 . S
N205 C209 1.343 . S
C206 C199 1.422 . S
C206 N205 1.359 . S
C206 C208 1.421 . S
C207 C208 1.422 1_455 S
C207 C210 1.321 . S
C207 H234 0.931 . S
C208 C206 1.421 . S
C208 C207 1.422 1_655 S
C208 C232 1.417 . S
C209 H186 0.931 . S
C209 N205 1.343 . S
C209 C210 1.390 1_655 S
C210 H188 0.930 . S
C210 C207 1.321 . S
C210 C209 1.390 1_455 S
O211 Gd179 2.386 . S
O211 C223 1.265 . S
O212 Gd178 2.353 . S
O212 C223 1.242 . S
O213 Gd178 2.468 . S
O213 C231 1.263 . S
O214 Gd178 2.427 . S
O214 C231 1.252 . S
O215 Gd179 2.307 . S
O215 C224 1.261 . S
O216 Gd178 2.388 . S
O216 C224 1.252 . S
O217 Gd178 2.386 . S
O217 C235 1.265 . S
O218 Gd179 2.353 . S
O218 C235 1.242 . S
O219 Gd179 2.468 . S
O219 C243 1.263 . S
O220 Gd179 2.427 . S
O220 C243 1.252 . S
O221 Gd178 2.307 . S
O221 C236 1.261 . S
O222 Gd179 2.388 . S
O222 C236 1.252 . S
C223 O211 1.265 . S
C223 O212 1.242 . S
C224 O215 1.261 . S
C224 O216 1.252 . S
C225 C228 1.394 . S
C225 C230 1.370 . S
C225 C231 1.500 . S
C226 C229 1.383 . S
C226 C230 1.395 . S
C227 C228 1.396 . S
C227 C229 1.365 . S
C227 H244 0.929 . S
C228 C225 1.394 . S
C228 C227 1.396 . S
C228 H245 0.930 . S
C229 C226 1.383 . S
C229 C227 1.365 . S
C229 H246 0.931 . S
C230 C225 1.370 . S
C230 C226 1.395 . S
C230 H247 0.930 . S
C231 Gd178 2.805 . S
C231 O213 1.263 . S
C231 O214 1.252 . S
C231 C225 1.500 . S
C232 H194 0.930 . S
C232 C208 1.417 . S
C232 C233 1.329 . S
C233 C203 1.437 . S
C233 H204 0.929 1_545 S
C233 C232 1.329 . S
H234 C207 0.931 . S
C235 O217 1.265 . S
C235 O218 1.242 . S
C236 O221 1.261 . S
C236 O222 1.252 . S
C237 C240 1.394 . S
C237 C242 1.370 . S
C237 C243 1.500 . S
C238 C241 1.383 . S
C238 C242 1.395 . S
C239 C240 1.396 . S
C239 C241 1.365 . S
C239 H248 0.929 . S
C240 C237 1.394 . S
C240 C239 1.396 . S
C240 H249 0.930 . S
C241 C238 1.383 . S
C241 C239 1.365 . S
C241 H250 0.931 . S
C242 C237 1.370 . S
C242 C238 1.395 . S
C242 H251 0.930 . S
C243 Gd179 2.805 . S
C243 O219 1.263 . S
C243 O220 1.252 . S
C243 C237 1.500 . S
H244 C227 0.929 . S
H245 C228 0.930 . S
H246 C229 0.931 . S
H247 C230 0.930 . S
H248 C239 0.929 . S
H249 C240 0.930 . S
H250 C241 0.931 . S
H251 C242 0.930 . S
H252 C260 0.950 . S
H253 C265 0.950 . S
H254 C262 0.950 . S
H255 C264 0.950 . S
H256 C266 0.950 . S
H257 C268 0.950 . S
H258 C270 0.950 . S
H259 C271 0.950 . S
C260 H252 0.950 . S
C260 C261 1.386 1_655 S
C260 C262 1.391 . S
C261 C260 1.386 1_455 S
C261 C265 1.393 . S
C262 H254 0.950 . S
C262 C260 1.391 . S
C262 C263 1.400 1_655 S
C263 C262 1.400 1_455 S
C263 C264 1.398 . S
C263 C269 1.491 1_455 S
C264 H255 0.950 . S
C264 C263 1.398 . S
C264 C265 1.391 . S
C265 H253 0.950 . S
C265 C261 1.393 . S
C265 C264 1.391 . S
C266 H256 0.950 . S
C266 C267 1.386 1_455 S
C266 C268 1.391 . S
C267 C266 1.386 1_655 S
C267 C271 1.393 . S
C268 H257 0.950 . S
C268 C266 1.391 . S
C268 C269 1.400 1_445 S
C269 C263 1.491 1_655 S
C269 C268 1.400 1_665 S
C269 C270 1.398 . S
C270 H258 0.950 . S
C270 C269 1.398 . S
C270 C271 1.391 1_565 S
C271 H259 0.950 . S
C271 C267 1.393 . S
C271 C270 1.391 1_545 S
H272 C280 0.962 . S
H273 C285 0.950 . S
H274 C282 0.950 1_565 S
H275 C284 0.950 . S
H276 C286 0.950 . S
H277 C288 0.950 . S
H278 C290 0.950 1_565 S
H279 C291 0.950 1_565 S
C280 H272 0.962 . S
C280 C281 1.386 . S
C280 C282 1.391 . S
C281 C280 1.386 . S
C281 C285 1.393 . S
C282 H274 0.950 1_545 S
C282 C280 1.391 . S
C282 C283 1.400 . S
C283 C282 1.400 . S
C283 C284 1.398 . S
C283 C289 1.491 . S
C284 H275 0.950 . S
C284 C283 1.398 . S
C284 C285 1.391 . S
C285 H273 0.950 . S
C285 C281 1.393 . S
C285 C284 1.391 . S
C286 H276 0.950 . S
C286 C287 1.386 1_455 S
C286 C288 1.391 . S
C287 C286 1.386 1_655 S
C287 C291 1.393 . S
C288 H277 0.950 . S
C288 C286 1.391 . S
C288 C289 1.400 . S
C289 C283 1.491 . S
C289 C288 1.400 . S
C289 C290 1.398 . S
C290 H278 0.950 1_545 S
C290 C289 1.398 . S
C290 C291 1.391 1_455 S
C291 H279 0.950 1_545 S
C291 C287 1.393 . S
C291 C290 1.391 1_655 S
H292 C300 0.950 . S
H293 C305 0.950 . S
H294 C302 0.950 . S
H295 C304 0.950 . S
H296 C306 0.950 . S
H297 C308 0.950 . S
H298 C310 0.950 . S
H299 C311 0.950 . S
C300 H292 0.950 . S
C300 C301 1.386 . S
C300 C302 1.391 1_655 S
C301 C300 1.386 . S
C301 C305 1.393 1_655 S
C302 H294 0.950 . S
C302 C300 1.391 1_455 S
C302 C303 1.400 . S
C303 C302 1.400 . S
C303 C304 1.398 . S
C303 C309 1.491 . S
C304 H295 0.950 . S
C304 C303 1.398 . S
C304 C305 1.391 . S
C305 H293 0.950 . S
C305 C301 1.393 1_455 S
C305 C304 1.391 . S
C306 H296 0.950 . S
C306 C307 1.386 . S
C306 C308 1.391 1_545 S
C307 C306 1.386 . S
C307 C311 1.393 . S
C308 H297 0.950 . S
C308 C306 1.391 1_565 S
C308 C309 1.400 . S
C309 C303 1.491 . S
C309 C308 1.400 . S
C309 C310 1.398 1_565 S
C310 H298 0.950 . S
C310 C309 1.398 1_545 S
C310 C311 1.391 . S
C311 H299 0.950 . S
C311 C307 1.393 . S
C311 C310 1.391 . S
H312 C320 0.950 . S
H313 C325 0.950 . S
H314 C322 0.950 . S
H315 C324 0.950 . S
H316 C326 0.950 . S
H317 C328 0.950 . S
H318 C330 0.950 . S
H319 C331 0.950 . S
C320 H312 0.950 . S
C320 C321 1.386 1_554 S
C320 C322 1.391 . S
C321 C320 1.386 1_556 S
C321 C325 1.393 . S
C322 H314 0.950 . S
C322 C320 1.391 . S
C322 C323 1.400 . S
C323 C322 1.400 . S
C323 C324 1.398 . S
C323 C329 1.491 . S
C324 H315 0.950 . S
C324 C323 1.398 . S
C324 C325 1.391 1_554 S
C325 H313 0.950 . S
C325 C321 1.393 . S
C325 C324 1.391 1_556 S
C326 H316 0.950 . S
C326 C327 1.386 . S
C326 C328 1.391 . S
C327 C326 1.386 . S
C327 C331 1.393 . S
C328 H317 0.950 . S
C328 C326 1.391 . S
C328 C329 1.400 . S
C329 C323 1.491 . S
C329 C328 1.400 . S
C329 C330 1.398 . S
C330 H318 0.950 . S
C330 C329 1.398 . S
C330 C331 1.391 . S
C331 H319 0.950 . S
C331 C327 1.393 . S
C331 C330 1.391 . S
H332 C340 0.950 . S
H333 C345 0.950 . S
H334 C342 0.950 . S
H335 C344 0.950 . S
H336 C346 0.950 . S
H337 C348 0.950 . S
H338 C350 0.950 . S
H339 C351 0.950 . S
C340 H332 0.950 . S
C340 C341 1.386 . S
C340 C342 1.391 . S
C341 C340 1.386 . S
C341 C345 1.393 . S
C342 H334 0.950 . S
C342 C340 1.391 . S
C342 C343 1.400 . S
C343 C342 1.400 . S
C343 C344 1.398 . S
C343 C349 1.491 . S
C344 H335 0.950 . S
C344 C343 1.398 . S
C344 C345 1.391 . S
C345 H333 0.950 . S
C345 C341 1.393 . S
C345 C344 1.391 . S
C346 H336 0.950 . S
C346 C347 1.386 . S
C346 C348 1.391 . S
C347 C346 1.386 . S
C347 C351 1.393 . S
C348 H337 0.950 . S
C348 C346 1.391 . S
C348 C349 1.400 . S
C349 C343 1.491 . S
C349 C348 1.400 . S
C349 C350 1.398 . S
C350 H338 0.950 . S
C350 C349 1.398 . S
C350 C351 1.391 . S
C351 H339 0.950 . S
C351 C347 1.393 . S
C351 C350 1.391 . S
H352 C360 0.950 . S
H353 C365 0.950 . S
H354 C362 0.950 . S
H355 C364 0.950 . S
H356 C366 0.950 . S
H357 C368 0.950 . S
H358 C370 0.950 . S
H359 C371 0.950 . S
C360 H352 0.950 . S
C360 C361 1.386 . S
C360 C362 1.391 . S
C361 C360 1.386 . S
C361 C365 1.393 . S
C362 H354 0.950 . S
C362 C360 1.391 . S
C362 C363 1.400 . S
C363 C362 1.400 . S
C363 C364 1.398 . S
C363 C369 1.491 . S
C364 H355 0.950 . S
C364 C363 1.398 . S
C364 C365 1.391 . S
C365 H353 0.950 . S
C365 C361 1.393 . S
C365 C364 1.391 . S
C366 H356 0.950 . S
C366 C367 1.386 . S
C366 C368 1.391 . S
C367 C366 1.386 . S
C367 C371 1.393 . S
C368 H357 0.950 . S
C368 C366 1.391 . S
C368 C369 1.400 . S
C369 C363 1.491 . S
C369 C368 1.400 . S
C369 C370 1.398 . S
C370 H358 0.950 . S
C370 C369 1.398 . S
C370 C371 1.391 . S
C371 H359 0.950 . S
C371 C367 1.393 . S
C371 C370 1.391 . S
H372 C380 0.950 . S
H373 C385 0.950 . S
H374 C382 0.950 . S
H375 C384 0.950 . S
H376 C386 0.950 . S
H377 C388 0.950 . S
H378 C390 0.950 . S
H379 C391 0.950 . S
C380 H372 0.950 . S
C380 C381 1.386 . S
C380 C382 1.391 . S
C381 C380 1.386 . S
C381 C385 1.393 . S
C382 H374 0.950 . S
C382 C380 1.391 . S
C382 C383 1.400 . S
C383 C382 1.400 . S
C383 C384 1.398 . S
C383 C389 1.491 . S
C384 H375 0.950 . S
C384 C383 1.398 . S
C384 C385 1.391 . S
C385 H373 0.950 . S
C385 C381 1.393 . S
C385 C384 1.391 . S
C386 H376 0.950 . S
C386 C387 1.386 . S
C386 C388 1.391 1_554 S
C387 C386 1.386 . S
C387 C391 1.393 . S
C388 H377 0.950 . S
C388 C386 1.391 1_556 S
C388 C389 1.400 . S
C389 C383 1.491 . S
C389 C388 1.400 . S
C389 C390 1.398 . S
C390 H378 0.950 . S
C390 C389 1.398 . S
C390 C391 1.391 1_556 S
C391 H379 0.950 . S
C391 C387 1.393 . S
C391 C390 1.391 1_554 S
H392 C400 0.950 . S
H393 C405 0.950 . S
H394 C402 0.950 . S
H395 C404 0.950 . S
H396 C406 0.950 . S
H397 C408 0.950 1_545 S
H398 C410 0.950 . S
H399 C411 0.950 . S
C400 H392 0.950 . S
C400 C401 1.386 . S
C400 C402 1.391 . S
C401 C400 1.386 . S
C401 C405 1.393 . S
C402 H394 0.950 . S
C402 C400 1.391 . S
C402 C403 1.400 . S
C403 C402 1.400 . S
C403 C404 1.398 . S
C403 C409 1.491 . S
C404 H395 0.950 . S
C404 C403 1.398 . S
C404 C405 1.391 . S
C405 H393 0.950 . S
C405 C401 1.393 . S
C405 C404 1.391 . S
C406 H396 0.950 . S
C406 C407 1.386 1_545 S
C406 C408 1.391 1_545 S
C407 C406 1.386 1_565 S
C407 C411 1.393 . S
C408 H397 0.950 1_565 S
C408 C406 1.391 1_565 S
C408 C409 1.400 . S
C409 C403 1.491 . S
C409 C408 1.400 . S
C409 C410 1.398 . S
C410 H398 0.950 . S
C410 C409 1.398 . S
C410 C411 1.391 . S
C411 H399 0.950 . S
C411 C407 1.393 . S
C411 C410 1.391 . S
H412 C420 0.950 1_455 S
H413 C425 0.950 . S
H414 C422 0.950 . S
H415 C424 0.950 . S
H416 C426 0.950 . S
H417 C428 0.950 . S
H418 C430 0.950 . S
H419 C431 0.950 . S
C420 H412 0.950 1_655 S
C420 C421 1.386 . S
C420 C422 1.391 . S
C421 C420 1.386 . S
C421 C425 1.393 . S
C422 H414 0.950 . S
C422 C420 1.391 . S
C422 C423 1.400 . S
C423 C422 1.400 . S
C423 C424 1.398 . S
C423 C429 1.491 . S
C424 H415 0.950 . S
C424 C423 1.398 . S
C424 C425 1.391 . S
C425 H413 0.950 . S
C425 C421 1.393 . S
C425 C424 1.391 . S
C426 H416 0.950 . S
C426 C427 1.386 . S
C426 C428 1.391 . S
C427 C426 1.386 . S
C427 C431 1.393 . S
C428 H417 0.950 . S
C428 C426 1.391 . S
C428 C429 1.400 . S
C429 C423 1.491 . S
C429 C428 1.400 . S
C429 C430 1.398 . S
C430 H418 0.950 . S
C430 C429 1.398 . S
C430 C431 1.391 . S
C431 H419 0.950 . S
C431 C427 1.393 . S
C431 C430 1.391 . S
C261 C56 1.542 . S
C267 C68 1.542 . S
C281 C152 1.525 . S
C287 C140 1.525 . S
C301 C236 1.524 . S
C307 C224 1.524 . S
C321 C238 1.415 . S
C327 C55 1.563 . S
C341 C142 0.987 . S
C347 C67 1.381 . S
C361 C223 1.570 . S
C367 C154 1.435 . S
C381 C235 1.390 . S
C387 C58 0.984 . S
C401 C70 1.428 . S
C407 C139 1.567 1_565 S
C421 C226 0.983 . S
C427 C151 1.384 . S
