# Generated by pormake.
# Topology und, (4)-cn, num edge types: 1
# Building blocks:
#     Node 0, Type 0, BuildingBlock: QUQFOY_clean_sbu_1, # of connection points: 4
#     Node 1, Type 0, BuildingBlock: QUQFOY_clean_sbu_1, # of connection points: 4
#     Node 2, Type 0, BuildingBlock: QUQFOY_clean_sbu_1, # of connection points: 4
#     Node 3, Type 0, BuildingBlock: QUQFOY_clean_sbu_1, # of connection points: 4
#     Node 4, Type 0, BuildingBlock: QUQFOY_clean_sbu_1, # of connection points: 4
#     Node 5, Type 0, BuildingBlock: QUQFOY_clean_sbu_1, # of connection points: 4
#     Node 6, Type 0, BuildingBlock: QUQFOY_clean_sbu_1, # of connection points: 4
#     Node 7, Type 0, BuildingBlock: QUQFOY_clean_sbu_1, # of connection points: 4
#     Node 8, Type 0, BuildingBlock: QUQFOY_clean_sbu_1, # of connection points: 4
#     Node 9, Type 0, BuildingBlock: QUQFOY_clean_sbu_1, # of connection points: 4
#     Node 10, Type 0, BuildingBlock: QUQFOY_clean_sbu_1, # of connection points: 4
#     Node 11, Type 0, BuildingBlock: QUQFOY_clean_sbu_1, # of connection points: 4
#     Node 12, Type 0, BuildingBlock: QUQFOY_clean_sbu_1, # of connection points: 4
#     Node 13, Type 0, BuildingBlock: QUQFOY_clean_sbu_1, # of connection points: 4
#     Node 14, Type 0, BuildingBlock: QUQFOY_clean_sbu_1, # of connection points: 4
#     Node 15, Type 0, BuildingBlock: QUQFOY_clean_sbu_1, # of connection points: 4
#     Edge 16, Type (0, 0), BuildingBlock: AJUNOK_clean_linker_0, # of connection points: 2
#     Edge 17, Type (0, 0), BuildingBlock: AJUNOK_clean_linker_0, # of connection points: 2
#     Edge 18, Type (0, 0), BuildingBlock: AJUNOK_clean_linker_0, # of connection points: 2
#     Edge 19, Type (0, 0), BuildingBlock: AJUNOK_clean_linker_0, # of connection points: 2
#     Edge 20, Type (0, 0), BuildingBlock: AJUNOK_clean_linker_0, # of connection points: 2
#     Edge 21, Type (0, 0), BuildingBlock: AJUNOK_clean_linker_0, # of connection points: 2
#     Edge 22, Type (0, 0), BuildingBlock: AJUNOK_clean_linker_0, # of connection points: 2
#     Edge 23, Type (0, 0), BuildingBlock: AJUNOK_clean_linker_0, # of connection points: 2
#     Edge 24, Type (0, 0), BuildingBlock: AJUNOK_clean_linker_0, # of connection points: 2
#     Edge 25, Type (0, 0), BuildingBlock: AJUNOK_clean_linker_0, # of connection points: 2
#     Edge 26, Type (0, 0), BuildingBlock: AJUNOK_clean_linker_0, # of connection points: 2
#     Edge 27, Type (0, 0), BuildingBlock: AJUNOK_clean_linker_0, # of connection points: 2
#     Edge 28, Type (0, 0), BuildingBlock: AJUNOK_clean_linker_0, # of connection points: 2
#     Edge 29, Type (0, 0), BuildingBlock: AJUNOK_clean_linker_0, # of connection points: 2
#     Edge 30, Type (0, 0), BuildingBlock: AJUNOK_clean_linker_0, # of connection points: 2
#     Edge 31, Type (0, 0), BuildingBlock: AJUNOK_clean_linker_0, # of connection points: 2
#     Edge 32, Type (0, 0), BuildingBlock: AJUNOK_clean_linker_0, # of connection points: 2
#     Edge 33, Type (0, 0), BuildingBlock: AJUNOK_clean_linker_0, # of connection points: 2
#     Edge 34, Type (0, 0), BuildingBlock: AJUNOK_clean_linker_0, # of connection points: 2
#     Edge 35, Type (0, 0), BuildingBlock: AJUNOK_clean_linker_0, # of connection points: 2
#     Edge 36, Type (0, 0), BuildingBlock: AJUNOK_clean_linker_0, # of connection points: 2
#     Edge 37, Type (0, 0), BuildingBlock: AJUNOK_clean_linker_0, # of connection points: 2
#     Edge 38, Type (0, 0), BuildingBlock: AJUNOK_clean_linker_0, # of connection points: 2
#     Edge 39, Type (0, 0), BuildingBlock: AJUNOK_clean_linker_0, # of connection points: 2
#     Edge 40, Type (0, 0), BuildingBlock: AJUNOK_clean_linker_0, # of connection points: 2
#     Edge 41, Type (0, 0), BuildingBlock: AJUNOK_clean_linker_0, # of connection points: 2
#     Edge 42, Type (0, 0), BuildingBlock: AJUNOK_clean_linker_0, # of connection points: 2
#     Edge 43, Type (0, 0), BuildingBlock: AJUNOK_clean_linker_0, # of connection points: 2
#     Edge 44, Type (0, 0), BuildingBlock: AJUNOK_clean_linker_0, # of connection points: 2
#     Edge 45, Type (0, 0), BuildingBlock: AJUNOK_clean_linker_0, # of connection points: 2
#     Edge 46, Type (0, 0), BuildingBlock: AJUNOK_clean_linker_0, # of connection points: 2
#     Edge 47, Type (0, 0), BuildingBlock: AJUNOK_clean_linker_0, # of connection points: 2
# Relax obj value: 0.055
# Max RMSD: 0.107
# Mean RMSD: 0.089
data_MOF--net-und--node1-QUQFOY_clean_sbu_1--edge1-AJUNOK_clean_linker_0
_symmetry_space_group_name_H-M    P1
_symmetry_Int_Tables_number       1
_symmetry_cell_setting            triclinic
loop_
_symmetry_equiv_pos_as_xyz
'x, y, z'
_cell_length_a     45.236017
_cell_length_b     45.229338
_cell_length_c     17.143489
_cell_angle_alpha  90.008101
_cell_angle_beta   90.045773
_cell_angle_gamma 93.184181
loop_
_atom_site_label
_atom_site_type_symbol
_atom_site_fract_x
_atom_site_fract_y
_atom_site_fract_z
_atom_type_partial_charge
O0 O 0.29422 0.37189 0.91611 0.0
Cd1 Cd 0.29808 0.39896 0.01022 0.0
Cd2 Cd 0.25267 0.42366 0.94686 0.0
O3 O 0.24968 0.38439 0.88218 0.0
O4 O 0.32056 0.37568 0.08601 0.0
O5 O 0.2738 0.38617 0.10291 0.0
C6 C 0.29639 0.37221 0.12567 0.0
C7 C 0.21513 0.44099 0.02623 0.0
C8 C 0.27129 0.36768 0.8743 0.0
C9 C 0.31147 0.45781 0.94168 0.0
O10 O 0.28537 0.45509 0.91401 0.0
O11 O 0.32056 0.43887 0.98961 0.0
O12 O 0.21412 0.44358 0.95125 0.0
O13 O 0.23676 0.42716 0.05547 0.0
O14 O 0.90049 0.07039 0.35078 0.0
Cd15 Cd 0.93137 0.10261 0.31327 0.0
Cd16 Cd 0.95277 0.05683 0.24488 0.0
O17 O 0.91008 0.03861 0.25777 0.0
O18 O 0.91253 0.14193 0.30616 0.0
O19 O 0.9266 0.11669 0.20368 0.0
C20 C 0.91424 0.13948 0.23116 0.0
C21 C 0.98075 0.06109 0.13122 0.0
C22 C 0.89396 0.04648 0.31411 0.0
C23 C 0.98605 0.08041 0.38082 0.0
O24 O 0.97879 0.05718 0.34231 0.0
O25 O 0.97202 0.1038 0.37055 0.0
O26 O 0.97531 0.03564 0.16393 0.0
O27 O 0.96824 0.08357 0.1599 0.0
O28 O 0.26776 0.78003 0.41253 0.0
Cd29 Cd 0.26392 0.7532 0.50717 0.0
Cd30 Cd 0.308 0.7273 0.44052 0.0
O31 O 0.31145 0.76629 0.37507 0.0
O32 O 0.24136 0.77704 0.58151 0.0
O33 O 0.2879 0.76632 0.60046 0.0
C34 C 0.26534 0.78054 0.62197 0.0
C35 C 0.34488 0.71025 0.52242 0.0
C36 C 0.29022 0.78357 0.36881 0.0
C37 C 0.2485 0.69462 0.43851 0.0
O38 O 0.27438 0.6966 0.40934 0.0
O39 O 0.24051 0.71366 0.48769 0.0
O40 O 0.34611 0.70665 0.44771 0.0
O41 O 0.32337 0.72474 0.5497 0.0
O42 O 0.65808 0.07879 0.85002 0.0
Cd43 Cd 0.62672 0.04711 0.81216 0.0
Cd44 Cd 0.60709 0.09246 0.73971 0.0
O45 O 0.65 0.10994 0.7544 0.0
O46 O 0.64483 1.00754 0.80366 0.0
O47 O 0.63118 0.0336 0.70207 0.0
C48 C 0.6433 1.01051 0.72874 0.0
C49 C 0.57917 0.09137 0.62545 0.0
C50 C 0.66547 0.10223 0.81228 0.0
C51 C 0.5725 0.07073 0.87626 0.0
O52 O 0.58047 0.09322 0.83577 0.0
O53 O 0.58603 0.0469 0.86875 0.0
O54 O 0.58586 0.11595 0.66116 0.0
O55 O 0.59052 0.06774 0.65129 0.0
O56 O 0.8047 0.78366 0.91195 0.0
Cd57 Cd 0.81081 0.75291 -0.00217 0.0
Cd58 Cd 0.75419 0.74949 0.98853 0.0
O59 O 0.75933 0.76843 0.87938 0.0
O60 O 0.8525 0.74204 0.98231 0.0
O61 O 0.8141 0.71071 0.9615 0.0
C62 C 0.84236 0.7166 0.95689 0.0
C63 C 0.72306 0.70989 0.02896 0.0
C64 C 0.78259 0.78485 0.8666 0.0
C65 C 0.78034 0.78093 0.12578 0.0
O66 O 0.7591 0.77905 0.07761 0.0
O67 O 0.80407 0.76805 0.11098 0.0
O68 O 0.71272 0.73419 0.00406 0.0
O69 O 0.75117 0.70676 0.02182 0.0
O70 O 0.07129 0.04932 0.84219 0.0
Cd71 Cd 0.10187 0.04307 0.75608 0.0
Cd72 Cd 0.10474 0.10007 0.76413 0.0
O73 O 0.08603 0.095 0.87347 0.0
O74 O 0.11282 1.00148 0.77285 0.0
O75 O 0.14416 0.04001 0.792 0.0
C76 C 0.13828 1.01177 0.79776 0.0
C77 C 0.14211 0.13371 0.72201 0.0
C78 C 0.06992 0.07158 0.88692 0.0
C79 C 0.07324 0.07275 0.62797 0.0
O80 O 0.07505 0.09411 0.67574 0.0
O81 O 0.08636 0.04918 0.64294 0.0
O82 O 0.11729 0.14228 0.7482 0.0
O83 O 0.14725 0.106 0.72937 0.0
O84 O 0.75189 0.36643 0.41532 0.0
Cd85 Cd 0.7481 0.39809 0.49992 0.0
Cd86 Cd 0.80446 0.39751 0.48922 0.0
O87 O 0.79763 0.37886 0.3801 0.0
O88 O 0.70732 0.41157 0.48372 0.0
O89 O 0.74759 0.44032 0.46202 0.0
C90 C 0.71912 0.43624 0.45743 0.0
C91 C 0.83835 0.4349 0.52966 0.0
C92 C 0.77334 0.3639 0.36856 0.0
C93 C 0.77664 0.36804 0.62724 0.0
O94 O 0.79766 0.36822 0.5784 0.0
O95 O 0.75421 0.38306 0.61337 0.0
O96 O 0.84678 0.4099 0.50409 0.0
O97 O 0.81064 0.44009 0.5228 0.0
O98 O 0.48695 0.10368 0.33648 0.0
Cd99 Cd 0.45572 0.10844 0.2513 0.0
Cd100 Cd 0.45516 0.05208 0.26152 0.0
O101 O 0.47358 0.05808 0.37119 0.0
O102 O 0.44457 0.15004 0.26681 0.0
O103 O 0.41365 0.11145 0.28901 0.0
C104 C 0.41944 0.13972 0.2937 0.0
C105 C 0.41587 1.02086 0.21976 0.0
C106 C 0.4889 0.08212 0.38319 0.0
C107 C 0.48571 0.0794 0.12463 0.0
O108 O 0.48489 0.05824 0.17316 0.0
O109 O 0.47106 0.10211 0.13828 0.0
O110 O 0.44021 1.01056 0.24474 0.0
O111 O 0.41255 0.04893 0.22748 0.0
O112 O 0.79607 0.87525 0.41129 0.0
Cd113 Cd 0.79682 0.90168 0.50787 0.0
Cd114 Cd 0.75054 0.92221 0.44173 0.0
O115 O 0.74913 0.88131 0.38574 0.0
O116 O 0.81807 0.87944 0.58921 0.0
O117 O 0.77013 0.88666 0.59335 0.0
C118 C 0.79262 0.8741 0.62201 0.0
C119 C 0.71336 0.94044 0.52108 0.0
C120 C 0.7726 0.86756 0.37428 0.0
C121 C 0.80671 0.95969 0.43531 0.0
O122 O 0.78235 0.9529 0.40103 0.0
O123 O 0.81507 0.94424 0.49247 0.0
O124 O 0.71119 0.94095 0.44591 0.0
O125 O 0.73601 0.92838 0.5506 0.0
O126 O 0.40056 0.56888 0.83763 0.0
Cd127 Cd 0.43227 0.60138 0.80573 0.0
Cd128 Cd 0.45542 0.55647 0.73603 0.0
O129 O 0.41519 0.53456 0.75686 0.0
O130 O 0.41303 0.64033 0.80282 0.0
O131 O 0.42867 0.61769 0.6977 0.0
C132 C 0.41527 0.63945 0.72772 0.0
C133 C 0.48193 0.55802 0.62008 0.0
C134 C 0.39696 0.54328 0.80722 0.0
C135 C 0.48829 0.58076 0.87295 0.0
O136 O 0.48316 0.55859 0.82901 0.0
O137 O 0.47199 0.60284 0.86854 0.0
O138 O 0.47774 0.53371 0.65883 0.0
O139 O 0.46868 0.58091 0.64382 0.0
O140 O 0.76161 0.27362 0.91613 0.0
Cd141 Cd 0.76175 0.24645 0.01116 0.0
Cd142 Cd 0.80788 0.22759 0.94177 0.0
O143 O 0.80835 0.26864 0.88671 0.0
O144 O 0.73842 0.2674 0.09045 0.0
O145 O 0.78658 0.26217 0.10015 0.0
C146 C 0.76307 0.27365 0.12635 0.0
C147 C 0.84483 0.20996 0.02278 0.0
C148 C 0.78448 0.282 0.8777 0.0
C149 C 0.75256 0.1889 0.93521 0.0
O150 O 0.77661 0.19645 0.90042 0.0
O151 O 0.74422 0.20374 0.99353 0.0
O152 O 0.84755 0.20961 0.94772 0.0
O153 O 0.8218 0.22166 0.05125 0.0
O154 O 0.15994 0.58272 0.3427 0.0
Cd155 Cd 0.129 0.54902 0.31418 0.0
Cd156 Cd 0.10429 0.59215 0.24016 0.0
O157 O 0.1442 0.61516 0.25799 0.0
O158 O 0.14903 0.51049 0.30776 0.0
O159 O 0.13114 0.53332 0.20552 0.0
C160 C 0.14535 0.51165 0.23303 0.0
C161 C 0.0766 0.5902 0.12566 0.0
C162 C 0.16266 0.60791 0.30969 0.0
C163 C 0.07305 0.56911 0.38142 0.0
O164 O 0.0773 0.59053 0.33459 0.0
O165 O 0.08974 0.5473 0.37866 0.0
O166 O 0.08092 0.61454 0.16419 0.0
O167 O 0.09032 0.56752 0.1486 0.0
O168 O 0.3041 0.28157 0.41878 0.0
Cd169 Cd 0.30774 0.25033 0.50427 0.0
Cd170 Cd 0.25172 0.24959 0.4874 0.0
O171 O 0.25953 0.26719 0.3777 0.0
O172 O 0.34981 0.24003 0.49399 0.0
O173 O 0.31224 0.20851 0.46616 0.0
C174 C 0.34047 0.21487 0.46508 0.0
C175 C 0.21901 0.21147 0.52862 0.0
C176 C 0.2835 0.28294 0.36888 0.0
C177 C 0.27641 0.28039 0.62639 0.0
O178 O 0.25649 0.28004 0.57443 0.0
O179 O 0.29917 0.26542 0.61634 0.0
O180 O 0.20976 0.23563 0.49965 0.0
O181 O 0.24705 0.20739 0.52453 0.0
O182 O 0.57477 0.54881 0.33184 0.0
Cd183 Cd 0.60614 0.54523 0.24665 0.0
Cd184 Cd 0.6056 0.60128 0.25974 0.0
O185 O 0.5874 0.59429 0.3691 0.0
O186 O 0.6185 0.50387 0.26013 0.0
O187 O 0.64834 0.54319 0.28387 0.0
C188 C 0.64347 0.51478 0.28689 0.0
C189 C 0.64513 0.63225 0.21892 0.0
C190 C 0.57239 0.56997 0.37959 0.0
C191 C 0.57532 0.57473 0.12198 0.0
O192 O 0.57564 0.59546 0.17173 0.0
O193 O 0.59068 0.55237 0.13414 0.0
O194 O 0.62098 0.64273 0.24451 0.0
O195 O 0.64809 0.60408 0.22537 0.0
O196 O 0.25673 0.8712 0.9141 0.0
Cd197 Cd 0.25258 0.90174 0.0011 0.0
Cd198 Cd 0.30868 0.90341 0.98447 0.0
O199 O 0.30138 0.8859 0.87439 0.0
O200 O 0.21023 0.9112 0.99138 0.0
O201 O 0.24714 0.94369 0.96526 0.0
C202 C 0.21902 0.93674 0.96385 0.0
C203 C 0.33889 0.94333 0.02654 0.0
C204 C 0.27749 0.8701 0.86466 0.0
C205 C 0.28454 0.87141 0.1222 0.0
O206 O 0.30465 0.87263 0.07079 0.0
O207 O 0.26144 0.88593 0.11235 0.0
O208 O 0.34984 0.9198 -0.00157 0.0
O209 O 0.31056 0.94558 0.02175 0.0
O210 O 0.98364 0.59862 0.83856 0.0
Cd211 Cd 0.95302 0.6031 0.75195 0.0
Cd212 Cd 0.95394 0.54626 0.76282 0.0
O213 O 0.97151 0.55272 0.87317 0.0
O214 O 0.94369 0.64538 0.76486 0.0
O215 O 0.91094 0.6084 0.78742 0.0
C216 C 0.91802 0.63646 0.79107 0.0
C217 C 0.91657 0.51285 0.71968 0.0
C218 C 0.98604 0.57719 0.88541 0.0
C219 C 0.98491 0.57447 0.62776 0.0
O220 O 0.98429 0.55334 0.67632 0.0
O221 O 0.96937 0.59667 0.64019 0.0
O222 O 0.94128 0.5041 0.74643 0.0
O223 O 0.91167 0.54065 0.7264 0.0
C224 C 0.26553 0.33975 0.2156 0.0
C225 C 0.29374 0.35047 0.19022 0.0
C226 C 0.26227 0.31716 0.27149 0.0
C227 C 0.28713 0.30471 0.30474 0.0
H228 H 0.24572 0.3485 0.19122 0.0
H229 H 0.24015 0.30981 0.28979 0.0
S230 S 0.36591 0.32473 0.25818 0.0
N231 N 0.34699 0.34671 0.20256 0.0
N232 N 0.34092 0.30447 0.30763 0.0
C233 C 0.31546 0.31524 0.27995 0.0
C234 C 0.31877 0.33807 0.22278 0.0
C235 C 1.02031 0.0518 0.46283 0.0
C236 C 1.01018 0.07939 0.43927 0.0
C237 C 0.04175 0.04977 0.52141 0.0
C238 C 0.05392 0.07527 0.55869 0.0
H239 H 1.01101 0.0314 0.43747 0.0
H240 H 0.04796 0.02803 0.53953 0.0
S241 S 0.03813 0.15309 0.51129 0.0
N242 N 1.01614 0.13288 0.45292 0.0
N243 N 0.05656 0.12924 0.56234 0.0
C244 C 0.04515 0.1031 0.53288 0.0
C245 C 1.02324 0.10513 0.47349 0.0
C246 C 0.29594 0.81291 0.71291 0.0
C247 C 0.2678 0.8025 0.68605 0.0
C248 C 0.29906 0.83561 0.7686 0.0
C249 C 0.27413 0.84846 0.80015 0.0
H250 H 0.3158 0.8038 0.68997 0.0
H251 H 0.3211 0.84267 0.78823 0.0
S252 S 0.19554 0.82943 0.74917 0.0
N253 N 0.21456 0.80705 0.69507 0.0
N254 N 0.22039 0.84947 0.79976 0.0
C255 C 0.24589 0.83828 0.77378 0.0
C256 C 0.24272 0.81535 0.71683 0.0
C257 C 0.51944 0.05089 0.04172 0.0
C258 C 0.50533 0.07743 0.05561 0.0
C259 C 0.54047 0.04872 0.98254 0.0
C260 C 0.54835 0.07298 0.93435 0.0
H261 H 0.51475 0.03159 0.078 0.0
H262 H 0.55106 0.02797 0.97581 0.0
S263 S 0.51615 0.14691 0.94179 0.0
N264 N 0.49946 0.12802 0.01306 0.0
N265 N 0.53885 0.12407 0.90121 0.0
C266 C 0.53352 0.09937 0.94533 0.0
C267 C 0.51206 0.10156 0.00595 0.0
C268 C 0.26282 0.84361 0.23657 0.0
C269 C 0.28747 0.85121 0.18961 0.0
C270 C 0.26426 0.82216 0.29509 0.0
C271 C 0.29041 0.80735 0.30916 0.0
H272 H 0.24193 0.85362 0.22673 0.0
H273 H 0.24434 0.81671 0.32831 0.0
S274 S 0.36223 0.82142 0.20796 0.0
N275 N 0.33971 0.84393 0.16529 0.0
N276 N 0.34216 0.80346 0.27494 0.0
C277 C 0.31558 0.81554 0.26468 0.0
C278 C 0.31418 0.8375 0.20514 0.0
C279 C 0.52323 0.05948 0.47808 0.0
C280 C 0.51087 0.08482 0.44729 0.0
C281 C 0.54594 0.06189 0.5339 0.0
C282 C 0.55697 0.08971 0.56162 0.0
H283 H 0.51574 0.03764 0.45788 0.0
H284 H 0.55466 0.04169 0.55602 0.0
S285 S 0.53131 0.16287 0.50124 0.0
N286 N 0.51086 0.13863 0.44977 0.0
N287 N 0.55336 0.14313 0.55448 0.0
C288 C 0.54461 0.11521 0.53163 0.0
C289 C 0.5216 0.11277 0.47465 0.0
C290 C 0.29862 0.30818 0.74024 0.0
C291 C 0.27367 0.30018 0.69466 0.0
C292 C 0.2973 0.32954 0.79905 0.0
C293 C 0.27097 0.34382 0.8148 0.0
H294 H 0.31963 0.29864 0.72887 0.0
H295 H 0.31744 0.33538 0.83105 0.0
S296 S 0.19839 0.3282 0.71823 0.0
N297 N 0.221 0.30626 0.67385 0.0
N298 N 0.21874 0.34656 0.78404 0.0
C299 C 0.24551 0.33511 0.77193 0.0
C300 C 0.2468 0.31325 0.71209 0.0
C301 C 0.03754 0.04221 0.97932 0.0
C302 C 0.04808 0.07009 0.95126 0.0
C303 C 1.0154 0.03956 0.0362 0.0
C304 C 1.00261 0.06467 0.06701 0.0
H305 H 0.04652 1.02213 0.95724 0.0
H306 H 1.00839 1.01758 0.05632 0.0
S307 S 1.02158 0.14285 0.0112 0.0
N308 N 0.04365 0.12336 0.95734 0.0
N309 N 1.00183 0.1185 0.06407 0.0
C310 C 1.01273 0.09276 0.039 0.0
C311 C 0.03556 0.09544 0.98141 0.0
C312 C 0.81186 0.81896 0.77794 0.0
C313 C 0.78405 0.8068 0.80232 0.0
C314 C 0.81432 0.84108 0.72093 0.0
C315 C 0.78908 0.85226 0.68629 0.0
H316 H 0.83206 0.81128 0.80298 0.0
H317 H 0.83629 0.8494 0.7038 0.0
S318 S 0.71092 0.82834 0.73029 0.0
N319 N 0.73064 0.80778 0.78788 0.0
N320 N 0.73517 0.84953 0.68083 0.0
C321 C 0.76104 0.84046 0.71038 0.0
C322 C 0.75856 0.81765 0.76812 0.0
C323 C 0.7955 0.32968 0.27262 0.0
C324 C 0.77028 0.34173 0.30497 0.0
C325 C 0.7929 0.307 0.2168 0.0
C326 C 0.76498 0.29565 0.1906 0.0
H327 H 0.81744 0.33746 0.29141 0.0
H328 H 0.81302 0.29862 0.1933 0.0
S329 S 0.692 0.32017 0.25577 0.0
N330 N 0.71641 0.34093 0.30586 0.0
N331 N 0.71157 0.29847 0.20113 0.0
C332 C 0.73958 0.30761 0.2223 0.0
C333 C 0.74222 0.3306 0.2793 0.0
C334 C 0.80686 0.31358 0.77103 0.0
C335 C 0.7826 0.30622 0.81962 0.0
C336 C 0.80486 0.33437 0.71117 0.0
C337 C 0.77849 0.34877 0.69702 0.0
H338 H 0.82743 0.30268 0.77779 0.0
H339 H 0.82412 0.33862 0.67452 0.0
S340 S 0.70924 0.33958 0.81227 0.0
N341 N 0.73182 0.3167 0.85328 0.0
N342 N 0.72817 0.35565 0.74012 0.0
C343 C 0.75442 0.34266 0.74726 0.0
C344 C 0.75644 0.32142 0.80856 0.0
C345 C 0.80304 0.8116 0.23428 0.0
C346 C 0.77763 0.8001 0.19529 0.0
C347 C 0.80102 0.83283 0.29331 0.0
C348 C 0.77351 0.84344 0.31574 0.0
H349 H 0.82477 0.80501 0.21722 0.0
H350 H 0.82139 0.84159 0.31993 0.0
S351 S 0.69991 0.81743 0.23882 0.0
N352 N 0.72373 0.79869 0.18861 0.0
N353 N 0.72009 0.8387 0.29898 0.0
C354 C 0.7478 0.83105 0.27983 0.0
C355 C 0.74982 0.80936 0.21988 0.0
C356 C 0.53758 0.60105 0.04611 0.0
C357 C 0.55542 0.57655 0.05342 0.0
C358 C 0.51657 0.60263 0.98654 0.0
C359 C 0.51248 0.57983 0.93143 0.0
H360 H 0.53927 0.61903 0.08789 0.0
H361 H 0.50299 0.62161 0.98497 0.0
S362 S 0.55542 0.51204 0.91986 0.0
N363 N 0.56888 0.52986 -0.00279 0.0
N364 N 0.52963 0.53275 0.88463 0.0
C365 C 0.53103 0.55571 0.93597 0.0
C366 C 0.55241 0.5541 -0.003 0.0
C367 C 0.04273 0.54631 0.49016 0.0
C368 C 0.04908 0.57043 0.44031 0.0
C369 C 1.02129 0.54764 0.54865 0.0
C370 C 1.0053 0.57322 0.56019 0.0
H371 H 0.05465 0.52629 0.48479 0.0
H372 H 1.01768 0.52849 0.58607 0.0
S373 S 1.01243 0.64217 0.44306 0.0
N374 N 0.03666 0.62051 0.40438 0.0
N375 N 0.99655 0.62286 0.51477 0.0
C376 C 1.01079 0.59725 0.50946 0.0
C377 C 0.03262 0.5959 0.44956 0.0
C378 C 0.04484 0.55938 0.03358 0.0
C379 C 0.05428 0.58755 0.06234 0.0
C380 C 1.02193 0.55597 0.97852 0.0
C381 C 1.00783 0.58063 0.94963 0.0
H382 H 0.05495 0.5397 0.05434 0.0
H383 H 1.01571 0.53395 0.95723 0.0
S384 S 1.02368 0.65913 0.00694 0.0
N385 N 0.04729 0.64051 0.05823 0.0
N386 N 1.00442 0.63411 0.95503 0.0
C387 C 1.01693 0.60889 0.97814 0.0
C388 C 0.04013 0.61235 0.03429 0.0
C389 C 0.51479 0.58854 0.53027 0.0
C390 C 0.5038 0.56043 0.55582 0.0
C391 C 0.53765 0.59156 0.47511 0.0
C392 C 0.55018 0.56656 0.44284 0.0
H393 H 0.50606 0.60847 0.55399 0.0
H394 H 0.54519 0.61362 0.45674 0.0
S395 S 0.52943 0.48795 0.49007 0.0
N396 N 0.50729 0.50712 0.54445 0.0
N397 N 0.55009 0.51272 0.44099 0.0
C398 C 0.53935 0.53832 0.46775 0.0
C399 C 0.5162 0.53527 0.52406 0.0
C400 C 0.18067 0.47176 0.20941 0.0
C401 C 0.15944 0.49047 0.18 0.0
C402 C 0.19754 0.45478 0.15945 0.0
C403 C 0.19386 0.45568 0.07787 0.0
H404 H 0.18527 0.47111 0.27138 0.0
H405 H 0.21437 0.4417 0.18512 0.0
S406 S 0.13837 0.49804 0.97174 0.0
N407 N 0.13363 0.50662 0.0643 0.0
N408 N 0.16521 0.47475 0.97062 0.0
C409 C 0.17144 0.47291 0.04798 0.0
C410 C 0.15429 0.49027 0.09892 0.0
C411 C 0.84447 1.00163 0.4536 0.0
C412 C 0.82679 0.98359 0.40339 0.0
C413 C 0.86522 1.02292 0.42389 0.0
C414 C 0.86965 0.02623 0.34299 0.0
H415 H 0.84241 0.99912 0.51625 0.0
H416 H 0.87871 0.03606 0.46469 0.0
S417 S 0.82873 0.98465 0.18691 0.0
N418 N 0.81441 0.97101 0.2688 0.0
N419 N 0.85424 1.01025 0.21328 0.0
C420 C 0.85191 1.00856 0.2922 0.0
C421 C 0.83023 0.98745 0.32235 0.0
C422 C 0.38479 0.67492 0.54555 0.0
C423 C 0.36587 0.69585 0.57546 0.0
C424 C 0.40174 0.65785 0.59509 0.0
C425 C 0.4006 0.66099 0.67679 0.0
H426 H 0.38569 0.67075 0.4834 0.0
H427 H 0.41502 0.64128 0.56896 0.0
S428 S 0.35747 0.71541 0.78445 0.0
N429 N 0.34915 0.72074 0.69193 0.0
N430 N 0.38097 0.68876 0.78488 0.0
C431 C 0.38311 0.68309 0.7073 0.0
C432 C 0.36577 0.70045 0.65675 0.0
C433 C 0.71493 0.14681 0.95265 0.0
C434 C 0.73275 0.16485 0.90281 0.0
C435 C 0.6942 0.12557 0.92256 0.0
C436 C 0.68993 0.12226 0.84158 0.0
H437 H 0.71681 0.14934 0.01534 0.0
H438 H 0.68056 0.11251 0.96314 0.0
S439 S 0.73138 0.16365 0.68626 0.0
N440 N 0.74551 0.1773 0.76842 0.0
N441 N 0.70575 0.13811 0.71216 0.0
C442 C 0.70788 0.13983 0.79113 0.0
C443 C 0.72952 0.16092 0.82168 0.0
C444 C 0.21353 0.62237 0.35949 0.0
C445 C 0.18487 0.63028 0.3393 0.0
C446 C 0.23422 0.64329 0.39168 0.0
C447 C 0.22644 0.67237 0.40756 0.0
H448 H 0.22005 0.59998 0.34969 0.0
H449 H 0.25627 0.63659 0.40519 0.0
S450 S 0.154 0.70383 0.36709 0.0
N451 N 0.14983 0.66912 0.3374 0.0
N452 N 0.18823 0.70799 0.4004 0.0
C453 C 0.19775 0.68036 0.3885 0.0
C454 C 0.17707 0.65942 0.3537 0.0
C455 C 0.67805 0.97019 0.70433 0.0
C456 C 0.65749 0.98964 0.67506 0.0
C457 C 0.69503 0.95344 0.65413 0.0
C458 C 0.69208 0.95524 0.57243 0.0
H459 H 0.68204 0.96879 0.76649 0.0
H460 H 0.71131 0.93968 0.67979 0.0
S461 S 0.63865 1.00005 0.46626 0.0
N462 N 0.63319 1.00768 0.55912 0.0
N463 N 0.66494 0.97616 0.46496 0.0
C464 C 0.67034 0.97327 0.54251 0.0
C465 C 0.65313 0.99048 0.5937 0.0
C466 C 0.38151 0.49287 0.85409 0.0
C467 C 0.37408 0.52206 0.83866 0.0
C468 C 0.36132 0.47263 0.88991 0.0
C469 C 0.33268 0.48058 0.90965 0.0
H470 H 0.40338 0.48579 0.84008 0.0
H471 H 0.36801 0.45035 0.90072 0.0
S472 S 0.30208 0.55408 0.88007 0.0
N473 N 0.33629 0.55808 0.84634 0.0
N474 N 0.29767 0.51942 0.91034 0.0
C475 C 0.32475 0.50954 0.89346 0.0
C476 C 0.34565 0.53047 0.85895 0.0
C477 C 0.86168 0.19578 0.15646 0.0
C478 C 0.86592 0.19525 0.07501 0.0
C479 C 0.87848 0.17891 0.2069 0.0
C480 C 0.90012 0.1606 0.17806 0.0
H481 H 0.84453 0.20858 0.1816 0.0
H482 H 0.8735 0.17926 0.26867 0.0
S483 S 0.92268 0.15398 0.97078 0.0
N484 N 0.89552 0.1769 0.96876 0.0
N485 N 0.92691 0.14515 0.06338 0.0
C486 C 0.90577 0.16109 0.09725 0.0
C487 C 0.88876 0.17841 0.04583 0.0
C488 C 0.85136 0.66767 0.89289 0.0
C489 C 0.86222 0.69599 0.91735 0.0
C490 C 0.86928 0.64871 0.8511 0.0
C491 C 0.89867 0.65743 0.83096 0.0
H492 H 0.82879 0.66004 0.90595 0.0
H493 H 0.85996 0.62704 0.8344 0.0
S494 S 0.93802 0.72925 0.88154 0.0
N495 N 0.90461 0.73159 0.9187 0.0
N496 N 0.9379 0.69636 0.83997 0.0
C497 C 0.90978 0.68572 0.855 0.0
C498 C 0.8917 0.70484 0.89824 0.0
C499 C 0.20809 0.16388 0.60203 0.0
C500 C 0.19865 0.19113 0.57431 0.0
C501 C 0.19007 0.1457 0.65127 0.0
C502 C 0.1621 0.15427 0.67587 0.0
H503 H 0.22963 0.15654 0.58583 0.0
H504 H 0.19814 0.12474 0.67002 0.0
S505 S 0.12701 0.22369 0.6205 0.0
N506 N 0.15925 0.2257 0.57544 0.0
N507 N 0.12584 0.192 0.66821 0.0
C508 C 0.15249 0.18157 0.64889 0.0
C509 C 0.17059 0.19981 0.59801 0.0
C510 C 0.67158 0.44826 0.39348 0.0
C511 C 0.70055 0.45754 0.4162 0.0
C512 C 0.6539 0.46662 0.3498 0.0
C513 C 0.66414 0.49533 0.32739 0.0
H514 H 0.66246 0.42636 0.40858 0.0
H515 H 0.63173 0.45825 0.33466 0.0
S516 S 0.73834 0.53059 0.37181 0.0
N517 N 0.73884 0.49747 0.41226 0.0
N518 N 0.70532 0.53225 0.33135 0.0
C519 C 0.69305 0.50505 0.3498 0.0
C520 C 0.71128 0.48613 0.39379 0.0
C521 C 0.40385 0.97416 0.14649 0.0
C522 C 0.39465 1.0015 0.17394 0.0
C523 C 0.38608 0.95633 0.09663 0.0
C524 C 0.35801 0.96471 0.0725 0.0
H525 H 0.42532 0.96654 0.1624 0.0
H526 H 0.39436 0.93544 0.07811 0.0
S527 S 0.32312 0.03406 0.128 0.0
N528 N 0.3555 0.03627 0.17288 0.0
N529 N 0.32165 1.00227 0.08034 0.0
C530 C 0.3483 0.99192 0.09973 0.0
C531 C 0.36669 1.01038 0.15008 0.0
C532 C 0.8505 0.48318 0.5989 0.0
C533 C 0.85912 0.45518 0.57452 0.0
C534 C 0.86881 0.50145 0.6473 0.0
C535 C 0.89627 0.49228 0.6743 0.0
H536 H 0.82939 0.49105 0.58075 0.0
H537 H 0.86137 0.52297 0.66345 0.0
S538 S 0.92906 0.42073 0.62826 0.0
N539 N 0.89714 0.41921 0.58149 0.0
N540 N 0.93108 0.45311 0.67273 0.0
C541 C 0.90503 0.46423 0.65069 0.0
C542 C 0.88664 0.44585 0.6007 0.0
C543 C 0.35157 0.16692 0.39882 0.0
C544 C 0.36124 0.19543 0.42468 0.0
C545 C 0.37027 0.14917 0.35564 0.0
C546 C 0.39925 0.15939 0.33536 0.0
H547 H 0.32934 0.15821 0.41183 0.0
H548 H 0.36189 0.1273 0.33787 0.0
S549 S 0.43545 0.23242 0.38869 0.0
N550 N 0.40202 0.23289 0.42686 0.0
N551 N 0.43675 0.19994 0.34549 0.0
C552 C 0.40915 0.18789 0.36073 0.0
C553 C 0.3903 0.20575 0.40545 0.0
C554 C 0.65791 0.67939 0.14845 0.0
C555 C 0.66659 0.6516 0.17394 0.0
C556 C 0.67589 0.69729 0.09936 0.0
C557 C 0.70366 0.6885 0.07403 0.0
H558 H 0.63668 0.68734 0.16532 0.0
H559 H 0.66801 0.71853 0.08233 0.0
S560 S 0.73718 0.61787 0.12446 0.0
N561 N 0.70494 0.61598 0.1699 0.0
N562 N 0.73918 0.65006 0.07872 0.0
C563 C 0.71285 0.66083 0.09931 0.0
C564 C 0.69425 0.64232 0.14893 0.0
C565 C 0.20669 0.98512 0.90185 0.0
C566 C 0.19781 0.95604 0.92461 0.0
C567 C 0.18758 1.00286 0.85994 0.0
C568 C 0.15893 0.99211 0.83795 0.0
H569 H 0.22863 0.99431 0.91639 0.0
H570 H 0.19538 1.02518 0.84466 0.0
S571 S 0.12496 0.91723 0.88204 0.0
N572 N 0.15825 0.9173 0.92136 0.0
N573 N 0.12273 0.95026 0.84239 0.0
C574 C 0.14986 0.96298 0.85999 0.0
C575 C 0.16914 0.9451 0.90338 0.0
loop_
_geom_bond_atom_site_label_1
_geom_bond_atom_site_label_2
_geom_bond_distance
_geom_bond_site_symmetry_2
_ccdc_geom_bond_type
O0 Cd1 2.223 1_556 S
O0 C8 1.315 . S
Cd1 O0 2.223 1_554 S
Cd1 O4 2.297 . S
Cd1 O5 2.439 . S
Cd1 O11 2.240 . S
Cd2 O3 2.240 . S
Cd2 O10 2.223 . S
Cd2 O12 2.297 . S
Cd2 O13 2.439 1_556 S
O3 Cd2 2.240 . S
O3 C8 1.279 . S
O4 Cd1 2.297 . S
O4 C6 1.247 . S
O5 Cd1 2.439 . S
O5 C6 1.208 . S
C6 O4 1.247 . S
C6 O5 1.208 . S
C7 O12 1.247 1_554 S
C7 O13 1.208 . S
C8 O0 1.315 . S
C8 O3 1.279 . S
C9 O10 1.315 . S
C9 O11 1.279 1_556 S
O10 Cd2 2.223 . S
O10 C9 1.315 . S
O11 Cd1 2.240 . S
O11 C9 1.279 1_554 S
O12 Cd2 2.297 . S
O12 C7 1.247 1_556 S
O13 Cd2 2.439 1_554 S
O13 C7 1.208 . S
O14 Cd15 2.223 . S
O14 C22 1.315 . S
Cd15 O14 2.223 . S
Cd15 O18 2.297 . S
Cd15 O19 2.439 . S
Cd15 O25 2.240 . S
Cd16 O17 2.240 . S
Cd16 O24 2.223 . S
Cd16 O26 2.297 . S
Cd16 O27 2.439 . S
O17 Cd16 2.240 . S
O17 C22 1.279 . S
O18 Cd15 2.297 . S
O18 C20 1.247 . S
O19 Cd15 2.439 . S
O19 C20 1.208 . S
C20 O18 1.247 . S
C20 O19 1.208 . S
C21 O26 1.247 . S
C21 O27 1.208 . S
C22 O14 1.315 . S
C22 O17 1.279 . S
C23 O24 1.315 . S
C23 O25 1.279 . S
O24 Cd16 2.223 . S
O24 C23 1.315 . S
O25 Cd15 2.240 . S
O25 C23 1.279 . S
O26 Cd16 2.297 . S
O26 C21 1.247 . S
O27 Cd16 2.439 . S
O27 C21 1.208 . S
O28 Cd29 2.223 . S
O28 C36 1.315 . S
Cd29 O28 2.223 . S
Cd29 O32 2.297 . S
Cd29 O33 2.439 . S
Cd29 O39 2.240 . S
Cd30 O31 2.240 . S
Cd30 O38 2.223 . S
Cd30 O40 2.297 . S
Cd30 O41 2.439 . S
O31 Cd30 2.240 . S
O31 C36 1.279 . S
O32 Cd29 2.297 . S
O32 C34 1.247 . S
O33 Cd29 2.439 . S
O33 C34 1.208 . S
C34 O32 1.247 . S
C34 O33 1.208 . S
C35 O40 1.247 . S
C35 O41 1.208 . S
C36 O28 1.315 . S
C36 O31 1.279 . S
C37 O38 1.315 . S
C37 O39 1.279 . S
O38 Cd30 2.223 . S
O38 C37 1.315 . S
O39 Cd29 2.240 . S
O39 C37 1.279 . S
O40 Cd30 2.297 . S
O40 C35 1.247 . S
O41 Cd30 2.439 . S
O41 C35 1.208 . S
O42 Cd43 2.223 . S
O42 C50 1.315 . S
Cd43 O42 2.223 . S
Cd43 O46 2.297 . S
Cd43 O47 2.439 . S
Cd43 O53 2.240 . S
Cd44 O45 2.240 . S
Cd44 O52 2.223 . S
Cd44 O54 2.297 . S
Cd44 O55 2.439 . S
O45 Cd44 2.240 . S
O45 C50 1.279 . S
O46 Cd43 2.297 . S
O46 C48 1.247 . S
O47 Cd43 2.439 . S
O47 C48 1.208 . S
C48 O46 1.247 . S
C48 O47 1.208 . S
C49 O54 1.247 . S
C49 O55 1.208 . S
C50 O42 1.315 . S
C50 O45 1.279 . S
C51 O52 1.315 . S
C51 O53 1.279 . S
O52 Cd44 2.223 . S
O52 C51 1.315 . S
O53 Cd43 2.240 . S
O53 C51 1.279 . S
O54 Cd44 2.297 . S
O54 C49 1.247 . S
O55 Cd44 2.439 . S
O55 C49 1.208 . S
O56 Cd57 2.223 1_556 S
O56 C64 1.315 . S
Cd57 O56 2.223 1_554 S
Cd57 O60 2.297 1_554 S
Cd57 O61 2.439 1_554 S
Cd57 O67 2.240 . S
Cd58 O59 2.240 1_554 S
Cd58 O66 2.223 . S
Cd58 O68 2.297 . S
Cd58 O69 2.439 . S
O59 Cd58 2.240 1_556 S
O59 C64 1.279 . S
O60 Cd57 2.297 1_556 S
O60 C62 1.247 . S
O61 Cd57 2.439 1_556 S
O61 C62 1.208 . S
C62 O60 1.247 . S
C62 O61 1.208 . S
C63 O68 1.247 . S
C63 O69 1.208 . S
C64 O56 1.315 . S
C64 O59 1.279 . S
C65 O66 1.315 . S
C65 O67 1.279 . S
O66 Cd58 2.223 . S
O66 C65 1.315 . S
O67 Cd57 2.240 . S
O67 C65 1.279 . S
O68 Cd58 2.297 . S
O68 C63 1.247 . S
O69 Cd58 2.439 . S
O69 C63 1.208 . S
O70 Cd71 2.223 . S
O70 C78 1.315 1_565 S
Cd71 O70 2.223 . S
Cd71 O74 2.297 . S
Cd71 O75 2.439 1_565 S
Cd71 O81 2.240 1_565 S
Cd72 O73 2.240 . S
Cd72 O80 2.223 . S
Cd72 O82 2.297 . S
Cd72 O83 2.439 . S
O73 Cd72 2.240 . S
O73 C78 1.279 . S
O74 Cd71 2.297 . S
O74 C76 1.247 . S
O75 Cd71 2.439 1_545 S
O75 C76 1.208 1_545 S
C76 O74 1.247 . S
C76 O75 1.208 1_565 S
C77 O82 1.247 . S
C77 O83 1.208 . S
C78 O70 1.315 1_545 S
C78 O73 1.279 . S
C79 O80 1.315 . S
C79 O81 1.279 . S
O80 Cd72 2.223 . S
O80 C79 1.315 . S
O81 Cd71 2.240 1_545 S
O81 C79 1.279 . S
O82 Cd72 2.297 . S
O82 C77 1.247 . S
O83 Cd72 2.439 . S
O83 C77 1.208 . S
O84 Cd85 2.223 . S
O84 C92 1.315 . S
Cd85 O84 2.223 . S
Cd85 O88 2.297 . S
Cd85 O89 2.439 . S
Cd85 O95 2.240 . S
Cd86 O87 2.240 . S
Cd86 O94 2.223 . S
Cd86 O96 2.297 . S
Cd86 O97 2.439 . S
O87 Cd86 2.240 . S
O87 C92 1.279 . S
O88 Cd85 2.297 . S
O88 C90 1.247 . S
O89 Cd85 2.439 . S
O89 C90 1.208 . S
C90 O88 1.247 . S
C90 O89 1.208 . S
C91 O96 1.247 . S
C91 O97 1.208 . S
C92 O84 1.315 . S
C92 O87 1.279 . S
C93 O94 1.315 . S
C93 O95 1.279 . S
O94 Cd86 2.223 . S
O94 C93 1.315 . S
O95 Cd85 2.240 . S
O95 C93 1.279 . S
O96 Cd86 2.297 . S
O96 C91 1.247 . S
O97 Cd86 2.439 . S
O97 C91 1.208 . S
O98 Cd99 2.223 . S
O98 C106 1.315 . S
Cd99 O98 2.223 . S
Cd99 O102 2.297 . S
Cd99 O103 2.439 . S
Cd99 O109 2.240 . S
Cd100 O101 2.240 . S
Cd100 O108 2.223 . S
Cd100 O110 2.297 1_545 S
Cd100 O111 2.439 . S
O101 Cd100 2.240 . S
O101 C106 1.279 . S
O102 Cd99 2.297 . S
O102 C104 1.247 . S
O103 Cd99 2.439 . S
O103 C104 1.208 . S
C104 O102 1.247 . S
C104 O103 1.208 . S
C105 O110 1.247 1_545 S
C105 O111 1.208 . S
C106 O98 1.315 . S
C106 O101 1.279 . S
C107 O108 1.315 . S
C107 O109 1.279 . S
O108 Cd100 2.223 . S
O108 C107 1.315 . S
O109 Cd99 2.240 . S
O109 C107 1.279 . S
O110 Cd100 2.297 1_565 S
O110 C105 1.247 1_565 S
O111 Cd100 2.439 . S
O111 C105 1.208 . S
O112 Cd113 2.223 . S
O112 C120 1.315 . S
Cd113 O112 2.223 . S
Cd113 O116 2.297 . S
Cd113 O117 2.439 . S
Cd113 O123 2.240 . S
Cd114 O115 2.240 . S
Cd114 O122 2.223 . S
Cd114 O124 2.297 . S
Cd114 O125 2.439 . S
O115 Cd114 2.240 . S
O115 C120 1.279 . S
O116 Cd113 2.297 . S
O116 C118 1.247 . S
O117 Cd113 2.439 . S
O117 C118 1.208 . S
C118 O116 1.247 . S
C118 O117 1.208 . S
C119 O124 1.247 . S
C119 O125 1.208 . S
C120 O112 1.315 . S
C120 O115 1.279 . S
C121 O122 1.315 . S
C121 O123 1.279 . S
O122 Cd114 2.223 . S
O122 C121 1.315 . S
O123 Cd113 2.240 . S
O123 C121 1.279 . S
O124 Cd114 2.297 . S
O124 C119 1.247 . S
O125 Cd114 2.439 . S
O125 C119 1.208 . S
O126 Cd127 2.223 . S
O126 C134 1.315 . S
Cd127 O126 2.223 . S
Cd127 O130 2.297 . S
Cd127 O131 2.439 . S
Cd127 O137 2.240 . S
Cd128 O129 2.240 . S
Cd128 O136 2.223 . S
Cd128 O138 2.297 . S
Cd128 O139 2.439 . S
O129 Cd128 2.240 . S
O129 C134 1.279 . S
O130 Cd127 2.297 . S
O130 C132 1.247 . S
O131 Cd127 2.439 . S
O131 C132 1.208 . S
C132 O130 1.247 . S
C132 O131 1.208 . S
C133 O138 1.247 . S
C133 O139 1.208 . S
C134 O126 1.315 . S
C134 O129 1.279 . S
C135 O136 1.315 . S
C135 O137 1.279 . S
O136 Cd128 2.223 . S
O136 C135 1.315 . S
O137 Cd127 2.240 . S
O137 C135 1.279 . S
O138 Cd128 2.297 . S
O138 C133 1.247 . S
O139 Cd128 2.439 . S
O139 C133 1.208 . S
O140 Cd141 2.223 1_556 S
O140 C148 1.315 . S
Cd141 O140 2.223 1_554 S
Cd141 O144 2.297 . S
Cd141 O145 2.439 . S
Cd141 O151 2.240 . S
Cd142 O143 2.240 . S
Cd142 O150 2.223 . S
Cd142 O152 2.297 . S
Cd142 O153 2.439 1_556 S
O143 Cd142 2.240 . S
O143 C148 1.279 . S
O144 Cd141 2.297 . S
O144 C146 1.247 . S
O145 Cd141 2.439 . S
O145 C146 1.208 . S
C146 O144 1.247 . S
C146 O145 1.208 . S
C147 O152 1.247 1_554 S
C147 O153 1.208 . S
C148 O140 1.315 . S
C148 O143 1.279 . S
C149 O150 1.315 . S
C149 O151 1.279 1_556 S
O150 Cd142 2.223 . S
O150 C149 1.315 . S
O151 Cd141 2.240 . S
O151 C149 1.279 1_554 S
O152 Cd142 2.297 . S
O152 C147 1.247 1_556 S
O153 Cd142 2.439 1_554 S
O153 C147 1.208 . S
O154 Cd155 2.223 . S
O154 C162 1.315 . S
Cd155 O154 2.223 . S
Cd155 O158 2.297 . S
Cd155 O159 2.439 . S
Cd155 O165 2.240 . S
Cd156 O157 2.240 . S
Cd156 O164 2.223 . S
Cd156 O166 2.297 . S
Cd156 O167 2.439 . S
O157 Cd156 2.240 . S
O157 C162 1.279 . S
O158 Cd155 2.297 . S
O158 C160 1.247 . S
O159 Cd155 2.439 . S
O159 C160 1.208 . S
C160 O158 1.247 . S
C160 O159 1.208 . S
C161 O166 1.247 . S
C161 O167 1.208 . S
C162 O154 1.315 . S
C162 O157 1.279 . S
C163 O164 1.315 . S
C163 O165 1.279 . S
O164 Cd156 2.223 . S
O164 C163 1.315 . S
O165 Cd155 2.240 . S
O165 C163 1.279 . S
O166 Cd156 2.297 . S
O166 C161 1.247 . S
O167 Cd156 2.439 . S
O167 C161 1.208 . S
O168 Cd169 2.223 . S
O168 C176 1.315 . S
Cd169 O168 2.223 . S
Cd169 O172 2.297 . S
Cd169 O173 2.439 . S
Cd169 O179 2.240 . S
Cd170 O171 2.240 . S
Cd170 O178 2.223 . S
Cd170 O180 2.297 . S
Cd170 O181 2.439 . S
O171 Cd170 2.240 . S
O171 C176 1.279 . S
O172 Cd169 2.297 . S
O172 C174 1.247 . S
O173 Cd169 2.439 . S
O173 C174 1.208 . S
C174 O172 1.247 . S
C174 O173 1.208 . S
C175 O180 1.247 . S
C175 O181 1.208 . S
C176 O168 1.315 . S
C176 O171 1.279 . S
C177 O178 1.315 . S
C177 O179 1.279 . S
O178 Cd170 2.223 . S
O178 C177 1.315 . S
O179 Cd169 2.240 . S
O179 C177 1.279 . S
O180 Cd170 2.297 . S
O180 C175 1.247 . S
O181 Cd170 2.439 . S
O181 C175 1.208 . S
O182 Cd183 2.223 . S
O182 C190 1.315 . S
Cd183 O182 2.223 . S
Cd183 O186 2.297 . S
Cd183 O187 2.439 . S
Cd183 O193 2.240 . S
Cd184 O185 2.240 . S
Cd184 O192 2.223 . S
Cd184 O194 2.297 . S
Cd184 O195 2.439 . S
O185 Cd184 2.240 . S
O185 C190 1.279 . S
O186 Cd183 2.297 . S
O186 C188 1.247 . S
O187 Cd183 2.439 . S
O187 C188 1.208 . S
C188 O186 1.247 . S
C188 O187 1.208 . S
C189 O194 1.247 . S
C189 O195 1.208 . S
C190 O182 1.315 . S
C190 O185 1.279 . S
C191 O192 1.315 . S
C191 O193 1.279 . S
O192 Cd184 2.223 . S
O192 C191 1.315 . S
O193 Cd183 2.240 . S
O193 C191 1.279 . S
O194 Cd184 2.297 . S
O194 C189 1.247 . S
O195 Cd184 2.439 . S
O195 C189 1.208 . S
O196 Cd197 2.223 1_556 S
O196 C204 1.315 . S
Cd197 O196 2.223 1_554 S
Cd197 O200 2.297 1_554 S
Cd197 O201 2.439 1_554 S
Cd197 O207 2.240 . S
Cd198 O199 2.240 1_554 S
Cd198 O206 2.223 . S
Cd198 O208 2.297 . S
Cd198 O209 2.439 . S
O199 Cd198 2.240 1_556 S
O199 C204 1.279 . S
O200 Cd197 2.297 1_556 S
O200 C202 1.247 . S
O201 Cd197 2.439 1_556 S
O201 C202 1.208 . S
C202 O200 1.247 . S
C202 O201 1.208 . S
C203 O208 1.247 . S
C203 O209 1.208 . S
C204 O196 1.315 . S
C204 O199 1.279 . S
C205 O206 1.315 . S
C205 O207 1.279 . S
O206 Cd198 2.223 . S
O206 C205 1.315 . S
O207 Cd197 2.240 . S
O207 C205 1.279 . S
O208 Cd198 2.297 . S
O208 C203 1.247 . S
O209 Cd198 2.439 . S
O209 C203 1.208 . S
O210 Cd211 2.223 . S
O210 C218 1.315 . S
Cd211 O210 2.223 . S
Cd211 O214 2.297 . S
Cd211 O215 2.439 . S
Cd211 O221 2.240 . S
Cd212 O213 2.240 . S
Cd212 O220 2.223 . S
Cd212 O222 2.297 . S
Cd212 O223 2.439 . S
O213 Cd212 2.240 . S
O213 C218 1.279 . S
O214 Cd211 2.297 . S
O214 C216 1.247 . S
O215 Cd211 2.439 . S
O215 C216 1.208 . S
C216 O214 1.247 . S
C216 O215 1.208 . S
C217 O222 1.247 . S
C217 O223 1.208 . S
C218 O210 1.315 . S
C218 O213 1.279 . S
C219 O220 1.315 . S
C219 O221 1.279 . S
O220 Cd212 2.223 . S
O220 C219 1.315 . S
O221 Cd211 2.240 . S
O221 C219 1.279 . S
O222 Cd212 2.297 . S
O222 C217 1.247 . S
O223 Cd212 2.439 . S
O223 C217 1.208 . S
C224 C225 1.369 . S
C224 C226 1.419 . S
C224 H228 0.930 . S
C225 C224 1.369 . S
C225 C234 1.429 . S
C226 C224 1.419 . S
C226 C227 1.363 . S
C226 H229 0.929 . S
C227 C226 1.363 . S
C227 C233 1.428 . S
H228 C224 0.930 . S
H229 C226 0.929 . S
S230 N231 1.613 . S
S230 N232 1.610 . S
N231 S230 1.613 . S
N231 C234 1.350 . S
N232 S230 1.610 . S
N232 C233 1.351 . S
C233 C227 1.428 . S
C233 N232 1.351 . S
C233 C234 1.434 . S
C234 C225 1.429 . S
C234 N231 1.350 . S
C234 C233 1.434 . S
C235 C236 1.369 . S
C235 C237 1.419 1_655 S
C235 H239 0.930 . S
C236 C235 1.369 . S
C236 C245 1.429 . S
C237 C235 1.419 1_455 S
C237 C238 1.363 . S
C237 H240 0.929 . S
C238 C237 1.363 . S
C238 C244 1.428 1_455 S
H239 C235 0.930 . S
H240 C237 0.929 . S
S241 N242 1.613 . S
S241 N243 1.610 . S
N242 S241 1.613 . S
N242 C245 1.350 . S
N243 S241 1.610 . S
N243 C244 1.351 . S
C244 C238 1.428 1_655 S
C244 N243 1.351 . S
C244 C245 1.434 . S
C245 C236 1.429 . S
C245 N242 1.350 . S
C245 C244 1.434 . S
C246 C247 1.369 . S
C246 C248 1.419 . S
C246 H250 0.930 . S
C247 C246 1.369 . S
C247 C256 1.429 . S
C248 C246 1.419 . S
C248 C249 1.363 . S
C248 H251 0.929 . S
C249 C248 1.363 . S
C249 C255 1.428 . S
H250 C246 0.930 . S
H251 C248 0.929 . S
S252 N253 1.613 . S
S252 N254 1.610 . S
N253 S252 1.613 . S
N253 C256 1.350 . S
N254 S252 1.610 . S
N254 C255 1.351 . S
C255 C249 1.428 . S
C255 N254 1.351 . S
C255 C256 1.434 . S
C256 C247 1.429 . S
C256 N253 1.350 . S
C256 C255 1.434 . S
C257 C258 1.366 1_556 S
C257 C259 1.423 . S
C257 H261 0.930 1_556 S
C258 C257 1.366 1_554 S
C258 C267 1.429 . S
C259 C257 1.423 . S
C259 C260 1.363 . S
C259 H262 0.929 . S
C260 C259 1.363 . S
C260 C266 1.428 . S
H261 C257 0.930 1_554 S
H262 C259 0.929 . S
S263 N264 1.613 . S
S263 N265 1.610 1_554 S
N264 S263 1.613 . S
N264 C267 1.350 . S
N265 S263 1.610 1_556 S
N265 C266 1.351 . S
C266 C260 1.428 . S
C266 N265 1.351 . S
C266 C267 1.434 1_556 S
C267 C258 1.429 . S
C267 N264 1.350 . S
C267 C266 1.434 1_554 S
C268 C269 1.369 . S
C268 C270 1.419 . S
C268 H272 0.930 . S
C269 C268 1.369 . S
C269 C278 1.429 . S
C270 C268 1.419 . S
C270 C271 1.363 . S
C270 H273 0.929 . S
C271 C270 1.363 . S
C271 C277 1.428 . S
H272 C268 0.930 . S
H273 C270 0.929 . S
S274 N275 1.613 . S
S274 N276 1.610 . S
N275 S274 1.613 . S
N275 C278 1.350 . S
N276 S274 1.610 . S
N276 C277 1.351 . S
C277 C271 1.428 . S
C277 N276 1.351 . S
C277 C278 1.434 . S
C278 C269 1.429 . S
C278 N275 1.350 . S
C278 C277 1.434 . S
C279 C280 1.369 . S
C279 C281 1.419 . S
C279 H283 0.930 . S
C280 C279 1.369 . S
C280 C289 1.429 . S
C281 C279 1.419 . S
C281 C282 1.363 . S
C281 H284 0.929 . S
C282 C281 1.363 . S
C282 C288 1.428 . S
H283 C279 0.930 . S
H284 C281 0.929 . S
S285 N286 1.613 . S
S285 N287 1.610 . S
N286 S285 1.613 . S
N286 C289 1.350 . S
N287 S285 1.610 . S
N287 C288 1.351 . S
C288 C282 1.428 . S
C288 N287 1.351 . S
C288 C289 1.434 . S
C289 C280 1.429 . S
C289 N286 1.350 . S
C289 C288 1.434 . S
C290 C291 1.369 . S
C290 C292 1.419 . S
C290 H294 0.930 . S
C291 C290 1.369 . S
C291 C300 1.429 . S
C292 C290 1.419 . S
C292 C293 1.363 . S
C292 H295 0.929 . S
C293 C292 1.363 . S
C293 C299 1.428 . S
H294 C290 0.930 . S
H295 C292 0.929 . S
S296 N297 1.613 . S
S296 N298 1.610 . S
N297 S296 1.613 . S
N297 C300 1.350 . S
N298 S296 1.610 . S
N298 C299 1.351 . S
C299 C293 1.428 . S
C299 N298 1.351 . S
C299 C300 1.434 . S
C300 C291 1.429 . S
C300 N297 1.350 . S
C300 C299 1.434 . S
C301 C302 1.369 . S
C301 C303 1.419 1_556 S
C301 H305 0.930 . S
C302 C301 1.369 . S
C302 C311 1.429 1_455 S
C303 C301 1.419 1_554 S
C303 C304 1.363 1_455 S
C303 H306 0.929 . S
C304 C303 1.363 1_655 S
C304 C310 1.428 1_554 S
H305 C301 0.930 . S
H306 C303 0.929 . S
S307 N308 1.613 . S
S307 N309 1.610 . S
N308 S307 1.613 . S
N308 C311 1.350 . S
N309 S307 1.610 . S
N309 C310 1.351 . S
C310 C304 1.428 1_556 S
C310 N309 1.351 . S
C310 C311 1.434 . S
C311 C302 1.429 1_655 S
C311 N308 1.350 . S
C311 C310 1.434 . S
C312 C313 1.369 . S
C312 C314 1.419 . S
C312 H316 0.930 . S
C313 C312 1.369 . S
C313 C322 1.429 . S
C314 C312 1.419 . S
C314 C315 1.363 . S
C314 H317 0.929 . S
C315 C314 1.363 . S
C315 C321 1.428 . S
H316 C312 0.930 . S
H317 C314 0.929 . S
S318 N319 1.613 . S
S318 N320 1.610 . S
N319 S318 1.613 . S
N319 C322 1.350 . S
N320 S318 1.610 . S
N320 C321 1.351 . S
C321 C315 1.428 . S
C321 N320 1.351 . S
C321 C322 1.434 . S
C322 C313 1.429 . S
C322 N319 1.350 . S
C322 C321 1.434 . S
C323 C324 1.369 . S
C323 C325 1.419 . S
C323 H327 0.930 . S
C324 C323 1.369 . S
C324 C333 1.429 . S
C325 C323 1.419 . S
C325 C326 1.363 . S
C325 H328 0.929 . S
C326 C325 1.363 . S
C326 C332 1.428 . S
H327 C323 0.930 . S
H328 C325 0.929 . S
S329 N330 1.613 . S
S329 N331 1.610 . S
N330 S329 1.613 . S
N330 C333 1.350 . S
N331 S329 1.610 . S
N331 C332 1.351 . S
C332 C326 1.428 . S
C332 N331 1.351 . S
C332 C333 1.434 . S
C333 C324 1.429 . S
C333 N330 1.350 . S
C333 C332 1.434 . S
C334 C335 1.369 . S
C334 C336 1.419 . S
C334 H338 0.930 . S
C335 C334 1.369 . S
C335 C344 1.429 . S
C336 C334 1.419 . S
C336 C337 1.363 . S
C336 H339 0.929 . S
C337 C336 1.363 . S
C337 C343 1.428 . S
H338 C334 0.930 . S
H339 C336 0.929 . S
S340 N341 1.613 . S
S340 N342 1.610 . S
N341 S340 1.613 . S
N341 C344 1.350 . S
N342 S340 1.610 . S
N342 C343 1.351 . S
C343 C337 1.428 . S
C343 N342 1.351 . S
C343 C344 1.434 . S
C344 C335 1.429 . S
C344 N341 1.350 . S
C344 C343 1.434 . S
C345 C346 1.369 . S
C345 C347 1.419 . S
C345 H349 0.930 . S
C346 C345 1.369 . S
C346 C355 1.429 . S
C347 C345 1.419 . S
C347 C348 1.363 . S
C347 H350 0.929 . S
C348 C347 1.363 . S
C348 C354 1.428 . S
H349 C345 0.930 . S
H350 C347 0.929 . S
S351 N352 1.613 . S
S351 N353 1.610 . S
N352 S351 1.613 . S
N352 C355 1.350 . S
N353 S351 1.610 . S
N353 C354 1.351 . S
C354 C348 1.428 . S
C354 N353 1.351 . S
C354 C355 1.434 . S
C355 C346 1.429 . S
C355 N352 1.350 . S
C355 C354 1.434 . S
C356 C357 1.369 . S
C356 C358 1.419 1_554 S
C356 H360 0.930 . S
C357 C356 1.369 . S
C357 C366 1.429 1_554 S
C358 C356 1.419 1_556 S
C358 C359 1.363 . S
C358 H361 0.929 . S
C359 C358 1.363 . S
C359 C365 1.428 . S
H360 C356 0.930 . S
H361 C358 0.929 . S
S362 N363 1.613 . S
S362 N364 1.610 . S
N363 S362 1.613 . S
N363 C366 1.350 . S
N364 S362 1.610 . S
N364 C365 1.351 . S
C365 C359 1.428 . S
C365 N364 1.351 . S
C365 C366 1.434 . S
C366 C357 1.429 1_556 S
C366 N363 1.350 . S
C366 C365 1.434 . S
C367 C368 1.369 . S
C367 C369 1.419 1_455 S
C367 H371 0.930 . S
C368 C367 1.369 . S
C368 C377 1.429 . S
C369 C367 1.419 1_655 S
C369 C370 1.363 . S
C369 H372 0.929 . S
C370 C369 1.363 . S
C370 C376 1.428 1_655 S
H371 C367 0.930 . S
H372 C369 0.929 . S
S373 N374 1.613 . S
S373 N375 1.610 . S
N374 S373 1.613 . S
N374 C377 1.350 . S
N375 S373 1.610 . S
N375 C376 1.351 . S
C376 C370 1.428 1_455 S
C376 N375 1.351 . S
C376 C377 1.434 . S
C377 C368 1.429 . S
C377 N374 1.350 . S
C377 C376 1.434 . S
C378 C379 1.369 1_556 S
C378 C380 1.419 . S
C378 H382 0.930 . S
C379 C378 1.369 1_554 S
C379 C388 1.418 1_455 S
C380 C378 1.419 . S
C380 C381 1.363 1_455 S
C380 H383 0.929 . S
C381 C380 1.363 1_655 S
C381 C387 1.428 . S
H382 C378 0.930 . S
H383 C380 0.929 . S
S384 N385 1.613 . S
S384 N386 1.610 1_554 S
N385 S384 1.613 . S
N385 C388 1.354 . S
N386 S384 1.610 1_556 S
N386 C387 1.351 . S
C387 C381 1.428 . S
C387 N386 1.351 . S
C387 C388 1.442 1_556 S
C388 C379 1.418 1_655 S
C388 N385 1.354 . S
C388 C387 1.442 1_554 S
C389 C390 1.369 . S
C389 C391 1.419 . S
C389 H393 0.930 . S
C390 C389 1.369 . S
C390 C399 1.429 . S
C391 C389 1.419 . S
C391 C392 1.363 . S
C391 H394 0.929 . S
C392 C391 1.363 . S
C392 C398 1.428 . S
H393 C389 0.930 . S
H394 C391 0.929 . S
S395 N396 1.613 . S
S395 N397 1.610 . S
N396 S395 1.613 . S
N396 C399 1.350 . S
N397 S395 1.610 . S
N397 C398 1.351 . S
C398 C392 1.428 . S
C398 N397 1.351 . S
C398 C399 1.434 . S
C399 C390 1.429 . S
C399 N396 1.350 . S
C399 C398 1.434 . S
C400 C401 1.369 . S
C400 C402 1.419 . S
C400 H404 0.930 . S
C401 C400 1.369 . S
C401 C410 1.429 . S
C402 C400 1.419 . S
C402 C403 1.363 . S
C402 H405 0.929 . S
C403 C402 1.363 . S
C403 C409 1.428 . S
H404 C400 0.930 . S
H405 C402 0.929 . S
S406 N407 1.613 . S
S406 N408 1.610 . S
N407 S406 1.613 . S
N407 C410 1.350 . S
N408 S406 1.610 . S
N408 C409 1.351 . S
C409 C403 1.428 . S
C409 N408 1.351 . S
C409 C410 1.434 . S
C410 C401 1.429 . S
C410 N407 1.350 . S
C410 C409 1.434 . S
C411 C412 1.369 . S
C411 C413 1.419 . S
C411 H415 0.930 . S
C412 C411 1.369 . S
C412 C421 1.429 . S
C413 C411 1.419 . S
C413 C414 1.363 . S
C413 H416 0.929 . S
C414 C413 1.363 . S
C414 C420 1.428 . S
H415 C411 0.930 . S
H416 C413 0.929 . S
S417 N418 1.613 . S
S417 N419 1.610 . S
N418 S417 1.613 . S
N418 C421 1.350 . S
N419 S417 1.610 . S
N419 C420 1.351 . S
C420 C414 1.428 . S
C420 N419 1.351 . S
C420 C421 1.434 . S
C421 C412 1.429 . S
C421 N418 1.350 . S
C421 C420 1.434 . S
C422 C423 1.369 . S
C422 C424 1.419 . S
C422 H426 0.930 . S
C423 C422 1.369 . S
C423 C432 1.429 . S
C424 C422 1.419 . S
C424 C425 1.363 . S
C424 H427 0.929 . S
C425 C424 1.363 . S
C425 C431 1.428 . S
H426 C422 0.930 . S
H427 C424 0.929 . S
S428 N429 1.613 . S
S428 N430 1.610 . S
N429 S428 1.613 . S
N429 C432 1.350 . S
N430 S428 1.610 . S
N430 C431 1.351 . S
C431 C425 1.428 . S
C431 N430 1.351 . S
C431 C432 1.434 . S
C432 C423 1.429 . S
C432 N429 1.350 . S
C432 C431 1.434 . S
C433 C434 1.369 . S
C433 C435 1.419 . S
C433 H437 0.930 1_556 S
C434 C433 1.369 . S
C434 C443 1.429 . S
C435 C433 1.419 . S
C435 C436 1.363 . S
C435 H438 0.929 . S
C436 C435 1.363 . S
C436 C442 1.428 . S
H437 C433 0.930 1_554 S
H438 C435 0.929 . S
S439 N440 1.613 . S
S439 N441 1.610 . S
N440 S439 1.613 . S
N440 C443 1.350 . S
N441 S439 1.610 . S
N441 C442 1.351 . S
C442 C436 1.428 . S
C442 N441 1.351 . S
C442 C443 1.434 . S
C443 C434 1.429 . S
C443 N440 1.350 . S
C443 C442 1.434 . S
C444 C445 1.369 . S
C444 C446 1.419 . S
C444 H448 0.930 . S
C445 C444 1.369 . S
C445 C454 1.429 . S
C446 C444 1.419 . S
C446 C447 1.363 . S
C446 H449 0.929 . S
C447 C446 1.363 . S
C447 C453 1.428 . S
H448 C444 0.930 . S
H449 C446 0.929 . S
S450 N451 1.613 . S
S450 N452 1.610 . S
N451 S450 1.613 . S
N451 C454 1.350 . S
N452 S450 1.610 . S
N452 C453 1.351 . S
C453 C447 1.428 . S
C453 N452 1.351 . S
C453 C454 1.434 . S
C454 C445 1.429 . S
C454 N451 1.350 . S
C454 C453 1.434 . S
C455 C456 1.369 . S
C455 C457 1.419 . S
C455 H459 0.927 1_565 S
C456 C455 1.369 . S
C456 C465 1.429 . S
C457 C455 1.419 . S
C457 C458 1.363 . S
C457 H460 0.929 . S
C458 C457 1.363 . S
C458 C464 1.428 . S
H459 C455 0.927 1_545 S
H460 C457 0.929 . S
S461 N462 1.613 . S
S461 N463 1.610 . S
N462 S461 1.613 . S
N462 C465 1.350 . S
N463 S461 1.610 . S
N463 C464 1.351 . S
C464 C458 1.428 . S
C464 N463 1.351 . S
C464 C465 1.434 . S
C465 C456 1.429 . S
C465 N462 1.350 . S
C465 C464 1.434 . S
C466 C467 1.369 . S
C466 C468 1.419 . S
C466 H470 0.930 . S
C467 C466 1.369 . S
C467 C476 1.429 . S
C468 C466 1.419 . S
C468 C469 1.363 . S
C468 H471 0.929 . S
C469 C468 1.363 . S
C469 C475 1.428 . S
H470 C466 0.930 . S
H471 C468 0.929 . S
S472 N473 1.613 . S
S472 N474 1.610 . S
N473 S472 1.613 . S
N473 C476 1.350 . S
N474 S472 1.610 . S
N474 C475 1.351 . S
C475 C469 1.428 . S
C475 N474 1.351 . S
C475 C476 1.434 . S
C476 C467 1.429 . S
C476 N473 1.350 . S
C476 C475 1.434 . S
C477 C478 1.369 . S
C477 C479 1.419 . S
C477 H481 0.930 . S
C478 C477 1.369 . S
C478 C487 1.429 . S
C479 C477 1.419 . S
C479 C480 1.363 . S
C479 H482 0.929 . S
C480 C479 1.363 . S
C480 C486 1.428 . S
H481 C477 0.930 . S
H482 C479 0.929 . S
S483 N484 1.613 . S
S483 N485 1.610 1_556 S
N484 S483 1.613 . S
N484 C487 1.350 1_556 S
N485 S483 1.610 1_554 S
N485 C486 1.351 . S
C486 C480 1.428 . S
C486 N485 1.351 . S
C486 C487 1.434 . S
C487 C478 1.429 . S
C487 N484 1.350 1_554 S
C487 C486 1.434 . S
C488 C489 1.369 . S
C488 C490 1.419 . S
C488 H492 0.930 . S
C489 C488 1.369 . S
C489 C498 1.429 . S
C490 C488 1.419 . S
C490 C491 1.363 . S
C490 H493 0.929 . S
C491 C490 1.363 . S
C491 C497 1.428 . S
H492 C488 0.930 . S
H493 C490 0.929 . S
S494 N495 1.613 . S
S494 N496 1.610 1_554 S
N495 S494 1.613 . S
N495 C498 1.350 1_554 S
N496 S494 1.610 1_556 S
N496 C497 1.351 . S
C497 C491 1.428 . S
C497 N496 1.351 . S
C497 C498 1.434 . S
C498 C489 1.429 . S
C498 N495 1.350 1_556 S
C498 C497 1.434 . S
C499 C500 1.369 . S
C499 C501 1.419 . S
C499 H503 0.930 . S
C500 C499 1.369 . S
C500 C509 1.429 . S
C501 C499 1.419 . S
C501 C502 1.363 . S
C501 H504 0.929 . S
C502 C501 1.363 . S
C502 C508 1.428 . S
H503 C499 0.930 . S
H504 C501 0.929 . S
S505 N506 1.613 . S
S505 N507 1.610 . S
N506 S505 1.613 . S
N506 C509 1.350 . S
N507 S505 1.610 . S
N507 C508 1.351 . S
C508 C502 1.428 . S
C508 N507 1.351 . S
C508 C509 1.434 . S
C509 C500 1.429 . S
C509 N506 1.350 . S
C509 C508 1.434 . S
C510 C511 1.369 . S
C510 C512 1.419 . S
C510 H514 0.930 . S
C511 C510 1.369 . S
C511 C520 1.429 . S
C512 C510 1.419 . S
C512 C513 1.363 . S
C512 H515 0.929 . S
C513 C512 1.363 . S
C513 C519 1.428 . S
H514 C510 0.930 . S
H515 C512 0.929 . S
S516 N517 1.613 . S
S516 N518 1.610 . S
N517 S516 1.613 . S
N517 C520 1.350 . S
N518 S516 1.610 . S
N518 C519 1.351 . S
C519 C513 1.428 . S
C519 N518 1.351 . S
C519 C520 1.434 . S
C520 C511 1.429 . S
C520 N517 1.350 . S
C520 C519 1.434 . S
C521 C522 1.369 . S
C521 C523 1.419 . S
C521 H525 0.930 . S
C522 C521 1.369 . S
C522 C531 1.429 . S
C523 C521 1.419 . S
C523 C524 1.363 . S
C523 H526 0.929 . S
C524 C523 1.363 . S
C524 C530 1.428 . S
H525 C521 0.930 . S
H526 C523 0.929 . S
S527 N528 1.613 . S
S527 N529 1.610 1_545 S
N528 S527 1.613 . S
N528 C531 1.350 1_545 S
N529 S527 1.610 1_565 S
N529 C530 1.351 . S
C530 C524 1.428 . S
C530 N529 1.351 . S
C530 C531 1.434 . S
C531 C522 1.429 . S
C531 N528 1.350 1_565 S
C531 C530 1.434 . S
C532 C533 1.369 . S
C532 C534 1.419 . S
C532 H536 0.930 . S
C533 C532 1.369 . S
C533 C542 1.429 . S
C534 C532 1.419 . S
C534 C535 1.363 . S
C534 H537 0.929 . S
C535 C534 1.363 . S
C535 C541 1.428 . S
H536 C532 0.930 . S
H537 C534 0.929 . S
S538 N539 1.613 . S
S538 N540 1.610 . S
N539 S538 1.613 . S
N539 C542 1.350 . S
N540 S538 1.610 . S
N540 C541 1.351 . S
C541 C535 1.428 . S
C541 N540 1.351 . S
C541 C542 1.434 . S
C542 C533 1.429 . S
C542 N539 1.350 . S
C542 C541 1.434 . S
C543 C544 1.369 . S
C543 C545 1.419 . S
C543 H547 0.930 . S
C544 C543 1.369 . S
C544 C553 1.429 . S
C545 C543 1.419 . S
C545 C546 1.363 . S
C545 H548 0.929 . S
C546 C545 1.363 . S
C546 C552 1.428 . S
H547 C543 0.930 . S
H548 C545 0.929 . S
S549 N550 1.613 . S
S549 N551 1.610 . S
N550 S549 1.613 . S
N550 C553 1.350 . S
N551 S549 1.610 . S
N551 C552 1.351 . S
C552 C546 1.428 . S
C552 N551 1.351 . S
C552 C553 1.434 . S
C553 C544 1.429 . S
C553 N550 1.350 . S
C553 C552 1.434 . S
C554 C555 1.369 . S
C554 C556 1.419 . S
C554 H558 0.930 . S
C555 C554 1.369 . S
C555 C564 1.429 . S
C556 C554 1.419 . S
C556 C557 1.363 . S
C556 H559 0.929 . S
C557 C556 1.363 . S
C557 C563 1.428 . S
H558 C554 0.930 . S
H559 C556 0.929 . S
S560 N561 1.613 . S
S560 N562 1.610 . S
N561 S560 1.613 . S
N561 C564 1.350 . S
N562 S560 1.610 . S
N562 C563 1.351 . S
C563 C557 1.428 . S
C563 N562 1.351 . S
C563 C564 1.434 . S
C564 C555 1.429 . S
C564 N561 1.350 . S
C564 C563 1.434 . S
C565 C566 1.369 . S
C565 C567 1.419 . S
C565 H569 0.930 1_556 S
C566 C565 1.369 . S
C566 C575 1.429 . S
C567 C565 1.419 . S
C567 C568 1.363 . S
C567 H570 0.929 . S
C568 C567 1.363 . S
C568 C574 1.428 . S
H569 C565 0.930 1_554 S
H570 C567 0.929 . S
S571 N572 1.613 . S
S571 N573 1.610 . S
N572 S571 1.613 . S
N572 C575 1.350 . S
N573 S571 1.610 . S
N573 C574 1.351 . S
C574 C568 1.428 . S
C574 N573 1.351 . S
C574 C575 1.434 . S
C575 C566 1.429 . S
C575 N572 1.350 . S
C575 C574 1.434 . S
C225 C6 1.365 . S
C227 C176 1.384 . S
C236 C23 1.779 . S
C238 C79 1.775 . S
C247 C34 1.364 . S
C249 C204 1.383 . S
C258 C107 1.778 . S
C260 C51 1.776 . S
C269 C205 1.776 . S
C271 C36 1.778 . S
C280 C106 1.381 . S
C282 C49 1.365 . S
C291 C177 1.777 . S
C293 C8 1.778 . S
C302 C78 1.386 . S
C304 C21 1.368 . S
C313 C64 1.383 . S
C315 C118 1.370 . S
C324 C92 1.380 . S
C326 C146 1.368 . S
C335 C148 1.775 . S
C337 C93 1.777 . S
C346 C65 1.777 . S
C348 C120 1.778 . S
C357 C191 1.776 . S
C359 C135 1.775 . S
C368 C163 1.777 . S
C370 C219 1.778 . S
C379 C161 1.367 . S
C381 C218 1.381 . S
C390 C133 1.365 . S
C392 C190 1.383 . S
C401 C160 1.551 . S
C403 C7 1.551 . S
C412 C121 1.438 . S
C414 C22 1.439 1_565 S
C423 C35 1.554 . S
C425 C132 1.550 . S
C434 C149 1.439 . S
C436 C50 1.440 . S
C445 C162 1.441 . S
C447 C37 1.440 . S
C456 C48 1.553 1_565 S
C458 C119 1.550 . S
C467 C134 1.436 . S
C469 C9 1.437 . S
C478 C147 1.550 . S
C480 C20 1.554 . S
C489 C62 1.418 . S
C491 C216 1.421 . S
C500 C175 1.572 . S
C502 C77 1.567 . S
C511 C90 1.421 . S
C513 C188 1.423 . S
C522 C105 1.568 1_565 S
C524 C203 1.574 . S
C533 C91 1.574 . S
C535 C217 1.567 . S
C544 C174 1.421 . S
C546 C104 1.418 . S
C555 C189 1.569 . S
C557 C63 1.574 . S
C566 C202 1.423 . S
C568 C76 1.419 . S
