# Generated by pormake.
# Topology smn, (6)-cn, num edge types: 1
# Building blocks:
#     Node 0, Type 0, BuildingBlock: UKALOJ_clean_sbu_0, # of connection points: 6
#     Node 1, Type 0, BuildingBlock: UKALOJ_clean_sbu_0, # of connection points: 6
#     Node 2, Type 0, BuildingBlock: UKALOJ_clean_sbu_0, # of connection points: 6
#     Node 3, Type 0, BuildingBlock: UKALOJ_clean_sbu_0, # of connection points: 6
#     Node 4, Type 0, BuildingBlock: UKALOJ_clean_sbu_0, # of connection points: 6
#     Node 5, Type 0, BuildingBlock: UKALOJ_clean_sbu_0, # of connection points: 6
#     Node 6, Type 0, BuildingBlock: UKALOJ_clean_sbu_0, # of connection points: 6
#     Node 7, Type 0, BuildingBlock: UKALOJ_clean_sbu_0, # of connection points: 6
#     Node 8, Type 0, BuildingBlock: UKALOJ_clean_sbu_0, # of connection points: 6
#     Node 9, Type 0, BuildingBlock: UKALOJ_clean_sbu_0, # of connection points: 6
#     Node 10, Type 0, BuildingBlock: UKALOJ_clean_sbu_0, # of connection points: 6
#     Node 11, Type 0, BuildingBlock: UKALOJ_clean_sbu_0, # of connection points: 6
#     Node 12, Type 0, BuildingBlock: UKALOJ_clean_sbu_0, # of connection points: 6
#     Node 13, Type 0, BuildingBlock: UKALOJ_clean_sbu_0, # of connection points: 6
#     Node 14, Type 0, BuildingBlock: UKALOJ_clean_sbu_0, # of connection points: 6
#     Node 15, Type 0, BuildingBlock: UKALOJ_clean_sbu_0, # of connection points: 6
#     Node 16, Type 0, BuildingBlock: UKALOJ_clean_sbu_0, # of connection points: 6
#     Node 17, Type 0, BuildingBlock: UKALOJ_clean_sbu_0, # of connection points: 6
#     Edge 18, Type (0, 0), BuildingBlock: XUDNAN_clean_linker_2, # of connection points: 2
#     Edge 19, Type (0, 0), BuildingBlock: XUDNAN_clean_linker_2, # of connection points: 2
#     Edge 20, Type (0, 0), BuildingBlock: XUDNAN_clean_linker_2, # of connection points: 2
#     Edge 21, Type (0, 0), BuildingBlock: XUDNAN_clean_linker_2, # of connection points: 2
#     Edge 22, Type (0, 0), BuildingBlock: XUDNAN_clean_linker_2, # of connection points: 2
#     Edge 23, Type (0, 0), BuildingBlock: XUDNAN_clean_linker_2, # of connection points: 2
#     Edge 24, Type (0, 0), BuildingBlock: XUDNAN_clean_linker_2, # of connection points: 2
#     Edge 25, Type (0, 0), BuildingBlock: XUDNAN_clean_linker_2, # of connection points: 2
#     Edge 26, Type (0, 0), BuildingBlock: XUDNAN_clean_linker_2, # of connection points: 2
#     Edge 27, Type (0, 0), BuildingBlock: XUDNAN_clean_linker_2, # of connection points: 2
#     Edge 28, Type (0, 0), BuildingBlock: XUDNAN_clean_linker_2, # of connection points: 2
#     Edge 29, Type (0, 0), BuildingBlock: XUDNAN_clean_linker_2, # of connection points: 2
#     Edge 30, Type (0, 0), BuildingBlock: XUDNAN_clean_linker_2, # of connection points: 2
#     Edge 31, Type (0, 0), BuildingBlock: XUDNAN_clean_linker_2, # of connection points: 2
#     Edge 32, Type (0, 0), BuildingBlock: XUDNAN_clean_linker_2, # of connection points: 2
#     Edge 33, Type (0, 0), BuildingBlock: XUDNAN_clean_linker_2, # of connection points: 2
#     Edge 34, Type (0, 0), BuildingBlock: XUDNAN_clean_linker_2, # of connection points: 2
#     Edge 35, Type (0, 0), BuildingBlock: XUDNAN_clean_linker_2, # of connection points: 2
#     Edge 36, Type (0, 0), BuildingBlock: XUDNAN_clean_linker_2, # of connection points: 2
#     Edge 37, Type (0, 0), BuildingBlock: XUDNAN_clean_linker_2, # of connection points: 2
#     Edge 38, Type (0, 0), BuildingBlock: XUDNAN_clean_linker_2, # of connection points: 2
#     Edge 39, Type (0, 0), BuildingBlock: XUDNAN_clean_linker_2, # of connection points: 2
#     Edge 40, Type (0, 0), BuildingBlock: XUDNAN_clean_linker_2, # of connection points: 2
#     Edge 41, Type (0, 0), BuildingBlock: XUDNAN_clean_linker_2, # of connection points: 2
#     Edge 42, Type (0, 0), BuildingBlock: XUDNAN_clean_linker_2, # of connection points: 2
#     Edge 43, Type (0, 0), BuildingBlock: XUDNAN_clean_linker_2, # of connection points: 2
#     Edge 44, Type (0, 0), BuildingBlock: XUDNAN_clean_linker_2, # of connection points: 2
#     Edge 45, Type (0, 0), BuildingBlock: XUDNAN_clean_linker_2, # of connection points: 2
#     Edge 46, Type (0, 0), BuildingBlock: XUDNAN_clean_linker_2, # of connection points: 2
#     Edge 47, Type (0, 0), BuildingBlock: XUDNAN_clean_linker_2, # of connection points: 2
#     Edge 48, Type (0, 0), BuildingBlock: XUDNAN_clean_linker_2, # of connection points: 2
#     Edge 49, Type (0, 0), BuildingBlock: XUDNAN_clean_linker_2, # of connection points: 2
#     Edge 50, Type (0, 0), BuildingBlock: XUDNAN_clean_linker_2, # of connection points: 2
#     Edge 51, Type (0, 0), BuildingBlock: XUDNAN_clean_linker_2, # of connection points: 2
#     Edge 52, Type (0, 0), BuildingBlock: XUDNAN_clean_linker_2, # of connection points: 2
#     Edge 53, Type (0, 0), BuildingBlock: XUDNAN_clean_linker_2, # of connection points: 2
#     Edge 54, Type (0, 0), BuildingBlock: XUDNAN_clean_linker_2, # of connection points: 2
#     Edge 55, Type (0, 0), BuildingBlock: XUDNAN_clean_linker_2, # of connection points: 2
#     Edge 56, Type (0, 0), BuildingBlock: XUDNAN_clean_linker_2, # of connection points: 2
#     Edge 57, Type (0, 0), BuildingBlock: XUDNAN_clean_linker_2, # of connection points: 2
#     Edge 58, Type (0, 0), BuildingBlock: XUDNAN_clean_linker_2, # of connection points: 2
#     Edge 59, Type (0, 0), BuildingBlock: XUDNAN_clean_linker_2, # of connection points: 2
#     Edge 60, Type (0, 0), BuildingBlock: XUDNAN_clean_linker_2, # of connection points: 2
#     Edge 61, Type (0, 0), BuildingBlock: XUDNAN_clean_linker_2, # of connection points: 2
#     Edge 62, Type (0, 0), BuildingBlock: XUDNAN_clean_linker_2, # of connection points: 2
#     Edge 63, Type (0, 0), BuildingBlock: XUDNAN_clean_linker_2, # of connection points: 2
#     Edge 64, Type (0, 0), BuildingBlock: XUDNAN_clean_linker_2, # of connection points: 2
#     Edge 65, Type (0, 0), BuildingBlock: XUDNAN_clean_linker_2, # of connection points: 2
#     Edge 66, Type (0, 0), BuildingBlock: XUDNAN_clean_linker_2, # of connection points: 2
#     Edge 67, Type (0, 0), BuildingBlock: XUDNAN_clean_linker_2, # of connection points: 2
#     Edge 68, Type (0, 0), BuildingBlock: XUDNAN_clean_linker_2, # of connection points: 2
#     Edge 69, Type (0, 0), BuildingBlock: XUDNAN_clean_linker_2, # of connection points: 2
#     Edge 70, Type (0, 0), BuildingBlock: XUDNAN_clean_linker_2, # of connection points: 2
#     Edge 71, Type (0, 0), BuildingBlock: XUDNAN_clean_linker_2, # of connection points: 2
# Relax obj value: 0.236
# Max RMSD: 0.266
# Mean RMSD: 0.266
data_MOF--net-smn--node1-UKALOJ_clean_sbu_0--edge1-XUDNAN_clean_linker_2
_symmetry_space_group_name_H-M    P1
_symmetry_Int_Tables_number       1
_symmetry_cell_setting            triclinic
loop_
_symmetry_equiv_pos_as_xyz
'x, y, z'
_cell_length_a     64.590958
_cell_length_b     64.560463
_cell_length_c     20.635587
_cell_angle_alpha  89.999619
_cell_angle_beta   89.866481
_cell_angle_gamma 119.95572
loop_
_atom_site_label
_atom_site_type_symbol
_atom_site_fract_x
_atom_site_fract_y
_atom_site_fract_z
_atom_type_partial_charge
Zn0 Zn 1.00129 0.22417 0.6946 0.0
O1 O 0.98234 0.23839 0.74776 0.0
C2 C 0.98421 0.18406 0.7889 0.0
Zn3 Zn 0.0272 0.23263 0.77568 0.0
C4 C 0.98972 0.24617 0.80481 0.0
O5 O 0.00801 0.24598 0.8269 0.0
C6 C 0.03925 0.21125 0.6651 0.0
O7 O 0.04996 0.26746 0.73209 0.0
O8 O 0.02363 0.25747 0.65336 0.0
N9 N 0.04925 0.23905 0.8541 0.0
C10 C 0.0716 0.2425 0.85794 0.0
C11 C 0.05612 0.23236 0.95195 0.0
N12 N 0.0398 0.23305 0.91286 0.0
N13 N 0.07621 0.23791 0.9186 0.0
C14 C 0.95672 0.19541 0.61008 0.0
C15 C 0.97216 0.20343 0.5158 0.0
N16 N 0.97897 0.2143 0.61594 0.0
N17 N 0.98838 0.21948 0.55703 0.0
N18 N 0.95218 0.18785 0.54793 0.0
H19 H 0.94322 0.19946 0.70204 0.0
H20 H 0.92059 0.18004 0.64454 0.0
H21 H 0.93809 0.1699 0.68624 0.0
C22 C 0.93867 0.18574 0.66394 0.0
C23 C 0.08936 0.25199 0.80357 0.0
H24 H 0.08539 0.26294 0.77004 0.0
H25 H 0.10775 0.26287 0.82288 0.0
H26 H 0.08852 0.23698 0.77593 0.0
O27 O 0.04609 0.21888 0.72225 0.0
O28 O 0.02069 0.21084 0.64329 0.0
C29 C 0.04349 0.27237 0.6785 0.0
O30 O 0.97949 0.19058 0.73581 0.0
O31 O 1.00362 0.19805 0.81767 0.0
Zn32 Zn 0.80815 0.7972 0.69673 0.0
O33 O 0.79607 0.76169 0.73529 0.0
C34 C 0.84729 0.81371 0.79393 0.0
Zn35 Zn 0.79831 0.80701 0.79181 0.0
C36 C 0.78839 0.75701 0.79362 0.0
O37 O 0.78726 0.77281 0.82773 0.0
C38 C 0.8149 0.8463 0.69416 0.0
O39 O 0.76308 0.79533 0.7536 0.0
O40 O 0.77423 0.78656 0.66102 0.0
N41 N 0.79183 0.81805 0.88008 0.0
C42 C 0.78822 0.8365 0.89291 0.0
C43 C 0.80271 0.83036 0.97827 0.0
N44 N 0.80051 0.81406 0.93378 0.0
N45 N 0.79536 0.84489 0.95351 0.0
C46 C 0.83751 0.78659 0.59632 0.0
C47 C 0.83237 0.80179 0.51082 0.0
N48 N 0.81933 0.79068 0.60856 0.0
N49 N 0.81595 0.7998 0.55476 0.0
N50 N 0.84637 0.79387 0.53603 0.0
H51 H 0.83121 0.76218 0.67442 0.0
H52 H 0.85241 0.76393 0.61415 0.0
H53 H 0.8611 0.7878 0.67082 0.0
C54 C 0.84594 0.77435 0.64183 0.0
C55 C 0.77645 0.84557 0.84779 0.0
H56 H 0.76391 0.83098 0.81557 0.0
H57 H 0.7665 0.8525 0.87575 0.0
H58 H 0.79014 0.86052 0.81846 0.0
O59 O 0.80903 0.84099 0.75312 0.0
O60 O 0.81854 0.83217 0.65959 0.0
C61 C 0.75854 0.78794 0.69511 0.0
O62 O 0.84198 0.8077 0.73516 0.0
O63 O 0.83312 0.81724 0.82861 0.0
Zn64 Zn 0.22481 0.00961 0.77773 0.0
O65 O 0.2351 0.98429 0.74669 0.0
C66 C 0.18977 0.99026 0.67004 0.0
Zn67 Zn 0.23938 0.03048 0.68611 0.0
C68 C 0.24574 0.9876 0.69229 0.0
O69 O 0.25034 0.00593 0.65876 0.0
C70 C 0.21984 0.05355 0.7716 0.0
O71 O 0.27268 0.05221 0.73081 0.0
O72 O 0.25922 0.0313 0.821 0.0
N73 N 0.25019 0.04692 0.59736 0.0
C74 C 0.25412 0.06825 0.57504 0.0
C75 C 0.24732 0.04567 0.49338 0.0
N76 N 0.2463 0.03308 0.54633 0.0
N77 N 0.2518 0.06779 0.50955 0.0
C78 C 0.19071 0.97024 0.8755 0.0
C79 C 0.20083 0.98874 0.96548 0.0
N80 N 0.21042 0.99162 0.86408 0.0
N81 N 0.21679 0.00296 0.92037 0.0
N82 N 0.18414 0.96811 0.93849 0.0
H83 H 0.1912 0.95216 0.78811 0.0
H84 H 0.17016 0.93307 0.84928 0.0
H85 H 0.1639 0.95269 0.80247 0.0
C86 C 0.17839 0.95093 0.82586 0.0
C87 C 0.26259 0.08985 0.61712 0.0
H88 H 0.2716 0.08819 0.6609 0.0
H89 H 0.27509 0.10625 0.58993 0.0
H90 H 0.24713 0.09146 0.63303 0.0
O91 O 0.22835 0.0548 0.71523 0.0
O92 O 0.2156 0.03588 0.80771 0.0
C93 C 0.27618 0.04828 0.78922 0.0
O94 O 0.19124 0.98797 0.73063 0.0
O95 O 0.20668 0.00803 0.64156 0.0
Zn96 Zn 0.03186 0.81063 0.28604 0.0
O97 O 0.05378 0.79906 0.23822 0.0
C98 C 0.04689 0.84966 0.18742 0.0
Zn99 Zn 0.00599 0.80002 0.20371 0.0
C100 C 0.04711 0.79047 0.18159 0.0
O101 O 0.02812 0.78869 0.15804 0.0
C102 C 0.99008 0.81919 0.30871 0.0
O103 O 0.98448 0.76564 0.24705 0.0
O104 O 0.01069 0.77588 0.32601 0.0
N105 N 0.98519 0.79053 0.12145 0.0
C106 C 0.96456 0.78981 0.10565 0.0
C107 C 0.97875 0.78394 0.01873 0.0
N108 N 0.99386 0.78678 0.06721 0.0
N109 N 0.96036 0.78601 0.04158 0.0
C110 C 0.07551 0.83868 0.37905 0.0
C111 C 0.05872 0.82661 0.47117 0.0
N112 N 0.05283 0.82119 0.36809 0.0
N113 N 0.04258 0.81355 0.42547 0.0
N114 N 0.07959 0.84258 0.44349 0.0
H115 H 0.08789 0.8435 0.28026 0.0
H116 H 0.11115 0.85882 0.33799 0.0
H117 H 0.09153 0.87014 0.32048 0.0
C118 C 0.09249 0.85356 0.32645 0.0
C119 C 0.94779 0.79125 0.15304 0.0
H120 H 0.94666 0.78099 0.19732 0.0
H121 H 0.9296 0.78379 0.1324 0.0
H122 H 0.95452 0.81025 0.16574 0.0
O123 O 0.98476 0.81152 0.25111 0.0
O124 O 0.00908 0.82144 0.3337 0.0
C125 C 0.99117 0.76054 0.2998 0.0
O126 O 0.05275 0.84518 0.2422 0.0
O127 O 0.02746 0.83411 0.1616 0.0
Zn128 Zn 0.22096 0.22503 0.27279 0.0
O129 O 0.23179 0.2608 0.24213 0.0
C130 C 0.19066 0.21002 0.15649 0.0
Zn131 Zn 0.24092 0.2218 0.18802 0.0
C132 C 0.24577 0.26991 0.19377 0.0
O133 O 0.25298 0.25763 0.16311 0.0
C134 C 0.21766 0.1773 0.26795 0.0
O135 O 0.27252 0.23319 0.24461 0.0
O136 O 0.25276 0.23716 0.32674 0.0
N137 N 0.25534 0.21738 0.1036 0.0
C138 C 0.25846 0.19927 0.08283 0.0
C139 C 0.25546 0.21686 0.99937 0.0
N140 N 0.25382 0.22843 0.05148 0.0
N141 N 0.25792 0.19806 0.01698 0.0
C142 C 0.17954 0.21559 0.3668 0.0
C143 C 0.19556 0.24452 0.43355 0.0
N144 N 0.20298 0.22849 0.35134 0.0
N145 N 0.21292 0.24639 0.39319 0.0
N146 N 0.17438 0.2254 0.4177 0.0
H147 H 0.15315 0.19691 0.2937 0.0
H148 H 0.14778 0.18077 0.36861 0.0
H149 H 0.17069 0.18333 0.31362 0.0
C150 C 0.16186 0.19279 0.33398 0.0
C151 C 0.26491 0.18507 0.12725 0.0
H152 H 0.27268 0.19505 0.17285 0.0
H153 H 0.27794 0.18106 0.10343 0.0
H154 H 0.24872 0.16805 0.13965 0.0
O155 O 0.22886 0.1861 0.2153 0.0
O156 O 0.21134 0.18952 0.30251 0.0
C157 C 0.2718 0.23865 0.30375 0.0
O158 O 0.18999 0.21366 0.21655 0.0
O159 O 0.2094 0.21134 0.13267 0.0
Zn160 Zn 0.79682 1.00214 0.28171 0.0
O161 O 0.76299 0.98124 0.23369 0.0
C162 C 0.81975 0.98767 0.1811 0.0
Zn163 Zn 0.8098 0.0282 0.19928 0.0
C164 C 0.76072 0.98734 0.17646 0.0
O165 O 0.77766 0.0061 0.15086 0.0
C166 C 0.84528 0.04402 0.30527 0.0
O167 O 0.79495 0.04833 0.24253 0.0
O168 O 0.78471 0.02365 0.32534 0.0
N169 N 0.82266 0.05102 0.12114 0.0
C170 C 0.84496 0.06306 0.09601 0.0
C171 C 0.82216 0.06843 0.03231 0.0
N172 N 0.80854 0.05445 0.08151 0.0
N173 N 0.84512 0.07423 0.04068 0.0
C174 C 0.7865 0.96041 0.3799 0.0
C175 C 0.77833 0.97336 0.46551 0.0
N176 N 0.7861 0.98047 0.36326 0.0
N177 N 0.78092 0.98834 0.41674 0.0
N178 N 0.78204 0.95583 0.44375 0.0
H179 H 0.77968 0.94285 0.28818 0.0
H180 H 0.78273 0.92625 0.35393 0.0
H181 H 0.80889 0.95212 0.32252 0.0
C182 C 0.7896 0.94442 0.3334 0.0
C183 C 0.86632 0.06262 0.12291 0.0
H184 H 0.87595 0.07801 0.15622 0.0
H185 H 0.87881 0.06428 0.08359 0.0
H186 H 0.8611 0.046 0.15019 0.0
O187 O 0.84136 0.05014 0.25032 0.0
O188 O 0.83028 0.02369 0.32833 0.0
C189 C 0.78597 0.04203 0.29903 0.0
O190 O 0.80932 0.98136 0.23564 0.0
O191 O 0.82364 0.00734 0.15646 0.0
Zn192 Zn 0.67053 0.55513 0.04214 0.0
O193 O 0.64977 0.56868 0.0827 0.0
C194 C 0.65253 0.51755 0.14451 0.0
Zn195 Zn 0.69413 0.56714 0.12992 0.0
C196 C 0.65403 0.57794 0.1391 0.0
O197 O 0.67164 0.57958 0.17141 0.0
C198 C 0.71072 0.54538 0.02902 0.0
O199 O 0.71623 0.60118 0.08734 0.0
O200 O 0.69392 0.58928 0.99964 0.0
N201 N 0.7146 0.57525 0.21324 0.0
C202 C 0.73672 0.57835 0.22107 0.0
C203 C 0.71967 0.56875 0.31318 0.0
N204 N 0.70417 0.56959 0.27093 0.0
N205 N 0.7402 0.57391 0.28292 0.0
C206 C 0.62924 0.5244 0.94622 0.0
C207 C 0.64707 0.53601 0.85554 0.0
N208 N 0.65061 0.54395 0.95803 0.0
N209 N 0.66148 0.55134 0.90125 0.0
N210 N 0.62673 0.51877 0.88261 0.0
H211 H 0.61212 0.52285 0.03718 0.0
H212 H 0.5924 0.50336 0.9745 0.0
H213 H 0.61227 0.49579 0.0146 0.0
C214 C 0.61043 0.51093 0.99633 0.0
C215 C 0.75534 0.58657 0.16899 0.0
H216 H 0.7514 0.59568 0.1294 0.0
H217 H 0.7732 0.59891 0.18968 0.0
H218 H 0.75597 0.571 0.14912 0.0
O219 O 0.71585 0.55494 0.08478 0.0
O220 O 0.69175 0.542 1.00156 0.0
C221 C 0.71195 0.60539 0.03001 0.0
O222 O 0.64775 0.52174 0.08805 0.0
O223 O 0.6716 0.53307 0.17176 0.0
Zn224 Zn 0.4765 0.1285 0.05643 0.0
O225 O 0.46359 0.09417 0.10277 0.0
C226 C 0.51248 0.15114 0.16084 0.0
Zn227 Zn 0.46246 0.14109 0.13752 0.0
C228 C 0.45469 0.09176 0.15953 0.0
O229 O 0.45236 0.10855 0.18413 0.0
C230 C 0.48296 0.17755 0.03457 0.0
O231 O 0.42818 0.12612 0.09031 0.0
O232 O 0.44374 0.11626 0.00917 0.0
N233 N 0.45105 0.15273 0.21525 0.0
C234 C 0.46087 0.17476 0.24179 0.0
C235 C 0.43217 0.15114 0.30331 0.0
N236 N 0.43318 0.13809 0.25354 0.0
N237 N 0.44925 0.17424 0.29663 0.0
C238 C 0.51046 0.1197 0.96659 0.0
C239 C 0.49866 0.12339 0.87346 0.0
N240 N 0.48991 0.12001 0.97561 0.0
N241 N 0.48247 0.12196 0.91732 0.0
N242 N 0.51659 0.12226 0.90324 0.0
H243 H 0.51211 0.10559 0.05952 0.0
H244 H 0.53325 0.10656 0.99994 0.0
H245 H 0.5382 0.13371 0.03717 0.0
C246 C 0.52421 0.11607 0.01914 0.0
C247 C 0.48288 0.19652 0.21702 0.0
H248 H 0.47741 0.20658 0.18434 0.0
H249 H 0.49328 0.20849 0.25751 0.0
H250 H 0.49465 0.1918 0.18971 0.0
O251 O 0.47223 0.17318 0.08858 0.0
O252 O 0.48849 0.16263 0.01187 0.0
C253 C 0.42628 0.11739 0.03375 0.0
O254 O 0.50903 0.14104 0.10608 0.0
O255 O 0.49649 0.155 0.18409 0.0
Zn256 Zn 0.902 0.36288 0.04677 0.0
O257 O 0.93635 0.38592 0.0849 0.0
C258 C 0.88168 0.38161 0.14339 0.0
Zn259 Zn 0.89136 0.34071 0.137 0.0
C260 C 0.94109 0.38307 0.14311 0.0
O261 O 0.92542 0.36561 0.17657 0.0
C262 C 0.85303 0.32027 0.03836 0.0
O263 O 0.90561 0.31966 0.10094 0.0
O264 O 0.91406 0.33962 0.00927 0.0
N265 N 0.88048 0.32127 0.22231 0.0
C266 C 0.85849 0.30941 0.2496 0.0
C267 C 0.88243 0.30607 0.31382 0.0
N268 N 0.89531 0.31916 0.26241 0.0
N269 N 0.85922 0.29956 0.3066 0.0
C270 C 0.91145 0.40111 0.93853 0.0
C271 C 0.90549 0.37954 0.85509 0.0
N272 N 0.90914 0.38013 0.95874 0.0
N273 N 0.90566 0.36693 0.90657 0.0
N274 N 0.90872 0.40107 0.87312 0.0
H275 H 0.92736 0.42044 0.0263 0.0
H276 H 0.92983 0.43894 0.95783 0.0
H277 H 0.9015 0.42162 0.99915 0.0
C278 C 0.91797 0.4218 0.98294 0.0
C279 C 0.83654 0.30869 0.22289 0.0
H280 H 0.82684 0.29262 0.19189 0.0
H281 H 0.82437 0.3075 0.26258 0.0
H282 H 0.84111 0.3247 0.19338 0.0
O283 O 0.85831 0.316 0.094 0.0
O284 O 0.86757 0.33952 0.00974 0.0
C285 C 0.91386 0.32307 0.04339 0.0
O286 O 0.89066 0.38584 0.0868 0.0
O287 O 0.87827 0.36288 0.17288 0.0
Zn288 Zn 0.6985 0.14335 0.6437 0.0
O289 O 0.71981 0.13137 0.59718 0.0
C290 C 0.71929 0.18445 0.55178 0.0
Zn291 Zn 0.67643 0.13504 0.55394 0.0
C292 C 0.715 0.12252 0.54029 0.0
O293 O 0.69723 0.12132 0.51005 0.0
C294 C 0.6593 0.15429 0.66022 0.0
O295 O 0.65177 0.10037 0.59208 0.0
O296 O 0.67528 0.10818 0.67681 0.0
N297 N 0.65709 0.12978 0.46995 0.0
C298 C 0.63553 0.12793 0.46108 0.0
C299 C 0.65306 0.13653 0.36947 0.0
N300 N 0.66782 0.13486 0.41265 0.0
N301 N 0.63273 0.13247 0.39887 0.0
C302 C 0.73988 0.17 0.74011 0.0
C303 C 0.72136 0.16038 0.8301 0.0
N304 N 0.71775 0.15167 0.72828 0.0
N305 N 0.7064 0.14543 0.78464 0.0
N306 N 0.74249 0.1762 0.80334 0.0
H307 H 0.75571 0.16944 0.64826 0.0
H308 H 0.77673 0.18567 0.71254 0.0
H309 H 0.76113 0.19845 0.67349 0.0
C310 C 0.7594 0.18141 0.69043 0.0
C311 C 0.6168 0.12091 0.51245 0.0
H312 H 0.61911 0.11021 0.55076 0.0
H313 H 0.59873 0.11037 0.4909 0.0
H314 H 0.61809 0.1372 0.53418 0.0
O315 O 0.65592 0.14828 0.60094 0.0
O316 O 0.67661 0.15461 0.68982 0.0
C317 C 0.65639 0.09395 0.64607 0.0
O318 O 0.7213 0.17834 0.60878 0.0
O319 O 0.70182 0.16983 0.51715 0.0
Zn320 Zn 0.90887 0.56011 0.54177 0.0
O321 O 0.94137 0.57085 0.5946 0.0
C322 C 0.88465 0.51714 0.62838 0.0
Zn323 Zn 0.89123 0.56622 0.62753 0.0
C324 C 0.94185 0.57751 0.65306 0.0
O325 O 0.92375 0.57775 0.67662 0.0
C326 C 0.85847 0.55005 0.51622 0.0
O327 O 0.90328 0.60183 0.59161 0.0
O328 O 0.92228 0.59568 0.51148 0.0
N329 N 0.87651 0.57131 0.71082 0.0
C330 C 0.85621 0.57198 0.72104 0.0
C331 C 0.86759 0.56644 0.81285 0.0
N332 N 0.88367 0.56815 0.76824 0.0
N333 N 0.85006 0.56863 0.78433 0.0
C334 C 0.92382 0.53293 0.4471 0.0
C335 C 0.91574 0.54279 0.35647 0.0
N336 N 0.92086 0.55189 0.45812 0.0
N337 N 0.91623 0.55822 0.40133 0.0
N338 N 0.92018 0.52648 0.38397 0.0
H339 H 0.93898 0.53319 0.54059 0.0
H340 H 0.94617 0.51883 0.47592 0.0
H341 H 0.91717 0.50402 0.51136 0.0
C342 C 0.932 0.52173 0.49702 0.0
C343 C 0.8428 0.57679 0.66984 0.0
H344 H 0.85528 0.58849 0.63164 0.0
H345 H 0.83332 0.58554 0.69119 0.0
H346 H 0.82923 0.55962 0.64813 0.0
O347 O 0.85908 0.55469 0.57613 0.0
O348 O 0.87643 0.55026 0.49031 0.0
C349 C 0.9165 0.60933 0.54111 0.0
O350 O 0.89524 0.52462 0.57438 0.0
O351 O 0.87997 0.53078 0.66199 0.0
Zn352 Zn 0.46325 0.33645 0.63878 0.0
O353 O 0.42886 0.31454 0.59816 0.0
C354 C 0.48285 0.31578 0.54368 0.0
Zn355 Zn 0.47456 0.35719 0.54569 0.0
C356 C 0.42395 0.31763 0.5404 0.0
O357 O 0.43997 0.33441 0.50602 0.0
C358 C 0.51302 0.37642 0.64693 0.0
O359 O 0.46257 0.38018 0.58298 0.0
O360 O 0.45195 0.36002 0.67486 0.0
N361 N 0.48652 0.37588 0.45935 0.0
C362 C 0.50564 0.3976 0.44728 0.0
C363 C 0.49573 0.37893 0.35763 0.0
N364 N 0.48021 0.36445 0.40319 0.0
N365 N 0.51202 0.39985 0.38418 0.0
C366 C 0.45038 0.29507 0.7348 0.0
C367 C 0.462 0.31365 0.8243 0.0
N368 N 0.45455 0.31747 0.72443 0.0
N369 N 0.46143 0.32887 0.7805 0.0
N370 N 0.45539 0.29233 0.79669 0.0
H371 H 0.43038 0.27908 0.64742 0.0
H372 H 0.42792 0.25813 0.70958 0.0
H373 H 0.45456 0.2735 0.6623 0.0
C374 C 0.44016 0.27539 0.6855 0.0
C375 C 0.51792 0.41694 0.49666 0.0
H376 H 0.50555 0.4147 0.53688 0.0
H377 H 0.52459 0.43472 0.47372 0.0
H378 H 0.53358 0.41635 0.51618 0.0
O379 O 0.50869 0.3797 0.58901 0.0
O380 O 0.49723 0.3587 0.67846 0.0
C381 C 0.45376 0.37714 0.63996 0.0
O382 O 0.47476 0.31357 0.60081 0.0
O383 O 0.48551 0.33323 0.50919 0.0
Zn384 Zn 0.33881 0.88673 0.37686 0.0
O385 O 0.31293 0.89622 0.41233 0.0
C386 C 0.31705 0.84421 0.4657 0.0
Zn387 Zn 0.35649 0.89476 0.47385 0.0
C388 C 0.31455 0.90238 0.4717 0.0
O389 O 0.33113 0.90333 0.50661 0.0
C390 C 0.38213 0.88046 0.38154 0.0
O391 O 0.37928 0.9311 0.4423 0.0
O392 O 0.36135 0.92224 0.3474 0.0
N393 N 0.37076 0.90072 0.56511 0.0
C394 C 0.39264 0.90681 0.58786 0.0
C395 C 0.36843 0.89344 0.66749 0.0
N396 N 0.35584 0.89267 0.6149 0.0
N397 N 0.39161 0.90195 0.65216 0.0
C398 C 0.30202 0.85963 0.26796 0.0
C399 C 0.3243 0.86956 0.18456 0.0
N400 N 0.32366 0.87757 0.28592 0.0
N401 N 0.33738 0.88399 0.23353 0.0
N402 N 0.30199 0.85399 0.2049 0.0
H403 H 0.2833 0.85756 0.35708 0.0
H404 H 0.26472 0.84551 0.28596 0.0
H405 H 0.27699 0.82921 0.32321 0.0
C406 C 0.28067 0.84744 0.31166 0.0
C407 C 0.41494 0.91907 0.54777 0.0
H408 H 0.41267 0.92897 0.50714 0.0
H409 H 0.43034 0.93161 0.57798 0.0
H410 H 0.41882 0.90559 0.52698 0.0
O411 O 0.38186 0.88603 0.4404 0.0
O412 O 0.36571 0.8786 0.34385 0.0
C413 C 0.37723 0.93743 0.38508 0.0
O414 O 0.31622 0.85089 0.40836 0.0
O415 O 0.33306 0.85888 0.50377 0.0
Zn416 Zn 0.13049 0.47788 0.47388 0.0
O417 O 0.09657 0.46937 0.43104 0.0
C418 C 0.15304 0.52207 0.39433 0.0
Zn419 Zn 0.14231 0.47147 0.37746 0.0
C420 C 0.09345 0.46454 0.3706 0.0
O421 O 0.10984 0.46425 0.33715 0.0
C422 C 0.17848 0.48195 0.48019 0.0
O423 O 0.12781 0.43427 0.40172 0.0
O424 O 0.11696 0.44175 0.49608 0.0
N425 N 0.15505 0.46859 0.28752 0.0
C426 C 0.17243 0.46363 0.2723 0.0
C427 C 0.16854 0.48166 0.19117 0.0
N428 N 0.15245 0.47952 0.23643 0.0
N429 N 0.18147 0.47195 0.21276 0.0
C430 C 0.1174 0.5011 0.58769 0.0
C431 C 0.1255 0.48591 0.66839 0.0
N432 N 0.12149 0.48389 0.56466 0.0
N433 N 0.12624 0.47432 0.61508 0.0
N434 N 0.12036 0.50316 0.65294 0.0
H435 H 0.09897 0.50341 0.50363 0.0
H436 H 0.0965 0.51836 0.57501 0.0
H437 H 0.12389 0.53114 0.52927 0.0
C438 C 0.10858 0.5142 0.5466 0.0
C439 C 0.1804 0.45021 0.3148 0.0
H440 H 0.16561 0.43791 0.34705 0.0
H441 H 0.18628 0.4398 0.28482 0.0
H442 H 0.19587 0.46302 0.34414 0.0
O443 O 0.17447 0.47825 0.41998 0.0
O444 O 0.16387 0.48475 0.51515 0.0
C445 C 0.11839 0.42712 0.45769 0.0
O446 O 0.14415 0.51423 0.44997 0.0
O447 O 0.15562 0.5083 0.35531 0.0
Zn448 Zn 0.56448 0.69499 0.37913 0.0
O449 O 0.59959 0.71718 0.4159 0.0
C450 C 0.54599 0.71257 0.48001 0.0
Zn451 Zn 0.55591 0.67111 0.46549 0.0
C452 C 0.60529 0.71279 0.4713 0.0
O453 O 0.5902 0.6945 0.50309 0.0
C454 C 0.51569 0.65297 0.37087 0.0
O455 O 0.56883 0.6493 0.42434 0.0
O456 O 0.57499 0.67152 0.33755 0.0
N457 N 0.5454 0.65206 0.55133 0.0
C458 C 0.52627 0.63044 0.56408 0.0
C459 C 0.53692 0.64919 0.65348 0.0
N460 N 0.55219 0.66353 0.60735 0.0
N461 N 0.52031 0.62832 0.62747 0.0
C462 C 0.57412 0.73399 0.27312 0.0
C463 C 0.56825 0.71291 0.18862 0.0
N464 N 0.57153 0.7128 0.29229 0.0
N465 N 0.56812 0.69991 0.23949 0.0
N466 N 0.57165 0.73438 0.20773 0.0
H467 H 0.58983 0.75276 0.36176 0.0
H468 H 0.59243 0.77168 0.29416 0.0
H469 H 0.56402 0.75406 0.33477 0.0
C470 C 0.58055 0.75438 0.31851 0.0
C471 C 0.51351 0.61104 0.51513 0.0
H472 H 0.52549 0.61324 0.47388 0.0
H473 H 0.50713 0.5933 0.53807 0.0
H474 H 0.4976 0.6115 0.4972 0.0
O475 O 0.52197 0.64806 0.42421 0.0
O476 O 0.52963 0.67262 0.34311 0.0
C477 C 0.57545 0.65418 0.36544 0.0
O478 O 0.554 0.71784 0.42256 0.0
O479 O 0.54382 0.69372 0.50605 0.0
Zn480 Zn 0.36174 0.47547 0.96777 0.0
O481 O 0.3832 0.46285 0.92298 0.0
C482 C 0.37849 0.51457 0.86868 0.0
Zn483 Zn 0.33646 0.46605 0.8845 0.0
C484 C 0.3767 0.45466 0.86592 0.0
O485 O 0.35828 0.45387 0.84126 0.0
C486 C 0.32097 0.48623 0.98664 0.0
O487 O 0.31407 0.43184 0.92758 0.0
O488 O 0.33964 0.44117 0.00792 0.0
N489 N 0.31627 0.45691 0.8017 0.0
C490 C 0.29499 0.45484 0.78673 0.0
C491 C 0.31076 0.45245 0.69829 0.0
N492 N 0.32593 0.45529 0.74657 0.0
N493 N 0.29131 0.45235 0.72222 0.0
C494 C 0.40293 0.50618 0.06382 0.0
C495 C 0.38544 0.49315 0.15437 0.0
N496 N 0.38192 0.48628 0.05132 0.0
N497 N 0.37127 0.47801 0.10799 0.0
N498 N 0.4054 0.51113 0.12782 0.0
H499 H 0.42019 0.50934 0.97216 0.0
H500 H 0.43955 0.52876 0.03547 0.0
H501 H 0.41876 0.53552 0.99739 0.0
C502 C 0.42142 0.5207 0.014 0.0
C503 C 0.27729 0.45398 0.83507 0.0
H504 H 0.27808 0.44508 0.88023 0.0
H505 H 0.25887 0.4441 0.81541 0.0
H506 H 0.28156 0.47252 0.84603 0.0
O507 O 0.31557 0.4785 0.92915 0.0
O508 O 0.33946 0.48754 0.0124 0.0
C509 C 0.32018 0.42629 0.98058 0.0
O510 O 0.38366 0.50934 0.92335 0.0
O511 O 0.35885 0.49992 0.84213 0.0
Zn512 Zn 0.5627 0.8904 0.87485 0.0
O513 O 0.59784 0.90066 0.90717 0.0
C514 C 0.54497 0.85013 0.96965 0.0
Zn515 Zn 0.55446 0.90031 0.97131 0.0
C516 C 0.60461 0.9098 0.96328 0.0
O517 O 0.59008 0.9122 0.99989 0.0
C518 C 0.51285 0.8824 0.88315 0.0
O519 O 0.56503 0.93534 0.93292 0.0
O520 O 0.57537 0.92536 0.84104 0.0
N521 N 0.5466 0.90763 0.06198 0.0
C522 C 0.52968 0.9124 0.08377 0.0
C523 C 0.54226 0.90158 0.16492 0.0
N524 N 0.55453 0.90117 0.11272 0.0
N525 N 0.52618 0.90821 0.14846 0.0
C526 C 0.57445 0.86291 0.77141 0.0
C527 C 0.55658 0.86585 0.68857 0.0
N528 N 0.56788 0.87922 0.7856 0.0
N529 N 0.5571 0.88128 0.73351 0.0
N530 N 0.56718 0.85389 0.7113 0.0
H531 H 0.60414 0.873 0.83548 0.0
H532 H 0.59635 0.84677 0.78775 0.0
H533 H 0.57808 0.8452 0.85541 0.0
C534 C 0.58905 0.85656 0.81491 0.0
C535 C 0.51828 0.92293 0.04225 0.0
H536 H 0.52996 0.93269 1.0006 0.0
H537 H 0.51463 0.93529 0.07101 0.0
H538 H 0.50121 0.90848 0.02294 0.0
O539 O 0.51908 0.88849 0.94152 0.0
O540 O 0.52756 0.88133 0.8442 0.0
C541 C 0.57373 0.94076 0.87574 0.0
O542 O 0.55024 0.85552 0.91046 0.0
O543 O 0.54483 0.86558 0.00739 0.0
Zn544 Zn 0.14597 0.68995 0.88311 0.0
O545 O 0.13543 0.71537 0.91013 0.0
C546 C 0.18595 0.71135 0.97648 0.0
Zn547 Zn 0.13481 0.67198 0.97961 0.0
C548 C 0.12767 0.71444 0.96759 0.0
O549 O 0.12613 0.69841 0.00637 0.0
C550 C 0.15116 0.64615 0.89456 0.0
O551 O 0.09916 0.64969 0.94674 0.0
O552 O 0.11058 0.66635 0.85045 0.0
N553 N 0.12772 0.65862 0.07244 0.0
C554 C 0.1223 0.63713 0.09712 0.0
C555 C 0.13504 0.66206 0.17488 0.0
N556 N 0.13535 0.67399 0.12111 0.0
N557 N 0.12727 0.63888 0.16142 0.0
C558 C 0.17399 0.72481 0.76867 0.0
C559 C 0.16106 0.70071 0.68904 0.0
N560 N 0.15627 0.70367 0.79121 0.0
N561 N 0.1482 0.68883 0.74144 0.0
N562 N 0.1777 0.72334 0.70439 0.0
H563 H 0.1749 0.74592 0.85057 0.0
H564 H 0.19101 0.76303 0.78008 0.0
H565 H 0.20305 0.74846 0.82953 0.0
C566 C 0.18642 0.74689 0.80944 0.0
C567 C 0.11026 0.61437 0.05912 0.0
H568 H 0.0999 0.61592 0.01851 0.0
H569 H 0.0982 0.59918 0.09085 0.0
H570 H 0.12385 0.61066 0.03845 0.0
O571 O 0.14323 0.64571 0.95117 0.0
O572 O 0.15521 0.66338 0.85697 0.0
C573 C 0.09426 0.65123 0.88768 0.0
O574 O 0.18105 0.71372 0.91839 0.0
O575 O 0.1702 0.6946 0.0109 0.0
H576 H 0.08203 0.21301 0.69151 0.0
H577 H 0.0312 0.19895 0.53708 0.0
H578 H 0.05948 0.19817 0.45829 0.0
H579 H 0.13231 0.25383 0.60537 0.0
H580 H 0.15237 0.24478 0.63859 0.0
H581 H 0.12691 0.24056 0.68496 0.0
H582 H 0.11236 0.19542 0.69621 0.0
H583 H 0.13792 0.19947 0.65042 0.0
H584 H 0.10821 0.17781 0.62452 0.0
H585 H 0.09494 0.20453 0.39433 0.0
H586 H 0.13432 0.21456 0.35019 0.0
H587 H 0.16282 0.2246 0.54474 0.0
C588 C 0.07667 0.20945 0.64144 0.0
C589 C 0.0544 0.20629 0.62075 0.0
C590 C 0.04808 0.20139 0.55447 0.0
C591 C 0.06408 0.20097 0.50917 0.0
C592 C 0.08632 0.20534 0.53079 0.0
C593 C 0.09255 0.20919 0.59545 0.0
C594 C 0.11821 0.21507 0.60522 0.0
C595 C 0.13334 0.24004 0.6353 0.0
C596 C 0.11922 0.19578 0.64654 0.0
C597 C 0.12559 0.2145 0.53569 0.0
C598 C 0.10682 0.20866 0.4937 0.0
C599 C 0.10956 0.2084 0.42683 0.0
C600 C 0.13196 0.2139 0.40217 0.0
C601 C 0.15134 0.21935 0.44414 0.0
C602 C 0.14813 0.21994 0.51176 0.0
H603 H 0.81733 0.94441 0.44707 0.0
H604 H 0.74914 0.92763 0.53086 0.0
H605 H 0.75077 0.89786 0.60296 0.0
H606 H 0.80837 0.88384 0.45178 0.0
H607 H 0.83889 0.89349 0.47336 0.0
H608 H 0.83201 0.91281 0.42636 0.0
H609 H 0.85333 0.9463 0.51164 0.0
H610 H 0.86011 0.92703 0.55916 0.0
H611 H 0.84407 0.94033 0.59529 0.0
H612 H 0.75885 0.86983 0.66232 0.0
H613 H 0.7736 0.84542 0.71232 0.0
H614 H 0.83848 0.88106 0.5977 0.0
C615 C 0.80262 0.9341 0.47993 0.0
C616 C 0.78281 0.93783 0.48296 0.0
C617 C 0.76423 0.92472 0.52777 0.0
C618 C 0.76505 0.90785 0.56864 0.0
C619 C 0.78476 0.90456 0.56456 0.0
C620 C 0.8033 0.91728 0.5217 0.0
C621 C 0.82269 0.91061 0.52924 0.0
C622 C 0.82566 0.89953 0.46645 0.0
C623 C 0.84646 0.93237 0.55008 0.0
C624 C 0.81212 0.89216 0.58323 0.0
C625 C 0.79017 0.88903 0.60218 0.0
C626 C 0.7763 0.87262 0.64933 0.0
C627 C 0.78514 0.85919 0.67868 0.0
C628 C 0.8079 0.86246 0.6625 0.0
C629 C 0.82142 0.87883 0.61283 0.0
H630 H 0.14046 0.95872 0.66907 0.0
H631 H 0.20773 0.97267 0.58384 0.0
H632 H 0.18707 0.93499 0.52332 0.0
H633 H 0.11283 0.89435 0.6811 0.0
H634 H 0.08359 0.88835 0.65646 0.0
H635 H 0.10354 0.91597 0.69696 0.0
H636 H 0.09994 0.94006 0.60154 0.0
H637 H 0.07979 0.91252 0.56113 0.0
H638 H 0.10643 0.93464 0.5203 0.0
H639 H 0.16016 0.89492 0.47751 0.0
H640 H 0.12693 0.85773 0.43239 0.0
H641 H 0.07601 0.87154 0.53245 0.0
C642 C 0.15065 0.95381 0.6372 0.0
C643 C 0.17563 0.96863 0.63071 0.0
C644 C 0.18851 0.9617 0.58879 0.0
C645 C 0.177 0.94021 0.55463 0.0
C646 C 0.15244 0.92593 0.56182 0.0
C647 C 0.13923 0.93258 0.60067 0.0
C648 C 0.11277 0.91446 0.59551 0.0
C649 C 0.10258 0.90258 0.66144 0.0
C650 C 0.09892 0.92612 0.56796 0.0
C651 C 0.11336 0.89681 0.54784 0.0
C652 C 0.13652 0.90356 0.5304 0.0
C653 C 0.14186 0.88977 0.48912 0.0
C654 C 0.12292 0.8689 0.46288 0.0
C655 C 0.09899 0.86255 0.476 0.0
C656 C 0.0942 0.87632 0.52062 0.0
H657 H 0.21973 0.06538 0.90006 0.0
H658 H 0.22012 0.0902 0.70448 0.0
H659 H 0.23187 0.13029 0.7466 0.0
H660 H 0.19461 0.10117 0.97489 0.0
H661 H 0.21173 0.10617 0.04792 0.0
H662 H 0.20204 0.07914 0.00204 0.0
H663 H 0.24595 0.08853 0.99554 0.0
H664 H 0.25586 0.11597 0.0395 0.0
H665 H 0.26835 0.11649 0.96091 0.0
H666 H 0.24956 0.16887 0.80804 0.0
H667 H 0.26214 0.20157 0.88662 0.0
H668 H 0.24455 0.15049 0.04377 0.0
C669 C 0.22153 0.07901 0.86623 0.0
C670 C 0.21974 0.07483 0.79853 0.0
C671 C 0.22229 0.09321 0.75613 0.0
C672 C 0.22887 0.11604 0.77968 0.0
C673 C 0.23209 0.12003 0.84614 0.0
C674 C 0.22758 0.10184 0.88915 0.0
C675 C 0.23197 0.11097 0.95844 0.0
C676 C 0.2087 0.09864 0.99816 0.0
C677 C 0.2517 0.1078 0.99045 0.0
C678 C 0.24022 0.13722 0.9473 0.0
C679 C 0.24053 0.14207 0.88209 0.0
C680 C 0.24883 0.16518 0.85941 0.0
C681 C 0.25609 0.1837 0.90469 0.0
C682 C 0.25457 0.17917 0.97246 0.0
C683 C 0.24668 0.1554 0.99344 0.0
H684 H 0.88889 0.11238 0.06505 0.0
H685 H 0.84454 0.06413 0.91415 0.0
H686 H 0.8779 0.08429 0.83571 0.0
H687 H 0.91665 0.16436 0.96491 0.0
H688 H 0.94535 0.17703 0.00397 0.0
H689 H 0.9186 0.1576 0.04869 0.0
H690 H 0.93611 0.13033 0.07721 0.0
H691 H 0.96281 0.14955 0.03174 0.0
H692 H 0.94574 0.11813 0.01299 0.0
H693 H 0.91521 0.11023 0.77356 0.0
H694 H 0.95242 0.14324 0.72778 0.0
H695 H 0.97281 0.17566 0.91803 0.0
C696 C 0.88644 0.10603 0.01557 0.0
C697 C 0.86438 0.08661 0.9953 0.0
C698 C 0.8614 0.07898 0.9301 0.0
C699 C 0.88027 0.09017 0.88562 0.0
C700 C 0.90194 0.10909 0.90717 0.0
C701 C 0.90506 0.11721 0.97035 0.0
C702 C 0.92956 0.13906 0.97959 0.0
C703 C 0.9274 0.16079 1.0005 0.0
C704 C 0.94443 0.13395 0.02828 0.0
C705 C 0.93961 0.14216 0.91149 0.0
C706 C 0.92347 0.12442 0.87083 0.0
C707 C 0.92805 0.12411 0.80497 0.0
C708 C 0.94923 0.1429 0.77942 0.0
C709 C 0.96549 0.16186 0.81944 0.0
C710 C 0.96097 0.16107 0.88669 0.0
H711 H 0.88192 0.83822 0.88908 0.0
H712 H 0.84743 0.77285 0.77689 0.0
H713 H 0.87284 0.75927 0.82671 0.0
H714 H 0.94166 0.84571 0.89009 0.0
H715 H 0.94768 0.85535 0.97331 0.0
H716 H 0.9276 0.86104 0.92612 0.0
H717 H 0.89455 0.83933 0.01275 0.0
H718 H 0.91449 0.83344 0.05998 0.0
H719 H 0.88585 0.80909 0.03548 0.0
H720 H 0.90191 0.75258 0.88507 0.0
H721 H 0.93263 0.75237 0.95608 0.0
H722 H 0.94723 0.81997 0.03895 0.0
C723 C 0.88014 0.8213 0.87448 0.0
C724 C 0.86386 0.80733 0.82546 0.0
C725 C 0.86116 0.78475 0.80992 0.0
C726 C 0.87514 0.77657 0.83921 0.0
C727 C 0.89148 0.7909 0.88569 0.0
C728 C 0.89399 0.81266 0.90412 0.0
C729 C 0.91251 0.82383 0.95752 0.0
C730 C 0.93361 0.84791 0.93542 0.0
C731 C 0.90116 0.82658 0.02014 0.0
C732 C 0.91994 0.80501 0.96523 0.0
C733 C 0.90753 0.78624 0.92301 0.0
C734 C 0.91163 0.76703 0.91896 0.0
C735 C 0.92902 0.76702 0.95918 0.0
C736 C 0.94178 0.78585 0.0033 0.0
C737 C 0.93719 0.8051 0.00648 0.0
H738 H 0.85829 0.78653 0.41526 0.0
H739 H 0.88784 0.81751 0.60229 0.0
H740 H 0.92832 0.82947 0.56282 0.0
H741 H 0.89776 0.76366 0.38127 0.0
H742 H 0.90045 0.77079 0.29611 0.0
H743 H 0.87376 0.76463 0.33955 0.0
H744 H 0.87943 0.80553 0.3025 0.0
H745 H 0.90631 0.81188 0.25963 0.0
H746 H 0.90712 0.8325 0.31984 0.0
H747 H 0.96559 0.8369 0.5042 0.0
H748 H 0.99664 0.83841 0.4308 0.0
H749 H 0.94331 0.80473 0.28018 0.0
C750 C 0.87334 0.7957 0.44771 0.0
C751 C 0.86985 0.80022 0.51259 0.0
C752 C 0.88996 0.81276 0.55348 0.0
C753 C 0.91309 0.82002 0.53112 0.0
C754 C 0.91595 0.81502 0.46722 0.0
C755 C 0.89666 0.80321 0.42595 0.0
C756 C 0.90471 0.79987 0.35968 0.0
C757 C 0.89351 0.77315 0.34322 0.0
C758 C 0.89906 0.81325 0.30733 0.0
C759 C 0.93142 0.81137 0.37057 0.0
C760 C 0.93757 0.82009 0.4328 0.0
C761 C 0.96104 0.83036 0.45505 0.0
C762 C 0.97858 0.83121 0.41295 0.0
C763 C 0.97257 0.82192 0.34927 0.0
C764 C 0.94872 0.81237 0.32784 0.0
H765 H 0.23904 0.10211 0.53714 0.0
H766 H 0.256 0.06845 0.37934 0.0
H767 H 0.2442 0.08941 0.30099 0.0
H768 H 0.18989 0.10286 0.46847 0.0
H769 H 0.19778 0.13231 0.49674 0.0
H770 H 0.20702 0.11442 0.54176 0.0
H771 H 0.25131 0.14802 0.53439 0.0
H772 H 0.24212 0.16632 0.49123 0.0
H773 H 0.26414 0.16025 0.45624 0.0
H774 H 0.2278 0.11163 0.23997 0.0
H775 H 0.21721 0.14102 0.19885 0.0
H776 H 0.21621 0.16424 0.39546 0.0
C777 C 0.24128 0.0996 0.48663 0.0
C778 C 0.24883 0.08354 0.46518 0.0
C779 C 0.25029 0.08054 0.39745 0.0
C780 C 0.24347 0.09227 0.35242 0.0
C781 C 0.23561 0.10741 0.37551 0.0
C782 C 0.23523 0.11174 0.44085 0.0
C783 C 0.22742 0.13004 0.45255 0.0
C784 C 0.20414 0.11925 0.49224 0.0
C785 C 0.24744 0.15249 0.48553 0.0
C786 C 0.22337 0.13521 0.38346 0.0
C787 C 0.22768 0.12151 0.33997 0.0
C788 C 0.22489 0.12283 0.27348 0.0
C789 C 0.21896 0.13963 0.25054 0.0
C790 C 0.21656 0.15536 0.29367 0.0
C791 C 0.21783 0.15241 0.36122 0.0
H792 H 0.87171 0.09216 0.28375 0.0
H793 H 0.86103 0.03699 0.42214 0.0
H794 H 0.88751 0.06818 0.49964 0.0
H795 H 0.93427 0.13502 0.32436 0.0
H796 H 0.92999 0.16035 0.31412 0.0
H797 H 0.91245 0.13359 0.26749 0.0
H798 H 0.87381 0.1317 0.31025 0.0
H799 H 0.89114 0.15811 0.35825 0.0
H800 H 0.86876 0.13094 0.39639 0.0
H801 H 0.91337 0.1053 0.56371 0.0
H802 H 0.93855 0.1456 0.60813 0.0
H803 H 0.93024 0.17677 0.43111 0.0
C804 C 0.87545 0.08656 0.3296 0.0
C805 C 0.86449 0.06208 0.34664 0.0
C806 C 0.86942 0.0556 0.40781 0.0
C807 C 0.88433 0.07319 0.45223 0.0
C808 C 0.89406 0.09715 0.43477 0.0
C809 C 0.89002 0.10385 0.37471 0.0
C810 C 0.90155 0.13079 0.3692 0.0
C811 C 0.92071 0.14051 0.31563 0.0
C812 C 0.88268 0.13832 0.35786 0.0
C813 C 0.91261 0.13823 0.4358 0.0
C814 C 0.9081 0.11853 0.47274 0.0
C815 C 0.91671 0.12082 0.53558 0.0
C816 C 0.93058 0.14385 0.56105 0.0
C817 C 0.93538 0.16435 0.52434 0.0
C818 C 0.92629 0.16139 0.46077 0.0
H819 H 0.80528 0.94087 0.2099 0.0
H820 H 0.84151 0.99507 0.06205 0.0
H821 H 0.84089 0.96435 0.98929 0.0
H822 H 0.83331 0.90437 0.17295 0.0
H823 H 0.80596 0.87684 0.18889 0.0
H824 H 0.81229 0.90369 0.23176 0.0
H825 H 0.77196 0.89868 0.19306 0.0
H826 H 0.76562 0.8721 0.14904 0.0
H827 H 0.76563 0.89666 0.10751 0.0
H828 H 0.83308 0.92716 0.92968 0.0
H829 H 0.82028 0.88666 0.8888 0.0
H830 H 0.78751 0.85638 0.07414 0.0
C831 C 0.81372 0.94656 0.16315 0.0
C832 C 0.82359 0.97053 0.14216 0.0
C833 C 0.83401 0.9769 0.07961 0.0
C834 C 0.83368 0.95955 0.03785 0.0
C835 C 0.82291 0.93592 0.05942 0.0
C836 C 0.81335 0.92947 0.12089 0.0
C837 C 0.80133 0.90264 0.1309 0.0
C838 C 0.81398 0.89653 0.18428 0.0
C839 C 0.77455 0.8919 0.146 0.0
C840 C 0.80518 0.89488 0.06487 0.0
C841 C 0.8178 0.9144 0.02455 0.0
C842 C 0.82312 0.91178 0.96075 0.0
C843 C 0.81541 0.88867 0.9376 0.0
C844 C 0.80217 0.86837 0.97766 0.0
C845 C 0.7973 0.8716 0.0424 0.0
H846 H 0.17642 0.94547 0.05457 0.0
H847 H 0.14054 0.9546 0.88926 0.0
H848 H 0.10139 0.92753 0.93925 0.0
H849 H 0.13449 0.88299 0.08008 0.0
H850 H 0.13623 0.88487 0.16724 0.0
H851 H 0.16142 0.90541 0.11882 0.0
H852 H 0.16137 0.94097 0.177 0.0
H853 H 0.13594 0.92046 0.22493 0.0
H854 H 0.13457 0.94308 0.17699 0.0
H855 H 0.06616 0.89879 0.00549 0.0
H856 H 0.03715 0.86834 0.08067 0.0
H857 H 0.09546 0.87793 0.20459 0.0
C858 C 0.16025 0.94162 0.02913 0.0
C859 C 0.16143 0.95157 0.96728 0.0
C860 C 0.13998 0.94645 0.9355 0.0
C861 C 0.11768 0.93138 0.96399 0.0
C862 C 0.11706 0.92169 0.02473 0.0
C863 C 0.13774 0.92647 0.05692 0.0
C864 C 0.13193 0.91303 0.12082 0.0
C865 C 0.14159 0.89554 0.12176 0.0
C866 C 0.14153 0.93043 0.17833 0.0
C867 C 0.10482 0.89983 0.11907 0.0
C868 C 0.09664 0.90526 0.06345 0.0
C869 C 0.07234 0.89453 0.04951 0.0
C870 C 0.05597 0.87729 0.09263 0.0
C871 C 0.06392 0.8709 0.14914 0.0
C872 C 0.08869 0.88276 0.16291 0.0
H873 H 0.09523 0.24586 0.03907 0.0
H874 H 0.09702 0.21677 0.85117 0.0
H875 H 0.12568 0.20552 0.89236 0.0
H876 H 0.15752 0.26854 0.08157 0.0
H877 H 0.15093 0.2601 0.16558 0.0
H878 H 0.13179 0.26739 0.11948 0.0
H879 H 0.09544 0.22627 0.14991 0.0
H880 H 0.11459 0.21872 0.19509 0.0
H881 H 0.09608 0.19931 0.13119 0.0
H882 H 0.15419 0.19715 0.95415 0.0
H883 H 0.18125 0.19339 0.03181 0.0
H884 H 0.15857 0.22487 0.18205 0.0
C885 C 0.10201 0.23749 0.00645 0.0
C886 C 0.09467 0.23328 0.94096 0.0
C887 C 0.10337 0.22159 0.90022 0.0
C888 C 0.11934 0.21463 0.92366 0.0
C889 C 0.12614 0.21901 0.98841 0.0
C890 C 0.11778 0.23017 0.02932 0.0
C891 C 0.12748 0.23225 0.09729 0.0
C892 C 0.14285 0.25864 0.11712 0.0
C893 C 0.10718 0.2183 0.14625 0.0
C894 C 0.1426 0.22055 0.08805 0.0
C895 C 0.14162 0.21307 0.02486 0.0
C896 C 0.15496 0.20274 0.00394 0.0
C897 C 0.17018 0.20058 0.0484 0.0
C898 C 0.17175 0.20848 0.11315 0.0
C899 C 0.15736 0.21814 0.1333 0.0
H900 H 0.84124 0.58535 0.89528 0.0
H901 H 0.80722 0.53477 0.73907 0.0
H902 H 0.76769 0.52103 0.78919 0.0
H903 H 0.80207 0.54783 0.02417 0.0
H904 H 0.8015 0.5721 0.0657 0.0
H905 H 0.82732 0.5777 0.01854 0.0
H906 H 0.82373 0.60964 0.95097 0.0
H907 H 0.79821 0.6044 0.99875 0.0
H908 H 0.79582 0.6017 0.91179 0.0
H909 H 0.73176 0.51353 0.85482 0.0
H910 H 0.70193 0.5145 0.92835 0.0
H911 H 0.75933 0.57012 0.04091 0.0
C912 C 0.82539 0.57144 0.87188 0.0
C913 C 0.8271 0.56148 0.81267 0.0
C914 C 0.80612 0.54315 0.78335 0.0
C915 C 0.78366 0.53501 0.81193 0.0
C916 C 0.7825 0.54527 0.87015 0.0
C917 C 0.80277 0.56319 0.89968 0.0
C918 C 0.79644 0.57184 0.96078 0.0
C919 C 0.80749 0.56708 0.02084 0.0
C920 C 0.80399 0.59847 0.9552 0.0
C921 C 0.76949 0.55608 0.96067 0.0
C922 C 0.7618 0.54074 0.90834 0.0
C923 C 0.73758 0.52528 0.89644 0.0
C924 C 0.72078 0.5259 0.93848 0.0
C925 C 0.72828 0.54183 0.99174 0.0
C926 C 0.75298 0.55689 0.00296 0.0
H927 H 0.46383 0.20635 0.05804 0.0
H928 H 0.50624 0.19316 0.91807 0.0
H929 H 0.50432 0.22193 0.84287 0.0
H930 H 0.42442 0.20844 0.94629 0.0
H931 H 0.42171 0.23179 0.9864 0.0
H932 H 0.4286 0.21238 0.0327 0.0
H933 H 0.4668 0.24891 0.07753 0.0
H934 H 0.45983 0.26853 0.03235 0.0
H935 H 0.48843 0.27038 0.02188 0.0
H936 H 0.49569 0.25004 0.78045 0.0
H937 H 0.48262 0.27714 0.73672 0.0
H938 H 0.44428 0.27089 0.91479 0.0
C939 C 0.47328 0.20995 0.0123 0.0
C940 C 0.48539 0.19763 0.9942 0.0
C941 C 0.49704 0.20252 0.93326 0.0
C942 C 0.49597 0.21877 0.89013 0.0
C943 C 0.48318 0.22996 0.90865 0.0
C944 C 0.47223 0.22596 0.96851 0.0
C945 C 0.45858 0.23934 0.97521 0.0
C946 C 0.43174 0.22194 0.98576 0.0
C947 C 0.46904 0.2579 0.02998 0.0
C948 C 0.4633 0.25127 0.90936 0.0
C949 C 0.47758 0.24564 0.87188 0.0
C950 C 0.48432 0.25438 0.80914 0.0
C951 C 0.47641 0.26939 0.78419 0.0
C952 C 0.46158 0.27527 0.82135 0.0
C953 C 0.45517 0.26624 0.88502 0.0
H954 H 0.82881 0.27198 0.06132 0.0
H955 H 0.83157 0.32642 0.93229 0.0
H956 H 0.80223 0.29495 0.86044 0.0
H957 H 0.82777 0.23408 0.94034 0.0
H958 H 0.80758 0.20645 0.9807 0.0
H959 H 0.8261 0.23284 0.0276 0.0
H960 H 0.78874 0.22924 0.08503 0.0
H961 H 0.77009 0.20252 0.03928 0.0
H962 H 0.7645 0.22722 0.03709 0.0
H963 H 0.77559 0.25828 0.79833 0.0
H964 H 0.75129 0.21811 0.75158 0.0
H965 H 0.7667 0.18687 0.91724 0.0
C966 C 0.82263 0.27726 0.01907 0.0
C967 C 0.83226 0.30165 0.00267 0.0
C968 C 0.82427 0.30785 0.94599 0.0
C969 C 0.80766 0.29011 0.90483 0.0
C970 C 0.79925 0.26626 0.92099 0.0
C971 C 0.80622 0.25974 0.97701 0.0
C972 C 0.79569 0.23283 0.98053 0.0
C973 C 0.81547 0.22617 0.98239 0.0
C974 C 0.77874 0.22233 0.03895 0.0
C975 C 0.7821 0.22533 0.9171 0.0
C976 C 0.78435 0.24495 0.88385 0.0
C977 C 0.7738 0.2428 0.8237 0.0
C978 C 0.76041 0.21997 0.79694 0.0
C979 C 0.75798 0.19957 0.82964 0.0
C980 C 0.76875 0.20228 0.89086 0.0
H981 H 0.93277 0.5152 0.26906 0.0
H982 H 0.88682 0.48477 0.43662 0.0
H983 H 0.86981 0.44451 0.38935 0.0
H984 H 0.88933 0.47632 0.15085 0.0
H985 H 0.91079 0.47359 0.10096 0.0
H986 H 0.91996 0.50025 0.14817 0.0
H987 H 0.95279 0.49464 0.20374 0.0
H988 H 0.94399 0.46826 0.15574 0.0
H989 H 0.94466 0.46661 0.24284 0.0
H990 H 0.85821 0.40746 0.32528 0.0
H991 H 0.85455 0.37579 0.251 0.0
H992 H 0.90644 0.42994 0.12176 0.0
C993 C 0.91937 0.49994 0.29585 0.0
C994 C 0.91186 0.50294 0.35779 0.0
C995 C 0.89377 0.48271 0.39084 0.0
C996 C 0.88365 0.45982 0.36373 0.0
C997 C 0.89148 0.45741 0.30281 0.0
C998 C 0.90898 0.47686 0.26923 0.0
C999 C 0.9143 0.46914 0.20479 0.0
C1000 C 0.90823 0.48051 0.14783 0.0
C1001 C 0.94048 0.47501 0.20163 0.0
C1002 C 0.89723 0.44236 0.20788 0.0
C1003 C 0.88414 0.43601 0.26469 0.0
C1004 C 0.86817 0.41221 0.28026 0.0
C1005 C 0.86611 0.39434 0.23765 0.0
C1006 C 0.87985 0.40036 0.18 0.0
C1007 C 0.89514 0.42475 0.16437 0.0
H1008 H 0.52107 0.42461 0.27124 0.0
H1009 H 0.55485 0.41023 0.43248 0.0
H1010 H 0.59457 0.43693 0.38492 0.0
H1011 H 0.56248 0.42707 0.14715 0.0
H1012 H 0.56251 0.45114 0.10281 0.0
H1013 H 0.5365 0.43059 0.14879 0.0
H1014 H 0.53798 0.46594 0.21237 0.0
H1015 H 0.56377 0.48654 0.16595 0.0
H1016 H 0.56515 0.48681 0.2532 0.0
H1017 H 0.63062 0.46606 0.32207 0.0
H1018 H 0.66073 0.49691 0.24953 0.0
H1019 H 0.6039 0.4921 0.12755 0.0
C1020 C 0.53691 0.42725 0.29629 0.0
C1021 C 0.53503 0.41601 0.35644 0.0
C1022 C 0.55602 0.41947 0.38769 0.0
C1023 C 0.57862 0.4343 0.36055 0.0
C1024 C 0.57996 0.44538 0.30158 0.0
C1025 C 0.55971 0.44211 0.26975 0.0
C1026 C 0.56632 0.45669 0.20775 0.0
C1027 C 0.55635 0.44039 0.1481 0.0
C1028 C 0.5578 0.47509 0.20999 0.0
C1029 C 0.59337 0.46877 0.2102 0.0
C1030 C 0.60084 0.46186 0.26452 0.0
C1031 C 0.625 0.47143 0.27896 0.0
C1032 C 0.64197 0.48891 0.23744 0.0
C1033 C 0.63474 0.49658 0.18202 0.0
C1034 C 0.61009 0.48606 0.16802 0.0
H1035 H 0.60822 0.11697 0.28645 0.0
H1036 H 0.62034 0.16316 0.45114 0.0
H1037 H 0.59218 0.17479 0.40612 0.0
H1038 H 0.60395 0.15551 0.16623 0.0
H1039 H 0.58063 0.13122 0.12093 0.0
H1040 H 0.60184 0.12659 0.16598 0.0
H1041 H 0.56723 0.0914 0.22837 0.0
H1042 H 0.54599 0.09575 0.18272 0.0
H1043 H 0.54542 0.09621 0.27003 0.0
H1044 H 0.56175 0.18069 0.34339 0.0
H1045 H 0.53084 0.17926 0.26948 0.0
H1046 H 0.53917 0.1294 0.1468 0.0
C1047 C 0.60479 0.12944 0.31284 0.0
C1048 C 0.61582 0.13863 0.37306 0.0
C1049 C 0.61129 0.1552 0.40617 0.0
C1050 C 0.5956 0.16217 0.38051 0.0
C1051 C 0.58477 0.1526 0.32127 0.0
C1052 C 0.58912 0.13654 0.28791 0.0
C1053 C 0.5748 0.1285 0.22591 0.0
C1054 C 0.5913 0.1359 0.16624 0.0
C1055 C 0.55732 0.10136 0.22685 0.0
C1056 C 0.5617 0.14244 0.2298 0.0
C1057 C 0.56772 0.15635 0.28487 0.0
C1058 C 0.55708 0.17004 0.29971 0.0
C1059 C 0.53959 0.16917 0.25745 0.0
C1060 C 0.53301 0.15476 0.20109 0.0
C1061 C 0.54442 0.14143 0.18745 0.0
H1062 H 0.5271 0.10673 0.79241 0.0
H1063 H 0.55858 0.1577 0.94904 0.0
H1064 H 0.59854 0.17315 0.9006 0.0
H1065 H 0.57519 0.09386 0.77469 0.0
H1066 H 0.5731 0.0917 0.68763 0.0
H1067 H 0.547 0.08459 0.73536 0.0
H1068 H 0.54127 0.11562 0.66973 0.0
H1069 H 0.56762 0.12308 0.62259 0.0
H1070 H 0.56532 0.14617 0.66553 0.0
H1071 H 0.63535 0.1822 0.8372 0.0
H1072 H 0.66635 0.18356 0.76352 0.0
H1073 H 0.61098 0.12799 0.64602 0.0
C1074 C 0.5425 0.12101 0.81644 0.0
C1075 C 0.53991 0.13042 0.8757 0.0
C1076 C 0.56032 0.14945 0.90534 0.0
C1077 C 0.58305 0.15863 0.87757 0.0
C1078 C 0.58508 0.14884 0.81948 0.0
C1079 C 0.56539 0.13044 0.78917 0.0
C1080 C 0.57263 0.12296 0.72745 0.0
C1081 C 0.56663 0.09673 0.73156 0.0
C1082 C 0.56102 0.12722 0.6678 0.0
C1083 C 0.5994 0.13995 0.72811 0.0
C1084 C 0.60623 0.15477 0.78153 0.0
C1085 C 0.6302 0.17096 0.79459 0.0
C1086 C 0.64767 0.17169 0.75248 0.0
C1087 C 0.64103 0.15653 0.69773 0.0
C1088 C 0.61657 0.14068 0.68533 0.0
H1089 H 0.89779 0.43699 0.90103 0.0
H1090 H 0.91197 0.40122 0.74282 0.0
H1091 H 0.90201 0.42354 0.66479 0.0
H1092 H 0.85091 0.44241 0.83044 0.0
H1093 H 0.86114 0.47239 0.85876 0.0
H1094 H 0.86798 0.45273 0.9042 0.0
H1095 H 0.91322 0.48361 0.89806 0.0
H1096 H 0.90647 0.50362 0.8542 0.0
H1097 H 0.92688 0.49514 0.82021 0.0
H1098 H 0.88828 0.44766 0.60347 0.0
H1099 H 0.88124 0.47929 0.56109 0.0
H1100 H 0.8822 0.50417 0.75693 0.0
C1101 C 0.89971 0.43417 0.85051 0.0
C1102 C 0.90597 0.4171 0.82905 0.0
C1103 C 0.90713 0.41393 0.76122 0.0
C1104 C 0.90137 0.42647 0.71622 0.0
C1105 C 0.89495 0.44271 0.73917 0.0
C1106 C 0.89485 0.44723 0.80449 0.0
C1107 C 0.88917 0.46716 0.81557 0.0
C1108 C 0.86591 0.45812 0.85456 0.0
C1109 C 0.91019 0.48866 0.84897 0.0
C1110 C 0.88608 0.473 0.74617 0.0
C1111 C 0.88888 0.45817 0.70317 0.0
C1112 C 0.88655 0.45971 0.63656 0.0
C1113 C 0.88265 0.4778 0.6129 0.0
C1114 C 0.88186 0.4946 0.65539 0.0
C1115 C 0.88266 0.49157 0.72316 0.0
H1116 H 0.60088 0.50881 0.77175 0.0
H1117 H 0.62003 0.47672 0.92767 0.0
H1118 H 0.59539 0.43685 0.879 0.0
H1119 H 0.54003 0.46167 0.7565 0.0
H1120 H 0.53941 0.46357 0.66945 0.0
H1121 H 0.5591 0.48963 0.71596 0.0
H1122 H 0.59504 0.49432 0.64814 0.0
H1123 H 0.57543 0.46799 0.60216 0.0
H1124 H 0.60082 0.46977 0.64351 0.0
H1125 H 0.56737 0.4004 0.81687 0.0
H1126 H 0.53647 0.36943 0.74658 0.0
H1127 H 0.53606 0.42485 0.62891 0.0
C1128 C 0.59972 0.4933 0.79538 0.0
C1129 C 0.61168 0.49563 0.85442 0.0
C1130 C 0.61019 0.4751 0.88382 0.0
C1131 C 0.59656 0.45247 0.85599 0.0
C1132 C 0.58475 0.45065 0.79815 0.0
C1133 C 0.58612 0.47046 0.76809 0.0
C1134 C 0.57097 0.46331 0.70729 0.0
C1135 C 0.5512 0.46993 0.71266 0.0
C1136 C 0.5865 0.47452 0.64669 0.0
C1137 C 0.56068 0.43643 0.70855 0.0
C1138 C 0.56902 0.42955 0.76113 0.0
C1139 C 0.56097 0.40557 0.77493 0.0
C1140 C 0.54349 0.38811 0.73473 0.0
C1141 C 0.53438 0.39474 0.68122 0.0
C1142 C 0.54342 0.41924 0.66757 0.0
H1143 H 0.45487 0.21797 0.2725 0.0
H1144 H 0.45765 0.17304 0.4239 0.0
H1145 H 0.47118 0.2065 0.50213 0.0
H1146 H 0.50656 0.27365 0.32243 0.0
H1147 H 0.49316 0.2916 0.30329 0.0
H1148 H 0.48464 0.26449 0.25881 0.0
H1149 H 0.44018 0.24851 0.28852 0.0
H1150 H 0.44853 0.27571 0.33207 0.0
H1151 H 0.4318 0.24726 0.37245 0.0
H1152 H 0.48423 0.24473 0.56324 0.0
H1153 H 0.49068 0.28313 0.60686 0.0
H1154 H 0.47844 0.30294 0.41587 0.0
C1155 C 0.45846 0.21535 0.32214 0.0
C1156 C 0.4555 0.19316 0.34255 0.0
C1157 C 0.45985 0.19 0.40789 0.0
C1158 C 0.46773 0.20892 0.45222 0.0
C1159 C 0.47097 0.23079 0.43032 0.0
C1160 C 0.46613 0.23399 0.36705 0.0
C1161 C 0.46967 0.2588 0.35686 0.0
C1162 C 0.4897 0.27297 0.30741 0.0
C1163 C 0.44615 0.25748 0.33629 0.0
C1164 C 0.47704 0.26901 0.42446 0.0
C1165 C 0.47801 0.25267 0.46585 0.0
C1166 C 0.48351 0.25765 0.53129 0.0
C1167 C 0.48712 0.27949 0.55565 0.0
C1168 C 0.48493 0.29593 0.51488 0.0
C1169 C 0.48062 0.2909 0.44802 0.0
H1170 H 0.81603 0.26068 0.28103 0.0
H1171 H 0.85956 0.30794 0.43462 0.0
H1172 H 0.82649 0.28577 0.51294 0.0
H1173 H 0.75871 0.2526 0.33567 0.0
H1174 H 0.74236 0.22143 0.31381 0.0
H1175 H 0.76891 0.24176 0.26942 0.0
H1176 H 0.78742 0.21504 0.29346 0.0
H1177 H 0.76086 0.19454 0.33729 0.0
H1178 H 0.7896 0.20737 0.3762 0.0
H1179 H 0.78891 0.25812 0.57428 0.0
H1180 H 0.75136 0.22455 0.61702 0.0
H1181 H 0.73245 0.19444 0.42383 0.0
C1182 C 0.81838 0.26647 0.33103 0.0
C1183 C 0.84011 0.28621 0.35197 0.0
C1184 C 0.84295 0.29292 0.41798 0.0
C1185 C 0.82423 0.28054 0.46247 0.0
C1186 C 0.80286 0.26136 0.44016 0.0
C1187 C 0.79993 0.25416 0.37613 0.0
C1188 C 0.77574 0.23205 0.3655 0.0
C1189 C 0.76053 0.23728 0.3183 0.0
C1190 C 0.77858 0.21101 0.34173 0.0
C1191 C 0.76557 0.22777 0.43369 0.0
C1192 C 0.78141 0.24507 0.47581 0.0
C1193 C 0.77639 0.24449 0.54172 0.0
C1194 C 0.75504 0.22532 0.5656 0.0
C1195 C 0.73903 0.20681 0.52391 0.0
C1196 C 0.74413 0.20849 0.45677 0.0
H1197 H 0.83104 0.57078 0.53651 0.0
H1198 H 0.84271 0.52642 0.40057 0.0
H1199 H 0.81294 0.52716 0.32651 0.0
H1200 H 0.76698 0.54563 0.50903 0.0
H1201 H 0.76879 0.57432 0.51614 0.0
H1202 H 0.78942 0.56845 0.55997 0.0
H1203 H 0.82485 0.60576 0.50728 0.0
H1204 H 0.8044 0.61158 0.4625 0.0
H1205 H 0.82699 0.60822 0.42021 0.0
H1206 H 0.7824 0.5334 0.26712 0.0
H1207 H 0.75384 0.54491 0.22559 0.0
H1208 H 0.76385 0.58731 0.3976 0.0
C1209 C 0.82679 0.56052 0.49235 0.0
C1210 C 0.83873 0.54797 0.47519 0.0
C1211 C 0.83349 0.53583 0.41512 0.0
C1212 C 0.81666 0.5362 0.37279 0.0
C1213 C 0.80546 0.54904 0.391 0.0
C1214 C 0.8103 0.56097 0.44939 0.0
C1215 C 0.7969 0.5746 0.45597 0.0
C1216 C 0.77948 0.56518 0.5137 0.0
C1217 C 0.81433 0.60164 0.46182 0.0
C1218 C 0.78368 0.56848 0.39201 0.0
C1219 C 0.78883 0.55365 0.35542 0.0
C1220 C 0.77858 0.54533 0.29488 0.0
C1221 C 0.76271 0.55235 0.27108 0.0
C1222 C 0.75754 0.56796 0.30693 0.0
C1223 C 0.76795 0.57583 0.36863 0.0
H1224 H 0.39565 0.88126 0.2538 0.0
H1225 H 0.41702 0.87875 0.4516 0.0
H1226 H 0.45664 0.88754 0.41293 0.0
H1227 H 0.42781 0.85199 0.18336 0.0
H1228 H 0.43527 0.8696 0.11025 0.0
H1229 H 0.40823 0.86225 0.15376 0.0
H1230 H 0.42173 0.90733 0.15986 0.0
H1231 H 0.44912 0.91484 0.11806 0.0
H1232 H 0.45009 0.92774 0.19623 0.0
H1233 H 0.49533 0.90147 0.35484 0.0
H1234 H 0.52835 0.91107 0.27877 0.0
H1235 H 0.48055 0.8991 0.11743 0.0
C1236 C 0.40845 0.88198 0.28883 0.0
C1237 C 0.4034 0.87999 0.35611 0.0
C1238 C 0.42068 0.88099 0.40016 0.0
C1239 C 0.44326 0.8859 0.37863 0.0
C1240 C 0.44813 0.8891 0.31253 0.0
C1241 C 0.43101 0.88636 0.26795 0.0
C1242 C 0.44089 0.89014 0.19944 0.0
C1243 C 0.42724 0.86712 0.15934 0.0
C1244 C 0.44042 0.91127 0.16648 0.0
C1245 C 0.46634 0.89593 0.21286 0.0
C1246 C 0.47016 0.89559 0.2785 0.0
C1247 C 0.49244 0.90138 0.30318 0.0
C1248 C 0.51113 0.90692 0.25949 0.0
C1249 C 0.50753 0.90629 0.19152 0.0
C1250 C 0.48466 0.90075 0.16834 0.0
H1251 H 0.15504 0.53658 0.26832 0.0
H1252 H 0.15514 0.55862 0.467 0.0
H1253 H 0.14739 0.59031 0.42849 0.0
H1254 H 0.18456 0.59821 0.19863 0.0
H1255 H 0.16716 0.58788 0.12541 0.0
H1256 H 0.17471 0.56842 0.16921 0.0
H1257 H 0.12975 0.53654 0.1748 0.0
H1258 H 0.12198 0.5562 0.13303 0.0
H1259 H 0.10902 0.54416 0.21118 0.0
H1260 H 0.13439 0.61599 0.36905 0.0
H1261 H 0.12459 0.63905 0.29189 0.0
H1262 H 0.13695 0.60285 0.13197 0.0
C1263 C 0.15424 0.54856 0.3037 0.0
C1264 C 0.15524 0.5448 0.37092 0.0
C1265 C 0.15385 0.56077 0.41546 0.0
C1266 C 0.14949 0.57885 0.394 0.0
C1267 C 0.14709 0.5811 0.32768 0.0
C1268 C 0.15017 0.5669 0.28303 0.0
C1269 C 0.14648 0.57287 0.21449 0.0
C1270 C 0.16961 0.58242 0.17459 0.0
C1271 C 0.12556 0.55115 0.18147 0.0
C1272 C 0.14037 0.59231 0.22772 0.0
C1273 C 0.14057 0.59658 0.29333 0.0
C1274 C 0.13454 0.61303 0.31747 0.0
C1275 C 0.12886 0.62594 0.27326 0.0
C1276 C 0.12942 0.62261 0.20545 0.0
C1277 C 0.13527 0.60542 0.18286 0.0
H1278 H 0.43228 0.52113 0.23653 0.0
H1279 H 0.40956 0.55272 0.08773 0.0
H1280 H 0.43295 0.59231 0.13909 0.0
H1281 H 0.43119 0.55748 0.37024 0.0
H1282 H 0.45755 0.56028 0.40839 0.0
H1283 H 0.43855 0.53412 0.36102 0.0
H1284 H 0.47464 0.54161 0.28913 0.0
H1285 H 0.49374 0.5675 0.33703 0.0
H1286 H 0.49225 0.57029 0.2505 0.0
H1287 H 0.46002 0.62867 0.20365 0.0
H1288 H 0.49041 0.65966 0.27506 0.0
H1289 H 0.49502 0.60452 0.38325 0.0
C1290 C 0.43238 0.53648 0.21505 0.0
C1291 C 0.41975 0.53414 0.15734 0.0
C1292 C 0.41989 0.55442 0.13063 0.0
C1293 C 0.43281 0.57687 0.15998 0.0
C1294 C 0.44531 0.57871 0.21653 0.0
C1295 C 0.44529 0.55912 0.2438 0.0
C1296 C 0.46095 0.56625 0.30354 0.0
C1297 C 0.44617 0.55379 0.3644 0.0
C1298 C 0.48162 0.56112 0.29447 0.0
C1299 C 0.4699 0.59289 0.30502 0.0
C1300 C 0.46053 0.59968 0.2547 0.0
C1301 C 0.46725 0.62355 0.24383 0.0
C1302 C 0.48445 0.64101 0.28467 0.0
C1303 C 0.49463 0.63448 0.33579 0.0
C1304 C 0.4869 0.61004 0.34646 0.0
H1305 H 0.57473 0.8432 0.58916 0.0
H1306 H 0.5475 0.8126 0.77852 0.0
H1307 H 0.53635 0.77254 0.73712 0.0
H1308 H 0.52977 0.79392 0.49503 0.0
H1309 H 0.55029 0.79566 0.43302 0.0
H1310 H 0.55604 0.82215 0.47684 0.0
H1311 H 0.59769 0.8292 0.51065 0.0
H1312 H 0.59216 0.80295 0.46609 0.0
H1313 H 0.59992 0.80557 0.55073 0.0
H1314 H 0.52811 0.73595 0.67606 0.0
H1315 H 0.52673 0.70544 0.60158 0.0
H1316 H 0.55939 0.75926 0.45075 0.0
C1317 C 0.5666 0.82801 0.62168 0.0
C1318 C 0.56249 0.831 0.68739 0.0
C1319 C 0.5515 0.81076 0.72863 0.0
C1320 C 0.5448 0.78791 0.7053 0.0
C1321 C 0.54908 0.78551 0.64037 0.0
C1322 C 0.55993 0.80499 0.59915 0.0
C1323 C 0.56318 0.79741 0.53201 0.0
C1324 C 0.54897 0.8026 0.48123 0.0
C1325 C 0.58982 0.8095 0.51382 0.0
C1326 C 0.55258 0.77071 0.54226 0.0
C1327 C 0.54432 0.76424 0.60495 0.0
C1328 C 0.53444 0.74076 0.62673 0.0
C1329 C 0.53365 0.72352 0.58393 0.0
C1330 C 0.5428 0.72985 0.52007 0.0
C1331 C 0.55189 0.7537 0.49877 0.0
H1332 H 0.30527 0.83023 0.59286 0.0
H1333 H 0.28342 0.80647 0.39535 0.0
H1334 H 0.24508 0.77348 0.43557 0.0
H1335 H 0.27711 0.76866 0.66293 0.0
H1336 H 0.26931 0.77798 0.73696 0.0
H1337 H 0.29554 0.79875 0.69219 0.0
H1338 H 0.27947 0.82833 0.68838 0.0
H1339 H 0.25288 0.80739 0.73143 0.0
H1340 H 0.25048 0.8188 0.65379 0.0
H1341 H 0.20723 0.74668 0.49617 0.0
H1342 H 0.17504 0.72271 0.57392 0.0
H1343 H 0.22342 0.76035 0.73281 0.0
C1344 C 0.29272 0.81771 0.55811 0.0
C1345 C 0.29709 0.82134 0.49063 0.0
C1346 C 0.28014 0.80454 0.44698 0.0
C1347 C 0.25835 0.78565 0.46944 0.0
C1348 C 0.25403 0.7834 0.53593 0.0
C1349 C 0.27102 0.79845 0.57983 0.0
C1350 C 0.2618 0.79196 0.64884 0.0
C1351 C 0.27683 0.78385 0.68751 0.0
C1352 C 0.26112 0.81287 0.68256 0.0
C1353 C 0.23678 0.77132 0.63664 0.0
C1354 C 0.23261 0.76691 0.57115 0.0
C1355 C 0.21044 0.74968 0.54768 0.0
C1356 C 0.19222 0.7362 0.59237 0.0
C1357 C 0.19617 0.73965 0.66017 0.0
C1358 C 0.21899 0.75751 0.68211 0.0
H1359 H 0.20877 0.50239 0.58646 0.0
H1360 H 0.18357 0.44469 0.44693 0.0
H1361 H 0.20941 0.43114 0.49389 0.0
H1362 H 0.27015 0.51464 0.59486 0.0
H1363 H 0.27278 0.51963 0.68114 0.0
H1364 H 0.25285 0.52581 0.6349 0.0
H1365 H 0.21781 0.49766 0.71012 0.0
H1366 H 0.2376 0.4912 0.75618 0.0
H1367 H 0.21093 0.46715 0.72078 0.0
H1368 H 0.23775 0.4236 0.55299 0.0
H1369 H 0.26765 0.42233 0.62501 0.0
H1370 H 0.27407 0.48304 0.73181 0.0
C1371 C 0.20906 0.48716 0.56551 0.0
C1372 C 0.19522 0.47547 0.51024 0.0
C1373 C 0.19534 0.45504 0.48575 0.0
C1374 C 0.20958 0.44681 0.51317 0.0
C1375 C 0.22338 0.45889 0.56639 0.0
C1376 C 0.22328 0.47853 0.59286 0.0
C1377 C 0.23975 0.48771 0.65119 0.0
C1378 C 0.26009 0.51348 0.63982 0.0
C1379 C 0.22567 0.48581 0.71324 0.0
C1380 C 0.24904 0.47022 0.65249 0.0
C1381 C 0.23924 0.45376 0.60303 0.0
C1382 C 0.24545 0.43623 0.59241 0.0
C1383 C 0.26236 0.4356 0.6333 0.0
C1384 C 0.27263 0.45218 0.68438 0.0
C1385 C 0.26586 0.4697 0.69421 0.0
H1386 H 0.19192 0.46264 0.09239 0.0
H1387 H 0.22327 0.49488 0.27685 0.0
H1388 H 0.26314 0.50465 0.23646 0.0
H1389 H 0.22822 0.43612 0.06307 0.0
H1390 H 0.23094 0.44182 0.97708 0.0
H1391 H 0.205 0.4381 0.02003 0.0
H1392 H 0.21317 0.47929 0.97731 0.0
H1393 H 0.23927 0.48316 0.93476 0.0
H1394 H 0.24183 0.50546 0.99183 0.0
H1395 H 0.29929 0.50929 0.17802 0.0
H1396 H 0.32901 0.50752 0.10605 0.0
H1397 H 0.27457 0.47334 0.95833 0.0
C1398 C 0.20726 0.47177 0.12389 0.0
C1399 C 0.20453 0.47743 0.18823 0.0
C1400 C 0.22494 0.48963 0.2282 0.0
C1401 C 0.24768 0.49554 0.20539 0.0
C1402 C 0.2498 0.48941 0.14206 0.0
C1403 C 0.23018 0.47782 0.10174 0.0
C1404 C 0.23739 0.47264 0.03641 0.0
C1405 C 0.22463 0.44556 0.02342 0.0
C1406 C 0.23263 0.48594 0.98186 0.0
C1407 C 0.26397 0.48282 0.04681 0.0
C1408 C 0.2708 0.49256 0.10789 0.0
C1409 C 0.29422 0.50195 0.12974 0.0
C1410 C 0.31099 0.5009 0.08849 0.0
C1411 C 0.30427 0.49056 0.02607 0.0
C1412 C 0.28051 0.48183 0.00493 0.0
H1413 H 0.5601 0.76964 0.23762 0.0
H1414 H 0.57602 0.73588 0.07765 0.0
H1415 H 0.56605 0.75854 1.00072 0.0
H1416 H 0.51317 0.7746 0.16721 0.0
H1417 H 0.52266 0.80423 0.19729 0.0
H1418 H 0.52986 0.78461 0.24165 0.0
H1419 H 0.57491 0.81622 0.23752 0.0
H1420 H 0.5678 0.83619 0.1948 0.0
H1421 H 0.58881 0.82858 0.16044 0.0
H1422 H 0.55161 0.78234 0.94088 0.0
H1423 H 0.54348 0.81339 0.9003 0.0
H1424 H 0.5433 0.83666 0.09766 0.0
C1425 C 0.56245 0.76738 0.18697 0.0
C1426 C 0.56915 0.75075 0.16459 0.0
C1427 C 0.57083 0.74825 0.09665 0.0
C1428 C 0.56508 0.76099 0.0523 0.0
C1429 C 0.55817 0.77675 0.07615 0.0
C1430 C 0.55762 0.78066 0.14171 0.0
C1431 C 0.55135 0.80009 0.15397 0.0
C1432 C 0.52786 0.79028 0.19231 0.0
C1433 C 0.57195 0.82154 0.18872 0.0
C1434 C 0.54841 0.80634 0.08493 0.0
C1435 C 0.55179 0.79213 0.04108 0.0
C1436 C 0.54945 0.79396 0.97464 0.0
C1437 C 0.54485 0.81171 0.95204 0.0
C1438 C 0.54344 0.82796 0.9955 0.0
C1439 C 0.54439 0.82462 0.06306 0.0
H1440 H 0.27716 0.84417 0.09187 0.0
H1441 H 0.29443 0.81203 0.25165 0.0
H1442 H 0.26974 0.77205 0.20336 0.0
H1443 H 0.21631 0.79809 0.07582 0.0
H1444 H 0.21586 0.79932 0.9886 0.0
H1445 H 0.236 0.82555 0.03391 0.0
H1446 H 0.27162 0.82866 0.96783 0.0
H1447 H 0.25155 0.80221 0.92293 0.0
H1448 H 0.27652 0.80352 0.96548 0.0
H1449 H 0.24143 0.73571 0.14299 0.0
H1450 H 0.20955 0.7046 0.07563 0.0
H1451 H 0.21095 0.75949 0.9515 0.0
C1452 C 0.27566 0.82862 0.11619 0.0
C1453 C 0.28715 0.83093 0.17608 0.0
C1454 C 0.28514 0.81038 0.20666 0.0
C1455 C 0.27143 0.78771 0.1792 0.0
C1456 C 0.26006 0.78588 0.12053 0.0
C1457 C 0.26195 0.8057 0.08922 0.0
C1458 C 0.24686 0.7984 0.02816 0.0
C1459 C 0.22761 0.80577 0.03188 0.0
C1460 C 0.26258 0.80882 0.96751 0.0
C1461 C 0.23588 0.77141 0.03103 0.0
C1462 C 0.24398 0.76466 0.08445 0.0
C1463 C 0.23521 0.74074 0.10039 0.0
C1464 C 0.21717 0.72319 0.06181 0.0
C1465 C 0.20816 0.72963 0.00772 0.0
C1466 C 0.21807 0.75405 0.99128 0.0
H1467 H 0.15356 0.63437 0.76746 0.0
H1468 H 0.14901 0.60915 0.96473 0.0
H1469 H 0.13912 0.56943 0.92367 0.0
H1470 H 0.10674 0.58272 0.70142 0.0
H1471 H 0.1211 0.5839 0.62539 0.0
H1472 H 0.12935 0.61106 0.66917 0.0
H1473 H 0.17368 0.62164 0.67052 0.0
H1474 H 0.16567 0.59488 0.62495 0.0
H1475 H 0.18126 0.60008 0.70083 0.0
H1476 H 0.12462 0.53121 0.86172 0.0
H1477 H 0.11462 0.49894 0.78267 0.0
H1478 H 0.13359 0.55022 0.62586 0.0
C1479 C 0.15114 0.62071 0.80204 0.0
C1480 C 0.15142 0.62472 0.86957 0.0
C1481 C 0.14812 0.60631 0.91299 0.0
C1482 C 0.14258 0.58369 0.89007 0.0
C1483 C 0.14103 0.5799 0.82342 0.0
C1484 C 0.14602 0.59809 0.77991 0.0
C1485 C 0.14336 0.58925 0.71063 0.0
C1486 C 0.12399 0.59189 0.67456 0.0
C1487 C 0.16743 0.60223 0.67462 0.0
C1488 C 0.13555 0.56315 0.72221 0.0
C1489 C 0.13402 0.5581 0.7876 0.0
C1490 C 0.12615 0.53505 0.81032 0.0
C1491 C 0.12039 0.5168 0.76497 0.0
C1492 C 0.12278 0.5216 0.69742 0.0
C1493 C 0.13049 0.54526 0.67625 0.0
H1494 H 0.42708 0.538 0.88388 0.0
H1495 H 0.37104 0.53688 0.76597 0.0
H1496 H 0.4017 0.56718 0.69329 0.0
H1497 H 0.4709 0.60245 0.86578 0.0
H1498 H 0.49575 0.59712 0.8626 0.0
H1499 H 0.46942 0.57742 0.90874 0.0
H1500 H 0.46569 0.54134 0.84414 0.0
H1501 H 0.49168 0.56089 0.79687 0.0
H1502 H 0.46383 0.5413 0.75697 0.0
H1503 H 0.43816 0.59521 0.62954 0.0
H1504 H 0.47805 0.62037 0.58093 0.0
H1505 H 0.51053 0.60285 0.73921 0.0
C1506 C 0.4212 0.54477 0.84445 0.0
C1507 C 0.39662 0.53543 0.83158 0.0
C1508 C 0.38976 0.54401 0.77729 0.0
C1509 C 0.40704 0.56117 0.7357 0.0
C1510 C 0.4311 0.56953 0.74903 0.0
C1511 C 0.4382 0.56179 0.8024 0.0
C1512 C 0.46513 0.57247 0.80364 0.0
C1513 C 0.47594 0.58831 0.86376 0.0
C1514 C 0.47197 0.55283 0.80018 0.0
C1515 C 0.47207 0.58723 0.74206 0.0
C1516 C 0.45214 0.58529 0.71144 0.0
C1517 C 0.45386 0.59681 0.65301 0.0
C1518 C 0.47652 0.61076 0.62528 0.0
C1519 C 0.49717 0.61289 0.65545 0.0
C1520 C 0.49493 0.6012 0.71499 0.0
H1521 H 0.42951 0.89519 0.62126 0.0
H1522 H 0.3918 0.90481 0.78245 0.0
H1523 H 0.4165 0.89709 0.85875 0.0
H1524 H 0.43793 0.84997 0.68718 0.0
H1525 H 0.46792 0.86155 0.65698 0.0
H1526 H 0.44727 0.86759 0.61398 0.0
H1527 H 0.47671 0.91318 0.62121 0.0
H1528 H 0.49775 0.90725 0.66252 0.0
H1529 H 0.48832 0.92656 0.6991 0.0
H1530 H 0.44319 0.88547 0.91704 0.0
H1531 H 0.47558 0.87889 0.95505 0.0
H1532 H 0.49923 0.88186 0.75648 0.0
C1533 C 0.42691 0.89672 0.67222 0.0
C1534 C 0.40878 0.90111 0.69541 0.0
C1535 C 0.40556 0.90159 0.76332 0.0
C1536 C 0.41942 0.8971 0.80708 0.0
C1537 C 0.43677 0.89248 0.7824 0.0
C1538 C 0.44103 0.89291 0.71669 0.0
C1539 C 0.46153 0.88839 0.70308 0.0
C1540 C 0.45315 0.86551 0.66293 0.0
C1541 C 0.48231 0.91014 0.66952 0.0
C1542 C 0.46802 0.88524 0.7715 0.0
C1543 C 0.45317 0.88719 0.81634 0.0
C1544 C 0.45526 0.88443 0.88248 0.0
C1545 C 0.47379 0.88078 0.90364 0.0
C1546 C 0.49039 0.88056 0.85906 0.0
C1547 C 0.48691 0.88202 0.7919 0.0
H1548 H 0.06234 0.31956 0.7131 0.0
H1549 H 0.05894 0.27311 0.55703 0.0
H1550 H 0.08042 0.30806 0.48468 0.0
H1551 H 0.04958 0.35617 0.61684 0.0
H1552 H 0.06907 0.38372 0.6583 0.0
H1553 H 0.05676 0.35573 0.70102 0.0
H1554 H 0.09936 0.36489 0.73219 0.0
H1555 H 0.1118 0.39309 0.69011 0.0
H1556 H 0.12143 0.37208 0.66951 0.0
H1557 H 0.0993 0.34758 0.42655 0.0
H1558 H 0.11404 0.38889 0.38728 0.0
H1559 H 0.10348 0.40928 0.57976 0.0
C1560 C 0.06688 0.31698 0.66436 0.0
C1561 C 0.05951 0.29385 0.64068 0.0
C1562 C 0.06483 0.29085 0.57596 0.0
C1563 C 0.07698 0.31055 0.53459 0.0
C1564 C 0.0835 0.33315 0.55854 0.0
C1565 C 0.07872 0.33651 0.62195 0.0
C1566 C 0.08577 0.36238 0.63367 0.0
C1567 C 0.064 0.36462 0.65361 0.0
C1568 C 0.10578 0.37378 0.68437 0.0
C1569 C 0.09478 0.37283 0.56683 0.0
C1570 C 0.09362 0.35578 0.52436 0.0
C1571 C 0.10045 0.36116 0.4595 0.0
C1572 C 0.10872 0.38462 0.43753 0.0
C1573 C 0.10981 0.40231 0.48016 0.0
C1574 C 0.1028 0.3962 0.54568 0.0
H1575 H 0.71254 0.75313 0.7232 0.0
H1576 H 0.75544 0.81153 0.59192 0.0
H1577 H 0.71989 0.80056 0.52443 0.0
H1578 H 0.67978 0.71192 0.60369 0.0
H1579 H 0.65177 0.69727 0.64697 0.0
H1580 H 0.67945 0.7118 0.69106 0.0
H1581 H 0.6655 0.73775 0.75218 0.0
H1582 H 0.6376 0.72307 0.7088 0.0
H1583 H 0.65578 0.75519 0.70671 0.0
H1584 H 0.68119 0.78089 0.46514 0.0
H1585 H 0.64127 0.75428 0.419 0.0
H1586 H 0.62334 0.70779 0.58695 0.0
C1587 C 0.7141 0.764 0.68148 0.0
C1588 C 0.73642 0.78339 0.663 0.0
C1589 C 0.73827 0.7968 0.60691 0.0
C1590 C 0.71823 0.7907 0.56839 0.0
C1591 C 0.69652 0.77104 0.58651 0.0
C1592 C 0.69423 0.75794 0.64191 0.0
C1593 C 0.66933 0.73639 0.64705 0.0
C1594 C 0.67015 0.71297 0.64718 0.0
C1595 C 0.65628 0.73822 0.70726 0.0
C1596 C 0.65827 0.73912 0.58521 0.0
C1597 C 0.67418 0.75936 0.55139 0.0
C1598 C 0.66844 0.76513 0.49152 0.0
C1599 C 0.64576 0.74984 0.46555 0.0
C1600 C 0.62915 0.72894 0.49925 0.0
C1601 C 0.63557 0.72367 0.56003 0.0
H1602 H 0.2664 0.98895 0.57491 0.0
H1603 H 0.23908 0.9463 0.74991 0.0
H1604 H 0.24954 0.91713 0.70533 0.0
H1605 H 0.24674 0.93887 0.46179 0.0
H1606 H 0.27311 0.95433 0.41193 0.0
H1607 H 0.26202 0.971 0.45558 0.0
H1608 H 0.30323 0.99623 0.51066 0.0
H1609 H 0.3145 0.97983 0.46678 0.0
H1610 H 0.31625 0.98129 0.55398 0.0
H1611 H 0.26595 0.89456 0.64597 0.0
H1612 H 0.28828 0.88085 0.57789 0.0
H1613 H 0.30387 0.93728 0.43955 0.0
C1614 C 0.26246 0.97342 0.60386 0.0
C1615 C 0.25197 0.96997 0.66617 0.0
C1616 C 0.24715 0.94938 0.70224 0.0
C1617 C 0.25291 0.93265 0.67713 0.0
C1618 C 0.26327 0.93664 0.61563 0.0
C1619 C 0.26799 0.95652 0.57945 0.0
C1620 C 0.28033 0.95727 0.51609 0.0
C1621 C 0.26461 0.95524 0.4579 0.0
C1622 C 0.30504 0.97999 0.51166 0.0
C1623 C 0.28246 0.93503 0.52297 0.0
C1624 C 0.27225 0.92327 0.58053 0.0
C1625 C 0.27357 0.90334 0.6003 0.0
C1626 C 0.2862 0.89564 0.56128 0.0
C1627 C 0.29719 0.90767 0.50292 0.0
C1628 C 0.29485 0.92729 0.48277 0.0
H1629 H 0.28998 0.04759 0.91571 0.0
H1630 H 0.31674 0.08208 0.72921 0.0
H1631 H 0.35717 0.10505 0.77473 0.0
H1632 H 0.3291 0.10052 0.0147 0.0
H1633 H 0.33329 0.08317 0.07632 0.0
H1634 H 0.30591 0.07022 0.03058 0.0
H1635 H 0.31222 0.03514 0.99667 0.0
H1636 H 0.33962 0.04798 0.04213 0.0
H1637 H 0.33971 0.04145 0.95723 0.0
H1638 H 0.39492 0.12138 0.83554 0.0
H1639 H 0.42824 0.13206 0.91113 0.0
H1640 H 0.378 0.08928 0.06167 0.0
C1641 C 0.30431 0.06016 0.88467 0.0
C1642 C 0.30013 0.06296 0.81871 0.0
C1643 C 0.3194 0.07958 0.77978 0.0
C1644 C 0.34247 0.09276 0.80521 0.0
C1645 C 0.34604 0.08938 0.86995 0.0
C1646 C 0.32754 0.07371 0.90953 0.0
C1647 C 0.3366 0.07316 0.9771 0.0
C1648 C 0.32557 0.08232 0.02767 0.0
C1649 C 0.33175 0.04793 0.99426 0.0
C1650 C 0.36315 0.09052 0.96863 0.0
C1651 C 0.36807 0.0996 0.90626 0.0
C1652 C 0.3913 0.1147 0.88477 0.0
C1653 C 0.41008 0.12058 0.92792 0.0
C1654 C 0.40559 0.11164 0.99209 0.0
C1655 C 0.3818 0.09667 0.01314 0.0
H1656 H 0.96805 0.27274 0.77488 0.0
H1657 H 0.98236 0.2375 0.93317 0.0
H1658 H 0.96261 0.25152 0.00956 0.0
H1659 H 0.98077 0.32495 0.86493 0.0
H1660 H 0.95787 0.32907 0.82763 0.0
H1661 H 0.97107 0.31447 0.78357 0.0
H1662 H 0.92911 0.27764 0.76527 0.0
H1663 H 0.91578 0.29219 0.80918 0.0
H1664 H 0.91006 0.26303 0.83403 0.0
H1665 H 0.94237 0.26986 0.06956 0.0
H1666 H 0.92474 0.29343 0.11106 0.0
H1667 H 0.92526 0.31925 0.91636 0.0
C1668 C 0.96664 0.26773 0.82546 0.0
C1669 C 0.97657 0.2539 0.84817 0.0
C1670 C 0.97489 0.24809 0.91487 0.0
C1671 C 0.96362 0.25589 0.9586 0.0
C1672 C 0.95433 0.26978 0.93516 0.0
C1673 C 0.95581 0.27583 0.87032 0.0
C1674 C 0.94572 0.29235 0.85914 0.0
C1675 C 0.96501 0.31665 0.83224 0.0
C1676 C 0.92387 0.28059 0.81424 0.0
C1677 C 0.93856 0.29472 0.92777 0.0
C1678 C 0.94341 0.28125 0.97056 0.0
C1679 C 0.93846 0.28048 0.03655 0.0
C1680 C 0.92842 0.29393 0.05967 0.0
C1681 C 0.92366 0.30828 0.01716 0.0
C1682 C 0.92876 0.30854 0.9502 0.0
H1683 H 0.751 0.71153 0.77198 0.0
H1684 H 0.81353 0.7529 0.8911 0.0
H1685 H 0.80225 0.71754 0.96011 0.0
H1686 H 0.71212 0.68113 0.89922 0.0
H1687 H 0.69518 0.65286 0.85836 0.0
H1688 H 0.70978 0.68013 0.81209 0.0
H1689 H 0.73241 0.6637 0.74519 0.0
H1690 H 0.71764 0.63621 0.79077 0.0
H1691 H 0.7498 0.65297 0.78652 0.0
H1692 H 0.78217 0.67957 0.02295 0.0
H1693 H 0.75532 0.64056 0.07372 0.0
H1694 H 0.70512 0.62315 0.91538 0.0
C1695 C 0.76266 0.71274 0.81124 0.0
C1696 C 0.78339 0.73464 0.82575 0.0
C1697 C 0.79782 0.73606 0.87889 0.0
C1698 C 0.79152 0.71612 0.91833 0.0
C1699 C 0.77063 0.69489 0.90414 0.0
C1700 C 0.75647 0.69293 0.85161 0.0
C1701 C 0.734 0.66853 0.85044 0.0
C1702 C 0.71144 0.67082 0.85534 0.0
C1703 C 0.73344 0.65452 0.78961 0.0
C1704 C 0.73748 0.6574 0.91127 0.0
C1705 C 0.75883 0.67288 0.94115 0.0
C1706 C 0.76554 0.66715 0.9996 0.0
C1707 C 0.75009 0.64498 0.02827 0.0
C1708 C 0.7281 0.62873 0.99863 0.0
C1709 C 0.72187 0.63507 0.93908 0.0
H1710 H 0.961 0.64284 0.50033 0.0
H1711 H 0.88815 0.62856 0.51684 0.0
H1712 H 0.89909 0.6656 0.45494 0.0
H1713 H 0.98876 0.7081 0.5209 0.0
H1714 H 0.01283 0.71426 0.46566 0.0
H1715 H 0.99909 0.68696 0.51209 0.0
H1716 H 0.99027 0.66261 0.40587 0.0
H1717 H 1.00363 0.68978 0.35903 0.0
H1718 H 0.97339 0.66666 0.34265 0.0
H1719 H 0.91736 0.70191 0.38055 0.0
H1720 H 0.94292 0.73848 0.31642 0.0
H1721 H 0.00471 0.7313 0.35901 0.0
C1722 C 0.94751 0.64781 0.49176 0.0
C1723 C 0.92378 0.63304 0.51326 0.0
C1724 C 0.90649 0.6399 0.5013 0.0
C1725 C 0.91251 0.66076 0.46579 0.0
C1726 C 0.93602 0.67476 0.44407 0.0
C1727 C 0.95339 0.66891 0.45817 0.0
C1728 C 0.97747 0.6873 0.4309 0.0
C1729 C 0.99561 0.6999 0.48565 0.0
C1730 C 0.98672 0.6759 0.38169 0.0
C1731 C 0.97087 0.70416 0.39794 0.0
C1732 C 0.9468 0.69643 0.40516 0.0
C1733 C 0.93629 0.70833 0.37555 0.0
C1734 C 0.95086 0.72893 0.33882 0.0
C1735 C 0.97571 0.73765 0.33321 0.0
C1736 C 0.98578 0.72507 0.36314 0.0
H1737 H 0.3197 0.2661 0.27396 0.0
H1738 H 0.27048 0.22868 0.43167 0.0
H1739 H 0.30435 0.24282 0.50748 0.0
H1740 H 0.36904 0.25748 0.32978 0.0
H1741 H 0.3918 0.28708 0.30585 0.0
H1742 H 0.36396 0.2721 0.26226 0.0
H1743 H 0.35741 0.30798 0.28336 0.0
H1744 H 0.38516 0.32302 0.32712 0.0
H1745 H 0.35785 0.31779 0.36541 0.0
H1746 H 0.34299 0.26186 0.56696 0.0
H1747 H 0.38401 0.28647 0.60811 0.0
H1748 H 0.40861 0.31377 0.4139 0.0
C1749 C 0.31619 0.26059 0.32424 0.0
C1750 C 0.29253 0.24615 0.34703 0.0
C1751 C 0.28849 0.23973 0.41336 0.0
C1752 C 0.30761 0.24759 0.45671 0.0
C1753 C 0.33069 0.26211 0.43316 0.0
C1754 C 0.33512 0.2687 0.36863 0.0
C1755 C 0.36154 0.2859 0.35723 0.0
C1756 C 0.37221 0.27498 0.31104 0.0
C1757 C 0.36572 0.3101 0.33179 0.0
C1758 C 0.37113 0.28811 0.4255 0.0
C1759 C 0.35304 0.27394 0.46823 0.0
C1760 C 0.35734 0.27301 0.53398 0.0
C1761 C 0.38073 0.28707 0.55689 0.0
C1762 C 0.39956 0.30214 0.51438 0.0
C1763 C 0.39461 0.30251 0.44769 0.0
H1764 H 0.75504 0.05893 0.27193 0.0
H1765 H 0.80342 0.05889 0.41714 0.0
H1766 H 0.79245 0.08189 0.49114 0.0
H1767 H 0.76333 0.11879 0.30974 0.0
H1768 H 0.7322 0.10934 0.29815 0.0
H1769 H 0.74573 0.09521 0.25316 0.0
H1770 H 0.71337 0.05386 0.29638 0.0
H1771 H 0.69983 0.06786 0.34167 0.0
H1772 H 0.70899 0.0491 0.38261 0.0
H1773 H 0.77516 0.10272 0.5515 0.0
H1774 H 0.75134 0.11931 0.59732 0.0
H1775 H 0.71214 0.10471 0.41649 0.0
C1776 C 0.7636 0.06428 0.3188 0.0
C1777 C 0.78025 0.05745 0.33891 0.0
C1778 C 0.7907 0.0641 0.40107 0.0
C1779 C 0.78464 0.0772 0.44329 0.0
C1780 C 0.76787 0.08331 0.42291 0.0
C1781 C 0.75738 0.07707 0.36235 0.0
C1782 C 0.73852 0.08442 0.35506 0.0
C1783 C 0.74536 0.10305 0.3008 0.0
C1784 C 0.71371 0.0625 0.34324 0.0
C1785 C 0.73988 0.09538 0.42121 0.0
C1786 C 0.75718 0.0948 0.45905 0.0
C1787 C 0.76162 0.1034 0.5223 0.0
C1788 C 0.74793 0.11278 0.54793 0.0
C1789 C 0.72979 0.11331 0.5107 0.0
C1790 C 0.72586 0.10459 0.44625 0.0
H1791 H 0.62232 0.92245 0.08668 0.0
H1792 H 0.64288 0.9164 0.89016 0.0
H1793 H 0.68466 0.93294 0.92588 0.0
H1794 H 0.67319 0.97728 0.12487 0.0
H1795 H 0.6753 0.9696 0.20763 0.0
H1796 H 0.64675 0.95579 0.16775 0.0
H1797 H 0.64088 0.91389 0.1932 0.0
H1798 H 0.66944 0.92758 0.23332 0.0
H1799 H 0.66333 0.90674 0.16809 0.0
H1800 H 0.72452 0.95393 0.97992 0.0
H1801 H 0.75979 0.97589 0.05028 0.0
H1802 H 0.71351 0.96623 0.21374 0.0
C1803 C 0.63556 0.92437 0.05125 0.0
C1804 C 0.62934 0.91819 0.98549 0.0
C1805 C 0.64719 0.92094 0.94074 0.0
C1806 C 0.67098 0.93032 0.9606 0.0
C1807 C 0.67655 0.93652 0.02555 0.0
C1808 C 0.65933 0.93341 0.07041 0.0
C1809 C 0.6702 0.94211 0.13695 0.0
C1810 C 0.66612 0.9624 0.16066 0.0
C1811 C 0.66037 0.92134 0.18577 0.0
C1812 C 0.69634 0.95119 0.12212 0.0
C1813 C 0.69955 0.94778 0.05748 0.0
C1814 C 0.7222 0.9563 0.03081 0.0
C1815 C 0.74209 0.9688 0.07104 0.0
C1816 C 0.73925 0.97241 0.13737 0.0
C1817 C 0.71607 0.96318 0.1635 0.0
H1818 H 0.072 0.76796 0.21849 0.0
H1819 H 0.05421 0.79706 0.0522 0.0
H1820 H 0.07631 0.78415 0.98064 0.0
H1821 H 0.13166 0.78069 0.16304 0.0
H1822 H 0.12769 0.75275 0.19338 0.0
H1823 H 0.113 0.76681 0.23296 0.0
H1824 H 0.0721 0.72814 0.21859 0.0
H1825 H 0.08666 0.71399 0.17908 0.0
H1826 H 0.06279 0.71562 0.13872 0.0
H1827 H 0.0988 0.76666 0.92615 0.0
H1828 H 0.11713 0.74277 0.89151 0.0
H1829 H 0.11826 0.72271 0.09172 0.0
C1830 C 0.07322 0.77198 0.16721 0.0
C1831 C 0.06165 0.78371 0.14082 0.0
C1832 C 0.06302 0.78813 0.07328 0.0
C1833 C 0.07563 0.78098 0.03231 0.0
C1834 C 0.08657 0.76915 0.05944 0.0
C1835 C 0.08534 0.76447 0.12523 0.0
C1836 C 0.0968 0.7495 0.14087 0.0
C1837 C 0.11858 0.76327 0.18519 0.0
C1838 C 0.07849 0.72539 0.17108 0.0
C1839 C 0.1043 0.74625 0.07362 0.0
C1840 C 0.09864 0.7581 0.02751 0.0
C1841 C 0.10341 0.75736 0.96184 0.0
C1842 C 0.11387 0.74378 0.9426 0.0
C1843 C 0.11909 0.73082 0.98876 0.0
C1844 C 0.11449 0.73241 0.05519 0.0
H1845 H 0.29022 0.30482 0.1581 0.0
H1846 H 0.21679 0.2888 0.17446 0.0
H1847 H 0.22763 0.32731 0.12068 0.0
H1848 H 0.31682 0.36908 0.19202 0.0
H1849 H 0.34142 0.37709 0.13709 0.0
H1850 H 0.32768 0.3486 0.17786 0.0
H1851 H 0.32004 0.32726 0.06684 0.0
H1852 H 0.33345 0.35564 0.02567 0.0
H1853 H 0.30348 0.33275 0.00558 0.0
H1854 H 0.24607 0.3656 0.05387 0.0
H1855 H 0.27179 0.40376 0.99596 0.0
H1856 H 0.33375 0.39643 0.03434 0.0
C1857 C 0.27655 0.30967 0.15117 0.0
C1858 C 0.25272 0.29404 0.17024 0.0
C1859 C 0.23521 0.30078 0.16065 0.0
C1860 C 0.24118 0.32248 0.12979 0.0
C1861 C 0.26483 0.33736 0.11039 0.0
C1862 C 0.28235 0.33151 0.12225 0.0
C1863 C 0.30652 0.3508 0.0981 0.0
C1864 C 0.32415 0.36206 0.15464 0.0
C1865 C 0.31644 0.34102 0.04595 0.0
C1866 C 0.29983 0.36823 0.06946 0.0
C1867 C 0.27564 0.36002 0.07608 0.0
C1868 C 0.26509 0.37239 0.0495 0.0
C1869 C 0.27974 0.3939 0.01637 0.0
C1870 C 0.30465 0.40296 0.01145 0.0
C1871 C 0.31476 0.38996 0.03835 0.0
H1872 H 0.95853 0.3811 0.26341 0.0
H1873 H 0.97688 0.42375 0.0876 0.0
H1874 H 0.0163 0.45186 0.1335 0.0
H1875 H 0.99011 0.4315 0.3768 0.0
H1876 H 0.99983 0.4153 0.42767 0.0
H1877 H 0.97216 0.39945 0.3836 0.0
H1878 H 0.98684 0.37273 0.33029 0.0
H1879 H 0.01443 0.38837 0.37447 0.0
H1880 H 0.01494 0.38656 0.28736 0.0
H1881 H 0.05475 0.47315 0.19292 0.0
H1882 H 0.09029 0.48584 0.26185 0.0
H1883 H 0.04736 0.43069 0.4015 0.0
C1884 C 0.97073 0.3965 0.23484 0.0
C1885 C 0.96456 0.40018 0.17178 0.0
C1886 C 0.98115 0.42047 0.13588 0.0
C1887 C 1.00356 0.43665 0.1617 0.0
C1888 C 0.00913 0.43243 0.2237 0.0
C1889 C 0.99322 0.41289 0.25995 0.0
C1890 C 1.00427 0.41179 0.32381 0.0
C1891 C 0.99078 0.41469 0.38138 0.0
C1892 C 0.00518 0.38848 0.32926 0.0
C1893 C 0.0291 0.43339 0.31695 0.0
C1894 C 0.03137 0.44514 0.25898 0.0
C1895 C 0.05308 0.46441 0.23896 0.0
C1896 C 0.07313 0.47151 0.27836 0.0
C1897 C 0.07131 0.45954 0.33732 0.0
C1898 C 0.04894 0.44059 0.35762 0.0
H1899 H 0.65407 0.59492 0.26266 0.0
H1900 H 0.61891 0.58132 0.07557 0.0
H1901 H 0.59356 0.59686 0.11649 0.0
H1902 H 0.60039 0.57884 0.36013 0.0
H1903 H 0.61631 0.60195 0.41933 0.0
H1904 H 0.63136 0.58884 0.37677 0.0
H1905 H 0.66393 0.63086 0.3383 0.0
H1906 H 0.64903 0.64408 0.38083 0.0
H1907 H 0.65522 0.64962 0.2954 0.0
H1908 H 0.57416 0.61641 0.17306 0.0
H1909 H 0.56076 0.63809 0.24443 0.0
H1910 H 0.60621 0.63769 0.3982 0.0
C1911 C 0.64094 0.59509 0.23049 0.0
C1912 C 0.63857 0.5869 0.16572 0.0
C1913 C 0.62113 0.58743 0.12528 0.0
C1914 C 0.60657 0.59621 0.1481 0.0
C1915 C 0.6094 0.60422 0.2118 0.0
C1916 C 0.62599 0.60365 0.25274 0.0
C1917 C 0.62554 0.61388 0.31877 0.0
C1918 C 0.61795 0.59473 0.37189 0.0
C1919 C 0.64988 0.63592 0.3342 0.0
C1920 C 0.60647 0.62074 0.30785 0.0
C1921 C 0.59745 0.61493 0.24565 0.0
C1922 C 0.5808 0.62074 0.22216 0.0
C1923 C 0.57334 0.63308 0.26295 0.0
C1924 C 0.58225 0.63925 0.32681 0.0
C1925 C 0.59876 0.63268 0.34999 0.0
H1926 H 0.38234 0.95413 0.26045 0.0
H1927 H 0.40788 0.97678 0.45654 0.0
H1928 H 0.43287 0.01832 0.41759 0.0
H1929 H 0.43897 0.99456 0.17867 0.0
H1930 H 0.42441 0.99983 0.11145 0.0
H1931 H 0.40955 0.9717 0.15405 0.0
H1932 H 0.37326 0.97751 0.17583 0.0
H1933 H 0.38796 0.00561 0.13332 0.0
H1934 H 0.37786 0.00436 0.21548 0.0
H1935 H 0.45203 0.0576 0.35954 0.0
H1936 H 0.46533 0.09206 0.28582 0.0
H1937 H 0.42921 0.04403 0.12565 0.0
C1938 C 0.39332 0.96778 0.29524 0.0
C1939 C 0.39307 0.9622 0.36175 0.0
C1940 C 0.40777 0.9806 0.40548 0.0
C1941 C 0.42204 0.00423 0.38374 0.0
C1942 C 0.42167 0.00911 0.31801 0.0
C1943 C 0.40785 0.99139 0.27426 0.0
C1944 C 0.4102 1.00151 0.20649 0.0
C1945 C 0.42146 0.99129 0.15992 0.0
C1946 C 0.38588 0.99698 0.18133 0.0
C1947 C 0.42704 0.02785 0.21919 0.0
C1948 C 0.43344 0.03177 0.28393 0.0
C1949 C 0.44746 0.05471 0.30865 0.0
C1950 C 0.45487 0.07415 0.26647 0.0
C1951 C 0.44851 0.07061 0.2001 0.0
C1952 C 0.43476 0.04714 0.17588 0.0
H1953 H 0.61879 0.97301 0.83803 0.0
H1954 H 0.54686 0.96152 0.8494 0.0
H1955 H 0.55979 0.99928 0.78856 0.0
H1956 H 0.64878 0.03797 0.86117 0.0
H1957 H 0.673 0.04342 0.80733 0.0
H1958 H 0.6578 0.01582 0.85216 0.0
H1959 H 0.64891 0.99214 0.74467 0.0
H1960 H 0.66373 0.01965 0.69941 0.0
H1961 H 0.63327 0.99766 0.68081 0.0
H1962 H 0.58034 0.03662 0.71718 0.0
H1963 H 0.60798 0.07366 0.65722 0.0
H1964 H 0.66704 0.06228 0.70234 0.0
C1965 C 0.60592 0.97874 0.82854 0.0
C1966 C 0.58192 0.96465 0.84837 0.0
C1967 C 0.5654 0.9724 0.83508 0.0
C1968 C 0.57256 0.99365 0.8002 0.0
C1969 C 0.59637 0.00704 0.78021 0.0
C1970 C 0.61291 1.00015 0.79535 0.0
C1971 C 0.63751 0.01793 0.76995 0.0
C1972 C 0.65532 0.02947 0.82599 0.0
C1973 C 0.64636 0.00613 0.72079 0.0
C1974 C 0.63224 0.03577 0.73725 0.0
C1975 C 0.60834 0.02902 0.74266 0.0
C1976 C 0.59913 0.04219 0.7134 0.0
C1977 C 0.61486 0.06305 0.67903 0.0
C1978 C 0.63952 0.07068 0.67543 0.0
C1979 C 0.64824 0.05682 0.70477 0.0
H1980 H 0.07896 0.64636 0.76131 0.0
H1981 H 0.05382 0.62195 0.95713 0.0
H1982 H 0.01253 0.59848 0.91639 0.0
H1983 H 0.03063 0.65344 0.71148 0.0
H1984 H 0.02943 0.64281 0.63004 0.0
H1985 H 0.05724 0.65657 0.67367 0.0
H1986 H 0.06111 0.61896 0.65528 0.0
H1987 H 0.0333 0.60507 0.61144 0.0
H1988 H 0.03713 0.5901 0.68019 0.0
H1989 H 0.97389 0.58064 0.85673 0.0
H1990 H 0.9402 0.56798 0.78108 0.0
H1991 H 0.98996 0.60206 0.62213 0.0
C1992 C 0.06481 0.6359 0.79559 0.0
C1993 C 0.06966 0.63606 0.86258 0.0
C1994 C 0.0506 0.62211 0.9057 0.0
C1995 C 0.02708 0.6087 0.88298 0.0
C1996 C 0.0229 0.60917 0.81689 0.0
C1997 C 0.04122 0.62221 0.77364 0.0
C1998 C 0.03173 0.62008 0.70522 0.0
C1999 C 0.0376 0.64469 0.67856 0.0
C2000 C 0.04139 0.60782 0.66039 0.0
C2001 C 0.00512 0.60424 0.71703 0.0
C2002 C 1.0005 0.59819 0.78189 0.0
C2003 C 0.9773 0.58498 0.80575 0.0
C2004 C 0.95829 0.57796 0.76244 0.0
C2005 C 0.96252 0.5839 0.6958 0.0
C2006 C 0.98626 0.59691 0.67263 0.0
H2007 H 0.44068 0.38063 0.76492 0.0
H2008 H 0.44679 0.40929 0.57097 0.0
H2009 H 0.43002 0.43396 0.61014 0.0
H2010 H 0.38563 0.3764 0.80629 0.0
H2011 H 0.39335 0.38546 0.88946 0.0
H2012 H 0.40708 0.37098 0.84738 0.0
H2013 H 0.449 0.40666 0.87367 0.0
H2014 H 0.43539 0.42126 0.91598 0.0
H2015 H 0.4562 0.43648 0.85088 0.0
H2016 H 0.40922 0.4524 0.66695 0.0
H2017 H 0.38776 0.46563 0.73988 0.0
H2018 H 0.39708 0.42738 0.8995 0.0
C2019 C 0.43869 0.39226 0.73081 0.0
C2020 C 0.445 0.39296 0.66472 0.0
C2021 C 0.44215 0.40846 0.62174 0.0
C2022 C 0.43263 0.42255 0.64355 0.0
C2023 C 0.42635 0.42122 0.70869 0.0
C2024 C 0.42949 0.40671 0.75196 0.0
C2025 C 0.42082 0.40836 0.81924 0.0
C2026 C 0.40051 0.38384 0.84189 0.0
C2027 C 0.44159 0.41882 0.86781 0.0
C2028 C 0.41177 0.42562 0.8066 0.0
C2029 C 0.41514 0.43274 0.74236 0.0
C2030 C 0.40683 0.44728 0.71753 0.0
C2031 C 0.39461 0.45463 0.75923 0.0
C2032 C 0.39105 0.44772 0.82524 0.0
C2033 C 0.40004 0.43329 0.8495 0.0
loop_
_geom_bond_atom_site_label_1
_geom_bond_atom_site_label_2
_geom_bond_distance
_geom_bond_site_symmetry_2
_ccdc_geom_bond_type
Zn0 O1 2.055 . S
Zn0 O8 2.046 1_655 S
Zn0 N16 2.036 . S
Zn0 O28 2.053 1_655 S
Zn0 O30 2.066 . S
O1 Zn0 2.055 . S
O1 C4 1.259 . S
C2 O30 1.256 . S
C2 O31 1.244 1_655 S
Zn3 O5 2.046 . S
Zn3 O7 2.055 . S
Zn3 N9 2.036 . S
Zn3 O27 2.066 . S
Zn3 O31 2.053 . S
C4 O1 1.259 . S
C4 O5 1.254 1_655 S
O5 Zn3 2.046 . S
O5 C4 1.254 1_455 S
C6 O27 1.256 . S
C6 O28 1.244 . S
O7 Zn3 2.055 . S
O7 C29 1.259 . S
O8 Zn0 2.046 1_455 S
O8 C29 1.254 . S
N9 Zn3 2.036 . S
N9 C10 1.298 . S
N9 N12 1.398 . S
C10 N9 1.298 . S
C10 N13 1.367 . S
C10 C23 1.481 . S
C11 N12 1.299 . S
C11 N13 1.379 . S
N12 N9 1.398 . S
N12 C11 1.299 . S
N13 C10 1.367 . S
N13 C11 1.379 . S
C14 N16 1.298 . S
C14 N18 1.367 . S
C14 C22 1.481 . S
C15 N17 1.299 . S
C15 N18 1.379 . S
N16 Zn0 2.036 . S
N16 C14 1.298 . S
N16 N17 1.398 . S
N17 C15 1.299 . S
N17 N16 1.398 . S
N18 C14 1.367 . S
N18 C15 1.379 . S
H19 C22 0.980 . S
H20 C22 0.981 . S
H21 C22 0.981 . S
C22 C14 1.481 . S
C22 H19 0.980 . S
C22 H20 0.981 . S
C22 H21 0.981 . S
C23 C10 1.481 . S
C23 H24 0.980 . S
C23 H25 0.981 . S
C23 H26 0.981 . S
H24 C23 0.980 . S
H25 C23 0.981 . S
H26 C23 0.981 . S
O27 Zn3 2.066 . S
O27 C6 1.256 . S
O28 Zn0 2.053 1_455 S
O28 C6 1.244 . S
C29 O7 1.259 . S
C29 O8 1.254 . S
O30 Zn0 2.066 . S
O30 C2 1.256 . S
O31 C2 1.244 1_455 S
O31 Zn3 2.053 . S
Zn32 O33 2.055 . S
Zn32 O40 2.046 . S
Zn32 N48 2.036 . S
Zn32 O60 2.053 . S
Zn32 O62 2.066 . S
O33 Zn32 2.055 . S
O33 C36 1.259 . S
C34 O62 1.256 . S
C34 O63 1.244 . S
Zn35 O37 2.046 . S
Zn35 O39 2.055 . S
Zn35 N41 2.036 . S
Zn35 O59 2.066 . S
Zn35 O63 2.053 . S
C36 O33 1.259 . S
C36 O37 1.254 . S
O37 Zn35 2.046 . S
O37 C36 1.254 . S
C38 O59 1.256 . S
C38 O60 1.244 . S
O39 Zn35 2.055 . S
O39 C61 1.259 . S
O40 Zn32 2.046 . S
O40 C61 1.254 . S
N41 Zn35 2.036 . S
N41 C42 1.298 . S
N41 N44 1.398 . S
C42 N41 1.298 . S
C42 N45 1.367 . S
C42 C55 1.481 . S
C43 N44 1.299 . S
C43 N45 1.379 . S
N44 N41 1.398 . S
N44 C43 1.299 . S
N45 C42 1.367 . S
N45 C43 1.379 . S
C46 N48 1.298 . S
C46 N50 1.367 . S
C46 C54 1.481 . S
C47 N49 1.299 . S
C47 N50 1.379 . S
N48 Zn32 2.036 . S
N48 C46 1.298 . S
N48 N49 1.398 . S
N49 C47 1.299 . S
N49 N48 1.398 . S
N50 C46 1.367 . S
N50 C47 1.379 . S
H51 C54 0.980 . S
H52 C54 0.981 . S
H53 C54 0.981 . S
C54 C46 1.481 . S
C54 H51 0.980 . S
C54 H52 0.981 . S
C54 H53 0.981 . S
C55 C42 1.481 . S
C55 H56 0.980 . S
C55 H57 0.981 . S
C55 H58 0.981 . S
H56 C55 0.980 . S
H57 C55 0.981 . S
H58 C55 0.981 . S
O59 Zn35 2.066 . S
O59 C38 1.256 . S
O60 Zn32 2.053 . S
O60 C38 1.244 . S
C61 O39 1.259 . S
C61 O40 1.254 . S
O62 Zn32 2.066 . S
O62 C34 1.256 . S
O63 C34 1.244 . S
O63 Zn35 2.053 . S
Zn64 O65 2.055 . S
Zn64 O72 2.046 1_565 S
Zn64 N80 2.036 . S
Zn64 O92 2.053 1_565 S
Zn64 O94 2.066 . S
O65 Zn64 2.055 . S
O65 C68 1.259 . S
C66 O94 1.256 . S
C66 O95 1.244 1_565 S
Zn67 O69 2.046 . S
Zn67 O71 2.055 . S
Zn67 N73 2.036 . S
Zn67 O91 2.066 . S
Zn67 O95 2.053 . S
C68 O65 1.259 . S
C68 O69 1.254 1_565 S
O69 Zn67 2.046 . S
O69 C68 1.254 1_545 S
C70 O91 1.256 . S
C70 O92 1.244 . S
O71 Zn67 2.055 . S
O71 C93 1.259 . S
O72 Zn64 2.046 1_545 S
O72 C93 1.254 . S
N73 Zn67 2.036 . S
N73 C74 1.298 . S
N73 N76 1.398 . S
C74 N73 1.298 . S
C74 N77 1.367 . S
C74 C87 1.481 . S
C75 N76 1.299 . S
C75 N77 1.379 . S
N76 N73 1.398 . S
N76 C75 1.299 . S
N77 C74 1.367 . S
N77 C75 1.379 . S
C78 N80 1.298 . S
C78 N82 1.367 . S
C78 C86 1.481 . S
C79 N81 1.299 . S
C79 N82 1.379 . S
N80 Zn64 2.036 . S
N80 C78 1.298 . S
N80 N81 1.398 . S
N81 C79 1.299 . S
N81 N80 1.398 . S
N82 C78 1.367 . S
N82 C79 1.379 . S
H83 C86 0.980 . S
H84 C86 0.981 . S
H85 C86 0.981 . S
C86 C78 1.481 . S
C86 H83 0.980 . S
C86 H84 0.981 . S
C86 H85 0.981 . S
C87 C74 1.481 . S
C87 H88 0.980 . S
C87 H89 0.981 . S
C87 H90 0.981 . S
H88 C87 0.980 . S
H89 C87 0.981 . S
H90 C87 0.981 . S
O91 Zn67 2.066 . S
O91 C70 1.256 . S
O92 Zn64 2.053 1_545 S
O92 C70 1.244 . S
C93 O71 1.259 . S
C93 O72 1.254 . S
O94 Zn64 2.066 . S
O94 C66 1.256 . S
O95 C66 1.244 1_545 S
O95 Zn67 2.053 . S
Zn96 O97 2.055 . S
Zn96 O104 2.046 . S
Zn96 N112 2.036 . S
Zn96 O124 2.053 . S
Zn96 O126 2.066 . S
O97 Zn96 2.055 . S
O97 C100 1.259 . S
C98 O126 1.256 . S
C98 O127 1.244 . S
Zn99 O101 2.046 1_655 S
Zn99 O103 2.055 . S
Zn99 N105 2.036 . S
Zn99 O123 2.066 . S
Zn99 O127 2.053 1_655 S
C100 O97 1.259 . S
C100 O101 1.254 . S
O101 Zn99 2.046 1_455 S
O101 C100 1.254 . S
C102 O123 1.256 . S
C102 O124 1.244 1_655 S
O103 Zn99 2.055 . S
O103 C125 1.259 . S
O104 Zn96 2.046 . S
O104 C125 1.254 1_455 S
N105 Zn99 2.036 . S
N105 C106 1.298 . S
N105 N108 1.398 . S
C106 N105 1.298 . S
C106 N109 1.367 . S
C106 C119 1.481 . S
C107 N108 1.299 . S
C107 N109 1.379 . S
N108 N105 1.398 . S
N108 C107 1.299 . S
N109 C106 1.367 . S
N109 C107 1.379 . S
C110 N112 1.298 . S
C110 N114 1.367 . S
C110 C118 1.481 . S
C111 N113 1.299 . S
C111 N114 1.379 . S
N112 Zn96 2.036 . S
N112 C110 1.298 . S
N112 N113 1.398 . S
N113 C111 1.299 . S
N113 N112 1.398 . S
N114 C110 1.367 . S
N114 C111 1.379 . S
H115 C118 0.980 . S
H116 C118 0.981 . S
H117 C118 0.981 . S
C118 C110 1.481 . S
C118 H115 0.980 . S
C118 H116 0.981 . S
C118 H117 0.981 . S
C119 C106 1.481 . S
C119 H120 0.980 . S
C119 H121 0.981 . S
C119 H122 0.981 . S
H120 C119 0.980 . S
H121 C119 0.981 . S
H122 C119 0.981 . S
O123 Zn99 2.066 . S
O123 C102 1.256 . S
O124 Zn96 2.053 . S
O124 C102 1.244 1_455 S
C125 O103 1.259 . S
C125 O104 1.254 1_655 S
O126 Zn96 2.066 . S
O126 C98 1.256 . S
O127 C98 1.244 . S
O127 Zn99 2.053 1_455 S
Zn128 O129 2.055 . S
Zn128 O136 2.046 . S
Zn128 N144 2.036 . S
Zn128 O156 2.053 . S
Zn128 O158 2.066 . S
O129 Zn128 2.055 . S
O129 C132 1.259 . S
C130 O158 1.256 . S
C130 O159 1.244 . S
Zn131 O133 2.046 . S
Zn131 O135 2.055 . S
Zn131 N137 2.036 . S
Zn131 O155 2.066 . S
Zn131 O159 2.053 . S
C132 O129 1.259 . S
C132 O133 1.254 . S
O133 Zn131 2.046 . S
O133 C132 1.254 . S
C134 O155 1.256 . S
C134 O156 1.244 . S
O135 Zn131 2.055 . S
O135 C157 1.259 . S
O136 Zn128 2.046 . S
O136 C157 1.254 . S
N137 Zn131 2.036 . S
N137 C138 1.298 . S
N137 N140 1.398 . S
C138 N137 1.298 . S
C138 N141 1.367 . S
C138 C151 1.481 . S
C139 N140 1.299 . S
C139 N141 1.379 . S
N140 N137 1.398 . S
N140 C139 1.299 . S
N141 C138 1.367 . S
N141 C139 1.379 . S
C142 N144 1.298 . S
C142 N146 1.367 . S
C142 C150 1.481 . S
C143 N145 1.299 . S
C143 N146 1.379 . S
N144 Zn128 2.036 . S
N144 C142 1.298 . S
N144 N145 1.398 . S
N145 C143 1.299 . S
N145 N144 1.398 . S
N146 C142 1.367 . S
N146 C143 1.379 . S
H147 C150 0.980 . S
H148 C150 0.981 . S
H149 C150 0.981 . S
C150 C142 1.481 . S
C150 H147 0.980 . S
C150 H148 0.981 . S
C150 H149 0.981 . S
C151 C138 1.481 . S
C151 H152 0.980 . S
C151 H153 0.981 . S
C151 H154 0.981 . S
H152 C151 0.980 . S
H153 C151 0.981 . S
H154 C151 0.981 . S
O155 Zn131 2.066 . S
O155 C134 1.256 . S
O156 Zn128 2.053 . S
O156 C134 1.244 . S
C157 O135 1.259 . S
C157 O136 1.254 . S
O158 Zn128 2.066 . S
O158 C130 1.256 . S
O159 C130 1.244 . S
O159 Zn131 2.053 . S
Zn160 O161 2.055 . S
Zn160 O168 2.046 1_565 S
Zn160 N176 2.036 . S
Zn160 O188 2.053 1_565 S
Zn160 O190 2.066 . S
O161 Zn160 2.055 . S
O161 C164 1.259 . S
C162 O190 1.256 . S
C162 O191 1.244 1_565 S
Zn163 O165 2.046 . S
Zn163 O167 2.055 . S
Zn163 N169 2.036 . S
Zn163 O187 2.066 . S
Zn163 O191 2.053 . S
C164 O161 1.259 . S
C164 O165 1.254 1_565 S
O165 Zn163 2.046 . S
O165 C164 1.254 1_545 S
C166 O187 1.256 . S
C166 O188 1.244 . S
O167 Zn163 2.055 . S
O167 C189 1.259 . S
O168 Zn160 2.046 1_545 S
O168 C189 1.254 . S
N169 Zn163 2.036 . S
N169 C170 1.298 . S
N169 N172 1.398 . S
C170 N169 1.298 . S
C170 N173 1.367 . S
C170 C183 1.481 . S
C171 N172 1.299 . S
C171 N173 1.379 . S
N172 N169 1.398 . S
N172 C171 1.299 . S
N173 C170 1.367 . S
N173 C171 1.379 . S
C174 N176 1.298 . S
C174 N178 1.367 . S
C174 C182 1.481 . S
C175 N177 1.299 . S
C175 N178 1.379 . S
N176 Zn160 2.036 . S
N176 C174 1.298 . S
N176 N177 1.398 . S
N177 C175 1.299 . S
N177 N176 1.398 . S
N178 C174 1.367 . S
N178 C175 1.379 . S
H179 C182 0.980 . S
H180 C182 0.981 . S
H181 C182 0.981 . S
C182 C174 1.481 . S
C182 H179 0.980 . S
C182 H180 0.981 . S
C182 H181 0.981 . S
C183 C170 1.481 . S
C183 H184 0.980 . S
C183 H185 0.981 . S
C183 H186 0.981 . S
H184 C183 0.980 . S
H185 C183 0.981 . S
H186 C183 0.981 . S
O187 Zn163 2.066 . S
O187 C166 1.256 . S
O188 Zn160 2.053 1_545 S
O188 C166 1.244 . S
C189 O167 1.259 . S
C189 O168 1.254 . S
O190 Zn160 2.066 . S
O190 C162 1.256 . S
O191 C162 1.244 1_545 S
O191 Zn163 2.053 . S
Zn192 O193 2.055 . S
Zn192 O200 2.046 1_554 S
Zn192 N208 2.036 1_554 S
Zn192 O220 2.053 . S
Zn192 O222 2.066 . S
O193 Zn192 2.055 . S
O193 C196 1.259 . S
C194 O222 1.256 . S
C194 O223 1.244 . S
Zn195 O197 2.046 . S
Zn195 O199 2.055 . S
Zn195 N201 2.036 . S
Zn195 O219 2.066 . S
Zn195 O223 2.053 . S
C196 O193 1.259 . S
C196 O197 1.254 . S
O197 Zn195 2.046 . S
O197 C196 1.254 . S
C198 O219 1.256 . S
C198 O220 1.244 . S
O199 Zn195 2.055 . S
O199 C221 1.259 . S
O200 Zn192 2.046 1_556 S
O200 C221 1.254 1_556 S
N201 Zn195 2.036 . S
N201 C202 1.298 . S
N201 N204 1.398 . S
C202 N201 1.298 . S
C202 N205 1.367 . S
C202 C215 1.481 . S
C203 N204 1.299 . S
C203 N205 1.379 . S
N204 N201 1.398 . S
N204 C203 1.299 . S
N205 C202 1.367 . S
N205 C203 1.379 . S
C206 N208 1.298 . S
C206 N210 1.367 . S
C206 C214 1.481 1_556 S
C207 N209 1.299 . S
C207 N210 1.379 . S
N208 Zn192 2.036 1_556 S
N208 C206 1.298 . S
N208 N209 1.398 . S
N209 C207 1.299 . S
N209 N208 1.398 . S
N210 C206 1.367 . S
N210 C207 1.379 . S
H211 C214 0.980 . S
H212 C214 0.981 1_556 S
H213 C214 0.981 . S
C214 C206 1.481 1_554 S
C214 H211 0.980 . S
C214 H212 0.981 1_554 S
C214 H213 0.981 . S
C215 C202 1.481 . S
C215 H216 0.980 . S
C215 H217 0.981 . S
C215 H218 0.981 . S
H216 C215 0.980 . S
H217 C215 0.981 . S
H218 C215 0.981 . S
O219 Zn195 2.066 . S
O219 C198 1.256 . S
O220 Zn192 2.053 . S
O220 C198 1.244 . S
C221 O199 1.259 . S
C221 O200 1.254 1_554 S
O222 Zn192 2.066 . S
O222 C194 1.256 . S
O223 C194 1.244 . S
O223 Zn195 2.053 . S
Zn224 O225 2.055 . S
Zn224 O232 2.046 1_554 S
Zn224 N240 2.036 1_554 S
Zn224 O252 2.053 . S
Zn224 O254 2.066 . S
O225 Zn224 2.055 . S
O225 C228 1.259 . S
C226 O254 1.256 . S
C226 O255 1.244 . S
Zn227 O229 2.046 . S
Zn227 O231 2.055 . S
Zn227 N233 2.036 . S
Zn227 O251 2.066 . S
Zn227 O255 2.053 . S
C228 O225 1.259 . S
C228 O229 1.254 . S
O229 Zn227 2.046 . S
O229 C228 1.254 . S
C230 O251 1.256 . S
C230 O252 1.244 . S
O231 Zn227 2.055 . S
O231 C253 1.259 . S
O232 Zn224 2.046 1_556 S
O232 C253 1.254 1_556 S
N233 Zn227 2.036 . S
N233 C234 1.298 . S
N233 N236 1.398 . S
C234 N233 1.298 . S
C234 N237 1.367 . S
C234 C247 1.481 . S
C235 N236 1.299 . S
C235 N237 1.379 . S
N236 N233 1.398 . S
N236 C235 1.299 . S
N237 C234 1.367 . S
N237 C235 1.379 . S
C238 N240 1.298 . S
C238 N242 1.367 . S
C238 C246 1.481 1_556 S
C239 N241 1.299 . S
C239 N242 1.379 . S
N240 Zn224 2.036 1_556 S
N240 C238 1.298 . S
N240 N241 1.398 . S
N241 C239 1.299 . S
N241 N240 1.398 . S
N242 C238 1.367 . S
N242 C239 1.379 . S
H243 C246 0.980 . S
H244 C246 0.981 1_556 S
H245 C246 0.981 . S
C246 C238 1.481 1_554 S
C246 H243 0.980 . S
C246 H244 0.981 1_554 S
C246 H245 0.981 . S
C247 C234 1.481 . S
C247 H248 0.980 . S
C247 H249 0.981 . S
C247 H250 0.981 . S
H248 C247 0.980 . S
H249 C247 0.981 . S
H250 C247 0.981 . S
O251 Zn227 2.066 . S
O251 C230 1.256 . S
O252 Zn224 2.053 . S
O252 C230 1.244 . S
C253 O231 1.259 . S
C253 O232 1.254 1_554 S
O254 Zn224 2.066 . S
O254 C226 1.256 . S
O255 C226 1.244 . S
O255 Zn227 2.053 . S
Zn256 O257 2.055 . S
Zn256 O264 2.046 1_554 S
Zn256 N272 2.036 1_554 S
Zn256 O284 2.053 . S
Zn256 O286 2.066 . S
O257 Zn256 2.055 . S
O257 C260 1.259 . S
C258 O286 1.256 . S
C258 O287 1.244 . S
Zn259 O261 2.046 . S
Zn259 O263 2.055 . S
Zn259 N265 2.036 . S
Zn259 O283 2.066 . S
Zn259 O287 2.053 . S
C260 O257 1.259 . S
C260 O261 1.254 . S
O261 Zn259 2.046 . S
O261 C260 1.254 . S
C262 O283 1.256 . S
C262 O284 1.244 . S
O263 Zn259 2.055 . S
O263 C285 1.259 . S
O264 Zn256 2.046 1_556 S
O264 C285 1.254 1_556 S
N265 Zn259 2.036 . S
N265 C266 1.298 . S
N265 N268 1.398 . S
C266 N265 1.298 . S
C266 N269 1.367 . S
C266 C279 1.481 . S
C267 N268 1.299 . S
C267 N269 1.379 . S
N268 N265 1.398 . S
N268 C267 1.299 . S
N269 C266 1.367 . S
N269 C267 1.379 . S
C270 N272 1.298 . S
C270 N274 1.367 . S
C270 C278 1.481 1_556 S
C271 N273 1.299 . S
C271 N274 1.379 . S
N272 Zn256 2.036 1_556 S
N272 C270 1.298 . S
N272 N273 1.398 . S
N273 C271 1.299 . S
N273 N272 1.398 . S
N274 C270 1.367 . S
N274 C271 1.379 . S
H275 C278 0.980 . S
H276 C278 0.981 1_556 S
H277 C278 0.981 . S
C278 C270 1.481 1_554 S
C278 H275 0.980 . S
C278 H276 0.981 1_554 S
C278 H277 0.981 . S
C279 C266 1.481 . S
C279 H280 0.980 . S
C279 H281 0.981 . S
C279 H282 0.981 . S
H280 C279 0.980 . S
H281 C279 0.981 . S
H282 C279 0.981 . S
O283 Zn259 2.066 . S
O283 C262 1.256 . S
O284 Zn256 2.053 . S
O284 C262 1.244 . S
C285 O263 1.259 . S
C285 O264 1.254 1_554 S
O286 Zn256 2.066 . S
O286 C258 1.256 . S
O287 C258 1.244 . S
O287 Zn259 2.053 . S
Zn288 O289 2.055 . S
Zn288 O296 2.046 . S
Zn288 N304 2.036 . S
Zn288 O316 2.053 . S
Zn288 O318 2.066 . S
O289 Zn288 2.055 . S
O289 C292 1.259 . S
C290 O318 1.256 . S
C290 O319 1.244 . S
Zn291 O293 2.046 . S
Zn291 O295 2.055 . S
Zn291 N297 2.036 . S
Zn291 O315 2.066 . S
Zn291 O319 2.053 . S
C292 O289 1.259 . S
C292 O293 1.254 . S
O293 Zn291 2.046 . S
O293 C292 1.254 . S
C294 O315 1.256 . S
C294 O316 1.244 . S
O295 Zn291 2.055 . S
O295 C317 1.259 . S
O296 Zn288 2.046 . S
O296 C317 1.254 . S
N297 Zn291 2.036 . S
N297 C298 1.298 . S
N297 N300 1.398 . S
C298 N297 1.298 . S
C298 N301 1.367 . S
C298 C311 1.481 . S
C299 N300 1.299 . S
C299 N301 1.379 . S
N300 N297 1.398 . S
N300 C299 1.299 . S
N301 C298 1.367 . S
N301 C299 1.379 . S
C302 N304 1.298 . S
C302 N306 1.367 . S
C302 C310 1.481 . S
C303 N305 1.299 . S
C303 N306 1.379 . S
N304 Zn288 2.036 . S
N304 C302 1.298 . S
N304 N305 1.398 . S
N305 C303 1.299 . S
N305 N304 1.398 . S
N306 C302 1.367 . S
N306 C303 1.379 . S
H307 C310 0.980 . S
H308 C310 0.981 . S
H309 C310 0.981 . S
C310 C302 1.481 . S
C310 H307 0.980 . S
C310 H308 0.981 . S
C310 H309 0.981 . S
C311 C298 1.481 . S
C311 H312 0.980 . S
C311 H313 0.981 . S
C311 H314 0.981 . S
H312 C311 0.980 . S
H313 C311 0.981 . S
H314 C311 0.981 . S
O315 Zn291 2.066 . S
O315 C294 1.256 . S
O316 Zn288 2.053 . S
O316 C294 1.244 . S
C317 O295 1.259 . S
C317 O296 1.254 . S
O318 Zn288 2.066 . S
O318 C290 1.256 . S
O319 C290 1.244 . S
O319 Zn291 2.053 . S
Zn320 O321 2.055 . S
Zn320 O328 2.046 . S
Zn320 N336 2.036 . S
Zn320 O348 2.053 . S
Zn320 O350 2.066 . S
O321 Zn320 2.055 . S
O321 C324 1.259 . S
C322 O350 1.256 . S
C322 O351 1.244 . S
Zn323 O325 2.046 . S
Zn323 O327 2.055 . S
Zn323 N329 2.036 . S
Zn323 O347 2.066 . S
Zn323 O351 2.053 . S
C324 O321 1.259 . S
C324 O325 1.254 . S
O325 Zn323 2.046 . S
O325 C324 1.254 . S
C326 O347 1.256 . S
C326 O348 1.244 . S
O327 Zn323 2.055 . S
O327 C349 1.259 . S
O328 Zn320 2.046 . S
O328 C349 1.254 . S
N329 Zn323 2.036 . S
N329 C330 1.298 . S
N329 N332 1.398 . S
C330 N329 1.298 . S
C330 N333 1.367 . S
C330 C343 1.481 . S
C331 N332 1.299 . S
C331 N333 1.379 . S
N332 N329 1.398 . S
N332 C331 1.299 . S
N333 C330 1.367 . S
N333 C331 1.379 . S
C334 N336 1.298 . S
C334 N338 1.367 . S
C334 C342 1.481 . S
C335 N337 1.299 . S
C335 N338 1.379 . S
N336 Zn320 2.036 . S
N336 C334 1.298 . S
N336 N337 1.398 . S
N337 C335 1.299 . S
N337 N336 1.398 . S
N338 C334 1.367 . S
N338 C335 1.379 . S
H339 C342 0.980 . S
H340 C342 0.981 . S
H341 C342 0.981 . S
C342 C334 1.481 . S
C342 H339 0.980 . S
C342 H340 0.981 . S
C342 H341 0.981 . S
C343 C330 1.481 . S
C343 H344 0.980 . S
C343 H345 0.981 . S
C343 H346 0.981 . S
H344 C343 0.980 . S
H345 C343 0.981 . S
H346 C343 0.981 . S
O347 Zn323 2.066 . S
O347 C326 1.256 . S
O348 Zn320 2.053 . S
O348 C326 1.244 . S
C349 O327 1.259 . S
C349 O328 1.254 . S
O350 Zn320 2.066 . S
O350 C322 1.256 . S
O351 C322 1.244 . S
O351 Zn323 2.053 . S
Zn352 O353 2.055 . S
Zn352 O360 2.046 . S
Zn352 N368 2.036 . S
Zn352 O380 2.053 . S
Zn352 O382 2.066 . S
O353 Zn352 2.055 . S
O353 C356 1.259 . S
C354 O382 1.256 . S
C354 O383 1.244 . S
Zn355 O357 2.046 . S
Zn355 O359 2.055 . S
Zn355 N361 2.036 . S
Zn355 O379 2.066 . S
Zn355 O383 2.053 . S
C356 O353 1.259 . S
C356 O357 1.254 . S
O357 Zn355 2.046 . S
O357 C356 1.254 . S
C358 O379 1.256 . S
C358 O380 1.244 . S
O359 Zn355 2.055 . S
O359 C381 1.259 . S
O360 Zn352 2.046 . S
O360 C381 1.254 . S
N361 Zn355 2.036 . S
N361 C362 1.298 . S
N361 N364 1.398 . S
C362 N361 1.298 . S
C362 N365 1.367 . S
C362 C375 1.481 . S
C363 N364 1.299 . S
C363 N365 1.379 . S
N364 N361 1.398 . S
N364 C363 1.299 . S
N365 C362 1.367 . S
N365 C363 1.379 . S
C366 N368 1.298 . S
C366 N370 1.367 . S
C366 C374 1.481 . S
C367 N369 1.299 . S
C367 N370 1.379 . S
N368 Zn352 2.036 . S
N368 C366 1.298 . S
N368 N369 1.398 . S
N369 C367 1.299 . S
N369 N368 1.398 . S
N370 C366 1.367 . S
N370 C367 1.379 . S
H371 C374 0.980 . S
H372 C374 0.981 . S
H373 C374 0.981 . S
C374 C366 1.481 . S
C374 H371 0.980 . S
C374 H372 0.981 . S
C374 H373 0.981 . S
C375 C362 1.481 . S
C375 H376 0.980 . S
C375 H377 0.981 . S
C375 H378 0.981 . S
H376 C375 0.980 . S
H377 C375 0.981 . S
H378 C375 0.981 . S
O379 Zn355 2.066 . S
O379 C358 1.256 . S
O380 Zn352 2.053 . S
O380 C358 1.244 . S
C381 O359 1.259 . S
C381 O360 1.254 . S
O382 Zn352 2.066 . S
O382 C354 1.256 . S
O383 C354 1.244 . S
O383 Zn355 2.053 . S
Zn384 O385 2.055 . S
Zn384 O392 2.046 . S
Zn384 N400 2.036 . S
Zn384 O412 2.053 . S
Zn384 O414 2.066 . S
O385 Zn384 2.055 . S
O385 C388 1.259 . S
C386 O414 1.256 . S
C386 O415 1.244 . S
Zn387 O389 2.046 . S
Zn387 O391 2.055 . S
Zn387 N393 2.036 . S
Zn387 O411 2.066 . S
Zn387 O415 2.053 . S
C388 O385 1.259 . S
C388 O389 1.254 . S
O389 Zn387 2.046 . S
O389 C388 1.254 . S
C390 O411 1.256 . S
C390 O412 1.244 . S
O391 Zn387 2.055 . S
O391 C413 1.259 . S
O392 Zn384 2.046 . S
O392 C413 1.254 . S
N393 Zn387 2.036 . S
N393 C394 1.298 . S
N393 N396 1.398 . S
C394 N393 1.298 . S
C394 N397 1.367 . S
C394 C407 1.481 . S
C395 N396 1.299 . S
C395 N397 1.379 . S
N396 N393 1.398 . S
N396 C395 1.299 . S
N397 C394 1.367 . S
N397 C395 1.379 . S
C398 N400 1.298 . S
C398 N402 1.367 . S
C398 C406 1.481 . S
C399 N401 1.299 . S
C399 N402 1.379 . S
N400 Zn384 2.036 . S
N400 C398 1.298 . S
N400 N401 1.398 . S
N401 C399 1.299 . S
N401 N400 1.398 . S
N402 C398 1.367 . S
N402 C399 1.379 . S
H403 C406 0.980 . S
H404 C406 0.981 . S
H405 C406 0.981 . S
C406 C398 1.481 . S
C406 H403 0.980 . S
C406 H404 0.981 . S
C406 H405 0.981 . S
C407 C394 1.481 . S
C407 H408 0.980 . S
C407 H409 0.981 . S
C407 H410 0.981 . S
H408 C407 0.980 . S
H409 C407 0.981 . S
H410 C407 0.981 . S
O411 Zn387 2.066 . S
O411 C390 1.256 . S
O412 Zn384 2.053 . S
O412 C390 1.244 . S
C413 O391 1.259 . S
C413 O392 1.254 . S
O414 Zn384 2.066 . S
O414 C386 1.256 . S
O415 C386 1.244 . S
O415 Zn387 2.053 . S
Zn416 O417 2.055 . S
Zn416 O424 2.046 . S
Zn416 N432 2.036 . S
Zn416 O444 2.053 . S
Zn416 O446 2.066 . S
O417 Zn416 2.055 . S
O417 C420 1.259 . S
C418 O446 1.256 . S
C418 O447 1.244 . S
Zn419 O421 2.046 . S
Zn419 O423 2.055 . S
Zn419 N425 2.036 . S
Zn419 O443 2.066 . S
Zn419 O447 2.053 . S
C420 O417 1.259 . S
C420 O421 1.254 . S
O421 Zn419 2.046 . S
O421 C420 1.254 . S
C422 O443 1.256 . S
C422 O444 1.244 . S
O423 Zn419 2.055 . S
O423 C445 1.259 . S
O424 Zn416 2.046 . S
O424 C445 1.254 . S
N425 Zn419 2.036 . S
N425 C426 1.298 . S
N425 N428 1.398 . S
C426 N425 1.298 . S
C426 N429 1.367 . S
C426 C439 1.481 . S
C427 N428 1.299 . S
C427 N429 1.379 . S
N428 N425 1.398 . S
N428 C427 1.299 . S
N429 C426 1.367 . S
N429 C427 1.379 . S
C430 N432 1.298 . S
C430 N434 1.367 . S
C430 C438 1.481 . S
C431 N433 1.299 . S
C431 N434 1.379 . S
N432 Zn416 2.036 . S
N432 C430 1.298 . S
N432 N433 1.398 . S
N433 C431 1.299 . S
N433 N432 1.398 . S
N434 C430 1.367 . S
N434 C431 1.379 . S
H435 C438 0.980 . S
H436 C438 0.981 . S
H437 C438 0.981 . S
C438 C430 1.481 . S
C438 H435 0.980 . S
C438 H436 0.981 . S
C438 H437 0.981 . S
C439 C426 1.481 . S
C439 H440 0.980 . S
C439 H441 0.981 . S
C439 H442 0.981 . S
H440 C439 0.980 . S
H441 C439 0.981 . S
H442 C439 0.981 . S
O443 Zn419 2.066 . S
O443 C422 1.256 . S
O444 Zn416 2.053 . S
O444 C422 1.244 . S
C445 O423 1.259 . S
C445 O424 1.254 . S
O446 Zn416 2.066 . S
O446 C418 1.256 . S
O447 C418 1.244 . S
O447 Zn419 2.053 . S
Zn448 O449 2.055 . S
Zn448 O456 2.046 . S
Zn448 N464 2.036 . S
Zn448 O476 2.053 . S
Zn448 O478 2.066 . S
O449 Zn448 2.055 . S
O449 C452 1.259 . S
C450 O478 1.256 . S
C450 O479 1.244 . S
Zn451 O453 2.046 . S
Zn451 O455 2.055 . S
Zn451 N457 2.036 . S
Zn451 O475 2.066 . S
Zn451 O479 2.053 . S
C452 O449 1.259 . S
C452 O453 1.254 . S
O453 Zn451 2.046 . S
O453 C452 1.254 . S
C454 O475 1.256 . S
C454 O476 1.244 . S
O455 Zn451 2.055 . S
O455 C477 1.259 . S
O456 Zn448 2.046 . S
O456 C477 1.254 . S
N457 Zn451 2.036 . S
N457 C458 1.298 . S
N457 N460 1.398 . S
C458 N457 1.298 . S
C458 N461 1.367 . S
C458 C471 1.481 . S
C459 N460 1.299 . S
C459 N461 1.379 . S
N460 N457 1.398 . S
N460 C459 1.299 . S
N461 C458 1.367 . S
N461 C459 1.379 . S
C462 N464 1.298 . S
C462 N466 1.367 . S
C462 C470 1.481 . S
C463 N465 1.299 . S
C463 N466 1.379 . S
N464 Zn448 2.036 . S
N464 C462 1.298 . S
N464 N465 1.398 . S
N465 C463 1.299 . S
N465 N464 1.398 . S
N466 C462 1.367 . S
N466 C463 1.379 . S
H467 C470 0.980 . S
H468 C470 0.981 . S
H469 C470 0.981 . S
C470 C462 1.481 . S
C470 H467 0.980 . S
C470 H468 0.981 . S
C470 H469 0.981 . S
C471 C458 1.481 . S
C471 H472 0.980 . S
C471 H473 0.981 . S
C471 H474 0.981 . S
H472 C471 0.980 . S
H473 C471 0.981 . S
H474 C471 0.981 . S
O475 Zn451 2.066 . S
O475 C454 1.256 . S
O476 Zn448 2.053 . S
O476 C454 1.244 . S
C477 O455 1.259 . S
C477 O456 1.254 . S
O478 Zn448 2.066 . S
O478 C450 1.256 . S
O479 C450 1.244 . S
O479 Zn451 2.053 . S
Zn480 O481 2.055 . S
Zn480 O488 2.046 1_556 S
Zn480 N496 2.036 1_556 S
Zn480 O508 2.053 . S
Zn480 O510 2.066 . S
O481 Zn480 2.055 . S
O481 C484 1.259 . S
C482 O510 1.256 . S
C482 O511 1.244 . S
Zn483 O485 2.046 . S
Zn483 O487 2.055 . S
Zn483 N489 2.036 . S
Zn483 O507 2.066 . S
Zn483 O511 2.053 . S
C484 O481 1.259 . S
C484 O485 1.254 . S
O485 Zn483 2.046 . S
O485 C484 1.254 . S
C486 O507 1.256 . S
C486 O508 1.244 . S
O487 Zn483 2.055 . S
O487 C509 1.259 . S
O488 Zn480 2.046 1_554 S
O488 C509 1.254 1_554 S
N489 Zn483 2.036 . S
N489 C490 1.298 . S
N489 N492 1.398 . S
C490 N489 1.298 . S
C490 N493 1.367 . S
C490 C503 1.481 . S
C491 N492 1.299 . S
C491 N493 1.379 . S
N492 N489 1.398 . S
N492 C491 1.299 . S
N493 C490 1.367 . S
N493 C491 1.379 . S
C494 N496 1.298 . S
C494 N498 1.367 . S
C494 C502 1.481 1_554 S
C495 N497 1.299 . S
C495 N498 1.379 . S
N496 Zn480 2.036 1_554 S
N496 C494 1.298 . S
N496 N497 1.398 . S
N497 C495 1.299 . S
N497 N496 1.398 . S
N498 C494 1.367 . S
N498 C495 1.379 . S
H499 C502 0.980 . S
H500 C502 0.981 1_554 S
H501 C502 0.981 . S
C502 C494 1.481 1_556 S
C502 H499 0.980 . S
C502 H500 0.981 1_556 S
C502 H501 0.981 . S
C503 C490 1.481 . S
C503 H504 0.980 . S
C503 H505 0.981 . S
C503 H506 0.981 . S
H504 C503 0.980 . S
H505 C503 0.981 . S
H506 C503 0.981 . S
O507 Zn483 2.066 . S
O507 C486 1.256 . S
O508 Zn480 2.053 . S
O508 C486 1.244 . S
C509 O487 1.259 . S
C509 O488 1.254 1_556 S
O510 Zn480 2.066 . S
O510 C482 1.256 . S
O511 C482 1.244 . S
O511 Zn483 2.053 . S
Zn512 O513 2.055 . S
Zn512 O520 2.046 . S
Zn512 N528 2.036 . S
Zn512 O540 2.053 . S
Zn512 O542 2.066 . S
O513 Zn512 2.055 . S
O513 C516 1.259 . S
C514 O542 1.256 . S
C514 O543 1.244 . S
Zn515 O517 2.046 1_556 S
Zn515 O519 2.055 . S
Zn515 N521 2.036 1_556 S
Zn515 O539 2.066 . S
Zn515 O543 2.053 . S
C516 O513 1.259 . S
C516 O517 1.254 1_556 S
O517 Zn515 2.046 1_554 S
O517 C516 1.254 1_554 S
C518 O539 1.256 . S
C518 O540 1.244 . S
O519 Zn515 2.055 . S
O519 C541 1.259 . S
O520 Zn512 2.046 . S
O520 C541 1.254 . S
N521 Zn515 2.036 1_554 S
N521 C522 1.298 . S
N521 N524 1.398 . S
C522 N521 1.298 . S
C522 N525 1.367 . S
C522 C535 1.481 1_554 S
C523 N524 1.299 . S
C523 N525 1.379 . S
N524 N521 1.398 . S
N524 C523 1.299 . S
N525 C522 1.367 . S
N525 C523 1.379 . S
C526 N528 1.298 . S
C526 N530 1.367 . S
C526 C534 1.481 . S
C527 N529 1.299 . S
C527 N530 1.379 . S
N528 Zn512 2.036 . S
N528 C526 1.298 . S
N528 N529 1.398 . S
N529 C527 1.299 . S
N529 N528 1.398 . S
N530 C526 1.367 . S
N530 C527 1.379 . S
H531 C534 0.980 . S
H532 C534 0.981 . S
H533 C534 0.981 . S
C534 C526 1.481 . S
C534 H531 0.980 . S
C534 H532 0.981 . S
C534 H533 0.981 . S
C535 C522 1.481 1_556 S
C535 H536 0.980 . S
C535 H537 0.981 1_556 S
C535 H538 0.981 . S
H536 C535 0.980 . S
H537 C535 0.981 1_554 S
H538 C535 0.981 . S
O539 Zn515 2.066 . S
O539 C518 1.256 . S
O540 Zn512 2.053 . S
O540 C518 1.244 . S
C541 O519 1.259 . S
C541 O520 1.254 . S
O542 Zn512 2.066 . S
O542 C514 1.256 . S
O543 C514 1.244 . S
O543 Zn515 2.053 . S
Zn544 O545 2.055 . S
Zn544 O552 2.046 . S
Zn544 N560 2.036 . S
Zn544 O572 2.053 . S
Zn544 O574 2.066 . S
O545 Zn544 2.055 . S
O545 C548 1.259 . S
C546 O574 1.256 . S
C546 O575 1.244 . S
Zn547 O549 2.046 1_556 S
Zn547 O551 2.055 . S
Zn547 N553 2.036 1_556 S
Zn547 O571 2.066 . S
Zn547 O575 2.053 . S
C548 O545 1.259 . S
C548 O549 1.254 1_556 S
O549 Zn547 2.046 1_554 S
O549 C548 1.254 1_554 S
C550 O571 1.256 . S
C550 O572 1.244 . S
O551 Zn547 2.055 . S
O551 C573 1.259 . S
O552 Zn544 2.046 . S
O552 C573 1.254 . S
N553 Zn547 2.036 1_554 S
N553 C554 1.298 . S
N553 N556 1.398 . S
C554 N553 1.298 . S
C554 N557 1.367 . S
C554 C567 1.481 1_554 S
C555 N556 1.299 . S
C555 N557 1.379 . S
N556 N553 1.398 . S
N556 C555 1.299 . S
N557 C554 1.367 . S
N557 C555 1.379 . S
C558 N560 1.298 . S
C558 N562 1.367 . S
C558 C566 1.481 . S
C559 N561 1.299 . S
C559 N562 1.379 . S
N560 Zn544 2.036 . S
N560 C558 1.298 . S
N560 N561 1.398 . S
N561 C559 1.299 . S
N561 N560 1.398 . S
N562 C558 1.367 . S
N562 C559 1.379 . S
H563 C566 0.980 . S
H564 C566 0.981 . S
H565 C566 0.981 . S
C566 C558 1.481 . S
C566 H563 0.980 . S
C566 H564 0.981 . S
C566 H565 0.981 . S
C567 C554 1.481 1_556 S
C567 H568 0.980 . S
C567 H569 0.981 1_556 S
C567 H570 0.981 . S
H568 C567 0.980 . S
H569 C567 0.981 1_554 S
H570 C567 0.981 . S
O571 Zn547 2.066 . S
O571 C550 1.256 . S
O572 Zn544 2.053 . S
O572 C550 1.244 . S
C573 O551 1.259 . S
C573 O552 1.254 . S
O574 Zn544 2.066 . S
O574 C546 1.256 . S
O575 C546 1.244 . S
O575 Zn547 2.053 . S
H576 C588 0.930 . S
H577 C590 0.930 . S
H578 C591 0.930 . S
H579 C595 0.959 . S
H580 C595 0.959 . S
H581 C595 0.961 . S
H582 C596 0.960 . S
H583 C596 0.961 . S
H584 C596 0.959 . S
H585 C599 0.929 . S
H586 C600 0.931 . S
H587 C602 0.930 . S
C588 H576 0.930 . S
C588 C589 1.399 . S
C588 C593 1.399 . S
C589 C588 1.399 . S
C589 C590 1.376 . S
C590 H577 0.930 . S
C590 C589 1.376 . S
C590 C591 1.388 . S
C591 H578 0.930 . S
C591 C590 1.388 . S
C591 C592 1.390 . S
C592 C591 1.390 . S
C592 C593 1.394 . S
C592 C598 1.465 . S
C593 C588 1.399 . S
C593 C592 1.394 . S
C593 C594 1.516 . S
C594 C593 1.516 . S
C594 C595 1.502 . S
C594 C596 1.561 . S
C594 C597 1.526 . S
C595 H579 0.959 . S
C595 H580 0.959 . S
C595 H581 0.961 . S
C595 C594 1.502 . S
C596 H582 0.960 . S
C596 H583 0.961 . S
C596 H584 0.959 . S
C596 C594 1.561 . S
C597 C594 1.526 . S
C597 C598 1.396 . S
C597 C602 1.390 . S
C598 C592 1.465 . S
C598 C597 1.396 . S
C598 C599 1.399 . S
C599 H585 0.929 . S
C599 C598 1.399 . S
C599 C600 1.385 . S
C600 H586 0.931 . S
C600 C599 1.385 . S
C600 C601 1.389 . S
C601 C600 1.389 . S
C601 C602 1.387 . S
C602 H587 0.930 . S
C602 C597 1.390 . S
C602 C601 1.387 . S
H603 C615 0.930 . S
H604 C617 0.930 . S
H605 C618 0.930 . S
H606 C622 0.959 . S
H607 C622 0.959 . S
H608 C622 0.961 . S
H609 C623 0.960 . S
H610 C623 0.961 . S
H611 C623 0.959 . S
H612 C626 0.929 . S
H613 C627 0.931 . S
H614 C629 0.930 . S
C615 H603 0.930 . S
C615 C616 1.399 . S
C615 C620 1.399 . S
C616 C615 1.399 . S
C616 C617 1.376 . S
C617 H604 0.930 . S
C617 C616 1.376 . S
C617 C618 1.388 . S
C618 H605 0.930 . S
C618 C617 1.388 . S
C618 C619 1.390 . S
C619 C618 1.390 . S
C619 C620 1.394 . S
C619 C625 1.465 . S
C620 C615 1.399 . S
C620 C619 1.394 . S
C620 C621 1.516 . S
C621 C620 1.516 . S
C621 C622 1.502 . S
C621 C623 1.561 . S
C621 C624 1.526 . S
C622 H606 0.959 . S
C622 H607 0.959 . S
C622 H608 0.961 . S
C622 C621 1.502 . S
C623 H609 0.960 . S
C623 H610 0.961 . S
C623 H611 0.959 . S
C623 C621 1.561 . S
C624 C621 1.526 . S
C624 C625 1.396 . S
C624 C629 1.390 . S
C625 C619 1.465 . S
C625 C624 1.396 . S
C625 C626 1.399 . S
C626 H612 0.929 . S
C626 C625 1.399 . S
C626 C627 1.385 . S
C627 H613 0.931 . S
C627 C626 1.385 . S
C627 C628 1.389 . S
C628 C627 1.389 . S
C628 C629 1.387 . S
C629 H614 0.930 . S
C629 C624 1.390 . S
C629 C628 1.387 . S
H630 C642 0.930 . S
H631 C644 0.930 . S
H632 C645 0.930 . S
H633 C649 0.959 . S
H634 C649 0.959 . S
H635 C649 0.961 . S
H636 C650 0.960 . S
H637 C650 0.961 . S
H638 C650 0.959 . S
H639 C653 0.929 . S
H640 C654 0.931 . S
H641 C656 0.930 . S
C642 H630 0.930 . S
C642 C643 1.399 . S
C642 C647 1.399 . S
C643 C642 1.399 . S
C643 C644 1.376 . S
C644 H631 0.930 . S
C644 C643 1.376 . S
C644 C645 1.388 . S
C645 H632 0.930 . S
C645 C644 1.388 . S
C645 C646 1.390 . S
C646 C645 1.390 . S
C646 C647 1.394 . S
C646 C652 1.465 . S
C647 C642 1.399 . S
C647 C646 1.394 . S
C647 C648 1.516 . S
C648 C647 1.516 . S
C648 C649 1.502 . S
C648 C650 1.561 . S
C648 C651 1.526 . S
C649 H633 0.959 . S
C649 H634 0.959 . S
C649 H635 0.961 . S
C649 C648 1.502 . S
C650 H636 0.960 . S
C650 H637 0.961 . S
C650 H638 0.959 . S
C650 C648 1.561 . S
C651 C648 1.526 . S
C651 C652 1.396 . S
C651 C656 1.390 . S
C652 C646 1.465 . S
C652 C651 1.396 . S
C652 C653 1.399 . S
C653 H639 0.929 . S
C653 C652 1.399 . S
C653 C654 1.385 . S
C654 H640 0.931 . S
C654 C653 1.385 . S
C654 C655 1.389 . S
C655 C654 1.389 . S
C655 C656 1.387 . S
C656 H641 0.930 . S
C656 C651 1.390 . S
C656 C655 1.387 . S
H657 C669 0.930 . S
H658 C671 0.930 . S
H659 C672 0.930 . S
H660 C676 0.959 1_556 S
H661 C676 0.959 . S
H662 C676 0.961 . S
H663 C677 0.960 . S
H664 C677 0.961 . S
H665 C677 0.959 . S
H666 C680 0.929 . S
H667 C681 0.931 . S
H668 C683 0.930 . S
C669 H657 0.930 . S
C669 C670 1.399 . S
C669 C674 1.399 . S
C670 C669 1.399 . S
C670 C671 1.376 . S
C671 H658 0.930 . S
C671 C670 1.376 . S
C671 C672 1.388 . S
C672 H659 0.930 . S
C672 C671 1.388 . S
C672 C673 1.390 . S
C673 C672 1.390 . S
C673 C674 1.394 . S
C673 C679 1.465 . S
C674 C669 1.399 . S
C674 C673 1.394 . S
C674 C675 1.516 1_556 S
C675 C674 1.516 1_554 S
C675 C676 1.502 . S
C675 C677 1.561 . S
C675 C678 1.526 1_554 S
C676 H660 0.959 1_554 S
C676 H661 0.959 . S
C676 H662 0.961 . S
C676 C675 1.502 . S
C677 H663 0.960 . S
C677 H664 0.961 . S
C677 H665 0.959 . S
C677 C675 1.561 . S
C678 C675 1.526 1_556 S
C678 C679 1.396 . S
C678 C683 1.390 1_556 S
C679 C673 1.465 . S
C679 C678 1.396 . S
C679 C680 1.399 . S
C680 H666 0.929 . S
C680 C679 1.399 . S
C680 C681 1.385 . S
C681 H667 0.931 . S
C681 C680 1.385 . S
C681 C682 1.389 1_556 S
C682 C681 1.389 1_554 S
C682 C683 1.387 . S
C683 H668 0.930 . S
C683 C678 1.390 1_554 S
C683 C682 1.387 . S
H684 C696 0.930 . S
H685 C698 0.930 . S
H686 C699 0.930 . S
H687 C703 0.959 . S
H688 C703 0.959 . S
H689 C703 0.961 . S
H690 C704 0.960 . S
H691 C704 0.961 . S
H692 C704 0.959 . S
H693 C707 0.929 . S
H694 C708 0.931 . S
H695 C710 0.930 . S
C696 H684 0.930 . S
C696 C697 1.399 . S
C696 C701 1.399 1_554 S
C697 C696 1.399 . S
C697 C698 1.376 1_554 S
C698 H685 0.930 . S
C698 C697 1.376 1_556 S
C698 C699 1.388 . S
C699 H686 0.930 . S
C699 C698 1.388 . S
C699 C700 1.390 . S
C700 C699 1.390 . S
C700 C701 1.394 . S
C700 C706 1.465 . S
C701 C696 1.399 1_556 S
C701 C700 1.394 . S
C701 C702 1.516 . S
C702 C701 1.516 . S
C702 C703 1.502 . S
C702 C704 1.561 1_556 S
C702 C705 1.526 . S
C703 H687 0.959 . S
C703 H688 0.959 . S
C703 H689 0.961 . S
C703 C702 1.502 . S
C704 H690 0.960 . S
C704 H691 0.961 . S
C704 H692 0.959 . S
C704 C702 1.561 1_554 S
C705 C702 1.526 . S
C705 C706 1.396 . S
C705 C710 1.390 . S
C706 C700 1.465 . S
C706 C705 1.396 . S
C706 C707 1.399 . S
C707 H693 0.929 . S
C707 C706 1.399 . S
C707 C708 1.385 . S
C708 H694 0.931 . S
C708 C707 1.385 . S
C708 C709 1.389 . S
C709 C708 1.389 . S
C709 C710 1.387 . S
C710 H695 0.930 . S
C710 C705 1.390 . S
C710 C709 1.387 . S
H711 C723 0.930 . S
H712 C725 0.930 . S
H713 C726 0.930 . S
H714 C730 0.959 . S
H715 C730 0.959 . S
H716 C730 0.961 . S
H717 C731 0.960 . S
H718 C731 0.961 . S
H719 C731 0.959 . S
H720 C734 0.929 . S
H721 C735 0.931 . S
H722 C737 0.930 . S
C723 H711 0.930 . S
C723 C724 1.399 . S
C723 C728 1.399 . S
C724 C723 1.399 . S
C724 C725 1.376 . S
C725 H712 0.930 . S
C725 C724 1.376 . S
C725 C726 1.388 . S
C726 H713 0.930 . S
C726 C725 1.388 . S
C726 C727 1.390 . S
C727 C726 1.390 . S
C727 C728 1.394 . S
C727 C733 1.465 . S
C728 C723 1.399 . S
C728 C727 1.394 . S
C728 C729 1.516 . S
C729 C728 1.516 . S
C729 C730 1.502 . S
C729 C731 1.561 1_556 S
C729 C732 1.526 . S
C730 H714 0.959 . S
C730 H715 0.959 . S
C730 H716 0.961 . S
C730 C729 1.502 . S
C731 H717 0.960 . S
C731 H718 0.961 . S
C731 H719 0.959 . S
C731 C729 1.561 1_554 S
C732 C729 1.526 . S
C732 C733 1.396 . S
C732 C737 1.390 1_556 S
C733 C727 1.465 . S
C733 C732 1.396 . S
C733 C734 1.399 . S
C734 H720 0.929 . S
C734 C733 1.399 . S
C734 C735 1.385 1_556 S
C735 H721 0.931 . S
C735 C734 1.385 1_554 S
C735 C736 1.389 . S
C736 C735 1.389 . S
C736 C737 1.387 . S
C737 H722 0.930 . S
C737 C732 1.390 1_554 S
C737 C736 1.387 . S
H738 C750 0.930 . S
H739 C752 0.930 . S
H740 C753 0.930 . S
H741 C757 0.959 . S
H742 C757 0.959 . S
H743 C757 0.961 . S
H744 C758 0.960 . S
H745 C758 0.961 . S
H746 C758 0.959 . S
H747 C761 0.929 . S
H748 C762 0.931 . S
H749 C764 0.930 . S
C750 H738 0.930 . S
C750 C751 1.399 . S
C750 C755 1.399 . S
C751 C750 1.399 . S
C751 C752 1.376 . S
C752 H739 0.930 . S
C752 C751 1.376 . S
C752 C753 1.388 . S
C753 H740 0.930 . S
C753 C752 1.388 . S
C753 C754 1.390 . S
C754 C753 1.390 . S
C754 C755 1.394 . S
C754 C760 1.465 . S
C755 C750 1.399 . S
C755 C754 1.394 . S
C755 C756 1.516 . S
C756 C755 1.516 . S
C756 C757 1.502 . S
C756 C758 1.561 . S
C756 C759 1.526 . S
C757 H741 0.959 . S
C757 H742 0.959 . S
C757 H743 0.961 . S
C757 C756 1.502 . S
C758 H744 0.960 . S
C758 H745 0.961 . S
C758 H746 0.959 . S
C758 C756 1.561 . S
C759 C756 1.526 . S
C759 C760 1.396 . S
C759 C764 1.390 . S
C760 C754 1.465 . S
C760 C759 1.396 . S
C760 C761 1.399 . S
C761 H747 0.929 . S
C761 C760 1.399 . S
C761 C762 1.385 . S
C762 H748 0.931 . S
C762 C761 1.385 . S
C762 C763 1.389 . S
C763 C762 1.389 . S
C763 C764 1.387 . S
C764 H749 0.930 . S
C764 C759 1.390 . S
C764 C763 1.387 . S
H765 C777 0.930 . S
H766 C779 0.930 . S
H767 C780 0.930 . S
H768 C784 0.959 . S
H769 C784 0.959 . S
H770 C784 0.961 . S
H771 C785 0.960 . S
H772 C785 0.961 . S
H773 C785 0.959 . S
H774 C788 0.929 . S
H775 C789 0.931 . S
H776 C791 0.930 . S
C777 H765 0.930 . S
C777 C778 1.399 . S
C777 C782 1.399 . S
C778 C777 1.399 . S
C778 C779 1.376 . S
C779 H766 0.930 . S
C779 C778 1.376 . S
C779 C780 1.388 . S
C780 H767 0.930 . S
C780 C779 1.388 . S
C780 C781 1.390 . S
C781 C780 1.390 . S
C781 C782 1.394 . S
C781 C787 1.465 . S
C782 C777 1.399 . S
C782 C781 1.394 . S
C782 C783 1.516 . S
C783 C782 1.516 . S
C783 C784 1.502 . S
C783 C785 1.561 . S
C783 C786 1.526 . S
C784 H768 0.959 . S
C784 H769 0.959 . S
C784 H770 0.961 . S
C784 C783 1.502 . S
C785 H771 0.960 . S
C785 H772 0.961 . S
C785 H773 0.959 . S
C785 C783 1.561 . S
C786 C783 1.526 . S
C786 C787 1.396 . S
C786 C791 1.390 . S
C787 C781 1.465 . S
C787 C786 1.396 . S
C787 C788 1.399 . S
C788 H774 0.929 . S
C788 C787 1.399 . S
C788 C789 1.385 . S
C789 H775 0.931 . S
C789 C788 1.385 . S
C789 C790 1.389 . S
C790 C789 1.389 . S
C790 C791 1.387 . S
C791 H776 0.930 . S
C791 C786 1.390 . S
C791 C790 1.387 . S
H792 C804 0.930 . S
H793 C806 0.930 . S
H794 C807 0.930 . S
H795 C811 0.959 . S
H796 C811 0.959 . S
H797 C811 0.961 . S
H798 C812 0.960 . S
H799 C812 0.961 . S
H800 C812 0.959 . S
H801 C815 0.929 . S
H802 C816 0.931 . S
H803 C818 0.930 . S
C804 H792 0.930 . S
C804 C805 1.399 . S
C804 C809 1.399 . S
C805 C804 1.399 . S
C805 C806 1.376 . S
C806 H793 0.930 . S
C806 C805 1.376 . S
C806 C807 1.388 . S
C807 H794 0.930 . S
C807 C806 1.388 . S
C807 C808 1.390 . S
C808 C807 1.390 . S
C808 C809 1.394 . S
C808 C814 1.465 . S
C809 C804 1.399 . S
C809 C808 1.394 . S
C809 C810 1.516 . S
C810 C809 1.516 . S
C810 C811 1.502 . S
C810 C812 1.561 . S
C810 C813 1.526 . S
C811 H795 0.959 . S
C811 H796 0.959 . S
C811 H797 0.961 . S
C811 C810 1.502 . S
C812 H798 0.960 . S
C812 H799 0.961 . S
C812 H800 0.959 . S
C812 C810 1.561 . S
C813 C810 1.526 . S
C813 C814 1.396 . S
C813 C818 1.390 . S
C814 C808 1.465 . S
C814 C813 1.396 . S
C814 C815 1.399 . S
C815 H801 0.929 . S
C815 C814 1.399 . S
C815 C816 1.385 . S
C816 H802 0.931 . S
C816 C815 1.385 . S
C816 C817 1.389 . S
C817 C816 1.389 . S
C817 C818 1.387 . S
C818 H803 0.930 . S
C818 C813 1.390 . S
C818 C817 1.387 . S
H819 C831 0.930 . S
H820 C833 0.930 . S
H821 C834 0.930 . S
H822 C838 0.959 . S
H823 C838 0.959 . S
H824 C838 0.961 . S
H825 C839 0.956 1_554 S
H826 C839 0.965 . S
H827 C839 0.967 . S
H828 C842 0.929 . S
H829 C843 0.931 . S
H830 C845 0.930 . S
C831 H819 0.930 . S
C831 C832 1.399 . S
C831 C836 1.399 . S
C832 C831 1.399 . S
C832 C833 1.376 . S
C833 H820 0.930 . S
C833 C832 1.376 . S
C833 C834 1.388 . S
C834 H821 0.930 . S
C834 C833 1.388 . S
C834 C835 1.390 . S
C835 C834 1.390 . S
C835 C836 1.394 . S
C835 C841 1.465 . S
C836 C831 1.399 . S
C836 C835 1.394 . S
C836 C837 1.516 . S
C837 C836 1.516 . S
C837 C838 1.502 . S
C837 C839 1.553 1_554 S
C837 C840 1.526 . S
C838 H822 0.959 . S
C838 H823 0.959 . S
C838 H824 0.961 . S
C838 C837 1.502 . S
C839 H825 0.956 1_556 S
C839 H826 0.965 . S
C839 H827 0.967 . S
C839 C837 1.553 1_556 S
C840 C837 1.526 . S
C840 C841 1.396 . S
C840 C845 1.390 1_554 S
C841 C835 1.465 . S
C841 C840 1.396 . S
C841 C842 1.399 . S
C842 H828 0.929 . S
C842 C841 1.399 . S
C842 C843 1.385 1_554 S
C843 H829 0.931 . S
C843 C842 1.385 1_556 S
C843 C844 1.389 . S
C844 C843 1.389 . S
C844 C845 1.387 . S
C845 H830 0.930 . S
C845 C840 1.390 1_556 S
C845 C844 1.387 . S
H846 C858 0.930 . S
H847 C860 0.930 . S
H848 C861 0.930 . S
H849 C865 0.959 . S
H850 C865 0.959 . S
H851 C865 0.961 . S
H852 C866 0.960 . S
H853 C866 0.961 . S
H854 C866 0.959 . S
H855 C869 0.929 . S
H856 C870 0.931 . S
H857 C872 0.930 . S
C858 H846 0.930 . S
C858 C859 1.399 1_554 S
C858 C863 1.399 . S
C859 C858 1.399 1_556 S
C859 C860 1.376 . S
C860 H847 0.930 . S
C860 C859 1.376 . S
C860 C861 1.388 . S
C861 H848 0.930 . S
C861 C860 1.388 . S
C861 C862 1.390 1_556 S
C862 C861 1.390 1_554 S
C862 C863 1.394 . S
C862 C868 1.465 . S
C863 C858 1.399 . S
C863 C862 1.394 . S
C863 C864 1.516 . S
C864 C863 1.516 . S
C864 C865 1.502 . S
C864 C866 1.561 . S
C864 C867 1.526 . S
C865 H849 0.959 . S
C865 H850 0.959 . S
C865 H851 0.961 . S
C865 C864 1.502 . S
C866 H852 0.960 . S
C866 H853 0.961 . S
C866 H854 0.959 . S
C866 C864 1.561 . S
C867 C864 1.526 . S
C867 C868 1.396 . S
C867 C872 1.390 . S
C868 C862 1.465 . S
C868 C867 1.396 . S
C868 C869 1.399 . S
C869 H855 0.929 . S
C869 C868 1.399 . S
C869 C870 1.385 . S
C870 H856 0.931 . S
C870 C869 1.385 . S
C870 C871 1.389 . S
C871 C870 1.389 . S
C871 C872 1.387 . S
C872 H857 0.930 . S
C872 C867 1.390 . S
C872 C871 1.387 . S
H873 C885 0.930 . S
H874 C887 0.930 . S
H875 C888 0.930 . S
H876 C892 0.959 . S
H877 C892 0.959 . S
H878 C892 0.961 . S
H879 C893 0.960 . S
H880 C893 0.961 . S
H881 C893 0.959 . S
H882 C896 0.929 . S
H883 C897 0.931 . S
H884 C899 0.930 . S
C885 H873 0.930 . S
C885 C886 1.399 1_554 S
C885 C890 1.399 . S
C886 C885 1.399 1_556 S
C886 C887 1.376 . S
C887 H874 0.930 . S
C887 C886 1.376 . S
C887 C888 1.388 1_556 S
C888 H875 0.930 . S
C888 C887 1.388 1_554 S
C888 C889 1.390 . S
C889 C888 1.390 . S
C889 C890 1.394 . S
C889 C895 1.465 . S
C890 C885 1.399 . S
C890 C889 1.394 . S
C890 C891 1.516 . S
C891 C890 1.516 . S
C891 C892 1.502 . S
C891 C893 1.561 . S
C891 C894 1.526 . S
C892 H876 0.959 . S
C892 H877 0.959 . S
C892 H878 0.961 . S
C892 C891 1.502 . S
C893 H879 0.960 . S
C893 H880 0.961 . S
C893 H881 0.959 . S
C893 C891 1.561 . S
C894 C891 1.526 . S
C894 C895 1.396 . S
C894 C899 1.390 . S
C895 C889 1.465 . S
C895 C894 1.396 . S
C895 C896 1.399 . S
C896 H882 0.929 . S
C896 C895 1.399 . S
C896 C897 1.385 . S
C897 H883 0.931 . S
C897 C896 1.385 . S
C897 C898 1.389 . S
C898 C897 1.389 . S
C898 C899 1.387 . S
C899 H884 0.930 . S
C899 C894 1.390 . S
C899 C898 1.387 . S
H900 C912 0.930 . S
H901 C914 0.930 . S
H902 C915 0.930 . S
H903 C919 0.959 1_554 S
H904 C919 0.959 1_554 S
H905 C919 0.961 . S
H906 C920 0.960 . S
H907 C920 0.961 . S
H908 C920 0.959 . S
H909 C923 0.929 . S
H910 C924 0.931 . S
H911 C926 0.930 1_554 S
C912 H900 0.930 . S
C912 C913 1.399 . S
C912 C917 1.399 . S
C913 C912 1.399 . S
C913 C914 1.376 . S
C914 H901 0.930 . S
C914 C913 1.376 . S
C914 C915 1.388 . S
C915 H902 0.930 . S
C915 C914 1.388 . S
C915 C916 1.390 . S
C916 C915 1.390 . S
C916 C917 1.394 . S
C916 C922 1.465 . S
C917 C912 1.399 . S
C917 C916 1.394 . S
C917 C918 1.516 . S
C918 C917 1.516 . S
C918 C919 1.502 . S
C918 C920 1.561 . S
C918 C921 1.526 . S
C919 H903 0.959 1_556 S
C919 H904 0.959 1_556 S
C919 H905 0.961 . S
C919 C918 1.502 . S
C920 H906 0.960 . S
C920 H907 0.961 . S
C920 H908 0.959 . S
C920 C918 1.561 . S
C921 C918 1.526 . S
C921 C922 1.396 . S
C921 C926 1.390 . S
C922 C916 1.465 . S
C922 C921 1.396 . S
C922 C923 1.399 . S
C923 H909 0.929 . S
C923 C922 1.399 . S
C923 C924 1.385 . S
C924 H910 0.931 . S
C924 C923 1.385 . S
C924 C925 1.389 . S
C925 C924 1.389 . S
C925 C926 1.387 . S
C926 H911 0.930 1_556 S
C926 C921 1.390 . S
C926 C925 1.387 . S
H927 C939 0.930 1_554 S
H928 C941 0.930 . S
H929 C942 0.930 . S
H930 C946 0.959 1_556 S
H931 C946 0.959 . S
H932 C946 0.961 . S
H933 C947 0.960 . S
H934 C947 0.961 . S
H935 C947 0.959 . S
H936 C950 0.929 . S
H937 C951 0.931 . S
H938 C953 0.930 . S
C939 H927 0.930 1_556 S
C939 C940 1.399 . S
C939 C944 1.399 . S
C940 C939 1.399 . S
C940 C941 1.376 . S
C941 H928 0.930 . S
C941 C940 1.376 . S
C941 C942 1.388 . S
C942 H929 0.930 . S
C942 C941 1.388 . S
C942 C943 1.390 . S
C943 C942 1.390 . S
C943 C944 1.394 . S
C943 C949 1.465 . S
C944 C939 1.399 . S
C944 C943 1.394 . S
C944 C945 1.516 . S
C945 C944 1.516 . S
C945 C946 1.502 1_556 S
C945 C947 1.561 . S
C945 C948 1.526 . S
C946 H930 0.959 1_554 S
C946 H931 0.959 . S
C946 H932 0.961 . S
C946 C945 1.502 1_554 S
C947 H933 0.960 . S
C947 H934 0.961 . S
C947 H935 0.959 . S
C947 C945 1.561 . S
C948 C945 1.526 . S
C948 C949 1.396 . S
C948 C953 1.390 . S
C949 C943 1.465 . S
C949 C948 1.396 . S
C949 C950 1.399 . S
C950 H936 0.929 . S
C950 C949 1.399 . S
C950 C951 1.385 . S
C951 H937 0.931 . S
C951 C950 1.385 . S
C951 C952 1.389 . S
C952 C951 1.389 . S
C952 C953 1.387 . S
C953 H938 0.930 . S
C953 C948 1.390 . S
C953 C952 1.387 . S
H954 C966 0.930 1_554 S
H955 C968 0.930 . S
H956 C969 0.930 . S
H957 C973 0.959 1_556 S
H958 C973 0.959 . S
H959 C973 0.961 . S
H960 C974 0.960 . S
H961 C974 0.961 . S
H962 C974 0.959 . S
H963 C977 0.929 . S
H964 C978 0.931 . S
H965 C980 0.930 . S
C966 H954 0.930 1_556 S
C966 C967 1.399 . S
C966 C971 1.399 . S
C967 C966 1.399 . S
C967 C968 1.376 . S
C968 H955 0.930 . S
C968 C967 1.376 . S
C968 C969 1.388 . S
C969 H956 0.930 . S
C969 C968 1.388 . S
C969 C970 1.390 . S
C970 C969 1.390 . S
C970 C971 1.394 . S
C970 C976 1.465 . S
C971 C966 1.399 . S
C971 C970 1.394 . S
C971 C972 1.516 . S
C972 C971 1.516 . S
C972 C973 1.502 1_556 S
C972 C974 1.561 . S
C972 C975 1.526 . S
C973 H957 0.959 1_554 S
C973 H958 0.959 . S
C973 H959 0.961 . S
C973 C972 1.502 1_554 S
C974 H960 0.960 . S
C974 H961 0.961 . S
C974 H962 0.959 . S
C974 C972 1.561 . S
C975 C972 1.526 . S
C975 C976 1.396 . S
C975 C980 1.390 . S
C976 C970 1.465 . S
C976 C975 1.396 . S
C976 C977 1.399 . S
C977 H963 0.929 . S
C977 C976 1.399 . S
C977 C978 1.385 . S
C978 H964 0.931 . S
C978 C977 1.385 . S
C978 C979 1.389 . S
C979 C978 1.389 . S
C979 C980 1.387 . S
C980 H965 0.930 . S
C980 C975 1.390 . S
C980 C979 1.387 . S
H981 C993 0.930 . S
H982 C995 0.930 . S
H983 C996 0.930 . S
H984 C1000 0.959 . S
H985 C1000 0.959 . S
H986 C1000 0.961 . S
H987 C1001 0.960 . S
H988 C1001 0.961 . S
H989 C1001 0.959 . S
H990 C1004 0.929 . S
H991 C1005 0.931 . S
H992 C1007 0.930 . S
C993 H981 0.930 . S
C993 C994 1.399 . S
C993 C998 1.399 . S
C994 C993 1.399 . S
C994 C995 1.376 . S
C995 H982 0.930 . S
C995 C994 1.376 . S
C995 C996 1.388 . S
C996 H983 0.930 . S
C996 C995 1.388 . S
C996 C997 1.390 . S
C997 C996 1.390 . S
C997 C998 1.394 . S
C997 C1003 1.465 . S
C998 C993 1.399 . S
C998 C997 1.394 . S
C998 C999 1.516 . S
C999 C998 1.516 . S
C999 C1000 1.502 . S
C999 C1001 1.561 . S
C999 C1002 1.526 . S
C1000 H984 0.959 . S
C1000 H985 0.959 . S
C1000 H986 0.961 . S
C1000 C999 1.502 . S
C1001 H987 0.960 . S
C1001 H988 0.961 . S
C1001 H989 0.959 . S
C1001 C999 1.561 . S
C1002 C999 1.526 . S
C1002 C1003 1.396 . S
C1002 C1007 1.390 . S
C1003 C997 1.465 . S
C1003 C1002 1.396 . S
C1003 C1004 1.399 . S
C1004 H990 0.929 . S
C1004 C1003 1.399 . S
C1004 C1005 1.385 . S
C1005 H991 0.931 . S
C1005 C1004 1.385 . S
C1005 C1006 1.389 . S
C1006 C1005 1.389 . S
C1006 C1007 1.387 . S
C1007 H992 0.930 . S
C1007 C1002 1.390 . S
C1007 C1006 1.387 . S
H1008 C1020 0.930 . S
H1009 C1022 0.930 . S
H1010 C1023 0.930 . S
H1011 C1027 0.959 . S
H1012 C1027 0.959 . S
H1013 C1027 0.961 . S
H1014 C1028 0.960 . S
H1015 C1028 0.961 . S
H1016 C1028 0.959 . S
H1017 C1031 0.929 . S
H1018 C1032 0.931 . S
H1019 C1034 0.930 . S
C1020 H1008 0.930 . S
C1020 C1021 1.399 . S
C1020 C1025 1.399 . S
C1021 C1020 1.399 . S
C1021 C1022 1.376 . S
C1022 H1009 0.930 . S
C1022 C1021 1.376 . S
C1022 C1023 1.388 . S
C1023 H1010 0.930 . S
C1023 C1022 1.388 . S
C1023 C1024 1.390 . S
C1024 C1023 1.390 . S
C1024 C1025 1.394 . S
C1024 C1030 1.465 . S
C1025 C1020 1.399 . S
C1025 C1024 1.394 . S
C1025 C1026 1.516 . S
C1026 C1025 1.516 . S
C1026 C1027 1.502 . S
C1026 C1028 1.561 . S
C1026 C1029 1.526 . S
C1027 H1011 0.959 . S
C1027 H1012 0.959 . S
C1027 H1013 0.961 . S
C1027 C1026 1.502 . S
C1028 H1014 0.960 . S
C1028 H1015 0.961 . S
C1028 H1016 0.959 . S
C1028 C1026 1.561 . S
C1029 C1026 1.526 . S
C1029 C1030 1.396 . S
C1029 C1034 1.390 . S
C1030 C1024 1.465 . S
C1030 C1029 1.396 . S
C1030 C1031 1.399 . S
C1031 H1017 0.929 . S
C1031 C1030 1.399 . S
C1031 C1032 1.385 . S
C1032 H1018 0.931 . S
C1032 C1031 1.385 . S
C1032 C1033 1.389 . S
C1033 C1032 1.389 . S
C1033 C1034 1.387 . S
C1034 H1019 0.930 . S
C1034 C1029 1.390 . S
C1034 C1033 1.387 . S
H1035 C1047 0.930 . S
H1036 C1049 0.930 . S
H1037 C1050 0.930 . S
H1038 C1054 0.959 . S
H1039 C1054 0.959 . S
H1040 C1054 0.961 . S
H1041 C1055 0.960 . S
H1042 C1055 0.961 . S
H1043 C1055 0.959 . S
H1044 C1058 0.929 . S
H1045 C1059 0.931 . S
H1046 C1061 0.930 . S
C1047 H1035 0.930 . S
C1047 C1048 1.399 . S
C1047 C1052 1.399 . S
C1048 C1047 1.399 . S
C1048 C1049 1.376 . S
C1049 H1036 0.930 . S
C1049 C1048 1.376 . S
C1049 C1050 1.388 . S
C1050 H1037 0.930 . S
C1050 C1049 1.388 . S
C1050 C1051 1.390 . S
C1051 C1050 1.390 . S
C1051 C1052 1.394 . S
C1051 C1057 1.465 . S
C1052 C1047 1.399 . S
C1052 C1051 1.394 . S
C1052 C1053 1.516 . S
C1053 C1052 1.516 . S
C1053 C1054 1.502 . S
C1053 C1055 1.561 . S
C1053 C1056 1.526 . S
C1054 H1038 0.959 . S
C1054 H1039 0.959 . S
C1054 H1040 0.961 . S
C1054 C1053 1.502 . S
C1055 H1041 0.960 . S
C1055 H1042 0.961 . S
C1055 H1043 0.959 . S
C1055 C1053 1.561 . S
C1056 C1053 1.526 . S
C1056 C1057 1.396 . S
C1056 C1061 1.390 . S
C1057 C1051 1.465 . S
C1057 C1056 1.396 . S
C1057 C1058 1.399 . S
C1058 H1044 0.929 . S
C1058 C1057 1.399 . S
C1058 C1059 1.385 . S
C1059 H1045 0.931 . S
C1059 C1058 1.385 . S
C1059 C1060 1.389 . S
C1060 C1059 1.389 . S
C1060 C1061 1.387 . S
C1061 H1046 0.930 . S
C1061 C1056 1.390 . S
C1061 C1060 1.387 . S
H1062 C1074 0.930 . S
H1063 C1076 0.930 . S
H1064 C1077 0.930 . S
H1065 C1081 0.959 . S
H1066 C1081 0.959 . S
H1067 C1081 0.961 . S
H1068 C1082 0.960 . S
H1069 C1082 0.961 . S
H1070 C1082 0.959 . S
H1071 C1085 0.929 . S
H1072 C1086 0.931 . S
H1073 C1088 0.930 . S
C1074 H1062 0.930 . S
C1074 C1075 1.399 . S
C1074 C1079 1.399 . S
C1075 C1074 1.399 . S
C1075 C1076 1.376 . S
C1076 H1063 0.930 . S
C1076 C1075 1.376 . S
C1076 C1077 1.388 . S
C1077 H1064 0.930 . S
C1077 C1076 1.388 . S
C1077 C1078 1.390 . S
C1078 C1077 1.390 . S
C1078 C1079 1.394 . S
C1078 C1084 1.465 . S
C1079 C1074 1.399 . S
C1079 C1078 1.394 . S
C1079 C1080 1.516 . S
C1080 C1079 1.516 . S
C1080 C1081 1.502 . S
C1080 C1082 1.561 . S
C1080 C1083 1.526 . S
C1081 H1065 0.959 . S
C1081 H1066 0.959 . S
C1081 H1067 0.961 . S
C1081 C1080 1.502 . S
C1082 H1068 0.960 . S
C1082 H1069 0.961 . S
C1082 H1070 0.959 . S
C1082 C1080 1.561 . S
C1083 C1080 1.526 . S
C1083 C1084 1.396 . S
C1083 C1088 1.390 . S
C1084 C1078 1.465 . S
C1084 C1083 1.396 . S
C1084 C1085 1.399 . S
C1085 H1071 0.929 . S
C1085 C1084 1.399 . S
C1085 C1086 1.385 . S
C1086 H1072 0.931 . S
C1086 C1085 1.385 . S
C1086 C1087 1.389 . S
C1087 C1086 1.389 . S
C1087 C1088 1.387 . S
C1088 H1073 0.930 . S
C1088 C1083 1.390 . S
C1088 C1087 1.387 . S
H1089 C1101 0.930 . S
H1090 C1103 0.930 . S
H1091 C1104 0.930 . S
H1092 C1108 0.959 . S
H1093 C1108 0.959 . S
H1094 C1108 0.961 . S
H1095 C1109 0.960 . S
H1096 C1109 0.961 . S
H1097 C1109 0.959 . S
H1098 C1112 0.929 . S
H1099 C1113 0.931 . S
H1100 C1115 0.930 . S
C1101 H1089 0.930 . S
C1101 C1102 1.399 . S
C1101 C1106 1.399 . S
C1102 C1101 1.399 . S
C1102 C1103 1.376 . S
C1103 H1090 0.930 . S
C1103 C1102 1.376 . S
C1103 C1104 1.388 . S
C1104 H1091 0.930 . S
C1104 C1103 1.388 . S
C1104 C1105 1.390 . S
C1105 C1104 1.390 . S
C1105 C1106 1.394 . S
C1105 C1111 1.465 . S
C1106 C1101 1.399 . S
C1106 C1105 1.394 . S
C1106 C1107 1.516 . S
C1107 C1106 1.516 . S
C1107 C1108 1.502 . S
C1107 C1109 1.561 . S
C1107 C1110 1.526 . S
C1108 H1092 0.959 . S
C1108 H1093 0.959 . S
C1108 H1094 0.961 . S
C1108 C1107 1.502 . S
C1109 H1095 0.960 . S
C1109 H1096 0.961 . S
C1109 H1097 0.959 . S
C1109 C1107 1.561 . S
C1110 C1107 1.526 . S
C1110 C1111 1.396 . S
C1110 C1115 1.390 . S
C1111 C1105 1.465 . S
C1111 C1110 1.396 . S
C1111 C1112 1.399 . S
C1112 H1098 0.929 . S
C1112 C1111 1.399 . S
C1112 C1113 1.385 . S
C1113 H1099 0.931 . S
C1113 C1112 1.385 . S
C1113 C1114 1.389 . S
C1114 C1113 1.389 . S
C1114 C1115 1.387 . S
C1115 H1100 0.930 . S
C1115 C1110 1.390 . S
C1115 C1114 1.387 . S
H1116 C1128 0.930 . S
H1117 C1130 0.930 . S
H1118 C1131 0.930 . S
H1119 C1135 0.959 . S
H1120 C1135 0.959 . S
H1121 C1135 0.961 . S
H1122 C1136 0.960 . S
H1123 C1136 0.961 . S
H1124 C1136 0.959 . S
H1125 C1139 0.929 . S
H1126 C1140 0.931 . S
H1127 C1142 0.930 . S
C1128 H1116 0.930 . S
C1128 C1129 1.399 . S
C1128 C1133 1.399 . S
C1129 C1128 1.399 . S
C1129 C1130 1.376 . S
C1130 H1117 0.930 . S
C1130 C1129 1.376 . S
C1130 C1131 1.388 . S
C1131 H1118 0.930 . S
C1131 C1130 1.388 . S
C1131 C1132 1.390 . S
C1132 C1131 1.390 . S
C1132 C1133 1.394 . S
C1132 C1138 1.465 . S
C1133 C1128 1.399 . S
C1133 C1132 1.394 . S
C1133 C1134 1.516 . S
C1134 C1133 1.516 . S
C1134 C1135 1.502 . S
C1134 C1136 1.561 . S
C1134 C1137 1.526 . S
C1135 H1119 0.959 . S
C1135 H1120 0.959 . S
C1135 H1121 0.961 . S
C1135 C1134 1.502 . S
C1136 H1122 0.960 . S
C1136 H1123 0.961 . S
C1136 H1124 0.959 . S
C1136 C1134 1.561 . S
C1137 C1134 1.526 . S
C1137 C1138 1.396 . S
C1137 C1142 1.390 . S
C1138 C1132 1.465 . S
C1138 C1137 1.396 . S
C1138 C1139 1.399 . S
C1139 H1125 0.929 . S
C1139 C1138 1.399 . S
C1139 C1140 1.385 . S
C1140 H1126 0.931 . S
C1140 C1139 1.385 . S
C1140 C1141 1.389 . S
C1141 C1140 1.389 . S
C1141 C1142 1.387 . S
C1142 H1127 0.930 . S
C1142 C1137 1.390 . S
C1142 C1141 1.387 . S
H1143 C1155 0.930 . S
H1144 C1157 0.930 . S
H1145 C1158 0.930 . S
H1146 C1162 0.959 . S
H1147 C1162 0.959 . S
H1148 C1162 0.961 . S
H1149 C1163 0.960 . S
H1150 C1163 0.961 . S
H1151 C1163 0.959 . S
H1152 C1166 0.929 . S
H1153 C1167 0.931 . S
H1154 C1169 0.930 . S
C1155 H1143 0.930 . S
C1155 C1156 1.399 . S
C1155 C1160 1.399 . S
C1156 C1155 1.399 . S
C1156 C1157 1.376 . S
C1157 H1144 0.930 . S
C1157 C1156 1.376 . S
C1157 C1158 1.388 . S
C1158 H1145 0.930 . S
C1158 C1157 1.388 . S
C1158 C1159 1.390 . S
C1159 C1158 1.390 . S
C1159 C1160 1.394 . S
C1159 C1165 1.465 . S
C1160 C1155 1.399 . S
C1160 C1159 1.394 . S
C1160 C1161 1.516 . S
C1161 C1160 1.516 . S
C1161 C1162 1.502 . S
C1161 C1163 1.561 . S
C1161 C1164 1.526 . S
C1162 H1146 0.959 . S
C1162 H1147 0.959 . S
C1162 H1148 0.961 . S
C1162 C1161 1.502 . S
C1163 H1149 0.960 . S
C1163 H1150 0.961 . S
C1163 H1151 0.959 . S
C1163 C1161 1.561 . S
C1164 C1161 1.526 . S
C1164 C1165 1.396 . S
C1164 C1169 1.390 . S
C1165 C1159 1.465 . S
C1165 C1164 1.396 . S
C1165 C1166 1.399 . S
C1166 H1152 0.929 . S
C1166 C1165 1.399 . S
C1166 C1167 1.385 . S
C1167 H1153 0.931 . S
C1167 C1166 1.385 . S
C1167 C1168 1.389 . S
C1168 C1167 1.389 . S
C1168 C1169 1.387 . S
C1169 H1154 0.930 . S
C1169 C1164 1.390 . S
C1169 C1168 1.387 . S
H1170 C1182 0.930 . S
H1171 C1184 0.930 . S
H1172 C1185 0.930 . S
H1173 C1189 0.959 . S
H1174 C1189 0.959 . S
H1175 C1189 0.961 . S
H1176 C1190 0.960 . S
H1177 C1190 0.961 . S
H1178 C1190 0.959 . S
H1179 C1193 0.929 . S
H1180 C1194 0.931 . S
H1181 C1196 0.930 . S
C1182 H1170 0.930 . S
C1182 C1183 1.399 . S
C1182 C1187 1.399 . S
C1183 C1182 1.399 . S
C1183 C1184 1.376 . S
C1184 H1171 0.930 . S
C1184 C1183 1.376 . S
C1184 C1185 1.388 . S
C1185 H1172 0.930 . S
C1185 C1184 1.388 . S
C1185 C1186 1.390 . S
C1186 C1185 1.390 . S
C1186 C1187 1.394 . S
C1186 C1192 1.465 . S
C1187 C1182 1.399 . S
C1187 C1186 1.394 . S
C1187 C1188 1.516 . S
C1188 C1187 1.516 . S
C1188 C1189 1.502 . S
C1188 C1190 1.561 . S
C1188 C1191 1.526 . S
C1189 H1173 0.959 . S
C1189 H1174 0.959 . S
C1189 H1175 0.961 . S
C1189 C1188 1.502 . S
C1190 H1176 0.960 . S
C1190 H1177 0.961 . S
C1190 H1178 0.959 . S
C1190 C1188 1.561 . S
C1191 C1188 1.526 . S
C1191 C1192 1.396 . S
C1191 C1196 1.390 . S
C1192 C1186 1.465 . S
C1192 C1191 1.396 . S
C1192 C1193 1.399 . S
C1193 H1179 0.929 . S
C1193 C1192 1.399 . S
C1193 C1194 1.385 . S
C1194 H1180 0.931 . S
C1194 C1193 1.385 . S
C1194 C1195 1.389 . S
C1195 C1194 1.389 . S
C1195 C1196 1.387 . S
C1196 H1181 0.930 . S
C1196 C1191 1.390 . S
C1196 C1195 1.387 . S
H1197 C1209 0.930 . S
H1198 C1211 0.930 . S
H1199 C1212 0.930 . S
H1200 C1216 0.959 . S
H1201 C1216 0.959 . S
H1202 C1216 0.961 . S
H1203 C1217 0.960 . S
H1204 C1217 0.961 . S
H1205 C1217 0.959 . S
H1206 C1220 0.929 . S
H1207 C1221 0.931 . S
H1208 C1223 0.930 . S
C1209 H1197 0.930 . S
C1209 C1210 1.399 . S
C1209 C1214 1.399 . S
C1210 C1209 1.399 . S
C1210 C1211 1.376 . S
C1211 H1198 0.930 . S
C1211 C1210 1.376 . S
C1211 C1212 1.388 . S
C1212 H1199 0.930 . S
C1212 C1211 1.388 . S
C1212 C1213 1.390 . S
C1213 C1212 1.390 . S
C1213 C1214 1.394 . S
C1213 C1219 1.465 . S
C1214 C1209 1.399 . S
C1214 C1213 1.394 . S
C1214 C1215 1.516 . S
C1215 C1214 1.516 . S
C1215 C1216 1.502 . S
C1215 C1217 1.561 . S
C1215 C1218 1.526 . S
C1216 H1200 0.959 . S
C1216 H1201 0.959 . S
C1216 H1202 0.961 . S
C1216 C1215 1.502 . S
C1217 H1203 0.960 . S
C1217 H1204 0.961 . S
C1217 H1205 0.959 . S
C1217 C1215 1.561 . S
C1218 C1215 1.526 . S
C1218 C1219 1.396 . S
C1218 C1223 1.390 . S
C1219 C1213 1.465 . S
C1219 C1218 1.396 . S
C1219 C1220 1.399 . S
C1220 H1206 0.929 . S
C1220 C1219 1.399 . S
C1220 C1221 1.385 . S
C1221 H1207 0.931 . S
C1221 C1220 1.385 . S
C1221 C1222 1.389 . S
C1222 C1221 1.389 . S
C1222 C1223 1.387 . S
C1223 H1208 0.930 . S
C1223 C1218 1.390 . S
C1223 C1222 1.387 . S
H1224 C1236 0.930 . S
H1225 C1238 0.930 . S
H1226 C1239 0.930 . S
H1227 C1243 0.959 . S
H1228 C1243 0.959 . S
H1229 C1243 0.961 . S
H1230 C1244 0.960 . S
H1231 C1244 0.961 . S
H1232 C1244 0.959 . S
H1233 C1247 0.929 . S
H1234 C1248 0.931 . S
H1235 C1250 0.930 . S
C1236 H1224 0.930 . S
C1236 C1237 1.399 . S
C1236 C1241 1.399 . S
C1237 C1236 1.399 . S
C1237 C1238 1.376 . S
C1238 H1225 0.930 . S
C1238 C1237 1.376 . S
C1238 C1239 1.388 . S
C1239 H1226 0.930 . S
C1239 C1238 1.388 . S
C1239 C1240 1.390 . S
C1240 C1239 1.390 . S
C1240 C1241 1.394 . S
C1240 C1246 1.465 . S
C1241 C1236 1.399 . S
C1241 C1240 1.394 . S
C1241 C1242 1.516 . S
C1242 C1241 1.516 . S
C1242 C1243 1.502 . S
C1242 C1244 1.561 . S
C1242 C1245 1.526 . S
C1243 H1227 0.959 . S
C1243 H1228 0.959 . S
C1243 H1229 0.961 . S
C1243 C1242 1.502 . S
C1244 H1230 0.960 . S
C1244 H1231 0.961 . S
C1244 H1232 0.959 . S
C1244 C1242 1.561 . S
C1245 C1242 1.526 . S
C1245 C1246 1.396 . S
C1245 C1250 1.390 . S
C1246 C1240 1.465 . S
C1246 C1245 1.396 . S
C1246 C1247 1.399 . S
C1247 H1233 0.929 . S
C1247 C1246 1.399 . S
C1247 C1248 1.385 . S
C1248 H1234 0.931 . S
C1248 C1247 1.385 . S
C1248 C1249 1.389 . S
C1249 C1248 1.389 . S
C1249 C1250 1.387 . S
C1250 H1235 0.930 . S
C1250 C1245 1.390 . S
C1250 C1249 1.387 . S
H1251 C1263 0.930 . S
H1252 C1265 0.930 . S
H1253 C1266 0.930 . S
H1254 C1270 0.959 . S
H1255 C1270 0.959 . S
H1256 C1270 0.961 . S
H1257 C1271 0.960 . S
H1258 C1271 0.961 . S
H1259 C1271 0.959 . S
H1260 C1274 0.929 . S
H1261 C1275 0.931 . S
H1262 C1277 0.930 . S
C1263 H1251 0.930 . S
C1263 C1264 1.399 . S
C1263 C1268 1.399 . S
C1264 C1263 1.399 . S
C1264 C1265 1.376 . S
C1265 H1252 0.930 . S
C1265 C1264 1.376 . S
C1265 C1266 1.388 . S
C1266 H1253 0.930 . S
C1266 C1265 1.388 . S
C1266 C1267 1.390 . S
C1267 C1266 1.390 . S
C1267 C1268 1.394 . S
C1267 C1273 1.465 . S
C1268 C1263 1.399 . S
C1268 C1267 1.394 . S
C1268 C1269 1.516 . S
C1269 C1268 1.516 . S
C1269 C1270 1.502 . S
C1269 C1271 1.561 . S
C1269 C1272 1.526 . S
C1270 H1254 0.959 . S
C1270 H1255 0.959 . S
C1270 H1256 0.961 . S
C1270 C1269 1.502 . S
C1271 H1257 0.960 . S
C1271 H1258 0.961 . S
C1271 H1259 0.959 . S
C1271 C1269 1.561 . S
C1272 C1269 1.526 . S
C1272 C1273 1.396 . S
C1272 C1277 1.390 . S
C1273 C1267 1.465 . S
C1273 C1272 1.396 . S
C1273 C1274 1.399 . S
C1274 H1260 0.929 . S
C1274 C1273 1.399 . S
C1274 C1275 1.385 . S
C1275 H1261 0.931 . S
C1275 C1274 1.385 . S
C1275 C1276 1.389 . S
C1276 C1275 1.389 . S
C1276 C1277 1.387 . S
C1277 H1262 0.930 . S
C1277 C1272 1.390 . S
C1277 C1276 1.387 . S
H1278 C1290 0.930 . S
H1279 C1292 0.930 . S
H1280 C1293 0.930 . S
H1281 C1297 0.959 . S
H1282 C1297 0.959 . S
H1283 C1297 0.961 . S
H1284 C1298 0.960 . S
H1285 C1298 0.961 . S
H1286 C1298 0.959 . S
H1287 C1301 0.929 . S
H1288 C1302 0.931 . S
H1289 C1304 0.930 . S
C1290 H1278 0.930 . S
C1290 C1291 1.399 . S
C1290 C1295 1.399 . S
C1291 C1290 1.399 . S
C1291 C1292 1.376 . S
C1292 H1279 0.930 . S
C1292 C1291 1.376 . S
C1292 C1293 1.388 . S
C1293 H1280 0.930 . S
C1293 C1292 1.388 . S
C1293 C1294 1.390 . S
C1294 C1293 1.390 . S
C1294 C1295 1.394 . S
C1294 C1300 1.465 . S
C1295 C1290 1.399 . S
C1295 C1294 1.394 . S
C1295 C1296 1.516 . S
C1296 C1295 1.516 . S
C1296 C1297 1.502 . S
C1296 C1298 1.561 . S
C1296 C1299 1.526 . S
C1297 H1281 0.959 . S
C1297 H1282 0.959 . S
C1297 H1283 0.961 . S
C1297 C1296 1.502 . S
C1298 H1284 0.960 . S
C1298 H1285 0.961 . S
C1298 H1286 0.959 . S
C1298 C1296 1.561 . S
C1299 C1296 1.526 . S
C1299 C1300 1.396 . S
C1299 C1304 1.390 . S
C1300 C1294 1.465 . S
C1300 C1299 1.396 . S
C1300 C1301 1.399 . S
C1301 H1287 0.929 . S
C1301 C1300 1.399 . S
C1301 C1302 1.385 . S
C1302 H1288 0.931 . S
C1302 C1301 1.385 . S
C1302 C1303 1.389 . S
C1303 C1302 1.389 . S
C1303 C1304 1.387 . S
C1304 H1289 0.930 . S
C1304 C1299 1.390 . S
C1304 C1303 1.387 . S
H1305 C1317 0.930 . S
H1306 C1319 0.930 . S
H1307 C1320 0.930 . S
H1308 C1324 0.959 . S
H1309 C1324 0.959 . S
H1310 C1324 0.961 . S
H1311 C1325 0.960 . S
H1312 C1325 0.961 . S
H1313 C1325 0.959 . S
H1314 C1328 0.929 . S
H1315 C1329 0.931 . S
H1316 C1331 0.930 . S
C1317 H1305 0.930 . S
C1317 C1318 1.399 . S
C1317 C1322 1.399 . S
C1318 C1317 1.399 . S
C1318 C1319 1.376 . S
C1319 H1306 0.930 . S
C1319 C1318 1.376 . S
C1319 C1320 1.388 . S
C1320 H1307 0.930 . S
C1320 C1319 1.388 . S
C1320 C1321 1.390 . S
C1321 C1320 1.390 . S
C1321 C1322 1.394 . S
C1321 C1327 1.465 . S
C1322 C1317 1.399 . S
C1322 C1321 1.394 . S
C1322 C1323 1.516 . S
C1323 C1322 1.516 . S
C1323 C1324 1.502 . S
C1323 C1325 1.561 . S
C1323 C1326 1.526 . S
C1324 H1308 0.959 . S
C1324 H1309 0.959 . S
C1324 H1310 0.961 . S
C1324 C1323 1.502 . S
C1325 H1311 0.960 . S
C1325 H1312 0.961 . S
C1325 H1313 0.959 . S
C1325 C1323 1.561 . S
C1326 C1323 1.526 . S
C1326 C1327 1.396 . S
C1326 C1331 1.390 . S
C1327 C1321 1.465 . S
C1327 C1326 1.396 . S
C1327 C1328 1.399 . S
C1328 H1314 0.929 . S
C1328 C1327 1.399 . S
C1328 C1329 1.385 . S
C1329 H1315 0.931 . S
C1329 C1328 1.385 . S
C1329 C1330 1.389 . S
C1330 C1329 1.389 . S
C1330 C1331 1.387 . S
C1331 H1316 0.930 . S
C1331 C1326 1.390 . S
C1331 C1330 1.387 . S
H1332 C1344 0.930 . S
H1333 C1346 0.930 . S
H1334 C1347 0.930 . S
H1335 C1351 0.959 . S
H1336 C1351 0.959 . S
H1337 C1351 0.961 . S
H1338 C1352 0.960 . S
H1339 C1352 0.961 . S
H1340 C1352 0.959 . S
H1341 C1355 0.929 . S
H1342 C1356 0.931 . S
H1343 C1358 0.930 . S
C1344 H1332 0.930 . S
C1344 C1345 1.399 . S
C1344 C1349 1.399 . S
C1345 C1344 1.399 . S
C1345 C1346 1.376 . S
C1346 H1333 0.930 . S
C1346 C1345 1.376 . S
C1346 C1347 1.388 . S
C1347 H1334 0.930 . S
C1347 C1346 1.388 . S
C1347 C1348 1.390 . S
C1348 C1347 1.390 . S
C1348 C1349 1.394 . S
C1348 C1354 1.465 . S
C1349 C1344 1.399 . S
C1349 C1348 1.394 . S
C1349 C1350 1.516 . S
C1350 C1349 1.516 . S
C1350 C1351 1.502 . S
C1350 C1352 1.561 . S
C1350 C1353 1.526 . S
C1351 H1335 0.959 . S
C1351 H1336 0.959 . S
C1351 H1337 0.961 . S
C1351 C1350 1.502 . S
C1352 H1338 0.960 . S
C1352 H1339 0.961 . S
C1352 H1340 0.959 . S
C1352 C1350 1.561 . S
C1353 C1350 1.526 . S
C1353 C1354 1.396 . S
C1353 C1358 1.390 . S
C1354 C1348 1.465 . S
C1354 C1353 1.396 . S
C1354 C1355 1.399 . S
C1355 H1341 0.929 . S
C1355 C1354 1.399 . S
C1355 C1356 1.385 . S
C1356 H1342 0.931 . S
C1356 C1355 1.385 . S
C1356 C1357 1.389 . S
C1357 C1356 1.389 . S
C1357 C1358 1.387 . S
C1358 H1343 0.930 . S
C1358 C1353 1.390 . S
C1358 C1357 1.387 . S
H1359 C1371 0.930 . S
H1360 C1373 0.930 . S
H1361 C1374 0.930 . S
H1362 C1378 0.959 . S
H1363 C1378 0.959 . S
H1364 C1378 0.961 . S
H1365 C1379 0.960 . S
H1366 C1379 0.961 . S
H1367 C1379 0.959 . S
H1368 C1382 0.929 . S
H1369 C1383 0.931 . S
H1370 C1385 0.930 . S
C1371 H1359 0.930 . S
C1371 C1372 1.399 . S
C1371 C1376 1.399 . S
C1372 C1371 1.399 . S
C1372 C1373 1.376 . S
C1373 H1360 0.930 . S
C1373 C1372 1.376 . S
C1373 C1374 1.388 . S
C1374 H1361 0.930 . S
C1374 C1373 1.388 . S
C1374 C1375 1.390 . S
C1375 C1374 1.390 . S
C1375 C1376 1.394 . S
C1375 C1381 1.465 . S
C1376 C1371 1.399 . S
C1376 C1375 1.394 . S
C1376 C1377 1.516 . S
C1377 C1376 1.516 . S
C1377 C1378 1.502 . S
C1377 C1379 1.561 . S
C1377 C1380 1.526 . S
C1378 H1362 0.959 . S
C1378 H1363 0.959 . S
C1378 H1364 0.961 . S
C1378 C1377 1.502 . S
C1379 H1365 0.960 . S
C1379 H1366 0.961 . S
C1379 H1367 0.959 . S
C1379 C1377 1.561 . S
C1380 C1377 1.526 . S
C1380 C1381 1.396 . S
C1380 C1385 1.390 . S
C1381 C1375 1.465 . S
C1381 C1380 1.396 . S
C1381 C1382 1.399 . S
C1382 H1368 0.929 . S
C1382 C1381 1.399 . S
C1382 C1383 1.385 . S
C1383 H1369 0.931 . S
C1383 C1382 1.385 . S
C1383 C1384 1.389 . S
C1384 C1383 1.389 . S
C1384 C1385 1.387 . S
C1385 H1370 0.930 . S
C1385 C1380 1.390 . S
C1385 C1384 1.387 . S
H1386 C1398 0.930 . S
H1387 C1400 0.930 . S
H1388 C1401 0.930 . S
H1389 C1405 0.959 . S
H1390 C1405 0.959 . S
H1391 C1405 0.961 . S
H1392 C1406 0.960 . S
H1393 C1406 0.961 . S
H1394 C1406 0.959 . S
H1395 C1409 0.929 . S
H1396 C1410 0.931 . S
H1397 C1412 0.930 1_556 S
C1398 H1386 0.930 . S
C1398 C1399 1.399 . S
C1398 C1403 1.399 . S
C1399 C1398 1.399 . S
C1399 C1400 1.376 . S
C1400 H1387 0.930 . S
C1400 C1399 1.376 . S
C1400 C1401 1.388 . S
C1401 H1388 0.930 . S
C1401 C1400 1.388 . S
C1401 C1402 1.390 . S
C1402 C1401 1.390 . S
C1402 C1403 1.394 . S
C1402 C1408 1.465 . S
C1403 C1398 1.399 . S
C1403 C1402 1.394 . S
C1403 C1404 1.516 . S
C1404 C1403 1.516 . S
C1404 C1405 1.502 1_554 S
C1404 C1406 1.561 . S
C1404 C1407 1.526 . S
C1405 H1389 0.959 . S
C1405 H1390 0.959 . S
C1405 H1391 0.961 . S
C1405 C1404 1.502 1_556 S
C1406 H1392 0.960 . S
C1406 H1393 0.961 . S
C1406 H1394 0.959 . S
C1406 C1404 1.561 . S
C1407 C1404 1.526 . S
C1407 C1408 1.396 . S
C1407 C1412 1.390 . S
C1408 C1402 1.465 . S
C1408 C1407 1.396 . S
C1408 C1409 1.399 . S
C1409 H1395 0.929 . S
C1409 C1408 1.399 . S
C1409 C1410 1.385 . S
C1410 H1396 0.931 . S
C1410 C1409 1.385 . S
C1410 C1411 1.389 . S
C1411 C1410 1.389 . S
C1411 C1412 1.387 . S
C1412 H1397 0.930 1_554 S
C1412 C1407 1.390 . S
C1412 C1411 1.387 . S
H1413 C1425 0.930 . S
H1414 C1427 0.930 . S
H1415 C1428 0.930 . S
H1416 C1432 0.959 . S
H1417 C1432 0.959 . S
H1418 C1432 0.961 . S
H1419 C1433 0.960 . S
H1420 C1433 0.961 . S
H1421 C1433 0.959 . S
H1422 C1436 0.929 1_556 S
H1423 C1437 0.931 . S
H1424 C1439 0.930 . S
C1425 H1413 0.930 . S
C1425 C1426 1.399 . S
C1425 C1430 1.399 . S
C1426 C1425 1.399 . S
C1426 C1427 1.376 . S
C1427 H1414 0.930 . S
C1427 C1426 1.376 . S
C1427 C1428 1.388 . S
C1428 H1415 0.930 . S
C1428 C1427 1.388 . S
C1428 C1429 1.390 . S
C1429 C1428 1.390 . S
C1429 C1430 1.394 . S
C1429 C1435 1.465 . S
C1430 C1425 1.399 . S
C1430 C1429 1.394 . S
C1430 C1431 1.516 . S
C1431 C1430 1.516 . S
C1431 C1432 1.502 . S
C1431 C1433 1.561 . S
C1431 C1434 1.526 . S
C1432 H1416 0.959 . S
C1432 H1417 0.959 . S
C1432 H1418 0.961 . S
C1432 C1431 1.502 . S
C1433 H1419 0.960 . S
C1433 H1420 0.961 . S
C1433 H1421 0.959 . S
C1433 C1431 1.561 . S
C1434 C1431 1.526 . S
C1434 C1435 1.396 . S
C1434 C1439 1.390 . S
C1435 C1429 1.465 . S
C1435 C1434 1.396 . S
C1435 C1436 1.399 . S
C1436 H1422 0.929 1_554 S
C1436 C1435 1.399 . S
C1436 C1437 1.385 1_554 S
C1437 H1423 0.931 . S
C1437 C1436 1.385 1_556 S
C1437 C1438 1.389 1_556 S
C1438 C1437 1.389 1_554 S
C1438 C1439 1.387 . S
C1439 H1424 0.930 . S
C1439 C1434 1.390 . S
C1439 C1438 1.387 . S
H1440 C1452 0.930 . S
H1441 C1454 0.930 . S
H1442 C1455 0.930 . S
H1443 C1459 0.959 1_554 S
H1444 C1459 0.959 . S
H1445 C1459 0.961 . S
H1446 C1460 0.960 . S
H1447 C1460 0.961 1_556 S
H1448 C1460 0.959 . S
H1449 C1463 0.929 . S
H1450 C1464 0.931 . S
H1451 C1466 0.930 1_556 S
C1452 H1440 0.930 . S
C1452 C1453 1.399 . S
C1452 C1457 1.399 . S
C1453 C1452 1.399 . S
C1453 C1454 1.376 . S
C1454 H1441 0.930 . S
C1454 C1453 1.376 . S
C1454 C1455 1.388 . S
C1455 H1442 0.930 . S
C1455 C1454 1.388 . S
C1455 C1456 1.390 . S
C1456 C1455 1.390 . S
C1456 C1457 1.394 . S
C1456 C1462 1.465 . S
C1457 C1452 1.399 . S
C1457 C1456 1.394 . S
C1457 C1458 1.516 . S
C1458 C1457 1.516 . S
C1458 C1459 1.502 1_554 S
C1458 C1460 1.561 . S
C1458 C1461 1.526 . S
C1459 H1443 0.959 1_556 S
C1459 H1444 0.959 . S
C1459 H1445 0.961 . S
C1459 C1458 1.502 1_556 S
C1460 H1446 0.960 . S
C1460 H1447 0.961 1_554 S
C1460 H1448 0.959 . S
C1460 C1458 1.561 . S
C1461 C1458 1.526 . S
C1461 C1462 1.396 . S
C1461 C1466 1.390 . S
C1462 C1456 1.465 . S
C1462 C1461 1.396 . S
C1462 C1463 1.399 . S
C1463 H1449 0.929 . S
C1463 C1462 1.399 . S
C1463 C1464 1.385 . S
C1464 H1450 0.931 . S
C1464 C1463 1.385 . S
C1464 C1465 1.389 . S
C1465 C1464 1.389 . S
C1465 C1466 1.387 . S
C1466 H1451 0.930 1_554 S
C1466 C1461 1.390 . S
C1466 C1465 1.387 . S
H1467 C1479 0.930 . S
H1468 C1481 0.930 . S
H1469 C1482 0.930 . S
H1470 C1486 0.959 . S
H1471 C1486 0.959 . S
H1472 C1486 0.961 . S
H1473 C1487 0.960 . S
H1474 C1487 0.961 . S
H1475 C1487 0.959 . S
H1476 C1490 0.929 . S
H1477 C1491 0.931 . S
H1478 C1493 0.930 . S
C1479 H1467 0.930 . S
C1479 C1480 1.399 . S
C1479 C1484 1.399 . S
C1480 C1479 1.399 . S
C1480 C1481 1.376 . S
C1481 H1468 0.930 . S
C1481 C1480 1.376 . S
C1481 C1482 1.388 . S
C1482 H1469 0.930 . S
C1482 C1481 1.388 . S
C1482 C1483 1.390 . S
C1483 C1482 1.390 . S
C1483 C1484 1.394 . S
C1483 C1489 1.465 . S
C1484 C1479 1.399 . S
C1484 C1483 1.394 . S
C1484 C1485 1.516 . S
C1485 C1484 1.516 . S
C1485 C1486 1.502 . S
C1485 C1487 1.561 . S
C1485 C1488 1.526 . S
C1486 H1470 0.959 . S
C1486 H1471 0.959 . S
C1486 H1472 0.961 . S
C1486 C1485 1.502 . S
C1487 H1473 0.960 . S
C1487 H1474 0.961 . S
C1487 H1475 0.959 . S
C1487 C1485 1.561 . S
C1488 C1485 1.526 . S
C1488 C1489 1.396 . S
C1488 C1493 1.390 . S
C1489 C1483 1.465 . S
C1489 C1488 1.396 . S
C1489 C1490 1.399 . S
C1490 H1476 0.929 . S
C1490 C1489 1.399 . S
C1490 C1491 1.385 . S
C1491 H1477 0.931 . S
C1491 C1490 1.385 . S
C1491 C1492 1.389 . S
C1492 C1491 1.389 . S
C1492 C1493 1.387 . S
C1493 H1478 0.930 . S
C1493 C1488 1.390 . S
C1493 C1492 1.387 . S
H1494 C1506 0.930 . S
H1495 C1508 0.930 . S
H1496 C1509 0.930 . S
H1497 C1513 0.959 . S
H1498 C1513 0.959 . S
H1499 C1513 0.961 . S
H1500 C1514 0.960 . S
H1501 C1514 0.961 . S
H1502 C1514 0.959 . S
H1503 C1517 0.929 . S
H1504 C1518 0.931 . S
H1505 C1520 0.930 . S
C1506 H1494 0.930 . S
C1506 C1507 1.399 . S
C1506 C1511 1.399 . S
C1507 C1506 1.399 . S
C1507 C1508 1.376 . S
C1508 H1495 0.930 . S
C1508 C1507 1.376 . S
C1508 C1509 1.388 . S
C1509 H1496 0.930 . S
C1509 C1508 1.388 . S
C1509 C1510 1.390 . S
C1510 C1509 1.390 . S
C1510 C1511 1.394 . S
C1510 C1516 1.465 . S
C1511 C1506 1.399 . S
C1511 C1510 1.394 . S
C1511 C1512 1.516 . S
C1512 C1511 1.516 . S
C1512 C1513 1.502 . S
C1512 C1514 1.561 . S
C1512 C1515 1.526 . S
C1513 H1497 0.959 . S
C1513 H1498 0.959 . S
C1513 H1499 0.961 . S
C1513 C1512 1.502 . S
C1514 H1500 0.960 . S
C1514 H1501 0.961 . S
C1514 H1502 0.959 . S
C1514 C1512 1.561 . S
C1515 C1512 1.526 . S
C1515 C1516 1.396 . S
C1515 C1520 1.390 . S
C1516 C1510 1.465 . S
C1516 C1515 1.396 . S
C1516 C1517 1.399 . S
C1517 H1503 0.929 . S
C1517 C1516 1.399 . S
C1517 C1518 1.385 . S
C1518 H1504 0.931 . S
C1518 C1517 1.385 . S
C1518 C1519 1.389 . S
C1519 C1518 1.389 . S
C1519 C1520 1.387 . S
C1520 H1505 0.930 . S
C1520 C1515 1.390 . S
C1520 C1519 1.387 . S
H1521 C1533 0.930 . S
H1522 C1535 0.930 . S
H1523 C1536 0.930 . S
H1524 C1540 0.959 . S
H1525 C1540 0.959 . S
H1526 C1540 0.961 . S
H1527 C1541 0.960 . S
H1528 C1541 0.961 . S
H1529 C1541 0.959 . S
H1530 C1544 0.929 . S
H1531 C1545 0.931 . S
H1532 C1547 0.930 . S
C1533 H1521 0.930 . S
C1533 C1534 1.399 . S
C1533 C1538 1.399 . S
C1534 C1533 1.399 . S
C1534 C1535 1.376 . S
C1535 H1522 0.930 . S
C1535 C1534 1.376 . S
C1535 C1536 1.388 . S
C1536 H1523 0.930 . S
C1536 C1535 1.388 . S
C1536 C1537 1.390 . S
C1537 C1536 1.390 . S
C1537 C1538 1.394 . S
C1537 C1543 1.465 . S
C1538 C1533 1.399 . S
C1538 C1537 1.394 . S
C1538 C1539 1.516 . S
C1539 C1538 1.516 . S
C1539 C1540 1.502 . S
C1539 C1541 1.561 . S
C1539 C1542 1.526 . S
C1540 H1524 0.959 . S
C1540 H1525 0.959 . S
C1540 H1526 0.961 . S
C1540 C1539 1.502 . S
C1541 H1527 0.960 . S
C1541 H1528 0.961 . S
C1541 H1529 0.959 . S
C1541 C1539 1.561 . S
C1542 C1539 1.526 . S
C1542 C1543 1.396 . S
C1542 C1547 1.390 . S
C1543 C1537 1.465 . S
C1543 C1542 1.396 . S
C1543 C1544 1.399 . S
C1544 H1530 0.929 . S
C1544 C1543 1.399 . S
C1544 C1545 1.385 . S
C1545 H1531 0.931 . S
C1545 C1544 1.385 . S
C1545 C1546 1.389 . S
C1546 C1545 1.389 . S
C1546 C1547 1.387 . S
C1547 H1532 0.930 . S
C1547 C1542 1.390 . S
C1547 C1546 1.387 . S
H1548 C1560 0.930 . S
H1549 C1562 0.930 . S
H1550 C1563 0.930 . S
H1551 C1567 0.959 . S
H1552 C1567 0.959 . S
H1553 C1567 0.961 . S
H1554 C1568 0.960 . S
H1555 C1568 0.961 . S
H1556 C1568 0.959 . S
H1557 C1571 0.929 . S
H1558 C1572 0.931 . S
H1559 C1574 0.930 . S
C1560 H1548 0.930 . S
C1560 C1561 1.399 . S
C1560 C1565 1.399 . S
C1561 C1560 1.399 . S
C1561 C1562 1.376 . S
C1562 H1549 0.930 . S
C1562 C1561 1.376 . S
C1562 C1563 1.388 . S
C1563 H1550 0.930 . S
C1563 C1562 1.388 . S
C1563 C1564 1.390 . S
C1564 C1563 1.390 . S
C1564 C1565 1.394 . S
C1564 C1570 1.465 . S
C1565 C1560 1.399 . S
C1565 C1564 1.394 . S
C1565 C1566 1.516 . S
C1566 C1565 1.516 . S
C1566 C1567 1.502 . S
C1566 C1568 1.561 . S
C1566 C1569 1.526 . S
C1567 H1551 0.959 . S
C1567 H1552 0.959 . S
C1567 H1553 0.961 . S
C1567 C1566 1.502 . S
C1568 H1554 0.960 . S
C1568 H1555 0.961 . S
C1568 H1556 0.959 . S
C1568 C1566 1.561 . S
C1569 C1566 1.526 . S
C1569 C1570 1.396 . S
C1569 C1574 1.390 . S
C1570 C1564 1.465 . S
C1570 C1569 1.396 . S
C1570 C1571 1.399 . S
C1571 H1557 0.929 . S
C1571 C1570 1.399 . S
C1571 C1572 1.385 . S
C1572 H1558 0.931 . S
C1572 C1571 1.385 . S
C1572 C1573 1.389 . S
C1573 C1572 1.389 . S
C1573 C1574 1.387 . S
C1574 H1559 0.930 . S
C1574 C1569 1.390 . S
C1574 C1573 1.387 . S
H1575 C1587 0.930 . S
H1576 C1589 0.930 . S
H1577 C1590 0.930 . S
H1578 C1594 0.959 . S
H1579 C1594 0.959 . S
H1580 C1594 0.961 . S
H1581 C1595 0.960 . S
H1582 C1595 0.961 . S
H1583 C1595 0.959 . S
H1584 C1598 0.929 . S
H1585 C1599 0.931 . S
H1586 C1601 0.930 . S
C1587 H1575 0.930 . S
C1587 C1588 1.399 . S
C1587 C1592 1.399 . S
C1588 C1587 1.399 . S
C1588 C1589 1.376 . S
C1589 H1576 0.930 . S
C1589 C1588 1.376 . S
C1589 C1590 1.388 . S
C1590 H1577 0.930 . S
C1590 C1589 1.388 . S
C1590 C1591 1.390 . S
C1591 C1590 1.390 . S
C1591 C1592 1.394 . S
C1591 C1597 1.465 . S
C1592 C1587 1.399 . S
C1592 C1591 1.394 . S
C1592 C1593 1.516 . S
C1593 C1592 1.516 . S
C1593 C1594 1.502 . S
C1593 C1595 1.561 . S
C1593 C1596 1.526 . S
C1594 H1578 0.959 . S
C1594 H1579 0.959 . S
C1594 H1580 0.961 . S
C1594 C1593 1.502 . S
C1595 H1581 0.960 . S
C1595 H1582 0.961 . S
C1595 H1583 0.959 . S
C1595 C1593 1.561 . S
C1596 C1593 1.526 . S
C1596 C1597 1.396 . S
C1596 C1601 1.390 . S
C1597 C1591 1.465 . S
C1597 C1596 1.396 . S
C1597 C1598 1.399 . S
C1598 H1584 0.929 . S
C1598 C1597 1.399 . S
C1598 C1599 1.385 . S
C1599 H1585 0.931 . S
C1599 C1598 1.385 . S
C1599 C1600 1.389 . S
C1600 C1599 1.389 . S
C1600 C1601 1.387 . S
C1601 H1586 0.930 . S
C1601 C1596 1.390 . S
C1601 C1600 1.387 . S
H1602 C1614 0.930 . S
H1603 C1616 0.930 . S
H1604 C1617 0.930 . S
H1605 C1621 0.959 . S
H1606 C1621 0.959 . S
H1607 C1621 0.961 . S
H1608 C1622 0.960 1_545 S
H1609 C1622 0.961 . S
H1610 C1622 0.959 . S
H1611 C1625 0.929 . S
H1612 C1626 0.931 . S
H1613 C1628 0.930 . S
C1614 H1602 0.930 . S
C1614 C1615 1.399 . S
C1614 C1619 1.399 . S
C1615 C1614 1.399 . S
C1615 C1616 1.376 . S
C1616 H1603 0.930 . S
C1616 C1615 1.376 . S
C1616 C1617 1.388 . S
C1617 H1604 0.930 . S
C1617 C1616 1.388 . S
C1617 C1618 1.390 . S
C1618 C1617 1.390 . S
C1618 C1619 1.394 . S
C1618 C1624 1.465 . S
C1619 C1614 1.399 . S
C1619 C1618 1.394 . S
C1619 C1620 1.516 . S
C1620 C1619 1.516 . S
C1620 C1621 1.502 . S
C1620 C1622 1.561 . S
C1620 C1623 1.526 . S
C1621 H1605 0.959 . S
C1621 H1606 0.959 . S
C1621 H1607 0.961 . S
C1621 C1620 1.502 . S
C1622 H1608 0.960 1_565 S
C1622 H1609 0.961 . S
C1622 H1610 0.959 . S
C1622 C1620 1.561 . S
C1623 C1620 1.526 . S
C1623 C1624 1.396 . S
C1623 C1628 1.390 . S
C1624 C1618 1.465 . S
C1624 C1623 1.396 . S
C1624 C1625 1.399 . S
C1625 H1611 0.929 . S
C1625 C1624 1.399 . S
C1625 C1626 1.385 . S
C1626 H1612 0.931 . S
C1626 C1625 1.385 . S
C1626 C1627 1.389 . S
C1627 C1626 1.389 . S
C1627 C1628 1.387 . S
C1628 H1613 0.930 . S
C1628 C1623 1.390 . S
C1628 C1627 1.387 . S
H1629 C1641 0.930 . S
H1630 C1643 0.930 . S
H1631 C1644 0.930 . S
H1632 C1648 0.959 . S
H1633 C1648 0.959 . S
H1634 C1648 0.961 . S
H1635 C1649 0.960 . S
H1636 C1649 0.961 1_554 S
H1637 C1649 0.959 . S
H1638 C1652 0.929 . S
H1639 C1653 0.931 . S
H1640 C1655 0.930 . S
C1641 H1629 0.930 . S
C1641 C1642 1.399 . S
C1641 C1646 1.399 . S
C1642 C1641 1.399 . S
C1642 C1643 1.376 . S
C1643 H1630 0.930 . S
C1643 C1642 1.376 . S
C1643 C1644 1.388 . S
C1644 H1631 0.930 . S
C1644 C1643 1.388 . S
C1644 C1645 1.390 . S
C1645 C1644 1.390 . S
C1645 C1646 1.394 . S
C1645 C1651 1.465 . S
C1646 C1641 1.399 . S
C1646 C1645 1.394 . S
C1646 C1647 1.516 . S
C1647 C1646 1.516 . S
C1647 C1648 1.502 1_556 S
C1647 C1649 1.561 . S
C1647 C1650 1.526 . S
C1648 H1632 0.959 . S
C1648 H1633 0.959 . S
C1648 H1634 0.961 . S
C1648 C1647 1.502 1_554 S
C1649 H1635 0.960 . S
C1649 H1636 0.961 1_556 S
C1649 H1637 0.959 . S
C1649 C1647 1.561 . S
C1650 C1647 1.526 . S
C1650 C1651 1.396 . S
C1650 C1655 1.390 1_556 S
C1651 C1645 1.465 . S
C1651 C1650 1.396 . S
C1651 C1652 1.399 . S
C1652 H1638 0.929 . S
C1652 C1651 1.399 . S
C1652 C1653 1.385 . S
C1653 H1639 0.931 . S
C1653 C1652 1.385 . S
C1653 C1654 1.389 . S
C1654 C1653 1.389 . S
C1654 C1655 1.387 1_556 S
C1655 H1640 0.930 . S
C1655 C1650 1.390 1_554 S
C1655 C1654 1.387 1_554 S
H1656 C1668 0.930 . S
H1657 C1670 0.930 . S
H1658 C1671 0.930 1_554 S
H1659 C1675 0.959 . S
H1660 C1675 0.959 . S
H1661 C1675 0.961 . S
H1662 C1676 0.960 . S
H1663 C1676 0.961 . S
H1664 C1676 0.959 . S
H1665 C1679 0.929 . S
H1666 C1680 0.931 . S
H1667 C1682 0.930 . S
C1668 H1656 0.930 . S
C1668 C1669 1.399 . S
C1668 C1673 1.399 . S
C1669 C1668 1.399 . S
C1669 C1670 1.376 . S
C1670 H1657 0.930 . S
C1670 C1669 1.376 . S
C1670 C1671 1.388 . S
C1671 H1658 0.930 1_556 S
C1671 C1670 1.388 . S
C1671 C1672 1.390 . S
C1672 C1671 1.390 . S
C1672 C1673 1.394 . S
C1672 C1678 1.465 . S
C1673 C1668 1.399 . S
C1673 C1672 1.394 . S
C1673 C1674 1.516 . S
C1674 C1673 1.516 . S
C1674 C1675 1.502 . S
C1674 C1676 1.561 . S
C1674 C1677 1.526 . S
C1675 H1659 0.959 . S
C1675 H1660 0.959 . S
C1675 H1661 0.961 . S
C1675 C1674 1.502 . S
C1676 H1662 0.960 . S
C1676 H1663 0.961 . S
C1676 H1664 0.959 . S
C1676 C1674 1.561 . S
C1677 C1674 1.526 . S
C1677 C1678 1.396 . S
C1677 C1682 1.390 . S
C1678 C1672 1.465 . S
C1678 C1677 1.396 . S
C1678 C1679 1.399 1_556 S
C1679 H1665 0.929 . S
C1679 C1678 1.399 1_554 S
C1679 C1680 1.385 . S
C1680 H1666 0.931 . S
C1680 C1679 1.385 . S
C1680 C1681 1.389 1_554 S
C1681 C1680 1.389 1_556 S
C1681 C1682 1.387 . S
C1682 H1667 0.930 . S
C1682 C1677 1.390 . S
C1682 C1681 1.387 . S
H1683 C1695 0.930 . S
H1684 C1697 0.930 . S
H1685 C1698 0.930 . S
H1686 C1702 0.959 . S
H1687 C1702 0.959 . S
H1688 C1702 0.961 . S
H1689 C1703 0.960 . S
H1690 C1703 0.961 . S
H1691 C1703 0.959 . S
H1692 C1706 0.929 . S
H1693 C1707 0.931 . S
H1694 C1709 0.930 . S
C1695 H1683 0.930 . S
C1695 C1696 1.399 . S
C1695 C1700 1.399 . S
C1696 C1695 1.399 . S
C1696 C1697 1.376 . S
C1697 H1684 0.930 . S
C1697 C1696 1.376 . S
C1697 C1698 1.388 . S
C1698 H1685 0.930 . S
C1698 C1697 1.388 . S
C1698 C1699 1.390 . S
C1699 C1698 1.390 . S
C1699 C1700 1.394 . S
C1699 C1705 1.465 . S
C1700 C1695 1.399 . S
C1700 C1699 1.394 . S
C1700 C1701 1.516 . S
C1701 C1700 1.516 . S
C1701 C1702 1.502 . S
C1701 C1703 1.561 . S
C1701 C1704 1.526 . S
C1702 H1686 0.959 . S
C1702 H1687 0.959 . S
C1702 H1688 0.961 . S
C1702 C1701 1.502 . S
C1703 H1689 0.960 . S
C1703 H1690 0.961 . S
C1703 H1691 0.959 . S
C1703 C1701 1.561 . S
C1704 C1701 1.526 . S
C1704 C1705 1.396 . S
C1704 C1709 1.390 . S
C1705 C1699 1.465 . S
C1705 C1704 1.396 . S
C1705 C1706 1.399 1_556 S
C1706 H1692 0.929 . S
C1706 C1705 1.399 1_554 S
C1706 C1707 1.385 . S
C1707 H1693 0.931 . S
C1707 C1706 1.385 . S
C1707 C1708 1.389 1_554 S
C1708 C1707 1.389 1_556 S
C1708 C1709 1.387 . S
C1709 H1694 0.930 . S
C1709 C1704 1.390 . S
C1709 C1708 1.387 . S
H1710 C1722 0.930 . S
H1711 C1724 0.930 . S
H1712 C1725 0.930 . S
H1713 C1729 0.959 . S
H1714 C1729 0.959 . S
H1715 C1729 0.961 . S
H1716 C1730 0.960 . S
H1717 C1730 0.961 . S
H1718 C1730 0.959 . S
H1719 C1733 0.929 . S
H1720 C1734 0.931 . S
H1721 C1736 0.930 . S
C1722 H1710 0.930 . S
C1722 C1723 1.399 . S
C1722 C1727 1.399 . S
C1723 C1722 1.399 . S
C1723 C1724 1.376 . S
C1724 H1711 0.930 . S
C1724 C1723 1.376 . S
C1724 C1725 1.388 . S
C1725 H1712 0.930 . S
C1725 C1724 1.388 . S
C1725 C1726 1.390 . S
C1726 C1725 1.390 . S
C1726 C1727 1.394 . S
C1726 C1732 1.465 . S
C1727 C1722 1.399 . S
C1727 C1726 1.394 . S
C1727 C1728 1.516 . S
C1728 C1727 1.516 . S
C1728 C1729 1.502 . S
C1728 C1730 1.561 . S
C1728 C1731 1.526 . S
C1729 H1713 0.959 . S
C1729 H1714 0.959 . S
C1729 H1715 0.961 . S
C1729 C1728 1.502 . S
C1730 H1716 0.960 . S
C1730 H1717 0.961 . S
C1730 H1718 0.959 . S
C1730 C1728 1.561 . S
C1731 C1728 1.526 . S
C1731 C1732 1.396 . S
C1731 C1736 1.390 . S
C1732 C1726 1.465 . S
C1732 C1731 1.396 . S
C1732 C1733 1.399 . S
C1733 H1719 0.929 . S
C1733 C1732 1.399 . S
C1733 C1734 1.385 . S
C1734 H1720 0.931 . S
C1734 C1733 1.385 . S
C1734 C1735 1.389 . S
C1735 C1734 1.389 . S
C1735 C1736 1.387 . S
C1736 H1721 0.930 . S
C1736 C1731 1.390 . S
C1736 C1735 1.387 . S
H1737 C1749 0.930 . S
H1738 C1751 0.930 . S
H1739 C1752 0.930 . S
H1740 C1756 0.959 . S
H1741 C1756 0.959 . S
H1742 C1756 0.961 . S
H1743 C1757 0.960 . S
H1744 C1757 0.961 . S
H1745 C1757 0.959 . S
H1746 C1760 0.929 . S
H1747 C1761 0.931 . S
H1748 C1763 0.930 . S
C1749 H1737 0.930 . S
C1749 C1750 1.399 . S
C1749 C1754 1.399 . S
C1750 C1749 1.399 . S
C1750 C1751 1.376 . S
C1751 H1738 0.930 . S
C1751 C1750 1.376 . S
C1751 C1752 1.388 . S
C1752 H1739 0.930 . S
C1752 C1751 1.388 . S
C1752 C1753 1.390 . S
C1753 C1752 1.390 . S
C1753 C1754 1.394 . S
C1753 C1759 1.465 . S
C1754 C1749 1.399 . S
C1754 C1753 1.394 . S
C1754 C1755 1.516 . S
C1755 C1754 1.516 . S
C1755 C1756 1.502 . S
C1755 C1757 1.561 . S
C1755 C1758 1.526 . S
C1756 H1740 0.959 . S
C1756 H1741 0.959 . S
C1756 H1742 0.961 . S
C1756 C1755 1.502 . S
C1757 H1743 0.960 . S
C1757 H1744 0.961 . S
C1757 H1745 0.959 . S
C1757 C1755 1.561 . S
C1758 C1755 1.526 . S
C1758 C1759 1.396 . S
C1758 C1763 1.390 . S
C1759 C1753 1.465 . S
C1759 C1758 1.396 . S
C1759 C1760 1.399 . S
C1760 H1746 0.929 . S
C1760 C1759 1.399 . S
C1760 C1761 1.385 . S
C1761 H1747 0.931 . S
C1761 C1760 1.385 . S
C1761 C1762 1.389 . S
C1762 C1761 1.389 . S
C1762 C1763 1.387 . S
C1763 H1748 0.930 . S
C1763 C1758 1.390 . S
C1763 C1762 1.387 . S
H1764 C1776 0.930 . S
H1765 C1778 0.930 . S
H1766 C1779 0.930 . S
H1767 C1783 0.959 . S
H1768 C1783 0.959 . S
H1769 C1783 0.961 . S
H1770 C1784 0.960 . S
H1771 C1784 0.961 . S
H1772 C1784 0.959 . S
H1773 C1787 0.929 . S
H1774 C1788 0.931 . S
H1775 C1790 0.930 . S
C1776 H1764 0.930 . S
C1776 C1777 1.399 . S
C1776 C1781 1.399 . S
C1777 C1776 1.399 . S
C1777 C1778 1.376 . S
C1778 H1765 0.930 . S
C1778 C1777 1.376 . S
C1778 C1779 1.388 . S
C1779 H1766 0.930 . S
C1779 C1778 1.388 . S
C1779 C1780 1.390 . S
C1780 C1779 1.390 . S
C1780 C1781 1.394 . S
C1780 C1786 1.465 . S
C1781 C1776 1.399 . S
C1781 C1780 1.394 . S
C1781 C1782 1.516 . S
C1782 C1781 1.516 . S
C1782 C1783 1.502 . S
C1782 C1784 1.561 . S
C1782 C1785 1.526 . S
C1783 H1767 0.959 . S
C1783 H1768 0.959 . S
C1783 H1769 0.961 . S
C1783 C1782 1.502 . S
C1784 H1770 0.960 . S
C1784 H1771 0.961 . S
C1784 H1772 0.959 . S
C1784 C1782 1.561 . S
C1785 C1782 1.526 . S
C1785 C1786 1.396 . S
C1785 C1790 1.390 . S
C1786 C1780 1.465 . S
C1786 C1785 1.396 . S
C1786 C1787 1.399 . S
C1787 H1773 0.929 . S
C1787 C1786 1.399 . S
C1787 C1788 1.385 . S
C1788 H1774 0.931 . S
C1788 C1787 1.385 . S
C1788 C1789 1.389 . S
C1789 C1788 1.389 . S
C1789 C1790 1.387 . S
C1790 H1775 0.930 . S
C1790 C1785 1.390 . S
C1790 C1789 1.387 . S
H1791 C1803 0.930 . S
H1792 C1805 0.930 . S
H1793 C1806 0.930 1_556 S
H1794 C1810 0.959 . S
H1795 C1810 0.959 . S
H1796 C1810 0.961 . S
H1797 C1811 0.960 . S
H1798 C1811 0.961 . S
H1799 C1811 0.959 . S
H1800 C1814 0.929 . S
H1801 C1815 0.931 . S
H1802 C1817 0.930 . S
C1803 H1791 0.930 . S
C1803 C1804 1.399 . S
C1803 C1808 1.399 . S
C1804 C1803 1.399 . S
C1804 C1805 1.376 1_554 S
C1805 H1792 0.930 . S
C1805 C1804 1.376 1_556 S
C1805 C1806 1.388 1_556 S
C1806 H1793 0.930 1_554 S
C1806 C1805 1.388 1_554 S
C1806 C1807 1.390 . S
C1807 C1806 1.390 . S
C1807 C1808 1.394 . S
C1807 C1813 1.465 . S
C1808 C1803 1.399 . S
C1808 C1807 1.394 . S
C1808 C1809 1.516 . S
C1809 C1808 1.516 . S
C1809 C1810 1.502 . S
C1809 C1811 1.561 . S
C1809 C1812 1.526 . S
C1810 H1794 0.959 . S
C1810 H1795 0.959 . S
C1810 H1796 0.961 . S
C1810 C1809 1.502 . S
C1811 H1797 0.960 . S
C1811 H1798 0.961 . S
C1811 H1799 0.959 . S
C1811 C1809 1.561 . S
C1812 C1809 1.526 . S
C1812 C1813 1.396 . S
C1812 C1817 1.390 . S
C1813 C1807 1.465 . S
C1813 C1812 1.396 . S
C1813 C1814 1.399 . S
C1814 H1800 0.929 . S
C1814 C1813 1.399 . S
C1814 C1815 1.385 . S
C1815 H1801 0.931 . S
C1815 C1814 1.385 . S
C1815 C1816 1.389 . S
C1816 C1815 1.389 . S
C1816 C1817 1.387 . S
C1817 H1802 0.930 . S
C1817 C1812 1.390 . S
C1817 C1816 1.387 . S
H1818 C1830 0.930 . S
H1819 C1832 0.930 . S
H1820 C1833 0.930 1_556 S
H1821 C1837 0.959 . S
H1822 C1837 0.959 . S
H1823 C1837 0.961 . S
H1824 C1838 0.960 . S
H1825 C1838 0.961 . S
H1826 C1838 0.959 . S
H1827 C1841 0.929 . S
H1828 C1842 0.931 . S
H1829 C1844 0.930 . S
C1830 H1818 0.930 . S
C1830 C1831 1.399 . S
C1830 C1835 1.399 . S
C1831 C1830 1.399 . S
C1831 C1832 1.376 . S
C1832 H1819 0.930 . S
C1832 C1831 1.376 . S
C1832 C1833 1.388 . S
C1833 H1820 0.930 1_554 S
C1833 C1832 1.388 . S
C1833 C1834 1.390 . S
C1834 C1833 1.390 . S
C1834 C1835 1.394 . S
C1834 C1840 1.465 . S
C1835 C1830 1.399 . S
C1835 C1834 1.394 . S
C1835 C1836 1.516 . S
C1836 C1835 1.516 . S
C1836 C1837 1.502 . S
C1836 C1838 1.561 . S
C1836 C1839 1.526 . S
C1837 H1821 0.959 . S
C1837 H1822 0.959 . S
C1837 H1823 0.961 . S
C1837 C1836 1.502 . S
C1838 H1824 0.960 . S
C1838 H1825 0.961 . S
C1838 H1826 0.959 . S
C1838 C1836 1.561 . S
C1839 C1836 1.526 . S
C1839 C1840 1.396 . S
C1839 C1844 1.390 . S
C1840 C1834 1.465 . S
C1840 C1839 1.396 . S
C1840 C1841 1.399 1_554 S
C1841 H1827 0.929 . S
C1841 C1840 1.399 1_556 S
C1841 C1842 1.385 . S
C1842 H1828 0.931 . S
C1842 C1841 1.385 . S
C1842 C1843 1.389 1_556 S
C1843 C1842 1.389 1_554 S
C1843 C1844 1.387 . S
C1844 H1829 0.930 . S
C1844 C1839 1.390 . S
C1844 C1843 1.387 . S
H1845 C1857 0.930 . S
H1846 C1859 0.930 . S
H1847 C1860 0.919 1_556 S
H1848 C1864 0.959 . S
H1849 C1864 0.959 . S
H1850 C1864 0.961 . S
H1851 C1865 0.960 . S
H1852 C1865 0.961 . S
H1853 C1865 0.959 . S
H1854 C1868 0.929 . S
H1855 C1869 0.931 . S
H1856 C1871 0.930 . S
C1857 H1845 0.930 . S
C1857 C1858 1.399 . S
C1857 C1862 1.399 . S
C1858 C1857 1.399 . S
C1858 C1859 1.376 . S
C1859 H1846 0.930 . S
C1859 C1858 1.376 . S
C1859 C1860 1.388 . S
C1860 H1847 0.919 1_554 S
C1860 C1859 1.388 . S
C1860 C1861 1.390 . S
C1861 C1860 1.390 . S
C1861 C1862 1.394 . S
C1861 C1867 1.465 . S
C1862 C1857 1.399 . S
C1862 C1861 1.394 . S
C1862 C1863 1.516 . S
C1863 C1862 1.516 . S
C1863 C1864 1.502 . S
C1863 C1865 1.561 . S
C1863 C1866 1.526 . S
C1864 H1848 0.959 . S
C1864 H1849 0.959 . S
C1864 H1850 0.961 . S
C1864 C1863 1.502 . S
C1865 H1851 0.960 . S
C1865 H1852 0.961 . S
C1865 H1853 0.959 . S
C1865 C1863 1.561 . S
C1866 C1863 1.526 . S
C1866 C1867 1.396 . S
C1866 C1871 1.390 . S
C1867 C1861 1.465 . S
C1867 C1866 1.396 . S
C1867 C1868 1.399 1_554 S
C1868 H1854 0.929 . S
C1868 C1867 1.399 1_556 S
C1868 C1869 1.385 . S
C1869 H1855 0.931 . S
C1869 C1868 1.385 . S
C1869 C1870 1.389 1_556 S
C1870 C1869 1.389 1_554 S
C1870 C1871 1.387 . S
C1871 H1856 0.930 . S
C1871 C1866 1.390 . S
C1871 C1870 1.387 . S
H1872 C1884 0.930 . S
H1873 C1886 0.930 . S
H1874 C1887 0.930 1_455 S
H1875 C1891 0.959 . S
H1876 C1891 0.959 . S
H1877 C1891 0.961 1_655 S
H1878 C1892 0.960 . S
H1879 C1892 0.958 1_455 S
H1880 C1892 0.959 . S
H1881 C1895 0.929 . S
H1882 C1896 0.931 . S
H1883 C1898 0.930 . S
C1884 H1872 0.930 . S
C1884 C1885 1.399 . S
C1884 C1889 1.399 . S
C1885 C1884 1.399 . S
C1885 C1886 1.376 . S
C1886 H1873 0.930 . S
C1886 C1885 1.376 . S
C1886 C1887 1.388 . S
C1887 H1874 0.930 1_655 S
C1887 C1886 1.388 . S
C1887 C1888 1.390 1_655 S
C1888 C1887 1.390 1_455 S
C1888 C1889 1.394 1_455 S
C1888 C1894 1.465 . S
C1889 C1884 1.399 . S
C1889 C1888 1.394 1_655 S
C1889 C1890 1.516 1_655 S
C1890 C1889 1.516 1_455 S
C1890 C1891 1.502 . S
C1890 C1892 1.561 1_455 S
C1890 C1893 1.526 . S
C1891 H1875 0.959 . S
C1891 H1876 0.959 . S
C1891 H1877 0.961 1_455 S
C1891 C1890 1.502 . S
C1892 H1878 0.960 . S
C1892 H1879 0.958 1_655 S
C1892 H1880 0.959 . S
C1892 C1890 1.561 1_655 S
C1893 C1890 1.526 . S
C1893 C1894 1.396 . S
C1893 C1898 1.390 . S
C1894 C1888 1.465 . S
C1894 C1893 1.396 . S
C1894 C1895 1.399 . S
C1895 H1881 0.929 . S
C1895 C1894 1.399 . S
C1895 C1896 1.385 . S
C1896 H1882 0.931 . S
C1896 C1895 1.385 . S
C1896 C1897 1.389 . S
C1897 C1896 1.389 . S
C1897 C1898 1.387 . S
C1898 H1883 0.930 . S
C1898 C1893 1.390 . S
C1898 C1897 1.387 . S
H1899 C1911 0.930 . S
H1900 C1913 0.930 . S
H1901 C1914 0.930 . S
H1902 C1918 0.959 . S
H1903 C1918 0.959 . S
H1904 C1918 0.961 . S
H1905 C1919 0.960 . S
H1906 C1919 0.961 . S
H1907 C1919 0.959 . S
H1908 C1922 0.929 . S
H1909 C1923 0.931 . S
H1910 C1925 0.930 . S
C1911 H1899 0.930 . S
C1911 C1912 1.399 . S
C1911 C1916 1.399 . S
C1912 C1911 1.399 . S
C1912 C1913 1.376 . S
C1913 H1900 0.930 . S
C1913 C1912 1.376 . S
C1913 C1914 1.388 . S
C1914 H1901 0.930 . S
C1914 C1913 1.388 . S
C1914 C1915 1.390 . S
C1915 C1914 1.390 . S
C1915 C1916 1.394 . S
C1915 C1921 1.465 . S
C1916 C1911 1.399 . S
C1916 C1915 1.394 . S
C1916 C1917 1.516 . S
C1917 C1916 1.516 . S
C1917 C1918 1.502 . S
C1917 C1919 1.561 . S
C1917 C1920 1.526 . S
C1918 H1902 0.959 . S
C1918 H1903 0.959 . S
C1918 H1904 0.961 . S
C1918 C1917 1.502 . S
C1919 H1905 0.960 . S
C1919 H1906 0.961 . S
C1919 H1907 0.959 . S
C1919 C1917 1.561 . S
C1920 C1917 1.526 . S
C1920 C1921 1.396 . S
C1920 C1925 1.390 . S
C1921 C1915 1.465 . S
C1921 C1920 1.396 . S
C1921 C1922 1.399 . S
C1922 H1908 0.929 . S
C1922 C1921 1.399 . S
C1922 C1923 1.385 . S
C1923 H1909 0.931 . S
C1923 C1922 1.385 . S
C1923 C1924 1.389 . S
C1924 C1923 1.389 . S
C1924 C1925 1.387 . S
C1925 H1910 0.930 . S
C1925 C1920 1.390 . S
C1925 C1924 1.387 . S
H1926 C1938 0.930 . S
H1927 C1940 0.930 . S
H1928 C1941 0.930 1_545 S
H1929 C1945 0.959 . S
H1930 C1945 0.959 . S
H1931 C1945 0.961 1_565 S
H1932 C1946 0.960 . S
H1933 C1946 0.962 1_545 S
H1934 C1946 0.959 . S
H1935 C1949 0.929 . S
H1936 C1950 0.931 . S
H1937 C1952 0.930 . S
C1938 H1926 0.930 . S
C1938 C1939 1.399 . S
C1938 C1943 1.399 . S
C1939 C1938 1.399 . S
C1939 C1940 1.376 . S
C1940 H1927 0.930 . S
C1940 C1939 1.376 . S
C1940 C1941 1.388 . S
C1941 H1928 0.930 1_565 S
C1941 C1940 1.388 . S
C1941 C1942 1.390 1_565 S
C1942 C1941 1.390 1_545 S
C1942 C1943 1.394 1_545 S
C1942 C1948 1.465 . S
C1943 C1938 1.399 . S
C1943 C1942 1.394 1_565 S
C1943 C1944 1.516 1_565 S
C1944 C1943 1.516 1_545 S
C1944 C1945 1.502 . S
C1944 C1946 1.561 1_545 S
C1944 C1947 1.526 . S
C1945 H1929 0.959 . S
C1945 H1930 0.959 . S
C1945 H1931 0.961 1_545 S
C1945 C1944 1.502 . S
C1946 H1932 0.960 . S
C1946 H1933 0.962 1_565 S
C1946 H1934 0.959 . S
C1946 C1944 1.561 1_565 S
C1947 C1944 1.526 . S
C1947 C1948 1.396 . S
C1947 C1952 1.390 . S
C1948 C1942 1.465 . S
C1948 C1947 1.396 . S
C1948 C1949 1.399 . S
C1949 H1935 0.929 . S
C1949 C1948 1.399 . S
C1949 C1950 1.385 . S
C1950 H1936 0.931 . S
C1950 C1949 1.385 . S
C1950 C1951 1.389 . S
C1951 C1950 1.389 . S
C1951 C1952 1.387 . S
C1952 H1937 0.930 . S
C1952 C1947 1.390 . S
C1952 C1951 1.387 . S
H1953 C1965 0.930 . S
H1954 C1967 0.930 . S
H1955 C1968 0.930 . S
H1956 C1972 0.959 . S
H1957 C1972 0.959 . S
H1958 C1972 0.961 . S
H1959 C1973 0.960 . S
H1960 C1973 0.961 1_545 S
H1961 C1973 0.959 . S
H1962 C1976 0.929 . S
H1963 C1977 0.931 . S
H1964 C1979 0.930 . S
C1965 H1953 0.930 . S
C1965 C1966 1.399 . S
C1965 C1970 1.399 . S
C1966 C1965 1.399 . S
C1966 C1967 1.376 . S
C1967 H1954 0.930 . S
C1967 C1966 1.376 . S
C1967 C1968 1.388 . S
C1968 H1955 0.930 . S
C1968 C1967 1.388 . S
C1968 C1969 1.389 1_565 S
C1969 C1968 1.389 1_545 S
C1969 C1970 1.384 1_545 S
C1969 C1975 1.475 . S
C1970 C1965 1.399 . S
C1970 C1969 1.384 1_565 S
C1970 C1971 1.516 1_565 S
C1971 C1970 1.516 1_545 S
C1971 C1972 1.502 . S
C1971 C1973 1.561 1_545 S
C1971 C1974 1.526 . S
C1972 H1956 0.959 . S
C1972 H1957 0.959 . S
C1972 H1958 0.961 . S
C1972 C1971 1.502 . S
C1973 H1959 0.960 . S
C1973 H1960 0.961 1_565 S
C1973 H1961 0.959 . S
C1973 C1971 1.561 1_565 S
C1974 C1971 1.526 . S
C1974 C1975 1.396 . S
C1974 C1979 1.390 . S
C1975 C1969 1.475 . S
C1975 C1974 1.396 . S
C1975 C1976 1.399 . S
C1976 H1962 0.929 . S
C1976 C1975 1.399 . S
C1976 C1977 1.385 . S
C1977 H1963 0.931 . S
C1977 C1976 1.385 . S
C1977 C1978 1.389 . S
C1978 C1977 1.389 . S
C1978 C1979 1.387 . S
C1979 H1964 0.930 . S
C1979 C1974 1.390 . S
C1979 C1978 1.387 . S
H1980 C1992 0.930 . S
H1981 C1994 0.930 . S
H1982 C1995 0.930 . S
H1983 C1999 0.959 . S
H1984 C1999 0.959 . S
H1985 C1999 0.961 . S
H1986 C2000 0.960 . S
H1987 C2000 0.961 . S
H1988 C2000 0.959 . S
H1989 C2003 0.929 . S
H1990 C2004 0.931 . S
H1991 C2006 0.930 . S
C1992 H1980 0.930 . S
C1992 C1993 1.399 . S
C1992 C1997 1.399 . S
C1993 C1992 1.399 . S
C1993 C1994 1.376 . S
C1994 H1981 0.930 . S
C1994 C1993 1.376 . S
C1994 C1995 1.388 . S
C1995 H1982 0.930 . S
C1995 C1994 1.388 . S
C1995 C1996 1.390 . S
C1996 C1995 1.390 . S
C1996 C1997 1.394 . S
C1996 C2002 1.465 1_455 S
C1997 C1992 1.399 . S
C1997 C1996 1.394 . S
C1997 C1998 1.516 . S
C1998 C1997 1.516 . S
C1998 C1999 1.502 . S
C1998 C2000 1.561 . S
C1998 C2001 1.526 1_455 S
C1999 H1983 0.959 . S
C1999 H1984 0.959 . S
C1999 H1985 0.961 . S
C1999 C1998 1.502 . S
C2000 H1986 0.960 . S
C2000 H1987 0.961 . S
C2000 H1988 0.959 . S
C2000 C1998 1.561 . S
C2001 C1998 1.526 1_655 S
C2001 C2002 1.396 . S
C2001 C2006 1.390 . S
C2002 C1996 1.465 1_655 S
C2002 C2001 1.396 . S
C2002 C2003 1.399 . S
C2003 H1989 0.929 . S
C2003 C2002 1.399 . S
C2003 C2004 1.385 . S
C2004 H1990 0.931 . S
C2004 C2003 1.385 . S
C2004 C2005 1.389 . S
C2005 C2004 1.389 . S
C2005 C2006 1.387 . S
C2006 H1991 0.930 . S
C2006 C2001 1.390 . S
C2006 C2005 1.387 . S
H2007 C2019 0.930 . S
H2008 C2021 0.930 . S
H2009 C2022 0.930 . S
H2010 C2026 0.959 . S
H2011 C2026 0.959 . S
H2012 C2026 0.961 . S
H2013 C2027 0.960 . S
H2014 C2027 0.961 . S
H2015 C2027 0.959 . S
H2016 C2030 0.929 . S
H2017 C2031 0.931 . S
H2018 C2033 0.930 . S
C2019 H2007 0.930 . S
C2019 C2020 1.399 . S
C2019 C2024 1.399 . S
C2020 C2019 1.399 . S
C2020 C2021 1.376 . S
C2021 H2008 0.930 . S
C2021 C2020 1.376 . S
C2021 C2022 1.388 . S
C2022 H2009 0.930 . S
C2022 C2021 1.388 . S
C2022 C2023 1.390 . S
C2023 C2022 1.390 . S
C2023 C2024 1.394 . S
C2023 C2029 1.465 . S
C2024 C2019 1.399 . S
C2024 C2023 1.394 . S
C2024 C2025 1.516 . S
C2025 C2024 1.516 . S
C2025 C2026 1.502 . S
C2025 C2027 1.561 . S
C2025 C2028 1.526 . S
C2026 H2010 0.959 . S
C2026 H2011 0.959 . S
C2026 H2012 0.961 . S
C2026 C2025 1.502 . S
C2027 H2013 0.960 . S
C2027 H2014 0.961 . S
C2027 H2015 0.959 . S
C2027 C2025 1.561 . S
C2028 C2025 1.526 . S
C2028 C2029 1.396 . S
C2028 C2033 1.390 . S
C2029 C2023 1.465 . S
C2029 C2028 1.396 . S
C2029 C2030 1.399 . S
C2030 H2016 0.929 . S
C2030 C2029 1.399 . S
C2030 C2031 1.385 . S
C2031 H2017 0.931 . S
C2031 C2030 1.385 . S
C2031 C2032 1.389 . S
C2032 C2031 1.389 . S
C2032 C2033 1.387 . S
C2033 H2018 0.930 . S
C2033 C2028 1.390 . S
C2033 C2032 1.387 . S
C589 C6 1.741 . S
C601 N146 1.736 . S
C616 N178 1.731 . S
C628 C38 1.731 . S
C643 C66 1.749 . S
C655 N114 1.734 . S
C670 C70 1.731 . S
C682 N141 1.709 . S
C697 N173 1.643 . S
C709 C2 1.789 . S
C724 C34 1.731 . S
C736 N109 1.732 . S
C751 N50 1.643 . S
C763 C102 1.796 . S
C778 N77 1.693 . S
C790 C134 1.756 . S
C805 C166 1.740 . S
C817 N18 1.727 . S
C832 C162 1.795 . S
C844 N45 1.649 . S
C859 N82 1.717 . S
C871 C98 1.749 . S
C886 N13 1.643 . S
C898 C130 1.796 . S
C913 N333 1.689 . S
C925 C198 1.787 1_556 S
C940 C230 1.773 1_556 S
C952 N370 1.712 . S
C967 C262 1.769 1_556 S
C979 N306 1.717 . S
C994 N338 1.728 . S
C1006 C258 1.757 . S
C1021 N365 1.732 . S
C1033 C194 1.753 . S
C1048 N301 1.724 . S
C1060 C226 1.764 . S
C1075 N242 1.644 . S
C1087 C294 1.796 . S
C1102 N274 1.712 . S
C1114 C322 1.743 . S
C1129 N210 1.664 . S
C1141 C358 1.786 . S
C1156 N237 1.656 . S
C1168 C354 1.782 . S
C1183 N269 1.659 . S
C1195 C290 1.780 . S
C1210 C326 1.795 . S
C1222 N205 1.649 . S
C1237 C390 1.731 . S
C1249 N525 1.733 . S
C1264 C418 1.750 . S
C1276 N557 1.673 . S
C1291 N498 1.733 . S
C1303 C454 1.752 . S
C1318 N530 1.711 . S
C1330 C450 1.774 . S
C1345 C386 1.733 . S
C1357 N562 1.706 . S
C1372 C422 1.730 . S
C1384 N493 1.730 . S
C1399 N429 1.702 . S
C1411 C486 1.760 1_554 S
C1426 N466 1.717 . S
C1438 C514 1.740 1_554 S
C1453 N402 1.684 . S
C1465 C546 1.772 1_554 S
C1480 C550 1.793 . S
C1492 N434 1.646 . S
C1507 C482 1.730 . S
C1519 N461 1.736 . S
C1534 N397 1.645 . S
C1546 C518 1.793 . S
C1561 C29 1.215 . S
C1573 C445 1.172 . S
C1588 C61 1.223 . S
C1600 C452 1.206 . S
C1615 C68 1.185 . S
C1627 C388 1.223 . S
C1642 C93 1.173 . S
C1654 C253 1.216 1_556 S
C1669 C4 1.221 . S
C1681 C285 1.180 1_556 S
C1696 C36 1.225 . S
C1708 C221 1.194 1_556 S
C1723 C349 1.196 . S
C1735 C125 1.171 . S
C1750 C157 1.184 . S
C1762 C356 1.166 . S
C1777 C189 1.205 . S
C1789 C292 1.178 . S
C1804 C516 1.215 1_554 S
C1816 C164 1.225 . S
C1831 C100 1.203 . S
C1843 C548 1.177 1_554 S
C1858 C132 1.196 . S
C1870 C509 1.172 1_554 S
C1885 C260 1.164 . S
C1897 C420 1.186 . S
C1912 C196 1.164 . S
C1924 C477 1.187 . S
C1939 C413 1.164 . S
C1951 C228 1.187 . S
C1966 C541 1.223 . S
C1978 C317 1.220 . S
C1993 C573 1.211 . S
C2005 C324 1.225 . S
C2020 C381 1.214 . S
C2032 C484 1.225 . S
